# Generated by pormake.
# Topology vmv, (8)-cn, num edge types: 1
# Building blocks:
#     Node 0, Type 0, BuildingBlock: TAGTUT_clean_sbu_1, # of connection points: 8
#     Node 1, Type 0, BuildingBlock: TAGTUT_clean_sbu_1, # of connection points: 8
#     Node 2, Type 0, BuildingBlock: TAGTUT_clean_sbu_1, # of connection points: 8
#     Node 3, Type 0, BuildingBlock: TAGTUT_clean_sbu_1, # of connection points: 8
#     Edge 4, Type (0, 0), BuildingBlock: MIFKUJ_clean_linker_0, # of connection points: 2
#     Edge 5, Type (0, 0), BuildingBlock: MIFKUJ_clean_linker_0, # of connection points: 2
#     Edge 6, Type (0, 0), BuildingBlock: MIFKUJ_clean_linker_0, # of connection points: 2
#     Edge 7, Type (0, 0), BuildingBlock: MIFKUJ_clean_linker_0, # of connection points: 2
#     Edge 8, Type (0, 0), BuildingBlock: MIFKUJ_clean_linker_0, # of connection points: 2
#     Edge 9, Type (0, 0), BuildingBlock: MIFKUJ_clean_linker_0, # of connection points: 2
#     Edge 10, Type (0, 0), BuildingBlock: MIFKUJ_clean_linker_0, # of connection points: 2
#     Edge 11, Type (0, 0), BuildingBlock: MIFKUJ_clean_linker_0, # of connection points: 2
#     Edge 12, Type (0, 0), BuildingBlock: MIFKUJ_clean_linker_0, # of connection points: 2
#     Edge 13, Type (0, 0), BuildingBlock: MIFKUJ_clean_linker_0, # of connection points: 2
#     Edge 14, Type (0, 0), BuildingBlock: MIFKUJ_clean_linker_0, # of connection points: 2
#     Edge 15, Type (0, 0), BuildingBlock: MIFKUJ_clean_linker_0, # of connection points: 2
#     Edge 16, Type (0, 0), BuildingBlock: MIFKUJ_clean_linker_0, # of connection points: 2
#     Edge 17, Type (0, 0), BuildingBlock: MIFKUJ_clean_linker_0, # of connection points: 2
#     Edge 18, Type (0, 0), BuildingBlock: MIFKUJ_clean_linker_0, # of connection points: 2
#     Edge 19, Type (0, 0), BuildingBlock: MIFKUJ_clean_linker_0, # of connection points: 2
# Relax obj value: 0.279
# Max RMSD: 0.288
# Mean RMSD: 0.280
data_MOF--net-vmv--node1-TAGTUT_clean_sbu_1--edge1-MIFKUJ_clean_linker_0
_symmetry_space_group_name_H-M    P1
_symmetry_Int_Tables_number       1
_symmetry_cell_setting            triclinic
loop_
_symmetry_equiv_pos_as_xyz
'x, y, z'
_cell_length_a     20.588653
_cell_length_b     39.204796
_cell_length_c     40.553087
_cell_angle_alpha  90.976239
_cell_angle_beta   104.90834
_cell_angle_gamma 87.836211
loop_
_atom_site_label
_atom_site_type_symbol
_atom_site_fract_x
_atom_site_fract_y
_atom_site_fract_z
_atom_type_partial_charge
C0 C 0.30168 0.22355 0.75627 0.0
C1 C 0.48456 0.27766 0.7677 0.0
C2 C 0.35146 0.39701 0.75494 0.0
Mg3 Mg 0.37028 0.25664 0.70559 0.0
O4 O 0.31737 0.29421 0.71508 0.0
Mg5 Mg 0.32831 0.30985 0.76336 0.0
Mg6 Mg 0.32821 0.33785 0.69382 0.0
O7 O 0.34308 0.38044 0.67092 0.0
Mg8 Mg 0.31295 0.42415 0.67786 0.0
Mg9 Mg 0.3273 0.36293 0.62329 0.0
C10 C 0.31225 0.28287 0.62919 0.0
C11 C 0.46911 0.331 0.67018 0.0
O12 O 0.30139 0.2521 0.77282 0.0
O13 O 0.32368 0.22053 0.72956 0.0
O14 O 0.43912 0.29416 0.77822 0.0
O15 O 0.47169 0.26165 0.73907 0.0
O16 O 0.34005 0.25798 0.64874 0.0
O17 O 0.29981 0.31206 0.6415 0.0
C18 C 0.1859 0.34049 0.7167 0.0
O19 O 0.21491 0.34835 0.69333 0.0
O20 O 0.21864 0.32625 0.74454 0.0
O21 O 0.36121 0.41287 0.60841 0.0
O22 O 0.36436 0.4539 0.64791 0.0
O23 O 0.21931 0.38783 0.60882 0.0
C24 C 0.37366 0.4432 0.61942 0.0
O25 O 0.21013 0.42363 0.65119 0.0
O26 O 0.33888 0.42087 0.73264 0.0
C27 C 0.18599 0.41029 0.6219 0.0
O28 O 0.35257 0.36494 0.74655 0.0
O29 O 0.44087 0.32677 0.69462 0.0
O30 O 0.43564 0.3425 0.64112 0.0
C31 C 0.06565 0.74428 0.71693 0.0
C32 C 0.25998 0.72336 0.78937 0.0
C33 C 0.14752 0.75871 0.88957 0.0
Mg34 Mg 0.18311 0.78944 0.75785 0.0
O35 O 0.12667 0.78705 0.78804 0.0
Mg36 Mg 0.10844 0.7416 0.80436 0.0
Mg37 Mg 0.1563 0.8109 0.83219 0.0
O38 O 0.18582 0.83665 0.87651 0.0
Mg39 Mg 0.13539 0.8344 0.90944 0.0
Mg40 Mg 0.19075 0.88283 0.85647 0.0
C41 C 0.17413 0.86892 0.77906 0.0
C42 C 0.31003 0.83346 0.84024 0.0
O43 O 0.0581 0.73152 0.74494 0.0
O44 O 0.10987 0.76649 0.71683 0.0
O45 O 0.20746 0.71803 0.79924 0.0
O46 O 0.26628 0.75088 0.77403 0.0
O47 O 0.19366 0.84654 0.75953 0.0
O48 O 0.1492 0.86013 0.8034 0.0
C49 C 0.99795 0.79382 0.82332 0.0
O50 O 0.0436 0.81584 0.8327 0.0
O51 O 0.011 0.76472 0.81159 0.0
O52 O 0.23482 0.89935 0.91141 0.0
O53 O 0.20939 0.86309 0.94862 0.0
O54 O 0.08795 0.90335 0.86278 0.0
C55 C 0.23909 0.88952 0.94189 0.0
O56 O 0.04949 0.86775 0.89478 0.0
O57 O 0.10558 0.78141 0.89535 0.0
C58 C 0.04337 0.89514 0.87776 0.0
O59 O 0.16483 0.75948 0.86124 0.0
O60 O 0.26929 0.80881 0.83206 0.0
O61 O 0.29135 0.86245 0.85033 0.0
C62 C 0.69622 0.56023 0.38635 0.0
C63 C 0.85145 0.63176 0.39197 0.0
C64 C 0.67065 0.7255 0.37254 0.0
Mg65 Mg 0.75561 0.59526 0.33364 0.0
O66 O 0.6832 0.6255 0.33487 0.0
Mg67 Mg 0.685 0.64521 0.38128 0.0
Mg68 Mg 0.67876 0.66961 0.31063 0.0
O69 O 0.67598 0.71399 0.28849 0.0
Mg70 Mg 0.61401 0.74853 0.29557 0.0
Mg71 Mg 0.67653 0.69792 0.24168 0.0
C72 C 0.69795 0.61324 0.25371 0.0
C73 C 0.82226 0.6773 0.291 0.0
O74 O 0.68021 0.58997 0.39594 0.0
O75 O 0.72533 0.55507 0.36221 0.0
O76 O 0.79867 0.64186 0.40067 0.0
O77 O 0.84784 0.61515 0.3643 0.0
O78 O 0.73438 0.59507 0.27825 0.0
O79 O 0.66604 0.641 0.25918 0.0
C80 C 0.53695 0.66132 0.33096 0.0
O81 O 0.56459 0.67035 0.30758 0.0
O82 O 0.57203 0.65058 0.35998 0.0
O83 O 0.69044 0.75662 0.23133 0.0
O84 O 0.65617 0.78695 0.27211 0.0
O85 O 0.56306 0.70631 0.22357 0.0
C86 C 0.68216 0.78502 0.24665 0.0
O87 O 0.51783 0.73718 0.25957 0.0
O88 O 0.63939 0.74941 0.35264 0.0
C89 C 0.51224 0.72013 0.23177 0.0
O90 O 0.68979 0.69763 0.36069 0.0
O91 O 0.79356 0.66864 0.31408 0.0
O92 O 0.78833 0.68894 0.26222 0.0
C93 C 0.7471 0.11753 0.05703 0.0
C94 C 0.9428 0.11113 0.12088 0.0
C95 C 0.81281 0.1376 0.21989 0.0
Mg96 Mg 0.8515 0.17234 0.08944 0.0
O97 O 0.80136 0.17002 0.12254 0.0
Mg98 Mg 0.79586 0.12387 0.14247 0.0
Mg99 Mg 0.83069 0.19579 0.16694 0.0
O100 O 0.86017 0.21925 0.21118 0.0
Mg101 Mg 0.80403 0.21643 0.24145 0.0
Mg102 Mg 0.87805 0.26477 0.1953 0.0
C103 C 0.84029 0.24743 0.10998 0.0
C104 C 0.98898 0.21292 0.17608 0.0
O105 O 0.75169 0.10755 0.0875 0.0
O106 O 0.77659 0.14405 0.05033 0.0
O107 O 0.89851 0.10314 0.13614 0.0
O108 O 0.93659 0.1384 0.10366 0.0
O109 O 0.883 0.22464 0.10537 0.0
O110 O 0.82203 0.2476 0.1381 0.0
C111 C 0.67684 0.17339 0.1588 0.0
O112 O 0.71773 0.19796 0.16702 0.0
O113 O 0.69534 0.14439 0.14864 0.0
O114 O 0.92874 0.27391 0.25472 0.0
O115 O 0.8762 0.23912 0.28271 0.0
O116 O 0.77876 0.28802 0.2012 0.0
C117 C 0.92062 0.26117 0.2826 0.0
O118 O 0.7207 0.25445 0.22618 0.0
O119 O 0.79346 0.15977 0.2396 0.0
C120 C 0.72654 0.28224 0.21124 0.0
O121 O 0.8376 0.14652 0.19555 0.0
O122 O 0.94353 0.19081 0.16668 0.0
O123 O 0.97559 0.242 0.18775 0.0
H124 H 0.96721 0.59456 0.39341 0.0
H125 H 0.04177 0.57298 0.44602 0.0
H126 H 0.95462 0.64621 0.50407 0.0
H127 H 0.87994 0.66819 0.45153 0.0
H128 H 0.1284 0.58866 0.50965 0.0
H129 H 0.92837 0.59975 0.57199 0.0
H130 H 0.81594 0.62719 0.56517 0.0
H131 H 0.75966 0.59522 0.46017 0.0
H132 H 0.87229 0.56794 0.46635 0.0
H133 H 0.08481 0.44913 0.6376 0.0
H134 H 0.03935 0.50239 0.60856 0.0
H135 H 0.12879 0.47485 0.52619 0.0
H136 H 0.17451 0.42205 0.55498 0.0
H137 H 0.96245 0.52605 0.55292 0.0
H138 H 0.21531 0.54536 0.5081 0.0
H139 H 0.33711 0.54636 0.53464 0.0
H140 H 0.30177 0.53748 0.63388 0.0
H141 H 0.1797 0.53777 0.60821 0.0
C142 C 0.96628 0.60739 0.41717 0.0
C143 C 0.9155 0.63184 0.41862 0.0
C144 C 0.00899 0.59496 0.44736 0.0
C145 C 1.00151 0.60714 0.47899 0.0
C146 C 0.96027 0.63616 0.47998 0.0
C147 C 0.91751 0.64862 0.44982 0.0
C148 C 0.02456 0.58467 0.5089 0.0
C149 C 0.09254 0.57465 0.51907 0.0
C150 C 0.97825 0.56874 0.52364 0.0
C151 C 0.90875 0.58235 0.51954 0.0
C152 C 0.89184 0.5986 0.54747 0.0
C153 C 0.82827 0.61413 0.54372 0.0
C154 C 0.7808 0.61304 0.51224 0.0
C155 C 0.79656 0.59609 0.48451 0.0
C156 C 0.86029 0.58057 0.48812 0.0
C157 C 0.09211 0.45376 0.61255 0.0
C158 C 0.13367 0.43148 0.59874 0.0
C159 C 0.06707 0.48445 0.59626 0.0
C160 C 0.08331 0.49317 0.566 0.0
C161 C 0.11772 0.4691 0.55017 0.0
C162 C 0.14242 0.43844 0.5663 0.0
C163 C 0.06598 0.52749 0.55092 0.0
C164 C 0.99913 0.53978 0.54382 0.0
C165 C 0.11446 0.54705 0.5412 0.0
C166 C 0.18792 0.54144 0.55609 0.0
C167 C 0.23337 0.54339 0.53557 0.0
C168 C 0.30251 0.54405 0.5505 0.0
C169 C 0.32696 0.54245 0.58592 0.0
C170 C 0.28261 0.53899 0.60644 0.0
C171 C 0.21337 0.53865 0.59168 0.0
H172 H 0.38029 0.54396 0.59749 0.0
H173 H 0.73186 0.6253 0.50954 0.0
H174 H 0.62929 0.13613 0.01078 0.0
H175 H 0.53958 0.09626 0.98697 0.0
H176 H 0.6776 0.01139 0.02353 0.0
H177 H 0.76708 0.05093 0.04567 0.0
H178 H 0.58506 0.99067 0.97119 0.0
H179 H 0.58768 0.05661 0.07352 0.0
H180 H 0.58737 0.11175 0.10328 0.0
H181 H 0.39043 0.13706 0.04006 0.0
H182 H 0.39115 0.08269 0.00851 0.0
H183 H 0.35647 0.87064 0.98826 0.0
H184 H 0.44661 0.91021 0.01228 0.0
H185 H 0.30981 0.99549 0.97552 0.0
H186 H 0.21993 0.95623 0.9531 0.0
H187 H 0.40215 0.01577 0.02832 0.0
H188 H 0.40018 0.95035 0.92555 0.0
H189 H 0.40013 0.89525 0.89571 0.0
H190 H 0.59551 0.86885 0.96003 0.0
H191 H 0.59518 0.92327 0.99156 0.0
C192 C 0.64124 0.10895 0.01176 0.0
C193 C 0.7049 0.09651 0.03004 0.0
C194 C 0.58972 0.08612 0.99872 0.0
C195 C 0.60111 0.05078 0.00469 0.0
C196 C 0.66704 0.03842 0.01892 0.0
C197 C 0.71843 0.06109 0.03143 0.0
C198 C 0.54439 0.02724 1.00146 0.0
C199 C 0.54529 0.99615 0.98381 0.0
C200 C 0.49225 0.03415 0.01799 0.0
C201 C 0.48979 0.06573 0.03842 0.0
C202 C 0.54434 0.07395 0.0659 0.0
C203 C 0.54419 0.10517 0.083 0.0
C204 C 0.48876 0.1279 0.07373 0.0
C205 C 0.43335 0.11944 0.04722 0.0
C206 C 0.43377 0.0885 0.02956 0.0
C207 C 0.34488 0.89785 0.98726 0.0
C208 C 0.28145 0.91048 0.96887 0.0
C209 C 0.39665 0.92051 1.00043 0.0
C210 C 0.38573 0.95588 0.99451 0.0
C211 C 0.32 0.96843 0.98011 0.0
C212 C 0.26838 0.94593 0.96744 0.0
C213 C 0.44275 0.97926 0.998 0.0
C214 C 0.44193 0.01031 0.01571 0.0
C215 C 0.49497 0.97231 0.98154 0.0
C216 C 0.49736 0.94074 0.96112 0.0
C217 C 0.44315 0.9328 0.93336 0.0
C218 C 0.44309 0.9016 0.91622 0.0
C219 C 0.49796 0.87856 0.9258 0.0
C220 C 0.55304 0.88672 0.95262 0.0
C221 C 0.55285 0.91767 0.97028 0.0
H222 H 0.49775 0.85436 0.91253 0.0
H223 H 0.48877 0.15209 0.087 0.0
H224 H 0.57258 0.53597 0.36974 0.0
H225 H 0.51977 0.51268 0.41157 0.0
H226 H 0.71417 0.50097 0.48325 0.0
H227 H 0.76699 0.52499 0.44148 0.0
H228 H 0.60148 0.44852 0.48214 0.0
H229 H 0.65392 0.56987 0.48496 0.0
H230 H 0.64716 0.62626 0.4578 0.0
H231 H 0.43222 0.62803 0.43707 0.0
H232 H 0.43705 0.57081 0.46212 0.0
H233 H 0.48072 0.48533 0.6374 0.0
H234 H 0.54052 0.5079 0.59741 0.0
H235 H 0.38769 0.46985 0.51249 0.0
H236 H 0.327 0.44863 0.55176 0.0
H237 H 0.49011 0.54827 0.52502 0.0
H238 H 0.49392 0.41036 0.47733 0.0
H239 H 0.48282 0.35212 0.49694 0.0
H240 H 0.56608 0.38357 0.60079 0.0
H241 H 0.5778 0.4415 0.58155 0.0
C242 C 0.60431 0.52639 0.39363 0.0
C243 C 0.67358 0.53183 0.40256 0.0
C244 C 0.57411 0.51354 0.41759 0.0
C245 C 0.61322 0.50587 0.45047 0.0
C246 C 0.68352 0.50688 0.45787 0.0
C247 C 0.71369 0.52019 0.43397 0.0
C248 C 0.58023 0.50263 0.47829 0.0
C249 C 0.57764 0.4703 0.49175 0.0
C250 C 0.54844 0.53126 0.49024 0.0
C251 C 0.54592 0.56577 0.47518 0.0
C252 C 0.60516 0.58196 0.47412 0.0
C253 C 0.60172 0.61411 0.45922 0.0
C254 C 0.53957 0.6308 0.44619 0.0
C255 C 0.48044 0.61512 0.44736 0.0
C256 C 0.48346 0.58273 0.46172 0.0
C257 C 0.45874 0.48323 0.61017 0.0
C258 C 0.39988 0.46516 0.59744 0.0
C259 C 0.49284 0.4959 0.58747 0.0
C260 C 0.46877 0.48976 0.55228 0.0
C261 C 0.40701 0.47446 0.53961 0.0
C262 C 0.37268 0.46233 0.56204 0.0
C263 C 0.51183 0.49422 0.52898 0.0
C264 C 0.51533 0.52667 0.51593 0.0
C265 C 0.54263 0.46558 0.51658 0.0
C266 C 0.53663 0.43038 0.52814 0.0
C267 C 0.51017 0.40473 0.50433 0.0
C268 C 0.50358 0.37172 0.51535 0.0
C269 C 0.52357 0.36403 0.5501 0.0
C270 C 0.55033 0.38933 0.57387 0.0
C271 C 0.55692 0.42228 0.56293 0.0
H272 H 0.51839 0.33849 0.55857 0.0
H273 H 0.53739 0.65595 0.43531 0.0
H274 H 0.93344 0.04227 0.12635 0.0
H275 H 0.95756 1.00274 0.08402 0.0
H276 H 0.07602 0.07813 0.05242 0.0
H277 H 0.05143 0.11815 0.09467 0.0
H278 H 0.9641 0.06462 0.00298 0.0
H279 H 0.14199 0.99868 0.07578 0.0
H280 H 0.19925 0.96529 0.1266 0.0
H281 H 0.04436 0.89176 0.10198 0.0
H282 H 0.98564 0.92494 0.05122 0.0
H283 H 0.05197 0.96406 0.87236 0.0
H284 H 0.0273 1.00341 0.91468 0.0
H285 H 0.90949 0.92757 0.94608 0.0
H286 H 0.93467 0.88772 0.90385 0.0
H287 H 0.02072 0.94126 0.99564 0.0
H288 H 0.84294 0.00711 0.92278 0.0
H289 H 0.78563 0.04051 0.87197 0.0
H290 H 0.9402 0.11421 0.89672 0.0
H291 H 0.99897 0.08102 0.94747 0.0
C292 C 0.96785 0.04991 0.11185 0.0
C293 C 0.98786 0.08391 0.11266 0.0
C294 C 0.98134 0.02719 0.08738 0.0
C295 C 0.0166 0.03798 0.06428 0.0
C296 C 0.04734 0.06965 0.06953 0.0
C297 C 0.03374 0.09239 0.09395 0.0
C298 C 0.00895 0.01979 0.03126 0.0
C299 C 0.97779 0.03777 1.00129 0.0
C300 C 0.02397 0.98451 0.02926 0.0
C301 C 0.05908 0.96449 0.05982 0.0
C302 C 0.11979 0.97556 0.08135 0.0
C303 C 0.1526 0.95662 0.11012 0.0
C304 C 0.12538 0.92647 0.11756 0.0
C305 C 0.06536 0.91514 0.09619 0.0
C306 C 0.03235 0.93398 0.06739 0.0
C307 C 0.01759 0.95628 0.88681 0.0
C308 C 0.99797 0.92221 0.88596 0.0
C309 C 0.00377 0.9789 0.91128 0.0
C310 C 0.96854 0.96795 0.93433 0.0
C311 C 0.93815 0.93619 0.92902 0.0
C312 C 0.95209 0.91354 0.90461 0.0
C313 C 0.97591 0.98609 0.96735 0.0
C314 C 0.00701 0.96811 0.99734 0.0
C315 C 0.96083 0.02136 0.96937 0.0
C316 C 0.92568 0.04139 0.9388 0.0
C317 C 0.86505 0.03028 0.91724 0.0
C318 C 0.83222 0.04921 0.88848 0.0
C319 C 0.85933 0.07942 0.88108 0.0
C320 C 0.91927 0.09079 0.90248 0.0
C321 C 0.95232 0.07195 0.93127 0.0
H322 H 0.83383 0.09404 0.8588 0.0
H323 H 0.15086 0.91184 0.13984 0.0
H324 H 0.56618 0.32635 0.80161 0.0
H325 H 0.63912 0.31966 0.85935 0.0
H326 H 0.61343 0.21092 0.85205 0.0
H327 H 0.54172 0.21752 0.79388 0.0
H328 H 0.56423 0.24504 0.90407 0.0
H329 H 0.76408 0.23596 0.86499 0.0
H330 H 0.84298 0.25316 0.83225 0.0
H331 H 0.8721 0.34795 0.8878 0.0
H332 H 0.79251 0.33156 0.92053 0.0
H333 H 0.74054 0.20803 0.07399 0.0
H334 H 0.68947 0.21218 0.0133 0.0
H335 H 0.77152 0.31195 0.01273 0.0
H336 H 0.83044 0.30533 0.07318 0.0
H337 H 0.79383 0.28057 0.96304 0.0
H338 H 0.58744 0.29228 0.99903 0.0
H339 H 0.50768 0.27567 0.0316 0.0
H340 H 0.4884 0.17779 0.98153 0.0
H341 H 0.56817 0.19378 0.94874 0.0
C342 C 0.5795 0.30085 0.8116 0.0
C343 C 0.54909 0.2724 0.79325 0.0
C344 C 0.62056 0.29706 0.84472 0.0
C345 C 0.63093 0.26484 0.86011 0.0
C346 C 0.60591 0.236 0.8406 0.0
C347 C 0.56585 0.23972 0.80719 0.0
C348 C 0.65825 0.26223 0.89763 0.0
C349 C 0.61481 0.2523 0.91704 0.0
C350 C 0.72331 0.27282 0.91442 0.0
C351 C 0.77178 0.28264 0.89503 0.0
C352 C 0.78684 0.2606 0.87004 0.0
C353 C 0.83178 0.27018 0.85151 0.0
C354 C 0.86239 0.30166 0.85788 0.0
C355 C 0.84829 0.32358 0.88287 0.0
C356 C 0.80331 0.31414 0.90146 0.0
C357 C 0.74651 0.23115 0.06113 0.0
C358 C 0.78928 0.2564 0.07833 0.0
C359 C 0.71654 0.23375 0.02622 0.0
C360 C 0.72541 0.26266 0.00797 0.0
C361 C 0.76386 0.28927 0.02594 0.0
C362 C 0.79638 0.28589 0.06068 0.0
C363 C 0.69948 0.26378 0.96996 0.0
C364 C 0.74309 0.27344 0.95032 0.0
C365 C 0.63407 0.2533 0.95286 0.0
C366 C 0.58396 0.24421 0.97154 0.0
C367 C 0.5661 0.26725 0.99495 0.0
C368 C 0.52091 0.25793 0.01345 0.0
C369 C 0.49302 0.22569 0.00865 0.0
C370 C 0.5099 0.20278 0.98516 0.0
C371 C 0.55491 0.212 0.96652 0.0
H372 H 0.45833 0.21847 0.02313 0.0
H373 H 0.89714 0.30903 0.84349 0.0
H374 H 0.64111 0.68523 0.42063 0.0
H375 H 0.69787 0.68411 0.48185 0.0
H376 H 0.80735 0.7726 0.4699 0.0
H377 H 0.7495 0.77426 0.40882 0.0
H378 H 0.88493 0.70634 0.49945 0.0
H379 H 0.70548 0.7874 0.51154 0.0
H380 H 0.58587 0.80393 0.50429 0.0
H381 H 0.56132 0.7168 0.56215 0.0
H382 H 0.68068 0.69953 0.56936 0.0
H383 H 0.07768 0.76224 0.65429 0.0
H384 H 1.00118 0.753 0.59905 0.0
H385 H 0.87361 0.69591 0.64558 0.0
H386 H 0.95022 0.70616 0.70218 0.0
H387 H 0.79719 0.73609 0.59963 0.0
H388 H 0.96743 0.65613 0.59512 0.0
H389 H 0.0774 0.62744 0.59827 0.0
H390 H 0.11368 0.69763 0.52542 0.0
H391 H 0.00373 0.7267 0.52169 0.0
C392 C 0.67583 0.70501 0.43131 0.0
C393 C 0.69043 0.73007 0.41008 0.0
C394 C 0.70839 0.70425 0.46623 0.0
C395 C 0.75713 0.72812 0.48038 0.0
C396 C 0.76979 0.75398 0.45949 0.0
C397 C 0.73619 0.75517 0.42472 0.0
C398 C 0.79896 0.72456 0.51613 0.0
C399 C 0.86612 0.7131 0.52139 0.0
C400 C 0.77313 0.7314 0.54475 0.0
C401 C 0.70175 0.74202 0.54071 0.0
C402 C 0.67442 0.77162 0.52247 0.0
C403 C 0.60672 0.78116 0.51843 0.0
C404 C 0.56597 0.76138 0.53268 0.0
C405 C 0.59292 0.73208 0.5511 0.0
C406 C 0.66059 0.72244 0.55521 0.0
C407 C 0.03378 0.74743 0.65314 0.0
C408 C 0.02051 0.73497 0.68306 0.0
C409 C 0.99 0.74193 0.62118 0.0
C410 C 0.93177 0.72327 0.61774 0.0
C411 C 0.9183 0.7103 0.64742 0.0
C412 C 0.96238 0.71599 0.67978 0.0
C413 C 0.88471 0.71909 0.5831 0.0
C414 C 0.81635 0.72886 0.57788 0.0
C415 C 0.90883 0.70939 0.55441 0.0
C416 C 0.9772 0.69367 0.5582 0.0
C417 C 0.9991 0.66569 0.58002 0.0
C418 C 0.06135 0.64927 0.58181 0.0
C419 C 0.10256 0.66075 0.56211 0.0
C420 C 0.08171 0.68878 0.54068 0.0
C421 C 0.01932 0.7052 0.53866 0.0
H422 H 0.15057 0.64786 0.56339 0.0
H423 H 0.51357 0.7688 0.52951 0.0
H424 H 0.23923 0.79958 0.92945 0.0
H425 H 0.29418 0.79078 0.98906 0.0
H426 H 0.23378 0.6859 0.97985 0.0
H427 H 0.16994 0.69675 0.92068 0.0
H428 H 0.21099 0.70762 0.03311 0.0
H429 H 0.41165 0.71708 0.99446 0.0
H430 H 0.48394 0.74334 0.96264 0.0
H431 H 0.48648 0.83554 0.02157 0.0
H432 H 0.41395 0.8099 0.05364 0.0
H433 H 0.45072 0.66724 0.194 0.0
H434 H 0.37969 0.67184 0.13557 0.0
H435 H 0.36891 0.78131 0.14673 0.0
H436 H 0.43867 0.77668 0.20554 0.0
H437 H 0.42941 0.75546 0.09376 0.0
H438 H 0.23041 0.74334 0.1331 0.0
H439 H 0.15979 0.71544 0.16469 0.0
H440 H 0.15989 0.62455 0.10411 0.0
H441 H 0.23145 0.65174 0.07249 0.0
C442 C 0.23836 0.77455 0.93996 0.0
C443 C 0.19995 0.74895 0.92051 0.0
C444 C 0.27097 0.76924 0.97419 0.0
C445 C 0.26968 0.7374 0.98942 0.0
C446 C 0.23564 0.7108 0.96903 0.0
C447 C 0.20021 0.71671 0.93499 0.0
C448 C 0.29845 0.73305 0.02702 0.0
C449 C 0.25951 0.71747 0.0461 0.0
C450 C 0.36103 0.74664 0.04461 0.0
C451 C 0.40715 0.76157 0.02637 0.0
C452 C 0.4277 0.74293 1.00066 0.0
C453 C 0.46869 0.75772 0.98257 0.0
C454 C 0.48974 0.79109 0.99007 0.0
C455 C 0.47027 0.80966 0.01585 0.0
C456 C 0.42941 0.79497 0.03407 0.0
C457 C 0.43005 0.6921 0.18458 0.0
C458 C 0.44949 0.72158 0.20433 0.0
C459 C 0.39009 0.69474 0.15109 0.0
C460 C 0.36982 0.72695 0.13672 0.0
C461 C 0.38424 0.75623 0.15738 0.0
C462 C 0.42316 0.75353 0.19114 0.0
C463 C 0.34191 0.73014 0.09927 0.0
C464 C 0.38123 0.74542 0.08041 0.0
C465 C 0.28053 0.71574 0.08191 0.0
C466 C 0.23687 0.69948 0.10064 0.0
C467 C 0.21587 0.7173 0.1267 0.0
C468 C 0.17557 0.70163 0.14458 0.0
C469 C 0.15552 0.66821 0.13648 0.0
C470 C 0.17554 0.65043 0.11039 0.0
C471 C 0.21591 0.66597 0.09245 0.0
H472 H 0.12437 0.65611 0.15038 0.0
H473 H 0.52115 0.80256 0.9759 0.0
H474 H 0.05259 0.28106 0.29818 0.0
H475 H 0.1294 0.28593 0.35559 0.0
H476 H 0.96678 0.26439 0.40034 0.0
H477 H 0.89058 0.26003 0.34378 0.0
H478 H 0.03897 0.31241 0.43563 0.0
H479 H 0.08283 0.20202 0.39 0.0
H480 H 0.11463 0.16278 0.34813 0.0
H481 H 0.30704 0.20855 0.36657 0.0
H482 H 0.27599 0.24838 0.40825 0.0
H483 H 0.25978 0.22567 0.59389 0.0
H484 H 0.20309 0.22155 0.53269 0.0
H485 H 0.25631 0.32451 0.51852 0.0
H486 H 0.31548 0.328 0.57841 0.0
H487 H 0.24148 0.23524 0.46794 0.0
H488 H 0.09313 0.36365 0.47312 0.0
H489 H 0.05143 0.39961 0.5142 0.0
H490 H 0.05887 0.31282 0.57836 0.0
H491 H 0.09684 0.27592 0.53671 0.0
C492 C 0.03311 0.27814 0.32033 0.0
C493 C 0.96553 0.27003 0.31639 0.0
C494 C 0.07716 0.28052 0.35311 0.0
C495 C 0.05418 0.27498 0.38239 0.0
C496 C 0.98598 0.26865 0.37831 0.0
C497 C 0.94238 0.26612 0.34583 0.0
C498 C 0.10039 0.27471 0.41742 0.0
C499 C 0.08359 0.29576 0.44256 0.0
C500 C 0.15794 0.25246 0.42678 0.0
C501 C 0.17682 0.2284 0.40194 0.0
C502 C 0.13173 0.20387 0.38493 0.0
C503 C 0.14965 0.1815 0.36128 0.0
C504 C 0.21274 0.18324 0.35462 0.0
C505 C 0.25814 0.20728 0.37171 0.0
C506 C 0.24043 0.22974 0.39536 0.0
C507 C 0.26094 0.24707 0.57753 0.0
C508 C 0.29017 0.2777 0.59153 0.0
C509 C 0.22841 0.24471 0.54259 0.0
C510 C 0.22424 0.27303 0.52123 0.0
C511 C 0.25769 0.3026 0.53465 0.0
C512 C 0.29068 0.30477 0.56927 0.0
C513 C 0.18012 0.2732 0.48585 0.0
C514 C 0.19733 0.25218 0.46081 0.0
C515 C 0.12217 0.29516 0.47661 0.0
C516 C 0.09944 0.3171 0.50206 0.0
C517 C 0.0858 0.35218 0.49595 0.0
C518 C 0.06248 0.37272 0.51929 0.0
C519 C 0.05334 0.35861 0.54911 0.0
C520 C 0.06655 0.32379 0.5554 0.0
C521 C 0.08879 0.30301 0.53185 0.0
H522 H 0.03558 0.3746 0.56723 0.0
H523 H 0.22652 0.16591 0.33629 0.0
H524 H 0.11605 0.3414 0.76521 0.0
H525 H 0.99498 0.33973 0.75708 0.0
H526 H 0.96553 0.34741 0.64824 0.0
H527 H 0.0879 0.34943 0.65621 0.0
H528 H 0.87233 0.38651 0.67271 0.0
H529 H 0.96074 0.27032 0.68445 0.0
H530 H 0.04067 0.22545 0.71412 0.0
H531 H 0.96583 0.23902 0.80318 0.0
H532 H 0.88613 0.28435 0.77424 0.0
H533 H 0.54078 0.32844 0.62231 0.0
H534 H 0.66214 0.33158 0.63128 0.0
H535 H 0.68855 0.32552 0.74001 0.0
H536 H 0.56609 0.32361 0.73123 0.0
H537 H 0.78396 0.28554 0.71681 0.0
H538 H 0.69703 0.39883 0.70872 0.0
H539 H 0.6332 0.45203 0.68816 0.0
H540 H 0.71215 0.45002 0.60001 0.0
H541 H 0.77479 0.39611 0.61931 0.0
C542 C 0.08404 0.34308 0.73947 0.0
C543 C 0.11192 0.34512 0.7113 0.0
C544 C 0.01465 0.34193 0.7349 0.0
C545 C 0.97117 0.34246 0.70203 0.0
C546 C 0.99826 0.34654 0.67386 0.0
C547 C 0.06815 0.34784 0.67843 0.0
C548 C 0.89778 0.33805 0.69737 0.0
C549 C 0.85269 0.3641 0.68158 0.0
C550 C 0.87267 0.30947 0.71051 0.0
C551 C 0.91792 0.28096 0.72728 0.0
C552 C 0.96141 0.26377 0.71038 0.0
C553 C 0.00671 0.23829 0.72707 0.0
C554 C 0.00861 0.22958 0.76057 0.0
C555 C 0.96446 0.24592 0.77727 0.0
C556 C 0.91914 0.27147 0.76072 0.0
C557 C 0.57221 0.32773 0.64819 0.0
C558 C 0.54335 0.32639 0.67605 0.0
C559 C 0.64174 0.32954 0.65326 0.0
C560 C 0.68445 0.3295 0.68633 0.0
C561 C 0.65646 0.3259 0.71424 0.0
C562 C 0.58645 0.32459 0.70918 0.0
C563 C 0.75797 0.33382 0.6914 0.0
C564 C 0.80319 0.30777 0.70741 0.0
C565 C 0.78334 0.3627 0.67888 0.0
C566 C 0.74006 0.39308 0.6653 0.0
C567 C 0.69954 0.40919 0.68451 0.0
C568 C 0.66381 0.43961 0.67318 0.0
C569 C 0.66883 0.45444 0.64293 0.0
C570 C 0.7086 0.43856 0.62355 0.0
C571 C 0.74383 0.40795 0.63454 0.0
H572 H 0.64183 0.47823 0.63447 0.0
H573 H 0.04446 0.21026 0.77359 0.0
H574 H 0.39272 0.88417 0.83516 0.0
H575 H 0.51052 0.87967 0.83496 0.0
H576 H 0.50427 0.7698 0.83627 0.0
H577 H 0.38597 0.77428 0.83844 0.0
H578 H 0.61641 0.79174 0.87996 0.0
H579 H 0.5016 0.81539 0.76263 0.0
H580 H 0.42331 0.84801 0.71671 0.0
H581 H 0.54025 0.93721 0.74529 0.0
H582 H 0.61842 0.90536 0.79189 0.0
H583 H 0.90243 0.74766 0.82253 0.0
H584 H 0.78841 0.75809 0.82786 0.0
H585 H 0.82139 0.86617 0.83782 0.0
H586 H 0.9368 0.8559 0.83235 0.0
H587 H 0.6986 0.8492 0.79105 0.0
H588 H 0.8159 0.82625 0.90594 0.0
H589 H 0.89398 0.79532 0.95318 0.0
H590 H 0.77352 0.7067 0.93039 0.0
H591 H 0.69522 0.73692 0.8826 0.0
C592 C 0.4164 0.85898 0.83579 0.0
C593 C 0.38024 0.82958 0.83744 0.0
C594 C 0.48373 0.85646 0.8352 0.0
C595 C 0.51626 0.82441 0.83519 0.0
C596 C 0.48016 0.79484 0.83629 0.0
C597 C 0.41253 0.79738 0.83728 0.0
C598 C 0.58808 0.82202 0.83435 0.0
C599 C 0.63416 0.80386 0.86022 0.0
C600 C 0.61182 0.83905 0.80938 0.0
C601 C 0.5656 0.85804 0.78091 0.0
C602 C 0.51039 0.84202 0.75926 0.0
C603 C 0.46598 0.86039 0.73314 0.0
C604 C 0.47663 0.89471 0.72819 0.0
C605 C 0.5319 0.91068 0.74925 0.0
C606 C 0.57631 0.89247 0.77551 0.0
C607 C 0.88578 0.77373 0.82584 0.0
C608 C 0.92893 0.80098 0.82704 0.0
C609 C 0.82053 0.7796 0.82908 0.0
C610 C 0.79658 0.81284 0.8335 0.0
C611 C 0.83908 0.84028 0.83452 0.0
C612 C 0.90503 0.83438 0.83158 0.0
C613 C 0.72646 0.81838 0.83625 0.0
C614 C 0.68077 0.83717 0.81082 0.0
C615 C 0.7031 0.80209 0.86168 0.0
C616 C 0.74996 0.78378 0.89046 0.0
C617 C 0.80634 0.80006 0.91079 0.0
C618 C 0.8506 0.78267 0.93771 0.0
C619 C 0.8388 0.74903 0.94474 0.0
C620 C 0.78263 0.73274 0.92489 0.0
C621 C 0.73824 0.75001 0.8979 0.0
H622 H 0.87312 0.73562 0.9656 0.0
H623 H 0.44216 0.9089 0.70798 0.0
H624 H 0.89169 0.6734 0.2425 0.0
H625 H 0.0128 0.66937 0.25027 0.0
H626 H 0.0425 0.6683 0.35949 0.0
H627 H 0.92007 0.67289 0.35188 0.0
H628 H 0.1248 0.71341 0.33837 0.0
H629 H 0.06847 0.59657 0.32002 0.0
H630 H 0.00532 0.54766 0.29103 0.0
H631 H 0.06835 0.56767 0.20039 0.0
H632 H 0.13107 0.61708 0.22867 0.0
H633 H 0.46667 0.65998 0.37904 0.0
H634 H 0.34561 0.66276 0.37114 0.0
H635 H 0.31671 0.6708 0.26235 0.0
H636 H 0.43937 0.66806 0.27014 0.0
H637 H 0.23439 0.62192 0.28331 0.0
H638 H 0.2905 0.73921 0.30224 0.0
H639 H 0.35434 0.7876 0.33199 0.0
H640 H 0.29234 0.76587 0.42253 0.0
H641 H 0.2289 0.71699 0.39347 0.0
C642 C 0.92374 0.67226 0.26826 0.0
C643 C 0.89613 0.67337 0.29662 0.0
C644 C 0.99308 0.66974 0.27261 0.0
C645 C 0.03665 0.66822 0.30541 0.0
C646 C 0.0096 0.6693 0.33393 0.0
C647 C 0.93975 0.67165 0.32956 0.0
C648 C 0.11038 0.6665 0.30943 0.0
C649 C 0.14898 0.6931 0.32684 0.0
C650 C 0.14147 0.64051 0.29349 0.0
C651 C 0.104 0.61073 0.27639 0.0
C652 C 0.06842 0.59073 0.29381 0.0
C653 C 0.03277 0.56288 0.27752 0.0
C654 C 0.03269 0.55461 0.24386 0.0
C655 C 0.0684 0.57413 0.22645 0.0
C656 C 0.10407 0.60205 0.24261 0.0
C657 C 0.43492 0.66228 0.35338 0.0
C658 C 0.46288 0.6637 0.32524 0.0
C659 C 0.36556 0.66404 0.34894 0.0
C660 C 0.32226 0.6672 0.31623 0.0
C661 C 0.3495 0.66842 0.28785 0.0
C662 C 0.41944 0.667 0.29234 0.0
C663 C 0.24861 0.66884 0.31216 0.0
C664 C 0.2101 0.64221 0.29479 0.0
C665 C 0.21763 0.69474 0.32823 0.0
C666 C 0.25544 0.72423 0.34576 0.0
C667 C 0.29094 0.74456 0.32859 0.0
C668 C 0.32697 0.77211 0.34531 0.0
C669 C 0.32753 0.77975 0.37916 0.0
C670 C 0.29192 0.7599 0.39632 0.0
C671 C 0.25585 0.73228 0.37973 0.0
H672 H 0.35545 0.80111 0.39206 0.0
H673 H 0.00507 0.53303 0.23129 0.0
H674 H 0.08469 0.2592 0.17759 0.0
H675 H 0.19887 0.24894 0.17241 0.0
H676 H 0.16585 0.14092 0.16135 0.0
H677 H 0.05021 0.15101 0.16656 0.0
H678 H 0.28888 0.15809 0.20879 0.0
H679 H 0.17138 0.18097 0.09377 0.0
H680 H 0.09319 0.21196 0.04661 0.0
H681 H 0.21337 0.30067 0.06964 0.0
H682 H 0.29178 0.27038 0.11734 0.0
H683 H 0.59397 0.12281 0.16399 0.0
H684 H 0.47634 0.1275 0.16457 0.0
H685 H 0.48319 0.23733 0.16325 0.0
H686 H 0.60131 0.23267 0.16079 0.0
H687 H 0.37067 0.21548 0.11971 0.0
H688 H 0.48606 0.1921 0.23681 0.0
H689 H 0.56443 0.15978 0.28292 0.0
H690 H 0.44724 0.07055 0.25521 0.0
H691 H 0.36902 0.10209 0.20839 0.0
C692 C 0.10136 0.23318 0.17407 0.0
C693 C 0.05813 0.20589 0.17248 0.0
C694 C 0.16671 0.22742 0.17093 0.0
C695 C 0.1907 0.19424 0.16626 0.0
C696 C 0.14813 0.16676 0.16487 0.0
C697 C 0.08207 0.17256 0.16768 0.0
C698 C 0.26084 0.18882 0.16353 0.0
C699 C 0.30664 0.1701 0.18898 0.0
C700 C 0.2841 0.20513 0.13808 0.0
C701 C 0.23717 0.22348 0.10936 0.0
C702 C 0.18085 0.20719 0.089 0.0
C703 C 0.13653 0.22461 0.06212 0.0
C704 C 0.14822 0.25829 0.05518 0.0
C705 C 0.20435 0.27459 0.07507 0.0
C706 C 0.24879 0.25729 0.10201 0.0
C707 C 0.57045 0.14802 0.16345 0.0
C708 C 0.60671 0.17737 0.16172 0.0
C709 C 0.50324 0.15065 0.16424 0.0
C710 C 0.47092 0.18274 0.16435 0.0
C711 C 0.50713 0.21226 0.16316 0.0
C712 C 0.57466 0.20961 0.162 0.0
C713 C 0.39919 0.18523 0.16533 0.0
C714 C 0.35302 0.20338 0.13949 0.0
C715 C 0.37558 0.16826 0.19038 0.0
C716 C 0.42195 0.14941 0.21892 0.0
C717 C 0.47725 0.16552 0.24039 0.0
C718 C 0.5217 0.14731 0.26663 0.0
C719 C 0.511 0.11307 0.27188 0.0
C720 C 0.45564 0.09701 0.251 0.0
C721 C 0.41121 0.11505 0.22462 0.0
H722 H 0.54548 0.09902 0.2922 0.0
H723 H 0.11386 0.27173 0.03435 0.0
H724 H 0.20541 0.1858 0.71678 0.0
H725 H 0.18136 0.12683 0.7256 0.0
H726 H 0.31634 0.12961 0.82646 0.0
H727 H 0.34148 0.18919 0.81718 0.0
H728 H 0.34356 0.07395 0.79344 0.0
H729 H 0.14267 0.12049 0.81641 0.0
H730 H 0.03913 0.15658 0.80838 0.0
H731 H 0.95987 0.11077 0.70998 0.0
H732 H 0.06278 0.07416 0.71759 0.0
H733 H 0.11597 0.92146 0.80654 0.0
H734 H 0.13891 0.98154 0.80804 0.0
H735 H 0.27674 0.96236 0.7451 0.0
H736 H 0.25705 0.90085 0.74557 0.0
H737 H 0.11538 0.02696 0.76461 0.0
H738 H 0.3929 0.02441 0.75841 0.0
H739 H 0.49487 0.98701 0.77517 0.0
H740 H 0.42212 0.94466 0.85524 0.0
H741 H 0.31998 0.98196 0.83919 0.0
C742 C 0.2282 0.17422 0.74131 0.0
C743 C 0.2744 0.19223 0.76652 0.0
C744 C 0.21457 0.14039 0.74633 0.0
C745 C 0.24669 0.12356 0.77678 0.0
C746 C 0.29081 0.14198 0.80274 0.0
C747 C 0.30438 0.17616 0.7977 0.0
C748 C 0.23711 0.08625 0.77994 0.0
C749 C 0.29365 0.06367 0.78744 0.0
C750 C 0.17223 0.07259 0.77245 0.0
C751 C 0.1106 0.09481 0.76746 0.0
C752 C 0.1033 0.11826 0.79298 0.0
C753 C 0.04462 0.13869 0.78857 0.0
C754 C 0.99307 0.13608 0.75862 0.0
C755 C 0.99987 0.11281 0.73314 0.0
C756 C 0.05822 0.09208 0.73756 0.0
C757 C 0.15212 0.92969 0.79342 0.0
C758 C 0.18558 0.906 0.77649 0.0
C759 C 0.16468 0.96438 0.79399 0.0
C760 C 0.21018 0.97684 0.77704 0.0
C761 C 0.24241 0.95347 0.75905 0.0
C762 C 0.23054 0.91831 0.75895 0.0
C763 C 0.22176 0.01436 0.77801 0.0
C764 C 0.16545 0.03706 0.77094 0.0
C765 C 0.28686 0.02799 0.78711 0.0
C766 C 0.34849 0.00575 0.79733 0.0
C767 C 0.39875 0.00716 0.77964 0.0
C768 C 0.45649 0.9859 0.78897 0.0
C769 C 0.46472 0.96324 0.81608 0.0
C770 C 0.41542 0.96199 0.83408 0.0
C771 C 0.35756 0.98316 0.82486 0.0
H772 H 0.50941 0.94677 0.82323 0.0
H773 H 0.94783 0.15206 0.75519 0.0
H774 H 0.25557 0.41941 0.78529 0.0
H775 H 0.26679 0.47735 0.80752 0.0
H776 H 0.48241 0.46614 0.82642 0.0
H777 H 0.47014 0.40886 0.80138 0.0
H778 H 0.31328 0.5218 0.85103 0.0
H779 H 0.54713 0.53665 0.80252 0.0
H780 H 0.613 0.50541 0.76794 0.0
H781 H 0.43433 0.45827 0.70995 0.0
H782 H 0.36686 0.4902 0.74328 0.0
H783 H 0.33836 0.69947 0.84929 0.0
H784 H 0.38262 0.64065 0.85952 0.0
H785 H 0.32801 0.62115 0.75102 0.0
H786 H 0.28626 0.68038 0.7409 0.0
H787 H 0.43331 0.5823 0.77911 0.0
H788 H 0.2187 0.60794 0.80356 0.0
H789 H 0.14274 0.63879 0.83289 0.0
H790 H 0.26497 0.60426 0.92978 0.0
H791 H 0.34216 0.57355 0.90101 0.0
C792 C 0.30578 0.42837 0.79625 0.0
C793 C 0.36163 0.41003 0.79011 0.0
C794 C 0.31218 0.4621 0.80841 0.0
C795 C 0.37527 0.47726 0.81661 0.0
C796 C 0.43265 0.45587 0.81848 0.0
C797 C 0.4258 0.42245 0.80521 0.0
C798 C 0.37877 0.51557 0.81744 0.0
C799 C 0.34045 0.5349 0.83567 0.0
C800 C 0.41321 0.53332 0.79707 0.0
C801 C 0.45232 0.51531 0.77573 0.0
C802 C 0.52185 0.51983 0.78216 0.0
C803 C 0.55934 0.50211 0.76271 0.0
C804 C 0.5277 0.47989 0.73674 0.0
C805 C 0.45846 0.47567 0.72987 0.0
C806 C 0.42058 0.49362 0.74896 0.0
C807 C 0.33926 0.6831 0.8276 0.0
C808 C 0.31005 0.69467 0.79426 0.0
C809 C 0.36341 0.64924 0.83347 0.0
C810 C 0.3569 0.62594 0.80614 0.0
C811 C 0.33347 0.6384 0.77264 0.0
C812 C 0.31026 0.67246 0.76677 0.0
C813 C 0.36709 0.58826 0.81223 0.0
C814 C 0.40764 0.56917 0.79516 0.0
C815 C 0.3333 0.57072 0.83292 0.0
C816 C 0.28649 0.58874 0.85019 0.0
C817 C 0.2295 0.60707 0.83114 0.0
C818 C 0.18626 0.62452 0.84765 0.0
C819 C 0.19908 0.62351 0.88318 0.0
C820 C 0.25515 0.60503 0.90227 0.0
C821 C 0.29865 0.58759 0.88588 0.0
H822 H 0.16544 0.63694 0.89591 0.0
H823 H 0.55678 0.46587 0.72197 0.0
H824 H 0.65086 0.81651 0.18415 0.0
H825 H 0.67555 0.87588 0.17345 0.0
H826 H 0.79024 0.88531 0.27824 0.0
H827 H 0.76577 0.82676 0.28878 0.0
H828 H 0.63923 0.93425 0.20564 0.0
H829 H 0.91871 0.93647 0.28381 0.0
H830 H 0.02013 0.89847 0.29591 0.0
H831 H 0.94243 0.84412 0.20205 0.0
H832 H 0.841 0.88207 0.18915 0.0
H833 H 0.72962 0.10641 0.25335 0.0
H834 H 0.70854 0.04512 0.25373 0.0
H835 H 0.84548 0.02499 0.19047 0.0
H836 H 0.86985 0.08495 0.19205 0.0
H837 H 0.86846 0.9801 0.23531 0.0
H838 H 0.66462 0.02573 0.15928 0.0
H839 H 0.5628 0.06323 0.14292 0.0
H840 H 0.48913 0.02175 0.22305 0.0
H841 H 0.59072 0.98415 0.24014 0.0
C842 C 0.68296 0.83109 0.20443 0.0
C843 C 0.70715 0.81714 0.23714 0.0
C844 C 0.69633 0.86501 0.19849 0.0
C845 C 0.73486 0.88499 0.22506 0.0
C846 C 0.76109 0.87036 0.25726 0.0
C847 C 0.74724 0.83688 0.26324 0.0
C848 C 0.74545 0.92166 0.22036 0.0
C849 C 0.68931 0.94433 0.21175 0.0
C850 C 0.81074 0.93477 0.22823 0.0
C851 C 0.87197 0.91199 0.23566 0.0
C852 C 0.92339 0.91652 0.26567 0.0
C853 C 0.98086 0.89496 0.27269 0.0
C854 C 0.98763 0.86884 0.24981 0.0
C855 C 0.93701 0.86428 0.21981 0.0
C856 C 0.87947 0.88578 0.21267 0.0
C857 C 0.7556 0.08878 0.23986 0.0
C858 C 0.80072 0.10072 0.22225 0.0
C859 C 0.74292 0.0538 0.23971 0.0
C860 C 0.77449 0.03033 0.22158 0.0
C861 C 0.82018 0.04237 0.20455 0.0
C862 C 0.83357 0.07692 0.20518 0.0
C863 C 0.76222 0.99306 0.22077 0.0
C864 C 0.81821 0.9702 0.22872 0.0
C865 C 0.69681 0.97985 0.21155 0.0
C866 C 0.63557 1.00235 0.20118 0.0
C867 C 0.62692 0.02477 0.17357 0.0
C868 C 0.56924 0.04606 0.16416 0.0
C869 C 0.51977 0.0451 0.18208 0.0
C870 C 0.52764 0.02264 0.20931 0.0
C871 C 0.58517 1.00127 0.21882 0.0
H872 H 0.4752 0.06164 0.17477 0.0
H873 H 0.03215 0.85217 0.25529 0.0
H874 H 0.63853 0.30697 0.15406 0.0
H875 H 0.59603 0.36634 0.14643 0.0
H876 H 0.67395 0.3845 0.25443 0.0
H877 H 0.71262 0.32479 0.26212 0.0
H878 H 0.57442 0.42665 0.23333 0.0
H879 H 0.76957 0.39361 0.19293 0.0
H880 H 0.83024 0.36016 0.15743 0.0
H881 H 0.69163 0.39866 0.06662 0.0
H882 H 0.62957 0.43198 0.10164 0.0
H883 H 0.77697 0.57743 0.22062 0.0
H884 H 0.74687 0.52129 0.19674 0.0
H885 H 0.53819 0.54574 0.19103 0.0
H886 H 0.56929 0.60156 0.21703 0.0
H887 H 0.67943 0.48241 0.15194 0.0
H888 H 0.46928 0.47818 0.22059 0.0
H889 H 0.42491 0.51168 0.26262 0.0
H890 H 0.62191 0.54826 0.30819 0.0
H891 H 0.66787 0.51422 0.26712 0.0
C892 C 0.64293 0.32322 0.17636 0.0
C893 C 0.67785 0.31121 0.20876 0.0
C894 C 0.61979 0.35736 0.17195 0.0
C895 C 0.63373 0.38044 0.19965 0.0
C896 C 0.66266 0.36748 0.23252 0.0
C897 C 0.68433 0.33317 0.23702 0.0
C898 C 0.62709 0.41827 0.19425 0.0
C899 C 0.59655 0.43877 0.21516 0.0
C900 C 0.65671 0.43449 0.17092 0.0
C901 C 0.69454 0.41495 0.14986 0.0
C902 C 0.75191 0.39481 0.16539 0.0
C903 C 0.7865 0.37588 0.14537 0.0
C904 C 0.76469 0.37723 0.1098 0.0
C905 C 0.70835 0.39759 0.09418 0.0
C906 C 0.67344 0.4165 0.11409 0.0
C907 C 0.72413 0.57166 0.21245 0.0
C908 C 0.67585 0.59359 0.22156 0.0
C909 C 0.70685 0.53918 0.19907 0.0
C910 C 0.64058 0.52839 0.19369 0.0
C911 C 0.59018 0.55287 0.19627 0.0
C912 C 0.60778 0.58526 0.2104 0.0
C913 C 0.62806 0.49088 0.19155 0.0
C914 C 0.65532 0.47035 0.16933 0.0
C915 C 0.5979 0.47462 0.21469 0.0
C916 C 0.57168 0.49405 0.24049 0.0
C917 C 0.50318 0.49318 0.23977 0.0
C918 C 0.47783 0.5122 0.26346 0.0
C919 C 0.52062 0.5321 0.28806 0.0
C920 C 0.58898 0.53273 0.28924 0.0
C921 C 0.61472 0.51351 0.26582 0.0
H922 H 0.5008 0.54704 0.30619 0.0
H923 H 0.79155 0.36259 0.09433 0.0
loop_
_geom_bond_atom_site_label_1
_geom_bond_atom_site_label_2
_geom_bond_distance
_geom_bond_site_symmetry_2
_ccdc_geom_bond_type
C0 O12 1.241 . S
C0 O13 1.280 . S
C1 O14 1.277 . S
C1 O15 1.245 . S
C2 O26 1.247 . S
C2 O28 1.289 . S
Mg3 O4 1.926 . S
Mg3 O13 1.984 . S
Mg3 O15 1.988 . S
Mg3 O16 2.061 . S
O4 Mg3 1.926 . S
O4 Mg5 1.986 . S
O4 Mg6 1.917 . S
Mg5 O4 1.986 . S
Mg5 O12 2.042 . S
Mg5 O14 2.041 . S
Mg5 O20 2.038 . S
Mg5 O28 2.238 . S
Mg6 O4 1.917 . S
Mg6 O7 1.917 . S
Mg6 O17 2.106 . S
Mg6 O19 2.079 . S
Mg6 O28 2.106 . S
Mg6 O29 2.079 . S
O7 Mg6 1.917 . S
O7 Mg8 1.926 . S
O7 Mg9 1.986 . S
Mg8 O7 1.926 . S
Mg8 O22 1.984 . S
Mg8 O25 1.988 . S
Mg8 O26 2.061 . S
Mg9 O7 1.986 . S
Mg9 O17 2.238 . S
Mg9 O21 2.042 . S
Mg9 O23 2.041 . S
Mg9 O30 2.038 . S
C10 O16 1.247 . S
C10 O17 1.289 . S
C11 O29 1.245 . S
C11 O30 1.274 . S
O12 C0 1.241 . S
O12 Mg5 2.042 . S
O13 C0 1.280 . S
O13 Mg3 1.984 . S
O14 C1 1.277 . S
O14 Mg5 2.041 . S
O15 C1 1.245 . S
O15 Mg3 1.988 . S
O16 Mg3 2.061 . S
O16 C10 1.247 . S
O17 Mg6 2.106 . S
O17 Mg9 2.238 . S
O17 C10 1.289 . S
C18 O19 1.245 . S
C18 O20 1.274 . S
O19 Mg6 2.079 . S
O19 C18 1.245 . S
O20 Mg5 2.038 . S
O20 C18 1.274 . S
O21 Mg9 2.042 . S
O21 C24 1.241 . S
O22 Mg8 1.984 . S
O22 C24 1.280 . S
O23 Mg9 2.041 . S
O23 C27 1.277 . S
C24 O21 1.241 . S
C24 O22 1.280 . S
O25 Mg8 1.988 . S
O25 C27 1.245 . S
O26 C2 1.247 . S
O26 Mg8 2.061 . S
C27 O23 1.277 . S
C27 O25 1.245 . S
O28 C2 1.289 . S
O28 Mg5 2.238 . S
O28 Mg6 2.106 . S
O29 Mg6 2.079 . S
O29 C11 1.245 . S
O30 Mg9 2.038 . S
O30 C11 1.274 . S
C31 O43 1.241 . S
C31 O44 1.280 . S
C32 O45 1.277 . S
C32 O46 1.245 . S
C33 O57 1.247 . S
C33 O59 1.289 . S
Mg34 O35 1.926 . S
Mg34 O44 1.984 . S
Mg34 O46 1.988 . S
Mg34 O47 2.061 . S
O35 Mg34 1.926 . S
O35 Mg36 1.986 . S
O35 Mg37 1.917 . S
Mg36 O35 1.986 . S
Mg36 O43 2.042 . S
Mg36 O45 2.041 . S
Mg36 O51 2.038 . S
Mg36 O59 2.238 . S
Mg37 O35 1.917 . S
Mg37 O38 1.917 . S
Mg37 O48 2.106 . S
Mg37 O50 2.079 . S
Mg37 O59 2.106 . S
Mg37 O60 2.079 . S
O38 Mg37 1.917 . S
O38 Mg39 1.926 . S
O38 Mg40 1.986 . S
Mg39 O38 1.926 . S
Mg39 O53 1.984 . S
Mg39 O56 1.988 . S
Mg39 O57 2.061 . S
Mg40 O38 1.986 . S
Mg40 O48 2.238 . S
Mg40 O52 2.042 . S
Mg40 O54 2.041 . S
Mg40 O61 2.038 . S
C41 O47 1.247 . S
C41 O48 1.289 . S
C42 O60 1.245 . S
C42 O61 1.274 . S
O43 C31 1.241 . S
O43 Mg36 2.042 . S
O44 C31 1.280 . S
O44 Mg34 1.984 . S
O45 C32 1.277 . S
O45 Mg36 2.041 . S
O46 C32 1.245 . S
O46 Mg34 1.988 . S
O47 Mg34 2.061 . S
O47 C41 1.247 . S
O48 Mg37 2.106 . S
O48 Mg40 2.238 . S
O48 C41 1.289 . S
C49 O50 1.245 . S
C49 O51 1.274 . S
O50 Mg37 2.079 . S
O50 C49 1.245 . S
O51 Mg36 2.038 . S
O51 C49 1.274 . S
O52 Mg40 2.042 . S
O52 C55 1.241 . S
O53 Mg39 1.984 . S
O53 C55 1.280 . S
O54 Mg40 2.041 . S
O54 C58 1.277 . S
C55 O52 1.241 . S
C55 O53 1.280 . S
O56 Mg39 1.988 . S
O56 C58 1.245 . S
O57 C33 1.247 . S
O57 Mg39 2.061 . S
C58 O54 1.277 . S
C58 O56 1.245 . S
O59 C33 1.289 . S
O59 Mg36 2.238 . S
O59 Mg37 2.106 . S
O60 Mg37 2.079 . S
O60 C42 1.245 . S
O61 Mg40 2.038 . S
O61 C42 1.274 . S
C62 O74 1.241 . S
C62 O75 1.280 . S
C63 O76 1.277 . S
C63 O77 1.245 . S
C64 O88 1.247 . S
C64 O90 1.289 . S
Mg65 O66 1.926 . S
Mg65 O75 1.984 . S
Mg65 O77 1.988 . S
Mg65 O78 2.061 . S
O66 Mg65 1.926 . S
O66 Mg67 1.986 . S
O66 Mg68 1.917 . S
Mg67 O66 1.986 . S
Mg67 O74 2.042 . S
Mg67 O76 2.041 . S
Mg67 O82 2.038 . S
Mg67 O90 2.238 . S
Mg68 O66 1.917 . S
Mg68 O69 1.917 . S
Mg68 O79 2.106 . S
Mg68 O81 2.079 . S
Mg68 O90 2.106 . S
Mg68 O91 2.079 . S
O69 Mg68 1.917 . S
O69 Mg70 1.926 . S
O69 Mg71 1.986 . S
Mg70 O69 1.926 . S
Mg70 O84 1.984 . S
Mg70 O87 1.988 . S
Mg70 O88 2.061 . S
Mg71 O69 1.986 . S
Mg71 O79 2.238 . S
Mg71 O83 2.042 . S
Mg71 O85 2.041 . S
Mg71 O92 2.038 . S
C72 O78 1.247 . S
C72 O79 1.289 . S
C73 O91 1.245 . S
C73 O92 1.274 . S
O74 C62 1.241 . S
O74 Mg67 2.042 . S
O75 C62 1.280 . S
O75 Mg65 1.984 . S
O76 C63 1.277 . S
O76 Mg67 2.041 . S
O77 C63 1.245 . S
O77 Mg65 1.988 . S
O78 Mg65 2.061 . S
O78 C72 1.247 . S
O79 Mg68 2.106 . S
O79 Mg71 2.238 . S
O79 C72 1.289 . S
C80 O81 1.245 . S
C80 O82 1.274 . S
O81 Mg68 2.079 . S
O81 C80 1.245 . S
O82 Mg67 2.038 . S
O82 C80 1.274 . S
O83 Mg71 2.042 . S
O83 C86 1.241 . S
O84 Mg70 1.984 . S
O84 C86 1.280 . S
O85 Mg71 2.041 . S
O85 C89 1.277 . S
C86 O83 1.241 . S
C86 O84 1.280 . S
O87 Mg70 1.988 . S
O87 C89 1.245 . S
O88 C64 1.247 . S
O88 Mg70 2.061 . S
C89 O85 1.277 . S
C89 O87 1.245 . S
O90 C64 1.289 . S
O90 Mg67 2.238 . S
O90 Mg68 2.106 . S
O91 Mg68 2.079 . S
O91 C73 1.245 . S
O92 Mg71 2.038 . S
O92 C73 1.274 . S
C93 O105 1.241 . S
C93 O106 1.280 . S
C94 O107 1.277 . S
C94 O108 1.245 . S
C95 O119 1.247 . S
C95 O121 1.289 . S
Mg96 O97 1.926 . S
Mg96 O106 1.984 . S
Mg96 O108 1.988 . S
Mg96 O109 2.061 . S
O97 Mg96 1.926 . S
O97 Mg98 1.986 . S
O97 Mg99 1.917 . S
Mg98 O97 1.986 . S
Mg98 O105 2.042 . S
Mg98 O107 2.041 . S
Mg98 O113 2.038 . S
Mg98 O121 2.238 . S
Mg99 O97 1.917 . S
Mg99 O100 1.917 . S
Mg99 O110 2.106 . S
Mg99 O112 2.079 . S
Mg99 O121 2.106 . S
Mg99 O122 2.079 . S
O100 Mg99 1.917 . S
O100 Mg101 1.926 . S
O100 Mg102 1.986 . S
Mg101 O100 1.926 . S
Mg101 O115 1.984 . S
Mg101 O118 1.988 . S
Mg101 O119 2.061 . S
Mg102 O100 1.986 . S
Mg102 O110 2.238 . S
Mg102 O114 2.042 . S
Mg102 O116 2.041 . S
Mg102 O123 2.038 . S
C103 O109 1.247 . S
C103 O110 1.289 . S
C104 O122 1.245 . S
C104 O123 1.274 . S
O105 C93 1.241 . S
O105 Mg98 2.042 . S
O106 C93 1.280 . S
O106 Mg96 1.984 . S
O107 C94 1.277 . S
O107 Mg98 2.041 . S
O108 C94 1.245 . S
O108 Mg96 1.988 . S
O109 Mg96 2.061 . S
O109 C103 1.247 . S
O110 Mg99 2.106 . S
O110 Mg102 2.238 . S
O110 C103 1.289 . S
C111 O112 1.245 . S
C111 O113 1.274 . S
O112 Mg99 2.079 . S
O112 C111 1.245 . S
O113 Mg98 2.038 . S
O113 C111 1.274 . S
O114 Mg102 2.042 . S
O114 C117 1.241 . S
O115 Mg101 1.984 . S
O115 C117 1.280 . S
O116 Mg102 2.041 . S
O116 C120 1.277 . S
C117 O114 1.241 . S
C117 O115 1.280 . S
O118 Mg101 1.988 . S
O118 C120 1.245 . S
O119 C95 1.247 . S
O119 Mg101 2.061 . S
C120 O116 1.277 . S
C120 O118 1.245 . S
O121 C95 1.289 . S
O121 Mg98 2.238 . S
O121 Mg99 2.106 . S
O122 Mg99 2.079 . S
O122 C104 1.245 . S
O123 Mg102 2.038 . S
O123 C104 1.274 . S
H124 C142 0.951 . S
H125 C144 0.951 . S
H126 C146 0.950 . S
H127 C147 0.950 . S
H128 C149 0.950 . S
H129 C152 0.950 . S
H130 C153 0.950 . S
H131 C155 0.950 . S
H132 C156 0.950 . S
H133 C157 0.951 . S
H134 C159 0.951 . S
H135 C161 0.950 . S
H136 C162 0.950 . S
H137 C164 0.950 . S
H138 C167 0.950 . S
H139 C168 0.950 . S
H140 C170 0.950 . S
H141 C171 0.950 . S
C142 H124 0.951 . S
C142 C143 1.366 . S
C142 C144 1.388 . S
C143 C142 1.366 . S
C143 C147 1.385 . S
C144 H125 0.951 . S
C144 C142 1.388 . S
C144 C145 1.366 . S
C145 C144 1.366 . S
C145 C146 1.414 . S
C145 C148 1.499 . S
C146 H126 0.950 . S
C146 C145 1.414 . S
C146 C147 1.374 . S
C147 H127 0.950 . S
C147 C143 1.385 . S
C147 C146 1.374 . S
C148 C145 1.499 . S
C148 C149 1.373 1_655 S
C148 C150 1.389 . S
C149 H128 0.950 . S
C149 C148 1.373 1_455 S
C149 C165 1.377 . S
C150 C148 1.389 . S
C150 C151 1.524 . S
C150 C164 1.377 . S
C151 C150 1.524 . S
C151 C152 1.397 . S
C151 C156 1.363 . S
C152 H129 0.950 . S
C152 C151 1.397 . S
C152 C153 1.334 . S
C153 H130 0.950 . S
C153 C152 1.334 . S
C153 C154 1.287 . S
C154 C153 1.287 . S
C154 C155 1.524 . S
C154 H173 0.913 . S
C155 H131 0.950 . S
C155 C154 1.524 . S
C155 C156 1.415 . S
C156 H132 0.950 . S
C156 C151 1.363 . S
C156 C155 1.415 . S
C157 H133 0.951 . S
C157 C158 1.366 . S
C157 C159 1.388 . S
C158 C157 1.366 . S
C158 C162 1.385 . S
C159 H134 0.951 . S
C159 C157 1.388 . S
C159 C160 1.366 . S
C160 C159 1.366 . S
C160 C161 1.414 . S
C160 C163 1.499 . S
C161 H135 0.950 . S
C161 C160 1.414 . S
C161 C162 1.374 . S
C162 H136 0.950 . S
C162 C158 1.385 . S
C162 C161 1.374 . S
C163 C160 1.499 . S
C163 C164 1.373 1_455 S
C163 C165 1.389 . S
C164 H137 0.950 . S
C164 C150 1.377 . S
C164 C163 1.373 1_655 S
C165 C149 1.377 . S
C165 C163 1.389 . S
C165 C166 1.524 . S
C166 C165 1.524 . S
C166 C167 1.397 . S
C166 C171 1.363 . S
C167 H138 0.950 . S
C167 C166 1.397 . S
C167 C168 1.334 . S
C168 H139 0.950 . S
C168 C167 1.334 . S
C168 C169 1.287 . S
C169 C168 1.287 . S
C169 C170 1.524 . S
C169 H172 0.999 . S
C170 H140 0.950 . S
C170 C169 1.524 . S
C170 C171 1.415 . S
C171 H141 0.950 . S
C171 C166 1.363 . S
C171 C170 1.415 . S
H172 C169 0.999 . S
H173 C154 0.913 . S
H174 C192 0.951 . S
H175 C194 0.951 1_556 S
H176 C196 0.950 . S
H177 C197 0.950 . S
H178 C199 0.951 . S
H179 C202 0.950 . S
H180 C203 0.950 . S
H181 C205 0.950 . S
H182 C206 0.950 1_556 S
H183 C207 0.951 . S
H184 C209 0.951 1_554 S
H185 C211 0.950 . S
H186 C212 0.950 . S
H187 C214 0.951 . S
H188 C217 0.950 . S
H189 C218 0.950 . S
H190 C220 0.950 . S
H191 C221 0.950 1_554 S
C192 H174 0.951 . S
C192 C193 1.366 . S
C192 C194 1.388 . S
C193 C192 1.366 . S
C193 C197 1.385 . S
C194 H175 0.951 1_554 S
C194 C192 1.388 . S
C194 C195 1.366 . S
C195 C194 1.366 . S
C195 C196 1.414 . S
C195 C198 1.499 . S
C196 H176 0.950 . S
C196 C195 1.414 . S
C196 C197 1.374 . S
C197 H177 0.950 . S
C197 C193 1.385 . S
C197 C196 1.374 . S
C198 C195 1.499 . S
C198 C199 1.380 1_554 S
C198 C200 1.389 . S
C199 H178 0.951 . S
C199 C198 1.380 1_556 S
C199 C215 1.370 1_545 S
C200 C198 1.389 . S
C200 C201 1.524 . S
C200 C214 1.370 1_545 S
C201 C200 1.524 . S
C201 C202 1.397 . S
C201 C206 1.363 . S
C202 H179 0.950 . S
C202 C201 1.397 . S
C202 C203 1.334 . S
C203 H180 0.950 . S
C203 C202 1.334 . S
C203 C204 1.287 . S
C204 C203 1.287 . S
C204 C205 1.524 . S
C204 H223 0.913 . S
C205 H181 0.950 . S
C205 C204 1.524 . S
C205 C206 1.415 . S
C206 H182 0.950 1_554 S
C206 C201 1.363 . S
C206 C205 1.415 . S
C207 H183 0.951 . S
C207 C208 1.366 . S
C207 C209 1.388 . S
C208 C207 1.366 . S
C208 C212 1.385 . S
C209 H184 0.951 1_556 S
C209 C207 1.388 . S
C209 C210 1.366 . S
C210 C209 1.366 . S
C210 C211 1.414 . S
C210 C213 1.499 . S
C211 H185 0.950 . S
C211 C210 1.414 . S
C211 C212 1.374 . S
C212 H186 0.950 . S
C212 C208 1.385 . S
C212 C211 1.374 . S
C213 C210 1.499 . S
C213 C214 1.380 1_556 S
C213 C215 1.389 . S
C214 H187 0.951 . S
C214 C200 1.370 1_565 S
C214 C213 1.380 1_554 S
C215 C199 1.370 1_565 S
C215 C213 1.389 . S
C215 C216 1.524 . S
C216 C215 1.524 . S
C216 C217 1.397 . S
C216 C221 1.363 . S
C217 H188 0.950 . S
C217 C216 1.397 . S
C217 C218 1.334 . S
C218 H189 0.950 . S
C218 C217 1.334 . S
C218 C219 1.287 . S
C219 C218 1.287 . S
C219 C220 1.524 . S
C219 H222 0.999 . S
C220 H190 0.950 . S
C220 C219 1.524 . S
C220 C221 1.415 . S
C221 H191 0.950 1_556 S
C221 C216 1.363 . S
C221 C220 1.415 . S
H222 C219 0.999 . S
H223 C204 0.913 . S
H224 C242 0.951 . S
H225 C244 0.951 . S
H226 C246 0.950 . S
H227 C247 0.950 . S
H228 C249 0.950 . S
H229 C252 0.950 . S
H230 C253 0.950 . S
H231 C255 0.950 . S
H232 C256 0.950 . S
H233 C257 0.951 . S
H234 C259 0.951 . S
H235 C261 0.950 . S
H236 C262 0.950 . S
H237 C264 0.950 . S
H238 C267 0.950 . S
H239 C268 0.950 . S
H240 C270 0.950 . S
H241 C271 0.950 . S
C242 H224 0.951 . S
C242 C243 1.366 . S
C242 C244 1.388 . S
C243 C242 1.366 . S
C243 C247 1.385 . S
C244 H225 0.951 . S
C244 C242 1.388 . S
C244 C245 1.366 . S
C245 C244 1.366 . S
C245 C246 1.414 . S
C245 C248 1.499 . S
C246 H226 0.950 . S
C246 C245 1.414 . S
C246 C247 1.374 . S
C247 H227 0.950 . S
C247 C243 1.385 . S
C247 C246 1.374 . S
C248 C245 1.499 . S
C248 C249 1.373 . S
C248 C250 1.389 . S
C249 H228 0.950 . S
C249 C248 1.373 . S
C249 C265 1.377 . S
C250 C248 1.389 . S
C250 C251 1.524 . S
C250 C264 1.377 . S
C251 C250 1.524 . S
C251 C252 1.397 . S
C251 C256 1.363 . S
C252 H229 0.950 . S
C252 C251 1.397 . S
C252 C253 1.334 . S
C253 H230 0.950 . S
C253 C252 1.334 . S
C253 C254 1.287 . S
C254 C253 1.287 . S
C254 C255 1.524 . S
C254 H273 0.913 . S
C255 H231 0.950 . S
C255 C254 1.524 . S
C255 C256 1.415 . S
C256 H232 0.950 . S
C256 C251 1.363 . S
C256 C255 1.415 . S
C257 H233 0.951 . S
C257 C258 1.366 . S
C257 C259 1.388 . S
C258 C257 1.366 . S
C258 C262 1.385 . S
C259 H234 0.951 . S
C259 C257 1.388 . S
C259 C260 1.366 . S
C260 C259 1.366 . S
C260 C261 1.414 . S
C260 C263 1.499 . S
C261 H235 0.950 . S
C261 C260 1.414 . S
C261 C262 1.374 . S
C262 H236 0.950 . S
C262 C258 1.385 . S
C262 C261 1.374 . S
C263 C260 1.499 . S
C263 C264 1.373 . S
C263 C265 1.389 . S
C264 H237 0.950 . S
C264 C250 1.377 . S
C264 C263 1.373 . S
C265 C249 1.377 . S
C265 C263 1.389 . S
C265 C266 1.524 . S
C266 C265 1.524 . S
C266 C267 1.397 . S
C266 C271 1.363 . S
C267 H238 0.950 . S
C267 C266 1.397 . S
C267 C268 1.334 . S
C268 H239 0.950 . S
C268 C267 1.334 . S
C268 C269 1.287 . S
C269 C268 1.287 . S
C269 C270 1.524 . S
C269 H272 0.999 . S
C270 H240 0.950 . S
C270 C269 1.524 . S
C270 C271 1.415 . S
C271 H241 0.950 . S
C271 C266 1.363 . S
C271 C270 1.415 . S
H272 C269 0.999 . S
H273 C254 0.913 . S
H274 C292 0.951 . S
H275 C294 0.951 1_565 S
H276 C296 0.950 . S
H277 C297 0.950 . S
H278 C299 0.950 . S
H279 C302 0.950 1_545 S
H280 C303 0.950 . S
H281 C305 0.950 . S
H282 C306 0.950 . S
H283 C307 0.951 . S
H284 C309 0.951 1_545 S
H285 C311 0.950 . S
H286 C312 0.950 . S
H287 C314 0.950 . S
H288 C317 0.950 1_565 S
H289 C318 0.950 . S
H290 C320 0.950 . S
H291 C321 0.950 . S
C292 H274 0.951 . S
C292 C293 1.366 . S
C292 C294 1.388 . S
C293 C292 1.366 . S
C293 C297 1.385 . S
C294 H275 0.951 1_545 S
C294 C292 1.388 . S
C294 C295 1.366 . S
C295 C294 1.366 . S
C295 C296 1.414 . S
C295 C298 1.499 . S
C296 H276 0.950 . S
C296 C295 1.414 . S
C296 C297 1.374 . S
C297 H277 0.950 . S
C297 C293 1.385 . S
C297 C296 1.374 . S
C298 C295 1.499 . S
C298 C299 1.373 1_554 S
C298 C300 1.389 1_645 S
C299 H278 0.950 . S
C299 C298 1.373 1_556 S
C299 C315 1.377 . S
C300 C298 1.389 1_465 S
C300 C301 1.524 . S
C300 C314 1.377 . S
C301 C300 1.524 . S
C301 C302 1.397 . S
C301 C306 1.363 . S
C302 H279 0.950 1_565 S
C302 C301 1.397 . S
C302 C303 1.334 . S
C303 H280 0.950 . S
C303 C302 1.334 . S
C303 C304 1.287 . S
C304 C303 1.287 . S
C304 C305 1.524 . S
C304 H323 0.913 . S
C305 H281 0.950 . S
C305 C304 1.524 . S
C305 C306 1.415 . S
C306 H282 0.950 . S
C306 C301 1.363 . S
C306 C305 1.415 . S
C307 H283 0.951 . S
C307 C308 1.366 . S
C307 C309 1.388 . S
C308 C307 1.366 . S
C308 C312 1.385 . S
C309 H284 0.951 1_565 S
C309 C307 1.388 . S
C309 C310 1.366 . S
C310 C309 1.366 . S
C310 C311 1.414 . S
C310 C313 1.499 . S
C311 H285 0.950 . S
C311 C310 1.414 . S
C311 C312 1.374 . S
C312 H286 0.950 . S
C312 C308 1.385 . S
C312 C311 1.374 . S
C313 C310 1.499 . S
C313 C314 1.373 1_556 S
C313 C315 1.389 1_465 S
C314 H287 0.950 . S
C314 C300 1.377 . S
C314 C313 1.373 1_554 S
C315 C299 1.377 . S
C315 C313 1.389 1_645 S
C315 C316 1.524 . S
C316 C315 1.524 . S
C316 C317 1.397 . S
C316 C321 1.363 . S
C317 H288 0.950 1_545 S
C317 C316 1.397 . S
C317 C318 1.334 . S
C318 H289 0.950 . S
C318 C317 1.334 . S
C318 C319 1.287 . S
C319 C318 1.287 . S
C319 C320 1.524 . S
C319 H322 0.999 . S
C320 H290 0.950 . S
C320 C319 1.524 . S
C320 C321 1.415 . S
C321 H291 0.950 . S
C321 C316 1.363 . S
C321 C320 1.415 . S
H322 C319 0.999 . S
H323 C304 0.913 . S
H324 C342 0.951 . S
H325 C344 0.951 . S
H326 C346 0.950 . S
H327 C347 0.950 . S
H328 C349 0.950 . S
H329 C352 0.950 . S
H330 C353 0.950 . S
H331 C355 0.950 . S
H332 C356 0.950 . S
H333 C357 0.951 . S
H334 C359 0.942 1_556 S
H335 C361 0.950 1_556 S
H336 C362 0.950 . S
H337 C364 0.950 . S
H338 C367 0.950 . S
H339 C368 0.950 . S
H340 C370 0.950 . S
H341 C371 0.950 . S
C342 H324 0.951 . S
C342 C343 1.366 . S
C342 C344 1.388 . S
C343 C342 1.366 . S
C343 C347 1.385 . S
C344 H325 0.951 . S
C344 C342 1.388 . S
C344 C345 1.366 . S
C345 C344 1.366 . S
C345 C346 1.414 . S
C345 C348 1.499 . S
C346 H326 0.950 . S
C346 C345 1.414 . S
C346 C347 1.374 . S
C347 H327 0.950 . S
C347 C343 1.385 . S
C347 C346 1.374 . S
C348 C345 1.499 . S
C348 C349 1.373 . S
C348 C350 1.389 . S
C349 H328 0.950 . S
C349 C348 1.373 . S
C349 C365 1.377 . S
C350 C348 1.389 . S
C350 C351 1.524 . S
C350 C364 1.377 . S
C351 C350 1.524 . S
C351 C352 1.397 . S
C351 C356 1.363 . S
C352 H329 0.950 . S
C352 C351 1.397 . S
C352 C353 1.334 . S
C353 H330 0.950 . S
C353 C352 1.334 . S
C353 C354 1.287 . S
C354 C353 1.287 . S
C354 C355 1.524 . S
C354 H373 0.913 . S
C355 H331 0.950 . S
C355 C354 1.524 . S
C355 C356 1.415 . S
C356 H332 0.950 . S
C356 C351 1.363 . S
C356 C355 1.415 . S
C357 H333 0.951 . S
C357 C358 1.366 . S
C357 C359 1.412 . S
C358 C357 1.366 . S
C358 C362 1.385 . S
C359 H334 0.942 1_554 S
C359 C357 1.412 . S
C359 C360 1.351 1_554 S
C360 C359 1.351 1_556 S
C360 C361 1.414 1_556 S
C360 C363 1.499 . S
C361 H335 0.950 1_554 S
C361 C360 1.414 1_554 S
C361 C362 1.374 . S
C362 H336 0.950 . S
C362 C358 1.385 . S
C362 C361 1.374 . S
C363 C360 1.499 . S
C363 C364 1.373 . S
C363 C365 1.389 . S
C364 H337 0.950 . S
C364 C350 1.377 . S
C364 C363 1.373 . S
C365 C349 1.377 . S
C365 C363 1.389 . S
C365 C366 1.524 . S
C366 C365 1.524 . S
C366 C367 1.397 . S
C366 C371 1.363 . S
C367 H338 0.950 . S
C367 C366 1.397 . S
C367 C368 1.334 1_556 S
C368 H339 0.950 . S
C368 C367 1.334 1_554 S
C368 C369 1.287 . S
C369 C368 1.287 . S
C369 C370 1.524 1_554 S
C369 H372 0.999 . S
C370 H340 0.950 . S
C370 C369 1.524 1_556 S
C370 C371 1.415 . S
C371 H341 0.950 . S
C371 C366 1.363 . S
C371 C370 1.415 . S
H372 C369 0.999 . S
H373 C354 0.913 . S
H374 C392 0.951 . S
H375 C394 0.951 . S
H376 C396 0.950 . S
H377 C397 0.950 . S
H378 C399 0.950 . S
H379 C402 0.950 . S
H380 C403 0.950 . S
H381 C405 0.950 . S
H382 C406 0.950 . S
H383 C407 0.951 . S
H384 C409 0.951 . S
H385 C411 0.950 . S
H386 C412 0.950 . S
H387 C414 0.950 . S
H388 C417 0.950 1_655 S
H389 C418 0.950 . S
H390 C420 0.950 . S
H391 C421 0.950 . S
C392 H374 0.951 . S
C392 C393 1.366 . S
C392 C394 1.388 . S
C393 C392 1.366 . S
C393 C397 1.385 . S
C394 H375 0.951 . S
C394 C392 1.388 . S
C394 C395 1.366 . S
C395 C394 1.366 . S
C395 C396 1.414 . S
C395 C398 1.499 . S
C396 H376 0.950 . S
C396 C395 1.414 . S
C396 C397 1.374 . S
C397 H377 0.950 . S
C397 C393 1.385 . S
C397 C396 1.374 . S
C398 C395 1.499 . S
C398 C399 1.373 . S
C398 C400 1.389 . S
C399 H378 0.950 . S
C399 C398 1.373 . S
C399 C415 1.377 . S
C400 C398 1.389 . S
C400 C401 1.524 . S
C400 C414 1.377 . S
C401 C400 1.524 . S
C401 C402 1.397 . S
C401 C406 1.363 . S
C402 H379 0.950 . S
C402 C401 1.397 . S
C402 C403 1.334 . S
C403 H380 0.950 . S
C403 C402 1.334 . S
C403 C404 1.287 . S
C404 C403 1.287 . S
C404 C405 1.524 . S
C404 H423 0.913 . S
C405 H381 0.950 . S
C405 C404 1.524 . S
C405 C406 1.415 . S
C406 H382 0.950 . S
C406 C401 1.363 . S
C406 C405 1.415 . S
C407 H383 0.951 . S
C407 C408 1.368 . S
C407 C409 1.388 . S
C408 C407 1.368 . S
C408 C412 1.382 1_455 S
C409 H384 0.951 . S
C409 C407 1.388 . S
C409 C410 1.366 1_455 S
C410 C409 1.366 1_655 S
C410 C411 1.414 . S
C410 C413 1.499 . S
C411 H385 0.950 . S
C411 C410 1.414 . S
C411 C412 1.374 . S
C412 H386 0.950 . S
C412 C408 1.382 1_655 S
C412 C411 1.374 . S
C413 C410 1.499 . S
C413 C414 1.373 . S
C413 C415 1.389 . S
C414 H387 0.950 . S
C414 C400 1.377 . S
C414 C413 1.373 . S
C415 C399 1.377 . S
C415 C413 1.389 . S
C415 C416 1.524 1_655 S
C416 C415 1.524 1_455 S
C416 C417 1.397 . S
C416 C421 1.363 . S
C417 H388 0.950 1_455 S
C417 C416 1.397 . S
C417 C418 1.334 . S
C418 H389 0.950 . S
C418 C417 1.334 . S
C418 C419 1.287 . S
C419 C418 1.287 . S
C419 C420 1.524 . S
C419 H422 0.999 . S
C420 H390 0.950 . S
C420 C419 1.524 . S
C420 C421 1.415 . S
C421 H391 0.950 . S
C421 C416 1.363 . S
C421 C420 1.415 . S
H422 C419 0.999 . S
H423 C404 0.913 . S
H424 C442 0.951 . S
H425 C444 0.942 1_554 S
H426 C446 0.950 1_554 S
H427 C447 0.950 . S
H428 C449 0.950 . S
H429 C452 0.950 . S
H430 C453 0.950 . S
H431 C455 0.950 . S
H432 C456 0.950 . S
H433 C457 0.951 . S
H434 C459 0.951 . S
H435 C461 0.950 . S
H436 C462 0.950 . S
H437 C464 0.950 . S
H438 C467 0.950 . S
H439 C468 0.950 . S
H440 C470 0.950 . S
H441 C471 0.950 . S
C442 H424 0.951 . S
C442 C443 1.366 . S
C442 C444 1.411 . S
C443 C442 1.366 . S
C443 C447 1.385 . S
C444 H425 0.942 1_556 S
C444 C442 1.411 . S
C444 C445 1.352 1_556 S
C445 C444 1.352 1_554 S
C445 C446 1.414 1_554 S
C445 C448 1.499 . S
C446 H426 0.950 1_556 S
C446 C445 1.414 1_556 S
C446 C447 1.374 . S
C447 H427 0.950 . S
C447 C443 1.385 . S
C447 C446 1.374 . S
C448 C445 1.499 . S
C448 C449 1.373 . S
C448 C450 1.389 . S
C449 H428 0.950 . S
C449 C448 1.373 . S
C449 C465 1.377 . S
C450 C448 1.389 . S
C450 C451 1.524 . S
C450 C464 1.377 . S
C451 C450 1.524 . S
C451 C452 1.397 . S
C451 C456 1.363 . S
C452 H429 0.950 . S
C452 C451 1.397 . S
C452 C453 1.334 1_554 S
C453 H430 0.950 . S
C453 C452 1.334 1_556 S
C453 C454 1.287 . S
C454 C453 1.287 . S
C454 C455 1.524 1_556 S
C454 H473 0.913 . S
C455 H431 0.950 . S
C455 C454 1.524 1_554 S
C455 C456 1.415 . S
C456 H432 0.950 . S
C456 C451 1.363 . S
C456 C455 1.415 . S
C457 H433 0.951 . S
C457 C458 1.366 . S
C457 C459 1.388 . S
C458 C457 1.366 . S
C458 C462 1.385 . S
C459 H434 0.951 . S
C459 C457 1.388 . S
C459 C460 1.366 . S
C460 C459 1.366 . S
C460 C461 1.414 . S
C460 C463 1.499 . S
C461 H435 0.950 . S
C461 C460 1.414 . S
C461 C462 1.374 . S
C462 H436 0.950 . S
C462 C458 1.385 . S
C462 C461 1.374 . S
C463 C460 1.499 . S
C463 C464 1.373 . S
C463 C465 1.389 . S
C464 H437 0.950 . S
C464 C450 1.377 . S
C464 C463 1.373 . S
C465 C449 1.377 . S
C465 C463 1.389 . S
C465 C466 1.524 . S
C466 C465 1.524 . S
C466 C467 1.397 . S
C466 C471 1.363 . S
C467 H438 0.950 . S
C467 C466 1.397 . S
C467 C468 1.334 . S
C468 H439 0.950 . S
C468 C467 1.334 . S
C468 C469 1.287 . S
C469 C468 1.287 . S
C469 C470 1.524 . S
C469 H472 0.999 . S
C470 H440 0.950 . S
C470 C469 1.524 . S
C470 C471 1.415 . S
C471 H441 0.950 . S
C471 C466 1.363 . S
C471 C470 1.415 . S
H472 C469 0.999 . S
H473 C454 0.913 . S
H474 C492 0.951 . S
H475 C494 0.951 . S
H476 C496 0.950 . S
H477 C497 0.950 . S
H478 C499 0.950 . S
H479 C502 0.950 . S
H480 C503 0.950 . S
H481 C505 0.950 . S
H482 C506 0.950 . S
H483 C507 0.951 . S
H484 C509 0.951 . S
H485 C511 0.950 . S
H486 C512 0.950 . S
H487 C514 0.950 . S
H488 C517 0.950 . S
H489 C518 0.950 . S
H490 C520 0.950 . S
H491 C521 0.950 . S
C492 H474 0.951 . S
C492 C493 1.361 1_455 S
C492 C494 1.388 . S
C493 C492 1.361 1_655 S
C493 C497 1.389 . S
C494 H475 0.951 . S
C494 C492 1.388 . S
C494 C495 1.366 . S
C495 C494 1.366 . S
C495 C496 1.414 1_455 S
C495 C498 1.499 . S
C496 H476 0.950 . S
C496 C495 1.414 1_655 S
C496 C497 1.374 . S
C497 H477 0.950 . S
C497 C493 1.389 . S
C497 C496 1.374 . S
C498 C495 1.499 . S
C498 C499 1.373 . S
C498 C500 1.389 . S
C499 H478 0.950 . S
C499 C498 1.373 . S
C499 C515 1.377 . S
C500 C498 1.389 . S
C500 C501 1.524 . S
C500 C514 1.377 . S
C501 C500 1.524 . S
C501 C502 1.397 . S
C501 C506 1.363 . S
C502 H479 0.950 . S
C502 C501 1.397 . S
C502 C503 1.334 . S
C503 H480 0.950 . S
C503 C502 1.334 . S
C503 C504 1.287 . S
C504 C503 1.287 . S
C504 C505 1.524 . S
C504 H523 0.913 . S
C505 H481 0.950 . S
C505 C504 1.524 . S
C505 C506 1.415 . S
C506 H482 0.950 . S
C506 C501 1.363 . S
C506 C505 1.415 . S
C507 H483 0.951 . S
C507 C508 1.366 . S
C507 C509 1.388 . S
C508 C507 1.366 . S
C508 C512 1.385 . S
C509 H484 0.951 . S
C509 C507 1.388 . S
C509 C510 1.366 . S
C510 C509 1.366 . S
C510 C511 1.414 . S
C510 C513 1.499 . S
C511 H485 0.950 . S
C511 C510 1.414 . S
C511 C512 1.374 . S
C512 H486 0.950 . S
C512 C508 1.385 . S
C512 C511 1.374 . S
C513 C510 1.499 . S
C513 C514 1.373 . S
C513 C515 1.389 . S
C514 H487 0.950 . S
C514 C500 1.377 . S
C514 C513 1.373 . S
C515 C499 1.377 . S
C515 C513 1.389 . S
C515 C516 1.524 . S
C516 C515 1.524 . S
C516 C517 1.397 . S
C516 C521 1.363 1_455 S
C517 H488 0.950 . S
C517 C516 1.397 . S
C517 C518 1.334 . S
C518 H489 0.950 . S
C518 C517 1.334 . S
C518 C519 1.287 1_455 S
C519 C518 1.287 1_655 S
C519 C520 1.524 . S
C519 H522 0.999 . S
C520 H490 0.950 . S
C520 C519 1.524 . S
C520 C521 1.415 . S
C521 H491 0.950 . S
C521 C516 1.363 1_655 S
C521 C520 1.415 . S
H522 C519 0.999 . S
H523 C504 0.913 . S
H524 C542 0.951 . S
H525 C544 0.951 . S
H526 C546 0.950 . S
H527 C547 0.950 . S
H528 C549 0.950 . S
H529 C552 0.950 . S
H530 C553 0.950 . S
H531 C555 0.950 . S
H532 C556 0.950 . S
H533 C557 0.951 . S
H534 C559 0.951 . S
H535 C561 0.950 . S
H536 C562 0.950 . S
H537 C564 0.950 . S
H538 C567 0.950 . S
H539 C568 0.950 . S
H540 C570 0.950 . S
H541 C571 0.950 . S
C542 H524 0.951 . S
C542 C543 1.366 . S
C542 C544 1.388 1_455 S
C543 C542 1.366 . S
C543 C547 1.385 . S
C544 H525 0.951 . S
C544 C542 1.388 1_655 S
C544 C545 1.366 . S
C545 C544 1.366 . S
C545 C546 1.414 . S
C545 C548 1.499 . S
C546 H526 0.950 . S
C546 C545 1.414 . S
C546 C547 1.374 1_655 S
C547 H527 0.950 . S
C547 C543 1.385 . S
C547 C546 1.374 1_455 S
C548 C545 1.499 . S
C548 C549 1.373 . S
C548 C550 1.389 . S
C549 H528 0.950 . S
C549 C548 1.373 . S
C549 C565 1.377 . S
C550 C548 1.389 . S
C550 C551 1.524 . S
C550 C564 1.377 . S
C551 C550 1.524 . S
C551 C552 1.397 . S
C551 C556 1.363 . S
C552 H529 0.950 . S
C552 C551 1.397 . S
C552 C553 1.334 . S
C553 H530 0.950 . S
C553 C552 1.334 . S
C553 C554 1.287 . S
C554 C553 1.287 . S
C554 C555 1.524 . S
C554 H573 0.913 . S
C555 H531 0.950 . S
C555 C554 1.524 . S
C555 C556 1.415 . S
C556 H532 0.950 . S
C556 C551 1.363 . S
C556 C555 1.415 . S
C557 H533 0.951 . S
C557 C558 1.366 . S
C557 C559 1.388 . S
C558 C557 1.366 . S
C558 C562 1.385 . S
C559 H534 0.951 . S
C559 C557 1.388 . S
C559 C560 1.366 . S
C560 C559 1.366 . S
C560 C561 1.414 . S
C560 C563 1.499 . S
C561 H535 0.950 . S
C561 C560 1.414 . S
C561 C562 1.374 . S
C562 H536 0.950 . S
C562 C558 1.385 . S
C562 C561 1.374 . S
C563 C560 1.499 . S
C563 C564 1.373 . S
C563 C565 1.389 . S
C564 H537 0.950 . S
C564 C550 1.377 . S
C564 C563 1.373 . S
C565 C549 1.377 . S
C565 C563 1.389 . S
C565 C566 1.524 . S
C566 C565 1.524 . S
C566 C567 1.397 . S
C566 C571 1.363 . S
C567 H538 0.950 . S
C567 C566 1.397 . S
C567 C568 1.334 . S
C568 H539 0.950 . S
C568 C567 1.334 . S
C568 C569 1.287 . S
C569 C568 1.287 . S
C569 C570 1.524 . S
C569 H572 0.999 . S
C570 H540 0.950 . S
C570 C569 1.524 . S
C570 C571 1.415 . S
C571 H541 0.950 . S
C571 C566 1.363 . S
C571 C570 1.415 . S
H572 C569 0.999 . S
H573 C554 0.913 . S
H574 C592 0.951 . S
H575 C594 0.951 . S
H576 C596 0.950 . S
H577 C597 0.950 . S
H578 C599 0.950 . S
H579 C602 0.950 . S
H580 C603 0.950 . S
H581 C605 0.950 . S
H582 C606 0.950 . S
H583 C607 0.951 . S
H584 C609 0.951 . S
H585 C611 0.950 . S
H586 C612 0.950 . S
H587 C614 0.950 . S
H588 C617 0.950 . S
H589 C618 0.950 . S
H590 C620 0.950 1_554 S
H591 C621 0.950 . S
C592 H574 0.951 . S
C592 C593 1.366 . S
C592 C594 1.388 . S
C593 C592 1.366 . S
C593 C597 1.385 . S
C594 H575 0.951 . S
C594 C592 1.388 . S
C594 C595 1.366 . S
C595 C594 1.366 . S
C595 C596 1.414 . S
C595 C598 1.499 . S
C596 H576 0.950 . S
C596 C595 1.414 . S
C596 C597 1.374 . S
C597 H577 0.950 . S
C597 C593 1.385 . S
C597 C596 1.374 . S
C598 C595 1.499 . S
C598 C599 1.373 . S
C598 C600 1.389 . S
C599 H578 0.950 . S
C599 C598 1.373 . S
C599 C615 1.377 . S
C600 C598 1.389 . S
C600 C601 1.524 . S
C600 C614 1.377 . S
C601 C600 1.524 . S
C601 C602 1.397 . S
C601 C606 1.363 . S
C602 H579 0.950 . S
C602 C601 1.397 . S
C602 C603 1.334 . S
C603 H580 0.950 . S
C603 C602 1.334 . S
C603 C604 1.287 . S
C604 C603 1.287 . S
C604 C605 1.524 . S
C604 H623 0.913 . S
C605 H581 0.950 . S
C605 C604 1.524 . S
C605 C606 1.415 . S
C606 H582 0.950 . S
C606 C601 1.363 . S
C606 C605 1.415 . S
C607 H583 0.951 . S
C607 C608 1.366 . S
C607 C609 1.388 . S
C608 C607 1.366 . S
C608 C612 1.385 . S
C609 H584 0.951 . S
C609 C607 1.388 . S
C609 C610 1.366 . S
C610 C609 1.366 . S
C610 C611 1.414 . S
C610 C613 1.499 . S
C611 H585 0.950 . S
C611 C610 1.414 . S
C611 C612 1.374 . S
C612 H586 0.950 . S
C612 C608 1.385 . S
C612 C611 1.374 . S
C613 C610 1.499 . S
C613 C614 1.373 . S
C613 C615 1.389 . S
C614 H587 0.950 . S
C614 C600 1.377 . S
C614 C613 1.373 . S
C615 C599 1.377 . S
C615 C613 1.389 . S
C615 C616 1.524 . S
C616 C615 1.524 . S
C616 C617 1.397 . S
C616 C621 1.363 . S
C617 H588 0.950 . S
C617 C616 1.397 . S
C617 C618 1.334 . S
C618 H589 0.950 . S
C618 C617 1.334 . S
C618 C619 1.287 . S
C619 C618 1.287 . S
C619 C620 1.524 . S
C619 H622 0.999 1_556 S
C620 H590 0.950 1_556 S
C620 C619 1.524 . S
C620 C621 1.415 . S
C621 H591 0.950 . S
C621 C616 1.363 . S
C621 C620 1.415 . S
H622 C619 0.999 1_554 S
H623 C604 0.913 . S
H624 C642 0.951 . S
H625 C644 0.951 . S
H626 C646 0.950 . S
H627 C647 0.950 . S
H628 C649 0.950 . S
H629 C652 0.950 . S
H630 C653 0.950 . S
H631 C655 0.950 . S
H632 C656 0.950 . S
H633 C657 0.951 . S
H634 C659 0.951 . S
H635 C661 0.950 . S
H636 C662 0.950 . S
H637 C664 0.950 . S
H638 C667 0.950 . S
H639 C668 0.950 . S
H640 C670 0.950 . S
H641 C671 0.950 . S
C642 H624 0.951 . S
C642 C643 1.366 . S
C642 C644 1.388 1_655 S
C643 C642 1.366 . S
C643 C647 1.385 . S
C644 H625 0.951 . S
C644 C642 1.388 1_455 S
C644 C645 1.366 . S
C645 C644 1.366 . S
C645 C646 1.414 . S
C645 C648 1.499 . S
C646 H626 0.950 . S
C646 C645 1.414 . S
C646 C647 1.374 1_455 S
C647 H627 0.950 . S
C647 C643 1.385 . S
C647 C646 1.374 1_655 S
C648 C645 1.499 . S
C648 C649 1.373 . S
C648 C650 1.389 . S
C649 H628 0.950 . S
C649 C648 1.373 . S
C649 C665 1.377 . S
C650 C648 1.389 . S
C650 C651 1.524 . S
C650 C664 1.377 . S
C651 C650 1.524 . S
C651 C652 1.397 . S
C651 C656 1.363 . S
C652 H629 0.950 . S
C652 C651 1.397 . S
C652 C653 1.334 . S
C653 H630 0.950 . S
C653 C652 1.334 . S
C653 C654 1.287 . S
C654 C653 1.287 . S
C654 C655 1.524 . S
C654 H673 0.913 . S
C655 H631 0.950 . S
C655 C654 1.524 . S
C655 C656 1.415 . S
C656 H632 0.950 . S
C656 C651 1.363 . S
C656 C655 1.415 . S
C657 H633 0.951 . S
C657 C658 1.366 . S
C657 C659 1.388 . S
C658 C657 1.366 . S
C658 C662 1.385 . S
C659 H634 0.951 . S
C659 C657 1.388 . S
C659 C660 1.366 . S
C660 C659 1.366 . S
C660 C661 1.414 . S
C660 C663 1.499 . S
C661 H635 0.950 . S
C661 C660 1.414 . S
C661 C662 1.374 . S
C662 H636 0.950 . S
C662 C658 1.385 . S
C662 C661 1.374 . S
C663 C660 1.499 . S
C663 C664 1.373 . S
C663 C665 1.389 . S
C664 H637 0.950 . S
C664 C650 1.377 . S
C664 C663 1.373 . S
C665 C649 1.377 . S
C665 C663 1.389 . S
C665 C666 1.524 . S
C666 C665 1.524 . S
C666 C667 1.397 . S
C666 C671 1.363 . S
C667 H638 0.950 . S
C667 C666 1.397 . S
C667 C668 1.334 . S
C668 H639 0.950 . S
C668 C667 1.334 . S
C668 C669 1.287 . S
C669 C668 1.287 . S
C669 C670 1.524 . S
C669 H672 0.999 . S
C670 H640 0.950 . S
C670 C669 1.524 . S
C670 C671 1.415 . S
C671 H641 0.950 . S
C671 C666 1.363 . S
C671 C670 1.415 . S
H672 C669 0.999 . S
H673 C654 0.913 . S
H674 C692 0.951 . S
H675 C694 0.951 . S
H676 C696 0.950 . S
H677 C697 0.950 . S
H678 C699 0.950 . S
H679 C702 0.950 . S
H680 C703 0.950 . S
H681 C705 0.950 1_556 S
H682 C706 0.950 . S
H683 C707 0.951 . S
H684 C709 0.951 . S
H685 C711 0.950 . S
H686 C712 0.950 . S
H687 C714 0.950 . S
H688 C717 0.950 . S
H689 C718 0.950 . S
H690 C720 0.950 . S
H691 C721 0.950 . S
C692 H674 0.951 . S
C692 C693 1.366 . S
C692 C694 1.388 . S
C693 C692 1.366 . S
C693 C697 1.385 . S
C694 H675 0.951 . S
C694 C692 1.388 . S
C694 C695 1.366 . S
C695 C694 1.366 . S
C695 C696 1.414 . S
C695 C698 1.499 . S
C696 H676 0.950 . S
C696 C695 1.414 . S
C696 C697 1.374 . S
C697 H677 0.950 . S
C697 C693 1.385 . S
C697 C696 1.374 . S
C698 C695 1.499 . S
C698 C699 1.373 . S
C698 C700 1.389 . S
C699 H678 0.950 . S
C699 C698 1.373 . S
C699 C715 1.377 . S
C700 C698 1.389 . S
C700 C701 1.524 . S
C700 C714 1.377 . S
C701 C700 1.524 . S
C701 C702 1.397 . S
C701 C706 1.363 . S
C702 H679 0.950 . S
C702 C701 1.397 . S
C702 C703 1.334 . S
C703 H680 0.950 . S
C703 C702 1.334 . S
C703 C704 1.287 . S
C704 C703 1.287 . S
C704 C705 1.524 . S
C704 H723 0.913 1_554 S
C705 H681 0.950 1_554 S
C705 C704 1.524 . S
C705 C706 1.415 . S
C706 H682 0.950 . S
C706 C701 1.363 . S
C706 C705 1.415 . S
C707 H683 0.951 . S
C707 C708 1.366 . S
C707 C709 1.388 . S
C708 C707 1.366 . S
C708 C712 1.385 . S
C709 H684 0.951 . S
C709 C707 1.388 . S
C709 C710 1.366 . S
C710 C709 1.366 . S
C710 C711 1.414 . S
C710 C713 1.499 . S
C711 H685 0.950 . S
C711 C710 1.414 . S
C711 C712 1.374 . S
C712 H686 0.950 . S
C712 C708 1.385 . S
C712 C711 1.374 . S
C713 C710 1.499 . S
C713 C714 1.373 . S
C713 C715 1.389 . S
C714 H687 0.950 . S
C714 C700 1.377 . S
C714 C713 1.373 . S
C715 C699 1.377 . S
C715 C713 1.389 . S
C715 C716 1.524 . S
C716 C715 1.524 . S
C716 C717 1.397 . S
C716 C721 1.363 . S
C717 H688 0.950 . S
C717 C716 1.397 . S
C717 C718 1.334 . S
C718 H689 0.950 . S
C718 C717 1.334 . S
C718 C719 1.287 . S
C719 C718 1.287 . S
C719 C720 1.524 . S
C719 H722 0.999 . S
C720 H690 0.950 . S
C720 C719 1.524 . S
C720 C721 1.415 . S
C721 H691 0.950 . S
C721 C716 1.363 . S
C721 C720 1.415 . S
H722 C719 0.999 . S
H723 C704 0.913 1_556 S
H724 C742 0.951 . S
H725 C744 0.951 . S
H726 C746 0.950 . S
H727 C747 0.950 . S
H728 C749 0.950 . S
H729 C752 0.950 . S
H730 C753 0.950 . S
H731 C755 0.950 . S
H732 C756 0.950 . S
H733 C757 0.951 . S
H734 C759 0.951 . S
H735 C761 0.950 . S
H736 C762 0.950 . S
H737 C764 0.950 . S
H738 C767 0.950 . S
H739 C768 0.950 . S
H740 C770 0.950 . S
H741 C771 0.950 . S
C742 H724 0.951 . S
C742 C743 1.366 . S
C742 C744 1.388 . S
C743 C742 1.366 . S
C743 C747 1.385 . S
C744 H725 0.951 . S
C744 C742 1.388 . S
C744 C745 1.366 . S
C745 C744 1.366 . S
C745 C746 1.414 . S
C745 C748 1.499 . S
C746 H726 0.950 . S
C746 C745 1.414 . S
C746 C747 1.374 . S
C747 H727 0.950 . S
C747 C743 1.385 . S
C747 C746 1.374 . S
C748 C745 1.499 . S
C748 C749 1.373 . S
C748 C750 1.389 . S
C749 H728 0.950 . S
C749 C748 1.373 . S
C749 C765 1.377 . S
C750 C748 1.389 . S
C750 C751 1.524 . S
C750 C764 1.377 . S
C751 C750 1.524 . S
C751 C752 1.397 . S
C751 C756 1.363 . S
C752 H729 0.950 . S
C752 C751 1.397 . S
C752 C753 1.334 1_455 S
C753 H730 0.950 . S
C753 C752 1.334 1_655 S
C753 C754 1.287 . S
C754 C753 1.287 . S
C754 C755 1.524 1_655 S
C754 H773 0.913 . S
C755 H731 0.950 . S
C755 C754 1.524 1_455 S
C755 C756 1.415 . S
C756 H732 0.950 . S
C756 C751 1.363 . S
C756 C755 1.415 . S
C757 H733 0.951 . S
C757 C758 1.366 . S
C757 C759 1.388 1_565 S
C758 C757 1.366 . S
C758 C762 1.385 . S
C759 H734 0.951 . S
C759 C757 1.388 1_545 S
C759 C760 1.366 . S
C760 C759 1.366 . S
C760 C761 1.414 1_545 S
C760 C763 1.499 . S
C761 H735 0.950 . S
C761 C760 1.414 1_565 S
C761 C762 1.374 . S
C762 H736 0.950 . S
C762 C758 1.385 . S
C762 C761 1.374 . S
C763 C760 1.499 . S
C763 C764 1.373 . S
C763 C765 1.389 . S
C764 H737 0.950 . S
C764 C750 1.377 . S
C764 C763 1.373 . S
C765 C749 1.377 . S
C765 C763 1.389 . S
C765 C766 1.524 . S
C766 C765 1.524 . S
C766 C767 1.397 . S
C766 C771 1.363 . S
C767 H738 0.950 . S
C767 C766 1.397 . S
C767 C768 1.334 . S
C768 H739 0.950 . S
C768 C767 1.334 . S
C768 C769 1.287 . S
C769 C768 1.287 . S
C769 C770 1.524 . S
C769 H772 0.999 . S
C770 H740 0.950 . S
C770 C769 1.524 . S
C770 C771 1.415 . S
C771 H741 0.950 . S
C771 C766 1.363 . S
C771 C770 1.415 . S
H772 C769 0.999 . S
H773 C754 0.913 . S
H774 C792 0.951 . S
H775 C794 0.951 . S
H776 C796 0.950 . S
H777 C797 0.950 . S
H778 C799 0.950 . S
H779 C802 0.950 . S
H780 C803 0.950 . S
H781 C805 0.950 . S
H782 C806 0.950 . S
H783 C807 0.951 . S
H784 C809 0.951 . S
H785 C811 0.950 . S
H786 C812 0.950 . S
H787 C814 0.950 . S
H788 C817 0.950 . S
H789 C818 0.950 . S
H790 C820 0.950 . S
H791 C821 0.950 . S
C792 H774 0.951 . S
C792 C793 1.366 . S
C792 C794 1.388 . S
C793 C792 1.366 . S
C793 C797 1.385 . S
C794 H775 0.951 . S
C794 C792 1.388 . S
C794 C795 1.366 . S
C795 C794 1.366 . S
C795 C796 1.414 . S
C795 C798 1.499 . S
C796 H776 0.950 . S
C796 C795 1.414 . S
C796 C797 1.374 . S
C797 H777 0.950 . S
C797 C793 1.385 . S
C797 C796 1.374 . S
C798 C795 1.499 . S
C798 C799 1.373 . S
C798 C800 1.389 . S
C799 H778 0.950 . S
C799 C798 1.373 . S
C799 C815 1.377 . S
C800 C798 1.389 . S
C800 C801 1.524 . S
C800 C814 1.377 . S
C801 C800 1.524 . S
C801 C802 1.397 . S
C801 C806 1.363 . S
C802 H779 0.950 . S
C802 C801 1.397 . S
C802 C803 1.334 . S
C803 H780 0.950 . S
C803 C802 1.334 . S
C803 C804 1.287 . S
C804 C803 1.287 . S
C804 C805 1.524 . S
C804 H823 0.913 . S
C805 H781 0.950 . S
C805 C804 1.524 . S
C805 C806 1.415 . S
C806 H782 0.950 . S
C806 C801 1.363 . S
C806 C805 1.415 . S
C807 H783 0.951 . S
C807 C808 1.366 . S
C807 C809 1.388 . S
C808 C807 1.366 . S
C808 C812 1.385 . S
C809 H784 0.951 . S
C809 C807 1.388 . S
C809 C810 1.366 . S
C810 C809 1.366 . S
C810 C811 1.414 . S
C810 C813 1.499 . S
C811 H785 0.950 . S
C811 C810 1.414 . S
C811 C812 1.374 . S
C812 H786 0.950 . S
C812 C808 1.385 . S
C812 C811 1.374 . S
C813 C810 1.499 . S
C813 C814 1.373 . S
C813 C815 1.389 . S
C814 H787 0.950 . S
C814 C800 1.377 . S
C814 C813 1.373 . S
C815 C799 1.377 . S
C815 C813 1.389 . S
C815 C816 1.524 . S
C816 C815 1.524 . S
C816 C817 1.397 . S
C816 C821 1.363 . S
C817 H788 0.950 . S
C817 C816 1.397 . S
C817 C818 1.334 . S
C818 H789 0.950 . S
C818 C817 1.334 . S
C818 C819 1.287 . S
C819 C818 1.287 . S
C819 C820 1.524 . S
C819 H822 0.999 . S
C820 H790 0.950 . S
C820 C819 1.524 . S
C820 C821 1.415 . S
C821 H791 0.950 . S
C821 C816 1.363 . S
C821 C820 1.415 . S
H822 C819 0.999 . S
H823 C804 0.913 . S
H824 C842 0.951 . S
H825 C844 0.951 . S
H826 C846 0.950 . S
H827 C847 0.950 . S
H828 C849 0.950 . S
H829 C852 0.950 . S
H830 C853 0.950 . S
H831 C855 0.950 . S
H832 C856 0.950 . S
H833 C857 0.951 . S
H834 C859 0.951 . S
H835 C861 0.950 . S
H836 C862 0.950 . S
H837 C864 0.950 . S
H838 C867 0.950 . S
H839 C868 0.950 . S
H840 C870 0.950 . S
H841 C871 0.950 . S
C842 H824 0.951 . S
C842 C843 1.366 . S
C842 C844 1.388 . S
C843 C842 1.366 . S
C843 C847 1.385 . S
C844 H825 0.951 . S
C844 C842 1.388 . S
C844 C845 1.366 . S
C845 C844 1.366 . S
C845 C846 1.414 . S
C845 C848 1.499 . S
C846 H826 0.950 . S
C846 C845 1.414 . S
C846 C847 1.374 . S
C847 H827 0.950 . S
C847 C843 1.385 . S
C847 C846 1.374 . S
C848 C845 1.499 . S
C848 C849 1.373 . S
C848 C850 1.389 . S
C849 H828 0.950 . S
C849 C848 1.373 . S
C849 C865 1.377 . S
C850 C848 1.389 . S
C850 C851 1.524 . S
C850 C864 1.377 . S
C851 C850 1.524 . S
C851 C852 1.397 . S
C851 C856 1.363 . S
C852 H829 0.950 . S
C852 C851 1.397 . S
C852 C853 1.334 1_655 S
C853 H830 0.950 . S
C853 C852 1.334 1_455 S
C853 C854 1.287 . S
C854 C853 1.287 . S
C854 C855 1.524 . S
C854 H873 0.913 . S
C855 H831 0.950 . S
C855 C854 1.524 . S
C855 C856 1.415 1_455 S
C856 H832 0.950 . S
C856 C851 1.363 . S
C856 C855 1.415 1_655 S
C857 H833 0.951 . S
C857 C858 1.366 . S
C857 C859 1.388 . S
C858 C857 1.366 . S
C858 C862 1.385 . S
C859 H834 0.951 . S
C859 C857 1.388 . S
C859 C860 1.366 1_545 S
C860 C859 1.366 1_565 S
C860 C861 1.414 . S
C860 C863 1.499 . S
C861 H835 0.950 . S
C861 C860 1.414 . S
C861 C862 1.374 1_565 S
C862 H836 0.950 . S
C862 C858 1.385 . S
C862 C861 1.374 1_545 S
C863 C860 1.499 . S
C863 C864 1.373 . S
C863 C865 1.389 . S
C864 H837 0.950 . S
C864 C850 1.377 . S
C864 C863 1.373 . S
C865 C849 1.377 . S
C865 C863 1.389 . S
C865 C866 1.524 . S
C866 C865 1.524 . S
C866 C867 1.397 . S
C866 C871 1.363 . S
C867 H838 0.950 . S
C867 C866 1.397 . S
C867 C868 1.334 . S
C868 H839 0.950 . S
C868 C867 1.334 . S
C868 C869 1.287 . S
C869 C868 1.287 . S
C869 C870 1.524 . S
C869 H872 1.001 . S
C870 H840 0.950 . S
C870 C869 1.524 . S
C870 C871 1.415 . S
C871 H841 0.950 . S
C871 C866 1.363 . S
C871 C870 1.415 . S
H872 C869 1.001 . S
H873 C854 0.913 . S
H874 C892 0.951 . S
H875 C894 0.951 . S
H876 C896 0.950 . S
H877 C897 0.950 . S
H878 C899 0.950 . S
H879 C902 0.950 . S
H880 C903 0.950 . S
H881 C905 0.950 . S
H882 C906 0.950 . S
H883 C907 0.951 . S
H884 C909 0.951 . S
H885 C911 0.950 . S
H886 C912 0.950 . S
H887 C914 0.950 . S
H888 C917 0.950 . S
H889 C918 0.950 . S
H890 C920 0.950 . S
H891 C921 0.950 . S
C892 H874 0.951 . S
C892 C893 1.366 . S
C892 C894 1.388 . S
C893 C892 1.366 . S
C893 C897 1.385 . S
C894 H875 0.951 . S
C894 C892 1.388 . S
C894 C895 1.366 . S
C895 C894 1.366 . S
C895 C896 1.414 . S
C895 C898 1.499 . S
C896 H876 0.950 . S
C896 C895 1.414 . S
C896 C897 1.374 . S
C897 H877 0.950 . S
C897 C893 1.385 . S
C897 C896 1.374 . S
C898 C895 1.499 . S
C898 C899 1.373 . S
C898 C900 1.389 . S
C899 H878 0.950 . S
C899 C898 1.373 . S
C899 C915 1.377 . S
C900 C898 1.389 . S
C900 C901 1.524 . S
C900 C914 1.377 . S
C901 C900 1.524 . S
C901 C902 1.397 . S
C901 C906 1.363 . S
C902 H879 0.950 . S
C902 C901 1.397 . S
C902 C903 1.334 . S
C903 H880 0.950 . S
C903 C902 1.334 . S
C903 C904 1.287 . S
C904 C903 1.287 . S
C904 C905 1.524 . S
C904 H923 0.913 . S
C905 H881 0.950 . S
C905 C904 1.524 . S
C905 C906 1.415 . S
C906 H882 0.950 . S
C906 C901 1.363 . S
C906 C905 1.415 . S
C907 H883 0.951 . S
C907 C908 1.366 . S
C907 C909 1.388 . S
C908 C907 1.366 . S
C908 C912 1.385 . S
C909 H884 0.951 . S
C909 C907 1.388 . S
C909 C910 1.366 . S
C910 C909 1.366 . S
C910 C911 1.414 . S
C910 C913 1.499 . S
C911 H885 0.950 . S
C911 C910 1.414 . S
C911 C912 1.374 . S
C912 H886 0.950 . S
C912 C908 1.385 . S
C912 C911 1.374 . S
C913 C910 1.499 . S
C913 C914 1.373 . S
C913 C915 1.389 . S
C914 H887 0.950 . S
C914 C900 1.377 . S
C914 C913 1.373 . S
C915 C899 1.377 . S
C915 C913 1.389 . S
C915 C916 1.524 . S
C916 C915 1.524 . S
C916 C917 1.397 . S
C916 C921 1.363 . S
C917 H888 0.950 . S
C917 C916 1.397 . S
C917 C918 1.334 . S
C918 H889 0.950 . S
C918 C917 1.334 . S
C918 C919 1.287 . S
C919 C918 1.287 . S
C919 C920 1.524 . S
C919 H922 0.999 . S
C920 H890 0.950 . S
C920 C919 1.524 . S
C920 C921 1.415 . S
C921 H891 0.950 . S
C921 C916 1.363 . S
C921 C920 1.415 . S
H922 C919 0.999 . S
H923 C904 0.913 . S
C143 C63 0.829 . S
C158 C27 0.829 . S
C193 C93 0.843 . S
C208 C55 0.843 . S
C243 C62 0.544 . S
C258 C24 0.544 . S
C293 C94 0.534 . S
C308 C58 0.534 . S
C343 C1 1.726 . S
C358 C103 1.624 . S
C393 C64 1.994 . S
C408 C31 1.873 . S
C443 C33 1.624 . S
C458 C89 1.726 . S
C493 C117 1.874 . S
C508 C10 1.994 . S
C543 C18 1.697 . S
C558 C11 1.697 . S
C593 C42 1.696 . S
C608 C49 1.696 1_655 S
C643 C73 1.697 . S
C658 C80 1.697 . S
C693 C104 1.696 1_455 S
C708 C111 1.696 . S
C743 C0 1.915 . S
C758 C41 1.997 . S
C793 C2 1.528 . S
C808 C32 1.639 . S
C843 C86 1.915 . S
C858 C95 1.997 . S
C893 C120 1.639 . S
C908 C72 1.528 . S
