# Generated by pormake.
# Topology uod, (4)-cn, num edge types: 1
# Building blocks:
#     Node 0, Type 0, BuildingBlock: GALJAG_clean_sbu_0, # of connection points: 4
#     Node 1, Type 0, BuildingBlock: GALJAG_clean_sbu_0, # of connection points: 4
#     Node 2, Type 0, BuildingBlock: GALJAG_clean_sbu_0, # of connection points: 4
#     Node 3, Type 0, BuildingBlock: GALJAG_clean_sbu_0, # of connection points: 4
#     Node 4, Type 0, BuildingBlock: GALJAG_clean_sbu_0, # of connection points: 4
#     Node 5, Type 0, BuildingBlock: GALJAG_clean_sbu_0, # of connection points: 4
#     Node 6, Type 0, BuildingBlock: GALJAG_clean_sbu_0, # of connection points: 4
#     Node 7, Type 0, BuildingBlock: GALJAG_clean_sbu_0, # of connection points: 4
#     Node 8, Type 0, BuildingBlock: GALJAG_clean_sbu_0, # of connection points: 4
#     Node 9, Type 0, BuildingBlock: GALJAG_clean_sbu_0, # of connection points: 4
#     Node 10, Type 0, BuildingBlock: GALJAG_clean_sbu_0, # of connection points: 4
#     Node 11, Type 0, BuildingBlock: GALJAG_clean_sbu_0, # of connection points: 4
#     Node 12, Type 0, BuildingBlock: GALJAG_clean_sbu_0, # of connection points: 4
#     Node 13, Type 0, BuildingBlock: GALJAG_clean_sbu_0, # of connection points: 4
#     Node 14, Type 0, BuildingBlock: GALJAG_clean_sbu_0, # of connection points: 4
#     Node 15, Type 0, BuildingBlock: GALJAG_clean_sbu_0, # of connection points: 4
#     Node 16, Type 0, BuildingBlock: GALJAG_clean_sbu_0, # of connection points: 4
#     Node 17, Type 0, BuildingBlock: GALJAG_clean_sbu_0, # of connection points: 4
#     Node 18, Type 0, BuildingBlock: GALJAG_clean_sbu_0, # of connection points: 4
#     Node 19, Type 0, BuildingBlock: GALJAG_clean_sbu_0, # of connection points: 4
#     Node 20, Type 0, BuildingBlock: GALJAG_clean_sbu_0, # of connection points: 4
#     Node 21, Type 0, BuildingBlock: GALJAG_clean_sbu_0, # of connection points: 4
#     Node 22, Type 0, BuildingBlock: GALJAG_clean_sbu_0, # of connection points: 4
#     Node 23, Type 0, BuildingBlock: GALJAG_clean_sbu_0, # of connection points: 4
#     Node 24, Type 0, BuildingBlock: GALJAG_clean_sbu_0, # of connection points: 4
#     Node 25, Type 0, BuildingBlock: GALJAG_clean_sbu_0, # of connection points: 4
#     Node 26, Type 0, BuildingBlock: GALJAG_clean_sbu_0, # of connection points: 4
#     Node 27, Type 0, BuildingBlock: GALJAG_clean_sbu_0, # of connection points: 4
#     Node 28, Type 0, BuildingBlock: GALJAG_clean_sbu_0, # of connection points: 4
#     Node 29, Type 0, BuildingBlock: GALJAG_clean_sbu_0, # of connection points: 4
#     Node 30, Type 0, BuildingBlock: GALJAG_clean_sbu_0, # of connection points: 4
#     Node 31, Type 0, BuildingBlock: GALJAG_clean_sbu_0, # of connection points: 4
#     Edge 32, Type (0, 0), BuildingBlock: TEMPAE_clean_linker_10, # of connection points: 2
#     Edge 33, Type (0, 0), BuildingBlock: TEMPAE_clean_linker_10, # of connection points: 2
#     Edge 34, Type (0, 0), BuildingBlock: TEMPAE_clean_linker_10, # of connection points: 2
#     Edge 35, Type (0, 0), BuildingBlock: TEMPAE_clean_linker_10, # of connection points: 2
#     Edge 36, Type (0, 0), BuildingBlock: TEMPAE_clean_linker_10, # of connection points: 2
#     Edge 37, Type (0, 0), BuildingBlock: TEMPAE_clean_linker_10, # of connection points: 2
#     Edge 38, Type (0, 0), BuildingBlock: TEMPAE_clean_linker_10, # of connection points: 2
#     Edge 39, Type (0, 0), BuildingBlock: TEMPAE_clean_linker_10, # of connection points: 2
#     Edge 40, Type (0, 0), BuildingBlock: TEMPAE_clean_linker_10, # of connection points: 2
#     Edge 41, Type (0, 0), BuildingBlock: TEMPAE_clean_linker_10, # of connection points: 2
#     Edge 42, Type (0, 0), BuildingBlock: TEMPAE_clean_linker_10, # of connection points: 2
#     Edge 43, Type (0, 0), BuildingBlock: TEMPAE_clean_linker_10, # of connection points: 2
#     Edge 44, Type (0, 0), BuildingBlock: TEMPAE_clean_linker_10, # of connection points: 2
#     Edge 45, Type (0, 0), BuildingBlock: TEMPAE_clean_linker_10, # of connection points: 2
#     Edge 46, Type (0, 0), BuildingBlock: TEMPAE_clean_linker_10, # of connection points: 2
#     Edge 47, Type (0, 0), BuildingBlock: TEMPAE_clean_linker_10, # of connection points: 2
#     Edge 48, Type (0, 0), BuildingBlock: TEMPAE_clean_linker_10, # of connection points: 2
#     Edge 49, Type (0, 0), BuildingBlock: TEMPAE_clean_linker_10, # of connection points: 2
#     Edge 50, Type (0, 0), BuildingBlock: TEMPAE_clean_linker_10, # of connection points: 2
#     Edge 51, Type (0, 0), BuildingBlock: TEMPAE_clean_linker_10, # of connection points: 2
#     Edge 52, Type (0, 0), BuildingBlock: TEMPAE_clean_linker_10, # of connection points: 2
#     Edge 53, Type (0, 0), BuildingBlock: TEMPAE_clean_linker_10, # of connection points: 2
#     Edge 54, Type (0, 0), BuildingBlock: TEMPAE_clean_linker_10, # of connection points: 2
#     Edge 55, Type (0, 0), BuildingBlock: TEMPAE_clean_linker_10, # of connection points: 2
#     Edge 56, Type (0, 0), BuildingBlock: TEMPAE_clean_linker_10, # of connection points: 2
#     Edge 57, Type (0, 0), BuildingBlock: TEMPAE_clean_linker_10, # of connection points: 2
#     Edge 58, Type (0, 0), BuildingBlock: TEMPAE_clean_linker_10, # of connection points: 2
#     Edge 59, Type (0, 0), BuildingBlock: TEMPAE_clean_linker_10, # of connection points: 2
#     Edge 60, Type (0, 0), BuildingBlock: TEMPAE_clean_linker_10, # of connection points: 2
#     Edge 61, Type (0, 0), BuildingBlock: TEMPAE_clean_linker_10, # of connection points: 2
#     Edge 62, Type (0, 0), BuildingBlock: TEMPAE_clean_linker_10, # of connection points: 2
#     Edge 63, Type (0, 0), BuildingBlock: TEMPAE_clean_linker_10, # of connection points: 2
#     Edge 64, Type (0, 0), BuildingBlock: TEMPAE_clean_linker_10, # of connection points: 2
#     Edge 65, Type (0, 0), BuildingBlock: TEMPAE_clean_linker_10, # of connection points: 2
#     Edge 66, Type (0, 0), BuildingBlock: TEMPAE_clean_linker_10, # of connection points: 2
#     Edge 67, Type (0, 0), BuildingBlock: TEMPAE_clean_linker_10, # of connection points: 2
#     Edge 68, Type (0, 0), BuildingBlock: TEMPAE_clean_linker_10, # of connection points: 2
#     Edge 69, Type (0, 0), BuildingBlock: TEMPAE_clean_linker_10, # of connection points: 2
#     Edge 70, Type (0, 0), BuildingBlock: TEMPAE_clean_linker_10, # of connection points: 2
#     Edge 71, Type (0, 0), BuildingBlock: TEMPAE_clean_linker_10, # of connection points: 2
#     Edge 72, Type (0, 0), BuildingBlock: TEMPAE_clean_linker_10, # of connection points: 2
#     Edge 73, Type (0, 0), BuildingBlock: TEMPAE_clean_linker_10, # of connection points: 2
#     Edge 74, Type (0, 0), BuildingBlock: TEMPAE_clean_linker_10, # of connection points: 2
#     Edge 75, Type (0, 0), BuildingBlock: TEMPAE_clean_linker_10, # of connection points: 2
#     Edge 76, Type (0, 0), BuildingBlock: TEMPAE_clean_linker_10, # of connection points: 2
#     Edge 77, Type (0, 0), BuildingBlock: TEMPAE_clean_linker_10, # of connection points: 2
#     Edge 78, Type (0, 0), BuildingBlock: TEMPAE_clean_linker_10, # of connection points: 2
#     Edge 79, Type (0, 0), BuildingBlock: TEMPAE_clean_linker_10, # of connection points: 2
#     Edge 80, Type (0, 0), BuildingBlock: TEMPAE_clean_linker_10, # of connection points: 2
#     Edge 81, Type (0, 0), BuildingBlock: TEMPAE_clean_linker_10, # of connection points: 2
#     Edge 82, Type (0, 0), BuildingBlock: TEMPAE_clean_linker_10, # of connection points: 2
#     Edge 83, Type (0, 0), BuildingBlock: TEMPAE_clean_linker_10, # of connection points: 2
#     Edge 84, Type (0, 0), BuildingBlock: TEMPAE_clean_linker_10, # of connection points: 2
#     Edge 85, Type (0, 0), BuildingBlock: TEMPAE_clean_linker_10, # of connection points: 2
#     Edge 86, Type (0, 0), BuildingBlock: TEMPAE_clean_linker_10, # of connection points: 2
#     Edge 87, Type (0, 0), BuildingBlock: TEMPAE_clean_linker_10, # of connection points: 2
#     Edge 88, Type (0, 0), BuildingBlock: TEMPAE_clean_linker_10, # of connection points: 2
#     Edge 89, Type (0, 0), BuildingBlock: TEMPAE_clean_linker_10, # of connection points: 2
#     Edge 90, Type (0, 0), BuildingBlock: TEMPAE_clean_linker_10, # of connection points: 2
#     Edge 91, Type (0, 0), BuildingBlock: TEMPAE_clean_linker_10, # of connection points: 2
#     Edge 92, Type (0, 0), BuildingBlock: TEMPAE_clean_linker_10, # of connection points: 2
#     Edge 93, Type (0, 0), BuildingBlock: TEMPAE_clean_linker_10, # of connection points: 2
#     Edge 94, Type (0, 0), BuildingBlock: TEMPAE_clean_linker_10, # of connection points: 2
#     Edge 95, Type (0, 0), BuildingBlock: TEMPAE_clean_linker_10, # of connection points: 2
# Relax obj value: 0.120
# Max RMSD: 0.152
# Mean RMSD: 0.152
data_MOF--net-uod--node1-GALJAG_clean_sbu_0--edge1-TEMPAE_clean_linker_10
_symmetry_space_group_name_H-M    P1
_symmetry_Int_Tables_number       1
_symmetry_cell_setting            triclinic
loop_
_symmetry_equiv_pos_as_xyz
'x, y, z'
_cell_length_a     96.982928
_cell_length_b     28.119797
_cell_length_c     53.078065
_cell_angle_alpha  89.984272
_cell_angle_beta   90.008986
_cell_angle_gamma 90.008256
loop_
_atom_site_label
_atom_site_type_symbol
_atom_site_fract_x
_atom_site_fract_y
_atom_site_fract_z
_atom_type_partial_charge
In0 In 0.03957 0.38507 0.09709 0.0
O1 O 0.0337 0.39007 0.05547 0.0
O2 O 0.01795 0.37536 0.08257 0.0
C3 C 0.06682 0.3969 0.10456 0.0
C4 C 0.03093 0.47181 0.10871 0.0
C5 C 0.03775 0.29621 0.11447 0.0
O6 O 0.06208 0.38307 0.08351 0.0
O7 O 0.05783 0.40558 0.12112 0.0
O8 O 0.03283 0.33093 0.12679 0.0
O9 O 0.04312 0.30679 0.09352 0.0
C10 C 0.02092 0.38452 0.05988 0.0
O11 O 0.0301 0.43828 0.12469 0.0
O12 O 0.03658 0.46165 0.08798 0.0
In13 In 0.2105 0.89409 0.07744 0.0
O14 O 0.21775 0.85311 0.11223 0.0
O15 O 0.20431 0.81944 0.08564 0.0
C16 C 0.2166 0.98577 0.08406 0.0
C17 C 0.23003 0.86373 0.04521 0.0
C18 C 0.18297 0.90265 0.08156 0.0
O19 O 0.21915 0.95456 0.10062 0.0
O20 O 0.21138 0.97024 0.0638 0.0
O21 O 0.18853 0.88735 0.06145 0.0
O22 O 0.19131 0.91463 0.09871 0.0
C23 C 0.21108 0.81628 0.10585 0.0
O24 O 0.21771 0.87056 0.03795 0.0
O25 O 0.23233 0.87443 0.06789 0.0
In26 In 0.05785 0.86369 0.15536 0.0
O27 O 0.05845 0.79569 0.17904 0.0
O28 O 0.04907 0.85649 0.19513 0.0
C29 C 0.08421 0.87295 0.1391 0.0
C30 C 0.04283 0.80773 0.12488 0.0
C31 C 0.0494 0.95449 0.15771 0.0
O32 O 0.08132 0.85563 0.16047 0.0
O33 O 0.07389 0.8856 0.12631 0.0
O34 O 0.04456 0.92499 0.14212 0.0
O35 O 0.05856 0.93813 0.17229 0.0
C36 C 0.05146 0.81253 0.19695 0.0
O37 O 0.03738 0.8356 0.14058 0.0
O38 O 0.05576 0.81124 0.12318 0.0
In39 In 0.19387 0.39584 0.1701 0.0
O40 O 0.19574 0.41254 0.21216 0.0
O41 O 0.21305 0.38257 0.19341 0.0
C42 C 0.16682 0.398 0.15799 0.0
C43 C 0.20255 0.48324 0.15915 0.0
C44 C 0.20118 0.31316 0.14927 0.0
O45 O 0.17103 0.38022 0.17855 0.0
O46 O 0.17619 0.41465 0.14407 0.0
O47 O 0.20528 0.35264 0.14057 0.0
O48 O 0.19349 0.31571 0.16847 0.0
C49 C 0.20839 0.40162 0.21314 0.0
O50 O 0.20558 0.44828 0.14512 0.0
O51 O 0.19464 0.47396 0.17734 0.0
In52 In 0.95036 0.60123 0.90148 0.0
O53 O 0.94855 0.53824 0.92845 0.0
O54 O 0.95985 0.59836 0.94088 0.0
C55 C 0.92324 0.59622 0.8896 0.0
C56 C 0.96816 0.54514 0.8767 0.0
C57 C 0.95599 0.6941 0.89373 0.0
O58 O 0.92748 0.61211 0.91045 0.0
O59 O 0.93263 0.58217 0.87494 0.0
O60 O 0.95981 0.66206 0.87866 0.0
O61 O 0.94951 0.67928 0.91274 0.0
C62 C 0.9562 0.55605 0.94518 0.0
O63 O 0.97187 0.57237 0.89434 0.0
O64 O 0.9557 0.5497 0.87007 0.0
In65 In 0.80144 0.15927 0.887 0.0
O66 O 0.80022 0.22025 0.91522 0.0
O67 O 0.78975 0.1562 0.92423 0.0
C68 C 0.82892 0.16069 0.87816 0.0
C69 C 0.78656 0.22009 0.85872 0.0
C70 C 0.79594 0.06573 0.88304 0.0
O71 O 0.8238 0.17301 0.89906 0.0
O72 O 0.82021 0.14816 0.86179 0.0
O73 O 0.79174 0.09572 0.86704 0.0
O74 O 0.80278 0.08307 0.90107 0.0
C75 C 0.79203 0.19908 0.92988 0.0
O76 O 0.78108 0.18841 0.87219 0.0
O77 O 0.79953 0.21738 0.8573 0.0
In78 In 0.95953 0.13687 0.84762 0.0
O79 O 0.96345 0.16052 0.80658 0.0
O80 O 0.98055 0.14508 0.83028 0.0
C81 C 0.93189 0.1418 0.85126 0.0
C82 C 0.96777 0.21165 0.87525 0.0
C83 C 0.96259 0.04324 0.85563 0.0
O84 O 0.93823 0.1541 0.83139 0.0
O85 O 0.93951 0.12725 0.869 0.0
O86 O 0.96543 0.07382 0.87231 0.0
O87 O 0.95844 0.06004 0.8349 0.0
C88 C 0.97644 0.15999 0.80925 0.0
O89 O 0.97459 0.17349 0.87459 0.0
O90 O 0.95644 0.21046 0.8637 0.0
In91 In 0.79502 0.62152 0.8369 0.0
O92 O 0.79414 0.56722 0.80503 0.0
O93 O 0.78187 0.62938 0.80145 0.0
C94 C 0.82236 0.60789 0.84377 0.0
C95 C 0.77993 0.55719 0.86234 0.0
C96 C 0.79209 0.71482 0.84793 0.0
O97 O 0.81743 0.62101 0.82283 0.0
O98 O 0.81353 0.60132 0.86087 0.0
O99 O 0.78692 0.68269 0.86161 0.0
O100 O 0.79841 0.69977 0.82882 0.0
C101 C 0.78498 0.58906 0.79272 0.0
O102 O 0.77458 0.58632 0.84715 0.0
O103 O 0.79253 0.5646 0.86686 0.0
In104 In 0.04801 0.87756 0.61995 0.0
O105 O 0.04615 0.91596 0.58157 0.0
O106 O 0.02803 0.89176 0.60043 0.0
C107 C 0.07513 0.87226 0.63076 0.0
C108 C 0.03803 0.94886 0.6481 0.0
C109 C 0.04234 0.78428 0.61741 0.0
O110 O 0.07083 0.88728 0.60961 0.0
O111 O 0.06577 0.86044 0.64612 0.0
O112 O 0.04155 0.8073 0.63786 0.0
O113 O 0.046 0.80828 0.59842 0.0
C114 C 0.03305 0.9146 0.58218 0.0
O115 O 0.03218 0.90867 0.64729 0.0
O116 O 0.04966 0.95039 0.63751 0.0
In117 In 0.19648 0.35292 0.56661 0.0
O118 O 0.19829 0.33039 0.52545 0.0
O119 O 0.21621 0.35686 0.54382 0.0
C120 C 0.16936 0.35544 0.57748 0.0
C121 C 0.20285 0.2656 0.58216 0.0
C122 C 0.20386 0.43788 0.58464 0.0
O123 O 0.1739 0.36816 0.55612 0.0
O124 O 0.17847 0.34215 0.59292 0.0
O125 O 0.20772 0.39945 0.59486 0.0
O126 O 0.19655 0.43317 0.56504 0.0
C127 C 0.21119 0.33695 0.52462 0.0
O128 O 0.20728 0.3019 0.59379 0.0
O129 O 0.19493 0.27406 0.56389 0.0
In130 In 0.04093 0.34112 0.63116 0.0
O131 O 0.01994 0.30563 0.62532 0.0
O132 O 0.03679 0.27896 0.60456 0.0
C133 C 0.03408 0.42971 0.61545 0.0
C134 C 0.03725 0.31128 0.67904 0.0
C135 C 0.06848 0.34092 0.6238 0.0
O136 O 0.0414 0.40203 0.60246 0.0
O137 O 0.02954 0.4118 0.63552 0.0
O138 O 0.06295 0.36334 0.64182 0.0
O139 O 0.06016 0.31794 0.61018 0.0
C140 C 0.02444 0.27314 0.61123 0.0
O141 O 0.0431 0.28619 0.66252 0.0
O142 O 0.03451 0.35312 0.67206 0.0
In143 In 0.2045 0.8525 0.67143 0.0
O144 O 0.21119 0.89697 0.63761 0.0
O145 O 0.19921 0.92941 0.66672 0.0
C146 C 0.21066 0.7627 0.65947 0.0
C147 C 0.22485 0.87687 0.70352 0.0
C148 C 0.1768 0.84559 0.66989 0.0
O149 O 0.21281 0.79709 0.64461 0.0
O150 O 0.20563 0.77382 0.68068 0.0
O151 O 0.18307 0.85733 0.68995 0.0
O152 O 0.18451 0.83631 0.65137 0.0
C153 C 0.20548 0.93415 0.64607 0.0
O154 O 0.2126 0.87038 0.71126 0.0
O155 O 0.22665 0.86847 0.68045 0.0
In156 In 0.95317 0.12506 0.4282 0.0
O157 O 0.95881 0.06337 0.45381 0.0
O158 O 0.96648 0.13122 0.46404 0.0
C159 C 0.92524 0.12547 0.42887 0.0
C160 C 0.96061 0.06299 0.39206 0.0
C161 C 0.96077 0.21536 0.41882 0.0
O162 O 0.93222 0.10564 0.44604 0.0
O163 O 0.93233 0.14611 0.41227 0.0
O164 O 0.96488 0.1808 0.4056 0.0
O165 O 0.95311 0.20417 0.43714 0.0
C166 C 0.96641 0.08708 0.46836 0.0
O167 O 0.96937 0.08482 0.40527 0.0
O168 O 0.94831 0.07536 0.39584 0.0
In169 In 0.80357 0.6348 0.38656 0.0
O170 O 0.80151 0.66198 0.42758 0.0
O171 O 0.78354 0.64142 0.40727 0.0
C172 C 0.83048 0.6374 0.37409 0.0
C173 C 0.79286 0.70962 0.36216 0.0
C174 C 0.79972 0.54061 0.38385 0.0
O175 O 0.82622 0.65028 0.39564 0.0
O176 O 0.82118 0.62363 0.35905 0.0
O177 O 0.79592 0.5684 0.36639 0.0
O178 O 0.80543 0.56054 0.40248 0.0
C179 C 0.78844 0.65928 0.42707 0.0
O180 O 0.78733 0.66895 0.36107 0.0
O181 O 0.80443 0.71064 0.37299 0.0
In182 In 0.96009 0.63379 0.33131 0.0
O183 O 0.96585 0.69032 0.36048 0.0
O184 O 0.96021 0.71187 0.3232 0.0
C185 C 0.96445 0.54664 0.3497 0.0
C186 C 0.98104 0.63771 0.29832 0.0
C187 C 0.93237 0.63287 0.33462 0.0
O188 O 0.96779 0.58373 0.36185 0.0
O189 O 0.95922 0.55388 0.32817 0.0
O190 O 0.9384 0.63409 0.31339 0.0
O191 O 0.94028 0.63245 0.3535 0.0
C192 C 0.96433 0.72397 0.3448 0.0
O193 O 0.96857 0.63676 0.29091 0.0
O194 O 0.98265 0.63342 0.32183 0.0
In195 In 0.79765 0.08882 0.37419 0.0
O196 O 0.79815 0.03261 0.34274 0.0
O197 O 0.78479 0.09179 0.33846 0.0
C198 C 0.82427 0.08687 0.38884 0.0
C199 C 0.78213 0.0276 0.40116 0.0
C200 C 0.79471 0.18377 0.37437 0.0
O201 O 0.82055 0.07404 0.36699 0.0
O202 O 0.81455 0.09958 0.40318 0.0
O203 O 0.78888 0.15764 0.39063 0.0
O204 O 0.80171 0.16176 0.35806 0.0
C205 C 0.7887 0.05216 0.33001 0.0
O206 O 0.77698 0.06228 0.38939 0.0
O207 O 0.79512 0.02786 0.40187 0.0
In208 In 0.54568 0.38889 0.58841 0.0
O209 O 0.53631 0.38138 0.54911 0.0
O210 O 0.52289 0.38839 0.58098 0.0
C211 C 0.57346 0.39185 0.58916 0.0
C212 C 0.54095 0.48162 0.59111 0.0
C213 C 0.54169 0.30959 0.61494 0.0
O214 O 0.56701 0.37201 0.57116 0.0
O215 O 0.56591 0.40947 0.6061 0.0
O216 O 0.5419 0.34994 0.62558 0.0
O217 O 0.54337 0.30978 0.59134 0.0
C218 C 0.52404 0.38604 0.55726 0.0
O219 O 0.53897 0.45486 0.6101 0.0
O220 O 0.54577 0.46152 0.57171 0.0
In221 In 0.71817 0.86562 0.59547 0.0
O222 O 0.71802 0.80618 0.56591 0.0
O223 O 0.73027 0.8673 0.55878 0.0
C224 C 0.69116 0.85572 0.6067 0.0
C225 C 0.73421 0.80666 0.62255 0.0
C226 C 0.72072 0.96068 0.60005 0.0
O227 O 0.7006 0.85114 0.62285 0.0
O228 O 0.6953 0.86392 0.58453 0.0
O229 O 0.72635 0.93253 0.6155 0.0
O230 O 0.71428 0.94071 0.58241 0.0
C231 C 0.7268 0.82612 0.55186 0.0
O232 O 0.73906 0.83391 0.60586 0.0
O233 O 0.72168 0.81391 0.62761 0.0
In234 In 0.56271 0.87698 0.65203 0.0
O235 O 0.5573 0.83557 0.68846 0.0
O236 O 0.54161 0.84877 0.66122 0.0
C237 C 0.59043 0.87274 0.65049 0.0
C238 C 0.557 0.81547 0.61525 0.0
C239 C 0.55737 0.97093 0.65204 0.0
O240 O 0.58405 0.87152 0.67134 0.0
O241 O 0.58291 0.87734 0.6313 0.0
O242 O 0.55956 0.94759 0.63216 0.0
O243 O 0.55777 0.94692 0.6721 0.0
C244 C 0.54493 0.82882 0.68155 0.0
O245 O 0.55041 0.85415 0.61733 0.0
O246 O 0.56663 0.80955 0.63093 0.0
In247 In 0.70308 0.40386 0.63462 0.0
O248 O 0.7055 0.43404 0.67498 0.0
O249 O 0.72286 0.40389 0.6564 0.0
C250 C 0.67581 0.40403 0.6244 0.0
C251 C 0.71378 0.48064 0.61221 0.0
C252 C 0.70818 0.31154 0.62643 0.0
O253 O 0.68041 0.40029 0.64667 0.0
O254 O 0.68495 0.40856 0.60757 0.0
O255 O 0.71118 0.34317 0.61037 0.0
O256 O 0.70248 0.32661 0.64627 0.0
C257 C 0.71838 0.42624 0.67522 0.0
O258 O 0.71876 0.43959 0.60884 0.0
O259 O 0.70276 0.48198 0.62485 0.0
In260 In 0.45532 0.58551 0.39394 0.0
O261 O 0.45155 0.5293 0.42453 0.0
O262 O 0.46405 0.58866 0.43367 0.0
C263 C 0.42989 0.59044 0.3731 0.0
C264 C 0.47176 0.51953 0.37264 0.0
C265 C 0.46205 0.67816 0.39157 0.0
O266 O 0.43174 0.58073 0.39613 0.0
O267 O 0.44083 0.59687 0.36067 0.0
O268 O 0.46756 0.64743 0.37738 0.0
O269 O 0.4533 0.66192 0.40694 0.0
C270 C 0.45944 0.54873 0.44041 0.0
O271 O 0.4765 0.55419 0.38495 0.0
O272 O 0.45892 0.52111 0.369 0.0
In273 In 0.3088 0.13285 0.41673 0.0
O274 O 0.30574 0.19635 0.39124 0.0
O275 O 0.31193 0.20762 0.42971 0.0
C276 C 0.30419 0.05036 0.39363 0.0
C277 C 0.2854 0.14398 0.44265 0.0
C278 C 0.33632 0.1288 0.41717 0.0
O279 O 0.30234 0.08981 0.38254 0.0
O280 O 0.30824 0.05293 0.41627 0.0
O281 O 0.32937 0.11534 0.43624 0.0
O282 O 0.32935 0.14298 0.3985 0.0
C283 C 0.30867 0.22568 0.40869 0.0
O284 O 0.29679 0.13714 0.45405 0.0
O285 O 0.28598 0.14084 0.41894 0.0
In286 In 0.4645 0.12526 0.36384 0.0
O287 O 0.46231 0.18478 0.33455 0.0
O288 O 0.47616 0.12833 0.32665 0.0
C289 C 0.43766 0.12665 0.37741 0.0
C290 C 0.48019 0.18761 0.38944 0.0
C291 C 0.46933 0.03112 0.36782 0.0
O292 O 0.44142 0.12358 0.35464 0.0
O293 O 0.4474 0.12984 0.39309 0.0
O294 O 0.47379 0.06044 0.38392 0.0
O295 O 0.46284 0.04956 0.34973 0.0
C296 C 0.47151 0.16839 0.32014 0.0
O297 O 0.48533 0.15694 0.37485 0.0
O298 O 0.46742 0.18283 0.39318 0.0
In299 In 0.30488 0.62968 0.32193 0.0
O300 O 0.29431 0.6022 0.28556 0.0
O301 O 0.28377 0.59702 0.32062 0.0
C302 C 0.33232 0.63947 0.31654 0.0
C303 C 0.30875 0.56086 0.35565 0.0
C304 C 0.29739 0.72066 0.32719 0.0
O305 O 0.32513 0.61713 0.30041 0.0
O306 O 0.32551 0.6586 0.3341 0.0
O307 O 0.29625 0.69061 0.34479 0.0
O308 O 0.30199 0.70446 0.3066 0.0
C309 C 0.28368 0.58817 0.29738 0.0
O310 O 0.30185 0.59765 0.36116 0.0
O311 O 0.31349 0.55947 0.33355 0.0
In312 In 0.55748 0.86259 0.0921 0.0
O313 O 0.5523 0.89979 0.12897 0.0
O314 O 0.56768 0.92947 0.10462 0.0
C315 C 0.54449 0.77903 0.0931 0.0
C316 C 0.54144 0.91436 0.06115 0.0
C317 C 0.58378 0.83431 0.09798 0.0
O318 O 0.54363 0.80867 0.11096 0.0
O319 O 0.55171 0.79214 0.0745 0.0
O320 O 0.57998 0.85791 0.07876 0.0
O321 O 0.57421 0.82343 0.11307 0.0
C322 C 0.56084 0.93302 0.12477 0.0
O323 O 0.55205 0.89308 0.05277 0.0
O324 O 0.53898 0.90779 0.08417 0.0
In325 In 0.70265 0.36375 0.07875 0.0
O326 O 0.70797 0.30564 0.10667 0.0
O327 O 0.69694 0.28734 0.07309 0.0
C328 C 0.71234 0.44604 0.09537 0.0
C329 C 0.72191 0.35063 0.04323 0.0
C330 C 0.67599 0.38136 0.08862 0.0
O331 O 0.71433 0.40752 0.10725 0.0
O332 O 0.70553 0.44264 0.07507 0.0
O333 O 0.68007 0.37315 0.06628 0.0
O334 O 0.68529 0.38104 0.10526 0.0
C335 C 0.70254 0.27339 0.09327 0.0
O336 O 0.70946 0.35922 0.03716 0.0
O337 O 0.72429 0.35021 0.06659 0.0
In338 In 0.55304 0.36781 0.16994 0.0
O339 O 0.54898 0.30146 0.14695 0.0
O340 O 0.56011 0.2963 0.18196 0.0
C341 C 0.54394 0.45091 0.15373 0.0
C342 C 0.53341 0.35265 0.20418 0.0
C343 C 0.57919 0.38374 0.15651 0.0
O344 O 0.54159 0.41284 0.14154 0.0
O345 O 0.55056 0.44625 0.17421 0.0
O346 O 0.57569 0.38204 0.17962 0.0
O347 O 0.56953 0.37782 0.14077 0.0
C348 C 0.5549 0.27513 0.1632 0.0
O349 O 0.54554 0.36497 0.21079 0.0
O350 O 0.53132 0.35096 0.18066 0.0
In351 In 0.70725 0.85255 0.1741 0.0
O352 O 0.71272 0.90128 0.14144 0.0
O353 O 0.69906 0.92622 0.17033 0.0
C354 C 0.71801 0.76689 0.16675 0.0
C355 C 0.72478 0.88427 0.20939 0.0
C356 C 0.68092 0.82969 0.16405 0.0
O357 O 0.71992 0.80074 0.15136 0.0
O358 O 0.71087 0.77689 0.18602 0.0
O359 O 0.6845 0.84492 0.18565 0.0
O360 O 0.69064 0.82485 0.14842 0.0
C361 C 0.7053 0.93478 0.14994 0.0
O362 O 0.7278 0.8804 0.18637 0.0
O363 O 0.71266 0.87091 0.2152 0.0
In364 In 0.4562 0.11844 0.92099 0.0
O365 O 0.45988 0.09694 0.96216 0.0
O366 O 0.47689 0.12221 0.94071 0.0
C367 C 0.42874 0.11576 0.913 0.0
C368 C 0.46263 0.03366 0.90168 0.0
C369 C 0.46109 0.20672 0.90398 0.0
O370 O 0.43371 0.12951 0.93386 0.0
O371 O 0.43755 0.10415 0.89665 0.0
O372 O 0.46522 0.17012 0.89233 0.0
O373 O 0.45473 0.19857 0.92432 0.0
C374 C 0.47276 0.10408 0.96107 0.0
O375 O 0.46715 0.07174 0.89191 0.0
O376 O 0.45488 0.03908 0.92054 0.0
In377 In 0.30376 0.64207 0.8927 0.0
O378 O 0.30558 0.69967 0.92311 0.0
O379 O 0.29273 0.64035 0.93059 0.0
C380 C 0.33044 0.64352 0.87786 0.0
C381 C 0.28789 0.70612 0.8687 0.0
C382 C 0.29821 0.5489 0.8864 0.0
O383 O 0.32701 0.63797 0.90068 0.0
O384 O 0.32048 0.64909 0.86285 0.0
O385 O 0.29343 0.58029 0.87177 0.0
O386 O 0.30557 0.56473 0.90409 0.0
C387 C 0.29682 0.6808 0.93759 0.0
O388 O 0.28282 0.67353 0.88216 0.0
O389 O 0.30075 0.70311 0.86543 0.0
In390 In 0.45701 0.62305 0.81159 0.0
O391 O 0.46795 0.67039 0.84048 0.0
O392 O 0.45684 0.70237 0.81011 0.0
C393 C 0.46163 0.5349 0.82891 0.0
C394 C 0.4732 0.63498 0.77085 0.0
C395 C 0.42967 0.62793 0.82072 0.0
O396 O 0.46631 0.57138 0.83997 0.0
O397 O 0.4549 0.54312 0.80898 0.0
O398 O 0.43429 0.61289 0.79984 0.0
O399 O 0.43876 0.63985 0.83649 0.0
C400 C 0.4642 0.70828 0.82944 0.0
O401 O 0.46041 0.64382 0.77033 0.0
O402 O 0.47741 0.61611 0.79098 0.0
In403 In 0.30135 0.10329 0.85014 0.0
O404 O 0.30253 0.04395 0.82055 0.0
O405 O 0.28934 0.10244 0.81326 0.0
C406 C 0.32837 0.10163 0.86274 0.0
C407 C 0.28608 0.04084 0.87647 0.0
C408 C 0.29621 0.19694 0.85562 0.0
O409 O 0.32439 0.107 0.84021 0.0
O410 O 0.31879 0.09634 0.87857 0.0
O411 O 0.29173 0.16644 0.87107 0.0
O412 O 0.303 0.17999 0.83749 0.0
C413 C 0.29335 0.06173 0.80656 0.0
O414 O 0.28069 0.07196 0.86245 0.0
O415 O 0.29896 0.04484 0.87913 0.0
C416 C 0.02291 0.75195 0.126 0.0
C417 C 0.03551 0.76567 0.11518 0.0
C418 C 0.01821 0.70492 0.12391 0.0
C419 C 0.02635 0.67139 0.11077 0.0
C420 C 0.03817 0.68663 0.09731 0.0
C421 C 0.04257 0.7338 0.09959 0.0
C422 C 0.00529 0.69024 0.13769 0.0
C423 C 0.04702 0.65208 0.0827 0.0
C424 C 0.03179 0.54595 0.13363 0.0
C425 C 0.02629 0.52041 0.11348 0.0
C426 C 0.03089 0.59571 0.13405 0.0
C427 C 0.024 0.61971 0.11416 0.0
C428 C 0.01706 0.59331 0.09539 0.0
C429 C 0.01854 0.5438 0.09497 0.0
C430 C 0.03861 0.6226 0.15423 0.0
C431 C 0.00916 0.61721 0.07442 0.0
H432 H 0.01734 0.77665 0.13792 0.0
H433 H 0.0522 0.74455 0.09094 0.0
H434 H 0.99905 0.66556 0.12601 0.0
H435 H 0.00813 0.67115 0.15523 0.0
H436 H 0.99885 0.72141 0.14287 0.0
H437 H 0.0552 0.67036 0.07169 0.0
H438 H 0.05203 0.62688 0.09595 0.0
H439 H 0.0406 0.63091 0.06955 0.0
H440 H 0.03788 0.52753 0.14772 0.0
H441 H 0.01426 0.52357 0.07941 0.0
H442 H 0.03203 0.65091 0.16241 0.0
H443 H 0.04777 0.64012 0.14579 0.0
H444 H 0.04217 0.59882 0.16962 0.0
H445 H 0.00429 0.65077 0.08087 0.0
H446 H 1.00103 0.59336 0.06681 0.0
H447 H 0.01633 0.6259 0.0588 0.0
C448 C 0.19988 0.74177 0.11869 0.0
C449 C 0.21142 0.77144 0.11982 0.0
C450 C 0.2004 0.6955 0.12807 0.0
C451 C 0.21288 0.67835 0.13848 0.0
C452 C 0.22442 0.70891 0.14076 0.0
C453 C 0.22352 0.75559 0.13148 0.0
C454 C 0.18774 0.66438 0.12584 0.0
C455 C 0.23788 0.69163 0.1517 0.0
C456 C 0.20611 0.56568 0.17419 0.0
C457 C 0.20764 0.5318 0.15501 0.0
C458 C 0.20914 0.61356 0.16986 0.0
C459 C 0.21371 0.62769 0.14574 0.0
C460 C 0.21648 0.593 0.12704 0.0
C461 C 0.2134 0.54517 0.13193 0.0
C462 C 0.20624 0.64935 0.1904 0.0
C463 C 0.22158 0.60685 0.10119 0.0
H464 H 0.1905 0.75443 0.10979 0.0
H465 H 0.23247 0.77867 0.13206 0.0
H466 H 0.18988 0.63427 0.11291 0.0
H467 H 0.18504 0.64912 0.14448 0.0
H468 H 0.17866 0.68418 0.11856 0.0
H469 H 0.24504 0.72147 0.15583 0.0
H470 H 0.23611 0.67111 0.16926 0.0
H471 H 0.24295 0.66741 0.13804 0.0
H472 H 0.20201 0.55511 0.19236 0.0
H473 H 0.21481 0.51879 0.11726 0.0
H474 H 0.19632 0.66751 0.18637 0.0
H475 H 0.2144 0.67697 0.19111 0.0
H476 H 0.20546 0.63218 0.20921 0.0
H477 H 0.21305 0.62375 0.09049 0.0
H478 H 0.2253 0.5756 0.09034 0.0
H479 H 0.23006 0.63319 0.10263 0.0
C480 C 0.98634 0.27081 0.87005 0.0
C481 C 0.97396 0.25754 0.88173 0.0
C482 C 0.99002 0.31894 0.86792 0.0
C483 C 0.9812 0.35399 0.87822 0.0
C484 C 0.9695 0.34001 0.89247 0.0
C485 C 0.96588 0.29189 0.89364 0.0
C486 C 1.0025 0.3319 0.8524 0.0
C487 C 0.96 0.37615 0.90441 0.0
C488 C 0.98599 0.48502 0.88737 0.0
C489 C 0.97604 0.50193 0.87036 0.0
C490 C 0.98936 0.43653 0.88814 0.0
C491 C 0.9827 0.40494 0.87141 0.0
C492 C 0.97455 0.4233 0.85151 0.0
C493 C 0.97121 0.47178 0.85133 0.0
C494 C 0.99854 0.41848 0.90896 0.0
C495 C 0.96784 0.39095 0.83243 0.0
H496 H 0.99243 0.24412 0.86035 0.0
H497 H 0.95625 0.2814 0.90242 0.0
H498 H 0.99935 0.33589 0.8324 0.0
H499 H 0.00718 0.36592 0.8586 0.0
H500 H 0.01044 0.30344 0.85328 0.0
H501 H 0.9526 0.35942 0.91769 0.0
H502 H 0.96603 0.40343 0.91472 0.0
H503 H 0.95403 0.39462 0.88948 0.0
H504 H 0.98994 0.50835 0.90195 0.0
H505 H 0.96376 0.48498 0.8378 0.0
H506 H 0.00501 0.38842 0.9024 0.0
H507 H 0.99201 0.40529 0.92463 0.0
H508 H 0.00535 0.44704 0.91631 0.0
H509 H 0.97518 0.36322 0.826 0.0
H510 H 0.96406 0.411 0.81576 0.0
H511 H 0.95891 0.37272 0.84127 0.0
C512 C 0.76382 0.49219 0.85035 0.0
C513 C 0.77378 0.51002 0.86708 0.0
C514 C 0.76174 0.44298 0.84783 0.0
C515 C 0.76967 0.41136 0.86265 0.0
C516 C 0.77838 0.42959 0.8818 0.0
C517 C 0.78034 0.47881 0.88375 0.0
C518 C 0.7521 0.42479 0.82769 0.0
C519 C 0.78691 0.39715 0.89828 0.0
C520 C 0.76747 0.27739 0.86638 0.0
C521 C 0.77928 0.26473 0.8526 0.0
C522 C 0.76328 0.32508 0.86809 0.0
C523 C 0.771 0.36047 0.85545 0.0
C524 C 0.78182 0.34693 0.83899 0.0
C525 C 0.78588 0.29914 0.83786 0.0
C526 C 0.75162 0.33788 0.88563 0.0
C527 C 0.79018 0.38345 0.82475 0.0
H528 H 0.75866 0.51621 0.83743 0.0
H529 H 0.78796 0.49252 0.89683 0.0
H530 H 0.75802 0.40478 0.81329 0.0
H531 H 0.74455 0.39971 0.83604 0.0
H532 H 0.74641 0.45399 0.81817 0.0
H533 H 0.79137 0.41631 0.91467 0.0
H534 H 0.78064 0.36698 0.90531 0.0
H535 H 0.79551 0.3821 0.88703 0.0
H536 H 0.76231 0.25092 0.87785 0.0
H537 H 0.79494 0.28941 0.82706 0.0
H538 H 0.74528 0.36714 0.87775 0.0
H539 H 0.75594 0.35038 0.90381 0.0
H540 H 0.74486 0.30683 0.88951 0.0
H541 H 0.78337 0.41031 0.81585 0.0
H542 H 0.79666 0.3669 0.80989 0.0
H543 H 0.79706 0.40244 0.83809 0.0
C544 C 0.01709 0.99701 0.64028 0.0
C545 C 0.03021 0.99334 0.65127 0.0
C546 C 0.0117 0.04151 0.6333 0.0
C547 C 0.01953 0.08303 0.63795 0.0
C548 C 0.03199 0.07967 0.65186 0.0
C549 C 0.03726 0.03476 0.65807 0.0
C550 C 0.99839 0.04338 0.61866 0.0
C551 C 0.04051 0.12313 0.65793 0.0
C552 C 0.02396 0.18945 0.59606 0.0
C553 C 0.01826 0.22505 0.6113 0.0
C554 C 0.0228 0.14134 0.60281 0.0
C555 C 0.01603 0.12901 0.62556 0.0
C556 C 0.00852 0.1641 0.63879 0.0
C557 C 0.00963 0.21188 0.63137 0.0
C558 C 0.03028 0.1045 0.58727 0.0
C559 C 1.00084 0.15263 0.66271 0.0
H560 H 0.01168 0.96497 0.63462 0.0
H561 H 0.04744 0.03192 0.66641 0.0
H562 H 0.99219 0.07504 0.62383 0.0
H563 H 1.00082 0.04605 0.59831 0.0
H564 H 0.99209 0.01089 0.62167 0.0
H565 H 0.04835 0.11571 0.67268 0.0
H566 H 0.04594 0.13518 0.64066 0.0
H567 H 0.03384 0.15271 0.66441 0.0
H568 H 0.03044 0.19938 0.58026 0.0
H569 H 0.00506 0.23912 0.64316 0.0
H570 H 0.02391 0.07196 0.58516 0.0
H571 H 0.03997 0.09423 0.59698 0.0
H572 H 0.03294 0.11814 0.56824 0.0
H573 H 0.99686 0.11566 0.6628 0.0
H574 H 0.99208 0.17751 0.66551 0.0
H575 H 0.00799 0.15666 0.67885 0.0
C576 C 0.21779 0.9923 0.61865 0.0
C577 C 0.20645 0.98067 0.63377 0.0
C578 C 0.2193 0.03849 0.60901 0.0
C579 C 0.20906 0.07295 0.61431 0.0
C580 C 0.19744 0.06079 0.62907 0.0
C581 C 0.19636 0.01486 0.63882 0.0
C582 C 0.2319 0.05069 0.59362 0.0
C583 C 0.18613 0.09629 0.63461 0.0
C584 C 0.21349 0.20618 0.61131 0.0
C585 C 0.20633 0.21645 0.58909 0.0
C586 C 0.21547 0.15889 0.61892 0.0
C587 C 0.21006 0.12159 0.60394 0.0
C588 C 0.20367 0.13184 0.58065 0.0
C589 C 0.20192 0.17922 0.57348 0.0
C590 C 0.22255 0.14899 0.64369 0.0
C591 C 0.19774 0.09308 0.56418 0.0
H592 H 0.22567 0.96581 0.61506 0.0
H593 H 0.18757 0.00563 0.65047 0.0
H594 H 0.22881 0.06452 0.57488 0.0
H595 H 0.23782 0.07929 0.60315 0.0
H596 H 0.23879 0.01955 0.59088 0.0
H597 H 0.17769 0.08072 0.6461 0.0
H598 H 0.19044 0.12726 0.64489 0.0
H599 H 0.18168 0.10978 0.61673 0.0
H600 H 0.21708 0.23498 0.6232 0.0
H601 H 0.19662 0.18705 0.55597 0.0
H602 H 0.23005 0.11945 0.64166 0.0
H603 H 0.21477 0.13783 0.65784 0.0
H604 H 0.22803 0.18081 0.65103 0.0
H605 H 0.20521 0.06356 0.56187 0.0
H606 H 0.19482 0.10647 0.54522 0.0
H607 H 0.18839 0.07818 0.57331 0.0
C608 C 0.97707 -0.00139 0.38017 0.0
C609 C 0.96394 0.01913 0.37814 0.0
C610 C 0.97933 0.95133 0.37277 0.0
C611 C 0.96816 0.92423 0.36341 0.0
C612 C 0.95519 0.94605 0.35947 0.0
C613 C 0.95327 0.9934 0.36672 0.0
C614 C 0.99341 0.92957 0.37659 0.0
C615 C 0.94302 0.9184 0.34937 0.0
C616 C 0.97097 0.80503 0.33115 0.0
C617 C 0.96716 0.77408 0.35066 0.0
C618 C 0.97238 0.85389 0.33545 0.0
C619 C 0.96951 0.87219 0.35968 0.0
C620 C 0.96632 0.84074 0.37975 0.0
C621 C 0.96535 0.79176 0.37503 0.0
C622 C 0.97623 0.88606 0.31378 0.0
C623 C 0.96312 0.85909 0.40584 0.0
H624 H 0.98537 0.01844 0.38894 0.0
H625 H 0.94312 0.00924 0.36497 0.0
H626 H 0.99318 0.90599 0.39334 0.0
H627 H 0.99636 0.90747 0.36014 0.0
H628 H 1.00146 0.9571 0.37963 0.0
H629 H 0.93389 0.94139 0.34602 0.0
H630 H 0.94578 0.90057 0.33144 0.0
H631 H 0.94011 0.89023 0.36303 0.0
H632 H 0.97263 0.79109 0.31234 0.0
H633 H 0.96245 0.76766 0.39008 0.0
H634 H 0.98405 0.91257 0.31978 0.0
H635 H 0.96699 0.90596 0.30742 0.0
H636 H 0.98038 0.86575 0.2975 0.0
H637 H 0.97147 0.88291 0.41249 0.0
H638 H 0.96179 0.82985 0.41971 0.0
H639 H 0.95348 0.88033 0.40529 0.0
C640 C 0.79162 0.79588 0.35394 0.0
C641 C 0.78482 0.75377 0.36028 0.0
C642 C 0.78635 0.84001 0.36145 0.0
C643 C 0.77417 0.84181 0.37622 0.0
C644 C 0.76654 0.79969 0.38046 0.0
C645 C 0.77191 0.756 0.37217 0.0
C646 C 0.79475 0.88405 0.35596 0.0
C647 C 0.75357 0.79969 0.39611 0.0
C648 C 0.78048 0.94577 0.41828 0.0
C649 C 0.77472 0.98203 0.40356 0.0
C650 C 0.77844 0.89789 0.41187 0.0
C651 C 0.77086 0.88665 0.38983 0.0
C652 C 0.76316 0.92265 0.37768 0.0
C653 C 0.76503 0.97016 0.38497 0.0
C654 C 0.78603 0.86006 0.4265 0.0
C655 C 0.7547 0.91244 0.35453 0.0
H656 H 0.80165 0.79406 0.34495 0.0
H657 H 0.76674 0.72331 0.37751 0.0
H658 H 0.78799 0.91486 0.35191 0.0
H659 H 0.80107 0.89298 0.37273 0.0
H660 H 0.80181 0.87864 0.33973 0.0
H661 H 0.74691 0.76878 0.39146 0.0
H662 H 0.75647 0.797 0.41626 0.0
H663 H 0.74756 0.8329 0.39359 0.0
H664 H 0.78779 0.95483 0.43298 0.0
H665 H 0.76041 -0.00197 0.37363 0.0
H666 H 0.79573 0.85099 0.41652 0.0
H667 H 0.77976 0.82717 0.42801 0.0
H668 H 0.7887 0.87245 0.44577 0.0
H669 H 0.76141 0.91603 0.33771 0.0
H670 H 0.74612 0.93834 0.35269 0.0
H671 H 0.7504 0.87591 0.35471 0.0
C672 C 0.53796 0.76615 0.59825 0.0
C673 C 0.55213 0.77512 0.60027 0.0
C674 C 0.5332 0.72018 0.59272 0.0
C675 C 0.54289 0.68324 0.58903 0.0
C676 C 0.55716 0.69376 0.58811 0.0
C677 C 0.5616 0.73975 0.59378 0.0
C678 C 0.5179 0.71027 0.59282 0.0
C679 C 0.56784 0.65551 0.58379 0.0
C680 C 0.53858 0.55876 0.61377 0.0
C681 C 0.5384 0.5331 0.59124 0.0
C682 C 0.53875 0.6086 0.6134 0.0
C683 C 0.53859 0.63278 0.58993 0.0
C684 C 0.53689 0.60693 0.56734 0.0
C685 C 0.53695 0.55722 0.56825 0.0
C686 C 0.54042 0.63507 0.63798 0.0
C687 C 0.53623 0.63127 0.54202 0.0
H688 H 0.53065 0.79368 0.60334 0.0
H689 H 0.57256 0.74706 0.59523 0.0
H690 H 0.51482 0.69378 0.5747 0.0
H691 H 0.51536 0.68446 0.60793 0.0
H692 H 0.51172 0.74304 0.59576 0.0
H693 H 0.57837 0.67046 0.58139 0.0
H694 H 0.56798 0.63085 0.60012 0.0
H695 H 0.56525 0.63435 0.56681 0.0
H696 H 0.53953 0.54001 0.63154 0.0
H697 H 0.53645 0.53723 0.5508 0.0
H698 H 0.53346 0.66633 0.6387 0.0
H699 H 0.55116 0.64839 0.63952 0.0
H700 H 0.53825 0.61204 0.65453 0.0
H701 H 0.53086 0.66599 0.54324 0.0
H702 H 0.5309 0.60871 0.52786 0.0
H703 H 0.54687 0.63797 0.53519 0.0
C704 C 0.74777 0.73751 0.60798 0.0
C705 C 0.74026 0.75945 0.62737 0.0
C706 C 0.74767 0.68785 0.60535 0.0
C707 C 0.74023 0.66009 0.62293 0.0
C708 C 0.73496 0.68171 0.64502 0.0
C709 C 0.73488 0.73145 0.64684 0.0
C710 C 0.75389 0.66574 0.5821 0.0
C711 C 0.72765 0.65298 0.66497 0.0
C712 C 0.71533 0.56574 0.60074 0.0
C713 C 0.7219 0.5241 0.6085 0.0
C714 C 0.72177 0.60999 0.60356 0.0
C715 C 0.73488 0.61263 0.6154 0.0
C716 C 0.74189 0.57029 0.622 0.0
C717 C 0.73535 0.52631 0.61817 0.0
C718 C 0.7141 0.6542 0.59542 0.0
C719 C 0.75568 0.57113 0.63514 0.0
H720 H 0.75212 0.75902 0.59299 0.0
H721 H 0.72927 0.74836 0.66208 0.0
H722 H 0.76076 0.63585 0.58745 0.0
H723 H 0.74557 0.65082 0.57016 0.0
H724 H 0.75987 0.69182 0.57078 0.0
H725 H 0.72688 0.67283 0.68302 0.0
H726 H 0.71706 0.64458 0.65844 0.0
H727 H 0.73307 0.61887 0.66844 0.0
H728 H 0.70488 0.56382 0.59352 0.0
H729 H 0.74028 0.49401 0.62477 0.0
H730 H 0.72088 0.67734 0.58387 0.0
H731 H 0.71093 0.67482 0.61228 0.0
H732 H 0.70472 0.64568 0.58428 0.0
H733 H 0.76208 0.60176 0.62907 0.0
H734 H 0.76151 0.53772 0.63173 0.0
H735 H 0.75397 0.57431 0.65574 0.0
C736 C 0.4915 0.46649 0.38372 0.0
C737 C 0.47951 0.4747 0.36951 0.0
C738 C 0.49626 0.41995 0.38797 0.0
C739 C 0.48892 0.38121 0.37753 0.0
C740 C 0.4778 0.38994 0.36081 0.0
C741 C 0.47326 0.43662 0.35695 0.0
C742 C 0.50857 0.41209 0.40486 0.0
C743 C 0.46973 0.34968 0.3491 0.0
C744 C 0.49691 0.25019 0.37688 0.0
C745 C 0.48689 0.23395 0.3939 0.0
C746 C 0.49904 0.29912 0.37323 0.0
C747 C 0.49101 0.33198 0.38704 0.0
C748 C 0.48249 0.3155 0.40689 0.0
C749 C 0.48054 0.26651 0.41011 0.0
C750 C 0.50844 0.31514 0.35232 0.0
C751 C 0.47404 0.34943 0.42259 0.0
H752 H 0.49647 0.49594 0.39325 0.0
H753 H 0.46409 0.44286 0.34574 0.0
H754 H 0.50624 0.38504 0.41946 0.0
H755 H 0.51727 0.39827 0.39347 0.0
H756 H 0.51195 0.44539 0.41427 0.0
H757 H 0.46255 0.36235 0.33423 0.0
H758 H 0.47682 0.32303 0.34082 0.0
H759 H 0.46358 0.33148 0.36387 0.0
H760 H 0.50194 0.22516 0.36434 0.0
H761 H 0.47293 0.25398 0.42353 0.0
H762 H 0.51346 0.3495 0.35688 0.0
H763 H 0.50225 0.32021 0.33495 0.0
H764 H 0.51653 0.28818 0.34838 0.0
H765 H 0.48054 0.37924 0.42942 0.0
H766 H 0.46926 0.33134 0.439 0.0
H767 H 0.46568 0.36486 0.41088 0.0
C768 C 0.29904 0.50543 0.38748 0.0
C769 C 0.31005 0.51945 0.37216 0.0
C770 C 0.29868 0.45947 0.39775 0.0
C771 C 0.30968 0.42775 0.39266 0.0
C772 C 0.32142 0.44369 0.37932 0.0
C773 C 0.32141 0.4894 0.36907 0.0
C774 C 0.28603 0.44362 0.41202 0.0
C775 C 0.33346 0.41117 0.37389 0.0
C776 C 0.31323 0.30774 0.42406 0.0
C777 C 0.30829 0.27747 0.40509 0.0
C778 C 0.31329 0.35713 0.42074 0.0
C779 C 0.30821 0.37641 0.39799 0.0
C780 C 0.30278 0.34609 0.37912 0.0
C781 C 0.30295 0.29683 0.38287 0.0
C782 C 0.31921 0.38846 0.44116 0.0
C783 C 0.29718 0.36558 0.35464 0.0
H784 H 0.29023 0.52881 0.38971 0.0
H785 H 0.32998 0.5007 0.35736 0.0
H786 H 0.27966 0.42056 0.39968 0.0
H787 H 0.28892 0.42236 0.42881 0.0
H788 H 0.27963 0.47427 0.41814 0.0
H789 H 0.34249 0.4309 0.36632 0.0
H790 H 0.33667 0.39199 0.39118 0.0
H791 H 0.33033 0.3841 0.3598 0.0
H792 H 0.31731 0.2928 0.44135 0.0
H793 H 0.29898 0.27348 0.36832 0.0
H794 H 0.31198 0.41781 0.44568 0.0
H795 H 0.32893 0.40492 0.4344 0.0
H796 H 0.32146 0.3683 0.45869 0.0
H797 H 0.28931 0.39332 0.35845 0.0
H798 H 0.29244 0.33748 0.34275 0.0
H799 H 0.30563 0.38257 0.3438 0.0
C800 C 0.5607 0.19634 0.18143 0.0
C801 C 0.55541 0.22304 0.16128 0.0
C802 C 0.56147 0.14676 0.1801 0.0
C803 C 0.55696 0.12359 0.15801 0.0
C804 C 0.5513 0.15021 0.13783 0.0
C805 C 0.55056 0.19982 0.13974 0.0
C806 C 0.56746 0.11936 0.20201 0.0
C807 C 0.5464 0.12642 0.11392 0.0
C808 C 0.57233 0.00839 0.13582 0.0
C809 C 0.56126 0.97717 0.13941 0.0
C810 C 0.57142 0.05578 0.14345 0.0
C811 C 0.55914 0.07196 0.15496 0.0
C812 C 0.54848 0.03946 0.16086 0.0
C813 C 0.54967 0.99206 0.15299 0.0
C814 C 0.58309 0.08932 0.13713 0.0
C815 C 0.53534 0.05551 0.17351 0.0
H816 H 0.56432 0.2142 0.19828 0.0
H817 H 0.54639 0.22042 0.12425 0.0
H818 H 0.56043 0.09006 0.20757 0.0
H819 H 0.57738 0.10294 0.19634 0.0
H820 H 0.56933 0.14236 0.21867 0.0
H821 H 0.54166 0.15202 0.10054 0.0
H822 H 0.55522 0.1088 0.10442 0.0
H823 H 0.53872 0.09842 0.11841 0.0
H824 H 0.58137 0.99656 0.12554 0.0
H825 H 0.54111 0.96782 0.15574 0.0
H826 H 0.5858 0.11154 0.15366 0.0
H827 H 0.5798 0.11368 0.12181 0.0
H828 H 0.59248 0.07008 0.13081 0.0
H829 H 0.53762 0.07972 0.18948 0.0
H830 H 0.52918 0.02497 0.18058 0.0
H831 H 0.52896 0.07558 0.15979 0.0
C832 C 0.71429 0.99665 0.12057 0.0
C833 C 0.70436 0.98169 0.13798 0.0
C834 C 0.7142 0.04342 0.11141 0.0
C835 C 0.70387 0.07525 0.11978 0.0
C836 C 0.69347 0.05953 0.13646 0.0
C837 C 0.69388 0.0129 0.14546 0.0
C838 C 0.72544 0.05927 0.0936 0.0
C839 C 0.68217 0.09238 0.14549 0.0
C840 C 0.71043 0.20766 0.12119 0.0
C841 C 0.70305 0.22275 0.09999 0.0
C842 C 0.71111 0.15935 0.12744 0.0
C843 C 0.70419 0.12572 0.11215 0.0
C844 C 0.69687 0.14072 0.09055 0.0
C845 C 0.6964 0.18918 0.0847 0.0
C846 C 0.71903 0.14438 0.15063 0.0
C847 C 0.6893 0.10573 0.07396 0.0
H848 H 0.7224 0.97242 0.11485 0.0
H849 H 0.68611 0.00112 0.15875 0.0
H850 H 0.72089 0.07603 0.07661 0.0
H851 H 0.73195 0.08652 0.10294 0.0
H852 H 0.73214 0.02932 0.0876 0.0
H853 H 0.6744 0.07364 0.15725 0.0
H854 H 0.68671 0.12164 0.1568 0.0
H855 H 0.67682 0.10883 0.1292 0.0
H856 H 0.71565 0.23358 0.13291 0.0
H857 H 0.69072 0.20079 0.06821 0.0
H858 H 0.72676 0.11684 0.14565 0.0
H859 H 0.71188 0.12833 0.16455 0.0
H860 H 0.72444 0.17469 0.15972 0.0
H861 H 0.69641 0.07728 0.06759 0.0
H862 H 0.68469 0.123 0.05712 0.0
H863 H 0.68094 0.08837 0.08487 0.0
C864 C 0.47594 0.76356 0.85965 0.0
C865 C 0.46737 0.75639 0.83876 0.0
C866 C 0.47784 0.80939 0.8696 0.0
C867 C 0.47078 0.8483 0.85861 0.0
C868 C 0.46269 0.84141 0.83675 0.0
C869 C 0.46118 0.79559 0.827 0.0
C870 C 0.48681 0.81578 0.89258 0.0
C871 C 0.45481 0.88181 0.82467 0.0
C872 C 0.45744 0.94763 0.89949 0.0
C873 C 0.46562 0.98597 0.8917 0.0
C874 C 0.45944 0.90216 0.88957 0.0
C875 C 0.47006 0.89466 0.87176 0.0
C876 C 0.4788 0.93273 0.86468 0.0
C877 C 0.47637 0.97831 0.87455 0.0
C878 C 0.4497 0.86273 0.89725 0.0
C879 C 0.49042 0.92559 0.84616 0.0
H880 H 0.48088 0.73335 0.86856 0.0
H881 H 0.45463 0.79031 0.81068 0.0
H882 H 0.49352 0.84751 0.89046 0.0
H883 H 0.48021 0.82165 0.90935 0.0
H884 H 0.4934 0.78415 0.89613 0.0
H885 H 0.44991 0.87117 0.80661 0.0
H886 H 0.44661 0.89418 0.8377 0.0
H887 H 0.46174 0.91241 0.82103 0.0
H888 H 0.44913 0.95343 0.9128 0.0
H889 H 0.4828 0.00789 0.86878 0.0
H890 H 0.45559 0.83158 0.90421 0.0
H891 H 0.44365 0.85088 0.88065 0.0
H892 H 0.44239 0.87404 0.91221 0.0
H893 H 0.49651 0.89355 0.85118 0.0
H894 H 0.49744 0.95679 0.84543 0.0
H895 H 0.48613 0.9197 0.82704 0.0
C896 C 0.28687 0.78579 0.84886 0.0
C897 C 0.2806 0.75133 0.86406 0.0
C898 C 0.2834 0.83389 0.85132 0.0
C899 C 0.27339 0.84764 0.86935 0.0
C900 C 0.26581 0.81243 0.88237 0.0
C901 C 0.26949 0.7644 0.87954 0.0
C902 C 0.29168 0.87027 0.83685 0.0
C903 C 0.25494 0.82571 0.9014 0.0
C904 C 0.28586 0.96226 0.89751 0.0
C905 C 0.27915 0.99537 0.88211 0.0
C906 C 0.28295 0.91365 0.89547 0.0
C907 C 0.27303 0.89805 0.8777 0.0
C908 C 0.2649 0.93183 0.86471 0.0
C909 C 0.26805 0.98039 0.86709 0.0
C910 C 0.2918 0.87888 0.90991 0.0
C911 C 0.25408 0.91665 0.84598 0.0
H912 H 0.29537 0.77572 0.83672 0.0
H913 H 0.26459 0.73787 0.89135 0.0
H914 H 0.28492 0.89895 0.82959 0.0
H915 H 0.29934 0.88692 0.84962 0.0
H916 H 0.29733 0.85399 0.82082 0.0
H917 H 0.24819 0.79503 0.90605 0.0
H918 H 0.26005 0.83804 0.91893 0.0
H919 H 0.24845 0.85537 0.89442 0.0
H920 H 0.29435 0.97379 0.90933 0.0
H921 H 0.26277 0.00587 0.85516 0.0
H922 H 0.2998 0.86414 0.89717 0.0
H923 H 0.28556 0.84867 0.91699 0.0
H924 H 0.29709 0.89617 0.92605 0.0
H925 H 0.2592 0.90678 0.82804 0.0
H926 H 0.24663 0.94576 0.84212 0.0
H927 H 0.24835 0.88501 0.85273 0.0
C928 C 0.97108 0.54826 0.98338 0.0
C929 C 0.96282 0.52677 0.96495 0.0
C930 C 0.97951 0.52082 -0.00076 0.0
C931 C 0.97984 0.47075 0.99632 0.0
C932 C 0.97105 0.4487 0.97852 0.0
C933 C 0.96258 0.47697 0.96314 0.0
C934 C 0.98851 0.54562 0.01839 0.0
C935 C 0.9712 0.39551 0.97467 0.0
C936 C 0.01353 0.41448 0.01754 0.0
C937 C 0.01005 0.39788 0.0416 0.0
C938 C 0.00361 0.43618 0.00205 0.0
C939 C 0.98993 0.44197 0.011 0.0
C940 C 0.98621 0.42305 0.03473 0.0
C941 C 0.99628 0.40092 0.04965 0.0
C942 C 0.00803 0.45553 0.97681 0.0
C943 C 0.9718 0.42885 0.04508 0.0
H944 H 0.97132 0.58671 0.98483 0.0
H945 H 0.95631 0.46014 0.94877 0.0
H946 H 0.98723 0.52903 0.03722 0.0
H947 H 0.9995 0.54171 0.013 0.0
H948 H 0.98611 0.58415 0.01992 0.0
H949 H 0.96263 0.38337 0.96238 0.0
H950 H 0.98111 0.38494 0.96589 0.0
H951 H 0.97045 0.37666 0.99297 0.0
H952 H 0.02415 0.41248 0.01122 0.0
H953 H 0.9935 0.38834 0.06827 0.0
H954 H 0.01016 0.49415 0.97863 0.0
H955 H 0.99979 0.4511 0.96255 0.0
H956 H 0.01755 0.43787 0.96988 0.0
H957 H 0.96984 0.467 0.04906 0.0
H958 H 0.97023 0.40836 0.06275 0.0
H959 H 0.96404 0.41719 0.03104 0.0
C960 C 0.29071 0.75747 0.95869 0.0
C961 C 0.28954 0.70778 0.95754 0.0
C962 C 0.28176 0.78454 0.97379 0.0
C963 C 0.27142 0.76136 0.98808 0.0
C964 C 0.27069 0.71108 0.98803 0.0
C965 C 0.27973 0.68491 0.97271 0.0
C966 C 0.28281 0.83807 0.97313 0.0
C967 C 0.25995 0.685 0.00329 0.0
C968 C 0.25363 0.82977 0.0405 0.0
C969 C 0.24082 0.8408 0.02961 0.0
C970 C 0.26367 0.80415 0.02718 0.0
C971 C 0.26096 0.78973 0.00215 0.0
C972 C 0.24815 0.80167 0.99081 0.0
C973 C 0.2382 0.82681 0.00475 0.0
C974 C 0.27703 0.79137 0.04015 0.0
C975 C 0.24456 0.78636 0.96437 0.0
H976 H 0.29813 0.7755 0.94675 0.0
H977 H 0.27873 0.64654 0.97184 0.0
H978 H 0.27436 0.85243 0.96124 0.0
H979 H 0.28162 0.85353 0.99222 0.0
H980 H 0.29283 0.85006 0.96527 0.0
H981 H 0.26164 0.64592 0.00326 0.0
H982 H 0.25999 0.69778 0.02307 0.0
H983 H 0.24958 0.69234 0.99538 0.0
H984 H 0.25573 0.84012 0.0598 0.0
H985 H 0.22829 0.83473 0.9963 0.0
H986 H 0.28591 0.80549 0.02929 0.0
H987 H 0.27817 0.75212 0.04087 0.0
H988 H 0.27758 0.80551 0.05966 0.0
H989 H 0.23772 0.81283 0.95514 0.0
H990 H 0.23889 0.75213 0.96523 0.0
H991 H 0.25382 0.7811 0.95248 0.0
C992 C 0.03479 0.80211 0.23237 0.0
C993 C 0.04394 0.78176 0.215 0.0
C994 C 0.02542 0.77389 0.24593 0.0
C995 C 0.02522 0.72403 0.2421 0.0
C996 C 0.03497 0.70297 0.22569 0.0
C997 C 0.04417 0.7321 0.21224 0.0
C998 C 0.01534 0.79773 0.26357 0.0
C999 C 0.03524 0.64994 0.22137 0.0
C1000 C 0.00607 0.65441 0.29234 0.0
C1001 C 0.99279 0.65111 0.28191 0.0
C1002 C 0.01691 0.676 0.27912 0.0
C1003 C 0.01448 0.69453 0.25475 0.0
C1004 C 1.00136 0.68831 0.24339 0.0
C1005 C 0.99064 0.6668 0.25716 0.0
C1006 C 0.03075 0.68146 0.29184 0.0
C1007 C 0.99845 0.70671 0.2172 0.0
H1008 H 0.0345 0.84043 0.23456 0.0
H1009 H 0.05113 0.71606 0.19869 0.0
H1010 H 0.00467 0.79265 0.25648 0.0
H1011 H 0.01589 0.78122 0.28253 0.0
H1012 H 0.01732 0.83648 0.26547 0.0
H1013 H 0.04483 0.63848 0.21169 0.0
H1014 H 0.03438 0.63035 0.23944 0.0
H1015 H 0.02627 0.63963 0.20959 0.0
H1016 H 0.00786 0.64214 0.31143 0.0
H1017 H 0.98042 0.66436 0.24897 0.0
H1018 H 0.03255 0.71951 0.2963 0.0
H1019 H 0.03917 0.66987 0.27909 0.0
H1020 H 0.03142 0.66069 0.30961 0.0
H1021 H 0.99867 0.74617 0.21732 0.0
H1022 H 0.98824 0.69489 0.21007 0.0
H1023 H 0.00655 0.69455 0.20391 0.0
C1024 C 0.21529 0.46913 0.24055 0.0
C1025 C 0.21797 0.42321 0.2315 0.0
C1026 C 0.22575 0.49628 0.25191 0.0
C1027 C 0.23908 0.47651 0.2549 0.0
C1028 C 0.24156 0.42898 0.24728 0.0
C1029 C 0.23103 0.40315 0.23532 0.0
C1030 C 0.22273 0.54708 0.2593 0.0
C1031 C 0.25552 0.40611 0.25076 0.0
C1032 C 0.27028 0.55874 0.25983 0.0
C1033 C 0.27227 0.56055 0.28595 0.0
C1034 C 0.25938 0.53203 0.24944 0.0
C1035 C 0.2505 0.50578 0.26555 0.0
C1036 C 0.25259 0.50726 0.29189 0.0
C1037 C 0.26334 0.53491 0.30174 0.0
C1038 C 0.25732 0.53198 0.22125 0.0
C1039 C 0.24355 0.47923 0.30969 0.0
H1040 H 0.20532 0.48525 0.23703 0.0
H1041 H 0.23316 0.36788 0.22804 0.0
H1042 H 0.22566 0.55333 0.27922 0.0
H1043 H 0.22899 0.57155 0.24754 0.0
H1044 H 0.21167 0.55637 0.25687 0.0
H1045 H 0.25542 0.36773 0.24581 0.0
H1046 H 0.26322 0.42435 0.2387 0.0
H1047 H 0.25898 0.40993 0.27058 0.0
H1048 H 0.27714 0.57853 0.24758 0.0
H1049 H 0.26488 0.53576 0.32197 0.0
H1050 H 0.24673 0.54415 0.21663 0.0
H1051 H 0.25841 0.4953 0.21384 0.0
H1052 H 0.26483 0.55532 0.2114 0.0
H1053 H 0.23265 0.49065 0.30769 0.0
H1054 H 0.24667 0.48365 0.32969 0.0
H1055 H 0.24399 0.44087 0.30486 0.0
C1056 C 0.77437 0.19978 0.96404 0.0
C1057 C 0.7836 0.22481 0.94866 0.0
C1058 C 0.76465 0.22384 0.97891 0.0
C1059 C 0.76412 0.27418 0.97831 0.0
C1060 C 0.77373 0.29974 0.96347 0.0
C1061 C 0.78334 0.27472 0.94878 0.0
C1062 C 0.75476 0.19532 0.99487 0.0
C1063 C 0.77355 0.35338 0.96229 0.0
C1064 C 0.73001 0.32748 -0.00011 0.0
C1065 C 0.73291 0.33756 0.02519 0.0
C1066 C 0.74028 0.30874 0.98397 0.0
C1067 C 0.75365 0.29971 0.99371 0.0
C1068 C 0.75676 0.31214 0.01886 0.0
C1069 C 0.74639 0.33099 0.03423 0.0
C1070 C 0.7367 0.29687 0.95703 0.0
C1071 C 0.77092 0.30371 0.02987 0.0
H1072 H 0.77447 0.16123 0.96391 0.0
H1073 H 0.79031 0.29433 0.93664 0.0
H1074 H 0.75563 0.20625 0.01489 0.0
H1075 H 0.74401 0.20247 0.98883 0.0
H1076 H 0.75669 0.15646 0.99358 0.0
H1077 H 0.78333 0.36781 0.95454 0.0
H1078 H 0.76496 0.36503 0.94994 0.0
H1079 H 0.77183 0.36916 0.98118 0.0
H1080 H 0.71964 0.33262 0.99279 0.0
H1081 H 0.74877 0.33916 0.05371 0.0
H1082 H 0.73716 0.25779 0.95426 0.0
H1083 H 0.74434 0.31309 0.94406 0.0
H1084 H 0.72624 0.30948 0.95175 0.0
H1085 H 0.77311 0.26499 0.03032 0.0
H1086 H 0.7719 0.31795 0.04931 0.0
H1087 H 0.77891 0.32059 0.01787 0.0
C1088 C 0.99971 0.19104 0.79843 0.0
C1089 C 0.98623 0.18003 0.79072 0.0
C1090 C 0.00905 0.21312 0.78204 0.0
C1091 C 0.00491 0.22371 0.75713 0.0
C1092 C 0.99136 0.21211 0.7491 0.0
C1093 C 0.98211 0.19084 0.76611 0.0
C1094 C 0.02323 0.22615 0.79157 0.0
C1095 C 0.98656 0.22286 0.72266 0.0
C1096 C 0.02306 0.31813 0.71815 0.0
C1097 C 0.03122 0.29025 0.7021 0.0
C1098 C 0.01486 0.29707 0.73689 0.0
C1099 C 0.01473 0.24695 0.73943 0.0
C1100 C 0.02353 0.21886 0.72424 0.0
C1101 C 0.03175 0.24091 0.70586 0.0
C1102 C 0.00586 0.32833 0.75315 0.0
C1103 C 0.02383 0.16534 0.72668 0.0
H1104 H 1.00289 0.18349 0.8176 0.0
H1105 H 0.97168 0.18276 0.76016 0.0
H1106 H 0.03127 0.20924 0.77971 0.0
H1107 H 0.02474 0.26518 0.79024 0.0
H1108 H 0.02487 0.21512 0.81145 0.0
H1109 H 0.97661 0.20516 0.71819 0.0
H1110 H 0.9852 0.2618 0.72046 0.0
H1111 H 0.99439 0.21137 0.70874 0.0
H1112 H 0.02261 0.35629 0.71536 0.0
H1113 H 0.03808 0.2192 0.6936 0.0
H1114 H 0.00708 0.31884 0.77332 0.0
H1115 H 0.99488 0.32265 0.74815 0.0
H1116 H 0.00829 0.36668 0.75076 0.0
H1117 H 0.02742 0.15526 0.74579 0.0
H1118 H 0.03073 0.14841 0.7126 0.0
H1119 H 0.01328 0.15065 0.72438 0.0
C1120 C 0.72385 0.46392 0.7171 0.0
C1121 C 0.72808 0.44812 0.69332 0.0
C1122 C 0.73323 0.48666 0.73341 0.0
C1123 C 0.74697 0.49492 0.72532 0.0
C1124 C 0.75118 0.47957 0.70118 0.0
C1125 C 0.74176 0.45586 0.68566 0.0
C1126 C 0.72847 0.50181 0.75925 0.0
C1127 C 0.76562 0.48858 0.69157 0.0
C1128 C 0.76785 0.59197 0.75755 0.0
C1129 C 0.77644 0.5653 0.77341 0.0
C1130 C 0.75828 0.56953 0.74162 0.0
C1131 C 0.75707 0.51932 0.74205 0.0
C1132 C 0.76582 0.49224 0.75785 0.0
C1133 C 0.77549 0.51553 0.77318 0.0
C1134 C 0.74939 0.59953 0.72447 0.0
C1135 C 0.76476 0.4387 0.759 0.0
H1136 H 0.71327 0.45823 0.72298 0.0
H1137 H 0.74505 0.44448 0.6671 0.0
H1138 H 0.7351 0.48527 0.77387 0.0
H1139 H 0.72949 0.54091 0.76126 0.0
H1140 H 0.71758 0.49175 0.76294 0.0
H1141 H 0.76706 0.47608 0.67189 0.0
H1142 H 0.76798 0.52716 0.69233 0.0
H1143 H 0.77322 0.47021 0.70378 0.0
H1144 H 0.7685 0.63046 0.75785 0.0
H1145 H 0.7819 0.49478 0.7858 0.0
H1146 H 0.73835 0.59406 0.72905 0.0
H1147 H 0.75089 0.58842 0.7046 0.0
H1148 H 0.75178 0.63805 0.72605 0.0
H1149 H 0.75425 0.42828 0.76514 0.0
H1150 H 0.77239 0.42283 0.77217 0.0
H1151 H 0.76642 0.42324 0.74002 0.0
C1152 C 0.98348 0.09027 0.50391 0.0
C1153 C 0.97603 0.06379 0.48614 0.0
C1154 C 0.99342 0.06839 0.51937 0.0
C1155 C 0.99609 0.01908 0.51665 0.0
C1156 C 0.98868 0.9924 0.49854 0.0
C1157 C 0.97866 0.01495 0.48373 0.0
C1158 C 1.00086 0.09784 0.53887 0.0
C1159 C 0.99135 0.93995 0.49475 0.0
C1160 C 0.02897 0.96378 0.54317 0.0
C1161 C 0.02393 0.9414 0.56487 0.0
C1162 C 0.02008 0.98995 0.52738 0.0
C1163 C 0.00593 0.99434 0.53376 0.0
C1164 C 1.00091 0.97261 0.55595 0.0
C1165 C 0.00993 0.94627 0.57109 0.0
C1166 C 0.02575 0.01222 0.50369 0.0
C1167 C 0.98595 0.97672 0.5636 0.0
H1168 H 0.98153 0.12807 0.50573 0.0
H1169 H 0.9731 0.99438 0.46976 0.0
H1170 H 0.99743 0.087 0.55795 0.0
H1171 H 0.01214 0.09166 0.53785 0.0
H1172 H 0.99885 0.13649 0.53659 0.0
H1173 H 0.98531 0.92501 0.47881 0.0
H1174 H 1.00247 0.93376 0.4911 0.0
H1175 H 0.98862 0.92009 0.51211 0.0
H1176 H 0.0398 0.96048 0.53841 0.0
H1177 H 0.00596 0.92977 0.58806 0.0
H1178 H 0.02371 0.05103 0.50369 0.0
H1179 H 0.02046 0.99703 0.48699 0.0
H1180 H 0.03703 0.0064 0.50164 0.0
H1181 H 0.98285 0.01468 0.56442 0.0
H1182 H 0.98388 0.96015 0.58222 0.0
H1183 H 0.97931 0.95919 0.54934 0.0
C1184 C 0.26211 0.18044 0.43967 0.0
C1185 C 0.27288 0.16344 0.45492 0.0
C1186 C 0.25128 0.20731 0.44977 0.0
C1187 C 0.25096 0.21644 0.47593 0.0
C1188 C 0.26131 0.19684 0.49173 0.0
C1189 C 0.27228 0.17102 0.48098 0.0
C1190 C 0.24062 0.22817 0.43218 0.0
C1191 C 0.26106 0.2046 0.51986 0.0
C1192 C 0.23297 0.3275 0.50027 0.0
C1193 C 0.22019 0.3093 0.50776 0.0
C1194 C 0.24292 0.29791 0.4891 0.0
C1195 C 0.2402 0.2486 0.48644 0.0
C1196 C 0.2272 0.23025 0.4937 0.0
C1197 C 0.21725 0.26104 0.50385 0.0
C1198 C 0.25647 0.31916 0.4808 0.0
C1199 C 0.22405 0.17775 0.49198 0.0
H1200 H 0.26248 0.17492 0.41947 0.0
H1201 H 0.28055 0.15804 0.49286 0.0
H1202 H 0.23009 0.21842 0.43845 0.0
H1203 H 0.24132 0.26756 0.43258 0.0
H1204 H 0.24201 0.21602 0.41243 0.0
H1205 H 0.26892 0.18276 0.52975 0.0
H1206 H 0.26307 0.24262 0.52406 0.0
H1207 H 0.25073 0.19583 0.52757 0.0
H1208 H 0.23531 0.36463 0.50375 0.0
H1209 H 0.20752 0.24661 0.51043 0.0
H1210 H 0.25863 0.30945 0.46092 0.0
H1211 H 0.26497 0.30456 0.49244 0.0
H1212 H 0.25657 0.35854 0.48248 0.0
H1213 H 0.21338 0.16929 0.49814 0.0
H1214 H 0.23137 0.15758 0.50397 0.0
H1215 H 0.22544 0.16505 0.47237 0.0
C1216 C 0.23379 0.9118 0.74395 0.0
C1217 C 0.23602 0.89804 0.71893 0.0
C1218 C 0.24397 0.9367 0.75748 0.0
C1219 C 0.25663 0.94856 0.74556 0.0
C1220 C 0.259 0.93389 0.72046 0.0
C1221 C 0.24875 0.90854 0.70756 0.0
C1222 C 0.24069 0.95206 0.78404 0.0
C1223 C 0.27218 0.9466 0.70686 0.0
C1224 C 0.27545 0.05528 0.77292 0.0
C1225 C 0.2857 0.03351 0.78757 0.0
C1226 C 0.26621 0.02809 0.75853 0.0
C1227 C 0.26717 0.97785 0.75888 0.0
C1228 C 0.2779 0.95574 0.77269 0.0
C1229 C 0.28705 0.98384 0.78686 0.0
C1230 C 0.25504 0.05306 0.74379 0.0
C1231 C 0.27923 0.9023 0.77376 0.0
H1232 H 0.22395 0.90426 0.75281 0.0
H1233 H 0.25056 0.89829 0.68816 0.0
H1234 H 0.25003 0.96068 0.79516 0.0
H1235 H 0.23408 0.98424 0.78333 0.0
H1236 H 0.2348 0.92392 0.79403 0.0
H1237 H 0.27256 0.93169 0.68749 0.0
H1238 H 0.27317 0.98586 0.70564 0.0
H1239 H 0.28123 0.9333 0.71753 0.0
H1240 H 0.27431 0.09362 0.77346 0.0
H1241 H 0.29482 0.96666 0.7984 0.0
H1242 H 0.24486 0.04504 0.75232 0.0
H1243 H 0.25482 0.03991 0.72408 0.0
H1244 H 0.25647 0.09226 0.74352 0.0
H1245 H 0.27127 0.88794 0.7867 0.0
H1246 H 0.28955 0.89118 0.78067 0.0
H1247 H 0.27751 0.88599 0.75501 0.0
C1248 C 0.78402 0.69396 0.47007 0.0
C1249 C 0.77921 0.68042 0.44625 0.0
C1250 C 0.77515 0.71618 0.48749 0.0
C1251 C 0.76131 0.72606 0.48059 0.0
C1252 C 0.75645 0.71239 0.45657 0.0
C1253 C 0.7654 0.6894 0.43984 0.0
C1254 C 0.7806 0.72941 0.51318 0.0
C1255 C 0.74182 0.72266 0.44835 0.0
C1256 C 0.73444 0.75075 0.53119 0.0
C1257 C 0.73433 0.80061 0.53175 0.0
C1258 C 0.74317 0.72597 0.51463 0.0
C1259 C 0.75193 0.7517 0.49819 0.0
C1260 C 0.75153 0.80206 0.49814 0.0
C1261 C 0.74279 0.82588 0.51503 0.0
C1262 C 0.74331 0.6723 0.51527 0.0
C1263 C 0.76038 0.83079 0.48034 0.0
H1264 H 0.79468 0.68717 0.47508 0.0
H1265 H 0.76162 0.67952 0.42134 0.0
H1266 H 0.78015 0.76855 0.51568 0.0
H1267 H 0.77403 0.71331 0.52803 0.0
H1268 H 0.79141 0.71751 0.51603 0.0
H1269 H 0.73976 0.71069 0.42877 0.0
H1270 H 0.73444 0.70461 0.46111 0.0
H1271 H 0.73974 0.76138 0.44957 0.0
H1272 H 0.7281 0.73104 0.54437 0.0
H1273 H 0.74276 0.86443 0.51545 0.0
H1274 H 0.75347 0.65979 0.52225 0.0
H1275 H 0.74194 0.65756 0.49606 0.0
H1276 H 0.73509 0.65761 0.5276 0.0
H1277 H 0.77142 0.82176 0.48302 0.0
H1278 H 0.75907 0.86971 0.48303 0.0
H1279 H 0.75769 0.82188 0.4606 0.0
C1280 C 0.74728 0.92345 0.2185 0.0
C1281 C 0.7347 0.90536 0.22744 0.0
C1282 C 0.75665 0.94596 0.23469 0.0
C1283 C 0.75345 0.95034 0.26057 0.0
C1284 C 0.74083 0.93156 0.26981 0.0
C1285 C 0.73162 0.90913 0.25312 0.0
C1286 C 0.76981 0.96625 0.22391 0.0
C1287 C 0.73699 0.93411 0.2973 0.0
C1288 C 0.78302 0.97867 0.30542 0.0
C1289 C 0.78098 0.02733 0.30983 0.0
C1290 C 0.77405 0.9529 0.2897 0.0
C1291 C 0.76305 0.97672 0.2775 0.0
C1292 C 0.7613 0.02625 0.28109 0.0
C1293 C 0.77023 0.05085 0.2973 0.0
C1294 C 0.77605 0.89996 0.2868 0.0
C1295 C 0.74971 0.05296 0.26842 0.0
H1296 H 0.74974 0.92081 0.19863 0.0
H1297 H 0.72198 0.89491 0.26017 0.0
H1298 H 0.77002 0.00534 0.22677 0.0
H1299 H 0.77887 0.95123 0.23389 0.0
H1300 H 0.77092 0.95885 0.20345 0.0
H1301 H 0.72562 0.93438 0.29984 0.0
H1302 H 0.74104 0.90192 0.30683 0.0
H1303 H 0.74136 0.9659 0.30674 0.0
H1304 H 0.79134 0.96038 0.31495 0.0
H1305 H 0.76855 0.08843 0.30068 0.0
H1306 H 0.77779 0.89101 0.2667 0.0
H1307 H 0.76658 0.88102 0.29288 0.0
H1308 H 0.7849 0.88653 0.29803 0.0
H1309 H 0.75018 0.04769 0.24772 0.0
H1310 H 0.75005 0.09172 0.27244 0.0
H1311 H 0.73966 0.03874 0.275 0.0
C1312 C 0.4627 0.47402 0.46546 0.0
C1313 C 0.46536 0.52269 0.46214 0.0
C1314 C 0.47059 0.44668 0.48235 0.0
C1315 C 0.4814 0.46849 0.49603 0.0
C1316 C 0.48349 0.51818 0.49398 0.0
C1317 C 0.47542 0.54467 0.47712 0.0
C1318 C 0.46778 0.39411 0.48475 0.0
C1319 C 0.49478 0.54301 0.50855 0.0
C1320 C 0.49952 0.41063 0.5515 0.0
C1321 C 0.5122 0.39757 0.54071 0.0
C1322 C 0.48906 0.43156 0.53698 0.0
C1323 C 0.49128 0.43926 0.51097 0.0
C1324 C 0.50364 0.42295 0.49963 0.0
C1325 C 0.51399 0.40246 0.51466 0.0
C1326 C 0.47611 0.44861 0.54991 0.0
C1327 C 0.5063 0.42979 0.47186 0.0
H1328 H 0.45493 0.45677 0.45396 0.0
H1329 H 0.47751 0.58227 0.47472 0.0
H1330 H 0.47704 0.37364 0.479 0.0
H1331 H 0.46565 0.38493 0.5047 0.0
H1332 H 0.45886 0.38262 0.47311 0.0
H1333 H 0.49431 0.58229 0.50647 0.0
H1334 H 0.49408 0.53404 0.52886 0.0
H1335 H 0.50499 0.53063 0.50176 0.0
H1336 H 0.49803 0.407 0.57165 0.0
H1337 H 0.52374 0.39244 0.50618 0.0
H1338 H 0.46684 0.4407 0.53843 0.0
H1339 H 0.47664 0.48777 0.55231 0.0
H1340 H 0.47482 0.43222 0.56882 0.0
H1341 H 0.49725 0.41794 0.46073 0.0
H1342 H 0.51555 0.40996 0.46537 0.0
H1343 H 0.50788 0.46814 0.46786 0.0
C1344 C 0.52699 0.7664 0.67898 0.0
C1345 C 0.53531 0.79573 0.69403 0.0
C1346 C 0.51713 0.73611 0.68971 0.0
C1347 C 0.51527 0.73601 0.71614 0.0
C1348 C 0.5238 0.76514 0.73148 0.0
C1349 C 0.53391 0.79418 0.72023 0.0
C1350 C 0.50868 0.70437 0.67273 0.0
C1351 C 0.52191 0.76686 0.75969 0.0
C1352 C 0.48018 0.70012 0.74185 0.0
C1353 C 0.48306 0.65581 0.75271 0.0
C1354 C 0.49054 0.72636 0.72967 0.0
C1355 C 0.504 0.70712 0.7276 0.0
C1356 C 0.5067 0.66094 0.73705 0.0
C1357 C 0.49626 0.6362 0.74993 0.0
C1358 C 0.48726 0.7757 0.72015 0.0
C1359 C 0.52075 0.63838 0.73435 0.0
H1360 H 0.52826 0.76704 0.65867 0.0
H1361 H 0.54033 0.81698 0.73179 0.0
H1362 H 0.51095 0.66658 0.67707 0.0
H1363 H 0.4975 0.70997 0.67606 0.0
H1364 H 0.51085 0.7108 0.65247 0.0
H1365 H 0.52942 0.79105 0.76896 0.0
H1366 H 0.51132 0.77915 0.7642 0.0
H1367 H 0.52309 0.73077 0.76783 0.0
H1368 H 0.47005 0.71579 0.74439 0.0
H1369 H 0.49852 0.60205 0.75847 0.0
H1370 H 0.48971 0.77849 0.69979 0.0
H1371 H 0.49376 0.80215 0.73016 0.0
H1372 H 0.47625 0.78527 0.72294 0.0
H1373 H 0.52426 0.64037 0.71448 0.0
H1374 H 0.52077 0.60055 0.74039 0.0
H1375 H 0.52835 0.6581 0.74595 0.0
C1376 C 0.48872 0.17727 0.2855 0.0
C1377 C 0.4783 0.19737 0.3004 0.0
C1378 C 0.49697 0.20564 0.26982 0.0
C1379 C 0.49482 0.25543 0.26906 0.0
C1380 C 0.48402 0.27579 0.2834 0.0
C1381 C 0.47584 0.24646 0.29882 0.0
C1382 C 0.50839 0.18258 0.25484 0.0
C1383 C 0.48154 0.32877 0.28345 0.0
C1384 C 0.52601 0.32725 0.24743 0.0
C1385 C 0.52286 0.33475 0.222 0.0
C1386 C 0.51681 0.30282 0.26331 0.0
C1387 C 0.50409 0.28592 0.25352 0.0
C1388 C 0.50061 0.29546 0.22813 0.0
C1389 C 0.51001 0.31982 0.21274 0.0
C1390 C 0.52111 0.29478 0.29029 0.0
C1391 C 0.48725 0.27789 0.21685 0.0
H1392 H 0.49074 0.13942 0.28672 0.0
H1393 H 0.46789 0.26231 0.31045 0.0
H1394 H 0.50753 0.1925 0.23466 0.0
H1395 H 0.51851 0.19568 0.26171 0.0
H1396 H 0.50824 0.14318 0.25638 0.0
H1397 H 0.47135 0.33796 0.29163 0.0
H1398 H 0.4897 0.34631 0.29479 0.0
H1399 H 0.48209 0.34358 0.26411 0.0
H1400 H 0.53589 0.33877 0.25477 0.0
H1401 H 0.50746 0.32556 0.19308 0.0
H1402 H 0.5147 0.26825 0.30033 0.0
H1403 H 0.52049 0.32913 0.30052 0.0
H1404 H 0.53204 0.283 0.29107 0.0
H1405 H 0.48714 0.23842 0.21688 0.0
H1406 H 0.48576 0.29045 0.19719 0.0
H1407 H 0.47838 0.28996 0.22838 0.0
C1408 C 0.49646 0.09855 0.97916 0.0
C1409 C 0.48264 0.08382 0.9794 0.0
C1410 C 0.50657 0.07378 0.99282 0.0
C1411 C 0.50283 0.03267 0.00662 0.0
C1412 C 0.4888 0.01858 0.00761 0.0
C1413 C 0.47885 0.04464 0.99419 0.0
C1414 C 0.52133 0.09078 0.99187 0.0
C1415 C 0.48439 0.97476 0.02195 0.0
C1416 C 0.53017 0.93862 0.02048 0.0
C1417 C 0.53258 0.94638 0.04614 0.0
C1418 C 0.52057 0.96675 0.00725 0.0
C1419 C 0.51356 0.0041 0.0199 0.0
C1420 C 0.51648 0.01324 0.04554 0.0
C1421 C 0.52581 0.98391 0.05839 0.0
C1422 C 0.51759 0.95555 0.97998 0.0
C1423 C 0.50957 0.05343 0.05957 0.0
H1424 H 0.49943 0.12875 0.96768 0.0
H1425 H 0.46822 0.03269 0.99414 0.0
H1426 H 0.52549 0.09482 0.01124 0.0
H1427 H 0.52781 0.064 0.98211 0.0
H1428 H 0.52237 0.12529 0.98185 0.0
H1429 H 0.47307 0.96899 0.02116 0.0
H1430 H 0.48961 0.94299 0.01402 0.0
H1431 H 0.48755 0.97766 0.04197 0.0
H1432 H 0.53535 0.90948 0.01106 0.0
H1433 H 0.52779 0.99032 0.07822 0.0
H1434 H 0.51938 0.98746 0.96814 0.0
H1435 H 0.50657 0.94559 0.97781 0.0
H1436 H 0.52407 0.92599 0.97275 0.0
H1437 H 0.51081 0.08728 0.04906 0.0
H1438 H 0.51383 0.05818 0.07885 0.0
H1439 H 0.49835 0.04634 0.06114 0.0
C1440 C 0.14786 0.4298 0.13101 0.0
C1441 C 0.15214 0.39888 0.15023 0.0
C1442 C 0.1341 0.43067 0.12279 0.0
C1443 C 0.12441 0.39912 0.13367 0.0
C1444 C 0.1287 0.36755 0.15299 0.0
C1445 C 0.14249 0.36817 0.16124 0.0
C1446 C 0.12992 0.46566 0.1026 0.0
C1447 C 0.11873 0.33286 0.1648 0.0
C1448 C 0.08616 0.42825 0.13063 0.0
C1449 C 0.08172 0.40011 0.11039 0.0
C1450 C 0.10006 0.42899 0.13803 0.0
C1451 C 0.10973 0.40001 0.12526 0.0
C1452 C 0.10533 0.37186 0.10459 0.0
C1453 C 0.09138 0.37266 0.09721 0.0
C1454 C 0.10435 0.46044 0.15972 0.0
C1455 C 0.11527 0.33995 0.09073 0.0
H1456 H 0.15528 0.45377 0.1225 0.0
H1457 H 0.14578 0.34396 0.17596 0.0
H1458 H 0.12573 0.4464 0.08604 0.0
H1459 H 0.1216 0.48914 0.10976 0.0
H1460 H 0.13867 0.48819 0.09627 0.0
H1461 H 0.12378 0.30956 0.17896 0.0
H1462 H 0.11022 0.35246 0.17412 0.0
H1463 H 0.11403 0.31016 0.15 0.0
H1464 H 0.07872 0.44966 0.14082 0.0
H1465 H 0.08795 0.3505 0.08172 0.0
H1466 H 0.11285 0.48435 0.15378 0.0
H1467 H 0.10831 0.43829 0.17544 0.0
H1468 H 0.0957 0.48253 0.16688 0.0
H1469 H 0.12393 0.3612 0.08301 0.0
H1470 H 0.11025 0.32045 0.07501 0.0
H1471 H 0.11976 0.31367 0.10401 0.0
C1472 C 0.10116 0.90694 0.1085 0.0
C1473 C 0.09849 0.87788 0.12944 0.0
C1474 C 0.11459 0.91224 0.09897 0.0
C1475 C 0.12561 0.88718 0.11035 0.0
C1476 C 0.12294 0.85719 0.13128 0.0
C1477 C 0.10943 0.85327 0.14073 0.0
C1478 C 0.11702 0.94529 0.07699 0.0
C1479 C 0.13436 0.82933 0.14374 0.0
C1480 C 0.15929 0.86949 0.07434 0.0
C1481 C 0.16793 0.90251 0.08625 0.0
C1482 C 0.14541 0.86445 0.08172 0.0
C1483 C 0.14003 0.89381 0.10109 0.0
C1484 C 0.14858 0.92873 0.11228 0.0
C1485 C 0.16244 0.93226 0.10493 0.0
C1486 C 0.13669 0.82638 0.06957 0.0
C1487 C 0.1432 0.96152 0.13255 0.0
H1488 H 0.09274 0.92618 0.09972 0.0
H1489 H 0.10741 0.8305 0.15679 0.0
H1490 H 0.12422 0.97405 0.08263 0.0
H1491 H 0.12192 0.92569 0.06123 0.0
H1492 H 0.10732 0.96173 0.07004 0.0
H1493 H 0.13048 0.80576 0.15897 0.0
H1494 H 0.1398 0.80723 0.12956 0.0
H1495 H 0.14206 0.8541 0.15191 0.0
H1496 H 0.16354 0.84605 0.06011 0.0
H1497 H 0.16909 0.95793 0.11415 0.0
H1498 H 0.12705 0.842 0.06196 0.0
H1499 H 0.13368 0.79962 0.08392 0.0
H1500 H 0.14221 0.80792 0.05405 0.0
H1501 H 0.13368 0.97964 0.12602 0.0
H1502 H 0.15087 0.98897 0.13803 0.0
H1503 H 0.14045 0.94057 0.14954 0.0
C1504 C 0.84695 0.6282 0.83443 0.0
C1505 C 0.83729 0.60243 0.84853 0.0
C1506 C 0.86107 0.62644 0.8404 0.0
C1507 C 0.86564 0.59718 0.86049 0.0
C1508 C 0.85594 0.56966 0.87412 0.0
C1509 C 0.84187 0.57317 0.86821 0.0
C1510 C 0.87103 0.65712 0.82579 0.0
C1511 C 0.86041 0.53705 0.8952 0.0
C1512 C 0.90376 0.56529 0.86342 0.0
C1513 C 0.90849 0.59567 0.88249 0.0
C1514 C 0.88981 0.56495 0.85624 0.0
C1515 C 0.88046 0.59671 0.86795 0.0
C1516 C 0.88524 0.62782 0.88705 0.0
C1517 C 0.89917 0.62645 0.89432 0.0
C1518 C 0.88505 0.53035 0.83631 0.0
C1519 C 0.87568 0.66293 0.89962 0.0
H1520 H 0.84341 0.65113 0.81933 0.0
H1521 H 0.83442 0.55296 0.87904 0.0
H1522 H 0.87605 0.68289 0.83871 0.0
H1523 H 0.87931 0.6349 0.8175 0.0
H1524 H 0.86588 0.67718 0.81041 0.0
H1525 H 0.85174 0.51539 0.90264 0.0
H1526 H 0.86864 0.51272 0.88853 0.0
H1527 H 0.86477 0.5583 0.9109 0.0
H1528 H 0.91095 0.5413 0.85431 0.0
H1529 H 0.90282 0.65029 0.90892 0.0
H1530 H 0.8807 0.54997 0.82002 0.0
H1531 H 0.87672 0.50747 0.84395 0.0
H1532 H 0.89355 0.50723 0.82947 0.0
H1533 H 0.87079 0.68602 0.88521 0.0
H1534 H 0.88113 0.68584 0.91347 0.0
H1535 H 0.86729 0.64371 0.90951 0.0
C1536 C 0.90999 0.11654 0.87192 0.0
C1537 C 0.91673 0.14479 0.85398 0.0
C1538 C 0.89565 0.11931 0.87526 0.0
C1539 C 0.8879 0.1521 0.86078 0.0
C1540 C 0.89468 0.18098 0.84273 0.0
C1541 C 0.90901 0.17651 0.8393 0.0
C1542 C 0.8888 0.08699 0.89423 0.0
C1543 C 0.88683 0.21713 0.82735 0.0
C1544 C 0.8493 0.13102 0.85408 0.0
C1545 C 0.84395 0.15978 0.87331 0.0
C1546 C 0.86357 0.12826 0.84975 0.0
C1547 C 0.87269 0.15593 0.86458 0.0
C1548 C 0.8673 0.18597 0.88362 0.0
C1549 C 0.853 0.18703 0.88799 0.0
C1550 C 0.86891 0.09488 0.82972 0.0
C1551 C 0.87663 0.21684 0.89944 0.0
H1552 H 0.91593 0.09178 0.88321 0.0
H1553 H 0.91422 0.19867 0.82556 0.0
H1554 H 0.88378 0.1085 0.90915 0.0
H1555 H 0.88061 0.06578 0.88492 0.0
H1556 H 0.89623 0.06222 0.90328 0.0
H1557 H 0.89365 0.23747 0.81444 0.0
H1558 H 0.87876 0.19917 0.81599 0.0
H1559 H 0.88151 0.24253 0.84006 0.0
H1560 H 0.84234 0.10967 0.84279 0.0
H1561 H 0.84888 0.20955 0.90275 0.0
H1562 H 0.87585 0.06812 0.83839 0.0
H1563 H 0.87506 0.11486 0.81564 0.0
H1564 H 0.86046 0.07592 0.81978 0.0
H1565 H 0.88363 0.1942 0.91082 0.0
H1566 H 0.87076 0.24035 0.91239 0.0
H1567 H 0.8832 0.23927 0.8871 0.0
C1568 C 0.15346 0.87765 0.68107 0.0
C1569 C 0.16161 0.84607 0.6671 0.0
C1570 C 0.13927 0.88265 0.67597 0.0
C1571 C 0.13307 0.8545 0.65691 0.0
C1572 C 0.14119 0.82118 0.64351 0.0
C1573 C 0.15538 0.81787 0.64853 0.0
C1574 C 0.13104 0.91921 0.69034 0.0
C1575 C 0.13496 0.78953 0.62355 0.0
C1576 C 0.09408 0.8383 0.6571 0.0
C1577 C 0.08995 0.86826 0.63734 0.0
C1578 C 0.10804 0.83352 0.66368 0.0
C1579 C 0.11814 0.86023 0.6506 0.0
C1580 C 0.114 0.89119 0.63089 0.0
C1581 C 0.09997 0.89437 0.62428 0.0
C1582 C 0.11202 0.79923 0.68434 0.0
C1583 C 0.1244 0.92097 0.61678 0.0
H1584 H 0.15828 0.89994 0.69521 0.0
H1585 H 0.16166 0.79335 0.63772 0.0
H1586 H 0.1269 0.94616 0.67707 0.0
H1587 H 0.12209 0.90214 0.69968 0.0
H1588 H 0.13731 0.93766 0.70487 0.0
H1589 H 0.14249 0.76341 0.616 0.0
H1590 H 0.12601 0.76985 0.63138 0.0
H1591 H 0.13109 0.81151 0.6077 0.0
H1592 H 0.08638 0.81782 0.66719 0.0
H1593 H 0.09681 0.91782 0.60913 0.0
H1594 H 0.11761 0.81826 0.69951 0.0
H1595 H 0.11912 0.7718 0.67674 0.0
H1596 H 0.10292 0.78112 0.6927 0.0
H1597 H 0.1305 0.94265 0.63024 0.0
H1598 H 0.11945 0.94513 0.60291 0.0
H1599 H 0.13173 0.89755 0.60664 0.0
C1600 C 0.0892 0.31049 0.60111 0.0
C1601 C 0.08338 0.34317 0.61799 0.0
C1602 C 0.10317 0.31316 0.59438 0.0
C1603 C 0.11149 0.3499 0.60445 0.0
C1604 C 0.10566 0.38312 0.62147 0.0
C1605 C 0.09169 0.3791 0.62822 0.0
C1606 C 0.10904 0.27649 0.57657 0.0
C1607 C 0.11416 0.42312 0.63236 0.0
C1608 C 0.15021 0.33045 0.60583 0.0
C1609 C 0.15455 0.35491 0.58419 0.0
C1610 C 0.13625 0.32869 0.61264 0.0
C1611 C 0.12637 0.35263 0.59767 0.0
C1612 C 0.1307 0.37795 0.57596 0.0
C1613 C 0.14475 0.37845 0.56934 0.0
C1614 C 0.13206 0.30061 0.63567 0.0
C1615 C 0.12048 0.40443 0.55973 0.0
H1616 H 0.08281 0.28261 0.59317 0.0
H1617 H 0.0872 0.4047 0.64109 0.0
H1618 H 0.11323 0.2942 0.55954 0.0
H1619 H 0.11771 0.25745 0.58576 0.0
H1620 H 0.10121 0.24994 0.57058 0.0
H1621 H 0.108 0.44673 0.64481 0.0
H1622 H 0.12289 0.40842 0.64339 0.0
H1623 H 0.11863 0.44482 0.61693 0.0
H1624 H 0.15774 0.31198 0.61733 0.0
H1625 H 0.14807 0.39758 0.55268 0.0
H1626 H 0.12474 0.27209 0.63022 0.0
H1627 H 0.12666 0.32405 0.64926 0.0
H1628 H 0.14103 0.28408 0.64531 0.0
H1629 H 0.1129 0.37914 0.55164 0.0
H1630 H 0.12555 0.42389 0.54406 0.0
H1631 H 0.11462 0.43026 0.57137 0.0
C1632 C 0.84254 0.11483 0.41853 0.0
C1633 C 0.83889 0.08931 0.39681 0.0
C1634 C 0.85641 0.12025 0.42562 0.0
C1635 C 0.86688 0.09895 0.41088 0.0
C1636 C 0.86322 0.07183 0.38937 0.0
C1637 C 0.84928 0.06771 0.38246 0.0
C1638 C 0.85986 0.15009 0.44841 0.0
C1639 C 0.87407 0.04795 0.37338 0.0
C1640 C 0.9029 0.15207 0.41047 0.0
C1641 C 0.91008 0.1213 0.42659 0.0
C1642 C 0.88878 0.14586 0.40574 0.0
C1643 C 0.88169 0.10737 0.41706 0.0
C1644 C 0.88882 0.07669 0.43377 0.0
C1645 C 0.90293 0.08429 0.43853 0.0
C1646 C 0.88152 0.17997 0.3882 0.0
C1647 C 0.88166 0.03493 0.44595 0.0
H1648 H 0.83457 0.13178 0.42966 0.0
H1649 H 0.8465 0.04775 0.36574 0.0
H1650 H 0.86632 0.12947 0.46175 0.0
H1651 H 0.86596 0.18159 0.44251 0.0
H1652 H 0.8505 0.16259 0.45847 0.0
H1653 H 0.86949 0.02532 0.3584 0.0
H1654 H 0.88068 0.07527 0.36434 0.0
H1655 H 0.88086 0.02556 0.38533 0.0
H1656 H 0.90839 0.1808 0.40123 0.0
H1657 H 0.90848 0.06014 0.4508 0.0
H1658 H 0.87232 0.19527 0.39761 0.0
H1659 H 0.87786 0.16068 0.37124 0.0
H1660 H 0.88833 0.20956 0.38205 0.0
H1661 H 0.87243 0.04712 0.45644 0.0
H1662 H 0.88853 0.01536 0.45912 0.0
H1663 H 0.87805 0.00992 0.43118 0.0
C1664 C 0.90845 0.65741 0.32188 0.0
C1665 C 0.91721 0.63163 0.33781 0.0
C1666 C 0.89417 0.65977 0.32669 0.0
C1667 C 0.88852 0.63442 0.34739 0.0
C1668 C 0.89733 0.60688 0.36288 0.0
C1669 C 0.91157 0.60653 0.35817 0.0
C1670 C 0.8852 0.69056 0.31015 0.0
C1671 C 0.89174 0.57804 0.38461 0.0
C1672 C 0.8545 0.66944 0.37823 0.0
C1673 C 0.84525 0.6377 0.36691 0.0
C1674 C 0.86851 0.67005 0.3713 0.0
C1675 C 0.87347 0.63702 0.35325 0.0
C1676 C 0.86413 0.60476 0.34187 0.0
C1677 C 0.85011 0.60603 0.34854 0.0
C1678 C 0.87802 0.70588 0.3834 0.0
C1679 C 0.86903 0.56794 0.3232 0.0
H1680 H 0.91284 0.67725 0.30631 0.0
H1681 H 0.91834 0.58635 0.37043 0.0
H1682 H 0.87681 0.66905 0.3017 0.0
H1683 H 0.88026 0.71868 0.32172 0.0
H1684 H 0.89114 0.70778 0.29475 0.0
H1685 H 0.89983 0.55599 0.39375 0.0
H1686 H 0.88725 0.60206 0.399 0.0
H1687 H 0.88336 0.55428 0.37797 0.0
H1688 H 0.85074 0.69427 0.39226 0.0
H1689 H 0.84299 0.58125 0.33984 0.0
H1690 H 0.88373 0.72587 0.36869 0.0
H1691 H 0.88577 0.68726 0.39518 0.0
H1692 H 0.87237 0.73161 0.39546 0.0
H1693 H 0.87428 0.58541 0.30712 0.0
H1694 H 0.86044 0.54584 0.3158 0.0
H1695 H 0.87668 0.54418 0.33234 0.0
C1696 C 0.5947 0.43209 0.6045 0.0
C1697 C 0.58868 0.39444 0.59111 0.0
C1698 C 0.60897 0.43401 0.60865 0.0
C1699 C 0.61747 0.39664 0.5998 0.0
C1700 C 0.61147 0.35874 0.58595 0.0
C1701 C 0.59714 0.35841 0.58147 0.0
C1702 C 0.61493 0.47575 0.62288 0.0
C1703 C 0.62012 0.31775 0.57664 0.0
C1704 C 0.65611 0.41984 0.59509 0.0
C1705 C 0.6609 0.40211 0.6182 0.0
C1706 C 0.64204 0.41806 0.58878 0.0
C1707 C 0.63254 0.39696 0.6057 0.0
C1708 C 0.63738 0.37821 0.62888 0.0
C1709 C 0.65147 0.38155 0.63499 0.0
C1710 C 0.63729 0.43963 0.56421 0.0
C1711 C 0.62766 0.35467 0.64728 0.0
H1712 H 0.58818 0.46018 0.61187 0.0
H1713 H 0.59248 0.32904 0.57133 0.0
H1714 H 0.61938 0.46341 0.64099 0.0
H1715 H 0.62341 0.49221 0.61188 0.0
H1716 H 0.60707 0.50342 0.62697 0.0
H1717 H 0.61398 0.29161 0.56568 0.0
H1718 H 0.62864 0.33105 0.56462 0.0
H1719 H 0.62489 0.29921 0.59292 0.0
H1720 H 0.66336 0.43588 0.58207 0.0
H1721 H 0.65514 0.36737 0.65276 0.0
H1722 H 0.62984 0.46871 0.56801 0.0
H1723 H 0.63185 0.41256 0.55272 0.0
H1724 H 0.64598 0.45424 0.55299 0.0
H1725 H 0.62005 0.38098 0.65425 0.0
H1726 H 0.63316 0.33924 0.66372 0.0
H1727 H 0.62181 0.32597 0.63771 0.0
C1728 C 0.61489 0.8918 0.6619 0.0
C1729 C 0.6054 0.86559 0.64774 0.0
C1730 C 0.62909 0.88936 0.65645 0.0
C1731 C 0.63382 0.85885 0.63697 0.0
C1732 C 0.62424 0.83045 0.62363 0.0
C1733 C 0.61014 0.83486 0.62887 0.0
C1734 C 0.63894 0.9211 0.67064 0.0
C1735 C 0.62883 0.79631 0.60332 0.0
C1736 C 0.66704 0.88474 0.60144 0.0
C1737 C 0.67644 0.85501 0.61379 0.0
C1738 C 0.65324 0.88739 0.60934 0.0
C1739 C 0.64863 0.85828 0.62947 0.0
C1740 C 0.65806 0.82737 0.64161 0.0
C1741 C 0.67193 0.8268 0.63393 0.0
C1742 C 0.64362 0.92171 0.59631 0.0
C1743 C 0.65346 0.79445 0.66245 0.0
H1744 H 0.61116 0.91592 0.6763 0.0
H1745 H 0.60274 0.81444 0.618 0.0
H1746 H 0.64741 0.89977 0.67897 0.0
H1747 H 0.64372 0.94684 0.6574 0.0
H1748 H 0.63374 0.94124 0.68593 0.0
H1749 H 0.62026 0.77335 0.5966 0.0
H1750 H 0.63294 0.81647 0.58702 0.0
H1751 H 0.63726 0.77323 0.61043 0.0
H1752 H 0.67059 0.90709 0.58611 0.0
H1753 H 0.67922 0.80377 0.64346 0.0
H1754 H 0.63867 0.94537 0.61039 0.0
H1755 H 0.63527 0.90184 0.58666 0.0
H1756 H 0.64902 0.94406 0.58215 0.0
H1757 H 0.64911 0.81531 0.6783 0.0
H1758 H 0.66203 0.77213 0.66973 0.0
H1759 H 0.64515 0.77073 0.65546 0.0
C1760 C 0.41453 0.61705 0.3379 0.0
C1761 C 0.41602 0.59574 0.36166 0.0
C1762 C 0.40141 0.6248 0.32736 0.0
C1763 C 0.38951 0.61026 0.34074 0.0
C1764 C 0.391 0.58742 0.36441 0.0
C1765 C 0.40422 0.58081 0.37467 0.0
C1766 C 0.40028 0.64982 0.30228 0.0
C1767 C 0.37858 0.57076 0.37915 0.0
C1768 C 0.35478 0.67034 0.33221 0.0
C1769 C 0.34753 0.63662 0.31797 0.0
C1770 C 0.36868 0.6634 0.33853 0.0
C1771 C 0.37546 0.62123 0.33084 0.0
C1772 C 0.36839 0.5882 0.31531 0.0
C1773 C 0.35451 0.5965 0.30888 0.0
C1774 C 0.37589 0.70004 0.35465 0.0
C1775 C 0.37519 0.54263 0.30689 0.0
H1776 H 0.42361 0.62882 0.32776 0.0
H1777 H 0.40532 0.56409 0.39297 0.0
H1778 H 0.39405 0.62828 0.28898 0.0
H1779 H 0.39488 0.68428 0.30478 0.0
H1780 H 0.41053 0.65675 0.29367 0.0
H1781 H 0.38151 0.55091 0.39643 0.0
H1782 H 0.37222 0.60181 0.38472 0.0
H1783 H 0.37203 0.54748 0.36724 0.0
H1784 H 0.3494 0.70142 0.33926 0.0
H1785 H 0.34889 0.57004 0.29815 0.0
H1786 H 0.38602 0.70949 0.34636 0.0
H1787 H 0.37785 0.68504 0.37365 0.0
H1788 H 0.36969 0.73301 0.35681 0.0
H1789 H 0.38548 0.54998 0.29867 0.0
H1790 H 0.36888 0.52323 0.29276 0.0
H1791 H 0.37677 0.51912 0.32343 0.0
C1792 C 0.41918 0.14302 0.40907 0.0
C1793 C 0.42303 0.12572 0.38531 0.0
C1794 C 0.40532 0.1429 0.41678 0.0
C1795 C 0.39511 0.12396 0.40056 0.0
C1796 C 0.39902 0.10522 0.37682 0.0
C1797 C 0.41291 0.10688 0.36935 0.0
C1798 C 0.40155 0.16433 0.44193 0.0
C1799 C 0.38849 0.08395 0.35914 0.0
C1800 C 0.35941 0.09187 0.42567 0.0
C1801 C 0.35152 0.12946 0.41613 0.0
C1802 C 0.37372 0.08983 0.42117 0.0
C1803 C 0.38023 0.12693 0.40746 0.0
C1804 C 0.37233 0.16617 0.39908 0.0
C1805 C 0.35806 0.16655 0.40318 0.0
C1806 C 0.38175 0.04699 0.42999 0.0
C1807 C 0.37886 0.20713 0.38505 0.0
H1808 H 0.42699 0.15767 0.42146 0.0
H1809 H 0.41587 0.09299 0.35108 0.0
H1810 H 0.39477 0.19564 0.43898 0.0
H1811 H 0.39567 0.13833 0.4534 0.0
H1812 H 0.41076 0.17582 0.45277 0.0
H1813 H 0.39333 0.06737 0.34234 0.0
H1814 H 0.38229 0.05661 0.36911 0.0
H1815 H 0.38126 0.11198 0.35267 0.0
H1816 H 0.3543 0.06298 0.43546 0.0
H1817 H 0.35194 0.19581 0.39594 0.0
H1818 H 0.39089 0.05823 0.44104 0.0
H1819 H 0.38559 0.02693 0.41341 0.0
H1820 H 0.37539 0.02272 0.44174 0.0
H1821 H 0.38787 0.22092 0.39566 0.0
H1822 H 0.37151 0.23684 0.38187 0.0
H1823 H 0.38267 0.1947 0.36648 0.0
C1824 C 0.65569 0.84757 0.1678 0.0
C1825 C 0.66642 0.82243 0.15622 0.0
C1826 C 0.64224 0.84645 0.15782 0.0
C1827 C 0.63944 0.81877 0.13606 0.0
C1828 C 0.65013 0.79149 0.12509 0.0
C1829 C 0.6635 0.79406 0.13513 0.0
C1830 C 0.63116 0.8764 0.16994 0.0
C1831 C 0.64753 0.76061 0.10231 0.0
C1832 C 0.60168 0.79154 0.12298 0.0
C1833 C 0.59839 0.82575 0.10469 0.0
C1834 C 0.61511 0.78773 0.13271 0.0
C1835 C 0.62544 0.81957 0.12434 0.0
C1836 C 0.62228 0.85317 0.10525 0.0
C1837 C 0.60881 0.85556 0.09548 0.0
C1838 C 0.61811 0.75064 0.15254 0.0
C1839 C 0.63298 0.888 0.09594 0.0
H1840 H 0.65793 0.86991 0.18393 0.0
H1841 H 0.67177 0.77442 0.12616 0.0
H1842 H 0.62743 0.90343 0.15631 0.0
H1843 H 0.62221 0.8539 0.17512 0.0
H1844 H 0.6349 0.89495 0.18711 0.0
H1845 H 0.65666 0.73875 0.09726 0.0
H1846 H 0.63867 0.73656 0.1058 0.0
H1847 H 0.64482 0.78325 0.08592 0.0
H1848 H 0.59365 0.76837 0.13014 0.0
H1849 H 0.60628 0.88241 0.08157 0.0
H1850 H 0.62051 0.76829 0.1707 0.0
H1851 H 0.62728 0.7294 0.14714 0.0
H1852 H 0.60927 0.7261 0.15548 0.0
H1853 H 0.63636 0.9111 0.11172 0.0
H1854 H 0.62901 0.91092 0.08051 0.0
H1855 H 0.64221 0.86871 0.08904 0.0
C1856 C 0.65809 0.42117 0.11464 0.0
C1857 C 0.66141 0.38833 0.09573 0.0
C1858 C 0.64464 0.42439 0.12426 0.0
C1859 C 0.63439 0.39262 0.11548 0.0
C1860 C 0.63766 0.35981 0.09606 0.0
C1861 C 0.65111 0.35863 0.0861 0.0
C1862 C 0.64149 0.4611 0.1442 0.0
C1863 C 0.62713 0.32451 0.08662 0.0
C1864 C 0.60435 0.3654 0.15958 0.0
C1865 C 0.59355 0.38991 0.14788 0.0
C1866 C 0.6177 0.36582 0.14918 0.0
C1867 C 0.62036 0.39281 0.12711 0.0
C1868 C 0.60957 0.4194 0.11597 0.0
C1869 C 0.59623 0.41682 0.1262 0.0
C1870 C 0.62882 0.33599 0.16127 0.0
C1871 C 0.61205 0.45011 0.09308 0.0
H1872 H 0.6661 0.44412 0.12209 0.0
H1873 H 0.65376 0.33271 0.07178 0.0
H1874 H 0.63224 0.48198 0.13883 0.0
H1875 H 0.63916 0.44319 0.16232 0.0
H1876 H 0.65024 0.486 0.14722 0.0
H1877 H 0.63126 0.30161 0.07133 0.0
H1878 H 0.62372 0.30143 0.1024 0.0
H1879 H 0.61788 0.34338 0.07948 0.0
H1880 H 0.6022 0.34403 0.17612 0.0
H1881 H 0.58785 0.43584 0.11718 0.0
H1882 H 0.63764 0.35876 0.16689 0.0
H1883 H 0.63278 0.30967 0.14746 0.0
H1884 H 0.62505 0.31664 0.17816 0.0
H1885 H 0.62082 0.47464 0.09656 0.0
H1886 H 0.60284 0.47148 0.08794 0.0
H1887 H 0.61488 0.42749 0.07677 0.0
C1888 C 0.40444 0.14475 0.9183 0.0
C1889 C 0.41381 0.11265 0.90764 0.0
C1890 C 0.39041 0.14387 0.91144 0.0
C1891 C 0.38562 0.10908 0.89417 0.0
C1892 C 0.39501 0.07559 0.88408 0.0
C1893 C 0.40901 0.07831 0.89062 0.0
C1894 C 0.38079 0.18092 0.92212 0.0
C1895 C 0.3903 0.03699 0.86627 0.0
C1896 C 0.34727 0.0802 0.89262 0.0
C1897 C 0.34304 0.10286 0.87039 0.0
C1898 C 0.36109 0.08175 0.90054 0.0
C1899 C 0.37084 0.10786 0.88629 0.0
C1900 C 0.36657 0.13144 0.864 0.0
C1901 C 0.35275 0.12803 0.85611 0.0
C1902 C 0.36528 0.05485 0.92394 0.0
C1903 C 0.37656 0.16055 0.84858 0.0
H1904 H 0.40817 0.17157 0.93129 0.0
H1905 H 0.41624 0.05321 0.88249 0.0
H1906 H 0.37619 0.20198 0.90656 0.0
H1907 H 0.37218 0.16352 0.93231 0.0
H1908 H 0.38612 0.20559 0.93525 0.0
H1909 H 0.39875 0.012 0.86132 0.0
H1910 H 0.38174 0.01643 0.87487 0.0
H1911 H 0.3863 0.05309 0.84865 0.0
H1912 H 0.33978 0.06058 0.90367 0.0
H1913 H 0.34948 0.14604 0.83907 0.0
H1914 H 0.36972 0.07966 0.93801 0.0
H1915 H 0.37342 0.02857 0.91921 0.0
H1916 H 0.35648 0.03577 0.93273 0.0
H1917 H 0.38159 0.18769 0.86068 0.0
H1918 H 0.37145 0.17883 0.83255 0.0
H1919 H 0.38483 0.13732 0.84103 0.0
C1920 C 0.40524 0.59935 0.81703 0.0
C1921 C 0.41483 0.63167 0.82682 0.0
C1922 C 0.39135 0.60057 0.82477 0.0
C1923 C 0.38692 0.63588 0.84207 0.0
C1924 C 0.39652 0.66964 0.85122 0.0
C1925 C 0.41038 0.66662 0.84381 0.0
C1926 C 0.38151 0.56326 0.81505 0.0
C1927 C 0.3922 0.70876 0.86904 0.0
C1928 C 0.3486 0.66442 0.84637 0.0
C1929 C 0.34492 0.6422 0.86905 0.0
C1930 C 0.36223 0.66283 0.83741 0.0
C1931 C 0.37234 0.63718 0.85107 0.0
C1932 C 0.3686 0.61408 0.87382 0.0
C1933 C 0.35498 0.61747 0.88273 0.0
C1934 C 0.36586 0.68919 0.81352 0.0
C1935 C 0.37898 0.58549 0.88866 0.0
H1936 H 0.4087 0.57206 0.80407 0.0
H1937 H 0.41778 0.69186 0.85127 0.0
H1938 H 0.37732 0.54242 0.83108 0.0
H1939 H 0.37264 0.58039 0.80549 0.0
H1940 H 0.38653 0.53841 0.80163 0.0
H1941 H 0.40073 0.734 0.87309 0.0
H1942 H 0.38341 0.72893 0.86095 0.0
H1943 H 0.38864 0.69316 0.8871 0.0
H1944 H 0.34085 0.68371 0.83579 0.0
H1945 H 0.35212 0.59984 0.90013 0.0
H1946 H 0.37 0.6641 0.79931 0.0
H1947 H 0.37405 0.71572 0.81746 0.0
H1948 H 0.35684 0.70791 0.80527 0.0
H1949 H 0.38375 0.55811 0.87639 0.0
H1950 H 0.37426 0.56757 0.9052 0.0
H1951 H 0.38738 0.60902 0.8954 0.0
C1952 C 0.03392 0.01973 0.1434 0.0
C1953 C 0.04539 0.00505 0.15743 0.0
C1954 C 0.03107 0.06813 0.13991 0.0
C1955 C 0.04005 0.10251 0.1504 0.0
C1956 C 0.05111 0.08787 0.166 0.0
C1957 C 0.05361 0.03916 0.16946 0.0
C1958 C 0.01905 0.08234 0.12346 0.0
C1959 C 0.06097 0.12344 0.17738 0.0
C1960 C 0.04556 0.21255 0.11082 0.0
C1961 C 0.03793 0.24688 0.12393 0.0
C1962 C 0.04637 0.16569 0.11945 0.0
C1963 C 0.03925 0.15255 0.14165 0.0
C1964 C 0.03143 0.18688 0.15496 0.0
C1965 C 0.03092 0.23392 0.14599 0.0
C1966 C 0.05492 0.13026 0.10479 0.0
C1967 C 0.02361 0.17384 0.17854 0.0
H1968 H 0.02743 0.99337 0.13435 0.0
H1969 H 0.06245 0.02789 0.18043 0.0
H1970 H 0.01323 0.1121 0.13211 0.0
H1971 H 0.02295 0.09487 0.10496 0.0
H1972 H 0.01187 0.05221 0.12012 0.0
H1973 H 0.06773 0.10701 0.19186 0.0
H1974 H 0.06759 0.1385 0.1623 0.0
H1975 H 0.05526 0.1534 0.18608 0.0
H1976 H 0.05106 0.2224 0.09383 0.0
H1977 H 0.02503 0.26043 0.15616 0.0
H1978 H 0.04829 0.10067 0.09811 0.0
H1979 H 0.06296 0.11463 0.11714 0.0
H1980 H 0.06005 0.14658 0.0882 0.0
H1981 H 0.01608 0.14521 0.17433 0.0
H1982 H 0.01799 0.20466 0.18665 0.0
H1983 H 0.03082 0.15976 0.19295 0.0
C1984 C 0.22491 0.0527 0.11081 0.0
C1985 C 0.21774 0.03702 0.08946 0.0
C1986 C 0.22401 0.10015 0.11873 0.0
C1987 C 0.21552 0.13219 0.10522 0.0
C1988 C 0.20898 0.11724 0.08273 0.0
C1989 C 0.21028 0.0698 0.07499 0.0
C1990 C 0.23139 0.11509 0.1425 0.0
C1991 C 0.19973 0.15021 0.06796 0.0
C1992 C 0.19752 0.22627 0.14411 0.0
C1993 C 0.20497 0.26724 0.13784 0.0
C1994 C 0.20082 0.18225 0.13341 0.0
C1995 C 0.21201 0.17901 0.11636 0.0
C1996 C 0.21966 0.2202 0.11009 0.0
C1997 C 0.21595 0.26407 0.12076 0.0
C1998 C 0.19227 0.13921 0.14027 0.0
C1999 C 0.23178 0.21781 0.09231 0.0
H2000 H 0.2308 0.02746 0.1219 0.0
H2001 H 0.20471 0.05776 0.05847 0.0
H2002 H 0.23662 0.14979 0.13975 0.0
H2003 H 0.22377 0.11963 0.15791 0.0
H2004 H 0.23915 0.08838 0.14857 0.0
H2005 H 0.19678 0.135 0.0494 0.0
H2006 H 0.19017 0.15703 0.07889 0.0
H2007 H 0.20483 0.18499 0.06482 0.0
H2008 H 0.18897 0.22871 0.1572 0.0
H2009 H 0.22176 0.29576 0.11599 0.0
H2010 H 0.19888 0.11193 0.14933 0.0
H2011 H 0.18783 0.12304 0.12301 0.0
H2012 H 0.1837 0.14809 0.15334 0.0
H2013 H 0.23959 0.19257 0.0997 0.0
H2014 H 0.23675 0.25305 0.08957 0.0
H2015 H 0.22841 0.20418 0.0737 0.0
C2016 C 0.95014 0.77912 0.90112 0.0
C2017 C 0.95833 0.74513 0.88897 0.0
C2018 C 0.95159 0.82765 0.89572 0.0
C2019 C 0.96173 0.84254 0.87821 0.0
C2020 C 0.97034 0.80844 0.8665 0.0
C2021 C 0.96842 0.75997 0.87179 0.0
C2022 C 0.94201 0.86285 0.90819 0.0
C2023 C 0.98146 0.82312 0.84817 0.0
C2024 C 0.95554 0.96038 0.84543 0.0
C2025 C 0.96322 0.99165 0.86045 0.0
C2026 C 0.95512 0.91162 0.85082 0.0
C2027 C 0.96282 0.89362 0.87137 0.0
C2028 C 0.971 0.92481 0.88604 0.0
C2029 C 0.97096 0.97367 0.8806 0.0
C2030 C 0.94604 0.87965 0.83507 0.0
C2031 C 0.97961 0.90669 0.90772 0.0
H2032 H 0.94227 0.76765 0.91431 0.0
H2033 H 0.97483 0.73368 0.86251 0.0
H2034 H 0.94804 0.89004 0.91856 0.0
H2035 H 0.93589 0.88176 0.89363 0.0
H2036 H 0.93478 0.84548 0.92157 0.0
H2037 H 0.98792 0.79258 0.84208 0.0
H2038 H 0.97671 0.83943 0.83123 0.0
H2039 H 0.98823 0.85039 0.85685 0.0
H2040 H 0.94948 0.97428 0.82992 0.0
H2041 H 0.97697 -0.00217 0.89213 0.0
H2042 H 0.93798 0.86333 0.84714 0.0
H2043 H 0.95221 0.85023 0.82692 0.0
H2044 H 0.9409 0.89913 0.81946 0.0
H2045 H 0.97278 0.89258 0.92273 0.0
H2046 H 0.98623 0.93493 0.91596 0.0
H2047 H 0.98627 0.87696 0.90136 0.0
C2048 C 0.78426 0.99671 0.86241 0.0
C2049 C 0.79366 0.01405 0.88023 0.0
C2050 C 0.78271 0.94764 0.85841 0.0
C2051 C 0.79095 0.91531 0.87227 0.0
C2052 C 0.80018 0.93263 0.89079 0.0
C2053 C 0.80134 0.98181 0.89469 0.0
C2054 C 0.77261 0.93048 0.83878 0.0
C2055 C 0.80929 0.89936 0.90569 0.0
C2056 C 0.78256 0.78303 0.8729 0.0
C2057 C 0.79138 0.76604 0.85401 0.0
C2058 C 0.78211 0.83175 0.87883 0.0
C2059 C 0.79085 0.86384 0.86584 0.0
C2060 C 0.79976 0.84672 0.84679 0.0
C2061 C 0.79984 0.79813 0.84099 0.0
C2062 C 0.77233 0.84889 0.899 0.0
C2063 C 0.80939 0.87963 0.83274 0.0
H2064 H 0.77822 0.02154 0.85133 0.0
H2065 H 0.80863 0.99508 0.90849 0.0
H2066 H 0.7783 0.91463 0.82272 0.0
H2067 H 0.76588 0.9023 0.84674 0.0
H2068 H 0.766 0.9597 0.8315 0.0
H2069 H 0.81525 0.91823 0.92052 0.0
H2070 H 0.80301 0.87117 0.91474 0.0
H2071 H 0.81666 0.88151 0.89281 0.0
H2072 H 0.77598 0.75831 0.88295 0.0
H2073 H 0.80673 0.78514 0.82646 0.0
H2074 H 0.76544 0.87679 0.89124 0.0
H2075 H 0.77823 0.86523 0.91467 0.0
H2076 H 0.76589 0.81966 0.90673 0.0
H2077 H 0.80339 0.90768 0.82296 0.0
H2078 H 0.81575 0.86054 0.81857 0.0
H2079 H 0.81639 0.89768 0.84623 0.0
C2080 C 0.03409 0.71334 0.59362 0.0
C2081 C 0.03955 0.73285 0.61577 0.0
C2082 C 0.03175 0.66422 0.5915 0.0
C2083 C 0.03548 0.63386 0.61166 0.0
C2084 C 0.04102 0.65354 0.63408 0.0
C2085 C 0.04274 0.70297 0.63603 0.0
C2086 C 0.02536 0.6448 0.56769 0.0
C2087 C 0.04551 0.6223 0.65572 0.0
C2088 C 0.02215 0.50787 0.61998 0.0
C2089 C 0.03314 0.48116 0.61035 0.0
C2090 C 0.02235 0.55779 0.61903 0.0
C2091 C 0.03408 0.58135 0.60916 0.0
C2092 C 0.04498 0.55439 0.5986 0.0
C2093 C 0.04426 0.50456 0.59894 0.0
C2094 C 0.01029 0.58526 0.62958 0.0
C2095 C 0.05783 0.57802 0.58852 0.0
H2096 H 0.03152 0.73663 0.57802 0.0
H2097 H 0.04706 0.71813 0.65307 0.0
H2098 H 0.03285 0.62161 0.55779 0.0
H2099 H 0.01626 0.62257 0.57238 0.0
H2100 H 0.02209 0.67348 0.5546 0.0
H2101 H 0.04989 0.64315 0.67161 0.0
H2102 H 0.03664 0.60137 0.66283 0.0
H2103 H 0.05342 0.59659 0.64914 0.0
H2104 H 0.01354 0.48972 0.6288 0.0
H2105 H 0.05285 0.48391 0.5918 0.0
H2106 H 0.00717 0.61391 0.61637 0.0
H2107 H 0.01333 0.60243 0.64755 0.0
H2108 H 1.00125 0.562 0.63323 0.0
H2109 H 0.05512 0.60528 0.57427 0.0
H2110 H 0.06506 0.55213 0.57984 0.0
H2111 H 0.06326 0.59653 0.60411 0.0
C2112 C 0.19903 0.52438 0.58841 0.0
C2113 C 0.20687 0.48487 0.59564 0.0
C2114 C 0.20097 0.56867 0.59992 0.0
C2115 C 0.21121 0.57374 0.61874 0.0
C2116 C 0.21948 0.53431 0.62557 0.0
C2117 C 0.2171 0.49007 0.61411 0.0
C2118 C 0.1918 0.60973 0.59239 0.0
C2119 C 0.23069 0.53877 0.64515 0.0
C2120 C 0.22075 0.70229 0.63055 0.0
C2121 C 0.21253 0.71296 0.65149 0.0
C2122 C 0.22116 0.65609 0.62065 0.0
C2123 C 0.21288 0.62021 0.63163 0.0
C2124 C 0.20505 0.63035 0.6535 0.0
C2125 C 0.20509 0.67661 0.66335 0.0
C2126 C 0.22991 0.6463 0.5977 0.0
C2127 C 0.19591 0.59322 0.66551 0.0
H2128 H 0.19106 0.52037 0.57424 0.0
H2129 H 0.22322 0.45953 0.61963 0.0
H2130 H 0.18599 0.62269 0.60904 0.0
H2131 H 0.19815 0.63976 0.5854 0.0
H2132 H 0.1843 0.59976 0.57748 0.0
H2133 H 0.23677 0.5055 0.64717 0.0
H2134 H 0.2378 0.56819 0.6401 0.0
H2135 H 0.22608 0.54768 0.66369 0.0
H2136 H 0.22661 0.73035 0.6215 0.0
H2137 H 0.19869 0.68488 0.6795 0.0
H2138 H 0.22315 0.64108 0.58106 0.0
H2139 H 0.23595 0.61315 0.60029 0.0
H2140 H 0.23713 0.67597 0.59359 0.0
H2141 H 0.18738 0.58411 0.65243 0.0
H2142 H 0.19138 0.60567 0.68356 0.0
H2143 H 0.2018 0.56012 0.6691 0.0
C2144 C 0.9584 0.46065 0.34951 0.0
C2145 C 0.96575 0.49835 0.36036 0.0
C2146 C 0.9587 0.41511 0.3602 0.0
C2147 C 0.96677 0.40683 0.382 0.0
C2148 C 0.97455 0.44443 0.39262 0.0
C2149 C 0.97383 0.48998 0.38181 0.0
C2150 C 0.95007 0.37615 0.34853 0.0
C2151 C 0.98348 0.43663 0.41554 0.0
C2152 C 0.95527 0.30176 0.42149 0.0
C2153 C 0.96358 0.26526 0.41189 0.0
C2154 C 0.95655 0.34851 0.41259 0.0
C2155 C 0.96657 0.35908 0.39401 0.0
C2156 C 0.97553 0.32287 0.38534 0.0
C2157 C 0.97383 0.2762 0.39419 0.0
C2158 C 0.94665 0.38596 0.42201 0.0
C2159 C 0.98654 0.33301 0.36595 0.0
H2160 H 0.95208 0.46704 0.33301 0.0
H2161 H 0.97957 0.51906 0.39016 0.0
H2162 H 0.95672 0.3457 0.34316 0.0
H2163 H 0.94247 0.36285 0.36248 0.0
H2164 H 0.94442 0.38843 0.33153 0.0
H2165 H 0.98957 0.46876 0.42052 0.0
H2166 H 0.97695 0.42684 0.43189 0.0
H2167 H 0.99069 0.40664 0.41221 0.0
H2168 H 0.9473 0.29338 0.43512 0.0
H2169 H 0.98033 0.24807 0.38687 0.0
H2170 H 0.93984 0.3975 0.40636 0.0
H2171 H 0.95237 0.41777 0.42859 0.0
H2172 H 0.94009 0.37275 0.43769 0.0
H2173 H 0.98163 0.34082 0.34753 0.0
H2174 H 0.99369 0.30252 0.36348 0.0
H2175 H 0.9926 0.36483 0.37143 0.0
C2176 C 0.78476 0.25998 0.39068 0.0
C2177 C 0.79407 0.23623 0.37489 0.0
C2178 C 0.78459 0.30989 0.3919 0.0
C2179 C 0.79411 0.33639 0.37731 0.0
C2180 C 0.8034 0.31251 0.36112 0.0
C2181 C 0.80319 0.26275 0.35996 0.0
C2182 C 0.7744 0.33424 0.40908 0.0
C2183 C 0.81385 0.33944 0.34555 0.0
C2184 C 0.78912 0.46821 0.3645 0.0
C2185 C 0.79784 0.48857 0.38259 0.0
C2186 C 0.78746 0.41867 0.36304 0.0
C2187 C 0.79488 0.38896 0.37978 0.0
C2188 C 0.80362 0.40943 0.39819 0.0
C2189 C 0.8049 0.45902 0.39949 0.0
C2190 C 0.7779 0.39809 0.34341 0.0
C2191 C 0.81189 0.37892 0.4161 0.0
H2192 H 0.77766 0.23956 0.40215 0.0
H2193 H 0.81044 0.24453 0.34778 0.0
H2194 H 0.77999 0.3533 0.42426 0.0
H2195 H 0.76842 0.36117 0.3984 0.0
H2196 H 0.76709 0.30873 0.41787 0.0
H2197 H 0.82013 0.31555 0.33346 0.0
H2198 H 0.80858 0.36576 0.33333 0.0
H2199 H 0.82089 0.35949 0.35815 0.0
H2200 H 0.78358 0.491 0.35151 0.0
H2201 H 0.81168 0.47463 0.41347 0.0
H2202 H 0.7703 0.374 0.35245 0.0
H2203 H 0.78389 0.37653 0.32976 0.0
H2204 H 0.77223 0.4261 0.33289 0.0
H2205 H 0.80493 0.35511 0.42687 0.0
H2206 H 0.81799 0.40046 0.42965 0.0
H2207 H 0.81906 0.35596 0.40528 0.0
C2208 C 0.56006 0.0501 0.6321 0.0
C2209 C 0.55466 0.02241 0.65164 0.0
C2210 C 0.55729 0.09886 0.63069 0.0
C2211 C 0.54853 0.12012 0.64883 0.0
C2212 C 0.54317 0.09241 0.66884 0.0
C2213 C 0.54648 0.0438 0.67021 0.0
C2214 C 0.56352 0.12739 0.6094 0.0
C2215 C 0.53353 0.11358 0.68812 0.0
C2216 C 0.55056 0.25447 0.6476 0.0
C2217 C 0.54092 0.26453 0.62873 0.0
C2218 C 0.55254 0.20755 0.65593 0.0
C2219 C 0.5444 0.17058 0.6455 0.0
C2220 C 0.53368 0.18173 0.62838 0.0
C2221 C 0.53227 0.22855 0.61978 0.0
C2222 C 0.56424 0.19708 0.67383 0.0
C2223 C 0.52449 0.14364 0.61743 0.0
H2224 H 0.56652 0.03357 0.61791 0.0
H2225 H 0.54226 0.02219 0.68527 0.0
H2226 H 0.55525 0.13963 0.59649 0.0
H2227 H 0.56876 0.15948 0.6169 0.0
H2228 H 0.57109 0.10644 0.59829 0.0
H2229 H 0.53124 0.08841 0.7037 0.0
H2230 H 0.53798 0.14656 0.69619 0.0
H2231 H 0.52368 0.1235 0.67885 0.0
H2232 H 0.55735 0.28246 0.6542 0.0
H2233 H 0.52482 0.23667 0.60515 0.0
H2234 H 0.57297 0.18154 0.66311 0.0
H2235 H 0.5611 0.17069 0.68826 0.0
H2236 H 0.56795 0.22973 0.68348 0.0
H2237 H 0.53034 0.12291 0.60321 0.0
H2238 H 0.51525 0.15897 0.60811 0.0
H2239 H 0.52108 0.11855 0.63231 0.0
C2240 C 0.70452 0.22646 0.63741 0.0
C2241 C 0.7112 0.26068 0.6226 0.0
C2242 C 0.70706 0.17787 0.6339 0.0
C2243 C 0.71673 0.16328 0.61548 0.0
C2244 C 0.72378 0.19776 0.60091 0.0
C2245 C 0.72081 0.24616 0.60446 0.0
C2246 C 0.69912 0.14213 0.64943 0.0
C2247 C 0.73431 0.18349 0.5814 0.0
C2248 C 0.72908 0.0354 0.62079 0.0
C2249 C 0.72064 0.01285 0.60301 0.0
C2250 C 0.7283 0.08483 0.62446 0.0
C2251 C 0.71869 0.11184 0.61035 0.0
C2252 C 0.71032 0.08923 0.5921 0.0
C2253 C 0.7115 0.04011 0.58851 0.0
C2254 C 0.73755 0.108 0.64376 0.0
C2255 C 0.69978 0.11662 0.57697 0.0
H2256 H 0.69707 0.23764 0.65143 0.0
H2257 H 0.72608 0.27265 0.59318 0.0
H2258 H 0.69275 0.11951 0.63686 0.0
H2259 H 0.70634 0.11829 0.65958 0.0
H2260 H 0.69223 0.1594 0.66342 0.0
H2261 H 0.73963 0.21471 0.57303 0.0
H2262 H 0.74215 0.15969 0.58994 0.0
H2263 H 0.72921 0.1633 0.56605 0.0
H2264 H 0.73619 0.0144 0.63195 0.0
H2265 H 0.7049 0.02281 0.57479 0.0
H2266 H 0.73123 0.12227 0.65945 0.0
H2267 H 0.74312 0.13846 0.6352 0.0
H2268 H 0.74522 0.08273 0.65167 0.0
H2269 H 0.69201 0.13246 0.58983 0.0
H2270 H 0.69433 0.09384 0.56307 0.0
H2271 H 0.70481 0.14632 0.56675 0.0
C2272 C 0.47587 0.74605 0.37443 0.0
C2273 C 0.46507 0.72953 0.38965 0.0
C2274 C 0.47824 0.79501 0.3714 0.0
C2275 C 0.46946 0.82801 0.38359 0.0
C2276 C 0.45877 0.81143 0.39949 0.0
C2277 C 0.45677 0.76239 0.40245 0.0
C2278 C 0.48986 0.8114 0.35459 0.0
C2279 C 0.44908 0.84547 0.41258 0.0
C2280 C 0.47831 0.95912 0.39034 0.0
C2281 C 0.47057 0.97902 0.37068 0.0
C2282 C 0.47853 0.90966 0.39421 0.0
C2283 C 0.47067 0.87974 0.37825 0.0
C2284 C 0.46316 0.89965 0.35796 0.0
C2285 C 0.46328 0.94898 0.35434 0.0
C2286 C 0.48682 0.88958 0.41579 0.0
C2287 C 0.45453 0.86904 0.34067 0.0
H2288 H 0.48237 0.72073 0.36463 0.0
H2289 H 0.44841 0.74979 0.41425 0.0
H2290 H 0.48557 0.82899 0.3376 0.0
H2291 H 0.49631 0.83804 0.36453 0.0
H2292 H 0.49654 0.78148 0.34845 0.0
H2293 H 0.44173 0.82689 0.42526 0.0
H2294 H 0.45501 0.87168 0.42382 0.0
H2295 H 0.4431 0.86567 0.39833 0.0
H2296 H 0.484 0.98222 0.40295 0.0
H2297 H 0.45727 0.96416 0.33911 0.0
H2298 H 0.49352 0.86022 0.40907 0.0
H2299 H 0.47977 0.87445 0.43016 0.0
H2300 H 0.49337 0.91698 0.42496 0.0
H2301 H 0.46093 0.84042 0.33232 0.0
H2302 H 0.44977 0.88986 0.32516 0.0
H2303 H 0.44619 0.85165 0.35163 0.0
C2304 C 0.28673 0.78717 0.35114 0.0
C2305 C 0.29537 0.77183 0.33165 0.0
C2306 C 0.28654 0.83501 0.35856 0.0
C2307 C 0.29556 0.8677 0.34672 0.0
C2308 C 0.30374 0.85283 0.32607 0.0
C2309 C 0.3034 0.80504 0.31854 0.0
C2310 C 0.27737 0.84982 0.38015 0.0
C2311 C 0.31371 0.88632 0.31331 0.0
C2312 C 0.29274 -0.00016 0.36102 0.0
C2313 C 0.30204 0.00429 0.38109 0.0
C2314 C 0.29039 0.95546 0.34965 0.0
C2315 C 0.29784 0.91522 0.35815 0.0
C2316 C 0.30747 0.91996 0.37805 0.0
C2317 C 0.3093 0.96432 0.38951 0.0
C2318 C 0.27979 0.95139 0.32895 0.0
C2319 C 0.31586 0.87814 0.38727 0.0
H2320 H 0.28044 0.76146 0.36113 0.0
H2321 H 0.31015 0.79306 0.30356 0.0
H2322 H 0.28373 0.85554 0.39726 0.0
H2323 H 0.2721 0.88387 0.3758 0.0
H2324 H 0.26945 0.82246 0.3845 0.0
H2325 H 0.31805 0.87095 0.29574 0.0
H2326 H 0.30862 0.92054 0.30871 0.0
H2327 H 0.32235 0.8943 0.32636 0.0
H2328 H 0.28707 0.03081 0.35465 0.0
H2329 H 0.31658 0.9679 0.4049 0.0
H2330 H 0.27158 0.92612 0.33471 0.0
H2331 H 0.2846 0.93691 0.31162 0.0
H2332 H 0.27495 0.98616 0.3244 0.0
H2333 H 0.30893 0.85059 0.39522 0.0
H2334 H 0.32344 0.88847 0.40199 0.0
H2335 H 0.32151 0.86171 0.37132 0.0
C2336 C 0.54763 0.53791 0.15266 0.0
C2337 C 0.54043 0.4982 0.14376 0.0
C2338 C 0.54566 0.58271 0.14189 0.0
C2339 C 0.53595 0.58818 0.12218 0.0
C2340 C 0.52811 0.54866 0.11393 0.0
C2341 C 0.53063 0.50373 0.12457 0.0
C2342 C 0.55441 0.6238 0.151 0.0
C2343 C 0.51738 0.55351 0.09351 0.0
C2344 C 0.5295 0.71897 0.11401 0.0
C2345 C 0.53939 0.73002 0.09571 0.0
C2346 C 0.52696 0.6716 0.12079 0.0
C2347 C 0.53484 0.635 0.10953 0.0
C2348 C 0.54387 0.64576 0.08936 0.0
C2349 C 0.5459 0.69331 0.08245 0.0
C2350 C 0.51681 0.66122 0.14163 0.0
C2351 C 0.55259 0.60785 0.07704 0.0
H2352 H 0.55526 0.53364 0.16742 0.0
H2353 H 0.525 0.47298 0.1178 0.0
H2354 H 0.5606 0.6382 0.13516 0.0
H2355 H 0.54773 0.65294 0.15799 0.0
H2356 H 0.56155 0.61329 0.16639 0.0
H2357 H 0.51044 0.5221 0.09275 0.0
H2358 H 0.51106 0.58592 0.09645 0.0
H2359 H 0.52254 0.55707 0.07497 0.0
H2360 H 0.52428 0.74741 0.12397 0.0
H2361 H 0.55352 0.70183 0.06819 0.0
H2362 H 0.52248 0.65561 0.15954 0.0
H2363 H 0.5109 0.6283 0.13757 0.0
H2364 H 0.50946 0.69108 0.14438 0.0
H2365 H 0.56081 0.59652 0.09033 0.0
H2366 H 0.55757 0.62082 0.05948 0.0
H2367 H 0.54632 0.57606 0.0725 0.0
C2368 C 0.7098 0.53344 0.0978 0.0
C2369 C 0.7167 0.49225 0.10545 0.0
C2370 C 0.71262 0.57721 0.10913 0.0
C2371 C 0.72289 0.5799 0.12806 0.0
C2372 C 0.73049 0.53889 0.1348 0.0
C2373 C 0.72713 0.49516 0.12366 0.0
C2374 C 0.70412 0.62004 0.10172 0.0
C2375 C 0.7418 0.54084 0.15431 0.0
C2376 C 0.73115 0.70832 0.14102 0.0
C2377 C 0.72197 0.71775 0.16076 0.0
C2378 C 0.73272 0.66199 0.13174 0.0
C2379 C 0.72463 0.62497 0.14206 0.0
C2380 C 0.71625 0.63371 0.16339 0.0
C2381 C 0.71516 0.68007 0.1727 0.0
C2382 C 0.74217 0.65349 0.1096 0.0
C2383 C 0.70732 0.59526 0.17478 0.0
H2384 H 0.7017 0.5311 0.08376 0.0
H2385 H 0.73256 0.46322 0.12937 0.0
H2386 H 0.69825 0.63312 0.11828 0.0
H2387 H 0.71093 0.64935 0.09538 0.0
H2388 H 0.69669 0.61194 0.08637 0.0
H2389 H 0.7483 0.50831 0.15402 0.0
H2390 H 0.74848 0.57233 0.15123 0.0
H2391 H 0.73718 0.54428 0.17334 0.0
H2392 H 0.7366 0.73743 0.13204 0.0
H2393 H 0.70811 0.68728 0.18809 0.0
H2394 H 0.73597 0.6511 0.09209 0.0
H2395 H 0.74782 0.61941 0.11179 0.0
H2396 H 0.74976 0.68277 0.10732 0.0
H2397 H 0.69888 0.58632 0.16148 0.0
H2398 H 0.70266 0.60648 0.19294 0.0
H2399 H 0.71338 0.5624 0.17799 0.0
C2400 C 0.45512 0.2929 0.904 0.0
C2401 C 0.46287 0.25535 0.89396 0.0
C2402 C 0.45585 0.33866 0.89359 0.0
C2403 C 0.46473 0.34723 0.87292 0.0
C2404 C 0.47296 0.30983 0.86328 0.0
C2405 C 0.47183 0.26414 0.87378 0.0
C2406 C 0.44675 0.37742 0.90416 0.0
C2407 C 0.48272 0.31786 0.84153 0.0
C2408 C 0.45493 0.4494 0.82986 0.0
C2409 C 0.46319 0.48635 0.83916 0.0
C2410 C 0.4555 0.40377 0.84044 0.0
C2411 C 0.46474 0.39466 0.86052 0.0
C2412 C 0.47344 0.43143 0.86945 0.0
C2413 C 0.47246 0.47706 0.8588 0.0
C2414 C 0.4459 0.36571 0.83064 0.0
C2415 C 0.48358 0.42279 0.89054 0.0
H2416 H 0.44814 0.28622 0.91956 0.0
H2417 H 0.47789 0.23522 0.86607 0.0
H2418 H 0.45307 0.40854 0.90975 0.0
H2419 H 0.43942 0.38966 0.88947 0.0
H2420 H 0.44074 0.3653 0.9208 0.0
H2421 H 0.48919 0.28612 0.83759 0.0
H2422 H 0.47677 0.32668 0.8243 0.0
H2423 H 0.48958 0.34851 0.84556 0.0
H2424 H 0.4477 0.45647 0.81473 0.0
H2425 H 0.47891 0.50551 0.86595 0.0
H2426 H 0.43888 0.35395 0.84592 0.0
H2427 H 0.45189 0.33416 0.82452 0.0
H2428 H 0.43957 0.37828 0.81452 0.0
H2429 H 0.47793 0.41432 0.90816 0.0
H2430 H 0.49029 0.45411 0.89405 0.0
H2431 H 0.49019 0.39172 0.88607 0.0
C2432 C 0.30216 0.28034 0.84432 0.0
C2433 C 0.29444 0.2487 0.85907 0.0
C2434 C 0.30156 0.32948 0.84849 0.0
C2435 C 0.29285 0.3475 0.86763 0.0
C2436 C 0.2846 0.31588 0.88192 0.0
C2437 C 0.28558 0.26669 0.87762 0.0
C2438 C 0.31068 0.36193 0.83309 0.0
C2439 C 0.27503 0.33392 0.90221 0.0
C2440 C 0.30404 0.46474 0.89617 0.0
C2441 C 0.29603 0.49742 0.88263 0.0
C2442 C 0.30286 0.41577 0.89186 0.0
C2443 C 0.29326 0.39901 0.87384 0.0
C2444 C 0.28478 0.43172 0.86073 0.0
C2445 C 0.28636 0.4807 0.86513 0.0
C2446 C 0.31224 0.38211 0.90595 0.0
C2447 C 0.27428 0.41503 0.84169 0.0
H2448 H 0.30905 0.2666 0.82997 0.0
H2449 H 0.27953 0.24232 0.88895 0.0
H2450 H 0.30443 0.39021 0.82406 0.0
H2451 H 0.31826 0.37972 0.8456 0.0
H2452 H 0.3164 0.34246 0.81818 0.0
H2453 H 0.26836 0.3053 0.90993 0.0
H2454 H 0.28115 0.34928 0.91788 0.0
H2455 H 0.26837 0.3627 0.89468 0.0
H2456 H 0.31156 0.47751 0.90969 0.0
H2457 H 0.28009 0.5059 0.85475 0.0
H2458 H 0.31904 0.36327 0.89243 0.0
H2459 H 0.30607 0.35473 0.91591 0.0
H2460 H 0.31881 0.40078 0.91996 0.0
H2461 H 0.27962 0.39873 0.82535 0.0
H2462 H 0.2677 0.44457 0.83473 0.0
H2463 H 0.26758 0.38727 0.85009 0.0
loop_
_geom_bond_atom_site_label_1
_geom_bond_atom_site_label_2
_geom_bond_distance
_geom_bond_site_symmetry_2
_ccdc_geom_bond_type
In0 O1 2.294 . S
In0 O2 2.326 . S
In0 O6 2.266 . S
In0 O7 2.326 . S
In0 O8 2.266 . S
In0 O9 2.326 . S
In0 O11 2.294 . S
In0 O12 2.326 . S
O1 In0 2.294 . S
O1 C10 1.240 . S
O2 In0 2.326 . S
O2 C10 1.252 . S
C3 O6 1.252 . S
C3 O7 1.260 . S
C4 O11 1.240 . S
C4 O12 1.252 . S
C5 O8 1.252 . S
C5 O9 1.260 . S
O6 In0 2.266 . S
O6 C3 1.252 . S
O7 In0 2.326 . S
O7 C3 1.260 . S
O8 In0 2.266 . S
O8 C5 1.252 . S
O9 In0 2.326 . S
O9 C5 1.260 . S
C10 O1 1.240 . S
C10 O2 1.252 . S
O11 In0 2.294 . S
O11 C4 1.240 . S
O12 In0 2.326 . S
O12 C4 1.252 . S
In13 O14 2.294 . S
In13 O15 2.326 . S
In13 O19 2.266 . S
In13 O20 2.326 . S
In13 O21 2.266 . S
In13 O22 2.326 . S
In13 O24 2.294 . S
In13 O25 2.326 . S
O14 In13 2.294 . S
O14 C23 1.240 . S
O15 In13 2.326 . S
O15 C23 1.252 . S
C16 O19 1.252 . S
C16 O20 1.260 . S
C17 O24 1.240 . S
C17 O25 1.252 . S
C18 O21 1.252 . S
C18 O22 1.260 . S
O19 In13 2.266 . S
O19 C16 1.252 . S
O20 In13 2.326 . S
O20 C16 1.260 . S
O21 In13 2.266 . S
O21 C18 1.252 . S
O22 In13 2.326 . S
O22 C18 1.260 . S
C23 O14 1.240 . S
C23 O15 1.252 . S
O24 In13 2.294 . S
O24 C17 1.240 . S
O25 In13 2.326 . S
O25 C17 1.252 . S
In26 O27 2.294 . S
In26 O28 2.326 . S
In26 O32 2.266 . S
In26 O33 2.326 . S
In26 O34 2.266 . S
In26 O35 2.326 . S
In26 O37 2.294 . S
In26 O38 2.326 . S
O27 In26 2.294 . S
O27 C36 1.240 . S
O28 In26 2.326 . S
O28 C36 1.252 . S
C29 O32 1.252 . S
C29 O33 1.260 . S
C30 O37 1.240 . S
C30 O38 1.252 . S
C31 O34 1.252 . S
C31 O35 1.260 . S
O32 In26 2.266 . S
O32 C29 1.252 . S
O33 In26 2.326 . S
O33 C29 1.260 . S
O34 In26 2.266 . S
O34 C31 1.252 . S
O35 In26 2.326 . S
O35 C31 1.260 . S
C36 O27 1.240 . S
C36 O28 1.252 . S
O37 In26 2.294 . S
O37 C30 1.240 . S
O38 In26 2.326 . S
O38 C30 1.252 . S
In39 O40 2.294 . S
In39 O41 2.326 . S
In39 O45 2.266 . S
In39 O46 2.326 . S
In39 O47 2.266 . S
In39 O48 2.326 . S
In39 O50 2.294 . S
In39 O51 2.326 . S
O40 In39 2.294 . S
O40 C49 1.240 . S
O41 In39 2.326 . S
O41 C49 1.252 . S
C42 O45 1.252 . S
C42 O46 1.260 . S
C43 O50 1.240 . S
C43 O51 1.252 . S
C44 O47 1.252 . S
C44 O48 1.260 . S
O45 In39 2.266 . S
O45 C42 1.252 . S
O46 In39 2.326 . S
O46 C42 1.260 . S
O47 In39 2.266 . S
O47 C44 1.252 . S
O48 In39 2.326 . S
O48 C44 1.260 . S
C49 O40 1.240 . S
C49 O41 1.252 . S
O50 In39 2.294 . S
O50 C43 1.240 . S
O51 In39 2.326 . S
O51 C43 1.252 . S
In52 O53 2.294 . S
In52 O54 2.326 . S
In52 O58 2.266 . S
In52 O59 2.326 . S
In52 O60 2.266 . S
In52 O61 2.326 . S
In52 O63 2.294 . S
In52 O64 2.326 . S
O53 In52 2.294 . S
O53 C62 1.240 . S
O54 In52 2.326 . S
O54 C62 1.252 . S
C55 O58 1.252 . S
C55 O59 1.260 . S
C56 O63 1.240 . S
C56 O64 1.252 . S
C57 O60 1.252 . S
C57 O61 1.260 . S
O58 In52 2.266 . S
O58 C55 1.252 . S
O59 In52 2.326 . S
O59 C55 1.260 . S
O60 In52 2.266 . S
O60 C57 1.252 . S
O61 In52 2.326 . S
O61 C57 1.260 . S
C62 O53 1.240 . S
C62 O54 1.252 . S
O63 In52 2.294 . S
O63 C56 1.240 . S
O64 In52 2.326 . S
O64 C56 1.252 . S
In65 O66 2.294 . S
In65 O67 2.326 . S
In65 O71 2.266 . S
In65 O72 2.326 . S
In65 O73 2.266 . S
In65 O74 2.326 . S
In65 O76 2.294 . S
In65 O77 2.326 . S
O66 In65 2.294 . S
O66 C75 1.240 . S
O67 In65 2.326 . S
O67 C75 1.252 . S
C68 O71 1.252 . S
C68 O72 1.260 . S
C69 O76 1.240 . S
C69 O77 1.252 . S
C70 O73 1.252 . S
C70 O74 1.260 . S
O71 In65 2.266 . S
O71 C68 1.252 . S
O72 In65 2.326 . S
O72 C68 1.260 . S
O73 In65 2.266 . S
O73 C70 1.252 . S
O74 In65 2.326 . S
O74 C70 1.260 . S
C75 O66 1.240 . S
C75 O67 1.252 . S
O76 In65 2.294 . S
O76 C69 1.240 . S
O77 In65 2.326 . S
O77 C69 1.252 . S
In78 O79 2.294 . S
In78 O80 2.326 . S
In78 O84 2.266 . S
In78 O85 2.326 . S
In78 O86 2.266 . S
In78 O87 2.326 . S
In78 O89 2.294 . S
In78 O90 2.326 . S
O79 In78 2.294 . S
O79 C88 1.240 . S
O80 In78 2.326 . S
O80 C88 1.252 . S
C81 O84 1.252 . S
C81 O85 1.260 . S
C82 O89 1.240 . S
C82 O90 1.252 . S
C83 O86 1.252 . S
C83 O87 1.260 . S
O84 In78 2.266 . S
O84 C81 1.252 . S
O85 In78 2.326 . S
O85 C81 1.260 . S
O86 In78 2.266 . S
O86 C83 1.252 . S
O87 In78 2.326 . S
O87 C83 1.260 . S
C88 O79 1.240 . S
C88 O80 1.252 . S
O89 In78 2.294 . S
O89 C82 1.240 . S
O90 In78 2.326 . S
O90 C82 1.252 . S
In91 O92 2.294 . S
In91 O93 2.326 . S
In91 O97 2.266 . S
In91 O98 2.326 . S
In91 O99 2.266 . S
In91 O100 2.326 . S
In91 O102 2.294 . S
In91 O103 2.326 . S
O92 In91 2.294 . S
O92 C101 1.240 . S
O93 In91 2.326 . S
O93 C101 1.252 . S
C94 O97 1.252 . S
C94 O98 1.260 . S
C95 O102 1.240 . S
C95 O103 1.252 . S
C96 O99 1.252 . S
C96 O100 1.260 . S
O97 In91 2.266 . S
O97 C94 1.252 . S
O98 In91 2.326 . S
O98 C94 1.260 . S
O99 In91 2.266 . S
O99 C96 1.252 . S
O100 In91 2.326 . S
O100 C96 1.260 . S
C101 O92 1.240 . S
C101 O93 1.252 . S
O102 In91 2.294 . S
O102 C95 1.240 . S
O103 In91 2.326 . S
O103 C95 1.252 . S
In104 O105 2.294 . S
In104 O106 2.326 . S
In104 O110 2.266 . S
In104 O111 2.326 . S
In104 O112 2.266 . S
In104 O113 2.326 . S
In104 O115 2.294 . S
In104 O116 2.326 . S
O105 In104 2.294 . S
O105 C114 1.240 . S
O106 In104 2.326 . S
O106 C114 1.252 . S
C107 O110 1.252 . S
C107 O111 1.260 . S
C108 O115 1.240 . S
C108 O116 1.252 . S
C109 O112 1.252 . S
C109 O113 1.260 . S
O110 In104 2.266 . S
O110 C107 1.252 . S
O111 In104 2.326 . S
O111 C107 1.260 . S
O112 In104 2.266 . S
O112 C109 1.252 . S
O113 In104 2.326 . S
O113 C109 1.260 . S
C114 O105 1.240 . S
C114 O106 1.252 . S
O115 In104 2.294 . S
O115 C108 1.240 . S
O116 In104 2.326 . S
O116 C108 1.252 . S
In117 O118 2.294 . S
In117 O119 2.326 . S
In117 O123 2.266 . S
In117 O124 2.326 . S
In117 O125 2.266 . S
In117 O126 2.326 . S
In117 O128 2.294 . S
In117 O129 2.326 . S
O118 In117 2.294 . S
O118 C127 1.240 . S
O119 In117 2.326 . S
O119 C127 1.252 . S
C120 O123 1.252 . S
C120 O124 1.260 . S
C121 O128 1.240 . S
C121 O129 1.252 . S
C122 O125 1.252 . S
C122 O126 1.260 . S
O123 In117 2.266 . S
O123 C120 1.252 . S
O124 In117 2.326 . S
O124 C120 1.260 . S
O125 In117 2.266 . S
O125 C122 1.252 . S
O126 In117 2.326 . S
O126 C122 1.260 . S
C127 O118 1.240 . S
C127 O119 1.252 . S
O128 In117 2.294 . S
O128 C121 1.240 . S
O129 In117 2.326 . S
O129 C121 1.252 . S
In130 O131 2.294 . S
In130 O132 2.326 . S
In130 O136 2.266 . S
In130 O137 2.326 . S
In130 O138 2.266 . S
In130 O139 2.326 . S
In130 O141 2.294 . S
In130 O142 2.326 . S
O131 In130 2.294 . S
O131 C140 1.240 . S
O132 In130 2.326 . S
O132 C140 1.252 . S
C133 O136 1.252 . S
C133 O137 1.260 . S
C134 O141 1.240 . S
C134 O142 1.252 . S
C135 O138 1.252 . S
C135 O139 1.260 . S
O136 In130 2.266 . S
O136 C133 1.252 . S
O137 In130 2.326 . S
O137 C133 1.260 . S
O138 In130 2.266 . S
O138 C135 1.252 . S
O139 In130 2.326 . S
O139 C135 1.260 . S
C140 O131 1.240 . S
C140 O132 1.252 . S
O141 In130 2.294 . S
O141 C134 1.240 . S
O142 In130 2.326 . S
O142 C134 1.252 . S
In143 O144 2.294 . S
In143 O145 2.326 . S
In143 O149 2.266 . S
In143 O150 2.326 . S
In143 O151 2.266 . S
In143 O152 2.326 . S
In143 O154 2.294 . S
In143 O155 2.326 . S
O144 In143 2.294 . S
O144 C153 1.240 . S
O145 In143 2.326 . S
O145 C153 1.252 . S
C146 O149 1.252 . S
C146 O150 1.260 . S
C147 O154 1.240 . S
C147 O155 1.252 . S
C148 O151 1.252 . S
C148 O152 1.260 . S
O149 In143 2.266 . S
O149 C146 1.252 . S
O150 In143 2.326 . S
O150 C146 1.260 . S
O151 In143 2.266 . S
O151 C148 1.252 . S
O152 In143 2.326 . S
O152 C148 1.260 . S
C153 O144 1.240 . S
C153 O145 1.252 . S
O154 In143 2.294 . S
O154 C147 1.240 . S
O155 In143 2.326 . S
O155 C147 1.252 . S
In156 O157 2.294 . S
In156 O158 2.326 . S
In156 O162 2.266 . S
In156 O163 2.326 . S
In156 O164 2.266 . S
In156 O165 2.326 . S
In156 O167 2.294 . S
In156 O168 2.326 . S
O157 In156 2.294 . S
O157 C166 1.240 . S
O158 In156 2.326 . S
O158 C166 1.252 . S
C159 O162 1.252 . S
C159 O163 1.260 . S
C160 O167 1.240 . S
C160 O168 1.252 . S
C161 O164 1.252 . S
C161 O165 1.260 . S
O162 In156 2.266 . S
O162 C159 1.252 . S
O163 In156 2.326 . S
O163 C159 1.260 . S
O164 In156 2.266 . S
O164 C161 1.252 . S
O165 In156 2.326 . S
O165 C161 1.260 . S
C166 O157 1.240 . S
C166 O158 1.252 . S
O167 In156 2.294 . S
O167 C160 1.240 . S
O168 In156 2.326 . S
O168 C160 1.252 . S
In169 O170 2.294 . S
In169 O171 2.326 . S
In169 O175 2.266 . S
In169 O176 2.326 . S
In169 O177 2.266 . S
In169 O178 2.326 . S
In169 O180 2.294 . S
In169 O181 2.326 . S
O170 In169 2.294 . S
O170 C179 1.240 . S
O171 In169 2.326 . S
O171 C179 1.252 . S
C172 O175 1.252 . S
C172 O176 1.260 . S
C173 O180 1.240 . S
C173 O181 1.252 . S
C174 O177 1.252 . S
C174 O178 1.260 . S
O175 In169 2.266 . S
O175 C172 1.252 . S
O176 In169 2.326 . S
O176 C172 1.260 . S
O177 In169 2.266 . S
O177 C174 1.252 . S
O178 In169 2.326 . S
O178 C174 1.260 . S
C179 O170 1.240 . S
C179 O171 1.252 . S
O180 In169 2.294 . S
O180 C173 1.240 . S
O181 In169 2.326 . S
O181 C173 1.252 . S
In182 O183 2.294 . S
In182 O184 2.326 . S
In182 O188 2.266 . S
In182 O189 2.326 . S
In182 O190 2.266 . S
In182 O191 2.326 . S
In182 O193 2.294 . S
In182 O194 2.326 . S
O183 In182 2.294 . S
O183 C192 1.240 . S
O184 In182 2.326 . S
O184 C192 1.252 . S
C185 O188 1.252 . S
C185 O189 1.260 . S
C186 O193 1.240 . S
C186 O194 1.252 . S
C187 O190 1.252 . S
C187 O191 1.260 . S
O188 In182 2.266 . S
O188 C185 1.252 . S
O189 In182 2.326 . S
O189 C185 1.260 . S
O190 In182 2.266 . S
O190 C187 1.252 . S
O191 In182 2.326 . S
O191 C187 1.260 . S
C192 O183 1.240 . S
C192 O184 1.252 . S
O193 In182 2.294 . S
O193 C186 1.240 . S
O194 In182 2.326 . S
O194 C186 1.252 . S
In195 O196 2.294 . S
In195 O197 2.326 . S
In195 O201 2.266 . S
In195 O202 2.326 . S
In195 O203 2.266 . S
In195 O204 2.326 . S
In195 O206 2.294 . S
In195 O207 2.326 . S
O196 In195 2.294 . S
O196 C205 1.240 . S
O197 In195 2.326 . S
O197 C205 1.252 . S
C198 O201 1.252 . S
C198 O202 1.260 . S
C199 O206 1.240 . S
C199 O207 1.252 . S
C200 O203 1.252 . S
C200 O204 1.260 . S
O201 In195 2.266 . S
O201 C198 1.252 . S
O202 In195 2.326 . S
O202 C198 1.260 . S
O203 In195 2.266 . S
O203 C200 1.252 . S
O204 In195 2.326 . S
O204 C200 1.260 . S
C205 O196 1.240 . S
C205 O197 1.252 . S
O206 In195 2.294 . S
O206 C199 1.240 . S
O207 In195 2.326 . S
O207 C199 1.252 . S
In208 O209 2.294 . S
In208 O210 2.326 . S
In208 O214 2.266 . S
In208 O215 2.326 . S
In208 O216 2.266 . S
In208 O217 2.326 . S
In208 O219 2.294 . S
In208 O220 2.326 . S
O209 In208 2.294 . S
O209 C218 1.240 . S
O210 In208 2.326 . S
O210 C218 1.252 . S
C211 O214 1.252 . S
C211 O215 1.260 . S
C212 O219 1.240 . S
C212 O220 1.252 . S
C213 O216 1.252 . S
C213 O217 1.260 . S
O214 In208 2.266 . S
O214 C211 1.252 . S
O215 In208 2.326 . S
O215 C211 1.260 . S
O216 In208 2.266 . S
O216 C213 1.252 . S
O217 In208 2.326 . S
O217 C213 1.260 . S
C218 O209 1.240 . S
C218 O210 1.252 . S
O219 In208 2.294 . S
O219 C212 1.240 . S
O220 In208 2.326 . S
O220 C212 1.252 . S
In221 O222 2.294 . S
In221 O223 2.326 . S
In221 O227 2.266 . S
In221 O228 2.326 . S
In221 O229 2.266 . S
In221 O230 2.326 . S
In221 O232 2.294 . S
In221 O233 2.326 . S
O222 In221 2.294 . S
O222 C231 1.240 . S
O223 In221 2.326 . S
O223 C231 1.252 . S
C224 O227 1.252 . S
C224 O228 1.260 . S
C225 O232 1.240 . S
C225 O233 1.252 . S
C226 O229 1.252 . S
C226 O230 1.260 . S
O227 In221 2.266 . S
O227 C224 1.252 . S
O228 In221 2.326 . S
O228 C224 1.260 . S
O229 In221 2.266 . S
O229 C226 1.252 . S
O230 In221 2.326 . S
O230 C226 1.260 . S
C231 O222 1.240 . S
C231 O223 1.252 . S
O232 In221 2.294 . S
O232 C225 1.240 . S
O233 In221 2.326 . S
O233 C225 1.252 . S
In234 O235 2.294 . S
In234 O236 2.326 . S
In234 O240 2.266 . S
In234 O241 2.326 . S
In234 O242 2.266 . S
In234 O243 2.326 . S
In234 O245 2.294 . S
In234 O246 2.326 . S
O235 In234 2.294 . S
O235 C244 1.240 . S
O236 In234 2.326 . S
O236 C244 1.252 . S
C237 O240 1.252 . S
C237 O241 1.260 . S
C238 O245 1.240 . S
C238 O246 1.252 . S
C239 O242 1.252 . S
C239 O243 1.260 . S
O240 In234 2.266 . S
O240 C237 1.252 . S
O241 In234 2.326 . S
O241 C237 1.260 . S
O242 In234 2.266 . S
O242 C239 1.252 . S
O243 In234 2.326 . S
O243 C239 1.260 . S
C244 O235 1.240 . S
C244 O236 1.252 . S
O245 In234 2.294 . S
O245 C238 1.240 . S
O246 In234 2.326 . S
O246 C238 1.252 . S
In247 O248 2.294 . S
In247 O249 2.326 . S
In247 O253 2.266 . S
In247 O254 2.326 . S
In247 O255 2.266 . S
In247 O256 2.326 . S
In247 O258 2.294 . S
In247 O259 2.326 . S
O248 In247 2.294 . S
O248 C257 1.240 . S
O249 In247 2.326 . S
O249 C257 1.252 . S
C250 O253 1.252 . S
C250 O254 1.260 . S
C251 O258 1.240 . S
C251 O259 1.252 . S
C252 O255 1.252 . S
C252 O256 1.260 . S
O253 In247 2.266 . S
O253 C250 1.252 . S
O254 In247 2.326 . S
O254 C250 1.260 . S
O255 In247 2.266 . S
O255 C252 1.252 . S
O256 In247 2.326 . S
O256 C252 1.260 . S
C257 O248 1.240 . S
C257 O249 1.252 . S
O258 In247 2.294 . S
O258 C251 1.240 . S
O259 In247 2.326 . S
O259 C251 1.252 . S
In260 O261 2.294 . S
In260 O262 2.326 . S
In260 O266 2.266 . S
In260 O267 2.326 . S
In260 O268 2.266 . S
In260 O269 2.326 . S
In260 O271 2.294 . S
In260 O272 2.326 . S
O261 In260 2.294 . S
O261 C270 1.240 . S
O262 In260 2.326 . S
O262 C270 1.252 . S
C263 O266 1.252 . S
C263 O267 1.260 . S
C264 O271 1.240 . S
C264 O272 1.252 . S
C265 O268 1.252 . S
C265 O269 1.260 . S
O266 In260 2.266 . S
O266 C263 1.252 . S
O267 In260 2.326 . S
O267 C263 1.260 . S
O268 In260 2.266 . S
O268 C265 1.252 . S
O269 In260 2.326 . S
O269 C265 1.260 . S
C270 O261 1.240 . S
C270 O262 1.252 . S
O271 In260 2.294 . S
O271 C264 1.240 . S
O272 In260 2.326 . S
O272 C264 1.252 . S
In273 O274 2.294 . S
In273 O275 2.326 . S
In273 O279 2.266 . S
In273 O280 2.326 . S
In273 O281 2.266 . S
In273 O282 2.326 . S
In273 O284 2.294 . S
In273 O285 2.326 . S
O274 In273 2.294 . S
O274 C283 1.240 . S
O275 In273 2.326 . S
O275 C283 1.252 . S
C276 O279 1.252 . S
C276 O280 1.260 . S
C277 O284 1.240 . S
C277 O285 1.252 . S
C278 O281 1.252 . S
C278 O282 1.260 . S
O279 In273 2.266 . S
O279 C276 1.252 . S
O280 In273 2.326 . S
O280 C276 1.260 . S
O281 In273 2.266 . S
O281 C278 1.252 . S
O282 In273 2.326 . S
O282 C278 1.260 . S
C283 O274 1.240 . S
C283 O275 1.252 . S
O284 In273 2.294 . S
O284 C277 1.240 . S
O285 In273 2.326 . S
O285 C277 1.252 . S
In286 O287 2.294 . S
In286 O288 2.326 . S
In286 O292 2.266 . S
In286 O293 2.326 . S
In286 O294 2.266 . S
In286 O295 2.326 . S
In286 O297 2.294 . S
In286 O298 2.326 . S
O287 In286 2.294 . S
O287 C296 1.240 . S
O288 In286 2.326 . S
O288 C296 1.252 . S
C289 O292 1.252 . S
C289 O293 1.260 . S
C290 O297 1.240 . S
C290 O298 1.252 . S
C291 O294 1.252 . S
C291 O295 1.260 . S
O292 In286 2.266 . S
O292 C289 1.252 . S
O293 In286 2.326 . S
O293 C289 1.260 . S
O294 In286 2.266 . S
O294 C291 1.252 . S
O295 In286 2.326 . S
O295 C291 1.260 . S
C296 O287 1.240 . S
C296 O288 1.252 . S
O297 In286 2.294 . S
O297 C290 1.240 . S
O298 In286 2.326 . S
O298 C290 1.252 . S
In299 O300 2.294 . S
In299 O301 2.326 . S
In299 O305 2.266 . S
In299 O306 2.326 . S
In299 O307 2.266 . S
In299 O308 2.326 . S
In299 O310 2.294 . S
In299 O311 2.326 . S
O300 In299 2.294 . S
O300 C309 1.240 . S
O301 In299 2.326 . S
O301 C309 1.252 . S
C302 O305 1.252 . S
C302 O306 1.260 . S
C303 O310 1.240 . S
C303 O311 1.252 . S
C304 O307 1.252 . S
C304 O308 1.260 . S
O305 In299 2.266 . S
O305 C302 1.252 . S
O306 In299 2.326 . S
O306 C302 1.260 . S
O307 In299 2.266 . S
O307 C304 1.252 . S
O308 In299 2.326 . S
O308 C304 1.260 . S
C309 O300 1.240 . S
C309 O301 1.252 . S
O310 In299 2.294 . S
O310 C303 1.240 . S
O311 In299 2.326 . S
O311 C303 1.252 . S
In312 O313 2.294 . S
In312 O314 2.326 . S
In312 O318 2.266 . S
In312 O319 2.326 . S
In312 O320 2.266 . S
In312 O321 2.326 . S
In312 O323 2.294 . S
In312 O324 2.326 . S
O313 In312 2.294 . S
O313 C322 1.240 . S
O314 In312 2.326 . S
O314 C322 1.252 . S
C315 O318 1.252 . S
C315 O319 1.260 . S
C316 O323 1.240 . S
C316 O324 1.252 . S
C317 O320 1.252 . S
C317 O321 1.260 . S
O318 In312 2.266 . S
O318 C315 1.252 . S
O319 In312 2.326 . S
O319 C315 1.260 . S
O320 In312 2.266 . S
O320 C317 1.252 . S
O321 In312 2.326 . S
O321 C317 1.260 . S
C322 O313 1.240 . S
C322 O314 1.252 . S
O323 In312 2.294 . S
O323 C316 1.240 . S
O324 In312 2.326 . S
O324 C316 1.252 . S
In325 O326 2.294 . S
In325 O327 2.326 . S
In325 O331 2.266 . S
In325 O332 2.326 . S
In325 O333 2.266 . S
In325 O334 2.326 . S
In325 O336 2.294 . S
In325 O337 2.326 . S
O326 In325 2.294 . S
O326 C335 1.240 . S
O327 In325 2.326 . S
O327 C335 1.252 . S
C328 O331 1.252 . S
C328 O332 1.260 . S
C329 O336 1.240 . S
C329 O337 1.252 . S
C330 O333 1.252 . S
C330 O334 1.260 . S
O331 In325 2.266 . S
O331 C328 1.252 . S
O332 In325 2.326 . S
O332 C328 1.260 . S
O333 In325 2.266 . S
O333 C330 1.252 . S
O334 In325 2.326 . S
O334 C330 1.260 . S
C335 O326 1.240 . S
C335 O327 1.252 . S
O336 In325 2.294 . S
O336 C329 1.240 . S
O337 In325 2.326 . S
O337 C329 1.252 . S
In338 O339 2.294 . S
In338 O340 2.326 . S
In338 O344 2.266 . S
In338 O345 2.326 . S
In338 O346 2.266 . S
In338 O347 2.326 . S
In338 O349 2.294 . S
In338 O350 2.326 . S
O339 In338 2.294 . S
O339 C348 1.240 . S
O340 In338 2.326 . S
O340 C348 1.252 . S
C341 O344 1.252 . S
C341 O345 1.260 . S
C342 O349 1.240 . S
C342 O350 1.252 . S
C343 O346 1.252 . S
C343 O347 1.260 . S
O344 In338 2.266 . S
O344 C341 1.252 . S
O345 In338 2.326 . S
O345 C341 1.260 . S
O346 In338 2.266 . S
O346 C343 1.252 . S
O347 In338 2.326 . S
O347 C343 1.260 . S
C348 O339 1.240 . S
C348 O340 1.252 . S
O349 In338 2.294 . S
O349 C342 1.240 . S
O350 In338 2.326 . S
O350 C342 1.252 . S
In351 O352 2.294 . S
In351 O353 2.326 . S
In351 O357 2.266 . S
In351 O358 2.326 . S
In351 O359 2.266 . S
In351 O360 2.326 . S
In351 O362 2.294 . S
In351 O363 2.326 . S
O352 In351 2.294 . S
O352 C361 1.240 . S
O353 In351 2.326 . S
O353 C361 1.252 . S
C354 O357 1.252 . S
C354 O358 1.260 . S
C355 O362 1.240 . S
C355 O363 1.252 . S
C356 O359 1.252 . S
C356 O360 1.260 . S
O357 In351 2.266 . S
O357 C354 1.252 . S
O358 In351 2.326 . S
O358 C354 1.260 . S
O359 In351 2.266 . S
O359 C356 1.252 . S
O360 In351 2.326 . S
O360 C356 1.260 . S
C361 O352 1.240 . S
C361 O353 1.252 . S
O362 In351 2.294 . S
O362 C355 1.240 . S
O363 In351 2.326 . S
O363 C355 1.252 . S
In364 O365 2.294 . S
In364 O366 2.326 . S
In364 O370 2.266 . S
In364 O371 2.326 . S
In364 O372 2.266 . S
In364 O373 2.326 . S
In364 O375 2.294 . S
In364 O376 2.326 . S
O365 In364 2.294 . S
O365 C374 1.240 . S
O366 In364 2.326 . S
O366 C374 1.252 . S
C367 O370 1.252 . S
C367 O371 1.260 . S
C368 O375 1.240 . S
C368 O376 1.252 . S
C369 O372 1.252 . S
C369 O373 1.260 . S
O370 In364 2.266 . S
O370 C367 1.252 . S
O371 In364 2.326 . S
O371 C367 1.260 . S
O372 In364 2.266 . S
O372 C369 1.252 . S
O373 In364 2.326 . S
O373 C369 1.260 . S
C374 O365 1.240 . S
C374 O366 1.252 . S
O375 In364 2.294 . S
O375 C368 1.240 . S
O376 In364 2.326 . S
O376 C368 1.252 . S
In377 O378 2.294 . S
In377 O379 2.326 . S
In377 O383 2.266 . S
In377 O384 2.326 . S
In377 O385 2.266 . S
In377 O386 2.326 . S
In377 O388 2.294 . S
In377 O389 2.326 . S
O378 In377 2.294 . S
O378 C387 1.240 . S
O379 In377 2.326 . S
O379 C387 1.252 . S
C380 O383 1.252 . S
C380 O384 1.260 . S
C381 O388 1.240 . S
C381 O389 1.252 . S
C382 O385 1.252 . S
C382 O386 1.260 . S
O383 In377 2.266 . S
O383 C380 1.252 . S
O384 In377 2.326 . S
O384 C380 1.260 . S
O385 In377 2.266 . S
O385 C382 1.252 . S
O386 In377 2.326 . S
O386 C382 1.260 . S
C387 O378 1.240 . S
C387 O379 1.252 . S
O388 In377 2.294 . S
O388 C381 1.240 . S
O389 In377 2.326 . S
O389 C381 1.252 . S
In390 O391 2.294 . S
In390 O392 2.326 . S
In390 O396 2.266 . S
In390 O397 2.326 . S
In390 O398 2.266 . S
In390 O399 2.326 . S
In390 O401 2.294 . S
In390 O402 2.326 . S
O391 In390 2.294 . S
O391 C400 1.240 . S
O392 In390 2.326 . S
O392 C400 1.252 . S
C393 O396 1.252 . S
C393 O397 1.260 . S
C394 O401 1.240 . S
C394 O402 1.252 . S
C395 O398 1.252 . S
C395 O399 1.260 . S
O396 In390 2.266 . S
O396 C393 1.252 . S
O397 In390 2.326 . S
O397 C393 1.260 . S
O398 In390 2.266 . S
O398 C395 1.252 . S
O399 In390 2.326 . S
O399 C395 1.260 . S
C400 O391 1.240 . S
C400 O392 1.252 . S
O401 In390 2.294 . S
O401 C394 1.240 . S
O402 In390 2.326 . S
O402 C394 1.252 . S
In403 O404 2.294 . S
In403 O405 2.326 . S
In403 O409 2.266 . S
In403 O410 2.326 . S
In403 O411 2.266 . S
In403 O412 2.326 . S
In403 O414 2.294 . S
In403 O415 2.326 . S
O404 In403 2.294 . S
O404 C413 1.240 . S
O405 In403 2.326 . S
O405 C413 1.252 . S
C406 O409 1.252 . S
C406 O410 1.260 . S
C407 O414 1.240 . S
C407 O415 1.252 . S
C408 O411 1.252 . S
C408 O412 1.260 . S
O409 In403 2.266 . S
O409 C406 1.252 . S
O410 In403 2.326 . S
O410 C406 1.260 . S
O411 In403 2.266 . S
O411 C408 1.252 . S
O412 In403 2.326 . S
O412 C408 1.260 . S
C413 O404 1.240 . S
C413 O405 1.252 . S
O414 In403 2.294 . S
O414 C407 1.240 . S
O415 In403 2.326 . S
O415 C407 1.252 . S
C416 C417 1.391 . S
C416 C418 1.394 . S
C416 H432 0.931 . S
C417 C416 1.391 . S
C417 C421 1.376 . S
C418 C416 1.394 . S
C418 C419 1.369 . S
C418 C422 1.531 . S
C419 C418 1.369 . S
C419 C420 1.410 . S
C419 C427 1.503 . S
C420 C419 1.410 . S
C420 C421 1.392 . S
C420 C423 1.511 . S
C421 C417 1.376 . S
C421 C420 1.392 . S
C421 H433 0.929 . S
C422 C418 1.531 . S
C422 H434 0.960 . S
C422 H435 0.962 . S
C422 H436 0.960 . S
C423 C420 1.511 . S
C423 H437 0.961 . S
C423 H438 0.961 . S
C423 H439 0.961 . S
C424 C425 1.370 . S
C424 C426 1.363 . S
C424 H440 0.931 . S
C425 C424 1.370 . S
C425 C429 1.408 . S
C426 C424 1.363 . S
C426 C427 1.370 . S
C426 C430 1.524 . S
C427 C419 1.503 . S
C427 C426 1.370 . S
C427 C428 1.403 . S
C428 C427 1.403 . S
C428 C429 1.404 . S
C428 C431 1.539 . S
C429 C425 1.408 . S
C429 C428 1.404 . S
C429 H441 0.930 . S
C430 C426 1.524 . S
C430 H442 0.956 . S
C430 H443 0.961 . S
C430 H444 0.961 . S
C431 C428 1.539 . S
C431 H445 0.958 . S
C431 H446 0.961 . S
C431 H447 0.960 . S
H432 C416 0.931 . S
H433 C421 0.929 . S
H434 C422 0.960 . S
H435 C422 0.962 . S
H436 C422 0.960 . S
H437 C423 0.961 . S
H438 C423 0.961 . S
H439 C423 0.961 . S
H440 C424 0.931 . S
H441 C429 0.930 . S
H442 C430 0.956 . S
H443 C430 0.961 . S
H444 C430 0.961 . S
H445 C431 0.958 . S
H446 C431 0.961 . S
H447 C431 0.960 . S
C448 C449 1.391 . S
C448 C450 1.394 . S
C448 H464 0.931 . S
C449 C448 1.391 . S
C449 C453 1.376 . S
C450 C448 1.394 . S
C450 C451 1.369 . S
C450 C454 1.531 . S
C451 C450 1.369 . S
C451 C452 1.410 . S
C451 C459 1.503 . S
C452 C451 1.410 . S
C452 C453 1.392 . S
C452 C455 1.511 . S
C453 C449 1.376 . S
C453 C452 1.392 . S
C453 H465 0.929 . S
C454 C450 1.531 . S
C454 H466 0.960 . S
C454 H467 0.962 . S
C454 H468 0.960 . S
C455 C452 1.511 . S
C455 H469 0.961 . S
C455 H470 0.961 . S
C455 H471 0.961 . S
C456 C457 1.370 . S
C456 C458 1.363 . S
C456 H472 0.931 . S
C457 C456 1.370 . S
C457 C461 1.408 . S
C458 C456 1.363 . S
C458 C459 1.370 . S
C458 C462 1.524 . S
C459 C451 1.503 . S
C459 C458 1.370 . S
C459 C460 1.403 . S
C460 C459 1.403 . S
C460 C461 1.404 . S
C460 C463 1.539 . S
C461 C457 1.408 . S
C461 C460 1.404 . S
C461 H473 0.930 . S
C462 C458 1.524 . S
C462 H474 0.956 . S
C462 H475 0.961 . S
C462 H476 0.961 . S
C463 C460 1.539 . S
C463 H477 0.958 . S
C463 H478 0.961 . S
C463 H479 0.960 . S
H464 C448 0.931 . S
H465 C453 0.929 . S
H466 C454 0.960 . S
H467 C454 0.962 . S
H468 C454 0.960 . S
H469 C455 0.961 . S
H470 C455 0.961 . S
H471 C455 0.961 . S
H472 C456 0.931 . S
H473 C461 0.930 . S
H474 C462 0.956 . S
H475 C462 0.961 . S
H476 C462 0.961 . S
H477 C463 0.958 . S
H478 C463 0.961 . S
H479 C463 0.960 . S
C480 C481 1.391 . S
C480 C482 1.394 . S
C480 H496 0.931 . S
C481 C480 1.391 . S
C481 C485 1.376 . S
C482 C480 1.394 . S
C482 C483 1.369 . S
C482 C486 1.531 . S
C483 C482 1.369 . S
C483 C484 1.410 . S
C483 C491 1.503 . S
C484 C483 1.410 . S
C484 C485 1.392 . S
C484 C487 1.511 . S
C485 C481 1.376 . S
C485 C484 1.392 . S
C485 H497 0.929 . S
C486 C482 1.531 . S
C486 H498 0.960 . S
C486 H499 0.962 . S
C486 H500 0.960 . S
C487 C484 1.511 . S
C487 H501 0.961 . S
C487 H502 0.961 . S
C487 H503 0.961 . S
C488 C489 1.370 . S
C488 C490 1.363 . S
C488 H504 0.931 . S
C489 C488 1.370 . S
C489 C493 1.408 . S
C490 C488 1.363 . S
C490 C491 1.370 . S
C490 C494 1.524 . S
C491 C483 1.503 . S
C491 C490 1.370 . S
C491 C492 1.403 . S
C492 C491 1.403 . S
C492 C493 1.404 . S
C492 C495 1.539 . S
C493 C489 1.408 . S
C493 C492 1.404 . S
C493 H505 0.930 . S
C494 C490 1.524 . S
C494 H506 0.956 . S
C494 H507 0.961 . S
C494 H508 0.961 . S
C495 C492 1.539 . S
C495 H509 0.958 . S
C495 H510 0.961 . S
C495 H511 0.960 . S
H496 C480 0.931 . S
H497 C485 0.929 . S
H498 C486 0.960 . S
H499 C486 0.962 . S
H500 C486 0.960 . S
H501 C487 0.961 . S
H502 C487 0.961 . S
H503 C487 0.961 . S
H504 C488 0.931 . S
H505 C493 0.930 . S
H506 C494 0.956 . S
H507 C494 0.961 . S
H508 C494 0.961 . S
H509 C495 0.958 . S
H510 C495 0.961 . S
H511 C495 0.960 . S
C512 C513 1.391 . S
C512 C514 1.394 . S
C512 H528 0.931 . S
C513 C512 1.391 . S
C513 C517 1.376 . S
C514 C512 1.394 . S
C514 C515 1.369 . S
C514 C518 1.531 . S
C515 C514 1.369 . S
C515 C516 1.410 . S
C515 C523 1.503 . S
C516 C515 1.410 . S
C516 C517 1.392 . S
C516 C519 1.511 . S
C517 C513 1.376 . S
C517 C516 1.392 . S
C517 H529 0.929 . S
C518 C514 1.531 . S
C518 H530 0.960 . S
C518 H531 0.962 . S
C518 H532 0.960 . S
C519 C516 1.511 . S
C519 H533 0.961 . S
C519 H534 0.961 . S
C519 H535 0.961 . S
C520 C521 1.370 . S
C520 C522 1.363 . S
C520 H536 0.931 . S
C521 C520 1.370 . S
C521 C525 1.408 . S
C522 C520 1.363 . S
C522 C523 1.370 . S
C522 C526 1.524 . S
C523 C515 1.503 . S
C523 C522 1.370 . S
C523 C524 1.403 . S
C524 C523 1.403 . S
C524 C525 1.404 . S
C524 C527 1.539 . S
C525 C521 1.408 . S
C525 C524 1.404 . S
C525 H537 0.930 . S
C526 C522 1.524 . S
C526 H538 0.956 . S
C526 H539 0.961 . S
C526 H540 0.961 . S
C527 C524 1.539 . S
C527 H541 0.958 . S
C527 H542 0.961 . S
C527 H543 0.960 . S
H528 C512 0.931 . S
H529 C517 0.929 . S
H530 C518 0.960 . S
H531 C518 0.962 . S
H532 C518 0.960 . S
H533 C519 0.961 . S
H534 C519 0.961 . S
H535 C519 0.961 . S
H536 C520 0.931 . S
H537 C525 0.930 . S
H538 C526 0.956 . S
H539 C526 0.961 . S
H540 C526 0.961 . S
H541 C527 0.958 . S
H542 C527 0.961 . S
H543 C527 0.960 . S
C544 C545 1.382 1_545 S
C544 C546 1.394 . S
C544 H560 0.931 . S
C545 C544 1.382 1_565 S
C545 C549 1.366 1_565 S
C546 C544 1.394 . S
C546 C547 1.369 . S
C546 C550 1.531 . S
C547 C546 1.369 . S
C547 C548 1.410 . S
C547 C555 1.503 . S
C548 C547 1.410 . S
C548 C549 1.392 . S
C548 C551 1.511 . S
C549 C545 1.366 1_545 S
C549 C548 1.392 . S
C549 H561 0.929 . S
C550 C546 1.531 . S
C550 H562 0.960 . S
C550 H563 0.962 . S
C550 H564 0.960 . S
C551 C548 1.511 . S
C551 H565 0.961 . S
C551 H566 0.961 . S
C551 H567 0.961 . S
C552 C553 1.370 . S
C552 C554 1.363 . S
C552 H568 0.931 . S
C553 C552 1.370 . S
C553 C557 1.408 . S
C554 C552 1.363 . S
C554 C555 1.370 . S
C554 C558 1.524 . S
C555 C547 1.503 . S
C555 C554 1.370 . S
C555 C556 1.403 . S
C556 C555 1.403 . S
C556 C557 1.404 . S
C556 C559 1.539 . S
C557 C553 1.408 . S
C557 C556 1.404 . S
C557 H569 0.930 . S
C558 C554 1.524 . S
C558 H570 0.956 . S
C558 H571 0.961 . S
C558 H572 0.961 . S
C559 C556 1.539 . S
C559 H573 0.958 . S
C559 H574 0.961 . S
C559 H575 0.960 . S
H560 C544 0.931 . S
H561 C549 0.929 . S
H562 C550 0.960 . S
H563 C550 0.962 . S
H564 C550 0.960 . S
H565 C551 0.961 . S
H566 C551 0.961 . S
H567 C551 0.961 . S
H568 C552 0.931 . S
H569 C557 0.930 . S
H570 C558 0.956 . S
H571 C558 0.961 . S
H572 C558 0.961 . S
H573 C559 0.958 . S
H574 C559 0.961 . S
H575 C559 0.960 . S
C576 C577 1.382 1_545 S
C576 C578 1.394 . S
C576 H592 0.931 . S
C577 C576 1.382 1_565 S
C577 C581 1.366 1_565 S
C578 C576 1.394 . S
C578 C579 1.369 . S
C578 C582 1.531 . S
C579 C578 1.369 . S
C579 C580 1.410 . S
C579 C587 1.503 . S
C580 C579 1.410 . S
C580 C581 1.392 . S
C580 C583 1.511 . S
C581 C577 1.366 1_545 S
C581 C580 1.392 . S
C581 H593 0.929 . S
C582 C578 1.531 . S
C582 H594 0.960 . S
C582 H595 0.962 . S
C582 H596 0.960 . S
C583 C580 1.511 . S
C583 H597 0.961 . S
C583 H598 0.961 . S
C583 H599 0.961 . S
C584 C585 1.370 . S
C584 C586 1.363 . S
C584 H600 0.931 . S
C585 C584 1.370 . S
C585 C589 1.408 . S
C586 C584 1.363 . S
C586 C587 1.370 . S
C586 C590 1.524 . S
C587 C579 1.503 . S
C587 C586 1.370 . S
C587 C588 1.403 . S
C588 C587 1.403 . S
C588 C589 1.404 . S
C588 C591 1.539 . S
C589 C585 1.408 . S
C589 C588 1.404 . S
C589 H601 0.930 . S
C590 C586 1.524 . S
C590 H602 0.956 . S
C590 H603 0.961 . S
C590 H604 0.961 . S
C591 C588 1.539 . S
C591 H605 0.958 . S
C591 H606 0.961 . S
C591 H607 0.960 . S
H592 C576 0.931 . S
H593 C581 0.929 . S
H594 C582 0.960 . S
H595 C582 0.962 . S
H596 C582 0.960 . S
H597 C583 0.961 . S
H598 C583 0.961 . S
H599 C583 0.961 . S
H600 C584 0.931 . S
H601 C589 0.930 . S
H602 C590 0.956 . S
H603 C590 0.961 . S
H604 C590 0.961 . S
H605 C591 0.958 . S
H606 C591 0.961 . S
H607 C591 0.960 . S
C608 C609 1.382 1_565 S
C608 C610 1.394 . S
C608 H624 0.931 . S
C609 C608 1.382 1_545 S
C609 C613 1.367 1_545 S
C610 C608 1.394 . S
C610 C611 1.369 . S
C610 C614 1.531 . S
C611 C610 1.369 . S
C611 C612 1.410 . S
C611 C619 1.503 . S
C612 C611 1.410 . S
C612 C613 1.392 . S
C612 C615 1.511 . S
C613 C609 1.367 1_565 S
C613 C612 1.392 . S
C613 H625 0.929 . S
C614 C610 1.531 . S
C614 H626 0.960 . S
C614 H627 0.962 . S
C614 H628 0.960 . S
C615 C612 1.511 . S
C615 H629 0.961 . S
C615 H630 0.961 . S
C615 H631 0.961 . S
C616 C617 1.370 . S
C616 C618 1.363 . S
C616 H632 0.931 . S
C617 C616 1.370 . S
C617 C621 1.408 . S
C618 C616 1.363 . S
C618 C619 1.370 . S
C618 C622 1.524 . S
C619 C611 1.503 . S
C619 C618 1.370 . S
C619 C620 1.403 . S
C620 C619 1.403 . S
C620 C621 1.404 . S
C620 C623 1.539 . S
C621 C617 1.408 . S
C621 C620 1.404 . S
C621 H633 0.930 . S
C622 C618 1.524 . S
C622 H634 0.956 . S
C622 H635 0.961 . S
C622 H636 0.961 . S
C623 C620 1.539 . S
C623 H637 0.958 . S
C623 H638 0.961 . S
C623 H639 0.960 . S
H624 C608 0.931 . S
H625 C613 0.929 . S
H626 C614 0.960 . S
H627 C614 0.962 . S
H628 C614 0.960 . S
H629 C615 0.961 . S
H630 C615 0.961 . S
H631 C615 0.961 . S
H632 C616 0.931 . S
H633 C621 0.930 . S
H634 C622 0.956 . S
H635 C622 0.961 . S
H636 C622 0.961 . S
H637 C623 0.958 . S
H638 C623 0.961 . S
H639 C623 0.960 . S
C640 C641 1.391 . S
C640 C642 1.394 . S
C640 H656 0.931 . S
C641 C640 1.391 . S
C641 C645 1.376 . S
C642 C640 1.394 . S
C642 C643 1.369 . S
C642 C646 1.531 . S
C643 C642 1.369 . S
C643 C644 1.410 . S
C643 C651 1.503 . S
C644 C643 1.410 . S
C644 C645 1.392 . S
C644 C647 1.511 . S
C645 C641 1.376 . S
C645 C644 1.392 . S
C645 H657 0.929 . S
C646 C642 1.531 . S
C646 H658 0.960 . S
C646 H659 0.962 . S
C646 H660 0.960 . S
C647 C644 1.511 . S
C647 H661 0.961 . S
C647 H662 0.961 . S
C647 H663 0.961 . S
C648 C649 1.364 1_565 S
C648 C650 1.363 . S
C648 H664 0.931 . S
C649 C648 1.364 1_545 S
C649 C653 1.404 1_545 S
C650 C648 1.363 . S
C650 C651 1.370 . S
C650 C654 1.524 . S
C651 C643 1.503 . S
C651 C650 1.370 . S
C651 C652 1.403 . S
C652 C651 1.403 . S
C652 C653 1.404 . S
C652 C655 1.539 . S
C653 C649 1.404 1_565 S
C653 C652 1.404 . S
C653 H665 0.930 . S
C654 C650 1.524 . S
C654 H666 0.956 . S
C654 H667 0.961 . S
C654 H668 0.961 . S
C655 C652 1.539 . S
C655 H669 0.958 . S
C655 H670 0.961 . S
C655 H671 0.960 . S
H656 C640 0.931 . S
H657 C645 0.929 . S
H658 C646 0.960 . S
H659 C646 0.962 . S
H660 C646 0.960 . S
H661 C647 0.961 . S
H662 C647 0.961 . S
H663 C647 0.961 . S
H664 C648 0.931 . S
H665 C653 0.930 . S
H666 C654 0.956 . S
H667 C654 0.961 . S
H668 C654 0.961 . S
H669 C655 0.958 . S
H670 C655 0.961 . S
H671 C655 0.960 . S
C672 C673 1.391 . S
C672 C674 1.394 . S
C672 H688 0.931 . S
C673 C672 1.391 . S
C673 C677 1.376 . S
C674 C672 1.394 . S
C674 C675 1.369 . S
C674 C678 1.531 . S
C675 C674 1.369 . S
C675 C676 1.410 . S
C675 C683 1.503 . S
C676 C675 1.410 . S
C676 C677 1.392 . S
C676 C679 1.511 . S
C677 C673 1.376 . S
C677 C676 1.392 . S
C677 H689 0.929 . S
C678 C674 1.531 . S
C678 H690 0.960 . S
C678 H691 0.962 . S
C678 H692 0.960 . S
C679 C676 1.511 . S
C679 H693 0.961 . S
C679 H694 0.961 . S
C679 H695 0.961 . S
C680 C681 1.370 . S
C680 C682 1.363 . S
C680 H696 0.931 . S
C681 C680 1.370 . S
C681 C685 1.408 . S
C682 C680 1.363 . S
C682 C683 1.370 . S
C682 C686 1.524 . S
C683 C675 1.503 . S
C683 C682 1.370 . S
C683 C684 1.403 . S
C684 C683 1.403 . S
C684 C685 1.404 . S
C684 C687 1.539 . S
C685 C681 1.408 . S
C685 C684 1.404 . S
C685 H697 0.930 . S
C686 C682 1.524 . S
C686 H698 0.956 . S
C686 H699 0.961 . S
C686 H700 0.961 . S
C687 C684 1.539 . S
C687 H701 0.958 . S
C687 H702 0.961 . S
C687 H703 0.960 . S
H688 C672 0.931 . S
H689 C677 0.929 . S
H690 C678 0.960 . S
H691 C678 0.962 . S
H692 C678 0.960 . S
H693 C679 0.961 . S
H694 C679 0.961 . S
H695 C679 0.961 . S
H696 C680 0.931 . S
H697 C685 0.930 . S
H698 C686 0.956 . S
H699 C686 0.961 . S
H700 C686 0.961 . S
H701 C687 0.958 . S
H702 C687 0.961 . S
H703 C687 0.960 . S
C704 C705 1.391 . S
C704 C706 1.394 . S
C704 H720 0.931 . S
C705 C704 1.391 . S
C705 C709 1.376 . S
C706 C704 1.394 . S
C706 C707 1.369 . S
C706 C710 1.531 . S
C707 C706 1.369 . S
C707 C708 1.410 . S
C707 C715 1.503 . S
C708 C707 1.410 . S
C708 C709 1.392 . S
C708 C711 1.511 . S
C709 C705 1.376 . S
C709 C708 1.392 . S
C709 H721 0.929 . S
C710 C706 1.531 . S
C710 H722 0.960 . S
C710 H723 0.962 . S
C710 H724 0.960 . S
C711 C708 1.511 . S
C711 H725 0.961 . S
C711 H726 0.961 . S
C711 H727 0.961 . S
C712 C713 1.370 . S
C712 C714 1.363 . S
C712 H728 0.931 . S
C713 C712 1.370 . S
C713 C717 1.408 . S
C714 C712 1.363 . S
C714 C715 1.370 . S
C714 C718 1.524 . S
C715 C707 1.503 . S
C715 C714 1.370 . S
C715 C716 1.403 . S
C716 C715 1.403 . S
C716 C717 1.404 . S
C716 C719 1.539 . S
C717 C713 1.408 . S
C717 C716 1.404 . S
C717 H729 0.930 . S
C718 C714 1.524 . S
C718 H730 0.956 . S
C718 H731 0.961 . S
C718 H732 0.961 . S
C719 C716 1.539 . S
C719 H733 0.958 . S
C719 H734 0.961 . S
C719 H735 0.960 . S
H720 C704 0.931 . S
H721 C709 0.929 . S
H722 C710 0.960 . S
H723 C710 0.962 . S
H724 C710 0.960 . S
H725 C711 0.961 . S
H726 C711 0.961 . S
H727 C711 0.961 . S
H728 C712 0.931 . S
H729 C717 0.930 . S
H730 C718 0.956 . S
H731 C718 0.961 . S
H732 C718 0.961 . S
H733 C719 0.958 . S
H734 C719 0.961 . S
H735 C719 0.960 . S
C736 C737 1.391 . S
C736 C738 1.394 . S
C736 H752 0.931 . S
C737 C736 1.391 . S
C737 C741 1.376 . S
C738 C736 1.394 . S
C738 C739 1.369 . S
C738 C742 1.531 . S
C739 C738 1.369 . S
C739 C740 1.410 . S
C739 C747 1.503 . S
C740 C739 1.410 . S
C740 C741 1.392 . S
C740 C743 1.511 . S
C741 C737 1.376 . S
C741 C740 1.392 . S
C741 H753 0.929 . S
C742 C738 1.531 . S
C742 H754 0.960 . S
C742 H755 0.962 . S
C742 H756 0.960 . S
C743 C740 1.511 . S
C743 H757 0.961 . S
C743 H758 0.961 . S
C743 H759 0.961 . S
C744 C745 1.370 . S
C744 C746 1.363 . S
C744 H760 0.931 . S
C745 C744 1.370 . S
C745 C749 1.408 . S
C746 C744 1.363 . S
C746 C747 1.370 . S
C746 C750 1.524 . S
C747 C739 1.503 . S
C747 C746 1.370 . S
C747 C748 1.403 . S
C748 C747 1.403 . S
C748 C749 1.404 . S
C748 C751 1.539 . S
C749 C745 1.408 . S
C749 C748 1.404 . S
C749 H761 0.930 . S
C750 C746 1.524 . S
C750 H762 0.956 . S
C750 H763 0.961 . S
C750 H764 0.961 . S
C751 C748 1.539 . S
C751 H765 0.958 . S
C751 H766 0.961 . S
C751 H767 0.960 . S
H752 C736 0.931 . S
H753 C741 0.929 . S
H754 C742 0.960 . S
H755 C742 0.962 . S
H756 C742 0.960 . S
H757 C743 0.961 . S
H758 C743 0.961 . S
H759 C743 0.961 . S
H760 C744 0.931 . S
H761 C749 0.930 . S
H762 C750 0.956 . S
H763 C750 0.961 . S
H764 C750 0.961 . S
H765 C751 0.958 . S
H766 C751 0.961 . S
H767 C751 0.960 . S
C768 C769 1.391 . S
C768 C770 1.394 . S
C768 H784 0.931 . S
C769 C768 1.391 . S
C769 C773 1.376 . S
C770 C768 1.394 . S
C770 C771 1.369 . S
C770 C774 1.531 . S
C771 C770 1.369 . S
C771 C772 1.410 . S
C771 C779 1.503 . S
C772 C771 1.410 . S
C772 C773 1.392 . S
C772 C775 1.511 . S
C773 C769 1.376 . S
C773 C772 1.392 . S
C773 H785 0.929 . S
C774 C770 1.531 . S
C774 H786 0.960 . S
C774 H787 0.962 . S
C774 H788 0.960 . S
C775 C772 1.511 . S
C775 H789 0.961 . S
C775 H790 0.961 . S
C775 H791 0.961 . S
C776 C777 1.370 . S
C776 C778 1.363 . S
C776 H792 0.931 . S
C777 C776 1.370 . S
C777 C781 1.408 . S
C778 C776 1.363 . S
C778 C779 1.370 . S
C778 C782 1.524 . S
C779 C771 1.503 . S
C779 C778 1.370 . S
C779 C780 1.403 . S
C780 C779 1.403 . S
C780 C781 1.404 . S
C780 C783 1.539 . S
C781 C777 1.408 . S
C781 C780 1.404 . S
C781 H793 0.930 . S
C782 C778 1.524 . S
C782 H794 0.956 . S
C782 H795 0.961 . S
C782 H796 0.961 . S
C783 C780 1.539 . S
C783 H797 0.958 . S
C783 H798 0.961 . S
C783 H799 0.960 . S
H784 C768 0.931 . S
H785 C773 0.929 . S
H786 C774 0.960 . S
H787 C774 0.962 . S
H788 C774 0.960 . S
H789 C775 0.961 . S
H790 C775 0.961 . S
H791 C775 0.961 . S
H792 C776 0.931 . S
H793 C781 0.930 . S
H794 C782 0.956 . S
H795 C782 0.961 . S
H796 C782 0.961 . S
H797 C783 0.958 . S
H798 C783 0.961 . S
H799 C783 0.960 . S
C800 C801 1.391 . S
C800 C802 1.394 . S
C800 H816 0.931 . S
C801 C800 1.391 . S
C801 C805 1.376 . S
C802 C800 1.394 . S
C802 C803 1.369 . S
C802 C806 1.531 . S
C803 C802 1.369 . S
C803 C804 1.410 . S
C803 C811 1.503 . S
C804 C803 1.410 . S
C804 C805 1.392 . S
C804 C807 1.511 . S
C805 C801 1.376 . S
C805 C804 1.392 . S
C805 H817 0.929 . S
C806 C802 1.531 . S
C806 H818 0.960 . S
C806 H819 0.962 . S
C806 H820 0.960 . S
C807 C804 1.511 . S
C807 H821 0.961 . S
C807 H822 0.961 . S
C807 H823 0.961 . S
C808 C809 1.364 1_545 S
C808 C810 1.363 . S
C808 H824 0.931 . S
C809 C808 1.364 1_565 S
C809 C813 1.404 1_565 S
C810 C808 1.363 . S
C810 C811 1.370 . S
C810 C814 1.524 . S
C811 C803 1.503 . S
C811 C810 1.370 . S
C811 C812 1.403 . S
C812 C811 1.403 . S
C812 C813 1.404 . S
C812 C815 1.539 . S
C813 C809 1.404 1_545 S
C813 C812 1.404 . S
C813 H825 0.930 . S
C814 C810 1.524 . S
C814 H826 0.956 . S
C814 H827 0.961 . S
C814 H828 0.961 . S
C815 C812 1.539 . S
C815 H829 0.958 . S
C815 H830 0.961 . S
C815 H831 0.960 . S
H816 C800 0.931 . S
H817 C805 0.929 . S
H818 C806 0.960 . S
H819 C806 0.962 . S
H820 C806 0.960 . S
H821 C807 0.961 . S
H822 C807 0.961 . S
H823 C807 0.961 . S
H824 C808 0.931 . S
H825 C813 0.930 . S
H826 C814 0.956 . S
H827 C814 0.961 . S
H828 C814 0.961 . S
H829 C815 0.958 . S
H830 C815 0.961 . S
H831 C815 0.960 . S
C832 C833 1.382 1_545 S
C832 C834 1.394 . S
C832 H848 0.931 . S
C833 C832 1.382 1_565 S
C833 C837 1.366 1_565 S
C834 C832 1.394 . S
C834 C835 1.369 . S
C834 C838 1.531 . S
C835 C834 1.369 . S
C835 C836 1.410 . S
C835 C843 1.503 . S
C836 C835 1.410 . S
C836 C837 1.392 . S
C836 C839 1.511 . S
C837 C833 1.366 1_545 S
C837 C836 1.392 . S
C837 H849 0.929 . S
C838 C834 1.531 . S
C838 H850 0.960 . S
C838 H851 0.962 . S
C838 H852 0.960 . S
C839 C836 1.511 . S
C839 H853 0.961 . S
C839 H854 0.961 . S
C839 H855 0.961 . S
C840 C841 1.370 . S
C840 C842 1.363 . S
C840 H856 0.931 . S
C841 C840 1.370 . S
C841 C845 1.408 . S
C842 C840 1.363 . S
C842 C843 1.370 . S
C842 C846 1.524 . S
C843 C835 1.503 . S
C843 C842 1.370 . S
C843 C844 1.403 . S
C844 C843 1.403 . S
C844 C845 1.404 . S
C844 C847 1.539 . S
C845 C841 1.408 . S
C845 C844 1.404 . S
C845 H857 0.930 . S
C846 C842 1.524 . S
C846 H858 0.956 . S
C846 H859 0.961 . S
C846 H860 0.961 . S
C847 C844 1.539 . S
C847 H861 0.958 . S
C847 H862 0.961 . S
C847 H863 0.960 . S
H848 C832 0.931 . S
H849 C837 0.929 . S
H850 C838 0.960 . S
H851 C838 0.962 . S
H852 C838 0.960 . S
H853 C839 0.961 . S
H854 C839 0.961 . S
H855 C839 0.961 . S
H856 C840 0.931 . S
H857 C845 0.930 . S
H858 C846 0.956 . S
H859 C846 0.961 . S
H860 C846 0.961 . S
H861 C847 0.958 . S
H862 C847 0.961 . S
H863 C847 0.960 . S
C864 C865 1.391 . S
C864 C866 1.394 . S
C864 H880 0.931 . S
C865 C864 1.391 . S
C865 C869 1.376 . S
C866 C864 1.394 . S
C866 C867 1.369 . S
C866 C870 1.531 . S
C867 C866 1.369 . S
C867 C868 1.410 . S
C867 C875 1.503 . S
C868 C867 1.410 . S
C868 C869 1.392 . S
C868 C871 1.511 . S
C869 C865 1.376 . S
C869 C868 1.392 . S
C869 H881 0.929 . S
C870 C866 1.531 . S
C870 H882 0.960 . S
C870 H883 0.962 . S
C870 H884 0.960 . S
C871 C868 1.511 . S
C871 H885 0.961 . S
C871 H886 0.961 . S
C871 H887 0.961 . S
C872 C873 1.364 1_565 S
C872 C874 1.363 . S
C872 H888 0.931 . S
C873 C872 1.364 1_545 S
C873 C877 1.404 1_545 S
C874 C872 1.363 . S
C874 C875 1.370 . S
C874 C878 1.524 . S
C875 C867 1.503 . S
C875 C874 1.370 . S
C875 C876 1.403 . S
C876 C875 1.403 . S
C876 C877 1.404 . S
C876 C879 1.539 . S
C877 C873 1.404 1_565 S
C877 C876 1.404 . S
C877 H889 0.930 . S
C878 C874 1.524 . S
C878 H890 0.956 . S
C878 H891 0.961 . S
C878 H892 0.961 . S
C879 C876 1.539 . S
C879 H893 0.958 . S
C879 H894 0.961 . S
C879 H895 0.960 . S
H880 C864 0.931 . S
H881 C869 0.929 . S
H882 C870 0.960 . S
H883 C870 0.962 . S
H884 C870 0.960 . S
H885 C871 0.961 . S
H886 C871 0.961 . S
H887 C871 0.961 . S
H888 C872 0.931 . S
H889 C877 0.930 . S
H890 C878 0.956 . S
H891 C878 0.961 . S
H892 C878 0.961 . S
H893 C879 0.958 . S
H894 C879 0.961 . S
H895 C879 0.960 . S
C896 C897 1.391 . S
C896 C898 1.394 . S
C896 H912 0.931 . S
C897 C896 1.391 . S
C897 C901 1.376 . S
C898 C896 1.394 . S
C898 C899 1.369 . S
C898 C902 1.531 . S
C899 C898 1.369 . S
C899 C900 1.410 . S
C899 C907 1.503 . S
C900 C899 1.410 . S
C900 C901 1.392 . S
C900 C903 1.511 . S
C901 C897 1.376 . S
C901 C900 1.392 . S
C901 H913 0.929 . S
C902 C898 1.531 . S
C902 H914 0.960 . S
C902 H915 0.962 . S
C902 H916 0.960 . S
C903 C900 1.511 . S
C903 H917 0.961 . S
C903 H918 0.961 . S
C903 H919 0.961 . S
C904 C905 1.364 1_565 S
C904 C906 1.363 . S
C904 H920 0.931 . S
C905 C904 1.364 1_545 S
C905 C909 1.404 1_545 S
C906 C904 1.363 . S
C906 C907 1.370 . S
C906 C910 1.524 . S
C907 C899 1.503 . S
C907 C906 1.370 . S
C907 C908 1.403 . S
C908 C907 1.403 . S
C908 C909 1.404 . S
C908 C911 1.539 . S
C909 C905 1.404 1_565 S
C909 C908 1.404 . S
C909 H921 0.930 . S
C910 C906 1.524 . S
C910 H922 0.956 . S
C910 H923 0.961 . S
C910 H924 0.961 . S
C911 C908 1.539 . S
C911 H925 0.958 . S
C911 H926 0.961 . S
C911 H927 0.960 . S
H912 C896 0.931 . S
H913 C901 0.929 . S
H914 C902 0.960 . S
H915 C902 0.962 . S
H916 C902 0.960 . S
H917 C903 0.961 . S
H918 C903 0.961 . S
H919 C903 0.961 . S
H920 C904 0.931 . S
H921 C909 0.930 . S
H922 C910 0.956 . S
H923 C910 0.961 . S
H924 C910 0.961 . S
H925 C911 0.958 . S
H926 C911 0.961 . S
H927 C911 0.960 . S
C928 C929 1.391 . S
C928 C930 1.394 . S
C928 H944 0.931 . S
C929 C928 1.391 . S
C929 C933 1.376 . S
C930 C928 1.394 . S
C930 C931 1.369 . S
C930 C934 1.531 1_656 S
C931 C930 1.369 . S
C931 C932 1.410 . S
C931 C939 1.503 1_656 S
C932 C931 1.410 . S
C932 C933 1.392 . S
C932 C935 1.511 . S
C933 C929 1.376 . S
C933 C932 1.392 . S
C933 H945 0.929 . S
C934 C930 1.531 1_454 S
C934 H946 0.960 . S
C934 H947 0.962 . S
C934 H948 0.960 . S
C935 C932 1.511 . S
C935 H949 0.961 . S
C935 H950 0.961 . S
C935 H951 0.961 . S
C936 C937 1.370 . S
C936 C938 1.363 . S
C936 H952 0.931 . S
C937 C936 1.370 . S
C937 C941 1.408 . S
C938 C936 1.363 . S
C938 C939 1.370 . S
C938 C942 1.524 1_554 S
C939 C931 1.503 1_454 S
C939 C938 1.370 . S
C939 C940 1.390 1_455 S
C940 C939 1.390 1_655 S
C940 C941 1.372 1_655 S
C940 C943 1.586 . S
C941 C937 1.408 . S
C941 C940 1.372 1_455 S
C941 H953 0.930 . S
C942 C938 1.524 1_556 S
C942 H954 0.956 . S
C942 H955 0.961 . S
C942 H956 0.961 . S
C943 C940 1.586 . S
C943 H957 0.958 . S
C943 H958 0.961 . S
C943 H959 0.960 . S
H944 C928 0.931 . S
H945 C933 0.929 . S
H946 C934 0.960 . S
H947 C934 0.962 . S
H948 C934 0.960 . S
H949 C935 0.961 . S
H950 C935 0.961 . S
H951 C935 0.961 . S
H952 C936 0.931 . S
H953 C941 0.930 . S
H954 C942 0.956 . S
H955 C942 0.961 . S
H956 C942 0.961 . S
H957 C943 0.958 . S
H958 C943 0.961 . S
H959 C943 0.960 . S
C960 C961 1.391 . S
C960 C962 1.394 . S
C960 H976 0.931 . S
C961 C960 1.391 . S
C961 C965 1.376 . S
C962 C960 1.394 . S
C962 C963 1.369 . S
C962 C966 1.531 . S
C963 C962 1.369 . S
C963 C964 1.410 . S
C963 C971 1.503 1_556 S
C964 C963 1.410 . S
C964 C965 1.392 . S
C964 C967 1.511 . S
C965 C961 1.376 . S
C965 C964 1.392 . S
C965 H977 0.929 . S
C966 C962 1.531 . S
C966 H978 0.960 . S
C966 H979 0.952 1_556 S
C966 H980 0.960 . S
C967 C964 1.511 . S
C967 H981 0.961 . S
C967 H982 0.961 1_556 S
C967 H983 0.961 . S
C968 C969 1.370 . S
C968 C970 1.363 . S
C968 H984 0.931 . S
C969 C968 1.370 . S
C969 C973 1.408 . S
C970 C968 1.363 . S
C970 C971 1.370 . S
C970 C974 1.524 . S
C971 C963 1.503 1_554 S
C971 C970 1.370 . S
C971 C972 1.403 1_554 S
C972 C971 1.403 1_556 S
C972 C973 1.404 1_556 S
C972 C975 1.539 . S
C973 C969 1.408 . S
C973 C972 1.404 1_554 S
C973 H985 0.930 . S
C974 C970 1.524 . S
C974 H986 0.956 . S
C974 H987 0.961 . S
C974 H988 0.961 . S
C975 C972 1.539 . S
C975 H989 0.958 . S
C975 H990 0.961 . S
C975 H991 0.960 . S
H976 C960 0.931 . S
H977 C965 0.929 . S
H978 C966 0.960 . S
H979 C966 0.952 1_554 S
H980 C966 0.960 . S
H981 C967 0.961 . S
H982 C967 0.961 1_554 S
H983 C967 0.961 . S
H984 C968 0.931 . S
H985 C973 0.930 . S
H986 C974 0.956 . S
H987 C974 0.961 . S
H988 C974 0.961 . S
H989 C975 0.958 . S
H990 C975 0.961 . S
H991 C975 0.960 . S
C992 C993 1.391 . S
C992 C994 1.394 1_455 S
C992 H1008 0.931 . S
C993 C992 1.391 . S
C993 C997 1.376 . S
C994 C992 1.394 1_655 S
C994 C995 1.369 1_655 S
C994 C998 1.531 . S
C995 C994 1.369 1_455 S
C995 C996 1.410 . S
C995 C1003 1.503 1_455 S
C996 C995 1.410 . S
C996 C997 1.392 . S
C996 C999 1.511 . S
C997 C993 1.376 . S
C997 C996 1.392 . S
C997 H1009 0.929 . S
C998 C994 1.531 . S
C998 H1010 0.960 . S
C998 H1011 0.962 . S
C998 H1012 0.960 . S
C999 C996 1.511 . S
C999 H1013 0.961 . S
C999 H1014 0.961 . S
C999 H1015 0.961 . S
C1000 C1001 1.370 . S
C1000 C1002 1.363 . S
C1000 H1016 0.931 . S
C1001 C1000 1.370 . S
C1001 C1005 1.408 . S
C1002 C1000 1.363 . S
C1002 C1003 1.370 . S
C1002 C1006 1.524 1_655 S
C1003 C995 1.503 1_655 S
C1003 C1002 1.370 . S
C1003 C1004 1.403 . S
C1004 C1003 1.403 . S
C1004 C1005 1.404 . S
C1004 C1007 1.539 . S
C1005 C1001 1.408 . S
C1005 C1004 1.404 . S
C1005 H1017 0.930 . S
C1006 C1002 1.524 1_455 S
C1006 H1018 0.956 . S
C1006 H1019 0.961 . S
C1006 H1020 0.961 . S
C1007 C1004 1.539 . S
C1007 H1021 0.958 . S
C1007 H1022 0.961 . S
C1007 H1023 0.960 . S
H1008 C992 0.931 . S
H1009 C997 0.929 . S
H1010 C998 0.960 . S
H1011 C998 0.962 . S
H1012 C998 0.960 . S
H1013 C999 0.961 . S
H1014 C999 0.961 . S
H1015 C999 0.961 . S
H1016 C1000 0.931 . S
H1017 C1005 0.930 . S
H1018 C1006 0.956 . S
H1019 C1006 0.961 . S
H1020 C1006 0.961 . S
H1021 C1007 0.958 . S
H1022 C1007 0.961 . S
H1023 C1007 0.960 . S
C1024 C1025 1.391 . S
C1024 C1026 1.394 . S
C1024 H1040 0.931 . S
C1025 C1024 1.391 . S
C1025 C1029 1.376 . S
C1026 C1024 1.394 . S
C1026 C1027 1.369 . S
C1026 C1030 1.531 . S
C1027 C1026 1.369 . S
C1027 C1028 1.410 . S
C1027 C1035 1.503 . S
C1028 C1027 1.410 . S
C1028 C1029 1.392 . S
C1028 C1031 1.511 . S
C1029 C1025 1.376 . S
C1029 C1028 1.392 . S
C1029 H1041 0.929 . S
C1030 C1026 1.531 . S
C1030 H1042 0.960 . S
C1030 H1043 0.962 . S
C1030 H1044 0.960 . S
C1031 C1028 1.511 . S
C1031 H1045 0.961 . S
C1031 H1046 0.961 . S
C1031 H1047 0.961 . S
C1032 C1033 1.370 . S
C1032 C1034 1.363 . S
C1032 H1048 0.931 . S
C1033 C1032 1.370 . S
C1033 C1037 1.408 . S
C1034 C1032 1.363 . S
C1034 C1035 1.370 . S
C1034 C1038 1.524 . S
C1035 C1027 1.503 . S
C1035 C1034 1.370 . S
C1035 C1036 1.403 . S
C1036 C1035 1.403 . S
C1036 C1037 1.404 . S
C1036 C1039 1.539 . S
C1037 C1033 1.408 . S
C1037 C1036 1.404 . S
C1037 H1049 0.930 . S
C1038 C1034 1.524 . S
C1038 H1050 0.956 . S
C1038 H1051 0.961 . S
C1038 H1052 0.961 . S
C1039 C1036 1.539 . S
C1039 H1053 0.958 . S
C1039 H1054 0.961 . S
C1039 H1055 0.960 . S
H1040 C1024 0.931 . S
H1041 C1029 0.929 . S
H1042 C1030 0.960 . S
H1043 C1030 0.962 . S
H1044 C1030 0.960 . S
H1045 C1031 0.961 . S
H1046 C1031 0.961 . S
H1047 C1031 0.961 . S
H1048 C1032 0.931 . S
H1049 C1037 0.930 . S
H1050 C1038 0.956 . S
H1051 C1038 0.961 . S
H1052 C1038 0.961 . S
H1053 C1039 0.958 . S
H1054 C1039 0.961 . S
H1055 C1039 0.960 . S
C1056 C1057 1.391 . S
C1056 C1058 1.394 . S
C1056 H1072 0.931 . S
C1057 C1056 1.391 . S
C1057 C1061 1.376 . S
C1058 C1056 1.394 . S
C1058 C1059 1.369 . S
C1058 C1062 1.531 . S
C1059 C1058 1.369 . S
C1059 C1060 1.410 . S
C1059 C1067 1.503 1_556 S
C1060 C1059 1.410 . S
C1060 C1061 1.392 . S
C1060 C1063 1.511 1_556 S
C1061 C1057 1.376 . S
C1061 C1060 1.392 . S
C1061 H1073 0.929 . S
C1062 C1058 1.531 . S
C1062 H1074 0.960 . S
C1062 H1075 0.962 . S
C1062 H1076 0.960 . S
C1063 C1060 1.511 1_554 S
C1063 H1077 0.961 . S
C1063 H1078 0.961 . S
C1063 H1079 0.961 . S
C1064 C1065 1.370 . S
C1064 C1066 1.363 . S
C1064 H1080 0.931 . S
C1065 C1064 1.370 . S
C1065 C1069 1.408 . S
C1066 C1064 1.363 . S
C1066 C1067 1.370 . S
C1066 C1070 1.524 1_554 S
C1067 C1059 1.503 1_554 S
C1067 C1066 1.370 . S
C1067 C1068 1.403 . S
C1068 C1067 1.403 . S
C1068 C1069 1.404 . S
C1068 C1071 1.539 . S
C1069 C1065 1.408 . S
C1069 C1068 1.404 . S
C1069 H1081 0.930 . S
C1070 C1066 1.524 1_556 S
C1070 H1082 0.956 . S
C1070 H1083 0.961 . S
C1070 H1084 0.961 . S
C1071 C1068 1.539 . S
C1071 H1085 0.958 . S
C1071 H1086 0.961 . S
C1071 H1087 0.960 . S
H1072 C1056 0.931 . S
H1073 C1061 0.929 . S
H1074 C1062 0.960 . S
H1075 C1062 0.962 . S
H1076 C1062 0.960 . S
H1077 C1063 0.961 . S
H1078 C1063 0.961 . S
H1079 C1063 0.961 . S
H1080 C1064 0.931 . S
H1081 C1069 0.930 . S
H1082 C1070 0.956 . S
H1083 C1070 0.961 . S
H1084 C1070 0.961 . S
H1085 C1071 0.958 . S
H1086 C1071 0.961 . S
H1087 C1071 0.960 . S
C1088 C1089 1.391 . S
C1088 C1090 1.394 . S
C1088 H1104 0.931 . S
C1089 C1088 1.391 . S
C1089 C1093 1.376 . S
C1090 C1088 1.394 . S
C1090 C1091 1.369 . S
C1090 C1094 1.531 1_655 S
C1091 C1090 1.369 . S
C1091 C1092 1.410 . S
C1091 C1099 1.503 1_655 S
C1092 C1091 1.410 . S
C1092 C1093 1.392 . S
C1092 C1095 1.511 . S
C1093 C1089 1.376 . S
C1093 C1092 1.392 . S
C1093 H1105 0.929 . S
C1094 C1090 1.531 1_455 S
C1094 H1106 0.960 . S
C1094 H1107 0.962 . S
C1094 H1108 0.960 . S
C1095 C1092 1.511 . S
C1095 H1109 0.961 . S
C1095 H1110 0.961 . S
C1095 H1111 0.961 . S
C1096 C1097 1.370 . S
C1096 C1098 1.391 . S
C1096 H1112 0.931 . S
C1097 C1096 1.370 . S
C1097 C1101 1.408 . S
C1098 C1096 1.391 . S
C1098 C1099 1.391 . S
C1098 C1102 1.477 1_455 S
C1099 C1091 1.503 1_455 S
C1099 C1098 1.391 . S
C1099 C1100 1.403 . S
C1100 C1099 1.403 . S
C1100 C1101 1.404 . S
C1100 C1103 1.539 . S
C1101 C1097 1.408 . S
C1101 C1100 1.404 . S
C1101 H1113 0.930 . S
C1102 C1098 1.477 1_655 S
C1102 H1114 0.956 . S
C1102 H1115 0.961 . S
C1102 H1116 0.961 . S
C1103 C1100 1.539 . S
C1103 H1117 0.958 . S
C1103 H1118 0.961 . S
C1103 H1119 0.960 . S
H1104 C1088 0.931 . S
H1105 C1093 0.929 . S
H1106 C1094 0.960 . S
H1107 C1094 0.962 . S
H1108 C1094 0.960 . S
H1109 C1095 0.961 . S
H1110 C1095 0.961 . S
H1111 C1095 0.961 . S
H1112 C1096 0.931 . S
H1113 C1101 0.930 . S
H1114 C1102 0.956 . S
H1115 C1102 0.961 . S
H1116 C1102 0.961 . S
H1117 C1103 0.958 . S
H1118 C1103 0.961 . S
H1119 C1103 0.960 . S
C1120 C1121 1.391 . S
C1120 C1122 1.394 . S
C1120 H1136 0.931 . S
C1121 C1120 1.391 . S
C1121 C1125 1.376 . S
C1122 C1120 1.394 . S
C1122 C1123 1.369 . S
C1122 C1126 1.531 . S
C1123 C1122 1.369 . S
C1123 C1124 1.410 . S
C1123 C1131 1.503 . S
C1124 C1123 1.410 . S
C1124 C1125 1.392 . S
C1124 C1127 1.511 . S
C1125 C1121 1.376 . S
C1125 C1124 1.392 . S
C1125 H1137 0.929 . S
C1126 C1122 1.531 . S
C1126 H1138 0.960 . S
C1126 H1139 0.962 . S
C1126 H1140 0.960 . S
C1127 C1124 1.511 . S
C1127 H1141 0.961 . S
C1127 H1142 0.961 . S
C1127 H1143 0.961 . S
C1128 C1129 1.370 . S
C1128 C1130 1.363 . S
C1128 H1144 0.931 . S
C1129 C1128 1.370 . S
C1129 C1133 1.408 . S
C1130 C1128 1.363 . S
C1130 C1131 1.370 . S
C1130 C1134 1.524 . S
C1131 C1123 1.503 . S
C1131 C1130 1.370 . S
C1131 C1132 1.403 . S
C1132 C1131 1.403 . S
C1132 C1133 1.404 . S
C1132 C1135 1.539 . S
C1133 C1129 1.408 . S
C1133 C1132 1.404 . S
C1133 H1145 0.930 . S
C1134 C1130 1.524 . S
C1134 H1146 0.956 . S
C1134 H1147 0.961 . S
C1134 H1148 0.961 . S
C1135 C1132 1.539 . S
C1135 H1149 0.958 . S
C1135 H1150 0.961 . S
C1135 H1151 0.960 . S
H1136 C1120 0.931 . S
H1137 C1125 0.929 . S
H1138 C1126 0.960 . S
H1139 C1126 0.962 . S
H1140 C1126 0.960 . S
H1141 C1127 0.961 . S
H1142 C1127 0.961 . S
H1143 C1127 0.961 . S
H1144 C1128 0.931 . S
H1145 C1133 0.930 . S
H1146 C1134 0.956 . S
H1147 C1134 0.961 . S
H1148 C1134 0.961 . S
H1149 C1135 0.958 . S
H1150 C1135 0.961 . S
H1151 C1135 0.960 . S
C1152 C1153 1.391 . S
C1152 C1154 1.359 1_655 S
C1152 H1168 0.931 . S
C1153 C1152 1.391 . S
C1153 C1157 1.376 . S
C1154 C1152 1.359 1_455 S
C1154 C1155 1.345 1_455 S
C1154 C1158 1.592 . S
C1155 C1154 1.345 1_655 S
C1155 C1156 1.410 . S
C1155 C1163 1.503 1_645 S
C1156 C1155 1.410 . S
C1156 C1157 1.392 . S
C1156 C1159 1.511 1_545 S
C1157 C1153 1.376 . S
C1157 C1156 1.392 . S
C1157 H1169 0.929 . S
C1158 C1154 1.592 . S
C1158 H1170 0.960 . S
C1158 H1171 0.962 . S
C1158 H1172 0.960 . S
C1159 C1156 1.511 1_565 S
C1159 H1173 0.961 . S
C1159 H1174 0.961 . S
C1159 H1175 0.961 . S
C1160 C1161 1.370 . S
C1160 C1162 1.363 . S
C1160 H1176 0.931 . S
C1161 C1160 1.370 . S
C1161 C1165 1.408 . S
C1162 C1160 1.363 . S
C1162 C1163 1.370 . S
C1162 C1166 1.524 . S
C1163 C1155 1.503 1_465 S
C1163 C1162 1.370 . S
C1163 C1164 1.403 1_565 S
C1164 C1163 1.403 1_545 S
C1164 C1165 1.404 1_545 S
C1164 C1167 1.553 . S
C1165 C1161 1.408 . S
C1165 C1164 1.404 1_565 S
C1165 H1177 0.930 . S
C1166 C1162 1.524 . S
C1166 H1178 0.956 . S
C1166 H1179 0.961 1_455 S
C1166 H1180 0.961 . S
C1167 C1164 1.553 . S
C1167 H1181 0.977 . S
C1167 H1182 0.957 1_455 S
C1167 H1183 0.933 1_455 S
H1168 C1152 0.931 . S
H1169 C1157 0.929 . S
H1170 C1158 0.960 . S
H1171 C1158 0.962 . S
H1172 C1158 0.960 . S
H1173 C1159 0.961 . S
H1174 C1159 0.961 . S
H1175 C1159 0.961 . S
H1176 C1160 0.931 . S
H1177 C1165 0.930 . S
H1178 C1166 0.956 . S
H1179 C1166 0.961 1_655 S
H1180 C1166 0.961 . S
H1181 C1167 0.977 . S
H1182 C1167 0.957 1_655 S
H1183 C1167 0.933 1_655 S
C1184 C1185 1.391 . S
C1184 C1186 1.394 . S
C1184 H1200 0.931 . S
C1185 C1184 1.391 . S
C1185 C1189 1.376 . S
C1186 C1184 1.394 . S
C1186 C1187 1.369 . S
C1186 C1190 1.531 . S
C1187 C1186 1.369 . S
C1187 C1188 1.410 . S
C1187 C1195 1.503 . S
C1188 C1187 1.410 . S
C1188 C1189 1.392 . S
C1188 C1191 1.511 . S
C1189 C1185 1.376 . S
C1189 C1188 1.392 . S
C1189 H1201 0.929 . S
C1190 C1186 1.531 . S
C1190 H1202 0.960 . S
C1190 H1203 0.962 . S
C1190 H1204 0.960 . S
C1191 C1188 1.511 . S
C1191 H1205 0.961 . S
C1191 H1206 0.961 . S
C1191 H1207 0.961 . S
C1192 C1193 1.370 . S
C1192 C1194 1.363 . S
C1192 H1208 0.931 . S
C1193 C1192 1.370 . S
C1193 C1197 1.408 . S
C1194 C1192 1.363 . S
C1194 C1195 1.370 . S
C1194 C1198 1.524 . S
C1195 C1187 1.503 . S
C1195 C1194 1.370 . S
C1195 C1196 1.403 . S
C1196 C1195 1.403 . S
C1196 C1197 1.404 . S
C1196 C1199 1.539 . S
C1197 C1193 1.408 . S
C1197 C1196 1.404 . S
C1197 H1209 0.930 . S
C1198 C1194 1.524 . S
C1198 H1210 0.956 . S
C1198 H1211 0.961 . S
C1198 H1212 0.961 . S
C1199 C1196 1.539 . S
C1199 H1213 0.958 . S
C1199 H1214 0.961 . S
C1199 H1215 0.960 . S
H1200 C1184 0.931 . S
H1201 C1189 0.929 . S
H1202 C1190 0.960 . S
H1203 C1190 0.962 . S
H1204 C1190 0.960 . S
H1205 C1191 0.961 . S
H1206 C1191 0.961 . S
H1207 C1191 0.961 . S
H1208 C1192 0.931 . S
H1209 C1197 0.930 . S
H1210 C1198 0.956 . S
H1211 C1198 0.961 . S
H1212 C1198 0.961 . S
H1213 C1199 0.958 . S
H1214 C1199 0.961 . S
H1215 C1199 0.960 . S
C1216 C1217 1.391 . S
C1216 C1218 1.394 . S
C1216 H1232 0.931 . S
C1217 C1216 1.391 . S
C1217 C1221 1.376 . S
C1218 C1216 1.394 . S
C1218 C1219 1.369 . S
C1218 C1222 1.531 . S
C1219 C1218 1.369 . S
C1219 C1220 1.410 . S
C1219 C1227 1.503 1_565 S
C1220 C1219 1.410 . S
C1220 C1221 1.392 . S
C1220 C1223 1.511 1_565 S
C1221 C1217 1.376 . S
C1221 C1220 1.392 . S
C1221 H1233 0.929 . S
C1222 C1218 1.531 . S
C1222 H1234 0.960 . S
C1222 H1235 0.962 . S
C1222 H1236 0.960 . S
C1223 C1220 1.511 1_545 S
C1223 H1237 0.961 . S
C1223 H1238 0.961 . S
C1223 H1239 0.961 . S
C1224 C1225 1.370 . S
C1224 C1226 1.363 . S
C1224 H1240 0.931 . S
C1225 C1224 1.370 . S
C1225 C1229 1.408 . S
C1226 C1224 1.363 . S
C1226 C1227 1.370 . S
C1226 C1230 1.524 . S
C1227 C1219 1.503 1_545 S
C1227 C1226 1.370 . S
C1227 C1228 1.403 1_545 S
C1228 C1227 1.403 1_565 S
C1228 C1229 1.404 1_565 S
C1228 C1231 1.539 . S
C1229 C1225 1.408 . S
C1229 C1228 1.404 1_545 S
C1229 H1241 0.930 . S
C1230 C1226 1.524 . S
C1230 H1242 0.956 . S
C1230 H1243 0.961 . S
C1230 H1244 0.961 . S
C1231 C1228 1.539 . S
C1231 H1245 0.958 . S
C1231 H1246 0.961 . S
C1231 H1247 0.960 . S
H1232 C1216 0.931 . S
H1233 C1221 0.929 . S
H1234 C1222 0.960 . S
H1235 C1222 0.962 . S
H1236 C1222 0.960 . S
H1237 C1223 0.961 . S
H1238 C1223 0.961 . S
H1239 C1223 0.961 . S
H1240 C1224 0.931 . S
H1241 C1229 0.930 . S
H1242 C1230 0.956 . S
H1243 C1230 0.961 . S
H1244 C1230 0.961 . S
H1245 C1231 0.958 . S
H1246 C1231 0.961 . S
H1247 C1231 0.960 . S
C1248 C1249 1.391 . S
C1248 C1250 1.394 . S
C1248 H1264 0.931 . S
C1249 C1248 1.391 . S
C1249 C1253 1.376 . S
C1250 C1248 1.394 . S
C1250 C1251 1.369 . S
C1250 C1254 1.531 . S
C1251 C1250 1.369 . S
C1251 C1252 1.410 . S
C1251 C1259 1.503 . S
C1252 C1251 1.410 . S
C1252 C1253 1.392 . S
C1252 C1255 1.511 . S
C1253 C1249 1.376 . S
C1253 C1252 1.392 . S
C1253 H1265 0.929 . S
C1254 C1250 1.531 . S
C1254 H1266 0.960 . S
C1254 H1267 0.962 . S
C1254 H1268 0.960 . S
C1255 C1252 1.511 . S
C1255 H1269 0.961 . S
C1255 H1270 0.961 . S
C1255 H1271 0.961 . S
C1256 C1257 1.370 . S
C1256 C1258 1.363 . S
C1256 H1272 0.931 . S
C1257 C1256 1.370 . S
C1257 C1261 1.408 . S
C1258 C1256 1.363 . S
C1258 C1259 1.370 . S
C1258 C1262 1.524 . S
C1259 C1251 1.503 . S
C1259 C1258 1.370 . S
C1259 C1260 1.403 . S
C1260 C1259 1.403 . S
C1260 C1261 1.404 . S
C1260 C1263 1.539 . S
C1261 C1257 1.408 . S
C1261 C1260 1.404 . S
C1261 H1273 0.930 . S
C1262 C1258 1.524 . S
C1262 H1274 0.956 . S
C1262 H1275 0.961 . S
C1262 H1276 0.961 . S
C1263 C1260 1.539 . S
C1263 H1277 0.958 . S
C1263 H1278 0.961 . S
C1263 H1279 0.960 . S
H1264 C1248 0.931 . S
H1265 C1253 0.929 . S
H1266 C1254 0.960 . S
H1267 C1254 0.962 . S
H1268 C1254 0.960 . S
H1269 C1255 0.961 . S
H1270 C1255 0.961 . S
H1271 C1255 0.961 . S
H1272 C1256 0.931 . S
H1273 C1261 0.930 . S
H1274 C1262 0.956 . S
H1275 C1262 0.961 . S
H1276 C1262 0.961 . S
H1277 C1263 0.958 . S
H1278 C1263 0.961 . S
H1279 C1263 0.960 . S
C1280 C1281 1.391 . S
C1280 C1282 1.394 1_565 S
C1280 H1296 0.931 . S
C1281 C1280 1.391 . S
C1281 C1285 1.376 . S
C1282 C1280 1.394 1_545 S
C1282 C1283 1.369 1_545 S
C1282 C1286 1.531 . S
C1283 C1282 1.369 1_565 S
C1283 C1284 1.410 . S
C1283 C1291 1.503 1_565 S
C1284 C1283 1.410 . S
C1284 C1285 1.392 . S
C1284 C1287 1.511 . S
C1285 C1281 1.376 . S
C1285 C1284 1.392 . S
C1285 H1297 0.929 . S
C1286 C1282 1.531 . S
C1286 H1298 0.960 . S
C1286 H1299 0.962 . S
C1286 H1300 0.960 . S
C1287 C1284 1.511 . S
C1287 H1301 0.961 . S
C1287 H1302 0.961 . S
C1287 H1303 0.961 . S
C1288 C1289 1.370 . S
C1288 C1290 1.363 . S
C1288 H1304 0.931 . S
C1289 C1288 1.370 . S
C1289 C1293 1.408 . S
C1290 C1288 1.363 . S
C1290 C1291 1.370 . S
C1290 C1294 1.524 . S
C1291 C1283 1.503 1_545 S
C1291 C1290 1.370 . S
C1291 C1292 1.403 . S
C1292 C1291 1.403 . S
C1292 C1293 1.404 . S
C1292 C1295 1.539 . S
C1293 C1289 1.408 . S
C1293 C1292 1.404 . S
C1293 H1305 0.930 . S
C1294 C1290 1.524 . S
C1294 H1306 0.956 . S
C1294 H1307 0.961 1_545 S
C1294 H1308 0.961 . S
C1295 C1292 1.539 . S
C1295 H1309 0.958 . S
C1295 H1310 0.961 1_545 S
C1295 H1311 0.960 1_545 S
H1296 C1280 0.931 . S
H1297 C1285 0.929 . S
H1298 C1286 0.960 . S
H1299 C1286 0.962 . S
H1300 C1286 0.960 . S
H1301 C1287 0.961 . S
H1302 C1287 0.961 . S
H1303 C1287 0.961 . S
H1304 C1288 0.931 . S
H1305 C1293 0.930 . S
H1306 C1294 0.956 . S
H1307 C1294 0.961 1_565 S
H1308 C1294 0.961 . S
H1309 C1295 0.958 . S
H1310 C1295 0.961 1_565 S
H1311 C1295 0.960 1_565 S
C1312 C1313 1.391 . S
C1312 C1314 1.394 . S
C1312 H1328 0.931 . S
C1313 C1312 1.391 . S
C1313 C1317 1.376 . S
C1314 C1312 1.394 . S
C1314 C1315 1.369 . S
C1314 C1318 1.531 . S
C1315 C1314 1.369 . S
C1315 C1316 1.410 . S
C1315 C1323 1.503 . S
C1316 C1315 1.410 . S
C1316 C1317 1.392 . S
C1316 C1319 1.511 . S
C1317 C1313 1.376 . S
C1317 C1316 1.392 . S
C1317 H1329 0.929 . S
C1318 C1314 1.531 . S
C1318 H1330 0.960 . S
C1318 H1331 0.962 . S
C1318 H1332 0.960 . S
C1319 C1316 1.511 . S
C1319 H1333 0.961 . S
C1319 H1334 0.961 . S
C1319 H1335 0.961 . S
C1320 C1321 1.370 . S
C1320 C1322 1.363 . S
C1320 H1336 0.931 . S
C1321 C1320 1.370 . S
C1321 C1325 1.408 . S
C1322 C1320 1.363 . S
C1322 C1323 1.370 . S
C1322 C1326 1.524 . S
C1323 C1315 1.503 . S
C1323 C1322 1.370 . S
C1323 C1324 1.403 . S
C1324 C1323 1.403 . S
C1324 C1325 1.404 . S
C1324 C1327 1.539 . S
C1325 C1321 1.408 . S
C1325 C1324 1.404 . S
C1325 H1337 0.930 . S
C1326 C1322 1.524 . S
C1326 H1338 0.956 . S
C1326 H1339 0.961 . S
C1326 H1340 0.961 . S
C1327 C1324 1.539 . S
C1327 H1341 0.958 . S
C1327 H1342 0.961 . S
C1327 H1343 0.960 . S
H1328 C1312 0.931 . S
H1329 C1317 0.929 . S
H1330 C1318 0.960 . S
H1331 C1318 0.962 . S
H1332 C1318 0.960 . S
H1333 C1319 0.961 . S
H1334 C1319 0.961 . S
H1335 C1319 0.961 . S
H1336 C1320 0.931 . S
H1337 C1325 0.930 . S
H1338 C1326 0.956 . S
H1339 C1326 0.961 . S
H1340 C1326 0.961 . S
H1341 C1327 0.958 . S
H1342 C1327 0.961 . S
H1343 C1327 0.960 . S
C1344 C1345 1.391 . S
C1344 C1346 1.394 . S
C1344 H1360 0.931 . S
C1345 C1344 1.391 . S
C1345 C1349 1.376 . S
C1346 C1344 1.394 . S
C1346 C1347 1.369 . S
C1346 C1350 1.531 . S
C1347 C1346 1.369 . S
C1347 C1348 1.410 . S
C1347 C1355 1.503 . S
C1348 C1347 1.410 . S
C1348 C1349 1.392 . S
C1348 C1351 1.511 . S
C1349 C1345 1.376 . S
C1349 C1348 1.392 . S
C1349 H1361 0.929 . S
C1350 C1346 1.531 . S
C1350 H1362 0.960 . S
C1350 H1363 0.962 . S
C1350 H1364 0.960 . S
C1351 C1348 1.511 . S
C1351 H1365 0.961 . S
C1351 H1366 0.961 . S
C1351 H1367 0.961 . S
C1352 C1353 1.370 . S
C1352 C1354 1.363 . S
C1352 H1368 0.931 . S
C1353 C1352 1.370 . S
C1353 C1357 1.408 . S
C1354 C1352 1.363 . S
C1354 C1355 1.370 . S
C1354 C1358 1.524 . S
C1355 C1347 1.503 . S
C1355 C1354 1.370 . S
C1355 C1356 1.403 . S
C1356 C1355 1.403 . S
C1356 C1357 1.404 . S
C1356 C1359 1.539 . S
C1357 C1353 1.408 . S
C1357 C1356 1.404 . S
C1357 H1369 0.930 . S
C1358 C1354 1.524 . S
C1358 H1370 0.956 . S
C1358 H1371 0.961 . S
C1358 H1372 0.961 . S
C1359 C1356 1.539 . S
C1359 H1373 0.958 . S
C1359 H1374 0.961 . S
C1359 H1375 0.960 . S
H1360 C1344 0.931 . S
H1361 C1349 0.929 . S
H1362 C1350 0.960 . S
H1363 C1350 0.962 . S
H1364 C1350 0.960 . S
H1365 C1351 0.961 . S
H1366 C1351 0.961 . S
H1367 C1351 0.961 . S
H1368 C1352 0.931 . S
H1369 C1357 0.930 . S
H1370 C1358 0.956 . S
H1371 C1358 0.961 . S
H1372 C1358 0.961 . S
H1373 C1359 0.958 . S
H1374 C1359 0.961 . S
H1375 C1359 0.960 . S
C1376 C1377 1.391 . S
C1376 C1378 1.394 . S
C1376 H1392 0.931 . S
C1377 C1376 1.391 . S
C1377 C1381 1.376 . S
C1378 C1376 1.394 . S
C1378 C1379 1.369 . S
C1378 C1382 1.531 . S
C1379 C1378 1.369 . S
C1379 C1380 1.410 . S
C1379 C1387 1.503 . S
C1380 C1379 1.410 . S
C1380 C1381 1.392 . S
C1380 C1383 1.511 . S
C1381 C1377 1.376 . S
C1381 C1380 1.392 . S
C1381 H1393 0.929 . S
C1382 C1378 1.531 . S
C1382 H1394 0.960 . S
C1382 H1395 0.962 . S
C1382 H1396 0.960 . S
C1383 C1380 1.511 . S
C1383 H1397 0.961 . S
C1383 H1398 0.961 . S
C1383 H1399 0.961 . S
C1384 C1385 1.370 . S
C1384 C1386 1.363 . S
C1384 H1400 0.931 . S
C1385 C1384 1.370 . S
C1385 C1389 1.408 . S
C1386 C1384 1.363 . S
C1386 C1387 1.370 . S
C1386 C1390 1.524 . S
C1387 C1379 1.503 . S
C1387 C1386 1.370 . S
C1387 C1388 1.403 . S
C1388 C1387 1.403 . S
C1388 C1389 1.404 . S
C1388 C1391 1.539 . S
C1389 C1385 1.408 . S
C1389 C1388 1.404 . S
C1389 H1401 0.930 . S
C1390 C1386 1.524 . S
C1390 H1402 0.956 . S
C1390 H1403 0.961 . S
C1390 H1404 0.961 . S
C1391 C1388 1.539 . S
C1391 H1405 0.958 . S
C1391 H1406 0.961 . S
C1391 H1407 0.960 . S
H1392 C1376 0.931 . S
H1393 C1381 0.929 . S
H1394 C1382 0.960 . S
H1395 C1382 0.962 . S
H1396 C1382 0.960 . S
H1397 C1383 0.961 . S
H1398 C1383 0.961 . S
H1399 C1383 0.961 . S
H1400 C1384 0.931 . S
H1401 C1389 0.930 . S
H1402 C1390 0.956 . S
H1403 C1390 0.961 . S
H1404 C1390 0.961 . S
H1405 C1391 0.958 . S
H1406 C1391 0.961 . S
H1407 C1391 0.960 . S
C1408 C1409 1.391 . S
C1408 C1410 1.394 . S
C1408 H1424 0.931 . S
C1409 C1408 1.391 . S
C1409 C1413 1.376 . S
C1410 C1408 1.394 . S
C1410 C1411 1.369 . S
C1410 C1414 1.531 . S
C1411 C1410 1.369 . S
C1411 C1412 1.410 . S
C1411 C1419 1.503 1_546 S
C1412 C1411 1.410 . S
C1412 C1413 1.392 . S
C1412 C1415 1.511 1_546 S
C1413 C1409 1.376 . S
C1413 C1412 1.392 . S
C1413 H1425 0.929 . S
C1414 C1410 1.531 . S
C1414 H1426 0.960 . S
C1414 H1427 0.962 . S
C1414 H1428 0.960 . S
C1415 C1412 1.511 1_564 S
C1415 H1429 0.961 . S
C1415 H1430 0.961 . S
C1415 H1431 0.961 1_565 S
C1416 C1417 1.370 . S
C1416 C1418 1.363 . S
C1416 H1432 0.931 . S
C1417 C1416 1.370 . S
C1417 C1421 1.408 . S
C1418 C1416 1.363 . S
C1418 C1419 1.370 . S
C1418 C1422 1.524 1_554 S
C1419 C1411 1.503 1_564 S
C1419 C1418 1.370 . S
C1419 C1420 1.403 1_565 S
C1420 C1419 1.403 1_545 S
C1420 C1421 1.404 1_545 S
C1420 C1423 1.539 . S
C1421 C1417 1.408 . S
C1421 C1420 1.404 1_565 S
C1421 H1433 0.930 . S
C1422 C1418 1.524 1_556 S
C1422 H1434 0.956 . S
C1422 H1435 0.961 . S
C1422 H1436 0.961 . S
C1423 C1420 1.539 . S
C1423 H1437 0.958 . S
C1423 H1438 0.961 . S
C1423 H1439 0.960 . S
H1424 C1408 0.931 . S
H1425 C1413 0.929 . S
H1426 C1414 0.960 . S
H1427 C1414 0.962 . S
H1428 C1414 0.960 . S
H1429 C1415 0.961 . S
H1430 C1415 0.961 . S
H1431 C1415 0.961 1_545 S
H1432 C1416 0.931 . S
H1433 C1421 0.930 . S
H1434 C1422 0.956 . S
H1435 C1422 0.961 . S
H1436 C1422 0.961 . S
H1437 C1423 0.958 . S
H1438 C1423 0.961 . S
H1439 C1423 0.960 . S
C1440 C1441 1.391 . S
C1440 C1442 1.394 . S
C1440 H1456 0.931 . S
C1441 C1440 1.391 . S
C1441 C1445 1.376 . S
C1442 C1440 1.394 . S
C1442 C1443 1.369 . S
C1442 C1446 1.531 . S
C1443 C1442 1.369 . S
C1443 C1444 1.410 . S
C1443 C1451 1.503 . S
C1444 C1443 1.410 . S
C1444 C1445 1.392 . S
C1444 C1447 1.511 . S
C1445 C1441 1.376 . S
C1445 C1444 1.392 . S
C1445 H1457 0.929 . S
C1446 C1442 1.531 . S
C1446 H1458 0.960 . S
C1446 H1459 0.962 . S
C1446 H1460 0.960 . S
C1447 C1444 1.511 . S
C1447 H1461 0.961 . S
C1447 H1462 0.961 . S
C1447 H1463 0.961 . S
C1448 C1449 1.370 . S
C1448 C1450 1.363 . S
C1448 H1464 0.931 . S
C1449 C1448 1.370 . S
C1449 C1453 1.408 . S
C1450 C1448 1.363 . S
C1450 C1451 1.370 . S
C1450 C1454 1.524 . S
C1451 C1443 1.503 . S
C1451 C1450 1.370 . S
C1451 C1452 1.403 . S
C1452 C1451 1.403 . S
C1452 C1453 1.404 . S
C1452 C1455 1.539 . S
C1453 C1449 1.408 . S
C1453 C1452 1.404 . S
C1453 H1465 0.930 . S
C1454 C1450 1.524 . S
C1454 H1466 0.956 . S
C1454 H1467 0.961 . S
C1454 H1468 0.961 . S
C1455 C1452 1.539 . S
C1455 H1469 0.958 . S
C1455 H1470 0.961 . S
C1455 H1471 0.960 . S
H1456 C1440 0.931 . S
H1457 C1445 0.929 . S
H1458 C1446 0.960 . S
H1459 C1446 0.962 . S
H1460 C1446 0.960 . S
H1461 C1447 0.961 . S
H1462 C1447 0.961 . S
H1463 C1447 0.961 . S
H1464 C1448 0.931 . S
H1465 C1453 0.930 . S
H1466 C1454 0.956 . S
H1467 C1454 0.961 . S
H1468 C1454 0.961 . S
H1469 C1455 0.958 . S
H1470 C1455 0.961 . S
H1471 C1455 0.960 . S
C1472 C1473 1.391 . S
C1472 C1474 1.394 . S
C1472 H1488 0.931 . S
C1473 C1472 1.391 . S
C1473 C1477 1.376 . S
C1474 C1472 1.394 . S
C1474 C1475 1.369 . S
C1474 C1478 1.531 . S
C1475 C1474 1.369 . S
C1475 C1476 1.410 . S
C1475 C1483 1.503 . S
C1476 C1475 1.410 . S
C1476 C1477 1.392 . S
C1476 C1479 1.511 . S
C1477 C1473 1.376 . S
C1477 C1476 1.392 . S
C1477 H1489 0.929 . S
C1478 C1474 1.531 . S
C1478 H1490 0.960 . S
C1478 H1491 0.962 . S
C1478 H1492 0.960 . S
C1479 C1476 1.511 . S
C1479 H1493 0.961 . S
C1479 H1494 0.961 . S
C1479 H1495 0.961 . S
C1480 C1481 1.370 . S
C1480 C1482 1.363 . S
C1480 H1496 0.931 . S
C1481 C1480 1.370 . S
C1481 C1485 1.408 . S
C1482 C1480 1.363 . S
C1482 C1483 1.370 . S
C1482 C1486 1.524 . S
C1483 C1475 1.503 . S
C1483 C1482 1.370 . S
C1483 C1484 1.403 . S
C1484 C1483 1.403 . S
C1484 C1485 1.404 . S
C1484 C1487 1.539 . S
C1485 C1481 1.408 . S
C1485 C1484 1.404 . S
C1485 H1497 0.930 . S
C1486 C1482 1.524 . S
C1486 H1498 0.956 . S
C1486 H1499 0.961 . S
C1486 H1500 0.961 . S
C1487 C1484 1.539 . S
C1487 H1501 0.958 . S
C1487 H1502 0.961 . S
C1487 H1503 0.960 . S
H1488 C1472 0.931 . S
H1489 C1477 0.929 . S
H1490 C1478 0.960 . S
H1491 C1478 0.962 . S
H1492 C1478 0.960 . S
H1493 C1479 0.961 . S
H1494 C1479 0.961 . S
H1495 C1479 0.961 . S
H1496 C1480 0.931 . S
H1497 C1485 0.930 . S
H1498 C1486 0.956 . S
H1499 C1486 0.961 . S
H1500 C1486 0.961 . S
H1501 C1487 0.958 . S
H1502 C1487 0.961 . S
H1503 C1487 0.960 . S
C1504 C1505 1.391 . S
C1504 C1506 1.394 . S
C1504 H1520 0.931 . S
C1505 C1504 1.391 . S
C1505 C1509 1.376 . S
C1506 C1504 1.394 . S
C1506 C1507 1.369 . S
C1506 C1510 1.531 . S
C1507 C1506 1.369 . S
C1507 C1508 1.410 . S
C1507 C1515 1.503 . S
C1508 C1507 1.410 . S
C1508 C1509 1.392 . S
C1508 C1511 1.511 . S
C1509 C1505 1.376 . S
C1509 C1508 1.392 . S
C1509 H1521 0.929 . S
C1510 C1506 1.531 . S
C1510 H1522 0.960 . S
C1510 H1523 0.962 . S
C1510 H1524 0.960 . S
C1511 C1508 1.511 . S
C1511 H1525 0.961 . S
C1511 H1526 0.961 . S
C1511 H1527 0.961 . S
C1512 C1513 1.370 . S
C1512 C1514 1.363 . S
C1512 H1528 0.931 . S
C1513 C1512 1.370 . S
C1513 C1517 1.408 . S
C1514 C1512 1.363 . S
C1514 C1515 1.370 . S
C1514 C1518 1.524 . S
C1515 C1507 1.503 . S
C1515 C1514 1.370 . S
C1515 C1516 1.403 . S
C1516 C1515 1.403 . S
C1516 C1517 1.404 . S
C1516 C1519 1.539 . S
C1517 C1513 1.408 . S
C1517 C1516 1.404 . S
C1517 H1529 0.930 . S
C1518 C1514 1.524 . S
C1518 H1530 0.956 . S
C1518 H1531 0.961 . S
C1518 H1532 0.961 . S
C1519 C1516 1.539 . S
C1519 H1533 0.958 . S
C1519 H1534 0.961 . S
C1519 H1535 0.960 . S
H1520 C1504 0.931 . S
H1521 C1509 0.929 . S
H1522 C1510 0.960 . S
H1523 C1510 0.962 . S
H1524 C1510 0.960 . S
H1525 C1511 0.961 . S
H1526 C1511 0.961 . S
H1527 C1511 0.961 . S
H1528 C1512 0.931 . S
H1529 C1517 0.930 . S
H1530 C1518 0.956 . S
H1531 C1518 0.961 . S
H1532 C1518 0.961 . S
H1533 C1519 0.958 . S
H1534 C1519 0.961 . S
H1535 C1519 0.960 . S
C1536 C1537 1.391 . S
C1536 C1538 1.394 . S
C1536 H1552 0.931 . S
C1537 C1536 1.391 . S
C1537 C1541 1.376 . S
C1538 C1536 1.394 . S
C1538 C1539 1.369 . S
C1538 C1542 1.531 . S
C1539 C1538 1.369 . S
C1539 C1540 1.410 . S
C1539 C1547 1.503 . S
C1540 C1539 1.410 . S
C1540 C1541 1.392 . S
C1540 C1543 1.511 . S
C1541 C1537 1.376 . S
C1541 C1540 1.392 . S
C1541 H1553 0.929 . S
C1542 C1538 1.531 . S
C1542 H1554 0.960 . S
C1542 H1555 0.962 . S
C1542 H1556 0.960 . S
C1543 C1540 1.511 . S
C1543 H1557 0.961 . S
C1543 H1558 0.961 . S
C1543 H1559 0.961 . S
C1544 C1545 1.370 . S
C1544 C1546 1.363 . S
C1544 H1560 0.931 . S
C1545 C1544 1.370 . S
C1545 C1549 1.408 . S
C1546 C1544 1.363 . S
C1546 C1547 1.370 . S
C1546 C1550 1.524 . S
C1547 C1539 1.503 . S
C1547 C1546 1.370 . S
C1547 C1548 1.403 . S
C1548 C1547 1.403 . S
C1548 C1549 1.404 . S
C1548 C1551 1.539 . S
C1549 C1545 1.408 . S
C1549 C1548 1.404 . S
C1549 H1561 0.930 . S
C1550 C1546 1.524 . S
C1550 H1562 0.956 . S
C1550 H1563 0.961 . S
C1550 H1564 0.961 . S
C1551 C1548 1.539 . S
C1551 H1565 0.958 . S
C1551 H1566 0.961 . S
C1551 H1567 0.960 . S
H1552 C1536 0.931 . S
H1553 C1541 0.929 . S
H1554 C1542 0.960 . S
H1555 C1542 0.962 . S
H1556 C1542 0.960 . S
H1557 C1543 0.961 . S
H1558 C1543 0.961 . S
H1559 C1543 0.961 . S
H1560 C1544 0.931 . S
H1561 C1549 0.930 . S
H1562 C1550 0.956 . S
H1563 C1550 0.961 . S
H1564 C1550 0.961 . S
H1565 C1551 0.958 . S
H1566 C1551 0.961 . S
H1567 C1551 0.960 . S
C1568 C1569 1.391 . S
C1568 C1570 1.394 . S
C1568 H1584 0.931 . S
C1569 C1568 1.391 . S
C1569 C1573 1.376 . S
C1570 C1568 1.394 . S
C1570 C1571 1.369 . S
C1570 C1574 1.531 . S
C1571 C1570 1.369 . S
C1571 C1572 1.410 . S
C1571 C1579 1.503 . S
C1572 C1571 1.410 . S
C1572 C1573 1.392 . S
C1572 C1575 1.511 . S
C1573 C1569 1.376 . S
C1573 C1572 1.392 . S
C1573 H1585 0.929 . S
C1574 C1570 1.531 . S
C1574 H1586 0.960 . S
C1574 H1587 0.962 . S
C1574 H1588 0.960 . S
C1575 C1572 1.511 . S
C1575 H1589 0.961 . S
C1575 H1590 0.961 . S
C1575 H1591 0.961 . S
C1576 C1577 1.370 . S
C1576 C1578 1.363 . S
C1576 H1592 0.931 . S
C1577 C1576 1.370 . S
C1577 C1581 1.408 . S
C1578 C1576 1.363 . S
C1578 C1579 1.370 . S
C1578 C1582 1.524 . S
C1579 C1571 1.503 . S
C1579 C1578 1.370 . S
C1579 C1580 1.403 . S
C1580 C1579 1.403 . S
C1580 C1581 1.404 . S
C1580 C1583 1.539 . S
C1581 C1577 1.408 . S
C1581 C1580 1.404 . S
C1581 H1593 0.930 . S
C1582 C1578 1.524 . S
C1582 H1594 0.956 . S
C1582 H1595 0.961 . S
C1582 H1596 0.961 . S
C1583 C1580 1.539 . S
C1583 H1597 0.958 . S
C1583 H1598 0.961 . S
C1583 H1599 0.960 . S
H1584 C1568 0.931 . S
H1585 C1573 0.929 . S
H1586 C1574 0.960 . S
H1587 C1574 0.962 . S
H1588 C1574 0.960 . S
H1589 C1575 0.961 . S
H1590 C1575 0.961 . S
H1591 C1575 0.961 . S
H1592 C1576 0.931 . S
H1593 C1581 0.930 . S
H1594 C1582 0.956 . S
H1595 C1582 0.961 . S
H1596 C1582 0.961 . S
H1597 C1583 0.958 . S
H1598 C1583 0.961 . S
H1599 C1583 0.960 . S
C1600 C1601 1.391 . S
C1600 C1602 1.394 . S
C1600 H1616 0.931 . S
C1601 C1600 1.391 . S
C1601 C1605 1.376 . S
C1602 C1600 1.394 . S
C1602 C1603 1.369 . S
C1602 C1606 1.531 . S
C1603 C1602 1.369 . S
C1603 C1604 1.410 . S
C1603 C1611 1.503 . S
C1604 C1603 1.410 . S
C1604 C1605 1.392 . S
C1604 C1607 1.511 . S
C1605 C1601 1.376 . S
C1605 C1604 1.392 . S
C1605 H1617 0.929 . S
C1606 C1602 1.531 . S
C1606 H1618 0.960 . S
C1606 H1619 0.962 . S
C1606 H1620 0.960 . S
C1607 C1604 1.511 . S
C1607 H1621 0.961 . S
C1607 H1622 0.961 . S
C1607 H1623 0.961 . S
C1608 C1609 1.370 . S
C1608 C1610 1.363 . S
C1608 H1624 0.931 . S
C1609 C1608 1.370 . S
C1609 C1613 1.408 . S
C1610 C1608 1.363 . S
C1610 C1611 1.370 . S
C1610 C1614 1.524 . S
C1611 C1603 1.503 . S
C1611 C1610 1.370 . S
C1611 C1612 1.403 . S
C1612 C1611 1.403 . S
C1612 C1613 1.404 . S
C1612 C1615 1.539 . S
C1613 C1609 1.408 . S
C1613 C1612 1.404 . S
C1613 H1625 0.930 . S
C1614 C1610 1.524 . S
C1614 H1626 0.956 . S
C1614 H1627 0.961 . S
C1614 H1628 0.961 . S
C1615 C1612 1.539 . S
C1615 H1629 0.958 . S
C1615 H1630 0.961 . S
C1615 H1631 0.960 . S
H1616 C1600 0.931 . S
H1617 C1605 0.929 . S
H1618 C1606 0.960 . S
H1619 C1606 0.962 . S
H1620 C1606 0.960 . S
H1621 C1607 0.961 . S
H1622 C1607 0.961 . S
H1623 C1607 0.961 . S
H1624 C1608 0.931 . S
H1625 C1613 0.930 . S
H1626 C1614 0.956 . S
H1627 C1614 0.961 . S
H1628 C1614 0.961 . S
H1629 C1615 0.958 . S
H1630 C1615 0.961 . S
H1631 C1615 0.960 . S
C1632 C1633 1.391 . S
C1632 C1634 1.394 . S
C1632 H1648 0.931 . S
C1633 C1632 1.391 . S
C1633 C1637 1.376 . S
C1634 C1632 1.394 . S
C1634 C1635 1.369 . S
C1634 C1638 1.531 . S
C1635 C1634 1.369 . S
C1635 C1636 1.410 . S
C1635 C1643 1.503 . S
C1636 C1635 1.410 . S
C1636 C1637 1.392 . S
C1636 C1639 1.511 . S
C1637 C1633 1.376 . S
C1637 C1636 1.392 . S
C1637 H1649 0.929 . S
C1638 C1634 1.531 . S
C1638 H1650 0.960 . S
C1638 H1651 0.962 . S
C1638 H1652 0.960 . S
C1639 C1636 1.511 . S
C1639 H1653 0.961 . S
C1639 H1654 0.961 . S
C1639 H1655 0.961 . S
C1640 C1641 1.370 . S
C1640 C1642 1.363 . S
C1640 H1656 0.931 . S
C1641 C1640 1.370 . S
C1641 C1645 1.408 . S
C1642 C1640 1.363 . S
C1642 C1643 1.370 . S
C1642 C1646 1.524 . S
C1643 C1635 1.503 . S
C1643 C1642 1.370 . S
C1643 C1644 1.403 . S
C1644 C1643 1.403 . S
C1644 C1645 1.404 . S
C1644 C1647 1.539 . S
C1645 C1641 1.408 . S
C1645 C1644 1.404 . S
C1645 H1657 0.930 . S
C1646 C1642 1.524 . S
C1646 H1658 0.956 . S
C1646 H1659 0.961 . S
C1646 H1660 0.961 . S
C1647 C1644 1.539 . S
C1647 H1661 0.958 . S
C1647 H1662 0.961 . S
C1647 H1663 0.960 . S
H1648 C1632 0.931 . S
H1649 C1637 0.929 . S
H1650 C1638 0.960 . S
H1651 C1638 0.962 . S
H1652 C1638 0.960 . S
H1653 C1639 0.961 . S
H1654 C1639 0.961 . S
H1655 C1639 0.961 . S
H1656 C1640 0.931 . S
H1657 C1645 0.930 . S
H1658 C1646 0.956 . S
H1659 C1646 0.961 . S
H1660 C1646 0.961 . S
H1661 C1647 0.958 . S
H1662 C1647 0.961 . S
H1663 C1647 0.960 . S
C1664 C1665 1.391 . S
C1664 C1666 1.394 . S
C1664 H1680 0.931 . S
C1665 C1664 1.391 . S
C1665 C1669 1.376 . S
C1666 C1664 1.394 . S
C1666 C1667 1.369 . S
C1666 C1670 1.531 . S
C1667 C1666 1.369 . S
C1667 C1668 1.410 . S
C1667 C1675 1.503 . S
C1668 C1667 1.410 . S
C1668 C1669 1.392 . S
C1668 C1671 1.511 . S
C1669 C1665 1.376 . S
C1669 C1668 1.392 . S
C1669 H1681 0.929 . S
C1670 C1666 1.531 . S
C1670 H1682 0.960 . S
C1670 H1683 0.962 . S
C1670 H1684 0.960 . S
C1671 C1668 1.511 . S
C1671 H1685 0.961 . S
C1671 H1686 0.961 . S
C1671 H1687 0.961 . S
C1672 C1673 1.370 . S
C1672 C1674 1.363 . S
C1672 H1688 0.931 . S
C1673 C1672 1.370 . S
C1673 C1677 1.408 . S
C1674 C1672 1.363 . S
C1674 C1675 1.370 . S
C1674 C1678 1.524 . S
C1675 C1667 1.503 . S
C1675 C1674 1.370 . S
C1675 C1676 1.403 . S
C1676 C1675 1.403 . S
C1676 C1677 1.404 . S
C1676 C1679 1.539 . S
C1677 C1673 1.408 . S
C1677 C1676 1.404 . S
C1677 H1689 0.930 . S
C1678 C1674 1.524 . S
C1678 H1690 0.956 . S
C1678 H1691 0.961 . S
C1678 H1692 0.961 . S
C1679 C1676 1.539 . S
C1679 H1693 0.958 . S
C1679 H1694 0.961 . S
C1679 H1695 0.960 . S
H1680 C1664 0.931 . S
H1681 C1669 0.929 . S
H1682 C1670 0.960 . S
H1683 C1670 0.962 . S
H1684 C1670 0.960 . S
H1685 C1671 0.961 . S
H1686 C1671 0.961 . S
H1687 C1671 0.961 . S
H1688 C1672 0.931 . S
H1689 C1677 0.930 . S
H1690 C1678 0.956 . S
H1691 C1678 0.961 . S
H1692 C1678 0.961 . S
H1693 C1679 0.958 . S
H1694 C1679 0.961 . S
H1695 C1679 0.960 . S
C1696 C1697 1.391 . S
C1696 C1698 1.394 . S
C1696 H1712 0.931 . S
C1697 C1696 1.391 . S
C1697 C1701 1.376 . S
C1698 C1696 1.394 . S
C1698 C1699 1.369 . S
C1698 C1702 1.531 . S
C1699 C1698 1.369 . S
C1699 C1700 1.410 . S
C1699 C1707 1.503 . S
C1700 C1699 1.410 . S
C1700 C1701 1.392 . S
C1700 C1703 1.511 . S
C1701 C1697 1.376 . S
C1701 C1700 1.392 . S
C1701 H1713 0.929 . S
C1702 C1698 1.531 . S
C1702 H1714 0.960 . S
C1702 H1715 0.962 . S
C1702 H1716 0.960 . S
C1703 C1700 1.511 . S
C1703 H1717 0.961 . S
C1703 H1718 0.961 . S
C1703 H1719 0.961 . S
C1704 C1705 1.370 . S
C1704 C1706 1.363 . S
C1704 H1720 0.931 . S
C1705 C1704 1.370 . S
C1705 C1709 1.408 . S
C1706 C1704 1.363 . S
C1706 C1707 1.370 . S
C1706 C1710 1.524 . S
C1707 C1699 1.503 . S
C1707 C1706 1.370 . S
C1707 C1708 1.403 . S
C1708 C1707 1.403 . S
C1708 C1709 1.404 . S
C1708 C1711 1.539 . S
C1709 C1705 1.408 . S
C1709 C1708 1.404 . S
C1709 H1721 0.930 . S
C1710 C1706 1.524 . S
C1710 H1722 0.956 . S
C1710 H1723 0.961 . S
C1710 H1724 0.961 . S
C1711 C1708 1.539 . S
C1711 H1725 0.958 . S
C1711 H1726 0.961 . S
C1711 H1727 0.960 . S
H1712 C1696 0.931 . S
H1713 C1701 0.929 . S
H1714 C1702 0.960 . S
H1715 C1702 0.962 . S
H1716 C1702 0.960 . S
H1717 C1703 0.961 . S
H1718 C1703 0.961 . S
H1719 C1703 0.961 . S
H1720 C1704 0.931 . S
H1721 C1709 0.930 . S
H1722 C1710 0.956 . S
H1723 C1710 0.961 . S
H1724 C1710 0.961 . S
H1725 C1711 0.958 . S
H1726 C1711 0.961 . S
H1727 C1711 0.960 . S
C1728 C1729 1.391 . S
C1728 C1730 1.394 . S
C1728 H1744 0.931 . S
C1729 C1728 1.391 . S
C1729 C1733 1.376 . S
C1730 C1728 1.394 . S
C1730 C1731 1.369 . S
C1730 C1734 1.531 . S
C1731 C1730 1.369 . S
C1731 C1732 1.410 . S
C1731 C1739 1.503 . S
C1732 C1731 1.410 . S
C1732 C1733 1.392 . S
C1732 C1735 1.511 . S
C1733 C1729 1.376 . S
C1733 C1732 1.392 . S
C1733 H1745 0.929 . S
C1734 C1730 1.531 . S
C1734 H1746 0.960 . S
C1734 H1747 0.962 . S
C1734 H1748 0.960 . S
C1735 C1732 1.511 . S
C1735 H1749 0.961 . S
C1735 H1750 0.961 . S
C1735 H1751 0.961 . S
C1736 C1737 1.370 . S
C1736 C1738 1.363 . S
C1736 H1752 0.931 . S
C1737 C1736 1.370 . S
C1737 C1741 1.408 . S
C1738 C1736 1.363 . S
C1738 C1739 1.370 . S
C1738 C1742 1.524 . S
C1739 C1731 1.503 . S
C1739 C1738 1.370 . S
C1739 C1740 1.403 . S
C1740 C1739 1.403 . S
C1740 C1741 1.404 . S
C1740 C1743 1.539 . S
C1741 C1737 1.408 . S
C1741 C1740 1.404 . S
C1741 H1753 0.930 . S
C1742 C1738 1.524 . S
C1742 H1754 0.956 . S
C1742 H1755 0.961 . S
C1742 H1756 0.961 . S
C1743 C1740 1.539 . S
C1743 H1757 0.958 . S
C1743 H1758 0.961 . S
C1743 H1759 0.960 . S
H1744 C1728 0.931 . S
H1745 C1733 0.929 . S
H1746 C1734 0.960 . S
H1747 C1734 0.962 . S
H1748 C1734 0.960 . S
H1749 C1735 0.961 . S
H1750 C1735 0.961 . S
H1751 C1735 0.961 . S
H1752 C1736 0.931 . S
H1753 C1741 0.930 . S
H1754 C1742 0.956 . S
H1755 C1742 0.961 . S
H1756 C1742 0.961 . S
H1757 C1743 0.958 . S
H1758 C1743 0.961 . S
H1759 C1743 0.960 . S
C1760 C1761 1.391 . S
C1760 C1762 1.394 . S
C1760 H1776 0.931 . S
C1761 C1760 1.391 . S
C1761 C1765 1.376 . S
C1762 C1760 1.394 . S
C1762 C1763 1.369 . S
C1762 C1766 1.531 . S
C1763 C1762 1.369 . S
C1763 C1764 1.410 . S
C1763 C1771 1.503 . S
C1764 C1763 1.410 . S
C1764 C1765 1.392 . S
C1764 C1767 1.511 . S
C1765 C1761 1.376 . S
C1765 C1764 1.392 . S
C1765 H1777 0.929 . S
C1766 C1762 1.531 . S
C1766 H1778 0.960 . S
C1766 H1779 0.962 . S
C1766 H1780 0.960 . S
C1767 C1764 1.511 . S
C1767 H1781 0.961 . S
C1767 H1782 0.961 . S
C1767 H1783 0.961 . S
C1768 C1769 1.370 . S
C1768 C1770 1.363 . S
C1768 H1784 0.931 . S
C1769 C1768 1.370 . S
C1769 C1773 1.408 . S
C1770 C1768 1.363 . S
C1770 C1771 1.370 . S
C1770 C1774 1.524 . S
C1771 C1763 1.503 . S
C1771 C1770 1.370 . S
C1771 C1772 1.403 . S
C1772 C1771 1.403 . S
C1772 C1773 1.404 . S
C1772 C1775 1.539 . S
C1773 C1769 1.408 . S
C1773 C1772 1.404 . S
C1773 H1785 0.930 . S
C1774 C1770 1.524 . S
C1774 H1786 0.956 . S
C1774 H1787 0.961 . S
C1774 H1788 0.961 . S
C1775 C1772 1.539 . S
C1775 H1789 0.958 . S
C1775 H1790 0.961 . S
C1775 H1791 0.960 . S
H1776 C1760 0.931 . S
H1777 C1765 0.929 . S
H1778 C1766 0.960 . S
H1779 C1766 0.962 . S
H1780 C1766 0.960 . S
H1781 C1767 0.961 . S
H1782 C1767 0.961 . S
H1783 C1767 0.961 . S
H1784 C1768 0.931 . S
H1785 C1773 0.930 . S
H1786 C1774 0.956 . S
H1787 C1774 0.961 . S
H1788 C1774 0.961 . S
H1789 C1775 0.958 . S
H1790 C1775 0.961 . S
H1791 C1775 0.960 . S
C1792 C1793 1.391 . S
C1792 C1794 1.394 . S
C1792 H1808 0.931 . S
C1793 C1792 1.391 . S
C1793 C1797 1.376 . S
C1794 C1792 1.394 . S
C1794 C1795 1.369 . S
C1794 C1798 1.531 . S
C1795 C1794 1.369 . S
C1795 C1796 1.410 . S
C1795 C1803 1.503 . S
C1796 C1795 1.410 . S
C1796 C1797 1.392 . S
C1796 C1799 1.511 . S
C1797 C1793 1.376 . S
C1797 C1796 1.392 . S
C1797 H1809 0.929 . S
C1798 C1794 1.531 . S
C1798 H1810 0.960 . S
C1798 H1811 0.962 . S
C1798 H1812 0.960 . S
C1799 C1796 1.511 . S
C1799 H1813 0.961 . S
C1799 H1814 0.961 . S
C1799 H1815 0.961 . S
C1800 C1801 1.370 . S
C1800 C1802 1.363 . S
C1800 H1816 0.931 . S
C1801 C1800 1.370 . S
C1801 C1805 1.408 . S
C1802 C1800 1.363 . S
C1802 C1803 1.370 . S
C1802 C1806 1.524 . S
C1803 C1795 1.503 . S
C1803 C1802 1.370 . S
C1803 C1804 1.403 . S
C1804 C1803 1.403 . S
C1804 C1805 1.404 . S
C1804 C1807 1.539 . S
C1805 C1801 1.408 . S
C1805 C1804 1.404 . S
C1805 H1817 0.930 . S
C1806 C1802 1.524 . S
C1806 H1818 0.956 . S
C1806 H1819 0.961 . S
C1806 H1820 0.961 . S
C1807 C1804 1.539 . S
C1807 H1821 0.958 . S
C1807 H1822 0.961 . S
C1807 H1823 0.960 . S
H1808 C1792 0.931 . S
H1809 C1797 0.929 . S
H1810 C1798 0.960 . S
H1811 C1798 0.962 . S
H1812 C1798 0.960 . S
H1813 C1799 0.961 . S
H1814 C1799 0.961 . S
H1815 C1799 0.961 . S
H1816 C1800 0.931 . S
H1817 C1805 0.930 . S
H1818 C1806 0.956 . S
H1819 C1806 0.961 . S
H1820 C1806 0.961 . S
H1821 C1807 0.958 . S
H1822 C1807 0.961 . S
H1823 C1807 0.960 . S
C1824 C1825 1.391 . S
C1824 C1826 1.394 . S
C1824 H1840 0.931 . S
C1825 C1824 1.391 . S
C1825 C1829 1.376 . S
C1826 C1824 1.394 . S
C1826 C1827 1.369 . S
C1826 C1830 1.531 . S
C1827 C1826 1.369 . S
C1827 C1828 1.410 . S
C1827 C1835 1.503 . S
C1828 C1827 1.410 . S
C1828 C1829 1.392 . S
C1828 C1831 1.511 . S
C1829 C1825 1.376 . S
C1829 C1828 1.392 . S
C1829 H1841 0.929 . S
C1830 C1826 1.531 . S
C1830 H1842 0.960 . S
C1830 H1843 0.962 . S
C1830 H1844 0.960 . S
C1831 C1828 1.511 . S
C1831 H1845 0.961 . S
C1831 H1846 0.961 . S
C1831 H1847 0.961 . S
C1832 C1833 1.370 . S
C1832 C1834 1.363 . S
C1832 H1848 0.931 . S
C1833 C1832 1.370 . S
C1833 C1837 1.408 . S
C1834 C1832 1.363 . S
C1834 C1835 1.370 . S
C1834 C1838 1.524 . S
C1835 C1827 1.503 . S
C1835 C1834 1.370 . S
C1835 C1836 1.403 . S
C1836 C1835 1.403 . S
C1836 C1837 1.404 . S
C1836 C1839 1.539 . S
C1837 C1833 1.408 . S
C1837 C1836 1.404 . S
C1837 H1849 0.930 . S
C1838 C1834 1.524 . S
C1838 H1850 0.956 . S
C1838 H1851 0.961 . S
C1838 H1852 0.961 . S
C1839 C1836 1.539 . S
C1839 H1853 0.958 . S
C1839 H1854 0.961 . S
C1839 H1855 0.960 . S
H1840 C1824 0.931 . S
H1841 C1829 0.929 . S
H1842 C1830 0.960 . S
H1843 C1830 0.962 . S
H1844 C1830 0.960 . S
H1845 C1831 0.961 . S
H1846 C1831 0.961 . S
H1847 C1831 0.961 . S
H1848 C1832 0.931 . S
H1849 C1837 0.930 . S
H1850 C1838 0.956 . S
H1851 C1838 0.961 . S
H1852 C1838 0.961 . S
H1853 C1839 0.958 . S
H1854 C1839 0.961 . S
H1855 C1839 0.960 . S
C1856 C1857 1.391 . S
C1856 C1858 1.394 . S
C1856 H1872 0.931 . S
C1857 C1856 1.391 . S
C1857 C1861 1.376 . S
C1858 C1856 1.394 . S
C1858 C1859 1.369 . S
C1858 C1862 1.531 . S
C1859 C1858 1.369 . S
C1859 C1860 1.410 . S
C1859 C1867 1.503 . S
C1860 C1859 1.410 . S
C1860 C1861 1.392 . S
C1860 C1863 1.511 . S
C1861 C1857 1.376 . S
C1861 C1860 1.392 . S
C1861 H1873 0.929 . S
C1862 C1858 1.531 . S
C1862 H1874 0.960 . S
C1862 H1875 0.962 . S
C1862 H1876 0.960 . S
C1863 C1860 1.511 . S
C1863 H1877 0.961 . S
C1863 H1878 0.961 . S
C1863 H1879 0.961 . S
C1864 C1865 1.370 . S
C1864 C1866 1.363 . S
C1864 H1880 0.931 . S
C1865 C1864 1.370 . S
C1865 C1869 1.408 . S
C1866 C1864 1.363 . S
C1866 C1867 1.370 . S
C1866 C1870 1.524 . S
C1867 C1859 1.503 . S
C1867 C1866 1.370 . S
C1867 C1868 1.403 . S
C1868 C1867 1.403 . S
C1868 C1869 1.404 . S
C1868 C1871 1.539 . S
C1869 C1865 1.408 . S
C1869 C1868 1.404 . S
C1869 H1881 0.930 . S
C1870 C1866 1.524 . S
C1870 H1882 0.956 . S
C1870 H1883 0.961 . S
C1870 H1884 0.961 . S
C1871 C1868 1.539 . S
C1871 H1885 0.958 . S
C1871 H1886 0.961 . S
C1871 H1887 0.960 . S
H1872 C1856 0.931 . S
H1873 C1861 0.929 . S
H1874 C1862 0.960 . S
H1875 C1862 0.962 . S
H1876 C1862 0.960 . S
H1877 C1863 0.961 . S
H1878 C1863 0.961 . S
H1879 C1863 0.961 . S
H1880 C1864 0.931 . S
H1881 C1869 0.930 . S
H1882 C1870 0.956 . S
H1883 C1870 0.961 . S
H1884 C1870 0.961 . S
H1885 C1871 0.958 . S
H1886 C1871 0.961 . S
H1887 C1871 0.960 . S
C1888 C1889 1.391 . S
C1888 C1890 1.394 . S
C1888 H1904 0.931 . S
C1889 C1888 1.391 . S
C1889 C1893 1.376 . S
C1890 C1888 1.394 . S
C1890 C1891 1.369 . S
C1890 C1894 1.531 . S
C1891 C1890 1.369 . S
C1891 C1892 1.410 . S
C1891 C1899 1.503 . S
C1892 C1891 1.410 . S
C1892 C1893 1.392 . S
C1892 C1895 1.511 . S
C1893 C1889 1.376 . S
C1893 C1892 1.392 . S
C1893 H1905 0.929 . S
C1894 C1890 1.531 . S
C1894 H1906 0.960 . S
C1894 H1907 0.962 . S
C1894 H1908 0.960 . S
C1895 C1892 1.511 . S
C1895 H1909 0.961 . S
C1895 H1910 0.961 . S
C1895 H1911 0.961 . S
C1896 C1897 1.370 . S
C1896 C1898 1.363 . S
C1896 H1912 0.931 . S
C1897 C1896 1.370 . S
C1897 C1901 1.408 . S
C1898 C1896 1.363 . S
C1898 C1899 1.370 . S
C1898 C1902 1.524 . S
C1899 C1891 1.503 . S
C1899 C1898 1.370 . S
C1899 C1900 1.403 . S
C1900 C1899 1.403 . S
C1900 C1901 1.404 . S
C1900 C1903 1.539 . S
C1901 C1897 1.408 . S
C1901 C1900 1.404 . S
C1901 H1913 0.930 . S
C1902 C1898 1.524 . S
C1902 H1914 0.956 . S
C1902 H1915 0.961 . S
C1902 H1916 0.961 . S
C1903 C1900 1.539 . S
C1903 H1917 0.958 . S
C1903 H1918 0.961 . S
C1903 H1919 0.960 . S
H1904 C1888 0.931 . S
H1905 C1893 0.929 . S
H1906 C1894 0.960 . S
H1907 C1894 0.962 . S
H1908 C1894 0.960 . S
H1909 C1895 0.961 . S
H1910 C1895 0.961 . S
H1911 C1895 0.961 . S
H1912 C1896 0.931 . S
H1913 C1901 0.930 . S
H1914 C1902 0.956 . S
H1915 C1902 0.961 . S
H1916 C1902 0.961 . S
H1917 C1903 0.958 . S
H1918 C1903 0.961 . S
H1919 C1903 0.960 . S
C1920 C1921 1.391 . S
C1920 C1922 1.394 . S
C1920 H1936 0.931 . S
C1921 C1920 1.391 . S
C1921 C1925 1.376 . S
C1922 C1920 1.394 . S
C1922 C1923 1.369 . S
C1922 C1926 1.531 . S
C1923 C1922 1.369 . S
C1923 C1924 1.410 . S
C1923 C1931 1.503 . S
C1924 C1923 1.410 . S
C1924 C1925 1.392 . S
C1924 C1927 1.511 . S
C1925 C1921 1.376 . S
C1925 C1924 1.392 . S
C1925 H1937 0.929 . S
C1926 C1922 1.531 . S
C1926 H1938 0.960 . S
C1926 H1939 0.962 . S
C1926 H1940 0.960 . S
C1927 C1924 1.511 . S
C1927 H1941 0.961 . S
C1927 H1942 0.961 . S
C1927 H1943 0.961 . S
C1928 C1929 1.370 . S
C1928 C1930 1.363 . S
C1928 H1944 0.931 . S
C1929 C1928 1.370 . S
C1929 C1933 1.408 . S
C1930 C1928 1.363 . S
C1930 C1931 1.370 . S
C1930 C1934 1.524 . S
C1931 C1923 1.503 . S
C1931 C1930 1.370 . S
C1931 C1932 1.403 . S
C1932 C1931 1.403 . S
C1932 C1933 1.404 . S
C1932 C1935 1.539 . S
C1933 C1929 1.408 . S
C1933 C1932 1.404 . S
C1933 H1945 0.930 . S
C1934 C1930 1.524 . S
C1934 H1946 0.956 . S
C1934 H1947 0.961 . S
C1934 H1948 0.961 . S
C1935 C1932 1.539 . S
C1935 H1949 0.958 . S
C1935 H1950 0.961 . S
C1935 H1951 0.960 . S
H1936 C1920 0.931 . S
H1937 C1925 0.929 . S
H1938 C1926 0.960 . S
H1939 C1926 0.962 . S
H1940 C1926 0.960 . S
H1941 C1927 0.961 . S
H1942 C1927 0.961 . S
H1943 C1927 0.961 . S
H1944 C1928 0.931 . S
H1945 C1933 0.930 . S
H1946 C1934 0.956 . S
H1947 C1934 0.961 . S
H1948 C1934 0.961 . S
H1949 C1935 0.958 . S
H1950 C1935 0.961 . S
H1951 C1935 0.960 . S
C1952 C1953 1.391 1_545 S
C1952 C1954 1.394 . S
C1952 H1968 0.927 1_545 S
C1953 C1952 1.391 1_565 S
C1953 C1957 1.375 1_565 S
C1954 C1952 1.394 . S
C1954 C1955 1.369 . S
C1954 C1958 1.531 . S
C1955 C1954 1.369 . S
C1955 C1956 1.410 . S
C1955 C1963 1.503 . S
C1956 C1955 1.410 . S
C1956 C1957 1.392 . S
C1956 C1959 1.511 . S
C1957 C1953 1.375 1_545 S
C1957 C1956 1.392 . S
C1957 H1969 0.929 . S
C1958 C1954 1.531 . S
C1958 H1970 0.960 . S
C1958 H1971 0.962 . S
C1958 H1972 0.960 . S
C1959 C1956 1.511 . S
C1959 H1973 0.961 . S
C1959 H1974 0.961 . S
C1959 H1975 0.961 . S
C1960 C1961 1.370 . S
C1960 C1962 1.363 . S
C1960 H1976 0.931 . S
C1961 C1960 1.370 . S
C1961 C1965 1.408 . S
C1962 C1960 1.363 . S
C1962 C1963 1.370 . S
C1962 C1966 1.524 . S
C1963 C1955 1.503 . S
C1963 C1962 1.370 . S
C1963 C1964 1.403 . S
C1964 C1963 1.403 . S
C1964 C1965 1.404 . S
C1964 C1967 1.539 . S
C1965 C1961 1.408 . S
C1965 C1964 1.404 . S
C1965 H1977 0.930 . S
C1966 C1962 1.524 . S
C1966 H1978 0.956 . S
C1966 H1979 0.961 . S
C1966 H1980 0.961 . S
C1967 C1964 1.539 . S
C1967 H1981 0.958 . S
C1967 H1982 0.961 . S
C1967 H1983 0.960 . S
H1968 C1952 0.927 1_565 S
H1969 C1957 0.929 . S
H1970 C1958 0.960 . S
H1971 C1958 0.962 . S
H1972 C1958 0.960 . S
H1973 C1959 0.961 . S
H1974 C1959 0.961 . S
H1975 C1959 0.961 . S
H1976 C1960 0.931 . S
H1977 C1965 0.930 . S
H1978 C1966 0.956 . S
H1979 C1966 0.961 . S
H1980 C1966 0.961 . S
H1981 C1967 0.958 . S
H1982 C1967 0.961 . S
H1983 C1967 0.960 . S
C1984 C1985 1.391 1_545 S
C1984 C1986 1.394 . S
C1984 H2000 0.926 1_545 S
C1985 C1984 1.391 1_565 S
C1985 C1989 1.376 1_565 S
C1986 C1984 1.394 . S
C1986 C1987 1.369 . S
C1986 C1990 1.531 . S
C1987 C1986 1.369 . S
C1987 C1988 1.410 . S
C1987 C1995 1.503 . S
C1988 C1987 1.410 . S
C1988 C1989 1.392 . S
C1988 C1991 1.511 . S
C1989 C1985 1.376 1_545 S
C1989 C1988 1.392 . S
C1989 H2001 0.929 . S
C1990 C1986 1.531 . S
C1990 H2002 0.960 . S
C1990 H2003 0.962 . S
C1990 H2004 0.960 . S
C1991 C1988 1.511 . S
C1991 H2005 0.961 . S
C1991 H2006 0.961 . S
C1991 H2007 0.961 . S
C1992 C1993 1.370 . S
C1992 C1994 1.363 . S
C1992 H2008 0.931 . S
C1993 C1992 1.370 . S
C1993 C1997 1.408 . S
C1994 C1992 1.363 . S
C1994 C1995 1.370 . S
C1994 C1998 1.524 . S
C1995 C1987 1.503 . S
C1995 C1994 1.370 . S
C1995 C1996 1.403 . S
C1996 C1995 1.403 . S
C1996 C1997 1.404 . S
C1996 C1999 1.539 . S
C1997 C1993 1.408 . S
C1997 C1996 1.404 . S
C1997 H2009 0.930 . S
C1998 C1994 1.524 . S
C1998 H2010 0.956 . S
C1998 H2011 0.961 . S
C1998 H2012 0.961 . S
C1999 C1996 1.539 . S
C1999 H2013 0.958 . S
C1999 H2014 0.961 . S
C1999 H2015 0.960 . S
H2000 C1984 0.926 1_565 S
H2001 C1989 0.929 . S
H2002 C1990 0.960 . S
H2003 C1990 0.962 . S
H2004 C1990 0.960 . S
H2005 C1991 0.961 . S
H2006 C1991 0.961 . S
H2007 C1991 0.961 . S
H2008 C1992 0.931 . S
H2009 C1997 0.930 . S
H2010 C1998 0.956 . S
H2011 C1998 0.961 . S
H2012 C1998 0.961 . S
H2013 C1999 0.958 . S
H2014 C1999 0.961 . S
H2015 C1999 0.960 . S
C2016 C2017 1.391 . S
C2016 C2018 1.394 . S
C2016 H2032 0.931 . S
C2017 C2016 1.391 . S
C2017 C2021 1.376 . S
C2018 C2016 1.394 . S
C2018 C2019 1.369 . S
C2018 C2022 1.531 . S
C2019 C2018 1.369 . S
C2019 C2020 1.410 . S
C2019 C2027 1.503 . S
C2020 C2019 1.410 . S
C2020 C2021 1.392 . S
C2020 C2023 1.511 . S
C2021 C2017 1.376 . S
C2021 C2020 1.392 . S
C2021 H2033 0.929 . S
C2022 C2018 1.531 . S
C2022 H2034 0.960 . S
C2022 H2035 0.962 . S
C2022 H2036 0.960 . S
C2023 C2020 1.511 . S
C2023 H2037 0.961 . S
C2023 H2038 0.961 . S
C2023 H2039 0.961 . S
C2024 C2025 1.371 . S
C2024 C2026 1.363 . S
C2024 H2040 0.931 . S
C2025 C2024 1.371 . S
C2025 C2029 1.409 . S
C2026 C2024 1.363 . S
C2026 C2027 1.370 . S
C2026 C2030 1.524 . S
C2027 C2019 1.503 . S
C2027 C2026 1.370 . S
C2027 C2028 1.403 . S
C2028 C2027 1.403 . S
C2028 C2029 1.404 . S
C2028 C2031 1.539 . S
C2029 C2025 1.409 . S
C2029 C2028 1.404 . S
C2029 H2041 0.930 1_565 S
C2030 C2026 1.524 . S
C2030 H2042 0.956 . S
C2030 H2043 0.961 . S
C2030 H2044 0.961 . S
C2031 C2028 1.539 . S
C2031 H2045 0.958 . S
C2031 H2046 0.961 . S
C2031 H2047 0.960 . S
H2032 C2016 0.931 . S
H2033 C2021 0.929 . S
H2034 C2022 0.960 . S
H2035 C2022 0.962 . S
H2036 C2022 0.960 . S
H2037 C2023 0.961 . S
H2038 C2023 0.961 . S
H2039 C2023 0.961 . S
H2040 C2024 0.931 . S
H2041 C2029 0.930 1_545 S
H2042 C2030 0.956 . S
H2043 C2030 0.961 . S
H2044 C2030 0.961 . S
H2045 C2031 0.958 . S
H2046 C2031 0.961 . S
H2047 C2031 0.960 . S
C2048 C2049 1.386 1_565 S
C2048 C2050 1.394 . S
C2048 H2064 0.931 . S
C2049 C2048 1.386 1_545 S
C2049 C2053 1.371 1_545 S
C2050 C2048 1.394 . S
C2050 C2051 1.369 . S
C2050 C2054 1.531 . S
C2051 C2050 1.369 . S
C2051 C2052 1.410 . S
C2051 C2059 1.503 . S
C2052 C2051 1.410 . S
C2052 C2053 1.392 . S
C2052 C2055 1.511 . S
C2053 C2049 1.371 1_565 S
C2053 C2052 1.392 . S
C2053 H2065 0.929 . S
C2054 C2050 1.531 . S
C2054 H2066 0.960 . S
C2054 H2067 0.962 . S
C2054 H2068 0.960 . S
C2055 C2052 1.511 . S
C2055 H2069 0.961 . S
C2055 H2070 0.961 . S
C2055 H2071 0.961 . S
C2056 C2057 1.370 . S
C2056 C2058 1.363 . S
C2056 H2072 0.931 . S
C2057 C2056 1.370 . S
C2057 C2061 1.408 . S
C2058 C2056 1.363 . S
C2058 C2059 1.370 . S
C2058 C2062 1.524 . S
C2059 C2051 1.503 . S
C2059 C2058 1.370 . S
C2059 C2060 1.403 . S
C2060 C2059 1.403 . S
C2060 C2061 1.404 . S
C2060 C2063 1.539 . S
C2061 C2057 1.408 . S
C2061 C2060 1.404 . S
C2061 H2073 0.930 . S
C2062 C2058 1.524 . S
C2062 H2074 0.956 . S
C2062 H2075 0.961 . S
C2062 H2076 0.961 . S
C2063 C2060 1.539 . S
C2063 H2077 0.958 . S
C2063 H2078 0.961 . S
C2063 H2079 0.960 . S
H2064 C2048 0.931 . S
H2065 C2053 0.929 . S
H2066 C2054 0.960 . S
H2067 C2054 0.962 . S
H2068 C2054 0.960 . S
H2069 C2055 0.961 . S
H2070 C2055 0.961 . S
H2071 C2055 0.961 . S
H2072 C2056 0.931 . S
H2073 C2061 0.930 . S
H2074 C2062 0.956 . S
H2075 C2062 0.961 . S
H2076 C2062 0.961 . S
H2077 C2063 0.958 . S
H2078 C2063 0.961 . S
H2079 C2063 0.960 . S
C2080 C2081 1.391 . S
C2080 C2082 1.394 . S
C2080 H2096 0.931 . S
C2081 C2080 1.391 . S
C2081 C2085 1.376 . S
C2082 C2080 1.394 . S
C2082 C2083 1.369 . S
C2082 C2086 1.531 . S
C2083 C2082 1.369 . S
C2083 C2084 1.410 . S
C2083 C2091 1.503 . S
C2084 C2083 1.410 . S
C2084 C2085 1.392 . S
C2084 C2087 1.511 . S
C2085 C2081 1.376 . S
C2085 C2084 1.392 . S
C2085 H2097 0.929 . S
C2086 C2082 1.531 . S
C2086 H2098 0.960 . S
C2086 H2099 0.962 . S
C2086 H2100 0.960 . S
C2087 C2084 1.511 . S
C2087 H2101 0.961 . S
C2087 H2102 0.961 . S
C2087 H2103 0.961 . S
C2088 C2089 1.370 . S
C2088 C2090 1.363 . S
C2088 H2104 0.931 . S
C2089 C2088 1.370 . S
C2089 C2093 1.408 . S
C2090 C2088 1.363 . S
C2090 C2091 1.370 . S
C2090 C2094 1.524 . S
C2091 C2083 1.503 . S
C2091 C2090 1.370 . S
C2091 C2092 1.403 . S
C2092 C2091 1.403 . S
C2092 C2093 1.404 . S
C2092 C2095 1.539 . S
C2093 C2089 1.408 . S
C2093 C2092 1.404 . S
C2093 H2105 0.930 . S
C2094 C2090 1.524 . S
C2094 H2106 0.956 . S
C2094 H2107 0.961 . S
C2094 H2108 0.961 . S
C2095 C2092 1.539 . S
C2095 H2109 0.958 . S
C2095 H2110 0.961 . S
C2095 H2111 0.960 . S
H2096 C2080 0.931 . S
H2097 C2085 0.929 . S
H2098 C2086 0.960 . S
H2099 C2086 0.962 . S
H2100 C2086 0.960 . S
H2101 C2087 0.961 . S
H2102 C2087 0.961 . S
H2103 C2087 0.961 . S
H2104 C2088 0.931 . S
H2105 C2093 0.930 . S
H2106 C2094 0.956 . S
H2107 C2094 0.961 . S
H2108 C2094 0.961 . S
H2109 C2095 0.958 . S
H2110 C2095 0.961 . S
H2111 C2095 0.960 . S
C2112 C2113 1.391 . S
C2112 C2114 1.394 . S
C2112 H2128 0.931 . S
C2113 C2112 1.391 . S
C2113 C2117 1.376 . S
C2114 C2112 1.394 . S
C2114 C2115 1.369 . S
C2114 C2118 1.531 . S
C2115 C2114 1.369 . S
C2115 C2116 1.410 . S
C2115 C2123 1.503 . S
C2116 C2115 1.410 . S
C2116 C2117 1.392 . S
C2116 C2119 1.511 . S
C2117 C2113 1.376 . S
C2117 C2116 1.392 . S
C2117 H2129 0.929 . S
C2118 C2114 1.531 . S
C2118 H2130 0.960 . S
C2118 H2131 0.962 . S
C2118 H2132 0.960 . S
C2119 C2116 1.511 . S
C2119 H2133 0.961 . S
C2119 H2134 0.961 . S
C2119 H2135 0.961 . S
C2120 C2121 1.370 . S
C2120 C2122 1.363 . S
C2120 H2136 0.931 . S
C2121 C2120 1.370 . S
C2121 C2125 1.408 . S
C2122 C2120 1.363 . S
C2122 C2123 1.370 . S
C2122 C2126 1.524 . S
C2123 C2115 1.503 . S
C2123 C2122 1.370 . S
C2123 C2124 1.403 . S
C2124 C2123 1.403 . S
C2124 C2125 1.404 . S
C2124 C2127 1.539 . S
C2125 C2121 1.408 . S
C2125 C2124 1.404 . S
C2125 H2137 0.930 . S
C2126 C2122 1.524 . S
C2126 H2138 0.956 . S
C2126 H2139 0.961 . S
C2126 H2140 0.961 . S
C2127 C2124 1.539 . S
C2127 H2141 0.958 . S
C2127 H2142 0.961 . S
C2127 H2143 0.960 . S
H2128 C2112 0.931 . S
H2129 C2117 0.929 . S
H2130 C2118 0.960 . S
H2131 C2118 0.962 . S
H2132 C2118 0.960 . S
H2133 C2119 0.961 . S
H2134 C2119 0.961 . S
H2135 C2119 0.961 . S
H2136 C2120 0.931 . S
H2137 C2125 0.930 . S
H2138 C2126 0.956 . S
H2139 C2126 0.961 . S
H2140 C2126 0.961 . S
H2141 C2127 0.958 . S
H2142 C2127 0.961 . S
H2143 C2127 0.960 . S
C2144 C2145 1.391 . S
C2144 C2146 1.394 . S
C2144 H2160 0.931 . S
C2145 C2144 1.391 . S
C2145 C2149 1.376 . S
C2146 C2144 1.394 . S
C2146 C2147 1.369 . S
C2146 C2150 1.531 . S
C2147 C2146 1.369 . S
C2147 C2148 1.410 . S
C2147 C2155 1.503 . S
C2148 C2147 1.410 . S
C2148 C2149 1.392 . S
C2148 C2151 1.511 . S
C2149 C2145 1.376 . S
C2149 C2148 1.392 . S
C2149 H2161 0.929 . S
C2150 C2146 1.531 . S
C2150 H2162 0.960 . S
C2150 H2163 0.962 . S
C2150 H2164 0.960 . S
C2151 C2148 1.511 . S
C2151 H2165 0.961 . S
C2151 H2166 0.961 . S
C2151 H2167 0.961 . S
C2152 C2153 1.370 . S
C2152 C2154 1.363 . S
C2152 H2168 0.931 . S
C2153 C2152 1.370 . S
C2153 C2157 1.408 . S
C2154 C2152 1.363 . S
C2154 C2155 1.370 . S
C2154 C2158 1.524 . S
C2155 C2147 1.503 . S
C2155 C2154 1.370 . S
C2155 C2156 1.403 . S
C2156 C2155 1.403 . S
C2156 C2157 1.404 . S
C2156 C2159 1.539 . S
C2157 C2153 1.408 . S
C2157 C2156 1.404 . S
C2157 H2169 0.930 . S
C2158 C2154 1.524 . S
C2158 H2170 0.956 . S
C2158 H2171 0.961 . S
C2158 H2172 0.961 . S
C2159 C2156 1.539 . S
C2159 H2173 0.958 . S
C2159 H2174 0.961 . S
C2159 H2175 0.960 . S
H2160 C2144 0.931 . S
H2161 C2149 0.929 . S
H2162 C2150 0.960 . S
H2163 C2150 0.962 . S
H2164 C2150 0.960 . S
H2165 C2151 0.961 . S
H2166 C2151 0.961 . S
H2167 C2151 0.961 . S
H2168 C2152 0.931 . S
H2169 C2157 0.930 . S
H2170 C2158 0.956 . S
H2171 C2158 0.961 . S
H2172 C2158 0.961 . S
H2173 C2159 0.958 . S
H2174 C2159 0.961 . S
H2175 C2159 0.960 . S
C2176 C2177 1.391 . S
C2176 C2178 1.394 . S
C2176 H2192 0.931 . S
C2177 C2176 1.391 . S
C2177 C2181 1.376 . S
C2178 C2176 1.394 . S
C2178 C2179 1.369 . S
C2178 C2182 1.531 . S
C2179 C2178 1.369 . S
C2179 C2180 1.410 . S
C2179 C2187 1.503 . S
C2180 C2179 1.410 . S
C2180 C2181 1.392 . S
C2180 C2183 1.511 . S
C2181 C2177 1.376 . S
C2181 C2180 1.392 . S
C2181 H2193 0.929 . S
C2182 C2178 1.531 . S
C2182 H2194 0.960 . S
C2182 H2195 0.962 . S
C2182 H2196 0.960 . S
C2183 C2180 1.511 . S
C2183 H2197 0.961 . S
C2183 H2198 0.961 . S
C2183 H2199 0.961 . S
C2184 C2185 1.370 . S
C2184 C2186 1.363 . S
C2184 H2200 0.931 . S
C2185 C2184 1.370 . S
C2185 C2189 1.408 . S
C2186 C2184 1.363 . S
C2186 C2187 1.370 . S
C2186 C2190 1.524 . S
C2187 C2179 1.503 . S
C2187 C2186 1.370 . S
C2187 C2188 1.403 . S
C2188 C2187 1.403 . S
C2188 C2189 1.404 . S
C2188 C2191 1.539 . S
C2189 C2185 1.408 . S
C2189 C2188 1.404 . S
C2189 H2201 0.930 . S
C2190 C2186 1.524 . S
C2190 H2202 0.956 . S
C2190 H2203 0.961 . S
C2190 H2204 0.961 . S
C2191 C2188 1.539 . S
C2191 H2205 0.958 . S
C2191 H2206 0.961 . S
C2191 H2207 0.960 . S
H2192 C2176 0.931 . S
H2193 C2181 0.929 . S
H2194 C2182 0.960 . S
H2195 C2182 0.962 . S
H2196 C2182 0.960 . S
H2197 C2183 0.961 . S
H2198 C2183 0.961 . S
H2199 C2183 0.961 . S
H2200 C2184 0.931 . S
H2201 C2189 0.930 . S
H2202 C2190 0.956 . S
H2203 C2190 0.961 . S
H2204 C2190 0.961 . S
H2205 C2191 0.958 . S
H2206 C2191 0.961 . S
H2207 C2191 0.960 . S
C2208 C2209 1.388 1_545 S
C2208 C2210 1.394 . S
C2208 H2224 0.931 . S
C2209 C2208 1.388 1_565 S
C2209 C2213 1.372 1_565 S
C2210 C2208 1.394 . S
C2210 C2211 1.369 . S
C2210 C2214 1.531 . S
C2211 C2210 1.369 . S
C2211 C2212 1.410 . S
C2211 C2219 1.503 . S
C2212 C2211 1.410 . S
C2212 C2213 1.392 . S
C2212 C2215 1.511 . S
C2213 C2209 1.372 1_545 S
C2213 C2212 1.392 . S
C2213 H2225 0.929 . S
C2214 C2210 1.531 . S
C2214 H2226 0.960 . S
C2214 H2227 0.962 . S
C2214 H2228 0.960 . S
C2215 C2212 1.511 . S
C2215 H2229 0.961 . S
C2215 H2230 0.961 . S
C2215 H2231 0.961 . S
C2216 C2217 1.370 . S
C2216 C2218 1.363 . S
C2216 H2232 0.931 . S
C2217 C2216 1.370 . S
C2217 C2221 1.408 . S
C2218 C2216 1.363 . S
C2218 C2219 1.370 . S
C2218 C2222 1.524 . S
C2219 C2211 1.503 . S
C2219 C2218 1.370 . S
C2219 C2220 1.403 . S
C2220 C2219 1.403 . S
C2220 C2221 1.404 . S
C2220 C2223 1.539 . S
C2221 C2217 1.408 . S
C2221 C2220 1.404 . S
C2221 H2233 0.930 . S
C2222 C2218 1.524 . S
C2222 H2234 0.956 . S
C2222 H2235 0.961 . S
C2222 H2236 0.961 . S
C2223 C2220 1.539 . S
C2223 H2237 0.958 . S
C2223 H2238 0.961 . S
C2223 H2239 0.960 . S
H2224 C2208 0.931 . S
H2225 C2213 0.929 . S
H2226 C2214 0.960 . S
H2227 C2214 0.962 . S
H2228 C2214 0.960 . S
H2229 C2215 0.961 . S
H2230 C2215 0.961 . S
H2231 C2215 0.961 . S
H2232 C2216 0.931 . S
H2233 C2221 0.930 . S
H2234 C2222 0.956 . S
H2235 C2222 0.961 . S
H2236 C2222 0.961 . S
H2237 C2223 0.958 . S
H2238 C2223 0.961 . S
H2239 C2223 0.960 . S
C2240 C2241 1.391 . S
C2240 C2242 1.394 . S
C2240 H2256 0.931 . S
C2241 C2240 1.391 . S
C2241 C2245 1.376 . S
C2242 C2240 1.394 . S
C2242 C2243 1.369 . S
C2242 C2246 1.531 . S
C2243 C2242 1.369 . S
C2243 C2244 1.410 . S
C2243 C2251 1.503 . S
C2244 C2243 1.410 . S
C2244 C2245 1.392 . S
C2244 C2247 1.511 . S
C2245 C2241 1.376 . S
C2245 C2244 1.392 . S
C2245 H2257 0.929 . S
C2246 C2242 1.531 . S
C2246 H2258 0.960 . S
C2246 H2259 0.962 . S
C2246 H2260 0.960 . S
C2247 C2244 1.511 . S
C2247 H2261 0.961 . S
C2247 H2262 0.961 . S
C2247 H2263 0.961 . S
C2248 C2249 1.374 . S
C2248 C2250 1.363 . S
C2248 H2264 0.931 . S
C2249 C2248 1.374 . S
C2249 C2253 1.413 . S
C2250 C2248 1.363 . S
C2250 C2251 1.370 . S
C2250 C2254 1.524 . S
C2251 C2243 1.503 . S
C2251 C2250 1.370 . S
C2251 C2252 1.403 . S
C2252 C2251 1.403 . S
C2252 C2253 1.404 . S
C2252 C2255 1.539 . S
C2253 C2249 1.413 . S
C2253 C2252 1.404 . S
C2253 H2265 0.930 . S
C2254 C2250 1.524 . S
C2254 H2266 0.956 . S
C2254 H2267 0.961 . S
C2254 H2268 0.961 . S
C2255 C2252 1.539 . S
C2255 H2269 0.958 . S
C2255 H2270 0.961 . S
C2255 H2271 0.960 . S
H2256 C2240 0.931 . S
H2257 C2245 0.929 . S
H2258 C2246 0.960 . S
H2259 C2246 0.962 . S
H2260 C2246 0.960 . S
H2261 C2247 0.961 . S
H2262 C2247 0.961 . S
H2263 C2247 0.961 . S
H2264 C2248 0.931 . S
H2265 C2253 0.930 . S
H2266 C2254 0.956 . S
H2267 C2254 0.961 . S
H2268 C2254 0.961 . S
H2269 C2255 0.958 . S
H2270 C2255 0.961 . S
H2271 C2255 0.960 . S
C2272 C2273 1.391 . S
C2272 C2274 1.394 . S
C2272 H2288 0.931 . S
C2273 C2272 1.391 . S
C2273 C2277 1.376 . S
C2274 C2272 1.394 . S
C2274 C2275 1.369 . S
C2274 C2278 1.531 . S
C2275 C2274 1.369 . S
C2275 C2276 1.410 . S
C2275 C2283 1.503 . S
C2276 C2275 1.410 . S
C2276 C2277 1.392 . S
C2276 C2279 1.511 . S
C2277 C2273 1.376 . S
C2277 C2276 1.392 . S
C2277 H2289 0.929 . S
C2278 C2274 1.531 . S
C2278 H2290 0.960 . S
C2278 H2291 0.962 . S
C2278 H2292 0.960 . S
C2279 C2276 1.511 . S
C2279 H2293 0.961 . S
C2279 H2294 0.961 . S
C2279 H2295 0.961 . S
C2280 C2281 1.374 . S
C2280 C2282 1.363 . S
C2280 H2296 0.931 . S
C2281 C2280 1.374 . S
C2281 C2285 1.412 . S
C2282 C2280 1.363 . S
C2282 C2283 1.370 . S
C2282 C2286 1.524 . S
C2283 C2275 1.503 . S
C2283 C2282 1.370 . S
C2283 C2284 1.403 . S
C2284 C2283 1.403 . S
C2284 C2285 1.404 . S
C2284 C2287 1.539 . S
C2285 C2281 1.412 . S
C2285 C2284 1.404 . S
C2285 H2297 0.930 . S
C2286 C2282 1.524 . S
C2286 H2298 0.956 . S
C2286 H2299 0.961 . S
C2286 H2300 0.961 . S
C2287 C2284 1.539 . S
C2287 H2301 0.958 . S
C2287 H2302 0.961 . S
C2287 H2303 0.960 . S
H2288 C2272 0.931 . S
H2289 C2277 0.929 . S
H2290 C2278 0.960 . S
H2291 C2278 0.962 . S
H2292 C2278 0.960 . S
H2293 C2279 0.961 . S
H2294 C2279 0.961 . S
H2295 C2279 0.961 . S
H2296 C2280 0.931 . S
H2297 C2285 0.930 . S
H2298 C2286 0.956 . S
H2299 C2286 0.961 . S
H2300 C2286 0.961 . S
H2301 C2287 0.958 . S
H2302 C2287 0.961 . S
H2303 C2287 0.960 . S
C2304 C2305 1.391 . S
C2304 C2306 1.394 . S
C2304 H2320 0.931 . S
C2305 C2304 1.391 . S
C2305 C2309 1.376 . S
C2306 C2304 1.394 . S
C2306 C2307 1.369 . S
C2306 C2310 1.531 . S
C2307 C2306 1.369 . S
C2307 C2308 1.410 . S
C2307 C2315 1.503 . S
C2308 C2307 1.410 . S
C2308 C2309 1.392 . S
C2308 C2311 1.511 . S
C2309 C2305 1.376 . S
C2309 C2308 1.392 . S
C2309 H2321 0.929 . S
C2310 C2306 1.531 . S
C2310 H2322 0.960 . S
C2310 H2323 0.962 . S
C2310 H2324 0.960 . S
C2311 C2308 1.511 . S
C2311 H2325 0.961 . S
C2311 H2326 0.961 . S
C2311 H2327 0.961 . S
C2312 C2313 1.372 . S
C2312 C2314 1.363 . S
C2312 H2328 0.931 . S
C2313 C2312 1.372 . S
C2313 C2317 1.410 . S
C2314 C2312 1.363 . S
C2314 C2315 1.370 . S
C2314 C2318 1.524 . S
C2315 C2307 1.503 . S
C2315 C2314 1.370 . S
C2315 C2316 1.403 . S
C2316 C2315 1.403 . S
C2316 C2317 1.404 . S
C2316 C2319 1.539 . S
C2317 C2313 1.410 . S
C2317 C2316 1.404 . S
C2317 H2329 0.930 . S
C2318 C2314 1.524 . S
C2318 H2330 0.956 . S
C2318 H2331 0.961 . S
C2318 H2332 0.961 . S
C2319 C2316 1.539 . S
C2319 H2333 0.958 . S
C2319 H2334 0.961 . S
C2319 H2335 0.960 . S
H2320 C2304 0.931 . S
H2321 C2309 0.929 . S
H2322 C2310 0.960 . S
H2323 C2310 0.962 . S
H2324 C2310 0.960 . S
H2325 C2311 0.961 . S
H2326 C2311 0.961 . S
H2327 C2311 0.961 . S
H2328 C2312 0.931 . S
H2329 C2317 0.930 . S
H2330 C2318 0.956 . S
H2331 C2318 0.961 . S
H2332 C2318 0.961 . S
H2333 C2319 0.958 . S
H2334 C2319 0.961 . S
H2335 C2319 0.960 . S
C2336 C2337 1.391 . S
C2336 C2338 1.394 . S
C2336 H2352 0.931 . S
C2337 C2336 1.391 . S
C2337 C2341 1.376 . S
C2338 C2336 1.394 . S
C2338 C2339 1.369 . S
C2338 C2342 1.531 . S
C2339 C2338 1.369 . S
C2339 C2340 1.410 . S
C2339 C2347 1.503 . S
C2340 C2339 1.410 . S
C2340 C2341 1.392 . S
C2340 C2343 1.511 . S
C2341 C2337 1.376 . S
C2341 C2340 1.392 . S
C2341 H2353 0.929 . S
C2342 C2338 1.531 . S
C2342 H2354 0.960 . S
C2342 H2355 0.962 . S
C2342 H2356 0.960 . S
C2343 C2340 1.511 . S
C2343 H2357 0.961 . S
C2343 H2358 0.961 . S
C2343 H2359 0.961 . S
C2344 C2345 1.370 . S
C2344 C2346 1.363 . S
C2344 H2360 0.931 . S
C2345 C2344 1.370 . S
C2345 C2349 1.408 . S
C2346 C2344 1.363 . S
C2346 C2347 1.370 . S
C2346 C2350 1.524 . S
C2347 C2339 1.503 . S
C2347 C2346 1.370 . S
C2347 C2348 1.403 . S
C2348 C2347 1.403 . S
C2348 C2349 1.404 . S
C2348 C2351 1.539 . S
C2349 C2345 1.408 . S
C2349 C2348 1.404 . S
C2349 H2361 0.930 . S
C2350 C2346 1.524 . S
C2350 H2362 0.956 . S
C2350 H2363 0.961 . S
C2350 H2364 0.961 . S
C2351 C2348 1.539 . S
C2351 H2365 0.958 . S
C2351 H2366 0.961 . S
C2351 H2367 0.960 . S
H2352 C2336 0.931 . S
H2353 C2341 0.929 . S
H2354 C2342 0.960 . S
H2355 C2342 0.962 . S
H2356 C2342 0.960 . S
H2357 C2343 0.961 . S
H2358 C2343 0.961 . S
H2359 C2343 0.961 . S
H2360 C2344 0.931 . S
H2361 C2349 0.930 . S
H2362 C2350 0.956 . S
H2363 C2350 0.961 . S
H2364 C2350 0.961 . S
H2365 C2351 0.958 . S
H2366 C2351 0.961 . S
H2367 C2351 0.960 . S
C2368 C2369 1.391 . S
C2368 C2370 1.394 . S
C2368 H2384 0.931 . S
C2369 C2368 1.391 . S
C2369 C2373 1.376 . S
C2370 C2368 1.394 . S
C2370 C2371 1.369 . S
C2370 C2374 1.531 . S
C2371 C2370 1.369 . S
C2371 C2372 1.410 . S
C2371 C2379 1.503 . S
C2372 C2371 1.410 . S
C2372 C2373 1.392 . S
C2372 C2375 1.511 . S
C2373 C2369 1.376 . S
C2373 C2372 1.392 . S
C2373 H2385 0.929 . S
C2374 C2370 1.531 . S
C2374 H2386 0.960 . S
C2374 H2387 0.962 . S
C2374 H2388 0.960 . S
C2375 C2372 1.511 . S
C2375 H2389 0.961 . S
C2375 H2390 0.961 . S
C2375 H2391 0.961 . S
C2376 C2377 1.370 . S
C2376 C2378 1.363 . S
C2376 H2392 0.931 . S
C2377 C2376 1.370 . S
C2377 C2381 1.408 . S
C2378 C2376 1.363 . S
C2378 C2379 1.370 . S
C2378 C2382 1.524 . S
C2379 C2371 1.503 . S
C2379 C2378 1.370 . S
C2379 C2380 1.403 . S
C2380 C2379 1.403 . S
C2380 C2381 1.404 . S
C2380 C2383 1.539 . S
C2381 C2377 1.408 . S
C2381 C2380 1.404 . S
C2381 H2393 0.930 . S
C2382 C2378 1.524 . S
C2382 H2394 0.956 . S
C2382 H2395 0.961 . S
C2382 H2396 0.961 . S
C2383 C2380 1.539 . S
C2383 H2397 0.958 . S
C2383 H2398 0.961 . S
C2383 H2399 0.960 . S
H2384 C2368 0.931 . S
H2385 C2373 0.929 . S
H2386 C2374 0.960 . S
H2387 C2374 0.962 . S
H2388 C2374 0.960 . S
H2389 C2375 0.961 . S
H2390 C2375 0.961 . S
H2391 C2375 0.961 . S
H2392 C2376 0.931 . S
H2393 C2381 0.930 . S
H2394 C2382 0.956 . S
H2395 C2382 0.961 . S
H2396 C2382 0.961 . S
H2397 C2383 0.958 . S
H2398 C2383 0.961 . S
H2399 C2383 0.960 . S
C2400 C2401 1.391 . S
C2400 C2402 1.394 . S
C2400 H2416 0.931 . S
C2401 C2400 1.391 . S
C2401 C2405 1.376 . S
C2402 C2400 1.394 . S
C2402 C2403 1.369 . S
C2402 C2406 1.531 . S
C2403 C2402 1.369 . S
C2403 C2404 1.410 . S
C2403 C2411 1.503 . S
C2404 C2403 1.410 . S
C2404 C2405 1.392 . S
C2404 C2407 1.511 . S
C2405 C2401 1.376 . S
C2405 C2404 1.392 . S
C2405 H2417 0.929 . S
C2406 C2402 1.531 . S
C2406 H2418 0.960 . S
C2406 H2419 0.962 . S
C2406 H2420 0.960 . S
C2407 C2404 1.511 . S
C2407 H2421 0.961 . S
C2407 H2422 0.961 . S
C2407 H2423 0.961 . S
C2408 C2409 1.370 . S
C2408 C2410 1.363 . S
C2408 H2424 0.931 . S
C2409 C2408 1.370 . S
C2409 C2413 1.408 . S
C2410 C2408 1.363 . S
C2410 C2411 1.370 . S
C2410 C2414 1.524 . S
C2411 C2403 1.503 . S
C2411 C2410 1.370 . S
C2411 C2412 1.403 . S
C2412 C2411 1.403 . S
C2412 C2413 1.404 . S
C2412 C2415 1.539 . S
C2413 C2409 1.408 . S
C2413 C2412 1.404 . S
C2413 H2425 0.930 . S
C2414 C2410 1.524 . S
C2414 H2426 0.956 . S
C2414 H2427 0.961 . S
C2414 H2428 0.961 . S
C2415 C2412 1.539 . S
C2415 H2429 0.958 . S
C2415 H2430 0.961 . S
C2415 H2431 0.960 . S
H2416 C2400 0.931 . S
H2417 C2405 0.929 . S
H2418 C2406 0.960 . S
H2419 C2406 0.962 . S
H2420 C2406 0.960 . S
H2421 C2407 0.961 . S
H2422 C2407 0.961 . S
H2423 C2407 0.961 . S
H2424 C2408 0.931 . S
H2425 C2413 0.930 . S
H2426 C2414 0.956 . S
H2427 C2414 0.961 . S
H2428 C2414 0.961 . S
H2429 C2415 0.958 . S
H2430 C2415 0.961 . S
H2431 C2415 0.960 . S
C2432 C2433 1.391 . S
C2432 C2434 1.394 . S
C2432 H2448 0.931 . S
C2433 C2432 1.391 . S
C2433 C2437 1.376 . S
C2434 C2432 1.394 . S
C2434 C2435 1.369 . S
C2434 C2438 1.531 . S
C2435 C2434 1.369 . S
C2435 C2436 1.410 . S
C2435 C2443 1.503 . S
C2436 C2435 1.410 . S
C2436 C2437 1.392 . S
C2436 C2439 1.511 . S
C2437 C2433 1.376 . S
C2437 C2436 1.392 . S
C2437 H2449 0.929 . S
C2438 C2434 1.531 . S
C2438 H2450 0.960 . S
C2438 H2451 0.962 . S
C2438 H2452 0.960 . S
C2439 C2436 1.511 . S
C2439 H2453 0.961 . S
C2439 H2454 0.961 . S
C2439 H2455 0.961 . S
C2440 C2441 1.370 . S
C2440 C2442 1.363 . S
C2440 H2456 0.931 . S
C2441 C2440 1.370 . S
C2441 C2445 1.408 . S
C2442 C2440 1.363 . S
C2442 C2443 1.370 . S
C2442 C2446 1.524 . S
C2443 C2435 1.503 . S
C2443 C2442 1.370 . S
C2443 C2444 1.403 . S
C2444 C2443 1.403 . S
C2444 C2445 1.404 . S
C2444 C2447 1.539 . S
C2445 C2441 1.408 . S
C2445 C2444 1.404 . S
C2445 H2457 0.930 . S
C2446 C2442 1.524 . S
C2446 H2458 0.956 . S
C2446 H2459 0.961 . S
C2446 H2460 0.961 . S
C2447 C2444 1.539 . S
C2447 H2461 0.958 . S
C2447 H2462 0.961 . S
C2447 H2463 0.960 . S
H2448 C2432 0.931 . S
H2449 C2437 0.929 . S
H2450 C2438 0.960 . S
H2451 C2438 0.962 . S
H2452 C2438 0.960 . S
H2453 C2439 0.961 . S
H2454 C2439 0.961 . S
H2455 C2439 0.961 . S
H2456 C2440 0.931 . S
H2457 C2445 0.930 . S
H2458 C2446 0.956 . S
H2459 C2446 0.961 . S
H2460 C2446 0.961 . S
H2461 C2447 0.958 . S
H2462 C2447 0.961 . S
H2463 C2447 0.960 . S
C417 C30 0.722 . S
C425 C4 0.751 . S
C449 C23 0.698 . S
C457 C43 0.756 . S
C481 C82 0.678 . S
C489 C56 0.746 . S
C513 C95 0.678 . S
C521 C69 0.746 . S
C545 C108 0.794 . S
C553 C140 0.711 . S
C577 C153 0.791 . S
C585 C121 0.711 . S
C609 C160 0.695 . S
C617 C192 0.749 . S
C641 C173 0.788 . S
C649 C199 0.734 . S
C673 C238 0.787 . S
C681 C212 0.718 . S
C705 C225 0.751 . S
C713 C251 0.741 . S
C737 C264 0.695 . S
C745 C290 0.757 . S
C769 C303 0.742 . S
C777 C283 0.750 . S
C801 C348 0.707 . S
C809 C322 0.764 . S
C833 C361 0.792 . S
C841 C335 0.711 . S
C865 C400 0.713 . S
C873 C368 0.766 . S
C897 C381 0.778 . S
C905 C407 0.743 . S
C929 C62 1.581 . S
C937 C10 1.577 . S
C961 C387 1.560 . S
C969 C17 1.582 . S
C993 C36 1.558 . S
C1001 C186 1.586 . S
C1025 C49 1.595 . S
C1033 C309 1.569 . S
C1057 C75 1.596 . S
C1065 C329 1.569 . S
C1089 C88 1.588 . S
C1097 C134 1.571 . S
C1121 C257 1.596 . S
C1129 C101 1.569 . S
C1153 C166 1.594 . S
C1161 C114 1.571 . S
C1185 C277 1.596 . S
C1193 C127 1.569 . S
C1217 C147 1.590 . S
C1225 C413 1.573 . S
C1249 C179 1.554 . S
C1257 C231 1.587 . S
C1281 C355 1.582 . S
C1289 C205 1.574 . S
C1313 C270 1.556 . S
C1321 C218 1.585 . S
C1345 C244 1.554 . S
C1353 C394 1.586 . S
C1377 C296 1.589 . S
C1385 C342 1.573 . S
C1409 C374 1.595 . S
C1417 C316 1.570 . S
C1441 C42 1.553 . S
C1449 C3 1.561 . S
C1473 C29 1.565 . S
C1481 C18 1.555 . S
C1505 C94 1.547 . S
C1513 C55 1.561 . S
C1537 C81 1.544 . S
C1545 C68 1.552 . S
C1569 C148 1.541 . S
C1577 C107 1.561 . S
C1601 C135 1.550 . S
C1609 C120 1.561 . S
C1633 C198 1.539 . S
C1641 C159 1.556 . S
C1665 C187 1.565 . S
C1673 C172 1.556 . S
C1697 C211 1.550 . S
C1705 C250 1.561 . S
C1729 C237 1.545 . S
C1737 C224 1.552 . S
C1761 C263 1.542 . S
C1769 C302 1.553 . S
C1793 C289 1.554 . S
C1801 C278 1.550 . S
C1825 C356 1.540 . S
C1833 C317 1.556 . S
C1857 C330 1.563 . S
C1865 C343 1.557 . S
C1889 C367 1.552 . S
C1897 C406 1.562 . S
C1921 C395 1.546 . S
C1929 C380 1.561 . S
C1953 C31 1.449 . S
C1961 C5 1.443 . S
C1985 C16 1.447 . S
C1993 C44 1.444 . S
C2017 C57 1.435 . S
C2025 C83 1.444 1_565 S
C2049 C70 1.458 . S
C2057 C96 1.434 . S
C2081 C109 1.420 . S
C2089 C133 1.436 . S
C2113 C122 1.424 . S
C2121 C146 1.434 . S
C2145 C185 1.424 . S
C2153 C161 1.445 . S
C2177 C200 1.432 . S
C2185 C174 1.433 . S
C2209 C239 1.457 . S
C2217 C213 1.440 . S
C2241 C252 1.450 . S
C2249 C226 1.429 1_545 S
C2273 C265 1.439 . S
C2281 C291 1.424 1_565 S
C2305 C304 1.423 . S
C2313 C276 1.433 1_565 S
C2337 C341 1.447 . S
C2345 C315 1.435 . S
C2369 C328 1.451 . S
C2377 C354 1.439 . S
C2401 C369 1.430 . S
C2409 C393 1.445 . S
C2433 C408 1.433 . S
C2441 C382 1.446 . S
