# Generated by pormake.
# Topology umn, (4)-cn, num edge types: 1
# Building blocks:
#     Node 0, Type 0, BuildingBlock: NAHDIM_clean_sbu_0, # of connection points: 4
#     Node 1, Type 0, BuildingBlock: NAHDIM_clean_sbu_0, # of connection points: 4
#     Node 2, Type 0, BuildingBlock: NAHDIM_clean_sbu_0, # of connection points: 4
#     Node 3, Type 0, BuildingBlock: NAHDIM_clean_sbu_0, # of connection points: 4
#     Node 4, Type 0, BuildingBlock: NAHDIM_clean_sbu_0, # of connection points: 4
#     Node 5, Type 0, BuildingBlock: NAHDIM_clean_sbu_0, # of connection points: 4
#     Node 6, Type 0, BuildingBlock: NAHDIM_clean_sbu_0, # of connection points: 4
#     Node 7, Type 0, BuildingBlock: NAHDIM_clean_sbu_0, # of connection points: 4
#     Node 8, Type 0, BuildingBlock: NAHDIM_clean_sbu_0, # of connection points: 4
#     Node 9, Type 0, BuildingBlock: NAHDIM_clean_sbu_0, # of connection points: 4
#     Node 10, Type 0, BuildingBlock: NAHDIM_clean_sbu_0, # of connection points: 4
#     Node 11, Type 0, BuildingBlock: NAHDIM_clean_sbu_0, # of connection points: 4
#     Node 12, Type 0, BuildingBlock: NAHDIM_clean_sbu_0, # of connection points: 4
#     Node 13, Type 0, BuildingBlock: NAHDIM_clean_sbu_0, # of connection points: 4
#     Node 14, Type 0, BuildingBlock: NAHDIM_clean_sbu_0, # of connection points: 4
#     Node 15, Type 0, BuildingBlock: NAHDIM_clean_sbu_0, # of connection points: 4
#     Node 16, Type 0, BuildingBlock: NAHDIM_clean_sbu_0, # of connection points: 4
#     Node 17, Type 0, BuildingBlock: NAHDIM_clean_sbu_0, # of connection points: 4
#     Node 18, Type 0, BuildingBlock: NAHDIM_clean_sbu_0, # of connection points: 4
#     Node 19, Type 0, BuildingBlock: NAHDIM_clean_sbu_0, # of connection points: 4
#     Node 20, Type 0, BuildingBlock: NAHDIM_clean_sbu_0, # of connection points: 4
#     Node 21, Type 0, BuildingBlock: NAHDIM_clean_sbu_0, # of connection points: 4
#     Node 22, Type 0, BuildingBlock: NAHDIM_clean_sbu_0, # of connection points: 4
#     Node 23, Type 0, BuildingBlock: NAHDIM_clean_sbu_0, # of connection points: 4
#     Node 24, Type 0, BuildingBlock: NAHDIM_clean_sbu_0, # of connection points: 4
#     Node 25, Type 0, BuildingBlock: NAHDIM_clean_sbu_0, # of connection points: 4
#     Node 26, Type 0, BuildingBlock: NAHDIM_clean_sbu_0, # of connection points: 4
#     Node 27, Type 0, BuildingBlock: NAHDIM_clean_sbu_0, # of connection points: 4
#     Node 28, Type 0, BuildingBlock: NAHDIM_clean_sbu_0, # of connection points: 4
#     Node 29, Type 0, BuildingBlock: NAHDIM_clean_sbu_0, # of connection points: 4
#     Node 30, Type 0, BuildingBlock: NAHDIM_clean_sbu_0, # of connection points: 4
#     Node 31, Type 0, BuildingBlock: NAHDIM_clean_sbu_0, # of connection points: 4
#     Node 32, Type 0, BuildingBlock: NAHDIM_clean_sbu_0, # of connection points: 4
#     Node 33, Type 0, BuildingBlock: NAHDIM_clean_sbu_0, # of connection points: 4
#     Node 34, Type 0, BuildingBlock: NAHDIM_clean_sbu_0, # of connection points: 4
#     Node 35, Type 0, BuildingBlock: NAHDIM_clean_sbu_0, # of connection points: 4
#     Edge 36, Type (0, 0), None
#     Edge 37, Type (0, 0), None
#     Edge 38, Type (0, 0), None
#     Edge 39, Type (0, 0), None
#     Edge 40, Type (0, 0), None
#     Edge 41, Type (0, 0), None
#     Edge 42, Type (0, 0), None
#     Edge 43, Type (0, 0), None
#     Edge 44, Type (0, 0), None
#     Edge 45, Type (0, 0), None
#     Edge 46, Type (0, 0), None
#     Edge 47, Type (0, 0), None
#     Edge 48, Type (0, 0), None
#     Edge 49, Type (0, 0), None
#     Edge 50, Type (0, 0), None
#     Edge 51, Type (0, 0), None
#     Edge 52, Type (0, 0), None
#     Edge 53, Type (0, 0), None
#     Edge 54, Type (0, 0), None
#     Edge 55, Type (0, 0), None
#     Edge 56, Type (0, 0), None
#     Edge 57, Type (0, 0), None
#     Edge 58, Type (0, 0), None
#     Edge 59, Type (0, 0), None
#     Edge 60, Type (0, 0), None
#     Edge 61, Type (0, 0), None
#     Edge 62, Type (0, 0), None
#     Edge 63, Type (0, 0), None
#     Edge 64, Type (0, 0), None
#     Edge 65, Type (0, 0), None
#     Edge 66, Type (0, 0), None
#     Edge 67, Type (0, 0), None
#     Edge 68, Type (0, 0), None
#     Edge 69, Type (0, 0), None
#     Edge 70, Type (0, 0), None
#     Edge 71, Type (0, 0), None
#     Edge 72, Type (0, 0), None
#     Edge 73, Type (0, 0), None
#     Edge 74, Type (0, 0), None
#     Edge 75, Type (0, 0), None
#     Edge 76, Type (0, 0), None
#     Edge 77, Type (0, 0), None
#     Edge 78, Type (0, 0), None
#     Edge 79, Type (0, 0), None
#     Edge 80, Type (0, 0), None
#     Edge 81, Type (0, 0), None
#     Edge 82, Type (0, 0), None
#     Edge 83, Type (0, 0), None
#     Edge 84, Type (0, 0), None
#     Edge 85, Type (0, 0), None
#     Edge 86, Type (0, 0), None
#     Edge 87, Type (0, 0), None
#     Edge 88, Type (0, 0), None
#     Edge 89, Type (0, 0), None
#     Edge 90, Type (0, 0), None
#     Edge 91, Type (0, 0), None
#     Edge 92, Type (0, 0), None
#     Edge 93, Type (0, 0), None
#     Edge 94, Type (0, 0), None
#     Edge 95, Type (0, 0), None
#     Edge 96, Type (0, 0), None
#     Edge 97, Type (0, 0), None
#     Edge 98, Type (0, 0), None
#     Edge 99, Type (0, 0), None
#     Edge 100, Type (0, 0), None
#     Edge 101, Type (0, 0), None
#     Edge 102, Type (0, 0), None
#     Edge 103, Type (0, 0), None
#     Edge 104, Type (0, 0), None
#     Edge 105, Type (0, 0), None
#     Edge 106, Type (0, 0), None
#     Edge 107, Type (0, 0), None
# Relax obj value: 0.316
# Max RMSD: 0.330
# Mean RMSD: 0.330
data_MOF--net-umn--node1-NAHDIM_clean_sbu_0--edge1-none
_symmetry_space_group_name_H-M    P1
_symmetry_Int_Tables_number       1
_symmetry_cell_setting            triclinic
loop_
_symmetry_equiv_pos_as_xyz
'x, y, z'
_cell_length_a     40.828587
_cell_length_b     40.827145
_cell_length_c     14.552933
_cell_angle_alpha  89.90373
_cell_angle_beta   90.186601
_cell_angle_gamma 119.98387
loop_
_atom_site_label
_atom_site_type_symbol
_atom_site_fract_x
_atom_site_fract_y
_atom_site_fract_z
_atom_type_partial_charge
C0 C 0.29798 0.12844 0.19389 0.0
O1 O 0.33394 0.14332 0.21489 0.0
O2 O 0.32847 0.05957 0.11516 0.0
Zn3 Zn 0.30139 0.06289 0.22857 0.0
O4 O 0.33255 0.08617 0.34314 0.0
C5 C 0.28214 -0.00653 0.29864 0.0
O6 O 0.3188 0.01342 0.31209 0.0
O7 O 0.27667 0.09275 0.19411 0.0
C8 C 0.31759 0.08222 0.42231 0.0
O9 O 0.33983 0.09593 0.49411 0.0
C10 C 0.35756 0.05597 0.10903 0.0
O11 O 0.3772 0.05868 0.18311 0.0
O12 O 0.2651 0.00885 0.26086 0.0
C13 C 0.78785 0.17097 0.21362 0.0
O14 O 0.77088 0.18714 0.25417 0.0
O15 O 0.85085 0.27753 0.18295 0.0
Zn16 Zn 0.85298 0.23878 0.26618 0.0
O17 O 0.83319 0.23632 0.3938 0.0
C18 C 0.92714 0.26311 0.20456 0.0
O19 O 0.91151 0.26346 0.12589 0.0
O20 O 0.82356 0.18838 0.20757 0.0
C21 C 0.83713 0.2179 0.45956 0.0
O22 O 0.8234 0.21859 0.54036 0.0
C23 C 0.87618 0.31206 0.19124 0.0
O24 O 0.899 0.32237 0.26255 0.0
O25 O 0.90715 0.25227 0.27658 0.0
C26 C 0.76676 0.61758 0.21265 0.0
O27 O 0.74547 0.58204 0.2368 0.0
O28 O 0.66732 0.58456 0.13949 0.0
Zn29 Zn 0.69958 0.61667 0.24591 0.0
O30 O 0.6935 0.59073 0.36815 0.0
C31 C 0.65041 0.64161 0.28279 0.0
O32 O 0.62935 0.60473 0.28876 0.0
O33 O 0.75286 0.6392 0.209 0.0
C34 C 0.7076 0.60834 0.44338 0.0
O35 O 0.70129 0.58869 0.51918 0.0
C36 C 0.63609 0.55356 0.13971 0.0
O37 O 0.62222 0.53572 0.21759 0.0
O38 O 0.68524 0.65623 0.26427 0.0
C39 C 0.10295 0.30481 0.34617 0.0
O40 O 0.11832 0.34044 0.32165 0.0
O41 O 0.04365 0.34596 0.40135 0.0
Zn42 Zn 0.03975 0.31008 0.29958 0.0
O43 O 0.06402 0.334 0.17792 0.0
C44 C -0.03187 0.28254 0.21276 0.0
O45 O -0.01155 0.31115 0.15809 0.0
O46 O 0.06717 0.28388 0.34471 0.0
C47 C 0.05995 0.31549 0.10398 0.0
O48 O 0.0767 0.33427 0.02923 0.0
C49 C 0.02567 0.36393 0.39893 0.0
O50 O 0.0082 0.36386 0.32295 0.0
O51 O -0.01617 0.27545 0.27947 0.0
C52 C 0.63765 0.79775 0.35463 0.0
O53 O 0.6045 0.78263 0.31396 0.0
O54 O 0.58948 0.69436 0.44837 0.0
Zn55 Zn 0.62124 0.72312 0.33775 0.0
O56 O 0.59176 0.7176 0.221 0.0
C57 C 0.63331 0.66497 0.2976 0.0
O58 O 0.59635 0.64905 0.29775 0.0
O59 O 0.65215 0.77738 0.37315 0.0
C60 C 0.60645 0.72846 0.14158 0.0
O61 O 0.58403 0.72173 0.07079 0.0
C62 C 0.55577 0.66671 0.45072 0.0
O63 O 0.5355 0.65585 0.37501 0.0
O64 O 0.65343 0.70019 0.31246 0.0
C65 C 0.13282 0.81657 0.36233 0.0
O66 O 0.14926 0.79772 0.33461 0.0
O67 O 0.23412 0.86403 0.40818 0.0
Zn68 Zn 0.20417 0.87639 0.31586 0.0
O69 O 0.2048 0.85877 0.18657 0.0
C70 C 0.26271 0.95317 0.31833 0.0
O71 O 0.28285 0.93726 0.33822 0.0
O72 O 0.15104 0.85239 0.36091 0.0
C73 C 0.19339 0.86865 0.1156 0.0
O74 O 0.19721 0.85684 0.0348 0.0
C75 C 0.26343 0.86166 0.3914 0.0
O76 O 0.27466 0.864 0.30596 0.0
O77 O 0.22718 0.93294 0.30877 0.0
C78 C 0.60432 0.80503 0.85939 0.0
O79 O 0.56999 0.78709 0.82479 0.0
O80 O 0.55424 0.86003 0.88101 0.0
Zn81 Zn 0.59854 0.86785 0.80221 0.0
O82 O 0.58508 0.85093 0.67081 0.0
C83 C 0.63823 0.94357 0.86897 0.0
O84 O 0.62075 0.92749 0.94569 0.0
O85 O 0.62276 0.84086 0.85934 0.0
C86 C 0.6093 0.86059 0.60641 0.0
O87 O 0.59724 0.84884 0.52274 0.0
C88 C 0.54035 0.88147 0.86831 0.0
O89 O 0.55054 0.90327 0.79523 0.0
O90 O 0.63456 0.9234 0.79941 0.0
C91 C 0.10708 0.796 0.86196 0.0
O92 O 0.12533 0.78264 0.81535 0.0
O93 O 0.06179 0.69249 0.94076 0.0
Zn94 Zn 0.04976 0.72071 0.8433 0.0
O95 O 0.06783 0.71784 0.71594 0.0
C96 C -0.026 0.66191 0.8377 0.0
O97 O -0.00915 0.64211 0.8508 0.0
O98 O 0.07288 0.77424 0.88379 0.0
C99 C 0.0594 0.72929 0.64276 0.0
O100 O 0.07181 0.72445 0.56387 0.0
C101 C 0.06627 0.66419 0.92788 0.0
O102 O 0.06621 0.65273 0.84358 0.0
O103 O -0.00656 0.69767 0.83448 0.0
C104 C 0.13373 0.29597 0.84712 0.0
O105 O 0.15576 0.33204 0.82877 0.0
O106 O 0.22944 0.33488 0.92016 0.0
Zn107 Zn 0.20084 0.30232 0.81051 0.0
O108 O 0.20451 0.33016 0.69274 0.0
C109 C 0.25819 0.28994 0.77313 0.0
O110 O 0.27368 0.32687 0.77405 0.0
O111 O 0.14716 0.27395 0.84598 0.0
C112 C 0.1914 0.31412 0.61545 0.0
O113 O 0.19563 0.33533 0.54373 0.0
C114 C 0.25613 0.36901 0.92397 0.0
O115 O 0.26722 0.38951 0.84878 0.0
O116 O 0.22296 0.26945 0.78677 0.0
C117 C 0.79735 0.6252 0.71833 0.0
O118 O 0.78277 0.58932 0.73967 0.0
O119 O 0.86596 0.59418 0.64453 0.0
Zn120 Zn 0.86325 0.62269 0.75607 0.0
O121 O 0.84109 0.59339 0.8733 0.0
C122 C 0.9335 0.64223 0.82015 0.0
O123 O 0.91388 0.60553 0.83278 0.0
O124 O 0.83299 0.64683 0.71952 0.0
C125 C 0.84521 0.60946 0.95114 0.0
O126 O 0.83182 0.58823 1.02451 0.0
C127 C 0.8688 0.56462 0.63903 0.0
O128 O 0.86562 0.54501 0.71342 0.0
O129 O 0.91749 0.65928 0.78569 0.0
C130 C 0.31085 0.16024 0.68723 0.0
O131 O 0.34647 0.18239 0.70985 0.0
O132 O 0.34108 0.25939 0.61828 0.0
Zn133 Zn 0.30907 0.22615 0.72341 0.0
O134 O 0.33415 0.23289 0.84736 0.0
C135 C 0.28211 0.27342 0.76022 0.0
O136 O 0.31879 0.29479 0.77044 0.0
O137 O 0.28832 0.17309 0.6859 0.0
C138 C 0.31596 0.21874 0.92179 0.0
O139 O 0.33496 0.22565 0.99894 0.0
C140 C 0.3706 0.29186 0.62061 0.0
O141 O 0.38734 0.30604 0.69957 0.0
O142 O 0.26827 0.2389 0.73914 0.0
C143 C 0.76289 0.11781 0.71937 0.0
O144 O 0.74417 0.13441 0.7468 0.0
O145 O 0.66125 0.05236 0.6501 0.0
Zn146 Zn 0.69307 0.05427 0.75961 0.0
O147 O 0.68876 0.0805 0.87351 0.0
C148 C 0.65523 -0.01579 0.85719 0.0
O149 O 0.6434 0.00277 0.90767 0.0
O150 O 0.74666 0.08201 0.71785 0.0
C151 C 0.70351 0.08116 0.95151 0.0
O152 O 0.69768 0.09829 1.02029 0.0
C153 C 0.62538 0.0363 0.65027 0.0
O154 O 0.60701 0.02351 0.72794 0.0
O155 O 0.67699 0.00043 0.78959 0.0
C156 C -0.03978 0.45714 0.55212 0.0
O157 O -0.00435 0.47306 0.57894 0.0
O158 O -0.00601 0.38917 0.48366 0.0
Zn159 Zn -0.03561 0.39164 0.59275 0.0
O160 O -0.0049 0.41686 0.70709 0.0
C161 C 0.93354 0.32107 0.6882 0.0
O162 O -0.03482 0.33959 0.73476 0.0
O163 O 0.93991 0.42131 0.55151 0.0
C164 C -0.01933 0.41611 0.78532 0.0
O165 O 0.00334 0.43183 0.85562 0.0
C166 C 0.01694 0.37669 0.48535 0.0
O167 O 0.02616 0.36793 0.56444 0.0
O168 O 0.92637 0.33741 0.62315 0.0
C169 C 0.45963 0.49614 0.55121 0.0
O170 O 0.44069 0.50793 0.60067 0.0
O171 O 0.52012 0.60647 0.51987 0.0
Zn172 Zn 0.52239 0.56748 0.60256 0.0
O173 O 0.50242 0.5652 0.73012 0.0
C174 C 0.59726 0.59475 0.54361 0.0
O175 O 0.58184 0.59514 0.46467 0.0
O176 O 0.495 0.51711 0.54118 0.0
C177 C 0.50732 0.54817 0.79764 0.0
O178 O 0.49459 0.55039 0.87858 0.0
C179 C 0.5445 0.64124 0.53053 0.0
O180 O 0.56659 0.65156 0.60323 0.0
O181 O 0.57684 0.58251 0.61472 0.0
C182 C 0.42864 0.94109 0.51616 0.0
O183 O 0.41096 0.90716 0.55276 0.0
O184 O 0.32364 0.90012 0.45345 0.0
Zn185 Zn 0.35878 0.93777 0.54904 0.0
O186 O 0.35529 0.9174 0.67746 0.0
C187 C 0.31065 0.96753 0.56804 0.0
O188 O 0.28639 0.93122 0.57215 0.0
O189 O 0.41154 0.95954 0.5053 0.0
C190 C 0.37053 0.93809 0.7481 0.0
O191 O 0.36489 0.92181 0.82875 0.0
C192 C 0.29098 0.8716 0.46623 0.0
O193 O 0.27888 0.86088 0.55047 0.0
O194 O 0.34551 -0.02113 0.55742 0.0
C195 C 0.77275 0.63998 0.69142 0.0
O196 O 0.78753 0.67578 0.66906 0.0
O197 O 0.7126 0.67926 0.74391 0.0
Zn198 Zn 0.7095 0.64401 0.64169 0.0
O199 O 0.7341 0.66844 0.52068 0.0
C200 C 0.63818 0.61538 0.55347 0.0
O201 O 0.65819 0.64445 0.49981 0.0
O202 O 0.73714 0.61831 0.68729 0.0
C203 C 0.73055 0.65016 0.44665 0.0
O204 O 0.74744 0.66917 0.37226 0.0
C205 C 0.69497 0.69755 0.74144 0.0
O206 O 0.67818 0.69826 0.66495 0.0
O207 O 0.65395 0.60859 0.62047 0.0
C208 C 0.2966 0.12071 0.66555 0.0
O209 O 0.26035 0.09858 0.64926 0.0
O210 O 0.25724 0.02593 0.73995 0.0
Zn211 Zn 0.28898 0.05309 0.6281 0.0
O212 O 0.26045 0.04981 0.51178 0.0
C213 C 0.29709 -0.00595 0.5805 0.0
O214 O 0.26056 -0.01861 0.57732 0.0
O215 O 0.3186 0.10721 0.66252 0.0
C216 C 0.27598 0.06262 0.43397 0.0
O217 O 0.25431 0.05917 0.36373 0.0
C218 C 0.22291 0.00012 0.74876 0.0
O219 O 0.20074 -0.01223 0.67633 0.0
O220 O 0.31945 0.02837 0.60157 0.0
C221 C 0.80197 0.14045 0.68924 0.0
O222 O 0.82013 0.12395 0.65711 0.0
O223 O 0.90412 0.19387 0.72812 0.0
Zn224 Zn 0.87059 0.2035 0.64239 0.0
O225 O 0.86969 0.18609 0.51292 0.0
C226 C 0.90966 0.28055 0.70313 0.0
O227 O 0.9128 0.26532 0.77968 0.0
O228 O 0.8183 0.17622 0.69205 0.0
C229 C 0.85579 0.19519 0.44566 0.0
O230 O 0.85766 0.18342 0.36318 0.0
C231 C 0.9397 0.2117 0.71676 0.0
O232 O 0.95364 0.23199 0.64192 0.0
O233 O 0.89103 0.25952 0.6364 0.0
C234 C 0.28278 0.15274 0.16783 0.0
O235 O 0.247 0.13762 0.1447 0.0
O236 O 0.24095 0.21002 0.21861 0.0
Zn237 Zn 0.27769 0.21512 0.11829 0.0
O238 O 0.25504 0.19095 0.99533 0.0
C239 C 0.30579 0.28682 0.03329 0.0
O240 O 0.27764 0.26668 0.97707 0.0
O241 O 0.30411 0.18839 0.16457 0.0
C242 C 0.27418 0.19505 0.92258 0.0
O243 O 0.25608 0.17785 0.84732 0.0
C244 C 0.222 0.22699 0.21634 0.0
O245 O 0.22167 0.24445 0.14079 0.0
O246 O 0.31221 0.27096 0.10064 0.0
C247 C 0.76635 0.13177 0.18369 0.0
O248 O 0.78419 0.11484 0.15228 0.0
O249 O 0.71103 0.03081 0.27295 0.0
Zn250 Zn 0.70733 0.05858 0.16102 0.0
O251 O 0.73146 0.053 0.0454 0.0
C252 C 0.63725 -0.00025 0.12018 0.0
O253 O 0.65831 -0.01616 0.12382 0.0
O254 O 0.73081 0.11303 0.19415 0.0
C255 C 0.72656 0.06283 0.96555 0.0
O256 O 0.74227 0.05623 0.89494 0.0
C257 C 0.71942 0.00476 0.27766 0.0
O258 O 0.73032 -0.00534 0.20339 0.0
O259 O 0.65217 0.035 0.13439 0.0
C260 C 0.80643 0.63267 0.19148 0.0
O261 O 0.82768 0.66877 0.17231 0.0
O262 O 0.90281 0.67356 0.26584 0.0
Zn263 Zn 0.8746 0.64112 0.1554 0.0
O264 O 0.87693 0.66791 0.03653 0.0
C265 C 0.93234 0.63229 0.10223 0.0
O266 O 0.94393 0.66827 0.08963 0.0
O267 O 0.82081 0.61143 0.19127 0.0
C268 C 0.86431 0.65122 0.95959 0.0
O269 O 0.86755 0.67179 0.88727 0.0
C270 C 0.93172 0.70639 0.27191 0.0
O271 O 0.94613 0.7268 0.19751 0.0
O272 O 0.89907 0.61045 0.13119 0.0
C273 C 0.45865 0.95907 1.02151 0.0
O274 O 0.44194 0.924 0.05109 0.0
O275 O 0.52496 0.92246 0.9459 0.0
Zn276 Zn 0.52346 0.95311 0.05392 0.0
O277 O 0.50215 0.92401 0.17192 0.0
C278 C 0.59709 -0.02345 0.10022 0.0
O279 O 0.58113 0.93959 0.10389 0.0
O280 O 0.49439 -0.02198 1.0163 0.0
C281 C 0.50627 0.93946 0.25051 0.0
O282 O 0.49327 0.91774 0.32323 0.0
C283 C 0.52384 0.89078 0.94671 0.0
O284 O 0.51738 0.87201 1.02417 0.0
O285 O 0.57734 -0.00851 0.07907 0.0
C286 C -0.0155 0.50164 0.04238 0.0
O287 O 0.01861 0.51926 0.07822 0.0
O288 O 0.02771 0.60463 0.99113 0.0
Zn289 Zn -0.01133 0.56997 0.08425 0.0
O290 O 0.00738 0.56956 0.21272 0.0
C291 C -0.04091 0.61909 0.09071 0.0
O292 O -0.00498 0.64401 0.08192 0.0
O293 O -0.03426 0.51848 0.03452 0.0
C294 C -0.01393 0.55211 0.28089 0.0
O295 O 0.0017 0.55501 0.36153 0.0
C296 C 0.05616 0.6373 1.00403 0.0
O297 O 0.06579 0.65014 0.08826 0.0
O298 O 0.94846 0.58418 0.09362 0.0
C299 C 0.42779 0.46225 0.04956 0.0
O300 O 0.41902 0.48027 0.1105 0.0
O301 O 0.31525 0.40542 0.99768 0.0
Zn302 Zn 0.35271 0.40251 0.08434 0.0
O303 O 0.35383 0.42267 0.21134 0.0
C304 C 0.326 0.32777 1.02489 0.0
O305 O 0.32689 0.34346 0.94546 0.0
O306 O 0.40357 0.42889 1.02602 0.0
C307 C 0.37065 0.41837 0.2803 0.0
O308 O 0.36806 0.43167 0.3602 0.0
C309 C 0.28046 0.38087 1.00596 0.0
O310 O 0.26943 0.35892 0.0788 0.0
O311 O 0.33703 0.34792 0.09681 0.0
C312 C 0.62203 0.78401 0.89369 0.0
O313 O 0.65726 0.80217 0.92237 0.0
O314 O 0.66301 0.72242 0.82636 0.0
Zn315 Zn 0.6323 0.72273 0.93532 0.0
O316 O 0.66233 0.74931 0.04984 0.0
C317 C 0.60381 0.65257 0.03118 0.0
O318 O 0.63439 0.67195 0.08098 0.0
O319 O 0.60401 0.74815 0.89273 0.0
C320 C 0.64789 0.74838 0.12819 0.0
O321 O 0.67056 0.76513 0.19793 0.0
C322 C 0.68562 0.70955 0.8281 0.0
O323 O 0.69366 0.69948 0.90696 0.0
O324 O 0.59673 0.66832 0.9648 0.0
C325 C 0.12658 0.83524 0.89198 0.0
O326 O 0.10908 0.84837 0.94242 0.0
O327 O 0.1856 0.94404 0.83386 0.0
Zn328 Zn 0.18939 0.9081 0.9244 0.0
O329 O 0.17161 0.90909 0.05336 0.0
C330 C 0.26131 0.93043 0.85374 0.0
O331 O 0.24298 0.92592 0.77623 0.0
O332 O 0.16125 0.85618 0.87321 0.0
C333 C 0.17563 0.89245 0.12317 0.0
O334 O 0.16248 0.89575 0.20257 0.0
C335 C 0.2119 -0.0216 0.83494 0.0
O336 O 0.23568 -0.00944 0.90445 0.0
O337 O 0.24376 0.92311 0.92944 0.0
C338 C 0.09428 0.28175 0.86857 0.0
O339 O 0.07225 0.24617 0.89152 0.0
O340 O -0.00399 0.25015 0.79706 0.0
Zn341 Zn 0.02826 0.2818 0.90371 0.0
O342 O 0.02216 0.25599 1.02622 0.0
C343 C -0.0203 0.30727 0.94095 0.0
O344 O -0.0417 0.27046 0.94804 0.0
O345 O 0.08126 0.30409 0.86636 0.0
C346 C 0.03654 0.27369 0.10122 0.0
O347 O 0.03011 0.25416 0.17726 0.0
C348 C -0.03564 0.21965 0.79729 0.0
O349 O 0.95021 0.20192 0.87514 0.0
O350 O 0.01442 0.32149 0.92182 0.0
C351 C 0.43635 -0.02414 0.9908 0.0
O352 O 0.45334 0.01063 0.95907 0.0
O353 O 0.38413 0.02498 1.02575 0.0
Zn354 Zn 0.37593 -0.01647 0.93576 0.0
O355 O 0.39865 0.00126 0.80919 0.0
C356 C 0.30235 0.95041 0.85433 0.0
O357 O 0.32081 -0.02616 0.78721 0.0
O358 O 0.40055 0.9566 0.99072 0.0
C359 C 0.39384 -0.02025 0.74073 0.0
O360 O 0.40983 -0.00472 0.66238 0.0
C361 C 0.36267 0.03923 1.02461 0.0
O362 O 0.3387 0.03103 0.95632 0.0
O363 O 0.31996 0.94924 0.92516 0.0
C364 C -0.03326 0.462 1.01795 0.0
O365 O 0.93127 0.44393 0.99105 0.0
O366 O 0.92163 0.36323 0.10523 0.0
Zn367 Zn 0.95309 0.39034 0.99337 0.0
O368 O 0.92406 0.38589 0.87674 0.0
C369 C -0.03671 0.33117 0.95559 0.0
O370 O 0.92639 0.31589 0.95728 0.0
O371 O -0.01539 0.44424 1.02649 0.0
C372 C 0.93921 0.39729 0.79794 0.0
O373 O 0.91725 0.39202 0.72699 0.0
C374 C 0.88749 0.33662 0.10985 0.0
O375 O 0.86654 0.32557 0.03523 0.0
O376 O -0.01591 0.3664 0.96869 0.0
C377 C 0.46584 0.47965 1.01192 0.0
O378 O 0.47459 0.46132 0.95183 0.0
O379 O 0.57581 0.52579 0.06941 0.0
Zn380 Zn 0.54222 0.53538 0.98349 0.0
O381 O 0.54008 0.51693 0.85386 0.0
C382 C 0.58093 0.61195 0.0442 0.0
O383 O 0.58225 0.5966 0.12235 0.0
O384 O 0.49071 0.51236 0.03808 0.0
C385 C 0.52611 0.52551 0.7857 0.0
O386 O 0.52774 0.51295 0.70399 0.0
C387 C 0.61143 0.54475 0.05875 0.0
O388 O 0.62506 0.56529 0.98415 0.0
O389 O 0.56401 0.59117 0.97568 0.0
C390 C 0.94461 0.48054 0.52057 0.0
O391 O 0.90968 0.46453 0.48992 0.0
O392 O 0.89932 0.53722 0.55693 0.0
Zn393 Zn 0.94039 0.54415 0.46699 0.0
O394 O 0.9225 0.523 0.33926 0.0
C395 C -0.02636 0.61813 0.38758 0.0
O396 O 0.94802 0.59984 0.32415 0.0
O397 O -0.03504 0.51636 0.52 0.0
C398 C 0.94443 0.52918 0.271 0.0
O399 O 0.92937 0.51539 0.19059 0.0
C400 C 0.88526 0.55884 0.55496 0.0
O401 O 0.89339 0.58239 0.48592 0.0
O402 O -0.02376 0.60043 0.4567 0.0
C403 C 0.44055 0.4584 0.51078 0.0
O404 O 0.45997 0.44635 0.46422 0.0
O405 O 0.39303 0.35227 0.55498 0.0
Zn406 Zn 0.38244 0.38493 0.46827 0.0
O407 O 0.40231 0.38682 0.34091 0.0
C408 C 0.30486 0.34164 0.52028 0.0
O409 O 0.31972 0.33831 0.59727 0.0
O410 O 0.4054 0.43669 0.52263 0.0
C411 C 0.39372 0.39991 0.27115 0.0
O412 O 0.4063 0.3973 0.19038 0.0
C413 C 0.37791 0.31691 0.54127 0.0
O414 O 0.35931 0.30261 0.46429 0.0
O415 O 0.32623 0.36187 0.45589 0.0
C416 C 0.46827 0.95847 0.49051 0.0
O417 O 0.48627 -0.00631 0.46195 0.0
O418 O 0.56894 0.00385 0.56262 0.0
Zn419 Zn 0.53937 -0.02993 0.45544 0.0
O420 O 0.54006 -0.00286 0.33736 0.0
C421 C 0.58458 0.94481 0.36618 0.0
O422 O 0.59188 -0.02688 0.31132 0.0
O423 O 0.48575 0.94016 0.49632 0.0
C424 C 0.52564 -0.01895 0.26077 0.0
O425 O 0.52811 0.00215 0.19018 0.0
C426 C 0.60475 0.02439 0.56234 0.0
O427 O 0.62337 0.02808 0.48603 0.0
O428 O 0.56201 0.93727 0.43299 0.0
C429 C 0.1271 0.28945 0.37322 0.0
O430 O 0.11194 0.25376 0.39704 0.0
O431 O 0.19526 0.25702 0.30196 0.0
Zn432 Zn 0.19345 0.28672 0.41162 0.0
O433 O 0.16947 0.25696 0.52769 0.0
C434 C 0.2646 0.3171 0.50299 0.0
O435 O 0.24642 0.28491 0.54731 0.0
O436 O 0.16286 0.31047 0.37288 0.0
C437 C 0.17168 0.27245 0.60541 0.0
O438 O 0.15678 0.25075 0.67747 0.0
C439 C 0.20879 0.23495 0.30304 0.0
O440 O 0.2185 0.22645 0.38179 0.0
O441 O 0.24792 0.32492 0.44003 0.0
C442 C 0.65583 0.83684 0.38547 0.0
O443 O 0.68661 0.85108 0.43604 0.0
O444 O 0.69998 0.94609 0.35105 0.0
Zn445 Zn 0.65885 0.90571 0.43073 0.0
O446 O 0.67373 0.90274 0.56149 0.0
C447 C 0.60774 0.9271 0.36079 0.0
O448 O 0.62472 0.92804 0.2836 0.0
O449 O 0.6396 0.85587 0.37069 0.0
C450 C 0.65034 0.88376 0.62493 0.0
O451 O 0.66341 0.8841 0.70754 0.0
C452 C 0.70669 -0.02009 0.35868 0.0
O453 O 0.6922 -0.01128 0.42838 0.0
O454 O 0.61695 0.9172 0.43451 0.0
C455 C 0.094 0.79636 0.39589 0.0
O456 O 0.0775 0.81504 0.42453 0.0
O457 O -0.01054 0.73906 0.35397 0.0
Zn458 Zn 0.02364 0.7336 0.4472 0.0
O459 O 0.02189 0.75304 0.5733 0.0
C460 C -0.00437 0.6592 0.38316 0.0
O461 O -0.00074 0.67636 0.30433 0.0
O462 O 0.07627 0.76055 0.39854 0.0
C463 C 0.03681 0.74843 0.64569 0.0
O464 O 0.03246 0.76184 0.72359 0.0
C465 C -0.04593 0.71607 0.35721 0.0
O466 O 0.9401 0.69363 0.42871 0.0
O467 O 0.00582 0.6783 0.45683 0.0
loop_
_geom_bond_atom_site_label_1
_geom_bond_atom_site_label_2
_geom_bond_distance
_geom_bond_site_symmetry_2
_ccdc_geom_bond_type
C0 O1 1.160 . S
C0 O7 1.185 . S
O1 C0 1.160 . S
O2 Zn3 1.899 . S
O2 C10 1.284 . S
Zn3 O2 1.899 . S
Zn3 O4 2.032 . S
Zn3 O7 2.086 . S
Zn3 O12 1.977 . S
O4 Zn3 2.032 . S
O4 C8 1.278 . S
C5 O6 1.203 . S
C5 O12 1.267 . S
O6 C5 1.203 . S
O7 C0 1.185 . S
O7 Zn3 2.086 . S
C8 O4 1.278 . S
C8 O9 1.211 . S
O9 C8 1.211 . S
C10 O2 1.284 . S
C10 O11 1.273 . S
O11 C10 1.273 . S
O12 Zn3 1.977 . S
O12 C5 1.267 . S
C13 O14 1.160 . S
C13 O20 1.185 . S
O14 C13 1.160 . S
O15 Zn16 1.899 . S
O15 C23 1.284 . S
Zn16 O15 1.899 . S
Zn16 O17 2.032 . S
Zn16 O20 2.086 . S
Zn16 O25 1.977 . S
O17 Zn16 2.032 . S
O17 C21 1.278 . S
C18 O19 1.203 . S
C18 O25 1.267 . S
O19 C18 1.203 . S
O20 C13 1.185 . S
O20 Zn16 2.086 . S
C21 O17 1.278 . S
C21 O22 1.211 . S
O22 C21 1.211 . S
C23 O15 1.284 . S
C23 O24 1.273 . S
O24 C23 1.273 . S
O25 Zn16 1.977 . S
O25 C18 1.267 . S
C26 O27 1.160 . S
C26 O33 1.185 . S
O27 C26 1.160 . S
O28 Zn29 1.899 . S
O28 C36 1.284 . S
Zn29 O28 1.899 . S
Zn29 O30 2.032 . S
Zn29 O33 2.086 . S
Zn29 O38 1.977 . S
O30 Zn29 2.032 . S
O30 C34 1.278 . S
C31 O32 1.203 . S
C31 O38 1.267 . S
O32 C31 1.203 . S
O33 C26 1.185 . S
O33 Zn29 2.086 . S
C34 O30 1.278 . S
C34 O35 1.211 . S
O35 C34 1.211 . S
C36 O28 1.284 . S
C36 O37 1.273 . S
O37 C36 1.273 . S
O38 Zn29 1.977 . S
O38 C31 1.267 . S
C39 O40 1.160 . S
C39 O46 1.185 . S
O40 C39 1.160 . S
O41 Zn42 1.899 . S
O41 C49 1.284 . S
Zn42 O41 1.899 . S
Zn42 O43 2.032 . S
Zn42 O46 2.086 . S
Zn42 O51 1.977 . S
O43 Zn42 2.032 . S
O43 C47 1.278 . S
C44 O45 1.203 . S
C44 O51 1.267 . S
O45 C44 1.203 . S
O46 C39 1.185 . S
O46 Zn42 2.086 . S
C47 O43 1.278 . S
C47 O48 1.211 . S
O48 C47 1.211 . S
C49 O41 1.284 . S
C49 O50 1.273 . S
O50 C49 1.273 . S
O51 Zn42 1.977 . S
O51 C44 1.267 . S
C52 O53 1.160 . S
C52 O59 1.185 . S
O53 C52 1.160 . S
O54 Zn55 1.899 . S
O54 C62 1.284 . S
Zn55 O54 1.899 . S
Zn55 O56 2.032 . S
Zn55 O59 2.086 . S
Zn55 O64 1.977 . S
O56 Zn55 2.032 . S
O56 C60 1.278 . S
C57 O58 1.203 . S
C57 O64 1.267 . S
O58 C57 1.203 . S
O59 C52 1.185 . S
O59 Zn55 2.086 . S
C60 O56 1.278 . S
C60 O61 1.211 . S
O61 C60 1.211 . S
C62 O54 1.284 . S
C62 O63 1.273 . S
O63 C62 1.273 . S
O64 Zn55 1.977 . S
O64 C57 1.267 . S
C65 O66 1.160 . S
C65 O72 1.185 . S
O66 C65 1.160 . S
O67 Zn68 1.899 . S
O67 C75 1.284 . S
Zn68 O67 1.899 . S
Zn68 O69 2.032 . S
Zn68 O72 2.086 . S
Zn68 O77 1.977 . S
O69 Zn68 2.032 . S
O69 C73 1.278 . S
C70 O71 1.203 . S
C70 O77 1.267 . S
O71 C70 1.203 . S
O72 C65 1.185 . S
O72 Zn68 2.086 . S
C73 O69 1.278 . S
C73 O74 1.211 . S
O74 C73 1.211 . S
C75 O67 1.284 . S
C75 O76 1.273 . S
O76 C75 1.273 . S
O77 Zn68 1.977 . S
O77 C70 1.267 . S
C78 O79 1.160 . S
C78 O85 1.185 . S
O79 C78 1.160 . S
O80 Zn81 1.899 . S
O80 C88 1.284 . S
Zn81 O80 1.899 . S
Zn81 O82 2.032 . S
Zn81 O85 2.086 . S
Zn81 O90 1.977 . S
O82 Zn81 2.032 . S
O82 C86 1.278 . S
C83 O84 1.203 . S
C83 O90 1.267 . S
O84 C83 1.203 . S
O85 C78 1.185 . S
O85 Zn81 2.086 . S
C86 O82 1.278 . S
C86 O87 1.211 . S
O87 C86 1.211 . S
C88 O80 1.284 . S
C88 O89 1.273 . S
O89 C88 1.273 . S
O90 Zn81 1.977 . S
O90 C83 1.267 . S
C91 O92 1.160 . S
C91 O98 1.185 . S
O92 C91 1.160 . S
O93 Zn94 1.899 . S
O93 C101 1.284 . S
Zn94 O93 1.899 . S
Zn94 O95 2.032 . S
Zn94 O98 2.086 . S
Zn94 O103 1.977 . S
O95 Zn94 2.032 . S
O95 C99 1.278 . S
C96 O97 1.203 . S
C96 O103 1.267 . S
O97 C96 1.203 . S
O98 C91 1.185 . S
O98 Zn94 2.086 . S
C99 O95 1.278 . S
C99 O100 1.211 . S
O100 C99 1.211 . S
C101 O93 1.284 . S
C101 O102 1.273 . S
O102 C101 1.273 . S
O103 Zn94 1.977 . S
O103 C96 1.267 . S
C104 O105 1.160 . S
C104 O111 1.185 . S
O105 C104 1.160 . S
O106 Zn107 1.899 . S
O106 C114 1.284 . S
Zn107 O106 1.899 . S
Zn107 O108 2.032 . S
Zn107 O111 2.086 . S
Zn107 O116 1.977 . S
O108 Zn107 2.032 . S
O108 C112 1.278 . S
C109 O110 1.203 . S
C109 O116 1.267 . S
O110 C109 1.203 . S
O111 C104 1.185 . S
O111 Zn107 2.086 . S
C112 O108 1.278 . S
C112 O113 1.211 . S
O113 C112 1.211 . S
C114 O106 1.284 . S
C114 O115 1.273 . S
O115 C114 1.273 . S
O116 Zn107 1.977 . S
O116 C109 1.267 . S
C117 O118 1.160 . S
C117 O124 1.185 . S
O118 C117 1.160 . S
O119 Zn120 1.899 . S
O119 C127 1.284 . S
Zn120 O119 1.899 . S
Zn120 O121 2.032 . S
Zn120 O124 2.086 . S
Zn120 O129 1.977 . S
O121 Zn120 2.032 . S
O121 C125 1.278 . S
C122 O123 1.203 . S
C122 O129 1.267 . S
O123 C122 1.203 . S
O124 C117 1.185 . S
O124 Zn120 2.086 . S
C125 O121 1.278 . S
C125 O126 1.211 . S
O126 C125 1.211 . S
C127 O119 1.284 . S
C127 O128 1.273 . S
O128 C127 1.273 . S
O129 Zn120 1.977 . S
O129 C122 1.267 . S
C130 O131 1.160 . S
C130 O137 1.185 . S
O131 C130 1.160 . S
O132 Zn133 1.899 . S
O132 C140 1.284 . S
Zn133 O132 1.899 . S
Zn133 O134 2.032 . S
Zn133 O137 2.086 . S
Zn133 O142 1.977 . S
O134 Zn133 2.032 . S
O134 C138 1.278 . S
C135 O136 1.203 . S
C135 O142 1.267 . S
O136 C135 1.203 . S
O137 C130 1.185 . S
O137 Zn133 2.086 . S
C138 O134 1.278 . S
C138 O139 1.211 . S
O139 C138 1.211 . S
C140 O132 1.284 . S
C140 O141 1.273 . S
O141 C140 1.273 . S
O142 Zn133 1.977 . S
O142 C135 1.267 . S
C143 O144 1.160 . S
C143 O150 1.185 . S
O144 C143 1.160 . S
O145 Zn146 1.899 . S
O145 C153 1.284 . S
Zn146 O145 1.899 . S
Zn146 O147 2.032 . S
Zn146 O150 2.086 . S
Zn146 O155 1.977 . S
O147 Zn146 2.032 . S
O147 C151 1.278 . S
C148 O149 1.203 . S
C148 O155 1.267 . S
O149 C148 1.203 . S
O150 C143 1.185 . S
O150 Zn146 2.086 . S
C151 O147 1.278 . S
C151 O152 1.211 . S
O152 C151 1.211 . S
C153 O145 1.284 . S
C153 O154 1.273 . S
O154 C153 1.273 . S
O155 Zn146 1.977 . S
O155 C148 1.267 . S
C156 O157 1.160 . S
C156 O163 1.185 1_455 S
O157 C156 1.160 . S
O158 Zn159 1.899 . S
O158 C166 1.284 . S
Zn159 O158 1.899 . S
Zn159 O160 2.032 . S
Zn159 O163 2.086 1_455 S
Zn159 O168 1.977 1_455 S
O160 Zn159 2.032 . S
O160 C164 1.278 . S
C161 O162 1.203 1_655 S
C161 O168 1.267 . S
O162 C161 1.203 1_455 S
O163 C156 1.185 1_655 S
O163 Zn159 2.086 1_655 S
C164 O160 1.278 . S
C164 O165 1.211 . S
O165 C164 1.211 . S
C166 O158 1.284 . S
C166 O167 1.273 . S
O167 C166 1.273 . S
O168 Zn159 1.977 1_655 S
O168 C161 1.267 . S
C169 O170 1.160 . S
C169 O176 1.185 . S
O170 C169 1.160 . S
O171 Zn172 1.899 . S
O171 C179 1.284 . S
Zn172 O171 1.899 . S
Zn172 O173 2.032 . S
Zn172 O176 2.086 . S
Zn172 O181 1.977 . S
O173 Zn172 2.032 . S
O173 C177 1.278 . S
C174 O175 1.203 . S
C174 O181 1.267 . S
O175 C174 1.203 . S
O176 C169 1.185 . S
O176 Zn172 2.086 . S
C177 O173 1.278 . S
C177 O178 1.211 . S
O178 C177 1.211 . S
C179 O171 1.284 . S
C179 O180 1.273 . S
O180 C179 1.273 . S
O181 Zn172 1.977 . S
O181 C174 1.267 . S
C182 O183 1.160 . S
C182 O189 1.185 1_565 S
O183 C182 1.160 . S
O184 Zn185 1.899 . S
O184 C192 1.284 . S
Zn185 O184 1.899 . S
Zn185 O186 2.032 . S
Zn185 O189 2.086 1_565 S
Zn185 O194 1.977 1_565 S
O186 Zn185 2.032 . S
O186 C190 1.278 . S
C187 O188 1.203 1_545 S
C187 O194 1.267 . S
O188 C187 1.203 1_565 S
O189 C182 1.185 1_545 S
O189 Zn185 2.086 1_545 S
C190 O186 1.278 . S
C190 O191 1.211 . S
O191 C190 1.211 . S
C192 O184 1.284 . S
C192 O193 1.273 . S
O193 C192 1.273 . S
O194 Zn185 1.977 1_545 S
O194 C187 1.267 . S
C195 O196 1.160 . S
C195 O202 1.185 . S
O196 C195 1.160 . S
O197 Zn198 1.899 . S
O197 C205 1.284 . S
Zn198 O197 1.899 . S
Zn198 O199 2.032 . S
Zn198 O202 2.086 . S
Zn198 O207 1.977 . S
O199 Zn198 2.032 . S
O199 C203 1.278 . S
C200 O201 1.203 . S
C200 O207 1.267 . S
O201 C200 1.203 . S
O202 C195 1.185 . S
O202 Zn198 2.086 . S
C203 O199 1.278 . S
C203 O204 1.211 . S
O204 C203 1.211 . S
C205 O197 1.284 . S
C205 O206 1.273 . S
O206 C205 1.273 . S
O207 Zn198 1.977 . S
O207 C200 1.267 . S
C208 O209 1.160 . S
C208 O215 1.185 . S
O209 C208 1.160 . S
O210 Zn211 1.899 . S
O210 C218 1.284 . S
Zn211 O210 1.899 . S
Zn211 O212 2.032 . S
Zn211 O215 2.086 . S
Zn211 O220 1.977 . S
O212 Zn211 2.032 . S
O212 C216 1.278 . S
C213 O214 1.186 1_545 S
C213 O220 1.267 . S
O214 C213 1.186 1_565 S
O215 C208 1.185 . S
O215 Zn211 2.086 . S
C216 O212 1.278 . S
C216 O217 1.211 . S
O217 C216 1.211 . S
C218 O210 1.284 . S
C218 O219 1.273 1_545 S
O219 C218 1.273 1_565 S
O220 Zn211 1.977 . S
O220 C213 1.267 . S
C221 O222 1.160 . S
C221 O228 1.185 . S
O222 C221 1.160 . S
O223 Zn224 1.899 . S
O223 C231 1.284 . S
Zn224 O223 1.899 . S
Zn224 O225 2.032 . S
Zn224 O228 2.086 . S
Zn224 O233 1.977 . S
O225 Zn224 2.032 . S
O225 C229 1.278 . S
C226 O227 1.203 1_655 S
C226 O233 1.267 . S
O227 C226 1.203 1_455 S
O228 C221 1.185 . S
O228 Zn224 2.086 . S
C229 O225 1.278 . S
C229 O230 1.211 . S
O230 C229 1.211 . S
C231 O223 1.284 . S
C231 O232 1.273 1_655 S
O232 C231 1.273 1_455 S
O233 Zn224 1.977 . S
O233 C226 1.267 . S
C234 O235 1.160 . S
C234 O241 1.185 . S
O235 C234 1.160 . S
O236 Zn237 1.899 . S
O236 C244 1.284 . S
Zn237 O236 1.899 . S
Zn237 O238 2.028 1_554 S
Zn237 O241 2.086 . S
Zn237 O246 1.977 . S
O238 Zn237 2.028 1_556 S
O238 C242 1.281 . S
C239 O240 1.203 . S
C239 O246 1.267 . S
O240 C239 1.203 . S
O241 C234 1.185 . S
O241 Zn237 2.086 . S
C242 O238 1.281 . S
C242 O243 1.211 . S
O243 C242 1.211 . S
C244 O236 1.284 . S
C244 O245 1.273 . S
O245 C244 1.273 . S
O246 Zn237 1.977 . S
O246 C239 1.267 . S
C247 O248 1.160 . S
C247 O254 1.185 . S
O248 C247 1.160 . S
O249 Zn250 1.899 . S
O249 C257 1.284 . S
Zn250 O249 1.899 . S
Zn250 O251 2.027 1_554 S
Zn250 O254 2.086 . S
Zn250 O259 1.977 . S
O251 Zn250 2.027 1_556 S
O251 C255 1.282 . S
C252 O253 1.203 1_545 S
C252 O259 1.267 . S
O253 C252 1.203 1_565 S
O254 C247 1.185 . S
O254 Zn250 2.086 . S
C255 O251 1.282 . S
C255 O256 1.211 . S
O256 C255 1.211 . S
C257 O249 1.284 . S
C257 O258 1.273 1_545 S
O258 C257 1.273 1_565 S
O259 Zn250 1.977 . S
O259 C252 1.267 . S
C260 O261 1.160 . S
C260 O267 1.185 . S
O261 C260 1.160 . S
O262 Zn263 1.899 . S
O262 C270 1.284 . S
Zn263 O262 1.899 . S
Zn263 O264 2.028 1_554 S
Zn263 O267 2.086 . S
Zn263 O272 1.977 . S
O264 Zn263 2.028 1_556 S
O264 C268 1.281 . S
C265 O266 1.186 1_655 S
C265 O272 1.267 . S
O266 C265 1.186 1_455 S
O267 C260 1.185 . S
O267 Zn263 2.086 . S
C268 O264 1.281 . S
C268 O269 1.211 . S
O269 C268 1.211 . S
C270 O262 1.284 . S
C270 O271 1.273 1_655 S
O271 C270 1.273 1_455 S
O272 Zn263 1.977 . S
O272 C265 1.267 . S
C273 O274 1.160 . S
C273 O280 1.185 1_566 S
O274 C273 1.160 . S
O275 Zn276 1.899 1_556 S
O275 C283 1.284 . S
Zn276 O275 1.899 1_554 S
Zn276 O277 2.032 . S
Zn276 O280 2.086 1_565 S
Zn276 O285 1.977 1_565 S
O277 Zn276 2.032 . S
O277 C281 1.278 . S
C278 O279 1.203 1_545 S
C278 O285 1.267 . S
O279 C278 1.203 1_565 S
O280 C273 1.185 1_544 S
O280 Zn276 2.086 1_545 S
C281 O277 1.278 . S
C281 O282 1.211 . S
O282 C281 1.211 . S
C283 O275 1.284 . S
C283 O284 1.273 1_556 S
O284 C283 1.273 1_554 S
O285 Zn276 1.977 1_545 S
O285 C278 1.267 . S
C286 O287 1.160 . S
C286 O293 1.185 1_456 S
O287 C286 1.160 . S
O288 Zn289 1.899 1_556 S
O288 C296 1.284 . S
Zn289 O288 1.899 1_554 S
Zn289 O290 2.032 . S
Zn289 O293 2.086 1_455 S
Zn289 O298 1.977 1_455 S
O290 Zn289 2.032 . S
O290 C294 1.278 . S
C291 O292 1.203 1_655 S
C291 O298 1.267 . S
O292 C291 1.203 1_455 S
O293 C286 1.185 1_654 S
O293 Zn289 2.086 1_655 S
C294 O290 1.278 . S
C294 O295 1.211 . S
O295 C294 1.211 . S
C296 O288 1.284 . S
C296 O297 1.273 1_556 S
O297 C296 1.273 1_554 S
O298 Zn289 1.977 1_655 S
O298 C291 1.267 . S
C299 O300 1.160 . S
C299 O306 1.185 1_556 S
O300 C299 1.160 . S
O301 Zn302 1.899 1_556 S
O301 C309 1.284 . S
Zn302 O301 1.899 1_554 S
Zn302 O303 2.032 . S
Zn302 O306 2.086 . S
Zn302 O311 1.977 . S
O303 Zn302 2.032 . S
O303 C307 1.278 . S
C304 O305 1.203 . S
C304 O311 1.267 . S
O305 C304 1.203 . S
O306 C299 1.185 1_554 S
O306 Zn302 2.086 . S
C307 O303 1.278 . S
C307 O308 1.211 . S
O308 C307 1.211 . S
C309 O301 1.284 . S
C309 O310 1.273 1_556 S
O310 C309 1.273 1_554 S
O311 Zn302 1.977 . S
O311 C304 1.267 . S
C312 O313 1.160 . S
C312 O319 1.185 . S
O313 C312 1.160 . S
O314 Zn315 1.899 . S
O314 C322 1.284 . S
Zn315 O314 1.899 . S
Zn315 O316 2.028 1_556 S
Zn315 O319 2.086 . S
Zn315 O324 1.977 . S
O316 Zn315 2.028 1_554 S
O316 C320 1.281 . S
C317 O318 1.203 . S
C317 O324 1.267 . S
O318 C317 1.203 . S
O319 C312 1.185 . S
O319 Zn315 2.086 . S
C320 O316 1.281 . S
C320 O321 1.211 . S
O321 C320 1.211 . S
C322 O314 1.284 . S
C322 O323 1.273 . S
O323 C322 1.273 . S
O324 Zn315 1.977 . S
O324 C317 1.267 . S
C325 O326 1.160 . S
C325 O332 1.185 . S
O326 C325 1.160 . S
O327 Zn328 1.899 . S
O327 C335 1.284 . S
Zn328 O327 1.899 . S
Zn328 O329 2.027 1_556 S
Zn328 O332 2.086 . S
Zn328 O337 1.977 . S
O329 Zn328 2.027 1_554 S
O329 C333 1.282 . S
C330 O331 1.203 1_565 S
C330 O337 1.267 . S
O331 C330 1.203 1_545 S
O332 C325 1.185 . S
O332 Zn328 2.086 . S
C333 O329 1.282 . S
C333 O334 1.211 . S
O334 C333 1.211 . S
C335 O327 1.284 . S
C335 O336 1.273 1_565 S
O336 C335 1.273 1_545 S
O337 Zn328 1.977 . S
O337 C330 1.267 . S
C338 O339 1.160 . S
C338 O345 1.185 . S
O339 C338 1.160 . S
O340 Zn341 1.899 . S
O340 C348 1.284 . S
Zn341 O340 1.899 . S
Zn341 O342 2.028 1_556 S
Zn341 O345 2.086 . S
Zn341 O350 1.977 . S
O342 Zn341 2.028 1_554 S
O342 C346 1.281 . S
C343 O344 1.186 1_455 S
C343 O350 1.267 . S
O344 C343 1.186 1_655 S
O345 C338 1.185 . S
O345 Zn341 2.086 . S
C346 O342 1.281 . S
C346 O347 1.211 . S
O347 C346 1.211 . S
C348 O340 1.284 . S
C348 O349 1.273 1_455 S
O349 C348 1.273 1_655 S
O350 Zn341 1.977 . S
O350 C343 1.267 . S
C351 O352 1.160 . S
C351 O358 1.185 1_544 S
O352 C351 1.160 . S
O353 Zn354 1.899 1_554 S
O353 C361 1.284 . S
Zn354 O353 1.899 1_556 S
Zn354 O355 2.032 . S
Zn354 O358 2.086 1_545 S
Zn354 O363 1.977 1_545 S
O355 Zn354 2.032 . S
O355 C359 1.278 . S
C356 O357 1.203 1_565 S
C356 O363 1.267 . S
O357 C356 1.203 1_545 S
O358 C351 1.185 1_566 S
O358 Zn354 2.086 1_565 S
C359 O355 1.278 . S
C359 O360 1.211 . S
O360 C359 1.211 . S
C361 O353 1.284 . S
C361 O362 1.273 1_554 S
O362 C361 1.273 1_556 S
O363 Zn354 1.977 1_565 S
O363 C356 1.267 . S
C364 O365 1.160 . S
C364 O371 1.185 1_654 S
O365 C364 1.160 . S
O366 Zn367 1.899 1_554 S
O366 C374 1.284 . S
Zn367 O366 1.899 1_556 S
Zn367 O368 2.032 . S
Zn367 O371 2.086 1_655 S
Zn367 O376 1.977 1_655 S
O368 Zn367 2.032 . S
O368 C372 1.278 . S
C369 O370 1.203 1_455 S
C369 O376 1.267 . S
O370 C369 1.203 1_655 S
O371 C364 1.185 1_456 S
O371 Zn367 2.086 1_455 S
C372 O368 1.278 . S
C372 O373 1.211 . S
O373 C372 1.211 . S
C374 O366 1.284 . S
C374 O375 1.273 1_554 S
O375 C374 1.273 1_556 S
O376 Zn367 1.977 1_455 S
O376 C369 1.267 . S
C377 O378 1.160 . S
C377 O384 1.185 1_554 S
O378 C377 1.160 . S
O379 Zn380 1.899 1_554 S
O379 C387 1.284 . S
Zn380 O379 1.899 1_556 S
Zn380 O381 2.032 . S
Zn380 O384 2.086 . S
Zn380 O389 1.977 . S
O381 Zn380 2.032 . S
O381 C385 1.278 . S
C382 O383 1.203 . S
C382 O389 1.267 . S
O383 C382 1.203 . S
O384 C377 1.185 1_556 S
O384 Zn380 2.086 . S
C385 O381 1.278 . S
C385 O386 1.211 . S
O386 C385 1.211 . S
C387 O379 1.284 . S
C387 O388 1.273 1_554 S
O388 C387 1.273 1_556 S
O389 Zn380 1.977 . S
O389 C382 1.267 . S
C390 O391 1.160 . S
C390 O397 1.185 1_655 S
O391 C390 1.160 . S
O392 Zn393 1.899 . S
O392 C400 1.284 . S
Zn393 O392 1.899 . S
Zn393 O394 2.032 . S
Zn393 O397 2.086 1_655 S
Zn393 O402 1.977 1_655 S
O394 Zn393 2.032 . S
O394 C398 1.278 . S
C395 O396 1.203 1_455 S
C395 O402 1.267 . S
O396 C395 1.203 1_655 S
O397 C390 1.185 1_455 S
O397 Zn393 2.086 1_455 S
C398 O394 1.278 . S
C398 O399 1.211 . S
O399 C398 1.211 . S
C400 O392 1.284 . S
C400 O401 1.273 . S
O401 C400 1.273 . S
O402 Zn393 1.977 1_455 S
O402 C395 1.267 . S
C403 O404 1.160 . S
C403 O410 1.185 . S
O404 C403 1.160 . S
O405 Zn406 1.899 . S
O405 C413 1.284 . S
Zn406 O405 1.899 . S
Zn406 O407 2.032 . S
Zn406 O410 2.086 . S
Zn406 O415 1.977 . S
O407 Zn406 2.032 . S
O407 C411 1.278 . S
C408 O409 1.203 . S
C408 O415 1.267 . S
O409 C408 1.203 . S
O410 C403 1.185 . S
O410 Zn406 2.086 . S
C411 O407 1.278 . S
C411 O412 1.211 . S
O412 C411 1.211 . S
C413 O405 1.284 . S
C413 O414 1.273 . S
O414 C413 1.273 . S
O415 Zn406 1.977 . S
O415 C408 1.267 . S
C416 O417 1.160 . S
C416 O423 1.185 1_545 S
O417 C416 1.160 . S
O418 Zn419 1.899 . S
O418 C426 1.284 . S
Zn419 O418 1.899 . S
Zn419 O420 2.032 . S
Zn419 O423 2.086 1_545 S
Zn419 O428 1.977 1_545 S
O420 Zn419 2.032 . S
O420 C424 1.278 . S
C421 O422 1.203 1_565 S
C421 O428 1.267 . S
O422 C421 1.203 1_545 S
O423 C416 1.185 1_565 S
O423 Zn419 2.086 1_565 S
C424 O420 1.278 . S
C424 O425 1.211 . S
O425 C424 1.211 . S
C426 O418 1.284 . S
C426 O427 1.273 . S
O427 C426 1.273 . S
O428 Zn419 1.977 1_565 S
O428 C421 1.267 . S
C429 O430 1.160 . S
C429 O436 1.185 . S
O430 C429 1.160 . S
O431 Zn432 1.899 . S
O431 C439 1.284 . S
Zn432 O431 1.899 . S
Zn432 O433 2.032 . S
Zn432 O436 2.086 . S
Zn432 O441 1.977 . S
O433 Zn432 2.032 . S
O433 C437 1.278 . S
C434 O435 1.203 . S
C434 O441 1.267 . S
O435 C434 1.203 . S
O436 C429 1.185 . S
O436 Zn432 2.086 . S
C437 O433 1.278 . S
C437 O438 1.211 . S
O438 C437 1.211 . S
C439 O431 1.284 . S
C439 O440 1.273 . S
O440 C439 1.273 . S
O441 Zn432 1.977 . S
O441 C434 1.267 . S
C442 O443 1.160 . S
C442 O449 1.185 . S
O443 C442 1.160 . S
O444 Zn445 1.899 . S
O444 C452 1.284 . S
Zn445 O444 1.899 . S
Zn445 O446 2.032 . S
Zn445 O449 2.086 . S
Zn445 O454 1.977 . S
O446 Zn445 2.032 . S
O446 C450 1.278 . S
C447 O448 1.186 1_565 S
C447 O454 1.267 . S
O448 C447 1.186 1_545 S
O449 C442 1.185 . S
O449 Zn445 2.086 . S
C450 O446 1.278 . S
C450 O451 1.211 . S
O451 C450 1.211 . S
C452 O444 1.284 . S
C452 O453 1.273 1_565 S
O453 C452 1.273 1_545 S
O454 Zn445 1.977 . S
O454 C447 1.267 . S
C455 O456 1.160 . S
C455 O462 1.185 . S
O456 C455 1.160 . S
O457 Zn458 1.899 . S
O457 C465 1.284 . S
Zn458 O457 1.899 . S
Zn458 O459 2.032 . S
Zn458 O462 2.086 . S
Zn458 O467 1.977 . S
O459 Zn458 2.032 . S
O459 C463 1.278 . S
C460 O461 1.203 1_455 S
C460 O467 1.267 . S
O461 C460 1.203 1_655 S
O462 C455 1.185 . S
O462 Zn458 2.086 . S
C463 O459 1.278 . S
C463 O464 1.211 . S
O464 C463 1.211 . S
C465 O457 1.284 . S
C465 O466 1.273 1_455 S
O466 C465 1.273 1_655 S
O467 Zn458 1.977 . S
O467 C460 1.267 . S
C70 C5 0.853 1_565 S
C44 C18 0.853 1_455 S
C31 C57 0.854 . S
C83 C148 0.853 1_565 S
C96 C122 0.853 1_455 S
C135 C109 0.854 . S
C161 C226 0.853 . S
C174 C200 0.853 . S
C213 C187 0.854 . S
C304 C239 0.853 . S
C278 C252 0.853 . S
C265 C291 0.854 . S
C382 C317 0.853 . S
C356 C330 0.853 . S
C343 C369 0.854 . S
C460 C395 0.853 . S
C434 C408 0.853 . S
C447 C421 0.854 . S
C216 C8 2.777 . S
C229 C21 2.777 . S
C203 C34 2.776 . S
C47 C346 2.777 . S
C60 C320 2.776 . S
C73 C333 2.777 . S
C86 C450 2.777 . S
C463 C99 2.777 . S
C437 C112 2.776 . S
C268 C125 2.777 . S
C242 C138 2.776 . S
C151 C255 2.777 . S
C164 C372 2.776 1_455 S
C385 C177 2.776 . S
C359 C190 2.777 1_545 S
C281 C424 2.777 1_565 S
C398 C294 2.776 1_655 S
C307 C411 2.776 . S
C234 C0 1.439 . S
C247 C13 1.438 . S
C26 C260 1.438 . S
C39 C429 1.439 . S
C442 C52 1.438 . S
C455 C65 1.438 . S
C78 C312 1.439 . S
C91 C325 1.438 . S
C338 C104 1.438 . S
C117 C195 1.439 . S
C130 C208 1.438 . S
C221 C143 1.438 . S
C156 C390 1.439 1_455 S
C169 C403 1.438 . S
C416 C182 1.438 1_545 S
C351 C273 1.439 1_544 S
C286 C364 1.438 1_456 S
C299 C377 1.438 1_556 S
C361 C10 2.427 . S
C23 C374 2.427 . S
C387 C36 2.427 . S
C49 C166 2.427 . S
C179 C62 2.427 . S
C192 C75 2.427 . S
C88 C283 2.427 . S
C296 C101 2.427 . S
C114 C309 2.427 . S
C127 C400 2.427 . S
C140 C413 2.427 . S
C426 C153 2.427 . S
C205 C322 2.427 . S
C218 C335 2.427 1_545 S
C231 C348 2.427 1_655 S
C244 C439 2.427 . S
C257 C452 2.427 1_545 S
C465 C270 2.427 1_455 S
