# Generated by pormake.
# Topology umz, (4)-cn, num edge types: 1
# Building blocks:
#     Node 0, Type 0, BuildingBlock: UXUYUI_clean_sbu_0, # of connection points: 4
#     Node 1, Type 0, BuildingBlock: UXUYUI_clean_sbu_0, # of connection points: 4
#     Node 2, Type 0, BuildingBlock: UXUYUI_clean_sbu_0, # of connection points: 4
#     Node 3, Type 0, BuildingBlock: UXUYUI_clean_sbu_0, # of connection points: 4
#     Node 4, Type 0, BuildingBlock: UXUYUI_clean_sbu_0, # of connection points: 4
#     Node 5, Type 0, BuildingBlock: UXUYUI_clean_sbu_0, # of connection points: 4
#     Node 6, Type 0, BuildingBlock: UXUYUI_clean_sbu_0, # of connection points: 4
#     Node 7, Type 0, BuildingBlock: UXUYUI_clean_sbu_0, # of connection points: 4
#     Node 8, Type 0, BuildingBlock: UXUYUI_clean_sbu_0, # of connection points: 4
#     Node 9, Type 0, BuildingBlock: UXUYUI_clean_sbu_0, # of connection points: 4
#     Node 10, Type 0, BuildingBlock: UXUYUI_clean_sbu_0, # of connection points: 4
#     Node 11, Type 0, BuildingBlock: UXUYUI_clean_sbu_0, # of connection points: 4
#     Node 12, Type 0, BuildingBlock: UXUYUI_clean_sbu_0, # of connection points: 4
#     Node 13, Type 0, BuildingBlock: UXUYUI_clean_sbu_0, # of connection points: 4
#     Node 14, Type 0, BuildingBlock: UXUYUI_clean_sbu_0, # of connection points: 4
#     Node 15, Type 0, BuildingBlock: UXUYUI_clean_sbu_0, # of connection points: 4
#     Edge 16, Type (0, 0), BuildingBlock: ZUJKAS_clean_linker_0, # of connection points: 2
#     Edge 17, Type (0, 0), BuildingBlock: ZUJKAS_clean_linker_0, # of connection points: 2
#     Edge 18, Type (0, 0), BuildingBlock: ZUJKAS_clean_linker_0, # of connection points: 2
#     Edge 19, Type (0, 0), BuildingBlock: ZUJKAS_clean_linker_0, # of connection points: 2
#     Edge 20, Type (0, 0), BuildingBlock: ZUJKAS_clean_linker_0, # of connection points: 2
#     Edge 21, Type (0, 0), BuildingBlock: ZUJKAS_clean_linker_0, # of connection points: 2
#     Edge 22, Type (0, 0), BuildingBlock: ZUJKAS_clean_linker_0, # of connection points: 2
#     Edge 23, Type (0, 0), BuildingBlock: ZUJKAS_clean_linker_0, # of connection points: 2
#     Edge 24, Type (0, 0), BuildingBlock: ZUJKAS_clean_linker_0, # of connection points: 2
#     Edge 25, Type (0, 0), BuildingBlock: ZUJKAS_clean_linker_0, # of connection points: 2
#     Edge 26, Type (0, 0), BuildingBlock: ZUJKAS_clean_linker_0, # of connection points: 2
#     Edge 27, Type (0, 0), BuildingBlock: ZUJKAS_clean_linker_0, # of connection points: 2
#     Edge 28, Type (0, 0), BuildingBlock: ZUJKAS_clean_linker_0, # of connection points: 2
#     Edge 29, Type (0, 0), BuildingBlock: ZUJKAS_clean_linker_0, # of connection points: 2
#     Edge 30, Type (0, 0), BuildingBlock: ZUJKAS_clean_linker_0, # of connection points: 2
#     Edge 31, Type (0, 0), BuildingBlock: ZUJKAS_clean_linker_0, # of connection points: 2
#     Edge 32, Type (0, 0), BuildingBlock: ZUJKAS_clean_linker_0, # of connection points: 2
#     Edge 33, Type (0, 0), BuildingBlock: ZUJKAS_clean_linker_0, # of connection points: 2
#     Edge 34, Type (0, 0), BuildingBlock: ZUJKAS_clean_linker_0, # of connection points: 2
#     Edge 35, Type (0, 0), BuildingBlock: ZUJKAS_clean_linker_0, # of connection points: 2
#     Edge 36, Type (0, 0), BuildingBlock: ZUJKAS_clean_linker_0, # of connection points: 2
#     Edge 37, Type (0, 0), BuildingBlock: ZUJKAS_clean_linker_0, # of connection points: 2
#     Edge 38, Type (0, 0), BuildingBlock: ZUJKAS_clean_linker_0, # of connection points: 2
#     Edge 39, Type (0, 0), BuildingBlock: ZUJKAS_clean_linker_0, # of connection points: 2
#     Edge 40, Type (0, 0), BuildingBlock: ZUJKAS_clean_linker_0, # of connection points: 2
#     Edge 41, Type (0, 0), BuildingBlock: ZUJKAS_clean_linker_0, # of connection points: 2
#     Edge 42, Type (0, 0), BuildingBlock: ZUJKAS_clean_linker_0, # of connection points: 2
#     Edge 43, Type (0, 0), BuildingBlock: ZUJKAS_clean_linker_0, # of connection points: 2
#     Edge 44, Type (0, 0), BuildingBlock: ZUJKAS_clean_linker_0, # of connection points: 2
#     Edge 45, Type (0, 0), BuildingBlock: ZUJKAS_clean_linker_0, # of connection points: 2
#     Edge 46, Type (0, 0), BuildingBlock: ZUJKAS_clean_linker_0, # of connection points: 2
#     Edge 47, Type (0, 0), BuildingBlock: ZUJKAS_clean_linker_0, # of connection points: 2
# Relax obj value: 0.340
# Max RMSD: 0.205
# Mean RMSD: 0.205
data_MOF--net-umz--node1-UXUYUI_clean_sbu_0--edge1-ZUJKAS_clean_linker_0
_symmetry_space_group_name_H-M    P1
_symmetry_Int_Tables_number       1
_symmetry_cell_setting            triclinic
loop_
_symmetry_equiv_pos_as_xyz
'x, y, z'
_cell_length_a     104.51224
_cell_length_b     104.50012
_cell_length_c     37.990646
_cell_angle_alpha  90.007636
_cell_angle_beta   90.002847
_cell_angle_gamma 89.999564
loop_
_atom_site_label
_atom_site_type_symbol
_atom_site_fract_x
_atom_site_fract_y
_atom_site_fract_z
_atom_type_partial_charge
Li0 Li 0.01278 0.63897 0.19284 0.0
Li1 Li 0.03296 0.646 0.2187 0.0
Li2 Li 0.0219 0.65876 0.17469 0.0
Li3 Li 0.03255 0.63891 0.15836 0.0
C4 C 0.01195 0.6658 0.2338 0.0
N5 N 0.00462 0.69013 0.25373 0.0
C6 C 0.02 0.67322 0.25489 0.0
C7 C 0.00015 0.67071 0.22295 0.0
C8 C 0.01612 0.68551 0.26469 0.0
C9 C 0.99663 0.68305 0.23326 0.0
C10 C 0.0326 0.62087 0.22636 0.0
C11 C 0.04969 0.61019 0.25738 0.0
N12 N 0.04112 0.6059 0.28157 0.0
C13 C 0.02396 0.61632 0.25152 0.0
C14 C 0.04557 0.61774 0.22923 0.0
C15 C 0.02846 0.60876 0.27921 0.0
C16 C 0.99724 0.61755 0.18679 0.0
N17 N 0.99767 0.62945 0.2011 0.0
C18 C 0.97695 0.62669 0.22649 0.0
C19 C 0.98786 0.63414 0.22067 0.0
C20 C 0.97623 0.61432 0.21201 0.0
C21 C 0.98653 0.60984 0.19166 0.0
H22 H 0.00526 0.61407 0.17155 0.0
H23 H 0.98855 0.6436 0.23203 0.0
C24 C 0.05566 0.64646 0.25925 0.0
N25 N 0.04271 0.64556 0.26084 0.0
C26 C 0.06309 0.6429 0.28812 0.0
C27 C 0.04366 0.63876 0.32077 0.0
C28 C 0.03661 0.64231 0.29114 0.0
C29 C 0.05707 0.63854 0.31891 0.0
H30 H 0.06025 0.64922 0.235 0.0
H31 H 0.02628 0.64162 0.29149 0.0
C32 C 0.00553 0.63944 0.1268 0.0
N33 N 0.98516 0.62738 0.09435 0.0
C34 C 0.00763 0.62879 0.1053 0.0
C35 C 0.99306 0.64399 0.13164 0.0
C36 C 0.99721 0.62283 0.08913 0.0
C37 C 0.9829 0.63774 0.11508 0.0
C38 C 0.05074 0.65621 0.15613 0.0
C39 C 0.05063 0.66552 0.12969 0.0
C40 C 0.06127 0.64801 0.15917 0.0
C41 C 0.06105 0.66648 0.1068 0.0
C42 C 0.07148 0.64926 0.13569 0.0
N43 N 0.07116 0.65839 0.11022 0.0
C44 C 0.02563 0.68559 0.16914 0.0
C45 C 0.00986 0.6767 0.1315 0.0
C46 C 0.02455 0.69744 0.15235 0.0
N47 N 0.01852 0.67549 0.15792 0.0
C48 C 0.00839 0.68835 0.11421 0.0
C49 C 0.01604 0.69881 0.12396 0.0
H50 H 0.03259 0.68427 0.18989 0.0
H51 H 0.00454 0.66847 0.12263 0.0
C52 C 0.04712 0.61887 0.12831 0.0
N53 N 0.04179 0.63051 0.12212 0.0
C54 C 0.05478 0.6131 0.10279 0.0
C55 C 0.05097 0.63123 0.06462 0.0
C56 C 0.04329 0.63659 0.09077 0.0
C57 C 0.05693 0.6194 0.07067 0.0
H58 H 0.04557 0.61415 0.15322 0.0
H59 H 0.03873 0.64575 0.08642 0.0
O60 O 0.01568 0.65385 0.22336 0.0
O61 O 0.02844 0.62856 0.19952 0.0
O62 O 0.01559 0.64529 0.14333 0.0
O63 O 0.04054 0.65498 0.1785 0.0
H64 H 0.02919 0.66958 0.26335 0.0
H65 H 0.99386 0.66511 0.20637 0.0
H66 H 0.02227 0.69139 0.28091 0.0
H67 H 0.98757 0.68701 0.22489 0.0
H68 H 0.05972 0.60782 0.26011 0.0
H69 H 0.01392 0.61874 0.25 0.0
H70 H 0.05243 0.62133 0.21034 0.0
H71 H 0.02188 0.60523 0.29894 0.0
H72 H 0.96932 0.63046 0.24271 0.0
H73 H 0.98632 0.60047 0.17951 0.0
H74 H 0.07342 0.64301 0.28592 0.0
H75 H 0.03868 0.63538 0.34398 0.0
H76 H 0.01718 0.62509 0.10134 0.0
H77 H 0.99123 0.65212 0.14855 0.0
H78 H -0.00131 0.61455 0.07253 0.0
H79 H 0.9732 0.6411 0.11884 0.0
H80 H 0.04253 0.67184 0.12651 0.0
H81 H 0.06142 0.64054 0.17883 0.0
H82 H 0.06105 0.67362 0.08617 0.0
H83 H 0.07962 0.6429 0.13756 0.0
H84 H 0.03058 0.7053 0.16068 0.0
H85 H 0.00189 0.68893 0.09207 0.0
H86 H 0.05923 0.60397 0.10848 0.0
H87 H 0.05223 0.63628 0.03996 0.0
Li88 Li 0.86026 0.01463 0.69564 0.0
Li89 Li 0.85175 0.03545 0.71298 0.0
Li90 Li 0.84205 0.02293 0.66595 0.0
Li91 Li 0.86266 0.03329 0.65725 0.0
C92 C 0.8311 0.01503 0.72256 0.0
N93 N 0.80565 0.00862 0.73109 0.0
C94 C 0.82258 0.02382 0.73735 0.0
C95 C 0.82671 0.00296 0.71224 0.0
C96 C 0.80974 0.0204 0.74143 0.0
C97 C 0.81379 -8e-05 0.71672 0.0
C98 C 0.87646 0.03588 0.73161 0.0
C99 C 0.88468 0.05439 0.76221 0.0
N100 N 0.88875 0.04669 0.7888 0.0
C101 C 0.88074 0.02816 0.75925 0.0
C102 C 0.87848 0.04911 0.73305 0.0
C103 C 0.88695 0.0338 0.78791 0.0
C104 C 0.88148 -0.00117 0.70467 0.0
N105 N 0.86882 -0.00014 0.71222 0.0
C106 C 0.86912 0.97991 0.74288 0.0
C107 C 0.86256 0.99073 0.73098 0.0
C108 C 0.88223 0.97858 0.73544 0.0
C109 C 0.88838 0.9882 0.71589 0.0
H110 H 0.88619 0.00631 0.68985 0.0
H111 H 0.85251 0.99188 0.73685 0.0
C112 C 0.84671 0.05908 0.7471 0.0
N113 N 0.84947 0.04651 0.75211 0.0
C114 C 0.84858 0.06783 0.77436 0.0
C115 C 0.85492 0.05033 0.81214 0.0
C116 C 0.85277 0.04192 0.78428 0.0
C117 C 0.85341 0.06357 0.80687 0.0
H118 H 0.84381 0.06242 0.72142 0.0
H119 H 0.85483 0.03184 0.78745 0.0
C120 C 0.86418 0.00539 0.6325 0.0
N121 N 0.87829 0.98432 0.61187 0.0
C122 C 0.87615 0.00701 0.61671 0.0
C123 C 0.85937 0.99305 0.63767 0.0
C124 C 0.88314 0.99623 0.60646 0.0
C125 C 0.86666 0.98252 0.62713 0.0
C126 C 0.84588 0.05118 0.64278 0.0
C127 C 0.83935 0.04976 0.61088 0.0
C128 C 0.853 0.06229 0.64894 0.0
C129 C 0.84006 0.05948 0.5857 0.0
C130 C 0.85351 0.07177 0.62304 0.0
N131 N 0.84708 0.07018 0.59223 0.0
C132 C 0.81645 0.02708 0.64545 0.0
C133 C 0.82646 0.00911 0.61917 0.0
C134 C 0.80576 0.02558 0.62382 0.0
N135 N 0.82661 0.01906 0.64214 0.0
C136 C 0.81592 0.00716 0.59733 0.0
C137 C 0.80554 0.01569 0.59871 0.0
H138 H 0.81695 0.03504 0.66363 0.0
H139 H 0.8347 0.00296 0.61682 0.0
C140 C 0.88305 0.04912 0.63345 0.0
N141 N 0.87295 0.0418 0.6234 0.0
C142 C 0.88923 0.05693 0.60898 0.0
C143 C 0.87497 0.0489 0.56398 0.0
C144 C 0.8691 0.04123 0.58928 0.0
C145 C 0.88496 0.05713 0.57393 0.0
H146 H 0.88602 0.04925 0.66063 0.0
H147 H 0.86111 0.03519 0.58205 0.0
O148 O 0.84362 0.01831 0.71757 0.0
O149 O 0.87018 0.03055 0.70356 0.0
O150 O 0.85729 0.01582 0.64325 0.0
O151 O 0.84559 0.04162 0.66743 0.0
H152 H 0.82582 0.03322 0.74529 0.0
H153 H 0.83316 0.9961 0.70041 0.0
H154 H 0.80302 0.02712 0.75271 0.0
H155 H 0.81024 0.99065 0.70864 0.0
H156 H 0.88616 0.06462 0.76383 0.0
H157 H 0.87918 0.01794 0.75885 0.0
H158 H 0.87503 0.05528 0.71228 0.0
H159 H 0.89027 0.02794 0.80953 0.0
H160 H 0.86405 0.9728 0.75821 0.0
H161 H 0.89842 0.98748 0.70907 0.0
H162 H 0.84692 0.0779 0.7694 0.0
H163 H 0.85871 0.04655 0.83653 0.0
H164 H 0.88008 0.01647 0.61269 0.0
H165 H 0.85022 0.99159 0.65038 0.0
H166 H 0.89243 0.99734 0.59433 0.0
H167 H 0.8631 0.97291 0.63126 0.0
H168 H 0.83398 0.04117 0.60527 0.0
H169 H 0.85832 0.06347 0.67313 0.0
H170 H 0.83511 0.05847 0.56086 0.0
H171 H 0.85908 0.08035 0.62736 0.0
H172 H 0.79807 0.03249 0.62557 0.0
H173 H 0.81608 -0.00073 0.57888 0.0
H174 H 0.89689 0.06314 0.61775 0.0
H175 H 0.87155 0.04859 0.53708 0.0
Li176 Li 0.47827 0.86239 0.18418 0.0
Li177 Li 0.45891 0.8536 0.21111 0.0
Li178 Li 0.46998 0.84248 0.16375 0.0
Li179 Li 0.45789 0.86198 0.15209 0.0
C180 C 0.4813 0.83491 0.22073 0.0
N181 N 0.49052 0.81081 0.23638 0.0
C182 C 0.47406 0.82657 0.24144 0.0
C183 C 0.49325 0.83105 0.20814 0.0
C184 C 0.47889 0.81441 0.24904 0.0
C185 C 0.49774 0.81881 0.21627 0.0
C186 C 0.45783 0.87879 0.22217 0.0
C187 C 0.44046 0.88741 0.25663 0.0
N188 N 0.44907 0.89268 0.27921 0.0
C189 C 0.46651 0.88433 0.24566 0.0
C190 C 0.44469 0.8804 0.22758 0.0
C191 C 0.46189 0.89132 0.27433 0.0
C192 C 0.49402 0.88408 0.17856 0.0
N193 N 0.4931 0.87228 0.19327 0.0
C194 C 0.51308 0.87505 0.22277 0.0
C195 C 0.5023 0.86766 0.21508 0.0
C196 C 0.5144 0.88728 0.20768 0.0
C197 C 0.50471 0.8917 0.18503 0.0
H198 H 0.48643 0.88758 0.1618 0.0
H199 H 0.50118 0.85833 0.22693 0.0
C200 C 0.4372 0.84951 0.25428 0.0
N201 N 0.44984 0.85253 0.2542 0.0
C202 C 0.42974 0.85212 0.28387 0.0
C203 C 0.4487 0.85977 0.31363 0.0
C204 C 0.4558 0.85692 0.28357 0.0
C205 C 0.43538 0.85792 0.31344 0.0
H206 H 0.43276 0.84581 0.23072 0.0
H207 H 0.46589 0.85921 0.28263 0.0
C208 C 0.4844 0.86356 0.11688 0.0
N209 N 0.50348 0.87706 0.08286 0.0
C210 C 0.48133 0.87424 0.09638 0.0
C211 C 0.49717 0.85971 0.11992 0.0
C212 C 0.49112 0.88094 0.0794 0.0
C213 C 0.50667 0.86668 0.10259 0.0
C214 C 0.44077 0.84356 0.14926 0.0
C215 C 0.44116 0.83514 0.12068 0.0
C216 C 0.42965 0.85062 0.15576 0.0
C217 C 0.43041 0.83393 0.09905 0.0
C218 C 0.41912 0.84918 0.13345 0.0
N219 N 0.41972 0.84093 0.1058 0.0
C220 C 0.46781 0.81565 0.15535 0.0
C221 C 0.48276 0.82584 0.11769 0.0
C222 C 0.46978 0.80397 0.1383 0.0
N223 N 0.47415 0.82629 0.14443 0.0
C224 C 0.48508 0.81438 0.10007 0.0
C225 C 0.47835 0.80332 0.10987 0.0
H226 H 0.4609 0.81635 0.17645 0.0
H227 H 0.48748 0.83448 0.10913 0.0
C228 C 0.44134 0.88157 0.12838 0.0
N229 N 0.44737 0.87059 0.1189 0.0
C230 C 0.43273 0.88741 0.10539 0.0
C231 C 0.43708 0.87078 0.06279 0.0
C232 C 0.44565 0.86529 0.08657 0.0
C233 C 0.43036 0.88191 0.07227 0.0
H234 H 0.44311 0.88574 0.15391 0.0
H235 H 0.45071 0.85663 0.07962 0.0
O236 O 0.47662 0.84674 0.21238 0.0
O237 O 0.46217 0.87168 0.19433 0.0
O238 O 0.47496 0.85694 0.13397 0.0
O239 O 0.45127 0.84503 0.17042 0.0
H240 H 0.46476 0.8294 0.25126 0.0
H241 H 0.49893 0.83738 0.19189 0.0
H242 H 0.47338 0.80782 0.26492 0.0
H243 H 0.50694 0.81565 0.20652 0.0
H244 H 0.43032 0.8886 0.26136 0.0
H245 H 0.47671 0.88314 0.24205 0.0
H246 H 0.43782 0.87605 0.20995 0.0
H247 H 0.4685 0.8956 0.2928 0.0
H248 H 0.52012 0.87132 0.24095 0.0
H249 H 0.50536 0.90095 0.17233 0.0
H250 H 0.41955 0.85024 0.2829 0.0
H251 H 0.45347 0.86431 0.33563 0.0
H252 H 0.47152 0.87738 0.09378 0.0
H253 H 0.49973 0.85156 0.13599 0.0
H254 H 0.48889 0.88924 0.06355 0.0
H255 H 0.5166 0.86387 0.10494 0.0
H256 H 0.4497 0.8297 0.11494 0.0
H257 H 0.42923 0.85735 0.17736 0.0
H258 H 0.4306 0.82749 0.07678 0.0
H259 H 0.4105 0.85467 0.138 0.0
H260 H 0.46445 0.79563 0.14673 0.0
H261 H 0.4916 0.81434 0.07793 0.0
H262 H 0.42801 0.89616 0.11345 0.0
H263 H 0.4355 0.86616 0.03764 0.0
Li264 Li 0.63675 0.4795 0.6884 0.0
Li265 Li 0.64505 0.4597 0.71385 0.0
Li266 Li 0.65673 0.47132 0.66859 0.0
Li267 Li 0.6372 0.45966 0.65414 0.0
C268 C 0.66397 0.48153 0.72748 0.0
N269 N 0.68812 0.48982 0.74614 0.0
C270 C 0.67174 0.47391 0.74883 0.0
C271 C 0.66844 0.49339 0.71576 0.0
C272 C 0.68393 0.47827 0.75796 0.0
C273 C 0.6807 0.4974 0.72542 0.0
C274 C 0.61971 0.45863 0.72276 0.0
C275 C 0.61064 0.44075 0.75433 0.0
N276 N 0.60497 0.44903 0.77711 0.0
C277 C 0.61377 0.46695 0.74648 0.0
C278 C 0.61811 0.44541 0.72665 0.0
C279 C 0.60635 0.46191 0.77375 0.0
C280 C 0.61474 0.49458 0.68441 0.0
N281 N 0.62684 0.49431 0.69744 0.0
C282 C 0.62426 0.51514 0.7223 0.0
C283 C 0.6317 0.50426 0.71618 0.0
C284 C 0.61172 0.51572 0.70902 0.0
C285 C 0.60701 0.50526 0.68971 0.0
H286 H 0.61113 0.48647 0.66976 0.0
H287 H 0.64132 0.50372 0.7265 0.0
C288 C 0.64941 0.43728 0.75358 0.0
N289 N 0.64575 0.44973 0.75553 0.0
C290 C 0.64668 0.42893 0.78122 0.0
C291 C 0.63755 0.44666 0.81349 0.0
C292 C 0.64058 0.45468 0.78537 0.0
C293 C 0.64006 0.43347 0.81092 0.0
H294 H 0.65375 0.43367 0.72979 0.0
H295 H 0.63784 0.46466 0.78614 0.0
C296 C 0.63617 0.48669 0.62233 0.0
N297 N 0.62287 0.50652 0.59112 0.0
C298 C 0.62522 0.48415 0.60241 0.0
C299 C 0.6404 0.4993 0.62623 0.0
C300 C 0.61863 0.49432 0.58685 0.0
C301 C 0.63353 0.5092 0.61032 0.0
C302 C 0.6554 0.44247 0.6503 0.0
C303 C 0.6638 0.44342 0.62178 0.0
C304 C 0.64837 0.43123 0.65522 0.0
C305 C 0.66502 0.43309 0.59864 0.0
C306 C 0.64982 0.42114 0.63144 0.0
N307 N 0.65805 0.42227 0.60388 0.0
C308 C 0.68351 0.46866 0.66228 0.0
C309 C 0.67408 0.48394 0.62411 0.0
C310 C 0.69535 0.47023 0.64586 0.0
N311 N 0.67316 0.47534 0.65078 0.0
C312 C 0.68573 0.48586 0.60708 0.0
C313 C 0.69648 0.47873 0.61738 0.0
H314 H 0.68243 0.46173 0.68323 0.0
H315 H 0.66565 0.4889 0.61502 0.0
C316 C 0.61823 0.44296 0.62724 0.0
N317 N 0.62891 0.44973 0.61901 0.0
C318 C 0.61282 0.43465 0.60266 0.0
C319 C 0.62917 0.44091 0.56103 0.0
C320 C 0.63427 0.44908 0.58647 0.0
C321 C 0.61842 0.43341 0.56923 0.0
H322 H 0.614 0.44387 0.65301 0.0
H323 H 0.64271 0.45468 0.58061 0.0
O324 O 0.6521 0.47732 0.71771 0.0
O325 O 0.62717 0.46338 0.69616 0.0
O326 O 0.64264 0.47689 0.63829 0.0
O327 O 0.65387 0.45258 0.67285 0.0
H328 H 0.66843 0.46468 0.75801 0.0
H329 H 0.66257 0.49936 0.69896 0.0
H330 H 0.69008 0.47245 0.77436 0.0
H331 H 0.68432 0.50652 0.71635 0.0
H332 H 0.60945 0.43055 0.75786 0.0
H333 H 0.61497 0.47719 0.74413 0.0
H334 H 0.6228 0.4388 0.70896 0.0
H335 H 0.60174 0.46825 0.79236 0.0
H336 H 0.62821 0.52291 0.73774 0.0
H337 H 0.59748 0.50535 0.67854 0.0
H338 H 0.64912 0.41891 0.77853 0.0
H339 H 0.63239 0.45062 0.83568 0.0
H340 H 0.62176 0.47447 0.59926 0.0
H341 H 0.64877 0.50146 0.64193 0.0
H342 H 0.6101 0.4925 0.57148 0.0
H343 H 0.63663 0.51901 0.61337 0.0
H344 H 0.66921 0.45207 0.6172 0.0
H345 H 0.64166 0.43039 0.67677 0.0
H346 H 0.67145 0.43372 0.5764 0.0
H347 H 0.64435 0.41243 0.63478 0.0
H348 H 0.70344 0.4646 0.65467 0.0
H349 H 0.68613 0.49234 0.58487 0.0
H350 H 0.60436 0.42925 0.60976 0.0
H351 H 0.63381 0.44021 0.53562 0.0
Li352 Li 0.02336 0.84058 0.82585 0.0
Li353 Li 0.03472 0.85993 0.84296 0.0
Li354 Li 0.01376 0.86079 0.81398 0.0
Li355 Li 0.03293 0.85444 0.7816 0.0
C356 C 0.00907 0.85886 0.88182 0.0
N357 N 0.99048 0.87037 0.92281 0.0
C358 C 0.01237 0.86864 0.90526 0.0
C359 C 0.99631 0.85491 0.87936 0.0
C360 C 0.00283 0.87433 0.92575 0.0
C361 C 0.98706 0.86086 0.90024 0.0
C362 C 0.0529 0.84266 0.83616 0.0
C363 C 0.07444 0.84915 0.85055 0.0
N364 N 0.07521 0.83944 0.87429 0.0
C365 C 0.05391 0.83275 0.86072 0.0
C366 C 0.06327 0.85092 0.83098 0.0
C367 C 0.06527 0.83127 0.8797 0.0
C368 C 0.02713 0.81355 0.82723 0.0
N369 N 0.02019 0.8235 0.84023 0.0
C370 C 0.0099 0.80983 0.88173 0.0
C371 C 0.01156 0.82181 0.8665 0.0
C372 C 0.01735 0.79949 0.87012 0.0
C373 C 0.0259 0.80137 0.84204 0.0
H374 H 0.03403 0.81522 0.8065 0.0
H375 H 0.00633 0.82989 0.87671 0.0
C376 C 0.05019 0.87932 0.87287 0.0
N377 N 0.04537 0.86738 0.87783 0.0
C378 C 0.05869 0.88454 0.89728 0.0
C379 C 0.05688 0.86516 0.93177 0.0
C380 C 0.04828 0.8604 0.90693 0.0
C381 C 0.06226 0.87734 0.92689 0.0
H382 H 0.04752 0.88475 0.84983 0.0
H383 H 0.04408 0.85104 0.91051 0.0
C384 C 0.01155 0.83499 0.76844 0.0
N385 N 0.00378 0.81106 0.74622 0.0
C386 C 0.01908 0.82804 0.7448 0.0
C387 C 5e-05 0.82981 0.7807 0.0
C388 C 0.01498 0.81595 0.73387 0.0
C389 C 0.99631 0.81768 0.76919 0.0
C390 C 0.0325 0.8799 0.77963 0.0
C391 C 0.02306 0.88555 0.75869 0.0
C392 C 0.04537 0.8829 0.7738 0.0
C393 C 0.02667 0.89405 0.7321 0.0
C394 C 0.04858 0.89141 0.74686 0.0
N395 N 0.03924 0.89677 0.72675 0.0
C396 C 0.99775 0.88155 0.8288 0.0
C397 C 0.9884 0.86596 0.79146 0.0
C398 C 0.98664 0.88891 0.82773 0.0
N399 N 0.99837 0.87029 0.81106 0.0
C400 C 0.97713 0.8731 0.78929 0.0
C401 C 0.97615 0.88476 0.80755 0.0
H402 H 0.00591 0.88479 0.8439 0.0
H403 H 0.98925 0.85705 0.77722 0.0
C404 C 0.05398 0.85422 0.73448 0.0
N405 N 0.04115 0.85603 0.73727 0.0
C406 C 0.06051 0.85854 0.70474 0.0
C407 C 0.04032 0.86547 0.68015 0.0
C408 C 0.03418 0.86097 0.7103 0.0
C409 C 0.05372 0.86475 0.67779 0.0
H410 H 0.05924 0.85012 0.75615 0.0
H411 H 0.02397 0.86224 0.71329 0.0
O412 O 0.01826 0.85325 0.86125 0.0
O413 O 0.04178 0.84438 0.81768 0.0
O414 O 0.01555 0.8467 0.78009 0.0
O415 O 0.02918 0.87133 0.80532 0.0
H416 H 0.02215 0.87187 0.90751 0.0
H417 H 0.99352 0.84752 0.86094 0.0
H418 H 0.00525 0.88193 0.94391 0.0
H419 H 0.97714 0.85797 0.89836 0.0
H420 H 0.08248 0.85554 0.84701 0.0
H421 H 0.04597 0.82636 0.86551 0.0
H422 H 0.0626 0.8588 0.81265 0.0
H423 H 0.06616 0.82367 0.89887 0.0
H424 H 0.00338 0.80885 0.90372 0.0
H425 H 0.0318 0.79361 0.83237 0.0
H426 H 0.06263 0.89397 0.89268 0.0
H427 H 0.05924 0.85943 0.9546 0.0
H428 H 0.02803 0.8319 0.73524 0.0
H429 H 0.99419 0.83502 0.79931 0.0
H430 H 0.02072 0.81044 0.71568 0.0
H431 H 0.98748 0.8135 0.77862 0.0
H432 H 0.01307 0.88329 0.7626 0.0
H433 H 0.05281 0.87853 0.78948 0.0
H434 H 0.01946 0.89844 0.71559 0.0
H435 H 0.05851 0.89371 0.74182 0.0
H436 H 0.98629 0.89773 0.84264 0.0
H437 H 0.9694 0.86963 0.7729 0.0
H438 H 0.07084 0.85782 0.70401 0.0
H439 H 0.03472 0.87002 0.65968 0.0
Li440 Li 0.65753 0.0233 0.32618 0.0
Li441 Li 0.63828 0.03288 0.35091 0.0
Li442 Li 0.63736 0.01372 0.31372 0.0
Li443 Li 0.6425 0.0347 0.28872 0.0
C444 C 0.64126 0.00542 0.37867 0.0
N445 N 0.63182 0.98428 0.41383 0.0
C446 C 0.63222 0.00694 0.40548 0.0
C447 C 0.64554 0.99315 0.36987 0.0
C448 C 0.62757 0.99613 0.42292 0.0
C449 C 0.64063 0.98258 0.38789 0.0
C450 C 0.65483 0.05183 0.34917 0.0
C451 C 0.64832 0.07233 0.37232 0.0
N452 N 0.65817 0.07191 0.39569 0.0
C453 C 0.66488 0.0516 0.37345 0.0
C454 C 0.64649 0.0623 0.34855 0.0
C455 C 0.66642 0.06185 0.3967 0.0
C456 C 0.68403 0.02875 0.32448 0.0
N457 N 0.67506 0.02024 0.33561 0.0
C458 C 0.6907 0.00857 0.36814 0.0
C459 C 0.67818 0.01015 0.35641 0.0
C460 C 0.70004 0.01759 0.35874 0.0
C461 C 0.69668 0.02763 0.33596 0.0
H462 H 0.68122 0.03674 0.30811 0.0
H463 H 0.67084 0.00364 0.36519 0.0
C464 C 0.61934 0.0467 0.38745 0.0
N465 N 0.63121 0.04152 0.39036 0.0
C466 C 0.61453 0.0545 0.41412 0.0
C467 C 0.63403 0.051 0.44704 0.0
C468 C 0.63842 0.04318 0.4198 0.0
C469 C 0.62203 0.05694 0.44405 0.0
H470 H 0.61373 0.04505 0.36405 0.0
H471 H 0.64775 0.03875 0.42159 0.0
C472 C 0.66204 0.01474 0.26385 0.0
N473 N 0.68553 0.00863 0.23514 0.0
C474 C 0.66853 0.02364 0.24302 0.0
C475 C 0.66745 0.00271 0.26999 0.0
C476 C 0.68041 0.02037 0.22874 0.0
C477 C 0.67935 -0.00018 0.25528 0.0
C478 C 0.61705 0.03347 0.29035 0.0
C479 C 0.61072 0.02497 0.26788 0.0
C480 C 0.61403 0.0465 0.28922 0.0
C481 C 0.60154 0.02967 0.24448 0.0
C482 C 0.60482 0.05083 0.26536 0.0
N483 N 0.59882 0.04239 0.24368 0.0
C484 C 0.61784 0.99577 0.32572 0.0
C485 C 0.6316 0.99066 0.27808 0.0
C486 C 0.61055 0.98483 0.31949 0.0
N487 N 0.62819 0.99839 0.30528 0.0
C488 C 0.62442 0.97974 0.27046 0.0
C489 C 0.61376 0.97675 0.29135 0.0
H490 H 0.61515 0.00229 0.34655 0.0
H491 H 0.63974 0.99312 0.26189 0.0
C492 C 0.64276 0.05796 0.25045 0.0
N493 N 0.64006 0.04527 0.24871 0.0
C494 C 0.63844 0.06621 0.22414 0.0
C495 C 0.62952 0.04799 0.19352 0.0
C496 C 0.6341 0.0401 0.2203 0.0
C497 C 0.63128 0.0613 0.19587 0.0
H498 H 0.64778 0.06177 0.27297 0.0
H499 H 0.63216 0.02993 0.21961 0.0
O500 O 0.64588 0.01589 0.36114 0.0
O501 O 0.65302 0.04178 0.32658 0.0
O502 O 0.65058 0.01788 0.2788 0.0
O503 O 0.62625 0.02908 0.31302 0.0
H504 H 0.62878 0.01634 0.41263 0.0
H505 H 0.65239 0.99177 0.34885 0.0
H506 H 0.62054 0.99716 0.44365 0.0
H507 H 0.64377 0.97303 0.38115 0.0
H508 H 0.64187 0.08043 0.37232 0.0
H509 H 0.67132 0.04353 0.37479 0.0
H510 H 0.63852 0.06256 0.33041 0.0
H511 H 0.67412 0.06177 0.41571 0.0
H512 H 0.69287 0.00082 0.38608 0.0
H513 H 0.70364 0.03476 0.32811 0.0
H514 H 0.60524 0.05892 0.41075 0.0
H515 H 0.64 0.05248 0.46998 0.0
H516 H 0.66449 0.03302 0.23821 0.0
H517 H 0.66258 0.99576 0.28631 0.0
H518 H 0.68557 0.02718 0.21268 0.0
H519 H 0.6837 0.99058 0.25997 0.0
H520 H 0.61295 0.01487 0.26821 0.0
H521 H 0.61891 0.05325 0.3061 0.0
H522 H 0.59662 0.0232 0.22685 0.0
H523 H 0.6025 0.0609 0.26396 0.0
H524 H 0.60224 0.98294 0.33572 0.0
H525 H 0.62711 0.97373 0.24843 0.0
H526 H 0.6403 0.07637 0.22654 0.0
H527 H 0.62398 0.04377 0.17242 0.0
Li528 Li 0.47333 0.65523 0.82885 0.0
Li529 Li 0.46256 0.63539 0.84499 0.0
Li530 Li 0.48183 0.63548 0.80839 0.0
Li531 Li 0.46139 0.64306 0.78521 0.0
C532 C 0.49005 0.63515 0.87331 0.0
N533 N 0.5107 0.62228 0.90174 0.0
C534 C 0.48812 0.62409 0.89327 0.0
C535 C 0.50248 0.63971 0.86796 0.0
C536 C 0.49869 0.61771 0.90742 0.0
C537 C 0.5128 0.63305 0.88248 0.0
C538 C 0.44479 0.6531 0.85038 0.0
C539 C 0.42406 0.64674 0.87223 0.0
N540 N 0.42515 0.65544 0.89869 0.0
C541 C 0.44569 0.66198 0.87782 0.0
C542 C 0.43387 0.64543 0.84752 0.0
C543 C 0.43565 0.66302 0.90193 0.0
C544 C 0.47013 0.68199 0.83455 0.0
N545 N 0.47717 0.67184 0.84577 0.0
C546 C 0.48811 0.68488 0.88761 0.0
C547 C 0.48614 0.67308 0.87139 0.0
C548 C 0.48066 0.69545 0.87757 0.0
C549 C 0.47174 0.69397 0.85018 0.0
H550 H 0.46293 0.68065 0.81444 0.0
H551 H 0.49141 0.66481 0.88026 0.0
C552 C 0.44743 0.61564 0.87417 0.0
N553 N 0.45348 0.62684 0.88133 0.0
C554 C 0.4395 0.61002 0.89929 0.0
C555 C 0.4447 0.62724 0.93934 0.0
C556 C 0.45257 0.6325 0.91344 0.0
C557 C 0.43784 0.61597 0.93214 0.0
H558 H 0.44859 0.61117 0.84876 0.0
H559 H 0.45763 0.64134 0.91847 0.0
C560 C 0.4824 0.6626 0.76859 0.0
N561 N 0.48967 0.68691 0.74827 0.0
C562 C 0.47424 0.67005 0.74788 0.0
C563 C 0.49428 0.66747 0.77884 0.0
C564 C 0.47809 0.68232 0.73788 0.0
C565 C 0.49777 0.6798 0.76836 0.0
C566 C 0.46105 0.61784 0.77638 0.0
C567 C 0.46917 0.61267 0.75081 0.0
C568 C 0.44789 0.61546 0.77454 0.0
C569 C 0.46398 0.60524 0.72378 0.0
C570 C 0.44308 0.60801 0.74702 0.0
N571 N 0.45115 0.60309 0.72243 0.0
C572 C 0.49734 0.61375 0.80952 0.0
C573 C 0.50621 0.63107 0.77742 0.0
C574 C 0.50786 0.6061 0.80159 0.0
N575 N 0.49671 0.62596 0.79738 0.0
C576 C 0.51693 0.62374 0.76877 0.0
C577 C 0.51779 0.61104 0.78068 0.0
H578 H 0.48958 0.60994 0.82517 0.0
H579 H 0.50537 0.64077 0.76783 0.0
C580 C 0.43813 0.64531 0.7476 0.0
N581 N 0.4509 0.64319 0.74445 0.0
C582 C 0.42988 0.64194 0.72026 0.0
C583 C 0.44823 0.63548 0.6858 0.0
C584 C 0.45612 0.639 0.71379 0.0
C585 C 0.43489 0.6364 0.68951 0.0
H586 H 0.43427 0.64886 0.77207 0.0
H587 H 0.46633 0.63741 0.71215 0.0
O588 O 0.47985 0.6414 0.85869 0.0
O589 O 0.45463 0.65177 0.82683 0.0
O590 O 0.47869 0.65066 0.77917 0.0
O591 O 0.46592 0.62537 0.8027 0.0
H592 H 0.47859 0.62038 0.89756 0.0
H593 H 0.50416 0.64818 0.85222 0.0
H594 H 0.49735 0.60911 0.9228 0.0
H595 H 0.52247 0.63641 0.87831 0.0
H596 H 0.41562 0.64078 0.8705 0.0
H597 H 0.4541 0.66789 0.8808 0.0
H598 H 0.43309 0.63833 0.82693 0.0
H599 H 0.43625 0.66982 0.92335 0.0
H600 H 0.49493 0.68556 0.90899 0.0
H601 H 0.46585 0.70191 0.84158 0.0
H602 H 0.43464 0.60116 0.89297 0.0
H603 H 0.44368 0.63217 0.96425 0.0
H604 H 0.46498 0.66644 0.73984 0.0
H605 H 0.50066 0.66187 0.79515 0.0
H606 H 0.47186 0.68822 0.72196 0.0
H607 H 0.5069 0.68374 0.77629 0.0
H608 H 0.47934 0.61451 0.75151 0.0
H609 H 0.44143 0.61955 0.7937 0.0
H610 H 0.47015 0.60123 0.70375 0.0
H611 H 0.43291 0.60622 0.74507 0.0
H612 H 0.50821 0.59642 0.81171 0.0
H613 H 0.5243 0.62786 0.75224 0.0
H614 H 0.41966 0.64306 0.72386 0.0
H615 H 0.45251 0.63117 0.66269 0.0
Li616 Li 0.84307 0.47022 0.32833 0.0
Li617 Li 0.8633 0.45954 0.34077 0.0
Li618 Li 0.86234 0.47938 0.30653 0.0
Li619 Li 0.85476 0.45919 0.28186 0.0
C620 C 0.86363 0.48656 0.37236 0.0
N621 N 0.87668 0.50688 0.40199 0.0
C622 C 0.87499 0.48444 0.39087 0.0
C623 C 0.85887 0.49901 0.36905 0.0
C624 C 0.88144 0.49485 0.40566 0.0
C625 C 0.86562 0.50916 0.38415 0.0
C626 C 0.84596 0.4415 0.34635 0.0
C627 C 0.8529 0.42058 0.3653 0.0
N628 N 0.84479 0.4213 0.39322 0.0
C629 C 0.8377 0.44202 0.37524 0.0
C630 C 0.85362 0.43067 0.34128 0.0
C631 C 0.83723 0.43171 0.3986 0.0
C632 C 0.81638 0.46675 0.33732 0.0
N633 N 0.82673 0.47366 0.34776 0.0
C634 C 0.81438 0.48437 0.39159 0.0
C635 C 0.82592 0.48241 0.37408 0.0
C636 C 0.80361 0.47712 0.38217 0.0
C637 C 0.80464 0.46834 0.35429 0.0
H638 H 0.81737 0.45973 0.31658 0.0
H639 H 0.83435 0.48757 0.38232 0.0
C640 C 0.88314 0.44348 0.36638 0.0
N641 N 0.87238 0.45002 0.37528 0.0
C642 C 0.88888 0.43524 0.39055 0.0
C643 C 0.87274 0.44116 0.43318 0.0
C644 C 0.86731 0.44926 0.40814 0.0
C645 C 0.88354 0.43383 0.42426 0.0
H646 H 0.88712 0.44446 0.34033 0.0
H647 H 0.85878 0.45465 0.41449 0.0
C648 C 0.83458 0.47998 0.27009 0.0
N649 N 0.80981 0.48695 0.25353 0.0
C650 C 0.82698 0.47194 0.24944 0.0
C651 C 0.82962 0.4916 0.2822 0.0
C652 C 0.81448 0.47564 0.24136 0.0
C653 C 0.81706 0.49494 0.2736 0.0
C654 C 0.87991 0.45949 0.27028 0.0
C655 C 0.88474 0.46816 0.24559 0.0
C656 C 0.8824 0.44642 0.26627 0.0
C657 C 0.89196 0.4636 0.21727 0.0
C658 C 0.88962 0.44223 0.23754 0.0
N659 N 0.89422 0.45084 0.21385 0.0
C660 C 0.88356 0.4957 0.3074 0.0
C661 C 0.86549 0.50426 0.27789 0.0
C662 C 0.89059 0.50675 0.30042 0.0
N663 N 0.87127 0.4947 0.2962 0.0
C664 C 0.87218 0.51548 0.27022 0.0
C665 C 0.88493 0.5168 0.2814 0.0
H666 H 0.88791 0.48788 0.32173 0.0
H667 H 0.85574 0.50312 0.26899 0.0
C668 C 0.85242 0.43654 0.24159 0.0
N669 N 0.85425 0.44939 0.23984 0.0
C670 C 0.85583 0.42879 0.2132 0.0
C671 C 0.86164 0.4478 0.18061 0.0
C672 C 0.85808 0.45518 0.20961 0.0
C673 C 0.86114 0.43439 0.18289 0.0
H674 H 0.84916 0.43223 0.26578 0.0
H675 H 0.85945 0.46544 0.20911 0.0
O676 O 0.85728 0.47652 0.35717 0.0
O677 O 0.84676 0.45162 0.32356 0.0
O678 O 0.84676 0.47642 0.27884 0.0
O679 O 0.87265 0.46376 0.29789 0.0
H680 H 0.87886 0.4749 0.39353 0.0
H681 H 0.85019 0.50085 0.35438 0.0
H682 H 0.89027 0.49335 0.41994 0.0
H683 H 0.86211 0.51885 0.38153 0.0
H684 H 0.85887 0.41221 0.36188 0.0
H685 H 0.83181 0.45036 0.37992 0.0
H686 H 0.86027 0.43019 0.31953 0.0
H687 H 0.83091 0.43201 0.42114 0.0
H688 H 0.81406 0.49106 0.41334 0.0
H689 H 0.79652 0.4626 0.34617 0.0
H690 H 0.89735 0.42996 0.38288 0.0
H691 H 0.86829 0.44031 0.45881 0.0
H692 H 0.83067 0.46289 0.23999 0.0
H693 H 0.83533 0.49787 0.29852 0.0
H694 H 0.80847 0.46949 0.2255 0.0
H695 H 0.81305 0.50385 0.28299 0.0
H696 H 0.88283 0.47829 0.24797 0.0
H697 H 0.87854 0.43953 0.28465 0.0
H698 H 0.89571 0.4702 0.19792 0.0
H699 H 0.8915 0.43214 0.23393 0.0
H700 H 0.90033 0.50741 0.30994 0.0
H701 H 0.86752 0.52292 0.25508 0.0
H702 H 0.85502 0.4185 0.21571 0.0
H703 H 0.86574 0.45253 0.15789 0.0
Li704 Li 0.97035 0.35564 0.84763 0.0
Li705 Li 0.9802 0.33592 0.82632 0.0
Li706 Li 0.98859 0.35652 0.80899 0.0
Li707 Li 0.96806 0.34887 0.78656 0.0
C708 C 0.98869 0.35126 0.89195 0.0
N709 N 0.98909 0.35544 0.96376 0.0
C710 C 0.98617 0.34121 0.91521 0.0
C711 C 0.99144 0.36343 0.90521 0.0
C712 C 0.98642 0.34352 0.95142 0.0
C713 C 0.99157 0.36536 0.9416 0.0
C714 C 0.95 0.33599 0.82017 0.0
C715 C 0.93626 0.32219 0.78614 0.0
N716 N 0.92585 0.32842 0.79913 0.0
C717 C 0.93918 0.34223 0.83333 0.0
C718 C 0.94854 0.32585 0.79653 0.0
C719 C 0.92705 0.33827 0.82232 0.0
C720 C 0.95875 0.37612 0.88398 0.0
N721 N 0.96125 0.36337 0.88519 0.0
C722 C 0.94848 0.36104 0.93692 0.0
C723 C 0.9564 0.35582 0.91107 0.0
C724 C 0.94546 0.37414 0.93587 0.0
C725 C 0.95089 0.38174 0.90927 0.0
H726 H 0.96256 0.38186 0.86281 0.0
H727 H 0.95833 0.34565 0.91087 0.0
C728 C 0.99792 0.31811 0.84978 0.0
N729 N 0.98539 0.31949 0.84108 0.0
C730 C 0.00203 0.30724 0.86776 0.0
C731 C 0.98034 0.2992 0.86616 0.0
C732 C 0.97665 0.31023 0.84814 0.0
C733 C 0.99311 0.29781 0.87719 0.0
H734 H 0.00458 0.32581 0.84461 0.0
H735 H 0.96669 0.31176 0.84176 0.0
C736 C 0.97618 0.37739 0.79111 0.0
N737 N 0.98511 0.39991 0.76192 0.0
C738 C 0.9741 0.38001 0.75548 0.0
C739 C 0.98274 0.38626 0.81193 0.0
C740 C 0.97869 0.39145 0.74123 0.0
C741 C 0.98721 0.39757 0.79666 0.0
C742 C 0.99211 0.33144 0.76687 0.0
C743 C 0.00543 0.33156 0.77017 0.0
C744 C 0.986 0.32071 0.75279 0.0
C745 C 0.01242 0.32082 0.75967 0.0
C746 C 0.99333 0.31016 0.74261 0.0
N747 N 0.00628 0.31043 0.74626 0.0
C748 C 0.01284 0.36762 0.82147 0.0
C749 C 0.00537 0.36886 0.7626 0.0
C750 C 0.02405 0.37406 0.81237 0.0
N751 N 0.00375 0.3653 0.79671 0.0
C752 C 0.01634 0.37548 0.75244 0.0
C753 C 0.02582 0.37818 0.77753 0.0
H754 H 0.01138 0.36445 0.84825 0.0
H755 H 0.99809 0.3666 0.74336 0.0
C756 C 0.94598 0.3572 0.75433 0.0
N757 N 0.9567 0.35023 0.74811 0.0
C758 C 0.93812 0.36089 0.7266 0.0
C759 C 0.9524 0.35002 0.68638 0.0
C760 C 0.95993 0.34637 0.71512 0.0
C761 C 0.94154 0.35773 0.69192 0.0
H762 H 0.94391 0.36049 0.78069 0.0
H763 H 0.96871 0.34111 0.71093 0.0
O764 O 0.98824 0.34927 0.85637 0.0
O765 O 0.96196 0.33981 0.83035 0.0
O766 O 0.97197 0.36614 0.80545 0.0
O767 O 0.98508 0.34177 0.77751 0.0
H768 H 0.98388 0.33176 0.90548 0.0
H769 H 0.99333 0.37134 0.88759 0.0
H770 H 0.98445 0.33584 0.96972 0.0
H771 H 0.99363 0.37474 0.95222 0.0
H772 H 0.93499 0.31439 0.76773 0.0
H773 H 0.94012 0.35013 0.85152 0.0
H774 H 0.95682 0.32092 0.78615 0.0
H775 H 0.91859 0.34305 0.83214 0.0
H776 H 0.94437 0.35479 0.95665 0.0
H777 H 0.94893 0.3919 0.90772 0.0
H778 H 0.01197 0.3065 0.87558 0.0
H779 H 0.9731 0.29226 0.87341 0.0
H780 H 0.9691 0.37326 0.73889 0.0
H781 H 0.98452 0.38435 0.83947 0.0
H782 H 0.97718 0.39358 0.71367 0.0
H783 H 0.99238 0.40447 0.81241 0.0
H784 H 0.0103 0.33979 0.78106 0.0
H785 H 0.97571 0.32052 0.74982 0.0
H786 H 0.02273 0.32074 0.76226 0.0
H787 H 0.98873 0.30176 0.73181 0.0
H788 H 0.03114 0.37603 0.83245 0.0
H789 H 0.01745 0.37837 0.72523 0.0
H790 H 0.92975 0.36665 0.73218 0.0
H791 H 0.95547 0.3475 0.66006 0.0
Li792 Li 0.14377 0.96612 0.34459 0.0
Li793 Li 0.16127 0.97794 0.31751 0.0
Li794 Li 0.13976 0.98438 0.30569 0.0
Li795 Li 0.14878 0.96428 0.28266 0.0
C796 C 0.15364 0.9864 0.38436 0.0
N797 N 0.16494 0.99043 0.44921 0.0
C798 C 0.16217 0.97738 0.39816 0.0
C799 C 0.15086 0.99745 0.40359 0.0
C800 C 0.16779 0.9796 0.43096 0.0
C801 C 0.15666 -0.00069 0.43633 0.0
C802 C 0.16526 0.94827 0.31109 0.0
C803 C 0.17848 0.93739 0.26848 0.0
N804 N 0.1763 0.92612 0.28539 0.0
C805 C 0.16331 0.93662 0.32832 0.0
C806 C 0.17305 0.94869 0.28121 0.0
C807 C 0.16892 0.92552 0.31482 0.0
C808 C 0.13336 0.9444 0.37404 0.0
N809 N 0.13669 0.95658 0.38249 0.0
C810 C 0.12816 0.95402 0.44043 0.0
C811 C 0.13409 0.96155 0.4148 0.0
C812 C 0.12481 0.94131 0.43254 0.0
C813 C 0.12749 0.93652 0.39882 0.0
H814 H 0.13506 0.94088 0.34769 0.0
H815 H 0.13637 0.97141 0.42058 0.0
C816 C 0.17845 0.9971 0.33801 0.0
N817 N 0.17771 0.98469 0.32745 0.0
C818 C 0.18973 0.00181 0.35266 0.0
C819 C 0.19946 0.98107 0.34354 0.0
C820 C 0.18798 0.97675 0.32912 0.0
C821 C 0.20029 0.99363 0.35661 0.0
H822 H 0.17004 0.00311 0.33697 0.0
H823 H 0.18704 0.96687 0.3213 0.0
C824 C 0.11956 0.96711 0.31657 0.0
N825 N 0.09468 0.9668 0.34107 0.0
C826 C 0.11063 0.95873 0.30186 0.0
C827 C 0.11587 0.97531 0.34383 0.0
C828 C 0.09809 0.95872 0.31458 0.0
C829 C 0.10324 0.97501 0.35582 0.0
C830 C 0.16263 0.99031 0.25794 0.0
C831 C 0.16145 0.00342 0.26442 0.0
C832 C 0.17308 0.98578 0.23864 0.0
C833 C 0.17086 0.01177 0.25199 0.0
C834 C 0.18229 0.99443 0.22666 0.0
N835 N 0.18101 0.00714 0.23356 0.0
C836 C 0.12933 0.00918 0.31345 0.0
C837 C 0.11925 0.99596 0.27096 0.0
C838 C 0.1209 0.01918 0.30594 0.0
N839 N 0.12835 0.9979 0.29589 0.0
C840 C 0.11055 0.00564 0.26285 0.0
C841 C 0.11133 0.01747 0.28033 0.0
H842 H 0.13674 0.01044 0.33299 0.0
H843 H 0.11872 0.98685 0.25753 0.0
C844 C 0.14096 0.9414 0.25393 0.0
N845 N 0.14692 0.95252 0.24539 0.0
C846 C 0.13706 0.93299 0.22764 0.0
C847 C 0.14601 0.94738 0.18423 0.0
C848 C 0.14974 0.95556 0.21149 0.0
C849 C 0.13922 0.93614 0.19222 0.0
H850 H 0.13872 0.93938 0.28115 0.0
H851 H 0.15429 0.9646 0.20554 0.0
O852 O 0.14828 0.98467 0.35181 0.0
O853 O 0.15974 0.95924 0.3237 0.0
O854 O 0.13192 0.96706 0.30474 0.0
O855 O 0.1536 0.98198 0.27038 0.0
H856 H 0.1645 0.96878 0.38377 0.0
H857 H 0.14432 0.00455 0.39328 0.0
H858 H 0.17442 0.97272 0.44189 0.0
H859 H 0.1546 0.00784 0.45147 0.0
H860 H 0.18442 0.93757 0.24518 0.0
H861 H 0.15765 0.93615 0.35207 0.0
H862 H 0.17478 0.95763 0.26784 0.0
H863 H 0.16744 0.91643 0.32783 0.0
H864 H 0.1262 0.95808 0.46609 0.0
H865 H 0.12477 0.92689 0.39137 0.0
H866 H 0.19001 0.01157 0.36227 0.0
H867 H 0.20729 0.97438 0.34661 0.0
H868 H 0.11338 0.95227 0.28088 0.0
H869 H 0.12268 0.98179 0.35575 0.0
H870 H 0.09107 0.95229 0.30344 0.0
H871 H 0.10025 0.98129 0.3769 0.0
H872 H 0.15344 0.00711 0.27926 0.0
H873 H 0.17406 0.97571 0.23284 0.0
H874 H 0.17012 0.02193 0.25706 0.0
H875 H 0.19045 0.99104 0.21183 0.0
H876 H 0.12199 0.02818 0.31972 0.0
H877 H 0.10321 0.00379 0.2434 0.0
H878 H 0.13196 0.92436 0.23486 0.0
H879 H 0.14773 0.9502 0.1572 0.0
Li880 Li 0.52018 0.16032 0.82327 0.0
Li881 Li 0.52867 0.14129 0.85217 0.0
Li882 Li 0.53313 0.14583 0.79053 0.0
Li883 Li 0.51176 0.1394 0.80948 0.0
C884 C 0.55057 0.15881 0.8251 0.0
N885 N 0.57581 0.16377 0.80829 0.0
C886 C 0.56041 0.15218 0.8421 0.0
C887 C 0.55357 0.16802 0.79975 0.0
C888 C 0.57311 0.15482 0.83319 0.0
C889 C 0.56638 0.17037 0.79155 0.0
C890 C 0.50898 0.14755 0.89024 0.0
C891 C 0.50448 0.13515 0.94235 0.0
N892 N 0.50577 0.14588 0.96231 0.0
C893 C 0.51027 0.15846 0.91128 0.0
C894 C 0.50605 0.1358 0.90588 0.0
C895 C 0.5086 0.15742 0.94766 0.0
C896 C 0.50258 0.17957 0.838 0.0
N897 N 0.51523 0.17735 0.83252 0.0
C898 C 0.52068 0.19788 0.85541 0.0
C899 C 0.52424 0.18632 0.83989 0.0
C900 C 0.50776 0.20007 0.86372 0.0
C901 C 0.49859 0.19097 0.85354 0.0
H902 H 0.49569 0.17209 0.8327 0.0
H903 H 0.53425 0.18414 0.83609 0.0
C904 C 0.5392 0.12209 0.8952 0.0
N905 N 0.53625 0.13474 0.8937 0.0
C906 C 0.54593 0.11722 0.92389 0.0
C907 C 0.54632 0.13845 0.94919 0.0
C908 C 0.53961 0.14293 0.9199 0.0
C909 C 0.54972 0.12546 0.95122 0.0
H910 H 0.5367 0.11587 0.87357 0.0
H911 H 0.53739 0.153 0.91756 0.0
C912 C 0.5103 0.16306 0.76084 0.0
N913 N 0.49742 0.18378 0.73292 0.0
C914 C 0.49693 0.16318 0.76016 0.0
C915 C 0.51713 0.17341 0.74708 0.0
C916 C 0.49059 0.17376 0.74598 0.0
C917 C 0.51043 0.18381 0.73316 0.0
C918 C 0.52408 0.11783 0.80005 0.0
C919 C 0.52666 0.11433 0.76524 0.0
C920 C 0.51714 0.10953 0.82168 0.0
C921 C 0.52218 0.1026 0.7526 0.0
C922 C 0.51279 0.0979 0.80802 0.0
N923 N 0.51538 0.09471 0.77406 0.0
C924 C 0.55543 0.13507 0.76617 0.0
C925 C 0.54473 0.14717 0.72227 0.0
C926 C 0.56434 0.13074 0.74175 0.0
N927 N 0.5458 0.14298 0.756 0.0
C928 C 0.55344 0.14298 0.69678 0.0
C929 C 0.56319 0.13437 0.70632 0.0
H930 H 0.55584 0.1317 0.79305 0.0
H931 H 0.53682 0.15326 0.71487 0.0
C932 C 0.48755 0.12802 0.82025 0.0
N933 N 0.49692 0.13024 0.79624 0.0
C934 C 0.47684 0.1208 0.81101 0.0
C935 C 0.48553 0.11856 0.7523 0.0
C936 C 0.49601 0.12592 0.76261 0.0
C937 C 0.47583 0.11584 0.77677 0.0
H938 H 0.48845 0.13175 0.84664 0.0
H939 H 0.50352 0.12806 0.74394 0.0
O940 O 0.53807 0.15623 0.83307 0.0
O941 O 0.51076 0.14832 0.85461 0.0
O942 O 0.51668 0.15288 0.77511 0.0
O943 O 0.52814 0.12939 0.81273 0.0
H944 H 0.55828 0.14498 0.86169 0.0
H945 H 0.54607 0.17322 0.78632 0.0
H946 H 0.58082 0.14971 0.846 0.0
H947 H 0.56884 0.17742 0.77183 0.0
H948 H 0.50228 0.12611 0.9548 0.0
H949 H 0.51269 0.16761 0.89982 0.0
H950 H 0.50515 0.12724 0.89008 0.0
H951 H 0.5096 0.16577 0.96425 0.0
H952 H 0.52806 0.20455 0.86332 0.0
H953 H 0.48854 0.19234 0.85938 0.0
H954 H 0.54857 0.1072 0.92394 0.0
H955 H 0.54896 0.14513 0.96975 0.0
H956 H 0.49151 0.15525 0.77078 0.0
H957 H 0.52747 0.17343 0.74734 0.0
H958 H 0.48025 0.17403 0.74544 0.0
H959 H 0.51559 0.19192 0.72258 0.0
H960 H 0.53193 0.12066 0.74799 0.0
H961 H 0.51497 0.11212 0.8486 0.0
H962 H 0.52406 0.0998 0.72568 0.0
H963 H 0.50732 0.09144 0.8244 0.0
H964 H 0.5718 0.12426 0.75032 0.0
H965 H 0.55213 0.14589 0.66966 0.0
H966 H 0.4696 0.11885 0.83068 0.0
H967 H 0.485 0.11505 0.72552 0.0
Li968 Li 0.33548 0.52021 0.32759 0.0
Li969 Li 0.35499 0.52982 0.35118 0.0
Li970 Li 0.34946 0.53179 0.28918 0.0
Li971 Li 0.35633 0.51134 0.31387 0.0
C972 C 0.33692 0.55049 0.31997 0.0
N973 N 0.33143 0.5749 0.29655 0.0
C974 C 0.3445 0.5608 0.33058 0.0
C975 C 0.32648 0.55259 0.29772 0.0
C976 C 0.34159 0.57307 0.31839 0.0
C977 C 0.32389 0.565 0.28608 0.0
C978 C 0.34925 0.51193 0.39592 0.0
C979 C 0.36235 0.51033 0.44802 0.0
N980 N 0.35177 0.51205 0.46833 0.0
C981 C 0.3385 0.51365 0.41732 0.0
C982 C 0.36127 0.5102 0.41137 0.0
C983 C 0.33998 0.51368 0.45387 0.0
C984 C 0.31508 0.50336 0.34097 0.0
N985 N 0.31853 0.51589 0.33988 0.0
C986 C 0.29918 0.52205 0.36845 0.0
C987 C 0.31078 0.52523 0.35258 0.0
C988 C 0.29548 0.50913 0.37102 0.0
C989 C 0.30344 0.49977 0.3559 0.0
H990 H 0.32164 0.4961 0.33181 0.0
H991 H 0.31396 0.53507 0.35233 0.0
C992 C 0.37477 0.54186 0.38908 0.0
N993 N 0.36207 0.53914 0.38926 0.0
C994 C 0.37999 0.54977 0.41489 0.0
C995 C 0.35896 0.55185 0.44083 0.0
C996 C 0.35414 0.54389 0.41446 0.0
C997 C 0.37202 0.55503 0.44092 0.0
H998 H 0.3808 0.53816 0.36836 0.0
H999 H 0.34402 0.54177 0.41343 0.0
C1000 C 0.33213 0.50825 0.2664 0.0
N1001 N 0.31157 0.49495 0.23903 0.0
C1002 C 0.33246 0.4949 0.26456 0.0
C1003 C 0.3214 0.51485 0.25402 0.0
C1004 C 0.32195 0.48834 0.25069 0.0
C1005 C 0.31109 0.50795 0.24038 0.0
C1006 C 0.37758 0.52316 0.29769 0.0
C1007 C 0.38031 0.52415 0.26177 0.0
C1008 C 0.38634 0.51717 0.32012 0.0
C1009 C 0.39177 0.51909 0.24887 0.0
C1010 C 0.39766 0.5122 0.30618 0.0
N1011 N 0.40012 0.51325 0.27115 0.0
C1012 C 0.35985 0.55263 0.25525 0.0
C1013 C 0.34591 0.54067 0.21858 0.0
C1014 C 0.36339 0.56039 0.22714 0.0
N1015 N 0.35139 0.54293 0.25041 0.0
C1016 C 0.34923 0.5482 0.18956 0.0
C1017 C 0.35828 0.55805 0.19357 0.0
H1018 H 0.3643 0.55395 0.2807 0.0
H1019 H 0.33937 0.53273 0.21542 0.0
C1020 C 0.36886 0.48819 0.33085 0.0
N1021 N 0.36547 0.49613 0.30414 0.0
C1022 C 0.37642 0.47747 0.3241 0.0
C1023 C 0.37648 0.48313 0.26236 0.0
C1024 C 0.36888 0.4937 0.2703 0.0
C1025 C 0.3805 0.47494 0.28954 0.0
H1026 H 0.36585 0.49028 0.35743 0.0
H1027 H 0.36593 0.50017 0.24961 0.0
O1028 O 0.33973 0.53837 0.33112 0.0
O1029 O 0.34805 0.51209 0.36006 0.0
O1030 O 0.34229 0.51483 0.28002 0.0
O1031 O 0.36628 0.52779 0.31074 0.0
H1032 H 0.35265 0.55935 0.34768 0.0
H1033 H 0.32048 0.54471 0.28942 0.0
H1034 H 0.34742 0.58114 0.3262 0.0
H1035 H 0.31588 0.56676 0.26872 0.0
H1036 H 0.3716 0.50909 0.46031 0.0
H1037 H 0.32913 0.51502 0.40591 0.0
H1038 H 0.3697 0.50897 0.39523 0.0
H1039 H 0.33175 0.51504 0.47074 0.0
H1040 H 0.29358 0.52962 0.38035 0.0
H1041 H 0.30096 0.48972 0.35674 0.0
H1042 H 0.39014 0.55187 0.41421 0.0
H1043 H 0.35246 0.55583 0.46012 0.0
H1044 H 0.34068 0.48964 0.27404 0.0
H1045 H 0.32103 0.52518 0.25513 0.0
H1046 H 0.32204 0.47801 0.24927 0.0
H1047 H 0.30269 0.51293 0.23088 0.0
H1048 H 0.37361 0.52861 0.24392 0.0
H1049 H 0.38432 0.51619 0.34791 0.0
H1050 H 0.39398 0.51973 0.22112 0.0
H1051 H 0.40447 0.50745 0.32319 0.0
H1052 H 0.37061 0.56767 0.23132 0.0
H1053 H 0.34505 0.5461 0.16412 0.0
H1054 H 0.37911 0.47129 0.34574 0.0
H1055 H 0.37951 0.48164 0.23542 0.0
Li1056 Li 0.96145 0.14616 0.2089 0.0
Li1057 Li 0.98018 0.1375 0.17888 0.0
Li1058 Li 0.97277 0.15906 0.16775 0.0
Li1059 Li 0.96063 0.14074 0.14654 0.0
C1060 C 0.98747 0.16136 0.22212 0.0
N1061 N 0.004 0.18115 0.23803 0.0
C1062 C 0.00041 0.16045 0.21326 0.0
C1063 C 0.98293 0.1723 0.23922 0.0
C1064 C 0.00862 0.17057 0.22152 0.0
C1065 C 0.99144 0.18222 0.24698 0.0
C1066 C 0.96693 0.11733 0.19753 0.0
C1067 C 0.97555 0.09637 0.18542 0.0
N1068 N 0.97533 0.09367 0.22043 0.0
C1069 C 0.96676 0.11433 0.2334 0.0
C1070 C 0.97131 0.10825 0.17331 0.0
C1071 C 0.97104 0.10232 0.24444 0.0
C1072 C 0.94086 0.13814 0.249 0.0
N1073 N 0.95193 0.14491 0.25101 0.0
C1074 C 0.9503 0.14605 0.3136 0.0
C1075 C 0.95665 0.14906 0.28231 0.0
C1076 C 0.93905 0.1387 0.31239 0.0
C1077 C 0.93418 0.135 0.27947 0.0
H1078 H 0.93758 0.13463 0.22379 0.0
H1079 H 0.96563 0.1542 0.28309 0.0
C1080 C 0.00221 0.12328 0.15823 0.0
N1081 N 0.9948 0.12711 0.18566 0.0
C1082 C 0.01277 0.11539 0.16413 0.0
C1083 C 0.00796 0.11576 0.22639 0.0
C1084 C 0.99757 0.1237 0.2193 0.0
C1085 C 0.01571 0.11145 0.19859 0.0
H1086 H -7e-05 0.12636 0.13182 0.0
H1087 H 0.99158 0.12705 0.2406 0.0
C1088 C 0.94271 0.16 0.1837 0.0
N1089 N 0.91959 0.16652 0.21405 0.0
C1090 C 0.93141 0.1542 0.17224 0.0
C1091 C 0.94225 0.16918 0.21046 0.0
C1092 C 0.91981 0.15761 0.18794 0.0
C1093 C 0.93047 0.17231 0.22553 0.0
C1094 C 0.97775 0.14448 0.09753 0.0
C1095 C 0.97579 0.15512 0.07585 0.0
C1096 C 0.97867 0.1323 0.08254 0.0
C1097 C 0.97477 0.15337 0.0395 0.0
C1098 C 0.97756 0.13095 0.04608 0.0
N1099 N 0.97566 0.14142 0.0255 0.0
C1100 C 0.99004 0.17649 0.1392 0.0
C1101 C 0.97085 0.186 0.15976 0.0
C1102 C 0.99408 0.1881 0.12501 0.0
N1103 N 0.97848 0.17561 0.15535 0.0
C1104 C 0.97457 0.19784 0.14629 0.0
C1105 C 0.98615 0.19892 0.12766 0.0
H1106 H 0.99584 0.168 0.13589 0.0
H1107 H 0.96169 0.18499 0.17262 0.0
C1108 C 0.94576 0.12214 0.11163 0.0
N1109 N 0.94973 0.1345 0.11045 0.0
C1110 C 0.93741 0.11743 0.08611 0.0
C1111 C 0.9373 0.13831 0.05872 0.0
C1112 C 0.9456 0.14263 0.08495 0.0
C1113 C 0.93307 0.12554 0.0591 0.0
H1114 H 0.94892 0.11598 0.13273 0.0
H1115 H 0.94868 0.15251 0.08515 0.0
O1116 O 0.97923 0.15171 0.21347 0.0
O1117 O 0.96305 0.12914 0.18622 0.0
O1118 O 0.95419 0.15667 0.16898 0.0
O1119 O 0.97859 0.14596 0.13325 0.0
H1120 H 0.00406 0.15208 0.19981 0.0
H1121 H 0.97292 0.17318 0.24607 0.0
H1122 H 0.01865 0.17003 0.21468 0.0
H1123 H 0.98806 0.19077 0.26003 0.0
H1124 H 0.97904 0.08929 0.16698 0.0
H1125 H 0.9635 0.12124 0.25259 0.0
H1126 H 0.97159 0.11043 0.14549 0.0
H1127 H 0.97101 0.0999 0.27213 0.0
H1128 H 0.95435 0.14908 0.33848 0.0
H1129 H 0.92571 0.12908 0.27736 0.0
H1130 H 0.01862 0.11248 0.14199 0.0
H1131 H 0.00974 0.11286 0.2533 0.0
H1132 H 0.93158 0.14705 0.15167 0.0
H1133 H 0.95092 0.17368 0.21988 0.0
H1134 H 0.911 0.15316 0.17943 0.0
H1135 H 0.92998 0.17933 0.24642 0.0
H1136 H 0.97487 0.1646 0.08695 0.0
H1137 H 0.98006 0.12395 0.0989 0.0
H1138 H 0.9732 0.16151 0.02244 0.0
H1139 H 0.97819 0.12157 0.03417 0.0
H1140 H 0.00299 0.18839 0.11048 0.0
H1141 H 0.96825 0.20598 0.14949 0.0
H1142 H 0.93418 0.1076 0.08797 0.0
H1143 H 0.9343 0.14488 0.0383 0.0
Li1144 Li 0.35638 0.98437 0.68501 0.0
Li1145 Li 0.34705 0.96523 0.71142 0.0
Li1146 Li 0.35461 0.96505 0.65084 0.0
Li1147 Li 0.33542 0.97683 0.66799 0.0
C1148 C 0.37603 0.97136 0.70799 0.0
N1149 N 0.39861 0.98003 0.73741 0.0
C1150 C 0.37776 0.97102 0.74447 0.0
C1151 C 0.38582 0.97605 0.68647 0.0
C1152 C 0.38924 0.97545 0.75883 0.0
C1153 C 0.39714 0.98042 0.70186 0.0
C1154 C 0.33112 0.99084 0.72376 0.0
C1155 C 0.30939 0.99398 0.74326 0.0
N1156 N 0.31076 0.00681 0.73858 0.0
C1157 C 0.33235 0.00406 0.71931 0.0
C1158 C 0.31959 0.98574 0.73601 0.0
C1159 C 0.32193 0.01197 0.7269 0.0
C1160 C 0.37034 0.00655 0.66679 0.0
N1161 N 0.36629 -0.00084 0.694 0.0
C1162 C 0.37674 0.01272 0.73554 0.0
C1163 C 0.36914 0.00212 0.72793 0.0
C1164 C 0.38126 0.02043 0.70794 0.0
C1165 C 0.37788 0.01732 0.6732 0.0
H1166 H 0.36775 0.00407 0.64013 0.0
H1167 H 0.36556 0.99617 0.74904 0.0
C1168 C 0.35468 0.94451 0.75061 0.0
N1169 N 0.34706 0.95501 0.75243 0.0
C1170 C 0.35703 0.93722 0.78053 0.0
C1171 C 0.34339 0.95152 0.81371 0.0
C1172 C 0.34125 0.95854 0.78291 0.0
C1173 C 0.3516 0.94085 0.81285 0.0
H1174 H 0.35944 0.94218 0.72616 0.0
H1175 H 0.33542 0.96708 0.78365 0.0
C1176 C 0.35186 0.98238 0.60191 0.0
N1177 N 0.35661 0.98075 0.53049 0.0
C1178 C 0.34174 0.98075 0.57825 0.0
C1179 C 0.36439 0.9832 0.58922 0.0
C1180 C 0.34435 0.97996 0.54224 0.0
C1181 C 0.3666 0.98233 0.55304 0.0
C1182 C 0.33415 0.94673 0.68141 0.0
C1183 C 0.34078 0.93556 0.67257 0.0
C1184 C 0.32355 0.94603 0.70377 0.0
C1185 C 0.33676 0.92388 0.68658 0.0
C1186 C 0.31984 0.93416 0.71727 0.0
N1187 N 0.32647 0.92342 0.70848 0.0
C1188 C 0.37451 0.95061 0.62064 0.0
C1189 C 0.35508 0.95031 0.58849 0.0
C1190 C 0.38019 0.94234 0.59646 0.0
N1191 N 0.36221 0.95445 0.61615 0.0
C1192 C 0.3604 0.94207 0.56353 0.0
C1193 C 0.37312 0.93794 0.56741 0.0
H1194 H 0.37985 0.95378 0.64337 0.0
H1195 H 0.34522 0.95331 0.58603 0.0
C1196 C 0.31867 0.99496 0.64055 0.0
N1197 N 0.31946 0.98255 0.65098 0.0
C1198 C 0.30801 -0.00076 0.62196 0.0
C1199 C 0.29899 0.97798 0.62628 0.0
C1200 C 0.30983 0.97411 0.64491 0.0
C1201 C 0.29817 0.9906 0.61367 0.0
H1202 H 0.32664 0.00135 0.64508 0.0
H1203 H 0.31087 0.96423 0.6528 0.0
O1204 O 0.36475 0.96733 0.69343 0.0
O1205 O 0.34114 0.98292 0.71597 0.0
O1206 O 0.34955 0.98299 0.63733 0.0
O1207 O 0.33806 0.95829 0.66845 0.0
H1208 H 0.37026 0.96755 0.7616 0.0
H1209 H 0.38461 0.97648 0.65822 0.0
H1210 H 0.39068 0.9753 0.78703 0.0
H1211 H 0.40476 0.98416 0.68553 0.0
H1212 H 0.30039 0.99016 0.75258 0.0
H1213 H 0.3412 0.00815 0.70977 0.0
H1214 H 0.3185 0.97554 0.73963 0.0
H1215 H 0.32272 0.02221 0.72341 0.0
H1216 H 0.37899 0.01492 0.7627 0.0
H1217 H 0.38124 0.02299 0.6512 0.0
H1218 H 0.36366 0.92929 0.77871 0.0
H1219 H 0.339 0.95462 0.83808 0.0
H1220 H 0.332 0.97997 0.58751 0.0
H1221 H 0.37234 0.98434 0.60716 0.0
H1222 H 0.33661 0.97866 0.52365 0.0
H1223 H 0.37625 0.98289 0.54289 0.0
H1224 H 0.34902 0.93593 0.65539 0.0
H1225 H 0.31832 0.95458 0.71088 0.0
H1226 H 0.34184 0.91517 0.68013 0.0
H1227 H 0.31171 0.93349 0.73477 0.0
H1228 H 0.38993 0.9392 0.60094 0.0
H1229 H 0.35461 0.93902 0.54142 0.0
H1230 H 0.3077 0.00907 0.61297 0.0
H1231 H 0.29173 0.97095 0.61998 0.0
Li1232 Li 0.5129 0.35747 0.17948 0.0
Li1233 Li 0.53269 0.34941 0.20537 0.0
Li1234 Li 0.53144 0.35451 0.14292 0.0
Li1235 Li 0.52032 0.33604 0.16755 0.0
C1236 C 0.52605 0.37798 0.19456 0.0
N1237 N 0.5176 0.40141 0.21899 0.0
C1238 C 0.52723 0.38108 0.23021 0.0
C1239 C 0.52063 0.38682 0.17131 0.0
C1240 C 0.5229 0.39298 0.24203 0.0
C1241 C 0.51639 0.3986 0.18419 0.0
C1242 C 0.50761 0.33383 0.22632 0.0
C1243 C 0.50514 0.31322 0.25402 0.0
N1244 N 0.49225 0.31402 0.24936 0.0
C1245 C 0.49435 0.33449 0.22198 0.0
C1246 C 0.51306 0.32316 0.24263 0.0
C1247 C 0.48675 0.32436 0.23376 0.0
C1248 C 0.49033 0.37108 0.16184 0.0
N1249 N 0.49825 0.36755 0.18847 0.0
C1250 C 0.48551 0.37881 0.23036 0.0
C1251 C 0.49597 0.37108 0.2223 0.0
C1252 C 0.47725 0.38282 0.20334 0.0
C1253 C 0.47972 0.37879 0.16871 0.0
H1254 H 0.49225 0.36792 0.13529 0.0
H1255 H 0.5024 0.368 0.24294 0.0
C1256 C 0.55464 0.35786 0.238 0.0
N1257 N 0.54373 0.35122 0.24441 0.0
C1258 C 0.56248 0.36164 0.26568 0.0
C1259 C 0.54778 0.35154 0.30625 0.0
C1260 C 0.54026 0.3478 0.27758 0.0
C1261 C 0.55888 0.35887 0.30047 0.0
H1262 H 0.55694 0.36075 0.21141 0.0
H1263 H 0.53135 0.34279 0.28189 0.0
C1264 C 0.5133 0.34979 0.09795 0.0
N1265 N 0.51368 0.35181 0.02542 0.0
C1266 C 0.51483 0.33886 0.07714 0.0
C1267 C 0.51195 0.36174 0.08184 0.0
C1268 C 0.51499 0.34008 0.04053 0.0
C1269 C 0.51219 0.36256 0.04515 0.0
C1270 C 0.55058 0.33515 0.17613 0.0
C1271 C 0.56163 0.34078 0.16232 0.0
C1272 C 0.55165 0.32578 0.20221 0.0
C1273 C 0.57358 0.33701 0.17513 0.0
C1274 C 0.56377 0.32229 0.21436 0.0
N1275 N 0.5744 0.32794 0.2007 0.0
C1276 C 0.54482 0.37327 0.10483 0.0
C1277 C 0.54524 0.3526 0.0791 0.0
C1278 C 0.55274 0.37803 0.0784 0.0
N1279 N 0.54124 0.36078 0.10467 0.0
C1280 C 0.55316 0.35697 0.05206 0.0
C1281 C 0.55708 0.36983 0.05163 0.0
H1282 H 0.54178 0.37947 0.12597 0.0
H1283 H 0.54245 0.34264 0.0801 0.0
C1284 C 0.50207 0.31833 0.14627 0.0
N1285 N 0.51449 0.31945 0.1563 0.0
C1286 C 0.49775 0.30709 0.13053 0.0
C1287 C 0.51895 0.29815 0.13752 0.0
C1288 C 0.52287 0.30959 0.15308 0.0
C1289 C 0.50636 0.29699 0.1249 0.0
H1290 H 0.49572 0.32647 0.14848 0.0
H1291 H 0.53276 0.31087 0.16055 0.0
O1292 O 0.52996 0.36626 0.18257 0.0
O1293 O 0.51523 0.34354 0.21445 0.0
O1294 O 0.51331 0.34884 0.13388 0.0
O1295 O 0.53879 0.33881 0.16423 0.0
H1296 H 0.53131 0.37435 0.24866 0.0
H1297 H 0.51954 0.38454 0.14371 0.0
H1298 H 0.52371 0.39549 0.26957 0.0
H1299 H 0.51209 0.40549 0.16654 0.0
H1300 H 0.50922 0.30487 0.26654 0.0
H1301 H 0.48998 0.34266 0.2093 0.0
H1302 H 0.5233 0.32253 0.2463 0.0
H1303 H 0.47648 0.3247 0.23039 0.0
H1304 H 0.48406 0.38182 0.25735 0.0
H1305 H 0.47348 0.38148 0.1472 0.0
H1306 H 0.57104 0.3671 0.25995 0.0
H1307 H 0.54457 0.34932 0.33266 0.0
H1308 H 0.51605 0.32955 0.08904 0.0
H1309 H 0.5109 0.37032 0.0975 0.0
H1310 H 0.51621 0.33171 0.02412 0.0
H1311 H 0.51122 0.37176 0.03235 0.0
H1312 H 0.56099 0.34807 0.14219 0.0
H1313 H 0.5432 0.32134 0.21318 0.0
H1314 H 0.58221 0.34134 0.16482 0.0
H1315 H 0.56474 0.31511 0.23469 0.0
H1316 H 0.55574 0.38794 0.07955 0.0
H1317 H 0.55621 0.35034 0.03183 0.0
H1318 H 0.48796 0.30654 0.12132 0.0
H1319 H 0.52594 0.29065 0.13319 0.0
Li1320 Li 0.14545 0.53302 0.71775 0.0
Li1321 Li 0.13838 0.51268 0.68979 0.0
Li1322 Li 0.15907 0.52279 0.67462 0.0
Li1323 Li 0.13923 0.5325 0.65703 0.0
C1324 C 0.16373 0.51603 0.74384 0.0
N1325 N 0.18413 0.51663 0.79006 0.0
C1326 C 0.1661 0.50563 0.766 0.0
C1327 C 0.17174 0.52674 0.74513 0.0
C1328 C 0.17646 0.50612 0.78921 0.0
C1329 C 0.182 0.52686 0.76869 0.0
C1330 C 0.11719 0.53427 0.69013 0.0
C1331 C 0.09811 0.53553 0.65457 0.0
N1332 N 0.09489 0.54665 0.67092 0.0
C1333 C 0.11364 0.54566 0.70678 0.0
C1334 C 0.10931 0.5291 0.66402 0.0
C1335 C 0.10235 0.55179 0.69663 0.0
C1336 C 0.1434 0.55545 0.75758 0.0
N1337 N 0.14424 0.54251 0.75966 0.0
C1338 C 0.1387 0.54289 0.8205 0.0
C1339 C 0.14232 0.53617 0.7904 0.0
C1340 C 0.13679 0.55619 0.81864 0.0
C1341 C 0.13964 0.56254 0.78695 0.0
H1342 H 0.14477 0.56016 0.7325 0.0
H1343 H 0.14294 0.52585 0.79104 0.0
C1344 C 0.13679 0.4859 0.69525 0.0
N1345 N 0.13002 0.49698 0.6972 0.0
C1346 C 0.13077 0.4742 0.70168 0.0
C1347 C 0.11094 0.48561 0.71148 0.0
C1348 C 0.11736 0.49706 0.70512 0.0
C1349 C 0.11767 0.47397 0.71012 0.0
H1350 H 0.14689 0.4862 0.68905 0.0
H1351 H 0.11225 0.50603 0.70667 0.0
C1352 C 0.16065 0.54847 0.65349 0.0
N1353 N 0.17341 0.56307 0.60404 0.0
C1354 C 0.16143 0.54434 0.61856 0.0
C1355 C 0.1663 0.56006 0.66323 0.0
C1356 C 0.16793 0.55184 0.59396 0.0
C1357 C 0.17273 0.56729 0.63786 0.0
C1358 C 0.14336 0.50957 0.61258 0.0
C1359 C 0.15258 0.50926 0.58592 0.0
C1360 C 0.13164 0.50341 0.60754 0.0
C1361 C 0.14982 0.50296 0.5544 0.0
C1362 C 0.12924 0.49721 0.57564 0.0
N1363 N 0.1383 0.49712 0.54994 0.0
C1364 C 0.1772 0.50535 0.65377 0.0
C1365 C 0.18509 0.5266 0.65267 0.0
C1366 C 0.18822 0.50087 0.63725 0.0
N1367 N 0.17568 0.51805 0.66006 0.0
C1368 C 0.19616 0.52259 0.63542 0.0
C1369 C 0.19768 0.5096 0.62647 0.0
H1370 H 0.16955 0.49878 0.66026 0.0
H1371 H 0.18379 0.53662 0.65861 0.0
C1372 C 0.12905 0.55516 0.63192 0.0
N1373 N 0.13113 0.54284 0.62204 0.0
C1374 C 0.12319 0.56373 0.60894 0.0
C1375 C 0.12201 0.54689 0.56547 0.0
C1376 C 0.12778 0.53858 0.58951 0.0
C1377 C 0.11962 0.55967 0.57509 0.0
H1378 H 0.13189 0.55829 0.6579 0.0
H1379 H 0.12962 0.52881 0.582 0.0
O1380 O 0.15363 0.51564 0.72097 0.0
O1381 O 0.12838 0.52829 0.69913 0.0
O1382 O 0.15426 0.54136 0.6781 0.0
O1383 O 0.14598 0.51557 0.64376 0.0
H1384 H 0.15999 0.49726 0.76525 0.0
H1385 H 0.17008 0.53487 0.72817 0.0
H1386 H 0.17841 0.49814 0.80654 0.0
H1387 H 0.18827 0.53508 0.76998 0.0
H1388 H 0.09199 0.53169 0.63418 0.0
H1389 H 0.11956 0.54976 0.72718 0.0
H1390 H 0.1119 0.52031 0.65084 0.0
H1391 H 0.09953 0.56065 0.70917 0.0
H1392 H 0.13683 0.53764 0.84453 0.0
H1393 H 0.13815 0.57274 0.78409 0.0
H1394 H 0.13635 0.46548 0.70071 0.0
H1395 H 0.1008 0.48589 0.71722 0.0
H1396 H 0.15706 0.53545 0.61051 0.0
H1397 H 0.16575 0.5634 0.69016 0.0
H1398 H 0.16862 0.54874 0.56685 0.0
H1399 H 0.17717 0.57627 0.64504 0.0
H1400 H 0.16179 0.51381 0.58953 0.0
H1401 H 0.12446 0.5034 0.628 0.0
H1402 H 0.15685 0.50268 0.53351 0.0
H1403 H 0.12018 0.49244 0.57134 0.0
H1404 H 0.18909 0.49073 0.63192 0.0
H1405 H 0.20309 0.52974 0.62757 0.0
H1406 H 0.12137 0.57341 0.61782 0.0
H1407 H 0.11963 0.54336 0.53948 0.0
H1408 H 0.0367 0.71216 0.10011 0.0
H1409 H 0.03682 0.72957 0.05706 0.0
H1410 H 0.99558 0.72879 0.05352 0.0
H1411 H 0.99537 0.71156 0.09715 0.0
H1412 H 0.02611 0.72702 0.98848 0.0
H1413 H 0.00423 0.76718 0.06306 0.0
H1414 H 0.01105 0.75333 0.08442 0.0
H1415 H 0.99546 0.7524 0.0647 0.0
C1416 C 0.02765 0.71595 0.09094 0.0
C1417 C 0.01602 0.71053 0.10204 0.0
C1418 C 0.02774 0.7258 0.06614 0.0
C1419 C 0.01622 0.73048 0.05231 0.0
C1420 C 0.00457 0.72541 0.06424 0.0
H1421 H 0.99638 0.78643 0.89361 0.0
H1422 H 0.9961 0.76856 0.93527 0.0
C1423 C 0.00447 0.71553 0.08897 0.0
C1424 C 0.01639 0.73998 0.02354 0.0
H1425 H 0.00683 0.77013 0.0016 0.0
C1426 C 0.02196 0.73648 0.99132 0.0
C1427 C 0.01089 0.75224 0.02741 0.0
C1428 C 0.00516 0.7566 0.06183 0.0
C1429 C 0.022 0.74488 0.96255 0.0
C1430 C 0.01652 0.75717 0.96642 0.0
C1431 C 0.01096 0.76066 -0.00132 0.0
C1432 C 0.01671 0.76674 0.93777 0.0
C1433 C 0.02767 0.74046 0.92811 0.0
C1434 C 0.02838 0.77142 0.92484 0.0
C1435 C 0.02856 0.78158 0.90097 0.0
C1436 C 0.01707 0.78731 0.88998 0.0
C1437 C 0.00538 0.78223 0.90182 0.0
C1438 C 0.00521 0.77205 0.92557 0.0
H1439 H 0.02815 0.72985 0.92656 0.0
H1440 H 0.02203 0.74407 0.90543 0.0
H1441 H 0.03756 0.74422 0.92574 0.0
H1442 H 0.03737 0.76763 0.93447 0.0
H1443 H 0.03771 0.78543 0.89277 0.0
H1444 H 0.71583 0.99698 0.36787 0.0
H1445 H 0.73509 0.99597 0.40458 0.0
H1446 H 0.73169 0.03633 0.4266 0.0
H1447 H 0.71262 0.03744 0.38953 0.0
H1448 H 0.75647 0.02916 0.41693 0.0
H1449 H 0.73221 0.99655 0.51107 0.0
H1450 H 0.73303 0.99048 0.46693 0.0
H1451 H 0.72377 0.0046 0.4761 0.0
C1452 C 0.71932 0.00566 0.38021 0.0
C1453 C 0.71271 0.01727 0.37606 0.0
C1454 C 0.73025 0.00506 0.40128 0.0
C1455 C 0.73461 0.01601 0.41898 0.0
C1456 C 0.72844 0.02775 0.4133 0.0
H1457 H 0.77989 0.02001 0.60885 0.0
H1458 H 0.763 0.02011 0.5643 0.0
C1459 C 0.71759 0.02839 0.39198 0.0
C1460 C 0.7452 0.0152 0.44475 0.0
H1461 H 0.75397 0.0012 0.52225 0.0
C1462 C 0.75596 0.02303 0.43992 0.0
C1463 C 0.74436 0.00737 0.47507 0.0
C1464 C 0.73268 -0.00064 0.48289 0.0
C1465 C 0.76595 0.02322 0.46456 0.0
C1466 C 0.76528 0.01511 0.49435 0.0
C1467 C 0.7545 0.00731 0.49921 0.0
C1468 C 0.7755 0.01481 0.52128 0.0
C1469 C 0.77693 0.03238 0.45897 0.0
C1470 C 0.78807 0.01156 0.51197 0.0
C1471 C 0.79776 0.01169 0.53721 0.0
C1472 C 0.79504 0.01485 0.57246 0.0
C1473 C 0.78235 0.01772 0.58189 0.0
C1474 C 0.77267 0.0177 0.55652 0.0
H1475 H 0.77429 0.04028 0.44079 0.0
H1476 H 0.78016 0.0366 0.48428 0.0
H1477 H 0.7851 0.02714 0.44711 0.0
H1478 H 0.7904 0.00903 0.48509 0.0
H1479 H 0.80744 0.00959 0.52884 0.0
H1480 H 0.5002 0.79233 0.08405 0.0
H1481 H 0.50176 0.77419 0.0433 0.0
H1482 H 0.46077 0.76964 0.04659 0.0
H1483 H 0.4591 0.78784 0.08682 0.0
H1484 H 0.49182 0.74778 0.05155 0.0
H1485 H 0.47036 0.7747 0.94 0.0
H1486 H 0.47705 0.78253 0.97821 0.0
H1487 H 0.46153 0.77521 0.9806 0.0
C1488 C 0.49154 0.78742 0.07618 0.0
C1489 C 0.47953 0.79152 0.08851 0.0
C1490 C 0.49245 0.77706 0.05304 0.0
C1491 C 0.48136 0.77075 0.04166 0.0
C1492 C 0.46941 0.77452 0.05483 0.0
H1493 H 0.46086 0.7101 0.90107 0.0
H1494 H 0.46194 0.72878 0.9396 0.0
C1495 C 0.46849 0.78482 0.07807 0.0
C1496 C 0.4822 0.76038 0.01543 0.0
H1497 H 0.47353 0.75245 0.93166 0.0
C1498 C 0.48793 0.74879 0.02522 0.0
C1499 C 0.47711 0.76182 0.9812 0.0
C1500 C 0.47125 0.77426 0.96912 0.0
C1501 C 0.48829 0.73837 0.00194 0.0
C1502 C 0.48305 0.73975 0.96778 0.0
C1503 C 0.47754 0.75144 0.95784 0.0
C1504 C 0.48262 0.72897 0.94257 0.0
C1505 C 0.49385 0.72585 0.01455 0.0
C1506 C 0.49391 0.72314 0.93067 0.0
C1507 C 0.49332 0.71246 0.9086 0.0
C1508 C 0.48143 0.70754 0.89778 0.0
C1509 C 0.47016 0.71375 0.9086 0.0
C1510 C 0.47076 0.72437 0.93078 0.0
H1511 H 0.49466 0.72551 0.0437 0.0
H1512 H 0.4879 0.71765 0.00571 0.0
H1513 H 0.50358 0.72465 0.00338 0.0
H1514 H 0.50316 0.72675 0.9388 0.0
H1515 H 0.50215 0.70796 0.90028 0.0
H1516 H 0.70845 0.5 0.59111 0.0
H1517 H 0.72668 0.50059 0.55046 0.0
H1518 H 0.7295 0.45946 0.55524 0.0
H1519 H 0.71121 0.45875 0.59532 0.0
H1520 H 0.75267 0.48958 0.55882 0.0
H1521 H 0.72466 0.46872 0.4484 0.0
H1522 H 0.71719 0.47589 0.48647 0.0
H1523 H 0.72391 0.46012 0.48934 0.0
C1524 C 0.71301 0.4911 0.58361 0.0
C1525 C 0.70839 0.47932 0.59628 0.0
C1526 C 0.72342 0.49146 0.56053 0.0
C1527 C 0.72925 0.48006 0.54958 0.0
C1528 C 0.72498 0.46834 0.56316 0.0
H1529 H 0.78874 0.45756 0.40635 0.0
H1530 H 0.7704 0.45898 0.44608 0.0
C1531 C 0.71463 0.46797 0.58632 0.0
C1532 C 0.73961 0.48033 0.52321 0.0
H1533 H 0.74695 0.47114 0.43944 0.0
C1534 C 0.75144 0.48564 0.53262 0.0
C1535 C 0.73789 0.47517 0.48915 0.0
C1536 C 0.72521 0.46973 0.47748 0.0
C1537 C 0.76178 0.48558 0.50908 0.0
C1538 C 0.76009 0.48032 0.47504 0.0
C1539 C 0.74819 0.47517 0.46553 0.0
C1540 C 0.7707 0.47966 0.44933 0.0
C1541 C 0.77453 0.49074 0.52125 0.0
C1542 C 0.77668 0.49084 0.43723 0.0
C1543 C 0.78716 0.49005 0.4145 0.0
C1544 C 0.79172 0.47808 0.40323 0.0
C1545 C 0.78536 0.46693 0.41428 0.0
C1546 C 0.77494 0.46772 0.43713 0.0
H1547 H 0.77503 0.49148 0.55039 0.0
H1548 H 0.7825 0.48457 0.512 0.0
H1549 H 0.77595 0.50046 0.51018 0.0
H1550 H 0.77334 0.50015 0.44566 0.0
H1551 H 0.79177 0.49881 0.40599 0.0
H1552 H 0.00792 0.29977 0.93603 0.0
H1553 H 0.01148 0.28352 0.98115 0.0
H1554 H 0.98932 0.25647 0.92086 0.0
H1555 H 0.98599 0.27259 0.87505 0.0
H1556 H 0.99143 0.27281 0.01832 0.0
H1557 H 0.02015 0.23512 0.95293 0.0
H1558 H 0.019 0.25124 0.93601 0.0
H1559 H 0.00642 0.23989 0.92773 0.0
C1560 C 0.00415 0.29024 0.93177 0.0
C1561 C 0.99669 0.28744 0.90191 0.0
C1562 C 0.00613 0.281 0.95772 0.0
C1563 C 0.00077 0.26878 0.95416 0.0
C1564 C 0.99374 0.26578 0.92378 0.0
H1565 H 0.96976 0.21458 0.09196 0.0
H1566 H 0.97509 0.23273 0.05465 0.0
C1567 C 0.99173 0.27503 0.89782 0.0
C1568 C 0.00123 0.25966 0.98386 0.0
H1569 H 0.00858 0.22881 0.00494 0.0
C1570 C 0.99539 0.26326 0.01563 0.0
C1571 C 0.00653 0.24729 0.98041 0.0
C1572 C 0.0135 0.24318 0.94754 0.0
C1573 C 0.99404 0.25453 0.04336 0.0
C1574 C -0.00146 0.24189 0.03897 0.0
C1575 C 0.00506 0.23851 0.00805 0.0
C1576 C 0.99544 0.23174 0.06455 0.0
C1577 C 0.9875 0.25877 0.07677 0.0
C1578 C 0.00515 0.22521 0.08257 0.0
C1579 C 0.00212 0.21487 0.10441 0.0
C1580 C 0.98935 0.2108 0.10811 0.0
C1581 C 0.97966 0.21759 0.09046 0.0
C1582 C 0.98268 0.22795 0.06893 0.0
H1583 H 0.98787 0.26934 0.07993 0.0
H1584 H 0.97729 0.25587 0.07583 0.0
H1585 H 0.99195 0.25423 0.10019 0.0
H1586 H 0.01507 0.228 0.07935 0.0
H1587 H 0.00981 0.20995 0.11792 0.0
H1588 H 0.27268 0.98451 0.6171 0.0
H1589 H 0.25646 0.98813 0.57164 0.0
H1590 H 0.28412 0.00847 0.50872 0.0
H1591 H 0.30041 0.00478 0.55364 0.0
H1592 H 0.25863 0.01967 0.51028 0.0
H1593 H 0.25934 0.96785 0.47738 0.0
H1594 H 0.25638 0.97143 0.52293 0.0
H1595 H 0.2716 0.97535 0.50373 0.0
C1596 C 0.27527 0.98984 0.59371 0.0
C1597 C 0.28785 0.99428 0.58887 0.0
C1598 C 0.26601 0.99192 0.56786 0.0
C1599 C 0.26918 0.99841 0.53675 0.0
C1600 C 0.28151 0.00344 0.53262 0.0
H1601 H 0.22569 0.98911 0.34377 0.0
H1602 H 0.2435 0.99224 0.38479 0.0
C1603 C 0.29079 0.00137 0.55842 0.0
C1604 C 0.25995 -0.00086 0.50742 0.0
H1605 H 0.24364 0.98049 0.44909 0.0
C1606 C 0.25536 0.01114 0.49675 0.0
C1607 C 0.25597 0.98799 0.48944 0.0
C1608 C 0.26114 0.97492 0.49865 0.0
C1609 C 0.2465 0.01224 0.4691 0.0
C1610 C 0.24212 0.00102 0.4521 0.0
C1611 C 0.24702 0.98908 0.46221 0.0
C1612 C 0.23195 0.00124 0.42508 0.0
C1613 C 0.24197 0.02536 0.45824 0.0
C1614 C 0.21964 0.0055 0.43392 0.0
C1615 C 0.20948 0.0037 0.41064 0.0
C1616 C 0.21143 0.99752 0.37819 0.0
C1617 C 0.22389 0.99382 0.36869 0.0
C1618 C 0.23406 0.99564 0.392 0.0
H1619 H 0.2489 0.0329 0.4661 0.0
H1620 H 0.24046 0.02589 0.42934 0.0
H1621 H 0.23273 0.02744 0.47143 0.0
H1622 H 0.21774 0.00955 0.45964 0.0
H1623 H 0.19996 0.00644 0.41903 0.0
H1624 H 0.51583 0.225 0.86077 0.0
H1625 H 0.51268 0.24152 0.90575 0.0
H1626 H 0.48896 0.21565 0.96543 0.0
H1627 H 0.492 0.19916 0.92071 0.0
H1628 H 0.47995 0.24084 0.9661 0.0
H1629 H 0.53156 0.23785 -0.00014 0.0
H1630 H 0.52851 0.2417 0.95457 0.0
H1631 H 0.52377 0.22636 0.97161 0.0
C1632 C 0.5098 0.22292 0.88325 0.0
C1633 C 0.50422 0.21078 0.88731 0.0
C1634 C 0.50804 0.23233 0.90891 0.0
C1635 C 0.50081 0.22968 0.93918 0.0
C1636 C 0.4946 0.21785 0.94228 0.0
H1637 H 0.51165 0.27155 0.13454 0.0
H1638 H 0.50852 0.25423 0.09189 0.0
C1639 C 0.4963 0.20847 0.91658 0.0
C1640 C 0.50044 0.23884 0.96878 0.0
H1641 H 0.51957 0.2541 0.0281 0.0
C1642 C 0.48859 0.24374 0.97977 0.0
C1643 C 0.5117 0.24232 0.98707 0.0
C1644 C 0.52459 0.2367 0.97798 0.0
C1645 C 0.48776 0.25235 0.00806 0.0
C1646 C 0.4991 0.25627 0.02528 0.0
C1647 C 0.51089 0.25111 0.01479 0.0
C1648 C 0.49917 0.26618 0.0531 0.0
C1649 C 0.47475 0.25704 0.01943 0.0
C1650 C 0.49475 0.27855 0.04563 0.0
C1651 C 0.49648 0.2884 0.06992 0.0
C1652 C 0.50279 0.28609 0.10199 0.0
C1653 C 0.50681 0.2736 0.10998 0.0
C1654 C 0.505 0.26371 0.08571 0.0
H1655 H 0.46709 0.25021 0.01175 0.0
H1656 H 0.47434 0.25852 0.04835 0.0
H1657 H 0.47271 0.26631 0.00633 0.0
H1658 H 0.49056 0.28075 0.02028 0.0
H1659 H 0.49353 0.29798 0.06268 0.0
H1660 H 0.29257 0.48791 0.41288 0.0
H1661 H 0.27503 0.48305 0.45274 0.0
H1662 H 0.25584 0.51774 0.42098 0.0
H1663 H 0.27274 0.52208 0.37866 0.0
H1664 H 0.2689 0.49553 0.50768 0.0
H1665 H 0.22608 0.49457 0.42332 0.0
H1666 H 0.24203 0.49437 0.40514 0.0
H1667 H 0.23443 0.50932 0.41654 0.0
C1668 C 0.2844 0.49427 0.4132 0.0
C1669 C 0.28413 0.50542 0.39237 0.0
C1670 C 0.27442 0.49154 0.43643 0.0
C1671 C 0.26403 0.49994 0.4397 0.0
C1672 C 0.26357 0.5109 0.41836 0.0
H1673 H 0.22229 0.51897 0.62399 0.0
H1674 H 0.23848 0.51449 0.57973 0.0
C1675 C 0.2734 0.51351 0.39458 0.0
C1676 C 0.25438 0.49801 0.46784 0.0
H1677 H 0.22243 0.50005 0.48471 0.0
C1678 C 0.25871 0.49626 0.50253 0.0
C1679 C 0.24108 0.49863 0.46124 0.0
C1680 C 0.23566 0.49917 0.42445 0.0
C1681 C 0.25016 0.49585 0.53093 0.0
C1682 C 0.23696 0.4978 0.52462 0.0
C1683 C 0.23257 0.4988 0.48976 0.0
C1684 C 0.22762 0.4996 0.55358 0.0
C1685 C 0.25542 0.49338 0.56729 0.0
C1686 C 0.21598 0.49293 0.55338 0.0
C1687 C 0.20645 0.49585 0.57782 0.0
C1688 C 0.20841 0.50543 0.60336 0.0
C1689 C 0.22032 0.51169 0.60446 0.0
C1690 C 0.22973 0.50895 0.57951 0.0
H1691 H 0.26412 0.48728 0.56606 0.0
H1692 H 0.25824 0.50261 0.57948 0.0
H1693 H 0.24827 0.48862 0.58448 0.0
H1694 H 0.21409 0.48573 0.53353 0.0
H1695 H 0.19736 0.49097 0.57551 0.0
H1696 H 0.07562 0.63141 0.03282 0.0
H1697 H 0.0901 0.62187 0.9893 0.0
H1698 H 0.07233 0.58509 0.0054 0.0
H1699 H 0.05773 0.59456 0.04852 0.0
H1700 H 0.10741 0.60008 0.00116 0.0
H1701 H 0.07123 0.59147 0.89668 0.0
H1702 H 0.06874 0.60273 0.9321 0.0
H1703 H 0.06682 0.58588 0.93975 0.0
C1704 C 0.07471 0.62132 0.02675 0.0
C1705 C 0.06552 0.61372 0.04391 0.0
C1706 C 0.08303 0.61589 0.00213 0.0
C1707 C 0.08217 0.60283 0.99404 0.0
C1708 C 0.07302 0.59523 0.0111 0.0
H1709 H 0.11722 0.54767 0.85992 0.0
H1710 H 0.1052 0.55959 0.90387 0.0
C1711 C 0.06476 0.60062 0.03585 0.0
C1712 C 0.09095 0.59703 0.96815 0.0
H1713 H 0.09148 0.58155 0.88921 0.0
C1714 C 0.104 0.59612 0.9765 0.0
C1715 C 0.08641 0.59194 0.93608 0.0
C1716 C 0.07255 0.59312 0.92534 0.0
C1717 C 0.11258 0.58974 0.9541 0.0
C1718 C 0.10796 0.58437 0.92238 0.0
C1719 C 0.09496 0.58561 0.91367 0.0
C1720 C 0.11625 0.57696 0.89832 0.0
C1721 C 0.12638 0.58838 0.96513 0.0
C1722 C 0.12661 0.58274 0.88101 0.0
C1723 C 0.13368 0.57586 0.85611 0.0
C1724 C 0.13043 0.56313 0.84794 0.0
C1725 C 0.1202 0.55734 0.86601 0.0
C1726 C 0.11321 0.56419 0.89092 0.0
H1727 H 0.12773 0.59048 0.99356 0.0
H1728 H 0.12994 0.57857 0.95966 0.0
H1729 H 0.13231 0.59522 0.94987 0.0
H1730 H 0.12899 0.59266 0.88597 0.0
H1731 H 0.14153 0.58058 0.84279 0.0
H1732 H 0.91356 0.13698 0.32822 0.0
H1733 H 0.90388 0.12515 0.37704 0.0
H1734 H 0.94142 0.11679 0.41822 0.0
H1735 H 0.95115 0.12852 0.36952 0.0
H1736 H 0.90873 0.09918 0.38667 0.0
H1737 H 0.92132 0.12668 0.50675 0.0
H1738 H 0.92191 0.13357 0.46316 0.0
H1739 H 0.93464 0.12338 0.47829 0.0
C1740 C 0.91973 0.13281 0.34805 0.0
C1741 C 0.93312 0.13364 0.34499 0.0
C1742 C 0.9142 0.1261 0.37593 0.0
C1743 C 0.92194 0.12019 0.40133 0.0
C1744 C 0.93527 0.12152 0.3993 0.0
H1745 H 0.91016 0.06342 0.56414 0.0
H1746 H 0.91897 0.07896 0.52232 0.0
C1747 C 0.94082 0.12823 0.37144 0.0
C1748 C 0.91618 0.11141 0.42743 0.0
H1749 H 0.91344 0.10549 0.51545 0.0
C1750 C 0.90964 0.10062 0.41485 0.0
C1751 C 0.91753 0.11327 0.46409 0.0
C1752 C 0.92413 0.12491 0.47897 0.0
C1753 C 0.90459 0.09147 0.43796 0.0
C1754 C 0.90594 0.09331 0.47463 0.0
C1755 C 0.91245 0.10413 0.48728 0.0
C1756 C 0.90059 0.08411 0.50023 0.0
C1757 C 0.89816 0.07975 0.4229 0.0
C1758 C 0.88736 0.082 0.50183 0.0
C1759 C 0.88232 0.07316 0.52557 0.0
C1760 C 0.89043 0.06631 0.54832 0.0
C1761 C 0.90368 0.06858 0.54702 0.0
C1762 C 0.90872 0.07743 0.52317 0.0
H1763 H 0.90077 0.0782 0.39487 0.0
H1764 H 0.90075 0.07106 0.43812 0.0
H1765 H 0.88762 0.08098 0.42435 0.0
H1766 H 0.88092 0.08727 0.48483 0.0
H1767 H 0.87205 0.07184 0.52654 0.0
H1768 H 0.40709 0.89238 0.08873 0.0
H1769 H 0.39171 0.90233 0.04873 0.0
H1770 H 0.41648 0.89407 0.96082 0.0
H1771 H 0.43217 0.8846 0.00076 0.0
H1772 H 0.40776 0.9187 0.96067 0.0
H1773 H 0.36744 0.88483 0.97999 0.0
H1774 H 0.37343 0.89182 0.01991 0.0
H1775 H 0.38352 0.88138 0.99452 0.0
C1776 C 0.40932 0.89276 0.06091 0.0
C1777 C 0.42087 0.8877 0.04794 0.0
C1778 C 0.40043 0.89829 0.03804 0.0
C1779 C 0.40286 0.89874 0.00177 0.0
C1780 C 0.41438 0.89371 0.98873 0.0
H1781 H 0.35531 0.9152 0.82362 0.0
H1782 H 0.3666 0.90524 0.87287 0.0
C1783 C 0.42329 0.88823 0.01156 0.0
C1784 C 0.39371 0.90494 0.97744 0.0
H1785 H 0.36317 0.90333 0.94571 0.0
C1786 C 0.398 0.91536 0.95743 0.0
C1787 C 0.38102 0.90047 0.97312 0.0
C1788 C 0.37608 0.88894 0.99276 0.0
C1789 C 0.38999 0.92142 0.93301 0.0
C1790 C 0.37722 0.91713 0.92915 0.0
C1791 C 0.3729 0.90671 0.94918 0.0
C1792 C 0.36859 0.92281 0.90254 0.0
C1793 C 0.39542 0.93209 0.91073 0.0
C1794 C 0.36544 0.93585 0.90375 0.0
C1795 C 0.35913 0.9416 0.87546 0.0
C1796 C 0.35577 0.93436 0.84564 0.0
C1797 C 0.358 0.92108 0.84591 0.0
C1798 C 0.36437 0.91536 0.87411 0.0
H1799 H 0.40605 0.93219 0.91121 0.0
H1800 H 0.39222 0.93119 0.88296 0.0
H1801 H 0.392 0.94142 0.92102 0.0
H1802 H 0.36841 0.9417 0.92583 0.0
H1803 H 0.35762 0.95185 0.87607 0.0
H1804 H 0.56499 0.34793 0.36422 0.0
H1805 H 0.57623 0.35806 0.41371 0.0
H1806 H 0.58008 0.3928 0.35343 0.0
H1807 H 0.56872 0.38296 0.30447 0.0
H1808 H 0.60327 0.38362 0.38851 0.0
H1809 H 0.56072 0.38735 0.47642 0.0
H1810 H 0.56425 0.37197 0.45738 0.0
H1811 H 0.55922 0.38489 0.42955 0.0
C1812 C 0.5682 0.35774 0.36162 0.0
C1813 C 0.56604 0.3646 0.3303 0.0
C1814 C 0.57462 0.36349 0.38983 0.0
C1815 C 0.57892 0.37617 0.38712 0.0
C1816 C 0.57688 0.38298 0.35588 0.0
H1817 H 0.61471 0.43714 0.49874 0.0
H1818 H 0.60597 0.42198 0.45604 0.0
C1819 C 0.57046 0.37729 0.32784 0.0
C1820 C 0.58543 0.3826 0.41673 0.0
H1821 H 0.57988 0.39656 0.49644 0.0
C1822 C 0.59822 0.38634 0.41232 0.0
C1823 C 0.57879 0.38607 0.44768 0.0
C1824 C 0.56496 0.38246 0.45322 0.0
C1825 C 0.60449 0.39373 0.43781 0.0
C1826 C 0.59768 0.3977 0.46806 0.0
C1827 C 0.58504 0.39354 0.47311 0.0
C1828 C 0.60326 0.40672 0.49386 0.0
C1829 C 0.61833 0.39729 0.43201 0.0
C1830 C 0.60433 0.40327 0.52941 0.0
C1831 C 0.60927 0.41194 0.55389 0.0
C1832 C 0.61315 0.42423 0.54324 0.0
C1833 C 0.612 0.42767 0.50763 0.0
C1834 C 0.60703 0.41901 0.4832 0.0
H1835 H 0.62314 0.39045 0.41394 0.0
H1836 H 0.61881 0.40693 0.41985 0.0
H1837 H 0.62368 0.39755 0.45726 0.0
H1838 H 0.6014 0.39385 0.53815 0.0
H1839 H 0.61017 0.40896 0.58108 0.0
H1840 H 0.14982 0.92802 0.12994 0.0
H1841 H 0.13907 0.91629 0.08233 0.0
H1842 H 0.10417 0.91579 0.14303 0.0
H1843 H 0.11484 0.92723 0.19055 0.0
H1844 H 0.10881 0.89289 0.11263 0.0
H1845 H 0.11362 0.93211 0.01459 0.0
H1846 H 0.12844 0.92634 0.03247 0.0
H1847 H 0.11717 0.93434 0.06064 0.0
C1848 C 0.13987 0.92535 0.13303 0.0
C1849 C 0.13318 0.92849 0.16395 0.0
C1850 C 0.13373 0.91871 0.10584 0.0
C1851 C 0.12077 0.91533 0.10898 0.0
C1852 C 0.11418 0.91827 0.14009 0.0
H1853 H 0.06244 0.90106 0.95666 0.0
H1854 H 0.07764 0.90949 -0.00019 0.0
C1855 C 0.12031 0.92477 0.16729 0.0
C1856 C 0.11382 0.90895 0.07992 0.0
H1857 H 0.10317 0.91334 0.99586 0.0
C1858 C 0.10764 0.8973 0.08698 0.0
C1859 C 0.11221 0.91482 0.04666 0.0
C1860 C 0.1181 0.92764 0.03809 0.0
C1861 C 0.09961 0.89152 0.06205 0.0
C1862 C 0.09802 0.89738 0.02876 0.0
C1863 C 0.10447 0.90885 0.02136 0.0
C1864 C 0.08908 0.89222 0.00207 0.0
C1865 C 0.09245 0.87953 0.07225 0.0
C1866 C 0.09055 0.87978 0.98876 0.0
C1867 C 0.08179 0.87491 0.96443 0.0
C1868 C 0.07156 0.8825 0.95255 0.0
C1869 C 0.07028 0.89505 0.96527 0.0
C1870 C 0.07895 0.89985 0.98989 0.0
H1871 H 0.09222 0.87816 0.10125 0.0
H1872 H 0.08246 0.87978 0.06237 0.0
H1873 H 0.0973 0.8711 0.06053 0.0
H1874 H 0.09848 0.87385 0.99713 0.0
H1875 H 0.0831 0.86527 0.95455 0.0
H1876 H 0.56999 0.10929 0.70219 0.0
H1877 H 0.58273 0.09882 0.65699 0.0
H1878 H 0.58737 0.13484 0.60307 0.0
H1879 H 0.57458 0.14551 0.64869 0.0
H1880 H 0.57973 0.11533 0.55929 0.0
H1881 H 0.62105 0.09959 0.63912 0.0
H1882 H 0.60615 0.09489 0.65865 0.0
H1883 H 0.60992 0.11163 0.65415 0.0
C1884 C 0.57395 0.11508 0.6812 0.0
C1885 C 0.57141 0.12828 0.67927 0.0
C1886 C 0.58125 0.10906 0.65537 0.0
C1887 C 0.58623 0.1161 0.62714 0.0
C1888 C 0.58371 0.12928 0.62492 0.0
H1889 H 0.63567 0.07584 0.47667 0.0
H1890 H 0.62783 0.09152 0.51951 0.0
C1891 C 0.57637 0.13533 0.65085 0.0
C1892 C 0.59325 0.10938 0.59883 0.0
H1893 H 0.61741 0.088 0.58504 0.0
C1894 C 0.5881 0.10953 0.56473 0.0
C1895 C 0.60429 0.10197 0.60586 0.0
C1896 C 0.61075 0.10211 0.64137 0.0
C1897 C 0.59327 0.10187 0.53795 0.0
C1898 C 0.60367 0.09369 0.54577 0.0
C1899 C 0.60929 0.09412 0.57928 0.0
C1900 C 0.60846 0.0842 0.52006 0.0
C1901 C 0.58742 0.1025 0.50167 0.0
C1902 C 0.60024 0.07472 0.50689 0.0
C1903 C 0.60469 0.06576 0.48257 0.0
C1904 C 0.61749 0.06602 0.47126 0.0
C1905 C 0.62579 0.07533 0.48517 0.0
C1906 C 0.62132 0.08433 0.50942 0.0
H1907 H 0.58252 0.11179 0.4972 0.0
H1908 H 0.59478 0.10116 0.48092 0.0
H1909 H 0.58018 0.0948 0.49897 0.0
H1910 H 0.59038 0.07422 0.51555 0.0
H1911 H 0.59813 0.05857 0.47274 0.0
H1912 H 0.36463 0.54817 0.12931 0.0
H1913 H 0.37641 0.55883 0.08211 0.0
H1914 H 0.37615 0.59403 0.14132 0.0
H1915 H 0.36398 0.58356 0.18823 0.0
H1916 H 0.37236 0.59733 0.06784 0.0
H1917 H 0.41458 0.56698 0.09843 0.0
H1918 H 0.40023 0.55823 0.08846 0.0
H1919 H 0.40089 0.56807 0.12723 0.0
C1920 C 0.36676 0.55827 0.1319 0.0
C1921 C 0.36349 0.56499 0.16268 0.0
C1922 C 0.37361 0.5643 0.10508 0.0
C1923 C 0.37737 0.57711 0.10867 0.0
C1924 C 0.37342 0.58409 0.13826 0.0
H1925 H 0.44102 0.61395 0.00349 0.0
H1926 H 0.42588 0.60526 0.04642 0.0
C1927 C 0.36654 0.57808 0.16508 0.0
C1928 C 0.38613 0.58301 0.08279 0.0
H1929 H 0.4163 0.58066 0.04909 0.0
C1930 C 0.38196 0.5937 0.06365 0.0
C1931 C 0.39873 0.57838 0.078 0.0
C1932 C 0.40396 0.56736 0.09931 0.0
C1933 C 0.39003 0.59978 0.0393 0.0
C1934 C 0.40249 0.59489 0.03372 0.0
C1935 C 0.4067 0.58432 0.05326 0.0
C1936 C 0.41138 0.6006 0.00781 0.0
C1937 C 0.38524 0.61151 0.02025 0.0
C1938 C 0.40827 0.60075 0.97192 0.0
C1939 C 0.41685 0.60577 0.9474 0.0
C1940 C 0.42876 0.61063 0.9583 0.0
C1941 C 0.43187 0.61042 0.99431 0.0
C1942 C 0.42326 0.60541 0.01882 0.0
H1943 H 0.377 0.61596 0.0341 0.0
H1944 H 0.39295 0.61876 0.01752 0.0
H1945 H 0.38203 0.60874 0.99348 0.0
H1946 H 0.39924 0.59687 0.96282 0.0
H1947 H 0.41411 0.60593 0.91991 0.0
H1948 H 0.93507 0.3467 0.62849 0.0
H1949 H 0.92418 0.35698 0.57861 0.0
H1950 H 0.92142 0.39207 0.6378 0.0
H1951 H 0.93245 0.3821 0.68707 0.0
H1952 H 0.89783 0.38305 0.60264 0.0
H1953 H 0.94069 0.38598 0.51557 0.0
H1954 H 0.93686 0.3708 0.53538 0.0
H1955 H 0.94207 0.38381 0.56258 0.0
C1956 C 0.93218 0.35661 0.63078 0.0
C1957 C 0.93454 0.36353 0.66189 0.0
C1958 C 0.92595 0.36245 0.60234 0.0
C1959 C 0.92206 0.37527 0.60466 0.0
C1960 C 0.9243 0.38214 0.63568 0.0
H1961 H 0.88762 0.43722 0.49471 0.0
H1962 H 0.89623 0.42172 0.53668 0.0
C1963 C 0.93053 0.37637 0.66391 0.0
C1964 C 0.91574 0.38179 0.57489 0.0
H1965 H 0.92187 0.39594 0.49577 0.0
C1966 C 0.90301 0.38574 0.57903 0.0
C1967 C 0.92256 0.38522 0.5442 0.0
C1968 C 0.93632 0.38132 0.53896 0.0
C1969 C 0.89699 0.39337 0.5536 0.0
C1970 C 0.904 0.39735 0.52371 0.0
C1971 C 0.91656 0.39293 0.51885 0.0
C1972 C 0.89871 0.40664 0.49819 0.0
C1973 C 0.8832 0.39717 0.55912 0.0
C1974 C 0.89762 0.40342 0.46249 0.0
C1975 C 0.89276 0.41228 0.43842 0.0
C1976 C 0.88899 0.42454 0.44965 0.0
C1977 C 0.89026 0.42778 0.48538 0.0
C1978 C 0.89514 0.41893 0.50938 0.0
H1979 H 0.87818 0.39033 0.57674 0.0
H1980 H 0.88285 0.40674 0.57171 0.0
H1981 H 0.87796 0.39768 0.53373 0.0
H1982 H 0.9004 0.394 0.45334 0.0
H1983 H 0.89177 0.40946 0.41112 0.0
H1984 H 0.94364 0.36954 0.00673 0.0
H1985 H 0.92804 0.37847 0.0481 0.0
H1986 H 0.91111 0.40048 0.96413 0.0
H1987 H 0.92637 0.39132 0.92246 0.0
H1988 H 0.92418 0.40426 0.06464 0.0
H1989 H 0.88016 0.38264 0.00851 0.0
H1990 H 0.89601 0.37702 0.99752 0.0
H1991 H 0.88973 0.39122 0.97713 0.0
C1992 C 0.9365 0.37617 0.99701 0.0
C1993 C 0.93624 0.37972 0.96131 0.0
C1994 C 0.92764 0.3813 0.02068 0.0
C1995 C 0.9183 0.38997 0.00902 0.0
C1996 C 0.91808 0.39361 0.97351 0.0
H1997 H 0.86117 0.43724 0.11097 0.0
H1998 H 0.87471 0.42586 0.06852 0.0
C1999 C 0.92693 0.3885 0.94985 0.0
C2000 C 0.90911 0.3956 0.03424 0.0
H2001 H 0.87723 0.39877 0.05203 0.0
C2002 C 0.91392 0.40299 0.06207 0.0
C2003 C 0.89573 0.39395 0.03064 0.0
C2004 C 0.89008 0.38569 0.00204 0.0
C2005 C 0.90569 0.409 0.08608 0.0
C2006 C 0.89232 0.40738 0.08242 0.0
C2007 C 0.88749 0.39998 0.05466 0.0
C2008 C 0.88325 0.41336 0.10733 0.0
C2009 C 0.91136 0.41726 0.11471 0.0
C2010 C 0.88331 0.40978 0.14287 0.0
C2011 C 0.87566 0.41626 0.1671 0.0
C2012 C 0.86773 0.42639 0.15618 0.0
C2013 C 0.86725 0.42955 0.12021 0.0
C2014 C 0.87493 0.42304 0.09595 0.0
H2015 H 0.92144 0.41992 0.10894 0.0
H2016 H 0.90569 0.42616 0.11824 0.0
H2017 H 0.91121 0.41192 0.13994 0.0
H2018 H 0.88957 0.40222 0.15203 0.0
H2019 H 0.87642 0.4137 0.19465 0.0
H2020 H 0.07449 0.85659 0.63969 0.0
H2021 H 0.08713 0.86912 0.5975 0.0
H2022 H 0.06137 0.90099 0.61048 0.0
H2023 H 0.04885 0.8887 0.65294 0.0
H2024 H 0.07858 0.88213 0.5326 0.0
H2025 H 0.09781 0.91516 0.63436 0.0
H2026 H 0.09086 0.89982 0.6451 0.0
H2027 H 0.08073 0.91315 0.63452 0.0
C2028 C 0.07151 0.86625 0.63341 0.0
C2029 C 0.06067 0.87166 0.64958 0.0
C2030 C 0.0787 0.87336 0.6093 0.0
C2031 C 0.07524 0.886 0.60135 0.0
C2032 C 0.06425 0.89129 0.61665 0.0
H2033 H 0.10506 0.94798 0.47599 0.0
H2034 H 0.0934 0.93417 0.51699 0.0
C2035 C 0.05703 0.8842 0.64058 0.0
C2036 C 0.08321 0.8938 0.57746 0.0
H2037 H 0.10197 0.92051 0.57484 0.0
C2038 C 0.08378 0.89047 0.54176 0.0
C2039 C 0.08992 0.90467 0.58967 0.0
C2040 C 0.08993 0.9084 0.62805 0.0
C2041 C 0.09064 0.89797 0.51761 0.0
C2042 C 0.09731 0.90891 0.52978 0.0
C2043 C 0.09683 0.91214 0.56561 0.0
C2044 C 0.10464 0.91727 0.50567 0.0
C2045 C 0.09036 0.89435 0.47916 0.0
C2046 C 0.115 0.9124 0.48636 0.0
C2047 C 0.12166 0.92026 0.46296 0.0
C2048 C 0.11817 0.93316 0.45874 0.0
C2049 C 0.10803 0.9381 0.47889 0.0
C2050 C 0.10133 0.93022 0.50217 0.0
H2051 H 0.08227 0.88782 0.47304 0.0
H2052 H 0.08956 0.90298 0.46223 0.0
H2053 H 0.09938 0.88933 0.47231 0.0
H2054 H 0.11791 0.90251 0.48937 0.0
H2055 H 0.12957 0.91624 0.44822 0.0
H2056 H 0.62787 0.05819 0.12472 0.0
H2057 H 0.61477 0.07131 0.08555 0.0
H2058 H 0.60687 0.09733 0.17095 0.0
H2059 H 0.61939 0.08396 0.21071 0.0
H2060 H 0.58539 0.09029 0.13772 0.0
H2061 H 0.62137 0.10545 0.03932 0.0
H2062 H 0.62096 0.0884 0.04475 0.0
H2063 H 0.62576 0.09841 0.081 0.0
C2064 C 0.6234 0.06674 0.13514 0.0
C2065 C 0.62471 0.07003 0.17086 0.0
C2066 C 0.61605 0.07432 0.11259 0.0
C2067 C 0.61 0.0854 0.12521 0.0
C2068 C 0.61154 0.08887 0.16062 0.0
H2069 H 0.57016 0.13731 0.98238 0.0
H2070 H 0.5843 0.12872 0.02782 0.0
C2071 C 0.61882 0.08127 0.18322 0.0
C2072 C 0.60128 0.09281 0.10222 0.0
H2073 H 0.59936 0.1078 0.02264 0.0
C2074 C 0.58848 0.09425 0.11272 0.0
C2075 C 0.60536 0.09813 0.06989 0.0
C2076 C 0.61915 0.09765 0.05823 0.0
C2077 C 0.57953 0.10048 0.09121 0.0
C2078 C 0.58345 0.10512 0.05795 0.0
C2079 C 0.59634 0.1041 0.04799 0.0
C2080 C 0.57426 0.1107 0.03256 0.0
C2081 C 0.566 0.10206 0.1044 0.0
C2082 C 0.56388 0.10344 0.02032 0.0
C2083 C 0.55568 0.10838 0.99471 0.0
C2084 C 0.55779 0.12062 0.98051 0.0
C2085 C 0.56812 0.12793 0.99315 0.0
C2086 C 0.57629 0.123 0.0189 0.0
H2087 H 0.56559 0.10178 0.13361 0.0
H2088 H 0.56176 0.11121 0.09523 0.0
H2089 H 0.56005 0.09407 0.09429 0.0
H2090 H 0.56229 0.09382 0.02996 0.0
H2091 H 0.54775 0.10254 0.98577 0.0
H2092 H 0.36679 0.5564 0.51151 0.0
H2093 H 0.37547 0.57164 0.55433 0.0
H2094 H 0.39794 0.58931 0.47245 0.0
H2095 H 0.38904 0.57441 0.4294 0.0
H2096 H 0.4012 0.57499 0.57181 0.0
H2097 H 0.38045 0.61994 0.5192 0.0
H2098 H 0.37463 0.60432 0.50668 0.0
H2099 H 0.38891 0.61068 0.4869 0.0
C2100 C 0.37344 0.56364 0.50257 0.0
C2101 C 0.37724 0.56419 0.46709 0.0
C2102 C 0.37843 0.5723 0.52705 0.0
C2103 C 0.38718 0.58171 0.5164 0.0
C2104 C 0.391 0.58227 0.48106 0.0
H2105 H 0.43676 0.63646 0.61742 0.0
H2106 H 0.4243 0.62353 0.57587 0.0
C2107 C 0.38604 0.57363 0.45661 0.0
C2108 C 0.39288 0.59053 0.54251 0.0
H2109 H 0.39706 0.62217 0.56193 0.0
C2110 C 0.40019 0.5853 0.56991 0.0
C2111 C 0.39156 0.60397 0.5398 0.0
C2112 C 0.38337 0.61008 0.51176 0.0
C2113 C 0.40655 0.59317 0.59414 0.0
C2114 C 0.40537 0.60661 0.59117 0.0
C2115 C 0.39794 0.61186 0.56403 0.0
C2116 C 0.41201 0.61533 0.61575 0.0
C2117 C 0.41479 0.58705 0.6221 0.0
C2118 C 0.40893 0.61526 0.65164 0.0
C2119 C 0.41604 0.62256 0.67538 0.0
C2120 C 0.42632 0.63013 0.66358 0.0
C2121 C 0.42899 0.63063 0.62732 0.0
C2122 C 0.42185 0.62331 0.60358 0.0
H2123 H 0.41698 0.57689 0.61593 0.0
H2124 H 0.42395 0.59233 0.62523 0.0
H2125 H 0.40967 0.58733 0.64767 0.0
H2126 H 0.40125 0.60927 0.66143 0.0
H2127 H 0.41384 0.6218 0.70315 0.0
H2128 H 0.85288 0.0618 0.87917 0.0
H2129 H 0.86478 0.07493 0.921 0.0
H2130 H 0.87704 0.0996 0.83648 0.0
H2131 H 0.86593 0.08609 0.79425 0.0
H2132 H 0.89671 0.09197 0.87342 0.0
H2133 H 0.85971 0.10919 0.96595 0.0
H2134 H 0.85931 0.09211 0.96165 0.0
H2135 H 0.85574 0.10203 0.92412 0.0
C2136 C 0.85801 0.07009 0.86948 0.0
C2137 C 0.85846 0.07282 0.83323 0.0
C2138 C 0.86466 0.07771 0.89355 0.0
C2139 C 0.87169 0.08835 0.88197 0.0
C2140 C 0.87162 0.09148 0.84606 0.0
H2141 H 0.91267 0.13806 0.0294 0.0
H2142 H 0.89795 0.13002 0.9845 0.0
C2143 C 0.86512 0.08379 0.82195 0.0
C2144 C 0.88027 0.09532 0.90647 0.0
H2145 H 0.88149 0.10998 0.9867 0.0
C2146 C 0.89333 0.09605 0.89797 0.0
C2147 C 0.87587 0.1008 0.93831 0.0
C2148 C 0.86187 0.10112 0.94787 0.0
C2149 C 0.90217 0.10173 0.92089 0.0
C2150 C 0.89789 0.10646 0.95373 0.0
C2151 C 0.88478 0.10617 0.96173 0.0
C2152 C 0.90694 0.11143 0.98046 0.0
C2153 C 0.91598 0.10264 0.90957 0.0
C2154 C 0.91681 0.10361 0.99326 0.0
C2155 C 0.92536 0.10823 0.01846 0.0
C2156 C 0.92409 0.12072 0.03182 0.0
C2157 C 0.91407 0.12848 0.01924 0.0
C2158 C 0.90557 0.12387 0.99382 0.0
H2159 H 0.9169 0.10248 0.88043 0.0
H2160 H 0.92054 0.11151 0.91966 0.0
H2161 H 0.92132 0.09429 0.92008 0.0
H2162 H 0.91788 0.09388 0.98388 0.0
H2163 H 0.93301 0.10203 0.02728 0.0
H2164 H 0.36189 0.91733 0.5351 0.0
H2165 H 0.37159 0.90256 0.49294 0.0
H2166 H 0.40731 0.92304 0.50057 0.0
H2167 H 0.39754 0.9382 0.54144 0.0
H2168 H 0.4008 0.91798 0.43303 0.0
H2169 H 0.39673 0.87389 0.51365 0.0
H2170 H 0.38179 0.88201 0.50695 0.0
H2171 H 0.39429 0.88968 0.53172 0.0
C2172 C 0.37177 0.91877 0.52757 0.0
C2173 C 0.37895 0.92894 0.54175 0.0
C2174 C 0.37736 0.9102 0.50387 0.0
C2175 C 0.39024 0.91156 0.4942 0.0
C2176 C 0.39738 0.92176 0.50799 0.0
H2177 H 0.44014 0.85871 0.3846 0.0
H2178 H 0.42859 0.87122 0.42887 0.0
C2179 C 0.3918 0.93036 0.53152 0.0
C2180 C 0.3962 0.90265 0.46871 0.0
H2181 H 0.40342 0.8712 0.45425 0.0
C2182 C 0.40139 0.90775 0.43769 0.0
C2183 C 0.39709 0.88933 0.47509 0.0
C2184 C 0.3923 0.88339 0.5088 0.0
C2185 C 0.40737 0.89991 0.41271 0.0
C2186 C 0.40789 0.88655 0.41853 0.0
C2187 C 0.40284 0.88143 0.44971 0.0
C2188 C 0.41399 0.87783 0.39282 0.0
C2189 C 0.41332 0.90606 0.38067 0.0
C2190 C 0.40932 0.87705 0.35831 0.0
C2191 C 0.41597 0.87006 0.33292 0.0
C2192 C 0.42733 0.86357 0.34169 0.0
C2193 C 0.43154 0.86374 0.37687 0.0
C2194 C 0.42491 0.87082 0.40223 0.0
H2195 H 0.41503 0.91645 0.38471 0.0
H2196 H 0.42255 0.90142 0.37388 0.0
H2197 H 0.40675 0.90497 0.35792 0.0
H2198 H 0.40077 0.88221 0.35071 0.0
H2199 H 0.41251 0.8703 0.30605 0.0
H2200 H 0.55644 0.39291 0.01773 0.0
H2201 H 0.5719 0.40136 0.97558 0.0
H2202 H 0.59319 0.36605 0.98058 0.0
H2203 H 0.57804 0.3577 0.02398 0.0
H2204 H 0.60862 0.38711 0.9862 0.0
H2205 H 0.57594 0.39234 0.87244 0.0
H2206 H 0.57003 0.40029 0.911 0.0
H2207 H 0.57176 0.38315 0.91098 0.0
C2208 C 0.56442 0.38694 0.00994 0.0
C2209 C 0.566 0.37463 0.02421 0.0
C2210 C 0.57317 0.39173 0.98552 0.0
C2211 C 0.58358 0.38425 0.97455 0.0
C2212 C 0.58516 0.37193 0.98853 0.0
H2213 H 0.62922 0.41021 0.79727 0.0
H2214 H 0.61727 0.39662 0.83761 0.0
C2215 C 0.57643 0.36714 0.01309 0.0
C2216 C 0.59306 0.38954 0.94957 0.0
H2217 H 0.59578 0.40374 0.86914 0.0
C2218 C 0.60586 0.39062 0.96041 0.0
C2219 C 0.58949 0.39391 0.91576 0.0
C2220 C 0.57608 0.39225 0.90168 0.0
C2221 C 0.6151 0.39641 0.93881 0.0
C2222 C 0.61134 0.40148 0.90589 0.0
C2223 C 0.59864 0.39996 0.89456 0.0
C2224 C 0.62023 0.40875 0.88303 0.0
C2225 C 0.62877 0.397 0.95145 0.0
C2226 C 0.62612 0.41997 0.89533 0.0
C2227 C 0.6332 0.42767 0.87243 0.0
C2228 C 0.63436 0.4244 0.83665 0.0
C2229 C 0.62878 0.41292 0.82475 0.0
C2230 C 0.62181 0.40518 0.84771 0.0
H2231 H 0.63083 0.3893 0.97081 0.0
H2232 H 0.63561 0.39615 0.92921 0.0
H2233 H 0.63042 0.40632 0.96472 0.0
H2234 H 0.62481 0.42305 0.9223 0.0
H2235 H 0.63743 0.43639 0.88252 0.0
H2236 H 0.12485 0.58515 0.56568 0.0
H2237 H 0.11425 0.60015 0.52604 0.0
H2238 H 0.09052 0.56962 0.48635 0.0
H2239 H 0.10049 0.55471 0.52747 0.0
H2240 H 0.11328 0.60081 0.45653 0.0
H2241 H 0.06399 0.59618 0.50808 0.0
H2242 H 0.07767 0.58973 0.53093 0.0
H2243 H 0.07048 0.58102 0.49512 0.0
C2244 C 0.1172 0.58165 0.54904 0.0
C2245 C 0.11345 0.56872 0.5501 0.0
C2246 C 0.11123 0.59023 0.52616 0.0
C2247 C 0.10142 0.58607 0.50373 0.0
C2248 C 0.09784 0.57312 0.50408 0.0
H2249 H 0.07564 0.6206 0.31156 0.0
H2250 H 0.0869 0.60904 0.35793 0.0
C2251 C 0.10371 0.56456 0.52724 0.0
C2252 C 0.09523 0.59519 0.47915 0.0
H2253 H 0.06616 0.6062 0.45168 0.0
C2254 C 0.10298 0.60209 0.4557 0.0
C2255 C 0.08182 0.59706 0.47856 0.0
C2256 C 0.07302 0.59071 0.50479 0.0
C2257 C 0.09766 0.61048 0.43088 0.0
C2258 C 0.0842 0.61171 0.42878 0.0
C2259 C 0.07647 0.60515 0.45303 0.0
C2260 C 0.07788 0.61931 0.40077 0.0
C2261 C 0.10655 0.618 0.40738 0.0
C2262 C 0.06881 0.62873 0.40938 0.0
C2263 C 0.06222 0.63524 0.38282 0.0
C2264 C 0.06465 0.63248 0.34726 0.0
C2265 C 0.07382 0.62315 0.33874 0.0
C2266 C 0.08028 0.61655 0.36523 0.0
H2267 H 0.11604 0.6194 0.41998 0.0
H2268 H 0.10811 0.61261 0.38257 0.0
H2269 H 0.10251 0.62752 0.40076 0.0
H2270 H 0.06674 0.63094 0.43665 0.0
H2271 H 0.05516 0.64237 0.39005 0.0
H2272 H 0.90981 0.51801 0.25995 0.0
H2273 H 0.92242 0.53705 0.24681 0.0
H2274 H 0.88962 0.5609 0.26791 0.0
H2275 H 0.877 0.54185 0.28246 0.0
H2276 H 0.91801 0.55565 0.19536 0.0
H2277 H 0.91768 0.57653 0.33033 0.0
H2278 H 0.91306 0.56018 0.32181 0.0
H2279 H 0.90236 0.57304 0.31109 0.0
C2280 C 0.9053 0.5273 0.26228 0.0
C2281 C 0.89244 0.52842 0.27262 0.0
C2282 C 0.91249 0.53816 0.25446 0.0
C2283 C 0.90699 0.55037 0.25678 0.0
C2284 C 0.89409 0.55156 0.26649 0.0
H2285 H 0.9508 0.62106 0.2142 0.0
H2286 H 0.93239 0.60689 0.224 0.0
C2287 C 0.88687 0.54067 0.27443 0.0
C2288 C 0.91492 0.56173 0.24887 0.0
H2289 H 0.92974 0.58731 0.28725 0.0
C2290 C 0.92044 0.56268 0.2153 0.0
C2291 C 0.91802 0.57089 0.27496 0.0
C2292 C 0.91257 0.57014 0.31168 0.0
C2293 C 0.92938 0.57225 0.20754 0.0
C2294 C 0.93291 0.58102 0.23406 0.0
C2295 C 0.92694 0.58052 0.26706 0.0
C2296 C 0.94383 0.58976 0.22915 0.0
C2297 C 0.93537 0.57269 0.17143 0.0
C2298 C 0.95626 0.58477 0.2295 0.0
C2299 C 0.96675 0.59279 0.22439 0.0
C2300 C 0.96499 0.60597 0.2186 0.0
C2301 C 0.95248 0.61097 0.21884 0.0
C2302 C 0.94197 0.60291 0.22422 0.0
H2303 H 0.92979 0.56704 0.15194 0.0
H2304 H 0.93614 0.58272 0.16202 0.0
H2305 H 0.94518 0.56865 0.1728 0.0
H2306 H 0.95785 0.57464 0.23374 0.0
H2307 H 0.97624 0.58865 0.22521 0.0
H2308 H 0.90636 0.9783 0.7628 0.0
H2309 H 0.91907 0.95974 0.77981 0.0
H2310 H 0.8873 0.93488 0.75576 0.0
H2311 H 0.87464 0.95343 0.73713 0.0
H2312 H 0.91504 0.94125 0.8307 0.0
H2313 H 0.91617 0.91987 0.69635 0.0
H2314 H 0.91075 0.93601 0.70423 0.0
H2315 H 0.9006 0.92269 0.71485 0.0
C2316 C 0.90209 0.96888 0.76078 0.0
C2317 C 0.88956 0.96732 0.74809 0.0
C2318 C 0.90933 0.9583 0.77085 0.0
C2319 C 0.90418 0.94593 0.76855 0.0
C2320 C 0.89152 0.94433 0.75713 0.0
H2321 H 0.95105 0.8769 0.80468 0.0
H2322 H 0.93196 0.89034 0.79812 0.0
C2323 C 0.88426 0.95495 0.74685 0.0
C2324 C 0.91238 0.93484 0.7773 0.0
H2325 H 0.92835 0.90973 0.74013 0.0
C2326 C 0.91781 0.93425 0.81105 0.0
C2327 C 0.91593 0.92569 0.7516 0.0
C2328 C 0.91066 0.92608 0.71463 0.0
C2329 C 0.92713 0.92509 0.81933 0.0
C2330 C 0.93113 0.91638 0.79315 0.0
C2331 C 0.9252 0.91647 0.76006 0.0
C2332 C 0.94245 0.90817 0.79824 0.0
C2333 C 0.93296 0.92503 0.85565 0.0
C2334 C 0.9546 0.9138 0.79995 0.0
C2335 C 0.9655 0.90619 0.80307 0.0
C2336 C 0.96446 0.89279 0.80473 0.0
C2337 C 0.95221 0.88718 0.80309 0.0
C2338 C 0.9413 0.89482 0.79963 0.0
H2339 H 0.92678 0.93005 0.87504 0.0
H2340 H 0.93463 0.91508 0.86485 0.0
H2341 H 0.94234 0.93001 0.85481 0.0
H2342 H 0.95566 0.92409 0.79823 0.0
H2343 H 0.97475 0.91084 0.8034 0.0
H2344 H 0.51488 0.91332 0.21609 0.0
H2345 H 0.5332 0.92685 0.22931 0.0
H2346 H 0.55745 0.89351 0.23513 0.0
H2347 H 0.53934 0.87993 0.21925 0.0
H2348 H 0.54745 0.92771 0.28599 0.0
H2349 H 0.57844 0.91585 0.17206 0.0
H2350 H 0.5619 0.91101 0.17441 0.0
H2351 H 0.574 0.90213 0.19766 0.0
C2352 C 0.52415 0.90884 0.21928 0.0
C2353 C 0.52561 0.8955 0.21617 0.0
C2354 C 0.53461 0.9166 0.22726 0.0
C2355 C 0.54675 0.91123 0.23269 0.0
C2356 C 0.54824 0.89791 0.23022 0.0
H2357 H 0.60564 0.95783 0.3354 0.0
H2358 H 0.59041 0.94065 0.32205 0.0
C2359 C 0.53781 0.89013 0.22169 0.0
C2360 C 0.55766 0.91963 0.24207 0.0
H2361 H 0.58765 0.92875 0.21673 0.0
C2362 C 0.55624 0.92794 0.27083 0.0
C2363 C 0.56908 0.92 0.22206 0.0
C2364 C 0.57093 0.91186 0.18963 0.0
C2365 C 0.5658 0.93676 0.27985 0.0
C2366 C 0.57735 0.93693 0.26037 0.0
C2367 C 0.57885 0.9285 0.23186 0.0
C2368 C 0.58762 0.94633 0.26775 0.0
C2369 C 0.56317 0.94613 0.30923 0.0
C2370 C 0.59166 0.95475 0.24117 0.0
C2371 C 0.60057 0.96434 0.24854 0.0
C2372 C 0.60549 0.96573 0.28271 0.0
C2373 C 0.60183 0.95702 0.30897 0.0
C2374 C 0.59309 0.94728 0.30142 0.0
H2375 H 0.55276 0.94705 0.31461 0.0
H2376 H 0.56783 0.9427 0.33371 0.0
H2377 H 0.56701 0.95577 0.30289 0.0
H2378 H 0.58761 0.95417 0.21497 0.0
H2379 H 0.6032 0.97099 0.22791 0.0
H2380 H 0.61857 0.5411 0.70824 0.0
H2381 H 0.6047 0.55969 0.71828 0.0
H2382 H 0.57245 0.5346 0.73369 0.0
H2383 H 0.58621 0.516 0.72473 0.0
H2384 H 0.57039 0.55699 0.68089 0.0
H2385 H 0.58641 0.56943 0.81673 0.0
H2386 H 0.59818 0.56579 0.78348 0.0
H2387 H 0.58793 0.55336 0.79963 0.0
C2388 C 0.60856 0.53953 0.71423 0.0
C2389 C 0.60348 0.52706 0.71557 0.0
C2390 C 0.60067 0.55015 0.71979 0.0
C2391 C 0.58761 0.54845 0.72673 0.0
C2392 C 0.58252 0.53606 0.72823 0.0
H2393 H 0.51712 0.58601 0.76044 0.0
H2394 H 0.53509 0.57221 0.74518 0.0
C2395 C 0.59039 0.52546 0.72288 0.0
C2396 C 0.57905 0.55951 0.73183 0.0
H2397 H 0.56905 0.58099 0.79356 0.0
C2398 C 0.57017 0.56237 0.70532 0.0
C2399 C 0.57893 0.56652 0.76358 0.0
C2400 C 0.58832 0.56368 0.7927 0.0
C2401 C 0.56086 0.57185 0.7102 0.0
C2402 C 0.56025 0.57837 0.74279 0.0
C2403 C 0.56952 0.57592 0.76868 0.0
C2404 C 0.54945 0.58695 0.75156 0.0
C2405 C 0.55167 0.57469 0.68057 0.0
C2406 C 0.55161 0.59974 0.76117 0.0
C2407 C 0.54133 0.60763 0.77043 0.0
C2408 C 0.52876 0.60281 0.77054 0.0
C2409 C 0.52669 0.58998 0.761 0.0
C2410 C 0.53693 0.58212 0.75179 0.0
H2411 H 0.55588 0.57216 0.65462 0.0
H2412 H 0.54289 0.56886 0.6841 0.0
H2413 H 0.54891 0.58495 0.68024 0.0
H2414 H 0.56123 0.60359 0.7615 0.0
H2415 H 0.54324 0.61743 0.77805 0.0
H2416 H 0.09944 0.46949 0.76018 0.0
H2417 H 0.08726 0.44998 0.7698 0.0
H2418 H 0.10891 0.43094 0.68853 0.0
H2419 H 0.12072 0.45075 0.67727 0.0
H2420 H 0.08423 0.42682 0.68007 0.0
H2421 H 0.09596 0.41738 0.81903 0.0
H2422 H 0.09014 0.43341 0.81436 0.0
H2423 H 0.10481 0.42876 0.79288 0.0
C2424 C 0.10162 0.46119 0.74422 0.0
C2425 C 0.11101 0.46173 0.71776 0.0
C2426 C 0.09479 0.44995 0.75022 0.0
C2427 C 0.09736 0.43891 0.73042 0.0
C2428 C 0.10688 0.43931 0.70438 0.0
H2429 H 0.05077 0.37277 0.79314 0.0
H2430 H 0.06971 0.38553 0.77818 0.0
C2431 C 0.11366 0.45062 0.69813 0.0
C2432 C 0.08928 0.42739 0.73508 0.0
H2433 H 0.07567 0.40872 0.79843 0.0
C2434 C 0.08256 0.42267 0.70584 0.0
C2435 C 0.0873 0.42174 0.76849 0.0
C2436 C 0.09507 0.42551 0.80033 0.0
C2437 C 0.07325 0.41311 0.70957 0.0
C2438 C 0.07033 0.40844 0.7436 0.0
C2439 C 0.07771 0.41248 0.77241 0.0
C2440 C 0.05909 0.40016 0.75035 0.0
C2441 C 0.06653 0.40826 0.67704 0.0
C2442 C 0.04685 0.4042 0.7399 0.0
C2443 C 0.03609 0.3969 0.74812 0.0
C2444 C 0.03733 0.38555 0.76758 0.0
C2445 C 0.04957 0.38152 0.77821 0.0
C2446 C 0.06036 0.38876 0.76959 0.0
H2447 H 0.07284 0.40895 0.65358 0.0
H2448 H 0.06343 0.39816 0.68013 0.0
H2449 H 0.05797 0.41426 0.6719 0.0
H2450 H 0.04556 0.41318 0.72614 0.0
H2451 H 0.02674 0.40033 0.74016 0.0
H2452 H 0.03252 0.11211 0.25397 0.0
H2453 H 0.04957 0.09683 0.26738 0.0
H2454 H 0.04096 0.07599 0.17242 0.0
H2455 H 0.02358 0.09093 0.15924 0.0
H2456 H 0.04391 0.0665 0.26695 0.0
H2457 H 0.08224 0.08529 0.17903 0.0
H2458 H 0.07007 0.09559 0.1975 0.0
H2459 H 0.06601 0.08464 0.16297 0.0
C2460 C 0.03419 0.10425 0.23598 0.0
C2461 C 0.02663 0.10272 0.20559 0.0
C2462 C 0.04399 0.0956 0.24359 0.0
C2463 C 0.04649 0.08538 0.22077 0.0
C2464 C 0.03919 0.08392 0.19011 0.0
H2465 H 0.10178 0.02414 0.21573 0.0
H2466 H 0.08597 0.04064 0.20238 0.0
C2467 C 0.02932 0.09251 0.18258 0.0
C2468 C 0.05633 0.07585 0.22988 0.0
H2469 H 0.08675 0.06641 0.21068 0.0
C2470 C 0.05331 0.06646 0.25484 0.0
C2471 C 0.06846 0.07587 0.21367 0.0
C2472 C 0.07202 0.08589 0.18684 0.0
C2473 C 0.06212 0.05688 0.26374 0.0
C2474 C 0.07438 0.05696 0.24787 0.0
C2475 C 0.07738 0.06641 0.2229 0.0
C2476 C 0.08413 0.04714 0.25622 0.0
C2477 C 0.05807 0.04656 0.28922 0.0
C2478 C 0.08848 0.04545 0.29085 0.0
C2479 C 0.09734 0.03587 0.2987 0.0
C2480 C 0.10218 0.02791 0.27194 0.0
C2481 C 0.09806 0.0299 0.2371 0.0
C2482 C 0.08912 0.03941 0.22934 0.0
H2483 H 0.04748 0.04585 0.29114 0.0
H2484 H 0.06192 0.03709 0.28128 0.0
H2485 H 0.06181 0.04888 0.3158 0.0
H2486 H 0.08496 0.05151 0.31186 0.0
H2487 H 0.10023 0.03457 0.32583 0.0
H2488 H 0.40174 0.02136 0.75222 0.0
H2489 H 0.416 0.03946 0.76315 0.0
H2490 H 0.39404 0.06263 0.69113 0.0
H2491 H 0.37979 0.04446 0.67978 0.0
H2492 H 0.41946 0.06457 0.67916 0.0
H2493 H 0.40974 0.0713 0.82112 0.0
H2494 H 0.41436 0.05517 0.81113 0.0
H2495 H 0.39972 0.06153 0.79327 0.0
C2496 C 0.39985 0.03036 0.73911 0.0
C2497 C 0.38963 0.03154 0.71529 0.0
C2498 C 0.40797 0.04071 0.74545 0.0
C2499 C 0.40592 0.05245 0.72847 0.0
C2500 C 0.39573 0.05366 0.70465 0.0
H2501 H 0.45047 0.11957 0.79118 0.0
H2502 H 0.4326 0.10529 0.77699 0.0
C2503 C 0.38765 0.04328 0.6981 0.0
C2504 C 0.41483 0.06325 0.73431 0.0
H2505 H 0.42888 0.08108 0.79881 0.0
C2506 C 0.42141 0.0683 0.70526 0.0
C2507 C 0.41719 0.06826 0.76828 0.0
C2508 C 0.40977 0.06388 0.80016 0.0
C2509 C 0.43071 0.07785 0.70947 0.0
C2510 C 0.43369 0.08223 0.74374 0.0
C2511 C 0.42671 0.07758 0.7726 0.0
C2512 C 0.44435 0.09121 0.75049 0.0
C2513 C 0.43724 0.08313 0.67718 0.0
C2514 C 0.45686 0.08798 0.74046 0.0
C2515 C 0.46704 0.09612 0.7484 0.0
C2516 C 0.46492 0.10755 0.76696 0.0
C2517 C 0.45238 0.11078 0.77702 0.0
C2518 C 0.44218 0.10267 0.76884 0.0
H2519 H 0.43117 0.082 0.65337 0.0
H2520 H 0.4396 0.09343 0.68044 0.0
H2521 H 0.44627 0.0778 0.67259 0.0
H2522 H 0.4588 0.07902 0.72719 0.0
H2523 H 0.47664 0.09329 0.74091 0.0
H2524 H 0.4688 0.40327 0.16488 0.0
H2525 H 0.45132 0.4179 0.17924 0.0
H2526 H 0.44376 0.39671 0.2744 0.0
H2527 H 0.46092 0.38172 0.2596 0.0
H2528 H 0.4216 0.40358 0.2376 0.0
H2529 H 0.4541 0.44504 0.25665 0.0
H2530 H 0.4556 0.43742 0.21449 0.0
H2531 H 0.45986 0.4288 0.25372 0.0
C2532 C 0.46331 0.4016 0.18861 0.0
C2533 C 0.4663 0.39138 0.21124 0.0
C2534 C 0.45342 0.41005 0.19695 0.0
C2535 C 0.44643 0.4085 0.22817 0.0
C2536 C 0.44913 0.39811 0.25031 0.0
H2537 H 0.40096 0.46712 0.32875 0.0
H2538 H 0.4162 0.45012 0.31509 0.0
C2539 C 0.459 0.38963 0.24196 0.0
C2540 C 0.43646 0.41785 0.23813 0.0
H2541 H 0.43184 0.44937 0.25761 0.0
C2542 C 0.42381 0.41359 0.24207 0.0
C2543 C 0.43946 0.43084 0.24444 0.0
C2544 C 0.453 0.43581 0.24246 0.0
C2545 C 0.41399 0.42207 0.25167 0.0
C2546 C 0.41693 0.43514 0.25686 0.0
C2547 C 0.42962 0.43935 0.25336 0.0
C2548 C 0.40705 0.44469 0.26622 0.0
C2549 C 0.40063 0.41692 0.25674 0.0
C2550 C 0.39683 0.44721 0.24331 0.0
C2551 C 0.38801 0.45683 0.25124 0.0
C2552 C 0.38934 0.46417 0.28208 0.0
C2553 C 0.39953 0.46151 0.3051 0.0
C2554 C 0.40831 0.45187 0.29721 0.0
H2555 H 0.40066 0.40641 0.26112 0.0
H2556 H 0.39584 0.42161 0.27942 0.0
H2557 H 0.3949 0.41889 0.23276 0.0
H2558 H 0.39584 0.44194 0.21892 0.0
H2559 H 0.38021 0.45858 0.2331 0.0
loop_
_geom_bond_atom_site_label_1
_geom_bond_atom_site_label_2
_geom_bond_distance
_geom_bond_site_symmetry_2
_ccdc_geom_bond_type
Li0 N17 1.990 1_455 S
Li0 O60 1.956 . S
Li0 O61 1.970 . S
Li0 O62 1.961 . S
Li1 N25 1.990 . S
Li1 O60 1.970 . S
Li1 O61 1.956 . S
Li1 O63 1.961 . S
Li2 N47 1.990 . S
Li2 O60 1.961 . S
Li2 O62 1.956 . S
Li2 O63 1.970 . S
Li3 N53 1.990 . S
Li3 O61 1.961 . S
Li3 O62 1.970 . S
Li3 O63 1.956 . S
C4 C6 1.348 . S
C4 C7 1.356 . S
C4 O60 1.325 . S
N5 C8 1.300 1_655 S
N5 C9 1.284 . S
C6 C4 1.348 . S
C6 C8 1.353 . S
C6 H64 0.929 . S
C7 C4 1.356 . S
C7 C9 1.358 1_455 S
C7 H65 0.930 1_455 S
C8 N5 1.300 1_455 S
C8 C6 1.353 . S
C8 H66 0.930 . S
C9 N5 1.284 . S
C9 C7 1.358 1_655 S
C9 H67 0.930 . S
C10 C13 1.348 . S
C10 C14 1.356 . S
C10 O61 1.325 . S
C11 N12 1.279 . S
C11 C14 1.358 . S
C11 H68 0.930 . S
N12 C11 1.279 . S
N12 C15 1.314 . S
C13 C10 1.348 . S
C13 C15 1.353 . S
C13 H69 0.929 . S
C14 C10 1.356 . S
C14 C11 1.358 . S
C14 H70 0.930 . S
C15 N12 1.314 . S
C15 C13 1.353 . S
C15 H71 0.930 . S
C16 N17 1.314 . S
C16 C21 1.353 . S
C16 H22 0.930 . S
N17 Li0 1.990 1_655 S
N17 C16 1.314 . S
N17 C19 1.279 . S
C18 C19 1.358 . S
C18 C20 1.356 . S
C18 H72 0.930 . S
C19 N17 1.279 . S
C19 C18 1.358 . S
C19 H23 0.930 . S
C20 C18 1.356 . S
C20 C21 1.348 . S
C21 C16 1.353 . S
C21 C20 1.348 . S
C21 H73 0.929 . S
H22 C16 0.930 . S
H23 C19 0.930 . S
C24 N25 1.314 . S
C24 C26 1.353 . S
C24 H30 0.930 . S
N25 Li1 1.990 . S
N25 C24 1.314 . S
N25 C28 1.279 . S
C26 C24 1.353 . S
C26 C29 1.348 . S
C26 H74 0.929 . S
C27 C28 1.358 . S
C27 C29 1.356 . S
C27 H75 0.930 . S
C28 N25 1.279 . S
C28 C27 1.358 . S
C28 H31 0.930 . S
C29 C26 1.348 . S
C29 C27 1.356 . S
H30 C24 0.930 . S
H31 C28 0.930 . S
C32 C34 1.348 . S
C32 C35 1.356 1_455 S
C32 O62 1.325 . S
N33 C36 1.314 1_655 S
N33 C37 1.279 . S
C34 C32 1.348 . S
C34 C36 1.353 . S
C34 H76 0.929 . S
C35 C32 1.356 1_655 S
C35 C37 1.358 . S
C35 H77 0.930 . S
C36 N33 1.314 1_455 S
C36 C34 1.353 . S
C36 H78 0.930 1_554 S
C37 N33 1.279 . S
C37 C35 1.358 . S
C37 H79 0.930 . S
C38 C39 1.348 . S
C38 C40 1.356 . S
C38 O63 1.325 . S
C39 C38 1.348 . S
C39 C41 1.353 . S
C39 H80 0.929 . S
C40 C38 1.356 . S
C40 C42 1.358 . S
C40 H81 0.930 . S
C41 C39 1.353 . S
C41 N43 1.314 . S
C41 H82 0.930 . S
C42 C40 1.358 . S
C42 N43 1.279 . S
C42 H83 0.930 . S
N43 C41 1.314 . S
N43 C42 1.279 . S
C44 C46 1.353 . S
C44 N47 1.314 . S
C44 H50 0.930 . S
C45 N47 1.279 . S
C45 C48 1.358 . S
C45 H51 0.930 . S
C46 C44 1.353 . S
C46 C49 1.348 . S
C46 H84 0.929 . S
N47 Li2 1.990 . S
N47 C44 1.314 . S
N47 C45 1.279 . S
C48 C45 1.358 . S
C48 C49 1.356 . S
C48 H85 0.930 . S
C49 C46 1.348 . S
C49 C48 1.356 . S
H50 C44 0.930 . S
H51 C45 0.930 . S
C52 N53 1.314 . S
C52 C54 1.353 . S
C52 H58 0.930 . S
N53 Li3 1.990 . S
N53 C52 1.314 . S
N53 C56 1.279 . S
C54 C52 1.353 . S
C54 C57 1.348 1_554 S
C54 H86 0.929 . S
C55 C56 1.358 . S
C55 C57 1.356 1_554 S
C55 H87 0.930 . S
C56 N53 1.279 . S
C56 C55 1.358 . S
C56 H59 0.930 . S
C57 C54 1.348 1_556 S
C57 C55 1.356 1_556 S
H58 C52 0.930 . S
H59 C56 0.930 . S
O60 Li0 1.956 . S
O60 Li1 1.970 . S
O60 Li2 1.961 . S
O60 C4 1.325 . S
O61 Li0 1.970 . S
O61 Li1 1.956 . S
O61 Li3 1.961 . S
O61 C10 1.325 . S
O62 Li0 1.961 . S
O62 Li2 1.956 . S
O62 Li3 1.970 . S
O62 C32 1.325 . S
O63 Li1 1.961 . S
O63 Li2 1.970 . S
O63 Li3 1.956 . S
O63 C38 1.325 . S
H64 C6 0.929 . S
H65 C7 0.930 1_655 S
H66 C8 0.930 . S
H67 C9 0.930 . S
H68 C11 0.930 . S
H69 C13 0.929 . S
H70 C14 0.930 . S
H71 C15 0.930 . S
H72 C18 0.930 . S
H73 C21 0.929 . S
H74 C26 0.929 . S
H75 C27 0.930 . S
H76 C34 0.929 . S
H77 C35 0.930 . S
H78 C36 0.930 1_556 S
H79 C37 0.930 . S
H80 C39 0.929 . S
H81 C40 0.930 . S
H82 C41 0.930 . S
H83 C42 0.930 . S
H84 C46 0.929 . S
H85 C48 0.930 . S
H86 C54 0.929 . S
H87 C55 0.930 . S
Li88 N105 1.990 1_545 S
Li88 O148 1.956 . S
Li88 O149 1.970 . S
Li88 O150 1.961 . S
Li89 N113 1.990 . S
Li89 O148 1.970 . S
Li89 O149 1.956 . S
Li89 O151 1.961 . S
Li90 N135 1.990 . S
Li90 O148 1.961 . S
Li90 O150 1.956 . S
Li90 O151 1.970 . S
Li91 N141 1.990 . S
Li91 O149 1.961 . S
Li91 O150 1.970 . S
Li91 O151 1.956 . S
C92 C94 1.348 . S
C92 C95 1.356 . S
C92 O148 1.325 . S
N93 C96 1.303 1_565 S
N93 C97 1.283 . S
C94 C92 1.348 . S
C94 C96 1.353 . S
C94 H152 0.929 . S
C95 C92 1.356 . S
C95 C97 1.358 1_545 S
C95 H153 0.930 1_545 S
C96 N93 1.303 1_545 S
C96 C94 1.353 . S
C96 H154 0.930 . S
C97 N93 1.283 . S
C97 C95 1.358 1_565 S
C97 H155 0.930 . S
C98 C101 1.348 . S
C98 C102 1.356 . S
C98 O149 1.325 . S
C99 N100 1.279 . S
C99 C102 1.358 . S
C99 H156 0.930 . S
N100 C99 1.279 . S
N100 C103 1.314 . S
C101 C98 1.348 . S
C101 C103 1.353 . S
C101 H157 0.929 . S
C102 C98 1.356 . S
C102 C99 1.358 . S
C102 H158 0.930 . S
C103 N100 1.314 . S
C103 C101 1.353 . S
C103 H159 0.930 . S
C104 N105 1.314 . S
C104 C109 1.353 . S
C104 H110 0.930 . S
N105 Li88 1.990 1_565 S
N105 C104 1.314 . S
N105 C107 1.279 . S
C106 C107 1.358 . S
C106 C108 1.356 . S
C106 H160 0.930 . S
C107 N105 1.279 . S
C107 C106 1.358 . S
C107 H111 0.930 . S
C108 C106 1.356 . S
C108 C109 1.348 . S
C109 C104 1.353 . S
C109 C108 1.348 . S
C109 H161 0.929 . S
H110 C104 0.930 . S
H111 C107 0.930 . S
C112 N113 1.314 . S
C112 C114 1.353 . S
C112 H118 0.930 . S
N113 Li89 1.990 . S
N113 C112 1.314 . S
N113 C116 1.279 . S
C114 C112 1.353 . S
C114 C117 1.348 . S
C114 H162 0.929 . S
C115 C116 1.358 . S
C115 C117 1.356 . S
C115 H163 0.930 . S
C116 N113 1.279 . S
C116 C115 1.358 . S
C116 H119 0.930 . S
C117 C114 1.348 . S
C117 C115 1.356 . S
H118 C112 0.930 . S
H119 C116 0.930 . S
C120 C122 1.348 . S
C120 C123 1.356 1_545 S
C120 O150 1.325 . S
N121 C124 1.314 1_565 S
N121 C125 1.279 . S
C122 C120 1.348 . S
C122 C124 1.353 . S
C122 H164 0.929 . S
C123 C120 1.356 1_565 S
C123 C125 1.358 . S
C123 H165 0.930 . S
C124 N121 1.314 1_545 S
C124 C122 1.353 . S
C124 H166 0.930 . S
C125 N121 1.279 . S
C125 C123 1.358 . S
C125 H167 0.930 . S
C126 C127 1.348 . S
C126 C128 1.356 . S
C126 O151 1.325 . S
C127 C126 1.348 . S
C127 C129 1.353 . S
C127 H168 0.929 . S
C128 C126 1.356 . S
C128 C130 1.358 . S
C128 H169 0.930 . S
C129 C127 1.353 . S
C129 N131 1.314 . S
C129 H170 0.930 . S
C130 C128 1.358 . S
C130 N131 1.279 . S
C130 H171 0.930 . S
N131 C129 1.314 . S
N131 C130 1.279 . S
C132 C134 1.353 . S
C132 N135 1.314 . S
C132 H138 0.930 . S
C133 N135 1.279 . S
C133 C136 1.358 . S
C133 H139 0.930 . S
C134 C132 1.353 . S
C134 C137 1.348 . S
C134 H172 0.929 . S
N135 Li90 1.990 . S
N135 C132 1.314 . S
N135 C133 1.279 . S
C136 C133 1.358 . S
C136 C137 1.356 . S
C136 H173 0.930 . S
C137 C134 1.348 . S
C137 C136 1.356 . S
H138 C132 0.930 . S
H139 C133 0.930 . S
C140 N141 1.314 . S
C140 C142 1.353 . S
C140 H146 0.930 . S
N141 Li91 1.990 . S
N141 C140 1.314 . S
N141 C144 1.279 . S
C142 C140 1.353 . S
C142 C145 1.348 . S
C142 H174 0.929 . S
C143 C144 1.358 . S
C143 C145 1.356 . S
C143 H175 0.930 . S
C144 N141 1.279 . S
C144 C143 1.358 . S
C144 H147 0.930 . S
C145 C142 1.348 . S
C145 C143 1.356 . S
H146 C140 0.930 . S
H147 C144 0.930 . S
O148 Li88 1.956 . S
O148 Li89 1.970 . S
O148 Li90 1.961 . S
O148 C92 1.325 . S
O149 Li88 1.970 . S
O149 Li89 1.956 . S
O149 Li91 1.961 . S
O149 C98 1.325 . S
O150 Li88 1.961 . S
O150 Li90 1.956 . S
O150 Li91 1.970 . S
O150 C120 1.325 . S
O151 Li89 1.961 . S
O151 Li90 1.970 . S
O151 Li91 1.956 . S
O151 C126 1.325 . S
H152 C94 0.929 . S
H153 C95 0.930 1_565 S
H154 C96 0.930 . S
H155 C97 0.930 . S
H156 C99 0.930 . S
H157 C101 0.929 . S
H158 C102 0.930 . S
H159 C103 0.930 . S
H160 C106 0.930 . S
H161 C109 0.929 . S
H162 C114 0.929 . S
H163 C115 0.930 . S
H164 C122 0.929 . S
H165 C123 0.930 . S
H166 C124 0.930 . S
H167 C125 0.930 . S
H168 C127 0.929 . S
H169 C128 0.930 . S
H170 C129 0.930 . S
H171 C130 0.930 . S
H172 C134 0.929 . S
H173 C136 0.930 . S
H174 C142 0.929 . S
H175 C143 0.930 . S
Li176 N193 1.990 . S
Li176 O236 1.956 . S
Li176 O237 1.970 . S
Li176 O238 1.961 . S
Li177 N201 1.990 . S
Li177 O236 1.970 . S
Li177 O237 1.956 . S
Li177 O239 1.961 . S
Li178 N223 1.990 . S
Li178 O236 1.961 . S
Li178 O238 1.956 . S
Li178 O239 1.970 . S
Li179 N229 1.990 . S
Li179 O237 1.961 . S
Li179 O238 1.970 . S
Li179 O239 1.956 . S
C180 C182 1.348 . S
C180 C183 1.356 . S
C180 O236 1.325 . S
N181 C184 1.314 . S
N181 C185 1.279 . S
C182 C180 1.348 . S
C182 C184 1.353 . S
C182 H240 0.929 . S
C183 C180 1.356 . S
C183 C185 1.358 . S
C183 H241 0.930 . S
C184 N181 1.314 . S
C184 C182 1.353 . S
C184 H242 0.930 . S
C185 N181 1.279 . S
C185 C183 1.358 . S
C185 H243 0.930 . S
C186 C189 1.348 . S
C186 C190 1.356 . S
C186 O237 1.325 . S
C187 N188 1.279 . S
C187 C190 1.358 . S
C187 H244 0.930 . S
N188 C187 1.279 . S
N188 C191 1.314 . S
C189 C186 1.348 . S
C189 C191 1.353 . S
C189 H245 0.929 . S
C190 C186 1.356 . S
C190 C187 1.358 . S
C190 H246 0.930 . S
C191 N188 1.314 . S
C191 C189 1.353 . S
C191 H247 0.930 . S
C192 N193 1.314 . S
C192 C197 1.353 . S
C192 H198 0.930 . S
N193 Li176 1.990 . S
N193 C192 1.314 . S
N193 C195 1.279 . S
C194 C195 1.358 . S
C194 C196 1.356 . S
C194 H248 0.930 . S
C195 N193 1.279 . S
C195 C194 1.358 . S
C195 H199 0.930 . S
C196 C194 1.356 . S
C196 C197 1.348 . S
C197 C192 1.353 . S
C197 C196 1.348 . S
C197 H249 0.929 . S
H198 C192 0.930 . S
H199 C195 0.930 . S
C200 N201 1.314 . S
C200 C202 1.353 . S
C200 H206 0.930 . S
N201 Li177 1.990 . S
N201 C200 1.314 . S
N201 C204 1.279 . S
C202 C200 1.353 . S
C202 C205 1.348 . S
C202 H250 0.929 . S
C203 C204 1.358 . S
C203 C205 1.356 . S
C203 H251 0.930 . S
C204 N201 1.279 . S
C204 C203 1.358 . S
C204 H207 0.930 . S
C205 C202 1.348 . S
C205 C203 1.356 . S
H206 C200 0.930 . S
H207 C204 0.930 . S
C208 C210 1.348 . S
C208 C211 1.356 . S
C208 O238 1.325 . S
N209 C212 1.314 . S
N209 C213 1.279 . S
C210 C208 1.348 . S
C210 C212 1.353 . S
C210 H252 0.929 . S
C211 C208 1.356 . S
C211 C213 1.358 . S
C211 H253 0.930 . S
C212 N209 1.314 . S
C212 C210 1.353 . S
C212 H254 0.930 1_554 S
C213 N209 1.279 . S
C213 C211 1.358 . S
C213 H255 0.930 . S
C214 C215 1.348 . S
C214 C216 1.356 . S
C214 O239 1.325 . S
C215 C214 1.348 . S
C215 C217 1.353 . S
C215 H256 0.929 . S
C216 C214 1.356 . S
C216 C218 1.358 . S
C216 H257 0.930 . S
C217 C215 1.353 . S
C217 N219 1.314 . S
C217 H258 0.930 . S
C218 C216 1.358 . S
C218 N219 1.279 . S
C218 H259 0.930 . S
N219 C217 1.314 . S
N219 C218 1.279 . S
C220 C222 1.353 . S
C220 N223 1.314 . S
C220 H226 0.930 . S
C221 N223 1.279 . S
C221 C224 1.358 . S
C221 H227 0.930 . S
C222 C220 1.353 . S
C222 C225 1.348 . S
C222 H260 0.929 . S
N223 Li178 1.990 . S
N223 C220 1.314 . S
N223 C221 1.279 . S
C224 C221 1.358 . S
C224 C225 1.356 . S
C224 H261 0.930 . S
C225 C222 1.348 . S
C225 C224 1.356 . S
H226 C220 0.930 . S
H227 C221 0.930 . S
C228 N229 1.314 . S
C228 C230 1.353 . S
C228 H234 0.930 . S
N229 Li179 1.990 . S
N229 C228 1.314 . S
N229 C232 1.279 . S
C230 C228 1.353 . S
C230 C233 1.348 1_554 S
C230 H262 0.929 . S
C231 C232 1.358 . S
C231 C233 1.356 1_554 S
C231 H263 0.930 . S
C232 N229 1.279 . S
C232 C231 1.358 . S
C232 H235 0.930 . S
C233 C230 1.348 1_556 S
C233 C231 1.356 1_556 S
H234 C228 0.930 . S
H235 C232 0.930 . S
O236 Li176 1.956 . S
O236 Li177 1.970 . S
O236 Li178 1.961 . S
O236 C180 1.325 . S
O237 Li176 1.970 . S
O237 Li177 1.956 . S
O237 Li179 1.961 . S
O237 C186 1.325 . S
O238 Li176 1.961 . S
O238 Li178 1.956 . S
O238 Li179 1.970 . S
O238 C208 1.325 . S
O239 Li177 1.961 . S
O239 Li178 1.970 . S
O239 Li179 1.956 . S
O239 C214 1.325 . S
H240 C182 0.929 . S
H241 C183 0.930 . S
H242 C184 0.930 . S
H243 C185 0.930 . S
H244 C187 0.930 . S
H245 C189 0.929 . S
H246 C190 0.930 . S
H247 C191 0.930 . S
H248 C194 0.930 . S
H249 C197 0.929 . S
H250 C202 0.929 . S
H251 C203 0.930 . S
H252 C210 0.929 . S
H253 C211 0.930 . S
H254 C212 0.930 1_556 S
H255 C213 0.930 . S
H256 C215 0.929 . S
H257 C216 0.930 . S
H258 C217 0.930 . S
H259 C218 0.930 . S
H260 C222 0.929 . S
H261 C224 0.930 . S
H262 C230 0.929 . S
H263 C231 0.930 . S
Li264 N281 1.990 . S
Li264 O324 1.956 . S
Li264 O325 1.970 . S
Li264 O326 1.961 . S
Li265 N289 1.990 . S
Li265 O324 1.970 . S
Li265 O325 1.956 . S
Li265 O327 1.961 . S
Li266 N311 1.990 . S
Li266 O324 1.961 . S
Li266 O326 1.956 . S
Li266 O327 1.970 . S
Li267 N317 1.990 . S
Li267 O325 1.961 . S
Li267 O326 1.970 . S
Li267 O327 1.956 . S
C268 C270 1.348 . S
C268 C271 1.356 . S
C268 O324 1.325 . S
N269 C272 1.314 . S
N269 C273 1.279 . S
C270 C268 1.348 . S
C270 C272 1.353 . S
C270 H328 0.929 . S
C271 C268 1.356 . S
C271 C273 1.358 . S
C271 H329 0.930 . S
C272 N269 1.314 . S
C272 C270 1.353 . S
C272 H330 0.930 . S
C273 N269 1.279 . S
C273 C271 1.358 . S
C273 H331 0.930 . S
C274 C277 1.348 . S
C274 C278 1.356 . S
C274 O325 1.325 . S
C275 N276 1.279 . S
C275 C278 1.358 . S
C275 H332 0.930 . S
N276 C275 1.279 . S
N276 C279 1.314 . S
C277 C274 1.348 . S
C277 C279 1.353 . S
C277 H333 0.929 . S
C278 C274 1.356 . S
C278 C275 1.358 . S
C278 H334 0.930 . S
C279 N276 1.314 . S
C279 C277 1.353 . S
C279 H335 0.930 . S
C280 N281 1.314 . S
C280 C285 1.353 . S
C280 H286 0.930 . S
N281 Li264 1.990 . S
N281 C280 1.314 . S
N281 C283 1.279 . S
C282 C283 1.358 . S
C282 C284 1.356 . S
C282 H336 0.930 . S
C283 N281 1.279 . S
C283 C282 1.358 . S
C283 H287 0.930 . S
C284 C282 1.356 . S
C284 C285 1.348 . S
C285 C280 1.353 . S
C285 C284 1.348 . S
C285 H337 0.929 . S
H286 C280 0.930 . S
H287 C283 0.930 . S
C288 N289 1.314 . S
C288 C290 1.353 . S
C288 H294 0.930 . S
N289 Li265 1.990 . S
N289 C288 1.314 . S
N289 C292 1.279 . S
C290 C288 1.353 . S
C290 C293 1.348 . S
C290 H338 0.929 . S
C291 C292 1.358 . S
C291 C293 1.356 . S
C291 H339 0.930 . S
C292 N289 1.279 . S
C292 C291 1.358 . S
C292 H295 0.930 . S
C293 C290 1.348 . S
C293 C291 1.356 . S
H294 C288 0.930 . S
H295 C292 0.930 . S
C296 C298 1.348 . S
C296 C299 1.356 . S
C296 O326 1.325 . S
N297 C300 1.314 . S
N297 C301 1.279 . S
C298 C296 1.348 . S
C298 C300 1.353 . S
C298 H340 0.929 . S
C299 C296 1.356 . S
C299 C301 1.358 . S
C299 H341 0.930 . S
C300 N297 1.314 . S
C300 C298 1.353 . S
C300 H342 0.930 . S
C301 N297 1.279 . S
C301 C299 1.358 . S
C301 H343 0.930 . S
C302 C303 1.348 . S
C302 C304 1.356 . S
C302 O327 1.325 . S
C303 C302 1.348 . S
C303 C305 1.353 . S
C303 H344 0.929 . S
C304 C302 1.356 . S
C304 C306 1.358 . S
C304 H345 0.930 . S
C305 C303 1.353 . S
C305 N307 1.314 . S
C305 H346 0.930 . S
C306 C304 1.358 . S
C306 N307 1.279 . S
C306 H347 0.930 . S
N307 C305 1.314 . S
N307 C306 1.279 . S
C308 C310 1.353 . S
C308 N311 1.314 . S
C308 H314 0.930 . S
C309 N311 1.279 . S
C309 C312 1.358 . S
C309 H315 0.930 . S
C310 C308 1.353 . S
C310 C313 1.348 . S
C310 H348 0.929 . S
N311 Li266 1.990 . S
N311 C308 1.314 . S
N311 C309 1.279 . S
C312 C309 1.358 . S
C312 C313 1.356 . S
C312 H349 0.930 . S
C313 C310 1.348 . S
C313 C312 1.356 . S
H314 C308 0.930 . S
H315 C309 0.930 . S
C316 N317 1.314 . S
C316 C318 1.353 . S
C316 H322 0.930 . S
N317 Li267 1.990 . S
N317 C316 1.314 . S
N317 C320 1.279 . S
C318 C316 1.353 . S
C318 C321 1.348 . S
C318 H350 0.929 . S
C319 C320 1.358 . S
C319 C321 1.356 . S
C319 H351 0.930 . S
C320 N317 1.279 . S
C320 C319 1.358 . S
C320 H323 0.930 . S
C321 C318 1.348 . S
C321 C319 1.356 . S
H322 C316 0.930 . S
H323 C320 0.930 . S
O324 Li264 1.956 . S
O324 Li265 1.970 . S
O324 Li266 1.961 . S
O324 C268 1.325 . S
O325 Li264 1.970 . S
O325 Li265 1.956 . S
O325 Li267 1.961 . S
O325 C274 1.325 . S
O326 Li264 1.961 . S
O326 Li266 1.956 . S
O326 Li267 1.970 . S
O326 C296 1.325 . S
O327 Li265 1.961 . S
O327 Li266 1.970 . S
O327 Li267 1.956 . S
O327 C302 1.325 . S
H328 C270 0.929 . S
H329 C271 0.930 . S
H330 C272 0.930 . S
H331 C273 0.930 . S
H332 C275 0.930 . S
H333 C277 0.929 . S
H334 C278 0.930 . S
H335 C279 0.930 . S
H336 C282 0.930 . S
H337 C285 0.929 . S
H338 C290 0.929 . S
H339 C291 0.930 . S
H340 C298 0.929 . S
H341 C299 0.930 . S
H342 C300 0.930 . S
H343 C301 0.930 . S
H344 C303 0.929 . S
H345 C304 0.930 . S
H346 C305 0.930 . S
H347 C306 0.930 . S
H348 C310 0.929 . S
H349 C312 0.930 . S
H350 C318 0.929 . S
H351 C319 0.930 . S
Li352 N369 1.990 . S
Li352 O412 1.956 . S
Li352 O413 1.970 . S
Li352 O414 1.961 . S
Li353 N377 1.990 . S
Li353 O412 1.970 . S
Li353 O413 1.956 . S
Li353 O415 1.961 . S
Li354 N399 1.990 1_455 S
Li354 O412 1.961 . S
Li354 O414 1.956 . S
Li354 O415 1.970 . S
Li355 N405 1.990 . S
Li355 O413 1.961 . S
Li355 O414 1.970 . S
Li355 O415 1.956 . S
C356 C358 1.348 . S
C356 C359 1.356 1_455 S
C356 O412 1.325 . S
N357 C360 1.314 1_655 S
N357 C361 1.279 . S
C358 C356 1.348 . S
C358 C360 1.353 . S
C358 H416 0.929 . S
C359 C356 1.356 1_655 S
C359 C361 1.358 . S
C359 H417 0.930 . S
C360 N357 1.314 1_455 S
C360 C358 1.353 . S
C360 H418 0.930 1_556 S
C361 N357 1.279 . S
C361 C359 1.358 . S
C361 H419 0.930 . S
C362 C365 1.348 . S
C362 C366 1.356 . S
C362 O413 1.325 . S
C363 N364 1.279 . S
C363 C366 1.358 . S
C363 H420 0.930 . S
N364 C363 1.279 . S
N364 C367 1.314 . S
C365 C362 1.348 . S
C365 C367 1.353 . S
C365 H421 0.929 . S
C366 C362 1.356 . S
C366 C363 1.358 . S
C366 H422 0.930 . S
C367 N364 1.314 . S
C367 C365 1.353 . S
C367 H423 0.930 . S
C368 N369 1.314 . S
C368 C373 1.353 . S
C368 H374 0.930 . S
N369 Li352 1.990 . S
N369 C368 1.314 . S
N369 C371 1.279 . S
C370 C371 1.358 . S
C370 C372 1.356 . S
C370 H424 0.930 . S
C371 N369 1.279 . S
C371 C370 1.358 . S
C371 H375 0.930 . S
C372 C370 1.356 . S
C372 C373 1.348 . S
C373 C368 1.353 . S
C373 C372 1.348 . S
C373 H425 0.929 . S
H374 C368 0.930 . S
H375 C371 0.930 . S
C376 N377 1.314 . S
C376 C378 1.353 . S
C376 H382 0.930 . S
N377 Li353 1.990 . S
N377 C376 1.314 . S
N377 C380 1.279 . S
C378 C376 1.353 . S
C378 C381 1.348 1_556 S
C378 H426 0.929 . S
C379 C380 1.358 . S
C379 C381 1.356 1_556 S
C379 H427 0.930 . S
C380 N377 1.279 . S
C380 C379 1.358 . S
C380 H383 0.930 . S
C381 C378 1.348 1_554 S
C381 C379 1.356 1_554 S
H382 C376 0.930 . S
H383 C380 0.930 . S
C384 C386 1.348 . S
C384 C387 1.356 . S
C384 O414 1.325 . S
N385 C388 1.303 1_655 S
N385 C389 1.283 . S
C386 C384 1.348 . S
C386 C388 1.353 . S
C386 H428 0.929 . S
C387 C384 1.356 . S
C387 C389 1.358 1_455 S
C387 H429 0.930 1_455 S
C388 N385 1.303 1_455 S
C388 C386 1.353 . S
C388 H430 0.930 . S
C389 N385 1.283 . S
C389 C387 1.358 1_655 S
C389 H431 0.930 . S
C390 C391 1.348 . S
C390 C392 1.356 . S
C390 O415 1.325 . S
C391 C390 1.348 . S
C391 C393 1.353 . S
C391 H432 0.929 . S
C392 C390 1.356 . S
C392 C394 1.358 . S
C392 H433 0.930 . S
C393 C391 1.353 . S
C393 N395 1.314 . S
C393 H434 0.930 . S
C394 C392 1.358 . S
C394 N395 1.279 . S
C394 H435 0.930 . S
N395 C393 1.314 . S
N395 C394 1.279 . S
C396 C398 1.353 . S
C396 N399 1.314 . S
C396 H402 0.930 . S
C397 N399 1.279 . S
C397 C400 1.358 . S
C397 H403 0.930 . S
C398 C396 1.353 . S
C398 C401 1.348 . S
C398 H436 0.929 . S
N399 Li354 1.990 1_655 S
N399 C396 1.314 . S
N399 C397 1.279 . S
C400 C397 1.358 . S
C400 C401 1.356 . S
C400 H437 0.930 . S
C401 C398 1.348 . S
C401 C400 1.356 . S
H402 C396 0.930 . S
H403 C397 0.930 . S
C404 N405 1.314 . S
C404 C406 1.353 . S
C404 H410 0.930 . S
N405 Li355 1.990 . S
N405 C404 1.314 . S
N405 C408 1.279 . S
C406 C404 1.353 . S
C406 C409 1.348 . S
C406 H438 0.929 . S
C407 C408 1.358 . S
C407 C409 1.356 . S
C407 H439 0.930 . S
C408 N405 1.279 . S
C408 C407 1.358 . S
C408 H411 0.930 . S
C409 C406 1.348 . S
C409 C407 1.356 . S
H410 C404 0.930 . S
H411 C408 0.930 . S
O412 Li352 1.956 . S
O412 Li353 1.970 . S
O412 Li354 1.961 . S
O412 C356 1.325 . S
O413 Li352 1.970 . S
O413 Li353 1.956 . S
O413 Li355 1.961 . S
O413 C362 1.325 . S
O414 Li352 1.961 . S
O414 Li354 1.956 . S
O414 Li355 1.970 . S
O414 C384 1.325 . S
O415 Li353 1.961 . S
O415 Li354 1.970 . S
O415 Li355 1.956 . S
O415 C390 1.325 . S
H416 C358 0.929 . S
H417 C359 0.930 . S
H418 C360 0.930 1_554 S
H419 C361 0.930 . S
H420 C363 0.930 . S
H421 C365 0.929 . S
H422 C366 0.930 . S
H423 C367 0.930 . S
H424 C370 0.930 . S
H425 C373 0.929 . S
H426 C378 0.929 . S
H427 C379 0.930 . S
H428 C386 0.929 . S
H429 C387 0.930 1_655 S
H430 C388 0.930 . S
H431 C389 0.930 . S
H432 C391 0.929 . S
H433 C392 0.930 . S
H434 C393 0.930 . S
H435 C394 0.930 . S
H436 C398 0.929 . S
H437 C400 0.930 . S
H438 C406 0.929 . S
H439 C407 0.930 . S
Li440 N457 1.990 . S
Li440 O500 1.956 . S
Li440 O501 1.970 . S
Li440 O502 1.961 . S
Li441 N465 1.990 . S
Li441 O500 1.970 . S
Li441 O501 1.956 . S
Li441 O503 1.961 . S
Li442 N487 1.990 1_545 S
Li442 O500 1.961 . S
Li442 O502 1.956 . S
Li442 O503 1.970 . S
Li443 N493 1.990 . S
Li443 O501 1.961 . S
Li443 O502 1.970 . S
Li443 O503 1.956 . S
C444 C446 1.348 . S
C444 C447 1.356 1_545 S
C444 O500 1.325 . S
N445 C448 1.314 1_565 S
N445 C449 1.279 . S
C446 C444 1.348 . S
C446 C448 1.353 . S
C446 H504 0.929 . S
C447 C444 1.356 1_565 S
C447 C449 1.358 . S
C447 H505 0.930 . S
C448 N445 1.314 1_545 S
C448 C446 1.353 . S
C448 H506 0.930 . S
C449 N445 1.279 . S
C449 C447 1.358 . S
C449 H507 0.930 . S
C450 C453 1.348 . S
C450 C454 1.356 . S
C450 O501 1.325 . S
C451 N452 1.279 . S
C451 C454 1.358 . S
C451 H508 0.930 . S
N452 C451 1.279 . S
N452 C455 1.314 . S
C453 C450 1.348 . S
C453 C455 1.353 . S
C453 H509 0.929 . S
C454 C450 1.356 . S
C454 C451 1.358 . S
C454 H510 0.930 . S
C455 N452 1.314 . S
C455 C453 1.353 . S
C455 H511 0.930 . S
C456 N457 1.314 . S
C456 C461 1.353 . S
C456 H462 0.930 . S
N457 Li440 1.990 . S
N457 C456 1.314 . S
N457 C459 1.279 . S
C458 C459 1.358 . S
C458 C460 1.356 . S
C458 H512 0.930 . S
C459 N457 1.279 . S
C459 C458 1.358 . S
C459 H463 0.930 . S
C460 C458 1.356 . S
C460 C461 1.348 . S
C461 C456 1.353 . S
C461 C460 1.348 . S
C461 H513 0.929 . S
H462 C456 0.930 . S
H463 C459 0.930 . S
C464 N465 1.314 . S
C464 C466 1.353 . S
C464 H470 0.930 . S
N465 Li441 1.990 . S
N465 C464 1.314 . S
N465 C468 1.279 . S
C466 C464 1.353 . S
C466 C469 1.348 . S
C466 H514 0.929 . S
C467 C468 1.358 . S
C467 C469 1.356 . S
C467 H515 0.930 . S
C468 N465 1.279 . S
C468 C467 1.358 . S
C468 H471 0.930 . S
C469 C466 1.348 . S
C469 C467 1.356 . S
H470 C464 0.930 . S
H471 C468 0.930 . S
C472 C474 1.348 . S
C472 C475 1.356 . S
C472 O502 1.325 . S
N473 C476 1.301 1_565 S
N473 C477 1.284 . S
C474 C472 1.348 . S
C474 C476 1.353 . S
C474 H516 0.929 . S
C475 C472 1.356 . S
C475 C477 1.358 1_545 S
C475 H517 0.930 1_545 S
C476 N473 1.301 1_545 S
C476 C474 1.353 . S
C476 H518 0.930 . S
C477 N473 1.284 . S
C477 C475 1.358 1_565 S
C477 H519 0.930 . S
C478 C479 1.348 . S
C478 C480 1.356 . S
C478 O503 1.325 . S
C479 C478 1.348 . S
C479 C481 1.353 . S
C479 H520 0.929 . S
C480 C478 1.356 . S
C480 C482 1.358 . S
C480 H521 0.930 . S
C481 C479 1.353 . S
C481 N483 1.314 . S
C481 H522 0.930 . S
C482 C480 1.358 . S
C482 N483 1.279 . S
C482 H523 0.930 . S
N483 C481 1.314 . S
N483 C482 1.279 . S
C484 C486 1.353 . S
C484 N487 1.314 . S
C484 H490 0.930 . S
C485 N487 1.279 . S
C485 C488 1.358 . S
C485 H491 0.930 . S
C486 C484 1.353 . S
C486 C489 1.348 . S
C486 H524 0.929 . S
N487 Li442 1.990 1_565 S
N487 C484 1.314 . S
N487 C485 1.279 . S
C488 C485 1.358 . S
C488 C489 1.356 . S
C488 H525 0.930 . S
C489 C486 1.348 . S
C489 C488 1.356 . S
H490 C484 0.930 . S
H491 C485 0.930 . S
C492 N493 1.314 . S
C492 C494 1.353 . S
C492 H498 0.930 . S
N493 Li443 1.990 . S
N493 C492 1.314 . S
N493 C496 1.279 . S
C494 C492 1.353 . S
C494 C497 1.348 . S
C494 H526 0.929 . S
C495 C496 1.358 . S
C495 C497 1.356 . S
C495 H527 0.930 . S
C496 N493 1.279 . S
C496 C495 1.358 . S
C496 H499 0.930 . S
C497 C494 1.348 . S
C497 C495 1.356 . S
H498 C492 0.930 . S
H499 C496 0.930 . S
O500 Li440 1.956 . S
O500 Li441 1.970 . S
O500 Li442 1.961 . S
O500 C444 1.325 . S
O501 Li440 1.970 . S
O501 Li441 1.956 . S
O501 Li443 1.961 . S
O501 C450 1.325 . S
O502 Li440 1.961 . S
O502 Li442 1.956 . S
O502 Li443 1.970 . S
O502 C472 1.325 . S
O503 Li441 1.961 . S
O503 Li442 1.970 . S
O503 Li443 1.956 . S
O503 C478 1.325 . S
H504 C446 0.929 . S
H505 C447 0.930 . S
H506 C448 0.930 . S
H507 C449 0.930 . S
H508 C451 0.930 . S
H509 C453 0.929 . S
H510 C454 0.930 . S
H511 C455 0.930 . S
H512 C458 0.930 . S
H513 C461 0.929 . S
H514 C466 0.929 . S
H515 C467 0.930 . S
H516 C474 0.929 . S
H517 C475 0.930 1_565 S
H518 C476 0.930 . S
H519 C477 0.930 . S
H520 C479 0.929 . S
H521 C480 0.930 . S
H522 C481 0.930 . S
H523 C482 0.930 . S
H524 C486 0.929 . S
H525 C488 0.930 . S
H526 C494 0.929 . S
H527 C495 0.930 . S
Li528 N545 1.990 . S
Li528 O588 1.956 . S
Li528 O589 1.970 . S
Li528 O590 1.961 . S
Li529 N553 1.990 . S
Li529 O588 1.970 . S
Li529 O589 1.956 . S
Li529 O591 1.961 . S
Li530 N575 1.990 . S
Li530 O588 1.961 . S
Li530 O590 1.956 . S
Li530 O591 1.970 . S
Li531 N581 1.990 . S
Li531 O589 1.961 . S
Li531 O590 1.970 . S
Li531 O591 1.956 . S
C532 C534 1.348 . S
C532 C535 1.356 . S
C532 O588 1.325 . S
N533 C536 1.314 . S
N533 C537 1.279 . S
C534 C532 1.348 . S
C534 C536 1.353 . S
C534 H592 0.929 . S
C535 C532 1.356 . S
C535 C537 1.358 . S
C535 H593 0.930 . S
C536 N533 1.314 . S
C536 C534 1.353 . S
C536 H594 0.930 1_556 S
C537 N533 1.279 . S
C537 C535 1.358 . S
C537 H595 0.930 . S
C538 C541 1.348 . S
C538 C542 1.356 . S
C538 O589 1.325 . S
C539 N540 1.279 . S
C539 C542 1.358 . S
C539 H596 0.930 . S
N540 C539 1.279 . S
N540 C543 1.314 . S
C541 C538 1.348 . S
C541 C543 1.353 . S
C541 H597 0.929 . S
C542 C538 1.356 . S
C542 C539 1.358 . S
C542 H598 0.930 . S
C543 N540 1.314 . S
C543 C541 1.353 . S
C543 H599 0.930 . S
C544 N545 1.314 . S
C544 C549 1.353 . S
C544 H550 0.930 . S
N545 Li528 1.990 . S
N545 C544 1.314 . S
N545 C547 1.279 . S
C546 C547 1.358 . S
C546 C548 1.356 . S
C546 H600 0.930 . S
C547 N545 1.279 . S
C547 C546 1.358 . S
C547 H551 0.930 . S
C548 C546 1.356 . S
C548 C549 1.348 . S
C549 C544 1.353 . S
C549 C548 1.348 . S
C549 H601 0.929 . S
H550 C544 0.930 . S
H551 C547 0.930 . S
C552 N553 1.314 . S
C552 C554 1.353 . S
C552 H558 0.930 . S
N553 Li529 1.990 . S
N553 C552 1.314 . S
N553 C556 1.279 . S
C554 C552 1.353 . S
C554 C557 1.348 1_556 S
C554 H602 0.929 . S
C555 C556 1.358 . S
C555 C557 1.356 1_556 S
C555 H603 0.930 . S
C556 N553 1.279 . S
C556 C555 1.358 . S
C556 H559 0.930 . S
C557 C554 1.348 1_554 S
C557 C555 1.356 1_554 S
H558 C552 0.930 . S
H559 C556 0.930 . S
C560 C562 1.348 . S
C560 C563 1.356 . S
C560 O590 1.325 . S
N561 C564 1.314 . S
N561 C565 1.279 . S
C562 C560 1.348 . S
C562 C564 1.353 . S
C562 H604 0.929 . S
C563 C560 1.356 . S
C563 C565 1.358 . S
C563 H605 0.930 . S
C564 N561 1.314 . S
C564 C562 1.353 . S
C564 H606 0.930 . S
C565 N561 1.279 . S
C565 C563 1.358 . S
C565 H607 0.930 . S
C566 C567 1.348 . S
C566 C568 1.356 . S
C566 O591 1.325 . S
C567 C566 1.348 . S
C567 C569 1.353 . S
C567 H608 0.929 . S
C568 C566 1.356 . S
C568 C570 1.358 . S
C568 H609 0.930 . S
C569 C567 1.353 . S
C569 N571 1.314 . S
C569 H610 0.930 . S
C570 C568 1.358 . S
C570 N571 1.279 . S
C570 H611 0.930 . S
N571 C569 1.314 . S
N571 C570 1.279 . S
C572 C574 1.353 . S
C572 N575 1.314 . S
C572 H578 0.930 . S
C573 N575 1.279 . S
C573 C576 1.358 . S
C573 H579 0.930 . S
C574 C572 1.353 . S
C574 C577 1.348 . S
C574 H612 0.929 . S
N575 Li530 1.990 . S
N575 C572 1.314 . S
N575 C573 1.279 . S
C576 C573 1.358 . S
C576 C577 1.356 . S
C576 H613 0.930 . S
C577 C574 1.348 . S
C577 C576 1.356 . S
H578 C572 0.930 . S
H579 C573 0.930 . S
C580 N581 1.314 . S
C580 C582 1.353 . S
C580 H586 0.930 . S
N581 Li531 1.990 . S
N581 C580 1.314 . S
N581 C584 1.279 . S
C582 C580 1.353 . S
C582 C585 1.348 . S
C582 H614 0.929 . S
C583 C584 1.358 . S
C583 C585 1.356 . S
C583 H615 0.930 . S
C584 N581 1.279 . S
C584 C583 1.358 . S
C584 H587 0.930 . S
C585 C582 1.348 . S
C585 C583 1.356 . S
H586 C580 0.930 . S
H587 C584 0.930 . S
O588 Li528 1.956 . S
O588 Li529 1.970 . S
O588 Li530 1.961 . S
O588 C532 1.325 . S
O589 Li528 1.970 . S
O589 Li529 1.956 . S
O589 Li531 1.961 . S
O589 C538 1.325 . S
O590 Li528 1.961 . S
O590 Li530 1.956 . S
O590 Li531 1.970 . S
O590 C560 1.325 . S
O591 Li529 1.961 . S
O591 Li530 1.970 . S
O591 Li531 1.956 . S
O591 C566 1.325 . S
H592 C534 0.929 . S
H593 C535 0.930 . S
H594 C536 0.930 1_554 S
H595 C537 0.930 . S
H596 C539 0.930 . S
H597 C541 0.929 . S
H598 C542 0.930 . S
H599 C543 0.930 . S
H600 C546 0.930 . S
H601 C549 0.929 . S
H602 C554 0.929 . S
H603 C555 0.930 . S
H604 C562 0.929 . S
H605 C563 0.930 . S
H606 C564 0.930 . S
H607 C565 0.930 . S
H608 C567 0.929 . S
H609 C568 0.930 . S
H610 C569 0.930 . S
H611 C570 0.930 . S
H612 C574 0.929 . S
H613 C576 0.930 . S
H614 C582 0.929 . S
H615 C583 0.930 . S
Li616 N633 1.990 . S
Li616 O676 1.956 . S
Li616 O677 1.970 . S
Li616 O678 1.961 . S
Li617 N641 1.990 . S
Li617 O676 1.970 . S
Li617 O677 1.956 . S
Li617 O679 1.961 . S
Li618 N663 1.990 . S
Li618 O676 1.961 . S
Li618 O678 1.956 . S
Li618 O679 1.970 . S
Li619 N669 1.990 . S
Li619 O677 1.961 . S
Li619 O678 1.970 . S
Li619 O679 1.956 . S
C620 C622 1.348 . S
C620 C623 1.356 . S
C620 O676 1.325 . S
N621 C624 1.314 . S
N621 C625 1.279 . S
C622 C620 1.348 . S
C622 C624 1.353 . S
C622 H680 0.929 . S
C623 C620 1.356 . S
C623 C625 1.358 . S
C623 H681 0.930 . S
C624 N621 1.314 . S
C624 C622 1.353 . S
C624 H682 0.930 . S
C625 N621 1.279 . S
C625 C623 1.358 . S
C625 H683 0.930 . S
C626 C629 1.348 . S
C626 C630 1.356 . S
C626 O677 1.325 . S
C627 N628 1.279 . S
C627 C630 1.358 . S
C627 H684 0.930 . S
N628 C627 1.279 . S
N628 C631 1.314 . S
C629 C626 1.348 . S
C629 C631 1.353 . S
C629 H685 0.929 . S
C630 C626 1.356 . S
C630 C627 1.358 . S
C630 H686 0.930 . S
C631 N628 1.314 . S
C631 C629 1.353 . S
C631 H687 0.930 . S
C632 N633 1.314 . S
C632 C637 1.353 . S
C632 H638 0.930 . S
N633 Li616 1.990 . S
N633 C632 1.314 . S
N633 C635 1.279 . S
C634 C635 1.358 . S
C634 C636 1.356 . S
C634 H688 0.930 . S
C635 N633 1.279 . S
C635 C634 1.358 . S
C635 H639 0.930 . S
C636 C634 1.356 . S
C636 C637 1.348 . S
C637 C632 1.353 . S
C637 C636 1.348 . S
C637 H689 0.929 . S
H638 C632 0.930 . S
H639 C635 0.930 . S
C640 N641 1.314 . S
C640 C642 1.353 . S
C640 H646 0.930 . S
N641 Li617 1.990 . S
N641 C640 1.314 . S
N641 C644 1.279 . S
C642 C640 1.353 . S
C642 C645 1.348 . S
C642 H690 0.929 . S
C643 C644 1.358 . S
C643 C645 1.356 . S
C643 H691 0.930 . S
C644 N641 1.279 . S
C644 C643 1.358 . S
C644 H647 0.930 . S
C645 C642 1.348 . S
C645 C643 1.356 . S
H646 C640 0.930 . S
H647 C644 0.930 . S
C648 C650 1.348 . S
C648 C651 1.356 . S
C648 O678 1.325 . S
N649 C652 1.314 . S
N649 C653 1.279 . S
C650 C648 1.348 . S
C650 C652 1.353 . S
C650 H692 0.929 . S
C651 C648 1.356 . S
C651 C653 1.358 . S
C651 H693 0.930 . S
C652 N649 1.314 . S
C652 C650 1.353 . S
C652 H694 0.930 . S
C653 N649 1.279 . S
C653 C651 1.358 . S
C653 H695 0.930 . S
C654 C655 1.348 . S
C654 C656 1.356 . S
C654 O679 1.325 . S
C655 C654 1.348 . S
C655 C657 1.353 . S
C655 H696 0.929 . S
C656 C654 1.356 . S
C656 C658 1.358 . S
C656 H697 0.930 . S
C657 C655 1.353 . S
C657 N659 1.314 . S
C657 H698 0.930 . S
C658 C656 1.358 . S
C658 N659 1.279 . S
C658 H699 0.930 . S
N659 C657 1.314 . S
N659 C658 1.279 . S
C660 C662 1.353 . S
C660 N663 1.314 . S
C660 H666 0.930 . S
C661 N663 1.279 . S
C661 C664 1.358 . S
C661 H667 0.930 . S
C662 C660 1.353 . S
C662 C665 1.348 . S
C662 H700 0.929 . S
N663 Li618 1.990 . S
N663 C660 1.314 . S
N663 C661 1.279 . S
C664 C661 1.358 . S
C664 C665 1.356 . S
C664 H701 0.930 . S
C665 C662 1.348 . S
C665 C664 1.356 . S
H666 C660 0.930 . S
H667 C661 0.930 . S
C668 N669 1.314 . S
C668 C670 1.353 . S
C668 H674 0.930 . S
N669 Li619 1.990 . S
N669 C668 1.314 . S
N669 C672 1.279 . S
C670 C668 1.353 . S
C670 C673 1.348 . S
C670 H702 0.929 . S
C671 C672 1.358 . S
C671 C673 1.356 . S
C671 H703 0.930 . S
C672 N669 1.279 . S
C672 C671 1.358 . S
C672 H675 0.930 . S
C673 C670 1.348 . S
C673 C671 1.356 . S
H674 C668 0.930 . S
H675 C672 0.930 . S
O676 Li616 1.956 . S
O676 Li617 1.970 . S
O676 Li618 1.961 . S
O676 C620 1.325 . S
O677 Li616 1.970 . S
O677 Li617 1.956 . S
O677 Li619 1.961 . S
O677 C626 1.325 . S
O678 Li616 1.961 . S
O678 Li618 1.956 . S
O678 Li619 1.970 . S
O678 C648 1.325 . S
O679 Li617 1.961 . S
O679 Li618 1.970 . S
O679 Li619 1.956 . S
O679 C654 1.325 . S
H680 C622 0.929 . S
H681 C623 0.930 . S
H682 C624 0.930 . S
H683 C625 0.930 . S
H684 C627 0.930 . S
H685 C629 0.929 . S
H686 C630 0.930 . S
H687 C631 0.930 . S
H688 C634 0.930 . S
H689 C637 0.929 . S
H690 C642 0.929 . S
H691 C643 0.930 . S
H692 C650 0.929 . S
H693 C651 0.930 . S
H694 C652 0.930 . S
H695 C653 0.930 . S
H696 C655 0.929 . S
H697 C656 0.930 . S
H698 C657 0.930 . S
H699 C658 0.930 . S
H700 C662 0.929 . S
H701 C664 0.930 . S
H702 C670 0.929 . S
H703 C671 0.930 . S
Li704 N721 1.990 . S
Li704 O764 1.956 . S
Li704 O765 1.970 . S
Li704 O766 1.961 . S
Li705 N729 1.990 . S
Li705 O764 1.970 . S
Li705 O765 1.956 . S
Li705 O767 1.961 . S
Li706 N751 1.990 1_655 S
Li706 O764 1.961 . S
Li706 O766 1.956 . S
Li706 O767 1.970 . S
Li707 N757 1.990 . S
Li707 O765 1.961 . S
Li707 O766 1.970 . S
Li707 O767 1.956 . S
C708 C710 1.348 . S
C708 C711 1.393 . S
C708 O764 1.325 . S
N709 C712 1.353 . S
N709 C713 1.279 . S
C710 C708 1.348 . S
C710 C712 1.315 1_655 S
C710 H768 0.929 . S
C711 C708 1.393 . S
C711 C713 1.320 1_655 S
C711 H769 0.936 . S
C712 N709 1.353 . S
C712 C710 1.315 1_455 S
C712 H770 0.934 . S
C713 N709 1.279 . S
C713 C711 1.320 1_455 S
C713 H771 0.930 . S
C714 C717 1.348 . S
C714 C718 1.356 . S
C714 O765 1.325 . S
C715 N716 1.279 . S
C715 C718 1.358 . S
C715 H772 0.930 . S
N716 C715 1.279 . S
N716 C719 1.314 . S
C717 C714 1.348 . S
C717 C719 1.353 . S
C717 H773 0.929 . S
C718 C714 1.356 . S
C718 C715 1.358 . S
C718 H774 0.930 . S
C719 N716 1.314 . S
C719 C717 1.353 . S
C719 H775 0.930 . S
C720 N721 1.314 . S
C720 C725 1.353 . S
C720 H726 0.930 . S
N721 Li704 1.990 . S
N721 C720 1.314 . S
N721 C723 1.279 . S
C722 C723 1.358 1_554 S
C722 C724 1.356 . S
C722 H776 0.930 . S
C723 N721 1.279 . S
C723 C722 1.358 1_556 S
C723 H727 0.930 . S
C724 C722 1.356 . S
C724 C725 1.348 1_554 S
C725 C720 1.353 . S
C725 C724 1.348 1_556 S
C725 H777 0.929 . S
H726 C720 0.930 . S
H727 C723 0.930 . S
C728 N729 1.314 . S
C728 C730 1.353 . S
C728 H734 0.930 . S
N729 Li705 1.990 . S
N729 C728 1.314 . S
N729 C732 1.279 . S
C730 C728 1.353 . S
C730 C733 1.348 . S
C730 H778 0.929 . S
C731 C732 1.358 . S
C731 C733 1.356 . S
C731 H779 0.930 . S
C732 N729 1.279 . S
C732 C731 1.358 . S
C732 H735 0.930 . S
C733 C730 1.348 . S
C733 C731 1.356 . S
H734 C728 0.930 . S
H735 C732 0.930 . S
C736 C738 1.348 . S
C736 C739 1.356 . S
C736 O766 1.325 . S
N737 C740 1.314 . S
N737 C741 1.279 . S
C738 C736 1.348 . S
C738 C740 1.353 . S
C738 H780 0.929 . S
C739 C736 1.356 . S
C739 C741 1.358 . S
C739 H781 0.930 . S
C740 N737 1.314 . S
C740 C738 1.353 . S
C740 H782 0.930 . S
C741 N737 1.279 . S
C741 C739 1.358 . S
C741 H783 0.930 . S
C742 C743 1.348 . S
C742 C744 1.356 . S
C742 O767 1.325 . S
C743 C742 1.348 . S
C743 C745 1.353 1_655 S
C743 H784 0.929 . S
C744 C742 1.356 . S
C744 C746 1.358 . S
C744 H785 0.930 . S
C745 C743 1.353 1_455 S
C745 N747 1.314 1_455 S
C745 H786 0.930 . S
C746 C744 1.358 . S
C746 N747 1.279 . S
C746 H787 0.930 . S
N747 C745 1.314 1_655 S
N747 C746 1.279 . S
C748 C750 1.353 . S
C748 N751 1.314 . S
C748 H754 0.930 . S
C749 N751 1.279 . S
C749 C752 1.358 . S
C749 H755 0.926 1_455 S
C750 C748 1.353 . S
C750 C753 1.348 . S
C750 H788 0.929 . S
N751 Li706 1.990 1_455 S
N751 C748 1.314 . S
N751 C749 1.279 . S
C752 C749 1.358 . S
C752 C753 1.356 . S
C752 H789 0.930 . S
C753 C750 1.348 . S
C753 C752 1.356 . S
H754 C748 0.930 . S
H755 C749 0.926 1_655 S
C756 N757 1.314 . S
C756 C758 1.353 . S
C756 H762 0.930 . S
N757 Li707 1.990 . S
N757 C756 1.314 . S
N757 C760 1.279 . S
C758 C756 1.353 . S
C758 C761 1.348 . S
C758 H790 0.929 . S
C759 C760 1.358 . S
C759 C761 1.356 . S
C759 H791 0.930 . S
C760 N757 1.279 . S
C760 C759 1.358 . S
C760 H763 0.930 . S
C761 C758 1.348 . S
C761 C759 1.356 . S
H762 C756 0.930 . S
H763 C760 0.930 . S
O764 Li704 1.956 . S
O764 Li705 1.970 . S
O764 Li706 1.961 . S
O764 C708 1.325 . S
O765 Li704 1.970 . S
O765 Li705 1.956 . S
O765 Li707 1.961 . S
O765 C714 1.325 . S
O766 Li704 1.961 . S
O766 Li706 1.956 . S
O766 Li707 1.970 . S
O766 C736 1.325 . S
O767 Li705 1.961 . S
O767 Li706 1.970 . S
O767 Li707 1.956 . S
O767 C742 1.325 . S
H768 C710 0.929 . S
H769 C711 0.936 . S
H770 C712 0.934 . S
H771 C713 0.930 . S
H772 C715 0.930 . S
H773 C717 0.929 . S
H774 C718 0.930 . S
H775 C719 0.930 . S
H776 C722 0.930 . S
H777 C725 0.929 . S
H778 C730 0.929 . S
H779 C731 0.930 . S
H780 C738 0.929 . S
H781 C739 0.930 . S
H782 C740 0.930 . S
H783 C741 0.930 . S
H784 C743 0.929 . S
H785 C744 0.930 . S
H786 C745 0.930 . S
H787 C746 0.930 . S
H788 C750 0.929 . S
H789 C752 0.930 . S
H790 C758 0.929 . S
H791 C759 0.930 . S
Li792 N809 1.990 . S
Li792 O852 1.956 . S
Li792 O853 1.970 . S
Li792 O854 1.961 . S
Li793 N817 1.990 . S
Li793 O852 1.970 . S
Li793 O853 1.956 . S
Li793 O855 1.961 . S
Li794 N839 1.990 1_565 S
Li794 O852 1.961 . S
Li794 O854 1.956 . S
Li794 O855 1.970 . S
Li795 N845 1.990 . S
Li795 O853 1.961 . S
Li795 O854 1.970 . S
Li795 O855 1.956 . S
C796 C798 1.348 . S
C796 C799 1.392 . S
C796 O852 1.325 . S
N797 C800 1.353 . S
N797 C801 1.279 . S
C798 C796 1.348 . S
C798 C800 1.314 1_565 S
C798 H856 0.929 . S
C799 C796 1.392 . S
C799 C801 1.321 1_565 S
C799 H857 0.936 . S
C800 N797 1.353 . S
C800 C798 1.314 1_545 S
C800 H858 0.935 . S
C801 N797 1.279 . S
C801 C799 1.321 1_545 S
C801 H859 0.930 . S
C802 C805 1.348 . S
C802 C806 1.356 . S
C802 O853 1.325 . S
C803 N804 1.279 . S
C803 C806 1.358 . S
C803 H860 0.930 . S
N804 C803 1.279 . S
N804 C807 1.314 . S
C805 C802 1.348 . S
C805 C807 1.353 . S
C805 H861 0.929 . S
C806 C802 1.356 . S
C806 C803 1.358 . S
C806 H862 0.930 . S
C807 N804 1.314 . S
C807 C805 1.353 . S
C807 H863 0.930 . S
C808 N809 1.314 . S
C808 C813 1.353 . S
C808 H814 0.930 . S
N809 Li792 1.990 . S
N809 C808 1.314 . S
N809 C811 1.279 . S
C810 C811 1.358 . S
C810 C812 1.356 . S
C810 H864 0.930 . S
C811 N809 1.279 . S
C811 C810 1.358 . S
C811 H815 0.930 . S
C812 C810 1.356 . S
C812 C813 1.348 . S
C813 C808 1.353 . S
C813 C812 1.348 . S
C813 H865 0.929 . S
H814 C808 0.930 . S
H815 C811 0.930 . S
C816 N817 1.314 . S
C816 C818 1.353 . S
C816 H822 0.930 . S
N817 Li793 1.990 . S
N817 C816 1.314 . S
N817 C820 1.279 . S
C818 C816 1.353 . S
C818 C821 1.348 . S
C818 H866 0.929 . S
C819 C820 1.358 . S
C819 C821 1.356 . S
C819 H867 0.930 . S
C820 N817 1.279 . S
C820 C819 1.358 . S
C820 H823 0.930 . S
C821 C818 1.348 . S
C821 C819 1.356 . S
H822 C816 0.930 . S
H823 C820 0.930 . S
C824 C826 1.348 . S
C824 C827 1.356 . S
C824 O854 1.325 . S
N825 C828 1.314 . S
N825 C829 1.279 . S
C826 C824 1.348 . S
C826 C828 1.353 . S
C826 H868 0.929 . S
C827 C824 1.356 . S
C827 C829 1.358 . S
C827 H869 0.930 . S
C828 N825 1.314 . S
C828 C826 1.353 . S
C828 H870 0.930 . S
C829 N825 1.279 . S
C829 C827 1.358 . S
C829 H871 0.930 . S
C830 C831 1.348 . S
C830 C832 1.356 . S
C830 O855 1.325 . S
C831 C830 1.348 . S
C831 C833 1.353 1_565 S
C831 H872 0.929 . S
C832 C830 1.356 . S
C832 C834 1.358 . S
C832 H873 0.930 . S
C833 C831 1.353 1_545 S
C833 N835 1.314 1_545 S
C833 H874 0.930 . S
C834 C832 1.358 . S
C834 N835 1.279 . S
C834 H875 0.930 . S
N835 C833 1.314 1_565 S
N835 C834 1.279 . S
C836 C838 1.353 . S
C836 N839 1.314 . S
C836 H842 0.930 . S
C837 N839 1.279 . S
C837 C840 1.358 . S
C837 H843 0.927 1_545 S
C838 C836 1.353 . S
C838 C841 1.348 . S
C838 H876 0.929 . S
N839 Li794 1.990 1_545 S
N839 C836 1.314 . S
N839 C837 1.279 . S
C840 C837 1.358 . S
C840 C841 1.356 . S
C840 H877 0.930 . S
C841 C838 1.348 . S
C841 C840 1.356 . S
H842 C836 0.930 . S
H843 C837 0.927 1_565 S
C844 N845 1.314 . S
C844 C846 1.353 . S
C844 H850 0.930 . S
N845 Li795 1.990 . S
N845 C844 1.314 . S
N845 C848 1.279 . S
C846 C844 1.353 . S
C846 C849 1.348 . S
C846 H878 0.929 . S
C847 C848 1.358 . S
C847 C849 1.356 . S
C847 H879 0.930 . S
C848 N845 1.279 . S
C848 C847 1.358 . S
C848 H851 0.930 . S
C849 C846 1.348 . S
C849 C847 1.356 . S
H850 C844 0.930 . S
H851 C848 0.930 . S
O852 Li792 1.956 . S
O852 Li793 1.970 . S
O852 Li794 1.961 . S
O852 C796 1.325 . S
O853 Li792 1.970 . S
O853 Li793 1.956 . S
O853 Li795 1.961 . S
O853 C802 1.325 . S
O854 Li792 1.961 . S
O854 Li794 1.956 . S
O854 Li795 1.970 . S
O854 C824 1.325 . S
O855 Li793 1.961 . S
O855 Li794 1.970 . S
O855 Li795 1.956 . S
O855 C830 1.325 . S
H856 C798 0.929 . S
H857 C799 0.936 . S
H858 C800 0.935 . S
H859 C801 0.930 . S
H860 C803 0.930 . S
H861 C805 0.929 . S
H862 C806 0.930 . S
H863 C807 0.930 . S
H864 C810 0.930 . S
H865 C813 0.929 . S
H866 C818 0.929 . S
H867 C819 0.930 . S
H868 C826 0.929 . S
H869 C827 0.930 . S
H870 C828 0.930 . S
H871 C829 0.930 . S
H872 C831 0.929 . S
H873 C832 0.930 . S
H874 C833 0.930 . S
H875 C834 0.930 . S
H876 C838 0.929 . S
H877 C840 0.930 . S
H878 C846 0.929 . S
H879 C847 0.930 . S
Li880 N897 1.990 . S
Li880 O940 1.956 . S
Li880 O941 1.970 . S
Li880 O942 1.961 . S
Li881 N905 1.990 . S
Li881 O940 1.970 . S
Li881 O941 1.956 . S
Li881 O943 1.961 . S
Li882 N927 1.990 . S
Li882 O940 1.961 . S
Li882 O942 1.956 . S
Li882 O943 1.970 . S
Li883 N933 1.990 . S
Li883 O941 1.961 . S
Li883 O942 1.970 . S
Li883 O943 1.956 . S
C884 C886 1.348 . S
C884 C887 1.356 . S
C884 O940 1.325 . S
N885 C888 1.314 . S
N885 C889 1.279 . S
C886 C884 1.348 . S
C886 C888 1.353 . S
C886 H944 0.929 . S
C887 C884 1.356 . S
C887 C889 1.358 . S
C887 H945 0.930 . S
C888 N885 1.314 . S
C888 C886 1.353 . S
C888 H946 0.930 . S
C889 N885 1.279 . S
C889 C887 1.358 . S
C889 H947 0.930 . S
C890 C893 1.348 . S
C890 C894 1.356 . S
C890 O941 1.325 . S
C891 N892 1.279 . S
C891 C894 1.358 . S
C891 H948 0.930 . S
N892 C891 1.279 . S
N892 C895 1.314 . S
C893 C890 1.348 . S
C893 C895 1.353 . S
C893 H949 0.929 . S
C894 C890 1.356 . S
C894 C891 1.358 . S
C894 H950 0.930 . S
C895 N892 1.314 . S
C895 C893 1.353 . S
C895 H951 0.930 . S
C896 N897 1.314 . S
C896 C901 1.353 . S
C896 H902 0.930 . S
N897 Li880 1.990 . S
N897 C896 1.314 . S
N897 C899 1.279 . S
C898 C899 1.358 . S
C898 C900 1.356 . S
C898 H952 0.930 . S
C899 N897 1.279 . S
C899 C898 1.358 . S
C899 H903 0.930 . S
C900 C898 1.356 . S
C900 C901 1.348 . S
C901 C896 1.353 . S
C901 C900 1.348 . S
C901 H953 0.929 . S
H902 C896 0.930 . S
H903 C899 0.930 . S
C904 N905 1.314 . S
C904 C906 1.353 . S
C904 H910 0.930 . S
N905 Li881 1.990 . S
N905 C904 1.314 . S
N905 C908 1.279 . S
C906 C904 1.353 . S
C906 C909 1.348 1_556 S
C906 H954 0.929 . S
C907 C908 1.358 1_554 S
C907 C909 1.356 . S
C907 H955 0.930 . S
C908 N905 1.279 . S
C908 C907 1.358 1_556 S
C908 H911 0.930 . S
C909 C906 1.348 1_554 S
C909 C907 1.356 . S
H910 C904 0.930 . S
H911 C908 0.930 . S
C912 C914 1.348 . S
C912 C915 1.356 . S
C912 O942 1.325 . S
N913 C916 1.314 . S
N913 C917 1.279 . S
C914 C912 1.348 . S
C914 C916 1.353 . S
C914 H956 0.929 . S
C915 C912 1.356 . S
C915 C917 1.358 . S
C915 H957 0.930 . S
C916 N913 1.314 . S
C916 C914 1.353 . S
C916 H958 0.930 . S
C917 N913 1.279 . S
C917 C915 1.358 . S
C917 H959 0.930 . S
C918 C919 1.348 . S
C918 C920 1.356 . S
C918 O943 1.325 . S
C919 C918 1.348 . S
C919 C921 1.353 . S
C919 H960 0.929 . S
C920 C918 1.356 . S
C920 C922 1.358 . S
C920 H961 0.930 . S
C921 C919 1.353 . S
C921 N923 1.314 . S
C921 H962 0.930 . S
C922 C920 1.358 . S
C922 N923 1.279 . S
C922 H963 0.930 . S
N923 C921 1.314 . S
N923 C922 1.279 . S
C924 C926 1.353 . S
C924 N927 1.314 . S
C924 H930 0.930 . S
C925 N927 1.279 . S
C925 C928 1.358 . S
C925 H931 0.930 . S
C926 C924 1.353 . S
C926 C929 1.348 . S
C926 H964 0.929 . S
N927 Li882 1.990 . S
N927 C924 1.314 . S
N927 C925 1.279 . S
C928 C925 1.358 . S
C928 C929 1.356 . S
C928 H965 0.930 . S
C929 C926 1.348 . S
C929 C928 1.356 . S
H930 C924 0.930 . S
H931 C925 0.930 . S
C932 N933 1.314 . S
C932 C934 1.353 . S
C932 H938 0.930 . S
N933 Li883 1.990 . S
N933 C932 1.314 . S
N933 C936 1.279 . S
C934 C932 1.353 . S
C934 C937 1.348 . S
C934 H966 0.929 . S
C935 C936 1.358 . S
C935 C937 1.356 . S
C935 H967 0.930 . S
C936 N933 1.279 . S
C936 C935 1.358 . S
C936 H939 0.930 . S
C937 C934 1.348 . S
C937 C935 1.356 . S
H938 C932 0.930 . S
H939 C936 0.930 . S
O940 Li880 1.956 . S
O940 Li881 1.970 . S
O940 Li882 1.961 . S
O940 C884 1.325 . S
O941 Li880 1.970 . S
O941 Li881 1.956 . S
O941 Li883 1.961 . S
O941 C890 1.325 . S
O942 Li880 1.961 . S
O942 Li882 1.956 . S
O942 Li883 1.970 . S
O942 C912 1.325 . S
O943 Li881 1.961 . S
O943 Li882 1.970 . S
O943 Li883 1.956 . S
O943 C918 1.325 . S
H944 C886 0.929 . S
H945 C887 0.930 . S
H946 C888 0.930 . S
H947 C889 0.930 . S
H948 C891 0.930 . S
H949 C893 0.929 . S
H950 C894 0.930 . S
H951 C895 0.930 . S
H952 C898 0.930 . S
H953 C901 0.929 . S
H954 C906 0.929 . S
H955 C907 0.930 . S
H956 C914 0.929 . S
H957 C915 0.930 . S
H958 C916 0.930 . S
H959 C917 0.930 . S
H960 C919 0.929 . S
H961 C920 0.930 . S
H962 C921 0.930 . S
H963 C922 0.930 . S
H964 C926 0.929 . S
H965 C928 0.930 . S
H966 C934 0.929 . S
H967 C935 0.930 . S
Li968 N985 1.990 . S
Li968 O1028 1.956 . S
Li968 O1029 1.970 . S
Li968 O1030 1.961 . S
Li969 N993 1.990 . S
Li969 O1028 1.970 . S
Li969 O1029 1.956 . S
Li969 O1031 1.961 . S
Li970 N1015 1.990 . S
Li970 O1028 1.961 . S
Li970 O1030 1.956 . S
Li970 O1031 1.970 . S
Li971 N1021 1.990 . S
Li971 O1029 1.961 . S
Li971 O1030 1.970 . S
Li971 O1031 1.956 . S
C972 C974 1.348 . S
C972 C975 1.356 . S
C972 O1028 1.325 . S
N973 C976 1.314 . S
N973 C977 1.279 . S
C974 C972 1.348 . S
C974 C976 1.353 . S
C974 H1032 0.929 . S
C975 C972 1.356 . S
C975 C977 1.358 . S
C975 H1033 0.930 . S
C976 N973 1.314 . S
C976 C974 1.353 . S
C976 H1034 0.930 . S
C977 N973 1.279 . S
C977 C975 1.358 . S
C977 H1035 0.930 . S
C978 C981 1.348 . S
C978 C982 1.356 . S
C978 O1029 1.325 . S
C979 N980 1.279 . S
C979 C982 1.358 . S
C979 H1036 0.930 . S
N980 C979 1.279 . S
N980 C983 1.314 . S
C981 C978 1.348 . S
C981 C983 1.353 . S
C981 H1037 0.929 . S
C982 C978 1.356 . S
C982 C979 1.358 . S
C982 H1038 0.930 . S
C983 N980 1.314 . S
C983 C981 1.353 . S
C983 H1039 0.930 . S
C984 N985 1.314 . S
C984 C989 1.353 . S
C984 H990 0.930 . S
N985 Li968 1.990 . S
N985 C984 1.314 . S
N985 C987 1.279 . S
C986 C987 1.358 . S
C986 C988 1.356 . S
C986 H1040 0.930 . S
C987 N985 1.279 . S
C987 C986 1.358 . S
C987 H991 0.930 . S
C988 C986 1.356 . S
C988 C989 1.348 . S
C989 C984 1.353 . S
C989 C988 1.348 . S
C989 H1041 0.929 . S
H990 C984 0.930 . S
H991 C987 0.930 . S
C992 N993 1.314 . S
C992 C994 1.353 . S
C992 H998 0.930 . S
N993 Li969 1.990 . S
N993 C992 1.314 . S
N993 C996 1.279 . S
C994 C992 1.353 . S
C994 C997 1.348 . S
C994 H1042 0.929 . S
C995 C996 1.358 . S
C995 C997 1.356 . S
C995 H1043 0.930 . S
C996 N993 1.279 . S
C996 C995 1.358 . S
C996 H999 0.930 . S
C997 C994 1.348 . S
C997 C995 1.356 . S
H998 C992 0.930 . S
H999 C996 0.930 . S
C1000 C1002 1.348 . S
C1000 C1003 1.356 . S
C1000 O1030 1.325 . S
N1001 C1004 1.314 . S
N1001 C1005 1.279 . S
C1002 C1000 1.348 . S
C1002 C1004 1.353 . S
C1002 H1044 0.929 . S
C1003 C1000 1.356 . S
C1003 C1005 1.358 . S
C1003 H1045 0.930 . S
C1004 N1001 1.314 . S
C1004 C1002 1.353 . S
C1004 H1046 0.930 . S
C1005 N1001 1.279 . S
C1005 C1003 1.358 . S
C1005 H1047 0.930 . S
C1006 C1007 1.348 . S
C1006 C1008 1.356 . S
C1006 O1031 1.325 . S
C1007 C1006 1.348 . S
C1007 C1009 1.353 . S
C1007 H1048 0.929 . S
C1008 C1006 1.356 . S
C1008 C1010 1.358 . S
C1008 H1049 0.930 . S
C1009 C1007 1.353 . S
C1009 N1011 1.314 . S
C1009 H1050 0.930 . S
C1010 C1008 1.358 . S
C1010 N1011 1.279 . S
C1010 H1051 0.930 . S
N1011 C1009 1.314 . S
N1011 C1010 1.279 . S
C1012 C1014 1.353 . S
C1012 N1015 1.314 . S
C1012 H1018 0.930 . S
C1013 N1015 1.279 . S
C1013 C1016 1.358 . S
C1013 H1019 0.930 . S
C1014 C1012 1.353 . S
C1014 C1017 1.348 . S
C1014 H1052 0.929 . S
N1015 Li970 1.990 . S
N1015 C1012 1.314 . S
N1015 C1013 1.279 . S
C1016 C1013 1.358 . S
C1016 C1017 1.356 . S
C1016 H1053 0.930 . S
C1017 C1014 1.348 . S
C1017 C1016 1.356 . S
H1018 C1012 0.930 . S
H1019 C1013 0.930 . S
C1020 N1021 1.314 . S
C1020 C1022 1.353 . S
C1020 H1026 0.930 . S
N1021 Li971 1.990 . S
N1021 C1020 1.314 . S
N1021 C1024 1.279 . S
C1022 C1020 1.353 . S
C1022 C1025 1.348 . S
C1022 H1054 0.929 . S
C1023 C1024 1.358 . S
C1023 C1025 1.356 . S
C1023 H1055 0.930 . S
C1024 N1021 1.279 . S
C1024 C1023 1.358 . S
C1024 H1027 0.930 . S
C1025 C1022 1.348 . S
C1025 C1023 1.356 . S
H1026 C1020 0.930 . S
H1027 C1024 0.930 . S
O1028 Li968 1.956 . S
O1028 Li969 1.970 . S
O1028 Li970 1.961 . S
O1028 C972 1.325 . S
O1029 Li968 1.970 . S
O1029 Li969 1.956 . S
O1029 Li971 1.961 . S
O1029 C978 1.325 . S
O1030 Li968 1.961 . S
O1030 Li970 1.956 . S
O1030 Li971 1.970 . S
O1030 C1000 1.325 . S
O1031 Li969 1.961 . S
O1031 Li970 1.970 . S
O1031 Li971 1.956 . S
O1031 C1006 1.325 . S
H1032 C974 0.929 . S
H1033 C975 0.930 . S
H1034 C976 0.930 . S
H1035 C977 0.930 . S
H1036 C979 0.930 . S
H1037 C981 0.929 . S
H1038 C982 0.930 . S
H1039 C983 0.930 . S
H1040 C986 0.930 . S
H1041 C989 0.929 . S
H1042 C994 0.929 . S
H1043 C995 0.930 . S
H1044 C1002 0.929 . S
H1045 C1003 0.930 . S
H1046 C1004 0.930 . S
H1047 C1005 0.930 . S
H1048 C1007 0.929 . S
H1049 C1008 0.930 . S
H1050 C1009 0.930 . S
H1051 C1010 0.930 . S
H1052 C1014 0.929 . S
H1053 C1016 0.930 . S
H1054 C1022 0.929 . S
H1055 C1023 0.930 . S
Li1056 N1073 1.990 . S
Li1056 O1116 1.956 . S
Li1056 O1117 1.970 . S
Li1056 O1118 1.961 . S
Li1057 N1081 1.990 1_655 S
Li1057 O1116 1.970 . S
Li1057 O1117 1.956 . S
Li1057 O1119 1.961 . S
Li1058 N1103 1.990 . S
Li1058 O1116 1.961 . S
Li1058 O1118 1.956 . S
Li1058 O1119 1.970 . S
Li1059 N1109 1.990 . S
Li1059 O1117 1.961 . S
Li1059 O1118 1.970 . S
Li1059 O1119 1.956 . S
C1060 C1062 1.348 . S
C1060 C1063 1.356 . S
C1060 O1116 1.325 . S
N1061 C1064 1.314 1_655 S
N1061 C1065 1.279 . S
C1062 C1060 1.348 . S
C1062 C1064 1.353 1_655 S
C1062 H1120 0.929 . S
C1063 C1060 1.356 . S
C1063 C1065 1.358 . S
C1063 H1121 0.930 . S
C1064 N1061 1.314 1_455 S
C1064 C1062 1.353 1_455 S
C1064 H1122 0.930 . S
C1065 N1061 1.279 . S
C1065 C1063 1.358 . S
C1065 H1123 0.930 . S
C1066 C1069 1.348 . S
C1066 C1070 1.356 . S
C1066 O1117 1.325 . S
C1067 N1068 1.279 . S
C1067 C1070 1.358 . S
C1067 H1124 0.930 . S
N1068 C1067 1.279 . S
N1068 C1071 1.314 . S
C1069 C1066 1.348 . S
C1069 C1071 1.353 . S
C1069 H1125 0.929 . S
C1070 C1066 1.356 . S
C1070 C1067 1.358 . S
C1070 H1126 0.930 . S
C1071 N1068 1.314 . S
C1071 C1069 1.353 . S
C1071 H1127 0.930 . S
C1072 N1073 1.314 . S
C1072 C1077 1.353 . S
C1072 H1078 0.930 . S
N1073 Li1056 1.990 . S
N1073 C1072 1.314 . S
N1073 C1075 1.279 . S
C1074 C1075 1.358 . S
C1074 C1076 1.356 . S
C1074 H1128 0.930 . S
C1075 N1073 1.279 . S
C1075 C1074 1.358 . S
C1075 H1079 0.930 . S
C1076 C1074 1.356 . S
C1076 C1077 1.348 . S
C1077 C1072 1.353 . S
C1077 C1076 1.348 . S
C1077 H1129 0.929 . S
H1078 C1072 0.930 . S
H1079 C1075 0.930 . S
C1080 N1081 1.314 . S
C1080 C1082 1.353 . S
C1080 H1086 0.930 . S
N1081 Li1057 1.990 1_455 S
N1081 C1080 1.314 . S
N1081 C1084 1.279 . S
C1082 C1080 1.353 . S
C1082 C1085 1.348 . S
C1082 H1130 0.929 . S
C1083 C1084 1.358 . S
C1083 C1085 1.356 . S
C1083 H1131 0.930 . S
C1084 N1081 1.279 . S
C1084 C1083 1.358 . S
C1084 H1087 0.927 1_455 S
C1085 C1082 1.348 . S
C1085 C1083 1.356 . S
H1086 C1080 0.930 . S
H1087 C1084 0.927 1_655 S
C1088 C1090 1.348 . S
C1088 C1091 1.356 . S
C1088 O1118 1.325 . S
N1089 C1092 1.314 . S
N1089 C1093 1.279 . S
C1090 C1088 1.348 . S
C1090 C1092 1.353 . S
C1090 H1132 0.929 . S
C1091 C1088 1.356 . S
C1091 C1093 1.358 . S
C1091 H1133 0.930 . S
C1092 N1089 1.314 . S
C1092 C1090 1.353 . S
C1092 H1134 0.930 . S
C1093 N1089 1.279 . S
C1093 C1091 1.358 . S
C1093 H1135 0.930 . S
C1094 C1095 1.348 . S
C1094 C1096 1.393 . S
C1094 O1119 1.325 . S
C1095 C1094 1.348 . S
C1095 C1097 1.314 1_655 S
C1095 H1136 0.929 . S
C1096 C1094 1.393 . S
C1096 C1098 1.321 1_655 S
C1096 H1137 0.936 . S
C1097 C1095 1.314 1_455 S
C1097 N1099 1.353 . S
C1097 H1138 0.935 . S
C1098 C1096 1.321 1_455 S
C1098 N1099 1.279 . S
C1098 H1139 0.930 . S
N1099 C1097 1.353 . S
N1099 C1098 1.279 . S
C1100 C1102 1.353 . S
C1100 N1103 1.314 . S
C1100 H1106 0.930 . S
C1101 N1103 1.279 . S
C1101 C1104 1.358 . S
C1101 H1107 0.930 . S
C1102 C1100 1.353 . S
C1102 C1105 1.348 . S
C1102 H1140 0.929 . S
N1103 Li1058 1.990 . S
N1103 C1100 1.314 . S
N1103 C1101 1.279 . S
C1104 C1101 1.358 . S
C1104 C1105 1.356 . S
C1104 H1141 0.930 . S
C1105 C1102 1.348 . S
C1105 C1104 1.356 . S
H1106 C1100 0.930 . S
H1107 C1101 0.930 . S
C1108 N1109 1.314 . S
C1108 C1110 1.353 . S
C1108 H1114 0.930 . S
N1109 Li1059 1.990 . S
N1109 C1108 1.314 . S
N1109 C1112 1.279 . S
C1110 C1108 1.353 . S
C1110 C1113 1.348 1_554 S
C1110 H1142 0.929 . S
C1111 C1112 1.358 1_556 S
C1111 C1113 1.356 . S
C1111 H1143 0.930 . S
C1112 N1109 1.279 . S
C1112 C1111 1.358 1_554 S
C1112 H1115 0.930 . S
C1113 C1110 1.348 1_556 S
C1113 C1111 1.356 . S
H1114 C1108 0.930 . S
H1115 C1112 0.930 . S
O1116 Li1056 1.956 . S
O1116 Li1057 1.970 . S
O1116 Li1058 1.961 . S
O1116 C1060 1.325 . S
O1117 Li1056 1.970 . S
O1117 Li1057 1.956 . S
O1117 Li1059 1.961 . S
O1117 C1066 1.325 . S
O1118 Li1056 1.961 . S
O1118 Li1058 1.956 . S
O1118 Li1059 1.970 . S
O1118 C1088 1.325 . S
O1119 Li1057 1.961 . S
O1119 Li1058 1.970 . S
O1119 Li1059 1.956 . S
O1119 C1094 1.325 . S
H1120 C1062 0.929 . S
H1121 C1063 0.930 . S
H1122 C1064 0.930 . S
H1123 C1065 0.930 . S
H1124 C1067 0.930 . S
H1125 C1069 0.929 . S
H1126 C1070 0.930 . S
H1127 C1071 0.930 . S
H1128 C1074 0.930 . S
H1129 C1077 0.929 . S
H1130 C1082 0.929 . S
H1131 C1083 0.930 . S
H1132 C1090 0.929 . S
H1133 C1091 0.930 . S
H1134 C1092 0.930 . S
H1135 C1093 0.930 . S
H1136 C1095 0.929 . S
H1137 C1096 0.936 . S
H1138 C1097 0.935 . S
H1139 C1098 0.930 . S
H1140 C1102 0.929 . S
H1141 C1104 0.930 . S
H1142 C1110 0.929 . S
H1143 C1111 0.930 . S
Li1144 N1161 1.990 1_565 S
Li1144 O1204 1.956 . S
Li1144 O1205 1.970 . S
Li1144 O1206 1.961 . S
Li1145 N1169 1.990 . S
Li1145 O1204 1.970 . S
Li1145 O1205 1.956 . S
Li1145 O1207 1.961 . S
Li1146 N1191 1.990 . S
Li1146 O1204 1.961 . S
Li1146 O1206 1.956 . S
Li1146 O1207 1.970 . S
Li1147 N1197 1.990 . S
Li1147 O1205 1.961 . S
Li1147 O1206 1.970 . S
Li1147 O1207 1.956 . S
C1148 C1150 1.348 . S
C1148 C1151 1.356 . S
C1148 O1204 1.325 . S
N1149 C1152 1.314 . S
N1149 C1153 1.279 . S
C1150 C1148 1.348 . S
C1150 C1152 1.353 . S
C1150 H1208 0.929 . S
C1151 C1148 1.356 . S
C1151 C1153 1.358 . S
C1151 H1209 0.930 . S
C1152 N1149 1.314 . S
C1152 C1150 1.353 . S
C1152 H1210 0.930 . S
C1153 N1149 1.279 . S
C1153 C1151 1.358 . S
C1153 H1211 0.930 . S
C1154 C1157 1.348 . S
C1154 C1158 1.356 . S
C1154 O1205 1.325 . S
C1155 N1156 1.279 . S
C1155 C1158 1.358 . S
C1155 H1212 0.930 . S
N1156 C1155 1.279 . S
N1156 C1159 1.314 1_565 S
C1157 C1154 1.348 . S
C1157 C1159 1.353 1_565 S
C1157 H1213 0.929 . S
C1158 C1154 1.356 . S
C1158 C1155 1.358 . S
C1158 H1214 0.930 . S
C1159 N1156 1.314 1_545 S
C1159 C1157 1.353 1_545 S
C1159 H1215 0.930 . S
C1160 N1161 1.314 . S
C1160 C1165 1.353 . S
C1160 H1166 0.930 . S
N1161 Li1144 1.990 1_545 S
N1161 C1160 1.314 . S
N1161 C1163 1.279 . S
C1162 C1163 1.358 . S
C1162 C1164 1.356 . S
C1162 H1216 0.930 . S
C1163 N1161 1.279 . S
C1163 C1162 1.358 . S
C1163 H1167 0.926 1_545 S
C1164 C1162 1.356 . S
C1164 C1165 1.348 . S
C1165 C1160 1.353 . S
C1165 C1164 1.348 . S
C1165 H1217 0.929 . S
H1166 C1160 0.930 . S
H1167 C1163 0.926 1_565 S
C1168 N1169 1.314 . S
C1168 C1170 1.353 . S
C1168 H1174 0.930 . S
N1169 Li1145 1.990 . S
N1169 C1168 1.314 . S
N1169 C1172 1.279 . S
C1170 C1168 1.353 . S
C1170 C1173 1.348 . S
C1170 H1218 0.929 . S
C1171 C1172 1.358 . S
C1171 C1173 1.356 . S
C1171 H1219 0.930 . S
C1172 N1169 1.279 . S
C1172 C1171 1.358 . S
C1172 H1175 0.930 . S
C1173 C1170 1.348 . S
C1173 C1171 1.356 . S
H1174 C1168 0.930 . S
H1175 C1172 0.930 . S
C1176 C1178 1.348 . S
C1176 C1179 1.393 . S
C1176 O1206 1.325 . S
N1177 C1180 1.353 . S
N1177 C1181 1.279 . S
C1178 C1176 1.348 . S
C1178 C1180 1.314 1_565 S
C1178 H1220 0.929 . S
C1179 C1176 1.393 . S
C1179 C1181 1.320 1_565 S
C1179 H1221 0.936 . S
C1180 N1177 1.353 . S
C1180 C1178 1.314 1_545 S
C1180 H1222 0.934 . S
C1181 N1177 1.279 . S
C1181 C1179 1.320 1_545 S
C1181 H1223 0.930 . S
C1182 C1183 1.348 . S
C1182 C1184 1.356 . S
C1182 O1207 1.325 . S
C1183 C1182 1.348 . S
C1183 C1185 1.353 . S
C1183 H1224 0.929 . S
C1184 C1182 1.356 . S
C1184 C1186 1.358 . S
C1184 H1225 0.930 . S
C1185 C1183 1.353 . S
C1185 N1187 1.314 . S
C1185 H1226 0.930 . S
C1186 C1184 1.358 . S
C1186 N1187 1.279 . S
C1186 H1227 0.930 . S
N1187 C1185 1.314 . S
N1187 C1186 1.279 . S
C1188 C1190 1.353 . S
C1188 N1191 1.314 . S
C1188 H1194 0.930 . S
C1189 N1191 1.279 . S
C1189 C1192 1.358 . S
C1189 H1195 0.930 . S
C1190 C1188 1.353 . S
C1190 C1193 1.348 . S
C1190 H1228 0.929 . S
N1191 Li1146 1.990 . S
N1191 C1188 1.314 . S
N1191 C1189 1.279 . S
C1192 C1189 1.358 . S
C1192 C1193 1.356 . S
C1192 H1229 0.930 . S
C1193 C1190 1.348 . S
C1193 C1192 1.356 . S
H1194 C1188 0.930 . S
H1195 C1189 0.930 . S
C1196 N1197 1.314 . S
C1196 C1198 1.353 . S
C1196 H1202 0.930 . S
N1197 Li1147 1.990 . S
N1197 C1196 1.314 . S
N1197 C1200 1.279 . S
C1198 C1196 1.353 . S
C1198 C1201 1.348 . S
C1198 H1230 0.929 . S
C1199 C1200 1.358 . S
C1199 C1201 1.356 . S
C1199 H1231 0.930 . S
C1200 N1197 1.279 . S
C1200 C1199 1.358 . S
C1200 H1203 0.930 . S
C1201 C1198 1.348 . S
C1201 C1199 1.356 . S
H1202 C1196 0.930 . S
H1203 C1200 0.930 . S
O1204 Li1144 1.956 . S
O1204 Li1145 1.970 . S
O1204 Li1146 1.961 . S
O1204 C1148 1.325 . S
O1205 Li1144 1.970 . S
O1205 Li1145 1.956 . S
O1205 Li1147 1.961 . S
O1205 C1154 1.325 . S
O1206 Li1144 1.961 . S
O1206 Li1146 1.956 . S
O1206 Li1147 1.970 . S
O1206 C1176 1.325 . S
O1207 Li1145 1.961 . S
O1207 Li1146 1.970 . S
O1207 Li1147 1.956 . S
O1207 C1182 1.325 . S
H1208 C1150 0.929 . S
H1209 C1151 0.930 . S
H1210 C1152 0.930 . S
H1211 C1153 0.930 . S
H1212 C1155 0.930 . S
H1213 C1157 0.929 . S
H1214 C1158 0.930 . S
H1215 C1159 0.930 . S
H1216 C1162 0.930 . S
H1217 C1165 0.929 . S
H1218 C1170 0.929 . S
H1219 C1171 0.930 . S
H1220 C1178 0.929 . S
H1221 C1179 0.936 . S
H1222 C1180 0.934 . S
H1223 C1181 0.930 . S
H1224 C1183 0.929 . S
H1225 C1184 0.930 . S
H1226 C1185 0.930 . S
H1227 C1186 0.930 . S
H1228 C1190 0.929 . S
H1229 C1192 0.930 . S
H1230 C1198 0.929 . S
H1231 C1199 0.930 . S
Li1232 N1249 1.990 . S
Li1232 O1292 1.956 . S
Li1232 O1293 1.970 . S
Li1232 O1294 1.961 . S
Li1233 N1257 1.990 . S
Li1233 O1292 1.970 . S
Li1233 O1293 1.956 . S
Li1233 O1295 1.961 . S
Li1234 N1279 1.990 . S
Li1234 O1292 1.961 . S
Li1234 O1294 1.956 . S
Li1234 O1295 1.970 . S
Li1235 N1285 1.990 . S
Li1235 O1293 1.961 . S
Li1235 O1294 1.970 . S
Li1235 O1295 1.956 . S
C1236 C1238 1.348 . S
C1236 C1239 1.356 . S
C1236 O1292 1.325 . S
N1237 C1240 1.314 . S
N1237 C1241 1.279 . S
C1238 C1236 1.348 . S
C1238 C1240 1.353 . S
C1238 H1296 0.929 . S
C1239 C1236 1.356 . S
C1239 C1241 1.358 . S
C1239 H1297 0.930 . S
C1240 N1237 1.314 . S
C1240 C1238 1.353 . S
C1240 H1298 0.930 . S
C1241 N1237 1.279 . S
C1241 C1239 1.358 . S
C1241 H1299 0.930 . S
C1242 C1245 1.348 . S
C1242 C1246 1.356 . S
C1242 O1293 1.325 . S
C1243 N1244 1.279 . S
C1243 C1246 1.358 . S
C1243 H1300 0.930 . S
N1244 C1243 1.279 . S
N1244 C1247 1.314 . S
C1245 C1242 1.348 . S
C1245 C1247 1.353 . S
C1245 H1301 0.929 . S
C1246 C1242 1.356 . S
C1246 C1243 1.358 . S
C1246 H1302 0.930 . S
C1247 N1244 1.314 . S
C1247 C1245 1.353 . S
C1247 H1303 0.930 . S
C1248 N1249 1.314 . S
C1248 C1253 1.353 . S
C1248 H1254 0.930 . S
N1249 Li1232 1.990 . S
N1249 C1248 1.314 . S
N1249 C1251 1.279 . S
C1250 C1251 1.358 . S
C1250 C1252 1.356 . S
C1250 H1304 0.930 . S
C1251 N1249 1.279 . S
C1251 C1250 1.358 . S
C1251 H1255 0.930 . S
C1252 C1250 1.356 . S
C1252 C1253 1.348 . S
C1253 C1248 1.353 . S
C1253 C1252 1.348 . S
C1253 H1305 0.929 . S
H1254 C1248 0.930 . S
H1255 C1251 0.930 . S
C1256 N1257 1.314 . S
C1256 C1258 1.353 . S
C1256 H1262 0.930 . S
N1257 Li1233 1.990 . S
N1257 C1256 1.314 . S
N1257 C1260 1.279 . S
C1258 C1256 1.353 . S
C1258 C1261 1.348 . S
C1258 H1306 0.929 . S
C1259 C1260 1.358 . S
C1259 C1261 1.356 . S
C1259 H1307 0.930 . S
C1260 N1257 1.279 . S
C1260 C1259 1.358 . S
C1260 H1263 0.930 . S
C1261 C1258 1.348 . S
C1261 C1259 1.356 . S
H1262 C1256 0.930 . S
H1263 C1260 0.930 . S
C1264 C1266 1.348 . S
C1264 C1267 1.356 . S
C1264 O1294 1.325 . S
N1265 C1268 1.314 . S
N1265 C1269 1.279 . S
C1266 C1264 1.348 . S
C1266 C1268 1.353 . S
C1266 H1308 0.929 . S
C1267 C1264 1.356 . S
C1267 C1269 1.358 . S
C1267 H1309 0.930 . S
C1268 N1265 1.314 . S
C1268 C1266 1.353 . S
C1268 H1310 0.930 . S
C1269 N1265 1.279 . S
C1269 C1267 1.358 . S
C1269 H1311 0.930 . S
C1270 C1271 1.348 . S
C1270 C1272 1.356 . S
C1270 O1295 1.325 . S
C1271 C1270 1.348 . S
C1271 C1273 1.353 . S
C1271 H1312 0.929 . S
C1272 C1270 1.356 . S
C1272 C1274 1.358 . S
C1272 H1313 0.930 . S
C1273 C1271 1.353 . S
C1273 N1275 1.314 . S
C1273 H1314 0.930 . S
C1274 C1272 1.358 . S
C1274 N1275 1.279 . S
C1274 H1315 0.930 . S
N1275 C1273 1.314 . S
N1275 C1274 1.279 . S
C1276 C1278 1.353 . S
C1276 N1279 1.314 . S
C1276 H1282 0.930 . S
C1277 N1279 1.279 . S
C1277 C1280 1.358 1_554 S
C1277 H1283 0.930 . S
C1278 C1276 1.353 . S
C1278 C1281 1.348 1_554 S
C1278 H1316 0.929 . S
N1279 Li1234 1.990 . S
N1279 C1276 1.314 . S
N1279 C1277 1.279 . S
C1280 C1277 1.358 1_556 S
C1280 C1281 1.356 . S
C1280 H1317 0.930 . S
C1281 C1278 1.348 1_556 S
C1281 C1280 1.356 . S
H1282 C1276 0.930 . S
H1283 C1277 0.930 . S
C1284 N1285 1.314 . S
C1284 C1286 1.353 . S
C1284 H1290 0.930 . S
N1285 Li1235 1.990 . S
N1285 C1284 1.314 . S
N1285 C1288 1.279 . S
C1286 C1284 1.353 . S
C1286 C1289 1.348 . S
C1286 H1318 0.929 . S
C1287 C1288 1.358 . S
C1287 C1289 1.356 . S
C1287 H1319 0.930 . S
C1288 N1285 1.279 . S
C1288 C1287 1.358 . S
C1288 H1291 0.930 . S
C1289 C1286 1.348 . S
C1289 C1287 1.356 . S
H1290 C1284 0.930 . S
H1291 C1288 0.930 . S
O1292 Li1232 1.956 . S
O1292 Li1233 1.970 . S
O1292 Li1234 1.961 . S
O1292 C1236 1.325 . S
O1293 Li1232 1.970 . S
O1293 Li1233 1.956 . S
O1293 Li1235 1.961 . S
O1293 C1242 1.325 . S
O1294 Li1232 1.961 . S
O1294 Li1234 1.956 . S
O1294 Li1235 1.970 . S
O1294 C1264 1.325 . S
O1295 Li1233 1.961 . S
O1295 Li1234 1.970 . S
O1295 Li1235 1.956 . S
O1295 C1270 1.325 . S
H1296 C1238 0.929 . S
H1297 C1239 0.930 . S
H1298 C1240 0.930 . S
H1299 C1241 0.930 . S
H1300 C1243 0.930 . S
H1301 C1245 0.929 . S
H1302 C1246 0.930 . S
H1303 C1247 0.930 . S
H1304 C1250 0.930 . S
H1305 C1253 0.929 . S
H1306 C1258 0.929 . S
H1307 C1259 0.930 . S
H1308 C1266 0.929 . S
H1309 C1267 0.930 . S
H1310 C1268 0.930 . S
H1311 C1269 0.930 . S
H1312 C1271 0.929 . S
H1313 C1272 0.930 . S
H1314 C1273 0.930 . S
H1315 C1274 0.930 . S
H1316 C1278 0.929 . S
H1317 C1280 0.930 . S
H1318 C1286 0.929 . S
H1319 C1287 0.930 . S
Li1320 N1337 1.990 . S
Li1320 O1380 1.956 . S
Li1320 O1381 1.970 . S
Li1320 O1382 1.961 . S
Li1321 N1345 1.990 . S
Li1321 O1380 1.970 . S
Li1321 O1381 1.956 . S
Li1321 O1383 1.961 . S
Li1322 N1367 1.990 . S
Li1322 O1380 1.961 . S
Li1322 O1382 1.956 . S
Li1322 O1383 1.970 . S
Li1323 N1373 1.990 . S
Li1323 O1381 1.961 . S
Li1323 O1382 1.970 . S
Li1323 O1383 1.956 . S
C1324 C1326 1.348 . S
C1324 C1327 1.356 . S
C1324 O1380 1.325 . S
N1325 C1328 1.314 . S
N1325 C1329 1.279 . S
C1326 C1324 1.348 . S
C1326 C1328 1.353 . S
C1326 H1384 0.929 . S
C1327 C1324 1.356 . S
C1327 C1329 1.358 . S
C1327 H1385 0.930 . S
C1328 N1325 1.314 . S
C1328 C1326 1.353 . S
C1328 H1386 0.930 . S
C1329 N1325 1.279 . S
C1329 C1327 1.358 . S
C1329 H1387 0.930 . S
C1330 C1333 1.348 . S
C1330 C1334 1.356 . S
C1330 O1381 1.325 . S
C1331 N1332 1.279 . S
C1331 C1334 1.358 . S
C1331 H1388 0.930 . S
N1332 C1331 1.279 . S
N1332 C1335 1.314 . S
C1333 C1330 1.348 . S
C1333 C1335 1.353 . S
C1333 H1389 0.929 . S
C1334 C1330 1.356 . S
C1334 C1331 1.358 . S
C1334 H1390 0.930 . S
C1335 N1332 1.314 . S
C1335 C1333 1.353 . S
C1335 H1391 0.930 . S
C1336 N1337 1.314 . S
C1336 C1341 1.353 . S
C1336 H1342 0.930 . S
N1337 Li1320 1.990 . S
N1337 C1336 1.314 . S
N1337 C1339 1.279 . S
C1338 C1339 1.358 . S
C1338 C1340 1.356 . S
C1338 H1392 0.930 . S
C1339 N1337 1.279 . S
C1339 C1338 1.358 . S
C1339 H1343 0.930 . S
C1340 C1338 1.356 . S
C1340 C1341 1.348 . S
C1341 C1336 1.353 . S
C1341 C1340 1.348 . S
C1341 H1393 0.929 . S
H1342 C1336 0.930 . S
H1343 C1339 0.930 . S
C1344 N1345 1.314 . S
C1344 C1346 1.353 . S
C1344 H1350 0.930 . S
N1345 Li1321 1.990 . S
N1345 C1344 1.314 . S
N1345 C1348 1.279 . S
C1346 C1344 1.353 . S
C1346 C1349 1.348 . S
C1346 H1394 0.929 . S
C1347 C1348 1.358 . S
C1347 C1349 1.356 . S
C1347 H1395 0.930 . S
C1348 N1345 1.279 . S
C1348 C1347 1.358 . S
C1348 H1351 0.930 . S
C1349 C1346 1.348 . S
C1349 C1347 1.356 . S
H1350 C1344 0.930 . S
H1351 C1348 0.930 . S
C1352 C1354 1.348 . S
C1352 C1355 1.356 . S
C1352 O1382 1.325 . S
N1353 C1356 1.314 . S
N1353 C1357 1.279 . S
C1354 C1352 1.348 . S
C1354 C1356 1.353 . S
C1354 H1396 0.929 . S
C1355 C1352 1.356 . S
C1355 C1357 1.358 . S
C1355 H1397 0.930 . S
C1356 N1353 1.314 . S
C1356 C1354 1.353 . S
C1356 H1398 0.930 . S
C1357 N1353 1.279 . S
C1357 C1355 1.358 . S
C1357 H1399 0.930 . S
C1358 C1359 1.348 . S
C1358 C1360 1.356 . S
C1358 O1383 1.325 . S
C1359 C1358 1.348 . S
C1359 C1361 1.353 . S
C1359 H1400 0.929 . S
C1360 C1358 1.356 . S
C1360 C1362 1.358 . S
C1360 H1401 0.930 . S
C1361 C1359 1.353 . S
C1361 N1363 1.314 . S
C1361 H1402 0.930 . S
C1362 C1360 1.358 . S
C1362 N1363 1.279 . S
C1362 H1403 0.930 . S
N1363 C1361 1.314 . S
N1363 C1362 1.279 . S
C1364 C1366 1.353 . S
C1364 N1367 1.314 . S
C1364 H1370 0.930 . S
C1365 N1367 1.279 . S
C1365 C1368 1.358 . S
C1365 H1371 0.930 . S
C1366 C1364 1.353 . S
C1366 C1369 1.348 . S
C1366 H1404 0.929 . S
N1367 Li1322 1.990 . S
N1367 C1364 1.314 . S
N1367 C1365 1.279 . S
C1368 C1365 1.358 . S
C1368 C1369 1.356 . S
C1368 H1405 0.930 . S
C1369 C1366 1.348 . S
C1369 C1368 1.356 . S
H1370 C1364 0.930 . S
H1371 C1365 0.930 . S
C1372 N1373 1.314 . S
C1372 C1374 1.353 . S
C1372 H1378 0.930 . S
N1373 Li1323 1.990 . S
N1373 C1372 1.314 . S
N1373 C1376 1.279 . S
C1374 C1372 1.353 . S
C1374 C1377 1.348 . S
C1374 H1406 0.929 . S
C1375 C1376 1.358 . S
C1375 C1377 1.356 . S
C1375 H1407 0.930 . S
C1376 N1373 1.279 . S
C1376 C1375 1.358 . S
C1376 H1379 0.930 . S
C1377 C1374 1.348 . S
C1377 C1375 1.356 . S
H1378 C1372 0.930 . S
H1379 C1376 0.930 . S
O1380 Li1320 1.956 . S
O1380 Li1321 1.970 . S
O1380 Li1322 1.961 . S
O1380 C1324 1.325 . S
O1381 Li1320 1.970 . S
O1381 Li1321 1.956 . S
O1381 Li1323 1.961 . S
O1381 C1330 1.325 . S
O1382 Li1320 1.961 . S
O1382 Li1322 1.956 . S
O1382 Li1323 1.970 . S
O1382 C1352 1.325 . S
O1383 Li1321 1.961 . S
O1383 Li1322 1.970 . S
O1383 Li1323 1.956 . S
O1383 C1358 1.325 . S
H1384 C1326 0.929 . S
H1385 C1327 0.930 . S
H1386 C1328 0.930 . S
H1387 C1329 0.930 . S
H1388 C1331 0.930 . S
H1389 C1333 0.929 . S
H1390 C1334 0.930 . S
H1391 C1335 0.930 . S
H1392 C1338 0.930 . S
H1393 C1341 0.929 . S
H1394 C1346 0.929 . S
H1395 C1347 0.930 . S
H1396 C1354 0.929 . S
H1397 C1355 0.930 . S
H1398 C1356 0.930 . S
H1399 C1357 0.930 . S
H1400 C1359 0.929 . S
H1401 C1360 0.930 . S
H1402 C1361 0.930 . S
H1403 C1362 0.930 . S
H1404 C1366 0.929 . S
H1405 C1368 0.930 . S
H1406 C1374 0.929 . S
H1407 C1375 0.930 . S
H1408 C1416 0.929 . S
H1409 C1418 0.930 . S
H1410 C1420 0.930 1_655 S
H1411 C1423 0.929 1_655 S
H1412 C1426 0.930 . S
H1413 C1428 0.960 1_655 S
H1414 C1428 0.960 . S
H1415 C1428 0.960 1_655 S
C1416 H1408 0.929 . S
C1416 C1417 1.377 . S
C1416 C1418 1.384 . S
C1417 C1416 1.377 . S
C1417 C1423 1.390 . S
C1418 H1409 0.930 . S
C1418 C1416 1.384 . S
C1418 C1419 1.372 . S
C1419 C1418 1.372 . S
C1419 C1420 1.400 . S
C1419 C1424 1.490 . S
C1420 H1410 0.930 1_455 S
C1420 C1419 1.400 . S
C1420 C1423 1.386 . S
H1421 C1437 0.930 1_655 S
H1422 C1438 0.927 1_655 S
C1423 H1411 0.929 1_455 S
C1423 C1417 1.390 . S
C1423 C1420 1.386 . S
C1424 C1419 1.490 . S
C1424 C1426 1.395 1_554 S
C1424 C1427 1.403 . S
H1425 C1431 0.930 . S
C1426 H1412 0.930 . S
C1426 C1424 1.395 1_556 S
C1426 C1429 1.403 . S
C1427 C1424 1.403 . S
C1427 C1428 1.524 . S
C1427 C1431 1.400 . S
C1428 H1413 0.960 1_455 S
C1428 H1414 0.960 . S
C1428 H1415 0.960 1_455 S
C1428 C1427 1.524 . S
C1429 C1426 1.403 . S
C1429 C1430 1.392 . S
C1429 C1433 1.495 . S
C1430 C1429 1.392 . S
C1430 C1431 1.385 1_556 S
C1430 C1432 1.478 . S
C1431 H1425 0.930 . S
C1431 C1427 1.400 . S
C1431 C1430 1.385 1_554 S
C1432 C1430 1.478 . S
C1432 C1434 1.381 . S
C1432 C1438 1.383 . S
C1433 C1429 1.495 . S
C1433 H1439 0.959 . S
C1433 H1440 0.961 . S
C1433 H1441 0.960 . S
C1434 C1432 1.381 . S
C1434 C1435 1.394 . S
C1434 H1442 0.930 . S
C1435 C1434 1.394 . S
C1435 C1436 1.383 . S
C1435 H1443 0.929 . S
C1436 C1435 1.383 . S
C1436 C1437 1.377 . S
C1437 H1421 0.930 1_455 S
C1437 C1436 1.377 . S
C1437 C1438 1.379 . S
C1438 H1422 0.927 1_455 S
C1438 C1432 1.383 . S
C1438 C1437 1.379 . S
H1439 C1433 0.959 . S
H1440 C1433 0.961 . S
H1441 C1433 0.960 . S
H1442 C1434 0.930 . S
H1443 C1435 0.929 . S
H1444 C1452 0.929 . S
H1445 C1454 0.930 . S
H1446 C1456 0.930 . S
H1447 C1459 0.929 . S
H1448 C1462 0.930 . S
H1449 C1464 0.960 . S
H1450 C1464 0.960 . S
H1451 C1464 0.957 1_545 S
C1452 H1444 0.929 . S
C1452 C1453 1.377 . S
C1452 C1454 1.384 . S
C1453 C1452 1.377 . S
C1453 C1459 1.390 . S
C1454 H1445 0.930 . S
C1454 C1452 1.384 . S
C1454 C1455 1.372 . S
C1455 C1454 1.372 . S
C1455 C1456 1.400 . S
C1455 C1460 1.490 . S
C1456 H1446 0.930 . S
C1456 C1455 1.400 . S
C1456 C1459 1.386 . S
H1457 C1473 0.930 . S
H1458 C1474 0.931 . S
C1459 H1447 0.929 . S
C1459 C1453 1.390 . S
C1459 C1456 1.386 . S
C1460 C1455 1.490 . S
C1460 C1462 1.395 . S
C1460 C1463 1.403 . S
H1461 C1467 0.930 . S
C1462 H1448 0.930 . S
C1462 C1460 1.395 . S
C1462 C1465 1.403 . S
C1463 C1460 1.403 . S
C1463 C1464 1.524 1_545 S
C1463 C1467 1.400 . S
C1464 H1449 0.960 . S
C1464 H1450 0.960 . S
C1464 H1451 0.957 1_565 S
C1464 C1463 1.524 1_565 S
C1465 C1462 1.403 . S
C1465 C1466 1.392 . S
C1465 C1469 1.495 . S
C1466 C1465 1.392 . S
C1466 C1467 1.385 . S
C1466 C1468 1.478 . S
C1467 H1461 0.930 . S
C1467 C1463 1.400 . S
C1467 C1466 1.385 . S
C1468 C1466 1.478 . S
C1468 C1470 1.381 . S
C1468 C1474 1.383 . S
C1469 C1465 1.495 . S
C1469 H1475 0.959 . S
C1469 H1476 0.961 . S
C1469 H1477 0.960 . S
C1470 C1468 1.381 . S
C1470 C1471 1.394 . S
C1470 H1478 0.930 . S
C1471 C1470 1.394 . S
C1471 C1472 1.383 . S
C1471 H1479 0.929 . S
C1472 C1471 1.383 . S
C1472 C1473 1.377 . S
C1473 H1457 0.930 . S
C1473 C1472 1.377 . S
C1473 C1474 1.379 . S
C1474 H1458 0.931 . S
C1474 C1468 1.383 . S
C1474 C1473 1.379 . S
H1475 C1469 0.959 . S
H1476 C1469 0.961 . S
H1477 C1469 0.960 . S
H1478 C1470 0.930 . S
H1479 C1471 0.929 . S
H1480 C1488 0.929 . S
H1481 C1490 0.930 . S
H1482 C1492 0.930 . S
H1483 C1495 0.929 . S
H1484 C1498 0.930 . S
H1485 C1500 0.960 1_556 S
H1486 C1500 0.960 1_556 S
H1487 C1500 0.960 . S
C1488 H1480 0.929 . S
C1488 C1489 1.377 . S
C1488 C1490 1.384 . S
C1489 C1488 1.377 . S
C1489 C1495 1.390 . S
C1490 H1481 0.930 . S
C1490 C1488 1.384 . S
C1490 C1491 1.372 . S
C1491 C1490 1.372 . S
C1491 C1492 1.400 . S
C1491 C1496 1.490 . S
C1492 H1482 0.930 . S
C1492 C1491 1.400 . S
C1492 C1495 1.386 . S
H1493 C1509 0.930 . S
H1494 C1510 0.931 . S
C1495 H1483 0.929 . S
C1495 C1489 1.390 . S
C1495 C1492 1.386 . S
C1496 C1491 1.490 . S
C1496 C1498 1.395 . S
C1496 C1499 1.403 . S
H1497 C1503 0.930 . S
C1498 H1484 0.930 . S
C1498 C1496 1.395 . S
C1498 C1501 1.403 1_554 S
C1499 C1496 1.403 . S
C1499 C1500 1.524 . S
C1499 C1503 1.400 1_554 S
C1500 H1485 0.960 1_554 S
C1500 H1486 0.960 1_554 S
C1500 H1487 0.960 . S
C1500 C1499 1.524 . S
C1501 C1498 1.403 1_556 S
C1501 C1502 1.392 . S
C1501 C1505 1.495 . S
C1502 C1501 1.392 . S
C1502 C1503 1.385 . S
C1502 C1504 1.478 . S
C1503 H1497 0.930 . S
C1503 C1499 1.400 1_556 S
C1503 C1502 1.385 . S
C1504 C1502 1.478 . S
C1504 C1506 1.381 . S
C1504 C1510 1.383 . S
C1505 C1501 1.495 . S
C1505 H1511 0.959 1_556 S
C1505 H1512 0.959 1_556 S
C1505 H1513 0.960 . S
C1506 C1504 1.381 . S
C1506 C1507 1.394 . S
C1506 H1514 0.930 . S
C1507 C1506 1.394 . S
C1507 C1508 1.383 . S
C1507 H1515 0.929 . S
C1508 C1507 1.383 . S
C1508 C1509 1.377 . S
C1509 H1493 0.930 . S
C1509 C1508 1.377 . S
C1509 C1510 1.379 . S
C1510 H1494 0.931 . S
C1510 C1504 1.383 . S
C1510 C1509 1.379 . S
H1511 C1505 0.959 1_554 S
H1512 C1505 0.959 1_554 S
H1513 C1505 0.960 . S
H1514 C1506 0.930 . S
H1515 C1507 0.929 . S
H1516 C1524 0.929 . S
H1517 C1526 0.930 . S
H1518 C1528 0.930 . S
H1519 C1531 0.929 . S
H1520 C1534 0.930 . S
H1521 C1536 0.960 . S
H1522 C1536 0.960 . S
H1523 C1536 0.960 . S
C1524 H1516 0.929 . S
C1524 C1525 1.377 . S
C1524 C1526 1.384 . S
C1525 C1524 1.377 . S
C1525 C1531 1.390 . S
C1526 H1517 0.930 . S
C1526 C1524 1.384 . S
C1526 C1527 1.372 . S
C1527 C1526 1.372 . S
C1527 C1528 1.400 . S
C1527 C1532 1.490 . S
C1528 H1518 0.930 . S
C1528 C1527 1.400 . S
C1528 C1531 1.386 . S
H1529 C1545 0.930 . S
H1530 C1546 0.931 . S
C1531 H1519 0.929 . S
C1531 C1525 1.390 . S
C1531 C1528 1.386 . S
C1532 C1527 1.490 . S
C1532 C1534 1.395 . S
C1532 C1535 1.403 . S
H1533 C1539 0.930 . S
C1534 H1520 0.930 . S
C1534 C1532 1.395 . S
C1534 C1537 1.403 . S
C1535 C1532 1.403 . S
C1535 C1536 1.524 . S
C1535 C1539 1.400 . S
C1536 H1521 0.960 . S
C1536 H1522 0.960 . S
C1536 H1523 0.960 . S
C1536 C1535 1.524 . S
C1537 C1534 1.403 . S
C1537 C1538 1.392 . S
C1537 C1541 1.495 . S
C1538 C1537 1.392 . S
C1538 C1539 1.385 . S
C1538 C1540 1.478 . S
C1539 H1533 0.930 . S
C1539 C1535 1.400 . S
C1539 C1538 1.385 . S
C1540 C1538 1.478 . S
C1540 C1542 1.381 . S
C1540 C1546 1.383 . S
C1541 C1537 1.495 . S
C1541 H1547 0.959 . S
C1541 H1548 0.961 . S
C1541 H1549 0.960 . S
C1542 C1540 1.381 . S
C1542 C1543 1.394 . S
C1542 H1550 0.930 . S
C1543 C1542 1.394 . S
C1543 C1544 1.383 . S
C1543 H1551 0.929 . S
C1544 C1543 1.383 . S
C1544 C1545 1.377 . S
C1545 H1529 0.930 . S
C1545 C1544 1.377 . S
C1545 C1546 1.379 . S
C1546 H1530 0.931 . S
C1546 C1540 1.383 . S
C1546 C1545 1.379 . S
H1547 C1541 0.959 . S
H1548 C1541 0.961 . S
H1549 C1541 0.960 . S
H1550 C1542 0.930 . S
H1551 C1543 0.929 . S
H1552 C1560 0.929 . S
H1553 C1562 0.930 . S
H1554 C1564 0.930 . S
H1555 C1567 0.929 . S
H1556 C1570 0.930 . S
H1557 C1572 0.971 . S
H1558 C1572 0.977 . S
H1559 C1572 0.949 1_655 S
C1560 H1552 0.929 . S
C1560 C1561 1.377 . S
C1560 C1562 1.384 . S
C1561 C1560 1.377 . S
C1561 C1567 1.390 . S
C1562 H1553 0.930 . S
C1562 C1560 1.384 . S
C1562 C1563 1.372 . S
C1563 C1562 1.372 . S
C1563 C1564 1.400 . S
C1563 C1568 1.490 . S
C1564 H1554 0.930 . S
C1564 C1563 1.400 . S
C1564 C1567 1.386 . S
H1565 C1581 0.930 . S
H1566 C1582 0.931 . S
C1567 H1555 0.929 . S
C1567 C1561 1.390 . S
C1567 C1564 1.386 . S
C1568 C1563 1.490 . S
C1568 C1570 1.395 1_556 S
C1568 C1571 1.403 . S
H1569 C1575 0.934 . S
C1570 H1556 0.930 . S
C1570 C1568 1.395 1_554 S
C1570 C1573 1.403 . S
C1571 C1568 1.403 . S
C1571 C1572 1.509 1_655 S
C1571 C1575 1.417 . S
C1572 H1557 0.971 . S
C1572 H1558 0.977 . S
C1572 H1559 0.949 1_455 S
C1572 C1571 1.509 1_455 S
C1573 C1570 1.403 . S
C1573 C1574 1.392 . S
C1573 C1577 1.495 . S
C1574 C1573 1.392 . S
C1574 C1575 1.365 1_554 S
C1574 C1576 1.478 . S
C1575 H1569 0.934 . S
C1575 C1571 1.417 . S
C1575 C1574 1.365 1_556 S
C1576 C1574 1.478 . S
C1576 C1578 1.381 . S
C1576 C1582 1.383 . S
C1577 C1573 1.495 . S
C1577 H1583 0.959 . S
C1577 H1584 0.961 . S
C1577 H1585 0.960 . S
C1578 C1576 1.381 . S
C1578 C1579 1.394 . S
C1578 H1586 0.930 . S
C1579 C1578 1.394 . S
C1579 C1580 1.383 . S
C1579 H1587 0.929 . S
C1580 C1579 1.383 . S
C1580 C1581 1.377 . S
C1581 H1565 0.930 . S
C1581 C1580 1.377 . S
C1581 C1582 1.379 . S
C1582 H1566 0.931 . S
C1582 C1576 1.383 . S
C1582 C1581 1.379 . S
H1583 C1577 0.959 . S
H1584 C1577 0.961 . S
H1585 C1577 0.960 . S
H1586 C1578 0.930 . S
H1587 C1579 0.929 . S
H1588 C1596 0.929 . S
H1589 C1598 0.930 . S
H1590 C1600 0.930 . S
H1591 C1603 0.929 . S
H1592 C1606 0.930 1_545 S
H1593 C1608 0.960 . S
H1594 C1608 0.960 . S
H1595 C1608 0.960 . S
C1596 H1588 0.929 . S
C1596 C1597 1.377 . S
C1596 C1598 1.384 . S
C1597 C1596 1.377 . S
C1597 C1603 1.390 . S
C1598 H1589 0.930 . S
C1598 C1596 1.384 . S
C1598 C1599 1.372 . S
C1599 C1598 1.372 . S
C1599 C1600 1.400 . S
C1599 C1604 1.490 . S
C1600 H1590 0.930 . S
C1600 C1599 1.400 . S
C1600 C1603 1.386 . S
H1601 C1617 0.930 . S
H1602 C1618 0.931 . S
C1603 H1591 0.929 . S
C1603 C1597 1.390 . S
C1603 C1600 1.386 . S
C1604 C1599 1.490 . S
C1604 C1606 1.395 . S
C1604 C1607 1.403 . S
H1605 C1611 0.930 . S
C1606 H1592 0.930 1_565 S
C1606 C1604 1.395 . S
C1606 C1609 1.403 . S
C1607 C1604 1.403 . S
C1607 C1608 1.524 . S
C1607 C1611 1.400 . S
C1608 H1593 0.960 . S
C1608 H1594 0.960 . S
C1608 H1595 0.960 . S
C1608 C1607 1.524 . S
C1609 C1606 1.403 . S
C1609 C1610 1.392 . S
C1609 C1613 1.495 1_565 S
C1610 C1609 1.392 . S
C1610 C1611 1.385 . S
C1610 C1612 1.478 . S
C1611 H1605 0.930 . S
C1611 C1607 1.400 . S
C1611 C1610 1.385 . S
C1612 C1610 1.478 . S
C1612 C1614 1.381 . S
C1612 C1618 1.383 . S
C1613 C1609 1.495 1_545 S
C1613 H1619 0.959 . S
C1613 H1620 0.961 . S
C1613 H1621 0.960 . S
C1614 C1612 1.381 . S
C1614 C1615 1.394 . S
C1614 H1622 0.930 . S
C1615 C1614 1.394 . S
C1615 C1616 1.383 . S
C1615 H1623 0.929 . S
C1616 C1615 1.383 . S
C1616 C1617 1.377 . S
C1617 H1601 0.930 . S
C1617 C1616 1.377 . S
C1617 C1618 1.379 . S
C1618 H1602 0.931 . S
C1618 C1612 1.383 . S
C1618 C1617 1.379 . S
H1619 C1613 0.959 . S
H1620 C1613 0.961 . S
H1621 C1613 0.960 . S
H1622 C1614 0.930 . S
H1623 C1615 0.929 . S
H1624 C1632 0.929 . S
H1625 C1634 0.930 . S
H1626 C1636 0.930 . S
H1627 C1639 0.929 . S
H1628 C1642 0.930 . S
H1629 C1644 0.960 1_554 S
H1630 C1644 0.960 . S
H1631 C1644 0.960 1_554 S
C1632 H1624 0.929 . S
C1632 C1633 1.377 . S
C1632 C1634 1.384 . S
C1633 C1632 1.377 . S
C1633 C1639 1.390 . S
C1634 H1625 0.930 . S
C1634 C1632 1.384 . S
C1634 C1635 1.372 . S
C1635 C1634 1.372 . S
C1635 C1636 1.400 . S
C1635 C1640 1.490 . S
C1636 H1626 0.930 . S
C1636 C1635 1.400 . S
C1636 C1639 1.386 . S
H1637 C1653 0.930 . S
H1638 C1654 0.931 . S
C1639 H1627 0.929 . S
C1639 C1633 1.390 . S
C1639 C1636 1.386 . S
C1640 C1635 1.490 . S
C1640 C1642 1.395 . S
C1640 C1643 1.403 . S
H1641 C1647 0.930 . S
C1642 H1628 0.930 . S
C1642 C1640 1.395 . S
C1642 C1645 1.403 . S
C1643 C1640 1.403 . S
C1643 C1644 1.524 . S
C1643 C1647 1.400 1_556 S
C1644 H1629 0.960 1_556 S
C1644 H1630 0.960 . S
C1644 H1631 0.960 1_556 S
C1644 C1643 1.524 . S
C1645 C1642 1.403 . S
C1645 C1646 1.392 1_556 S
C1645 C1649 1.495 . S
C1646 C1645 1.392 1_554 S
C1646 C1647 1.385 . S
C1646 C1648 1.478 . S
C1647 H1641 0.930 . S
C1647 C1643 1.400 1_554 S
C1647 C1646 1.385 . S
C1648 C1646 1.478 . S
C1648 C1650 1.381 . S
C1648 C1654 1.383 . S
C1649 C1645 1.495 . S
C1649 H1655 0.959 . S
C1649 H1656 0.961 1_556 S
C1649 H1657 0.960 . S
C1650 C1648 1.381 . S
C1650 C1651 1.394 . S
C1650 H1658 0.930 . S
C1651 C1650 1.394 . S
C1651 C1652 1.383 . S
C1651 H1659 0.929 . S
C1652 C1651 1.383 . S
C1652 C1653 1.377 . S
C1653 H1637 0.930 . S
C1653 C1652 1.377 . S
C1653 C1654 1.379 . S
C1654 H1638 0.931 . S
C1654 C1648 1.383 . S
C1654 C1653 1.379 . S
H1655 C1649 0.959 . S
H1656 C1649 0.961 1_554 S
H1657 C1649 0.960 . S
H1658 C1650 0.930 . S
H1659 C1651 0.929 . S
H1660 C1668 0.929 . S
H1661 C1670 0.930 . S
H1662 C1672 0.930 . S
H1663 C1675 0.929 . S
H1664 C1678 0.930 . S
H1665 C1680 0.960 . S
H1666 C1680 0.960 . S
H1667 C1680 0.960 . S
C1668 H1660 0.929 . S
C1668 C1669 1.377 . S
C1668 C1670 1.384 . S
C1669 C1668 1.377 . S
C1669 C1675 1.390 . S
C1670 H1661 0.930 . S
C1670 C1668 1.384 . S
C1670 C1671 1.372 . S
C1671 C1670 1.372 . S
C1671 C1672 1.400 . S
C1671 C1676 1.490 . S
C1672 H1662 0.930 . S
C1672 C1671 1.400 . S
C1672 C1675 1.386 . S
H1673 C1689 0.930 . S
H1674 C1690 0.931 . S
C1675 H1663 0.929 . S
C1675 C1669 1.390 . S
C1675 C1672 1.386 . S
C1676 C1671 1.490 . S
C1676 C1678 1.395 . S
C1676 C1679 1.403 . S
H1677 C1683 0.930 . S
C1678 H1664 0.930 . S
C1678 C1676 1.395 . S
C1678 C1681 1.403 . S
C1679 C1676 1.403 . S
C1679 C1680 1.524 . S
C1679 C1683 1.400 . S
C1680 H1665 0.960 . S
C1680 H1666 0.960 . S
C1680 H1667 0.960 . S
C1680 C1679 1.524 . S
C1681 C1678 1.403 . S
C1681 C1682 1.392 . S
C1681 C1685 1.495 . S
C1682 C1681 1.392 . S
C1682 C1683 1.385 . S
C1682 C1684 1.478 . S
C1683 H1677 0.930 . S
C1683 C1679 1.400 . S
C1683 C1682 1.385 . S
C1684 C1682 1.478 . S
C1684 C1686 1.381 . S
C1684 C1690 1.383 . S
C1685 C1681 1.495 . S
C1685 H1691 0.959 . S
C1685 H1692 0.961 . S
C1685 H1693 0.960 . S
C1686 C1684 1.381 . S
C1686 C1687 1.394 . S
C1686 H1694 0.930 . S
C1687 C1686 1.394 . S
C1687 C1688 1.383 . S
C1687 H1695 0.929 . S
C1688 C1687 1.383 . S
C1688 C1689 1.377 . S
C1689 H1673 0.930 . S
C1689 C1688 1.377 . S
C1689 C1690 1.379 . S
C1690 H1674 0.931 . S
C1690 C1684 1.383 . S
C1690 C1689 1.379 . S
H1691 C1685 0.959 . S
H1692 C1685 0.961 . S
H1693 C1685 0.960 . S
H1694 C1686 0.930 . S
H1695 C1687 0.929 . S
H1696 C1704 0.929 . S
H1697 C1706 0.930 . S
H1698 C1708 0.930 . S
H1699 C1711 0.929 . S
H1700 C1714 0.930 . S
H1701 C1716 0.960 . S
H1702 C1716 0.960 . S
H1703 C1716 0.960 . S
C1704 H1696 0.929 . S
C1704 C1705 1.377 . S
C1704 C1706 1.384 . S
C1705 C1704 1.377 . S
C1705 C1711 1.390 . S
C1706 H1697 0.930 . S
C1706 C1704 1.384 . S
C1706 C1707 1.372 . S
C1707 C1706 1.372 . S
C1707 C1708 1.400 . S
C1707 C1712 1.490 . S
C1708 H1698 0.930 . S
C1708 C1707 1.400 . S
C1708 C1711 1.386 . S
H1709 C1725 0.930 . S
H1710 C1726 0.931 . S
C1711 H1699 0.929 . S
C1711 C1705 1.390 . S
C1711 C1708 1.386 . S
C1712 C1707 1.490 . S
C1712 C1714 1.395 . S
C1712 C1715 1.403 . S
H1713 C1719 0.930 . S
C1714 H1700 0.930 . S
C1714 C1712 1.395 . S
C1714 C1717 1.403 . S
C1715 C1712 1.403 . S
C1715 C1716 1.524 . S
C1715 C1719 1.400 . S
C1716 H1701 0.960 . S
C1716 H1702 0.960 . S
C1716 H1703 0.960 . S
C1716 C1715 1.524 . S
C1717 C1714 1.403 . S
C1717 C1718 1.392 . S
C1717 C1721 1.495 . S
C1718 C1717 1.392 . S
C1718 C1719 1.385 . S
C1718 C1720 1.478 . S
C1719 H1713 0.930 . S
C1719 C1715 1.400 . S
C1719 C1718 1.385 . S
C1720 C1718 1.478 . S
C1720 C1722 1.381 . S
C1720 C1726 1.383 . S
C1721 C1717 1.495 . S
C1721 H1727 0.959 . S
C1721 H1728 0.961 . S
C1721 H1729 0.960 . S
C1722 C1720 1.381 . S
C1722 C1723 1.394 . S
C1722 H1730 0.930 . S
C1723 C1722 1.394 . S
C1723 C1724 1.383 . S
C1723 H1731 0.929 . S
C1724 C1723 1.383 . S
C1724 C1725 1.377 . S
C1725 H1709 0.930 . S
C1725 C1724 1.377 . S
C1725 C1726 1.379 . S
C1726 H1710 0.931 . S
C1726 C1720 1.383 . S
C1726 C1725 1.379 . S
H1727 C1721 0.959 . S
H1728 C1721 0.961 . S
H1729 C1721 0.960 . S
H1730 C1722 0.930 . S
H1731 C1723 0.929 . S
H1732 C1740 0.929 . S
H1733 C1742 0.930 . S
H1734 C1744 0.930 . S
H1735 C1747 0.929 . S
H1736 C1750 0.930 . S
H1737 C1752 0.960 . S
H1738 C1752 0.960 . S
H1739 C1752 0.960 . S
C1740 H1732 0.929 . S
C1740 C1741 1.377 . S
C1740 C1742 1.384 . S
C1741 C1740 1.377 . S
C1741 C1747 1.390 . S
C1742 H1733 0.930 . S
C1742 C1740 1.384 . S
C1742 C1743 1.372 . S
C1743 C1742 1.372 . S
C1743 C1744 1.400 . S
C1743 C1748 1.490 . S
C1744 H1734 0.930 . S
C1744 C1743 1.400 . S
C1744 C1747 1.386 . S
H1745 C1761 0.930 . S
H1746 C1762 0.931 . S
C1747 H1735 0.929 . S
C1747 C1741 1.390 . S
C1747 C1744 1.386 . S
C1748 C1743 1.490 . S
C1748 C1750 1.395 . S
C1748 C1751 1.403 . S
H1749 C1755 0.930 . S
C1750 H1736 0.930 . S
C1750 C1748 1.395 . S
C1750 C1753 1.403 . S
C1751 C1748 1.403 . S
C1751 C1752 1.524 . S
C1751 C1755 1.400 . S
C1752 H1737 0.960 . S
C1752 H1738 0.960 . S
C1752 H1739 0.960 . S
C1752 C1751 1.524 . S
C1753 C1750 1.403 . S
C1753 C1754 1.392 . S
C1753 C1757 1.495 . S
C1754 C1753 1.392 . S
C1754 C1755 1.385 . S
C1754 C1756 1.478 . S
C1755 H1749 0.930 . S
C1755 C1751 1.400 . S
C1755 C1754 1.385 . S
C1756 C1754 1.478 . S
C1756 C1758 1.381 . S
C1756 C1762 1.383 . S
C1757 C1753 1.495 . S
C1757 H1763 0.959 . S
C1757 H1764 0.961 . S
C1757 H1765 0.960 . S
C1758 C1756 1.381 . S
C1758 C1759 1.394 . S
C1758 H1766 0.930 . S
C1759 C1758 1.394 . S
C1759 C1760 1.383 . S
C1759 H1767 0.929 . S
C1760 C1759 1.383 . S
C1760 C1761 1.377 . S
C1761 H1745 0.930 . S
C1761 C1760 1.377 . S
C1761 C1762 1.379 . S
C1762 H1746 0.931 . S
C1762 C1756 1.383 . S
C1762 C1761 1.379 . S
H1763 C1757 0.959 . S
H1764 C1757 0.961 . S
H1765 C1757 0.960 . S
H1766 C1758 0.930 . S
H1767 C1759 0.929 . S
H1768 C1776 0.929 . S
H1769 C1778 0.930 . S
H1770 C1780 0.930 . S
H1771 C1783 0.929 . S
H1772 C1786 0.930 . S
H1773 C1788 0.960 . S
H1774 C1788 0.960 . S
H1775 C1788 0.960 . S
C1776 H1768 0.929 . S
C1776 C1777 1.377 . S
C1776 C1778 1.384 . S
C1777 C1776 1.377 . S
C1777 C1783 1.390 . S
C1778 H1769 0.930 . S
C1778 C1776 1.384 . S
C1778 C1779 1.372 . S
C1779 C1778 1.372 . S
C1779 C1780 1.400 . S
C1779 C1784 1.490 . S
C1780 H1770 0.930 . S
C1780 C1779 1.400 . S
C1780 C1783 1.386 . S
H1781 C1797 0.930 . S
H1782 C1798 0.931 . S
C1783 H1771 0.929 . S
C1783 C1777 1.390 . S
C1783 C1780 1.386 . S
C1784 C1779 1.490 . S
C1784 C1786 1.395 . S
C1784 C1787 1.403 . S
H1785 C1791 0.930 . S
C1786 H1772 0.930 . S
C1786 C1784 1.395 . S
C1786 C1789 1.403 . S
C1787 C1784 1.403 . S
C1787 C1788 1.524 . S
C1787 C1791 1.400 . S
C1788 H1773 0.960 . S
C1788 H1774 0.960 . S
C1788 H1775 0.960 . S
C1788 C1787 1.524 . S
C1789 C1786 1.403 . S
C1789 C1790 1.392 . S
C1789 C1793 1.495 . S
C1790 C1789 1.392 . S
C1790 C1791 1.385 . S
C1790 C1792 1.478 . S
C1791 H1785 0.930 . S
C1791 C1787 1.400 . S
C1791 C1790 1.385 . S
C1792 C1790 1.478 . S
C1792 C1794 1.381 . S
C1792 C1798 1.383 . S
C1793 C1789 1.495 . S
C1793 H1799 0.959 . S
C1793 H1800 0.961 . S
C1793 H1801 0.960 . S
C1794 C1792 1.381 . S
C1794 C1795 1.394 . S
C1794 H1802 0.930 . S
C1795 C1794 1.394 . S
C1795 C1796 1.383 . S
C1795 H1803 0.929 . S
C1796 C1795 1.383 . S
C1796 C1797 1.377 . S
C1797 H1781 0.930 . S
C1797 C1796 1.377 . S
C1797 C1798 1.379 . S
C1798 H1782 0.931 . S
C1798 C1792 1.383 . S
C1798 C1797 1.379 . S
H1799 C1793 0.959 . S
H1800 C1793 0.961 . S
H1801 C1793 0.960 . S
H1802 C1794 0.930 . S
H1803 C1795 0.929 . S
H1804 C1812 0.929 . S
H1805 C1814 0.930 . S
H1806 C1816 0.930 . S
H1807 C1819 0.929 . S
H1808 C1822 0.930 . S
H1809 C1824 0.960 . S
H1810 C1824 0.960 . S
H1811 C1824 0.960 . S
C1812 H1804 0.929 . S
C1812 C1813 1.377 . S
C1812 C1814 1.384 . S
C1813 C1812 1.377 . S
C1813 C1819 1.390 . S
C1814 H1805 0.930 . S
C1814 C1812 1.384 . S
C1814 C1815 1.372 . S
C1815 C1814 1.372 . S
C1815 C1816 1.400 . S
C1815 C1820 1.490 . S
C1816 H1806 0.930 . S
C1816 C1815 1.400 . S
C1816 C1819 1.386 . S
H1817 C1833 0.930 . S
H1818 C1834 0.931 . S
C1819 H1807 0.929 . S
C1819 C1813 1.390 . S
C1819 C1816 1.386 . S
C1820 C1815 1.490 . S
C1820 C1822 1.395 . S
C1820 C1823 1.403 . S
H1821 C1827 0.930 . S
C1822 H1808 0.930 . S
C1822 C1820 1.395 . S
C1822 C1825 1.403 . S
C1823 C1820 1.403 . S
C1823 C1824 1.524 . S
C1823 C1827 1.400 . S
C1824 H1809 0.960 . S
C1824 H1810 0.960 . S
C1824 H1811 0.960 . S
C1824 C1823 1.524 . S
C1825 C1822 1.403 . S
C1825 C1826 1.392 . S
C1825 C1829 1.495 . S
C1826 C1825 1.392 . S
C1826 C1827 1.385 . S
C1826 C1828 1.478 . S
C1827 H1821 0.930 . S
C1827 C1823 1.400 . S
C1827 C1826 1.385 . S
C1828 C1826 1.478 . S
C1828 C1830 1.381 . S
C1828 C1834 1.383 . S
C1829 C1825 1.495 . S
C1829 H1835 0.959 . S
C1829 H1836 0.961 . S
C1829 H1837 0.960 . S
C1830 C1828 1.381 . S
C1830 C1831 1.394 . S
C1830 H1838 0.930 . S
C1831 C1830 1.394 . S
C1831 C1832 1.383 . S
C1831 H1839 0.929 . S
C1832 C1831 1.383 . S
C1832 C1833 1.377 . S
C1833 H1817 0.930 . S
C1833 C1832 1.377 . S
C1833 C1834 1.379 . S
C1834 H1818 0.931 . S
C1834 C1828 1.383 . S
C1834 C1833 1.379 . S
H1835 C1829 0.959 . S
H1836 C1829 0.961 . S
H1837 C1829 0.960 . S
H1838 C1830 0.930 . S
H1839 C1831 0.929 . S
H1840 C1848 0.929 . S
H1841 C1850 0.930 . S
H1842 C1852 0.930 . S
H1843 C1855 0.929 . S
H1844 C1858 0.930 . S
H1845 C1860 0.960 . S
H1846 C1860 0.960 . S
H1847 C1860 0.960 . S
C1848 H1840 0.929 . S
C1848 C1849 1.377 . S
C1848 C1850 1.384 . S
C1849 C1848 1.377 . S
C1849 C1855 1.390 . S
C1850 H1841 0.930 . S
C1850 C1848 1.384 . S
C1850 C1851 1.372 . S
C1851 C1850 1.372 . S
C1851 C1852 1.400 . S
C1851 C1856 1.490 . S
C1852 H1842 0.930 . S
C1852 C1851 1.400 . S
C1852 C1855 1.386 . S
H1853 C1869 0.930 . S
H1854 C1870 0.931 . S
C1855 H1843 0.929 . S
C1855 C1849 1.390 . S
C1855 C1852 1.386 . S
C1856 C1851 1.490 . S
C1856 C1858 1.395 . S
C1856 C1859 1.403 . S
H1857 C1863 0.930 . S
C1858 H1844 0.930 . S
C1858 C1856 1.395 . S
C1858 C1861 1.403 . S
C1859 C1856 1.403 . S
C1859 C1860 1.524 . S
C1859 C1863 1.400 . S
C1860 H1845 0.960 . S
C1860 H1846 0.960 . S
C1860 H1847 0.960 . S
C1860 C1859 1.524 . S
C1861 C1858 1.403 . S
C1861 C1862 1.392 . S
C1861 C1865 1.495 . S
C1862 C1861 1.392 . S
C1862 C1863 1.385 . S
C1862 C1864 1.478 . S
C1863 H1857 0.930 . S
C1863 C1859 1.400 . S
C1863 C1862 1.385 . S
C1864 C1862 1.478 . S
C1864 C1866 1.381 . S
C1864 C1870 1.383 . S
C1865 C1861 1.495 . S
C1865 H1871 0.959 . S
C1865 H1872 0.961 . S
C1865 H1873 0.960 . S
C1866 C1864 1.381 . S
C1866 C1867 1.394 . S
C1866 H1874 0.930 . S
C1867 C1866 1.394 . S
C1867 C1868 1.383 . S
C1867 H1875 0.929 1_554 S
C1868 C1867 1.383 . S
C1868 C1869 1.377 . S
C1869 H1853 0.930 . S
C1869 C1868 1.377 . S
C1869 C1870 1.379 . S
C1870 H1854 0.931 . S
C1870 C1864 1.383 . S
C1870 C1869 1.379 . S
H1871 C1865 0.959 . S
H1872 C1865 0.961 . S
H1873 C1865 0.960 . S
H1874 C1866 0.930 . S
H1875 C1867 0.929 1_556 S
H1876 C1884 0.929 . S
H1877 C1886 0.930 . S
H1878 C1888 0.930 . S
H1879 C1891 0.929 . S
H1880 C1894 0.930 . S
H1881 C1896 0.960 . S
H1882 C1896 0.960 . S
H1883 C1896 0.960 . S
C1884 H1876 0.929 . S
C1884 C1885 1.377 . S
C1884 C1886 1.384 . S
C1885 C1884 1.377 . S
C1885 C1891 1.390 . S
C1886 H1877 0.930 . S
C1886 C1884 1.384 . S
C1886 C1887 1.372 . S
C1887 C1886 1.372 . S
C1887 C1888 1.400 . S
C1887 C1892 1.490 . S
C1888 H1878 0.930 . S
C1888 C1887 1.400 . S
C1888 C1891 1.386 . S
H1889 C1905 0.930 . S
H1890 C1906 0.931 . S
C1891 H1879 0.929 . S
C1891 C1885 1.390 . S
C1891 C1888 1.386 . S
C1892 C1887 1.490 . S
C1892 C1894 1.395 . S
C1892 C1895 1.403 . S
H1893 C1899 0.930 . S
C1894 H1880 0.930 . S
C1894 C1892 1.395 . S
C1894 C1897 1.403 . S
C1895 C1892 1.403 . S
C1895 C1896 1.524 . S
C1895 C1899 1.400 . S
C1896 H1881 0.960 . S
C1896 H1882 0.960 . S
C1896 H1883 0.960 . S
C1896 C1895 1.524 . S
C1897 C1894 1.403 . S
C1897 C1898 1.392 . S
C1897 C1901 1.495 . S
C1898 C1897 1.392 . S
C1898 C1899 1.385 . S
C1898 C1900 1.478 . S
C1899 H1893 0.930 . S
C1899 C1895 1.400 . S
C1899 C1898 1.385 . S
C1900 C1898 1.478 . S
C1900 C1902 1.381 . S
C1900 C1906 1.383 . S
C1901 C1897 1.495 . S
C1901 H1907 0.959 . S
C1901 H1908 0.961 . S
C1901 H1909 0.960 . S
C1902 C1900 1.381 . S
C1902 C1903 1.394 . S
C1902 H1910 0.930 . S
C1903 C1902 1.394 . S
C1903 C1904 1.383 . S
C1903 H1911 0.929 . S
C1904 C1903 1.383 . S
C1904 C1905 1.377 . S
C1905 H1889 0.930 . S
C1905 C1904 1.377 . S
C1905 C1906 1.379 . S
C1906 H1890 0.931 . S
C1906 C1900 1.383 . S
C1906 C1905 1.379 . S
H1907 C1901 0.959 . S
H1908 C1901 0.961 . S
H1909 C1901 0.960 . S
H1910 C1902 0.930 . S
H1911 C1903 0.929 . S
H1912 C1920 0.929 . S
H1913 C1922 0.930 . S
H1914 C1924 0.930 . S
H1915 C1927 0.929 . S
H1916 C1930 0.930 . S
H1917 C1932 0.960 . S
H1918 C1932 0.960 . S
H1919 C1932 0.960 . S
C1920 H1912 0.929 . S
C1920 C1921 1.377 . S
C1920 C1922 1.384 . S
C1921 C1920 1.377 . S
C1921 C1927 1.390 . S
C1922 H1913 0.930 . S
C1922 C1920 1.384 . S
C1922 C1923 1.372 . S
C1923 C1922 1.372 . S
C1923 C1924 1.400 . S
C1923 C1928 1.490 . S
C1924 H1914 0.930 . S
C1924 C1923 1.400 . S
C1924 C1927 1.386 . S
H1925 C1941 0.930 . S
H1926 C1942 0.931 . S
C1927 H1915 0.929 . S
C1927 C1921 1.390 . S
C1927 C1924 1.386 . S
C1928 C1923 1.490 . S
C1928 C1930 1.395 . S
C1928 C1931 1.403 . S
H1929 C1935 0.930 . S
C1930 H1916 0.930 . S
C1930 C1928 1.395 . S
C1930 C1933 1.403 . S
C1931 C1928 1.403 . S
C1931 C1932 1.524 . S
C1931 C1935 1.400 . S
C1932 H1917 0.960 . S
C1932 H1918 0.960 . S
C1932 H1919 0.960 . S
C1932 C1931 1.524 . S
C1933 C1930 1.403 . S
C1933 C1934 1.392 . S
C1933 C1937 1.495 . S
C1934 C1933 1.392 . S
C1934 C1935 1.385 . S
C1934 C1936 1.478 . S
C1935 H1929 0.930 . S
C1935 C1931 1.400 . S
C1935 C1934 1.385 . S
C1936 C1934 1.478 . S
C1936 C1938 1.381 . S
C1936 C1942 1.383 . S
C1937 C1933 1.495 . S
C1937 H1943 0.959 . S
C1937 H1944 0.961 . S
C1937 H1945 0.960 . S
C1938 C1936 1.381 . S
C1938 C1939 1.394 . S
C1938 H1946 0.930 . S
C1939 C1938 1.394 . S
C1939 C1940 1.383 . S
C1939 H1947 0.929 . S
C1940 C1939 1.383 . S
C1940 C1941 1.377 . S
C1941 H1925 0.930 . S
C1941 C1940 1.377 . S
C1941 C1942 1.379 . S
C1942 H1926 0.931 . S
C1942 C1936 1.383 . S
C1942 C1941 1.379 . S
H1943 C1937 0.959 . S
H1944 C1937 0.961 . S
H1945 C1937 0.960 . S
H1946 C1938 0.930 . S
H1947 C1939 0.929 . S
H1948 C1956 0.929 . S
H1949 C1958 0.930 . S
H1950 C1960 0.930 . S
H1951 C1963 0.929 . S
H1952 C1966 0.930 . S
H1953 C1968 0.960 . S
H1954 C1968 0.960 . S
H1955 C1968 0.960 . S
C1956 H1948 0.929 . S
C1956 C1957 1.377 . S
C1956 C1958 1.384 . S
C1957 C1956 1.377 . S
C1957 C1963 1.390 . S
C1958 H1949 0.930 . S
C1958 C1956 1.384 . S
C1958 C1959 1.372 . S
C1959 C1958 1.372 . S
C1959 C1960 1.400 . S
C1959 C1964 1.490 . S
C1960 H1950 0.930 . S
C1960 C1959 1.400 . S
C1960 C1963 1.386 . S
H1961 C1977 0.930 . S
H1962 C1978 0.931 . S
C1963 H1951 0.929 . S
C1963 C1957 1.390 . S
C1963 C1960 1.386 . S
C1964 C1959 1.490 . S
C1964 C1966 1.395 . S
C1964 C1967 1.403 . S
H1965 C1971 0.930 . S
C1966 H1952 0.930 . S
C1966 C1964 1.395 . S
C1966 C1969 1.403 . S
C1967 C1964 1.403 . S
C1967 C1968 1.524 . S
C1967 C1971 1.400 . S
C1968 H1953 0.960 . S
C1968 H1954 0.960 . S
C1968 H1955 0.960 . S
C1968 C1967 1.524 . S
C1969 C1966 1.403 . S
C1969 C1970 1.392 . S
C1969 C1973 1.495 . S
C1970 C1969 1.392 . S
C1970 C1971 1.385 . S
C1970 C1972 1.478 . S
C1971 H1965 0.930 . S
C1971 C1967 1.400 . S
C1971 C1970 1.385 . S
C1972 C1970 1.478 . S
C1972 C1974 1.381 . S
C1972 C1978 1.383 . S
C1973 C1969 1.495 . S
C1973 H1979 0.959 . S
C1973 H1980 0.961 . S
C1973 H1981 0.960 . S
C1974 C1972 1.381 . S
C1974 C1975 1.394 . S
C1974 H1982 0.930 . S
C1975 C1974 1.394 . S
C1975 C1976 1.383 . S
C1975 H1983 0.929 . S
C1976 C1975 1.383 . S
C1976 C1977 1.377 . S
C1977 H1961 0.930 . S
C1977 C1976 1.377 . S
C1977 C1978 1.379 . S
C1978 H1962 0.931 . S
C1978 C1972 1.383 . S
C1978 C1977 1.379 . S
H1979 C1973 0.959 . S
H1980 C1973 0.961 . S
H1981 C1973 0.960 . S
H1982 C1974 0.930 . S
H1983 C1975 0.929 . S
H1984 C1992 0.929 . S
H1985 C1994 0.930 . S
H1986 C1996 0.930 . S
H1987 C1999 0.929 1_556 S
H1988 C2002 0.930 . S
H1989 C2004 0.960 . S
H1990 C2004 0.960 . S
H1991 C2004 0.960 . S
C1992 H1984 0.929 . S
C1992 C1993 1.377 . S
C1992 C1994 1.384 . S
C1993 C1992 1.377 . S
C1993 C1999 1.390 . S
C1994 H1985 0.930 . S
C1994 C1992 1.384 . S
C1994 C1995 1.372 . S
C1995 C1994 1.372 . S
C1995 C1996 1.400 . S
C1995 C2000 1.490 . S
C1996 H1986 0.930 . S
C1996 C1995 1.400 . S
C1996 C1999 1.386 . S
H1997 C2013 0.930 . S
H1998 C2014 0.931 . S
C1999 H1987 0.929 1_554 S
C1999 C1993 1.390 . S
C1999 C1996 1.386 . S
C2000 C1995 1.490 . S
C2000 C2002 1.395 . S
C2000 C2003 1.403 . S
H2001 C2007 0.930 . S
C2002 H1988 0.930 . S
C2002 C2000 1.395 . S
C2002 C2005 1.403 . S
C2003 C2000 1.403 . S
C2003 C2004 1.524 . S
C2003 C2007 1.400 . S
C2004 H1989 0.960 . S
C2004 H1990 0.960 . S
C2004 H1991 0.960 . S
C2004 C2003 1.524 . S
C2005 C2002 1.403 . S
C2005 C2006 1.392 . S
C2005 C2009 1.495 . S
C2006 C2005 1.392 . S
C2006 C2007 1.385 . S
C2006 C2008 1.478 . S
C2007 H2001 0.930 . S
C2007 C2003 1.400 . S
C2007 C2006 1.385 . S
C2008 C2006 1.478 . S
C2008 C2010 1.381 . S
C2008 C2014 1.383 . S
C2009 C2005 1.495 . S
C2009 H2015 0.959 . S
C2009 H2016 0.961 . S
C2009 H2017 0.960 . S
C2010 C2008 1.381 . S
C2010 C2011 1.394 . S
C2010 H2018 0.930 . S
C2011 C2010 1.394 . S
C2011 C2012 1.383 . S
C2011 H2019 0.929 . S
C2012 C2011 1.383 . S
C2012 C2013 1.377 . S
C2013 H1997 0.930 . S
C2013 C2012 1.377 . S
C2013 C2014 1.379 . S
C2014 H1998 0.931 . S
C2014 C2008 1.383 . S
C2014 C2013 1.379 . S
H2015 C2009 0.959 . S
H2016 C2009 0.961 . S
H2017 C2009 0.960 . S
H2018 C2010 0.930 . S
H2019 C2011 0.929 . S
H2020 C2028 0.929 . S
H2021 C2030 0.930 . S
H2022 C2032 0.930 . S
H2023 C2035 0.929 . S
H2024 C2038 0.930 . S
H2025 C2040 0.960 . S
H2026 C2040 0.960 . S
H2027 C2040 0.960 . S
C2028 H2020 0.929 . S
C2028 C2029 1.377 . S
C2028 C2030 1.384 . S
C2029 C2028 1.377 . S
C2029 C2035 1.390 . S
C2030 H2021 0.930 . S
C2030 C2028 1.384 . S
C2030 C2031 1.372 . S
C2031 C2030 1.372 . S
C2031 C2032 1.400 . S
C2031 C2036 1.490 . S
C2032 H2022 0.930 . S
C2032 C2031 1.400 . S
C2032 C2035 1.386 . S
H2033 C2049 0.930 . S
H2034 C2050 0.931 . S
C2035 H2023 0.929 . S
C2035 C2029 1.390 . S
C2035 C2032 1.386 . S
C2036 C2031 1.490 . S
C2036 C2038 1.395 . S
C2036 C2039 1.403 . S
H2037 C2043 0.930 . S
C2038 H2024 0.930 . S
C2038 C2036 1.395 . S
C2038 C2041 1.403 . S
C2039 C2036 1.403 . S
C2039 C2040 1.524 . S
C2039 C2043 1.400 . S
C2040 H2025 0.960 . S
C2040 H2026 0.960 . S
C2040 H2027 0.960 . S
C2040 C2039 1.524 . S
C2041 C2038 1.403 . S
C2041 C2042 1.392 . S
C2041 C2045 1.495 . S
C2042 C2041 1.392 . S
C2042 C2043 1.385 . S
C2042 C2044 1.478 . S
C2043 H2037 0.930 . S
C2043 C2039 1.400 . S
C2043 C2042 1.385 . S
C2044 C2042 1.478 . S
C2044 C2046 1.381 . S
C2044 C2050 1.383 . S
C2045 C2041 1.495 . S
C2045 H2051 0.959 . S
C2045 H2052 0.961 . S
C2045 H2053 0.960 . S
C2046 C2044 1.381 . S
C2046 C2047 1.394 . S
C2046 H2054 0.930 . S
C2047 C2046 1.394 . S
C2047 C2048 1.383 . S
C2047 H2055 0.929 . S
C2048 C2047 1.383 . S
C2048 C2049 1.377 . S
C2049 H2033 0.930 . S
C2049 C2048 1.377 . S
C2049 C2050 1.379 . S
C2050 H2034 0.931 . S
C2050 C2044 1.383 . S
C2050 C2049 1.379 . S
H2051 C2045 0.959 . S
H2052 C2045 0.961 . S
H2053 C2045 0.960 . S
H2054 C2046 0.930 . S
H2055 C2047 0.929 . S
H2056 C2064 0.929 . S
H2057 C2066 0.930 . S
H2058 C2068 0.930 . S
H2059 C2071 0.929 . S
H2060 C2074 0.930 . S
H2061 C2076 0.960 . S
H2062 C2076 0.960 . S
H2063 C2076 0.960 . S
C2064 H2056 0.929 . S
C2064 C2065 1.377 . S
C2064 C2066 1.384 . S
C2065 C2064 1.377 . S
C2065 C2071 1.390 . S
C2066 H2057 0.930 . S
C2066 C2064 1.384 . S
C2066 C2067 1.372 . S
C2067 C2066 1.372 . S
C2067 C2068 1.400 . S
C2067 C2072 1.490 . S
C2068 H2058 0.930 . S
C2068 C2067 1.400 . S
C2068 C2071 1.386 . S
H2069 C2085 0.930 . S
H2070 C2086 0.931 . S
C2071 H2059 0.929 . S
C2071 C2065 1.390 . S
C2071 C2068 1.386 . S
C2072 C2067 1.490 . S
C2072 C2074 1.395 . S
C2072 C2075 1.403 . S
H2073 C2079 0.930 . S
C2074 H2060 0.930 . S
C2074 C2072 1.395 . S
C2074 C2077 1.403 . S
C2075 C2072 1.403 . S
C2075 C2076 1.524 . S
C2075 C2079 1.400 . S
C2076 H2061 0.960 . S
C2076 H2062 0.960 . S
C2076 H2063 0.960 . S
C2076 C2075 1.524 . S
C2077 C2074 1.403 . S
C2077 C2078 1.392 . S
C2077 C2081 1.495 . S
C2078 C2077 1.392 . S
C2078 C2079 1.385 . S
C2078 C2080 1.478 . S
C2079 H2073 0.930 . S
C2079 C2075 1.400 . S
C2079 C2078 1.385 . S
C2080 C2078 1.478 . S
C2080 C2082 1.381 . S
C2080 C2086 1.383 . S
C2081 C2077 1.495 . S
C2081 H2087 0.959 . S
C2081 H2088 0.961 . S
C2081 H2089 0.960 . S
C2082 C2080 1.381 . S
C2082 C2083 1.394 . S
C2082 H2090 0.930 . S
C2083 C2082 1.394 . S
C2083 C2084 1.383 . S
C2083 H2091 0.929 . S
C2084 C2083 1.383 . S
C2084 C2085 1.377 . S
C2085 H2069 0.930 . S
C2085 C2084 1.377 . S
C2085 C2086 1.379 . S
C2086 H2070 0.931 . S
C2086 C2080 1.383 . S
C2086 C2085 1.379 . S
H2087 C2081 0.959 . S
H2088 C2081 0.961 . S
H2089 C2081 0.960 . S
H2090 C2082 0.930 . S
H2091 C2083 0.929 . S
H2092 C2100 0.929 . S
H2093 C2102 0.930 . S
H2094 C2104 0.930 . S
H2095 C2107 0.929 . S
H2096 C2110 0.930 . S
H2097 C2112 0.960 . S
H2098 C2112 0.960 . S
H2099 C2112 0.960 . S
C2100 H2092 0.929 . S
C2100 C2101 1.377 . S
C2100 C2102 1.384 . S
C2101 C2100 1.377 . S
C2101 C2107 1.390 . S
C2102 H2093 0.930 . S
C2102 C2100 1.384 . S
C2102 C2103 1.372 . S
C2103 C2102 1.372 . S
C2103 C2104 1.400 . S
C2103 C2108 1.490 . S
C2104 H2094 0.930 . S
C2104 C2103 1.400 . S
C2104 C2107 1.386 . S
H2105 C2121 0.930 . S
H2106 C2122 0.931 . S
C2107 H2095 0.929 . S
C2107 C2101 1.390 . S
C2107 C2104 1.386 . S
C2108 C2103 1.490 . S
C2108 C2110 1.395 . S
C2108 C2111 1.403 . S
H2109 C2115 0.930 . S
C2110 H2096 0.930 . S
C2110 C2108 1.395 . S
C2110 C2113 1.403 . S
C2111 C2108 1.403 . S
C2111 C2112 1.524 . S
C2111 C2115 1.400 . S
C2112 H2097 0.960 . S
C2112 H2098 0.960 . S
C2112 H2099 0.960 . S
C2112 C2111 1.524 . S
C2113 C2110 1.403 . S
C2113 C2114 1.392 . S
C2113 C2117 1.495 . S
C2114 C2113 1.392 . S
C2114 C2115 1.385 . S
C2114 C2116 1.478 . S
C2115 H2109 0.930 . S
C2115 C2111 1.400 . S
C2115 C2114 1.385 . S
C2116 C2114 1.478 . S
C2116 C2118 1.381 . S
C2116 C2122 1.383 . S
C2117 C2113 1.495 . S
C2117 H2123 0.959 . S
C2117 H2124 0.961 . S
C2117 H2125 0.960 . S
C2118 C2116 1.381 . S
C2118 C2119 1.394 . S
C2118 H2126 0.930 . S
C2119 C2118 1.394 . S
C2119 C2120 1.383 . S
C2119 H2127 0.929 . S
C2120 C2119 1.383 . S
C2120 C2121 1.377 . S
C2121 H2105 0.930 . S
C2121 C2120 1.377 . S
C2121 C2122 1.379 . S
C2122 H2106 0.931 . S
C2122 C2116 1.383 . S
C2122 C2121 1.379 . S
H2123 C2117 0.959 . S
H2124 C2117 0.961 . S
H2125 C2117 0.960 . S
H2126 C2118 0.930 . S
H2127 C2119 0.929 . S
H2128 C2136 0.929 . S
H2129 C2138 0.930 . S
H2130 C2140 0.930 . S
H2131 C2143 0.929 . S
H2132 C2146 0.930 . S
H2133 C2148 0.960 . S
H2134 C2148 0.960 . S
H2135 C2148 0.960 . S
C2136 H2128 0.929 . S
C2136 C2137 1.377 . S
C2136 C2138 1.384 . S
C2137 C2136 1.377 . S
C2137 C2143 1.390 . S
C2138 H2129 0.930 . S
C2138 C2136 1.384 . S
C2138 C2139 1.372 . S
C2139 C2138 1.372 . S
C2139 C2140 1.400 . S
C2139 C2144 1.490 . S
C2140 H2130 0.930 . S
C2140 C2139 1.400 . S
C2140 C2143 1.386 . S
H2141 C2157 0.930 . S
H2142 C2158 0.931 . S
C2143 H2131 0.929 . S
C2143 C2137 1.390 . S
C2143 C2140 1.386 . S
C2144 C2139 1.490 . S
C2144 C2146 1.395 . S
C2144 C2147 1.403 . S
H2145 C2151 0.930 . S
C2146 H2132 0.930 . S
C2146 C2144 1.395 . S
C2146 C2149 1.403 . S
C2147 C2144 1.403 . S
C2147 C2148 1.524 . S
C2147 C2151 1.400 . S
C2148 H2133 0.960 . S
C2148 H2134 0.960 . S
C2148 H2135 0.960 . S
C2148 C2147 1.524 . S
C2149 C2146 1.403 . S
C2149 C2150 1.392 . S
C2149 C2153 1.495 . S
C2150 C2149 1.392 . S
C2150 C2151 1.385 . S
C2150 C2152 1.478 . S
C2151 H2145 0.930 . S
C2151 C2147 1.400 . S
C2151 C2150 1.385 . S
C2152 C2150 1.478 . S
C2152 C2154 1.381 . S
C2152 C2158 1.383 . S
C2153 C2149 1.495 . S
C2153 H2159 0.959 . S
C2153 H2160 0.961 . S
C2153 H2161 0.960 . S
C2154 C2152 1.381 . S
C2154 C2155 1.394 . S
C2154 H2162 0.930 . S
C2155 C2154 1.394 . S
C2155 C2156 1.383 . S
C2155 H2163 0.929 1_556 S
C2156 C2155 1.383 . S
C2156 C2157 1.377 . S
C2157 H2141 0.930 . S
C2157 C2156 1.377 . S
C2157 C2158 1.379 . S
C2158 H2142 0.931 . S
C2158 C2152 1.383 . S
C2158 C2157 1.379 . S
H2159 C2153 0.959 . S
H2160 C2153 0.961 . S
H2161 C2153 0.960 . S
H2162 C2154 0.930 . S
H2163 C2155 0.929 1_554 S
H2164 C2172 0.929 . S
H2165 C2174 0.930 . S
H2166 C2176 0.930 . S
H2167 C2179 0.929 . S
H2168 C2182 0.930 . S
H2169 C2184 0.960 . S
H2170 C2184 0.960 . S
H2171 C2184 0.960 . S
C2172 H2164 0.929 . S
C2172 C2173 1.377 . S
C2172 C2174 1.384 . S
C2173 C2172 1.377 . S
C2173 C2179 1.390 . S
C2174 H2165 0.930 . S
C2174 C2172 1.384 . S
C2174 C2175 1.372 . S
C2175 C2174 1.372 . S
C2175 C2176 1.400 . S
C2175 C2180 1.490 . S
C2176 H2166 0.930 . S
C2176 C2175 1.400 . S
C2176 C2179 1.386 . S
H2177 C2193 0.930 . S
H2178 C2194 0.931 . S
C2179 H2167 0.929 . S
C2179 C2173 1.390 . S
C2179 C2176 1.386 . S
C2180 C2175 1.490 . S
C2180 C2182 1.395 . S
C2180 C2183 1.403 . S
H2181 C2187 0.930 . S
C2182 H2168 0.930 . S
C2182 C2180 1.395 . S
C2182 C2185 1.403 . S
C2183 C2180 1.403 . S
C2183 C2184 1.524 . S
C2183 C2187 1.400 . S
C2184 H2169 0.960 . S
C2184 H2170 0.960 . S
C2184 H2171 0.960 . S
C2184 C2183 1.524 . S
C2185 C2182 1.403 . S
C2185 C2186 1.392 . S
C2185 C2189 1.495 . S
C2186 C2185 1.392 . S
C2186 C2187 1.385 . S
C2186 C2188 1.478 . S
C2187 H2181 0.930 . S
C2187 C2183 1.400 . S
C2187 C2186 1.385 . S
C2188 C2186 1.478 . S
C2188 C2190 1.381 . S
C2188 C2194 1.383 . S
C2189 C2185 1.495 . S
C2189 H2195 0.959 . S
C2189 H2196 0.961 . S
C2189 H2197 0.960 . S
C2190 C2188 1.381 . S
C2190 C2191 1.394 . S
C2190 H2198 0.930 . S
C2191 C2190 1.394 . S
C2191 C2192 1.383 . S
C2191 H2199 0.929 . S
C2192 C2191 1.383 . S
C2192 C2193 1.377 . S
C2193 H2177 0.930 . S
C2193 C2192 1.377 . S
C2193 C2194 1.379 . S
C2194 H2178 0.931 . S
C2194 C2188 1.383 . S
C2194 C2193 1.379 . S
H2195 C2189 0.959 . S
H2196 C2189 0.961 . S
H2197 C2189 0.960 . S
H2198 C2190 0.930 . S
H2199 C2191 0.929 . S
H2200 C2208 0.929 . S
H2201 C2210 0.930 . S
H2202 C2212 0.930 . S
H2203 C2215 0.929 . S
H2204 C2218 0.930 . S
H2205 C2220 0.960 . S
H2206 C2220 0.960 . S
H2207 C2220 0.960 . S
C2208 H2200 0.929 . S
C2208 C2209 1.377 . S
C2208 C2210 1.384 . S
C2209 C2208 1.377 . S
C2209 C2215 1.390 . S
C2210 H2201 0.930 . S
C2210 C2208 1.384 . S
C2210 C2211 1.372 . S
C2211 C2210 1.372 . S
C2211 C2212 1.400 . S
C2211 C2216 1.490 . S
C2212 H2202 0.930 . S
C2212 C2211 1.400 . S
C2212 C2215 1.386 . S
H2213 C2229 0.930 . S
H2214 C2230 0.931 . S
C2215 H2203 0.929 . S
C2215 C2209 1.390 . S
C2215 C2212 1.386 . S
C2216 C2211 1.490 . S
C2216 C2218 1.395 . S
C2216 C2219 1.403 . S
H2217 C2223 0.930 . S
C2218 H2204 0.930 . S
C2218 C2216 1.395 . S
C2218 C2221 1.403 . S
C2219 C2216 1.403 . S
C2219 C2220 1.524 . S
C2219 C2223 1.400 . S
C2220 H2205 0.960 . S
C2220 H2206 0.960 . S
C2220 H2207 0.960 . S
C2220 C2219 1.524 . S
C2221 C2218 1.403 . S
C2221 C2222 1.392 . S
C2221 C2225 1.495 . S
C2222 C2221 1.392 . S
C2222 C2223 1.385 . S
C2222 C2224 1.478 . S
C2223 H2217 0.930 . S
C2223 C2219 1.400 . S
C2223 C2222 1.385 . S
C2224 C2222 1.478 . S
C2224 C2226 1.381 . S
C2224 C2230 1.383 . S
C2225 C2221 1.495 . S
C2225 H2231 0.959 . S
C2225 H2232 0.961 . S
C2225 H2233 0.960 . S
C2226 C2224 1.381 . S
C2226 C2227 1.394 . S
C2226 H2234 0.930 . S
C2227 C2226 1.394 . S
C2227 C2228 1.383 . S
C2227 H2235 0.929 . S
C2228 C2227 1.383 . S
C2228 C2229 1.377 . S
C2229 H2213 0.930 . S
C2229 C2228 1.377 . S
C2229 C2230 1.379 . S
C2230 H2214 0.931 . S
C2230 C2224 1.383 . S
C2230 C2229 1.379 . S
H2231 C2225 0.959 . S
H2232 C2225 0.961 . S
H2233 C2225 0.960 . S
H2234 C2226 0.930 . S
H2235 C2227 0.929 . S
H2236 C2244 0.929 . S
H2237 C2246 0.930 . S
H2238 C2248 0.930 . S
H2239 C2251 0.929 . S
H2240 C2254 0.930 . S
H2241 C2256 0.960 . S
H2242 C2256 0.960 . S
H2243 C2256 0.960 . S
C2244 H2236 0.929 . S
C2244 C2245 1.377 . S
C2244 C2246 1.384 . S
C2245 C2244 1.377 . S
C2245 C2251 1.390 . S
C2246 H2237 0.930 . S
C2246 C2244 1.384 . S
C2246 C2247 1.372 . S
C2247 C2246 1.372 . S
C2247 C2248 1.400 . S
C2247 C2252 1.490 . S
C2248 H2238 0.930 . S
C2248 C2247 1.400 . S
C2248 C2251 1.386 . S
H2249 C2265 0.930 . S
H2250 C2266 0.931 . S
C2251 H2239 0.929 . S
C2251 C2245 1.390 . S
C2251 C2248 1.386 . S
C2252 C2247 1.490 . S
C2252 C2254 1.395 . S
C2252 C2255 1.403 . S
H2253 C2259 0.930 . S
C2254 H2240 0.930 . S
C2254 C2252 1.395 . S
C2254 C2257 1.403 . S
C2255 C2252 1.403 . S
C2255 C2256 1.524 . S
C2255 C2259 1.400 . S
C2256 H2241 0.960 . S
C2256 H2242 0.960 . S
C2256 H2243 0.960 . S
C2256 C2255 1.524 . S
C2257 C2254 1.403 . S
C2257 C2258 1.392 . S
C2257 C2261 1.495 . S
C2258 C2257 1.392 . S
C2258 C2259 1.385 . S
C2258 C2260 1.478 . S
C2259 H2253 0.930 . S
C2259 C2255 1.400 . S
C2259 C2258 1.385 . S
C2260 C2258 1.478 . S
C2260 C2262 1.381 . S
C2260 C2266 1.383 . S
C2261 C2257 1.495 . S
C2261 H2267 0.959 . S
C2261 H2268 0.961 . S
C2261 H2269 0.960 . S
C2262 C2260 1.381 . S
C2262 C2263 1.394 . S
C2262 H2270 0.930 . S
C2263 C2262 1.394 . S
C2263 C2264 1.383 . S
C2263 H2271 0.929 . S
C2264 C2263 1.383 . S
C2264 C2265 1.377 . S
C2265 H2249 0.930 . S
C2265 C2264 1.377 . S
C2265 C2266 1.379 . S
C2266 H2250 0.931 . S
C2266 C2260 1.383 . S
C2266 C2265 1.379 . S
H2267 C2261 0.959 . S
H2268 C2261 0.961 . S
H2269 C2261 0.960 . S
H2270 C2262 0.930 . S
H2271 C2263 0.929 . S
H2272 C2280 0.929 . S
H2273 C2282 0.930 . S
H2274 C2284 0.930 . S
H2275 C2287 0.929 . S
H2276 C2290 0.930 . S
H2277 C2292 0.960 . S
H2278 C2292 0.960 . S
H2279 C2292 0.960 . S
C2280 H2272 0.929 . S
C2280 C2281 1.377 . S
C2280 C2282 1.384 . S
C2281 C2280 1.377 . S
C2281 C2287 1.390 . S
C2282 H2273 0.930 . S
C2282 C2280 1.384 . S
C2282 C2283 1.372 . S
C2283 C2282 1.372 . S
C2283 C2284 1.400 . S
C2283 C2288 1.490 . S
C2284 H2274 0.930 . S
C2284 C2283 1.400 . S
C2284 C2287 1.386 . S
H2285 C2301 0.930 . S
H2286 C2302 0.931 . S
C2287 H2275 0.929 . S
C2287 C2281 1.390 . S
C2287 C2284 1.386 . S
C2288 C2283 1.490 . S
C2288 C2290 1.395 . S
C2288 C2291 1.403 . S
H2289 C2295 0.930 . S
C2290 H2276 0.930 . S
C2290 C2288 1.395 . S
C2290 C2293 1.403 . S
C2291 C2288 1.403 . S
C2291 C2292 1.524 . S
C2291 C2295 1.400 . S
C2292 H2277 0.960 . S
C2292 H2278 0.960 . S
C2292 H2279 0.960 . S
C2292 C2291 1.524 . S
C2293 C2290 1.403 . S
C2293 C2294 1.392 . S
C2293 C2297 1.495 . S
C2294 C2293 1.392 . S
C2294 C2295 1.385 . S
C2294 C2296 1.478 . S
C2295 H2289 0.930 . S
C2295 C2291 1.400 . S
C2295 C2294 1.385 . S
C2296 C2294 1.478 . S
C2296 C2298 1.381 . S
C2296 C2302 1.383 . S
C2297 C2293 1.495 . S
C2297 H2303 0.959 . S
C2297 H2304 0.961 . S
C2297 H2305 0.960 . S
C2298 C2296 1.381 . S
C2298 C2299 1.394 . S
C2298 H2306 0.930 . S
C2299 C2298 1.394 . S
C2299 C2300 1.383 . S
C2299 H2307 0.929 . S
C2300 C2299 1.383 . S
C2300 C2301 1.377 . S
C2301 H2285 0.930 . S
C2301 C2300 1.377 . S
C2301 C2302 1.379 . S
C2302 H2286 0.931 . S
C2302 C2296 1.383 . S
C2302 C2301 1.379 . S
H2303 C2297 0.959 . S
H2304 C2297 0.961 . S
H2305 C2297 0.960 . S
H2306 C2298 0.930 . S
H2307 C2299 0.929 . S
H2308 C2316 0.929 . S
H2309 C2318 0.930 . S
H2310 C2320 0.930 . S
H2311 C2323 0.929 . S
H2312 C2326 0.930 . S
H2313 C2328 0.960 . S
H2314 C2328 0.960 . S
H2315 C2328 0.960 . S
C2316 H2308 0.929 . S
C2316 C2317 1.377 . S
C2316 C2318 1.384 . S
C2317 C2316 1.377 . S
C2317 C2323 1.390 . S
C2318 H2309 0.930 . S
C2318 C2316 1.384 . S
C2318 C2319 1.372 . S
C2319 C2318 1.372 . S
C2319 C2320 1.400 . S
C2319 C2324 1.490 . S
C2320 H2310 0.930 . S
C2320 C2319 1.400 . S
C2320 C2323 1.386 . S
H2321 C2337 0.930 . S
H2322 C2338 0.931 . S
C2323 H2311 0.929 . S
C2323 C2317 1.390 . S
C2323 C2320 1.386 . S
C2324 C2319 1.490 . S
C2324 C2326 1.395 . S
C2324 C2327 1.403 . S
H2325 C2331 0.930 . S
C2326 H2312 0.930 . S
C2326 C2324 1.395 . S
C2326 C2329 1.403 . S
C2327 C2324 1.403 . S
C2327 C2328 1.524 . S
C2327 C2331 1.400 . S
C2328 H2313 0.960 . S
C2328 H2314 0.960 . S
C2328 H2315 0.960 . S
C2328 C2327 1.524 . S
C2329 C2326 1.403 . S
C2329 C2330 1.392 . S
C2329 C2333 1.495 . S
C2330 C2329 1.392 . S
C2330 C2331 1.385 . S
C2330 C2332 1.478 . S
C2331 H2325 0.930 . S
C2331 C2327 1.400 . S
C2331 C2330 1.385 . S
C2332 C2330 1.478 . S
C2332 C2334 1.381 . S
C2332 C2338 1.383 . S
C2333 C2329 1.495 . S
C2333 H2339 0.959 . S
C2333 H2340 0.961 . S
C2333 H2341 0.960 . S
C2334 C2332 1.381 . S
C2334 C2335 1.394 . S
C2334 H2342 0.930 . S
C2335 C2334 1.394 . S
C2335 C2336 1.383 . S
C2335 H2343 0.929 . S
C2336 C2335 1.383 . S
C2336 C2337 1.377 . S
C2337 H2321 0.930 . S
C2337 C2336 1.377 . S
C2337 C2338 1.379 . S
C2338 H2322 0.931 . S
C2338 C2332 1.383 . S
C2338 C2337 1.379 . S
H2339 C2333 0.959 . S
H2340 C2333 0.961 . S
H2341 C2333 0.960 . S
H2342 C2334 0.930 . S
H2343 C2335 0.929 . S
H2344 C2352 0.929 . S
H2345 C2354 0.930 . S
H2346 C2356 0.930 . S
H2347 C2359 0.929 . S
H2348 C2362 0.930 . S
H2349 C2364 0.960 . S
H2350 C2364 0.960 . S
H2351 C2364 0.960 . S
C2352 H2344 0.929 . S
C2352 C2353 1.377 . S
C2352 C2354 1.384 . S
C2353 C2352 1.377 . S
C2353 C2359 1.390 . S
C2354 H2345 0.930 . S
C2354 C2352 1.384 . S
C2354 C2355 1.372 . S
C2355 C2354 1.372 . S
C2355 C2356 1.400 . S
C2355 C2360 1.490 . S
C2356 H2346 0.930 . S
C2356 C2355 1.400 . S
C2356 C2359 1.386 . S
H2357 C2373 0.930 . S
H2358 C2374 0.931 . S
C2359 H2347 0.929 . S
C2359 C2353 1.390 . S
C2359 C2356 1.386 . S
C2360 C2355 1.490 . S
C2360 C2362 1.395 . S
C2360 C2363 1.403 . S
H2361 C2367 0.930 . S
C2362 H2348 0.930 . S
C2362 C2360 1.395 . S
C2362 C2365 1.403 . S
C2363 C2360 1.403 . S
C2363 C2364 1.524 . S
C2363 C2367 1.400 . S
C2364 H2349 0.960 . S
C2364 H2350 0.960 . S
C2364 H2351 0.960 . S
C2364 C2363 1.524 . S
C2365 C2362 1.403 . S
C2365 C2366 1.392 . S
C2365 C2369 1.495 . S
C2366 C2365 1.392 . S
C2366 C2367 1.385 . S
C2366 C2368 1.478 . S
C2367 H2361 0.930 . S
C2367 C2363 1.400 . S
C2367 C2366 1.385 . S
C2368 C2366 1.478 . S
C2368 C2370 1.381 . S
C2368 C2374 1.383 . S
C2369 C2365 1.495 . S
C2369 H2375 0.959 . S
C2369 H2376 0.961 . S
C2369 H2377 0.960 . S
C2370 C2368 1.381 . S
C2370 C2371 1.394 . S
C2370 H2378 0.930 . S
C2371 C2370 1.394 . S
C2371 C2372 1.383 . S
C2371 H2379 0.929 . S
C2372 C2371 1.383 . S
C2372 C2373 1.377 . S
C2373 H2357 0.930 . S
C2373 C2372 1.377 . S
C2373 C2374 1.379 . S
C2374 H2358 0.931 . S
C2374 C2368 1.383 . S
C2374 C2373 1.379 . S
H2375 C2369 0.959 . S
H2376 C2369 0.961 . S
H2377 C2369 0.960 . S
H2378 C2370 0.930 . S
H2379 C2371 0.929 . S
H2380 C2388 0.929 . S
H2381 C2390 0.930 . S
H2382 C2392 0.930 . S
H2383 C2395 0.929 . S
H2384 C2398 0.930 . S
H2385 C2400 0.960 . S
H2386 C2400 0.960 . S
H2387 C2400 0.960 . S
C2388 H2380 0.929 . S
C2388 C2389 1.377 . S
C2388 C2390 1.384 . S
C2389 C2388 1.377 . S
C2389 C2395 1.390 . S
C2390 H2381 0.930 . S
C2390 C2388 1.384 . S
C2390 C2391 1.372 . S
C2391 C2390 1.372 . S
C2391 C2392 1.400 . S
C2391 C2396 1.490 . S
C2392 H2382 0.930 . S
C2392 C2391 1.400 . S
C2392 C2395 1.386 . S
H2393 C2409 0.930 . S
H2394 C2410 0.931 . S
C2395 H2383 0.929 . S
C2395 C2389 1.390 . S
C2395 C2392 1.386 . S
C2396 C2391 1.490 . S
C2396 C2398 1.395 . S
C2396 C2399 1.403 . S
H2397 C2403 0.930 . S
C2398 H2384 0.930 . S
C2398 C2396 1.395 . S
C2398 C2401 1.403 . S
C2399 C2396 1.403 . S
C2399 C2400 1.524 . S
C2399 C2403 1.400 . S
C2400 H2385 0.960 . S
C2400 H2386 0.960 . S
C2400 H2387 0.960 . S
C2400 C2399 1.524 . S
C2401 C2398 1.403 . S
C2401 C2402 1.392 . S
C2401 C2405 1.495 . S
C2402 C2401 1.392 . S
C2402 C2403 1.385 . S
C2402 C2404 1.478 . S
C2403 H2397 0.930 . S
C2403 C2399 1.400 . S
C2403 C2402 1.385 . S
C2404 C2402 1.478 . S
C2404 C2406 1.381 . S
C2404 C2410 1.383 . S
C2405 C2401 1.495 . S
C2405 H2411 0.959 . S
C2405 H2412 0.961 . S
C2405 H2413 0.960 . S
C2406 C2404 1.381 . S
C2406 C2407 1.394 . S
C2406 H2414 0.930 . S
C2407 C2406 1.394 . S
C2407 C2408 1.383 . S
C2407 H2415 0.929 . S
C2408 C2407 1.383 . S
C2408 C2409 1.377 . S
C2409 H2393 0.930 . S
C2409 C2408 1.377 . S
C2409 C2410 1.379 . S
C2410 H2394 0.931 . S
C2410 C2404 1.383 . S
C2410 C2409 1.379 . S
H2411 C2405 0.959 . S
H2412 C2405 0.961 . S
H2413 C2405 0.960 . S
H2414 C2406 0.930 . S
H2415 C2407 0.929 . S
H2416 C2424 0.929 . S
H2417 C2426 0.930 . S
H2418 C2428 0.930 . S
H2419 C2431 0.929 . S
H2420 C2434 0.930 . S
H2421 C2436 0.960 . S
H2422 C2436 0.960 . S
H2423 C2436 0.960 . S
C2424 H2416 0.929 . S
C2424 C2425 1.377 . S
C2424 C2426 1.384 . S
C2425 C2424 1.377 . S
C2425 C2431 1.390 . S
C2426 H2417 0.930 . S
C2426 C2424 1.384 . S
C2426 C2427 1.372 . S
C2427 C2426 1.372 . S
C2427 C2428 1.400 . S
C2427 C2432 1.490 . S
C2428 H2418 0.930 . S
C2428 C2427 1.400 . S
C2428 C2431 1.386 . S
H2429 C2445 0.930 . S
H2430 C2446 0.931 . S
C2431 H2419 0.929 . S
C2431 C2425 1.390 . S
C2431 C2428 1.386 . S
C2432 C2427 1.490 . S
C2432 C2434 1.395 . S
C2432 C2435 1.403 . S
H2433 C2439 0.930 . S
C2434 H2420 0.930 . S
C2434 C2432 1.395 . S
C2434 C2437 1.403 . S
C2435 C2432 1.403 . S
C2435 C2436 1.524 . S
C2435 C2439 1.400 . S
C2436 H2421 0.960 . S
C2436 H2422 0.960 . S
C2436 H2423 0.960 . S
C2436 C2435 1.524 . S
C2437 C2434 1.403 . S
C2437 C2438 1.392 . S
C2437 C2441 1.495 . S
C2438 C2437 1.392 . S
C2438 C2439 1.385 . S
C2438 C2440 1.478 . S
C2439 H2433 0.930 . S
C2439 C2435 1.400 . S
C2439 C2438 1.385 . S
C2440 C2438 1.478 . S
C2440 C2442 1.381 . S
C2440 C2446 1.383 . S
C2441 C2437 1.495 . S
C2441 H2447 0.959 . S
C2441 H2448 0.961 . S
C2441 H2449 0.960 . S
C2442 C2440 1.381 . S
C2442 C2443 1.394 . S
C2442 H2450 0.930 . S
C2443 C2442 1.394 . S
C2443 C2444 1.383 . S
C2443 H2451 0.929 . S
C2444 C2443 1.383 . S
C2444 C2445 1.377 . S
C2445 H2429 0.930 . S
C2445 C2444 1.377 . S
C2445 C2446 1.379 . S
C2446 H2430 0.931 . S
C2446 C2440 1.383 . S
C2446 C2445 1.379 . S
H2447 C2441 0.959 . S
H2448 C2441 0.961 . S
H2449 C2441 0.960 . S
H2450 C2442 0.930 . S
H2451 C2443 0.929 . S
H2452 C2460 0.929 . S
H2453 C2462 0.930 . S
H2454 C2464 0.930 . S
H2455 C2467 0.929 . S
H2456 C2470 0.930 . S
H2457 C2472 0.960 . S
H2458 C2472 0.960 . S
H2459 C2472 0.960 . S
C2460 H2452 0.929 . S
C2460 C2461 1.377 . S
C2460 C2462 1.384 . S
C2461 C2460 1.377 . S
C2461 C2467 1.390 . S
C2462 H2453 0.930 . S
C2462 C2460 1.384 . S
C2462 C2463 1.372 . S
C2463 C2462 1.372 . S
C2463 C2464 1.400 . S
C2463 C2468 1.490 . S
C2464 H2454 0.930 . S
C2464 C2463 1.400 . S
C2464 C2467 1.386 . S
H2465 C2481 0.930 . S
H2466 C2482 0.931 . S
C2467 H2455 0.929 . S
C2467 C2461 1.390 . S
C2467 C2464 1.386 . S
C2468 C2463 1.490 . S
C2468 C2470 1.395 . S
C2468 C2471 1.403 . S
H2469 C2475 0.930 . S
C2470 H2456 0.930 . S
C2470 C2468 1.395 . S
C2470 C2473 1.403 . S
C2471 C2468 1.403 . S
C2471 C2472 1.524 . S
C2471 C2475 1.400 . S
C2472 H2457 0.960 . S
C2472 H2458 0.960 . S
C2472 H2459 0.960 . S
C2472 C2471 1.524 . S
C2473 C2470 1.403 . S
C2473 C2474 1.392 . S
C2473 C2477 1.495 . S
C2474 C2473 1.392 . S
C2474 C2475 1.385 . S
C2474 C2476 1.478 . S
C2475 H2469 0.930 . S
C2475 C2471 1.400 . S
C2475 C2474 1.385 . S
C2476 C2474 1.478 . S
C2476 C2478 1.381 . S
C2476 C2482 1.383 . S
C2477 C2473 1.495 . S
C2477 H2483 0.959 . S
C2477 H2484 0.961 . S
C2477 H2485 0.960 . S
C2478 C2476 1.381 . S
C2478 C2479 1.394 . S
C2478 H2486 0.930 . S
C2479 C2478 1.394 . S
C2479 C2480 1.383 . S
C2479 H2487 0.929 . S
C2480 C2479 1.383 . S
C2480 C2481 1.377 . S
C2481 H2465 0.930 . S
C2481 C2480 1.377 . S
C2481 C2482 1.379 . S
C2482 H2466 0.931 . S
C2482 C2476 1.383 . S
C2482 C2481 1.379 . S
H2483 C2477 0.959 . S
H2484 C2477 0.961 . S
H2485 C2477 0.960 . S
H2486 C2478 0.930 . S
H2487 C2479 0.929 . S
H2488 C2496 0.929 . S
H2489 C2498 0.930 . S
H2490 C2500 0.930 . S
H2491 C2503 0.929 . S
H2492 C2506 0.930 . S
H2493 C2508 0.960 . S
H2494 C2508 0.960 . S
H2495 C2508 0.960 . S
C2496 H2488 0.929 . S
C2496 C2497 1.377 . S
C2496 C2498 1.384 . S
C2497 C2496 1.377 . S
C2497 C2503 1.390 . S
C2498 H2489 0.930 . S
C2498 C2496 1.384 . S
C2498 C2499 1.372 . S
C2499 C2498 1.372 . S
C2499 C2500 1.400 . S
C2499 C2504 1.490 . S
C2500 H2490 0.930 . S
C2500 C2499 1.400 . S
C2500 C2503 1.386 . S
H2501 C2517 0.930 . S
H2502 C2518 0.931 . S
C2503 H2491 0.929 . S
C2503 C2497 1.390 . S
C2503 C2500 1.386 . S
C2504 C2499 1.490 . S
C2504 C2506 1.395 . S
C2504 C2507 1.403 . S
H2505 C2511 0.930 . S
C2506 H2492 0.930 . S
C2506 C2504 1.395 . S
C2506 C2509 1.403 . S
C2507 C2504 1.403 . S
C2507 C2508 1.524 . S
C2507 C2511 1.400 . S
C2508 H2493 0.960 . S
C2508 H2494 0.960 . S
C2508 H2495 0.960 . S
C2508 C2507 1.524 . S
C2509 C2506 1.403 . S
C2509 C2510 1.392 . S
C2509 C2513 1.495 . S
C2510 C2509 1.392 . S
C2510 C2511 1.385 . S
C2510 C2512 1.478 . S
C2511 H2505 0.930 . S
C2511 C2507 1.400 . S
C2511 C2510 1.385 . S
C2512 C2510 1.478 . S
C2512 C2514 1.381 . S
C2512 C2518 1.383 . S
C2513 C2509 1.495 . S
C2513 H2519 0.959 . S
C2513 H2520 0.961 . S
C2513 H2521 0.960 . S
C2514 C2512 1.381 . S
C2514 C2515 1.394 . S
C2514 H2522 0.930 . S
C2515 C2514 1.394 . S
C2515 C2516 1.383 . S
C2515 H2523 0.929 . S
C2516 C2515 1.383 . S
C2516 C2517 1.377 . S
C2517 H2501 0.930 . S
C2517 C2516 1.377 . S
C2517 C2518 1.379 . S
C2518 H2502 0.931 . S
C2518 C2512 1.383 . S
C2518 C2517 1.379 . S
H2519 C2513 0.959 . S
H2520 C2513 0.961 . S
H2521 C2513 0.960 . S
H2522 C2514 0.930 . S
H2523 C2515 0.929 . S
H2524 C2532 0.929 . S
H2525 C2534 0.930 . S
H2526 C2536 0.930 . S
H2527 C2539 0.929 . S
H2528 C2542 0.930 . S
H2529 C2544 0.960 . S
H2530 C2544 0.960 . S
H2531 C2544 0.960 . S
C2532 H2524 0.929 . S
C2532 C2533 1.377 . S
C2532 C2534 1.384 . S
C2533 C2532 1.377 . S
C2533 C2539 1.390 . S
C2534 H2525 0.930 . S
C2534 C2532 1.384 . S
C2534 C2535 1.372 . S
C2535 C2534 1.372 . S
C2535 C2536 1.400 . S
C2535 C2540 1.490 . S
C2536 H2526 0.930 . S
C2536 C2535 1.400 . S
C2536 C2539 1.386 . S
H2537 C2553 0.930 . S
H2538 C2554 0.931 . S
C2539 H2527 0.929 . S
C2539 C2533 1.390 . S
C2539 C2536 1.386 . S
C2540 C2535 1.490 . S
C2540 C2542 1.395 . S
C2540 C2543 1.403 . S
H2541 C2547 0.930 . S
C2542 H2528 0.930 . S
C2542 C2540 1.395 . S
C2542 C2545 1.403 . S
C2543 C2540 1.403 . S
C2543 C2544 1.524 . S
C2543 C2547 1.400 . S
C2544 H2529 0.960 . S
C2544 H2530 0.960 . S
C2544 H2531 0.960 . S
C2544 C2543 1.524 . S
C2545 C2542 1.403 . S
C2545 C2546 1.392 . S
C2545 C2549 1.495 . S
C2546 C2545 1.392 . S
C2546 C2547 1.385 . S
C2546 C2548 1.478 . S
C2547 H2541 0.930 . S
C2547 C2543 1.400 . S
C2547 C2546 1.385 . S
C2548 C2546 1.478 . S
C2548 C2550 1.381 . S
C2548 C2554 1.383 . S
C2549 C2545 1.495 . S
C2549 H2555 0.959 . S
C2549 H2556 0.961 . S
C2549 H2557 0.960 . S
C2550 C2548 1.381 . S
C2550 C2551 1.394 . S
C2550 H2558 0.930 . S
C2551 C2550 1.394 . S
C2551 C2552 1.383 . S
C2551 H2559 0.929 . S
C2552 C2551 1.383 . S
C2552 C2553 1.377 . S
C2553 H2537 0.930 . S
C2553 C2552 1.377 . S
C2553 C2554 1.379 . S
C2554 H2538 0.931 . S
C2554 C2548 1.383 . S
C2554 C2553 1.379 . S
H2555 C2549 0.959 . S
H2556 C2549 0.961 . S
H2557 C2549 0.960 . S
H2558 C2550 0.930 . S
H2559 C2551 0.929 . S
C1417 C49 1.020 . S
C1436 C372 1.041 . S
C1453 C460 1.019 . S
C1472 C137 0.986 . S
C1489 C225 1.006 . S
C1508 C548 1.004 . S
C1525 C313 1.012 . S
C1544 C636 0.974 . S
C1561 C733 1.006 . S
C1580 C1105 1.022 . S
C1597 C1201 1.010 . S
C1616 C821 1.008 . S
C1633 C900 1.010 . S
C1652 C1289 1.005 . S
C1669 C988 1.014 . S
C1688 C1369 1.042 . S
C1705 C57 0.974 . S
C1724 C1340 0.985 . S
C1741 C1076 0.962 . S
C1760 C145 0.979 . S
C1777 C233 0.970 . S
C1796 C1173 0.913 . S
C1813 C1261 0.950 . S
C1832 C321 0.946 . S
C1849 C849 0.959 . S
C1868 C381 0.966 . S
C1885 C929 0.952 . S
C1904 C469 0.981 . S
C1921 C1017 0.946 . S
C1940 C557 0.952 . S
C1957 C761 0.953 . S
C1976 C645 0.951 . S
C1993 C724 0.984 . S
C2012 C673 0.915 . S
C2029 C409 0.958 . S
C2048 C812 0.965 . S
C2065 C497 0.956 . S
C2084 C909 1.000 . S
C2101 C997 0.984 . S
C2120 C585 0.910 . S
C2137 C117 0.958 . S
C2156 C1113 0.998 . S
C2173 C1193 0.981 . S
C2192 C205 0.904 . S
C2209 C1281 0.986 . S
C2228 C293 0.970 . S
C2245 C1377 0.979 . S
C2264 C29 0.983 . S
C2281 C665 1.299 . S
C2300 C20 1.299 . S
C2317 C108 1.299 . S
C2336 C401 1.295 . S
C2353 C196 1.301 . S
C2372 C489 1.286 . S
C2389 C284 1.295 . S
C2408 C577 1.288 . S
C2425 C1349 1.278 . S
C2444 C753 1.252 . S
C2461 C1085 1.284 . S
C2480 C841 1.269 . S
C2497 C1164 1.277 . S
C2516 C937 1.254 . S
C2533 C1252 1.282 . S
C2552 C1025 1.297 . S
