# Generated by pormake.
# Topology dmp, (4)-cn, num edge types: 1
# Building blocks:
#     Node 0, Type 0, BuildingBlock: UXUYUI_clean_sbu_0, # of connection points: 4
#     Node 1, Type 0, BuildingBlock: UXUYUI_clean_sbu_0, # of connection points: 4
#     Node 2, Type 0, BuildingBlock: UXUYUI_clean_sbu_0, # of connection points: 4
#     Node 3, Type 0, BuildingBlock: UXUYUI_clean_sbu_0, # of connection points: 4
#     Edge 4, Type (0, 0), BuildingBlock: KIFKEQ_clean_linker_1, # of connection points: 2
#     Edge 5, Type (0, 0), BuildingBlock: KIFKEQ_clean_linker_1, # of connection points: 2
#     Edge 6, Type (0, 0), BuildingBlock: KIFKEQ_clean_linker_1, # of connection points: 2
#     Edge 7, Type (0, 0), BuildingBlock: KIFKEQ_clean_linker_1, # of connection points: 2
#     Edge 8, Type (0, 0), BuildingBlock: KIFKEQ_clean_linker_1, # of connection points: 2
#     Edge 9, Type (0, 0), BuildingBlock: KIFKEQ_clean_linker_1, # of connection points: 2
#     Edge 10, Type (0, 0), BuildingBlock: KIFKEQ_clean_linker_1, # of connection points: 2
#     Edge 11, Type (0, 0), BuildingBlock: KIFKEQ_clean_linker_1, # of connection points: 2
# Relax obj value: 0.351
# Max RMSD: 0.312
# Mean RMSD: 0.312
data_MOF--net-dmp--node1-UXUYUI_clean_sbu_0--edge1-KIFKEQ_clean_linker_1
_symmetry_space_group_name_H-M    P1
_symmetry_Int_Tables_number       1
_symmetry_cell_setting            triclinic
loop_
_symmetry_equiv_pos_as_xyz
'x, y, z'
_cell_length_a     56.710478
_cell_length_b     24.252385
_cell_length_c     29.284894
_cell_angle_alpha  89.991815
_cell_angle_beta   89.913955
_cell_angle_gamma 90.037981
loop_
_atom_site_label
_atom_site_type_symbol
_atom_site_fract_x
_atom_site_fract_y
_atom_site_fract_z
_atom_type_partial_charge
Li0 Li 0.11439 0.28076 0.21694 0.0
Li1 Li 0.11099 0.2081 0.27169 0.0
Li2 Li 0.08214 0.21506 0.21378 0.0
Li3 Li 0.08333 0.28151 0.27804 0.0
C4 C 0.12056 0.19342 0.15966 0.0
N5 N 0.12963 0.17836 0.0677 0.0
C6 C 0.13611 0.15219 0.14531 0.0
C7 C 0.10973 0.22722 0.12715 0.0
C8 C 0.14044 0.14519 0.0987 0.0
C9 C 0.1145 0.21885 0.08086 0.0
C10 C 0.1345 0.29371 0.31597 0.0
C11 C 0.14601 0.31818 0.39258 0.0
N12 N 0.16887 0.30712 0.3818 0.0
C13 C 0.15811 0.283 0.30553 0.0
C14 C 0.12838 0.31175 0.35975 0.0
C15 C 0.17522 0.28983 0.33934 0.0
C16 C 0.13102 0.37589 0.16986 0.0
N17 N 0.13623 0.32391 0.18381 0.0
C18 C 0.176 0.33328 0.15838 0.0
C19 C 0.15796 0.30175 0.17737 0.0
C20 C 0.17161 0.3882 0.14562 0.0
C21 C 0.14854 0.40889 0.15026 0.0
H22 H 0.11353 0.3923 0.17542 0.0
H23 H 0.16154 0.26021 0.18883 0.0
C24 C 0.13676 0.11225 0.27771 0.0
N25 N 0.13025 0.15605 0.30366 0.0
C26 C 0.15495 0.07783 0.29189 0.0
C27 C 0.15784 0.13063 0.36163 0.0
C28 C 0.13939 0.16392 0.34613 0.0
C29 C 0.16658 0.08874 0.3332 0.0
H30 H 0.12864 0.10581 0.2448 0.0
H31 H 0.1334 0.19777 0.367 0.0
C32 C 0.05796 0.31738 0.20231 0.0
N33 N 0.01313 0.35717 0.18591 0.0
C34 C 0.03846 0.29301 0.22353 0.0
C35 C 0.05466 0.36198 0.17281 0.0
C36 C 0.01594 0.31376 0.21481 0.0
C37 C 0.03185 0.38146 0.16491 0.0
C38 C 0.07635 0.16529 0.31562 0.0
C39 C 0.07185 0.10932 0.30841 0.0
C40 C 0.08146 0.18411 0.35963 0.0
C41 C 0.07269 0.07296 0.34538 0.0
C42 C 0.08212 0.14646 0.39571 0.0
N43 N 0.07778 0.09212 0.38789 0.0
C44 C 0.06707 0.11797 0.17276 0.0
C45 C 0.04973 0.19738 0.13976 0.0
C46 C 0.05583 0.08403 0.14106 0.0
N47 N 0.06368 0.17342 0.17186 0.0
C48 C 0.03813 0.16504 0.10745 0.0
C49 C 0.04118 0.10757 0.10773 0.0
H50 H 0.07909 0.1003 0.19733 0.0
H51 H 0.04801 0.2416 0.13825 0.0
C52 C 0.07159 0.38243 0.3189 0.0
N53 N 0.06587 0.32808 0.31719 0.0
C54 C 0.05939 0.4179 0.34812 0.0
C55 C 0.03564 0.34061 0.37294 0.0
C56 C 0.04816 0.30682 0.343 0.0
C57 C 0.04121 0.39702 0.3759 0.0
H58 H 0.08569 0.3981 0.29762 0.0
H59 H 0.04385 0.26349 0.34055 0.0
O60 O 0.11623 0.2006 0.20533 0.0
O61 O 0.11746 0.28735 0.28345 0.0
O62 O 0.08024 0.29832 0.21063 0.0
O63 O 0.07594 0.2015 0.2798 0.0
H64 H 0.14484 0.12594 0.1699 0.0
H65 H 0.09778 0.25961 0.13734 0.0
H66 H 0.15243 0.11342 0.08716 0.0
H67 H 0.10619 0.24462 0.05539 0.0
H68 H 0.14153 0.33187 0.42666 0.0
H69 H 0.16313 0.26874 0.27194 0.0
H70 H 0.11019 0.32036 0.36836 0.0
H71 H 0.19354 0.28125 0.33187 0.0
H72 H 0.1935 0.31565 0.15634 0.0
H73 H 0.14426 0.45073 0.14039 0.0
H74 H 0.16072 0.04486 0.26957 0.0
H75 H 0.1662 0.1401 0.39392 0.0
H76 H 0.04063 0.25833 0.24633 0.0
H77 H 0.06958 0.38129 0.15613 0.0
H78 H 0.00069 0.29531 0.23097 0.0
H79 H 0.02904 0.41592 0.1421 0.0
H80 H 0.06769 0.09406 0.27471 0.0
H81 H 0.08525 0.22719 0.36574 0.0
H82 H 0.06929 0.0295 0.34028 0.0
H83 H 0.0862 0.16041 0.42988 0.0
H84 H 0.05909 0.04005 0.14187 0.0
H85 H 0.02695 0.18489 0.08242 0.0
H86 H 0.06404 0.46119 0.34865 0.0
H87 H 0.02201 0.32243 0.39406 0.0
Li88 Li 0.40748 0.77999 0.22123 0.0
Li89 Li 0.4089 0.71496 0.28651 0.0
Li90 Li 0.37996 0.70626 0.22885 0.0
Li91 Li 0.37648 0.78 0.28256 0.0
C92 C 0.41488 0.66339 0.18515 0.0
N93 N 0.41417 0.58933 0.11346 0.0
C94 C 0.41972 0.60769 0.19287 0.0
C95 C 0.40979 0.68149 0.14093 0.0
C96 C 0.41923 0.57087 0.15619 0.0
C97 C 0.4095 0.64341 0.10515 0.0
C98 C 0.43283 0.81788 0.29663 0.0
C99 C 0.45876 0.88213 0.33438 0.0
N100 N 0.47756 0.85817 0.31341 0.0
C101 C 0.4524 0.79383 0.27548 0.0
C102 C 0.436 0.86239 0.32629 0.0
C103 C 0.47487 0.81484 0.28439 0.0
C104 C 0.41782 0.87888 0.17538 0.0
N105 N 0.42451 0.82543 0.18037 0.0
C106 C 0.45386 0.83541 0.12248 0.0
C107 C 0.44241 0.80355 0.15538 0.0
C108 C 0.44697 0.89041 0.11571 0.0
C109 C 0.42895 0.91245 0.14313 0.0
H110 H 0.40349 0.895 0.19583 0.0
H111 H 0.44754 0.76109 0.16052 0.0
C112 C 0.42461 0.61893 0.32822 0.0
N113 N 0.42758 0.67453 0.32885 0.0
C114 C 0.43606 0.58574 0.36016 0.0
C115 C 0.45302 0.66778 0.39356 0.0
C116 C 0.44128 0.69936 0.36092 0.0
C117 C 0.45043 0.61019 0.39349 0.0
H118 H 0.41276 0.60055 0.3037 0.0
H119 H 0.44267 0.74367 0.36217 0.0
C120 C 0.35582 0.7904 0.18423 0.0
N121 N 0.32057 0.8014 0.11989 0.0
C122 C 0.33245 0.77857 0.1958 0.0
C123 C 0.36126 0.80825 0.14006 0.0
C124 C 0.31488 0.78421 0.16273 0.0
C125 C 0.34318 0.81349 0.108 0.0
C126 C 0.37064 0.69377 0.34121 0.0
C127 C 0.35526 0.65256 0.35639 0.0
C128 C 0.38144 0.72854 0.37307 0.0
C129 C 0.35108 0.64655 0.40314 0.0
C130 C 0.37683 0.72114 0.41953 0.0
N131 N 0.36187 0.68064 0.43349 0.0
C132 C 0.35359 0.61093 0.22365 0.0
C133 C 0.35217 0.66096 0.15425 0.0
C134 C 0.3353 0.57687 0.20923 0.0
N135 N 0.36075 0.65378 0.19724 0.0
C136 C 0.33367 0.62801 0.13848 0.0
C137 C 0.32427 0.58717 0.1672 0.0
H138 H 0.36125 0.60503 0.25703 0.0
H139 H 0.35862 0.69416 0.13314 0.0
C140 C 0.35973 0.87621 0.3277 0.0
N141 N 0.35461 0.82364 0.31519 0.0
C142 C 0.34224 0.90957 0.34688 0.0
C143 C 0.31497 0.83316 0.34138 0.0
C144 C 0.333 0.80129 0.32277 0.0
C145 C 0.31926 0.88863 0.3526 0.0
H146 H 0.37714 0.89277 0.32128 0.0
H147 H 0.32947 0.75927 0.31251 0.0
O148 O 0.41498 0.70005 0.22067 0.0
O149 O 0.41062 0.79834 0.2884 0.0
O150 O 0.37332 0.78509 0.21599 0.0
O151 O 0.37483 0.69998 0.29539 0.0
H152 H 0.42389 0.59298 0.22672 0.0
H153 H 0.40571 0.72433 0.13441 0.0
H154 H 0.42291 0.52761 0.16169 0.0
H155 H 0.40543 0.6568 0.07082 0.0
H156 H 0.46148 0.9165 0.35731 0.0
H157 H 0.45032 0.75914 0.25266 0.0
H158 H 0.42102 0.88136 0.34299 0.0
H159 H 0.49018 0.79664 0.26828 0.0
H160 H 0.46794 0.81722 0.10251 0.0
H161 H 0.4231 0.95462 0.13877 0.0
H162 H 0.43316 0.5416 0.35955 0.0
H163 H 0.46395 0.68827 0.41867 0.0
H164 H 0.32796 0.76427 0.22966 0.0
H165 H 0.37927 0.81754 0.13052 0.0
H166 H 0.29673 0.77476 0.17109 0.0
H167 H 0.34714 0.82702 0.07363 0.0
H168 H 0.34655 0.62556 0.33232 0.0
H169 H 0.39326 0.76095 0.36224 0.0
H170 H 0.33923 0.61479 0.41531 0.0
H171 H 0.38512 0.74766 0.44449 0.0
H172 H 0.32899 0.5447 0.23184 0.0
H173 H 0.32577 0.637 0.10567 0.0
H174 H 0.34646 0.95182 0.3556 0.0
H175 H 0.29754 0.81527 0.34433 0.0
Li176 Li 0.87334 0.7846 0.717 0.0
Li177 Li 0.90305 0.77911 0.77967 0.0
Li178 Li 0.90406 0.71456 0.71314 0.0
Li179 Li 0.87385 0.71037 0.769 0.0
C180 C 0.91479 0.8505 0.70811 0.0
N181 N 0.92848 0.95944 0.69997 0.0
C182 C 0.9028 0.89165 0.73216 0.0
C183 C 0.93373 0.86476 0.67989 0.0
C184 C 0.91 0.94647 0.72762 0.0
C185 C 0.94037 0.92008 0.6762 0.0
C186 C 0.85408 0.78634 0.8209 0.0
C187 C 0.84819 0.77663 0.90213 0.0
N188 N 0.82447 0.77852 0.89568 0.0
C189 C 0.82964 0.7885 0.81513 0.0
C190 C 0.86346 0.78049 0.86477 0.0
C191 C 0.81496 0.78431 0.85334 0.0
C192 C 0.82977 0.8099 0.68353 0.0
N193 N 0.85228 0.82891 0.68212 0.0
C194 C 0.84056 0.90489 0.63537 0.0
C195 C 0.85812 0.87447 0.65742 0.0
C196 C 0.81697 0.88739 0.63804 0.0
C197 C 0.81176 0.83856 0.66171 0.0
H198 H 0.82578 0.77262 0.70228 0.0
H199 H 0.87625 0.88764 0.655 0.0
C200 C 0.94482 0.80423 0.82686 0.0
N201 N 0.92204 0.81982 0.82067 0.0
C202 C 0.9594 0.83395 0.85636 0.0
C203 C 0.92673 0.89509 0.87233 0.0
C204 C 0.91282 0.86423 0.84261 0.0
C205 C 0.95038 0.88017 0.87945 0.0
H206 H 0.95165 0.76883 0.80868 0.0
H207 H 0.89463 0.87565 0.83706 0.0
C208 C 0.86673 0.70118 0.65569 0.0
N209 N 0.86054 0.69186 0.56232 0.0
C210 C 0.85141 0.66144 0.63788 0.0
C211 C 0.87894 0.7361 0.62582 0.0
C212 C 0.84851 0.6574 0.59063 0.0
C213 C 0.87556 0.73076 0.5788 0.0
C214 C 0.9091 0.6518 0.80402 0.0
C215 C 0.90283 0.6014 0.78436 0.0
C216 C 0.91626 0.65372 0.84962 0.0
C217 C 0.90353 0.55361 0.81096 0.0
C218 C 0.91678 0.60498 0.87506 0.0
N219 N 0.91043 0.55638 0.85537 0.0
C220 C 0.94573 0.69513 0.66252 0.0
C221 C 0.91578 0.62759 0.65404 0.0
C222 C 0.95987 0.66811 0.63044 0.0
N223 N 0.92405 0.67485 0.67313 0.0
C224 C 0.92912 0.5998 0.62139 0.0
C225 C 0.95135 0.62037 0.60894 0.0
H226 H 0.95185 0.73272 0.67847 0.0
H227 H 0.89861 0.61199 0.66355 0.0
C228 C 0.83487 0.64198 0.77349 0.0
N229 N 0.85256 0.66163 0.80012 0.0
C230 C 0.81774 0.60733 0.79179 0.0
C231 C 0.83666 0.61509 0.86542 0.0
C232 C 0.85379 0.64892 0.84538 0.0
C233 C 0.81853 0.59365 0.83823 0.0
H234 H 0.83388 0.65379 0.73805 0.0
H235 H 0.86782 0.66547 0.86613 0.0
O236 O 0.90847 0.79634 0.71277 0.0
O237 O 0.86876 0.7898 0.78387 0.0
O238 O 0.86974 0.70519 0.70205 0.0
O239 O 0.90845 0.69902 0.77865 0.0
H240 H 0.88793 0.88153 0.75371 0.0
H241 H 0.94321 0.83341 0.66107 0.0
H242 H 0.90085 0.97872 0.746 0.0
H243 H 0.955 0.9317 0.65449 0.0
H244 H 0.85522 0.77169 0.93621 0.0
H245 H 0.82204 0.79322 0.78156 0.0
H246 H 0.8823 0.7777 0.86988 0.0
H247 H 0.79601 0.78568 0.84933 0.0
H248 H 0.84532 0.94196 0.61688 0.0
H249 H 0.79381 0.82379 0.66495 0.0
H250 H 0.97759 0.82138 0.86052 0.0
H251 H 0.91896 0.9299 0.88995 0.0
H252 H 0.84193 0.63369 0.66025 0.0
H253 H 0.89094 0.76702 0.63852 0.0
H254 H 0.83672 0.62679 0.57648 0.0
H255 H 0.8849 0.75753 0.55539 0.0
H256 H 0.8972 0.59936 0.74912 0.0
H257 H 0.9212 0.69249 0.86524 0.0
H258 H 0.89856 0.51435 0.79632 0.0
H259 H 0.92218 0.6058 0.91046 0.0
H260 H 0.97694 0.68512 0.62161 0.0
H261 H 0.92214 0.56262 0.60597 0.0
H262 H 0.80376 0.59201 0.77002 0.0
H263 H 0.83769 0.60531 0.90145 0.0
Li264 Li 0.61614 0.20681 0.72336 0.0
Li265 Li 0.58565 0.21196 0.78337 0.0
Li266 Li 0.58683 0.27874 0.72227 0.0
Li267 Li 0.6165 0.27906 0.77933 0.0
C268 C 0.57505 0.14444 0.70905 0.0
N269 N 0.5624 0.03575 0.69476 0.0
C270 C 0.58673 0.10213 0.73227 0.0
C271 C 0.55694 0.13144 0.6786 0.0
C272 C 0.58007 0.04746 0.72458 0.0
C273 C 0.55081 0.07625 0.67181 0.0
C274 C 0.63252 0.19717 0.82929 0.0
C275 C 0.63599 0.2148 0.91004 0.0
N276 N 0.65892 0.1985 0.90846 0.0
C277 C 0.65608 0.18038 0.82847 0.0
C278 C 0.62233 0.21438 0.87038 0.0
C279 C 0.66915 0.18144 0.86887 0.0
C280 C 0.66011 0.17807 0.69523 0.0
N281 N 0.63731 0.16339 0.68809 0.0
C282 C 0.64923 0.09395 0.63488 0.0
C283 C 0.63149 0.12305 0.65782 0.0
C284 C 0.67297 0.10776 0.64247 0.0
C285 C 0.67828 0.15088 0.67264 0.0
H286 H 0.66415 0.21085 0.7189 0.0
H287 H 0.61321 0.11319 0.65151 0.0
C288 C 0.54277 0.18446 0.82626 0.0
N289 N 0.56586 0.17029 0.82229 0.0
C290 C 0.52789 0.15467 0.85525 0.0
C291 C 0.56089 0.09637 0.87521 0.0
C292 C 0.57506 0.12709 0.84577 0.0
C293 C 0.53694 0.11001 0.88033 0.0
H294 H 0.53597 0.21896 0.80691 0.0
H295 H 0.59348 0.11666 0.84185 0.0
C296 C 0.62656 0.29463 0.66806 0.0
N297 N 0.63779 0.31103 0.57724 0.0
C298 C 0.6448 0.33054 0.65601 0.0
C299 C 0.61406 0.26688 0.63393 0.0
C300 C 0.65021 0.33833 0.6099 0.0
C301 C 0.61999 0.27579 0.58822 0.0
C302 C 0.57806 0.34797 0.79551 0.0
C303 C 0.59257 0.38776 0.77532 0.0
C304 C 0.55889 0.36455 0.82217 0.0
C305 C 0.58763 0.44356 0.78218 0.0
C306 C 0.55453 0.42077 0.82823 0.0
N307 N 0.56887 0.45879 0.80827 0.0
C308 C 0.54548 0.30532 0.67465 0.0
C309 C 0.57646 0.37004 0.6653 0.0
C310 C 0.53099 0.33574 0.64552 0.0
N311 N 0.56775 0.32276 0.68369 0.0
C312 C 0.56265 0.40159 0.63593 0.0
C313 C 0.53959 0.38451 0.62556 0.0
H314 H 0.53902 0.26765 0.69002 0.0
H315 H 0.59423 0.38306 0.67305 0.0
C316 C 0.661 0.31548 0.7957 0.0
N317 N 0.63891 0.32095 0.81289 0.0
C318 C 0.67996 0.34118 0.81679 0.0
C319 C 0.65309 0.37949 0.87261 0.0
C320 C 0.63455 0.35185 0.85079 0.0
C321 C 0.67614 0.3737 0.85567 0.0
H322 H 0.66387 0.2907 0.76557 0.0
H323 H 0.61679 0.35497 0.86406 0.0
O324 O 0.58098 0.19845 0.7162 0.0
O325 O 0.6196 0.19804 0.7899 0.0
O326 O 0.62137 0.28629 0.71318 0.0
O327 O 0.5823 0.29297 0.78911 0.0
H328 H 0.60092 0.11118 0.75565 0.0
H329 H 0.54771 0.16373 0.6604 0.0
H330 H 0.58898 0.01434 0.74225 0.0
H331 H 0.53683 0.06561 0.64832 0.0
H332 H 0.62838 0.22833 0.94203 0.0
H333 H 0.66422 0.16693 0.79696 0.0
H334 H 0.60418 0.22808 0.87146 0.0
H335 H 0.68743 0.16877 0.86873 0.0
H336 H 0.64449 0.06106 0.61162 0.0
H337 H 0.69635 0.16231 0.67992 0.0
H338 H 0.50949 0.16622 0.85771 0.0
H339 H 0.56874 0.06288 0.89433 0.0
H340 H 0.6547 0.35211 0.68208 0.0
H341 H 0.59995 0.23874 0.64252 0.0
H342 H 0.66429 0.36603 0.60008 0.0
H343 H 0.61047 0.25464 0.56146 0.0
H344 H 0.60751 0.37587 0.75462 0.0
H345 H 0.54747 0.33422 0.83795 0.0
H346 H 0.59871 0.47477 0.76675 0.0
H347 H 0.53974 0.43419 0.84877 0.0
H348 H 0.51322 0.32142 0.63895 0.0
H349 H 0.57014 0.43842 0.62083 0.0
H350 H 0.69743 0.33661 0.80221 0.0
H351 H 0.64956 0.40457 0.90244 0.0
H352 H 0.31273 -0.00462 0.32561 0.0
H353 H 0.27996 0.86557 0.4047 0.0
H354 H 0.27673 0.04894 0.33015 0.0
H355 H 0.24334 0.91845 0.40697 0.0
H356 H 0.18251 0.04651 0.415 0.0
H357 H 0.22119 0.00451 0.42998 0.0
H358 H 0.24032 0.02868 0.28852 0.0
H359 H 0.20245 0.07117 0.27401 0.0
C360 C 0.29811 0.97871 0.34501 0.0
C361 C 0.29918 0.92558 0.36408 0.0
C362 C 0.27732 0.00925 0.34709 0.0
C363 C 0.25706 0.98724 0.36787 0.0
C364 C 0.25865 0.93634 0.3905 0.0
C365 C 0.27956 0.90583 0.38872 0.0
C366 C 0.1951 0.04288 0.38732 0.0
C367 C 0.18937 0.06149 0.34323 0.0
C368 C 0.21714 0.01882 0.39584 0.0
C369 C 0.23386 0.01394 0.36054 0.0
C370 C 0.22803 0.03278 0.31666 0.0
C371 C 0.20613 0.05629 0.30815 0.0
H372 H 0.21127 0.364 0.09502 0.0
H373 H 0.17772 0.49598 0.17015 0.0
H374 H 0.24787 0.41699 0.09289 0.0
H375 H 0.21373 0.54964 0.16568 0.0
H376 H 0.28748 0.57262 0.22482 0.0
H377 H 0.24958 0.53072 0.20926 0.0
H378 H 0.27048 0.50186 0.06934 0.0
H379 H 0.30917 0.54326 0.08544 0.0
C380 C 0.2115 0.40475 0.11011 0.0
C381 C 0.19167 0.42508 0.13372 0.0
C382 C 0.2324 0.43533 0.1084 0.0
C383 C 0.23378 0.48688 0.13004 0.0
C384 C 0.21331 0.50944 0.14957 0.0
C385 C 0.19252 0.47884 0.1516 0.0
C386 C 0.28417 0.55686 0.19081 0.0
C387 C 0.30143 0.56049 0.15652 0.0
C388 C 0.26226 0.53371 0.18165 0.0
C389 C 0.25692 0.51366 0.1379 0.0
C390 C 0.27413 0.51711 0.10336 0.0
C391 C 0.29618 0.54081 0.11252 0.0
H392 H 0.71275 0.14593 0.60036 0.0
H393 H 0.67732 -0.00394 0.64068 0.0
H394 H 0.74832 0.09334 0.58277 0.0
H395 H 0.71288 0.94359 0.62439 0.0
H396 H 0.81165 -0.00169 0.64721 0.0
H397 H 0.77635 0.052 0.63272 0.0
H398 H 0.74267 0.90839 0.57443 0.0
H399 H 0.77809 0.85429 0.58989 0.0
C400 C 0.71248 0.10156 0.60465 0.0
C401 C 0.69243 0.07507 0.62243 0.0
C402 C 0.73285 0.07147 0.59477 0.0
C403 C 0.73363 0.01436 0.60294 0.0
C404 C 0.71291 0.9874 0.61727 0.0
C405 C 0.69248 0.01746 0.62675 0.0
C406 C 0.79699 0.97859 0.63005 0.0
C407 C 0.79751 0.92196 0.62025 0.0
C408 C 0.77669 0.00943 0.6216 0.0
C409 C 0.7565 0.98437 0.60288 0.0
C410 C 0.75772 0.92867 0.58976 0.0
C411 C 0.778 0.89773 0.5985 0.0
H412 H 0.78735 0.6157 0.90704 0.0
H413 H 0.80833 0.49011 0.811 0.0
H414 H 0.75293 0.55982 0.92896 0.0
H415 H 0.77438 0.4345 0.83257 0.0
H416 H 0.67974 0.48386 0.87279 0.0
H417 H 0.71636 0.53527 0.88421 0.0
H418 H 0.75477 0.38198 0.89415 0.0
H419 H 0.71821 0.33086 0.88205 0.0
C420 C 0.78487 0.57552 0.89161 0.0
C421 C 0.80028 0.55696 0.85733 0.0
C422 C 0.76521 0.54378 0.90391 0.0
C423 C 0.76099 0.49275 0.88259 0.0
C424 C 0.77729 0.47316 0.85021 0.0
C425 C 0.79664 0.50507 0.83756 0.0
C426 C 0.69588 0.46131 0.87917 0.0
C427 C 0.69633 0.4036 0.87576 0.0
C428 C 0.71686 0.49066 0.88577 0.0
C429 C 0.73848 0.46257 0.88915 0.0
C430 C 0.73841 0.40468 0.89076 0.0
C431 C 0.71753 0.37546 0.88396 0.0
H432 H 0.01969 0.00771 0.12043 0.0
H433 H 0.03625 0.12815 0.01646 0.0
H434 H -0.00067 0.9516 0.06372 0.0
H435 H 0.0159 0.07208 0.95979 0.0
H436 H 0.95248 0.99218 0.88808 0.0
H437 H 0.97547 0.04565 0.94252 0.0
H438 H 0.00595 0.89546 0.99542 0.0
H439 H 0.98222 0.8417 0.94201 0.0
C440 C 0.01921 0.0219 0.08537 0.0
C441 C 0.02942 0.07257 0.07301 0.0
C442 C 0.00758 0.98972 0.05287 0.0
C443 C 0.00593 0.00751 0.0073 0.0
C444 C 0.01652 0.0577 0.99479 0.0
C445 C 0.02814 0.08986 0.02727 0.0
C446 C 0.96399 0.97053 0.9115 0.0
C447 C 0.9654 0.91269 0.91095 0.0
C448 C 0.97738 0.00121 0.94232 0.0
C449 C 0.99252 0.97478 0.97331 0.0
C450 C 0.99425 0.91697 0.97229 0.0
C451 C 0.98085 0.88624 0.94138 0.0
H452 H 0.53683 -0.00135 0.89509 0.0
H453 H 0.50264 0.14928 0.93786 0.0
H454 H 0.5141 0.94721 0.95111 0.0
H455 H 0.47887 0.09722 0.99227 0.0
H456 H 0.46333 -0.00387 0.12228 0.0
H457 H 0.48353 0.0499 0.06359 0.0
H458 H 0.47558 0.91465 0.96866 0.0
H459 H 0.45597 0.86066 0.02775 0.0
C460 C 0.52437 0.02079 0.91632 0.0
C461 C 0.52173 0.07819 0.91222 0.0
C462 C 0.51108 0.99113 0.94805 0.0
C463 C 0.49464 0.01804 0.9763 0.0
C464 C 0.49159 0.07529 0.97149 0.0
C465 C 0.505 0.10504 0.93986 0.0
C466 C 0.46578 0.97819 0.08873 0.0
C467 C 0.4583 0.92409 0.07965 0.0
C468 C 0.47726 0.00901 0.05502 0.0
C469 C 0.4813 0.98652 0.01141 0.0
C470 C 0.47322 0.93285 0.00212 0.0
C471 C 0.46195 0.90192 0.03591 0.0
H472 H 0.93633 0.58883 0.52488 0.0
H473 H -0.00242 0.58923 0.61212 0.0
H474 H 0.95843 0.53943 0.46642 0.0
H475 H 0.01961 0.53781 0.55442 0.0
H476 H 0.05873 0.48221 0.42748 0.0
H477 H 0.03744 0.54077 0.48099 0.0
H478 H 0.97334 0.45039 0.45292 0.0
H479 H 0.9942 0.3946 0.39728 0.0
C480 C 0.95453 0.57795 0.53154 0.0
C481 C 0.96524 0.59239 0.57302 0.0
C482 C 0.96719 0.54945 0.49818 0.0
C483 C 0.99076 0.53404 0.5058 0.0
C484 C 0.0016 0.54956 0.54709 0.0
C485 C 0.98899 0.57877 0.58026 0.0
C486 C 0.04 0.4755 0.43209 0.0
C487 C 0.02821 0.43353 0.40805 0.0
C488 C 0.02785 0.50861 0.46331 0.0
C489 C 0.00366 0.5003 0.47147 0.0
C490 C 0.99188 0.45859 0.44714 0.0
C491 C 0.00395 0.4259 0.41566 0.0
H492 H 0.47337 0.51224 0.38125 0.0
H493 H 0.45411 0.63067 0.48494 0.0
H494 H 0.49359 0.45694 0.43863 0.0
H495 H 0.47413 0.57518 0.54244 0.0
H496 H 0.53594 0.49673 0.61933 0.0
H497 H 0.51375 0.5501 0.56371 0.0
H498 H 0.4868 0.39936 0.50483 0.0
H499 H 0.50994 0.34584 0.55911 0.0
C500 C 0.47326 0.52613 0.4164 0.0
C501 C 0.46229 0.57595 0.42854 0.0
C502 C 0.48478 0.49439 0.44931 0.0
C503 C 0.48552 0.5117 0.49512 0.0
C504 C 0.47424 0.56116 0.50733 0.0
C505 C 0.46279 0.59297 0.4744 0.0
C506 C 0.52541 0.47494 0.59432 0.0
C507 C 0.52485 0.417 0.5935 0.0
C508 C 0.51245 0.50556 0.56279 0.0
C509 C 0.49852 0.479 0.52976 0.0
C510 C 0.49759 0.42107 0.52947 0.0
C511 C 0.51062 0.39041 0.56096 0.0
loop_
_geom_bond_atom_site_label_1
_geom_bond_atom_site_label_2
_geom_bond_distance
_geom_bond_site_symmetry_2
_ccdc_geom_bond_type
Li0 N17 1.990 . S
Li0 O60 1.956 . S
Li0 O61 1.970 . S
Li0 O62 1.961 . S
Li1 N25 1.990 . S
Li1 O60 1.970 . S
Li1 O61 1.956 . S
Li1 O63 1.961 . S
Li2 N47 1.990 . S
Li2 O60 1.961 . S
Li2 O62 1.956 . S
Li2 O63 1.970 . S
Li3 N53 1.990 . S
Li3 O61 1.961 . S
Li3 O62 1.970 . S
Li3 O63 1.956 . S
C4 C6 1.348 . S
C4 C7 1.356 . S
C4 O60 1.325 . S
N5 C8 1.314 . S
N5 C9 1.279 . S
C6 C4 1.348 . S
C6 C8 1.353 . S
C6 H64 0.929 . S
C7 C4 1.356 . S
C7 C9 1.358 . S
C7 H65 0.930 . S
C8 N5 1.314 . S
C8 C6 1.353 . S
C8 H66 0.930 . S
C9 N5 1.279 . S
C9 C7 1.358 . S
C9 H67 0.930 . S
C10 C13 1.348 . S
C10 C14 1.356 . S
C10 O61 1.325 . S
C11 N12 1.279 . S
C11 C14 1.358 . S
C11 H68 0.930 . S
N12 C11 1.279 . S
N12 C15 1.314 . S
C13 C10 1.348 . S
C13 C15 1.353 . S
C13 H69 0.929 . S
C14 C10 1.356 . S
C14 C11 1.358 . S
C14 H70 0.930 . S
C15 N12 1.314 . S
C15 C13 1.353 . S
C15 H71 0.930 . S
C16 N17 1.314 . S
C16 C21 1.353 . S
C16 H22 0.930 . S
N17 Li0 1.990 . S
N17 C16 1.314 . S
N17 C19 1.279 . S
C18 C19 1.358 . S
C18 C20 1.356 . S
C18 H72 0.930 . S
C19 N17 1.279 . S
C19 C18 1.358 . S
C19 H23 0.930 . S
C20 C18 1.356 . S
C20 C21 1.348 . S
C21 C16 1.353 . S
C21 C20 1.348 . S
C21 H73 0.929 . S
H22 C16 0.930 . S
H23 C19 0.930 . S
C24 N25 1.314 . S
C24 C26 1.353 . S
C24 H30 0.930 . S
N25 Li1 1.990 . S
N25 C24 1.314 . S
N25 C28 1.279 . S
C26 C24 1.353 . S
C26 C29 1.348 . S
C26 H74 0.929 . S
C27 C28 1.358 . S
C27 C29 1.356 . S
C27 H75 0.930 . S
C28 N25 1.279 . S
C28 C27 1.358 . S
C28 H31 0.930 . S
C29 C26 1.348 . S
C29 C27 1.356 . S
H30 C24 0.930 . S
H31 C28 0.930 . S
C32 C34 1.348 . S
C32 C35 1.356 . S
C32 O62 1.325 . S
N33 C36 1.314 . S
N33 C37 1.279 . S
C34 C32 1.348 . S
C34 C36 1.353 . S
C34 H76 0.929 . S
C35 C32 1.356 . S
C35 C37 1.358 . S
C35 H77 0.930 . S
C36 N33 1.314 . S
C36 C34 1.353 . S
C36 H78 0.930 . S
C37 N33 1.279 . S
C37 C35 1.358 . S
C37 H79 0.930 . S
C38 C39 1.348 . S
C38 C40 1.356 . S
C38 O63 1.325 . S
C39 C38 1.348 . S
C39 C41 1.353 . S
C39 H80 0.929 . S
C40 C38 1.356 . S
C40 C42 1.358 . S
C40 H81 0.930 . S
C41 C39 1.353 . S
C41 N43 1.314 . S
C41 H82 0.930 . S
C42 C40 1.358 . S
C42 N43 1.279 . S
C42 H83 0.930 . S
N43 C41 1.314 . S
N43 C42 1.279 . S
C44 C46 1.353 . S
C44 N47 1.314 . S
C44 H50 0.930 . S
C45 N47 1.279 . S
C45 C48 1.358 . S
C45 H51 0.930 . S
C46 C44 1.353 . S
C46 C49 1.348 . S
C46 H84 0.929 . S
N47 Li2 1.990 . S
N47 C44 1.314 . S
N47 C45 1.279 . S
C48 C45 1.358 . S
C48 C49 1.356 . S
C48 H85 0.930 . S
C49 C46 1.348 . S
C49 C48 1.356 . S
H50 C44 0.930 . S
H51 C45 0.930 . S
C52 N53 1.314 . S
C52 C54 1.353 . S
C52 H58 0.930 . S
N53 Li3 1.990 . S
N53 C52 1.314 . S
N53 C56 1.279 . S
C54 C52 1.353 . S
C54 C57 1.348 . S
C54 H86 0.929 . S
C55 C56 1.358 . S
C55 C57 1.356 . S
C55 H87 0.930 . S
C56 N53 1.279 . S
C56 C55 1.358 . S
C56 H59 0.930 . S
C57 C54 1.348 . S
C57 C55 1.356 . S
H58 C52 0.930 . S
H59 C56 0.930 . S
O60 Li0 1.956 . S
O60 Li1 1.970 . S
O60 Li2 1.961 . S
O60 C4 1.325 . S
O61 Li0 1.970 . S
O61 Li1 1.956 . S
O61 Li3 1.961 . S
O61 C10 1.325 . S
O62 Li0 1.961 . S
O62 Li2 1.956 . S
O62 Li3 1.970 . S
O62 C32 1.325 . S
O63 Li1 1.961 . S
O63 Li2 1.970 . S
O63 Li3 1.956 . S
O63 C38 1.325 . S
H64 C6 0.929 . S
H65 C7 0.930 . S
H66 C8 0.930 . S
H67 C9 0.930 . S
H68 C11 0.930 . S
H69 C13 0.929 . S
H70 C14 0.930 . S
H71 C15 0.930 . S
H72 C18 0.930 . S
H73 C21 0.929 . S
H74 C26 0.929 . S
H75 C27 0.930 . S
H76 C34 0.929 . S
H77 C35 0.930 . S
H78 C36 0.930 . S
H79 C37 0.930 . S
H80 C39 0.929 . S
H81 C40 0.930 . S
H82 C41 0.930 . S
H83 C42 0.930 . S
H84 C46 0.929 . S
H85 C48 0.930 . S
H86 C54 0.929 . S
H87 C55 0.930 . S
Li88 N105 1.990 . S
Li88 O148 1.956 . S
Li88 O149 1.970 . S
Li88 O150 1.961 . S
Li89 N113 1.990 . S
Li89 O148 1.970 . S
Li89 O149 1.956 . S
Li89 O151 1.961 . S
Li90 N135 1.990 . S
Li90 O148 1.961 . S
Li90 O150 1.956 . S
Li90 O151 1.970 . S
Li91 N141 1.990 . S
Li91 O149 1.961 . S
Li91 O150 1.970 . S
Li91 O151 1.956 . S
C92 C94 1.348 . S
C92 C95 1.356 . S
C92 O148 1.325 . S
N93 C96 1.314 . S
N93 C97 1.279 . S
C94 C92 1.348 . S
C94 C96 1.353 . S
C94 H152 0.929 . S
C95 C92 1.356 . S
C95 C97 1.358 . S
C95 H153 0.930 . S
C96 N93 1.314 . S
C96 C94 1.353 . S
C96 H154 0.930 . S
C97 N93 1.279 . S
C97 C95 1.358 . S
C97 H155 0.930 . S
C98 C101 1.348 . S
C98 C102 1.356 . S
C98 O149 1.325 . S
C99 N100 1.279 . S
C99 C102 1.358 . S
C99 H156 0.930 . S
N100 C99 1.279 . S
N100 C103 1.314 . S
C101 C98 1.348 . S
C101 C103 1.353 . S
C101 H157 0.929 . S
C102 C98 1.356 . S
C102 C99 1.358 . S
C102 H158 0.930 . S
C103 N100 1.314 . S
C103 C101 1.353 . S
C103 H159 0.930 . S
C104 N105 1.314 . S
C104 C109 1.353 . S
C104 H110 0.930 . S
N105 Li88 1.990 . S
N105 C104 1.314 . S
N105 C107 1.279 . S
C106 C107 1.358 . S
C106 C108 1.356 . S
C106 H160 0.930 . S
C107 N105 1.279 . S
C107 C106 1.358 . S
C107 H111 0.930 . S
C108 C106 1.356 . S
C108 C109 1.348 . S
C109 C104 1.353 . S
C109 C108 1.348 . S
C109 H161 0.929 . S
H110 C104 0.930 . S
H111 C107 0.930 . S
C112 N113 1.314 . S
C112 C114 1.353 . S
C112 H118 0.930 . S
N113 Li89 1.990 . S
N113 C112 1.314 . S
N113 C116 1.279 . S
C114 C112 1.353 . S
C114 C117 1.348 . S
C114 H162 0.929 . S
C115 C116 1.358 . S
C115 C117 1.356 . S
C115 H163 0.930 . S
C116 N113 1.279 . S
C116 C115 1.358 . S
C116 H119 0.930 . S
C117 C114 1.348 . S
C117 C115 1.356 . S
H118 C112 0.930 . S
H119 C116 0.930 . S
C120 C122 1.348 . S
C120 C123 1.356 . S
C120 O150 1.325 . S
N121 C124 1.314 . S
N121 C125 1.279 . S
C122 C120 1.348 . S
C122 C124 1.353 . S
C122 H164 0.929 . S
C123 C120 1.356 . S
C123 C125 1.358 . S
C123 H165 0.930 . S
C124 N121 1.314 . S
C124 C122 1.353 . S
C124 H166 0.930 . S
C125 N121 1.279 . S
C125 C123 1.358 . S
C125 H167 0.930 . S
C126 C127 1.348 . S
C126 C128 1.356 . S
C126 O151 1.325 . S
C127 C126 1.348 . S
C127 C129 1.353 . S
C127 H168 0.929 . S
C128 C126 1.356 . S
C128 C130 1.358 . S
C128 H169 0.930 . S
C129 C127 1.353 . S
C129 N131 1.314 . S
C129 H170 0.930 . S
C130 C128 1.358 . S
C130 N131 1.279 . S
C130 H171 0.930 . S
N131 C129 1.314 . S
N131 C130 1.279 . S
C132 C134 1.353 . S
C132 N135 1.314 . S
C132 H138 0.930 . S
C133 N135 1.279 . S
C133 C136 1.358 . S
C133 H139 0.930 . S
C134 C132 1.353 . S
C134 C137 1.348 . S
C134 H172 0.929 . S
N135 Li90 1.990 . S
N135 C132 1.314 . S
N135 C133 1.279 . S
C136 C133 1.358 . S
C136 C137 1.356 . S
C136 H173 0.930 . S
C137 C134 1.348 . S
C137 C136 1.356 . S
H138 C132 0.930 . S
H139 C133 0.930 . S
C140 N141 1.314 . S
C140 C142 1.353 . S
C140 H146 0.930 . S
N141 Li91 1.990 . S
N141 C140 1.314 . S
N141 C144 1.279 . S
C142 C140 1.353 . S
C142 C145 1.348 . S
C142 H174 0.929 . S
C143 C144 1.358 . S
C143 C145 1.356 . S
C143 H175 0.930 . S
C144 N141 1.279 . S
C144 C143 1.358 . S
C144 H147 0.930 . S
C145 C142 1.348 . S
C145 C143 1.356 . S
H146 C140 0.930 . S
H147 C144 0.930 . S
O148 Li88 1.956 . S
O148 Li89 1.970 . S
O148 Li90 1.961 . S
O148 C92 1.325 . S
O149 Li88 1.970 . S
O149 Li89 1.956 . S
O149 Li91 1.961 . S
O149 C98 1.325 . S
O150 Li88 1.961 . S
O150 Li90 1.956 . S
O150 Li91 1.970 . S
O150 C120 1.325 . S
O151 Li89 1.961 . S
O151 Li90 1.970 . S
O151 Li91 1.956 . S
O151 C126 1.325 . S
H152 C94 0.929 . S
H153 C95 0.930 . S
H154 C96 0.930 . S
H155 C97 0.930 . S
H156 C99 0.930 . S
H157 C101 0.929 . S
H158 C102 0.930 . S
H159 C103 0.930 . S
H160 C106 0.930 . S
H161 C109 0.929 . S
H162 C114 0.929 . S
H163 C115 0.930 . S
H164 C122 0.929 . S
H165 C123 0.930 . S
H166 C124 0.930 . S
H167 C125 0.930 . S
H168 C127 0.929 . S
H169 C128 0.930 . S
H170 C129 0.930 . S
H171 C130 0.930 . S
H172 C134 0.929 . S
H173 C136 0.930 . S
H174 C142 0.929 . S
H175 C143 0.930 . S
Li176 N193 1.990 . S
Li176 O236 1.956 . S
Li176 O237 1.970 . S
Li176 O238 1.961 . S
Li177 N201 1.990 . S
Li177 O236 1.970 . S
Li177 O237 1.956 . S
Li177 O239 1.961 . S
Li178 N223 1.990 . S
Li178 O236 1.961 . S
Li178 O238 1.956 . S
Li178 O239 1.970 . S
Li179 N229 1.990 . S
Li179 O237 1.961 . S
Li179 O238 1.970 . S
Li179 O239 1.956 . S
C180 C182 1.348 . S
C180 C183 1.356 . S
C180 O236 1.325 . S
N181 C184 1.314 . S
N181 C185 1.279 . S
C182 C180 1.348 . S
C182 C184 1.353 . S
C182 H240 0.929 . S
C183 C180 1.356 . S
C183 C185 1.358 . S
C183 H241 0.930 . S
C184 N181 1.314 . S
C184 C182 1.353 . S
C184 H242 0.930 . S
C185 N181 1.279 . S
C185 C183 1.358 . S
C185 H243 0.930 . S
C186 C189 1.348 . S
C186 C190 1.356 . S
C186 O237 1.325 . S
C187 N188 1.279 . S
C187 C190 1.358 . S
C187 H244 0.930 . S
N188 C187 1.279 . S
N188 C191 1.314 . S
C189 C186 1.348 . S
C189 C191 1.353 . S
C189 H245 0.929 . S
C190 C186 1.356 . S
C190 C187 1.358 . S
C190 H246 0.930 . S
C191 N188 1.314 . S
C191 C189 1.353 . S
C191 H247 0.930 . S
C192 N193 1.314 . S
C192 C197 1.353 . S
C192 H198 0.930 . S
N193 Li176 1.990 . S
N193 C192 1.314 . S
N193 C195 1.279 . S
C194 C195 1.358 . S
C194 C196 1.356 . S
C194 H248 0.930 . S
C195 N193 1.279 . S
C195 C194 1.358 . S
C195 H199 0.930 . S
C196 C194 1.356 . S
C196 C197 1.348 . S
C197 C192 1.353 . S
C197 C196 1.348 . S
C197 H249 0.929 . S
H198 C192 0.930 . S
H199 C195 0.930 . S
C200 N201 1.314 . S
C200 C202 1.353 . S
C200 H206 0.930 . S
N201 Li177 1.990 . S
N201 C200 1.314 . S
N201 C204 1.279 . S
C202 C200 1.353 . S
C202 C205 1.348 . S
C202 H250 0.929 . S
C203 C204 1.358 . S
C203 C205 1.356 . S
C203 H251 0.930 . S
C204 N201 1.279 . S
C204 C203 1.358 . S
C204 H207 0.930 . S
C205 C202 1.348 . S
C205 C203 1.356 . S
H206 C200 0.930 . S
H207 C204 0.930 . S
C208 C210 1.348 . S
C208 C211 1.356 . S
C208 O238 1.325 . S
N209 C212 1.314 . S
N209 C213 1.279 . S
C210 C208 1.348 . S
C210 C212 1.353 . S
C210 H252 0.929 . S
C211 C208 1.356 . S
C211 C213 1.358 . S
C211 H253 0.930 . S
C212 N209 1.314 . S
C212 C210 1.353 . S
C212 H254 0.930 . S
C213 N209 1.279 . S
C213 C211 1.358 . S
C213 H255 0.930 . S
C214 C215 1.348 . S
C214 C216 1.356 . S
C214 O239 1.325 . S
C215 C214 1.348 . S
C215 C217 1.353 . S
C215 H256 0.929 . S
C216 C214 1.356 . S
C216 C218 1.358 . S
C216 H257 0.930 . S
C217 C215 1.353 . S
C217 N219 1.314 . S
C217 H258 0.930 . S
C218 C216 1.358 . S
C218 N219 1.279 . S
C218 H259 0.930 . S
N219 C217 1.314 . S
N219 C218 1.279 . S
C220 C222 1.353 . S
C220 N223 1.314 . S
C220 H226 0.930 . S
C221 N223 1.279 . S
C221 C224 1.358 . S
C221 H227 0.930 . S
C222 C220 1.353 . S
C222 C225 1.348 . S
C222 H260 0.929 . S
N223 Li178 1.990 . S
N223 C220 1.314 . S
N223 C221 1.279 . S
C224 C221 1.358 . S
C224 C225 1.356 . S
C224 H261 0.930 . S
C225 C222 1.348 . S
C225 C224 1.356 . S
H226 C220 0.930 . S
H227 C221 0.930 . S
C228 N229 1.314 . S
C228 C230 1.353 . S
C228 H234 0.930 . S
N229 Li179 1.990 . S
N229 C228 1.314 . S
N229 C232 1.279 . S
C230 C228 1.353 . S
C230 C233 1.348 . S
C230 H262 0.929 . S
C231 C232 1.358 . S
C231 C233 1.356 . S
C231 H263 0.930 . S
C232 N229 1.279 . S
C232 C231 1.358 . S
C232 H235 0.930 . S
C233 C230 1.348 . S
C233 C231 1.356 . S
H234 C228 0.930 . S
H235 C232 0.930 . S
O236 Li176 1.956 . S
O236 Li177 1.970 . S
O236 Li178 1.961 . S
O236 C180 1.325 . S
O237 Li176 1.970 . S
O237 Li177 1.956 . S
O237 Li179 1.961 . S
O237 C186 1.325 . S
O238 Li176 1.961 . S
O238 Li178 1.956 . S
O238 Li179 1.970 . S
O238 C208 1.325 . S
O239 Li177 1.961 . S
O239 Li178 1.970 . S
O239 Li179 1.956 . S
O239 C214 1.325 . S
H240 C182 0.929 . S
H241 C183 0.930 . S
H242 C184 0.930 . S
H243 C185 0.930 . S
H244 C187 0.930 . S
H245 C189 0.929 . S
H246 C190 0.930 . S
H247 C191 0.930 . S
H248 C194 0.930 . S
H249 C197 0.929 . S
H250 C202 0.929 . S
H251 C203 0.930 . S
H252 C210 0.929 . S
H253 C211 0.930 . S
H254 C212 0.930 . S
H255 C213 0.930 . S
H256 C215 0.929 . S
H257 C216 0.930 . S
H258 C217 0.930 . S
H259 C218 0.930 . S
H260 C222 0.929 . S
H261 C224 0.930 . S
H262 C230 0.929 . S
H263 C231 0.930 . S
Li264 N281 1.990 . S
Li264 O324 1.956 . S
Li264 O325 1.970 . S
Li264 O326 1.961 . S
Li265 N289 1.990 . S
Li265 O324 1.970 . S
Li265 O325 1.956 . S
Li265 O327 1.961 . S
Li266 N311 1.990 . S
Li266 O324 1.961 . S
Li266 O326 1.956 . S
Li266 O327 1.970 . S
Li267 N317 1.990 . S
Li267 O325 1.961 . S
Li267 O326 1.970 . S
Li267 O327 1.956 . S
C268 C270 1.348 . S
C268 C271 1.356 . S
C268 O324 1.325 . S
N269 C272 1.314 . S
N269 C273 1.279 . S
C270 C268 1.348 . S
C270 C272 1.353 . S
C270 H328 0.929 . S
C271 C268 1.356 . S
C271 C273 1.358 . S
C271 H329 0.930 . S
C272 N269 1.314 . S
C272 C270 1.353 . S
C272 H330 0.930 . S
C273 N269 1.279 . S
C273 C271 1.358 . S
C273 H331 0.930 . S
C274 C277 1.348 . S
C274 C278 1.356 . S
C274 O325 1.325 . S
C275 N276 1.279 . S
C275 C278 1.358 . S
C275 H332 0.930 . S
N276 C275 1.279 . S
N276 C279 1.314 . S
C277 C274 1.348 . S
C277 C279 1.353 . S
C277 H333 0.929 . S
C278 C274 1.356 . S
C278 C275 1.358 . S
C278 H334 0.930 . S
C279 N276 1.314 . S
C279 C277 1.353 . S
C279 H335 0.930 . S
C280 N281 1.314 . S
C280 C285 1.353 . S
C280 H286 0.930 . S
N281 Li264 1.990 . S
N281 C280 1.314 . S
N281 C283 1.279 . S
C282 C283 1.358 . S
C282 C284 1.356 . S
C282 H336 0.930 . S
C283 N281 1.279 . S
C283 C282 1.358 . S
C283 H287 0.930 . S
C284 C282 1.356 . S
C284 C285 1.348 . S
C285 C280 1.353 . S
C285 C284 1.348 . S
C285 H337 0.929 . S
H286 C280 0.930 . S
H287 C283 0.930 . S
C288 N289 1.314 . S
C288 C290 1.353 . S
C288 H294 0.930 . S
N289 Li265 1.990 . S
N289 C288 1.314 . S
N289 C292 1.279 . S
C290 C288 1.353 . S
C290 C293 1.348 . S
C290 H338 0.929 . S
C291 C292 1.358 . S
C291 C293 1.356 . S
C291 H339 0.930 . S
C292 N289 1.279 . S
C292 C291 1.358 . S
C292 H295 0.930 . S
C293 C290 1.348 . S
C293 C291 1.356 . S
H294 C288 0.930 . S
H295 C292 0.930 . S
C296 C298 1.348 . S
C296 C299 1.356 . S
C296 O326 1.325 . S
N297 C300 1.314 . S
N297 C301 1.279 . S
C298 C296 1.348 . S
C298 C300 1.353 . S
C298 H340 0.929 . S
C299 C296 1.356 . S
C299 C301 1.358 . S
C299 H341 0.930 . S
C300 N297 1.314 . S
C300 C298 1.353 . S
C300 H342 0.930 . S
C301 N297 1.279 . S
C301 C299 1.358 . S
C301 H343 0.930 . S
C302 C303 1.348 . S
C302 C304 1.356 . S
C302 O327 1.325 . S
C303 C302 1.348 . S
C303 C305 1.353 . S
C303 H344 0.929 . S
C304 C302 1.356 . S
C304 C306 1.358 . S
C304 H345 0.930 . S
C305 C303 1.353 . S
C305 N307 1.314 . S
C305 H346 0.930 . S
C306 C304 1.358 . S
C306 N307 1.279 . S
C306 H347 0.930 . S
N307 C305 1.314 . S
N307 C306 1.279 . S
C308 C310 1.353 . S
C308 N311 1.314 . S
C308 H314 0.930 . S
C309 N311 1.279 . S
C309 C312 1.358 . S
C309 H315 0.930 . S
C310 C308 1.353 . S
C310 C313 1.348 . S
C310 H348 0.929 . S
N311 Li266 1.990 . S
N311 C308 1.314 . S
N311 C309 1.279 . S
C312 C309 1.358 . S
C312 C313 1.356 . S
C312 H349 0.930 . S
C313 C310 1.348 . S
C313 C312 1.356 . S
H314 C308 0.930 . S
H315 C309 0.930 . S
C316 N317 1.314 . S
C316 C318 1.353 . S
C316 H322 0.930 . S
N317 Li267 1.990 . S
N317 C316 1.314 . S
N317 C320 1.279 . S
C318 C316 1.353 . S
C318 C321 1.348 . S
C318 H350 0.929 . S
C319 C320 1.358 . S
C319 C321 1.356 . S
C319 H351 0.930 . S
C320 N317 1.279 . S
C320 C319 1.358 . S
C320 H323 0.930 . S
C321 C318 1.348 . S
C321 C319 1.356 . S
H322 C316 0.930 . S
H323 C320 0.930 . S
O324 Li264 1.956 . S
O324 Li265 1.970 . S
O324 Li266 1.961 . S
O324 C268 1.325 . S
O325 Li264 1.970 . S
O325 Li265 1.956 . S
O325 Li267 1.961 . S
O325 C274 1.325 . S
O326 Li264 1.961 . S
O326 Li266 1.956 . S
O326 Li267 1.970 . S
O326 C296 1.325 . S
O327 Li265 1.961 . S
O327 Li266 1.970 . S
O327 Li267 1.956 . S
O327 C302 1.325 . S
H328 C270 0.929 . S
H329 C271 0.930 . S
H330 C272 0.930 . S
H331 C273 0.930 . S
H332 C275 0.930 . S
H333 C277 0.929 . S
H334 C278 0.930 . S
H335 C279 0.930 . S
H336 C282 0.930 . S
H337 C285 0.929 . S
H338 C290 0.929 . S
H339 C291 0.930 . S
H340 C298 0.929 . S
H341 C299 0.930 . S
H342 C300 0.930 . S
H343 C301 0.930 . S
H344 C303 0.929 . S
H345 C304 0.930 . S
H346 C305 0.930 . S
H347 C306 0.930 . S
H348 C310 0.929 . S
H349 C312 0.930 . S
H350 C318 0.929 . S
H351 C319 0.930 . S
H352 C360 0.950 . S
H353 C365 0.950 . S
H354 C362 0.950 . S
H355 C364 0.950 . S
H356 C366 0.950 . S
H357 C368 0.950 . S
H358 C370 0.950 . S
H359 C371 0.950 . S
C360 H352 0.950 . S
C360 C361 1.386 1_545 S
C360 C362 1.391 . S
C361 C360 1.386 1_565 S
C361 C365 1.393 . S
C362 H354 0.950 . S
C362 C360 1.391 . S
C362 C363 1.400 1_545 S
C363 C362 1.400 1_565 S
C363 C364 1.398 . S
C363 C369 1.491 1_565 S
C364 H355 0.950 . S
C364 C363 1.398 . S
C364 C365 1.391 . S
C365 H353 0.950 . S
C365 C361 1.393 . S
C365 C364 1.391 . S
C366 H356 0.950 . S
C366 C367 1.386 1_565 S
C366 C368 1.391 . S
C367 C366 1.386 1_545 S
C367 C371 1.393 . S
C368 H357 0.950 . S
C368 C366 1.391 . S
C368 C369 1.400 1_565 S
C369 C363 1.491 1_545 S
C369 C368 1.400 1_545 S
C369 C370 1.398 . S
C370 H358 0.950 . S
C370 C369 1.398 . S
C370 C371 1.391 . S
C371 H359 0.950 . S
C371 C367 1.393 . S
C371 C370 1.391 . S
H372 C380 0.950 . S
H373 C385 0.950 . S
H374 C382 0.950 . S
H375 C384 0.950 . S
H376 C386 0.950 . S
H377 C388 0.950 . S
H378 C390 0.950 . S
H379 C391 0.950 . S
C380 H372 0.950 . S
C380 C381 1.386 . S
C380 C382 1.391 . S
C381 C380 1.386 . S
C381 C385 1.393 . S
C382 H374 0.950 . S
C382 C380 1.391 . S
C382 C383 1.400 . S
C383 C382 1.400 . S
C383 C384 1.398 . S
C383 C389 1.491 . S
C384 H375 0.950 . S
C384 C383 1.398 . S
C384 C385 1.391 . S
C385 H373 0.950 . S
C385 C381 1.393 . S
C385 C384 1.391 . S
C386 H376 0.950 . S
C386 C387 1.386 . S
C386 C388 1.391 . S
C387 C386 1.386 . S
C387 C391 1.393 . S
C388 H377 0.950 . S
C388 C386 1.391 . S
C388 C389 1.400 . S
C389 C383 1.491 . S
C389 C388 1.400 . S
C389 C390 1.398 . S
C390 H378 0.950 . S
C390 C389 1.398 . S
C390 C391 1.391 . S
C391 H379 0.950 . S
C391 C387 1.393 . S
C391 C390 1.391 . S
H392 C400 0.950 . S
H393 C405 0.950 . S
H394 C402 0.950 . S
H395 C404 0.950 . S
H396 C406 0.950 . S
H397 C408 0.950 . S
H398 C410 0.950 . S
H399 C411 0.950 . S
C400 H392 0.950 . S
C400 C401 1.386 . S
C400 C402 1.391 . S
C401 C400 1.386 . S
C401 C405 1.393 . S
C402 H394 0.950 . S
C402 C400 1.391 . S
C402 C403 1.400 . S
C403 C402 1.400 . S
C403 C404 1.398 . S
C403 C409 1.491 1_545 S
C404 H395 0.950 . S
C404 C403 1.398 . S
C404 C405 1.391 . S
C405 H393 0.950 . S
C405 C401 1.393 . S
C405 C404 1.391 . S
C406 H396 0.950 . S
C406 C407 1.386 . S
C406 C408 1.391 . S
C407 C406 1.386 . S
C407 C411 1.393 . S
C408 H397 0.950 . S
C408 C406 1.391 . S
C408 C409 1.400 . S
C409 C403 1.491 1_565 S
C409 C408 1.400 . S
C409 C410 1.398 . S
C410 H398 0.950 . S
C410 C409 1.398 . S
C410 C411 1.391 . S
C411 H399 0.950 . S
C411 C407 1.393 . S
C411 C410 1.391 . S
H412 C420 0.950 . S
H413 C425 0.950 . S
H414 C422 0.950 . S
H415 C424 0.950 . S
H416 C426 0.950 . S
H417 C428 0.950 . S
H418 C430 0.950 . S
H419 C431 0.950 . S
C420 H412 0.950 . S
C420 C421 1.386 . S
C420 C422 1.391 . S
C421 C420 1.386 . S
C421 C425 1.393 . S
C422 H414 0.950 . S
C422 C420 1.391 . S
C422 C423 1.400 . S
C423 C422 1.400 . S
C423 C424 1.398 . S
C423 C429 1.491 . S
C424 H415 0.950 . S
C424 C423 1.398 . S
C424 C425 1.391 . S
C425 H413 0.950 . S
C425 C421 1.393 . S
C425 C424 1.391 . S
C426 H416 0.950 . S
C426 C427 1.386 . S
C426 C428 1.391 . S
C427 C426 1.386 . S
C427 C431 1.393 . S
C428 H417 0.950 . S
C428 C426 1.391 . S
C428 C429 1.400 . S
C429 C423 1.491 . S
C429 C428 1.400 . S
C429 C430 1.398 . S
C430 H418 0.950 . S
C430 C429 1.398 . S
C430 C431 1.391 . S
C431 H419 0.950 . S
C431 C427 1.393 . S
C431 C430 1.391 . S
H432 C440 0.950 . S
H433 C445 0.950 . S
H434 C442 0.950 1_565 S
H435 C444 0.950 1_556 S
H436 C446 0.950 . S
H437 C448 0.950 1_545 S
H438 C450 0.950 1_554 S
H439 C451 0.950 . S
C440 H432 0.950 . S
C440 C441 1.386 . S
C440 C442 1.391 . S
C441 C440 1.386 . S
C441 C445 1.393 . S
C442 H434 0.950 1_545 S
C442 C440 1.391 . S
C442 C443 1.400 . S
C443 C442 1.400 . S
C443 C444 1.398 1_455 S
C443 C449 1.491 1_444 S
C444 H435 0.950 1_554 S
C444 C443 1.398 1_655 S
C444 C445 1.391 1_655 S
C445 H433 0.950 . S
C445 C441 1.393 . S
C445 C444 1.391 1_455 S
C446 H436 0.950 . S
C446 C447 1.386 . S
C446 C448 1.391 . S
C447 C446 1.386 . S
C447 C451 1.393 . S
C448 H437 0.950 1_565 S
C448 C446 1.391 . S
C448 C449 1.400 . S
C449 C443 1.491 1_666 S
C449 C448 1.400 . S
C449 C450 1.398 1_655 S
C450 H438 0.950 1_556 S
C450 C449 1.398 1_455 S
C450 C451 1.391 1_455 S
C451 H439 0.950 . S
C451 C447 1.393 . S
C451 C450 1.391 1_655 S
H452 C460 0.950 . S
H453 C465 0.950 . S
H454 C462 0.950 1_565 S
H455 C464 0.950 . S
H456 C466 0.950 . S
H457 C468 0.950 1_545 S
H458 C470 0.950 . S
H459 C471 0.950 . S
C460 H452 0.950 . S
C460 C461 1.386 . S
C460 C462 1.391 . S
C461 C460 1.386 . S
C461 C465 1.393 . S
C462 H454 0.950 1_545 S
C462 C460 1.391 . S
C462 C463 1.400 . S
C463 C462 1.400 . S
C463 C464 1.398 1_556 S
C463 C469 1.491 1_546 S
C464 H455 0.950 . S
C464 C463 1.398 1_554 S
C464 C465 1.391 1_554 S
C465 H453 0.950 . S
C465 C461 1.393 . S
C465 C464 1.391 1_556 S
C466 H456 0.950 . S
C466 C467 1.386 . S
C466 C468 1.391 . S
C467 C466 1.386 . S
C467 C471 1.393 . S
C468 H457 0.950 1_565 S
C468 C466 1.391 . S
C468 C469 1.400 . S
C469 C463 1.491 1_564 S
C469 C468 1.400 . S
C469 C470 1.398 1_554 S
C470 H458 0.950 . S
C470 C469 1.398 1_556 S
C470 C471 1.391 1_556 S
C471 H459 0.950 . S
C471 C467 1.393 . S
C471 C470 1.391 1_554 S
H472 C480 0.950 . S
H473 C485 0.950 1_455 S
H474 C482 0.950 . S
H475 C484 0.950 . S
H476 C486 0.950 . S
H477 C488 0.950 . S
H478 C490 0.950 . S
H479 C491 0.950 1_655 S
C480 H472 0.950 . S
C480 C481 1.386 . S
C480 C482 1.391 . S
C481 C480 1.386 . S
C481 C485 1.393 . S
C482 H474 0.950 . S
C482 C480 1.391 . S
C482 C483 1.400 . S
C483 C482 1.400 . S
C483 C484 1.398 1_655 S
C483 C489 1.491 1_655 S
C484 H475 0.950 . S
C484 C483 1.398 1_455 S
C484 C485 1.391 1_455 S
C485 H473 0.950 1_655 S
C485 C481 1.393 . S
C485 C484 1.391 1_655 S
C486 H476 0.950 . S
C486 C487 1.386 . S
C486 C488 1.391 . S
C487 C486 1.386 . S
C487 C491 1.393 . S
C488 H477 0.950 . S
C488 C486 1.391 . S
C488 C489 1.400 . S
C489 C483 1.491 1_455 S
C489 C488 1.400 . S
C489 C490 1.398 1_455 S
C490 H478 0.950 . S
C490 C489 1.398 1_655 S
C490 C491 1.391 1_655 S
C491 H479 0.950 1_455 S
C491 C487 1.393 . S
C491 C490 1.391 1_455 S
H492 C500 0.950 . S
H493 C505 0.950 . S
H494 C502 0.950 . S
H495 C504 0.950 . S
H496 C506 0.950 . S
H497 C508 0.950 . S
H498 C510 0.950 . S
H499 C511 0.950 . S
C500 H492 0.950 . S
C500 C501 1.386 . S
C500 C502 1.391 . S
C501 C500 1.386 . S
C501 C505 1.393 . S
C502 H494 0.950 . S
C502 C500 1.391 . S
C502 C503 1.400 . S
C503 C502 1.400 . S
C503 C504 1.398 . S
C503 C509 1.491 . S
C504 H495 0.950 . S
C504 C503 1.398 . S
C504 C505 1.391 . S
C505 H493 0.950 . S
C505 C501 1.393 . S
C505 C504 1.391 . S
C506 H496 0.950 . S
C506 C507 1.386 . S
C506 C508 1.391 . S
C507 C506 1.386 . S
C507 C511 1.393 . S
C508 H497 0.950 . S
C508 C506 1.391 . S
C508 C509 1.400 . S
C509 C503 1.491 . S
C509 C508 1.400 . S
C509 C510 1.398 . S
C510 H498 0.950 . S
C510 C509 1.398 . S
C510 C511 1.391 . S
C511 H499 0.950 . S
C511 C507 1.393 . S
C511 C510 1.391 . S
C361 C145 0.721 . S
C367 C29 0.735 . S
C381 C20 0.789 . S
C387 C137 0.774 . S
C401 C284 0.726 . S
C407 C196 0.731 . S
C421 C233 0.758 . S
C427 C321 0.734 . S
C441 C49 1.864 . S
C447 C205 1.860 . S
C461 C293 1.866 . S
C467 C108 1.870 . S
C481 C225 1.873 . S
C487 C57 1.877 . S
C501 C117 1.862 . S
C507 C313 1.858 . S
