# Generated by pormake.
# Topology uoq, (4)-cn, num edge types: 1
# Building blocks:
#     Node 0, Type 0, BuildingBlock: GALJAG_clean_sbu_0, # of connection points: 4
#     Node 1, Type 0, BuildingBlock: GALJAG_clean_sbu_0, # of connection points: 4
#     Node 2, Type 0, BuildingBlock: GALJAG_clean_sbu_0, # of connection points: 4
#     Node 3, Type 0, BuildingBlock: GALJAG_clean_sbu_0, # of connection points: 4
#     Node 4, Type 0, BuildingBlock: GALJAG_clean_sbu_0, # of connection points: 4
#     Node 5, Type 0, BuildingBlock: GALJAG_clean_sbu_0, # of connection points: 4
#     Node 6, Type 0, BuildingBlock: GALJAG_clean_sbu_0, # of connection points: 4
#     Node 7, Type 0, BuildingBlock: GALJAG_clean_sbu_0, # of connection points: 4
#     Node 8, Type 0, BuildingBlock: GALJAG_clean_sbu_0, # of connection points: 4
#     Node 9, Type 0, BuildingBlock: GALJAG_clean_sbu_0, # of connection points: 4
#     Node 10, Type 0, BuildingBlock: GALJAG_clean_sbu_0, # of connection points: 4
#     Node 11, Type 0, BuildingBlock: GALJAG_clean_sbu_0, # of connection points: 4
#     Edge 12, Type (0, 0), BuildingBlock: KIFKEQ_clean_linker_1, # of connection points: 2
#     Edge 13, Type (0, 0), BuildingBlock: KIFKEQ_clean_linker_1, # of connection points: 2
#     Edge 14, Type (0, 0), BuildingBlock: KIFKEQ_clean_linker_1, # of connection points: 2
#     Edge 15, Type (0, 0), BuildingBlock: KIFKEQ_clean_linker_1, # of connection points: 2
#     Edge 16, Type (0, 0), BuildingBlock: KIFKEQ_clean_linker_1, # of connection points: 2
#     Edge 17, Type (0, 0), BuildingBlock: KIFKEQ_clean_linker_1, # of connection points: 2
#     Edge 18, Type (0, 0), BuildingBlock: KIFKEQ_clean_linker_1, # of connection points: 2
#     Edge 19, Type (0, 0), BuildingBlock: KIFKEQ_clean_linker_1, # of connection points: 2
#     Edge 20, Type (0, 0), BuildingBlock: KIFKEQ_clean_linker_1, # of connection points: 2
#     Edge 21, Type (0, 0), BuildingBlock: KIFKEQ_clean_linker_1, # of connection points: 2
#     Edge 22, Type (0, 0), BuildingBlock: KIFKEQ_clean_linker_1, # of connection points: 2
#     Edge 23, Type (0, 0), BuildingBlock: KIFKEQ_clean_linker_1, # of connection points: 2
#     Edge 24, Type (0, 0), BuildingBlock: KIFKEQ_clean_linker_1, # of connection points: 2
#     Edge 25, Type (0, 0), BuildingBlock: KIFKEQ_clean_linker_1, # of connection points: 2
#     Edge 26, Type (0, 0), BuildingBlock: KIFKEQ_clean_linker_1, # of connection points: 2
#     Edge 27, Type (0, 0), BuildingBlock: KIFKEQ_clean_linker_1, # of connection points: 2
#     Edge 28, Type (0, 0), BuildingBlock: KIFKEQ_clean_linker_1, # of connection points: 2
#     Edge 29, Type (0, 0), BuildingBlock: KIFKEQ_clean_linker_1, # of connection points: 2
#     Edge 30, Type (0, 0), BuildingBlock: KIFKEQ_clean_linker_1, # of connection points: 2
#     Edge 31, Type (0, 0), BuildingBlock: KIFKEQ_clean_linker_1, # of connection points: 2
#     Edge 32, Type (0, 0), BuildingBlock: KIFKEQ_clean_linker_1, # of connection points: 2
#     Edge 33, Type (0, 0), BuildingBlock: KIFKEQ_clean_linker_1, # of connection points: 2
#     Edge 34, Type (0, 0), BuildingBlock: KIFKEQ_clean_linker_1, # of connection points: 2
#     Edge 35, Type (0, 0), BuildingBlock: KIFKEQ_clean_linker_1, # of connection points: 2
# Relax obj value: 0.135
# Max RMSD: 0.151
# Mean RMSD: 0.151
data_MOF--net-uoq--node1-GALJAG_clean_sbu_0--edge1-KIFKEQ_clean_linker_1
_symmetry_space_group_name_H-M    P1
_symmetry_Int_Tables_number       1
_symmetry_cell_setting            triclinic
loop_
_symmetry_equiv_pos_as_xyz
'x, y, z'
_cell_length_a     63.576896
_cell_length_b     63.563195
_cell_length_c     20.540389
_cell_angle_alpha  89.993596
_cell_angle_beta   89.995715
_cell_angle_gamma 119.99354
loop_
_atom_site_label
_atom_site_type_symbol
_atom_site_fract_x
_atom_site_fract_y
_atom_site_fract_z
_atom_type_partial_charge
In0 In 0.31285 0.44795 0.24873 0.0
O1 O 0.28345 0.42943 0.32509 0.0
O2 O 0.29567 0.46654 0.3034 0.0
C3 C 0.32734 0.41478 0.26227 0.0
C4 C 0.28484 0.44289 0.14351 0.0
C5 C 0.35523 0.48836 0.27794 0.0
O6 O 0.31402 0.41751 0.30269 0.0
O7 O 0.33278 0.42824 0.21253 0.0
O8 O 0.34899 0.48152 0.21982 0.0
O9 O 0.34022 0.47485 0.32034 0.0
C10 C 0.28165 0.44798 0.3363 0.0
O11 O 0.30361 0.46266 0.15783 0.0
O12 O 0.28131 0.42527 0.17911 0.0
In13 In 0.86586 0.31591 0.57554 0.0
O14 O 0.85564 0.28909 0.65861 0.0
O15 O 0.82987 0.29934 0.6299 0.0
C16 C 0.91355 0.33006 0.58479 0.0
C17 C 0.84292 0.28668 0.47208 0.0
C18 C 0.86867 0.35888 0.60166 0.0
O19 O 0.89765 0.31538 0.62355 0.0
O20 O 0.90532 0.33694 0.53846 0.0
O21 O 0.86631 0.3508 0.54429 0.0
O22 O 0.86969 0.34538 0.645 0.0
C23 C 0.83499 0.28682 0.66741 0.0
O24 O 0.84228 0.30582 0.4837 0.0
O25 O 0.85652 0.2832 0.50978 0.0
In26 In 0.55387 0.86439 0.92662 0.0
O27 O 0.56691 0.85151 0.01182 0.0
O28 O 0.53071 0.82839 0.97889 0.0
C29 C 0.58877 0.9115 0.93904 0.0
C30 C 0.56377 0.84263 0.82704 0.0
C31 C 0.51307 0.8668 0.94559 0.0
O32 O 0.58466 0.89548 0.98102 0.0
O33 O 0.57592 0.90365 0.88821 0.0
O34 O 0.51624 0.85741 0.895 0.0
O35 O 0.53045 0.87508 0.98541 0.0
C36 C 0.54734 0.83162 0.01813 0.0
O37 O 0.54924 0.85061 0.82053 0.0
O38 O 0.57427 0.84719 0.88138 0.0
In39 In 0.68664 0.55359 0.24563 0.0
O40 O 0.71404 0.57004 0.32768 0.0
O41 O 0.70452 0.53459 0.29493 0.0
C42 C 0.67213 0.58664 0.26114 0.0
C43 C 0.71366 0.55926 0.13757 0.0
C44 C 0.64436 0.51339 0.27599 0.0
O45 O 0.69005 0.58788 0.29081 0.0
O46 O 0.66223 0.56944 0.22069 0.0
O47 O 0.64973 0.52108 0.21815 0.0
O48 O 0.66026 0.52594 0.31781 0.0
C49 C 0.71706 0.55195 0.33316 0.0
O50 O 0.69542 0.53928 0.15311 0.0
O51 O 0.7171 0.57676 0.17346 0.0
In52 In 0.13281 0.68721 0.57423 0.0
O53 O 0.15583 0.69597 0.48143 0.0
O54 O 0.14269 0.71957 0.50677 0.0
C55 C 0.13118 0.64526 0.60645 0.0
C56 C 0.16304 0.71595 0.66736 0.0
C57 C 0.085 0.67265 0.5805 0.0
O58 O 0.13109 0.65133 0.54783 0.0
O59 O 0.13202 0.66025 0.648 0.0
O60 O 0.10112 0.6916 0.60797 0.0
O61 O 0.09308 0.66181 0.54604 0.0
C62 C 0.15583 0.71539 0.46914 0.0
O63 O 0.14116 0.71083 0.66414 0.0
O64 O 0.16958 0.70645 0.62377 0.0
In65 In 0.4487 0.13439 0.91436 0.0
O66 O 0.43192 0.14464 0.99686 0.0
O67 O 0.46827 0.17009 0.97001 0.0
C68 C 0.41487 0.08678 0.92271 0.0
C69 C 0.44283 0.15785 0.81147 0.0
C70 C 0.48869 0.13121 0.94 0.0
O71 O 0.41665 0.10256 0.96275 0.0
O72 O 0.42959 0.0951 0.87554 0.0
O73 O 0.48329 0.13431 0.88295 0.0
O74 O 0.47395 0.12964 0.98334 0.0
C75 C 0.45046 0.16509 0.0067 0.0
O76 O 0.46238 0.15792 0.82243 0.0
O77 O 0.42574 0.14455 0.84954 0.0
In78 In 0.55051 0.68421 0.4238 0.0
O79 O 0.56169 0.7042 0.3276 0.0
O80 O 0.5292 0.69916 0.37205 0.0
C81 C 0.58535 0.67168 0.42178 0.0
C82 C 0.56013 0.71686 0.52065 0.0
C83 C 0.50975 0.64144 0.40112 0.0
O84 O 0.58668 0.68906 0.38908 0.0
O85 O 0.56715 0.66148 0.45898 0.0
O86 O 0.51263 0.65334 0.45299 0.0
O87 O 0.52737 0.65103 0.36206 0.0
C88 C 0.54392 0.70784 0.32511 0.0
O89 O 0.54559 0.69442 0.52866 0.0
O90 O 0.57053 0.72226 0.46616 0.0
In91 In 0.86553 0.55287 0.74882 0.0
O92 O 0.85658 0.56781 0.65931 0.0
O93 O 0.82887 0.53427 0.69785 0.0
C94 C 0.91329 0.58633 0.74309 0.0
C95 C 0.84308 0.55937 0.85308 0.0
C96 C 0.8678 0.51261 0.72064 0.0
O97 O 0.89719 0.58863 0.71362 0.0
O98 O 0.90522 0.56779 0.77912 0.0
O99 O 0.86483 0.51776 0.77815 0.0
O100 O 0.86965 0.52774 0.67804 0.0
C101 C 0.83499 0.55055 0.65515 0.0
O102 O 0.8429 0.53974 0.84253 0.0
O103 O 0.85603 0.57618 0.81398 0.0
In104 In 0.31468 0.86347 0.07697 0.0
O105 O 0.3054 0.84011 0.16897 0.0
O106 O 0.28475 0.85719 0.14954 0.0
C107 C 0.35699 0.86459 0.05353 0.0
C108 C 0.28139 0.83107 0.99544 0.0
C109 C 0.32954 0.91052 0.05068 0.0
O110 O 0.35133 0.8681 0.10991 0.0
O111 O 0.34135 0.86044 0.01026 0.0
O112 O 0.31898 0.89361 0.01001 0.0
O113 O 0.33217 0.90375 0.10652 0.0
C114 C 0.28761 0.8426 0.18493 0.0
O115 O 0.28271 0.85109 0.00844 0.0
O116 O 0.29699 0.82746 0.02338 0.0
In117 In 0.45089 0.31507 0.417 0.0
O118 O 0.46484 0.30628 0.51016 0.0
O119 O 0.4275 0.28428 0.48782 0.0
C120 C 0.49194 0.35766 0.39407 0.0
C121 C 0.45075 0.28264 0.3336 0.0
C122 C 0.41823 0.32936 0.39076 0.0
O123 O 0.48095 0.35321 0.44805 0.0
O124 O 0.48234 0.34069 0.35313 0.0
O125 O 0.42492 0.31919 0.34975 0.0
O126 O 0.42753 0.33186 0.44666 0.0
C127 C 0.44483 0.28783 0.52466 0.0
O128 O 0.43216 0.2845 0.34378 0.0
O129 O 0.46938 0.29718 0.3655 0.0
In130 In 0.13583 0.45225 0.75236 0.0
O131 O 0.15751 0.46521 0.84755 0.0
O132 O 0.14313 0.42833 0.82141 0.0
C133 C 0.1363 0.49454 0.73335 0.0
C134 C 0.16675 0.45025 0.66767 0.0
C135 C 0.08905 0.42106 0.72056 0.0
O136 O 0.14667 0.48679 0.69623 0.0
O137 O 0.12584 0.48114 0.78199 0.0
O138 O 0.10613 0.42993 0.67985 0.0
O139 O 0.09549 0.42754 0.77882 0.0
C140 C 0.15631 0.44522 0.86009 0.0
O141 O 0.14584 0.43235 0.67792 0.0
O142 O 0.172 0.46908 0.70027 0.0
In143 In 0.68691 0.13532 0.07805 0.0
O144 O 0.69592 0.15854 0.17026 0.0
O145 O 0.71843 0.14381 0.1474 0.0
C146 C 0.64345 0.13165 0.05372 0.0
C147 C 0.71768 0.168 0.99209 0.0
C148 C 0.67399 0.08825 0.06004 0.0
O149 O 0.651 0.13238 0.1111 0.0
O150 O 0.65773 0.13273 0.00962 0.0
O151 O 0.68569 0.10472 0.01896 0.0
O152 O 0.66931 0.09553 0.11247 0.0
C153 C 0.71469 0.15749 0.18417 0.0
O154 O 0.7171 0.14823 0.00348 0.0
O155 O 0.70263 0.1713 0.02399 0.0
H156 H 0.3601 0.40859 0.19 0.0
H157 H 0.31805 0.38543 0.36743 0.0
H158 H 0.38033 0.38596 0.22107 0.0
H159 H 0.33799 0.36266 0.39802 0.0
H160 H 0.4027 0.3542 0.46738 0.0
H161 H 0.37881 0.37279 0.43375 0.0
H162 H 0.3736 0.34481 0.23915 0.0
H163 H 0.39767 0.32652 0.2725 0.0
C164 C 0.35491 0.39836 0.23504 0.0
C165 C 0.33757 0.39887 0.27632 0.0
C166 C 0.36645 0.38536 0.25285 0.0
C167 C 0.3609 0.37268 0.31235 0.0
C168 C 0.34296 0.37256 0.35245 0.0
C169 C 0.33141 0.38547 0.3346 0.0
C170 C 0.39625 0.35184 0.41764 0.0
C171 C 0.40211 0.33896 0.37261 0.0
C172 C 0.3825 0.36241 0.39837 0.0
C173 C 0.37439 0.36035 0.33364 0.0
C174 C 0.37984 0.34701 0.28907 0.0
C175 C 0.3935 0.3364 0.30836 0.0
H176 H 0.95206 0.3665 0.51917 0.0
H177 H 0.93415 0.31737 0.68185 0.0
H178 H 0.99479 0.38703 0.55136 0.0
H179 H 0.97677 0.33761 0.71344 0.0
H180 H 0.04813 0.40082 0.7966 0.0
H181 H 0.00595 0.37702 0.76027 0.0
H182 H 0.03036 0.382 0.56161 0.0
H183 H 0.07234 0.406 0.59772 0.0
C184 C 0.95731 0.35981 0.56103 0.0
C185 C 0.93975 0.34039 0.59806 0.0
C186 C 0.98178 0.37154 0.5795 0.0
C187 C 0.98914 0.36409 0.6354 0.0
C188 C 0.97164 0.34407 0.67087 0.0
C189 C 0.94725 0.33234 0.65238 0.0
C190 C 0.04445 0.39666 0.7453 0.0
C191 C 0.06353 0.40533 0.70006 0.0
C192 C 0.02032 0.38295 0.72445 0.0
C193 C 0.0148 0.37767 0.65794 0.0
C194 C 0.03396 0.38602 0.61299 0.0
C195 C 0.05803 0.39965 0.63382 0.0
H196 H 0.59824 0.95056 0.8623 0.0
H197 H 0.61587 0.93134 0.04797 0.0
H198 H 0.62117 0.9935 0.89255 0.0
H199 H 0.63884 0.97412 0.0779 0.0
H200 H 0.64642 0.0484 0.13658 0.0
H201 H 0.62826 0.00566 0.1054 0.0
H202 H 0.66263 0.02712 0.91683 0.0
H203 H 0.68059 0.06967 0.94768 0.0
C204 C 0.60735 0.95552 0.90902 0.0
C205 C 0.60518 0.93758 0.95277 0.0
C206 C 0.6205 0.9801 0.92638 0.0
C207 C 0.63164 0.98716 0.98791 0.0
C208 C 0.63015 0.96923 0.03061 0.0
C209 C 0.61714 0.94473 0.01317 0.0
C210 C 0.65031 0.04395 0.08882 0.0
C211 C 0.66486 0.06238 0.04459 0.0
C212 C 0.63998 0.0195 0.07097 0.0
C213 C 0.64392 0.01304 0.00845 0.0
C214 C 0.65899 0.03151 0.96496 0.0
C215 C 0.6694 0.05589 0.98289 0.0
H216 H 0.6941 0.62954 0.32772 0.0
H217 H 0.62618 0.57764 0.23839 0.0
H218 H 0.67489 0.65178 0.37122 0.0
H219 H 0.60695 0.59956 0.28313 0.0
H220 H 0.57657 0.62603 0.44849 0.0
H221 H 0.59908 0.60687 0.40749 0.0
H222 H 0.65239 0.67494 0.32218 0.0
H223 H 0.62959 0.69408 0.36189 0.0
C224 C 0.67518 0.62309 0.31673 0.0
C225 C 0.66162 0.60191 0.27956 0.0
C226 C 0.66422 0.63576 0.34171 0.0
C227 C 0.63942 0.62715 0.33114 0.0
C228 C 0.62605 0.60637 0.29254 0.0
C229 C 0.6371 0.59399 0.26645 0.0
C230 C 0.59335 0.63704 0.42217 0.0
C231 C 0.60134 0.66153 0.40833 0.0
C232 C 0.60607 0.62602 0.3982 0.0
C233 C 0.62725 0.63942 0.36111 0.0
C234 C 0.63607 0.66426 0.35059 0.0
C235 C 0.62308 0.67518 0.37343 0.0
H236 H 0.94988 0.57672 0.76596 0.0
H237 H 0.93516 0.63044 0.68273 0.0
H238 H 0.99128 0.59887 0.72307 0.0
H239 H 0.97671 0.65275 0.64062 0.0
H240 H 0.06288 0.69485 0.63999 0.0
H241 H 0.02141 0.67543 0.6829 0.0
H242 H 0.00747 0.60672 0.6039 0.0
H243 H 0.04874 0.62611 0.56021 0.0
C244 C 0.95565 0.59353 0.73977 0.0
C245 C 0.93932 0.60186 0.72765 0.0
C246 C 0.97923 0.60604 0.71463 0.0
C247 C 0.98702 0.62731 0.67784 0.0
C248 C 0.97112 0.63637 0.66875 0.0
C249 C 0.9474 0.62365 0.69296 0.0
C250 C 0.05078 0.6757 0.63072 0.0
C251 C 0.05901 0.66198 0.59671 0.0
C252 C 0.02712 0.66461 0.65542 0.0
C253 C 0.01143 0.63954 0.64751 0.0
C254 C 0.01937 0.62602 0.61148 0.0
C255 C 0.04287 0.63717 0.58587 0.0
H256 H 0.32828 0.92807 0.93089 0.0
H257 H 0.35322 0.951 0.12764 0.0
H258 H 0.3466 0.97036 0.89694 0.0
H259 H 0.37174 0.99346 0.09343 0.0
H260 H 0.38317 0.06614 0.02305 0.0
H261 H 0.36061 0.02337 0.05323 0.0
H262 H 0.38825 0.00531 0.88296 0.0
H263 H 0.41079 0.04825 0.85236 0.0
C264 C 0.33755 0.94216 0.96704 0.0
C265 C 0.33933 0.93622 0.03202 0.0
C266 C 0.34817 0.96638 0.9474 0.0
C267 C 0.36068 0.98524 0.99237 0.0
C268 C 0.362 0.97931 0.05774 0.0
C269 C 0.35149 0.95503 0.07734 0.0
C270 C 0.3842 0.05302 0.99152 0.0
C271 C 0.39882 0.06056 0.93537 0.0
C272 C 0.37142 0.02854 0.00917 0.0
C273 C 0.37285 0.011 0.97093 0.0
C274 C 0.38667 0.0184 0.91326 0.0
C275 C 0.39959 0.04297 0.89571 0.0
H276 H 0.18753 0.47954 0.94584 0.0
H277 H 0.16218 0.40605 0.88151 0.0
H278 H 0.21835 0.4779 0.01287 0.0
H279 H 0.1934 0.40459 0.94699 0.0
H280 H 0.28803 0.4787 0.06347 0.0
H281 H 0.25585 0.47814 0.99759 0.0
H282 H 0.20737 0.40371 0.05464 0.0
H283 H 0.23981 0.40412 0.11902 0.0
C284 C 0.18835 0.46292 0.94662 0.0
C285 C 0.17239 0.44293 0.90839 0.0
C286 C 0.20624 0.46208 0.98439 0.0
C287 C 0.20869 0.44125 0.98463 0.0
C288 C 0.19203 0.42089 0.94838 0.0
C289 C 0.17408 0.42171 0.9108 0.0
C290 C 0.27062 0.4621 0.06108 0.0
C291 C 0.2665 0.44145 0.09639 0.0
C292 C 0.25204 0.46186 0.02397 0.0
C293 C 0.22882 0.441 0.02149 0.0
C294 C 0.225 0.42006 0.05502 0.0
C295 C 0.24363 0.42028 0.09195 0.0
H296 H 0.83651 0.24137 0.45098 0.0
H297 H 0.81123 0.28974 0.38822 0.0
H298 H 0.80519 0.20885 0.38508 0.0
H299 H 0.78032 0.25748 0.32104 0.0
H300 H 0.71098 0.18909 0.26699 0.0
H301 H 0.74278 0.22001 0.33528 0.0
H302 H 0.7917 0.19489 0.27597 0.0
H303 H 0.75964 0.16356 0.20902 0.0
C304 C 0.82456 0.24519 0.42211 0.0
C305 C 0.82635 0.26814 0.42487 0.0
C306 C 0.80657 0.22653 0.3843 0.0
C307 C 0.78996 0.23039 0.34829 0.0
C308 C 0.7924 0.25366 0.34928 0.0
C309 C 0.81033 0.27227 0.38719 0.0
C310 C 0.72841 0.18992 0.26936 0.0
C311 C 0.73278 0.17386 0.23259 0.0
C312 C 0.74676 0.20785 0.30791 0.0
C313 C 0.76999 0.21025 0.31044 0.0
C314 C 0.77404 0.19354 0.27555 0.0
C315 C 0.75564 0.17555 0.23713 0.0
H316 H 0.54813 0.83373 0.70007 0.0
H317 H 0.58361 0.81397 0.84741 0.0
H318 H 0.54859 0.80361 0.62611 0.0
H319 H 0.58351 0.78367 0.77426 0.0
H320 H 0.54594 0.7115 0.64883 0.0
H321 H 0.54838 0.74315 0.72225 0.0
H322 H 0.5819 0.79643 0.56967 0.0
H323 H 0.58002 0.76515 0.49702 0.0
C324 C 0.55621 0.82316 0.71638 0.0
C325 C 0.56594 0.82632 0.77938 0.0
C326 C 0.55644 0.80593 0.6742 0.0
C327 C 0.56593 0.79121 0.69479 0.0
C328 C 0.5759 0.7946 0.75742 0.0
C329 C 0.57612 0.81211 0.799 0.0
C330 C 0.55407 0.73002 0.63134 0.0
C331 C 0.56289 0.73585 0.56734 0.0
C332 C 0.55546 0.7481 0.67323 0.0
C333 C 0.56521 0.77219 0.65137 0.0
C334 C 0.57413 0.77799 0.58755 0.0
C335 C 0.5732 0.76008 0.54623 0.0
H336 H 0.75793 0.59871 0.11029 0.0
H337 H 0.71074 0.52364 0.05735 0.0
H338 H 0.79037 0.59974 0.04452 0.0
H339 H 0.74292 0.52479 0.99016 0.0
H340 H 0.83566 0.59773 0.87138 0.0
H341 H 0.80398 0.59861 0.93626 0.0
H342 H 0.78102 0.52611 0.00575 0.0
H343 H 0.81229 0.52504 0.93942 0.0
C344 C 0.75431 0.58258 0.08344 0.0
C345 C 0.73177 0.56108 0.08911 0.0
C346 C 0.77294 0.58315 0.04573 0.0
C347 C 0.76944 0.56224 0.01268 0.0
C348 C 0.74649 0.54107 0.01617 0.0
C349 C 0.72791 0.54048 0.05402 0.0
C350 C 0.82406 0.58212 0.90125 0.0
C351 C 0.82647 0.5613 0.9002 0.0
C352 C 0.80587 0.58261 0.93848 0.0
C353 C 0.78967 0.56231 0.97566 0.0
C354 C 0.79277 0.54187 0.97654 0.0
C355 C 0.81091 0.54135 0.93916 0.0
H356 H 0.18667 0.71097 0.38495 0.0
H357 H 0.16417 0.76142 0.44881 0.0
H358 H 0.21856 0.74278 0.31878 0.0
H359 H 0.1965 0.79346 0.38426 0.0
H360 H 0.24375 0.83886 0.21134 0.0
H361 H 0.21082 0.80797 0.27694 0.0
H362 H 0.25688 0.77904 0.33321 0.0
H363 H 0.28953 0.8095 0.26594 0.0
C364 C 0.18839 0.7288 0.38433 0.0
C365 C 0.17286 0.73364 0.42203 0.0
C366 C 0.20689 0.74716 0.34706 0.0
C367 C 0.21042 0.77087 0.34683 0.0
C368 C 0.19429 0.77544 0.38283 0.0
C369 C 0.17571 0.75704 0.41987 0.0
C370 C 0.24697 0.82614 0.23856 0.0
C371 C 0.26925 0.82662 0.23336 0.0
C372 C 0.22805 0.80838 0.2762 0.0
C373 C 0.231 0.79072 0.30979 0.0
C374 C 0.25371 0.79194 0.30678 0.0
C375 C 0.27257 0.80961 0.26888 0.0
H376 H 0.47751 0.18863 0.72597 0.0
H377 H 0.40485 0.1659 0.79287 0.0
H378 H 0.47692 0.22008 0.65934 0.0
H379 H 0.40444 0.19777 0.72756 0.0
H380 H 0.40514 0.24369 0.55186 0.0
H381 H 0.40367 0.21126 0.6187 0.0
H382 H 0.47856 0.25838 0.67399 0.0
H383 H 0.48015 0.29056 0.60581 0.0
C384 C 0.46132 0.19021 0.72598 0.0
C385 C 0.44122 0.17474 0.76464 0.0
C386 C 0.46107 0.20845 0.68839 0.0
C387 C 0.44077 0.21176 0.68873 0.0
C388 C 0.42034 0.19571 0.72575 0.0
C389 C 0.42056 0.1774 0.76321 0.0
C390 C 0.42118 0.24725 0.57911 0.0
C391 C 0.44278 0.2697 0.57344 0.0
C392 C 0.42034 0.22862 0.61745 0.0
C393 C 0.4411 0.23203 0.65113 0.0
C394 C 0.46239 0.25489 0.64756 0.0
C395 C 0.46323 0.27347 0.60911 0.0
H396 H 0.15843 0.41311 0.58601 0.0
H397 H 0.21308 0.48572 0.64231 0.0
H398 H 0.18612 0.41242 0.50493 0.0
H399 H 0.24095 0.48482 0.56245 0.0
H400 H 0.2733 0.48499 0.36433 0.0
H401 H 0.24515 0.48515 0.44463 0.0
H402 H 0.22393 0.41141 0.49841 0.0
H403 H 0.25167 0.41107 0.41697 0.0
C404 C 0.17642 0.42883 0.58131 0.0
C405 C 0.18364 0.44948 0.6202 0.0
C406 C 0.19229 0.4284 0.53518 0.0
C407 C 0.21567 0.44859 0.52732 0.0
C408 C 0.22292 0.46914 0.56676 0.0
C409 C 0.20703 0.4696 0.61271 0.0
C410 C 0.26259 0.46883 0.39328 0.0
C411 C 0.26463 0.44803 0.38459 0.0
C412 C 0.24659 0.46896 0.43946 0.0
C413 C 0.23242 0.44832 0.4779 0.0
C414 C 0.23443 0.42748 0.46895 0.0
C415 C 0.25038 0.42733 0.42263 0.0
H416 H 0.78864 0.27678 0.69053 0.0
H417 H 0.8432 0.26001 0.75607 0.0
H418 H 0.76007 0.24827 0.77008 0.0
H419 H 0.8149 0.23199 0.83646 0.0
H420 H 0.74958 0.1633 0.91402 0.0
H421 H 0.77792 0.19268 0.83621 0.0
H422 H 0.75305 0.24258 0.88757 0.0
H423 H 0.72421 0.21285 0.9645 0.0
C424 C 0.79456 0.26713 0.7223 0.0
C425 C 0.81804 0.27046 0.71703 0.0
C426 C 0.77827 0.25093 0.76802 0.0
C427 C 0.78524 0.23784 0.80924 0.0
C428 C 0.8089 0.24154 0.80459 0.0
C429 C 0.82513 0.25766 0.75885 0.0
C430 C 0.75016 0.18054 0.90865 0.0
C431 C 0.73474 0.18584 0.9452 0.0
C432 C 0.76649 0.19742 0.86442 0.0
C433 C 0.76778 0.21997 0.85607 0.0
C434 C 0.75228 0.22524 0.89253 0.0
C435 C 0.73587 0.2083 0.93673 0.0
H436 H 0.58222 0.83349 0.0979 0.0
H437 H 0.50716 0.7875 0.04202 0.0
H438 H 0.57951 0.80154 0.16872 0.0
H439 H 0.50451 0.75535 0.1132 0.0
H440 H 0.50781 0.7188 0.31052 0.0
H441 H 0.50707 0.74799 0.23434 0.0
H442 H 0.57446 0.76015 0.14982 0.0
H443 H 0.57533 0.73118 0.22591 0.0
C444 C 0.5651 0.81659 0.10106 0.0
C445 C 0.54491 0.8129 0.06441 0.0
C446 C 0.56362 0.79825 0.14115 0.0
C447 C 0.5419 0.77593 0.14562 0.0
C448 C 0.52146 0.77244 0.11048 0.0
C449 C 0.52298 0.79078 0.06987 0.0
C450 C 0.52228 0.72749 0.27505 0.0
C451 C 0.54176 0.72295 0.27439 0.0
C452 C 0.5218 0.74409 0.23146 0.0
C453 C 0.54087 0.75647 0.18698 0.0
C454 C 0.55976 0.75111 0.18448 0.0
C455 C 0.56018 0.73445 0.22773 0.0
H456 H 0.72454 0.51412 0.35827 0.0
H457 H 0.7481 0.58825 0.41364 0.0
H458 H 0.7535 0.5133 0.43485 0.0
H459 H 0.77687 0.58733 0.49051 0.0
H460 H 0.84345 0.58508 0.56444 0.0
H461 H 0.81481 0.58493 0.48522 0.0
H462 H 0.75958 0.51469 0.55544 0.0
H463 H 0.78831 0.51471 0.63441 0.0
C464 C 0.73586 0.53019 0.38695 0.0
C465 C 0.73414 0.55126 0.38012 0.0
C466 C 0.75233 0.52968 0.43086 0.0
C467 C 0.76743 0.55027 0.46833 0.0
C468 C 0.76564 0.57131 0.46156 0.0
C469 C 0.74909 0.57178 0.41793 0.0
C470 C 0.82523 0.56956 0.5627 0.0
C471 C 0.81803 0.54993 0.60555 0.0
C472 C 0.80883 0.56955 0.51768 0.0
C473 C 0.78499 0.54986 0.51456 0.0
C474 C 0.77793 0.53001 0.55658 0.0
C475 C 0.79431 0.53007 0.60185 0.0
H476 H 0.15322 0.73881 0.76483 0.0
H477 H 0.21043 0.72891 0.68386 0.0
H478 H 0.18122 0.7658 0.8477 0.0
H479 H 0.23849 0.75618 0.76594 0.0
H480 H 0.27507 0.78694 0.96082 0.0
H481 H 0.24544 0.75797 0.88416 0.0
H482 H 0.21748 0.80662 0.85111 0.0
H483 H 0.2468 0.83538 0.92859 0.0
C484 C 0.17177 0.74242 0.7648 0.0
C485 C 0.17972 0.73186 0.718 0.0
C486 C 0.18779 0.75792 0.81197 0.0
C487 C 0.212 0.76307 0.81312 0.0
C488 C 0.21985 0.75228 0.76666 0.0
C489 C 0.20384 0.73681 0.71948 0.0
C490 C 0.26252 0.79137 0.93732 0.0
C491 C 0.26323 0.81339 0.95036 0.0
C492 C 0.24566 0.77486 0.8933 0.0
C493 C 0.22923 0.7801 0.86166 0.0
C494 C 0.22975 0.802 0.87541 0.0
C495 C 0.24662 0.81851 0.91939 0.0
H496 H 0.41525 0.15683 0.09484 0.0
H497 H 0.48688 0.21125 0.03091 0.0
H498 H 0.41563 0.18492 0.17611 0.0
H499 H 0.48703 0.23961 0.11127 0.0
H500 H 0.48817 0.2748 0.30624 0.0
H501 H 0.48836 0.24578 0.22891 0.0
H502 H 0.41384 0.22229 0.17823 0.0
H503 H 0.4135 0.25091 0.25657 0.0
C504 C 0.43105 0.17483 0.09814 0.0
C505 C 0.45102 0.18193 0.05661 0.0
C506 C 0.43121 0.19094 0.14439 0.0
C507 C 0.45131 0.21448 0.14981 0.0
C508 C 0.4714 0.22148 0.10867 0.0
C509 C 0.47127 0.20532 0.0625 0.0
C510 C 0.47183 0.26337 0.27866 0.0
C511 C 0.45081 0.26505 0.28731 0.0
C512 C 0.47198 0.24688 0.23418 0.0
C513 C 0.45113 0.23179 0.19756 0.0
C514 C 0.43009 0.23345 0.20644 0.0
C515 C 0.42993 0.24992 0.25098 0.0
H516 H 0.37347 0.50342 0.39963 0.0
H517 H 0.38851 0.5234 0.19692 0.0
H518 H 0.41089 0.5399 0.43042 0.0
H519 H 0.42567 0.56043 0.22775 0.0
H520 H 0.50241 0.61124 0.29927 0.0
H521 H 0.46539 0.57411 0.27009 0.0
H522 H 0.42901 0.58307 0.43661 0.0
H523 H 0.46647 0.61994 0.46692 0.0
C524 C 0.38475 0.5157 0.36162 0.0
C525 C 0.37809 0.51054 0.29581 0.0
C526 C 0.40613 0.53673 0.37933 0.0
C527 C 0.42132 0.5532 0.33168 0.0
C528 C 0.41461 0.54799 0.26573 0.0
C529 C 0.39325 0.52684 0.24799 0.0
C530 C 0.48653 0.60523 0.32984 0.0
C531 C 0.48733 0.61849 0.38543 0.0
C532 C 0.46523 0.58402 0.31279 0.0
C533 C 0.44412 0.57562 0.35067 0.0
C534 C 0.445 0.58883 0.40671 0.0
C535 C 0.46642 0.61001 0.42401 0.0
H536 H 0.85614 0.47322 0.79769 0.0
H537 H 0.88157 0.50214 0.60528 0.0
H538 H 0.85643 0.43622 0.76801 0.0
H539 H 0.88291 0.4657 0.57625 0.0
H540 H 0.85807 0.38698 0.52269 0.0
H541 H 0.85786 0.4241 0.5518 0.0
H542 H 0.88223 0.42042 0.74585 0.0
H543 H 0.88138 0.38286 0.71734 0.0
C544 C 0.86203 0.47174 0.74927 0.0
C545 C 0.86877 0.49052 0.70378 0.0
C546 C 0.86235 0.4506 0.73226 0.0
C547 C 0.8697 0.44788 0.6696 0.0
C548 C 0.87672 0.46689 0.62449 0.0
C549 C 0.87612 0.48789 0.64127 0.0
C550 C 0.86342 0.39419 0.57146 0.0
C551 C 0.86966 0.382 0.61778 0.0
C552 C 0.86344 0.41554 0.58816 0.0
C553 C 0.86997 0.42531 0.65135 0.0
C554 C 0.87661 0.41323 0.69718 0.0
C555 C 0.87632 0.39177 0.6807 0.0
H556 H 0.46964 0.84255 0.88158 0.0
H557 H 0.50555 0.89197 0.04102 0.0
H558 H 0.43184 0.84168 0.90878 0.0
H559 H 0.46817 0.89194 0.06679 0.0
H560 H 0.39129 0.86685 0.13848 0.0
H561 H 0.42891 0.86721 0.11174 0.0
H562 H 0.41258 0.86528 0.90673 0.0
H563 H 0.37472 0.86397 0.93369 0.0
C564 C 0.4695 0.85346 0.92191 0.0
C565 C 0.4905 0.8673 0.95919 0.0
C566 C 0.44788 0.85306 0.93745 0.0
C567 C 0.44687 0.86671 0.99019 0.0
C568 C 0.46808 0.88084 0.02671 0.0
C569 C 0.48959 0.88103 0.01158 0.0
C570 C 0.39579 0.86648 0.08779 0.0
C571 C 0.38006 0.86531 0.03824 0.0
C572 C 0.41742 0.86683 0.07234 0.0
C573 C 0.42384 0.86625 0.00696 0.0
C574 C 0.40808 0.86529 0.95757 0.0
C575 C 0.38642 0.86471 0.97304 0.0
H576 H 0.60578 0.4849 0.19723 0.0
H577 H 0.63127 0.49198 0.3953 0.0
H578 H 0.56832 0.44803 0.22706 0.0
H579 H 0.59421 0.45481 0.42479 0.0
H580 H 0.51487 0.39886 0.46883 0.0
H581 H 0.55104 0.43734 0.44038 0.0
H582 H 0.55528 0.40679 0.25618 0.0
H583 H 0.519 0.36883 0.28383 0.0
C584 C 0.60339 0.47853 0.24707 0.0
C585 C 0.62147 0.49127 0.29384 0.0
C586 C 0.58199 0.45735 0.26416 0.0
C587 C 0.57828 0.44837 0.32833 0.0
C588 C 0.5963 0.46134 0.37519 0.0
C589 C 0.61763 0.48257 0.35816 0.0
C590 C 0.52358 0.40045 0.42233 0.0
C591 C 0.5141 0.38086 0.37858 0.0
C592 C 0.54434 0.42243 0.40607 0.0
C593 C 0.55603 0.42521 0.34581 0.0
C594 C 0.54652 0.40549 0.30242 0.0
C595 C 0.5258 0.38363 0.31854 0.0
H596 H 0.13205 0.62964 0.72937 0.0
H597 H 0.12942 0.60987 0.52712 0.0
H598 H 0.13301 0.59325 0.76181 0.0
H599 H 0.12985 0.57313 0.55957 0.0
H600 H 0.1602 0.52652 0.63585 0.0
H601 H 0.15822 0.56251 0.60618 0.0
H602 H 0.10864 0.5491 0.76542 0.0
H603 H 0.11106 0.51315 0.79608 0.0
C604 C 0.1315 0.61741 0.69183 0.0
C605 C 0.13079 0.62266 0.62564 0.0
C606 C 0.13189 0.59647 0.71048 0.0
C607 C 0.13159 0.58031 0.66334 0.0
C608 C 0.13048 0.5854 0.59711 0.0
C609 C 0.1301 0.60636 0.57846 0.0
C610 C 0.14894 0.53128 0.66477 0.0
C611 C 0.13576 0.517 0.7183 0.0
C612 C 0.14765 0.55182 0.64738 0.0
C613 C 0.13308 0.55857 0.68296 0.0
C614 C 0.12016 0.54449 0.73725 0.0
C615 C 0.1215 0.52389 0.75478 0.0
H616 H 0.614 0.1394 0.1354 0.0
H617 H 0.62019 0.12064 0.93712 0.0
H618 H 0.57652 0.13908 0.1075 0.0
H619 H 0.58226 0.11914 0.9097 0.0
H620 H 0.52838 0.14428 0.86301 0.0
H621 H 0.56553 0.14414 0.89151 0.0
H622 H 0.53535 0.11432 0.08054 0.0
H623 H 0.49879 0.11562 0.05284 0.0
C624 C 0.60715 0.13491 0.08607 0.0
C625 C 0.62004 0.13016 0.0384 0.0
C626 C 0.58559 0.13458 0.07003 0.0
C627 C 0.57629 0.12916 0.00614 0.0
C628 C 0.58905 0.12391 0.95897 0.0
C629 C 0.61073 0.12458 0.97482 0.0
C630 C 0.52972 0.13765 0.91053 0.0
C631 C 0.51074 0.13002 0.95572 0.0
C632 C 0.55097 0.13743 0.92688 0.0
C633 C 0.55356 0.12922 0.98849 0.0
C634 C 0.53429 0.12122 0.03318 0.0
C635 C 0.51322 0.12177 0.01713 0.0
loop_
_geom_bond_atom_site_label_1
_geom_bond_atom_site_label_2
_geom_bond_distance
_geom_bond_site_symmetry_2
_ccdc_geom_bond_type
In0 O1 2.294 . S
In0 O2 2.326 . S
In0 O6 2.266 . S
In0 O7 2.326 . S
In0 O8 2.266 . S
In0 O9 2.326 . S
In0 O11 2.294 . S
In0 O12 2.326 . S
O1 In0 2.294 . S
O1 C10 1.240 . S
O2 In0 2.326 . S
O2 C10 1.252 . S
C3 O6 1.252 . S
C3 O7 1.260 . S
C4 O11 1.240 . S
C4 O12 1.252 . S
C5 O8 1.252 . S
C5 O9 1.260 . S
O6 In0 2.266 . S
O6 C3 1.252 . S
O7 In0 2.326 . S
O7 C3 1.260 . S
O8 In0 2.266 . S
O8 C5 1.252 . S
O9 In0 2.326 . S
O9 C5 1.260 . S
C10 O1 1.240 . S
C10 O2 1.252 . S
O11 In0 2.294 . S
O11 C4 1.240 . S
O12 In0 2.326 . S
O12 C4 1.252 . S
In13 O14 2.294 . S
In13 O15 2.326 . S
In13 O19 2.266 . S
In13 O20 2.326 . S
In13 O21 2.266 . S
In13 O22 2.326 . S
In13 O24 2.294 . S
In13 O25 2.326 . S
O14 In13 2.294 . S
O14 C23 1.240 . S
O15 In13 2.326 . S
O15 C23 1.252 . S
C16 O19 1.252 . S
C16 O20 1.260 . S
C17 O24 1.240 . S
C17 O25 1.252 . S
C18 O21 1.252 . S
C18 O22 1.260 . S
O19 In13 2.266 . S
O19 C16 1.252 . S
O20 In13 2.326 . S
O20 C16 1.260 . S
O21 In13 2.266 . S
O21 C18 1.252 . S
O22 In13 2.326 . S
O22 C18 1.260 . S
C23 O14 1.240 . S
C23 O15 1.252 . S
O24 In13 2.294 . S
O24 C17 1.240 . S
O25 In13 2.326 . S
O25 C17 1.252 . S
In26 O27 2.294 1_556 S
In26 O28 2.326 . S
In26 O32 2.266 . S
In26 O33 2.326 . S
In26 O34 2.266 . S
In26 O35 2.326 1_556 S
In26 O37 2.294 . S
In26 O38 2.326 . S
O27 In26 2.294 1_554 S
O27 C36 1.240 . S
O28 In26 2.326 . S
O28 C36 1.252 1_556 S
C29 O32 1.252 . S
C29 O33 1.260 . S
C30 O37 1.240 . S
C30 O38 1.252 . S
C31 O34 1.252 . S
C31 O35 1.260 1_556 S
O32 In26 2.266 . S
O32 C29 1.252 . S
O33 In26 2.326 . S
O33 C29 1.260 . S
O34 In26 2.266 . S
O34 C31 1.252 . S
O35 In26 2.326 1_554 S
O35 C31 1.260 1_554 S
C36 O27 1.240 . S
C36 O28 1.252 1_554 S
O37 In26 2.294 . S
O37 C30 1.240 . S
O38 In26 2.326 . S
O38 C30 1.252 . S
In39 O40 2.294 . S
In39 O41 2.326 . S
In39 O45 2.266 . S
In39 O46 2.326 . S
In39 O47 2.266 . S
In39 O48 2.326 . S
In39 O50 2.294 . S
In39 O51 2.326 . S
O40 In39 2.294 . S
O40 C49 1.240 . S
O41 In39 2.326 . S
O41 C49 1.252 . S
C42 O45 1.252 . S
C42 O46 1.260 . S
C43 O50 1.240 . S
C43 O51 1.252 . S
C44 O47 1.252 . S
C44 O48 1.260 . S
O45 In39 2.266 . S
O45 C42 1.252 . S
O46 In39 2.326 . S
O46 C42 1.260 . S
O47 In39 2.266 . S
O47 C44 1.252 . S
O48 In39 2.326 . S
O48 C44 1.260 . S
C49 O40 1.240 . S
C49 O41 1.252 . S
O50 In39 2.294 . S
O50 C43 1.240 . S
O51 In39 2.326 . S
O51 C43 1.252 . S
In52 O53 2.294 . S
In52 O54 2.326 . S
In52 O58 2.266 . S
In52 O59 2.326 . S
In52 O60 2.266 . S
In52 O61 2.326 . S
In52 O63 2.294 . S
In52 O64 2.326 . S
O53 In52 2.294 . S
O53 C62 1.240 . S
O54 In52 2.326 . S
O54 C62 1.252 . S
C55 O58 1.252 . S
C55 O59 1.260 . S
C56 O63 1.240 . S
C56 O64 1.252 . S
C57 O60 1.252 . S
C57 O61 1.260 . S
O58 In52 2.266 . S
O58 C55 1.252 . S
O59 In52 2.326 . S
O59 C55 1.260 . S
O60 In52 2.266 . S
O60 C57 1.252 . S
O61 In52 2.326 . S
O61 C57 1.260 . S
C62 O53 1.240 . S
C62 O54 1.252 . S
O63 In52 2.294 . S
O63 C56 1.240 . S
O64 In52 2.326 . S
O64 C56 1.252 . S
In65 O66 2.294 1_556 S
In65 O67 2.326 . S
In65 O71 2.266 . S
In65 O72 2.326 . S
In65 O73 2.266 . S
In65 O74 2.326 1_556 S
In65 O76 2.294 . S
In65 O77 2.326 . S
O66 In65 2.294 1_554 S
O66 C75 1.240 . S
O67 In65 2.326 . S
O67 C75 1.252 1_556 S
C68 O71 1.252 . S
C68 O72 1.260 . S
C69 O76 1.240 . S
C69 O77 1.252 . S
C70 O73 1.252 . S
C70 O74 1.260 1_556 S
O71 In65 2.266 . S
O71 C68 1.252 . S
O72 In65 2.326 . S
O72 C68 1.260 . S
O73 In65 2.266 . S
O73 C70 1.252 . S
O74 In65 2.326 1_554 S
O74 C70 1.260 1_554 S
C75 O66 1.240 . S
C75 O67 1.252 1_554 S
O76 In65 2.294 . S
O76 C69 1.240 . S
O77 In65 2.326 . S
O77 C69 1.252 . S
In78 O79 2.294 . S
In78 O80 2.326 . S
In78 O84 2.266 . S
In78 O85 2.326 . S
In78 O86 2.266 . S
In78 O87 2.326 . S
In78 O89 2.294 . S
In78 O90 2.326 . S
O79 In78 2.294 . S
O79 C88 1.240 . S
O80 In78 2.326 . S
O80 C88 1.252 . S
C81 O84 1.252 . S
C81 O85 1.260 . S
C82 O89 1.240 . S
C82 O90 1.252 . S
C83 O86 1.252 . S
C83 O87 1.260 . S
O84 In78 2.266 . S
O84 C81 1.252 . S
O85 In78 2.326 . S
O85 C81 1.260 . S
O86 In78 2.266 . S
O86 C83 1.252 . S
O87 In78 2.326 . S
O87 C83 1.260 . S
C88 O79 1.240 . S
C88 O80 1.252 . S
O89 In78 2.294 . S
O89 C82 1.240 . S
O90 In78 2.326 . S
O90 C82 1.252 . S
In91 O92 2.294 . S
In91 O93 2.326 . S
In91 O97 2.266 . S
In91 O98 2.326 . S
In91 O99 2.266 . S
In91 O100 2.326 . S
In91 O102 2.294 . S
In91 O103 2.326 . S
O92 In91 2.294 . S
O92 C101 1.240 . S
O93 In91 2.326 . S
O93 C101 1.252 . S
C94 O97 1.252 . S
C94 O98 1.260 . S
C95 O102 1.240 . S
C95 O103 1.252 . S
C96 O99 1.252 . S
C96 O100 1.260 . S
O97 In91 2.266 . S
O97 C94 1.252 . S
O98 In91 2.326 . S
O98 C94 1.260 . S
O99 In91 2.266 . S
O99 C96 1.252 . S
O100 In91 2.326 . S
O100 C96 1.260 . S
C101 O92 1.240 . S
C101 O93 1.252 . S
O102 In91 2.294 . S
O102 C95 1.240 . S
O103 In91 2.326 . S
O103 C95 1.252 . S
In104 O105 2.294 . S
In104 O106 2.326 . S
In104 O110 2.266 . S
In104 O111 2.326 1_554 S
In104 O112 2.266 . S
In104 O113 2.326 . S
In104 O115 2.294 1_554 S
In104 O116 2.326 . S
O105 In104 2.294 . S
O105 C114 1.240 . S
O106 In104 2.326 . S
O106 C114 1.252 . S
C107 O110 1.252 . S
C107 O111 1.260 1_554 S
C108 O115 1.240 . S
C108 O116 1.252 1_556 S
C109 O112 1.252 . S
C109 O113 1.260 . S
O110 In104 2.266 . S
O110 C107 1.252 . S
O111 In104 2.326 1_556 S
O111 C107 1.260 1_556 S
O112 In104 2.266 . S
O112 C109 1.252 . S
O113 In104 2.326 . S
O113 C109 1.260 . S
C114 O105 1.240 . S
C114 O106 1.252 . S
O115 In104 2.294 1_556 S
O115 C108 1.240 . S
O116 In104 2.326 . S
O116 C108 1.252 1_554 S
In117 O118 2.294 . S
In117 O119 2.326 . S
In117 O123 2.266 . S
In117 O124 2.326 . S
In117 O125 2.266 . S
In117 O126 2.326 . S
In117 O128 2.294 . S
In117 O129 2.326 . S
O118 In117 2.294 . S
O118 C127 1.240 . S
O119 In117 2.326 . S
O119 C127 1.252 . S
C120 O123 1.252 . S
C120 O124 1.260 . S
C121 O128 1.240 . S
C121 O129 1.252 . S
C122 O125 1.252 . S
C122 O126 1.260 . S
O123 In117 2.266 . S
O123 C120 1.252 . S
O124 In117 2.326 . S
O124 C120 1.260 . S
O125 In117 2.266 . S
O125 C122 1.252 . S
O126 In117 2.326 . S
O126 C122 1.260 . S
C127 O118 1.240 . S
C127 O119 1.252 . S
O128 In117 2.294 . S
O128 C121 1.240 . S
O129 In117 2.326 . S
O129 C121 1.252 . S
In130 O131 2.294 . S
In130 O132 2.326 . S
In130 O136 2.266 . S
In130 O137 2.326 . S
In130 O138 2.266 . S
In130 O139 2.326 . S
In130 O141 2.294 . S
In130 O142 2.326 . S
O131 In130 2.294 . S
O131 C140 1.240 . S
O132 In130 2.326 . S
O132 C140 1.252 . S
C133 O136 1.252 . S
C133 O137 1.260 . S
C134 O141 1.240 . S
C134 O142 1.252 . S
C135 O138 1.252 . S
C135 O139 1.260 . S
O136 In130 2.266 . S
O136 C133 1.252 . S
O137 In130 2.326 . S
O137 C133 1.260 . S
O138 In130 2.266 . S
O138 C135 1.252 . S
O139 In130 2.326 . S
O139 C135 1.260 . S
C140 O131 1.240 . S
C140 O132 1.252 . S
O141 In130 2.294 . S
O141 C134 1.240 . S
O142 In130 2.326 . S
O142 C134 1.252 . S
In143 O144 2.294 . S
In143 O145 2.326 . S
In143 O149 2.266 . S
In143 O150 2.326 1_554 S
In143 O151 2.266 . S
In143 O152 2.326 . S
In143 O154 2.294 1_554 S
In143 O155 2.326 . S
O144 In143 2.294 . S
O144 C153 1.240 . S
O145 In143 2.326 . S
O145 C153 1.252 . S
C146 O149 1.252 . S
C146 O150 1.260 1_554 S
C147 O154 1.240 . S
C147 O155 1.252 1_556 S
C148 O151 1.252 . S
C148 O152 1.260 . S
O149 In143 2.266 . S
O149 C146 1.252 . S
O150 In143 2.326 1_556 S
O150 C146 1.260 1_556 S
O151 In143 2.266 . S
O151 C148 1.252 . S
O152 In143 2.326 . S
O152 C148 1.260 . S
C153 O144 1.240 . S
C153 O145 1.252 . S
O154 In143 2.294 1_556 S
O154 C147 1.240 . S
O155 In143 2.326 . S
O155 C147 1.252 1_554 S
H156 C164 0.950 . S
H157 C169 0.950 . S
H158 C166 0.950 . S
H159 C168 0.950 . S
H160 C170 0.950 . S
H161 C172 0.950 . S
H162 C174 0.950 . S
H163 C175 0.950 . S
C164 H156 0.950 . S
C164 C165 1.386 . S
C164 C166 1.391 . S
C165 C164 1.386 . S
C165 C169 1.393 . S
C166 H158 0.950 . S
C166 C164 1.391 . S
C166 C167 1.400 . S
C167 C166 1.400 . S
C167 C168 1.398 . S
C167 C173 1.491 . S
C168 H159 0.950 . S
C168 C167 1.398 . S
C168 C169 1.391 . S
C169 H157 0.950 . S
C169 C165 1.393 . S
C169 C168 1.391 . S
C170 H160 0.950 . S
C170 C171 1.386 . S
C170 C172 1.391 . S
C171 C170 1.386 . S
C171 C175 1.393 . S
C172 H161 0.950 . S
C172 C170 1.391 . S
C172 C173 1.400 . S
C173 C167 1.491 . S
C173 C172 1.400 . S
C173 C174 1.398 . S
C174 H162 0.950 . S
C174 C173 1.398 . S
C174 C175 1.391 . S
C175 H163 0.950 . S
C175 C171 1.393 . S
C175 C174 1.391 . S
H176 C184 0.950 . S
H177 C189 0.950 . S
H178 C186 0.950 . S
H179 C188 0.950 . S
H180 C190 0.950 . S
H181 C192 0.950 . S
H182 C194 0.950 . S
H183 C195 0.950 . S
C184 H176 0.950 . S
C184 C185 1.386 . S
C184 C186 1.391 . S
C185 C184 1.386 . S
C185 C189 1.393 . S
C186 H178 0.950 . S
C186 C184 1.391 . S
C186 C187 1.400 . S
C187 C186 1.400 . S
C187 C188 1.398 . S
C187 C193 1.491 1_655 S
C188 H179 0.950 . S
C188 C187 1.398 . S
C188 C189 1.391 . S
C189 H177 0.950 . S
C189 C185 1.393 . S
C189 C188 1.391 . S
C190 H180 0.950 . S
C190 C191 1.386 . S
C190 C192 1.391 . S
C191 C190 1.386 . S
C191 C195 1.393 . S
C192 H181 0.950 . S
C192 C190 1.391 . S
C192 C193 1.400 . S
C193 C187 1.491 1_455 S
C193 C192 1.400 . S
C193 C194 1.398 . S
C194 H182 0.950 . S
C194 C193 1.398 . S
C194 C195 1.391 . S
C195 H183 0.950 . S
C195 C191 1.393 . S
C195 C194 1.391 . S
H196 C204 0.950 . S
H197 C209 0.950 . S
H198 C206 0.950 . S
H199 C208 0.950 . S
H200 C210 0.950 . S
H201 C212 0.950 . S
H202 C214 0.950 . S
H203 C215 0.950 . S
C204 H196 0.950 . S
C204 C205 1.386 . S
C204 C206 1.391 . S
C205 C204 1.386 . S
C205 C209 1.393 1_556 S
C206 H198 0.950 . S
C206 C204 1.391 . S
C206 C207 1.400 . S
C207 C206 1.400 . S
C207 C208 1.398 1_556 S
C207 C213 1.491 1_566 S
C208 H199 0.950 . S
C208 C207 1.398 1_554 S
C208 C209 1.391 . S
C209 H197 0.950 . S
C209 C205 1.393 1_554 S
C209 C208 1.391 . S
C210 H200 0.950 . S
C210 C211 1.386 . S
C210 C212 1.391 . S
C211 C210 1.386 . S
C211 C215 1.393 1_554 S
C212 H201 0.950 . S
C212 C210 1.391 . S
C212 C213 1.400 . S
C213 C207 1.491 1_544 S
C213 C212 1.400 . S
C213 C214 1.398 1_554 S
C214 H202 0.950 . S
C214 C213 1.398 1_556 S
C214 C215 1.391 . S
C215 H203 0.950 . S
C215 C211 1.393 1_556 S
C215 C214 1.391 . S
H216 C224 0.950 . S
H217 C229 0.950 . S
H218 C226 0.950 . S
H219 C228 0.950 . S
H220 C230 0.950 . S
H221 C232 0.950 . S
H222 C234 0.950 . S
H223 C235 0.950 . S
C224 H216 0.950 . S
C224 C225 1.386 . S
C224 C226 1.391 . S
C225 C224 1.386 . S
C225 C229 1.393 . S
C226 H218 0.950 . S
C226 C224 1.391 . S
C226 C227 1.400 . S
C227 C226 1.400 . S
C227 C228 1.398 . S
C227 C233 1.491 . S
C228 H219 0.950 . S
C228 C227 1.398 . S
C228 C229 1.391 . S
C229 H217 0.950 . S
C229 C225 1.393 . S
C229 C228 1.391 . S
C230 H220 0.950 . S
C230 C231 1.386 . S
C230 C232 1.391 . S
C231 C230 1.386 . S
C231 C235 1.393 . S
C232 H221 0.950 . S
C232 C230 1.391 . S
C232 C233 1.400 . S
C233 C227 1.491 . S
C233 C232 1.400 . S
C233 C234 1.398 . S
C234 H222 0.950 . S
C234 C233 1.398 . S
C234 C235 1.391 . S
C235 H223 0.950 . S
C235 C231 1.393 . S
C235 C234 1.391 . S
H236 C244 0.950 . S
H237 C249 0.950 . S
H238 C246 0.950 . S
H239 C248 0.950 . S
H240 C250 0.950 . S
H241 C252 0.950 . S
H242 C254 0.950 . S
H243 C255 0.950 . S
C244 H236 0.950 . S
C244 C245 1.386 . S
C244 C246 1.391 . S
C245 C244 1.386 . S
C245 C249 1.393 . S
C246 H238 0.950 . S
C246 C244 1.391 . S
C246 C247 1.400 . S
C247 C246 1.400 . S
C247 C248 1.398 . S
C247 C253 1.491 1_655 S
C248 H239 0.950 . S
C248 C247 1.398 . S
C248 C249 1.391 . S
C249 H237 0.950 . S
C249 C245 1.393 . S
C249 C248 1.391 . S
C250 H240 0.950 . S
C250 C251 1.386 . S
C250 C252 1.391 . S
C251 C250 1.386 . S
C251 C255 1.393 . S
C252 H241 0.950 . S
C252 C250 1.391 . S
C252 C253 1.400 . S
C253 C247 1.491 1_455 S
C253 C252 1.400 . S
C253 C254 1.398 . S
C254 H242 0.950 . S
C254 C253 1.398 . S
C254 C255 1.391 . S
C255 H243 0.950 . S
C255 C251 1.393 . S
C255 C254 1.391 . S
H256 C264 0.950 1_556 S
H257 C269 0.950 . S
H258 C266 0.950 . S
H259 C268 0.950 . S
H260 C270 0.950 1_554 S
H261 C272 0.950 . S
H262 C274 0.950 . S
H263 C275 0.950 . S
C264 H256 0.950 1_554 S
C264 C265 1.386 . S
C264 C266 1.391 1_554 S
C265 C264 1.386 . S
C265 C269 1.393 . S
C266 H258 0.950 . S
C266 C264 1.391 1_556 S
C266 C267 1.400 1_556 S
C267 C266 1.400 1_554 S
C267 C268 1.398 . S
C267 C273 1.491 1_564 S
C268 H259 0.950 . S
C268 C267 1.398 . S
C268 C269 1.391 . S
C269 H257 0.950 . S
C269 C265 1.393 . S
C269 C268 1.391 . S
C270 H260 0.950 1_556 S
C270 C271 1.386 . S
C270 C272 1.391 1_556 S
C271 C270 1.386 . S
C271 C275 1.393 . S
C272 H261 0.950 . S
C272 C270 1.391 1_554 S
C272 C273 1.400 1_554 S
C273 C267 1.491 1_546 S
C273 C272 1.400 1_556 S
C273 C274 1.398 . S
C274 H262 0.950 . S
C274 C273 1.398 . S
C274 C275 1.391 . S
C275 H263 0.950 . S
C275 C271 1.393 . S
C275 C274 1.391 . S
H276 C284 0.950 . S
H277 C289 0.950 . S
H278 C286 0.950 1_554 S
H279 C288 0.950 . S
H280 C290 0.950 . S
H281 C292 0.950 1_556 S
H282 C294 0.950 . S
H283 C295 0.950 . S
C284 H276 0.950 . S
C284 C285 1.386 . S
C284 C286 1.391 . S
C285 C284 1.386 . S
C285 C289 1.393 . S
C286 H278 0.950 1_556 S
C286 C284 1.391 . S
C286 C287 1.400 . S
C287 C286 1.400 . S
C287 C288 1.398 . S
C287 C293 1.491 1_556 S
C288 H279 0.950 . S
C288 C287 1.398 . S
C288 C289 1.391 . S
C289 H277 0.950 . S
C289 C285 1.393 . S
C289 C288 1.391 . S
C290 H280 0.950 . S
C290 C291 1.386 . S
C290 C292 1.391 . S
C291 C290 1.386 . S
C291 C295 1.393 . S
C292 H281 0.950 1_554 S
C292 C290 1.391 . S
C292 C293 1.400 . S
C293 C287 1.491 1_554 S
C293 C292 1.400 . S
C293 C294 1.398 . S
C294 H282 0.950 . S
C294 C293 1.398 . S
C294 C295 1.391 . S
C295 H283 0.950 . S
C295 C291 1.393 . S
C295 C294 1.391 . S
H296 C304 0.950 . S
H297 C309 0.950 . S
H298 C306 0.950 . S
H299 C308 0.950 . S
H300 C310 0.950 . S
H301 C312 0.950 . S
H302 C314 0.950 . S
H303 C315 0.950 . S
C304 H296 0.950 . S
C304 C305 1.386 . S
C304 C306 1.391 . S
C305 C304 1.386 . S
C305 C309 1.393 . S
C306 H298 0.950 . S
C306 C304 1.391 . S
C306 C307 1.400 . S
C307 C306 1.400 . S
C307 C308 1.398 . S
C307 C313 1.491 . S
C308 H299 0.950 . S
C308 C307 1.398 . S
C308 C309 1.391 . S
C309 H297 0.950 . S
C309 C305 1.393 . S
C309 C308 1.391 . S
C310 H300 0.950 . S
C310 C311 1.386 . S
C310 C312 1.391 . S
C311 C310 1.386 . S
C311 C315 1.393 . S
C312 H301 0.950 . S
C312 C310 1.391 . S
C312 C313 1.400 . S
C313 C307 1.491 . S
C313 C312 1.400 . S
C313 C314 1.398 . S
C314 H302 0.950 . S
C314 C313 1.398 . S
C314 C315 1.391 . S
C315 H303 0.950 . S
C315 C311 1.393 . S
C315 C314 1.391 . S
H316 C324 0.950 . S
H317 C329 0.950 . S
H318 C326 0.950 . S
H319 C328 0.950 . S
H320 C330 0.950 . S
H321 C332 0.950 . S
H322 C334 0.950 . S
H323 C335 0.950 . S
C324 H316 0.950 . S
C324 C325 1.386 . S
C324 C326 1.391 . S
C325 C324 1.386 . S
C325 C329 1.393 . S
C326 H318 0.950 . S
C326 C324 1.391 . S
C326 C327 1.400 . S
C327 C326 1.400 . S
C327 C328 1.398 . S
C327 C333 1.491 . S
C328 H319 0.950 . S
C328 C327 1.398 . S
C328 C329 1.391 . S
C329 H317 0.950 . S
C329 C325 1.393 . S
C329 C328 1.391 . S
C330 H320 0.950 . S
C330 C331 1.386 . S
C330 C332 1.391 . S
C331 C330 1.386 . S
C331 C335 1.393 . S
C332 H321 0.950 . S
C332 C330 1.391 . S
C332 C333 1.400 . S
C333 C327 1.491 . S
C333 C332 1.400 . S
C333 C334 1.398 . S
C334 H322 0.950 . S
C334 C333 1.398 . S
C334 C335 1.391 . S
C335 H323 0.950 . S
C335 C331 1.393 . S
C335 C334 1.391 . S
H336 C344 0.950 . S
H337 C349 0.950 . S
H338 C346 0.950 . S
H339 C348 0.950 1_556 S
H340 C350 0.950 . S
H341 C352 0.950 . S
H342 C354 0.950 1_554 S
H343 C355 0.950 . S
C344 H336 0.950 . S
C344 C345 1.386 . S
C344 C346 1.391 . S
C345 C344 1.386 . S
C345 C349 1.393 . S
C346 H338 0.950 . S
C346 C344 1.391 . S
C346 C347 1.400 . S
C347 C346 1.400 . S
C347 C348 1.398 . S
C347 C353 1.491 1_554 S
C348 H339 0.950 1_554 S
C348 C347 1.398 . S
C348 C349 1.391 . S
C349 H337 0.950 . S
C349 C345 1.393 . S
C349 C348 1.391 . S
C350 H340 0.950 . S
C350 C351 1.386 . S
C350 C352 1.391 . S
C351 C350 1.386 . S
C351 C355 1.393 . S
C352 H341 0.950 . S
C352 C350 1.391 . S
C352 C353 1.400 . S
C353 C347 1.491 1_556 S
C353 C352 1.400 . S
C353 C354 1.398 . S
C354 H342 0.950 1_556 S
C354 C353 1.398 . S
C354 C355 1.391 . S
C355 H343 0.950 . S
C355 C351 1.393 . S
C355 C354 1.391 . S
H356 C364 0.950 . S
H357 C369 0.950 . S
H358 C366 0.950 . S
H359 C368 0.950 . S
H360 C370 0.950 . S
H361 C372 0.950 . S
H362 C374 0.950 . S
H363 C375 0.950 . S
C364 H356 0.950 . S
C364 C365 1.386 . S
C364 C366 1.391 . S
C365 C364 1.386 . S
C365 C369 1.393 . S
C366 H358 0.950 . S
C366 C364 1.391 . S
C366 C367 1.400 . S
C367 C366 1.400 . S
C367 C368 1.398 . S
C367 C373 1.491 . S
C368 H359 0.950 . S
C368 C367 1.398 . S
C368 C369 1.391 . S
C369 H357 0.950 . S
C369 C365 1.393 . S
C369 C368 1.391 . S
C370 H360 0.950 . S
C370 C371 1.386 . S
C370 C372 1.391 . S
C371 C370 1.386 . S
C371 C375 1.393 . S
C372 H361 0.950 . S
C372 C370 1.391 . S
C372 C373 1.400 . S
C373 C367 1.491 . S
C373 C372 1.400 . S
C373 C374 1.398 . S
C374 H362 0.950 . S
C374 C373 1.398 . S
C374 C375 1.391 . S
C375 H363 0.950 . S
C375 C371 1.393 . S
C375 C374 1.391 . S
H376 C384 0.950 . S
H377 C389 0.950 . S
H378 C386 0.950 . S
H379 C388 0.950 . S
H380 C390 0.950 . S
H381 C392 0.950 . S
H382 C394 0.950 . S
H383 C395 0.950 . S
C384 H376 0.950 . S
C384 C385 1.386 . S
C384 C386 1.391 . S
C385 C384 1.386 . S
C385 C389 1.393 . S
C386 H378 0.950 . S
C386 C384 1.391 . S
C386 C387 1.400 . S
C387 C386 1.400 . S
C387 C388 1.398 . S
C387 C393 1.491 . S
C388 H379 0.950 . S
C388 C387 1.398 . S
C388 C389 1.391 . S
C389 H377 0.950 . S
C389 C385 1.393 . S
C389 C388 1.391 . S
C390 H380 0.950 . S
C390 C391 1.386 . S
C390 C392 1.391 . S
C391 C390 1.386 . S
C391 C395 1.393 . S
C392 H381 0.950 . S
C392 C390 1.391 . S
C392 C393 1.400 . S
C393 C387 1.491 . S
C393 C392 1.400 . S
C393 C394 1.398 . S
C394 H382 0.950 . S
C394 C393 1.398 . S
C394 C395 1.391 . S
C395 H383 0.950 . S
C395 C391 1.393 . S
C395 C394 1.391 . S
H396 C404 0.950 . S
H397 C409 0.950 . S
H398 C406 0.950 . S
H399 C408 0.950 . S
H400 C410 0.950 . S
H401 C412 0.950 . S
H402 C414 0.950 . S
H403 C415 0.950 . S
C404 H396 0.950 . S
C404 C405 1.386 . S
C404 C406 1.391 . S
C405 C404 1.386 . S
C405 C409 1.393 . S
C406 H398 0.950 . S
C406 C404 1.391 . S
C406 C407 1.400 . S
C407 C406 1.400 . S
C407 C408 1.398 . S
C407 C413 1.491 . S
C408 H399 0.950 . S
C408 C407 1.398 . S
C408 C409 1.391 . S
C409 H397 0.950 . S
C409 C405 1.393 . S
C409 C408 1.391 . S
C410 H400 0.950 . S
C410 C411 1.386 . S
C410 C412 1.391 . S
C411 C410 1.386 . S
C411 C415 1.393 . S
C412 H401 0.950 . S
C412 C410 1.391 . S
C412 C413 1.400 . S
C413 C407 1.491 . S
C413 C412 1.400 . S
C413 C414 1.398 . S
C414 H402 0.950 . S
C414 C413 1.398 . S
C414 C415 1.391 . S
C415 H403 0.950 . S
C415 C411 1.393 . S
C415 C414 1.391 . S
H416 C424 0.950 . S
H417 C429 0.950 . S
H418 C426 0.950 . S
H419 C428 0.950 . S
H420 C430 0.950 . S
H421 C432 0.950 . S
H422 C434 0.950 . S
H423 C435 0.950 . S
C424 H416 0.950 . S
C424 C425 1.386 . S
C424 C426 1.391 . S
C425 C424 1.386 . S
C425 C429 1.393 . S
C426 H418 0.950 . S
C426 C424 1.391 . S
C426 C427 1.400 . S
C427 C426 1.400 . S
C427 C428 1.398 . S
C427 C433 1.491 . S
C428 H419 0.950 . S
C428 C427 1.398 . S
C428 C429 1.391 . S
C429 H417 0.950 . S
C429 C425 1.393 . S
C429 C428 1.391 . S
C430 H420 0.950 . S
C430 C431 1.386 . S
C430 C432 1.391 . S
C431 C430 1.386 . S
C431 C435 1.393 . S
C432 H421 0.950 . S
C432 C430 1.391 . S
C432 C433 1.400 . S
C433 C427 1.491 . S
C433 C432 1.400 . S
C433 C434 1.398 . S
C434 H422 0.950 . S
C434 C433 1.398 . S
C434 C435 1.391 . S
C435 H423 0.950 . S
C435 C431 1.393 . S
C435 C434 1.391 . S
H436 C444 0.950 . S
H437 C449 0.950 . S
H438 C446 0.950 . S
H439 C448 0.950 . S
H440 C450 0.950 . S
H441 C452 0.950 . S
H442 C454 0.950 . S
H443 C455 0.950 . S
C444 H436 0.950 . S
C444 C445 1.386 . S
C444 C446 1.391 . S
C445 C444 1.386 . S
C445 C449 1.393 . S
C446 H438 0.950 . S
C446 C444 1.391 . S
C446 C447 1.400 . S
C447 C446 1.400 . S
C447 C448 1.398 . S
C447 C453 1.491 . S
C448 H439 0.950 . S
C448 C447 1.398 . S
C448 C449 1.391 . S
C449 H437 0.950 . S
C449 C445 1.393 . S
C449 C448 1.391 . S
C450 H440 0.950 . S
C450 C451 1.386 . S
C450 C452 1.391 . S
C451 C450 1.386 . S
C451 C455 1.393 . S
C452 H441 0.950 . S
C452 C450 1.391 . S
C452 C453 1.400 . S
C453 C447 1.491 . S
C453 C452 1.400 . S
C453 C454 1.398 . S
C454 H442 0.950 . S
C454 C453 1.398 . S
C454 C455 1.391 . S
C455 H443 0.950 . S
C455 C451 1.393 . S
C455 C454 1.391 . S
H456 C464 0.950 . S
H457 C469 0.950 . S
H458 C466 0.950 . S
H459 C468 0.950 . S
H460 C470 0.950 . S
H461 C472 0.950 . S
H462 C474 0.950 . S
H463 C475 0.950 . S
C464 H456 0.950 . S
C464 C465 1.386 . S
C464 C466 1.391 . S
C465 C464 1.386 . S
C465 C469 1.393 . S
C466 H458 0.950 . S
C466 C464 1.391 . S
C466 C467 1.400 . S
C467 C466 1.400 . S
C467 C468 1.398 . S
C467 C473 1.491 . S
C468 H459 0.950 . S
C468 C467 1.398 . S
C468 C469 1.391 . S
C469 H457 0.950 . S
C469 C465 1.393 . S
C469 C468 1.391 . S
C470 H460 0.950 . S
C470 C471 1.386 . S
C470 C472 1.391 . S
C471 C470 1.386 . S
C471 C475 1.393 . S
C472 H461 0.950 . S
C472 C470 1.391 . S
C472 C473 1.400 . S
C473 C467 1.491 . S
C473 C472 1.400 . S
C473 C474 1.398 . S
C474 H462 0.950 . S
C474 C473 1.398 . S
C474 C475 1.391 . S
C475 H463 0.950 . S
C475 C471 1.393 . S
C475 C474 1.391 . S
H476 C484 0.950 . S
H477 C489 0.950 . S
H478 C486 0.950 . S
H479 C488 0.950 . S
H480 C490 0.950 . S
H481 C492 0.950 . S
H482 C494 0.950 . S
H483 C495 0.950 . S
C484 H476 0.950 . S
C484 C485 1.386 . S
C484 C486 1.391 . S
C485 C484 1.386 . S
C485 C489 1.393 . S
C486 H478 0.950 . S
C486 C484 1.391 . S
C486 C487 1.400 . S
C487 C486 1.400 . S
C487 C488 1.398 . S
C487 C493 1.491 . S
C488 H479 0.950 . S
C488 C487 1.398 . S
C488 C489 1.391 . S
C489 H477 0.950 . S
C489 C485 1.393 . S
C489 C488 1.391 . S
C490 H480 0.950 . S
C490 C491 1.386 . S
C490 C492 1.391 . S
C491 C490 1.386 . S
C491 C495 1.393 . S
C492 H481 0.950 . S
C492 C490 1.391 . S
C492 C493 1.400 . S
C493 C487 1.491 . S
C493 C492 1.400 . S
C493 C494 1.398 . S
C494 H482 0.950 . S
C494 C493 1.398 . S
C494 C495 1.391 . S
C495 H483 0.950 . S
C495 C491 1.393 . S
C495 C494 1.391 . S
H496 C504 0.950 . S
H497 C509 0.950 . S
H498 C506 0.950 . S
H499 C508 0.950 . S
H500 C510 0.950 . S
H501 C512 0.950 . S
H502 C514 0.950 . S
H503 C515 0.950 . S
C504 H496 0.950 . S
C504 C505 1.386 . S
C504 C506 1.391 . S
C505 C504 1.386 . S
C505 C509 1.393 . S
C506 H498 0.950 . S
C506 C504 1.391 . S
C506 C507 1.400 . S
C507 C506 1.400 . S
C507 C508 1.398 . S
C507 C513 1.491 . S
C508 H499 0.950 . S
C508 C507 1.398 . S
C508 C509 1.391 . S
C509 H497 0.950 . S
C509 C505 1.393 . S
C509 C508 1.391 . S
C510 H500 0.950 . S
C510 C511 1.386 . S
C510 C512 1.391 . S
C511 C510 1.386 . S
C511 C515 1.393 . S
C512 H501 0.950 . S
C512 C510 1.391 . S
C512 C513 1.400 . S
C513 C507 1.491 . S
C513 C512 1.400 . S
C513 C514 1.398 . S
C514 H502 0.950 . S
C514 C513 1.398 . S
C514 C515 1.391 . S
C515 H503 0.950 . S
C515 C511 1.393 . S
C515 C514 1.391 . S
H516 C524 0.950 . S
H517 C529 0.950 . S
H518 C526 0.950 . S
H519 C528 0.950 . S
H520 C530 0.950 . S
H521 C532 0.950 . S
H522 C534 0.950 . S
H523 C535 0.950 . S
C524 H516 0.950 . S
C524 C525 1.386 . S
C524 C526 1.391 . S
C525 C524 1.386 . S
C525 C529 1.393 . S
C526 H518 0.950 . S
C526 C524 1.391 . S
C526 C527 1.400 . S
C527 C526 1.400 . S
C527 C528 1.398 . S
C527 C533 1.491 . S
C528 H519 0.950 . S
C528 C527 1.398 . S
C528 C529 1.391 . S
C529 H517 0.950 . S
C529 C525 1.393 . S
C529 C528 1.391 . S
C530 H520 0.950 . S
C530 C531 1.386 . S
C530 C532 1.391 . S
C531 C530 1.386 . S
C531 C535 1.393 . S
C532 H521 0.950 . S
C532 C530 1.391 . S
C532 C533 1.400 . S
C533 C527 1.491 . S
C533 C532 1.400 . S
C533 C534 1.398 . S
C534 H522 0.950 . S
C534 C533 1.398 . S
C534 C535 1.391 . S
C535 H523 0.950 . S
C535 C531 1.393 . S
C535 C534 1.391 . S
H536 C544 0.950 . S
H537 C549 0.950 . S
H538 C546 0.950 . S
H539 C548 0.950 . S
H540 C550 0.950 . S
H541 C552 0.950 . S
H542 C554 0.950 . S
H543 C555 0.950 . S
C544 H536 0.950 . S
C544 C545 1.386 . S
C544 C546 1.391 . S
C545 C544 1.386 . S
C545 C549 1.393 . S
C546 H538 0.950 . S
C546 C544 1.391 . S
C546 C547 1.400 . S
C547 C546 1.400 . S
C547 C548 1.398 . S
C547 C553 1.491 . S
C548 H539 0.950 . S
C548 C547 1.398 . S
C548 C549 1.391 . S
C549 H537 0.950 . S
C549 C545 1.393 . S
C549 C548 1.391 . S
C550 H540 0.950 . S
C550 C551 1.386 . S
C550 C552 1.391 . S
C551 C550 1.386 . S
C551 C555 1.393 . S
C552 H541 0.950 . S
C552 C550 1.391 . S
C552 C553 1.400 . S
C553 C547 1.491 . S
C553 C552 1.400 . S
C553 C554 1.398 . S
C554 H542 0.950 . S
C554 C553 1.398 . S
C554 C555 1.391 . S
C555 H543 0.950 . S
C555 C551 1.393 . S
C555 C554 1.391 . S
H556 C564 0.950 . S
H557 C569 0.950 . S
H558 C566 0.950 . S
H559 C568 0.950 . S
H560 C570 0.950 . S
H561 C572 0.950 . S
H562 C574 0.950 . S
H563 C575 0.950 . S
C564 H556 0.950 . S
C564 C565 1.386 . S
C564 C566 1.391 . S
C565 C564 1.386 . S
C565 C569 1.393 1_556 S
C566 H558 0.950 . S
C566 C564 1.391 . S
C566 C567 1.400 . S
C567 C566 1.400 . S
C567 C568 1.398 1_556 S
C567 C573 1.491 1_556 S
C568 H559 0.950 . S
C568 C567 1.398 1_554 S
C568 C569 1.391 . S
C569 H557 0.950 . S
C569 C565 1.393 1_554 S
C569 C568 1.391 . S
C570 H560 0.950 . S
C570 C571 1.386 . S
C570 C572 1.391 . S
C571 C570 1.386 . S
C571 C575 1.393 1_554 S
C572 H561 0.950 . S
C572 C570 1.391 . S
C572 C573 1.400 . S
C573 C567 1.491 1_554 S
C573 C572 1.400 . S
C573 C574 1.398 1_554 S
C574 H562 0.950 . S
C574 C573 1.398 1_556 S
C574 C575 1.391 . S
C575 H563 0.950 . S
C575 C571 1.393 1_556 S
C575 C574 1.391 . S
H576 C584 0.950 . S
H577 C589 0.950 . S
H578 C586 0.950 . S
H579 C588 0.950 . S
H580 C590 0.950 . S
H581 C592 0.950 . S
H582 C594 0.950 . S
H583 C595 0.950 . S
C584 H576 0.950 . S
C584 C585 1.386 . S
C584 C586 1.391 . S
C585 C584 1.386 . S
C585 C589 1.393 . S
C586 H578 0.950 . S
C586 C584 1.391 . S
C586 C587 1.400 . S
C587 C586 1.400 . S
C587 C588 1.398 . S
C587 C593 1.491 . S
C588 H579 0.950 . S
C588 C587 1.398 . S
C588 C589 1.391 . S
C589 H577 0.950 . S
C589 C585 1.393 . S
C589 C588 1.391 . S
C590 H580 0.950 . S
C590 C591 1.386 . S
C590 C592 1.391 . S
C591 C590 1.386 . S
C591 C595 1.393 . S
C592 H581 0.950 . S
C592 C590 1.391 . S
C592 C593 1.400 . S
C593 C587 1.491 . S
C593 C592 1.400 . S
C593 C594 1.398 . S
C594 H582 0.950 . S
C594 C593 1.398 . S
C594 C595 1.391 . S
C595 H583 0.950 . S
C595 C591 1.393 . S
C595 C594 1.391 . S
H596 C604 0.950 . S
H597 C609 0.950 . S
H598 C606 0.950 . S
H599 C608 0.950 . S
H600 C610 0.950 . S
H601 C612 0.950 . S
H602 C614 0.950 . S
H603 C615 0.950 . S
C604 H596 0.950 . S
C604 C605 1.386 . S
C604 C606 1.391 . S
C605 C604 1.386 . S
C605 C609 1.393 . S
C606 H598 0.950 . S
C606 C604 1.391 . S
C606 C607 1.400 . S
C607 C606 1.400 . S
C607 C608 1.398 . S
C607 C613 1.491 . S
C608 H599 0.950 . S
C608 C607 1.398 . S
C608 C609 1.391 . S
C609 H597 0.950 . S
C609 C605 1.393 . S
C609 C608 1.391 . S
C610 H600 0.950 . S
C610 C611 1.386 . S
C610 C612 1.391 . S
C611 C610 1.386 . S
C611 C615 1.393 . S
C612 H601 0.950 . S
C612 C610 1.391 . S
C612 C613 1.400 . S
C613 C607 1.491 . S
C613 C612 1.400 . S
C613 C614 1.398 . S
C614 H602 0.950 . S
C614 C613 1.398 . S
C614 C615 1.391 . S
C615 H603 0.950 . S
C615 C611 1.393 . S
C615 C614 1.391 . S
H616 C624 0.950 . S
H617 C629 0.950 . S
H618 C626 0.950 . S
H619 C628 0.950 . S
H620 C630 0.950 . S
H621 C632 0.950 . S
H622 C634 0.950 . S
H623 C635 0.950 . S
C624 H616 0.950 . S
C624 C625 1.386 . S
C624 C626 1.391 . S
C625 C624 1.386 . S
C625 C629 1.393 1_554 S
C626 H618 0.950 . S
C626 C624 1.391 . S
C626 C627 1.400 . S
C627 C626 1.400 . S
C627 C628 1.398 1_554 S
C627 C633 1.491 1_554 S
C628 H619 0.950 . S
C628 C627 1.398 1_556 S
C628 C629 1.391 . S
C629 H617 0.950 . S
C629 C625 1.393 1_556 S
C629 C628 1.391 . S
C630 H620 0.950 . S
C630 C631 1.386 . S
C630 C632 1.391 . S
C631 C630 1.386 . S
C631 C635 1.393 1_556 S
C632 H621 0.950 . S
C632 C630 1.391 . S
C632 C633 1.400 . S
C633 C627 1.491 1_556 S
C633 C632 1.400 . S
C633 C634 1.398 1_556 S
C634 H622 0.950 . S
C634 C633 1.398 1_554 S
C634 C635 1.391 . S
C635 H623 0.950 . S
C635 C631 1.393 1_554 S
C635 C634 1.391 . S
C165 C3 1.382 . S
C171 C122 1.386 . S
C185 C16 1.384 . S
C191 C135 1.388 . S
C205 C29 1.391 . S
C211 C148 1.395 . S
C225 C42 1.398 . S
C231 C81 1.400 . S
C245 C94 1.381 . S
C251 C57 1.380 . S
C265 C109 1.385 . S
C271 C68 1.382 . S
C285 C140 1.862 . S
C291 C4 1.852 . S
C305 C17 1.855 . S
C311 C153 1.850 . S
C325 C30 1.862 . S
C331 C82 1.852 . S
C345 C43 1.852 . S
C351 C95 1.862 . S
C365 C62 1.856 . S
C371 C114 1.863 . S
C385 C69 1.861 . S
C391 C127 1.861 . S
C405 C134 0.984 . S
C411 C10 0.982 . S
C425 C23 0.985 . S
C431 C147 0.984 . S
C445 C36 0.982 . S
C451 C88 0.983 . S
C465 C49 0.985 . S
C471 C101 0.984 . S
C485 C56 0.982 . S
C491 C108 0.982 . S
C505 C75 0.984 . S
C511 C121 0.982 . S
C525 C5 1.732 . S
C531 C83 1.730 . S
C545 C96 1.728 . S
C551 C18 1.731 . S
C565 C31 1.730 . S
C571 C107 1.732 . S
C585 C44 1.726 . S
C591 C120 1.727 . S
C605 C55 1.726 . S
C611 C133 1.726 . S
C625 C146 1.726 . S
C631 C70 1.729 . S
