# Generated by pormake.
# Topology ukj, (4)-cn, num edge types: 1
# Building blocks:
#     Node 0, Type 0, BuildingBlock: MUDLON_clean_sbu_0, # of connection points: 4
#     Node 1, Type 0, BuildingBlock: MUDLON_clean_sbu_0, # of connection points: 4
#     Node 2, Type 0, BuildingBlock: MUDLON_clean_sbu_0, # of connection points: 4
#     Node 3, Type 0, BuildingBlock: MUDLON_clean_sbu_0, # of connection points: 4
#     Node 4, Type 0, BuildingBlock: MUDLON_clean_sbu_0, # of connection points: 4
#     Node 5, Type 0, BuildingBlock: MUDLON_clean_sbu_0, # of connection points: 4
#     Node 6, Type 0, BuildingBlock: MUDLON_clean_sbu_0, # of connection points: 4
#     Node 7, Type 0, BuildingBlock: MUDLON_clean_sbu_0, # of connection points: 4
#     Node 8, Type 0, BuildingBlock: MUDLON_clean_sbu_0, # of connection points: 4
#     Node 9, Type 0, BuildingBlock: MUDLON_clean_sbu_0, # of connection points: 4
#     Node 10, Type 0, BuildingBlock: MUDLON_clean_sbu_0, # of connection points: 4
#     Node 11, Type 0, BuildingBlock: MUDLON_clean_sbu_0, # of connection points: 4
#     Node 12, Type 0, BuildingBlock: MUDLON_clean_sbu_0, # of connection points: 4
#     Node 13, Type 0, BuildingBlock: MUDLON_clean_sbu_0, # of connection points: 4
#     Node 14, Type 0, BuildingBlock: MUDLON_clean_sbu_0, # of connection points: 4
#     Node 15, Type 0, BuildingBlock: MUDLON_clean_sbu_0, # of connection points: 4
#     Node 16, Type 0, BuildingBlock: MUDLON_clean_sbu_0, # of connection points: 4
#     Node 17, Type 0, BuildingBlock: MUDLON_clean_sbu_0, # of connection points: 4
#     Node 18, Type 0, BuildingBlock: MUDLON_clean_sbu_0, # of connection points: 4
#     Node 19, Type 0, BuildingBlock: MUDLON_clean_sbu_0, # of connection points: 4
#     Node 20, Type 0, BuildingBlock: MUDLON_clean_sbu_0, # of connection points: 4
#     Node 21, Type 0, BuildingBlock: MUDLON_clean_sbu_0, # of connection points: 4
#     Node 22, Type 0, BuildingBlock: MUDLON_clean_sbu_0, # of connection points: 4
#     Node 23, Type 0, BuildingBlock: MUDLON_clean_sbu_0, # of connection points: 4
#     Node 24, Type 0, BuildingBlock: MUDLON_clean_sbu_0, # of connection points: 4
#     Node 25, Type 0, BuildingBlock: MUDLON_clean_sbu_0, # of connection points: 4
#     Node 26, Type 0, BuildingBlock: MUDLON_clean_sbu_0, # of connection points: 4
#     Node 27, Type 0, BuildingBlock: MUDLON_clean_sbu_0, # of connection points: 4
#     Node 28, Type 0, BuildingBlock: MUDLON_clean_sbu_0, # of connection points: 4
#     Node 29, Type 0, BuildingBlock: MUDLON_clean_sbu_0, # of connection points: 4
#     Node 30, Type 0, BuildingBlock: MUDLON_clean_sbu_0, # of connection points: 4
#     Node 31, Type 0, BuildingBlock: MUDLON_clean_sbu_0, # of connection points: 4
#     Edge 32, Type (0, 0), BuildingBlock: CIFDUS_clean_linker_0, # of connection points: 2
#     Edge 33, Type (0, 0), BuildingBlock: CIFDUS_clean_linker_0, # of connection points: 2
#     Edge 34, Type (0, 0), BuildingBlock: CIFDUS_clean_linker_0, # of connection points: 2
#     Edge 35, Type (0, 0), BuildingBlock: CIFDUS_clean_linker_0, # of connection points: 2
#     Edge 36, Type (0, 0), BuildingBlock: CIFDUS_clean_linker_0, # of connection points: 2
#     Edge 37, Type (0, 0), BuildingBlock: CIFDUS_clean_linker_0, # of connection points: 2
#     Edge 38, Type (0, 0), BuildingBlock: CIFDUS_clean_linker_0, # of connection points: 2
#     Edge 39, Type (0, 0), BuildingBlock: CIFDUS_clean_linker_0, # of connection points: 2
#     Edge 40, Type (0, 0), BuildingBlock: CIFDUS_clean_linker_0, # of connection points: 2
#     Edge 41, Type (0, 0), BuildingBlock: CIFDUS_clean_linker_0, # of connection points: 2
#     Edge 42, Type (0, 0), BuildingBlock: CIFDUS_clean_linker_0, # of connection points: 2
#     Edge 43, Type (0, 0), BuildingBlock: CIFDUS_clean_linker_0, # of connection points: 2
#     Edge 44, Type (0, 0), BuildingBlock: CIFDUS_clean_linker_0, # of connection points: 2
#     Edge 45, Type (0, 0), BuildingBlock: CIFDUS_clean_linker_0, # of connection points: 2
#     Edge 46, Type (0, 0), BuildingBlock: CIFDUS_clean_linker_0, # of connection points: 2
#     Edge 47, Type (0, 0), BuildingBlock: CIFDUS_clean_linker_0, # of connection points: 2
#     Edge 48, Type (0, 0), BuildingBlock: CIFDUS_clean_linker_0, # of connection points: 2
#     Edge 49, Type (0, 0), BuildingBlock: CIFDUS_clean_linker_0, # of connection points: 2
#     Edge 50, Type (0, 0), BuildingBlock: CIFDUS_clean_linker_0, # of connection points: 2
#     Edge 51, Type (0, 0), BuildingBlock: CIFDUS_clean_linker_0, # of connection points: 2
#     Edge 52, Type (0, 0), BuildingBlock: CIFDUS_clean_linker_0, # of connection points: 2
#     Edge 53, Type (0, 0), BuildingBlock: CIFDUS_clean_linker_0, # of connection points: 2
#     Edge 54, Type (0, 0), BuildingBlock: CIFDUS_clean_linker_0, # of connection points: 2
#     Edge 55, Type (0, 0), BuildingBlock: CIFDUS_clean_linker_0, # of connection points: 2
#     Edge 56, Type (0, 0), BuildingBlock: CIFDUS_clean_linker_0, # of connection points: 2
#     Edge 57, Type (0, 0), BuildingBlock: CIFDUS_clean_linker_0, # of connection points: 2
#     Edge 58, Type (0, 0), BuildingBlock: CIFDUS_clean_linker_0, # of connection points: 2
#     Edge 59, Type (0, 0), BuildingBlock: CIFDUS_clean_linker_0, # of connection points: 2
#     Edge 60, Type (0, 0), BuildingBlock: CIFDUS_clean_linker_0, # of connection points: 2
#     Edge 61, Type (0, 0), BuildingBlock: CIFDUS_clean_linker_0, # of connection points: 2
#     Edge 62, Type (0, 0), BuildingBlock: CIFDUS_clean_linker_0, # of connection points: 2
#     Edge 63, Type (0, 0), BuildingBlock: CIFDUS_clean_linker_0, # of connection points: 2
#     Edge 64, Type (0, 0), BuildingBlock: CIFDUS_clean_linker_0, # of connection points: 2
#     Edge 65, Type (0, 0), BuildingBlock: CIFDUS_clean_linker_0, # of connection points: 2
#     Edge 66, Type (0, 0), BuildingBlock: CIFDUS_clean_linker_0, # of connection points: 2
#     Edge 67, Type (0, 0), BuildingBlock: CIFDUS_clean_linker_0, # of connection points: 2
#     Edge 68, Type (0, 0), BuildingBlock: CIFDUS_clean_linker_0, # of connection points: 2
#     Edge 69, Type (0, 0), BuildingBlock: CIFDUS_clean_linker_0, # of connection points: 2
#     Edge 70, Type (0, 0), BuildingBlock: CIFDUS_clean_linker_0, # of connection points: 2
#     Edge 71, Type (0, 0), BuildingBlock: CIFDUS_clean_linker_0, # of connection points: 2
#     Edge 72, Type (0, 0), BuildingBlock: CIFDUS_clean_linker_0, # of connection points: 2
#     Edge 73, Type (0, 0), BuildingBlock: CIFDUS_clean_linker_0, # of connection points: 2
#     Edge 74, Type (0, 0), BuildingBlock: CIFDUS_clean_linker_0, # of connection points: 2
#     Edge 75, Type (0, 0), BuildingBlock: CIFDUS_clean_linker_0, # of connection points: 2
#     Edge 76, Type (0, 0), BuildingBlock: CIFDUS_clean_linker_0, # of connection points: 2
#     Edge 77, Type (0, 0), BuildingBlock: CIFDUS_clean_linker_0, # of connection points: 2
#     Edge 78, Type (0, 0), BuildingBlock: CIFDUS_clean_linker_0, # of connection points: 2
#     Edge 79, Type (0, 0), BuildingBlock: CIFDUS_clean_linker_0, # of connection points: 2
#     Edge 80, Type (0, 0), BuildingBlock: CIFDUS_clean_linker_0, # of connection points: 2
#     Edge 81, Type (0, 0), BuildingBlock: CIFDUS_clean_linker_0, # of connection points: 2
#     Edge 82, Type (0, 0), BuildingBlock: CIFDUS_clean_linker_0, # of connection points: 2
#     Edge 83, Type (0, 0), BuildingBlock: CIFDUS_clean_linker_0, # of connection points: 2
#     Edge 84, Type (0, 0), BuildingBlock: CIFDUS_clean_linker_0, # of connection points: 2
#     Edge 85, Type (0, 0), BuildingBlock: CIFDUS_clean_linker_0, # of connection points: 2
#     Edge 86, Type (0, 0), BuildingBlock: CIFDUS_clean_linker_0, # of connection points: 2
#     Edge 87, Type (0, 0), BuildingBlock: CIFDUS_clean_linker_0, # of connection points: 2
#     Edge 88, Type (0, 0), BuildingBlock: CIFDUS_clean_linker_0, # of connection points: 2
#     Edge 89, Type (0, 0), BuildingBlock: CIFDUS_clean_linker_0, # of connection points: 2
#     Edge 90, Type (0, 0), BuildingBlock: CIFDUS_clean_linker_0, # of connection points: 2
#     Edge 91, Type (0, 0), BuildingBlock: CIFDUS_clean_linker_0, # of connection points: 2
#     Edge 92, Type (0, 0), BuildingBlock: CIFDUS_clean_linker_0, # of connection points: 2
#     Edge 93, Type (0, 0), BuildingBlock: CIFDUS_clean_linker_0, # of connection points: 2
#     Edge 94, Type (0, 0), BuildingBlock: CIFDUS_clean_linker_0, # of connection points: 2
#     Edge 95, Type (0, 0), BuildingBlock: CIFDUS_clean_linker_0, # of connection points: 2
# Relax obj value: 0.028
# Max RMSD: 0.217
# Mean RMSD: 0.216
data_MOF--net-ukj--node1-MUDLON_clean_sbu_0--edge1-CIFDUS_clean_linker_0
_symmetry_space_group_name_H-M    P1
_symmetry_Int_Tables_number       1
_symmetry_cell_setting            triclinic
loop_
_symmetry_equiv_pos_as_xyz
'x, y, z'
_cell_length_a     30.595584
_cell_length_b     51.253122
_cell_length_c     52.798057
_cell_angle_alpha  89.944509
_cell_angle_beta   90.286739
_cell_angle_gamma 90.14899
loop_
_atom_site_label
_atom_site_type_symbol
_atom_site_fract_x
_atom_site_fract_y
_atom_site_fract_z
_atom_type_partial_charge
Mg0 Mg 0.17804 0.35244 0.26455 0.0
C1 C 0.17529 0.37451 0.2118 0.0
O2 O 0.217 0.36874 0.21358 0.0
C3 C 0.15681 0.356 0.31919 0.0
O4 O 0.16411 0.33092 0.31641 0.0
C5 C 0.10809 0.31278 0.26507 0.0
O6 O 0.08685 0.33503 0.26519 0.0
O7 O 0.14972 0.31334 0.26469 0.0
O8 O 0.15108 0.37123 0.23107 0.0
O9 O 0.24922 0.35459 0.26315 0.0
C10 C 0.27402 0.33962 0.2759 0.0
O11 O 0.25646 0.32091 0.28953 0.0
O12 O 0.15909 0.37077 0.29985 0.0
Mg13 Mg 0.10628 0.91628 0.26873 0.0
C14 C 0.1417 0.92093 0.21753 0.0
O15 O 0.13678 0.94525 0.22468 0.0
C16 C 0.12586 0.90451 0.32152 0.0
O17 O 0.11526 0.92934 0.32158 0.0
C18 C 0.1796 0.95244 0.27686 0.0
O19 O 0.19777 0.9293 0.27521 0.0
O20 O 0.13808 0.95399 0.27534 0.0
O21 O 0.13042 0.90265 0.23241 0.0
O22 O 0.03502 0.91479 0.26795 0.0
C23 C 0.01956 0.8917 0.26706 0.0
O24 O 0.04708 0.87207 0.26636 0.0
O25 O 0.12587 0.89233 0.30056 0.0
Mg26 Mg 0.17479 0.91471 1.01729 0.0
C27 C 0.18637 0.90672 0.07135 0.0
O28 O 0.21696 0.9235 0.065 0.0
C29 C 0.14793 0.90403 0.96501 0.0
O30 O 0.15449 0.92938 0.96509 0.0
C31 C 0.09836 0.95031 1.01619 0.0
O32 O 0.07983 0.92715 1.01644 0.0
O33 O 0.13993 0.95171 1.01627 0.0
O34 O 0.16164 0.89769 0.05404 0.0
O35 O 0.24553 0.91793 1.01367 0.0
C36 C 0.26655 0.89661 1.01571 0.0
O37 O 0.24448 0.87493 0.01944 0.0
O38 O 0.15264 0.89149 0.98561 0.0
Mg39 Mg 0.10018 0.34354 1.01706 0.0
C40 C 0.10441 0.36971 0.06772 0.0
O41 O 0.06287 0.36324 0.06673 0.0
C42 C 0.11641 0.34038 0.96219 0.0
O43 O 0.10392 0.31656 0.96794 0.0
C44 C 0.16952 0.30437 0.01998 0.0
O45 O 0.19041 0.32668 1.0177 0.0
O46 O 0.12791 0.30465 0.0206 0.0
O47 O 0.12819 0.3654 0.04848 0.0
O48 O 0.02912 0.34608 0.01883 0.0
C49 C 1.01301 0.36783 1.01186 0.0
O50 O 0.03969 0.3862 1.00392 0.0
O51 O 0.11907 0.35726 0.97979 0.0
Mg52 Mg 0.84735 0.65056 0.76629 0.0
C53 C 0.85035 0.6277 0.81826 0.0
O54 O 0.80989 0.63616 0.81723 0.0
C55 C 0.86881 0.65311 0.71196 0.0
O56 O 0.85918 0.67742 0.71743 0.0
C57 C 0.91726 0.68929 0.77045 0.0
O58 O 0.93748 0.66672 0.76953 0.0
O59 O 0.87565 0.68941 0.76971 0.0
O60 O 0.87387 0.62942 0.79853 0.0
O61 O 0.7762 0.6484 0.76708 0.0
C62 C 0.75961 0.62568 0.76497 0.0
O63 O 0.78598 0.60565 0.76254 0.0
O64 O 0.86763 0.63613 0.72956 0.0
Mg65 Mg 0.92848 0.09835 0.767 0.0
C66 C 0.88331 0.11633 0.81615 0.0
O67 O 0.85248 0.09988 0.80931 0.0
C68 C 0.91514 0.13376 0.71999 0.0
O69 O 0.93954 0.15058 0.73243 0.0
C70 C 0.85772 0.05935 0.76491 0.0
O71 O 0.83925 0.08091 0.75674 0.0
O72 O 0.89802 0.06002 0.77111 0.0
O73 O 0.91481 0.1208 0.80114 0.0
O74 O 0.99987 0.0991 0.76513 0.0
C75 C 0.01667 0.12095 0.77145 0.0
O76 O 0.99045 0.1399 0.77832 0.0
O77 O 0.9044 0.11246 0.73062 0.0
Mg78 Mg 0.84324 0.09988 1.01788 0.0
C79 C 0.87708 0.1217 0.96605 0.0
O80 O 0.91684 0.11819 0.97488 0.0
C81 C 0.87452 0.10784 0.06978 0.0
O82 O 0.86567 0.08277 0.0685 0.0
C83 C 0.91911 0.0638 1.01784 0.0
O84 O 0.93779 0.08676 0.02049 0.0
O85 O 0.87759 0.06265 1.01625 0.0
O86 O 0.84453 0.11732 0.98031 0.0
O87 O 0.7733 0.09799 0.02495 0.0
C88 C 0.75662 0.12067 0.02662 0.0
O89 O 0.78278 0.14099 0.02518 0.0
O90 O 0.86985 0.12162 0.04986 0.0
Mg91 Mg 0.92377 0.65178 1.01533 0.0
C92 C 0.92128 0.63018 0.96227 0.0
O93 O 0.96253 0.63725 0.96354 0.0
C94 C 0.90317 0.64738 0.06992 0.0
O95 O 0.91325 0.67222 0.06773 0.0
C96 C 0.85445 0.69148 1.01537 0.0
O97 O 0.83296 0.66924 1.01522 0.0
O98 O 0.89606 0.69089 1.01539 0.0
O99 O 0.89744 0.63283 0.98176 0.0
O100 O 0.99492 0.64975 1.01493 0.0
C101 C 1.01084 0.62684 1.0159 0.0
O102 O 0.98385 0.60687 1.01676 0.0
O103 O 0.90349 0.63314 0.05021 0.0
Mg104 Mg 0.16479 0.84356 0.76932 0.0
C105 C 0.16745 0.86695 0.71678 0.0
O106 O 0.20933 0.8622 0.71975 0.0
C107 C 0.14388 0.85217 0.82331 0.0
O108 O 0.15012 0.82682 0.82274 0.0
C109 C 0.09028 0.80657 0.77136 0.0
O110 O 0.07068 0.82935 0.77099 0.0
O111 O 0.13187 0.80596 0.77092 0.0
O112 O 0.14157 0.86223 0.73498 0.0
O113 O 0.23587 0.84113 0.76916 0.0
C114 C 0.25705 0.86226 0.77264 0.0
O115 O 0.23511 0.88396 0.77614 0.0
O116 O 0.14689 0.86507 0.80283 0.0
Mg117 Mg 0.12122 0.40302 0.76931 0.0
C118 C 0.11283 0.37858 0.71806 0.0
O119 O 0.07585 0.39143 0.71944 0.0
C120 C 0.13596 0.40289 0.82435 0.0
O121 O 0.13243 0.42776 0.81877 0.0
C122 C 0.15775 0.46014 0.77042 0.0
O123 O 0.11844 0.46721 0.77756 0.0
O124 O 0.16527 0.43628 0.76569 0.0
O125 O 0.13808 0.37832 0.73729 0.0
O126 O 0.051 0.41032 0.76818 0.0
C127 C 0.02807 0.38978 0.77119 0.0
O128 O 0.04838 0.36748 0.77463 0.0
O129 O 0.13372 0.38629 0.80648 0.0
Mg130 Mg 0.17036 0.39604 0.52069 0.0
C131 C 0.16892 0.37112 0.57271 0.0
O132 O 0.21134 0.37404 0.57026 0.0
C133 C 0.15269 0.39204 0.4658 0.0
O134 O 0.16141 0.41697 0.46874 0.0
C135 C 0.09896 0.43455 0.51866 0.0
O136 O 0.07836 0.41205 0.51764 0.0
O137 O 0.14052 0.43454 0.52012 0.0
O138 O 0.14409 0.37706 0.55419 0.0
O139 O 0.24157 0.39601 0.52241 0.0
C140 C 0.25979 0.37438 0.51719 0.0
O141 O 0.23489 0.35435 0.51123 0.0
O142 O 0.15261 0.37735 0.48524 0.0
Mg143 Mg 0.11382 0.84653 0.51774 0.0
C144 C 0.11042 0.86788 0.57075 0.0
O145 O 0.06932 0.86096 0.5679 0.0
C146 C 0.13467 0.85445 0.46377 0.0
O147 O 0.12757 0.82917 0.46473 0.0
C148 C 0.1878 0.8096 0.51554 0.0
O149 O 0.20744 0.83244 0.51534 0.0
O150 O 0.14624 0.8089 0.51647 0.0
O151 O 0.13637 0.86525 0.55221 0.0
O152 O 0.04273 0.84455 0.51711 0.0
C153 C 0.02263 0.86617 0.51491 0.0
O154 O 0.04566 0.88779 0.5134 0.0
O155 O 0.1325 0.86762 0.4841 0.0
Mg156 Mg 0.87113 0.15256 0.26949 0.0
C157 C 0.86666 0.13395 0.32346 0.0
O158 O 0.82674 0.14275 0.32021 0.0
C159 C 0.89102 0.14792 0.21502 0.0
O160 O 0.88044 0.17262 0.21746 0.0
C161 C 0.94159 0.19202 0.26892 0.0
O162 O 0.96276 0.16974 0.26895 0.0
O163 O 0.89996 0.19152 0.26923 0.0
O164 O 0.89282 0.13434 0.30476 0.0
O165 O 0.79997 0.15058 0.26788 0.0
C166 C 0.78464 0.12747 0.26696 0.0
O167 O 0.81215 0.10782 0.26727 0.0
O168 O 0.8921 0.13364 0.23477 0.0
Mg169 Mg 0.91453 0.59903 0.26966 0.0
C170 C 0.92071 0.61952 0.32303 0.0
O171 O 0.96023 0.60995 0.32057 0.0
C172 C 0.89641 0.60635 0.21532 0.0
O173 O 0.9008 0.58094 0.2174 0.0
C174 C 0.83459 0.56689 0.26759 0.0
O175 O 0.81993 0.59097 0.26753 0.0
O176 O 0.87575 0.56326 0.26848 0.0
O177 O 0.89484 0.61897 0.30409 0.0
O178 O 0.98541 0.59429 0.26978 0.0
C179 C 1.00718 0.61544 0.26805 0.0
O180 O 0.98572 0.63757 0.26647 0.0
O181 O 0.89935 0.62024 0.23521 0.0
Mg182 Mg 0.86089 0.59271 0.5196 0.0
C183 C 0.86295 0.61822 0.46851 0.0
O184 O 0.82133 0.61213 0.4701 0.0
C185 C 0.87984 0.59042 0.5743 0.0
O186 O 0.8707 0.56605 0.56864 0.0
C187 C 0.93022 0.55356 0.5172 0.0
O188 O 0.95105 0.57595 0.51892 0.0
O189 O 0.88859 0.55376 0.51671 0.0
O190 O 0.88769 0.61392 0.48749 0.0
O191 O 0.78981 0.59546 0.51847 0.0
C192 C 0.77512 0.61834 0.5223 0.0
O193 O 0.8032 0.63732 0.5265 0.0
O194 O 0.87998 0.60731 0.55662 0.0
Mg195 Mg 0.91893 0.15792 0.52174 0.0
C196 C 0.91787 0.1336 0.47057 0.0
O197 O 0.95866 0.14131 0.47281 0.0
C198 C 0.88892 0.12599 0.5699 0.0
O199 O 0.8837 0.10541 0.55537 0.0
C200 C 0.85004 0.19676 0.51934 0.0
O201 O 0.82989 0.1744 0.52301 0.0
O202 O 0.89152 0.19672 0.51747 0.0
O203 O 0.89261 0.1361 0.48953 0.0
O204 O 0.98992 0.15536 0.52107 0.0
C205 C 1.00526 0.1327 0.52535 0.0
O206 O 0.9778 0.11348 0.52974 0.0
O207 O 0.90093 0.1475 0.56018 0.0
Mg208 Mg 0.67623 0.34799 0.76826 0.0
C209 C 0.6766 0.37015 0.71555 0.0
O210 O 0.71599 0.3601 0.71688 0.0
C211 C 0.66105 0.3461 0.82312 0.0
O212 O 0.67204 0.32212 0.81717 0.0
C213 C 0.60326 0.30984 0.76705 0.0
O214 O 0.58289 0.33224 0.76939 0.0
O215 O 0.64481 0.3099 0.76572 0.0
O216 O 0.65258 0.36952 0.73519 0.0
O217 O 0.7474 0.34603 0.7675 0.0
C218 C 0.76903 0.36727 0.76872 0.0
O219 O 0.74762 0.38942 0.77003 0.0
O220 O 0.65887 0.36306 0.8055 0.0
Mg221 Mg 0.60661 0.90665 0.7645 0.0
C222 C 0.59136 0.89103 0.71053 0.0
O223 O 0.55392 0.90192 0.71631 0.0
C224 C 0.62825 0.89895 0.81835 0.0
O225 O 0.61909 0.92393 0.81676 0.0
C226 C 0.68245 0.94321 0.76796 0.0
O227 O 0.70143 0.9205 0.77138 0.0
O228 O 0.64118 0.94387 0.76473 0.0
O229 O 0.62048 0.88886 0.72774 0.0
O230 O 0.53595 0.91021 0.76814 0.0
C231 C 0.51485 0.88882 0.76955 0.0
O232 O 0.53678 0.86681 0.76896 0.0
O233 O 0.62737 0.88534 0.79817 0.0
Mg234 Mg 0.67476 0.91392 0.51944 0.0
C235 C 0.68617 0.88974 0.57111 0.0
O236 O 0.72655 0.89675 0.5662 0.0
C237 C 0.65408 0.914 0.46508 0.0
O238 O 0.66253 0.93855 0.47038 0.0
C239 C 0.60001 0.95048 0.51988 0.0
O240 O 0.58105 0.92781 0.51589 0.0
O241 O 0.64142 0.95125 0.52231 0.0
O242 O 0.65705 0.89285 0.55404 0.0
O243 O 0.74573 0.91702 0.51772 0.0
C244 C 0.76604 0.89586 0.51332 0.0
O245 O 0.74321 0.87438 0.5099 0.0
O246 O 0.65515 0.89737 0.48303 0.0
Mg247 Mg 0.60828 0.35288 0.5181 0.0
C248 C 0.61149 0.37622 0.57025 0.0
O249 O 0.56992 0.36997 0.56854 0.0
C250 C 0.62196 0.35 0.46308 0.0
O251 O 0.61052 0.32618 0.4695 0.0
C252 C 0.67892 0.31444 0.51806 0.0
O253 O 0.69888 0.33691 0.51474 0.0
O254 O 0.63752 0.31434 0.52044 0.0
O255 O 0.63558 0.37332 0.55085 0.0
O256 O 0.53725 0.35357 0.52043 0.0
C257 C 0.51262 0.33469 0.514 0.0
O258 O 0.53038 0.31285 0.50617 0.0
O259 O 0.62504 0.36722 0.48041 0.0
Mg260 Mg 0.35795 0.66019 0.26783 0.0
C261 C 0.35789 0.63717 0.3203 0.0
O262 O 0.31801 0.64653 0.31911 0.0
C263 C 0.37366 0.66146 0.21288 0.0
O264 O 0.36478 0.68583 0.21855 0.0
C265 C 0.43217 0.69745 0.26896 0.0
O266 O 0.45169 0.67478 0.26656 0.0
O267 O 0.39061 0.69794 0.27024 0.0
O268 O 0.38189 0.63851 0.30069 0.0
O269 O 0.28677 0.66232 0.26912 0.0
C270 C 0.26552 0.641 0.26726 0.0
O271 O 0.28736 0.6191 0.26489 0.0
O272 O 0.37433 0.64464 0.23065 0.0
Mg273 Mg 0.43731 0.1003 0.27426 0.0
C274 C 0.46229 0.11729 0.32594 0.0
O275 O 0.49779 0.10566 0.3179 0.0
C276 C 0.40221 0.10605 0.22283 0.0
O277 O 0.41033 0.08097 0.22477 0.0
C278 C 0.36258 0.06428 0.27894 0.0
O279 O 0.34469 0.08753 0.28023 0.0
O280 O 0.40392 0.06275 0.27659 0.0
O281 O 0.42964 0.11907 0.31099 0.0
O282 O 0.50737 0.09989 0.26671 0.0
C283 C 0.5231 0.12255 0.26269 0.0
O284 O 0.49614 0.14246 0.26209 0.0
O285 O 0.40883 0.1205 0.24206 0.0
Mg286 Mg 0.35289 0.1045 0.51633 0.0
C287 C 0.40371 0.12699 0.47123 0.0
O288 O 0.43814 0.12147 0.48517 0.0
C289 C 0.37562 0.1105 0.56978 0.0
O290 O 0.36365 0.08595 0.56772 0.0
C291 C 0.4251 0.06623 0.52164 0.0
O292 O 0.44381 0.08826 0.5284 0.0
O293 O 0.38471 0.06642 0.51564 0.0
O294 O 0.36585 0.12339 0.48035 0.0
O295 O 0.28204 0.10454 0.51907 0.0
C296 C 0.26631 0.12747 0.5175 0.0
O297 O 0.29349 0.14715 0.51474 0.0
O298 O 0.37574 0.12466 0.54997 0.0
Mg299 Mg 0.42858 0.65366 0.51789 0.0
C300 C 0.42466 0.63278 0.46519 0.0
O301 O 0.46482 0.64184 0.46642 0.0
C302 C 0.41427 0.65821 0.57241 0.0
O303 O 0.43048 0.68089 0.56556 0.0
C304 C 0.36037 0.69272 0.51465 0.0
O305 O 0.34002 0.67017 0.51636 0.0
O306 O 0.40199 0.6928 0.51442 0.0
O307 O 0.40134 0.63327 0.48511 0.0
O308 O 0.49954 0.65024 0.51721 0.0
C309 C 0.51388 0.62694 0.5176 0.0
O310 O 0.48553 0.60764 0.51809 0.0
O311 O 0.40833 0.64086 0.55546 0.0
Mg312 Mg 0.67452 0.85404 0.27165 0.0
C313 C 0.67242 0.87557 0.21894 0.0
O314 O 0.71374 0.86907 0.22127 0.0
C315 C 0.6585 0.85215 0.32649 0.0
O316 O 0.67105 0.82837 0.32085 0.0
C317 C 0.60539 0.81478 0.27069 0.0
O318 O 0.58519 0.83728 0.27272 0.0
O319 O 0.64699 0.81482 0.26957 0.0
O320 O 0.64766 0.87338 0.23816 0.0
O321 O 0.74555 0.85764 0.27044 0.0
C322 C 0.77277 0.83902 0.26912 0.0
O323 O 0.75827 0.81488 0.26843 0.0
O324 O 0.65531 0.86885 0.30868 0.0
Mg325 Mg 0.61395 0.40489 0.26738 0.0
C326 C 0.61028 0.38137 0.21546 0.0
O327 O 0.57083 0.39118 0.21741 0.0
C328 C 0.62976 0.40713 0.32235 0.0
O329 O 0.62182 0.43144 0.31596 0.0
C330 C 0.63609 0.46469 0.26479 0.0
O331 O 0.59387 0.46885 0.26665 0.0
O332 O 0.65024 0.44142 0.26434 0.0
O333 O 0.63571 0.38242 0.23463 0.0
O334 O 0.5426 0.40627 0.26614 0.0
C335 C 0.52469 0.38493 0.27295 0.0
O336 O 0.55002 0.36566 0.2803 0.0
O337 O 0.63012 0.38987 0.30499 0.0
Mg338 Mg 0.66852 0.4036 1.01775 0.0
C339 C 0.6671 0.37856 0.06936 0.0
O340 O 0.70902 0.38358 0.06712 0.0
C341 C 0.65047 0.40586 0.96262 0.0
O342 O 0.65748 0.43039 0.96858 0.0
C343 C 0.59848 0.4427 0.01896 0.0
O344 O 0.57766 0.42035 1.01675 0.0
O345 O 0.64008 0.44244 0.02016 0.0
O346 O 0.64199 0.38298 0.05052 0.0
O347 O 0.73958 0.40189 0.01993 0.0
C348 C 0.76507 0.41729 1.00822 0.0
O349 O 0.7484 0.43663 0.99501 0.0
O350 O 0.65131 0.3888 0.9802 0.0
Mg351 Mg 0.61602 0.85048 0.01873 0.0
C352 C 0.61352 0.87085 0.07245 0.0
O353 O 0.5728 0.86306 0.06992 0.0
C354 C 0.6338 0.85653 0.96374 0.0
O355 O 0.62639 0.83135 0.96575 0.0
C356 C 0.68894 0.81217 1.01772 0.0
O357 O 0.71 0.83455 1.01808 0.0
O358 O 0.64733 0.81239 1.01789 0.0
O359 O 0.63894 0.86928 0.05348 0.0
O360 O 0.5449 0.84831 0.01917 0.0
C361 C 0.5241 0.86946 1.01539 0.0
O362 O 0.54641 0.89102 1.01145 0.0
O363 O 0.63316 0.87044 0.98371 0.0
Mg364 Mg 0.36489 0.1507 0.77002 0.0
C365 C 0.36229 0.12742 0.82238 0.0
O366 O 0.32049 0.13207 0.81889 0.0
C367 C 0.38662 0.14714 0.71576 0.0
O368 O 0.37709 0.17196 0.7185 0.0
C369 C 0.4348 0.19012 0.76908 0.0
O370 O 0.45569 0.16778 0.76794 0.0
O371 O 0.39324 0.18973 0.7703 0.0
O372 O 0.38868 0.1319 0.80433 0.0
O373 O 0.29371 0.14856 0.76917 0.0
C374 C 0.27783 0.12661 0.76246 0.0
O375 O 0.30486 0.10775 0.75643 0.0
O376 O 0.38609 0.13244 0.73519 0.0
Mg377 Mg 0.40883 0.60752 0.76841 0.0
C378 C 0.41548 0.62795 0.82116 0.0
O379 O 0.45185 0.61459 0.81906 0.0
C380 C 0.38893 0.6057 0.71398 0.0
O381 O 0.39154 0.58107 0.72074 0.0
C382 C 0.32844 0.5788 0.7753 0.0
O383 O 0.31852 0.60369 0.77675 0.0
O384 O 0.3683 0.57261 0.77193 0.0
O385 O 0.39095 0.63038 0.80173 0.0
O386 O 0.47997 0.60443 0.7686 0.0
C387 C 0.4978 0.62687 0.76701 0.0
O388 O 0.47229 0.64742 0.76551 0.0
O389 O 0.39326 0.62315 0.731 0.0
Mg390 Mg 0.36002 0.60111 0.01916 0.0
C391 C 0.36088 0.62585 0.96725 0.0
O392 O 0.31926 0.61988 0.96909 0.0
C393 C 0.37635 0.59951 0.0742 0.0
O394 O 0.36623 0.57528 0.06852 0.0
C395 C 0.43041 0.56211 1.01862 0.0
O396 O 0.45117 0.58446 0.02099 0.0
O397 O 0.38885 0.56235 1.01707 0.0
O398 O 0.38585 0.62182 0.98624 0.0
O399 O 0.28881 0.60241 1.01779 0.0
C400 C 0.2725 0.62497 0.02118 0.0
O401 O 0.29918 0.64471 0.02513 0.0
O402 O 0.37798 0.61627 0.05638 0.0
Mg403 Mg 0.4079 0.14608 0.02294 0.0
C404 C 0.41201 0.12677 0.96964 0.0
O405 O 0.45195 0.13563 0.97292 0.0
C406 C 0.3861 0.14261 0.07704 0.0
O407 O 0.39631 0.16734 0.07407 0.0
C408 C 0.33758 0.18505 0.02268 0.0
O409 O 0.31672 0.16263 0.02362 0.0
O410 O 0.37919 0.18487 0.02213 0.0
O411 O 0.38577 0.12723 0.98826 0.0
O412 O 0.47903 0.14451 0.02453 0.0
C413 C 0.49494 0.12165 0.02645 0.0
O414 O 0.46794 0.10168 0.02723 0.0
O415 O 0.3862 0.12778 0.05772 0.0
H416 H 0.21733 0.38022 0.16684 0.0
H417 H 0.0888 0.38129 0.20023 0.0
H418 H 0.0556 0.3832 0.15816 0.0
H419 H 0.06282 0.37915 0.1121 0.0
H420 H 0.19125 0.37663 0.07869 0.0
H421 H 0.22464 0.38109 0.12056 0.0
C422 C 0.18207 0.38127 0.16496 0.0
C423 C 0.15562 0.38022 0.18669 0.0
C424 C 0.16312 0.38191 0.14068 0.0
C425 C 0.10998 0.38187 0.18386 0.0
C426 C 0.09092 0.38287 0.15978 0.0
C427 C 0.09813 0.37998 0.1139 0.0
C428 C 0.12446 0.37716 0.09229 0.0
C429 C 0.11714 0.38206 0.13807 0.0
C430 C 0.17015 0.37857 0.09499 0.0
C431 C 0.18931 0.38101 0.11896 0.0
H432 H 0.22904 0.92747 0.11134 0.0
H433 H 0.12386 0.87467 0.09223 0.0
H434 H 0.10425 0.87132 0.13706 0.0
H435 H 0.11206 0.88764 0.18112 0.0
H436 H 0.21334 0.9436 0.19829 0.0
H437 H 0.23985 0.94127 0.15485 0.0
C438 C 0.20212 0.91494 0.11691 0.0
C439 C 0.17766 0.90158 0.09843 0.0
C440 C 0.19028 0.91378 0.14244 0.0
C441 C 0.14305 0.88533 0.10609 0.0
C442 C 0.13176 0.88345 0.1317 0.0
C443 C 0.14049 0.89879 0.17534 0.0
C444 C 0.16093 0.91572 0.19265 0.0
C445 C 0.15442 0.89817 0.14998 0.0
C446 C 0.19724 0.93049 0.1851 0.0
C447 C 0.21228 0.92923 0.16031 0.0
H448 H 0.80858 0.6208 0.863 0.0
H449 H 0.93697 0.62055 0.82946 0.0
H450 H 0.97036 0.61829 0.8715 0.0
H451 H 0.96316 0.62197 0.91768 0.0
H452 H 0.83466 0.62324 0.9511 0.0
H453 H 0.80135 0.61922 0.90921 0.0
C454 C 0.84386 0.61983 0.86484 0.0
C455 C 0.87022 0.62126 0.84311 0.0
C456 C 0.86287 0.61897 0.88908 0.0
C457 C 0.91587 0.61964 0.84585 0.0
C458 C 0.93502 0.61849 0.86991 0.0
C459 C 0.92787 0.621 0.91585 0.0
C460 C 0.90147 0.62334 0.93749 0.0
C461 C 0.90886 0.61903 0.89166 0.0
C462 C 0.8558 0.62169 0.93478 0.0
C463 C 0.83668 0.61948 0.9108 0.0
H464 H 0.9367 0.13509 0.92983 0.0
H465 H 0.79991 0.11738 0.94028 0.0
H466 H 0.78871 0.1168 0.89462 0.0
H467 H 0.81929 0.11624 0.85172 0.0
H468 H 0.95554 0.13496 0.84095 0.0
H469 H 0.96506 0.14062 0.88652 0.0
C470 C 0.90432 0.1315 0.92213 0.0
C471 C 0.86946 0.12586 0.93854 0.0
C472 C 0.89794 0.13121 0.8957 0.0
C473 C 0.82754 0.1216 0.92818 0.0
C474 C 0.82103 0.12117 0.902 0.0
C475 C 0.85089 0.122 0.8593 0.0
C476 C 0.88671 0.12478 0.84294 0.0
C477 C 0.85624 0.12517 0.88558 0.0
C478 C 0.92734 0.13259 0.85307 0.0
C479 C 0.93294 0.13568 0.87919 0.0
H480 H 0.21326 0.87573 0.6736 0.0
H481 H 0.08179 0.87241 0.70283 0.0
H482 H 0.05239 0.87562 0.65993 0.0
H483 H 0.0641 0.87394 0.61408 0.0
H484 H 0.19558 0.87597 0.58477 0.0
H485 H 0.22475 0.87905 0.62776 0.0
C486 C 0.17816 0.8761 0.67064 0.0
C487 C 0.14982 0.87339 0.69139 0.0
C488 C 0.16143 0.87751 0.64588 0.0
C489 C 0.10441 0.87422 0.68721 0.0
C490 C 0.08752 0.87597 0.66265 0.0
C491 C 0.09912 0.87544 0.61704 0.0
C492 C 0.1276 0.87429 0.59625 0.0
C493 C 0.11574 0.87677 0.64183 0.0
C494 C 0.17288 0.87658 0.60044 0.0
C495 C 0.18964 0.87826 0.62504 0.0
H496 H 0.21255 0.35936 0.61631 0.0
H497 H 0.08274 0.37167 0.58618 0.0
H498 H 0.05303 0.37155 0.62895 0.0
H499 H 0.06528 0.37388 0.6748 0.0
H500 H 0.19521 0.36276 0.70509 0.0
H501 H 0.22329 0.35604 0.66237 0.0
C502 C 0.17765 0.36158 0.61904 0.0
C503 C 0.15007 0.36598 0.59804 0.0
C504 C 0.16081 0.36191 0.64375 0.0
C505 C 0.10484 0.36848 0.60196 0.0
C506 C 0.0878 0.36852 0.62646 0.0
C507 C 0.09964 0.36956 0.67212 0.0
C508 C 0.12821 0.36927 0.69309 0.0
C509 C 0.11569 0.36618 0.64749 0.0
C510 C 0.1725 0.36326 0.6893 0.0
C511 C 0.18865 0.35956 0.66484 0.0
H512 H 0.81816 0.12921 0.36631 0.0
H513 H 0.95064 0.1244 0.33893 0.0
H514 H 0.97763 0.12057 0.38237 0.0
H515 H 0.96435 0.12372 0.42804 0.0
H516 H 0.83215 0.12957 0.45558 0.0
H517 H 0.80431 0.12739 0.41214 0.0
C518 C 0.85292 0.12697 0.36979 0.0
C519 C 0.88237 0.12748 0.34935 0.0
C520 C 0.86829 0.12509 0.39487 0.0
C521 C 0.92723 0.12423 0.35425 0.0
C522 C 0.94273 0.12213 0.37912 0.0
C523 C 0.92938 0.12412 0.42461 0.0
C524 C 0.90043 0.12717 0.44506 0.0
C525 C 0.91367 0.12332 0.39958 0.0
C526 C 0.8552 0.12731 0.44024 0.0
C527 C 0.83927 0.12624 0.41536 0.0
H528 H 0.9676 0.62328 0.36676 0.0
H529 H 0.83682 0.63113 0.33664 0.0
H530 H 0.80799 0.63484 0.37949 0.0
H531 H 0.81884 0.63018 0.42532 0.0
H532 H 0.94934 0.62116 0.45548 0.0
H533 H 0.97935 0.62401 0.4128 0.0
C534 C 0.93286 0.6262 0.36952 0.0
C535 C 0.90436 0.62648 0.3485 0.0
C536 C 0.91638 0.62792 0.39424 0.0
C537 C 0.8595 0.63063 0.35245 0.0
C538 C 0.84293 0.63266 0.37698 0.0
C539 C 0.85392 0.62925 0.42262 0.0
C540 C 0.88171 0.62503 0.44355 0.0
C541 C 0.8709 0.63045 0.398 0.0
C542 C 0.92714 0.62424 0.43973 0.0
C543 C 0.94433 0.62573 0.41529 0.0
H544 H 0.5689 0.38431 0.61469 0.0
H545 H 0.69831 0.37941 0.58284 0.0
H546 H 0.73017 0.37999 0.62534 0.0
H547 H 0.72078 0.3766 0.67142 0.0
H548 H 0.59132 0.38067 0.70328 0.0
H549 H 0.56012 0.386 0.66091 0.0
C550 C 0.60413 0.38378 0.61699 0.0
C551 C 0.6311 0.38146 0.59554 0.0
C552 C 0.62224 0.38373 0.64152 0.0
C553 C 0.67671 0.38108 0.59894 0.0
C554 C 0.69497 0.38127 0.62328 0.0
C555 C 0.68578 0.37903 0.66916 0.0
C556 C 0.65841 0.37786 0.69052 0.0
C557 C 0.66798 0.38176 0.6447 0.0
C558 C 0.61318 0.38136 0.68721 0.0
C559 C 0.59527 0.38429 0.66295 0.0
H560 H 0.67029 0.87919 0.68941 0.0
H561 H 0.53394 0.88999 0.67096 0.0
H562 H 0.55044 0.88731 0.62594 0.0
H563 H 0.60454 0.88705 0.5917 0.0
H564 H 0.74119 0.8777 0.61012 0.0
H565 H 0.72352 0.87428 0.65499 0.0
C566 C 0.64409 0.88049 0.67557 0.0
C567 C 0.60104 0.88512 0.68362 0.0
C568 C 0.65388 0.87939 0.64956 0.0
C569 C 0.56748 0.88671 0.66535 0.0
C570 C 0.57686 0.88521 0.63953 0.0
C571 C 0.63037 0.88375 0.60546 0.0
C572 C 0.67416 0.88294 0.59752 0.0
C573 C 0.6201 0.88233 0.63138 0.0
C574 C 0.7072 0.87865 0.61568 0.0
C575 C 0.69716 0.87676 0.64141 0.0
H576 H 0.31438 0.62951 0.36451 0.0
H577 H 0.44377 0.62841 0.33229 0.0
H578 H 0.47565 0.62383 0.37454 0.0
H579 H 0.4672 0.62553 0.42074 0.0
H580 H 0.33795 0.62732 0.45307 0.0
H581 H 0.30566 0.62585 0.41067 0.0
C582 C 0.34954 0.62787 0.36667 0.0
C583 C 0.37664 0.62969 0.34524 0.0
C584 C 0.36772 0.62555 0.39108 0.0
C585 C 0.4221 0.6272 0.34841 0.0
C586 C 0.4404 0.6247 0.37261 0.0
C587 C 0.43193 0.62519 0.41856 0.0
C588 C 0.40506 0.6269 0.44008 0.0
C589 C 0.41359 0.62469 0.39411 0.0
C590 C 0.35944 0.6261 0.43688 0.0
C591 C 0.34093 0.62542 0.4126 0.0
H592 H 0.47872 0.12835 0.4439 0.0
H593 H 0.33894 0.13728 0.43675 0.0
H594 H 0.34519 0.13812 0.3907 0.0
H595 H 0.38934 0.13082 0.35249 0.0
H596 H 0.52879 0.12047 0.3601 0.0
H597 H 0.5236 0.12592 0.40578 0.0
C598 C 0.44967 0.13095 0.43232 0.0
C599 C 0.40841 0.13235 0.4438 0.0
C600 C 0.45335 0.13088 0.40583 0.0
C601 C 0.37115 0.13589 0.42844 0.0
C602 C 0.37464 0.13629 0.40206 0.0
C603 C 0.41866 0.13023 0.3641 0.0
C604 C 0.45926 0.12486 0.35291 0.0
C605 C 0.41541 0.13293 0.39053 0.0
C606 C 0.49699 0.12424 0.36823 0.0
C607 C 0.49411 0.12734 0.39441 0.0
H608 H 0.7171 0.88279 0.17512 0.0
H609 H 0.58618 0.8792 0.20506 0.0
H610 H 0.55623 0.88 0.16207 0.0
H611 H 0.56755 0.87689 0.11609 0.0
H612 H 0.69865 0.8796 0.0863 0.0
H613 H 0.72807 0.88421 0.12913 0.0
C614 C 0.68197 0.88255 0.1723 0.0
C615 C 0.65399 0.88062 0.19334 0.0
C616 C 0.66497 0.88263 0.14752 0.0
C617 C 0.60854 0.8806 0.18927 0.0
C618 C 0.59136 0.88092 0.16465 0.0
C619 C 0.60254 0.87882 0.1189 0.0
C620 C 0.63084 0.87755 0.09796 0.0
C621 C 0.61932 0.88117 0.14364 0.0
C622 C 0.67606 0.88037 0.10201 0.0
C623 C 0.69296 0.88292 0.12654 0.0
H624 H 0.71194 0.36875 0.113 0.0
H625 H 0.58094 0.37581 0.08302 0.0
H626 H 0.55146 0.37414 0.12588 0.0
H627 H 0.56349 0.37606 0.17185 0.0
H628 H 0.69458 0.3702 0.20191 0.0
H629 H 0.72326 0.36566 0.15903 0.0
C630 C 0.67687 0.36952 0.11577 0.0
C631 C 0.64878 0.37277 0.09476 0.0
C632 C 0.66014 0.36897 0.14053 0.0
C633 C 0.6034 0.37345 0.09878 0.0
C634 C 0.58649 0.37262 0.12333 0.0
C635 C 0.5983 0.37339 0.1691 0.0
C636 C 0.62688 0.37385 0.19011 0.0
C637 C 0.61465 0.37122 0.14436 0.0
C638 C 0.67182 0.37006 0.18613 0.0
C639 C 0.68828 0.36759 0.16158 0.0
H640 H 0.31476 0.11803 0.86485 0.0
H641 H 0.44749 0.1237 0.83792 0.0
H642 H 0.47475 0.12105 0.88135 0.0
H643 H 0.46058 0.12217 0.927 0.0
H644 H 0.32785 0.1176 0.95405 0.0
H645 H 0.30103 0.11443 0.91051 0.0
C646 C 0.34969 0.11831 0.86842 0.0
C647 C 0.37897 0.12144 0.84814 0.0
C648 C 0.36517 0.11717 0.89349 0.0
C649 C 0.42415 0.12149 0.85314 0.0
C650 C 0.43981 0.12007 0.87801 0.0
C651 C 0.4258 0.12013 0.92343 0.0
C652 C 0.39625 0.1205 0.94377 0.0
C653 C 0.41055 0.1187 0.89834 0.0
C654 C 0.35134 0.11751 0.93877 0.0
C655 C 0.33594 0.11581 0.91385 0.0
H656 H 0.46327 0.63045 0.86453 0.0
H657 H 0.33252 0.64134 0.83541 0.0
H658 H 0.3047 0.64474 0.8786 0.0
H659 H 0.31625 0.63893 0.9244 0.0
H660 H 0.44695 0.62726 0.95338 0.0
H661 H 0.47604 0.63019 0.91049 0.0
C662 C 0.42877 0.634 0.8676 0.0
C663 C 0.39994 0.63527 0.84675 0.0
C664 C 0.41291 0.63556 0.89248 0.0
C665 C 0.35544 0.64022 0.85108 0.0
C666 C 0.33945 0.64199 0.8758 0.0
C667 C 0.3512 0.63743 0.9214 0.0
C668 C 0.37928 0.63248 0.94209 0.0
C669 C 0.36768 0.63881 0.89663 0.0
C670 C 0.42453 0.63094 0.93785 0.0
C671 C 0.44119 0.63249 0.91328 0.0
H672 H 0.02984 0.1985 0.26805 0.0
H673 H 0.90894 0.24176 0.26834 0.0
H674 H 0.94992 0.28275 0.26713 0.0
H675 H 0.01989 0.30626 0.26596 0.0
H676 H 0.14082 0.26303 0.26566 0.0
H677 H 0.09985 0.22202 0.26689 0.0
C678 C 1.01235 0.21688 0.26786 0.0
C679 C 0.96627 0.21699 0.2683 0.0
C680 C 0.03612 0.24037 0.26714 0.0
C681 C 0.94431 0.24104 0.26803 0.0
C682 C 0.96774 0.26451 0.26733 0.0
C683 C 0.0374 0.28789 0.26615 0.0
C684 C 0.08347 0.28778 0.2657 0.0
C685 C 1.01363 0.2644 0.26687 0.0
C686 C 0.10545 0.26374 0.26597 0.0
C687 C 0.08202 0.24027 0.26669 0.0
H688 H 0.2683 0.95448 0.27666 0.0
H689 H 0.15406 0.00351 0.28104 0.0
H690 H 0.20079 0.04229 0.2826 0.0
H691 H 0.2739 0.06222 0.28182 0.0
H692 H 0.38798 0.01311 0.27679 0.0
H693 H 0.3413 0.97434 0.27639 0.0
C694 C 0.2535 0.97362 0.27806 0.0
C695 C 0.20763 0.97604 0.27873 0.0
C696 C 0.28054 0.99581 0.27877 0.0
C697 C 0.18919 1.00105 0.28049 0.0
C698 C 0.21592 0.02323 0.28136 0.0
C699 C 0.28866 0.04305 0.28072 0.0
C700 C 0.33449 0.04063 0.27933 0.0
C701 C 0.26161 0.02084 0.28037 0.0
C702 C 0.35289 0.01559 0.27787 0.0
C703 C 0.32619 0.99339 0.27763 0.0
H704 H 1.00958 0.95308 1.01447 0.0
H705 H 0.12546 1.00124 1.01791 0.0
H706 H 0.08014 0.04041 1.01862 0.0
H707 H 1.0078 0.06096 1.01864 0.0
H708 H 0.89184 0.0129 1.01502 0.0
H709 H 0.93715 0.97369 1.014 0.0
C710 C 0.02502 0.97213 1.01536 0.0
C711 C 0.07095 0.97416 1.01618 0.0
C712 C 0.99875 0.99459 1.01575 0.0
C713 C 0.09025 0.99906 1.01726 0.0
C714 C 0.06433 0.02149 1.01769 0.0
C715 C 0.99233 0.04192 1.01763 0.0
C716 C 0.94639 0.03992 1.01696 0.0
C717 C 0.01857 0.01948 1.01701 0.0
C718 C 0.92706 0.01505 1.01557 0.0
C719 C 0.95297 0.99261 1.01499 0.0
H720 H 0.24936 0.19086 0.02424 0.0
H721 H 0.36956 0.23497 0.02028 0.0
H722 H 0.32801 0.27563 0.01937 0.0
H723 H 0.25773 0.29857 0.01937 0.0
H724 H 0.13749 0.2545 0.02328 0.0
H725 H 0.17906 0.21383 0.02458 0.0
C726 C 0.26657 0.20935 0.02318 0.0
C727 C 0.3126 0.20982 0.02229 0.0
C728 C 0.24247 0.23264 0.02266 0.0
C729 C 0.33422 0.234 0.02097 0.0
C730 C 0.31046 0.25727 0.02045 0.0
C731 C 0.2405 0.28009 0.02054 0.0
C732 C 0.19447 0.27963 0.02121 0.0
C733 C 0.2646 0.25681 0.02124 0.0
C734 C 0.17284 0.25546 0.02275 0.0
C735 C 0.19661 0.23219 0.02347 0.0
H736 H 1.00556 0.69411 0.77197 0.0
H737 H 0.88703 0.73963 0.77106 0.0
H738 H 0.93023 0.77986 0.77161 0.0
H739 H 1.00162 0.80202 0.77168 0.0
H740 H 0.11994 0.75626 0.77232 0.0
H741 H 0.07668 0.71616 0.77256 0.0
C742 C 0.98905 0.71281 0.77194 0.0
C743 C 0.94304 0.71381 0.77144 0.0
C744 C 1.01406 0.73581 0.77217 0.0
C745 C 0.92235 0.73826 0.77144 0.0
C746 C 0.94705 0.76128 0.77174 0.0
C747 C 0.01802 0.78329 0.77191 0.0
C748 C 0.06405 0.7822 0.77193 0.0
C749 C 0.99293 0.76028 0.77199 0.0
C750 C 0.08463 0.75772 0.77226 0.0
C751 C 0.0599 0.73475 0.7724 0.0
H752 H 0.77002 0.94807 0.77644 0.0
H753 H 0.65489 0.99287 0.75784 0.0
H754 H 0.69908 0.03252 0.75543 0.0
H755 H 0.77023 0.05435 0.75796 0.0
H756 H 0.88557 0.00996 0.77693 0.0
H757 H 0.84133 0.97021 0.77985 0.0
C758 C 0.75452 0.9665 0.7719 0.0
C759 C 0.70912 0.96743 0.76725 0.0
C760 C 0.78015 0.98928 0.77056 0.0
C761 C 0.68968 0.99154 0.76149 0.0
C762 C 0.71496 0.01424 0.76008 0.0
C763 C 0.78583 0.036 0.76273 0.0
C764 C 0.83127 0.03515 0.76711 0.0
C765 C 0.76021 0.01331 0.76446 0.0
C766 C 0.85072 0.01119 0.77344 0.0
C767 C 0.82542 0.98845 0.77509 0.0
H768 H 0.77727 0.80581 1.01765 0.0
H769 H 0.65606 0.76247 1.01644 0.0
H770 H 0.69669 0.72153 1.01553 0.0
H771 H 0.76638 0.69805 1.01517 0.0
H772 H 0.88774 0.7412 1.01642 0.0
H773 H 0.84716 0.78224 1.01721 0.0
C774 C 0.75966 0.78742 1.01718 0.0
C775 C 0.71359 0.78727 1.01713 0.0
C776 C 0.78325 0.76392 1.01667 0.0
C777 C 0.69144 0.76322 1.01651 0.0
C778 C 0.71467 0.73977 1.01599 0.0
C779 C 0.78407 0.71641 1.01561 0.0
C780 C 0.83013 0.71649 1.01573 0.0
C781 C 0.76055 0.7399 1.01608 0.0
C782 C 0.85236 0.74052 1.0163 0.0
C783 C 0.82915 0.76401 1.01676 0.0
H784 H 0.33198 0.52681 0.76333 0.0
H785 H 0.24461 0.58672 0.78995 0.0
H786 H 0.18431 0.5557 0.79042 0.0
H787 H 0.15566 0.51169 0.78296 0.0
H788 H 0.24227 0.45155 0.75605 0.0
H789 H 0.30307 0.48244 0.75591 0.0
C790 C 0.29982 0.533 0.76938 0.0
C791 C 0.29297 0.55908 0.77659 0.0
C792 C 0.26486 0.51504 0.76941 0.0
C793 C 0.25093 0.5668 0.78422 0.0
C794 C 0.21627 0.54907 0.78449 0.0
C795 C 0.18777 0.50533 0.77698 0.0
C796 C 0.19419 0.47931 0.76951 0.0
C797 C 0.22275 0.52318 0.777 0.0
C798 C 0.2362 0.47146 0.76189 0.0
C799 C 0.27113 0.48911 0.76184 0.0
H800 H 0.01843 0.54792 0.51857 0.0
H801 H 0.89843 0.50356 0.51466 0.0
H802 H 0.94022 0.46294 0.51457 0.0
H803 H 1.01068 0.44011 0.51606 0.0
H804 H 0.13057 0.48457 0.52017 0.0
H805 H 0.08879 0.52514 0.51972 0.0
C806 C 1.0013 0.52939 0.51765 0.0
C807 C 0.95527 0.52883 0.51663 0.0
C808 C 0.02551 0.50615 0.51768 0.0
C809 C 0.93378 0.5046 0.51545 0.0
C810 C 0.95767 0.48136 0.51542 0.0
C811 C 0.02777 0.45866 0.51684 0.0
C812 C 0.07378 0.45925 0.51818 0.0
C813 C 1.00353 0.48191 0.5166 0.0
C814 C 0.09524 0.4835 0.51916 0.0
C815 C 0.07136 0.50673 0.5189 0.0
H816 H 0.27215 0.69739 0.51477 0.0
H817 H 0.3908 0.7431 0.51287 0.0
H818 H 0.3477 0.78327 0.5127 0.0
H819 H 0.27638 0.80527 0.51372 0.0
H820 H 0.15801 0.75925 0.51583 0.0
H821 H 0.20116 0.71925 0.51529 0.0
C822 C 0.28872 0.71611 0.51427 0.0
C823 C 0.33472 0.7172 0.51387 0.0
C824 C 0.26378 0.73905 0.51426 0.0
C825 C 0.35548 0.74168 0.51319 0.0
C826 C 0.33084 0.76465 0.51312 0.0
C827 C 0.25995 0.7865 0.51403 0.0
C828 C 0.21395 0.78531 0.51487 0.0
C829 C 0.28498 0.76355 0.51375 0.0
C830 C 0.19331 0.76078 0.51523 0.0
C831 C 0.21797 0.73788 0.51492 0.0
H832 H 0.74587 0.56936 0.26633 0.0
H833 H 0.85276 0.51453 0.26665 0.0
H834 H 0.80075 0.47823 0.2653 0.0
H835 H 0.72506 0.4621 0.2645 0.0
H836 H 0.61826 0.51702 0.26457 0.0
H837 H 0.67029 0.55327 0.26522 0.0
C838 C 0.75792 0.54948 0.26608 0.0
C839 C 0.80327 0.54472 0.26663 0.0
C840 C 0.72784 0.52872 0.26536 0.0
C841 C 0.81811 0.5188 0.26628 0.0
C842 C 0.78836 0.49802 0.2655 0.0
C843 C 0.71305 0.48199 0.26458 0.0
C844 C 0.66766 0.48677 0.26448 0.0
C845 C 0.74316 0.50275 0.26509 0.0
C846 C 0.65289 0.51271 0.26464 0.0
C847 C 0.68266 0.53347 0.26503 0.0
H848 H 0.76685 0.3093 0.51321 0.0
H849 H 0.64875 0.2645 0.52432 0.0
H850 H 0.69145 0.22427 0.52539 0.0
H851 H 0.76209 0.20194 0.52341 0.0
H852 H 0.88029 0.24665 0.51241 0.0
H853 H 0.83755 0.2869 0.51101 0.0
C854 C 0.75035 0.29075 0.51587 0.0
C855 C 0.70459 0.28996 0.51872 0.0
C856 C 0.77509 0.26771 0.51647 0.0
C857 C 0.68387 0.26571 0.52211 0.0
C858 C 0.70828 0.24269 0.52272 0.0
C859 C 0.77862 0.22046 0.52067 0.0
C860 C 0.82442 0.22124 0.51803 0.0
C861 C 0.75388 0.24348 0.51994 0.0
C862 C 0.84514 0.24546 0.51449 0.0
C863 C 0.82071 0.26848 0.5137 0.0
H864 H 0.5228 0.1962 0.76576 0.0
H865 H 0.40294 0.24001 0.77161 0.0
H866 H 0.44456 0.28081 0.77123 0.0
H867 H 0.51495 0.30397 0.76953 0.0
H868 H 0.63467 0.26001 0.76369 0.0
H869 H 0.59296 0.2193 0.76373 0.0
C870 C 0.50566 0.21465 0.76695 0.0
C871 C 0.45973 0.21499 0.76876 0.0
C872 C 0.52978 0.23801 0.76671 0.0
C873 C 0.43821 0.23913 0.77024 0.0
C874 C 0.46201 0.26248 0.77001 0.0
C875 C 0.532 0.2855 0.76823 0.0
C876 C 0.57797 0.2851 0.76662 0.0
C877 C 0.5078 0.26214 0.7683 0.0
C878 C 0.59939 0.26094 0.76494 0.0
C879 C 0.57554 0.23763 0.76498 0.0
H880 H 0.51239 0.06142 0.52966 0.0
H881 H 0.39699 0.0165 0.51125 0.0
H882 H 0.44101 0.97679 0.50925 0.0
H883 H 0.51226 0.95495 0.51252 0.0
H884 H 0.62764 1.00015 0.53039 0.0
H885 H 0.58345 0.03969 0.53279 0.0
C886 C 0.49673 0.04295 0.52526 0.0
C887 C 0.45136 0.04197 0.52065 0.0
C888 C 0.52225 0.02026 0.52401 0.0
C889 C 0.43179 0.01785 0.51488 0.0
C890 C 0.45697 0.99513 0.51373 0.0
C891 C 0.52782 0.97343 0.51696 0.0
C892 C 0.57328 0.97453 0.52129 0.0
C893 C 0.50223 0.99612 0.51822 0.0
C894 C 0.59279 0.9987 0.52696 0.0
C895 C 0.56752 0.02133 0.52835 0.0
H896 H 0.51719 0.80981 0.27309 0.0
H897 H 0.63541 0.76452 0.2668 0.0
H898 H 0.59213 0.72431 0.26581 0.0
H899 H 0.52075 0.70211 0.26669 0.0
H900 H 0.40277 0.74766 0.27302 0.0
H901 H 0.44612 0.78773 0.27405 0.0
C902 C 0.53363 0.79117 0.2715 0.0
C903 C 0.57958 0.79023 0.27 0.0
C904 C 0.50857 0.76818 0.27096 0.0
C905 C 0.60015 0.76585 0.26796 0.0
C906 C 0.5754 0.74284 0.2674 0.0
C907 C 0.50444 0.72079 0.26831 0.0
C908 C 0.45846 0.72182 0.26978 0.0
C909 C 0.52959 0.74378 0.26888 0.0
C910 C 0.43802 0.74624 0.27187 0.0
C911 C 0.46281 0.76918 0.27245 0.0
H912 H 0.51035 0.44857 1.01605 0.0
H913 H 0.63036 0.49256 0.0229 0.0
H914 H 0.5888 0.53324 0.02331 0.0
H915 H 0.51856 0.55625 0.02166 0.0
H916 H 0.39857 0.51224 1.01475 0.0
H917 H 0.44013 0.47157 1.0144 0.0
C918 C 0.52752 0.46703 1.01766 0.0
C919 C 0.5735 0.46746 0.01946 0.0
C920 C 0.50343 0.49033 1.01784 0.0
C921 C 0.59506 0.49162 0.02151 0.0
C922 C 0.5713 0.5149 0.02173 0.0
C923 C 0.50139 0.53778 0.02006 0.0
C924 C 0.45542 0.53735 1.01822 0.0
C925 C 0.52549 0.51448 0.01989 0.0
C926 C 0.43387 0.51319 1.01617 0.0
C927 C 0.45763 0.48991 1.01599 0.0
H928 H 0.14766 0.41884 0.42153 0.0
H929 H 0.14582 0.34069 0.45211 0.0
H930 H 0.14405 0.32274 0.40926 0.0
H931 H 0.14806 0.32922 0.36329 0.0
H932 H 0.15084 0.40739 0.33275 0.0
H933 H 0.14688 0.42535 0.37551 0.0
C934 C 0.14654 0.39787 0.41887 0.0
C935 C 0.14727 0.38113 0.44002 0.0
C936 C 0.14588 0.38769 0.3942 0.0
C937 C 0.14542 0.35402 0.43618 0.0
C938 C 0.14453 0.34374 0.41168 0.0
C939 C 0.14748 0.3502 0.36593 0.0
C940 C 0.15015 0.36693 0.34483 0.0
C941 C 0.14554 0.36039 0.39057 0.0
C942 C 0.14898 0.39406 0.34863 0.0
C943 C 0.14683 0.40435 0.3731 0.0
H944 H 0.13703 0.92667 0.36754 0.0
H945 H 0.13302 0.85194 0.32995 0.0
H946 H 0.13892 0.82978 0.37087 0.0
H947 H 0.13934 0.83178 0.41736 0.0
H948 H 0.14209 0.90673 0.45469 0.0
H949 H 0.14291 0.92868 0.41368 0.0
C950 C 0.13774 0.90552 0.36824 0.0
C951 C 0.13406 0.89096 0.34577 0.0
C952 C 0.14074 0.89297 0.39176 0.0
C953 C 0.13562 0.86359 0.34699 0.0
C954 C 0.13886 0.85092 0.37038 0.0
C955 C 0.14053 0.85292 0.41655 0.0
C956 C 0.14016 0.8676 0.43907 0.0
C957 C 0.14054 0.86543 0.3929 0.0
C958 C 0.1421 0.89496 0.43766 0.0
C959 C 0.14246 0.90753 0.41422 0.0
H960 H 0.13831 0.83016 0.87 0.0
H961 H 0.13601 0.90457 0.83157 0.0
H962 H 0.13339 0.92706 0.87225 0.0
H963 H 0.13746 0.92568 0.91853 0.0
H964 H 0.14158 0.85138 0.95708 0.0
H965 H 0.13731 0.82874 0.91644 0.0
C966 C 0.13685 0.85129 0.87049 0.0
C967 C 0.1378 0.86566 0.84777 0.0
C968 C 0.13584 0.86411 0.89394 0.0
C969 C 0.13555 0.89302 0.84877 0.0
C970 C 0.13413 0.90591 0.87202 0.0
C971 C 0.13702 0.90453 0.9181 0.0
C972 C 0.14029 0.89025 0.9408 0.0
C973 C 0.13515 0.89166 0.89471 0.0
C974 C 0.13931 0.86285 0.93988 0.0
C975 C 0.137 0.84989 0.91665 0.0
H976 H 0.13011 0.35357 0.84364 0.0
H977 H 0.14749 0.43408 0.86554 0.0
H978 H 0.14546 0.42176 0.91009 0.0
H979 H 0.13437 0.38856 0.94294 0.0
H980 H 0.11558 0.30813 0.92114 0.0
H981 H 0.12279 0.32 0.87663 0.0
C982 C 0.13391 0.36837 0.85815 0.0
C983 C 0.13867 0.39471 0.85122 0.0
C984 C 0.13222 0.36121 0.88384 0.0
C985 C 0.14351 0.41366 0.8703 0.0
C986 C 0.14232 0.40665 0.89584 0.0
C987 C 0.13222 0.37359 0.92848 0.0
C988 C 0.12415 0.34754 0.93541 0.0
C989 C 0.13599 0.38055 0.90284 0.0
C990 C 0.12152 0.32839 0.91638 0.0
C991 C 0.12562 0.33513 0.89087 0.0
H992 H 0.87985 0.60417 0.69285 0.0
H993 H 0.87622 0.68538 0.67116 0.0
H994 H 0.88294 0.67331 0.62671 0.0
H995 H 0.88429 0.63963 0.59371 0.0
H996 H 0.88622 0.55839 0.61535 0.0
H997 H 0.88614 0.57059 0.65996 0.0
C998 C 0.88098 0.61924 0.67843 0.0
C999 C 0.87712 0.64561 0.68535 0.0
C1000 C 0.88435 0.61218 0.65281 0.0
C1001 C 0.87878 0.66489 0.66639 0.0
C1002 C 0.8826 0.65803 0.64092 0.0
C1003 C 0.88525 0.6246 0.60818 0.0
C1004 C 0.88489 0.59816 0.60116 0.0
C1005 C 0.88458 0.63172 0.63386 0.0
C1006 C 0.88615 0.57893 0.62018 0.0
C1007 C 0.88605 0.58586 0.64575 0.0
H1008 H 0.88294 0.09811 0.6864 0.0
H1009 H 0.92678 0.17806 0.69201 0.0
H1010 H 0.91918 0.1831 0.64621 0.0
H1011 H 0.90546 0.16401 0.60449 0.0
H1012 H 0.8649 0.08349 0.59836 0.0
H1013 H 0.86561 0.07957 0.64455 0.0
C1014 C 0.89031 0.11676 0.67767 0.0
C1015 C 0.90561 0.13766 0.69267 0.0
C1016 C 0.88677 0.11936 0.65123 0.0
C1017 C 0.91513 0.16163 0.68097 0.0
C1018 C 0.91088 0.16451 0.65475 0.0
C1019 C 0.89638 0.14561 0.61318 0.0
C1020 C 0.88541 0.124 0.59788 0.0
C1021 C 0.89759 0.14337 0.63967 0.0
C1022 C 0.87366 0.1004 0.6096 0.0
C1023 C 0.87411 0.09813 0.63604 0.0
H1024 H 0.89174 0.17377 0.17003 0.0
H1025 H 0.90133 0.09654 0.20229 0.0
H1026 H 0.90076 0.07758 0.15986 0.0
H1027 H 0.89132 0.08271 0.11399 0.0
H1028 H 0.88022 0.15982 0.08165 0.0
H1029 H 0.88807 0.17907 0.12381 0.0
C1030 C 0.89415 0.15279 0.16782 0.0
C1031 C 0.89612 0.13659 0.18938 0.0
C1032 C 0.89331 0.14201 0.14337 0.0
C1033 C 0.89961 0.10947 0.18608 0.0
C1034 C 0.89915 0.09861 0.16181 0.0
C1035 C 0.89101 0.10376 0.11608 0.0
C1036 C 0.88471 0.11979 0.09468 0.0
C1037 C 0.89503 0.11465 0.14037 0.0
C1038 C 0.88488 0.14701 0.09777 0.0
C1039 C 0.8892 0.15803 0.1219 0.0
H1040 H 0.89941 0.67291 0.11492 0.0
H1041 H 0.89009 0.59603 0.08192 0.0
H1042 H 0.88428 0.5768 0.1241 0.0
H1043 H 0.8867 0.58156 0.17026 0.0
H1044 H 0.89711 0.65834 0.20336 0.0
H1045 H 0.89729 0.67788 0.16113 0.0
C1046 C 0.89579 0.65196 0.11691 0.0
C1047 C 0.89558 0.63592 0.09527 0.0
C1048 C 0.89282 0.64101 0.14122 0.0
C1049 C 0.89051 0.60883 0.09823 0.0
C1050 C 0.88728 0.5978 0.12236 0.0
C1051 C 0.88869 0.6026 0.16829 0.0
C1052 C 0.89227 0.61845 0.18996 0.0
C1053 C 0.88916 0.61367 0.14398 0.0
C1054 C 0.89446 0.64567 0.18702 0.0
C1055 C 0.89468 0.65686 0.16286 0.0
H1056 H 0.65045 0.35691 0.9421 0.0
H1057 H 0.64089 0.43839 0.92215 0.0
H1058 H 0.64077 0.4272 0.87731 0.0
H1059 H 0.64808 0.3945 0.84351 0.0
H1060 H 0.65901 0.3131 0.86354 0.0
H1061 H 0.65368 0.32404 0.90829 0.0
C1062 C 0.64784 0.37219 0.92796 0.0
C1063 C 0.64597 0.39844 0.93557 0.0
C1064 C 0.64833 0.36567 0.90207 0.0
C1065 C 0.64266 0.41799 0.91691 0.0
C1066 C 0.64263 0.41164 0.89119 0.0
C1067 C 0.6489 0.37915 0.85765 0.0
C1068 C 0.65427 0.35305 0.85009 0.0
C1069 C 0.64621 0.38557 0.88351 0.0
C1070 C 0.65521 0.3334 0.86874 0.0
C1071 C 0.65216 0.33962 0.89441 0.0
H1072 H 0.63904 0.83165 0.91835 0.0
H1073 H 0.63914 0.90845 0.9519 0.0
H1074 H 0.64027 0.9282 0.90977 0.0
H1075 H 0.63644 0.92369 0.86357 0.0
H1076 H 0.63549 0.84696 0.82991 0.0
H1077 H 0.63985 0.82717 0.87201 0.0
C1078 C 0.63964 0.85272 0.9165 0.0
C1079 C 0.63865 0.86853 0.93832 0.0
C1080 C 0.63997 0.86396 0.8922 0.0
C1081 C 0.63977 0.8958 0.93548 0.0
C1082 C 0.6403 0.90711 0.91138 0.0
C1083 C 0.6375 0.90262 0.86538 0.0
C1084 C 0.63527 0.88684 0.84357 0.0
C1085 C 0.63966 0.89139 0.88963 0.0
C1086 C 0.63707 0.85959 0.84633 0.0
C1087 C 0.63942 0.84825 0.87042 0.0
H1088 H 0.65261 0.86467 0.4454 0.0
H1089 H 0.64168 0.9458 0.42438 0.0
H1090 H 0.63897 0.93388 0.37974 0.0
H1091 H 0.64506 0.90071 0.34634 0.0
H1092 H 0.65762 0.81965 0.36734 0.0
H1093 H 0.65402 0.83125 0.41201 0.0
C1094 C 0.64909 0.87971 0.43107 0.0
C1095 C 0.64769 0.90609 0.43829 0.0
C1096 C 0.64813 0.87276 0.40528 0.0
C1097 C 0.64317 0.92532 0.41942 0.0
C1098 C 0.64165 0.91855 0.39381 0.0
C1099 C 0.64653 0.88556 0.36068 0.0
C1100 C 0.65196 0.85939 0.35341 0.0
C1101 C 0.64495 0.89237 0.38647 0.0
C1102 C 0.65377 0.84001 0.37231 0.0
C1103 C 0.65174 0.8466 0.39794 0.0
H1104 H 0.63403 0.39808 0.44165 0.0
H1105 H 0.62366 0.31623 0.42333 0.0
H1106 H 0.62805 0.32634 0.37833 0.0
H1107 H 0.63039 0.35857 0.34382 0.0
H1108 H 0.63919 0.44048 0.36211 0.0
H1109 H 0.64018 0.43016 0.40716 0.0
C1110 C 0.63313 0.38245 0.42783 0.0
C1111 C 0.62821 0.35647 0.43594 0.0
C1112 C 0.63522 0.38838 0.40182 0.0
C1113 C 0.62712 0.33645 0.4177 0.0
C1114 C 0.62964 0.34219 0.39188 0.0
C1115 C 0.63302 0.37413 0.35765 0.0
C1116 C 0.63446 0.40024 0.34952 0.0
C1117 C 0.63302 0.36811 0.38367 0.0
C1118 C 0.63775 0.42017 0.36777 0.0
C1119 C 0.63829 0.41432 0.39361 0.0
H1120 H 0.38111 0.61241 0.1931 0.0
H1121 H 0.37919 0.69381 0.17205 0.0
H1122 H 0.38286 0.68204 0.12742 0.0
H1123 H 0.38202 0.64863 0.09404 0.0
H1124 H 0.38238 0.56723 0.11505 0.0
H1125 H 0.38427 0.57903 0.15974 0.0
C1126 C 0.38192 0.62757 0.17876 0.0
C1127 C 0.37957 0.65393 0.18599 0.0
C1128 C 0.38357 0.62069 0.15299 0.0
C1129 C 0.38066 0.67332 0.1671 0.0
C1130 C 0.38276 0.66664 0.1415 0.0
C1131 C 0.383 0.63348 0.10838 0.0
C1132 C 0.38177 0.6071 0.10113 0.0
C1133 C 0.38353 0.64038 0.13418 0.0
C1134 C 0.383 0.58772 0.12003 0.0
C1135 C 0.38405 0.59443 0.14566 0.0
H1136 H 0.38444 0.07979 0.17941 0.0
H1137 H 0.39592 0.15768 0.20985 0.0
H1138 H 0.38775 0.17593 0.16731 0.0
H1139 H 0.38441 0.16954 0.12129 0.0
H1140 H 0.37503 0.09154 0.09084 0.0
H1141 H 0.37493 0.07358 0.1337 0.0
C1142 C 0.3847 0.10079 0.17682 0.0
C1143 C 0.39131 0.11734 0.19777 0.0
C1144 C 0.38064 0.11111 0.1523 0.0
C1145 C 0.39108 0.14449 0.19406 0.0
C1146 C 0.38658 0.15493 0.16972 0.0
C1147 C 0.38187 0.14861 0.12399 0.0
C1148 C 0.38025 0.13189 0.10285 0.0
C1149 C 0.38244 0.13839 0.14866 0.0
C1150 C 0.37654 0.10485 0.10674 0.0
C1151 C 0.37662 0.09455 0.13126 0.0
H1152 H 0.39261 0.17383 0.67146 0.0
H1153 H 0.39302 0.09577 0.70233 0.0
H1154 H 0.39309 0.07765 0.65958 0.0
H1155 H 0.38672 0.08397 0.61371 0.0
H1156 H 0.38524 0.16193 0.58272 0.0
H1157 H 0.39228 0.18011 0.62535 0.0
C1158 C 0.39315 0.15284 0.66887 0.0
C1159 C 0.39231 0.13618 0.69008 0.0
C1160 C 0.39273 0.14255 0.64424 0.0
C1161 C 0.39349 0.10905 0.68636 0.0
C1162 C 0.39336 0.09866 0.66191 0.0
C1163 C 0.38829 0.10495 0.61623 0.0
C1164 C 0.38492 0.12158 0.59509 0.0
C1165 C 0.39197 0.11523 0.64075 0.0
C1166 C 0.38758 0.1487 0.59867 0.0
C1167 C 0.39147 0.15911 0.62305 0.0
H1168 H 0.40079 0.65331 0.69166 0.0
H1169 H 0.3706 0.57284 0.67485 0.0
H1170 H 0.37329 0.58209 0.6296 0.0
H1171 H 0.38908 0.61234 0.5946 0.0
H1172 H 0.42063 0.69262 0.61151 0.0
H1173 H 0.41236 0.68412 0.65662 0.0
C1174 C 0.39424 0.63788 0.67811 0.0
C1175 C 0.38578 0.61241 0.68671 0.0
C1176 C 0.39642 0.64322 0.65199 0.0
C1177 C 0.37749 0.59263 0.66882 0.0
C1178 C 0.37907 0.59787 0.64287 0.0
C1179 C 0.39377 0.62802 0.60813 0.0
C1180 C 0.4058 0.653 0.5996 0.0
C1181 C 0.38932 0.62298 0.63421 0.0
C1182 C 0.41166 0.67311 0.61747 0.0
C1183 C 0.40693 0.6683 0.64335 0.0
H1184 H 0.31907 0.38201 0.25834 0.0
H1185 H 0.33685 0.30751 0.29518 0.0
H1186 H 0.41549 0.31518 0.29758 0.0
H1187 H 0.47905 0.34294 0.28958 0.0
H1188 H 0.46216 0.4179 0.25357 0.0
H1189 H 0.38325 0.4102 0.25065 0.0
C1190 C 0.34016 0.36739 0.26678 0.0
C1191 C 0.32197 0.34415 0.2765 0.0
C1192 C 0.38547 0.37207 0.26839 0.0
C1193 C 0.34984 0.32555 0.28756 0.0
C1194 C 0.39487 0.32993 0.28896 0.0
C1195 C 0.45821 0.35767 0.28109 0.0
C1196 C 0.47662 0.38098 0.27179 0.0
C1197 C 0.41299 0.35313 0.27953 0.0
C1198 C 0.44893 0.39982 0.26095 0.0
C1199 C 0.40379 0.39538 0.25921 0.0
H1200 H 0.81284 0.8867 0.26976 0.0
H1201 H 0.84004 0.80412 0.26671 0.0
H1202 H 0.91832 0.81329 0.26559 0.0
H1203 H 0.97901 0.84454 0.26572 0.0
H1204 H 0.95249 0.92715 0.26887 0.0
H1205 H 0.87391 0.91811 0.26968 0.0
C1206 C 0.83584 0.87067 0.26885 0.0
C1207 C 0.8204 0.84471 0.26835 0.0
C1208 C 0.88094 0.87608 0.26822 0.0
C1209 C 0.85083 0.82426 0.26713 0.0
C1210 C 0.89568 0.82949 0.26649 0.0
C1211 C 0.95613 0.86064 0.26655 0.0
C1212 C 0.97176 0.88652 0.26724 0.0
C1213 C 0.91108 0.8553 0.26706 0.0
C1214 C 0.94147 0.90706 0.26832 0.0
C1215 C 0.8965 0.90189 0.2688 0.0
H1216 H 0.31931 0.85433 0.02087 0.0
H1217 H 0.32284 0.93751 1.00802 0.0
H1218 H 0.40266 0.93632 1.00662 0.0
H1219 H 0.47138 0.91173 1.00933 0.0
H1220 H 0.46767 0.8286 0.02246 0.0
H1221 H 0.38788 0.82976 0.02345 0.0
C1222 C 0.33745 0.87224 1.01772 0.0
C1223 C 0.31499 0.89599 1.01455 0.0
C1224 C 0.38333 0.87142 1.01701 0.0
C1225 C 0.33919 0.91896 1.01052 0.0
C1226 C 0.38487 0.9183 1.00973 0.0
C1227 C 0.45319 0.89383 1.01238 0.0
C1228 C 0.47561 0.8701 1.01581 0.0
C1229 C 0.40728 0.89465 1.01299 0.0
C1230 C 0.45136 0.84713 0.01977 0.0
C1231 C 0.40569 0.84778 0.02034 0.0
H1232 H 0.97001 0.41116 0.99588 0.0
H1233 H 0.94881 0.33618 0.0311 0.0
H1234 H 0.87053 0.34526 0.03386 0.0
H1235 H 0.80806 0.37438 0.02592 0.0
H1236 H 0.82955 0.44893 0.98986 0.0
H1237 H 0.90786 0.44015 0.98796 0.0
C1238 C 0.94834 0.39676 1.00418 0.0
C1239 C 0.96536 0.37299 1.01326 0.0
C1240 C 0.90341 0.40207 1.00563 0.0
C1241 C 0.93666 0.35459 0.0239 0.0
C1242 C 0.89187 0.3598 0.02553 0.0
C1243 C 0.82987 0.38879 1.01777 0.0
C1244 C 0.81284 0.41233 1.00809 0.0
C1245 C 0.87488 0.38348 1.01645 0.0
C1246 C 0.84165 0.43066 0.99744 0.0
C1247 C 0.88648 0.42565 0.99632 0.0
H1248 H 0.69565 0.66252 0.7676 0.0
H1249 H 0.71551 0.5793 0.76346 0.0
H1250 H 0.63668 0.57208 0.76409 0.0
H1251 H 0.56154 0.5894 0.7655 0.0
H1252 H 0.54241 0.67275 0.76906 0.0
H1253 H 0.62106 0.67976 0.76902 0.0
C1254 C 0.68278 0.6428 0.76686 0.0
C1255 C 0.71159 0.62154 0.76548 0.0
C1256 C 0.63731 0.63873 0.76712 0.0
C1257 C 0.69419 0.5961 0.7645 0.0
C1258 C 0.64902 0.5919 0.76487 0.0
C1259 C 0.57461 0.60907 0.76631 0.0
C1260 C 0.54595 0.63046 0.76725 0.0
C1261 C 0.62019 0.61307 0.76614 0.0
C1262 C 0.56354 0.65585 0.76825 0.0
C1263 C 0.60864 0.65994 0.76824 0.0
H1264 H 0.08152 0.08763 0.75647 0.0
H1265 H 0.05959 0.16515 0.78565 0.0
H1266 H 0.13775 0.1739 0.78516 0.0
H1267 H 0.21277 0.15974 0.77669 0.0
H1268 H 0.23529 0.0823 0.74758 0.0
H1269 H 0.15693 0.07349 0.74778 0.0
C1270 C 0.09386 0.10641 0.76274 0.0
C1271 C 0.06455 0.12563 0.77109 0.0
C1272 C 0.13914 0.11143 0.76241 0.0
C1273 C 0.08123 0.14991 0.7791 0.0
C1274 C 0.12605 0.155 0.77884 0.0
C1275 C 0.20056 0.14096 0.77033 0.0
C1276 C 0.23 0.12176 0.76215 0.0
C1277 C 0.15535 0.13594 0.77054 0.0
C1278 C 0.21348 0.09749 0.75401 0.0
C1279 C 0.16857 0.09239 0.75412 0.0
H1280 H 0.56005 0.15806 0.02914 0.0
H1281 H 0.53753 0.07498 0.0255 0.0
H1282 H 0.61609 0.06712 0.02601 0.0
H1283 H 0.69166 0.08381 0.02656 0.0
H1284 H 0.71378 0.16695 0.03046 0.0
H1285 H 0.63533 0.17465 0.03093 0.0
C1286 C 0.57231 0.13823 0.02848 0.0
C1287 C 0.54282 0.11719 0.02719 0.0
C1288 C 0.61765 0.13378 0.02886 0.0
C1289 C 0.55938 0.0916 0.02648 0.0
C1290 C 0.6044 0.08704 0.02677 0.0
C1291 C 0.67931 0.10359 0.02766 0.0
C1292 C 0.70872 0.12472 0.02839 0.0
C1293 C 0.6339 0.10798 0.02785 0.0
C1294 C 0.69204 0.15025 0.02982 0.0
C1295 C 0.64706 0.15473 0.03005 0.0
H1296 H 0.20731 0.58865 1.01681 0.0
H1297 H 0.22997 0.67155 0.0233 0.0
H1298 H 0.15154 0.67956 0.02181 0.0
H1299 H 0.07613 0.66315 0.01901 0.0
H1300 H 0.0533 0.58022 1.01324 0.0
H1301 H 0.1318 0.57223 1.01407 0.0
C1302 C 0.1951 0.60847 1.01787 0.0
C1303 C 0.22462 0.62942 0.02018 0.0
C1304 C 0.14976 0.613 1.01714 0.0
C1305 C 0.20812 0.65499 0.02158 0.0
C1306 C 0.16317 0.65964 0.0207 0.0
C1307 C 0.08832 0.64334 1.01787 0.0
C1308 C 0.05874 0.62237 1.01606 0.0
C1309 C 0.13364 0.63881 1.01853 0.0
C1310 C 0.07521 0.59679 1.01469 0.0
C1311 C 0.12019 0.59216 1.01515 0.0
H1312 H 0.46159 0.84632 0.76813 0.0
H1313 H 0.45916 0.93032 0.77389 0.0
H1314 H 0.37934 0.9294 0.77565 0.0
H1315 H 0.31031 0.90478 0.77524 0.0
H1316 H 0.31287 0.82083 0.76877 0.0
H1317 H 0.39268 0.82175 0.76762 0.0
C1318 C 0.44368 0.86446 0.76983 0.0
C1319 C 0.46644 0.88837 0.77091 0.0
C1320 C 0.3978 0.8638 0.77068 0.0
C1321 C 0.44256 0.91165 0.77301 0.0
C1322 C 0.39688 0.91114 0.77403 0.0
C1323 C 0.32827 0.88665 0.77362 0.0
C1324 C 0.30552 0.86275 0.77212 0.0
C1325 C 0.37417 0.88733 0.77283 0.0
C1326 C 0.32944 0.83949 0.76994 0.0
C1327 C 0.37512 0.84 0.76929 0.0
H1328 H 0.82393 0.40926 0.76764 0.0
H1329 H 0.82337 0.32504 0.77009 0.0
H1330 H 0.90313 0.3248 0.77106 0.0
H1331 H 0.97285 0.34831 0.77159 0.0
H1332 H 0.9742 0.43247 0.76857 0.0
H1333 H 0.89419 0.43288 0.76744 0.0
C1334 C 0.84121 0.39083 0.76838 0.0
C1335 C 0.81755 0.36719 0.76885 0.0
C1336 C 0.8872 0.39082 0.76886 0.0
C1337 C 0.84061 0.34352 0.7697 0.0
C1338 C 0.88628 0.34336 0.77029 0.0
C1339 C 0.95575 0.3668 0.77071 0.0
C1340 C 0.97959 0.39035 0.77026 0.0
C1341 C 0.90987 0.36687 0.76994 0.0
C1342 C 0.95673 0.41407 0.76895 0.0
C1343 C 0.91097 0.41431 0.76832 0.0
H1344 H 0.30654 0.33059 0.50746 0.0
H1345 H 0.32154 0.41131 0.52917 0.0
H1346 H 0.40094 0.40598 0.53064 0.0
H1347 H 0.46609 0.37848 0.52532 0.0
H1348 H 0.45055 0.29786 0.50325 0.0
H1349 H 0.37131 0.30311 0.50249 0.0
C1350 C 0.32708 0.34706 0.51253 0.0
C1351 C 0.308 0.37134 0.51815 0.0
C1352 C 0.37265 0.34387 0.51331 0.0
C1353 C 0.33528 0.39242 0.52471 0.0
C1354 C 0.38071 0.38937 0.52557 0.0
C1355 C 0.44541 0.36201 0.52042 0.0
C1356 C 0.46439 0.33779 0.51433 0.0
C1357 C 0.39976 0.36519 0.51986 0.0
C1358 C 0.43697 0.31672 0.50799 0.0
C1359 C 0.39158 0.3197 0.50753 0.0
H1360 H 0.97139 0.90943 0.51556 0.0
H1361 H 0.96491 0.82531 0.51309 0.0
H1362 H 0.88513 0.82723 0.51195 0.0
H1363 H 0.81734 0.85271 0.51179 0.0
H1364 H 0.82367 0.93679 0.5152 0.0
H1365 H 0.90351 0.93492 0.51579 0.0
C1366 C 0.95259 0.89149 0.51474 0.0
C1367 C 0.9742 0.86725 0.51436 0.0
C1368 C 0.90671 0.89272 0.51424 0.0
C1369 C 0.9492 0.84422 0.51342 0.0
C1370 C 0.90355 0.8453 0.51274 0.0
C1371 C 0.83612 0.87067 0.51258 0.0
C1372 C 0.81447 0.89487 0.51338 0.0
C1373 C 0.88198 0.86944 0.51314 0.0
C1374 C 0.83943 0.9179 0.51458 0.0
C1375 C 0.88511 0.91685 0.51491 0.0
H1376 H 0.58917 0.08691 0.26683 0.0
H1377 H 0.56463 0.16902 0.25551 0.0
H1378 H 0.64287 0.17788 0.25583 0.0
H1379 H 0.71861 0.16265 0.26037 0.0
H1380 H 0.74333 0.08051 0.27123 0.0
H1381 H 0.66509 0.07148 0.27006 0.0
C1382 C 0.60094 0.10671 0.26426 0.0
C1383 C 0.57092 0.12722 0.26122 0.0
C1384 C 0.64619 0.11177 0.26452 0.0
C1385 C 0.58687 0.15279 0.25793 0.0
C1386 C 0.63171 0.15794 0.25816 0.0
C1387 C 0.70689 0.14278 0.26249 0.0
C1388 C 0.7369 0.12236 0.26598 0.0
C1389 C 0.6617 0.13763 0.26165 0.0
C1390 C 0.72106 0.09668 0.26852 0.0
C1391 C 0.67623 0.09145 0.26786 0.0
H1392 H 0.06096 0.65769 0.26867 0.0
H1393 H 0.06264 0.57348 0.26772 0.0
H1394 H 0.14259 0.57404 0.26745 0.0
H1395 H 0.21193 0.59847 0.26719 0.0
H1396 H 0.20987 0.68268 0.26863 0.0
H1397 H 0.13005 0.68204 0.26902 0.0
C1398 C 0.07872 0.63942 0.26839 0.0
C1399 C 0.05571 0.61556 0.26815 0.0
C1400 C 0.12464 0.63989 0.26833 0.0
C1401 C 0.07943 0.59212 0.26791 0.0
C1402 C 0.12517 0.59243 0.26774 0.0
C1403 C 0.19408 0.61671 0.26759 0.0
C1404 C 0.217 0.64061 0.26782 0.0
C1405 C 0.14812 0.6162 0.2679 0.0
C1406 C 0.1932 0.66402 0.26844 0.0
C1407 C 0.1475 0.66367 0.26865 0.0
H1408 H 0.70741 0.58384 0.51701 0.0
H1409 H 0.73596 0.66587 0.52585 0.0
H1410 H 0.65818 0.67589 0.52472 0.0
H1411 H 0.58167 0.66149 0.5216 0.0
H1412 H 0.55297 0.57942 0.51346 0.0
H1413 H 0.63082 0.56943 0.5139 0.0
C1414 C 0.69662 0.6039 0.51866 0.0
C1415 C 0.72761 0.62402 0.52152 0.0
C1416 C 0.65165 0.6096 0.51813 0.0
C1417 C 0.71294 0.64993 0.52368 0.0
C1418 C 0.66838 0.65573 0.52302 0.0
C1419 C 0.59244 0.64143 0.51986 0.0
C1420 C 0.56141 0.62128 0.5175 0.0
C1421 C 0.6374 0.63574 0.5203 0.0
C1422 C 0.57604 0.59537 0.51535 0.0
C1423 C 0.62064 0.58959 0.51559 0.0
H1424 H 0.07129 0.16771 0.51801 0.0
H1425 H 0.04639 0.08593 0.5314 0.0
H1426 H 0.12456 0.07693 0.53014 0.0
H1427 H 0.20039 0.0922 0.52509 0.0
H1428 H 0.22494 0.17409 0.51203 0.0
H1429 H 0.14688 0.18299 0.51332 0.0
C1430 C 0.08294 0.14792 0.52067 0.0
C1431 C 0.05292 0.12757 0.52478 0.0
C1432 C 0.12805 0.14283 0.51997 0.0
C1433 C 0.06869 0.10203 0.52821 0.0
C1434 C 0.11347 0.09682 0.52748 0.0
C1435 C 0.18865 0.11197 0.52253 0.0
C1436 C 0.21861 0.13239 0.51845 0.0
C1437 C 0.1435 0.11706 0.52335 0.0
C1438 C 0.20275 0.15794 0.51521 0.0
C1439 C 0.158 0.1631 0.51593 0.0
loop_
_geom_bond_atom_site_label_1
_geom_bond_atom_site_label_2
_geom_bond_distance
_geom_bond_site_symmetry_2
_ccdc_geom_bond_type
Mg0 O7 2.141 . S
Mg0 O8 2.048 . S
Mg0 O9 2.048 . S
Mg0 O12 2.141 . S
C1 O2 1.313 . S
C1 O8 1.195 . S
O2 C1 1.313 . S
C3 O4 1.245 . S
C3 O12 1.289 . S
O4 C3 1.245 . S
C5 O6 1.245 . S
C5 O7 1.289 . S
O6 C5 1.245 . S
O7 Mg0 2.141 . S
O7 C5 1.289 . S
O8 Mg0 2.048 . S
O8 C1 1.195 . S
O9 Mg0 2.048 . S
O9 C10 1.195 . S
C10 O9 1.195 . S
C10 O11 1.313 . S
O11 C10 1.313 . S
O12 Mg0 2.141 . S
O12 C3 1.289 . S
Mg13 O20 2.141 . S
Mg13 O21 2.048 . S
Mg13 O22 2.048 . S
Mg13 O25 2.141 . S
C14 O15 1.313 . S
C14 O21 1.195 . S
O15 C14 1.313 . S
C16 O17 1.245 . S
C16 O25 1.289 . S
O17 C16 1.245 . S
C18 O19 1.245 . S
C18 O20 1.289 . S
O19 C18 1.245 . S
O20 Mg13 2.141 . S
O20 C18 1.289 . S
O21 Mg13 2.048 . S
O21 C14 1.195 . S
O22 Mg13 2.048 . S
O22 C23 1.195 . S
C23 O22 1.195 . S
C23 O24 1.313 . S
O24 C23 1.313 . S
O25 Mg13 2.141 . S
O25 C16 1.289 . S
Mg26 O33 2.141 1_554 S
Mg26 O34 2.051 . S
Mg26 O35 2.047 . S
Mg26 O38 2.138 1_554 S
C27 O28 1.313 . S
C27 O34 1.195 . S
O28 C27 1.313 . S
C29 O30 1.245 . S
C29 O38 1.289 . S
O30 C29 1.245 . S
C31 O32 1.245 . S
C31 O33 1.289 . S
O32 C31 1.245 . S
O33 Mg26 2.141 1_556 S
O33 C31 1.289 . S
O34 Mg26 2.051 . S
O34 C27 1.195 . S
O35 Mg26 2.047 . S
O35 C36 1.201 . S
C36 O35 1.201 . S
C36 O37 1.313 . S
O37 C36 1.313 . S
O38 Mg26 2.138 1_556 S
O38 C29 1.289 . S
Mg39 O46 2.141 1_554 S
Mg39 O47 2.051 . S
Mg39 O48 2.047 . S
Mg39 O51 2.138 1_554 S
C40 O41 1.313 . S
C40 O47 1.195 . S
O41 C40 1.313 . S
C42 O43 1.245 . S
C42 O51 1.289 . S
O43 C42 1.245 . S
C44 O45 1.245 . S
C44 O46 1.289 . S
O45 C44 1.245 . S
O46 Mg39 2.141 1_556 S
O46 C44 1.289 . S
O47 Mg39 2.051 . S
O47 C40 1.195 . S
O48 Mg39 2.047 . S
O48 C49 1.201 . S
C49 O48 1.201 . S
C49 O50 1.313 . S
O50 C49 1.313 . S
O51 Mg39 2.138 1_556 S
O51 C42 1.289 . S
Mg52 O59 2.141 . S
Mg52 O60 2.048 . S
Mg52 O61 2.048 . S
Mg52 O64 2.141 . S
C53 O54 1.313 . S
C53 O60 1.195 . S
O54 C53 1.313 . S
C55 O56 1.245 . S
C55 O64 1.289 . S
O56 C55 1.245 . S
C57 O58 1.245 . S
C57 O59 1.289 . S
O58 C57 1.245 . S
O59 Mg52 2.141 . S
O59 C57 1.289 . S
O60 Mg52 2.048 . S
O60 C53 1.195 . S
O61 Mg52 2.048 . S
O61 C62 1.195 . S
C62 O61 1.195 . S
C62 O63 1.313 . S
O63 C62 1.313 . S
O64 Mg52 2.141 . S
O64 C55 1.289 . S
Mg65 O72 2.141 . S
Mg65 O73 2.048 . S
Mg65 O74 2.048 . S
Mg65 O77 2.141 . S
C66 O67 1.313 . S
C66 O73 1.195 . S
O67 C66 1.313 . S
C68 O69 1.245 . S
C68 O77 1.289 . S
O69 C68 1.245 . S
C70 O71 1.245 . S
C70 O72 1.289 . S
O71 C70 1.245 . S
O72 Mg65 2.141 . S
O72 C70 1.289 . S
O73 Mg65 2.048 . S
O73 C66 1.195 . S
O74 Mg65 2.048 . S
O74 C75 1.195 . S
C75 O74 1.195 . S
C75 O76 1.313 . S
O76 C75 1.313 . S
O77 Mg65 2.141 . S
O77 C68 1.289 . S
Mg78 O85 2.141 . S
Mg78 O86 2.048 1_554 S
Mg78 O87 2.048 . S
Mg78 O90 2.141 . S
C79 O80 1.313 . S
C79 O86 1.195 . S
O80 C79 1.313 . S
C81 O82 1.245 . S
C81 O90 1.289 . S
O82 C81 1.245 . S
C83 O84 1.245 1_554 S
C83 O85 1.289 . S
O84 C83 1.245 1_556 S
O85 Mg78 2.141 . S
O85 C83 1.289 . S
O86 Mg78 2.048 1_556 S
O86 C79 1.195 . S
O87 Mg78 2.048 . S
O87 C88 1.190 1_554 S
C88 O87 1.190 1_556 S
C88 O89 1.313 . S
O89 C88 1.313 . S
O90 Mg78 2.141 . S
O90 C81 1.289 . S
Mg91 O98 2.141 . S
Mg91 O99 2.048 1_554 S
Mg91 O100 2.048 . S
Mg91 O103 2.141 . S
C92 O93 1.313 . S
C92 O99 1.195 . S
O93 C92 1.313 . S
C94 O95 1.245 . S
C94 O103 1.289 . S
O95 C94 1.245 . S
C96 O97 1.245 1_554 S
C96 O98 1.289 . S
O97 C96 1.245 1_556 S
O98 Mg91 2.141 . S
O98 C96 1.289 . S
O99 Mg91 2.048 1_556 S
O99 C92 1.195 . S
O100 Mg91 2.048 . S
O100 C101 1.190 1_554 S
C101 O100 1.190 1_556 S
C101 O102 1.313 . S
O102 C101 1.313 . S
O103 Mg91 2.141 . S
O103 C94 1.289 . S
Mg104 O111 2.141 . S
Mg104 O112 2.048 . S
Mg104 O113 2.048 . S
Mg104 O116 2.141 . S
C105 O106 1.313 . S
C105 O112 1.195 . S
O106 C105 1.313 . S
C107 O108 1.245 . S
C107 O116 1.289 . S
O108 C107 1.245 . S
C109 O110 1.245 . S
C109 O111 1.289 . S
O110 C109 1.245 . S
O111 Mg104 2.141 . S
O111 C109 1.289 . S
O112 Mg104 2.048 . S
O112 C105 1.195 . S
O113 Mg104 2.048 . S
O113 C114 1.195 . S
C114 O113 1.195 . S
C114 O115 1.313 . S
O115 C114 1.313 . S
O116 Mg104 2.141 . S
O116 C107 1.289 . S
Mg117 O124 2.141 . S
Mg117 O125 2.048 . S
Mg117 O126 2.048 . S
Mg117 O129 2.141 . S
C118 O119 1.313 . S
C118 O125 1.195 . S
O119 C118 1.313 . S
C120 O121 1.245 . S
C120 O129 1.289 . S
O121 C120 1.245 . S
C122 O123 1.245 . S
C122 O124 1.289 . S
O123 C122 1.245 . S
O124 Mg117 2.141 . S
O124 C122 1.289 . S
O125 Mg117 2.048 . S
O125 C118 1.195 . S
O126 Mg117 2.048 . S
O126 C127 1.195 . S
C127 O126 1.195 . S
C127 O128 1.313 . S
O128 C127 1.313 . S
O129 Mg117 2.141 . S
O129 C120 1.289 . S
Mg130 O137 2.141 . S
Mg130 O138 2.048 . S
Mg130 O139 2.048 . S
Mg130 O142 2.141 . S
C131 O132 1.313 . S
C131 O138 1.195 . S
O132 C131 1.313 . S
C133 O134 1.245 . S
C133 O142 1.289 . S
O134 C133 1.245 . S
C135 O136 1.245 . S
C135 O137 1.289 . S
O136 C135 1.245 . S
O137 Mg130 2.141 . S
O137 C135 1.289 . S
O138 Mg130 2.048 . S
O138 C131 1.195 . S
O139 Mg130 2.048 . S
O139 C140 1.195 . S
C140 O139 1.195 . S
C140 O141 1.313 . S
O141 C140 1.313 . S
O142 Mg130 2.141 . S
O142 C133 1.289 . S
Mg143 O150 2.141 . S
Mg143 O151 2.048 . S
Mg143 O152 2.048 . S
Mg143 O155 2.141 . S
C144 O145 1.313 . S
C144 O151 1.195 . S
O145 C144 1.313 . S
C146 O147 1.245 . S
C146 O155 1.289 . S
O147 C146 1.245 . S
C148 O149 1.245 . S
C148 O150 1.289 . S
O149 C148 1.245 . S
O150 Mg143 2.141 . S
O150 C148 1.289 . S
O151 Mg143 2.048 . S
O151 C144 1.195 . S
O152 Mg143 2.048 . S
O152 C153 1.195 . S
C153 O152 1.195 . S
C153 O154 1.313 . S
O154 C153 1.313 . S
O155 Mg143 2.141 . S
O155 C146 1.289 . S
Mg156 O163 2.141 . S
Mg156 O164 2.048 . S
Mg156 O165 2.048 . S
Mg156 O168 2.141 . S
C157 O158 1.313 . S
C157 O164 1.195 . S
O158 C157 1.313 . S
C159 O160 1.245 . S
C159 O168 1.289 . S
O160 C159 1.245 . S
C161 O162 1.245 . S
C161 O163 1.289 . S
O162 C161 1.245 . S
O163 Mg156 2.141 . S
O163 C161 1.289 . S
O164 Mg156 2.048 . S
O164 C157 1.195 . S
O165 Mg156 2.048 . S
O165 C166 1.195 . S
C166 O165 1.195 . S
C166 O167 1.313 . S
O167 C166 1.313 . S
O168 Mg156 2.141 . S
O168 C159 1.289 . S
Mg169 O176 2.141 . S
Mg169 O177 2.048 . S
Mg169 O178 2.048 . S
Mg169 O181 2.141 . S
C170 O171 1.313 . S
C170 O177 1.195 . S
O171 C170 1.313 . S
C172 O173 1.245 . S
C172 O181 1.289 . S
O173 C172 1.245 . S
C174 O175 1.245 . S
C174 O176 1.289 . S
O175 C174 1.245 . S
O176 Mg169 2.141 . S
O176 C174 1.289 . S
O177 Mg169 2.048 . S
O177 C170 1.195 . S
O178 Mg169 2.048 . S
O178 C179 1.195 . S
C179 O178 1.195 . S
C179 O180 1.313 . S
O180 C179 1.313 . S
O181 Mg169 2.141 . S
O181 C172 1.289 . S
Mg182 O189 2.141 . S
Mg182 O190 2.048 . S
Mg182 O191 2.048 . S
Mg182 O194 2.141 . S
C183 O184 1.313 . S
C183 O190 1.195 . S
O184 C183 1.313 . S
C185 O186 1.245 . S
C185 O194 1.289 . S
O186 C185 1.245 . S
C187 O188 1.245 . S
C187 O189 1.289 . S
O188 C187 1.245 . S
O189 Mg182 2.141 . S
O189 C187 1.289 . S
O190 Mg182 2.048 . S
O190 C183 1.195 . S
O191 Mg182 2.048 . S
O191 C192 1.195 . S
C192 O191 1.195 . S
C192 O193 1.313 . S
O193 C192 1.313 . S
O194 Mg182 2.141 . S
O194 C185 1.289 . S
Mg195 O202 2.141 . S
Mg195 O203 2.048 . S
Mg195 O204 2.048 . S
Mg195 O207 2.141 . S
C196 O197 1.313 . S
C196 O203 1.195 . S
O197 C196 1.313 . S
C198 O199 1.245 . S
C198 O207 1.289 . S
O199 C198 1.245 . S
C200 O201 1.245 . S
C200 O202 1.289 . S
O201 C200 1.245 . S
O202 Mg195 2.141 . S
O202 C200 1.289 . S
O203 Mg195 2.048 . S
O203 C196 1.195 . S
O204 Mg195 2.048 . S
O204 C205 1.195 . S
C205 O204 1.195 . S
C205 O206 1.313 . S
O206 C205 1.313 . S
O207 Mg195 2.141 . S
O207 C198 1.289 . S
Mg208 O215 2.141 . S
Mg208 O216 2.048 . S
Mg208 O217 2.048 . S
Mg208 O220 2.141 . S
C209 O210 1.313 . S
C209 O216 1.195 . S
O210 C209 1.313 . S
C211 O212 1.245 . S
C211 O220 1.289 . S
O212 C211 1.245 . S
C213 O214 1.245 . S
C213 O215 1.289 . S
O214 C213 1.245 . S
O215 Mg208 2.141 . S
O215 C213 1.289 . S
O216 Mg208 2.048 . S
O216 C209 1.195 . S
O217 Mg208 2.048 . S
O217 C218 1.195 . S
C218 O217 1.195 . S
C218 O219 1.313 . S
O219 C218 1.313 . S
O220 Mg208 2.141 . S
O220 C211 1.289 . S
Mg221 O228 2.141 . S
Mg221 O229 2.048 . S
Mg221 O230 2.048 . S
Mg221 O233 2.141 . S
C222 O223 1.313 . S
C222 O229 1.195 . S
O223 C222 1.313 . S
C224 O225 1.245 . S
C224 O233 1.289 . S
O225 C224 1.245 . S
C226 O227 1.245 . S
C226 O228 1.289 . S
O227 C226 1.245 . S
O228 Mg221 2.141 . S
O228 C226 1.289 . S
O229 Mg221 2.048 . S
O229 C222 1.195 . S
O230 Mg221 2.048 . S
O230 C231 1.195 . S
C231 O230 1.195 . S
C231 O232 1.313 . S
O232 C231 1.313 . S
O233 Mg221 2.141 . S
O233 C224 1.289 . S
Mg234 O241 2.141 . S
Mg234 O242 2.048 . S
Mg234 O243 2.048 . S
Mg234 O246 2.141 . S
C235 O236 1.313 . S
C235 O242 1.195 . S
O236 C235 1.313 . S
C237 O238 1.245 . S
C237 O246 1.289 . S
O238 C237 1.245 . S
C239 O240 1.245 . S
C239 O241 1.289 . S
O240 C239 1.245 . S
O241 Mg234 2.141 . S
O241 C239 1.289 . S
O242 Mg234 2.048 . S
O242 C235 1.195 . S
O243 Mg234 2.048 . S
O243 C244 1.195 . S
C244 O243 1.195 . S
C244 O245 1.313 . S
O245 C244 1.313 . S
O246 Mg234 2.141 . S
O246 C237 1.289 . S
Mg247 O254 2.141 . S
Mg247 O255 2.048 . S
Mg247 O256 2.048 . S
Mg247 O259 2.141 . S
C248 O249 1.313 . S
C248 O255 1.195 . S
O249 C248 1.313 . S
C250 O251 1.245 . S
C250 O259 1.289 . S
O251 C250 1.245 . S
C252 O253 1.245 . S
C252 O254 1.289 . S
O253 C252 1.245 . S
O254 Mg247 2.141 . S
O254 C252 1.289 . S
O255 Mg247 2.048 . S
O255 C248 1.195 . S
O256 Mg247 2.048 . S
O256 C257 1.195 . S
C257 O256 1.195 . S
C257 O258 1.313 . S
O258 C257 1.313 . S
O259 Mg247 2.141 . S
O259 C250 1.289 . S
Mg260 O267 2.141 . S
Mg260 O268 2.048 . S
Mg260 O269 2.048 . S
Mg260 O272 2.141 . S
C261 O262 1.313 . S
C261 O268 1.195 . S
O262 C261 1.313 . S
C263 O264 1.245 . S
C263 O272 1.289 . S
O264 C263 1.245 . S
C265 O266 1.245 . S
C265 O267 1.289 . S
O266 C265 1.245 . S
O267 Mg260 2.141 . S
O267 C265 1.289 . S
O268 Mg260 2.048 . S
O268 C261 1.195 . S
O269 Mg260 2.048 . S
O269 C270 1.195 . S
C270 O269 1.195 . S
C270 O271 1.313 . S
O271 C270 1.313 . S
O272 Mg260 2.141 . S
O272 C263 1.289 . S
Mg273 O280 2.141 . S
Mg273 O281 2.048 . S
Mg273 O282 2.048 . S
Mg273 O285 2.141 . S
C274 O275 1.313 . S
C274 O281 1.195 . S
O275 C274 1.313 . S
C276 O277 1.245 . S
C276 O285 1.289 . S
O277 C276 1.245 . S
C278 O279 1.245 . S
C278 O280 1.289 . S
O279 C278 1.245 . S
O280 Mg273 2.141 . S
O280 C278 1.289 . S
O281 Mg273 2.048 . S
O281 C274 1.195 . S
O282 Mg273 2.048 . S
O282 C283 1.195 . S
C283 O282 1.195 . S
C283 O284 1.313 . S
O284 C283 1.313 . S
O285 Mg273 2.141 . S
O285 C276 1.289 . S
Mg286 O293 2.141 . S
Mg286 O294 2.048 . S
Mg286 O295 2.048 . S
Mg286 O298 2.141 . S
C287 O288 1.313 . S
C287 O294 1.195 . S
O288 C287 1.313 . S
C289 O290 1.245 . S
C289 O298 1.289 . S
O290 C289 1.245 . S
C291 O292 1.245 . S
C291 O293 1.289 . S
O292 C291 1.245 . S
O293 Mg286 2.141 . S
O293 C291 1.289 . S
O294 Mg286 2.048 . S
O294 C287 1.195 . S
O295 Mg286 2.048 . S
O295 C296 1.195 . S
C296 O295 1.195 . S
C296 O297 1.313 . S
O297 C296 1.313 . S
O298 Mg286 2.141 . S
O298 C289 1.289 . S
Mg299 O306 2.141 . S
Mg299 O307 2.048 . S
Mg299 O308 2.048 . S
Mg299 O311 2.141 . S
C300 O301 1.313 . S
C300 O307 1.195 . S
O301 C300 1.313 . S
C302 O303 1.245 . S
C302 O311 1.289 . S
O303 C302 1.245 . S
C304 O305 1.245 . S
C304 O306 1.289 . S
O305 C304 1.245 . S
O306 Mg299 2.141 . S
O306 C304 1.289 . S
O307 Mg299 2.048 . S
O307 C300 1.195 . S
O308 Mg299 2.048 . S
O308 C309 1.195 . S
C309 O308 1.195 . S
C309 O310 1.313 . S
O310 C309 1.313 . S
O311 Mg299 2.141 . S
O311 C302 1.289 . S
Mg312 O319 2.141 . S
Mg312 O320 2.048 . S
Mg312 O321 2.048 . S
Mg312 O324 2.141 . S
C313 O314 1.313 . S
C313 O320 1.195 . S
O314 C313 1.313 . S
C315 O316 1.245 . S
C315 O324 1.289 . S
O316 C315 1.245 . S
C317 O318 1.245 . S
C317 O319 1.289 . S
O318 C317 1.245 . S
O319 Mg312 2.141 . S
O319 C317 1.289 . S
O320 Mg312 2.048 . S
O320 C313 1.195 . S
O321 Mg312 2.048 . S
O321 C322 1.195 . S
C322 O321 1.195 . S
C322 O323 1.313 . S
O323 C322 1.313 . S
O324 Mg312 2.141 . S
O324 C315 1.289 . S
Mg325 O332 2.141 . S
Mg325 O333 2.048 . S
Mg325 O334 2.048 . S
Mg325 O337 2.141 . S
C326 O327 1.313 . S
C326 O333 1.195 . S
O327 C326 1.313 . S
C328 O329 1.245 . S
C328 O337 1.289 . S
O329 C328 1.245 . S
C330 O331 1.245 . S
C330 O332 1.289 . S
O331 C330 1.245 . S
O332 Mg325 2.141 . S
O332 C330 1.289 . S
O333 Mg325 2.048 . S
O333 C326 1.195 . S
O334 Mg325 2.048 . S
O334 C335 1.195 . S
C335 O334 1.195 . S
C335 O336 1.313 . S
O336 C335 1.313 . S
O337 Mg325 2.141 . S
O337 C328 1.289 . S
Mg338 O345 2.141 1_554 S
Mg338 O346 2.051 . S
Mg338 O347 2.047 . S
Mg338 O350 2.138 1_554 S
C339 O340 1.313 . S
C339 O346 1.195 . S
O340 C339 1.313 . S
C341 O342 1.245 . S
C341 O350 1.289 . S
O342 C341 1.245 . S
C343 O344 1.245 . S
C343 O345 1.289 . S
O344 C343 1.245 . S
O345 Mg338 2.141 1_556 S
O345 C343 1.289 . S
O346 Mg338 2.051 . S
O346 C339 1.195 . S
O347 Mg338 2.047 . S
O347 C348 1.201 . S
C348 O347 1.201 . S
C348 O349 1.313 . S
O349 C348 1.313 . S
O350 Mg338 2.138 1_556 S
O350 C341 1.289 . S
Mg351 O358 2.141 1_554 S
Mg351 O359 2.051 . S
Mg351 O360 2.047 . S
Mg351 O363 2.138 1_554 S
C352 O353 1.313 . S
C352 O359 1.195 . S
O353 C352 1.313 . S
C354 O355 1.245 . S
C354 O363 1.289 . S
O355 C354 1.245 . S
C356 O357 1.245 . S
C356 O358 1.289 . S
O357 C356 1.245 . S
O358 Mg351 2.141 1_556 S
O358 C356 1.289 . S
O359 Mg351 2.051 . S
O359 C352 1.195 . S
O360 Mg351 2.047 . S
O360 C361 1.201 . S
C361 O360 1.201 . S
C361 O362 1.313 . S
O362 C361 1.313 . S
O363 Mg351 2.138 1_556 S
O363 C354 1.289 . S
Mg364 O371 2.141 . S
Mg364 O372 2.048 . S
Mg364 O373 2.048 . S
Mg364 O376 2.141 . S
C365 O366 1.313 . S
C365 O372 1.195 . S
O366 C365 1.313 . S
C367 O368 1.245 . S
C367 O376 1.289 . S
O368 C367 1.245 . S
C369 O370 1.245 . S
C369 O371 1.289 . S
O370 C369 1.245 . S
O371 Mg364 2.141 . S
O371 C369 1.289 . S
O372 Mg364 2.048 . S
O372 C365 1.195 . S
O373 Mg364 2.048 . S
O373 C374 1.195 . S
C374 O373 1.195 . S
C374 O375 1.313 . S
O375 C374 1.313 . S
O376 Mg364 2.141 . S
O376 C367 1.289 . S
Mg377 O384 2.141 . S
Mg377 O385 2.048 . S
Mg377 O386 2.048 . S
Mg377 O389 2.141 . S
C378 O379 1.313 . S
C378 O385 1.195 . S
O379 C378 1.313 . S
C380 O381 1.245 . S
C380 O389 1.289 . S
O381 C380 1.245 . S
C382 O383 1.245 . S
C382 O384 1.289 . S
O383 C382 1.245 . S
O384 Mg377 2.141 . S
O384 C382 1.289 . S
O385 Mg377 2.048 . S
O385 C378 1.195 . S
O386 Mg377 2.048 . S
O386 C387 1.195 . S
C387 O386 1.195 . S
C387 O388 1.313 . S
O388 C387 1.313 . S
O389 Mg377 2.141 . S
O389 C380 1.289 . S
Mg390 O397 2.141 . S
Mg390 O398 2.048 1_554 S
Mg390 O399 2.048 . S
Mg390 O402 2.141 . S
C391 O392 1.313 . S
C391 O398 1.195 . S
O392 C391 1.313 . S
C393 O394 1.245 . S
C393 O402 1.289 . S
O394 C393 1.245 . S
C395 O396 1.245 1_554 S
C395 O397 1.289 . S
O396 C395 1.245 1_556 S
O397 Mg390 2.141 . S
O397 C395 1.289 . S
O398 Mg390 2.048 1_556 S
O398 C391 1.195 . S
O399 Mg390 2.048 . S
O399 C400 1.190 1_554 S
C400 O399 1.190 1_556 S
C400 O401 1.313 . S
O401 C400 1.313 . S
O402 Mg390 2.141 . S
O402 C393 1.289 . S
Mg403 O410 2.141 . S
Mg403 O411 2.048 1_554 S
Mg403 O412 2.048 . S
Mg403 O415 2.141 . S
C404 O405 1.313 . S
C404 O411 1.195 . S
O405 C404 1.313 . S
C406 O407 1.245 . S
C406 O415 1.289 . S
O407 C406 1.245 . S
C408 O409 1.245 1_554 S
C408 O410 1.289 . S
O409 C408 1.245 1_556 S
O410 Mg403 2.141 . S
O410 C408 1.289 . S
O411 Mg403 2.048 1_556 S
O411 C404 1.195 . S
O412 Mg403 2.048 . S
O412 C413 1.190 1_554 S
C413 O412 1.190 1_556 S
C413 O414 1.313 . S
O414 C413 1.313 . S
O415 Mg403 2.141 . S
O415 C406 1.289 . S
H416 C422 0.930 . S
H417 C425 0.930 . S
H418 C426 0.930 . S
H419 C427 0.930 . S
H420 C430 0.930 . S
H421 C431 0.930 . S
C422 H416 0.930 . S
C422 C423 1.355 . S
C422 C424 1.415 . S
C423 C422 1.355 . S
C423 C425 1.419 . S
C424 C422 1.415 . S
C424 C429 1.425 . S
C424 C431 1.409 . S
C425 H417 0.930 . S
C425 C423 1.419 . S
C425 C426 1.362 . S
C426 H418 0.930 . S
C426 C425 1.362 . S
C426 C429 1.409 . S
C427 H419 0.930 . S
C427 C428 1.355 . S
C427 C429 1.415 . S
C428 C427 1.355 . S
C428 C430 1.419 . S
C429 C424 1.425 . S
C429 C426 1.409 . S
C429 C427 1.415 . S
C430 H420 0.930 . S
C430 C428 1.419 . S
C430 C431 1.362 . S
C431 H421 0.930 . S
C431 C424 1.409 . S
C431 C430 1.362 . S
H432 C438 0.930 . S
H433 C441 0.930 . S
H434 C442 0.930 . S
H435 C443 0.930 . S
H436 C446 0.930 . S
H437 C447 0.930 . S
C438 H432 0.930 . S
C438 C439 1.355 . S
C438 C440 1.415 . S
C439 C438 1.355 . S
C439 C441 1.419 . S
C440 C438 1.415 . S
C440 C445 1.425 . S
C440 C447 1.409 . S
C441 H433 0.930 . S
C441 C439 1.419 . S
C441 C442 1.362 . S
C442 H434 0.930 . S
C442 C441 1.362 . S
C442 C445 1.409 . S
C443 H435 0.930 . S
C443 C444 1.355 . S
C443 C445 1.415 . S
C444 C443 1.355 . S
C444 C446 1.419 . S
C445 C440 1.425 . S
C445 C442 1.409 . S
C445 C443 1.415 . S
C446 H436 0.930 . S
C446 C444 1.419 . S
C446 C447 1.362 . S
C447 H437 0.930 . S
C447 C440 1.409 . S
C447 C446 1.362 . S
H448 C454 0.930 . S
H449 C457 0.930 . S
H450 C458 0.930 . S
H451 C459 0.930 . S
H452 C462 0.930 . S
H453 C463 0.930 . S
C454 H448 0.930 . S
C454 C455 1.355 . S
C454 C456 1.415 . S
C455 C454 1.355 . S
C455 C457 1.419 . S
C456 C454 1.415 . S
C456 C461 1.425 . S
C456 C463 1.409 . S
C457 H449 0.930 . S
C457 C455 1.419 . S
C457 C458 1.362 . S
C458 H450 0.930 . S
C458 C457 1.362 . S
C458 C461 1.409 . S
C459 H451 0.930 . S
C459 C460 1.355 . S
C459 C461 1.415 . S
C460 C459 1.355 . S
C460 C462 1.419 . S
C461 C456 1.425 . S
C461 C458 1.409 . S
C461 C459 1.415 . S
C462 H452 0.930 . S
C462 C460 1.419 . S
C462 C463 1.362 . S
C463 H453 0.930 . S
C463 C456 1.409 . S
C463 C462 1.362 . S
H464 C470 0.930 . S
H465 C473 0.930 . S
H466 C474 0.930 . S
H467 C475 0.930 . S
H468 C478 0.930 . S
H469 C479 0.930 . S
C470 H464 0.930 . S
C470 C471 1.355 . S
C470 C472 1.415 . S
C471 C470 1.355 . S
C471 C473 1.419 . S
C472 C470 1.415 . S
C472 C477 1.425 . S
C472 C479 1.409 . S
C473 H465 0.930 . S
C473 C471 1.419 . S
C473 C474 1.362 . S
C474 H466 0.930 . S
C474 C473 1.362 . S
C474 C477 1.409 . S
C475 H467 0.930 . S
C475 C476 1.355 . S
C475 C477 1.415 . S
C476 C475 1.355 . S
C476 C478 1.419 . S
C477 C472 1.425 . S
C477 C474 1.409 . S
C477 C475 1.415 . S
C478 H468 0.930 . S
C478 C476 1.419 . S
C478 C479 1.362 . S
C479 H469 0.930 . S
C479 C472 1.409 . S
C479 C478 1.362 . S
H480 C486 0.930 . S
H481 C489 0.930 . S
H482 C490 0.930 . S
H483 C491 0.930 . S
H484 C494 0.930 . S
H485 C495 0.930 . S
C486 H480 0.930 . S
C486 C487 1.355 . S
C486 C488 1.415 . S
C487 C486 1.355 . S
C487 C489 1.419 . S
C488 C486 1.415 . S
C488 C493 1.425 . S
C488 C495 1.409 . S
C489 H481 0.930 . S
C489 C487 1.419 . S
C489 C490 1.362 . S
C490 H482 0.930 . S
C490 C489 1.362 . S
C490 C493 1.409 . S
C491 H483 0.930 . S
C491 C492 1.355 . S
C491 C493 1.415 . S
C492 C491 1.355 . S
C492 C494 1.419 . S
C493 C488 1.425 . S
C493 C490 1.409 . S
C493 C491 1.415 . S
C494 H484 0.930 . S
C494 C492 1.419 . S
C494 C495 1.362 . S
C495 H485 0.930 . S
C495 C488 1.409 . S
C495 C494 1.362 . S
H496 C502 0.930 . S
H497 C505 0.930 . S
H498 C506 0.930 . S
H499 C507 0.930 . S
H500 C510 0.930 . S
H501 C511 0.930 . S
C502 H496 0.930 . S
C502 C503 1.355 . S
C502 C504 1.415 . S
C503 C502 1.355 . S
C503 C505 1.419 . S
C504 C502 1.415 . S
C504 C509 1.425 . S
C504 C511 1.409 . S
C505 H497 0.930 . S
C505 C503 1.419 . S
C505 C506 1.362 . S
C506 H498 0.930 . S
C506 C505 1.362 . S
C506 C509 1.409 . S
C507 H499 0.930 . S
C507 C508 1.355 . S
C507 C509 1.415 . S
C508 C507 1.355 . S
C508 C510 1.419 . S
C509 C504 1.425 . S
C509 C506 1.409 . S
C509 C507 1.415 . S
C510 H500 0.930 . S
C510 C508 1.419 . S
C510 C511 1.362 . S
C511 H501 0.930 . S
C511 C504 1.409 . S
C511 C510 1.362 . S
H512 C518 0.930 . S
H513 C521 0.930 . S
H514 C522 0.930 . S
H515 C523 0.930 . S
H516 C526 0.930 . S
H517 C527 0.930 . S
C518 H512 0.930 . S
C518 C519 1.355 . S
C518 C520 1.415 . S
C519 C518 1.355 . S
C519 C521 1.419 . S
C520 C518 1.415 . S
C520 C525 1.425 . S
C520 C527 1.409 . S
C521 H513 0.930 . S
C521 C519 1.419 . S
C521 C522 1.362 . S
C522 H514 0.930 . S
C522 C521 1.362 . S
C522 C525 1.409 . S
C523 H515 0.930 . S
C523 C524 1.355 . S
C523 C525 1.415 . S
C524 C523 1.355 . S
C524 C526 1.419 . S
C525 C520 1.425 . S
C525 C522 1.409 . S
C525 C523 1.415 . S
C526 H516 0.930 . S
C526 C524 1.419 . S
C526 C527 1.362 . S
C527 H517 0.930 . S
C527 C520 1.409 . S
C527 C526 1.362 . S
H528 C534 0.930 . S
H529 C537 0.930 . S
H530 C538 0.930 . S
H531 C539 0.930 . S
H532 C542 0.930 . S
H533 C543 0.930 . S
C534 H528 0.930 . S
C534 C535 1.355 . S
C534 C536 1.415 . S
C535 C534 1.355 . S
C535 C537 1.419 . S
C536 C534 1.415 . S
C536 C541 1.425 . S
C536 C543 1.409 . S
C537 H529 0.930 . S
C537 C535 1.419 . S
C537 C538 1.362 . S
C538 H530 0.930 . S
C538 C537 1.362 . S
C538 C541 1.409 . S
C539 H531 0.930 . S
C539 C540 1.355 . S
C539 C541 1.415 . S
C540 C539 1.355 . S
C540 C542 1.419 . S
C541 C536 1.425 . S
C541 C538 1.409 . S
C541 C539 1.415 . S
C542 H532 0.930 . S
C542 C540 1.419 . S
C542 C543 1.362 . S
C543 H533 0.930 . S
C543 C536 1.409 . S
C543 C542 1.362 . S
H544 C550 0.930 . S
H545 C553 0.930 . S
H546 C554 0.930 . S
H547 C555 0.930 . S
H548 C558 0.930 . S
H549 C559 0.930 . S
C550 H544 0.930 . S
C550 C551 1.355 . S
C550 C552 1.415 . S
C551 C550 1.355 . S
C551 C553 1.419 . S
C552 C550 1.415 . S
C552 C557 1.425 . S
C552 C559 1.409 . S
C553 H545 0.930 . S
C553 C551 1.419 . S
C553 C554 1.362 . S
C554 H546 0.930 . S
C554 C553 1.362 . S
C554 C557 1.409 . S
C555 H547 0.930 . S
C555 C556 1.355 . S
C555 C557 1.415 . S
C556 C555 1.355 . S
C556 C558 1.419 . S
C557 C552 1.425 . S
C557 C554 1.409 . S
C557 C555 1.415 . S
C558 H548 0.930 . S
C558 C556 1.419 . S
C558 C559 1.362 . S
C559 H549 0.930 . S
C559 C552 1.409 . S
C559 C558 1.362 . S
H560 C566 0.930 . S
H561 C569 0.930 . S
H562 C570 0.930 . S
H563 C571 0.930 . S
H564 C574 0.930 . S
H565 C575 0.930 . S
C566 H560 0.930 . S
C566 C567 1.355 . S
C566 C568 1.415 . S
C567 C566 1.355 . S
C567 C569 1.419 . S
C568 C566 1.415 . S
C568 C573 1.425 . S
C568 C575 1.409 . S
C569 H561 0.930 . S
C569 C567 1.419 . S
C569 C570 1.362 . S
C570 H562 0.930 . S
C570 C569 1.362 . S
C570 C573 1.409 . S
C571 H563 0.930 . S
C571 C572 1.355 . S
C571 C573 1.415 . S
C572 C571 1.355 . S
C572 C574 1.419 . S
C573 C568 1.425 . S
C573 C570 1.409 . S
C573 C571 1.415 . S
C574 H564 0.930 . S
C574 C572 1.419 . S
C574 C575 1.362 . S
C575 H565 0.930 . S
C575 C568 1.409 . S
C575 C574 1.362 . S
H576 C582 0.930 . S
H577 C585 0.930 . S
H578 C586 0.930 . S
H579 C587 0.930 . S
H580 C590 0.930 . S
H581 C591 0.930 . S
C582 H576 0.930 . S
C582 C583 1.355 . S
C582 C584 1.415 . S
C583 C582 1.355 . S
C583 C585 1.419 . S
C584 C582 1.415 . S
C584 C589 1.425 . S
C584 C591 1.409 . S
C585 H577 0.930 . S
C585 C583 1.419 . S
C585 C586 1.362 . S
C586 H578 0.930 . S
C586 C585 1.362 . S
C586 C589 1.409 . S
C587 H579 0.930 . S
C587 C588 1.355 . S
C587 C589 1.415 . S
C588 C587 1.355 . S
C588 C590 1.419 . S
C589 C584 1.425 . S
C589 C586 1.409 . S
C589 C587 1.415 . S
C590 H580 0.930 . S
C590 C588 1.419 . S
C590 C591 1.362 . S
C591 H581 0.930 . S
C591 C584 1.409 . S
C591 C590 1.362 . S
H592 C598 0.930 . S
H593 C601 0.930 . S
H594 C602 0.930 . S
H595 C603 0.930 . S
H596 C606 0.930 . S
H597 C607 0.930 . S
C598 H592 0.930 . S
C598 C599 1.355 . S
C598 C600 1.415 . S
C599 C598 1.355 . S
C599 C601 1.419 . S
C600 C598 1.415 . S
C600 C605 1.425 . S
C600 C607 1.409 . S
C601 H593 0.930 . S
C601 C599 1.419 . S
C601 C602 1.362 . S
C602 H594 0.930 . S
C602 C601 1.362 . S
C602 C605 1.409 . S
C603 H595 0.930 . S
C603 C604 1.355 . S
C603 C605 1.415 . S
C604 C603 1.355 . S
C604 C606 1.419 . S
C605 C600 1.425 . S
C605 C602 1.409 . S
C605 C603 1.415 . S
C606 H596 0.930 . S
C606 C604 1.419 . S
C606 C607 1.362 . S
C607 H597 0.930 . S
C607 C600 1.409 . S
C607 C606 1.362 . S
H608 C614 0.930 . S
H609 C617 0.930 . S
H610 C618 0.930 . S
H611 C619 0.930 . S
H612 C622 0.930 . S
H613 C623 0.930 . S
C614 H608 0.930 . S
C614 C615 1.355 . S
C614 C616 1.415 . S
C615 C614 1.355 . S
C615 C617 1.419 . S
C616 C614 1.415 . S
C616 C621 1.425 . S
C616 C623 1.409 . S
C617 H609 0.930 . S
C617 C615 1.419 . S
C617 C618 1.362 . S
C618 H610 0.930 . S
C618 C617 1.362 . S
C618 C621 1.409 . S
C619 H611 0.930 . S
C619 C620 1.355 . S
C619 C621 1.415 . S
C620 C619 1.355 . S
C620 C622 1.419 . S
C621 C616 1.425 . S
C621 C618 1.409 . S
C621 C619 1.415 . S
C622 H612 0.930 . S
C622 C620 1.419 . S
C622 C623 1.362 . S
C623 H613 0.930 . S
C623 C616 1.409 . S
C623 C622 1.362 . S
H624 C630 0.930 . S
H625 C633 0.930 . S
H626 C634 0.930 . S
H627 C635 0.930 . S
H628 C638 0.930 . S
H629 C639 0.930 . S
C630 H624 0.930 . S
C630 C631 1.355 . S
C630 C632 1.415 . S
C631 C630 1.355 . S
C631 C633 1.419 . S
C632 C630 1.415 . S
C632 C637 1.425 . S
C632 C639 1.409 . S
C633 H625 0.930 . S
C633 C631 1.419 . S
C633 C634 1.362 . S
C634 H626 0.930 . S
C634 C633 1.362 . S
C634 C637 1.409 . S
C635 H627 0.930 . S
C635 C636 1.355 . S
C635 C637 1.415 . S
C636 C635 1.355 . S
C636 C638 1.419 . S
C637 C632 1.425 . S
C637 C634 1.409 . S
C637 C635 1.415 . S
C638 H628 0.930 . S
C638 C636 1.419 . S
C638 C639 1.362 . S
C639 H629 0.930 . S
C639 C632 1.409 . S
C639 C638 1.362 . S
H640 C646 0.930 . S
H641 C649 0.930 . S
H642 C650 0.930 . S
H643 C651 0.930 . S
H644 C654 0.930 . S
H645 C655 0.930 . S
C646 H640 0.930 . S
C646 C647 1.355 . S
C646 C648 1.415 . S
C647 C646 1.355 . S
C647 C649 1.419 . S
C648 C646 1.415 . S
C648 C653 1.425 . S
C648 C655 1.409 . S
C649 H641 0.930 . S
C649 C647 1.419 . S
C649 C650 1.362 . S
C650 H642 0.930 . S
C650 C649 1.362 . S
C650 C653 1.409 . S
C651 H643 0.930 . S
C651 C652 1.355 . S
C651 C653 1.415 . S
C652 C651 1.355 . S
C652 C654 1.419 . S
C653 C648 1.425 . S
C653 C650 1.409 . S
C653 C651 1.415 . S
C654 H644 0.930 . S
C654 C652 1.419 . S
C654 C655 1.362 . S
C655 H645 0.930 . S
C655 C648 1.409 . S
C655 C654 1.362 . S
H656 C662 0.930 . S
H657 C665 0.930 . S
H658 C666 0.930 . S
H659 C667 0.930 . S
H660 C670 0.930 . S
H661 C671 0.930 . S
C662 H656 0.930 . S
C662 C663 1.355 . S
C662 C664 1.415 . S
C663 C662 1.355 . S
C663 C665 1.419 . S
C664 C662 1.415 . S
C664 C669 1.425 . S
C664 C671 1.409 . S
C665 H657 0.930 . S
C665 C663 1.419 . S
C665 C666 1.362 . S
C666 H658 0.930 . S
C666 C665 1.362 . S
C666 C669 1.409 . S
C667 H659 0.930 . S
C667 C668 1.355 . S
C667 C669 1.415 . S
C668 C667 1.355 . S
C668 C670 1.419 . S
C669 C664 1.425 . S
C669 C666 1.409 . S
C669 C667 1.415 . S
C670 H660 0.930 . S
C670 C668 1.419 . S
C670 C671 1.362 . S
C671 H661 0.930 . S
C671 C664 1.409 . S
C671 C670 1.362 . S
H672 C678 0.930 1_455 S
H673 C681 0.930 . S
H674 C682 0.930 . S
H675 C683 0.930 1_655 S
H676 C686 0.930 . S
H677 C687 0.930 . S
C678 H672 0.930 1_655 S
C678 C679 1.355 . S
C678 C680 1.415 1_655 S
C679 C678 1.355 . S
C679 C681 1.419 . S
C680 C678 1.415 1_455 S
C680 C685 1.425 1_455 S
C680 C687 1.409 . S
C681 H673 0.930 . S
C681 C679 1.419 . S
C681 C682 1.362 . S
C682 H674 0.930 . S
C682 C681 1.362 . S
C682 C685 1.409 . S
C683 H675 0.930 1_455 S
C683 C684 1.355 . S
C683 C685 1.415 1_455 S
C684 C683 1.355 . S
C684 C686 1.419 . S
C685 C680 1.425 1_655 S
C685 C682 1.409 . S
C685 C683 1.415 1_655 S
C686 H676 0.930 . S
C686 C684 1.419 . S
C686 C687 1.362 . S
C687 H677 0.930 . S
C687 C680 1.409 . S
C687 C686 1.362 . S
H688 C694 0.930 . S
H689 C697 0.930 . S
H690 C698 0.930 . S
H691 C699 0.930 . S
H692 C702 0.930 . S
H693 C703 0.930 . S
C694 H688 0.930 . S
C694 C695 1.355 . S
C694 C696 1.415 . S
C695 C694 1.355 . S
C695 C697 1.419 . S
C696 C694 1.415 . S
C696 C701 1.425 1_565 S
C696 C703 1.409 1_565 S
C697 H689 0.930 . S
C697 C695 1.419 . S
C697 C698 1.362 . S
C698 H690 0.930 . S
C698 C697 1.362 . S
C698 C701 1.409 1_565 S
C699 H691 0.930 . S
C699 C700 1.355 . S
C699 C701 1.415 . S
C700 C699 1.355 . S
C700 C702 1.419 . S
C701 C696 1.425 1_545 S
C701 C698 1.409 1_545 S
C701 C699 1.415 . S
C702 H692 0.930 . S
C702 C700 1.419 . S
C702 C703 1.362 . S
C703 H693 0.930 . S
C703 C696 1.409 1_545 S
C703 C702 1.362 . S
H704 C710 0.923 1_655 S
H705 C713 0.930 . S
H706 C714 0.930 . S
H707 C715 0.923 1_455 S
H708 C718 0.930 . S
H709 C719 0.930 . S
C710 H704 0.923 1_455 S
C710 C711 1.365 1_554 S
C710 C712 1.411 1_455 S
C711 C710 1.365 1_556 S
C711 C713 1.419 . S
C712 C710 1.411 1_655 S
C712 C717 1.425 1_664 S
C712 C719 1.409 . S
C713 H705 0.930 . S
C713 C711 1.419 . S
C713 C714 1.362 1_565 S
C714 H706 0.930 . S
C714 C713 1.362 1_545 S
C714 C717 1.409 . S
C715 H707 0.923 1_655 S
C715 C716 1.365 1_556 S
C715 C717 1.411 1_655 S
C716 C715 1.365 1_554 S
C716 C718 1.419 . S
C717 C712 1.425 1_446 S
C717 C714 1.409 . S
C717 C715 1.411 1_455 S
C718 H708 0.930 . S
C718 C716 1.419 . S
C718 C719 1.362 1_545 S
C719 H709 0.930 . S
C719 C712 1.409 . S
C719 C718 1.362 1_565 S
H720 C726 0.930 . S
H721 C729 0.930 . S
H722 C730 0.930 . S
H723 C731 0.930 . S
H724 C734 0.930 . S
H725 C735 0.930 . S
C726 H720 0.930 . S
C726 C727 1.355 1_556 S
C726 C728 1.415 . S
C727 C726 1.355 1_554 S
C727 C729 1.419 . S
C728 C726 1.415 . S
C728 C733 1.425 1_556 S
C728 C735 1.409 . S
C729 H721 0.930 . S
C729 C727 1.419 . S
C729 C730 1.362 . S
C730 H722 0.930 . S
C730 C729 1.362 . S
C730 C733 1.409 . S
C731 H723 0.930 . S
C731 C732 1.355 1_554 S
C731 C733 1.415 . S
C732 C731 1.355 1_556 S
C732 C734 1.419 . S
C733 C728 1.425 1_554 S
C733 C730 1.409 . S
C733 C731 1.415 . S
C734 H724 0.930 . S
C734 C732 1.419 . S
C734 C735 1.362 . S
C735 H725 0.930 . S
C735 C728 1.409 . S
C735 C734 1.362 . S
H736 C742 0.930 1_455 S
H737 C745 0.930 . S
H738 C746 0.930 . S
H739 C747 0.930 1_655 S
H740 C750 0.930 . S
H741 C751 0.930 . S
C742 H736 0.930 1_655 S
C742 C743 1.355 . S
C742 C744 1.415 1_655 S
C743 C742 1.355 . S
C743 C745 1.419 . S
C744 C742 1.415 1_455 S
C744 C749 1.425 1_455 S
C744 C751 1.409 . S
C745 H737 0.930 . S
C745 C743 1.419 . S
C745 C746 1.362 . S
C746 H738 0.930 . S
C746 C745 1.362 . S
C746 C749 1.409 . S
C747 H739 0.930 1_455 S
C747 C748 1.355 . S
C747 C749 1.415 1_455 S
C748 C747 1.355 . S
C748 C750 1.419 . S
C749 C744 1.425 1_655 S
C749 C746 1.409 . S
C749 C747 1.415 1_655 S
C750 H740 0.930 . S
C750 C748 1.419 . S
C750 C751 1.362 . S
C751 H741 0.930 . S
C751 C744 1.409 . S
C751 C750 1.362 . S
H752 C758 0.930 . S
H753 C761 0.930 . S
H754 C762 0.930 . S
H755 C763 0.930 . S
H756 C766 0.930 . S
H757 C767 0.930 . S
C758 H752 0.930 . S
C758 C759 1.355 . S
C758 C760 1.412 1_565 S
C759 C758 1.355 . S
C759 C761 1.419 . S
C760 C758 1.412 1_545 S
C760 C765 1.425 . S
C760 C767 1.411 . S
C761 H753 0.930 . S
C761 C759 1.419 . S
C761 C762 1.362 . S
C762 H754 0.930 . S
C762 C761 1.362 . S
C762 C765 1.403 1_565 S
C763 H755 0.930 . S
C763 C764 1.355 . S
C763 C765 1.421 . S
C764 C763 1.355 . S
C764 C766 1.419 . S
C765 C760 1.425 . S
C765 C762 1.403 1_545 S
C765 C763 1.421 . S
C766 H756 0.930 . S
C766 C764 1.419 . S
C766 C767 1.362 . S
C767 H757 0.930 . S
C767 C760 1.411 . S
C767 C766 1.362 . S
H768 C774 0.930 . S
H769 C777 0.930 . S
H770 C778 0.930 . S
H771 C779 0.930 . S
H772 C782 0.930 . S
H773 C783 0.930 . S
C774 H768 0.930 . S
C774 C775 1.355 1_556 S
C774 C776 1.415 . S
C775 C774 1.355 1_554 S
C775 C777 1.419 . S
C776 C774 1.415 . S
C776 C781 1.425 1_556 S
C776 C783 1.409 . S
C777 H769 0.930 . S
C777 C775 1.419 . S
C777 C778 1.362 . S
C778 H770 0.930 . S
C778 C777 1.362 . S
C778 C781 1.409 . S
C779 H771 0.930 . S
C779 C780 1.355 1_554 S
C779 C781 1.415 . S
C780 C779 1.355 1_556 S
C780 C782 1.419 . S
C781 C776 1.425 1_554 S
C781 C778 1.409 . S
C781 C779 1.415 . S
C782 H772 0.930 . S
C782 C780 1.419 . S
C782 C783 1.362 . S
C783 H773 0.930 . S
C783 C776 1.409 . S
C783 C782 1.362 . S
H784 C790 0.930 . S
H785 C793 0.930 . S
H786 C794 0.930 . S
H787 C795 0.930 . S
H788 C798 0.930 . S
H789 C799 0.930 . S
C790 H784 0.930 . S
C790 C791 1.355 . S
C790 C792 1.415 . S
C791 C790 1.355 . S
C791 C793 1.419 . S
C792 C790 1.415 . S
C792 C797 1.425 . S
C792 C799 1.409 . S
C793 H785 0.930 . S
C793 C791 1.419 . S
C793 C794 1.362 . S
C794 H786 0.930 . S
C794 C793 1.362 . S
C794 C797 1.409 . S
C795 H787 0.930 . S
C795 C796 1.355 . S
C795 C797 1.415 . S
C796 C795 1.355 . S
C796 C798 1.419 . S
C797 C792 1.425 . S
C797 C794 1.409 . S
C797 C795 1.415 . S
C798 H788 0.930 . S
C798 C796 1.419 . S
C798 C799 1.362 . S
C799 H789 0.930 . S
C799 C792 1.409 . S
C799 C798 1.362 . S
H800 C806 0.930 . S
H801 C809 0.930 1_455 S
H802 C810 0.930 . S
H803 C811 0.930 . S
H804 C814 0.930 1_655 S
H805 C815 0.930 . S
C806 H800 0.930 . S
C806 C807 1.355 . S
C806 C808 1.415 . S
C807 C806 1.355 . S
C807 C809 1.419 . S
C808 C806 1.415 . S
C808 C813 1.425 1_655 S
C808 C815 1.409 . S
C809 H801 0.930 1_655 S
C809 C807 1.419 . S
C809 C810 1.362 1_655 S
C810 H802 0.930 . S
C810 C809 1.362 1_455 S
C810 C813 1.409 . S
C811 H803 0.930 . S
C811 C812 1.355 . S
C811 C813 1.415 . S
C812 C811 1.355 . S
C812 C814 1.419 . S
C813 C808 1.425 1_455 S
C813 C810 1.409 . S
C813 C811 1.415 . S
C814 H804 0.930 1_455 S
C814 C812 1.419 . S
C814 C815 1.362 1_455 S
C815 H805 0.930 . S
C815 C808 1.409 . S
C815 C814 1.362 1_655 S
H816 C822 0.930 . S
H817 C825 0.930 . S
H818 C826 0.930 . S
H819 C827 0.930 . S
H820 C830 0.930 . S
H821 C831 0.930 . S
C822 H816 0.930 . S
C822 C823 1.355 . S
C822 C824 1.415 . S
C823 C822 1.355 . S
C823 C825 1.419 . S
C824 C822 1.415 . S
C824 C829 1.425 . S
C824 C831 1.409 . S
C825 H817 0.930 . S
C825 C823 1.419 . S
C825 C826 1.362 . S
C826 H818 0.930 . S
C826 C825 1.362 . S
C826 C829 1.409 . S
C827 H819 0.930 . S
C827 C828 1.355 . S
C827 C829 1.415 . S
C828 C827 1.355 . S
C828 C830 1.419 . S
C829 C824 1.425 . S
C829 C826 1.409 . S
C829 C827 1.415 . S
C830 H820 0.930 . S
C830 C828 1.419 . S
C830 C831 1.362 . S
C831 H821 0.930 . S
C831 C824 1.409 . S
C831 C830 1.362 . S
H832 C838 0.930 . S
H833 C841 0.930 . S
H834 C842 0.930 . S
H835 C843 0.930 . S
H836 C846 0.930 . S
H837 C847 0.930 . S
C838 H832 0.930 . S
C838 C839 1.355 . S
C838 C840 1.415 . S
C839 C838 1.355 . S
C839 C841 1.419 . S
C840 C838 1.415 . S
C840 C845 1.425 . S
C840 C847 1.409 . S
C841 H833 0.930 . S
C841 C839 1.419 . S
C841 C842 1.362 . S
C842 H834 0.930 . S
C842 C841 1.362 . S
C842 C845 1.409 . S
C843 H835 0.930 . S
C843 C844 1.355 . S
C843 C845 1.415 . S
C844 C843 1.355 . S
C844 C846 1.419 . S
C845 C840 1.425 . S
C845 C842 1.409 . S
C845 C843 1.415 . S
C846 H836 0.930 . S
C846 C844 1.419 . S
C846 C847 1.362 . S
C847 H837 0.930 . S
C847 C840 1.409 . S
C847 C846 1.362 . S
H848 C854 0.930 . S
H849 C857 0.930 . S
H850 C858 0.930 . S
H851 C859 0.930 . S
H852 C862 0.930 . S
H853 C863 0.930 . S
C854 H848 0.930 . S
C854 C855 1.355 . S
C854 C856 1.415 . S
C855 C854 1.355 . S
C855 C857 1.419 . S
C856 C854 1.415 . S
C856 C861 1.425 . S
C856 C863 1.409 . S
C857 H849 0.930 . S
C857 C855 1.419 . S
C857 C858 1.362 . S
C858 H850 0.930 . S
C858 C857 1.362 . S
C858 C861 1.409 . S
C859 H851 0.930 . S
C859 C860 1.355 . S
C859 C861 1.415 . S
C860 C859 1.355 . S
C860 C862 1.419 . S
C861 C856 1.425 . S
C861 C858 1.409 . S
C861 C859 1.415 . S
C862 H852 0.930 . S
C862 C860 1.419 . S
C862 C863 1.362 . S
C863 H853 0.930 . S
C863 C856 1.409 . S
C863 C862 1.362 . S
H864 C870 0.930 . S
H865 C873 0.930 . S
H866 C874 0.930 . S
H867 C875 0.930 . S
H868 C878 0.930 . S
H869 C879 0.930 . S
C870 H864 0.930 . S
C870 C871 1.355 . S
C870 C872 1.415 . S
C871 C870 1.355 . S
C871 C873 1.419 . S
C872 C870 1.415 . S
C872 C877 1.425 . S
C872 C879 1.409 . S
C873 H865 0.930 . S
C873 C871 1.419 . S
C873 C874 1.362 . S
C874 H866 0.930 . S
C874 C873 1.362 . S
C874 C877 1.409 . S
C875 H867 0.930 . S
C875 C876 1.355 . S
C875 C877 1.415 . S
C876 C875 1.355 . S
C876 C878 1.419 . S
C877 C872 1.425 . S
C877 C874 1.409 . S
C877 C875 1.415 . S
C878 H868 0.930 . S
C878 C876 1.419 . S
C878 C879 1.362 . S
C879 H869 0.930 . S
C879 C872 1.409 . S
C879 C878 1.362 . S
H880 C886 0.930 . S
H881 C889 0.930 . S
H882 C890 0.930 . S
H883 C891 0.930 . S
H884 C894 0.930 . S
H885 C895 0.930 . S
C886 H880 0.930 . S
C886 C887 1.355 . S
C886 C888 1.415 . S
C887 C886 1.355 . S
C887 C889 1.419 . S
C888 C886 1.415 . S
C888 C893 1.425 1_545 S
C888 C895 1.409 1_545 S
C889 H881 0.930 . S
C889 C887 1.419 . S
C889 C890 1.362 . S
C890 H882 0.930 . S
C890 C889 1.362 . S
C890 C893 1.409 1_545 S
C891 H883 0.930 . S
C891 C892 1.355 . S
C891 C893 1.415 . S
C892 C891 1.355 . S
C892 C894 1.419 . S
C893 C888 1.425 1_565 S
C893 C890 1.409 1_565 S
C893 C891 1.415 . S
C894 H884 0.930 . S
C894 C892 1.419 . S
C894 C895 1.362 . S
C895 H885 0.930 . S
C895 C888 1.409 1_565 S
C895 C894 1.362 . S
H896 C902 0.930 . S
H897 C905 0.930 . S
H898 C906 0.930 . S
H899 C907 0.930 . S
H900 C910 0.930 . S
H901 C911 0.930 . S
C902 H896 0.930 . S
C902 C903 1.355 . S
C902 C904 1.415 . S
C903 C902 1.355 . S
C903 C905 1.419 . S
C904 C902 1.415 . S
C904 C909 1.425 . S
C904 C911 1.409 . S
C905 H897 0.930 . S
C905 C903 1.419 . S
C905 C906 1.362 . S
C906 H898 0.930 . S
C906 C905 1.362 . S
C906 C909 1.409 . S
C907 H899 0.930 . S
C907 C908 1.355 . S
C907 C909 1.415 . S
C908 C907 1.355 . S
C908 C910 1.419 . S
C909 C904 1.425 . S
C909 C906 1.409 . S
C909 C907 1.415 . S
C910 H900 0.930 . S
C910 C908 1.419 . S
C910 C911 1.362 . S
C911 H901 0.930 . S
C911 C904 1.409 . S
C911 C910 1.362 . S
H912 C918 0.930 . S
H913 C921 0.930 . S
H914 C922 0.930 . S
H915 C923 0.930 . S
H916 C926 0.930 . S
H917 C927 0.930 . S
C918 H912 0.930 . S
C918 C919 1.355 1_554 S
C918 C920 1.415 . S
C919 C918 1.355 1_556 S
C919 C921 1.419 . S
C920 C918 1.415 . S
C920 C925 1.425 1_554 S
C920 C927 1.409 . S
C921 H913 0.930 . S
C921 C919 1.419 . S
C921 C922 1.362 . S
C922 H914 0.930 . S
C922 C921 1.362 . S
C922 C925 1.409 . S
C923 H915 0.930 . S
C923 C924 1.355 1_556 S
C923 C925 1.415 . S
C924 C923 1.355 1_554 S
C924 C926 1.419 . S
C925 C920 1.425 1_556 S
C925 C922 1.409 . S
C925 C923 1.415 . S
C926 H916 0.930 . S
C926 C924 1.419 . S
C926 C927 1.362 . S
C927 H917 0.930 . S
C927 C920 1.409 . S
C927 C926 1.362 . S
H928 C934 0.930 . S
H929 C937 0.930 . S
H930 C938 0.930 . S
H931 C939 0.930 . S
H932 C942 0.930 . S
H933 C943 0.930 . S
C934 H928 0.930 . S
C934 C935 1.355 . S
C934 C936 1.415 . S
C935 C934 1.355 . S
C935 C937 1.419 . S
C936 C934 1.415 . S
C936 C941 1.425 . S
C936 C943 1.409 . S
C937 H929 0.930 . S
C937 C935 1.419 . S
C937 C938 1.362 . S
C938 H930 0.930 . S
C938 C937 1.362 . S
C938 C941 1.409 . S
C939 H931 0.930 . S
C939 C940 1.355 . S
C939 C941 1.415 . S
C940 C939 1.355 . S
C940 C942 1.419 . S
C941 C936 1.425 . S
C941 C938 1.409 . S
C941 C939 1.415 . S
C942 H932 0.930 . S
C942 C940 1.419 . S
C942 C943 1.362 . S
C943 H933 0.930 . S
C943 C936 1.409 . S
C943 C942 1.362 . S
H944 C950 0.930 . S
H945 C953 0.930 . S
H946 C954 0.930 . S
H947 C955 0.930 . S
H948 C958 0.930 . S
H949 C959 0.930 . S
C950 H944 0.930 . S
C950 C951 1.355 . S
C950 C952 1.415 . S
C951 C950 1.355 . S
C951 C953 1.419 . S
C952 C950 1.415 . S
C952 C957 1.425 . S
C952 C959 1.409 . S
C953 H945 0.930 . S
C953 C951 1.419 . S
C953 C954 1.362 . S
C954 H946 0.930 . S
C954 C953 1.362 . S
C954 C957 1.409 . S
C955 H947 0.930 . S
C955 C956 1.355 . S
C955 C957 1.415 . S
C956 C955 1.355 . S
C956 C958 1.419 . S
C957 C952 1.425 . S
C957 C954 1.409 . S
C957 C955 1.415 . S
C958 H948 0.930 . S
C958 C956 1.419 . S
C958 C959 1.362 . S
C959 H949 0.930 . S
C959 C952 1.409 . S
C959 C958 1.362 . S
H960 C966 0.930 . S
H961 C969 0.930 . S
H962 C970 0.930 . S
H963 C971 0.930 . S
H964 C974 0.930 . S
H965 C975 0.930 . S
C966 H960 0.930 . S
C966 C967 1.355 . S
C966 C968 1.415 . S
C967 C966 1.355 . S
C967 C969 1.419 . S
C968 C966 1.415 . S
C968 C973 1.425 . S
C968 C975 1.409 . S
C969 H961 0.930 . S
C969 C967 1.419 . S
C969 C970 1.362 . S
C970 H962 0.930 . S
C970 C969 1.362 . S
C970 C973 1.409 . S
C971 H963 0.930 . S
C971 C972 1.355 . S
C971 C973 1.415 . S
C972 C971 1.355 . S
C972 C974 1.419 . S
C973 C968 1.425 . S
C973 C970 1.409 . S
C973 C971 1.415 . S
C974 H964 0.930 . S
C974 C972 1.419 . S
C974 C975 1.362 . S
C975 H965 0.930 . S
C975 C968 1.409 . S
C975 C974 1.362 . S
H976 C982 0.930 . S
H977 C985 0.930 . S
H978 C986 0.930 . S
H979 C987 0.930 . S
H980 C990 0.930 . S
H981 C991 0.930 . S
C982 H976 0.930 . S
C982 C983 1.355 . S
C982 C984 1.415 . S
C983 C982 1.355 . S
C983 C985 1.419 . S
C984 C982 1.415 . S
C984 C989 1.425 . S
C984 C991 1.409 . S
C985 H977 0.930 . S
C985 C983 1.419 . S
C985 C986 1.362 . S
C986 H978 0.930 . S
C986 C985 1.362 . S
C986 C989 1.409 . S
C987 H979 0.930 . S
C987 C988 1.355 . S
C987 C989 1.415 . S
C988 C987 1.355 . S
C988 C990 1.419 . S
C989 C984 1.425 . S
C989 C986 1.409 . S
C989 C987 1.415 . S
C990 H980 0.930 . S
C990 C988 1.419 . S
C990 C991 1.362 . S
C991 H981 0.930 . S
C991 C984 1.409 . S
C991 C990 1.362 . S
H992 C998 0.930 . S
H993 C1001 0.930 . S
H994 C1002 0.930 . S
H995 C1003 0.930 . S
H996 C1006 0.930 . S
H997 C1007 0.930 . S
C998 H992 0.930 . S
C998 C999 1.355 . S
C998 C1000 1.415 . S
C999 C998 1.355 . S
C999 C1001 1.419 . S
C1000 C998 1.415 . S
C1000 C1005 1.425 . S
C1000 C1007 1.409 . S
C1001 H993 0.930 . S
C1001 C999 1.419 . S
C1001 C1002 1.362 . S
C1002 H994 0.930 . S
C1002 C1001 1.362 . S
C1002 C1005 1.409 . S
C1003 H995 0.930 . S
C1003 C1004 1.355 . S
C1003 C1005 1.415 . S
C1004 C1003 1.355 . S
C1004 C1006 1.419 . S
C1005 C1000 1.425 . S
C1005 C1002 1.409 . S
C1005 C1003 1.415 . S
C1006 H996 0.930 . S
C1006 C1004 1.419 . S
C1006 C1007 1.362 . S
C1007 H997 0.930 . S
C1007 C1000 1.409 . S
C1007 C1006 1.362 . S
H1008 C1014 0.930 . S
H1009 C1017 0.930 . S
H1010 C1018 0.930 . S
H1011 C1019 0.930 . S
H1012 C1022 0.930 . S
H1013 C1023 0.930 . S
C1014 H1008 0.930 . S
C1014 C1015 1.355 . S
C1014 C1016 1.415 . S
C1015 C1014 1.355 . S
C1015 C1017 1.419 . S
C1016 C1014 1.415 . S
C1016 C1021 1.425 . S
C1016 C1023 1.409 . S
C1017 H1009 0.930 . S
C1017 C1015 1.419 . S
C1017 C1018 1.362 . S
C1018 H1010 0.930 . S
C1018 C1017 1.362 . S
C1018 C1021 1.409 . S
C1019 H1011 0.930 . S
C1019 C1020 1.355 . S
C1019 C1021 1.415 . S
C1020 C1019 1.355 . S
C1020 C1022 1.419 . S
C1021 C1016 1.425 . S
C1021 C1018 1.409 . S
C1021 C1019 1.415 . S
C1022 H1012 0.930 . S
C1022 C1020 1.419 . S
C1022 C1023 1.362 . S
C1023 H1013 0.930 . S
C1023 C1016 1.409 . S
C1023 C1022 1.362 . S
H1024 C1030 0.930 . S
H1025 C1033 0.930 . S
H1026 C1034 0.930 . S
H1027 C1035 0.930 . S
H1028 C1038 0.930 . S
H1029 C1039 0.930 . S
C1030 H1024 0.930 . S
C1030 C1031 1.355 . S
C1030 C1032 1.415 . S
C1031 C1030 1.355 . S
C1031 C1033 1.419 . S
C1032 C1030 1.415 . S
C1032 C1037 1.425 . S
C1032 C1039 1.409 . S
C1033 H1025 0.930 . S
C1033 C1031 1.419 . S
C1033 C1034 1.362 . S
C1034 H1026 0.930 . S
C1034 C1033 1.362 . S
C1034 C1037 1.409 . S
C1035 H1027 0.930 . S
C1035 C1036 1.355 . S
C1035 C1037 1.415 . S
C1036 C1035 1.355 . S
C1036 C1038 1.419 . S
C1037 C1032 1.425 . S
C1037 C1034 1.409 . S
C1037 C1035 1.415 . S
C1038 H1028 0.930 . S
C1038 C1036 1.419 . S
C1038 C1039 1.362 . S
C1039 H1029 0.930 . S
C1039 C1032 1.409 . S
C1039 C1038 1.362 . S
H1040 C1046 0.930 . S
H1041 C1049 0.930 . S
H1042 C1050 0.930 . S
H1043 C1051 0.930 . S
H1044 C1054 0.930 . S
H1045 C1055 0.930 . S
C1046 H1040 0.930 . S
C1046 C1047 1.355 . S
C1046 C1048 1.415 . S
C1047 C1046 1.355 . S
C1047 C1049 1.419 . S
C1048 C1046 1.415 . S
C1048 C1053 1.425 . S
C1048 C1055 1.409 . S
C1049 H1041 0.930 . S
C1049 C1047 1.419 . S
C1049 C1050 1.362 . S
C1050 H1042 0.930 . S
C1050 C1049 1.362 . S
C1050 C1053 1.409 . S
C1051 H1043 0.930 . S
C1051 C1052 1.355 . S
C1051 C1053 1.415 . S
C1052 C1051 1.355 . S
C1052 C1054 1.419 . S
C1053 C1048 1.425 . S
C1053 C1050 1.409 . S
C1053 C1051 1.415 . S
C1054 H1044 0.930 . S
C1054 C1052 1.419 . S
C1054 C1055 1.362 . S
C1055 H1045 0.930 . S
C1055 C1048 1.409 . S
C1055 C1054 1.362 . S
H1056 C1062 0.930 . S
H1057 C1065 0.930 . S
H1058 C1066 0.930 . S
H1059 C1067 0.930 . S
H1060 C1070 0.930 . S
H1061 C1071 0.930 . S
C1062 H1056 0.930 . S
C1062 C1063 1.355 . S
C1062 C1064 1.415 . S
C1063 C1062 1.355 . S
C1063 C1065 1.419 . S
C1064 C1062 1.415 . S
C1064 C1069 1.425 . S
C1064 C1071 1.409 . S
C1065 H1057 0.930 . S
C1065 C1063 1.419 . S
C1065 C1066 1.362 . S
C1066 H1058 0.930 . S
C1066 C1065 1.362 . S
C1066 C1069 1.409 . S
C1067 H1059 0.930 . S
C1067 C1068 1.355 . S
C1067 C1069 1.415 . S
C1068 C1067 1.355 . S
C1068 C1070 1.419 . S
C1069 C1064 1.425 . S
C1069 C1066 1.409 . S
C1069 C1067 1.415 . S
C1070 H1060 0.930 . S
C1070 C1068 1.419 . S
C1070 C1071 1.362 . S
C1071 H1061 0.930 . S
C1071 C1064 1.409 . S
C1071 C1070 1.362 . S
H1072 C1078 0.930 . S
H1073 C1081 0.930 . S
H1074 C1082 0.930 . S
H1075 C1083 0.930 . S
H1076 C1086 0.930 . S
H1077 C1087 0.930 . S
C1078 H1072 0.930 . S
C1078 C1079 1.355 . S
C1078 C1080 1.415 . S
C1079 C1078 1.355 . S
C1079 C1081 1.419 . S
C1080 C1078 1.415 . S
C1080 C1085 1.425 . S
C1080 C1087 1.409 . S
C1081 H1073 0.930 . S
C1081 C1079 1.419 . S
C1081 C1082 1.362 . S
C1082 H1074 0.930 . S
C1082 C1081 1.362 . S
C1082 C1085 1.409 . S
C1083 H1075 0.930 . S
C1083 C1084 1.355 . S
C1083 C1085 1.415 . S
C1084 C1083 1.355 . S
C1084 C1086 1.419 . S
C1085 C1080 1.425 . S
C1085 C1082 1.409 . S
C1085 C1083 1.415 . S
C1086 H1076 0.930 . S
C1086 C1084 1.419 . S
C1086 C1087 1.362 . S
C1087 H1077 0.930 . S
C1087 C1080 1.409 . S
C1087 C1086 1.362 . S
H1088 C1094 0.930 . S
H1089 C1097 0.930 . S
H1090 C1098 0.930 . S
H1091 C1099 0.930 . S
H1092 C1102 0.930 . S
H1093 C1103 0.930 . S
C1094 H1088 0.930 . S
C1094 C1095 1.355 . S
C1094 C1096 1.415 . S
C1095 C1094 1.355 . S
C1095 C1097 1.419 . S
C1096 C1094 1.415 . S
C1096 C1101 1.425 . S
C1096 C1103 1.409 . S
C1097 H1089 0.930 . S
C1097 C1095 1.419 . S
C1097 C1098 1.362 . S
C1098 H1090 0.930 . S
C1098 C1097 1.362 . S
C1098 C1101 1.409 . S
C1099 H1091 0.930 . S
C1099 C1100 1.355 . S
C1099 C1101 1.415 . S
C1100 C1099 1.355 . S
C1100 C1102 1.419 . S
C1101 C1096 1.425 . S
C1101 C1098 1.409 . S
C1101 C1099 1.415 . S
C1102 H1092 0.930 . S
C1102 C1100 1.419 . S
C1102 C1103 1.362 . S
C1103 H1093 0.930 . S
C1103 C1096 1.409 . S
C1103 C1102 1.362 . S
H1104 C1110 0.930 . S
H1105 C1113 0.930 . S
H1106 C1114 0.930 . S
H1107 C1115 0.930 . S
H1108 C1118 0.930 . S
H1109 C1119 0.930 . S
C1110 H1104 0.930 . S
C1110 C1111 1.355 . S
C1110 C1112 1.415 . S
C1111 C1110 1.355 . S
C1111 C1113 1.419 . S
C1112 C1110 1.415 . S
C1112 C1117 1.425 . S
C1112 C1119 1.409 . S
C1113 H1105 0.930 . S
C1113 C1111 1.419 . S
C1113 C1114 1.362 . S
C1114 H1106 0.930 . S
C1114 C1113 1.362 . S
C1114 C1117 1.409 . S
C1115 H1107 0.930 . S
C1115 C1116 1.355 . S
C1115 C1117 1.415 . S
C1116 C1115 1.355 . S
C1116 C1118 1.419 . S
C1117 C1112 1.425 . S
C1117 C1114 1.409 . S
C1117 C1115 1.415 . S
C1118 H1108 0.930 . S
C1118 C1116 1.419 . S
C1118 C1119 1.362 . S
C1119 H1109 0.930 . S
C1119 C1112 1.409 . S
C1119 C1118 1.362 . S
H1120 C1126 0.930 . S
H1121 C1129 0.930 . S
H1122 C1130 0.930 . S
H1123 C1131 0.930 . S
H1124 C1134 0.930 . S
H1125 C1135 0.930 . S
C1126 H1120 0.930 . S
C1126 C1127 1.355 . S
C1126 C1128 1.415 . S
C1127 C1126 1.355 . S
C1127 C1129 1.419 . S
C1128 C1126 1.415 . S
C1128 C1133 1.425 . S
C1128 C1135 1.409 . S
C1129 H1121 0.930 . S
C1129 C1127 1.419 . S
C1129 C1130 1.362 . S
C1130 H1122 0.930 . S
C1130 C1129 1.362 . S
C1130 C1133 1.409 . S
C1131 H1123 0.930 . S
C1131 C1132 1.355 . S
C1131 C1133 1.415 . S
C1132 C1131 1.355 . S
C1132 C1134 1.419 . S
C1133 C1128 1.425 . S
C1133 C1130 1.409 . S
C1133 C1131 1.415 . S
C1134 H1124 0.930 . S
C1134 C1132 1.419 . S
C1134 C1135 1.362 . S
C1135 H1125 0.930 . S
C1135 C1128 1.409 . S
C1135 C1134 1.362 . S
H1136 C1142 0.930 . S
H1137 C1145 0.930 . S
H1138 C1146 0.930 . S
H1139 C1147 0.930 . S
H1140 C1150 0.930 . S
H1141 C1151 0.930 . S
C1142 H1136 0.930 . S
C1142 C1143 1.355 . S
C1142 C1144 1.415 . S
C1143 C1142 1.355 . S
C1143 C1145 1.419 . S
C1144 C1142 1.415 . S
C1144 C1149 1.425 . S
C1144 C1151 1.409 . S
C1145 H1137 0.930 . S
C1145 C1143 1.419 . S
C1145 C1146 1.362 . S
C1146 H1138 0.930 . S
C1146 C1145 1.362 . S
C1146 C1149 1.409 . S
C1147 H1139 0.930 . S
C1147 C1148 1.355 . S
C1147 C1149 1.415 . S
C1148 C1147 1.355 . S
C1148 C1150 1.419 . S
C1149 C1144 1.425 . S
C1149 C1146 1.409 . S
C1149 C1147 1.415 . S
C1150 H1140 0.930 . S
C1150 C1148 1.419 . S
C1150 C1151 1.362 . S
C1151 H1141 0.930 . S
C1151 C1144 1.409 . S
C1151 C1150 1.362 . S
H1152 C1158 0.930 . S
H1153 C1161 0.930 . S
H1154 C1162 0.930 . S
H1155 C1163 0.930 . S
H1156 C1166 0.930 . S
H1157 C1167 0.930 . S
C1158 H1152 0.930 . S
C1158 C1159 1.355 . S
C1158 C1160 1.415 . S
C1159 C1158 1.355 . S
C1159 C1161 1.419 . S
C1160 C1158 1.415 . S
C1160 C1165 1.425 . S
C1160 C1167 1.409 . S
C1161 H1153 0.930 . S
C1161 C1159 1.419 . S
C1161 C1162 1.362 . S
C1162 H1154 0.930 . S
C1162 C1161 1.362 . S
C1162 C1165 1.409 . S
C1163 H1155 0.930 . S
C1163 C1164 1.355 . S
C1163 C1165 1.415 . S
C1164 C1163 1.355 . S
C1164 C1166 1.419 . S
C1165 C1160 1.425 . S
C1165 C1162 1.409 . S
C1165 C1163 1.415 . S
C1166 H1156 0.930 . S
C1166 C1164 1.419 . S
C1166 C1167 1.362 . S
C1167 H1157 0.930 . S
C1167 C1160 1.409 . S
C1167 C1166 1.362 . S
H1168 C1174 0.930 . S
H1169 C1177 0.930 . S
H1170 C1178 0.930 . S
H1171 C1179 0.930 . S
H1172 C1182 0.930 . S
H1173 C1183 0.930 . S
C1174 H1168 0.930 . S
C1174 C1175 1.355 . S
C1174 C1176 1.415 . S
C1175 C1174 1.355 . S
C1175 C1177 1.419 . S
C1176 C1174 1.415 . S
C1176 C1181 1.425 . S
C1176 C1183 1.409 . S
C1177 H1169 0.930 . S
C1177 C1175 1.419 . S
C1177 C1178 1.362 . S
C1178 H1170 0.930 . S
C1178 C1177 1.362 . S
C1178 C1181 1.409 . S
C1179 H1171 0.930 . S
C1179 C1180 1.355 . S
C1179 C1181 1.415 . S
C1180 C1179 1.355 . S
C1180 C1182 1.419 . S
C1181 C1176 1.425 . S
C1181 C1178 1.409 . S
C1181 C1179 1.415 . S
C1182 H1172 0.930 . S
C1182 C1180 1.419 . S
C1182 C1183 1.362 . S
C1183 H1173 0.930 . S
C1183 C1176 1.409 . S
C1183 C1182 1.362 . S
H1184 C1190 0.930 . S
H1185 C1193 0.930 . S
H1186 C1194 0.930 . S
H1187 C1195 0.930 . S
H1188 C1198 0.930 . S
H1189 C1199 0.930 . S
C1190 H1184 0.930 . S
C1190 C1191 1.355 . S
C1190 C1192 1.415 . S
C1191 C1190 1.355 . S
C1191 C1193 1.419 . S
C1192 C1190 1.415 . S
C1192 C1197 1.425 . S
C1192 C1199 1.409 . S
C1193 H1185 0.930 . S
C1193 C1191 1.419 . S
C1193 C1194 1.362 . S
C1194 H1186 0.930 . S
C1194 C1193 1.362 . S
C1194 C1197 1.409 . S
C1195 H1187 0.930 . S
C1195 C1196 1.355 . S
C1195 C1197 1.415 . S
C1196 C1195 1.355 . S
C1196 C1198 1.419 . S
C1197 C1192 1.425 . S
C1197 C1194 1.409 . S
C1197 C1195 1.415 . S
C1198 H1188 0.930 . S
C1198 C1196 1.419 . S
C1198 C1199 1.362 . S
C1199 H1189 0.930 . S
C1199 C1192 1.409 . S
C1199 C1198 1.362 . S
H1200 C1206 0.930 . S
H1201 C1209 0.930 . S
H1202 C1210 0.930 . S
H1203 C1211 0.930 . S
H1204 C1214 0.930 . S
H1205 C1215 0.930 . S
C1206 H1200 0.930 . S
C1206 C1207 1.355 . S
C1206 C1208 1.415 . S
C1207 C1206 1.355 . S
C1207 C1209 1.419 . S
C1208 C1206 1.415 . S
C1208 C1213 1.425 . S
C1208 C1215 1.409 . S
C1209 H1201 0.930 . S
C1209 C1207 1.419 . S
C1209 C1210 1.362 . S
C1210 H1202 0.930 . S
C1210 C1209 1.362 . S
C1210 C1213 1.409 . S
C1211 H1203 0.930 . S
C1211 C1212 1.355 . S
C1211 C1213 1.415 . S
C1212 C1211 1.355 . S
C1212 C1214 1.419 . S
C1213 C1208 1.425 . S
C1213 C1210 1.409 . S
C1213 C1211 1.415 . S
C1214 H1204 0.930 . S
C1214 C1212 1.419 . S
C1214 C1215 1.362 . S
C1215 H1205 0.930 . S
C1215 C1208 1.409 . S
C1215 C1214 1.362 . S
H1216 C1222 0.930 . S
H1217 C1225 0.930 . S
H1218 C1226 0.930 . S
H1219 C1227 0.930 . S
H1220 C1230 0.930 . S
H1221 C1231 0.930 . S
C1222 H1216 0.930 . S
C1222 C1223 1.355 1_556 S
C1222 C1224 1.418 . S
C1223 C1222 1.355 1_554 S
C1223 C1225 1.419 . S
C1224 C1222 1.418 . S
C1224 C1229 1.414 1_556 S
C1224 C1231 1.418 . S
C1225 H1217 0.930 . S
C1225 C1223 1.419 . S
C1225 C1226 1.362 . S
C1226 H1218 0.930 . S
C1226 C1225 1.362 . S
C1226 C1229 1.409 . S
C1227 H1219 0.930 . S
C1227 C1228 1.355 . S
C1227 C1229 1.415 . S
C1228 C1227 1.355 . S
C1228 C1230 1.419 1_554 S
C1229 C1224 1.414 1_554 S
C1229 C1226 1.409 . S
C1229 C1227 1.415 . S
C1230 H1220 0.930 . S
C1230 C1228 1.419 1_556 S
C1230 C1231 1.362 . S
C1231 H1221 0.930 . S
C1231 C1224 1.418 . S
C1231 C1230 1.362 . S
H1232 C1238 0.930 . S
H1233 C1241 0.928 1_556 S
H1234 C1242 0.933 . S
H1235 C1243 0.927 1_556 S
H1236 C1246 0.930 . S
H1237 C1247 0.930 . S
C1238 H1232 0.930 . S
C1238 C1239 1.355 . S
C1238 C1240 1.415 . S
C1239 C1238 1.355 . S
C1239 C1241 1.421 . S
C1240 C1238 1.415 . S
C1240 C1245 1.425 . S
C1240 C1247 1.409 . S
C1241 H1233 0.928 1_554 S
C1241 C1239 1.421 . S
C1241 C1242 1.362 1_554 S
C1242 H1234 0.933 . S
C1242 C1241 1.362 1_556 S
C1242 C1245 1.408 1_556 S
C1243 H1235 0.927 1_554 S
C1243 C1244 1.357 . S
C1243 C1245 1.416 . S
C1244 C1243 1.357 . S
C1244 C1246 1.419 . S
C1245 C1240 1.425 . S
C1245 C1242 1.408 1_554 S
C1245 C1243 1.416 . S
C1246 H1236 0.930 . S
C1246 C1244 1.419 . S
C1246 C1247 1.362 . S
C1247 H1237 0.930 . S
C1247 C1240 1.409 . S
C1247 C1246 1.362 . S
H1248 C1254 0.930 . S
H1249 C1257 0.930 . S
H1250 C1258 0.930 . S
H1251 C1259 0.930 . S
H1252 C1262 0.930 . S
H1253 C1263 0.930 . S
C1254 H1248 0.930 . S
C1254 C1255 1.355 . S
C1254 C1256 1.415 . S
C1255 C1254 1.355 . S
C1255 C1257 1.419 . S
C1256 C1254 1.415 . S
C1256 C1261 1.425 . S
C1256 C1263 1.409 . S
C1257 H1249 0.930 . S
C1257 C1255 1.419 . S
C1257 C1258 1.362 . S
C1258 H1250 0.930 . S
C1258 C1257 1.362 . S
C1258 C1261 1.409 . S
C1259 H1251 0.930 . S
C1259 C1260 1.355 . S
C1259 C1261 1.415 . S
C1260 C1259 1.355 . S
C1260 C1262 1.419 . S
C1261 C1256 1.425 . S
C1261 C1258 1.409 . S
C1261 C1259 1.415 . S
C1262 H1252 0.930 . S
C1262 C1260 1.419 . S
C1262 C1263 1.362 . S
C1263 H1253 0.930 . S
C1263 C1256 1.409 . S
C1263 C1262 1.362 . S
H1264 C1270 0.930 . S
H1265 C1273 0.930 . S
H1266 C1274 0.930 . S
H1267 C1275 0.930 . S
H1268 C1278 0.930 . S
H1269 C1279 0.930 . S
C1270 H1264 0.930 . S
C1270 C1271 1.355 . S
C1270 C1272 1.415 . S
C1271 C1270 1.355 . S
C1271 C1273 1.419 . S
C1272 C1270 1.415 . S
C1272 C1277 1.425 . S
C1272 C1279 1.409 . S
C1273 H1265 0.930 . S
C1273 C1271 1.419 . S
C1273 C1274 1.362 . S
C1274 H1266 0.930 . S
C1274 C1273 1.362 . S
C1274 C1277 1.409 . S
C1275 H1267 0.930 . S
C1275 C1276 1.355 . S
C1275 C1277 1.415 . S
C1276 C1275 1.355 . S
C1276 C1278 1.419 . S
C1277 C1272 1.425 . S
C1277 C1274 1.409 . S
C1277 C1275 1.415 . S
C1278 H1268 0.930 . S
C1278 C1276 1.419 . S
C1278 C1279 1.362 . S
C1279 H1269 0.930 . S
C1279 C1272 1.409 . S
C1279 C1278 1.362 . S
H1280 C1286 0.930 . S
H1281 C1289 0.927 1_554 S
H1282 C1290 0.931 . S
H1283 C1291 0.926 1_554 S
H1284 C1294 0.930 . S
H1285 C1295 0.930 . S
C1286 H1280 0.930 . S
C1286 C1287 1.355 . S
C1286 C1288 1.415 . S
C1287 C1286 1.355 . S
C1287 C1289 1.423 . S
C1288 C1286 1.415 . S
C1288 C1293 1.425 . S
C1288 C1295 1.409 . S
C1289 H1281 0.927 1_556 S
C1289 C1287 1.423 . S
C1289 C1290 1.362 1_556 S
C1290 H1282 0.931 . S
C1290 C1289 1.362 1_554 S
C1290 C1293 1.409 1_554 S
C1291 H1283 0.926 1_556 S
C1291 C1292 1.358 . S
C1291 C1293 1.416 . S
C1292 C1291 1.358 . S
C1292 C1294 1.419 . S
C1293 C1288 1.425 . S
C1293 C1290 1.409 1_556 S
C1293 C1291 1.416 . S
C1294 H1284 0.930 . S
C1294 C1292 1.419 . S
C1294 C1295 1.362 . S
C1295 H1285 0.930 . S
C1295 C1288 1.409 . S
C1295 C1294 1.362 . S
H1296 C1302 0.930 . S
H1297 C1305 0.935 . S
H1298 C1306 0.930 . S
H1299 C1307 0.931 . S
H1300 C1310 0.930 . S
H1301 C1311 0.930 . S
C1302 H1296 0.930 . S
C1302 C1303 1.355 . S
C1302 C1304 1.415 . S
C1303 C1302 1.355 . S
C1303 C1305 1.414 1_556 S
C1304 C1302 1.415 . S
C1304 C1309 1.425 . S
C1304 C1311 1.409 . S
C1305 H1297 0.935 . S
C1305 C1303 1.414 1_554 S
C1305 C1306 1.364 . S
C1306 H1298 0.930 . S
C1306 C1305 1.364 . S
C1306 C1309 1.409 1_554 S
C1307 H1299 0.931 . S
C1307 C1308 1.354 1_554 S
C1307 C1309 1.414 1_554 S
C1308 C1307 1.354 1_556 S
C1308 C1310 1.419 . S
C1309 C1304 1.425 . S
C1309 C1306 1.409 1_556 S
C1309 C1307 1.414 1_556 S
C1310 H1300 0.930 . S
C1310 C1308 1.419 . S
C1310 C1311 1.362 . S
C1311 H1301 0.930 . S
C1311 C1304 1.409 . S
C1311 C1310 1.362 . S
H1312 C1318 0.930 . S
H1313 C1321 0.930 . S
H1314 C1322 0.930 . S
H1315 C1323 0.930 . S
H1316 C1326 0.930 . S
H1317 C1327 0.930 . S
C1318 H1312 0.930 . S
C1318 C1319 1.355 . S
C1318 C1320 1.415 . S
C1319 C1318 1.355 . S
C1319 C1321 1.419 . S
C1320 C1318 1.415 . S
C1320 C1325 1.425 . S
C1320 C1327 1.409 . S
C1321 H1313 0.930 . S
C1321 C1319 1.419 . S
C1321 C1322 1.362 . S
C1322 H1314 0.930 . S
C1322 C1321 1.362 . S
C1322 C1325 1.409 . S
C1323 H1315 0.930 . S
C1323 C1324 1.355 . S
C1323 C1325 1.415 . S
C1324 C1323 1.355 . S
C1324 C1326 1.419 . S
C1325 C1320 1.425 . S
C1325 C1322 1.409 . S
C1325 C1323 1.415 . S
C1326 H1316 0.930 . S
C1326 C1324 1.419 . S
C1326 C1327 1.362 . S
C1327 H1317 0.930 . S
C1327 C1320 1.409 . S
C1327 C1326 1.362 . S
H1328 C1334 0.930 . S
H1329 C1337 0.930 . S
H1330 C1338 0.930 . S
H1331 C1339 0.930 . S
H1332 C1342 0.930 . S
H1333 C1343 0.930 . S
C1334 H1328 0.930 . S
C1334 C1335 1.355 . S
C1334 C1336 1.415 . S
C1335 C1334 1.355 . S
C1335 C1337 1.419 . S
C1336 C1334 1.415 . S
C1336 C1341 1.425 . S
C1336 C1343 1.409 . S
C1337 H1329 0.930 . S
C1337 C1335 1.419 . S
C1337 C1338 1.362 . S
C1338 H1330 0.930 . S
C1338 C1337 1.362 . S
C1338 C1341 1.409 . S
C1339 H1331 0.930 . S
C1339 C1340 1.355 . S
C1339 C1341 1.415 . S
C1340 C1339 1.355 . S
C1340 C1342 1.419 . S
C1341 C1336 1.425 . S
C1341 C1338 1.409 . S
C1341 C1339 1.415 . S
C1342 H1332 0.930 . S
C1342 C1340 1.419 . S
C1342 C1343 1.362 . S
C1343 H1333 0.930 . S
C1343 C1336 1.409 . S
C1343 C1342 1.362 . S
H1344 C1350 0.930 . S
H1345 C1353 0.930 . S
H1346 C1354 0.930 . S
H1347 C1355 0.930 . S
H1348 C1358 0.930 . S
H1349 C1359 0.930 . S
C1350 H1344 0.930 . S
C1350 C1351 1.355 . S
C1350 C1352 1.415 . S
C1351 C1350 1.355 . S
C1351 C1353 1.419 . S
C1352 C1350 1.415 . S
C1352 C1357 1.425 . S
C1352 C1359 1.409 . S
C1353 H1345 0.930 . S
C1353 C1351 1.419 . S
C1353 C1354 1.362 . S
C1354 H1346 0.930 . S
C1354 C1353 1.362 . S
C1354 C1357 1.409 . S
C1355 H1347 0.930 . S
C1355 C1356 1.355 . S
C1355 C1357 1.415 . S
C1356 C1355 1.355 . S
C1356 C1358 1.419 . S
C1357 C1352 1.425 . S
C1357 C1354 1.409 . S
C1357 C1355 1.415 . S
C1358 H1348 0.930 . S
C1358 C1356 1.419 . S
C1358 C1359 1.362 . S
C1359 H1349 0.930 . S
C1359 C1352 1.409 . S
C1359 C1358 1.362 . S
H1360 C1366 0.930 . S
H1361 C1369 0.930 . S
H1362 C1370 0.930 . S
H1363 C1371 0.930 . S
H1364 C1374 0.930 . S
H1365 C1375 0.930 . S
C1366 H1360 0.930 . S
C1366 C1367 1.355 . S
C1366 C1368 1.415 . S
C1367 C1366 1.355 . S
C1367 C1369 1.419 . S
C1368 C1366 1.415 . S
C1368 C1373 1.425 . S
C1368 C1375 1.409 . S
C1369 H1361 0.930 . S
C1369 C1367 1.419 . S
C1369 C1370 1.362 . S
C1370 H1362 0.930 . S
C1370 C1369 1.362 . S
C1370 C1373 1.409 . S
C1371 H1363 0.930 . S
C1371 C1372 1.355 . S
C1371 C1373 1.415 . S
C1372 C1371 1.355 . S
C1372 C1374 1.419 . S
C1373 C1368 1.425 . S
C1373 C1370 1.409 . S
C1373 C1371 1.415 . S
C1374 H1364 0.930 . S
C1374 C1372 1.419 . S
C1374 C1375 1.362 . S
C1375 H1365 0.930 . S
C1375 C1368 1.409 . S
C1375 C1374 1.362 . S
H1376 C1382 0.930 . S
H1377 C1385 0.930 . S
H1378 C1386 0.930 . S
H1379 C1387 0.930 . S
H1380 C1390 0.930 . S
H1381 C1391 0.930 . S
C1382 H1376 0.930 . S
C1382 C1383 1.355 . S
C1382 C1384 1.415 . S
C1383 C1382 1.355 . S
C1383 C1385 1.419 . S
C1384 C1382 1.415 . S
C1384 C1389 1.425 . S
C1384 C1391 1.409 . S
C1385 H1377 0.930 . S
C1385 C1383 1.419 . S
C1385 C1386 1.362 . S
C1386 H1378 0.930 . S
C1386 C1385 1.362 . S
C1386 C1389 1.409 . S
C1387 H1379 0.930 . S
C1387 C1388 1.355 . S
C1387 C1389 1.415 . S
C1388 C1387 1.355 . S
C1388 C1390 1.419 . S
C1389 C1384 1.425 . S
C1389 C1386 1.409 . S
C1389 C1387 1.415 . S
C1390 H1380 0.930 . S
C1390 C1388 1.419 . S
C1390 C1391 1.362 . S
C1391 H1381 0.930 . S
C1391 C1384 1.409 . S
C1391 C1390 1.362 . S
H1392 C1398 0.930 . S
H1393 C1401 0.930 . S
H1394 C1402 0.930 . S
H1395 C1403 0.930 . S
H1396 C1406 0.930 . S
H1397 C1407 0.930 . S
C1398 H1392 0.930 . S
C1398 C1399 1.355 . S
C1398 C1400 1.415 . S
C1399 C1398 1.355 . S
C1399 C1401 1.419 . S
C1400 C1398 1.415 . S
C1400 C1405 1.425 . S
C1400 C1407 1.409 . S
C1401 H1393 0.930 . S
C1401 C1399 1.419 . S
C1401 C1402 1.362 . S
C1402 H1394 0.930 . S
C1402 C1401 1.362 . S
C1402 C1405 1.409 . S
C1403 H1395 0.930 . S
C1403 C1404 1.355 . S
C1403 C1405 1.415 . S
C1404 C1403 1.355 . S
C1404 C1406 1.419 . S
C1405 C1400 1.425 . S
C1405 C1402 1.409 . S
C1405 C1403 1.415 . S
C1406 H1396 0.930 . S
C1406 C1404 1.419 . S
C1406 C1407 1.362 . S
C1407 H1397 0.930 . S
C1407 C1400 1.409 . S
C1407 C1406 1.362 . S
H1408 C1414 0.930 . S
H1409 C1417 0.930 . S
H1410 C1418 0.930 . S
H1411 C1419 0.930 . S
H1412 C1422 0.930 . S
H1413 C1423 0.930 . S
C1414 H1408 0.930 . S
C1414 C1415 1.355 . S
C1414 C1416 1.415 . S
C1415 C1414 1.355 . S
C1415 C1417 1.419 . S
C1416 C1414 1.415 . S
C1416 C1421 1.425 . S
C1416 C1423 1.409 . S
C1417 H1409 0.930 . S
C1417 C1415 1.419 . S
C1417 C1418 1.362 . S
C1418 H1410 0.930 . S
C1418 C1417 1.362 . S
C1418 C1421 1.409 . S
C1419 H1411 0.930 . S
C1419 C1420 1.355 . S
C1419 C1421 1.415 . S
C1420 C1419 1.355 . S
C1420 C1422 1.419 . S
C1421 C1416 1.425 . S
C1421 C1418 1.409 . S
C1421 C1419 1.415 . S
C1422 H1412 0.930 . S
C1422 C1420 1.419 . S
C1422 C1423 1.362 . S
C1423 H1413 0.930 . S
C1423 C1416 1.409 . S
C1423 C1422 1.362 . S
H1424 C1430 0.930 . S
H1425 C1433 0.930 . S
H1426 C1434 0.930 . S
H1427 C1435 0.930 . S
H1428 C1438 0.930 . S
H1429 C1439 0.930 . S
C1430 H1424 0.930 . S
C1430 C1431 1.355 . S
C1430 C1432 1.415 . S
C1431 C1430 1.355 . S
C1431 C1433 1.419 . S
C1432 C1430 1.415 . S
C1432 C1437 1.425 . S
C1432 C1439 1.409 . S
C1433 H1425 0.930 . S
C1433 C1431 1.419 . S
C1433 C1434 1.362 . S
C1434 H1426 0.930 . S
C1434 C1433 1.362 . S
C1434 C1437 1.409 . S
C1435 H1427 0.930 . S
C1435 C1436 1.355 . S
C1435 C1437 1.415 . S
C1436 C1435 1.355 . S
C1436 C1438 1.419 . S
C1437 C1432 1.425 . S
C1437 C1434 1.409 . S
C1437 C1435 1.415 . S
C1438 H1428 0.930 . S
C1438 C1436 1.419 . S
C1438 C1439 1.362 . S
C1439 H1429 0.930 . S
C1439 C1432 1.409 . S
C1439 C1438 1.362 . S
C423 C1 1.508 . S
C428 C40 1.520 . S
C439 C27 1.518 . S
C444 C14 1.519 . S
C455 C53 1.465 . S
C460 C92 1.504 . S
C471 C79 1.502 . S
C476 C66 1.511 . S
C487 C105 1.472 . S
C492 C144 1.478 . S
C503 C131 1.475 . S
C508 C118 1.481 . S
C519 C157 1.426 . S
C524 C196 1.446 . S
C535 C170 1.429 . S
C540 C183 1.437 . S
C551 C248 1.468 . S
C556 C209 1.472 . S
C567 C222 1.480 . S
C572 C235 1.483 . S
C583 C261 1.440 . S
C588 C300 1.428 . S
C599 C287 1.472 . S
C604 C274 1.466 . S
C615 C313 1.517 . S
C620 C352 1.518 . S
C631 C339 1.513 . S
C636 C326 1.523 . S
C647 C365 1.483 . S
C652 C404 1.516 . S
C663 C378 1.508 . S
C668 C391 1.505 . S
C679 C161 1.846 . S
C684 C5 1.705 . S
C695 C18 1.750 . S
C700 C278 1.868 . S
C711 C31 1.656 . S
C716 C83 1.797 . S
C727 C408 1.789 . S
C732 C44 1.642 . S
C743 C57 1.837 . S
C748 C109 1.685 . S
C759 C226 1.750 . S
C764 C70 1.866 . S
C775 C356 1.677 1_554 S
C780 C96 1.804 1_556 S
C791 C382 1.875 . S
C796 C122 1.769 . S
C807 C187 1.831 . S
C812 C135 1.729 . S
C823 C304 1.804 . S
C828 C148 1.670 . S
C839 C174 1.838 . S
C844 C330 1.687 . S
C855 C252 1.691 . S
C860 C200 1.813 . S
C871 C369 1.856 . S
C876 C213 1.727 . S
C887 C291 1.818 . S
C892 C239 1.696 . S
C903 C317 1.689 . S
C908 C265 1.840 . S
C919 C343 1.715 . S
C924 C395 1.823 . S
C935 C133 1.685 . S
C940 C3 1.682 . S
C951 C16 1.682 . S
C956 C146 1.684 . S
C967 C107 1.651 . S
C972 C29 1.648 . S
C983 C120 1.652 . S
C988 C42 1.647 . S
C999 C55 1.615 . S
C1004 C185 1.621 . S
C1015 C68 1.631 . S
C1020 C198 1.614 . S
C1031 C159 1.583 . S
C1036 C81 1.590 . S
C1047 C94 1.637 . S
C1052 C172 1.623 . S
C1063 C341 1.652 . S
C1068 C211 1.647 . S
C1079 C354 1.649 . S
C1084 C224 1.649 . S
C1095 C237 1.683 . S
C1100 C315 1.682 . S
C1111 C250 1.681 . S
C1116 C328 1.684 . S
C1127 C263 1.601 . S
C1132 C393 1.577 . S
C1143 C276 1.596 . S
C1148 C406 1.612 . S
C1159 C367 1.667 . S
C1164 C289 1.663 . S
C1175 C380 1.615 . S
C1180 C302 1.619 . S
C1191 C10 1.910 . S
C1196 C335 1.910 . S
C1207 C322 1.912 . S
C1212 C23 1.912 1_655 S
C1223 C36 1.938 . S
C1228 C361 1.938 . S
C1239 C49 1.865 1_655 S
C1244 C348 1.865 . S
C1255 C62 2.063 . S
C1260 C387 2.062 . S
C1271 C75 2.057 1_455 S
C1276 C374 2.055 . S
C1287 C413 2.017 . S
C1292 C88 2.017 . S
C1303 C400 2.017 . S
C1308 C101 2.017 1_455 S
C1319 C231 1.970 . S
C1324 C114 1.970 . S
C1335 C218 1.958 . S
C1340 C127 1.958 1_655 S
C1351 C140 1.867 . S
C1356 C257 1.867 . S
C1367 C153 1.922 1_655 S
C1372 C244 1.921 . S
C1383 C283 2.058 . S
C1388 C166 2.057 . S
C1399 C179 2.032 1_455 S
C1404 C270 2.034 . S
C1415 C192 2.011 . S
C1420 C309 2.009 . S
C1431 C205 2.010 1_455 S
C1436 C296 2.008 . S
