# Generated by pormake.
# Topology oob, (7)-cn, num edge types: 1
# Building blocks:
#     Node 0, Type 0, BuildingBlock: HICVOG_clean_sbu_0, # of connection points: 7
#     Node 1, Type 0, BuildingBlock: HICVOG_clean_sbu_0, # of connection points: 7
#     Node 2, Type 0, BuildingBlock: HICVOG_clean_sbu_0, # of connection points: 7
#     Node 3, Type 0, BuildingBlock: HICVOG_clean_sbu_0, # of connection points: 7
#     Edge 4, Type (0, 0), BuildingBlock: FUNLAD_clean_linker_0, # of connection points: 2
#     Edge 5, Type (0, 0), BuildingBlock: FUNLAD_clean_linker_0, # of connection points: 2
#     Edge 6, Type (0, 0), BuildingBlock: FUNLAD_clean_linker_0, # of connection points: 2
#     Edge 7, Type (0, 0), BuildingBlock: FUNLAD_clean_linker_0, # of connection points: 2
#     Edge 8, Type (0, 0), BuildingBlock: FUNLAD_clean_linker_0, # of connection points: 2
#     Edge 9, Type (0, 0), BuildingBlock: FUNLAD_clean_linker_0, # of connection points: 2
#     Edge 10, Type (0, 0), BuildingBlock: FUNLAD_clean_linker_0, # of connection points: 2
#     Edge 11, Type (0, 0), BuildingBlock: FUNLAD_clean_linker_0, # of connection points: 2
#     Edge 12, Type (0, 0), BuildingBlock: FUNLAD_clean_linker_0, # of connection points: 2
#     Edge 13, Type (0, 0), BuildingBlock: FUNLAD_clean_linker_0, # of connection points: 2
#     Edge 14, Type (0, 0), BuildingBlock: FUNLAD_clean_linker_0, # of connection points: 2
#     Edge 15, Type (0, 0), BuildingBlock: FUNLAD_clean_linker_0, # of connection points: 2
#     Edge 16, Type (0, 0), BuildingBlock: FUNLAD_clean_linker_0, # of connection points: 2
#     Edge 17, Type (0, 0), BuildingBlock: FUNLAD_clean_linker_0, # of connection points: 2
# Relax obj value: 0.258
# Max RMSD: 0.253
# Mean RMSD: 0.253
data_MOF--net-oob--node1-HICVOG_clean_sbu_0--edge1-FUNLAD_clean_linker_0
_symmetry_space_group_name_H-M    P1
_symmetry_Int_Tables_number       1
_symmetry_cell_setting            triclinic
loop_
_symmetry_equiv_pos_as_xyz
'x, y, z'
_cell_length_a     20.0684
_cell_length_b     44.92082
_cell_length_c     31.621328
_cell_angle_alpha  91.35085
_cell_angle_beta   105.45774
_cell_angle_gamma 90.10166
loop_
_atom_site_label
_atom_site_type_symbol
_atom_site_fract_x
_atom_site_fract_y
_atom_site_fract_z
_atom_type_partial_charge
Zn0 Zn 0.2446 0.04567 0.80919 0.0
C1 C 0.18061 1.0053 0.90492 0.0
N2 N 0.2329 0.02103 0.93121 0.0
C3 C 0.26237 0.03354 0.90247 0.0
N4 N 0.22973 0.02585 0.86036 0.0
N5 N 0.17791 1.00793 0.86205 0.0
C6 C 0.99019 1.00341 0.80465 0.0
O7 O 0.02162 0.02496 0.78994 0.0
O8 O 0.34614 0.04355 0.8104 0.0
Zn9 Zn 0.12479 0.98087 0.81673 0.0
N10 N 0.21561 0.08657 0.81431 0.0
C11 C 0.13415 0.11739 0.83664 0.0
C12 C 0.16221 0.0895 0.83302 0.0
C13 C 0.24236 0.1107 0.7989 0.0
N14 N 0.15959 0.14129 0.82058 0.0
C15 C 0.21298 0.13893 0.80172 0.0
O16 O 0.12229 0.99129 0.75477 0.0
C17 C 0.14531 1.00928 0.73148 0.0
O18 O 0.18888 0.02971 0.74886 0.0
H19 H 0.14068 0.07017 0.84444 0.0
H20 H 0.28382 0.10777 0.78325 0.0
C21 C 0.13642 0.91536 0.81949 0.0
C22 C 0.17515 0.88929 0.83129 0.0
C23 C 0.27645 0.91855 0.85923 0.0
C24 C 0.23837 0.94427 0.84744 0.0
N25 N 0.1691 0.94236 0.8285 0.0
N26 N 0.24403 0.89175 0.85107 0.0
H27 H 0.08142 0.91422 0.804 0.0
C28 C 0.36832 0.01896 0.79882 0.0
O29 O 0.32446 0.99669 0.78606 0.0
O30 O 0.0245 0.98023 0.81906 0.0
H31 H 0.26407 0.9657 0.85352 0.0
H32 H 0.09156 0.11997 0.85136 0.0
H33 H 0.33142 0.91984 0.87468 0.0
Zn34 Zn 0.78601 0.04413 0.24952 0.0
C35 C 0.86994 1.00988 0.15649 0.0
N36 N 0.82405 0.02751 0.13004 0.0
C37 C 0.78803 0.03858 0.15693 0.0
N38 N 0.81084 0.02813 0.19807 0.0
N39 N 0.8623 1.00976 0.19763 0.0
C40 C 0.04289 0.99067 0.25496 0.0
O41 O 0.02276 0.01389 0.27425 0.0
O42 O 0.68439 0.03937 0.24522 0.0
Zn43 Zn 0.90056 0.97941 0.23993 0.0
N44 N 0.80945 0.0859 0.25268 0.0
C45 C 0.89823 0.12136 0.25439 0.0
C46 C 0.87404 0.09211 0.24924 0.0
C47 C 0.76737 0.10784 0.26076 0.0
N48 N 0.85691 0.14323 0.26302 0.0
C49 C 0.79186 0.13746 0.26634 0.0
O50 O 0.90953 0.99073 0.30373 0.0
C51 C 0.8859 1.00973 0.32637 0.0
O52 O 0.84152 0.02892 0.30819 0.0
H53 H 0.90684 0.07429 0.24327 0.0
H54 H 0.71663 0.10214 0.26409 0.0
C55 C 0.86123 0.91677 0.23968 0.0
C56 C 0.81623 0.89221 0.2254 0.0
C57 C 0.73554 0.92405 0.17924 0.0
C58 C 0.77979 0.94819 0.19364 0.0
N59 N 0.84195 0.94418 0.22324 0.0
N60 N 0.75471 0.89679 0.19534 0.0
H61 H 0.91112 0.91422 0.26301 0.0
C62 C 0.65754 0.01483 0.25179 0.0
O63 O 0.69712 0.99136 0.2617 0.0
O64 O 0.99811 0.97101 0.23658 0.0
H65 H 0.76439 0.96997 0.18109 0.0
H66 H 0.94969 0.12664 0.25199 0.0
H67 H 0.68615 0.92693 0.15553 0.0
Zn68 Zn 0.73339 0.54454 0.30948 0.0
C69 C 0.67483 0.49343 0.39733 0.0
N70 N 0.72913 0.50711 0.42519 0.0
C71 C 0.75695 0.52244 0.39815 0.0
N72 N 0.72111 0.51876 0.35565 0.0
N73 N 0.66944 0.50015 0.355 0.0
C74 C 0.47605 0.49722 0.30474 0.0
O75 O 0.50272 0.5222 0.2955 0.0
O76 O 0.83184 0.54305 0.30633 0.0
Zn77 Zn 0.60837 0.48074 0.30329 0.0
N78 N 0.71578 0.58465 0.32717 0.0
C79 C 0.65764 0.61643 0.36658 0.0
C80 C 0.67029 0.58809 0.35192 0.0
C81 C 0.74874 0.60853 0.31592 0.0
N82 N 0.69017 0.64027 0.35529 0.0
C83 C 0.73533 0.63737 0.33004 0.0
O84 O 0.59296 0.50243 0.24632 0.0
C85 C 0.61956 0.52178 0.22692 0.0
O86 O 0.67241 0.53704 0.2473 0.0
H87 H 0.6444 0.56891 0.36045 0.0
H88 H 0.78532 0.60483 0.29672 0.0
C89 C 0.63261 0.41589 0.30047 0.0
C90 C 0.66208 0.39118 0.28415 0.0
C91 C 0.72566 0.4238 0.25125 0.0
C92 C 0.69571 0.44811 0.26673 0.0
N93 N 0.64979 0.44384 0.2908 0.0
N94 N 0.70778 0.396 0.25998 0.0
H95 H 0.59495 0.41296 0.31901 0.0
C96 C 0.86007 0.5186 0.30041 0.0
O97 O 0.82446 0.49373 0.29724 0.0
O98 O 0.51356 0.47413 0.31121 0.0
H99 H 0.7075 0.47036 0.25863 0.0
H100 H 0.62198 0.61952 0.3866 0.0
H101 H 0.76197 0.42694 0.23183 0.0
Zn102 Zn 0.27387 0.54525 0.74262 0.0
C103 C 0.35856 0.50944 0.6507 0.0
N104 N 0.31187 0.52668 0.62398 0.0
C105 C 0.27665 0.53822 0.65098 0.0
N106 N 0.30042 0.52843 0.69234 0.0
N107 N 0.35198 0.51003 0.69219 0.0
C108 C 0.53297 0.49233 0.75156 0.0
O109 O 0.5122 0.51573 0.77013 0.0
O110 O 0.17187 0.54115 0.73706 0.0
Zn111 Zn 0.39097 0.48058 0.73607 0.0
N112 N 0.29895 0.58689 0.74537 0.0
C113 C 0.39156 0.62108 0.75078 0.0
C114 C 0.36587 0.59207 0.7459 0.0
C115 C 0.25585 0.60969 0.74895 0.0
N116 N 0.34936 0.64377 0.75531 0.0
C117 C 0.28195 0.63905 0.75445 0.0
O118 O 0.39762 0.4927 0.79967 0.0
C119 C 0.37035 0.5112 0.8211 0.0
O120 O 0.32535 0.52977 0.80174 0.0
H121 H 0.39923 0.57362 0.74323 0.0
H122 H 0.20301 0.60492 0.74907 0.0
C123 C 0.35616 0.41678 0.72972 0.0
C124 C 0.3109 0.3925 0.71409 0.0
C125 C 0.2225 0.42619 0.68075 0.0
C126 C 0.26712 0.45006 0.6963 0.0
N127 N 0.33324 0.44504 0.71993 0.0
N128 N 0.2454 0.39811 0.68981 0.0
H129 H 0.40898 0.41329 0.74855 0.0
C130 C 0.14603 0.51721 0.74671 0.0
O131 O 0.1868 0.49455 0.76033 0.0
O132 O 0.48873 0.47238 0.73361 0.0
H133 H 0.24908 0.47248 0.68917 0.0
H134 H 0.44488 0.62554 0.75157 0.0
H135 H 0.17 0.42992 0.66158 0.0
C136 C 0.88248 0.98502 0.82296 0.0
C137 C 0.91741 1.0072 0.80636 0.0
C138 C 0.81383 0.98917 0.82449 0.0
C139 C 0.77868 0.01564 0.80939 0.0
C140 C 0.81422 0.03787 0.79352 0.0
C141 C 0.88241 0.03369 0.79181 0.0
C142 C 0.70581 0.02142 0.81026 0.0
C143 C 0.65901 0.9998 0.81016 0.0
C144 C 0.58489 1.00571 0.80779 0.0
C145 C 0.53601 0.98298 0.79162 0.0
C146 C 0.46593 0.98743 0.78846 0.0
C147 C 0.4428 0.01472 0.80175 0.0
H148 H 0.59801 0.05078 0.83568 0.0
C149 C 0.49168 0.03741 0.81861 0.0
C150 C 0.56197 0.03297 0.82171 0.0
H151 H 0.47578 0.05855 0.82977 0.0
H152 H 0.90823 0.96451 0.83496 0.0
H153 H 0.78913 0.9718 0.83817 0.0
H154 H 0.78891 0.05857 0.78199 0.0
H155 H 0.9077 0.05138 0.77909 0.0
H156 H 0.6892 0.04444 0.80782 0.0
H157 H 0.67401 0.97667 0.80875 0.0
H158 H 0.55199 0.96169 0.78096 0.0
H159 H 0.42989 0.96936 0.77558 0.0
C160 C 0.55246 0.98621 0.25707 0.0
C161 C 0.58247 0.01286 0.2482 0.0
C162 C 0.482 0.98479 0.25523 0.0
C163 C 0.43993 1.01002 0.24423 0.0
C164 C 0.46995 0.03648 0.23486 0.0
C165 C 0.54019 0.03789 0.23662 0.0
C166 C 0.36605 1.01043 0.24503 0.0
C167 C 0.32599 0.98593 0.24244 0.0
C168 C 0.25341 0.98736 0.24582 0.0
C169 C 0.20578 0.96496 0.22556 0.0
C170 C 0.13737 0.96576 0.22858 0.0
C171 C 0.11547 0.98886 0.25238 0.0
H172 H 0.26719 0.0272 0.28775 0.0
C173 C 0.16353 1.01091 0.27332 0.0
C174 C 0.23161 1.01013 0.27026 0.0
H175 H 0.14869 0.02889 0.29228 0.0
H176 H 0.58361 0.96653 0.26619 0.0
H177 H 0.46152 0.96416 0.26373 0.0
H178 H 0.43902 0.05632 0.22651 0.0
H179 H 0.56147 0.05875 0.2294 0.0
H180 H 0.34342 0.0322 0.24696 0.0
H181 H 0.3457 0.96423 0.23627 0.0
H182 H 0.22133 0.94698 0.20692 0.0
H183 H 0.10161 0.94843 0.21204 0.0
C184 C 0.36931 0.52363 0.30974 0.0
C185 C 0.40492 0.49678 0.30958 0.0
C186 C 0.30132 0.52362 0.31281 0.0
C187 C 0.2668 0.49664 0.31506 0.0
C188 C 0.30328 0.46985 0.31647 0.0
C189 C 0.37173 0.46988 0.31374 0.0
C190 C 0.19327 0.49565 0.31625 0.0
C191 C 0.14825 0.51764 0.30097 0.0
C192 C 0.0747 0.51699 0.30168 0.0
C193 C 0.04052 0.54414 0.30236 0.0
C194 C 0.9709 0.54468 0.30207 0.0
C195 C 0.93365 0.51798 0.30047 0.0
H196 H 0.0614 0.46886 0.29802 0.0
C197 C 0.96756 0.49075 0.29931 0.0
C198 C 0.03743 0.49022 0.29991 0.0
H199 H 0.94017 0.4698 0.29788 0.0
H200 H 0.39395 0.5448 0.30755 0.0
H201 H 0.27666 0.54491 0.31375 0.0
H202 H 0.27835 0.44877 0.31887 0.0
H203 H 0.39817 0.44884 0.31416 0.0
H204 H 0.17574 0.47589 0.32938 0.0
H205 H 0.1654 0.53737 0.28764 0.0
H206 H 0.06792 0.56507 0.30337 0.0
H207 H 0.94626 0.56604 0.30293 0.0
C208 C 0.65297 0.51318 0.76892 0.0
C209 C 0.60557 0.4906 0.74913 0.0
C210 C 0.72103 0.51244 0.76582 0.0
C211 C 0.74338 0.48914 0.74255 0.0
C212 C 0.69646 0.46622 0.7235 0.0
C213 C 0.62807 0.46701 0.7265 0.0
C214 C 0.81588 0.48775 0.73916 0.0
C215 C 0.85481 0.51236 0.73985 0.0
C216 C 0.92861 0.51198 0.73905 0.0
C217 C 0.95736 0.53784 0.72675 0.0
C218 C 0.02757 0.53934 0.72844 0.0
C219 C 0.07099 0.51505 0.74295 0.0
H220 H 0.95227 0.46737 0.76375 0.0
C221 C 0.04222 0.48898 0.75475 0.0
C222 C 0.97183 0.48745 0.75293 0.0
H223 H 0.07428 0.46988 0.76617 0.0
H224 H 0.63762 0.53155 0.78694 0.0
H225 H 0.75617 0.52995 0.78234 0.0
H226 H 0.71251 0.44785 0.7058 0.0
H227 H 0.59281 0.44927 0.71087 0.0
H228 H 0.8365 0.46595 0.73456 0.0
H229 H 0.83127 0.5341 0.74013 0.0
H230 H 0.92547 0.55714 0.71615 0.0
H231 H 0.04793 0.55974 0.71894 0.0
C232 C 0.1259 0.02989 0.65551 0.0
C233 C 0.11886 1.00647 0.68284 0.0
C234 C 0.09787 0.02736 0.60985 0.0
C235 C 0.06269 1.00119 0.5905 0.0
C236 C 0.05732 0.9776 0.61776 0.0
C237 C 0.08436 0.98028 0.66328 0.0
C238 C 0.03258 0.99725 0.54212 0.0
C239 C 0.00839 0.01991 0.51513 0.0
C240 C 0.97544 0.01581 0.46703 0.0
C241 C 0.92883 0.03735 0.44535 0.0
C242 C 0.89837 0.03491 0.40007 0.0
C243 C 0.91449 1.01103 0.37501 0.0
H244 H 0.02812 0.97503 0.45724 0.0
C245 C 0.96112 0.98939 0.39669 0.0
C246 C 0.99119 0.99172 0.44211 0.0
H247 H 0.97527 0.97082 0.37849 0.0
H248 H 0.15227 0.05035 0.66943 0.0
H249 H 0.10465 0.04574 0.58984 0.0
H250 H 0.03117 0.95709 0.60383 0.0
H251 H 0.07829 0.96168 0.68317 0.0
H252 H 0.02601 0.97456 0.52898 0.0
H253 H 0.00911 0.04228 0.52908 0.0
H254 H 0.91595 0.05624 0.46352 0.0
H255 H 0.86317 0.05215 0.38462 0.0
C256 C 0.45714 0.50043 0.89288 0.0
C257 C 0.39301 0.51213 0.86994 0.0
C258 C 0.47946 0.50274 0.93887 0.0
C259 C 0.43769 0.51649 0.96296 0.0
C260 C 0.37303 0.5275 0.94004 0.0
C261 C 0.35129 0.52568 0.89415 0.0
C262 C 0.45836 0.51862 1.01191 0.0
C263 C 0.52457 0.52128 0.03631 0.0
C264 C 0.54509 0.52326 0.08535 0.0
C265 C 0.60782 0.53733 0.10732 0.0
C266 C 0.63071 0.53803 0.1533 0.0
C267 C 0.59192 0.52418 0.17848 0.0
H268 H 0.4577 0.49832 0.09505 0.0
C269 C 0.52865 0.51044 0.15648 0.0
C270 C 0.50547 0.51 0.11058 0.0
H271 H 0.49749 0.4994 0.17471 0.0
H272 H 0.49058 0.48987 0.87527 0.0
H273 H 0.52886 0.49331 0.95545 0.0
H274 H 0.33943 0.5379 0.95769 0.0
H275 H 0.30145 0.53479 0.87764 0.0
H276 H 0.41699 0.5196 0.02811 0.0
H277 H 0.56539 0.5232 1.01982 0.0
H278 H 0.63967 0.54758 0.08883 0.0
H279 H 0.67992 0.54861 0.16901 0.0
C280 C 0.38843 0.03949 0.91126 0.0
C281 C 0.32697 0.05083 0.91805 0.0
C282 C 0.45257 0.04946 0.9376 0.0
C283 C 0.45611 0.06998 0.97239 0.0
C284 C 0.3947 0.0828 0.97728 0.0
C285 C 0.33072 0.07328 0.9503 0.0
C286 C 0.52329 0.07487 1.00577 0.0
C287 C 0.52802 0.07547 0.04919 0.0
C288 C 0.59481 0.07134 0.08269 0.0
C289 C 0.59723 0.05176 0.11704 0.0
C290 C 0.66077 0.04287 0.14419 0.0
C291 C 0.72283 0.05448 0.13888 0.0
H292 H 0.65631 0.09963 0.0529 0.0
C293 C 0.72012 0.07584 0.1067 0.0
C294 C 0.65669 0.08417 0.07873 0.0
H295 H 0.76743 0.08456 0.10122 0.0
H296 H 0.38702 0.02085 0.88877 0.0
H297 H 0.49915 0.03913 0.9333 0.0
H298 H 0.39589 0.09904 1.00335 0.0
H299 H 0.28389 0.08185 0.95681 0.0
H300 H 0.57012 0.07291 0.99486 0.0
H301 H 0.48111 0.07395 0.06003 0.0
H302 H 0.55029 0.04132 0.12048 0.0
H303 H 0.6614 0.02469 0.16601 0.0
C304 C 0.20617 0.57544 0.60181 0.0
C305 C 0.21055 0.55342 0.63323 0.0
C306 C 0.14188 0.58361 0.57471 0.0
C307 C 0.08099 0.56985 0.57878 0.0
C308 C 0.08519 0.54948 0.61235 0.0
C309 C 0.14951 0.54079 0.63855 0.0
C310 C 0.01371 0.57336 0.54559 0.0
C311 C 0.00888 0.5729 0.5022 0.0
C312 C 0.94288 0.56549 0.46909 0.0
C313 C 0.87891 0.57574 0.47358 0.0
C314 C 0.81719 0.56372 0.44685 0.0
C315 C 0.81847 0.54138 0.41528 0.0
H316 H 0.99244 0.5364 0.43133 0.0
C317 C 0.88212 0.5324 0.4092 0.0
C318 C 0.9438 0.54486 0.43519 0.0
H319 H 0.88471 0.51384 0.38735 0.0
H320 H 0.25275 0.5849 0.5963 0.0
H321 H 0.14008 0.59961 0.54936 0.0
H322 H 0.0391 0.53827 0.61575 0.0
H323 H 0.15162 0.52209 0.65975 0.0
H324 H 0.96716 0.5705 0.55651 0.0
H325 H 0.0559 0.57232 0.49133 0.0
H326 H 0.87662 0.59194 0.49907 0.0
H327 H 0.76857 0.57048 0.45276 0.0
C328 C 0.89156 0.9705 0.10591 0.0
C329 C 0.91819 0.9917 0.1395 0.0
C330 C 0.93241 0.95984 0.07936 0.0
C331 C 1.00049 0.97044 0.08592 0.0
C332 C 0.0287 0.98974 0.12189 0.0
C333 C 0.9874 1.00077 0.14791 0.0
C334 C 0.0404 0.96483 0.05319 0.0
C335 C 0.00997 0.9646 1.00961 0.0
C336 C 0.04993 0.96941 0.97699 0.0
C337 C 0.11719 0.95836 0.98271 0.0
C338 C 0.15792 0.96793 0.9559 0.0
C339 C 0.13202 0.98851 0.92291 0.0
H340 H 0.97095 0.99722 0.93691 0.0
C341 C 0.06373 0.99823 0.91568 0.0
C342 C 0.02248 0.98824 0.94185 0.0
H343 H 0.04419 0.01549 0.89241 0.0
H344 H 0.83774 0.96371 0.09835 0.0
H345 H 0.90964 0.94449 0.05244 0.0
H346 H 0.081 0.99824 0.12766 0.0
H347 H 0.008 0.01808 0.17235 0.0
H348 H 0.09639 0.96636 0.06483 0.0
H349 H 0.95407 0.96632 0.99809 0.0
H350 H 0.13938 0.9434 1.00904 0.0
H351 H 0.21111 0.96067 0.96263 0.0
C352 C 0.37744 0.47026 0.59898 0.0
C353 C 0.40573 0.49071 0.63337 0.0
C354 C 0.41726 0.4594 0.5719 0.0
C355 C 0.48615 0.46896 0.5787 0.0
C356 C 0.51597 0.48748 0.61535 0.0
C357 C 0.47566 0.49876 0.64193 0.0
C358 C 0.52566 0.46268 0.54584 0.0
C359 C 0.4955 0.46319 0.50225 0.0
C360 C 0.53626 0.46579 0.46955 0.0
C361 C 0.51452 0.48601 0.4355 0.0
C362 C 0.55767 0.49322 0.40901 0.0
C363 C 0.62151 0.47913 0.41432 0.0
H364 H 0.6168 0.43485 0.49959 0.0
C365 C 0.64123 0.45739 0.44642 0.0
C366 C 0.59903 0.45076 0.47389 0.0
H367 H 0.69145 0.44701 0.45223 0.0
H368 H 0.32312 0.46425 0.59123 0.0
H369 H 0.39318 0.44466 0.54447 0.0
H370 H 0.56894 0.49518 0.62133 0.0
H371 H 0.49765 0.51559 0.66684 0.0
H372 H 0.58173 0.46248 0.55751 0.0
H373 H 0.44012 0.46677 0.49072 0.0
H374 H 0.46677 0.49815 0.43178 0.0
H375 H 0.54402 0.51179 0.38732 0.0
C376 C 0.30409 0.17438 0.79006 0.0
C377 C 0.23432 0.16589 0.78248 0.0
C378 C 0.32159 0.20186 0.77527 0.0
C379 C 0.26943 0.2209 0.75213 0.0
C380 C 0.20019 0.21164 0.74327 0.0
C381 C 0.18282 0.18471 0.75869 0.0
C382 C 0.28371 0.25053 0.73627 0.0
C383 C 0.33774 0.26834 0.75624 0.0
C384 C 0.34175 0.29992 0.74334 0.0
C385 C 0.37196 0.32174 0.77541 0.0
C386 C 0.36645 0.3521 0.76551 0.0
C387 C 0.33065 0.36105 0.72328 0.0
H388 H 0.29042 0.29284 0.67404 0.0
C389 C 0.30528 0.33914 0.69049 0.0
C390 C 0.31145 0.30896 0.7002 0.0
H391 H 0.27849 0.34539 0.65745 0.0
H392 H 0.34475 0.16031 0.80856 0.0
H393 H 0.37559 0.20808 0.78189 0.0
H394 H 0.15897 0.2257 0.72528 0.0
H395 H 0.12866 0.17867 0.75223 0.0
H396 H 0.24315 0.25931 0.70963 0.0
H397 H 0.37505 0.2609 0.78561 0.0
H398 H 0.39642 0.31541 0.80878 0.0
H399 H 0.38629 0.36849 0.79151 0.0
C400 C 0.63207 0.33971 0.2556 0.0
C401 C 0.64504 0.36004 0.29125 0.0
C402 C 0.63159 0.30915 0.26227 0.0
C403 C 0.64484 0.29816 0.30501 0.0
C404 C 0.65367 0.31864 0.3405 0.0
C405 C 0.65315 0.34939 0.33367 0.0
C406 C 0.66163 0.26624 0.31374 0.0
C407 C 0.64162 0.24427 0.28308 0.0
C408 C 0.67687 0.21499 0.28553 0.0
C409 C 0.6431 0.19085 0.25933 0.0
C410 C 0.67908 0.16476 0.25485 0.0
C411 C 0.74996 0.16259 0.27592 0.0
H412 H 0.77564 0.23036 0.32786 0.0
C413 C 0.78301 0.18626 0.30339 0.0
C414 C 0.74699 0.2121 0.30831 0.0
H415 H 0.83761 0.18522 0.32005 0.0
H416 H 0.62606 0.34744 0.22259 0.0
H417 H 0.62618 0.29437 0.23403 0.0
H418 H 0.66466 0.31083 0.37379 0.0
H419 H 0.66419 0.36466 0.36175 0.0
H420 H 0.69667 0.26119 0.34532 0.0
H421 H 0.60141 0.24851 0.25327 0.0
H422 H 0.58941 0.19262 0.24093 0.0
H423 H 0.65237 0.14706 0.23298 0.0
C424 C 0.80231 0.8371 0.21529 0.0
C425 C 0.83203 0.86165 0.24213 0.0
C426 C 0.80808 0.80838 0.23171 0.0
C427 C 0.84418 0.80333 0.27559 0.0
C428 C 0.87589 0.82774 0.30208 0.0
C429 C 0.87019 0.85659 0.28555 0.0
C430 C 0.84305 0.77372 0.29584 0.0
C431 C 0.8279 0.74792 0.27236 0.0
C432 C 0.81289 0.71914 0.29074 0.0
C433 C 0.80957 0.69291 0.26511 0.0
C434 C 0.78703 0.66603 0.27833 0.0
C435 C 0.76703 0.66472 0.31765 0.0
H436 H 0.7948 0.73725 0.35117 0.0
C437 C 0.77235 0.69079 0.34393 0.0
C438 C 0.7948 0.71764 0.33071 0.0
H439 H 0.75742 0.69068 0.37443 0.0
H440 H 0.7725 0.84016 0.18169 0.0
H441 H 0.78108 0.79059 0.21028 0.0
H442 H 0.90337 0.82463 0.33613 0.0
H443 H 0.89277 0.87496 0.30748 0.0
H444 H 0.85324 0.77358 0.33129 0.0
H445 H 0.82419 0.74777 0.23749 0.0
H446 H 0.82237 0.69337 0.23393 0.0
H447 H 0.78243 0.64674 0.25658 0.0
C448 C 0.27013 0.68671 0.79307 0.0
C449 C 0.24002 0.66492 0.76115 0.0
C450 C 0.23517 0.71295 0.79721 0.0
C451 C 0.16927 0.71827 0.76912 0.0
C452 C 0.1386 0.69632 0.73744 0.0
C453 C 0.17328 0.66962 0.73386 0.0
C454 C 0.13618 0.74786 0.76979 0.0
C455 C 0.14468 0.76403 0.80737 0.0
C456 C 0.13238 0.79666 0.81033 0.0
C457 C 0.14296 0.80979 0.8524 0.0
C458 C 0.1499 0.84062 0.85868 0.0
C459 C 0.14515 0.85908 0.82292 0.0
H460 H 0.11426 0.80645 0.74103 0.0
C461 C 0.12821 0.84646 0.78035 0.0
C462 C 0.12198 0.81544 0.774 0.0
H463 H 0.12573 0.86031 0.75239 0.0
H464 H 0.32166 0.68371 0.81436 0.0
H465 H 0.26147 0.72965 0.82112 0.0
H466 H 0.08836 0.70005 0.71498 0.0
H467 H 0.14935 0.65334 0.70853 0.0
H468 H 0.10805 0.75683 0.73861 0.0
H469 H 0.16794 0.75319 0.83815 0.0
H470 H 0.1511 0.79605 0.88102 0.0
H471 H 0.16386 0.84989 0.89185 0.0
loop_
_geom_bond_atom_site_label_1
_geom_bond_atom_site_label_2
_geom_bond_distance
_geom_bond_site_symmetry_2
_ccdc_geom_bond_type
Zn0 N4 2.020 . S
Zn0 O8 2.019 . S
Zn0 N10 2.119 . S
Zn0 O18 1.975 . S
C1 N2 1.337 . S
C1 N5 1.336 . S
N2 C1 1.337 . S
N2 C3 1.331 1_565 S
C3 N2 1.331 1_545 S
C3 N4 1.336 . S
N4 Zn0 2.020 . S
N4 C3 1.336 . S
N4 N5 1.354 1_545 S
N5 C1 1.336 . S
N5 N4 1.354 1_565 S
N5 Zn9 2.020 . S
C6 O7 1.244 1_665 S
C6 O30 1.257 . S
O7 C6 1.244 1_445 S
O8 Zn0 2.019 . S
O8 C28 1.257 . S
Zn9 N5 2.020 . S
Zn9 O16 1.975 . S
Zn9 N25 2.119 . S
Zn9 O30 2.019 1_455 S
N10 Zn0 2.119 . S
N10 C12 1.334 . S
N10 C13 1.328 . S
C11 C12 1.391 . S
C11 N14 1.329 . S
C11 H32 0.930 . S
C12 N10 1.334 . S
C12 C11 1.391 . S
C12 H19 0.930 . S
C13 N10 1.328 . S
C13 C15 1.392 . S
C13 H20 0.930 . S
N14 C11 1.329 . S
N14 C15 1.331 . S
C15 C13 1.392 . S
C15 N14 1.331 . S
O16 Zn9 1.975 . S
O16 C17 1.250 1_565 S
C17 O16 1.250 1_545 S
C17 O18 1.254 . S
O18 Zn0 1.975 . S
O18 C17 1.254 . S
H19 C12 0.930 . S
H20 C13 0.930 . S
C21 C22 1.392 . S
C21 N25 1.328 . S
C21 H27 0.930 . S
C22 C21 1.392 . S
C22 N26 1.331 . S
C23 C24 1.391 . S
C23 N26 1.329 . S
C23 H33 0.930 . S
C24 C23 1.391 . S
C24 N25 1.334 . S
C24 H31 0.930 . S
N25 Zn9 2.119 . S
N25 C21 1.328 . S
N25 C24 1.334 . S
N26 C22 1.331 . S
N26 C23 1.329 . S
H27 C21 0.930 . S
C28 O8 1.257 . S
C28 O29 1.244 1_545 S
O29 C28 1.244 1_565 S
O30 C6 1.257 . S
O30 Zn9 2.019 1_655 S
H31 C24 0.930 . S
H32 C11 0.930 . S
H33 C23 0.930 . S
Zn34 N38 2.020 . S
Zn34 O42 2.019 . S
Zn34 N44 2.119 . S
Zn34 O52 1.975 . S
C35 N36 1.337 . S
C35 N39 1.336 . S
N36 C35 1.337 . S
N36 C37 1.331 1_565 S
C37 N36 1.331 1_545 S
C37 N38 1.336 . S
N38 Zn34 2.020 . S
N38 C37 1.336 . S
N38 N39 1.354 1_545 S
N39 C35 1.336 . S
N39 N38 1.354 1_565 S
N39 Zn43 2.020 . S
C40 O41 1.244 1_465 S
C40 O64 1.257 . S
O41 C40 1.244 1_645 S
O42 Zn34 2.019 . S
O42 C62 1.257 . S
Zn43 N39 2.020 . S
Zn43 O50 1.975 . S
Zn43 N59 2.119 . S
Zn43 O64 2.019 1_655 S
N44 Zn34 2.119 . S
N44 C46 1.334 . S
N44 C47 1.328 . S
C45 C46 1.391 . S
C45 N48 1.329 . S
C45 H66 0.930 . S
C46 N44 1.334 . S
C46 C45 1.391 . S
C46 H53 0.930 . S
C47 N44 1.328 . S
C47 C49 1.392 . S
C47 H54 0.930 . S
N48 C45 1.329 . S
N48 C49 1.331 . S
C49 C47 1.392 . S
C49 N48 1.331 . S
O50 Zn43 1.975 . S
O50 C51 1.250 1_565 S
C51 O50 1.250 1_545 S
C51 O52 1.254 . S
O52 Zn34 1.975 . S
O52 C51 1.254 . S
H53 C46 0.930 . S
H54 C47 0.930 . S
C55 C56 1.392 . S
C55 N59 1.328 . S
C55 H61 0.930 . S
C56 C55 1.392 . S
C56 N60 1.331 . S
C57 C58 1.391 . S
C57 N60 1.329 . S
C57 H67 0.930 . S
C58 C57 1.391 . S
C58 N59 1.334 . S
C58 H65 0.930 . S
N59 Zn43 2.119 . S
N59 C55 1.328 . S
N59 C58 1.334 . S
N60 C56 1.331 . S
N60 C57 1.329 . S
H61 C55 0.930 . S
C62 O42 1.257 . S
C62 O63 1.244 1_545 S
O63 C62 1.244 1_565 S
O64 C40 1.257 . S
O64 Zn43 2.019 1_455 S
H65 C58 0.930 . S
H66 C45 0.930 . S
H67 C57 0.930 . S
Zn68 N72 2.020 . S
Zn68 O76 2.019 . S
Zn68 N78 2.119 . S
Zn68 O86 1.975 . S
C69 N70 1.334 . S
C69 N73 1.336 . S
N70 C69 1.334 . S
N70 C71 1.334 . S
C71 N70 1.334 . S
C71 N72 1.336 . S
N72 Zn68 2.020 . S
N72 C71 1.336 . S
N72 N73 1.354 . S
N73 C69 1.336 . S
N73 N72 1.354 . S
N73 Zn77 2.020 . S
C74 O75 1.244 . S
C74 O98 1.257 . S
O75 C74 1.244 . S
O76 Zn68 2.019 . S
O76 C96 1.257 . S
Zn77 N73 2.020 . S
Zn77 O84 1.975 . S
Zn77 N93 2.119 . S
Zn77 O98 2.019 . S
N78 Zn68 2.119 . S
N78 C80 1.334 . S
N78 C81 1.328 . S
C79 C80 1.391 . S
C79 N82 1.329 . S
C79 H100 0.930 . S
C80 N78 1.334 . S
C80 C79 1.391 . S
C80 H87 0.930 . S
C81 N78 1.328 . S
C81 C83 1.392 . S
C81 H88 0.930 . S
N82 C79 1.329 . S
N82 C83 1.331 . S
C83 C81 1.392 . S
C83 N82 1.331 . S
O84 Zn77 1.975 . S
O84 C85 1.252 . S
C85 O84 1.252 . S
C85 O86 1.252 . S
O86 Zn68 1.975 . S
O86 C85 1.252 . S
H87 C80 0.930 . S
H88 C81 0.930 . S
C89 C90 1.392 . S
C89 N93 1.328 . S
C89 H95 0.930 . S
C90 C89 1.392 . S
C90 N94 1.331 . S
C91 C92 1.391 . S
C91 N94 1.329 . S
C91 H101 0.930 . S
C92 C91 1.391 . S
C92 N93 1.334 . S
C92 H99 0.930 . S
N93 Zn77 2.119 . S
N93 C89 1.328 . S
N93 C92 1.334 . S
N94 C90 1.331 . S
N94 C91 1.329 . S
H95 C89 0.930 . S
C96 O76 1.257 . S
C96 O97 1.244 . S
O97 C96 1.244 . S
O98 C74 1.257 . S
O98 Zn77 2.019 . S
H99 C92 0.930 . S
H100 C79 0.930 . S
H101 C91 0.930 . S
Zn102 N106 2.020 . S
Zn102 O110 2.019 . S
Zn102 N112 2.119 . S
Zn102 O120 1.975 . S
C103 N104 1.334 . S
C103 N107 1.336 . S
N104 C103 1.334 . S
N104 C105 1.334 . S
C105 N104 1.334 . S
C105 N106 1.336 . S
N106 Zn102 2.020 . S
N106 C105 1.336 . S
N106 N107 1.354 . S
N107 C103 1.336 . S
N107 N106 1.354 . S
N107 Zn111 2.020 . S
C108 O109 1.244 . S
C108 O132 1.257 . S
O109 C108 1.244 . S
O110 Zn102 2.019 . S
O110 C130 1.257 . S
Zn111 N107 2.020 . S
Zn111 O118 1.975 . S
Zn111 N127 2.119 . S
Zn111 O132 2.019 . S
N112 Zn102 2.119 . S
N112 C114 1.334 . S
N112 C115 1.328 . S
C113 C114 1.391 . S
C113 N116 1.329 . S
C113 H134 0.930 . S
C114 N112 1.334 . S
C114 C113 1.391 . S
C114 H121 0.930 . S
C115 N112 1.328 . S
C115 C117 1.392 . S
C115 H122 0.930 . S
N116 C113 1.329 . S
N116 C117 1.331 . S
C117 C115 1.392 . S
C117 N116 1.331 . S
O118 Zn111 1.975 . S
O118 C119 1.252 . S
C119 O118 1.252 . S
C119 O120 1.252 . S
O120 Zn102 1.975 . S
O120 C119 1.252 . S
H121 C114 0.930 . S
H122 C115 0.930 . S
C123 C124 1.392 . S
C123 N127 1.328 . S
C123 H129 0.930 . S
C124 C123 1.392 . S
C124 N128 1.331 . S
C125 C126 1.391 . S
C125 N128 1.329 . S
C125 H135 0.930 . S
C126 C125 1.391 . S
C126 N127 1.334 . S
C126 H133 0.930 . S
N127 Zn111 2.119 . S
N127 C123 1.328 . S
N127 C126 1.334 . S
N128 C124 1.331 . S
N128 C125 1.329 . S
H129 C123 0.930 . S
C130 O110 1.257 . S
C130 O131 1.244 . S
O131 C130 1.244 . S
O132 C108 1.257 . S
O132 Zn111 2.019 . S
H133 C126 0.930 . S
H134 C113 0.930 . S
H135 C125 0.930 . S
C136 C137 1.386 . S
C136 C138 1.383 . S
C136 H152 0.951 . S
C137 C136 1.386 . S
C137 C141 1.383 1_565 S
C138 C136 1.383 . S
C138 C139 1.402 1_565 S
C138 H153 0.951 . S
C139 C138 1.402 1_545 S
C139 C140 1.375 . S
C139 C142 1.481 . S
C140 C139 1.375 . S
C140 C141 1.367 . S
C140 H154 0.951 . S
C141 C137 1.383 1_545 S
C141 C140 1.367 . S
C141 H155 0.950 . S
C142 C139 1.481 . S
C142 C143 1.297 . S
C142 H156 0.950 . S
C143 C142 1.297 . S
C143 C144 1.479 . S
C143 H157 0.950 1_545 S
C144 C143 1.479 . S
C144 C145 1.375 1_545 S
C144 C150 1.404 . S
C145 C144 1.375 1_565 S
C145 C146 1.369 . S
C145 H158 0.950 . S
C146 C145 1.369 . S
C146 C147 1.382 1_565 S
C146 H159 0.961 . S
C147 C146 1.382 1_545 S
C147 C149 1.384 . S
H148 C150 0.949 . S
C149 C147 1.384 . S
C149 C150 1.385 . S
C149 H151 0.950 . S
C150 C144 1.404 . S
C150 H148 0.949 . S
C150 C149 1.385 . S
H151 C149 0.950 . S
H152 C136 0.951 . S
H153 C138 0.951 . S
H154 C140 0.951 . S
H155 C141 0.950 . S
H156 C142 0.950 . S
H157 C143 0.950 1_565 S
H158 C145 0.950 . S
H159 C146 0.961 . S
C160 C161 1.386 . S
C160 C162 1.383 . S
C160 H176 0.951 1_545 S
C161 C160 1.386 . S
C161 C165 1.383 . S
C162 C160 1.383 . S
C162 C163 1.402 . S
C162 H177 0.951 1_545 S
C163 C162 1.402 . S
C163 C164 1.375 . S
C163 C166 1.481 . S
C164 C163 1.375 . S
C164 C165 1.367 . S
C164 H178 0.951 . S
C165 C161 1.383 . S
C165 C164 1.367 . S
C165 H179 0.950 . S
C166 C163 1.481 . S
C166 C167 1.297 . S
C166 H180 0.950 . S
C167 C166 1.297 . S
C167 C168 1.479 . S
C167 H181 0.950 . S
C168 C167 1.479 . S
C168 C169 1.375 1_545 S
C168 C174 1.404 . S
C169 C168 1.375 1_565 S
C169 C170 1.369 . S
C169 H182 0.950 . S
C170 C169 1.369 . S
C170 C171 1.392 . S
C170 H183 0.951 . S
C171 C170 1.392 . S
C171 C173 1.384 1_565 S
H172 C174 0.949 . S
C173 C171 1.384 1_545 S
C173 C174 1.385 . S
C173 H175 0.950 . S
C174 C168 1.404 . S
C174 H172 0.949 . S
C174 C173 1.385 . S
H175 C173 0.950 . S
H176 C160 0.951 1_565 S
H177 C162 0.951 1_565 S
H178 C164 0.951 . S
H179 C165 0.950 . S
H180 C166 0.950 . S
H181 C167 0.950 . S
H182 C169 0.950 . S
H183 C170 0.951 . S
C184 C185 1.386 . S
C184 C186 1.383 . S
C184 H200 0.951 . S
C185 C184 1.386 . S
C185 C189 1.383 . S
C186 C184 1.383 . S
C186 C187 1.402 . S
C186 H201 0.951 . S
C187 C186 1.402 . S
C187 C188 1.375 . S
C187 C190 1.481 . S
C188 C187 1.375 . S
C188 C189 1.367 . S
C188 H202 0.951 . S
C189 C185 1.383 . S
C189 C188 1.367 . S
C189 H203 0.950 . S
C190 C187 1.481 . S
C190 C191 1.297 . S
C190 H204 0.950 . S
C191 C190 1.297 . S
C191 C192 1.479 . S
C191 H205 0.950 . S
C192 C191 1.479 . S
C192 C193 1.375 . S
C192 C198 1.404 . S
C193 C192 1.375 . S
C193 C194 1.369 1_455 S
C193 H206 0.950 . S
C194 C193 1.369 1_655 S
C194 C195 1.392 . S
C194 H207 0.951 . S
C195 C194 1.392 . S
C195 C197 1.384 . S
H196 C198 0.949 . S
C197 C195 1.384 . S
C197 C198 1.385 1_655 S
C197 H199 0.950 . S
C198 C192 1.404 . S
C198 H196 0.949 . S
C198 C197 1.385 1_455 S
H199 C197 0.950 . S
H200 C184 0.951 . S
H201 C186 0.951 . S
H202 C188 0.951 . S
H203 C189 0.950 . S
H204 C190 0.950 . S
H205 C191 0.950 . S
H206 C193 0.950 . S
H207 C194 0.951 . S
C208 C209 1.386 . S
C208 C210 1.383 . S
C208 H224 0.951 . S
C209 C208 1.386 . S
C209 C213 1.383 . S
C210 C208 1.383 . S
C210 C211 1.402 . S
C210 H225 0.951 . S
C211 C210 1.402 . S
C211 C212 1.375 . S
C211 C214 1.481 . S
C212 C211 1.375 . S
C212 C213 1.367 . S
C212 H226 0.951 . S
C213 C209 1.383 . S
C213 C212 1.367 . S
C213 H227 0.950 . S
C214 C211 1.481 . S
C214 C215 1.297 . S
C214 H228 0.950 . S
C215 C214 1.297 . S
C215 C216 1.479 . S
C215 H229 0.950 . S
C216 C215 1.479 . S
C216 C217 1.375 . S
C216 C222 1.404 . S
C217 C216 1.375 . S
C217 C218 1.369 1_655 S
C217 H230 0.950 . S
C218 C217 1.369 1_455 S
C218 C219 1.392 . S
C218 H231 0.951 . S
C219 C218 1.392 . S
C219 C221 1.384 . S
H220 C222 0.949 . S
C221 C219 1.384 . S
C221 C222 1.385 1_455 S
C221 H223 0.950 . S
C222 C216 1.404 . S
C222 H220 0.949 . S
C222 C221 1.385 1_655 S
H223 C221 0.950 . S
H224 C208 0.951 . S
H225 C210 0.951 . S
H226 C212 0.951 . S
H227 C213 0.950 . S
H228 C214 0.950 . S
H229 C215 0.950 . S
H230 C217 0.950 . S
H231 C218 0.951 . S
C232 C233 1.386 1_545 S
C232 C234 1.383 . S
C232 H248 0.951 . S
C233 C232 1.386 1_565 S
C233 C237 1.383 . S
C234 C232 1.383 . S
C234 C235 1.402 1_545 S
C234 H249 0.951 . S
C235 C234 1.402 1_565 S
C235 C236 1.375 . S
C235 C238 1.481 . S
C236 C235 1.375 . S
C236 C237 1.367 . S
C236 H250 0.951 1_455 S
C237 C233 1.383 . S
C237 C236 1.367 . S
C237 H251 0.950 . S
C238 C235 1.481 . S
C238 C239 1.297 . S
C238 H252 0.950 1_455 S
C239 C238 1.297 . S
C239 C240 1.479 1_455 S
C239 H253 0.950 1_565 S
C240 C239 1.479 1_655 S
C240 C241 1.375 1_565 S
C240 C246 1.404 . S
C241 C240 1.375 1_545 S
C241 C242 1.369 . S
C241 H254 0.950 1_655 S
C242 C241 1.369 . S
C242 C243 1.392 1_545 S
C242 H255 0.951 . S
C243 C242 1.392 1_565 S
C243 C245 1.384 . S
H244 C246 0.949 . S
C245 C243 1.384 . S
C245 C246 1.385 . S
C245 H247 0.950 . S
C246 C240 1.404 . S
C246 H244 0.949 . S
C246 C245 1.385 . S
H247 C245 0.950 . S
H248 C232 0.951 . S
H249 C234 0.951 . S
H250 C236 0.951 1_655 S
H251 C237 0.950 . S
H252 C238 0.950 1_655 S
H253 C239 0.950 1_545 S
H254 C241 0.950 1_455 S
H255 C242 0.951 . S
C256 C257 1.386 . S
C256 C258 1.383 . S
C256 H272 0.951 . S
C257 C256 1.386 . S
C257 C261 1.383 . S
C258 C256 1.383 . S
C258 C259 1.402 . S
C258 H273 0.951 . S
C259 C258 1.402 . S
C259 C260 1.375 . S
C259 C262 1.481 . S
C260 C259 1.375 . S
C260 C261 1.367 . S
C260 H274 0.951 . S
C261 C257 1.383 . S
C261 C260 1.367 . S
C261 H275 0.950 . S
C262 C259 1.481 . S
C262 C263 1.297 1_556 S
C262 H276 0.950 1_556 S
C263 C262 1.297 1_554 S
C263 C264 1.479 . S
C263 H277 0.950 1_554 S
C264 C263 1.479 . S
C264 C265 1.375 . S
C264 C270 1.404 . S
C265 C264 1.375 . S
C265 C266 1.369 . S
C265 H278 0.950 . S
C266 C265 1.369 . S
C266 C267 1.392 . S
C266 H279 0.951 . S
C267 C266 1.392 . S
C267 C269 1.384 . S
H268 C270 0.949 . S
C269 C267 1.384 . S
C269 C270 1.385 . S
C269 H271 0.950 . S
C270 C264 1.404 . S
C270 H268 0.949 . S
C270 C269 1.385 . S
H271 C269 0.950 . S
H272 C256 0.951 . S
H273 C258 0.951 . S
H274 C260 0.951 . S
H275 C261 0.950 . S
H276 C262 0.950 1_554 S
H277 C263 0.950 1_556 S
H278 C265 0.950 . S
H279 C266 0.951 . S
C280 C281 1.386 . S
C280 C282 1.383 . S
C280 H296 0.951 1_545 S
C281 C280 1.386 . S
C281 C285 1.383 . S
C282 C280 1.383 . S
C282 C283 1.402 . S
C282 H297 0.951 1_545 S
C283 C282 1.402 . S
C283 C284 1.375 . S
C283 C286 1.481 . S
C284 C283 1.375 . S
C284 C285 1.367 . S
C284 H298 0.951 . S
C285 C281 1.383 . S
C285 C284 1.367 . S
C285 H299 0.950 . S
C286 C283 1.481 . S
C286 C287 1.297 1_556 S
C286 H300 0.950 . S
C287 C286 1.297 1_554 S
C287 C288 1.479 . S
C287 H301 0.950 1_545 S
C288 C287 1.479 . S
C288 C289 1.375 1_545 S
C288 C294 1.404 . S
C289 C288 1.375 1_565 S
C289 C290 1.365 1_565 S
C289 H302 0.950 . S
C290 C289 1.365 1_545 S
C290 C291 1.403 . S
C290 H303 0.943 1_545 S
C291 C290 1.403 . S
C291 C293 1.384 . S
H292 C294 0.949 . S
C293 C291 1.384 . S
C293 C294 1.385 . S
C293 H295 0.950 . S
C294 C288 1.404 . S
C294 H292 0.949 . S
C294 C293 1.385 . S
H295 C293 0.950 . S
H296 C280 0.951 1_565 S
H297 C282 0.951 1_565 S
H298 C284 0.951 . S
H299 C285 0.950 . S
H300 C286 0.950 . S
H301 C287 0.950 1_565 S
H302 C289 0.950 . S
H303 C290 0.943 1_565 S
C304 C305 1.386 . S
C304 C306 1.383 . S
C304 H320 0.951 . S
C305 C304 1.386 . S
C305 C309 1.383 . S
C306 C304 1.383 . S
C306 C307 1.402 . S
C306 H321 0.951 . S
C307 C306 1.402 . S
C307 C308 1.375 . S
C307 C310 1.481 . S
C308 C307 1.375 . S
C308 C309 1.367 . S
C308 H322 0.951 . S
C309 C305 1.383 . S
C309 C308 1.367 . S
C309 H323 0.950 . S
C310 C307 1.481 . S
C310 C311 1.297 . S
C310 H324 0.950 . S
C311 C310 1.297 . S
C311 C312 1.479 1_455 S
C311 H325 0.950 . S
C312 C311 1.479 1_655 S
C312 C313 1.375 . S
C312 C318 1.404 . S
C313 C312 1.375 . S
C313 C314 1.369 . S
C313 H326 0.950 . S
C314 C313 1.369 . S
C314 C315 1.392 . S
C314 H327 0.951 . S
C315 C314 1.392 . S
C315 C317 1.384 . S
H316 C318 0.949 . S
C317 C315 1.384 . S
C317 C318 1.385 . S
C317 H319 0.950 . S
C318 C312 1.404 . S
C318 H316 0.949 . S
C318 C317 1.385 . S
H319 C317 0.950 . S
H320 C304 0.951 . S
H321 C306 0.951 . S
H322 C308 0.951 . S
H323 C309 0.950 . S
H324 C310 0.950 . S
H325 C311 0.950 . S
H326 C313 0.950 . S
H327 C314 0.951 . S
C328 C329 1.386 . S
C328 C330 1.383 . S
C328 H344 0.951 . S
C329 C328 1.386 . S
C329 C333 1.383 1_565 S
C330 C328 1.383 . S
C330 C331 1.402 . S
C330 H345 0.951 . S
C331 C330 1.402 . S
C331 C332 1.375 1_565 S
C331 C334 1.481 . S
C332 C331 1.375 1_545 S
C332 C333 1.367 . S
C332 H346 0.951 1_655 S
C333 C329 1.383 1_545 S
C333 C332 1.367 . S
C333 H347 0.950 . S
C334 C331 1.481 . S
C334 C335 1.297 1_554 S
C334 H348 0.950 1_665 S
C335 C334 1.297 1_556 S
C335 C336 1.479 1_655 S
C335 H349 0.950 . S
C336 C335 1.479 1_455 S
C336 C337 1.375 . S
C336 C342 1.404 1_565 S
C337 C336 1.375 . S
C337 C338 1.369 . S
C337 H350 0.950 1_455 S
C338 C337 1.369 . S
C338 C339 1.392 . S
C338 H351 0.951 . S
C339 C338 1.392 . S
C339 C341 1.384 1_565 S
H340 C342 0.949 . S
C341 C339 1.384 1_545 S
C341 C342 1.385 . S
C341 H343 0.950 . S
C342 C336 1.404 1_545 S
C342 H340 0.949 . S
C342 C341 1.385 . S
H343 C341 0.950 . S
H344 C328 0.951 . S
H345 C330 0.951 . S
H346 C332 0.951 1_455 S
H347 C333 0.950 . S
H348 C334 0.950 1_445 S
H349 C335 0.950 . S
H350 C337 0.950 1_655 S
H351 C338 0.951 . S
C352 C353 1.386 . S
C352 C354 1.383 . S
C352 H368 0.951 . S
C353 C352 1.386 . S
C353 C357 1.383 . S
C354 C352 1.383 . S
C354 C355 1.402 . S
C354 H369 0.951 . S
C355 C354 1.402 . S
C355 C356 1.375 . S
C355 C358 1.481 . S
C356 C355 1.375 . S
C356 C357 1.367 . S
C356 H370 0.951 . S
C357 C353 1.383 . S
C357 C356 1.367 . S
C357 H371 0.950 . S
C358 C355 1.481 . S
C358 C359 1.297 . S
C358 H372 0.950 . S
C359 C358 1.297 . S
C359 C360 1.479 . S
C359 H373 0.950 . S
C360 C359 1.479 . S
C360 C361 1.375 . S
C360 C366 1.404 . S
C361 C360 1.375 . S
C361 C362 1.369 . S
C361 H374 0.950 . S
C362 C361 1.369 . S
C362 C363 1.392 . S
C362 H375 0.951 . S
C363 C362 1.392 . S
C363 C365 1.384 . S
H364 C366 0.949 . S
C365 C363 1.384 . S
C365 C366 1.385 . S
C365 H367 0.950 . S
C366 C360 1.404 . S
C366 H364 0.949 . S
C366 C365 1.385 . S
H367 C365 0.950 . S
H368 C352 0.951 . S
H369 C354 0.951 . S
H370 C356 0.951 . S
H371 C357 0.950 . S
H372 C358 0.950 . S
H373 C359 0.950 . S
H374 C361 0.950 . S
H375 C362 0.951 . S
C376 C377 1.386 . S
C376 C378 1.383 . S
C376 H392 0.951 . S
C377 C376 1.386 . S
C377 C381 1.383 . S
C378 C376 1.383 . S
C378 C379 1.402 . S
C378 H393 0.951 . S
C379 C378 1.402 . S
C379 C380 1.375 . S
C379 C382 1.481 . S
C380 C379 1.375 . S
C380 C381 1.367 . S
C380 H394 0.951 . S
C381 C377 1.383 . S
C381 C380 1.367 . S
C381 H395 0.950 . S
C382 C379 1.481 . S
C382 C383 1.297 . S
C382 H396 0.950 . S
C383 C382 1.297 . S
C383 C384 1.479 . S
C383 H397 0.950 . S
C384 C383 1.479 . S
C384 C385 1.375 . S
C384 C390 1.404 . S
C385 C384 1.375 . S
C385 C386 1.369 . S
C385 H398 0.950 . S
C386 C385 1.369 . S
C386 C387 1.392 . S
C386 H399 0.951 . S
C387 C386 1.392 . S
C387 C389 1.384 . S
H388 C390 0.949 . S
C389 C387 1.384 . S
C389 C390 1.385 . S
C389 H391 0.950 . S
C390 C384 1.404 . S
C390 H388 0.949 . S
C390 C389 1.385 . S
H391 C389 0.950 . S
H392 C376 0.951 . S
H393 C378 0.951 . S
H394 C380 0.951 . S
H395 C381 0.950 . S
H396 C382 0.950 . S
H397 C383 0.950 . S
H398 C385 0.950 . S
H399 C386 0.951 . S
C400 C401 1.386 . S
C400 C402 1.383 . S
C400 H416 0.951 . S
C401 C400 1.386 . S
C401 C405 1.383 . S
C402 C400 1.383 . S
C402 C403 1.402 . S
C402 H417 0.951 . S
C403 C402 1.402 . S
C403 C404 1.375 . S
C403 C406 1.481 . S
C404 C403 1.375 . S
C404 C405 1.367 . S
C404 H418 0.951 . S
C405 C401 1.383 . S
C405 C404 1.367 . S
C405 H419 0.950 . S
C406 C403 1.481 . S
C406 C407 1.297 . S
C406 H420 0.950 . S
C407 C406 1.297 . S
C407 C408 1.479 . S
C407 H421 0.950 . S
C408 C407 1.479 . S
C408 C409 1.375 . S
C408 C414 1.404 . S
C409 C408 1.375 . S
C409 C410 1.369 . S
C409 H422 0.950 . S
C410 C409 1.369 . S
C410 C411 1.392 . S
C410 H423 0.951 . S
C411 C410 1.392 . S
C411 C413 1.384 . S
H412 C414 0.949 . S
C413 C411 1.384 . S
C413 C414 1.385 . S
C413 H415 0.950 . S
C414 C408 1.404 . S
C414 H412 0.949 . S
C414 C413 1.385 . S
H415 C413 0.950 . S
H416 C400 0.951 . S
H417 C402 0.951 . S
H418 C404 0.951 . S
H419 C405 0.950 . S
H420 C406 0.950 . S
H421 C407 0.950 . S
H422 C409 0.950 . S
H423 C410 0.951 . S
C424 C425 1.386 . S
C424 C426 1.383 . S
C424 H440 0.951 . S
C425 C424 1.386 . S
C425 C429 1.383 . S
C426 C424 1.383 . S
C426 C427 1.402 . S
C426 H441 0.951 . S
C427 C426 1.402 . S
C427 C428 1.375 . S
C427 C430 1.481 . S
C428 C427 1.375 . S
C428 C429 1.367 . S
C428 H442 0.951 . S
C429 C425 1.383 . S
C429 C428 1.367 . S
C429 H443 0.953 . S
C430 C427 1.481 . S
C430 C431 1.297 . S
C430 H444 0.950 . S
C431 C430 1.297 . S
C431 C432 1.479 . S
C431 H445 0.950 . S
C432 C431 1.479 . S
C432 C433 1.375 . S
C432 C438 1.404 . S
C433 C432 1.375 . S
C433 C434 1.369 . S
C433 H446 0.950 . S
C434 C433 1.369 . S
C434 C435 1.392 . S
C434 H447 0.951 . S
C435 C434 1.392 . S
C435 C437 1.384 . S
H436 C438 0.949 . S
C437 C435 1.384 . S
C437 C438 1.385 . S
C437 H439 0.950 . S
C438 C432 1.404 . S
C438 H436 0.949 . S
C438 C437 1.385 . S
H439 C437 0.950 . S
H440 C424 0.951 . S
H441 C426 0.951 . S
H442 C428 0.951 . S
H443 C429 0.953 . S
H444 C430 0.950 . S
H445 C431 0.950 . S
H446 C433 0.950 . S
H447 C434 0.951 . S
C448 C449 1.386 . S
C448 C450 1.383 . S
C448 H464 0.951 . S
C449 C448 1.386 . S
C449 C453 1.383 . S
C450 C448 1.383 . S
C450 C451 1.402 . S
C450 H465 0.951 . S
C451 C450 1.402 . S
C451 C452 1.375 . S
C451 C454 1.481 . S
C452 C451 1.375 . S
C452 C453 1.367 . S
C452 H466 0.951 . S
C453 C449 1.383 . S
C453 C452 1.367 . S
C453 H467 0.950 . S
C454 C451 1.481 . S
C454 C455 1.297 . S
C454 H468 0.950 . S
C455 C454 1.297 . S
C455 C456 1.479 . S
C455 H469 0.950 . S
C456 C455 1.479 . S
C456 C457 1.375 . S
C456 C462 1.404 . S
C457 C456 1.375 . S
C457 C458 1.369 . S
C457 H470 0.950 . S
C458 C457 1.369 . S
C458 C459 1.392 . S
C458 H471 0.951 . S
C459 C458 1.392 . S
C459 C461 1.384 . S
H460 C462 0.949 . S
C461 C459 1.384 . S
C461 C462 1.385 . S
C461 H463 0.950 . S
C462 C456 1.404 . S
C462 H460 0.949 . S
C462 C461 1.385 . S
H463 C461 0.950 . S
H464 C448 0.951 . S
H465 C450 0.951 . S
H466 C452 0.951 . S
H467 C453 0.950 . S
H468 C454 0.950 . S
H469 C455 0.950 . S
H470 C457 0.950 . S
H471 C458 0.951 . S
C137 C6 1.058 . S
C147 C28 1.071 . S
C161 C62 1.077 . S
C171 C40 1.054 . S
C185 C74 1.083 . S
C195 C96 1.074 . S
C209 C108 1.081 . S
C219 C130 1.086 . S
C233 C17 1.945 1_565 S
C243 C51 1.923 1_565 S
C257 C119 1.956 . S
C267 C85 1.931 . S
C281 C3 1.192 . S
C291 C37 1.071 . S
C305 C105 1.109 . S
C315 C71 1.217 . S
C329 C35 1.948 . S
C339 C1 1.956 . S
C353 C103 1.978 . S
C363 C69 1.913 . S
C377 C15 1.834 . S
C387 C124 1.689 . S
C401 C90 1.670 . S
C411 C49 1.804 . S
C425 C56 1.728 . S
C435 C83 1.860 . S
C449 C117 1.845 . S
C459 C22 1.620 . S
