# Generated by pormake.
# Topology whp, (6)-cn, num edge types: 1
# Building blocks:
#     Node 0, Type 0, BuildingBlock: VOLQOD_clean_sbu_1, # of connection points: 6
#     Node 1, Type 0, BuildingBlock: VOLQOD_clean_sbu_1, # of connection points: 6
#     Node 2, Type 0, BuildingBlock: VOLQOD_clean_sbu_1, # of connection points: 6
#     Node 3, Type 0, BuildingBlock: VOLQOD_clean_sbu_1, # of connection points: 6
#     Node 4, Type 0, BuildingBlock: VOLQOD_clean_sbu_1, # of connection points: 6
#     Node 5, Type 0, BuildingBlock: VOLQOD_clean_sbu_1, # of connection points: 6
#     Node 6, Type 0, BuildingBlock: VOLQOD_clean_sbu_1, # of connection points: 6
#     Node 7, Type 0, BuildingBlock: VOLQOD_clean_sbu_1, # of connection points: 6
#     Node 8, Type 0, BuildingBlock: VOLQOD_clean_sbu_1, # of connection points: 6
#     Node 9, Type 0, BuildingBlock: VOLQOD_clean_sbu_1, # of connection points: 6
#     Node 10, Type 0, BuildingBlock: VOLQOD_clean_sbu_1, # of connection points: 6
#     Node 11, Type 0, BuildingBlock: VOLQOD_clean_sbu_1, # of connection points: 6
#     Node 12, Type 0, BuildingBlock: VOLQOD_clean_sbu_1, # of connection points: 6
#     Node 13, Type 0, BuildingBlock: VOLQOD_clean_sbu_1, # of connection points: 6
#     Node 14, Type 0, BuildingBlock: VOLQOD_clean_sbu_1, # of connection points: 6
#     Node 15, Type 0, BuildingBlock: VOLQOD_clean_sbu_1, # of connection points: 6
#     Edge 16, Type (0, 0), BuildingBlock: XIVTED_clean_linker_0, # of connection points: 2
#     Edge 17, Type (0, 0), BuildingBlock: XIVTED_clean_linker_0, # of connection points: 2
#     Edge 18, Type (0, 0), BuildingBlock: XIVTED_clean_linker_0, # of connection points: 2
#     Edge 19, Type (0, 0), BuildingBlock: XIVTED_clean_linker_0, # of connection points: 2
#     Edge 20, Type (0, 0), BuildingBlock: XIVTED_clean_linker_0, # of connection points: 2
#     Edge 21, Type (0, 0), BuildingBlock: XIVTED_clean_linker_0, # of connection points: 2
#     Edge 22, Type (0, 0), BuildingBlock: XIVTED_clean_linker_0, # of connection points: 2
#     Edge 23, Type (0, 0), BuildingBlock: XIVTED_clean_linker_0, # of connection points: 2
#     Edge 24, Type (0, 0), BuildingBlock: XIVTED_clean_linker_0, # of connection points: 2
#     Edge 25, Type (0, 0), BuildingBlock: XIVTED_clean_linker_0, # of connection points: 2
#     Edge 26, Type (0, 0), BuildingBlock: XIVTED_clean_linker_0, # of connection points: 2
#     Edge 27, Type (0, 0), BuildingBlock: XIVTED_clean_linker_0, # of connection points: 2
#     Edge 28, Type (0, 0), BuildingBlock: XIVTED_clean_linker_0, # of connection points: 2
#     Edge 29, Type (0, 0), BuildingBlock: XIVTED_clean_linker_0, # of connection points: 2
#     Edge 30, Type (0, 0), BuildingBlock: XIVTED_clean_linker_0, # of connection points: 2
#     Edge 31, Type (0, 0), BuildingBlock: XIVTED_clean_linker_0, # of connection points: 2
#     Edge 32, Type (0, 0), BuildingBlock: XIVTED_clean_linker_0, # of connection points: 2
#     Edge 33, Type (0, 0), BuildingBlock: XIVTED_clean_linker_0, # of connection points: 2
#     Edge 34, Type (0, 0), BuildingBlock: XIVTED_clean_linker_0, # of connection points: 2
#     Edge 35, Type (0, 0), BuildingBlock: XIVTED_clean_linker_0, # of connection points: 2
#     Edge 36, Type (0, 0), BuildingBlock: XIVTED_clean_linker_0, # of connection points: 2
#     Edge 37, Type (0, 0), BuildingBlock: XIVTED_clean_linker_0, # of connection points: 2
#     Edge 38, Type (0, 0), BuildingBlock: XIVTED_clean_linker_0, # of connection points: 2
#     Edge 39, Type (0, 0), BuildingBlock: XIVTED_clean_linker_0, # of connection points: 2
#     Edge 40, Type (0, 0), BuildingBlock: XIVTED_clean_linker_0, # of connection points: 2
#     Edge 41, Type (0, 0), BuildingBlock: XIVTED_clean_linker_0, # of connection points: 2
#     Edge 42, Type (0, 0), BuildingBlock: XIVTED_clean_linker_0, # of connection points: 2
#     Edge 43, Type (0, 0), BuildingBlock: XIVTED_clean_linker_0, # of connection points: 2
#     Edge 44, Type (0, 0), BuildingBlock: XIVTED_clean_linker_0, # of connection points: 2
#     Edge 45, Type (0, 0), BuildingBlock: XIVTED_clean_linker_0, # of connection points: 2
#     Edge 46, Type (0, 0), BuildingBlock: XIVTED_clean_linker_0, # of connection points: 2
#     Edge 47, Type (0, 0), BuildingBlock: XIVTED_clean_linker_0, # of connection points: 2
#     Edge 48, Type (0, 0), BuildingBlock: XIVTED_clean_linker_0, # of connection points: 2
#     Edge 49, Type (0, 0), BuildingBlock: XIVTED_clean_linker_0, # of connection points: 2
#     Edge 50, Type (0, 0), BuildingBlock: XIVTED_clean_linker_0, # of connection points: 2
#     Edge 51, Type (0, 0), BuildingBlock: XIVTED_clean_linker_0, # of connection points: 2
#     Edge 52, Type (0, 0), BuildingBlock: XIVTED_clean_linker_0, # of connection points: 2
#     Edge 53, Type (0, 0), BuildingBlock: XIVTED_clean_linker_0, # of connection points: 2
#     Edge 54, Type (0, 0), BuildingBlock: XIVTED_clean_linker_0, # of connection points: 2
#     Edge 55, Type (0, 0), BuildingBlock: XIVTED_clean_linker_0, # of connection points: 2
#     Edge 56, Type (0, 0), BuildingBlock: XIVTED_clean_linker_0, # of connection points: 2
#     Edge 57, Type (0, 0), BuildingBlock: XIVTED_clean_linker_0, # of connection points: 2
#     Edge 58, Type (0, 0), BuildingBlock: XIVTED_clean_linker_0, # of connection points: 2
#     Edge 59, Type (0, 0), BuildingBlock: XIVTED_clean_linker_0, # of connection points: 2
#     Edge 60, Type (0, 0), BuildingBlock: XIVTED_clean_linker_0, # of connection points: 2
#     Edge 61, Type (0, 0), BuildingBlock: XIVTED_clean_linker_0, # of connection points: 2
#     Edge 62, Type (0, 0), BuildingBlock: XIVTED_clean_linker_0, # of connection points: 2
#     Edge 63, Type (0, 0), BuildingBlock: XIVTED_clean_linker_0, # of connection points: 2
# Relax obj value: 0.402
# Max RMSD: 0.252
# Mean RMSD: 0.249
data_MOF--net-whp--node1-VOLQOD_clean_sbu_1--edge1-XIVTED_clean_linker_0
_symmetry_space_group_name_H-M    P1
_symmetry_Int_Tables_number       1
_symmetry_cell_setting            triclinic
loop_
_symmetry_equiv_pos_as_xyz
'x, y, z'
_cell_length_a     52.01622
_cell_length_b     52.121626
_cell_length_c     29.207816
_cell_angle_alpha  90.013147
_cell_angle_beta   89.856726
_cell_angle_gamma 90.177305
loop_
_atom_site_label
_atom_site_type_symbol
_atom_site_fract_x
_atom_site_fract_y
_atom_site_fract_z
_atom_type_partial_charge
O0 O 0.30515 0.57049 0.35969 0.0
Zn1 Zn 0.28551 0.55776 0.30542 0.0
O2 O 0.28773 0.52095 0.30001 0.0
Zn3 Zn 0.25332 0.50557 0.29644 0.0
Zn4 Zn 0.3058 0.50771 0.35215 0.0
Zn5 Zn 0.30871 0.51355 0.24704 0.0
O6 O 0.25003 0.48616 0.23522 0.0
O7 O 0.28661 0.49718 0.20018 0.0
O8 O 0.24926 0.56911 0.31059 0.0
O9 O 0.2262 0.53371 0.29947 0.0
O10 O 0.24616 0.48352 0.35361 0.0
O11 O 0.28151 0.49089 0.39431 0.0
O12 O 0.3308 0.48087 0.33479 0.0
O13 O 0.30252 0.57575 0.25289 0.0
O14 O 0.33549 0.48734 0.26031 0.0
O15 O 0.32657 0.54508 0.22237 0.0
C16 C 0.32113 0.55966 0.38622 0.0
C17 C 0.26486 0.48588 0.20011 0.0
C18 C 0.25921 0.48116 0.39043 0.0
C19 C 0.22767 0.55781 0.3069 0.0
C20 C 0.34127 0.47545 0.29676 0.0
C21 C 0.32044 0.5686 0.22611 0.0
O22 O 0.32446 0.5355 0.38553 0.0
O23 O 0.91449 0.30236 0.85654 0.0
Zn24 Zn 0.92701 0.28713 0.79751 0.0
O25 O 0.96299 0.29476 0.78503 0.0
Zn26 Zn 0.98258 0.26286 0.77784 0.0
Zn27 Zn 0.97607 0.31425 0.83599 0.0
Zn28 Zn 0.96579 0.31601 0.73048 0.0
O29 O 0.00061 0.26218 0.71522 0.0
O30 O 0.98414 0.29671 0.68139 0.0
O31 O 0.92071 0.24957 0.79974 0.0
O32 O 0.95815 0.23252 0.77916 0.0
O33 O 0.00629 0.2574 0.83321 0.0
O34 O 9e-05 0.29334 0.87256 0.0
O35 O -0.00676 0.34622 0.81626 0.0
O36 O 0.90439 0.3031 0.75019 0.0
O37 O 0.98596 0.34826 0.74159 0.0
O38 O 0.9309 0.32728 0.70879 0.0
C39 C 0.925 0.31824 0.88371 0.0
C40 C -0.00207 0.27657 0.68004 0.0
C41 C 0.01039 0.27139 0.86846 0.0
C42 C 0.93458 0.23022 0.79055 0.0
C43 C -0.00473 0.35768 0.77809 0.0
C44 C 0.90831 0.31978 0.71912 0.0
O45 O 0.94825 0.32512 0.87843 0.0
O46 O 0.18548 0.91423 0.39535 0.0
Zn47 Zn 0.19745 0.9211 0.33143 0.0
O48 O 0.19402 0.95642 0.31291 0.0
Zn49 Zn 0.22808 0.97208 0.30432 0.0
Zn50 Zn 0.17527 0.973 0.36128 0.0
Zn51 Zn 0.17338 0.95838 0.25758 0.0
O52 O 0.2297 0.98918 0.24057 0.0
O53 O 0.19427 0.97361 0.2077 0.0
O54 O 0.23343 0.90929 0.32545 0.0
O55 O 0.25573 0.94427 0.30717 0.0
O56 O 0.23558 -0.00329 0.35787 0.0
O57 O 0.19846 -0.00425 0.39576 0.0
O58 O 0.14636 -0.00647 0.33816 0.0
O59 O 0.17421 0.89917 0.29433 0.0
O60 O 0.14358 0.98243 0.26513 0.0
O61 O 0.1581 0.92409 0.23987 0.0
C62 C 0.16807 0.9258 0.41776 0.0
C63 C 0.21503 0.98658 0.20567 0.0
C64 C 0.22149 0.00361 0.39165 0.0
C65 C 0.25466 0.92032 0.31629 0.0
C66 C 0.13548 -0.00494 0.29945 0.0
C67 C 0.15979 0.90245 0.25979 0.0
O68 O 0.16047 0.94796 0.40589 0.0
O69 O 0.56294 0.18671 0.88594 0.0
Zn70 Zn 0.55214 0.20031 0.82495 0.0
O71 O 0.51637 0.19258 0.81109 0.0
Zn72 Zn 0.49728 0.22441 0.79984 0.0
Zn73 Zn 0.50173 0.17445 0.8627 0.0
Zn74 Zn 0.51472 0.17015 0.75805 0.0
O75 O 0.48012 0.2235 0.73703 0.0
O76 O 0.49604 0.18751 0.70746 0.0
O77 O 0.55863 0.23788 0.8245 0.0
O78 O 0.52181 0.25463 0.80023 0.0
O79 O 0.47195 0.23119 0.852 0.0
O80 O 0.47587 0.19596 0.89415 0.0
O81 O 0.48533 0.1417 0.84452 0.0
O82 O 0.57582 0.1831 0.78019 0.0
O83 O 0.49522 0.1379 0.77101 0.0
O84 O 0.54989 0.15932 0.73723 0.0
C85 C 0.55162 0.17222 0.9146 0.0
C86 C 0.48248 0.2077 0.70384 0.0
C87 C 0.46592 0.21783 0.88709 0.0
C88 C 0.54512 0.25707 0.81289 0.0
C89 C 0.4847 0.12927 0.80716 0.0
C90 C 0.57235 0.16652 0.74879 0.0
O91 O 0.52837 0.16542 0.90895 0.0
O92 O 0.80149 0.40433 0.13364 0.0
Zn93 Zn 0.7844 0.41633 0.19146 0.0
O94 O 0.78889 0.45285 0.20198 0.0
Zn95 Zn 0.75521 0.47003 0.20612 0.0
Zn96 Zn 0.80883 0.46665 0.15192 0.0
Zn97 Zn 0.80909 0.45764 0.25716 0.0
O98 O 0.75249 0.4893 0.26794 0.0
O99 O 0.78833 0.4765 0.30271 0.0
O100 O 0.74754 0.40699 0.18855 0.0
O101 O 0.72646 0.44321 0.20228 0.0
O102 O 0.75 0.49335 0.14985 0.0
O103 O 0.78721 0.48872 0.11326 0.0
O104 O 0.8387 0.48721 0.17253 0.0
O105 O 0.80123 0.39574 0.24045 0.0
O106 O 0.84013 0.47957 0.24697 0.0
O107 O 0.82196 0.42433 0.28291 0.0
C108 C 0.81742 0.41549 0.10721 0.0
C109 C 0.76735 0.48898 0.30287 0.0
C110 C 0.76472 0.49805 0.11568 0.0
C111 C 0.72661 0.41916 0.19381 0.0
C112 C 0.84927 0.49012 0.21129 0.0
C113 C 0.81652 0.40119 0.27295 0.0
O114 O 0.82276 0.43913 0.11189 0.0
O115 O 0.06855 0.80532 0.65526 0.0
Zn116 Zn 0.05467 0.78819 0.71131 0.0
O117 O 0.01828 0.7943 0.72025 0.0
Zn118 Zn -4e-05 0.7615 0.72695 0.0
Zn119 Zn 0.00598 0.81278 0.6676 0.0
Zn120 Zn 0.01361 0.81605 0.77362 0.0
O121 O 0.98065 0.7607 0.78848 0.0
O122 O -0.00497 0.79638 0.82199 0.0
O123 O 0.06234 0.75108 0.70724 0.0
O124 O 0.02568 0.73223 0.72799 0.0
O125 O 0.97749 0.75476 0.6701 0.0
O126 O 0.98435 0.79016 0.62925 0.0
O127 O 0.98558 0.84309 0.68531 0.0
O128 O 0.07534 0.80379 0.76179 0.0
O129 O -0.00811 0.84677 0.76003 0.0
O130 O 0.04756 0.82929 0.79723 0.0
C131 C 0.05851 0.82095 0.62722 0.0
C132 C 0.98199 0.77566 0.82319 0.0
C133 C 0.97419 0.76809 0.6338 0.0
C134 C 0.04932 0.73111 0.71659 0.0
C135 C 0.98216 0.85483 0.72289 0.0
C136 C 0.0704 0.82139 0.79065 0.0
O137 O 0.0347 0.82622 0.62893 0.0
O138 O 0.67581 0.07577 0.14842 0.0
Zn139 Zn 0.69576 0.06039 0.20043 0.0
O140 O 0.69005 0.0237 0.2054 0.0
Zn141 Zn 0.72311 0.00541 0.20755 0.0
Zn142 Zn 0.67006 0.01251 0.15378 0.0
Zn143 Zn 0.66908 0.01763 0.25899 0.0
O144 O 0.72571 0.98576 0.26894 0.0
O145 O 0.68962 -0.00179 0.30378 0.0
O146 O 0.73274 0.06809 0.19115 0.0
O147 O 0.75282 0.03105 0.20225 0.0
O148 O 0.72717 0.98283 0.15003 0.0
O149 O 0.69168 -0.00745 0.11147 0.0
O150 O 0.64069 -0.00962 0.17143 0.0
O151 O 0.68274 0.0794 0.25541 0.0
O152 O 0.63832 -0.00443 0.24646 0.0
O153 O 0.65628 0.05066 0.28608 0.0
C154 C 0.65955 0.06603 0.12097 0.0
C155 C 0.71064 0.9858 0.30375 0.0
C156 C 0.7132 0.9812 0.11412 0.0
C157 C 0.75332 0.05507 0.1936 0.0
C158 C 0.62981 0.98595 0.20953 0.0
C159 C 0.6648 0.07351 0.2832 0.0
O160 O 0.65515 0.04205 0.12027 0.0
O161 O 0.41834 0.6814 0.61943 0.0
Zn162 Zn 0.42627 0.69313 0.68287 0.0
O163 O 0.46167 0.68845 0.70028 0.0
Zn164 Zn 0.4788 0.72192 0.70763 0.0
Zn165 Zn 0.47735 0.66885 0.6518 0.0
Zn166 Zn 0.46304 0.6683 0.75641 0.0
O167 O 0.49648 0.72347 0.77082 0.0
O168 O 0.48078 0.68838 0.80454 0.0
O169 O 0.41622 0.72946 0.68778 0.0
O170 O 0.45212 0.75066 0.70446 0.0
O171 O 0.50346 0.72795 0.65345 0.0
O172 O 0.50227 0.69027 0.61787 0.0
O173 O 0.49445 0.63778 0.67481 0.0
O174 O 0.40342 0.6716 0.72173 0.0
O175 O 0.48406 0.63637 0.74845 0.0
O176 O 0.42798 0.65612 0.77724 0.0
C177 C 0.42971 0.66476 0.59503 0.0
C178 C 0.49423 0.70881 0.80582 0.0
C179 C 0.51049 0.71319 0.62076 0.0
C180 C 0.42806 0.75033 0.69584 0.0
C181 C 0.49511 0.62684 0.71358 0.0
C182 C 0.40624 0.65821 0.7577 0.0
O183 O 0.4519 0.65664 0.60563 0.0
O184 O 0.68098 0.41561 0.61801 0.0
Zn185 Zn 0.69365 0.42423 0.68049 0.0
O186 O 0.68947 0.45989 0.69642 0.0
Zn187 Zn 0.72326 0.47666 0.70212 0.0
Zn188 Zn 0.66945 0.47517 0.64813 0.0
Zn189 Zn 0.66984 0.46221 0.75307 0.0
O190 O 0.72589 0.49454 0.76519 0.0
O191 O 0.6908 0.47953 0.80021 0.0
O192 O 0.72998 0.41368 0.68462 0.0
O193 O 0.75164 0.44965 0.69844 0.0
O194 O 0.72901 0.50061 0.6469 0.0
O195 O 0.69092 0.49927 0.61261 0.0
O196 O 0.63882 0.49318 0.67177 0.0
O197 O 0.67202 0.40233 0.72059 0.0
O198 O 0.63845 0.48394 0.74583 0.0
O199 O 0.65672 0.42786 0.77493 0.0
C200 C 0.66439 0.42683 0.59338 0.0
C201 C 0.71153 0.49256 0.80075 0.0
C202 C 0.71399 0.50728 0.61439 0.0
C203 C 0.75106 0.4255 0.69116 0.0
C204 C 0.62854 0.49471 0.71114 0.0
C205 C 0.65853 0.40588 0.75631 0.0
O206 O 0.65669 0.4493 0.60302 0.0
O207 O 0.06767 0.67786 0.15417 0.0
Zn208 Zn 0.05344 0.69519 0.20989 0.0
O209 O 0.0171 0.68822 0.21886 0.0
Zn210 Zn -0.00195 0.72045 0.22572 0.0
Zn211 Zn 0.00502 0.66957 0.16625 0.0
Zn212 Zn 0.01281 0.6662 0.27193 0.0
O213 O 0.97953 0.72107 0.28809 0.0
O214 O -0.00556 0.6855 0.32087 0.0
O215 O 0.06029 0.73262 0.20501 0.0
O216 O 0.02306 0.75039 0.22492 0.0
O217 O 0.97493 0.72646 0.16954 0.0
O218 O 0.98329 0.69178 0.12775 0.0
O219 O 0.98465 0.6391 0.18369 0.0
O220 O 0.07441 0.68018 0.26056 0.0
O221 O -0.0088 0.63518 0.25827 0.0
O222 O 0.04703 0.65362 0.29485 0.0
C223 C 0.05773 0.66189 0.12648 0.0
C224 C 0.98132 0.70608 0.32267 0.0
C225 C 0.97228 0.71332 0.13282 0.0
C226 C 0.04667 0.75226 0.21351 0.0
C227 C 0.98134 0.62718 0.22113 0.0
C228 C 0.06976 0.6621 0.28872 0.0
O229 O 0.03394 0.65642 0.12819 0.0
O230 O 0.79571 0.06723 0.60979 0.0
Zn231 Zn 0.78507 0.06039 0.67462 0.0
O232 O 0.78904 0.02512 0.69316 0.0
Zn233 Zn 0.7553 0.00875 0.70063 0.0
Zn234 Zn 0.80862 0.00897 0.64543 0.0
Zn235 Zn 0.8089 0.02363 0.74945 0.0
O236 O 0.75345 -0.00889 0.76374 0.0
O237 O 0.78798 0.00744 0.79837 0.0
O238 O 0.74915 0.07196 0.68352 0.0
O239 O 0.72741 0.03624 0.69934 0.0
O240 O 0.74868 0.98431 0.64644 0.0
O241 O 0.78674 0.9846 0.61163 0.0
O242 O 0.83883 -0.00941 0.6692 0.0
O243 O 0.80874 0.08235 0.71084 0.0
O244 O 0.83977 0.00098 0.74272 0.0
O245 O 0.82286 0.05823 0.76816 0.0
C246 C 0.81307 0.05585 0.58689 0.0
C247 C 0.76757 -0.0061 0.79928 0.0
C248 C 0.76361 0.97684 0.61423 0.0
C249 C 0.72816 0.06043 0.69251 0.0
C250 C 0.84921 0.98935 0.70839 0.0
C251 C 0.8221 0.0795 0.74683 0.0
O252 O 0.82158 0.03414 0.59934 0.0
O253 O 0.41315 0.79702 0.14078 0.0
Zn254 Zn 0.42588 0.78061 0.19817 0.0
O255 O 0.46242 0.78563 0.20699 0.0
Zn256 Zn 0.47977 0.75204 0.21174 0.0
Zn257 Zn 0.47561 0.80486 0.15559 0.0
Zn258 Zn 0.46733 0.80687 0.26095 0.0
O259 O 0.4987 0.75019 0.27375 0.0
O260 O 0.48601 0.78647 0.30736 0.0
O261 O 0.41714 0.74385 0.19486 0.0
O262 O 0.45336 0.72275 0.20816 0.0
O263 O 0.50321 0.74649 0.15551 0.0
O264 O 0.49757 0.78289 0.11729 0.0
O265 O 0.49616 0.8351 0.17414 0.0
O266 O 0.4052 0.7972 0.24755 0.0
O267 O 0.48947 0.83766 0.24883 0.0
O268 O 0.43376 0.82025 0.28617 0.0
C269 C 0.42383 0.81241 0.11285 0.0
C270 C 0.4983 0.76539 0.30826 0.0
C271 C 0.50736 0.76069 0.12052 0.0
C272 C 0.4293 0.72293 0.19955 0.0
C273 C 0.49957 0.84625 0.21227 0.0
C274 C 0.41061 0.81372 0.27809 0.0
O275 O 0.44755 0.81794 0.11588 0.0
O276 O 0.18405 0.56387 0.89971 0.0
Zn277 Zn 0.19679 0.5567 0.83623 0.0
O278 O 0.18831 0.52262 0.8143 0.0
Zn279 Zn 0.21954 0.50266 0.80434 0.0
Zn280 Zn 0.16716 0.50706 0.8606 0.0
Zn281 Zn 0.16845 0.5246 0.75829 0.0
O282 O 0.2188 0.48571 0.74085 0.0
O283 O 0.1872 0.50759 0.70758 0.0
O284 O 0.23451 0.56323 0.8331 0.0
O285 O 0.25025 0.52672 0.80527 0.0
O286 O 0.2244 0.47756 0.85773 0.0
O287 O 0.18713 0.48118 0.89452 0.0
O288 O 0.13582 0.4912 0.83497 0.0
O289 O 0.17803 0.58263 0.79885 0.0
O290 O 0.1353 0.50513 0.76328 0.0
O291 O 0.15896 0.56091 0.74293 0.0
C292 C 0.16511 0.55366 0.92046 0.0
C293 C 0.20539 0.49134 0.70558 0.0
C294 C 0.20946 0.47154 0.89091 0.0
C295 C 0.2533 0.54975 0.81909 0.0
C296 C 0.12512 0.49269 0.79606 0.0
C297 C 0.16369 0.58186 0.76366 0.0
O298 O 0.15535 0.53268 0.90662 0.0
O299 O 0.90933 0.17159 0.3378 0.0
Zn300 Zn 0.92366 0.19082 0.28406 0.0
O301 O 0.96056 0.18713 0.27891 0.0
Zn302 Zn 0.97715 0.22104 0.27529 0.0
Zn303 Zn 0.97265 0.16891 0.33194 0.0
Zn304 Zn 0.96755 0.16609 0.22542 0.0
O305 O -0.00418 0.22442 0.21328 0.0
O306 O 0.98521 0.18773 0.17867 0.0
O307 O 0.91393 0.2272 0.29091 0.0
O308 O 0.95012 0.24913 0.28033 0.0
O309 O 0.00012 0.22726 0.33149 0.0
O310 O -0.00757 0.1921 0.37241 0.0
O311 O -0.00464 0.14019 0.31472 0.0
O312 O 0.90528 0.17572 0.23054 0.0
O313 O -0.00855 0.13703 0.23943 0.0
O314 O 0.93493 0.15047 0.19975 0.0
C315 C 0.91968 0.15687 0.36706 0.0
C316 C -0.00377 0.20961 0.17825 0.0
C317 C 0.00276 0.2141 0.36813 0.0
C318 C 0.926 0.24838 0.28825 0.0
C319 C 0.00079 0.12927 0.2771 0.0
C320 C 0.9117 0.15785 0.2032 0.0
O321 O 0.94387 0.15362 0.36804 0.0
O322 O 0.30392 0.90696 0.87091 0.0
Zn323 Zn 0.2875 0.92002 0.81347 0.0
O324 O 0.29285 0.95655 0.80487 0.0
Zn325 Zn 0.25954 0.97434 0.7995 0.0
Zn326 Zn 0.31172 0.9696 0.8566 0.0
Zn327 Zn 0.31452 0.96147 0.75134 0.0
O328 O 0.25825 -0.00655 0.73763 0.0
O329 O 0.29486 0.98078 0.70491 0.0
O330 O 0.25045 0.91167 0.81608 0.0
O331 O 0.2301 0.94826 0.80237 0.0
O332 O 0.25358 -0.00242 0.85561 0.0
O333 O 0.28982 -0.0081 0.89433 0.0
O334 O 0.34269 0.98925 0.83888 0.0
O335 O 0.30399 0.89952 0.76373 0.0
O336 O 0.34583 0.98253 0.76429 0.0
O337 O 0.32733 0.92808 0.72547 0.0
C338 C 0.31884 0.9178 0.8994 0.0
C339 C 0.27384 -0.00683 0.70357 0.0
C340 C 0.26762 0.00172 0.89075 0.0
C341 C 0.22977 0.92422 0.81077 0.0
C342 C 0.35439 -0.00776 0.8011 0.0
C343 C 0.32054 0.90502 0.73313 0.0
O344 O 0.32395 0.94157 0.89671 0.0
O345 O 0.47383 0.26179 0.23265 0.0
Zn346 Zn 0.48297 0.27818 0.29374 0.0
O347 O 0.51965 0.28622 0.29624 0.0
Zn348 Zn 0.53446 0.27358 0.35187 0.0
Zn349 Zn 0.53738 0.27109 0.2454 0.0
Zn350 Zn 0.52507 0.32267 0.29216 0.0
O351 O 0.55549 0.30052 0.38342 0.0
O352 O 0.54332 0.33591 0.34739 0.0
O353 O 0.4711 0.25874 0.35046 0.0
O354 O 0.50618 0.26263 0.3938 0.0
O355 O 0.55641 0.24284 0.33984 0.0
O356 O 0.55342 0.23749 0.26442 0.0
O357 O 0.56535 0.29498 0.2215 0.0
O358 O 0.46278 0.31097 0.29395 0.0
O359 O 0.54827 0.33231 0.24096 0.0
O360 O 0.49246 0.34133 0.28517 0.0
C361 C 0.48723 0.26132 0.19596 0.0
C362 C 0.55588 0.3248 0.37892 0.0
C363 C 0.561 0.23 0.3037 0.0
C364 C 0.48271 0.25632 0.38863 0.0
C365 C 0.56523 0.31943 0.21981 0.0
C366 C 0.46913 0.33434 0.28818 0.0
O367 O 0.51135 0.26576 0.19605 0.0
H368 H 0.36425 0.54532 0.43269 0.0
H369 H 0.38382 0.67923 0.55736 0.0
H370 H 0.31534 0.61056 0.40684 0.0
H371 H 0.44318 0.62167 0.5476 0.0
H372 H 0.35777 0.65447 0.50358 0.0
H373 H 0.39227 0.57266 0.47849 0.0
C374 C 0.35931 0.56536 0.43687 0.0
C375 C 0.33738 0.57567 0.41606 0.0
C376 C 0.37663 0.64746 0.51284 0.0
C377 C 0.36946 0.60706 0.46812 0.0
C378 C 0.39152 0.66158 0.54346 0.0
C379 C 0.4156 0.65236 0.55733 0.0
C380 C 0.38578 0.62386 0.49653 0.0
C381 C 0.42468 0.62945 0.53804 0.0
C382 C 0.37544 0.581 0.46267 0.0
C383 C 0.33205 0.60182 0.42233 0.0
N384 N 0.4096 0.6158 0.50906 0.0
N385 N 0.34795 0.61663 0.44802 0.0
H386 H 0.80778 0.36627 0.07793 0.0
H387 H 0.9389 0.35839 0.93813 0.0
H388 H 0.85963 0.43031 0.05858 0.0
H389 H 0.87576 0.30651 0.91115 0.0
H390 H 0.912 0.38134 0.99253 0.0
H391 H 0.83403 0.34098 0.02465 0.0
C392 C 0.82455 0.37505 0.06233 0.0
C393 C 0.83156 0.40042 0.07273 0.0
C394 C 0.90405 0.3649 0.97476 0.0
C395 C 0.86165 0.3716 0.01278 0.0
C396 C 0.91944 0.35166 0.9439 0.0
C397 C 0.9095 0.33059 0.91979 0.0
C398 C 0.87859 0.35693 0.98196 0.0
C399 C 0.88412 0.32277 0.92882 0.0
C400 C 0.83946 0.36062 0.03203 0.0
C401 C 0.85345 0.41086 0.05155 0.0
N402 N 0.86946 0.336 0.95926 0.0
N403 N 0.86781 0.39633 0.02287 0.0
H404 H 0.10891 0.81139 0.60579 0.0
H405 H 0.12464 0.94088 0.463 0.0
H406 H 0.0464 0.86323 0.57664 0.0
H407 H 0.17949 0.87893 0.45501 0.0
H408 H 0.09844 0.91508 0.51482 0.0
H409 H 0.13724 0.83782 0.5581 0.0
C410 C 0.10109 0.8282 0.58912 0.0
C411 C 0.07524 0.83511 0.59516 0.0
C412 C 0.11629 0.9072 0.50188 0.0
C413 C 0.10759 0.86553 0.54144 0.0
C414 C 0.13138 0.92199 0.4726 0.0
C415 C 0.1542 0.91196 0.45431 0.0
C416 C 0.12414 0.88228 0.51323 0.0
C417 C 0.16194 0.88735 0.46805 0.0
C418 C 0.11728 0.84327 0.56206 0.0
C419 C 0.06615 0.8571 0.5728 0.0
N420 N 0.14685 0.87327 0.49659 0.0
N421 N 0.08236 0.87162 0.54717 0.0
H422 H 0.60075 0.18395 0.94187 0.0
H423 H 0.61478 0.05402 0.07805 0.0
H424 H 0.53669 0.13372 0.97217 0.0
H425 H 0.66823 0.11655 0.09865 0.0
H426 H 0.58761 0.08237 0.03335 0.0
H427 H 0.62713 0.1596 0.99583 0.0
C428 C 0.59213 0.16806 0.96029 0.0
C429 C 0.56657 0.16064 0.95208 0.0
C430 C 0.60524 0.08994 0.04776 0.0
C431 C 0.59666 0.13267 0.01296 0.0
C432 C 0.62091 0.0737 0.07291 0.0
C433 C 0.64387 0.08293 0.09193 0.0
C434 C 0.6127 0.11552 0.04095 0.0
C435 C 0.65068 0.10869 0.08451 0.0
C436 C 0.60719 0.15422 0.99101 0.0
C437 C 0.55634 0.14002 0.9771 0.0
N438 N 0.6352 0.12412 0.05922 0.0
N439 N 0.57154 0.12653 0.00592 0.0
H440 H 0.55889 0.37712 0.38387 0.0
H441 H 0.67068 0.37631 0.57077 0.0
H442 H 0.59076 0.30802 0.44216 0.0
H443 H 0.62912 0.4445 0.53162 0.0
H444 H 0.6454 0.35159 0.51605 0.0
H445 H 0.58768 0.40256 0.43167 0.0
C446 C 0.57188 0.36728 0.40681 0.0
C447 C 0.57234 0.34039 0.40917 0.0
C448 C 0.64194 0.37199 0.51925 0.0
C449 C 0.60547 0.36941 0.46358 0.0
C450 C 0.65647 0.38617 0.55028 0.0
C451 C 0.65183 0.41248 0.5561 0.0
C452 C 0.6227 0.38422 0.49379 0.0
C453 C 0.6332 0.42421 0.52852 0.0
C454 C 0.58834 0.38183 0.434 0.0
C455 C 0.58963 0.32871 0.43942 0.0
N456 N 0.61919 0.40995 0.49873 0.0
N457 N 0.60555 0.3433 0.46543 0.0
H458 H 0.12193 0.5396 0.96752 0.0
H459 H 0.10864 0.67055 0.10649 0.0
H460 H 0.17815 0.60053 0.95678 0.0
H461 H 0.04522 0.61963 0.07615 0.0
H462 H 0.13685 0.64324 0.06023 0.0
H463 H 0.09665 0.56625 0.01897 0.0
C464 C 0.12916 0.55846 0.97641 0.0
C465 C 0.15206 0.56796 0.95733 0.0
C466 C 0.11672 0.63821 0.06365 0.0
C467 C 0.12301 0.59864 0.01592 0.0
C468 C 0.1006 0.65378 0.08985 0.0
C469 C 0.07452 0.64737 0.09514 0.0
C470 C 0.10669 0.61597 0.04324 0.0
C471 C 0.06515 0.6254 0.07292 0.0
C472 C 0.11459 0.57373 0.00554 0.0
C473 C 0.16051 0.59251 0.97042 0.0
N474 N 0.08127 0.61041 0.04821 0.0
N475 N 0.14586 0.60713 0.99875 0.0
H476 H 0.93343 0.11583 0.41931 0.0
H477 H 0.79949 0.10163 0.54732 0.0
H478 H 0.8685 0.1638 0.38615 0.0
H479 H 0.85579 0.04099 0.53959 0.0
H480 H 0.82453 0.12613 0.49122 0.0
H481 H 0.90573 0.0901 0.46863 0.0
C482 C 0.91336 0.12106 0.4226 0.0
C483 C 0.90326 0.14203 0.39865 0.0
C484 C 0.83118 0.10733 0.50151 0.0
C485 C 0.87144 0.11254 0.45491 0.0
C486 C 0.81691 0.09332 0.53345 0.0
C487 C 0.82568 0.06931 0.54848 0.0
C488 C 0.85447 0.09735 0.4851 0.0
C489 C 0.84834 0.05946 0.52923 0.0
C490 C 0.89752 0.10621 0.45046 0.0
C491 C 0.87706 0.14777 0.40399 0.0
N492 N 0.8621 0.07366 0.49896 0.0
N493 N 0.86202 0.13314 0.43181 0.0
H494 H 0.35844 0.93281 0.95405 0.0
H495 H 0.37475 0.80081 0.08538 0.0
H496 H 0.31035 0.86739 0.92265 0.0
H497 H 0.4367 0.85491 0.06367 0.0
H498 H 0.34767 0.82623 0.03399 0.0
H499 H 0.38357 0.90609 0.00525 0.0
C500 C 0.35299 0.91287 0.95821 0.0
C501 C 0.33235 0.90225 0.93379 0.0
C502 C 0.36726 0.83231 0.04037 0.0
C503 C 0.36119 0.8716 0.99223 0.0
C504 C 0.3827 0.81789 0.06959 0.0
C505 C 0.40797 0.82583 0.07886 0.0
C506 C 0.37712 0.85496 0.02117 0.0
C507 C 0.41736 0.84805 0.05746 0.0
C508 C 0.36749 0.8976 0.98719 0.0
C509 C 0.32622 0.87628 0.94064 0.0
N510 N 0.40182 0.86197 0.02995 0.0
N511 N 0.34064 0.86175 0.96935 0.0
H512 H 0.34651 0.43619 0.35749 0.0
H513 H 0.4724 0.38045 0.24536 0.0
H514 H 0.37734 0.46623 0.23083 0.0
H515 H 0.42085 0.333 0.32503 0.0
H516 H 0.44019 0.41441 0.2452 0.0
H517 H 0.37654 0.40035 0.35243 0.0
C518 C 0.35969 0.43529 0.32874 0.0
C519 C 0.35961 0.45419 0.29458 0.0
C520 C 0.43589 0.39648 0.26237 0.0
C521 C 0.39375 0.41346 0.28875 0.0
C522 C 0.45423 0.37719 0.26268 0.0
C523 C 0.4492 0.35404 0.28547 0.0
C524 C 0.41264 0.39271 0.28576 0.0
C525 C 0.42536 0.35062 0.30704 0.0
C526 C 0.37659 0.41476 0.32572 0.0
C527 C 0.37683 0.45201 0.25784 0.0
N528 N 0.40797 0.36996 0.30715 0.0
N529 N 0.39344 0.43205 0.25606 0.0
H530 H 0.00192 0.39066 0.84876 0.0
H531 H 0.10406 0.47634 0.71512 0.0
H532 H 0.0184 0.38132 0.70477 0.0
H533 H 0.09085 0.47806 0.8611 0.0
H534 H 0.06644 0.44829 0.7066 0.0
H535 H 0.02774 0.42952 0.8494 0.0
C536 C 0.01097 0.39689 0.81718 0.0
C537 C 0.00862 0.3825 0.7769 0.0
C538 C 0.07161 0.45516 0.74034 0.0
C539 C 0.03841 0.42686 0.77744 0.0
C540 C 0.093 0.47114 0.74521 0.0
C541 C 0.1008 0.47896 0.78899 0.0
C542 C 0.05806 0.44723 0.77954 0.0
C543 C 0.08581 0.47194 0.82684 0.0
C544 C 0.02562 0.41914 0.8175 0.0
C545 C 0.0201 0.39176 0.73667 0.0
N546 N 0.0653 0.45626 0.82126 0.0
N547 N 0.03497 0.41322 0.73811 0.0
H548 H 0.10714 0.01585 0.36809 0.0
H549 H 0.02238 0.10378 0.20414 0.0
H550 H 0.11289 0.0127 0.2206 0.0
H551 H 0.01889 0.10433 0.35199 0.0
H552 H 0.05303 0.06821 0.20787 0.0
H553 H 0.072 0.04597 0.36127 0.0
C554 C 0.10096 0.0215 0.33417 0.0
C555 C 0.11314 0.01202 0.29484 0.0
C556 C 0.04538 0.07609 0.23938 0.0
C557 C 0.07285 0.0467 0.28672 0.0
C558 C 0.02794 0.09636 0.23729 0.0
C559 C 0.01831 0.10719 0.27783 0.0
C560 C 0.05307 0.06672 0.28226 0.0
C561 C 0.02603 0.09681 0.31984 0.0
C562 C 0.08081 0.03868 0.33027 0.0
C563 C 0.10405 0.01969 0.25179 0.0
N564 N 0.04301 0.07725 0.32091 0.0
N565 N 0.08452 0.03685 0.24882 0.0
H566 H 0.38118 0.0096 0.72622 0.0
H567 H 0.46894 0.10032 0.87954 0.0
H568 H 0.38153 0.00993 0.87416 0.0
H569 H 0.46894 0.10237 0.73168 0.0
H570 H 0.44196 0.06222 0.87726 0.0
H571 H 0.41812 0.03872 0.72662 0.0
C572 C 0.38916 0.0156 0.75873 0.0
C573 C 0.378 0.00777 0.80022 0.0
C574 C 0.44801 0.07084 0.84524 0.0
C575 C 0.42007 0.04087 0.80089 0.0
C576 C 0.46335 0.09265 0.84654 0.0
C577 C 0.47073 0.10477 0.80574 0.0
C578 C 0.43971 0.06126 0.80286 0.0
C579 C 0.4634 0.09373 0.76395 0.0
C580 C 0.41024 0.03217 0.75893 0.0
C581 C 0.38923 0.01588 0.84135 0.0
N582 N 0.44793 0.07273 0.76357 0.0
N583 N 0.40951 0.03218 0.84061 0.0
H584 H 0.96619 0.59963 0.14692 0.0
H585 H 0.87308 0.50756 0.28906 0.0
H586 H 0.96089 0.60124 0.29453 0.0
H587 H 0.87761 0.51014 0.14138 0.0
H588 H 0.90901 0.53786 0.29306 0.0
H589 H 0.93767 0.56274 0.14569 0.0
C590 C 0.95904 0.59217 0.17916 0.0
C591 C 0.96557 0.60375 0.22088 0.0
C592 C 0.90223 0.53159 0.25985 0.0
C593 C 0.93276 0.56148 0.21969 0.0
C594 C 0.88176 0.51432 0.25752 0.0
C595 C 0.87213 0.50664 0.2148 0.0
C596 C 0.91306 0.54111 0.21918 0.0
C597 C 0.88416 0.51583 0.17506 0.0
C598 C 0.94279 0.57103 0.17844 0.0
C599 C 0.95612 0.59298 0.26161 0.0
N600 N 0.90388 0.53271 0.17825 0.0
N601 N 0.9399 0.57253 0.25999 0.0
H602 H 0.96928 0.88381 0.64933 0.0
H603 H 0.87112 0.97172 0.7878 0.0
H604 H 0.95987 0.87927 0.7961 0.0
H605 H 0.88027 0.9716 0.64074 0.0
H606 H 0.90768 0.94236 0.79383 0.0
H607 H 0.94092 0.92062 0.64793 0.0
C608 C 0.96124 0.89061 0.68135 0.0
C609 C 0.96653 0.87823 0.72281 0.0
C610 C 0.90177 0.94901 0.76035 0.0
C611 C 0.93388 0.92037 0.72145 0.0
C612 C 0.88097 0.96573 0.75689 0.0
C613 C 0.87244 0.9737 0.71366 0.0
C614 C 0.914 0.94042 0.72029 0.0
C615 C 0.88591 0.96555 0.67472 0.0
C616 C 0.9451 0.91172 0.68056 0.0
C617 C 0.95604 0.88818 0.76335 0.0
N618 N 0.90589 0.94923 0.67898 0.0
N619 N 0.93987 0.90857 0.76162 0.0
H620 H 0.51685 0.87243 0.2878 0.0
H621 H 0.60284 0.96735 0.13689 0.0
H622 H 0.51902 0.87296 0.13989 0.0
H623 H 0.60574 0.96524 0.28467 0.0
H624 H 0.56811 0.93613 0.13848 0.0
H625 H 0.5457 0.90962 0.28837 0.0
C626 C 0.52326 0.88044 0.2555 0.0
C627 C 0.51578 0.86942 0.21374 0.0
C628 C 0.57622 0.94255 0.17064 0.0
C629 C 0.54857 0.9118 0.21419 0.0
C630 C 0.5961 0.96038 0.16974 0.0
C631 C 0.60742 0.96864 0.2107 0.0
C632 C 0.56768 0.93274 0.21276 0.0
C633 C 0.59765 0.95922 0.25227 0.0
C634 C 0.53969 0.90163 0.25586 0.0
C635 C 0.52452 0.88062 0.17291 0.0
N636 N 0.57844 0.94153 0.25224 0.0
N637 N 0.54054 0.90111 0.1742 0.0
H638 H 0.50392 0.59246 0.64605 0.0
H639 H 0.60711 0.51428 0.78966 0.0
H640 H 0.5178 0.60609 0.78967 0.0
H641 H 0.59539 0.50794 0.64374 0.0
H642 H 0.56911 0.5419 0.79461 0.0
H643 H 0.53144 0.55501 0.64931 0.0
C644 C 0.51273 0.58744 0.67839 0.0
C645 C 0.50915 0.60262 0.71741 0.0
C646 C 0.57476 0.53418 0.76167 0.0
C647 C 0.54095 0.55997 0.72135 0.0
C648 C 0.59639 0.51848 0.75882 0.0
C649 C 0.60463 0.50932 0.71608 0.0
C650 C 0.5614 0.54048 0.72153 0.0
C651 C 0.59003 0.51507 0.67724 0.0
C652 C 0.52839 0.56601 0.68031 0.0
C653 C 0.52042 0.59495 0.75873 0.0
N654 N 0.56924 0.53044 0.68088 0.0
N655 N 0.53629 0.5743 0.75948 0.0
H656 H 0.25978 0.46378 0.91556 0.0
H657 H 0.21668 0.469 0.17395 0.0
H658 H 0.18191 0.44964 0.96047 0.0
H659 H 0.29567 0.47258 0.12855 0.0
H660 H 0.20443 0.45327 0.09791 0.0
H661 H 0.27452 0.45693 0.99385 0.0
C662 C 0.24587 0.45835 0.94149 0.0
C663 C 0.2195 0.45808 0.9317 0.0
C664 C 0.22451 0.45709 0.1049 0.0
C665 C 0.23609 0.45106 0.02168 0.0
C666 C 0.23147 0.46612 0.14831 0.0
C667 C 0.25711 0.47278 0.15728 0.0
C668 C 0.24333 0.45486 0.07035 0.0
C669 C 0.27554 0.46837 0.12287 0.0
C670 C 0.25426 0.4547 0.98643 0.0
C671 C 0.20239 0.45076 0.96676 0.0
N672 N 0.26824 0.46009 0.08086 0.0
N673 N 0.21087 0.44825 0.01043 0.0
H674 H 0.01887 0.23017 0.6546 0.0
H675 H 0.00864 0.26511 0.39 0.0
H676 H 0.00228 0.30591 0.60288 0.0
H677 H 0.02265 0.18888 0.44162 0.0
H678 H 0.01654 0.28227 0.46677 0.0
H679 H 0.03001 0.21664 0.57678 0.0
C680 C 0.018 0.24408 0.62711 0.0
C681 C 0.0091 0.26906 0.63523 0.0
C682 C 0.01842 0.26183 0.46108 0.0
C683 C 0.02164 0.25369 0.546 0.0
C684 C 0.01413 0.25206 0.41711 0.0
C685 C 0.01449 0.22549 0.4096 0.0
C686 C 0.02302 0.24486 0.49765 0.0
C687 C 0.02167 0.20948 0.44609 0.0
C688 C 0.02431 0.23634 0.58261 0.0
C689 C 0.00854 0.28629 0.59819 0.0
N690 N 0.0252 0.21935 0.48864 0.0
N691 N 0.01433 0.2782 0.5552 0.0
H692 H 0.21706 0.0051 0.91743 0.0
H693 H 0.26138 0.00716 0.17691 0.0
H694 H 0.29405 0.0242 0.96055 0.0
H695 H 0.18344 -0.00664 0.1325 0.0
H696 H 0.27211 0.02169 0.09926 0.0
H697 H 0.20236 0.01036 0.99643 0.0
C698 C 0.2307 0.01129 0.94316 0.0
C699 C 0.2569 0.01363 0.9326 0.0
C700 C 0.25257 0.01582 0.10677 0.0
C701 C 0.24046 0.01886 0.02328 0.0
C702 C 0.24648 0.00749 0.1511 0.0
C703 C 0.22166 -0.00155 0.16103 0.0
C704 C 0.2337 0.01504 0.07226 0.0
C705 C 0.20302 -0.00044 0.12626 0.0
C706 C 0.22238 0.014 0.98847 0.0
C707 C 0.27373 0.02165 0.96743 0.0
N708 N 0.2095 0.00733 0.08345 0.0
N709 N 0.26536 0.02338 0.01137 0.0
H710 H 0.46016 0.28614 0.45253 0.0
H711 H 0.47314 0.17406 0.63439 0.0
H712 H 0.47636 0.20742 0.41875 0.0
H713 H 0.46585 0.25407 0.67014 0.0
H714 H 0.46217 0.18443 0.55556 0.0
H715 H 0.4498 0.27313 0.53108 0.0
C716 C 0.46053 0.26595 0.46141 0.0
C717 C 0.46885 0.24771 0.42949 0.0
C718 C 0.46257 0.1997 0.5807 0.0
C719 C 0.45804 0.23281 0.51916 0.0
C720 C 0.46888 0.19381 0.62578 0.0
C721 C 0.47101 0.21334 0.65869 0.0
C722 C 0.45864 0.22536 0.56816 0.0
C723 C 0.46473 0.23847 0.64575 0.0
C724 C 0.45488 0.25856 0.50624 0.0
C725 C 0.46971 0.22192 0.44251 0.0
N726 N 0.4593 0.24384 0.60122 0.0
N727 N 0.46474 0.21525 0.48664 0.0
H728 H 0.80003 0.50398 0.37026 0.0
H729 H 0.68685 0.53087 0.54653 0.0
H730 H 0.71973 0.50531 0.33342 0.0
H731 H 0.76416 0.51033 0.58494 0.0
H732 H 0.70106 0.53581 0.46735 0.0
H733 H 0.789 0.51973 0.44617 0.0
C734 C 0.78002 0.50786 0.37795 0.0
C735 C 0.76066 0.50269 0.34569 0.0
C736 C 0.71504 0.53085 0.49328 0.0
C737 C 0.74797 0.52083 0.43301 0.0
C738 C 0.70703 0.52819 0.53863 0.0
C739 C 0.72422 0.51949 0.57231 0.0
C740 C 0.74046 0.52489 0.48152 0.0
C741 C 0.75016 0.51674 0.56012 0.0
C742 C 0.7738 0.51694 0.42137 0.0
C743 C 0.73522 0.50872 0.35737 0.0
N744 N 0.75738 0.51888 0.51548 0.0
N745 N 0.72954 0.51707 0.40044 0.0
H746 H 0.97327 0.80646 0.89722 0.0
H747 H 0.95016 0.68762 0.06188 0.0
H748 H 0.96319 0.72852 0.8504 0.0
H749 H 0.9678 0.76409 0.10898 0.0
H750 H 0.94317 0.70444 0.98502 0.0
H751 H 0.96042 0.79326 0.97392 0.0
C752 C 0.96803 0.78658 0.90288 0.0
C753 C 0.96986 0.76844 0.86739 0.0
C754 C 0.94801 0.71767 0.01229 0.0
C755 C 0.95517 0.75319 0.95563 0.0
C756 C 0.95185 0.70811 0.05631 0.0
C757 C 0.96004 0.72443 0.09172 0.0
C758 C 0.95261 0.74373 0.00344 0.0
C759 C 0.96166 0.7508 0.08266 0.0
C760 C 0.96064 0.77909 0.9468 0.0
C761 C 0.96234 0.7431 0.87675 0.0
N762 N 0.95855 0.75957 0.03913 0.0
N763 N 0.95574 0.73614 0.92016 0.0
H764 H 0.67788 0.96991 0.37062 0.0
H765 H 0.79082 0.95076 0.54933 0.0
H766 H 0.75847 0.971 0.33506 0.0
H767 H 0.71348 0.97296 0.58517 0.0
H768 H 0.77675 0.94259 0.47106 0.0
H769 H 0.6889 0.95603 0.44764 0.0
C770 C 0.69794 0.96686 0.37879 0.0
C771 C 0.71738 0.97229 0.34664 0.0
C772 C 0.76273 0.94862 0.49632 0.0
C773 C 0.73003 0.95632 0.43507 0.0
C774 C 0.77067 0.95317 0.54113 0.0
C775 C 0.75341 0.96326 0.57361 0.0
C776 C 0.73734 0.95407 0.48391 0.0
C777 C 0.72751 0.96553 0.5612 0.0
C778 C 0.70416 0.95887 0.42283 0.0
C779 C 0.74292 0.96736 0.35891 0.0
N780 N 0.72035 0.96152 0.51699 0.0
N781 N 0.74857 0.96008 0.40254 0.0
H782 H 0.51157 0.71035 0.09349 0.0
H783 H 0.51423 0.75528 0.83452 0.0
H784 H 0.52968 0.78759 0.05096 0.0
H785 H 0.50258 0.67694 0.87806 0.0
H786 H 0.52842 0.76603 0.91226 0.0
H787 H 0.51783 0.69593 0.01458 0.0
C788 C 0.51772 0.72413 0.06793 0.0
C789 C 0.51951 0.75028 0.07861 0.0
C790 C 0.52313 0.74639 0.90454 0.0
C791 C 0.52593 0.73414 0.98802 0.0
C792 C 0.51504 0.74028 0.86014 0.0
C793 C 0.50661 0.71534 0.85 0.0
C794 C 0.52271 0.72742 0.93891 0.0
C795 C 0.50828 0.6966 0.88451 0.0
C796 C 0.52103 0.71596 0.02267 0.0
C797 C 0.52753 0.7673 0.04398 0.0
N798 N 0.51576 0.7031 0.92744 0.0
N799 N 0.52985 0.75905 1.00008 0.0
H800 H 0.75936 0.50899 0.82972 0.0
H801 H 0.7145 0.50427 0.08852 0.0
H802 H 0.68013 0.50314 0.87283 0.0
H803 H 0.79264 0.51972 0.04661 0.0
H804 H 0.70037 0.51268 0.01017 0.0
H805 H 0.77111 0.52106 0.90816 0.0
C806 C 0.74441 0.51071 0.85538 0.0
C807 C 0.71886 0.50444 0.84495 0.0
C808 C 0.72056 0.51479 0.01831 0.0
C809 C 0.73206 0.51801 0.93465 0.0
C810 C 0.72858 0.5102 0.06324 0.0
C811 C 0.75484 0.51069 0.0739 0.0
C812 C 0.73897 0.51964 0.9839 0.0
C813 C 0.77223 0.51853 0.03965 0.0
C814 C 0.75108 0.51756 0.9002 0.0
C815 C 0.7002 0.50716 0.87955 0.0
N816 N 0.76408 0.52212 0.99601 0.0
N817 N 0.70722 0.51333 0.92287 0.0
H818 H 0.97379 0.67513 0.39696 0.0
H819 H 0.9515 0.79349 0.56322 0.0
H820 H 0.96267 0.753 0.35089 0.0
H821 H 0.97057 0.71729 0.60931 0.0
H822 H 0.94415 0.77668 0.48642 0.0
H823 H 0.96199 0.68814 0.47427 0.0
C824 C 0.96854 0.69495 0.40293 0.0
C825 C 0.96976 0.71313 0.36741 0.0
C826 C 0.94941 0.7635 0.51346 0.0
C827 C 0.95628 0.72816 0.45636 0.0
C828 C 0.95348 0.77305 0.55745 0.0
C829 C 0.96212 0.75682 0.59257 0.0
C830 C 0.95424 0.73754 0.50431 0.0
C831 C 0.96407 0.73051 0.58323 0.0
C832 C 0.96176 0.70233 0.4472 0.0
C833 C 0.96227 0.73838 0.37722 0.0
N834 N 0.96071 0.72176 0.53972 0.0
N835 N 0.95625 0.74524 0.42094 0.0
H836 H 0.76348 0.97463 0.08758 0.0
H837 H 0.7206 0.97432 0.82665 0.0
H838 H 0.68545 0.96242 0.04261 0.0
H839 H 0.79851 0.98604 0.87296 0.0
H840 H 0.70876 0.96056 0.90421 0.0
H841 H 0.7782 0.96845 0.00871 0.0
C842 C 0.74954 0.96983 0.06143 0.0
C843 C 0.72317 0.9696 0.07145 0.0
C844 C 0.72854 0.96578 0.89716 0.0
C845 C 0.73972 0.96319 0.98106 0.0
C846 C 0.73527 0.97363 0.85286 0.0
C847 C 0.76041 0.98192 0.84353 0.0
C848 C 0.74709 0.96627 0.93221 0.0
C849 C 0.77872 0.98042 0.87879 0.0
C850 C 0.7579 0.96655 0.01625 0.0
C851 C 0.70594 0.96331 0.03615 0.0
N852 N 0.77163 0.97312 0.92157 0.0
N853 N 0.71444 0.96089 0.9924 0.0
H854 H 0.51636 0.71826 0.33692 0.0
H855 H 0.51532 0.76357 0.59409 0.0
H856 H 0.51 0.79741 0.37892 0.0
H857 H 0.53447 0.68648 0.55256 0.0
H858 H 0.52246 0.77795 0.5155 0.0
H859 H 0.531 0.70736 0.41424 0.0
C860 C 0.51846 0.73339 0.36207 0.0
C861 C 0.51131 0.75864 0.35171 0.0
C862 C 0.52571 0.75797 0.52376 0.0
C863 C 0.52789 0.74638 0.44018 0.0
C864 C 0.52188 0.74981 0.56887 0.0
C865 C 0.52358 0.72367 0.57969 0.0
C866 C 0.53099 0.73979 0.48933 0.0
C867 C 0.53227 0.70674 0.54548 0.0
C868 C 0.52683 0.72719 0.40624 0.0
C869 C 0.51464 0.77753 0.38561 0.0
N870 N 0.53497 0.71495 0.50162 0.0
N871 N 0.52226 0.77096 0.42838 0.0
H872 H 0.2493 0.46642 0.67698 0.0
H873 H 0.20835 0.47921 0.41588 0.0
H874 H 0.17405 0.48967 0.6311 0.0
H875 H 0.28441 0.45841 0.46087 0.0
H876 H 0.19248 0.4724 0.49399 0.0
H877 H 0.25969 0.45351 0.59838 0.0
C878 C 0.23484 0.46843 0.6506 0.0
C879 C 0.21103 0.47971 0.66042 0.0
C880 C 0.21255 0.46877 0.48655 0.0
C881 C 0.22271 0.46508 0.57058 0.0
C882 C 0.22153 0.47243 0.44183 0.0
C883 C 0.24779 0.4699 0.43221 0.0
C884 C 0.23003 0.46266 0.52162 0.0
C885 C 0.26407 0.46111 0.46715 0.0
C886 C 0.24076 0.46108 0.60572 0.0
C887 C 0.19292 0.48165 0.62493 0.0
N888 N 0.25504 0.45828 0.51047 0.0
N889 N 0.19925 0.47476 0.58158 0.0
H890 H 0.01394 0.25776 0.15417 0.0
H891 H 0.0172 0.22067 0.89107 0.0
H892 H 0.00659 0.18038 0.1029 0.0
H893 H 0.02992 0.29744 0.9417 0.0
H894 H 0.02291 0.20428 0.96876 0.0
H895 H 0.02823 0.27155 0.07804 0.0
C896 C 0.01568 0.24361 0.12719 0.0
C897 C 0.0085 0.21799 0.13479 0.0
C898 C 0.02504 0.22467 0.96274 0.0
C899 C 0.02475 0.23361 0.04754 0.0
C900 C 0.02206 0.23401 0.91817 0.0
C901 C 0.02248 0.26052 0.91001 0.0
C902 C 0.02827 0.24201 0.99927 0.0
C903 C 0.02886 0.27687 0.9466 0.0
C904 C 0.02386 0.25147 0.08368 0.0
C905 C 0.01137 0.20046 0.09852 0.0
N906 N 0.03092 0.26743 0.98977 0.0
N907 N 0.0189 0.20865 0.05645 0.0
H908 H 0.27217 0.00629 0.41775 0.0
H909 H 0.22703 0.01184 0.67431 0.0
H910 H 0.19599 0.02968 0.45861 0.0
H911 H 0.30641 0.00419 0.63308 0.0
H912 H 0.21658 0.02602 0.59655 0.0
H913 H 0.28701 0.01402 0.49588 0.0
C914 C 0.25877 0.0139 0.44268 0.0
C915 C 0.23268 0.01667 0.43196 0.0
C916 C 0.23637 0.02169 0.60481 0.0
C917 C 0.24925 0.02478 0.52171 0.0
C918 C 0.24231 0.01358 0.64924 0.0
C919 C 0.26747 0.00617 0.65994 0.0
C920 C 0.25572 0.02217 0.57096 0.0
C921 C 0.28658 0.00904 0.62612 0.0
C922 C 0.26716 0.01809 0.48752 0.0
C923 C 0.21617 0.02665 0.46573 0.0
N924 N 0.28024 0.01636 0.58307 0.0
N925 N 0.22456 0.0297 0.50936 0.0
H926 H 0.4641 0.2686 0.91019 0.0
H927 H 0.44644 0.23012 0.17231 0.0
H928 H 0.43824 0.19385 0.95426 0.0
H929 H 0.49851 0.28726 0.11863 0.0
H930 H 0.42845 0.22458 0.09479 0.0
H931 H 0.45912 0.28417 0.98859 0.0
C932 C 0.45627 0.25575 0.93585 0.0
C933 C 0.45236 0.2297 0.92611 0.0
C934 C 0.44349 0.23864 0.10041 0.0
C935 C 0.44721 0.24719 0.01574 0.0
C936 C 0.4538 0.24168 0.14437 0.0
C937 C 0.4744 0.25863 0.15132 0.0
C938 C 0.45351 0.25317 0.06388 0.0
C939 C 0.4831 0.27346 0.11434 0.0
C940 C 0.45373 0.26457 0.98075 0.0
C941 C 0.44211 0.21395 0.96075 0.0
N942 N 0.47272 0.2703 0.07223 0.0
N943 N 0.44054 0.22274 0.00443 0.0
H944 H 0.22428 0.6096 0.31903 0.0
H945 H 0.07081 0.6125 0.31966 0.0
H946 H 0.17722 0.54144 0.30793 0.0
H947 H 0.11913 0.67901 0.29897 0.0
H948 H 0.10932 0.58661 0.33249 0.0
H949 H 0.18562 0.63527 0.32694 0.0
C950 C 0.20581 0.59996 0.3183 0.0
C951 C 0.20404 0.57327 0.31223 0.0
C952 C 0.11142 0.60695 0.32587 0.0
C953 C 0.15953 0.60277 0.3216 0.0
C954 C 0.08946 0.62181 0.31903 0.0
C955 C 0.09181 0.6479 0.30768 0.0
C956 C 0.13579 0.61836 0.3217 0.0
C957 C 0.11645 0.65891 0.30709 0.0
C958 C 0.18371 0.61469 0.32295 0.0
C959 C 0.1795 0.56196 0.31202 0.0
N960 N 0.13748 0.64403 0.3135 0.0
N961 N 0.15816 0.57681 0.3164 0.0
H962 H 0.83665 0.09608 0.83249 0.0
H963 H 0.94518 0.18923 0.73566 0.0
H964 H 0.84935 0.10869 0.68817 0.0
H965 H 0.89618 0.21364 0.84678 0.0
H966 H 0.92001 0.14943 0.73 0.0
H967 H 0.86795 0.13059 0.84927 0.0
C968 C 0.84606 0.10606 0.80455 0.0
C969 C 0.84022 0.10002 0.75898 0.0
C970 C 0.91517 0.16339 0.7561 0.0
C971 C 0.87631 0.13808 0.77769 0.0
C972 C 0.9295 0.18594 0.75945 0.0
C973 C 0.92242 0.20475 0.79126 0.0
C974 C 0.89411 0.15953 0.78545 0.0
C975 C 0.90193 0.19966 0.82133 0.0
C976 C 0.86384 0.12554 0.81407 0.0
C977 C 0.85301 0.1132 0.72377 0.0
N978 N 0.88834 0.17749 0.81762 0.0
N979 N 0.87059 0.13152 0.73387 0.0
H980 H 0.25807 0.86851 0.32705 0.0
H981 H 0.41125 0.86314 0.31 0.0
H982 H 0.3052 0.93616 0.30876 0.0
H983 H 0.3611 0.79797 0.29028 0.0
H984 H 0.37352 0.88977 0.32633 0.0
H985 H 0.29662 0.84241 0.32879 0.0
C986 C 0.27654 0.87796 0.32343 0.0
C987 C 0.27833 0.90463 0.31728 0.0
C988 C 0.37088 0.86955 0.31913 0.0
C989 C 0.32276 0.8746 0.31954 0.0
C990 C 0.39238 0.85428 0.31034 0.0
C991 C 0.38922 0.82836 0.29845 0.0
C992 C 0.3462 0.85867 0.31648 0.0
C993 C 0.36436 0.81792 0.29892 0.0
C994 C 0.29859 0.86297 0.32451 0.0
C995 C 0.30289 0.91566 0.31309 0.0
N996 N 0.3438 0.83315 0.30741 0.0
N997 N 0.3242 0.90056 0.31415 0.0
H998 H 0.53584 0.29637 0.75375 0.0
H999 H 0.64224 0.39317 0.84332 0.0
H1000 H 0.58283 0.27498 0.8691 0.0
H1001 H 0.63428 0.37244 0.70095 0.0
H1002 H 0.61094 0.3591 0.86325 0.0
H1003 H 0.56172 0.33552 0.74489 0.0
C1004 C 0.5512 0.30023 0.77779 0.0
C1005 C 0.55754 0.2824 0.81175 0.0
C1006 C 0.61617 0.36226 0.82777 0.0
C1007 C 0.58665 0.3269 0.80228 0.0
C1008 C 0.63395 0.38145 0.81647 0.0
C1009 C 0.64106 0.38518 0.77061 0.0
C1010 C 0.60492 0.34769 0.79266 0.0
C1011 C 0.62966 0.36981 0.73682 0.0
C1012 C 0.56594 0.3224 0.77263 0.0
C1013 C 0.57767 0.28819 0.84205 0.0
N1014 N 0.61198 0.35187 0.74849 0.0
N1015 N 0.59167 0.31 0.83652 0.0
H1016 H 0.72066 0.36803 0.17613 0.0
H1017 H 0.56807 0.37067 0.2011 0.0
H1018 H 0.67693 0.43706 0.20051 0.0
H1019 H 0.61268 0.30103 0.19478 0.0
H1020 H 0.60695 0.39552 0.18633 0.0
H1021 H 0.68076 0.34384 0.17041 0.0
C1022 C 0.70266 0.37818 0.18022 0.0
C1023 C 0.70222 0.40467 0.18936 0.0
C1024 C 0.6082 0.37479 0.18755 0.0
C1025 C 0.65629 0.37687 0.18254 0.0
C1026 C 0.58598 0.36054 0.19575 0.0
C1027 C 0.58719 0.33371 0.19997 0.0
C1028 C 0.63186 0.36217 0.18362 0.0
C1029 C 0.61086 0.32166 0.19213 0.0
C1030 C 0.67985 0.36429 0.17679 0.0
C1031 C 0.67824 0.41667 0.19387 0.0
N1032 N 0.63236 0.33603 0.185 0.0
N1033 N 0.65622 0.40264 0.19066 0.0
H1034 H 0.08368 0.7137 0.65382 0.0
H1035 H 0.1491 0.6197 0.82166 0.0
H1036 H 0.0464 0.69346 0.78088 0.0
H1037 H 0.14268 0.59535 0.68079 0.0
H1038 H 0.11852 0.65406 0.80646 0.0
H1039 H 0.11143 0.67582 0.66127 0.0
C1040 C 0.08112 0.701 0.68285 0.0
C1041 C 0.06284 0.70648 0.71684 0.0
C1042 C 0.12398 0.64124 0.77891 0.0
C1043 C 0.09478 0.66419 0.72614 0.0
C1044 C 0.14167 0.6219 0.78727 0.0
C1045 C 0.1485 0.60475 0.75228 0.0
C1046 C 0.11355 0.64386 0.73507 0.0
C1047 C 0.1379 0.60825 0.70857 0.0
C1048 C 0.09686 0.67954 0.68699 0.0
C1049 C 0.0602 0.68967 0.7539 0.0
N1050 N 0.12101 0.62766 0.70098 0.0
N1051 N 0.07645 0.66948 0.75813 0.0
H1052 H 0.80273 0.03601 0.19927 0.0
H1053 H 0.86496 0.1747 0.17492 0.0
H1054 H 0.76023 0.10485 0.16785 0.0
H1055 H 0.91059 0.10614 0.18759 0.0
H1056 H 0.82699 0.14824 0.16197 0.0
H1057 H 0.84291 0.06001 0.18764 0.0
C1058 C 0.80181 0.05607 0.18976 0.0
C1059 C 0.77803 0.06849 0.18527 0.0
C1060 C 0.84534 0.13888 0.16671 0.0
C1061 C 0.82378 0.09592 0.17154 0.0
C1062 C 0.86705 0.15403 0.17379 0.0
C1063 C 0.89084 0.14257 0.18264 0.0
C1064 C 0.84731 0.11203 0.16956 0.0
C1065 C 0.89255 0.11571 0.18079 0.0
C1066 C 0.82473 0.06972 0.18288 0.0
C1067 C 0.77803 0.09447 0.17241 0.0
N1068 N 0.87092 0.10128 0.17544 0.0
N1069 N 0.80047 0.10728 0.16638 0.0
H1070 H 0.30379 0.85636 0.71702 0.0
H1071 H 0.44523 0.80031 0.7046 0.0
H1072 H 0.37057 0.90517 0.70426 0.0
H1073 H 0.37656 0.75518 0.68229 0.0
H1074 H 0.41888 0.83931 0.70238 0.0
H1075 H 0.3305 0.81924 0.69987 0.0
C1076 C 0.32402 0.85928 0.70962 0.0
C1077 C 0.33504 0.88378 0.71229 0.0
C1078 C 0.40972 0.82082 0.69757 0.0
C1079 C 0.36594 0.84135 0.69401 0.0
C1080 C 0.42471 0.79858 0.69917 0.0
C1081 C 0.41309 0.7744 0.69414 0.0
C1082 C 0.38301 0.81874 0.69126 0.0
C1083 C 0.38643 0.77332 0.68674 0.0
C1084 C 0.33931 0.83809 0.70001 0.0
C1085 C 0.36133 0.88656 0.70239 0.0
N1086 N 0.37234 0.79511 0.68586 0.0
N1087 N 0.37605 0.86549 0.69454 0.0
H1088 H 0.85901 0.30244 0.71227 0.0
H1089 H 0.80122 0.44288 0.69265 0.0
H1090 H 0.90652 0.36893 0.68651 0.0
H1091 H 0.75563 0.37361 0.68437 0.0
H1092 H 0.84026 0.41661 0.6891 0.0
H1093 H 0.82089 0.32837 0.69854 0.0
C1094 C 0.86141 0.3224 0.70281 0.0
C1095 C 0.88591 0.33359 0.70079 0.0
C1096 C 0.82166 0.40727 0.68772 0.0
C1097 C 0.84237 0.36362 0.68626 0.0
C1098 C 0.7994 0.42222 0.69009 0.0
C1099 C 0.7751 0.41045 0.68919 0.0
C1100 C 0.8195 0.38042 0.68483 0.0
C1101 C 0.77389 0.3836 0.68541 0.0
C1102 C 0.83965 0.33726 0.69514 0.0
C1103 C 0.88795 0.35955 0.68832 0.0
N1104 N 0.79573 0.36955 0.68368 0.0
N1105 N 0.8664 0.37385 0.68231 0.0
H1106 H 0.13469 0.87216 0.31967 0.0
H1107 H 0.08483 0.76811 0.15609 0.0
H1108 H 0.14275 0.88677 0.17491 0.0
H1109 H 0.03737 0.79346 0.26859 0.0
H1110 H 0.10987 0.80799 0.16187 0.0
H1111 H 0.10307 0.83882 0.30297 0.0
C1112 C 0.12992 0.86815 0.28428 0.0
C1113 C 0.14148 0.88192 0.24847 0.0
C1114 C 0.09365 0.80496 0.18458 0.0
C1115 C 0.10545 0.84389 0.22937 0.0
C1116 C 0.0795 0.78226 0.18155 0.0
C1117 C 0.05922 0.77754 0.21224 0.0
C1118 C 0.08789 0.82249 0.21941 0.0
C1119 C 0.05289 0.79644 0.24439 0.0
C1120 C 0.11168 0.84941 0.2749 0.0
C1121 C 0.13429 0.87637 0.2033 0.0
N1122 N 0.06761 0.81791 0.24788 0.0
N1123 N 0.11695 0.85732 0.19484 0.0
H1124 H 0.67792 0.04373 0.69723 0.0
H1125 H 0.6224 0.18252 0.74859 0.0
H1126 H 0.72436 0.11257 0.69405 0.0
H1127 H 0.57376 0.11924 0.70811 0.0
H1128 H 0.66011 0.15689 0.72941 0.0
H1129 H 0.63934 0.0705 0.7032 0.0
C1130 C 0.68001 0.06441 0.69771 0.0
C1131 C 0.70442 0.0759 0.69537 0.0
C1132 C 0.64118 0.14872 0.72413 0.0
C1133 C 0.66053 0.10651 0.70219 0.0
C1134 C 0.61966 0.16336 0.73502 0.0
C1135 C 0.59493 0.15296 0.73011 0.0
C1136 C 0.63798 0.12333 0.709 0.0
C1137 C 0.59249 0.12803 0.7123 0.0
C1138 C 0.65801 0.07966 0.70083 0.0
C1139 C 0.70598 0.10282 0.69584 0.0
N1140 N 0.61378 0.11389 0.70302 0.0
N1141 N 0.68438 0.11716 0.69955 0.0
H1142 H 0.37995 0.71778 0.17047 0.0
H1143 H 0.37202 0.56629 0.20769 0.0
H1144 H 0.44509 0.6729 0.21436 0.0
H1145 H 0.30659 0.61679 0.20061 0.0
H1146 H 0.40041 0.60301 0.19214 0.0
H1147 H 0.35467 0.67886 0.16419 0.0
C1148 C 0.38903 0.69971 0.17884 0.0
C1149 C 0.41465 0.69873 0.19384 0.0
C1150 C 0.37981 0.60589 0.19317 0.0
C1151 C 0.38548 0.65378 0.18645 0.0
C1152 C 0.36358 0.58495 0.20151 0.0
C1153 C 0.33694 0.58862 0.20573 0.0
C1154 C 0.36918 0.63047 0.18851 0.0
C1155 C 0.32703 0.61319 0.19797 0.0
C1156 C 0.37451 0.67743 0.17505 0.0
C1157 C 0.42534 0.67459 0.20322 0.0
N1158 N 0.34316 0.63319 0.19009 0.0
N1159 N 0.4106 0.65301 0.19978 0.0
H1160 H 0.39264 0.64282 0.84475 0.0
H1161 H 0.2913 0.54022 0.757 0.0
H1162 H 0.37178 0.63514 0.70245 0.0
H1163 H 0.27297 0.58716 0.87431 0.0
H1164 H 0.33091 0.56519 0.74613 0.0
H1165 H 0.3571 0.61328 0.86499 0.0
C1166 C 0.38059 0.63495 0.81796 0.0
C1167 C 0.38477 0.64162 0.77202 0.0
C1168 C 0.31833 0.56965 0.77465 0.0
C1169 C 0.34544 0.60747 0.79449 0.0
C1170 C 0.29589 0.55541 0.78098 0.0
C1171 C 0.27881 0.56191 0.81624 0.0
C1172 C 0.3239 0.59004 0.80441 0.0
C1173 C 0.28557 0.58183 0.84635 0.0
C1174 C 0.36052 0.61818 0.82945 0.0
C1175 C 0.36888 0.63081 0.73837 0.0
N1176 N 0.30766 0.59531 0.83972 0.0
N1177 N 0.35005 0.61408 0.75023 0.0
H1178 H 0.86373 0.40396 0.31416 0.0
H1179 H 0.94358 0.29833 0.28687 0.0
H1180 H 0.80399 0.35044 0.27619 0.0
H1181 H 0.87485 0.25287 0.30679 0.0
H1182 H 0.9179 0.33718 0.29634 0.0
H1183 H 0.89254 0.36788 0.32859 0.0
C1184 C 0.85651 0.38461 0.30977 0.0
C1185 C 0.83159 0.38015 0.29311 0.0
C1186 C 0.90855 0.31872 0.29977 0.0
C1187 C 0.86463 0.33897 0.30789 0.0
C1188 C 0.92318 0.29651 0.29372 0.0
C1189 C 0.91135 0.2723 0.29552 0.0
C1190 C 0.88193 0.31658 0.3077 0.0
C1191 C 0.88485 0.27108 0.30465 0.0
C1192 C 0.87313 0.36403 0.3172 0.0
C1193 C 0.8232 0.35473 0.28823 0.0
N1194 N 0.87105 0.29288 0.30989 0.0
N1195 N 0.83977 0.33511 0.29514 0.0
H1196 H 0.11837 0.80344 0.80875 0.0
H1197 H 0.18022 0.94297 0.80568 0.0
H1198 H 0.07243 0.87215 0.81413 0.0
H1199 H 0.22318 0.87323 0.82758 0.0
H1200 H 0.14021 0.91815 0.81272 0.0
H1201 H 0.15675 0.82922 0.82218 0.0
C1202 C 0.11634 0.82393 0.8138 0.0
C1203 C 0.09227 0.83571 0.81004 0.0
C1204 C 0.15845 0.90842 0.81636 0.0
C1205 C 0.13619 0.86554 0.82399 0.0
C1206 C 0.18127 0.92253 0.81204 0.0
C1207 C 0.20513 0.91016 0.81549 0.0
C1208 C 0.1596 0.8818 0.82392 0.0
C1209 C 0.20531 0.88365 0.8242 0.0
C1210 C 0.13826 0.8387 0.82124 0.0
C1211 C 0.09067 0.86233 0.8169 0.0
N1212 N 0.18297 0.87041 0.82779 0.0
N1213 N 0.11245 0.87647 0.82266 0.0
H1214 H 0.68231 0.12064 0.31053 0.0
H1215 H 0.55416 0.18598 0.25488 0.0
H1216 H 0.61344 0.07466 0.29994 0.0
H1217 H 0.60037 0.21944 0.36199 0.0
H1218 H 0.57856 0.14598 0.26245 0.0
H1219 H 0.65552 0.15858 0.32458 0.0
C1220 C 0.66161 0.11843 0.31245 0.0
C1221 C 0.65002 0.09457 0.30397 0.0
C1222 C 0.58314 0.16207 0.28449 0.0
C1223 C 0.61959 0.13769 0.31805 0.0
C1224 C 0.56946 0.18486 0.27988 0.0
C1225 C 0.5754 0.2059 0.30777 0.0
C1226 C 0.60332 0.16068 0.31618 0.0
C1227 C 0.59525 0.20352 0.33996 0.0
C1228 C 0.64641 0.14001 0.32031 0.0
C1229 C 0.62313 0.09269 0.30651 0.0
N1230 N 0.60888 0.18138 0.3428 0.0
N1231 N 0.60874 0.11415 0.31208 0.0
loop_
_geom_bond_atom_site_label_1
_geom_bond_atom_site_label_2
_geom_bond_distance
_geom_bond_site_symmetry_2
_ccdc_geom_bond_type
O0 Zn1 1.953 . S
O0 C16 1.225 . S
Zn1 O0 1.953 . S
Zn1 O2 1.949 . S
Zn1 O8 1.919 . S
Zn1 O13 1.924 . S
O2 Zn1 1.949 . S
O2 Zn3 1.923 . S
O2 Zn4 1.950 . S
O2 Zn5 1.945 . S
Zn3 O2 1.923 . S
Zn3 O6 1.933 . S
Zn3 O9 1.941 . S
Zn3 O10 1.965 . S
Zn4 O2 1.950 . S
Zn4 O11 1.938 . S
Zn4 O12 1.906 . S
Zn4 O22 1.953 . S
Zn5 O2 1.945 . S
Zn5 O7 1.932 . S
Zn5 O14 1.977 . S
Zn5 O15 1.910 . S
O6 Zn3 1.933 . S
O6 C17 1.226 . S
O7 Zn5 1.932 . S
O7 C17 1.307 . S
O8 Zn1 1.919 . S
O8 C19 1.253 . S
O9 Zn3 1.941 . S
O9 C19 1.283 . S
O10 Zn3 1.965 . S
O10 C18 1.303 . S
O11 Zn4 1.938 . S
O11 C18 1.247 . S
O12 Zn4 1.906 . S
O12 C20 1.304 . S
O13 Zn1 1.924 . S
O13 C21 1.311 . S
O14 Zn5 1.977 . S
O14 C20 1.272 . S
O15 Zn5 1.910 . S
O15 C21 1.231 . S
C16 O0 1.225 . S
C16 O22 1.298 . S
C17 O6 1.226 . S
C17 O7 1.307 . S
C18 O10 1.303 . S
C18 O11 1.247 . S
C19 O8 1.253 . S
C19 O9 1.283 . S
C20 O12 1.304 . S
C20 O14 1.272 . S
C21 O13 1.311 . S
C21 O15 1.231 . S
O22 Zn4 1.953 . S
O22 C16 1.298 . S
O23 Zn24 1.953 . S
O23 C39 1.225 . S
Zn24 O23 1.953 . S
Zn24 O25 1.949 . S
Zn24 O31 1.919 . S
Zn24 O36 1.924 . S
O25 Zn24 1.949 . S
O25 Zn26 1.923 . S
O25 Zn27 1.950 . S
O25 Zn28 1.945 . S
Zn26 O25 1.923 . S
Zn26 O29 1.933 . S
Zn26 O32 1.941 . S
Zn26 O33 1.965 1_655 S
Zn27 O25 1.950 . S
Zn27 O34 1.939 1_655 S
Zn27 O35 1.906 1_655 S
Zn27 O45 1.953 . S
Zn28 O25 1.945 . S
Zn28 O30 1.932 . S
Zn28 O37 1.999 . S
Zn28 O38 1.910 . S
O29 Zn26 1.933 . S
O29 C40 1.226 . S
O30 Zn28 1.932 . S
O30 C40 1.307 . S
O31 Zn24 1.919 . S
O31 C42 1.253 . S
O32 Zn26 1.941 . S
O32 C42 1.283 . S
O33 Zn26 1.965 1_455 S
O33 C41 1.303 . S
O34 Zn27 1.939 1_455 S
O34 C41 1.247 . S
O35 Zn27 1.906 1_455 S
O35 C43 1.304 . S
O36 Zn24 1.924 . S
O36 C44 1.311 . S
O37 Zn28 1.999 . S
O37 C43 1.251 1_655 S
O38 Zn28 1.910 . S
O38 C44 1.231 . S
C39 O23 1.225 . S
C39 O45 1.298 . S
C40 O29 1.226 . S
C40 O30 1.307 . S
C41 O33 1.303 . S
C41 O34 1.247 . S
C42 O31 1.253 . S
C42 O32 1.283 . S
C43 O35 1.304 . S
C43 O37 1.251 1_455 S
C44 O36 1.311 . S
C44 O38 1.231 . S
O45 Zn27 1.953 . S
O45 C39 1.298 . S
O46 Zn47 1.953 . S
O46 C62 1.225 . S
Zn47 O46 1.953 . S
Zn47 O48 1.949 . S
Zn47 O54 1.919 . S
Zn47 O59 1.924 . S
O48 Zn47 1.949 . S
O48 Zn49 1.923 . S
O48 Zn50 1.950 . S
O48 Zn51 1.945 . S
Zn49 O48 1.923 . S
Zn49 O52 1.933 . S
Zn49 O55 1.941 . S
Zn49 O56 1.965 1_565 S
Zn50 O48 1.950 . S
Zn50 O57 1.934 1_565 S
Zn50 O58 1.906 1_565 S
Zn50 O68 1.953 . S
Zn51 O48 1.945 . S
Zn51 O53 1.932 . S
Zn51 O60 1.988 . S
Zn51 O61 1.910 . S
O52 Zn49 1.933 . S
O52 C63 1.226 . S
O53 Zn51 1.932 . S
O53 C63 1.307 . S
O54 Zn47 1.919 . S
O54 C65 1.253 . S
O55 Zn49 1.941 . S
O55 C65 1.283 . S
O56 Zn49 1.965 1_545 S
O56 C64 1.303 . S
O57 Zn50 1.934 1_545 S
O57 C64 1.248 . S
O58 Zn50 1.906 1_545 S
O58 C66 1.304 . S
O59 Zn47 1.924 . S
O59 C67 1.311 . S
O60 Zn51 1.988 . S
O60 C66 1.261 1_565 S
O61 Zn51 1.910 . S
O61 C67 1.231 . S
C62 O46 1.225 . S
C62 O68 1.298 . S
C63 O52 1.226 . S
C63 O53 1.307 . S
C64 O56 1.303 . S
C64 O57 1.248 . S
C65 O54 1.253 . S
C65 O55 1.283 . S
C66 O58 1.304 . S
C66 O60 1.261 1_545 S
C67 O59 1.311 . S
C67 O61 1.231 . S
O68 Zn50 1.953 . S
O68 C62 1.298 . S
O69 Zn70 1.953 . S
O69 C85 1.225 . S
Zn70 O69 1.953 . S
Zn70 O71 1.949 . S
Zn70 O77 1.919 . S
Zn70 O82 1.924 . S
O71 Zn70 1.949 . S
O71 Zn72 1.923 . S
O71 Zn73 1.950 . S
O71 Zn74 1.945 . S
Zn72 O71 1.923 . S
Zn72 O75 1.933 . S
Zn72 O78 1.941 . S
Zn72 O79 1.965 . S
Zn73 O71 1.950 . S
Zn73 O80 1.938 . S
Zn73 O81 1.906 . S
Zn73 O91 1.953 . S
Zn74 O71 1.945 . S
Zn74 O76 1.932 . S
Zn74 O83 1.977 . S
Zn74 O84 1.910 . S
O75 Zn72 1.933 . S
O75 C86 1.226 . S
O76 Zn74 1.932 . S
O76 C86 1.307 . S
O77 Zn70 1.919 . S
O77 C88 1.253 . S
O78 Zn72 1.941 . S
O78 C88 1.283 . S
O79 Zn72 1.965 . S
O79 C87 1.303 . S
O80 Zn73 1.938 . S
O80 C87 1.247 . S
O81 Zn73 1.906 . S
O81 C89 1.304 . S
O82 Zn70 1.924 . S
O82 C90 1.311 . S
O83 Zn74 1.977 . S
O83 C89 1.272 . S
O84 Zn74 1.910 . S
O84 C90 1.231 . S
C85 O69 1.225 . S
C85 O91 1.298 . S
C86 O75 1.226 . S
C86 O76 1.307 . S
C87 O79 1.303 . S
C87 O80 1.247 . S
C88 O77 1.253 . S
C88 O78 1.283 . S
C89 O81 1.304 . S
C89 O83 1.272 . S
C90 O82 1.311 . S
C90 O84 1.231 . S
O91 Zn73 1.953 . S
O91 C85 1.298 . S
O92 Zn93 1.953 . S
O92 C108 1.225 . S
Zn93 O92 1.953 . S
Zn93 O94 1.949 . S
Zn93 O100 1.919 . S
Zn93 O105 1.924 . S
O94 Zn93 1.949 . S
O94 Zn95 1.923 . S
O94 Zn96 1.950 . S
O94 Zn97 1.945 . S
Zn95 O94 1.923 . S
Zn95 O98 1.933 . S
Zn95 O101 1.941 . S
Zn95 O102 1.965 . S
Zn96 O94 1.950 . S
Zn96 O103 1.938 . S
Zn96 O104 1.906 . S
Zn96 O114 1.953 . S
Zn97 O94 1.945 . S
Zn97 O99 1.932 . S
Zn97 O106 1.977 . S
Zn97 O107 1.910 . S
O98 Zn95 1.933 . S
O98 C109 1.226 . S
O99 Zn97 1.932 . S
O99 C109 1.307 . S
O100 Zn93 1.919 . S
O100 C111 1.253 . S
O101 Zn95 1.941 . S
O101 C111 1.283 . S
O102 Zn95 1.965 . S
O102 C110 1.303 . S
O103 Zn96 1.938 . S
O103 C110 1.247 . S
O104 Zn96 1.906 . S
O104 C112 1.304 . S
O105 Zn93 1.924 . S
O105 C113 1.311 . S
O106 Zn97 1.977 . S
O106 C112 1.272 . S
O107 Zn97 1.910 . S
O107 C113 1.231 . S
C108 O92 1.225 . S
C108 O114 1.298 . S
C109 O98 1.226 . S
C109 O99 1.307 . S
C110 O102 1.303 . S
C110 O103 1.247 . S
C111 O100 1.253 . S
C111 O101 1.283 . S
C112 O104 1.304 . S
C112 O106 1.272 . S
C113 O105 1.311 . S
C113 O107 1.231 . S
O114 Zn96 1.953 . S
O114 C108 1.298 . S
O115 Zn116 1.953 . S
O115 C131 1.225 . S
Zn116 O115 1.953 . S
Zn116 O117 1.949 . S
Zn116 O123 1.919 . S
Zn116 O128 1.924 . S
O117 Zn116 1.949 . S
O117 Zn118 1.923 . S
O117 Zn119 1.950 . S
O117 Zn120 1.945 . S
Zn118 O117 1.923 . S
Zn118 O121 1.933 . S
Zn118 O124 1.941 . S
Zn118 O125 1.965 1_455 S
Zn119 O117 1.950 . S
Zn119 O126 1.931 1_455 S
Zn119 O127 1.906 1_455 S
Zn119 O137 1.953 . S
Zn120 O117 1.945 . S
Zn120 O122 1.932 . S
Zn120 O129 1.982 . S
Zn120 O130 1.910 . S
O121 Zn118 1.933 . S
O121 C132 1.226 . S
O122 Zn120 1.932 . S
O122 C132 1.307 . S
O123 Zn116 1.919 . S
O123 C134 1.253 . S
O124 Zn118 1.941 . S
O124 C134 1.283 . S
O125 Zn118 1.965 1_655 S
O125 C133 1.303 . S
O126 Zn119 1.931 1_655 S
O126 C133 1.249 . S
O127 Zn119 1.906 1_655 S
O127 C135 1.304 . S
O128 Zn116 1.924 . S
O128 C136 1.311 . S
O129 Zn120 1.982 . S
O129 C135 1.266 1_455 S
O130 Zn120 1.910 . S
O130 C136 1.231 . S
C131 O115 1.225 . S
C131 O137 1.298 . S
C132 O121 1.226 . S
C132 O122 1.307 . S
C133 O125 1.303 . S
C133 O126 1.249 . S
C134 O123 1.253 . S
C134 O124 1.283 . S
C135 O127 1.304 . S
C135 O129 1.266 1_655 S
C136 O128 1.311 . S
C136 O130 1.231 . S
O137 Zn119 1.953 . S
O137 C131 1.298 . S
O138 Zn139 1.953 . S
O138 C154 1.225 . S
Zn139 O138 1.953 . S
Zn139 O140 1.949 . S
Zn139 O146 1.919 . S
Zn139 O151 1.924 . S
O140 Zn139 1.949 . S
O140 Zn141 1.923 . S
O140 Zn142 1.950 . S
O140 Zn143 1.945 . S
Zn141 O140 1.923 . S
Zn141 O144 1.933 . S
Zn141 O147 1.941 . S
Zn141 O148 1.965 1_545 S
Zn142 O140 1.950 . S
Zn142 O149 1.940 1_545 S
Zn142 O150 1.906 1_545 S
Zn142 O160 1.953 . S
Zn143 O140 1.945 . S
Zn143 O145 1.932 . S
Zn143 O152 1.997 . S
Zn143 O153 1.910 . S
O144 Zn141 1.933 . S
O144 C155 1.226 . S
O145 Zn143 1.932 . S
O145 C155 1.307 . S
O146 Zn139 1.919 . S
O146 C157 1.253 . S
O147 Zn141 1.941 . S
O147 C157 1.283 . S
O148 Zn141 1.965 1_565 S
O148 C156 1.303 . S
O149 Zn142 1.940 1_565 S
O149 C156 1.246 . S
O150 Zn142 1.906 1_565 S
O150 C158 1.304 . S
O151 Zn139 1.924 . S
O151 C159 1.311 . S
O152 Zn143 1.997 . S
O152 C158 1.253 1_545 S
O153 Zn143 1.910 . S
O153 C159 1.231 . S
C154 O138 1.225 . S
C154 O160 1.298 . S
C155 O144 1.226 . S
C155 O145 1.307 . S
C156 O148 1.303 . S
C156 O149 1.246 . S
C157 O146 1.253 . S
C157 O147 1.283 . S
C158 O150 1.304 . S
C158 O152 1.253 1_565 S
C159 O151 1.311 . S
C159 O153 1.231 . S
O160 Zn142 1.953 . S
O160 C154 1.298 . S
O161 Zn162 1.953 . S
O161 C177 1.225 . S
Zn162 O161 1.953 . S
Zn162 O163 1.949 . S
Zn162 O169 1.919 . S
Zn162 O174 1.924 . S
O163 Zn162 1.949 . S
O163 Zn164 1.923 . S
O163 Zn165 1.950 . S
O163 Zn166 1.945 . S
Zn164 O163 1.923 . S
Zn164 O167 1.933 . S
Zn164 O170 1.941 . S
Zn164 O171 1.965 . S
Zn165 O163 1.950 . S
Zn165 O172 1.938 . S
Zn165 O173 1.906 . S
Zn165 O183 1.953 . S
Zn166 O163 1.945 . S
Zn166 O168 1.932 . S
Zn166 O175 1.977 . S
Zn166 O176 1.910 . S
O167 Zn164 1.933 . S
O167 C178 1.226 . S
O168 Zn166 1.932 . S
O168 C178 1.307 . S
O169 Zn162 1.919 . S
O169 C180 1.253 . S
O170 Zn164 1.941 . S
O170 C180 1.283 . S
O171 Zn164 1.965 . S
O171 C179 1.303 . S
O172 Zn165 1.938 . S
O172 C179 1.247 . S
O173 Zn165 1.906 . S
O173 C181 1.304 . S
O174 Zn162 1.924 . S
O174 C182 1.311 . S
O175 Zn166 1.977 . S
O175 C181 1.272 . S
O176 Zn166 1.910 . S
O176 C182 1.231 . S
C177 O161 1.225 . S
C177 O183 1.298 . S
C178 O167 1.226 . S
C178 O168 1.307 . S
C179 O171 1.303 . S
C179 O172 1.247 . S
C180 O169 1.253 . S
C180 O170 1.283 . S
C181 O173 1.304 . S
C181 O175 1.272 . S
C182 O174 1.311 . S
C182 O176 1.231 . S
O183 Zn165 1.953 . S
O183 C177 1.298 . S
O184 Zn185 1.953 . S
O184 C200 1.225 . S
Zn185 O184 1.953 . S
Zn185 O186 1.949 . S
Zn185 O192 1.919 . S
Zn185 O197 1.924 . S
O186 Zn185 1.949 . S
O186 Zn187 1.923 . S
O186 Zn188 1.950 . S
O186 Zn189 1.945 . S
Zn187 O186 1.923 . S
Zn187 O190 1.933 . S
Zn187 O193 1.941 . S
Zn187 O194 1.965 . S
Zn188 O186 1.950 . S
Zn188 O195 1.938 . S
Zn188 O196 1.906 . S
Zn188 O206 1.953 . S
Zn189 O186 1.945 . S
Zn189 O191 1.932 . S
Zn189 O198 1.977 . S
Zn189 O199 1.910 . S
O190 Zn187 1.933 . S
O190 C201 1.226 . S
O191 Zn189 1.932 . S
O191 C201 1.307 . S
O192 Zn185 1.919 . S
O192 C203 1.253 . S
O193 Zn187 1.941 . S
O193 C203 1.283 . S
O194 Zn187 1.965 . S
O194 C202 1.303 . S
O195 Zn188 1.938 . S
O195 C202 1.247 . S
O196 Zn188 1.906 . S
O196 C204 1.304 . S
O197 Zn185 1.924 . S
O197 C205 1.311 . S
O198 Zn189 1.977 . S
O198 C204 1.272 . S
O199 Zn189 1.910 . S
O199 C205 1.231 . S
C200 O184 1.225 . S
C200 O206 1.298 . S
C201 O190 1.226 . S
C201 O191 1.307 . S
C202 O194 1.303 . S
C202 O195 1.247 . S
C203 O192 1.253 . S
C203 O193 1.283 . S
C204 O196 1.304 . S
C204 O198 1.272 . S
C205 O197 1.311 . S
C205 O199 1.231 . S
O206 Zn188 1.953 . S
O206 C200 1.298 . S
O207 Zn208 1.953 . S
O207 C223 1.225 . S
Zn208 O207 1.953 . S
Zn208 O209 1.949 . S
Zn208 O215 1.919 . S
Zn208 O220 1.924 . S
O209 Zn208 1.949 . S
O209 Zn210 1.923 . S
O209 Zn211 1.950 . S
O209 Zn212 1.945 . S
Zn210 O209 1.923 . S
Zn210 O213 1.933 . S
Zn210 O216 1.941 . S
Zn210 O217 1.965 1_455 S
Zn211 O209 1.950 . S
Zn211 O218 1.936 1_455 S
Zn211 O219 1.906 1_455 S
Zn211 O229 1.953 . S
Zn212 O209 1.945 . S
Zn212 O214 1.932 . S
Zn212 O221 1.994 . S
Zn212 O222 1.910 . S
O213 Zn210 1.933 . S
O213 C224 1.226 . S
O214 Zn212 1.932 . S
O214 C224 1.307 . S
O215 Zn208 1.919 . S
O215 C226 1.253 . S
O216 Zn210 1.941 . S
O216 C226 1.283 . S
O217 Zn210 1.965 1_655 S
O217 C225 1.303 . S
O218 Zn211 1.936 1_655 S
O218 C225 1.248 . S
O219 Zn211 1.906 1_655 S
O219 C227 1.304 . S
O220 Zn208 1.924 . S
O220 C228 1.311 . S
O221 Zn212 1.994 . S
O221 C227 1.255 1_455 S
O222 Zn212 1.910 . S
O222 C228 1.231 . S
C223 O207 1.225 . S
C223 O229 1.298 . S
C224 O213 1.226 . S
C224 O214 1.307 . S
C225 O217 1.303 . S
C225 O218 1.248 . S
C226 O215 1.253 . S
C226 O216 1.283 . S
C227 O219 1.304 . S
C227 O221 1.255 1_655 S
C228 O220 1.311 . S
C228 O222 1.231 . S
O229 Zn211 1.953 . S
O229 C223 1.298 . S
O230 Zn231 1.953 . S
O230 C246 1.225 . S
Zn231 O230 1.953 . S
Zn231 O232 1.949 . S
Zn231 O238 1.919 . S
Zn231 O243 1.924 . S
O232 Zn231 1.949 . S
O232 Zn233 1.923 . S
O232 Zn234 1.950 . S
O232 Zn235 1.945 . S
Zn233 O232 1.923 . S
Zn233 O236 1.933 . S
Zn233 O239 1.941 . S
Zn233 O240 1.965 1_545 S
Zn234 O232 1.950 . S
Zn234 O241 1.939 . S
Zn234 O242 1.906 1_545 S
Zn234 O252 1.953 . S
Zn235 O232 1.945 . S
Zn235 O237 1.932 . S
Zn235 O244 2.003 . S
Zn235 O245 1.910 . S
O236 Zn233 1.933 . S
O236 C247 1.226 . S
O237 Zn235 1.932 . S
O237 C247 1.307 . S
O238 Zn231 1.919 . S
O238 C249 1.253 . S
O239 Zn233 1.941 . S
O239 C249 1.283 . S
O240 Zn233 1.965 1_565 S
O240 C248 1.303 . S
O241 Zn234 1.939 . S
O241 C248 1.247 1_545 S
O242 Zn234 1.906 1_565 S
O242 C250 1.304 . S
O243 Zn231 1.924 . S
O243 C251 1.311 . S
O244 Zn235 2.003 . S
O244 C250 1.247 1_545 S
O245 Zn235 1.910 . S
O245 C251 1.231 . S
C246 O230 1.225 . S
C246 O252 1.298 . S
C247 O236 1.226 . S
C247 O237 1.307 . S
C248 O240 1.303 . S
C248 O241 1.247 1_565 S
C249 O238 1.253 . S
C249 O239 1.283 . S
C250 O242 1.304 . S
C250 O244 1.247 1_565 S
C251 O243 1.311 . S
C251 O245 1.231 . S
O252 Zn234 1.953 . S
O252 C246 1.298 . S
O253 Zn254 1.953 . S
O253 C269 1.225 . S
Zn254 O253 1.953 . S
Zn254 O255 1.949 . S
Zn254 O261 1.919 . S
Zn254 O266 1.924 . S
O255 Zn254 1.949 . S
O255 Zn256 1.923 . S
O255 Zn257 1.950 . S
O255 Zn258 1.945 . S
Zn256 O255 1.923 . S
Zn256 O259 1.933 . S
Zn256 O262 1.941 . S
Zn256 O263 1.965 . S
Zn257 O255 1.950 . S
Zn257 O264 1.938 . S
Zn257 O265 1.906 . S
Zn257 O275 1.953 . S
Zn258 O255 1.945 . S
Zn258 O260 1.932 . S
Zn258 O267 1.977 . S
Zn258 O268 1.910 . S
O259 Zn256 1.933 . S
O259 C270 1.226 . S
O260 Zn258 1.932 . S
O260 C270 1.307 . S
O261 Zn254 1.919 . S
O261 C272 1.253 . S
O262 Zn256 1.941 . S
O262 C272 1.283 . S
O263 Zn256 1.965 . S
O263 C271 1.303 . S
O264 Zn257 1.938 . S
O264 C271 1.247 . S
O265 Zn257 1.906 . S
O265 C273 1.304 . S
O266 Zn254 1.924 . S
O266 C274 1.311 . S
O267 Zn258 1.977 . S
O267 C273 1.272 . S
O268 Zn258 1.910 . S
O268 C274 1.231 . S
C269 O253 1.225 . S
C269 O275 1.298 . S
C270 O259 1.226 . S
C270 O260 1.307 . S
C271 O263 1.303 . S
C271 O264 1.247 . S
C272 O261 1.253 . S
C272 O262 1.283 . S
C273 O265 1.304 . S
C273 O267 1.272 . S
C274 O266 1.311 . S
C274 O268 1.231 . S
O275 Zn257 1.953 . S
O275 C269 1.298 . S
O276 Zn277 1.953 . S
O276 C292 1.225 . S
Zn277 O276 1.953 . S
Zn277 O278 1.949 . S
Zn277 O284 1.919 . S
Zn277 O289 1.924 . S
O278 Zn277 1.949 . S
O278 Zn279 1.923 . S
O278 Zn280 1.950 . S
O278 Zn281 1.945 . S
Zn279 O278 1.923 . S
Zn279 O282 1.933 . S
Zn279 O285 1.941 . S
Zn279 O286 1.965 . S
Zn280 O278 1.950 . S
Zn280 O287 1.938 . S
Zn280 O288 1.906 . S
Zn280 O298 1.953 . S
Zn281 O278 1.945 . S
Zn281 O283 1.932 . S
Zn281 O290 1.977 . S
Zn281 O291 1.910 . S
O282 Zn279 1.933 . S
O282 C293 1.226 . S
O283 Zn281 1.932 . S
O283 C293 1.307 . S
O284 Zn277 1.919 . S
O284 C295 1.253 . S
O285 Zn279 1.941 . S
O285 C295 1.283 . S
O286 Zn279 1.965 . S
O286 C294 1.303 . S
O287 Zn280 1.938 . S
O287 C294 1.247 . S
O288 Zn280 1.906 . S
O288 C296 1.304 . S
O289 Zn277 1.924 . S
O289 C297 1.311 . S
O290 Zn281 1.977 . S
O290 C296 1.272 . S
O291 Zn281 1.910 . S
O291 C297 1.231 . S
C292 O276 1.225 . S
C292 O298 1.298 . S
C293 O282 1.226 . S
C293 O283 1.307 . S
C294 O286 1.303 . S
C294 O287 1.247 . S
C295 O284 1.253 . S
C295 O285 1.283 . S
C296 O288 1.304 . S
C296 O290 1.272 . S
C297 O289 1.311 . S
C297 O291 1.231 . S
O298 Zn280 1.953 . S
O298 C292 1.298 . S
O299 Zn300 1.953 . S
O299 C315 1.225 . S
Zn300 O299 1.953 . S
Zn300 O301 1.949 . S
Zn300 O307 1.919 . S
Zn300 O312 1.924 . S
O301 Zn300 1.949 . S
O301 Zn302 1.923 . S
O301 Zn303 1.950 . S
O301 Zn304 1.945 . S
Zn302 O301 1.923 . S
Zn302 O305 1.933 . S
Zn302 O308 1.941 . S
Zn302 O309 1.965 1_655 S
Zn303 O301 1.950 . S
Zn303 O310 1.939 1_655 S
Zn303 O311 1.906 1_655 S
Zn303 O321 1.953 . S
Zn304 O301 1.945 . S
Zn304 O306 1.932 . S
Zn304 O313 1.995 . S
Zn304 O314 1.910 . S
O305 Zn302 1.933 . S
O305 C316 1.226 . S
O306 Zn304 1.932 . S
O306 C316 1.307 . S
O307 Zn300 1.919 . S
O307 C318 1.253 . S
O308 Zn302 1.941 . S
O308 C318 1.283 . S
O309 Zn302 1.965 1_455 S
O309 C317 1.303 . S
O310 Zn303 1.939 1_455 S
O310 C317 1.247 . S
O311 Zn303 1.906 1_455 S
O311 C319 1.304 . S
O312 Zn300 1.924 . S
O312 C320 1.311 . S
O313 Zn304 1.995 . S
O313 C319 1.254 1_655 S
O314 Zn304 1.910 . S
O314 C320 1.231 . S
C315 O299 1.225 . S
C315 O321 1.298 . S
C316 O305 1.226 . S
C316 O306 1.307 . S
C317 O309 1.303 . S
C317 O310 1.247 . S
C318 O307 1.253 . S
C318 O308 1.283 . S
C319 O311 1.304 . S
C319 O313 1.254 1_455 S
C320 O312 1.311 . S
C320 O314 1.231 . S
O321 Zn303 1.953 . S
O321 C315 1.298 . S
O322 Zn323 1.953 . S
O322 C338 1.225 . S
Zn323 O322 1.953 . S
Zn323 O324 1.949 . S
Zn323 O330 1.919 . S
Zn323 O335 1.924 . S
O324 Zn323 1.949 . S
O324 Zn325 1.923 . S
O324 Zn326 1.950 . S
O324 Zn327 1.945 . S
Zn325 O324 1.923 . S
Zn325 O328 1.933 . S
Zn325 O331 1.941 . S
Zn325 O332 1.965 1_565 S
Zn326 O324 1.950 . S
Zn326 O333 1.933 1_565 S
Zn326 O334 1.906 1_565 S
Zn326 O344 1.953 . S
Zn327 O324 1.945 . S
Zn327 O329 1.932 . S
Zn327 O336 1.985 . S
Zn327 O337 1.910 . S
O328 Zn325 1.933 . S
O328 C339 1.226 . S
O329 Zn327 1.932 . S
O329 C339 1.307 . S
O330 Zn323 1.919 . S
O330 C341 1.253 . S
O331 Zn325 1.941 . S
O331 C341 1.283 . S
O332 Zn325 1.965 1_545 S
O332 C340 1.303 . S
O333 Zn326 1.933 1_545 S
O333 C340 1.249 . S
O334 Zn326 1.906 1_545 S
O334 C342 1.304 . S
O335 Zn323 1.924 . S
O335 C343 1.311 . S
O336 Zn327 1.985 . S
O336 C342 1.263 1_565 S
O337 Zn327 1.910 . S
O337 C343 1.231 . S
C338 O322 1.225 . S
C338 O344 1.298 . S
C339 O328 1.226 . S
C339 O329 1.307 . S
C340 O332 1.303 . S
C340 O333 1.249 . S
C341 O330 1.253 . S
C341 O331 1.283 . S
C342 O334 1.304 . S
C342 O336 1.263 1_545 S
C343 O335 1.311 . S
C343 O337 1.231 . S
O344 Zn326 1.953 . S
O344 C338 1.298 . S
O345 Zn346 1.953 . S
O345 C361 1.225 . S
Zn346 O345 1.953 . S
Zn346 O347 1.949 . S
Zn346 O353 1.919 . S
Zn346 O358 1.924 . S
O347 Zn346 1.949 . S
O347 Zn348 1.923 . S
O347 Zn349 1.950 . S
O347 Zn350 1.945 . S
Zn348 O347 1.923 . S
Zn348 O351 1.933 . S
Zn348 O354 1.941 . S
Zn348 O355 1.965 . S
Zn349 O347 1.950 . S
Zn349 O356 1.938 . S
Zn349 O357 1.906 . S
Zn349 O367 1.953 . S
Zn350 O347 1.945 . S
Zn350 O352 1.932 . S
Zn350 O359 1.977 . S
Zn350 O360 1.910 . S
O351 Zn348 1.933 . S
O351 C362 1.226 . S
O352 Zn350 1.932 . S
O352 C362 1.307 . S
O353 Zn346 1.919 . S
O353 C364 1.253 . S
O354 Zn348 1.941 . S
O354 C364 1.283 . S
O355 Zn348 1.965 . S
O355 C363 1.303 . S
O356 Zn349 1.938 . S
O356 C363 1.247 . S
O357 Zn349 1.906 . S
O357 C365 1.304 . S
O358 Zn346 1.924 . S
O358 C366 1.311 . S
O359 Zn350 1.977 . S
O359 C365 1.272 . S
O360 Zn350 1.910 . S
O360 C366 1.231 . S
C361 O345 1.225 . S
C361 O367 1.298 . S
C362 O351 1.226 . S
C362 O352 1.307 . S
C363 O355 1.303 . S
C363 O356 1.247 . S
C364 O353 1.253 . S
C364 O354 1.283 . S
C365 O357 1.304 . S
C365 O359 1.272 . S
C366 O358 1.311 . S
C366 O360 1.231 . S
O367 Zn349 1.953 . S
O367 C361 1.298 . S
H368 C374 0.930 . S
H369 C378 0.930 . S
H370 C383 0.929 . S
H371 C381 0.929 . S
H372 C376 0.929 . S
H373 C382 0.929 . S
C374 H368 0.930 . S
C374 C375 1.367 . S
C374 C382 1.378 . S
C375 C374 1.367 . S
C375 C383 1.433 . S
C376 H372 0.929 . S
C376 C378 1.378 . S
C376 C380 1.350 . S
C377 C380 1.463 . S
C377 C382 1.350 . S
C377 N385 1.427 . S
C378 H369 0.930 . S
C378 C376 1.378 . S
C378 C379 1.367 . S
C379 C378 1.367 . S
C379 C381 1.433 . S
C380 C376 1.350 . S
C380 C377 1.463 . S
C380 N384 1.427 . S
C381 H371 0.929 . S
C381 C379 1.433 . S
C381 N384 1.384 . S
C382 H373 0.929 . S
C382 C374 1.378 . S
C382 C377 1.350 . S
C383 H370 0.929 . S
C383 C375 1.433 . S
C383 N385 1.384 . S
N384 C380 1.427 . S
N384 C381 1.384 . S
N385 C377 1.427 . S
N385 C383 1.384 . S
H386 C392 0.930 . S
H387 C396 0.930 . S
H388 C401 0.929 . S
H389 C399 0.929 . S
H390 C394 0.929 . S
H391 C400 0.929 . S
C392 H386 0.930 . S
C392 C393 1.367 . S
C392 C400 1.378 . S
C393 C392 1.367 . S
C393 C401 1.433 . S
C394 H390 0.929 . S
C394 C396 1.378 . S
C394 C398 1.350 . S
C395 C398 1.463 1_554 S
C395 C400 1.350 . S
C395 N403 1.427 . S
C396 H387 0.930 . S
C396 C394 1.378 . S
C396 C397 1.367 . S
C397 C396 1.367 . S
C397 C399 1.433 . S
C398 C394 1.350 . S
C398 C395 1.463 1_556 S
C398 N402 1.427 . S
C399 H389 0.929 . S
C399 C397 1.433 . S
C399 N402 1.384 . S
C400 H391 0.929 . S
C400 C392 1.378 . S
C400 C395 1.350 . S
C401 H388 0.929 . S
C401 C393 1.433 . S
C401 N403 1.384 . S
N402 C398 1.427 . S
N402 C399 1.384 . S
N403 C395 1.427 . S
N403 C401 1.384 . S
H404 C410 0.930 . S
H405 C414 0.930 . S
H406 C419 0.929 . S
H407 C417 0.929 . S
H408 C412 0.929 . S
H409 C418 0.929 . S
C410 H404 0.930 . S
C410 C411 1.367 . S
C410 C418 1.378 . S
C411 C410 1.367 . S
C411 C419 1.433 . S
C412 H408 0.929 . S
C412 C414 1.378 . S
C412 C416 1.350 . S
C413 C416 1.463 . S
C413 C418 1.350 . S
C413 N421 1.427 . S
C414 H405 0.930 . S
C414 C412 1.378 . S
C414 C415 1.367 . S
C415 C414 1.367 . S
C415 C417 1.433 . S
C416 C412 1.350 . S
C416 C413 1.463 . S
C416 N420 1.427 . S
C417 H407 0.929 . S
C417 C415 1.433 . S
C417 N420 1.384 . S
C418 H409 0.929 . S
C418 C410 1.378 . S
C418 C413 1.350 . S
C419 H406 0.929 . S
C419 C411 1.433 . S
C419 N421 1.384 . S
N420 C416 1.427 . S
N420 C417 1.384 . S
N421 C413 1.427 . S
N421 C419 1.384 . S
H422 C428 0.930 . S
H423 C432 0.930 . S
H424 C437 0.929 . S
H425 C435 0.929 . S
H426 C430 0.938 . S
H427 C436 0.938 . S
C428 H422 0.930 . S
C428 C429 1.367 . S
C428 C436 1.372 1_556 S
C429 C428 1.367 . S
C429 C437 1.433 . S
C430 H426 0.938 . S
C430 C432 1.371 1_556 S
C430 C434 1.347 1_556 S
C431 C434 1.463 1_556 S
C431 C436 1.347 1_556 S
C431 N439 1.427 . S
C432 H423 0.930 . S
C432 C430 1.371 1_554 S
C432 C433 1.367 . S
C433 C432 1.367 . S
C433 C435 1.433 . S
C434 C430 1.347 1_554 S
C434 C431 1.463 1_554 S
C434 N438 1.427 . S
C435 H425 0.929 . S
C435 C433 1.433 . S
C435 N438 1.384 . S
C436 H427 0.938 . S
C436 C428 1.372 1_554 S
C436 C431 1.347 1_554 S
C437 H424 0.929 . S
C437 C429 1.433 . S
C437 N439 1.384 . S
N438 C434 1.427 . S
N438 C435 1.384 . S
N439 C431 1.427 . S
N439 C437 1.384 . S
H440 C446 0.930 . S
H441 C450 0.930 . S
H442 C455 0.929 . S
H443 C453 0.929 . S
H444 C448 0.929 . S
H445 C454 0.929 . S
C446 H440 0.930 . S
C446 C447 1.367 . S
C446 C454 1.378 . S
C447 C446 1.367 . S
C447 C455 1.433 . S
C448 H444 0.929 . S
C448 C450 1.378 . S
C448 C452 1.350 . S
C449 C452 1.463 . S
C449 C454 1.350 . S
C449 N457 1.427 . S
C450 H441 0.930 . S
C450 C448 1.378 . S
C450 C451 1.367 . S
C451 C450 1.367 . S
C451 C453 1.433 . S
C452 C448 1.350 . S
C452 C449 1.463 . S
C452 N456 1.427 . S
C453 H443 0.929 . S
C453 C451 1.433 . S
C453 N456 1.384 . S
C454 H445 0.929 . S
C454 C446 1.378 . S
C454 C449 1.350 . S
C455 H442 0.929 . S
C455 C447 1.433 . S
C455 N457 1.384 . S
N456 C452 1.427 . S
N456 C453 1.384 . S
N457 C449 1.427 . S
N457 C455 1.384 . S
H458 C464 0.930 . S
H459 C468 0.930 . S
H460 C473 0.929 . S
H461 C471 0.929 . S
H462 C466 0.929 . S
H463 C472 0.929 . S
C464 H458 0.930 . S
C464 C465 1.367 . S
C464 C472 1.378 . S
C465 C464 1.367 . S
C465 C473 1.433 . S
C466 H462 0.929 . S
C466 C468 1.378 . S
C466 C470 1.350 . S
C467 C470 1.463 1_556 S
C467 C472 1.350 . S
C467 N475 1.427 1_556 S
C468 H459 0.930 . S
C468 C466 1.378 . S
C468 C469 1.367 . S
C469 C468 1.367 . S
C469 C471 1.433 . S
C470 C466 1.350 . S
C470 C467 1.463 1_554 S
C470 N474 1.427 1_554 S
C471 H461 0.929 . S
C471 C469 1.433 . S
C471 N474 1.384 1_554 S
C472 H463 0.929 . S
C472 C464 1.378 . S
C472 C467 1.350 . S
C473 H460 0.929 . S
C473 C465 1.433 . S
C473 N475 1.384 1_556 S
N474 C470 1.427 1_556 S
N474 C471 1.384 1_556 S
N475 C467 1.427 1_554 S
N475 C473 1.384 1_554 S
H476 C482 0.930 . S
H477 C486 0.930 . S
H478 C491 0.929 . S
H479 C489 0.929 . S
H480 C484 0.929 . S
H481 C490 0.929 . S
C482 H476 0.930 . S
C482 C483 1.367 . S
C482 C490 1.378 . S
C483 C482 1.367 . S
C483 C491 1.433 . S
C484 H480 0.929 . S
C484 C486 1.378 . S
C484 C488 1.350 . S
C485 C488 1.463 . S
C485 C490 1.350 . S
C485 N493 1.427 . S
C486 H477 0.930 . S
C486 C484 1.378 . S
C486 C487 1.367 . S
C487 C486 1.367 . S
C487 C489 1.433 . S
C488 C484 1.350 . S
C488 C485 1.463 . S
C488 N492 1.427 . S
C489 H479 0.929 . S
C489 C487 1.433 . S
C489 N492 1.384 . S
C490 H481 0.929 . S
C490 C482 1.378 . S
C490 C485 1.350 . S
C491 H478 0.929 . S
C491 C483 1.433 . S
C491 N493 1.384 . S
N492 C488 1.427 . S
N492 C489 1.384 . S
N493 C485 1.427 . S
N493 C491 1.384 . S
H494 C500 0.930 . S
H495 C504 0.930 . S
H496 C509 0.929 . S
H497 C507 0.929 . S
H498 C502 0.929 . S
H499 C508 0.929 . S
C500 H494 0.930 . S
C500 C501 1.367 . S
C500 C508 1.378 . S
C501 C500 1.367 . S
C501 C509 1.433 . S
C502 H498 0.929 . S
C502 C504 1.378 . S
C502 C506 1.350 . S
C503 C506 1.463 1_556 S
C503 C508 1.350 . S
C503 N511 1.427 . S
C504 H495 0.930 . S
C504 C502 1.378 . S
C504 C505 1.367 . S
C505 C504 1.367 . S
C505 C507 1.433 . S
C506 C502 1.350 . S
C506 C503 1.463 1_554 S
C506 N510 1.427 . S
C507 H497 0.929 . S
C507 C505 1.433 . S
C507 N510 1.384 . S
C508 H499 0.929 . S
C508 C500 1.378 . S
C508 C503 1.350 . S
C509 H496 0.929 . S
C509 C501 1.433 . S
C509 N511 1.384 . S
N510 C506 1.427 . S
N510 C507 1.384 . S
N511 C503 1.427 . S
N511 C509 1.384 . S
H512 C518 0.930 . S
H513 C522 0.930 . S
H514 C527 0.929 . S
H515 C525 0.929 . S
H516 C520 0.929 . S
H517 C526 0.929 . S
C518 H512 0.930 . S
C518 C519 1.367 . S
C518 C526 1.378 . S
C519 C518 1.367 . S
C519 C527 1.433 . S
C520 H516 0.929 . S
C520 C522 1.378 . S
C520 C524 1.350 . S
C521 C524 1.463 . S
C521 C526 1.350 . S
C521 N529 1.427 . S
C522 H513 0.930 . S
C522 C520 1.378 . S
C522 C523 1.367 . S
C523 C522 1.367 . S
C523 C525 1.433 . S
C524 C520 1.350 . S
C524 C521 1.463 . S
C524 N528 1.427 . S
C525 H515 0.929 . S
C525 C523 1.433 . S
C525 N528 1.384 . S
C526 H517 0.929 . S
C526 C518 1.378 . S
C526 C521 1.350 . S
C527 H514 0.929 . S
C527 C519 1.433 . S
C527 N529 1.384 . S
N528 C524 1.427 . S
N528 C525 1.384 . S
N529 C521 1.427 . S
N529 C527 1.384 . S
H530 C536 0.930 . S
H531 C540 0.930 . S
H532 C545 0.929 . S
H533 C543 0.929 . S
H534 C538 0.929 . S
H535 C544 0.929 . S
C536 H530 0.930 . S
C536 C537 1.367 . S
C536 C544 1.378 . S
C537 C536 1.367 . S
C537 C545 1.433 . S
C538 H534 0.929 . S
C538 C540 1.378 . S
C538 C542 1.350 . S
C539 C542 1.463 . S
C539 C544 1.350 . S
C539 N547 1.427 . S
C540 H531 0.930 . S
C540 C538 1.378 . S
C540 C541 1.367 . S
C541 C540 1.367 . S
C541 C543 1.433 . S
C542 C538 1.350 . S
C542 C539 1.463 . S
C542 N546 1.427 . S
C543 H533 0.929 . S
C543 C541 1.433 . S
C543 N546 1.384 . S
C544 H535 0.929 . S
C544 C536 1.378 . S
C544 C539 1.350 . S
C545 H532 0.929 . S
C545 C537 1.433 . S
C545 N547 1.384 . S
N546 C542 1.427 . S
N546 C543 1.384 . S
N547 C539 1.427 . S
N547 C545 1.384 . S
H548 C554 0.930 . S
H549 C558 0.930 . S
H550 C563 0.929 . S
H551 C561 0.929 . S
H552 C556 0.929 . S
H553 C562 0.929 . S
C554 H548 0.930 . S
C554 C555 1.367 . S
C554 C562 1.378 . S
C555 C554 1.367 . S
C555 C563 1.433 . S
C556 H552 0.929 . S
C556 C558 1.378 . S
C556 C560 1.350 . S
C557 C560 1.463 . S
C557 C562 1.350 . S
C557 N565 1.427 . S
C558 H549 0.930 . S
C558 C556 1.378 . S
C558 C559 1.367 . S
C559 C558 1.367 . S
C559 C561 1.433 . S
C560 C556 1.350 . S
C560 C557 1.463 . S
C560 N564 1.427 . S
C561 H551 0.929 . S
C561 C559 1.433 . S
C561 N564 1.384 . S
C562 H553 0.929 . S
C562 C554 1.378 . S
C562 C557 1.350 . S
C563 H550 0.929 . S
C563 C555 1.433 . S
C563 N565 1.384 . S
N564 C560 1.427 . S
N564 C561 1.384 . S
N565 C557 1.427 . S
N565 C563 1.384 . S
H566 C572 0.930 . S
H567 C576 0.930 . S
H568 C581 0.929 . S
H569 C579 0.929 . S
H570 C574 0.929 . S
H571 C580 0.929 . S
C572 H566 0.930 . S
C572 C573 1.367 . S
C572 C580 1.378 . S
C573 C572 1.367 . S
C573 C581 1.433 . S
C574 H570 0.929 . S
C574 C576 1.378 . S
C574 C578 1.350 . S
C575 C578 1.463 . S
C575 C580 1.350 . S
C575 N583 1.427 . S
C576 H567 0.930 . S
C576 C574 1.378 . S
C576 C577 1.367 . S
C577 C576 1.367 . S
C577 C579 1.433 . S
C578 C574 1.350 . S
C578 C575 1.463 . S
C578 N582 1.427 . S
C579 H569 0.929 . S
C579 C577 1.433 . S
C579 N582 1.384 . S
C580 H571 0.929 . S
C580 C572 1.378 . S
C580 C575 1.350 . S
C581 H568 0.929 . S
C581 C573 1.433 . S
C581 N583 1.384 . S
N582 C578 1.427 . S
N582 C579 1.384 . S
N583 C575 1.427 . S
N583 C581 1.384 . S
H584 C590 0.930 . S
H585 C594 0.930 . S
H586 C599 0.929 . S
H587 C597 0.929 . S
H588 C592 0.929 . S
H589 C598 0.929 . S
C590 H584 0.930 . S
C590 C591 1.367 . S
C590 C598 1.378 . S
C591 C590 1.367 . S
C591 C599 1.433 . S
C592 H588 0.929 . S
C592 C594 1.378 . S
C592 C596 1.350 . S
C593 C596 1.463 . S
C593 C598 1.350 . S
C593 N601 1.427 . S
C594 H585 0.930 . S
C594 C592 1.378 . S
C594 C595 1.367 . S
C595 C594 1.367 . S
C595 C597 1.433 . S
C596 C592 1.350 . S
C596 C593 1.463 . S
C596 N600 1.427 . S
C597 H587 0.929 . S
C597 C595 1.433 . S
C597 N600 1.384 . S
C598 H589 0.929 . S
C598 C590 1.378 . S
C598 C593 1.350 . S
C599 H586 0.929 . S
C599 C591 1.433 . S
C599 N601 1.384 . S
N600 C596 1.427 . S
N600 C597 1.384 . S
N601 C593 1.427 . S
N601 C599 1.384 . S
H602 C608 0.930 . S
H603 C612 0.930 . S
H604 C617 0.929 . S
H605 C615 0.929 . S
H606 C610 0.929 . S
H607 C616 0.929 . S
C608 H602 0.930 . S
C608 C609 1.367 . S
C608 C616 1.378 . S
C609 C608 1.367 . S
C609 C617 1.433 . S
C610 H606 0.929 . S
C610 C612 1.378 . S
C610 C614 1.350 . S
C611 C614 1.463 . S
C611 C616 1.350 . S
C611 N619 1.427 . S
C612 H603 0.930 . S
C612 C610 1.378 . S
C612 C613 1.367 . S
C613 C612 1.367 . S
C613 C615 1.433 . S
C614 C610 1.350 . S
C614 C611 1.463 . S
C614 N618 1.427 . S
C615 H605 0.929 . S
C615 C613 1.433 . S
C615 N618 1.384 . S
C616 H607 0.929 . S
C616 C608 1.378 . S
C616 C611 1.350 . S
C617 H604 0.929 . S
C617 C609 1.433 . S
C617 N619 1.384 . S
N618 C614 1.427 . S
N618 C615 1.384 . S
N619 C611 1.427 . S
N619 C617 1.384 . S
H620 C626 0.930 . S
H621 C630 0.930 . S
H622 C635 0.929 . S
H623 C633 0.929 . S
H624 C628 0.929 . S
H625 C634 0.929 . S
C626 H620 0.930 . S
C626 C627 1.367 . S
C626 C634 1.378 . S
C627 C626 1.367 . S
C627 C635 1.433 . S
C628 H624 0.929 . S
C628 C630 1.378 . S
C628 C632 1.350 . S
C629 C632 1.463 . S
C629 C634 1.350 . S
C629 N637 1.427 . S
C630 H621 0.930 . S
C630 C628 1.378 . S
C630 C631 1.367 . S
C631 C630 1.367 . S
C631 C633 1.433 . S
C632 C628 1.350 . S
C632 C629 1.463 . S
C632 N636 1.427 . S
C633 H623 0.929 . S
C633 C631 1.433 . S
C633 N636 1.384 . S
C634 H625 0.929 . S
C634 C626 1.378 . S
C634 C629 1.350 . S
C635 H622 0.929 . S
C635 C627 1.433 . S
C635 N637 1.384 . S
N636 C632 1.427 . S
N636 C633 1.384 . S
N637 C629 1.427 . S
N637 C635 1.384 . S
H638 C644 0.930 . S
H639 C648 0.930 . S
H640 C653 0.929 . S
H641 C651 0.929 . S
H642 C646 0.929 . S
H643 C652 0.929 . S
C644 H638 0.930 . S
C644 C645 1.367 . S
C644 C652 1.378 . S
C645 C644 1.367 . S
C645 C653 1.433 . S
C646 H642 0.929 . S
C646 C648 1.378 . S
C646 C650 1.350 . S
C647 C650 1.463 . S
C647 C652 1.350 . S
C647 N655 1.427 . S
C648 H639 0.930 . S
C648 C646 1.378 . S
C648 C649 1.367 . S
C649 C648 1.367 . S
C649 C651 1.433 . S
C650 C646 1.350 . S
C650 C647 1.463 . S
C650 N654 1.427 . S
C651 H641 0.929 . S
C651 C649 1.433 . S
C651 N654 1.384 . S
C652 H643 0.929 . S
C652 C644 1.378 . S
C652 C647 1.350 . S
C653 H640 0.929 . S
C653 C645 1.433 . S
C653 N655 1.384 . S
N654 C650 1.427 . S
N654 C651 1.384 . S
N655 C647 1.427 . S
N655 C653 1.384 . S
H656 C662 0.930 . S
H657 C666 0.930 . S
H658 C671 0.929 . S
H659 C669 0.929 . S
H660 C664 0.929 . S
H661 C670 0.929 . S
C662 H656 0.930 . S
C662 C663 1.367 . S
C662 C670 1.378 1_556 S
C663 C662 1.367 . S
C663 C671 1.433 . S
C664 H660 0.929 . S
C664 C666 1.378 . S
C664 C668 1.350 . S
C665 C668 1.463 . S
C665 C670 1.350 . S
C665 N673 1.427 . S
C666 H657 0.930 . S
C666 C664 1.378 . S
C666 C667 1.367 . S
C667 C666 1.367 . S
C667 C669 1.433 . S
C668 C664 1.350 . S
C668 C665 1.463 . S
C668 N672 1.427 . S
C669 H659 0.929 . S
C669 C667 1.433 . S
C669 N672 1.384 . S
C670 H661 0.929 . S
C670 C662 1.378 1_554 S
C670 C665 1.350 . S
C671 H658 0.929 . S
C671 C663 1.433 . S
C671 N673 1.384 1_556 S
N672 C668 1.427 . S
N672 C669 1.384 . S
N673 C665 1.427 . S
N673 C671 1.384 1_554 S
H674 C680 0.930 . S
H675 C684 0.930 . S
H676 C689 0.929 . S
H677 C687 0.929 . S
H678 C682 0.929 . S
H679 C688 0.929 . S
C680 H674 0.930 . S
C680 C681 1.367 . S
C680 C688 1.378 . S
C681 C680 1.367 . S
C681 C689 1.433 . S
C682 H678 0.929 . S
C682 C684 1.378 . S
C682 C686 1.350 . S
C683 C686 1.463 . S
C683 C688 1.350 . S
C683 N691 1.427 . S
C684 H675 0.930 . S
C684 C682 1.378 . S
C684 C685 1.367 . S
C685 C684 1.367 . S
C685 C687 1.433 . S
C686 C682 1.350 . S
C686 C683 1.463 . S
C686 N690 1.427 . S
C687 H677 0.929 . S
C687 C685 1.433 . S
C687 N690 1.384 . S
C688 H679 0.929 . S
C688 C680 1.378 . S
C688 C683 1.350 . S
C689 H676 0.929 . S
C689 C681 1.433 . S
C689 N691 1.384 . S
N690 C686 1.427 . S
N690 C687 1.384 . S
N691 C683 1.427 . S
N691 C689 1.384 . S
H692 C698 0.930 . S
H693 C702 0.930 . S
H694 C707 0.929 . S
H695 C705 0.929 . S
H696 C700 0.929 . S
H697 C706 0.929 . S
C698 H692 0.930 . S
C698 C699 1.367 1_565 S
C698 C706 1.378 1_556 S
C699 C698 1.367 1_545 S
C699 C707 1.433 . S
C700 H696 0.929 . S
C700 C702 1.378 . S
C700 C704 1.350 . S
C701 C704 1.463 . S
C701 C706 1.350 1_545 S
C701 N709 1.427 . S
C702 H693 0.930 . S
C702 C700 1.378 . S
C702 C703 1.367 . S
C703 C702 1.367 . S
C703 C705 1.433 1_545 S
C704 C700 1.350 . S
C704 C701 1.463 . S
C704 N708 1.427 1_545 S
C705 H695 0.929 . S
C705 C703 1.433 1_565 S
C705 N708 1.384 . S
C706 H697 0.929 . S
C706 C698 1.378 1_554 S
C706 C701 1.350 1_565 S
C707 H694 0.929 . S
C707 C699 1.433 . S
C707 N709 1.384 1_556 S
N708 C704 1.427 1_565 S
N708 C705 1.384 . S
N709 C701 1.427 . S
N709 C707 1.384 1_554 S
H710 C716 0.930 . S
H711 C720 0.930 . S
H712 C725 0.929 . S
H713 C723 0.929 . S
H714 C718 0.929 . S
H715 C724 0.929 . S
C716 H710 0.930 . S
C716 C717 1.367 . S
C716 C724 1.378 . S
C717 C716 1.367 . S
C717 C725 1.433 . S
C718 H714 0.929 . S
C718 C720 1.378 . S
C718 C722 1.350 . S
C719 C722 1.463 . S
C719 C724 1.350 . S
C719 N727 1.427 . S
C720 H711 0.930 . S
C720 C718 1.378 . S
C720 C721 1.367 . S
C721 C720 1.367 . S
C721 C723 1.433 . S
C722 C718 1.350 . S
C722 C719 1.463 . S
C722 N726 1.427 . S
C723 H713 0.929 . S
C723 C721 1.433 . S
C723 N726 1.384 . S
C724 H715 0.929 . S
C724 C716 1.378 . S
C724 C719 1.350 . S
C725 H712 0.929 . S
C725 C717 1.433 . S
C725 N727 1.384 . S
N726 C722 1.427 . S
N726 C723 1.384 . S
N727 C719 1.427 . S
N727 C725 1.384 . S
H728 C734 0.930 . S
H729 C738 0.930 . S
H730 C743 0.929 . S
H731 C741 0.929 . S
H732 C736 0.929 . S
H733 C742 0.929 . S
C734 H728 0.930 . S
C734 C735 1.367 . S
C734 C742 1.378 . S
C735 C734 1.367 . S
C735 C743 1.433 . S
C736 H732 0.929 . S
C736 C738 1.378 . S
C736 C740 1.350 . S
C737 C740 1.463 . S
C737 C742 1.350 . S
C737 N745 1.427 . S
C738 H729 0.930 . S
C738 C736 1.378 . S
C738 C739 1.367 . S
C739 C738 1.367 . S
C739 C741 1.433 . S
C740 C736 1.350 . S
C740 C737 1.463 . S
C740 N744 1.427 . S
C741 H731 0.929 . S
C741 C739 1.433 . S
C741 N744 1.384 . S
C742 H733 0.929 . S
C742 C734 1.378 . S
C742 C737 1.350 . S
C743 H730 0.929 . S
C743 C735 1.433 . S
C743 N745 1.384 . S
N744 C740 1.427 . S
N744 C741 1.384 . S
N745 C737 1.427 . S
N745 C743 1.384 . S
H746 C752 0.930 . S
H747 C756 0.930 . S
H748 C761 0.929 . S
H749 C759 0.929 . S
H750 C754 0.929 . S
H751 C760 0.929 . S
C752 H746 0.930 . S
C752 C753 1.367 1_455 S
C752 C760 1.378 . S
C753 C752 1.367 1_655 S
C753 C761 1.433 . S
C754 H750 0.929 . S
C754 C756 1.378 1_556 S
C754 C758 1.350 . S
C755 C758 1.463 . S
C755 C760 1.350 1_655 S
C755 N763 1.427 . S
C756 H747 0.930 . S
C756 C754 1.378 1_554 S
C756 C757 1.367 . S
C757 C756 1.367 . S
C757 C759 1.433 1_655 S
C758 C754 1.350 . S
C758 C755 1.463 . S
C758 N762 1.424 1_656 S
C759 H749 0.929 . S
C759 C757 1.433 1_455 S
C759 N762 1.388 . S
C760 H751 0.929 . S
C760 C752 1.378 . S
C760 C755 1.350 1_455 S
C761 H748 0.929 . S
C761 C753 1.433 . S
C761 N763 1.384 . S
N762 C758 1.424 1_454 S
N762 C759 1.388 . S
N763 C755 1.427 . S
N763 C761 1.384 . S
H764 C770 0.930 . S
H765 C774 0.930 . S
H766 C779 0.929 . S
H767 C777 0.929 . S
H768 C772 0.929 . S
H769 C778 0.929 . S
C770 H764 0.930 . S
C770 C771 1.367 1_545 S
C770 C778 1.378 . S
C771 C770 1.367 1_565 S
C771 C779 1.433 . S
C772 H768 0.929 . S
C772 C774 1.378 . S
C772 C776 1.350 . S
C773 C776 1.463 . S
C773 C778 1.350 1_565 S
C773 N781 1.427 . S
C774 H765 0.930 . S
C774 C772 1.378 . S
C774 C775 1.367 . S
C775 C774 1.367 . S
C775 C777 1.433 1_565 S
C776 C772 1.350 . S
C776 C773 1.463 . S
C776 N780 1.427 1_565 S
C777 H767 0.929 . S
C777 C775 1.433 1_545 S
C777 N780 1.384 . S
C778 H769 0.929 . S
C778 C770 1.378 . S
C778 C773 1.350 1_545 S
C779 H766 0.929 . S
C779 C771 1.433 . S
C779 N781 1.384 . S
N780 C776 1.427 1_545 S
N780 C777 1.384 . S
N781 C773 1.427 . S
N781 C779 1.384 . S
H782 C788 0.930 . S
H783 C792 0.930 . S
H784 C797 0.929 . S
H785 C795 0.929 . S
H786 C790 0.929 . S
H787 C796 0.929 . S
C788 H782 0.930 . S
C788 C789 1.367 . S
C788 C796 1.378 1_554 S
C789 C788 1.367 . S
C789 C797 1.433 . S
C790 H786 0.929 . S
C790 C792 1.378 . S
C790 C794 1.350 . S
C791 C794 1.463 . S
C791 C796 1.350 . S
C791 N799 1.427 . S
C792 H783 0.930 . S
C792 C790 1.378 . S
C792 C793 1.367 . S
C793 C792 1.367 . S
C793 C795 1.433 . S
C794 C790 1.350 . S
C794 C791 1.463 . S
C794 N798 1.427 . S
C795 H785 0.929 . S
C795 C793 1.433 . S
C795 N798 1.384 . S
C796 H787 0.929 . S
C796 C788 1.378 1_556 S
C796 C791 1.350 . S
C797 H784 0.929 . S
C797 C789 1.433 . S
C797 N799 1.384 1_554 S
N798 C794 1.427 . S
N798 C795 1.384 . S
N799 C791 1.427 . S
N799 C797 1.384 1_556 S
H800 C806 0.930 . S
H801 C810 0.930 . S
H802 C815 0.929 . S
H803 C813 0.929 . S
H804 C808 0.929 1_556 S
H805 C814 0.929 . S
C806 H800 0.930 . S
C806 C807 1.367 . S
C806 C814 1.378 . S
C807 C806 1.367 . S
C807 C815 1.433 . S
C808 H804 0.929 1_554 S
C808 C810 1.378 . S
C808 C812 1.350 1_554 S
C809 C812 1.463 . S
C809 C814 1.350 . S
C809 N817 1.427 . S
C810 H801 0.930 . S
C810 C808 1.378 . S
C810 C811 1.367 . S
C811 C810 1.367 . S
C811 C813 1.433 . S
C812 C808 1.350 1_556 S
C812 C809 1.463 . S
C812 N816 1.427 . S
C813 H803 0.929 . S
C813 C811 1.433 . S
C813 N816 1.384 1_554 S
C814 H805 0.929 . S
C814 C806 1.378 . S
C814 C809 1.350 . S
C815 H802 0.929 . S
C815 C807 1.433 . S
C815 N817 1.384 . S
N816 C812 1.427 . S
N816 C813 1.384 1_556 S
N817 C809 1.427 . S
N817 C815 1.384 . S
H818 C824 0.930 . S
H819 C828 0.930 . S
H820 C833 0.929 . S
H821 C831 0.929 . S
H822 C826 0.929 . S
H823 C832 0.929 . S
C824 H818 0.930 . S
C824 C825 1.367 1_455 S
C824 C832 1.378 . S
C825 C824 1.367 1_655 S
C825 C833 1.433 . S
C826 H822 0.929 . S
C826 C828 1.378 . S
C826 C830 1.350 . S
C827 C830 1.463 . S
C827 C832 1.350 1_655 S
C827 N835 1.427 . S
C828 H819 0.930 . S
C828 C826 1.378 . S
C828 C829 1.367 . S
C829 C828 1.367 . S
C829 C831 1.433 1_655 S
C830 C826 1.350 . S
C830 C827 1.463 . S
C830 N834 1.427 1_655 S
C831 H821 0.929 . S
C831 C829 1.433 1_455 S
C831 N834 1.384 . S
C832 H823 0.929 . S
C832 C824 1.378 . S
C832 C827 1.350 1_455 S
C833 H820 0.929 . S
C833 C825 1.433 . S
C833 N835 1.384 . S
N834 C830 1.427 1_455 S
N834 C831 1.384 . S
N835 C827 1.427 . S
N835 C833 1.384 . S
H836 C842 0.930 . S
H837 C846 0.930 . S
H838 C851 0.929 . S
H839 C849 0.929 . S
H840 C844 0.929 . S
H841 C850 0.929 . S
C842 H836 0.930 . S
C842 C843 1.367 1_545 S
C842 C850 1.378 1_554 S
C843 C842 1.367 1_565 S
C843 C851 1.433 . S
C844 H840 0.929 . S
C844 C846 1.378 . S
C844 C848 1.350 . S
C845 C848 1.463 . S
C845 C850 1.350 1_565 S
C845 N853 1.427 . S
C846 H837 0.930 . S
C846 C844 1.378 . S
C846 C847 1.367 . S
C847 C846 1.367 . S
C847 C849 1.433 1_565 S
C848 C844 1.350 . S
C848 C845 1.463 . S
C848 N852 1.427 1_565 S
C849 H839 0.929 . S
C849 C847 1.433 1_545 S
C849 N852 1.384 . S
C850 H841 0.929 . S
C850 C842 1.378 1_556 S
C850 C845 1.350 1_545 S
C851 H838 0.929 . S
C851 C843 1.433 . S
C851 N853 1.384 1_554 S
N852 C848 1.427 1_545 S
N852 C849 1.384 . S
N853 C845 1.427 . S
N853 C851 1.384 1_556 S
H854 C860 0.930 . S
H855 C864 0.930 . S
H856 C869 0.929 . S
H857 C867 0.929 . S
H858 C862 0.929 . S
H859 C868 0.929 . S
C860 H854 0.930 . S
C860 C861 1.367 . S
C860 C868 1.378 . S
C861 C860 1.367 . S
C861 C869 1.433 . S
C862 H858 0.929 . S
C862 C864 1.378 . S
C862 C866 1.350 . S
C863 C866 1.463 . S
C863 C868 1.350 . S
C863 N871 1.427 . S
C864 H855 0.930 . S
C864 C862 1.378 . S
C864 C865 1.367 . S
C865 C864 1.367 . S
C865 C867 1.433 . S
C866 C862 1.350 . S
C866 C863 1.463 . S
C866 N870 1.427 . S
C867 H857 0.929 . S
C867 C865 1.433 . S
C867 N870 1.384 . S
C868 H859 0.929 . S
C868 C860 1.378 . S
C868 C863 1.350 . S
C869 H856 0.929 . S
C869 C861 1.433 . S
C869 N871 1.384 . S
N870 C866 1.427 . S
N870 C867 1.384 . S
N871 C863 1.427 . S
N871 C869 1.384 . S
H872 C878 0.930 . S
H873 C882 0.930 . S
H874 C887 0.929 . S
H875 C885 0.929 . S
H876 C880 0.929 . S
H877 C886 0.929 . S
C878 H872 0.930 . S
C878 C879 1.367 . S
C878 C886 1.378 . S
C879 C878 1.367 . S
C879 C887 1.433 . S
C880 H876 0.929 . S
C880 C882 1.378 . S
C880 C884 1.350 . S
C881 C884 1.463 . S
C881 C886 1.350 . S
C881 N889 1.427 . S
C882 H873 0.930 . S
C882 C880 1.378 . S
C882 C883 1.367 . S
C883 C882 1.367 . S
C883 C885 1.433 . S
C884 C880 1.350 . S
C884 C881 1.463 . S
C884 N888 1.427 . S
C885 H875 0.929 . S
C885 C883 1.433 . S
C885 N888 1.384 . S
C886 H877 0.929 . S
C886 C878 1.378 . S
C886 C881 1.350 . S
C887 H874 0.929 . S
C887 C879 1.433 . S
C887 N889 1.384 . S
N888 C884 1.427 . S
N888 C885 1.384 . S
N889 C881 1.427 . S
N889 C887 1.384 . S
H890 C896 0.930 . S
H891 C900 0.930 . S
H892 C905 0.929 . S
H893 C903 0.929 . S
H894 C898 0.929 . S
H895 C904 0.929 . S
C896 H890 0.930 . S
C896 C897 1.367 . S
C896 C904 1.378 . S
C897 C896 1.367 . S
C897 C905 1.433 1_455 S
C898 H894 0.929 . S
C898 C900 1.378 1_554 S
C898 C902 1.350 1_655 S
C899 C902 1.463 . S
C899 C904 1.350 . S
C899 N907 1.427 1_455 S
C900 H891 0.930 . S
C900 C898 1.378 1_556 S
C900 C901 1.367 1_655 S
C901 C900 1.367 1_455 S
C901 C903 1.433 . S
C902 C898 1.350 1_455 S
C902 C899 1.463 . S
C902 N906 1.427 . S
C903 H893 0.929 . S
C903 C901 1.433 . S
C903 N906 1.384 1_556 S
C904 H895 0.929 . S
C904 C896 1.378 . S
C904 C899 1.350 . S
C905 H892 0.929 . S
C905 C897 1.433 1_655 S
C905 N907 1.384 . S
N906 C902 1.427 . S
N906 C903 1.384 1_554 S
N907 C899 1.427 1_655 S
N907 C905 1.384 . S
H908 C914 0.930 . S
H909 C918 0.930 . S
H910 C923 0.929 . S
H911 C921 0.929 . S
H912 C916 0.929 . S
H913 C922 0.929 . S
C914 H908 0.930 . S
C914 C915 1.367 1_565 S
C914 C922 1.378 . S
C915 C914 1.367 1_545 S
C915 C923 1.433 . S
C916 H912 0.929 . S
C916 C918 1.378 . S
C916 C920 1.350 . S
C917 C920 1.463 . S
C917 C922 1.350 1_545 S
C917 N925 1.427 . S
C918 H909 0.930 . S
C918 C916 1.378 . S
C918 C919 1.367 . S
C919 C918 1.367 . S
C919 C921 1.433 1_545 S
C920 C916 1.350 . S
C920 C917 1.463 . S
C920 N924 1.427 1_545 S
C921 H911 0.929 . S
C921 C919 1.433 1_565 S
C921 N924 1.384 . S
C922 H913 0.929 . S
C922 C914 1.378 . S
C922 C917 1.350 1_565 S
C923 H910 0.929 . S
C923 C915 1.433 . S
C923 N925 1.384 . S
N924 C920 1.427 1_565 S
N924 C921 1.384 . S
N925 C917 1.427 . S
N925 C923 1.384 . S
H926 C932 0.930 . S
H927 C936 0.930 . S
H928 C941 0.929 . S
H929 C939 0.929 . S
H930 C934 0.929 . S
H931 C940 0.929 . S
C932 H926 0.930 . S
C932 C933 1.367 . S
C932 C940 1.378 1_556 S
C933 C932 1.367 . S
C933 C941 1.433 . S
C934 H930 0.929 . S
C934 C936 1.378 . S
C934 C938 1.350 . S
C935 C938 1.463 . S
C935 C940 1.350 . S
C935 N943 1.427 . S
C936 H927 0.930 . S
C936 C934 1.378 . S
C936 C937 1.367 . S
C937 C936 1.367 . S
C937 C939 1.433 . S
C938 C934 1.350 . S
C938 C935 1.463 . S
C938 N942 1.427 . S
C939 H929 0.929 . S
C939 C937 1.433 . S
C939 N942 1.384 . S
C940 H931 0.929 . S
C940 C932 1.378 1_554 S
C940 C935 1.350 . S
C941 H928 0.929 . S
C941 C933 1.433 . S
C941 N943 1.384 1_556 S
N942 C938 1.427 . S
N942 C939 1.384 . S
N943 C935 1.427 . S
N943 C941 1.384 1_554 S
H944 C950 0.930 . S
H945 C954 0.930 . S
H946 C959 0.929 . S
H947 C957 0.929 . S
H948 C952 0.929 . S
H949 C958 0.929 . S
C950 H944 0.930 . S
C950 C951 1.367 . S
C950 C958 1.378 . S
C951 C950 1.367 . S
C951 C959 1.433 . S
C952 H948 0.929 . S
C952 C954 1.378 . S
C952 C956 1.350 . S
C953 C956 1.463 . S
C953 C958 1.350 . S
C953 N961 1.427 . S
C954 H945 0.930 . S
C954 C952 1.378 . S
C954 C955 1.367 . S
C955 C954 1.367 . S
C955 C957 1.433 . S
C956 C952 1.350 . S
C956 C953 1.463 . S
C956 N960 1.427 . S
C957 H947 0.929 . S
C957 C955 1.433 . S
C957 N960 1.384 . S
C958 H949 0.929 . S
C958 C950 1.378 . S
C958 C953 1.350 . S
C959 H946 0.929 . S
C959 C951 1.433 . S
C959 N961 1.384 . S
N960 C956 1.427 . S
N960 C957 1.384 . S
N961 C953 1.427 . S
N961 C959 1.384 . S
H962 C968 0.930 . S
H963 C972 0.930 . S
H964 C977 0.929 . S
H965 C975 0.929 . S
H966 C970 0.929 . S
H967 C976 0.929 . S
C968 H962 0.930 . S
C968 C969 1.367 . S
C968 C976 1.378 . S
C969 C968 1.367 . S
C969 C977 1.433 . S
C970 H966 0.929 . S
C970 C972 1.378 . S
C970 C974 1.350 . S
C971 C974 1.463 . S
C971 C976 1.350 . S
C971 N979 1.427 . S
C972 H963 0.930 . S
C972 C970 1.378 . S
C972 C973 1.367 . S
C973 C972 1.367 . S
C973 C975 1.433 . S
C974 C970 1.350 . S
C974 C971 1.463 . S
C974 N978 1.427 . S
C975 H965 0.929 . S
C975 C973 1.433 . S
C975 N978 1.384 . S
C976 H967 0.929 . S
C976 C968 1.378 . S
C976 C971 1.350 . S
C977 H964 0.929 . S
C977 C969 1.433 . S
C977 N979 1.384 . S
N978 C974 1.427 . S
N978 C975 1.384 . S
N979 C971 1.427 . S
N979 C977 1.384 . S
H980 C986 0.930 . S
H981 C990 0.930 . S
H982 C995 0.929 . S
H983 C993 0.929 . S
H984 C988 0.929 . S
H985 C994 0.929 . S
C986 H980 0.930 . S
C986 C987 1.367 . S
C986 C994 1.378 . S
C987 C986 1.367 . S
C987 C995 1.433 . S
C988 H984 0.929 . S
C988 C990 1.378 . S
C988 C992 1.350 . S
C989 C992 1.463 . S
C989 C994 1.350 . S
C989 N997 1.427 . S
C990 H981 0.930 . S
C990 C988 1.378 . S
C990 C991 1.367 . S
C991 C990 1.367 . S
C991 C993 1.433 . S
C992 C988 1.350 . S
C992 C989 1.463 . S
C992 N996 1.427 . S
C993 H983 0.929 . S
C993 C991 1.433 . S
C993 N996 1.384 . S
C994 H985 0.929 . S
C994 C986 1.378 . S
C994 C989 1.350 . S
C995 H982 0.929 . S
C995 C987 1.433 . S
C995 N997 1.384 . S
N996 C992 1.427 . S
N996 C993 1.384 . S
N997 C989 1.427 . S
N997 C995 1.384 . S
H998 C1004 0.930 . S
H999 C1008 0.930 . S
H1000 C1013 0.929 . S
H1001 C1011 0.929 . S
H1002 C1006 0.929 . S
H1003 C1012 0.929 . S
C1004 H998 0.930 . S
C1004 C1005 1.367 . S
C1004 C1012 1.378 . S
C1005 C1004 1.367 . S
C1005 C1013 1.433 . S
C1006 H1002 0.929 . S
C1006 C1008 1.378 . S
C1006 C1010 1.350 . S
C1007 C1010 1.463 . S
C1007 C1012 1.350 . S
C1007 N1015 1.427 . S
C1008 H999 0.930 . S
C1008 C1006 1.378 . S
C1008 C1009 1.367 . S
C1009 C1008 1.367 . S
C1009 C1011 1.433 . S
C1010 C1006 1.350 . S
C1010 C1007 1.463 . S
C1010 N1014 1.427 . S
C1011 H1001 0.929 . S
C1011 C1009 1.433 . S
C1011 N1014 1.384 . S
C1012 H1003 0.929 . S
C1012 C1004 1.378 . S
C1012 C1007 1.350 . S
C1013 H1000 0.929 . S
C1013 C1005 1.433 . S
C1013 N1015 1.384 . S
N1014 C1010 1.427 . S
N1014 C1011 1.384 . S
N1015 C1007 1.427 . S
N1015 C1013 1.384 . S
H1016 C1022 0.930 . S
H1017 C1026 0.930 . S
H1018 C1031 0.929 . S
H1019 C1029 0.929 . S
H1020 C1024 0.929 . S
H1021 C1030 0.929 . S
C1022 H1016 0.930 . S
C1022 C1023 1.367 . S
C1022 C1030 1.378 . S
C1023 C1022 1.367 . S
C1023 C1031 1.433 . S
C1024 H1020 0.929 . S
C1024 C1026 1.378 . S
C1024 C1028 1.350 . S
C1025 C1028 1.463 . S
C1025 C1030 1.350 . S
C1025 N1033 1.427 . S
C1026 H1017 0.930 . S
C1026 C1024 1.378 . S
C1026 C1027 1.367 . S
C1027 C1026 1.367 . S
C1027 C1029 1.433 . S
C1028 C1024 1.350 . S
C1028 C1025 1.463 . S
C1028 N1032 1.427 . S
C1029 H1019 0.929 . S
C1029 C1027 1.433 . S
C1029 N1032 1.384 . S
C1030 H1021 0.929 . S
C1030 C1022 1.378 . S
C1030 C1025 1.350 . S
C1031 H1018 0.929 . S
C1031 C1023 1.433 . S
C1031 N1033 1.384 . S
N1032 C1028 1.427 . S
N1032 C1029 1.384 . S
N1033 C1025 1.427 . S
N1033 C1031 1.384 . S
H1034 C1040 0.930 . S
H1035 C1044 0.930 . S
H1036 C1049 0.929 . S
H1037 C1047 0.929 . S
H1038 C1042 0.929 . S
H1039 C1048 0.929 . S
C1040 H1034 0.930 . S
C1040 C1041 1.367 . S
C1040 C1048 1.378 . S
C1041 C1040 1.367 . S
C1041 C1049 1.433 . S
C1042 H1038 0.929 . S
C1042 C1044 1.378 . S
C1042 C1046 1.350 . S
C1043 C1046 1.463 . S
C1043 C1048 1.350 . S
C1043 N1051 1.427 . S
C1044 H1035 0.930 . S
C1044 C1042 1.378 . S
C1044 C1045 1.367 . S
C1045 C1044 1.367 . S
C1045 C1047 1.433 . S
C1046 C1042 1.350 . S
C1046 C1043 1.463 . S
C1046 N1050 1.427 . S
C1047 H1037 0.929 . S
C1047 C1045 1.433 . S
C1047 N1050 1.384 . S
C1048 H1039 0.929 . S
C1048 C1040 1.378 . S
C1048 C1043 1.350 . S
C1049 H1036 0.929 . S
C1049 C1041 1.433 . S
C1049 N1051 1.384 . S
N1050 C1046 1.427 . S
N1050 C1047 1.384 . S
N1051 C1043 1.427 . S
N1051 C1049 1.384 . S
H1052 C1058 0.930 . S
H1053 C1062 0.930 . S
H1054 C1067 0.929 . S
H1055 C1065 0.929 . S
H1056 C1060 0.929 . S
H1057 C1066 0.929 . S
C1058 H1052 0.930 . S
C1058 C1059 1.367 . S
C1058 C1066 1.378 . S
C1059 C1058 1.367 . S
C1059 C1067 1.433 . S
C1060 H1056 0.929 . S
C1060 C1062 1.378 . S
C1060 C1064 1.350 . S
C1061 C1064 1.463 . S
C1061 C1066 1.350 . S
C1061 N1069 1.427 . S
C1062 H1053 0.930 . S
C1062 C1060 1.378 . S
C1062 C1063 1.367 . S
C1063 C1062 1.367 . S
C1063 C1065 1.433 . S
C1064 C1060 1.350 . S
C1064 C1061 1.463 . S
C1064 N1068 1.427 . S
C1065 H1055 0.929 . S
C1065 C1063 1.433 . S
C1065 N1068 1.384 . S
C1066 H1057 0.929 . S
C1066 C1058 1.378 . S
C1066 C1061 1.350 . S
C1067 H1054 0.929 . S
C1067 C1059 1.433 . S
C1067 N1069 1.384 . S
N1068 C1064 1.427 . S
N1068 C1065 1.384 . S
N1069 C1061 1.427 . S
N1069 C1067 1.384 . S
H1070 C1076 0.930 . S
H1071 C1080 0.930 . S
H1072 C1085 0.929 . S
H1073 C1083 0.929 . S
H1074 C1078 0.929 . S
H1075 C1084 0.929 . S
C1076 H1070 0.930 . S
C1076 C1077 1.367 . S
C1076 C1084 1.378 . S
C1077 C1076 1.367 . S
C1077 C1085 1.433 . S
C1078 H1074 0.929 . S
C1078 C1080 1.378 . S
C1078 C1082 1.350 . S
C1079 C1082 1.463 . S
C1079 C1084 1.350 . S
C1079 N1087 1.427 . S
C1080 H1071 0.930 . S
C1080 C1078 1.378 . S
C1080 C1081 1.367 . S
C1081 C1080 1.367 . S
C1081 C1083 1.433 . S
C1082 C1078 1.350 . S
C1082 C1079 1.463 . S
C1082 N1086 1.427 . S
C1083 H1073 0.929 . S
C1083 C1081 1.433 . S
C1083 N1086 1.384 . S
C1084 H1075 0.929 . S
C1084 C1076 1.378 . S
C1084 C1079 1.350 . S
C1085 H1072 0.929 . S
C1085 C1077 1.433 . S
C1085 N1087 1.384 . S
N1086 C1082 1.427 . S
N1086 C1083 1.384 . S
N1087 C1079 1.427 . S
N1087 C1085 1.384 . S
H1088 C1094 0.930 . S
H1089 C1098 0.930 . S
H1090 C1103 0.929 . S
H1091 C1101 0.929 . S
H1092 C1096 0.929 . S
H1093 C1102 0.929 . S
C1094 H1088 0.930 . S
C1094 C1095 1.367 . S
C1094 C1102 1.378 . S
C1095 C1094 1.367 . S
C1095 C1103 1.433 . S
C1096 H1092 0.929 . S
C1096 C1098 1.378 . S
C1096 C1100 1.350 . S
C1097 C1100 1.463 . S
C1097 C1102 1.350 . S
C1097 N1105 1.427 . S
C1098 H1089 0.930 . S
C1098 C1096 1.378 . S
C1098 C1099 1.367 . S
C1099 C1098 1.367 . S
C1099 C1101 1.433 . S
C1100 C1096 1.350 . S
C1100 C1097 1.463 . S
C1100 N1104 1.427 . S
C1101 H1091 0.929 . S
C1101 C1099 1.433 . S
C1101 N1104 1.384 . S
C1102 H1093 0.929 . S
C1102 C1094 1.378 . S
C1102 C1097 1.350 . S
C1103 H1090 0.929 . S
C1103 C1095 1.433 . S
C1103 N1105 1.384 . S
N1104 C1100 1.427 . S
N1104 C1101 1.384 . S
N1105 C1097 1.427 . S
N1105 C1103 1.384 . S
H1106 C1112 0.930 . S
H1107 C1116 0.930 . S
H1108 C1121 0.929 . S
H1109 C1119 0.929 . S
H1110 C1114 0.929 . S
H1111 C1120 0.929 . S
C1112 H1106 0.930 . S
C1112 C1113 1.367 . S
C1112 C1120 1.378 . S
C1113 C1112 1.367 . S
C1113 C1121 1.433 . S
C1114 H1110 0.929 . S
C1114 C1116 1.378 . S
C1114 C1118 1.350 . S
C1115 C1118 1.463 . S
C1115 C1120 1.350 . S
C1115 N1123 1.427 . S
C1116 H1107 0.930 . S
C1116 C1114 1.378 . S
C1116 C1117 1.367 . S
C1117 C1116 1.367 . S
C1117 C1119 1.433 . S
C1118 C1114 1.350 . S
C1118 C1115 1.463 . S
C1118 N1122 1.427 . S
C1119 H1109 0.929 . S
C1119 C1117 1.433 . S
C1119 N1122 1.384 . S
C1120 H1111 0.929 . S
C1120 C1112 1.378 . S
C1120 C1115 1.350 . S
C1121 H1108 0.929 . S
C1121 C1113 1.433 . S
C1121 N1123 1.384 . S
N1122 C1118 1.427 . S
N1122 C1119 1.384 . S
N1123 C1115 1.427 . S
N1123 C1121 1.384 . S
H1124 C1130 0.930 . S
H1125 C1134 0.930 . S
H1126 C1139 0.929 . S
H1127 C1137 0.929 . S
H1128 C1132 0.929 . S
H1129 C1138 0.929 . S
C1130 H1124 0.930 . S
C1130 C1131 1.367 . S
C1130 C1138 1.378 . S
C1131 C1130 1.367 . S
C1131 C1139 1.433 . S
C1132 H1128 0.929 . S
C1132 C1134 1.378 . S
C1132 C1136 1.350 . S
C1133 C1136 1.463 . S
C1133 C1138 1.350 . S
C1133 N1141 1.427 . S
C1134 H1125 0.930 . S
C1134 C1132 1.378 . S
C1134 C1135 1.367 . S
C1135 C1134 1.367 . S
C1135 C1137 1.433 . S
C1136 C1132 1.350 . S
C1136 C1133 1.463 . S
C1136 N1140 1.427 . S
C1137 H1127 0.929 . S
C1137 C1135 1.433 . S
C1137 N1140 1.384 . S
C1138 H1129 0.929 . S
C1138 C1130 1.378 . S
C1138 C1133 1.350 . S
C1139 H1126 0.929 . S
C1139 C1131 1.433 . S
C1139 N1141 1.384 . S
N1140 C1136 1.427 . S
N1140 C1137 1.384 . S
N1141 C1133 1.427 . S
N1141 C1139 1.384 . S
H1142 C1148 0.930 . S
H1143 C1152 0.930 . S
H1144 C1157 0.929 . S
H1145 C1155 0.929 . S
H1146 C1150 0.929 . S
H1147 C1156 0.929 . S
C1148 H1142 0.930 . S
C1148 C1149 1.367 . S
C1148 C1156 1.378 . S
C1149 C1148 1.367 . S
C1149 C1157 1.433 . S
C1150 H1146 0.929 . S
C1150 C1152 1.378 . S
C1150 C1154 1.350 . S
C1151 C1154 1.463 . S
C1151 C1156 1.350 . S
C1151 N1159 1.427 . S
C1152 H1143 0.930 . S
C1152 C1150 1.378 . S
C1152 C1153 1.367 . S
C1153 C1152 1.367 . S
C1153 C1155 1.433 . S
C1154 C1150 1.350 . S
C1154 C1151 1.463 . S
C1154 N1158 1.427 . S
C1155 H1145 0.929 . S
C1155 C1153 1.433 . S
C1155 N1158 1.384 . S
C1156 H1147 0.929 . S
C1156 C1148 1.378 . S
C1156 C1151 1.350 . S
C1157 H1144 0.929 . S
C1157 C1149 1.433 . S
C1157 N1159 1.384 . S
N1158 C1154 1.427 . S
N1158 C1155 1.384 . S
N1159 C1151 1.427 . S
N1159 C1157 1.384 . S
H1160 C1166 0.930 . S
H1161 C1170 0.930 . S
H1162 C1175 0.929 . S
H1163 C1173 0.929 . S
H1164 C1168 0.929 . S
H1165 C1174 0.929 . S
C1166 H1160 0.930 . S
C1166 C1167 1.367 . S
C1166 C1174 1.378 . S
C1167 C1166 1.367 . S
C1167 C1175 1.433 . S
C1168 H1164 0.929 . S
C1168 C1170 1.378 . S
C1168 C1172 1.350 . S
C1169 C1172 1.463 . S
C1169 C1174 1.350 . S
C1169 N1177 1.427 . S
C1170 H1161 0.930 . S
C1170 C1168 1.378 . S
C1170 C1171 1.367 . S
C1171 C1170 1.367 . S
C1171 C1173 1.433 . S
C1172 C1168 1.350 . S
C1172 C1169 1.463 . S
C1172 N1176 1.427 . S
C1173 H1163 0.929 . S
C1173 C1171 1.433 . S
C1173 N1176 1.384 . S
C1174 H1165 0.929 . S
C1174 C1166 1.378 . S
C1174 C1169 1.350 . S
C1175 H1162 0.929 . S
C1175 C1167 1.433 . S
C1175 N1177 1.384 . S
N1176 C1172 1.427 . S
N1176 C1173 1.384 . S
N1177 C1169 1.427 . S
N1177 C1175 1.384 . S
H1178 C1184 0.930 . S
H1179 C1188 0.930 . S
H1180 C1193 0.929 . S
H1181 C1191 0.929 . S
H1182 C1186 0.929 . S
H1183 C1192 0.929 . S
C1184 H1178 0.930 . S
C1184 C1185 1.367 . S
C1184 C1192 1.378 . S
C1185 C1184 1.367 . S
C1185 C1193 1.433 . S
C1186 H1182 0.929 . S
C1186 C1188 1.378 . S
C1186 C1190 1.350 . S
C1187 C1190 1.463 . S
C1187 C1192 1.350 . S
C1187 N1195 1.427 . S
C1188 H1179 0.930 . S
C1188 C1186 1.378 . S
C1188 C1189 1.367 . S
C1189 C1188 1.367 . S
C1189 C1191 1.433 . S
C1190 C1186 1.350 . S
C1190 C1187 1.463 . S
C1190 N1194 1.427 . S
C1191 H1181 0.929 . S
C1191 C1189 1.433 . S
C1191 N1194 1.384 . S
C1192 H1183 0.929 . S
C1192 C1184 1.378 . S
C1192 C1187 1.350 . S
C1193 H1180 0.929 . S
C1193 C1185 1.433 . S
C1193 N1195 1.384 . S
N1194 C1190 1.427 . S
N1194 C1191 1.384 . S
N1195 C1187 1.427 . S
N1195 C1193 1.384 . S
H1196 C1202 0.930 . S
H1197 C1206 0.930 . S
H1198 C1211 0.929 . S
H1199 C1209 0.929 . S
H1200 C1204 0.929 . S
H1201 C1210 0.929 . S
C1202 H1196 0.930 . S
C1202 C1203 1.367 . S
C1202 C1210 1.378 . S
C1203 C1202 1.367 . S
C1203 C1211 1.433 . S
C1204 H1200 0.929 . S
C1204 C1206 1.378 . S
C1204 C1208 1.350 . S
C1205 C1208 1.463 . S
C1205 C1210 1.350 . S
C1205 N1213 1.427 . S
C1206 H1197 0.930 . S
C1206 C1204 1.378 . S
C1206 C1207 1.367 . S
C1207 C1206 1.367 . S
C1207 C1209 1.433 . S
C1208 C1204 1.350 . S
C1208 C1205 1.463 . S
C1208 N1212 1.427 . S
C1209 H1199 0.929 . S
C1209 C1207 1.433 . S
C1209 N1212 1.384 . S
C1210 H1201 0.929 . S
C1210 C1202 1.378 . S
C1210 C1205 1.350 . S
C1211 H1198 0.929 . S
C1211 C1203 1.433 . S
C1211 N1213 1.384 . S
N1212 C1208 1.427 . S
N1212 C1209 1.384 . S
N1213 C1205 1.427 . S
N1213 C1211 1.384 . S
H1214 C1220 0.930 . S
H1215 C1224 0.930 . S
H1216 C1229 0.929 . S
H1217 C1227 0.929 . S
H1218 C1222 0.929 . S
H1219 C1228 0.929 . S
C1220 H1214 0.930 . S
C1220 C1221 1.367 . S
C1220 C1228 1.378 . S
C1221 C1220 1.367 . S
C1221 C1229 1.433 . S
C1222 H1218 0.929 . S
C1222 C1224 1.378 . S
C1222 C1226 1.350 . S
C1223 C1226 1.463 . S
C1223 C1228 1.350 . S
C1223 N1231 1.427 . S
C1224 H1215 0.930 . S
C1224 C1222 1.378 . S
C1224 C1225 1.367 . S
C1225 C1224 1.367 . S
C1225 C1227 1.433 . S
C1226 C1222 1.350 . S
C1226 C1223 1.463 . S
C1226 N1230 1.427 . S
C1227 H1217 0.929 . S
C1227 C1225 1.433 . S
C1227 N1230 1.384 . S
C1228 H1219 0.929 . S
C1228 C1220 1.378 . S
C1228 C1223 1.350 . S
C1229 H1216 0.929 . S
C1229 C1221 1.433 . S
C1229 N1231 1.384 . S
N1230 C1226 1.427 . S
N1230 C1227 1.384 . S
N1231 C1223 1.427 . S
N1231 C1229 1.384 . S
C375 C16 1.063 . S
C379 C177 1.063 . S
C393 C108 1.057 . S
C397 C39 1.058 . S
C411 C131 1.069 . S
C415 C62 1.069 . S
C429 C85 1.064 . S
C433 C154 1.064 . S
C447 C362 1.056 . S
C451 C200 1.057 . S
C465 C292 1.056 . S
C469 C223 1.056 . S
C483 C315 1.060 . S
C487 C246 1.060 . S
C501 C338 1.062 . S
C505 C269 1.062 . S
C519 C20 1.197 . S
C523 C366 1.199 . S
C537 C43 1.195 . S
C541 C296 1.186 . S
C555 C66 1.185 . S
C559 C319 1.183 . S
C573 C342 1.183 . S
C577 C89 1.175 . S
C591 C227 1.179 . S
C595 C112 1.191 . S
C609 C135 1.186 . S
C613 C250 1.186 . S
C627 C273 1.188 . S
C631 C158 1.178 . S
C645 C181 1.162 . S
C649 C204 1.170 . S
C663 C294 1.468 . S
C667 C17 1.452 . S
C681 C40 1.460 1_455 S
C685 C317 1.470 . S
C699 C340 1.460 . S
C703 C63 1.459 1_545 S
C717 C364 1.477 . S
C721 C86 1.467 . S
C735 C109 1.463 . S
C739 C202 1.468 . S
C753 C132 1.451 1_655 S
C757 C225 1.461 . S
C771 C155 1.455 1_565 S
C775 C248 1.469 . S
C789 C271 1.463 . S
C793 C178 1.459 . S
C807 C201 1.460 . S
C811 C110 1.466 . S
C825 C224 1.451 1_655 S
C829 C133 1.459 . S
C843 C156 1.457 . S
C847 C247 1.454 1_565 S
C861 C270 1.462 . S
C865 C179 1.465 . S
C879 C293 1.457 . S
C883 C18 1.472 . S
C897 C316 1.462 1_455 S
C901 C41 1.463 . S
C915 C64 1.464 . S
C919 C339 1.461 1_545 S
C933 C87 1.519 . S
C937 C361 1.499 . S
C951 C19 1.545 . S
C955 C228 1.526 . S
C969 C251 1.524 . S
C973 C42 1.550 . S
C987 C65 1.539 . S
C991 C274 1.521 . S
C1005 C88 1.563 . S
C1009 C205 1.535 . S
C1023 C111 1.518 . S
C1027 C365 1.536 . S
C1041 C134 1.537 . S
C1045 C297 1.518 . S
C1059 C157 1.542 . S
C1063 C320 1.514 . S
C1077 C343 1.512 . S
C1081 C180 1.534 . S
C1095 C44 1.520 . S
C1099 C203 1.542 . S
C1113 C67 1.519 . S
C1117 C226 1.538 . S
C1131 C249 1.538 . S
C1135 C90 1.516 . S
C1149 C272 1.542 . S
C1153 C21 1.522 . S
C1167 C182 1.514 . S
C1171 C295 1.542 . S
C1185 C113 1.512 . S
C1189 C318 1.541 . S
C1203 C136 1.510 . S
C1207 C341 1.538 . S
C1221 C159 1.512 . S
C1225 C363 1.564 . S
