# Generated by pormake.
# Topology fcu, (12)-cn, num edge types: 1
# Building blocks:
#     Node 0, Type 0, BuildingBlock: EZIPEK_clean_sbu_0, # of connection points: 12
#     Node 1, Type 0, BuildingBlock: EZIPEK_clean_sbu_0, # of connection points: 12
#     Node 2, Type 0, BuildingBlock: EZIPEK_clean_sbu_0, # of connection points: 12
#     Node 3, Type 0, BuildingBlock: EZIPEK_clean_sbu_0, # of connection points: 12
#     Edge 4, Type (0, 0), BuildingBlock: ZUJKAS_clean_linker_0, # of connection points: 2
#     Edge 5, Type (0, 0), BuildingBlock: ZUJKAS_clean_linker_0, # of connection points: 2
#     Edge 6, Type (0, 0), BuildingBlock: ZUJKAS_clean_linker_0, # of connection points: 2
#     Edge 7, Type (0, 0), BuildingBlock: ZUJKAS_clean_linker_0, # of connection points: 2
#     Edge 8, Type (0, 0), BuildingBlock: ZUJKAS_clean_linker_0, # of connection points: 2
#     Edge 9, Type (0, 0), BuildingBlock: ZUJKAS_clean_linker_0, # of connection points: 2
#     Edge 10, Type (0, 0), BuildingBlock: ZUJKAS_clean_linker_0, # of connection points: 2
#     Edge 11, Type (0, 0), BuildingBlock: ZUJKAS_clean_linker_0, # of connection points: 2
#     Edge 12, Type (0, 0), BuildingBlock: ZUJKAS_clean_linker_0, # of connection points: 2
#     Edge 13, Type (0, 0), BuildingBlock: ZUJKAS_clean_linker_0, # of connection points: 2
#     Edge 14, Type (0, 0), BuildingBlock: ZUJKAS_clean_linker_0, # of connection points: 2
#     Edge 15, Type (0, 0), BuildingBlock: ZUJKAS_clean_linker_0, # of connection points: 2
#     Edge 16, Type (0, 0), BuildingBlock: ZUJKAS_clean_linker_0, # of connection points: 2
#     Edge 17, Type (0, 0), BuildingBlock: ZUJKAS_clean_linker_0, # of connection points: 2
#     Edge 18, Type (0, 0), BuildingBlock: ZUJKAS_clean_linker_0, # of connection points: 2
#     Edge 19, Type (0, 0), BuildingBlock: ZUJKAS_clean_linker_0, # of connection points: 2
#     Edge 20, Type (0, 0), BuildingBlock: ZUJKAS_clean_linker_0, # of connection points: 2
#     Edge 21, Type (0, 0), BuildingBlock: ZUJKAS_clean_linker_0, # of connection points: 2
#     Edge 22, Type (0, 0), BuildingBlock: ZUJKAS_clean_linker_0, # of connection points: 2
#     Edge 23, Type (0, 0), BuildingBlock: ZUJKAS_clean_linker_0, # of connection points: 2
#     Edge 24, Type (0, 0), BuildingBlock: ZUJKAS_clean_linker_0, # of connection points: 2
#     Edge 25, Type (0, 0), BuildingBlock: ZUJKAS_clean_linker_0, # of connection points: 2
#     Edge 26, Type (0, 0), BuildingBlock: ZUJKAS_clean_linker_0, # of connection points: 2
#     Edge 27, Type (0, 0), BuildingBlock: ZUJKAS_clean_linker_0, # of connection points: 2
# Relax obj value: 0.000
# Max RMSD: 0.000
# Mean RMSD: 0.000
data_MOF--net-fcu--node1-EZIPEK_clean_sbu_0--edge1-ZUJKAS_clean_linker_0
_symmetry_space_group_name_H-M    P1
_symmetry_Int_Tables_number       1
_symmetry_cell_setting            triclinic
loop_
_symmetry_equiv_pos_as_xyz
'x, y, z'
_cell_length_a     33.349472
_cell_length_b     33.343277
_cell_length_c     33.352443
_cell_angle_alpha  90.008426
_cell_angle_beta   90.005078
_cell_angle_gamma 89.995714
loop_
_atom_site_label
_atom_site_type_symbol
_atom_site_fract_x
_atom_site_fract_y
_atom_site_fract_z
_atom_type_partial_charge
C0 C 0.00655 0.90855 0.10367 0.0
C1 C 0.00641 0.90932 0.90914 0.0
C2 C 0.00658 0.10324 0.10442 0.0
C3 C 0.00643 0.10394 0.90987 0.0
C4 C 0.90935 0.10374 0.00719 0.0
C5 C 0.90903 0.90917 0.00641 0.0
C6 C 0.10388 0.10343 0.00712 0.0
C7 C 0.10363 0.90893 0.00648 0.0
C8 C 0.10361 0.00645 0.90941 0.0
C9 C 0.90902 0.00648 0.90967 0.0
C10 C 0.10385 1.00596 0.10398 0.0
C11 C 0.90923 1.006 0.10416 0.0
Eu12 Eu 0.00636 0.9304 0.00649 0.0
O13 O 0.97073 0.97084 0.97102 0.0
O14 O 0.04207 0.97047 0.04232 0.0
Eu15 Eu 0.93062 0.0064 0.0069 0.0
Eu16 Eu 0.08229 0.00619 0.00672 0.0
O17 O 0.9708 0.97054 0.04241 0.0
O18 O 0.042 0.97074 0.97093 0.0
Eu19 Eu 0.00652 1.00597 0.08277 0.0
Eu20 Eu 0.00635 0.00654 0.93085 0.0
O21 O 0.97097 0.04188 0.04264 0.0
O22 O 0.97085 0.04215 0.9713 0.0
O23 O 0.04207 0.04205 0.9712 0.0
O24 O 0.04211 0.04176 0.04257 0.0
Eu25 Eu 0.00657 0.08222 0.00706 0.0
O26 O 0.00639 0.89656 0.06546 0.0
O27 O 0.00639 0.89702 0.94726 0.0
O28 O 0.0065 0.11552 0.0663 0.0
O29 O 0.00668 0.11597 0.94807 0.0
O30 O 0.89712 0.06559 0.00723 0.0
O31 O 0.89695 0.94736 0.00674 0.0
O32 O 0.11596 0.06524 0.00683 0.0
O33 O 0.1158 0.94708 0.0068 0.0
O34 O 0.06545 0.00658 0.89727 0.0
O35 O 0.94715 0.0064 0.89741 0.0
O36 O 0.06571 1.00576 0.11623 0.0
O37 O 0.94738 1.00578 0.11635 0.0
O38 O 0.06575 0.11569 0.00731 0.0
O39 O 0.94752 0.11586 0.00706 0.0
O40 O 0.06547 0.89675 0.0062 0.0
O41 O 0.94716 0.89691 0.00623 0.0
O42 O 0.00638 0.94753 0.8971 0.0
O43 O 0.00621 0.06582 0.89753 0.0
O44 O 0.00665 0.94666 0.11603 0.0
O45 O 0.00665 0.06504 0.1165 0.0
O46 O 0.89708 0.0063 0.066 0.0
O47 O 0.89694 0.0066 0.94785 0.0
O48 O 0.11594 0.0062 0.0658 0.0
O49 O 0.11581 0.00629 0.94756 0.0
C50 C 0.0069 0.40916 0.60428 0.0
C51 C 0.00634 0.6037 0.60394 0.0
C52 C 0.00624 0.40867 0.4098 0.0
C53 C 0.0061 0.60336 0.40936 0.0
C54 C 0.10351 0.50635 0.40927 0.0
C55 C 0.10399 0.50656 0.60381 0.0
C56 C 0.90899 0.50616 0.4097 0.0
C57 C 0.90944 0.50614 0.60431 0.0
C58 C 0.90903 0.60339 0.50695 0.0
C59 C 0.1036 0.60369 0.50654 0.0
C60 C 0.90934 0.40878 0.50688 0.0
C61 C 0.1039 0.4091 0.50684 0.0
Eu62 Eu 0.00666 0.5064 0.58264 0.0
O63 O 0.04217 0.54208 0.54228 0.0
O64 O 0.97093 0.47056 0.5426 0.0
Eu65 Eu 0.08234 0.50637 0.5066 0.0
Eu66 Eu 0.93057 0.50612 0.50697 0.0
O67 O 0.04227 0.4707 0.5424 0.0
O68 O 0.97084 0.54195 0.54243 0.0
Eu69 Eu 0.00658 0.43032 0.50699 0.0
Eu70 Eu 0.00635 0.58219 0.5067 0.0
O71 O 0.04207 0.47053 0.4711 0.0
O72 O 0.04191 0.54189 0.47098 0.0
O73 O 0.97074 0.54175 0.47117 0.0
O74 O 0.97084 0.47047 0.4713 0.0
Eu75 Eu 0.0063 0.50606 0.43086 0.0
O76 O 0.00696 0.44735 0.61637 0.0
O77 O 0.00654 0.56555 0.61613 0.0
O78 O 0.00611 0.4468 0.3975 0.0
O79 O 1.00606 0.56517 0.39724 0.0
O80 O 0.11578 0.50652 0.4474 0.0
O81 O 0.11606 0.50641 0.56562 0.0
O82 O 0.89687 0.50633 0.44788 0.0
O83 O 0.89716 0.50588 0.56619 0.0
O84 O 0.94716 0.61564 0.5067 0.0
O85 O 0.06542 0.61582 0.50673 0.0
O86 O 0.94752 0.39667 0.5071 0.0
O87 O 0.06576 0.39686 0.50708 0.0
O88 O 0.94713 0.50595 0.39747 0.0
O89 O 0.06533 0.50608 0.39719 0.0
O90 O 0.94764 0.50643 0.61637 0.0
O91 O 0.06586 0.50666 0.61607 0.0
O92 O 0.00622 0.61584 0.56578 0.0
O93 O 0.00625 0.61561 0.4475 0.0
O94 O 0.0067 0.3969 0.56616 0.0
O95 O 0.00649 0.39662 0.44798 0.0
O96 O 0.116 0.44729 0.50655 0.0
O97 O 0.11582 0.56554 0.5064 0.0
O98 O 0.89711 0.44693 0.50673 0.0
O99 O 0.89693 0.56521 0.50716 0.0
C100 C 0.50651 0.90884 0.60396 0.0
C101 C 0.50662 0.10347 0.60418 0.0
C102 C 0.5064 0.90905 0.40942 0.0
C103 C 0.5064 0.10373 0.40967 0.0
C104 C 0.60373 0.00655 0.40952 0.0
C105 C 0.60384 0.0063 0.60402 0.0
C106 C 0.40905 0.00637 0.4097 0.0
C107 C 0.40933 1.00596 0.60425 0.0
C108 C 0.40899 0.10333 0.50682 0.0
C109 C 0.60357 0.1037 0.50698 0.0
C110 C 0.40942 0.90875 0.50695 0.0
C111 C 0.60394 0.90912 0.50649 0.0
Eu112 Eu 0.50656 0.00618 0.5827 0.0
O113 O 0.54207 0.04196 0.54244 0.0
O114 O 0.47097 0.97046 0.54244 0.0
Eu115 Eu 0.58232 0.00636 0.50678 0.0
Eu116 Eu 0.43062 1.00609 0.50695 0.0
O117 O 0.54225 0.97055 0.54243 0.0
O118 O 0.47077 0.04188 0.54257 0.0
Eu119 Eu 0.50664 0.93033 0.50673 0.0
Eu120 Eu 0.50632 0.08218 0.50691 0.0
O121 O 0.54211 0.97071 0.47104 0.0
O122 O 0.54198 0.042 0.47116 0.0
O123 O 0.47077 0.04185 0.47124 0.0
O124 O 0.47091 0.97059 0.47113 0.0
Eu125 Eu 0.5064 0.00636 0.43083 0.0
O126 O 0.50647 0.94699 0.61619 0.0
O127 O 0.50667 0.0653 0.61632 0.0
O128 O 0.50629 0.94722 0.39726 0.0
O129 O 0.50636 0.06559 0.3974 0.0
O130 O 0.61586 0.00648 0.44768 0.0
O131 O 0.61596 0.00626 0.56585 0.0
O132 O 0.39696 1.00604 0.44788 0.0
O133 O 0.39711 1.00592 0.56611 0.0
O134 O 0.44712 0.1156 0.50675 0.0
O135 O 0.56539 0.11582 0.50689 0.0
O136 O 0.4476 0.89665 0.50669 0.0
O137 O 0.56581 0.89687 0.50658 0.0
O138 O 0.44718 0.00659 0.39743 0.0
O139 O 0.56557 0.00655 0.3973 0.0
O140 O 0.44751 1.00612 0.61636 0.0
O141 O 0.5657 0.0063 0.61623 0.0
O142 O 0.50643 0.11567 0.56604 0.0
O143 O 0.50641 0.11582 0.44785 0.0
O144 O 0.50664 0.89672 0.56579 0.0
O145 O 0.50659 0.89686 0.44757 0.0
O146 O 0.61602 0.94731 0.50654 0.0
O147 O 0.6158 0.06555 0.507 0.0
O148 O 0.39717 0.94689 0.50713 0.0
O149 O 0.39692 0.06514 0.50697 0.0
C150 C 0.50647 0.60349 0.90945 0.0
C151 C 0.5066 0.60374 0.10393 0.0
C152 C 0.50647 0.40882 0.90966 0.0
C153 C 0.50617 0.4091 0.10423 0.0
C154 C 0.60368 0.40895 0.00678 0.0
C155 C 0.60369 0.60355 0.00683 0.0
C156 C 0.40911 0.40902 0.00669 0.0
C157 C 0.40912 0.60352 0.00682 0.0
C158 C 0.40914 0.50638 0.10407 0.0
C159 C 0.60367 0.5062 0.10412 0.0
C160 C 0.40912 0.50599 0.90954 0.0
C161 C 0.60371 0.50634 0.90951 0.0
Eu162 Eu 0.5064 0.58213 0.00673 0.0
O163 O 0.54207 0.54194 0.04245 0.0
O164 O 0.47076 0.54188 0.97104 0.0
Eu165 Eu 0.5823 0.50626 0.00681 0.0
Eu166 Eu 0.43058 0.50629 0.0068 0.0
O167 O 0.54205 0.54184 0.97109 0.0
O168 O 0.47075 0.54197 0.04248 0.0
Eu169 Eu 0.50642 0.50618 0.93085 0.0
Eu170 Eu 0.50642 0.5064 0.08274 0.0
O171 O 0.54202 0.47054 0.97119 0.0
O172 O 0.54203 0.47064 0.04251 0.0
O173 O 0.47082 0.47065 0.0425 0.0
O174 O 0.47084 0.47057 0.9712 0.0
Eu175 Eu 0.50641 0.43032 0.00691 0.0
O176 O 0.50637 0.61566 0.94761 0.0
O177 O 0.50652 0.61582 0.06575 0.0
O178 O 0.5065 0.39671 0.94783 0.0
O179 O 0.50615 0.39688 0.06608 0.0
O180 O 0.61586 0.44711 0.00653 0.0
O181 O 0.61585 0.56539 0.00685 0.0
O182 O 0.39698 0.44719 0.00678 0.0
O183 O 0.39698 0.56535 0.00662 0.0
O184 O 0.4473 0.50655 0.11626 0.0
O185 O 0.56552 0.5064 0.11627 0.0
O186 O 0.44727 0.50596 0.89733 0.0
O187 O 0.56556 0.50607 0.89733 0.0
O188 O 0.44726 0.3968 0.00668 0.0
O189 O 0.56552 0.39678 0.00707 0.0
O190 O 0.44727 0.61573 0.00699 0.0
O191 O 0.56552 0.61573 0.00679 0.0
O192 O 0.50659 0.5656 0.11619 0.0
O193 O 0.50632 0.44728 0.11636 0.0
O194 O 0.50652 0.56532 0.89727 0.0
O195 O 0.50642 0.44696 0.89741 0.0
O196 O 0.61588 0.50653 0.94767 0.0
O197 O 0.61587 0.50605 0.06597 0.0
O198 O 0.39699 0.50615 0.9477 0.0
O199 O 0.39698 0.50622 0.06591 0.0
H200 H 1.00335 0.18486 0.09443 0.0
H201 H 1.00342 0.23641 0.14634 0.0
H202 H 0.01021 0.14516 0.23765 0.0
H203 H 0.00966 0.09315 0.18607 0.0
H204 H 0.95256 0.20434 0.25307 0.0
H205 H 0.09951 0.2721 0.21395 0.0
H206 H 0.06499 0.26869 0.17277 0.0
H207 H 0.08395 0.22364 0.1955 0.0
C208 C 1.00501 0.17558 0.1255 0.0
C209 C 0.00668 0.13469 0.13593 0.0
C210 C 1.00526 0.2052 0.15515 0.0
C211 C 0.00748 0.19461 0.19578 0.0
C212 C 0.00871 0.15393 0.2064 0.0
H213 H 0.00924 0.32708 0.42021 0.0
H214 H 0.00899 0.27526 0.36856 0.0
C215 C 0.00842 0.12425 0.17681 0.0
C216 C 0.00764 0.22596 0.22727 0.0
H217 H 0.05997 0.30694 0.26177 0.0
C218 C 0.97612 0.22667 0.25514 0.0
C219 C 0.0384 0.25507 0.22978 0.0
C220 C 0.07385 0.25477 0.20166 0.0
C221 C 0.97413 0.25621 0.28508 0.0
C222 C 1.00488 0.28534 0.28756 0.0
C223 C 0.03641 0.2846 0.25971 0.0
C224 C 1.00497 0.31682 0.31892 0.0
C225 C 0.9387 0.2565 0.31323 0.0
C226 C 1.00379 0.35745 0.3081 0.0
C227 C 1.00419 0.38728 0.33754 0.0
C228 C 1.00598 0.37704 0.37846 0.0
C229 C 0.00756 0.3362 0.3891 0.0
C230 C 0.0072 0.30643 0.35961 0.0
H231 H 0.91307 0.23907 0.301 0.0
H232 H 0.94761 0.24269 0.34215 0.0
H233 H 0.92853 0.28763 0.3193 0.0
H234 H 1.00229 0.36607 0.27681 0.0
H235 H 1.00301 0.41834 0.32811 0.0
H236 H 0.91902 1.00134 0.18577 0.0
H237 H 0.86688 1.00076 0.23718 0.0
H238 H 0.77601 0.01055 0.14577 0.0
H239 H 0.82769 0.01067 0.094 0.0
H240 H 0.80888 0.05899 0.25358 0.0
H241 H 0.73816 0.91422 0.21156 0.0
H242 H 0.7869 0.92918 0.19335 0.0
H243 H 0.7422 0.94947 0.17107 0.0
C244 C 0.88797 1.00324 0.17644 0.0
C245 C 0.87768 1.00583 0.13557 0.0
C246 C 0.85821 1.00292 0.20595 0.0
C247 C 0.81758 1.00498 0.19525 0.0
C248 C 0.80716 0.00805 0.15462 0.0
H249 H 0.59397 0.01121 0.3279 0.0
H250 H 0.64613 0.01178 0.27651 0.0
C251 C 0.83685 0.00832 0.12507 0.0
C252 C 0.78616 1.00487 0.22668 0.0
H253 H 0.70413 0.95353 0.26015 0.0
C254 C 0.78607 0.03585 0.25518 0.0
C255 C 0.75642 0.97467 0.22858 0.0
C256 C 0.75599 0.93978 0.19975 0.0
C257 C 0.75659 0.03785 0.28515 0.0
C258 C 0.72684 0.00765 0.28705 0.0
C259 C 0.72693 0.97667 0.25855 0.0
C260 C 0.69541 0.00755 0.31846 0.0
C261 C 0.75702 0.07274 0.31398 0.0
C262 C 0.70582 1.00448 0.35909 0.0
C263 C 0.67611 1.00422 0.38864 0.0
C264 C 0.63529 0.00671 0.37811 0.0
C265 C 0.62501 0.0093 0.33724 0.0
C266 C 0.65479 0.00962 0.30775 0.0
H267 H 0.77485 0.0983 0.30218 0.0
H268 H 0.72611 0.08335 0.32037 0.0
H269 H 0.77079 0.06305 0.34267 0.0
H270 H 0.73696 1.00198 0.36796 0.0
H271 H 0.68525 1.00187 0.41971 0.0
H272 H 0.00896 0.91822 0.18539 0.0
H273 H 0.00951 0.86599 0.23669 0.0
H274 H 1.00423 0.7751 0.14489 0.0
H275 H 1.00414 0.82691 0.09322 0.0
H276 H 0.95209 0.80644 0.25126 0.0
H277 H 0.09984 0.73964 0.21335 0.0
H278 H 0.08419 0.78808 0.19492 0.0
H279 H 0.06562 0.743 0.17192 0.0
C280 C 0.00806 0.88716 0.17594 0.0
C281 C 0.00671 0.8769 0.135 0.0
C282 C 0.00835 0.85734 0.20539 0.0
C283 C 0.00752 0.8167 0.19457 0.0
C284 C 1.00573 0.80629 0.15386 0.0
H285 H 1.00369 0.59321 0.32769 0.0
H286 H 1.00304 0.64515 0.27609 0.0
C287 C 1.00547 0.83605 0.12435 0.0
C288 C 0.00757 0.78524 0.22596 0.0
H289 H 0.06028 0.70476 0.26107 0.0
C290 C 0.97582 0.7843 0.25356 0.0
C291 C 0.03853 0.75637 0.22876 0.0
C292 C 0.07419 0.75689 0.20092 0.0
C293 C 0.97383 0.75483 0.28355 0.0
C294 C 1.00482 0.72599 0.28639 0.0
C295 C 0.03655 0.72689 0.25876 0.0
C296 C 1.00497 0.69468 0.31793 0.0
C297 C 0.93816 0.7543 0.31138 0.0
C298 C 0.00677 0.70532 0.35858 0.0
C299 C 0.00709 0.67573 0.38825 0.0
C300 C 1.0059 0.63482 0.37784 0.0
C301 C 1.00455 0.62433 0.33696 0.0
C302 C 1.00421 0.65398 0.30733 0.0
H303 H 0.91246 0.77141 0.29886 0.0
H304 H 0.92825 0.7231 0.3175 0.0
H305 H 0.94667 0.76833 0.34033 0.0
H306 H 0.00824 0.73656 0.36737 0.0
H307 H 0.00842 0.68505 0.41933 0.0
H308 H 0.41882 0.01115 0.32811 0.0
H309 H 0.36671 0.01186 0.27669 0.0
H310 H 0.27581 1.00198 0.36806 0.0
H311 H 0.32749 1.00175 0.41985 0.0
H312 H 0.30886 0.95369 0.26016 0.0
H313 H 0.23785 0.09829 0.30234 0.0
H314 H 0.28657 0.08335 0.32063 0.0
H315 H 0.24186 0.06294 0.34275 0.0
C316 C 0.38778 0.00925 0.33743 0.0
C317 C 0.37748 0.0066 0.37829 0.0
C318 C 0.35802 0.00965 0.30792 0.0
C319 C 0.3174 0.0076 0.31859 0.0
C320 C 0.30696 1.00448 0.35922 0.0
H321 H 0.09406 1.00123 0.18557 0.0
H322 H 0.14617 1.00074 0.237 0.0
C323 C 0.33665 1.00414 0.38879 0.0
C324 C 0.28601 0.00772 0.28713 0.0
H325 H 0.20401 0.05906 0.25354 0.0
C326 C 0.28603 0.97681 0.25856 0.0
C327 C 0.25624 0.0379 0.28522 0.0
C328 C 0.25569 0.07273 0.31412 0.0
C329 C 0.25663 0.97485 0.22849 0.0
C330 C 0.22686 1.00503 0.22657 0.0
C331 C 0.22684 0.03594 0.25515 0.0
C332 C 0.19547 1.00512 0.19511 0.0
C333 C 0.25718 0.94002 0.19959 0.0
C334 C 0.20591 0.00824 0.15449 0.0
C335 C 0.17623 0.00844 0.1249 0.0
C336 C 0.13541 1.00585 0.13539 0.0
C337 C 0.1251 1.00321 0.17625 0.0
C338 C 0.15485 1.00295 0.20578 0.0
H339 H 0.27504 0.91447 0.21136 0.0
H340 H 0.2263 0.92937 0.19312 0.0
H341 H 0.27097 0.94981 0.17094 0.0
H342 H 0.23706 0.01082 0.14565 0.0
H343 H 0.18538 0.01083 0.09384 0.0
H344 H 0.00782 0.82758 0.91891 0.0
H345 H 0.00842 0.77621 0.86673 0.0
H346 H 1.00512 0.86798 0.77576 0.0
H347 H 1.00498 0.91972 0.82751 0.0
H348 H 0.95145 0.76231 0.80634 0.0
H349 H 0.10063 0.7984 0.74177 0.0
H350 H 0.08453 0.81692 0.79003 0.0
H351 H 0.06688 0.84027 0.74477 0.0
C352 C 0.00737 0.837 0.88784 0.0
C353 C 0.00656 0.87795 0.87755 0.0
C354 C 0.00768 0.80751 0.85806 0.0
C355 C 0.00742 0.81831 0.81742 0.0
C356 C 0.00617 0.85903 0.80696 0.0
H357 H 1.00495 0.68541 0.59387 0.0
H358 H 1.00421 0.73698 0.64587 0.0
C359 C 1.00587 0.88858 0.83669 0.0
C360 C 0.00755 0.7869 0.78599 0.0
H361 H 0.06099 0.75116 0.7063 0.0
C362 C 0.97546 0.75971 0.78456 0.0
C363 C 0.0389 0.78372 0.7576 0.0
C364 C 0.0749 0.81112 0.75869 0.0
C365 C 0.97353 0.72976 0.75503 0.0
C366 C 1.00489 0.72655 0.72666 0.0
C367 C 0.03697 0.75377 0.72807 0.0
C368 C 1.00509 0.69505 0.69533 0.0
C369 C 0.93752 0.70237 0.75394 0.0
C370 C 0.00633 0.65437 0.70593 0.0
C371 C 0.00671 0.62472 0.67632 0.0
C372 C 0.00611 0.63519 0.63542 0.0
C373 C 1.00532 0.67611 0.62497 0.0
C374 C 1.00493 0.7057 0.65465 0.0
H375 H 0.91175 0.71517 0.77075 0.0
H376 H 0.92796 0.69647 0.7226 0.0
H377 H 0.94549 0.67327 0.76798 0.0
H378 H 0.00731 0.64553 0.73717 0.0
H379 H 0.00757 0.59361 0.6856 0.0
H380 H 0.18531 0.0089 0.91934 0.0
H381 H 0.23679 0.0094 0.86727 0.0
H382 H 0.14527 1.00387 0.77615 0.0
H383 H 0.09344 1.00384 0.82778 0.0
H384 H 0.25174 0.95202 0.8078 0.0
H385 H 0.21355 0.09962 0.74085 0.0
H386 H 0.19502 0.08394 0.78922 0.0
H387 H 0.17217 0.06532 0.74409 0.0
C388 C 0.17597 0.00793 0.88826 0.0
C389 C 0.13506 0.00655 0.87788 0.0
C390 C 0.20552 0.00819 0.85853 0.0
C391 C 0.19483 0.0073 0.81787 0.0
C392 C 0.15415 1.00544 0.80735 0.0
H393 H 0.32764 1.00339 0.59436 0.0
H394 H 0.27619 1.00271 0.64645 0.0
C395 C 0.12455 1.00521 0.83701 0.0
C396 C 0.2263 0.0074 0.78649 0.0
H397 H 0.26126 0.06003 0.70593 0.0
C398 C 0.25399 0.97571 0.78562 0.0
C399 C 0.22904 0.03832 0.75758 0.0
C400 C 0.20112 0.07394 0.75805 0.0
C401 C 0.28397 0.97373 0.75614 0.0
C402 C 0.28671 1.00465 0.72723 0.0
C403 C 0.25902 0.03634 0.72811 0.0
C404 C 0.31817 1.00477 0.69584 0.0
C405 C 0.3119 0.93811 0.75567 0.0
C406 C 0.35886 0.00664 0.70635 0.0
C407 C 0.38844 0.00698 0.67667 0.0
C408 C 0.37791 1.00574 0.6358 0.0
C409 C 0.337 1.0043 0.62544 0.0
C410 C 0.30746 1.00393 0.65518 0.0
H411 H 0.29946 0.91243 0.77287 0.0
H412 H 0.31799 0.92812 0.7245 0.0
H413 H 0.34084 0.94673 0.76963 0.0
H414 H 0.36774 0.00816 0.73755 0.0
H415 H 0.41955 0.00837 0.68589 0.0
H416 H 0.01023 0.41929 0.68592 0.0
H417 H 0.01095 0.36733 0.73751 0.0
H418 H 1.004 0.276 0.64627 0.0
H419 H 1.00375 0.32751 0.59433 0.0
H420 H 0.95338 0.30834 0.75313 0.0
H421 H 0.10004 0.2401 0.71371 0.0
H422 H 0.08453 0.28855 0.69517 0.0
H423 H 0.06541 0.24347 0.67262 0.0
C424 C 0.00899 0.38818 0.67666 0.0
C425 C 0.00714 0.37771 0.6358 0.0
C426 C 0.00939 0.35852 0.70627 0.0
C427 C 0.00816 0.31783 0.69568 0.0
C428 C 1.00584 0.30722 0.65505 0.0
H429 H 1.00326 0.09428 0.82818 0.0
H430 H 1.00278 0.14652 0.77688 0.0
C431 C 1.00549 0.33681 0.62539 0.0
C432 C 0.00832 0.28651 0.7272 0.0
H433 H 0.06051 0.20543 0.76168 0.0
C434 C 0.97689 0.28594 0.75517 0.0
C435 C 0.03901 0.25732 0.72968 0.0
C436 C 0.07438 0.25746 0.70145 0.0
C437 C 0.9749 0.25647 0.78516 0.0
C438 C 1.00556 0.22725 0.7876 0.0
C439 C 0.03702 0.22785 0.75966 0.0
C440 C 1.00561 0.19578 0.81898 0.0
C441 C 0.93953 0.25633 0.81338 0.0
C442 C 0.00786 0.20617 0.85967 0.0
C443 C 0.00807 0.17641 0.88917 0.0
C444 C 0.00633 0.13557 0.87853 0.0
C445 C 1.00455 0.12533 0.83761 0.0
C446 C 1.0043 0.15515 0.80816 0.0
H447 H 0.91392 0.27381 0.80119 0.0
H448 H 0.92929 0.22524 0.81953 0.0
H449 H 0.94854 0.27017 0.84227 0.0
H450 H 0.00976 0.23734 0.86862 0.0
H451 H 0.00976 0.18553 0.92029 0.0
H452 H 0.59396 0.01042 0.68563 0.0
H453 H 0.64603 0.01108 0.73709 0.0
H454 H 0.73706 1.00239 0.64573 0.0
H455 H 0.68542 1.0022 0.5939 0.0
H456 H 0.70445 0.95317 0.75324 0.0
H457 H 0.77403 0.09873 0.7121 0.0
H458 H 0.72543 0.08349 0.69377 0.0
H459 H 0.7703 0.06365 0.67143 0.0
C460 C 0.62502 0.00877 0.67632 0.0
C461 C 0.63537 0.00647 0.63545 0.0
C462 C 0.65475 0.00914 0.70586 0.0
C463 C 0.69539 0.00741 0.69519 0.0
C464 C 0.70589 1.00463 0.65456 0.0
H465 H 0.91881 1.00238 0.82805 0.0
H466 H 0.86667 1.00164 0.77665 0.0
C467 C 0.67622 1.00431 0.62496 0.0
C468 C 0.72677 0.00761 0.72667 0.0
H469 H 0.80826 0.0595 0.7606 0.0
C470 C 0.72705 0.9765 0.75501 0.0
C471 C 0.75623 0.03806 0.72879 0.0
C472 C 0.75642 0.0731 0.70015 0.0
C473 C 0.75648 0.97461 0.78505 0.0
C474 C 0.78595 1.00506 0.78717 0.0
C475 C 0.78566 0.03617 0.75883 0.0
C476 C 0.81736 1.00525 0.81861 0.0
C477 C 0.75629 0.93958 0.8137 0.0
C478 C 0.80691 0.00802 0.85925 0.0
C479 C 0.83661 0.00838 0.88881 0.0
C480 C 0.87745 0.00628 0.87828 0.0
C481 C 0.88775 1.00399 0.8374 0.0
C482 C 0.85799 1.00357 0.8079 0.0
H483 H 0.73866 0.91394 0.80176 0.0
H484 H 0.78727 0.92918 0.82008 0.0
H485 H 0.74242 0.94903 0.84243 0.0
H486 H 0.77575 0.01022 0.86812 0.0
H487 H 0.82745 0.01048 0.91989 0.0
H488 H 0.41903 0.32733 1.00373 0.0
H489 H 0.36695 0.27586 1.00309 0.0
H490 H 0.27585 0.36739 0.00936 0.0
H491 H 0.32749 0.41921 0.00954 0.0
H492 H 0.30775 0.26072 0.06062 0.0
H493 H 0.24011 0.29949 0.9135 0.0
H494 H 0.28857 0.31796 0.92905 0.0
H495 H 0.24352 0.34075 0.94795 0.0
C496 C 0.38795 0.33668 1.00484 0.0
C497 C 0.37758 0.37758 0.00648 0.0
C498 C 0.35822 0.30713 1.00448 0.0
C499 C 0.31756 0.31784 1.00555 0.0
C500 C 0.30705 0.35852 0.00765 0.0
H501 H 0.09405 0.18512 0.01016 0.0
H502 H 0.14617 0.23655 0.01073 0.0
C503 C 0.33671 0.38811 0.00797 0.0
C504 C 0.28618 0.28638 1.00545 0.0
H505 H 0.20535 0.25163 0.95306 0.0
C506 C 0.28546 0.25857 0.03703 0.0
C507 C 0.25713 0.28376 0.97465 0.0
C508 C 0.25744 0.31183 0.93915 0.0
C509 C 0.25598 0.22858 0.03902 0.0
C510 C 0.22692 0.22597 0.00823 0.0
C511 C 0.22765 0.25378 0.97665 0.0
C512 C 0.19552 0.19453 0.00815 0.0
C513 C 0.25567 0.20052 0.07452 0.0
C514 C 0.206 0.15385 1.00603 0.0
C515 C 0.1763 0.12427 1.00575 0.0
C516 C 0.13545 0.13483 0.00732 0.0
C517 C 0.12512 0.17575 0.009 0.0
C518 C 0.15487 0.20527 0.00931 0.0
H519 H 0.27304 0.21283 0.10015 0.0
H520 H 0.22454 0.19443 0.08465 0.0
H521 H 0.26953 0.17158 0.06571 0.0
H522 H 0.23718 0.14495 1.00427 0.0
H523 H 0.18549 0.09316 1.00416 0.0
H524 H 0.41858 0.68481 0.01572 0.0
H525 H 0.36636 0.73619 0.01636 0.0
H526 H 0.27622 0.64534 0.99802 0.0
H527 H 0.32796 0.59361 0.99786 0.0
H528 H 0.31144 0.75569 0.95678 0.0
H529 H 0.23333 0.70611 0.09513 0.0
H530 H 0.28267 0.68838 0.08164 0.0
H531 H 0.23892 0.66753 0.058 0.0
C532 C 0.38766 0.67561 0.01191 0.0
C533 C 0.37756 0.63491 0.00697 0.0
C534 C 0.35785 0.70509 0.01231 0.0
C535 C 0.31738 0.69451 0.0079 0.0
C536 C 0.30719 0.65406 1.00241 0.0
H537 H 0.09411 0.82764 0.99756 0.0
H538 H 0.14629 0.77622 0.997 0.0
C539 C 0.33692 0.62453 1.00214 0.0
C540 C 0.28592 0.72592 0.00805 0.0
H541 H 0.20121 0.75667 0.05667 0.0
C542 C 0.28743 0.75605 0.97872 0.0
C543 C 0.25461 0.72622 0.03667 0.0
C544 C 0.25235 0.69556 0.06989 0.0
C545 C 0.25804 0.78614 0.97677 0.0
C546 C 0.22673 0.78644 1.00539 0.0
C547 C 0.22522 0.7563 0.03473 0.0
C548 C 0.19529 0.81786 1.00554 0.0
C549 C 0.2603 0.81679 0.94356 0.0
C550 C 0.2055 0.8583 0.01105 0.0
C551 C 0.17579 0.88785 0.01128 0.0
C552 C 0.13515 0.8775 0.00637 0.0
C553 C 0.12502 0.83681 1.00141 0.0
C554 C 0.15481 0.80731 1.00107 0.0
H555 H 0.27933 0.80625 0.91832 0.0
H556 H 0.22998 0.82397 0.9318 0.0
H557 H 0.27371 0.84483 0.95545 0.0
H558 H 0.23647 0.86699 0.0155 0.0
H559 H 0.18477 0.91876 0.01557 0.0
H560 H 0.68524 0.41881 1.00163 0.0
H561 H 0.73672 0.36671 1.00101 0.0
H562 H 0.64546 0.27578 0.01183 0.0
H563 H 0.59363 0.32742 0.01197 0.0
H564 H 0.7536 0.30914 0.05936 0.0
H565 H 0.71066 0.23741 0.91538 0.0
H566 H 0.69243 0.28619 0.93018 0.0
H567 H 0.67041 0.24155 0.95089 0.0
C568 C 0.67596 0.38776 1.00375 0.0
C569 C 0.63512 0.37743 0.00663 0.0
C570 C 0.7055 0.35802 1.0034 0.0
C571 C 0.69486 0.31739 1.00574 0.0
C572 C 0.65427 0.30693 0.00911 0.0
H573 H 0.82778 0.09397 0.01247 0.0
H574 H 0.77637 0.14612 0.01305 0.0
C575 C 0.62467 0.3366 0.00939 0.0
C576 C 0.72634 0.28601 1.0056 0.0
H577 H 0.75957 0.20368 0.95456 0.0
C578 C 0.75506 0.28618 0.03636 0.0
C579 C 0.72807 0.25607 0.97559 0.0
C580 C 0.69899 0.25536 0.94091 0.0
C581 C 0.78511 0.25675 0.03833 0.0
C582 C 0.78683 0.22681 0.00832 0.0
C583 C 0.75811 0.22664 0.97756 0.0
C584 C 0.81827 0.1954 0.00821 0.0
C585 C 0.81419 0.25747 0.07299 0.0
C586 C 0.85887 0.20581 1.0048 0.0
C587 C 0.88844 0.1761 1.00454 0.0
C588 C 0.87794 0.13529 0.00736 0.0
C589 C 0.8371 0.12501 0.01029 0.0
C590 C 0.80759 0.15478 0.01062 0.0
H591 H 0.80256 0.27547 0.0985 0.0
H592 H 0.82071 0.22664 0.08376 0.0
H593 H 0.84279 0.27121 0.06298 0.0
H594 H 0.86771 0.23694 1.00203 0.0
H595 H 0.91949 0.18524 1.00192 0.0
H596 H 0.91877 0.82749 1.00256 0.0
H597 H 0.86658 0.77611 1.00187 0.0
H598 H 0.77571 0.86772 0.00984 0.0
H599 H 0.82745 0.91945 0.01006 0.0
H600 H 0.80798 0.76043 0.05972 0.0
H601 H 0.73878 0.80087 0.9138 0.0
H602 H 0.78739 0.81919 0.92904 0.0
H603 H 0.74254 0.84174 0.94866 0.0
C604 C 0.88771 0.83687 1.00403 0.0
C605 C 0.87744 0.87778 0.00616 0.0
C606 C 0.85792 0.80738 1.00365 0.0
C607 C 0.81729 0.81814 1.00518 0.0
C608 C 0.80687 0.85881 0.00776 0.0
H609 H 0.59375 0.68522 0.01055 0.0
H610 H 0.64581 0.73673 0.01107 0.0
C611 C 0.8366 0.88835 0.0081 0.0
C612 C 0.78585 0.78672 1.00508 0.0
H613 H 0.70442 0.75259 0.9532 0.0
C614 C 0.78544 0.75856 0.03635 0.0
C615 C 0.75645 0.78447 0.97458 0.0
C616 C 0.75637 0.81293 0.9394 0.0
C617 C 0.75596 0.72857 0.03834 0.0
C618 C 0.72657 0.7263 0.00783 0.0
C619 C 0.72697 0.75447 0.97657 0.0
C620 C 0.69519 0.69482 0.00771 0.0
C621 C 0.75602 0.70013 0.07354 0.0
C622 C 0.70571 0.65416 1.00514 0.0
C623 C 0.67605 0.62455 1.0049 0.0
C624 C 0.6352 0.63502 0.00693 0.0
C625 C 0.62482 0.67591 0.00902 0.0
C626 C 0.65454 0.70548 0.0093 0.0
H627 H 0.77358 0.71221 0.09915 0.0
H628 H 0.725 0.69385 0.08387 0.0
H629 H 0.76989 0.67132 0.0643 0.0
H630 H 0.73689 0.64533 1.00301 0.0
H631 H 0.68527 0.59346 1.00295 0.0
H632 H 0.6852 0.51266 0.91935 0.0
H633 H 0.7367 0.51337 0.8673 0.0
H634 H 0.64566 0.50032 0.77646 0.0
H635 H 0.59379 0.50009 0.82806 0.0
H636 H 0.75456 0.45474 0.81052 0.0
H637 H 0.70948 0.59707 0.73686 0.0
H638 H 0.69133 0.5826 0.78576 0.0
H639 H 0.66977 0.56099 0.74132 0.0
C640 C 0.67597 0.51005 0.88833 0.0
C641 C 0.63518 0.50654 0.87801 0.0
C642 C 0.70553 0.51047 0.85861 0.0
C643 C 0.69496 0.50755 0.81801 0.0
C644 C 0.65441 0.50352 0.80757 0.0
H645 H 0.82793 0.49985 0.59472 0.0
H646 H 0.77658 0.49932 0.64691 0.0
C647 C 0.62479 0.50319 0.83722 0.0
C648 C 0.72646 0.50774 0.78665 0.0
H649 H 0.75895 0.55813 0.70365 0.0
C650 C 0.75567 0.47744 0.78725 0.0
C651 C 0.72775 0.53736 0.7563 0.0
C652 C 0.69815 0.57158 0.75509 0.0
C653 C 0.78577 0.47552 0.75788 0.0
C654 C 0.78704 0.50513 0.72752 0.0
C655 C 0.75784 0.53544 0.72692 0.0
C656 C 0.81846 0.50525 0.69608 0.0
C657 C 0.81537 0.44131 0.75909 0.0
C658 C 0.85904 0.50926 0.70639 0.0
C659 C 0.88858 0.50948 0.67666 0.0
C660 C 0.87807 0.50603 0.63591 0.0
C661 C 0.83725 0.50253 0.62571 0.0
C662 C 0.80777 0.50222 0.65551 0.0
H663 H 0.8041 0.41586 0.7774 0.0
H664 H 0.8221 0.43022 0.72842 0.0
H665 H 0.84379 0.45193 0.77275 0.0
H666 H 0.86788 0.51253 0.73747 0.0
H667 H 0.9196 0.51258 0.68572 0.0
H668 H 0.0942 0.51035 0.68545 0.0
H669 H 0.14633 0.51079 0.73686 0.0
H670 H 0.23726 0.5026 0.64537 0.0
H671 H 0.18557 0.50262 0.59359 0.0
H672 H 0.20483 0.45277 0.75261 0.0
H673 H 0.2742 0.59867 0.71225 0.0
H674 H 0.22558 0.58349 0.69391 0.0
H675 H 0.27042 0.5638 0.67139 0.0
C676 C 0.12525 0.50878 0.6761 0.0
C677 C 0.13556 0.50667 0.63521 0.0
C678 C 0.15501 0.50901 0.70561 0.0
C679 C 0.19564 0.50735 0.6949 0.0
C680 C 0.2061 0.50478 0.65424 0.0
H681 H 0.41903 0.50207 0.82792 0.0
H682 H 0.36697 0.50137 0.77644 0.0
C683 C 0.1764 0.50459 0.62467 0.0
C684 C 0.22704 0.5074 0.72635 0.0
H685 H 0.30844 0.55926 0.76058 0.0
C686 C 0.22739 0.47613 0.75451 0.0
C687 C 0.25646 0.53789 0.72864 0.0
C688 C 0.25659 0.57308 0.70019 0.0
C689 C 0.25682 0.47413 0.78455 0.0
C690 C 0.28623 0.50463 0.78685 0.0
C691 C 0.28588 0.53589 0.75868 0.0
C692 C 0.31759 0.50474 0.81833 0.0
C693 C 0.25669 0.43894 0.81301 0.0
C694 C 0.30707 0.50735 0.85897 0.0
C695 C 0.33673 0.50769 0.88858 0.0
C696 C 0.37759 0.50573 0.8781 0.0
C697 C 0.38796 0.50357 0.83723 0.0
C698 C 0.35824 0.50318 0.80768 0.0
H699 H 0.23913 0.41334 0.80092 0.0
H700 H 0.2877 0.42858 0.81933 0.0
H701 H 0.2428 0.44822 0.84178 0.0
H702 H 0.27589 0.50945 0.8678 0.0
H703 H 0.32752 0.50969 0.91965 0.0
H704 H 0.18514 0.5108 0.41902 0.0
H705 H 0.23652 0.51153 0.36686 0.0
H706 H 0.14502 0.50232 0.27601 0.0
H707 H 0.09328 0.50206 0.32772 0.0
H708 H 0.25271 0.45348 0.30861 0.0
H709 H 0.21107 0.59869 0.23857 0.0
H710 H 0.19284 0.58357 0.28724 0.0
H711 H 0.1705 0.5635 0.24248 0.0
C712 C 0.17578 0.50906 0.38797 0.0
C713 C 0.1349 0.50658 0.37769 0.0
C714 C 0.20527 0.50947 0.3582 0.0
C715 C 0.19454 0.50761 0.31757 0.0
C716 C 0.1539 0.50466 0.30716 0.0
H717 H 0.32753 0.50209 0.09414 0.0
H718 H 0.27603 0.50148 0.14619 0.0
C719 C 0.12436 0.5043 0.33687 0.0
C720 C 0.22597 0.50778 0.28615 0.0
H721 H 0.25967 0.55948 0.20445 0.0
C722 C 0.25439 0.47674 0.28593 0.0
C723 C 0.22797 0.53813 0.25658 0.0
C724 C 0.19921 0.57308 0.25629 0.0
C725 C 0.2844 0.47482 0.25648 0.0
C726 C 0.28642 0.50518 0.22692 0.0
C727 C 0.25799 0.53622 0.22713 0.0
C728 C 0.3179 0.50538 0.19556 0.0
C729 C 0.31314 0.43986 0.25677 0.0
C730 C 0.35852 0.50829 0.20606 0.0
C731 C 0.38813 0.50858 0.17642 0.0
C732 C 0.37768 0.50627 0.13557 0.0
C733 C 0.33681 0.50386 0.1252 0.0
C734 C 0.30725 0.50352 0.15491 0.0
H735 H 0.30125 0.41423 0.27443 0.0
H736 H 0.31956 0.42941 0.22581 0.0
H737 H 0.34184 0.44941 0.27064 0.0
H738 H 0.36734 0.51064 0.23723 0.0
H739 H 0.41919 0.51079 0.18563 0.0
H740 H 0.68528 0.50106 0.09442 0.0
H741 H 0.73665 0.5004 0.14663 0.0
H742 H 0.64519 0.51119 0.23733 0.0
H743 H 0.59348 0.51137 0.1856 0.0
H744 H 0.7534 0.55871 0.20437 0.0
H745 H 0.71024 0.41463 0.27574 0.0
H746 H 0.69215 0.42949 0.22693 0.0
H747 H 0.67 0.45016 0.27152 0.0
C748 C 0.67594 0.50317 0.12545 0.0
C749 C 0.63508 0.50604 0.13569 0.0
C750 C 0.70542 0.5028 0.15525 0.0
C751 C 0.69469 0.5051 0.19585 0.0
C752 C 0.65407 0.50848 0.20621 0.0
H753 H 0.8274 0.51132 0.41954 0.0
H754 H 0.77594 0.51203 0.36742 0.0
C755 C 0.62454 0.50879 0.17648 0.0
C756 C 0.72608 0.50492 0.22732 0.0
H757 H 0.75906 0.45376 0.30966 0.0
C758 C 0.7548 0.53568 0.22729 0.0
C759 C 0.72771 0.47486 0.25722 0.0
C760 C 0.69862 0.44019 0.2578 0.0
C761 C 0.78475 0.53761 0.25681 0.0
C762 C 0.78639 0.50755 0.28671 0.0
C763 C 0.75766 0.47679 0.28674 0.0
C764 C 0.81782 0.50733 0.31813 0.0
C765 C 0.81384 0.57228 0.25623 0.0
C766 C 0.85842 0.50392 0.3077 0.0
C767 C 0.888 0.50358 0.33738 0.0
C768 C 0.87753 0.50632 0.37819 0.0
C769 C 0.83669 0.50921 0.3885 0.0
C770 C 0.80716 0.50962 0.35875 0.0
H771 H 0.8022 0.59785 0.23832 0.0
H772 H 0.82034 0.58295 0.2871 0.0
H773 H 0.84244 0.56231 0.24247 0.0
H774 H 0.86724 0.50122 0.27656 0.0
H775 H 0.91904 0.50098 0.32821 0.0
H776 H 0.32792 0.91848 0.51306 0.0
H777 H 0.2765 0.86635 0.51374 0.0
H778 H 0.36772 0.77558 0.50115 0.0
H779 H 0.41951 0.82728 0.50094 0.0
H780 H 0.25908 0.80941 0.45503 0.0
H781 H 0.30348 0.73613 0.59776 0.0
H782 H 0.3216 0.78506 0.58331 0.0
H783 H 0.34335 0.74063 0.56186 0.0
C784 C 0.33721 0.88746 0.51055 0.0
C785 C 0.37802 0.87719 0.50716 0.0
C786 C 0.3077 0.85769 0.51094 0.0
C787 C 0.31834 0.8171 0.50813 0.0
C788 C 0.35892 0.8067 0.50426 0.0
H789 H 0.1851 0.59389 0.50056 0.0
H790 H 0.23658 0.64596 0.50006 0.0
C791 C 0.38848 0.8364 0.50394 0.0
C792 C 0.28688 0.7857 0.50825 0.0
H793 H 0.25408 0.7029 0.55878 0.0
C794 C 0.25783 0.78621 0.4778 0.0
C795 C 0.28544 0.75546 0.53796 0.0
C796 C 0.31489 0.75435 0.57231 0.0
C797 C 0.22772 0.75685 0.47584 0.0
C798 C 0.22627 0.72662 0.50556 0.0
C799 C 0.25532 0.7261 0.53601 0.0
C800 C 0.19478 0.69525 0.50567 0.0
C801 C 0.19829 0.75796 0.44148 0.0
C802 C 0.15421 0.70568 0.50949 0.0
C803 C 0.12461 0.67602 0.5097 0.0
C804 C 0.13503 0.63522 0.50642 0.0
C805 C 0.17584 0.62491 0.5031 0.0
C806 C 0.20539 0.65464 0.50282 0.0
H807 H 0.20972 0.77615 0.41602 0.0
H808 H 0.19157 0.72724 0.4305 0.0
H809 H 0.16984 0.7717 0.4519 0.0
H810 H 0.14544 0.7368 0.51262 0.0
H811 H 0.09359 0.68517 0.51265 0.0
H812 H 0.09399 0.32744 0.51021 0.0
H813 H 0.14605 0.27595 0.51083 0.0
H814 H 0.23715 0.36739 0.50363 0.0
H815 H 0.18551 0.41926 0.50348 0.0
H816 H 0.20499 0.26041 0.45312 0.0
H817 H 0.27322 0.30004 0.59975 0.0
H818 H 0.22471 0.31845 0.58428 0.0
H819 H 0.26969 0.34108 0.56507 0.0
C820 C 0.12506 0.33677 0.50889 0.0
C821 C 0.13543 0.37767 0.507 0.0
C822 C 0.15478 0.30721 0.50923 0.0
C823 C 0.19543 0.31789 0.50789 0.0
C824 C 0.20595 0.35855 0.50554 0.0
H825 H 0.41882 0.185 0.50349 0.0
H826 H 0.3667 0.23643 0.50277 0.0
C827 C 0.17629 0.38816 0.50524 0.0
C828 C 0.22679 0.2864 0.50805 0.0
H829 H 0.30775 0.25188 0.56037 0.0
C830 C 0.22737 0.25839 0.47665 0.0
C831 C 0.25595 0.28394 0.53876 0.0
C832 C 0.2558 0.31223 0.57409 0.0
C833 C 0.2568 0.22834 0.47473 0.0
C834 C 0.28597 0.22589 0.50544 0.0
C835 C 0.28538 0.2539 0.53685 0.0
C836 C 0.31735 0.19443 0.50559 0.0
C837 C 0.25694 0.20005 0.43941 0.0
C838 C 0.30688 0.15376 0.50791 0.0
C839 C 0.33657 0.12418 0.50826 0.0
C840 C 0.37743 0.13473 0.5066 0.0
C841 C 0.38775 0.17564 0.50474 0.0
C842 C 0.358 0.20516 0.50435 0.0
H843 H 0.23953 0.21224 0.41375 0.0
H844 H 0.28803 0.19381 0.42922 0.0
H845 H 0.24303 0.1712 0.44843 0.0
H846 H 0.27569 0.14488 0.50976 0.0
H847 H 0.32739 0.09308 0.51 0.0
H848 H 0.91898 0.68512 0.50588 0.0
H849 H 0.86693 0.73662 0.50643 0.0
H850 H 0.77572 0.64504 0.50807 0.0
H851 H 0.82735 0.59317 0.50798 0.0
H852 H 0.80493 0.74897 0.45061 0.0
H853 H 0.74465 0.71749 0.6026 0.0
H854 H 0.79245 0.6985 0.58571 0.0
H855 H 0.74674 0.67462 0.57006 0.0
C856 C 0.88789 0.67577 0.50652 0.0
C857 C 0.87749 0.63483 0.50709 0.0
C858 C 0.85818 0.70533 0.50679 0.0
C859 C 0.81753 0.69464 0.50789 0.0
C860 C 0.80696 0.65392 0.50803 0.0
H861 H 0.59403 0.8274 0.50747 0.0
H862 H 0.6461 0.77591 0.5068 0.0
C863 C 0.83661 0.6243 0.50775 0.0
C864 C 0.78617 0.72611 0.50799 0.0
H865 H 0.7081 0.76359 0.56261 0.0
C866 C 0.78385 0.75234 0.47515 0.0
C867 C 0.75872 0.73031 0.54004 0.0
C868 C 0.76084 0.704 0.5768 0.0
C869 C 0.75431 0.78227 0.47318 0.0
C870 C 0.72685 0.78645 0.50523 0.0
C871 C 0.72918 0.76024 0.53806 0.0
C872 C 0.69548 0.81792 0.50533 0.0
C873 C 0.75219 0.80857 0.43643 0.0
C874 C 0.70604 0.85864 0.5052 0.0
C875 C 0.67637 0.88825 0.50555 0.0
C876 C 0.63549 0.8777 0.50626 0.0
C877 C 0.62511 0.83676 0.50679 0.0
C878 C 0.65484 0.80721 0.50646 0.0
H879 H 0.76839 0.79509 0.41062 0.0
H880 H 0.72058 0.81407 0.42751 0.0
H881 H 0.76628 0.83795 0.44317 0.0
H882 H 0.73727 0.86754 0.50514 0.0
H883 H 0.68561 0.91938 0.50533 0.0
H884 H 0.68518 0.09382 0.51125 0.0
H885 H 0.73664 0.1459 0.51187 0.0
H886 H 0.64527 0.23693 0.50289 0.0
H887 H 0.59344 0.18528 0.50273 0.0
H888 H 0.7528 0.20419 0.45383 0.0
H889 H 0.71159 0.27413 0.5992 0.0
H890 H 0.69328 0.22548 0.58406 0.0
H891 H 0.67093 0.27029 0.5641 0.0
C892 C 0.67586 0.12489 0.50953 0.0
C893 C 0.63499 0.13523 0.50715 0.0
C894 C 0.7054 0.15462 0.50988 0.0
C895 C 0.69474 0.19526 0.50805 0.0
C896 C 0.6541 0.20576 0.5052 0.0
H897 H 0.82772 0.41864 0.50272 0.0
H898 H 0.77628 0.36653 0.50204 0.0
C899 C 0.62451 0.17608 0.50491 0.0
C900 C 0.72621 0.22664 0.5082 0.0
H901 H 0.76015 0.30823 0.55995 0.0
C902 C 0.75457 0.22685 0.47711 0.0
C903 C 0.72833 0.25617 0.53859 0.0
C904 C 0.69966 0.25644 0.5736 0.0
C905 C 0.78462 0.25626 0.47518 0.0
C906 C 0.78674 0.28579 0.50557 0.0
C907 C 0.75839 0.28558 0.53667 0.0
C908 C 0.81821 0.31718 0.50572 0.0
C909 C 0.81329 0.25598 0.44017 0.0
C910 C 0.85885 0.3067 0.50852 0.0
C911 C 0.88843 0.33638 0.50885 0.0
C912 C 0.87793 0.37723 0.50669 0.0
C913 C 0.83705 0.38757 0.50437 0.0
C914 C 0.80752 0.35782 0.50399 0.0
H915 H 0.80134 0.23832 0.41456 0.0
H916 H 0.8197 0.28695 0.42973 0.0
H917 H 0.842 0.24209 0.44965 0.0
H918 H 0.8677 0.27552 0.51077 0.0
H919 H 0.91951 0.32719 0.51097 0.0
H920 H 0.50562 0.41866 0.82793 0.0
H921 H 0.50512 0.3665 0.77652 0.0
H922 H 0.50745 0.27543 0.86823 0.0
H923 H 0.50749 0.32716 0.91998 0.0
H924 H 0.56188 0.30576 0.76291 0.0
H925 H 0.41212 0.24203 0.79811 0.0
H926 H 0.42839 0.29021 0.81672 0.0
H927 H 0.44562 0.24484 0.84018 0.0
C928 C 0.50588 0.38758 0.83732 0.0
C929 C 0.50639 0.37724 0.87826 0.0
C930 C 0.50563 0.3578 0.80782 0.0
C931 C 0.50564 0.31715 0.81859 0.0
C932 C 0.5066 0.30665 0.85929 0.0
H933 H 0.50764 0.09344 0.68589 0.0
H934 H 0.50847 0.14549 0.73741 0.0
C935 C 0.50684 0.33636 0.88885 0.0
C936 C 0.50553 0.28572 0.78718 0.0
H937 H 0.45187 0.20627 0.75119 0.0
C938 C 0.53777 0.2841 0.76019 0.0
C939 C 0.47404 0.25749 0.78382 0.0
C940 C 0.43787 0.2588 0.81099 0.0
C941 C 0.53972 0.25453 0.73028 0.0
C942 C 0.50822 0.22631 0.72692 0.0
C943 C 0.47599 0.22792 0.75392 0.0
C944 C 0.50804 0.19494 0.69545 0.0
C945 C 0.57587 0.25323 0.7031 0.0
C946 C 0.50703 0.20553 0.65477 0.0
C947 C 0.5066 0.17588 0.62515 0.0
C948 C 0.5069 0.13497 0.63565 0.0
C949 C 0.50749 0.12455 0.67656 0.0
C950 C 0.50793 0.15426 0.70613 0.0
H951 H 0.60165 0.26993 0.71601 0.0
H952 H 0.58532 0.22182 0.69729 0.0
H953 H 0.56814 0.26726 0.67394 0.0
H954 H 0.50627 0.23677 0.6459 0.0
H955 H 0.50591 0.18516 0.59404 0.0
H956 H 0.50916 0.8272 0.5937 0.0
H957 H 0.50887 0.7755 0.64545 0.0
H958 H 0.50294 0.86653 0.73705 0.0
H959 H 0.50369 0.91868 0.68565 0.0
H960 H 0.56037 0.80708 0.75205 0.0
H961 H 0.41295 0.74 0.71339 0.0
H962 H 0.44735 0.74336 0.67211 0.0
H963 H 0.42862 0.78844 0.69499 0.0
C964 C 0.50765 0.8364 0.6248 0.0
C965 C 0.50628 0.87727 0.63537 0.0
C966 C 0.50727 0.80669 0.65436 0.0
C967 C 0.50523 0.81717 0.69503 0.0
C968 C 0.50429 0.85783 0.70578 0.0
H969 H 0.50379 0.68513 0.9196 0.0
H970 H 0.50396 0.73677 0.86778 0.0
C971 C 0.5047 0.8876 0.67628 0.0
C972 C 0.50507 0.78575 0.72645 0.0
H973 H 0.45244 0.70507 0.76119 0.0
C974 C 0.53669 0.78487 0.75421 0.0
C975 C 0.47417 0.7568 0.72908 0.0
C976 C 0.43863 0.75726 0.70106 0.0
C977 C 0.53863 0.75535 0.78415 0.0
C978 C 0.50773 0.72641 0.78679 0.0
C979 C 0.47611 0.72728 0.75903 0.0
C980 C 0.50756 0.69502 0.81824 0.0
C981 C 0.57419 0.75489 0.81215 0.0
C982 C 0.50851 0.65435 0.80755 0.0
C983 C 0.50816 0.62462 0.8371 0.0
C984 C 0.50664 0.63501 0.878 0.0
C985 C 0.50526 0.67589 0.88851 0.0
C986 C 0.50557 0.70556 0.85891 0.0
H987 H 0.59988 0.77211 0.79978 0.0
H988 H 0.5655 0.76883 0.84108 0.0
H989 H 0.58417 0.72371 0.81825 0.0
H990 H 0.50982 0.64561 0.77629 0.0
H991 H 0.50918 0.59353 0.82777 0.0
H992 H 0.50449 0.68538 0.09361 0.0
H993 H 0.50468 0.73711 0.14535 0.0
H994 H 0.50946 0.64609 0.23702 0.0
H995 H 0.50882 0.59392 0.18563 0.0
H996 H 0.45218 0.70595 0.25147 0.0
H997 H 0.6004 0.77196 0.21408 0.0
H998 H 0.56632 0.76873 0.17252 0.0
H999 H 0.58457 0.72358 0.19562 0.0
C1000 C 0.50573 0.67619 0.12472 0.0
C1001 C 0.50681 0.63532 0.13531 0.0
C1002 C 0.50605 0.70591 0.15427 0.0
C1003 C 0.50773 0.69543 0.19496 0.0
C1004 C 0.50839 0.65478 0.20573 0.0
H1005 H 0.50848 0.82739 0.41956 0.0
H1006 H 0.5083 0.77577 0.3677 0.0
C1007 C 0.50805 0.625 0.17624 0.0
C1008 C 0.50785 0.72686 0.22637 0.0
H1009 H 0.56081 0.80712 0.2616 0.0
C1010 C 0.476 0.72797 0.25385 0.0
C1011 C 0.53895 0.75557 0.22927 0.0
C1012 C 0.57471 0.75484 0.20156 0.0
C1013 C 0.47404 0.75749 0.2838 0.0
C1014 C 0.50514 0.78619 0.28671 0.0
C1015 C 0.53699 0.78509 0.25922 0.0
C1016 C 0.5053 0.81756 0.31818 0.0
C1017 C 0.43827 0.75823 0.3115 0.0
C1018 C 0.50468 0.85824 0.3075 0.0
C1019 C 0.50502 0.88795 0.33706 0.0
C1020 C 0.50622 0.87754 0.37796 0.0
C1021 C 0.50727 0.83665 0.38846 0.0
C1022 C 0.50695 0.807 0.35885 0.0
H1023 H 0.41255 0.74117 0.29893 0.0
H1024 H 0.44663 0.74426 0.34051 0.0
H1025 H 0.42845 0.78949 0.3175 0.0
H1026 H 0.50363 0.86699 0.27623 0.0
H1027 H 0.50428 0.91905 0.32774 0.0
H1028 H 0.50434 0.09394 0.32795 0.0
H1029 H 0.50492 0.1461 0.27655 0.0
H1030 H 0.50855 0.23712 0.36828 0.0
H1031 H 0.50844 0.18538 0.42001 0.0
H1032 H 0.44959 0.20888 0.265 0.0
H1033 H 0.60269 0.26723 0.29485 0.0
H1034 H 0.58547 0.21955 0.31386 0.0
H1035 H 0.57063 0.26536 0.33808 0.0
C1036 C 0.50543 0.12501 0.33735 0.0
C1037 C 0.50654 0.13532 0.37828 0.0
C1038 C 0.50571 0.15479 0.30785 0.0
C1039 C 0.50737 0.19541 0.31861 0.0
C1040 C 0.50806 0.2059 0.35933 0.0
H1041 H 0.50812 0.41915 0.18592 0.0
H1042 H 0.50738 0.36716 0.23749 0.0
C1043 C 0.50776 0.17619 0.38888 0.0
C1044 C 0.50748 0.22685 0.28721 0.0
H1045 H 0.56263 0.30435 0.24928 0.0
C1046 C 0.47436 0.22966 0.2614 0.0
C1047 C 0.53982 0.25393 0.28272 0.0
C1048 C 0.57686 0.25129 0.30858 0.0
C1049 C 0.47239 0.25931 0.23158 0.0
C1050 C 0.50475 0.28637 0.22706 0.0
C1051 C 0.53786 0.28358 0.25289 0.0
C1052 C 0.50492 0.31772 0.19558 0.0
C1053 C 0.43535 0.26195 0.20572 0.0
C1054 C 0.50426 0.3071 0.15489 0.0
C1055 C 0.50466 0.33672 0.12525 0.0
C1056 C 0.50592 0.37762 0.13572 0.0
C1057 C 0.50699 0.38806 0.17662 0.0
C1058 C 0.50662 0.35837 0.20622 0.0
H1059 H 0.4095 0.24608 0.21949 0.0
H1060 H 0.42679 0.29369 0.20038 0.0
H1061 H 0.44156 0.24781 0.17625 0.0
H1062 H 0.50374 0.27585 0.14604 0.0
H1063 H 0.50401 0.32742 0.09414 0.0
loop_
_geom_bond_atom_site_label_1
_geom_bond_atom_site_label_2
_geom_bond_distance
_geom_bond_site_symmetry_2
_ccdc_geom_bond_type
C0 O26 1.283 . S
C0 O44 1.283 . S
C1 O27 1.283 . S
C1 O42 1.283 . S
C2 O28 1.283 . S
C2 O45 1.283 . S
C3 O29 1.283 . S
C3 O43 1.283 . S
C4 O30 1.283 . S
C4 O39 1.283 . S
C5 O31 1.283 . S
C5 O41 1.283 . S
C6 O32 1.283 . S
C6 O38 1.283 . S
C7 O33 1.283 . S
C7 O40 1.283 . S
C8 O34 1.283 . S
C8 O49 1.283 . S
C9 O35 1.283 . S
C9 O47 1.283 . S
C10 O36 1.283 . S
C10 O48 1.283 . S
C11 O37 1.283 . S
C11 O46 1.283 . S
Eu12 O13 2.370 1_454 S
Eu12 O14 2.370 . S
Eu12 O17 2.370 1_455 S
Eu12 O18 2.370 1_554 S
Eu12 O26 2.363 . S
Eu12 O27 2.363 1_554 S
Eu12 O40 2.363 . S
Eu12 O41 2.363 1_455 S
O13 Eu12 2.370 1_656 S
O13 Eu15 2.370 1_566 S
O13 Eu20 2.370 1_665 S
O14 Eu12 2.370 . S
O14 Eu16 2.370 1_565 S
O14 Eu19 2.370 1_565 S
Eu15 O13 2.370 1_544 S
Eu15 O17 2.370 1_545 S
Eu15 O21 2.370 . S
Eu15 O22 2.370 1_554 S
Eu15 O30 2.363 . S
Eu15 O31 2.363 1_545 S
Eu15 O46 2.363 . S
Eu15 O47 2.363 1_554 S
Eu16 O14 2.370 1_545 S
Eu16 O18 2.370 1_544 S
Eu16 O23 2.370 1_554 S
Eu16 O24 2.370 . S
Eu16 O32 2.363 . S
Eu16 O33 2.363 1_545 S
Eu16 O48 2.363 . S
Eu16 O49 2.363 1_554 S
O17 Eu12 2.370 1_655 S
O17 Eu15 2.370 1_565 S
O17 Eu19 2.370 1_665 S
O18 Eu12 2.370 1_556 S
O18 Eu16 2.370 1_566 S
O18 Eu20 2.370 1_565 S
Eu19 O14 2.370 1_545 S
Eu19 O17 2.370 1_445 S
Eu19 O21 2.370 1_455 S
Eu19 O24 2.370 . S
Eu19 O36 2.363 . S
Eu19 O37 2.363 1_455 S
Eu19 O44 2.363 1_545 S
Eu19 O45 2.363 . S
Eu20 O13 2.370 1_445 S
Eu20 O18 2.370 1_545 S
Eu20 O22 2.370 1_455 S
Eu20 O23 2.370 . S
Eu20 O34 2.363 . S
Eu20 O35 2.363 1_455 S
Eu20 O42 2.363 1_545 S
Eu20 O43 2.363 . S
O21 Eu15 2.370 . S
O21 Eu19 2.370 1_655 S
O21 Eu25 2.370 1_655 S
O22 Eu15 2.370 1_556 S
O22 Eu20 2.370 1_655 S
O22 Eu25 2.370 1_656 S
O23 Eu16 2.370 1_556 S
O23 Eu20 2.370 . S
O23 Eu25 2.370 1_556 S
O24 Eu16 2.370 . S
O24 Eu19 2.370 . S
O24 Eu25 2.370 . S
Eu25 O21 2.370 1_455 S
Eu25 O22 2.370 1_454 S
Eu25 O23 2.370 1_554 S
Eu25 O24 2.370 . S
Eu25 O28 2.363 . S
Eu25 O29 2.363 1_554 S
Eu25 O38 2.363 . S
Eu25 O39 2.363 1_455 S
O26 C0 1.283 . S
O26 Eu12 2.363 . S
O27 C1 1.283 . S
O27 Eu12 2.363 1_556 S
O28 C2 1.283 . S
O28 Eu25 2.363 . S
O29 C3 1.283 . S
O29 Eu25 2.363 1_556 S
O30 C4 1.283 . S
O30 Eu15 2.363 . S
O31 C5 1.283 . S
O31 Eu15 2.363 1_565 S
O32 C6 1.283 . S
O32 Eu16 2.363 . S
O33 C7 1.283 . S
O33 Eu16 2.363 1_565 S
O34 C8 1.283 . S
O34 Eu20 2.363 . S
O35 C9 1.283 . S
O35 Eu20 2.363 1_655 S
O36 C10 1.283 . S
O36 Eu19 2.363 . S
O37 C11 1.283 . S
O37 Eu19 2.363 1_655 S
O38 C6 1.283 . S
O38 Eu25 2.363 . S
O39 C4 1.283 . S
O39 Eu25 2.363 1_655 S
O40 C7 1.283 . S
O40 Eu12 2.363 . S
O41 C5 1.283 . S
O41 Eu12 2.363 1_655 S
O42 C1 1.283 . S
O42 Eu20 2.363 1_565 S
O43 C3 1.283 . S
O43 Eu20 2.363 . S
O44 C0 1.283 . S
O44 Eu19 2.363 1_565 S
O45 C2 1.283 . S
O45 Eu19 2.363 . S
O46 C11 1.283 . S
O46 Eu15 2.363 . S
O47 C9 1.283 . S
O47 Eu15 2.363 1_556 S
O48 C10 1.283 . S
O48 Eu16 2.363 . S
O49 C8 1.283 . S
O49 Eu16 2.363 1_556 S
C50 O76 1.283 . S
C50 O94 1.283 . S
C51 O77 1.283 . S
C51 O92 1.283 . S
C52 O78 1.283 . S
C52 O95 1.283 . S
C53 O79 1.283 . S
C53 O93 1.283 . S
C54 O80 1.283 . S
C54 O89 1.283 . S
C55 O81 1.283 . S
C55 O91 1.283 . S
C56 O82 1.283 . S
C56 O88 1.283 . S
C57 O83 1.283 . S
C57 O90 1.283 . S
C58 O84 1.283 . S
C58 O99 1.283 . S
C59 O85 1.283 . S
C59 O97 1.283 . S
C60 O86 1.283 . S
C60 O98 1.283 . S
C61 O87 1.283 . S
C61 O96 1.283 . S
Eu62 O63 2.370 . S
Eu62 O64 2.370 1_455 S
Eu62 O67 2.370 . S
Eu62 O68 2.370 1_455 S
Eu62 O76 2.363 . S
Eu62 O77 2.363 . S
Eu62 O90 2.363 1_455 S
Eu62 O91 2.363 . S
O63 Eu62 2.370 . S
O63 Eu65 2.370 . S
O63 Eu70 2.370 . S
O64 Eu62 2.370 1_655 S
O64 Eu66 2.370 . S
O64 Eu69 2.370 1_655 S
Eu65 O63 2.370 . S
Eu65 O67 2.370 . S
Eu65 O71 2.370 . S
Eu65 O72 2.370 . S
Eu65 O80 2.363 . S
Eu65 O81 2.363 . S
Eu65 O96 2.363 . S
Eu65 O97 2.363 . S
Eu66 O64 2.370 . S
Eu66 O68 2.370 . S
Eu66 O73 2.370 . S
Eu66 O74 2.370 . S
Eu66 O82 2.363 . S
Eu66 O83 2.363 . S
Eu66 O98 2.363 . S
Eu66 O99 2.363 . S
O67 Eu62 2.370 . S
O67 Eu65 2.370 . S
O67 Eu69 2.370 . S
O68 Eu62 2.370 1_655 S
O68 Eu66 2.370 . S
O68 Eu70 2.370 1_655 S
Eu69 O64 2.370 1_455 S
Eu69 O67 2.370 . S
Eu69 O71 2.370 . S
Eu69 O74 2.370 1_455 S
Eu69 O86 2.363 1_455 S
Eu69 O87 2.363 . S
Eu69 O94 2.363 . S
Eu69 O95 2.363 . S
Eu70 O63 2.370 . S
Eu70 O68 2.370 1_455 S
Eu70 O72 2.370 . S
Eu70 O73 2.370 1_455 S
Eu70 O84 2.363 1_455 S
Eu70 O85 2.363 . S
Eu70 O92 2.363 . S
Eu70 O93 2.363 . S
O71 Eu65 2.370 . S
O71 Eu69 2.370 . S
O71 Eu75 2.370 . S
O72 Eu65 2.370 . S
O72 Eu70 2.370 . S
O72 Eu75 2.370 . S
O73 Eu66 2.370 . S
O73 Eu70 2.370 1_655 S
O73 Eu75 2.370 1_655 S
O74 Eu66 2.370 . S
O74 Eu69 2.370 1_655 S
O74 Eu75 2.370 1_655 S
Eu75 O71 2.370 . S
Eu75 O72 2.370 . S
Eu75 O73 2.370 1_455 S
Eu75 O74 2.370 1_455 S
Eu75 O78 2.363 . S
Eu75 O79 2.363 . S
Eu75 O88 2.363 1_455 S
Eu75 O89 2.363 . S
O76 C50 1.283 . S
O76 Eu62 2.363 . S
O77 C51 1.283 . S
O77 Eu62 2.363 . S
O78 C52 1.283 . S
O78 Eu75 2.363 . S
O79 C53 1.283 . S
O79 Eu75 2.363 . S
O80 C54 1.283 . S
O80 Eu65 2.363 . S
O81 C55 1.283 . S
O81 Eu65 2.363 . S
O82 C56 1.283 . S
O82 Eu66 2.363 . S
O83 C57 1.283 . S
O83 Eu66 2.363 . S
O84 C58 1.283 . S
O84 Eu70 2.363 1_655 S
O85 C59 1.283 . S
O85 Eu70 2.363 . S
O86 C60 1.283 . S
O86 Eu69 2.363 1_655 S
O87 C61 1.283 . S
O87 Eu69 2.363 . S
O88 C56 1.283 . S
O88 Eu75 2.363 1_655 S
O89 C54 1.283 . S
O89 Eu75 2.363 . S
O90 C57 1.283 . S
O90 Eu62 2.363 1_655 S
O91 C55 1.283 . S
O91 Eu62 2.363 . S
O92 C51 1.283 . S
O92 Eu70 2.363 . S
O93 C53 1.283 . S
O93 Eu70 2.363 . S
O94 C50 1.283 . S
O94 Eu69 2.363 . S
O95 C52 1.283 . S
O95 Eu69 2.363 . S
O96 C61 1.283 . S
O96 Eu65 2.363 . S
O97 C59 1.283 . S
O97 Eu65 2.363 . S
O98 C60 1.283 . S
O98 Eu66 2.363 . S
O99 C58 1.283 . S
O99 Eu66 2.363 . S
C100 O126 1.283 . S
C100 O144 1.283 . S
C101 O127 1.283 . S
C101 O142 1.283 . S
C102 O128 1.283 . S
C102 O145 1.283 . S
C103 O129 1.283 . S
C103 O143 1.283 . S
C104 O130 1.283 . S
C104 O139 1.283 . S
C105 O131 1.283 . S
C105 O141 1.283 . S
C106 O132 1.283 . S
C106 O138 1.283 . S
C107 O133 1.283 . S
C107 O140 1.283 . S
C108 O134 1.283 . S
C108 O149 1.283 . S
C109 O135 1.283 . S
C109 O147 1.283 . S
C110 O136 1.283 . S
C110 O148 1.283 . S
C111 O137 1.283 . S
C111 O146 1.283 . S
Eu112 O113 2.370 . S
Eu112 O114 2.370 1_545 S
Eu112 O117 2.370 1_545 S
Eu112 O118 2.370 . S
Eu112 O126 2.363 1_545 S
Eu112 O127 2.363 . S
Eu112 O140 2.363 . S
Eu112 O141 2.363 . S
O113 Eu112 2.370 . S
O113 Eu115 2.370 . S
O113 Eu120 2.370 . S
O114 Eu112 2.370 1_565 S
O114 Eu116 2.370 1_565 S
O114 Eu119 2.370 . S
Eu115 O113 2.370 . S
Eu115 O117 2.370 1_545 S
Eu115 O121 2.370 1_545 S
Eu115 O122 2.370 . S
Eu115 O130 2.363 . S
Eu115 O131 2.363 . S
Eu115 O146 2.363 1_545 S
Eu115 O147 2.363 . S
Eu116 O114 2.370 1_545 S
Eu116 O118 2.370 . S
Eu116 O123 2.370 . S
Eu116 O124 2.370 1_545 S
Eu116 O132 2.363 . S
Eu116 O133 2.363 . S
Eu116 O148 2.363 1_545 S
Eu116 O149 2.363 . S
O117 Eu112 2.370 1_565 S
O117 Eu115 2.370 1_565 S
O117 Eu119 2.370 . S
O118 Eu112 2.370 . S
O118 Eu116 2.370 . S
O118 Eu120 2.370 . S
Eu119 O114 2.370 . S
Eu119 O117 2.370 . S
Eu119 O121 2.370 . S
Eu119 O124 2.370 . S
Eu119 O136 2.363 . S
Eu119 O137 2.363 . S
Eu119 O144 2.363 . S
Eu119 O145 2.363 . S
Eu120 O113 2.370 . S
Eu120 O118 2.370 . S
Eu120 O122 2.370 . S
Eu120 O123 2.370 . S
Eu120 O134 2.363 . S
Eu120 O135 2.363 . S
Eu120 O142 2.363 . S
Eu120 O143 2.363 . S
O121 Eu115 2.370 1_565 S
O121 Eu119 2.370 . S
O121 Eu125 2.370 1_565 S
O122 Eu115 2.370 . S
O122 Eu120 2.370 . S
O122 Eu125 2.370 . S
O123 Eu116 2.370 . S
O123 Eu120 2.370 . S
O123 Eu125 2.370 . S
O124 Eu116 2.370 1_565 S
O124 Eu119 2.370 . S
O124 Eu125 2.370 1_565 S
Eu125 O121 2.370 1_545 S
Eu125 O122 2.370 . S
Eu125 O123 2.370 . S
Eu125 O124 2.370 1_545 S
Eu125 O128 2.363 1_545 S
Eu125 O129 2.363 . S
Eu125 O138 2.363 . S
Eu125 O139 2.363 . S
O126 C100 1.283 . S
O126 Eu112 2.363 1_565 S
O127 C101 1.283 . S
O127 Eu112 2.363 . S
O128 C102 1.283 . S
O128 Eu125 2.363 1_565 S
O129 C103 1.283 . S
O129 Eu125 2.363 . S
O130 C104 1.283 . S
O130 Eu115 2.363 . S
O131 C105 1.283 . S
O131 Eu115 2.363 . S
O132 C106 1.283 . S
O132 Eu116 2.363 . S
O133 C107 1.283 . S
O133 Eu116 2.363 . S
O134 C108 1.283 . S
O134 Eu120 2.363 . S
O135 C109 1.283 . S
O135 Eu120 2.363 . S
O136 C110 1.283 . S
O136 Eu119 2.363 . S
O137 C111 1.283 . S
O137 Eu119 2.363 . S
O138 C106 1.283 . S
O138 Eu125 2.363 . S
O139 C104 1.283 . S
O139 Eu125 2.363 . S
O140 C107 1.283 . S
O140 Eu112 2.363 . S
O141 C105 1.283 . S
O141 Eu112 2.363 . S
O142 C101 1.283 . S
O142 Eu120 2.363 . S
O143 C103 1.283 . S
O143 Eu120 2.363 . S
O144 C100 1.283 . S
O144 Eu119 2.363 . S
O145 C102 1.283 . S
O145 Eu119 2.363 . S
O146 C111 1.283 . S
O146 Eu115 2.363 1_565 S
O147 C109 1.283 . S
O147 Eu115 2.363 . S
O148 C110 1.283 . S
O148 Eu116 2.363 1_565 S
O149 C108 1.283 . S
O149 Eu116 2.363 . S
C150 O176 1.283 . S
C150 O194 1.283 . S
C151 O177 1.283 . S
C151 O192 1.283 . S
C152 O178 1.283 . S
C152 O195 1.283 . S
C153 O179 1.283 . S
C153 O193 1.283 . S
C154 O180 1.283 . S
C154 O189 1.283 . S
C155 O181 1.283 . S
C155 O191 1.283 . S
C156 O182 1.283 . S
C156 O188 1.283 . S
C157 O183 1.283 . S
C157 O190 1.283 . S
C158 O184 1.283 . S
C158 O199 1.283 . S
C159 O185 1.283 . S
C159 O197 1.283 . S
C160 O186 1.283 . S
C160 O198 1.283 . S
C161 O187 1.283 . S
C161 O196 1.283 . S
Eu162 O163 2.370 . S
Eu162 O164 2.370 1_554 S
Eu162 O167 2.370 1_554 S
Eu162 O168 2.370 . S
Eu162 O176 2.363 1_554 S
Eu162 O177 2.363 . S
Eu162 O190 2.363 . S
Eu162 O191 2.363 . S
O163 Eu162 2.370 . S
O163 Eu165 2.370 . S
O163 Eu170 2.370 . S
O164 Eu162 2.370 1_556 S
O164 Eu166 2.370 1_556 S
O164 Eu169 2.370 . S
Eu165 O163 2.370 . S
Eu165 O167 2.370 1_554 S
Eu165 O171 2.370 1_554 S
Eu165 O172 2.370 . S
Eu165 O180 2.363 . S
Eu165 O181 2.363 . S
Eu165 O196 2.363 1_554 S
Eu165 O197 2.363 . S
Eu166 O164 2.370 1_554 S
Eu166 O168 2.370 . S
Eu166 O173 2.370 . S
Eu166 O174 2.370 1_554 S
Eu166 O182 2.363 . S
Eu166 O183 2.363 . S
Eu166 O198 2.363 1_554 S
Eu166 O199 2.363 . S
O167 Eu162 2.370 1_556 S
O167 Eu165 2.370 1_556 S
O167 Eu169 2.370 . S
O168 Eu162 2.370 . S
O168 Eu166 2.370 . S
O168 Eu170 2.370 . S
Eu169 O164 2.370 . S
Eu169 O167 2.370 . S
Eu169 O171 2.370 . S
Eu169 O174 2.370 . S
Eu169 O186 2.363 . S
Eu169 O187 2.363 . S
Eu169 O194 2.363 . S
Eu169 O195 2.363 . S
Eu170 O163 2.370 . S
Eu170 O168 2.370 . S
Eu170 O172 2.370 . S
Eu170 O173 2.370 . S
Eu170 O184 2.363 . S
Eu170 O185 2.363 . S
Eu170 O192 2.363 . S
Eu170 O193 2.363 . S
O171 Eu165 2.370 1_556 S
O171 Eu169 2.370 . S
O171 Eu175 2.370 1_556 S
O172 Eu165 2.370 . S
O172 Eu170 2.370 . S
O172 Eu175 2.370 . S
O173 Eu166 2.370 . S
O173 Eu170 2.370 . S
O173 Eu175 2.370 . S
O174 Eu166 2.370 1_556 S
O174 Eu169 2.370 . S
O174 Eu175 2.370 1_556 S
Eu175 O171 2.370 1_554 S
Eu175 O172 2.370 . S
Eu175 O173 2.370 . S
Eu175 O174 2.370 1_554 S
Eu175 O178 2.363 1_554 S
Eu175 O179 2.363 . S
Eu175 O188 2.363 . S
Eu175 O189 2.363 . S
O176 C150 1.283 . S
O176 Eu162 2.363 1_556 S
O177 C151 1.283 . S
O177 Eu162 2.363 . S
O178 C152 1.283 . S
O178 Eu175 2.363 1_556 S
O179 C153 1.283 . S
O179 Eu175 2.363 . S
O180 C154 1.283 . S
O180 Eu165 2.363 . S
O181 C155 1.283 . S
O181 Eu165 2.363 . S
O182 C156 1.283 . S
O182 Eu166 2.363 . S
O183 C157 1.283 . S
O183 Eu166 2.363 . S
O184 C158 1.283 . S
O184 Eu170 2.363 . S
O185 C159 1.283 . S
O185 Eu170 2.363 . S
O186 C160 1.283 . S
O186 Eu169 2.363 . S
O187 C161 1.283 . S
O187 Eu169 2.363 . S
O188 C156 1.283 . S
O188 Eu175 2.363 . S
O189 C154 1.283 . S
O189 Eu175 2.363 . S
O190 C157 1.283 . S
O190 Eu162 2.363 . S
O191 C155 1.283 . S
O191 Eu162 2.363 . S
O192 C151 1.283 . S
O192 Eu170 2.363 . S
O193 C153 1.283 . S
O193 Eu170 2.363 . S
O194 C150 1.283 . S
O194 Eu169 2.363 . S
O195 C152 1.283 . S
O195 Eu169 2.363 . S
O196 C161 1.283 . S
O196 Eu165 2.363 1_556 S
O197 C159 1.283 . S
O197 Eu165 2.363 . S
O198 C160 1.283 . S
O198 Eu166 2.363 1_556 S
O199 C158 1.283 . S
O199 Eu166 2.363 . S
H200 C208 0.929 . S
H201 C210 0.930 . S
H202 C212 0.930 . S
H203 C215 0.929 . S
H204 C218 0.930 . S
H205 C220 0.960 . S
H206 C220 0.960 . S
H207 C220 0.960 . S
C208 H200 0.929 . S
C208 C209 1.381 . S
C208 C210 1.384 . S
C209 C208 1.381 . S
C209 C215 1.387 1_655 S
C210 H201 0.930 . S
C210 C208 1.384 . S
C210 C211 1.372 . S
C211 C210 1.372 . S
C211 C212 1.400 1_655 S
C211 C216 1.490 . S
C212 H202 0.930 . S
C212 C211 1.400 1_455 S
C212 C215 1.386 . S
H213 C229 0.930 . S
H214 C230 0.931 . S
C215 H203 0.929 . S
C215 C209 1.387 1_455 S
C215 C212 1.386 . S
C216 C211 1.490 . S
C216 C218 1.395 . S
C216 C219 1.403 1_655 S
H217 C223 0.930 . S
C218 H204 0.930 . S
C218 C216 1.395 . S
C218 C221 1.403 . S
C219 C216 1.403 1_455 S
C219 C220 1.524 . S
C219 C223 1.400 . S
C220 H205 0.960 . S
C220 H206 0.960 . S
C220 H207 0.960 . S
C220 C219 1.524 . S
C221 C218 1.403 . S
C221 C222 1.392 . S
C221 C225 1.495 . S
C222 C221 1.392 . S
C222 C223 1.385 1_655 S
C222 C224 1.478 . S
C223 H217 0.930 . S
C223 C219 1.400 . S
C223 C222 1.385 1_455 S
C224 C222 1.478 . S
C224 C226 1.381 . S
C224 C230 1.383 1_655 S
C225 C221 1.495 . S
C225 H231 0.959 . S
C225 H232 0.961 . S
C225 H233 0.960 . S
C226 C224 1.381 . S
C226 C227 1.394 . S
C226 H234 0.930 . S
C227 C226 1.394 . S
C227 C228 1.383 . S
C227 H235 0.929 . S
C228 C227 1.383 . S
C228 C229 1.377 1_655 S
C229 H213 0.930 . S
C229 C228 1.377 1_455 S
C229 C230 1.379 . S
C230 H214 0.931 . S
C230 C224 1.383 1_455 S
C230 C229 1.379 . S
H231 C225 0.959 . S
H232 C225 0.961 . S
H233 C225 0.960 . S
H234 C226 0.930 . S
H235 C227 0.929 . S
H236 C244 0.929 . S
H237 C246 0.930 . S
H238 C248 0.930 . S
H239 C251 0.929 . S
H240 C254 0.930 . S
H241 C256 0.960 . S
H242 C256 0.960 . S
H243 C256 0.960 1_545 S
C244 H236 0.929 . S
C244 C245 1.387 . S
C244 C246 1.384 . S
C245 C244 1.387 . S
C245 C251 1.380 1_565 S
C246 H237 0.930 . S
C246 C244 1.384 . S
C246 C247 1.372 . S
C247 C246 1.372 . S
C247 C248 1.400 1_565 S
C247 C252 1.490 . S
C248 H238 0.930 . S
C248 C247 1.400 1_545 S
C248 C251 1.386 . S
H249 C265 0.930 . S
H250 C266 0.931 . S
C251 H239 0.929 . S
C251 C245 1.380 1_545 S
C251 C248 1.386 . S
C252 C247 1.490 . S
C252 C254 1.396 . S
C252 C255 1.403 . S
H253 C259 0.930 . S
C254 H240 0.930 . S
C254 C252 1.396 . S
C254 C257 1.403 . S
C255 C252 1.403 . S
C255 C256 1.524 . S
C255 C259 1.400 . S
C256 H241 0.960 . S
C256 H242 0.960 . S
C256 H243 0.960 1_565 S
C256 C255 1.524 . S
C257 C254 1.403 . S
C257 C258 1.392 . S
C257 C261 1.495 1_565 S
C258 C257 1.392 . S
C258 C259 1.386 . S
C258 C260 1.477 1_565 S
C259 H253 0.930 . S
C259 C255 1.400 . S
C259 C258 1.386 . S
C260 C258 1.477 1_545 S
C260 C262 1.378 1_545 S
C260 C266 1.386 . S
C261 C257 1.495 1_545 S
C261 H267 0.959 . S
C261 H268 0.961 . S
C261 H269 0.960 1_545 S
C262 C260 1.378 1_565 S
C262 C263 1.394 . S
C262 H270 0.930 . S
C263 C262 1.394 . S
C263 C264 1.374 1_565 S
C263 H271 0.929 . S
C264 C263 1.374 1_545 S
C264 C265 1.386 . S
C265 H249 0.930 . S
C265 C264 1.386 . S
C265 C266 1.379 . S
C266 H250 0.931 . S
C266 C260 1.386 . S
C266 C265 1.379 . S
H267 C261 0.959 . S
H268 C261 0.961 . S
H269 C261 0.960 1_565 S
H270 C262 0.930 . S
H271 C263 0.929 . S
H272 C280 0.929 . S
H273 C282 0.930 . S
H274 C284 0.930 . S
H275 C287 0.929 . S
H276 C290 0.930 . S
H277 C292 0.960 . S
H278 C292 0.960 . S
H279 C292 0.960 . S
C280 H272 0.929 . S
C280 C281 1.383 . S
C280 C282 1.384 . S
C281 C280 1.383 . S
C281 C287 1.385 1_455 S
C282 H273 0.930 . S
C282 C280 1.384 . S
C282 C283 1.372 . S
C283 C282 1.372 . S
C283 C284 1.400 1_455 S
C283 C288 1.490 . S
C284 H274 0.930 . S
C284 C283 1.400 1_655 S
C284 C287 1.386 . S
H285 C301 0.930 . S
H286 C302 0.931 . S
C287 H275 0.929 . S
C287 C281 1.385 1_655 S
C287 C284 1.386 . S
C288 C283 1.490 . S
C288 C290 1.392 1_455 S
C288 C291 1.405 . S
H289 C295 0.930 . S
C290 H276 0.930 . S
C290 C288 1.392 1_655 S
C290 C293 1.403 . S
C291 C288 1.405 . S
C291 C292 1.524 . S
C291 C295 1.400 . S
C292 H277 0.960 . S
C292 H278 0.960 . S
C292 H279 0.960 . S
C292 C291 1.524 . S
C293 C290 1.403 . S
C293 C294 1.392 . S
C293 C297 1.495 . S
C294 C293 1.392 . S
C294 C295 1.385 1_655 S
C294 C296 1.478 . S
C295 H289 0.930 . S
C295 C291 1.400 . S
C295 C294 1.385 1_455 S
C296 C294 1.478 . S
C296 C298 1.381 1_655 S
C296 C302 1.383 . S
C297 C293 1.495 . S
C297 H303 0.959 . S
C297 H304 0.961 . S
C297 H305 0.960 . S
C298 C296 1.381 1_455 S
C298 C299 1.394 . S
C298 H306 0.930 . S
C299 C298 1.394 . S
C299 C300 1.383 1_455 S
C299 H307 0.929 . S
C300 C299 1.383 1_655 S
C300 C301 1.377 . S
C301 H285 0.930 . S
C301 C300 1.377 . S
C301 C302 1.379 . S
C302 H286 0.931 . S
C302 C296 1.383 . S
C302 C301 1.379 . S
H303 C297 0.959 . S
H304 C297 0.961 . S
H305 C297 0.960 . S
H306 C298 0.930 . S
H307 C299 0.929 . S
H308 C316 0.929 . S
H309 C318 0.930 . S
H310 C320 0.930 . S
H311 C323 0.929 . S
H312 C326 0.930 . S
H313 C328 0.960 . S
H314 C328 0.960 1_545 S
H315 C328 0.960 . S
C316 H308 0.929 . S
C316 C317 1.392 . S
C316 C318 1.384 . S
C317 C316 1.392 . S
C317 C323 1.375 1_545 S
C318 H309 0.930 . S
C318 C316 1.384 . S
C318 C319 1.372 . S
C319 C318 1.372 . S
C319 C320 1.400 1_545 S
C319 C324 1.490 . S
C320 H310 0.930 . S
C320 C319 1.400 1_565 S
C320 C323 1.386 . S
H321 C337 0.930 . S
H322 C338 0.931 . S
C323 H311 0.929 . S
C323 C317 1.375 1_565 S
C323 C320 1.386 . S
C324 C319 1.490 . S
C324 C326 1.395 . S
C324 C327 1.402 1_545 S
H325 C331 0.930 . S
C326 H312 0.930 . S
C326 C324 1.395 . S
C326 C329 1.403 . S
C327 C324 1.402 1_565 S
C327 C328 1.524 . S
C327 C331 1.400 . S
C328 H313 0.960 . S
C328 H314 0.960 1_565 S
C328 H315 0.960 . S
C328 C327 1.524 . S
C329 C326 1.403 . S
C329 C330 1.392 . S
C329 C333 1.495 . S
C330 C329 1.392 . S
C330 C331 1.385 1_545 S
C330 C332 1.479 . S
C331 H325 0.930 . S
C331 C327 1.400 . S
C331 C330 1.385 1_565 S
C332 C330 1.479 . S
C332 C334 1.404 . S
C332 C338 1.359 1_545 S
C333 C329 1.495 . S
C333 H339 0.959 . S
C333 H340 0.961 1_545 S
C333 H341 0.960 . S
C334 C332 1.404 . S
C334 C335 1.394 . S
C334 H342 0.930 . S
C335 C334 1.394 . S
C335 C336 1.383 . S
C335 H343 0.929 . S
C336 C335 1.383 . S
C336 C337 1.377 1_545 S
C337 H321 0.930 . S
C337 C336 1.377 1_565 S
C337 C338 1.379 . S
C338 H322 0.931 . S
C338 C332 1.359 1_565 S
C338 C337 1.379 . S
H339 C333 0.959 . S
H340 C333 0.961 1_565 S
H341 C333 0.960 . S
H342 C334 0.930 . S
H343 C335 0.929 . S
H344 C352 0.929 . S
H345 C354 0.930 . S
H346 C356 0.930 . S
H347 C359 0.931 . S
H348 C362 0.930 . S
H349 C364 0.960 . S
H350 C364 0.960 . S
H351 C364 0.960 . S
C352 H344 0.929 . S
C352 C353 1.378 . S
C352 C354 1.384 . S
C353 C352 1.378 . S
C353 C359 1.389 1_455 S
C354 H345 0.930 . S
C354 C352 1.384 . S
C354 C355 1.373 . S
C355 C354 1.373 . S
C355 C356 1.399 1_455 S
C355 C360 1.489 1_455 S
C356 H346 0.930 . S
C356 C355 1.399 1_655 S
C356 C359 1.386 . S
H357 C373 0.930 . S
H358 C374 0.931 . S
C359 H347 0.931 . S
C359 C353 1.389 1_655 S
C359 C356 1.386 . S
C360 C355 1.489 1_655 S
C360 C362 1.408 . S
C360 C363 1.390 1_655 S
H361 C367 0.930 . S
C362 H348 0.930 . S
C362 C360 1.408 . S
C362 C365 1.403 . S
C363 C360 1.390 1_455 S
C363 C364 1.524 . S
C363 C367 1.400 . S
C364 H349 0.960 . S
C364 H350 0.960 . S
C364 H351 0.960 . S
C364 C363 1.524 . S
C365 C362 1.403 . S
C365 C366 1.392 . S
C365 C369 1.495 . S
C366 C365 1.392 . S
C366 C367 1.385 1_655 S
C366 C368 1.478 . S
C367 H361 0.930 . S
C367 C363 1.400 . S
C367 C366 1.385 1_455 S
C368 C366 1.478 . S
C368 C370 1.382 . S
C368 C374 1.383 . S
C369 C365 1.495 . S
C369 H375 0.959 . S
C369 H376 0.961 . S
C369 H377 0.960 . S
C370 C368 1.382 . S
C370 C371 1.394 1_655 S
C370 H378 0.929 1_655 S
C371 C370 1.394 1_455 S
C371 C372 1.383 1_455 S
C371 H379 0.929 . S
C372 C371 1.383 1_655 S
C372 C373 1.377 . S
C373 H357 0.930 . S
C373 C372 1.377 . S
C373 C374 1.379 . S
C374 H358 0.931 . S
C374 C368 1.383 . S
C374 C373 1.379 . S
H375 C369 0.959 . S
H376 C369 0.961 . S
H377 C369 0.960 . S
H378 C370 0.929 1_455 S
H379 C371 0.929 . S
H380 C388 0.929 . S
H381 C390 0.930 . S
H382 C392 0.930 . S
H383 C395 0.929 . S
H384 C398 0.930 . S
H385 C400 0.960 . S
H386 C400 0.960 . S
H387 C400 0.960 . S
C388 H380 0.929 . S
C388 C389 1.384 . S
C388 C390 1.384 . S
C389 C388 1.384 . S
C389 C395 1.384 1_545 S
C390 H381 0.930 . S
C390 C388 1.384 . S
C390 C391 1.372 . S
C391 C390 1.372 . S
C391 C392 1.400 1_545 S
C391 C396 1.490 . S
C392 H382 0.930 . S
C392 C391 1.400 1_565 S
C392 C395 1.386 . S
H393 C409 0.930 . S
H394 C410 0.931 . S
C395 H383 0.929 . S
C395 C389 1.384 1_565 S
C395 C392 1.386 . S
C396 C391 1.490 . S
C396 C398 1.390 1_545 S
C396 C399 1.407 . S
H397 C403 0.930 . S
C398 H384 0.930 . S
C398 C396 1.390 1_565 S
C398 C401 1.403 . S
C399 C396 1.407 . S
C399 C400 1.524 . S
C399 C403 1.400 . S
C400 H385 0.960 . S
C400 H386 0.960 . S
C400 H387 0.960 . S
C400 C399 1.524 . S
C401 C398 1.403 . S
C401 C402 1.392 . S
C401 C405 1.495 . S
C402 C401 1.392 . S
C402 C403 1.385 1_565 S
C402 C404 1.478 . S
C403 H397 0.930 . S
C403 C399 1.400 . S
C403 C402 1.385 1_545 S
C404 C402 1.478 . S
C404 C406 1.381 1_565 S
C404 C410 1.383 . S
C405 C401 1.495 . S
C405 H411 0.959 . S
C405 H412 0.961 . S
C405 H413 0.960 . S
C406 C404 1.381 1_545 S
C406 C407 1.394 . S
C406 H414 0.930 . S
C407 C406 1.394 . S
C407 C408 1.383 1_545 S
C407 H415 0.929 . S
C408 C407 1.383 1_565 S
C408 C409 1.377 . S
C409 H393 0.930 . S
C409 C408 1.377 . S
C409 C410 1.379 . S
C410 H394 0.931 . S
C410 C404 1.383 . S
C410 C409 1.379 . S
H411 C405 0.959 . S
H412 C405 0.961 . S
H413 C405 0.960 . S
H414 C406 0.930 . S
H415 C407 0.929 . S
H416 C424 0.929 . S
H417 C426 0.930 . S
H418 C428 0.930 . S
H419 C431 0.929 . S
H420 C434 0.930 . S
H421 C436 0.960 . S
H422 C436 0.960 . S
H423 C436 0.960 . S
C424 H416 0.929 . S
C424 C425 1.389 . S
C424 C426 1.384 . S
C425 C424 1.389 . S
C425 C431 1.378 1_455 S
C426 H417 0.930 . S
C426 C424 1.384 . S
C426 C427 1.372 . S
C427 C426 1.372 . S
C427 C428 1.400 1_455 S
C427 C432 1.490 . S
C428 H418 0.930 . S
C428 C427 1.400 1_655 S
C428 C431 1.386 . S
H429 C445 0.930 . S
H430 C446 0.931 . S
C431 H419 0.929 . S
C431 C425 1.378 1_655 S
C431 C428 1.386 . S
C432 C427 1.490 . S
C432 C434 1.395 1_455 S
C432 C435 1.403 . S
H433 C439 0.930 . S
C434 H420 0.930 . S
C434 C432 1.395 1_655 S
C434 C437 1.403 . S
C435 C432 1.403 . S
C435 C436 1.524 . S
C435 C439 1.400 . S
C436 H421 0.960 . S
C436 H422 0.960 . S
C436 H423 0.960 . S
C436 C435 1.524 . S
C437 C434 1.403 . S
C437 C438 1.392 . S
C437 C441 1.495 . S
C438 C437 1.392 . S
C438 C439 1.385 1_655 S
C438 C440 1.478 . S
C439 H433 0.930 . S
C439 C435 1.400 . S
C439 C438 1.385 1_455 S
C440 C438 1.478 . S
C440 C442 1.381 1_655 S
C440 C446 1.383 . S
C441 C437 1.495 . S
C441 H447 0.959 . S
C441 H448 0.961 . S
C441 H449 0.960 . S
C442 C440 1.381 1_455 S
C442 C443 1.394 . S
C442 H450 0.930 . S
C443 C442 1.394 . S
C443 C444 1.383 1_455 S
C443 H451 0.929 . S
C444 C443 1.383 1_655 S
C444 C445 1.377 . S
C445 H429 0.930 . S
C445 C444 1.377 . S
C445 C446 1.379 . S
C446 H430 0.931 . S
C446 C440 1.383 . S
C446 C445 1.379 . S
H447 C441 0.959 . S
H448 C441 0.961 . S
H449 C441 0.960 . S
H450 C442 0.930 . S
H451 C443 0.929 . S
H452 C460 0.929 . S
H453 C462 0.930 . S
H454 C464 0.930 . S
H455 C467 0.929 . S
H456 C470 0.930 . S
H457 C472 0.960 . S
H458 C472 0.960 . S
H459 C472 0.960 1_565 S
C460 H452 0.929 . S
C460 C461 1.392 . S
C460 C462 1.384 . S
C461 C460 1.392 . S
C461 C467 1.375 1_545 S
C462 H453 0.930 . S
C462 C460 1.384 . S
C462 C463 1.372 . S
C463 C462 1.372 . S
C463 C464 1.400 1_545 S
C463 C468 1.490 . S
C464 H454 0.930 . S
C464 C463 1.400 1_565 S
C464 C467 1.386 . S
H465 C481 0.930 . S
H466 C482 0.931 . S
C467 H455 0.929 . S
C467 C461 1.375 1_565 S
C467 C464 1.386 . S
C468 C463 1.490 . S
C468 C470 1.395 . S
C468 C471 1.403 . S
H469 C475 0.931 . S
C470 H456 0.930 . S
C470 C468 1.395 . S
C470 C473 1.403 . S
C471 C468 1.403 . S
C471 C472 1.524 . S
C471 C475 1.400 . S
C472 H457 0.960 . S
C472 H458 0.960 . S
C472 H459 0.960 1_545 S
C472 C471 1.524 . S
C473 C470 1.403 . S
C473 C474 1.392 . S
C473 C477 1.495 . S
C474 C473 1.392 . S
C474 C475 1.385 . S
C474 C476 1.478 . S
C475 H469 0.931 . S
C475 C471 1.400 . S
C475 C474 1.385 . S
C476 C474 1.478 . S
C476 C478 1.386 . S
C476 C482 1.377 1_545 S
C477 C473 1.495 . S
C477 H483 0.959 . S
C477 H484 0.961 1_545 S
C477 H485 0.960 . S
C478 C476 1.386 . S
C478 C479 1.394 . S
C478 H486 0.930 . S
C479 C478 1.394 . S
C479 C480 1.382 1_545 S
C479 H487 0.929 . S
C480 C479 1.382 1_565 S
C480 C481 1.378 . S
C481 H465 0.930 . S
C481 C480 1.378 . S
C481 C482 1.379 . S
C482 H466 0.931 . S
C482 C476 1.377 1_565 S
C482 C481 1.379 . S
H483 C477 0.959 . S
H484 C477 0.961 1_565 S
H485 C477 0.960 . S
H486 C478 0.930 . S
H487 C479 0.929 . S
H488 C496 0.929 . S
H489 C498 0.930 . S
H490 C500 0.930 . S
H491 C503 0.929 . S
H492 C506 0.930 . S
H493 C508 0.960 . S
H494 C508 0.960 . S
H495 C508 0.960 . S
C496 H488 0.929 . S
C496 C497 1.384 . S
C496 C498 1.384 . S
C497 C496 1.384 . S
C497 C503 1.384 1_556 S
C498 H489 0.930 . S
C498 C496 1.384 . S
C498 C499 1.372 . S
C499 C498 1.372 . S
C499 C500 1.400 1_556 S
C499 C504 1.490 . S
C500 H490 0.930 . S
C500 C499 1.400 1_554 S
C500 C503 1.386 . S
H501 C517 0.930 . S
H502 C518 0.931 . S
C503 H491 0.929 . S
C503 C497 1.384 1_554 S
C503 C500 1.386 . S
C504 C499 1.490 . S
C504 C506 1.387 1_556 S
C504 C507 1.410 . S
H505 C511 0.930 . S
C506 H492 0.930 . S
C506 C504 1.387 1_554 S
C506 C509 1.403 . S
C507 C504 1.410 . S
C507 C508 1.524 . S
C507 C511 1.400 . S
C508 H493 0.960 . S
C508 H494 0.960 . S
C508 H495 0.960 . S
C508 C507 1.524 . S
C509 C506 1.403 . S
C509 C510 1.392 . S
C509 C513 1.495 . S
C510 C509 1.392 . S
C510 C511 1.385 1_554 S
C510 C512 1.478 . S
C511 H505 0.930 . S
C511 C507 1.400 . S
C511 C510 1.385 1_556 S
C512 C510 1.478 . S
C512 C514 1.381 1_554 S
C512 C518 1.383 . S
C513 C509 1.495 . S
C513 H519 0.959 . S
C513 H520 0.961 . S
C513 H521 0.960 . S
C514 C512 1.381 1_556 S
C514 C515 1.394 . S
C514 H522 0.930 . S
C515 C514 1.394 . S
C515 C516 1.383 1_556 S
C515 H523 0.929 . S
C516 C515 1.383 1_554 S
C516 C517 1.377 . S
C517 H501 0.930 . S
C517 C516 1.377 . S
C517 C518 1.379 . S
C518 H502 0.931 . S
C518 C512 1.383 . S
C518 C517 1.379 . S
H519 C513 0.959 . S
H520 C513 0.961 . S
H521 C513 0.960 . S
H522 C514 0.930 . S
H523 C515 0.929 . S
H524 C532 0.929 . S
H525 C534 0.930 . S
H526 C536 0.930 . S
H527 C539 0.929 . S
H528 C542 0.930 . S
H529 C544 0.960 . S
H530 C544 0.960 . S
H531 C544 0.960 . S
C532 H524 0.929 . S
C532 C533 1.389 . S
C532 C534 1.384 . S
C533 C532 1.389 . S
C533 C539 1.378 1_554 S
C534 H525 0.930 . S
C534 C532 1.384 . S
C534 C535 1.372 . S
C535 C534 1.372 . S
C535 C536 1.400 1_554 S
C535 C540 1.490 . S
C536 H526 0.930 . S
C536 C535 1.400 1_556 S
C536 C539 1.386 . S
H537 C553 0.930 . S
H538 C554 0.931 . S
C539 H527 0.929 . S
C539 C533 1.378 1_556 S
C539 C536 1.386 . S
C540 C535 1.490 . S
C540 C542 1.395 . S
C540 C543 1.403 1_554 S
H541 C547 0.930 . S
C542 H528 0.930 . S
C542 C540 1.395 . S
C542 C545 1.403 . S
C543 C540 1.403 1_556 S
C543 C544 1.524 . S
C543 C547 1.400 . S
C544 H529 0.960 . S
C544 H530 0.960 . S
C544 H531 0.960 . S
C544 C543 1.524 . S
C545 C542 1.403 . S
C545 C546 1.392 . S
C545 C549 1.495 . S
C546 C545 1.392 . S
C546 C547 1.385 1_554 S
C546 C548 1.478 . S
C547 H541 0.930 . S
C547 C543 1.400 . S
C547 C546 1.385 1_556 S
C548 C546 1.478 . S
C548 C550 1.381 . S
C548 C554 1.383 1_554 S
C549 C545 1.495 . S
C549 H555 0.959 . S
C549 H556 0.961 . S
C549 H557 0.960 . S
C550 C548 1.381 . S
C550 C551 1.394 . S
C550 H558 0.930 . S
C551 C550 1.394 . S
C551 C552 1.383 . S
C551 H559 0.929 . S
C552 C551 1.383 . S
C552 C553 1.377 1_554 S
C553 H537 0.930 . S
C553 C552 1.377 1_556 S
C553 C554 1.379 . S
C554 H538 0.931 . S
C554 C548 1.383 1_556 S
C554 C553 1.379 . S
H555 C549 0.959 . S
H556 C549 0.961 . S
H557 C549 0.960 . S
H558 C550 0.930 . S
H559 C551 0.929 . S
H560 C568 0.929 . S
H561 C570 0.930 . S
H562 C572 0.930 . S
H563 C575 0.929 . S
H564 C578 0.930 . S
H565 C580 0.960 . S
H566 C580 0.960 1_556 S
H567 C580 0.960 . S
C568 H560 0.929 . S
C568 C569 1.386 . S
C568 C570 1.384 . S
C569 C568 1.386 . S
C569 C575 1.381 1_556 S
C570 H561 0.930 . S
C570 C568 1.384 . S
C570 C571 1.372 . S
C571 C570 1.372 . S
C571 C572 1.400 1_556 S
C571 C576 1.490 . S
C572 H562 0.930 . S
C572 C571 1.400 1_554 S
C572 C575 1.386 . S
H573 C589 0.930 . S
H574 C590 0.931 . S
C575 H563 0.929 . S
C575 C569 1.381 1_554 S
C575 C572 1.386 . S
C576 C571 1.490 . S
C576 C578 1.395 . S
C576 C579 1.403 1_556 S
H577 C583 0.930 . S
C578 H564 0.930 . S
C578 C576 1.395 . S
C578 C581 1.403 . S
C579 C576 1.403 1_554 S
C579 C580 1.524 . S
C579 C583 1.400 . S
C580 H565 0.960 . S
C580 H566 0.960 1_554 S
C580 H567 0.960 . S
C580 C579 1.524 . S
C581 C578 1.403 . S
C581 C582 1.392 . S
C581 C585 1.495 . S
C582 C581 1.392 . S
C582 C583 1.385 1_556 S
C582 C584 1.478 . S
C583 H577 0.930 . S
C583 C579 1.400 . S
C583 C582 1.385 1_554 S
C584 C582 1.478 . S
C584 C586 1.381 . S
C584 C590 1.383 1_556 S
C585 C581 1.495 . S
C585 H591 0.959 . S
C585 H592 0.961 1_556 S
C585 H593 0.960 . S
C586 C584 1.381 . S
C586 C587 1.394 . S
C586 H594 0.930 . S
C587 C586 1.394 . S
C587 C588 1.390 . S
C587 H595 0.929 . S
C588 C587 1.390 . S
C588 C589 1.371 1_556 S
C589 H573 0.930 . S
C589 C588 1.371 1_554 S
C589 C590 1.379 . S
C590 H574 0.931 . S
C590 C584 1.383 1_554 S
C590 C589 1.379 . S
H591 C585 0.959 . S
H592 C585 0.961 1_554 S
H593 C585 0.960 . S
H594 C586 0.930 . S
H595 C587 0.929 . S
H596 C604 0.929 . S
H597 C606 0.930 . S
H598 C608 0.930 . S
H599 C611 0.929 . S
H600 C614 0.930 . S
H601 C616 0.960 . S
H602 C616 0.960 . S
H603 C616 0.960 . S
C604 H596 0.929 . S
C604 C605 1.386 . S
C604 C606 1.384 . S
C605 C604 1.386 . S
C605 C611 1.382 1_556 S
C606 H597 0.930 . S
C606 C604 1.384 . S
C606 C607 1.372 . S
C607 C606 1.372 . S
C607 C608 1.400 1_556 S
C607 C612 1.490 . S
C608 H598 0.930 . S
C608 C607 1.400 1_554 S
C608 C611 1.386 . S
H609 C625 0.930 . S
H610 C626 0.931 . S
C611 H599 0.929 . S
C611 C605 1.382 1_554 S
C611 C608 1.386 . S
C612 C607 1.490 . S
C612 C614 1.395 1_556 S
C612 C615 1.403 . S
H613 C619 0.930 . S
C614 H600 0.930 . S
C614 C612 1.395 1_554 S
C614 C617 1.403 . S
C615 C612 1.403 . S
C615 C616 1.524 . S
C615 C619 1.400 . S
C616 H601 0.960 . S
C616 H602 0.960 . S
C616 H603 0.960 . S
C616 C615 1.524 . S
C617 C614 1.403 . S
C617 C618 1.392 . S
C617 C621 1.495 . S
C618 C617 1.392 . S
C618 C619 1.385 1_554 S
C618 C620 1.478 . S
C619 H613 0.930 . S
C619 C615 1.400 . S
C619 C618 1.385 1_556 S
C620 C618 1.478 . S
C620 C622 1.381 1_554 S
C620 C626 1.383 . S
C621 C617 1.495 . S
C621 H627 0.959 . S
C621 H628 0.961 . S
C621 H629 0.960 . S
C622 C620 1.381 1_556 S
C622 C623 1.394 . S
C622 H630 0.930 . S
C623 C622 1.394 . S
C623 C624 1.383 1_556 S
C623 H631 0.929 . S
C624 C623 1.383 1_554 S
C624 C625 1.377 . S
C625 H609 0.930 . S
C625 C624 1.377 . S
C625 C626 1.379 . S
C626 H610 0.931 . S
C626 C620 1.383 . S
C626 C625 1.379 . S
H627 C621 0.959 . S
H628 C621 0.961 . S
H629 C621 0.960 . S
H630 C622 0.930 . S
H631 C623 0.929 . S
H632 C640 0.929 . S
H633 C642 0.930 . S
H634 C644 0.930 . S
H635 C647 0.929 . S
H636 C650 0.930 . S
H637 C652 0.960 . S
H638 C652 0.960 . S
H639 C652 0.960 . S
C640 H632 0.929 . S
C640 C641 1.377 . S
C640 C642 1.384 . S
C641 C640 1.377 . S
C641 C647 1.390 . S
C642 H633 0.930 . S
C642 C640 1.384 . S
C642 C643 1.372 . S
C643 C642 1.372 . S
C643 C644 1.400 . S
C643 C648 1.490 . S
C644 H634 0.930 . S
C644 C643 1.400 . S
C644 C647 1.386 . S
H645 C661 0.930 . S
H646 C662 0.931 . S
C647 H635 0.929 . S
C647 C641 1.390 . S
C647 C644 1.386 . S
C648 C643 1.490 . S
C648 C650 1.395 . S
C648 C651 1.403 . S
H649 C655 0.930 . S
C650 H636 0.930 . S
C650 C648 1.395 . S
C650 C653 1.403 . S
C651 C648 1.403 . S
C651 C652 1.524 . S
C651 C655 1.400 . S
C652 H637 0.960 . S
C652 H638 0.960 . S
C652 H639 0.960 . S
C652 C651 1.524 . S
C653 C650 1.403 . S
C653 C654 1.392 . S
C653 C657 1.495 . S
C654 C653 1.392 . S
C654 C655 1.385 . S
C654 C656 1.478 . S
C655 H649 0.930 . S
C655 C651 1.400 . S
C655 C654 1.385 . S
C656 C654 1.478 . S
C656 C658 1.381 . S
C656 C662 1.383 . S
C657 C653 1.495 . S
C657 H663 0.959 . S
C657 H664 0.961 . S
C657 H665 0.960 . S
C658 C656 1.381 . S
C658 C659 1.394 . S
C658 H666 0.930 . S
C659 C658 1.394 . S
C659 C660 1.383 . S
C659 H667 0.929 . S
C660 C659 1.383 . S
C660 C661 1.377 . S
C661 H645 0.930 . S
C661 C660 1.377 . S
C661 C662 1.379 . S
C662 H646 0.931 . S
C662 C656 1.383 . S
C662 C661 1.379 . S
H663 C657 0.959 . S
H664 C657 0.961 . S
H665 C657 0.960 . S
H666 C658 0.930 . S
H667 C659 0.929 . S
H668 C676 0.929 . S
H669 C678 0.930 . S
H670 C680 0.930 . S
H671 C683 0.929 . S
H672 C686 0.930 . S
H673 C688 0.960 . S
H674 C688 0.960 . S
H675 C688 0.960 . S
C676 H668 0.929 . S
C676 C677 1.377 . S
C676 C678 1.384 . S
C677 C676 1.377 . S
C677 C683 1.390 . S
C678 H669 0.930 . S
C678 C676 1.384 . S
C678 C679 1.372 . S
C679 C678 1.372 . S
C679 C680 1.400 . S
C679 C684 1.490 . S
C680 H670 0.930 . S
C680 C679 1.400 . S
C680 C683 1.386 . S
H681 C697 0.930 . S
H682 C698 0.931 . S
C683 H671 0.929 . S
C683 C677 1.390 . S
C683 C680 1.386 . S
C684 C679 1.490 . S
C684 C686 1.395 . S
C684 C687 1.403 . S
H685 C691 0.930 . S
C686 H672 0.930 . S
C686 C684 1.395 . S
C686 C689 1.403 . S
C687 C684 1.403 . S
C687 C688 1.524 . S
C687 C691 1.400 . S
C688 H673 0.960 . S
C688 H674 0.960 . S
C688 H675 0.960 . S
C688 C687 1.524 . S
C689 C686 1.403 . S
C689 C690 1.392 . S
C689 C693 1.495 . S
C690 C689 1.392 . S
C690 C691 1.385 . S
C690 C692 1.478 . S
C691 H685 0.930 . S
C691 C687 1.400 . S
C691 C690 1.385 . S
C692 C690 1.478 . S
C692 C694 1.381 . S
C692 C698 1.383 . S
C693 C689 1.495 . S
C693 H699 0.959 . S
C693 H700 0.961 . S
C693 H701 0.960 . S
C694 C692 1.381 . S
C694 C695 1.394 . S
C694 H702 0.930 . S
C695 C694 1.394 . S
C695 C696 1.383 . S
C695 H703 0.929 . S
C696 C695 1.383 . S
C696 C697 1.377 . S
C697 H681 0.930 . S
C697 C696 1.377 . S
C697 C698 1.379 . S
C698 H682 0.931 . S
C698 C692 1.383 . S
C698 C697 1.379 . S
H699 C693 0.959 . S
H700 C693 0.961 . S
H701 C693 0.960 . S
H702 C694 0.930 . S
H703 C695 0.929 . S
H704 C712 0.929 . S
H705 C714 0.930 . S
H706 C716 0.930 . S
H707 C719 0.929 . S
H708 C722 0.930 . S
H709 C724 0.960 . S
H710 C724 0.960 . S
H711 C724 0.960 . S
C712 H704 0.929 . S
C712 C713 1.377 . S
C712 C714 1.384 . S
C713 C712 1.377 . S
C713 C719 1.390 . S
C714 H705 0.930 . S
C714 C712 1.384 . S
C714 C715 1.372 . S
C715 C714 1.372 . S
C715 C716 1.400 . S
C715 C720 1.490 . S
C716 H706 0.930 . S
C716 C715 1.400 . S
C716 C719 1.386 . S
H717 C733 0.930 . S
H718 C734 0.931 . S
C719 H707 0.929 . S
C719 C713 1.390 . S
C719 C716 1.386 . S
C720 C715 1.490 . S
C720 C722 1.395 . S
C720 C723 1.403 . S
H721 C727 0.930 . S
C722 H708 0.930 . S
C722 C720 1.395 . S
C722 C725 1.403 . S
C723 C720 1.403 . S
C723 C724 1.524 . S
C723 C727 1.400 . S
C724 H709 0.960 . S
C724 H710 0.960 . S
C724 H711 0.960 . S
C724 C723 1.524 . S
C725 C722 1.403 . S
C725 C726 1.392 . S
C725 C729 1.495 . S
C726 C725 1.392 . S
C726 C727 1.385 . S
C726 C728 1.478 . S
C727 H721 0.930 . S
C727 C723 1.400 . S
C727 C726 1.385 . S
C728 C726 1.478 . S
C728 C730 1.381 . S
C728 C734 1.383 . S
C729 C725 1.495 . S
C729 H735 0.959 . S
C729 H736 0.961 . S
C729 H737 0.960 . S
C730 C728 1.381 . S
C730 C731 1.394 . S
C730 H738 0.930 . S
C731 C730 1.394 . S
C731 C732 1.383 . S
C731 H739 0.929 . S
C732 C731 1.383 . S
C732 C733 1.377 . S
C733 H717 0.930 . S
C733 C732 1.377 . S
C733 C734 1.379 . S
C734 H718 0.931 . S
C734 C728 1.383 . S
C734 C733 1.379 . S
H735 C729 0.959 . S
H736 C729 0.961 . S
H737 C729 0.960 . S
H738 C730 0.930 . S
H739 C731 0.929 . S
H740 C748 0.929 . S
H741 C750 0.930 . S
H742 C752 0.930 . S
H743 C755 0.929 . S
H744 C758 0.930 . S
H745 C760 0.960 . S
H746 C760 0.960 . S
H747 C760 0.960 . S
C748 H740 0.929 . S
C748 C749 1.377 . S
C748 C750 1.384 . S
C749 C748 1.377 . S
C749 C755 1.390 . S
C750 H741 0.930 . S
C750 C748 1.384 . S
C750 C751 1.372 . S
C751 C750 1.372 . S
C751 C752 1.400 . S
C751 C756 1.490 . S
C752 H742 0.930 . S
C752 C751 1.400 . S
C752 C755 1.386 . S
H753 C769 0.930 . S
H754 C770 0.931 . S
C755 H743 0.929 . S
C755 C749 1.390 . S
C755 C752 1.386 . S
C756 C751 1.490 . S
C756 C758 1.395 . S
C756 C759 1.403 . S
H757 C763 0.930 . S
C758 H744 0.930 . S
C758 C756 1.395 . S
C758 C761 1.403 . S
C759 C756 1.403 . S
C759 C760 1.524 . S
C759 C763 1.400 . S
C760 H745 0.960 . S
C760 H746 0.960 . S
C760 H747 0.960 . S
C760 C759 1.524 . S
C761 C758 1.403 . S
C761 C762 1.392 . S
C761 C765 1.495 . S
C762 C761 1.392 . S
C762 C763 1.385 . S
C762 C764 1.478 . S
C763 H757 0.930 . S
C763 C759 1.400 . S
C763 C762 1.385 . S
C764 C762 1.478 . S
C764 C766 1.381 . S
C764 C770 1.383 . S
C765 C761 1.495 . S
C765 H771 0.959 . S
C765 H772 0.961 . S
C765 H773 0.960 . S
C766 C764 1.381 . S
C766 C767 1.394 . S
C766 H774 0.930 . S
C767 C766 1.394 . S
C767 C768 1.383 . S
C767 H775 0.929 . S
C768 C767 1.383 . S
C768 C769 1.377 . S
C769 H753 0.930 . S
C769 C768 1.377 . S
C769 C770 1.379 . S
C770 H754 0.931 . S
C770 C764 1.383 . S
C770 C769 1.379 . S
H771 C765 0.959 . S
H772 C765 0.961 . S
H773 C765 0.960 . S
H774 C766 0.930 . S
H775 C767 0.929 . S
H776 C784 0.929 . S
H777 C786 0.930 . S
H778 C788 0.930 . S
H779 C791 0.929 . S
H780 C794 0.930 . S
H781 C796 0.960 . S
H782 C796 0.960 . S
H783 C796 0.960 . S
C784 H776 0.929 . S
C784 C785 1.377 . S
C784 C786 1.384 . S
C785 C784 1.377 . S
C785 C791 1.390 . S
C786 H777 0.930 . S
C786 C784 1.384 . S
C786 C787 1.372 . S
C787 C786 1.372 . S
C787 C788 1.400 . S
C787 C792 1.490 . S
C788 H778 0.930 . S
C788 C787 1.400 . S
C788 C791 1.386 . S
H789 C805 0.930 . S
H790 C806 0.931 . S
C791 H779 0.929 . S
C791 C785 1.390 . S
C791 C788 1.386 . S
C792 C787 1.490 . S
C792 C794 1.395 . S
C792 C795 1.403 . S
H793 C799 0.930 . S
C794 H780 0.930 . S
C794 C792 1.395 . S
C794 C797 1.403 . S
C795 C792 1.403 . S
C795 C796 1.524 . S
C795 C799 1.400 . S
C796 H781 0.960 . S
C796 H782 0.960 . S
C796 H783 0.960 . S
C796 C795 1.524 . S
C797 C794 1.403 . S
C797 C798 1.392 . S
C797 C801 1.495 . S
C798 C797 1.392 . S
C798 C799 1.385 . S
C798 C800 1.478 . S
C799 H793 0.930 . S
C799 C795 1.400 . S
C799 C798 1.385 . S
C800 C798 1.478 . S
C800 C802 1.381 . S
C800 C806 1.383 . S
C801 C797 1.495 . S
C801 H807 0.959 . S
C801 H808 0.961 . S
C801 H809 0.960 . S
C802 C800 1.381 . S
C802 C803 1.394 . S
C802 H810 0.930 . S
C803 C802 1.394 . S
C803 C804 1.383 . S
C803 H811 0.929 . S
C804 C803 1.383 . S
C804 C805 1.377 . S
C805 H789 0.930 . S
C805 C804 1.377 . S
C805 C806 1.379 . S
C806 H790 0.931 . S
C806 C800 1.383 . S
C806 C805 1.379 . S
H807 C801 0.959 . S
H808 C801 0.961 . S
H809 C801 0.960 . S
H810 C802 0.930 . S
H811 C803 0.929 . S
H812 C820 0.929 . S
H813 C822 0.930 . S
H814 C824 0.930 . S
H815 C827 0.929 . S
H816 C830 0.930 . S
H817 C832 0.960 . S
H818 C832 0.960 . S
H819 C832 0.960 . S
C820 H812 0.929 . S
C820 C821 1.377 . S
C820 C822 1.384 . S
C821 C820 1.377 . S
C821 C827 1.390 . S
C822 H813 0.930 . S
C822 C820 1.384 . S
C822 C823 1.372 . S
C823 C822 1.372 . S
C823 C824 1.400 . S
C823 C828 1.490 . S
C824 H814 0.930 . S
C824 C823 1.400 . S
C824 C827 1.386 . S
H825 C841 0.930 . S
H826 C842 0.931 . S
C827 H815 0.929 . S
C827 C821 1.390 . S
C827 C824 1.386 . S
C828 C823 1.490 . S
C828 C830 1.395 . S
C828 C831 1.403 . S
H829 C835 0.930 . S
C830 H816 0.930 . S
C830 C828 1.395 . S
C830 C833 1.403 . S
C831 C828 1.403 . S
C831 C832 1.524 . S
C831 C835 1.400 . S
C832 H817 0.960 . S
C832 H818 0.960 . S
C832 H819 0.960 . S
C832 C831 1.524 . S
C833 C830 1.403 . S
C833 C834 1.392 . S
C833 C837 1.495 . S
C834 C833 1.392 . S
C834 C835 1.385 . S
C834 C836 1.478 . S
C835 H829 0.930 . S
C835 C831 1.400 . S
C835 C834 1.385 . S
C836 C834 1.478 . S
C836 C838 1.381 . S
C836 C842 1.383 . S
C837 C833 1.495 . S
C837 H843 0.959 . S
C837 H844 0.961 . S
C837 H845 0.960 . S
C838 C836 1.381 . S
C838 C839 1.394 . S
C838 H846 0.930 . S
C839 C838 1.394 . S
C839 C840 1.383 . S
C839 H847 0.929 . S
C840 C839 1.383 . S
C840 C841 1.377 . S
C841 H825 0.930 . S
C841 C840 1.377 . S
C841 C842 1.379 . S
C842 H826 0.931 . S
C842 C836 1.383 . S
C842 C841 1.379 . S
H843 C837 0.959 . S
H844 C837 0.961 . S
H845 C837 0.960 . S
H846 C838 0.930 . S
H847 C839 0.929 . S
H848 C856 0.929 . S
H849 C858 0.930 . S
H850 C860 0.930 . S
H851 C863 0.929 . S
H852 C866 0.930 . S
H853 C868 0.960 . S
H854 C868 0.960 . S
H855 C868 0.960 . S
C856 H848 0.929 . S
C856 C857 1.377 . S
C856 C858 1.384 . S
C857 C856 1.377 . S
C857 C863 1.390 . S
C858 H849 0.930 . S
C858 C856 1.384 . S
C858 C859 1.372 . S
C859 C858 1.372 . S
C859 C860 1.400 . S
C859 C864 1.490 . S
C860 H850 0.930 . S
C860 C859 1.400 . S
C860 C863 1.386 . S
H861 C877 0.930 . S
H862 C878 0.931 . S
C863 H851 0.929 . S
C863 C857 1.390 . S
C863 C860 1.386 . S
C864 C859 1.490 . S
C864 C866 1.395 . S
C864 C867 1.403 . S
H865 C871 0.930 . S
C866 H852 0.930 . S
C866 C864 1.395 . S
C866 C869 1.403 . S
C867 C864 1.403 . S
C867 C868 1.524 . S
C867 C871 1.400 . S
C868 H853 0.960 . S
C868 H854 0.960 . S
C868 H855 0.960 . S
C868 C867 1.524 . S
C869 C866 1.403 . S
C869 C870 1.392 . S
C869 C873 1.495 . S
C870 C869 1.392 . S
C870 C871 1.385 . S
C870 C872 1.478 . S
C871 H865 0.930 . S
C871 C867 1.400 . S
C871 C870 1.385 . S
C872 C870 1.478 . S
C872 C874 1.381 . S
C872 C878 1.383 . S
C873 C869 1.495 . S
C873 H879 0.959 . S
C873 H880 0.961 . S
C873 H881 0.960 . S
C874 C872 1.381 . S
C874 C875 1.394 . S
C874 H882 0.930 . S
C875 C874 1.394 . S
C875 C876 1.383 . S
C875 H883 0.929 . S
C876 C875 1.383 . S
C876 C877 1.377 . S
C877 H861 0.930 . S
C877 C876 1.377 . S
C877 C878 1.379 . S
C878 H862 0.931 . S
C878 C872 1.383 . S
C878 C877 1.379 . S
H879 C873 0.959 . S
H880 C873 0.961 . S
H881 C873 0.960 . S
H882 C874 0.930 . S
H883 C875 0.929 . S
H884 C892 0.929 . S
H885 C894 0.930 . S
H886 C896 0.930 . S
H887 C899 0.929 . S
H888 C902 0.930 . S
H889 C904 0.960 . S
H890 C904 0.960 . S
H891 C904 0.960 . S
C892 H884 0.929 . S
C892 C893 1.377 . S
C892 C894 1.384 . S
C893 C892 1.377 . S
C893 C899 1.390 . S
C894 H885 0.930 . S
C894 C892 1.384 . S
C894 C895 1.372 . S
C895 C894 1.372 . S
C895 C896 1.400 . S
C895 C900 1.490 . S
C896 H886 0.930 . S
C896 C895 1.400 . S
C896 C899 1.386 . S
H897 C913 0.930 . S
H898 C914 0.931 . S
C899 H887 0.929 . S
C899 C893 1.390 . S
C899 C896 1.386 . S
C900 C895 1.490 . S
C900 C902 1.395 . S
C900 C903 1.403 . S
H901 C907 0.930 . S
C902 H888 0.930 . S
C902 C900 1.395 . S
C902 C905 1.403 . S
C903 C900 1.403 . S
C903 C904 1.524 . S
C903 C907 1.400 . S
C904 H889 0.960 . S
C904 H890 0.960 . S
C904 H891 0.960 . S
C904 C903 1.524 . S
C905 C902 1.403 . S
C905 C906 1.392 . S
C905 C909 1.495 . S
C906 C905 1.392 . S
C906 C907 1.385 . S
C906 C908 1.478 . S
C907 H901 0.930 . S
C907 C903 1.400 . S
C907 C906 1.385 . S
C908 C906 1.478 . S
C908 C910 1.381 . S
C908 C914 1.383 . S
C909 C905 1.495 . S
C909 H915 0.959 . S
C909 H916 0.961 . S
C909 H917 0.960 . S
C910 C908 1.381 . S
C910 C911 1.394 . S
C910 H918 0.930 . S
C911 C910 1.394 . S
C911 C912 1.383 . S
C911 H919 0.929 . S
C912 C911 1.383 . S
C912 C913 1.377 . S
C913 H897 0.930 . S
C913 C912 1.377 . S
C913 C914 1.379 . S
C914 H898 0.931 . S
C914 C908 1.383 . S
C914 C913 1.379 . S
H915 C909 0.959 . S
H916 C909 0.961 . S
H917 C909 0.960 . S
H918 C910 0.930 . S
H919 C911 0.929 . S
H920 C928 0.929 . S
H921 C930 0.930 . S
H922 C932 0.930 . S
H923 C935 0.929 . S
H924 C938 0.930 . S
H925 C940 0.960 . S
H926 C940 0.960 . S
H927 C940 0.960 . S
C928 H920 0.929 . S
C928 C929 1.377 . S
C928 C930 1.384 . S
C929 C928 1.377 . S
C929 C935 1.390 . S
C930 H921 0.930 . S
C930 C928 1.384 . S
C930 C931 1.372 . S
C931 C930 1.372 . S
C931 C932 1.400 . S
C931 C936 1.490 . S
C932 H922 0.930 . S
C932 C931 1.400 . S
C932 C935 1.386 . S
H933 C949 0.930 . S
H934 C950 0.931 . S
C935 H923 0.929 . S
C935 C929 1.390 . S
C935 C932 1.386 . S
C936 C931 1.490 . S
C936 C938 1.395 . S
C936 C939 1.403 . S
H937 C943 0.930 . S
C938 H924 0.930 . S
C938 C936 1.395 . S
C938 C941 1.403 . S
C939 C936 1.403 . S
C939 C940 1.524 . S
C939 C943 1.400 . S
C940 H925 0.960 . S
C940 H926 0.960 . S
C940 H927 0.960 . S
C940 C939 1.524 . S
C941 C938 1.403 . S
C941 C942 1.392 . S
C941 C945 1.495 . S
C942 C941 1.392 . S
C942 C943 1.385 . S
C942 C944 1.478 . S
C943 H937 0.930 . S
C943 C939 1.400 . S
C943 C942 1.385 . S
C944 C942 1.478 . S
C944 C946 1.381 . S
C944 C950 1.383 . S
C945 C941 1.495 . S
C945 H951 0.959 . S
C945 H952 0.961 . S
C945 H953 0.960 . S
C946 C944 1.381 . S
C946 C947 1.394 . S
C946 H954 0.930 . S
C947 C946 1.394 . S
C947 C948 1.383 . S
C947 H955 0.929 . S
C948 C947 1.383 . S
C948 C949 1.377 . S
C949 H933 0.930 . S
C949 C948 1.377 . S
C949 C950 1.379 . S
C950 H934 0.931 . S
C950 C944 1.383 . S
C950 C949 1.379 . S
H951 C945 0.959 . S
H952 C945 0.961 . S
H953 C945 0.960 . S
H954 C946 0.930 . S
H955 C947 0.929 . S
H956 C964 0.929 . S
H957 C966 0.930 . S
H958 C968 0.930 . S
H959 C971 0.929 . S
H960 C974 0.930 . S
H961 C976 0.960 . S
H962 C976 0.960 . S
H963 C976 0.960 . S
C964 H956 0.929 . S
C964 C965 1.377 . S
C964 C966 1.384 . S
C965 C964 1.377 . S
C965 C971 1.390 . S
C966 H957 0.930 . S
C966 C964 1.384 . S
C966 C967 1.372 . S
C967 C966 1.372 . S
C967 C968 1.400 . S
C967 C972 1.490 . S
C968 H958 0.930 . S
C968 C967 1.400 . S
C968 C971 1.386 . S
H969 C985 0.930 . S
H970 C986 0.931 . S
C971 H959 0.929 . S
C971 C965 1.390 . S
C971 C968 1.386 . S
C972 C967 1.490 . S
C972 C974 1.395 . S
C972 C975 1.403 . S
H973 C979 0.930 . S
C974 H960 0.930 . S
C974 C972 1.395 . S
C974 C977 1.403 . S
C975 C972 1.403 . S
C975 C976 1.524 . S
C975 C979 1.400 . S
C976 H961 0.960 . S
C976 H962 0.960 . S
C976 H963 0.960 . S
C976 C975 1.524 . S
C977 C974 1.403 . S
C977 C978 1.392 . S
C977 C981 1.495 . S
C978 C977 1.392 . S
C978 C979 1.385 . S
C978 C980 1.478 . S
C979 H973 0.930 . S
C979 C975 1.400 . S
C979 C978 1.385 . S
C980 C978 1.478 . S
C980 C982 1.381 . S
C980 C986 1.383 . S
C981 C977 1.495 . S
C981 H987 0.959 . S
C981 H988 0.961 . S
C981 H989 0.960 . S
C982 C980 1.381 . S
C982 C983 1.394 . S
C982 H990 0.930 . S
C983 C982 1.394 . S
C983 C984 1.383 . S
C983 H991 0.929 . S
C984 C983 1.383 . S
C984 C985 1.377 . S
C985 H969 0.930 . S
C985 C984 1.377 . S
C985 C986 1.379 . S
C986 H970 0.931 . S
C986 C980 1.383 . S
C986 C985 1.379 . S
H987 C981 0.959 . S
H988 C981 0.961 . S
H989 C981 0.960 . S
H990 C982 0.930 . S
H991 C983 0.929 . S
H992 C1000 0.929 . S
H993 C1002 0.930 . S
H994 C1004 0.930 . S
H995 C1007 0.929 . S
H996 C1010 0.930 . S
H997 C1012 0.960 . S
H998 C1012 0.960 . S
H999 C1012 0.960 . S
C1000 H992 0.929 . S
C1000 C1001 1.377 . S
C1000 C1002 1.384 . S
C1001 C1000 1.377 . S
C1001 C1007 1.390 . S
C1002 H993 0.930 . S
C1002 C1000 1.384 . S
C1002 C1003 1.372 . S
C1003 C1002 1.372 . S
C1003 C1004 1.400 . S
C1003 C1008 1.490 . S
C1004 H994 0.930 . S
C1004 C1003 1.400 . S
C1004 C1007 1.386 . S
H1005 C1021 0.930 . S
H1006 C1022 0.931 . S
C1007 H995 0.929 . S
C1007 C1001 1.390 . S
C1007 C1004 1.386 . S
C1008 C1003 1.490 . S
C1008 C1010 1.395 . S
C1008 C1011 1.403 . S
H1009 C1015 0.930 . S
C1010 H996 0.930 . S
C1010 C1008 1.395 . S
C1010 C1013 1.403 . S
C1011 C1008 1.403 . S
C1011 C1012 1.524 . S
C1011 C1015 1.400 . S
C1012 H997 0.960 . S
C1012 H998 0.960 . S
C1012 H999 0.960 . S
C1012 C1011 1.524 . S
C1013 C1010 1.403 . S
C1013 C1014 1.392 . S
C1013 C1017 1.495 . S
C1014 C1013 1.392 . S
C1014 C1015 1.385 . S
C1014 C1016 1.478 . S
C1015 H1009 0.930 . S
C1015 C1011 1.400 . S
C1015 C1014 1.385 . S
C1016 C1014 1.478 . S
C1016 C1018 1.381 . S
C1016 C1022 1.383 . S
C1017 C1013 1.495 . S
C1017 H1023 0.959 . S
C1017 H1024 0.961 . S
C1017 H1025 0.960 . S
C1018 C1016 1.381 . S
C1018 C1019 1.394 . S
C1018 H1026 0.930 . S
C1019 C1018 1.394 . S
C1019 C1020 1.383 . S
C1019 H1027 0.929 . S
C1020 C1019 1.383 . S
C1020 C1021 1.377 . S
C1021 H1005 0.930 . S
C1021 C1020 1.377 . S
C1021 C1022 1.379 . S
C1022 H1006 0.931 . S
C1022 C1016 1.383 . S
C1022 C1021 1.379 . S
H1023 C1017 0.959 . S
H1024 C1017 0.961 . S
H1025 C1017 0.960 . S
H1026 C1018 0.930 . S
H1027 C1019 0.929 . S
H1028 C1036 0.929 . S
H1029 C1038 0.930 . S
H1030 C1040 0.930 . S
H1031 C1043 0.929 . S
H1032 C1046 0.930 . S
H1033 C1048 0.960 . S
H1034 C1048 0.960 . S
H1035 C1048 0.960 . S
C1036 H1028 0.929 . S
C1036 C1037 1.377 . S
C1036 C1038 1.384 . S
C1037 C1036 1.377 . S
C1037 C1043 1.390 . S
C1038 H1029 0.930 . S
C1038 C1036 1.384 . S
C1038 C1039 1.372 . S
C1039 C1038 1.372 . S
C1039 C1040 1.400 . S
C1039 C1044 1.490 . S
C1040 H1030 0.930 . S
C1040 C1039 1.400 . S
C1040 C1043 1.386 . S
H1041 C1057 0.930 . S
H1042 C1058 0.931 . S
C1043 H1031 0.929 . S
C1043 C1037 1.390 . S
C1043 C1040 1.386 . S
C1044 C1039 1.490 . S
C1044 C1046 1.395 . S
C1044 C1047 1.403 . S
H1045 C1051 0.930 . S
C1046 H1032 0.930 . S
C1046 C1044 1.395 . S
C1046 C1049 1.403 . S
C1047 C1044 1.403 . S
C1047 C1048 1.524 . S
C1047 C1051 1.400 . S
C1048 H1033 0.960 . S
C1048 H1034 0.960 . S
C1048 H1035 0.960 . S
C1048 C1047 1.524 . S
C1049 C1046 1.403 . S
C1049 C1050 1.392 . S
C1049 C1053 1.495 . S
C1050 C1049 1.392 . S
C1050 C1051 1.385 . S
C1050 C1052 1.478 . S
C1051 H1045 0.930 . S
C1051 C1047 1.400 . S
C1051 C1050 1.385 . S
C1052 C1050 1.478 . S
C1052 C1054 1.381 . S
C1052 C1058 1.383 . S
C1053 C1049 1.495 . S
C1053 H1059 0.959 . S
C1053 H1060 0.961 . S
C1053 H1061 0.960 . S
C1054 C1052 1.381 . S
C1054 C1055 1.394 . S
C1054 H1062 0.930 . S
C1055 C1054 1.394 . S
C1055 C1056 1.383 . S
C1055 H1063 0.929 . S
C1056 C1055 1.383 . S
C1056 C1057 1.377 . S
C1057 H1041 0.930 . S
C1057 C1056 1.377 . S
C1057 C1058 1.379 . S
C1058 H1042 0.931 . S
C1058 C1052 1.383 . S
C1058 C1057 1.379 . S
H1059 C1053 0.959 . S
H1060 C1053 0.961 . S
H1061 C1053 0.960 . S
H1062 C1054 0.930 . S
H1063 C1055 0.929 . S
C209 C2 1.500 1_655 S
C228 C52 1.492 1_655 S
C245 C11 1.500 1_565 S
C264 C104 1.497 . S
C281 C0 1.500 . S
C300 C53 1.497 1_655 S
C317 C106 1.500 . S
C336 C10 1.492 . S
C353 C1 1.500 . S
C372 C51 1.501 1_655 S
C389 C8 1.500 . S
C408 C107 1.497 1_565 S
C425 C50 1.500 . S
C444 C3 1.496 1_655 S
C461 C105 1.500 . S
C480 C9 1.501 1_565 S
C497 C156 1.500 1_556 S
C516 C6 1.492 . S
C533 C157 1.500 . S
C552 C7 1.496 . S
C569 C154 1.500 1_556 S
C588 C4 1.496 1_556 S
C605 C5 1.500 1_556 S
C624 C155 1.501 . S
C641 C161 1.500 . S
C660 C57 1.501 . S
C677 C55 1.500 . S
C696 C160 1.496 . S
C713 C54 1.500 . S
C732 C158 1.492 . S
C749 C159 1.500 . S
C768 C56 1.496 . S
C785 C110 1.500 . S
C804 C59 1.497 . S
C821 C61 1.500 . S
C840 C108 1.492 . S
C857 C58 1.500 . S
C876 C111 1.501 . S
C893 C109 1.500 . S
C912 C60 1.496 . S
C929 C152 1.500 . S
C948 C101 1.496 . S
C965 C100 1.500 . S
C984 C150 1.501 . S
C1001 C151 1.500 . S
C1020 C102 1.497 . S
C1037 C103 1.500 . S
C1056 C153 1.492 . S
