# Generated by pormake.
# Topology wjf, (4)-cn, num edge types: 1
# Building blocks:
#     Node 0, Type 0, BuildingBlock: ESEHIV_clean_sbu_0, # of connection points: 4
#     Node 1, Type 0, BuildingBlock: ESEHIV_clean_sbu_0, # of connection points: 4
#     Node 2, Type 0, BuildingBlock: ESEHIV_clean_sbu_0, # of connection points: 4
#     Node 3, Type 0, BuildingBlock: ESEHIV_clean_sbu_0, # of connection points: 4
#     Node 4, Type 0, BuildingBlock: ESEHIV_clean_sbu_0, # of connection points: 4
#     Node 5, Type 0, BuildingBlock: ESEHIV_clean_sbu_0, # of connection points: 4
#     Node 6, Type 0, BuildingBlock: ESEHIV_clean_sbu_0, # of connection points: 4
#     Node 7, Type 0, BuildingBlock: ESEHIV_clean_sbu_0, # of connection points: 4
#     Node 8, Type 0, BuildingBlock: ESEHIV_clean_sbu_0, # of connection points: 4
#     Node 9, Type 0, BuildingBlock: ESEHIV_clean_sbu_0, # of connection points: 4
#     Node 10, Type 0, BuildingBlock: ESEHIV_clean_sbu_0, # of connection points: 4
#     Node 11, Type 0, BuildingBlock: ESEHIV_clean_sbu_0, # of connection points: 4
#     Edge 12, Type (0, 0), BuildingBlock: XUDNAN_clean_linker_2, # of connection points: 2
#     Edge 13, Type (0, 0), BuildingBlock: XUDNAN_clean_linker_2, # of connection points: 2
#     Edge 14, Type (0, 0), BuildingBlock: XUDNAN_clean_linker_2, # of connection points: 2
#     Edge 15, Type (0, 0), BuildingBlock: XUDNAN_clean_linker_2, # of connection points: 2
#     Edge 16, Type (0, 0), BuildingBlock: XUDNAN_clean_linker_2, # of connection points: 2
#     Edge 17, Type (0, 0), BuildingBlock: XUDNAN_clean_linker_2, # of connection points: 2
#     Edge 18, Type (0, 0), BuildingBlock: XUDNAN_clean_linker_2, # of connection points: 2
#     Edge 19, Type (0, 0), BuildingBlock: XUDNAN_clean_linker_2, # of connection points: 2
#     Edge 20, Type (0, 0), BuildingBlock: XUDNAN_clean_linker_2, # of connection points: 2
#     Edge 21, Type (0, 0), BuildingBlock: XUDNAN_clean_linker_2, # of connection points: 2
#     Edge 22, Type (0, 0), BuildingBlock: XUDNAN_clean_linker_2, # of connection points: 2
#     Edge 23, Type (0, 0), BuildingBlock: XUDNAN_clean_linker_2, # of connection points: 2
#     Edge 24, Type (0, 0), BuildingBlock: XUDNAN_clean_linker_2, # of connection points: 2
#     Edge 25, Type (0, 0), BuildingBlock: XUDNAN_clean_linker_2, # of connection points: 2
#     Edge 26, Type (0, 0), BuildingBlock: XUDNAN_clean_linker_2, # of connection points: 2
#     Edge 27, Type (0, 0), BuildingBlock: XUDNAN_clean_linker_2, # of connection points: 2
#     Edge 28, Type (0, 0), BuildingBlock: XUDNAN_clean_linker_2, # of connection points: 2
#     Edge 29, Type (0, 0), BuildingBlock: XUDNAN_clean_linker_2, # of connection points: 2
#     Edge 30, Type (0, 0), BuildingBlock: XUDNAN_clean_linker_2, # of connection points: 2
#     Edge 31, Type (0, 0), BuildingBlock: XUDNAN_clean_linker_2, # of connection points: 2
#     Edge 32, Type (0, 0), BuildingBlock: XUDNAN_clean_linker_2, # of connection points: 2
#     Edge 33, Type (0, 0), BuildingBlock: XUDNAN_clean_linker_2, # of connection points: 2
#     Edge 34, Type (0, 0), BuildingBlock: XUDNAN_clean_linker_2, # of connection points: 2
#     Edge 35, Type (0, 0), BuildingBlock: XUDNAN_clean_linker_2, # of connection points: 2
# Relax obj value: 0.107
# Max RMSD: 0.236
# Mean RMSD: 0.236
data_MOF--net-wjf--node1-ESEHIV_clean_sbu_0--edge1-XUDNAN_clean_linker_2
_symmetry_space_group_name_H-M    P1
_symmetry_Int_Tables_number       1
_symmetry_cell_setting            triclinic
loop_
_symmetry_equiv_pos_as_xyz
'x, y, z'
_cell_length_a     59.063345
_cell_length_b     59.041632
_cell_length_c     28.438658
_cell_angle_alpha  89.987677
_cell_angle_beta   90.097224
_cell_angle_gamma 119.94784
loop_
_atom_site_label
_atom_site_type_symbol
_atom_site_fract_x
_atom_site_fract_y
_atom_site_fract_z
_atom_type_partial_charge
Cu0 Cu 0.34795 0.3949 0.12723 0.0
N1 N 0.37562 0.42915 0.1207 0.0
N2 N 0.41672 0.4622 0.1232 0.0
C3 C 0.39998 0.43753 0.13685 0.0
C4 C 0.40248 0.46982 0.09758 0.0
C5 C 0.37697 0.44944 0.09658 0.0
O6 O 0.35372 0.38345 0.18873 0.0
C7 C 0.34993 0.38368 0.03146 0.0
O8 O 0.35145 0.40653 0.02721 0.0
H9 H 0.40557 0.42539 0.15655 0.0
H10 H 0.3608 0.44919 0.07826 0.0
N11 N 0.31558 0.39354 0.13021 0.0
N12 N 0.27958 0.39543 0.11318 0.0
C13 C 0.30447 0.40315 0.10065 0.0
C14 C 0.29711 0.37959 0.16239 0.0
C15 C 0.27491 0.38061 0.1519 0.0
C16 C 0.34317 0.36015 0.2043 0.0
O17 O 0.32792 0.34067 0.17642 0.0
H18 H 0.31394 0.41457 0.06963 0.0
H19 H 0.29938 0.36878 0.19091 0.0
O20 O 0.34807 0.37424 0.0727 0.0
H21 H 0.41008 0.4886 0.08045 0.0
H22 H 0.25661 0.37097 0.17092 0.0
Cu23 Cu 0.95053 0.33531 0.44831 0.0
N24 N 0.93977 0.35973 0.45852 0.0
N25 N 0.94073 0.39803 0.46064 0.0
C26 C 0.95357 0.3854 0.44828 0.0
C27 C 0.91778 0.3795 0.47879 0.0
C28 C 0.91728 0.35587 0.47753 0.0
O29 O 0.97355 0.33778 0.50019 0.0
C30 C 0.97422 0.32993 0.36176 0.0
O31 O 0.9747 0.30987 0.38069 0.0
H32 H 0.97269 0.39462 0.43207 0.0
H33 H 0.90174 0.33724 0.48997 0.0
N34 N 0.92162 0.30159 0.45227 0.0
N35 N 0.88277 0.26539 0.44367 0.0
C36 C 0.9001 0.28883 0.42495 0.0
C37 C 0.91774 0.28559 0.48881 0.0
C38 C 0.89388 0.26336 0.48369 0.0
C39 C 0.98852 0.35851 0.52317 0.0
O40 O 0.99274 0.38116 0.5073 0.0
H41 H 0.89675 0.2969 0.39326 0.0
H42 H 0.93113 0.29013 0.51792 0.0
O43 O 0.96581 0.34246 0.38557 0.0
H44 H 0.90273 0.38288 0.49297 0.0
H45 H 0.88518 0.24701 0.50783 0.0
Cu46 Cu 0.62423 0.95987 0.75989 0.0
N47 N 0.5928 0.9589 0.74626 0.0
N48 N 0.56165 0.96982 0.74757 0.0
C49 C 0.58224 0.97097 0.77045 0.0
C50 C 0.55905 0.9564 0.70764 0.0
C51 C 0.57823 0.94956 0.70705 0.0
O52 O 0.63804 0.98156 0.81615 0.0
C53 C 0.64537 0.99007 0.67797 0.0
O54 O 0.63183 1.00086 0.69248 0.0
H55 H 0.59036 0.98163 0.80284 0.0
H56 H 0.5821 0.93958 0.67901 0.0
N57 N 0.61672 0.92595 0.77441 0.0
N58 N 0.6144 0.88694 0.77418 0.0
C59 C 0.62327 0.91002 0.75151 0.0
C60 C 0.60318 0.9125 0.81239 0.0
C61 C 0.60174 0.88852 0.81242 0.0
C62 C 0.65225 0.97943 0.84767 0.0
O63 O 0.66191 0.96395 0.84033 0.0
H64 H 0.63463 0.91541 0.71945 0.0
H65 H 0.595 0.91976 0.83835 0.0
O66 O 0.64644 0.97299 0.7039 0.0
H67 H 0.54467 0.95233 0.68042 0.0
H68 H 0.59184 0.87331 0.8384 0.0
Cu69 Cu 0.67536 0.6202 0.10003 0.0
N70 N 0.64771 0.58597 0.1025 0.0
N71 N 0.60669 0.55346 0.1111 0.0
C72 C 0.62499 0.57748 0.12562 0.0
C73 C 0.61825 0.54652 0.07773 0.0
C74 C 0.64365 0.56661 0.07265 0.0
O75 O 0.66972 0.63853 0.15228 0.0
C76 C 0.68502 0.65318 1.01556 0.0
O77 O 0.70181 0.67409 0.03892 0.0
H78 H 0.62125 0.58951 0.14954 0.0
H79 H 0.65756 0.56786 0.04662 0.0
N80 N 0.7067 0.61979 0.10596 0.0
N81 N 0.7452 0.62323 0.08775 0.0
C82 C 0.72549 0.62702 0.07319 0.0
C83 C 0.71452 0.61088 0.14242 0.0
C84 C 0.73828 0.61309 0.13147 0.0
C85 C 0.6862 0.65128 0.18471 0.0
O86 O 0.71048 0.65658 0.18024 0.0
H87 H 0.72425 0.63424 0.0389 0.0
H88 H 0.70361 0.60318 0.17463 0.0
O89 O 0.67278 0.63123 0.03647 0.0
H90 H 0.60862 0.52879 0.05698 0.0
H91 H 0.74949 0.60765 0.15417 0.0
Cu92 Cu 0.05239 0.66397 0.4482 0.0
N93 N 0.05234 0.63236 0.45011 0.0
N94 N 0.03635 0.58907 0.44977 0.0
C95 C 0.03079 0.60863 0.453 0.0
C96 C 0.06262 0.60122 0.44486 0.0
C97 C 0.07239 0.6279 0.44497 0.0
O98 O 0.03645 0.66728 0.50643 0.0
C99 C 0.03591 0.67827 0.36068 0.0
O100 O 0.05378 0.70279 0.36773 0.0
H101 H 0.01141 0.60599 0.45697 0.0
H102 H 0.09257 0.64295 0.44041 0.0
N103 N 0.08678 0.692 0.44532 0.0
N104 N 0.12533 0.72448 0.41996 0.0
C105 C 0.10204 0.70366 0.40758 0.0
C106 C 0.10104 0.70558 0.48274 0.0
C107 C 0.12471 0.72553 0.46734 0.0
C108 C 0.04134 0.65961 0.54519 0.0
O109 O 0.05645 0.64917 0.54469 0.0
H110 H 0.09584 0.69742 0.3718 0.0
H111 H 0.09451 0.70149 0.51882 0.0
O112 O 0.03222 0.66109 0.39156 0.0
H113 H 0.07399 0.59163 0.44003 0.0
H114 H 0.1402 0.73972 0.48954 0.0
Cu115 Cu 0.39035 0.05248 0.77273 0.0
N116 N 0.42612 0.06402 0.77124 0.0
N117 N 0.46156 0.05968 0.77416 0.0
C118 C 0.43671 0.05017 0.78859 0.0
C119 C 0.46696 0.08043 0.74683 0.0
C120 C 0.44508 0.08319 0.74532 0.0
O121 O 0.37726 0.03584 0.83407 0.0
C122 C 0.38228 0.03946 0.67834 0.0
O123 O 0.39932 0.06457 0.67618 0.0
H124 H 0.42572 0.03221 0.80827 0.0
H125 H 0.44269 0.09708 0.72423 0.0
N126 N 0.38233 0.07925 0.76498 0.0
N127 N 0.38295 0.11688 0.75153 0.0
C128 C 0.39744 0.1055 0.76129 0.0
C129 C 0.3577 0.07412 0.75789 0.0
C130 C 0.358 0.09716 0.7495 0.0
C131 C 0.38149 0.05079 0.86938 0.0
O132 O 0.39356 0.07617 0.86253 0.0
H133 H 0.41852 0.11592 0.76404 0.0
H134 H 0.34072 0.05473 0.75772 0.0
O135 O 0.37464 0.02897 0.71878 0.0
H136 H 0.485 0.09203 0.72776 0.0
H137 H 0.34116 0.09926 0.74198 0.0
Cu138 Cu 0.62904 0.67689 0.60313 0.0
N139 N 0.59485 0.65101 0.61643 0.0
N140 N 0.56037 0.6106 0.6194 0.0
C141 C 0.58215 0.62735 0.59565 0.0
C142 C 0.55925 0.62428 0.65646 0.0
C143 C 0.58056 0.6492 0.65455 0.0
O144 O 0.63553 0.66974 0.53885 0.0
C145 C 0.66185 0.68846 0.68555 0.0
O146 O 0.66492 0.71204 0.6837 0.0
H147 H 0.58988 0.62189 0.566 0.0
H148 H 0.58619 0.66428 0.68089 0.0
N149 N 0.63207 0.71007 0.60495 0.0
N150 N 0.63118 0.74579 0.62894 0.0
C151 C 0.62498 0.72097 0.63941 0.0
C152 C 0.6428 0.72847 0.57135 0.0
C153 C 0.6423 0.75046 0.58597 0.0
C154 C 0.65694 0.67951 0.51613 0.0
O155 O 0.67893 0.69585 0.53729 0.0
H156 H 0.61585 0.71101 0.67177 0.0
H157 H 0.65086 0.72621 0.53875 0.0
O158 O 0.64992 0.6724 0.6521 0.0
H159 H 0.54476 0.61645 0.68411 0.0
H160 H 0.65028 0.76873 0.56695 0.0
Cu161 Cu 0.95863 0.61672 0.94086 0.0
N162 N 0.95209 0.58278 0.9309 0.0
N163 N 0.95887 0.54933 0.91777 0.0
C164 C 0.9699 0.57488 0.9292 0.0
C165 C 0.93315 0.54087 0.91232 0.0
C166 C 0.92903 0.56153 0.92054 0.0
O167 O 0.98407 0.63783 0.89266 0.0
C168 C 0.98197 0.64687 0.02742 0.0
O169 O 0.99105 0.66864 1.00323 0.0
H170 H 0.99063 0.58783 0.93463 0.0
H171 H 0.91059 0.56121 0.91827 0.0
N172 N 0.92765 0.61719 0.92954 0.0
N173 N 0.89286 0.62241 0.93622 0.0
C174 C 0.91286 0.62224 0.95912 0.0
C175 C 0.91641 0.61374 0.88698 0.0
C176 C 0.89507 0.6171 0.89091 0.0
C177 C 0.98341 0.6564 0.871 0.0
O178 O 0.96885 0.66556 0.88784 0.0
H179 H 0.91709 0.62649 0.99617 0.0
H180 H 0.92365 0.60963 0.85508 0.0
O181 O 0.96916 0.62493 1.00658 0.0
H182 H 0.91839 0.52117 0.9029 0.0
H183 H 0.88218 0.61583 0.86263 0.0
Cu184 Cu 0.33485 0.94335 0.26927 0.0
N185 N 0.36143 0.93508 0.27276 0.0
N186 N 0.401 0.93881 0.27204 0.0
C187 C 0.38723 0.95127 0.26625 0.0
C188 C 0.38309 0.91387 0.28269 0.0
C189 C 0.35875 0.91166 0.28316 0.0
O190 O 0.34304 0.96873 0.21845 0.0
C191 C 0.35081 0.97507 0.35159 0.0
O192 O 0.37262 0.98895 0.3281 0.0
H193 H 0.39563 0.97167 0.25691 0.0
H194 H 0.34039 0.89424 0.29085 0.0
N195 N 0.30329 0.91312 0.25444 0.0
N196 N 0.26739 0.87364 0.2583 0.0
C197 C 0.28844 0.89219 0.28184 0.0
C198 C 0.29101 0.90769 0.21258 0.0
C199 C 0.26899 0.88338 0.21478 0.0
C200 C 0.34912 0.96376 0.17818 0.0
O201 O 0.35053 0.94238 0.17307 0.0
H202 H 0.29323 0.8904 0.3179 0.0
H203 H 0.29754 0.9205 0.1824 0.0
O204 O 0.33173 0.95562 0.33145 0.0
H205 H 0.38725 0.89837 0.29042 0.0
H206 H 0.25504 0.87376 0.18666 0.0
Cu207 Cu 0.39763 0.34771 0.62906 0.0
N208 N 0.43023 0.37824 0.6332 0.0
N209 N 0.46191 0.42009 0.62954 0.0
C210 C 0.43962 0.4011 0.6099 0.0
C211 C 0.46693 0.40868 0.66605 0.0
C212 C 0.44743 0.38292 0.66811 0.0
O213 O 0.37987 0.34541 0.56899 0.0
C214 C 0.36439 0.327 0.71134 0.0
O215 O 0.3577 0.30375 0.69463 0.0
H216 H 0.42973 0.40429 0.58094 0.0
H217 H 0.44513 0.36886 0.69478 0.0
N218 N 0.40323 0.31912 0.62683 0.0
N219 N 0.40683 0.28397 0.64306 0.0
C220 C 0.40641 0.305 0.66101 0.0
C221 C 0.40225 0.30688 0.58634 0.0
C222 C 0.40433 0.28523 0.59618 0.0
C223 C 0.37627 0.36191 0.54602 0.0
O224 O 0.38252 0.38456 0.56501 0.0
H225 H 0.40704 0.30922 0.69818 0.0
H226 H 0.39933 0.31287 0.55197 0.0
O227 O 0.37897 0.34716 0.68672 0.0
H228 H 0.48307 0.41849 0.69045 0.0
H229 H 0.40348 0.27112 0.57088 0.0
Cu230 Cu 0.0593 0.39071 0.94727 0.0
N231 N 0.06644 0.42526 0.94415 0.0
N232 N 0.05727 0.45725 0.93168 0.0
C233 C 0.04899 0.43153 0.92734 0.0
C234 C 0.08097 0.46765 0.95247 0.0
C235 C 0.08661 0.44781 0.96008 0.0
O236 O 0.04097 0.37403 0.88878 0.0
C237 C 0.04099 0.36344 0.03624 0.0
O238 O 0.05913 0.3569 0.03204 0.0
H239 H 0.03007 0.41715 0.91372 0.0
H240 H 0.10386 0.44965 0.97695 0.0
N241 N 0.08918 0.38735 0.95011 0.0
N242 N 0.1268 0.3894 0.96986 0.0
C243 C 0.1116 0.4004 0.97503 0.0
C244 C 0.09053 0.36779 0.92851 0.0
C245 C 0.11359 0.36892 0.94072 0.0
C246 C 0.05115 0.38623 0.85058 0.0
O247 O 0.07317 0.40863 0.85267 0.0
H248 H 0.11616 0.41674 0.998 0.0
H249 H 0.07533 0.35319 0.90641 0.0
O250 O 0.03754 0.37601 1.00316 0.0
H251 H 0.09324 0.48802 0.96179 0.0
H252 H 0.12006 0.35555 0.92953 0.0
Cu253 Cu 0.6659 0.0537 0.26781 0.0
N254 N 0.63529 0.05521 0.27357 0.0
N255 N 0.59203 0.03928 0.27408 0.0
C256 C 0.61186 0.03589 0.25922 0.0
C257 C 0.6037 0.06203 0.29834 0.0
C258 C 0.63041 0.07175 0.29815 0.0
O259 O 0.66142 0.03569 0.20797 0.0
C260 C 0.68553 0.03441 0.3431 0.0
O261 O 0.70788 0.04427 0.32062 0.0
H262 H 0.60956 0.01918 0.23963 0.0
H263 H 0.64505 0.08886 0.31661 0.0
N264 N 0.69485 0.08744 0.26601 0.0
N265 N 0.72895 0.12556 0.28888 0.0
C266 C 0.70928 0.10193 0.30267 0.0
C267 C 0.70562 0.10235 0.22771 0.0
C268 C 0.72667 0.12583 0.24165 0.0
C269 C 0.67825 0.0356 0.18013 0.0
O270 O 0.70279 0.04626 0.19331 0.0
H271 H 0.70554 0.09505 0.33863 0.0
H272 H 0.69857 0.09654 0.19214 0.0
O273 O 0.66641 0.03537 0.3245 0.0
H274 H 0.59369 0.07038 0.31711 0.0
H275 H 0.73904 0.14196 0.21877 0.0
H276 H 0.36439 0.39602 0.27672 0.0
H277 H 0.32887 0.31312 0.24649 0.0
H278 H 0.33257 0.30455 0.33038 0.0
H279 H 0.41024 0.39924 0.36455 0.0
H280 H 0.40679 0.42228 0.40109 0.0
H281 H 0.4018 0.4219 0.33854 0.0
H282 H 0.35577 0.41576 0.35278 0.0
H283 H 0.36055 0.41594 0.41539 0.0
H284 H 0.33262 0.38876 0.38815 0.0
H285 H 0.34071 0.305 0.41779 0.0
H286 H 0.35239 0.31436 0.50175 0.0
H287 H 0.38111 0.39677 0.47639 0.0
C288 C 0.35754 0.37606 0.28763 0.0
C289 C 0.34643 0.35524 0.25469 0.0
C290 C 0.33748 0.32942 0.27079 0.0
C291 C 0.33949 0.32434 0.31848 0.0
C292 C 0.35031 0.34525 0.35 0.0
C293 C 0.35916 0.37061 0.33526 0.0
C294 C 0.36969 0.38951 0.37647 0.0
C295 C 0.39886 0.4094 0.36975 0.0
C296 C 0.3537 0.4033 0.38361 0.0
C297 C 0.36548 0.37086 0.41666 0.0
C298 C 0.35436 0.34542 0.40055 0.0
C299 C 0.34928 0.32483 0.43078 0.0
C300 C 0.35598 0.33035 0.47852 0.0
C301 C 0.36746 0.35626 0.49602 0.0
C302 C 0.372 0.3767 0.46446 0.0
H303 H 0.02251 0.39874 0.58039 0.0
H304 H 0.97414 0.31425 0.57563 0.0
H305 H 0.98469 0.31177 0.65894 0.0
H306 H 0.07318 0.40071 0.65681 0.0
H307 H 0.07792 0.42949 0.68745 0.0
H308 H 0.06728 0.42425 0.62705 0.0
H309 H 0.0271 0.42842 0.65021 0.0
H310 H 0.03744 0.43336 0.71075 0.0
H311 H 1.00525 0.4074 0.69522 0.0
H312 H 0.99797 0.31907 0.74566 0.0
H313 H 0.01666 0.33531 0.82499 0.0
H314 H 0.05748 0.41457 0.7711 0.0
C315 C 0.01442 0.37966 0.59656 0.0
C316 C 0.9975 0.35669 0.57124 0.0
C317 C 0.98727 0.33214 0.59404 0.0
C318 C 0.99304 0.33053 0.64151 0.0
C319 C 1.00929 0.35362 0.66573 0.0
C320 C 0.02014 0.37768 0.64374 0.0
C321 C 0.03688 0.39961 0.67751 0.0
C322 C 0.06551 0.41437 0.66123 0.0
C323 C 0.02601 0.41829 0.68378 0.0
C324 C 0.03369 0.38417 0.72198 0.0
C325 C 0.0175 0.35769 0.71477 0.0
C326 C 0.01092 0.33975 0.7515 0.0
C327 C 0.02149 0.34913 0.79648 0.0
C328 C 0.03869 0.37614 0.80413 0.0
C329 C 0.04467 0.39376 0.76626 0.0
H330 H 0.6872 0.98725 0.91944 0.0
H331 H 0.62107 0.99703 0.88374 0.0
H332 H 0.62056 0.01171 0.96456 0.0
H333 H 0.66778 0.96374 0.03614 0.0
H334 H 0.70011 0.98143 0.06119 0.0
H335 H 0.69597 0.9721 1.00011 0.0
H336 H 0.72637 0.02034 0.97597 0.0
H337 H 0.73083 0.02979 0.03702 0.0
H338 H 0.71922 0.04505 0.99611 0.0
H339 H 0.6246 0.02179 0.05019 0.0
H340 H 0.63663 0.03261 0.13337 0.0
H341 H 0.70238 0.01986 0.11441 0.0
C342 C 0.67281 0.99276 0.92853 0.0
C343 C 0.65414 0.99093 0.89506 0.0
C344 C 0.63567 0.99838 0.90844 0.0
C345 C 0.63511 0.00662 0.95444 0.0
C346 C 0.65342 0.00775 0.98671 0.0
C347 C 0.67227 1.00155 0.97428 0.0
C348 C 0.68996 1.00505 1.0159 0.0
C349 C 0.68835 0.97903 0.0291 0.0
C350 C 0.71828 0.02633 1.00563 0.0
C351 C 0.67782 0.01381 0.05372 0.0
C352 C 0.65657 0.01489 0.03605 0.0
C353 C 0.64139 0.02133 0.0643 0.0
C354 C 0.64833 0.02729 0.1117 0.0
C355 C 0.67052 0.02719 0.13057 0.0
C356 C 0.68542 0.02029 0.10101 0.0
H357 H 0.71572 0.67668 0.26299 0.0
H358 H 0.63597 0.63653 0.21057 0.0
H359 H 0.62018 0.64013 0.28893 0.0
H360 H 0.70217 0.64698 0.37501 0.0
H361 H 0.72542 0.67587 0.40639 0.0
H362 H 0.73087 0.6718 0.34547 0.0
H363 H 0.73421 0.71614 0.32528 0.0
H364 H 0.72903 0.72049 0.38625 0.0
H365 H 0.708 0.72184 0.34168 0.0
H366 H 0.61264 0.64502 0.37438 0.0
H367 H 0.61402 0.65385 0.45932 0.0
H368 H 0.69873 0.69189 0.45686 0.0
C369 C 0.69496 0.66902 0.26771 0.0
C370 C 0.67712 0.65637 0.23029 0.0
C371 C 0.65009 0.64644 0.23834 0.0
C372 C 0.6409 0.64831 0.28288 0.0
C373 C 0.65894 0.66034 0.31915 0.0
C374 C 0.68544 0.67083 0.31196 0.0
C375 C 0.70061 0.68233 0.35723 0.0
C376 C 0.71565 0.66841 0.37187 0.0
C377 C 0.71905 0.71196 0.3523 0.0
C378 C 0.67848 0.67632 0.39113 0.0
C379 C 0.65461 0.66357 0.36837 0.0
C380 C 0.63124 0.65523 0.39244 0.0
C381 C 0.63225 0.66026 0.44086 0.0
C382 C 0.65649 0.67367 0.46503 0.0
C383 C 0.67989 0.68175 0.43954 0.0
H384 H 1.00992 0.63716 0.82018 0.0
H385 H 0.98045 0.69126 0.81114 0.0
H386 H 0.99245 0.69854 0.72718 0.0
H387 H 0.06516 0.67263 0.73919 0.0
H388 H 0.06164 0.64292 0.71449 0.0
H389 H 0.05233 0.64347 0.77459 0.0
H390 H 1.0061 0.60464 0.75685 0.0
H391 H 0.01514 0.60418 0.69659 0.0
H392 H 0.98708 0.60746 0.70993 0.0
H393 H 1.00441 0.69709 0.64177 0.0
H394 H 0.01897 0.68989 0.56434 0.0
H395 H 0.04132 0.63755 0.62991 0.0
C396 C 1.00646 0.65096 0.80088 0.0
C397 C 0.99427 0.66368 0.82258 0.0
C398 C 0.98986 0.68134 0.79562 0.0
C399 C 0.99653 0.68555 0.74773 0.0
C400 C 1.0078 0.67213 0.72714 0.0
C401 C 0.01307 0.65547 0.75305 0.0
C402 C 0.02478 0.64296 0.72235 0.0
C403 C 0.05264 0.65098 0.73862 0.0
C404 C 1.00722 0.61304 0.72138 0.0
C405 C 0.02497 0.65491 0.67505 0.0
C406 C 0.01502 0.67162 0.6784 0.0
C407 C 0.01249 0.68425 0.63888 0.0
C408 C 0.02068 0.67994 0.59496 0.0
C409 C 0.0314 0.66327 0.59094 0.0
C410 C 0.03341 0.65059 0.63171 0.0
H411 H 0.35609 0.95434 0.08632 0.0
H412 H 0.35099 0.01129 0.17552 0.0
H413 H 0.3572 0.03884 0.1057 0.0
H414 H 0.40562 1.00007 1.00871 0.0
H415 H 0.39176 0.98017 0.95702 0.0
H416 H 0.38676 0.96499 1.01388 0.0
H417 H 0.33667 0.94139 1.0009 0.0
H418 H 0.3415 0.9566 0.94405 0.0
H419 H 0.32125 0.96034 0.98712 0.0
H420 H 0.36526 0.06072 0.02641 0.0
H421 H 0.37428 0.07535 0.94392 0.0
H422 H 0.37275 1.00349 0.90541 0.0
C423 C 0.35629 0.97262 0.09133 0.0
C424 C 0.35311 0.98067 0.13662 0.0
C425 C 0.3534 1.00469 0.14134 0.0
C426 C 0.35689 0.02045 0.10183 0.0
C427 C 0.35989 0.01186 0.05776 0.0
C428 C 0.35957 0.98848 0.05229 0.0
C429 C 0.36331 0.98375 1.00111 0.0
C430 C 0.38835 0.98216 0.99483 0.0
C431 C 0.33925 0.95905 0.98219 0.0
C432 C 0.36595 0.00823 0.97853 0.0
C433 C 0.36397 0.02419 1.01192 0.0
C434 C 0.36668 0.04829 1.0 0.0
C435 C 0.37183 0.05643 0.95296 0.0
C436 C 0.37405 0.04052 0.91803 0.0
C437 C 0.37076 0.01593 0.93109 0.0
H438 H 0.13965 0.3565 1.01196 0.0
H439 H 0.16907 0.43794 0.97817 0.0
H440 H 0.21264 0.44896 1.0102 0.0
H441 H 0.17485 0.36829 0.12249 0.0
H442 H 0.17999 0.34089 0.11467 0.0
H443 H 0.15163 0.34012 0.08942 0.0
H444 H 0.16455 0.33114 1.00735 0.0
H445 H 0.1931 0.33217 0.03225 0.0
H446 H 0.19645 0.35342 0.98399 0.0
H447 H 0.2541 0.44979 0.04097 0.0
H448 H 0.28759 0.44143 0.07728 0.0
H449 H 0.22929 0.35992 0.09489 0.0
C450 C 0.15528 0.37667 1.01162 0.0
C451 C 0.15124 0.39642 0.99248 0.0
C452 C 0.17192 0.42264 0.99298 0.0
C453 C 0.19667 0.42897 1.01078 0.0
C454 C 0.20015 0.40886 0.02864 0.0
C455 C 0.17979 0.38331 0.02999 0.0
C456 C 0.18814 0.3653 0.05195 0.0
C457 C 0.17274 0.35293 0.09733 0.0
C458 C 0.1854 0.34427 1.01678 0.0
C459 C 0.21652 0.38457 0.06234 0.0
C460 C 0.22329 0.40957 0.04818 0.0
C461 C 0.24887 0.43034 0.05268 0.0
C462 C 0.26778 0.42545 0.07297 0.0
C463 C 0.26086 0.40014 0.08914 0.0
C464 C 0.23494 0.37952 0.08338 0.0
H465 H 0.86785 0.24854 0.35374 0.0
H466 H 0.83972 0.2394 0.49697 0.0
H467 H 0.79641 0.20393 0.47173 0.0
H468 H 0.80591 0.2337 0.29507 0.0
H469 H 0.81025 0.21577 0.248 0.0
H470 H 0.83836 0.24217 0.27637 0.0
H471 H 0.85602 0.21087 0.29508 0.0
H472 H 0.82793 0.18437 0.26704 0.0
H473 H 0.83575 0.18111 0.32705 0.0
H474 H 0.75724 0.1679 0.43258 0.0
H475 H 0.72421 0.13355 0.38161 0.0
H476 H 0.7776 0.16458 0.26342 0.0
C477 C 0.85232 0.2394 0.37937 0.0
C478 C 0.857 0.24671 0.42726 0.0
C479 C 0.83647 0.23397 0.46019 0.0
C480 C 0.81182 0.21389 0.44615 0.0
C481 C 0.80794 0.20666 0.39897 0.0
C482 C 0.82754 0.21901 0.36595 0.0
C483 C 0.81853 0.20626 0.31804 0.0
C484 C 0.81824 0.22563 0.28226 0.0
C485 C 0.83557 0.19498 0.30081 0.0
C486 C 0.791 0.18469 0.32956 0.0
C487 C 0.7853 0.18543 0.37638 0.0
C488 C 0.76142 0.16715 0.39576 0.0
C489 C 0.74283 0.14754 0.36654 0.0
C490 C 0.74817 0.14617 0.31837 0.0
C491 C 0.77265 0.16519 0.29982 0.0
H492 H 0.62 0.87227 0.68579 0.0
H493 H 0.61628 0.85188 0.83329 0.0
H494 H 0.61986 0.81336 0.81191 0.0
H495 H 0.58211 0.80679 0.64243 0.0
H496 H 0.60131 0.81257 0.58995 0.0
H497 H 0.59897 0.83897 0.6167 0.0
H498 H 0.64945 0.86635 0.62236 0.0
H499 H 0.65194 0.84007 0.59545 0.0
H500 H 0.66711 0.85282 0.65168 0.0
H501 H 0.62336 0.77671 0.77478 0.0
H502 H 0.62743 0.74498 0.72443 0.0
H503 H 0.62843 0.7886 0.60071 0.0
C504 C 0.62023 0.85987 0.71359 0.0
C505 C 0.6177 0.8651 0.76127 0.0
C506 C 0.61777 0.84813 0.79652 0.0
C507 C 0.61994 0.82624 0.78474 0.0
C508 C 0.62205 0.82147 0.73748 0.0
C509 C 0.62229 0.83781 0.70242 0.0
C510 C 0.62447 0.82798 0.6543 0.0
C511 C 0.60027 0.82117 0.62408 0.0
C512 C 0.64975 0.848 0.62949 0.0
C513 C 0.62543 0.80362 0.66788 0.0
C514 C 0.62399 0.80023 0.71603 0.0
C515 C 0.62444 0.77912 0.73697 0.0
C516 C 0.62656 0.76104 0.70797 0.0
C517 C 0.62819 0.7641 0.65841 0.0
C518 C 0.62752 0.78574 0.63837 0.0
H519 H 0.77801 0.60385 0.10548 0.0
H520 H 0.76528 0.65393 1.00993 0.0
H521 H 0.80305 0.66059 0.96313 0.0
H522 H 0.84955 0.642 0.10225 0.0
H523 H 0.85304 0.6134 0.10499 0.0
H524 H 0.82535 0.61309 0.1322 0.0
H525 H 0.79402 0.57207 0.0837 0.0
H526 H 0.82157 0.57226 0.05632 0.0
H527 H 0.79672 0.57297 1.02051 0.0
H528 H 0.84028 0.65961 0.92349 0.0
H529 H 0.87558 0.65212 0.89532 0.0
H530 H 0.86615 0.60493 1.01833 0.0
C531 C 0.78327 0.61657 0.07523 0.0
C532 C 0.76824 0.62815 0.06154 0.0
C533 C 0.77593 0.64437 1.02106 0.0
C534 C 0.79758 0.64849 0.9943 0.0
C535 C 0.81168 0.63656 1.0086 0.0
C536 C 0.805 0.62111 0.04831 0.0
C537 C 0.82318 0.61014 0.05537 0.0
C538 C 0.8387 0.62027 0.10144 0.0
C539 C 0.80796 0.58008 0.05387 0.0
C540 C 0.84082 0.62148 1.0129 0.0
C541 C 0.83379 0.63666 0.98643 0.0
C542 C 0.84616 0.64804 0.94421 0.0
C543 C 0.86608 0.64361 0.9284 0.0
C544 C 0.87362 0.62813 0.95485 0.0
C545 C 0.86104 0.61723 0.99798 0.0
H546 H 0.16319 0.77453 0.44052 0.0
H547 H 0.13442 0.71634 0.32923 0.0
H548 H 0.16873 0.74801 0.27643 0.0
H549 H 0.17872 0.82941 0.36875 0.0
H550 H 0.20783 0.85142 0.40097 0.0
H551 H 0.18141 0.82397 0.43038 0.0
H552 H 0.21314 0.80809 0.45696 0.0
H553 H 0.23969 0.83552 0.42762 0.0
H554 H 0.23219 0.80272 0.41356 0.0
H555 H 0.20527 0.78656 0.23487 0.0
H556 H 0.24153 0.82897 0.20784 0.0
H557 H 0.24733 0.86161 0.34683 0.0
C558 C 0.16422 0.76815 0.40537 0.0
C559 C 0.14591 0.74273 0.38929 0.0
C560 C 0.14789 0.73566 0.34245 0.0
C561 C 0.16746 0.7535 0.31222 0.0
C562 C 0.18506 0.77834 0.3293 0.0
C563 C 0.18368 0.78565 0.37483 0.0
C564 C 0.20465 0.81371 0.38426 0.0
C565 C 0.19242 0.83062 0.39682 0.0
C566 C 0.22354 0.81507 0.42289 0.0
C567 C 0.21796 0.82114 0.33676 0.0
C568 C 0.20634 0.80045 0.30556 0.0
C569 C 0.21459 0.80283 0.25907 0.0
C570 C 0.23511 0.82703 0.24398 0.0
C571 C 0.24727 0.84857 0.27523 0.0
C572 C 0.23869 0.8454 0.32238 0.0
H573 H 0.36379 0.13537 0.68511 0.0
H574 H 0.42177 0.15954 0.79571 0.0
H575 H 0.43417 0.20593 0.78185 0.0
H576 H 0.40191 0.18932 0.60724 0.0
H577 H 0.3739 0.19102 0.58672 0.0
H578 H 0.37012 0.16029 0.60611 0.0
H579 H 0.33486 0.15553 0.6658 0.0
H580 H 0.33869 0.18634 0.64686 0.0
H581 H 0.34266 0.18116 0.70806 0.0
H582 H 0.438 0.24997 0.75734 0.0
H583 H 0.43635 0.28701 0.71892 0.0
H584 H 0.377 0.23273 0.62313 0.0
C585 C 0.37908 0.15044 0.70647 0.0
C586 C 0.39169 0.14396 0.74177 0.0
C587 C 0.41196 0.1642 0.76841 0.0
C588 C 0.41897 0.19051 0.76093 0.0
C589 C 0.40572 0.19616 0.72625 0.0
C590 C 0.38647 0.17661 0.69904 0.0
C591 C 0.37551 0.18749 0.6632 0.0
C592 C 0.38068 0.18169 0.61285 0.0
C593 C 0.3462 0.17701 0.67151 0.0
C594 C 0.39145 0.2163 0.67445 0.0
C595 C 0.40861 0.22107 0.71122 0.0
C596 C 0.42478 0.24639 0.72827 0.0
C597 C 0.42364 0.26727 0.70655 0.0
C598 C 0.40677 0.26267 0.66787 0.0
C599 C 0.39038 0.23681 0.65216 0.0
H600 H 0.37321 0.3719 0.75746 0.0
H601 H 0.34172 0.28868 0.77841 0.0
H602 H 0.33485 0.29376 0.86249 0.0
H603 H 0.40745 0.39297 0.86614 0.0
H604 H 0.40011 0.41883 0.87529 0.0
H605 H 0.40188 0.40856 0.81646 0.0
H606 H 0.35504 0.39968 0.79931 0.0
H607 H 0.35322 0.41016 0.85796 0.0
H608 H 0.32864 0.37831 0.83762 0.0
H609 H 0.33368 0.30863 0.9466 0.0
H610 H 0.33491 0.33148 1.02065 0.0
H611 H 0.3657 0.40436 0.94358 0.0
C612 C 0.36461 0.35467 0.77955 0.0
C613 C 0.358 0.32986 0.761 0.0
C614 C 0.34686 0.30789 0.79145 0.0
C615 C 0.34297 0.31059 0.83946 0.0
C616 C 0.3501 0.33537 0.85675 0.0
C617 C 0.36038 0.35697 0.82752 0.0
C618 C 0.36633 0.38142 0.85471 0.0
C619 C 0.39568 0.40163 0.85304 0.0
C620 C 0.34982 0.39307 0.8363 0.0
C621 C 0.35796 0.37028 0.90378 0.0
C622 C 0.34882 0.34371 0.90447 0.0
C623 C 0.34063 0.32941 0.94631 0.0
C624 C 0.34149 0.34255 0.98828 0.0
C625 C 0.35024 0.36967 0.98807 0.0
C626 C 0.35867 0.38356 0.94508 0.0
H627 H 1.00091 0.31408 0.30248 0.0
H628 H 0.96463 0.36241 0.30765 0.0
H629 H 0.97585 0.37419 0.2245 0.0
H630 H 0.0549 0.35763 0.22917 0.0
H631 H 0.0557 0.33184 0.19661 0.0
H632 H 0.04392 0.32622 0.25624 0.0
H633 H 1.00046 0.28632 0.22868 0.0
H634 H 0.01206 0.29192 0.16889 0.0
H635 H 0.98162 0.29046 0.18302 0.0
H636 H 0.99039 0.38057 0.14073 0.0
H637 H 0.01073 0.38418 0.06346 0.0
H638 H 0.03947 0.33336 0.11203 0.0
C639 C 0.99527 0.32708 0.28607 0.0
C640 C 0.98178 0.33722 0.31177 0.0
C641 C 0.97499 0.35437 0.28895 0.0
C642 C 0.98117 0.36112 0.24155 0.0
C643 C 0.99435 0.35074 0.21723 0.0
C644 C 1.00158 0.3343 0.23869 0.0
C645 C 0.01655 0.32675 0.20474 0.0
C646 C 0.04442 0.33618 0.22277 0.0
C647 C 1.00179 0.2971 0.19581 0.0
C648 C 0.01672 0.34167 0.16108 0.0
C649 C 1.00348 0.35508 0.16899 0.0
C650 C 1.00085 0.37019 0.13412 0.0
C651 C 0.01242 0.37203 0.09019 0.0
C652 C 0.02676 0.35909 0.08146 0.0
C653 C 0.02867 0.34351 0.11746 0.0
H654 H 0.62965 0.00848 0.60438 0.0
H655 H 0.68464 0.98293 0.64132 0.0
H656 H 0.7012 0.99117 0.55928 0.0
H657 H 0.61355 0.9783 0.49068 0.0
H658 H 0.6101 1.00414 0.46412 0.0
H659 H 0.60362 0.99723 0.52587 0.0
H660 H 0.63736 0.04539 0.54583 0.0
H661 H 0.64384 0.05248 0.48415 0.0
H662 H 0.6703 0.05944 0.52401 0.0
H663 H 0.71256 1.00405 0.47218 0.0
H664 H 0.71567 0.01756 0.38871 0.0
H665 H 0.65075 0.03124 0.40966 0.0
C666 C 0.64538 1.00484 0.59547 0.0
C667 C 0.65612 0.9954 0.62947 0.0
C668 C 0.67624 0.99033 0.61593 0.0
C669 C 0.68575 0.99495 0.56942 0.0
C670 C 0.67461 1.00422 0.53672 0.0
C671 C 0.65466 0.00883 0.54924 0.0
C672 C 0.64521 0.01782 0.50756 0.0
C673 C 0.61642 0.9982 0.49641 0.0
C674 C 0.64944 0.04542 0.5159 0.0
C675 C 0.6631 0.01786 0.4695 0.0
C676 C 0.68011 0.01019 0.48687 0.0
C677 C 0.69912 0.00981 0.45824 0.0
C678 C 0.70076 0.01752 0.41088 0.0
C679 C 0.68325 0.02512 0.3924 0.0
C680 C 0.66414 0.02508 0.42233 0.0
H681 H 0.68542 0.71687 0.76576 0.0
H682 H 0.65075 0.63865 0.70701 0.0
H683 H 0.65461 0.62181 0.78418 0.0
H684 H 0.73154 0.71053 0.84594 0.0
H685 H 0.7277 0.72955 0.89153 0.0
H686 H 0.72428 0.73587 0.83069 0.0
H687 H 0.67836 0.72922 0.84839 0.0
H688 H 0.68149 0.72259 0.90911 0.0
H689 H 0.65402 0.6991 0.87495 0.0
H690 H 0.6579 0.61261 0.86904 0.0
H691 H 0.66392 0.61203 0.9546 0.0
H692 H 0.6979 0.69636 0.95931 0.0
C693 C 0.67914 0.69628 0.76879 0.0
C694 C 0.66783 0.67912 0.73 0.0
C695 C 0.65963 0.65227 0.73586 0.0
C696 C 0.66166 0.64248 0.7797 0.0
C697 C 0.6722 0.65978 0.81741 0.0
C698 C 0.68119 0.68618 0.81232 0.0
C699 C 0.69096 0.70039 0.85898 0.0
C700 C 0.72037 0.72026 0.85663 0.0
C701 C 0.67526 0.7136 0.87371 0.0
C702 C 0.68549 0.67774 0.89131 0.0
C703 C 0.67464 0.65452 0.86647 0.0
C704 C 0.6667 0.63072 0.88872 0.0
C705 C 0.67008 0.63061 0.93751 0.0
C706 C 0.68147 0.65416 0.96389 0.0
C707 C 0.68937 0.67806 0.9402 0.0
H708 H 0.04389 0.7077 0.28011 0.0
H709 H 0.99738 0.62918 0.33612 0.0
H710 H 0.97774 0.61344 0.25801 0.0
H711 H 0.99369 0.70401 0.19771 0.0
H712 H 0.01728 0.72265 0.15293 0.0
H713 H 0.02648 0.72834 0.2141 0.0
H714 H 0.06469 0.7198 0.19768 0.0
H715 H 0.05551 0.7139 0.1366 0.0
H716 H 0.058 0.68946 0.17061 0.0
H717 H 0.96541 0.60527 0.17337 0.0
H718 H 0.95946 0.60546 0.08778 0.0
H719 H 0.01323 0.68923 0.08483 0.0
C720 C 0.02923 0.68729 0.27617 0.0
C721 C 0.02218 0.66972 0.31458 0.0
C722 C 1.00313 0.64309 0.30754 0.0
C723 C 0.99183 0.63392 0.26319 0.0
C724 C 0.99961 0.65157 0.22599 0.0
C725 C 0.01767 0.67774 0.23195 0.0
C726 C 0.02309 0.69233 0.18552 0.0
C727 C 0.01463 0.71306 0.18771 0.0
C728 C 0.05204 0.70459 0.17181 0.0
C729 C 1.00565 0.67014 0.15248 0.0
C730 C 0.99226 0.64685 0.17676 0.0
C731 C 0.97561 0.62343 0.15403 0.0
C732 C 0.97244 0.62376 0.10523 0.0
C733 C 0.98581 0.64736 0.07929 0.0
C734 C 1.00259 0.67088 0.10352 0.0
H735 H 0.38576 0.01799 0.40223 0.0
H736 H 0.31322 0.94436 0.41616 0.0
H737 H 0.31312 0.95213 0.50168 0.0
H738 H 0.41497 0.01434 0.50927 0.0
H739 H 0.42989 0.04877 0.52196 0.0
H740 H 0.42382 0.03756 0.46194 0.0
H741 H 0.39706 0.06091 0.44852 0.0
H742 H 0.40322 0.07237 0.5084 0.0
H743 H 0.37012 0.0539 0.48704 0.0
H744 H 0.32254 0.96753 0.58782 0.0
H745 H 0.3388 0.99072 0.664 0.0
H746 H 0.40415 0.05438 0.59149 0.0
C747 C 0.36972 1.00354 0.42311 0.0
C748 C 0.3495 0.98054 0.40232 0.0
C749 C 0.32889 0.9622 0.43112 0.0
C750 C 0.32872 0.96639 0.47984 0.0
C751 C 0.34919 0.98913 0.49928 0.0
C752 C 0.36914 0.00752 0.47158 0.0
C753 C 0.3888 0.03042 0.50068 0.0
C754 C 0.41597 0.0329 0.49831 0.0
C755 C 0.38985 0.0559 0.48524 0.0
C756 C 0.37694 0.02207 0.54915 0.0
C757 C 0.35419 0.99813 0.54794 0.0
C758 C 0.34025 0.98637 0.589 0.0
C759 C 0.34966 0.99961 0.63215 0.0
C760 C 0.37264 0.02443 0.63379 0.0
C761 C 0.38638 0.03555 0.59157 0.0
H762 H 0.45443 0.48429 0.05731 0.0
H763 H 0.44112 0.47098 0.20684 0.0
H764 H 0.48902 0.49424 0.22088 0.0
H765 H 0.50799 0.47206 0.05359 0.0
H766 H 0.52566 0.49621 1.00899 0.0
H767 H 0.49056 0.48042 1.01135 0.0
H768 H 0.49337 0.52558 1.01664 0.0
H769 H 0.52849 0.54151 1.01411 0.0
H770 H 0.51286 0.54815 0.06229 0.0
H771 H 0.53852 0.52016 0.21806 0.0
H772 H 0.58576 0.54288 0.19803 0.0
H773 H 0.56633 0.53514 0.04993 0.0
C774 C 0.46176 0.48668 0.09294 0.0
C775 C 0.4444 0.47639 0.13122 0.0
C776 C 0.45437 0.47904 0.17735 0.0
C777 C 0.48143 0.4922 0.18553 0.0
C778 C 0.49815 0.50207 0.14698 0.0
C779 C 0.48869 0.49914 0.10153 0.0
C780 C 0.51071 0.51001 0.06603 0.0
C781 C 0.5086 0.48838 0.03306 0.0
C782 C 0.51139 0.53266 0.03814 0.0
C783 C 0.53404 0.51963 0.09856 0.0
C784 C 0.52644 0.51525 0.14517 0.0
C785 C 0.54468 0.52342 0.18167 0.0
C786 C 0.57135 0.53627 0.17013 0.0
C787 C 0.5794 0.54025 0.12262 0.0
C788 C 0.5605 0.5318 0.0865 0.0
H789 H 0.04688 0.54937 0.46428 0.0
H790 H 0.98371 0.56486 0.43397 0.0
H791 H 0.95248 0.51771 0.43426 0.0
H792 H 0.0231 0.49259 0.38972 0.0
H793 H 0.03337 0.4755 0.42912 0.0
H794 H 0.0509 0.5107 0.42775 0.0
H795 H 0.04369 0.51191 0.51736 0.0
H796 H 0.02613 0.47672 0.51901 0.0
H797 H 0.01095 0.49464 0.54059 0.0
H798 H 0.92765 0.46858 0.43886 0.0
H799 H 0.91168 0.42115 0.44476 0.0
H800 H 0.99098 0.43754 0.46869 0.0
C801 C 0.02656 0.54301 0.45734 0.0
C802 C 0.01798 0.56122 0.44949 0.0
C803 C 0.991 0.55166 0.44102 0.0
C804 C 0.97299 0.52476 0.44077 0.0
C805 C 0.98216 0.50748 0.44873 0.0
C806 C 1.00832 0.5162 0.45661 0.0
C807 C 0.01311 0.49348 0.4637 0.0
C808 C 0.03119 0.49305 0.42527 0.0
C809 C 0.02412 0.49424 0.51311 0.0
C810 C 0.98555 0.47066 0.45853 0.0
C811 C 0.96796 0.47916 0.45019 0.0
C812 C 0.94127 0.46169 0.44523 0.0
C813 C 0.93235 0.43482 0.44883 0.0
C814 C 0.95007 0.42566 0.45691 0.0
C815 C 0.97702 0.44392 0.46173 0.0
H816 H 0.54468 0.99501 0.69029 0.0
H817 H 0.54619 0.97339 0.83533 0.0
H818 H 0.52115 0.995 0.85878 0.0
H819 H 0.5536 0.05891 0.71575 0.0
H820 H 0.53253 0.05774 0.66873 0.0
H821 H 0.55002 0.04011 0.66349 0.0
H822 H 0.50646 0.99716 0.64841 0.0
H823 H 0.48886 0.01467 0.6534 0.0
H824 H 0.48021 0.98667 0.69025 0.0
H825 H 0.49378 0.01693 0.8652 0.0
H826 H 0.46892 0.04027 0.85496 0.0
H827 H 0.48822 0.05032 0.70682 0.0
C828 C 0.53954 0.9947 0.7269 0.0
C829 C 0.54708 0.98235 0.76105 0.0
C830 C 0.54055 0.98278 0.80878 0.0
C831 C 0.52632 0.99494 0.82231 0.0
C832 C 0.51918 0.00696 0.78774 0.0
C833 C 0.52582 0.00718 0.74108 0.0
C834 C 0.51639 0.02203 0.71099 0.0
C835 C 0.53952 0.04613 0.68842 0.0
C836 C 0.49682 1.00405 0.67356 0.0
C837 C 0.50313 0.02987 0.74788 0.0
C838 C 0.50473 0.02079 0.79188 0.0
C839 C 0.49272 0.02443 0.83104 0.0
C840 C 0.47865 0.03763 0.82499 0.0
C841 C 0.47712 0.04739 0.78038 0.0
C842 C 0.48968 0.04359 0.7415 0.0
H843 H 0.5401 0.57226 0.68516 0.0
H844 H 0.54536 0.58633 0.53501 0.0
H845 H 0.51963 0.53856 0.52059 0.0
H846 H 0.54844 0.51669 0.67994 0.0
H847 H 0.5262 0.49968 0.72747 0.0
H848 H 0.54348 0.53486 0.72577 0.0
H849 H 0.49957 0.53471 0.72986 0.0
H850 H 0.48216 0.49952 0.73187 0.0
H851 H 0.47442 0.51623 0.68713 0.0
H852 H 0.49295 0.48889 0.52325 0.0
H853 H 0.46978 0.44162 0.54264 0.0
H854 H 0.48421 0.46064 0.69079 0.0
C855 C 0.53544 0.56528 0.6493 0.0
C856 C 0.5444 0.58293 0.61113 0.0
C857 C 0.53858 0.57306 0.56464 0.0
C858 C 0.52395 0.54602 0.55619 0.0
C859 C 0.51557 0.52912 0.59467 0.0
C860 C 0.52125 0.5384 0.6403 0.0
C861 C 0.51111 0.51621 0.67543 0.0
C862 C 0.53366 0.51691 0.70381 0.0
C863 C 0.49059 0.5167 0.70798 0.0
C864 C 0.49883 0.49296 0.64252 0.0
C865 C 0.50132 0.50074 0.59608 0.0
C866 C 0.49099 0.4826 0.5595 0.0
C867 C 0.47784 0.45585 0.57076 0.0
C868 C 0.47548 0.44752 0.61808 0.0
C869 C 0.48615 0.46642 0.65424 0.0
H870 H 1.00149 0.55447 0.96446 0.0
H871 H 0.94555 0.51034 0.8548 0.0
H872 H 0.96684 0.4839 0.84317 0.0
H873 H 0.05802 0.55469 0.91091 0.0
H874 H 0.07046 0.55067 0.96631 0.0
H875 H 0.05192 0.56734 0.96413 0.0
H876 H 0.01964 0.53519 0.02581 0.0
H877 H 0.0381 0.51848 0.02826 0.0
H878 H 1.00368 0.50051 1.01476 0.0
H879 H 0.99312 0.46152 0.84474 0.0
H880 H 0.02133 0.44286 0.8621 0.0
H881 H 0.05987 0.50042 0.97245 0.0
C882 C 0.994 0.53948 0.93758 0.0
C883 C 0.97187 0.53446 0.91045 0.0
C884 C 0.9623 0.51434 0.87623 0.0
C885 C 0.9744 0.49937 0.86914 0.0
C886 C 0.99603 0.50468 0.89665 0.0
C887 C 1.00573 0.52415 0.93034 0.0
C888 C 0.02837 0.5248 0.95687 0.0
C889 C 0.05369 0.55093 0.94907 0.0
C890 C 0.02206 0.51941 1.00954 0.0
C891 C 0.02965 0.50244 0.93317 0.0
C892 C 0.01097 0.49134 0.89821 0.0
C893 C 1.00781 0.47003 0.87205 0.0
C894 C 0.02384 0.45946 0.8824 0.0
C895 C 0.0427 0.47 0.9189 0.0
C896 C 0.04587 0.49209 0.94404 0.0
H897 H 0.55146 0.04885 0.2855 0.0
H898 H 0.56907 0.98731 0.25316 0.0
H899 H 0.52234 0.95589 0.24619 0.0
H900 H 0.49562 0.00906 0.35751 0.0
H901 H 0.47724 0.02415 0.33784 0.0
H902 H 0.51242 0.04259 0.33805 0.0
H903 H 0.51223 0.05282 0.2495 0.0
H904 H 0.47704 0.03436 0.249 0.0
H905 H 0.49535 0.0263 0.2084 0.0
H906 H 0.47385 0.93046 0.24457 0.0
H907 H 0.42631 0.91264 0.24919 0.0
H908 H 0.43918 0.98964 0.28538 0.0
C909 C 0.54558 0.0288 0.27698 0.0
C910 C 0.56434 0.0209 0.26941 0.0
C911 C 0.5555 0.99433 0.25816 0.0
C912 C 0.52882 0.97612 0.2544 0.0
C913 C 0.51099 0.98457 0.26212 0.0
C914 C 0.51891 0.01023 0.27327 0.0
C915 C 0.49551 0.01389 0.28104 0.0
C916 C 0.49519 0.02296 0.33162 0.0
C917 C 0.49501 0.03297 0.24482 0.0
C918 C 0.4733 0.98623 0.27276 0.0
C919 C 0.48275 0.9697 0.26176 0.0
C920 C 0.46618 0.94318 0.25322 0.0
C921 C 0.43917 0.9332 0.25625 0.0
C922 C 0.42888 0.94964 0.26786 0.0
C923 C 0.44632 0.97658 0.27591 0.0
loop_
_geom_bond_atom_site_label_1
_geom_bond_atom_site_label_2
_geom_bond_distance
_geom_bond_site_symmetry_2
_ccdc_geom_bond_type
Cu0 N1 1.999 . S
Cu0 O6 1.974 . S
Cu0 N11 1.985 . S
Cu0 O20 1.959 . S
N1 Cu0 1.999 . S
N1 C3 1.263 . S
N1 C5 1.389 . S
N2 C3 1.358 . S
N2 C4 1.400 . S
C3 N1 1.263 . S
C3 N2 1.358 . S
C3 H9 0.930 . S
C4 N2 1.400 . S
C4 C5 1.351 . S
C4 H21 0.930 . S
C5 N1 1.389 . S
C5 C4 1.351 . S
C5 H10 0.930 . S
O6 Cu0 1.974 . S
O6 C16 1.282 . S
C7 O8 1.261 1_556 S
C7 O20 1.251 1_556 S
O8 C7 1.261 1_554 S
H9 C3 0.930 . S
H10 C5 0.930 . S
N11 Cu0 1.985 . S
N11 C13 1.335 . S
N11 C14 1.390 . S
N12 C13 1.345 . S
N12 C15 1.336 . S
C13 N11 1.335 . S
C13 N12 1.345 . S
C13 H18 0.930 . S
C14 N11 1.390 . S
C14 C15 1.346 . S
C14 H19 0.930 . S
C15 N12 1.336 . S
C15 C14 1.346 . S
C15 H22 0.929 . S
C16 O6 1.282 . S
C16 O17 1.216 . S
O17 C16 1.216 . S
H18 C13 0.930 . S
H19 C14 0.930 . S
O20 Cu0 1.959 . S
O20 C7 1.251 1_554 S
H21 C4 0.930 . S
H22 C15 0.929 . S
Cu23 N24 1.999 . S
Cu23 O29 1.974 . S
Cu23 N34 1.985 . S
Cu23 O43 1.959 . S
N24 Cu23 1.999 . S
N24 C26 1.263 . S
N24 C28 1.389 . S
N25 C26 1.358 1_455 S
N25 C27 1.400 1_455 S
C26 N24 1.263 . S
C26 N25 1.358 1_655 S
C26 H32 0.930 1_655 S
C27 N25 1.400 1_655 S
C27 C28 1.351 . S
C27 H44 0.930 . S
C28 N24 1.389 . S
C28 C27 1.351 . S
C28 H33 0.930 . S
O29 Cu23 1.974 . S
O29 C39 1.282 . S
C30 O31 1.261 . S
C30 O43 1.251 . S
O31 C30 1.261 . S
H32 C26 0.930 1_455 S
H33 C28 0.930 . S
N34 Cu23 1.985 . S
N34 C36 1.335 . S
N34 C37 1.390 . S
N35 C36 1.345 . S
N35 C38 1.336 . S
C36 N34 1.335 . S
C36 N35 1.345 . S
C36 H41 0.930 . S
C37 N34 1.390 . S
C37 C38 1.346 . S
C37 H42 0.930 . S
C38 N35 1.336 . S
C38 C37 1.346 . S
C38 H45 0.929 . S
C39 O29 1.282 . S
C39 O40 1.216 . S
O40 C39 1.216 . S
H41 C36 0.930 . S
H42 C37 0.930 . S
O43 Cu23 1.959 . S
O43 C30 1.251 . S
H44 C27 0.930 . S
H45 C38 0.929 . S
Cu46 N47 1.999 . S
Cu46 O52 1.974 . S
Cu46 N57 1.985 . S
Cu46 O66 1.959 . S
N47 Cu46 1.999 . S
N47 C49 1.263 . S
N47 C51 1.389 . S
N48 C49 1.358 1_545 S
N48 C50 1.400 1_545 S
C49 N47 1.263 . S
C49 N48 1.358 1_565 S
C49 H55 0.930 1_565 S
C50 N48 1.400 1_565 S
C50 C51 1.351 . S
C50 H67 0.930 . S
C51 N47 1.389 . S
C51 C50 1.351 . S
C51 H56 0.930 . S
O52 Cu46 1.974 . S
O52 C62 1.282 . S
C53 O54 1.261 . S
C53 O66 1.251 . S
O54 C53 1.261 . S
H55 C49 0.930 1_545 S
H56 C51 0.930 . S
N57 Cu46 1.985 . S
N57 C59 1.335 . S
N57 C60 1.390 . S
N58 C59 1.345 . S
N58 C61 1.336 . S
C59 N57 1.335 . S
C59 N58 1.345 . S
C59 H64 0.930 . S
C60 N57 1.390 . S
C60 C61 1.346 . S
C60 H65 0.930 . S
C61 N58 1.336 . S
C61 C60 1.346 . S
C61 H68 0.929 . S
C62 O52 1.282 . S
C62 O63 1.216 . S
O63 C62 1.216 . S
H64 C59 0.930 . S
H65 C60 0.930 . S
O66 Cu46 1.959 . S
O66 C53 1.251 . S
H67 C50 0.930 . S
H68 C61 0.929 . S
Cu69 N70 1.999 . S
Cu69 O75 1.974 . S
Cu69 N80 1.985 . S
Cu69 O89 1.959 . S
N70 Cu69 1.999 . S
N70 C72 1.263 . S
N70 C74 1.389 . S
N71 C72 1.358 . S
N71 C73 1.400 . S
C72 N70 1.263 . S
C72 N71 1.358 . S
C72 H78 0.930 . S
C73 N71 1.400 . S
C73 C74 1.351 . S
C73 H90 0.930 . S
C74 N70 1.389 . S
C74 C73 1.351 . S
C74 H79 0.930 . S
O75 Cu69 1.974 . S
O75 C85 1.282 . S
C76 O77 1.261 1_556 S
C76 O89 1.251 1_556 S
O77 C76 1.261 1_554 S
H78 C72 0.930 . S
H79 C74 0.930 . S
N80 Cu69 1.985 . S
N80 C82 1.335 . S
N80 C83 1.390 . S
N81 C82 1.345 . S
N81 C84 1.336 . S
C82 N80 1.335 . S
C82 N81 1.345 . S
C82 H87 0.930 . S
C83 N80 1.390 . S
C83 C84 1.346 . S
C83 H88 0.930 . S
C84 N81 1.336 . S
C84 C83 1.346 . S
C84 H91 0.929 . S
C85 O75 1.282 . S
C85 O86 1.216 . S
O86 C85 1.216 . S
H87 C82 0.930 . S
H88 C83 0.930 . S
O89 Cu69 1.959 . S
O89 C76 1.251 1_554 S
H90 C73 0.930 . S
H91 C84 0.929 . S
Cu92 N93 1.999 . S
Cu92 O98 1.974 . S
Cu92 N103 1.985 . S
Cu92 O112 1.959 . S
N93 Cu92 1.999 . S
N93 C95 1.263 . S
N93 C97 1.389 . S
N94 C95 1.358 1_655 S
N94 C96 1.400 1_655 S
C95 N93 1.263 . S
C95 N94 1.358 1_455 S
C95 H101 0.930 1_455 S
C96 N94 1.400 1_455 S
C96 C97 1.351 . S
C96 H113 0.930 . S
C97 N93 1.389 . S
C97 C96 1.351 . S
C97 H102 0.930 . S
O98 Cu92 1.974 . S
O98 C108 1.282 . S
C99 O100 1.261 . S
C99 O112 1.251 . S
O100 C99 1.261 . S
H101 C95 0.930 1_655 S
H102 C97 0.930 . S
N103 Cu92 1.985 . S
N103 C105 1.335 . S
N103 C106 1.390 . S
N104 C105 1.345 . S
N104 C107 1.336 . S
C105 N103 1.335 . S
C105 N104 1.345 . S
C105 H110 0.930 . S
C106 N103 1.390 . S
C106 C107 1.346 . S
C106 H111 0.930 . S
C107 N104 1.336 . S
C107 C106 1.346 . S
C107 H114 0.929 . S
C108 O98 1.282 . S
C108 O109 1.216 . S
O109 C108 1.216 . S
H110 C105 0.930 . S
H111 C106 0.930 . S
O112 Cu92 1.959 . S
O112 C99 1.251 . S
H113 C96 0.930 . S
H114 C107 0.929 . S
Cu115 N116 1.999 . S
Cu115 O121 1.974 . S
Cu115 N126 1.985 . S
Cu115 O135 1.959 . S
N116 Cu115 1.999 . S
N116 C118 1.263 . S
N116 C120 1.389 . S
N117 C118 1.358 1_565 S
N117 C119 1.400 1_565 S
C118 N116 1.263 . S
C118 N117 1.358 1_545 S
C118 H124 0.930 1_545 S
C119 N117 1.400 1_545 S
C119 C120 1.351 . S
C119 H136 0.930 . S
C120 N116 1.389 . S
C120 C119 1.351 . S
C120 H125 0.930 . S
O121 Cu115 1.974 . S
O121 C131 1.282 . S
C122 O123 1.261 . S
C122 O135 1.251 . S
O123 C122 1.261 . S
H124 C118 0.930 1_565 S
H125 C120 0.930 . S
N126 Cu115 1.985 . S
N126 C128 1.335 . S
N126 C129 1.390 . S
N127 C128 1.345 . S
N127 C130 1.336 . S
C128 N126 1.335 . S
C128 N127 1.345 . S
C128 H133 0.930 . S
C129 N126 1.390 . S
C129 C130 1.346 . S
C129 H134 0.930 . S
C130 N127 1.336 . S
C130 C129 1.346 . S
C130 H137 0.929 . S
C131 O121 1.282 . S
C131 O132 1.216 . S
O132 C131 1.216 . S
H133 C128 0.930 . S
H134 C129 0.930 . S
O135 Cu115 1.959 . S
O135 C122 1.251 . S
H136 C119 0.930 . S
H137 C130 0.929 . S
Cu138 N139 1.999 . S
Cu138 O144 1.974 . S
Cu138 N149 1.985 . S
Cu138 O158 1.959 . S
N139 Cu138 1.999 . S
N139 C141 1.263 . S
N139 C143 1.389 . S
N140 C141 1.358 . S
N140 C142 1.400 . S
C141 N139 1.263 . S
C141 N140 1.358 . S
C141 H147 0.930 . S
C142 N140 1.400 . S
C142 C143 1.351 . S
C142 H159 0.930 . S
C143 N139 1.389 . S
C143 C142 1.351 . S
C143 H148 0.930 . S
O144 Cu138 1.974 . S
O144 C154 1.282 . S
C145 O146 1.261 . S
C145 O158 1.251 . S
O146 C145 1.261 . S
H147 C141 0.930 . S
H148 C143 0.930 . S
N149 Cu138 1.985 . S
N149 C151 1.335 . S
N149 C152 1.390 . S
N150 C151 1.345 . S
N150 C153 1.336 . S
C151 N149 1.335 . S
C151 N150 1.345 . S
C151 H156 0.930 . S
C152 N149 1.390 . S
C152 C153 1.346 . S
C152 H157 0.930 . S
C153 N150 1.336 . S
C153 C152 1.346 . S
C153 H160 0.929 . S
C154 O144 1.282 . S
C154 O155 1.216 . S
O155 C154 1.216 . S
H156 C151 0.930 . S
H157 C152 0.930 . S
O158 Cu138 1.959 . S
O158 C145 1.251 . S
H159 C142 0.930 . S
H160 C153 0.929 . S
Cu161 N162 1.999 . S
Cu161 O167 1.974 . S
Cu161 N172 1.985 . S
Cu161 O181 1.959 . S
N162 Cu161 1.999 . S
N162 C164 1.263 . S
N162 C166 1.389 . S
N163 C164 1.358 1_455 S
N163 C165 1.400 1_455 S
C164 N162 1.263 . S
C164 N163 1.358 1_655 S
C164 H170 0.930 1_655 S
C165 N163 1.400 1_655 S
C165 C166 1.351 . S
C165 H182 0.930 . S
C166 N162 1.389 . S
C166 C165 1.351 . S
C166 H171 0.930 . S
O167 Cu161 1.974 . S
O167 C177 1.282 . S
C168 O169 1.261 1_554 S
C168 O181 1.251 1_554 S
O169 C168 1.261 1_556 S
H170 C164 0.930 1_455 S
H171 C166 0.930 . S
N172 Cu161 1.985 . S
N172 C174 1.335 . S
N172 C175 1.390 . S
N173 C174 1.345 . S
N173 C176 1.336 . S
C174 N172 1.335 . S
C174 N173 1.345 . S
C174 H179 0.930 . S
C175 N172 1.390 . S
C175 C176 1.346 . S
C175 H180 0.930 . S
C176 N173 1.336 . S
C176 C175 1.346 . S
C176 H183 0.929 . S
C177 O167 1.282 . S
C177 O178 1.216 . S
O178 C177 1.216 . S
H179 C174 0.930 . S
H180 C175 0.930 . S
O181 Cu161 1.959 . S
O181 C168 1.251 1_556 S
H182 C165 0.930 . S
H183 C176 0.929 . S
Cu184 N185 1.999 . S
Cu184 O190 1.974 . S
Cu184 N195 1.985 . S
Cu184 O204 1.959 . S
N185 Cu184 1.999 . S
N185 C187 1.263 . S
N185 C189 1.389 . S
N186 C187 1.358 1_545 S
N186 C188 1.400 1_545 S
C187 N185 1.263 . S
C187 N186 1.358 1_565 S
C187 H193 0.930 1_565 S
C188 N186 1.400 1_565 S
C188 C189 1.351 . S
C188 H205 0.930 . S
C189 N185 1.389 . S
C189 C188 1.351 . S
C189 H194 0.930 . S
O190 Cu184 1.974 . S
O190 C200 1.282 . S
C191 O192 1.261 . S
C191 O204 1.251 . S
O192 C191 1.261 . S
H193 C187 0.930 1_545 S
H194 C189 0.930 . S
N195 Cu184 1.985 . S
N195 C197 1.335 . S
N195 C198 1.390 . S
N196 C197 1.345 . S
N196 C199 1.336 . S
C197 N195 1.335 . S
C197 N196 1.345 . S
C197 H202 0.930 . S
C198 N195 1.390 . S
C198 C199 1.346 . S
C198 H203 0.930 . S
C199 N196 1.336 . S
C199 C198 1.346 . S
C199 H206 0.929 . S
C200 O190 1.282 . S
C200 O201 1.216 . S
O201 C200 1.216 . S
H202 C197 0.930 . S
H203 C198 0.930 . S
O204 Cu184 1.959 . S
O204 C191 1.251 . S
H205 C188 0.930 . S
H206 C199 0.929 . S
Cu207 N208 1.999 . S
Cu207 O213 1.974 . S
Cu207 N218 1.985 . S
Cu207 O227 1.959 . S
N208 Cu207 1.999 . S
N208 C210 1.263 . S
N208 C212 1.389 . S
N209 C210 1.358 . S
N209 C211 1.400 . S
C210 N208 1.263 . S
C210 N209 1.358 . S
C210 H216 0.930 . S
C211 N209 1.400 . S
C211 C212 1.351 . S
C211 H228 0.930 . S
C212 N208 1.389 . S
C212 C211 1.351 . S
C212 H217 0.930 . S
O213 Cu207 1.974 . S
O213 C223 1.282 . S
C214 O215 1.261 . S
C214 O227 1.251 . S
O215 C214 1.261 . S
H216 C210 0.930 . S
H217 C212 0.930 . S
N218 Cu207 1.985 . S
N218 C220 1.335 . S
N218 C221 1.390 . S
N219 C220 1.345 . S
N219 C222 1.336 . S
C220 N218 1.335 . S
C220 N219 1.345 . S
C220 H225 0.930 . S
C221 N218 1.390 . S
C221 C222 1.346 . S
C221 H226 0.930 . S
C222 N219 1.336 . S
C222 C221 1.346 . S
C222 H229 0.929 . S
C223 O213 1.282 . S
C223 O224 1.216 . S
O224 C223 1.216 . S
H225 C220 0.930 . S
H226 C221 0.930 . S
O227 Cu207 1.959 . S
O227 C214 1.251 . S
H228 C211 0.930 . S
H229 C222 0.929 . S
Cu230 N231 1.999 . S
Cu230 O236 1.974 . S
Cu230 N241 1.985 . S
Cu230 O250 1.959 . S
N231 Cu230 1.999 . S
N231 C233 1.263 . S
N231 C235 1.389 . S
N232 C233 1.358 1_655 S
N232 C234 1.400 1_655 S
C233 N231 1.263 . S
C233 N232 1.358 1_455 S
C233 H239 0.930 1_455 S
C234 N232 1.400 1_455 S
C234 C235 1.351 . S
C234 H251 0.930 . S
C235 N231 1.389 . S
C235 C234 1.351 . S
C235 H240 0.930 . S
O236 Cu230 1.974 . S
O236 C246 1.282 . S
C237 O238 1.261 1_554 S
C237 O250 1.251 1_554 S
O238 C237 1.261 1_556 S
H239 C233 0.930 1_655 S
H240 C235 0.930 . S
N241 Cu230 1.985 . S
N241 C243 1.335 . S
N241 C244 1.390 . S
N242 C243 1.345 . S
N242 C245 1.336 . S
C243 N241 1.335 . S
C243 N242 1.345 . S
C243 H248 0.930 . S
C244 N241 1.390 . S
C244 C245 1.346 . S
C244 H249 0.930 . S
C245 N242 1.336 . S
C245 C244 1.346 . S
C245 H252 0.929 . S
C246 O236 1.282 . S
C246 O247 1.216 . S
O247 C246 1.216 . S
H248 C243 0.930 . S
H249 C244 0.930 . S
O250 Cu230 1.959 . S
O250 C237 1.251 1_556 S
H251 C234 0.930 . S
H252 C245 0.929 . S
Cu253 N254 1.999 . S
Cu253 O259 1.974 . S
Cu253 N264 1.985 . S
Cu253 O273 1.959 . S
N254 Cu253 1.999 . S
N254 C256 1.263 . S
N254 C258 1.389 . S
N255 C256 1.358 1_565 S
N255 C257 1.400 1_565 S
C256 N254 1.263 . S
C256 N255 1.358 1_545 S
C256 H262 0.930 1_545 S
C257 N255 1.400 1_545 S
C257 C258 1.351 . S
C257 H274 0.930 . S
C258 N254 1.389 . S
C258 C257 1.351 . S
C258 H263 0.930 . S
O259 Cu253 1.974 . S
O259 C269 1.282 . S
C260 O261 1.261 . S
C260 O273 1.251 . S
O261 C260 1.261 . S
H262 C256 0.930 1_565 S
H263 C258 0.930 . S
N264 Cu253 1.985 . S
N264 C266 1.335 . S
N264 C267 1.390 . S
N265 C266 1.345 . S
N265 C268 1.336 . S
C266 N264 1.335 . S
C266 N265 1.345 . S
C266 H271 0.930 . S
C267 N264 1.390 . S
C267 C268 1.346 . S
C267 H272 0.930 . S
C268 N265 1.336 . S
C268 C267 1.346 . S
C268 H275 0.929 . S
C269 O259 1.282 . S
C269 O270 1.216 . S
O270 C269 1.216 . S
H271 C266 0.930 . S
H272 C267 0.930 . S
O273 Cu253 1.959 . S
O273 C260 1.251 . S
H274 C257 0.930 . S
H275 C268 0.929 . S
H276 C288 0.930 . S
H277 C290 0.930 . S
H278 C291 0.930 . S
H279 C295 0.959 . S
H280 C295 0.959 . S
H281 C295 0.961 . S
H282 C296 0.960 . S
H283 C296 0.961 . S
H284 C296 0.959 . S
H285 C299 0.929 . S
H286 C300 0.931 . S
H287 C302 0.930 . S
C288 H276 0.930 . S
C288 C289 1.399 . S
C288 C293 1.399 . S
C289 C288 1.399 . S
C289 C290 1.376 . S
C290 H277 0.930 . S
C290 C289 1.376 . S
C290 C291 1.388 . S
C291 H278 0.930 . S
C291 C290 1.388 . S
C291 C292 1.390 . S
C292 C291 1.390 . S
C292 C293 1.394 . S
C292 C298 1.465 . S
C293 C288 1.399 . S
C293 C292 1.394 . S
C293 C294 1.516 . S
C294 C293 1.516 . S
C294 C295 1.502 . S
C294 C296 1.561 . S
C294 C297 1.526 . S
C295 H279 0.959 . S
C295 H280 0.959 . S
C295 H281 0.961 . S
C295 C294 1.502 . S
C296 H282 0.960 . S
C296 H283 0.961 . S
C296 H284 0.959 . S
C296 C294 1.561 . S
C297 C294 1.526 . S
C297 C298 1.396 . S
C297 C302 1.390 . S
C298 C292 1.465 . S
C298 C297 1.396 . S
C298 C299 1.399 . S
C299 H285 0.929 . S
C299 C298 1.399 . S
C299 C300 1.385 . S
C300 H286 0.931 . S
C300 C299 1.385 . S
C300 C301 1.389 . S
C301 C300 1.389 . S
C301 C302 1.387 . S
C302 H287 0.930 . S
C302 C297 1.390 . S
C302 C301 1.387 . S
H303 C315 0.930 . S
H304 C317 0.930 . S
H305 C318 0.930 . S
H306 C322 0.959 . S
H307 C322 0.959 . S
H308 C322 0.961 . S
H309 C323 0.960 . S
H310 C323 0.961 . S
H311 C323 0.959 . S
H312 C326 0.929 . S
H313 C327 0.931 . S
H314 C329 0.930 . S
C315 H303 0.930 . S
C315 C316 1.399 . S
C315 C320 1.399 . S
C316 C315 1.399 . S
C316 C317 1.376 . S
C317 H304 0.930 . S
C317 C316 1.376 . S
C317 C318 1.388 . S
C318 H305 0.930 . S
C318 C317 1.388 . S
C318 C319 1.390 . S
C319 C318 1.390 . S
C319 C320 1.394 . S
C319 C325 1.454 1_655 S
C320 C315 1.399 . S
C320 C319 1.394 . S
C320 C321 1.516 . S
C321 C320 1.516 . S
C321 C322 1.502 1_655 S
C321 C323 1.561 . S
C321 C324 1.526 1_655 S
C322 H306 0.959 . S
C322 H307 0.959 . S
C322 H308 0.961 . S
C322 C321 1.502 1_455 S
C323 H309 0.960 . S
C323 H310 0.961 . S
C323 H311 0.959 . S
C323 C321 1.561 . S
C324 C321 1.526 1_455 S
C324 C325 1.380 . S
C324 C329 1.390 . S
C325 C319 1.454 1_455 S
C325 C324 1.380 . S
C325 C326 1.423 . S
C326 H312 0.929 . S
C326 C325 1.423 . S
C326 C327 1.385 . S
C327 H313 0.931 . S
C327 C326 1.385 . S
C327 C328 1.389 . S
C328 C327 1.389 . S
C328 C329 1.387 . S
C329 H314 0.930 . S
C329 C324 1.390 . S
C329 C328 1.387 . S
H330 C342 0.930 . S
H331 C344 0.930 . S
H332 C345 0.930 1_545 S
H333 C349 0.959 . S
H334 C349 0.959 . S
H335 C349 0.961 1_556 S
H336 C350 0.960 . S
H337 C350 0.961 1_554 S
H338 C350 0.959 . S
H339 C353 0.929 . S
H340 C354 0.931 . S
H341 C356 0.930 . S
C342 H330 0.930 . S
C342 C343 1.399 . S
C342 C347 1.399 . S
C343 C342 1.399 . S
C343 C344 1.376 . S
C344 H331 0.930 . S
C344 C343 1.376 . S
C344 C345 1.388 . S
C345 H332 0.930 1_565 S
C345 C344 1.388 . S
C345 C346 1.400 1_565 S
C346 C345 1.400 1_545 S
C346 C347 1.372 1_545 S
C346 C352 1.473 1_556 S
C347 C342 1.399 . S
C347 C346 1.372 1_565 S
C347 C348 1.506 1_556 S
C348 C347 1.506 1_554 S
C348 C349 1.528 . S
C348 C350 1.550 1_564 S
C348 C351 1.519 1_565 S
C349 H333 0.959 . S
C349 H334 0.959 . S
C349 H335 0.961 1_554 S
C349 C348 1.528 . S
C350 H336 0.960 . S
C350 H337 0.961 1_556 S
C350 H338 0.959 . S
C350 C348 1.550 1_546 S
C351 C348 1.519 1_545 S
C351 C352 1.396 . S
C351 C356 1.390 . S
C352 C346 1.473 1_554 S
C352 C351 1.396 . S
C352 C353 1.399 . S
C353 H339 0.929 . S
C353 C352 1.399 . S
C353 C354 1.385 . S
C354 H340 0.931 . S
C354 C353 1.385 . S
C354 C355 1.389 . S
C355 C354 1.389 . S
C355 C356 1.387 . S
C356 H341 0.930 . S
C356 C351 1.390 . S
C356 C355 1.387 . S
H357 C369 0.930 . S
H358 C371 0.930 . S
H359 C372 0.930 . S
H360 C376 0.959 . S
H361 C376 0.959 . S
H362 C376 0.961 . S
H363 C377 0.960 . S
H364 C377 0.961 . S
H365 C377 0.959 . S
H366 C380 0.929 . S
H367 C381 0.931 . S
H368 C383 0.930 . S
C369 H357 0.930 . S
C369 C370 1.399 . S
C369 C374 1.399 . S
C370 C369 1.399 . S
C370 C371 1.376 . S
C371 H358 0.930 . S
C371 C370 1.376 . S
C371 C372 1.388 . S
C372 H359 0.930 . S
C372 C371 1.388 . S
C372 C373 1.390 . S
C373 C372 1.390 . S
C373 C374 1.394 . S
C373 C379 1.465 . S
C374 C369 1.399 . S
C374 C373 1.394 . S
C374 C375 1.516 . S
C375 C374 1.516 . S
C375 C376 1.502 . S
C375 C377 1.561 . S
C375 C378 1.526 . S
C376 H360 0.959 . S
C376 H361 0.959 . S
C376 H362 0.961 . S
C376 C375 1.502 . S
C377 H363 0.960 . S
C377 H364 0.961 . S
C377 H365 0.959 . S
C377 C375 1.561 . S
C378 C375 1.526 . S
C378 C379 1.396 . S
C378 C383 1.390 . S
C379 C373 1.465 . S
C379 C378 1.396 . S
C379 C380 1.399 . S
C380 H366 0.929 . S
C380 C379 1.399 . S
C380 C381 1.385 . S
C381 H367 0.931 . S
C381 C380 1.385 . S
C381 C382 1.389 . S
C382 C381 1.389 . S
C382 C383 1.387 . S
C383 H368 0.930 . S
C383 C378 1.390 . S
C383 C382 1.387 . S
H384 C396 0.930 . S
H385 C398 0.930 . S
H386 C399 0.930 . S
H387 C403 0.959 . S
H388 C403 0.959 . S
H389 C403 0.961 . S
H390 C404 0.960 . S
H391 C404 0.961 . S
H392 C404 0.959 . S
H393 C407 0.929 . S
H394 C408 0.931 . S
H395 C410 0.930 . S
C396 H384 0.930 . S
C396 C397 1.399 . S
C396 C401 1.399 . S
C397 C396 1.399 . S
C397 C398 1.376 . S
C398 H385 0.930 . S
C398 C397 1.376 . S
C398 C399 1.388 . S
C399 H386 0.930 . S
C399 C398 1.388 . S
C399 C400 1.390 . S
C400 C399 1.390 . S
C400 C401 1.394 . S
C400 C406 1.465 1_655 S
C401 C396 1.399 . S
C401 C400 1.394 . S
C401 C402 1.516 . S
C402 C401 1.516 . S
C402 C403 1.502 1_655 S
C402 C404 1.561 . S
C402 C405 1.526 1_655 S
C403 H387 0.959 . S
C403 H388 0.959 . S
C403 H389 0.961 . S
C403 C402 1.502 1_455 S
C404 H390 0.960 . S
C404 H391 0.961 . S
C404 H392 0.959 . S
C404 C402 1.561 . S
C405 C402 1.526 1_455 S
C405 C406 1.396 . S
C405 C410 1.390 . S
C406 C400 1.465 1_455 S
C406 C405 1.396 . S
C406 C407 1.399 . S
C407 H393 0.929 . S
C407 C406 1.399 . S
C407 C408 1.385 . S
C408 H394 0.931 . S
C408 C407 1.385 . S
C408 C409 1.389 . S
C409 C408 1.389 . S
C409 C410 1.387 . S
C410 H395 0.930 . S
C410 C405 1.390 . S
C410 C409 1.387 . S
H411 C423 0.930 . S
H412 C425 0.930 . S
H413 C426 0.930 . S
H414 C430 0.959 . S
H415 C430 0.958 . S
H416 C430 0.961 . S
H417 C431 0.960 . S
H418 C431 0.961 . S
H419 C431 0.959 . S
H420 C434 0.929 . S
H421 C435 0.931 . S
H422 C437 0.930 . S
C423 H411 0.930 . S
C423 C424 1.399 1_545 S
C423 C428 1.399 . S
C424 C423 1.399 1_565 S
C424 C425 1.376 . S
C425 H412 0.930 . S
C425 C424 1.376 . S
C425 C426 1.388 . S
C426 H413 0.930 . S
C426 C425 1.388 . S
C426 C427 1.390 . S
C427 C426 1.390 . S
C427 C428 1.394 1_565 S
C427 C433 1.465 1_554 S
C428 C423 1.399 . S
C428 C427 1.394 1_545 S
C428 C429 1.516 . S
C429 C428 1.516 . S
C429 C430 1.502 . S
C429 C431 1.561 . S
C429 C432 1.526 1_554 S
C430 H414 0.959 . S
C430 H415 0.958 . S
C430 H416 0.961 . S
C430 C429 1.502 . S
C431 H417 0.960 . S
C431 H418 0.961 . S
C431 H419 0.959 . S
C431 C429 1.561 . S
C432 C429 1.526 1_556 S
C432 C433 1.396 1_545 S
C432 C437 1.390 . S
C433 C427 1.465 1_556 S
C433 C432 1.396 1_565 S
C433 C434 1.399 . S
C434 H420 0.929 . S
C434 C433 1.399 . S
C434 C435 1.385 . S
C435 H421 0.931 . S
C435 C434 1.385 . S
C435 C436 1.389 1_565 S
C436 C435 1.389 1_545 S
C436 C437 1.387 . S
C437 H422 0.930 . S
C437 C432 1.390 . S
C437 C436 1.387 . S
H438 C450 0.930 . S
H439 C452 0.930 . S
H440 C453 0.930 . S
H441 C457 0.959 . S
H442 C457 0.959 . S
H443 C457 0.961 . S
H444 C458 0.960 . S
H445 C458 0.961 . S
H446 C458 0.959 . S
H447 C461 0.929 . S
H448 C462 0.931 . S
H449 C464 0.930 . S
C450 H438 0.930 . S
C450 C451 1.399 1_554 S
C450 C455 1.399 . S
C451 C450 1.399 1_556 S
C451 C452 1.376 . S
C452 H439 0.930 . S
C452 C451 1.376 . S
C452 C453 1.388 . S
C453 H440 0.930 . S
C453 C452 1.388 . S
C453 C454 1.390 . S
C454 C453 1.390 . S
C454 C455 1.394 1_556 S
C454 C460 1.465 . S
C455 C450 1.399 . S
C455 C454 1.394 1_554 S
C455 C456 1.516 . S
C456 C455 1.516 . S
C456 C457 1.502 . S
C456 C458 1.561 . S
C456 C459 1.526 . S
C457 H441 0.959 . S
C457 H442 0.959 . S
C457 H443 0.961 . S
C457 C456 1.502 . S
C458 H444 0.960 . S
C458 H445 0.961 . S
C458 H446 0.959 . S
C458 C456 1.561 . S
C459 C456 1.526 . S
C459 C460 1.396 1_554 S
C459 C464 1.390 . S
C460 C454 1.465 . S
C460 C459 1.396 1_556 S
C460 C461 1.399 . S
C461 H447 0.929 . S
C461 C460 1.399 . S
C461 C462 1.385 . S
C462 H448 0.931 . S
C462 C461 1.385 . S
C462 C463 1.389 1_556 S
C463 C462 1.389 1_554 S
C463 C464 1.387 . S
C464 H449 0.930 . S
C464 C459 1.390 . S
C464 C463 1.387 . S
H465 C477 0.930 . S
H466 C479 0.930 . S
H467 C480 0.930 . S
H468 C484 0.959 . S
H469 C484 0.959 . S
H470 C484 0.961 . S
H471 C485 0.960 . S
H472 C485 0.961 . S
H473 C485 0.959 . S
H474 C488 0.929 . S
H475 C489 0.931 . S
H476 C491 0.930 . S
C477 H465 0.930 . S
C477 C478 1.399 . S
C477 C482 1.399 . S
C478 C477 1.399 . S
C478 C479 1.376 . S
C479 H466 0.930 . S
C479 C478 1.376 . S
C479 C480 1.388 . S
C480 H467 0.930 . S
C480 C479 1.388 . S
C480 C481 1.390 . S
C481 C480 1.390 . S
C481 C482 1.394 . S
C481 C487 1.465 . S
C482 C477 1.399 . S
C482 C481 1.394 . S
C482 C483 1.516 . S
C483 C482 1.516 . S
C483 C484 1.502 . S
C483 C485 1.561 . S
C483 C486 1.526 . S
C484 H468 0.959 . S
C484 H469 0.959 . S
C484 H470 0.961 . S
C484 C483 1.502 . S
C485 H471 0.960 . S
C485 H472 0.961 . S
C485 H473 0.959 . S
C485 C483 1.561 . S
C486 C483 1.526 . S
C486 C487 1.396 . S
C486 C491 1.390 . S
C487 C481 1.465 . S
C487 C486 1.396 . S
C487 C488 1.399 . S
C488 H474 0.929 . S
C488 C487 1.399 . S
C488 C489 1.385 . S
C489 H475 0.931 . S
C489 C488 1.385 . S
C489 C490 1.389 . S
C490 C489 1.389 . S
C490 C491 1.387 . S
C491 H476 0.930 . S
C491 C486 1.390 . S
C491 C490 1.387 . S
H492 C504 0.930 . S
H493 C506 0.930 . S
H494 C507 0.930 . S
H495 C511 0.959 . S
H496 C511 0.959 . S
H497 C511 0.961 . S
H498 C512 0.960 . S
H499 C512 0.961 . S
H500 C512 0.959 . S
H501 C515 0.929 . S
H502 C516 0.931 . S
H503 C518 0.930 . S
C504 H492 0.930 . S
C504 C505 1.399 . S
C504 C509 1.399 . S
C505 C504 1.399 . S
C505 C506 1.376 . S
C506 H493 0.930 . S
C506 C505 1.376 . S
C506 C507 1.388 . S
C507 H494 0.930 . S
C507 C506 1.388 . S
C507 C508 1.390 . S
C508 C507 1.390 . S
C508 C509 1.394 . S
C508 C514 1.465 . S
C509 C504 1.399 . S
C509 C508 1.394 . S
C509 C510 1.516 . S
C510 C509 1.516 . S
C510 C511 1.502 . S
C510 C512 1.561 . S
C510 C513 1.526 . S
C511 H495 0.959 . S
C511 H496 0.959 . S
C511 H497 0.961 . S
C511 C510 1.502 . S
C512 H498 0.960 . S
C512 H499 0.961 . S
C512 H500 0.959 . S
C512 C510 1.561 . S
C513 C510 1.526 . S
C513 C514 1.396 . S
C513 C518 1.390 . S
C514 C508 1.465 . S
C514 C513 1.396 . S
C514 C515 1.399 . S
C515 H501 0.929 . S
C515 C514 1.399 . S
C515 C516 1.385 . S
C516 H502 0.931 . S
C516 C515 1.385 . S
C516 C517 1.389 . S
C517 C516 1.389 . S
C517 C518 1.387 . S
C518 H503 0.930 . S
C518 C513 1.390 . S
C518 C517 1.387 . S
H519 C531 0.930 . S
H520 C533 0.930 . S
H521 C534 0.930 . S
H522 C538 0.959 . S
H523 C538 0.959 . S
H524 C538 0.961 . S
H525 C539 0.960 . S
H526 C539 0.961 . S
H527 C539 0.959 . S
H528 C542 0.929 . S
H529 C543 0.931 . S
H530 C545 0.930 . S
C531 H519 0.930 . S
C531 C532 1.399 . S
C531 C536 1.399 . S
C532 C531 1.399 . S
C532 C533 1.376 . S
C533 H520 0.930 . S
C533 C532 1.376 . S
C533 C534 1.388 1_554 S
C534 H521 0.930 . S
C534 C533 1.388 1_556 S
C534 C535 1.390 . S
C535 C534 1.390 . S
C535 C536 1.394 1_556 S
C535 C541 1.465 . S
C536 C531 1.399 . S
C536 C535 1.394 1_554 S
C536 C537 1.516 . S
C537 C536 1.516 . S
C537 C538 1.502 . S
C537 C539 1.561 1_554 S
C537 C540 1.526 1_554 S
C538 H522 0.959 . S
C538 H523 0.959 . S
C538 H524 0.961 . S
C538 C537 1.502 . S
C539 H525 0.960 . S
C539 H526 0.961 . S
C539 H527 0.959 . S
C539 C537 1.561 1_556 S
C540 C537 1.526 1_556 S
C540 C541 1.396 . S
C540 C545 1.390 . S
C541 C535 1.465 . S
C541 C540 1.396 . S
C541 C542 1.399 . S
C542 H528 0.929 . S
C542 C541 1.399 . S
C542 C543 1.385 . S
C543 H529 0.931 . S
C543 C542 1.385 . S
C543 C544 1.389 . S
C544 C543 1.389 . S
C544 C545 1.387 . S
C545 H530 0.930 . S
C545 C540 1.390 . S
C545 C544 1.387 . S
H546 C558 0.930 . S
H547 C560 0.930 . S
H548 C561 0.930 . S
H549 C565 0.959 . S
H550 C565 0.959 . S
H551 C565 0.961 . S
H552 C566 0.960 . S
H553 C566 0.961 . S
H554 C566 0.959 . S
H555 C569 0.929 . S
H556 C570 0.931 . S
H557 C572 0.930 . S
C558 H546 0.930 . S
C558 C559 1.399 . S
C558 C563 1.399 . S
C559 C558 1.399 . S
C559 C560 1.376 . S
C560 H547 0.930 . S
C560 C559 1.376 . S
C560 C561 1.388 . S
C561 H548 0.930 . S
C561 C560 1.388 . S
C561 C562 1.390 . S
C562 C561 1.390 . S
C562 C563 1.394 . S
C562 C568 1.465 . S
C563 C558 1.399 . S
C563 C562 1.394 . S
C563 C564 1.516 . S
C564 C563 1.516 . S
C564 C565 1.502 . S
C564 C566 1.561 . S
C564 C567 1.526 . S
C565 H549 0.959 . S
C565 H550 0.959 . S
C565 H551 0.961 . S
C565 C564 1.502 . S
C566 H552 0.960 . S
C566 H553 0.961 . S
C566 H554 0.959 . S
C566 C564 1.561 . S
C567 C564 1.526 . S
C567 C568 1.396 . S
C567 C572 1.390 . S
C568 C562 1.465 . S
C568 C567 1.396 . S
C568 C569 1.399 . S
C569 H555 0.929 . S
C569 C568 1.399 . S
C569 C570 1.385 . S
C570 H556 0.931 . S
C570 C569 1.385 . S
C570 C571 1.389 . S
C571 C570 1.389 . S
C571 C572 1.387 . S
C572 H557 0.930 . S
C572 C567 1.390 . S
C572 C571 1.387 . S
H573 C585 0.930 . S
H574 C587 0.930 . S
H575 C588 0.930 . S
H576 C592 0.959 . S
H577 C592 0.959 . S
H578 C592 0.961 . S
H579 C593 0.960 . S
H580 C593 0.961 . S
H581 C593 0.959 . S
H582 C596 0.929 . S
H583 C597 0.931 . S
H584 C599 0.930 . S
C585 H573 0.930 . S
C585 C586 1.399 . S
C585 C590 1.399 . S
C586 C585 1.399 . S
C586 C587 1.376 . S
C587 H574 0.930 . S
C587 C586 1.376 . S
C587 C588 1.388 . S
C588 H575 0.930 . S
C588 C587 1.388 . S
C588 C589 1.390 . S
C589 C588 1.390 . S
C589 C590 1.394 . S
C589 C595 1.465 . S
C590 C585 1.399 . S
C590 C589 1.394 . S
C590 C591 1.516 . S
C591 C590 1.516 . S
C591 C592 1.502 . S
C591 C593 1.561 . S
C591 C594 1.526 . S
C592 H576 0.959 . S
C592 H577 0.959 . S
C592 H578 0.961 . S
C592 C591 1.502 . S
C593 H579 0.960 . S
C593 H580 0.961 . S
C593 H581 0.959 . S
C593 C591 1.561 . S
C594 C591 1.526 . S
C594 C595 1.396 . S
C594 C599 1.390 . S
C595 C589 1.465 . S
C595 C594 1.396 . S
C595 C596 1.399 . S
C596 H582 0.929 . S
C596 C595 1.399 . S
C596 C597 1.385 . S
C597 H583 0.931 . S
C597 C596 1.385 . S
C597 C598 1.389 . S
C598 C597 1.389 . S
C598 C599 1.387 . S
C599 H584 0.930 . S
C599 C594 1.390 . S
C599 C598 1.387 . S
H600 C612 0.930 . S
H601 C614 0.930 . S
H602 C615 0.930 . S
H603 C619 0.959 . S
H604 C619 0.959 . S
H605 C619 0.961 . S
H606 C620 0.960 . S
H607 C620 0.961 . S
H608 C620 0.959 . S
H609 C623 0.929 . S
H610 C624 0.931 . S
H611 C626 0.930 . S
C612 H600 0.930 . S
C612 C613 1.399 . S
C612 C617 1.399 . S
C613 C612 1.399 . S
C613 C614 1.376 . S
C614 H601 0.930 . S
C614 C613 1.376 . S
C614 C615 1.388 . S
C615 H602 0.930 . S
C615 C614 1.388 . S
C615 C616 1.390 . S
C616 C615 1.390 . S
C616 C617 1.394 . S
C616 C622 1.465 . S
C617 C612 1.399 . S
C617 C616 1.394 . S
C617 C618 1.516 . S
C618 C617 1.516 . S
C618 C619 1.502 . S
C618 C620 1.561 . S
C618 C621 1.526 . S
C619 H603 0.959 . S
C619 H604 0.959 . S
C619 H605 0.961 . S
C619 C618 1.502 . S
C620 H606 0.960 . S
C620 H607 0.961 . S
C620 H608 0.959 . S
C620 C618 1.561 . S
C621 C618 1.526 . S
C621 C622 1.396 . S
C621 C626 1.390 . S
C622 C616 1.465 . S
C622 C621 1.396 . S
C622 C623 1.399 . S
C623 H609 0.929 . S
C623 C622 1.399 . S
C623 C624 1.385 . S
C624 H610 0.931 . S
C624 C623 1.385 . S
C624 C625 1.389 . S
C625 C624 1.389 . S
C625 C626 1.387 . S
C626 H611 0.930 . S
C626 C621 1.390 . S
C626 C625 1.387 . S
H627 C639 0.930 . S
H628 C641 0.930 . S
H629 C642 0.930 . S
H630 C646 0.959 . S
H631 C646 0.959 . S
H632 C646 0.961 . S
H633 C647 0.960 . S
H634 C647 0.961 . S
H635 C647 0.959 . S
H636 C650 0.929 . S
H637 C651 0.931 . S
H638 C653 0.930 . S
C639 H627 0.930 . S
C639 C640 1.399 . S
C639 C644 1.399 . S
C640 C639 1.399 . S
C640 C641 1.376 . S
C641 H628 0.930 . S
C641 C640 1.376 . S
C641 C642 1.388 . S
C642 H629 0.930 . S
C642 C641 1.388 . S
C642 C643 1.390 . S
C643 C642 1.390 . S
C643 C644 1.394 . S
C643 C649 1.455 1_655 S
C644 C639 1.399 . S
C644 C643 1.394 . S
C644 C645 1.516 . S
C645 C644 1.516 . S
C645 C646 1.502 1_655 S
C645 C647 1.561 . S
C645 C648 1.526 1_655 S
C646 H630 0.959 . S
C646 H631 0.959 . S
C646 H632 0.961 . S
C646 C645 1.502 1_455 S
C647 H633 0.960 . S
C647 H634 0.961 . S
C647 H635 0.959 . S
C647 C645 1.561 . S
C648 C645 1.526 1_455 S
C648 C649 1.422 . S
C648 C653 1.390 . S
C649 C643 1.455 1_455 S
C649 C648 1.422 . S
C649 C650 1.389 . S
C650 H636 0.929 . S
C650 C649 1.389 . S
C650 C651 1.385 . S
C651 H637 0.931 . S
C651 C650 1.385 . S
C651 C652 1.389 . S
C652 C651 1.389 . S
C652 C653 1.387 . S
C653 H638 0.930 . S
C653 C648 1.390 . S
C653 C652 1.387 . S
H654 C666 0.930 . S
H655 C668 0.930 . S
H656 C669 0.930 . S
H657 C673 0.959 . S
H658 C673 0.959 . S
H659 C673 0.961 . S
H660 C674 0.960 . S
H661 C674 0.961 . S
H662 C674 0.959 . S
H663 C677 0.929 . S
H664 C678 0.931 . S
H665 C680 0.930 . S
C666 H654 0.930 . S
C666 C667 1.399 1_545 S
C666 C671 1.399 . S
C667 C666 1.399 1_565 S
C667 C668 1.376 . S
C668 H655 0.930 . S
C668 C667 1.376 . S
C668 C669 1.388 . S
C669 H656 0.930 . S
C669 C668 1.388 . S
C669 C670 1.390 . S
C670 C669 1.390 . S
C670 C671 1.394 1_565 S
C670 C676 1.465 . S
C671 C666 1.399 . S
C671 C670 1.394 1_545 S
C671 C672 1.516 . S
C672 C671 1.516 . S
C672 C673 1.502 . S
C672 C674 1.561 . S
C672 C675 1.526 . S
C673 H657 0.959 . S
C673 H658 0.959 . S
C673 H659 0.961 . S
C673 C672 1.502 . S
C674 H660 0.960 . S
C674 H661 0.961 . S
C674 H662 0.959 . S
C674 C672 1.561 . S
C675 C672 1.526 . S
C675 C676 1.396 1_545 S
C675 C680 1.390 . S
C676 C670 1.465 . S
C676 C675 1.396 1_565 S
C676 C677 1.399 . S
C677 H663 0.929 . S
C677 C676 1.399 . S
C677 C678 1.385 . S
C678 H664 0.931 . S
C678 C677 1.385 . S
C678 C679 1.389 1_565 S
C679 C678 1.389 1_545 S
C679 C680 1.387 . S
C680 H665 0.930 . S
C680 C675 1.390 . S
C680 C679 1.387 . S
H681 C693 0.930 . S
H682 C695 0.930 . S
H683 C696 0.930 . S
H684 C700 0.959 . S
H685 C700 0.959 . S
H686 C700 0.961 . S
H687 C701 0.960 . S
H688 C701 0.961 . S
H689 C701 0.959 . S
H690 C704 0.929 . S
H691 C705 0.931 . S
H692 C707 0.930 . S
C693 H681 0.930 . S
C693 C694 1.399 . S
C693 C698 1.399 . S
C694 C693 1.399 . S
C694 C695 1.376 . S
C695 H682 0.930 . S
C695 C694 1.376 . S
C695 C696 1.388 . S
C696 H683 0.930 . S
C696 C695 1.388 . S
C696 C697 1.390 . S
C697 C696 1.390 . S
C697 C698 1.394 . S
C697 C703 1.465 . S
C698 C693 1.399 . S
C698 C697 1.394 . S
C698 C699 1.516 . S
C699 C698 1.516 . S
C699 C700 1.502 . S
C699 C701 1.561 . S
C699 C702 1.526 . S
C700 H684 0.959 . S
C700 H685 0.959 . S
C700 H686 0.961 . S
C700 C699 1.502 . S
C701 H687 0.960 . S
C701 H688 0.961 . S
C701 H689 0.959 . S
C701 C699 1.561 . S
C702 C699 1.526 . S
C702 C703 1.396 . S
C702 C707 1.390 . S
C703 C697 1.465 . S
C703 C702 1.396 . S
C703 C704 1.399 . S
C704 H690 0.929 . S
C704 C703 1.399 . S
C704 C705 1.385 . S
C705 H691 0.931 . S
C705 C704 1.385 . S
C705 C706 1.389 . S
C706 C705 1.389 . S
C706 C707 1.387 . S
C707 H692 0.930 . S
C707 C702 1.390 . S
C707 C706 1.387 . S
H708 C720 0.930 . S
H709 C722 0.930 . S
H710 C723 0.930 . S
H711 C727 0.959 . S
H712 C727 0.959 . S
H713 C727 0.961 . S
H714 C728 0.960 . S
H715 C728 0.961 . S
H716 C728 0.959 . S
H717 C731 0.929 . S
H718 C732 0.931 . S
H719 C734 0.930 . S
C720 H708 0.930 . S
C720 C721 1.399 . S
C720 C725 1.399 . S
C721 C720 1.399 . S
C721 C722 1.376 . S
C722 H709 0.930 . S
C722 C721 1.376 . S
C722 C723 1.388 . S
C723 H710 0.930 . S
C723 C722 1.388 . S
C723 C724 1.390 . S
C724 C723 1.390 . S
C724 C725 1.394 . S
C724 C730 1.465 1_455 S
C725 C720 1.399 . S
C725 C724 1.394 . S
C725 C726 1.516 . S
C726 C725 1.516 . S
C726 C727 1.502 1_455 S
C726 C728 1.561 . S
C726 C729 1.526 1_455 S
C727 H711 0.959 . S
C727 H712 0.959 . S
C727 H713 0.961 . S
C727 C726 1.502 1_655 S
C728 H714 0.960 . S
C728 H715 0.961 . S
C728 H716 0.959 . S
C728 C726 1.561 . S
C729 C726 1.526 1_655 S
C729 C730 1.396 . S
C729 C734 1.390 . S
C730 C724 1.465 1_655 S
C730 C729 1.396 . S
C730 C731 1.399 . S
C731 H717 0.929 . S
C731 C730 1.399 . S
C731 C732 1.385 . S
C732 H718 0.931 . S
C732 C731 1.385 . S
C732 C733 1.389 . S
C733 C732 1.389 . S
C733 C734 1.387 . S
C734 H719 0.930 . S
C734 C729 1.390 . S
C734 C733 1.387 . S
H735 C747 0.930 . S
H736 C749 0.930 . S
H737 C750 0.930 . S
H738 C754 0.959 . S
H739 C754 0.959 . S
H740 C754 0.961 . S
H741 C755 0.960 . S
H742 C755 0.961 . S
H743 C755 0.959 . S
H744 C758 0.929 . S
H745 C759 0.931 . S
H746 C761 0.930 . S
C747 H735 0.930 . S
C747 C748 1.399 1_545 S
C747 C752 1.399 . S
C748 C747 1.399 1_565 S
C748 C749 1.376 . S
C749 H736 0.930 . S
C749 C748 1.376 . S
C749 C750 1.388 . S
C750 H737 0.930 . S
C750 C749 1.388 . S
C750 C751 1.390 . S
C751 C750 1.390 . S
C751 C752 1.394 1_565 S
C751 C757 1.465 . S
C752 C747 1.399 . S
C752 C751 1.394 1_545 S
C752 C753 1.516 . S
C753 C752 1.516 . S
C753 C754 1.502 . S
C753 C755 1.561 . S
C753 C756 1.526 . S
C754 H738 0.959 . S
C754 H739 0.959 . S
C754 H740 0.961 . S
C754 C753 1.502 . S
C755 H741 0.960 . S
C755 H742 0.961 . S
C755 H743 0.959 . S
C755 C753 1.561 . S
C756 C753 1.526 . S
C756 C757 1.396 1_545 S
C756 C761 1.390 . S
C757 C751 1.465 . S
C757 C756 1.396 1_565 S
C757 C758 1.399 . S
C758 H744 0.929 . S
C758 C757 1.399 . S
C758 C759 1.385 . S
C759 H745 0.931 . S
C759 C758 1.385 . S
C759 C760 1.389 1_565 S
C760 C759 1.389 1_545 S
C760 C761 1.387 . S
C761 H746 0.930 . S
C761 C756 1.390 . S
C761 C760 1.387 . S
H762 C774 0.930 . S
H763 C776 0.930 . S
H764 C777 0.930 . S
H765 C781 0.959 . S
H766 C781 0.959 . S
H767 C781 0.961 . S
H768 C782 0.960 . S
H769 C782 0.969 . S
H770 C782 0.959 . S
H771 C785 0.929 . S
H772 C786 0.931 . S
H773 C788 0.930 . S
C774 H762 0.930 . S
C774 C775 1.399 . S
C774 C779 1.399 . S
C775 C774 1.399 . S
C775 C776 1.376 . S
C776 H763 0.930 . S
C776 C775 1.376 . S
C776 C777 1.388 . S
C777 H764 0.930 . S
C777 C776 1.388 . S
C777 C778 1.390 . S
C778 C777 1.390 . S
C778 C779 1.394 . S
C778 C784 1.465 . S
C779 C774 1.399 . S
C779 C778 1.394 . S
C779 C780 1.516 . S
C780 C779 1.516 . S
C780 C781 1.502 . S
C780 C782 1.561 . S
C780 C783 1.526 . S
C781 H765 0.959 . S
C781 H766 0.959 . S
C781 H767 0.961 . S
C781 C780 1.502 . S
C782 H768 0.960 . S
C782 H769 0.969 . S
C782 H770 0.959 . S
C782 C780 1.561 . S
C783 C780 1.526 . S
C783 C784 1.396 . S
C783 C788 1.390 . S
C784 C778 1.465 . S
C784 C783 1.396 . S
C784 C785 1.399 . S
C785 H771 0.929 . S
C785 C784 1.399 . S
C785 C786 1.385 . S
C786 H772 0.931 . S
C786 C785 1.385 . S
C786 C787 1.389 . S
C787 C786 1.389 . S
C787 C788 1.387 . S
C788 H773 0.930 . S
C788 C783 1.390 . S
C788 C787 1.387 . S
H789 C801 0.930 . S
H790 C803 0.930 . S
H791 C804 0.930 . S
H792 C808 0.959 . S
H793 C808 0.959 . S
H794 C808 0.961 . S
H795 C809 0.960 . S
H796 C809 0.961 . S
H797 C809 0.959 . S
H798 C812 0.929 . S
H799 C813 0.931 . S
H800 C815 0.930 . S
C801 H789 0.930 . S
C801 C802 1.399 . S
C801 C806 1.399 . S
C802 C801 1.399 . S
C802 C803 1.376 . S
C803 H790 0.930 . S
C803 C802 1.376 . S
C803 C804 1.388 . S
C804 H791 0.930 . S
C804 C803 1.388 . S
C804 C805 1.390 . S
C805 C804 1.390 . S
C805 C806 1.394 . S
C805 C811 1.465 . S
C806 C801 1.399 . S
C806 C805 1.394 . S
C806 C807 1.516 1_655 S
C807 C806 1.516 1_455 S
C807 C808 1.502 . S
C807 C809 1.561 1_455 S
C807 C810 1.526 . S
C808 H792 0.959 . S
C808 H793 0.959 . S
C808 H794 0.961 . S
C808 C807 1.502 . S
C809 H795 0.960 . S
C809 H796 0.961 . S
C809 H797 0.959 . S
C809 C807 1.561 1_655 S
C810 C807 1.526 . S
C810 C811 1.396 1_455 S
C810 C815 1.390 . S
C811 C805 1.465 . S
C811 C810 1.396 1_655 S
C811 C812 1.399 . S
C812 H798 0.929 . S
C812 C811 1.399 . S
C812 C813 1.385 1_655 S
C813 H799 0.931 . S
C813 C812 1.385 1_455 S
C813 C814 1.389 . S
C814 C813 1.389 . S
C814 C815 1.387 . S
C815 H800 0.930 . S
C815 C810 1.390 . S
C815 C814 1.387 . S
H816 C828 0.930 . S
H817 C830 0.930 . S
H818 C831 0.930 . S
H819 C835 0.959 . S
H820 C835 0.959 . S
H821 C835 0.961 . S
H822 C836 0.960 . S
H823 C836 0.961 . S
H824 C836 0.959 . S
H825 C839 0.929 . S
H826 C840 0.931 . S
H827 C842 0.930 1_545 S
C828 H816 0.930 . S
C828 C829 1.399 . S
C828 C833 1.399 . S
C829 C828 1.399 . S
C829 C830 1.376 1_545 S
C830 H817 0.930 . S
C830 C829 1.376 1_565 S
C830 C831 1.388 . S
C831 H818 0.930 . S
C831 C830 1.388 . S
C831 C832 1.390 . S
C832 C831 1.390 . S
C832 C833 1.394 1_565 S
C832 C838 1.465 . S
C833 C828 1.399 . S
C833 C832 1.394 1_545 S
C833 C834 1.516 . S
C834 C833 1.516 . S
C834 C835 1.502 . S
C834 C836 1.561 1_545 S
C834 C837 1.526 1_545 S
C835 H819 0.959 . S
C835 H820 0.959 . S
C835 H821 0.961 . S
C835 C834 1.502 . S
C836 H822 0.960 . S
C836 H823 0.961 . S
C836 H824 0.959 . S
C836 C834 1.561 1_565 S
C837 C834 1.526 1_565 S
C837 C838 1.396 . S
C837 C842 1.390 . S
C838 C832 1.465 . S
C838 C837 1.396 . S
C838 C839 1.399 . S
C839 H825 0.929 . S
C839 C838 1.399 . S
C839 C840 1.385 . S
C840 H826 0.931 . S
C840 C839 1.385 . S
C840 C841 1.389 . S
C841 C840 1.389 . S
C841 C842 1.387 . S
C842 H827 0.930 1_565 S
C842 C837 1.390 . S
C842 C841 1.387 . S
H843 C855 0.930 . S
H844 C857 0.930 . S
H845 C858 0.930 . S
H846 C862 0.959 . S
H847 C862 0.959 . S
H848 C862 0.961 . S
H849 C863 0.960 . S
H850 C863 0.961 . S
H851 C863 0.959 . S
H852 C866 0.929 . S
H853 C867 0.931 . S
H854 C869 0.930 . S
C855 H843 0.930 . S
C855 C856 1.399 . S
C855 C860 1.399 . S
C856 C855 1.399 . S
C856 C857 1.376 . S
C857 H844 0.930 . S
C857 C856 1.376 . S
C857 C858 1.388 . S
C858 H845 0.930 . S
C858 C857 1.388 . S
C858 C859 1.390 . S
C859 C858 1.390 . S
C859 C860 1.394 . S
C859 C865 1.465 . S
C860 C855 1.399 . S
C860 C859 1.394 . S
C860 C861 1.516 . S
C861 C860 1.516 . S
C861 C862 1.502 . S
C861 C863 1.561 . S
C861 C864 1.526 . S
C862 H846 0.959 . S
C862 H847 0.959 . S
C862 H848 0.961 . S
C862 C861 1.502 . S
C863 H849 0.960 . S
C863 H850 0.961 . S
C863 H851 0.959 . S
C863 C861 1.561 . S
C864 C861 1.526 . S
C864 C865 1.396 . S
C864 C869 1.390 . S
C865 C859 1.465 . S
C865 C864 1.396 . S
C865 C866 1.399 . S
C866 H852 0.929 . S
C866 C865 1.399 . S
C866 C867 1.385 . S
C867 H853 0.931 . S
C867 C866 1.385 . S
C867 C868 1.389 . S
C868 C867 1.389 . S
C868 C869 1.387 . S
C869 H854 0.930 . S
C869 C864 1.390 . S
C869 C868 1.387 . S
H870 C882 0.930 . S
H871 C884 0.930 . S
H872 C885 0.930 . S
H873 C889 0.959 . S
H874 C889 0.959 . S
H875 C889 0.961 . S
H876 C890 0.960 . S
H877 C890 0.961 . S
H878 C890 0.959 . S
H879 C893 0.929 . S
H880 C894 0.931 . S
H881 C896 0.930 . S
C882 H870 0.930 . S
C882 C883 1.399 . S
C882 C887 1.399 . S
C883 C882 1.399 . S
C883 C884 1.376 1_455 S
C884 H871 0.930 . S
C884 C883 1.376 1_655 S
C884 C885 1.388 . S
C885 H872 0.930 . S
C885 C884 1.388 . S
C885 C886 1.390 . S
C886 C885 1.390 . S
C886 C887 1.394 1_655 S
C886 C892 1.465 . S
C887 C882 1.399 . S
C887 C886 1.394 1_455 S
C887 C888 1.516 . S
C888 C887 1.516 . S
C888 C889 1.502 . S
C888 C890 1.561 . S
C888 C891 1.526 . S
C889 H873 0.959 . S
C889 H874 0.959 . S
C889 H875 0.961 . S
C889 C888 1.502 . S
C890 H876 0.960 . S
C890 H877 0.961 . S
C890 H878 0.959 . S
C890 C888 1.561 . S
C891 C888 1.526 . S
C891 C892 1.396 1_455 S
C891 C896 1.390 . S
C892 C886 1.465 . S
C892 C891 1.396 1_655 S
C892 C893 1.399 . S
C893 H879 0.929 . S
C893 C892 1.399 . S
C893 C894 1.385 . S
C894 H880 0.931 . S
C894 C893 1.385 . S
C894 C895 1.389 . S
C895 C894 1.389 . S
C895 C896 1.387 1_655 S
C896 H881 0.930 . S
C896 C891 1.390 . S
C896 C895 1.387 1_455 S
H897 C909 0.930 . S
H898 C911 0.930 . S
H899 C912 0.930 . S
H900 C916 0.959 . S
H901 C916 0.959 . S
H902 C916 0.961 . S
H903 C917 0.960 . S
H904 C917 0.961 . S
H905 C917 0.959 1_565 S
H906 C920 0.929 . S
H907 C921 0.931 . S
H908 C923 0.930 . S
C909 H897 0.930 . S
C909 C910 1.399 1_545 S
C909 C914 1.399 . S
C910 C909 1.399 1_565 S
C910 C911 1.376 . S
C911 H898 0.930 . S
C911 C910 1.376 . S
C911 C912 1.388 . S
C912 H899 0.930 . S
C912 C911 1.388 . S
C912 C913 1.390 . S
C913 C912 1.390 . S
C913 C914 1.394 1_565 S
C913 C919 1.465 . S
C914 C909 1.399 . S
C914 C913 1.394 1_545 S
C914 C915 1.516 . S
C915 C914 1.516 . S
C915 C916 1.502 . S
C915 C917 1.561 . S
C915 C918 1.526 . S
C916 H900 0.959 . S
C916 H901 0.959 . S
C916 H902 0.961 . S
C916 C915 1.502 . S
C917 H903 0.960 . S
C917 H904 0.961 . S
C917 H905 0.959 1_545 S
C917 C915 1.561 . S
C918 C915 1.526 . S
C918 C919 1.396 1_545 S
C918 C923 1.390 . S
C919 C913 1.465 . S
C919 C918 1.396 1_565 S
C919 C920 1.399 . S
C920 H906 0.929 . S
C920 C919 1.399 . S
C920 C921 1.385 . S
C921 H907 0.931 . S
C921 C920 1.385 . S
C921 C922 1.389 1_565 S
C922 C921 1.389 1_545 S
C922 C923 1.387 . S
C923 H908 0.930 . S
C923 C918 1.390 . S
C923 C922 1.387 . S
C289 C16 1.492 . S
C301 C223 1.494 . S
C316 C39 1.502 . S
C328 C246 1.485 . S
C343 C62 1.509 . S
C355 C269 1.530 . S
C370 C85 1.518 . S
C382 C154 1.523 . S
C397 C177 1.499 . S
C409 C108 1.487 . S
C424 C200 1.537 . S
C436 C131 1.493 . S
C451 N242 2.169 . S
C463 N12 2.197 . S
C478 N35 2.182 . S
C490 N265 2.202 . S
C505 N58 2.172 . S
C517 N150 2.199 . S
C532 N81 2.202 . S
C544 N173 2.184 . S
C559 N104 2.179 . S
C571 N196 2.161 . S
C586 N127 2.162 . S
C598 N219 2.189 . S
C613 C214 1.586 . S
C625 C7 1.594 . S
C640 C30 1.587 . S
C652 C237 1.573 . S
C667 C53 1.607 . S
C679 C260 1.570 . S
C694 C145 1.575 . S
C706 C76 1.584 . S
C721 C99 1.583 . S
C733 C168 1.577 . S
C748 C191 1.608 . S
C760 C122 1.565 . S
C775 N2 2.106 . S
C787 N71 2.162 . S
C802 N94 2.122 . S
C814 N25 2.086 . S
C829 N48 2.110 . S
C841 N117 2.160 . S
C856 N140 2.131 . S
C868 N209 2.146 . S
C883 N163 2.074 . S
C895 N232 2.160 . S
C910 N255 2.143 . S
C922 N186 2.076 . S
