# Generated by pormake.
# Topology uov, (4)-cn, num edge types: 1
# Building blocks:
#     Node 0, Type 0, BuildingBlock: UXUYUI_clean_sbu_0, # of connection points: 4
#     Node 1, Type 0, BuildingBlock: UXUYUI_clean_sbu_0, # of connection points: 4
#     Node 2, Type 0, BuildingBlock: UXUYUI_clean_sbu_0, # of connection points: 4
#     Node 3, Type 0, BuildingBlock: UXUYUI_clean_sbu_0, # of connection points: 4
#     Node 4, Type 0, BuildingBlock: UXUYUI_clean_sbu_0, # of connection points: 4
#     Node 5, Type 0, BuildingBlock: UXUYUI_clean_sbu_0, # of connection points: 4
#     Node 6, Type 0, BuildingBlock: UXUYUI_clean_sbu_0, # of connection points: 4
#     Node 7, Type 0, BuildingBlock: UXUYUI_clean_sbu_0, # of connection points: 4
#     Edge 8, Type (0, 0), BuildingBlock: UVAHIK_clean_linker_0, # of connection points: 2
#     Edge 9, Type (0, 0), BuildingBlock: UVAHIK_clean_linker_0, # of connection points: 2
#     Edge 10, Type (0, 0), BuildingBlock: UVAHIK_clean_linker_0, # of connection points: 2
#     Edge 11, Type (0, 0), BuildingBlock: UVAHIK_clean_linker_0, # of connection points: 2
#     Edge 12, Type (0, 0), BuildingBlock: UVAHIK_clean_linker_0, # of connection points: 2
#     Edge 13, Type (0, 0), BuildingBlock: UVAHIK_clean_linker_0, # of connection points: 2
#     Edge 14, Type (0, 0), BuildingBlock: UVAHIK_clean_linker_0, # of connection points: 2
#     Edge 15, Type (0, 0), BuildingBlock: UVAHIK_clean_linker_0, # of connection points: 2
#     Edge 16, Type (0, 0), BuildingBlock: UVAHIK_clean_linker_0, # of connection points: 2
#     Edge 17, Type (0, 0), BuildingBlock: UVAHIK_clean_linker_0, # of connection points: 2
#     Edge 18, Type (0, 0), BuildingBlock: UVAHIK_clean_linker_0, # of connection points: 2
#     Edge 19, Type (0, 0), BuildingBlock: UVAHIK_clean_linker_0, # of connection points: 2
#     Edge 20, Type (0, 0), BuildingBlock: UVAHIK_clean_linker_0, # of connection points: 2
#     Edge 21, Type (0, 0), BuildingBlock: UVAHIK_clean_linker_0, # of connection points: 2
#     Edge 22, Type (0, 0), BuildingBlock: UVAHIK_clean_linker_0, # of connection points: 2
#     Edge 23, Type (0, 0), BuildingBlock: UVAHIK_clean_linker_0, # of connection points: 2
# Relax obj value: 0.339
# Max RMSD: 0.266
# Mean RMSD: 0.265
data_MOF--net-uov--node1-UXUYUI_clean_sbu_0--edge1-UVAHIK_clean_linker_0
_symmetry_space_group_name_H-M    P1
_symmetry_Int_Tables_number       1
_symmetry_cell_setting            triclinic
loop_
_symmetry_equiv_pos_as_xyz
'x, y, z'
_cell_length_a     52.060671
_cell_length_b     52.050416
_cell_length_c     74.251713
_cell_angle_alpha  89.990164
_cell_angle_beta   90.029279
_cell_angle_gamma 90.239353
loop_
_atom_site_label
_atom_site_type_symbol
_atom_site_fract_x
_atom_site_fract_y
_atom_site_fract_z
_atom_type_partial_charge
Li0 Li 0.03612 0.2299 0.61998 0.0
Li1 Li 0.02662 0.27293 0.60716 0.0
Li2 Li -0.00179 0.23695 0.59973 0.0
Li3 Li 0.04018 0.24044 0.58782 0.0
C4 C 0.98258 0.25246 0.63185 0.0
N5 N 0.93393 0.25228 0.64662 0.0
C6 C 0.96633 0.27343 0.62925 0.0
C7 C 0.97418 0.23144 0.64199 0.0
C8 C 0.94177 0.27296 0.63683 0.0
C9 C 0.94949 0.23171 0.64934 0.0
C10 C 0.07554 0.27424 0.6136 0.0
C11 C 0.09852 0.31354 0.60723 0.0
N12 N 0.10457 0.31575 0.62498 0.0
C13 C 0.08219 0.27678 0.63175 0.0
C14 C 0.08395 0.29265 0.6012 0.0
C15 C 0.09682 0.29794 0.63725 0.0
C16 C 0.05793 0.18872 0.64006 0.0
N17 N 0.04744 0.21255 0.64087 0.0
C18 C 0.05293 0.21384 0.67278 0.0
C19 C 0.04445 0.22503 0.6568 0.0
C20 C 0.06438 0.18946 0.67235 0.0
C21 C 0.06661 0.17675 0.65574 0.0
H22 H 0.0597 0.17904 0.62728 0.0
H23 H 0.03569 0.24384 0.65703 0.0
C24 C 0.02685 0.32645 0.60071 0.0
N25 N 0.02702 0.30801 0.61364 0.0
C26 C 0.02689 0.35231 0.60552 0.0
C27 C 0.02682 0.33969 0.63689 0.0
C28 C 0.02703 0.31404 0.63145 0.0
C29 C 0.02675 0.35916 0.62381 0.0
H30 H 0.02642 0.32111 0.58669 0.0
H31 H 0.02708 0.29886 0.64141 0.0
C32 C 0.03239 0.18985 0.58855 0.0
N33 N 0.05055 0.15156 0.56622 0.0
C34 C 0.01567 0.17714 0.57679 0.0
C35 C 0.05833 0.18302 0.58902 0.0
C36 C 0.02523 0.15782 0.5656 0.0
C37 C 0.06715 0.16366 0.57759 0.0
C38 C 0.01157 0.26829 0.56563 0.0
C39 C 0.99325 0.25661 0.5545 0.0
C40 C 0.0306 0.28385 0.55796 0.0
C41 C 0.99436 0.2606 0.53591 0.0
C42 C 0.0311 0.28733 0.53931 0.0
N43 N 0.01311 0.27574 0.52876 0.0
C44 C 0.94653 0.24382 0.58945 0.0
C45 C 0.95662 0.20234 0.60051 0.0
C46 C 0.92166 0.23586 0.58513 0.0
N47 N 0.96359 0.22682 0.59641 0.0
C48 C 0.93189 0.1936 0.59655 0.0
C49 C 0.91427 0.21022 0.58822 0.0
H50 H 0.95261 0.26329 0.58658 0.0
H51 H 0.97052 0.18943 0.60639 0.0
C52 C 0.08594 0.23817 0.56683 0.0
N53 N 0.0603 0.23304 0.56682 0.0
C54 C 0.10092 0.23215 0.55181 0.0
C55 C 0.0628 0.21585 0.53705 0.0
C56 C 0.04866 0.22202 0.55234 0.0
C57 C 0.08932 0.22079 0.53668 0.0
H58 H 0.09483 0.24657 0.5786 0.0
H59 H 0.02841 0.21757 0.55277 0.0
O60 O 0.00637 0.25223 0.62412 0.0
O61 O 0.06059 0.25405 0.60804 0.0
O62 O 0.02345 0.20907 0.59941 0.0
O63 O 0.01076 0.26462 0.5839 0.0
H64 H 0.97254 0.28976 0.62131 0.0
H65 H 0.98654 0.215 0.64401 0.0
H66 H 0.92892 0.289 0.63487 0.0
H67 H 0.94266 0.21553 0.65717 0.0
H68 H 0.10498 0.32803 0.59779 0.0
H69 H 0.076 0.26269 0.64152 0.0
H70 H 0.0791 0.29095 0.5871 0.0
H71 H 0.10196 0.30022 0.65128 0.0
H72 H 0.05047 0.22411 0.68534 0.0
H73 H 0.07544 0.15799 0.65482 0.0
H74 H 0.02639 0.3668 0.59505 0.0
H75 H 0.02678 0.34427 0.65112 0.0
H76 H 0.99559 0.18232 0.57613 0.0
H77 H 0.07163 0.19301 0.5978 0.0
H78 H 0.01254 0.1479 0.55637 0.0
H79 H 0.08721 0.15835 0.57768 0.0
H80 H 0.97861 0.24418 0.56006 0.0
H81 H 0.04513 0.29281 0.56625 0.0
H82 H 0.98039 0.25155 0.52715 0.0
H83 H 0.04584 0.29916 0.53321 0.0
H84 H 0.90886 0.24931 0.57861 0.0
H85 H 0.92686 0.17385 0.59954 0.0
H86 H 0.12133 0.23622 0.55206 0.0
H87 H 0.05319 0.20653 0.52587 0.0
Li88 Li 0.23982 0.97433 0.39361 0.0
Li89 Li 0.27986 0.95411 0.38374 0.0
Li90 Li 0.23843 0.94063 0.3718 0.0
Li91 Li 0.25038 0.93035 0.4029 0.0
C92 C 0.25217 0.97865 0.35152 0.0
N93 N 0.24479 0.98357 0.31484 0.0
C94 C 0.27112 0.97047 0.33952 0.0
C95 C 0.22951 0.98943 0.34489 0.0
C96 C 0.26702 0.97312 0.32102 0.0
C97 C 0.22613 0.99171 0.32629 0.0
C98 C 0.28904 0.97315 0.41726 0.0
C99 C 0.3294 0.96927 0.43295 0.0
N100 N 0.33098 0.99532 0.43406 0.0
C101 C 0.29093 -0.00013 0.4187 0.0
C102 C 0.30829 0.9577 0.42458 0.0
C103 C 0.31234 0.01071 0.42719 0.0
C104 C 0.21865 0.00558 0.41995 0.0
N105 N 0.22556 0.0053 0.40232 0.0
C106 C 0.21213 0.04881 0.39865 0.0
C107 C 0.22283 0.02634 0.39165 0.0
C108 C 0.20411 0.04935 0.4167 0.0
C109 C 0.20759 0.02742 0.42741 0.0
H110 H 0.22163 0.9887 0.42818 0.0
H111 H 0.22896 0.02568 0.37776 0.0
C112 C 0.32955 0.94172 0.37107 0.0
N113 N 0.31455 0.96073 0.3778 0.0
C114 C 0.35492 0.94689 0.36616 0.0
C115 C 0.34875 0.99112 0.37504 0.0
C116 C 0.32342 0.98517 0.37949 0.0
C117 C 0.36493 0.97185 0.36826 0.0
H118 H 0.32171 0.92266 0.36922 0.0
H119 H 0.31075 0.0001 0.38422 0.0
C120 C 0.1953 0.95235 0.40142 0.0
N121 N 0.15209 0.97216 0.41787 0.0
C122 C 0.18849 0.94439 0.41876 0.0
C123 C 0.18 0.97023 0.39239 0.0
C124 C 0.16659 0.95465 0.42685 0.0
C125 C 0.15829 0.98009 0.40097 0.0
C126 C 0.27515 0.89441 0.38372 0.0
C127 C 0.26186 0.87349 0.37639 0.0
C128 C 0.29623 0.89013 0.39496 0.0
C129 C 0.26982 0.84858 0.38056 0.0
C130 C 0.30357 0.86494 0.39882 0.0
N131 N 0.29032 0.84486 0.3916 0.0
C132 C 0.23621 0.91299 0.33949 0.0
C133 C 0.19712 0.93343 0.34731 0.0
C134 C 0.22503 0.90268 0.32402 0.0
N135 N 0.2221 0.9278 0.35082 0.0
C136 C 0.18532 0.92396 0.33178 0.0
C137 C 0.19929 0.90818 0.32007 0.0
H138 H 0.25613 0.90911 0.34255 0.0
H139 H 0.1864 0.94527 0.35653 0.0
C140 C 0.25268 0.91538 0.43908 0.0
N141 N 0.2469 0.90684 0.42227 0.0
C142 C 0.2471 0.90025 0.4541 0.0
C143 C 0.23088 0.86728 0.43415 0.0
C144 C 0.23622 0.8833 0.41956 0.0
C145 C 0.23562 0.87595 0.4518 0.0
H146 H 0.26046 0.93449 0.4409 0.0
H147 H 0.23093 0.87733 0.40613 0.0
O148 O 0.25548 0.97544 0.36965 0.0
O149 O 0.26829 0.96216 0.40892 0.0
O150 O 0.21689 0.9428 0.39337 0.0
O151 O 0.26754 0.91895 0.37991 0.0
H152 H 0.28868 0.9619 0.34443 0.0
H153 H 0.21452 0.99557 0.35399 0.0
H154 H 0.28146 0.96676 0.31157 0.0
H155 H 0.20861 -0.00016 0.32096 0.0
H156 H 0.3445 0.95755 0.43861 0.0
H157 H 0.27621 0.01213 0.41313 0.0
H158 H 0.30692 0.937 0.42385 0.0
H159 H 0.31415 0.03136 0.42828 0.0
H160 H 0.20977 0.06541 0.39001 0.0
H161 H 0.20206 0.02728 0.44148 0.0
H162 H 0.36642 0.93155 0.36058 0.0
H163 H 0.35556 0.01058 0.37708 0.0
H164 H 0.20001 0.93052 0.42594 0.0
H165 H 0.18517 0.97693 0.37909 0.0
H166 H 0.16116 0.94872 0.44029 0.0
H167 H 0.14644 0.99414 0.39421 0.0
H168 H 0.24537 0.87641 0.36778 0.0
H169 H 0.30681 0.9061 0.40064 0.0
H170 H 0.25963 0.8322 0.37506 0.0
H171 H 0.31981 0.86136 0.40755 0.0
H172 H 0.23638 0.89072 0.31516 0.0
H173 H 0.16537 0.92846 0.32914 0.0
H174 H 0.2506 0.90815 0.46737 0.0
H175 H 0.22239 0.84862 0.4316 0.0
Li176 Li 0.95622 0.75479 0.6243 0.0
Li177 Li 0.96831 0.71378 0.6127 0.0
Li178 Li 0.99168 0.75154 0.60379 0.0
Li179 Li 0.94869 0.7444 0.59314 0.0
C180 C 0.00492 0.74996 0.6397 0.0
N181 N 0.03671 0.77678 0.6629 0.0
C182 C 0.02201 0.73679 0.65085 0.0
C183 C 0.00397 0.77678 0.64036 0.0
C184 C 0.03793 0.75069 0.66249 0.0
C185 C 0.0202 0.78999 0.65218 0.0
C186 C 0.91969 0.71669 0.6284 0.0
C187 C 0.87977 0.70229 0.64152 0.0
N188 N 0.89272 0.69439 0.65643 0.0
C189 C 0.9326 0.7084 0.64384 0.0
C190 C 0.89307 0.7136 0.62721 0.0
C191 C 0.91862 0.69719 0.65787 0.0
C192 C 0.92619 0.79228 0.64088 0.0
N193 N 0.9424 0.7725 0.64431 0.0
C194 C 0.93735 0.77816 0.676 0.0
C195 C 0.94819 0.76528 0.66143 0.0
C196 C 0.92049 0.79867 0.67289 0.0
C197 C 0.91501 0.80579 0.65505 0.0
H198 H 0.9218 0.79738 0.6271 0.0
H199 H 0.96117 0.74948 0.66378 0.0
C200 C -0.00255 0.67179 0.62214 0.0
N201 N 0.97303 0.67866 0.618 0.0
C202 C 0.00316 0.6463 0.62616 0.0
C203 C 0.95838 0.63546 0.62162 0.0
C204 C 0.95355 0.66119 0.6176 0.0
C205 C 0.98349 0.62778 0.6259 0.0
H206 H 0.0125 0.68618 0.62226 0.0
H207 H 0.93433 0.66717 0.61408 0.0
C208 C 0.96647 0.7944 0.58961 0.0
N209 N 0.97273 0.82998 0.56231 0.0
C210 C 0.97964 0.78776 0.57389 0.0
C211 C 0.95654 0.81916 0.59145 0.0
C212 C 0.98259 0.80601 0.56025 0.0
C213 C 0.95989 0.83687 0.5775 0.0
C214 C 0.97311 0.70386 0.57639 0.0
C215 C 0.99087 0.69568 0.56352 0.0
C216 C 0.9489 0.69217 0.5772 0.0
C217 C 0.98416 0.67585 0.55172 0.0
C218 C 0.94293 0.6724 0.56517 0.0
N219 N 0.96053 0.66471 0.55278 0.0
C220 C 0.04056 0.74656 0.58927 0.0
C221 C 0.03231 0.78843 0.60032 0.0
C222 C 0.06446 0.75434 0.58276 0.0
N223 N 0.02491 0.76368 0.59755 0.0
C224 C 0.05625 0.79698 0.59425 0.0
C225 C 0.07251 0.77998 0.58498 0.0
H226 H 0.03411 0.727 0.58728 0.0
H227 H 0.01941 0.80172 0.60685 0.0
C228 C 0.90079 0.75436 0.57727 0.0
N229 N 0.92587 0.74967 0.57356 0.0
C230 C 0.88381 0.76068 0.56341 0.0
C231 C 0.91876 0.75672 0.54218 0.0
C232 C 0.93495 0.75014 0.55641 0.0
C233 C 0.89287 0.76257 0.54561 0.0
H234 H 0.89414 0.75381 0.59106 0.0
H235 H 0.95498 0.74623 0.55381 0.0
O236 O 0.98923 0.73647 0.62828 0.0
O237 O 0.93283 0.72784 0.61445 0.0
O238 O 0.96321 0.77692 0.6032 0.0
O239 O 0.97954 0.72331 0.58798 0.0
H240 H 0.02293 0.71602 0.65053 0.0
H241 H 0.99083 0.78735 0.6319 0.0
H242 H 0.05126 0.74074 0.6712 0.0
H243 H 0.01966 0.81074 0.65282 0.0
H244 H 0.85916 0.69979 0.64078 0.0
H245 H 0.95319 0.7105 0.64501 0.0
H246 H 0.88278 0.71987 0.61533 0.0
H247 H 0.92838 0.6907 0.66989 0.0
H248 H 0.94226 0.77226 0.68956 0.0
H249 H 0.90186 0.8213 0.6521 0.0
H250 H 0.02273 0.64117 0.62953 0.0
H251 H 0.94277 0.62167 0.62105 0.0
H252 H 0.98747 0.76872 0.57218 0.0
H253 H 0.94634 0.82464 0.60355 0.0
H254 H 0.99271 0.8011 0.54801 0.0
H255 H 0.95228 0.85609 0.57874 0.0
H256 H 0.00964 0.70459 0.56263 0.0
H257 H 0.9348 0.69828 0.58694 0.0
H258 H -0.00227 0.66933 0.5417 0.0
H259 H 0.92427 0.66319 0.56566 0.0
H260 H 0.076 0.7406 0.57544 0.0
H261 H 0.06171 0.8168 0.59653 0.0
H262 H 0.86394 0.76454 0.5667 0.0
H263 H 0.92682 0.75827 0.52879 0.0
Li264 Li 0.76039 0.04792 0.37966 0.0
Li265 Li 0.7444 0.05943 0.40953 0.0
Li266 Li 0.75414 0.01543 0.40141 0.0
Li267 Li 0.71715 0.03717 0.3879 0.0
C268 C 0.79999 0.03495 0.41039 0.0
N269 N 0.84332 0.01358 0.42576 0.0
C270 C 0.80873 0.04353 0.42715 0.0
C271 C 0.8136 0.01584 0.4013 0.0
C272 C 0.8306 0.03242 0.43473 0.0
C273 C 0.83535 0.00516 0.40933 0.0
C274 C 0.73896 0.09704 0.38277 0.0
C275 C 0.72897 0.14021 0.37335 0.0
N276 N 0.7536 0.14744 0.37684 0.0
C277 C 0.76421 0.1049 0.38626 0.0
C278 C 0.72121 0.11481 0.37623 0.0
C279 C 0.77122 0.13045 0.38317 0.0
C280 C 0.76877 0.06828 0.34515 0.0
N281 N 0.78091 0.05924 0.36005 0.0
C282 C 0.82193 0.06721 0.34678 0.0
C283 C 0.80695 0.05872 0.36118 0.0
C284 C 0.80991 0.07625 0.33109 0.0
C285 C 0.78297 0.07673 0.33036 0.0
H286 H 0.74801 0.06896 0.3448 0.0
H287 H 0.81611 0.05189 0.3733 0.0
C288 C 0.74962 0.06961 0.44562 0.0
N289 N 0.74455 0.08181 0.42985 0.0
C290 C 0.75192 0.08351 0.46157 0.0
C291 C 0.74241 0.12228 0.44498 0.0
C292 C 0.74014 0.10755 0.42932 0.0
C293 C 0.74884 0.11029 0.46132 0.0
H294 H 0.75263 0.04906 0.44567 0.0
H295 H 0.7352 0.11682 0.41681 0.0
C296 C 0.74791 0.00926 0.3586 0.0
N297 N 0.75954 0.0003 0.32284 0.0
C298 C 0.73047 0.01602 0.34511 0.0
C299 C 0.77109 -0.00241 0.35392 0.0
C300 C 0.73674 0.0114 0.3271 0.0
C301 C 0.77667 0.99333 0.33576 0.0
C302 C 0.70208 0.03496 0.42378 0.0
C303 C 0.69411 0.019 0.43785 0.0
C304 C 0.68853 0.05751 0.42011 0.0
C305 C 0.67262 0.02582 0.44801 0.0
C306 C 0.66714 0.06365 0.43057 0.0
N307 N 0.65969 0.04782 0.44419 0.0
C308 C 0.77299 0.98368 0.4287 0.0
C309 C 0.76584 0.96224 0.40093 0.0
C310 C 0.78232 0.96119 0.43643 0.0
N311 N 0.76545 0.98388 0.41118 0.0
C312 C 0.77457 0.93914 0.40824 0.0
C313 C 0.78322 0.93862 0.42614 0.0
H314 H 0.772 0.00112 0.43658 0.0
H315 H 0.75942 0.96295 0.38708 0.0
C316 C 0.67236 0.04901 0.36805 0.0
N317 N 0.68307 0.03257 0.38008 0.0
C318 C 0.64705 0.0453 0.36236 0.0
C319 C 0.64435 0.00811 0.38183 0.0
C320 C 0.66976 0.01234 0.38692 0.0
C321 C 0.63264 0.02464 0.36932 0.0
H322 H 0.68358 0.06485 0.36278 0.0
H323 H 0.67888 -0.00038 0.39649 0.0
O324 O 0.77838 0.04538 0.40287 0.0
O325 O 0.73157 0.07206 0.38539 0.0
O326 O 0.74234 0.01413 0.37629 0.0
O327 O 0.72318 0.02851 0.4138 0.0
H328 H 0.79886 0.05872 0.43421 0.0
H329 H 0.80725 0.00909 0.38828 0.0
H330 H 0.83749 0.0388 0.44773 0.0
H331 H 0.84588 0.99016 0.40251 0.0
H332 H 0.71541 0.15417 0.36831 0.0
H333 H 0.77827 0.09153 0.39134 0.0
H334 H 0.70161 0.10904 0.37343 0.0
H335 H 0.79068 0.13679 0.38583 0.0
H336 H 0.84266 0.0665 0.34782 0.0
H337 H 0.773 0.08398 0.31862 0.0
H338 H 0.75715 0.07349 0.47381 0.0
H339 H 0.73951 0.14285 0.44428 0.0
H340 H 0.71243 0.025 0.34845 0.0
H341 H 0.78468 0.99193 0.36416 0.0
H342 H 0.7235 0.01673 0.31652 0.0
H343 H 0.79463 0.98448 0.33195 0.0
H344 H 0.70447 0.00152 0.44088 0.0
H345 H 0.69444 0.07017 0.40932 0.0
H346 H 0.66623 0.01364 0.45895 0.0
H347 H 0.65647 0.08102 0.42788 0.0
H348 H 0.78854 0.96136 0.45035 0.0
H349 H 0.77501 0.92202 0.39996 0.0
H350 H 0.63897 0.05834 0.35252 0.0
H351 H 0.63392 0.99229 0.38788 0.0
Li352 Li 0.93764 0.23802 0.09311 0.0
Li353 Li 0.95394 0.22816 0.12312 0.0
Li354 Li 0.95941 0.27052 0.10999 0.0
Li355 Li 0.98372 0.23406 0.09886 0.0
C356 C 0.90107 0.25232 0.11501 0.0
N357 N 0.84842 0.24885 0.11082 0.0
C358 C 0.88715 0.23338 0.12417 0.0
C359 C 0.88819 0.26958 0.10379 0.0
C360 C 0.86055 0.23194 0.12187 0.0
C361 C 0.86158 0.26747 0.10181 0.0
C362 C 0.9677 0.18674 0.09301 0.0
C363 C -0.0009 0.15279 0.09269 0.0
N364 N 0.99172 0.1465 0.07567 0.0
C365 C 0.96036 0.17987 0.07555 0.0
C366 C 0.98713 0.17302 0.1017 0.0
C367 C 0.97276 0.15948 0.067 0.0
C368 C 0.90948 0.24289 0.06045 0.0
N369 N 0.91127 0.23013 0.07637 0.0
C370 C 0.87655 0.20242 0.06822 0.0
C371 C 0.89525 0.21032 0.08047 0.0
C372 C 0.87457 0.21479 0.05145 0.0
C373 C 0.8911 0.23554 0.04773 0.0
H374 H 0.92278 0.25829 0.05744 0.0
H375 H 0.89739 0.20032 0.09315 0.0
C376 C 0.93937 0.22411 0.15933 0.0
N377 N 0.94659 0.21025 0.14469 0.0
C378 C 0.93264 0.21167 0.17528 0.0
C379 C 0.94051 0.17091 0.16067 0.0
C380 C 0.94732 0.18417 0.14504 0.0
C381 C 0.93295 0.18472 0.17601 0.0
H382 H 0.93839 0.24482 0.15847 0.0
H383 H 0.95271 0.17365 0.1331 0.0
C384 C 0.97238 0.28326 0.07715 0.0
N385 N 0.98666 0.33078 0.06384 0.0
C386 C -0.00168 0.28907 0.0744 0.0
C387 C 0.95369 0.30154 0.07301 0.0
C388 C 0.00515 0.31322 0.06767 0.0
C389 C 0.96131 0.32549 0.06634 0.0
C390 C 0.9935 0.24783 0.14016 0.0
C391 C 0.98845 0.26757 0.15241 0.0
C392 C 0.00602 0.22563 0.14601 0.0
C393 C 0.99587 0.26466 0.17038 0.0
C394 C 0.01308 0.22344 0.16409 0.0
N395 N 0.00789 0.24284 0.1758 0.0
C396 C 0.94036 0.32016 0.11796 0.0
C397 C 0.98561 0.31672 0.11528 0.0
C398 C 0.94238 0.3466 0.1207 0.0
N399 N 0.9618 0.30598 0.11505 0.0
C400 C 0.98853 0.34306 0.11793 0.0
C401 C 0.96671 0.3584 0.1205 0.0
H402 H 0.92171 0.311 0.11796 0.0
H403 H 0.00229 0.30483 0.11303 0.0
C404 C 0.01515 0.21675 0.07093 0.0
N405 N 0.01531 0.22385 0.08853 0.0
C406 C 0.03771 0.20864 0.06265 0.0
C407 C 0.0605 0.21658 0.09052 0.0
C408 C 0.03736 0.22417 0.09836 0.0
C409 C 0.06072 0.20844 0.0725 0.0
H410 H -0.00258 0.21733 0.06336 0.0
H411 H 0.03697 0.23036 0.11225 0.0
O412 O 0.92718 0.25379 0.11684 0.0
O413 O 0.95613 0.20694 0.1015 0.0
O414 O 0.96535 0.25997 0.08415 0.0
O415 O 0.98599 0.2501 0.12258 0.0
H416 H 0.89678 0.21977 0.13283 0.0
H417 H 0.89867 0.28418 0.09644 0.0
H418 H 0.84955 0.21731 0.12882 0.0
H419 H 0.85139 0.28057 0.09307 0.0
H420 H 0.01429 0.14214 0.0992 0.0
H421 H 0.94548 0.19034 0.06857 0.0
H422 H 0.99314 0.17817 0.11518 0.0
H423 H 0.96737 0.15404 0.05346 0.0
H424 H 0.86403 0.18653 0.07174 0.0
H425 H 0.8905 0.24535 0.03487 0.0
H426 H 0.92647 0.22298 0.18672 0.0
H427 H 0.94102 0.15011 0.16074 0.0
H428 H 0.01305 0.27521 0.07762 0.0
H429 H 0.93355 0.29743 0.07518 0.0
H430 H 0.02516 0.31803 0.06556 0.0
H431 H 0.94707 0.3399 0.06323 0.0
H432 H 0.97865 0.28481 0.14815 0.0
H433 H 0.00997 0.21014 0.13672 0.0
H434 H 0.99197 0.27972 0.18002 0.0
H435 H 0.02262 0.2063 0.16883 0.0
H436 H 0.92511 0.35769 0.12289 0.0
H437 H 0.00761 0.3514 0.11745 0.0
H438 H 0.03724 0.20288 0.04864 0.0
H439 H 0.07792 0.21668 0.0985 0.0
Li440 Li 0.25732 0.05442 0.90369 0.0
Li441 Li 0.25168 0.01172 0.89345 0.0
Li442 Li 0.28489 0.03976 0.88088 0.0
Li443 Li 0.23936 0.04841 0.87346 0.0
C444 C 0.29157 0.02791 0.92255 0.0
N445 N 0.3099 0.03249 0.95736 0.0
C446 C 0.28544 0.00931 0.93546 0.0
C447 C 0.30714 0.04878 0.92735 0.0
C448 C 0.29488 0.01198 0.95298 0.0
C449 C 0.31616 0.05078 0.94502 0.0
C450 C 0.20783 0.04427 0.91005 0.0
C451 C 0.17978 0.07576 0.92339 0.0
N452 N 0.17582 0.05982 0.93764 0.0
C453 C 0.20344 0.02818 0.92483 0.0
C454 C 0.19581 0.06821 0.90929 0.0
C455 C 0.18719 0.03638 0.93863 0.0
C456 C 0.25439 0.10214 0.92196 0.0
N457 N 0.25386 0.07624 0.92434 0.0
C458 C 0.24295 0.08136 0.95537 0.0
C459 C 0.24867 0.06574 0.94071 0.0
C460 C 0.24245 0.10815 0.95321 0.0
C461 C 0.24875 0.11856 0.93631 0.0
H462 H 0.2583 0.11003 0.90877 0.0
H463 H 0.24781 0.04514 0.94225 0.0
C464 C 0.26256 0.96047 0.90308 0.0
N465 N 0.24335 0.9773 0.89949 0.0
C466 C 0.25682 0.93572 0.90912 0.0
C467 C 0.21164 0.94581 0.90684 0.0
C468 C 0.21827 0.97025 0.90067 0.0
C469 C 0.23104 0.92833 0.91158 0.0
H470 H 0.28236 0.96657 0.90174 0.0
H471 H 0.20342 0.98396 0.89742 0.0
C472 C 0.28304 0.08811 0.87236 0.0
N473 N 0.3187 0.11689 0.85351 0.0
C474 C 0.28067 0.09104 0.85373 0.0
C475 C 0.30342 0.09994 0.88144 0.0
C476 C 0.29892 0.10565 0.84444 0.0
C477 C 0.32129 0.11437 0.87166 0.0
C478 C 0.26108 0.99314 0.86142 0.0
C479 C 0.28431 0.97977 0.86103 0.0
C480 C 0.23832 0.98056 0.85659 0.0
C481 C 0.2844 0.95404 0.8557 0.0
C482 C 0.23921 0.95479 0.85136 0.0
N483 N 0.26204 0.94218 0.85102 0.0
C484 C 0.33901 0.04064 0.88148 0.0
C485 C 0.32042 0.03856 0.85235 0.0
C486 C 0.36358 0.03899 0.87418 0.0
N487 N 0.31811 0.04021 0.87055 0.0
C488 C 0.34467 0.03663 0.84445 0.0
C489 C 0.3666 0.03656 0.85546 0.0
H490 H 0.33662 0.04152 0.89589 0.0
H491 H 0.30337 0.03807 0.84402 0.0
C492 C 0.20629 0.08423 0.85734 0.0
N493 N 0.21709 0.06069 0.85532 0.0
C494 C 0.19079 0.09437 0.84377 0.0
C495 C 0.19824 0.05603 0.82618 0.0
C496 C 0.21351 0.0466 0.84012 0.0
C497 C 0.18669 0.08026 0.82788 0.0
H498 H 0.21014 0.09535 0.86933 0.0
H499 H 0.223 0.02833 0.83863 0.0
O500 O 0.28258 0.02554 0.9053 0.0
O501 O 0.22398 0.03675 0.89651 0.0
O502 O 0.26578 0.07333 0.88164 0.0
O503 O 0.26049 0.01813 0.8671 0.0
H504 H 0.27328 0.99314 0.93209 0.0
H505 H 0.31183 0.06352 0.91763 0.0
H506 H 0.29019 -0.00221 0.96312 0.0
H507 H 0.32806 0.06692 0.94893 0.0
H508 H 0.17054 0.09433 0.92303 0.0
H509 H 0.21292 0.0098 0.92587 0.0
H510 H 0.19912 0.08099 0.89807 0.0
H511 H 0.18378 0.0242 0.95019 0.0
H512 H 0.23765 0.07241 0.96801 0.0
H513 H 0.2487 0.13911 0.93407 0.0
H514 H 0.27241 0.92275 0.91224 0.0
H515 H 0.19151 0.94119 0.90866 0.0
H516 H 0.2651 0.08188 0.84648 0.0
H517 H 0.30549 0.09789 0.89586 0.0
H518 H 0.29742 0.10797 0.83 0.0
H519 H 0.33723 0.12353 0.87848 0.0
H520 H 0.30204 0.98903 0.86504 0.0
H521 H 0.22009 0.99043 0.8572 0.0
H522 H 0.30222 0.94344 0.85537 0.0
H523 H 0.22173 0.94478 0.84768 0.0
H524 H 0.37997 0.03852 0.88316 0.0
H525 H 0.34625 0.03482 0.82997 0.0
H526 H 0.1822 0.11308 0.8457 0.0
H527 H 0.19612 0.04476 0.81401 0.0
Li528 Li 0.00647 0.75498 0.09415 0.0
Li529 Li 0.03067 0.71621 0.10041 0.0
Li530 Li 0.04266 0.75704 0.11408 0.0
Li531 Li 0.04982 0.74883 0.08217 0.0
C532 C 0.9863 0.73702 0.12378 0.0
N533 N 0.93563 0.73718 0.13482 0.0
C534 C 0.97099 0.71514 0.12147 0.0
C535 C 0.9759 0.75892 0.1318 0.0
C536 C 0.94541 0.71562 0.12713 0.0
C537 C 0.95022 0.75865 0.13726 0.0
C538 C 0.0196 0.72713 0.05871 0.0
C539 C 0.03838 0.70979 0.03164 0.0
N540 N 0.02384 0.72608 0.02162 0.0
C541 C 0.00483 0.74368 0.04814 0.0
C542 C 0.03648 0.70999 0.0504 0.0
C543 C 0.00724 0.74284 0.02941 0.0
C544 C 0.9678 0.79262 0.08878 0.0
N545 N 0.97307 0.76709 0.08872 0.0
C546 C 0.93088 0.75721 0.0781 0.0
C547 C 0.95518 0.7494 0.08373 0.0
C548 C 0.92504 0.78352 0.07752 0.0
C549 C 0.94371 0.80131 0.08326 0.0
H550 H 0.98252 0.80628 0.09253 0.0
H551 H 0.96008 0.72922 0.08364 0.0
C552 C 0.02917 0.67092 0.12134 0.0
N553 N 0.02674 0.68059 0.10442 0.0
C554 C 0.02437 0.64492 0.12458 0.0
C555 C 0.01463 0.63954 0.09294 0.0
C556 C 0.0197 0.66555 0.09031 0.0
C557 C 0.01666 0.62899 0.11028 0.0
H558 H 0.03427 0.68354 0.13236 0.0
H559 H 0.01744 0.67386 0.07709 0.0
C560 C 0.0435 0.80327 0.09902 0.0
N561 N 0.06213 0.84973 0.11155 0.0
C562 C 0.06634 0.81345 0.09209 0.0
C563 C 0.03006 0.81681 0.11224 0.0
C564 C 0.07545 0.83696 0.09861 0.0
C565 C 0.03983 0.84023 0.11843 0.0
C566 C 0.07873 0.71082 0.1094 0.0
C567 C 0.08481 0.70948 0.12771 0.0
C568 C 0.08535 0.69053 0.098 0.0
C569 C 0.09732 0.68775 0.13434 0.0
C570 C 0.09779 0.6691 0.10516 0.0
N571 N 0.10347 0.66817 0.12303 0.0
C572 C 0.04431 0.77091 0.15086 0.0
C573 C 0.0798 0.78504 0.13338 0.0
C574 C 0.0548 0.78217 0.16627 0.0
N575 N 0.05681 0.77273 0.13485 0.0
C576 C 0.09069 0.79705 0.14833 0.0
C577 C 0.07814 0.7956 0.165 0.0
H578 H 0.02631 0.76055 0.15169 0.0
H579 H 0.08965 0.78548 0.12057 0.0
C580 C 0.06405 0.77365 0.05014 0.0
N581 N 0.07174 0.75586 0.06237 0.0
C582 C 0.07974 0.77986 0.03556 0.0
C583 C 0.11098 0.74927 0.04642 0.0
C584 C 0.09463 0.74362 0.0608 0.0
C585 C 0.10365 0.76773 0.03363 0.0
H586 H 0.04585 0.78328 0.0519 0.0
H587 H 0.10032 0.72969 0.0708 0.0
O588 O 0.01123 0.73714 0.11798 0.0
O589 O 0.01794 0.72802 0.07709 0.0
O590 O 0.03442 0.78013 0.09295 0.0
O591 O 0.06613 0.73176 0.1027 0.0
H592 H 0.97865 0.69808 0.11518 0.0
H593 H 0.98746 0.77604 0.13364 0.0
H594 H 0.93329 0.69887 0.12535 0.0
H595 H 0.94188 0.77551 0.14339 0.0
H596 H 0.0515 0.69677 0.02504 0.0
H597 H 0.99186 0.75725 0.05431 0.0
H598 H 0.04831 0.69728 0.05837 0.0
H599 H 0.99599 0.75561 0.02107 0.0
H600 H 0.917 0.74287 0.07389 0.0
H601 H 0.94018 0.82179 0.08271 0.0
H602 H 0.02586 0.63756 0.13818 0.0
H603 H 0.00899 0.62783 0.08153 0.0
H604 H 0.07709 0.8032 0.08194 0.0
H605 H 0.01246 0.80913 0.11784 0.0
H606 H 0.09315 0.84501 0.09343 0.0
H607 H 0.02972 0.8508 0.12875 0.0
H608 H 0.07979 0.72496 0.13675 0.0
H609 H 0.08056 0.69113 0.08383 0.0
H610 H 0.10207 0.68641 0.14849 0.0
H611 H 0.10285 0.65318 0.09652 0.0
H612 H 0.04471 0.78063 0.17898 0.0
H613 H 0.10894 0.80694 0.14699 0.0
H614 H 0.07355 0.79456 0.02622 0.0
H615 H 0.12918 0.73938 0.04538 0.0
Li616 Li 0.74092 0.99136 0.89046 0.0
Li617 Li 0.73841 0.94797 0.90137 0.0
Li618 Li 0.7511 0.95706 0.86994 0.0
Li619 Li 0.70679 0.96404 0.88048 0.0
C620 C 0.79419 0.97371 0.89202 0.0
N621 N 0.84514 0.98881 0.89155 0.0
C622 C 0.80943 0.97079 0.90739 0.0
C623 C 0.80491 0.98421 0.87639 0.0
C624 C 0.83513 0.97859 0.90689 0.0
C625 C 0.83069 0.99174 0.87643 0.0
C626 C 0.71515 0.9844 0.92281 0.0
C627 C 0.69571 -0.00056 0.95033 0.0
N628 N 0.71942 0.00205 0.95781 0.0
C629 C 0.73934 0.98726 0.93079 0.0
C630 C 0.69315 0.99058 0.93266 0.0
C631 C 0.7411 0.99619 0.94848 0.0
C632 C 0.727 0.04029 0.9025 0.0
N633 N 0.74785 0.02607 0.89788 0.0
C634 C 0.77603 0.05899 0.90864 0.0
C635 C 0.77206 0.03527 0.90036 0.0
C636 C 0.75489 0.07354 0.91439 0.0
C637 C 0.73007 0.06423 0.9107 0.0
H638 H 0.70791 0.0325 0.90053 0.0
H639 H 0.78843 0.02389 0.89674 0.0
C640 C 0.76938 0.91476 0.92041 0.0
N641 N 0.74593 0.92602 0.92101 0.0
C642 C 0.77855 0.9012 0.93523 0.0
C643 C 0.73862 0.90979 0.95069 0.0
C644 C 0.73021 0.92329 0.93553 0.0
C645 C 0.76338 0.89918 0.9508 0.0
H646 H 0.78133 0.91713 0.90861 0.0
H647 H 0.71159 0.9324 0.93563 0.0
C648 C 0.72545 0.01149 0.85993 0.0
N649 N 0.71972 0.0622 0.84977 0.0
C650 C 0.70182 0.02374 0.86215 0.0
C651 C 0.74609 0.02494 0.8524 0.0
C652 C 0.69932 0.0494 0.85696 0.0
C653 C 0.74283 0.05059 0.8474 0.0
C654 C 0.71034 0.91063 0.88333 0.0
C655 C 0.71268 0.8874 0.87407 0.0
C656 C 0.69208 0.91294 0.89703 0.0
C657 C 0.69667 0.86681 0.87867 0.0
C658 C 0.67644 0.89192 0.90123 0.0
N659 N 0.67904 0.86948 0.89204 0.0
C660 C 0.78963 0.92795 0.85334 0.0
C661 C 0.76482 0.95374 0.83359 0.0
C662 C 0.80341 0.91795 0.83885 0.0
N663 N 0.77073 0.94536 0.8504 0.0
C664 C 0.77801 0.94418 0.81872 0.0
C665 C 0.79743 0.92586 0.82125 0.0
H666 H 0.79368 0.92157 0.86691 0.0
H667 H 0.74959 0.96757 0.83176 0.0
C668 C 0.65295 0.9663 0.88437 0.0
N669 N 0.67253 0.96255 0.87262 0.0
C670 C 0.62773 0.96746 0.87811 0.0
C671 C 0.64343 0.96041 0.84784 0.0
C672 C 0.66833 0.95929 0.85471 0.0
C673 C 0.62278 0.96489 0.85957 0.0
H674 H 0.657 0.96902 0.89853 0.0
H675 H 0.68444 0.95645 0.84574 0.0
O676 O 0.76909 0.96584 0.89226 0.0
O677 O 0.71282 0.97595 0.90542 0.0
O678 O 0.72839 0.9865 0.86521 0.0
O679 O 0.72597 0.93088 0.87898 0.0
H680 H 0.80148 0.96266 0.9196 0.0
H681 H 0.79342 0.98673 0.86442 0.0
H682 H 0.84712 0.9765 0.9187 0.0
H683 H 0.8392 -4e-05 0.86444 0.0
H684 H 0.67883 0.00429 0.95809 0.0
H685 H 0.75661 0.98271 0.92345 0.0
H686 H 0.67428 0.98859 0.92669 0.0
H687 H 0.7597 -0.00151 0.95479 0.0
H688 H 0.79555 0.06506 0.91142 0.0
H689 H 0.71318 0.07489 0.91466 0.0
H690 H 0.79757 0.89289 0.93466 0.0
H691 H 0.72638 0.9087 0.96246 0.0
H692 H 0.68566 0.01366 0.86803 0.0
H693 H 0.76445 0.01571 0.85047 0.0
H694 H 0.6812 0.05918 0.85871 0.0
H695 H 0.75867 0.06128 0.84162 0.0
H696 H 0.72675 0.88531 0.86344 0.0
H697 H 0.69 0.93074 0.90436 0.0
H698 H 0.69828 0.8487 0.87161 0.0
H699 H 0.66224 0.89344 0.9118 0.0
H700 H 0.81803 0.90364 0.84134 0.0
H701 H 0.77302 0.95094 0.80538 0.0
H702 H 0.6124 0.97131 0.88757 0.0
H703 H 0.64038 0.95814 0.8335 0.0
C704 C 0.01102 0.58899 0.62188 0.0
C705 C 0.98932 0.60049 0.62962 0.0
C706 C 0.01626 0.5631 0.62492 0.0
C707 C 0.98438 0.50259 0.63742 0.0
H708 H 0.05447 0.47801 0.64077 0.0
C709 C 0.00752 0.39475 0.64191 0.0
C710 C 0.02547 0.38652 0.62906 0.0
C711 C 0.00447 0.42091 0.64547 0.0
C712 C 0.03481 0.48463 0.63988 0.0
H713 H 0.95646 0.59418 0.64701 0.0
H714 H 0.96572 0.54887 0.65247 0.0
H715 H 0.0462 0.52414 0.64066 0.0
H716 H 0.05525 0.39888 0.61057 0.0
H717 H 0.0499 0.44459 0.61673 0.0
H718 H 0.97306 0.46307 0.63634 0.0
C719 C 0.97846 0.55978 0.64381 0.0
C720 C 0.03007 0.51101 0.63976 0.0
C721 C 0.97315 0.58569 0.64069 0.0
C722 C 0.04111 0.40478 0.62042 0.0
C723 C 0.03821 0.43088 0.62408 0.0
C724 C 0.98913 0.47623 0.63766 0.0
C725 C -2e-05 0.54816 0.63584 0.0
C726 C 0.00484 0.52028 0.63809 0.0
C727 C 0.0195 0.43923 0.63636 0.0
C728 C 0.01442 0.46701 0.63848 0.0
H729 H 0.02362 0.59985 0.61308 0.0
H730 H 0.03268 0.55464 0.61827 0.0
H731 H 0.96476 0.50906 0.6359 0.0
H732 H 0.99514 0.38106 0.64869 0.0
H733 H 0.99002 0.42685 0.65509 0.0
C734 C 0.58895 0.04151 0.36117 0.0
C735 C 0.60541 0.02054 0.36397 0.0
C736 C 0.56291 0.03755 0.35752 0.0
C737 C 0.5148 0.98659 0.34588 0.0
H738 H 0.46796 0.03198 0.37093 0.0
C739 C 0.41154 0.95962 0.36696 0.0
C740 C 0.39212 0.97775 0.36366 0.0
C741 C 0.43722 0.96565 0.36356 0.0
C742 C 0.48081 0.01938 0.36365 0.0
H743 H 0.60756 0.97889 0.36406 0.0
H744 H 0.56214 0.97202 0.35878 0.0
H745 H 0.51377 0.04134 0.37119 0.0
H746 H 0.38458 0.01609 0.35338 0.0
H747 H 0.42962 0.02687 0.34819 0.0
H748 H 0.48164 0.96385 0.33933 0.0
C749 C 0.5693 0.99157 0.35902 0.0
C750 C 0.50708 0.02477 0.3637 0.0
C751 C 0.59537 0.99553 0.36239 0.0
C752 C 0.39902 0.00186 0.3565 0.0
C753 C 0.42476 0.00801 0.35337 0.0
C754 C 0.48854 0.98098 0.34609 0.0
C755 C 0.55263 0.01253 0.35682 0.0
C756 C 0.52448 0.00822 0.35507 0.0
C757 C 0.44406 0.99003 0.35702 0.0
C758 C 0.47141 -0.00285 0.3552 0.0
H759 H 0.59594 0.06106 0.36237 0.0
H760 H 0.55076 0.05415 0.35557 0.0
H761 H 0.52753 0.97372 0.33875 0.0
H762 H 0.40705 0.94104 0.37274 0.0
H763 H 0.45185 0.95159 0.36669 0.0
C764 C 0.98951 0.39758 0.13215 0.0
C765 C 0.96932 0.38666 0.12213 0.0
C766 C 0.99309 0.42418 0.13248 0.0
C767 C 0.97942 0.48131 0.10531 0.0
H768 H -0.00011 0.51884 0.14814 0.0
C769 C 0.98807 0.59104 0.10518 0.0
C770 C 0.00994 0.6017 0.11342 0.0
C771 C 0.98206 0.56513 0.10748 0.0
C772 C 0.99439 0.50855 0.13605 0.0
H773 H 0.93671 0.3951 0.10494 0.0
H774 H 0.94264 0.44151 0.10584 0.0
H775 H 0.99076 0.47281 0.15016 0.0
H776 H 0.0424 0.59378 0.13081 0.0
H777 H 0.03197 0.54827 0.13477 0.0
H778 H 0.98326 0.51682 0.09114 0.0
C779 C 0.95589 0.42949 0.11325 0.0
C780 C 0.98915 0.48224 0.13721 0.0
C781 C 0.95232 0.40292 0.11291 0.0
C782 C 0.02535 0.58607 0.12439 0.0
C783 C 0.01935 0.56007 0.12667 0.0
C784 C 0.98465 0.50753 0.10416 0.0
C785 C 0.97657 0.44037 0.12278 0.0
C786 C 0.98159 0.46837 0.12184 0.0
C787 C -0.00219 0.54929 0.11805 0.0
C788 C 0.99216 0.52145 0.1195 0.0
H789 H 0.00273 0.38555 0.13957 0.0
H790 H 0.00928 0.43199 0.13987 0.0
H791 H 0.97419 0.47106 0.09315 0.0
H792 H 0.97551 0.60276 0.09697 0.0
H793 H 0.96504 0.5575 0.10097 0.0
C794 C 0.39634 0.01185 0.83552 0.0
C795 C 0.39243 0.03196 0.84783 0.0
C796 C 0.42122 0.00473 0.83062 0.0
C797 C 0.47361 0.98112 0.83731 0.0
H798 H 0.53067 0.0289 0.83336 0.0
C799 C 0.57523 0.95806 0.86167 0.0
C800 C 0.59643 0.96849 0.8525 0.0
C801 C 0.55029 0.96381 0.85616 0.0
C802 C 0.51496 0.01523 0.83409 0.0
H803 H 0.4112 0.06163 0.86358 0.0
H804 H 0.45459 0.04907 0.85523 0.0
H805 H 0.48679 0.04483 0.83145 0.0
H806 H 0.60816 0.99233 0.82996 0.0
H807 H 0.5645 0.00215 0.82022 0.0
H808 H 0.50178 0.95162 0.84044 0.0
C809 C 0.43854 0.03883 0.84927 0.0
C810 C 0.48984 0.0244 0.83316 0.0
C811 C 0.41371 0.04588 0.85422 0.0
C812 C 0.59219 0.98387 0.83723 0.0
C813 C 0.56722 0.98968 0.83174 0.0
C814 C 0.49873 0.97196 0.83824 0.0
C815 C 0.44259 0.01768 0.83787 0.0
C816 C 0.46892 0.00756 0.83536 0.0
C817 C 0.54602 0.98015 0.84138 0.0
C818 C 0.51965 0.98903 0.83724 0.0
H819 H 0.38028 0.00071 0.83046 0.0
H820 H 0.42377 0.98851 0.82167 0.0
H821 H 0.45792 0.96767 0.83917 0.0
H822 H 0.57793 0.94592 0.87336 0.0
H823 H 0.53437 0.95638 0.86399 0.0
C824 C 0.20358 0.09684 0.42243 0.0
C825 C 0.19214 0.07252 0.4245 0.0
C826 C 0.19321 0.11827 0.43112 0.0
C827 C 0.13442 0.14191 0.4534 0.0
H828 H 0.181 0.18171 0.48326 0.0
C829 C 0.09536 0.21561 0.50339 0.0
C830 C 0.10478 0.21245 0.52099 0.0
C831 C 0.10799 0.20439 0.48881 0.0
C832 C 0.16779 0.17088 0.47489 0.0
H833 H 0.16039 0.05164 0.4365 0.0
H834 H 0.1423 0.08892 0.45163 0.0
H835 H 0.19823 0.15002 0.46224 0.0
H836 H 0.13554 0.19625 0.53701 0.0
H837 H 0.15751 0.17655 0.51162 0.0
H838 H 0.10393 0.16164 0.46664 0.0
C839 C 0.15921 0.09154 0.44333 0.0
C840 C 0.17765 0.15293 0.46275 0.0
C841 C 0.16969 0.07015 0.43482 0.0
C842 C 0.12793 0.1992 0.52359 0.0
C843 C 0.14055 0.18795 0.50902 0.0
C844 C 0.12458 0.15988 0.46546 0.0
C845 C 0.17105 0.11575 0.44179 0.0
C846 C 0.161 0.1377 0.45231 0.0
C847 C 0.13028 0.18976 0.49154 0.0
C848 C 0.14111 0.17402 0.47673 0.0
H849 H 0.22098 0.09911 0.41459 0.0
H850 H 0.20265 0.13674 0.42967 0.0
H851 H 0.12117 0.13063 0.44536 0.0
H852 H 0.0778 0.22614 0.50095 0.0
H853 H 0.09987 0.20649 0.47546 0.0
C854 C 0.23948 0.86215 0.48431 0.0
C855 C 0.22649 0.86093 0.46768 0.0
C856 C 0.22907 0.85048 0.49965 0.0
C857 C 0.18826 0.8435 0.52952 0.0
H858 H 0.15806 0.77524 0.52873 0.0
C859 C 0.09785 0.81379 0.56855 0.0
C860 C 0.09671 0.78923 0.57644 0.0
C861 C 0.11933 0.82141 0.55863 0.0
C862 C 0.16678 0.79416 0.52931 0.0
H863 H 0.19251 0.84571 0.45428 0.0
H864 H 0.17518 0.82465 0.48075 0.0
H865 H 0.18611 0.78895 0.5041 0.0
H866 H 0.11821 0.75415 0.58104 0.0
H867 H 0.15532 0.76723 0.56307 0.0
H868 H 0.16765 0.84925 0.55418 0.0
C869 C 0.1934 0.83466 0.48187 0.0
C870 C 0.18267 0.80202 0.51519 0.0
C871 C 0.20349 0.84669 0.46664 0.0
C872 C 0.11814 0.77296 0.57482 0.0
C873 C 0.13948 0.78047 0.56465 0.0
C874 C 0.17204 0.83576 0.54351 0.0
C875 C 0.20579 0.83691 0.49858 0.0
C876 C 0.19298 0.82699 0.51494 0.0
C877 C 0.14003 0.80457 0.55619 0.0
C878 C 0.16063 0.81126 0.54327 0.0
H879 H 0.25747 0.87248 0.4856 0.0
H880 H 0.23902 0.85235 0.51241 0.0
H881 H 0.19584 0.86291 0.52955 0.0
H882 H 0.08165 0.82672 0.5692 0.0
H883 H 0.11911 0.83997 0.55203 0.0
C884 C 0.7786 0.89202 0.43394 0.0
C885 C 0.79325 0.91474 0.43419 0.0
C886 C 0.78732 0.8701 0.44293 0.0
C887 C 0.8449 0.83952 0.46175 0.0
H888 H 0.79956 0.81276 0.49878 0.0
C889 C 0.87907 0.76413 0.51307 0.0
C890 C 0.87616 0.77263 0.53096 0.0
C891 C 0.86587 0.77617 0.49903 0.0
C892 C 0.81229 0.81981 0.48834 0.0
H893 H 0.82882 0.93222 0.44318 0.0
H894 H 0.84428 0.89384 0.45864 0.0
H895 H 0.78339 0.8443 0.47716 0.0
H896 H 0.85607 0.79986 0.54803 0.0
H897 H 0.83266 0.82019 0.52365 0.0
H898 H 0.87408 0.81586 0.47335 0.0
C899 C 0.82605 0.89296 0.45161 0.0
C900 C 0.80302 0.8377 0.47593 0.0
C901 C 0.81716 0.91494 0.44292 0.0
C902 C 0.85856 0.79244 0.53453 0.0
C903 C 0.84514 0.80419 0.52053 0.0
C904 C 0.85406 0.8214 0.47401 0.0
C905 C 0.81104 0.87048 0.45196 0.0
C906 C 0.81949 0.84833 0.46291 0.0
C907 C 0.84918 0.79664 0.50261 0.0
C908 C 0.83807 0.81201 0.48777 0.0
H909 H 0.76005 0.89151 0.42733 0.0
H910 H 0.77543 0.85297 0.44303 0.0
H911 H 0.85791 0.84735 0.45176 0.0
H912 H 0.89201 0.74857 0.50984 0.0
H913 H 0.86914 0.76985 0.48532 0.0
C914 C 0.77029 0.14756 0.47643 0.0
C915 C 0.75466 0.12559 0.47768 0.0
C916 C 0.77959 0.15951 0.49196 0.0
C917 C 0.79364 0.18561 0.52698 0.0
H918 H 0.82209 0.13601 0.56038 0.0
C919 C 0.86719 0.21559 0.58123 0.0
C920 C 0.88942 0.2003 0.58114 0.0
C921 C 0.84485 0.20731 0.57245 0.0
C922 C 0.81411 0.15014 0.55126 0.0
H923 H 0.73465 0.10023 0.49617 0.0
H924 H 0.75072 0.12126 0.52336 0.0
H925 H 0.79256 0.12166 0.53706 0.0
H926 H 0.90525 0.16399 0.57212 0.0
H927 H 0.86653 0.14959 0.55706 0.0
H928 H 0.81672 0.21378 0.54045 0.0
C929 C 0.75626 0.12891 0.51036 0.0
C930 C 0.79692 0.14198 0.538 0.0
C931 C 0.74705 0.11688 0.4948 0.0
C932 C 0.8884 0.17609 0.57279 0.0
C933 C 0.86612 0.1678 0.56412 0.0
C934 C 0.81092 0.19377 0.54023 0.0
C935 C 0.77336 0.14982 0.50911 0.0
C936 C 0.78723 0.15945 0.52527 0.0
C937 C 0.84426 0.18352 0.5635 0.0
C938 C 0.82211 0.17593 0.55206 0.0
H939 H 0.77672 0.15458 0.46345 0.0
H940 H 0.79298 0.17534 0.49046 0.0
H941 H 0.78618 0.19963 0.51757 0.0
H942 H 0.86721 0.23419 0.58776 0.0
H943 H 0.82821 0.21973 0.57236 0.0
C944 C 0.78033 0.11273 0.92329 0.0
C945 C 0.75892 0.09659 0.92591 0.0
C946 C 0.78691 0.13122 0.93615 0.0
C947 C 0.77982 0.14048 0.98481 0.0
H948 H 0.81972 0.20213 0.97549 0.0
C949 C 0.85357 0.17835 0.03508 0.0
C950 C 0.85654 0.20495 0.03754 0.0
C951 C 0.83736 0.16877 0.02173 0.0
C952 C 0.80825 0.18521 0.97836 0.0
H953 H 0.72644 0.08884 0.94348 0.0
H954 H 0.73726 0.12177 0.96537 0.0
H955 H 0.79733 0.18079 0.9507 0.0
H956 H 0.84456 0.24241 0.02796 0.0
H957 H 0.81616 0.22555 0.00442 0.0
H958 H 0.79085 0.1447 0.01237 0.0
C959 C 0.74944 0.1196 0.95365 0.0
C960 C 0.79564 0.17283 0.96413 0.0
C961 C 0.74302 0.10091 0.94092 0.0
C962 C 0.84283 0.2218 0.0263 0.0
C963 C 0.82656 0.21218 0.01286 0.0
C964 C 0.79229 0.15288 -0.00101 0.0
C965 C 0.77208 0.13419 0.95183 0.0
C966 C 0.7819 0.14989 0.96711 0.0
C967 C 0.82368 0.18553 0.01044 0.0
C968 C 0.80734 0.17488 0.99584 0.0
H969 H 0.79269 0.11033 0.91169 0.0
H970 H 0.80452 0.14204 0.93427 0.0
H971 H 0.76969 0.12274 0.98766 0.0
H972 H 0.8643 0.16482 0.04319 0.0
H973 H 0.83608 0.14815 0.01994 0.0
C974 C 0.21526 0.14439 0.96441 0.0
C975 C 0.23284 0.12463 0.96805 0.0
C976 C 0.20273 0.15699 0.97846 0.0
C977 C 0.17966 0.14258 0.02338 0.0
H978 H 0.15803 0.2138 0.02299 0.0
C979 C 0.08495 0.17664 0.05408 0.0
C980 C 0.08473 0.19968 0.06389 0.0
C981 C 0.10714 0.1688 0.04518 0.0
C982 C 0.16422 0.19397 0.02344 0.0
H983 H 0.25268 0.10416 0.98933 0.0
H984 H 0.2305 0.126 0.01389 0.0
H985 H 0.19138 0.1995 0.00208 0.0
H986 H 0.1075 0.23248 0.07232 0.0
H987 H 0.14647 0.21887 0.05643 0.0
H988 H 0.15185 0.1368 0.04423 0.0
C989 C 0.22622 0.13147 0.00014 0.0
C990 C 0.18314 0.18576 0.01142 0.0
C991 C 0.23886 0.11895 0.98608 0.0
C992 C 0.10727 0.21457 0.06489 0.0
C993 C 0.12944 0.20688 0.05575 0.0
C994 C 0.16062 0.15073 0.03527 0.0
C995 C 0.20744 0.15004 0.99645 0.0
C996 C 0.1906 0.15984 0.01097 0.0
C997 C 0.12951 0.18397 0.04575 0.0
C998 C 0.15225 0.17633 0.03509 0.0
H999 H 0.20993 0.14905 0.95069 0.0
H1000 H 0.18814 0.17102 0.97518 0.0
H1001 H 0.1848 0.12244 0.02325 0.0
H1002 H 0.06786 0.16475 0.05321 0.0
H1003 H 0.10657 0.15121 0.03739 0.0
C1004 C 0.14762 0.77944 0.02251 0.0
C1005 C 0.12138 0.77554 0.01895 0.0
C1006 C 0.16377 0.78971 0.00931 0.0
C1007 C 0.16883 0.80579 0.9607 0.0
H1008 H 0.2086 0.86369 0.97831 0.0
C1009 C 0.20185 0.89017 0.91594 0.0
C1010 C 0.22435 0.90368 0.9206 0.0
C1011 C 0.1934 0.86946 0.92639 0.0
C1012 C 0.19816 0.84724 0.97313 0.0
H1013 H 0.09187 0.77773 -0.00161 0.0
H1014 H 0.11995 0.79618 0.97546 0.0
H1015 H 0.18632 0.83617 -0.00046 0.0
H1016 H 0.25649 0.90476 0.93925 0.0
H1017 H 0.24233 0.86812 0.95692 0.0
H1018 H 0.1802 0.81743 0.93418 0.0
C1019 C 0.12809 0.79115 0.98841 0.0
C1020 C 0.18531 0.83144 0.98535 0.0
C1021 C 0.11193 0.78089 0.00162 0.0
C1022 C 0.23915 0.8948 0.93516 0.0
C1023 C 0.23083 0.87397 0.94548 0.0
C1024 C 0.18182 0.82158 0.94843 0.0
C1025 C 0.15403 0.79631 0.99228 0.0
C1026 C 0.17009 0.81086 0.97928 0.0
C1027 C 0.20738 0.86166 0.94163 0.0
C1028 C 0.19622 0.8428 0.9545 0.0
H1029 H 0.15549 0.77565 0.03575 0.0
H1030 H 0.18375 0.79319 0.01262 0.0
H1031 H 0.15746 0.78988 0.95564 0.0
H1032 H 0.19025 0.89614 0.90459 0.0
H1033 H 0.1752 0.86051 0.92304 0.0
C1034 C 0.79932 0.89371 0.97268 0.0
C1035 C 0.77416 0.88752 0.96736 0.0
C1036 C 0.81 0.88268 0.98802 0.0
C1037 C 0.80598 0.82574 0.01651 0.0
H1038 H 0.85285 0.86536 0.04625 0.0
C1039 C 0.89159 0.78141 0.05337 0.0
C1040 C 0.90064 0.79254 0.06941 0.0
C1041 C 0.87058 0.79186 0.04435 0.0
C1042 C 0.83946 0.85402 0.03838 0.0
H1043 H 0.74024 0.86526 0.97412 0.0
H1044 H 0.75905 0.84578 0.00114 0.0
H1045 H 0.82613 0.88718 0.02423 0.0
H1046 H 0.89368 0.82228 0.08923 0.0
H1047 H 0.85679 0.84054 0.07348 0.0
H1048 H 0.81969 0.7925 0.03046 0.0
C1049 C 0.77047 0.85915 0.99331 0.0
C1050 C 0.82436 0.86652 0.02559 0.0
C1051 C 0.75968 0.87037 0.97793 0.0
C1052 C 0.88738 0.81354 0.07674 0.0
C1053 C 0.86626 0.82397 0.06772 0.0
C1054 C 0.82107 0.81321 0.02934 0.0
C1055 C 0.79579 0.86517 -0.00153 0.0
C1056 C 0.80816 0.85243 0.01408 0.0
C1057 C 0.85807 0.81367 0.05117 0.0
C1058 C 0.83863 0.82712 0.03999 0.0
H1059 H 0.81082 0.90717 0.96497 0.0
H1060 H 0.82967 0.88743 0.99146 0.0
H1061 H 0.79368 0.81435 0.00783 0.0
H1062 H 0.90158 0.76544 0.04723 0.0
H1063 H 0.8651 0.78368 0.03149 0.0
C1064 C 0.07068 0.1514 0.69263 0.0
C1065 C 0.07446 0.17767 0.68909 0.0
C1066 C 0.08064 0.1403 0.70827 0.0
C1067 C 0.10585 0.15662 0.75353 0.0
H1068 H 0.1388 0.09011 0.75012 0.0
C1069 C 0.17336 0.11729 0.8084 0.0
C1070 C 0.17127 0.09112 0.81289 0.0
C1071 C 0.15957 0.12736 0.79393 0.0
C1072 C 0.12936 0.10853 0.75134 0.0
H1073 H 0.09189 0.21281 0.69904 0.0
H1074 H 0.10942 0.19345 0.72622 0.0
H1075 H 0.11837 0.10857 0.72358 0.0
H1076 H 0.15249 0.05517 0.80593 0.0
H1077 H 0.12863 0.07276 0.78048 0.0
H1078 H 0.11733 0.15676 0.78122 0.0
C1079 C 0.09831 0.18151 0.71713 0.0
C1080 C 0.11763 0.11911 0.73615 0.0
C1081 C 0.0883 0.19261 0.70154 0.0
C1082 C 0.15485 0.07532 0.80266 0.0
C1083 C 0.14115 0.08538 0.78811 0.0
C1084 C 0.11767 0.14608 0.7687 0.0
C1085 C 0.09466 0.15522 0.72066 0.0
C1086 C 0.10596 0.14339 0.73703 0.0
C1087 C 0.14347 0.11148 0.78355 0.0
C1088 C 0.12974 0.12204 0.76772 0.0
H1089 H 0.05981 0.13947 0.68339 0.0
H1090 H 0.07719 0.12006 0.71072 0.0
H1091 H 0.09662 0.17514 0.75475 0.0
H1092 H 0.18617 0.12991 0.81579 0.0
H1093 H 0.16205 0.14747 0.79056 0.0
C1094 C 0.09669 0.83373 0.18081 0.0
C1095 C 0.08969 0.80765 0.18107 0.0
C1096 C 0.10802 0.84503 0.19592 0.0
C1097 C 0.14823 0.83105 0.23411 0.0
H1098 H 0.11876 0.89144 0.25646 0.0
C1099 C 0.18736 0.87044 0.30114 0.0
C1100 C 0.18692 0.89706 0.30398 0.0
C1101 C 0.17528 0.85975 0.28611 0.0
C1102 C 0.12755 0.87487 0.25023 0.0
H1103 H 0.0891 0.77283 0.19703 0.0
H1104 H 0.10967 0.79251 0.22339 0.0
H1105 H 0.09818 0.87264 0.23001 0.0
H1106 H 0.17409 0.93354 0.29338 0.0
H1107 H 0.15393 0.91513 0.26662 0.0
H1108 H 0.17813 0.8336 0.2537 0.0
C1109 C 0.10606 0.80418 0.21158 0.0
C1110 C 0.11563 0.86405 0.23516 0.0
C1111 C 0.09424 0.79301 0.19661 0.0
C1112 C 0.17445 0.9129 0.29148 0.0
C1113 C 0.16278 0.90229 0.27625 0.0
C1114 C 0.16046 0.84214 0.24894 0.0
C1115 C 0.11301 0.83027 0.21135 0.0
C1116 C 0.12578 0.84196 0.22709 0.0
C1117 C 0.16292 0.87553 0.2734 0.0
C1118 C 0.15018 0.86409 0.25731 0.0
H1119 H 0.09325 0.84535 0.16895 0.0
H1120 H 0.11334 0.86517 0.19546 0.0
H1121 H 0.15653 0.81416 0.22793 0.0
H1122 H 0.19665 0.85786 0.31075 0.0
H1123 H 0.17533 0.83906 0.28465 0.0
C1124 C 0.89831 0.79846 0.70279 0.0
C1125 C 0.90841 0.81233 0.68816 0.0
C1126 C 0.88661 0.81125 0.7171 0.0
C1127 C 0.88335 0.87383 0.73978 0.0
H1128 H 0.81895 0.84745 0.75861 0.0
C1129 C 0.83731 0.9103 0.80585 0.0
C1130 C 0.81064 0.91429 0.80558 0.0
C1131 C 0.84953 0.89859 0.79127 0.0
C1132 C 0.83685 0.85513 0.75342 0.0
H1133 H 0.91453 0.85045 0.67715 0.0
H1134 H 0.8939 0.87284 0.70215 0.0
H1135 H 0.83971 0.82557 0.73351 0.0
H1136 H 0.77584 0.90908 0.7899 0.0
H1137 H 0.79721 0.88884 0.7644 0.0
H1138 H 0.88035 0.90352 0.75964 0.0
C1139 C 0.89515 0.85207 0.70256 0.0
C1140 C 0.84885 0.84246 0.73919 0.0
C1141 C 0.90672 0.83926 0.68818 0.0
C1142 C 0.79646 0.90651 0.79041 0.0
C1143 C 0.80865 0.89468 0.7759 0.0
C1144 C 0.87141 0.88642 0.75411 0.0
C1145 C 0.88489 0.83818 0.71712 0.0
C1146 C 0.87221 0.85169 0.73222 0.0
C1147 C 0.83527 0.89048 0.77623 0.0
C1148 C 0.84801 0.87721 0.76104 0.0
H1149 H 0.89913 0.77767 0.70305 0.0
H1150 H 0.87907 0.80007 0.72822 0.0
H1151 H 0.90145 0.88125 0.73477 0.0
H1152 H 0.84874 0.91628 0.81731 0.0
H1153 H 0.87006 0.89542 0.79194 0.0
C1154 C 0.84644 0.10196 0.31845 0.0
C1155 C 0.82535 0.0855 0.31566 0.0
C1156 C 0.8605 0.11136 0.30383 0.0
C1157 C 0.87538 0.09915 0.25621 0.0
H1158 H 0.88926 0.17235 0.25432 0.0
C1159 C 0.90689 0.15046 0.19109 0.0
C1160 C 0.92416 0.17116 0.19243 0.0
C1161 C 0.89715 0.13877 0.20657 0.0
C1162 C 0.88598 0.1518 0.25476 0.0
H1163 H 0.80282 0.06543 0.29549 0.0
H1164 H 0.82737 0.08191 0.26991 0.0
H1165 H 0.86807 0.15411 0.28064 0.0
H1166 H 0.94559 0.19525 0.21095 0.0
H1167 H 0.92893 0.17455 0.23806 0.0
H1168 H 0.89326 0.09679 0.23033 0.0
C1169 C 0.83304 0.08749 0.2834 0.0
C1170 C 0.87377 0.14138 0.26982 0.0
C1171 C 0.81886 0.07827 0.298 0.0
C1172 C 0.93204 0.17952 0.20955 0.0
C1173 C 0.92244 0.16771 0.22505 0.0
C1174 C 0.88777 0.10954 0.24118 0.0
C1175 C 0.85387 0.10429 0.28617 0.0
C1176 C 0.8681 0.11501 0.27061 0.0
C1177 C 0.9046 0.14742 0.22375 0.0
C1178 C 0.89295 0.13604 0.24019 0.0
H1179 H 0.85175 0.10799 0.33191 0.0
H1180 H 0.87657 0.12415 0.30634 0.0
H1181 H 0.87153 0.07869 0.25658 0.0
H1182 H 0.90022 0.14385 0.17806 0.0
H1183 H 0.88313 0.12349 0.20506 0.0
loop_
_geom_bond_atom_site_label_1
_geom_bond_atom_site_label_2
_geom_bond_distance
_geom_bond_site_symmetry_2
_ccdc_geom_bond_type
Li0 N17 1.990 . S
Li0 O60 1.956 . S
Li0 O61 1.970 . S
Li0 O62 1.961 . S
Li1 N25 1.990 . S
Li1 O60 1.970 . S
Li1 O61 1.956 . S
Li1 O63 1.961 . S
Li2 N47 1.990 1_455 S
Li2 O60 1.961 . S
Li2 O62 1.956 . S
Li2 O63 1.970 . S
Li3 N53 1.990 . S
Li3 O61 1.961 . S
Li3 O62 1.970 . S
Li3 O63 1.956 . S
C4 C6 1.348 . S
C4 C7 1.356 . S
C4 O60 1.325 1_655 S
N5 C8 1.314 . S
N5 C9 1.279 . S
C6 C4 1.348 . S
C6 C8 1.353 . S
C6 H64 0.929 1_655 S
C7 C4 1.356 . S
C7 C9 1.358 . S
C7 H65 0.930 . S
C8 N5 1.314 . S
C8 C6 1.353 . S
C8 H66 0.930 . S
C9 N5 1.279 . S
C9 C7 1.358 . S
C9 H67 0.930 . S
C10 C13 1.348 . S
C10 C14 1.356 . S
C10 O61 1.325 . S
C11 N12 1.279 . S
C11 C14 1.358 . S
C11 H68 0.930 . S
N12 C11 1.279 . S
N12 C15 1.314 . S
C13 C10 1.348 . S
C13 C15 1.353 . S
C13 H69 0.929 . S
C14 C10 1.356 . S
C14 C11 1.358 . S
C14 H70 0.930 . S
C15 N12 1.314 . S
C15 C13 1.353 . S
C15 H71 0.930 . S
C16 N17 1.314 . S
C16 C21 1.353 . S
C16 H22 0.930 . S
N17 Li0 1.990 . S
N17 C16 1.314 . S
N17 C19 1.279 . S
C18 C19 1.358 . S
C18 C20 1.356 . S
C18 H72 0.930 . S
C19 N17 1.279 . S
C19 C18 1.358 . S
C19 H23 0.930 . S
C20 C18 1.356 . S
C20 C21 1.348 . S
C21 C16 1.353 . S
C21 C20 1.348 . S
C21 H73 0.929 . S
H22 C16 0.930 . S
H23 C19 0.930 . S
C24 N25 1.314 . S
C24 C26 1.353 . S
C24 H30 0.930 . S
N25 Li1 1.990 . S
N25 C24 1.314 . S
N25 C28 1.279 . S
C26 C24 1.353 . S
C26 C29 1.348 . S
C26 H74 0.929 . S
C27 C28 1.358 . S
C27 C29 1.356 . S
C27 H75 0.930 . S
C28 N25 1.279 . S
C28 C27 1.358 . S
C28 H31 0.930 . S
C29 C26 1.348 . S
C29 C27 1.356 . S
H30 C24 0.930 . S
H31 C28 0.930 . S
C32 C34 1.348 . S
C32 C35 1.356 . S
C32 O62 1.325 . S
N33 C36 1.314 . S
N33 C37 1.279 . S
C34 C32 1.348 . S
C34 C36 1.353 . S
C34 H76 0.929 . S
C35 C32 1.356 . S
C35 C37 1.358 . S
C35 H77 0.930 . S
C36 N33 1.314 . S
C36 C34 1.353 . S
C36 H78 0.930 . S
C37 N33 1.279 . S
C37 C35 1.358 . S
C37 H79 0.930 . S
C38 C39 1.348 . S
C38 C40 1.356 . S
C38 O63 1.325 . S
C39 C38 1.348 . S
C39 C41 1.353 . S
C39 H80 0.929 . S
C40 C38 1.356 . S
C40 C42 1.358 . S
C40 H81 0.930 . S
C41 C39 1.353 . S
C41 N43 1.314 . S
C41 H82 0.930 1_455 S
C42 C40 1.358 . S
C42 N43 1.279 . S
C42 H83 0.930 . S
N43 C41 1.314 . S
N43 C42 1.279 . S
C44 C46 1.353 . S
C44 N47 1.314 . S
C44 H50 0.930 . S
C45 N47 1.279 . S
C45 C48 1.358 . S
C45 H51 0.930 . S
C46 C44 1.353 . S
C46 C49 1.348 . S
C46 H84 0.929 . S
N47 Li2 1.990 1_655 S
N47 C44 1.314 . S
N47 C45 1.279 . S
C48 C45 1.358 . S
C48 C49 1.356 . S
C48 H85 0.930 . S
C49 C46 1.348 . S
C49 C48 1.356 . S
H50 C44 0.930 . S
H51 C45 0.930 . S
C52 N53 1.314 . S
C52 C54 1.353 . S
C52 H58 0.930 . S
N53 Li3 1.990 . S
N53 C52 1.314 . S
N53 C56 1.279 . S
C54 C52 1.353 . S
C54 C57 1.348 . S
C54 H86 0.929 . S
C55 C56 1.358 . S
C55 C57 1.356 . S
C55 H87 0.930 . S
C56 N53 1.279 . S
C56 C55 1.358 . S
C56 H59 0.930 . S
C57 C54 1.348 . S
C57 C55 1.356 . S
H58 C52 0.930 . S
H59 C56 0.930 . S
O60 Li0 1.956 . S
O60 Li1 1.970 . S
O60 Li2 1.961 . S
O60 C4 1.325 1_455 S
O61 Li0 1.970 . S
O61 Li1 1.956 . S
O61 Li3 1.961 . S
O61 C10 1.325 . S
O62 Li0 1.961 . S
O62 Li2 1.956 . S
O62 Li3 1.970 . S
O62 C32 1.325 . S
O63 Li1 1.961 . S
O63 Li2 1.970 . S
O63 Li3 1.956 . S
O63 C38 1.325 . S
H64 C6 0.929 1_455 S
H65 C7 0.930 . S
H66 C8 0.930 . S
H67 C9 0.930 . S
H68 C11 0.930 . S
H69 C13 0.929 . S
H70 C14 0.930 . S
H71 C15 0.930 . S
H72 C18 0.930 . S
H73 C21 0.929 . S
H74 C26 0.929 . S
H75 C27 0.930 . S
H76 C34 0.929 . S
H77 C35 0.930 . S
H78 C36 0.930 . S
H79 C37 0.930 . S
H80 C39 0.929 . S
H81 C40 0.930 . S
H82 C41 0.930 1_655 S
H83 C42 0.930 . S
H84 C46 0.929 . S
H85 C48 0.930 . S
H86 C54 0.929 . S
H87 C55 0.930 . S
Li88 N105 1.990 1_565 S
Li88 O148 1.956 . S
Li88 O149 1.970 . S
Li88 O150 1.961 . S
Li89 N113 1.990 . S
Li89 O148 1.970 . S
Li89 O149 1.956 . S
Li89 O151 1.961 . S
Li90 N135 1.990 . S
Li90 O148 1.961 . S
Li90 O150 1.956 . S
Li90 O151 1.970 . S
Li91 N141 1.990 . S
Li91 O149 1.961 . S
Li91 O150 1.970 . S
Li91 O151 1.956 . S
C92 C94 1.348 . S
C92 C95 1.356 . S
C92 O148 1.325 1_545 S
N93 C96 1.314 . S
N93 C97 1.279 . S
C94 C92 1.348 . S
C94 C96 1.353 . S
C94 H152 0.929 . S
C95 C92 1.356 . S
C95 C97 1.358 . S
C95 H153 0.930 . S
C96 N93 1.314 . S
C96 C94 1.353 . S
C96 H154 0.930 . S
C97 N93 1.279 . S
C97 C95 1.358 . S
C97 H155 0.930 . S
C98 C101 1.348 . S
C98 C102 1.356 . S
C98 O149 1.325 . S
C99 N100 1.279 . S
C99 C102 1.358 . S
C99 H156 0.930 . S
N100 C99 1.279 . S
N100 C103 1.314 . S
C101 C98 1.348 . S
C101 C103 1.353 . S
C101 H157 0.929 1_565 S
C102 C98 1.356 . S
C102 C99 1.358 . S
C102 H158 0.930 . S
C103 N100 1.314 . S
C103 C101 1.353 . S
C103 H159 0.930 1_565 S
C104 N105 1.314 . S
C104 C109 1.353 . S
C104 H110 0.930 . S
N105 Li88 1.990 1_545 S
N105 C104 1.314 . S
N105 C107 1.279 . S
C106 C107 1.358 . S
C106 C108 1.356 . S
C106 H160 0.930 . S
C107 N105 1.279 . S
C107 C106 1.358 . S
C107 H111 0.930 . S
C108 C106 1.356 . S
C108 C109 1.348 . S
C109 C104 1.353 . S
C109 C108 1.348 . S
C109 H161 0.929 . S
H110 C104 0.930 . S
H111 C107 0.930 . S
C112 N113 1.314 . S
C112 C114 1.353 . S
C112 H118 0.930 . S
N113 Li89 1.990 . S
N113 C112 1.314 . S
N113 C116 1.279 . S
C114 C112 1.353 . S
C114 C117 1.348 . S
C114 H162 0.929 . S
C115 C116 1.358 . S
C115 C117 1.356 . S
C115 H163 0.930 . S
C116 N113 1.279 . S
C116 C115 1.358 . S
C116 H119 0.930 . S
C117 C114 1.348 . S
C117 C115 1.356 . S
H118 C112 0.930 . S
H119 C116 0.930 . S
C120 C122 1.348 . S
C120 C123 1.356 . S
C120 O150 1.325 . S
N121 C124 1.314 . S
N121 C125 1.279 . S
C122 C120 1.348 . S
C122 C124 1.353 . S
C122 H164 0.929 . S
C123 C120 1.356 . S
C123 C125 1.358 . S
C123 H165 0.930 . S
C124 N121 1.314 . S
C124 C122 1.353 . S
C124 H166 0.930 . S
C125 N121 1.279 . S
C125 C123 1.358 . S
C125 H167 0.930 . S
C126 C127 1.348 . S
C126 C128 1.356 . S
C126 O151 1.325 . S
C127 C126 1.348 . S
C127 C129 1.353 . S
C127 H168 0.929 . S
C128 C126 1.356 . S
C128 C130 1.358 . S
C128 H169 0.930 . S
C129 C127 1.353 . S
C129 N131 1.314 . S
C129 H170 0.930 . S
C130 C128 1.358 . S
C130 N131 1.279 . S
C130 H171 0.930 . S
N131 C129 1.314 . S
N131 C130 1.279 . S
C132 C134 1.353 . S
C132 N135 1.314 . S
C132 H138 0.930 . S
C133 N135 1.279 . S
C133 C136 1.358 . S
C133 H139 0.930 . S
C134 C132 1.353 . S
C134 C137 1.348 . S
C134 H172 0.929 . S
N135 Li90 1.990 . S
N135 C132 1.314 . S
N135 C133 1.279 . S
C136 C133 1.358 . S
C136 C137 1.356 . S
C136 H173 0.930 . S
C137 C134 1.348 . S
C137 C136 1.356 . S
H138 C132 0.930 . S
H139 C133 0.930 . S
C140 N141 1.314 . S
C140 C142 1.353 . S
C140 H146 0.930 . S
N141 Li91 1.990 . S
N141 C140 1.314 . S
N141 C144 1.279 . S
C142 C140 1.353 . S
C142 C145 1.348 . S
C142 H174 0.929 . S
C143 C144 1.358 . S
C143 C145 1.356 . S
C143 H175 0.930 . S
C144 N141 1.279 . S
C144 C143 1.358 . S
C144 H147 0.930 . S
C145 C142 1.348 . S
C145 C143 1.356 . S
H146 C140 0.930 . S
H147 C144 0.930 . S
O148 Li88 1.956 . S
O148 Li89 1.970 . S
O148 Li90 1.961 . S
O148 C92 1.325 1_565 S
O149 Li88 1.970 . S
O149 Li89 1.956 . S
O149 Li91 1.961 . S
O149 C98 1.325 . S
O150 Li88 1.961 . S
O150 Li90 1.956 . S
O150 Li91 1.970 . S
O150 C120 1.325 . S
O151 Li89 1.961 . S
O151 Li90 1.970 . S
O151 Li91 1.956 . S
O151 C126 1.325 . S
H152 C94 0.929 . S
H153 C95 0.930 . S
H154 C96 0.930 . S
H155 C97 0.930 . S
H156 C99 0.930 . S
H157 C101 0.929 1_545 S
H158 C102 0.930 . S
H159 C103 0.930 1_545 S
H160 C106 0.930 . S
H161 C109 0.929 . S
H162 C114 0.929 . S
H163 C115 0.930 . S
H164 C122 0.929 . S
H165 C123 0.930 . S
H166 C124 0.930 . S
H167 C125 0.930 . S
H168 C127 0.929 . S
H169 C128 0.930 . S
H170 C129 0.930 . S
H171 C130 0.930 . S
H172 C134 0.929 . S
H173 C136 0.930 . S
H174 C142 0.929 . S
H175 C143 0.930 . S
Li176 N193 1.990 . S
Li176 O236 1.956 . S
Li176 O237 1.970 . S
Li176 O238 1.961 . S
Li177 N201 1.990 . S
Li177 O236 1.970 . S
Li177 O237 1.956 . S
Li177 O239 1.961 . S
Li178 N223 1.990 1_655 S
Li178 O236 1.961 . S
Li178 O238 1.956 . S
Li178 O239 1.970 . S
Li179 N229 1.990 . S
Li179 O237 1.961 . S
Li179 O238 1.970 . S
Li179 O239 1.956 . S
C180 C182 1.348 . S
C180 C183 1.356 . S
C180 O236 1.325 1_455 S
N181 C184 1.314 . S
N181 C185 1.279 . S
C182 C180 1.348 . S
C182 C184 1.353 . S
C182 H240 0.929 1_455 S
C183 C180 1.356 . S
C183 C185 1.358 . S
C183 H241 0.930 . S
C184 N181 1.314 . S
C184 C182 1.353 . S
C184 H242 0.930 . S
C185 N181 1.279 . S
C185 C183 1.358 . S
C185 H243 0.930 . S
C186 C189 1.348 . S
C186 C190 1.356 . S
C186 O237 1.325 . S
C187 N188 1.279 . S
C187 C190 1.358 . S
C187 H244 0.930 . S
N188 C187 1.279 . S
N188 C191 1.314 . S
C189 C186 1.348 . S
C189 C191 1.353 . S
C189 H245 0.929 . S
C190 C186 1.356 . S
C190 C187 1.358 . S
C190 H246 0.930 . S
C191 N188 1.314 . S
C191 C189 1.353 . S
C191 H247 0.930 . S
C192 N193 1.314 . S
C192 C197 1.353 . S
C192 H198 0.930 . S
N193 Li176 1.990 . S
N193 C192 1.314 . S
N193 C195 1.279 . S
C194 C195 1.358 . S
C194 C196 1.356 . S
C194 H248 0.930 . S
C195 N193 1.279 . S
C195 C194 1.358 . S
C195 H199 0.930 . S
C196 C194 1.356 . S
C196 C197 1.348 . S
C197 C192 1.353 . S
C197 C196 1.348 . S
C197 H249 0.929 . S
H198 C192 0.930 . S
H199 C195 0.930 . S
C200 N201 1.314 . S
C200 C202 1.353 . S
C200 H206 0.930 . S
N201 Li177 1.990 . S
N201 C200 1.314 . S
N201 C204 1.279 . S
C202 C200 1.353 . S
C202 C205 1.348 . S
C202 H250 0.929 . S
C203 C204 1.358 . S
C203 C205 1.356 . S
C203 H251 0.930 . S
C204 N201 1.279 . S
C204 C203 1.358 . S
C204 H207 0.930 . S
C205 C202 1.348 . S
C205 C203 1.356 . S
H206 C200 0.930 . S
H207 C204 0.930 . S
C208 C210 1.348 . S
C208 C211 1.356 . S
C208 O238 1.325 . S
N209 C212 1.314 . S
N209 C213 1.279 . S
C210 C208 1.348 . S
C210 C212 1.353 . S
C210 H252 0.929 . S
C211 C208 1.356 . S
C211 C213 1.358 . S
C211 H253 0.930 . S
C212 N209 1.314 . S
C212 C210 1.353 . S
C212 H254 0.930 . S
C213 N209 1.279 . S
C213 C211 1.358 . S
C213 H255 0.930 . S
C214 C215 1.348 . S
C214 C216 1.356 . S
C214 O239 1.325 . S
C215 C214 1.348 . S
C215 C217 1.353 . S
C215 H256 0.929 . S
C216 C214 1.356 . S
C216 C218 1.358 . S
C216 H257 0.930 . S
C217 C215 1.353 . S
C217 N219 1.314 . S
C217 H258 0.930 1_655 S
C218 C216 1.358 . S
C218 N219 1.279 . S
C218 H259 0.930 . S
N219 C217 1.314 . S
N219 C218 1.279 . S
C220 C222 1.353 . S
C220 N223 1.314 . S
C220 H226 0.930 . S
C221 N223 1.279 . S
C221 C224 1.358 . S
C221 H227 0.930 . S
C222 C220 1.353 . S
C222 C225 1.348 . S
C222 H260 0.929 . S
N223 Li178 1.990 1_455 S
N223 C220 1.314 . S
N223 C221 1.279 . S
C224 C221 1.358 . S
C224 C225 1.356 . S
C224 H261 0.930 . S
C225 C222 1.348 . S
C225 C224 1.356 . S
H226 C220 0.930 . S
H227 C221 0.930 . S
C228 N229 1.314 . S
C228 C230 1.353 . S
C228 H234 0.930 . S
N229 Li179 1.990 . S
N229 C228 1.314 . S
N229 C232 1.279 . S
C230 C228 1.353 . S
C230 C233 1.348 . S
C230 H262 0.929 . S
C231 C232 1.358 . S
C231 C233 1.356 . S
C231 H263 0.930 . S
C232 N229 1.279 . S
C232 C231 1.358 . S
C232 H235 0.930 . S
C233 C230 1.348 . S
C233 C231 1.356 . S
H234 C228 0.930 . S
H235 C232 0.930 . S
O236 Li176 1.956 . S
O236 Li177 1.970 . S
O236 Li178 1.961 . S
O236 C180 1.325 1_655 S
O237 Li176 1.970 . S
O237 Li177 1.956 . S
O237 Li179 1.961 . S
O237 C186 1.325 . S
O238 Li176 1.961 . S
O238 Li178 1.956 . S
O238 Li179 1.970 . S
O238 C208 1.325 . S
O239 Li177 1.961 . S
O239 Li178 1.970 . S
O239 Li179 1.956 . S
O239 C214 1.325 . S
H240 C182 0.929 1_655 S
H241 C183 0.930 . S
H242 C184 0.930 . S
H243 C185 0.930 . S
H244 C187 0.930 . S
H245 C189 0.929 . S
H246 C190 0.930 . S
H247 C191 0.930 . S
H248 C194 0.930 . S
H249 C197 0.929 . S
H250 C202 0.929 . S
H251 C203 0.930 . S
H252 C210 0.929 . S
H253 C211 0.930 . S
H254 C212 0.930 . S
H255 C213 0.930 . S
H256 C215 0.929 . S
H257 C216 0.930 . S
H258 C217 0.930 1_455 S
H259 C218 0.930 . S
H260 C222 0.929 . S
H261 C224 0.930 . S
H262 C230 0.929 . S
H263 C231 0.930 . S
Li264 N281 1.990 . S
Li264 O324 1.956 . S
Li264 O325 1.970 . S
Li264 O326 1.961 . S
Li265 N289 1.990 . S
Li265 O324 1.970 . S
Li265 O325 1.956 . S
Li265 O327 1.961 . S
Li266 N311 1.990 1_545 S
Li266 O324 1.961 . S
Li266 O326 1.956 . S
Li266 O327 1.970 . S
Li267 N317 1.990 . S
Li267 O325 1.961 . S
Li267 O326 1.970 . S
Li267 O327 1.956 . S
C268 C270 1.348 . S
C268 C271 1.356 . S
C268 O324 1.325 . S
N269 C272 1.314 . S
N269 C273 1.279 . S
C270 C268 1.348 . S
C270 C272 1.353 . S
C270 H328 0.929 . S
C271 C268 1.356 . S
C271 C273 1.358 . S
C271 H329 0.930 . S
C272 N269 1.314 . S
C272 C270 1.353 . S
C272 H330 0.930 . S
C273 N269 1.279 . S
C273 C271 1.358 . S
C273 H331 0.930 . S
C274 C277 1.348 . S
C274 C278 1.356 . S
C274 O325 1.325 . S
C275 N276 1.279 . S
C275 C278 1.358 . S
C275 H332 0.930 . S
N276 C275 1.279 . S
N276 C279 1.314 . S
C277 C274 1.348 . S
C277 C279 1.353 . S
C277 H333 0.929 . S
C278 C274 1.356 . S
C278 C275 1.358 . S
C278 H334 0.930 . S
C279 N276 1.314 . S
C279 C277 1.353 . S
C279 H335 0.930 . S
C280 N281 1.314 . S
C280 C285 1.353 . S
C280 H286 0.930 . S
N281 Li264 1.990 . S
N281 C280 1.314 . S
N281 C283 1.279 . S
C282 C283 1.358 . S
C282 C284 1.356 . S
C282 H336 0.930 . S
C283 N281 1.279 . S
C283 C282 1.358 . S
C283 H287 0.930 . S
C284 C282 1.356 . S
C284 C285 1.348 . S
C285 C280 1.353 . S
C285 C284 1.348 . S
C285 H337 0.929 . S
H286 C280 0.930 . S
H287 C283 0.930 . S
C288 N289 1.314 . S
C288 C290 1.353 . S
C288 H294 0.930 . S
N289 Li265 1.990 . S
N289 C288 1.314 . S
N289 C292 1.279 . S
C290 C288 1.353 . S
C290 C293 1.348 . S
C290 H338 0.929 . S
C291 C292 1.358 . S
C291 C293 1.356 . S
C291 H339 0.930 . S
C292 N289 1.279 . S
C292 C291 1.358 . S
C292 H295 0.930 . S
C293 C290 1.348 . S
C293 C291 1.356 . S
H294 C288 0.930 . S
H295 C292 0.930 . S
C296 C298 1.348 . S
C296 C299 1.356 . S
C296 O326 1.325 1_565 S
N297 C300 1.314 . S
N297 C301 1.279 . S
C298 C296 1.348 . S
C298 C300 1.353 . S
C298 H340 0.929 . S
C299 C296 1.356 . S
C299 C301 1.358 . S
C299 H341 0.930 . S
C300 N297 1.314 . S
C300 C298 1.353 . S
C300 H342 0.930 . S
C301 N297 1.279 . S
C301 C299 1.358 . S
C301 H343 0.930 . S
C302 C303 1.348 . S
C302 C304 1.356 . S
C302 O327 1.325 . S
C303 C302 1.348 . S
C303 C305 1.353 . S
C303 H344 0.929 1_545 S
C304 C302 1.356 . S
C304 C306 1.358 . S
C304 H345 0.930 . S
C305 C303 1.353 . S
C305 N307 1.314 . S
C305 H346 0.930 1_545 S
C306 C304 1.358 . S
C306 N307 1.279 . S
C306 H347 0.930 . S
N307 C305 1.314 . S
N307 C306 1.279 . S
C308 C310 1.353 . S
C308 N311 1.314 . S
C308 H314 0.930 . S
C309 N311 1.279 . S
C309 C312 1.358 . S
C309 H315 0.930 . S
C310 C308 1.353 . S
C310 C313 1.348 . S
C310 H348 0.929 . S
N311 Li266 1.990 1_565 S
N311 C308 1.314 . S
N311 C309 1.279 . S
C312 C309 1.358 . S
C312 C313 1.356 . S
C312 H349 0.930 . S
C313 C310 1.348 . S
C313 C312 1.356 . S
H314 C308 0.930 . S
H315 C309 0.930 . S
C316 N317 1.314 . S
C316 C318 1.353 . S
C316 H322 0.930 . S
N317 Li267 1.990 . S
N317 C316 1.314 . S
N317 C320 1.279 . S
C318 C316 1.353 . S
C318 C321 1.348 . S
C318 H350 0.929 . S
C319 C320 1.358 . S
C319 C321 1.356 . S
C319 H351 0.930 . S
C320 N317 1.279 . S
C320 C319 1.358 . S
C320 H323 0.930 . S
C321 C318 1.348 . S
C321 C319 1.356 . S
H322 C316 0.930 . S
H323 C320 0.930 . S
O324 Li264 1.956 . S
O324 Li265 1.970 . S
O324 Li266 1.961 . S
O324 C268 1.325 . S
O325 Li264 1.970 . S
O325 Li265 1.956 . S
O325 Li267 1.961 . S
O325 C274 1.325 . S
O326 Li264 1.961 . S
O326 Li266 1.956 . S
O326 Li267 1.970 . S
O326 C296 1.325 1_545 S
O327 Li265 1.961 . S
O327 Li266 1.970 . S
O327 Li267 1.956 . S
O327 C302 1.325 . S
H328 C270 0.929 . S
H329 C271 0.930 . S
H330 C272 0.930 . S
H331 C273 0.930 . S
H332 C275 0.930 . S
H333 C277 0.929 . S
H334 C278 0.930 . S
H335 C279 0.930 . S
H336 C282 0.930 . S
H337 C285 0.929 . S
H338 C290 0.929 . S
H339 C291 0.930 . S
H340 C298 0.929 . S
H341 C299 0.930 . S
H342 C300 0.930 . S
H343 C301 0.930 . S
H344 C303 0.929 1_565 S
H345 C304 0.930 . S
H346 C305 0.930 1_565 S
H347 C306 0.930 . S
H348 C310 0.929 . S
H349 C312 0.930 . S
H350 C318 0.929 . S
H351 C319 0.930 . S
Li352 N369 1.990 . S
Li352 O412 1.956 . S
Li352 O413 1.970 . S
Li352 O414 1.961 . S
Li353 N377 1.990 . S
Li353 O412 1.970 . S
Li353 O413 1.956 . S
Li353 O415 1.961 . S
Li354 N399 1.990 . S
Li354 O412 1.961 . S
Li354 O414 1.956 . S
Li354 O415 1.970 . S
Li355 N405 1.990 1_655 S
Li355 O413 1.961 . S
Li355 O414 1.970 . S
Li355 O415 1.956 . S
C356 C358 1.348 . S
C356 C359 1.356 . S
C356 O412 1.325 . S
N357 C360 1.314 . S
N357 C361 1.279 . S
C358 C356 1.348 . S
C358 C360 1.353 . S
C358 H416 0.929 . S
C359 C356 1.356 . S
C359 C361 1.358 . S
C359 H417 0.930 . S
C360 N357 1.314 . S
C360 C358 1.353 . S
C360 H418 0.930 . S
C361 N357 1.279 . S
C361 C359 1.358 . S
C361 H419 0.930 . S
C362 C365 1.348 . S
C362 C366 1.356 . S
C362 O413 1.325 . S
C363 N364 1.279 . S
C363 C366 1.358 . S
C363 H420 0.930 . S
N364 C363 1.279 . S
N364 C367 1.314 . S
C365 C362 1.348 . S
C365 C367 1.353 . S
C365 H421 0.929 . S
C366 C362 1.356 . S
C366 C363 1.358 . S
C366 H422 0.930 . S
C367 N364 1.314 . S
C367 C365 1.353 . S
C367 H423 0.930 . S
C368 N369 1.314 . S
C368 C373 1.353 . S
C368 H374 0.930 . S
N369 Li352 1.990 . S
N369 C368 1.314 . S
N369 C371 1.279 . S
C370 C371 1.358 . S
C370 C372 1.356 . S
C370 H424 0.930 . S
C371 N369 1.279 . S
C371 C370 1.358 . S
C371 H375 0.930 . S
C372 C370 1.356 . S
C372 C373 1.348 . S
C373 C368 1.353 . S
C373 C372 1.348 . S
C373 H425 0.929 . S
H374 C368 0.930 . S
H375 C371 0.930 . S
C376 N377 1.314 . S
C376 C378 1.353 . S
C376 H382 0.930 . S
N377 Li353 1.990 . S
N377 C376 1.314 . S
N377 C380 1.279 . S
C378 C376 1.353 . S
C378 C381 1.348 . S
C378 H426 0.929 . S
C379 C380 1.358 . S
C379 C381 1.356 . S
C379 H427 0.930 . S
C380 N377 1.279 . S
C380 C379 1.358 . S
C380 H383 0.930 . S
C381 C378 1.348 . S
C381 C379 1.356 . S
H382 C376 0.930 . S
H383 C380 0.930 . S
C384 C386 1.348 . S
C384 C387 1.356 . S
C384 O414 1.325 . S
N385 C388 1.314 . S
N385 C389 1.279 . S
C386 C384 1.348 . S
C386 C388 1.353 . S
C386 H428 0.929 1_655 S
C387 C384 1.356 . S
C387 C389 1.358 . S
C387 H429 0.930 . S
C388 N385 1.314 . S
C388 C386 1.353 . S
C388 H430 0.930 1_655 S
C389 N385 1.279 . S
C389 C387 1.358 . S
C389 H431 0.930 . S
C390 C391 1.348 . S
C390 C392 1.356 . S
C390 O415 1.325 1_455 S
C391 C390 1.348 . S
C391 C393 1.353 . S
C391 H432 0.929 . S
C392 C390 1.356 . S
C392 C394 1.358 . S
C392 H433 0.930 . S
C393 C391 1.353 . S
C393 N395 1.314 . S
C393 H434 0.930 . S
C394 C392 1.358 . S
C394 N395 1.279 . S
C394 H435 0.930 . S
N395 C393 1.314 . S
N395 C394 1.279 . S
C396 C398 1.353 . S
C396 N399 1.314 . S
C396 H402 0.930 . S
C397 N399 1.279 . S
C397 C400 1.358 . S
C397 H403 0.930 . S
C398 C396 1.353 . S
C398 C401 1.348 . S
C398 H436 0.929 . S
N399 Li354 1.990 . S
N399 C396 1.314 . S
N399 C397 1.279 . S
C400 C397 1.358 . S
C400 C401 1.356 . S
C400 H437 0.930 . S
C401 C398 1.348 . S
C401 C400 1.356 . S
H402 C396 0.930 . S
H403 C397 0.930 . S
C404 N405 1.314 . S
C404 C406 1.353 . S
C404 H410 0.930 . S
N405 Li355 1.990 1_455 S
N405 C404 1.314 . S
N405 C408 1.279 . S
C406 C404 1.353 . S
C406 C409 1.348 . S
C406 H438 0.929 . S
C407 C408 1.358 . S
C407 C409 1.356 . S
C407 H439 0.930 . S
C408 N405 1.279 . S
C408 C407 1.358 . S
C408 H411 0.930 . S
C409 C406 1.348 . S
C409 C407 1.356 . S
H410 C404 0.930 . S
H411 C408 0.930 . S
O412 Li352 1.956 . S
O412 Li353 1.970 . S
O412 Li354 1.961 . S
O412 C356 1.325 . S
O413 Li352 1.970 . S
O413 Li353 1.956 . S
O413 Li355 1.961 . S
O413 C362 1.325 . S
O414 Li352 1.961 . S
O414 Li354 1.956 . S
O414 Li355 1.970 . S
O414 C384 1.325 . S
O415 Li353 1.961 . S
O415 Li354 1.970 . S
O415 Li355 1.956 . S
O415 C390 1.325 1_655 S
H416 C358 0.929 . S
H417 C359 0.930 . S
H418 C360 0.930 . S
H419 C361 0.930 . S
H420 C363 0.930 . S
H421 C365 0.929 . S
H422 C366 0.930 . S
H423 C367 0.930 . S
H424 C370 0.930 . S
H425 C373 0.929 . S
H426 C378 0.929 . S
H427 C379 0.930 . S
H428 C386 0.929 1_455 S
H429 C387 0.930 . S
H430 C388 0.930 1_455 S
H431 C389 0.930 . S
H432 C391 0.929 . S
H433 C392 0.930 . S
H434 C393 0.930 . S
H435 C394 0.930 . S
H436 C398 0.929 . S
H437 C400 0.930 . S
H438 C406 0.929 . S
H439 C407 0.930 . S
Li440 N457 1.990 . S
Li440 O500 1.956 . S
Li440 O501 1.970 . S
Li440 O502 1.961 . S
Li441 N465 1.990 1_545 S
Li441 O500 1.970 . S
Li441 O501 1.956 . S
Li441 O503 1.961 . S
Li442 N487 1.990 . S
Li442 O500 1.961 . S
Li442 O502 1.956 . S
Li442 O503 1.970 . S
Li443 N493 1.990 . S
Li443 O501 1.961 . S
Li443 O502 1.970 . S
Li443 O503 1.956 . S
C444 C446 1.348 . S
C444 C447 1.356 . S
C444 O500 1.325 . S
N445 C448 1.314 . S
N445 C449 1.279 . S
C446 C444 1.348 . S
C446 C448 1.353 . S
C446 H504 0.929 . S
C447 C444 1.356 . S
C447 C449 1.358 . S
C447 H505 0.930 . S
C448 N445 1.314 . S
C448 C446 1.353 . S
C448 H506 0.930 1_545 S
C449 N445 1.279 . S
C449 C447 1.358 . S
C449 H507 0.930 . S
C450 C453 1.348 . S
C450 C454 1.356 . S
C450 O501 1.325 . S
C451 N452 1.279 . S
C451 C454 1.358 . S
C451 H508 0.930 . S
N452 C451 1.279 . S
N452 C455 1.314 . S
C453 C450 1.348 . S
C453 C455 1.353 . S
C453 H509 0.929 . S
C454 C450 1.356 . S
C454 C451 1.358 . S
C454 H510 0.930 . S
C455 N452 1.314 . S
C455 C453 1.353 . S
C455 H511 0.930 . S
C456 N457 1.314 . S
C456 C461 1.353 . S
C456 H462 0.930 . S
N457 Li440 1.990 . S
N457 C456 1.314 . S
N457 C459 1.279 . S
C458 C459 1.358 . S
C458 C460 1.356 . S
C458 H512 0.930 . S
C459 N457 1.279 . S
C459 C458 1.358 . S
C459 H463 0.930 . S
C460 C458 1.356 . S
C460 C461 1.348 . S
C461 C456 1.353 . S
C461 C460 1.348 . S
C461 H513 0.929 . S
H462 C456 0.930 . S
H463 C459 0.930 . S
C464 N465 1.314 . S
C464 C466 1.353 . S
C464 H470 0.930 . S
N465 Li441 1.990 1_565 S
N465 C464 1.314 . S
N465 C468 1.279 . S
C466 C464 1.353 . S
C466 C469 1.348 . S
C466 H514 0.929 . S
C467 C468 1.358 . S
C467 C469 1.356 . S
C467 H515 0.930 . S
C468 N465 1.279 . S
C468 C467 1.358 . S
C468 H471 0.930 . S
C469 C466 1.348 . S
C469 C467 1.356 . S
H470 C464 0.930 . S
H471 C468 0.930 . S
C472 C474 1.348 . S
C472 C475 1.356 . S
C472 O502 1.325 . S
N473 C476 1.314 . S
N473 C477 1.279 . S
C474 C472 1.348 . S
C474 C476 1.353 . S
C474 H516 0.929 . S
C475 C472 1.356 . S
C475 C477 1.358 . S
C475 H517 0.930 . S
C476 N473 1.314 . S
C476 C474 1.353 . S
C476 H518 0.930 . S
C477 N473 1.279 . S
C477 C475 1.358 . S
C477 H519 0.930 . S
C478 C479 1.348 . S
C478 C480 1.356 . S
C478 O503 1.325 1_565 S
C479 C478 1.348 . S
C479 C481 1.353 . S
C479 H520 0.929 1_565 S
C480 C478 1.356 . S
C480 C482 1.358 . S
C480 H521 0.930 . S
C481 C479 1.353 . S
C481 N483 1.314 . S
C481 H522 0.930 . S
C482 C480 1.358 . S
C482 N483 1.279 . S
C482 H523 0.930 . S
N483 C481 1.314 . S
N483 C482 1.279 . S
C484 C486 1.353 . S
C484 N487 1.314 . S
C484 H490 0.930 . S
C485 N487 1.279 . S
C485 C488 1.358 . S
C485 H491 0.930 . S
C486 C484 1.353 . S
C486 C489 1.348 . S
C486 H524 0.929 . S
N487 Li442 1.990 . S
N487 C484 1.314 . S
N487 C485 1.279 . S
C488 C485 1.358 . S
C488 C489 1.356 . S
C488 H525 0.930 . S
C489 C486 1.348 . S
C489 C488 1.356 . S
H490 C484 0.930 . S
H491 C485 0.930 . S
C492 N493 1.314 . S
C492 C494 1.353 . S
C492 H498 0.930 . S
N493 Li443 1.990 . S
N493 C492 1.314 . S
N493 C496 1.279 . S
C494 C492 1.353 . S
C494 C497 1.348 . S
C494 H526 0.929 . S
C495 C496 1.358 . S
C495 C497 1.356 . S
C495 H527 0.930 . S
C496 N493 1.279 . S
C496 C495 1.358 . S
C496 H499 0.930 . S
C497 C494 1.348 . S
C497 C495 1.356 . S
H498 C492 0.930 . S
H499 C496 0.930 . S
O500 Li440 1.956 . S
O500 Li441 1.970 . S
O500 Li442 1.961 . S
O500 C444 1.325 . S
O501 Li440 1.970 . S
O501 Li441 1.956 . S
O501 Li443 1.961 . S
O501 C450 1.325 . S
O502 Li440 1.961 . S
O502 Li442 1.956 . S
O502 Li443 1.970 . S
O502 C472 1.325 . S
O503 Li441 1.961 . S
O503 Li442 1.970 . S
O503 Li443 1.956 . S
O503 C478 1.325 1_545 S
H504 C446 0.929 . S
H505 C447 0.930 . S
H506 C448 0.930 1_565 S
H507 C449 0.930 . S
H508 C451 0.930 . S
H509 C453 0.929 . S
H510 C454 0.930 . S
H511 C455 0.930 . S
H512 C458 0.930 . S
H513 C461 0.929 . S
H514 C466 0.929 . S
H515 C467 0.930 . S
H516 C474 0.929 . S
H517 C475 0.930 . S
H518 C476 0.930 . S
H519 C477 0.930 . S
H520 C479 0.929 1_545 S
H521 C480 0.930 . S
H522 C481 0.930 . S
H523 C482 0.930 . S
H524 C486 0.929 . S
H525 C488 0.930 . S
H526 C494 0.929 . S
H527 C495 0.930 . S
Li528 N545 1.990 1_455 S
Li528 O588 1.956 . S
Li528 O589 1.970 . S
Li528 O590 1.961 . S
Li529 N553 1.990 . S
Li529 O588 1.970 . S
Li529 O589 1.956 . S
Li529 O591 1.961 . S
Li530 N575 1.990 . S
Li530 O588 1.961 . S
Li530 O590 1.956 . S
Li530 O591 1.970 . S
Li531 N581 1.990 . S
Li531 O589 1.961 . S
Li531 O590 1.970 . S
Li531 O591 1.956 . S
C532 C534 1.348 . S
C532 C535 1.356 . S
C532 O588 1.325 1_655 S
N533 C536 1.314 . S
N533 C537 1.279 . S
C534 C532 1.348 . S
C534 C536 1.353 . S
C534 H592 0.929 . S
C535 C532 1.356 . S
C535 C537 1.358 . S
C535 H593 0.930 . S
C536 N533 1.314 . S
C536 C534 1.353 . S
C536 H594 0.930 . S
C537 N533 1.279 . S
C537 C535 1.358 . S
C537 H595 0.930 . S
C538 C541 1.348 . S
C538 C542 1.356 . S
C538 O589 1.325 . S
C539 N540 1.279 . S
C539 C542 1.358 . S
C539 H596 0.930 . S
N540 C539 1.279 . S
N540 C543 1.314 . S
C541 C538 1.348 . S
C541 C543 1.353 . S
C541 H597 0.929 1_455 S
C542 C538 1.356 . S
C542 C539 1.358 . S
C542 H598 0.930 . S
C543 N540 1.314 . S
C543 C541 1.353 . S
C543 H599 0.930 1_455 S
C544 N545 1.314 . S
C544 C549 1.353 . S
C544 H550 0.930 . S
N545 Li528 1.990 1_655 S
N545 C544 1.314 . S
N545 C547 1.279 . S
C546 C547 1.358 . S
C546 C548 1.356 . S
C546 H600 0.930 . S
C547 N545 1.279 . S
C547 C546 1.358 . S
C547 H551 0.930 . S
C548 C546 1.356 . S
C548 C549 1.348 . S
C549 C544 1.353 . S
C549 C548 1.348 . S
C549 H601 0.929 . S
H550 C544 0.930 . S
H551 C547 0.930 . S
C552 N553 1.314 . S
C552 C554 1.353 . S
C552 H558 0.930 . S
N553 Li529 1.990 . S
N553 C552 1.314 . S
N553 C556 1.279 . S
C554 C552 1.353 . S
C554 C557 1.348 . S
C554 H602 0.929 . S
C555 C556 1.358 . S
C555 C557 1.356 . S
C555 H603 0.930 . S
C556 N553 1.279 . S
C556 C555 1.358 . S
C556 H559 0.930 . S
C557 C554 1.348 . S
C557 C555 1.356 . S
H558 C552 0.930 . S
H559 C556 0.930 . S
C560 C562 1.348 . S
C560 C563 1.356 . S
C560 O590 1.325 . S
N561 C564 1.314 . S
N561 C565 1.279 . S
C562 C560 1.348 . S
C562 C564 1.353 . S
C562 H604 0.929 . S
C563 C560 1.356 . S
C563 C565 1.358 . S
C563 H605 0.930 . S
C564 N561 1.314 . S
C564 C562 1.353 . S
C564 H606 0.930 . S
C565 N561 1.279 . S
C565 C563 1.358 . S
C565 H607 0.930 . S
C566 C567 1.348 . S
C566 C568 1.356 . S
C566 O591 1.325 . S
C567 C566 1.348 . S
C567 C569 1.353 . S
C567 H608 0.929 . S
C568 C566 1.356 . S
C568 C570 1.358 . S
C568 H609 0.930 . S
C569 C567 1.353 . S
C569 N571 1.314 . S
C569 H610 0.930 . S
C570 C568 1.358 . S
C570 N571 1.279 . S
C570 H611 0.930 . S
N571 C569 1.314 . S
N571 C570 1.279 . S
C572 C574 1.353 . S
C572 N575 1.314 . S
C572 H578 0.930 . S
C573 N575 1.279 . S
C573 C576 1.358 . S
C573 H579 0.930 . S
C574 C572 1.353 . S
C574 C577 1.348 . S
C574 H612 0.929 . S
N575 Li530 1.990 . S
N575 C572 1.314 . S
N575 C573 1.279 . S
C576 C573 1.358 . S
C576 C577 1.356 . S
C576 H613 0.930 . S
C577 C574 1.348 . S
C577 C576 1.356 . S
H578 C572 0.930 . S
H579 C573 0.930 . S
C580 N581 1.314 . S
C580 C582 1.353 . S
C580 H586 0.930 . S
N581 Li531 1.990 . S
N581 C580 1.314 . S
N581 C584 1.279 . S
C582 C580 1.353 . S
C582 C585 1.348 . S
C582 H614 0.929 . S
C583 C584 1.358 . S
C583 C585 1.356 . S
C583 H615 0.930 . S
C584 N581 1.279 . S
C584 C583 1.358 . S
C584 H587 0.930 . S
C585 C582 1.348 . S
C585 C583 1.356 . S
H586 C580 0.930 . S
H587 C584 0.930 . S
O588 Li528 1.956 . S
O588 Li529 1.970 . S
O588 Li530 1.961 . S
O588 C532 1.325 1_455 S
O589 Li528 1.970 . S
O589 Li529 1.956 . S
O589 Li531 1.961 . S
O589 C538 1.325 . S
O590 Li528 1.961 . S
O590 Li530 1.956 . S
O590 Li531 1.970 . S
O590 C560 1.325 . S
O591 Li529 1.961 . S
O591 Li530 1.970 . S
O591 Li531 1.956 . S
O591 C566 1.325 . S
H592 C534 0.929 . S
H593 C535 0.930 . S
H594 C536 0.930 . S
H595 C537 0.930 . S
H596 C539 0.930 . S
H597 C541 0.929 1_655 S
H598 C542 0.930 . S
H599 C543 0.930 1_655 S
H600 C546 0.930 . S
H601 C549 0.929 . S
H602 C554 0.929 . S
H603 C555 0.930 . S
H604 C562 0.929 . S
H605 C563 0.930 . S
H606 C564 0.930 . S
H607 C565 0.930 . S
H608 C567 0.929 . S
H609 C568 0.930 . S
H610 C569 0.930 . S
H611 C570 0.930 . S
H612 C574 0.929 . S
H613 C576 0.930 . S
H614 C582 0.929 . S
H615 C583 0.930 . S
Li616 N633 1.990 1_565 S
Li616 O676 1.956 . S
Li616 O677 1.970 . S
Li616 O678 1.961 . S
Li617 N641 1.990 . S
Li617 O676 1.970 . S
Li617 O677 1.956 . S
Li617 O679 1.961 . S
Li618 N663 1.990 . S
Li618 O676 1.961 . S
Li618 O678 1.956 . S
Li618 O679 1.970 . S
Li619 N669 1.990 . S
Li619 O677 1.961 . S
Li619 O678 1.970 . S
Li619 O679 1.956 . S
C620 C622 1.348 . S
C620 C623 1.356 . S
C620 O676 1.325 . S
N621 C624 1.314 . S
N621 C625 1.279 . S
C622 C620 1.348 . S
C622 C624 1.353 . S
C622 H680 0.929 . S
C623 C620 1.356 . S
C623 C625 1.358 . S
C623 H681 0.930 . S
C624 N621 1.314 . S
C624 C622 1.353 . S
C624 H682 0.930 . S
C625 N621 1.279 . S
C625 C623 1.358 . S
C625 H683 0.930 . S
C626 C629 1.348 . S
C626 C630 1.356 . S
C626 O677 1.325 . S
C627 N628 1.279 . S
C627 C630 1.358 . S
C627 H684 0.930 . S
N628 C627 1.279 . S
N628 C631 1.314 . S
C629 C626 1.348 . S
C629 C631 1.353 . S
C629 H685 0.929 . S
C630 C626 1.356 . S
C630 C627 1.358 . S
C630 H686 0.930 . S
C631 N628 1.314 . S
C631 C629 1.353 . S
C631 H687 0.930 1_565 S
C632 N633 1.314 . S
C632 C637 1.353 . S
C632 H638 0.930 . S
N633 Li616 1.990 1_545 S
N633 C632 1.314 . S
N633 C635 1.279 . S
C634 C635 1.358 . S
C634 C636 1.356 . S
C634 H688 0.930 . S
C635 N633 1.279 . S
C635 C634 1.358 . S
C635 H639 0.930 . S
C636 C634 1.356 . S
C636 C637 1.348 . S
C637 C632 1.353 . S
C637 C636 1.348 . S
C637 H689 0.929 . S
H638 C632 0.930 . S
H639 C635 0.930 . S
C640 N641 1.314 . S
C640 C642 1.353 . S
C640 H646 0.930 . S
N641 Li617 1.990 . S
N641 C640 1.314 . S
N641 C644 1.279 . S
C642 C640 1.353 . S
C642 C645 1.348 . S
C642 H690 0.929 . S
C643 C644 1.358 . S
C643 C645 1.356 . S
C643 H691 0.930 . S
C644 N641 1.279 . S
C644 C643 1.358 . S
C644 H647 0.930 . S
C645 C642 1.348 . S
C645 C643 1.356 . S
H646 C640 0.930 . S
H647 C644 0.930 . S
C648 C650 1.348 . S
C648 C651 1.356 . S
C648 O678 1.325 1_545 S
N649 C652 1.314 . S
N649 C653 1.279 . S
C650 C648 1.348 . S
C650 C652 1.353 . S
C650 H692 0.929 1_545 S
C651 C648 1.356 . S
C651 C653 1.358 . S
C651 H693 0.930 . S
C652 N649 1.314 . S
C652 C650 1.353 . S
C652 H694 0.930 . S
C653 N649 1.279 . S
C653 C651 1.358 . S
C653 H695 0.930 . S
C654 C655 1.348 . S
C654 C656 1.356 . S
C654 O679 1.325 . S
C655 C654 1.348 . S
C655 C657 1.353 . S
C655 H696 0.929 . S
C656 C654 1.356 . S
C656 C658 1.358 . S
C656 H697 0.930 . S
C657 C655 1.353 . S
C657 N659 1.314 . S
C657 H698 0.930 . S
C658 C656 1.358 . S
C658 N659 1.279 . S
C658 H699 0.930 . S
N659 C657 1.314 . S
N659 C658 1.279 . S
C660 C662 1.353 . S
C660 N663 1.314 . S
C660 H666 0.930 . S
C661 N663 1.279 . S
C661 C664 1.358 . S
C661 H667 0.930 . S
C662 C660 1.353 . S
C662 C665 1.348 . S
C662 H700 0.929 . S
N663 Li618 1.990 . S
N663 C660 1.314 . S
N663 C661 1.279 . S
C664 C661 1.358 . S
C664 C665 1.356 . S
C664 H701 0.930 . S
C665 C662 1.348 . S
C665 C664 1.356 . S
H666 C660 0.930 . S
H667 C661 0.930 . S
C668 N669 1.314 . S
C668 C670 1.353 . S
C668 H674 0.930 . S
N669 Li619 1.990 . S
N669 C668 1.314 . S
N669 C672 1.279 . S
C670 C668 1.353 . S
C670 C673 1.348 . S
C670 H702 0.929 . S
C671 C672 1.358 . S
C671 C673 1.356 . S
C671 H703 0.930 . S
C672 N669 1.279 . S
C672 C671 1.358 . S
C672 H675 0.930 . S
C673 C670 1.348 . S
C673 C671 1.356 . S
H674 C668 0.930 . S
H675 C672 0.930 . S
O676 Li616 1.956 . S
O676 Li617 1.970 . S
O676 Li618 1.961 . S
O676 C620 1.325 . S
O677 Li616 1.970 . S
O677 Li617 1.956 . S
O677 Li619 1.961 . S
O677 C626 1.325 . S
O678 Li616 1.961 . S
O678 Li618 1.956 . S
O678 Li619 1.970 . S
O678 C648 1.325 1_565 S
O679 Li617 1.961 . S
O679 Li618 1.970 . S
O679 Li619 1.956 . S
O679 C654 1.325 . S
H680 C622 0.929 . S
H681 C623 0.930 . S
H682 C624 0.930 . S
H683 C625 0.930 . S
H684 C627 0.930 . S
H685 C629 0.929 . S
H686 C630 0.930 . S
H687 C631 0.930 1_545 S
H688 C634 0.930 . S
H689 C637 0.929 . S
H690 C642 0.929 . S
H691 C643 0.930 . S
H692 C650 0.929 1_565 S
H693 C651 0.930 . S
H694 C652 0.930 . S
H695 C653 0.930 . S
H696 C655 0.929 . S
H697 C656 0.930 . S
H698 C657 0.930 . S
H699 C658 0.930 . S
H700 C662 0.929 . S
H701 C664 0.930 . S
H702 C670 0.929 . S
H703 C671 0.930 . S
C704 C705 1.349 . S
C704 C706 1.327 . S
C704 H729 0.950 . S
C705 C704 1.349 . S
C705 C721 1.349 . S
C706 C704 1.327 . S
C706 C725 1.429 . S
C706 H730 0.950 1_655 S
C707 C724 1.574 . S
C707 C726 1.368 . S
C707 H731 0.949 . S
H708 C712 0.949 . S
C709 C710 1.349 . S
C709 C711 1.327 . S
C709 H732 0.950 . S
C710 C709 1.349 . S
C710 C722 1.349 . S
C711 C709 1.327 . S
C711 C727 1.429 . S
C711 H733 0.950 1_455 S
C712 H708 0.949 . S
C712 C720 1.574 . S
C712 C728 1.368 . S
H713 C721 0.950 . S
H714 C719 0.950 . S
H715 C720 0.949 . S
H716 C722 0.950 . S
H717 C723 0.950 . S
H718 C724 0.949 . S
C719 H714 0.950 . S
C719 C721 1.327 . S
C719 C725 1.429 . S
C720 C712 1.574 . S
C720 H715 0.949 . S
C720 C726 1.368 1_455 S
C721 C705 1.349 . S
C721 H713 0.950 . S
C721 C719 1.327 . S
C722 C710 1.349 . S
C722 H716 0.950 . S
C722 C723 1.327 . S
C723 H717 0.950 . S
C723 C722 1.327 . S
C723 C727 1.429 . S
C724 C707 1.574 . S
C724 H718 0.949 . S
C724 C728 1.368 1_655 S
C725 C706 1.429 . S
C725 C719 1.429 . S
C725 C726 1.523 . S
C726 C707 1.368 . S
C726 C720 1.368 1_655 S
C726 C725 1.523 . S
C727 C711 1.429 . S
C727 C723 1.429 . S
C727 C728 1.523 . S
C728 C712 1.368 . S
C728 C724 1.368 1_455 S
C728 C727 1.523 . S
H729 C704 0.950 . S
H730 C706 0.950 1_455 S
H731 C707 0.949 . S
H732 C709 0.950 . S
H733 C711 0.950 1_655 S
C734 C735 1.349 . S
C734 C736 1.327 . S
C734 H759 0.950 . S
C735 C734 1.349 . S
C735 C751 1.349 . S
C736 C734 1.327 . S
C736 C755 1.429 . S
C736 H760 0.950 . S
C737 C754 1.574 . S
C737 C756 1.368 1_565 S
C737 H761 0.949 . S
H738 C742 0.949 . S
C739 C740 1.349 . S
C739 C741 1.327 . S
C739 H762 0.950 . S
C740 C739 1.349 . S
C740 C752 1.349 . S
C741 C739 1.327 . S
C741 C757 1.429 . S
C741 H763 0.950 . S
C742 H738 0.949 . S
C742 C750 1.574 . S
C742 C758 1.368 1_545 S
H743 C751 0.950 . S
H744 C749 0.950 1_565 S
H745 C750 0.949 . S
H746 C752 0.950 . S
H747 C753 0.950 1_545 S
H748 C754 0.949 . S
C749 H744 0.950 1_545 S
C749 C751 1.327 . S
C749 C755 1.429 . S
C750 C742 1.574 . S
C750 H745 0.949 . S
C750 C756 1.368 . S
C751 C735 1.349 . S
C751 H743 0.950 . S
C751 C749 1.327 . S
C752 C740 1.349 . S
C752 H746 0.950 . S
C752 C753 1.327 . S
C753 H747 0.950 1_565 S
C753 C752 1.327 . S
C753 C757 1.429 . S
C754 C737 1.574 . S
C754 H748 0.949 . S
C754 C758 1.368 . S
C755 C736 1.429 . S
C755 C749 1.429 . S
C755 C756 1.523 . S
C756 C737 1.368 1_545 S
C756 C750 1.368 . S
C756 C755 1.523 . S
C757 C741 1.429 . S
C757 C753 1.429 . S
C757 C758 1.523 . S
C758 C742 1.368 1_565 S
C758 C754 1.368 . S
C758 C757 1.523 . S
H759 C734 0.950 . S
H760 C736 0.950 . S
H761 C737 0.949 . S
H762 C739 0.950 . S
H763 C741 0.950 . S
C764 C765 1.349 . S
C764 C766 1.327 . S
C764 H789 0.950 . S
C765 C764 1.349 . S
C765 C781 1.349 . S
C766 C764 1.327 . S
C766 C785 1.429 . S
C766 H790 0.950 1_655 S
C767 C784 1.574 . S
C767 C786 1.368 . S
C767 H791 0.949 . S
H768 C772 0.949 . S
C769 C770 1.349 . S
C769 C771 1.327 . S
C769 H792 0.950 . S
C770 C769 1.349 . S
C770 C782 1.349 . S
C771 C769 1.327 . S
C771 C787 1.429 . S
C771 H793 0.950 1_455 S
C772 H768 0.949 . S
C772 C780 1.574 . S
C772 C788 1.368 . S
H773 C781 0.950 . S
H774 C779 0.950 . S
H775 C780 0.949 . S
H776 C782 0.950 . S
H777 C783 0.950 . S
H778 C784 0.949 . S
C779 H774 0.950 . S
C779 C781 1.327 . S
C779 C785 1.429 . S
C780 C772 1.574 . S
C780 H775 0.949 . S
C780 C786 1.368 1_455 S
C781 C765 1.349 . S
C781 H773 0.950 . S
C781 C779 1.327 . S
C782 C770 1.349 . S
C782 H776 0.950 . S
C782 C783 1.327 . S
C783 H777 0.950 . S
C783 C782 1.327 . S
C783 C787 1.429 . S
C784 C767 1.574 . S
C784 H778 0.949 . S
C784 C788 1.368 1_655 S
C785 C766 1.429 . S
C785 C779 1.429 . S
C785 C786 1.523 . S
C786 C767 1.368 . S
C786 C780 1.368 1_655 S
C786 C785 1.523 . S
C787 C771 1.429 . S
C787 C783 1.429 . S
C787 C788 1.523 . S
C788 C772 1.368 . S
C788 C784 1.368 1_455 S
C788 C787 1.523 . S
H789 C764 0.950 . S
H790 C766 0.950 1_455 S
H791 C767 0.949 . S
H792 C769 0.950 . S
H793 C771 0.950 1_655 S
C794 C795 1.349 . S
C794 C796 1.327 . S
C794 H819 0.950 . S
C795 C794 1.349 . S
C795 C811 1.349 . S
C796 C794 1.327 . S
C796 C815 1.429 . S
C796 H820 0.950 . S
C797 C814 1.574 . S
C797 C816 1.368 1_565 S
C797 H821 0.949 . S
H798 C802 0.949 . S
C799 C800 1.349 . S
C799 C801 1.327 . S
C799 H822 0.950 . S
C800 C799 1.349 . S
C800 C812 1.349 . S
C801 C799 1.327 . S
C801 C817 1.429 . S
C801 H823 0.950 . S
C802 H798 0.949 . S
C802 C810 1.574 . S
C802 C818 1.368 1_545 S
H803 C811 0.950 . S
H804 C809 0.950 1_565 S
H805 C810 0.949 . S
H806 C812 0.950 . S
H807 C813 0.950 1_545 S
H808 C814 0.949 . S
C809 H804 0.950 1_545 S
C809 C811 1.327 . S
C809 C815 1.429 . S
C810 C802 1.574 . S
C810 H805 0.949 . S
C810 C816 1.368 . S
C811 C795 1.349 . S
C811 H803 0.950 . S
C811 C809 1.327 . S
C812 C800 1.349 . S
C812 H806 0.950 . S
C812 C813 1.327 . S
C813 H807 0.950 1_565 S
C813 C812 1.327 . S
C813 C817 1.429 . S
C814 C797 1.574 . S
C814 H808 0.949 . S
C814 C818 1.368 . S
C815 C796 1.429 . S
C815 C809 1.429 . S
C815 C816 1.523 . S
C816 C797 1.368 1_545 S
C816 C810 1.368 . S
C816 C815 1.523 . S
C817 C801 1.429 . S
C817 C813 1.429 . S
C817 C818 1.523 . S
C818 C802 1.368 1_565 S
C818 C814 1.368 . S
C818 C817 1.523 . S
H819 C794 0.950 . S
H820 C796 0.950 . S
H821 C797 0.949 . S
H822 C799 0.950 . S
H823 C801 0.950 . S
C824 C825 1.349 . S
C824 C826 1.327 . S
C824 H849 0.950 . S
C825 C824 1.349 . S
C825 C841 1.349 . S
C826 C824 1.327 . S
C826 C845 1.429 . S
C826 H850 0.950 . S
C827 C844 1.574 . S
C827 C846 1.368 . S
C827 H851 0.949 . S
H828 C832 0.949 . S
C829 C830 1.349 . S
C829 C831 1.327 . S
C829 H852 0.950 . S
C830 C829 1.349 . S
C830 C842 1.349 . S
C831 C829 1.327 . S
C831 C847 1.429 . S
C831 H853 0.950 . S
C832 H828 0.949 . S
C832 C840 1.574 . S
C832 C848 1.368 . S
H833 C841 0.950 . S
H834 C839 0.950 . S
H835 C840 0.949 . S
H836 C842 0.950 . S
H837 C843 0.950 . S
H838 C844 0.949 . S
C839 H834 0.950 . S
C839 C841 1.327 . S
C839 C845 1.429 . S
C840 C832 1.574 . S
C840 H835 0.949 . S
C840 C846 1.368 . S
C841 C825 1.349 . S
C841 H833 0.950 . S
C841 C839 1.327 . S
C842 C830 1.349 . S
C842 H836 0.950 . S
C842 C843 1.327 . S
C843 H837 0.950 . S
C843 C842 1.327 . S
C843 C847 1.429 . S
C844 C827 1.574 . S
C844 H838 0.949 . S
C844 C848 1.368 . S
C845 C826 1.429 . S
C845 C839 1.429 . S
C845 C846 1.523 . S
C846 C827 1.368 . S
C846 C840 1.368 . S
C846 C845 1.523 . S
C847 C831 1.429 . S
C847 C843 1.429 . S
C847 C848 1.523 . S
C848 C832 1.368 . S
C848 C844 1.368 . S
C848 C847 1.523 . S
H849 C824 0.950 . S
H850 C826 0.950 . S
H851 C827 0.949 . S
H852 C829 0.950 . S
H853 C831 0.950 . S
C854 C855 1.349 . S
C854 C856 1.327 . S
C854 H879 0.950 . S
C855 C854 1.349 . S
C855 C871 1.349 . S
C856 C854 1.327 . S
C856 C875 1.429 . S
C856 H880 0.950 . S
C857 C874 1.574 . S
C857 C876 1.368 . S
C857 H881 0.949 . S
H858 C862 0.949 . S
C859 C860 1.349 . S
C859 C861 1.327 . S
C859 H882 0.950 . S
C860 C859 1.349 . S
C860 C872 1.349 . S
C861 C859 1.327 . S
C861 C877 1.429 . S
C861 H883 0.950 . S
C862 H858 0.949 . S
C862 C870 1.574 . S
C862 C878 1.368 . S
H863 C871 0.950 . S
H864 C869 0.950 . S
H865 C870 0.949 . S
H866 C872 0.950 . S
H867 C873 0.950 . S
H868 C874 0.949 . S
C869 H864 0.950 . S
C869 C871 1.327 . S
C869 C875 1.429 . S
C870 C862 1.574 . S
C870 H865 0.949 . S
C870 C876 1.368 . S
C871 C855 1.349 . S
C871 H863 0.950 . S
C871 C869 1.327 . S
C872 C860 1.349 . S
C872 H866 0.950 . S
C872 C873 1.327 . S
C873 H867 0.950 . S
C873 C872 1.327 . S
C873 C877 1.429 . S
C874 C857 1.574 . S
C874 H868 0.949 . S
C874 C878 1.368 . S
C875 C856 1.429 . S
C875 C869 1.429 . S
C875 C876 1.523 . S
C876 C857 1.368 . S
C876 C870 1.368 . S
C876 C875 1.523 . S
C877 C861 1.429 . S
C877 C873 1.429 . S
C877 C878 1.523 . S
C878 C862 1.368 . S
C878 C874 1.368 . S
C878 C877 1.523 . S
H879 C854 0.950 . S
H880 C856 0.950 . S
H881 C857 0.949 . S
H882 C859 0.950 . S
H883 C861 0.950 . S
C884 C885 1.349 . S
C884 C886 1.327 . S
C884 H909 0.950 . S
C885 C884 1.349 . S
C885 C901 1.349 . S
C886 C884 1.327 . S
C886 C905 1.429 . S
C886 H910 0.950 . S
C887 C904 1.574 . S
C887 C906 1.368 . S
C887 H911 0.949 . S
H888 C892 0.949 . S
C889 C890 1.349 . S
C889 C891 1.327 . S
C889 H912 0.950 . S
C890 C889 1.349 . S
C890 C902 1.349 . S
C891 C889 1.327 . S
C891 C907 1.429 . S
C891 H913 0.950 . S
C892 H888 0.949 . S
C892 C900 1.574 . S
C892 C908 1.368 . S
H893 C901 0.950 . S
H894 C899 0.950 . S
H895 C900 0.949 . S
H896 C902 0.950 . S
H897 C903 0.950 . S
H898 C904 0.949 . S
C899 H894 0.950 . S
C899 C901 1.327 . S
C899 C905 1.429 . S
C900 C892 1.574 . S
C900 H895 0.949 . S
C900 C906 1.368 . S
C901 C885 1.349 . S
C901 H893 0.950 . S
C901 C899 1.327 . S
C902 C890 1.349 . S
C902 H896 0.950 . S
C902 C903 1.327 . S
C903 H897 0.950 . S
C903 C902 1.327 . S
C903 C907 1.429 . S
C904 C887 1.574 . S
C904 H898 0.949 . S
C904 C908 1.368 . S
C905 C886 1.429 . S
C905 C899 1.429 . S
C905 C906 1.523 . S
C906 C887 1.368 . S
C906 C900 1.368 . S
C906 C905 1.523 . S
C907 C891 1.429 . S
C907 C903 1.429 . S
C907 C908 1.523 . S
C908 C892 1.368 . S
C908 C904 1.368 . S
C908 C907 1.523 . S
H909 C884 0.950 . S
H910 C886 0.950 . S
H911 C887 0.949 . S
H912 C889 0.950 . S
H913 C891 0.950 . S
C914 C915 1.349 . S
C914 C916 1.327 . S
C914 H939 0.950 . S
C915 C914 1.349 . S
C915 C931 1.349 . S
C916 C914 1.327 . S
C916 C935 1.429 . S
C916 H940 0.950 . S
C917 C934 1.574 . S
C917 C936 1.368 . S
C917 H941 0.949 . S
H918 C922 0.949 . S
C919 C920 1.349 . S
C919 C921 1.327 . S
C919 H942 0.950 . S
C920 C919 1.349 . S
C920 C932 1.349 . S
C921 C919 1.327 . S
C921 C937 1.429 . S
C921 H943 0.950 . S
C922 H918 0.949 . S
C922 C930 1.574 . S
C922 C938 1.368 . S
H923 C931 0.950 . S
H924 C929 0.950 . S
H925 C930 0.949 . S
H926 C932 0.950 . S
H927 C933 0.950 . S
H928 C934 0.949 . S
C929 H924 0.950 . S
C929 C931 1.327 . S
C929 C935 1.429 . S
C930 C922 1.574 . S
C930 H925 0.949 . S
C930 C936 1.368 . S
C931 C915 1.349 . S
C931 H923 0.950 . S
C931 C929 1.327 . S
C932 C920 1.349 . S
C932 H926 0.950 . S
C932 C933 1.327 . S
C933 H927 0.950 . S
C933 C932 1.327 . S
C933 C937 1.429 . S
C934 C917 1.574 . S
C934 H928 0.949 . S
C934 C938 1.368 . S
C935 C916 1.429 . S
C935 C929 1.429 . S
C935 C936 1.523 . S
C936 C917 1.368 . S
C936 C930 1.368 . S
C936 C935 1.523 . S
C937 C921 1.429 . S
C937 C933 1.429 . S
C937 C938 1.523 . S
C938 C922 1.368 . S
C938 C934 1.368 . S
C938 C937 1.523 . S
H939 C914 0.950 . S
H940 C916 0.950 . S
H941 C917 0.949 . S
H942 C919 0.950 . S
H943 C921 0.950 . S
C944 C945 1.349 . S
C944 C946 1.327 . S
C944 H969 0.950 . S
C945 C944 1.349 . S
C945 C961 1.349 . S
C946 C944 1.327 . S
C946 C965 1.429 . S
C946 H970 0.950 . S
C947 C964 1.574 1_556 S
C947 C966 1.368 . S
C947 H971 0.949 . S
H948 C952 0.949 . S
C949 C950 1.349 . S
C949 C951 1.327 . S
C949 H972 0.950 . S
C950 C949 1.349 . S
C950 C962 1.349 . S
C951 C949 1.327 . S
C951 C967 1.429 . S
C951 H973 0.950 . S
C952 H948 0.949 . S
C952 C960 1.574 . S
C952 C968 1.368 . S
H953 C961 0.950 . S
H954 C959 0.950 . S
H955 C960 0.949 . S
H956 C962 0.950 . S
H957 C963 0.950 1_556 S
H958 C964 0.949 . S
C959 H954 0.950 . S
C959 C961 1.327 . S
C959 C965 1.429 . S
C960 C952 1.574 . S
C960 H955 0.949 . S
C960 C966 1.368 . S
C961 C945 1.349 . S
C961 H953 0.950 . S
C961 C959 1.327 . S
C962 C950 1.349 . S
C962 H956 0.950 . S
C962 C963 1.327 . S
C963 H957 0.950 1_554 S
C963 C962 1.327 . S
C963 C967 1.429 . S
C964 C947 1.574 1_554 S
C964 H958 0.949 . S
C964 C968 1.368 1_554 S
C965 C946 1.429 . S
C965 C959 1.429 . S
C965 C966 1.523 . S
C966 C947 1.368 . S
C966 C960 1.368 . S
C966 C965 1.523 . S
C967 C951 1.429 . S
C967 C963 1.429 . S
C967 C968 1.523 1_554 S
C968 C952 1.368 . S
C968 C964 1.368 1_556 S
C968 C967 1.523 1_556 S
H969 C944 0.950 . S
H970 C946 0.950 . S
H971 C947 0.949 . S
H972 C949 0.950 . S
H973 C951 0.950 . S
C974 C975 1.349 . S
C974 C976 1.327 . S
C974 H999 0.950 . S
C975 C974 1.349 . S
C975 C991 1.349 . S
C976 C974 1.327 . S
C976 C995 1.429 . S
C976 H1000 0.950 . S
C977 C994 1.574 . S
C977 C996 1.368 . S
C977 H1001 0.949 . S
H978 C982 0.949 . S
C979 C980 1.349 . S
C979 C981 1.327 . S
C979 H1002 0.950 . S
C980 C979 1.349 . S
C980 C992 1.349 . S
C981 C979 1.327 . S
C981 C997 1.429 . S
C981 H1003 0.950 . S
C982 H978 0.949 . S
C982 C990 1.574 1_554 S
C982 C998 1.368 . S
H983 C991 0.950 . S
H984 C989 0.950 1_554 S
H985 C990 0.949 . S
H986 C992 0.950 . S
H987 C993 0.950 . S
H988 C994 0.949 . S
C989 H984 0.950 1_556 S
C989 C991 1.327 . S
C989 C995 1.429 . S
C990 C982 1.574 1_556 S
C990 H985 0.949 . S
C990 C996 1.368 1_556 S
C991 C975 1.349 . S
C991 H983 0.950 . S
C991 C989 1.327 . S
C992 C980 1.349 . S
C992 H986 0.950 . S
C992 C993 1.327 . S
C993 H987 0.950 . S
C993 C992 1.327 . S
C993 C997 1.429 . S
C994 C977 1.574 . S
C994 H988 0.949 . S
C994 C998 1.368 . S
C995 C976 1.429 . S
C995 C989 1.429 . S
C995 C996 1.523 1_556 S
C996 C977 1.368 . S
C996 C990 1.368 1_554 S
C996 C995 1.523 1_554 S
C997 C981 1.429 . S
C997 C993 1.429 . S
C997 C998 1.523 . S
C998 C982 1.368 . S
C998 C994 1.368 . S
C998 C997 1.523 . S
H999 C974 0.950 . S
H1000 C976 0.950 . S
H1001 C977 0.949 . S
H1002 C979 0.950 . S
H1003 C981 0.950 . S
C1004 C1005 1.349 . S
C1004 C1006 1.327 . S
C1004 H1029 0.950 . S
C1005 C1004 1.349 . S
C1005 C1021 1.349 . S
C1006 C1004 1.327 . S
C1006 C1025 1.429 . S
C1006 H1030 0.950 . S
C1007 C1024 1.574 . S
C1007 C1026 1.368 . S
C1007 H1031 0.949 . S
H1008 C1012 0.949 . S
C1009 C1010 1.349 . S
C1009 C1011 1.327 . S
C1009 H1032 0.950 . S
C1010 C1009 1.349 . S
C1010 C1022 1.349 . S
C1011 C1009 1.327 . S
C1011 C1027 1.429 . S
C1011 H1033 0.950 . S
C1012 H1008 0.949 . S
C1012 C1020 1.574 1_556 S
C1012 C1028 1.368 . S
H1013 C1021 0.950 . S
H1014 C1019 0.950 1_556 S
H1015 C1020 0.949 . S
H1016 C1022 0.950 . S
H1017 C1023 0.950 . S
H1018 C1024 0.949 . S
C1019 H1014 0.950 1_554 S
C1019 C1021 1.327 . S
C1019 C1025 1.429 . S
C1020 C1012 1.574 1_554 S
C1020 H1015 0.949 . S
C1020 C1026 1.368 1_554 S
C1021 C1005 1.349 . S
C1021 H1013 0.950 . S
C1021 C1019 1.327 . S
C1022 C1010 1.349 . S
C1022 H1016 0.950 . S
C1022 C1023 1.327 . S
C1023 H1017 0.950 . S
C1023 C1022 1.327 . S
C1023 C1027 1.429 . S
C1024 C1007 1.574 . S
C1024 H1018 0.949 . S
C1024 C1028 1.368 . S
C1025 C1006 1.429 . S
C1025 C1019 1.429 . S
C1025 C1026 1.523 1_554 S
C1026 C1007 1.368 . S
C1026 C1020 1.368 1_556 S
C1026 C1025 1.523 1_556 S
C1027 C1011 1.429 . S
C1027 C1023 1.429 . S
C1027 C1028 1.523 . S
C1028 C1012 1.368 . S
C1028 C1024 1.368 . S
C1028 C1027 1.523 . S
H1029 C1004 0.950 . S
H1030 C1006 0.950 . S
H1031 C1007 0.949 . S
H1032 C1009 0.950 . S
H1033 C1011 0.950 . S
C1034 C1035 1.349 . S
C1034 C1036 1.327 . S
C1034 H1059 0.950 . S
C1035 C1034 1.349 . S
C1035 C1051 1.349 . S
C1036 C1034 1.327 . S
C1036 C1055 1.429 . S
C1036 H1060 0.950 . S
C1037 C1054 1.574 . S
C1037 C1056 1.368 . S
C1037 H1061 0.949 . S
H1038 C1042 0.949 . S
C1039 C1040 1.349 . S
C1039 C1041 1.327 . S
C1039 H1062 0.950 . S
C1040 C1039 1.349 . S
C1040 C1052 1.349 . S
C1041 C1039 1.327 . S
C1041 C1057 1.429 . S
C1041 H1063 0.950 . S
C1042 H1038 0.949 . S
C1042 C1050 1.574 . S
C1042 C1058 1.368 . S
H1043 C1051 0.950 . S
H1044 C1049 0.950 . S
H1045 C1050 0.949 . S
H1046 C1052 0.950 . S
H1047 C1053 0.950 . S
H1048 C1054 0.949 . S
C1049 H1044 0.950 . S
C1049 C1051 1.327 . S
C1049 C1055 1.429 . S
C1050 C1042 1.574 . S
C1050 H1045 0.949 . S
C1050 C1056 1.368 . S
C1051 C1035 1.349 . S
C1051 H1043 0.950 . S
C1051 C1049 1.327 . S
C1052 C1040 1.349 . S
C1052 H1046 0.950 . S
C1052 C1053 1.327 . S
C1053 H1047 0.950 . S
C1053 C1052 1.327 . S
C1053 C1057 1.429 . S
C1054 C1037 1.574 . S
C1054 H1048 0.949 . S
C1054 C1058 1.368 . S
C1055 C1036 1.429 . S
C1055 C1049 1.429 . S
C1055 C1056 1.523 1_556 S
C1056 C1037 1.368 . S
C1056 C1050 1.368 . S
C1056 C1055 1.523 1_554 S
C1057 C1041 1.429 . S
C1057 C1053 1.429 . S
C1057 C1058 1.523 . S
C1058 C1042 1.368 . S
C1058 C1054 1.368 . S
C1058 C1057 1.523 . S
H1059 C1034 0.950 . S
H1060 C1036 0.950 . S
H1061 C1037 0.949 . S
H1062 C1039 0.950 . S
H1063 C1041 0.950 . S
C1064 C1065 1.349 . S
C1064 C1066 1.327 . S
C1064 H1089 0.950 . S
C1065 C1064 1.349 . S
C1065 C1081 1.349 . S
C1066 C1064 1.327 . S
C1066 C1085 1.429 . S
C1066 H1090 0.950 . S
C1067 C1084 1.574 . S
C1067 C1086 1.368 . S
C1067 H1091 0.949 . S
H1068 C1072 0.949 . S
C1069 C1070 1.349 . S
C1069 C1071 1.327 . S
C1069 H1092 0.950 . S
C1070 C1069 1.349 . S
C1070 C1082 1.349 . S
C1071 C1069 1.327 . S
C1071 C1087 1.429 . S
C1071 H1093 0.950 . S
C1072 H1068 0.949 . S
C1072 C1080 1.574 . S
C1072 C1088 1.368 . S
H1073 C1081 0.950 . S
H1074 C1079 0.950 . S
H1075 C1080 0.949 . S
H1076 C1082 0.950 . S
H1077 C1083 0.950 . S
H1078 C1084 0.949 . S
C1079 H1074 0.950 . S
C1079 C1081 1.327 . S
C1079 C1085 1.429 . S
C1080 C1072 1.574 . S
C1080 H1075 0.949 . S
C1080 C1086 1.368 . S
C1081 C1065 1.349 . S
C1081 H1073 0.950 . S
C1081 C1079 1.327 . S
C1082 C1070 1.349 . S
C1082 H1076 0.950 . S
C1082 C1083 1.327 . S
C1083 H1077 0.950 . S
C1083 C1082 1.327 . S
C1083 C1087 1.429 . S
C1084 C1067 1.574 . S
C1084 H1078 0.949 . S
C1084 C1088 1.368 . S
C1085 C1066 1.429 . S
C1085 C1079 1.429 . S
C1085 C1086 1.523 . S
C1086 C1067 1.368 . S
C1086 C1080 1.368 . S
C1086 C1085 1.523 . S
C1087 C1071 1.429 . S
C1087 C1083 1.429 . S
C1087 C1088 1.523 . S
C1088 C1072 1.368 . S
C1088 C1084 1.368 . S
C1088 C1087 1.523 . S
H1089 C1064 0.950 . S
H1090 C1066 0.950 . S
H1091 C1067 0.949 . S
H1092 C1069 0.950 . S
H1093 C1071 0.950 . S
C1094 C1095 1.349 . S
C1094 C1096 1.327 . S
C1094 H1119 0.950 . S
C1095 C1094 1.349 . S
C1095 C1111 1.349 . S
C1096 C1094 1.327 . S
C1096 C1115 1.429 . S
C1096 H1120 0.950 . S
C1097 C1114 1.574 . S
C1097 C1116 1.368 . S
C1097 H1121 0.949 . S
H1098 C1102 0.949 . S
C1099 C1100 1.349 . S
C1099 C1101 1.327 . S
C1099 H1122 0.950 . S
C1100 C1099 1.349 . S
C1100 C1112 1.349 . S
C1101 C1099 1.327 . S
C1101 C1117 1.429 . S
C1101 H1123 0.950 . S
C1102 H1098 0.949 . S
C1102 C1110 1.574 . S
C1102 C1118 1.368 . S
H1103 C1111 0.950 . S
H1104 C1109 0.950 . S
H1105 C1110 0.949 . S
H1106 C1112 0.950 . S
H1107 C1113 0.950 . S
H1108 C1114 0.949 . S
C1109 H1104 0.950 . S
C1109 C1111 1.327 . S
C1109 C1115 1.429 . S
C1110 C1102 1.574 . S
C1110 H1105 0.949 . S
C1110 C1116 1.368 . S
C1111 C1095 1.349 . S
C1111 H1103 0.950 . S
C1111 C1109 1.327 . S
C1112 C1100 1.349 . S
C1112 H1106 0.950 . S
C1112 C1113 1.327 . S
C1113 H1107 0.950 . S
C1113 C1112 1.327 . S
C1113 C1117 1.429 . S
C1114 C1097 1.574 . S
C1114 H1108 0.949 . S
C1114 C1118 1.368 . S
C1115 C1096 1.429 . S
C1115 C1109 1.429 . S
C1115 C1116 1.523 . S
C1116 C1097 1.368 . S
C1116 C1110 1.368 . S
C1116 C1115 1.523 . S
C1117 C1101 1.429 . S
C1117 C1113 1.429 . S
C1117 C1118 1.523 . S
C1118 C1102 1.368 . S
C1118 C1114 1.368 . S
C1118 C1117 1.523 . S
H1119 C1094 0.950 . S
H1120 C1096 0.950 . S
H1121 C1097 0.949 . S
H1122 C1099 0.950 . S
H1123 C1101 0.950 . S
C1124 C1125 1.349 . S
C1124 C1126 1.327 . S
C1124 H1149 0.950 . S
C1125 C1124 1.349 . S
C1125 C1141 1.349 . S
C1126 C1124 1.327 . S
C1126 C1145 1.429 . S
C1126 H1150 0.950 . S
C1127 C1144 1.574 . S
C1127 C1146 1.368 . S
C1127 H1151 0.949 . S
H1128 C1132 0.949 . S
C1129 C1130 1.349 . S
C1129 C1131 1.327 . S
C1129 H1152 0.950 . S
C1130 C1129 1.349 . S
C1130 C1142 1.349 . S
C1131 C1129 1.327 . S
C1131 C1147 1.429 . S
C1131 H1153 0.950 . S
C1132 H1128 0.949 . S
C1132 C1140 1.574 . S
C1132 C1148 1.368 . S
H1133 C1141 0.950 . S
H1134 C1139 0.950 . S
H1135 C1140 0.949 . S
H1136 C1142 0.950 . S
H1137 C1143 0.950 . S
H1138 C1144 0.949 . S
C1139 H1134 0.950 . S
C1139 C1141 1.327 . S
C1139 C1145 1.429 . S
C1140 C1132 1.574 . S
C1140 H1135 0.949 . S
C1140 C1146 1.368 . S
C1141 C1125 1.349 . S
C1141 H1133 0.950 . S
C1141 C1139 1.327 . S
C1142 C1130 1.349 . S
C1142 H1136 0.950 . S
C1142 C1143 1.327 . S
C1143 H1137 0.950 . S
C1143 C1142 1.327 . S
C1143 C1147 1.429 . S
C1144 C1127 1.574 . S
C1144 H1138 0.949 . S
C1144 C1148 1.368 . S
C1145 C1126 1.429 . S
C1145 C1139 1.429 . S
C1145 C1146 1.523 . S
C1146 C1127 1.368 . S
C1146 C1140 1.368 . S
C1146 C1145 1.523 . S
C1147 C1131 1.429 . S
C1147 C1143 1.429 . S
C1147 C1148 1.523 . S
C1148 C1132 1.368 . S
C1148 C1144 1.368 . S
C1148 C1147 1.523 . S
H1149 C1124 0.950 . S
H1150 C1126 0.950 . S
H1151 C1127 0.949 . S
H1152 C1129 0.950 . S
H1153 C1131 0.950 . S
C1154 C1155 1.349 . S
C1154 C1156 1.327 . S
C1154 H1179 0.950 . S
C1155 C1154 1.349 . S
C1155 C1171 1.349 . S
C1156 C1154 1.327 . S
C1156 C1175 1.429 . S
C1156 H1180 0.950 . S
C1157 C1174 1.574 . S
C1157 C1176 1.368 . S
C1157 H1181 0.949 . S
H1158 C1162 0.949 . S
C1159 C1160 1.349 . S
C1159 C1161 1.327 . S
C1159 H1182 0.950 . S
C1160 C1159 1.349 . S
C1160 C1172 1.349 . S
C1161 C1159 1.327 . S
C1161 C1177 1.429 . S
C1161 H1183 0.950 . S
C1162 H1158 0.949 . S
C1162 C1170 1.574 . S
C1162 C1178 1.368 . S
H1163 C1171 0.950 . S
H1164 C1169 0.950 . S
H1165 C1170 0.949 . S
H1166 C1172 0.950 . S
H1167 C1173 0.950 . S
H1168 C1174 0.949 . S
C1169 H1164 0.950 . S
C1169 C1171 1.327 . S
C1169 C1175 1.429 . S
C1170 C1162 1.574 . S
C1170 H1165 0.949 . S
C1170 C1176 1.368 . S
C1171 C1155 1.349 . S
C1171 H1163 0.950 . S
C1171 C1169 1.327 . S
C1172 C1160 1.349 . S
C1172 H1166 0.950 . S
C1172 C1173 1.327 . S
C1173 H1167 0.950 . S
C1173 C1172 1.327 . S
C1173 C1177 1.429 . S
C1174 C1157 1.574 . S
C1174 H1168 0.949 . S
C1174 C1178 1.368 . S
C1175 C1156 1.429 . S
C1175 C1169 1.429 . S
C1175 C1176 1.523 . S
C1176 C1157 1.368 . S
C1176 C1170 1.368 . S
C1176 C1175 1.523 . S
C1177 C1161 1.429 . S
C1177 C1173 1.429 . S
C1177 C1178 1.523 . S
C1178 C1162 1.368 . S
C1178 C1174 1.368 . S
C1178 C1177 1.523 . S
H1179 C1154 0.950 . S
H1180 C1156 0.950 . S
H1181 C1157 0.949 . S
H1182 C1159 0.950 . S
H1183 C1161 0.950 . S
C705 C205 1.006 . S
C710 C29 1.006 . S
C735 C321 0.996 . S
C740 C117 0.996 . S
C765 C401 0.996 . S
C770 C557 0.996 . S
C795 C489 1.006 . S
C800 C673 1.006 . S
C825 C108 0.451 . S
C830 C57 0.458 . S
C855 C145 0.445 . S
C860 C225 0.449 . S
C885 C313 0.451 . S
C890 C233 0.458 . S
C915 C293 0.445 . S
C920 C49 0.449 . S
C945 C636 0.449 . S
C950 C372 0.445 . S
C975 C460 0.458 . S
C980 C409 0.451 . S
C1005 C585 0.445 . S
C1010 C469 0.449 . S
C1035 C645 0.458 . S
C1040 C548 0.451 . S
C1065 C20 2.096 . S
C1070 C497 2.096 . S
C1095 C577 2.097 . S
C1100 C137 2.097 . S
C1125 C196 2.096 . S
C1130 C665 2.096 . S
C1155 C284 2.097 . S
C1160 C381 2.097 . S
