# Generated by pormake.
# Topology qtz-f, (3)-cn, num edge types: 1
# Building blocks:
#     Node 0, Type 0, BuildingBlock: WUSLED_clean_sbu_0, # of connection points: 3
#     Node 1, Type 0, BuildingBlock: WUSLED_clean_sbu_0, # of connection points: 3
#     Node 2, Type 0, BuildingBlock: WUSLED_clean_sbu_0, # of connection points: 3
#     Node 3, Type 0, BuildingBlock: WUSLED_clean_sbu_0, # of connection points: 3
#     Node 4, Type 0, BuildingBlock: WUSLED_clean_sbu_0, # of connection points: 3
#     Node 5, Type 0, BuildingBlock: WUSLED_clean_sbu_0, # of connection points: 3
#     Node 6, Type 0, BuildingBlock: WUSLED_clean_sbu_0, # of connection points: 3
#     Node 7, Type 0, BuildingBlock: WUSLED_clean_sbu_0, # of connection points: 3
#     Node 8, Type 0, BuildingBlock: WUSLED_clean_sbu_0, # of connection points: 3
#     Node 9, Type 0, BuildingBlock: WUSLED_clean_sbu_0, # of connection points: 3
#     Node 10, Type 0, BuildingBlock: WUSLED_clean_sbu_0, # of connection points: 3
#     Node 11, Type 0, BuildingBlock: WUSLED_clean_sbu_0, # of connection points: 3
#     Edge 12, Type (0, 0), BuildingBlock: MIFKUJ_clean_linker_0, # of connection points: 2
#     Edge 13, Type (0, 0), BuildingBlock: MIFKUJ_clean_linker_0, # of connection points: 2
#     Edge 14, Type (0, 0), BuildingBlock: MIFKUJ_clean_linker_0, # of connection points: 2
#     Edge 15, Type (0, 0), BuildingBlock: MIFKUJ_clean_linker_0, # of connection points: 2
#     Edge 16, Type (0, 0), BuildingBlock: MIFKUJ_clean_linker_0, # of connection points: 2
#     Edge 17, Type (0, 0), BuildingBlock: MIFKUJ_clean_linker_0, # of connection points: 2
#     Edge 18, Type (0, 0), BuildingBlock: MIFKUJ_clean_linker_0, # of connection points: 2
#     Edge 19, Type (0, 0), BuildingBlock: MIFKUJ_clean_linker_0, # of connection points: 2
#     Edge 20, Type (0, 0), BuildingBlock: MIFKUJ_clean_linker_0, # of connection points: 2
#     Edge 21, Type (0, 0), BuildingBlock: MIFKUJ_clean_linker_0, # of connection points: 2
#     Edge 22, Type (0, 0), BuildingBlock: MIFKUJ_clean_linker_0, # of connection points: 2
#     Edge 23, Type (0, 0), BuildingBlock: MIFKUJ_clean_linker_0, # of connection points: 2
#     Edge 24, Type (0, 0), BuildingBlock: MIFKUJ_clean_linker_0, # of connection points: 2
#     Edge 25, Type (0, 0), BuildingBlock: MIFKUJ_clean_linker_0, # of connection points: 2
#     Edge 26, Type (0, 0), BuildingBlock: MIFKUJ_clean_linker_0, # of connection points: 2
#     Edge 27, Type (0, 0), BuildingBlock: MIFKUJ_clean_linker_0, # of connection points: 2
#     Edge 28, Type (0, 0), BuildingBlock: MIFKUJ_clean_linker_0, # of connection points: 2
#     Edge 29, Type (0, 0), BuildingBlock: MIFKUJ_clean_linker_0, # of connection points: 2
# Relax obj value: 0.121
# Max RMSD: 0.087
# Mean RMSD: 0.087
data_MOF--net-qtz-f--node1-WUSLED_clean_sbu_0--edge1-MIFKUJ_clean_linker_0
_symmetry_space_group_name_H-M    P1
_symmetry_Int_Tables_number       1
_symmetry_cell_setting            triclinic
loop_
_symmetry_equiv_pos_as_xyz
'x, y, z'
_cell_length_a     108.59849
_cell_length_b     108.81392
_cell_length_c     65.575047
_cell_angle_alpha  89.490341
_cell_angle_beta   90.259725
_cell_angle_gamma 120.23997
loop_
_atom_site_label
_atom_site_type_symbol
_atom_site_fract_x
_atom_site_fract_y
_atom_site_fract_z
_atom_type_partial_charge
C0 C 0.15103 0.43993 0.16467 0.0
C1 C 0.14333 0.44349 0.17813 0.0
C2 C 0.12209 0.42045 0.17262 0.0
C3 C 0.12899 0.43381 0.18213 0.0
C4 C 0.12998 0.41681 0.15955 0.0
C5 C 0.14435 0.42649 0.15561 0.0
U6 U 0.18083 0.47822 0.16344 0.0
O7 O 0.20413 0.48791 0.16522 0.0
O8 O 0.19428 0.49116 0.13793 0.0
C9 C 0.206 0.49282 0.14641 0.0
C10 C 0.16558 0.45061 0.15866 0.0
C11 C 0.21456 0.48918 0.13326 0.0
C12 C 0.21858 0.47157 0.11691 0.0
C13 C 0.21087 0.47496 0.13051 0.0
C14 C 0.23374 0.49661 0.10883 0.0
C15 C 0.23004 0.48236 0.10579 0.0
C16 C 0.22606 0.49997 0.12246 0.0
C17 C 0.17519 0.5065 0.18784 0.0
C18 C 0.18913 0.53144 0.17818 0.0
C19 C 0.1725 0.52418 0.20639 0.0
C20 C 0.16888 0.51004 0.20355 0.0
C21 C 0.18243 0.53502 0.19343 0.0
C22 C 0.18557 0.51731 0.17545 0.0
C23 C 0.17032 0.49149 0.18374 0.0
O24 O 0.16624 0.45981 0.14498 0.0
O25 O 0.17474 0.45656 0.17366 0.0
O26 O 0.17768 0.48633 0.19249 0.0
O27 O 0.16727 0.48779 0.16454 0.0
H28 H 0.14831 0.45392 0.18506 0.0
H29 H 0.12317 0.43701 0.19205 0.0
H30 H 0.12499 0.40654 0.15217 0.0
H31 H 0.15014 0.42363 0.14509 0.0
H32 H 0.21555 0.46052 0.11509 0.0
H33 H 0.20193 0.46648 0.13868 0.0
H34 H 0.24233 0.50515 0.10026 0.0
H35 H 0.22893 0.51099 0.12428 0.0
H36 H 0.1967 0.53946 0.16779 0.0
H37 H 0.16734 0.5266 0.21852 0.0
H38 H 0.16092 0.50183 0.21332 0.0
H39 H 0.1906 0.51475 0.16326 0.0
C40 C 0.73823 0.1347 0.50183 0.0
C41 C 0.72369 0.12619 0.50642 0.0
C42 C 0.7263 0.10532 0.50874 0.0
C43 C 0.71776 0.11161 0.50975 0.0
C44 C 0.74097 0.11396 0.50494 0.0
C45 C 0.74689 0.12856 0.50139 0.0
U46 U 0.73491 0.16763 0.5012 0.0
O47 O 0.75118 0.19039 0.5032 0.0
O48 O 0.73745 0.18218 0.47616 0.0
C49 C 0.74864 0.193 0.4845 0.0
C50 C 0.74415 0.14975 0.49644 0.0
C51 C 0.76109 0.2003 0.47103 0.0
C52 C 0.77578 0.19944 0.44393 0.0
C53 C 0.76497 0.19247 0.45836 0.0
C54 C 0.77953 0.22217 0.45553 0.0
C55 C 0.78298 0.21433 0.44214 0.0
C56 C 0.7686 0.21518 0.46982 0.0
C57 C 0.7021 0.16594 0.52396 0.0
C58 C 0.69552 0.1835 0.51459 0.0
C59 C 0.68046 0.16405 0.53744 0.0
C60 C 0.68994 0.15894 0.53624 0.0
C61 C 0.68298 0.17619 0.52623 0.0
C62 C 0.70503 0.17843 0.5135 0.0
C63 C 0.71093 0.15946 0.52061 0.0
O64 O 0.73689 0.15213 0.48245 0.0
O65 O 0.748 0.15859 0.51186 0.0
O66 O 0.7234 0.16559 0.52979 0.0
O67 O 0.71156 0.15629 0.5015 0.0
H68 H 0.71686 0.13079 0.50696 0.0
H69 H 0.70645 0.10522 0.51293 0.0
H70 H 0.74776 0.10934 0.50402 0.0
H71 H 0.75813 0.135 0.49787 0.0
H72 H 0.77834 0.19318 0.43391 0.0
H73 H 0.75935 0.18096 0.4592 0.0
H74 H 0.78485 0.23366 0.45434 0.0
H75 H 0.76572 0.22137 0.4795 0.0
H76 H 0.6978 0.19296 0.50597 0.0
H77 H 0.67081 0.1581 0.54635 0.0
H78 H 0.6875 0.14925 0.54432 0.0
H79 H 0.71441 0.18396 0.50394 0.0
C80 C 0.63659 0.72596 0.83829 0.0
C81 C 0.63252 0.714 0.85081 0.0
C82 C 0.65519 0.7153 0.84422 0.0
C83 C 0.64177 0.70874 0.85381 0.0
C84 C 0.65938 0.72759 0.83229 0.0
C85 C 0.65014 0.73286 0.82934 0.0
U86 U 0.5987 0.719 0.8378 0.0
O87 O 0.59045 0.73381 0.8391 0.0
O88 O 0.5861 0.72015 0.81243 0.0
C89 C 0.58546 0.73085 0.82037 0.0
C90 C 0.62628 0.73036 0.8328 0.0
C91 C 0.59011 0.74309 0.80661 0.0
C92 C 0.60705 0.75959 0.78187 0.0
C93 C 0.60332 0.74899 0.79666 0.0
C94 C 0.58473 0.75902 0.78759 0.0
C95 C 0.59769 0.76454 0.77695 0.0
C96 C 0.58094 0.74832 0.80227 0.0
C97 C 0.56878 0.68535 0.86117 0.0
C98 C 0.54427 0.67721 0.85147 0.0
C99 C 0.5496 0.6634 0.87539 0.0
C100 C 0.56412 0.67349 0.87403 0.0
C101 C 0.53956 0.665 0.86376 0.0
C102 C 0.55877 0.68733 0.85023 0.0
C103 C 0.58409 0.69496 0.85785 0.0
O104 O 0.61684 0.72222 0.81919 0.0
O105 O 0.62065 0.73363 0.84807 0.0
O106 O 0.58968 0.70745 0.86669 0.0
O107 O 0.58814 0.69574 0.83881 0.0
H108 H 0.62201 0.70845 0.85764 0.0
H109 H 0.63815 0.69915 0.86285 0.0
H110 H 0.6697 0.73294 0.82487 0.0
H111 H 0.65339 0.74207 0.81955 0.0
H112 H 0.61716 0.76376 0.77403 0.0
H113 H 0.61055 0.74509 0.79992 0.0
H114 H 0.57726 0.76256 0.78395 0.0
H115 H 0.57069 0.74384 0.8098 0.0
H116 H 0.53677 0.67879 0.84252 0.0
H117 H 0.5463 0.65403 0.88483 0.0
H118 H 0.57173 0.67179 0.88249 0.0
H119 H 0.56222 0.69647 0.84024 0.0
C120 C 0.93821 0.61913 0.16814 0.0
C121 C 0.94524 0.61501 0.18223 0.0
C122 C 0.96717 0.63763 0.17731 0.0
C123 C 0.95958 0.6242 0.18683 0.0
C124 C 0.95993 0.64188 0.16371 0.0
C125 C 0.94556 0.63267 0.15913 0.0
U126 U 0.90817 0.58113 0.16531 0.0
O127 O 0.88485 0.57159 0.16593 0.0
O128 O 0.89528 0.56882 0.13918 0.0
C129 C 0.88341 0.56713 0.14702 0.0
C130 C 0.92375 0.60884 0.16136 0.0
C131 C 0.87543 0.57138 0.13344 0.0
C132 C 0.87327 0.58977 0.11541 0.0
C133 C 0.88034 0.58581 0.12952 0.0
C134 C 0.85622 0.56491 0.10925 0.0
C135 C 0.86121 0.57936 0.10495 0.0
C136 C 0.8633 0.56096 0.12338 0.0
C137 C 0.91339 0.55231 0.18984 0.0
C138 C 0.89863 0.52745 0.18071 0.0
C139 C 0.91746 0.53447 0.20574 0.0
C140 C 0.92088 0.54863 0.20366 0.0
C141 C 0.90653 0.52376 0.19391 0.0
C142 C 0.90204 0.54162 0.17869 0.0
C143 C 0.91821 0.56736 0.18599 0.0
O144 O 0.92324 0.59992 0.14756 0.0
O145 O 0.9142 0.6026 0.17589 0.0
O146 O 0.91059 0.57226 0.19441 0.0
O147 O 0.92162 0.57145 0.16693 0.0
H148 H 0.93974 0.60453 0.18922 0.0
H149 H 0.96479 0.6207 0.19759 0.0
H150 H 0.96551 0.65209 0.15596 0.0
H151 H 0.9403 0.63593 0.14806 0.0
H152 H 0.87727 0.60098 0.11262 0.0
H153 H 0.88976 0.59398 0.13714 0.0
H154 H 0.8471 0.55663 0.10126 0.0
H155 H 0.85946 0.54977 0.12614 0.0
H156 H 0.89025 0.51949 0.17126 0.0
H157 H 0.92358 0.53195 0.2163 0.0
H158 H 0.92964 0.55676 0.21241 0.0
H159 H 0.89615 0.54431 0.16792 0.0
C160 C 0.34809 0.92457 0.50002 0.0
C161 C 0.36194 0.93297 0.50764 0.0
C162 C 0.35845 0.95333 0.50967 0.0
C163 C 0.36709 0.94722 0.51235 0.0
C164 C 0.34444 0.94476 0.5024 0.0
C165 C 0.33931 0.93048 0.49758 0.0
U166 U 0.35403 0.89336 0.49828 0.0
O167 O 0.33909 0.87024 0.50034 0.0
O168 O 0.35242 0.87954 0.47309 0.0
C169 C 0.34191 0.86812 0.48165 0.0
C170 C 0.34307 0.90987 0.49388 0.0
C171 C 0.32955 0.85968 0.46845 0.0
C172 C 0.31424 0.8581 0.44027 0.0
C173 C 0.32497 0.86627 0.45426 0.0
C174 C 0.31199 0.83663 0.45529 0.0
C175 C 0.30783 0.84318 0.44034 0.0
C176 C 0.3228 0.84482 0.46915 0.0
C177 C 0.38746 0.89663 0.52135 0.0
C178 C 0.39394 0.87885 0.51361 0.0
C179 C 0.40983 0.89949 0.53366 0.0
C180 C 0.40016 0.90437 0.5323 0.0
C181 C 0.40695 0.88682 0.52397 0.0
C182 C 0.38426 0.88372 0.51233 0.0
C183 C 0.37814 0.9026 0.51795 0.0
O184 O 0.35096 0.90856 0.47991 0.0
O185 O 0.33957 0.90063 0.50893 0.0
O186 O 0.36565 0.89585 0.52701 0.0
O187 O 0.37739 0.90587 0.49883 0.0
H188 H 0.36887 0.92855 0.50955 0.0
H189 H 0.378 0.95353 0.51755 0.0
H190 H 0.33745 0.94908 0.50039 0.0
H191 H 0.32857 0.92411 0.49173 0.0
H192 H 0.3114 0.86351 0.42888 0.0
H193 H 0.33002 0.87776 0.45355 0.0
H194 H 0.30708 0.82516 0.45604 0.0
H195 H 0.32614 0.83956 0.48011 0.0
H196 H 0.39138 0.86899 0.50617 0.0
H197 H 0.41983 0.90595 0.54154 0.0
H198 H 0.4028 0.91441 0.53924 0.0
H199 H 0.37447 0.87762 0.50379 0.0
C200 C 0.45357 0.33569 0.83091 0.0
C201 C 0.458 0.347 0.84455 0.0
C202 C 0.4353 0.34614 0.84053 0.0
C203 C 0.44893 0.35216 0.84937 0.0
C204 C 0.43073 0.33447 0.8274 0.0
C205 C 0.43983 0.32931 0.82259 0.0
U206 U 0.49134 0.34308 0.82849 0.0
O207 O 0.50035 0.32894 0.82846 0.0
O208 O 0.504 0.34321 0.80241 0.0
C209 C 0.50532 0.33267 0.80979 0.0
C210 C 0.46371 0.33148 0.82392 0.0
C211 C 0.50144 0.321 0.79549 0.0
C212 C 0.48354 0.30009 0.77765 0.0
C213 C 0.48715 0.31045 0.79258 0.0
C214 C 0.50849 0.31068 0.76859 0.0
C215 C 0.49416 0.30024 0.76529 0.0
C216 C 0.51209 0.32097 0.78358 0.0
C217 C 0.52053 0.37587 0.85443 0.0
C218 C 0.5454 0.38517 0.84574 0.0
C219 C 0.53902 0.39637 0.8722 0.0
C220 C 0.52461 0.38638 0.86927 0.0
C221 C 0.54957 0.39603 0.86022 0.0
C222 C 0.531 0.37515 0.84291 0.0
C223 C 0.50536 0.3662 0.85025 0.0
O224 O 0.473 0.34028 0.81054 0.0
O225 O 0.46951 0.32753 0.8383 0.0
O226 O 0.49986 0.35334 0.85811 0.0
O227 O 0.50159 0.36625 0.8312 0.0
H228 H 0.46863 0.35209 0.85103 0.0
H229 H 0.45268 0.36102 0.85975 0.0
H230 H 0.42034 0.3297 0.82021 0.0
H231 H 0.43632 0.32065 0.81188 0.0
H232 H 0.47241 0.29224 0.77532 0.0
H233 H 0.47878 0.31044 0.80154 0.0
H234 H 0.51691 0.31094 0.75947 0.0
H235 H 0.52316 0.32907 0.78561 0.0
H236 H 0.55321 0.38468 0.8361 0.0
H237 H 0.54188 0.40444 0.88372 0.0
H238 H 0.51665 0.38703 0.87834 0.0
H239 H 0.528 0.36708 0.83135 0.0
C240 C 0.63366 0.92451 0.54154 0.0
C241 C 0.62794 0.93278 0.53447 0.0
C242 C 0.6518 0.95338 0.53136 0.0
C243 C 0.63691 0.94709 0.52951 0.0
C244 C 0.65748 0.94489 0.53789 0.0
C245 C 0.64846 0.93056 0.54299 0.0
U246 U 0.59665 0.89241 0.54473 0.0
O247 O 0.58922 0.86944 0.54465 0.0
O248 O 0.58474 0.87905 0.57083 0.0
C249 C 0.58447 0.86772 0.56347 0.0
C250 C 0.62415 0.90982 0.54837 0.0
C251 C 0.58949 0.86061 0.57757 0.0
C252 C 0.60492 0.86175 0.6053 0.0
C253 C 0.60105 0.86859 0.59066 0.0
C254 C 0.58626 0.83887 0.59316 0.0
C255 C 0.59742 0.84684 0.60688 0.0
C256 C 0.58228 0.84573 0.57866 0.0
C257 C 0.56575 0.89413 0.52072 0.0
C258 C 0.54137 0.87817 0.53156 0.0
C259 C 0.54625 0.89517 0.50423 0.0
C260 C 0.56082 0.90003 0.50599 0.0
C261 C 0.53641 0.88441 0.51732 0.0
C262 C 0.55593 0.88296 0.53319 0.0
C263 C 0.58112 0.90037 0.52403 0.0
O264 O 0.61484 0.90842 0.56226 0.0
O265 O 0.61857 0.90029 0.53383 0.0
O266 O 0.587 0.89363 0.51567 0.0
O267 O 0.58526 0.90424 0.54292 0.0
H268 H 0.6165 0.92825 0.53329 0.0
H269 H 0.63212 0.95332 0.52487 0.0
H270 H 0.66889 0.94933 0.53919 0.0
H271 H 0.65303 0.92428 0.54838 0.0
H272 H 0.61365 0.86812 0.61557 0.0
H273 H 0.60686 0.8801 0.58991 0.0
H274 H 0.58025 0.82737 0.59416 0.0
H275 H 0.57336 0.83942 0.56863 0.0
H276 H 0.53401 0.86976 0.54168 0.0
H277 H 0.54275 0.90028 0.49326 0.0
H278 H 0.56828 0.90869 0.49628 0.0
H279 H 0.55957 0.87825 0.54461 0.0
C280 C 0.71746 0.59986 0.85349 0.0
C281 C 0.70841 0.60008 0.83839 0.0
C282 C 0.71365 0.62351 0.84952 0.0
C283 C 0.70655 0.61184 0.83635 0.0
C284 C 0.72306 0.62342 0.86423 0.0
C285 C 0.725 0.6117 0.86615 0.0
U286 U 0.73542 0.58108 0.87745 0.0
O287 O 0.7581 0.5977 0.87747 0.0
O288 O 0.74456 0.59519 0.90374 0.0
C289 C 0.75757 0.60132 0.8964 0.0
C290 C 0.71824 0.58693 0.85687 0.0
C291 C 0.76801 0.60108 0.91039 0.0
C292 C 0.78755 0.61325 0.93426 0.0
C293 C 0.77854 0.61369 0.91932 0.0
C294 C 0.77574 0.58761 0.93102 0.0
C295 C 0.78604 0.60017 0.94054 0.0
C296 C 0.76681 0.58806 0.91606 0.0
C297 C 0.71736 0.54103 0.87453 0.0
C298 C 0.70264 0.5155 0.87927 0.0
C299 C 0.69459 0.52805 0.85722 0.0
C300 C 0.70712 0.54082 0.8612 0.0
C301 C 0.69204 0.51531 0.86662 0.0
C302 C 0.71519 0.52829 0.88323 0.0
C303 C 0.72945 0.55462 0.88117 0.0
O304 O 0.71584 0.58219 0.87577 0.0
O305 O 0.72913 0.58678 0.84845 0.0
O306 O 0.73765 0.56319 0.8666 0.0
O307 O 0.72614 0.56113 0.895 0.0
H308 H 0.7025 0.591 0.82854 0.0
H309 H 0.69914 0.61156 0.82501 0.0
H310 H 0.72878 0.63233 0.87442 0.0
H311 H 0.73208 0.61172 0.87785 0.0
H312 H 0.79533 0.62308 0.94143 0.0
H313 H 0.77953 0.62381 0.91516 0.0
H314 H 0.77447 0.5774 0.93535 0.0
H315 H 0.7587 0.57822 0.90929 0.0
H316 H 0.70094 0.50591 0.88691 0.0
H317 H 0.68671 0.52822 0.8472 0.0
H318 H 0.70861 0.55061 0.85446 0.0
H319 H 0.72295 0.52832 0.89371 0.0
C320 C 0.1489 0.72756 0.2043 0.0
C321 C 0.14193 0.71703 0.18949 0.0
C322 C 0.11962 0.71634 0.19666 0.0
C323 C 0.12744 0.71151 0.18564 0.0
C324 C 0.12679 0.72727 0.21096 0.0
C325 C 0.14132 0.73281 0.21477 0.0
U326 U 0.17926 0.72018 0.20517 0.0
O327 O 0.20258 0.73442 0.2043 0.0
O328 O 0.19245 0.72014 0.23051 0.0
C329 C 0.20422 0.73073 0.22282 0.0
C330 C 0.16354 0.7319 0.2104 0.0
C331 C 0.21248 0.74242 0.237 0.0
C332 C 0.21336 0.75791 0.26409 0.0
C333 C 0.20574 0.74795 0.24896 0.0
C334 C 0.2347 0.75748 0.25466 0.0
C335 C 0.22787 0.76256 0.26741 0.0
C336 C 0.22704 0.74744 0.23963 0.0
C337 C 0.17398 0.68649 0.18058 0.0
C338 C 0.19032 0.67798 0.18825 0.0
C339 C 0.16856 0.6631 0.16946 0.0
C340 C 0.16505 0.6738 0.17035 0.0
C341 C 0.18103 0.66492 0.1789 0.0
C342 C 0.18679 0.68867 0.18913 0.0
C343 C 0.16906 0.69659 0.18431 0.0
O344 O 0.16441 0.72338 0.22389 0.0
O345 O 0.17284 0.73557 0.19548 0.0
O346 O 0.17663 0.70927 0.17592 0.0
O347 O 0.16572 0.69701 0.20341 0.0
H348 H 0.14761 0.71276 0.18138 0.0
H349 H 0.12229 0.70326 0.17432 0.0
H350 H 0.12105 0.7311 0.21987 0.0
H351 H 0.14651 0.74082 0.22641 0.0
H352 H 0.20773 0.76148 0.27373 0.0
H353 H 0.19448 0.74419 0.24708 0.0
H354 H 0.24591 0.76104 0.25654 0.0
H355 H 0.2324 0.74333 0.23043 0.0
H356 H 0.19993 0.67965 0.1958 0.0
H357 H 0.1613 0.65324 0.16189 0.0
H358 H 0.1551 0.67194 0.16372 0.0
H359 H 0.19374 0.6984 0.19723 0.0
C360 C 0.45389 0.13375 0.54528 0.0
C361 C 0.45979 0.12518 0.54101 0.0
C362 C 0.43605 0.10454 0.53779 0.0
C363 C 0.45095 0.11068 0.53739 0.0
C364 C 0.43017 0.11325 0.54135 0.0
C365 C 0.43906 0.12778 0.54518 0.0
U366 U 0.49075 0.16598 0.54691 0.0
O367 O 0.4984 0.18888 0.54375 0.0
O368 O 0.50243 0.18047 0.57199 0.0
C369 C 0.50316 0.19153 0.56261 0.0
C370 C 0.46323 0.14873 0.55073 0.0
C371 C 0.49847 0.1996 0.5749 0.0
C372 C 0.48006 0.20093 0.59394 0.0
C373 C 0.48414 0.19365 0.58062 0.0
C374 C 0.50456 0.22028 0.59547 0.0
C375 C 0.49028 0.21425 0.60172 0.0
C376 C 0.50861 0.21299 0.58218 0.0
C377 C 0.52175 0.16341 0.52571 0.0
C378 C 0.54614 0.17981 0.53595 0.0
C379 C 0.54133 0.1627 0.50924 0.0
C380 C 0.52672 0.15757 0.51122 0.0
C381 C 0.55116 0.1737 0.52186 0.0
C382 C 0.53155 0.17476 0.5378 0.0
C383 C 0.50636 0.15718 0.52888 0.0
O384 O 0.47244 0.1508 0.56526 0.0
O385 O 0.46889 0.15764 0.5353 0.0
O386 O 0.50038 0.16338 0.51896 0.0
O387 O 0.50223 0.15421 0.54798 0.0
H388 H 0.47125 0.12965 0.54088 0.0
H389 H 0.45575 0.10424 0.5344 0.0
H390 H 0.41872 0.10876 0.5418 0.0
H391 H 0.43435 0.13427 0.54844 0.0
H392 H 0.46897 0.19608 0.59831 0.0
H393 H 0.47619 0.18325 0.57515 0.0
H394 H 0.51273 0.23039 0.60143 0.0
H395 H 0.51973 0.21765 0.57801 0.0
H396 H 0.55349 0.18838 0.54572 0.0
H397 H 0.54489 0.1577 0.49839 0.0
H398 H 0.51929 0.14881 0.50178 0.0
H399 H 0.52788 0.17946 0.54899 0.0
C400 C 0.34656 0.43766 0.87271 0.0
C401 C 0.35655 0.44123 0.85701 0.0
C402 C 0.35739 0.41961 0.86372 0.0
C403 C 0.36186 0.43224 0.85248 0.0
C404 C 0.34698 0.41586 0.87896 0.0
C405 C 0.34163 0.42484 0.88343 0.0
U406 U 0.35431 0.47556 0.87493 0.0
O407 O 0.34021 0.48465 0.87531 0.0
O408 O 0.35459 0.48814 0.90104 0.0
C409 C 0.34414 0.48968 0.89384 0.0
C410 C 0.34249 0.44794 0.87947 0.0
C411 C 0.33263 0.48619 0.90839 0.0
C412 C 0.31435 0.46948 0.93155 0.0
C413 C 0.32425 0.4723 0.91604 0.0
C414 C 0.32087 0.49433 0.93138 0.0
C415 C 0.31278 0.48054 0.93966 0.0
C416 C 0.33072 0.49712 0.91589 0.0
C417 C 0.38736 0.50508 0.85027 0.0
C418 C 0.39511 0.52942 0.85981 0.0
C419 C 0.40991 0.5244 0.83784 0.0
C420 C 0.39975 0.50989 0.83863 0.0
C421 C 0.40784 0.53426 0.84884 0.0
C422 C 0.38493 0.51494 0.86049 0.0
C423 C 0.3777 0.48979 0.85344 0.0
O424 O 0.35125 0.4571 0.89288 0.0
O425 O 0.33871 0.45387 0.86503 0.0
O426 O 0.3649 0.48451 0.84547 0.0
O427 O 0.37752 0.4855 0.87228 0.0
H428 H 0.36057 0.45117 0.84868 0.0
H429 H 0.3697 0.43534 0.84045 0.0
H430 H 0.34343 0.40631 0.88808 0.0
H431 H 0.33404 0.42202 0.89576 0.0
H432 H 0.30833 0.45879 0.93772 0.0
H433 H 0.32568 0.46376 0.91044 0.0
H434 H 0.31972 0.50301 0.93709 0.0
H435 H 0.33712 0.50789 0.91012 0.0
H436 H 0.39317 0.53679 0.86826 0.0
H437 H 0.41969 0.5278 0.82944 0.0
H438 H 0.40181 0.50239 0.83077 0.0
H439 H 0.3754 0.51137 0.86959 0.0
C440 C 0.94116 0.33265 0.20734 0.0
C441 C 0.94792 0.34198 0.1909 0.0
C442 C 0.97022 0.34296 0.19947 0.0
C443 C 0.96233 0.34703 0.18692 0.0
C444 C 0.9633 0.33335 0.21563 0.0
C445 C 0.94887 0.32823 0.21951 0.0
U446 U 0.91016 0.33943 0.20644 0.0
O447 O 0.88696 0.32454 0.20657 0.0
O448 O 0.89707 0.33964 0.23164 0.0
C449 C 0.88545 0.32848 0.22486 0.0
C450 C 0.92655 0.32854 0.21314 0.0
C451 C 0.87817 0.31697 0.23988 0.0
C452 C 0.87922 0.3022 0.26701 0.0
C453 C 0.88591 0.31224 0.25146 0.0
C454 C 0.85681 0.30096 0.25887 0.0
C455 C 0.86465 0.29662 0.27106 0.0
C456 C 0.86356 0.31112 0.24343 0.0
C457 C 0.91379 0.37188 0.17904 0.0
C458 C 0.89828 0.3811 0.18783 0.0
C459 C 0.91763 0.39392 0.16383 0.0
C460 C 0.92135 0.38339 0.16572 0.0
C461 C 0.90634 0.39312 0.17537 0.0
C462 C 0.90198 0.37055 0.18964 0.0
C463 C 0.91925 0.36228 0.18362 0.0
O464 O 0.92567 0.33743 0.22565 0.0
O465 O 0.91714 0.3243 0.19827 0.0
O466 O 0.91189 0.34933 0.17628 0.0
O467 O 0.92305 0.36256 0.20273 0.0
H468 H 0.94217 0.34566 0.18152 0.0
H469 H 0.96743 0.35455 0.17452 0.0
H470 H 0.96909 0.32995 0.22544 0.0
H471 H 0.94383 0.32111 0.23235 0.0
H472 H 0.88546 0.29892 0.27604 0.0
H473 H 0.8972 0.31659 0.2488 0.0
H474 H 0.8456 0.2969 0.26177 0.0
H475 H 0.85745 0.31466 0.2346 0.0
H476 H 0.88962 0.38021 0.19707 0.0
H477 H 0.92389 0.40292 0.15385 0.0
H478 H 0.93048 0.38455 0.15743 0.0
H479 H 0.89607 0.36172 0.20008 0.0
H480 H 0.28566 0.45822 0.94607 0.0
H481 H 0.27017 0.45435 0.97547 0.0
H482 H 0.30309 0.49317 1.00241 0.0
H483 H 0.31865 0.49692 0.97345 0.0
H484 H 0.29066 0.47152 0.03033 0.0
H485 H 0.27557 0.49243 0.97686 0.0
H486 H 0.26645 0.49314 0.94261 0.0
H487 H 0.22882 0.45277 0.95395 0.0
H488 H 0.23781 0.45174 0.98819 0.0
H489 H 0.25871 0.49653 0.09812 0.0
H490 H 0.27119 0.49205 0.07102 0.0
H491 H 0.23169 0.45544 0.05217 0.0
H492 H 0.21898 0.46028 0.0787 0.0
H493 H 0.24514 0.47109 1.02037 0.0
H494 H 0.25831 0.45175 0.07572 0.0
H495 H 0.26715 0.45075 0.11003 0.0
H496 H 0.30787 0.48706 0.09561 0.0
H497 H 0.29922 0.48842 0.0613 0.0
C498 C 0.2896 0.46585 0.95836 0.0
C499 C 0.30331 0.47795 0.95737 0.0
C500 C 0.28074 0.46366 0.97507 0.0
C501 C 0.28546 0.47353 0.99103 0.0
C502 C 0.29924 0.48544 0.99025 0.0
C503 C 0.30806 0.48764 0.97359 0.0
C504 C 0.27604 0.47185 1.00836 0.0
C505 C 0.28072 0.47147 0.02821 0.0
C506 C 0.26284 0.47128 1.00551 0.0
C507 C 0.25743 0.47193 0.98497 0.0
C508 C 0.2654 0.48365 0.97198 0.0
C509 C 0.26025 0.48412 0.95258 0.0
C510 C 0.24709 0.47298 0.94608 0.0
C511 C 0.23903 0.46137 0.95899 0.0
C512 C 0.24414 0.46084 0.97839 0.0
C513 C 0.25266 0.48753 0.08822 0.0
C514 C 0.23783 0.47882 0.09053 0.0
C515 C 0.25984 0.48485 0.07288 0.0
C516 C 0.25241 0.47329 0.0597 0.0
C517 C 0.23765 0.46438 0.06223 0.0
C518 C 0.23043 0.4671 0.07752 0.0
C519 C 0.25995 0.47119 0.04247 0.0
C520 C 0.25492 0.47085 0.0226 0.0
C521 C 0.27279 0.47101 0.04532 0.0
C522 C 0.27807 0.47023 0.06595 0.0
C523 C 0.26912 0.45959 0.0799 0.0
C524 C 0.2741 0.45895 0.09935 0.0
C525 C 0.28805 0.46885 0.10501 0.0
C526 C 0.29706 0.4794 0.09121 0.0
C527 C 0.29213 0.48009 0.07174 0.0
H528 H 0.29189 0.46834 0.12007 0.0
H529 H 0.24312 0.47337 0.93106 0.0
H530 H 0.80963 0.2378 0.44449 0.0
H531 H 0.8257 0.25085 0.41614 0.0
H532 H 0.79523 0.22061 0.37369 0.0
H533 H 0.7794 0.20733 0.402 0.0
H534 H 0.82085 0.2278 0.36175 0.0
H535 H 0.79775 0.25327 0.38344 0.0
H536 H 0.7905 0.2655 0.40797 0.0
H537 H 0.83442 0.29602 0.41979 0.0
H538 H 0.84194 0.28385 0.39553 0.0
H539 H 0.83908 0.27171 0.27214 0.0
H540 H 0.82727 0.2567 0.30206 0.0
H541 H 0.863 0.28493 0.33963 0.0
H542 H 0.87483 0.29996 0.30984 0.0
H543 H 0.83643 0.27904 0.3548 0.0
H544 H 0.85887 0.25385 0.3295 0.0
H545 H 0.86494 0.24148 0.30359 0.0
H546 H 0.82065 0.21024 0.29673 0.0
H547 H 0.81428 0.22255 0.32239 0.0
C548 C 0.80646 0.2339 0.4291 0.0
C549 C 0.79328 0.22162 0.42538 0.0
C550 C 0.81561 0.24137 0.41293 0.0
C551 C 0.81155 0.23686 0.39274 0.0
C552 C 0.7986 0.22429 0.38911 0.0
C553 C 0.78956 0.21672 0.40529 0.0
C554 C 0.8204 0.24555 0.37529 0.0
C555 C 0.82416 0.23897 0.36016 0.0
C556 C 0.8249 0.26019 0.37332 0.0
C557 C 0.8204 0.26756 0.38785 0.0
C558 C 0.80586 0.26253 0.39138 0.0
C559 C 0.8017 0.26946 0.40522 0.0
C560 C 0.81199 0.2815 0.41548 0.0
C561 C 0.82646 0.28667 0.41187 0.0
C562 C 0.83068 0.27977 0.39807 0.0
C563 C 0.84443 0.27463 0.28677 0.0
C564 C 0.85786 0.28697 0.2887 0.0
C565 C 0.83773 0.26603 0.30378 0.0
C566 C 0.84432 0.2697 0.32299 0.0
C567 C 0.85779 0.28191 0.3249 0.0
C568 C 0.86455 0.29042 0.30788 0.0
C569 C 0.83678 0.26126 0.34129 0.0
C570 C 0.83323 0.26789 0.35653 0.0
C571 C 0.83229 0.24665 0.34315 0.0
C572 C 0.83609 0.23921 0.32774 0.0
C573 C 0.85041 0.24442 0.32234 0.0
C574 C 0.85391 0.2374 0.30772 0.0
C575 C 0.84319 0.2251 0.29848 0.0
C576 C 0.82894 0.21978 0.30388 0.0
C577 C 0.82539 0.22676 0.31848 0.0
H578 H 0.84591 0.21968 0.28717 0.0
H579 H 0.80875 0.28685 0.42618 0.0
H580 H 0.60038 0.85341 0.64715 0.0
H581 H 0.60371 0.84055 0.67529 0.0
H582 H 0.60508 0.81129 0.63259 0.0
H583 H 0.60127 0.82393 0.60437 0.0
H584 H 0.58842 0.79708 0.66205 0.0
H585 H 0.63547 0.83689 0.65937 0.0
H586 H 0.65421 0.86219 0.65809 0.0
H587 H 0.64089 0.86888 0.71647 0.0
H588 H 0.62193 0.84367 0.71798 0.0
H589 H 0.60714 0.7633 0.73907 0.0
H590 H 0.61037 0.77865 0.70966 0.0
H591 H 0.59854 0.80372 0.74647 0.0
H592 H 0.59529 0.78839 0.77604 0.0
H593 H 0.6225 0.81991 0.71907 0.0
H594 H 0.57406 0.77987 0.7191 0.0
H595 H 0.55607 0.75431 0.71988 0.0
H596 H 0.57364 0.748 0.6651 0.0
H597 H 0.59188 0.77351 0.66418 0.0
C598 C 0.60162 0.84437 0.64376 0.0
C599 C 0.60061 0.83967 0.62362 0.0
C600 C 0.60358 0.83705 0.65985 0.0
C601 C 0.60488 0.82507 0.65607 0.0
C602 C 0.60414 0.82052 0.63588 0.0
C603 C 0.60196 0.82772 0.61979 0.0
C604 C 0.60595 0.81672 0.67332 0.0
C605 C 0.5961 0.80207 0.67427 0.0
C606 C 0.61579 0.82322 0.68951 0.0
C607 C 0.6272 0.8384 0.68871 0.0
C608 C 0.63646 0.84378 0.67187 0.0
C609 C 0.64714 0.8581 0.67112 0.0
C610 C 0.64872 0.86714 0.68717 0.0
C611 C 0.63965 0.86187 0.70404 0.0
C612 C 0.62895 0.84756 0.70486 0.0
C613 C 0.60549 0.77225 0.74099 0.0
C614 C 0.60093 0.77465 0.7598 0.0
C615 C 0.60728 0.78095 0.72418 0.0
C616 C 0.60461 0.79223 0.72593 0.0
C617 C 0.60065 0.79505 0.74488 0.0
C618 C 0.59871 0.78625 0.76167 0.0
C619 C 0.60496 0.80044 0.70767 0.0
C620 C 0.61501 0.815 0.70663 0.0
C621 C 0.59545 0.79387 0.69124 0.0
C622 C 0.58442 0.77856 0.6917 0.0
C623 C 0.57416 0.77301 0.70732 0.0
C624 C 0.56391 0.75854 0.70777 0.0
C625 C 0.56374 0.74953 0.69258 0.0
C626 C 0.5738 0.75499 0.67688 0.0
C627 C 0.58409 0.76945 0.67637 0.0
H628 H 0.5558 0.73832 0.69296 0.0
H629 H 0.65699 0.87823 0.68656 0.0
H630 H 0.81471 0.61725 0.94721 0.0
H631 H 0.82869 0.61594 0.97579 0.0
H632 H 0.79071 0.58026 1.00089 0.0
H633 H 0.7767 0.58164 0.97265 0.0
H634 H 0.80671 0.60007 0.02994 0.0
H635 H 0.81393 0.57473 0.97545 0.0
H636 H 0.821 0.57204 0.94084 0.0
H637 H 0.86344 0.60665 0.95139 0.0
H638 H 0.85656 0.60968 0.98599 0.0
H639 H 0.83262 0.5677 0.09794 0.0
H640 H 0.82112 0.57358 0.07052 0.0
H641 H 0.86225 0.60644 0.04895 0.0
H642 H 0.87386 0.60026 0.07589 0.0
H643 H 0.84632 0.59069 1.01815 0.0
H644 H 0.83986 0.61489 0.07362 0.0
H645 H 0.83296 0.61775 0.10825 0.0
H646 H 0.78951 0.58596 0.09611 0.0
H647 H 0.79618 0.58275 0.06149 0.0
C648 C 0.80936 0.60918 0.9589 0.0
C649 C 0.79465 0.59947 0.95764 0.0
C650 C 0.81735 0.6084 0.97513 0.0
C651 C 0.81072 0.59795 0.99036 0.0
C652 C 0.79601 0.5884 0.98927 0.0
C653 C 0.78806 0.58911 0.97304 0.0
C654 C 0.81907 0.59676 1.00738 0.0
C655 C 0.8153 0.59791 0.02741 0.0
C656 C 0.83054 0.59437 1.00398 0.0
C657 C 0.83469 0.59254 0.98321 0.0
C658 C 0.82474 0.58185 0.97032 0.0
C659 C 0.82871 0.58024 0.95072 0.0
C660 C 0.84265 0.58919 0.94389 0.0
C661 C 0.85264 0.59974 0.95668 0.0
C662 C 0.84871 0.6014 0.97629 0.0
C663 C 0.83922 0.57616 0.08734 0.0
C664 C 0.85416 0.58351 0.0891 0.0
C665 C 0.83263 0.57961 0.0718 0.0
C666 C 0.84083 0.59056 0.05782 0.0
C667 C 0.85573 0.598 0.05963 0.0
C668 C 0.86233 0.59453 0.07514 0.0
C669 C 0.83384 0.59379 0.04081 0.0
C670 C 0.83785 0.59302 1.02075 0.0
C671 C 0.82262 0.59659 0.04419 0.0
C672 C 0.81855 0.5985 0.065 0.0
C673 C 0.82885 0.60842 0.07839 0.0
C674 C 0.82498 0.61012 0.09801 0.0
C675 C 0.81081 0.60202 0.10439 0.0
C676 C 0.80048 0.59222 0.09115 0.0
C677 C 0.8043 0.59047 0.07151 0.0
H678 H 0.80783 0.60336 0.11959 0.0
H679 H 0.84571 0.58793 0.92871 0.0
H680 H 0.24685 0.76075 0.29292 0.0
H681 H 0.25857 0.77509 0.32279 0.0
H682 H 0.2375 0.79925 0.31252 0.0
H683 H 0.22617 0.7853 0.28189 0.0
H684 H 0.26478 0.81633 0.32347 0.0
H685 H 0.22543 0.77361 0.34922 0.0
H686 H 0.20951 0.74772 0.35307 0.0
H687 H 0.24425 0.74361 0.37653 0.0
H688 H 0.26045 0.76947 0.37254 0.0
H689 H 0.28664 0.84667 0.42306 0.0
H690 H 0.27109 0.83343 0.39451 0.0
H691 H 0.29025 0.80707 0.39239 0.0
H692 H 0.30599 0.82036 0.42047 0.0
H693 H 0.261 0.79157 0.38909 0.0
H694 H 0.3006 0.83421 0.35962 0.0
H695 H 0.31625 0.86016 0.35578 0.0
H696 H 0.28015 0.86436 0.3398 0.0
H697 H 0.26425 0.83844 0.34382 0.0
C698 C 0.24489 0.76928 0.29673 0.0
C699 C 0.23555 0.77186 0.28498 0.0
C700 C 0.25145 0.77734 0.31401 0.0
C701 C 0.24868 0.78804 0.32012 0.0
C702 C 0.23969 0.79095 0.30816 0.0
C703 C 0.23315 0.78291 0.29076 0.0
C704 C 0.25519 0.79608 0.33907 0.0
C705 C 0.26373 0.81094 0.33791 0.0
C706 C 0.2539 0.78904 0.35788 0.0
C707 C 0.24418 0.77348 0.36044 0.0
C708 C 0.2297 0.76718 0.35507 0.0
C709 C 0.22062 0.75251 0.3573 0.0
C710 C 0.22587 0.74402 0.36501 0.0
C711 C 0.24021 0.7502 0.37055 0.0
C712 C 0.24934 0.76487 0.36834 0.0
C713 C 0.28756 0.83807 0.41649 0.0
C714 C 0.29758 0.83459 0.42407 0.0
C715 C 0.27864 0.8305 0.40023 0.0
C716 C 0.2796 0.81935 0.39129 0.0
C717 C 0.2893 0.81561 0.39916 0.0
C718 C 0.29825 0.82318 0.41531 0.0
C719 C 0.27085 0.81174 0.37333 0.0
C720 C 0.26187 0.79695 0.3747 0.0
C721 C 0.27166 0.81886 0.35478 0.0
C722 C 0.28123 0.83442 0.35226 0.0
C723 C 0.29599 0.84069 0.35545 0.0
C724 C 0.3049 0.85538 0.35322 0.0
C725 C 0.29919 0.86391 0.34761 0.0
C726 C 0.28455 0.85775 0.34418 0.0
C727 C 0.27559 0.84306 0.34643 0.0
H728 H 0.30611 0.87529 0.34589 0.0
H729 H 0.21883 0.73266 0.36672 0.0
H730 H 0.50409 0.30579 0.7263 0.0
H731 H 0.49853 0.28886 0.69874 0.0
H732 H 0.46995 0.2545 0.73848 0.0
H733 H 0.47565 0.27147 0.76635 0.0
H734 H 0.48839 0.24867 0.71798 0.0
H735 H 0.45613 0.26465 0.70117 0.0
H736 H 0.44844 0.28215 0.69484 0.0
H737 H 0.47756 0.29966 0.64451 0.0
H738 H 0.48558 0.28241 0.65071 0.0
H739 H 0.47227 0.20234 0.63429 0.0
H740 H 0.46791 0.21468 0.6618 0.0
H741 H 0.49548 0.25496 0.63225 0.0
H742 H 0.49944 0.24267 0.6043 0.0
H743 H 0.47293 0.25482 0.64919 0.0
H744 H 0.50785 0.24183 0.66978 0.0
H745 H 0.51639 0.22501 0.67635 0.0
H746 H 0.48276 0.20245 0.71984 0.0
H747 H 0.47391 0.21904 0.71332 0.0
C748 C 0.49664 0.29463 0.72919 0.0
C749 C 0.49036 0.28993 0.7485 0.0
C750 C 0.49336 0.28499 0.71337 0.0
C751 C 0.48371 0.27046 0.71651 0.0
C752 C 0.47736 0.2657 0.73574 0.0
C753 C 0.48057 0.27538 0.75159 0.0
C754 C 0.48097 0.26026 0.6999 0.0
C755 C 0.48467 0.24978 0.70307 0.0
C756 C 0.47636 0.2619 0.68037 0.0
C757 C 0.47152 0.27227 0.67649 0.0
C758 C 0.46097 0.2723 0.68884 0.0
C759 C 0.45654 0.28216 0.68526 0.0
C760 C 0.46252 0.29202 0.66931 0.0
C761 C 0.47293 0.29202 0.65687 0.0
C762 C 0.47741 0.28218 0.66039 0.0
C763 C 0.47713 0.21379 0.63339 0.0
C764 C 0.48633 0.22154 0.6172 0.0
C765 C 0.47472 0.22084 0.64922 0.0
C766 C 0.48157 0.23575 0.64924 0.0
C767 C 0.49014 0.24345 0.63259 0.0
C768 C 0.4925 0.23642 0.61672 0.0
C769 C 0.48069 0.24348 0.66716 0.0
C770 C 0.47634 0.25351 0.66422 0.0
C771 C 0.48477 0.24148 0.6869 0.0
C772 C 0.49012 0.23155 0.69088 0.0
C773 C 0.50222 0.23321 0.68063 0.0
C774 C 0.50712 0.22374 0.68436 0.0
C775 C 0.50009 0.21264 0.69845 0.0
C776 C 0.48817 0.21103 0.70889 0.0
C777 C 0.48321 0.22046 0.70519 0.0
H778 H 0.50391 0.20532 0.70132 0.0
H779 H 0.45908 0.29966 0.66656 0.0
H780 H 0.16173 0.63734 0.18807 0.0
H781 H 0.16595 0.61751 0.19245 0.0
H782 H 0.21051 0.64517 0.17874 0.0
H783 H 0.20629 0.66517 0.17388 0.0
H784 H 0.19897 0.61912 0.15929 0.0
H785 H 0.20163 0.63586 0.22659 0.0
H786 H 0.19429 0.64423 0.25644 0.0
H787 H 0.15552 0.60392 0.26082 0.0
H788 H 0.16252 0.59537 0.23079 0.0
H789 H 0.20776 0.56025 0.18896 0.0
H790 H 0.21133 0.58435 0.18856 0.0
H791 H 0.16659 0.56722 0.20072 0.0
H792 H 0.16287 0.54321 0.20076 0.0
H793 H 0.18337 0.59086 0.22349 0.0
H794 H 0.17953 0.57602 0.15279 0.0
H795 H 0.18692 0.56783 0.12275 0.0
H796 H 0.22856 0.60506 0.12528 0.0
H797 H 0.22145 0.61337 0.15553 0.0
C798 C 0.1724 0.6392 0.18568 0.0
C799 C 0.18367 0.65282 0.18054 0.0
C800 C 0.17483 0.62788 0.18843 0.0
C801 C 0.18858 0.62993 0.18622 0.0
C802 C 0.19983 0.64341 0.18064 0.0
C803 C 0.19742 0.65481 0.17796 0.0
C804 C 0.19096 0.61781 0.1897 0.0
C805 C 0.19588 0.61311 0.17349 0.0
C806 C 0.18683 0.60995 0.20819 0.0
C807 C 0.18258 0.615 0.22634 0.0
C808 C 0.19149 0.62881 0.23382 0.0
C809 C 0.1874 0.63359 0.25079 0.0
C810 C 0.17444 0.62462 0.2605 0.0
C811 C 0.16556 0.61086 0.25328 0.0
C812 C 0.16959 0.60603 0.2363 0.0
C813 C 0.19869 0.56162 0.19155 0.0
C814 C 0.18502 0.54977 0.19486 0.0
C815 C 0.20076 0.5754 0.19138 0.0
C816 C 0.18921 0.57755 0.19448 0.0
C817 C 0.17567 0.5658 0.1984 0.0
C818 C 0.17358 0.55206 0.19851 0.0
C819 C 0.19089 0.59191 0.19285 0.0
C820 C 0.18675 0.59704 0.20946 0.0
C821 C 0.19579 0.60018 0.17477 0.0
C822 C 0.20002 0.59522 0.15655 0.0
C823 C 0.1903 0.58239 0.14704 0.0
C824 C 0.19443 0.57774 0.12996 0.0
C825 C 0.20822 0.5859 0.12216 0.0
C826 C 0.21789 0.59874 0.13137 0.0
C827 C 0.21382 0.60343 0.14847 0.0
H828 H 0.2114 0.58228 0.10893 0.0
H829 H 0.17129 0.62834 0.27364 0.0
H830 H 0.56816 0.17949 0.4883 0.0
H831 H 0.59276 0.18432 0.48744 0.0
H832 H 0.59306 0.18209 0.55316 0.0
H833 H 0.56864 0.17757 0.5541 0.0
H834 H 0.61832 0.20231 0.53982 0.0
H835 H 0.58566 0.15322 0.52332 0.0
H836 H 0.56632 0.13364 0.50395 0.0
H837 H 0.59102 0.14905 0.449 0.0
H838 H 0.61044 0.16885 0.46802 0.0
H839 H 0.66748 0.17797 0.55775 0.0
H840 H 0.64728 0.182 0.55534 0.0
H841 H 0.65325 0.18777 0.49024 0.0
H842 H 0.6733 0.18355 0.4925 0.0
H843 H 0.62606 0.16796 0.50069 0.0
H844 H 0.66018 0.21561 0.51927 0.0
H845 H 0.67935 0.23445 0.53981 0.0
H846 H 0.65191 0.22093 0.5922 0.0
H847 H 0.63263 0.20186 0.57206 0.0
C848 C 0.57355 0.18017 0.50254 0.0
C849 C 0.56647 0.17805 0.52125 0.0
C850 C 0.58758 0.18293 0.50205 0.0
C851 C 0.59466 0.18332 0.52023 0.0
C852 C 0.58782 0.18185 0.53895 0.0
C853 C 0.57386 0.17926 0.53946 0.0
C854 C 0.60877 0.18425 0.5198 0.0
C855 C 0.62 0.19475 0.53136 0.0
C856 C 0.61104 0.17454 0.50847 0.0
C857 C 0.59942 0.1626 0.49704 0.0
C858 C 0.58692 0.15249 0.50708 0.0
C859 C 0.57595 0.14134 0.49617 0.0
C860 C 0.57742 0.14012 0.47525 0.0
C861 C 0.58989 0.15002 0.4652 0.0
C862 C 0.60088 0.16121 0.47604 0.0
C863 C 0.66458 0.18026 0.54297 0.0
C864 C 0.67195 0.18042 0.52531 0.0
C865 C 0.65312 0.18267 0.54163 0.0
C866 C 0.64882 0.18525 0.52261 0.0
C867 C 0.65645 0.18586 0.50506 0.0
C868 C 0.66795 0.18354 0.5064 0.0
C869 C 0.63558 0.18595 0.52082 0.0
C870 C 0.62447 0.17566 0.5089 0.0
C871 C 0.63341 0.19575 0.532 0.0
C872 C 0.64499 0.20722 0.54418 0.0
C873 C 0.65826 0.21657 0.53521 0.0
C874 C 0.66915 0.22731 0.54678 0.0
C875 C 0.66686 0.22886 0.56731 0.0
C876 C 0.65367 0.2197 0.5763 0.0
C877 C 0.64275 0.20893 0.56481 0.0
H878 H 0.6753 0.23719 0.57624 0.0
H879 H 0.56892 0.13148 0.46682 0.0
H880 H 0.5226 0.65374 0.83038 0.0
H881 H 0.49849 0.63329 0.8291 0.0
H882 H 0.49819 0.62961 0.89471 0.0
H883 H 0.5225 0.64999 0.89602 0.0
H884 H 0.48961 0.60494 0.8786 0.0
H885 H 0.47726 0.64078 0.8687 0.0
H886 H 0.47838 0.66209 0.85339 0.0
H887 H 0.4663 0.64143 0.79528 0.0
H888 H 0.46531 0.62005 0.81017 0.0
H889 H 0.41754 0.55041 0.88307 0.0
H890 H 0.43819 0.57432 0.88627 0.0
H891 H 0.44529 0.57593 0.82141 0.0
H892 H 0.42451 0.55195 0.81804 0.0
H893 H 0.4493 0.60212 0.83879 0.0
H894 H 0.46371 0.56706 0.84927 0.0
H895 H 0.46212 0.54577 0.86546 0.0
H896 H 0.46991 0.5656 0.92411 0.0
H897 H 0.47133 0.58694 0.90828 0.0
C898 C 0.51729 0.64876 0.84457 0.0
C899 C 0.52443 0.65347 0.86332 0.0
C900 C 0.50348 0.63707 0.84383 0.0
C901 C 0.49643 0.62998 0.86183 0.0
C902 C 0.50341 0.6349 0.88062 0.0
C903 C 0.51729 0.64653 0.88136 0.0
C904 C 0.48228 0.61679 0.86086 0.0
C905 C 0.48073 0.60444 0.87023 0.0
C906 C 0.47074 0.616 0.84957 0.0
C907 C 0.47133 0.62885 0.84053 0.0
C908 C 0.47495 0.64082 0.85262 0.0
C909 C 0.47554 0.65291 0.84402 0.0
C910 C 0.47244 0.65313 0.82337 0.0
C911 C 0.46871 0.64125 0.81127 0.0
C912 C 0.46812 0.62913 0.81979 0.0
C913 C 0.4233 0.55596 0.86942 0.0
C914 C 0.41944 0.5493 0.8503 0.0
C915 C 0.43513 0.56958 0.8713 0.0
C916 C 0.44329 0.57681 0.8541 0.0
C917 C 0.4391 0.57049 0.83485 0.0
C918 C 0.42732 0.55679 0.83297 0.0
C919 C 0.4568 0.59045 0.85648 0.0
C920 C 0.4582 0.60278 0.84733 0.0
C921 C 0.46819 0.59129 0.86812 0.0
C922 C 0.46747 0.57852 0.87762 0.0
C923 C 0.46496 0.56683 0.86564 0.0
C924 C 0.46412 0.55476 0.87474 0.0
C925 C 0.46588 0.55431 0.89581 0.0
C926 C 0.46853 0.56595 0.9078 0.0
C927 C 0.46936 0.57804 0.89877 0.0
H928 H 0.46522 0.54496 0.90283 0.0
H929 H 0.4729 0.6625 0.81674 0.0
H930 H 0.92651 0.42123 0.17695 0.0
H931 H 0.92295 0.44142 0.18124 0.0
H932 H 0.87739 0.41328 0.18088 0.0
H933 H 0.88086 0.39287 0.17599 0.0
H934 H 0.88608 0.43847 0.15868 0.0
H935 H 0.89269 0.42477 0.22508 0.0
H936 H 0.90419 0.41777 0.25159 0.0
H937 H 0.94275 0.45809 0.2453 0.0
H938 H 0.93156 0.46526 0.2185 0.0
H939 H 0.88106 0.49844 0.19338 0.0
H940 H 0.87756 0.47437 0.19186 0.0
H941 H 0.92311 0.49193 0.19326 0.0
H942 H 0.92668 0.51586 0.19465 0.0
H943 H 0.90982 0.46932 0.21832 0.0
H944 H 0.90395 0.4813 0.1486 0.0
H945 H 0.8925 0.48815 0.12176 0.0
H946 H 0.85221 0.45081 0.13472 0.0
H947 H 0.8634 0.44384 0.16183 0.0
C948 C 0.91571 0.4193 0.17732 0.0
C949 C 0.90396 0.40542 0.17611 0.0
C950 C 0.9137 0.43086 0.18001 0.0
C951 C 0.89991 0.4288 0.18172 0.0
C952 C 0.88812 0.41505 0.17974 0.0
C953 C 0.89012 0.40342 0.17706 0.0
C954 C 0.89807 0.4411 0.18617 0.0
C955 C 0.891 0.44507 0.17193 0.0
C956 C 0.90455 0.44972 0.20342 0.0
C957 C 0.9113 0.44552 0.21968 0.0
C958 C 0.90366 0.43211 0.22924 0.0
C959 C 0.91012 0.42812 0.24434 0.0
C960 C 0.9242 0.43747 0.25011 0.0
C961 C 0.93185 0.45086 0.24082 0.0
C962 C 0.92544 0.4549 0.22569 0.0
C963 C 0.89031 0.49714 0.19336 0.0
C964 C 0.90415 0.50907 0.1942 0.0
C965 C 0.88829 0.4834 0.19251 0.0
C966 C 0.90008 0.48137 0.19232 0.0
C967 C 0.91386 0.49324 0.19352 0.0
C968 C 0.91588 0.50693 0.19441 0.0
C969 C 0.89832 0.467 0.19044 0.0
C970 C 0.90467 0.4626 0.20525 0.0
C971 C 0.89115 0.458 0.17375 0.0
C972 C 0.88447 0.46215 0.15739 0.0
C973 C 0.89263 0.47461 0.14583 0.0
C974 C 0.88619 0.4785 0.13055 0.0
C975 C 0.87163 0.46994 0.12658 0.0
C976 C 0.86348 0.45744 0.13784 0.0
C977 C 0.86986 0.45352 0.15315 0.0
H978 H 0.86667 0.47297 0.11474 0.0
H979 H 0.92918 0.43436 0.2618 0.0
H980 H 0.51968 0.88127 0.55003 0.0
H981 H 0.49555 0.87747 0.54985 0.0
H982 H 0.49466 0.87513 0.48414 0.0
H983 H 0.51901 0.87922 0.48425 0.0
H984 H 0.48638 0.8925 0.49556 0.0
H985 H 0.47366 0.84539 0.51523 0.0
H986 H 0.47476 0.8266 0.53501 0.0
H987 H 0.46372 0.8404 0.58956 0.0
H988 H 0.46275 0.85942 0.57017 0.0
H989 H 0.41517 0.8774 0.4912 0.0
H990 H 0.43496 0.87281 0.48925 0.0
H991 H 0.4437 0.88242 0.55315 0.0
H992 H 0.42373 0.88683 0.55532 0.0
H993 H 0.44656 0.85908 0.54033 0.0
H994 H 0.46197 0.90769 0.52031 0.0
H995 H 0.46062 0.92615 0.5 0.0
H996 H 0.46629 0.90849 0.44494 0.0
H997 H 0.46747 0.88979 0.46494 0.0
C998 C 0.51423 0.87964 0.53556 0.0
C999 C 0.52122 0.88053 0.51715 0.0
C1000 C 0.50041 0.87743 0.53548 0.0
C1001 C 0.4932 0.87584 0.51699 0.0
C1002 C 0.50001 0.87631 0.49859 0.0
C1003 C 0.51391 0.87867 0.49866 0.0
C1004 C 0.4791 0.87498 0.51684 0.0
C1005 C 0.47758 0.88495 0.50502 0.0
C1006 C 0.46769 0.86535 0.52951 0.0
C1007 C 0.46824 0.85391 0.54125 0.0
C1008 C 0.47157 0.84449 0.53147 0.0
C1009 C 0.47215 0.83378 0.54261 0.0
C1010 C 0.46934 0.83232 0.56354 0.0
C1011 C 0.46591 0.84155 0.57335 0.0
C1012 C 0.46532 0.85228 0.56229 0.0
C1013 C 0.42109 0.87822 0.50496 0.0
C1014 C 0.41795 0.88255 0.52341 0.0
C1015 C 0.43244 0.87567 0.50378 0.0
C1016 C 0.44085 0.87741 0.52101 0.0
C1017 C 0.43732 0.88104 0.53969 0.0
C1018 C 0.42601 0.88367 0.54086 0.0
C1019 C 0.45401 0.87661 0.51917 0.0
C1020 C 0.45534 0.86641 0.53067 0.0
C1021 C 0.46524 0.88595 0.5061 0.0
C1022 C 0.46465 0.89725 0.4941 0.0
C1023 C 0.46282 0.90768 0.50386 0.0
C1024 C 0.4621 0.91819 0.49241 0.0
C1025 C 0.46332 0.91847 0.47119 0.0
C1026 C 0.46532 0.90825 0.46138 0.0
C1027 C 0.46602 0.89769 0.47276 0.0
H1028 H 0.46277 0.92662 0.46234 0.0
H1029 H 0.46979 0.82402 0.57213 0.0
H1030 H 0.66587 0.51299 0.8678 0.0
H1031 H 0.64259 0.49137 0.8669 0.0
H1032 H 0.6628 0.46613 0.86102 0.0
H1033 H 0.68628 0.48787 0.86139 0.0
H1034 H 0.63923 0.45697 0.83572 0.0
H1035 H 0.65048 0.46773 0.90606 0.0
H1036 H 0.65835 0.48286 0.93659 0.0
H1037 H 0.62295 0.48983 0.93039 0.0
H1038 H 0.61498 0.47491 0.89962 0.0
H1039 H 0.57336 0.39328 0.85888 0.0
H1040 H 0.59835 0.41227 0.86028 0.0
H1041 H 0.58513 0.44332 0.8672 0.0
H1042 H 0.56021 0.42451 0.86548 0.0
H1043 H 0.60635 0.4478 0.89365 0.0
H1044 H 0.59638 0.43864 0.82172 0.0
H1045 H 0.58867 0.42372 0.79096 0.0
H1046 H 0.62177 0.41364 0.80034 0.0
H1047 H 0.62955 0.42836 0.83135 0.0
C1048 C 0.6654 0.50288 0.86594 0.0
C1049 C 0.67794 0.50215 0.86466 0.0
C1050 C 0.65208 0.49051 0.86564 0.0
C1051 C 0.65099 0.47715 0.8642 0.0
C1052 C 0.66344 0.47636 0.86226 0.0
C1053 C 0.67682 0.48876 0.8626 0.0
C1054 C 0.6368 0.46407 0.86519 0.0
C1055 C 0.63211 0.4548 0.84854 0.0
C1056 C 0.6275 0.46137 0.88183 0.0
C1057 C 0.63219 0.47028 0.90043 0.0
C1058 C 0.64443 0.47257 0.91111 0.0
C1059 C 0.6489 0.4811 0.92848 0.0
C1060 C 0.64117 0.48733 0.93541 0.0
C1061 C 0.62893 0.48501 0.925 0.0
C1062 C 0.62442 0.4765 0.90761 0.0
C1063 C 0.57578 0.40416 0.8606 0.0
C1064 C 0.56477 0.40737 0.86207 0.0
C1065 C 0.59005 0.41499 0.86144 0.0
C1066 C 0.59358 0.4292 0.8637 0.0
C1067 C 0.58263 0.4324 0.86554 0.0
C1068 C 0.56838 0.42162 0.86465 0.0
C1069 C 0.60864 0.44086 0.86398 0.0
C1070 C 0.61351 0.44987 0.88093 0.0
C1071 C 0.61809 0.44328 0.84763 0.0
C1072 C 0.61344 0.43446 0.82898 0.0
C1073 C 0.60193 0.43314 0.81733 0.0
C1074 C 0.59757 0.42474 0.79983 0.0
C1075 C 0.6047 0.4177 0.79374 0.0
C1076 C 0.61624 0.41908 0.8051 0.0
C1077 C 0.62063 0.42745 0.82263 0.0
H1078 H 0.6013 0.4112 0.78018 0.0
H1079 H 0.64465 0.49393 0.94886 0.0
H1080 H 0.10674 0.41393 0.20808 0.0
H1081 H 0.08088 0.39922 0.21214 0.0
H1082 H 0.07649 0.39025 0.14772 0.0
H1083 H 0.10228 0.4052 0.14347 0.0
H1084 H 0.05799 0.39837 0.1609 0.0
H1085 H 0.07234 0.36498 0.18182 0.0
H1086 H 0.08606 0.35667 0.20185 0.0
H1087 H 0.06826 0.36178 0.25727 0.0
H1088 H 0.05457 0.37031 0.23759 0.0
H1089 H 0.98453 0.34664 0.16362 0.0
H1090 H 1.01034 0.35829 0.15863 0.0
H1091 H 1.01681 0.36562 0.22338 0.0
H1092 H 0.99104 0.35379 0.22846 0.0
H1093 H 1.03432 0.35766 0.20919 0.0
H1094 H 1.02112 0.39207 0.18962 0.0
H1095 H 1.0077 0.40121 0.17066 0.0
H1096 H 1.02368 0.39526 0.11406 0.0
H1097 H 1.03705 0.3859 0.13268 0.0
C1098 C 0.10026 0.4088 0.1948 0.0
C1099 C 0.10655 0.41071 0.17546 0.0
C1100 C 0.08551 0.40032 0.19716 0.0
C1101 C 0.07679 0.39356 0.18025 0.0
C1102 C 0.08305 0.39533 0.16097 0.0
C1103 C 0.09779 0.40378 0.15861 0.0
C1104 C 0.06108 0.38514 0.1825 0.0
C1105 C 0.05278 0.38931 0.1712 0.0
C1106 C 0.05436 0.3736 0.19638 0.0
C1107 C 0.06253 0.3684 0.20824 0.0
C1108 C 0.07143 0.36443 0.19829 0.0
C1109 C 0.07919 0.35967 0.20958 0.0
C1110 C 0.07806 0.35873 0.23082 0.0
C1111 C 0.06914 0.36252 0.24082 0.0
C1112 C 0.06136 0.36731 0.2296 0.0
C1113 C 0.99148 0.35072 0.17677 0.0
C1114 C 0.98579 0.34934 0.19642 0.0
C1115 C 1.00621 0.35739 0.17391 0.0
C1116 C 1.01552 0.36301 0.19061 0.0
C1117 C 1.00984 0.36134 0.21028 0.0
C1118 C 0.99511 0.35457 0.21317 0.0
C1119 C 1.0312 0.37089 0.18759 0.0
C1120 C 1.03951 0.36665 0.19878 0.0
C1121 C 1.03796 0.38248 0.17376 0.0
C1122 C 1.02996 0.38814 0.16253 0.0
C1123 C 1.02169 0.39261 0.17312 0.0
C1124 C 1.0141 0.39785 0.16244 0.0
C1125 C 1.0148 0.39878 0.14117 0.0
C1126 C 1.02313 0.39451 0.13054 0.0
C1127 C 1.03072 0.38924 0.14115 0.0
H1128 H 1.00893 0.40284 0.13293 0.0
H1129 H 0.08408 0.35504 0.23954 0.0
H1130 H 0.70261 0.08502 0.48953 0.0
H1131 H 0.69132 0.05924 0.49318 0.0
H1132 H 0.7237 0.06452 0.5364 0.0
H1133 H 0.73528 0.09044 0.53234 0.0
H1134 H 0.71806 0.04337 0.51164 0.0
H1135 H 0.69001 0.05624 0.5521 0.0
H1136 H 0.67597 0.06771 0.55988 0.0
H1137 H 0.64563 0.04297 0.51359 0.0
H1138 H 0.65961 0.03148 0.50532 0.0
H1139 H 0.6757 0.9723 0.55248 0.0
H1140 H 0.6899 0.99807 0.54768 0.0
H1141 H 0.66311 0.99547 0.49724 0.0
H1142 H 0.64913 0.96965 0.50141 0.0
H1143 H 0.66639 1.0152 0.52736 0.0
H1144 H 0.69543 1.00248 0.4874 0.0
H1145 H 0.70961 0.99091 0.48141 0.0
H1146 H 0.73819 1.01525 0.52967 0.0
H1147 H 0.72404 1.02683 0.53614 0.0
C1148 C 0.70728 0.08068 0.49987 0.0
C1149 C 0.71971 0.0897 0.51084 0.0
C1150 C 0.70082 0.06595 0.50197 0.0
C1151 C 0.70649 0.05994 0.51539 0.0
C1152 C 0.71911 0.06893 0.52602 0.0
C1153 C 0.7257 0.0837 0.52372 0.0
C1154 C 0.69913 0.04429 0.51833 0.0
C1155 C 0.70681 0.03723 0.51538 0.0
C1156 C 0.6844 0.03625 0.523 0.0
C1157 C 0.67593 0.04309 0.52798 0.0
C1158 C 0.6804 0.05332 0.54348 0.0
C1159 C 0.67244 0.05981 0.54799 0.0
C1160 C 0.65993 0.0561 0.5372 0.0
C1161 C 0.65534 0.04585 0.52191 0.0
C1162 C 0.66326 0.03933 0.51732 0.0
C1163 C 0.67301 0.97713 0.54004 0.0
C1164 C 0.6612 0.96888 0.52739 0.0
C1165 C 0.68111 0.99188 0.5374 0.0
C1166 C 0.67752 0.99863 0.52213 0.0
C1167 C 0.66598 0.99043 0.50918 0.0
C1168 C 0.65797 0.97569 0.51167 0.0
C1169 C 0.68527 1.01433 0.52036 0.0
C1170 C 0.67764 1.02137 0.52365 0.0
C1171 C 0.70005 1.02233 0.51631 0.0
C1172 C 0.70858 1.01541 0.5124 0.0
C1173 C 0.70466 1.00527 0.49686 0.0
C1174 C 0.71271 0.99874 0.49335 0.0
C1175 C 0.72477 1.00232 0.50519 0.0
C1176 C 0.72883 1.01247 0.52053 0.0
C1177 C 0.72081 1.01903 0.52411 0.0
H1178 H 0.73099 0.99725 0.50245 0.0
H1179 H 0.65379 0.06114 0.54072 0.0
H1180 H 0.6694 0.71141 0.81306 0.0
H1181 H 0.6822 0.6983 0.81396 0.0
H1182 H 0.67374 0.69053 0.87839 0.0
H1183 H 0.66111 0.70391 0.87771 0.0
H1184 H 0.70141 0.69696 0.8675 0.0
H1185 H 0.65277 0.66565 0.84674 0.0
H1186 H 0.63139 0.6584 0.82559 0.0
H1187 H 0.65464 0.65954 0.77213 0.0
H1188 H 0.67623 0.66701 0.79294 0.0
H1189 H 0.7081 0.63585 0.88145 0.0
H1190 H 0.70104 0.65389 0.88013 0.0
H1191 H 0.70498 0.65577 0.81455 0.0
H1192 H 0.71183 0.63751 0.8158 0.0
H1193 H 0.68079 0.65352 0.82502 0.0
H1194 H 0.72916 0.68332 0.8459 0.0
H1195 H 0.7506 0.69068 0.86693 0.0
H1196 H 0.7284 0.69262 0.91971 0.0
H1197 H 0.70675 0.68508 0.89906 0.0
C1198 C 0.67053 0.70719 0.82752 0.0
C1199 C 0.6642 0.70864 0.84531 0.0
C1200 C 0.67776 0.69962 0.82797 0.0
C1201 C 0.67876 0.69332 0.84619 0.0
C1202 C 0.67304 0.69529 0.86418 0.0
C1203 C 0.66575 0.70283 0.86373 0.0
C1204 C 0.68493 0.6839 0.84616 0.0
C1205 C 0.69687 0.68739 0.85837 0.0
C1206 C 0.67915 0.67162 0.83387 0.0
C1207 C 0.66615 0.66704 0.82136 0.0
C1208 C 0.65335 0.66447 0.83045 0.0
C1209 C 0.64119 0.6603 0.81853 0.0
C1210 C 0.64167 0.65855 0.79752 0.0
C1211 C 0.6543 0.66093 0.7884 0.0
C1212 C 0.66649 0.66512 0.80025 0.0
C1213 C 0.70772 0.6403 0.86678 0.0
C1214 C 0.71054 0.6353 0.84872 0.0
C1215 C 0.7037 0.65063 0.86604 0.0
C1216 C 0.70264 0.65633 0.84726 0.0
C1217 C 0.70573 0.65154 0.82922 0.0
C1218 C 0.70962 0.6411 0.82994 0.0
C1219 C 0.69737 0.66653 0.84635 0.0
C1220 C 0.6855 0.66316 0.83402 0.0
C1221 C 0.70326 0.67893 0.85849 0.0
C1222 C 0.71629 0.68352 0.87095 0.0
C1223 C 0.72881 0.68521 0.86202 0.0
C1224 C 0.74101 0.68944 0.87387 0.0
C1225 C 0.74086 0.69208 0.89465 0.0
C1226 C 0.72851 0.69055 0.90362 0.0
C1227 C 0.71627 0.68632 0.89184 0.0
H1228 H 0.75031 0.69535 0.9038 0.0
H1229 H 0.63224 0.65532 0.78832 0.0
H1230 H 0.98705 0.62936 0.17923 0.0
H1231 H 1.01271 0.64425 0.18395 0.0
H1232 H 1.00843 0.68151 0.18707 0.0
H1233 H 0.98259 0.66659 0.18243 0.0
H1234 H 1.03038 0.68585 0.16253 0.0
H1235 H 1.01465 0.66813 0.23004 0.0
H1236 H 1.00163 0.64989 0.25648 0.0
H1237 H 1.02568 0.62961 0.24218 0.0
H1238 H 1.03871 0.64762 0.21545 0.0
H1239 H 0.103 0.72876 0.19534 0.0
H1240 H 0.07696 0.7168 0.19315 0.0
H1241 H 0.07478 0.67616 0.19015 0.0
H1242 H 0.10066 0.68795 0.193 0.0
H1243 H 0.05585 0.67541 0.21682 0.0
H1244 H 0.07011 0.6918 0.14771 0.0
H1245 H 0.08298 0.70969 0.12078 0.0
H1246 H 0.06166 0.73224 0.13792 0.0
H1247 H 0.0488 0.71457 0.16515 0.0
C1248 C 0.99151 0.64069 0.18124 0.0
C1249 C 0.98275 0.64678 0.18066 0.0
C1250 C 1.0062 0.6492 0.18388 0.0
C1251 C 1.01246 0.66396 0.18614 0.0
C1252 C 1.0038 0.67013 0.1854 0.0
C1253 C 0.98906 0.6616 0.18272 0.0
C1254 C 1.02809 0.6729 0.18888 0.0
C1255 C 1.03595 0.68375 0.17463 0.0
C1256 C 1.03534 0.66998 0.20446 0.0
C1257 C 1.02759 0.65918 0.22063 0.0
C1258 C 1.0171 0.65973 0.23244 0.0
C1259 C 1.00973 0.64944 0.24749 0.0
C1260 C 1.01281 0.63858 0.25098 0.0
C1261 C 1.0233 0.63802 0.23946 0.0
C1262 C 1.0307 0.64828 0.22437 0.0
C1263 C 0.09695 0.71728 0.19426 0.0
C1264 C 0.10391 0.70932 0.19424 0.0
C1265 C 0.08209 0.71047 0.19286 0.0
C1266 C 0.07394 0.69559 0.19134 0.0
C1267 C 0.08087 0.68765 0.19127 0.0
C1268 C 0.09568 0.69443 0.19268 0.0
C1269 C 0.05817 0.68817 0.19023 0.0
C1270 C 0.05028 0.6776 0.20485 0.0
C1271 C 0.05091 0.69134 0.17498 0.0
C1272 C 0.05862 0.70196 0.15861 0.0
C1273 C 0.06826 0.70064 0.14585 0.0
C1274 C 0.07553 0.71073 0.13051 0.0
C1275 C 0.07317 0.72212 0.12768 0.0
C1276 C 0.0635 0.72342 0.14016 0.0
C1277 C 0.05621 0.71337 0.15553 0.0
H1278 H 0.07881 0.72991 0.1158 0.0
H1279 H 1.00708 0.63062 0.26264 0.0
H1280 H 0.4127 0.09046 0.51309 0.0
H1281 H 0.39799 0.0647 0.50824 0.0
H1282 H 0.42367 0.05793 0.55233 0.0
H1283 H 0.43854 0.08359 0.55678 0.0
H1284 H 0.41976 0.04228 0.52078 0.0
H1285 H 0.38919 0.05144 0.56289 0.0
H1286 H 0.3756 0.06308 0.57244 0.0
H1287 H 0.35057 0.04761 0.51787 0.0
H1288 H 0.36415 0.03602 0.50785 0.0
H1289 H 0.37601 0.9691 0.54088 0.0
H1290 H 0.38769 0.99482 0.54537 0.0
H1291 H 0.36568 0.99816 0.49264 0.0
H1292 H 0.35422 0.97245 0.4876 0.0
H1293 H 0.36703 1.01537 0.52669 0.0
H1294 H 0.39776 1.00567 0.48562 0.0
H1295 H 0.41119 0.99363 0.47742 0.0
H1296 H 0.43594 1.01003 0.53206 0.0
H1297 H 0.42249 1.02199 0.54074 0.0
C1298 C 0.4151 0.08343 0.52181 0.0
C1299 C 0.42678 0.08899 0.53523 0.0
C1300 C 0.40669 0.06873 0.51909 0.0
C1301 C 0.40964 0.05935 0.53005 0.0
C1302 C 0.42121 0.06493 0.54363 0.0
C1303 C 0.42971 0.07959 0.54615 0.0
C1304 C 0.40105 0.04373 0.52701 0.0
C1305 C 0.40824 0.03641 0.52234 0.0
C1306 C 0.38598 0.03607 0.52851 0.0
C1307 C 0.37779 0.043 0.53452 0.0
C1308 C 0.38086 0.05061 0.55284 0.0
C1309 C 0.37315 0.05718 0.55835 0.0
C1310 C 0.36225 0.05612 0.54574 0.0
C1311 C 0.35902 0.04844 0.52761 0.0
C1312 C 0.36672 0.04186 0.52201 0.0
C1313 C 0.37365 0.97528 0.53019 0.0
C1314 C 0.36431 0.96872 0.51373 0.0
C1315 C 0.38027 0.98996 0.53287 0.0
C1316 C 0.37764 0.99836 0.51921 0.0
C1317 C 0.36781 0.99182 0.50335 0.0
C1318 C 0.36125 0.97712 0.50055 0.0
C1319 C 0.38581 1.01404 0.52087 0.0
C1320 C 0.37854 1.02132 0.52515 0.0
C1321 C 0.40083 1.0217 0.51921 0.0
C1322 C 0.40902 1.01461 0.51392 0.0
C1323 C 0.40598 1.00662 0.49597 0.0
C1324 C 0.41362 0.99982 0.49122 0.0
C1325 C 0.42439 1.00103 0.50424 0.0
C1326 C 0.42758 1.00908 0.522 0.0
C1327 C 0.41996 1.01588 0.52684 0.0
H1328 H 0.43029 0.99577 0.50054 0.0
H1329 H 0.35629 0.06121 0.55003 0.0
H1330 H 0.44367 0.37432 0.8409 0.0
H1331 H 0.42896 0.38509 0.84609 0.0
H1332 H 0.39173 0.34344 0.85286 0.0
H1333 H 0.40647 0.33252 0.84766 0.0
H1334 H 0.38647 0.3604 0.82835 0.0
H1335 H 0.4068 0.36413 0.89438 0.0
H1336 H 0.42605 0.37009 0.91927 0.0
H1337 H 0.44583 0.41415 0.90197 0.0
H1338 H 0.4268 0.40842 0.87676 0.0
H1339 H 0.34487 0.39048 0.86355 0.0
H1340 H 0.35673 0.37649 0.86056 0.0
H1341 H 0.39726 0.41515 0.85357 0.0
H1342 H 0.38561 0.42917 0.85729 0.0
H1343 H 0.39906 0.39763 0.88053 0.0
H1344 H 0.37982 0.39365 0.81284 0.0
H1345 H 0.36081 0.38778 0.78756 0.0
H1346 H 0.33907 0.34426 0.80796 0.0
H1347 H 0.35788 0.34993 0.83357 0.0
C1348 C 0.43239 0.36744 0.84379 0.0
C1349 C 0.42626 0.35257 0.84409 0.0
C1350 C 0.42398 0.37361 0.8467 0.0
C1351 C 0.40928 0.36507 0.85016 0.0
C1352 C 0.40307 0.35021 0.85026 0.0
C1353 C 0.41149 0.344 0.84727 0.0
C1354 C 0.40047 0.37178 0.85331 0.0
C1355 C 0.38905 0.36835 0.84 0.0
C1356 C 0.40399 0.38232 0.8683 0.0
C1357 C 0.41541 0.38582 0.88357 0.0
C1358 C 0.4153 0.37507 0.89578 0.0
C1359 C 0.42617 0.37841 0.90996 0.0
C1360 C 0.43717 0.39248 0.91217 0.0
C1361 C 0.43731 0.40325 0.90023 0.0
C1362 C 0.42647 0.39997 0.88601 0.0
C1363 C 0.35631 0.39599 0.86141 0.0
C1364 C 0.36428 0.41095 0.86058 0.0
C1365 C 0.36305 0.38798 0.85954 0.0
C1366 C 0.37787 0.39478 0.85671 0.0
C1367 C 0.38582 0.40968 0.85573 0.0
C1368 C 0.37911 0.41768 0.85763 0.0
C1369 C 0.38526 0.38649 0.85529 0.0
C1370 C 0.3964 0.38958 0.86899 0.0
C1371 C 0.38147 0.37566 0.84067 0.0
C1372 C 0.37017 0.37225 0.82527 0.0
C1373 C 0.37093 0.38286 0.81205 0.0
C1374 C 0.3602 0.37956 0.79764 0.0
C1375 C 0.34872 0.36566 0.79619 0.0
C1376 C 0.34796 0.35503 0.80912 0.0
C1377 C 0.35865 0.35827 0.82358 0.0
H1378 H 0.34042 0.36313 0.78502 0.0
H1379 H 0.44558 0.39504 0.92316 0.0
loop_
_geom_bond_atom_site_label_1
_geom_bond_atom_site_label_2
_geom_bond_distance
_geom_bond_site_symmetry_2
_ccdc_geom_bond_type
C0 C1 1.264 . S
C0 C5 1.479 . S
C0 C10 1.465 . S
C1 C0 1.264 . S
C1 C3 1.339 . S
C1 H28 0.931 . S
C2 C3 1.395 . S
C2 C4 1.320 . S
C3 C1 1.339 . S
C3 C2 1.395 . S
C3 H29 0.929 . S
C4 C2 1.320 . S
C4 C5 1.405 . S
C4 H30 0.930 . S
C5 C0 1.479 . S
C5 C4 1.405 . S
C5 H31 0.931 . S
U6 O7 2.454 . S
U6 O8 2.458 . S
U6 C9 2.984 . S
U6 C10 2.847 . S
U6 C23 2.882 . S
U6 O24 2.441 . S
U6 O25 2.420 . S
U6 O26 2.455 . S
U6 O27 2.449 . S
O7 U6 2.454 . S
O7 C9 1.353 . S
O8 U6 2.458 . S
O8 C9 1.286 . S
C9 U6 2.984 . S
C9 O7 1.353 . S
C9 O8 1.286 . S
C9 C11 1.363 . S
C10 C0 1.465 . S
C10 U6 2.847 . S
C10 O24 1.249 . S
C10 O25 1.202 . S
C11 C9 1.363 . S
C11 C13 1.408 . S
C11 C16 1.342 . S
C12 C13 1.310 . S
C12 C15 1.461 . S
C12 H32 0.932 . S
C13 C11 1.408 . S
C13 C12 1.310 . S
C13 H33 0.930 . S
C14 C15 1.474 . S
C14 C16 1.285 . S
C14 H34 0.929 . S
C15 C12 1.461 . S
C15 C14 1.474 . S
C16 C11 1.342 . S
C16 C14 1.285 . S
C16 H35 0.930 . S
C17 C20 1.424 . S
C17 C22 1.245 . S
C17 C23 1.428 . S
C18 C21 1.260 . S
C18 C22 1.477 . S
C18 H36 0.932 . S
C19 C20 1.384 . S
C19 C21 1.479 . S
C19 H37 0.929 . S
C20 C17 1.424 . S
C20 C19 1.384 . S
C20 H38 0.928 . S
C21 C18 1.260 . S
C21 C19 1.479 . S
C22 C17 1.245 . S
C22 C18 1.477 . S
C22 H39 0.932 . S
C23 U6 2.882 . S
C23 C17 1.428 . S
C23 O26 1.301 . S
C23 O27 1.282 . S
O24 U6 2.441 . S
O24 C10 1.249 . S
O25 U6 2.420 . S
O25 C10 1.202 . S
O26 U6 2.455 . S
O26 C23 1.301 . S
O27 U6 2.449 . S
O27 C23 1.282 . S
H28 C1 0.931 . S
H29 C3 0.929 . S
H30 C4 0.930 . S
H31 C5 0.931 . S
H32 C12 0.932 . S
H33 C13 0.930 . S
H34 C14 0.929 . S
H35 C16 0.930 . S
H36 C18 0.932 . S
H37 C19 0.929 . S
H38 C20 0.928 . S
H39 C22 0.932 . S
C40 C41 1.264 . S
C40 C45 1.479 . S
C40 C50 1.465 . S
C41 C40 1.264 . S
C41 C43 1.339 . S
C41 H68 0.931 . S
C42 C43 1.395 . S
C42 C44 1.320 . S
C43 C41 1.339 . S
C43 C42 1.395 . S
C43 H69 0.929 . S
C44 C42 1.320 . S
C44 C45 1.405 . S
C44 H70 0.930 . S
C45 C40 1.479 . S
C45 C44 1.405 . S
C45 H71 0.931 . S
U46 O47 2.454 . S
U46 O48 2.458 . S
U46 C49 2.984 . S
U46 C50 2.847 . S
U46 C63 2.882 . S
U46 O64 2.441 . S
U46 O65 2.420 . S
U46 O66 2.455 . S
U46 O67 2.449 . S
O47 U46 2.454 . S
O47 C49 1.353 . S
O48 U46 2.458 . S
O48 C49 1.286 . S
C49 U46 2.984 . S
C49 O47 1.353 . S
C49 O48 1.286 . S
C49 C51 1.363 . S
C50 C40 1.465 . S
C50 U46 2.847 . S
C50 O64 1.249 . S
C50 O65 1.202 . S
C51 C49 1.363 . S
C51 C53 1.408 . S
C51 C56 1.342 . S
C52 C53 1.310 . S
C52 C55 1.461 . S
C52 H72 0.932 . S
C53 C51 1.408 . S
C53 C52 1.310 . S
C53 H73 0.930 . S
C54 C55 1.474 . S
C54 C56 1.285 . S
C54 H74 0.929 . S
C55 C52 1.461 . S
C55 C54 1.474 . S
C56 C51 1.342 . S
C56 C54 1.285 . S
C56 H75 0.930 . S
C57 C60 1.424 . S
C57 C62 1.245 . S
C57 C63 1.428 . S
C58 C61 1.260 . S
C58 C62 1.477 . S
C58 H76 0.932 . S
C59 C60 1.384 . S
C59 C61 1.479 . S
C59 H77 0.929 . S
C60 C57 1.424 . S
C60 C59 1.384 . S
C60 H78 0.928 . S
C61 C58 1.260 . S
C61 C59 1.479 . S
C62 C57 1.245 . S
C62 C58 1.477 . S
C62 H79 0.932 . S
C63 U46 2.882 . S
C63 C57 1.428 . S
C63 O66 1.301 . S
C63 O67 1.282 . S
O64 U46 2.441 . S
O64 C50 1.249 . S
O65 U46 2.420 . S
O65 C50 1.202 . S
O66 U46 2.455 . S
O66 C63 1.301 . S
O67 U46 2.449 . S
O67 C63 1.282 . S
H68 C41 0.931 . S
H69 C43 0.929 . S
H70 C44 0.930 . S
H71 C45 0.931 . S
H72 C52 0.932 . S
H73 C53 0.930 . S
H74 C54 0.929 . S
H75 C56 0.930 . S
H76 C58 0.932 . S
H77 C59 0.929 . S
H78 C60 0.928 . S
H79 C62 0.932 . S
C80 C81 1.264 . S
C80 C85 1.479 . S
C80 C90 1.465 . S
C81 C80 1.264 . S
C81 C83 1.339 . S
C81 H108 0.931 . S
C82 C83 1.395 . S
C82 C84 1.320 . S
C83 C81 1.339 . S
C83 C82 1.395 . S
C83 H109 0.929 . S
C84 C82 1.320 . S
C84 C85 1.405 . S
C84 H110 0.930 . S
C85 C80 1.479 . S
C85 C84 1.405 . S
C85 H111 0.931 . S
U86 O87 2.454 . S
U86 O88 2.458 . S
U86 C89 2.984 . S
U86 C90 2.847 . S
U86 C103 2.882 . S
U86 O104 2.441 . S
U86 O105 2.420 . S
U86 O106 2.455 . S
U86 O107 2.449 . S
O87 U86 2.454 . S
O87 C89 1.353 . S
O88 U86 2.458 . S
O88 C89 1.286 . S
C89 U86 2.984 . S
C89 O87 1.353 . S
C89 O88 1.286 . S
C89 C91 1.363 . S
C90 C80 1.465 . S
C90 U86 2.847 . S
C90 O104 1.249 . S
C90 O105 1.202 . S
C91 C89 1.363 . S
C91 C93 1.408 . S
C91 C96 1.342 . S
C92 C93 1.310 . S
C92 C95 1.461 . S
C92 H112 0.932 . S
C93 C91 1.408 . S
C93 C92 1.310 . S
C93 H113 0.930 . S
C94 C95 1.474 . S
C94 C96 1.285 . S
C94 H114 0.929 . S
C95 C92 1.461 . S
C95 C94 1.474 . S
C96 C91 1.342 . S
C96 C94 1.285 . S
C96 H115 0.930 . S
C97 C100 1.424 . S
C97 C102 1.245 . S
C97 C103 1.428 . S
C98 C101 1.260 . S
C98 C102 1.477 . S
C98 H116 0.932 . S
C99 C100 1.384 . S
C99 C101 1.479 . S
C99 H117 0.929 . S
C100 C97 1.424 . S
C100 C99 1.384 . S
C100 H118 0.928 . S
C101 C98 1.260 . S
C101 C99 1.479 . S
C102 C97 1.245 . S
C102 C98 1.477 . S
C102 H119 0.932 . S
C103 U86 2.882 . S
C103 C97 1.428 . S
C103 O106 1.301 . S
C103 O107 1.282 . S
O104 U86 2.441 . S
O104 C90 1.249 . S
O105 U86 2.420 . S
O105 C90 1.202 . S
O106 U86 2.455 . S
O106 C103 1.301 . S
O107 U86 2.449 . S
O107 C103 1.282 . S
H108 C81 0.931 . S
H109 C83 0.929 . S
H110 C84 0.930 . S
H111 C85 0.931 . S
H112 C92 0.932 . S
H113 C93 0.930 . S
H114 C94 0.929 . S
H115 C96 0.930 . S
H116 C98 0.932 . S
H117 C99 0.929 . S
H118 C100 0.928 . S
H119 C102 0.932 . S
C120 C121 1.264 . S
C120 C125 1.479 . S
C120 C130 1.465 . S
C121 C120 1.264 . S
C121 C123 1.339 . S
C121 H148 0.931 . S
C122 C123 1.395 . S
C122 C124 1.320 . S
C123 C121 1.339 . S
C123 C122 1.395 . S
C123 H149 0.929 . S
C124 C122 1.320 . S
C124 C125 1.405 . S
C124 H150 0.930 . S
C125 C120 1.479 . S
C125 C124 1.405 . S
C125 H151 0.931 . S
U126 O127 2.454 . S
U126 O128 2.458 . S
U126 C129 2.984 . S
U126 C130 2.847 . S
U126 C143 2.882 . S
U126 O144 2.441 . S
U126 O145 2.420 . S
U126 O146 2.455 . S
U126 O147 2.449 . S
O127 U126 2.454 . S
O127 C129 1.353 . S
O128 U126 2.458 . S
O128 C129 1.286 . S
C129 U126 2.984 . S
C129 O127 1.353 . S
C129 O128 1.286 . S
C129 C131 1.363 . S
C130 C120 1.465 . S
C130 U126 2.847 . S
C130 O144 1.249 . S
C130 O145 1.202 . S
C131 C129 1.363 . S
C131 C133 1.408 . S
C131 C136 1.342 . S
C132 C133 1.310 . S
C132 C135 1.461 . S
C132 H152 0.932 . S
C133 C131 1.408 . S
C133 C132 1.310 . S
C133 H153 0.930 . S
C134 C135 1.474 . S
C134 C136 1.285 . S
C134 H154 0.929 . S
C135 C132 1.461 . S
C135 C134 1.474 . S
C136 C131 1.342 . S
C136 C134 1.285 . S
C136 H155 0.930 . S
C137 C140 1.424 . S
C137 C142 1.245 . S
C137 C143 1.428 . S
C138 C141 1.260 . S
C138 C142 1.477 . S
C138 H156 0.932 . S
C139 C140 1.384 . S
C139 C141 1.479 . S
C139 H157 0.929 . S
C140 C137 1.424 . S
C140 C139 1.384 . S
C140 H158 0.928 . S
C141 C138 1.260 . S
C141 C139 1.479 . S
C142 C137 1.245 . S
C142 C138 1.477 . S
C142 H159 0.932 . S
C143 U126 2.882 . S
C143 C137 1.428 . S
C143 O146 1.301 . S
C143 O147 1.282 . S
O144 U126 2.441 . S
O144 C130 1.249 . S
O145 U126 2.420 . S
O145 C130 1.202 . S
O146 U126 2.455 . S
O146 C143 1.301 . S
O147 U126 2.449 . S
O147 C143 1.282 . S
H148 C121 0.931 . S
H149 C123 0.929 . S
H150 C124 0.930 . S
H151 C125 0.931 . S
H152 C132 0.932 . S
H153 C133 0.930 . S
H154 C134 0.929 . S
H155 C136 0.930 . S
H156 C138 0.932 . S
H157 C139 0.929 . S
H158 C140 0.928 . S
H159 C142 0.932 . S
C160 C161 1.264 . S
C160 C165 1.479 . S
C160 C170 1.465 . S
C161 C160 1.264 . S
C161 C163 1.339 . S
C161 H188 0.931 . S
C162 C163 1.395 . S
C162 C164 1.320 . S
C163 C161 1.339 . S
C163 C162 1.395 . S
C163 H189 0.929 . S
C164 C162 1.320 . S
C164 C165 1.405 . S
C164 H190 0.930 . S
C165 C160 1.479 . S
C165 C164 1.405 . S
C165 H191 0.931 . S
U166 O167 2.454 . S
U166 O168 2.458 . S
U166 C169 2.984 . S
U166 C170 2.847 . S
U166 C183 2.882 . S
U166 O184 2.441 . S
U166 O185 2.420 . S
U166 O186 2.455 . S
U166 O187 2.449 . S
O167 U166 2.454 . S
O167 C169 1.353 . S
O168 U166 2.458 . S
O168 C169 1.286 . S
C169 U166 2.984 . S
C169 O167 1.353 . S
C169 O168 1.286 . S
C169 C171 1.363 . S
C170 C160 1.465 . S
C170 U166 2.847 . S
C170 O184 1.249 . S
C170 O185 1.202 . S
C171 C169 1.363 . S
C171 C173 1.408 . S
C171 C176 1.342 . S
C172 C173 1.310 . S
C172 C175 1.461 . S
C172 H192 0.932 . S
C173 C171 1.408 . S
C173 C172 1.310 . S
C173 H193 0.930 . S
C174 C175 1.474 . S
C174 C176 1.285 . S
C174 H194 0.929 . S
C175 C172 1.461 . S
C175 C174 1.474 . S
C176 C171 1.342 . S
C176 C174 1.285 . S
C176 H195 0.930 . S
C177 C180 1.424 . S
C177 C182 1.245 . S
C177 C183 1.428 . S
C178 C181 1.260 . S
C178 C182 1.477 . S
C178 H196 0.932 . S
C179 C180 1.384 . S
C179 C181 1.479 . S
C179 H197 0.929 . S
C180 C177 1.424 . S
C180 C179 1.384 . S
C180 H198 0.928 . S
C181 C178 1.260 . S
C181 C179 1.479 . S
C182 C177 1.245 . S
C182 C178 1.477 . S
C182 H199 0.932 . S
C183 U166 2.882 . S
C183 C177 1.428 . S
C183 O186 1.301 . S
C183 O187 1.282 . S
O184 U166 2.441 . S
O184 C170 1.249 . S
O185 U166 2.420 . S
O185 C170 1.202 . S
O186 U166 2.455 . S
O186 C183 1.301 . S
O187 U166 2.449 . S
O187 C183 1.282 . S
H188 C161 0.931 . S
H189 C163 0.929 . S
H190 C164 0.930 . S
H191 C165 0.931 . S
H192 C172 0.932 . S
H193 C173 0.930 . S
H194 C174 0.929 . S
H195 C176 0.930 . S
H196 C178 0.932 . S
H197 C179 0.929 . S
H198 C180 0.928 . S
H199 C182 0.932 . S
C200 C201 1.264 . S
C200 C205 1.479 . S
C200 C210 1.465 . S
C201 C200 1.264 . S
C201 C203 1.339 . S
C201 H228 0.931 . S
C202 C203 1.395 . S
C202 C204 1.320 . S
C203 C201 1.339 . S
C203 C202 1.395 . S
C203 H229 0.929 . S
C204 C202 1.320 . S
C204 C205 1.405 . S
C204 H230 0.930 . S
C205 C200 1.479 . S
C205 C204 1.405 . S
C205 H231 0.931 . S
U206 O207 2.454 . S
U206 O208 2.458 . S
U206 C209 2.984 . S
U206 C210 2.847 . S
U206 C223 2.882 . S
U206 O224 2.441 . S
U206 O225 2.420 . S
U206 O226 2.455 . S
U206 O227 2.449 . S
O207 U206 2.454 . S
O207 C209 1.353 . S
O208 U206 2.458 . S
O208 C209 1.286 . S
C209 U206 2.984 . S
C209 O207 1.353 . S
C209 O208 1.286 . S
C209 C211 1.363 . S
C210 C200 1.465 . S
C210 U206 2.847 . S
C210 O224 1.249 . S
C210 O225 1.202 . S
C211 C209 1.363 . S
C211 C213 1.408 . S
C211 C216 1.342 . S
C212 C213 1.310 . S
C212 C215 1.461 . S
C212 H232 0.932 . S
C213 C211 1.408 . S
C213 C212 1.310 . S
C213 H233 0.930 . S
C214 C215 1.474 . S
C214 C216 1.285 . S
C214 H234 0.929 . S
C215 C212 1.461 . S
C215 C214 1.474 . S
C216 C211 1.342 . S
C216 C214 1.285 . S
C216 H235 0.930 . S
C217 C220 1.424 . S
C217 C222 1.245 . S
C217 C223 1.428 . S
C218 C221 1.260 . S
C218 C222 1.477 . S
C218 H236 0.932 . S
C219 C220 1.384 . S
C219 C221 1.479 . S
C219 H237 0.929 . S
C220 C217 1.424 . S
C220 C219 1.384 . S
C220 H238 0.928 . S
C221 C218 1.260 . S
C221 C219 1.479 . S
C222 C217 1.245 . S
C222 C218 1.477 . S
C222 H239 0.932 . S
C223 U206 2.882 . S
C223 C217 1.428 . S
C223 O226 1.301 . S
C223 O227 1.282 . S
O224 U206 2.441 . S
O224 C210 1.249 . S
O225 U206 2.420 . S
O225 C210 1.202 . S
O226 U206 2.455 . S
O226 C223 1.301 . S
O227 U206 2.449 . S
O227 C223 1.282 . S
H228 C201 0.931 . S
H229 C203 0.929 . S
H230 C204 0.930 . S
H231 C205 0.931 . S
H232 C212 0.932 . S
H233 C213 0.930 . S
H234 C214 0.929 . S
H235 C216 0.930 . S
H236 C218 0.932 . S
H237 C219 0.929 . S
H238 C220 0.928 . S
H239 C222 0.932 . S
C240 C241 1.264 . S
C240 C245 1.479 . S
C240 C250 1.465 . S
C241 C240 1.264 . S
C241 C243 1.339 . S
C241 H268 0.931 . S
C242 C243 1.395 . S
C242 C244 1.320 . S
C243 C241 1.339 . S
C243 C242 1.395 . S
C243 H269 0.929 . S
C244 C242 1.320 . S
C244 C245 1.405 . S
C244 H270 0.930 . S
C245 C240 1.479 . S
C245 C244 1.405 . S
C245 H271 0.931 . S
U246 O247 2.454 . S
U246 O248 2.458 . S
U246 C249 2.984 . S
U246 C250 2.847 . S
U246 C263 2.882 . S
U246 O264 2.441 . S
U246 O265 2.420 . S
U246 O266 2.455 . S
U246 O267 2.449 . S
O247 U246 2.454 . S
O247 C249 1.353 . S
O248 U246 2.458 . S
O248 C249 1.286 . S
C249 U246 2.984 . S
C249 O247 1.353 . S
C249 O248 1.286 . S
C249 C251 1.363 . S
C250 C240 1.465 . S
C250 U246 2.847 . S
C250 O264 1.249 . S
C250 O265 1.202 . S
C251 C249 1.363 . S
C251 C253 1.408 . S
C251 C256 1.342 . S
C252 C253 1.310 . S
C252 C255 1.461 . S
C252 H272 0.932 . S
C253 C251 1.408 . S
C253 C252 1.310 . S
C253 H273 0.930 . S
C254 C255 1.474 . S
C254 C256 1.285 . S
C254 H274 0.929 . S
C255 C252 1.461 . S
C255 C254 1.474 . S
C256 C251 1.342 . S
C256 C254 1.285 . S
C256 H275 0.930 . S
C257 C260 1.424 . S
C257 C262 1.245 . S
C257 C263 1.428 . S
C258 C261 1.260 . S
C258 C262 1.477 . S
C258 H276 0.932 . S
C259 C260 1.384 . S
C259 C261 1.479 . S
C259 H277 0.929 . S
C260 C257 1.424 . S
C260 C259 1.384 . S
C260 H278 0.928 . S
C261 C258 1.260 . S
C261 C259 1.479 . S
C262 C257 1.245 . S
C262 C258 1.477 . S
C262 H279 0.932 . S
C263 U246 2.882 . S
C263 C257 1.428 . S
C263 O266 1.301 . S
C263 O267 1.282 . S
O264 U246 2.441 . S
O264 C250 1.249 . S
O265 U246 2.420 . S
O265 C250 1.202 . S
O266 U246 2.455 . S
O266 C263 1.301 . S
O267 U246 2.449 . S
O267 C263 1.282 . S
H268 C241 0.931 . S
H269 C243 0.929 . S
H270 C244 0.930 . S
H271 C245 0.931 . S
H272 C252 0.932 . S
H273 C253 0.930 . S
H274 C254 0.929 . S
H275 C256 0.930 . S
H276 C258 0.932 . S
H277 C259 0.929 . S
H278 C260 0.928 . S
H279 C262 0.932 . S
C280 C281 1.264 . S
C280 C285 1.479 . S
C280 C290 1.465 . S
C281 C280 1.264 . S
C281 C283 1.339 . S
C281 H308 0.931 . S
C282 C283 1.395 . S
C282 C284 1.320 . S
C283 C281 1.339 . S
C283 C282 1.395 . S
C283 H309 0.929 . S
C284 C282 1.320 . S
C284 C285 1.405 . S
C284 H310 0.930 . S
C285 C280 1.479 . S
C285 C284 1.405 . S
C285 H311 0.931 . S
U286 O287 2.454 . S
U286 O288 2.458 . S
U286 C289 2.984 . S
U286 C290 2.847 . S
U286 C303 2.882 . S
U286 O304 2.441 . S
U286 O305 2.420 . S
U286 O306 2.455 . S
U286 O307 2.449 . S
O287 U286 2.454 . S
O287 C289 1.353 . S
O288 U286 2.458 . S
O288 C289 1.286 . S
C289 U286 2.984 . S
C289 O287 1.353 . S
C289 O288 1.286 . S
C289 C291 1.363 . S
C290 C280 1.465 . S
C290 U286 2.847 . S
C290 O304 1.249 . S
C290 O305 1.202 . S
C291 C289 1.363 . S
C291 C293 1.408 . S
C291 C296 1.342 . S
C292 C293 1.310 . S
C292 C295 1.461 . S
C292 H312 0.932 . S
C293 C291 1.408 . S
C293 C292 1.310 . S
C293 H313 0.930 . S
C294 C295 1.474 . S
C294 C296 1.285 . S
C294 H314 0.929 . S
C295 C292 1.461 . S
C295 C294 1.474 . S
C296 C291 1.342 . S
C296 C294 1.285 . S
C296 H315 0.930 . S
C297 C300 1.424 . S
C297 C302 1.245 . S
C297 C303 1.428 . S
C298 C301 1.260 . S
C298 C302 1.477 . S
C298 H316 0.932 . S
C299 C300 1.384 . S
C299 C301 1.479 . S
C299 H317 0.929 . S
C300 C297 1.424 . S
C300 C299 1.384 . S
C300 H318 0.928 . S
C301 C298 1.260 . S
C301 C299 1.479 . S
C302 C297 1.245 . S
C302 C298 1.477 . S
C302 H319 0.932 . S
C303 U286 2.882 . S
C303 C297 1.428 . S
C303 O306 1.301 . S
C303 O307 1.282 . S
O304 U286 2.441 . S
O304 C290 1.249 . S
O305 U286 2.420 . S
O305 C290 1.202 . S
O306 U286 2.455 . S
O306 C303 1.301 . S
O307 U286 2.449 . S
O307 C303 1.282 . S
H308 C281 0.931 . S
H309 C283 0.929 . S
H310 C284 0.930 . S
H311 C285 0.931 . S
H312 C292 0.932 . S
H313 C293 0.930 . S
H314 C294 0.929 . S
H315 C296 0.930 . S
H316 C298 0.932 . S
H317 C299 0.929 . S
H318 C300 0.928 . S
H319 C302 0.932 . S
C320 C321 1.264 . S
C320 C325 1.479 . S
C320 C330 1.465 . S
C321 C320 1.264 . S
C321 C323 1.339 . S
C321 H348 0.931 . S
C322 C323 1.395 . S
C322 C324 1.320 . S
C323 C321 1.339 . S
C323 C322 1.395 . S
C323 H349 0.929 . S
C324 C322 1.320 . S
C324 C325 1.405 . S
C324 H350 0.930 . S
C325 C320 1.479 . S
C325 C324 1.405 . S
C325 H351 0.931 . S
U326 O327 2.454 . S
U326 O328 2.458 . S
U326 C329 2.984 . S
U326 C330 2.847 . S
U326 C343 2.882 . S
U326 O344 2.441 . S
U326 O345 2.420 . S
U326 O346 2.455 . S
U326 O347 2.449 . S
O327 U326 2.454 . S
O327 C329 1.353 . S
O328 U326 2.458 . S
O328 C329 1.286 . S
C329 U326 2.984 . S
C329 O327 1.353 . S
C329 O328 1.286 . S
C329 C331 1.363 . S
C330 C320 1.465 . S
C330 U326 2.847 . S
C330 O344 1.249 . S
C330 O345 1.202 . S
C331 C329 1.363 . S
C331 C333 1.408 . S
C331 C336 1.342 . S
C332 C333 1.310 . S
C332 C335 1.461 . S
C332 H352 0.932 . S
C333 C331 1.408 . S
C333 C332 1.310 . S
C333 H353 0.930 . S
C334 C335 1.474 . S
C334 C336 1.285 . S
C334 H354 0.929 . S
C335 C332 1.461 . S
C335 C334 1.474 . S
C336 C331 1.342 . S
C336 C334 1.285 . S
C336 H355 0.930 . S
C337 C340 1.424 . S
C337 C342 1.245 . S
C337 C343 1.428 . S
C338 C341 1.260 . S
C338 C342 1.477 . S
C338 H356 0.932 . S
C339 C340 1.384 . S
C339 C341 1.479 . S
C339 H357 0.929 . S
C340 C337 1.424 . S
C340 C339 1.384 . S
C340 H358 0.928 . S
C341 C338 1.260 . S
C341 C339 1.479 . S
C342 C337 1.245 . S
C342 C338 1.477 . S
C342 H359 0.932 . S
C343 U326 2.882 . S
C343 C337 1.428 . S
C343 O346 1.301 . S
C343 O347 1.282 . S
O344 U326 2.441 . S
O344 C330 1.249 . S
O345 U326 2.420 . S
O345 C330 1.202 . S
O346 U326 2.455 . S
O346 C343 1.301 . S
O347 U326 2.449 . S
O347 C343 1.282 . S
H348 C321 0.931 . S
H349 C323 0.929 . S
H350 C324 0.930 . S
H351 C325 0.931 . S
H352 C332 0.932 . S
H353 C333 0.930 . S
H354 C334 0.929 . S
H355 C336 0.930 . S
H356 C338 0.932 . S
H357 C339 0.929 . S
H358 C340 0.928 . S
H359 C342 0.932 . S
C360 C361 1.264 . S
C360 C365 1.479 . S
C360 C370 1.465 . S
C361 C360 1.264 . S
C361 C363 1.339 . S
C361 H388 0.931 . S
C362 C363 1.395 . S
C362 C364 1.320 . S
C363 C361 1.339 . S
C363 C362 1.395 . S
C363 H389 0.929 . S
C364 C362 1.320 . S
C364 C365 1.405 . S
C364 H390 0.930 . S
C365 C360 1.479 . S
C365 C364 1.405 . S
C365 H391 0.931 . S
U366 O367 2.454 . S
U366 O368 2.458 . S
U366 C369 2.984 . S
U366 C370 2.847 . S
U366 C383 2.882 . S
U366 O384 2.441 . S
U366 O385 2.420 . S
U366 O386 2.455 . S
U366 O387 2.449 . S
O367 U366 2.454 . S
O367 C369 1.353 . S
O368 U366 2.458 . S
O368 C369 1.286 . S
C369 U366 2.984 . S
C369 O367 1.353 . S
C369 O368 1.286 . S
C369 C371 1.363 . S
C370 C360 1.465 . S
C370 U366 2.847 . S
C370 O384 1.249 . S
C370 O385 1.202 . S
C371 C369 1.363 . S
C371 C373 1.408 . S
C371 C376 1.342 . S
C372 C373 1.310 . S
C372 C375 1.461 . S
C372 H392 0.932 . S
C373 C371 1.408 . S
C373 C372 1.310 . S
C373 H393 0.930 . S
C374 C375 1.474 . S
C374 C376 1.285 . S
C374 H394 0.929 . S
C375 C372 1.461 . S
C375 C374 1.474 . S
C376 C371 1.342 . S
C376 C374 1.285 . S
C376 H395 0.930 . S
C377 C380 1.424 . S
C377 C382 1.245 . S
C377 C383 1.428 . S
C378 C381 1.260 . S
C378 C382 1.477 . S
C378 H396 0.932 . S
C379 C380 1.384 . S
C379 C381 1.479 . S
C379 H397 0.929 . S
C380 C377 1.424 . S
C380 C379 1.384 . S
C380 H398 0.928 . S
C381 C378 1.260 . S
C381 C379 1.479 . S
C382 C377 1.245 . S
C382 C378 1.477 . S
C382 H399 0.932 . S
C383 U366 2.882 . S
C383 C377 1.428 . S
C383 O386 1.301 . S
C383 O387 1.282 . S
O384 U366 2.441 . S
O384 C370 1.249 . S
O385 U366 2.420 . S
O385 C370 1.202 . S
O386 U366 2.455 . S
O386 C383 1.301 . S
O387 U366 2.449 . S
O387 C383 1.282 . S
H388 C361 0.931 . S
H389 C363 0.929 . S
H390 C364 0.930 . S
H391 C365 0.931 . S
H392 C372 0.932 . S
H393 C373 0.930 . S
H394 C374 0.929 . S
H395 C376 0.930 . S
H396 C378 0.932 . S
H397 C379 0.929 . S
H398 C380 0.928 . S
H399 C382 0.932 . S
C400 C401 1.264 . S
C400 C405 1.479 . S
C400 C410 1.465 . S
C401 C400 1.264 . S
C401 C403 1.339 . S
C401 H428 0.931 . S
C402 C403 1.395 . S
C402 C404 1.320 . S
C403 C401 1.339 . S
C403 C402 1.395 . S
C403 H429 0.929 . S
C404 C402 1.320 . S
C404 C405 1.405 . S
C404 H430 0.930 . S
C405 C400 1.479 . S
C405 C404 1.405 . S
C405 H431 0.931 . S
U406 O407 2.454 . S
U406 O408 2.458 . S
U406 C409 2.984 . S
U406 C410 2.847 . S
U406 C423 2.882 . S
U406 O424 2.441 . S
U406 O425 2.420 . S
U406 O426 2.455 . S
U406 O427 2.449 . S
O407 U406 2.454 . S
O407 C409 1.353 . S
O408 U406 2.458 . S
O408 C409 1.286 . S
C409 U406 2.984 . S
C409 O407 1.353 . S
C409 O408 1.286 . S
C409 C411 1.363 . S
C410 C400 1.465 . S
C410 U406 2.847 . S
C410 O424 1.249 . S
C410 O425 1.202 . S
C411 C409 1.363 . S
C411 C413 1.408 . S
C411 C416 1.342 . S
C412 C413 1.310 . S
C412 C415 1.461 . S
C412 H432 0.932 . S
C413 C411 1.408 . S
C413 C412 1.310 . S
C413 H433 0.930 . S
C414 C415 1.474 . S
C414 C416 1.285 . S
C414 H434 0.929 . S
C415 C412 1.461 . S
C415 C414 1.474 . S
C416 C411 1.342 . S
C416 C414 1.285 . S
C416 H435 0.930 . S
C417 C420 1.424 . S
C417 C422 1.245 . S
C417 C423 1.428 . S
C418 C421 1.260 . S
C418 C422 1.477 . S
C418 H436 0.932 . S
C419 C420 1.384 . S
C419 C421 1.479 . S
C419 H437 0.929 . S
C420 C417 1.424 . S
C420 C419 1.384 . S
C420 H438 0.928 . S
C421 C418 1.260 . S
C421 C419 1.479 . S
C422 C417 1.245 . S
C422 C418 1.477 . S
C422 H439 0.932 . S
C423 U406 2.882 . S
C423 C417 1.428 . S
C423 O426 1.301 . S
C423 O427 1.282 . S
O424 U406 2.441 . S
O424 C410 1.249 . S
O425 U406 2.420 . S
O425 C410 1.202 . S
O426 U406 2.455 . S
O426 C423 1.301 . S
O427 U406 2.449 . S
O427 C423 1.282 . S
H428 C401 0.931 . S
H429 C403 0.929 . S
H430 C404 0.930 . S
H431 C405 0.931 . S
H432 C412 0.932 . S
H433 C413 0.930 . S
H434 C414 0.929 . S
H435 C416 0.930 . S
H436 C418 0.932 . S
H437 C419 0.929 . S
H438 C420 0.928 . S
H439 C422 0.932 . S
C440 C441 1.264 . S
C440 C445 1.479 . S
C440 C450 1.465 . S
C441 C440 1.264 . S
C441 C443 1.339 . S
C441 H468 0.931 . S
C442 C443 1.395 . S
C442 C444 1.320 . S
C443 C441 1.339 . S
C443 C442 1.395 . S
C443 H469 0.929 . S
C444 C442 1.320 . S
C444 C445 1.405 . S
C444 H470 0.930 . S
C445 C440 1.479 . S
C445 C444 1.405 . S
C445 H471 0.931 . S
U446 O447 2.454 . S
U446 O448 2.458 . S
U446 C449 2.984 . S
U446 C450 2.847 . S
U446 C463 2.882 . S
U446 O464 2.441 . S
U446 O465 2.420 . S
U446 O466 2.455 . S
U446 O467 2.449 . S
O447 U446 2.454 . S
O447 C449 1.353 . S
O448 U446 2.458 . S
O448 C449 1.286 . S
C449 U446 2.984 . S
C449 O447 1.353 . S
C449 O448 1.286 . S
C449 C451 1.363 . S
C450 C440 1.465 . S
C450 U446 2.847 . S
C450 O464 1.249 . S
C450 O465 1.202 . S
C451 C449 1.363 . S
C451 C453 1.408 . S
C451 C456 1.342 . S
C452 C453 1.310 . S
C452 C455 1.461 . S
C452 H472 0.932 . S
C453 C451 1.408 . S
C453 C452 1.310 . S
C453 H473 0.930 . S
C454 C455 1.474 . S
C454 C456 1.285 . S
C454 H474 0.929 . S
C455 C452 1.461 . S
C455 C454 1.474 . S
C456 C451 1.342 . S
C456 C454 1.285 . S
C456 H475 0.930 . S
C457 C460 1.424 . S
C457 C462 1.245 . S
C457 C463 1.428 . S
C458 C461 1.260 . S
C458 C462 1.477 . S
C458 H476 0.932 . S
C459 C460 1.384 . S
C459 C461 1.479 . S
C459 H477 0.929 . S
C460 C457 1.424 . S
C460 C459 1.384 . S
C460 H478 0.928 . S
C461 C458 1.260 . S
C461 C459 1.479 . S
C462 C457 1.245 . S
C462 C458 1.477 . S
C462 H479 0.932 . S
C463 U446 2.882 . S
C463 C457 1.428 . S
C463 O466 1.301 . S
C463 O467 1.282 . S
O464 U446 2.441 . S
O464 C450 1.249 . S
O465 U446 2.420 . S
O465 C450 1.202 . S
O466 U446 2.455 . S
O466 C463 1.301 . S
O467 U446 2.449 . S
O467 C463 1.282 . S
H468 C441 0.931 . S
H469 C443 0.929 . S
H470 C444 0.930 . S
H471 C445 0.931 . S
H472 C452 0.932 . S
H473 C453 0.930 . S
H474 C454 0.929 . S
H475 C456 0.930 . S
H476 C458 0.932 . S
H477 C459 0.929 . S
H478 C460 0.928 . S
H479 C462 0.932 . S
H480 C498 0.951 . S
H481 C500 0.951 . S
H482 C502 0.950 . S
H483 C503 0.950 . S
H484 C505 0.950 . S
H485 C508 0.950 . S
H486 C509 0.950 . S
H487 C511 0.950 . S
H488 C512 0.950 . S
H489 C513 0.951 . S
H490 C515 0.951 . S
H491 C517 0.950 . S
H492 C518 0.950 . S
H493 C520 0.950 . S
H494 C523 0.950 . S
H495 C524 0.950 . S
H496 C526 0.950 . S
H497 C527 0.950 . S
C498 H480 0.951 . S
C498 C499 1.366 . S
C498 C500 1.388 . S
C499 C498 1.366 . S
C499 C503 1.385 . S
C500 H481 0.951 . S
C500 C498 1.388 . S
C500 C501 1.366 . S
C501 C500 1.366 . S
C501 C502 1.414 . S
C501 C504 1.499 . S
C502 H482 0.950 . S
C502 C501 1.414 . S
C502 C503 1.374 . S
C503 H483 0.950 . S
C503 C499 1.385 . S
C503 C502 1.374 . S
C504 C501 1.499 . S
C504 C505 1.373 . S
C504 C506 1.389 . S
C505 H484 0.950 . S
C505 C504 1.373 . S
C505 C521 1.377 1_556 S
C506 C504 1.389 . S
C506 C507 1.524 . S
C506 C520 1.377 1_556 S
C507 C506 1.524 . S
C507 C508 1.397 . S
C507 C512 1.363 . S
C508 H485 0.950 . S
C508 C507 1.397 . S
C508 C509 1.334 . S
C509 H486 0.950 . S
C509 C508 1.334 . S
C509 C510 1.287 . S
C510 C509 1.287 . S
C510 C511 1.524 . S
C510 H529 0.913 . S
C511 H487 0.950 . S
C511 C510 1.524 . S
C511 C512 1.415 . S
C512 H488 0.950 . S
C512 C507 1.363 . S
C512 C511 1.415 . S
C513 H489 0.951 . S
C513 C514 1.366 . S
C513 C515 1.388 . S
C514 C513 1.366 . S
C514 C518 1.385 . S
C515 H490 0.951 . S
C515 C513 1.388 . S
C515 C516 1.366 . S
C516 C515 1.366 . S
C516 C517 1.414 . S
C516 C519 1.499 . S
C517 H491 0.950 . S
C517 C516 1.414 . S
C517 C518 1.374 . S
C518 H492 0.950 . S
C518 C514 1.385 . S
C518 C517 1.374 . S
C519 C516 1.499 . S
C519 C520 1.373 . S
C519 C521 1.389 . S
C520 H493 0.950 . S
C520 C506 1.377 1_554 S
C520 C519 1.373 . S
C521 C505 1.377 1_554 S
C521 C519 1.389 . S
C521 C522 1.524 . S
C522 C521 1.524 . S
C522 C523 1.397 . S
C522 C527 1.363 . S
C523 H494 0.950 . S
C523 C522 1.397 . S
C523 C524 1.334 . S
C524 H495 0.950 . S
C524 C523 1.334 . S
C524 C525 1.287 . S
C525 C524 1.287 . S
C525 C526 1.524 . S
C525 H528 0.999 . S
C526 H496 0.950 . S
C526 C525 1.524 . S
C526 C527 1.415 . S
C527 H497 0.950 . S
C527 C522 1.363 . S
C527 C526 1.415 . S
H528 C525 0.999 . S
H529 C510 0.913 . S
H530 C548 0.951 . S
H531 C550 0.951 . S
H532 C552 0.950 . S
H533 C553 0.950 . S
H534 C555 0.950 . S
H535 C558 0.950 . S
H536 C559 0.950 . S
H537 C561 0.950 . S
H538 C562 0.950 . S
H539 C563 0.951 . S
H540 C565 0.951 . S
H541 C567 0.950 . S
H542 C568 0.950 . S
H543 C570 0.950 . S
H544 C573 0.950 . S
H545 C574 0.950 . S
H546 C576 0.950 . S
H547 C577 0.950 . S
C548 H530 0.951 . S
C548 C549 1.366 . S
C548 C550 1.388 . S
C549 C548 1.366 . S
C549 C553 1.385 . S
C550 H531 0.951 . S
C550 C548 1.388 . S
C550 C551 1.366 . S
C551 C550 1.366 . S
C551 C552 1.414 . S
C551 C554 1.499 . S
C552 H532 0.950 . S
C552 C551 1.414 . S
C552 C553 1.374 . S
C553 H533 0.950 . S
C553 C549 1.385 . S
C553 C552 1.374 . S
C554 C551 1.499 . S
C554 C555 1.373 . S
C554 C556 1.389 . S
C555 H534 0.950 . S
C555 C554 1.373 . S
C555 C571 1.377 . S
C556 C554 1.389 . S
C556 C557 1.524 . S
C556 C570 1.377 . S
C557 C556 1.524 . S
C557 C558 1.397 . S
C557 C562 1.363 . S
C558 H535 0.950 . S
C558 C557 1.397 . S
C558 C559 1.334 . S
C559 H536 0.950 . S
C559 C558 1.334 . S
C559 C560 1.287 . S
C560 C559 1.287 . S
C560 C561 1.524 . S
C560 H579 0.913 . S
C561 H537 0.950 . S
C561 C560 1.524 . S
C561 C562 1.415 . S
C562 H538 0.950 . S
C562 C557 1.363 . S
C562 C561 1.415 . S
C563 H539 0.951 . S
C563 C564 1.366 . S
C563 C565 1.388 . S
C564 C563 1.366 . S
C564 C568 1.385 . S
C565 H540 0.951 . S
C565 C563 1.388 . S
C565 C566 1.366 . S
C566 C565 1.366 . S
C566 C567 1.414 . S
C566 C569 1.499 . S
C567 H541 0.950 . S
C567 C566 1.414 . S
C567 C568 1.374 . S
C568 H542 0.950 . S
C568 C564 1.385 . S
C568 C567 1.374 . S
C569 C566 1.499 . S
C569 C570 1.373 . S
C569 C571 1.389 . S
C570 H543 0.950 . S
C570 C556 1.377 . S
C570 C569 1.373 . S
C571 C555 1.377 . S
C571 C569 1.389 . S
C571 C572 1.524 . S
C572 C571 1.524 . S
C572 C573 1.397 . S
C572 C577 1.363 . S
C573 H544 0.950 . S
C573 C572 1.397 . S
C573 C574 1.334 . S
C574 H545 0.950 . S
C574 C573 1.334 . S
C574 C575 1.287 . S
C575 C574 1.287 . S
C575 C576 1.524 . S
C575 H578 0.999 . S
C576 H546 0.950 . S
C576 C575 1.524 . S
C576 C577 1.415 . S
C577 H547 0.950 . S
C577 C572 1.363 . S
C577 C576 1.415 . S
H578 C575 0.999 . S
H579 C560 0.913 . S
H580 C598 0.951 . S
H581 C600 0.951 . S
H582 C602 0.950 . S
H583 C603 0.950 . S
H584 C605 0.950 . S
H585 C608 0.950 . S
H586 C609 0.950 . S
H587 C611 0.950 . S
H588 C612 0.950 . S
H589 C613 0.951 . S
H590 C615 0.951 . S
H591 C617 0.950 . S
H592 C618 0.950 . S
H593 C620 0.950 . S
H594 C623 0.950 . S
H595 C624 0.950 . S
H596 C626 0.950 . S
H597 C627 0.950 . S
C598 H580 0.951 . S
C598 C599 1.366 . S
C598 C600 1.388 . S
C599 C598 1.366 . S
C599 C603 1.385 . S
C600 H581 0.951 . S
C600 C598 1.388 . S
C600 C601 1.366 . S
C601 C600 1.366 . S
C601 C602 1.414 . S
C601 C604 1.499 . S
C602 H582 0.950 . S
C602 C601 1.414 . S
C602 C603 1.374 . S
C603 H583 0.950 . S
C603 C599 1.385 . S
C603 C602 1.374 . S
C604 C601 1.499 . S
C604 C605 1.373 . S
C604 C606 1.389 . S
C605 H584 0.950 . S
C605 C604 1.373 . S
C605 C621 1.377 . S
C606 C604 1.389 . S
C606 C607 1.524 . S
C606 C620 1.377 . S
C607 C606 1.524 . S
C607 C608 1.397 . S
C607 C612 1.363 . S
C608 H585 0.950 . S
C608 C607 1.397 . S
C608 C609 1.334 . S
C609 H586 0.950 . S
C609 C608 1.334 . S
C609 C610 1.287 . S
C610 C609 1.287 . S
C610 C611 1.524 . S
C610 H629 0.913 . S
C611 H587 0.950 . S
C611 C610 1.524 . S
C611 C612 1.415 . S
C612 H588 0.950 . S
C612 C607 1.363 . S
C612 C611 1.415 . S
C613 H589 0.951 . S
C613 C614 1.366 . S
C613 C615 1.388 . S
C614 C613 1.366 . S
C614 C618 1.385 . S
C615 H590 0.951 . S
C615 C613 1.388 . S
C615 C616 1.366 . S
C616 C615 1.366 . S
C616 C617 1.414 . S
C616 C619 1.499 . S
C617 H591 0.950 . S
C617 C616 1.414 . S
C617 C618 1.374 . S
C618 H592 0.950 . S
C618 C614 1.385 . S
C618 C617 1.374 . S
C619 C616 1.499 . S
C619 C620 1.373 . S
C619 C621 1.389 . S
C620 H593 0.950 . S
C620 C606 1.377 . S
C620 C619 1.373 . S
C621 C605 1.377 . S
C621 C619 1.389 . S
C621 C622 1.524 . S
C622 C621 1.524 . S
C622 C623 1.397 . S
C622 C627 1.363 . S
C623 H594 0.950 . S
C623 C622 1.397 . S
C623 C624 1.334 . S
C624 H595 0.950 . S
C624 C623 1.334 . S
C624 C625 1.287 . S
C625 C624 1.287 . S
C625 C626 1.524 . S
C625 H628 0.999 . S
C626 H596 0.950 . S
C626 C625 1.524 . S
C626 C627 1.415 . S
C627 H597 0.950 . S
C627 C622 1.363 . S
C627 C626 1.415 . S
H628 C625 0.999 . S
H629 C610 0.913 . S
H630 C648 0.951 . S
H631 C650 0.951 . S
H632 C652 0.950 . S
H633 C653 0.950 . S
H634 C655 0.950 . S
H635 C658 0.950 . S
H636 C659 0.950 . S
H637 C661 0.950 . S
H638 C662 0.950 . S
H639 C663 0.951 . S
H640 C665 0.951 . S
H641 C667 0.950 . S
H642 C668 0.950 . S
H643 C670 0.950 . S
H644 C673 0.950 . S
H645 C674 0.950 . S
H646 C676 0.950 . S
H647 C677 0.950 . S
C648 H630 0.951 . S
C648 C649 1.366 . S
C648 C650 1.388 . S
C649 C648 1.366 . S
C649 C653 1.385 . S
C650 H631 0.951 . S
C650 C648 1.388 . S
C650 C651 1.366 . S
C651 C650 1.366 . S
C651 C652 1.414 . S
C651 C654 1.499 . S
C652 H632 0.950 . S
C652 C651 1.414 . S
C652 C653 1.374 . S
C653 H633 0.950 . S
C653 C649 1.385 . S
C653 C652 1.374 . S
C654 C651 1.499 . S
C654 C655 1.373 . S
C654 C656 1.389 . S
C655 H634 0.950 . S
C655 C654 1.373 . S
C655 C671 1.377 1_556 S
C656 C654 1.389 . S
C656 C657 1.524 . S
C656 C670 1.377 1_556 S
C657 C656 1.524 . S
C657 C658 1.397 . S
C657 C662 1.363 . S
C658 H635 0.950 . S
C658 C657 1.397 . S
C658 C659 1.334 . S
C659 H636 0.950 . S
C659 C658 1.334 . S
C659 C660 1.287 . S
C660 C659 1.287 . S
C660 C661 1.524 . S
C660 H679 0.913 . S
C661 H637 0.950 . S
C661 C660 1.524 . S
C661 C662 1.415 . S
C662 H638 0.950 . S
C662 C657 1.363 . S
C662 C661 1.415 . S
C663 H639 0.951 . S
C663 C664 1.366 . S
C663 C665 1.388 . S
C664 C663 1.366 . S
C664 C668 1.385 . S
C665 H640 0.951 . S
C665 C663 1.388 . S
C665 C666 1.366 . S
C666 C665 1.366 . S
C666 C667 1.414 . S
C666 C669 1.499 . S
C667 H641 0.950 . S
C667 C666 1.414 . S
C667 C668 1.374 . S
C668 H642 0.950 . S
C668 C664 1.385 . S
C668 C667 1.374 . S
C669 C666 1.499 . S
C669 C670 1.373 . S
C669 C671 1.389 . S
C670 H643 0.950 . S
C670 C656 1.377 1_554 S
C670 C669 1.373 . S
C671 C655 1.377 1_554 S
C671 C669 1.389 . S
C671 C672 1.524 . S
C672 C671 1.524 . S
C672 C673 1.397 . S
C672 C677 1.363 . S
C673 H644 0.950 . S
C673 C672 1.397 . S
C673 C674 1.334 . S
C674 H645 0.950 . S
C674 C673 1.334 . S
C674 C675 1.287 . S
C675 C674 1.287 . S
C675 C676 1.524 . S
C675 H678 0.999 . S
C676 H646 0.950 . S
C676 C675 1.524 . S
C676 C677 1.415 . S
C677 H647 0.950 . S
C677 C672 1.363 . S
C677 C676 1.415 . S
H678 C675 0.999 . S
H679 C660 0.913 . S
H680 C698 0.951 . S
H681 C700 0.951 . S
H682 C702 0.950 . S
H683 C703 0.950 . S
H684 C705 0.950 . S
H685 C708 0.950 . S
H686 C709 0.950 . S
H687 C711 0.950 . S
H688 C712 0.950 . S
H689 C713 0.951 . S
H690 C715 0.951 . S
H691 C717 0.950 . S
H692 C718 0.950 . S
H693 C720 0.950 . S
H694 C723 0.950 . S
H695 C724 0.950 . S
H696 C726 0.950 . S
H697 C727 0.950 . S
C698 H680 0.951 . S
C698 C699 1.366 . S
C698 C700 1.388 . S
C699 C698 1.366 . S
C699 C703 1.385 . S
C700 H681 0.951 . S
C700 C698 1.388 . S
C700 C701 1.366 . S
C701 C700 1.366 . S
C701 C702 1.414 . S
C701 C704 1.499 . S
C702 H682 0.950 . S
C702 C701 1.414 . S
C702 C703 1.374 . S
C703 H683 0.950 . S
C703 C699 1.385 . S
C703 C702 1.374 . S
C704 C701 1.499 . S
C704 C705 1.373 . S
C704 C706 1.389 . S
C705 H684 0.950 . S
C705 C704 1.373 . S
C705 C721 1.377 . S
C706 C704 1.389 . S
C706 C707 1.524 . S
C706 C720 1.377 . S
C707 C706 1.524 . S
C707 C708 1.397 . S
C707 C712 1.363 . S
C708 H685 0.950 . S
C708 C707 1.397 . S
C708 C709 1.334 . S
C709 H686 0.950 . S
C709 C708 1.334 . S
C709 C710 1.287 . S
C710 C709 1.287 . S
C710 C711 1.524 . S
C710 H729 0.913 . S
C711 H687 0.950 . S
C711 C710 1.524 . S
C711 C712 1.415 . S
C712 H688 0.950 . S
C712 C707 1.363 . S
C712 C711 1.415 . S
C713 H689 0.951 . S
C713 C714 1.366 . S
C713 C715 1.388 . S
C714 C713 1.366 . S
C714 C718 1.385 . S
C715 H690 0.951 . S
C715 C713 1.388 . S
C715 C716 1.366 . S
C716 C715 1.366 . S
C716 C717 1.414 . S
C716 C719 1.499 . S
C717 H691 0.950 . S
C717 C716 1.414 . S
C717 C718 1.374 . S
C718 H692 0.950 . S
C718 C714 1.385 . S
C718 C717 1.374 . S
C719 C716 1.499 . S
C719 C720 1.373 . S
C719 C721 1.389 . S
C720 H693 0.950 . S
C720 C706 1.377 . S
C720 C719 1.373 . S
C721 C705 1.377 . S
C721 C719 1.389 . S
C721 C722 1.524 . S
C722 C721 1.524 . S
C722 C723 1.397 . S
C722 C727 1.363 . S
C723 H694 0.950 . S
C723 C722 1.397 . S
C723 C724 1.334 . S
C724 H695 0.950 . S
C724 C723 1.334 . S
C724 C725 1.287 . S
C725 C724 1.287 . S
C725 C726 1.524 . S
C725 H728 0.999 . S
C726 H696 0.950 . S
C726 C725 1.524 . S
C726 C727 1.415 . S
C727 H697 0.950 . S
C727 C722 1.363 . S
C727 C726 1.415 . S
H728 C725 0.999 . S
H729 C710 0.913 . S
H730 C748 0.951 . S
H731 C750 0.951 . S
H732 C752 0.950 . S
H733 C753 0.950 . S
H734 C755 0.950 . S
H735 C758 0.950 . S
H736 C759 0.950 . S
H737 C761 0.950 . S
H738 C762 0.950 . S
H739 C763 0.951 . S
H740 C765 0.951 . S
H741 C767 0.950 . S
H742 C768 0.950 . S
H743 C770 0.950 . S
H744 C773 0.950 . S
H745 C774 0.950 . S
H746 C776 0.950 . S
H747 C777 0.950 . S
C748 H730 0.951 . S
C748 C749 1.366 . S
C748 C750 1.388 . S
C749 C748 1.366 . S
C749 C753 1.385 . S
C750 H731 0.951 . S
C750 C748 1.388 . S
C750 C751 1.366 . S
C751 C750 1.366 . S
C751 C752 1.414 . S
C751 C754 1.499 . S
C752 H732 0.950 . S
C752 C751 1.414 . S
C752 C753 1.374 . S
C753 H733 0.950 . S
C753 C749 1.385 . S
C753 C752 1.374 . S
C754 C751 1.499 . S
C754 C755 1.373 . S
C754 C756 1.389 . S
C755 H734 0.950 . S
C755 C754 1.373 . S
C755 C771 1.377 . S
C756 C754 1.389 . S
C756 C757 1.524 . S
C756 C770 1.377 . S
C757 C756 1.524 . S
C757 C758 1.397 . S
C757 C762 1.363 . S
C758 H735 0.950 . S
C758 C757 1.397 . S
C758 C759 1.334 . S
C759 H736 0.950 . S
C759 C758 1.334 . S
C759 C760 1.287 . S
C760 C759 1.287 . S
C760 C761 1.524 . S
C760 H779 0.913 . S
C761 H737 0.950 . S
C761 C760 1.524 . S
C761 C762 1.415 . S
C762 H738 0.950 . S
C762 C757 1.363 . S
C762 C761 1.415 . S
C763 H739 0.951 . S
C763 C764 1.366 . S
C763 C765 1.388 . S
C764 C763 1.366 . S
C764 C768 1.385 . S
C765 H740 0.951 . S
C765 C763 1.388 . S
C765 C766 1.366 . S
C766 C765 1.366 . S
C766 C767 1.414 . S
C766 C769 1.499 . S
C767 H741 0.950 . S
C767 C766 1.414 . S
C767 C768 1.374 . S
C768 H742 0.950 . S
C768 C764 1.385 . S
C768 C767 1.374 . S
C769 C766 1.499 . S
C769 C770 1.373 . S
C769 C771 1.389 . S
C770 H743 0.950 . S
C770 C756 1.377 . S
C770 C769 1.373 . S
C771 C755 1.377 . S
C771 C769 1.389 . S
C771 C772 1.524 . S
C772 C771 1.524 . S
C772 C773 1.397 . S
C772 C777 1.363 . S
C773 H744 0.950 . S
C773 C772 1.397 . S
C773 C774 1.334 . S
C774 H745 0.950 . S
C774 C773 1.334 . S
C774 C775 1.287 . S
C775 C774 1.287 . S
C775 C776 1.524 . S
C775 H778 0.999 . S
C776 H746 0.950 . S
C776 C775 1.524 . S
C776 C777 1.415 . S
C777 H747 0.950 . S
C777 C772 1.363 . S
C777 C776 1.415 . S
H778 C775 0.999 . S
H779 C760 0.913 . S
H780 C798 0.951 . S
H781 C800 0.951 . S
H782 C802 0.950 . S
H783 C803 0.950 . S
H784 C805 0.950 . S
H785 C808 0.950 . S
H786 C809 0.950 . S
H787 C811 0.950 . S
H788 C812 0.950 . S
H789 C813 0.951 . S
H790 C815 0.951 . S
H791 C817 0.950 . S
H792 C818 0.950 . S
H793 C820 0.950 . S
H794 C823 0.950 . S
H795 C824 0.950 . S
H796 C826 0.950 . S
H797 C827 0.950 . S
C798 H780 0.951 . S
C798 C799 1.366 . S
C798 C800 1.388 . S
C799 C798 1.366 . S
C799 C803 1.385 . S
C800 H781 0.951 . S
C800 C798 1.388 . S
C800 C801 1.366 . S
C801 C800 1.366 . S
C801 C802 1.414 . S
C801 C804 1.499 . S
C802 H782 0.950 . S
C802 C801 1.414 . S
C802 C803 1.374 . S
C803 H783 0.950 . S
C803 C799 1.385 . S
C803 C802 1.374 . S
C804 C801 1.499 . S
C804 C805 1.373 . S
C804 C806 1.389 . S
C805 H784 0.950 . S
C805 C804 1.373 . S
C805 C821 1.377 . S
C806 C804 1.389 . S
C806 C807 1.524 . S
C806 C820 1.377 . S
C807 C806 1.524 . S
C807 C808 1.397 . S
C807 C812 1.363 . S
C808 H785 0.950 . S
C808 C807 1.397 . S
C808 C809 1.334 . S
C809 H786 0.950 . S
C809 C808 1.334 . S
C809 C810 1.287 . S
C810 C809 1.287 . S
C810 C811 1.524 . S
C810 H829 0.913 . S
C811 H787 0.950 . S
C811 C810 1.524 . S
C811 C812 1.415 . S
C812 H788 0.950 . S
C812 C807 1.363 . S
C812 C811 1.415 . S
C813 H789 0.951 . S
C813 C814 1.366 . S
C813 C815 1.388 . S
C814 C813 1.366 . S
C814 C818 1.385 . S
C815 H790 0.951 . S
C815 C813 1.388 . S
C815 C816 1.366 . S
C816 C815 1.366 . S
C816 C817 1.414 . S
C816 C819 1.499 . S
C817 H791 0.950 . S
C817 C816 1.414 . S
C817 C818 1.374 . S
C818 H792 0.950 . S
C818 C814 1.385 . S
C818 C817 1.374 . S
C819 C816 1.499 . S
C819 C820 1.373 . S
C819 C821 1.389 . S
C820 H793 0.950 . S
C820 C806 1.377 . S
C820 C819 1.373 . S
C821 C805 1.377 . S
C821 C819 1.389 . S
C821 C822 1.524 . S
C822 C821 1.524 . S
C822 C823 1.397 . S
C822 C827 1.363 . S
C823 H794 0.950 . S
C823 C822 1.397 . S
C823 C824 1.334 . S
C824 H795 0.950 . S
C824 C823 1.334 . S
C824 C825 1.287 . S
C825 C824 1.287 . S
C825 C826 1.524 . S
C825 H828 0.999 . S
C826 H796 0.950 . S
C826 C825 1.524 . S
C826 C827 1.415 . S
C827 H797 0.950 . S
C827 C822 1.363 . S
C827 C826 1.415 . S
H828 C825 0.999 . S
H829 C810 0.913 . S
H830 C848 0.951 . S
H831 C850 0.951 . S
H832 C852 0.950 . S
H833 C853 0.950 . S
H834 C855 0.950 . S
H835 C858 0.950 . S
H836 C859 0.950 . S
H837 C861 0.950 . S
H838 C862 0.950 . S
H839 C863 0.951 . S
H840 C865 0.951 . S
H841 C867 0.950 . S
H842 C868 0.950 . S
H843 C870 0.950 . S
H844 C873 0.950 . S
H845 C874 0.950 . S
H846 C876 0.950 . S
H847 C877 0.950 . S
C848 H830 0.951 . S
C848 C849 1.366 . S
C848 C850 1.388 . S
C849 C848 1.366 . S
C849 C853 1.385 . S
C850 H831 0.951 . S
C850 C848 1.388 . S
C850 C851 1.366 . S
C851 C850 1.366 . S
C851 C852 1.414 . S
C851 C854 1.499 . S
C852 H832 0.950 . S
C852 C851 1.414 . S
C852 C853 1.374 . S
C853 H833 0.950 . S
C853 C849 1.385 . S
C853 C852 1.374 . S
C854 C851 1.499 . S
C854 C855 1.373 . S
C854 C856 1.389 . S
C855 H834 0.950 . S
C855 C854 1.373 . S
C855 C871 1.377 . S
C856 C854 1.389 . S
C856 C857 1.524 . S
C856 C870 1.377 . S
C857 C856 1.524 . S
C857 C858 1.397 . S
C857 C862 1.363 . S
C858 H835 0.950 . S
C858 C857 1.397 . S
C858 C859 1.334 . S
C859 H836 0.950 . S
C859 C858 1.334 . S
C859 C860 1.287 . S
C860 C859 1.287 . S
C860 C861 1.524 . S
C860 H879 0.913 . S
C861 H837 0.950 . S
C861 C860 1.524 . S
C861 C862 1.415 . S
C862 H838 0.950 . S
C862 C857 1.363 . S
C862 C861 1.415 . S
C863 H839 0.951 . S
C863 C864 1.366 . S
C863 C865 1.388 . S
C864 C863 1.366 . S
C864 C868 1.385 . S
C865 H840 0.951 . S
C865 C863 1.388 . S
C865 C866 1.366 . S
C866 C865 1.366 . S
C866 C867 1.414 . S
C866 C869 1.499 . S
C867 H841 0.950 . S
C867 C866 1.414 . S
C867 C868 1.374 . S
C868 H842 0.950 . S
C868 C864 1.385 . S
C868 C867 1.374 . S
C869 C866 1.499 . S
C869 C870 1.373 . S
C869 C871 1.389 . S
C870 H843 0.950 . S
C870 C856 1.377 . S
C870 C869 1.373 . S
C871 C855 1.377 . S
C871 C869 1.389 . S
C871 C872 1.524 . S
C872 C871 1.524 . S
C872 C873 1.397 . S
C872 C877 1.363 . S
C873 H844 0.950 . S
C873 C872 1.397 . S
C873 C874 1.334 . S
C874 H845 0.950 . S
C874 C873 1.334 . S
C874 C875 1.287 . S
C875 C874 1.287 . S
C875 C876 1.524 . S
C875 H878 0.999 . S
C876 H846 0.950 . S
C876 C875 1.524 . S
C876 C877 1.415 . S
C877 H847 0.950 . S
C877 C872 1.363 . S
C877 C876 1.415 . S
H878 C875 0.999 . S
H879 C860 0.913 . S
H880 C898 0.951 . S
H881 C900 0.951 . S
H882 C902 0.950 . S
H883 C903 0.950 . S
H884 C905 0.950 . S
H885 C908 0.950 . S
H886 C909 0.950 . S
H887 C911 0.950 . S
H888 C912 0.950 . S
H889 C913 0.951 . S
H890 C915 0.951 . S
H891 C917 0.950 . S
H892 C918 0.950 . S
H893 C920 0.950 . S
H894 C923 0.950 . S
H895 C924 0.950 . S
H896 C926 0.950 . S
H897 C927 0.950 . S
C898 H880 0.951 . S
C898 C899 1.366 . S
C898 C900 1.388 . S
C899 C898 1.366 . S
C899 C903 1.385 . S
C900 H881 0.951 . S
C900 C898 1.388 . S
C900 C901 1.366 . S
C901 C900 1.366 . S
C901 C902 1.414 . S
C901 C904 1.499 . S
C902 H882 0.950 . S
C902 C901 1.414 . S
C902 C903 1.374 . S
C903 H883 0.950 . S
C903 C899 1.385 . S
C903 C902 1.374 . S
C904 C901 1.499 . S
C904 C905 1.373 . S
C904 C906 1.389 . S
C905 H884 0.950 . S
C905 C904 1.373 . S
C905 C921 1.377 . S
C906 C904 1.389 . S
C906 C907 1.524 . S
C906 C920 1.377 . S
C907 C906 1.524 . S
C907 C908 1.397 . S
C907 C912 1.363 . S
C908 H885 0.950 . S
C908 C907 1.397 . S
C908 C909 1.334 . S
C909 H886 0.950 . S
C909 C908 1.334 . S
C909 C910 1.287 . S
C910 C909 1.287 . S
C910 C911 1.524 . S
C910 H929 0.913 . S
C911 H887 0.950 . S
C911 C910 1.524 . S
C911 C912 1.415 . S
C912 H888 0.950 . S
C912 C907 1.363 . S
C912 C911 1.415 . S
C913 H889 0.951 . S
C913 C914 1.366 . S
C913 C915 1.388 . S
C914 C913 1.366 . S
C914 C918 1.385 . S
C915 H890 0.951 . S
C915 C913 1.388 . S
C915 C916 1.366 . S
C916 C915 1.366 . S
C916 C917 1.414 . S
C916 C919 1.499 . S
C917 H891 0.950 . S
C917 C916 1.414 . S
C917 C918 1.374 . S
C918 H892 0.950 . S
C918 C914 1.385 . S
C918 C917 1.374 . S
C919 C916 1.499 . S
C919 C920 1.373 . S
C919 C921 1.389 . S
C920 H893 0.950 . S
C920 C906 1.377 . S
C920 C919 1.373 . S
C921 C905 1.377 . S
C921 C919 1.389 . S
C921 C922 1.524 . S
C922 C921 1.524 . S
C922 C923 1.397 . S
C922 C927 1.363 . S
C923 H894 0.950 . S
C923 C922 1.397 . S
C923 C924 1.334 . S
C924 H895 0.950 . S
C924 C923 1.334 . S
C924 C925 1.287 . S
C925 C924 1.287 . S
C925 C926 1.524 . S
C925 H928 0.999 . S
C926 H896 0.950 . S
C926 C925 1.524 . S
C926 C927 1.415 . S
C927 H897 0.950 . S
C927 C922 1.363 . S
C927 C926 1.415 . S
H928 C925 0.999 . S
H929 C910 0.913 . S
H930 C948 0.951 . S
H931 C950 0.951 . S
H932 C952 0.950 . S
H933 C953 0.950 . S
H934 C955 0.950 . S
H935 C958 0.950 . S
H936 C959 0.950 . S
H937 C961 0.950 . S
H938 C962 0.950 . S
H939 C963 0.951 . S
H940 C965 0.951 . S
H941 C967 0.950 . S
H942 C968 0.950 . S
H943 C970 0.950 . S
H944 C973 0.950 . S
H945 C974 0.950 . S
H946 C976 0.950 . S
H947 C977 0.950 . S
C948 H930 0.951 . S
C948 C949 1.366 . S
C948 C950 1.388 . S
C949 C948 1.366 . S
C949 C953 1.385 . S
C950 H931 0.951 . S
C950 C948 1.388 . S
C950 C951 1.366 . S
C951 C950 1.366 . S
C951 C952 1.414 . S
C951 C954 1.499 . S
C952 H932 0.950 . S
C952 C951 1.414 . S
C952 C953 1.374 . S
C953 H933 0.950 . S
C953 C949 1.385 . S
C953 C952 1.374 . S
C954 C951 1.499 . S
C954 C955 1.373 . S
C954 C956 1.389 . S
C955 H934 0.950 . S
C955 C954 1.373 . S
C955 C971 1.377 . S
C956 C954 1.389 . S
C956 C957 1.524 . S
C956 C970 1.377 . S
C957 C956 1.524 . S
C957 C958 1.397 . S
C957 C962 1.363 . S
C958 H935 0.950 . S
C958 C957 1.397 . S
C958 C959 1.334 . S
C959 H936 0.950 . S
C959 C958 1.334 . S
C959 C960 1.287 . S
C960 C959 1.287 . S
C960 C961 1.524 . S
C960 H979 0.913 . S
C961 H937 0.950 . S
C961 C960 1.524 . S
C961 C962 1.415 . S
C962 H938 0.950 . S
C962 C957 1.363 . S
C962 C961 1.415 . S
C963 H939 0.951 . S
C963 C964 1.366 . S
C963 C965 1.388 . S
C964 C963 1.366 . S
C964 C968 1.385 . S
C965 H940 0.951 . S
C965 C963 1.388 . S
C965 C966 1.366 . S
C966 C965 1.366 . S
C966 C967 1.414 . S
C966 C969 1.499 . S
C967 H941 0.950 . S
C967 C966 1.414 . S
C967 C968 1.374 . S
C968 H942 0.950 . S
C968 C964 1.385 . S
C968 C967 1.374 . S
C969 C966 1.499 . S
C969 C970 1.373 . S
C969 C971 1.389 . S
C970 H943 0.950 . S
C970 C956 1.377 . S
C970 C969 1.373 . S
C971 C955 1.377 . S
C971 C969 1.389 . S
C971 C972 1.524 . S
C972 C971 1.524 . S
C972 C973 1.397 . S
C972 C977 1.363 . S
C973 H944 0.950 . S
C973 C972 1.397 . S
C973 C974 1.334 . S
C974 H945 0.950 . S
C974 C973 1.334 . S
C974 C975 1.287 . S
C975 C974 1.287 . S
C975 C976 1.524 . S
C975 H978 0.999 . S
C976 H946 0.950 . S
C976 C975 1.524 . S
C976 C977 1.415 . S
C977 H947 0.950 . S
C977 C972 1.363 . S
C977 C976 1.415 . S
H978 C975 0.999 . S
H979 C960 0.913 . S
H980 C998 0.951 . S
H981 C1000 0.951 . S
H982 C1002 0.950 . S
H983 C1003 0.950 . S
H984 C1005 0.950 . S
H985 C1008 0.950 . S
H986 C1009 0.950 . S
H987 C1011 0.950 . S
H988 C1012 0.950 . S
H989 C1013 0.951 . S
H990 C1015 0.951 . S
H991 C1017 0.950 . S
H992 C1018 0.950 . S
H993 C1020 0.950 . S
H994 C1023 0.950 . S
H995 C1024 0.950 . S
H996 C1026 0.950 . S
H997 C1027 0.950 . S
C998 H980 0.951 . S
C998 C999 1.366 . S
C998 C1000 1.388 . S
C999 C998 1.366 . S
C999 C1003 1.385 . S
C1000 H981 0.951 . S
C1000 C998 1.388 . S
C1000 C1001 1.366 . S
C1001 C1000 1.366 . S
C1001 C1002 1.414 . S
C1001 C1004 1.499 . S
C1002 H982 0.950 . S
C1002 C1001 1.414 . S
C1002 C1003 1.374 . S
C1003 H983 0.950 . S
C1003 C999 1.385 . S
C1003 C1002 1.374 . S
C1004 C1001 1.499 . S
C1004 C1005 1.373 . S
C1004 C1006 1.389 . S
C1005 H984 0.950 . S
C1005 C1004 1.373 . S
C1005 C1021 1.377 . S
C1006 C1004 1.389 . S
C1006 C1007 1.524 . S
C1006 C1020 1.377 . S
C1007 C1006 1.524 . S
C1007 C1008 1.397 . S
C1007 C1012 1.363 . S
C1008 H985 0.950 . S
C1008 C1007 1.397 . S
C1008 C1009 1.334 . S
C1009 H986 0.950 . S
C1009 C1008 1.334 . S
C1009 C1010 1.287 . S
C1010 C1009 1.287 . S
C1010 C1011 1.524 . S
C1010 H1029 0.913 . S
C1011 H987 0.950 . S
C1011 C1010 1.524 . S
C1011 C1012 1.415 . S
C1012 H988 0.950 . S
C1012 C1007 1.363 . S
C1012 C1011 1.415 . S
C1013 H989 0.951 . S
C1013 C1014 1.366 . S
C1013 C1015 1.388 . S
C1014 C1013 1.366 . S
C1014 C1018 1.385 . S
C1015 H990 0.951 . S
C1015 C1013 1.388 . S
C1015 C1016 1.366 . S
C1016 C1015 1.366 . S
C1016 C1017 1.414 . S
C1016 C1019 1.499 . S
C1017 H991 0.950 . S
C1017 C1016 1.414 . S
C1017 C1018 1.374 . S
C1018 H992 0.950 . S
C1018 C1014 1.385 . S
C1018 C1017 1.374 . S
C1019 C1016 1.499 . S
C1019 C1020 1.373 . S
C1019 C1021 1.389 . S
C1020 H993 0.950 . S
C1020 C1006 1.377 . S
C1020 C1019 1.373 . S
C1021 C1005 1.377 . S
C1021 C1019 1.389 . S
C1021 C1022 1.524 . S
C1022 C1021 1.524 . S
C1022 C1023 1.397 . S
C1022 C1027 1.363 . S
C1023 H994 0.950 . S
C1023 C1022 1.397 . S
C1023 C1024 1.334 . S
C1024 H995 0.950 . S
C1024 C1023 1.334 . S
C1024 C1025 1.287 . S
C1025 C1024 1.287 . S
C1025 C1026 1.524 . S
C1025 H1028 0.999 . S
C1026 H996 0.950 . S
C1026 C1025 1.524 . S
C1026 C1027 1.415 . S
C1027 H997 0.950 . S
C1027 C1022 1.363 . S
C1027 C1026 1.415 . S
H1028 C1025 0.999 . S
H1029 C1010 0.913 . S
H1030 C1048 0.951 . S
H1031 C1050 0.951 . S
H1032 C1052 0.950 . S
H1033 C1053 0.950 . S
H1034 C1055 0.950 . S
H1035 C1058 0.950 . S
H1036 C1059 0.950 . S
H1037 C1061 0.950 . S
H1038 C1062 0.950 . S
H1039 C1063 0.951 . S
H1040 C1065 0.951 . S
H1041 C1067 0.950 . S
H1042 C1068 0.950 . S
H1043 C1070 0.950 . S
H1044 C1073 0.950 . S
H1045 C1074 0.950 . S
H1046 C1076 0.950 . S
H1047 C1077 0.950 . S
C1048 H1030 0.951 . S
C1048 C1049 1.366 . S
C1048 C1050 1.388 . S
C1049 C1048 1.366 . S
C1049 C1053 1.385 . S
C1050 H1031 0.951 . S
C1050 C1048 1.388 . S
C1050 C1051 1.366 . S
C1051 C1050 1.366 . S
C1051 C1052 1.414 . S
C1051 C1054 1.499 . S
C1052 H1032 0.950 . S
C1052 C1051 1.414 . S
C1052 C1053 1.374 . S
C1053 H1033 0.950 . S
C1053 C1049 1.385 . S
C1053 C1052 1.374 . S
C1054 C1051 1.499 . S
C1054 C1055 1.373 . S
C1054 C1056 1.389 . S
C1055 H1034 0.950 . S
C1055 C1054 1.373 . S
C1055 C1071 1.377 . S
C1056 C1054 1.389 . S
C1056 C1057 1.524 . S
C1056 C1070 1.377 . S
C1057 C1056 1.524 . S
C1057 C1058 1.397 . S
C1057 C1062 1.363 . S
C1058 H1035 0.950 . S
C1058 C1057 1.397 . S
C1058 C1059 1.334 . S
C1059 H1036 0.950 . S
C1059 C1058 1.334 . S
C1059 C1060 1.287 . S
C1060 C1059 1.287 . S
C1060 C1061 1.524 . S
C1060 H1079 0.913 . S
C1061 H1037 0.950 . S
C1061 C1060 1.524 . S
C1061 C1062 1.415 . S
C1062 H1038 0.950 . S
C1062 C1057 1.363 . S
C1062 C1061 1.415 . S
C1063 H1039 0.951 . S
C1063 C1064 1.366 . S
C1063 C1065 1.388 . S
C1064 C1063 1.366 . S
C1064 C1068 1.385 . S
C1065 H1040 0.951 . S
C1065 C1063 1.388 . S
C1065 C1066 1.366 . S
C1066 C1065 1.366 . S
C1066 C1067 1.414 . S
C1066 C1069 1.499 . S
C1067 H1041 0.950 . S
C1067 C1066 1.414 . S
C1067 C1068 1.374 . S
C1068 H1042 0.950 . S
C1068 C1064 1.385 . S
C1068 C1067 1.374 . S
C1069 C1066 1.499 . S
C1069 C1070 1.373 . S
C1069 C1071 1.389 . S
C1070 H1043 0.950 . S
C1070 C1056 1.377 . S
C1070 C1069 1.373 . S
C1071 C1055 1.377 . S
C1071 C1069 1.389 . S
C1071 C1072 1.524 . S
C1072 C1071 1.524 . S
C1072 C1073 1.397 . S
C1072 C1077 1.363 . S
C1073 H1044 0.950 . S
C1073 C1072 1.397 . S
C1073 C1074 1.334 . S
C1074 H1045 0.950 . S
C1074 C1073 1.334 . S
C1074 C1075 1.287 . S
C1075 C1074 1.287 . S
C1075 C1076 1.524 . S
C1075 H1078 0.999 . S
C1076 H1046 0.950 . S
C1076 C1075 1.524 . S
C1076 C1077 1.415 . S
C1077 H1047 0.950 . S
C1077 C1072 1.363 . S
C1077 C1076 1.415 . S
H1078 C1075 0.999 . S
H1079 C1060 0.913 . S
H1080 C1098 0.951 . S
H1081 C1100 0.951 . S
H1082 C1102 0.950 . S
H1083 C1103 0.950 . S
H1084 C1105 0.950 . S
H1085 C1108 0.950 . S
H1086 C1109 0.950 . S
H1087 C1111 0.950 . S
H1088 C1112 0.950 1_655 S
H1089 C1113 0.951 . S
H1090 C1115 0.951 . S
H1091 C1117 0.950 . S
H1092 C1118 0.950 . S
H1093 C1120 0.950 . S
H1094 C1123 0.950 . S
H1095 C1124 0.950 . S
H1096 C1126 0.950 . S
H1097 C1127 0.950 1_455 S
C1098 H1080 0.951 . S
C1098 C1099 1.366 . S
C1098 C1100 1.388 . S
C1099 C1098 1.366 . S
C1099 C1103 1.385 . S
C1100 H1081 0.951 . S
C1100 C1098 1.388 . S
C1100 C1101 1.366 . S
C1101 C1100 1.366 . S
C1101 C1102 1.414 . S
C1101 C1104 1.499 . S
C1102 H1082 0.950 . S
C1102 C1101 1.414 . S
C1102 C1103 1.374 . S
C1103 H1083 0.950 . S
C1103 C1099 1.385 . S
C1103 C1102 1.374 . S
C1104 C1101 1.499 . S
C1104 C1105 1.373 . S
C1104 C1106 1.389 . S
C1105 H1084 0.950 . S
C1105 C1104 1.373 . S
C1105 C1121 1.377 1_455 S
C1106 C1104 1.389 . S
C1106 C1107 1.524 . S
C1106 C1120 1.377 1_455 S
C1107 C1106 1.524 . S
C1107 C1108 1.397 . S
C1107 C1112 1.363 . S
C1108 H1085 0.950 . S
C1108 C1107 1.397 . S
C1108 C1109 1.334 . S
C1109 H1086 0.950 . S
C1109 C1108 1.334 . S
C1109 C1110 1.287 . S
C1110 C1109 1.287 . S
C1110 C1111 1.524 . S
C1110 H1129 0.913 . S
C1111 H1087 0.950 . S
C1111 C1110 1.524 . S
C1111 C1112 1.415 . S
C1112 H1088 0.950 1_455 S
C1112 C1107 1.363 . S
C1112 C1111 1.415 . S
C1113 H1089 0.951 . S
C1113 C1114 1.366 . S
C1113 C1115 1.388 . S
C1114 C1113 1.366 . S
C1114 C1118 1.385 . S
C1115 H1090 0.951 . S
C1115 C1113 1.388 . S
C1115 C1116 1.366 . S
C1116 C1115 1.366 . S
C1116 C1117 1.414 . S
C1116 C1119 1.499 . S
C1117 H1091 0.950 . S
C1117 C1116 1.414 . S
C1117 C1118 1.374 . S
C1118 H1092 0.950 . S
C1118 C1114 1.385 . S
C1118 C1117 1.374 . S
C1119 C1116 1.499 . S
C1119 C1120 1.373 . S
C1119 C1121 1.389 . S
C1120 H1093 0.950 . S
C1120 C1106 1.377 1_655 S
C1120 C1119 1.373 . S
C1121 C1105 1.377 1_655 S
C1121 C1119 1.389 . S
C1121 C1122 1.524 . S
C1122 C1121 1.524 . S
C1122 C1123 1.397 . S
C1122 C1127 1.363 . S
C1123 H1094 0.950 . S
C1123 C1122 1.397 . S
C1123 C1124 1.334 . S
C1124 H1095 0.950 . S
C1124 C1123 1.334 . S
C1124 C1125 1.287 . S
C1125 C1124 1.287 . S
C1125 C1126 1.524 . S
C1125 H1128 0.999 . S
C1126 H1096 0.950 . S
C1126 C1125 1.524 . S
C1126 C1127 1.415 . S
C1127 H1097 0.950 1_655 S
C1127 C1122 1.363 . S
C1127 C1126 1.415 . S
H1128 C1125 0.999 . S
H1129 C1110 0.913 . S
H1130 C1148 0.951 . S
H1131 C1150 0.951 . S
H1132 C1152 0.950 . S
H1133 C1153 0.950 . S
H1134 C1155 0.950 . S
H1135 C1158 0.950 . S
H1136 C1159 0.950 . S
H1137 C1161 0.950 . S
H1138 C1162 0.950 . S
H1139 C1163 0.951 . S
H1140 C1165 0.951 . S
H1141 C1167 0.950 . S
H1142 C1168 0.950 . S
H1143 C1170 0.950 . S
H1144 C1173 0.950 . S
H1145 C1174 0.950 . S
H1146 C1176 0.950 . S
H1147 C1177 0.950 . S
C1148 H1130 0.951 . S
C1148 C1149 1.366 . S
C1148 C1150 1.388 . S
C1149 C1148 1.366 . S
C1149 C1153 1.385 . S
C1150 H1131 0.951 . S
C1150 C1148 1.388 . S
C1150 C1151 1.366 . S
C1151 C1150 1.366 . S
C1151 C1152 1.414 . S
C1151 C1154 1.499 . S
C1152 H1132 0.950 . S
C1152 C1151 1.414 . S
C1152 C1153 1.374 . S
C1153 H1133 0.950 . S
C1153 C1149 1.385 . S
C1153 C1152 1.374 . S
C1154 C1151 1.499 . S
C1154 C1155 1.373 . S
C1154 C1156 1.389 . S
C1155 H1134 0.950 . S
C1155 C1154 1.373 . S
C1155 C1171 1.377 1_545 S
C1156 C1154 1.389 . S
C1156 C1157 1.524 . S
C1156 C1170 1.377 1_545 S
C1157 C1156 1.524 . S
C1157 C1158 1.397 . S
C1157 C1162 1.363 . S
C1158 H1135 0.950 . S
C1158 C1157 1.397 . S
C1158 C1159 1.334 . S
C1159 H1136 0.950 . S
C1159 C1158 1.334 . S
C1159 C1160 1.287 . S
C1160 C1159 1.287 . S
C1160 C1161 1.524 . S
C1160 H1179 0.913 . S
C1161 H1137 0.950 . S
C1161 C1160 1.524 . S
C1161 C1162 1.415 . S
C1162 H1138 0.950 . S
C1162 C1157 1.363 . S
C1162 C1161 1.415 . S
C1163 H1139 0.951 . S
C1163 C1164 1.366 . S
C1163 C1165 1.388 . S
C1164 C1163 1.366 . S
C1164 C1168 1.385 . S
C1165 H1140 0.951 . S
C1165 C1163 1.388 . S
C1165 C1166 1.366 . S
C1166 C1165 1.366 . S
C1166 C1167 1.414 . S
C1166 C1169 1.499 . S
C1167 H1141 0.950 . S
C1167 C1166 1.414 . S
C1167 C1168 1.374 . S
C1168 H1142 0.950 . S
C1168 C1164 1.385 . S
C1168 C1167 1.374 . S
C1169 C1166 1.499 . S
C1169 C1170 1.373 . S
C1169 C1171 1.389 . S
C1170 H1143 0.950 . S
C1170 C1156 1.377 1_565 S
C1170 C1169 1.373 . S
C1171 C1155 1.377 1_565 S
C1171 C1169 1.389 . S
C1171 C1172 1.524 . S
C1172 C1171 1.524 . S
C1172 C1173 1.397 . S
C1172 C1177 1.363 . S
C1173 H1144 0.950 . S
C1173 C1172 1.397 . S
C1173 C1174 1.334 . S
C1174 H1145 0.950 . S
C1174 C1173 1.334 . S
C1174 C1175 1.287 . S
C1175 C1174 1.287 . S
C1175 C1176 1.524 . S
C1175 H1178 0.999 . S
C1176 H1146 0.950 . S
C1176 C1175 1.524 . S
C1176 C1177 1.415 . S
C1177 H1147 0.950 . S
C1177 C1172 1.363 . S
C1177 C1176 1.415 . S
H1178 C1175 0.999 . S
H1179 C1160 0.913 . S
H1180 C1198 0.951 . S
H1181 C1200 0.951 . S
H1182 C1202 0.950 . S
H1183 C1203 0.950 . S
H1184 C1205 0.950 . S
H1185 C1208 0.950 . S
H1186 C1209 0.950 . S
H1187 C1211 0.950 . S
H1188 C1212 0.950 . S
H1189 C1213 0.951 . S
H1190 C1215 0.951 . S
H1191 C1217 0.950 . S
H1192 C1218 0.950 . S
H1193 C1220 0.950 . S
H1194 C1223 0.950 . S
H1195 C1224 0.950 . S
H1196 C1226 0.950 . S
H1197 C1227 0.950 . S
C1198 H1180 0.951 . S
C1198 C1199 1.366 . S
C1198 C1200 1.388 . S
C1199 C1198 1.366 . S
C1199 C1203 1.385 . S
C1200 H1181 0.951 . S
C1200 C1198 1.388 . S
C1200 C1201 1.366 . S
C1201 C1200 1.366 . S
C1201 C1202 1.414 . S
C1201 C1204 1.499 . S
C1202 H1182 0.950 . S
C1202 C1201 1.414 . S
C1202 C1203 1.374 . S
C1203 H1183 0.950 . S
C1203 C1199 1.385 . S
C1203 C1202 1.374 . S
C1204 C1201 1.499 . S
C1204 C1205 1.373 . S
C1204 C1206 1.389 . S
C1205 H1184 0.950 . S
C1205 C1204 1.373 . S
C1205 C1221 1.377 . S
C1206 C1204 1.389 . S
C1206 C1207 1.524 . S
C1206 C1220 1.377 . S
C1207 C1206 1.524 . S
C1207 C1208 1.397 . S
C1207 C1212 1.363 . S
C1208 H1185 0.950 . S
C1208 C1207 1.397 . S
C1208 C1209 1.334 . S
C1209 H1186 0.950 . S
C1209 C1208 1.334 . S
C1209 C1210 1.287 . S
C1210 C1209 1.287 . S
C1210 C1211 1.524 . S
C1210 H1229 0.913 . S
C1211 H1187 0.950 . S
C1211 C1210 1.524 . S
C1211 C1212 1.415 . S
C1212 H1188 0.950 . S
C1212 C1207 1.363 . S
C1212 C1211 1.415 . S
C1213 H1189 0.951 . S
C1213 C1214 1.366 . S
C1213 C1215 1.388 . S
C1214 C1213 1.366 . S
C1214 C1218 1.385 . S
C1215 H1190 0.951 . S
C1215 C1213 1.388 . S
C1215 C1216 1.366 . S
C1216 C1215 1.366 . S
C1216 C1217 1.414 . S
C1216 C1219 1.499 . S
C1217 H1191 0.950 . S
C1217 C1216 1.414 . S
C1217 C1218 1.374 . S
C1218 H1192 0.950 . S
C1218 C1214 1.385 . S
C1218 C1217 1.374 . S
C1219 C1216 1.499 . S
C1219 C1220 1.373 . S
C1219 C1221 1.389 . S
C1220 H1193 0.950 . S
C1220 C1206 1.377 . S
C1220 C1219 1.373 . S
C1221 C1205 1.377 . S
C1221 C1219 1.389 . S
C1221 C1222 1.524 . S
C1222 C1221 1.524 . S
C1222 C1223 1.397 . S
C1222 C1227 1.363 . S
C1223 H1194 0.950 . S
C1223 C1222 1.397 . S
C1223 C1224 1.334 . S
C1224 H1195 0.950 . S
C1224 C1223 1.334 . S
C1224 C1225 1.287 . S
C1225 C1224 1.287 . S
C1225 C1226 1.524 . S
C1225 H1228 0.999 . S
C1226 H1196 0.950 . S
C1226 C1225 1.524 . S
C1226 C1227 1.415 . S
C1227 H1197 0.950 . S
C1227 C1222 1.363 . S
C1227 C1226 1.415 . S
H1228 C1225 0.999 . S
H1229 C1210 0.913 . S
H1230 C1248 0.951 . S
H1231 C1250 0.951 . S
H1232 C1252 0.950 . S
H1233 C1253 0.950 . S
H1234 C1255 0.950 . S
H1235 C1258 0.950 . S
H1236 C1259 0.950 . S
H1237 C1261 0.950 . S
H1238 C1262 0.950 . S
H1239 C1263 0.951 . S
H1240 C1265 0.951 . S
H1241 C1267 0.950 . S
H1242 C1268 0.950 . S
H1243 C1270 0.950 . S
H1244 C1273 0.950 . S
H1245 C1274 0.950 . S
H1246 C1276 0.950 . S
H1247 C1277 0.950 . S
C1248 H1230 0.951 . S
C1248 C1249 1.366 . S
C1248 C1250 1.388 . S
C1249 C1248 1.366 . S
C1249 C1253 1.385 . S
C1250 H1231 0.951 . S
C1250 C1248 1.388 . S
C1250 C1251 1.366 . S
C1251 C1250 1.366 . S
C1251 C1252 1.414 . S
C1251 C1254 1.499 . S
C1252 H1232 0.950 . S
C1252 C1251 1.414 . S
C1252 C1253 1.374 . S
C1253 H1233 0.950 . S
C1253 C1249 1.385 . S
C1253 C1252 1.374 . S
C1254 C1251 1.499 . S
C1254 C1255 1.373 . S
C1254 C1256 1.389 . S
C1255 H1234 0.950 . S
C1255 C1254 1.373 . S
C1255 C1271 1.377 1_655 S
C1256 C1254 1.389 . S
C1256 C1257 1.524 . S
C1256 C1270 1.377 1_655 S
C1257 C1256 1.524 . S
C1257 C1258 1.397 . S
C1257 C1262 1.363 . S
C1258 H1235 0.950 . S
C1258 C1257 1.397 . S
C1258 C1259 1.334 . S
C1259 H1236 0.950 . S
C1259 C1258 1.334 . S
C1259 C1260 1.287 . S
C1260 C1259 1.287 . S
C1260 C1261 1.524 . S
C1260 H1279 0.913 . S
C1261 H1237 0.950 . S
C1261 C1260 1.524 . S
C1261 C1262 1.415 . S
C1262 H1238 0.950 . S
C1262 C1257 1.363 . S
C1262 C1261 1.415 . S
C1263 H1239 0.951 . S
C1263 C1264 1.366 . S
C1263 C1265 1.388 . S
C1264 C1263 1.366 . S
C1264 C1268 1.385 . S
C1265 H1240 0.951 . S
C1265 C1263 1.388 . S
C1265 C1266 1.366 . S
C1266 C1265 1.366 . S
C1266 C1267 1.414 . S
C1266 C1269 1.499 . S
C1267 H1241 0.950 . S
C1267 C1266 1.414 . S
C1267 C1268 1.374 . S
C1268 H1242 0.950 . S
C1268 C1264 1.385 . S
C1268 C1267 1.374 . S
C1269 C1266 1.499 . S
C1269 C1270 1.373 . S
C1269 C1271 1.389 . S
C1270 H1243 0.950 . S
C1270 C1256 1.377 1_455 S
C1270 C1269 1.373 . S
C1271 C1255 1.377 1_455 S
C1271 C1269 1.389 . S
C1271 C1272 1.524 . S
C1272 C1271 1.524 . S
C1272 C1273 1.397 . S
C1272 C1277 1.363 . S
C1273 H1244 0.950 . S
C1273 C1272 1.397 . S
C1273 C1274 1.334 . S
C1274 H1245 0.950 . S
C1274 C1273 1.334 . S
C1274 C1275 1.287 . S
C1275 C1274 1.287 . S
C1275 C1276 1.524 . S
C1275 H1278 0.999 . S
C1276 H1246 0.950 . S
C1276 C1275 1.524 . S
C1276 C1277 1.415 . S
C1277 H1247 0.950 . S
C1277 C1272 1.363 . S
C1277 C1276 1.415 . S
H1278 C1275 0.999 . S
H1279 C1260 0.913 . S
H1280 C1298 0.951 . S
H1281 C1300 0.951 . S
H1282 C1302 0.950 . S
H1283 C1303 0.950 . S
H1284 C1305 0.950 . S
H1285 C1308 0.950 . S
H1286 C1309 0.950 . S
H1287 C1311 0.950 . S
H1288 C1312 0.950 . S
H1289 C1313 0.951 . S
H1290 C1315 0.951 . S
H1291 C1317 0.950 . S
H1292 C1318 0.950 . S
H1293 C1320 0.950 . S
H1294 C1323 0.950 . S
H1295 C1324 0.950 . S
H1296 C1326 0.950 . S
H1297 C1327 0.950 . S
C1298 H1280 0.951 . S
C1298 C1299 1.366 . S
C1298 C1300 1.388 . S
C1299 C1298 1.366 . S
C1299 C1303 1.385 . S
C1300 H1281 0.951 . S
C1300 C1298 1.388 . S
C1300 C1301 1.366 . S
C1301 C1300 1.366 . S
C1301 C1302 1.414 . S
C1301 C1304 1.499 . S
C1302 H1282 0.950 . S
C1302 C1301 1.414 . S
C1302 C1303 1.374 . S
C1303 H1283 0.950 . S
C1303 C1299 1.385 . S
C1303 C1302 1.374 . S
C1304 C1301 1.499 . S
C1304 C1305 1.373 . S
C1304 C1306 1.389 . S
C1305 H1284 0.950 . S
C1305 C1304 1.373 . S
C1305 C1321 1.377 1_545 S
C1306 C1304 1.389 . S
C1306 C1307 1.524 . S
C1306 C1320 1.377 1_545 S
C1307 C1306 1.524 . S
C1307 C1308 1.397 . S
C1307 C1312 1.363 . S
C1308 H1285 0.950 . S
C1308 C1307 1.397 . S
C1308 C1309 1.334 . S
C1309 H1286 0.950 . S
C1309 C1308 1.334 . S
C1309 C1310 1.287 . S
C1310 C1309 1.287 . S
C1310 C1311 1.524 . S
C1310 H1329 0.913 . S
C1311 H1287 0.950 . S
C1311 C1310 1.524 . S
C1311 C1312 1.415 . S
C1312 H1288 0.950 . S
C1312 C1307 1.363 . S
C1312 C1311 1.415 . S
C1313 H1289 0.951 . S
C1313 C1314 1.366 . S
C1313 C1315 1.388 . S
C1314 C1313 1.366 . S
C1314 C1318 1.385 . S
C1315 H1290 0.951 . S
C1315 C1313 1.388 . S
C1315 C1316 1.366 . S
C1316 C1315 1.366 . S
C1316 C1317 1.414 . S
C1316 C1319 1.499 . S
C1317 H1291 0.950 . S
C1317 C1316 1.414 . S
C1317 C1318 1.374 . S
C1318 H1292 0.950 . S
C1318 C1314 1.385 . S
C1318 C1317 1.374 . S
C1319 C1316 1.499 . S
C1319 C1320 1.373 . S
C1319 C1321 1.389 . S
C1320 H1293 0.950 . S
C1320 C1306 1.377 1_565 S
C1320 C1319 1.373 . S
C1321 C1305 1.377 1_565 S
C1321 C1319 1.389 . S
C1321 C1322 1.524 . S
C1322 C1321 1.524 . S
C1322 C1323 1.397 . S
C1322 C1327 1.363 . S
C1323 H1294 0.950 . S
C1323 C1322 1.397 . S
C1323 C1324 1.334 . S
C1324 H1295 0.950 . S
C1324 C1323 1.334 . S
C1324 C1325 1.287 . S
C1325 C1324 1.287 . S
C1325 C1326 1.524 . S
C1325 H1328 0.999 . S
C1326 H1296 0.950 . S
C1326 C1325 1.524 . S
C1326 C1327 1.415 . S
C1327 H1297 0.950 . S
C1327 C1322 1.363 . S
C1327 C1326 1.415 . S
H1328 C1325 0.999 . S
H1329 C1310 0.913 . S
H1330 C1348 0.951 . S
H1331 C1350 0.951 . S
H1332 C1352 0.950 . S
H1333 C1353 0.950 . S
H1334 C1355 0.950 . S
H1335 C1358 0.950 . S
H1336 C1359 0.950 . S
H1337 C1361 0.950 . S
H1338 C1362 0.950 . S
H1339 C1363 0.951 . S
H1340 C1365 0.951 . S
H1341 C1367 0.950 . S
H1342 C1368 0.950 . S
H1343 C1370 0.950 . S
H1344 C1373 0.950 . S
H1345 C1374 0.950 . S
H1346 C1376 0.950 . S
H1347 C1377 0.950 . S
C1348 H1330 0.951 . S
C1348 C1349 1.366 . S
C1348 C1350 1.388 . S
C1349 C1348 1.366 . S
C1349 C1353 1.385 . S
C1350 H1331 0.951 . S
C1350 C1348 1.388 . S
C1350 C1351 1.366 . S
C1351 C1350 1.366 . S
C1351 C1352 1.414 . S
C1351 C1354 1.499 . S
C1352 H1332 0.950 . S
C1352 C1351 1.414 . S
C1352 C1353 1.374 . S
C1353 H1333 0.950 . S
C1353 C1349 1.385 . S
C1353 C1352 1.374 . S
C1354 C1351 1.499 . S
C1354 C1355 1.373 . S
C1354 C1356 1.389 . S
C1355 H1334 0.950 . S
C1355 C1354 1.373 . S
C1355 C1371 1.377 . S
C1356 C1354 1.389 . S
C1356 C1357 1.524 . S
C1356 C1370 1.377 . S
C1357 C1356 1.524 . S
C1357 C1358 1.397 . S
C1357 C1362 1.363 . S
C1358 H1335 0.950 . S
C1358 C1357 1.397 . S
C1358 C1359 1.334 . S
C1359 H1336 0.950 . S
C1359 C1358 1.334 . S
C1359 C1360 1.287 . S
C1360 C1359 1.287 . S
C1360 C1361 1.524 . S
C1360 H1379 0.913 . S
C1361 H1337 0.950 . S
C1361 C1360 1.524 . S
C1361 C1362 1.415 . S
C1362 H1338 0.950 . S
C1362 C1357 1.363 . S
C1362 C1361 1.415 . S
C1363 H1339 0.951 . S
C1363 C1364 1.366 . S
C1363 C1365 1.388 . S
C1364 C1363 1.366 . S
C1364 C1368 1.385 . S
C1365 H1340 0.951 . S
C1365 C1363 1.388 . S
C1365 C1366 1.366 . S
C1366 C1365 1.366 . S
C1366 C1367 1.414 . S
C1366 C1369 1.499 . S
C1367 H1341 0.950 . S
C1367 C1366 1.414 . S
C1367 C1368 1.374 . S
C1368 H1342 0.950 . S
C1368 C1364 1.385 . S
C1368 C1367 1.374 . S
C1369 C1366 1.499 . S
C1369 C1370 1.373 . S
C1369 C1371 1.389 . S
C1370 H1343 0.950 . S
C1370 C1356 1.377 . S
C1370 C1369 1.373 . S
C1371 C1355 1.377 . S
C1371 C1369 1.389 . S
C1371 C1372 1.524 . S
C1372 C1371 1.524 . S
C1372 C1373 1.397 . S
C1372 C1377 1.363 . S
C1373 H1344 0.950 . S
C1373 C1372 1.397 . S
C1373 C1374 1.334 . S
C1374 H1345 0.950 . S
C1374 C1373 1.334 . S
C1374 C1375 1.287 . S
C1375 C1374 1.287 . S
C1375 C1376 1.524 . S
C1375 H1378 0.999 . S
C1376 H1346 0.950 . S
C1376 C1375 1.524 . S
C1376 C1377 1.415 . S
C1377 H1347 0.950 . S
C1377 C1372 1.363 . S
C1377 C1376 1.415 . S
H1378 C1375 0.999 . S
H1379 C1360 0.913 . S
C499 C415 2.253 . S
C514 C15 2.253 . S
C549 C55 2.253 . S
C564 C455 2.253 . S
C599 C255 2.254 . S
C614 C95 2.254 . S
C649 C295 2.253 . S
C664 C135 2.253 . S
C699 C335 2.254 . S
C714 C175 2.254 . S
C749 C215 2.254 . S
C764 C375 2.254 . S
C799 C341 2.330 . S
C814 C21 2.330 . S
C849 C381 2.330 . S
C864 C61 2.330 . S
C899 C101 2.330 . S
C914 C421 2.330 . S
C949 C461 2.330 . S
C964 C141 2.330 . S
C999 C261 2.330 . S
C1014 C181 2.330 . S
C1049 C301 2.330 . S
C1064 C221 2.330 . S
C1099 C2 2.136 . S
C1114 C442 2.137 . S
C1149 C42 2.136 . S
C1164 C242 2.136 . S
C1199 C82 2.137 . S
C1214 C282 2.137 . S
C1249 C122 2.136 . S
C1264 C322 2.136 . S
C1299 C362 2.136 . S
C1314 C162 2.136 . S
C1349 C202 2.136 . S
C1364 C402 2.136 . S
