# Generated by pormake.
# Topology wjc, (7)-cn, num edge types: 1
# Building blocks:
#     Node 0, Type 0, BuildingBlock: NUHQUE_clean_sbu_2, # of connection points: 7
#     Node 1, Type 0, BuildingBlock: NUHQUE_clean_sbu_2, # of connection points: 7
#     Node 2, Type 0, BuildingBlock: NUHQUE_clean_sbu_2, # of connection points: 7
#     Node 3, Type 0, BuildingBlock: NUHQUE_clean_sbu_2, # of connection points: 7
#     Node 4, Type 0, BuildingBlock: NUHQUE_clean_sbu_2, # of connection points: 7
#     Node 5, Type 0, BuildingBlock: NUHQUE_clean_sbu_2, # of connection points: 7
#     Node 6, Type 0, BuildingBlock: NUHQUE_clean_sbu_2, # of connection points: 7
#     Node 7, Type 0, BuildingBlock: NUHQUE_clean_sbu_2, # of connection points: 7
#     Node 8, Type 0, BuildingBlock: NUHQUE_clean_sbu_2, # of connection points: 7
#     Node 9, Type 0, BuildingBlock: NUHQUE_clean_sbu_2, # of connection points: 7
#     Node 10, Type 0, BuildingBlock: NUHQUE_clean_sbu_2, # of connection points: 7
#     Node 11, Type 0, BuildingBlock: NUHQUE_clean_sbu_2, # of connection points: 7
#     Node 12, Type 0, BuildingBlock: NUHQUE_clean_sbu_2, # of connection points: 7
#     Node 13, Type 0, BuildingBlock: NUHQUE_clean_sbu_2, # of connection points: 7
#     Node 14, Type 0, BuildingBlock: NUHQUE_clean_sbu_2, # of connection points: 7
#     Node 15, Type 0, BuildingBlock: NUHQUE_clean_sbu_2, # of connection points: 7
#     Node 16, Type 0, BuildingBlock: NUHQUE_clean_sbu_2, # of connection points: 7
#     Node 17, Type 0, BuildingBlock: NUHQUE_clean_sbu_2, # of connection points: 7
#     Node 18, Type 0, BuildingBlock: NUHQUE_clean_sbu_2, # of connection points: 7
#     Node 19, Type 0, BuildingBlock: NUHQUE_clean_sbu_2, # of connection points: 7
#     Node 20, Type 0, BuildingBlock: NUHQUE_clean_sbu_2, # of connection points: 7
#     Node 21, Type 0, BuildingBlock: NUHQUE_clean_sbu_2, # of connection points: 7
#     Node 22, Type 0, BuildingBlock: NUHQUE_clean_sbu_2, # of connection points: 7
#     Node 23, Type 0, BuildingBlock: NUHQUE_clean_sbu_2, # of connection points: 7
#     Edge 24, Type (0, 0), BuildingBlock: XIVTED_clean_linker_0, # of connection points: 2
#     Edge 25, Type (0, 0), BuildingBlock: XIVTED_clean_linker_0, # of connection points: 2
#     Edge 26, Type (0, 0), BuildingBlock: XIVTED_clean_linker_0, # of connection points: 2
#     Edge 27, Type (0, 0), BuildingBlock: XIVTED_clean_linker_0, # of connection points: 2
#     Edge 28, Type (0, 0), BuildingBlock: XIVTED_clean_linker_0, # of connection points: 2
#     Edge 29, Type (0, 0), BuildingBlock: XIVTED_clean_linker_0, # of connection points: 2
#     Edge 30, Type (0, 0), BuildingBlock: XIVTED_clean_linker_0, # of connection points: 2
#     Edge 31, Type (0, 0), BuildingBlock: XIVTED_clean_linker_0, # of connection points: 2
#     Edge 32, Type (0, 0), BuildingBlock: XIVTED_clean_linker_0, # of connection points: 2
#     Edge 33, Type (0, 0), BuildingBlock: XIVTED_clean_linker_0, # of connection points: 2
#     Edge 34, Type (0, 0), BuildingBlock: XIVTED_clean_linker_0, # of connection points: 2
#     Edge 35, Type (0, 0), BuildingBlock: XIVTED_clean_linker_0, # of connection points: 2
#     Edge 36, Type (0, 0), BuildingBlock: XIVTED_clean_linker_0, # of connection points: 2
#     Edge 37, Type (0, 0), BuildingBlock: XIVTED_clean_linker_0, # of connection points: 2
#     Edge 38, Type (0, 0), BuildingBlock: XIVTED_clean_linker_0, # of connection points: 2
#     Edge 39, Type (0, 0), BuildingBlock: XIVTED_clean_linker_0, # of connection points: 2
#     Edge 40, Type (0, 0), BuildingBlock: XIVTED_clean_linker_0, # of connection points: 2
#     Edge 41, Type (0, 0), BuildingBlock: XIVTED_clean_linker_0, # of connection points: 2
#     Edge 42, Type (0, 0), BuildingBlock: XIVTED_clean_linker_0, # of connection points: 2
#     Edge 43, Type (0, 0), BuildingBlock: XIVTED_clean_linker_0, # of connection points: 2
#     Edge 44, Type (0, 0), BuildingBlock: XIVTED_clean_linker_0, # of connection points: 2
#     Edge 45, Type (0, 0), BuildingBlock: XIVTED_clean_linker_0, # of connection points: 2
#     Edge 46, Type (0, 0), BuildingBlock: XIVTED_clean_linker_0, # of connection points: 2
#     Edge 47, Type (0, 0), BuildingBlock: XIVTED_clean_linker_0, # of connection points: 2
#     Edge 48, Type (0, 0), BuildingBlock: XIVTED_clean_linker_0, # of connection points: 2
#     Edge 49, Type (0, 0), BuildingBlock: XIVTED_clean_linker_0, # of connection points: 2
#     Edge 50, Type (0, 0), BuildingBlock: XIVTED_clean_linker_0, # of connection points: 2
#     Edge 51, Type (0, 0), BuildingBlock: XIVTED_clean_linker_0, # of connection points: 2
#     Edge 52, Type (0, 0), BuildingBlock: XIVTED_clean_linker_0, # of connection points: 2
#     Edge 53, Type (0, 0), BuildingBlock: XIVTED_clean_linker_0, # of connection points: 2
#     Edge 54, Type (0, 0), BuildingBlock: XIVTED_clean_linker_0, # of connection points: 2
#     Edge 55, Type (0, 0), BuildingBlock: XIVTED_clean_linker_0, # of connection points: 2
#     Edge 56, Type (0, 0), BuildingBlock: XIVTED_clean_linker_0, # of connection points: 2
#     Edge 57, Type (0, 0), BuildingBlock: XIVTED_clean_linker_0, # of connection points: 2
#     Edge 58, Type (0, 0), BuildingBlock: XIVTED_clean_linker_0, # of connection points: 2
#     Edge 59, Type (0, 0), BuildingBlock: XIVTED_clean_linker_0, # of connection points: 2
#     Edge 60, Type (0, 0), BuildingBlock: XIVTED_clean_linker_0, # of connection points: 2
#     Edge 61, Type (0, 0), BuildingBlock: XIVTED_clean_linker_0, # of connection points: 2
#     Edge 62, Type (0, 0), BuildingBlock: XIVTED_clean_linker_0, # of connection points: 2
#     Edge 63, Type (0, 0), BuildingBlock: XIVTED_clean_linker_0, # of connection points: 2
#     Edge 64, Type (0, 0), BuildingBlock: XIVTED_clean_linker_0, # of connection points: 2
#     Edge 65, Type (0, 0), BuildingBlock: XIVTED_clean_linker_0, # of connection points: 2
#     Edge 66, Type (0, 0), BuildingBlock: XIVTED_clean_linker_0, # of connection points: 2
#     Edge 67, Type (0, 0), BuildingBlock: XIVTED_clean_linker_0, # of connection points: 2
#     Edge 68, Type (0, 0), BuildingBlock: XIVTED_clean_linker_0, # of connection points: 2
#     Edge 69, Type (0, 0), BuildingBlock: XIVTED_clean_linker_0, # of connection points: 2
#     Edge 70, Type (0, 0), BuildingBlock: XIVTED_clean_linker_0, # of connection points: 2
#     Edge 71, Type (0, 0), BuildingBlock: XIVTED_clean_linker_0, # of connection points: 2
#     Edge 72, Type (0, 0), BuildingBlock: XIVTED_clean_linker_0, # of connection points: 2
#     Edge 73, Type (0, 0), BuildingBlock: XIVTED_clean_linker_0, # of connection points: 2
#     Edge 74, Type (0, 0), BuildingBlock: XIVTED_clean_linker_0, # of connection points: 2
#     Edge 75, Type (0, 0), BuildingBlock: XIVTED_clean_linker_0, # of connection points: 2
#     Edge 76, Type (0, 0), BuildingBlock: XIVTED_clean_linker_0, # of connection points: 2
#     Edge 77, Type (0, 0), BuildingBlock: XIVTED_clean_linker_0, # of connection points: 2
#     Edge 78, Type (0, 0), BuildingBlock: XIVTED_clean_linker_0, # of connection points: 2
#     Edge 79, Type (0, 0), BuildingBlock: XIVTED_clean_linker_0, # of connection points: 2
#     Edge 80, Type (0, 0), BuildingBlock: XIVTED_clean_linker_0, # of connection points: 2
#     Edge 81, Type (0, 0), BuildingBlock: XIVTED_clean_linker_0, # of connection points: 2
#     Edge 82, Type (0, 0), BuildingBlock: XIVTED_clean_linker_0, # of connection points: 2
#     Edge 83, Type (0, 0), BuildingBlock: XIVTED_clean_linker_0, # of connection points: 2
#     Edge 84, Type (0, 0), BuildingBlock: XIVTED_clean_linker_0, # of connection points: 2
#     Edge 85, Type (0, 0), BuildingBlock: XIVTED_clean_linker_0, # of connection points: 2
#     Edge 86, Type (0, 0), BuildingBlock: XIVTED_clean_linker_0, # of connection points: 2
#     Edge 87, Type (0, 0), BuildingBlock: XIVTED_clean_linker_0, # of connection points: 2
#     Edge 88, Type (0, 0), BuildingBlock: XIVTED_clean_linker_0, # of connection points: 2
#     Edge 89, Type (0, 0), BuildingBlock: XIVTED_clean_linker_0, # of connection points: 2
#     Edge 90, Type (0, 0), BuildingBlock: XIVTED_clean_linker_0, # of connection points: 2
#     Edge 91, Type (0, 0), BuildingBlock: XIVTED_clean_linker_0, # of connection points: 2
#     Edge 92, Type (0, 0), BuildingBlock: XIVTED_clean_linker_0, # of connection points: 2
#     Edge 93, Type (0, 0), BuildingBlock: XIVTED_clean_linker_0, # of connection points: 2
#     Edge 94, Type (0, 0), BuildingBlock: XIVTED_clean_linker_0, # of connection points: 2
#     Edge 95, Type (0, 0), BuildingBlock: XIVTED_clean_linker_0, # of connection points: 2
#     Edge 96, Type (0, 0), BuildingBlock: XIVTED_clean_linker_0, # of connection points: 2
#     Edge 97, Type (0, 0), BuildingBlock: XIVTED_clean_linker_0, # of connection points: 2
#     Edge 98, Type (0, 0), BuildingBlock: XIVTED_clean_linker_0, # of connection points: 2
#     Edge 99, Type (0, 0), BuildingBlock: XIVTED_clean_linker_0, # of connection points: 2
#     Edge 100, Type (0, 0), BuildingBlock: XIVTED_clean_linker_0, # of connection points: 2
#     Edge 101, Type (0, 0), BuildingBlock: XIVTED_clean_linker_0, # of connection points: 2
#     Edge 102, Type (0, 0), BuildingBlock: XIVTED_clean_linker_0, # of connection points: 2
#     Edge 103, Type (0, 0), BuildingBlock: XIVTED_clean_linker_0, # of connection points: 2
#     Edge 104, Type (0, 0), BuildingBlock: XIVTED_clean_linker_0, # of connection points: 2
#     Edge 105, Type (0, 0), BuildingBlock: XIVTED_clean_linker_0, # of connection points: 2
#     Edge 106, Type (0, 0), BuildingBlock: XIVTED_clean_linker_0, # of connection points: 2
#     Edge 107, Type (0, 0), BuildingBlock: XIVTED_clean_linker_0, # of connection points: 2
# Relax obj value: 0.270
# Max RMSD: 0.231
# Mean RMSD: 0.231
data_MOF--net-wjc--node1-NUHQUE_clean_sbu_2--edge1-XIVTED_clean_linker_0
_symmetry_space_group_name_H-M    P1
_symmetry_Int_Tables_number       1
_symmetry_cell_setting            triclinic
loop_
_symmetry_equiv_pos_as_xyz
'x, y, z'
_cell_length_a     51.163807
_cell_length_b     51.051588
_cell_length_c     55.901548
_cell_angle_alpha  89.957916
_cell_angle_beta   89.90745
_cell_angle_gamma 119.87746
loop_
_atom_site_label
_atom_site_type_symbol
_atom_site_fract_x
_atom_site_fract_y
_atom_site_fract_z
_atom_type_partial_charge
O0 O 0.44248 0.21192 0.12801 0.0
Tb1 Tb 0.39521 0.1796 0.12258 0.0
Eu2 Eu 0.39862 0.09567 0.11727 0.0
C3 C 0.45312 0.22774 0.1477 0.0
O4 O 0.43528 0.22194 0.16624 0.0
C5 C 0.39125 0.13182 0.15744 0.0
O6 O 0.36485 0.04766 0.12649 0.0
C7 C 0.44879 0.10126 0.10226 0.0
C8 C 0.33878 0.03301 0.11549 0.0
O9 O 0.33204 0.04681 0.09882 0.0
C10 C 0.39912 0.14276 0.08017 0.0
C11 C 0.47756 0.10454 0.09368 0.0
C12 C 0.50412 0.13287 0.09414 0.0
C13 C 0.5314 0.1359 0.08581 0.0
C14 C 0.53202 0.11036 0.0774 0.0
C15 C 0.50622 0.08168 0.07828 0.0
C16 C 0.4788 0.07904 0.08582 0.0
O17 O 0.37789 0.13584 0.13902 0.0
O18 O 0.40154 0.1131 0.15471 0.0
O19 O 0.38024 0.20667 0.14232 0.0
O20 O 0.36315 0.1915 0.10722 0.0
C21 C 0.3629 0.20722 0.12554 0.0
O22 O 0.38097 0.11901 0.09319 0.0
O23 O 0.40504 0.16995 0.08694 0.0
O24 O 0.4225 0.07879 0.0955 0.0
O25 O 0.44775 0.12052 0.1173 0.0
H26 H 0.50367 0.15248 0.10102 0.0
H27 H 0.55326 0.1125 0.07167 0.0
H28 H 0.45878 0.05692 0.08689 0.0
O29 O 0.24084 0.48042 0.10827 0.0
Tb30 Tb 0.22792 0.43359 0.11459 0.0
Eu31 Eu 0.26975 0.40249 0.12853 0.0
C32 C 0.24978 0.50073 0.12535 0.0
O33 O 0.2536 0.49349 0.14709 0.0
C34 C 0.22847 0.40839 0.16477 0.0
O35 O 0.28929 0.37147 0.13147 0.0
C36 C 0.31062 0.45903 0.13433 0.0
C37 C 0.27537 0.34481 0.12108 0.0
O38 O 0.25018 0.33681 0.1095 0.0
C39 C 0.25629 0.41053 0.07503 0.0
C40 C 0.3393 0.48186 0.12338 0.0
C41 C 0.3459 0.51205 0.12098 0.0
C42 C 0.37363 0.53403 0.11115 0.0
C43 C 0.39466 0.52557 0.10399 0.0
C44 C 0.38879 0.49596 0.10726 0.0
C45 C 0.36088 0.47404 0.11644 0.0
O46 O 0.23703 0.43363 0.15285 0.0
O47 O 0.23227 0.38715 0.15516 0.0
O48 O 0.18437 0.43094 0.11006 0.0
O49 O 0.18595 0.39012 0.11055 0.0
C50 C 0.16831 0.40169 0.10881 0.0
O51 O 0.25701 0.39112 0.08999 0.0
O52 O 0.25191 0.43259 0.08238 0.0
O53 O 0.31073 0.43658 0.14582 0.0
O54 O 0.28634 0.45033 0.12142 0.0
H55 H 0.32976 0.5185 0.12707 0.0
H56 H 0.41677 0.54269 0.09777 0.0
H57 H 0.35653 0.45116 0.11903 0.0
O58 O 0.76074 0.23925 0.10201 0.0
Tb59 Tb 0.79577 0.22828 0.10996 0.0
Eu60 Eu 0.87597 0.27864 0.11238 0.0
C61 C 0.74346 0.23994 0.11917 0.0
O62 O 0.74988 0.23729 0.14147 0.0
C63 C 0.83413 0.24637 0.15484 0.0
O64 O 0.92682 0.30378 0.10985 0.0
C65 C 0.85572 0.3163 0.10987 0.0
C66 C 0.94158 0.28879 0.10977 0.0
O67 O 0.92621 0.25916 0.11108 0.0
C68 C 0.84033 0.23855 0.06723 0.0
C69 C 0.86454 0.34652 0.10054 0.0
C70 C 0.84196 0.35329 0.09437 0.0
C71 C 0.84967 0.38228 0.08619 0.0
C72 C 0.88019 0.40429 0.08403 0.0
C73 C 0.90289 0.39806 0.09072 0.0
C74 C 0.89502 0.36903 0.09885 0.0
O75 O 0.81634 0.25296 0.14251 0.0
O76 O 0.85835 0.24882 0.14469 0.0
O77 O 0.75526 0.185 0.11693 0.0
O78 O 0.79718 0.18616 0.11373 0.0
C79 C 0.76833 0.16878 0.11729 0.0
O80 O 0.86427 0.24744 0.08085 0.0
O81 O 0.81584 0.23865 0.0745 0.0
O82 O 0.8713 0.31505 0.12805 0.0
O83 O 0.84942 0.29516 0.09396 0.0
H84 H 0.81843 0.33621 0.0964 0.0
H85 H 0.88633 0.42714 0.07887 0.0
H86 H 0.91252 0.36419 0.10429 0.0
O87 O 0.52843 0.7667 0.10552 0.0
Tb88 Tb 0.57665 0.79901 0.10657 0.0
Eu89 Eu 0.60022 0.87557 0.1189 0.0
C90 C 0.51432 0.75049 0.12453 0.0
O91 O 0.5287 0.75689 0.14502 0.0
C92 C 0.60856 0.83303 0.15278 0.0
O93 O 0.62309 0.92643 0.12033 0.0
C94 C 0.5425 0.85029 0.12553 0.0
C95 C 0.65274 0.94196 0.12022 0.0
O96 O 0.66764 0.92718 0.11931 0.0
C97 C 0.60096 0.85139 0.06624 0.0
C98 C 0.51786 0.8545 0.11673 0.0
C99 C 0.48798 0.83149 0.12001 0.0
C100 C 0.46416 0.83552 0.11227 0.0
C101 C 0.47051 0.86293 0.10153 0.0
C102 C 0.50037 0.88638 0.09841 0.0
C103 C 0.52402 0.8817 0.1057 0.0
O104 O 0.58232 0.81308 0.14388 0.0
O105 O 0.62383 0.85986 0.14322 0.0
O106 O 0.57477 0.7558 0.10133 0.0
O107 O 0.61758 0.79525 0.10523 0.0
C108 C 0.60361 0.7661 0.10209 0.0
O109 O 0.61331 0.87427 0.08116 0.0
O110 O 0.58259 0.82307 0.07275 0.0
O111 O 0.56239 0.87194 0.13928 0.0
O112 O 0.55471 0.84053 0.10977 0.0
H113 H 0.48326 0.81057 0.12868 0.0
H114 H 0.45197 0.86652 0.09688 0.0
H115 H 0.54725 0.89933 0.10324 0.0
O116 O 0.77903 0.53847 0.09419 0.0
Tb117 Tb 0.78391 0.57916 0.11043 0.0
Eu118 Eu 0.69317 0.57259 0.12804 0.0
C119 C 0.76346 0.51241 0.10522 0.0
O120 O 0.74932 0.51127 0.12517 0.0
C121 C 0.74974 0.58579 0.15375 0.0
O122 O 0.67523 0.60237 0.11533 0.0
C123 C 0.65186 0.51769 0.13791 0.0
C124 C 0.69344 0.63175 0.1144 0.0
O125 O 0.72196 0.64273 0.11995 0.0
C126 C 0.74106 0.59631 0.08557 0.0
C127 C 0.62228 0.49401 0.12968 0.0
C128 C 0.61562 0.46386 0.13068 0.0
C129 C 0.58774 0.44067 0.12262 0.0
C130 C 0.56652 0.44778 0.11352 0.0
C131 C 0.57257 0.47771 0.1133 0.0
C132 C 0.60065 0.5009 0.12113 0.0
O133 O 0.74742 0.56959 0.13488 0.0
O134 O 0.7275 0.59099 0.1575 0.0
O135 O 0.81906 0.5923 0.13731 0.0
O136 O 0.82911 0.61761 0.10502 0.0
C137 C 0.83984 0.61504 0.12542 0.0
O138 O 0.72088 0.57191 0.09678 0.0
O139 O 0.76933 0.60246 0.08596 0.0
O140 O 0.65336 0.54147 0.1484 0.0
O141 O 0.67431 0.52436 0.1232 0.0
H142 H 0.63199 0.4584 0.13793 0.0
H143 H 0.54436 0.42973 0.10836 0.0
H144 H 0.60532 0.52408 0.12107 0.0
O145 O 0.23254 0.74003 0.13362 0.0
Tb146 Tb 0.19633 0.74987 0.1385 0.0
Eu147 Eu 0.12297 0.71538 0.14063 0.0
C148 C 0.24987 0.74158 0.15151 0.0
O149 O 0.24325 0.74626 0.17323 0.0
C150 C 0.16167 0.74129 0.18541 0.0
O151 O 0.07554 0.70643 0.13793 0.0
C152 C 0.12563 0.6659 0.14306 0.0
C153 C 0.05776 0.69838 0.15672 0.0
O154 O 0.06789 0.69539 0.17753 0.0
C155 C 0.158 0.73599 0.09223 0.0
C156 C 0.12436 0.64113 0.1285 0.0
C157 C 0.1512 0.64075 0.12386 0.0
C158 C 0.15062 0.61622 0.11207 0.0
C159 C 0.1229 0.59219 0.10445 0.0
C160 C 0.0959 0.59177 0.10955 0.0
C161 C 0.09667 0.6163 0.12154 0.0
O162 O 0.17876 0.73273 0.17418 0.0
O163 O 0.14066 0.74337 0.17367 0.0
O164 O 0.23481 0.79484 0.14358 0.0
O165 O 0.19283 0.79065 0.1333 0.0
C166 C 0.22092 0.80957 0.13844 0.0
O167 O 0.13686 0.73716 0.10465 0.0
O168 O 0.17871 0.73213 0.10299 0.0
O169 O 0.10062 0.66671 0.14657 0.0
O170 O 0.14931 0.69271 0.13996 0.0
H171 H 0.17254 0.65907 0.1302 0.0
H172 H 0.12202 0.57247 0.09634 0.0
H173 H 0.07568 0.61554 0.12598 0.0
O174 O 0.77824 0.52563 0.35561 0.0
Tb175 Tb 0.8134 0.57214 0.3507 0.0
Eu176 Eu 0.88885 0.60365 0.34877 0.0
C177 C 0.76325 0.50811 0.33757 0.0
O178 O 0.77121 0.51814 0.3156 0.0
C179 C 0.85069 0.59728 0.30483 0.0
O180 O 0.93932 0.63468 0.34978 0.0
C181 C 0.87565 0.54752 0.34494 0.0
C182 C 0.95188 0.65966 0.36251 0.0
O183 O 0.93465 0.66686 0.37506 0.0
C184 C 0.85358 0.59406 0.39724 0.0
C185 C 0.87579 0.52286 0.3587 0.0
C186 C 0.84878 0.49512 0.36117 0.0
C187 C 0.84856 0.47073 0.37302 0.0
C188 C 0.87549 0.47434 0.38252 0.0
C189 C 0.90268 0.5013 0.37926 0.0
C190 C 0.90278 0.52566 0.36757 0.0
O191 O 0.83173 0.57193 0.31559 0.0
O192 O 0.87317 0.61864 0.31683 0.0
O193 O 0.77358 0.57678 0.34659 0.0
O194 O 0.81565 0.61612 0.35388 0.0
C195 C 0.78698 0.60576 0.35012 0.0
O196 O 0.87783 0.61346 0.38542 0.0
O197 O 0.83028 0.57186 0.38636 0.0
O198 O 0.90175 0.57053 0.33852 0.0
O199 O 0.85609 0.55553 0.35159 0.0
H200 H 0.82816 0.49221 0.35327 0.0
H201 H 0.87582 0.45513 0.39051 0.0
H202 H 0.92401 0.54633 0.36478 0.0
O203 O 0.24032 0.76071 0.3918 0.0
Tb204 Tb 0.23532 0.7983 0.37961 0.0
Eu205 Eu 0.29848 0.8929 0.37 0.0
C206 C 0.24708 0.74514 0.37685 0.0
O207 O 0.25402 0.75449 0.35464 0.0
C208 C 0.25631 0.84083 0.33736 0.0
O209 O 0.32281 0.94374 0.3664 0.0
C210 C 0.33304 0.86954 0.37622 0.0
C211 C 0.33946 0.96139 0.38387 0.0
O212 O 0.3435 0.94912 0.40316 0.0
C213 C 0.25 0.85367 0.41059 0.0
C214 C 0.3641 0.87613 0.37984 0.0
C215 C 0.3706 0.85252 0.37775 0.0
C216 C 0.40004 0.85808 0.38138 0.0
C217 C 0.42287 0.8873 0.38709 0.0
C218 C 0.41685 0.9112 0.38825 0.0
C219 C 0.38735 0.90557 0.38467 0.0
O220 O 0.26577 0.82797 0.35266 0.0
O221 O 0.26697 0.87001 0.33923 0.0
O222 O 0.19544 0.77526 0.35695 0.0
O223 O 0.19211 0.79417 0.38994 0.0
C224 C 0.17737 0.77903 0.3711 0.0
O225 O 0.26304 0.87975 0.39903 0.0
O226 O 0.25797 0.83333 0.40617 0.0
O227 O 0.32657 0.87597 0.35507 0.0
O228 O 0.32027 0.876 0.39391 0.0
H229 H 0.35287 0.82994 0.37319 0.0
H230 H 0.44586 0.89184 0.38904 0.0
H231 H 0.3826 0.92402 0.38534 0.0
O232 O 0.50209 0.25657 0.3612 0.0
Tb233 Tb 0.45508 0.24474 0.36251 0.0
Eu234 Eu 0.419 0.28367 0.3487 0.0
C235 C 0.51739 0.2611 0.38113 0.0
O236 O 0.50472 0.26141 0.40151 0.0
C237 C 0.42855 0.24316 0.31233 0.0
O238 O 0.38377 0.2969 0.34156 0.0
C239 C 0.47251 0.32966 0.34136 0.0
C240 C 0.3566 0.28185 0.35088 0.0
O241 O 0.34975 0.25842 0.36464 0.0
C242 C 0.43091 0.2716 0.40153 0.0
C243 C 0.49677 0.35721 0.3527 0.0
C244 C 0.52525 0.35985 0.35574 0.0
C245 C 0.54956 0.38666 0.36452 0.0
C246 C 0.54513 0.4108 0.37061 0.0
C247 C 0.51725 0.409 0.36682 0.0
C248 C 0.49301 0.38211 0.35802 0.0
O249 O 0.45376 0.25162 0.32412 0.0
O250 O 0.40724 0.24729 0.3215 0.0
O251 O 0.41292 0.20093 0.36248 0.0
O252 O 0.45272 0.20385 0.37676 0.0
C253 C 0.42442 0.1857 0.37223 0.0
O254 O 0.40992 0.27085 0.38757 0.0
O255 O 0.45493 0.27213 0.39245 0.0
O256 O 0.44753 0.3294 0.33552 0.0
O257 O 0.4679 0.30361 0.34958 0.0
H258 H 0.52883 0.34143 0.35045 0.0
H259 H 0.56419 0.43209 0.37626 0.0
H260 H 0.47165 0.38105 0.35464 0.0
O261 O 0.25469 0.46322 0.36427 0.0
Tb262 Tb 0.2151 0.41881 0.36124 0.0
Eu263 Eu 0.11651 0.39528 0.37467 0.0
C264 C 0.27175 0.47736 0.34573 0.0
O265 O 0.26472 0.46446 0.3246 0.0
C266 C 0.15674 0.40296 0.33222 0.0
O267 O 0.06727 0.36117 0.38024 0.0
C268 C 0.13374 0.45102 0.38523 0.0
C269 C 0.05026 0.36522 0.39576 0.0
O270 O 0.06233 0.3896 0.40912 0.0
C271 C 0.17198 0.39959 0.40403 0.0
C272 C 0.12597 0.47393 0.39236 0.0
C273 C 0.14953 0.50352 0.39636 0.0
C274 C 0.14329 0.52648 0.4025 0.0
C275 C 0.11322 0.51938 0.40503 0.0
C276 C 0.08953 0.49013 0.40041 0.0
C277 C 0.09593 0.46733 0.39399 0.0
O278 O 0.17425 0.41793 0.35012 0.0
O279 O 0.12774 0.39123 0.33607 0.0
O280 O 0.23005 0.39772 0.33441 0.0
O281 O 0.21743 0.37839 0.36925 0.0
C282 C 0.22761 0.37617 0.34847 0.0
O283 O 0.15172 0.38396 0.38753 0.0
O284 O 0.20085 0.41293 0.39837 0.0
O285 O 0.12647 0.44008 0.36344 0.0
O286 O 0.13067 0.43088 0.40133 0.0
H287 H 0.17274 0.50881 0.39422 0.0
H288 H 0.10815 0.53722 0.40882 0.0
H289 H 0.07773 0.44485 0.38987 0.0
O290 O 0.75747 0.23841 0.37447 0.0
Tb291 Tb 0.76861 0.20245 0.37467 0.0
Eu292 Eu 0.7315 0.12815 0.35785 0.0
C293 C 0.76559 0.25747 0.35644 0.0
O294 O 0.779 0.25353 0.33788 0.0
C295 C 0.77365 0.17944 0.324 0.0
O296 O 0.71679 0.07847 0.356 0.0
C297 C 0.68726 0.13832 0.34994 0.0
C298 C 0.695 0.05981 0.37036 0.0
O299 O 0.68247 0.07088 0.38464 0.0
C300 C 0.73583 0.14852 0.41084 0.0
C301 C 0.66018 0.13516 0.36202 0.0
C302 C 0.65843 0.16131 0.36682 0.0
C303 C 0.63313 0.1592 0.37843 0.0
C304 C 0.60952 0.13078 0.38523 0.0
C305 C 0.61045 0.10457 0.37964 0.0
C306 C 0.63581 0.10671 0.36816 0.0
O307 O 0.76364 0.19477 0.33614 0.0
O308 O 0.76953 0.1535 0.3321 0.0
O309 O 0.81119 0.20184 0.37767 0.0
O310 O 0.80923 0.24036 0.38947 0.0
C311 C 0.82663 0.2288 0.38689 0.0
O312 O 0.74157 0.1313 0.39697 0.0
O313 O 0.73821 0.17392 0.40293 0.0
O314 O 0.68709 0.11374 0.34264 0.0
O315 O 0.71298 0.15824 0.35934 0.0
H316 H 0.6766 0.18328 0.3613 0.0
H317 H 0.5893 0.12883 0.39326 0.0
H318 H 0.63622 0.08625 0.36372 0.0
O319 O 0.53929 0.76356 0.36197 0.0
Tb320 Tb 0.58661 0.77627 0.36306 0.0
Eu321 Eu 0.61477 0.72601 0.35382 0.0
C322 C 0.52821 0.77218 0.34439 0.0
O323 O 0.545 0.78507 0.32544 0.0
C324 C 0.61836 0.7731 0.31718 0.0
O325 O 0.64212 0.70246 0.35509 0.0
C326 C 0.55933 0.68612 0.34412 0.0
C327 C 0.67175 0.71757 0.35561 0.0
O328 O 0.68588 0.74724 0.35589 0.0
C329 C 0.6019 0.74331 0.40506 0.0
C330 C 0.53619 0.65649 0.35345 0.0
C331 C 0.50629 0.65033 0.35571 0.0
C332 C 0.4838 0.62218 0.36429 0.0
C333 C 0.49141 0.60029 0.3707 0.0
C334 C 0.52078 0.60564 0.36762 0.0
C335 C 0.54326 0.63384 0.35916 0.0
O336 O 0.59205 0.76659 0.32619 0.0
O337 O 0.63537 0.76408 0.32769 0.0
O338 O 0.58669 0.8182 0.37032 0.0
O339 O 0.62878 0.82007 0.36581 0.0
C340 C 0.61565 0.83599 0.36979 0.0
O341 O 0.62149 0.73955 0.39243 0.0
O342 O 0.58311 0.75092 0.39543 0.0
O343 O 0.58265 0.6871 0.33336 0.0
O344 O 0.5666 0.70953 0.35795 0.0
H345 H 0.50041 0.66718 0.3504 0.0
H346 H 0.47383 0.578 0.37624 0.0
H347 H 0.56597 0.63782 0.3566 0.0
O348 O 0.5636 0.81163 0.86784 0.0
Tb349 Tb 0.60831 0.83648 0.85232 0.0
Eu350 Eu 0.59751 0.90054 0.8421 0.0
C351 C 0.54012 0.79717 0.85377 0.0
O352 O 0.54384 0.80197 0.8306 0.0
C353 C 0.62201 0.87096 0.8053 0.0
O354 O 0.62129 0.95078 0.84712 0.0
C355 C 0.54165 0.87928 0.82999 0.0
C356 C 0.65049 0.9649 0.85101 0.0
O357 O 0.66415 0.94895 0.85258 0.0
C358 C 0.61952 0.88447 0.89039 0.0
C359 C 0.51425 0.87717 0.84082 0.0
C360 C 0.4871 0.84931 0.84107 0.0
C361 C 0.46087 0.8473 0.85089 0.0
C362 C 0.46175 0.87329 0.85994 0.0
C363 C 0.48817 0.90139 0.85892 0.0
C364 C 0.51461 0.90311 0.84991 0.0
O365 O 0.60302 0.84537 0.81553 0.0
O366 O 0.62727 0.89684 0.8142 0.0
O367 O 0.60534 0.79248 0.85712 0.0
O368 O 0.64747 0.83029 0.84789 0.0
C369 C 0.63345 0.80151 0.8525 0.0
O370 O 0.60057 0.89202 0.88119 0.0
O371 O 0.63277 0.87329 0.87712 0.0
O372 O 0.56332 0.90648 0.82407 0.0
O373 O 0.55167 0.86243 0.83961 0.0
H374 H 0.48631 0.82938 0.83349 0.0
H375 H 0.44125 0.87184 0.86688 0.0
H376 H 0.53508 0.92487 0.84906 0.0
O377 O 0.76262 0.5366 0.88652 0.0
Tb378 Tb 0.77547 0.58396 0.88746 0.0
Eu379 Eu 0.73502 0.61413 0.86425 0.0
C380 C 0.7585 0.52075 0.9061 0.0
O381 O 0.76065 0.53341 0.92701 0.0
C382 C 0.78151 0.6071 0.83564 0.0
O383 O 0.71352 0.64271 0.85776 0.0
C384 C 0.69628 0.55732 0.85751 0.0
C385 C 0.73028 0.67225 0.85648 0.0
O386 O 0.75969 0.68463 0.85816 0.0
C387 C 0.74166 0.60858 0.91973 0.0
C388 C 0.66616 0.53349 0.86494 0.0
C389 C 0.66047 0.50362 0.86675 0.0
C390 C 0.63173 0.48031 0.87319 0.0
C391 C 0.60865 0.48689 0.87733 0.0
C392 C 0.61369 0.51629 0.87466 0.0
C393 C 0.64274 0.53981 0.86907 0.0
O394 O 0.77026 0.58251 0.84881 0.0
O395 O 0.7759 0.62866 0.8415 0.0
O396 O 0.8169 0.589 0.90295 0.0
O397 O 0.81828 0.62677 0.88561 0.0
C398 C 0.83428 0.61702 0.89659 0.0
O399 O 0.74348 0.62737 0.90291 0.0
O400 O 0.74673 0.5861 0.91549 0.0
O401 O 0.69781 0.57912 0.84397 0.0
O402 O 0.71742 0.56686 0.87381 0.0
H403 H 0.67821 0.49847 0.86288 0.0
H404 H 0.58617 0.46866 0.88158 0.0
H405 H 0.64678 0.56263 0.86691 0.0
O406 O 0.23369 0.7571 0.86434 0.0
Tb407 Tb 0.19815 0.7686 0.86567 0.0
Eu408 Eu 0.12233 0.73361 0.86585 0.0
C409 C 0.24758 0.75845 0.84416 0.0
O410 O 0.23828 0.76481 0.82425 0.0
C411 C 0.16039 0.75997 0.8206 0.0
O412 O 0.07417 0.72238 0.87209 0.0
C413 C 0.12408 0.68381 0.86169 0.0
C414 C 0.05806 0.70276 0.88885 0.0
O415 O 0.07089 0.69097 0.90199 0.0
C416 C 0.16078 0.75227 0.91313 0.0
C417 C 0.1173 0.65702 0.87637 0.0
C418 C 0.14098 0.65375 0.88598 0.0
C419 C 0.13479 0.62771 0.899 0.0
C420 C 0.10477 0.60501 0.90235 0.0
C421 C 0.08113 0.60735 0.89207 0.0
C422 C 0.08741 0.63348 0.87932 0.0
O423 O 0.17743 0.75082 0.83107 0.0
O424 O 0.14026 0.76281 0.83314 0.0
O425 O 0.19538 0.81014 0.86805 0.0
O426 O 0.23826 0.81325 0.86504 0.0
C427 C 0.22439 0.82863 0.86698 0.0
O428 O 0.13891 0.75393 0.90217 0.0
O429 O 0.18157 0.74978 0.90106 0.0
O430 O 0.10118 0.6867 0.85455 0.0
O431 O 0.14741 0.7095 0.86812 0.0
H432 H 0.1642 0.671 0.88279 0.0
H433 H 0.0999 0.58407 0.91109 0.0
H434 H 0.06898 0.63494 0.87114 0.0
O435 O 0.46645 0.25531 0.8737 0.0
Tb436 Tb 0.41967 0.21976 0.87069 0.0
Eu437 Eu 0.39502 0.12025 0.87272 0.0
C438 C 0.48096 0.27331 0.85566 0.0
O439 O 0.46704 0.26962 0.83519 0.0
C440 C 0.39433 0.16313 0.83618 0.0
O441 O 0.36684 0.06992 0.87817 0.0
C442 C 0.45254 0.14068 0.87549 0.0
C443 C 0.33793 0.05527 0.87301 0.0
O444 O 0.32505 0.07055 0.86563 0.0
C445 C 0.40176 0.17073 0.90948 0.0
C446 C 0.47692 0.13373 0.87811 0.0
C447 C 0.50666 0.15773 0.87721 0.0
C448 C 0.53081 0.15239 0.87967 0.0
C449 C 0.52501 0.12275 0.88286 0.0
C450 C 0.49532 0.09833 0.88339 0.0
C451 C 0.47118 0.10403 0.88115 0.0
O452 O 0.41253 0.17867 0.85364 0.0
O453 O 0.38321 0.13383 0.83759 0.0
O454 O 0.40262 0.24386 0.84914 0.0
O455 O 0.38367 0.22722 0.88358 0.0
C456 C 0.38322 0.24242 0.86502 0.0
O457 O 0.38417 0.15237 0.89261 0.0
O458 O 0.41544 0.20027 0.90606 0.0
O459 O 0.43775 0.13339 0.85513 0.0
O460 O 0.43543 0.13638 0.89431 0.0
H461 H 0.51104 0.18063 0.87459 0.0
H462 H 0.54384 0.11865 0.88365 0.0
H463 H 0.4481 0.08556 0.88163 0.0
O464 O 0.21674 0.48383 0.883 0.0
Tb465 Tb 0.21318 0.44124 0.87296 0.0
Eu466 Eu 0.31013 0.45061 0.86985 0.0
C467 C 0.20968 0.48932 0.90426 0.0
O468 O 0.20006 0.46832 0.92088 0.0
C469 C 0.25649 0.43615 0.83568 0.0
O470 O 0.32821 0.41921 0.8772 0.0
C471 C 0.35027 0.50745 0.86798 0.0
C472 C 0.30952 0.39016 0.88029 0.0
O473 O 0.28047 0.3804 0.88176 0.0
C474 C 0.25216 0.42679 0.90504 0.0
C475 C 0.38189 0.53058 0.87125 0.0
C476 C 0.38888 0.56075 0.87334 0.0
C477 C 0.41852 0.58355 0.87784 0.0
C478 C 0.4412 0.57591 0.87987 0.0
C479 C 0.43458 0.54582 0.87772 0.0
C480 C 0.40465 0.52307 0.87349 0.0
O481 O 0.25356 0.45246 0.85237 0.0
O482 O 0.28097 0.4338 0.83642 0.0
O483 O 0.16946 0.401 0.87837 0.0
O484 O 0.17809 0.42469 0.8454 0.0
C485 C 0.15815 0.40177 0.85778 0.0
O486 O 0.2721 0.44849 0.89154 0.0
O487 O 0.22438 0.42165 0.9033 0.0
O488 O 0.34311 0.48945 0.84931 0.0
O489 O 0.33541 0.49384 0.88753 0.0
H490 H 0.37115 0.56643 0.8718 0.0
H491 H 0.46436 0.59373 0.88223 0.0
H492 H 0.39899 0.49964 0.87217 0.0
O493 O 0.7636 0.26408 0.85976 0.0
Tb494 Tb 0.79686 0.25099 0.85151 0.0
Eu495 Eu 0.87202 0.29647 0.84421 0.0
C496 C 0.74568 0.2643 0.84306 0.0
O497 O 0.75124 0.26114 0.82061 0.0
C498 C 0.82921 0.26037 0.80385 0.0
O499 O 0.92249 0.31827 0.84269 0.0
C500 C 0.8542 0.33608 0.84496 0.0
C501 C 0.93494 0.30155 0.84664 0.0
O502 O 0.91755 0.27284 0.85191 0.0
C503 C 0.84314 0.26424 0.89342 0.0
C504 C 0.85813 0.36172 0.85971 0.0
C505 C 0.83258 0.36308 0.86731 0.0
C506 C 0.83592 0.38748 0.88117 0.0
C507 C 0.8649 0.41059 0.88715 0.0
C508 C 0.89049 0.41009 0.87896 0.0
C509 C 0.88704 0.38539 0.86554 0.0
O510 O 0.81203 0.26837 0.81555 0.0
O511 O 0.85386 0.26409 0.81386 0.0
O512 O 0.79675 0.20798 0.85099 0.0
O513 O 0.75518 0.2079 0.84911 0.0
C514 C 0.76756 0.19105 0.8496 0.0
O515 O 0.86653 0.27299 0.87923 0.0
O516 O 0.81835 0.26387 0.88648 0.0
O517 O 0.87761 0.33962 0.83256 0.0
O518 O 0.83889 0.30929 0.85478 0.0
H519 H 0.81023 0.34544 0.86219 0.0
H520 H 0.86759 0.43029 0.89669 0.0
H521 H 0.90691 0.38501 0.85927 0.0
O522 O 0.24048 0.48114 0.62001 0.0
Tb523 Tb 0.20485 0.43457 0.62422 0.0
Eu524 Eu 0.12962 0.399 0.6309 0.0
C525 C 0.25371 0.49885 0.63843 0.0
O526 O 0.24351 0.48911 0.66009 0.0
C527 C 0.1727 0.41056 0.67265 0.0
O528 O 0.0807 0.36255 0.63005 0.0
C529 C 0.13578 0.45256 0.6354 0.0
C530 C 0.06379 0.35419 0.64943 0.0
O531 O 0.07567 0.36731 0.6699 0.0
C532 C 0.16034 0.41254 0.58014 0.0
C533 C 0.13204 0.47587 0.62258 0.0
C534 C 0.15761 0.50431 0.61817 0.0
C535 C 0.15465 0.52765 0.60754 0.0
C536 C 0.12592 0.52223 0.6011 0.0
C537 C 0.1002 0.49456 0.60622 0.0
C538 C 0.10327 0.47132 0.61686 0.0
O539 O 0.18974 0.43546 0.66054 0.0
O540 O 0.14991 0.3877 0.66208 0.0
O541 O 0.20304 0.39059 0.62191 0.0
O542 O 0.24548 0.43087 0.62426 0.0
C543 C 0.23219 0.40164 0.62274 0.0
O544 O 0.13892 0.39103 0.59307 0.0
O545 O 0.18424 0.43514 0.59016 0.0
O546 O 0.11141 0.42761 0.642 0.0
O547 O 0.1575 0.44796 0.62797 0.0
H548 H 0.17971 0.50858 0.62367 0.0
H549 H 0.12326 0.54055 0.594 0.0
H550 H 0.08321 0.45016 0.62125 0.0
O551 O 0.77978 0.24155 0.6133 0.0
Tb552 Tb 0.78608 0.20297 0.61791 0.0
Eu553 Eu 0.70631 0.10578 0.6142 0.0
C554 C 0.78568 0.261 0.63065 0.0
O555 O 0.79527 0.25681 0.65129 0.0
C556 C 0.74417 0.14925 0.65165 0.0
O557 O 0.68362 0.05531 0.61014 0.0
C558 C 0.67345 0.13006 0.60461 0.0
C559 C 0.70005 0.0421 0.60944 0.0
O560 O 0.72949 0.05882 0.61114 0.0
C561 C 0.75805 0.15256 0.57996 0.0
C562 C 0.64364 0.12645 0.60019 0.0
C563 C 0.64057 0.15225 0.60142 0.0
C564 C 0.61228 0.1498 0.59847 0.0
C565 C 0.58707 0.12138 0.59446 0.0
C566 C 0.58955 0.09522 0.59435 0.0
C567 C 0.61815 0.09791 0.59675 0.0
O568 O 0.74679 0.16333 0.63153 0.0
O569 O 0.72519 0.12013 0.65142 0.0
O570 O 0.82068 0.21542 0.64558 0.0
O571 O 0.83125 0.21219 0.60916 0.0
C572 C 0.84191 0.21865 0.63081 0.0
O573 O 0.75291 0.13423 0.59817 0.0
O574 O 0.77532 0.18204 0.58279 0.0
O575 O 0.6788 0.12453 0.62646 0.0
O576 O 0.6855 0.12123 0.58792 0.0
H577 H 0.66007 0.17416 0.60504 0.0
H578 H 0.56509 0.11949 0.59263 0.0
H579 H 0.62043 0.07791 0.59707 0.0
O580 O 0.52479 0.74791 0.6286 0.0
Tb581 Tb 0.57058 0.75823 0.62111 0.0
Eu582 Eu 0.60245 0.71227 0.63488 0.0
C583 C 0.50517 0.74057 0.61114 0.0
O584 O 0.51255 0.73592 0.58969 0.0
C585 C 0.61033 0.76636 0.66407 0.0
O586 O 0.63021 0.68927 0.63426 0.0
C587 C 0.54725 0.67518 0.64768 0.0
C588 C 0.65928 0.70493 0.62975 0.0
O589 O 0.67182 0.73413 0.62589 0.0
C590 C 0.58634 0.7233 0.58221 0.0
C591 C 0.52202 0.64644 0.63896 0.0
C592 C 0.49364 0.64394 0.63552 0.0
C593 C 0.46958 0.61725 0.6263 0.0
C594 C 0.47404 0.59303 0.6206 0.0
C595 C 0.50184 0.59486 0.62476 0.0
C596 C 0.52588 0.62161 0.63382 0.0
O597 O 0.58198 0.75431 0.65771 0.0
O598 O 0.62625 0.75448 0.65637 0.0
O599 O 0.61327 0.80021 0.61476 0.0
O600 O 0.57187 0.79968 0.6097 0.0
C601 C 0.60101 0.81645 0.60909 0.0
O602 O 0.60671 0.72168 0.59547 0.0
O603 O 0.56558 0.72859 0.59127 0.0
O604 O 0.5706 0.67452 0.65684 0.0
O605 O 0.55483 0.69872 0.63393 0.0
H606 H 0.49027 0.66272 0.64003 0.0
H607 H 0.45524 0.57192 0.61435 0.0
H608 H 0.54741 0.62292 0.63689 0.0
O609 O 0.77021 0.51759 0.6186 0.0
Tb610 Tb 0.80551 0.5645 0.62205 0.0
Eu611 Eu 0.88179 0.60134 0.62614 0.0
C612 C 0.75406 0.50213 0.63718 0.0
O613 O 0.76198 0.51407 0.6586 0.0
C614 C 0.84028 0.59231 0.66838 0.0
O615 O 0.93125 0.6358 0.6243 0.0
C616 C 0.87376 0.54722 0.63124 0.0
C617 C 0.94786 0.64298 0.64373 0.0
O618 O 0.93507 0.63012 0.66412 0.0
C619 C 0.84807 0.58985 0.57668 0.0
C620 C 0.87872 0.52436 0.6192 0.0
C621 C 0.85387 0.49538 0.61564 0.0
C622 C 0.85785 0.47218 0.60619 0.0
C623 C 0.88686 0.4783 0.59984 0.0
C624 C 0.912 0.50671 0.60411 0.0
C625 C 0.90788 0.52985 0.61362 0.0
O626 O 0.82328 0.56619 0.65781 0.0
O627 O 0.86232 0.61437 0.65649 0.0
O628 O 0.80608 0.60782 0.62007 0.0
O629 O 0.76439 0.567 0.6244 0.0
C630 C 0.77699 0.59612 0.62242 0.0
O631 O 0.87081 0.61008 0.58932 0.0
O632 O 0.82476 0.56643 0.58672 0.0
O633 O 0.89746 0.57154 0.63944 0.0
O634 O 0.8534 0.55262 0.62192 0.0
H635 H 0.83155 0.49051 0.62117 0.0
H636 H 0.89025 0.46001 0.59379 0.0
H637 H 0.92742 0.55164 0.6174 0.0
O638 O 0.2393 0.75736 0.6103 0.0
Tb639 Tb 0.23051 0.79324 0.62053 0.0
Eu640 Eu 0.28733 0.88005 0.62334 0.0
C641 C 0.2481 0.74444 0.62623 0.0
O642 O 0.25428 0.75542 0.64803 0.0
C643 C 0.24871 0.83613 0.66192 0.0
O644 O 0.31399 0.931 0.62172 0.0
C645 C 0.31952 0.85367 0.61966 0.0
C646 C 0.29895 0.94552 0.61899 0.0
O647 O 0.26949 0.92964 0.61684 0.0
C648 C 0.24032 0.84128 0.58131 0.0
C649 C 0.34983 0.8589 0.61442 0.0
C650 C 0.35551 0.83477 0.6165 0.0
C651 C 0.38472 0.8397 0.61305 0.0
C652 C 0.40815 0.86865 0.60736 0.0
C653 C 0.40276 0.89293 0.60507 0.0
C654 C 0.37337 0.88786 0.6086 0.0
O655 O 0.25845 0.82129 0.64907 0.0
O656 O 0.25733 0.86391 0.6556 0.0
O657 O 0.18986 0.75967 0.63903 0.0
O658 O 0.18724 0.79177 0.61646 0.0
C659 C 0.17208 0.76873 0.63053 0.0
O660 O 0.25077 0.86524 0.59534 0.0
O661 O 0.24251 0.8172 0.58656 0.0
O662 O 0.31646 0.86535 0.63967 0.0
O663 O 0.30443 0.85632 0.60175 0.0
H664 H 0.33743 0.81242 0.6213 0.0
H665 H 0.43084 0.87234 0.60544 0.0
H666 H 0.3688 0.90637 0.60709 0.0
O667 O 0.47982 0.24684 0.62142 0.0
Tb668 Tb 0.43253 0.23262 0.62623 0.0
Eu669 Eu 0.40248 0.27896 0.6312 0.0
C670 C 0.49617 0.24491 0.6387 0.0
O671 O 0.48469 0.2376 0.66034 0.0
C672 C 0.4045 0.24079 0.67226 0.0
O673 O 0.37526 0.30275 0.62872 0.0
C674 C 0.45887 0.31847 0.63897 0.0
C675 C 0.34561 0.28754 0.62767 0.0
O676 O 0.33163 0.25788 0.62799 0.0
C677 C 0.41225 0.2565 0.58075 0.0
C678 C 0.48322 0.34766 0.62985 0.0
C679 C 0.51248 0.35203 0.62703 0.0
C680 C 0.53622 0.38006 0.61925 0.0
C681 C 0.53047 0.40366 0.61439 0.0
C682 C 0.50177 0.39996 0.61807 0.0
C683 C 0.47809 0.37186 0.62551 0.0
O684 O 0.43047 0.24807 0.66216 0.0
O685 O 0.38421 0.24363 0.66003 0.0
O686 O 0.43167 0.1896 0.62901 0.0
O687 O 0.39064 0.18912 0.6219 0.0
C688 C 0.40303 0.17237 0.62513 0.0
O689 O 0.39378 0.26219 0.59321 0.0
O690 O 0.43221 0.25094 0.59099 0.0
O691 O 0.43627 0.31866 0.65 0.0
O692 O 0.45032 0.29487 0.62512 0.0
H693 H 0.51689 0.33385 0.63126 0.0
H694 H 0.54897 0.42575 0.60952 0.0
H695 H 0.45593 0.36917 0.62847 0.0
H696 H 0.28343 0.99438 0.09575 0.0
H697 H 0.2757 0.84939 0.15623 0.0
H698 H 0.34764 0.99796 0.14756 0.0
H699 H 0.20011 0.84492 0.11851 0.0
H700 H 0.30225 0.90421 0.15265 0.0
H701 H 0.25218 0.93997 0.10327 0.0
C702 C 0.29086 0.98381 0.10881 0.0
C703 C 0.31834 1.0007 0.12088 0.0
C704 C 0.27977 0.89137 0.14528 0.0
C705 C 0.28286 0.93867 0.12946 0.0
C706 C 0.26464 0.86006 0.14729 0.0
C707 C 0.23576 0.84273 0.1376 0.0
C708 C 0.26613 0.90553 0.13318 0.0
C709 C 0.22239 0.85761 0.12625 0.0
C710 C 0.27299 0.9528 0.1131 0.0
C711 C 0.32678 0.98587 0.13768 0.0
N712 N 0.23783 0.88827 0.12413 0.0
N713 N 0.30924 0.95572 0.14131 0.0
H714 H 0.25748 0.29333 0.09514 0.0
H715 H 0.36905 0.24828 0.15944 0.0
H716 H 0.32132 0.34875 0.14916 0.0
H717 H 0.32413 0.20911 0.09285 0.0
H718 H 0.34753 0.28174 0.15885 0.0
H719 H 0.27768 0.25898 0.09679 0.0
C720 C 0.27572 0.29828 0.1074 0.0
C721 C 0.28772 0.32401 0.12204 0.0
C722 C 0.34231 0.26577 0.14441 0.0
C723 C 0.31086 0.28454 0.1241 0.0
C724 C 0.35442 0.24656 0.1448 0.0
C725 C 0.34828 0.2259 0.12617 0.0
C726 C 0.32367 0.26409 0.12536 0.0
C727 C 0.32937 0.2247 0.10757 0.0
C728 C 0.28729 0.27866 0.10828 0.0
C729 C 0.31143 0.32925 0.13751 0.0
N730 N 0.31769 0.24351 0.10765 0.0
N731 N 0.32215 0.30961 0.13821 0.0
H732 H 0.97875 0.26441 0.10987 0.0
H733 H 0.13087 0.42493 0.1051 0.0
H734 H 0.98079 0.3499 0.10691 0.0
H735 H 0.13006 0.34018 0.1092 0.0
H736 H 0.07586 0.39749 0.10441 0.0
H737 H 0.03383 0.29132 0.10847 0.0
C738 C 0.99075 0.28885 0.10889 0.0
C739 C 0.97503 0.3049 0.10856 0.0
C740 C 0.08761 0.3848 0.10538 0.0
C741 C 0.03828 0.33589 0.10694 0.0
C742 C 0.11906 0.40047 0.10574 0.0
C743 C 0.13503 0.38478 0.10722 0.0
C744 C 0.07185 0.35311 0.10655 0.0
C745 C 0.11858 0.35312 0.10802 0.0
C746 C 0.02225 0.3042 0.10809 0.0
C747 C 0.99188 0.33655 0.10725 0.0
N748 N 0.08787 0.3383 0.10774 0.0
N749 N 0.02253 0.35096 0.10652 0.0
H750 H 0.79183 0.13088 0.11651 0.0
H751 H 0.62967 0.98036 0.1226 0.0
H752 H 0.708 0.13121 0.12301 0.0
H753 H 0.71378 0.97997 0.11934 0.0
H754 H 0.65797 0.03565 0.12323 0.0
H755 H 0.76374 0.07551 0.11821 0.0
C756 C 0.76754 0.11927 0.11843 0.0
C757 C 0.75219 0.13555 0.11959 0.0
C758 C 0.67024 0.02345 0.12242 0.0
C759 C 0.71987 0.07234 0.1214 0.0
C760 C 0.65407 0.99187 0.12205 0.0
C761 C 0.66934 0.97545 0.12088 0.0
C762 C 0.70193 0.03878 0.12158 0.0
C763 C 0.70101 0.99163 0.12022 0.0
C764 C 0.75149 0.08769 0.11937 0.0
C765 C 0.7207 0.11947 0.12204 0.0
N766 N 0.71621 0.02233 0.12053 0.0
N767 N 0.70558 0.08878 0.12277 0.0
H768 H 0.72428 0.69365 0.11385 0.0
H769 H 0.57552 0.70554 0.09489 0.0
H770 H 0.63541 0.61674 0.10367 0.0
H771 H 0.66333 0.78301 0.10705 0.0
H772 H 0.59797 0.67314 0.09529 0.0
H773 H 0.70335 0.72712 0.10855 0.0
C774 C 0.7004 0.68379 0.11033 0.0
C775 C 0.68153 0.65231 0.10935 0.0
C776 C 0.61243 0.69722 0.09776 0.0
C777 C 0.65743 0.69053 0.10335 0.0
C778 C 0.59961 0.71574 0.09752 0.0
C779 C 0.61763 0.74695 0.10101 0.0
C780 C 0.64353 0.70997 0.1016 0.0
C781 C 0.64869 0.75902 0.10431 0.0
C782 C 0.68847 0.70293 0.10735 0.0
C783 C 0.65079 0.64084 0.10468 0.0
N784 N 0.66068 0.74046 0.10464 0.0
N785 N 0.6397 0.65994 0.10198 0.0
H786 H 0.03209 0.70831 0.1176 0.0
H787 H 0.8646 0.61237 0.16785 0.0
H788 H 0.01161 0.67222 0.18937 0.0
H789 H 0.88695 0.65748 0.09939 0.0
H790 H 0.91834 0.63735 0.17758 0.0
H791 H 0.97921 0.69298 0.1119 0.0
C792 C 0.01648 0.69729 0.13223 0.0
C793 C 0.02621 0.69123 0.15391 0.0
C794 C 0.91149 0.64205 0.16054 0.0
C795 C 0.9655 0.67348 0.14747 0.0
C796 C 0.88087 0.62782 0.155 0.0
C797 C 0.87154 0.6327 0.1327 0.0
C798 C 0.9328 0.66104 0.14354 0.0
C799 C 0.89333 0.65301 0.11672 0.0
C800 C 0.98626 0.68861 0.12898 0.0
C801 C 0.00503 0.67716 0.17232 0.0
N802 N 0.92302 0.6662 0.12235 0.0
N803 N 0.97556 0.66846 0.16859 0.0
H804 H 0.14365 0.74255 0.33454 0.0
H805 H 0.98575 0.7088 0.39105 0.0
H806 H 0.13634 0.78282 0.40017 0.0
H807 H 0.99385 0.65546 0.33473 0.0
H808 H 0.0407 0.7403 0.39182 0.0
H809 H 0.08862 0.71506 0.33127 0.0
C810 C 0.13043 0.7458 0.34815 0.0
C811 C 0.14447 0.76483 0.36772 0.0
C812 C 0.03043 0.72174 0.37927 0.0
C813 C 0.08156 0.73339 0.36417 0.0
C814 C 0.99905 0.70375 0.37878 0.0
C815 C 0.98512 0.67933 0.36286 0.0
C816 C 0.04808 0.71546 0.36359 0.0
C817 C 0.00357 0.67392 0.34739 0.0
C818 C 0.09903 0.73002 0.34633 0.0
C819 C 0.12634 0.76829 0.38483 0.0
N820 N 0.03406 0.69183 0.34814 0.0
N821 N 0.09579 0.75263 0.3827 0.0
H822 H 0.37089 0.14204 0.35299 0.0
H823 H 0.3816 0.00508 0.413 0.0
H824 H 0.44409 0.15418 0.39845 0.0
H825 H 0.32538 0.99328 0.35186 0.0
H826 H 0.40066 0.05949 0.41128 0.0
H827 H 0.34932 0.08698 0.35603 0.0
C828 C 0.38218 0.13309 0.36383 0.0
C829 C 0.40927 0.15259 0.37549 0.0
C830 C 0.38418 0.04501 0.39821 0.0
C831 C 0.38492 0.08995 0.37901 0.0
C832 C 0.37328 0.01391 0.39918 0.0
C833 C 0.35194 0.99455 0.38249 0.0
C834 C 0.37344 0.05691 0.38059 0.0
C835 C 0.34197 0.00736 0.365 0.0
C836 C 0.37002 0.10174 0.36542 0.0
C837 C 0.42317 0.13991 0.38915 0.0
N838 N 0.3527 0.03771 0.36456 0.0
N839 N 0.41085 0.10943 0.39055 0.0
H840 H 0.21793 0.32705 0.37414 0.0
H841 H 0.36165 0.32645 0.32061 0.0
H842 H 0.26738 0.38125 0.31335 0.0
H843 H 0.30126 0.26082 0.3719 0.0
H844 H 0.3263 0.34522 0.31612 0.0
H845 H 0.24628 0.30033 0.37171 0.0
C846 C 0.23442 0.33292 0.35998 0.0
C847 C 0.24045 0.35642 0.34398 0.0
C848 C 0.32065 0.32652 0.32817 0.0
C849 C 0.27353 0.32643 0.34138 0.0
C850 C 0.34088 0.31585 0.33083 0.0
C851 C 0.33454 0.29217 0.34682 0.0
C852 C 0.294 0.31363 0.34178 0.0
C853 C 0.30718 0.27921 0.35945 0.0
C854 C 0.25068 0.31773 0.35863 0.0
C855 C 0.26205 0.36319 0.326 0.0
N856 N 0.28808 0.29029 0.35683 0.0
N857 N 0.27818 0.34856 0.3254 0.0
H858 H 0.00709 0.36969 0.42167 0.0
H859 H 0.86928 0.21403 0.37319 0.0
H860 H 0.01861 0.31054 0.37306 0.0
H861 H 0.85863 0.28218 0.41026 0.0
H862 H 0.92424 0.24556 0.3774 0.0
H863 H 0.95281 0.3344 0.42203 0.0
C864 C 0.99826 0.3492 0.41118 0.0
C865 C 0.01749 0.3432 0.39721 0.0
C866 C 0.90984 0.25347 0.38477 0.0
C867 C 0.9552 0.30259 0.39754 0.0
C868 C 0.87851 0.23543 0.38248 0.0
C869 C 0.85947 0.24559 0.39133 0.0
C870 C 0.92208 0.28173 0.39615 0.0
C871 C 0.87254 0.27355 0.4031 0.0
C872 C 0.96722 0.32906 0.41136 0.0
C873 C 0.00466 0.31621 0.384 0.0
N874 N 0.90297 0.29065 0.40511 0.0
N875 N 0.97435 0.29696 0.38444 0.0
H876 H 0.67365 0.87937 0.35746 0.0
H877 H 0.64614 0.01562 0.39381 0.0
H878 H 0.59026 0.86811 0.3859 0.0
H879 H 0.72009 0.0291 0.3483 0.0
H880 H 0.62886 0.96179 0.39501 0.0
H881 H 0.69464 0.93461 0.35795 0.0
C882 C 0.65994 0.88854 0.36405 0.0
C883 C 0.63022 0.86923 0.37167 0.0
C884 C 0.64888 0.97644 0.38473 0.0
C885 C 0.65387 0.93195 0.37226 0.0
C886 C 0.65881 0.00728 0.38405 0.0
C887 C 0.68457 0.02698 0.37085 0.0
C888 C 0.66484 0.96496 0.37225 0.0
C889 C 0.70002 0.01471 0.3586 0.0
C890 C 0.67181 0.91996 0.36418 0.0
C891 C 0.61327 0.88217 0.37984 0.0
N892 N 0.68994 0.98446 0.35962 0.0
N893 N 0.62532 0.91261 0.37994 0.0
H894 H 0.64949 0.65661 0.35245 0.0
H895 H 0.81102 0.66679 0.35714 0.0
H896 H 0.73313 0.74116 0.35787 0.0
H897 H 0.72708 0.58466 0.34447 0.0
H898 H 0.78338 0.6947 0.35874 0.0
H899 H 0.67792 0.62998 0.35106 0.0
C900 C 0.67386 0.66961 0.3534 0.0
C901 C 0.68892 0.70121 0.35525 0.0
C902 C 0.77105 0.67058 0.35557 0.0
C903 C 0.72176 0.67073 0.35364 0.0
C904 C 0.78681 0.65469 0.35465 0.0
C905 C 0.77128 0.62343 0.35066 0.0
C906 C 0.73957 0.65498 0.35258 0.0
C907 C 0.73994 0.60878 0.34758 0.0
C908 C 0.69012 0.65436 0.35255 0.0
C909 C 0.72056 0.71679 0.3564 0.0
N910 N 0.72514 0.62464 0.34865 0.0
N911 N 0.73594 0.7014 0.35558 0.0
H912 H 0.70691 0.15489 0.8468 0.0
H913 H 0.71141 1.00083 0.85666 0.0
H914 H 0.78941 0.15189 0.85284 0.0
H915 H 0.62969 0.00488 0.8477 0.0
H916 H 0.74035 0.05598 0.85655 0.0
H917 H 0.6783 0.09983 0.84798 0.0
C918 C 0.71899 0.14256 0.84831 0.0
C919 C 0.75052 0.15783 0.84968 0.0
C920 C 0.71609 0.0448 0.85466 0.0
C921 C 0.71795 0.09481 0.85115 0.0
C922 C 0.69952 0.01331 0.85476 0.0
C923 C 0.66806 0.99821 0.85212 0.0
C924 C 0.7011 0.06134 0.8519 0.0
C925 C 0.65389 0.01555 0.84974 0.0
C926 C 0.70265 0.11112 0.84902 0.0
C927 C 0.76509 0.14086 0.85168 0.0
N928 N 0.67053 0.04619 0.84965 0.0
N929 N 0.74865 0.11017 0.85238 0.0
H930 H 0.60556 0.74056 0.85955 0.0
H931 H 0.75833 0.73371 0.85135 0.0
H932 H 0.69254 0.81833 0.84516 0.0
H933 H 0.6701 0.65453 0.85717 0.0
H934 H 0.73475 0.76514 0.84965 0.0
H935 H 0.62885 0.70871 0.8595 0.0
C936 C 0.62958 0.7509 0.85638 0.0
C937 C 0.64721 0.78208 0.8524 0.0
C938 C 0.72053 0.74088 0.85121 0.0
C939 C 0.67403 0.74588 0.85234 0.0
C940 C 0.73398 0.7229 0.85219 0.0
C941 C 0.71618 0.69142 0.85444 0.0
C942 C 0.68901 0.72734 0.85262 0.0
C943 C 0.68473 0.6787 0.85542 0.0
C944 C 0.64286 0.73272 0.85631 0.0
C945 C 0.67819 0.79436 0.84833 0.0
N946 N 0.67217 0.69671 0.8546 0.0
N947 N 0.69064 0.77624 0.84847 0.0
H948 H 0.01823 0.6598 0.91978 0.0
H949 H 0.87483 0.67076 0.87567 0.0
H950 H 0.02368 0.72248 0.86546 0.0
H951 H 0.86932 0.59975 0.92093 0.0
H952 H 0.92998 0.69405 0.87527 0.0
H953 H 0.96439 0.64152 0.92382 0.0
C954 C 0.00816 0.66987 0.90876 0.0
C955 C 0.02558 0.69267 0.89215 0.0
C956 C 0.91671 0.67351 0.88545 0.0
C957 C 0.96361 0.67169 0.89673 0.0
C958 C 0.88527 0.66033 0.88579 0.0
C959 C 0.86754 0.6333 0.89833 0.0
C960 C 0.93046 0.65962 0.89786 0.0
C961 C 0.88216 0.62058 0.911 0.0
C962 C 0.97733 0.65935 0.91107 0.0
C963 C 0.01115 0.70481 0.87842 0.0
N964 N 0.91271 0.63378 0.91039 0.0
N965 N 0.98101 0.69412 0.88097 0.0
H966 H 0.35926 0.01661 0.88203 0.0
H967 H 0.1993 0.86531 0.86797 0.0
H968 H 0.27726 0.01757 0.86588 0.0
H969 H 0.28464 0.8675 0.86945 0.0
H970 H 0.22633 0.92077 0.8706 0.0
H971 H 0.33108 0.96151 0.88135 0.0
C972 C 0.33528 0.00525 0.87847 0.0
C973 C 0.32065 0.0218 0.87393 0.0
C974 C 0.23909 0.90906 0.87034 0.0
C975 C 0.28815 0.95852 0.87307 0.0
C976 C 0.22369 0.87748 0.86886 0.0
C977 C 0.2398 0.8619 0.86845 0.0
C978 C 0.27076 0.92501 0.87163 0.0
C979 C 0.27135 0.87865 0.86966 0.0
C980 C 0.3192 0.97374 0.87799 0.0
C981 C 0.2895 0.00575 0.86941 0.0
N982 N 0.28577 0.90924 0.87125 0.0
N983 N 0.27429 0.975 0.86907 0.0
H984 H 0.36332 0.3996 0.86228 0.0
H985 H 0.33773 0.23679 0.8939 0.0
H986 H 0.2805 0.33082 0.89427 0.0
H987 H 0.39621 0.29093 0.83654 0.0
H988 H 0.31887 0.27236 0.89756 0.0
H989 H 0.37926 0.36204 0.85681 0.0
C990 C 0.34862 0.37668 0.86839 0.0
C991 C 0.32053 0.36833 0.87879 0.0
C992 C 0.33556 0.27623 0.88399 0.0
C993 C 0.33864 0.32528 0.87251 0.0
C994 C 0.34623 0.25593 0.88184 0.0
C995 C 0.36842 0.26091 0.86482 0.0
C996 C 0.34769 0.30205 0.86937 0.0
C997 C 0.37891 0.28617 0.84976 0.0
C998 C 0.35761 0.35521 0.86504 0.0
C999 C 0.3023 0.33821 0.88615 0.0
N1000 N 0.36874 0.30605 0.8526 0.0
N1001 N 0.31174 0.3178 0.88299 0.0
H1002 H 0.97666 0.35596 0.82741 0.0
H1003 H 0.11719 0.34967 0.87938 0.0
H1004 H 0.9684 0.27693 0.86269 0.0
H1005 H 0.1262 0.41152 0.82314 0.0
H1006 H 0.06256 0.32287 0.87388 0.0
H1007 H 0.03146 0.3776 0.82636 0.0
C1008 C 0.98636 0.34315 0.8349 0.0
C1009 C 0.96798 0.3147 0.8453 0.0
C1010 C 0.07647 0.34202 0.86248 0.0
C1011 C 0.03053 0.33932 0.84421 0.0
C1012 C 0.10762 0.35729 0.8656 0.0
C1013 C 0.12607 0.38285 0.85175 0.0
C1014 C 0.06366 0.35278 0.8457 0.0
C1015 C 0.11265 0.39186 0.83416 0.0
C1016 C 0.0176 0.35542 0.83414 0.0
C1017 C 0.98172 0.29897 0.85455 0.0
N1018 N 0.08213 0.37709 0.83187 0.0
N1019 N 0.01219 0.31163 0.85401 0.0
H1020 H 0.87078 0.24462 0.67301 0.0
H1021 H 0.03336 0.31963 0.61081 0.0
H1022 H 0.88681 0.22589 0.60092 0.0
H1023 H 0.02048 0.33544 0.68462 0.0
H1024 H 0.97981 0.28278 0.60801 0.0
H1025 H 0.92555 0.27494 0.67907 0.0
C1026 C 0.88584 0.24648 0.65863 0.0
C1027 C 0.87434 0.23291 0.6364 0.0
C1028 C 0.98865 0.29415 0.62489 0.0
C1029 C 0.93673 0.26774 0.64302 0.0
C1030 C 0.01929 0.3153 0.62648 0.0
C1031 C 0.03147 0.33083 0.64794 0.0
C1032 C 0.96982 0.28852 0.64485 0.0
C1033 C 0.01207 0.32407 0.66768 0.0
C1034 C 0.91705 0.26388 0.66203 0.0
C1035 C 0.89474 0.2361 0.61831 0.0
N1036 N 0.98217 0.30357 0.66562 0.0
N1037 N 0.92487 0.25336 0.62195 0.0
H1038 H 0.66166 0.85634 0.61255 0.0
H1039 H 0.64021 1.00111 0.60305 0.0
H1040 H 0.57652 0.85162 0.59868 0.0
H1041 H 0.72704 0.00731 0.61092 0.0
H1042 H 0.61678 0.94623 0.60055 0.0
H1043 H 0.68657 0.91167 0.61081 0.0
C1044 C 0.64831 0.86697 0.60886 0.0
C1045 C 0.61705 0.84949 0.60576 0.0
C1046 C 0.64098 0.95958 0.60273 0.0
C1047 C 0.64515 0.91254 0.60402 0.0
C1048 C 0.65437 0.99095 0.60421 0.0
C1049 C 0.68563 0.00886 0.60729 0.0
C1050 C 0.65893 0.94593 0.60447 0.0
C1051 C 0.70285 0.9944 0.60859 0.0
C1052 C 0.66247 0.89851 0.60795 0.0
C1053 C 0.60071 0.8643 0.60118 0.0
N1054 N 0.68926 0.96378 0.60728 0.0
N1055 N 0.61491 0.89495 0.60058 0.0
H1056 H 0.72011 0.73053 0.62175 0.0
H1057 H 0.71683 0.57228 0.62828 0.0
H1058 H 0.64002 0.64479 0.63533 0.0
H1059 H 0.79891 0.65731 0.61852 0.0
H1060 H 0.68854 0.59897 0.6301 0.0
H1061 H 0.74953 0.70469 0.61982 0.0
C1062 C 0.7087 0.70629 0.62435 0.0
C1063 C 0.67752 0.6898 0.62872 0.0
C1064 C 0.71273 0.61191 0.62756 0.0
C1065 C 0.71106 0.66014 0.62648 0.0
C1066 C 0.7289 0.59666 0.62649 0.0
C1067 C 0.76023 0.61267 0.62324 0.0
C1068 C 0.72793 0.64349 0.62533 0.0
C1069 C 0.77474 0.64419 0.62104 0.0
C1070 C 0.72553 0.69157 0.62324 0.0
C1071 C 0.66397 0.65845 0.63194 0.0
N1072 N 0.75844 0.65864 0.62212 0.0
N1073 N 0.68081 0.64468 0.63073 0.0
H1074 H 0.98058 0.67973 0.60647 0.0
H1075 H 0.13979 0.72717 0.66486 0.0
H1076 H 0.99005 0.65435 0.67824 0.0
H1077 H 0.13003 0.77495 0.60502 0.0
H1078 H 0.08487 0.69856 0.66921 0.0
H1079 H 0.0353 0.71301 0.60444 0.0
C1080 C 0.99414 0.68123 0.62182 0.0
C1081 C 0.98073 0.66416 0.64253 0.0
C1082 C 0.09473 0.71547 0.65525 0.0
C1083 C 0.04329 0.702 0.64026 0.0
C1084 C 0.12602 0.73173 0.65275 0.0
C1085 C 0.13929 0.7533 0.63452 0.0
C1086 C 0.07662 0.7205 0.63914 0.0
C1087 C 0.12056 0.75849 0.61933 0.0
C1088 C 0.02534 0.70031 0.62068 0.0
C1089 C 0.9994 0.66708 0.66191 0.0
N1090 N 0.09009 0.74195 0.62181 0.0
N1091 N 0.02974 0.68543 0.66023 0.0
H1092 H 0.27356 0.9812 0.61308 0.0
H1093 H 0.42823 0.13685 0.631 0.0
H1094 H 0.35927 0.9863 0.62525 0.0
H1095 H 0.34312 0.13209 0.61698 0.0
H1096 H 0.40332 0.0818 0.62905 0.0
H1097 H 0.29854 0.03622 0.61436 0.0
C1098 C 0.29768 0.99388 0.61598 0.0
C1099 C 0.31432 0.97902 0.6191 0.0
C1100 C 0.39002 0.09271 0.62639 0.0
C1101 C 0.34313 0.04229 0.62064 0.0
C1102 C 0.40423 0.12416 0.62752 0.0
C1103 C 0.38767 0.13902 0.62415 0.0
C1104 C 0.35894 0.07587 0.62187 0.0
C1105 C 0.35668 0.12149 0.61969 0.0
C1106 C 0.31193 0.02536 0.61672 0.0
C1107 C 0.34552 0.99674 0.62276 0.0
N1108 N 0.3433 0.09082 0.61869 0.0
N1109 N 0.35888 0.02741 0.62347 0.0
H1110 H 0.29271 0.42429 0.62376 0.0
H1111 H 0.28415 0.26317 0.62545 0.0
H1112 H 0.20873 0.33992 0.62164 0.0
H1113 H 0.36716 0.34867 0.6269 0.0
H1114 H 0.25594 0.29027 0.62367 0.0
H1115 H 0.32001 0.39649 0.62447 0.0
C1116 C 0.27999 0.39983 0.62339 0.0
C1117 C 0.24839 0.38437 0.62264 0.0
C1118 C 0.28032 0.30308 0.62435 0.0
C1119 C 0.27962 0.35222 0.62351 0.0
C1120 C 0.29648 0.28763 0.62537 0.0
C1121 C 0.32815 0.30363 0.62635 0.0
C1122 C 0.29589 0.33481 0.62431 0.0
C1123 C 0.34282 0.33533 0.62619 0.0
C1124 C 0.29562 0.38394 0.62381 0.0
C1125 C 0.2331 0.35269 0.6222 0.0
N1126 N 0.3266 0.34981 0.62521 0.0
N1127 N 0.24887 0.33762 0.62268 0.0
H1128 H 0.4487 0.18105 0.05464 0.0
H1129 H 0.36581 0.11562 0.93106 0.0
H1130 H 0.36534 0.09657 0.04886 0.0
H1131 H 0.44924 0.19955 0.93967 0.0
H1132 H 0.37066 0.10179 0.97229 0.0
H1133 H 0.45521 0.1813 0.0114 0.0
C1134 C 0.43198 0.16229 0.04422 0.0
C1135 C 0.40609 0.13916 0.05517 0.0
C1136 C 0.38816 0.12298 0.96498 0.0
C1137 C 0.41287 0.13961 0.00553 0.0
C1138 C 0.3854 0.13085 0.94147 0.0
C1139 C 0.4067 0.15914 0.93226 0.0
C1140 C 0.41243 0.14358 0.97919 0.0
C1141 C 0.43183 0.17788 0.94632 0.0
C1142 C 0.43565 0.16242 0.01951 0.0
C1143 C 0.38543 0.11505 0.04098 0.0
N1144 N 0.43378 0.16995 0.96913 0.0
N1145 N 0.38886 0.11626 0.01676 0.0
H1146 H 0.28937 0.45777 0.04526 0.0
H1147 H 0.21762 0.3748 0.92996 0.0
H1148 H 0.23847 0.36045 0.04692 0.0
H1149 H 0.30613 0.45382 0.92857 0.0
H1150 H 0.22583 0.36594 0.9716 0.0
H1151 H 0.29685 0.45595 0.00221 0.0
C1152 C 0.27992 0.436 0.03652 0.0
C1153 C 0.26288 0.40923 0.04948 0.0
C1154 C 0.24384 0.38466 0.96196 0.0
C1155 C 0.27105 0.40697 0.00024 0.0
C1156 C 0.23919 0.38971 0.93819 0.0
C1157 C 0.26095 0.41548 0.92606 0.0
C1158 C 0.27003 0.40608 0.97375 0.0
C1159 C 0.28858 0.43393 0.93743 0.0
C1160 C 0.28449 0.43495 0.01202 0.0
C1161 C 0.25154 0.38158 0.03742 0.0
N1162 N 0.29197 0.42946 0.96094 0.0
N1163 N 0.25516 0.38114 0.0133 0.0
H1164 H 0.79428 0.20361 0.03733 0.0
H1165 H 0.89322 0.27555 0.91968 0.0
H1166 H 0.89092 0.26113 0.03893 0.0
H1167 H 0.79613 0.23146 0.92342 0.0
H1168 H 0.89404 0.26143 0.96158 0.0
H1169 H 0.79619 0.20304 -0.0062 0.0
C1170 C 0.81598 0.21582 0.02847 0.0
C1171 C 0.84239 0.23307 0.04163 0.0
C1172 C 0.87261 0.25469 0.95309 0.0
C1173 C 0.84472 0.23306 0.99182 0.0
C1174 C 0.87211 0.2628 0.92925 0.0
C1175 C 0.8446 0.25524 0.91825 0.0
C1176 C 0.84537 0.23867 0.96579 0.0
C1177 C 0.81791 0.2384 0.93134 0.0
C1178 C 0.81707 0.21554 0.00362 0.0
C1179 C 0.86999 0.24787 0.02935 0.0
N1180 N 0.819 0.23084 0.9544 0.0
N1181 N 0.87041 0.24806 0.00501 0.0
H1182 H 0.60791 0.91689 0.9235 0.0
H1183 H 0.59998 0.81388 0.03103 0.0
H1184 H 0.63889 0.85252 0.91676 0.0
H1185 H 0.61609 0.90424 0.04313 0.0
H1186 H 0.60984 0.8255 0.98834 0.0
H1187 H 0.60743 0.91144 0.96711 0.0
C1188 C 0.61493 0.90191 0.93121 0.0
C1189 C 0.6232 0.88494 0.91654 0.0
C1190 C 0.61142 0.84282 0.00041 0.0
C1191 C 0.62212 0.87821 0.96609 0.0
C1192 C 0.60555 0.83613 0.02468 0.0
C1193 C 0.6071 0.8581 0.04055 0.0
C1194 C 0.61821 0.87142 0.99194 0.0
C1195 C 0.61471 0.88668 0.03146 0.0
C1196 C 0.61472 0.89887 0.95603 0.0
C1197 C 0.6323 0.86599 0.92741 0.0
N1198 N 0.61963 0.89244 0.00766 0.0
N1199 N 0.63102 0.86274 0.95155 0.0
H1200 H 0.77487 0.64917 0.06133 0.0
H1201 H 0.70309 0.56352 0.94909 0.0
H1202 H 0.68594 0.57071 0.06356 0.0
H1203 H 0.75848 0.66041 0.94512 0.0
H1204 H 0.69247 0.56784 0.99103 0.0
H1205 H 0.76568 0.65861 0.02021 0.0
C1206 C 0.75304 0.63448 0.05341 0.0
C1207 C 0.73165 0.60837 0.06541 0.0
C1208 C 0.70641 0.58828 0.98092 0.0
C1209 C 0.72131 0.61858 0.01838 0.0
C1210 C 0.71273 0.58576 0.95708 0.0
C1211 C 0.73216 0.61161 0.94394 0.0
C1212 C 0.72057 0.61677 0.99195 0.0
C1213 C 0.74366 0.63994 0.95487 0.0
C1214 C 0.74777 0.6399 0.02994 0.0
C1215 C 0.70346 0.59055 0.05463 0.0
N1216 N 0.73842 0.64176 0.97853 0.0
N1217 N 0.69947 0.59533 0.03135 0.0
H1218 H 0.11786 0.74252 0.06406 0.0
H1219 H 0.20211 0.74849 0.9417 0.0
H1220 H 0.1983 0.73522 0.06025 0.0
H1221 H 0.12006 0.75293 0.9449 0.0
H1222 H 0.20156 0.74474 0.98516 0.0
H1223 H 0.11867 0.74719 0.02057 0.0
C1224 C 0.1357 0.74186 0.0541 0.0
C1225 C 0.15805 0.73844 0.06586 0.0
C1226 C 0.18368 0.74657 0.97639 0.0
C1227 C 0.15912 0.74386 0.01598 0.0
C1228 C 0.18397 0.74874 0.95152 0.0
C1229 C 0.16104 0.75097 0.93957 0.0
C1230 C 0.1603 0.74663 0.98951 0.0
C1231 C 0.1382 0.75125 0.95333 0.0
C1232 C 0.13614 0.74455 0.02924 0.0
C1233 C 0.18059 0.73777 0.05197 0.0
N1234 N 0.13839 0.74905 0.97757 0.0
N1235 N 0.18054 0.74048 0.02778 0.0
H1236 H 0.8945 0.63127 0.54856 0.0
H1237 H 0.80617 0.55936 0.4266 0.0
H1238 H 0.80454 0.55434 0.54451 0.0
H1239 H 0.89876 0.63169 0.42822 0.0
H1240 H 0.80479 0.55986 0.46996 0.0
H1241 H 0.89607 0.63417 0.50483 0.0
C1242 C 0.87506 0.61502 0.53853 0.0
C1243 C 0.84939 0.5924 0.55028 0.0
C1244 C 0.82546 0.57567 0.46092 0.0
C1245 C 0.85107 0.5957 0.50025 0.0
C1246 C 0.8263 0.57541 0.43606 0.0
C1247 C 0.85275 0.59535 0.42367 0.0
C1248 C 0.85124 0.59602 0.4737 0.0
C1249 C 0.87794 0.61581 0.43702 0.0
C1250 C 0.87601 0.61671 0.51355 0.0
C1251 C 0.82489 0.57204 0.53631 0.0
N1252 N 0.87661 0.61554 0.46137 0.0
N1253 N 0.82637 0.57418 0.51209 0.0
H1254 H 0.24933 0.89188 0.55676 0.0
H1255 H 0.21231 0.80254 0.43506 0.0
H1256 H 0.20733 0.79495 0.55059 0.0
H1257 H 0.2543 0.89961 0.43911 0.0
H1258 H 0.19766 0.79897 0.47684 0.0
H1259 H 0.23955 0.89469 0.51426 0.0
C1260 C 0.23761 0.87114 0.54659 0.0
C1261 C 0.23004 0.84321 0.55702 0.0
C1262 C 0.20961 0.82108 0.46857 0.0
C1263 C 0.21878 0.84629 0.50849 0.0
C1264 C 0.2179 0.82312 0.44463 0.0
C1265 C 0.23517 0.85144 0.43376 0.0
C1266 C 0.21936 0.8476 0.48196 0.0
C1267 C 0.24143 0.87731 0.44693 0.0
C1268 C 0.232 0.87277 0.52232 0.0
C1269 C 0.21444 0.81707 0.54309 0.0
N1270 N 0.23419 0.87483 0.47057 0.0
N1271 N 0.20975 0.81929 0.51949 0.0
H1272 H 0.37456 0.26566 0.55053 0.0
H1273 H 0.47258 0.27806 0.43482 0.0
H1274 H 0.45229 0.2535 0.55027 0.0
H1275 H 0.38361 0.26723 0.42865 0.0
H1276 H 0.46737 0.27564 0.47802 0.0
H1277 H 0.37874 0.27143 0.5067 0.0
C1278 C 0.39242 0.26415 0.54135 0.0
C1279 C 0.41311 0.2591 0.55423 0.0
C1280 C 0.44892 0.27379 0.4673 0.0
C1281 C 0.41815 0.26599 0.50428 0.0
C1282 C 0.45191 0.27526 0.44252 0.0
C1283 C 0.42838 0.27256 0.42795 0.0
C1284 C 0.42218 0.26957 0.47788 0.0
C1285 C 0.40228 0.26929 0.43917 0.0
C1286 C 0.39477 0.26745 0.51636 0.0
C1287 C 0.43576 0.25734 0.5413 0.0
N1288 N 0.3998 0.26775 0.46352 0.0
N1289 N 0.43768 0.26089 0.51721 0.0
H1290 H 0.1937 0.45857 0.54908 0.0
H1291 H 0.12139 0.36162 0.4303 0.0
H1292 H 0.11964 0.36678 0.55091 0.0
H1293 H 0.20375 0.44747 0.43315 0.0
H1294 H 0.11357 0.36635 0.47326 0.0
H1295 H 0.19087 0.45788 0.50568 0.0
C1296 C 0.17678 0.4382 0.54037 0.0
C1297 C 0.15724 0.41249 0.55373 0.0
C1298 C 0.13312 0.38428 0.46434 0.0
C1299 C 0.15393 0.41152 0.50365 0.0
C1300 C 0.13747 0.38167 0.43986 0.0
C1301 C 0.16354 0.40392 0.42836 0.0
C1302 C 0.15486 0.40947 0.47714 0.0
C1303 C 0.18365 0.42949 0.44145 0.0
C1304 C 0.17511 0.43786 0.5155 0.0
C1305 C 0.13539 0.38701 0.54133 0.0
N1306 N 0.179 0.43144 0.4651 0.0
N1307 N 0.13453 0.38702 0.51694 0.0
H1308 H 0.7079 0.16918 0.44066 0.0
H1309 H 0.74302 0.1004 0.55559 0.0
H1310 H 0.74069 0.10601 0.43753 0.0
H1311 H 0.7342 0.18008 0.55389 0.0
H1312 H 0.72419 0.08916 0.51419 0.0
H1313 H 0.69888 0.15937 0.48341 0.0
C1314 C 0.71304 0.15308 0.44895 0.0
C1315 C 0.72617 0.13926 0.43576 0.0
C1316 C 0.72575 0.1087 0.52315 0.0
C1317 C 0.71607 0.1281 0.48468 0.0
C1318 C 0.73642 0.11506 0.54667 0.0
C1319 C 0.74098 0.14167 0.55764 0.0
C1320 C 0.71938 0.12899 0.51096 0.0
C1321 C 0.73185 0.15983 0.54565 0.0
C1322 C 0.7077 0.14735 0.47333 0.0
C1323 C 0.7313 0.11776 0.44723 0.0
N1324 N 0.7218 0.15334 0.52286 0.0
N1325 N 0.72688 0.11332 0.47122 0.0
H1326 H 0.5543 0.73231 0.43346 0.0
H1327 H 0.63043 0.7222 0.55483 0.0
H1328 H 0.64074 0.73658 0.43527 0.0
H1329 H 0.54316 0.71575 0.54996 0.0
H1330 H 0.63288 0.72205 0.51107 0.0
H1331 H 0.54838 0.72131 0.47592 0.0
C1332 C 0.57216 0.73103 0.44281 0.0
C1333 C 0.5983 0.73584 0.43082 0.0
C1334 C 0.6131 0.72036 0.51963 0.0
C1335 C 0.59159 0.72318 0.4798 0.0
C1336 C 0.61163 0.72039 0.5446 0.0
C1337 C 0.58676 0.7195 0.55607 0.0
C1338 C 0.58952 0.71945 0.50614 0.0
C1339 C 0.56302 0.717 0.54193 0.0
C1340 C 0.56866 0.72455 0.46713 0.0
C1341 C 0.62033 0.73326 0.44387 0.0
N1342 N 0.56512 0.71731 0.51775 0.0
N1343 N 0.61662 0.72739 0.46778 0.0
H1344 H 0.36092 0.1592 0.17424 0.0
H1345 H 0.46648 0.22832 0.28921 0.0
H1346 H 0.43628 0.14636 0.19 0.0
H1347 H 0.38175 0.22659 0.28081 0.0
H1348 H 0.45874 0.20346 0.25054 0.0
H1349 H 0.37111 0.18891 0.21094 0.0
C1350 C 0.3798 0.16293 0.18534 0.0
C1351 C 0.39795 0.15056 0.17907 0.0
C1352 C 0.44187 0.20857 0.25712 0.0
C1353 C 0.40955 0.18416 0.2211 0.0
C1354 C 0.44629 0.22285 0.2792 0.0
C1355 C 0.42464 0.22941 0.28836 0.0
C1356 C 0.41563 0.20082 0.24401 0.0
C1357 C 0.39896 0.22182 0.27451 0.0
C1358 C 0.38549 0.1797 0.20633 0.0
C1359 C 0.42177 0.15553 0.19422 0.0
N1360 N 0.39514 0.20786 0.25304 0.0
N1361 N 0.42692 0.17202 0.21452 0.0
H1362 H 0.19456 0.35676 0.19095 0.0
H1363 H 0.20944 0.44445 0.31257 0.0
H1364 H 0.23949 0.45395 0.19582 0.0
H1365 H 0.13119 0.35803 0.29838 0.0
H1366 H 0.22835 0.44438 0.27233 0.0
H1367 H 0.1778 0.35333 0.23271 0.0
C1368 C 0.20101 0.37734 0.20083 0.0
C1369 C 0.21837 0.40569 0.18992 0.0
C1370 C 0.20721 0.42526 0.2781 0.0
C1371 C 0.1998 0.40189 0.23754 0.0
C1372 C 0.19667 0.42511 0.30113 0.0
C1373 C 0.16907 0.40104 0.30884 0.0
C1374 C 0.19006 0.40102 0.26266 0.0
C1375 C 0.15269 0.37696 0.29306 0.0
C1376 C 0.19137 0.37534 0.22456 0.0
C1377 C 0.226 0.43163 0.20347 0.0
N1378 N 0.1635 0.37748 0.27065 0.0
N1379 N 0.21686 0.42911 0.22661 0.0
H1380 H 0.79454 0.25275 0.18312 0.0
H1381 H 0.80455 0.16081 0.29452 0.0
H1382 H 0.85745 0.21963 0.18399 0.0
H1383 H 0.76744 0.22043 0.29732 0.0
H1384 H 0.8214 0.17787 0.25324 0.0
H1385 H 0.78123 0.23656 0.22436 0.0
C1386 C 0.80564 0.24211 0.19204 0.0
C1387 C 0.82717 0.23758 0.18015 0.0
C1388 C 0.80973 0.18725 0.26308 0.0
C1389 C 0.81187 0.21877 0.2275 0.0
C1390 C 0.8 0.17745 0.28651 0.0
C1391 C 0.7846 0.18923 0.29937 0.0
C1392 C 0.80354 0.20856 0.25253 0.0
C1393 C 0.77941 0.21085 0.28823 0.0
C1394 C 0.79808 0.23294 0.21564 0.0
C1395 C 0.84084 0.22369 0.19263 0.0
N1396 N 0.7887 0.21964 0.26548 0.0
N1397 N 0.83281 0.21455 0.21569 0.0
H1398 H 0.63935 0.87396 0.18792 0.0
H1399 H 0.63968 0.75503 0.27965 0.0
H1400 H 0.59917 0.77939 0.17035 0.0
H1401 H 0.61415 0.82051 0.30055 0.0
H1402 H 0.64496 0.77293 0.23802 0.0
H1403 H 0.65022 0.86287 0.22825 0.0
C1404 C 0.63328 0.85098 0.19245 0.0
C1405 C 0.6179 0.82738 0.1761 0.0
C1406 C 0.63881 0.78366 0.25191 0.0
C1407 C 0.63091 0.81493 0.22153 0.0
C1408 C 0.63591 0.77362 0.2755 0.0
C1409 C 0.62616 0.78624 0.2932 0.0
C1410 C 0.63271 0.8069 0.24642 0.0
C1411 C 0.62137 0.81011 0.28716 0.0
C1412 C 0.63949 0.84475 0.21534 0.0
C1413 C 0.61059 0.79803 0.18272 0.0
N1414 N 0.62467 0.81973 0.26417 0.0
N1415 N 0.61712 0.79255 0.20505 0.0
H1416 H 0.77182 0.54995 0.16693 0.0
H1417 H 0.85996 0.64827 0.28102 0.0
H1418 H 0.77833 0.6356 0.18287 0.0
H1419 H 0.83053 0.55385 0.27101 0.0
H1420 H 0.84246 0.64997 0.24029 0.0
H1421 H 0.80575 0.55742 0.19994 0.0
C1422 C 0.78092 0.57065 0.1772 0.0
C1423 C 0.77281 0.59247 0.17201 0.0
C1424 C 0.8404 0.62909 0.24692 0.0
C1425 C 0.81071 0.60066 0.21051 0.0
C1426 C 0.85051 0.62816 0.27001 0.0
C1427 C 0.84621 0.60076 0.27932 0.0
C1428 C 0.82639 0.60252 0.23321 0.0
C1429 C 0.8338 0.57529 0.26454 0.0
C1430 C 0.80018 0.57486 0.19611 0.0
C1431 C 0.78445 0.61847 0.18624 0.0
N1432 N 0.82417 0.57675 0.2423 0.0
N1433 N 0.80277 0.62182 0.20504 0.0
H1434 H 0.1889 0.7234 0.21806 0.0
H1435 H 0.22167 0.8554 0.30874 0.0
H1436 H 0.1484 0.77952 0.21017 0.0
H1437 H 0.24417 0.78571 0.32187 0.0
H1438 H 0.19119 0.82639 0.27433 0.0
H1439 H 0.20532 0.74357 0.2581 0.0
C1440 C 0.1832 0.73978 0.22491 0.0
C1441 C 0.16765 0.75013 0.21074 0.0
C1442 C 0.20242 0.81727 0.28503 0.0
C1443 C 0.18687 0.77385 0.25642 0.0
C1444 C 0.21989 0.83386 0.30455 0.0
C1445 C 0.23548 0.82292 0.31808 0.0
C1446 C 0.20104 0.78988 0.27893 0.0
C1447 C 0.23242 0.79491 0.31199 0.0
C1448 C 0.19253 0.75129 0.2478 0.0
C1449 C 0.16051 0.7711 0.22056 0.0
N1450 N 0.2158 0.77952 0.29279 0.0
N1451 N 0.17068 0.78274 0.2427 0.0
H1452 H 0.59307 0.80826 0.6699 0.0
H1453 H 0.65265 0.84165 0.79731 0.0
H1454 H 0.65784 0.78378 0.69473 0.0
H1455 H 0.62166 0.8964 0.76239 0.0
H1456 H 0.66328 0.82755 0.75838 0.0
H1457 H 0.61009 0.8471 0.7007 0.0
C1458 C 0.61107 0.81128 0.68179 0.0
C1459 C 0.62336 0.79218 0.68048 0.0
C1460 C 0.65502 0.84337 0.7591 0.0
C1461 C 0.64288 0.83641 0.7157 0.0
C1462 C 0.6489 0.85133 0.78131 0.0
C1463 C 0.63581 0.86967 0.78277 0.0
C1464 C 0.64677 0.85289 0.73831 0.0
C1465 C 0.63151 0.88193 0.76177 0.0
C1466 C 0.62106 0.83371 0.69916 0.0
C1467 C 0.64731 0.79763 0.69564 0.0
N1468 N 0.63614 0.87257 0.74023 0.0
N1469 N 0.6558 0.81879 0.7131 0.0
H1470 H 0.78991 0.56275 0.81684 0.0
H1471 H 0.85995 0.64527 0.69283 0.0
H1472 H 0.8039 0.65172 0.80117 0.0
H1473 H 0.8094 0.5484 0.70159 0.0
H1474 H 0.84945 0.65102 0.73479 0.0
H1475 H 0.80788 0.56072 0.77697 0.0
C1476 C 0.79687 0.58197 0.80506 0.0
C1477 C 0.79485 0.60725 0.8122 0.0
C1478 C 0.84083 0.62857 0.72747 0.0
C1479 C 0.81564 0.605 0.7665 0.0
C1480 C 0.84687 0.62524 0.70363 0.0
C1481 C 0.83539 0.59629 0.69377 0.0
C1482 C 0.8237 0.60276 0.74152 0.0
C1483 C 0.8185 0.57111 0.70845 0.0
C1484 C 0.80709 0.58072 0.78227 0.0
C1485 C 0.80471 0.63163 0.79625 0.0
N1486 N 0.81323 0.57494 0.73162 0.0
N1487 N 0.81459 0.62986 0.77401 0.0
H1488 H 0.22782 0.77894 0.67833 0.0
H1489 H 0.15 0.79995 0.79517 0.0
H1490 H 0.22248 0.85942 0.69166 0.0
H1491 H 0.1797 0.73477 0.78739 0.0
H1492 H 0.1643 0.81532 0.75325 0.0
H1493 H 0.19751 0.75586 0.71388 0.0
C1494 C 0.22002 0.79169 0.68861 0.0
C1495 C 0.22805 0.82132 0.68222 0.0
C1496 C 0.16722 0.79735 0.76069 0.0
C1497 C 0.19366 0.79511 0.72328 0.0
C1498 C 0.15896 0.78851 0.7845 0.0
C1499 C 0.16415 0.76642 0.79475 0.0
C1500 C 0.18028 0.78363 0.74716 0.0
C1501 C 0.17581 0.75226 0.78026 0.0
C1502 C 0.20273 0.77848 0.70896 0.0
C1503 C 0.2171 0.83664 0.69617 0.0
N1504 N 0.18363 0.76123 0.75727 0.0
N1505 N 0.20072 0.82348 0.71628 0.0
H1506 H 0.34822 0.13882 0.80332 0.0
H1507 H 0.44764 0.25949 0.70645 0.0
H1508 H 0.43159 0.21925 0.81987 0.0
H1509 H 0.35163 0.20442 0.69644 0.0
H1510 H 0.44143 0.24395 0.74825 0.0
H1511 H 0.34735 0.16107 0.76444 0.0
C1512 C 0.36592 0.16151 0.79903 0.0
C1513 C 0.38991 0.17761 0.81492 0.0
C1514 C 0.42161 0.23546 0.73705 0.0
C1515 C 0.38947 0.20271 0.77052 0.0
C1516 C 0.42517 0.2442 0.71313 0.0
C1517 C 0.40012 0.23308 0.69797 0.0
C1518 C 0.39284 0.21479 0.74585 0.0
C1519 C 0.3715 0.2135 0.70762 0.0
C1520 C 0.36541 0.17417 0.77689 0.0
C1521 C 0.41242 0.20664 0.80841 0.0
N1522 N 0.36864 0.20452 0.73093 0.0
N1523 N 0.41193 0.21811 0.78663 0.0
H1524 H 0.24324 0.38862 0.80552 0.0
H1525 H 0.19033 0.45715 0.70345 0.0
H1526 H 0.22587 0.46203 0.81729 0.0
H1527 H 0.16695 0.36358 0.70055 0.0
H1528 H 0.20414 0.45891 0.74536 0.0
H1529 H 0.21592 0.37785 0.76728 0.0
C1530 C 0.23313 0.40202 0.80028 0.0
C1531 C 0.23649 0.42604 0.81463 0.0
C1532 C 0.19564 0.43782 0.73573 0.0
C1533 C 0.20604 0.41439 0.77099 0.0
C1534 C 0.18787 0.43686 0.71178 0.0
C1535 C 0.17764 0.41022 0.69859 0.0
C1536 C 0.19401 0.4122 0.74649 0.0
C1537 C 0.17471 0.38452 0.71023 0.0
C1538 C 0.21753 0.39584 0.77855 0.0
C1539 C 0.22337 0.44299 0.80695 0.0
N1540 N 0.18342 0.38626 0.7335 0.0
N1541 N 0.20905 0.43707 0.78557 0.0
H1542 H 0.84683 0.22379 0.782 0.0
H1543 H 0.75168 0.20292 0.66436 0.0
H1544 H 0.78928 0.26249 0.77292 0.0
H1545 H 0.76942 0.13302 0.6882 0.0
H1546 H 0.77497 0.23149 0.7007 0.0
H1547 H 0.82765 0.19636 0.74419 0.0
C1548 C 0.83042 0.22675 0.77192 0.0
C1549 C 0.8196 0.24543 0.78048 0.0
C1550 C 0.77399 0.21002 0.69795 0.0
C1551 C 0.79791 0.21444 0.73753 0.0
C1552 C 0.76106 0.19393 0.67717 0.0
C1553 C 0.75927 0.16604 0.67329 0.0
C1554 C 0.78539 0.19815 0.71494 0.0
C1555 C 0.77066 0.15465 0.69066 0.0
C1556 C 0.81938 0.21095 0.75053 0.0
C1557 C 0.79816 0.24828 0.76694 0.0
N1558 N 0.78353 0.17093 0.71084 0.0
N1559 N 0.78811 0.23305 0.74604 0.0
H1560 H 0.46765 0.02874 0.05491 0.0
H1561 H 0.54405 0.94217 0.11381 0.0
H1562 H 0.55105 0.07225 0.09454 0.0
H1563 H 0.47022 0.89948 0.06381 0.0
H1564 H 0.54946 0.99086 0.10363 0.0
H1565 H 0.47 0.98191 0.05493 0.0
C1566 C 0.4866 0.02854 0.06333 0.0
C1567 C 0.50905 0.05438 0.07486 0.0
C1568 C 0.53229 0.97091 0.09463 0.0
C1569 C 0.51187 1.0011 0.07503 0.0
C1570 C 0.52933 0.94301 0.10031 0.0
C1571 C 0.50644 0.91649 0.08984 0.0
C1572 C 0.51198 0.97242 0.07859 0.0
C1573 C 0.48775 0.9192 0.07277 0.0
C1574 C 0.48801 1.00189 0.06326 0.0
C1575 C 0.53333 0.05302 0.08524 0.0
N1576 N 0.49066 0.94662 0.06792 0.0
N1577 N 0.53389 0.02677 0.08531 0.0
H1578 H 0.53727 0.4643 0.07327 0.0
H1579 H 0.40909 0.47392 0.14194 0.0
H1580 H 0.55078 0.50307 0.1438 0.0
H1581 H 0.4259 0.50516 0.0688 0.0
H1582 H 0.4552 0.47072 0.1413 0.0
H1583 H 0.49114 0.46799 0.06939 0.0
C1584 C 0.53073 0.47403 0.08769 0.0
C1585 C 0.54775 0.48372 0.10878 0.0
C1586 C 0.44854 0.47792 0.12532 0.0
C1587 C 0.49521 0.48678 0.10486 0.0
C1588 C 0.42218 0.47941 0.12558 0.0
C1589 C 0.41379 0.48962 0.10534 0.0
C1590 C 0.4663 0.48624 0.10459 0.0
C1591 C 0.43177 0.4971 0.08469 0.0
C1592 C 0.50459 0.47604 0.08549 0.0
C1593 C 0.53838 0.49578 0.12716 0.0
N1594 N 0.45734 0.49516 0.08477 0.0
N1595 N 0.51241 0.49653 0.12494 0.0
H1596 H 0.93985 0.41644 0.12945 0.0
H1597 H 0.07503 0.5612 0.06741 0.0
H1598 H 0.93615 0.4377 0.05531 0.0
H1599 H 0.05235 0.55827 0.14204 0.0
H1600 H 0.02937 0.5118 0.06175 0.0
H1601 H 0.98783 0.46382 0.13346 0.0
C1602 C 0.94957 0.43077 0.11389 0.0
C1603 C 0.93424 0.42329 0.09201 0.0
C1604 C 0.03436 0.52214 0.07929 0.0
C1605 C 0.98856 0.47738 0.09651 0.0
C1606 C 0.06022 0.55023 0.08249 0.0
C1607 C 0.06706 0.56381 0.10514 0.0
C1608 C 0.0158 0.50734 0.09903 0.0
C1609 C 0.04749 0.54868 0.12423 0.0
C1610 C 0.97665 0.45789 0.11625 0.0
C1611 C 0.94743 0.44281 0.07246 0.0
N1612 N 0.02284 0.52109 0.1208 0.0
N1613 N 0.9739 0.46907 0.07516 0.0
H1614 H 0.05174 0.471 0.36232 0.0
H1615 H 0.92147 0.49058 0.42209 0.0
H1616 H 0.0584 0.49997 0.43558 0.0
H1617 H 0.94698 0.51087 0.34795 0.0
H1618 H 0.96559 0.48424 0.42867 0.0
H1619 H 0.0053 0.47345 0.35804 0.0
C1620 C 0.0429 0.47706 0.37766 0.0
C1621 C 0.05864 0.4852 0.39934 0.0
C1622 C 0.96158 0.49034 0.41105 0.0
C1623 C 0.00619 0.48846 0.39453 0.0
C1624 C 0.93667 0.49412 0.40735 0.0
C1625 C 0.93108 0.50171 0.38456 0.0
C1626 C 0.98028 0.4933 0.39164 0.0
C1627 C 0.95096 0.50557 0.36586 0.0
C1628 C 0.01674 0.47885 0.37514 0.0
C1629 C 0.04669 0.49347 0.41861 0.0
N1630 N 0.97456 0.50101 0.36975 0.0
N1631 N 0.0211 0.49495 0.41577 0.0
H1632 H 0.58286 0.07708 0.42154 0.0
H1633 H 0.43233 0.95726 0.35699 0.0
H1634 H 0.57518 0.0669 0.34493 0.0
H1635 H 0.45988 0.93467 0.42308 0.0
H1636 H 0.47999 0.00535 0.35604 0.0
H1637 H 0.53344 0.03076 0.42577 0.0
C1638 C 0.57086 0.06477 0.4057 0.0
C1639 C 0.58299 0.07518 0.38289 0.0
C1640 C 0.47535 0.99 0.37091 0.0
C1641 C 0.52665 0.02371 0.38748 0.0
C1642 C 0.44813 0.96286 0.3716 0.0
C1643 C 0.44237 0.94225 0.39016 0.0
C1644 C 0.49662 0.99662 0.38908 0.0
C1645 C 0.46368 0.95017 0.4085 0.0
C1646 C 0.54279 0.03865 0.40809 0.0
C1647 C 0.56661 0.05908 0.36279 0.0
N1648 N 0.49003 0.97685 0.40752 0.0
N1649 N 0.53905 0.03422 0.36554 0.0
H1650 H 0.50146 0.43526 0.33183 0.0
H1651 H 0.51388 0.57157 0.40735 0.0
H1652 H 0.53041 0.44659 0.40534 0.0
H1653 H 0.53734 0.58026 0.33255 0.0
H1654 H 0.51302 0.52294 0.40837 0.0
H1655 H 0.50545 0.48513 0.33294 0.0
C1656 C 0.50805 0.44805 0.34833 0.0
C1657 C 0.51535 0.43686 0.3686 0.0
C1658 C 0.51884 0.5358 0.39187 0.0
C1659 C 0.52028 0.49374 0.36992 0.0
C1660 C 0.51952 0.56348 0.39133 0.0
C1661 C 0.52612 0.57992 0.36992 0.0
C1662 C 0.52385 0.52424 0.37067 0.0
C1663 C 0.53266 0.56839 0.34946 0.0
C1664 C 0.51072 0.47657 0.34886 0.0
C1665 C 0.52443 0.4545 0.38943 0.0
N1666 N 0.53091 0.54098 0.35024 0.0
N1667 N 0.52649 0.48212 0.38963 0.0
H1668 H 0.52526 0.07663 0.91035 0.0
H1669 H 0.44534 0.91556 0.84615 0.0
H1670 H 0.4541 0.04884 0.85824 0.0
H1671 H 0.52855 0.95023 0.88551 0.0
H1672 H 0.44375 0.96131 0.85557 0.0
H1673 H 0.52198 0.02739 0.90667 0.0
C1674 C 0.50877 0.0601 0.89827 0.0
C1675 C 0.49019 0.06706 0.88433 0.0
C1676 C 0.46229 0.9589 0.86227 0.0
C1677 C 0.4862 0.01062 0.88023 0.0
C1678 C 0.46314 0.9327 0.85703 0.0
C1679 C 0.48708 0.92904 0.86517 0.0
C1680 C 0.48555 0.98173 0.87577 0.0
C1681 C 0.50982 0.95226 0.87877 0.0
C1682 C 0.50692 0.03201 0.89621 0.0
C1683 C 0.46878 0.04449 0.86942 0.0
N1684 N 0.50851 0.97768 0.88365 0.0
N1685 N 0.46755 0.01738 0.86763 0.0
H1686 H 0.44287 0.50646 0.84987 0.0
H1687 H 0.60854 0.56007 0.89918 0.0
H1688 H 0.48308 0.56972 0.90804 0.0
H1689 H 0.55998 0.48401 0.85205 0.0
H1690 H 0.56394 0.56625 0.90115 0.0
H1691 H 0.48637 0.49895 0.84965 0.0
C1692 C 0.46064 0.51846 0.86281 0.0
C1693 C 0.45939 0.53885 0.87891 0.0
C1694 C 0.56308 0.54816 0.89045 0.0
C1695 C 0.50957 0.53093 0.87839 0.0
C1696 C 0.58852 0.5448 0.88922 0.0
C1697 C 0.58773 0.52139 0.87562 0.0
C1698 C 0.53694 0.52813 0.87776 0.0
C1699 C 0.5613 0.50209 0.86305 0.0
C1700 C 0.4856 0.51437 0.86255 0.0
C1701 C 0.48335 0.55417 0.89503 0.0
N1702 N 0.53698 0.50591 0.86441 0.0
N1703 N 0.50757 0.55005 0.89425 0.0
H1704 H 0.0486 0.57166 0.92972 0.0
H1705 H 0.93267 0.44007 0.84454 0.0
H1706 H 0.04585 0.58108 0.85322 0.0
H1707 H 0.91532 0.44255 0.91982 0.0
H1708 H 0.9785 0.48918 0.84829 0.0
H1709 H 1.00239 0.52233 0.92731 0.0
C1710 C 0.03792 0.5635 0.9125 0.0
C1711 C 0.05079 0.58039 0.89165 0.0
C1712 C 0.96475 0.4789 0.86402 0.0
C1713 C 0.99878 0.52404 0.88868 0.0
C1714 C 0.93888 0.45073 0.86195 0.0
C1715 C 0.92035 0.43732 0.88193 0.0
C1716 C 0.97223 0.49359 0.88625 0.0
C1717 C 0.92906 0.45228 0.904 0.0
C1718 C 0.01173 0.5354 0.91112 0.0
C1719 C 0.03635 0.56888 0.86974 0.0
N1720 N 0.95444 0.47971 0.90559 0.0
N1721 N 0.01125 0.54123 0.86878 0.0
H1722 H 0.95386 0.52389 0.63928 0.0
H1723 H 0.07466 0.50233 0.56588 0.0
H1724 H 0.93772 0.49482 0.56572 0.0
H1725 H 0.0596 0.48393 0.64144 0.0
H1726 H 0.0293 0.50735 0.56404 0.0
H1727 H 0.9994 0.51948 0.63894 0.0
C1728 C 0.96039 0.51734 0.62289 0.0
C1729 C 0.94227 0.5099 0.60245 0.0
C1730 C 0.03578 0.50184 0.58092 0.0
C1731 C 0.99378 0.50433 0.60205 0.0
C1732 C 0.06141 0.4988 0.58194 0.0
C1733 C 0.07045 0.49231 0.60378 0.0
C1734 C 0.01976 0.49924 0.60202 0.0
C1735 C 0.05299 0.48844 0.62421 0.0
C1736 C 0.98604 0.51439 0.62281 0.0
C1737 C 0.95129 0.50087 0.58179 0.0
N1738 N 0.02865 0.49234 0.62291 0.0
N1739 N 0.97651 0.49834 0.58208 0.0
H1740 H 0.578 0.04439 0.56896 0.0
H1741 H 0.41353 0.94566 0.62618 0.0
H1742 H 0.53807 0.07795 0.61971 0.0
H1743 H 0.4506 0.91023 0.57442 0.0
H1744 H 0.45818 0.99526 0.62183 0.0
H1745 H 0.53119 0.99535 0.56937 0.0
C1746 C 0.5594 0.04142 0.58014 0.0
C1747 C 0.56178 0.0653 0.59413 0.0
C1748 C 0.45653 0.9767 0.61129 0.0
C1749 C 0.5084 0.00966 0.59464 0.0
C1750 C 0.43086 0.94841 0.61361 0.0
C1751 C 0.42837 0.92373 0.60072 0.0
C1752 C 0.48 0.98038 0.59605 0.0
C1753 C 0.45183 0.92857 0.58499 0.0
C1754 C 0.53269 0.01356 0.58029 0.0
C1755 C 0.53702 0.06036 0.60827 0.0
N1756 N 0.47678 0.95632 0.58321 0.0
N1757 N 0.51144 0.03314 0.60816 0.0
H1758 H 0.48168 0.42136 0.65377 0.0
H1759 H 0.49371 0.56199 0.58415 0.0
H1760 H 0.51475 0.4399 0.5812 0.0
H1761 H 0.51402 0.56524 0.65926 0.0
H1762 H 0.49223 0.51314 0.58124 0.0
H1763 H 0.48248 0.46975 0.65464 0.0
C1764 C 0.48849 0.4354 0.63787 0.0
C1765 C 0.49799 0.42676 0.61733 0.0
C1766 C 0.49728 0.52477 0.59825 0.0
C1767 C 0.49919 0.48186 0.61827 0.0
C1768 C 0.49821 0.5525 0.5999 0.0
C1769 C 0.50436 0.56755 0.62191 0.0
C1770 C 0.50161 0.51182 0.61893 0.0
C1771 C 0.50965 0.55439 0.64194 0.0
C1772 C 0.48929 0.46305 0.63847 0.0
C1773 C 0.50719 0.4459 0.59731 0.0
N1774 N 0.50781 0.52703 0.64005 0.0
N1775 N 0.50747 0.47264 0.59822 0.0
H1776 H 0.72034 0.23908 0.07474 0.0
H1777 H 0.5541 0.16866 0.12663 0.0
H1778 H 0.69902 0.23402 0.14995 0.0
H1779 H 0.57521 0.16625 0.05229 0.0
H1780 H 0.60727 0.2049 0.1342 0.0
H1781 H 0.66827 0.22451 0.0653 0.0
C1782 C 0.70488 0.23545 0.08929 0.0
C1783 C 0.71397 0.23721 0.1132 0.0
C1784 C 0.60019 0.19706 0.1161 0.0
C1785 C 0.65415 0.22024 0.10247 0.0
C1786 C 0.56978 0.17663 0.11174 0.0
C1787 C 0.56046 0.16422 0.08887 0.0
C1788 C 0.6213 0.20499 0.09745 0.0
C1789 C 0.58168 0.17506 0.07024 0.0
C1790 C 0.67509 0.22708 0.08387 0.0
C1791 C 0.69295 0.23253 0.13126 0.0
N1792 N 0.61122 0.19442 0.07501 0.0
N1793 N 0.66391 0.22379 0.12553 0.0
H1794 H 0.39585 0.57334 0.07358 0.0
H1795 H 0.4771 0.71393 0.16009 0.0
H1796 H 0.37492 0.56895 0.14867 0.0
H1797 H 0.48577 0.72111 0.08323 0.0
H1798 H 0.43487 0.6625 0.15582 0.0
H1799 H 0.42344 0.62851 0.0759 0.0
C1800 C 0.39642 0.58411 0.09042 0.0
C1801 C 0.38317 0.56664 0.11098 0.0
C1802 C 0.44564 0.67547 0.13986 0.0
C1803 C 0.41543 0.62976 0.11399 0.0
C1804 C 0.4698 0.7049 0.14228 0.0
C1805 C 0.4853 0.72179 0.122 0.0
C1806 C 0.43711 0.66261 0.11698 0.0
C1807 C 0.47466 0.70891 0.09939 0.0
C1808 C 0.41228 0.61559 0.09179 0.0
C1809 C 0.38466 0.58162 0.13239 0.0
N1810 N 0.45158 0.67995 0.09751 0.0
N1811 N 0.40102 0.61233 0.13345 0.0
H1812 H 0.7415 0.45771 0.12772 0.0
H1813 H 0.84475 0.41491 0.04941 0.0
H1814 H 0.79178 0.50729 0.06537 0.0
H1815 H 0.80295 0.37147 0.11603 0.0
H1816 H 0.81516 0.44051 0.0496 0.0
H1817 H 0.75372 0.41828 0.11843 0.0
C1818 C 0.75468 0.46008 0.11184 0.0
C1819 C 0.76612 0.48612 0.09754 0.0
C1820 C 0.81199 0.42493 0.06395 0.0
C1821 C 0.78026 0.44112 0.08688 0.0
C1822 C 0.82881 0.41027 0.0638 0.0
C1823 C 0.82661 0.39144 0.08292 0.0
C1824 C 0.793 0.42091 0.08346 0.0
C1825 C 0.80536 0.38586 0.10097 0.0
C1826 C 0.76168 0.43755 0.10657 0.0
C1827 C 0.78285 0.48783 0.0771 0.0
N1828 N 0.78977 0.40098 0.10103 0.0
N1829 N 0.78975 0.46584 0.07256 0.0
H1830 H 0.29468 0.75104 0.1832 0.0
H1831 H 0.41747 0.81199 0.08069 0.0
H1832 H 0.27295 0.73923 0.10795 0.0
H1833 H 0.43892 0.80718 0.15454 0.0
H1834 H 0.36398 0.78011 0.09004 0.0
H1835 H 0.34679 0.76585 0.17323 0.0
C1836 C 0.30071 0.75101 0.16462 0.0
C1837 C 0.27955 0.74447 0.14635 0.0
C1838 C 0.38034 0.78554 0.10416 0.0
C1839 C 0.33917 0.76174 0.13482 0.0
C1840 C 0.41083 0.80377 0.09882 0.0
C1841 C 0.43246 0.81234 0.11693 0.0
C1842 C 0.37139 0.77629 0.1279 0.0
C1843 C 0.42285 0.80099 0.14009 0.0
C1844 C 0.33049 0.7595 0.15893 0.0
C1845 C 0.28858 0.74455 0.12262 0.0
N1846 N 0.39293 0.78395 0.14502 0.0
N1847 N 0.31781 0.75358 0.11752 0.0
H1848 H 0.56816 0.39642 0.089 0.0
H1849 H 0.48141 0.26966 0.18323 0.0
H1850 H 0.58615 0.41264 0.16443 0.0
H1851 H 0.49183 0.25028 0.10976 0.0
H1852 H 0.52366 0.32098 0.17788 0.0
H1853 H 0.54398 0.34207 0.09646 0.0
C1854 C 0.56757 0.38841 0.10706 0.0
C1855 C 0.57895 0.40875 0.12615 0.0
C1856 C 0.5171 0.30526 0.1631 0.0
C1857 C 0.55076 0.34689 0.135 0.0
C1858 C 0.49297 0.27595 0.16615 0.0
C1859 C 0.48259 0.25589 0.14675 0.0
C1860 C 0.53053 0.31454 0.14043 0.0
C1861 C 0.49865 0.26516 0.1251 0.0
C1862 C 0.55383 0.35747 0.11136 0.0
C1863 C 0.57765 0.39749 0.14927 0.0
N1864 N 0.52139 0.29402 0.12237 0.0
N1865 N 0.56316 0.36719 0.15315 0.0
H1866 H 0.19121 0.62664 0.14767 0.0
H1867 H 0.24381 0.52302 0.08251 0.0
H1868 H 0.17121 0.59743 0.07426 0.0
H1869 H 0.25396 0.5426 0.15814 0.0
H1870 H 0.23093 0.56255 0.07665 0.0
H1871 H 0.22759 0.60894 0.1488 0.0
C1872 C 0.19515 0.61735 0.13155 0.0
C1873 C 0.17779 0.61298 0.11095 0.0
C1874 C 0.23652 0.5586 0.09447 0.0
C1875 C 0.21887 0.59211 0.1123 0.0
C1876 C 0.24391 0.53603 0.09784 0.0
C1877 C 0.24919 0.52896 0.12096 0.0
C1878 C 0.23415 0.57405 0.11437 0.0
C1879 C 0.24953 0.54694 0.14006 0.0
C1880 C 0.21576 0.60702 0.13227 0.0
C1881 C 0.18371 0.60064 0.09065 0.0
N1882 N 0.24147 0.56828 0.13642 0.0
N1883 N 0.20337 0.59014 0.09196 0.0
H1884 H 0.82208 0.43096 0.40997 0.0
H1885 H 0.77053 0.29598 0.3206 0.0
H1886 H 0.81644 0.43999 0.33377 0.0
H1887 H 0.7589 0.28372 0.39702 0.0
H1888 H 0.77883 0.34709 0.32503 0.0
H1889 H 0.79019 0.37622 0.40615 0.0
C1890 C 0.81327 0.42141 0.39254 0.0
C1891 C 0.82213 0.43988 0.37212 0.0
C1892 C 0.77388 0.33308 0.34082 0.0
C1893 C 0.78641 0.37732 0.36745 0.0
C1894 C 0.76921 0.30389 0.33829 0.0
C1895 C 0.76457 0.28579 0.35852 0.0
C1896 C 0.77449 0.3445 0.3638 0.0
C1897 C 0.76269 0.29703 0.38097 0.0
C1898 C 0.79518 0.39016 0.39032 0.0
C1899 C 0.81014 0.42651 0.34995 0.0
N1900 N 0.76829 0.32591 0.38307 0.0
N1901 N 0.79346 0.39595 0.34811 0.0
H1902 H 0.49695 0.78653 0.31207 0.0
H1903 H 0.42389 0.8355 0.41323 0.0
H1904 H 0.49667 0.76249 0.38616 0.0
H1905 H 0.39675 0.82924 0.33959 0.0
H1906 H 0.44784 0.8055 0.40384 0.0
H1907 H 0.45753 0.79889 0.32119 0.0
C1908 C 0.48822 0.7833 0.33015 0.0
C1909 C 0.50045 0.77385 0.34843 0.0
C1910 C 0.43605 0.81003 0.3898 0.0
C1911 C 0.45572 0.78841 0.35906 0.0
C1912 C 0.42235 0.82705 0.3952 0.0
C1913 C 0.40832 0.8346 0.37715 0.0
C1914 C 0.43641 0.80124 0.36603 0.0
C1915 C 0.40718 0.82357 0.354 0.0
C1916 C 0.46569 0.79034 0.33535 0.0
C1917 C 0.48812 0.76992 0.37151 0.0
N1918 N 0.42159 0.80789 0.34896 0.0
N1919 N 0.46687 0.77776 0.37625 0.0
H1920 H 0.72269 0.46845 0.30504 0.0
H1921 H 0.59192 0.40868 0.39991 0.0
H1922 H 0.73787 0.48404 0.38095 0.0
H1923 H 0.57813 0.37805 0.32677 0.0
H1924 H 0.64614 0.42938 0.3947 0.0
H1925 H 0.67105 0.42868 0.3134 0.0
C1926 C 0.71537 0.46314 0.32348 0.0
C1927 C 0.73442 0.48009 0.34229 0.0
C1928 C 0.63126 0.4175 0.37992 0.0
C1929 C 0.67528 0.43486 0.35198 0.0
C1930 C 0.60033 0.40565 0.38295 0.0
C1931 C 0.58069 0.39191 0.36369 0.0
C1932 C 0.64262 0.41619 0.35731 0.0
C1933 C 0.59259 0.38846 0.34207 0.0
C1934 C 0.68586 0.4404 0.32826 0.0
C1935 C 0.72381 0.47197 0.36584 0.0
N1936 N 0.62289 0.40113 0.33929 0.0
N1937 N 0.6948 0.45034 0.36999 0.0
H1938 H 0.15229 0.56852 0.4366 0.0
H1939 H 0.25484 0.70473 0.34977 0.0
H1940 H 0.18836 0.55749 0.37002 0.0
H1941 H 0.22596 0.71608 0.4197 0.0
H1942 H 0.23706 0.65176 0.3593 0.0
H1943 H 0.18533 0.62318 0.43345 0.0
C1944 C 0.16763 0.57764 0.42155 0.0
C1945 C 0.16745 0.55855 0.40345 0.0
C1946 C 0.23504 0.66595 0.37271 0.0
C1947 C 0.20495 0.62106 0.39945 0.0
C1948 C 0.24522 0.69624 0.36728 0.0
C1949 C 0.24146 0.71478 0.38382 0.0
C1950 C 0.22079 0.65407 0.39476 0.0
C1951 C 0.22902 0.70257 0.40628 0.0
C1952 C 0.18647 0.60883 0.41972 0.0
C1953 C 0.18788 0.57143 0.3844 0.0
N1954 N 0.21874 0.67289 0.41095 0.0
N1955 N 0.20545 0.60194 0.38268 0.0
H1956 H 0.61838 0.17909 0.41872 0.0
H1957 H 0.54927 0.25882 0.34249 0.0
H1958 H 0.63703 0.19832 0.34357 0.0
H1959 H 0.54828 0.25743 0.41972 0.0
H1960 H 0.5878 0.2439 0.3429 0.0
H1961 H 0.59945 0.21456 0.42035 0.0
C1962 C 0.61916 0.19144 0.40271 0.0
C1963 C 0.629 0.18571 0.38096 0.0
C1964 C 0.57961 0.24746 0.35977 0.0
C1965 C 0.60671 0.22565 0.38244 0.0
C1966 C 0.55757 0.25597 0.35955 0.0
C1967 C 0.54506 0.25876 0.3811 0.0
C1968 C 0.58888 0.24131 0.38169 0.0
C1969 C 0.55694 0.25511 0.40265 0.0
C1970 C 0.60833 0.21164 0.4036 0.0
C1971 C 0.62964 0.20221 0.36069 0.0
N1972 N 0.57774 0.24599 0.40239 0.0
N1973 N 0.61799 0.22099 0.36179 0.0
H1974 H 0.45197 0.62379 0.32591 0.0
H1975 H 0.29638 0.50651 0.38781 0.0
H1976 H 0.44243 0.59844 0.40033 0.0
H1977 H 0.31165 0.51412 0.3115 0.0
H1978 H 0.34611 0.55081 0.39353 0.0
H1979 H 0.397 0.59522 0.32175 0.0
C1980 C 0.4382 0.61311 0.34156 0.0
C1981 C 0.45157 0.61319 0.36345 0.0
C1982 C 0.3384 0.543 0.37552 0.0
C1983 C 0.38905 0.58011 0.35876 0.0
C1984 C 0.31002 0.5177 0.37222 0.0
C1985 C 0.30009 0.50623 0.34915 0.0
C1986 C 0.35696 0.55701 0.35562 0.0
C1987 C 0.31861 0.52189 0.32962 0.0
C1988 C 0.40691 0.59655 0.33913 0.0
C1989 C 0.43285 0.59867 0.38313 0.0
N1990 N 0.34631 0.54631 0.33331 0.0
N1991 N 0.40251 0.58234 0.38025 0.0
H1992 H 0.43046 0.81707 0.81093 0.0
H1993 H 0.27642 0.75156 0.88288 0.0
H1994 H 0.42332 0.81623 0.88774 0.0
H1995 H 0.28466 0.76502 0.80638 0.0
H1996 H 0.32807 0.76091 0.88416 0.0
H1997 H 0.37577 0.78339 0.80845 0.0
C1998 C 0.41748 0.80873 0.82729 0.0
C1999 C 0.43119 0.81947 0.84956 0.0
C2000 C 0.31841 0.76131 0.86703 0.0
C2001 C 0.36881 0.78187 0.84692 0.0
C2002 C 0.28888 0.75595 0.86627 0.0
C2003 C 0.2764 0.7582 0.84455 0.0
C2004 C 0.33567 0.7691 0.84593 0.0
C2005 C 0.29353 0.76359 0.82359 0.0
C2006 C 0.38626 0.78984 0.82589 0.0
C2007 C 0.41343 0.80846 0.87024 0.0
N2008 N 0.32246 0.76935 0.82485 0.0
N2009 N 0.38307 0.79068 0.86842 0.0
H2010 H 0.63368 0.44813 0.83523 0.0
H2011 H 0.51182 0.2952 0.89766 0.0
H2012 H 0.60939 0.43986 0.9098 0.0
H2013 H 0.51959 0.31119 0.82146 0.0
H2014 H 0.55876 0.34299 0.9033 0.0
H2015 H 0.60422 0.39301 0.83144 0.0
C2016 C 0.62317 0.43456 0.85101 0.0
C2017 C 0.62369 0.4483 0.87281 0.0
C2018 C 0.55042 0.33575 0.88532 0.0
C2019 C 0.58951 0.38572 0.86855 0.0
C2020 C 0.52363 0.30849 0.88208 0.0
C2021 C 0.51144 0.29955 0.85909 0.0
C2022 C 0.56512 0.35407 0.86543 0.0
C2023 C 0.52788 0.31752 0.83954 0.0
C2024 C 0.60608 0.40319 0.8488 0.0
C2025 C 0.60934 0.42991 0.89268 0.0
N2026 N 0.55369 0.34412 0.84318 0.0
N2027 N 0.59237 0.39952 0.89 0.0
H2028 H 0.14236 0.60593 0.9416 0.0
H2029 H 0.23231 0.53845 0.87477 0.0
H2030 H 0.18066 0.63248 0.87097 0.0
H2031 H 0.18674 0.50543 0.94246 0.0
H2032 H 0.22503 0.58194 0.87802 0.0
H2033 H 0.17056 0.57932 0.94724 0.0
C2034 C 0.15748 0.60693 0.92758 0.0
C2035 C 0.15881 0.62094 0.90563 0.0
C2036 C 0.21701 0.56546 0.89236 0.0
C2037 C 0.1906 0.59013 0.91173 0.0
C2038 C 0.22108 0.54052 0.8905 0.0
C2039 C 0.20951 0.51789 0.90814 0.0
C2040 C 0.20103 0.56775 0.91191 0.0
C2041 C 0.19565 0.52211 0.92828 0.0
C2042 C 0.17341 0.5916 0.93073 0.0
C2043 C 0.1789 0.62186 0.88813 0.0
N2044 N 0.19135 0.54631 0.92943 0.0
N2045 N 0.19351 0.60605 0.89135 0.0
H2046 H 0.70077 0.26007 0.81378 0.0
H2047 H 0.57734 0.1668 0.91036 0.0
H2048 H 0.72202 0.25708 0.8881 0.0
H2049 H 0.55563 0.19377 0.84361 0.0
H2050 H 0.63063 0.20318 0.90353 0.0
H2051 H 0.64799 0.24029 0.82491 0.0
C2052 C 0.69449 0.2559 0.8325 0.0
C2053 C 0.71575 0.25966 0.84997 0.0
C2054 C 0.61422 0.2016 0.89055 0.0
C2055 C 0.65538 0.23656 0.86274 0.0
C2056 C 0.58387 0.18078 0.89443 0.0
C2057 C 0.56227 0.17727 0.87743 0.0
C2058 C 0.62306 0.21853 0.86926 0.0
C2059 C 0.57171 0.19592 0.85713 0.0
C2060 C 0.66432 0.24456 0.83884 0.0
C2061 C 0.70635 0.25412 0.87396 0.0
N2062 N 0.60152 0.21542 0.85338 0.0
N2063 N 0.67676 0.24226 0.87958 0.0
H2064 H 0.40183 0.61484 0.84768 0.0
H2065 H 0.53001 0.77192 0.89854 0.0
H2066 H 0.45382 0.6252 0.91122 0.0
H2067 H 0.48811 0.76056 0.82946 0.0
H2068 H 0.4915 0.72054 0.9091 0.0
H2069 H 0.42275 0.66965 0.84647 0.0
C2070 C 0.41711 0.62861 0.86168 0.0
C2071 C 0.42657 0.61564 0.87932 0.0
C2072 C 0.49038 0.7295 0.8918 0.0
C2073 C 0.45075 0.67817 0.87796 0.0
C2074 C 0.51229 0.75893 0.8858 0.0
C2075 C 0.51277 0.77023 0.8628 0.0
C2076 C 0.46892 0.71131 0.87467 0.0
C2077 C 0.489 0.75249 0.84718 0.0
C2078 C 0.42914 0.65987 0.86093 0.0
C2079 C 0.44647 0.63446 0.89701 0.0
N2080 N 0.46837 0.72366 0.85321 0.0
N2081 N 0.45822 0.66482 0.8957 0.0
H2082 H 0.76176 0.48632 0.94243 0.0
H2083 H 0.79488 0.38783 0.85033 0.0
H2084 H 0.7514 0.48743 0.86587 0.0
H2085 H 0.81995 0.39904 0.92476 0.0
H2086 H 0.764 0.4113 0.85793 0.0
H2087 H 0.76856 0.44243 0.93812 0.0
C2088 C 0.76033 0.477 0.92476 0.0
C2089 C 0.7567 0.49099 0.90442 0.0
C2090 C 0.77558 0.40788 0.87274 0.0
C2091 C 0.76458 0.44088 0.89937 0.0
C2092 C 0.79292 0.39418 0.86845 0.0
C2093 C 0.81018 0.39189 0.88692 0.0
C2094 C 0.77566 0.41933 0.89563 0.0
C2095 C 0.80715 0.40075 0.91003 0.0
C2096 C 0.76426 0.45196 0.92231 0.0
C2097 C 0.75474 0.47773 0.88201 0.0
N2098 N 0.7907 0.41459 0.91366 0.0
N2099 N 0.75917 0.45371 0.88004 0.0
H2100 H 0.17197 0.56692 0.56979 0.0
H2101 H 0.25793 0.70781 0.65638 0.0
H2102 H 0.19435 0.56016 0.643 0.0
H2103 H 0.23228 0.71345 0.58385 0.0
H2104 H 0.24489 0.65549 0.64912 0.0
H2105 H 0.20431 0.62175 0.57177 0.0
C2106 C 0.18434 0.57698 0.58609 0.0
C2107 C 0.18021 0.55907 0.60635 0.0
C2108 C 0.24258 0.66833 0.63467 0.0
C2109 C 0.21677 0.62181 0.60897 0.0
C2110 C 0.25006 0.69825 0.63879 0.0
C2111 C 0.24567 0.71491 0.62083 0.0
C2112 C 0.23052 0.65492 0.61246 0.0
C2113 C 0.23563 0.70137 0.59835 0.0
C2114 C 0.2027 0.60828 0.58727 0.0
C2115 C 0.19691 0.57316 0.62698 0.0
N2116 N 0.22799 0.67206 0.59491 0.0
N2117 N 0.21401 0.60378 0.62791 0.0
H2118 H 0.52143 0.25093 0.59442 0.0
H2119 H 0.6252 0.18466 0.63836 0.0
H2120 H 0.53365 0.23607 0.66862 0.0
H2121 H 0.58737 0.17253 0.5677 0.0
H2122 H 0.6057 0.2187 0.64797 0.0
H2123 H 0.55961 0.23783 0.58329 0.0
C2124 C 0.53256 0.24554 0.60845 0.0
C2125 C 0.5238 0.24393 0.63248 0.0
C2126 C 0.60234 0.20918 0.63018 0.0
C2127 C 0.5675 0.22886 0.61975 0.0
C2128 C 0.61366 0.19002 0.62465 0.0
C2129 C 0.60768 0.17582 0.60227 0.0
C2130 C 0.58519 0.2142 0.61311 0.0
C2131 C 0.59227 0.18304 0.58518 0.0
C2132 C 0.55432 0.23798 0.60204 0.0
C2133 C 0.53934 0.23714 0.64985 0.0
N2134 N 0.58127 0.20151 0.59103 0.0
N2135 N 0.56014 0.22939 0.64311 0.0
H2136 H 0.4317 0.59804 0.58797 0.0
H2137 H 0.29016 0.53894 0.6726 0.0
H2138 H 0.43729 0.62487 0.66171 0.0
H2139 H 0.28454 0.52212 0.59658 0.0
H2140 H 0.34275 0.57824 0.66755 0.0
H2141 H 0.37734 0.57849 0.58895 0.0
C2142 C 0.42147 0.60046 0.60419 0.0
C2143 C 0.43878 0.61274 0.62486 0.0
C2144 C 0.32986 0.56636 0.6519 0.0
C2145 C 0.3766 0.58974 0.6264 0.0
C2146 C 0.29979 0.54388 0.65477 0.0
C2147 C 0.28312 0.5267 0.63506 0.0
C2148 C 0.3434 0.57145 0.6292 0.0
C2149 C 0.29668 0.53439 0.61237 0.0
C2150 C 0.39045 0.58925 0.6048 0.0
C2151 C 0.42463 0.61551 0.64542 0.0
N2152 N 0.32617 0.5558 0.61013 0.0
N2153 N 0.3942 0.60347 0.64584 0.0
H2154 H 0.77952 0.28293 0.58765 0.0
H2155 H 0.82186 0.44229 0.64413 0.0
H2156 H 0.78974 0.30278 0.66324 0.0
H2157 H 0.83965 0.42964 0.57086 0.0
H2158 H 0.7931 0.38746 0.6493 0.0
H2159 H 0.78546 0.33276 0.57994 0.0
C2160 C 0.78251 0.29755 0.60267 0.0
C2161 C 0.78477 0.28899 0.6261 0.0
C2162 C 0.80263 0.39669 0.63192 0.0
C2163 C 0.79133 0.34577 0.61738 0.0
C2164 C 0.81875 0.42795 0.62888 0.0
C2165 C 0.83339 0.44037 0.60711 0.0
C2166 C 0.80118 0.3779 0.61304 0.0
C2167 C 0.82895 0.42082 0.588 0.0
C2168 C 0.78589 0.32595 0.59823 0.0
C2169 C 0.78841 0.30872 0.64487 0.0
N2170 N 0.81361 0.39047 0.59151 0.0
N2171 N 0.79191 0.33636 0.64008 0.0
H2172 H 0.46155 0.73073 0.57826 0.0
H2173 H 0.40825 0.82847 0.65247 0.0
H2174 H 0.48822 0.75953 0.65111 0.0
H2175 H 0.37919 0.7976 0.58059 0.0
H2176 H 0.43025 0.79553 0.65489 0.0
H2177 H 0.42402 0.74683 0.58126 0.0
C2178 C 0.45917 0.73993 0.59504 0.0
C2179 C 0.47846 0.74428 0.61432 0.0
C2180 C 0.41852 0.79538 0.63874 0.0
C2181 C 0.43574 0.76309 0.61778 0.0
C2182 C 0.40586 0.81403 0.63746 0.0
C2183 C 0.39187 0.81539 0.61638 0.0
C2184 C 0.41759 0.77845 0.61861 0.0
C2185 C 0.38966 0.79681 0.59719 0.0
C2186 C 0.43774 0.74919 0.59672 0.0
C2187 C 0.47411 0.75607 0.63568 0.0
N2188 N 0.40277 0.77934 0.59864 0.0
N2189 N 0.45355 0.7655 0.63671 0.0
H2190 H 0.57674 0.40374 0.58262 0.0
H2191 H 0.71465 0.46411 0.67117 0.0
H2192 H 0.56785 0.3731 0.65558 0.0
H2193 H 0.72478 0.47859 0.59483 0.0
H2194 H 0.66187 0.42576 0.66514 0.0
H2195 H 0.63142 0.4259 0.58554 0.0
C2196 C 0.58635 0.40105 0.59906 0.0
C2197 C 0.56788 0.3867 0.61891 0.0
C2198 C 0.67577 0.43692 0.64967 0.0
C2199 C 0.63044 0.4127 0.62269 0.0
C2200 C 0.70595 0.45886 0.6531 0.0
C2201 C 0.7241 0.47497 0.63351 0.0
C2202 C 0.66352 0.43131 0.62651 0.0
C2203 C 0.71161 0.467 0.6105 0.0
C2204 C 0.61755 0.41377 0.60078 0.0
C2205 C 0.58135 0.38388 0.63984 0.0
N2206 N 0.68199 0.44614 0.60768 0.0
N2207 N 0.61189 0.3973 0.64135 0.0
loop_
_geom_bond_atom_site_label_1
_geom_bond_atom_site_label_2
_geom_bond_distance
_geom_bond_site_symmetry_2
_ccdc_geom_bond_type
O0 Tb1 2.292 . S
O0 C3 1.255 . S
Tb1 O0 2.292 . S
Tb1 O17 2.326 . S
Tb1 O19 2.500 . S
Tb1 O20 2.473 . S
Tb1 O23 2.324 . S
Eu2 O6 2.292 . S
Eu2 C7 2.852 . S
Eu2 O18 2.324 . S
Eu2 O22 2.326 . S
Eu2 O24 2.500 . S
Eu2 O25 2.473 . S
C3 O0 1.255 . S
C3 O4 1.247 . S
O4 C3 1.247 . S
C5 O17 1.242 . S
C5 O18 1.258 . S
O6 Eu2 2.292 . S
O6 C8 1.255 . S
C7 Eu2 2.852 . S
C7 C11 1.503 . S
C7 O24 1.273 . S
C7 O25 1.257 . S
C8 O6 1.255 . S
C8 O9 1.247 . S
O9 C8 1.247 . S
C10 O22 1.242 . S
C10 O23 1.258 . S
C11 C7 1.503 . S
C11 C12 1.379 . S
C11 C16 1.392 . S
C12 C11 1.379 . S
C12 C13 1.404 . S
C12 H26 0.929 . S
C13 C12 1.404 . S
C13 C14 1.389 . S
C14 C13 1.389 . S
C14 C15 1.399 . S
C14 H27 0.931 . S
C15 C14 1.399 . S
C15 C16 1.390 . S
C16 C11 1.392 . S
C16 C15 1.390 . S
C16 H28 0.929 . S
O17 Tb1 2.326 . S
O17 C5 1.242 . S
O18 Eu2 2.324 . S
O18 C5 1.258 . S
O19 Tb1 2.500 . S
O19 C21 1.273 . S
O20 Tb1 2.473 . S
O20 C21 1.257 . S
C21 O19 1.273 . S
C21 O20 1.257 . S
O22 Eu2 2.326 . S
O22 C10 1.242 . S
O23 Tb1 2.324 . S
O23 C10 1.258 . S
O24 Eu2 2.500 . S
O24 C7 1.273 . S
O25 Eu2 2.473 . S
O25 C7 1.257 . S
H26 C12 0.929 . S
H27 C14 0.931 . S
H28 C16 0.929 . S
O29 Tb30 2.292 . S
O29 C32 1.255 . S
Tb30 O29 2.292 . S
Tb30 O46 2.326 . S
Tb30 O48 2.500 . S
Tb30 O49 2.473 . S
Tb30 O52 2.324 . S
Eu31 O35 2.292 . S
Eu31 C36 2.852 . S
Eu31 O47 2.324 . S
Eu31 O51 2.326 . S
Eu31 O53 2.500 . S
Eu31 O54 2.473 . S
C32 O29 1.255 . S
C32 O33 1.247 . S
O33 C32 1.247 . S
C34 O46 1.242 . S
C34 O47 1.258 . S
O35 Eu31 2.292 . S
O35 C37 1.255 . S
C36 Eu31 2.852 . S
C36 C40 1.503 . S
C36 O53 1.273 . S
C36 O54 1.257 . S
C37 O35 1.255 . S
C37 O38 1.247 . S
O38 C37 1.247 . S
C39 O51 1.242 . S
C39 O52 1.258 . S
C40 C36 1.503 . S
C40 C41 1.379 . S
C40 C45 1.392 . S
C41 C40 1.379 . S
C41 C42 1.404 . S
C41 H55 0.929 . S
C42 C41 1.404 . S
C42 C43 1.389 . S
C43 C42 1.389 . S
C43 C44 1.399 . S
C43 H56 0.931 . S
C44 C43 1.399 . S
C44 C45 1.390 . S
C45 C40 1.392 . S
C45 C44 1.390 . S
C45 H57 0.929 . S
O46 Tb30 2.326 . S
O46 C34 1.242 . S
O47 Eu31 2.324 . S
O47 C34 1.258 . S
O48 Tb30 2.500 . S
O48 C50 1.273 . S
O49 Tb30 2.473 . S
O49 C50 1.257 . S
C50 O48 1.273 . S
C50 O49 1.257 . S
O51 Eu31 2.326 . S
O51 C39 1.242 . S
O52 Tb30 2.324 . S
O52 C39 1.258 . S
O53 Eu31 2.500 . S
O53 C36 1.273 . S
O54 Eu31 2.473 . S
O54 C36 1.257 . S
H55 C41 0.929 . S
H56 C43 0.931 . S
H57 C45 0.929 . S
O58 Tb59 2.292 . S
O58 C61 1.255 . S
Tb59 O58 2.292 . S
Tb59 O75 2.326 . S
Tb59 O77 2.500 . S
Tb59 O78 2.473 . S
Tb59 O81 2.324 . S
Eu60 O64 2.292 . S
Eu60 C65 2.852 . S
Eu60 O76 2.324 . S
Eu60 O80 2.326 . S
Eu60 O82 2.500 . S
Eu60 O83 2.473 . S
C61 O58 1.255 . S
C61 O62 1.247 . S
O62 C61 1.247 . S
C63 O75 1.242 . S
C63 O76 1.258 . S
O64 Eu60 2.292 . S
O64 C66 1.255 . S
C65 Eu60 2.852 . S
C65 C69 1.503 . S
C65 O82 1.273 . S
C65 O83 1.257 . S
C66 O64 1.255 . S
C66 O67 1.247 . S
O67 C66 1.247 . S
C68 O80 1.242 . S
C68 O81 1.258 . S
C69 C65 1.503 . S
C69 C70 1.379 . S
C69 C74 1.392 . S
C70 C69 1.379 . S
C70 C71 1.404 . S
C70 H84 0.929 . S
C71 C70 1.404 . S
C71 C72 1.389 . S
C72 C71 1.389 . S
C72 C73 1.399 . S
C72 H85 0.931 . S
C73 C72 1.399 . S
C73 C74 1.390 . S
C74 C69 1.392 . S
C74 C73 1.390 . S
C74 H86 0.929 . S
O75 Tb59 2.326 . S
O75 C63 1.242 . S
O76 Eu60 2.324 . S
O76 C63 1.258 . S
O77 Tb59 2.500 . S
O77 C79 1.273 . S
O78 Tb59 2.473 . S
O78 C79 1.257 . S
C79 O77 1.273 . S
C79 O78 1.257 . S
O80 Eu60 2.326 . S
O80 C68 1.242 . S
O81 Tb59 2.324 . S
O81 C68 1.258 . S
O82 Eu60 2.500 . S
O82 C65 1.273 . S
O83 Eu60 2.473 . S
O83 C65 1.257 . S
H84 C70 0.929 . S
H85 C72 0.931 . S
H86 C74 0.929 . S
O87 Tb88 2.292 . S
O87 C90 1.255 . S
Tb88 O87 2.292 . S
Tb88 O104 2.326 . S
Tb88 O106 2.500 . S
Tb88 O107 2.473 . S
Tb88 O110 2.324 . S
Eu89 O93 2.292 . S
Eu89 C94 2.852 . S
Eu89 O105 2.324 . S
Eu89 O109 2.326 . S
Eu89 O111 2.500 . S
Eu89 O112 2.473 . S
C90 O87 1.255 . S
C90 O91 1.247 . S
O91 C90 1.247 . S
C92 O104 1.242 . S
C92 O105 1.258 . S
O93 Eu89 2.292 . S
O93 C95 1.255 . S
C94 Eu89 2.852 . S
C94 C98 1.503 . S
C94 O111 1.273 . S
C94 O112 1.257 . S
C95 O93 1.255 . S
C95 O96 1.247 . S
O96 C95 1.247 . S
C97 O109 1.242 . S
C97 O110 1.258 . S
C98 C94 1.503 . S
C98 C99 1.379 . S
C98 C103 1.392 . S
C99 C98 1.379 . S
C99 C100 1.404 . S
C99 H113 0.929 . S
C100 C99 1.404 . S
C100 C101 1.389 . S
C101 C100 1.389 . S
C101 C102 1.399 . S
C101 H114 0.931 . S
C102 C101 1.399 . S
C102 C103 1.390 . S
C103 C98 1.392 . S
C103 C102 1.390 . S
C103 H115 0.929 . S
O104 Tb88 2.326 . S
O104 C92 1.242 . S
O105 Eu89 2.324 . S
O105 C92 1.258 . S
O106 Tb88 2.500 . S
O106 C108 1.273 . S
O107 Tb88 2.473 . S
O107 C108 1.257 . S
C108 O106 1.273 . S
C108 O107 1.257 . S
O109 Eu89 2.326 . S
O109 C97 1.242 . S
O110 Tb88 2.324 . S
O110 C97 1.258 . S
O111 Eu89 2.500 . S
O111 C94 1.273 . S
O112 Eu89 2.473 . S
O112 C94 1.257 . S
H113 C99 0.929 . S
H114 C101 0.931 . S
H115 C103 0.929 . S
O116 Tb117 2.292 . S
O116 C119 1.255 . S
Tb117 O116 2.292 . S
Tb117 O133 2.326 . S
Tb117 O135 2.500 . S
Tb117 O136 2.473 . S
Tb117 O139 2.324 . S
Eu118 O122 2.292 . S
Eu118 C123 2.852 . S
Eu118 O134 2.324 . S
Eu118 O138 2.326 . S
Eu118 O140 2.500 . S
Eu118 O141 2.473 . S
C119 O116 1.255 . S
C119 O120 1.247 . S
O120 C119 1.247 . S
C121 O133 1.242 . S
C121 O134 1.258 . S
O122 Eu118 2.292 . S
O122 C124 1.255 . S
C123 Eu118 2.852 . S
C123 C127 1.503 . S
C123 O140 1.273 . S
C123 O141 1.257 . S
C124 O122 1.255 . S
C124 O125 1.247 . S
O125 C124 1.247 . S
C126 O138 1.242 . S
C126 O139 1.258 . S
C127 C123 1.503 . S
C127 C128 1.379 . S
C127 C132 1.392 . S
C128 C127 1.379 . S
C128 C129 1.404 . S
C128 H142 0.929 . S
C129 C128 1.404 . S
C129 C130 1.389 . S
C130 C129 1.389 . S
C130 C131 1.399 . S
C130 H143 0.931 . S
C131 C130 1.399 . S
C131 C132 1.390 . S
C132 C127 1.392 . S
C132 C131 1.390 . S
C132 H144 0.929 . S
O133 Tb117 2.326 . S
O133 C121 1.242 . S
O134 Eu118 2.324 . S
O134 C121 1.258 . S
O135 Tb117 2.500 . S
O135 C137 1.273 . S
O136 Tb117 2.473 . S
O136 C137 1.257 . S
C137 O135 1.273 . S
C137 O136 1.257 . S
O138 Eu118 2.326 . S
O138 C126 1.242 . S
O139 Tb117 2.324 . S
O139 C126 1.258 . S
O140 Eu118 2.500 . S
O140 C123 1.273 . S
O141 Eu118 2.473 . S
O141 C123 1.257 . S
H142 C128 0.929 . S
H143 C130 0.931 . S
H144 C132 0.929 . S
O145 Tb146 2.292 . S
O145 C148 1.255 . S
Tb146 O145 2.292 . S
Tb146 O162 2.326 . S
Tb146 O164 2.500 . S
Tb146 O165 2.473 . S
Tb146 O168 2.324 . S
Eu147 O151 2.292 . S
Eu147 C152 2.852 . S
Eu147 O163 2.324 . S
Eu147 O167 2.326 . S
Eu147 O169 2.500 . S
Eu147 O170 2.473 . S
C148 O145 1.255 . S
C148 O149 1.247 . S
O149 C148 1.247 . S
C150 O162 1.242 . S
C150 O163 1.258 . S
O151 Eu147 2.292 . S
O151 C153 1.255 . S
C152 Eu147 2.852 . S
C152 C156 1.503 . S
C152 O169 1.273 . S
C152 O170 1.257 . S
C153 O151 1.255 . S
C153 O154 1.247 . S
O154 C153 1.247 . S
C155 O167 1.242 . S
C155 O168 1.258 . S
C156 C152 1.503 . S
C156 C157 1.379 . S
C156 C161 1.392 . S
C157 C156 1.379 . S
C157 C158 1.404 . S
C157 H171 0.929 . S
C158 C157 1.404 . S
C158 C159 1.389 . S
C159 C158 1.389 . S
C159 C160 1.399 . S
C159 H172 0.931 . S
C160 C159 1.399 . S
C160 C161 1.390 . S
C161 C156 1.392 . S
C161 C160 1.390 . S
C161 H173 0.929 . S
O162 Tb146 2.326 . S
O162 C150 1.242 . S
O163 Eu147 2.324 . S
O163 C150 1.258 . S
O164 Tb146 2.500 . S
O164 C166 1.273 . S
O165 Tb146 2.473 . S
O165 C166 1.257 . S
C166 O164 1.273 . S
C166 O165 1.257 . S
O167 Eu147 2.326 . S
O167 C155 1.242 . S
O168 Tb146 2.324 . S
O168 C155 1.258 . S
O169 Eu147 2.500 . S
O169 C152 1.273 . S
O170 Eu147 2.473 . S
O170 C152 1.257 . S
H171 C157 0.929 . S
H172 C159 0.931 . S
H173 C161 0.929 . S
O174 Tb175 2.292 . S
O174 C177 1.255 . S
Tb175 O174 2.292 . S
Tb175 O191 2.326 . S
Tb175 O193 2.500 . S
Tb175 O194 2.473 . S
Tb175 O197 2.324 . S
Eu176 O180 2.292 . S
Eu176 C181 2.852 . S
Eu176 O192 2.324 . S
Eu176 O196 2.326 . S
Eu176 O198 2.500 . S
Eu176 O199 2.473 . S
C177 O174 1.255 . S
C177 O178 1.247 . S
O178 C177 1.247 . S
C179 O191 1.242 . S
C179 O192 1.258 . S
O180 Eu176 2.292 . S
O180 C182 1.255 . S
C181 Eu176 2.852 . S
C181 C185 1.503 . S
C181 O198 1.273 . S
C181 O199 1.257 . S
C182 O180 1.255 . S
C182 O183 1.247 . S
O183 C182 1.247 . S
C184 O196 1.242 . S
C184 O197 1.258 . S
C185 C181 1.503 . S
C185 C186 1.379 . S
C185 C190 1.392 . S
C186 C185 1.379 . S
C186 C187 1.404 . S
C186 H200 0.929 . S
C187 C186 1.404 . S
C187 C188 1.389 . S
C188 C187 1.389 . S
C188 C189 1.399 . S
C188 H201 0.931 . S
C189 C188 1.399 . S
C189 C190 1.390 . S
C190 C185 1.392 . S
C190 C189 1.390 . S
C190 H202 0.929 . S
O191 Tb175 2.326 . S
O191 C179 1.242 . S
O192 Eu176 2.324 . S
O192 C179 1.258 . S
O193 Tb175 2.500 . S
O193 C195 1.273 . S
O194 Tb175 2.473 . S
O194 C195 1.257 . S
C195 O193 1.273 . S
C195 O194 1.257 . S
O196 Eu176 2.326 . S
O196 C184 1.242 . S
O197 Tb175 2.324 . S
O197 C184 1.258 . S
O198 Eu176 2.500 . S
O198 C181 1.273 . S
O199 Eu176 2.473 . S
O199 C181 1.257 . S
H200 C186 0.929 . S
H201 C188 0.931 . S
H202 C190 0.929 . S
O203 Tb204 2.292 . S
O203 C206 1.255 . S
Tb204 O203 2.292 . S
Tb204 O220 2.326 . S
Tb204 O222 2.500 . S
Tb204 O223 2.473 . S
Tb204 O226 2.324 . S
Eu205 O209 2.292 . S
Eu205 C210 2.852 . S
Eu205 O221 2.324 . S
Eu205 O225 2.326 . S
Eu205 O227 2.500 . S
Eu205 O228 2.473 . S
C206 O203 1.255 . S
C206 O207 1.247 . S
O207 C206 1.247 . S
C208 O220 1.242 . S
C208 O221 1.258 . S
O209 Eu205 2.292 . S
O209 C211 1.255 . S
C210 Eu205 2.852 . S
C210 C214 1.503 . S
C210 O227 1.273 . S
C210 O228 1.257 . S
C211 O209 1.255 . S
C211 O212 1.247 . S
O212 C211 1.247 . S
C213 O225 1.242 . S
C213 O226 1.258 . S
C214 C210 1.503 . S
C214 C215 1.379 . S
C214 C219 1.392 . S
C215 C214 1.379 . S
C215 C216 1.404 . S
C215 H229 0.929 . S
C216 C215 1.404 . S
C216 C217 1.389 . S
C217 C216 1.389 . S
C217 C218 1.399 . S
C217 H230 0.931 . S
C218 C217 1.399 . S
C218 C219 1.390 . S
C219 C214 1.392 . S
C219 C218 1.390 . S
C219 H231 0.929 . S
O220 Tb204 2.326 . S
O220 C208 1.242 . S
O221 Eu205 2.324 . S
O221 C208 1.258 . S
O222 Tb204 2.500 . S
O222 C224 1.273 . S
O223 Tb204 2.473 . S
O223 C224 1.257 . S
C224 O222 1.273 . S
C224 O223 1.257 . S
O225 Eu205 2.326 . S
O225 C213 1.242 . S
O226 Tb204 2.324 . S
O226 C213 1.258 . S
O227 Eu205 2.500 . S
O227 C210 1.273 . S
O228 Eu205 2.473 . S
O228 C210 1.257 . S
H229 C215 0.929 . S
H230 C217 0.931 . S
H231 C219 0.929 . S
O232 Tb233 2.292 . S
O232 C235 1.255 . S
Tb233 O232 2.292 . S
Tb233 O249 2.326 . S
Tb233 O251 2.500 . S
Tb233 O252 2.473 . S
Tb233 O255 2.324 . S
Eu234 O238 2.292 . S
Eu234 C239 2.852 . S
Eu234 O250 2.324 . S
Eu234 O254 2.326 . S
Eu234 O256 2.500 . S
Eu234 O257 2.473 . S
C235 O232 1.255 . S
C235 O236 1.247 . S
O236 C235 1.247 . S
C237 O249 1.242 . S
C237 O250 1.258 . S
O238 Eu234 2.292 . S
O238 C240 1.255 . S
C239 Eu234 2.852 . S
C239 C243 1.503 . S
C239 O256 1.273 . S
C239 O257 1.257 . S
C240 O238 1.255 . S
C240 O241 1.247 . S
O241 C240 1.247 . S
C242 O254 1.242 . S
C242 O255 1.258 . S
C243 C239 1.503 . S
C243 C244 1.379 . S
C243 C248 1.392 . S
C244 C243 1.379 . S
C244 C245 1.404 . S
C244 H258 0.929 . S
C245 C244 1.404 . S
C245 C246 1.389 . S
C246 C245 1.389 . S
C246 C247 1.399 . S
C246 H259 0.931 . S
C247 C246 1.399 . S
C247 C248 1.390 . S
C248 C243 1.392 . S
C248 C247 1.390 . S
C248 H260 0.929 . S
O249 Tb233 2.326 . S
O249 C237 1.242 . S
O250 Eu234 2.324 . S
O250 C237 1.258 . S
O251 Tb233 2.500 . S
O251 C253 1.273 . S
O252 Tb233 2.473 . S
O252 C253 1.257 . S
C253 O251 1.273 . S
C253 O252 1.257 . S
O254 Eu234 2.326 . S
O254 C242 1.242 . S
O255 Tb233 2.324 . S
O255 C242 1.258 . S
O256 Eu234 2.500 . S
O256 C239 1.273 . S
O257 Eu234 2.473 . S
O257 C239 1.257 . S
H258 C244 0.929 . S
H259 C246 0.931 . S
H260 C248 0.929 . S
O261 Tb262 2.292 . S
O261 C264 1.255 . S
Tb262 O261 2.292 . S
Tb262 O278 2.326 . S
Tb262 O280 2.500 . S
Tb262 O281 2.473 . S
Tb262 O284 2.324 . S
Eu263 O267 2.292 . S
Eu263 C268 2.852 . S
Eu263 O279 2.324 . S
Eu263 O283 2.326 . S
Eu263 O285 2.500 . S
Eu263 O286 2.473 . S
C264 O261 1.255 . S
C264 O265 1.247 . S
O265 C264 1.247 . S
C266 O278 1.242 . S
C266 O279 1.258 . S
O267 Eu263 2.292 . S
O267 C269 1.255 . S
C268 Eu263 2.852 . S
C268 C272 1.503 . S
C268 O285 1.273 . S
C268 O286 1.257 . S
C269 O267 1.255 . S
C269 O270 1.247 . S
O270 C269 1.247 . S
C271 O283 1.242 . S
C271 O284 1.258 . S
C272 C268 1.503 . S
C272 C273 1.379 . S
C272 C277 1.392 . S
C273 C272 1.379 . S
C273 C274 1.404 . S
C273 H287 0.929 . S
C274 C273 1.404 . S
C274 C275 1.389 . S
C275 C274 1.389 . S
C275 C276 1.399 . S
C275 H288 0.931 . S
C276 C275 1.399 . S
C276 C277 1.390 . S
C277 C272 1.392 . S
C277 C276 1.390 . S
C277 H289 0.929 . S
O278 Tb262 2.326 . S
O278 C266 1.242 . S
O279 Eu263 2.324 . S
O279 C266 1.258 . S
O280 Tb262 2.500 . S
O280 C282 1.273 . S
O281 Tb262 2.473 . S
O281 C282 1.257 . S
C282 O280 1.273 . S
C282 O281 1.257 . S
O283 Eu263 2.326 . S
O283 C271 1.242 . S
O284 Tb262 2.324 . S
O284 C271 1.258 . S
O285 Eu263 2.500 . S
O285 C268 1.273 . S
O286 Eu263 2.473 . S
O286 C268 1.257 . S
H287 C273 0.929 . S
H288 C275 0.931 . S
H289 C277 0.929 . S
O290 Tb291 2.292 . S
O290 C293 1.255 . S
Tb291 O290 2.292 . S
Tb291 O307 2.326 . S
Tb291 O309 2.500 . S
Tb291 O310 2.473 . S
Tb291 O313 2.324 . S
Eu292 O296 2.292 . S
Eu292 C297 2.852 . S
Eu292 O308 2.324 . S
Eu292 O312 2.326 . S
Eu292 O314 2.500 . S
Eu292 O315 2.473 . S
C293 O290 1.255 . S
C293 O294 1.247 . S
O294 C293 1.247 . S
C295 O307 1.242 . S
C295 O308 1.258 . S
O296 Eu292 2.292 . S
O296 C298 1.255 . S
C297 Eu292 2.852 . S
C297 C301 1.503 . S
C297 O314 1.273 . S
C297 O315 1.257 . S
C298 O296 1.255 . S
C298 O299 1.247 . S
O299 C298 1.247 . S
C300 O312 1.242 . S
C300 O313 1.258 . S
C301 C297 1.503 . S
C301 C302 1.379 . S
C301 C306 1.392 . S
C302 C301 1.379 . S
C302 C303 1.404 . S
C302 H316 0.929 . S
C303 C302 1.404 . S
C303 C304 1.389 . S
C304 C303 1.389 . S
C304 C305 1.399 . S
C304 H317 0.931 . S
C305 C304 1.399 . S
C305 C306 1.390 . S
C306 C301 1.392 . S
C306 C305 1.390 . S
C306 H318 0.929 . S
O307 Tb291 2.326 . S
O307 C295 1.242 . S
O308 Eu292 2.324 . S
O308 C295 1.258 . S
O309 Tb291 2.500 . S
O309 C311 1.273 . S
O310 Tb291 2.473 . S
O310 C311 1.257 . S
C311 O309 1.273 . S
C311 O310 1.257 . S
O312 Eu292 2.326 . S
O312 C300 1.242 . S
O313 Tb291 2.324 . S
O313 C300 1.258 . S
O314 Eu292 2.500 . S
O314 C297 1.273 . S
O315 Eu292 2.473 . S
O315 C297 1.257 . S
H316 C302 0.929 . S
H317 C304 0.931 . S
H318 C306 0.929 . S
O319 Tb320 2.292 . S
O319 C322 1.255 . S
Tb320 O319 2.292 . S
Tb320 O336 2.326 . S
Tb320 O338 2.500 . S
Tb320 O339 2.473 . S
Tb320 O342 2.324 . S
Eu321 O325 2.292 . S
Eu321 C326 2.852 . S
Eu321 O337 2.324 . S
Eu321 O341 2.326 . S
Eu321 O343 2.500 . S
Eu321 O344 2.473 . S
C322 O319 1.255 . S
C322 O323 1.247 . S
O323 C322 1.247 . S
C324 O336 1.242 . S
C324 O337 1.258 . S
O325 Eu321 2.292 . S
O325 C327 1.255 . S
C326 Eu321 2.852 . S
C326 C330 1.503 . S
C326 O343 1.273 . S
C326 O344 1.257 . S
C327 O325 1.255 . S
C327 O328 1.247 . S
O328 C327 1.247 . S
C329 O341 1.242 . S
C329 O342 1.258 . S
C330 C326 1.503 . S
C330 C331 1.379 . S
C330 C335 1.392 . S
C331 C330 1.379 . S
C331 C332 1.404 . S
C331 H345 0.929 . S
C332 C331 1.404 . S
C332 C333 1.389 . S
C333 C332 1.389 . S
C333 C334 1.399 . S
C333 H346 0.931 . S
C334 C333 1.399 . S
C334 C335 1.390 . S
C335 C330 1.392 . S
C335 C334 1.390 . S
C335 H347 0.929 . S
O336 Tb320 2.326 . S
O336 C324 1.242 . S
O337 Eu321 2.324 . S
O337 C324 1.258 . S
O338 Tb320 2.500 . S
O338 C340 1.273 . S
O339 Tb320 2.473 . S
O339 C340 1.257 . S
C340 O338 1.273 . S
C340 O339 1.257 . S
O341 Eu321 2.326 . S
O341 C329 1.242 . S
O342 Tb320 2.324 . S
O342 C329 1.258 . S
O343 Eu321 2.500 . S
O343 C326 1.273 . S
O344 Eu321 2.473 . S
O344 C326 1.257 . S
H345 C331 0.929 . S
H346 C333 0.931 . S
H347 C335 0.929 . S
O348 Tb349 2.292 . S
O348 C351 1.255 . S
Tb349 O348 2.292 . S
Tb349 O365 2.326 . S
Tb349 O367 2.500 . S
Tb349 O368 2.473 . S
Tb349 O371 2.324 . S
Eu350 O354 2.292 . S
Eu350 C355 2.852 . S
Eu350 O366 2.324 . S
Eu350 O370 2.326 . S
Eu350 O372 2.500 . S
Eu350 O373 2.473 . S
C351 O348 1.255 . S
C351 O352 1.247 . S
O352 C351 1.247 . S
C353 O365 1.242 . S
C353 O366 1.258 . S
O354 Eu350 2.292 . S
O354 C356 1.255 . S
C355 Eu350 2.852 . S
C355 C359 1.503 . S
C355 O372 1.273 . S
C355 O373 1.257 . S
C356 O354 1.255 . S
C356 O357 1.247 . S
O357 C356 1.247 . S
C358 O370 1.242 . S
C358 O371 1.258 . S
C359 C355 1.503 . S
C359 C360 1.379 . S
C359 C364 1.392 . S
C360 C359 1.379 . S
C360 C361 1.404 . S
C360 H374 0.929 . S
C361 C360 1.404 . S
C361 C362 1.389 . S
C362 C361 1.389 . S
C362 C363 1.399 . S
C362 H375 0.931 . S
C363 C362 1.399 . S
C363 C364 1.390 . S
C364 C359 1.392 . S
C364 C363 1.390 . S
C364 H376 0.929 . S
O365 Tb349 2.326 . S
O365 C353 1.242 . S
O366 Eu350 2.324 . S
O366 C353 1.258 . S
O367 Tb349 2.500 . S
O367 C369 1.273 . S
O368 Tb349 2.473 . S
O368 C369 1.257 . S
C369 O367 1.273 . S
C369 O368 1.257 . S
O370 Eu350 2.326 . S
O370 C358 1.242 . S
O371 Tb349 2.324 . S
O371 C358 1.258 . S
O372 Eu350 2.500 . S
O372 C355 1.273 . S
O373 Eu350 2.473 . S
O373 C355 1.257 . S
H374 C360 0.929 . S
H375 C362 0.931 . S
H376 C364 0.929 . S
O377 Tb378 2.292 . S
O377 C380 1.255 . S
Tb378 O377 2.292 . S
Tb378 O394 2.326 . S
Tb378 O396 2.500 . S
Tb378 O397 2.473 . S
Tb378 O400 2.324 . S
Eu379 O383 2.292 . S
Eu379 C384 2.852 . S
Eu379 O395 2.324 . S
Eu379 O399 2.326 . S
Eu379 O401 2.500 . S
Eu379 O402 2.473 . S
C380 O377 1.255 . S
C380 O381 1.247 . S
O381 C380 1.247 . S
C382 O394 1.242 . S
C382 O395 1.258 . S
O383 Eu379 2.292 . S
O383 C385 1.255 . S
C384 Eu379 2.852 . S
C384 C388 1.503 . S
C384 O401 1.273 . S
C384 O402 1.257 . S
C385 O383 1.255 . S
C385 O386 1.247 . S
O386 C385 1.247 . S
C387 O399 1.242 . S
C387 O400 1.258 . S
C388 C384 1.503 . S
C388 C389 1.379 . S
C388 C393 1.392 . S
C389 C388 1.379 . S
C389 C390 1.404 . S
C389 H403 0.929 . S
C390 C389 1.404 . S
C390 C391 1.389 . S
C391 C390 1.389 . S
C391 C392 1.399 . S
C391 H404 0.931 . S
C392 C391 1.399 . S
C392 C393 1.390 . S
C393 C388 1.392 . S
C393 C392 1.390 . S
C393 H405 0.929 . S
O394 Tb378 2.326 . S
O394 C382 1.242 . S
O395 Eu379 2.324 . S
O395 C382 1.258 . S
O396 Tb378 2.500 . S
O396 C398 1.273 . S
O397 Tb378 2.473 . S
O397 C398 1.257 . S
C398 O396 1.273 . S
C398 O397 1.257 . S
O399 Eu379 2.326 . S
O399 C387 1.242 . S
O400 Tb378 2.324 . S
O400 C387 1.258 . S
O401 Eu379 2.500 . S
O401 C384 1.273 . S
O402 Eu379 2.473 . S
O402 C384 1.257 . S
H403 C389 0.929 . S
H404 C391 0.931 . S
H405 C393 0.929 . S
O406 Tb407 2.292 . S
O406 C409 1.255 . S
Tb407 O406 2.292 . S
Tb407 O423 2.326 . S
Tb407 O425 2.500 . S
Tb407 O426 2.473 . S
Tb407 O429 2.324 . S
Eu408 O412 2.292 . S
Eu408 C413 2.852 . S
Eu408 O424 2.324 . S
Eu408 O428 2.326 . S
Eu408 O430 2.500 . S
Eu408 O431 2.473 . S
C409 O406 1.255 . S
C409 O410 1.247 . S
O410 C409 1.247 . S
C411 O423 1.242 . S
C411 O424 1.258 . S
O412 Eu408 2.292 . S
O412 C414 1.255 . S
C413 Eu408 2.852 . S
C413 C417 1.503 . S
C413 O430 1.273 . S
C413 O431 1.257 . S
C414 O412 1.255 . S
C414 O415 1.247 . S
O415 C414 1.247 . S
C416 O428 1.242 . S
C416 O429 1.258 . S
C417 C413 1.503 . S
C417 C418 1.379 . S
C417 C422 1.392 . S
C418 C417 1.379 . S
C418 C419 1.404 . S
C418 H432 0.929 . S
C419 C418 1.404 . S
C419 C420 1.389 . S
C420 C419 1.389 . S
C420 C421 1.399 . S
C420 H433 0.931 . S
C421 C420 1.399 . S
C421 C422 1.390 . S
C422 C417 1.392 . S
C422 C421 1.390 . S
C422 H434 0.929 . S
O423 Tb407 2.326 . S
O423 C411 1.242 . S
O424 Eu408 2.324 . S
O424 C411 1.258 . S
O425 Tb407 2.500 . S
O425 C427 1.273 . S
O426 Tb407 2.473 . S
O426 C427 1.257 . S
C427 O425 1.273 . S
C427 O426 1.257 . S
O428 Eu408 2.326 . S
O428 C416 1.242 . S
O429 Tb407 2.324 . S
O429 C416 1.258 . S
O430 Eu408 2.500 . S
O430 C413 1.273 . S
O431 Eu408 2.473 . S
O431 C413 1.257 . S
H432 C418 0.929 . S
H433 C420 0.931 . S
H434 C422 0.929 . S
O435 Tb436 2.292 . S
O435 C438 1.255 . S
Tb436 O435 2.292 . S
Tb436 O452 2.326 . S
Tb436 O454 2.500 . S
Tb436 O455 2.473 . S
Tb436 O458 2.324 . S
Eu437 O441 2.292 . S
Eu437 C442 2.852 . S
Eu437 O453 2.324 . S
Eu437 O457 2.326 . S
Eu437 O459 2.500 . S
Eu437 O460 2.473 . S
C438 O435 1.255 . S
C438 O439 1.247 . S
O439 C438 1.247 . S
C440 O452 1.242 . S
C440 O453 1.258 . S
O441 Eu437 2.292 . S
O441 C443 1.255 . S
C442 Eu437 2.852 . S
C442 C446 1.503 . S
C442 O459 1.273 . S
C442 O460 1.257 . S
C443 O441 1.255 . S
C443 O444 1.247 . S
O444 C443 1.247 . S
C445 O457 1.242 . S
C445 O458 1.258 . S
C446 C442 1.503 . S
C446 C447 1.379 . S
C446 C451 1.392 . S
C447 C446 1.379 . S
C447 C448 1.404 . S
C447 H461 0.929 . S
C448 C447 1.404 . S
C448 C449 1.389 . S
C449 C448 1.389 . S
C449 C450 1.399 . S
C449 H462 0.931 . S
C450 C449 1.399 . S
C450 C451 1.390 . S
C451 C446 1.392 . S
C451 C450 1.390 . S
C451 H463 0.929 . S
O452 Tb436 2.326 . S
O452 C440 1.242 . S
O453 Eu437 2.324 . S
O453 C440 1.258 . S
O454 Tb436 2.500 . S
O454 C456 1.273 . S
O455 Tb436 2.473 . S
O455 C456 1.257 . S
C456 O454 1.273 . S
C456 O455 1.257 . S
O457 Eu437 2.326 . S
O457 C445 1.242 . S
O458 Tb436 2.324 . S
O458 C445 1.258 . S
O459 Eu437 2.500 . S
O459 C442 1.273 . S
O460 Eu437 2.473 . S
O460 C442 1.257 . S
H461 C447 0.929 . S
H462 C449 0.931 . S
H463 C451 0.929 . S
O464 Tb465 2.292 . S
O464 C467 1.255 . S
Tb465 O464 2.292 . S
Tb465 O481 2.326 . S
Tb465 O483 2.500 . S
Tb465 O484 2.473 . S
Tb465 O487 2.324 . S
Eu466 O470 2.292 . S
Eu466 C471 2.852 . S
Eu466 O482 2.324 . S
Eu466 O486 2.326 . S
Eu466 O488 2.500 . S
Eu466 O489 2.473 . S
C467 O464 1.255 . S
C467 O468 1.247 . S
O468 C467 1.247 . S
C469 O481 1.242 . S
C469 O482 1.258 . S
O470 Eu466 2.292 . S
O470 C472 1.255 . S
C471 Eu466 2.852 . S
C471 C475 1.503 . S
C471 O488 1.273 . S
C471 O489 1.257 . S
C472 O470 1.255 . S
C472 O473 1.247 . S
O473 C472 1.247 . S
C474 O486 1.242 . S
C474 O487 1.258 . S
C475 C471 1.503 . S
C475 C476 1.379 . S
C475 C480 1.392 . S
C476 C475 1.379 . S
C476 C477 1.404 . S
C476 H490 0.929 . S
C477 C476 1.404 . S
C477 C478 1.389 . S
C478 C477 1.389 . S
C478 C479 1.399 . S
C478 H491 0.931 . S
C479 C478 1.399 . S
C479 C480 1.390 . S
C480 C475 1.392 . S
C480 C479 1.390 . S
C480 H492 0.929 . S
O481 Tb465 2.326 . S
O481 C469 1.242 . S
O482 Eu466 2.324 . S
O482 C469 1.258 . S
O483 Tb465 2.500 . S
O483 C485 1.273 . S
O484 Tb465 2.473 . S
O484 C485 1.257 . S
C485 O483 1.273 . S
C485 O484 1.257 . S
O486 Eu466 2.326 . S
O486 C474 1.242 . S
O487 Tb465 2.324 . S
O487 C474 1.258 . S
O488 Eu466 2.500 . S
O488 C471 1.273 . S
O489 Eu466 2.473 . S
O489 C471 1.257 . S
H490 C476 0.929 . S
H491 C478 0.931 . S
H492 C480 0.929 . S
O493 Tb494 2.292 . S
O493 C496 1.255 . S
Tb494 O493 2.292 . S
Tb494 O510 2.326 . S
Tb494 O512 2.500 . S
Tb494 O513 2.473 . S
Tb494 O516 2.324 . S
Eu495 O499 2.292 . S
Eu495 C500 2.852 . S
Eu495 O511 2.324 . S
Eu495 O515 2.326 . S
Eu495 O517 2.500 . S
Eu495 O518 2.473 . S
C496 O493 1.255 . S
C496 O497 1.247 . S
O497 C496 1.247 . S
C498 O510 1.242 . S
C498 O511 1.258 . S
O499 Eu495 2.292 . S
O499 C501 1.255 . S
C500 Eu495 2.852 . S
C500 C504 1.503 . S
C500 O517 1.273 . S
C500 O518 1.257 . S
C501 O499 1.255 . S
C501 O502 1.247 . S
O502 C501 1.247 . S
C503 O515 1.242 . S
C503 O516 1.258 . S
C504 C500 1.503 . S
C504 C505 1.379 . S
C504 C509 1.392 . S
C505 C504 1.379 . S
C505 C506 1.404 . S
C505 H519 0.929 . S
C506 C505 1.404 . S
C506 C507 1.389 . S
C507 C506 1.389 . S
C507 C508 1.399 . S
C507 H520 0.931 . S
C508 C507 1.399 . S
C508 C509 1.390 . S
C509 C504 1.392 . S
C509 C508 1.390 . S
C509 H521 0.929 . S
O510 Tb494 2.326 . S
O510 C498 1.242 . S
O511 Eu495 2.324 . S
O511 C498 1.258 . S
O512 Tb494 2.500 . S
O512 C514 1.273 . S
O513 Tb494 2.473 . S
O513 C514 1.257 . S
C514 O512 1.273 . S
C514 O513 1.257 . S
O515 Eu495 2.326 . S
O515 C503 1.242 . S
O516 Tb494 2.324 . S
O516 C503 1.258 . S
O517 Eu495 2.500 . S
O517 C500 1.273 . S
O518 Eu495 2.473 . S
O518 C500 1.257 . S
H519 C505 0.929 . S
H520 C507 0.931 . S
H521 C509 0.929 . S
O522 Tb523 2.292 . S
O522 C525 1.255 . S
Tb523 O522 2.292 . S
Tb523 O539 2.326 . S
Tb523 O541 2.500 . S
Tb523 O542 2.473 . S
Tb523 O545 2.324 . S
Eu524 O528 2.292 . S
Eu524 C529 2.852 . S
Eu524 O540 2.324 . S
Eu524 O544 2.326 . S
Eu524 O546 2.500 . S
Eu524 O547 2.473 . S
C525 O522 1.255 . S
C525 O526 1.247 . S
O526 C525 1.247 . S
C527 O539 1.242 . S
C527 O540 1.258 . S
O528 Eu524 2.292 . S
O528 C530 1.255 . S
C529 Eu524 2.852 . S
C529 C533 1.503 . S
C529 O546 1.273 . S
C529 O547 1.257 . S
C530 O528 1.255 . S
C530 O531 1.247 . S
O531 C530 1.247 . S
C532 O544 1.242 . S
C532 O545 1.258 . S
C533 C529 1.503 . S
C533 C534 1.379 . S
C533 C538 1.392 . S
C534 C533 1.379 . S
C534 C535 1.404 . S
C534 H548 0.929 . S
C535 C534 1.404 . S
C535 C536 1.389 . S
C536 C535 1.389 . S
C536 C537 1.399 . S
C536 H549 0.931 . S
C537 C536 1.399 . S
C537 C538 1.390 . S
C538 C533 1.392 . S
C538 C537 1.390 . S
C538 H550 0.929 . S
O539 Tb523 2.326 . S
O539 C527 1.242 . S
O540 Eu524 2.324 . S
O540 C527 1.258 . S
O541 Tb523 2.500 . S
O541 C543 1.273 . S
O542 Tb523 2.473 . S
O542 C543 1.257 . S
C543 O541 1.273 . S
C543 O542 1.257 . S
O544 Eu524 2.326 . S
O544 C532 1.242 . S
O545 Tb523 2.324 . S
O545 C532 1.258 . S
O546 Eu524 2.500 . S
O546 C529 1.273 . S
O547 Eu524 2.473 . S
O547 C529 1.257 . S
H548 C534 0.929 . S
H549 C536 0.931 . S
H550 C538 0.929 . S
O551 Tb552 2.292 . S
O551 C554 1.255 . S
Tb552 O551 2.292 . S
Tb552 O568 2.326 . S
Tb552 O570 2.500 . S
Tb552 O571 2.473 . S
Tb552 O574 2.324 . S
Eu553 O557 2.292 . S
Eu553 C558 2.852 . S
Eu553 O569 2.324 . S
Eu553 O573 2.326 . S
Eu553 O575 2.500 . S
Eu553 O576 2.473 . S
C554 O551 1.255 . S
C554 O555 1.247 . S
O555 C554 1.247 . S
C556 O568 1.242 . S
C556 O569 1.258 . S
O557 Eu553 2.292 . S
O557 C559 1.255 . S
C558 Eu553 2.852 . S
C558 C562 1.503 . S
C558 O575 1.273 . S
C558 O576 1.257 . S
C559 O557 1.255 . S
C559 O560 1.247 . S
O560 C559 1.247 . S
C561 O573 1.242 . S
C561 O574 1.258 . S
C562 C558 1.503 . S
C562 C563 1.379 . S
C562 C567 1.392 . S
C563 C562 1.379 . S
C563 C564 1.404 . S
C563 H577 0.929 . S
C564 C563 1.404 . S
C564 C565 1.389 . S
C565 C564 1.389 . S
C565 C566 1.399 . S
C565 H578 0.931 . S
C566 C565 1.399 . S
C566 C567 1.390 . S
C567 C562 1.392 . S
C567 C566 1.390 . S
C567 H579 0.929 . S
O568 Tb552 2.326 . S
O568 C556 1.242 . S
O569 Eu553 2.324 . S
O569 C556 1.258 . S
O570 Tb552 2.500 . S
O570 C572 1.273 . S
O571 Tb552 2.473 . S
O571 C572 1.257 . S
C572 O570 1.273 . S
C572 O571 1.257 . S
O573 Eu553 2.326 . S
O573 C561 1.242 . S
O574 Tb552 2.324 . S
O574 C561 1.258 . S
O575 Eu553 2.500 . S
O575 C558 1.273 . S
O576 Eu553 2.473 . S
O576 C558 1.257 . S
H577 C563 0.929 . S
H578 C565 0.931 . S
H579 C567 0.929 . S
O580 Tb581 2.292 . S
O580 C583 1.255 . S
Tb581 O580 2.292 . S
Tb581 O597 2.326 . S
Tb581 O599 2.500 . S
Tb581 O600 2.473 . S
Tb581 O603 2.324 . S
Eu582 O586 2.292 . S
Eu582 C587 2.852 . S
Eu582 O598 2.324 . S
Eu582 O602 2.326 . S
Eu582 O604 2.500 . S
Eu582 O605 2.473 . S
C583 O580 1.255 . S
C583 O584 1.247 . S
O584 C583 1.247 . S
C585 O597 1.242 . S
C585 O598 1.258 . S
O586 Eu582 2.292 . S
O586 C588 1.255 . S
C587 Eu582 2.852 . S
C587 C591 1.503 . S
C587 O604 1.273 . S
C587 O605 1.257 . S
C588 O586 1.255 . S
C588 O589 1.247 . S
O589 C588 1.247 . S
C590 O602 1.242 . S
C590 O603 1.258 . S
C591 C587 1.503 . S
C591 C592 1.379 . S
C591 C596 1.392 . S
C592 C591 1.379 . S
C592 C593 1.404 . S
C592 H606 0.929 . S
C593 C592 1.404 . S
C593 C594 1.389 . S
C594 C593 1.389 . S
C594 C595 1.399 . S
C594 H607 0.931 . S
C595 C594 1.399 . S
C595 C596 1.390 . S
C596 C591 1.392 . S
C596 C595 1.390 . S
C596 H608 0.929 . S
O597 Tb581 2.326 . S
O597 C585 1.242 . S
O598 Eu582 2.324 . S
O598 C585 1.258 . S
O599 Tb581 2.500 . S
O599 C601 1.273 . S
O600 Tb581 2.473 . S
O600 C601 1.257 . S
C601 O599 1.273 . S
C601 O600 1.257 . S
O602 Eu582 2.326 . S
O602 C590 1.242 . S
O603 Tb581 2.324 . S
O603 C590 1.258 . S
O604 Eu582 2.500 . S
O604 C587 1.273 . S
O605 Eu582 2.473 . S
O605 C587 1.257 . S
H606 C592 0.929 . S
H607 C594 0.931 . S
H608 C596 0.929 . S
O609 Tb610 2.292 . S
O609 C612 1.255 . S
Tb610 O609 2.292 . S
Tb610 O626 2.326 . S
Tb610 O628 2.500 . S
Tb610 O629 2.473 . S
Tb610 O632 2.324 . S
Eu611 O615 2.292 . S
Eu611 C616 2.852 . S
Eu611 O627 2.324 . S
Eu611 O631 2.326 . S
Eu611 O633 2.500 . S
Eu611 O634 2.473 . S
C612 O609 1.255 . S
C612 O613 1.247 . S
O613 C612 1.247 . S
C614 O626 1.242 . S
C614 O627 1.258 . S
O615 Eu611 2.292 . S
O615 C617 1.255 . S
C616 Eu611 2.852 . S
C616 C620 1.503 . S
C616 O633 1.273 . S
C616 O634 1.257 . S
C617 O615 1.255 . S
C617 O618 1.247 . S
O618 C617 1.247 . S
C619 O631 1.242 . S
C619 O632 1.258 . S
C620 C616 1.503 . S
C620 C621 1.379 . S
C620 C625 1.392 . S
C621 C620 1.379 . S
C621 C622 1.404 . S
C621 H635 0.929 . S
C622 C621 1.404 . S
C622 C623 1.389 . S
C623 C622 1.389 . S
C623 C624 1.399 . S
C623 H636 0.931 . S
C624 C623 1.399 . S
C624 C625 1.390 . S
C625 C620 1.392 . S
C625 C624 1.390 . S
C625 H637 0.929 . S
O626 Tb610 2.326 . S
O626 C614 1.242 . S
O627 Eu611 2.324 . S
O627 C614 1.258 . S
O628 Tb610 2.500 . S
O628 C630 1.273 . S
O629 Tb610 2.473 . S
O629 C630 1.257 . S
C630 O628 1.273 . S
C630 O629 1.257 . S
O631 Eu611 2.326 . S
O631 C619 1.242 . S
O632 Tb610 2.324 . S
O632 C619 1.258 . S
O633 Eu611 2.500 . S
O633 C616 1.273 . S
O634 Eu611 2.473 . S
O634 C616 1.257 . S
H635 C621 0.929 . S
H636 C623 0.931 . S
H637 C625 0.929 . S
O638 Tb639 2.292 . S
O638 C641 1.255 . S
Tb639 O638 2.292 . S
Tb639 O655 2.326 . S
Tb639 O657 2.500 . S
Tb639 O658 2.473 . S
Tb639 O661 2.324 . S
Eu640 O644 2.292 . S
Eu640 C645 2.852 . S
Eu640 O656 2.324 . S
Eu640 O660 2.326 . S
Eu640 O662 2.500 . S
Eu640 O663 2.473 . S
C641 O638 1.255 . S
C641 O642 1.247 . S
O642 C641 1.247 . S
C643 O655 1.242 . S
C643 O656 1.258 . S
O644 Eu640 2.292 . S
O644 C646 1.255 . S
C645 Eu640 2.852 . S
C645 C649 1.503 . S
C645 O662 1.273 . S
C645 O663 1.257 . S
C646 O644 1.255 . S
C646 O647 1.247 . S
O647 C646 1.247 . S
C648 O660 1.242 . S
C648 O661 1.258 . S
C649 C645 1.503 . S
C649 C650 1.379 . S
C649 C654 1.392 . S
C650 C649 1.379 . S
C650 C651 1.404 . S
C650 H664 0.929 . S
C651 C650 1.404 . S
C651 C652 1.389 . S
C652 C651 1.389 . S
C652 C653 1.399 . S
C652 H665 0.931 . S
C653 C652 1.399 . S
C653 C654 1.390 . S
C654 C649 1.392 . S
C654 C653 1.390 . S
C654 H666 0.929 . S
O655 Tb639 2.326 . S
O655 C643 1.242 . S
O656 Eu640 2.324 . S
O656 C643 1.258 . S
O657 Tb639 2.500 . S
O657 C659 1.273 . S
O658 Tb639 2.473 . S
O658 C659 1.257 . S
C659 O657 1.273 . S
C659 O658 1.257 . S
O660 Eu640 2.326 . S
O660 C648 1.242 . S
O661 Tb639 2.324 . S
O661 C648 1.258 . S
O662 Eu640 2.500 . S
O662 C645 1.273 . S
O663 Eu640 2.473 . S
O663 C645 1.257 . S
H664 C650 0.929 . S
H665 C652 0.931 . S
H666 C654 0.929 . S
O667 Tb668 2.292 . S
O667 C670 1.255 . S
Tb668 O667 2.292 . S
Tb668 O684 2.326 . S
Tb668 O686 2.500 . S
Tb668 O687 2.473 . S
Tb668 O690 2.324 . S
Eu669 O673 2.292 . S
Eu669 C674 2.852 . S
Eu669 O685 2.324 . S
Eu669 O689 2.326 . S
Eu669 O691 2.500 . S
Eu669 O692 2.473 . S
C670 O667 1.255 . S
C670 O671 1.247 . S
O671 C670 1.247 . S
C672 O684 1.242 . S
C672 O685 1.258 . S
O673 Eu669 2.292 . S
O673 C675 1.255 . S
C674 Eu669 2.852 . S
C674 C678 1.503 . S
C674 O691 1.273 . S
C674 O692 1.257 . S
C675 O673 1.255 . S
C675 O676 1.247 . S
O676 C675 1.247 . S
C677 O689 1.242 . S
C677 O690 1.258 . S
C678 C674 1.503 . S
C678 C679 1.379 . S
C678 C683 1.392 . S
C679 C678 1.379 . S
C679 C680 1.404 . S
C679 H693 0.929 . S
C680 C679 1.404 . S
C680 C681 1.389 . S
C681 C680 1.389 . S
C681 C682 1.399 . S
C681 H694 0.931 . S
C682 C681 1.399 . S
C682 C683 1.390 . S
C683 C678 1.392 . S
C683 C682 1.390 . S
C683 H695 0.929 . S
O684 Tb668 2.326 . S
O684 C672 1.242 . S
O685 Eu669 2.324 . S
O685 C672 1.258 . S
O686 Tb668 2.500 . S
O686 C688 1.273 . S
O687 Tb668 2.473 . S
O687 C688 1.257 . S
C688 O686 1.273 . S
C688 O687 1.257 . S
O689 Eu669 2.326 . S
O689 C677 1.242 . S
O690 Tb668 2.324 . S
O690 C677 1.258 . S
O691 Eu669 2.500 . S
O691 C674 1.273 . S
O692 Eu669 2.473 . S
O692 C674 1.257 . S
H693 C679 0.929 . S
H694 C681 0.931 . S
H695 C683 0.929 . S
H696 C702 0.930 . S
H697 C706 0.930 . S
H698 C711 0.929 . S
H699 C709 0.929 . S
H700 C704 0.929 . S
H701 C710 0.929 . S
C702 H696 0.930 . S
C702 C703 1.367 . S
C702 C710 1.378 1_545 S
C703 C702 1.367 . S
C703 C711 1.433 . S
C704 H700 0.929 . S
C704 C706 1.378 . S
C704 C708 1.350 . S
C705 C708 1.463 . S
C705 C710 1.350 . S
C705 N713 1.427 . S
C706 H697 0.930 . S
C706 C704 1.378 . S
C706 C707 1.367 . S
C707 C706 1.367 . S
C707 C709 1.433 . S
C708 C704 1.350 . S
C708 C705 1.463 . S
C708 N712 1.427 . S
C709 H699 0.929 . S
C709 C707 1.433 . S
C709 N712 1.384 . S
C710 H701 0.929 . S
C710 C702 1.378 1_565 S
C710 C705 1.350 . S
C711 H698 0.929 . S
C711 C703 1.433 . S
C711 N713 1.384 1_545 S
N712 C708 1.427 . S
N712 C709 1.384 . S
N713 C705 1.427 . S
N713 C711 1.384 1_565 S
H714 C720 0.930 . S
H715 C724 0.930 . S
H716 C729 0.929 . S
H717 C727 0.929 . S
H718 C722 0.929 . S
H719 C728 0.929 . S
C720 H714 0.930 . S
C720 C721 1.367 . S
C720 C728 1.378 . S
C721 C720 1.367 . S
C721 C729 1.433 . S
C722 H718 0.929 . S
C722 C724 1.378 . S
C722 C726 1.350 . S
C723 C726 1.463 . S
C723 C728 1.350 . S
C723 N731 1.427 . S
C724 H715 0.930 . S
C724 C722 1.378 . S
C724 C725 1.367 . S
C725 C724 1.367 . S
C725 C727 1.433 . S
C726 C722 1.350 . S
C726 C723 1.463 . S
C726 N730 1.427 . S
C727 H717 0.929 . S
C727 C725 1.433 . S
C727 N730 1.384 . S
C728 H719 0.929 . S
C728 C720 1.378 . S
C728 C723 1.350 . S
C729 H716 0.929 . S
C729 C721 1.433 . S
C729 N731 1.384 . S
N730 C726 1.427 . S
N730 C727 1.384 . S
N731 C723 1.427 . S
N731 C729 1.384 . S
H732 C738 0.930 . S
H733 C742 0.930 . S
H734 C747 0.929 . S
H735 C745 0.929 . S
H736 C740 0.929 . S
H737 C746 0.929 . S
C738 H732 0.930 . S
C738 C739 1.367 . S
C738 C746 1.378 1_655 S
C739 C738 1.367 . S
C739 C747 1.433 . S
C740 H736 0.929 . S
C740 C742 1.378 . S
C740 C744 1.350 . S
C741 C744 1.463 . S
C741 C746 1.350 . S
C741 N749 1.427 . S
C742 H733 0.930 . S
C742 C740 1.378 . S
C742 C743 1.367 . S
C743 C742 1.367 . S
C743 C745 1.433 . S
C744 C740 1.350 . S
C744 C741 1.463 . S
C744 N748 1.427 . S
C745 H735 0.929 . S
C745 C743 1.433 . S
C745 N748 1.384 . S
C746 H737 0.929 . S
C746 C738 1.378 1_455 S
C746 C741 1.350 . S
C747 H734 0.929 . S
C747 C739 1.433 . S
C747 N749 1.384 1_655 S
N748 C744 1.427 . S
N748 C745 1.384 . S
N749 C741 1.427 . S
N749 C747 1.384 1_455 S
H750 C756 0.930 . S
H751 C760 0.930 . S
H752 C765 0.929 . S
H753 C763 0.929 . S
H754 C758 0.929 . S
H755 C764 0.929 . S
C756 H750 0.930 . S
C756 C757 1.367 . S
C756 C764 1.378 . S
C757 C756 1.367 . S
C757 C765 1.433 . S
C758 H754 0.929 . S
C758 C760 1.378 1_545 S
C758 C762 1.350 . S
C759 C762 1.463 . S
C759 C764 1.350 . S
C759 N767 1.427 . S
C760 H751 0.930 . S
C760 C758 1.378 1_565 S
C760 C761 1.367 . S
C761 C760 1.367 . S
C761 C763 1.433 . S
C762 C758 1.350 . S
C762 C759 1.463 . S
C762 N766 1.427 . S
C763 H753 0.929 . S
C763 C761 1.433 . S
C763 N766 1.384 1_565 S
C764 H755 0.929 . S
C764 C756 1.378 . S
C764 C759 1.350 . S
C765 H752 0.929 . S
C765 C757 1.433 . S
C765 N767 1.384 . S
N766 C762 1.427 . S
N766 C763 1.384 1_545 S
N767 C759 1.427 . S
N767 C765 1.384 . S
H768 C774 0.930 . S
H769 C778 0.930 . S
H770 C783 0.929 . S
H771 C781 0.929 . S
H772 C776 0.929 . S
H773 C782 0.929 . S
C774 H768 0.930 . S
C774 C775 1.367 . S
C774 C782 1.378 . S
C775 C774 1.367 . S
C775 C783 1.433 . S
C776 H772 0.929 . S
C776 C778 1.378 . S
C776 C780 1.350 . S
C777 C780 1.463 . S
C777 C782 1.350 . S
C777 N785 1.427 . S
C778 H769 0.930 . S
C778 C776 1.378 . S
C778 C779 1.367 . S
C779 C778 1.367 . S
C779 C781 1.433 . S
C780 C776 1.350 . S
C780 C777 1.463 . S
C780 N784 1.427 . S
C781 H771 0.929 . S
C781 C779 1.433 . S
C781 N784 1.384 . S
C782 H773 0.929 . S
C782 C774 1.378 . S
C782 C777 1.350 . S
C783 H770 0.929 . S
C783 C775 1.433 . S
C783 N785 1.384 . S
N784 C780 1.427 . S
N784 C781 1.384 . S
N785 C777 1.427 . S
N785 C783 1.384 . S
H786 C792 0.930 . S
H787 C796 0.930 . S
H788 C801 0.929 . S
H789 C799 0.929 . S
H790 C794 0.929 . S
H791 C800 0.929 . S
C792 H786 0.930 . S
C792 C793 1.367 . S
C792 C800 1.378 1_455 S
C793 C792 1.367 . S
C793 C801 1.433 . S
C794 H790 0.929 . S
C794 C796 1.378 . S
C794 C798 1.350 . S
C795 C798 1.463 . S
C795 C800 1.350 . S
C795 N803 1.427 . S
C796 H787 0.930 . S
C796 C794 1.378 . S
C796 C797 1.367 . S
C797 C796 1.367 . S
C797 C799 1.433 . S
C798 C794 1.350 . S
C798 C795 1.463 . S
C798 N802 1.427 . S
C799 H789 0.929 . S
C799 C797 1.433 . S
C799 N802 1.384 . S
C800 H791 0.929 . S
C800 C792 1.378 1_655 S
C800 C795 1.350 . S
C801 H788 0.929 . S
C801 C793 1.433 . S
C801 N803 1.384 1_455 S
N802 C798 1.427 . S
N802 C799 1.384 . S
N803 C795 1.427 . S
N803 C801 1.384 1_655 S
H804 C810 0.930 . S
H805 C814 0.930 . S
H806 C819 0.929 . S
H807 C817 0.929 . S
H808 C812 0.929 . S
H809 C818 0.929 . S
C810 H804 0.930 . S
C810 C811 1.367 . S
C810 C818 1.378 . S
C811 C810 1.367 . S
C811 C819 1.433 . S
C812 H808 0.929 . S
C812 C814 1.378 1_455 S
C812 C816 1.350 . S
C813 C816 1.463 . S
C813 C818 1.350 . S
C813 N821 1.427 . S
C814 H805 0.930 . S
C814 C812 1.378 1_655 S
C814 C815 1.367 . S
C815 C814 1.367 . S
C815 C817 1.433 . S
C816 C812 1.350 . S
C816 C813 1.463 . S
C816 N820 1.427 . S
C817 H807 0.929 . S
C817 C815 1.433 . S
C817 N820 1.384 1_655 S
C818 H809 0.929 . S
C818 C810 1.378 . S
C818 C813 1.350 . S
C819 H806 0.929 . S
C819 C811 1.433 . S
C819 N821 1.384 . S
N820 C816 1.427 . S
N820 C817 1.384 1_455 S
N821 C813 1.427 . S
N821 C819 1.384 . S
H822 C828 0.930 . S
H823 C832 0.930 . S
H824 C837 0.929 . S
H825 C835 0.929 . S
H826 C830 0.929 . S
H827 C836 0.929 . S
C828 H822 0.930 . S
C828 C829 1.367 . S
C828 C836 1.378 . S
C829 C828 1.367 . S
C829 C837 1.433 . S
C830 H826 0.929 . S
C830 C832 1.378 1_545 S
C830 C834 1.350 . S
C831 C834 1.463 . S
C831 C836 1.350 . S
C831 N839 1.427 . S
C832 H823 0.930 . S
C832 C830 1.378 1_565 S
C832 C833 1.367 . S
C833 C832 1.367 . S
C833 C835 1.433 . S
C834 C830 1.350 . S
C834 C831 1.463 . S
C834 N838 1.427 . S
C835 H825 0.929 . S
C835 C833 1.433 . S
C835 N838 1.384 1_565 S
C836 H827 0.929 . S
C836 C828 1.378 . S
C836 C831 1.350 . S
C837 H824 0.929 . S
C837 C829 1.433 . S
C837 N839 1.384 . S
N838 C834 1.427 . S
N838 C835 1.384 1_545 S
N839 C831 1.427 . S
N839 C837 1.384 . S
H840 C846 0.930 . S
H841 C850 0.930 . S
H842 C855 0.929 . S
H843 C853 0.929 . S
H844 C848 0.929 . S
H845 C854 0.929 . S
C846 H840 0.930 . S
C846 C847 1.367 . S
C846 C854 1.378 . S
C847 C846 1.367 . S
C847 C855 1.433 . S
C848 H844 0.929 . S
C848 C850 1.378 . S
C848 C852 1.350 . S
C849 C852 1.463 . S
C849 C854 1.350 . S
C849 N857 1.427 . S
C850 H841 0.930 . S
C850 C848 1.378 . S
C850 C851 1.367 . S
C851 C850 1.367 . S
C851 C853 1.433 . S
C852 C848 1.350 . S
C852 C849 1.463 . S
C852 N856 1.427 . S
C853 H843 0.929 . S
C853 C851 1.433 . S
C853 N856 1.384 . S
C854 H845 0.929 . S
C854 C846 1.378 . S
C854 C849 1.350 . S
C855 H842 0.929 . S
C855 C847 1.433 . S
C855 N857 1.384 . S
N856 C852 1.427 . S
N856 C853 1.384 . S
N857 C849 1.427 . S
N857 C855 1.384 . S
H858 C864 0.930 . S
H859 C868 0.930 . S
H860 C873 0.929 . S
H861 C871 0.929 . S
H862 C866 0.929 . S
H863 C872 0.929 . S
C864 H858 0.930 . S
C864 C865 1.367 . S
C864 C872 1.378 1_455 S
C865 C864 1.367 . S
C865 C873 1.433 . S
C866 H862 0.929 . S
C866 C868 1.378 . S
C866 C870 1.350 . S
C867 C870 1.463 . S
C867 C872 1.350 . S
C867 N875 1.427 . S
C868 H859 0.930 . S
C868 C866 1.378 . S
C868 C869 1.367 . S
C869 C868 1.367 . S
C869 C871 1.433 . S
C870 C866 1.350 . S
C870 C867 1.463 . S
C870 N874 1.427 . S
C871 H861 0.929 . S
C871 C869 1.433 . S
C871 N874 1.384 . S
C872 H863 0.929 . S
C872 C864 1.378 1_655 S
C872 C867 1.350 . S
C873 H860 0.929 . S
C873 C865 1.433 . S
C873 N875 1.384 1_455 S
N874 C870 1.427 . S
N874 C871 1.384 . S
N875 C867 1.427 . S
N875 C873 1.384 1_655 S
H876 C882 0.930 . S
H877 C886 0.930 . S
H878 C891 0.929 . S
H879 C889 0.929 . S
H880 C884 0.929 . S
H881 C890 0.929 . S
C882 H876 0.930 . S
C882 C883 1.367 . S
C882 C890 1.378 . S
C883 C882 1.367 . S
C883 C891 1.433 . S
C884 H880 0.929 . S
C884 C886 1.378 1_565 S
C884 C888 1.350 . S
C885 C888 1.463 . S
C885 C890 1.350 . S
C885 N893 1.427 . S
C886 H877 0.930 . S
C886 C884 1.378 1_545 S
C886 C887 1.367 . S
C887 C886 1.367 . S
C887 C889 1.433 . S
C888 C884 1.350 . S
C888 C885 1.463 . S
C888 N892 1.427 . S
C889 H879 0.929 . S
C889 C887 1.433 . S
C889 N892 1.384 1_545 S
C890 H881 0.929 . S
C890 C882 1.378 . S
C890 C885 1.350 . S
C891 H878 0.929 . S
C891 C883 1.433 . S
C891 N893 1.384 . S
N892 C888 1.427 . S
N892 C889 1.384 1_565 S
N893 C885 1.427 . S
N893 C891 1.384 . S
H894 C900 0.930 . S
H895 C904 0.930 . S
H896 C909 0.929 . S
H897 C907 0.929 . S
H898 C902 0.929 . S
H899 C908 0.929 . S
C900 H894 0.930 . S
C900 C901 1.367 . S
C900 C908 1.378 . S
C901 C900 1.367 . S
C901 C909 1.433 . S
C902 H898 0.929 . S
C902 C904 1.378 . S
C902 C906 1.350 . S
C903 C906 1.463 . S
C903 C908 1.350 . S
C903 N911 1.427 . S
C904 H895 0.930 . S
C904 C902 1.378 . S
C904 C905 1.367 . S
C905 C904 1.367 . S
C905 C907 1.433 . S
C906 C902 1.350 . S
C906 C903 1.463 . S
C906 N910 1.427 . S
C907 H897 0.929 . S
C907 C905 1.433 . S
C907 N910 1.384 . S
C908 H899 0.929 . S
C908 C900 1.378 . S
C908 C903 1.350 . S
C909 H896 0.929 . S
C909 C901 1.433 . S
C909 N911 1.384 . S
N910 C906 1.427 . S
N910 C907 1.384 . S
N911 C903 1.427 . S
N911 C909 1.384 . S
H912 C918 0.930 . S
H913 C922 0.930 . S
H914 C927 0.929 . S
H915 C925 0.928 . S
H916 C920 0.929 . S
H917 C926 0.929 . S
C918 H912 0.930 . S
C918 C919 1.367 . S
C918 C926 1.378 . S
C919 C918 1.367 . S
C919 C927 1.433 . S
C920 H916 0.929 . S
C920 C922 1.378 1_545 S
C920 C924 1.350 . S
C921 C924 1.463 . S
C921 C926 1.350 . S
C921 N929 1.427 . S
C922 H913 0.930 . S
C922 C920 1.378 1_565 S
C922 C923 1.367 . S
C923 C922 1.367 . S
C923 C925 1.464 . S
C924 C920 1.350 . S
C924 C921 1.463 . S
C924 N928 1.427 . S
C925 H915 0.928 . S
C925 C923 1.464 . S
C925 N928 1.356 1_565 S
C926 H917 0.929 . S
C926 C918 1.378 . S
C926 C921 1.350 . S
C927 H914 0.929 . S
C927 C919 1.433 . S
C927 N929 1.384 . S
N928 C924 1.427 . S
N928 C925 1.356 1_545 S
N929 C921 1.427 . S
N929 C927 1.384 . S
H930 C936 0.930 . S
H931 C940 0.930 . S
H932 C945 0.929 . S
H933 C943 0.929 . S
H934 C938 0.929 . S
H935 C944 0.929 . S
C936 H930 0.930 . S
C936 C937 1.367 . S
C936 C944 1.378 . S
C937 C936 1.367 . S
C937 C945 1.433 . S
C938 H934 0.929 . S
C938 C940 1.378 . S
C938 C942 1.350 . S
C939 C942 1.463 . S
C939 C944 1.350 . S
C939 N947 1.427 . S
C940 H931 0.930 . S
C940 C938 1.378 . S
C940 C941 1.367 . S
C941 C940 1.367 . S
C941 C943 1.433 . S
C942 C938 1.350 . S
C942 C939 1.463 . S
C942 N946 1.427 . S
C943 H933 0.929 . S
C943 C941 1.433 . S
C943 N946 1.384 . S
C944 H935 0.929 . S
C944 C936 1.378 . S
C944 C939 1.350 . S
C945 H932 0.929 . S
C945 C937 1.433 . S
C945 N947 1.384 . S
N946 C942 1.427 . S
N946 C943 1.384 . S
N947 C939 1.427 . S
N947 C945 1.384 . S
H948 C954 0.930 . S
H949 C958 0.930 . S
H950 C963 0.929 . S
H951 C961 0.929 . S
H952 C956 0.929 . S
H953 C962 0.929 . S
C954 H948 0.930 . S
C954 C955 1.367 . S
C954 C962 1.378 1_455 S
C955 C954 1.367 . S
C955 C963 1.433 . S
C956 H952 0.929 . S
C956 C958 1.378 . S
C956 C960 1.350 . S
C957 C960 1.463 . S
C957 C962 1.350 . S
C957 N965 1.427 . S
C958 H949 0.930 . S
C958 C956 1.378 . S
C958 C959 1.367 . S
C959 C958 1.367 . S
C959 C961 1.433 . S
C960 C956 1.350 . S
C960 C957 1.463 . S
C960 N964 1.427 . S
C961 H951 0.929 . S
C961 C959 1.433 . S
C961 N964 1.384 . S
C962 H953 0.929 . S
C962 C954 1.378 1_655 S
C962 C957 1.350 . S
C963 H950 0.929 . S
C963 C955 1.433 . S
C963 N965 1.384 1_455 S
N964 C960 1.427 . S
N964 C961 1.384 . S
N965 C957 1.427 . S
N965 C963 1.384 1_655 S
H966 C972 0.930 . S
H967 C976 0.930 . S
H968 C981 0.929 . S
H969 C979 0.929 . S
H970 C974 0.929 . S
H971 C980 0.929 . S
C972 H966 0.930 . S
C972 C973 1.367 . S
C972 C980 1.378 1_545 S
C973 C972 1.367 . S
C973 C981 1.433 . S
C974 H970 0.929 . S
C974 C976 1.378 . S
C974 C978 1.350 . S
C975 C978 1.463 . S
C975 C980 1.350 . S
C975 N983 1.427 . S
C976 H967 0.930 . S
C976 C974 1.378 . S
C976 C977 1.367 . S
C977 C976 1.367 . S
C977 C979 1.433 . S
C978 C974 1.350 . S
C978 C975 1.463 . S
C978 N982 1.427 . S
C979 H969 0.929 . S
C979 C977 1.433 . S
C979 N982 1.384 . S
C980 H971 0.929 . S
C980 C972 1.378 1_565 S
C980 C975 1.350 . S
C981 H968 0.929 . S
C981 C973 1.433 . S
C981 N983 1.384 1_545 S
N982 C978 1.427 . S
N982 C979 1.384 . S
N983 C975 1.427 . S
N983 C981 1.384 1_565 S
H984 C990 0.930 . S
H985 C994 0.930 . S
H986 C999 0.929 . S
H987 C997 0.929 . S
H988 C992 0.929 . S
H989 C998 0.929 . S
C990 H984 0.930 . S
C990 C991 1.367 . S
C990 C998 1.378 . S
C991 C990 1.367 . S
C991 C999 1.433 . S
C992 H988 0.929 . S
C992 C994 1.378 . S
C992 C996 1.350 . S
C993 C996 1.463 . S
C993 C998 1.350 . S
C993 N1001 1.427 . S
C994 H985 0.930 . S
C994 C992 1.378 . S
C994 C995 1.367 . S
C995 C994 1.367 . S
C995 C997 1.433 . S
C996 C992 1.350 . S
C996 C993 1.463 . S
C996 N1000 1.427 . S
C997 H987 0.929 . S
C997 C995 1.433 . S
C997 N1000 1.384 . S
C998 H989 0.929 . S
C998 C990 1.378 . S
C998 C993 1.350 . S
C999 H986 0.929 . S
C999 C991 1.433 . S
C999 N1001 1.384 . S
N1000 C996 1.427 . S
N1000 C997 1.384 . S
N1001 C993 1.427 . S
N1001 C999 1.384 . S
H1002 C1008 0.930 . S
H1003 C1012 0.930 . S
H1004 C1017 0.929 . S
H1005 C1015 0.929 . S
H1006 C1010 0.929 . S
H1007 C1016 0.929 . S
C1008 H1002 0.930 . S
C1008 C1009 1.367 . S
C1008 C1016 1.378 1_655 S
C1009 C1008 1.367 . S
C1009 C1017 1.433 . S
C1010 H1006 0.929 . S
C1010 C1012 1.378 . S
C1010 C1014 1.350 . S
C1011 C1014 1.463 . S
C1011 C1016 1.350 . S
C1011 N1019 1.427 . S
C1012 H1003 0.930 . S
C1012 C1010 1.378 . S
C1012 C1013 1.367 . S
C1013 C1012 1.367 . S
C1013 C1015 1.433 . S
C1014 C1010 1.350 . S
C1014 C1011 1.463 . S
C1014 N1018 1.427 . S
C1015 H1005 0.929 . S
C1015 C1013 1.433 . S
C1015 N1018 1.384 . S
C1016 H1007 0.929 . S
C1016 C1008 1.378 1_455 S
C1016 C1011 1.350 . S
C1017 H1004 0.929 . S
C1017 C1009 1.433 . S
C1017 N1019 1.384 1_655 S
N1018 C1014 1.427 . S
N1018 C1015 1.384 . S
N1019 C1011 1.427 . S
N1019 C1017 1.384 1_455 S
H1020 C1026 0.930 . S
H1021 C1030 0.931 . S
H1022 C1035 0.929 . S
H1023 C1033 0.929 . S
H1024 C1028 0.929 . S
H1025 C1034 0.929 . S
C1026 H1020 0.930 . S
C1026 C1027 1.367 . S
C1026 C1034 1.378 . S
C1027 C1026 1.367 . S
C1027 C1035 1.433 . S
C1028 H1024 0.929 . S
C1028 C1030 1.348 1_655 S
C1028 C1032 1.350 . S
C1029 C1032 1.463 . S
C1029 C1034 1.350 . S
C1029 N1037 1.427 . S
C1030 H1021 0.931 . S
C1030 C1028 1.348 1_455 S
C1030 C1031 1.398 . S
C1031 C1030 1.398 . S
C1031 C1033 1.433 . S
C1032 C1028 1.350 . S
C1032 C1029 1.463 . S
C1032 N1036 1.427 . S
C1033 H1023 0.929 . S
C1033 C1031 1.433 . S
C1033 N1036 1.384 1_455 S
C1034 H1025 0.929 . S
C1034 C1026 1.378 . S
C1034 C1029 1.350 . S
C1035 H1022 0.929 . S
C1035 C1027 1.433 . S
C1035 N1037 1.384 . S
N1036 C1032 1.427 . S
N1036 C1033 1.384 1_655 S
N1037 C1029 1.427 . S
N1037 C1035 1.384 . S
H1038 C1044 0.930 . S
H1039 C1048 0.963 . S
H1040 C1053 0.929 . S
H1041 C1051 0.929 . S
H1042 C1046 0.929 . S
H1043 C1052 0.929 . S
C1044 H1038 0.930 . S
C1044 C1045 1.367 . S
C1044 C1052 1.378 . S
C1045 C1044 1.367 . S
C1045 C1053 1.433 . S
C1046 H1042 0.929 . S
C1046 C1048 1.340 1_565 S
C1046 C1050 1.350 . S
C1047 C1050 1.463 . S
C1047 C1052 1.350 . S
C1047 N1055 1.427 . S
C1048 H1039 0.963 . S
C1048 C1046 1.340 1_545 S
C1048 C1049 1.373 . S
C1049 C1048 1.373 . S
C1049 C1051 1.433 . S
C1050 C1046 1.350 . S
C1050 C1047 1.463 . S
C1050 N1054 1.427 . S
C1051 H1041 0.929 . S
C1051 C1049 1.433 . S
C1051 N1054 1.384 1_545 S
C1052 H1043 0.929 . S
C1052 C1044 1.378 . S
C1052 C1047 1.350 . S
C1053 H1040 0.929 . S
C1053 C1045 1.433 . S
C1053 N1055 1.384 . S
N1054 C1050 1.427 . S
N1054 C1051 1.384 1_565 S
N1055 C1047 1.427 . S
N1055 C1053 1.384 . S
H1056 C1062 0.930 . S
H1057 C1066 0.930 . S
H1058 C1071 0.929 . S
H1059 C1069 0.929 . S
H1060 C1064 0.929 . S
H1061 C1070 0.929 . S
C1062 H1056 0.930 . S
C1062 C1063 1.367 . S
C1062 C1070 1.378 . S
C1063 C1062 1.367 . S
C1063 C1071 1.433 . S
C1064 H1060 0.929 . S
C1064 C1066 1.378 . S
C1064 C1068 1.350 . S
C1065 C1068 1.463 . S
C1065 C1070 1.350 . S
C1065 N1073 1.427 . S
C1066 H1057 0.930 . S
C1066 C1064 1.378 . S
C1066 C1067 1.367 . S
C1067 C1066 1.367 . S
C1067 C1069 1.433 . S
C1068 C1064 1.350 . S
C1068 C1065 1.463 . S
C1068 N1072 1.427 . S
C1069 H1059 0.929 . S
C1069 C1067 1.433 . S
C1069 N1072 1.384 . S
C1070 H1061 0.929 . S
C1070 C1062 1.378 . S
C1070 C1065 1.350 . S
C1071 H1058 0.929 . S
C1071 C1063 1.433 . S
C1071 N1073 1.384 . S
N1072 C1068 1.427 . S
N1072 C1069 1.384 . S
N1073 C1065 1.427 . S
N1073 C1071 1.384 . S
H1074 C1080 0.927 . S
H1075 C1084 0.930 . S
H1076 C1089 0.929 . S
H1077 C1087 0.929 . S
H1078 C1082 0.929 . S
H1079 C1088 0.929 . S
C1080 H1074 0.927 . S
C1080 C1081 1.395 . S
C1080 C1088 1.353 1_655 S
C1081 C1080 1.395 . S
C1081 C1089 1.433 . S
C1082 H1078 0.929 . S
C1082 C1084 1.378 . S
C1082 C1086 1.350 . S
C1083 C1086 1.463 . S
C1083 C1088 1.350 . S
C1083 N1091 1.427 . S
C1084 H1075 0.930 . S
C1084 C1082 1.378 . S
C1084 C1085 1.367 . S
C1085 C1084 1.367 . S
C1085 C1087 1.433 . S
C1086 C1082 1.350 . S
C1086 C1083 1.463 . S
C1086 N1090 1.427 . S
C1087 H1077 0.929 . S
C1087 C1085 1.433 . S
C1087 N1090 1.384 . S
C1088 H1079 0.929 . S
C1088 C1080 1.353 1_455 S
C1088 C1083 1.350 . S
C1089 H1076 0.929 . S
C1089 C1081 1.433 . S
C1089 N1091 1.384 1_655 S
N1090 C1086 1.427 . S
N1090 C1087 1.384 . S
N1091 C1083 1.427 . S
N1091 C1089 1.384 1_455 S
H1092 C1098 0.930 . S
H1093 C1102 0.930 . S
H1094 C1107 0.929 . S
H1095 C1105 0.929 . S
H1096 C1100 0.929 . S
H1097 C1106 0.929 . S
C1098 H1092 0.930 . S
C1098 C1099 1.367 . S
C1098 C1106 1.378 1_565 S
C1099 C1098 1.367 . S
C1099 C1107 1.433 . S
C1100 H1096 0.929 . S
C1100 C1102 1.378 . S
C1100 C1104 1.350 . S
C1101 C1104 1.463 . S
C1101 C1106 1.350 . S
C1101 N1109 1.427 . S
C1102 H1093 0.930 . S
C1102 C1100 1.378 . S
C1102 C1103 1.367 . S
C1103 C1102 1.367 . S
C1103 C1105 1.433 . S
C1104 C1100 1.350 . S
C1104 C1101 1.463 . S
C1104 N1108 1.427 . S
C1105 H1095 0.929 . S
C1105 C1103 1.433 . S
C1105 N1108 1.384 . S
C1106 H1097 0.929 . S
C1106 C1098 1.378 1_545 S
C1106 C1101 1.350 . S
C1107 H1094 0.929 . S
C1107 C1099 1.433 . S
C1107 N1109 1.384 1_565 S
N1108 C1104 1.427 . S
N1108 C1105 1.384 . S
N1109 C1101 1.427 . S
N1109 C1107 1.384 1_545 S
H1110 C1116 0.930 . S
H1111 C1120 0.930 . S
H1112 C1125 0.929 . S
H1113 C1123 0.929 . S
H1114 C1118 0.929 . S
H1115 C1124 0.929 . S
C1116 H1110 0.930 . S
C1116 C1117 1.367 . S
C1116 C1124 1.378 . S
C1117 C1116 1.367 . S
C1117 C1125 1.433 . S
C1118 H1114 0.929 . S
C1118 C1120 1.378 . S
C1118 C1122 1.350 . S
C1119 C1122 1.463 . S
C1119 C1124 1.350 . S
C1119 N1127 1.427 . S
C1120 H1111 0.930 . S
C1120 C1118 1.378 . S
C1120 C1121 1.367 . S
C1121 C1120 1.367 . S
C1121 C1123 1.433 . S
C1122 C1118 1.350 . S
C1122 C1119 1.463 . S
C1122 N1126 1.427 . S
C1123 H1113 0.929 . S
C1123 C1121 1.433 . S
C1123 N1126 1.384 . S
C1124 H1115 0.929 . S
C1124 C1116 1.378 . S
C1124 C1119 1.350 . S
C1125 H1112 0.929 . S
C1125 C1117 1.433 . S
C1125 N1127 1.384 . S
N1126 C1122 1.427 . S
N1126 C1123 1.384 . S
N1127 C1119 1.427 . S
N1127 C1125 1.384 . S
H1128 C1134 0.930 . S
H1129 C1138 0.930 . S
H1130 C1143 0.929 . S
H1131 C1141 0.929 . S
H1132 C1136 0.929 . S
H1133 C1142 0.929 . S
C1134 H1128 0.930 . S
C1134 C1135 1.367 . S
C1134 C1142 1.378 . S
C1135 C1134 1.367 . S
C1135 C1143 1.433 . S
C1136 H1132 0.929 . S
C1136 C1138 1.378 . S
C1136 C1140 1.350 . S
C1137 C1140 1.463 1_554 S
C1137 C1142 1.350 . S
C1137 N1145 1.427 . S
C1138 H1129 0.930 . S
C1138 C1136 1.378 . S
C1138 C1139 1.367 . S
C1139 C1138 1.367 . S
C1139 C1141 1.433 . S
C1140 C1136 1.350 . S
C1140 C1137 1.463 1_556 S
C1140 N1144 1.427 . S
C1141 H1131 0.929 . S
C1141 C1139 1.433 . S
C1141 N1144 1.384 . S
C1142 H1133 0.929 . S
C1142 C1134 1.378 . S
C1142 C1137 1.350 . S
C1143 H1130 0.929 . S
C1143 C1135 1.433 . S
C1143 N1145 1.384 . S
N1144 C1140 1.427 . S
N1144 C1141 1.384 . S
N1145 C1137 1.427 . S
N1145 C1143 1.384 . S
H1146 C1152 0.930 . S
H1147 C1156 0.930 . S
H1148 C1161 0.929 . S
H1149 C1159 0.929 . S
H1150 C1154 0.929 . S
H1151 C1160 0.929 . S
C1152 H1146 0.930 . S
C1152 C1153 1.367 . S
C1152 C1160 1.378 . S
C1153 C1152 1.367 . S
C1153 C1161 1.433 . S
C1154 H1150 0.929 . S
C1154 C1156 1.378 . S
C1154 C1158 1.350 . S
C1155 C1158 1.463 1_554 S
C1155 C1160 1.350 . S
C1155 N1163 1.427 . S
C1156 H1147 0.930 . S
C1156 C1154 1.378 . S
C1156 C1157 1.367 . S
C1157 C1156 1.367 . S
C1157 C1159 1.433 . S
C1158 C1154 1.350 . S
C1158 C1155 1.463 1_556 S
C1158 N1162 1.427 . S
C1159 H1149 0.929 . S
C1159 C1157 1.433 . S
C1159 N1162 1.384 . S
C1160 H1151 0.929 . S
C1160 C1152 1.378 . S
C1160 C1155 1.350 . S
C1161 H1148 0.929 . S
C1161 C1153 1.433 . S
C1161 N1163 1.384 . S
N1162 C1158 1.427 . S
N1162 C1159 1.384 . S
N1163 C1155 1.427 . S
N1163 C1161 1.384 . S
H1164 C1170 0.930 . S
H1165 C1174 0.930 . S
H1166 C1179 0.929 . S
H1167 C1177 0.929 . S
H1168 C1172 0.929 . S
H1169 C1178 0.929 . S
C1170 H1164 0.930 . S
C1170 C1171 1.367 . S
C1170 C1178 1.378 . S
C1171 C1170 1.367 . S
C1171 C1179 1.433 . S
C1172 H1168 0.929 . S
C1172 C1174 1.378 . S
C1172 C1176 1.350 . S
C1173 C1176 1.463 1_554 S
C1173 C1178 1.350 . S
C1173 N1181 1.427 . S
C1174 H1165 0.930 . S
C1174 C1172 1.378 . S
C1174 C1175 1.367 . S
C1175 C1174 1.367 . S
C1175 C1177 1.433 . S
C1176 C1172 1.350 . S
C1176 C1173 1.463 1_556 S
C1176 N1180 1.427 . S
C1177 H1167 0.929 . S
C1177 C1175 1.433 . S
C1177 N1180 1.384 . S
C1178 H1169 0.929 . S
C1178 C1170 1.378 . S
C1178 C1173 1.350 . S
C1179 H1166 0.929 . S
C1179 C1171 1.433 . S
C1179 N1181 1.384 . S
N1180 C1176 1.427 . S
N1180 C1177 1.384 . S
N1181 C1173 1.427 . S
N1181 C1179 1.384 . S
H1182 C1188 0.930 . S
H1183 C1192 0.930 . S
H1184 C1197 0.929 . S
H1185 C1195 0.929 . S
H1186 C1190 0.929 . S
H1187 C1196 0.929 . S
C1188 H1182 0.930 . S
C1188 C1189 1.367 . S
C1188 C1196 1.378 . S
C1189 C1188 1.367 . S
C1189 C1197 1.433 . S
C1190 H1186 0.929 . S
C1190 C1192 1.378 . S
C1190 C1194 1.350 . S
C1191 C1194 1.463 1_556 S
C1191 C1196 1.350 . S
C1191 N1199 1.427 . S
C1192 H1183 0.930 . S
C1192 C1190 1.378 . S
C1192 C1193 1.367 . S
C1193 C1192 1.367 . S
C1193 C1195 1.433 . S
C1194 C1190 1.350 . S
C1194 C1191 1.463 1_554 S
C1194 N1198 1.427 . S
C1195 H1185 0.929 . S
C1195 C1193 1.433 . S
C1195 N1198 1.384 . S
C1196 H1187 0.929 . S
C1196 C1188 1.378 . S
C1196 C1191 1.350 . S
C1197 H1184 0.929 . S
C1197 C1189 1.433 . S
C1197 N1199 1.384 . S
N1198 C1194 1.427 . S
N1198 C1195 1.384 . S
N1199 C1191 1.427 . S
N1199 C1197 1.384 . S
H1200 C1206 0.930 . S
H1201 C1210 0.930 . S
H1202 C1215 0.929 . S
H1203 C1213 0.929 . S
H1204 C1208 0.929 . S
H1205 C1214 0.929 . S
C1206 H1200 0.930 . S
C1206 C1207 1.367 . S
C1206 C1214 1.378 . S
C1207 C1206 1.367 . S
C1207 C1215 1.433 . S
C1208 H1204 0.929 . S
C1208 C1210 1.378 . S
C1208 C1212 1.350 . S
C1209 C1212 1.463 1_554 S
C1209 C1214 1.350 . S
C1209 N1217 1.427 . S
C1210 H1201 0.930 . S
C1210 C1208 1.378 . S
C1210 C1211 1.367 . S
C1211 C1210 1.367 . S
C1211 C1213 1.433 . S
C1212 C1208 1.350 . S
C1212 C1209 1.463 1_556 S
C1212 N1216 1.427 . S
C1213 H1203 0.929 . S
C1213 C1211 1.433 . S
C1213 N1216 1.384 . S
C1214 H1205 0.929 . S
C1214 C1206 1.378 . S
C1214 C1209 1.350 . S
C1215 H1202 0.929 . S
C1215 C1207 1.433 . S
C1215 N1217 1.384 . S
N1216 C1212 1.427 . S
N1216 C1213 1.384 . S
N1217 C1209 1.427 . S
N1217 C1215 1.384 . S
H1218 C1224 0.930 . S
H1219 C1228 0.930 . S
H1220 C1233 0.929 . S
H1221 C1231 0.929 . S
H1222 C1226 0.929 . S
H1223 C1232 0.929 . S
C1224 H1218 0.930 . S
C1224 C1225 1.367 . S
C1224 C1232 1.378 . S
C1225 C1224 1.367 . S
C1225 C1233 1.433 . S
C1226 H1222 0.929 . S
C1226 C1228 1.378 . S
C1226 C1230 1.350 . S
C1227 C1230 1.463 1_554 S
C1227 C1232 1.350 . S
C1227 N1235 1.427 . S
C1228 H1219 0.930 . S
C1228 C1226 1.378 . S
C1228 C1229 1.367 . S
C1229 C1228 1.367 . S
C1229 C1231 1.433 . S
C1230 C1226 1.350 . S
C1230 C1227 1.463 1_556 S
C1230 N1234 1.427 . S
C1231 H1221 0.929 . S
C1231 C1229 1.433 . S
C1231 N1234 1.384 . S
C1232 H1223 0.929 . S
C1232 C1224 1.378 . S
C1232 C1227 1.350 . S
C1233 H1220 0.929 . S
C1233 C1225 1.433 . S
C1233 N1235 1.384 . S
N1234 C1230 1.427 . S
N1234 C1231 1.384 . S
N1235 C1227 1.427 . S
N1235 C1233 1.384 . S
H1236 C1242 0.930 . S
H1237 C1246 0.930 . S
H1238 C1251 0.929 . S
H1239 C1249 0.929 . S
H1240 C1244 0.929 . S
H1241 C1250 0.929 . S
C1242 H1236 0.930 . S
C1242 C1243 1.367 . S
C1242 C1250 1.378 . S
C1243 C1242 1.367 . S
C1243 C1251 1.433 . S
C1244 H1240 0.929 . S
C1244 C1246 1.378 . S
C1244 C1248 1.350 . S
C1245 C1248 1.463 . S
C1245 C1250 1.350 . S
C1245 N1253 1.427 . S
C1246 H1237 0.930 . S
C1246 C1244 1.378 . S
C1246 C1247 1.367 . S
C1247 C1246 1.367 . S
C1247 C1249 1.433 . S
C1248 C1244 1.350 . S
C1248 C1245 1.463 . S
C1248 N1252 1.427 . S
C1249 H1239 0.929 . S
C1249 C1247 1.433 . S
C1249 N1252 1.384 . S
C1250 H1241 0.929 . S
C1250 C1242 1.378 . S
C1250 C1245 1.350 . S
C1251 H1238 0.929 . S
C1251 C1243 1.433 . S
C1251 N1253 1.384 . S
N1252 C1248 1.427 . S
N1252 C1249 1.384 . S
N1253 C1245 1.427 . S
N1253 C1251 1.384 . S
H1254 C1260 0.930 . S
H1255 C1264 0.930 . S
H1256 C1269 0.929 . S
H1257 C1267 0.929 . S
H1258 C1262 0.929 . S
H1259 C1268 0.929 . S
C1260 H1254 0.930 . S
C1260 C1261 1.367 . S
C1260 C1268 1.378 . S
C1261 C1260 1.367 . S
C1261 C1269 1.433 . S
C1262 H1258 0.929 . S
C1262 C1264 1.378 . S
C1262 C1266 1.350 . S
C1263 C1266 1.463 . S
C1263 C1268 1.350 . S
C1263 N1271 1.427 . S
C1264 H1255 0.930 . S
C1264 C1262 1.378 . S
C1264 C1265 1.367 . S
C1265 C1264 1.367 . S
C1265 C1267 1.433 . S
C1266 C1262 1.350 . S
C1266 C1263 1.463 . S
C1266 N1270 1.427 . S
C1267 H1257 0.929 . S
C1267 C1265 1.433 . S
C1267 N1270 1.384 . S
C1268 H1259 0.929 . S
C1268 C1260 1.378 . S
C1268 C1263 1.350 . S
C1269 H1256 0.929 . S
C1269 C1261 1.433 . S
C1269 N1271 1.384 . S
N1270 C1266 1.427 . S
N1270 C1267 1.384 . S
N1271 C1263 1.427 . S
N1271 C1269 1.384 . S
H1272 C1278 0.930 . S
H1273 C1282 0.930 . S
H1274 C1287 0.929 . S
H1275 C1285 0.929 . S
H1276 C1280 0.929 . S
H1277 C1286 0.929 . S
C1278 H1272 0.930 . S
C1278 C1279 1.367 . S
C1278 C1286 1.378 . S
C1279 C1278 1.367 . S
C1279 C1287 1.433 . S
C1280 H1276 0.929 . S
C1280 C1282 1.378 . S
C1280 C1284 1.350 . S
C1281 C1284 1.463 . S
C1281 C1286 1.350 . S
C1281 N1289 1.427 . S
C1282 H1273 0.930 . S
C1282 C1280 1.378 . S
C1282 C1283 1.367 . S
C1283 C1282 1.367 . S
C1283 C1285 1.433 . S
C1284 C1280 1.350 . S
C1284 C1281 1.463 . S
C1284 N1288 1.427 . S
C1285 H1275 0.929 . S
C1285 C1283 1.433 . S
C1285 N1288 1.384 . S
C1286 H1277 0.929 . S
C1286 C1278 1.378 . S
C1286 C1281 1.350 . S
C1287 H1274 0.929 . S
C1287 C1279 1.433 . S
C1287 N1289 1.384 . S
N1288 C1284 1.427 . S
N1288 C1285 1.384 . S
N1289 C1281 1.427 . S
N1289 C1287 1.384 . S
H1290 C1296 0.930 . S
H1291 C1300 0.930 . S
H1292 C1305 0.929 . S
H1293 C1303 0.929 . S
H1294 C1298 0.929 . S
H1295 C1304 0.929 . S
C1296 H1290 0.930 . S
C1296 C1297 1.367 . S
C1296 C1304 1.378 . S
C1297 C1296 1.367 . S
C1297 C1305 1.433 . S
C1298 H1294 0.929 . S
C1298 C1300 1.378 . S
C1298 C1302 1.350 . S
C1299 C1302 1.463 . S
C1299 C1304 1.350 . S
C1299 N1307 1.427 . S
C1300 H1291 0.930 . S
C1300 C1298 1.378 . S
C1300 C1301 1.367 . S
C1301 C1300 1.367 . S
C1301 C1303 1.433 . S
C1302 C1298 1.350 . S
C1302 C1299 1.463 . S
C1302 N1306 1.427 . S
C1303 H1293 0.929 . S
C1303 C1301 1.433 . S
C1303 N1306 1.384 . S
C1304 H1295 0.929 . S
C1304 C1296 1.378 . S
C1304 C1299 1.350 . S
C1305 H1292 0.929 . S
C1305 C1297 1.433 . S
C1305 N1307 1.384 . S
N1306 C1302 1.427 . S
N1306 C1303 1.384 . S
N1307 C1299 1.427 . S
N1307 C1305 1.384 . S
H1308 C1314 0.930 . S
H1309 C1318 0.930 . S
H1310 C1323 0.929 . S
H1311 C1321 0.929 . S
H1312 C1316 0.929 . S
H1313 C1322 0.929 . S
C1314 H1308 0.930 . S
C1314 C1315 1.367 . S
C1314 C1322 1.378 . S
C1315 C1314 1.367 . S
C1315 C1323 1.433 . S
C1316 H1312 0.929 . S
C1316 C1318 1.378 . S
C1316 C1320 1.350 . S
C1317 C1320 1.463 . S
C1317 C1322 1.350 . S
C1317 N1325 1.427 . S
C1318 H1309 0.930 . S
C1318 C1316 1.378 . S
C1318 C1319 1.367 . S
C1319 C1318 1.367 . S
C1319 C1321 1.433 . S
C1320 C1316 1.350 . S
C1320 C1317 1.463 . S
C1320 N1324 1.427 . S
C1321 H1311 0.929 . S
C1321 C1319 1.433 . S
C1321 N1324 1.384 . S
C1322 H1313 0.929 . S
C1322 C1314 1.378 . S
C1322 C1317 1.350 . S
C1323 H1310 0.929 . S
C1323 C1315 1.433 . S
C1323 N1325 1.384 . S
N1324 C1320 1.427 . S
N1324 C1321 1.384 . S
N1325 C1317 1.427 . S
N1325 C1323 1.384 . S
H1326 C1332 0.930 . S
H1327 C1336 0.930 . S
H1328 C1341 0.929 . S
H1329 C1339 0.929 . S
H1330 C1334 0.929 . S
H1331 C1340 0.929 . S
C1332 H1326 0.930 . S
C1332 C1333 1.367 . S
C1332 C1340 1.378 . S
C1333 C1332 1.367 . S
C1333 C1341 1.433 . S
C1334 H1330 0.929 . S
C1334 C1336 1.378 . S
C1334 C1338 1.350 . S
C1335 C1338 1.463 . S
C1335 C1340 1.350 . S
C1335 N1343 1.427 . S
C1336 H1327 0.930 . S
C1336 C1334 1.378 . S
C1336 C1337 1.367 . S
C1337 C1336 1.367 . S
C1337 C1339 1.433 . S
C1338 C1334 1.350 . S
C1338 C1335 1.463 . S
C1338 N1342 1.427 . S
C1339 H1329 0.929 . S
C1339 C1337 1.433 . S
C1339 N1342 1.384 . S
C1340 H1331 0.929 . S
C1340 C1332 1.378 . S
C1340 C1335 1.350 . S
C1341 H1328 0.929 . S
C1341 C1333 1.433 . S
C1341 N1343 1.384 . S
N1342 C1338 1.427 . S
N1342 C1339 1.384 . S
N1343 C1335 1.427 . S
N1343 C1341 1.384 . S
H1344 C1350 0.930 . S
H1345 C1354 0.930 . S
H1346 C1359 0.929 . S
H1347 C1357 0.929 . S
H1348 C1352 0.929 . S
H1349 C1358 0.929 . S
C1350 H1344 0.930 . S
C1350 C1351 1.367 . S
C1350 C1358 1.378 . S
C1351 C1350 1.367 . S
C1351 C1359 1.433 . S
C1352 H1348 0.929 . S
C1352 C1354 1.378 . S
C1352 C1356 1.350 . S
C1353 C1356 1.463 . S
C1353 C1358 1.350 . S
C1353 N1361 1.427 . S
C1354 H1345 0.930 . S
C1354 C1352 1.378 . S
C1354 C1355 1.367 . S
C1355 C1354 1.367 . S
C1355 C1357 1.433 . S
C1356 C1352 1.350 . S
C1356 C1353 1.463 . S
C1356 N1360 1.427 . S
C1357 H1347 0.929 . S
C1357 C1355 1.433 . S
C1357 N1360 1.384 . S
C1358 H1349 0.929 . S
C1358 C1350 1.378 . S
C1358 C1353 1.350 . S
C1359 H1346 0.929 . S
C1359 C1351 1.433 . S
C1359 N1361 1.384 . S
N1360 C1356 1.427 . S
N1360 C1357 1.384 . S
N1361 C1353 1.427 . S
N1361 C1359 1.384 . S
H1362 C1368 0.930 . S
H1363 C1372 0.930 . S
H1364 C1377 0.929 . S
H1365 C1375 0.929 . S
H1366 C1370 0.929 . S
H1367 C1376 0.929 . S
C1368 H1362 0.930 . S
C1368 C1369 1.367 . S
C1368 C1376 1.378 . S
C1369 C1368 1.367 . S
C1369 C1377 1.433 . S
C1370 H1366 0.929 . S
C1370 C1372 1.378 . S
C1370 C1374 1.350 . S
C1371 C1374 1.463 . S
C1371 C1376 1.350 . S
C1371 N1379 1.427 . S
C1372 H1363 0.930 . S
C1372 C1370 1.378 . S
C1372 C1373 1.367 . S
C1373 C1372 1.367 . S
C1373 C1375 1.433 . S
C1374 C1370 1.350 . S
C1374 C1371 1.463 . S
C1374 N1378 1.427 . S
C1375 H1365 0.929 . S
C1375 C1373 1.433 . S
C1375 N1378 1.384 . S
C1376 H1367 0.929 . S
C1376 C1368 1.378 . S
C1376 C1371 1.350 . S
C1377 H1364 0.929 . S
C1377 C1369 1.433 . S
C1377 N1379 1.384 . S
N1378 C1374 1.427 . S
N1378 C1375 1.384 . S
N1379 C1371 1.427 . S
N1379 C1377 1.384 . S
H1380 C1386 0.930 . S
H1381 C1390 0.930 . S
H1382 C1395 0.929 . S
H1383 C1393 0.929 . S
H1384 C1388 0.929 . S
H1385 C1394 0.929 . S
C1386 H1380 0.930 . S
C1386 C1387 1.367 . S
C1386 C1394 1.378 . S
C1387 C1386 1.367 . S
C1387 C1395 1.433 . S
C1388 H1384 0.929 . S
C1388 C1390 1.378 . S
C1388 C1392 1.350 . S
C1389 C1392 1.463 . S
C1389 C1394 1.350 . S
C1389 N1397 1.427 . S
C1390 H1381 0.930 . S
C1390 C1388 1.378 . S
C1390 C1391 1.367 . S
C1391 C1390 1.367 . S
C1391 C1393 1.433 . S
C1392 C1388 1.350 . S
C1392 C1389 1.463 . S
C1392 N1396 1.427 . S
C1393 H1383 0.929 . S
C1393 C1391 1.433 . S
C1393 N1396 1.384 . S
C1394 H1385 0.929 . S
C1394 C1386 1.378 . S
C1394 C1389 1.350 . S
C1395 H1382 0.929 . S
C1395 C1387 1.433 . S
C1395 N1397 1.384 . S
N1396 C1392 1.427 . S
N1396 C1393 1.384 . S
N1397 C1389 1.427 . S
N1397 C1395 1.384 . S
H1398 C1404 0.930 . S
H1399 C1408 0.930 . S
H1400 C1413 0.929 . S
H1401 C1411 0.929 . S
H1402 C1406 0.929 . S
H1403 C1412 0.929 . S
C1404 H1398 0.930 . S
C1404 C1405 1.367 . S
C1404 C1412 1.378 . S
C1405 C1404 1.367 . S
C1405 C1413 1.433 . S
C1406 H1402 0.929 . S
C1406 C1408 1.378 . S
C1406 C1410 1.350 . S
C1407 C1410 1.463 . S
C1407 C1412 1.350 . S
C1407 N1415 1.427 . S
C1408 H1399 0.930 . S
C1408 C1406 1.378 . S
C1408 C1409 1.367 . S
C1409 C1408 1.367 . S
C1409 C1411 1.433 . S
C1410 C1406 1.350 . S
C1410 C1407 1.463 . S
C1410 N1414 1.427 . S
C1411 H1401 0.929 . S
C1411 C1409 1.433 . S
C1411 N1414 1.384 . S
C1412 H1403 0.929 . S
C1412 C1404 1.378 . S
C1412 C1407 1.350 . S
C1413 H1400 0.929 . S
C1413 C1405 1.433 . S
C1413 N1415 1.384 . S
N1414 C1410 1.427 . S
N1414 C1411 1.384 . S
N1415 C1407 1.427 . S
N1415 C1413 1.384 . S
H1416 C1422 0.930 . S
H1417 C1426 0.930 . S
H1418 C1431 0.929 . S
H1419 C1429 0.929 . S
H1420 C1424 0.929 . S
H1421 C1430 0.929 . S
C1422 H1416 0.930 . S
C1422 C1423 1.367 . S
C1422 C1430 1.378 . S
C1423 C1422 1.367 . S
C1423 C1431 1.433 . S
C1424 H1420 0.929 . S
C1424 C1426 1.378 . S
C1424 C1428 1.350 . S
C1425 C1428 1.463 . S
C1425 C1430 1.350 . S
C1425 N1433 1.427 . S
C1426 H1417 0.930 . S
C1426 C1424 1.378 . S
C1426 C1427 1.367 . S
C1427 C1426 1.367 . S
C1427 C1429 1.433 . S
C1428 C1424 1.350 . S
C1428 C1425 1.463 . S
C1428 N1432 1.427 . S
C1429 H1419 0.929 . S
C1429 C1427 1.433 . S
C1429 N1432 1.384 . S
C1430 H1421 0.929 . S
C1430 C1422 1.378 . S
C1430 C1425 1.350 . S
C1431 H1418 0.929 . S
C1431 C1423 1.433 . S
C1431 N1433 1.384 . S
N1432 C1428 1.427 . S
N1432 C1429 1.384 . S
N1433 C1425 1.427 . S
N1433 C1431 1.384 . S
H1434 C1440 0.930 . S
H1435 C1444 0.930 . S
H1436 C1449 0.929 . S
H1437 C1447 0.929 . S
H1438 C1442 0.929 . S
H1439 C1448 0.929 . S
C1440 H1434 0.930 . S
C1440 C1441 1.367 . S
C1440 C1448 1.378 . S
C1441 C1440 1.367 . S
C1441 C1449 1.433 . S
C1442 H1438 0.929 . S
C1442 C1444 1.378 . S
C1442 C1446 1.350 . S
C1443 C1446 1.463 . S
C1443 C1448 1.350 . S
C1443 N1451 1.427 . S
C1444 H1435 0.930 . S
C1444 C1442 1.378 . S
C1444 C1445 1.367 . S
C1445 C1444 1.367 . S
C1445 C1447 1.433 . S
C1446 C1442 1.350 . S
C1446 C1443 1.463 . S
C1446 N1450 1.427 . S
C1447 H1437 0.929 . S
C1447 C1445 1.433 . S
C1447 N1450 1.384 . S
C1448 H1439 0.929 . S
C1448 C1440 1.378 . S
C1448 C1443 1.350 . S
C1449 H1436 0.929 . S
C1449 C1441 1.433 . S
C1449 N1451 1.384 . S
N1450 C1446 1.427 . S
N1450 C1447 1.384 . S
N1451 C1443 1.427 . S
N1451 C1449 1.384 . S
H1452 C1458 0.930 . S
H1453 C1462 0.930 . S
H1454 C1467 0.929 . S
H1455 C1465 0.929 . S
H1456 C1460 0.929 . S
H1457 C1466 0.929 . S
C1458 H1452 0.930 . S
C1458 C1459 1.367 . S
C1458 C1466 1.378 . S
C1459 C1458 1.367 . S
C1459 C1467 1.433 . S
C1460 H1456 0.929 . S
C1460 C1462 1.378 . S
C1460 C1464 1.350 . S
C1461 C1464 1.463 . S
C1461 C1466 1.350 . S
C1461 N1469 1.427 . S
C1462 H1453 0.930 . S
C1462 C1460 1.378 . S
C1462 C1463 1.367 . S
C1463 C1462 1.367 . S
C1463 C1465 1.433 . S
C1464 C1460 1.350 . S
C1464 C1461 1.463 . S
C1464 N1468 1.427 . S
C1465 H1455 0.929 . S
C1465 C1463 1.433 . S
C1465 N1468 1.384 . S
C1466 H1457 0.929 . S
C1466 C1458 1.378 . S
C1466 C1461 1.350 . S
C1467 H1454 0.929 . S
C1467 C1459 1.433 . S
C1467 N1469 1.384 . S
N1468 C1464 1.427 . S
N1468 C1465 1.384 . S
N1469 C1461 1.427 . S
N1469 C1467 1.384 . S
H1470 C1476 0.930 . S
H1471 C1480 0.930 . S
H1472 C1485 0.929 . S
H1473 C1483 0.929 . S
H1474 C1478 0.929 . S
H1475 C1484 0.929 . S
C1476 H1470 0.930 . S
C1476 C1477 1.367 . S
C1476 C1484 1.378 . S
C1477 C1476 1.367 . S
C1477 C1485 1.433 . S
C1478 H1474 0.929 . S
C1478 C1480 1.378 . S
C1478 C1482 1.350 . S
C1479 C1482 1.463 . S
C1479 C1484 1.350 . S
C1479 N1487 1.427 . S
C1480 H1471 0.930 . S
C1480 C1478 1.378 . S
C1480 C1481 1.367 . S
C1481 C1480 1.367 . S
C1481 C1483 1.433 . S
C1482 C1478 1.350 . S
C1482 C1479 1.463 . S
C1482 N1486 1.427 . S
C1483 H1473 0.929 . S
C1483 C1481 1.433 . S
C1483 N1486 1.384 . S
C1484 H1475 0.929 . S
C1484 C1476 1.378 . S
C1484 C1479 1.350 . S
C1485 H1472 0.929 . S
C1485 C1477 1.433 . S
C1485 N1487 1.384 . S
N1486 C1482 1.427 . S
N1486 C1483 1.384 . S
N1487 C1479 1.427 . S
N1487 C1485 1.384 . S
H1488 C1494 0.930 . S
H1489 C1498 0.930 . S
H1490 C1503 0.929 . S
H1491 C1501 0.929 . S
H1492 C1496 0.929 . S
H1493 C1502 0.929 . S
C1494 H1488 0.930 . S
C1494 C1495 1.367 . S
C1494 C1502 1.378 . S
C1495 C1494 1.367 . S
C1495 C1503 1.433 . S
C1496 H1492 0.929 . S
C1496 C1498 1.378 . S
C1496 C1500 1.350 . S
C1497 C1500 1.463 . S
C1497 C1502 1.350 . S
C1497 N1505 1.427 . S
C1498 H1489 0.930 . S
C1498 C1496 1.378 . S
C1498 C1499 1.367 . S
C1499 C1498 1.367 . S
C1499 C1501 1.433 . S
C1500 C1496 1.350 . S
C1500 C1497 1.463 . S
C1500 N1504 1.427 . S
C1501 H1491 0.929 . S
C1501 C1499 1.433 . S
C1501 N1504 1.384 . S
C1502 H1493 0.929 . S
C1502 C1494 1.378 . S
C1502 C1497 1.350 . S
C1503 H1490 0.929 . S
C1503 C1495 1.433 . S
C1503 N1505 1.384 . S
N1504 C1500 1.427 . S
N1504 C1501 1.384 . S
N1505 C1497 1.427 . S
N1505 C1503 1.384 . S
H1506 C1512 0.930 . S
H1507 C1516 0.930 . S
H1508 C1521 0.929 . S
H1509 C1519 0.929 . S
H1510 C1514 0.929 . S
H1511 C1520 0.929 . S
C1512 H1506 0.930 . S
C1512 C1513 1.367 . S
C1512 C1520 1.378 . S
C1513 C1512 1.367 . S
C1513 C1521 1.433 . S
C1514 H1510 0.929 . S
C1514 C1516 1.378 . S
C1514 C1518 1.350 . S
C1515 C1518 1.463 . S
C1515 C1520 1.350 . S
C1515 N1523 1.427 . S
C1516 H1507 0.930 . S
C1516 C1514 1.378 . S
C1516 C1517 1.367 . S
C1517 C1516 1.367 . S
C1517 C1519 1.433 . S
C1518 C1514 1.350 . S
C1518 C1515 1.463 . S
C1518 N1522 1.427 . S
C1519 H1509 0.929 . S
C1519 C1517 1.433 . S
C1519 N1522 1.384 . S
C1520 H1511 0.929 . S
C1520 C1512 1.378 . S
C1520 C1515 1.350 . S
C1521 H1508 0.929 . S
C1521 C1513 1.433 . S
C1521 N1523 1.384 . S
N1522 C1518 1.427 . S
N1522 C1519 1.384 . S
N1523 C1515 1.427 . S
N1523 C1521 1.384 . S
H1524 C1530 0.930 . S
H1525 C1534 0.930 . S
H1526 C1539 0.929 . S
H1527 C1537 0.929 . S
H1528 C1532 0.929 . S
H1529 C1538 0.929 . S
C1530 H1524 0.930 . S
C1530 C1531 1.367 . S
C1530 C1538 1.378 . S
C1531 C1530 1.367 . S
C1531 C1539 1.433 . S
C1532 H1528 0.929 . S
C1532 C1534 1.378 . S
C1532 C1536 1.350 . S
C1533 C1536 1.463 . S
C1533 C1538 1.350 . S
C1533 N1541 1.427 . S
C1534 H1525 0.930 . S
C1534 C1532 1.378 . S
C1534 C1535 1.367 . S
C1535 C1534 1.367 . S
C1535 C1537 1.433 . S
C1536 C1532 1.350 . S
C1536 C1533 1.463 . S
C1536 N1540 1.427 . S
C1537 H1527 0.929 . S
C1537 C1535 1.433 . S
C1537 N1540 1.384 . S
C1538 H1529 0.929 . S
C1538 C1530 1.378 . S
C1538 C1533 1.350 . S
C1539 H1526 0.929 . S
C1539 C1531 1.433 . S
C1539 N1541 1.384 . S
N1540 C1536 1.427 . S
N1540 C1537 1.384 . S
N1541 C1533 1.427 . S
N1541 C1539 1.384 . S
H1542 C1548 0.930 . S
H1543 C1552 0.930 . S
H1544 C1557 0.929 . S
H1545 C1555 0.929 . S
H1546 C1550 0.929 . S
H1547 C1556 0.929 . S
C1548 H1542 0.930 . S
C1548 C1549 1.367 . S
C1548 C1556 1.378 . S
C1549 C1548 1.367 . S
C1549 C1557 1.433 . S
C1550 H1546 0.929 . S
C1550 C1552 1.378 . S
C1550 C1554 1.350 . S
C1551 C1554 1.463 . S
C1551 C1556 1.350 . S
C1551 N1559 1.427 . S
C1552 H1543 0.930 . S
C1552 C1550 1.378 . S
C1552 C1553 1.367 . S
C1553 C1552 1.367 . S
C1553 C1555 1.433 . S
C1554 C1550 1.350 . S
C1554 C1551 1.463 . S
C1554 N1558 1.427 . S
C1555 H1545 0.929 . S
C1555 C1553 1.433 . S
C1555 N1558 1.384 . S
C1556 H1547 0.929 . S
C1556 C1548 1.378 . S
C1556 C1551 1.350 . S
C1557 H1544 0.929 . S
C1557 C1549 1.433 . S
C1557 N1559 1.384 . S
N1558 C1554 1.427 . S
N1558 C1555 1.384 . S
N1559 C1551 1.427 . S
N1559 C1557 1.384 . S
H1560 C1566 0.930 . S
H1561 C1570 0.930 . S
H1562 C1575 0.929 . S
H1563 C1573 0.929 . S
H1564 C1568 0.929 1_545 S
H1565 C1574 0.929 1_565 S
C1566 H1560 0.930 . S
C1566 C1567 1.367 . S
C1566 C1574 1.378 . S
C1567 C1566 1.367 . S
C1567 C1575 1.433 . S
C1568 H1564 0.929 1_565 S
C1568 C1570 1.378 . S
C1568 C1572 1.350 . S
C1569 C1572 1.463 1_545 S
C1569 C1574 1.350 . S
C1569 N1577 1.427 . S
C1570 H1561 0.930 . S
C1570 C1568 1.378 . S
C1570 C1571 1.367 . S
C1571 C1570 1.367 . S
C1571 C1573 1.433 . S
C1572 C1568 1.350 . S
C1572 C1569 1.463 1_565 S
C1572 N1576 1.427 . S
C1573 H1563 0.929 . S
C1573 C1571 1.433 . S
C1573 N1576 1.384 . S
C1574 H1565 0.929 1_545 S
C1574 C1566 1.378 . S
C1574 C1569 1.350 . S
C1575 H1562 0.929 . S
C1575 C1567 1.433 . S
C1575 N1577 1.384 . S
N1576 C1572 1.427 . S
N1576 C1573 1.384 . S
N1577 C1569 1.427 . S
N1577 C1575 1.384 . S
H1578 C1584 0.930 . S
H1579 C1588 0.930 . S
H1580 C1593 0.929 . S
H1581 C1591 0.929 . S
H1582 C1586 0.929 . S
H1583 C1592 0.929 . S
C1584 H1578 0.930 . S
C1584 C1585 1.367 . S
C1584 C1592 1.378 . S
C1585 C1584 1.367 . S
C1585 C1593 1.433 . S
C1586 H1582 0.929 . S
C1586 C1588 1.378 . S
C1586 C1590 1.350 . S
C1587 C1590 1.463 . S
C1587 C1592 1.350 . S
C1587 N1595 1.427 . S
C1588 H1579 0.930 . S
C1588 C1586 1.378 . S
C1588 C1589 1.367 . S
C1589 C1588 1.367 . S
C1589 C1591 1.433 . S
C1590 C1586 1.350 . S
C1590 C1587 1.463 . S
C1590 N1594 1.427 . S
C1591 H1581 0.929 . S
C1591 C1589 1.433 . S
C1591 N1594 1.384 . S
C1592 H1583 0.929 . S
C1592 C1584 1.378 . S
C1592 C1587 1.350 . S
C1593 H1580 0.929 . S
C1593 C1585 1.433 . S
C1593 N1595 1.384 . S
N1594 C1590 1.427 . S
N1594 C1591 1.384 . S
N1595 C1587 1.427 . S
N1595 C1593 1.384 . S
H1596 C1602 0.930 . S
H1597 C1606 0.930 . S
H1598 C1611 0.929 . S
H1599 C1609 0.929 . S
H1600 C1604 0.929 1_655 S
H1601 C1610 0.929 1_455 S
C1602 H1596 0.930 . S
C1602 C1603 1.367 . S
C1602 C1610 1.378 . S
C1603 C1602 1.367 . S
C1603 C1611 1.433 . S
C1604 H1600 0.929 1_455 S
C1604 C1606 1.378 . S
C1604 C1608 1.350 . S
C1605 C1608 1.463 1_655 S
C1605 C1610 1.350 . S
C1605 N1613 1.427 . S
C1606 H1597 0.930 . S
C1606 C1604 1.378 . S
C1606 C1607 1.367 . S
C1607 C1606 1.367 . S
C1607 C1609 1.433 . S
C1608 C1604 1.350 . S
C1608 C1605 1.463 1_455 S
C1608 N1612 1.427 . S
C1609 H1599 0.929 . S
C1609 C1607 1.433 . S
C1609 N1612 1.384 . S
C1610 H1601 0.929 1_655 S
C1610 C1602 1.378 . S
C1610 C1605 1.350 . S
C1611 H1598 0.929 . S
C1611 C1603 1.433 . S
C1611 N1613 1.384 . S
N1612 C1608 1.427 . S
N1612 C1609 1.384 . S
N1613 C1605 1.427 . S
N1613 C1611 1.384 . S
H1614 C1620 0.930 . S
H1615 C1624 0.930 . S
H1616 C1629 0.929 . S
H1617 C1627 0.929 . S
H1618 C1622 0.929 1_455 S
H1619 C1628 0.929 1_655 S
C1620 H1614 0.930 . S
C1620 C1621 1.367 . S
C1620 C1628 1.378 . S
C1621 C1620 1.367 . S
C1621 C1629 1.433 . S
C1622 H1618 0.929 1_655 S
C1622 C1624 1.378 . S
C1622 C1626 1.350 . S
C1623 C1626 1.463 1_455 S
C1623 C1628 1.350 . S
C1623 N1631 1.427 . S
C1624 H1615 0.930 . S
C1624 C1622 1.378 . S
C1624 C1625 1.367 . S
C1625 C1624 1.367 . S
C1625 C1627 1.433 . S
C1626 C1622 1.350 . S
C1626 C1623 1.463 1_655 S
C1626 N1630 1.427 . S
C1627 H1617 0.929 . S
C1627 C1625 1.433 . S
C1627 N1630 1.384 . S
C1628 H1619 0.929 1_455 S
C1628 C1620 1.378 . S
C1628 C1623 1.350 . S
C1629 H1616 0.929 . S
C1629 C1621 1.433 . S
C1629 N1631 1.384 . S
N1630 C1626 1.427 . S
N1630 C1627 1.384 . S
N1631 C1623 1.427 . S
N1631 C1629 1.384 . S
H1632 C1638 0.930 . S
H1633 C1642 0.930 . S
H1634 C1647 0.929 . S
H1635 C1645 0.929 . S
H1636 C1640 0.929 1_545 S
H1637 C1646 0.929 1_565 S
C1638 H1632 0.930 . S
C1638 C1639 1.367 . S
C1638 C1646 1.378 . S
C1639 C1638 1.367 . S
C1639 C1647 1.433 . S
C1640 H1636 0.929 1_565 S
C1640 C1642 1.378 . S
C1640 C1644 1.350 . S
C1641 C1644 1.463 1_545 S
C1641 C1646 1.350 . S
C1641 N1649 1.427 . S
C1642 H1633 0.930 . S
C1642 C1640 1.378 . S
C1642 C1643 1.367 . S
C1643 C1642 1.367 . S
C1643 C1645 1.433 . S
C1644 C1640 1.350 . S
C1644 C1641 1.463 1_565 S
C1644 N1648 1.427 . S
C1645 H1635 0.929 . S
C1645 C1643 1.433 . S
C1645 N1648 1.384 . S
C1646 H1637 0.929 1_545 S
C1646 C1638 1.378 . S
C1646 C1641 1.350 . S
C1647 H1634 0.929 . S
C1647 C1639 1.433 . S
C1647 N1649 1.384 . S
N1648 C1644 1.427 . S
N1648 C1645 1.384 . S
N1649 C1641 1.427 . S
N1649 C1647 1.384 . S
H1650 C1656 0.930 . S
H1651 C1660 0.930 . S
H1652 C1665 0.929 . S
H1653 C1663 0.929 . S
H1654 C1658 0.929 . S
H1655 C1664 0.929 . S
C1656 H1650 0.930 . S
C1656 C1657 1.367 . S
C1656 C1664 1.378 . S
C1657 C1656 1.367 . S
C1657 C1665 1.433 . S
C1658 H1654 0.929 . S
C1658 C1660 1.378 . S
C1658 C1662 1.350 . S
C1659 C1662 1.463 . S
C1659 C1664 1.350 . S
C1659 N1667 1.427 . S
C1660 H1651 0.930 . S
C1660 C1658 1.378 . S
C1660 C1661 1.367 . S
C1661 C1660 1.367 . S
C1661 C1663 1.433 . S
C1662 C1658 1.350 . S
C1662 C1659 1.463 . S
C1662 N1666 1.427 . S
C1663 H1653 0.929 . S
C1663 C1661 1.433 . S
C1663 N1666 1.384 . S
C1664 H1655 0.929 . S
C1664 C1656 1.378 . S
C1664 C1659 1.350 . S
C1665 H1652 0.929 . S
C1665 C1657 1.433 . S
C1665 N1667 1.384 . S
N1666 C1662 1.427 . S
N1666 C1663 1.384 . S
N1667 C1659 1.427 . S
N1667 C1665 1.384 . S
H1668 C1674 0.930 . S
H1669 C1678 0.930 . S
H1670 C1683 0.929 . S
H1671 C1681 0.929 . S
H1672 C1676 0.929 . S
H1673 C1682 0.929 . S
C1674 H1668 0.930 . S
C1674 C1675 1.367 . S
C1674 C1682 1.378 . S
C1675 C1674 1.367 . S
C1675 C1683 1.433 . S
C1676 H1672 0.929 . S
C1676 C1678 1.378 . S
C1676 C1680 1.350 . S
C1677 C1680 1.463 1_545 S
C1677 C1682 1.350 . S
C1677 N1685 1.427 . S
C1678 H1669 0.930 . S
C1678 C1676 1.378 . S
C1678 C1679 1.367 . S
C1679 C1678 1.367 . S
C1679 C1681 1.433 . S
C1680 C1676 1.350 . S
C1680 C1677 1.463 1_565 S
C1680 N1684 1.427 . S
C1681 H1671 0.929 . S
C1681 C1679 1.433 . S
C1681 N1684 1.384 . S
C1682 H1673 0.929 . S
C1682 C1674 1.378 . S
C1682 C1677 1.350 . S
C1683 H1670 0.929 . S
C1683 C1675 1.433 . S
C1683 N1685 1.384 . S
N1684 C1680 1.427 . S
N1684 C1681 1.384 . S
N1685 C1677 1.427 . S
N1685 C1683 1.384 . S
H1686 C1692 0.930 . S
H1687 C1696 0.930 . S
H1688 C1701 0.929 . S
H1689 C1699 0.929 . S
H1690 C1694 0.929 . S
H1691 C1700 0.929 . S
C1692 H1686 0.930 . S
C1692 C1693 1.367 . S
C1692 C1700 1.378 . S
C1693 C1692 1.367 . S
C1693 C1701 1.433 . S
C1694 H1690 0.929 . S
C1694 C1696 1.378 . S
C1694 C1698 1.350 . S
C1695 C1698 1.463 . S
C1695 C1700 1.350 . S
C1695 N1703 1.427 . S
C1696 H1687 0.930 . S
C1696 C1694 1.378 . S
C1696 C1697 1.367 . S
C1697 C1696 1.367 . S
C1697 C1699 1.433 . S
C1698 C1694 1.350 . S
C1698 C1695 1.463 . S
C1698 N1702 1.427 . S
C1699 H1689 0.929 . S
C1699 C1697 1.433 . S
C1699 N1702 1.384 . S
C1700 H1691 0.929 . S
C1700 C1692 1.378 . S
C1700 C1695 1.350 . S
C1701 H1688 0.929 . S
C1701 C1693 1.433 . S
C1701 N1703 1.384 . S
N1702 C1698 1.427 . S
N1702 C1699 1.384 . S
N1703 C1695 1.427 . S
N1703 C1701 1.384 . S
H1704 C1710 0.930 . S
H1705 C1714 0.930 . S
H1706 C1719 0.929 . S
H1707 C1717 0.929 . S
H1708 C1712 0.929 1_455 S
H1709 C1718 0.929 1_655 S
C1710 H1704 0.930 . S
C1710 C1711 1.367 . S
C1710 C1718 1.378 . S
C1711 C1710 1.367 . S
C1711 C1719 1.433 . S
C1712 H1708 0.929 1_655 S
C1712 C1714 1.378 . S
C1712 C1716 1.350 . S
C1713 C1716 1.463 1_455 S
C1713 C1718 1.350 . S
C1713 N1721 1.427 . S
C1714 H1705 0.930 . S
C1714 C1712 1.378 . S
C1714 C1715 1.367 . S
C1715 C1714 1.367 . S
C1715 C1717 1.433 . S
C1716 C1712 1.350 . S
C1716 C1713 1.463 1_655 S
C1716 N1720 1.427 . S
C1717 H1707 0.929 . S
C1717 C1715 1.433 . S
C1717 N1720 1.384 . S
C1718 H1709 0.929 1_455 S
C1718 C1710 1.378 . S
C1718 C1713 1.350 . S
C1719 H1706 0.929 . S
C1719 C1711 1.433 . S
C1719 N1721 1.384 . S
N1720 C1716 1.427 . S
N1720 C1717 1.384 . S
N1721 C1713 1.427 . S
N1721 C1719 1.384 . S
H1722 C1728 0.930 . S
H1723 C1732 0.930 . S
H1724 C1737 0.929 . S
H1725 C1735 0.929 . S
H1726 C1730 0.929 1_655 S
H1727 C1736 0.929 1_455 S
C1728 H1722 0.930 . S
C1728 C1729 1.367 . S
C1728 C1736 1.378 . S
C1729 C1728 1.367 . S
C1729 C1737 1.433 . S
C1730 H1726 0.929 1_455 S
C1730 C1732 1.378 . S
C1730 C1734 1.350 . S
C1731 C1734 1.463 1_655 S
C1731 C1736 1.350 . S
C1731 N1739 1.427 . S
C1732 H1723 0.930 . S
C1732 C1730 1.378 . S
C1732 C1733 1.367 . S
C1733 C1732 1.367 . S
C1733 C1735 1.433 . S
C1734 C1730 1.350 . S
C1734 C1731 1.463 1_455 S
C1734 N1738 1.427 . S
C1735 H1725 0.929 . S
C1735 C1733 1.433 . S
C1735 N1738 1.384 . S
C1736 H1727 0.929 1_655 S
C1736 C1728 1.378 . S
C1736 C1731 1.350 . S
C1737 H1724 0.929 . S
C1737 C1729 1.433 . S
C1737 N1739 1.384 . S
N1738 C1734 1.427 . S
N1738 C1735 1.384 . S
N1739 C1731 1.427 . S
N1739 C1737 1.384 . S
H1740 C1746 0.930 . S
H1741 C1750 0.930 . S
H1742 C1755 0.929 . S
H1743 C1753 0.929 . S
H1744 C1748 0.929 . S
H1745 C1754 0.929 . S
C1746 H1740 0.930 . S
C1746 C1747 1.367 . S
C1746 C1754 1.378 . S
C1747 C1746 1.367 . S
C1747 C1755 1.433 . S
C1748 H1744 0.929 . S
C1748 C1750 1.378 . S
C1748 C1752 1.350 . S
C1749 C1752 1.463 1_545 S
C1749 C1754 1.350 . S
C1749 N1757 1.427 . S
C1750 H1741 0.930 . S
C1750 C1748 1.378 . S
C1750 C1751 1.367 . S
C1751 C1750 1.367 . S
C1751 C1753 1.433 . S
C1752 C1748 1.350 . S
C1752 C1749 1.463 1_565 S
C1752 N1756 1.427 . S
C1753 H1743 0.929 . S
C1753 C1751 1.433 . S
C1753 N1756 1.384 . S
C1754 H1745 0.929 . S
C1754 C1746 1.378 . S
C1754 C1749 1.350 . S
C1755 H1742 0.929 . S
C1755 C1747 1.433 . S
C1755 N1757 1.384 . S
N1756 C1752 1.427 . S
N1756 C1753 1.384 . S
N1757 C1749 1.427 . S
N1757 C1755 1.384 . S
H1758 C1764 0.930 . S
H1759 C1768 0.930 . S
H1760 C1773 0.929 . S
H1761 C1771 0.929 . S
H1762 C1766 0.929 . S
H1763 C1772 0.929 . S
C1764 H1758 0.930 . S
C1764 C1765 1.367 . S
C1764 C1772 1.378 . S
C1765 C1764 1.367 . S
C1765 C1773 1.433 . S
C1766 H1762 0.929 . S
C1766 C1768 1.378 . S
C1766 C1770 1.350 . S
C1767 C1770 1.463 . S
C1767 C1772 1.350 . S
C1767 N1775 1.427 . S
C1768 H1759 0.930 . S
C1768 C1766 1.378 . S
C1768 C1769 1.367 . S
C1769 C1768 1.367 . S
C1769 C1771 1.433 . S
C1770 C1766 1.350 . S
C1770 C1767 1.463 . S
C1770 N1774 1.427 . S
C1771 H1761 0.929 . S
C1771 C1769 1.433 . S
C1771 N1774 1.384 . S
C1772 H1763 0.929 . S
C1772 C1764 1.378 . S
C1772 C1767 1.350 . S
C1773 H1760 0.929 . S
C1773 C1765 1.433 . S
C1773 N1775 1.384 . S
N1774 C1770 1.427 . S
N1774 C1771 1.384 . S
N1775 C1767 1.427 . S
N1775 C1773 1.384 . S
H1776 C1782 0.930 . S
H1777 C1786 0.930 . S
H1778 C1791 0.929 . S
H1779 C1789 0.929 . S
H1780 C1784 0.929 . S
H1781 C1790 0.929 . S
C1782 H1776 0.930 . S
C1782 C1783 1.367 . S
C1782 C1790 1.378 . S
C1783 C1782 1.367 . S
C1783 C1791 1.433 . S
C1784 H1780 0.929 . S
C1784 C1786 1.378 . S
C1784 C1788 1.350 . S
C1785 C1788 1.463 . S
C1785 C1790 1.350 . S
C1785 N1793 1.427 . S
C1786 H1777 0.930 . S
C1786 C1784 1.378 . S
C1786 C1787 1.367 . S
C1787 C1786 1.367 . S
C1787 C1789 1.433 . S
C1788 C1784 1.350 . S
C1788 C1785 1.463 . S
C1788 N1792 1.427 . S
C1789 H1779 0.929 . S
C1789 C1787 1.433 . S
C1789 N1792 1.384 . S
C1790 H1781 0.929 . S
C1790 C1782 1.378 . S
C1790 C1785 1.350 . S
C1791 H1778 0.929 . S
C1791 C1783 1.433 . S
C1791 N1793 1.384 . S
N1792 C1788 1.427 . S
N1792 C1789 1.384 . S
N1793 C1785 1.427 . S
N1793 C1791 1.384 . S
H1794 C1800 0.930 . S
H1795 C1804 0.930 . S
H1796 C1809 0.929 . S
H1797 C1807 0.929 . S
H1798 C1802 0.929 . S
H1799 C1808 0.929 . S
C1800 H1794 0.930 . S
C1800 C1801 1.367 . S
C1800 C1808 1.378 . S
C1801 C1800 1.367 . S
C1801 C1809 1.433 . S
C1802 H1798 0.929 . S
C1802 C1804 1.378 . S
C1802 C1806 1.350 . S
C1803 C1806 1.463 . S
C1803 C1808 1.350 . S
C1803 N1811 1.427 . S
C1804 H1795 0.930 . S
C1804 C1802 1.378 . S
C1804 C1805 1.367 . S
C1805 C1804 1.367 . S
C1805 C1807 1.433 . S
C1806 C1802 1.350 . S
C1806 C1803 1.463 . S
C1806 N1810 1.427 . S
C1807 H1797 0.929 . S
C1807 C1805 1.433 . S
C1807 N1810 1.384 . S
C1808 H1799 0.929 . S
C1808 C1800 1.378 . S
C1808 C1803 1.350 . S
C1809 H1796 0.929 . S
C1809 C1801 1.433 . S
C1809 N1811 1.384 . S
N1810 C1806 1.427 . S
N1810 C1807 1.384 . S
N1811 C1803 1.427 . S
N1811 C1809 1.384 . S
H1812 C1818 0.930 . S
H1813 C1822 0.930 . S
H1814 C1827 0.929 . S
H1815 C1825 0.929 . S
H1816 C1820 0.929 . S
H1817 C1826 0.929 . S
C1818 H1812 0.930 . S
C1818 C1819 1.367 . S
C1818 C1826 1.378 . S
C1819 C1818 1.367 . S
C1819 C1827 1.433 . S
C1820 H1816 0.929 . S
C1820 C1822 1.378 . S
C1820 C1824 1.350 . S
C1821 C1824 1.463 . S
C1821 C1826 1.350 . S
C1821 N1829 1.427 . S
C1822 H1813 0.930 . S
C1822 C1820 1.378 . S
C1822 C1823 1.367 . S
C1823 C1822 1.367 . S
C1823 C1825 1.433 . S
C1824 C1820 1.350 . S
C1824 C1821 1.463 . S
C1824 N1828 1.427 . S
C1825 H1815 0.929 . S
C1825 C1823 1.433 . S
C1825 N1828 1.384 . S
C1826 H1817 0.929 . S
C1826 C1818 1.378 . S
C1826 C1821 1.350 . S
C1827 H1814 0.929 . S
C1827 C1819 1.433 . S
C1827 N1829 1.384 . S
N1828 C1824 1.427 . S
N1828 C1825 1.384 . S
N1829 C1821 1.427 . S
N1829 C1827 1.384 . S
H1830 C1836 0.930 . S
H1831 C1840 0.930 . S
H1832 C1845 0.929 . S
H1833 C1843 0.929 . S
H1834 C1838 0.929 . S
H1835 C1844 0.929 . S
C1836 H1830 0.930 . S
C1836 C1837 1.367 . S
C1836 C1844 1.378 . S
C1837 C1836 1.367 . S
C1837 C1845 1.433 . S
C1838 H1834 0.929 . S
C1838 C1840 1.378 . S
C1838 C1842 1.350 . S
C1839 C1842 1.463 . S
C1839 C1844 1.350 . S
C1839 N1847 1.427 . S
C1840 H1831 0.930 . S
C1840 C1838 1.378 . S
C1840 C1841 1.367 . S
C1841 C1840 1.367 . S
C1841 C1843 1.433 . S
C1842 C1838 1.350 . S
C1842 C1839 1.463 . S
C1842 N1846 1.427 . S
C1843 H1833 0.929 . S
C1843 C1841 1.433 . S
C1843 N1846 1.384 . S
C1844 H1835 0.929 . S
C1844 C1836 1.378 . S
C1844 C1839 1.350 . S
C1845 H1832 0.929 . S
C1845 C1837 1.433 . S
C1845 N1847 1.384 . S
N1846 C1842 1.427 . S
N1846 C1843 1.384 . S
N1847 C1839 1.427 . S
N1847 C1845 1.384 . S
H1848 C1854 0.930 . S
H1849 C1858 0.930 . S
H1850 C1863 0.929 . S
H1851 C1861 0.929 . S
H1852 C1856 0.929 . S
H1853 C1862 0.929 . S
C1854 H1848 0.930 . S
C1854 C1855 1.367 . S
C1854 C1862 1.378 . S
C1855 C1854 1.367 . S
C1855 C1863 1.433 . S
C1856 H1852 0.929 . S
C1856 C1858 1.378 . S
C1856 C1860 1.350 . S
C1857 C1860 1.463 . S
C1857 C1862 1.350 . S
C1857 N1865 1.427 . S
C1858 H1849 0.930 . S
C1858 C1856 1.378 . S
C1858 C1859 1.367 . S
C1859 C1858 1.367 . S
C1859 C1861 1.433 . S
C1860 C1856 1.350 . S
C1860 C1857 1.463 . S
C1860 N1864 1.427 . S
C1861 H1851 0.929 . S
C1861 C1859 1.433 . S
C1861 N1864 1.384 . S
C1862 H1853 0.929 . S
C1862 C1854 1.378 . S
C1862 C1857 1.350 . S
C1863 H1850 0.929 . S
C1863 C1855 1.433 . S
C1863 N1865 1.384 . S
N1864 C1860 1.427 . S
N1864 C1861 1.384 . S
N1865 C1857 1.427 . S
N1865 C1863 1.384 . S
H1866 C1872 0.930 . S
H1867 C1876 0.930 . S
H1868 C1881 0.929 . S
H1869 C1879 0.929 . S
H1870 C1874 0.929 . S
H1871 C1880 0.929 . S
C1872 H1866 0.930 . S
C1872 C1873 1.367 . S
C1872 C1880 1.378 . S
C1873 C1872 1.367 . S
C1873 C1881 1.433 . S
C1874 H1870 0.929 . S
C1874 C1876 1.378 . S
C1874 C1878 1.350 . S
C1875 C1878 1.463 . S
C1875 C1880 1.350 . S
C1875 N1883 1.427 . S
C1876 H1867 0.930 . S
C1876 C1874 1.378 . S
C1876 C1877 1.367 . S
C1877 C1876 1.367 . S
C1877 C1879 1.433 . S
C1878 C1874 1.350 . S
C1878 C1875 1.463 . S
C1878 N1882 1.427 . S
C1879 H1869 0.929 . S
C1879 C1877 1.433 . S
C1879 N1882 1.384 . S
C1880 H1871 0.929 . S
C1880 C1872 1.378 . S
C1880 C1875 1.350 . S
C1881 H1868 0.929 . S
C1881 C1873 1.433 . S
C1881 N1883 1.384 . S
N1882 C1878 1.427 . S
N1882 C1879 1.384 . S
N1883 C1875 1.427 . S
N1883 C1881 1.384 . S
H1884 C1890 0.930 . S
H1885 C1894 0.930 . S
H1886 C1899 0.929 . S
H1887 C1897 0.929 . S
H1888 C1892 0.929 . S
H1889 C1898 0.929 . S
C1890 H1884 0.930 . S
C1890 C1891 1.367 . S
C1890 C1898 1.378 . S
C1891 C1890 1.367 . S
C1891 C1899 1.433 . S
C1892 H1888 0.929 . S
C1892 C1894 1.378 . S
C1892 C1896 1.350 . S
C1893 C1896 1.463 . S
C1893 C1898 1.350 . S
C1893 N1901 1.427 . S
C1894 H1885 0.930 . S
C1894 C1892 1.378 . S
C1894 C1895 1.367 . S
C1895 C1894 1.367 . S
C1895 C1897 1.433 . S
C1896 C1892 1.350 . S
C1896 C1893 1.463 . S
C1896 N1900 1.427 . S
C1897 H1887 0.929 . S
C1897 C1895 1.433 . S
C1897 N1900 1.384 . S
C1898 H1889 0.929 . S
C1898 C1890 1.378 . S
C1898 C1893 1.350 . S
C1899 H1886 0.929 . S
C1899 C1891 1.433 . S
C1899 N1901 1.384 . S
N1900 C1896 1.427 . S
N1900 C1897 1.384 . S
N1901 C1893 1.427 . S
N1901 C1899 1.384 . S
H1902 C1908 0.930 . S
H1903 C1912 0.930 . S
H1904 C1917 0.929 . S
H1905 C1915 0.929 . S
H1906 C1910 0.929 . S
H1907 C1916 0.929 . S
C1908 H1902 0.930 . S
C1908 C1909 1.367 . S
C1908 C1916 1.378 . S
C1909 C1908 1.367 . S
C1909 C1917 1.433 . S
C1910 H1906 0.929 . S
C1910 C1912 1.378 . S
C1910 C1914 1.350 . S
C1911 C1914 1.463 . S
C1911 C1916 1.350 . S
C1911 N1919 1.427 . S
C1912 H1903 0.930 . S
C1912 C1910 1.378 . S
C1912 C1913 1.367 . S
C1913 C1912 1.367 . S
C1913 C1915 1.433 . S
C1914 C1910 1.350 . S
C1914 C1911 1.463 . S
C1914 N1918 1.427 . S
C1915 H1905 0.929 . S
C1915 C1913 1.433 . S
C1915 N1918 1.384 . S
C1916 H1907 0.929 . S
C1916 C1908 1.378 . S
C1916 C1911 1.350 . S
C1917 H1904 0.929 . S
C1917 C1909 1.433 . S
C1917 N1919 1.384 . S
N1918 C1914 1.427 . S
N1918 C1915 1.384 . S
N1919 C1911 1.427 . S
N1919 C1917 1.384 . S
H1920 C1926 0.930 . S
H1921 C1930 0.930 . S
H1922 C1935 0.929 . S
H1923 C1933 0.929 . S
H1924 C1928 0.929 . S
H1925 C1934 0.929 . S
C1926 H1920 0.930 . S
C1926 C1927 1.367 . S
C1926 C1934 1.378 . S
C1927 C1926 1.367 . S
C1927 C1935 1.433 . S
C1928 H1924 0.929 . S
C1928 C1930 1.378 . S
C1928 C1932 1.350 . S
C1929 C1932 1.463 . S
C1929 C1934 1.350 . S
C1929 N1937 1.427 . S
C1930 H1921 0.930 . S
C1930 C1928 1.378 . S
C1930 C1931 1.367 . S
C1931 C1930 1.367 . S
C1931 C1933 1.433 . S
C1932 C1928 1.350 . S
C1932 C1929 1.463 . S
C1932 N1936 1.427 . S
C1933 H1923 0.929 . S
C1933 C1931 1.433 . S
C1933 N1936 1.384 . S
C1934 H1925 0.929 . S
C1934 C1926 1.378 . S
C1934 C1929 1.350 . S
C1935 H1922 0.929 . S
C1935 C1927 1.433 . S
C1935 N1937 1.384 . S
N1936 C1932 1.427 . S
N1936 C1933 1.384 . S
N1937 C1929 1.427 . S
N1937 C1935 1.384 . S
H1938 C1944 0.930 . S
H1939 C1948 0.930 . S
H1940 C1953 0.929 . S
H1941 C1951 0.929 . S
H1942 C1946 0.929 . S
H1943 C1952 0.929 . S
C1944 H1938 0.930 . S
C1944 C1945 1.367 . S
C1944 C1952 1.378 . S
C1945 C1944 1.367 . S
C1945 C1953 1.433 . S
C1946 H1942 0.929 . S
C1946 C1948 1.378 . S
C1946 C1950 1.350 . S
C1947 C1950 1.463 . S
C1947 C1952 1.350 . S
C1947 N1955 1.427 . S
C1948 H1939 0.930 . S
C1948 C1946 1.378 . S
C1948 C1949 1.367 . S
C1949 C1948 1.367 . S
C1949 C1951 1.433 . S
C1950 C1946 1.350 . S
C1950 C1947 1.463 . S
C1950 N1954 1.427 . S
C1951 H1941 0.929 . S
C1951 C1949 1.433 . S
C1951 N1954 1.384 . S
C1952 H1943 0.929 . S
C1952 C1944 1.378 . S
C1952 C1947 1.350 . S
C1953 H1940 0.929 . S
C1953 C1945 1.433 . S
C1953 N1955 1.384 . S
N1954 C1950 1.427 . S
N1954 C1951 1.384 . S
N1955 C1947 1.427 . S
N1955 C1953 1.384 . S
H1956 C1962 0.930 . S
H1957 C1966 0.930 . S
H1958 C1971 0.929 . S
H1959 C1969 0.929 . S
H1960 C1964 0.929 . S
H1961 C1970 0.929 . S
C1962 H1956 0.930 . S
C1962 C1963 1.367 . S
C1962 C1970 1.378 . S
C1963 C1962 1.367 . S
C1963 C1971 1.433 . S
C1964 H1960 0.929 . S
C1964 C1966 1.378 . S
C1964 C1968 1.350 . S
C1965 C1968 1.463 . S
C1965 C1970 1.350 . S
C1965 N1973 1.427 . S
C1966 H1957 0.930 . S
C1966 C1964 1.378 . S
C1966 C1967 1.367 . S
C1967 C1966 1.367 . S
C1967 C1969 1.433 . S
C1968 C1964 1.350 . S
C1968 C1965 1.463 . S
C1968 N1972 1.427 . S
C1969 H1959 0.929 . S
C1969 C1967 1.433 . S
C1969 N1972 1.384 . S
C1970 H1961 0.929 . S
C1970 C1962 1.378 . S
C1970 C1965 1.350 . S
C1971 H1958 0.929 . S
C1971 C1963 1.433 . S
C1971 N1973 1.384 . S
N1972 C1968 1.427 . S
N1972 C1969 1.384 . S
N1973 C1965 1.427 . S
N1973 C1971 1.384 . S
H1974 C1980 0.930 . S
H1975 C1984 0.930 . S
H1976 C1989 0.929 . S
H1977 C1987 0.929 . S
H1978 C1982 0.929 . S
H1979 C1988 0.929 . S
C1980 H1974 0.930 . S
C1980 C1981 1.367 . S
C1980 C1988 1.378 . S
C1981 C1980 1.367 . S
C1981 C1989 1.433 . S
C1982 H1978 0.929 . S
C1982 C1984 1.378 . S
C1982 C1986 1.350 . S
C1983 C1986 1.463 . S
C1983 C1988 1.350 . S
C1983 N1991 1.427 . S
C1984 H1975 0.930 . S
C1984 C1982 1.378 . S
C1984 C1985 1.367 . S
C1985 C1984 1.367 . S
C1985 C1987 1.433 . S
C1986 C1982 1.350 . S
C1986 C1983 1.463 . S
C1986 N1990 1.427 . S
C1987 H1977 0.929 . S
C1987 C1985 1.433 . S
C1987 N1990 1.384 . S
C1988 H1979 0.929 . S
C1988 C1980 1.378 . S
C1988 C1983 1.350 . S
C1989 H1976 0.929 . S
C1989 C1981 1.433 . S
C1989 N1991 1.384 . S
N1990 C1986 1.427 . S
N1990 C1987 1.384 . S
N1991 C1983 1.427 . S
N1991 C1989 1.384 . S
H1992 C1998 0.930 . S
H1993 C2002 0.930 . S
H1994 C2007 0.929 . S
H1995 C2005 0.929 . S
H1996 C2000 0.929 . S
H1997 C2006 0.929 . S
C1998 H1992 0.930 . S
C1998 C1999 1.367 . S
C1998 C2006 1.378 . S
C1999 C1998 1.367 . S
C1999 C2007 1.433 . S
C2000 H1996 0.929 . S
C2000 C2002 1.378 . S
C2000 C2004 1.350 . S
C2001 C2004 1.463 . S
C2001 C2006 1.350 . S
C2001 N2009 1.427 . S
C2002 H1993 0.930 . S
C2002 C2000 1.378 . S
C2002 C2003 1.367 . S
C2003 C2002 1.367 . S
C2003 C2005 1.433 . S
C2004 C2000 1.350 . S
C2004 C2001 1.463 . S
C2004 N2008 1.427 . S
C2005 H1995 0.929 . S
C2005 C2003 1.433 . S
C2005 N2008 1.384 . S
C2006 H1997 0.929 . S
C2006 C1998 1.378 . S
C2006 C2001 1.350 . S
C2007 H1994 0.929 . S
C2007 C1999 1.433 . S
C2007 N2009 1.384 . S
N2008 C2004 1.427 . S
N2008 C2005 1.384 . S
N2009 C2001 1.427 . S
N2009 C2007 1.384 . S
H2010 C2016 0.930 . S
H2011 C2020 0.930 . S
H2012 C2025 0.929 . S
H2013 C2023 0.929 . S
H2014 C2018 0.929 . S
H2015 C2024 0.929 . S
C2016 H2010 0.930 . S
C2016 C2017 1.367 . S
C2016 C2024 1.378 . S
C2017 C2016 1.367 . S
C2017 C2025 1.433 . S
C2018 H2014 0.929 . S
C2018 C2020 1.378 . S
C2018 C2022 1.350 . S
C2019 C2022 1.463 . S
C2019 C2024 1.350 . S
C2019 N2027 1.427 . S
C2020 H2011 0.930 . S
C2020 C2018 1.378 . S
C2020 C2021 1.367 . S
C2021 C2020 1.367 . S
C2021 C2023 1.433 . S
C2022 C2018 1.350 . S
C2022 C2019 1.463 . S
C2022 N2026 1.427 . S
C2023 H2013 0.929 . S
C2023 C2021 1.433 . S
C2023 N2026 1.384 . S
C2024 H2015 0.929 . S
C2024 C2016 1.378 . S
C2024 C2019 1.350 . S
C2025 H2012 0.929 . S
C2025 C2017 1.433 . S
C2025 N2027 1.384 . S
N2026 C2022 1.427 . S
N2026 C2023 1.384 . S
N2027 C2019 1.427 . S
N2027 C2025 1.384 . S
H2028 C2034 0.930 . S
H2029 C2038 0.930 . S
H2030 C2043 0.929 . S
H2031 C2041 0.929 . S
H2032 C2036 0.929 . S
H2033 C2042 0.929 . S
C2034 H2028 0.930 . S
C2034 C2035 1.367 . S
C2034 C2042 1.378 . S
C2035 C2034 1.367 . S
C2035 C2043 1.433 . S
C2036 H2032 0.929 . S
C2036 C2038 1.378 . S
C2036 C2040 1.350 . S
C2037 C2040 1.463 . S
C2037 C2042 1.350 . S
C2037 N2045 1.427 . S
C2038 H2029 0.930 . S
C2038 C2036 1.378 . S
C2038 C2039 1.367 . S
C2039 C2038 1.367 . S
C2039 C2041 1.433 . S
C2040 C2036 1.350 . S
C2040 C2037 1.463 . S
C2040 N2044 1.427 . S
C2041 H2031 0.929 . S
C2041 C2039 1.433 . S
C2041 N2044 1.384 . S
C2042 H2033 0.929 . S
C2042 C2034 1.378 . S
C2042 C2037 1.350 . S
C2043 H2030 0.929 . S
C2043 C2035 1.433 . S
C2043 N2045 1.384 . S
N2044 C2040 1.427 . S
N2044 C2041 1.384 . S
N2045 C2037 1.427 . S
N2045 C2043 1.384 . S
H2046 C2052 0.930 . S
H2047 C2056 0.930 . S
H2048 C2061 0.929 . S
H2049 C2059 0.929 . S
H2050 C2054 0.929 . S
H2051 C2060 0.929 . S
C2052 H2046 0.930 . S
C2052 C2053 1.367 . S
C2052 C2060 1.378 . S
C2053 C2052 1.367 . S
C2053 C2061 1.433 . S
C2054 H2050 0.929 . S
C2054 C2056 1.378 . S
C2054 C2058 1.350 . S
C2055 C2058 1.463 . S
C2055 C2060 1.350 . S
C2055 N2063 1.427 . S
C2056 H2047 0.930 . S
C2056 C2054 1.378 . S
C2056 C2057 1.367 . S
C2057 C2056 1.367 . S
C2057 C2059 1.433 . S
C2058 C2054 1.350 . S
C2058 C2055 1.463 . S
C2058 N2062 1.427 . S
C2059 H2049 0.929 . S
C2059 C2057 1.433 . S
C2059 N2062 1.384 . S
C2060 H2051 0.929 . S
C2060 C2052 1.378 . S
C2060 C2055 1.350 . S
C2061 H2048 0.929 . S
C2061 C2053 1.433 . S
C2061 N2063 1.384 . S
N2062 C2058 1.427 . S
N2062 C2059 1.384 . S
N2063 C2055 1.427 . S
N2063 C2061 1.384 . S
H2064 C2070 0.930 . S
H2065 C2074 0.930 . S
H2066 C2079 0.929 . S
H2067 C2077 0.929 . S
H2068 C2072 0.929 . S
H2069 C2078 0.929 . S
C2070 H2064 0.930 . S
C2070 C2071 1.367 . S
C2070 C2078 1.378 . S
C2071 C2070 1.367 . S
C2071 C2079 1.433 . S
C2072 H2068 0.929 . S
C2072 C2074 1.378 . S
C2072 C2076 1.350 . S
C2073 C2076 1.463 . S
C2073 C2078 1.350 . S
C2073 N2081 1.427 . S
C2074 H2065 0.930 . S
C2074 C2072 1.378 . S
C2074 C2075 1.367 . S
C2075 C2074 1.367 . S
C2075 C2077 1.433 . S
C2076 C2072 1.350 . S
C2076 C2073 1.463 . S
C2076 N2080 1.427 . S
C2077 H2067 0.929 . S
C2077 C2075 1.433 . S
C2077 N2080 1.384 . S
C2078 H2069 0.929 . S
C2078 C2070 1.378 . S
C2078 C2073 1.350 . S
C2079 H2066 0.929 . S
C2079 C2071 1.433 . S
C2079 N2081 1.384 . S
N2080 C2076 1.427 . S
N2080 C2077 1.384 . S
N2081 C2073 1.427 . S
N2081 C2079 1.384 . S
H2082 C2088 0.930 . S
H2083 C2092 0.930 . S
H2084 C2097 0.929 . S
H2085 C2095 0.929 . S
H2086 C2090 0.929 . S
H2087 C2096 0.929 . S
C2088 H2082 0.930 . S
C2088 C2089 1.367 . S
C2088 C2096 1.378 . S
C2089 C2088 1.367 . S
C2089 C2097 1.433 . S
C2090 H2086 0.929 . S
C2090 C2092 1.378 . S
C2090 C2094 1.350 . S
C2091 C2094 1.463 . S
C2091 C2096 1.350 . S
C2091 N2099 1.427 . S
C2092 H2083 0.930 . S
C2092 C2090 1.378 . S
C2092 C2093 1.367 . S
C2093 C2092 1.367 . S
C2093 C2095 1.433 . S
C2094 C2090 1.350 . S
C2094 C2091 1.463 . S
C2094 N2098 1.427 . S
C2095 H2085 0.929 . S
C2095 C2093 1.433 . S
C2095 N2098 1.384 . S
C2096 H2087 0.929 . S
C2096 C2088 1.378 . S
C2096 C2091 1.350 . S
C2097 H2084 0.929 . S
C2097 C2089 1.433 . S
C2097 N2099 1.384 . S
N2098 C2094 1.427 . S
N2098 C2095 1.384 . S
N2099 C2091 1.427 . S
N2099 C2097 1.384 . S
H2100 C2106 0.930 . S
H2101 C2110 0.930 . S
H2102 C2115 0.929 . S
H2103 C2113 0.929 . S
H2104 C2108 0.929 . S
H2105 C2114 0.929 . S
C2106 H2100 0.930 . S
C2106 C2107 1.367 . S
C2106 C2114 1.378 . S
C2107 C2106 1.367 . S
C2107 C2115 1.433 . S
C2108 H2104 0.929 . S
C2108 C2110 1.378 . S
C2108 C2112 1.350 . S
C2109 C2112 1.463 . S
C2109 C2114 1.350 . S
C2109 N2117 1.427 . S
C2110 H2101 0.930 . S
C2110 C2108 1.378 . S
C2110 C2111 1.367 . S
C2111 C2110 1.367 . S
C2111 C2113 1.433 . S
C2112 C2108 1.350 . S
C2112 C2109 1.463 . S
C2112 N2116 1.427 . S
C2113 H2103 0.929 . S
C2113 C2111 1.433 . S
C2113 N2116 1.384 . S
C2114 H2105 0.929 . S
C2114 C2106 1.378 . S
C2114 C2109 1.350 . S
C2115 H2102 0.929 . S
C2115 C2107 1.433 . S
C2115 N2117 1.384 . S
N2116 C2112 1.427 . S
N2116 C2113 1.384 . S
N2117 C2109 1.427 . S
N2117 C2115 1.384 . S
H2118 C2124 0.930 . S
H2119 C2128 0.930 . S
H2120 C2133 0.929 . S
H2121 C2131 0.929 . S
H2122 C2126 0.929 . S
H2123 C2132 0.929 . S
C2124 H2118 0.930 . S
C2124 C2125 1.367 . S
C2124 C2132 1.378 . S
C2125 C2124 1.367 . S
C2125 C2133 1.433 . S
C2126 H2122 0.929 . S
C2126 C2128 1.378 . S
C2126 C2130 1.350 . S
C2127 C2130 1.463 . S
C2127 C2132 1.350 . S
C2127 N2135 1.427 . S
C2128 H2119 0.930 . S
C2128 C2126 1.378 . S
C2128 C2129 1.367 . S
C2129 C2128 1.367 . S
C2129 C2131 1.433 . S
C2130 C2126 1.350 . S
C2130 C2127 1.463 . S
C2130 N2134 1.427 . S
C2131 H2121 0.929 . S
C2131 C2129 1.433 . S
C2131 N2134 1.384 . S
C2132 H2123 0.929 . S
C2132 C2124 1.378 . S
C2132 C2127 1.350 . S
C2133 H2120 0.929 . S
C2133 C2125 1.433 . S
C2133 N2135 1.384 . S
N2134 C2130 1.427 . S
N2134 C2131 1.384 . S
N2135 C2127 1.427 . S
N2135 C2133 1.384 . S
H2136 C2142 0.930 . S
H2137 C2146 0.930 . S
H2138 C2151 0.929 . S
H2139 C2149 0.929 . S
H2140 C2144 0.929 . S
H2141 C2150 0.929 . S
C2142 H2136 0.930 . S
C2142 C2143 1.367 . S
C2142 C2150 1.378 . S
C2143 C2142 1.367 . S
C2143 C2151 1.433 . S
C2144 H2140 0.929 . S
C2144 C2146 1.378 . S
C2144 C2148 1.350 . S
C2145 C2148 1.463 . S
C2145 C2150 1.350 . S
C2145 N2153 1.427 . S
C2146 H2137 0.930 . S
C2146 C2144 1.378 . S
C2146 C2147 1.367 . S
C2147 C2146 1.367 . S
C2147 C2149 1.433 . S
C2148 C2144 1.350 . S
C2148 C2145 1.463 . S
C2148 N2152 1.427 . S
C2149 H2139 0.929 . S
C2149 C2147 1.433 . S
C2149 N2152 1.384 . S
C2150 H2141 0.929 . S
C2150 C2142 1.378 . S
C2150 C2145 1.350 . S
C2151 H2138 0.929 . S
C2151 C2143 1.433 . S
C2151 N2153 1.384 . S
N2152 C2148 1.427 . S
N2152 C2149 1.384 . S
N2153 C2145 1.427 . S
N2153 C2151 1.384 . S
H2154 C2160 0.930 . S
H2155 C2164 0.930 . S
H2156 C2169 0.929 . S
H2157 C2167 0.929 . S
H2158 C2162 0.929 . S
H2159 C2168 0.929 . S
C2160 H2154 0.930 . S
C2160 C2161 1.367 . S
C2160 C2168 1.378 . S
C2161 C2160 1.367 . S
C2161 C2169 1.433 . S
C2162 H2158 0.929 . S
C2162 C2164 1.378 . S
C2162 C2166 1.350 . S
C2163 C2166 1.463 . S
C2163 C2168 1.350 . S
C2163 N2171 1.427 . S
C2164 H2155 0.930 . S
C2164 C2162 1.378 . S
C2164 C2165 1.367 . S
C2165 C2164 1.367 . S
C2165 C2167 1.433 . S
C2166 C2162 1.350 . S
C2166 C2163 1.463 . S
C2166 N2170 1.427 . S
C2167 H2157 0.929 . S
C2167 C2165 1.433 . S
C2167 N2170 1.384 . S
C2168 H2159 0.929 . S
C2168 C2160 1.378 . S
C2168 C2163 1.350 . S
C2169 H2156 0.929 . S
C2169 C2161 1.433 . S
C2169 N2171 1.384 . S
N2170 C2166 1.427 . S
N2170 C2167 1.384 . S
N2171 C2163 1.427 . S
N2171 C2169 1.384 . S
H2172 C2178 0.930 . S
H2173 C2182 0.930 . S
H2174 C2187 0.929 . S
H2175 C2185 0.929 . S
H2176 C2180 0.929 . S
H2177 C2186 0.929 . S
C2178 H2172 0.930 . S
C2178 C2179 1.367 . S
C2178 C2186 1.378 . S
C2179 C2178 1.367 . S
C2179 C2187 1.433 . S
C2180 H2176 0.929 . S
C2180 C2182 1.378 . S
C2180 C2184 1.350 . S
C2181 C2184 1.463 . S
C2181 C2186 1.350 . S
C2181 N2189 1.427 . S
C2182 H2173 0.930 . S
C2182 C2180 1.378 . S
C2182 C2183 1.367 . S
C2183 C2182 1.367 . S
C2183 C2185 1.433 . S
C2184 C2180 1.350 . S
C2184 C2181 1.463 . S
C2184 N2188 1.427 . S
C2185 H2175 0.929 . S
C2185 C2183 1.433 . S
C2185 N2188 1.384 . S
C2186 H2177 0.929 . S
C2186 C2178 1.378 . S
C2186 C2181 1.350 . S
C2187 H2174 0.929 . S
C2187 C2179 1.433 . S
C2187 N2189 1.384 . S
N2188 C2184 1.427 . S
N2188 C2185 1.384 . S
N2189 C2181 1.427 . S
N2189 C2187 1.384 . S
H2190 C2196 0.930 . S
H2191 C2200 0.930 . S
H2192 C2205 0.929 . S
H2193 C2203 0.929 . S
H2194 C2198 0.929 . S
H2195 C2204 0.929 . S
C2196 H2190 0.930 . S
C2196 C2197 1.367 . S
C2196 C2204 1.378 . S
C2197 C2196 1.367 . S
C2197 C2205 1.433 . S
C2198 H2194 0.929 . S
C2198 C2200 1.378 . S
C2198 C2202 1.350 . S
C2199 C2202 1.463 . S
C2199 C2204 1.350 . S
C2199 N2207 1.427 . S
C2200 H2191 0.930 . S
C2200 C2198 1.378 . S
C2200 C2201 1.367 . S
C2201 C2200 1.367 . S
C2201 C2203 1.433 . S
C2202 C2198 1.350 . S
C2202 C2199 1.463 . S
C2202 N2206 1.427 . S
C2203 H2193 0.929 . S
C2203 C2201 1.433 . S
C2203 N2206 1.384 . S
C2204 H2195 0.929 . S
C2204 C2196 1.378 . S
C2204 C2199 1.350 . S
C2205 H2192 0.929 . S
C2205 C2197 1.433 . S
C2205 N2207 1.384 . S
N2206 C2202 1.427 . S
N2206 C2203 1.384 . S
N2207 C2199 1.427 . S
N2207 C2205 1.384 . S
C703 C8 1.181 . S
C707 C166 1.126 . S
C721 C37 1.177 . S
C725 C21 1.114 . S
C739 C66 1.174 . S
C743 C50 1.109 . S
C757 C79 1.116 . S
C761 C95 1.169 . S
C775 C124 1.166 . S
C779 C108 1.104 . S
C793 C153 1.181 . S
C797 C137 1.128 . S
C811 C224 1.117 . S
C815 C182 1.179 . S
C829 C253 1.122 . S
C833 C211 1.180 . S
C847 C282 1.116 . S
C851 C240 1.169 . S
C865 C269 1.181 . S
C869 C311 1.125 . S
C883 C340 1.117 . S
C887 C298 1.178 . S
C901 C327 1.167 . S
C905 C195 1.110 . S
C919 C514 1.103 . S
C923 C356 1.167 . S
C937 C369 1.122 . S
C941 C385 1.180 . S
C955 C414 1.180 . S
C959 C398 1.121 . S
C973 C443 1.172 . S
C977 C427 1.122 . S
C991 C472 1.169 . S
C995 C456 1.116 . S
C1009 C501 1.174 . S
C1013 C485 1.124 . S
C1027 C572 1.129 . S
C1031 C530 1.181 . S
C1045 C601 1.129 . S
C1049 C559 1.178 . S
C1063 C588 1.168 . S
C1067 C630 1.103 . S
C1081 C617 1.180 . S
C1085 C659 1.129 . S
C1099 C646 1.177 . S
C1103 C688 1.115 . S
C1117 C543 1.105 . S
C1121 C675 1.166 . S
C1135 C10 1.420 . S
C1139 C445 1.436 . S
C1153 C39 1.433 . S
C1157 C474 1.423 . S
C1171 C68 1.419 . S
C1175 C503 1.437 . S
C1189 C358 1.426 . S
C1193 C97 1.431 . S
C1207 C126 1.429 . S
C1211 C387 1.427 . S
C1225 C155 1.438 . S
C1229 C416 1.419 . S
C1243 C619 1.437 . S
C1247 C184 1.419 . S
C1261 C648 1.437 . S
C1265 C213 1.419 . S
C1279 C677 1.437 . S
C1283 C242 1.419 . S
C1297 C532 1.419 . S
C1301 C271 1.437 . S
C1315 C300 1.420 . S
C1319 C561 1.436 . S
C1333 C329 1.421 . S
C1337 C590 1.436 . S
C1351 C5 1.441 . S
C1355 C237 1.443 . S
C1369 C34 1.433 . S
C1373 C266 1.440 . S
C1387 C63 1.433 . S
C1391 C295 1.430 . S
C1405 C92 1.430 . S
C1409 C324 1.432 . S
C1423 C121 1.440 . S
C1427 C179 1.433 . S
C1441 C150 1.441 . S
C1445 C208 1.435 . S
C1459 C585 1.442 . S
C1463 C353 1.443 . S
C1477 C382 1.443 . S
C1481 C614 1.441 . S
C1495 C643 1.443 . S
C1499 C411 1.438 . S
C1513 C440 1.433 . S
C1517 C672 1.439 . S
C1531 C469 1.439 . S
C1535 C527 1.443 . S
C1549 C498 1.430 . S
C1553 C556 1.435 . S
C1567 C15 1.170 . S
C1571 C102 1.163 . S
C1585 C131 1.170 . S
C1589 C44 1.155 . S
C1603 C73 1.161 . S
C1607 C160 1.171 . S
C1621 C276 1.159 . S
C1625 C189 1.171 . S
C1639 C305 1.170 . S
C1643 C218 1.163 . S
C1657 C247 1.161 . S
C1661 C334 1.171 . S
C1675 C450 1.161 . S
C1679 C363 1.154 . S
C1693 C479 1.163 . S
C1697 C392 1.170 . S
C1711 C421 1.171 . S
C1715 C508 1.161 . S
C1729 C624 1.160 . S
C1733 C537 1.171 . S
C1747 C566 1.161 . S
C1751 C653 1.154 . S
C1765 C682 1.153 . S
C1769 C595 1.167 . S
C1783 C61 2.226 . S
C1787 C13 2.152 . S
C1801 C42 2.159 . S
C1805 C90 2.236 . S
C1819 C119 2.232 . S
C1823 C71 2.151 . S
C1837 C148 2.232 . S
C1841 C100 2.151 . S
C1855 C129 2.156 . S
C1859 C3 2.235 . S
C1873 C158 2.151 . S
C1877 C32 2.226 . S
C1891 C187 2.161 . S
C1895 C293 2.235 . S
C1909 C322 2.235 . S
C1913 C216 2.161 . S
C1927 C177 2.234 . S
C1931 C245 2.153 . S
C1945 C274 2.161 . S
C1949 C206 2.235 . S
C1963 C303 2.161 . S
C1967 C235 2.232 . S
C1981 C332 2.154 . S
C1985 C264 2.227 . S
C1999 C361 2.158 . S
C2003 C409 2.229 . S
C2017 C390 2.154 . S
C2021 C438 2.227 . S
C2035 C419 2.161 . S
C2039 C467 2.235 . S
C2053 C496 2.234 . S
C2057 C448 2.155 . S
C2071 C477 2.154 . S
C2075 C351 2.227 . S
C2089 C380 2.230 . S
C2093 C506 2.149 . S
C2107 C535 2.156 . S
C2111 C641 2.235 . S
C2125 C670 2.230 . S
C2129 C564 2.159 . S
C2143 C593 2.150 . S
C2147 C525 2.232 . S
C2161 C554 2.226 . S
C2165 C622 2.151 . S
C2179 C583 2.228 . S
C2183 C651 2.148 . S
C2197 C680 2.152 . S
C2201 C612 2.233 . S
