# Generated by pormake.
# Topology rkf, (6)-cn, num edge types: 1
# Building blocks:
#     Node 0, Type 0, BuildingBlock: BETFAJ_clean_sbu_0, # of connection points: 6
#     Node 1, Type 0, BuildingBlock: BETFAJ_clean_sbu_0, # of connection points: 6
#     Node 2, Type 0, BuildingBlock: BETFAJ_clean_sbu_0, # of connection points: 6
#     Node 3, Type 0, BuildingBlock: BETFAJ_clean_sbu_0, # of connection points: 6
#     Node 4, Type 0, BuildingBlock: BETFAJ_clean_sbu_0, # of connection points: 6
#     Node 5, Type 0, BuildingBlock: BETFAJ_clean_sbu_0, # of connection points: 6
#     Edge 6, Type (0, 0), BuildingBlock: XIVTED_clean_linker_0, # of connection points: 2
#     Edge 7, Type (0, 0), BuildingBlock: XIVTED_clean_linker_0, # of connection points: 2
#     Edge 8, Type (0, 0), BuildingBlock: XIVTED_clean_linker_0, # of connection points: 2
#     Edge 9, Type (0, 0), BuildingBlock: XIVTED_clean_linker_0, # of connection points: 2
#     Edge 10, Type (0, 0), BuildingBlock: XIVTED_clean_linker_0, # of connection points: 2
#     Edge 11, Type (0, 0), BuildingBlock: XIVTED_clean_linker_0, # of connection points: 2
#     Edge 12, Type (0, 0), BuildingBlock: XIVTED_clean_linker_0, # of connection points: 2
#     Edge 13, Type (0, 0), BuildingBlock: XIVTED_clean_linker_0, # of connection points: 2
#     Edge 14, Type (0, 0), BuildingBlock: XIVTED_clean_linker_0, # of connection points: 2
#     Edge 15, Type (0, 0), BuildingBlock: XIVTED_clean_linker_0, # of connection points: 2
#     Edge 16, Type (0, 0), BuildingBlock: XIVTED_clean_linker_0, # of connection points: 2
#     Edge 17, Type (0, 0), BuildingBlock: XIVTED_clean_linker_0, # of connection points: 2
#     Edge 18, Type (0, 0), BuildingBlock: XIVTED_clean_linker_0, # of connection points: 2
#     Edge 19, Type (0, 0), BuildingBlock: XIVTED_clean_linker_0, # of connection points: 2
#     Edge 20, Type (0, 0), BuildingBlock: XIVTED_clean_linker_0, # of connection points: 2
#     Edge 21, Type (0, 0), BuildingBlock: XIVTED_clean_linker_0, # of connection points: 2
#     Edge 22, Type (0, 0), BuildingBlock: XIVTED_clean_linker_0, # of connection points: 2
#     Edge 23, Type (0, 0), BuildingBlock: XIVTED_clean_linker_0, # of connection points: 2
# Relax obj value: 0.714
# Max RMSD: 0.248
# Mean RMSD: 0.248
data_MOF--net-rkf--node1-BETFAJ_clean_sbu_0--edge1-XIVTED_clean_linker_0
_symmetry_space_group_name_H-M    P1
_symmetry_Int_Tables_number       1
_symmetry_cell_setting            triclinic
loop_
_symmetry_equiv_pos_as_xyz
'x, y, z'
_cell_length_a     25.957761
_cell_length_b     26.20659
_cell_length_c     43.174229
_cell_angle_alpha  90.20584
_cell_angle_beta   90.248591
_cell_angle_gamma 119.28585
loop_
_atom_site_label
_atom_site_type_symbol
_atom_site_fract_x
_atom_site_fract_y
_atom_site_fract_z
_atom_type_partial_charge
Sm0 Sm 0.33673 0.06954 0.19197 0.0
Sm1 Sm 0.30302 0.15412 1.17215 0.0
C2 C 0.39215 0.01439 0.21364 0.0
C3 C 0.37685 -0.036 0.23408 0.0
C4 C 0.36872 0.91122 0.22117 0.0
C5 C 0.34358 0.86 0.23862 0.0
C6 C 0.32708 0.86095 0.26943 0.0
C7 C 0.33998 0.91473 0.28311 0.0
C8 C 0.36447 -0.03418 0.26557 0.0
C9 C 0.2169 0.01773 0.18907 0.0
C10 C 0.31062 0.15007 0.24495 0.0
C11 C 0.27591 0.22958 1.14655 0.0
C12 C 0.30567 0.29339 1.14107 0.0
C13 C 0.33661 0.31635 1.11346 0.0
C14 C 0.35864 0.37516 1.1063 0.0
C15 C 0.34996 0.4126 1.12647 0.0
C16 C 0.32262 0.39054 1.15512 0.0
C17 C 0.30043 0.33143 1.16229 0.0
C18 C 0.42419 0.195 0.17704 0.0
C19 C 0.29031 0.05818 1.12171 0.0
O20 O 0.39747 0.06227 0.22612 0.0
O21 O 0.36372 0.00174 0.18731 0.0
O22 O 0.24992 0.06921 0.19882 0.0
O23 O 0.24579 -0.00975 0.18341 0.0
O24 O 0.33938 0.12054 0.23883 0.0
O25 O 0.28322 0.1607 0.22243 0.0
O26 O 0.29489 0.19947 1.13078 0.0
O27 O 0.26266 0.21176 0.1751 0.0
O28 O 0.38646 0.14954 1.16384 0.0
O29 O 0.39798 0.21996 0.19054 0.0
O30 O 0.26249 0.08452 1.13325 0.0
O31 O 0.33307 0.05751 1.13824 0.0
H32 H 0.37869 0.90889 0.19703 0.0
H33 H 0.33447 0.81918 0.22762 0.0
H34 H 0.3272 0.91668 0.30675 0.0
H35 H 0.37063 0.00588 0.27627 0.0
H36 H 0.34147 0.28834 1.09658 0.0
H37 H 0.37833 0.38985 1.08375 0.0
H38 H 0.31556 0.41819 1.17128 0.0
H39 H 0.27709 0.31513 0.18388 0.0
Sm40 Sm 0.2727 0.30975 0.52899 0.0
Sm41 Sm 0.23312 0.38714 0.50234 0.0
C42 C 0.33567 0.25896 0.54476 0.0
C43 C 0.38124 0.2592 0.56517 0.0
C44 C 0.42864 0.25606 0.55161 0.0
C45 C 0.46734 0.24608 0.56981 0.0
C46 C 0.45914 0.23891 0.60195 0.0
C47 C 0.41415 0.24641 0.61574 0.0
C48 C 0.37541 0.25639 0.59748 0.0
C49 C 0.15472 0.24984 0.51284 0.0
C50 C 0.20383 0.35126 0.57479 0.0
C51 C 0.1949 0.45349 0.47585 0.0
C52 C 0.17334 0.46962 0.44817 0.0
C53 C 0.18947 0.4615 0.41841 0.0
C54 C 0.17171 0.48107 0.39258 0.0
C55 C 0.13753 0.50909 0.39609 0.0
C56 C 0.12164 0.5172 0.42601 0.0
C57 C 0.13957 0.49771 0.45184 0.0
C58 C 0.33675 0.44361 0.53645 0.0
C59 C 0.27614 0.31708 0.45299 0.0
O60 O 0.35291 0.30065 0.52441 0.0
O61 O 0.28345 0.24349 0.55605 0.0
O62 O 0.19495 0.28944 0.49699 0.0
O63 O 0.17647 0.24431 0.53891 0.0
O64 O 0.25156 0.34517 0.57372 0.0
O65 O 0.18082 0.3578 0.54863 0.0
O66 O 0.15948 0.40439 0.48985 0.0
O67 O 0.25014 0.4656 0.47584 0.0
O68 O 0.32367 0.40378 0.51691 0.0
O69 O 0.29506 0.45679 0.53833 0.0
O70 O 0.25889 0.3571 0.45593 0.0
O71 O 0.28138 0.29056 0.47772 0.0
H72 H 0.43399 0.25836 0.52668 0.0
H73 H 0.50186 0.24108 0.55858 0.0
H74 H 0.40616 0.24046 0.6404 0.0
H75 H 0.33932 0.25895 0.60849 0.0
H76 H 0.21578 0.44013 0.41516 0.0
H77 H 0.18347 0.47288 0.36979 0.0
H78 H 0.0954 0.53859 0.42943 0.0
H79 H 0.12743 0.50498 0.47475 0.0
Sm80 Sm 0.02568 0.29339 0.85751 0.0
Sm81 Sm 0.89984 0.2344 0.83596 0.0
C82 C 0.13204 0.3552 0.88306 0.0
C83 C 0.16202 0.39739 0.90814 0.0
C84 C 0.13086 0.41474 0.92802 0.0
C85 C 0.16053 0.45549 0.95163 0.0
C86 C 0.22164 0.47795 0.95649 0.0
C87 C 0.25258 0.46096 0.93588 0.0
C88 C 0.22306 0.42145 0.91183 0.0
C89 C -0.0069 0.19128 0.82583 0.0
C90 C 0.92025 0.21247 0.90733 0.0
C91 C 0.79137 0.18071 0.8122 0.0
C92 C 0.7574 0.16306 0.78323 0.0
C93 C 0.78565 0.17422 0.75455 0.0
C94 C 0.7522 0.1564 0.72725 0.0
C95 C 0.68995 0.12723 0.72822 0.0
C96 C 0.66207 0.11757 0.75712 0.0
C97 C 0.69561 0.13543 0.78439 0.0
C98 C 0.93779 0.33808 0.86775 0.0
C99 C 0.00654 0.30259 0.78419 0.0
O100 O 0.11297 0.37378 0.86012 0.0
O101 O 0.09482 0.30141 0.89093 0.0
O102 O -0.03859 0.19782 0.84581 0.0
O103 O 0.04379 0.23799 0.82375 0.0
O104 O -0.02721 0.2598 0.90398 0.0
O105 O 0.88586 0.1881 0.88291 0.0
O106 O 0.82012 0.15323 0.81997 0.0
O107 O 0.82121 0.23686 0.81775 0.0
O108 O -0.03459 0.32839 0.84695 0.0
O109 O 0.88678 0.29269 0.87235 0.0
O110 O -0.04884 0.26079 0.78868 0.0
O111 O 0.04131 0.32975 0.80807 0.0
H112 H 0.08352 0.39601 0.92565 0.0
H113 H 0.13513 0.46797 0.96657 0.0
H114 H 0.29918 0.47581 0.93906 0.0
H115 H 0.24774 0.40853 0.89655 0.0
H116 H 0.83341 0.19583 0.75331 0.0
H117 H 0.77518 0.1635 0.70547 0.0
H118 H 0.61438 0.09553 0.7587 0.0
H119 H 0.67324 0.12711 0.80646 0.0
Sm120 Sm 0.82112 0.06649 0.19523 0.0
Sm121 Sm 0.71459 0.96016 0.18096 0.0
C122 C 0.90031 0.16914 0.21787 0.0
C123 C 0.91773 0.23137 0.215 0.0
C124 C 0.87554 0.25028 0.21453 0.0
C125 C 0.89327 0.30967 0.21825 0.0
C126 C -0.04664 0.35084 0.22245 0.0
C127 C -0.00445 0.33205 0.21959 0.0
C128 C -0.02221 0.27282 0.21602 0.0
C129 C 0.84547 -0.01532 1.1689 0.0
C130 C 0.77107 0.96141 0.24844 0.0
C131 C 0.62329 0.86347 1.15849 0.0
C132 C 0.61259 0.81858 1.13494 0.0
C133 C 0.63336 0.83423 1.10461 0.0
C134 C 0.62829 0.79161 1.08352 0.0
C135 C 0.60283 0.73264 1.0924 0.0
C136 C 0.57989 0.71671 1.12237 0.0
C137 C 0.58448 0.7594 1.14344 0.0
C138 C 0.69454 0.04611 0.20656 0.0
C139 C 0.78458 0.05276 1.12462 0.0
O140 O 0.9111 0.14433 0.19436 0.0
O141 O 0.84951 0.1355 0.23107 0.0
O142 O 0.80648 -0.02593 0.18895 0.0
O143 O 0.87381 0.04012 1.16288 0.0
O144 O 0.80462 0.01804 0.24295 0.0
O145 O 0.73479 0.927 0.22663 0.0
O146 O 0.65394 0.86417 0.18265 0.0
O147 O 0.63809 0.91594 1.14874 0.0
O148 O 0.73063 0.05307 0.18557 0.0
O149 O 0.66799 -0.00783 0.21541 0.0
O150 O 0.75578 -0.00362 1.13192 0.0
O151 O 0.80429 0.09201 1.14707 0.0
H152 H 0.8288 0.21895 0.21319 0.0
H153 H 0.85979 0.32281 0.21999 0.0
H154 H 0.04216 0.3622 0.22304 0.0
H155 H 0.01096 0.25906 0.21616 0.0
H156 H 0.65552 0.87957 1.09745 0.0
H157 H 0.64741 0.80545 1.06076 0.0
H158 H 0.56 0.67159 1.12977 0.0
H159 H 0.56797 0.74647 1.16673 0.0
Sm160 Sm 0.84743 0.80907 0.52633 0.0
Sm161 Sm 0.86644 0.71876 0.498 0.0
C162 C 0.81145 0.87957 0.54963 0.0
C163 C 0.76767 0.89952 0.5465 0.0
C164 C 0.7068 0.85994 0.54456 0.0
C165 C 0.66596 0.87966 0.54868 0.0
C166 C 0.68545 0.9391 0.55505 0.0
C167 C 0.74644 -0.02095 0.55379 0.0
C168 C 0.78704 0.95936 0.5496 0.0
C169 C -0.03613 0.8502 0.50944 0.0
C170 C 0.90412 0.75101 0.57036 0.0
C171 C 0.89134 0.64388 0.46941 0.0
C172 C 0.92278 0.63679 0.44311 0.0
C173 C 0.9322 0.66899 0.41587 0.0
C174 C -0.03103 0.66699 0.39291 0.0
C175 C -0.00275 0.63333 0.39711 0.0
C176 C -0.01454 0.59913 0.42382 0.0
C177 C 0.94833 0.60077 0.4466 0.0
C178 C 0.76228 0.67653 0.53065 0.0
C179 C 0.82799 0.79546 0.45131 0.0
O180 O 0.85271 0.89636 0.52868 0.0
O181 O 0.79277 0.82613 0.55938 0.0
O182 O 0.91927 0.81646 0.49358 0.0
O183 O 0.94687 0.85773 0.53646 0.0
O184 O 0.86365 0.76756 0.5698 0.0
O185 O 0.92196 0.73948 0.54387 0.0
O186 O 0.92477 0.68035 0.49099 0.0
O187 O 0.8433 0.64693 0.46378 0.0
O188 O 0.78194 0.71818 0.51198 0.0
O189 O 0.79714 0.65462 0.53244 0.0
O190 O 0.84931 0.75851 0.45271 0.0
O191 O 0.81812 0.8167 0.47698 0.0
H192 H 0.69075 0.81351 0.54176 0.0
H193 H 0.61935 0.84785 0.54895 0.0
H194 H 0.76354 0.02504 0.55889 0.0
H195 H 0.83382 -0.0094 0.55104 0.0
H196 H 0.91318 0.6974 0.41293 0.0
H197 H -0.02196 0.69449 0.37275 0.0
H198 H 0.0066 0.57278 0.42754 0.0
H199 H 0.94145 0.57569 0.46758 0.0
Sm200 Sm 0.05936 0.80026 0.85294 0.0
Sm201 Sm 0.18499 0.83782 0.84022 0.0
C202 C 0.94787 0.75433 0.87037 0.0
C203 C 0.90651 0.72117 0.89513 0.0
C204 C 0.8514 0.67391 0.88693 0.0
C205 C 0.80838 0.6453 0.9094 0.0
C206 C 0.81974 0.66372 0.94047 0.0
C207 C 0.87634 0.70902 0.94887 0.0
C208 C 0.91946 0.73751 0.92636 0.0
C209 C 0.11468 0.90269 0.81983 0.0
C210 C 0.15814 0.87052 0.90837 0.0
C211 C 0.29535 0.87493 0.82253 0.0
C212 C 0.3365 0.90392 0.79713 0.0
C213 C 0.31595 0.90451 0.76717 0.0
C214 C 0.35578 0.93752 0.7441 0.0
C215 C 0.41665 -0.02925 0.75075 0.0
C216 C 0.43713 -0.03196 0.78052 0.0
C217 C 0.39726 0.93475 0.80353 0.0
C218 C 0.1268 0.73765 0.87492 0.0
C219 C 0.08696 0.781 0.78286 0.0
O220 O -0.03229 0.7261 0.85375 0.0
O221 O -0.0124 0.80878 0.87595 0.0
O222 O 0.13723 0.89047 0.84259 0.0
O223 O 0.06185 0.86043 0.81459 0.0
O224 O 0.1023 0.83155 0.90212 0.0
O225 O 0.19866 0.8868 0.88659 0.0
O226 O 0.27872 0.9073 0.838 0.0
O227 O 0.25234 0.82168 0.8175 0.0
O228 O 0.10699 0.74966 0.85123 0.0
O229 O 0.18117 0.77658 0.87986 0.0
O230 O 0.14277 0.8189 0.79002 0.0
O231 O 0.04772 0.75786 0.80509 0.0
H232 H 0.84088 0.66039 0.86292 0.0
H233 H 0.76553 0.61013 0.90228 0.0
H234 H 0.88634 0.72478 0.97255 0.0
H235 H -0.03803 0.77358 0.93323 0.0
H236 H 0.26908 0.88121 0.76192 0.0
H237 H 0.33849 0.93956 0.72154 0.0
H238 H 0.48372 -0.00694 0.78625 0.0
H239 H 0.41371 0.93461 0.82662 0.0
H240 H 0.90926 -0.02097 1.12085 0.0
H241 H 0.14472 0.0327 0.22888 0.0
H242 H 0.85664 0.91906 0.21427 0.0
H243 H 0.14442 0.93944 1.14633 0.0
H244 H 0.03756 -0.00878 0.22351 0.0
H245 H -0.00846 0.95885 1.12625 0.0
C246 C 0.91363 0.95919 1.14197 0.0
C247 C 0.87728 0.95165 1.16734 0.0
C248 C 0.06083 -0.02129 0.20704 0.0
C249 C -0.02846 0.93098 0.17402 0.0
C250 C 0.12172 0.00289 0.20988 0.0
C251 C 0.15262 -0.01051 0.18786 0.0
C252 C 0.03157 0.943 0.18137 0.0
C253 C 0.12143 0.95052 1.16367 0.0
C254 C -0.03959 0.94773 1.14505 0.0
C255 C 0.88439 0.92602 0.19431 0.0
N256 N 0.06243 0.92978 1.16047 0.0
N257 N 0.93241 0.91879 0.19746 0.0
H258 H -0.03124 0.88965 0.45022 0.0
H259 H 0.15315 0.21241 0.45323 0.0
H260 H 0.06601 0.93055 0.53643 0.0
H261 H 0.05884 0.1624 0.53969 0.0
H262 H 0.11548 0.10863 0.44075 0.0
H263 H 0.01292 -0.00556 0.43966 0.0
C264 C 0.00192 0.92043 0.46611 0.0
C265 C 0.01205 0.90197 0.495 0.0
C266 C 0.10151 0.12073 0.46183 0.0
C267 C 0.06113 0.01996 0.4831 0.0
C268 C 0.12214 0.17966 0.46886 0.0
C269 C 0.11036 0.19557 0.49808 0.0
C270 C 0.06927 0.07896 0.48423 0.0
C271 C 0.06974 0.15168 0.51728 0.0
C272 C 0.02644 -0.01991 0.46012 0.0
C273 C 0.0559 0.94336 0.51439 0.0
N274 N 0.05233 0.09512 0.51055 0.0
N275 N 0.07704 0.0009 0.50875 0.0
H276 H 0.10014 0.94558 0.76581 0.0
H277 H -0.02848 0.10514 0.86652 0.0
H278 H 0.14394 -0.01124 0.8623 0.0
H279 H 0.01775 0.15766 0.77162 0.0
H280 H 0.01558 0.04159 0.86182 0.0
H281 H 0.06238 0.01485 0.76378 0.0
C282 C 0.10455 -0.02803 0.78609 0.0
C283 C 0.12422 0.96132 0.81435 0.0
C284 C 0.0149 0.0662 0.84186 0.0
C285 C 0.07844 0.03667 0.81268 0.0
C286 C -0.01166 0.10095 0.84428 0.0
C287 C -0.00862 0.13618 0.81938 0.0
C288 C 0.04353 0.06658 0.81429 0.0
C289 C 0.01469 0.13055 0.79118 0.0
C290 C 0.08194 0.01033 0.78509 0.0
C291 C 0.12874 -0.00425 0.84014 0.0
N292 N 0.04078 0.09677 0.78941 0.0
N293 N 0.10396 0.0307 0.83899 0.0
H294 H 0.43819 0.49352 1.08915 0.0
H295 H 0.3382 0.56431 0.9654 0.0
H296 H 0.27804 0.46056 1.13551 0.0
H297 H 0.17314 0.46861 1.01409 0.0
H298 H 0.39005 0.59202 1.01512 0.0
H299 H 0.42163 0.55224 1.05132 0.0
C300 C 0.40063 0.50046 1.09207 0.0
C301 C 0.35741 0.46886 1.11433 0.0
C302 C 0.34243 0.56563 1.01491 0.0
C303 C 0.33795 0.53642 1.07116 0.0
C304 C 0.31264 0.54965 0.98645 0.0
C305 C 0.2513 0.51113 0.98529 0.0
C306 C 0.31047 0.5426 1.04231 0.0
C307 C 0.22045 0.49692 1.01338 0.0
C308 C 0.39119 0.53451 1.07041 0.0
C309 C 0.31145 0.48199 1.11802 0.0
N310 N 0.25049 0.51154 1.04062 0.0
N311 N 0.30178 0.51309 1.09596 0.0
H312 H 0.19544 0.56071 0.3424 0.0
H313 H 0.05197 0.45757 0.21095 0.0
H314 H 0.02591 0.49228 0.38652 0.0
H315 H 0.89666 0.37629 0.26809 0.0
H316 H 0.09977 0.53466 0.24966 0.0
H317 H 0.14956 0.55812 0.293 0.0
C318 C 0.14854 0.54611 0.34168 0.0
C319 C 0.114 0.52409 0.36831 0.0
C320 C 0.05505 0.5005 0.25379 0.0
C321 C 0.06021 0.52034 0.31157 0.0
C322 C 0.02738 0.45674 0.23133 0.0
C323 C -0.02848 0.40861 0.23708 0.0
C324 C 0.02688 0.49486 0.28236 0.0
C325 C 0.94061 0.41134 0.26304 0.0
C326 C 0.12203 0.54485 0.31332 0.0
C327 C 0.05406 0.50817 0.36641 0.0
N328 N -0.03058 0.45256 0.2852 0.0
N329 N 0.02882 0.50512 0.33838 0.0
H330 H 0.59021 0.02044 0.7205 0.0
H331 H 0.59598 0.8782 0.59606 0.0
H332 H 0.70898 0.17551 0.67014 0.0
H333 H 0.68403 0.04333 0.54838 0.0
H334 H 0.56164 0.92127 0.63418 0.0
H335 H 0.55022 -0.03021 0.67183 0.0
C336 C 0.6074 0.04423 0.69915 0.0
C337 C 0.65509 0.10158 0.69942 0.0
C338 C 0.58693 0.94839 0.61512 0.0
C339 C 0.61183 0.04243 0.6432 0.0
C340 C 0.60635 0.92317 0.59284 0.0
C341 C 0.64553 0.95786 0.56967 0.0
C342 C 0.60778 0.00908 0.61455 0.0
C343 C 0.65634 0.01562 0.56675 0.0
C344 C 0.58509 0.01478 0.67112 0.0
C345 C 0.67419 0.13038 0.67101 0.0
N346 N 0.63935 0.03998 0.58955 0.0
N347 N 0.65358 0.10007 0.64407 0.0
H348 H 0.63812 0.65305 1.10744 0.0
H349 H 0.82213 0.63718 1.0018 0.0
H350 H 0.58035 0.7165 1.03008 0.0
H351 H 0.70664 0.64198 0.93105 0.0
H352 H 0.75 0.62567 1.04076 0.0
H353 H 0.67309 0.60509 1.07136 0.0
C354 C 0.63158 0.65578 1.08283 0.0
C355 C 0.60811 0.69041 1.07163 0.0
C356 C 0.73902 0.62688 1.0167 0.0
C357 C 0.65078 0.63832 1.03022 0.0
C358 C 0.78081 0.63422 0.99441 0.0
C359 C 0.77101 0.64181 0.96321 0.0
C360 C 0.6872 0.62757 1.00767 0.0
C361 C 0.71628 0.63653 0.95484 0.0
C362 C 0.65259 0.62923 1.06218 0.0
C363 C 0.60005 0.69183 1.0396 0.0
N364 N 0.67709 0.63111 0.97701 0.0
N365 N 0.62248 0.66723 1.01999 0.0
H366 H -0.00464 0.63119 0.33366 0.0
H367 H 0.33522 0.83154 0.32946 0.0
H368 H 0.1076 0.65319 0.41229 0.0
H369 H 0.22886 0.76607 0.24658 0.0
H370 H 0.25609 0.75304 0.35891 0.0
H371 H 0.08115 0.66581 0.29985 0.0
C372 C 0.03794 0.64231 0.34367 0.0
C373 C 0.04477 0.64059 0.37579 0.0
C374 C 0.25061 0.75481 0.33413 0.0
C375 C 0.14313 0.68115 0.33753 0.0
C376 C 0.29577 0.79969 0.31737 0.0
C377 C 0.28803 0.80585 0.28572 0.0
C378 C 0.19695 0.7169 0.31921 0.0
C379 C 0.23647 0.76308 0.27102 0.0
C380 C 0.08689 0.66191 0.32442 0.0
C381 C 0.10057 0.65438 0.38764 0.0
N382 N 0.19222 0.72123 0.28803 0.0
N383 N 0.14793 0.67542 0.36858 0.0
H384 H 0.50052 0.08461 0.76117 0.0
H385 H 0.48169 0.1512 0.58503 0.0
H386 H 0.42308 0.95538 0.6883 0.0
H387 H 0.50548 0.26871 0.66086 0.0
H388 H 0.50484 0.0922 0.61992 0.0
H389 H 0.54544 0.16086 0.72208 0.0
C390 C 0.49444 0.07199 0.73695 0.0
C391 C 0.4566 0.01377 0.7279 0.0
C392 C 0.50661 0.13181 0.62871 0.0
C393 C 0.50694 0.10084 0.68326 0.0
C394 C 0.49379 0.16585 0.60877 0.0
C395 C 0.48996 0.21409 0.6203 0.0
C396 C 0.51508 0.14584 0.66037 0.0
C397 C 0.50611 0.23078 0.65128 0.0
C398 C 0.51987 0.11564 0.71468 0.0
C399 C 0.45046 1e-05 0.69622 0.0
N400 N 0.51666 0.19592 0.67046 0.0
N401 N 0.4743 0.04343 0.67499 0.0
H402 H 0.51144 0.20737 1.13902 0.0
H403 H 0.6053 0.03362 0.24513 0.0
H404 H 0.46362 0.19116 0.2353 0.0
H405 H 0.72538 0.14757 0.17586 0.0
H406 H 0.55263 0.09005 0.24328 0.0
H407 H 0.59159 0.18732 1.15211 0.0
C408 C 0.51933 0.2016 1.16309 0.0
C409 C 0.4816 0.20141 0.18618 0.0
C410 C 0.5914 0.10344 0.22907 0.0
C411 C 0.57073 0.17531 0.20112 0.0
C412 C 0.62125 0.07116 0.23002 0.0
C413 C 0.66909 0.08538 0.21024 0.0
C414 C 0.60897 0.14933 0.20779 0.0
C415 C 0.68818 0.13461 0.19119 0.0
C416 C 0.56473 0.18982 1.17055 0.0
C417 C 0.49247 0.19232 0.21696 0.0
N418 N 0.65726 0.164 0.18992 0.0
N419 N 0.53513 0.17789 0.2235 0.0
H420 H 0.41421 0.40642 0.55093 0.0
H421 H 0.68463 0.71801 0.52883 0.0
H422 H 0.39562 0.56102 0.54905 0.0
H423 H 0.70287 0.57139 0.55986 0.0
H424 H 0.57986 0.6647 0.54202 0.0
H425 H 0.51981 0.46738 0.56063 0.0
C426 C 0.43246 0.4533 0.5531 0.0
C427 C 0.39685 0.47907 0.54867 0.0
C428 C 0.60693 0.64456 0.54652 0.0
C429 C 0.51751 0.54924 0.55912 0.0
C430 C 0.66662 0.6749 0.5389 0.0
C431 C 0.70184 0.64845 0.54276 0.0
C432 C 0.58232 0.58704 0.55752 0.0
C433 C 0.67682 0.59287 0.55612 0.0
C434 C 0.49267 0.48812 0.55874 0.0
C435 C 0.42204 0.53976 0.55214 0.0
N436 N 0.6182 0.56347 0.5625 0.0
N437 N 0.48135 0.57312 0.55645 0.0
H438 H 0.05243 0.41742 0.87303 0.0
H439 H 0.00836 0.66601 0.87568 0.0
H440 H 0.88013 0.38422 0.90139 0.0
H441 H 0.17089 0.68581 0.91363 0.0
H442 H -0.04351 0.5658 0.89405 0.0
H443 H 0.09602 0.51369 0.89609 0.0
C444 C 0.02394 0.43003 0.88486 0.0
C445 C -0.03708 0.39308 0.88528 0.0
C446 C 0.00305 0.59258 0.89945 0.0
C447 C 0.01188 0.50497 0.91035 0.0
C448 C 0.03278 0.64964 0.88862 0.0
C449 C 0.09411 0.6831 0.89216 0.0
C450 C 0.03561 0.56851 0.91272 0.0
C451 C 0.1237 0.66049 0.90966 0.0
C452 C 0.04884 0.48506 0.89825 0.0
C453 C 0.92759 0.41193 0.90048 0.0
N454 N 0.09444 0.60359 0.91845 0.0
N455 N -0.04756 0.46777 0.91153 0.0
H456 H 0.35421 0.13711 0.30241 0.0
H457 H 0.25004 0.34135 0.39407 0.0
H458 H 0.26232 0.21891 0.26008 0.0
H459 H 0.32185 0.24423 0.44039 0.0
H460 H 0.26033 0.30129 0.34434 0.0
H461 H 0.34836 0.17927 0.35276 0.0
C462 C 0.33286 0.16369 0.30355 0.0
C463 C 0.30862 0.17387 0.2766 0.0
C464 C 0.27405 0.28885 0.36539 0.0
C465 C 0.30211 0.22297 0.33435 0.0
C466 C 0.26835 0.31205 0.39388 0.0
C467 C 0.28497 0.29646 0.42178 0.0
C468 C 0.29689 0.24976 0.36445 0.0
C469 C 0.30817 0.25771 0.4197 0.0
C470 C 0.32951 0.18786 0.33235 0.0
C471 C 0.28161 0.20914 0.27988 0.0
N472 N 0.31338 0.23591 0.39179 0.0
N473 N 0.27925 0.23214 0.30786 0.0
H474 H 0.08929 0.32744 0.58502 0.0
H475 H 0.12388 0.36626 0.76951 0.0
H476 H 0.24866 0.36378 0.63417 0.0
H477 H -0.047 0.26462 0.72612 0.0
H478 H 0.17046 0.37885 0.71909 0.0
H479 H 0.03967 0.31673 0.63492 0.0
C480 C 0.11412 0.33363 0.60624 0.0
C481 C 0.17361 0.34673 0.60514 0.0
C482 C 0.12276 0.35401 0.72047 0.0
C483 C 0.11668 0.33491 0.6627 0.0
C484 C 0.09578 0.34702 0.74938 0.0
C485 C 0.03392 0.31433 0.75246 0.0
C486 C 0.08813 0.329 0.69381 0.0
C487 C 0.00067 0.2903 0.72513 0.0
C488 C 0.08551 0.32715 0.63478 0.0
C489 C 0.20293 0.35365 0.63364 0.0
N490 N 0.02807 0.29829 0.69705 0.0
N491 N 0.17446 0.3481 0.66104 0.0
H492 H 0.82076 0.109 0.9216 0.0
H493 H 0.75101 -0.01287 1.07032 0.0
H494 H -0.03113 0.25581 0.96548 0.0
H495 H 0.85607 0.16452 1.10326 0.0
H496 H 0.78166 0.02133 1.01732 0.0
H497 H 0.78423 0.06692 0.97242 0.0
C498 C 0.84603 0.13241 0.94191 0.0
C499 C 0.89845 0.18626 0.93885 0.0
C500 C 0.79737 0.05317 1.03596 0.0
C501 C 0.85666 0.13706 0.99815 0.0
C502 C 0.77997 0.03337 1.06645 0.0
C503 C 0.80028 0.07278 1.0916 0.0
C504 C 0.83582 0.11311 1.03024 0.0
C505 C 0.83858 0.13225 1.08482 0.0
C506 C 0.82521 0.10783 0.97118 0.0
C507 C 0.92855 0.21416 0.9664 0.0
N508 N 0.85516 0.15033 1.05507 0.0
N509 N 0.90713 0.18953 0.99469 0.0
H510 H 0.73945 0.84645 0.26074 0.0
H511 H 0.82311 0.89604 0.44127 0.0
H512 H 0.8195 0.01654 0.30433 0.0
H513 H 0.8133 0.7486 0.39149 0.0
H514 H 0.8098 0.93542 0.39257 0.0
H515 H 0.75399 0.80518 0.30894 0.0
C516 C 0.7597 0.8752 0.28046 0.0
C517 C 0.77798 0.93535 0.27823 0.0
C518 C 0.81047 0.89442 0.39217 0.0
C519 C 0.79446 0.88772 0.33399 0.0
C520 C 0.81779 0.8715 0.42014 0.0
C521 C 0.81915 0.81839 0.42087 0.0
C522 C 0.80321 0.86393 0.36423 0.0
C523 C 0.81258 0.78952 0.39231 0.0
C524 C 0.76833 0.8515 0.30797 0.0
C525 C 0.80456 -0.02992 0.30472 0.0
N526 N 0.8044 0.8123 0.36532 0.0
N527 N 0.81147 0.94581 0.33136 0.0
H528 H 0.85635 0.73622 0.62815 0.0
H529 H 0.14868 0.82124 0.72726 0.0
H530 H 0.01569 0.76518 0.58255 0.0
H531 H -0.02782 0.71904 0.7629 0.0
H532 H 0.10606 0.81068 0.67472 0.0
H533 H 0.90254 0.74025 0.67824 0.0
C534 C 0.90107 0.74321 0.6286 0.0
C535 C 0.93179 0.74995 0.60085 0.0
C536 C 0.07691 0.7902 0.6941 0.0
C537 C -0.01396 0.75588 0.65884 0.0
C538 C 0.10124 0.79612 0.72415 0.0
C539 C 0.06431 0.77097 0.74992 0.0
C540 C 0.01511 0.75994 0.68977 0.0
C541 C 0.00296 0.73931 0.74412 0.0
C542 C 0.92751 0.74544 0.65734 0.0
C543 C -0.01006 0.7591 0.60323 0.0
N544 N -0.01938 0.73536 0.71504 0.0
N545 N 0.01535 0.7624 0.63163 0.0
H546 H 0.08817 0.87104 0.95641 0.0
H547 H 0.35163 0.02431 1.08174 0.0
H548 H 0.27 0.92841 0.93391 0.0
H549 H 0.18588 0.02351 1.09052 0.0
H550 H 0.31961 -0.02225 1.03037 0.0
H551 H 0.11997 0.915 1.00822 0.0
C552 C 0.13473 0.89261 0.96231 0.0
C553 C 0.17632 0.89601 0.94045 0.0
C554 C 0.29026 -0.01224 1.04357 0.0
C555 C 0.21319 0.94614 1.00028 0.0
C556 C 0.30848 0.0142 1.073 0.0
C557 C 0.27171 0.02838 1.09063 0.0
C558 C 0.23425 -0.02588 1.03172 0.0
C559 C 0.21614 0.01404 1.07784 0.0
C560 C 0.15292 0.91792 0.99195 0.0
C561 C 0.23617 0.92482 0.94973 0.0
N562 N 0.19913 -0.01238 1.04945 0.0
N563 N 0.25264 0.94833 0.9788 0.0
loop_
_geom_bond_atom_site_label_1
_geom_bond_atom_site_label_2
_geom_bond_distance
_geom_bond_site_symmetry_2
_ccdc_geom_bond_type
Sm0 C2 2.846 . S
Sm0 O20 2.543 . S
Sm0 O21 2.450 . S
Sm0 O22 2.681 1_554 S
Sm0 O23 2.464 . S
Sm0 O24 2.396 . S
Sm0 O28 2.386 . S
Sm0 O31 2.408 1_554 S
Sm1 C11 2.846 . S
Sm1 O22 2.386 . S
Sm1 O25 2.408 1_556 S
Sm1 O26 2.543 . S
Sm1 O27 2.450 . S
Sm1 O28 2.681 1_556 S
Sm1 O29 2.464 . S
Sm1 O30 2.396 . S
C2 Sm0 2.846 . S
C2 C3 1.506 . S
C2 O20 1.261 . S
C2 O21 1.242 . S
C3 C2 1.506 . S
C3 C4 1.358 . S
C3 C8 1.382 . S
C4 C3 1.358 . S
C4 C5 1.385 . S
C4 H32 0.930 . S
C5 C4 1.385 . S
C5 C6 1.395 . S
C5 H33 0.929 . S
C6 C5 1.395 . S
C6 C7 1.335 1_545 S
C7 C6 1.335 1_565 S
C7 C8 1.398 1_565 S
C7 H34 0.930 . S
C8 C3 1.382 . S
C8 C7 1.398 1_545 S
C8 H35 0.929 . S
C9 O22 1.271 1_554 S
C9 O23 1.251 . S
C10 O24 1.252 . S
C10 O25 1.272 . S
C11 Sm1 2.846 . S
C11 C12 1.506 . S
C11 O26 1.261 . S
C11 O27 1.242 . S
C12 C11 1.506 . S
C12 C13 1.358 . S
C12 C17 1.382 . S
C13 C12 1.358 . S
C13 C14 1.385 . S
C13 H36 0.930 . S
C14 C13 1.385 . S
C14 C15 1.395 . S
C14 H37 0.929 . S
C15 C14 1.395 . S
C15 C16 1.335 . S
C16 C15 1.335 . S
C16 C17 1.398 . S
C16 H38 0.930 . S
C17 C12 1.382 . S
C17 C16 1.398 . S
C17 H39 0.929 . S
C18 O28 1.271 . S
C18 O29 1.251 1_554 S
C19 O30 1.252 . S
C19 O31 1.272 . S
O20 Sm0 2.543 . S
O20 C2 1.261 . S
O21 Sm0 2.450 . S
O21 C2 1.242 . S
O22 Sm0 2.681 1_556 S
O22 Sm1 2.386 . S
O22 C9 1.271 1_556 S
O23 Sm0 2.464 . S
O23 C9 1.251 . S
O24 Sm0 2.396 . S
O24 C10 1.252 . S
O25 Sm1 2.408 1_554 S
O25 C10 1.272 . S
O26 Sm1 2.543 . S
O26 C11 1.261 . S
O27 Sm1 2.450 . S
O27 C11 1.242 . S
O28 Sm0 2.386 . S
O28 Sm1 2.681 1_554 S
O28 C18 1.271 . S
O29 Sm1 2.464 . S
O29 C18 1.251 1_556 S
O30 Sm1 2.396 . S
O30 C19 1.252 . S
O31 Sm0 2.408 1_556 S
O31 C19 1.272 . S
H32 C4 0.930 . S
H33 C5 0.929 . S
H34 C7 0.930 . S
H35 C8 0.929 . S
H36 C13 0.930 . S
H37 C14 0.929 . S
H38 C16 0.930 . S
H39 C17 0.929 . S
Sm40 C42 2.846 . S
Sm40 O60 2.543 . S
Sm40 O61 2.450 . S
Sm40 O62 2.681 . S
Sm40 O63 2.464 . S
Sm40 O64 2.396 . S
Sm40 O68 2.386 . S
Sm40 O71 2.408 . S
Sm41 C51 2.846 . S
Sm41 O62 2.386 . S
Sm41 O65 2.408 . S
Sm41 O66 2.543 . S
Sm41 O67 2.450 . S
Sm41 O68 2.681 . S
Sm41 O69 2.464 . S
Sm41 O70 2.396 . S
C42 Sm40 2.846 . S
C42 C43 1.506 . S
C42 O60 1.261 . S
C42 O61 1.242 . S
C43 C42 1.506 . S
C43 C44 1.358 . S
C43 C48 1.382 . S
C44 C43 1.358 . S
C44 C45 1.385 . S
C44 H72 0.930 . S
C45 C44 1.385 . S
C45 C46 1.395 . S
C45 H73 0.929 . S
C46 C45 1.395 . S
C46 C47 1.335 . S
C47 C46 1.335 . S
C47 C48 1.398 . S
C47 H74 0.930 . S
C48 C43 1.382 . S
C48 C47 1.398 . S
C48 H75 0.929 . S
C49 O62 1.271 . S
C49 O63 1.251 . S
C50 O64 1.252 . S
C50 O65 1.272 . S
C51 Sm41 2.846 . S
C51 C52 1.506 . S
C51 O66 1.261 . S
C51 O67 1.242 . S
C52 C51 1.506 . S
C52 C53 1.358 . S
C52 C57 1.382 . S
C53 C52 1.358 . S
C53 C54 1.385 . S
C53 H76 0.930 . S
C54 C53 1.385 . S
C54 C55 1.395 . S
C54 H77 0.929 . S
C55 C54 1.395 . S
C55 C56 1.335 . S
C56 C55 1.335 . S
C56 C57 1.398 . S
C56 H78 0.930 . S
C57 C52 1.382 . S
C57 C56 1.398 . S
C57 H79 0.929 . S
C58 O68 1.271 . S
C58 O69 1.251 . S
C59 O70 1.252 . S
C59 O71 1.272 . S
O60 Sm40 2.543 . S
O60 C42 1.261 . S
O61 Sm40 2.450 . S
O61 C42 1.242 . S
O62 Sm40 2.681 . S
O62 Sm41 2.386 . S
O62 C49 1.271 . S
O63 Sm40 2.464 . S
O63 C49 1.251 . S
O64 Sm40 2.396 . S
O64 C50 1.252 . S
O65 Sm41 2.408 . S
O65 C50 1.272 . S
O66 Sm41 2.543 . S
O66 C51 1.261 . S
O67 Sm41 2.450 . S
O67 C51 1.242 . S
O68 Sm40 2.386 . S
O68 Sm41 2.681 . S
O68 C58 1.271 . S
O69 Sm41 2.464 . S
O69 C58 1.251 . S
O70 Sm41 2.396 . S
O70 C59 1.252 . S
O71 Sm40 2.408 . S
O71 C59 1.272 . S
H72 C44 0.930 . S
H73 C45 0.929 . S
H74 C47 0.930 . S
H75 C48 0.929 . S
H76 C53 0.930 . S
H77 C54 0.929 . S
H78 C56 0.930 . S
H79 C57 0.929 . S
Sm80 C82 2.846 . S
Sm80 O100 2.543 . S
Sm80 O101 2.450 . S
Sm80 O102 2.677 1_455 S
Sm80 O103 2.464 . S
Sm80 O104 2.396 1_455 S
Sm80 O108 2.386 . S
Sm80 O111 2.408 . S
Sm81 C91 2.846 . S
Sm81 O102 2.401 . S
Sm81 O105 2.408 . S
Sm81 O106 2.543 . S
Sm81 O107 2.450 . S
Sm81 O108 2.681 1_655 S
Sm81 O109 2.464 . S
Sm81 O110 2.396 1_655 S
C82 Sm80 2.846 . S
C82 C83 1.506 . S
C82 O100 1.261 . S
C82 O101 1.242 . S
C83 C82 1.506 . S
C83 C84 1.358 . S
C83 C88 1.382 . S
C84 C83 1.358 . S
C84 C85 1.385 . S
C84 H112 0.930 . S
C85 C84 1.385 . S
C85 C86 1.395 . S
C85 H113 0.929 . S
C86 C85 1.395 . S
C86 C87 1.335 . S
C87 C86 1.335 . S
C87 C88 1.398 . S
C87 H114 0.930 . S
C88 C83 1.382 . S
C88 C87 1.398 . S
C88 H115 0.929 . S
C89 O102 1.259 1_455 S
C89 O103 1.251 . S
C90 O104 1.252 . S
C90 O105 1.272 . S
C91 Sm81 2.846 . S
C91 C92 1.506 . S
C91 O106 1.261 . S
C91 O107 1.242 . S
C92 C91 1.506 . S
C92 C93 1.358 . S
C92 C97 1.382 . S
C93 C92 1.358 . S
C93 C94 1.385 . S
C93 H116 0.930 . S
C94 C93 1.385 . S
C94 C95 1.395 . S
C94 H117 0.929 . S
C95 C94 1.395 . S
C95 C96 1.335 . S
C96 C95 1.335 . S
C96 C97 1.398 . S
C96 H118 0.930 . S
C97 C92 1.382 . S
C97 C96 1.398 . S
C97 H119 0.929 . S
C98 O108 1.271 1_655 S
C98 O109 1.251 . S
C99 O110 1.252 . S
C99 O111 1.272 . S
O100 Sm80 2.543 . S
O100 C82 1.261 . S
O101 Sm80 2.450 . S
O101 C82 1.242 . S
O102 Sm80 2.677 1_655 S
O102 Sm81 2.401 . S
O102 C89 1.259 1_655 S
O103 Sm80 2.464 . S
O103 C89 1.251 . S
O104 Sm80 2.396 1_655 S
O104 C90 1.252 . S
O105 Sm81 2.408 . S
O105 C90 1.272 . S
O106 Sm81 2.543 . S
O106 C91 1.261 . S
O107 Sm81 2.450 . S
O107 C91 1.242 . S
O108 Sm80 2.386 . S
O108 Sm81 2.681 1_455 S
O108 C98 1.271 1_455 S
O109 Sm81 2.464 . S
O109 C98 1.251 . S
O110 Sm81 2.396 1_455 S
O110 C99 1.252 . S
O111 Sm80 2.408 . S
O111 C99 1.272 . S
H112 C84 0.930 . S
H113 C85 0.929 . S
H114 C87 0.930 . S
H115 C88 0.929 . S
H116 C93 0.930 . S
H117 C94 0.929 . S
H118 C96 0.930 . S
H119 C97 0.929 . S
Sm120 C122 2.846 . S
Sm120 O140 2.543 . S
Sm120 O141 2.450 . S
Sm120 O142 2.663 1_544 S
Sm120 O143 2.464 . S
Sm120 O144 2.396 1_545 S
Sm120 O148 2.386 . S
Sm120 O151 2.408 1_554 S
Sm121 C131 2.846 . S
Sm121 O142 2.393 . S
Sm121 O145 2.408 1_556 S
Sm121 O146 2.543 . S
Sm121 O147 2.450 . S
Sm121 O148 2.681 1_566 S
Sm121 O149 2.464 . S
Sm121 O150 2.396 1_565 S
C122 Sm120 2.846 . S
C122 C123 1.506 . S
C122 O140 1.261 . S
C122 O141 1.242 . S
C123 C122 1.506 . S
C123 C124 1.358 . S
C123 C128 1.382 . S
C124 C123 1.358 . S
C124 C125 1.385 . S
C124 H152 0.930 . S
C125 C124 1.385 . S
C125 C126 1.395 . S
C125 H153 0.929 . S
C126 C125 1.395 . S
C126 C127 1.335 . S
C127 C126 1.335 . S
C127 C128 1.398 . S
C127 H154 0.930 . S
C128 C123 1.382 . S
C128 C127 1.398 . S
C128 H155 0.929 . S
C129 O142 1.272 1_544 S
C129 O143 1.251 . S
C130 O144 1.252 . S
C130 O145 1.272 . S
C131 Sm121 2.846 . S
C131 C132 1.506 . S
C131 O146 1.261 . S
C131 O147 1.242 . S
C132 C131 1.506 . S
C132 C133 1.358 . S
C132 C137 1.382 . S
C133 C132 1.358 . S
C133 C134 1.385 . S
C133 H156 0.930 . S
C134 C133 1.385 . S
C134 C135 1.395 . S
C134 H157 0.929 . S
C135 C134 1.395 . S
C135 C136 1.335 . S
C136 C135 1.335 . S
C136 C137 1.398 . S
C136 H158 0.930 . S
C137 C132 1.382 . S
C137 C136 1.398 . S
C137 H159 0.929 . S
C138 O148 1.271 1_565 S
C138 O149 1.251 1_554 S
C139 O150 1.252 . S
C139 O151 1.272 . S
O140 Sm120 2.543 . S
O140 C122 1.261 . S
O141 Sm120 2.450 . S
O141 C122 1.242 . S
O142 Sm120 2.663 1_566 S
O142 Sm121 2.393 . S
O142 C129 1.272 1_566 S
O143 Sm120 2.464 . S
O143 C129 1.251 . S
O144 Sm120 2.396 1_565 S
O144 C130 1.252 . S
O145 Sm121 2.408 1_554 S
O145 C130 1.272 . S
O146 Sm121 2.543 . S
O146 C131 1.261 . S
O147 Sm121 2.450 . S
O147 C131 1.242 . S
O148 Sm120 2.386 . S
O148 Sm121 2.681 1_544 S
O148 C138 1.271 1_545 S
O149 Sm121 2.464 . S
O149 C138 1.251 1_556 S
O150 Sm121 2.396 1_545 S
O150 C139 1.252 . S
O151 Sm120 2.408 1_556 S
O151 C139 1.272 . S
H152 C124 0.930 . S
H153 C125 0.929 . S
H154 C127 0.930 . S
H155 C128 0.929 . S
H156 C133 0.930 . S
H157 C134 0.929 . S
H158 C136 0.930 . S
H159 C137 0.929 . S
Sm160 C162 2.846 . S
Sm160 O180 2.543 . S
Sm160 O181 2.450 . S
Sm160 O182 2.681 . S
Sm160 O183 2.464 . S
Sm160 O184 2.396 . S
Sm160 O188 2.386 . S
Sm160 O191 2.408 . S
Sm161 C171 2.846 . S
Sm161 O182 2.386 . S
Sm161 O185 2.408 . S
Sm161 O186 2.543 1_655 S
Sm161 O187 2.450 . S
Sm161 O188 2.681 . S
Sm161 O189 2.464 . S
Sm161 O190 2.396 . S
C162 Sm160 2.846 . S
C162 C163 1.506 . S
C162 O180 1.261 . S
C162 O181 1.242 . S
C163 C162 1.506 . S
C163 C164 1.358 . S
C163 C168 1.382 . S
C164 C163 1.358 . S
C164 C165 1.385 . S
C164 H192 0.930 . S
C165 C164 1.385 . S
C165 C166 1.395 . S
C165 H193 0.929 . S
C166 C165 1.395 . S
C166 C167 1.335 . S
C167 C166 1.335 . S
C167 C168 1.398 . S
C167 H194 0.930 . S
C168 C163 1.382 . S
C168 C167 1.398 . S
C168 H195 0.929 . S
C169 O182 1.271 1_455 S
C169 O183 1.251 1_455 S
C170 O184 1.252 . S
C170 O185 1.272 . S
C171 Sm161 2.846 . S
C171 C172 1.506 1_655 S
C171 O186 1.261 1_655 S
C171 O187 1.242 . S
C172 C171 1.506 1_455 S
C172 C173 1.358 . S
C172 C177 1.382 1_455 S
C173 C172 1.358 . S
C173 C174 1.385 . S
C173 H196 0.930 . S
C174 C173 1.385 . S
C174 C175 1.395 . S
C174 H197 0.929 . S
C175 C174 1.395 . S
C175 C176 1.335 1_455 S
C176 C175 1.335 1_655 S
C176 C177 1.398 . S
C176 H198 0.930 . S
C177 C172 1.382 1_655 S
C177 C176 1.398 . S
C177 H199 0.929 . S
C178 O188 1.271 . S
C178 O189 1.251 . S
C179 O190 1.252 . S
C179 O191 1.272 . S
O180 Sm160 2.543 . S
O180 C162 1.261 . S
O181 Sm160 2.450 . S
O181 C162 1.242 . S
O182 Sm160 2.681 . S
O182 Sm161 2.386 . S
O182 C169 1.271 1_655 S
O183 Sm160 2.464 . S
O183 C169 1.251 1_655 S
O184 Sm160 2.396 . S
O184 C170 1.252 . S
O185 Sm161 2.408 . S
O185 C170 1.272 . S
O186 Sm161 2.543 1_455 S
O186 C171 1.261 1_455 S
O187 Sm161 2.450 . S
O187 C171 1.242 . S
O188 Sm160 2.386 . S
O188 Sm161 2.681 . S
O188 C178 1.271 . S
O189 Sm161 2.464 . S
O189 C178 1.251 . S
O190 Sm161 2.396 . S
O190 C179 1.252 . S
O191 Sm160 2.408 . S
O191 C179 1.272 . S
H192 C164 0.930 . S
H193 C165 0.929 . S
H194 C167 0.930 . S
H195 C168 0.929 . S
H196 C173 0.930 . S
H197 C174 0.929 . S
H198 C176 0.930 . S
H199 C177 0.929 . S
Sm200 C202 2.846 . S
Sm200 O220 2.543 . S
Sm200 O221 2.450 . S
Sm200 O222 2.681 . S
Sm200 O223 2.464 . S
Sm200 O224 2.396 . S
Sm200 O228 2.386 . S
Sm200 O231 2.408 . S
Sm201 C211 2.846 . S
Sm201 O222 2.386 . S
Sm201 O225 2.408 . S
Sm201 O226 2.543 1_565 S
Sm201 O227 2.450 . S
Sm201 O228 2.681 . S
Sm201 O229 2.464 . S
Sm201 O230 2.396 . S
C202 Sm200 2.846 . S
C202 C203 1.506 . S
C202 O220 1.261 . S
C202 O221 1.242 . S
C203 C202 1.506 . S
C203 C204 1.358 . S
C203 C208 1.382 . S
C204 C203 1.358 . S
C204 C205 1.385 . S
C204 H232 0.930 . S
C205 C204 1.385 . S
C205 C206 1.395 . S
C205 H233 0.929 . S
C206 C205 1.395 . S
C206 C207 1.335 1_455 S
C207 C206 1.335 1_655 S
C207 C208 1.398 1_655 S
C207 H234 0.930 . S
C208 C203 1.382 . S
C208 C207 1.398 1_455 S
C208 H235 0.929 . S
C209 O222 1.271 1_545 S
C209 O223 1.251 1_545 S
C210 O224 1.252 . S
C210 O225 1.272 . S
C211 Sm201 2.846 . S
C211 C212 1.506 1_565 S
C211 O226 1.261 1_565 S
C211 O227 1.242 . S
C212 C211 1.506 1_545 S
C212 C213 1.358 . S
C212 C217 1.382 1_545 S
C213 C212 1.358 . S
C213 C214 1.385 . S
C213 H236 0.930 . S
C214 C213 1.385 . S
C214 C215 1.395 . S
C214 H237 0.929 . S
C215 C214 1.395 . S
C215 C216 1.335 1_545 S
C216 C215 1.335 1_565 S
C216 C217 1.398 . S
C216 H238 0.930 . S
C217 C212 1.382 1_565 S
C217 C216 1.398 . S
C217 H239 0.929 . S
C218 O228 1.271 . S
C218 O229 1.251 . S
C219 O230 1.252 . S
C219 O231 1.272 . S
O220 Sm200 2.543 . S
O220 C202 1.261 . S
O221 Sm200 2.450 . S
O221 C202 1.242 . S
O222 Sm200 2.681 . S
O222 Sm201 2.386 . S
O222 C209 1.271 1_565 S
O223 Sm200 2.464 . S
O223 C209 1.251 1_565 S
O224 Sm200 2.396 . S
O224 C210 1.252 . S
O225 Sm201 2.408 . S
O225 C210 1.272 . S
O226 Sm201 2.543 1_545 S
O226 C211 1.261 1_545 S
O227 Sm201 2.450 . S
O227 C211 1.242 . S
O228 Sm200 2.386 . S
O228 Sm201 2.681 . S
O228 C218 1.271 . S
O229 Sm201 2.464 . S
O229 C218 1.251 . S
O230 Sm201 2.396 . S
O230 C219 1.252 . S
O231 Sm200 2.408 . S
O231 C219 1.272 . S
H232 C204 0.930 . S
H233 C205 0.929 . S
H234 C207 0.930 . S
H235 C208 0.929 . S
H236 C213 0.930 . S
H237 C214 0.929 . S
H238 C216 0.930 . S
H239 C217 0.929 . S
H240 C246 0.930 . S
H241 C250 0.930 . S
H242 C255 0.929 1_565 S
H243 C253 0.929 . S
H244 C248 0.929 . S
H245 C254 0.929 . S
C246 H240 0.930 . S
C246 C247 1.336 1_556 S
C246 C254 1.378 1_655 S
C247 C246 1.336 1_554 S
C247 C255 1.465 . S
C248 H244 0.929 . S
C248 C250 1.378 . S
C248 C252 1.350 . S
C249 C252 1.464 . S
C249 C254 1.328 1_554 S
C249 N257 1.450 . S
C250 H241 0.930 . S
C250 C248 1.378 . S
C250 C251 1.367 . S
C251 C250 1.367 . S
C251 C253 1.433 1_554 S
C252 C248 1.350 . S
C252 C249 1.464 . S
C252 N256 1.427 1_554 S
C253 H243 0.929 . S
C253 C251 1.433 1_556 S
C253 N256 1.384 . S
C254 H245 0.929 . S
C254 C246 1.378 1_455 S
C254 C249 1.328 1_556 S
C255 H242 0.929 1_545 S
C255 C247 1.465 . S
C255 N257 1.384 1_655 S
N256 C252 1.427 1_556 S
N256 C253 1.384 . S
N257 C249 1.450 . S
N257 C255 1.384 1_455 S
H258 C264 0.930 . S
H259 C268 0.930 . S
H260 C273 0.929 . S
H261 C271 0.929 . S
H262 C266 0.929 . S
H263 C272 0.929 1_655 S
C264 H258 0.930 . S
C264 C265 1.367 1_655 S
C264 C272 1.378 1_665 S
C265 C264 1.367 1_455 S
C265 C273 1.433 . S
C266 H262 0.929 . S
C266 C268 1.378 . S
C266 C270 1.350 . S
C267 C270 1.463 . S
C267 C272 1.350 . S
C267 N275 1.427 . S
C268 H259 0.930 . S
C268 C266 1.378 . S
C268 C269 1.367 . S
C269 C268 1.367 . S
C269 C271 1.433 . S
C270 C266 1.350 . S
C270 C267 1.463 . S
C270 N274 1.427 . S
C271 H261 0.929 . S
C271 C269 1.433 . S
C271 N274 1.384 . S
C272 H263 0.929 1_455 S
C272 C264 1.378 1_445 S
C272 C267 1.350 . S
C273 H260 0.929 . S
C273 C265 1.433 . S
C273 N275 1.384 1_565 S
N274 C270 1.427 . S
N274 C271 1.384 . S
N275 C267 1.427 . S
N275 C273 1.384 1_545 S
H276 C282 0.935 . S
H277 C286 0.930 . S
H278 C291 0.929 . S
H279 C289 0.929 . S
H280 C284 0.929 . S
H281 C290 0.929 . S
C282 H276 0.935 . S
C282 C283 1.367 1_565 S
C282 C290 1.373 1_565 S
C283 C282 1.367 1_545 S
C283 C291 1.433 . S
C284 H280 0.929 . S
C284 C286 1.378 . S
C284 C288 1.350 . S
C285 C288 1.463 . S
C285 C290 1.350 . S
C285 N293 1.427 . S
C286 H277 0.930 . S
C286 C284 1.378 . S
C286 C287 1.367 . S
C287 C286 1.367 . S
C287 C289 1.433 1_455 S
C288 C284 1.350 . S
C288 C285 1.463 . S
C288 N292 1.427 . S
C289 H279 0.929 . S
C289 C287 1.433 1_655 S
C289 N292 1.384 1_655 S
C290 H281 0.929 . S
C290 C282 1.373 1_545 S
C290 C285 1.350 . S
C291 H278 0.929 . S
C291 C283 1.433 . S
C291 N293 1.384 . S
N292 C288 1.427 . S
N292 C289 1.384 1_455 S
N293 C285 1.427 . S
N293 C291 1.384 . S
H294 C300 0.930 . S
H295 C304 0.930 . S
H296 C309 0.929 . S
H297 C307 0.929 . S
H298 C302 0.929 . S
H299 C308 0.929 . S
C300 H294 0.930 . S
C300 C301 1.367 . S
C300 C308 1.378 . S
C301 C300 1.367 . S
C301 C309 1.433 . S
C302 H298 0.929 . S
C302 C304 1.378 . S
C302 C306 1.350 . S
C303 C306 1.463 . S
C303 C308 1.350 . S
C303 N311 1.427 . S
C304 H295 0.930 . S
C304 C302 1.378 . S
C304 C305 1.367 . S
C305 C304 1.367 . S
C305 C307 1.433 . S
C306 C302 1.350 . S
C306 C303 1.463 . S
C306 N310 1.427 . S
C307 H297 0.929 . S
C307 C305 1.433 . S
C307 N310 1.384 . S
C308 H299 0.929 . S
C308 C300 1.378 . S
C308 C303 1.350 . S
C309 H296 0.929 . S
C309 C301 1.433 . S
C309 N311 1.384 . S
N310 C306 1.427 . S
N310 C307 1.384 . S
N311 C303 1.427 . S
N311 C309 1.384 . S
H312 C318 0.930 . S
H313 C322 0.930 . S
H314 C327 0.929 . S
H315 C325 0.929 . S
H316 C320 0.929 . S
H317 C326 0.929 . S
C318 H312 0.930 . S
C318 C319 1.367 . S
C318 C326 1.378 . S
C319 C318 1.367 . S
C319 C327 1.433 . S
C320 H316 0.929 . S
C320 C322 1.378 . S
C320 C324 1.350 . S
C321 C324 1.463 1_455 S
C321 C326 1.350 . S
C321 N329 1.427 . S
C322 H313 0.930 . S
C322 C320 1.378 . S
C322 C323 1.367 . S
C323 C322 1.367 . S
C323 C325 1.433 . S
C324 C320 1.350 . S
C324 C321 1.463 1_655 S
C324 N328 1.427 . S
C325 H315 0.929 . S
C325 C323 1.433 . S
C325 N328 1.384 . S
C326 H317 0.929 . S
C326 C318 1.378 . S
C326 C321 1.350 . S
C327 H314 0.929 . S
C327 C319 1.433 . S
C327 N329 1.384 . S
N328 C324 1.427 . S
N328 C325 1.384 . S
N329 C321 1.427 . S
N329 C327 1.384 . S
H330 C336 0.930 . S
H331 C340 0.930 . S
H332 C345 0.929 . S
H333 C343 0.929 . S
H334 C338 0.929 1_545 S
H335 C344 0.930 . S
C336 H330 0.930 . S
C336 C337 1.367 . S
C336 C344 1.378 . S
C337 C336 1.367 . S
C337 C345 1.433 . S
C338 H334 0.929 1_565 S
C338 C340 1.378 . S
C338 C342 1.350 . S
C339 C342 1.463 1_545 S
C339 C344 1.350 . S
C339 N347 1.427 . S
C340 H331 0.930 . S
C340 C338 1.378 . S
C340 C341 1.367 . S
C341 C340 1.367 . S
C341 C343 1.433 . S
C342 C338 1.350 . S
C342 C339 1.463 1_565 S
C342 N346 1.427 . S
C343 H333 0.929 . S
C343 C341 1.433 . S
C343 N346 1.384 . S
C344 H335 0.930 . S
C344 C336 1.378 . S
C344 C339 1.350 . S
C345 H332 0.929 . S
C345 C337 1.433 . S
C345 N347 1.384 . S
N346 C342 1.427 . S
N346 C343 1.384 . S
N347 C339 1.427 . S
N347 C345 1.384 . S
H348 C354 0.930 . S
H349 C358 0.930 . S
H350 C363 0.929 . S
H351 C361 0.929 . S
H352 C356 0.929 . S
H353 C362 0.929 . S
C354 H348 0.930 . S
C354 C355 1.367 . S
C354 C362 1.378 . S
C355 C354 1.367 . S
C355 C363 1.433 . S
C356 H352 0.929 . S
C356 C358 1.378 1_655 S
C356 C360 1.350 . S
C357 C360 1.463 . S
C357 C362 1.350 . S
C357 N365 1.427 . S
C358 H349 0.930 . S
C358 C356 1.378 1_455 S
C358 C359 1.367 1_455 S
C359 C358 1.367 1_655 S
C359 C361 1.433 . S
C360 C356 1.350 . S
C360 C357 1.463 . S
C360 N364 1.427 . S
C361 H351 0.929 . S
C361 C359 1.433 . S
C361 N364 1.384 . S
C362 H353 0.929 . S
C362 C354 1.378 . S
C362 C357 1.350 . S
C363 H350 0.929 . S
C363 C355 1.433 . S
C363 N365 1.384 . S
N364 C360 1.427 . S
N364 C361 1.384 . S
N365 C357 1.427 . S
N365 C363 1.384 . S
H366 C372 0.930 . S
H367 C376 0.930 1_545 S
H368 C381 0.929 . S
H369 C379 0.929 . S
H370 C374 0.929 . S
H371 C380 0.929 . S
C372 H366 0.930 . S
C372 C373 1.367 . S
C372 C380 1.378 . S
C373 C372 1.367 . S
C373 C381 1.433 . S
C374 H370 0.929 . S
C374 C376 1.378 . S
C374 C378 1.350 . S
C375 C378 1.463 . S
C375 C380 1.350 . S
C375 N383 1.427 . S
C376 H367 0.930 1_565 S
C376 C374 1.378 . S
C376 C377 1.367 . S
C377 C376 1.367 . S
C377 C379 1.433 . S
C378 C374 1.350 . S
C378 C375 1.463 . S
C378 N382 1.427 . S
C379 H369 0.929 . S
C379 C377 1.433 . S
C379 N382 1.384 . S
C380 H371 0.929 . S
C380 C372 1.378 . S
C380 C375 1.350 . S
C381 H368 0.929 . S
C381 C373 1.433 . S
C381 N383 1.384 . S
N382 C378 1.427 . S
N382 C379 1.384 . S
N383 C375 1.427 . S
N383 C381 1.384 . S
H384 C390 0.930 . S
H385 C394 0.930 . S
H386 C399 0.929 . S
H387 C397 0.929 . S
H388 C392 0.929 . S
H389 C398 0.929 . S
C390 H384 0.930 . S
C390 C391 1.367 . S
C390 C398 1.378 . S
C391 C390 1.367 . S
C391 C399 1.433 . S
C392 H388 0.929 . S
C392 C394 1.378 . S
C392 C396 1.350 . S
C393 C396 1.463 . S
C393 C398 1.350 . S
C393 N401 1.427 . S
C394 H385 0.930 . S
C394 C392 1.378 . S
C394 C395 1.367 . S
C395 C394 1.367 . S
C395 C397 1.433 . S
C396 C392 1.350 . S
C396 C393 1.463 . S
C396 N400 1.427 . S
C397 H387 0.929 . S
C397 C395 1.433 . S
C397 N400 1.384 . S
C398 H389 0.929 . S
C398 C390 1.378 . S
C398 C393 1.350 . S
C399 H386 0.929 . S
C399 C391 1.433 . S
C399 N401 1.384 . S
N400 C396 1.427 . S
N400 C397 1.384 . S
N401 C393 1.427 . S
N401 C399 1.384 . S
H402 C408 0.930 . S
H403 C412 0.930 . S
H404 C417 0.929 . S
H405 C415 0.929 . S
H406 C410 0.929 . S
H407 C416 0.929 . S
C408 H402 0.930 . S
C408 C409 1.367 . S
C408 C416 1.378 . S
C409 C408 1.367 . S
C409 C417 1.433 1_554 S
C410 H406 0.929 . S
C410 C412 1.378 1_545 S
C410 C414 1.350 1_556 S
C411 C414 1.463 . S
C411 C416 1.350 . S
C411 N419 1.427 1_554 S
C412 H403 0.930 . S
C412 C410 1.378 1_565 S
C412 C413 1.363 1_556 S
C413 C412 1.363 1_554 S
C413 C415 1.420 1_565 S
C414 C410 1.350 1_554 S
C414 C411 1.463 . S
C414 N418 1.427 . S
C415 H405 0.929 . S
C415 C413 1.420 1_545 S
C415 N418 1.384 . S
C416 H407 0.929 . S
C416 C408 1.378 . S
C416 C411 1.350 . S
C417 H404 0.929 . S
C417 C409 1.433 1_556 S
C417 N419 1.384 . S
N418 C414 1.427 . S
N418 C415 1.384 . S
N419 C411 1.427 1_556 S
N419 C417 1.384 . S
H420 C426 0.930 . S
H421 C430 0.930 . S
H422 C435 0.929 . S
H423 C433 0.929 . S
H424 C428 0.929 . S
H425 C434 0.929 . S
C426 H420 0.930 . S
C426 C427 1.367 . S
C426 C434 1.378 . S
C427 C426 1.367 . S
C427 C435 1.433 . S
C428 H424 0.929 . S
C428 C430 1.378 . S
C428 C432 1.350 . S
C429 C432 1.463 . S
C429 C434 1.350 . S
C429 N437 1.427 . S
C430 H421 0.930 . S
C430 C428 1.378 . S
C430 C431 1.367 . S
C431 C430 1.367 . S
C431 C433 1.433 . S
C432 C428 1.350 . S
C432 C429 1.463 . S
C432 N436 1.427 . S
C433 H423 0.929 . S
C433 C431 1.433 . S
C433 N436 1.384 . S
C434 H425 0.929 . S
C434 C426 1.378 . S
C434 C429 1.350 . S
C435 H422 0.929 . S
C435 C427 1.433 . S
C435 N437 1.384 . S
N436 C432 1.427 . S
N436 C433 1.384 . S
N437 C429 1.427 . S
N437 C435 1.384 . S
H438 C444 0.930 . S
H439 C448 0.930 . S
H440 C453 0.929 . S
H441 C451 0.929 . S
H442 C446 0.929 . S
H443 C452 0.929 . S
C444 H438 0.930 . S
C444 C445 1.367 . S
C444 C452 1.378 . S
C445 C444 1.367 . S
C445 C453 1.433 1_455 S
C446 H442 0.929 . S
C446 C448 1.378 . S
C446 C450 1.350 . S
C447 C450 1.463 . S
C447 C452 1.350 . S
C447 N455 1.427 . S
C448 H439 0.930 . S
C448 C446 1.378 . S
C448 C449 1.367 . S
C449 C448 1.367 . S
C449 C451 1.433 . S
C450 C446 1.350 . S
C450 C447 1.463 . S
C450 N454 1.427 . S
C451 H441 0.929 . S
C451 C449 1.433 . S
C451 N454 1.384 . S
C452 H443 0.929 . S
C452 C444 1.378 . S
C452 C447 1.350 . S
C453 H440 0.929 . S
C453 C445 1.433 1_655 S
C453 N455 1.384 1_655 S
N454 C450 1.427 . S
N454 C451 1.384 . S
N455 C447 1.427 . S
N455 C453 1.384 1_455 S
H456 C462 0.930 . S
H457 C466 0.930 . S
H458 C471 0.929 . S
H459 C469 0.929 . S
H460 C464 0.929 . S
H461 C470 0.929 . S
C462 H456 0.930 . S
C462 C463 1.367 . S
C462 C470 1.378 . S
C463 C462 1.367 . S
C463 C471 1.433 . S
C464 H460 0.929 . S
C464 C466 1.378 . S
C464 C468 1.350 . S
C465 C468 1.463 . S
C465 C470 1.350 . S
C465 N473 1.427 . S
C466 H457 0.930 . S
C466 C464 1.378 . S
C466 C467 1.367 . S
C467 C466 1.367 . S
C467 C469 1.433 . S
C468 C464 1.350 . S
C468 C465 1.463 . S
C468 N472 1.427 . S
C469 H459 0.929 . S
C469 C467 1.433 . S
C469 N472 1.384 . S
C470 H461 0.929 . S
C470 C462 1.378 . S
C470 C465 1.350 . S
C471 H458 0.929 . S
C471 C463 1.433 . S
C471 N473 1.384 . S
N472 C468 1.427 . S
N472 C469 1.384 . S
N473 C465 1.427 . S
N473 C471 1.384 . S
H474 C480 0.930 . S
H475 C484 0.930 . S
H476 C489 0.929 . S
H477 C487 0.929 . S
H478 C482 0.929 . S
H479 C488 0.929 . S
C480 H474 0.930 . S
C480 C481 1.367 . S
C480 C488 1.378 . S
C481 C480 1.367 . S
C481 C489 1.433 . S
C482 H478 0.929 . S
C482 C484 1.378 . S
C482 C486 1.350 . S
C483 C486 1.463 . S
C483 C488 1.350 . S
C483 N491 1.427 . S
C484 H475 0.930 . S
C484 C482 1.378 . S
C484 C485 1.367 . S
C485 C484 1.367 . S
C485 C487 1.433 . S
C486 C482 1.350 . S
C486 C483 1.463 . S
C486 N490 1.427 . S
C487 H477 0.929 . S
C487 C485 1.433 . S
C487 N490 1.384 . S
C488 H479 0.929 . S
C488 C480 1.378 . S
C488 C483 1.350 . S
C489 H476 0.929 . S
C489 C481 1.433 . S
C489 N491 1.384 . S
N490 C486 1.427 . S
N490 C487 1.384 . S
N491 C483 1.427 . S
N491 C489 1.384 . S
H492 C498 0.930 . S
H493 C502 0.930 . S
H494 C507 0.929 . S
H495 C505 0.929 . S
H496 C500 0.929 . S
H497 C506 0.929 . S
C498 H492 0.930 . S
C498 C499 1.367 . S
C498 C506 1.378 . S
C499 C498 1.367 . S
C499 C507 1.433 . S
C500 H496 0.929 . S
C500 C502 1.378 . S
C500 C504 1.350 . S
C501 C504 1.463 . S
C501 C506 1.350 . S
C501 N509 1.427 . S
C502 H493 0.930 . S
C502 C500 1.378 . S
C502 C503 1.367 . S
C503 C502 1.367 . S
C503 C505 1.433 . S
C504 C500 1.350 . S
C504 C501 1.463 . S
C504 N508 1.427 . S
C505 H495 0.929 . S
C505 C503 1.433 . S
C505 N508 1.384 . S
C506 H497 0.929 . S
C506 C498 1.378 . S
C506 C501 1.350 . S
C507 H494 0.929 . S
C507 C499 1.433 . S
C507 N509 1.384 . S
N508 C504 1.427 . S
N508 C505 1.384 . S
N509 C501 1.427 . S
N509 C507 1.384 . S
H510 C516 0.930 . S
H511 C520 0.930 . S
H512 C525 0.929 . S
H513 C523 0.929 . S
H514 C518 0.929 . S
H515 C524 0.929 . S
C516 H510 0.930 . S
C516 C517 1.367 . S
C516 C524 1.378 . S
C517 C516 1.367 . S
C517 C525 1.433 . S
C518 H514 0.929 . S
C518 C520 1.378 . S
C518 C522 1.350 . S
C519 C522 1.463 . S
C519 C524 1.350 . S
C519 N527 1.427 . S
C520 H511 0.930 . S
C520 C518 1.378 . S
C520 C521 1.367 . S
C521 C520 1.367 . S
C521 C523 1.433 . S
C522 C518 1.350 . S
C522 C519 1.463 . S
C522 N526 1.427 . S
C523 H513 0.929 . S
C523 C521 1.433 . S
C523 N526 1.384 . S
C524 H515 0.929 . S
C524 C516 1.378 . S
C524 C519 1.350 . S
C525 H512 0.929 . S
C525 C517 1.433 . S
C525 N527 1.384 . S
N526 C522 1.427 . S
N526 C523 1.384 . S
N527 C519 1.427 . S
N527 C525 1.384 . S
H528 C534 0.930 . S
H529 C538 0.930 . S
H530 C543 0.929 . S
H531 C541 0.929 . S
H532 C536 0.929 . S
H533 C542 0.929 . S
C534 H528 0.930 . S
C534 C535 1.367 . S
C534 C542 1.378 . S
C535 C534 1.367 . S
C535 C543 1.433 1_655 S
C536 H532 0.929 . S
C536 C538 1.378 . S
C536 C540 1.350 . S
C537 C540 1.463 . S
C537 C542 1.350 1_455 S
C537 N545 1.427 . S
C538 H529 0.930 . S
C538 C536 1.378 . S
C538 C539 1.367 . S
C539 C538 1.367 . S
C539 C541 1.433 . S
C540 C536 1.350 . S
C540 C537 1.463 . S
C540 N544 1.427 . S
C541 H531 0.929 . S
C541 C539 1.433 . S
C541 N544 1.384 . S
C542 H533 0.929 . S
C542 C534 1.378 . S
C542 C537 1.350 1_655 S
C543 H530 0.929 . S
C543 C535 1.433 1_455 S
C543 N545 1.384 . S
N544 C540 1.427 . S
N544 C541 1.384 . S
N545 C537 1.427 . S
N545 C543 1.384 . S
H546 C552 0.930 . S
H547 C556 0.930 . S
H548 C561 0.929 . S
H549 C559 0.929 . S
H550 C554 0.929 1_565 S
H551 C560 0.929 . S
C552 H546 0.930 . S
C552 C553 1.367 1_545 S
C552 C560 1.378 . S
C553 C552 1.367 1_565 S
C553 C561 1.433 . S
C554 H550 0.929 1_545 S
C554 C556 1.378 . S
C554 C558 1.350 . S
C555 C558 1.463 . S
C555 C560 1.350 . S
C555 N563 1.427 1_545 S
C556 H547 0.930 . S
C556 C554 1.378 . S
C556 C557 1.367 . S
C557 C556 1.367 . S
C557 C559 1.433 . S
C558 C554 1.350 . S
C558 C555 1.463 . S
C558 N562 1.427 . S
C559 H549 0.929 . S
C559 C557 1.433 . S
C559 N562 1.384 . S
C560 H551 0.929 . S
C560 C552 1.378 . S
C560 C555 1.350 . S
C561 H548 0.929 . S
C561 C553 1.433 . S
C561 N563 1.384 . S
N562 C558 1.427 . S
N562 C559 1.384 . S
N563 C555 1.427 1_565 S
N563 C561 1.384 . S
C247 C129 0.645 . S
C251 C9 0.615 . S
C265 C169 0.604 . S
C269 C49 0.606 . S
C283 C209 0.616 . S
C287 C89 0.605 . S
C301 C15 0.757 . S
C305 C86 0.776 . S
C319 C55 0.770 . S
C323 C126 0.781 . S
C337 C95 0.759 . S
C341 C166 0.743 . S
C355 C135 0.781 . S
C359 C206 0.767 1_655 S
C373 C175 0.780 . S
C377 C6 0.781 1_565 S
C391 C215 0.734 . S
C395 C46 0.743 . S
C409 C18 1.241 . S
C413 C138 1.248 . S
C427 C58 1.234 . S
C431 C178 1.228 . S
C445 C98 1.229 1_455 S
C449 C218 1.233 . S
C463 C10 4.058 . S
C467 C59 4.115 . S
C481 C50 4.059 . S
C485 C99 4.117 . S
C499 C90 4.059 . S
C503 C139 4.116 . S
C517 C130 4.057 . S
C521 C179 4.118 . S
C535 C170 4.056 . S
C539 C219 4.115 . S
C553 C210 4.055 . S
C557 C19 4.116 . S
