# Generated by pormake.
# Topology whw, (6)-cn, num edge types: 1
# Building blocks:
#     Node 0, Type 0, BuildingBlock: CUWYAW_clean_sbu_0, # of connection points: 6
#     Node 1, Type 0, BuildingBlock: CUWYAW_clean_sbu_0, # of connection points: 6
#     Node 2, Type 0, BuildingBlock: CUWYAW_clean_sbu_0, # of connection points: 6
#     Node 3, Type 0, BuildingBlock: CUWYAW_clean_sbu_0, # of connection points: 6
#     Node 4, Type 0, BuildingBlock: CUWYAW_clean_sbu_0, # of connection points: 6
#     Node 5, Type 0, BuildingBlock: CUWYAW_clean_sbu_0, # of connection points: 6
#     Node 6, Type 0, BuildingBlock: CUWYAW_clean_sbu_0, # of connection points: 6
#     Node 7, Type 0, BuildingBlock: CUWYAW_clean_sbu_0, # of connection points: 6
#     Node 8, Type 0, BuildingBlock: CUWYAW_clean_sbu_0, # of connection points: 6
#     Node 9, Type 0, BuildingBlock: CUWYAW_clean_sbu_0, # of connection points: 6
#     Node 10, Type 0, BuildingBlock: CUWYAW_clean_sbu_0, # of connection points: 6
#     Node 11, Type 0, BuildingBlock: CUWYAW_clean_sbu_0, # of connection points: 6
#     Node 12, Type 0, BuildingBlock: CUWYAW_clean_sbu_0, # of connection points: 6
#     Node 13, Type 0, BuildingBlock: CUWYAW_clean_sbu_0, # of connection points: 6
#     Node 14, Type 0, BuildingBlock: CUWYAW_clean_sbu_0, # of connection points: 6
#     Node 15, Type 0, BuildingBlock: CUWYAW_clean_sbu_0, # of connection points: 6
#     Edge 16, Type (0, 0), BuildingBlock: AJUNOK_clean_linker_0, # of connection points: 2
#     Edge 17, Type (0, 0), BuildingBlock: AJUNOK_clean_linker_0, # of connection points: 2
#     Edge 18, Type (0, 0), BuildingBlock: AJUNOK_clean_linker_0, # of connection points: 2
#     Edge 19, Type (0, 0), BuildingBlock: AJUNOK_clean_linker_0, # of connection points: 2
#     Edge 20, Type (0, 0), BuildingBlock: AJUNOK_clean_linker_0, # of connection points: 2
#     Edge 21, Type (0, 0), BuildingBlock: AJUNOK_clean_linker_0, # of connection points: 2
#     Edge 22, Type (0, 0), BuildingBlock: AJUNOK_clean_linker_0, # of connection points: 2
#     Edge 23, Type (0, 0), BuildingBlock: AJUNOK_clean_linker_0, # of connection points: 2
#     Edge 24, Type (0, 0), BuildingBlock: AJUNOK_clean_linker_0, # of connection points: 2
#     Edge 25, Type (0, 0), BuildingBlock: AJUNOK_clean_linker_0, # of connection points: 2
#     Edge 26, Type (0, 0), BuildingBlock: AJUNOK_clean_linker_0, # of connection points: 2
#     Edge 27, Type (0, 0), BuildingBlock: AJUNOK_clean_linker_0, # of connection points: 2
#     Edge 28, Type (0, 0), BuildingBlock: AJUNOK_clean_linker_0, # of connection points: 2
#     Edge 29, Type (0, 0), BuildingBlock: AJUNOK_clean_linker_0, # of connection points: 2
#     Edge 30, Type (0, 0), BuildingBlock: AJUNOK_clean_linker_0, # of connection points: 2
#     Edge 31, Type (0, 0), BuildingBlock: AJUNOK_clean_linker_0, # of connection points: 2
#     Edge 32, Type (0, 0), BuildingBlock: AJUNOK_clean_linker_0, # of connection points: 2
#     Edge 33, Type (0, 0), BuildingBlock: AJUNOK_clean_linker_0, # of connection points: 2
#     Edge 34, Type (0, 0), BuildingBlock: AJUNOK_clean_linker_0, # of connection points: 2
#     Edge 35, Type (0, 0), BuildingBlock: AJUNOK_clean_linker_0, # of connection points: 2
#     Edge 36, Type (0, 0), BuildingBlock: AJUNOK_clean_linker_0, # of connection points: 2
#     Edge 37, Type (0, 0), BuildingBlock: AJUNOK_clean_linker_0, # of connection points: 2
#     Edge 38, Type (0, 0), BuildingBlock: AJUNOK_clean_linker_0, # of connection points: 2
#     Edge 39, Type (0, 0), BuildingBlock: AJUNOK_clean_linker_0, # of connection points: 2
#     Edge 40, Type (0, 0), BuildingBlock: AJUNOK_clean_linker_0, # of connection points: 2
#     Edge 41, Type (0, 0), BuildingBlock: AJUNOK_clean_linker_0, # of connection points: 2
#     Edge 42, Type (0, 0), BuildingBlock: AJUNOK_clean_linker_0, # of connection points: 2
#     Edge 43, Type (0, 0), BuildingBlock: AJUNOK_clean_linker_0, # of connection points: 2
#     Edge 44, Type (0, 0), BuildingBlock: AJUNOK_clean_linker_0, # of connection points: 2
#     Edge 45, Type (0, 0), BuildingBlock: AJUNOK_clean_linker_0, # of connection points: 2
#     Edge 46, Type (0, 0), BuildingBlock: AJUNOK_clean_linker_0, # of connection points: 2
#     Edge 47, Type (0, 0), BuildingBlock: AJUNOK_clean_linker_0, # of connection points: 2
#     Edge 48, Type (0, 0), BuildingBlock: AJUNOK_clean_linker_0, # of connection points: 2
#     Edge 49, Type (0, 0), BuildingBlock: AJUNOK_clean_linker_0, # of connection points: 2
#     Edge 50, Type (0, 0), BuildingBlock: AJUNOK_clean_linker_0, # of connection points: 2
#     Edge 51, Type (0, 0), BuildingBlock: AJUNOK_clean_linker_0, # of connection points: 2
#     Edge 52, Type (0, 0), BuildingBlock: AJUNOK_clean_linker_0, # of connection points: 2
#     Edge 53, Type (0, 0), BuildingBlock: AJUNOK_clean_linker_0, # of connection points: 2
#     Edge 54, Type (0, 0), BuildingBlock: AJUNOK_clean_linker_0, # of connection points: 2
#     Edge 55, Type (0, 0), BuildingBlock: AJUNOK_clean_linker_0, # of connection points: 2
#     Edge 56, Type (0, 0), BuildingBlock: AJUNOK_clean_linker_0, # of connection points: 2
#     Edge 57, Type (0, 0), BuildingBlock: AJUNOK_clean_linker_0, # of connection points: 2
#     Edge 58, Type (0, 0), BuildingBlock: AJUNOK_clean_linker_0, # of connection points: 2
#     Edge 59, Type (0, 0), BuildingBlock: AJUNOK_clean_linker_0, # of connection points: 2
#     Edge 60, Type (0, 0), BuildingBlock: AJUNOK_clean_linker_0, # of connection points: 2
#     Edge 61, Type (0, 0), BuildingBlock: AJUNOK_clean_linker_0, # of connection points: 2
#     Edge 62, Type (0, 0), BuildingBlock: AJUNOK_clean_linker_0, # of connection points: 2
#     Edge 63, Type (0, 0), BuildingBlock: AJUNOK_clean_linker_0, # of connection points: 2
# Relax obj value: 0.590
# Max RMSD: 0.298
# Mean RMSD: 0.250
data_MOF--net-whw--node1-CUWYAW_clean_sbu_0--edge1-AJUNOK_clean_linker_0
_symmetry_space_group_name_H-M    P1
_symmetry_Int_Tables_number       1
_symmetry_cell_setting            triclinic
loop_
_symmetry_equiv_pos_as_xyz
'x, y, z'
_cell_length_a     35.147486
_cell_length_b     34.4219
_cell_length_c     25.578472
_cell_angle_alpha  99.123354
_cell_angle_beta   82.096385
_cell_angle_gamma 92.210351
loop_
_atom_site_label
_atom_site_type_symbol
_atom_site_fract_x
_atom_site_fract_y
_atom_site_fract_z
_atom_type_partial_charge
C0 C 0.89422 0.14276 0.22359 0.0
Eu1 Eu 0.95432 0.15193 0.27369 0.0
C2 C 0.8875 0.12359 0.16986 0.0
C3 C 0.84985 0.11556 0.15876 0.0
C4 C 0.84309 0.09718 0.10804 0.0
C5 C 0.87389 0.08679 1.06751 0.0
C6 C 0.91161 0.09466 1.07856 0.0
C7 C 0.91836 0.11264 0.12961 0.0
C8 C -0.00927 0.21864 0.31497 0.0
C9 C 0.03262 0.16297 0.18896 0.0
C10 C 0.09601 0.12071 0.33491 0.0
Eu11 Eu 0.03103 0.13521 0.30399 0.0
C12 C 0.11185 0.10662 0.37836 0.0
C13 C 0.14889 0.09118 0.36883 0.0
C14 C 0.16603 0.08109 0.41088 0.0
C15 C 0.14671 0.08742 0.46348 0.0
C16 C 0.10768 0.0978 0.47082 0.0
C17 C 0.09046 0.1076 0.42874 0.0
C18 C 0.00162 0.07685 0.23607 0.0
C19 C 0.95623 0.15128 0.40052 0.0
O20 O 0.90217 0.11912 0.25584 0.0
O21 O 0.9161 0.17446 0.22575 0.0
O22 O 0.95362 0.21276 0.32258 0.0
O23 O 0.00588 0.1884 0.28686 0.0
O24 O -0.00472 0.15395 0.19512 0.0
O25 O 0.05228 0.16422 0.23016 0.0
O26 O 0.08071 0.15575 0.34442 0.0
O27 O 0.07602 0.09463 0.307 0.0
O28 O 0.03739 0.08677 0.23415 0.0
O29 O -0.01735 0.09676 0.27673 0.0
O30 O -0.0066 0.14306 0.38697 0.0
O31 O 0.93398 0.15378 0.36318 0.0
H32 H 0.82569 0.12364 0.18924 0.0
H33 H 0.81371 0.09166 0.1001 0.0
H34 H 0.93571 0.08695 1.04784 0.0
H35 H 0.94763 0.11812 0.13752 0.0
H36 H 0.16521 0.08853 0.32931 0.0
H37 H 0.19546 0.07133 0.40279 0.0
H38 H 0.09107 0.10168 0.50979 0.0
H39 H 0.06111 0.11772 0.43612 0.0
C40 C 0.14159 0.61258 0.42768 0.0
Eu41 Eu 0.13733 0.67705 0.49616 0.0
C42 C 0.15642 0.60119 0.371 0.0
C43 C 0.18174 0.56972 0.35623 0.0
C44 C 0.19499 0.55715 0.30254 0.0
C45 C 0.18299 0.57579 0.26268 0.0
C46 C 0.15891 0.60843 0.27766 0.0
C47 C 0.1458 0.62116 0.33149 0.0
C48 C 0.07223 0.70989 0.55281 0.0
C49 C 0.1224 0.75458 0.44057 0.0
C50 C 0.17282 0.819 0.61236 0.0
Eu51 Eu 0.15463 0.75398 0.55242 0.0
C52 C 0.17332 0.83626 0.66857 0.0
C53 C 0.18649 0.8751 0.68135 0.0
C54 C 0.18418 0.89308 0.73473 0.0
C55 C 0.16764 0.87281 0.77623 0.0
C56 C 0.15884 0.83241 0.76292 0.0
C57 C 0.16109 0.81445 0.70966 0.0
C58 C 0.21128 0.72551 0.47323 0.0
C59 C 0.13526 0.68078 0.62278 0.0
O60 O 0.16739 0.6233 0.45966 0.0
O61 O 0.1112 0.63467 0.43872 0.0
O62 O 0.08031 0.67284 0.54776 0.0
O63 O 0.10016 0.72757 0.52988 0.0
O64 O 0.13074 0.71644 0.43205 0.0
O65 O 0.12534 0.77557 0.4882 0.0
O66 O 0.13914 0.81233 0.59592 0.0
O67 O 0.19659 0.79029 0.59389 0.0
O68 O 0.19859 0.76088 0.48217 0.0
O69 O 0.19383 0.70584 0.50763 0.0
O70 O 0.13995 0.71923 0.62309 0.0
O71 O 0.13728 0.6567 0.57677 0.0
H72 H 0.1905 0.5542 0.38619 0.0
H73 H 0.2129 0.53142 0.29214 0.0
H74 H 0.14952 0.62349 0.24774 0.0
H75 H 0.12688 0.6461 0.34199 0.0
H76 H 0.19756 0.89191 0.64998 0.0
H77 H 0.19401 0.92331 0.74315 0.0
H78 H 0.14832 0.81485 0.79327 0.0
H79 H 0.15218 0.78392 0.70061 0.0
C80 C 0.65945 0.85281 0.53957 0.0
Eu81 Eu 0.59141 0.84847 0.59354 0.0
C82 C 0.67771 0.88329 0.51022 0.0
C83 C 0.70237 0.87188 0.46323 0.0
C84 C 0.70974 0.89739 0.4259 0.0
C85 C 0.69214 0.93443 0.43482 0.0
C86 C 0.67284 0.94816 0.48566 0.0
C87 C 0.66528 0.92246 0.52324 0.0
C88 C 0.5608 0.79344 0.65236 0.0
C89 C 0.51811 0.81627 0.5278 0.0
C90 C 0.44697 0.88908 0.69732 0.0
Eu91 Eu 0.51302 0.86824 0.64258 0.0
C92 C 0.42847 0.88613 0.75112 0.0
C93 C 0.395 0.90697 0.77284 0.0
C94 C 0.37843 0.90455 0.82523 0.0
C95 C 0.39495 0.88062 0.85532 0.0
C96 C 0.42824 0.85969 0.83298 0.0
C97 C 0.44509 0.86286 0.78157 0.0
C98 C 0.54537 0.91726 0.57333 0.0
C99 C 0.5797 0.87266 0.72067 0.0
O100 O 0.65233 0.86297 0.59109 0.0
O101 O 0.63047 0.83403 0.51941 0.0
O102 O 0.59742 0.79928 0.64115 0.0
O103 O 0.54327 0.81193 0.62467 0.0
O104 O 0.55562 0.82539 0.52408 0.0
O105 O 0.4958 0.82543 0.5737 0.0
O106 O 0.45257 0.85548 0.66557 0.0
O107 O 0.47712 0.91253 0.69475 0.0
O108 O 0.51146 0.90163 0.57434 0.0
O109 O 0.56167 0.90575 0.6091 0.0
O110 O 0.54257 0.86778 0.71714 0.0
O111 O 0.60405 0.87432 0.67692 0.0
H112 H 0.71231 0.84187 0.45267 0.0
H113 H 0.7237 0.88543 0.3867 0.0
H114 H 0.65915 0.97653 0.49351 0.0
H115 H 0.64638 0.93192 0.55987 0.0
H116 H 0.38212 0.92538 0.74966 0.0
H117 H 0.35298 0.92126 0.84223 0.0
H118 H 0.44185 0.84167 0.85593 0.0
H119 H 0.47147 0.84769 0.76577 0.0
C120 C 0.42382 0.36075 0.85213 0.0
Eu121 Eu 0.42486 0.28644 0.86095 0.0
C122 C 0.39579 0.38281 0.83169 0.0
C123 C 0.40877 0.41093 0.79919 0.0
C124 C 0.38519 0.42143 0.76429 0.0
C125 C 0.34898 0.40293 0.76085 0.0
C126 C 0.33369 0.3804 0.7999 0.0
C127 C 0.35717 0.37005 0.83506 0.0
C128 C 0.48018 0.24345 0.89007 0.0
C129 C 0.44613 0.21618 0.76351 0.0
C130 C 0.38107 0.13538 0.90072 0.0
Eu131 Eu 0.39917 0.20489 0.87751 0.0
C132 C 0.38325 0.11107 0.94207 0.0
C133 C 0.35362 0.08379 0.95267 0.0
C134 C 0.35535 0.06021 0.99193 0.0
C135 C 0.38708 0.06336 1.02015 0.0
C136 C 0.41693 0.09036 1.00889 0.0
C137 C 0.41497 0.1142 0.97029 0.0
C138 C 0.35537 0.23793 0.81724 0.0
C139 C 0.39768 0.27532 0.98431 0.0
O140 O 0.41147 0.34698 0.8961 0.0
O141 O 0.44288 0.3346 0.81642 0.0
O142 O 0.48793 0.2723 0.86289 0.0
O143 O 0.44502 0.24299 0.90423 0.0
O144 O 0.43468 0.25315 0.77561 0.0
O145 O 0.44245 0.19342 0.80135 0.0
O146 O 0.41396 0.1441 0.87369 0.0
O147 O 0.35721 0.16489 0.91277 0.0
O148 O 0.36532 0.20174 0.80863 0.0
O149 O 0.36768 0.25579 0.85883 0.0
O150 O 0.39414 0.23681 0.96628 0.0
O151 O 0.40627 0.30021 0.95 0.0
H152 H 0.43837 0.42132 0.79642 0.0
H153 H 0.3977 0.43889 0.73432 0.0
H154 H 0.3059 0.3662 0.79777 0.0
H155 H 0.34649 0.34871 0.86058 0.0
H156 H 0.32899 0.08108 0.93101 0.0
H157 H 0.33179 0.04004 1.00087 0.0
H158 H 0.4411 0.09411 1.03147 0.0
H159 H 0.43798 0.13531 0.96294 0.0
C160 C 0.95263 0.9055 0.85984 0.0
Eu161 Eu -0.02799 0.91952 0.95549 0.0
C162 C 0.93917 0.89341 0.80662 0.0
C163 C 0.95197 0.91263 0.76271 0.0
C164 C 0.94269 0.89729 0.71145 0.0
C165 C 0.92024 0.86249 0.70305 0.0
C166 C 0.90671 0.84405 0.74738 0.0
C167 C 0.91597 0.85925 0.79825 0.0
C168 C 0.96868 0.97564 1.04432 0.0
C169 C 0.06323 0.92048 0.95782 0.0
C170 C 0.03545 0.88345 0.13982 0.0
Eu171 Eu 0.00171 0.89533 1.05798 0.0
C172 C 0.04057 0.86424 0.18734 0.0
C173 C 0.03394 0.82366 0.18854 0.0
C174 C 0.0446 0.80568 0.23042 0.0
C175 C 0.06259 0.82756 0.27221 0.0
C176 C 0.06898 0.86815 0.27051 0.0
C177 C 0.05788 0.88609 0.22929 0.0
C178 C -0.01906 0.83669 0.98309 0.0
C179 C 0.91033 0.89946 1.04963 0.0
O180 O 0.94944 0.88007 0.8933 0.0
O181 O 0.96621 0.94052 0.87858 0.0
O182 O 0.94539 0.97469 1.00833 0.0
O183 O -0.0053 0.9507 1.0283 0.0
O184 O 0.03469 0.92754 0.93228 0.0
O185 O 0.05789 0.9084 1.00534 0.0
O186 O 0.0106 0.91164 0.14304 0.0
O187 O 0.04127 0.86248 0.09219 0.0
O188 O -0.02699 0.83668 1.03426 0.0
O189 O -0.00113 0.86792 0.97542 0.0
O190 O 0.93731 0.90316 1.08213 0.0
O191 O 0.9178 0.89796 0.99782 0.0
H192 H -0.02972 0.93863 0.76755 0.0
H193 H 0.95422 0.91193 0.67809 0.0
H194 H 0.88914 0.81749 0.74267 0.0
H195 H 0.90547 0.84356 0.83102 0.0
H196 H 0.02121 0.80563 0.15656 0.0
H197 H 0.03902 0.77447 0.22975 0.0
H198 H 0.08399 0.88616 0.30007 0.0
H199 H 0.0644 0.91709 0.22905 0.0
C200 C 0.39154 0.61352 0.27291 0.0
Eu201 Eu 0.40545 0.68434 0.25094 0.0
C202 C 0.36868 0.59849 0.31759 0.0
C203 C 0.36093 0.55811 0.31592 0.0
C204 C 0.33948 0.54433 0.35974 0.0
C205 C 0.32545 0.57096 0.4053 0.0
C206 C 0.33201 0.61158 0.40521 0.0
C207 C 0.35337 0.62515 0.36178 0.0
C208 C 0.46819 0.71457 0.1966 0.0
C209 C 0.43918 0.75068 0.34339 0.0
C210 C 0.38662 0.83874 0.22767 0.0
Eu211 Eu 0.3975 0.76864 0.24744 0.0
C212 C 0.38927 0.8552 0.17804 0.0
C213 C 0.36109 0.88117 0.17144 0.0
C214 C 0.35775 0.88959 0.1206 0.0
C215 C 0.38238 0.87171 1.07629 0.0
C216 C 0.41231 0.84814 1.08365 0.0
C217 C 0.41561 0.83973 0.13415 0.0
C218 C 0.34403 0.73924 0.31914 0.0
C219 C 0.3999 0.70575 0.13481 0.0
O220 O 0.37127 0.63041 0.24401 0.0
O221 O 0.42245 0.63399 0.28393 0.0
O222 O 0.45748 0.67785 0.18763 0.0
O223 O 0.448 0.73162 0.23737 0.0
O224 O 0.42571 0.7139 0.33129 0.0
O225 O 0.43588 0.77737 0.31237 0.0
O226 O 0.41894 0.82817 0.24113 0.0
O227 O 0.35909 0.81233 0.23266 0.0
O228 O 0.3616 0.77274 0.32743 0.0
O229 O 0.35435 0.72224 0.27165 0.0
O230 O 0.40473 0.74263 0.15767 0.0
O231 O 0.39295 0.67771 0.16477 0.0
H232 H 0.37221 0.5373 0.28144 0.0
H233 H 0.33525 0.51292 0.35901 0.0
H234 H 0.32295 0.63299 0.44013 0.0
H235 H 0.35901 0.65645 0.36334 0.0
H236 H 0.34033 0.89301 0.20498 0.0
H237 H 0.3347 0.90807 0.11546 0.0
H238 H 0.43202 0.83471 1.04984 0.0
H239 H 0.43733 0.81934 0.13826 0.0
C240 C 0.6418 0.12828 0.50153 0.0
Eu241 Eu 0.58254 0.12946 0.45123 0.0
C242 C 0.64082 0.11713 0.55597 0.0
C243 C 0.62727 0.14775 0.60229 0.0
C244 C 0.58648 0.13816 0.69707 0.0
C245 C 0.58235 0.096 0.63709 0.0
C246 C 0.6157 0.05881 0.59775 0.0
C247 C 0.64075 0.07529 0.55837 0.0
C248 C 0.54481 0.18726 0.41954 0.0
C249 C 0.50486 0.14585 0.54136 0.0
C250 C 0.44453 0.07857 0.37803 0.0
Eu251 Eu 0.50641 0.10433 0.41867 0.0
C252 C 0.43269 0.06762 0.32525 0.0
C253 C 0.39911 0.04496 0.31943 0.0
C254 C 0.38888 0.03208 0.26859 0.0
C255 C 0.41254 0.04136 0.22331 0.0
C256 C 0.44624 0.06399 0.22952 0.0
C257 C 0.45629 0.07696 0.28016 0.0
C258 C 0.53487 0.05461 0.47454 0.0
C259 C 0.58003 0.12108 0.32521 0.0
O260 O 0.63367 0.09987 0.46389 0.0
O261 O 0.62387 0.16062 0.49946 0.0
O262 O 0.5822 0.18533 0.41352 0.0
O263 O 0.53059 0.16149 0.44619 0.0
O264 O 0.54269 0.14107 0.53172 0.0
O265 O 0.48366 0.13785 0.50159 0.0
O266 O 0.45166 0.11594 0.39339 0.0
O267 O 0.47046 0.05577 0.38833 0.0
O268 O 0.49985 0.06582 0.48061 0.0
O269 O 0.55487 0.06977 0.43692 0.0
O270 O 0.54259 0.11365 0.33766 0.0
O271 O 0.60326 0.12406 0.3623 0.0
H272 H 0.63844 0.17507 0.588 0.0
H273 H 0.56355 0.15413 0.72471 0.0
H274 H 0.60864 0.02765 0.59127 0.0
H275 H 0.65424 0.05515 0.52464 0.0
H276 H 0.38091 0.0372 0.35413 0.0
H277 H 0.3625 0.0152 0.26459 0.0
H278 H 0.46422 0.07267 0.19524 0.0
H279 H 0.48236 0.09431 0.28415 0.0
C280 C 0.19724 0.29485 0.51749 0.0
Eu281 Eu 0.19517 0.28298 0.6168 0.0
C282 C 0.17715 0.31568 0.48204 0.0
C283 C 0.19626 0.34565 0.45651 0.0
C284 C 0.1797 0.36205 0.41807 0.0
C285 C 0.14348 0.34895 0.40371 0.0
C286 C 0.124 0.31955 0.43022 0.0
C287 C 0.14052 0.30322 0.46871 0.0
C288 C 0.24832 0.27981 0.68395 0.0
C289 C 0.19335 0.18779 0.62593 0.0
C290 C 0.14371 0.23855 0.8228 0.0
Eu291 Eu 0.16537 0.25279 0.72528 0.0
C292 C 0.12973 0.23072 0.8786 0.0
C293 C 0.09069 0.23504 0.89971 0.0
C294 C 0.07652 0.22475 0.94999 0.0
C295 C 0.10073 0.20999 0.98159 0.0
C296 C 0.13996 0.20576 0.96034 0.0
C297 C 0.15421 0.21611 0.90989 0.0
C298 C 0.11543 0.25158 0.65338 0.0
C299 C 0.17582 0.34671 0.71371 0.0
O300 O 0.17894 0.26543 0.53717 0.0
O301 O 0.21791 0.31553 0.55136 0.0
O302 O 0.25225 0.30282 0.64766 0.0
O303 O 0.22112 0.25602 0.67641 0.0
O304 O 0.19744 0.21657 0.59655 0.0
O305 O 0.18404 0.19404 0.67847 0.0
O306 O 0.17894 0.23248 0.79863 0.0
O307 O 0.12131 0.25367 0.79464 0.0
O308 O 0.11851 0.22396 0.6815 0.0
O309 O 0.13839 0.27943 0.66557 0.0
O310 O 0.17804 0.31861 0.7433 0.0
O311 O 0.17281 0.33925 0.66268 0.0
H312 H 0.22463 0.35571 0.4652 0.0
H313 H 0.19564 0.38467 0.39888 0.0
H314 H 0.09658 0.30781 0.41969 0.0
H315 H 0.12495 0.27987 0.48678 0.0
H316 H 0.07068 0.24565 0.87679 0.0
H317 H 0.04626 0.22806 0.96395 0.0
H318 H 0.15968 0.19319 0.98173 0.0
H319 H 0.18432 0.21175 0.89484 0.0
C320 C 0.89458 0.11663 0.79657 0.0
Eu321 Eu 0.90901 0.18198 0.75754 0.0
C322 C 0.86815 0.10614 0.84253 0.0
C323 C 0.873 0.12879 0.90436 0.0
C324 C 0.80173 0.11415 0.9776 0.0
C325 C 0.78639 0.07456 0.93438 0.0
C326 C 0.79019 0.06733 0.86639 0.0
C327 C 0.82961 0.07898 0.8274 0.0
C328 C -0.0292 0.21138 0.70119 0.0
C329 C 0.94131 0.25324 0.8434 0.0
C330 C 0.89459 0.33561 0.71888 0.0
Eu331 Eu 0.9009 0.26563 0.74244 0.0
C332 C 0.89902 0.35461 0.67087 0.0
C333 C 0.86619 0.36714 0.65301 0.0
C334 C 0.86896 0.37971 0.60347 0.0
C335 C 0.90465 0.38015 0.57151 0.0
C336 C 0.93795 0.37116 0.59146 0.0
C337 C 0.93518 0.35823 0.64074 0.0
C338 C 0.84569 0.24013 0.8152 0.0
C339 C 0.90453 0.19533 0.63525 0.0
O340 O 0.87749 0.12649 0.75838 0.0
O341 O 0.92416 0.13957 0.80651 0.0
O342 O 0.96262 0.17384 0.69551 0.0
O343 O 0.94999 0.22913 0.74037 0.0
O344 O 0.92673 0.21682 0.83578 0.0
O345 O 0.93944 0.27697 0.80782 0.0
O346 O 0.92586 0.32329 0.73317 0.0
O347 O 0.86578 0.31048 0.72301 0.0
O348 O 0.86241 0.27421 0.82035 0.0
O349 O 0.85783 0.22027 0.77009 0.0
O350 O 0.90474 0.23364 0.65469 0.0
O351 O 0.90207 0.1688 0.66826 0.0
H352 H 0.8983 0.14717 0.91225 0.0
H353 H 0.79397 0.12039 1.02087 0.0
H354 H 0.76814 0.04973 0.8476 0.0
H355 H 0.82905 0.06869 0.78529 0.0
H356 H 0.83812 0.36528 0.67614 0.0
H357 H 0.84297 0.38675 0.5888 0.0
H358 H 0.96587 0.37224 0.5677 0.0
H359 H 0.96111 0.34954 0.65397 0.0
C360 C 0.68895 0.83223 1.0616 0.0
Eu361 Eu 0.6949 0.80344 0.14941 0.0
C362 C 0.67504 0.83225 1.00867 0.0
C363 C 0.69359 0.85697 0.97389 0.0
C364 C 0.67815 0.86297 0.92787 0.0
C365 C 0.64347 0.84439 0.91474 0.0
C366 C 0.6257 0.81826 0.94862 0.0
C367 C 0.64101 0.81262 0.99515 0.0
C368 C 0.75413 0.80149 0.20858 0.0
C369 C 0.70116 0.70909 0.1383 0.0
C370 C 0.673 0.72523 0.33716 0.0
Eu371 Eu 0.67832 0.76347 0.25468 0.0
C372 C 0.64976 0.71818 0.38908 0.0
C373 C 0.6285 0.68272 0.39118 0.0
C374 C 0.60759 0.67423 0.43918 0.0
C375 C 0.60741 0.70065 0.4873 0.0
C376 C 0.62937 0.73578 0.48561 0.0
C377 C 0.65011 0.74452 0.43727 0.0
C378 C 0.61551 0.78233 0.21224 0.0
C379 C 0.67818 0.85765 0.26117 0.0
O380 O 0.66351 0.83698 0.10455 0.0
O381 O 0.71811 0.8108 1.06637 0.0
O382 O 0.75083 0.82931 0.18044 0.0
O383 O 0.72905 0.7756 0.19971 0.0
O384 O 0.6983 0.73993 0.11419 0.0
O385 O 0.69704 0.71095 0.19104 0.0
O386 O 0.6931 0.75801 0.33435 0.0
O387 O 0.65833 0.7127 0.29309 0.0
O388 O 0.61867 0.78724 0.26279 0.0
O389 O 0.6467 0.76914 0.18711 0.0
O390 O 0.68743 0.82823 0.28462 0.0
O391 O 0.67196 0.8532 0.21115 0.0
H392 H 0.71952 0.873 0.98343 0.0
H393 H 0.69288 0.88335 0.90346 0.0
H394 H 0.59976 0.80219 0.93944 0.0
H395 H 0.62581 0.79351 1.02112 0.0
H396 H 0.62817 0.6612 0.3554 0.0
H397 H 0.59217 0.64636 0.43874 0.0
H398 H 0.63035 0.75664 0.52183 0.0
H399 H 0.66656 0.77179 0.43778 0.0
C400 C 0.65507 0.10802 0.91928 0.0
Eu401 Eu 0.64293 0.17176 0.98968 0.0
C402 C 0.6593 0.10346 0.86075 0.0
C403 C 0.64447 0.13287 0.83839 0.0
C404 C 0.64346 0.1291 0.78435 0.0
C405 C 0.65637 0.09488 0.74989 0.0
C406 C 0.67378 0.06589 0.77164 0.0
C407 C 0.67549 0.07031 0.82703 0.0
C408 C 0.57395 0.20249 1.03549 0.0
C409 C 0.62505 0.25088 0.93406 0.0
C410 C 0.66399 0.3172 0.11086 0.0
Eu411 Eu 0.65281 0.25143 1.04878 0.0
C412 C 0.66072 0.33372 0.16745 0.0
C413 C 0.67602 0.37135 0.18263 0.0
C414 C 0.67102 0.38871 0.2362 0.0
C415 C 0.65073 0.36849 0.27514 0.0
C416 C 0.63703 0.32995 0.25986 0.0
C417 C 0.6421 0.31263 0.20635 0.0
C418 C 0.71229 0.22802 0.97213 0.0
C419 C 0.63567 0.17673 0.11738 0.0
O420 O 0.68239 0.12813 0.94167 0.0
O421 O 0.62108 0.11926 0.94302 0.0
O422 O 0.58286 0.16583 1.03323 0.0
O423 O 0.60332 0.22054 1.01758 0.0
O424 O 0.63343 0.21258 0.92692 0.0
O425 O 0.62625 0.27225 0.98185 0.0
O426 O 0.63176 0.30809 0.09099 0.0
O427 O 0.69036 0.29061 0.09443 0.0
O428 O 0.69795 0.26265 0.98245 0.0
O429 O 0.69589 0.2065 1.00527 0.0
O430 O 0.63647 0.21539 0.11798 0.0
O431 O 0.64285 0.15278 1.07138 0.0
H432 H 0.63037 0.15761 0.86312 0.0
H433 H 0.62766 0.15146 0.7724 0.0
H434 H 0.68293 0.03856 0.74666 0.0
H435 H 0.68726 0.04708 0.84365 0.0
H436 H 0.6908 0.38776 0.15284 0.0
H437 H 0.68151 0.41852 0.24694 0.0
H438 H 0.62031 0.31407 0.28874 0.0
H439 H 0.63031 0.28342 0.19513 0.0
C440 C 0.93979 0.86795 0.33197 0.0
Eu441 Eu 0.93729 0.80126 0.36616 0.0
C442 C 0.92026 0.87659 0.2882 0.0
C443 C 0.92648 0.85274 0.23825 0.0
C444 C 0.90053 0.85239 0.20194 0.0
C445 C 0.86725 0.87549 0.2147 0.0
C446 C 0.86263 0.90128 0.26341 0.0
C447 C 0.88887 0.9019 0.29979 0.0
C448 C -0.01614 0.77103 0.4239 0.0
C449 C 0.9624 0.72703 0.27174 0.0
C450 C 0.89496 0.64992 0.40886 0.0
Eu451 Eu 0.91435 0.71889 0.38326 0.0
C452 C 0.88969 0.63107 0.45647 0.0
C453 C 0.87659 0.59187 0.45337 0.0
C454 C 0.87028 0.57417 0.49941 0.0
C455 C 0.87672 0.59586 0.54871 0.0
C456 C 0.89005 0.63506 0.55136 0.0
C457 C 0.89656 0.65254 0.50551 0.0
C458 C 0.86989 0.75219 0.32357 0.0
C459 C 0.90153 0.79067 0.48396 0.0
O460 O 0.91593 0.86026 0.37303 0.0
O461 O 0.96826 0.84317 0.31939 0.0
O462 O -0.02115 0.8084 0.42677 0.0
O463 O -0.03087 0.75217 0.385 0.0
O464 O 0.95198 0.76443 0.28299 0.0
O465 O 0.95662 0.70395 0.3087 0.0
O466 O 0.93029 0.66004 0.39217 0.0
O467 O 0.87027 0.6773 0.40842 0.0
O468 O 0.88078 0.71609 0.31336 0.0
O469 O 0.88192 0.76905 0.3657 0.0
O470 O 0.90735 0.75246 0.46881 0.0
O471 O 0.90393 0.81465 0.44825 0.0
H472 H 0.95058 0.8331 0.22781 0.0
H473 H 0.90724 0.8343 0.16344 0.0
H474 H 0.83856 0.92068 0.27384 0.0
H475 H 0.88335 0.92045 0.33833 0.0
H476 H 0.87115 0.5751 0.41548 0.0
H477 H 0.86021 0.54387 0.49668 0.0
H478 H 0.89592 0.65203 0.58894 0.0
H479 H 0.90686 0.68277 0.50832 0.0
C480 C 0.38385 0.64874 0.74569 0.0
Eu481 Eu 0.45025 0.65177 0.7802 0.0
C482 C 0.36702 0.6267 0.70055 0.0
C483 C 0.38996 0.6154 0.65167 0.0
C484 C 0.37399 0.5936 0.60928 0.0
C485 C 0.3349 0.58227 0.61514 0.0
C486 C 0.31223 0.59262 0.66472 0.0
C487 C 0.32826 0.61481 0.70721 0.0
C488 C 0.49042 0.71744 0.81823 0.0
C489 C 0.52651 0.65803 0.69053 0.0
C490 C 0.59067 0.61479 0.83739 0.0
Eu491 Eu 0.52687 0.63221 0.8065 0.0
C492 C 0.61413 0.61805 0.88132 0.0
C493 C 0.62087 0.58421 0.90294 0.0
C494 C 0.64436 0.58628 0.94321 0.0
C495 C 0.66176 0.62217 0.96186 0.0
C496 C 0.65557 0.65578 0.93943 0.0
C497 C 0.63204 0.65377 0.89951 0.0
C498 C 0.49608 0.57435 0.73869 0.0
C499 C 0.45691 0.65552 0.9052 0.0
O500 O 0.39231 0.62743 0.78031 0.0
O501 O 0.4107 0.67481 0.7347 0.0
O502 O 0.45336 0.71304 0.8283 0.0
O503 O 0.50321 0.68616 0.79072 0.0
O504 O 0.48863 0.65105 0.6985 0.0
O505 O 0.54734 0.65781 0.73018 0.0
O506 O 0.58665 0.64623 0.81568 0.0
O507 O 0.55943 0.59282 0.84126 0.0
O508 O 0.53203 0.58283 0.73848 0.0
O509 O 0.47703 0.59464 0.77907 0.0
O510 O 0.49455 0.65378 0.89026 0.0
O511 O 0.43305 0.6496 0.86897 0.0
H512 H 0.42015 0.62355 0.64617 0.0
H513 H 0.39212 0.58662 0.57132 0.0
H514 H 0.28216 0.58405 0.67037 0.0
H515 H 0.31044 0.62273 0.74523 0.0
H516 H 0.60791 0.55614 0.88872 0.0
H517 H 0.64865 0.56007 0.96002 0.0
H518 H 0.66807 0.68405 0.95394 0.0
H519 H 0.62778 0.68024 0.88324 0.0
C520 C 0.16176 0.34557 1.0335 0.0
Eu521 Eu 0.09469 0.34943 0.09024 0.0
C522 C 0.17369 0.35804 0.98156 0.0
C523 C 0.20118 0.38858 0.97728 0.0
C524 C 0.2053 0.40817 0.9329 0.0
C525 C 0.18138 0.39779 0.89317 0.0
C526 C 0.15608 0.36523 0.89584 0.0
C527 C 0.15213 0.3457 0.93963 0.0
C528 C 0.06365 0.30217 0.1607 0.0
C529 C 0.02317 0.31415 1.0256 0.0
C530 C 0.95067 0.39476 0.18549 0.0
Eu531 Eu 0.0169 0.37122 0.13426 0.0
C532 C 0.93268 0.39859 0.24143 0.0
C533 C 0.94259 0.43024 0.27937 0.0
C534 C 0.93116 0.42981 0.3336 0.0
C535 C 0.90967 0.39786 0.35036 0.0
C536 C 0.89665 0.36819 0.31245 0.0
C537 C 0.908 0.3686 0.25823 0.0
C538 C 0.04877 0.41381 1.05652 0.0
C539 C 0.08296 0.38489 0.21377 0.0
O540 O 0.15127 0.37482 1.07125 0.0
O541 O 0.13816 0.31513 1.03463 0.0
O542 O 0.10007 0.30992 0.15181 0.0
O543 O 0.0465 0.31533 0.12735 0.0
O544 O 0.05955 0.32692 1.02062 0.0
O545 O 0.00119 0.32215 1.07181 0.0
O546 O 0.95687 0.35879 0.16091 0.0
O547 O -0.02036 0.41863 0.17514 0.0
O548 O 0.01581 0.39599 1.05866 0.0
O549 O 0.06509 0.40632 0.09492 0.0
O550 O 0.04586 0.37942 0.21039 0.0
O551 O 0.10768 0.38231 0.16973 0.0
H552 H 0.21792 0.39863 1.00954 0.0
H553 H 0.226 0.43218 0.93051 0.0
H554 H 0.1389 0.35496 0.86414 0.0
H555 H 0.13078 0.32223 0.94162 0.0
H556 H 0.96098 0.45419 0.26757 0.0
H557 H 0.9414 0.45296 0.36246 0.0
H558 H 0.87963 0.34352 0.32492 0.0
H559 H 0.89929 0.3443 0.22971 0.0
C560 C 0.42616 0.40472 0.37085 0.0
Eu561 Eu 0.45528 0.41393 0.46165 0.0
C562 C 0.42709 0.38613 0.31323 0.0
C563 C 0.40645 0.40343 0.27982 0.0
C564 C 0.40143 0.38416 0.22825 0.0
C565 C 0.41699 0.3467 0.20763 0.0
C566 C 0.43858 0.32977 0.24084 0.0
C567 C 0.44325 0.34899 0.2929 0.0
C568 C 0.45886 0.47245 0.54729 0.0
C569 C 0.54817 0.41799 0.45535 0.0
C570 C 0.53341 0.38155 0.63749 0.0
Eu571 Eu 0.49481 0.39284 0.5596 0.0
C572 C 0.53978 0.35804 0.68084 0.0
C573 C 0.56579 0.3266 0.6698 0.0
C574 C 0.57687 0.30842 0.71099 0.0
C575 C 0.56266 0.32096 0.76508 0.0
C576 C 0.53559 0.35151 0.77606 0.0
C577 C 0.5245 0.36981 0.73479 0.0
C578 C 0.47325 0.33211 0.48676 0.0
C579 C 0.4033 0.39623 0.56717 0.0
O580 O 0.41902 0.38137 0.40695 0.0
O581 O 0.44918 0.43448 0.38526 0.0
O582 O 0.43202 0.47047 0.51632 0.0
O583 O 0.48344 0.44673 0.52829 0.0
O584 O 0.51781 0.41718 0.42964 0.0
O585 O 0.54611 0.41328 0.50617 0.0
O586 O 0.5046 0.40592 0.64428 0.0
O587 O 0.54176 0.36538 0.58748 0.0
O588 O 0.46882 0.33228 0.53795 0.0
O589 O 0.48767 0.36446 0.47772 0.0
O590 O 0.43314 0.4037 0.59396 0.0
O591 O 0.40635 0.39048 0.51469 0.0
H592 H 0.39293 0.43156 0.29434 0.0
H593 H 0.38435 0.39846 0.20496 0.0
H594 H 0.45214 0.30168 0.22668 0.0
H595 H 0.45901 0.33448 0.31761 0.0
H596 H 0.57885 0.31682 0.62919 0.0
H597 H 0.5981 0.28561 0.70056 0.0
H598 H 0.52325 0.36177 0.81686 0.0
H599 H 0.50474 0.39404 0.74543 0.0
C600 C 0.15436 0.62536 0.99504 0.0
Eu601 Eu 0.09019 0.63365 0.95802 0.0
C602 C 0.16725 0.59846 1.0286 0.0
C603 C 0.14295 0.58718 1.07264 0.0
C604 C 0.15065 0.55303 0.09575 0.0
C605 C 0.18769 0.53534 1.07513 0.0
C606 C 0.21294 0.54907 1.03482 0.0
C607 C 0.20233 0.57975 1.01095 0.0
C608 C 0.05432 0.69539 0.93288 0.0
C609 C 0.01808 0.6523 1.05295 0.0
C610 C 0.94319 0.60365 0.89847 0.0
Eu611 Eu 0.01054 0.61701 0.92981 0.0
C612 C 0.92774 0.59199 0.84821 0.0
C613 C 0.88841 0.58362 0.8485 0.0
C614 C 0.8736 0.57179 0.80043 0.0
C615 C 0.89815 0.56797 0.75177 0.0
C616 C 0.93776 0.57537 0.75203 0.0
C617 C 0.95244 0.58717 0.79996 0.0
C618 C 0.03763 0.56078 0.97594 0.0
C619 C 0.08223 0.62925 0.83299 0.0
O620 O 0.1467 0.60799 0.94823 0.0
O621 O 0.12922 0.65219 1.01745 0.0
O622 O 0.09162 0.69283 0.92561 0.0
O623 O 0.04041 0.66955 0.95882 0.0
O624 O 0.05431 0.64084 1.04128 0.0
O625 O -0.00384 0.65113 1.01427 0.0
O626 O 0.95894 0.63886 0.90622 0.0
O627 O 0.96363 0.57676 0.91157 0.0
O628 O 0.00371 0.57519 0.98693 0.0
O629 O 0.05769 0.5769 0.93945 0.0
O630 O 0.04487 0.6225 0.84682 0.0
O631 O 0.10657 0.63165 0.86858 0.0
H632 H 0.11688 0.60362 0.08642 0.0
H633 H 0.1132 0.5161 0.16445 0.0
H634 H 0.24041 0.53521 1.02092 0.0
H635 H 0.22129 0.58838 0.97746 0.0
H636 H 0.86915 0.58671 0.88578 0.0
H637 H 0.84294 0.56671 0.80107 0.0
H638 H 0.95717 0.57391 0.71504 0.0
H639 H -0.01706 0.59314 0.79935 0.0
C640 C 0.03138 0.16908 0.09159 0.0
C641 C 0.05131 0.17456 0.13659 0.0
C642 C 0.04752 0.18027 1.04236 0.0
C643 C 0.08447 0.19801 1.03518 0.0
H644 H 0.00293 0.15573 0.09409 0.0
H645 H 0.03078 0.17443 1.00938 0.0
S646 S 0.14851 0.22059 0.14082 0.0
N647 N 0.1104 0.19926 0.17034 0.0
N648 N 0.13979 0.22185 1.07935 0.0
C649 C 0.1046 0.20403 1.0801 0.0
C650 C 0.08834 0.19204 0.13013 0.0
C651 C 0.10784 0.75375 0.34501 0.0
C652 C 0.1065 0.77321 0.39823 0.0
C653 C 0.09309 0.77088 0.30512 0.0
C654 C 0.07591 0.80834 0.31625 0.0
H655 H 0.12092 0.72514 0.33369 0.0
H656 H 0.09602 0.75485 0.26483 0.0
S657 S 0.06088 0.86993 0.45049 0.0
N658 N 0.08408 0.83143 0.46008 0.0
N659 N 0.05541 0.8624 0.38664 0.0
C660 C 0.07311 0.82736 0.36981 0.0
C661 C 0.08853 0.81021 0.41017 0.0
C662 C 0.43953 0.78363 0.43843 0.0
C663 C 0.45929 0.76285 0.39146 0.0
C664 C 0.45886 0.79999 0.48189 0.0
C665 C 0.49913 0.79714 0.48029 0.0
H666 H 0.40891 0.788 0.44124 0.0
H667 H 0.44195 0.81597 0.5167 0.0
S668 S 0.56412 0.74674 0.36487 0.0
N669 N 0.52122 0.7407 0.34515 0.0
N670 N 0.55778 0.77169 0.4261 0.0
C671 C 0.51918 0.77643 0.43316 0.0
C672 C 0.49926 0.75934 0.38908 0.0
C673 C 0.46459 0.15803 0.69075 0.0
C674 C 0.46088 0.1991 0.70622 0.0
C675 C 0.47729 0.14111 0.6374 0.0
C676 C 0.48723 0.16411 0.59651 0.0
H677 H 0.45755 0.13851 0.72012 0.0
H678 H 0.47996 0.10971 0.6285 0.0
S679 S 0.48491 0.27299 0.61478 0.0
N680 N 0.46951 0.26247 0.67498 0.0
N681 N 0.4936 0.23044 0.57564 0.0
C682 C 0.48394 0.20513 0.61117 0.0
C683 C 0.4708 0.22257 0.66551 0.0
C684 C 0.83849 0.91599 0.16069 0.0
C685 C 0.84233 0.87795 0.17279 0.0
C686 C 0.85363 0.92386 0.10989 0.0
C687 C 0.87062 0.89336 1.07214 0.0
H688 H 0.83261 0.94082 0.1921 0.0
H689 H 0.85822 0.95415 0.1036 0.0
S690 S 0.85451 0.78719 1.07368 0.0
N691 N 0.83944 0.80849 0.13521 0.0
N692 N 0.86845 0.82336 1.03962 0.0
C693 C 0.85952 0.85484 1.07813 0.0
C694 C 0.84382 0.84696 0.12947 0.0
C695 C 0.82116 0.0229 0.9674 0.0
C696 C 0.81634 0.04587 0.92818 0.0
C697 C 0.84606 0.03347 1.00638 0.0
C698 C 0.86574 0.06997 1.01327 0.0
H699 H 0.8035 -0.00343 0.96928 0.0
H700 H 0.84603 0.01449 1.0364 0.0
S701 S 0.82973 0.17479 0.95749 0.0
N702 N 0.81456 0.12809 0.90174 0.0
N703 N 0.85988 0.14175 0.99555 0.0
C704 C 0.86372 0.09519 0.97617 0.0
C705 C 0.83948 0.07766 0.92065 0.0
C706 C 0.60367 0.05865 0.70943 0.0
C707 C 0.63831 0.08435 0.7002 0.0
C708 C 0.5653 0.05762 0.68999 0.0
C709 C 0.5518 0.0796 0.65172 0.0
H710 H 0.60435 0.03972 0.73936 0.0
H711 H 0.54414 0.03776 0.70682 0.0
S712 S 0.60403 0.19988 0.67057 0.0
N713 N 0.64667 0.16088 0.68274 0.0
N714 N 0.56549 0.16041 0.62995 0.0
C715 C 0.57724 0.11035 0.62172 0.0
C716 C 0.64058 0.1126 0.66184 0.0
C717 C 0.6446 0.93278 0.37583 0.0
C718 C 0.68082 0.94807 0.38734 0.0
C719 C 0.64219 0.90502 0.33021 0.0
C720 C 0.67475 0.89677 0.29259 0.0
H721 H 0.6206 0.93388 0.40701 0.0
H722 H 0.61636 0.88695 0.32756 0.0
S723 S 0.76629 0.95319 0.28742 0.0
N724 N 0.74294 0.96946 0.34699 0.0
N725 N 0.73791 0.91988 0.25764 0.0
C726 C 0.70691 0.9219 0.2959 0.0
C727 C 0.70948 0.94883 0.34365 0.0
C728 C 0.6031 0.69529 0.5861 0.0
C729 C 0.58552 0.69084 0.53907 0.0
C730 C 0.58396 0.68446 0.63415 0.0
C731 C 0.54595 0.66904 0.63815 0.0
H732 H 0.63232 0.70656 0.58561 0.0
H733 H 0.59928 0.68839 0.66861 0.0
S734 S 0.48574 0.65385 0.52774 0.0
N735 N 0.52686 0.67147 0.50063 0.0
N736 N 0.49114 0.65131 0.59023 0.0
C737 C 0.52772 0.66523 0.5917 0.0
C738 C 0.54736 0.67599 0.54259 0.0
C739 C 0.59733 0.24564 0.84552 0.0
C740 C 0.60965 0.26908 0.89087 0.0
C741 C 0.58169 0.26236 0.806 0.0
C742 C 0.57757 0.30344 0.80936 0.0
H743 H 0.59914 0.21395 0.84072 0.0
H744 H 0.57208 0.24278 0.77285 0.0
S745 S 0.60547 0.37841 0.91946 0.0
N746 N 0.61618 0.33619 0.93625 0.0
N747 N 0.58768 0.36704 0.86242 0.0
C748 C 0.58951 0.32715 0.85466 0.0
C749 C 0.6053 0.31021 0.89496 0.0
C750 C 0.01421 0.30817 0.92832 0.0
C751 C 0.00455 0.29559 0.9783 0.0
C752 C -0.00642 0.2944 0.8852 0.0
C753 C 0.96296 0.26679 0.88979 0.0
H754 H 0.03707 0.32977 0.92291 0.0
H755 H 0.00182 0.30547 0.84784 0.0
S756 S 0.92793 0.22257 1.01114 0.0
N757 N 0.96304 0.25285 1.02921 0.0
N758 N 0.92528 0.22632 0.94816 0.0
C759 C 0.95393 0.25303 0.93904 0.0
C760 C -0.02565 0.26765 0.98322 0.0
C761 C 0.0016 0.67632 0.20581 0.0
C762 C -0.02236 0.70941 0.21572 0.0
C763 C 0.01486 0.65817 0.1533 0.0
C764 C 0.00374 0.67156 0.10847 0.0
H765 H 0.0104 0.66442 0.23894 0.0
H766 H 0.03344 0.63305 0.14781 0.0
S767 S 0.94244 0.75761 0.11211 0.0
N768 N 0.94438 0.75527 0.17561 0.0
N769 N 0.96835 0.72082 1.07775 0.0
C770 C -0.02004 0.70465 0.11786 0.0
C771 C 0.96721 0.72364 0.17114 0.0
C772 C 0.34591 0.4221 0.62523 0.0
C773 C 0.36667 0.38911 0.59855 0.0
C774 C 0.33156 0.42435 0.67952 0.0
C775 C 0.33768 0.3934 0.70697 0.0
H776 H 0.34627 0.44837 0.60683 0.0
H777 H 0.32142 0.45235 0.70158 0.0
S778 S 0.38016 0.29684 0.64807 0.0
N779 N 0.3831 0.32171 0.59771 0.0
N780 N 0.35749 0.32563 0.69986 0.0
C781 C 0.35055 0.35726 0.67704 0.0
C782 C 0.36464 0.35512 0.622 0.0
C783 C 0.33906 0.53576 0.52998 0.0
C784 C 0.31799 0.56432 0.56696 0.0
C785 C 0.33638 0.53246 0.47544 0.0
C786 C 0.31217 0.55737 0.45692 0.0
H787 H 0.36149 0.51989 0.54229 0.0
H788 H 0.35739 0.51468 0.44781 0.0
S789 S 0.23963 0.62422 0.53959 0.0
N790 N 0.26422 0.60914 0.58295 0.0
N791 N 0.25773 0.60104 0.48036 0.0
C792 C 0.28489 0.57909 0.49445 0.0
C793 C 0.28822 0.5832 0.54988 0.0
C794 C 0.22467 0.53804 0.18371 0.0
C795 C 0.18962 0.5563 0.20675 0.0
C796 C 0.22895 0.51327 0.13316 0.0
C797 C 0.19811 0.50372 0.10301 0.0
H798 H 0.24974 0.54401 0.20423 0.0
H799 H 0.25742 0.50358 0.11544 0.0
S800 S 0.08369 0.54042 0.11849 0.0
N801 N 0.11873 0.56993 0.17792 0.0
N802 N 0.12469 0.49285 0.09482 0.0
C803 C 0.16268 0.4987 0.13055 0.0
C804 C 0.15839 0.54431 0.18091 0.0
C805 C 0.21749 0.39516 0.75653 0.0
C806 C 0.18153 0.38708 0.73866 0.0
C807 C 0.21922 0.41024 0.81021 0.0
C808 C 0.18491 0.41701 0.84518 0.0
H809 H 0.24315 0.38209 0.73291 0.0
H810 H 0.24612 0.40823 0.82574 0.0
S811 S 0.08755 0.42269 0.80782 0.0
N812 N 0.11416 0.4033 0.75213 0.0
N813 N 0.11728 0.43277 0.85305 0.0
C814 C 0.15115 0.42159 0.82303 0.0
C815 C 0.14938 0.40573 0.76878 0.0
C816 C 0.00403 0.28809 0.22002 0.0
C817 C 0.04434 0.28969 0.21049 0.0
C818 C -0.01498 0.27192 0.26352 0.0
C819 C 0.00588 0.25553 0.29766 0.0
H820 H -0.01296 0.29708 0.19194 0.0
H821 H 0.95417 0.26751 0.26584 0.0
S822 S 0.11112 0.26199 0.29823 0.0
N823 N 0.104 0.28192 0.24583 0.0
N824 N 0.06811 0.24945 0.32595 0.0
C825 C 0.04572 0.26212 0.29297 0.0
C826 C 0.06511 0.27917 0.2492 0.0
C827 C 0.00249 0.71267 0.46048 0.0
C828 C -0.00267 0.75343 0.46679 0.0
C829 C 0.02047 0.6962 0.49711 0.0
C830 C 0.03488 0.72029 0.54015 0.0
H831 H -0.00485 0.69374 0.42516 0.0
H832 H 0.02772 0.66535 0.48731 0.0
S833 S 0.01849 0.82677 0.58259 0.0
N834 N -0.00047 0.816 0.52633 0.0
N835 N 0.03522 0.78502 0.59351 0.0
C836 C 0.02486 0.75999 0.55095 0.0
C837 C 0.0061 0.77675 0.51417 0.0
C838 C 0.48456 0.76627 0.76034 0.0
C839 C 0.50608 0.75222 0.79575 0.0
C840 C 0.50265 0.7792 0.71385 0.0
C841 C 0.54283 0.78006 0.70216 0.0
H842 H 0.45355 0.76288 0.76498 0.0
H843 H 0.48492 0.78735 0.68601 0.0
S844 S 0.61206 0.75377 0.78758 0.0
N845 N 0.56942 0.74513 0.82005 0.0
N846 N 0.60374 0.77072 0.73339 0.0
C847 C 0.56471 0.77014 0.74008 0.0
C848 C 0.5462 0.75674 0.7873 0.0
C849 C 0.52628 0.18264 0.97296 0.0
C850 C 0.53979 0.21131 1.01225 0.0
C851 C 0.50859 0.19354 0.93171 0.0
C852 C 0.50433 0.23331 0.9279 0.0
H853 H 0.532 0.15176 0.9715 0.0
H854 H 0.49868 0.17072 0.90209 0.0
S855 S 0.52711 0.31905 1.02639 0.0
N856 N 0.54202 0.28075 1.04908 0.0
N857 N 0.50891 0.30108 0.97115 0.0
C858 C 0.51459 0.26201 0.96915 0.0
C859 C 0.5319 0.25097 1.01167 0.0
C860 C -0.02729 0.76517 0.96291 0.0
C861 C -0.00942 0.79946 0.94815 0.0
C862 C -0.00754 0.72993 0.95173 0.0
C863 C 0.03087 0.72841 0.92686 0.0
H864 H 0.94534 0.76647 0.98844 0.0
H865 H -0.02137 0.70493 0.96748 0.0
S866 S 0.08127 0.80521 0.85736 0.0
N867 N 0.04173 0.82647 0.88955 0.0
N868 N 0.0801 0.75993 0.87123 0.0
C869 C 0.04577 0.76037 0.90282 0.0
C870 C 0.02503 0.79612 0.91267 0.0
C871 C 0.55255 0.78251 0.17809 0.0
C872 C 0.58037 0.76263 0.19737 0.0
C873 C 0.51644 0.76485 0.17253 0.0
C874 C 0.50796 0.72699 0.18553 0.0
H875 H 0.55798 0.81236 0.17014 0.0
H876 H 0.49431 0.7817 0.16124 0.0
S877 S 0.57087 0.66448 0.24035 0.0
N878 N 0.59733 0.7038 0.2297 0.0
N879 N 0.52956 0.6709 0.21947 0.0
C880 C 0.53623 0.70637 0.20253 0.0
C881 C 0.57257 0.72425 0.20846 0.0
C882 C 0.5432 0.2582 0.41075 0.0
C883 C 0.52337 0.22306 0.41889 0.0
C884 C 0.52491 0.29435 0.42687 0.0
C885 C 0.48662 0.29607 0.45217 0.0
H886 H 0.57367 0.25809 0.39635 0.0
H887 H 0.542 0.32103 0.42446 0.0
S888 S 0.41978 0.21252 0.46981 0.0
N889 N 0.46106 0.19225 0.44253 0.0
N890 N 0.4278 0.26046 0.47577 0.0
C891 C 0.46539 0.26131 0.45441 0.0
C892 C 0.48356 0.22459 0.43682 0.0
C893 C 0.0533 0.28125 0.6781 0.0
C894 C 0.07769 0.25725 0.6392 0.0
C895 C 0.01648 0.26763 0.69526 0.0
C896 C 0.00341 0.23039 0.67265 0.0
H897 H 0.06477 0.30685 0.70177 0.0
H898 H 0.00014 0.28435 0.72996 0.0
S899 S 0.04964 0.16823 0.55167 0.0
N900 N 0.0818 0.20323 0.56561 0.0
N901 N 0.01207 0.1774 0.59771 0.0
C902 C 0.02441 0.21097 0.6262 0.0
C903 C 0.0617 0.22505 0.60869 0.0
C904 C 0.00859 0.05858 0.13713 0.0
C905 C -0.01316 0.05615 0.18725 0.0
C906 C 0.00054 0.03426 0.09045 0.0
C907 C -0.02959 0.00641 0.09173 0.0
H908 H 0.03316 0.07846 0.13409 0.0
H909 H 0.01919 0.03602 1.05343 0.0
S910 S 0.90459 0.98857 0.21239 0.0
N911 N 0.93322 0.02463 0.235 0.0
N912 N 0.9184 0.9782 0.14739 0.0
C913 C 0.94747 0.0047 0.14111 0.0
C914 C 0.95552 0.02985 0.18883 0.0
C915 C 0.27974 0.74331 0.45155 0.0
C916 C 0.24921 0.71721 0.44014 0.0
C917 C 0.31128 0.74786 0.41288 0.0
C918 C 0.31379 0.72676 0.36059 0.0
H919 H 0.27787 0.76268 0.48958 0.0
H920 H 0.33289 0.76993 0.42344 0.0
S921 S 0.24493 0.64986 0.31265 0.0
N922 N 0.22572 0.6664 0.37455 0.0
N923 N 0.28559 0.67473 0.30181 0.0
C924 C 0.28535 0.69791 0.34995 0.0
C925 C 0.2529 0.69326 0.38968 0.0
C926 C 0.57344 -0.00441 0.48497 0.0
C927 C 0.54519 0.02397 0.50527 0.0
C928 C 0.57568 0.96183 0.50975 0.0
C929 C 0.55131 0.95647 0.55651 0.0
H930 H 0.59164 -0.0021 0.44782 0.0
H931 H 0.59451 0.93831 0.49066 0.0
S932 S 0.47334 0.02197 0.62652 0.0
N933 N 0.4921 0.04339 0.57538 0.0
N934 N 0.49932 0.9826 0.62308 0.0
C935 C 0.52491 0.98576 0.57886 0.0
C936 C 0.52126 0.01884 0.55297 0.0
C937 C 0.33277 0.23719 0.72976 0.0
C938 C 0.32972 0.25303 0.78436 0.0
C939 C 0.30688 0.24712 0.6972 0.0
C940 C 0.27728 0.27356 0.71795 0.0
H941 H 0.35523 0.21657 0.71204 0.0
H942 H 0.30985 0.23376 0.65556 0.0
S943 S 0.25198 0.31677 0.86027 0.0
N944 N 0.29159 0.29213 0.85919 0.0
N945 N 0.24304 0.31129 0.79772 0.0
C946 C 0.27287 0.28845 0.77286 0.0
C947 C 0.29928 0.27828 0.80616 0.0
C948 C 0.77869 0.25026 0.94575 0.0
C949 C 0.74953 0.22189 0.93661 0.0
C950 C 0.81023 0.25419 0.9069 0.0
C951 C 0.81423 0.23011 0.85651 0.0
H952 H 0.77628 0.27092 0.98269 0.0
H953 H 0.83119 0.27728 0.91615 0.0
S954 S 0.74584 0.15179 0.81092 0.0
N955 N 0.7264 0.16991 0.87209 0.0
N956 N 0.78668 0.17633 0.79971 0.0
C957 C 0.78609 0.20076 0.847 0.0
C958 C 0.75345 0.197 0.88674 0.0
C959 C 0.83399 0.74576 0.24546 0.0
C960 C 0.84344 0.76865 0.29264 0.0
C961 C 0.80616 0.75782 0.21759 0.0
C962 C 0.78747 0.79387 0.23462 0.0
H963 H 0.8473 0.71756 0.23068 0.0
H964 H 0.79871 0.73838 0.18267 0.0
S965 S 0.80129 0.86446 0.356 0.0
N966 N 0.83166 0.82896 0.35559 0.0
N967 N 0.77983 0.8522 0.30195 0.0
C968 C 0.79732 0.81772 0.28078 0.0
C969 C 0.82535 0.80505 0.30995 0.0
C970 C 0.51048 0.54066 0.64533 0.0
C971 C 0.4825 0.55111 0.69009 0.0
C972 C 0.50165 0.51685 0.599 0.0
C973 C 0.46422 0.50267 0.5942 0.0
H974 H 0.54015 0.55022 0.64609 0.0
H975 H 0.52476 0.50878 0.56682 0.0
S976 S 0.37975 0.52127 0.69844 0.0
N977 N 0.41533 0.54529 0.72627 0.0
N978 N 0.39832 0.50131 0.63761 0.0
C979 C 0.43534 0.51385 0.63747 0.0
C980 C 0.44457 0.53785 0.68574 0.0
C981 C 0.01478 0.50997 1.03097 0.0
C982 C 0.04509 0.52441 0.99685 0.0
C983 C 0.01763 0.4752 1.05097 0.0
C984 C 0.05082 0.4525 1.03783 0.0
H985 H -0.01207 0.52544 1.04252 0.0
H986 H -0.00696 0.46577 1.07672 0.0
S987 S 0.14124 0.48083 0.95901 0.0
N988 N 0.11153 0.5164 0.95704 0.0
N989 N 0.11645 0.44857 0.99241 0.0
C990 C 0.08211 0.46675 1.00498 0.0
C991 C 0.0794 0.50334 0.98524 0.0
C992 C 0.20448 0.11525 0.5036 0.0
C993 C 0.16902 0.09471 0.51005 0.0
C994 C 0.21666 0.14121 0.54596 0.0
C995 C 0.19378 0.14763 0.59587 0.0
H996 H 0.22036 0.1162 0.46448 0.0
H997 H 0.24111 0.16045 0.53739 0.0
S998 S 0.10943 0.08735 0.63979 0.0
N999 N 0.12 0.07101 0.57528 0.0
N1000 N 0.14158 0.12227 0.65434 0.0
C1001 C 0.16325 0.12122 0.60589 0.0
C1002 C 0.15121 0.09398 0.56286 0.0
C1003 C 0.15124 0.87501 0.87615 0.0
C1004 C 0.15327 0.89417 0.83084 0.0
C1005 C 0.12557 0.88732 0.92267 0.0
C1006 C 0.1017 0.91963 0.92562 0.0
H1007 H 0.16668 0.84804 0.87386 0.0
H1008 H 0.12121 0.86868 0.95344 0.0
S1009 S 0.10473 0.98763 0.82643 0.0
N1010 N 0.13476 0.9525 0.79773 0.0
N1011 N 0.089 0.97653 0.88611 0.0
C1012 C 0.10863 0.94302 0.88493 0.0
C1013 C 0.13378 0.93008 0.83714 0.0
C1014 C 0.37872 0.91156 1.00387 0.0
C1015 C 0.37588 0.87487 1.02164 0.0
C1016 C 0.38095 0.91374 0.94929 0.0
C1017 C 0.38028 0.87928 0.9116 0.0
H1018 H 0.38205 0.9383 1.03169 0.0
H1019 H 0.38639 0.94213 0.93624 0.0
S1020 S 0.36607 0.77701 0.93958 0.0
N1021 N 0.36697 0.8041 0.9988 0.0
N1022 N 0.37121 0.80825 0.89622 0.0
C1023 C 0.37367 0.8429 0.92963 0.0
C1024 C 0.3715 0.84067 0.98482 0.0
C1025 C 0.36529 0.04782 0.162 0.0
C1026 C 0.40018 0.03256 0.16997 0.0
C1027 C 0.35883 0.05318 0.11093 0.0
C1028 C 0.38714 0.04342 1.06683 0.0
H1029 H 0.34474 0.05959 0.19584 0.0
H1030 H 0.33354 0.06895 0.10698 0.0
S1031 S 0.4782 0.99244 1.06514 0.0
N1032 N 0.45945 3e-05 0.12871 0.0
N1033 N 0.44733 0.01043 1.03237 0.0
C1034 C 0.4196 0.02316 1.07333 0.0
C1035 C 0.42613 0.01762 0.1252 0.0
C1036 C 0.9114 0.78602 0.57868 0.0
C1037 C 0.90031 0.8083 0.5417 0.0
C1038 C 0.91714 0.8036 0.63068 0.0
C1039 C 0.91209 0.84428 0.64824 0.0
H1040 H 0.91745 0.75502 0.56676 0.0
H1041 H 0.92699 0.78532 0.65673 0.0
S1042 S 0.87841 0.91504 0.56995 0.0
N1043 N 0.88117 0.87294 0.52857 0.0
N1044 N 0.89178 0.90554 0.62595 0.0
C1045 C 0.89935 0.86655 0.61261 0.0
C1046 C 0.89341 0.84869 0.55967 0.0
C1047 C 0.93717 0.1492 0.55385 0.0
C1048 C 0.91359 0.18205 0.57479 0.0
C1049 C 0.95073 0.13947 0.49828 0.0
C1050 C 0.93978 0.16061 0.45976 0.0
H1051 H 0.94681 0.13171 0.581 0.0
H1052 H -0.02996 0.115 0.48542 0.0
S1053 S 0.87487 0.24649 0.49175 0.0
N1054 N 0.87872 0.23463 0.55088 0.0
N1055 N 0.90123 0.21474 0.44748 0.0
C1056 C 0.9145 0.1922 0.47986 0.0
C1057 C 0.90217 0.2032 0.53667 0.0
C1058 C 0.63489 0.17826 0.21811 0.0
C1059 C 0.62318 0.16016 0.1692 0.0
C1060 C 0.62202 0.16442 0.26721 0.0
C1061 C 0.59549 0.13257 0.27083 0.0
H1062 H 0.65433 0.20347 0.21855 0.0
H1063 H 0.6321 0.17982 0.30317 0.0
S1064 S 0.5543 0.07547 0.15534 0.0
N1065 N 0.58306 0.10814 0.12829 0.0
N1066 N 0.55769 0.08382 0.21998 0.0
C1067 C 0.58315 0.11453 0.22236 0.0
C1068 C 0.59725 0.12778 0.17202 0.0
C1069 C 0.63492 0.86484 0.77255 0.0
C1070 C 0.59512 0.8691 0.77222 0.0
C1071 C 0.65001 0.85692 0.81818 0.0
C1072 C 0.62625 0.85277 0.86631 0.0
H1073 H 0.65479 0.86656 0.73666 0.0
H1074 H 0.68072 0.85315 0.81514 0.0
S1075 S 0.52019 0.86396 0.88879 0.0
N1076 N 0.53238 0.87005 0.8259 0.0
N1077 N 0.56059 0.85604 0.91121 0.0
C1078 C 0.58645 0.85782 0.86699 0.0
C1079 C 0.57104 0.86581 0.82038 0.0
C1080 C 0.71738 0.64873 1.00702 0.0
C1081 C 0.68274 0.62693 1.00872 0.0
C1082 C 0.72831 0.67049 1.05363 0.0
C1083 C 0.70468 0.67114 0.10279 0.0
H1084 H 0.73328 0.65316 0.96895 0.0
H1085 H 0.75205 0.69137 1.04986 0.0
S1086 S 0.61984 0.60696 0.13019 0.0
N1087 N 0.63133 0.59811 1.06472 0.0
N1088 N 0.6521 0.63926 0.15271 0.0
C1089 C 0.67466 0.64328 0.10629 0.0
C1090 C 0.66346 0.62106 1.05876 0.0
C1091 C 0.59073 0.43734 0.37862 0.0
C1092 C 0.58563 0.41632 0.4219 0.0
C1093 C 0.61624 0.42433 0.33286 0.0
C1094 C 0.63702 0.38965 0.32895 0.0
H1095 H 0.57194 0.46141 0.37779 0.0
H1096 H 0.61621 0.43894 0.29833 0.0
S1097 S 0.64073 0.32994 0.43651 0.0
N1098 N 0.60871 0.36398 0.46239 0.0
N1099 N 0.6567 0.33927 0.37586 0.0
C1100 C 0.63612 0.37169 0.37475 0.0
C1101 C 0.61041 0.38523 0.42162 0.0
C1102 C 0.89013 0.42158 0.44736 0.0
C1103 C 0.90642 0.39242 0.40654 0.0
C1104 C 0.8896 0.41761 0.50109 0.0
C1105 C 0.90637 0.38498 0.51517 0.0
H1106 H 0.87777 0.44745 0.43762 0.0
H1107 H 0.87643 0.44031 0.53177 0.0
S1108 S 0.95348 0.30132 0.42272 0.0
N1109 N 0.9397 0.33017 0.38335 0.0
N1110 N 0.93954 0.32314 0.48427 0.0
C1111 C 0.9229 0.35584 0.47457 0.0
C1112 C 0.9227 0.35944 0.42017 0.0
C1113 C 0.85541 0.5911 0.6945 0.0
C1114 C 0.88243 0.56367 0.70058 0.0
C1115 C 0.85021 0.59826 0.6438 0.0
C1116 C 0.87177 0.57812 0.59788 0.0
H1117 H 0.84126 0.61013 0.72894 0.0
H1118 H 0.83195 0.62223 0.64071 0.0
S1119 S 0.93846 0.49638 0.59232 0.0
N1120 N 0.92491 0.51069 0.65675 0.0
N1121 N 0.91552 0.52466 0.56089 0.0
C1122 C 0.89486 0.54697 0.60309 0.0
C1123 C 0.90014 0.53963 0.6548 0.0
C1124 C 0.41157 0.34935 0.11007 0.0
C1125 C 0.41114 0.32664 0.15149 0.0
C1126 C 0.4058 0.33249 1.05774 0.0
C1127 C 0.39941 0.29162 1.04282 0.0
H1128 H 0.41715 0.38075 0.11771 0.0
H1129 H 0.40712 0.35211 1.02834 0.0
S1130 S 0.39448 0.21808 0.13542 0.0
N1131 N 0.40241 0.26028 0.17351 0.0
N1132 N 0.3928 0.22871 1.07503 0.0
C1133 C 0.3987 0.26829 1.08366 0.0
C1134 C 0.40437 0.28562 0.13757 0.0
C1135 C 0.44459 0.71171 1.04948 0.0
C1136 C 0.41156 0.69434 1.0752 0.0
C1137 C 0.45933 0.69848 0.99538 0.0
C1138 C 0.44121 0.66795 0.96348 0.0
H1139 H 0.46008 0.73499 1.0719 0.0
H1140 H 0.48501 0.71271 0.97817 0.0
S1141 S 0.35305 0.61336 1.01022 0.0
N1142 N 0.36125 0.64465 1.06371 0.0
N1143 N 0.38741 0.62153 0.96201 0.0
C1144 C 0.40756 0.65107 0.98824 0.0
C1145 C 0.39325 0.66368 1.04387 0.0
C1146 C 0.13761 0.68238 0.72255 0.0
C1147 C 0.12335 0.66508 0.6751 0.0
C1148 C 0.12522 0.66956 0.77233 0.0
C1149 C 0.09684 0.63962 0.778 0.0
H1150 H 0.15864 0.70618 0.7213 0.0
H1151 H 0.13719 0.68428 0.80721 0.0
S1152 S 0.04882 0.58536 0.667 0.0
N1153 N 0.07886 0.61596 0.63774 0.0
N1154 N 0.0546 0.59347 0.73087 0.0
C1155 C 0.08203 0.62235 0.73102 0.0
C1156 C 0.0955 0.63457 0.67997 0.0
C1157 C 0.13757 0.37728 0.26585 0.0
C1158 C 0.09803 0.38319 0.26573 0.0
C1159 C 0.15194 0.36766 0.31089 0.0
C1160 C 0.12763 0.36355 0.35845 0.0
H1161 H 0.15764 0.37815 0.22991 0.0
H1162 H 0.18227 0.36163 0.30739 0.0
S1163 S 0.02275 0.38198 0.38261 0.0
N1164 N 0.03535 0.38805 0.3198 0.0
N1165 N 0.06241 0.37084 0.40443 0.0
C1166 C 0.08837 0.37165 0.36006 0.0
C1167 C 0.07365 0.38133 0.31398 0.0
loop_
_geom_bond_atom_site_label_1
_geom_bond_atom_site_label_2
_geom_bond_distance
_geom_bond_site_symmetry_2
_ccdc_geom_bond_type
C0 Eu1 2.835 1_655 S
C0 C2 1.500 . S
C0 O20 1.257 1_655 S
C0 O21 1.260 . S
Eu1 C0 2.835 1_455 S
Eu1 O20 2.473 . S
Eu1 O21 2.480 1_455 S
Eu1 O22 2.430 . S
Eu1 O23 2.670 . S
Eu1 O24 2.394 . S
Eu1 O29 2.355 . S
Eu1 O31 2.374 . S
C2 C0 1.500 . S
C2 C3 1.377 1_554 S
C2 C7 1.377 1_554 S
C3 C2 1.377 1_556 S
C3 C4 1.395 . S
C3 H32 0.931 1_556 S
C4 C3 1.395 . S
C4 C5 1.383 . S
C4 H33 0.931 . S
C5 C4 1.383 . S
C5 C6 1.394 . S
C6 C5 1.394 . S
C6 C7 1.378 . S
C6 H34 0.931 . S
C7 C2 1.377 1_556 S
C7 C6 1.378 . S
C7 H35 0.931 . S
C8 O22 1.259 . S
C8 O23 1.270 . S
C9 O24 1.251 . S
C9 O25 1.251 . S
C10 Eu11 2.835 . S
C10 C12 1.500 . S
C10 O26 1.257 . S
C10 O27 1.260 . S
Eu11 C10 2.835 . S
Eu11 O23 2.355 . S
Eu11 O25 2.374 . S
Eu11 O26 2.473 . S
Eu11 O27 2.480 . S
Eu11 O28 2.430 . S
Eu11 O29 2.670 . S
Eu11 O30 2.394 . S
C12 C10 1.500 . S
C12 C13 1.377 . S
C12 C17 1.377 . S
C13 C12 1.377 . S
C13 C14 1.395 . S
C13 H36 0.931 . S
C14 C13 1.395 . S
C14 C15 1.383 . S
C14 H37 0.931 . S
C15 C14 1.383 . S
C15 C16 1.394 . S
C16 C15 1.394 . S
C16 C17 1.378 . S
C16 H38 0.931 . S
C17 C12 1.377 . S
C17 C16 1.378 . S
C17 H39 0.931 . S
C18 O28 1.259 . S
C18 O29 1.270 . S
C19 O30 1.251 . S
C19 O31 1.251 . S
O20 C0 1.257 1_455 S
O20 Eu1 2.473 . S
O21 C0 1.260 . S
O21 Eu1 2.480 1_655 S
O22 Eu1 2.430 . S
O22 C8 1.259 . S
O23 Eu1 2.670 . S
O23 C8 1.270 . S
O23 Eu11 2.355 . S
O24 Eu1 2.394 . S
O24 C9 1.251 . S
O25 C9 1.251 . S
O25 Eu11 2.374 . S
O26 C10 1.257 . S
O26 Eu11 2.473 . S
O27 C10 1.260 . S
O27 Eu11 2.480 . S
O28 Eu11 2.430 . S
O28 C18 1.259 . S
O29 Eu1 2.355 . S
O29 Eu11 2.670 . S
O29 C18 1.270 . S
O30 Eu11 2.394 . S
O30 C19 1.251 . S
O31 Eu1 2.374 . S
O31 C19 1.251 . S
H32 C3 0.931 1_554 S
H33 C4 0.931 . S
H34 C6 0.931 . S
H35 C7 0.931 . S
H36 C13 0.931 . S
H37 C14 0.931 . S
H38 C16 0.931 . S
H39 C17 0.931 . S
C40 Eu41 2.835 . S
C40 C42 1.500 . S
C40 O60 1.257 . S
C40 O61 1.260 . S
Eu41 C40 2.835 . S
Eu41 O60 2.473 . S
Eu41 O61 2.480 . S
Eu41 O62 2.430 . S
Eu41 O63 2.670 . S
Eu41 O64 2.394 . S
Eu41 O69 2.355 . S
Eu41 O71 2.374 . S
C42 C40 1.500 . S
C42 C43 1.377 . S
C42 C47 1.377 . S
C43 C42 1.377 . S
C43 C44 1.395 . S
C43 H72 0.931 . S
C44 C43 1.395 . S
C44 C45 1.383 . S
C44 H73 0.931 . S
C45 C44 1.383 . S
C45 C46 1.394 . S
C46 C45 1.394 . S
C46 C47 1.378 . S
C46 H74 0.931 . S
C47 C42 1.377 . S
C47 C46 1.378 . S
C47 H75 0.931 . S
C48 O62 1.259 . S
C48 O63 1.270 . S
C49 O64 1.251 . S
C49 O65 1.251 . S
C50 Eu51 2.835 . S
C50 C52 1.500 . S
C50 O66 1.257 . S
C50 O67 1.260 . S
Eu51 C50 2.835 . S
Eu51 O63 2.355 . S
Eu51 O65 2.374 . S
Eu51 O66 2.473 . S
Eu51 O67 2.480 . S
Eu51 O68 2.430 . S
Eu51 O69 2.670 . S
Eu51 O70 2.394 . S
C52 C50 1.500 . S
C52 C53 1.377 . S
C52 C57 1.377 . S
C53 C52 1.377 . S
C53 C54 1.395 . S
C53 H76 0.931 . S
C54 C53 1.395 . S
C54 C55 1.383 . S
C54 H77 0.931 . S
C55 C54 1.383 . S
C55 C56 1.394 . S
C56 C55 1.394 . S
C56 C57 1.378 . S
C56 H78 0.931 . S
C57 C52 1.377 . S
C57 C56 1.378 . S
C57 H79 0.931 . S
C58 O68 1.259 . S
C58 O69 1.270 . S
C59 O70 1.251 . S
C59 O71 1.251 . S
O60 C40 1.257 . S
O60 Eu41 2.473 . S
O61 C40 1.260 . S
O61 Eu41 2.480 . S
O62 Eu41 2.430 . S
O62 C48 1.259 . S
O63 Eu41 2.670 . S
O63 C48 1.270 . S
O63 Eu51 2.355 . S
O64 Eu41 2.394 . S
O64 C49 1.251 . S
O65 C49 1.251 . S
O65 Eu51 2.374 . S
O66 C50 1.257 . S
O66 Eu51 2.473 . S
O67 C50 1.260 . S
O67 Eu51 2.480 . S
O68 Eu51 2.430 . S
O68 C58 1.259 . S
O69 Eu41 2.355 . S
O69 Eu51 2.670 . S
O69 C58 1.270 . S
O70 Eu51 2.394 . S
O70 C59 1.251 . S
O71 Eu41 2.374 . S
O71 C59 1.251 . S
H72 C43 0.931 . S
H73 C44 0.931 . S
H74 C46 0.931 . S
H75 C47 0.931 . S
H76 C53 0.931 . S
H77 C54 0.931 . S
H78 C56 0.931 . S
H79 C57 0.931 . S
C80 Eu81 2.835 . S
C80 C82 1.500 . S
C80 O100 1.257 . S
C80 O101 1.260 . S
Eu81 C80 2.835 . S
Eu81 O100 2.473 . S
Eu81 O101 2.480 . S
Eu81 O102 2.430 . S
Eu81 O103 2.670 . S
Eu81 O104 2.394 . S
Eu81 O109 2.355 . S
Eu81 O111 2.374 . S
C82 C80 1.500 . S
C82 C83 1.377 . S
C82 C87 1.377 . S
C83 C82 1.377 . S
C83 C84 1.395 . S
C83 H112 0.931 . S
C84 C83 1.395 . S
C84 C85 1.383 . S
C84 H113 0.931 . S
C85 C84 1.383 . S
C85 C86 1.394 . S
C86 C85 1.394 . S
C86 C87 1.378 . S
C86 H114 0.931 . S
C87 C82 1.377 . S
C87 C86 1.378 . S
C87 H115 0.931 . S
C88 O102 1.259 . S
C88 O103 1.270 . S
C89 O104 1.251 . S
C89 O105 1.251 . S
C90 Eu91 2.835 . S
C90 C92 1.500 . S
C90 O106 1.257 . S
C90 O107 1.260 . S
Eu91 C90 2.835 . S
Eu91 O103 2.355 . S
Eu91 O105 2.374 . S
Eu91 O106 2.473 . S
Eu91 O107 2.480 . S
Eu91 O108 2.430 . S
Eu91 O109 2.670 . S
Eu91 O110 2.394 . S
C92 C90 1.500 . S
C92 C93 1.377 . S
C92 C97 1.377 . S
C93 C92 1.377 . S
C93 C94 1.395 . S
C93 H116 0.931 . S
C94 C93 1.395 . S
C94 C95 1.383 . S
C94 H117 0.931 . S
C95 C94 1.383 . S
C95 C96 1.394 . S
C96 C95 1.394 . S
C96 C97 1.378 . S
C96 H118 0.931 . S
C97 C92 1.377 . S
C97 C96 1.378 . S
C97 H119 0.931 . S
C98 O108 1.259 . S
C98 O109 1.270 . S
C99 O110 1.251 . S
C99 O111 1.251 . S
O100 C80 1.257 . S
O100 Eu81 2.473 . S
O101 C80 1.260 . S
O101 Eu81 2.480 . S
O102 Eu81 2.430 . S
O102 C88 1.259 . S
O103 Eu81 2.670 . S
O103 C88 1.270 . S
O103 Eu91 2.355 . S
O104 Eu81 2.394 . S
O104 C89 1.251 . S
O105 C89 1.251 . S
O105 Eu91 2.374 . S
O106 C90 1.257 . S
O106 Eu91 2.473 . S
O107 C90 1.260 . S
O107 Eu91 2.480 . S
O108 Eu91 2.430 . S
O108 C98 1.259 . S
O109 Eu81 2.355 . S
O109 Eu91 2.670 . S
O109 C98 1.270 . S
O110 Eu91 2.394 . S
O110 C99 1.251 . S
O111 Eu81 2.374 . S
O111 C99 1.251 . S
H112 C83 0.931 . S
H113 C84 0.931 . S
H114 C86 0.931 . S
H115 C87 0.931 . S
H116 C93 0.931 . S
H117 C94 0.931 . S
H118 C96 0.931 . S
H119 C97 0.931 . S
C120 Eu121 2.835 . S
C120 C122 1.500 . S
C120 O140 1.257 . S
C120 O141 1.260 . S
Eu121 C120 2.835 . S
Eu121 O140 2.473 . S
Eu121 O141 2.480 . S
Eu121 O142 2.430 . S
Eu121 O143 2.670 . S
Eu121 O144 2.394 . S
Eu121 O149 2.355 . S
Eu121 O151 2.374 . S
C122 C120 1.500 . S
C122 C123 1.377 . S
C122 C127 1.377 . S
C123 C122 1.377 . S
C123 C124 1.395 . S
C123 H152 0.931 . S
C124 C123 1.395 . S
C124 C125 1.383 . S
C124 H153 0.931 . S
C125 C124 1.383 . S
C125 C126 1.394 . S
C126 C125 1.394 . S
C126 C127 1.378 . S
C126 H154 0.931 . S
C127 C122 1.377 . S
C127 C126 1.378 . S
C127 H155 0.931 . S
C128 O142 1.259 . S
C128 O143 1.270 . S
C129 O144 1.251 . S
C129 O145 1.251 . S
C130 Eu131 2.835 . S
C130 C132 1.500 . S
C130 O146 1.257 . S
C130 O147 1.260 . S
Eu131 C130 2.835 . S
Eu131 O143 2.355 . S
Eu131 O145 2.374 . S
Eu131 O146 2.473 . S
Eu131 O147 2.480 . S
Eu131 O148 2.430 . S
Eu131 O149 2.670 . S
Eu131 O150 2.394 . S
C132 C130 1.500 . S
C132 C133 1.377 . S
C132 C137 1.377 . S
C133 C132 1.377 . S
C133 C134 1.395 1_556 S
C133 H156 0.931 . S
C134 C133 1.395 1_554 S
C134 C135 1.383 . S
C134 H157 0.931 . S
C135 C134 1.383 . S
C135 C136 1.394 . S
C136 C135 1.394 . S
C136 C137 1.378 1_554 S
C136 H158 0.931 . S
C137 C132 1.377 . S
C137 C136 1.378 1_556 S
C137 H159 0.931 . S
C138 O148 1.259 . S
C138 O149 1.270 . S
C139 O150 1.251 . S
C139 O151 1.251 . S
O140 C120 1.257 . S
O140 Eu121 2.473 . S
O141 C120 1.260 . S
O141 Eu121 2.480 . S
O142 Eu121 2.430 . S
O142 C128 1.259 . S
O143 Eu121 2.670 . S
O143 C128 1.270 . S
O143 Eu131 2.355 . S
O144 Eu121 2.394 . S
O144 C129 1.251 . S
O145 C129 1.251 . S
O145 Eu131 2.374 . S
O146 C130 1.257 . S
O146 Eu131 2.473 . S
O147 C130 1.260 . S
O147 Eu131 2.480 . S
O148 Eu131 2.430 . S
O148 C138 1.259 . S
O149 Eu121 2.355 . S
O149 Eu131 2.670 . S
O149 C138 1.270 . S
O150 Eu131 2.394 . S
O150 C139 1.251 . S
O151 Eu121 2.374 . S
O151 C139 1.251 . S
H152 C123 0.931 . S
H153 C124 0.931 . S
H154 C126 0.931 . S
H155 C127 0.931 . S
H156 C133 0.931 . S
H157 C134 0.931 . S
H158 C136 0.931 . S
H159 C137 0.931 . S
C160 Eu161 2.835 . S
C160 C162 1.500 . S
C160 O180 1.257 . S
C160 O181 1.260 . S
Eu161 C160 2.835 . S
Eu161 O180 2.473 . S
Eu161 O181 2.480 . S
Eu161 O182 2.430 . S
Eu161 O183 2.670 1_655 S
Eu161 O184 2.394 1_655 S
Eu161 O189 2.349 1_655 S
Eu161 O191 2.374 . S
C162 C160 1.500 . S
C162 C163 1.377 . S
C162 C167 1.377 . S
C163 C162 1.377 . S
C163 C164 1.395 . S
C163 H192 0.931 . S
C164 C163 1.395 . S
C164 C165 1.383 . S
C164 H193 0.931 . S
C165 C164 1.383 . S
C165 C166 1.394 . S
C166 C165 1.394 . S
C166 C167 1.378 . S
C166 H194 0.931 . S
C167 C162 1.377 . S
C167 C166 1.378 . S
C167 H195 0.931 . S
C168 O182 1.259 . S
C168 O183 1.270 1_655 S
C169 O184 1.251 . S
C169 O185 1.251 . S
C170 Eu171 2.835 1_554 S
C170 C172 1.500 . S
C170 O186 1.257 . S
C170 O187 1.270 . S
Eu171 C170 2.835 1_556 S
Eu171 O183 2.355 . S
Eu171 O185 2.374 . S
Eu171 O186 2.473 1_556 S
Eu171 O187 2.464 1_556 S
Eu171 O188 2.430 . S
Eu171 O189 2.677 . S
Eu171 O190 2.394 1_455 S
C172 C170 1.500 . S
C172 C173 1.377 . S
C172 C177 1.377 . S
C173 C172 1.377 . S
C173 C174 1.395 . S
C173 H196 0.931 . S
C174 C173 1.395 . S
C174 C175 1.383 . S
C174 H197 0.931 . S
C175 C174 1.383 . S
C175 C176 1.394 . S
C176 C175 1.394 . S
C176 C177 1.378 . S
C176 H198 0.931 . S
C177 C172 1.377 . S
C177 C176 1.378 . S
C177 H199 0.931 . S
C178 O188 1.259 . S
C178 O189 1.273 . S
C179 O190 1.251 . S
C179 O191 1.251 . S
O180 C160 1.257 . S
O180 Eu161 2.473 . S
O181 C160 1.260 . S
O181 Eu161 2.480 . S
O182 Eu161 2.430 . S
O182 C168 1.259 . S
O183 Eu161 2.670 1_455 S
O183 C168 1.270 1_455 S
O183 Eu171 2.355 . S
O184 Eu161 2.394 1_455 S
O184 C169 1.251 . S
O185 C169 1.251 . S
O185 Eu171 2.374 . S
O186 C170 1.257 . S
O186 Eu171 2.473 1_554 S
O187 C170 1.270 . S
O187 Eu171 2.464 1_554 S
O188 Eu171 2.430 . S
O188 C178 1.259 . S
O189 Eu161 2.349 1_455 S
O189 Eu171 2.677 . S
O189 C178 1.273 . S
O190 Eu171 2.394 1_655 S
O190 C179 1.251 . S
O191 Eu161 2.374 . S
O191 C179 1.251 . S
H192 C163 0.931 . S
H193 C164 0.931 . S
H194 C166 0.931 . S
H195 C167 0.931 . S
H196 C173 0.931 . S
H197 C174 0.931 . S
H198 C176 0.931 . S
H199 C177 0.931 . S
C200 Eu201 2.835 . S
C200 C202 1.500 . S
C200 O220 1.257 . S
C200 O221 1.260 . S
Eu201 C200 2.835 . S
Eu201 O220 2.473 . S
Eu201 O221 2.480 . S
Eu201 O222 2.430 . S
Eu201 O223 2.670 . S
Eu201 O224 2.394 . S
Eu201 O229 2.355 . S
Eu201 O231 2.374 . S
C202 C200 1.500 . S
C202 C203 1.377 . S
C202 C207 1.377 . S
C203 C202 1.377 . S
C203 C204 1.395 . S
C203 H232 0.931 . S
C204 C203 1.395 . S
C204 C205 1.383 . S
C204 H233 0.931 . S
C205 C204 1.383 . S
C205 C206 1.394 . S
C206 C205 1.394 . S
C206 C207 1.378 . S
C206 H234 0.931 . S
C207 C202 1.377 . S
C207 C206 1.378 . S
C207 H235 0.931 . S
C208 O222 1.259 . S
C208 O223 1.270 . S
C209 O224 1.251 . S
C209 O225 1.251 . S
C210 Eu211 2.835 . S
C210 C212 1.517 . S
C210 O226 1.257 . S
C210 O227 1.260 . S
Eu211 C210 2.835 . S
Eu211 O223 2.355 . S
Eu211 O225 2.374 . S
Eu211 O226 2.473 . S
Eu211 O227 2.480 . S
Eu211 O228 2.430 . S
Eu211 O229 2.670 . S
Eu211 O230 2.394 . S
C212 C210 1.517 . S
C212 C213 1.370 1_554 S
C212 C217 1.368 1_554 S
C213 C212 1.370 1_556 S
C213 C214 1.395 . S
C213 H236 0.931 1_556 S
C214 C213 1.395 . S
C214 C215 1.383 . S
C214 H237 0.931 . S
C215 C214 1.383 . S
C215 C216 1.394 . S
C216 C215 1.394 . S
C216 C217 1.378 . S
C216 H238 0.931 . S
C217 C212 1.368 1_556 S
C217 C216 1.378 . S
C217 H239 0.931 . S
C218 O228 1.259 . S
C218 O229 1.270 . S
C219 O230 1.251 . S
C219 O231 1.251 . S
O220 C200 1.257 . S
O220 Eu201 2.473 . S
O221 C200 1.260 . S
O221 Eu201 2.480 . S
O222 Eu201 2.430 . S
O222 C208 1.259 . S
O223 Eu201 2.670 . S
O223 C208 1.270 . S
O223 Eu211 2.355 . S
O224 Eu201 2.394 . S
O224 C209 1.251 . S
O225 C209 1.251 . S
O225 Eu211 2.374 . S
O226 C210 1.257 . S
O226 Eu211 2.473 . S
O227 C210 1.260 . S
O227 Eu211 2.480 . S
O228 Eu211 2.430 . S
O228 C218 1.259 . S
O229 Eu201 2.355 . S
O229 Eu211 2.670 . S
O229 C218 1.270 . S
O230 Eu211 2.394 . S
O230 C219 1.251 . S
O231 Eu201 2.374 . S
O231 C219 1.251 . S
H232 C203 0.931 . S
H233 C204 0.931 . S
H234 C206 0.931 . S
H235 C207 0.931 . S
H236 C213 0.931 1_554 S
H237 C214 0.931 . S
H238 C216 0.931 . S
H239 C217 0.931 . S
C240 Eu241 2.835 . S
C240 C242 1.500 . S
C240 O260 1.257 . S
C240 O261 1.260 . S
Eu241 C240 2.835 . S
Eu241 O260 2.473 . S
Eu241 O261 2.480 . S
Eu241 O262 2.430 . S
Eu241 O263 2.670 . S
Eu241 O264 2.394 . S
Eu241 O269 2.355 . S
Eu241 O271 2.374 . S
C242 C240 1.500 . S
C242 C243 1.377 . S
C242 C247 1.377 . S
C243 C242 1.377 . S
C243 C244 1.395 . S
C243 H272 0.931 . S
C244 C243 1.395 . S
C244 C245 1.383 . S
C244 H273 0.931 . S
C245 C244 1.383 . S
C245 C246 1.394 . S
C246 C245 1.394 . S
C246 C247 1.378 . S
C246 H274 0.931 . S
C247 C242 1.377 . S
C247 C246 1.378 . S
C247 H275 0.931 . S
C248 O262 1.259 . S
C248 O263 1.270 . S
C249 O264 1.251 . S
C249 O265 1.251 . S
C250 Eu251 2.835 . S
C250 C252 1.500 . S
C250 O266 1.257 . S
C250 O267 1.260 . S
Eu251 C250 2.835 . S
Eu251 O263 2.355 . S
Eu251 O265 2.374 . S
Eu251 O266 2.473 . S
Eu251 O267 2.480 . S
Eu251 O268 2.430 1_545 S
Eu251 O269 2.670 . S
Eu251 O270 2.394 . S
C252 C250 1.500 . S
C252 C253 1.377 . S
C252 C257 1.377 . S
C253 C252 1.377 . S
C253 C254 1.395 . S
C253 H276 0.931 1_545 S
C254 C253 1.395 . S
C254 C255 1.383 . S
C254 H277 0.931 1_545 S
C255 C254 1.383 . S
C255 C256 1.394 . S
C256 C255 1.394 . S
C256 C257 1.378 . S
C256 H278 0.931 . S
C257 C252 1.377 . S
C257 C256 1.378 . S
C257 H279 0.931 . S
C258 O268 1.259 1_545 S
C258 O269 1.270 . S
C259 O270 1.251 . S
C259 O271 1.251 . S
O260 C240 1.257 . S
O260 Eu241 2.473 . S
O261 C240 1.260 . S
O261 Eu241 2.480 . S
O262 Eu241 2.430 . S
O262 C248 1.259 . S
O263 Eu241 2.670 . S
O263 C248 1.270 . S
O263 Eu251 2.355 . S
O264 Eu241 2.394 . S
O264 C249 1.251 . S
O265 C249 1.251 . S
O265 Eu251 2.374 . S
O266 C250 1.257 . S
O266 Eu251 2.473 . S
O267 C250 1.260 . S
O267 Eu251 2.480 . S
O268 Eu251 2.430 1_565 S
O268 C258 1.259 1_565 S
O269 Eu241 2.355 . S
O269 Eu251 2.670 . S
O269 C258 1.270 . S
O270 Eu251 2.394 . S
O270 C259 1.251 . S
O271 Eu241 2.374 . S
O271 C259 1.251 . S
H272 C243 0.931 . S
H273 C244 0.931 . S
H274 C246 0.931 . S
H275 C247 0.931 . S
H276 C253 0.931 1_565 S
H277 C254 0.931 1_565 S
H278 C256 0.931 . S
H279 C257 0.931 . S
C280 Eu281 2.835 . S
C280 C282 1.500 . S
C280 O300 1.257 . S
C280 O301 1.260 . S
Eu281 C280 2.835 . S
Eu281 O300 2.473 . S
Eu281 O301 2.480 . S
Eu281 O302 2.430 . S
Eu281 O303 2.670 . S
Eu281 O304 2.394 . S
Eu281 O309 2.355 . S
Eu281 O311 2.374 . S
C282 C280 1.500 . S
C282 C283 1.377 . S
C282 C287 1.377 . S
C283 C282 1.377 . S
C283 C284 1.395 . S
C283 H312 0.931 . S
C284 C283 1.395 . S
C284 C285 1.383 . S
C284 H313 0.931 . S
C285 C284 1.383 . S
C285 C286 1.394 . S
C286 C285 1.394 . S
C286 C287 1.378 . S
C286 H314 0.931 . S
C287 C282 1.377 . S
C287 C286 1.378 . S
C287 H315 0.931 . S
C288 O302 1.259 . S
C288 O303 1.270 . S
C289 O304 1.251 . S
C289 O305 1.251 . S
C290 Eu291 2.835 . S
C290 C292 1.500 . S
C290 O306 1.257 . S
C290 O307 1.260 . S
Eu291 C290 2.835 . S
Eu291 O303 2.355 . S
Eu291 O305 2.374 . S
Eu291 O306 2.473 . S
Eu291 O307 2.480 . S
Eu291 O308 2.430 . S
Eu291 O309 2.670 . S
Eu291 O310 2.394 . S
C292 C290 1.500 . S
C292 C293 1.377 . S
C292 C297 1.377 . S
C293 C292 1.377 . S
C293 C294 1.395 . S
C293 H316 0.931 . S
C294 C293 1.395 . S
C294 C295 1.383 . S
C294 H317 0.931 . S
C295 C294 1.383 . S
C295 C296 1.394 . S
C296 C295 1.394 . S
C296 C297 1.378 . S
C296 H318 0.931 . S
C297 C292 1.377 . S
C297 C296 1.378 . S
C297 H319 0.931 . S
C298 O308 1.259 . S
C298 O309 1.270 . S
C299 O310 1.251 . S
C299 O311 1.251 . S
O300 C280 1.257 . S
O300 Eu281 2.473 . S
O301 C280 1.260 . S
O301 Eu281 2.480 . S
O302 Eu281 2.430 . S
O302 C288 1.259 . S
O303 Eu281 2.670 . S
O303 C288 1.270 . S
O303 Eu291 2.355 . S
O304 Eu281 2.394 . S
O304 C289 1.251 . S
O305 C289 1.251 . S
O305 Eu291 2.374 . S
O306 C290 1.257 . S
O306 Eu291 2.473 . S
O307 C290 1.260 . S
O307 Eu291 2.480 . S
O308 Eu291 2.430 . S
O308 C298 1.259 . S
O309 Eu281 2.355 . S
O309 Eu291 2.670 . S
O309 C298 1.270 . S
O310 Eu291 2.394 . S
O310 C299 1.251 . S
O311 Eu281 2.374 . S
O311 C299 1.251 . S
H312 C283 0.931 . S
H313 C284 0.931 . S
H314 C286 0.931 . S
H315 C287 0.931 . S
H316 C293 0.931 . S
H317 C294 0.931 . S
H318 C296 0.931 . S
H319 C297 0.931 . S
C320 Eu321 2.835 . S
C320 C322 1.500 . S
C320 O340 1.257 . S
C320 O341 1.260 . S
Eu321 C320 2.835 . S
Eu321 O340 2.473 . S
Eu321 O341 2.480 . S
Eu321 O342 2.430 . S
Eu321 O343 2.670 . S
Eu321 O344 2.394 . S
Eu321 O349 2.355 . S
Eu321 O351 2.374 . S
C322 C320 1.500 . S
C322 C323 1.377 . S
C322 C327 1.377 . S
C323 C322 1.377 . S
C323 C324 1.395 . S
C323 H352 0.931 . S
C324 C323 1.395 . S
C324 C325 1.383 . S
C324 H353 0.931 . S
C325 C324 1.383 . S
C325 C326 1.394 . S
C326 C325 1.394 . S
C326 C327 1.378 . S
C326 H354 0.931 . S
C327 C322 1.377 . S
C327 C326 1.378 . S
C327 H355 0.931 . S
C328 O342 1.259 . S
C328 O343 1.270 . S
C329 O344 1.251 . S
C329 O345 1.251 . S
C330 Eu331 2.835 . S
C330 C332 1.500 . S
C330 O346 1.257 . S
C330 O347 1.260 . S
Eu331 C330 2.835 . S
Eu331 O343 2.355 . S
Eu331 O345 2.374 . S
Eu331 O346 2.473 . S
Eu331 O347 2.480 . S
Eu331 O348 2.430 . S
Eu331 O349 2.670 . S
Eu331 O350 2.394 . S
C332 C330 1.500 . S
C332 C333 1.377 . S
C332 C337 1.377 . S
C333 C332 1.377 . S
C333 C334 1.395 . S
C333 H356 0.931 . S
C334 C333 1.395 . S
C334 C335 1.383 . S
C334 H357 0.931 . S
C335 C334 1.383 . S
C335 C336 1.394 . S
C336 C335 1.394 . S
C336 C337 1.378 . S
C336 H358 0.931 . S
C337 C332 1.377 . S
C337 C336 1.378 . S
C337 H359 0.931 . S
C338 O348 1.259 . S
C338 O349 1.270 . S
C339 O350 1.251 . S
C339 O351 1.251 . S
O340 C320 1.257 . S
O340 Eu321 2.473 . S
O341 C320 1.260 . S
O341 Eu321 2.480 . S
O342 Eu321 2.430 . S
O342 C328 1.259 . S
O343 Eu321 2.670 . S
O343 C328 1.270 . S
O343 Eu331 2.355 . S
O344 Eu321 2.394 . S
O344 C329 1.251 . S
O345 C329 1.251 . S
O345 Eu331 2.374 . S
O346 C330 1.257 . S
O346 Eu331 2.473 . S
O347 C330 1.260 . S
O347 Eu331 2.480 . S
O348 Eu331 2.430 . S
O348 C338 1.259 . S
O349 Eu321 2.355 . S
O349 Eu331 2.670 . S
O349 C338 1.270 . S
O350 Eu331 2.394 . S
O350 C339 1.251 . S
O351 Eu321 2.374 . S
O351 C339 1.251 . S
H352 C323 0.931 . S
H353 C324 0.931 . S
H354 C326 0.931 . S
H355 C327 0.931 . S
H356 C333 0.931 . S
H357 C334 0.931 . S
H358 C336 0.931 . S
H359 C337 0.931 . S
C360 Eu361 2.835 . S
C360 C362 1.500 1_554 S
C360 O380 1.257 . S
C360 O381 1.260 . S
Eu361 C360 2.835 . S
Eu361 O380 2.473 . S
Eu361 O381 2.480 . S
Eu361 O382 2.430 . S
Eu361 O383 2.670 . S
Eu361 O384 2.394 . S
Eu361 O389 2.355 . S
Eu361 O391 2.374 . S
C362 C360 1.500 1_556 S
C362 C363 1.377 . S
C362 C367 1.377 . S
C363 C362 1.377 . S
C363 C364 1.395 . S
C363 H392 0.931 . S
C364 C363 1.395 . S
C364 C365 1.383 . S
C364 H393 0.931 . S
C365 C364 1.383 . S
C365 C366 1.394 . S
C366 C365 1.394 . S
C366 C367 1.378 . S
C366 H394 0.931 . S
C367 C362 1.377 . S
C367 C366 1.378 . S
C367 H395 0.931 . S
C368 O382 1.259 . S
C368 O383 1.270 . S
C369 O384 1.251 . S
C369 O385 1.251 . S
C370 Eu371 2.835 . S
C370 C372 1.500 . S
C370 O386 1.257 . S
C370 O387 1.260 . S
Eu371 C370 2.835 . S
Eu371 O383 2.355 . S
Eu371 O385 2.374 . S
Eu371 O386 2.473 . S
Eu371 O387 2.480 . S
Eu371 O388 2.430 . S
Eu371 O389 2.670 . S
Eu371 O390 2.394 . S
C372 C370 1.500 . S
C372 C373 1.377 . S
C372 C377 1.377 . S
C373 C372 1.377 . S
C373 C374 1.395 . S
C373 H396 0.931 . S
C374 C373 1.395 . S
C374 C375 1.383 . S
C374 H397 0.931 . S
C375 C374 1.383 . S
C375 C376 1.394 . S
C376 C375 1.394 . S
C376 C377 1.378 . S
C376 H398 0.931 . S
C377 C372 1.377 . S
C377 C376 1.378 . S
C377 H399 0.931 . S
C378 O388 1.259 . S
C378 O389 1.270 . S
C379 O390 1.251 . S
C379 O391 1.251 . S
O380 C360 1.257 . S
O380 Eu361 2.473 . S
O381 C360 1.260 . S
O381 Eu361 2.480 . S
O382 Eu361 2.430 . S
O382 C368 1.259 . S
O383 Eu361 2.670 . S
O383 C368 1.270 . S
O383 Eu371 2.355 . S
O384 Eu361 2.394 . S
O384 C369 1.251 . S
O385 C369 1.251 . S
O385 Eu371 2.374 . S
O386 C370 1.257 . S
O386 Eu371 2.473 . S
O387 C370 1.260 . S
O387 Eu371 2.480 . S
O388 Eu371 2.430 . S
O388 C378 1.259 . S
O389 Eu361 2.355 . S
O389 Eu371 2.670 . S
O389 C378 1.270 . S
O390 Eu371 2.394 . S
O390 C379 1.251 . S
O391 Eu361 2.374 . S
O391 C379 1.251 . S
H392 C363 0.931 . S
H393 C364 0.931 . S
H394 C366 0.931 . S
H395 C367 0.931 . S
H396 C373 0.931 . S
H397 C374 0.931 . S
H398 C376 0.931 . S
H399 C377 0.931 . S
C400 Eu401 2.835 . S
C400 C402 1.500 . S
C400 O420 1.257 . S
C400 O421 1.260 . S
Eu401 C400 2.835 . S
Eu401 O420 2.473 . S
Eu401 O421 2.480 . S
Eu401 O422 2.430 . S
Eu401 O423 2.670 . S
Eu401 O424 2.394 . S
Eu401 O429 2.355 . S
Eu401 O431 2.374 . S
C402 C400 1.500 . S
C402 C403 1.377 . S
C402 C407 1.377 . S
C403 C402 1.377 . S
C403 C404 1.395 . S
C403 H432 0.931 . S
C404 C403 1.395 . S
C404 C405 1.383 . S
C404 H433 0.931 . S
C405 C404 1.383 . S
C405 C406 1.394 . S
C406 C405 1.394 . S
C406 C407 1.378 . S
C406 H434 0.931 . S
C407 C402 1.377 . S
C407 C406 1.378 . S
C407 H435 0.931 . S
C408 O422 1.259 . S
C408 O423 1.270 . S
C409 O424 1.251 . S
C409 O425 1.251 . S
C410 Eu411 2.835 1_554 S
C410 C412 1.500 . S
C410 O426 1.257 . S
C410 O427 1.260 . S
Eu411 C410 2.835 1_556 S
Eu411 O423 2.355 . S
Eu411 O425 2.374 . S
Eu411 O426 2.473 1_556 S
Eu411 O427 2.480 1_556 S
Eu411 O428 2.430 . S
Eu411 O429 2.670 . S
Eu411 O430 2.394 . S
C412 C410 1.500 . S
C412 C413 1.377 . S
C412 C417 1.377 . S
C413 C412 1.377 . S
C413 C414 1.395 . S
C413 H436 0.931 . S
C414 C413 1.395 . S
C414 C415 1.383 . S
C414 H437 0.931 . S
C415 C414 1.383 . S
C415 C416 1.394 . S
C416 C415 1.394 . S
C416 C417 1.378 . S
C416 H438 0.931 . S
C417 C412 1.377 . S
C417 C416 1.378 . S
C417 H439 0.931 . S
C418 O428 1.259 . S
C418 O429 1.270 . S
C419 O430 1.251 . S
C419 O431 1.251 . S
O420 C400 1.257 . S
O420 Eu401 2.473 . S
O421 C400 1.260 . S
O421 Eu401 2.480 . S
O422 Eu401 2.430 . S
O422 C408 1.259 . S
O423 Eu401 2.670 . S
O423 C408 1.270 . S
O423 Eu411 2.355 . S
O424 Eu401 2.394 . S
O424 C409 1.251 . S
O425 C409 1.251 . S
O425 Eu411 2.374 . S
O426 C410 1.257 . S
O426 Eu411 2.473 1_554 S
O427 C410 1.260 . S
O427 Eu411 2.480 1_554 S
O428 Eu411 2.430 . S
O428 C418 1.259 . S
O429 Eu401 2.355 . S
O429 Eu411 2.670 . S
O429 C418 1.270 . S
O430 Eu411 2.394 . S
O430 C419 1.251 . S
O431 Eu401 2.374 . S
O431 C419 1.251 . S
H432 C403 0.931 . S
H433 C404 0.931 . S
H434 C406 0.931 . S
H435 C407 0.931 . S
H436 C413 0.931 . S
H437 C414 0.931 . S
H438 C416 0.931 . S
H439 C417 0.931 . S
C440 Eu441 2.835 . S
C440 C442 1.500 . S
C440 O460 1.257 . S
C440 O461 1.260 . S
Eu441 C440 2.835 . S
Eu441 O460 2.473 . S
Eu441 O461 2.480 . S
Eu441 O462 2.430 . S
Eu441 O463 2.670 . S
Eu441 O464 2.394 . S
Eu441 O469 2.355 . S
Eu441 O471 2.374 . S
C442 C440 1.500 . S
C442 C443 1.377 . S
C442 C447 1.377 . S
C443 C442 1.377 . S
C443 C444 1.395 . S
C443 H472 0.931 . S
C444 C443 1.395 . S
C444 C445 1.383 . S
C444 H473 0.931 . S
C445 C444 1.383 . S
C445 C446 1.394 . S
C446 C445 1.394 . S
C446 C447 1.378 . S
C446 H474 0.931 . S
C447 C442 1.377 . S
C447 C446 1.378 . S
C447 H475 0.931 . S
C448 O462 1.259 . S
C448 O463 1.270 . S
C449 O464 1.251 . S
C449 O465 1.251 . S
C450 Eu451 2.835 . S
C450 C452 1.500 . S
C450 O466 1.257 . S
C450 O467 1.260 . S
Eu451 C450 2.835 . S
Eu451 O463 2.355 . S
Eu451 O465 2.374 . S
Eu451 O466 2.473 . S
Eu451 O467 2.480 . S
Eu451 O468 2.430 . S
Eu451 O469 2.670 . S
Eu451 O470 2.394 . S
C452 C450 1.500 . S
C452 C453 1.377 . S
C452 C457 1.377 . S
C453 C452 1.377 . S
C453 C454 1.395 . S
C453 H476 0.931 . S
C454 C453 1.395 . S
C454 C455 1.383 . S
C454 H477 0.931 . S
C455 C454 1.383 . S
C455 C456 1.394 . S
C456 C455 1.394 . S
C456 C457 1.378 . S
C456 H478 0.931 . S
C457 C452 1.377 . S
C457 C456 1.378 . S
C457 H479 0.931 . S
C458 O468 1.259 . S
C458 O469 1.270 . S
C459 O470 1.251 . S
C459 O471 1.251 . S
O460 C440 1.257 . S
O460 Eu441 2.473 . S
O461 C440 1.260 . S
O461 Eu441 2.480 . S
O462 Eu441 2.430 . S
O462 C448 1.259 . S
O463 Eu441 2.670 . S
O463 C448 1.270 . S
O463 Eu451 2.355 . S
O464 Eu441 2.394 . S
O464 C449 1.251 . S
O465 C449 1.251 . S
O465 Eu451 2.374 . S
O466 C450 1.257 . S
O466 Eu451 2.473 . S
O467 C450 1.260 . S
O467 Eu451 2.480 . S
O468 Eu451 2.430 . S
O468 C458 1.259 . S
O469 Eu441 2.355 . S
O469 Eu451 2.670 . S
O469 C458 1.270 . S
O470 Eu451 2.394 . S
O470 C459 1.251 . S
O471 Eu441 2.374 . S
O471 C459 1.251 . S
H472 C443 0.931 . S
H473 C444 0.931 . S
H474 C446 0.931 . S
H475 C447 0.931 . S
H476 C453 0.931 . S
H477 C454 0.931 . S
H478 C456 0.931 . S
H479 C457 0.931 . S
C480 Eu481 2.835 . S
C480 C482 1.500 . S
C480 O500 1.257 . S
C480 O501 1.260 . S
Eu481 C480 2.835 . S
Eu481 O500 2.473 . S
Eu481 O501 2.480 . S
Eu481 O502 2.430 . S
Eu481 O503 2.670 . S
Eu481 O504 2.394 . S
Eu481 O509 2.355 . S
Eu481 O511 2.374 . S
C482 C480 1.500 . S
C482 C483 1.377 . S
C482 C487 1.377 . S
C483 C482 1.377 . S
C483 C484 1.395 . S
C483 H512 0.931 . S
C484 C483 1.395 . S
C484 C485 1.383 . S
C484 H513 0.931 . S
C485 C484 1.383 . S
C485 C486 1.394 . S
C486 C485 1.394 . S
C486 C487 1.378 . S
C486 H514 0.931 . S
C487 C482 1.377 . S
C487 C486 1.378 . S
C487 H515 0.931 . S
C488 O502 1.259 . S
C488 O503 1.270 . S
C489 O504 1.251 . S
C489 O505 1.251 . S
C490 Eu491 2.835 . S
C490 C492 1.500 . S
C490 O506 1.257 . S
C490 O507 1.260 . S
Eu491 C490 2.835 . S
Eu491 O503 2.355 . S
Eu491 O505 2.374 . S
Eu491 O506 2.473 . S
Eu491 O507 2.480 . S
Eu491 O508 2.430 . S
Eu491 O509 2.670 . S
Eu491 O510 2.394 . S
C492 C490 1.500 . S
C492 C493 1.377 . S
C492 C497 1.377 . S
C493 C492 1.377 . S
C493 C494 1.395 . S
C493 H516 0.931 . S
C494 C493 1.395 . S
C494 C495 1.383 . S
C494 H517 0.931 . S
C495 C494 1.383 . S
C495 C496 1.394 . S
C496 C495 1.394 . S
C496 C497 1.378 . S
C496 H518 0.931 . S
C497 C492 1.377 . S
C497 C496 1.378 . S
C497 H519 0.931 . S
C498 O508 1.259 . S
C498 O509 1.270 . S
C499 O510 1.251 . S
C499 O511 1.251 . S
O500 C480 1.257 . S
O500 Eu481 2.473 . S
O501 C480 1.260 . S
O501 Eu481 2.480 . S
O502 Eu481 2.430 . S
O502 C488 1.259 . S
O503 Eu481 2.670 . S
O503 C488 1.270 . S
O503 Eu491 2.355 . S
O504 Eu481 2.394 . S
O504 C489 1.251 . S
O505 C489 1.251 . S
O505 Eu491 2.374 . S
O506 C490 1.257 . S
O506 Eu491 2.473 . S
O507 C490 1.260 . S
O507 Eu491 2.480 . S
O508 Eu491 2.430 . S
O508 C498 1.259 . S
O509 Eu481 2.355 . S
O509 Eu491 2.670 . S
O509 C498 1.270 . S
O510 Eu491 2.394 . S
O510 C499 1.251 . S
O511 Eu481 2.374 . S
O511 C499 1.251 . S
H512 C483 0.931 . S
H513 C484 0.931 . S
H514 C486 0.931 . S
H515 C487 0.931 . S
H516 C493 0.931 . S
H517 C494 0.931 . S
H518 C496 0.931 . S
H519 C497 0.931 . S
C520 Eu521 2.835 1_556 S
C520 C522 1.500 . S
C520 O540 1.257 . S
C520 O541 1.260 . S
Eu521 C520 2.835 1_554 S
Eu521 O540 2.473 1_554 S
Eu521 O541 2.480 1_554 S
Eu521 O542 2.430 . S
Eu521 O543 2.670 . S
Eu521 O544 2.394 1_554 S
Eu521 O549 2.355 . S
Eu521 O551 2.374 . S
C522 C520 1.500 . S
C522 C523 1.377 . S
C522 C527 1.377 . S
C523 C522 1.377 . S
C523 C524 1.395 . S
C523 H552 0.931 . S
C524 C523 1.395 . S
C524 C525 1.383 . S
C524 H553 0.931 . S
C525 C524 1.383 . S
C525 C526 1.394 . S
C526 C525 1.394 . S
C526 C527 1.378 . S
C526 H554 0.931 . S
C527 C522 1.377 . S
C527 C526 1.378 . S
C527 H555 0.931 . S
C528 O542 1.259 . S
C528 O543 1.270 . S
C529 O544 1.251 . S
C529 O545 1.251 1_556 S
C530 Eu531 2.835 1_655 S
C530 C532 1.500 . S
C530 O546 1.257 1_655 S
C530 O547 1.260 . S
Eu531 C530 2.835 1_455 S
Eu531 O543 2.355 . S
Eu531 O545 2.374 . S
Eu531 O546 2.473 . S
Eu531 O547 2.480 1_455 S
Eu531 O548 2.430 . S
Eu531 O549 2.670 . S
Eu531 O550 2.394 . S
C532 C530 1.500 . S
C532 C533 1.377 . S
C532 C537 1.377 . S
C533 C532 1.377 . S
C533 C534 1.395 . S
C533 H556 0.931 . S
C534 C533 1.395 . S
C534 C535 1.383 . S
C534 H557 0.931 . S
C535 C534 1.383 . S
C535 C536 1.394 . S
C536 C535 1.394 . S
C536 C537 1.378 . S
C536 H558 0.931 . S
C537 C532 1.377 . S
C537 C536 1.378 . S
C537 H559 0.937 . S
C538 O548 1.259 . S
C538 O549 1.270 . S
C539 O550 1.251 . S
C539 O551 1.251 . S
O540 C520 1.257 . S
O540 Eu521 2.473 1_556 S
O541 C520 1.260 . S
O541 Eu521 2.480 1_556 S
O542 Eu521 2.430 . S
O542 C528 1.259 . S
O543 Eu521 2.670 . S
O543 C528 1.270 . S
O543 Eu531 2.355 . S
O544 Eu521 2.394 1_556 S
O544 C529 1.251 . S
O545 C529 1.251 1_554 S
O545 Eu531 2.374 . S
O546 C530 1.257 1_455 S
O546 Eu531 2.473 . S
O547 C530 1.260 . S
O547 Eu531 2.480 1_655 S
O548 Eu531 2.430 . S
O548 C538 1.259 . S
O549 Eu521 2.355 . S
O549 Eu531 2.670 . S
O549 C538 1.270 . S
O550 Eu531 2.394 . S
O550 C539 1.251 . S
O551 Eu521 2.374 . S
O551 C539 1.251 . S
H552 C523 0.931 . S
H553 C524 0.931 . S
H554 C526 0.931 . S
H555 C527 0.931 . S
H556 C533 0.931 . S
H557 C534 0.931 . S
H558 C536 0.931 . S
H559 C537 0.937 . S
C560 Eu561 2.835 . S
C560 C562 1.500 . S
C560 O580 1.257 . S
C560 O581 1.260 . S
Eu561 C560 2.835 . S
Eu561 O580 2.473 . S
Eu561 O581 2.480 . S
Eu561 O582 2.430 . S
Eu561 O583 2.670 . S
Eu561 O584 2.394 . S
Eu561 O589 2.355 . S
Eu561 O591 2.374 . S
C562 C560 1.500 . S
C562 C563 1.377 . S
C562 C567 1.377 . S
C563 C562 1.377 . S
C563 C564 1.395 . S
C563 H592 0.931 . S
C564 C563 1.395 . S
C564 C565 1.383 . S
C564 H593 0.931 . S
C565 C564 1.383 . S
C565 C566 1.394 . S
C566 C565 1.394 . S
C566 C567 1.378 . S
C566 H594 0.931 . S
C567 C562 1.377 . S
C567 C566 1.378 . S
C567 H595 0.931 . S
C568 O582 1.259 . S
C568 O583 1.270 . S
C569 O584 1.251 . S
C569 O585 1.251 . S
C570 Eu571 2.835 . S
C570 C572 1.500 . S
C570 O586 1.257 . S
C570 O587 1.260 . S
Eu571 C570 2.835 . S
Eu571 O583 2.355 . S
Eu571 O585 2.374 . S
Eu571 O586 2.473 . S
Eu571 O587 2.480 . S
Eu571 O588 2.430 . S
Eu571 O589 2.670 . S
Eu571 O590 2.394 . S
C572 C570 1.500 . S
C572 C573 1.377 . S
C572 C577 1.377 . S
C573 C572 1.377 . S
C573 C574 1.395 . S
C573 H596 0.931 . S
C574 C573 1.395 . S
C574 C575 1.383 . S
C574 H597 0.931 . S
C575 C574 1.383 . S
C575 C576 1.394 . S
C576 C575 1.394 . S
C576 C577 1.378 . S
C576 H598 0.931 . S
C577 C572 1.377 . S
C577 C576 1.378 . S
C577 H599 0.931 . S
C578 O588 1.259 . S
C578 O589 1.270 . S
C579 O590 1.251 . S
C579 O591 1.251 . S
O580 C560 1.257 . S
O580 Eu561 2.473 . S
O581 C560 1.260 . S
O581 Eu561 2.480 . S
O582 Eu561 2.430 . S
O582 C568 1.259 . S
O583 Eu561 2.670 . S
O583 C568 1.270 . S
O583 Eu571 2.355 . S
O584 Eu561 2.394 . S
O584 C569 1.251 . S
O585 C569 1.251 . S
O585 Eu571 2.374 . S
O586 C570 1.257 . S
O586 Eu571 2.473 . S
O587 C570 1.260 . S
O587 Eu571 2.480 . S
O588 Eu571 2.430 . S
O588 C578 1.259 . S
O589 Eu561 2.355 . S
O589 Eu571 2.670 . S
O589 C578 1.270 . S
O590 Eu571 2.394 . S
O590 C579 1.251 . S
O591 Eu561 2.374 . S
O591 C579 1.251 . S
H592 C563 0.931 . S
H593 C564 0.931 . S
H594 C566 0.931 . S
H595 C567 0.931 . S
H596 C573 0.931 . S
H597 C574 0.931 . S
H598 C576 0.931 . S
H599 C577 0.931 . S
C600 Eu601 2.835 . S
C600 C602 1.500 1_556 S
C600 O620 1.257 . S
C600 O621 1.260 . S
Eu601 C600 2.835 . S
Eu601 O620 2.473 . S
Eu601 O621 2.480 . S
Eu601 O622 2.430 . S
Eu601 O623 2.670 . S
Eu601 O624 2.394 . S
Eu601 O629 2.355 . S
Eu601 O631 2.374 . S
C602 C600 1.500 1_554 S
C602 C603 1.377 . S
C602 C607 1.377 . S
C603 C602 1.377 . S
C603 C604 1.395 . S
C603 H632 0.931 . S
C604 C603 1.395 . S
C604 C605 1.383 . S
C604 H633 0.931 . S
C605 C604 1.383 . S
C605 C606 1.394 . S
C606 C605 1.394 . S
C606 C607 1.378 . S
C606 H634 0.931 . S
C607 C602 1.377 . S
C607 C606 1.378 . S
C607 H635 0.931 . S
C608 O622 1.259 . S
C608 O623 1.270 . S
C609 O624 1.251 . S
C609 O625 1.251 . S
C610 Eu611 2.824 1_655 S
C610 C612 1.511 . S
C610 O626 1.249 1_655 S
C610 O627 1.260 . S
Eu611 C610 2.824 1_455 S
Eu611 O623 2.355 . S
Eu611 O625 2.374 . S
Eu611 O626 2.473 . S
Eu611 O627 2.470 1_455 S
Eu611 O628 2.430 . S
Eu611 O629 2.670 . S
Eu611 O630 2.394 . S
C612 C610 1.511 . S
C612 C613 1.377 . S
C612 C617 1.377 . S
C613 C612 1.377 . S
C613 C614 1.395 . S
C613 H636 0.931 . S
C614 C613 1.395 . S
C614 C615 1.383 . S
C614 H637 0.931 . S
C615 C614 1.383 . S
C615 C616 1.394 . S
C616 C615 1.394 . S
C616 C617 1.378 . S
C616 H638 0.931 . S
C617 C612 1.377 . S
C617 C616 1.378 . S
C617 H639 0.931 . S
C618 O628 1.259 . S
C618 O629 1.270 . S
C619 O630 1.251 . S
C619 O631 1.251 . S
O620 C600 1.257 . S
O620 Eu601 2.473 . S
O621 C600 1.260 . S
O621 Eu601 2.480 . S
O622 Eu601 2.430 . S
O622 C608 1.259 . S
O623 Eu601 2.670 . S
O623 C608 1.270 . S
O623 Eu611 2.355 . S
O624 Eu601 2.394 . S
O624 C609 1.251 . S
O625 C609 1.251 . S
O625 Eu611 2.374 . S
O626 C610 1.249 1_455 S
O626 Eu611 2.473 . S
O627 C610 1.260 . S
O627 Eu611 2.470 1_655 S
O628 Eu611 2.430 . S
O628 C618 1.259 . S
O629 Eu601 2.355 . S
O629 Eu611 2.670 . S
O629 C618 1.270 . S
O630 Eu611 2.394 . S
O630 C619 1.251 . S
O631 Eu601 2.374 . S
O631 C619 1.251 . S
H632 C603 0.931 . S
H633 C604 0.931 . S
H634 C606 0.931 . S
H635 C607 0.931 . S
H636 C613 0.931 . S
H637 C614 0.931 . S
H638 C616 0.931 . S
H639 C617 0.931 . S
C640 C641 1.369 1_556 S
C640 C642 1.419 . S
C640 H644 0.930 . S
C641 C640 1.369 1_554 S
C641 C650 1.429 . S
C642 C640 1.419 . S
C642 C643 1.363 . S
C642 H645 0.929 . S
C643 C642 1.363 . S
C643 C649 1.428 . S
H644 C640 0.930 . S
H645 C642 0.929 . S
S646 N647 1.613 . S
S646 N648 1.610 1_554 S
N647 S646 1.613 . S
N647 C650 1.350 . S
N648 S646 1.610 1_556 S
N648 C649 1.351 . S
C649 C643 1.428 . S
C649 N648 1.351 . S
C649 C650 1.434 1_556 S
C650 C641 1.429 . S
C650 N647 1.350 . S
C650 C649 1.434 1_554 S
C651 C652 1.369 . S
C651 C653 1.419 . S
C651 H655 0.930 . S
C652 C651 1.369 . S
C652 C661 1.429 . S
C653 C651 1.419 . S
C653 C654 1.363 . S
C653 H656 0.929 . S
C654 C653 1.363 . S
C654 C660 1.428 . S
H655 C651 0.930 . S
H656 C653 0.929 . S
S657 N658 1.613 . S
S657 N659 1.610 . S
N658 S657 1.613 . S
N658 C661 1.350 . S
N659 S657 1.610 . S
N659 C660 1.351 . S
C660 C654 1.428 . S
C660 N659 1.351 . S
C660 C661 1.434 . S
C661 C652 1.429 . S
C661 N658 1.350 . S
C661 C660 1.434 . S
C662 C663 1.369 . S
C662 C664 1.419 . S
C662 H666 0.930 . S
C663 C662 1.369 . S
C663 C672 1.429 . S
C664 C662 1.419 . S
C664 C665 1.363 . S
C664 H667 0.929 . S
C665 C664 1.363 . S
C665 C671 1.428 . S
H666 C662 0.930 . S
H667 C664 0.929 . S
S668 N669 1.613 . S
S668 N670 1.610 . S
N669 S668 1.613 . S
N669 C672 1.350 . S
N670 S668 1.610 . S
N670 C671 1.351 . S
C671 C665 1.428 . S
C671 N670 1.351 . S
C671 C672 1.434 . S
C672 C663 1.429 . S
C672 N669 1.350 . S
C672 C671 1.434 . S
C673 C674 1.369 . S
C673 C675 1.419 . S
C673 H677 0.930 . S
C674 C673 1.369 . S
C674 C683 1.429 . S
C675 C673 1.419 . S
C675 C676 1.363 . S
C675 H678 0.929 . S
C676 C675 1.363 . S
C676 C682 1.428 . S
H677 C673 0.930 . S
H678 C675 0.929 . S
S679 N680 1.613 . S
S679 N681 1.610 . S
N680 S679 1.613 . S
N680 C683 1.350 . S
N681 S679 1.610 . S
N681 C682 1.351 . S
C682 C676 1.428 . S
C682 N681 1.351 . S
C682 C683 1.434 . S
C683 C674 1.429 . S
C683 N680 1.350 . S
C683 C682 1.434 . S
C684 C685 1.369 . S
C684 C686 1.419 . S
C684 H688 0.930 . S
C685 C684 1.369 . S
C685 C694 1.429 . S
C686 C684 1.419 . S
C686 C687 1.363 1_554 S
C686 H689 0.929 . S
C687 C686 1.363 1_556 S
C687 C693 1.428 1_556 S
H688 C684 0.930 . S
H689 C686 0.929 . S
S690 N691 1.613 . S
S690 N692 1.610 1_554 S
N691 S690 1.613 . S
N691 C694 1.350 . S
N692 S690 1.610 1_556 S
N692 C693 1.351 1_556 S
C693 C687 1.428 1_554 S
C693 N692 1.351 1_554 S
C693 C694 1.434 . S
C694 C685 1.429 . S
C694 N691 1.350 . S
C694 C693 1.434 . S
C695 C696 1.369 . S
C695 C697 1.419 . S
C695 H699 0.930 . S
C696 C695 1.369 . S
C696 C705 1.429 . S
C697 C695 1.419 . S
C697 C698 1.363 . S
C697 H700 0.929 . S
C698 C697 1.363 . S
C698 C704 1.428 . S
H699 C695 0.930 . S
H700 C697 0.929 . S
S701 N702 1.613 . S
S701 N703 1.610 . S
N702 S701 1.613 . S
N702 C705 1.350 . S
N703 S701 1.610 . S
N703 C704 1.351 . S
C704 C698 1.428 . S
C704 N703 1.351 . S
C704 C705 1.434 . S
C705 C696 1.429 . S
C705 N702 1.350 . S
C705 C704 1.434 . S
C706 C707 1.369 . S
C706 C708 1.419 . S
C706 H710 0.930 . S
C707 C706 1.369 . S
C707 C716 1.429 . S
C708 C706 1.419 . S
C708 C709 1.363 . S
C708 H711 0.929 . S
C709 C708 1.363 . S
C709 C715 1.428 . S
H710 C706 0.930 . S
H711 C708 0.929 . S
S712 N713 1.613 . S
S712 N714 1.610 . S
N713 S712 1.613 . S
N713 C716 1.350 . S
N714 S712 1.610 . S
N714 C715 1.351 . S
C715 C709 1.428 . S
C715 N714 1.351 . S
C715 C716 1.434 . S
C716 C707 1.429 . S
C716 N713 1.350 . S
C716 C715 1.434 . S
C717 C718 1.369 . S
C717 C719 1.419 . S
C717 H721 0.930 . S
C718 C717 1.369 . S
C718 C727 1.429 . S
C719 C717 1.419 . S
C719 C720 1.363 . S
C719 H722 0.929 . S
C720 C719 1.363 . S
C720 C726 1.428 . S
H721 C717 0.930 . S
H722 C719 0.929 . S
S723 N724 1.613 . S
S723 N725 1.610 . S
N724 S723 1.613 . S
N724 C727 1.350 . S
N725 S723 1.610 . S
N725 C726 1.351 . S
C726 C720 1.428 . S
C726 N725 1.351 . S
C726 C727 1.434 . S
C727 C718 1.429 . S
C727 N724 1.350 . S
C727 C726 1.434 . S
C728 C729 1.369 . S
C728 C730 1.419 . S
C728 H732 0.930 . S
C729 C728 1.369 . S
C729 C738 1.429 . S
C730 C728 1.419 . S
C730 C731 1.363 . S
C730 H733 0.929 . S
C731 C730 1.363 . S
C731 C737 1.428 . S
H732 C728 0.930 . S
H733 C730 0.929 . S
S734 N735 1.613 . S
S734 N736 1.610 . S
N735 S734 1.613 . S
N735 C738 1.350 . S
N736 S734 1.610 . S
N736 C737 1.351 . S
C737 C731 1.428 . S
C737 N736 1.351 . S
C737 C738 1.434 . S
C738 C729 1.429 . S
C738 N735 1.350 . S
C738 C737 1.434 . S
C739 C740 1.369 . S
C739 C741 1.419 . S
C739 H743 0.930 . S
C740 C739 1.369 . S
C740 C749 1.429 . S
C741 C739 1.419 . S
C741 C742 1.363 . S
C741 H744 0.929 . S
C742 C741 1.363 . S
C742 C748 1.428 . S
H743 C739 0.930 . S
H744 C741 0.929 . S
S745 N746 1.613 . S
S745 N747 1.610 . S
N746 S745 1.613 . S
N746 C749 1.350 . S
N747 S745 1.610 . S
N747 C748 1.351 . S
C748 C742 1.428 . S
C748 N747 1.351 . S
C748 C749 1.434 . S
C749 C740 1.429 . S
C749 N746 1.350 . S
C749 C748 1.434 . S
C750 C751 1.369 . S
C750 C752 1.419 . S
C750 H754 0.930 1_655 S
C751 C750 1.369 . S
C751 C760 1.429 . S
C752 C750 1.419 . S
C752 C753 1.363 . S
C752 H755 0.929 . S
C753 C752 1.363 . S
C753 C759 1.428 . S
H754 C750 0.930 1_455 S
H755 C752 0.929 . S
S756 N757 1.613 . S
S756 N758 1.610 . S
N757 S756 1.613 . S
N757 C760 1.350 . S
N758 S756 1.610 . S
N758 C759 1.351 . S
C759 C753 1.428 . S
C759 N758 1.351 . S
C759 C760 1.434 . S
C760 C751 1.429 . S
C760 N757 1.350 . S
C760 C759 1.434 . S
C761 C762 1.369 . S
C761 C763 1.419 . S
C761 H765 0.930 . S
C762 C761 1.369 . S
C762 C771 1.429 . S
C763 C761 1.419 . S
C763 C764 1.363 . S
C763 H766 0.929 . S
C764 C763 1.363 . S
C764 C770 1.428 1_655 S
H765 C761 0.930 . S
H766 C763 0.929 . S
S767 N768 1.613 . S
S767 N769 1.610 . S
N768 S767 1.613 . S
N768 C771 1.350 1_455 S
N769 S767 1.610 . S
N769 C770 1.351 . S
C770 C764 1.428 1_455 S
C770 N769 1.351 . S
C770 C771 1.434 1_455 S
C771 C762 1.429 . S
C771 N768 1.350 1_655 S
C771 C770 1.434 1_655 S
C772 C773 1.369 . S
C772 C774 1.419 . S
C772 H776 0.930 . S
C773 C772 1.369 . S
C773 C782 1.429 . S
C774 C772 1.419 . S
C774 C775 1.363 . S
C774 H777 0.929 . S
C775 C774 1.363 . S
C775 C781 1.428 . S
H776 C772 0.930 . S
H777 C774 0.929 . S
S778 N779 1.613 . S
S778 N780 1.610 . S
N779 S778 1.613 . S
N779 C782 1.350 . S
N780 S778 1.610 . S
N780 C781 1.351 . S
C781 C775 1.428 . S
C781 N780 1.351 . S
C781 C782 1.434 . S
C782 C773 1.429 . S
C782 N779 1.350 . S
C782 C781 1.434 . S
C783 C784 1.369 . S
C783 C785 1.419 . S
C783 H787 0.930 . S
C784 C783 1.369 . S
C784 C793 1.429 . S
C785 C783 1.419 . S
C785 C786 1.363 . S
C785 H788 0.929 . S
C786 C785 1.363 . S
C786 C792 1.428 . S
H787 C783 0.930 . S
H788 C785 0.929 . S
S789 N790 1.613 . S
S789 N791 1.610 . S
N790 S789 1.613 . S
N790 C793 1.350 . S
N791 S789 1.610 . S
N791 C792 1.351 . S
C792 C786 1.428 . S
C792 N791 1.351 . S
C792 C793 1.434 . S
C793 C784 1.429 . S
C793 N790 1.350 . S
C793 C792 1.434 . S
C794 C795 1.369 . S
C794 C796 1.419 . S
C794 H798 0.930 . S
C795 C794 1.369 . S
C795 C804 1.429 . S
C796 C794 1.419 . S
C796 C797 1.363 . S
C796 H799 0.929 . S
C797 C796 1.363 . S
C797 C803 1.428 . S
H798 C794 0.930 . S
H799 C796 0.929 . S
S800 N801 1.613 . S
S800 N802 1.610 . S
N801 S800 1.613 . S
N801 C804 1.350 . S
N802 S800 1.610 . S
N802 C803 1.351 . S
C803 C797 1.428 . S
C803 N802 1.351 . S
C803 C804 1.434 . S
C804 C795 1.429 . S
C804 N801 1.350 . S
C804 C803 1.434 . S
C805 C806 1.369 . S
C805 C807 1.419 . S
C805 H809 0.930 . S
C806 C805 1.369 . S
C806 C815 1.429 . S
C807 C805 1.419 . S
C807 C808 1.363 . S
C807 H810 0.929 . S
C808 C807 1.363 . S
C808 C814 1.428 . S
H809 C805 0.930 . S
H810 C807 0.929 . S
S811 N812 1.613 . S
S811 N813 1.610 . S
N812 S811 1.613 . S
N812 C815 1.350 . S
N813 S811 1.610 . S
N813 C814 1.351 . S
C814 C808 1.428 . S
C814 N813 1.351 . S
C814 C815 1.434 . S
C815 C806 1.429 . S
C815 N812 1.350 . S
C815 C814 1.434 . S
C816 C817 1.369 . S
C816 C818 1.419 . S
C816 H820 0.930 . S
C817 C816 1.369 . S
C817 C826 1.429 . S
C818 C816 1.419 . S
C818 C819 1.363 . S
C818 H821 0.929 . S
C819 C818 1.363 . S
C819 C825 1.428 . S
H820 C816 0.930 . S
H821 C818 0.929 . S
S822 N823 1.613 . S
S822 N824 1.610 . S
N823 S822 1.613 . S
N823 C826 1.350 . S
N824 S822 1.610 . S
N824 C825 1.351 . S
C825 C819 1.428 . S
C825 N824 1.351 . S
C825 C826 1.434 . S
C826 C817 1.429 . S
C826 N823 1.350 . S
C826 C825 1.434 . S
C827 C828 1.369 . S
C827 C829 1.419 . S
C827 H831 0.930 . S
C828 C827 1.369 . S
C828 C837 1.429 . S
C829 C827 1.419 . S
C829 C830 1.363 . S
C829 H832 0.929 . S
C830 C829 1.363 . S
C830 C836 1.428 . S
H831 C827 0.930 . S
H832 C829 0.929 . S
S833 N834 1.613 . S
S833 N835 1.610 1_655 S
N834 S833 1.613 . S
N834 C837 1.350 1_655 S
N835 S833 1.610 1_455 S
N835 C836 1.351 . S
C836 C830 1.428 . S
C836 N835 1.351 . S
C836 C837 1.434 . S
C837 C828 1.429 . S
C837 N834 1.350 1_455 S
C837 C836 1.434 . S
C838 C839 1.369 . S
C838 C840 1.419 . S
C838 H842 0.930 . S
C839 C838 1.369 . S
C839 C848 1.429 . S
C840 C838 1.419 . S
C840 C841 1.363 . S
C840 H843 0.929 . S
C841 C840 1.363 . S
C841 C847 1.428 . S
H842 C838 0.930 . S
H843 C840 0.929 . S
S844 N845 1.613 . S
S844 N846 1.610 . S
N845 S844 1.613 . S
N845 C848 1.350 . S
N846 S844 1.610 . S
N846 C847 1.351 . S
C847 C841 1.428 . S
C847 N846 1.351 . S
C847 C848 1.434 . S
C848 C839 1.429 . S
C848 N845 1.350 . S
C848 C847 1.434 . S
C849 C850 1.369 . S
C849 C851 1.419 . S
C849 H853 0.930 . S
C850 C849 1.369 . S
C850 C859 1.429 . S
C851 C849 1.419 . S
C851 C852 1.363 . S
C851 H854 0.929 . S
C852 C851 1.363 . S
C852 C858 1.428 . S
H853 C849 0.930 . S
H854 C851 0.929 . S
S855 N856 1.613 . S
S855 N857 1.610 . S
N856 S855 1.613 . S
N856 C859 1.350 . S
N857 S855 1.610 . S
N857 C858 1.351 . S
C858 C852 1.428 . S
C858 N857 1.351 . S
C858 C859 1.434 . S
C859 C850 1.429 . S
C859 N856 1.350 . S
C859 C858 1.434 . S
C860 C861 1.369 . S
C860 C862 1.419 . S
C860 H864 0.930 1_455 S
C861 C860 1.369 . S
C861 C870 1.429 . S
C862 C860 1.419 . S
C862 C863 1.363 . S
C862 H865 0.929 . S
C863 C862 1.363 . S
C863 C869 1.428 . S
H864 C860 0.930 1_655 S
H865 C862 0.929 . S
S866 N867 1.613 . S
S866 N868 1.610 . S
N867 S866 1.613 . S
N867 C870 1.350 . S
N868 S866 1.610 . S
N868 C869 1.351 . S
C869 C863 1.428 . S
C869 N868 1.351 . S
C869 C870 1.434 . S
C870 C861 1.429 . S
C870 N867 1.350 . S
C870 C869 1.434 . S
C871 C872 1.369 . S
C871 C873 1.419 . S
C871 H875 0.930 . S
C872 C871 1.369 . S
C872 C881 1.429 . S
C873 C871 1.419 . S
C873 C874 1.363 . S
C873 H876 0.929 . S
C874 C873 1.363 . S
C874 C880 1.428 . S
H875 C871 0.930 . S
H876 C873 0.929 . S
S877 N878 1.613 . S
S877 N879 1.610 . S
N878 S877 1.613 . S
N878 C881 1.350 . S
N879 S877 1.610 . S
N879 C880 1.351 . S
C880 C874 1.428 . S
C880 N879 1.351 . S
C880 C881 1.434 . S
C881 C872 1.429 . S
C881 N878 1.350 . S
C881 C880 1.434 . S
C882 C883 1.369 . S
C882 C884 1.419 . S
C882 H886 0.930 . S
C883 C882 1.369 . S
C883 C892 1.429 . S
C884 C882 1.419 . S
C884 C885 1.363 . S
C884 H887 0.929 . S
C885 C884 1.363 . S
C885 C891 1.428 . S
H886 C882 0.930 . S
H887 C884 0.929 . S
S888 N889 1.613 . S
S888 N890 1.610 . S
N889 S888 1.613 . S
N889 C892 1.350 . S
N890 S888 1.610 . S
N890 C891 1.351 . S
C891 C885 1.428 . S
C891 N890 1.351 . S
C891 C892 1.434 . S
C892 C883 1.429 . S
C892 N889 1.350 . S
C892 C891 1.434 . S
C893 C894 1.369 . S
C893 C895 1.419 . S
C893 H897 0.930 . S
C894 C893 1.369 . S
C894 C903 1.429 . S
C895 C893 1.419 . S
C895 C896 1.363 . S
C895 H898 0.929 . S
C896 C895 1.363 . S
C896 C902 1.428 . S
H897 C893 0.930 . S
H898 C895 0.929 . S
S899 N900 1.613 . S
S899 N901 1.610 . S
N900 S899 1.613 . S
N900 C903 1.350 . S
N901 S899 1.610 . S
N901 C902 1.351 . S
C902 C896 1.428 . S
C902 N901 1.351 . S
C902 C903 1.434 . S
C903 C894 1.429 . S
C903 N900 1.350 . S
C903 C902 1.434 . S
C904 C905 1.369 . S
C904 C906 1.419 . S
C904 H908 0.930 . S
C905 C904 1.369 . S
C905 C914 1.429 1_545 S
C906 C904 1.419 . S
C906 C907 1.363 1_545 S
C906 H909 0.929 1_554 S
C907 C906 1.363 1_565 S
C907 C913 1.428 . S
H908 C904 0.930 . S
H909 C906 0.929 1_556 S
S910 N911 1.613 . S
S910 N912 1.610 . S
N911 S910 1.613 . S
N911 C914 1.350 . S
N912 S910 1.610 . S
N912 C913 1.351 . S
C913 C907 1.428 . S
C913 N912 1.351 . S
C913 C914 1.434 . S
C914 C905 1.429 1_565 S
C914 N911 1.350 . S
C914 C913 1.434 . S
C915 C916 1.369 . S
C915 C917 1.419 . S
C915 H919 0.930 . S
C916 C915 1.369 . S
C916 C925 1.429 . S
C917 C915 1.419 . S
C917 C918 1.363 . S
C917 H920 0.929 . S
C918 C917 1.363 . S
C918 C924 1.428 . S
H919 C915 0.930 . S
H920 C917 0.929 . S
S921 N922 1.613 . S
S921 N923 1.610 . S
N922 S921 1.613 . S
N922 C925 1.350 . S
N923 S921 1.610 . S
N923 C924 1.351 . S
C924 C918 1.428 . S
C924 N923 1.351 . S
C924 C925 1.434 . S
C925 C916 1.429 . S
C925 N922 1.350 . S
C925 C924 1.434 . S
C926 C927 1.369 . S
C926 C928 1.419 . S
C926 H930 0.930 . S
C927 C926 1.369 . S
C927 C936 1.429 1_565 S
C928 C926 1.419 . S
C928 C929 1.363 . S
C928 H931 0.929 . S
C929 C928 1.363 . S
C929 C935 1.428 1_565 S
H930 C926 0.930 . S
H931 C928 0.929 . S
S932 N933 1.613 . S
S932 N934 1.610 . S
N933 S932 1.613 . S
N933 C936 1.350 . S
N934 S932 1.610 . S
N934 C935 1.351 . S
C935 C929 1.428 1_545 S
C935 N934 1.351 . S
C935 C936 1.434 . S
C936 C927 1.429 1_545 S
C936 N933 1.350 . S
C936 C935 1.434 . S
C937 C938 1.369 . S
C937 C939 1.419 . S
C937 H941 0.930 . S
C938 C937 1.369 . S
C938 C947 1.429 . S
C939 C937 1.419 . S
C939 C940 1.363 . S
C939 H942 0.929 . S
C940 C939 1.363 . S
C940 C946 1.428 . S
H941 C937 0.930 . S
H942 C939 0.929 . S
S943 N944 1.613 . S
S943 N945 1.610 . S
N944 S943 1.613 . S
N944 C947 1.350 . S
N945 S943 1.610 . S
N945 C946 1.351 . S
C946 C940 1.428 . S
C946 N945 1.351 . S
C946 C947 1.434 . S
C947 C938 1.429 . S
C947 N944 1.350 . S
C947 C946 1.434 . S
C948 C949 1.369 . S
C948 C950 1.419 . S
C948 H952 0.930 . S
C949 C948 1.369 . S
C949 C958 1.429 . S
C950 C948 1.419 . S
C950 C951 1.363 . S
C950 H953 0.929 . S
C951 C950 1.363 . S
C951 C957 1.428 . S
H952 C948 0.930 . S
H953 C950 0.929 . S
S954 N955 1.613 . S
S954 N956 1.610 . S
N955 S954 1.613 . S
N955 C958 1.350 . S
N956 S954 1.610 . S
N956 C957 1.351 . S
C957 C951 1.428 . S
C957 N956 1.351 . S
C957 C958 1.434 . S
C958 C949 1.429 . S
C958 N955 1.350 . S
C958 C957 1.434 . S
C959 C960 1.369 . S
C959 C961 1.419 . S
C959 H963 0.930 . S
C960 C959 1.369 . S
C960 C969 1.429 . S
C961 C959 1.419 . S
C961 C962 1.363 . S
C961 H964 0.929 . S
C962 C961 1.363 . S
C962 C968 1.428 . S
H963 C959 0.930 . S
H964 C961 0.929 . S
S965 N966 1.613 . S
S965 N967 1.610 . S
N966 S965 1.613 . S
N966 C969 1.350 . S
N967 S965 1.610 . S
N967 C968 1.351 . S
C968 C962 1.428 . S
C968 N967 1.351 . S
C968 C969 1.434 . S
C969 C960 1.429 . S
C969 N966 1.350 . S
C969 C968 1.434 . S
C970 C971 1.369 . S
C970 C972 1.419 . S
C970 H974 0.930 . S
C971 C970 1.369 . S
C971 C980 1.429 . S
C972 C970 1.419 . S
C972 C973 1.363 . S
C972 H975 0.929 . S
C973 C972 1.363 . S
C973 C979 1.428 . S
H974 C970 0.930 . S
H975 C972 0.929 . S
S976 N977 1.613 . S
S976 N978 1.610 . S
N977 S976 1.613 . S
N977 C980 1.350 . S
N978 S976 1.610 . S
N978 C979 1.351 . S
C979 C973 1.428 . S
C979 N978 1.351 . S
C979 C980 1.434 . S
C980 C971 1.429 . S
C980 N977 1.350 . S
C980 C979 1.434 . S
C981 C982 1.369 . S
C981 C983 1.419 . S
C981 H985 0.930 . S
C982 C981 1.369 . S
C982 C991 1.429 . S
C983 C981 1.419 . S
C983 C984 1.378 . S
C983 H986 0.929 . S
C984 C983 1.378 . S
C984 C990 1.439 . S
H985 C981 0.930 . S
H986 C983 0.929 . S
S987 N988 1.613 . S
S987 N989 1.610 . S
N988 S987 1.613 . S
N988 C991 1.350 . S
N989 S987 1.610 . S
N989 C990 1.351 . S
C990 C984 1.439 . S
C990 N989 1.351 . S
C990 C991 1.434 . S
C991 C982 1.429 . S
C991 N988 1.350 . S
C991 C990 1.434 . S
C992 C993 1.369 . S
C992 C994 1.419 . S
C992 H996 0.930 . S
C993 C992 1.369 . S
C993 C1002 1.429 . S
C994 C992 1.419 . S
C994 C995 1.363 . S
C994 H997 0.929 . S
C995 C994 1.363 . S
C995 C1001 1.428 . S
H996 C992 0.930 . S
H997 C994 0.929 . S
S998 N999 1.613 . S
S998 N1000 1.610 . S
N999 S998 1.613 . S
N999 C1002 1.350 . S
N1000 S998 1.610 . S
N1000 C1001 1.351 . S
C1001 C995 1.428 . S
C1001 N1000 1.351 . S
C1001 C1002 1.434 . S
C1002 C993 1.429 . S
C1002 N999 1.350 . S
C1002 C1001 1.434 . S
C1003 C1004 1.369 . S
C1003 C1005 1.419 . S
C1003 H1007 0.930 . S
C1004 C1003 1.369 . S
C1004 C1013 1.429 . S
C1005 C1003 1.419 . S
C1005 C1006 1.363 . S
C1005 H1008 0.929 . S
C1006 C1005 1.363 . S
C1006 C1012 1.428 . S
H1007 C1003 0.930 . S
H1008 C1005 0.929 . S
S1009 N1010 1.613 . S
S1009 N1011 1.610 . S
N1010 S1009 1.613 . S
N1010 C1013 1.350 . S
N1011 S1009 1.610 . S
N1011 C1012 1.351 . S
C1012 C1006 1.428 . S
C1012 N1011 1.351 . S
C1012 C1013 1.434 . S
C1013 C1004 1.429 . S
C1013 N1010 1.350 . S
C1013 C1012 1.434 . S
C1014 C1015 1.369 . S
C1014 C1016 1.419 . S
C1014 H1018 0.930 . S
C1015 C1014 1.369 . S
C1015 C1024 1.429 . S
C1016 C1014 1.419 . S
C1016 C1017 1.363 . S
C1016 H1019 0.929 . S
C1017 C1016 1.363 . S
C1017 C1023 1.428 . S
H1018 C1014 0.930 . S
H1019 C1016 0.929 . S
S1020 N1021 1.613 . S
S1020 N1022 1.610 . S
N1021 S1020 1.613 . S
N1021 C1024 1.350 . S
N1022 S1020 1.610 . S
N1022 C1023 1.351 . S
C1023 C1017 1.428 . S
C1023 N1022 1.351 . S
C1023 C1024 1.434 . S
C1024 C1015 1.429 . S
C1024 N1021 1.350 . S
C1024 C1023 1.434 . S
C1025 C1026 1.369 . S
C1025 C1027 1.419 . S
C1025 H1029 0.930 . S
C1026 C1025 1.369 . S
C1026 C1035 1.429 . S
C1027 C1025 1.419 . S
C1027 C1028 1.363 . S
C1027 H1030 0.929 . S
C1028 C1027 1.363 . S
C1028 C1034 1.428 . S
H1029 C1025 0.930 . S
H1030 C1027 0.929 . S
S1031 N1032 1.613 1_556 S
S1031 N1033 1.610 . S
N1032 S1031 1.613 1_554 S
N1032 C1035 1.350 . S
N1033 S1031 1.610 . S
N1033 C1034 1.351 1_556 S
C1034 C1028 1.428 . S
C1034 N1033 1.351 1_554 S
C1034 C1035 1.434 . S
C1035 C1026 1.429 . S
C1035 N1032 1.350 . S
C1035 C1034 1.434 . S
C1036 C1037 1.369 . S
C1036 C1038 1.419 . S
C1036 H1040 0.930 . S
C1037 C1036 1.369 . S
C1037 C1046 1.429 . S
C1038 C1036 1.419 . S
C1038 C1039 1.363 . S
C1038 H1041 0.929 . S
C1039 C1038 1.363 . S
C1039 C1045 1.428 . S
H1040 C1036 0.930 . S
H1041 C1038 0.929 . S
S1042 N1043 1.613 . S
S1042 N1044 1.610 . S
N1043 S1042 1.613 . S
N1043 C1046 1.350 . S
N1044 S1042 1.610 . S
N1044 C1045 1.351 . S
C1045 C1039 1.428 . S
C1045 N1044 1.351 . S
C1045 C1046 1.434 . S
C1046 C1037 1.429 . S
C1046 N1043 1.350 . S
C1046 C1045 1.434 . S
C1047 C1048 1.369 . S
C1047 C1049 1.419 . S
C1047 H1051 0.930 . S
C1048 C1047 1.369 . S
C1048 C1057 1.429 . S
C1049 C1047 1.419 . S
C1049 C1050 1.363 . S
C1049 H1052 0.929 1_655 S
C1050 C1049 1.363 . S
C1050 C1056 1.428 . S
H1051 C1047 0.930 . S
H1052 C1049 0.929 1_455 S
S1053 N1054 1.613 . S
S1053 N1055 1.610 . S
N1054 S1053 1.613 . S
N1054 C1057 1.350 . S
N1055 S1053 1.610 . S
N1055 C1056 1.351 . S
C1056 C1050 1.428 . S
C1056 N1055 1.351 . S
C1056 C1057 1.434 . S
C1057 C1048 1.429 . S
C1057 N1054 1.350 . S
C1057 C1056 1.434 . S
C1058 C1059 1.369 . S
C1058 C1060 1.419 . S
C1058 H1062 0.930 . S
C1059 C1058 1.369 . S
C1059 C1068 1.429 . S
C1060 C1058 1.419 . S
C1060 C1061 1.363 . S
C1060 H1063 0.929 . S
C1061 C1060 1.363 . S
C1061 C1067 1.428 . S
H1062 C1058 0.930 . S
H1063 C1060 0.929 . S
S1064 N1065 1.613 . S
S1064 N1066 1.610 . S
N1065 S1064 1.613 . S
N1065 C1068 1.350 . S
N1066 S1064 1.610 . S
N1066 C1067 1.351 . S
C1067 C1061 1.428 . S
C1067 N1066 1.351 . S
C1067 C1068 1.434 . S
C1068 C1059 1.429 . S
C1068 N1065 1.350 . S
C1068 C1067 1.434 . S
C1069 C1070 1.369 . S
C1069 C1071 1.419 . S
C1069 H1073 0.930 . S
C1070 C1069 1.369 . S
C1070 C1079 1.429 . S
C1071 C1069 1.419 . S
C1071 C1072 1.363 . S
C1071 H1074 0.929 . S
C1072 C1071 1.363 . S
C1072 C1078 1.428 . S
H1073 C1069 0.930 . S
H1074 C1071 0.929 . S
S1075 N1076 1.613 . S
S1075 N1077 1.610 . S
N1076 S1075 1.613 . S
N1076 C1079 1.350 . S
N1077 S1075 1.610 . S
N1077 C1078 1.351 . S
C1078 C1072 1.428 . S
C1078 N1077 1.351 . S
C1078 C1079 1.434 . S
C1079 C1070 1.429 . S
C1079 N1076 1.350 . S
C1079 C1078 1.434 . S
C1080 C1081 1.369 . S
C1080 C1082 1.419 . S
C1080 H1084 0.930 . S
C1081 C1080 1.369 . S
C1081 C1090 1.429 . S
C1082 C1080 1.419 . S
C1082 C1083 1.357 1_556 S
C1082 H1085 0.929 . S
C1083 C1082 1.357 1_554 S
C1083 C1089 1.420 1_554 S
H1084 C1080 0.930 . S
H1085 C1082 0.929 . S
S1086 N1087 1.613 . S
S1086 N1088 1.610 1_556 S
N1087 S1086 1.613 . S
N1087 C1090 1.350 . S
N1088 S1086 1.610 1_554 S
N1088 C1089 1.351 1_554 S
C1089 C1083 1.420 1_556 S
C1089 N1088 1.351 1_556 S
C1089 C1090 1.434 . S
C1090 C1081 1.429 . S
C1090 N1087 1.350 . S
C1090 C1089 1.434 . S
C1091 C1092 1.369 . S
C1091 C1093 1.419 . S
C1091 H1095 0.930 . S
C1092 C1091 1.369 . S
C1092 C1101 1.429 . S
C1093 C1091 1.419 . S
C1093 C1094 1.363 . S
C1093 H1096 0.929 . S
C1094 C1093 1.363 . S
C1094 C1100 1.428 . S
H1095 C1091 0.930 . S
H1096 C1093 0.929 . S
S1097 N1098 1.613 . S
S1097 N1099 1.610 . S
N1098 S1097 1.613 . S
N1098 C1101 1.350 . S
N1099 S1097 1.610 . S
N1099 C1100 1.351 . S
C1100 C1094 1.428 . S
C1100 N1099 1.351 . S
C1100 C1101 1.434 . S
C1101 C1092 1.429 . S
C1101 N1098 1.350 . S
C1101 C1100 1.434 . S
C1102 C1103 1.369 . S
C1102 C1104 1.419 . S
C1102 H1106 0.930 . S
C1103 C1102 1.369 . S
C1103 C1112 1.429 . S
C1104 C1102 1.419 . S
C1104 C1105 1.363 . S
C1104 H1107 0.929 . S
C1105 C1104 1.363 . S
C1105 C1111 1.428 . S
H1106 C1102 0.930 . S
H1107 C1104 0.929 . S
S1108 N1109 1.613 . S
S1108 N1110 1.610 . S
N1109 S1108 1.613 . S
N1109 C1112 1.350 . S
N1110 S1108 1.610 . S
N1110 C1111 1.351 . S
C1111 C1105 1.428 . S
C1111 N1110 1.351 . S
C1111 C1112 1.434 . S
C1112 C1103 1.429 . S
C1112 N1109 1.350 . S
C1112 C1111 1.434 . S
C1113 C1114 1.369 . S
C1113 C1115 1.419 . S
C1113 H1117 0.930 . S
C1114 C1113 1.369 . S
C1114 C1123 1.429 . S
C1115 C1113 1.419 . S
C1115 C1116 1.363 . S
C1115 H1118 0.929 . S
C1116 C1115 1.363 . S
C1116 C1122 1.428 . S
H1117 C1113 0.930 . S
H1118 C1115 0.929 . S
S1119 N1120 1.613 . S
S1119 N1121 1.610 . S
N1120 S1119 1.613 . S
N1120 C1123 1.350 . S
N1121 S1119 1.610 . S
N1121 C1122 1.351 . S
C1122 C1116 1.428 . S
C1122 N1121 1.351 . S
C1122 C1123 1.434 . S
C1123 C1114 1.429 . S
C1123 N1120 1.350 . S
C1123 C1122 1.434 . S
C1124 C1125 1.369 . S
C1124 C1126 1.419 1_554 S
C1124 H1128 0.930 . S
C1125 C1124 1.369 . S
C1125 C1134 1.429 . S
C1126 C1124 1.419 1_556 S
C1126 C1127 1.363 . S
C1126 H1129 0.929 . S
C1127 C1126 1.363 . S
C1127 C1133 1.428 1_556 S
H1128 C1124 0.930 . S
H1129 C1126 0.929 . S
S1130 N1131 1.613 . S
S1130 N1132 1.610 . S
N1131 S1130 1.613 . S
N1131 C1134 1.350 . S
N1132 S1130 1.610 . S
N1132 C1133 1.351 . S
C1133 C1127 1.428 1_554 S
C1133 N1132 1.351 . S
C1133 C1134 1.434 . S
C1134 C1125 1.429 . S
C1134 N1131 1.350 . S
C1134 C1133 1.434 . S
C1135 C1136 1.369 . S
C1135 C1137 1.419 . S
C1135 H1139 0.930 . S
C1136 C1135 1.369 . S
C1136 C1145 1.429 . S
C1137 C1135 1.419 . S
C1137 C1138 1.363 . S
C1137 H1140 0.929 . S
C1138 C1137 1.363 . S
C1138 C1144 1.428 . S
H1139 C1135 0.930 . S
H1140 C1137 0.929 . S
S1141 N1142 1.613 . S
S1141 N1143 1.610 . S
N1142 S1141 1.613 . S
N1142 C1145 1.350 . S
N1143 S1141 1.610 . S
N1143 C1144 1.351 . S
C1144 C1138 1.428 . S
C1144 N1143 1.351 . S
C1144 C1145 1.434 . S
C1145 C1136 1.429 . S
C1145 N1142 1.350 . S
C1145 C1144 1.434 . S
C1146 C1147 1.369 . S
C1146 C1148 1.419 . S
C1146 H1150 0.930 . S
C1147 C1146 1.369 . S
C1147 C1156 1.429 . S
C1148 C1146 1.419 . S
C1148 C1149 1.363 . S
C1148 H1151 0.929 . S
C1149 C1148 1.363 . S
C1149 C1155 1.428 . S
H1150 C1146 0.930 . S
H1151 C1148 0.929 . S
S1152 N1153 1.613 . S
S1152 N1154 1.610 . S
N1153 S1152 1.613 . S
N1153 C1156 1.350 . S
N1154 S1152 1.610 . S
N1154 C1155 1.351 . S
C1155 C1149 1.428 . S
C1155 N1154 1.351 . S
C1155 C1156 1.434 . S
C1156 C1147 1.429 . S
C1156 N1153 1.350 . S
C1156 C1155 1.434 . S
C1157 C1158 1.369 . S
C1157 C1159 1.419 . S
C1157 H1161 0.930 . S
C1158 C1157 1.369 . S
C1158 C1167 1.429 . S
C1159 C1157 1.419 . S
C1159 C1160 1.363 . S
C1159 H1162 0.929 . S
C1160 C1159 1.363 . S
C1160 C1166 1.428 . S
H1161 C1157 0.930 . S
H1162 C1159 0.929 . S
S1163 N1164 1.613 . S
S1163 N1165 1.610 . S
N1164 S1163 1.613 . S
N1164 C1167 1.350 . S
N1165 S1163 1.610 . S
N1165 C1166 1.351 . S
C1166 C1160 1.428 . S
C1166 N1165 1.351 . S
C1166 C1167 1.434 . S
C1167 C1158 1.429 . S
C1167 N1164 1.350 . S
C1167 C1166 1.434 . S
C641 C9 2.092 . S
C643 C295 2.102 . S
C652 C49 2.066 . S
C654 C175 2.077 . S
C663 C209 2.787 . S
C665 C89 2.859 . S
C674 C129 2.837 . S
C676 C249 2.779 . S
C685 C445 0.752 . S
C687 C179 0.343 . S
C696 C325 1.157 . S
C698 C5 1.233 . S
C707 C405 1.210 . S
C709 C245 1.078 . S
C718 C85 0.896 . S
C720 C379 0.433 . S
C729 C375 2.099 . S
C731 C489 2.093 . S
C740 C409 2.067 . S
C742 C575 2.080 . S
C751 C529 2.858 1_655 S
C753 C329 2.789 . S
C762 C449 2.834 . S
C764 C609 2.778 1_654 S
C773 C579 0.345 . S
C775 C125 0.756 . S
C784 C485 1.220 . S
C786 C205 1.177 . S
C795 C45 1.204 . S
C797 C605 1.079 . S
C806 C299 0.435 . S
C808 C525 0.882 . S
C817 C528 1.664 . S
C819 C8 1.435 . S
C828 C448 1.648 1_455 S
C830 C48 1.451 . S
C839 C488 1.444 . S
C841 C88 1.661 . S
C850 C408 1.446 . S
C852 C128 1.652 . S
C861 C178 1.052 . S
C863 C608 1.146 . S
C872 C378 1.019 . S
C874 C208 1.117 . S
C883 C248 1.143 . S
C885 C578 1.052 . S
C894 C298 1.039 . S
C896 C328 1.123 1_455 S
C905 C18 2.247 . S
C907 C168 2.287 1_454 S
C916 C58 2.171 . S
C918 C218 2.117 . S
C927 C258 1.706 1_565 S
C929 C98 1.805 . S
C938 C138 1.920 . S
C940 C288 1.895 . S
C949 C418 2.167 . S
C951 C338 2.121 . S
C960 C458 1.925 . S
C962 C368 1.897 . S
C971 C498 2.243 . S
C973 C568 2.292 . S
C982 C618 1.713 . S
C984 C538 1.782 1_556 S
C993 C15 1.135 . S
C995 C289 1.206 . S
C1004 C55 1.126 . S
C1006 C169 1.222 . S
C1015 C215 0.647 . S
C1017 C95 0.658 . S
C1026 C255 0.773 . S
C1028 C135 0.756 . S
C1037 C459 2.966 . S
C1039 C165 2.875 . S
C1048 C339 3.681 . S
C1050 C19 3.721 1_655 S
C1059 C419 3.787 1_554 S
C1061 C259 3.749 . S
C1070 C99 2.974 . S
C1072 C365 2.896 . S
C1081 C495 1.122 . S
C1083 C369 1.234 . S
C1092 C569 1.213 . S
C1094 C415 1.141 . S
C1103 C535 0.654 . S
C1105 C335 0.651 . S
C1114 C615 0.779 . S
C1116 C455 0.768 . S
C1125 C565 2.871 . S
C1127 C139 2.967 . S
C1136 C219 3.681 1_556 S
C1138 C499 3.720 . S
C1147 C59 3.788 . S
C1149 C619 3.750 . S
C1158 C539 2.974 . S
C1160 C285 2.896 . S
