# Generated by pormake.
# Topology wiq, (6)-cn, num edge types: 1
# Building blocks:
#     Node 0, Type 0, BuildingBlock: IZENUY_clean_sbu_0, # of connection points: 6
#     Node 1, Type 0, BuildingBlock: IZENUY_clean_sbu_0, # of connection points: 6
#     Node 2, Type 0, BuildingBlock: IZENUY_clean_sbu_0, # of connection points: 6
#     Node 3, Type 0, BuildingBlock: IZENUY_clean_sbu_0, # of connection points: 6
#     Node 4, Type 0, BuildingBlock: IZENUY_clean_sbu_0, # of connection points: 6
#     Node 5, Type 0, BuildingBlock: IZENUY_clean_sbu_0, # of connection points: 6
#     Node 6, Type 0, BuildingBlock: IZENUY_clean_sbu_0, # of connection points: 6
#     Node 7, Type 0, BuildingBlock: IZENUY_clean_sbu_0, # of connection points: 6
#     Node 8, Type 0, BuildingBlock: IZENUY_clean_sbu_0, # of connection points: 6
#     Node 9, Type 0, BuildingBlock: IZENUY_clean_sbu_0, # of connection points: 6
#     Node 10, Type 0, BuildingBlock: IZENUY_clean_sbu_0, # of connection points: 6
#     Node 11, Type 0, BuildingBlock: IZENUY_clean_sbu_0, # of connection points: 6
#     Node 12, Type 0, BuildingBlock: IZENUY_clean_sbu_0, # of connection points: 6
#     Node 13, Type 0, BuildingBlock: IZENUY_clean_sbu_0, # of connection points: 6
#     Node 14, Type 0, BuildingBlock: IZENUY_clean_sbu_0, # of connection points: 6
#     Node 15, Type 0, BuildingBlock: IZENUY_clean_sbu_0, # of connection points: 6
#     Node 16, Type 0, BuildingBlock: IZENUY_clean_sbu_0, # of connection points: 6
#     Node 17, Type 0, BuildingBlock: IZENUY_clean_sbu_0, # of connection points: 6
#     Node 18, Type 0, BuildingBlock: IZENUY_clean_sbu_0, # of connection points: 6
#     Node 19, Type 0, BuildingBlock: IZENUY_clean_sbu_0, # of connection points: 6
#     Node 20, Type 0, BuildingBlock: IZENUY_clean_sbu_0, # of connection points: 6
#     Node 21, Type 0, BuildingBlock: IZENUY_clean_sbu_0, # of connection points: 6
#     Node 22, Type 0, BuildingBlock: IZENUY_clean_sbu_0, # of connection points: 6
#     Node 23, Type 0, BuildingBlock: IZENUY_clean_sbu_0, # of connection points: 6
#     Node 24, Type 0, BuildingBlock: IZENUY_clean_sbu_0, # of connection points: 6
#     Node 25, Type 0, BuildingBlock: IZENUY_clean_sbu_0, # of connection points: 6
#     Node 26, Type 0, BuildingBlock: IZENUY_clean_sbu_0, # of connection points: 6
#     Node 27, Type 0, BuildingBlock: IZENUY_clean_sbu_0, # of connection points: 6
#     Node 28, Type 0, BuildingBlock: IZENUY_clean_sbu_0, # of connection points: 6
#     Node 29, Type 0, BuildingBlock: IZENUY_clean_sbu_0, # of connection points: 6
#     Node 30, Type 0, BuildingBlock: IZENUY_clean_sbu_0, # of connection points: 6
#     Node 31, Type 0, BuildingBlock: IZENUY_clean_sbu_0, # of connection points: 6
#     Edge 32, Type (0, 0), BuildingBlock: OJICUG_clean_linker_0, # of connection points: 2
#     Edge 33, Type (0, 0), BuildingBlock: OJICUG_clean_linker_0, # of connection points: 2
#     Edge 34, Type (0, 0), BuildingBlock: OJICUG_clean_linker_0, # of connection points: 2
#     Edge 35, Type (0, 0), BuildingBlock: OJICUG_clean_linker_0, # of connection points: 2
#     Edge 36, Type (0, 0), BuildingBlock: OJICUG_clean_linker_0, # of connection points: 2
#     Edge 37, Type (0, 0), BuildingBlock: OJICUG_clean_linker_0, # of connection points: 2
#     Edge 38, Type (0, 0), BuildingBlock: OJICUG_clean_linker_0, # of connection points: 2
#     Edge 39, Type (0, 0), BuildingBlock: OJICUG_clean_linker_0, # of connection points: 2
#     Edge 40, Type (0, 0), BuildingBlock: OJICUG_clean_linker_0, # of connection points: 2
#     Edge 41, Type (0, 0), BuildingBlock: OJICUG_clean_linker_0, # of connection points: 2
#     Edge 42, Type (0, 0), BuildingBlock: OJICUG_clean_linker_0, # of connection points: 2
#     Edge 43, Type (0, 0), BuildingBlock: OJICUG_clean_linker_0, # of connection points: 2
#     Edge 44, Type (0, 0), BuildingBlock: OJICUG_clean_linker_0, # of connection points: 2
#     Edge 45, Type (0, 0), BuildingBlock: OJICUG_clean_linker_0, # of connection points: 2
#     Edge 46, Type (0, 0), BuildingBlock: OJICUG_clean_linker_0, # of connection points: 2
#     Edge 47, Type (0, 0), BuildingBlock: OJICUG_clean_linker_0, # of connection points: 2
#     Edge 48, Type (0, 0), BuildingBlock: OJICUG_clean_linker_0, # of connection points: 2
#     Edge 49, Type (0, 0), BuildingBlock: OJICUG_clean_linker_0, # of connection points: 2
#     Edge 50, Type (0, 0), BuildingBlock: OJICUG_clean_linker_0, # of connection points: 2
#     Edge 51, Type (0, 0), BuildingBlock: OJICUG_clean_linker_0, # of connection points: 2
#     Edge 52, Type (0, 0), BuildingBlock: OJICUG_clean_linker_0, # of connection points: 2
#     Edge 53, Type (0, 0), BuildingBlock: OJICUG_clean_linker_0, # of connection points: 2
#     Edge 54, Type (0, 0), BuildingBlock: OJICUG_clean_linker_0, # of connection points: 2
#     Edge 55, Type (0, 0), BuildingBlock: OJICUG_clean_linker_0, # of connection points: 2
#     Edge 56, Type (0, 0), BuildingBlock: OJICUG_clean_linker_0, # of connection points: 2
#     Edge 57, Type (0, 0), BuildingBlock: OJICUG_clean_linker_0, # of connection points: 2
#     Edge 58, Type (0, 0), BuildingBlock: OJICUG_clean_linker_0, # of connection points: 2
#     Edge 59, Type (0, 0), BuildingBlock: OJICUG_clean_linker_0, # of connection points: 2
#     Edge 60, Type (0, 0), BuildingBlock: OJICUG_clean_linker_0, # of connection points: 2
#     Edge 61, Type (0, 0), BuildingBlock: OJICUG_clean_linker_0, # of connection points: 2
#     Edge 62, Type (0, 0), BuildingBlock: OJICUG_clean_linker_0, # of connection points: 2
#     Edge 63, Type (0, 0), BuildingBlock: OJICUG_clean_linker_0, # of connection points: 2
#     Edge 64, Type (0, 0), BuildingBlock: OJICUG_clean_linker_0, # of connection points: 2
#     Edge 65, Type (0, 0), BuildingBlock: OJICUG_clean_linker_0, # of connection points: 2
#     Edge 66, Type (0, 0), BuildingBlock: OJICUG_clean_linker_0, # of connection points: 2
#     Edge 67, Type (0, 0), BuildingBlock: OJICUG_clean_linker_0, # of connection points: 2
#     Edge 68, Type (0, 0), BuildingBlock: OJICUG_clean_linker_0, # of connection points: 2
#     Edge 69, Type (0, 0), BuildingBlock: OJICUG_clean_linker_0, # of connection points: 2
#     Edge 70, Type (0, 0), BuildingBlock: OJICUG_clean_linker_0, # of connection points: 2
#     Edge 71, Type (0, 0), BuildingBlock: OJICUG_clean_linker_0, # of connection points: 2
#     Edge 72, Type (0, 0), BuildingBlock: OJICUG_clean_linker_0, # of connection points: 2
#     Edge 73, Type (0, 0), BuildingBlock: OJICUG_clean_linker_0, # of connection points: 2
#     Edge 74, Type (0, 0), BuildingBlock: OJICUG_clean_linker_0, # of connection points: 2
#     Edge 75, Type (0, 0), BuildingBlock: OJICUG_clean_linker_0, # of connection points: 2
#     Edge 76, Type (0, 0), BuildingBlock: OJICUG_clean_linker_0, # of connection points: 2
#     Edge 77, Type (0, 0), BuildingBlock: OJICUG_clean_linker_0, # of connection points: 2
#     Edge 78, Type (0, 0), BuildingBlock: OJICUG_clean_linker_0, # of connection points: 2
#     Edge 79, Type (0, 0), BuildingBlock: OJICUG_clean_linker_0, # of connection points: 2
#     Edge 80, Type (0, 0), BuildingBlock: OJICUG_clean_linker_0, # of connection points: 2
#     Edge 81, Type (0, 0), BuildingBlock: OJICUG_clean_linker_0, # of connection points: 2
#     Edge 82, Type (0, 0), BuildingBlock: OJICUG_clean_linker_0, # of connection points: 2
#     Edge 83, Type (0, 0), BuildingBlock: OJICUG_clean_linker_0, # of connection points: 2
#     Edge 84, Type (0, 0), BuildingBlock: OJICUG_clean_linker_0, # of connection points: 2
#     Edge 85, Type (0, 0), BuildingBlock: OJICUG_clean_linker_0, # of connection points: 2
#     Edge 86, Type (0, 0), BuildingBlock: OJICUG_clean_linker_0, # of connection points: 2
#     Edge 87, Type (0, 0), BuildingBlock: OJICUG_clean_linker_0, # of connection points: 2
#     Edge 88, Type (0, 0), BuildingBlock: OJICUG_clean_linker_0, # of connection points: 2
#     Edge 89, Type (0, 0), BuildingBlock: OJICUG_clean_linker_0, # of connection points: 2
#     Edge 90, Type (0, 0), BuildingBlock: OJICUG_clean_linker_0, # of connection points: 2
#     Edge 91, Type (0, 0), BuildingBlock: OJICUG_clean_linker_0, # of connection points: 2
#     Edge 92, Type (0, 0), BuildingBlock: OJICUG_clean_linker_0, # of connection points: 2
#     Edge 93, Type (0, 0), BuildingBlock: OJICUG_clean_linker_0, # of connection points: 2
#     Edge 94, Type (0, 0), BuildingBlock: OJICUG_clean_linker_0, # of connection points: 2
#     Edge 95, Type (0, 0), BuildingBlock: OJICUG_clean_linker_0, # of connection points: 2
#     Edge 96, Type (0, 0), BuildingBlock: OJICUG_clean_linker_0, # of connection points: 2
#     Edge 97, Type (0, 0), BuildingBlock: OJICUG_clean_linker_0, # of connection points: 2
#     Edge 98, Type (0, 0), BuildingBlock: OJICUG_clean_linker_0, # of connection points: 2
#     Edge 99, Type (0, 0), BuildingBlock: OJICUG_clean_linker_0, # of connection points: 2
#     Edge 100, Type (0, 0), BuildingBlock: OJICUG_clean_linker_0, # of connection points: 2
#     Edge 101, Type (0, 0), BuildingBlock: OJICUG_clean_linker_0, # of connection points: 2
#     Edge 102, Type (0, 0), BuildingBlock: OJICUG_clean_linker_0, # of connection points: 2
#     Edge 103, Type (0, 0), BuildingBlock: OJICUG_clean_linker_0, # of connection points: 2
#     Edge 104, Type (0, 0), BuildingBlock: OJICUG_clean_linker_0, # of connection points: 2
#     Edge 105, Type (0, 0), BuildingBlock: OJICUG_clean_linker_0, # of connection points: 2
#     Edge 106, Type (0, 0), BuildingBlock: OJICUG_clean_linker_0, # of connection points: 2
#     Edge 107, Type (0, 0), BuildingBlock: OJICUG_clean_linker_0, # of connection points: 2
#     Edge 108, Type (0, 0), BuildingBlock: OJICUG_clean_linker_0, # of connection points: 2
#     Edge 109, Type (0, 0), BuildingBlock: OJICUG_clean_linker_0, # of connection points: 2
#     Edge 110, Type (0, 0), BuildingBlock: OJICUG_clean_linker_0, # of connection points: 2
#     Edge 111, Type (0, 0), BuildingBlock: OJICUG_clean_linker_0, # of connection points: 2
#     Edge 112, Type (0, 0), BuildingBlock: OJICUG_clean_linker_0, # of connection points: 2
#     Edge 113, Type (0, 0), BuildingBlock: OJICUG_clean_linker_0, # of connection points: 2
#     Edge 114, Type (0, 0), BuildingBlock: OJICUG_clean_linker_0, # of connection points: 2
#     Edge 115, Type (0, 0), BuildingBlock: OJICUG_clean_linker_0, # of connection points: 2
#     Edge 116, Type (0, 0), BuildingBlock: OJICUG_clean_linker_0, # of connection points: 2
#     Edge 117, Type (0, 0), BuildingBlock: OJICUG_clean_linker_0, # of connection points: 2
#     Edge 118, Type (0, 0), BuildingBlock: OJICUG_clean_linker_0, # of connection points: 2
#     Edge 119, Type (0, 0), BuildingBlock: OJICUG_clean_linker_0, # of connection points: 2
#     Edge 120, Type (0, 0), BuildingBlock: OJICUG_clean_linker_0, # of connection points: 2
#     Edge 121, Type (0, 0), BuildingBlock: OJICUG_clean_linker_0, # of connection points: 2
#     Edge 122, Type (0, 0), BuildingBlock: OJICUG_clean_linker_0, # of connection points: 2
#     Edge 123, Type (0, 0), BuildingBlock: OJICUG_clean_linker_0, # of connection points: 2
#     Edge 124, Type (0, 0), BuildingBlock: OJICUG_clean_linker_0, # of connection points: 2
#     Edge 125, Type (0, 0), BuildingBlock: OJICUG_clean_linker_0, # of connection points: 2
#     Edge 126, Type (0, 0), BuildingBlock: OJICUG_clean_linker_0, # of connection points: 2
#     Edge 127, Type (0, 0), BuildingBlock: OJICUG_clean_linker_0, # of connection points: 2
# Relax obj value: 0.284
# Max RMSD: 0.210
# Mean RMSD: 0.209
data_MOF--net-wiq--node1-IZENUY_clean_sbu_0--edge1-OJICUG_clean_linker_0
_symmetry_space_group_name_H-M    P1
_symmetry_Int_Tables_number       1
_symmetry_cell_setting            triclinic
loop_
_symmetry_equiv_pos_as_xyz
'x, y, z'
_cell_length_a     35.878887
_cell_length_b     35.877346
_cell_length_c     39.425456
_cell_angle_alpha  90.002621
_cell_angle_beta   90.010951
_cell_angle_gamma 89.914309
loop_
_atom_site_label
_atom_site_type_symbol
_atom_site_fract_x
_atom_site_fract_y
_atom_site_fract_z
_atom_type_partial_charge
Fe0 Fe 0.17747 0.16475 0.31739 0.0
Fe1 Fe 0.15885 0.21959 0.26066 0.0
O2 O 0.14886 0.1783 0.28285 0.0
Fe3 Fe 0.11147 0.1499 0.26992 0.0
O4 O 0.08966 0.15525 0.31053 0.0
O5 O 0.13878 0.13996 0.3408 0.0
O6 O 0.16405 0.20613 0.34098 0.0
C7 C 0.16764 0.23935 0.33059 0.0
C8 C 0.16855 0.09768 0.28398 0.0
O9 O 0.17399 0.24583 0.29929 0.0
C10 C 0.13926 0.16891 0.20829 0.0
O11 O 0.22047 0.1902 0.30165 0.0
O12 O 0.20377 0.20126 0.25028 0.0
O13 O 0.13422 0.106 0.28228 0.0
O14 O 0.19196 0.12161 0.29484 0.0
C15 C 0.08418 0.22352 0.2614 0.0
O16 O 0.1443 0.2018 0.219 0.0
O17 O 0.13084 0.14292 0.22824 0.0
C18 C 0.22844 0.20297 0.27225 0.0
O19 O 0.11429 0.23877 0.26924 0.0
O20 O 0.08223 0.18888 0.25531 0.0
C21 C 0.10344 0.14468 0.33825 0.0
Fe22 Fe 0.12818 0.92693 0.56667 0.0
Fe23 Fe 0.07228 0.90876 0.51055 0.0
O24 O 0.11374 0.8983 0.53237 0.0
Fe25 Fe 0.14153 0.86049 0.51926 0.0
O26 O 0.13649 0.83896 0.56001 0.0
O27 O 0.15296 0.88798 0.58984 0.0
O28 O 0.08698 0.91407 0.59083 0.0
C29 C 0.05361 0.91775 0.58071 0.0
C30 C 0.19414 0.91698 0.53129 0.0
O31 O 0.04677 0.92416 0.54949 0.0
C32 C 0.12213 0.8885 0.45774 0.0
O33 O 0.10274 0.97019 0.55116 0.0
O34 O 0.09095 0.95343 0.49999 0.0
O35 O 0.18566 0.88271 0.53098 0.0
O36 O 0.17111 0.94077 0.54328 0.0
C37 C 0.06774 0.83409 0.51162 0.0
O38 O 0.0894 0.89402 0.46869 0.0
O39 O 0.14814 0.87958 0.47748 0.0
C40 C 0.08949 0.97815 0.52191 0.0
O41 O 0.05275 0.86442 0.51931 0.0
O42 O 0.10223 0.83174 0.50516 0.0
C43 C 0.14762 0.85271 0.58754 0.0
Fe44 Fe 0.38229 0.82147 0.75988 0.0
Fe45 Fe 0.42965 0.89118 0.76939 0.0
O46 O 0.39233 0.86266 0.78225 0.0
Fe47 Fe 0.36382 0.87601 0.81694 0.0
O48 O 0.3774 0.83457 0.8403 0.0
O49 O 0.36747 0.795 0.79848 0.0
O50 O 0.42693 0.80232 0.76815 0.0
C51 C 0.45701 0.81766 0.76041 0.0
C52 C 0.31274 0.83772 0.77189 0.0
O53 O 0.45891 0.85234 0.75451 0.0
C54 C 0.37256 0.94325 0.78379 0.0
O55 O 0.39654 0.83958 0.71825 0.0
O56 O 0.41011 0.89839 0.72781 0.0
O57 O 0.32079 0.85051 0.80127 0.0
O58 O 0.33725 0.83974 0.74981 0.0
C59 C 0.4379 0.89603 0.83774 0.0
O60 O 0.40689 0.93497 0.78203 0.0
O61 O 0.34919 0.91923 0.79458 0.0
C62 C 0.40149 0.87257 0.70774 0.0
O63 O 0.45161 0.88562 0.80995 0.0
O64 O 0.40257 0.90076 0.84035 0.0
C65 C 0.37386 0.80138 0.82979 0.0
Fe66 Fe 0.39881 0.17934 0.02014 0.0
Fe67 Fe 0.41391 0.11332 0.06763 0.0
O68 O 0.42732 0.14193 0.03304 0.0
Fe69 Fe 0.46863 0.13192 1.01083 0.0
O70 O 0.48767 0.17648 0.01938 0.0
O71 O 0.43768 0.20862 1.00559 0.0
O72 O 0.4041 0.20112 0.06078 0.0
C73 C 0.39379 0.18731 0.08854 0.0
C74 C 0.41789 0.15151 0.95846 0.0
O75 O 0.38911 0.15199 0.09108 0.0
C76 C 0.45225 0.06236 0.02248 0.0
O77 O 0.355 0.15659 0.03249 0.0
O78 O 0.37076 0.09885 0.04515 0.0
O79 O 0.45078 0.14644 0.96919 0.0
O80 O 0.39189 0.16004 0.97839 0.0
C81 C 0.48852 0.12318 0.08073 0.0
O82 O 0.43943 0.07032 0.05187 0.0
O83 O 0.4504 0.087 1.0005 0.0
C84 C 0.34676 0.12228 0.0343 0.0
O85 O 0.4553 0.12673 0.09116 0.0
O86 O 0.49497 0.11681 0.04943 0.0
C87 C 0.47231 0.20663 0.01171 0.0
Fe88 Fe 0.11092 0.89152 0.25213 0.0
Fe89 Fe 0.17774 0.87825 0.20516 0.0
O90 O 0.14886 0.86377 0.23927 0.0
Fe91 Fe 0.15918 0.8223 0.26112 0.0
O92 O 0.1149 0.80273 0.25209 0.0
O93 O 0.08209 0.85219 0.26602 0.0
O94 O 0.08975 0.88647 0.21122 0.0
C95 C 0.10375 0.89765 0.18381 0.0
C96 C 0.13852 0.87213 0.31383 0.0
O97 O 0.13901 0.90303 0.18176 0.0
C98 C 0.22865 0.8396 0.25018 0.0
O99 O 0.13321 0.93567 0.2406 0.0
O100 O 0.19138 0.92117 0.22867 0.0
O101 O 0.14415 0.8394 0.3029 0.0
O102 O 0.12965 0.89813 0.29406 0.0
C103 C 0.1686 0.80367 0.19103 0.0
O104 O 0.22087 0.85286 0.2209 0.0
O105 O 0.20378 0.84097 0.27196 0.0
C106 C 0.16748 0.94417 0.24053 0.0
O107 O 0.16508 0.83705 0.18089 0.0
O108 O 0.17485 0.79682 0.22228 0.0
C109 C 0.0845 0.81769 0.2596 0.0
Fe110 Fe 0.39992 0.86151 0.50231 0.0
Fe111 Fe 0.41486 0.92746 0.45483 0.0
O112 O 0.42833 0.89891 0.48946 0.0
Fe113 Fe 0.46952 0.909 0.51179 0.0
O114 O 0.48879 0.86443 0.50343 0.0
O115 O 0.43886 0.8323 0.51708 0.0
O116 O 0.40545 0.83965 0.46172 0.0
C117 C 0.39496 0.85341 0.43397 0.0
C118 C 0.41856 0.8896 0.56398 0.0
O119 O 0.39016 0.88873 0.43142 0.0
C120 C 0.45294 0.97854 0.49995 0.0
O121 O 0.35605 0.88421 0.48978 0.0
O122 O 0.37165 0.94196 0.47727 0.0
O123 O 0.45152 0.89461 0.55343 0.0
O124 O 0.39274 0.88095 0.54393 0.0
C125 C 0.48952 0.91756 0.44188 0.0
O126 O 0.44024 0.9705 0.47054 0.0
O127 O 0.45111 0.95395 0.52197 0.0
C128 C 0.34771 0.91852 0.48809 0.0
O129 O 0.45632 0.914 0.43139 0.0
O130 O 0.4959 0.92398 0.47319 0.0
C131 C 0.47353 0.83429 0.51113 0.0
Fe132 Fe 0.38241 0.21875 0.76167 0.0
Fe133 Fe 0.43067 0.14951 0.75278 0.0
O134 O 0.3928 0.1773 0.73981 0.0
Fe135 Fe 0.364 0.16288 0.70561 0.0
O136 O 0.37684 0.20407 0.6814 0.0
O137 O 0.3669 0.24428 0.72276 0.0
O138 O 0.4267 0.23834 0.75281 0.0
C139 C 0.45711 0.22335 0.76025 0.0
C140 C 0.31299 0.20141 0.75052 0.0
O141 O 0.45954 0.18885 0.76666 0.0
C142 C 0.37404 0.09692 0.74098 0.0
O143 O 0.39727 0.20165 0.80352 0.0
O144 O 0.41183 0.14295 0.79468 0.0
O145 O 0.32087 0.1883 0.72122 0.0
O146 O 0.33781 0.20002 0.77235 0.0
C147 C 0.43797 0.14337 0.68444 0.0
O148 O 0.40832 0.10538 0.74125 0.0
O149 O 0.35022 0.11996 0.72903 0.0
C150 C 0.40283 0.1689 0.81445 0.0
O151 O 0.45195 0.15446 0.71189 0.0
O152 O 0.40272 0.13804 0.68232 0.0
C153 C 0.37336 0.23745 0.69153 0.0
Fe154 Fe 0.12725 0.11366 0.95591 0.0
Fe155 Fe 0.07129 0.13254 0.01183 0.0
O156 O 0.11275 0.14268 0.98994 0.0
Fe157 Fe 0.14049 0.18059 1.0027 0.0
O158 O 0.13546 0.20164 0.96171 0.0
O159 O 0.15211 0.15222 0.93246 0.0
O160 O 0.0861 0.12645 0.9316 0.0
C161 C 0.05271 0.12312 0.94172 0.0
C162 C 0.19315 0.1238 0.99124 0.0
O163 O 0.04582 0.1169 0.97297 0.0
C164 C 0.1212 0.15313 0.06447 0.0
O165 O 0.10182 0.07067 0.9717 0.0
O166 O 0.08996 0.0879 0.02274 0.0
O167 O 0.18465 0.1581 0.99125 0.0
O168 O 0.17014 0.09993 0.97946 0.0
C169 C 0.0666 0.20722 1.01025 0.0
O170 O 0.08844 0.14757 0.05361 0.0
O171 O 0.14713 0.16195 0.04464 0.0
C172 C 0.08863 0.06297 1.001 0.0
O173 O 0.05167 0.17685 1.00276 0.0
O174 O 0.10113 0.20957 0.01654 0.0
C175 C 0.14677 0.1875 0.93438 0.0
Fe176 Fe 0.86436 0.87845 0.70523 0.0
Fe177 Fe 0.93069 0.89184 0.75271 0.0
O178 O 0.89292 0.86408 0.73963 0.0
Fe179 Fe 0.88239 0.82278 0.76161 0.0
O180 O 0.86713 0.7971 0.72272 0.0
O181 O 0.87725 0.8371 0.68124 0.0
O182 O 0.90336 0.90301 0.68205 0.0
C183 C 0.93861 0.89755 0.68442 0.0
C184 C 0.81303 0.84018 0.75001 0.0
O185 O 0.95232 0.88652 0.71202 0.0
C186 C 0.90234 0.8729 0.81424 0.0
O187 O 0.85047 0.92152 0.72846 0.0
O188 O 0.90851 0.93596 0.74075 0.0
O189 O 0.8377 0.84166 0.77197 0.0
O190 O 0.82108 0.85322 0.72072 0.0
C191 C 0.95707 0.81802 0.76072 0.0
O192 O 0.91145 0.89874 0.79441 0.0
O193 O 0.89697 0.8401 0.80344 0.0
C194 C 0.87424 0.94453 0.74042 0.0
O195 O 0.9594 0.85253 0.76705 0.0
O196 O 0.92676 0.80306 0.75307 0.0
C197 C 0.87357 0.80378 0.69147 0.0
Fe198 Fe 0.96951 0.1321 0.51165 0.0
Fe199 Fe 0.91378 0.11318 0.45558 0.0
O200 O 0.92807 0.14219 0.48966 0.0
Fe201 Fe 0.90015 0.18009 0.50233 0.0
O202 O 0.93928 0.20908 0.51634 0.0
O203 O 0.9889 0.17644 0.50263 0.0
O204 O 0.99519 0.11652 0.47288 0.0
C205 C 0.98837 0.12268 0.4416 0.0
C206 C 0.91935 0.15264 0.56416 0.0
O207 O 0.95499 0.12593 0.43139 0.0
C208 C 0.84771 0.12341 0.49071 0.0
O209 O 0.95109 0.0874 0.5225 0.0
O210 O 0.93932 0.07018 0.47145 0.0
O211 O 0.89342 0.16143 0.54427 0.0
O212 O 0.95215 0.14709 0.55337 0.0
C213 C 0.89421 0.18705 0.43397 0.0
O214 O 0.87081 0.09948 0.47903 0.0
O215 O 0.85614 0.15768 0.49064 0.0
C216 C 0.95262 0.0625 0.50075 0.0
O217 O 0.88893 0.15176 0.43202 0.0
O218 O 0.90531 0.20117 0.46137 0.0
C219 C 0.97378 0.20679 0.51002 0.0
Fe220 Fe 0.65884 0.21938 0.26153 0.0
Fe221 Fe 0.67737 0.16335 0.20557 0.0
O222 O 0.64849 0.17796 0.23967 0.0
Fe223 Fe 0.61055 0.15036 0.25254 0.0
O224 O 0.58172 0.18986 0.2664 0.0
O225 O 0.61459 0.2392 0.25252 0.0
O226 O 0.67455 0.24476 0.22267 0.0
C227 C 0.66831 0.2379 0.19142 0.0
C228 C 0.63822 0.16963 0.31422 0.0
O229 O 0.66471 0.20454 0.1813 0.0
C230 C 0.66718 0.0975 0.24093 0.0
O231 O 0.70341 0.20049 0.27238 0.0
O232 O 0.7205 0.18861 0.22131 0.0
O233 O 0.62929 0.1437 0.29443 0.0
O234 O 0.64382 0.20236 0.30333 0.0
C235 C 0.60338 0.14406 0.18423 0.0
O236 O 0.69104 0.12044 0.22907 0.0
O237 O 0.63289 0.10608 0.24109 0.0
C238 C 0.72831 0.20173 0.25062 0.0
O239 O 0.63865 0.13863 0.18219 0.0
O240 O 0.58938 0.1554 0.2116 0.0
C241 C 0.58418 0.2244 0.26011 0.0
Fe242 Fe 0.57148 0.90869 0.01154 0.0
Fe243 Fe 0.62741 0.92745 0.95562 0.0
O244 O 0.61295 0.89844 0.98966 0.0
Fe245 Fe 0.64073 0.86049 1.00243 0.0
O246 O 0.60138 0.83155 0.01615 0.0
O247 O 0.55187 0.86444 1.00251 0.0
O248 O 0.546 0.92435 0.97264 0.0
C249 C 0.55288 0.918 0.9414 0.0
C250 C 0.62133 0.88797 0.06424 0.0
O251 O 0.58629 0.91467 0.93129 0.0
C252 C 0.69328 0.91727 0.99106 0.0
O253 O 0.59019 0.95327 0.02241 0.0
O254 O 0.60191 0.97045 0.97137 0.0
O255 O 0.64727 0.87905 0.04442 0.0
O256 O 0.58859 0.89366 0.05335 0.0
C257 C 0.64711 0.85366 0.93409 0.0
O258 O 0.67024 0.94115 0.97921 0.0
O259 O 0.68487 0.88297 0.99108 0.0
C260 C 0.58881 0.9782 1.00069 0.0
O261 O 0.65238 0.88893 0.9322 0.0
O262 O 0.63584 0.83948 0.96139 0.0
C263 C 0.56683 0.83401 1.00989 0.0
Fe264 Fe 0.92991 0.15012 0.76965 0.0
Fe265 Fe 0.88241 0.2199 0.76038 0.0
O266 O 0.89251 0.1786 0.78259 0.0
Fe267 Fe 0.86396 0.16513 0.81718 0.0
O268 O 0.90266 0.1402 0.84052 0.0
O269 O 0.95175 0.15539 0.81027 0.0
O270 O 0.95914 0.18904 0.75507 0.0
C271 C 0.95711 0.2237 0.7611 0.0
C272 C 0.87283 0.09807 0.78371 0.0
O273 O 0.92697 0.23902 0.76881 0.0
C274 C 0.81289 0.20352 0.77219 0.0
O275 O 0.91053 0.1432 0.72797 0.0
O276 O 0.89681 0.20205 0.71869 0.0
O277 O 0.84943 0.12205 0.79462 0.0
O278 O 0.90716 0.10628 0.78199 0.0
C279 C 0.87393 0.2397 0.83035 0.0
O280 O 0.83747 0.20163 0.75017 0.0
O281 O 0.82094 0.19072 0.80156 0.0
C282 C 0.90195 0.16914 0.70801 0.0
O283 O 0.86743 0.2462 0.79907 0.0
O284 O 0.87748 0.20645 0.84074 0.0
C285 C 0.93798 0.14487 0.83798 0.0
Fe286 Fe 0.62706 0.11426 0.56724 0.0
Fe287 Fe 0.64164 0.18014 0.51957 0.0
O288 O 0.61337 0.14273 0.53264 0.0
Fe289 Fe 0.57207 0.13254 0.51053 0.0
O290 O 0.54598 0.1174 0.54922 0.0
O291 O 0.58571 0.12765 0.59083 0.0
O292 O 0.65179 0.1531 0.59051 0.0
C293 C 0.64699 0.18842 0.58786 0.0
C294 C 0.58897 0.06304 0.52224 0.0
O295 O 0.63636 0.20207 0.56012 0.0
C296 C 0.62257 0.15209 0.45805 0.0
O297 O 0.67015 0.09977 0.54467 0.0
O298 O 0.68566 0.15748 0.53188 0.0
O299 O 0.59058 0.08767 0.50023 0.0
O300 O 0.60171 0.07114 0.55163 0.0
C301 C 0.56787 0.20722 0.51114 0.0
O302 O 0.64856 0.16065 0.47794 0.0
O303 O 0.58971 0.14704 0.46882 0.0
C304 C 0.69403 0.12317 0.53371 0.0
O305 O 0.60251 0.20927 0.50499 0.0
O306 O 0.55275 0.17707 0.51904 0.0
C307 C 0.55249 0.12386 0.5805 0.0
Fe308 Fe 0.61216 0.89192 0.26991 0.0
Fe309 Fe 0.6593 0.82192 0.2605 0.0
O310 O 0.64955 0.86331 0.2827 0.0
Fe311 Fe 0.67833 0.87667 0.31718 0.0
O312 O 0.63983 0.90162 0.34075 0.0
O313 O 0.59053 0.88671 0.31062 0.0
O314 O 0.58272 0.85317 0.25543 0.0
C315 C 0.58458 0.81857 0.26161 0.0
C316 C 0.66936 0.94386 0.28392 0.0
O317 O 0.61469 0.8031 0.26923 0.0
C318 C 0.729 0.83803 0.27191 0.0
O319 O 0.63133 0.89876 0.22812 0.0
O320 O 0.64467 0.8398 0.21889 0.0
O321 O 0.69282 0.9198 0.29464 0.0
O322 O 0.63505 0.93566 0.28221 0.0
C323 C 0.66817 0.80209 0.33038 0.0
O324 O 0.70428 0.83986 0.24999 0.0
O325 O 0.72118 0.85097 0.30129 0.0
C326 C 0.63963 0.87271 0.20816 0.0
O327 O 0.67445 0.79556 0.29908 0.0
O328 O 0.66486 0.83535 0.34078 0.0
C329 C 0.60449 0.89706 0.33832 0.0
Fe330 Fe 0.96858 0.90924 1.01042 0.0
Fe331 Fe 0.91404 0.92738 0.06752 0.0
O332 O 0.92739 0.89907 0.03271 0.0
Fe333 Fe 0.8989 0.8618 0.01962 0.0
O334 O 0.93774 0.83264 1.00466 0.0
O335 O 0.98773 0.86457 0.01857 0.0
O336 O 0.99505 0.924 0.04904 0.0
C337 C 0.98872 0.91752 0.08033 0.0
C338 C 0.9176 0.89022 0.95813 0.0
O339 O 0.95556 0.91379 0.09083 0.0
C340 C 0.84678 0.91873 0.03433 0.0
O341 O 0.95025 0.95428 1.00048 0.0
O342 O 0.93942 0.97053 0.05199 0.0
O343 O 0.89171 0.88156 0.9781 0.0
O344 O 0.95055 0.8951 0.96875 0.0
C345 C 0.8942 0.85314 0.08795 0.0
O346 O 0.87077 0.94206 0.04526 0.0
O347 O 0.85509 0.88443 0.03235 0.0
C348 C 0.95219 0.97873 0.02264 0.0
O349 O 0.88943 0.88845 0.09078 0.0
O350 O 0.90446 0.83962 0.06004 0.0
C351 C 0.97237 0.83452 1.01072 0.0
Fe352 Fe 0.61206 0.65011 0.7695 0.0
Fe353 Fe 0.67816 0.66504 0.81681 0.0
O354 O 0.64946 0.67855 0.7823 0.0
Fe355 Fe 0.65937 0.71984 0.76004 0.0
O356 O 0.61476 0.73896 0.76855 0.0
O357 O 0.58274 0.689 0.75484 0.0
O358 O 0.59034 0.65554 0.81018 0.0
C359 C 0.6042 0.64499 0.83787 0.0
C360 C 0.63985 0.66893 0.70778 0.0
O361 O 0.63954 0.64022 0.84031 0.0
C362 C 0.72899 0.70354 0.77169 0.0
O363 O 0.63485 0.60626 0.78192 0.0
O364 O 0.69264 0.6219 0.79425 0.0
O365 O 0.64491 0.70188 0.71838 0.0
O366 O 0.63136 0.64304 0.72781 0.0
C367 C 0.66814 0.7396 0.83 0.0
O368 O 0.7211 0.69061 0.80105 0.0
O369 O 0.70436 0.70164 0.74972 0.0
C370 C 0.66917 0.59793 0.78354 0.0
O371 O 0.66471 0.70637 0.84039 0.0
O372 O 0.67437 0.74615 0.79869 0.0
C373 C 0.58466 0.72366 0.76082 0.0
Fe374 Fe 0.62783 0.42648 0.06661 0.0
Fe375 Fe 0.57179 0.40828 1.01065 0.0
O376 O 0.61327 0.39777 0.03241 0.0
Fe377 Fe 0.64094 0.35988 0.01931 0.0
O378 O 0.63618 0.33853 0.06018 0.0
O379 O 0.65272 0.38769 0.08978 0.0
O380 O 0.58668 0.41367 0.09087 0.0
C381 C 0.5533 0.41738 0.08079 0.0
C382 C 0.69366 0.41654 0.03107 0.0
O383 O 0.54646 0.42392 0.04959 0.0
C384 C 0.62131 0.38769 0.95775 0.0
O385 O 0.60247 0.46969 0.05106 0.0
O386 O 0.59069 0.45281 0.99992 0.0
O387 O 0.6852 0.38223 0.03064 0.0
O388 O 0.67066 0.44028 0.04316 0.0
C389 C 0.56689 0.33362 0.01196 0.0
O390 O 0.58864 0.39332 0.96878 0.0
O391 O 0.64736 0.37873 0.97743 0.0
C392 C 0.58942 0.47763 0.02175 0.0
O393 O 0.55205 0.36405 0.01957 0.0
O394 O 0.60141 0.3311 1.00556 0.0
C395 C 0.64745 0.35243 0.0876 0.0
Fe396 Fe 0.86381 0.37634 0.31726 0.0
Fe397 Fe 0.88204 0.32175 0.26018 0.0
O398 O 0.89224 0.3629 0.28254 0.0
Fe399 Fe 0.92959 0.39133 0.26961 0.0
O400 O 0.9516 0.38575 0.31015 0.0
O401 O 0.90264 0.40103 0.34059 0.0
O402 O 0.87735 0.33487 0.34064 0.0
C403 C 0.87373 0.30168 0.33016 0.0
C404 C 0.87264 0.44351 0.28401 0.0
O405 O 0.86728 0.29529 0.29885 0.0
C406 C 0.90128 0.3728 0.20797 0.0
O407 O 0.82071 0.35092 0.3017 0.0
O408 O 0.83704 0.34017 0.25023 0.0
O409 O 0.90695 0.43518 0.28226 0.0
O410 O 0.84923 0.41956 0.29487 0.0
C411 C 0.95675 0.31776 0.26057 0.0
O412 O 0.89621 0.33983 0.2185 0.0
O413 O 0.91001 0.39858 0.22805 0.0
C414 C 0.81257 0.33816 0.27234 0.0
O415 O 0.92664 0.30247 0.26832 0.0
O416 O 0.95873 0.35243 0.25471 0.0
C417 C 0.93795 0.3962 0.33795 0.0
Fe418 Fe 0.89974 0.6807 0.51962 0.0
Fe419 Fe 0.91325 0.61426 0.567 0.0
O420 O 0.92757 0.64288 0.53267 0.0
Fe421 Fe 0.96894 0.6324 0.51074 0.0
O422 O 0.98853 0.67673 0.51947 0.0
O423 O 0.93902 0.70943 0.50544 0.0
O424 O 0.90492 0.70223 0.56037 0.0
C425 C 0.8939 0.68849 0.58794 0.0
C426 C 0.91895 0.65265 0.45807 0.0
O427 O 0.88857 0.65322 0.59026 0.0
C428 C 0.95172 0.56301 0.52212 0.0
O429 O 0.85565 0.65848 0.53144 0.0
O430 O 0.87023 0.60043 0.54373 0.0
O431 O 0.95171 0.64716 0.46895 0.0
O432 O 0.89299 0.66162 0.47784 0.0
C433 C 0.98788 0.62334 0.58081 0.0
O434 O 0.93858 0.57099 0.55141 0.0
O435 O 0.95021 0.58774 0.50021 0.0
C436 C 0.84718 0.62421 0.53176 0.0
O437 O 0.95456 0.62706 0.59105 0.0
O438 O 0.99458 0.61695 0.54956 0.0
C439 C 0.97352 0.70706 0.51182 0.0
Fe440 Fe 0.61065 0.3917 0.75207 0.0
Fe441 Fe 0.67757 0.37836 0.70519 0.0
O442 O 0.64859 0.36392 0.73924 0.0
Fe443 Fe 0.65877 0.3224 0.76106 0.0
O444 O 0.61453 0.30288 0.75179 0.0
O445 O 0.5817 0.35233 0.76574 0.0
O446 O 0.5896 0.38685 0.71109 0.0
C447 C 0.60371 0.39798 0.68372 0.0
C448 C 0.63795 0.37206 0.8138 0.0
O449 O 0.63898 0.40321 0.68172 0.0
C450 C 0.72831 0.33984 0.75042 0.0
O451 O 0.63309 0.43586 0.74074 0.0
O452 O 0.69122 0.42126 0.72869 0.0
O453 O 0.64354 0.33937 0.80279 0.0
O454 O 0.62923 0.39816 0.79408 0.0
C455 C 0.66837 0.30379 0.69104 0.0
O456 O 0.7206 0.35298 0.72108 0.0
O457 O 0.70332 0.34105 0.77211 0.0
C458 C 0.66738 0.4443 0.74057 0.0
O459 O 0.6649 0.33717 0.68089 0.0
O460 O 0.67465 0.29697 0.72229 0.0
C461 C 0.58411 0.31785 0.75923 0.0
Fe462 Fe 0.89929 0.36247 1.0024 0.0
Fe463 Fe 0.91453 0.42849 0.95507 0.0
O464 O 0.92786 0.39981 0.98965 0.0
Fe465 Fe 0.96913 0.40961 0.01199 0.0
O466 O 0.98809 0.36493 1.00355 0.0
O467 O 0.938 0.33306 0.01718 0.0
O468 O 0.90481 0.3407 0.96177 0.0
C469 C 0.89449 0.35458 0.93402 0.0
C470 C 0.91802 0.39031 0.06415 0.0
O471 O 0.88976 0.38991 0.93153 0.0
C472 C 0.95305 0.47928 1.00023 0.0
O473 O 0.85557 0.38528 0.98983 0.0
O474 O 0.87128 0.44304 0.97748 0.0
O475 O 0.951 0.39526 0.0536 0.0
O476 O 0.89215 0.38184 0.04407 0.0
C477 C 0.98918 0.41821 0.94209 0.0
O478 O 0.94011 0.47139 0.97087 0.0
O479 O 0.95109 0.45468 0.02224 0.0
C480 C 0.84726 0.41958 0.98815 0.0
O481 O 0.95595 0.41494 0.93161 0.0
O482 O 0.99563 0.42449 0.97341 0.0
C483 C 0.97263 0.33486 1.01115 0.0
Fe484 Fe 0.93102 0.64957 0.25262 0.0
Fe485 Fe 0.86452 0.66299 0.20528 0.0
O486 O 0.8932 0.67738 0.23955 0.0
Fe487 Fe 0.88278 0.71883 0.26139 0.0
O488 O 0.9271 0.73838 0.25256 0.0
O489 O 0.95982 0.68889 0.26663 0.0
O490 O 0.95247 0.65458 0.21184 0.0
C491 C 0.93863 0.64349 0.18433 0.0
C492 C 0.90306 0.66898 0.31416 0.0
O493 O 0.90337 0.63819 0.18207 0.0
C494 C 0.81338 0.70148 0.25015 0.0
O495 O 0.90873 0.60545 0.24097 0.0
O496 O 0.85067 0.62005 0.22865 0.0
O497 O 0.89761 0.70172 0.30322 0.0
O498 O 0.912 0.64297 0.29442 0.0
C499 C 0.87377 0.73759 0.19128 0.0
O500 O 0.82132 0.68838 0.22085 0.0
O501 O 0.83816 0.7001 0.27202 0.0
C502 C 0.87444 0.59701 0.24066 0.0
O503 O 0.87738 0.70422 0.18112 0.0
O504 O 0.86728 0.74436 0.2225 0.0
C505 C 0.95746 0.72338 0.26015 0.0
Fe506 Fe 0.64144 0.67948 0.50222 0.0
Fe507 Fe 0.62665 0.6133 0.45497 0.0
O508 O 0.61306 0.64203 0.48943 0.0
Fe509 Fe 0.57177 0.6321 0.51165 0.0
O510 O 0.55258 0.67666 0.50305 0.0
O511 O 0.60248 0.70878 0.51677 0.0
O512 O 0.63606 0.70112 0.46152 0.0
C513 C 0.64666 0.68721 0.43387 0.0
C514 C 0.62256 0.65175 0.56396 0.0
O515 O 0.65146 0.65188 0.43148 0.0
C516 C 0.58834 0.56248 0.50015 0.0
O517 O 0.68533 0.6567 0.48992 0.0
O518 O 0.66976 0.59888 0.47762 0.0
O519 O 0.58963 0.64667 0.55332 0.0
O520 O 0.64846 0.66025 0.54395 0.0
C521 C 0.55207 0.62325 0.44168 0.0
O522 O 0.60115 0.57036 0.47076 0.0
O523 O 0.59008 0.58718 0.52207 0.0
C524 C 0.69367 0.62237 0.48838 0.0
O525 O 0.58532 0.62668 0.43132 0.0
O526 O 0.54552 0.61697 0.47299 0.0
C527 C 0.56783 0.7068 0.51074 0.0
Fe528 Fe 0.38222 0.32271 0.26195 0.0
Fe529 Fe 0.36395 0.37723 0.20486 0.0
O530 O 0.39232 0.36391 0.23964 0.0
Fe531 Fe 0.42957 0.39244 0.2527 0.0
O532 O 0.45879 0.35361 0.26763 0.0
O533 O 0.42688 0.30359 0.25375 0.0
O534 O 0.36742 0.29622 0.22333 0.0
C535 C 0.37394 0.30256 0.19204 0.0
C536 C 0.40114 0.37373 0.31421 0.0
O537 O 0.37757 0.33574 0.18154 0.0
C538 C 0.37258 0.44452 0.238 0.0
O539 O 0.33719 0.34103 0.27194 0.0
O540 O 0.32086 0.35183 0.22044 0.0
O541 O 0.40981 0.3996 0.29421 0.0
O542 O 0.39639 0.34075 0.30362 0.0
C543 C 0.43812 0.39714 0.18436 0.0
O544 O 0.34926 0.4205 0.22711 0.0
O545 O 0.40688 0.43623 0.23998 0.0
C546 C 0.31269 0.33916 0.24984 0.0
O547 O 0.4028 0.40188 0.18157 0.0
O548 O 0.45171 0.38691 0.21226 0.0
C549 C 0.45694 0.31897 0.26153 0.0
Fe550 Fe 0.46941 0.63194 0.01122 0.0
Fe551 Fe 0.41458 0.61286 0.95461 0.0
O552 O 0.42801 0.64169 0.98904 0.0
Fe553 Fe 0.39945 0.67912 1.00179 0.0
O554 O 0.43823 0.70856 0.01619 0.0
O555 O 0.48827 0.67652 1.00242 0.0
O556 O 0.49572 0.61672 0.97262 0.0
C557 C 0.48917 0.62303 0.94132 0.0
C558 C 0.41869 0.65173 0.06357 0.0
O559 O 0.45589 0.62627 0.93094 0.0
C560 C 0.34744 0.62195 0.98794 0.0
O561 O 0.45143 0.58699 0.0218 0.0
O562 O 0.44024 0.57003 0.97053 0.0
O563 O 0.39263 0.66003 0.04361 0.0
O564 O 0.45158 0.64663 0.05283 0.0
C565 C 0.39422 0.68664 0.9334 0.0
O566 O 0.37146 0.59845 0.97722 0.0
O567 O 0.35568 0.65626 0.98958 0.0
C568 C 0.45316 0.56223 0.99992 0.0
O569 O 0.38963 0.65131 0.93104 0.0
O570 O 0.40464 0.70066 0.96105 0.0
C571 C 0.47283 0.70665 1.00999 0.0
Fe572 Fe 0.17726 0.66294 0.70511 0.0
Fe573 Fe 0.11072 0.64976 0.75236 0.0
O574 O 0.14855 0.67745 0.73933 0.0
Fe575 Fe 0.1589 0.71888 0.76116 0.0
O576 O 0.17448 0.74435 0.72231 0.0
O577 O 0.1645 0.70421 0.68092 0.0
O578 O 0.13838 0.63829 0.68184 0.0
C579 C 0.1031 0.64368 0.6841 0.0
C580 C 0.22836 0.70133 0.75007 0.0
O581 O 0.08929 0.65488 0.71158 0.0
C582 C 0.13856 0.66909 0.8139 0.0
O583 O 0.19104 0.61995 0.72851 0.0
O584 O 0.13296 0.60557 0.74067 0.0
O585 O 0.20353 0.7001 0.7719 0.0
O586 O 0.22046 0.6882 0.72077 0.0
C587 C 0.08425 0.72361 0.75992 0.0
O588 O 0.12974 0.64307 0.79416 0.0
O589 O 0.14399 0.70182 0.80296 0.0
C590 C 0.16723 0.59699 0.74045 0.0
O591 O 0.08194 0.68913 0.76643 0.0
O592 O 0.11457 0.73852 0.75221 0.0
C593 C 0.16815 0.73756 0.69107 0.0
Fe594 Fe 0.12742 0.42784 0.45583 0.0
Fe595 Fe 0.14103 0.36104 0.50272 0.0
O596 O 0.11309 0.39887 0.48992 0.0
Fe597 Fe 0.07158 0.40896 0.51178 0.0
O598 O 0.04598 0.42445 0.4729 0.0
O599 O 0.08631 0.41495 0.43155 0.0
O600 O 0.15239 0.38924 0.4324 0.0
C601 C 0.14715 0.35395 0.43439 0.0
C602 C 0.08847 0.47855 0.50085 0.0
O603 O 0.13602 0.33987 0.46179 0.0
C604 C 0.12162 0.38856 0.56447 0.0
O605 O 0.17031 0.44165 0.47936 0.0
O606 O 0.18504 0.38349 0.49113 0.0
O607 O 0.08994 0.45368 0.52263 0.0
O608 O 0.10178 0.47083 0.47157 0.0
C609 C 0.0674 0.33427 0.51024 0.0
O610 O 0.14761 0.37979 0.54464 0.0
O611 O 0.08884 0.39405 0.55359 0.0
C612 C 0.19342 0.41778 0.49114 0.0
O613 O 0.10189 0.33202 0.51666 0.0
O614 O 0.05227 0.36459 0.50277 0.0
C615 C 0.05289 0.41818 0.44165 0.0
Fe616 Fe 0.43075 0.65074 0.26927 0.0
Fe617 Fe 0.38252 0.71998 0.26014 0.0
O618 O 0.39282 0.67853 0.28206 0.0
Fe619 Fe 0.3639 0.6641 0.31616 0.0
O620 O 0.4025 0.63916 0.33957 0.0
O621 O 0.45186 0.6557 0.31027 0.0
O622 O 0.45967 0.69006 0.25543 0.0
C623 C 0.45721 0.72462 0.26163 0.0
C624 C 0.37401 0.59818 0.28082 0.0
O625 O 0.4268 0.73959 0.26904 0.0
C626 C 0.31304 0.70284 0.2712 0.0
O627 O 0.41211 0.64413 0.22732 0.0
O628 O 0.39743 0.70279 0.21832 0.0
O629 O 0.35015 0.62124 0.29265 0.0
O630 O 0.40831 0.60661 0.28072 0.0
C631 C 0.37333 0.73863 0.33028 0.0
O632 O 0.33788 0.70132 0.2494 0.0
O633 O 0.32084 0.68963 0.30048 0.0
C634 C 0.40315 0.67004 0.20747 0.0
O635 O 0.367 0.74551 0.29904 0.0
O636 O 0.37672 0.70524 0.34041 0.0
C637 C 0.43778 0.64446 0.33762 0.0
Fe638 Fe 0.14101 0.6811 0.01928 0.0
Fe639 Fe 0.07203 0.63269 1.01049 0.0
O640 O 0.11342 0.64322 0.03234 0.0
Fe641 Fe 0.12802 0.61455 0.06658 0.0
O642 O 0.1527 0.65345 0.08978 0.0
O643 O 0.13595 0.70252 0.06009 0.0
O644 O 0.10148 0.70981 1.00528 0.0
C645 C 0.06695 0.70735 0.01159 0.0
C646 C 0.19388 0.62456 0.03117 0.0
O647 O 0.05217 0.67696 0.0193 0.0
C648 C 0.0897 0.56332 0.02173 0.0
O649 O 0.14768 0.66213 0.97748 0.0
O650 O 0.08903 0.64754 0.96866 0.0
O651 O 0.17095 0.60077 0.04317 0.0
O652 O 0.18529 0.65885 0.03085 0.0
C653 C 0.05344 0.62353 0.08062 0.0
O654 O 0.09102 0.5881 0.99987 0.0
O655 O 0.1028 0.57129 0.05102 0.0
C656 C 0.12174 0.65314 0.95773 0.0
O657 O 0.04664 0.61714 0.04939 0.0
O658 O 0.08678 0.6273 0.09076 0.0
C659 C 0.14728 0.68872 0.08754 0.0
Fe660 Fe 0.17794 0.37646 0.81736 0.0
Fe661 Fe 0.11169 0.39138 0.77014 0.0
O662 O 0.14919 0.36293 0.78291 0.0
Fe663 Fe 0.15915 0.3216 0.7607 0.0
O664 O 0.17435 0.29535 0.79933 0.0
O665 O 0.16461 0.33515 0.84101 0.0
O666 O 0.13939 0.40137 0.84089 0.0
C667 C 0.10406 0.39668 0.83852 0.0
C668 C 0.22876 0.33799 0.77217 0.0
O669 O 0.09012 0.38612 0.81088 0.0
C670 C 0.13928 0.37232 0.70837 0.0
O671 O 0.19231 0.41953 0.79471 0.0
O672 O 0.13449 0.43524 0.78236 0.0
O673 O 0.20404 0.33982 0.75025 0.0
O674 O 0.22087 0.35087 0.80155 0.0
C675 C 0.08445 0.3178 0.76169 0.0
O676 O 0.1308 0.39829 0.72835 0.0
O677 O 0.14451 0.33943 0.71906 0.0
C678 C 0.16881 0.4435 0.78393 0.0
O679 O 0.0824 0.35245 0.75568 0.0
O680 O 0.11463 0.3025 0.76934 0.0
C681 C 0.16807 0.3019 0.83063 0.0
Fe682 Fe 0.46872 0.40903 0.51026 0.0
Fe683 Fe 0.41421 0.427 0.56743 0.0
O684 O 0.42765 0.39867 0.53264 0.0
Fe685 Fe 0.39928 0.36129 0.51963 0.0
O686 O 0.4383 0.33224 0.50472 0.0
O687 O 0.48818 0.36448 0.51836 0.0
O688 O 0.49516 0.42391 0.54886 0.0
C689 C 0.48889 0.41741 0.58017 0.0
C690 C 0.41775 0.38982 0.45807 0.0
O691 O 0.45576 0.41355 0.59072 0.0
C692 C 0.34703 0.4182 0.5342 0.0
O693 O 0.45007 0.45395 0.50035 0.0
O694 O 0.43945 0.4702 0.55187 0.0
O695 O 0.39199 0.38095 0.4781 0.0
O696 O 0.45071 0.39481 0.4686 0.0
C697 C 0.39452 0.35275 0.58798 0.0
O698 O 0.37096 0.44156 0.54514 0.0
O699 O 0.35537 0.38388 0.53231 0.0
C700 C 0.452 0.47844 0.52246 0.0
O701 O 0.38967 0.38806 0.59073 0.0
O702 O 0.4049 0.3392 0.56012 0.0
C703 C 0.47299 0.33432 0.51058 0.0
C704 C 0.1997 0.04608 0.24949 0.0
C705 C 0.17844 0.0576 0.27781 0.0
H706 H 0.21375 1.00089 0.21529 0.0
C707 C 0.15867 0.0302 0.29573 0.0
H708 H 0.21444 0.06662 0.23451 0.0
C709 C 0.1581 0.99306 0.28474 0.0
C710 C 0.17716 0.98165 0.25524 0.0
H711 H 0.14152 0.03801 0.31722 0.0
H712 H 0.14076 0.9735 0.29846 0.0
C713 C 0.1992 1.00839 0.23837 0.0
C714 C 0.29603 0.94939 0.52268 0.0
C715 C 0.30762 0.92838 0.49422 0.0
H716 H 0.25078 0.9631 0.55692 0.0
C717 C 0.28026 0.90872 0.47613 0.0
H718 H 0.31654 0.964 0.53781 0.0
C719 C 0.24311 0.90802 0.48707 0.0
C720 C 0.23163 0.92682 0.51669 0.0
H721 H 0.28812 0.89175 0.45453 0.0
H722 H 0.22359 0.89077 0.47321 0.0
C723 C 0.25833 0.94876 0.53375 0.0
C724 C 0.3423 0.03274 0.73835 0.0
C725 C 0.36421 0.05939 0.75549 0.0
H726 H 0.32709 0.97454 0.73413 0.0
C727 C 0.38297 0.04785 0.78511 0.0
H728 H 0.32798 0.04036 0.71518 0.0
C729 C 0.38226 1.01066 0.79596 0.0
C730 C 0.36264 0.98335 0.77778 0.0
H731 H 0.40019 0.06734 0.79903 0.0
H732 H 0.39921 1.00274 0.81756 0.0
C733 C 0.34167 0.99501 0.74932 0.0
C734 C 0.27933 0.13233 0.04625 0.0
C735 C 0.30667 0.11245 0.02827 0.0
H736 H 0.22266 0.15047 0.0491 0.0
C737 C 0.29505 0.09122 0.99998 0.0
H738 H 0.28721 0.14946 0.06772 0.0
C739 C 0.25733 0.09185 0.98895 0.0
C740 C 0.23066 0.11402 1.00587 0.0
H741 H 0.31554 0.07641 0.98494 0.0
H742 H 0.24975 0.07732 0.96589 0.0
C743 C 0.24217 0.13304 0.03534 0.0
C744 C 0.88307 0.99341 0.78472 0.0
C745 C 0.86439 0.98205 0.75502 0.0
H746 H 0.8993 0.03832 0.81734 0.0
C747 C 0.84261 1.00887 0.73787 0.0
H748 H 0.90021 0.97379 0.79864 0.0
C749 C 0.84203 0.04657 0.74895 0.0
C750 C 0.86292 0.05803 0.77751 0.0
H751 H 0.82838 1.00141 0.71463 0.0
H752 H 0.82754 0.06716 0.73378 0.0
C753 C 0.88241 0.03056 0.79567 0.0
C754 C 0.79875 0.13303 0.53478 0.0
C755 C 0.81018 0.11383 0.50536 0.0
H756 H 0.75375 0.15005 0.56702 0.0
C757 C 0.78335 0.09197 0.48838 0.0
H758 H 0.81835 0.15026 0.54856 0.0
C759 C 0.74561 0.09177 0.49935 0.0
C760 C 0.7341 0.1132 0.52757 0.0
H761 H 0.79086 0.07735 0.46534 0.0
H762 H 0.72504 0.07713 0.48431 0.0
C763 C 0.76154 0.1328 0.54558 0.0
C764 C 0.69933 0.03341 0.23857 0.0
C765 C 0.67702 0.05996 0.25549 0.0
H766 H 0.71509 0.97528 0.23455 0.0
C767 C 0.65812 0.04838 0.28499 0.0
H768 H 0.7138 0.04107 0.2155 0.0
C769 C 0.65911 1.01123 0.29594 0.0
C770 C 0.67912 0.98398 0.27795 0.0
H771 H 0.64062 0.06781 0.29876 0.0
H772 H 0.64207 1.00328 0.31744 0.0
C773 C 0.70021 0.9957 0.24961 0.0
C774 C 0.79509 0.9498 0.99993 0.0
C775 C 0.80669 0.92865 0.02829 0.0
H776 H 0.74983 0.96363 0.96573 0.0
C777 C 0.77935 0.90883 0.04627 0.0
H778 H 0.81557 0.96453 0.98489 0.0
C779 C 0.74222 0.90811 0.03529 0.0
C780 C 0.73074 0.92706 1.00575 0.0
H781 H 0.78723 0.89174 0.06778 0.0
H782 H 0.72272 0.89074 0.04904 0.0
C783 C 0.75739 0.94916 0.98883 0.0
C784 C 0.70006 0.5461 0.74915 0.0
C785 C 0.67896 0.55781 0.77751 0.0
H786 H 0.71377 0.50073 0.71503 0.0
C787 C 0.65913 0.53054 0.79556 0.0
H788 H 0.71481 0.56653 0.73406 0.0
C789 C 0.65832 0.49338 0.78466 0.0
C790 C 0.67721 0.4818 0.75513 0.0
H791 H 0.6421 0.5385 0.81709 0.0
H792 H 0.64095 0.47394 0.79848 0.0
C793 C 0.69933 0.50838 0.73813 0.0
C794 C 0.79524 0.45001 0.02261 0.0
C795 C 0.80708 0.42927 0.99409 0.0
H796 H 0.74981 0.46309 0.05685 0.0
C797 C 0.77995 0.40932 0.97595 0.0
H798 H 0.81557 0.46481 0.0378 0.0
C799 C 0.74283 0.40803 0.98693 0.0
C800 C 0.73115 0.42659 0.01659 0.0
H801 H 0.78802 0.3925 0.95432 0.0
H802 H 0.72351 0.39058 0.97304 0.0
C803 C 0.75755 0.44887 0.03367 0.0
C804 C 0.84187 0.49518 0.24935 0.0
C805 C 0.86278 0.4836 0.27787 0.0
H806 H 0.82831 0.5404 0.21502 0.0
C807 C 0.88245 0.51096 0.29596 0.0
H808 H 0.82726 0.47468 0.23421 0.0
C809 C 0.88326 0.54809 0.28496 0.0
C810 C 0.86455 0.55955 0.25529 0.0
H811 H 0.89936 0.5031 0.3176 0.0
H812 H 0.90051 0.5676 0.29882 0.0
C813 C 0.84259 0.53287 0.23823 0.0
C814 C 0.76111 0.63226 0.47651 0.0
C815 C 0.73377 0.61257 0.49458 0.0
H816 H 0.81773 0.65034 0.47365 0.0
C817 C 0.74536 0.59162 0.52308 0.0
H818 H 0.75324 0.64918 0.45488 0.0
C819 C 0.78305 0.59235 0.5342 0.0
C820 C 0.80971 0.61433 0.51715 0.0
H821 H 0.72486 0.57698 0.53819 0.0
H822 H 0.7906 0.57804 0.55738 0.0
C823 C 0.79823 0.63306 0.4875 0.0
C824 C 0.34156 0.49631 0.27231 0.0
C825 C 0.36265 0.48463 0.24395 0.0
H826 H 0.32777 0.54167 0.30641 0.0
C827 C 0.38239 0.51192 0.22585 0.0
H828 H 0.32688 0.47586 0.28744 0.0
C829 C 0.38311 0.5491 0.23672 0.0
C830 C 0.36421 0.56067 0.26625 0.0
H831 H 0.39944 0.50398 0.20433 0.0
H832 H 0.40043 0.56857 0.22288 0.0
C833 C 0.34219 0.53405 0.2833 0.0
C834 C 0.29563 0.59134 0.02246 0.0
C835 C 0.30732 0.61226 0.99401 0.0
H836 H 0.25033 0.57799 0.05671 0.0
C837 C 0.28005 0.63223 0.97599 0.0
H838 H 0.31606 0.57651 0.03754 0.0
C839 C 0.24294 0.63335 0.98701 0.0
C840 C 0.2314 0.61462 0.01661 0.0
H841 H 0.28799 0.64916 0.95441 0.0
H842 H 0.22351 0.65082 0.9732 0.0
C843 C 0.25795 0.59234 0.03357 0.0
C844 C 0.19906 0.53273 0.73815 0.0
C845 C 0.17704 0.55949 0.75511 0.0
H846 H 0.21439 0.47449 0.73423 0.0
C847 C 0.15817 0.54811 0.7847 0.0
H848 H 0.21346 0.54022 0.71501 0.0
C849 C 0.15889 0.51098 0.7957 0.0
C850 C 0.17862 0.48355 0.7777 0.0
H851 H 0.14086 0.56769 0.79849 0.0
H852 H 0.14187 0.5032 0.81728 0.0
C853 C 0.1997 0.49504 0.74928 0.0
C854 C 0.24232 0.40843 0.53533 0.0
C855 C 0.23092 0.42747 0.5058 0.0
H856 H 0.2873 0.39159 0.56768 0.0
C857 C 0.25775 0.44922 0.48875 0.0
H858 H 0.2227 0.39128 0.54916 0.0
C859 C 0.29549 0.44947 0.49974 0.0
C860 C 0.30697 0.42822 0.52808 0.0
H861 H 0.25026 0.46369 0.46563 0.0
H862 H 0.31607 0.46401 0.48464 0.0
C863 C 0.27952 0.40872 0.54616 0.0
C864 C 0.27917 0.28211 0.22779 0.0
C865 C 0.28696 0.30671 0.25457 0.0
H866 H 0.25686 0.22923 0.21274 0.0
C867 C 0.27803 0.295 0.28789 0.0
H868 H 0.28664 0.28934 0.202 0.0
C869 C 0.26208 0.25992 0.29427 0.0
C870 C 0.25426 0.23533 0.26749 0.0
H871 H 0.28432 0.31282 0.30932 0.0
H872 H 0.25461 0.2527 0.32006 0.0
C873 C 0.26318 0.24704 0.23417 0.0
C874 C 0.99768 0.02834 0.53854 0.0
C875 C 0.98527 0.03681 0.50531 0.0
H876 H 0.04061 1.00514 0.57029 0.0
C877 C 1.00933 0.02852 0.47824 0.0
H878 H 0.9803 0.03502 0.56018 0.0
C879 C 0.04453 1.01251 0.48424 0.0
C880 C 0.05693 1.00398 0.51746 0.0
H881 H 1.00159 0.03563 0.45248 0.0
H882 H 0.0619 1.00586 0.46258 0.0
C883 C 0.03288 1.01228 0.54453 0.0
C884 C 0.27913 0.78077 0.79413 0.0
C885 C 0.28715 0.8051 0.76721 0.0
H886 H 0.25658 0.72809 0.80949 0.0
C887 C 0.27846 0.79305 0.73394 0.0
H888 H 0.28642 0.78824 0.81991 0.0
C889 C 0.26243 0.75794 0.72775 0.0
C890 C 0.25433 0.73364 0.75467 0.0
H891 H 0.28491 0.81064 0.71239 0.0
H892 H 0.2551 0.75049 0.70197 0.0
C893 C 0.2631 0.74566 0.78794 0.0
C894 C 0.50909 0.02857 0.04478 0.0
C895 C 0.48481 0.03667 0.01782 0.0
H896 H 0.56183 1.00605 0.06017 0.0
C897 C 0.49692 0.02808 0.98455 0.0
H898 H 0.50155 0.03578 0.07056 0.0
C899 C 0.5321 1.01215 0.97838 0.0
C900 C 0.55636 1.00402 1.00534 0.0
H901 H 0.47934 0.03461 0.96299 0.0
H902 H 0.53964 1.00494 0.9526 0.0
C903 C 0.54426 1.01262 0.03861 0.0
C904 C 0.26289 0.78314 0.22754 0.0
C905 C 0.25449 0.8071 0.25466 0.0
H906 H 0.28566 0.73064 0.2118 0.0
C907 C 0.26293 0.79463 0.28787 0.0
H908 H 0.25582 0.79095 0.20179 0.0
C909 C 0.27897 0.75943 0.29381 0.0
C910 C 0.28734 0.73547 0.26669 0.0
H911 H 0.25619 0.81193 0.30955 0.0
H912 H 0.28602 0.75162 0.31956 0.0
C913 C 0.27894 0.74795 0.23348 0.0
C914 C 0.50984 1.01221 0.47788 0.0
C915 C 0.48533 1.00432 0.50469 0.0
H916 H 0.56264 0.03462 0.46276 0.0
C917 C 0.49711 1.0132 0.538 0.0
H918 H 0.50257 1.00478 0.45209 0.0
C919 C 0.53216 0.02924 0.54434 0.0
C920 C 0.55665 0.03715 0.51752 0.0
H921 H 0.47936 1.00682 0.55946 0.0
H922 H 0.53943 0.03669 0.57013 0.0
C923 C 0.5449 0.02824 0.48422 0.0
C924 C 0.26296 0.29322 0.73424 0.0
C925 C 0.25438 0.30537 0.7675 0.0
H926 H 0.28618 0.25049 0.70233 0.0
C927 C 0.26248 0.28111 0.79447 0.0
H928 H 0.25642 0.31077 0.71267 0.0
C929 C 0.27844 0.24594 0.78833 0.0
C930 C 0.28708 0.23381 0.75508 0.0
H931 H 0.25528 0.28868 0.82025 0.0
H932 H 0.285 0.2284 0.80991 0.0
C933 C 0.27894 0.25804 0.7281 0.0
C934 C 0.99689 1.01302 0.98479 0.0
C935 C 0.98478 1.00435 0.01805 0.0
H936 H 0.03952 0.03627 0.95288 0.0
C937 C 1.00906 1.0124 0.04501 0.0
H938 H 0.97933 1.00656 0.96321 0.0
C939 C 0.04417 0.02843 0.03887 0.0
C940 C 0.05626 0.0371 1.00561 0.0
H941 H 1.00154 1.00514 0.07078 0.0
H942 H 0.06171 0.03497 0.06043 0.0
C943 C 0.03202 0.02899 0.97865 0.0
C944 C 0.76256 0.76048 0.79398 0.0
C945 C 0.75457 0.73617 0.76704 0.0
H946 H 0.78495 0.8132 0.80938 0.0
C947 C 0.76322 0.74827 0.73377 0.0
H948 H 0.7553 0.75297 0.81975 0.0
C949 C 0.77918 0.78343 0.72761 0.0
C950 C 0.78722 0.80772 0.75456 0.0
H951 H 0.75678 0.73069 0.71221 0.0
H952 H 0.78648 0.79093 0.70185 0.0
C953 C 0.77849 0.79564 0.78782 0.0
C954 C 0.7629 0.24615 0.2885 0.0
C955 C 0.75422 0.23407 0.25524 0.0
H956 H 0.78616 0.28879 0.32044 0.0
C957 C 0.76236 0.25831 0.22829 0.0
H958 H 0.75635 0.22862 0.31007 0.0
C959 C 0.77834 0.29344 0.23445 0.0
C960 C 0.78698 0.30555 0.26771 0.0
H961 H 0.7551 0.2508 0.20251 0.0
H962 H 0.78482 0.31099 0.21288 0.0
C963 C 0.77892 0.28127 0.29467 0.0
C964 C 0.77859 0.2482 0.73427 0.0
C965 C 0.78721 0.2361 0.76754 0.0
H966 H 0.75529 0.29084 0.70232 0.0
C967 C 0.77908 0.26037 0.79449 0.0
H968 H 0.78513 0.23063 0.71271 0.0
C969 C 0.763 0.29549 0.78833 0.0
C970 C 0.75434 0.30757 0.75506 0.0
H971 H 0.78631 0.25284 0.82027 0.0
H972 H 0.75637 0.31303 0.80988 0.0
C973 C 0.76255 0.28333 0.7281 0.0
C974 C 0.77931 0.75816 0.22777 0.0
C975 C 0.78742 0.73387 0.25472 0.0
H976 H 0.75678 0.81091 0.21239 0.0
C977 C 0.7787 0.74593 0.28798 0.0
H978 H 0.78661 0.75066 0.202 0.0
C979 C 0.7627 0.78109 0.29415 0.0
C980 C 0.75465 0.80541 0.26721 0.0
H981 H 0.78522 0.72836 0.30953 0.0
H982 H 0.75545 0.7886 0.31993 0.0
C983 C 0.76329 0.79332 0.23394 0.0
C984 C 0.54512 0.51241 0.9839 0.0
C985 C 0.55714 0.50367 0.01717 0.0
H986 H 0.50251 0.5357 0.95192 0.0
C987 C 0.53286 0.51182 0.0441 0.0
H988 H 0.5627 0.50585 0.96235 0.0
C989 C 0.49773 0.52787 0.03791 0.0
C990 C 0.48568 0.53651 1.00463 0.0
H991 H 0.54034 0.50451 0.06988 0.0
H992 H 0.48014 0.53441 0.05944 0.0
C993 C 0.51 0.52843 0.9777 0.0
C994 C 0.04356 0.51284 0.53863 0.0
C995 C 0.05588 0.5043 0.5054 0.0
H996 H 1.00071 0.53609 0.57043 0.0
C997 C 0.03175 0.51255 0.47836 0.0
H998 H 0.06098 0.5062 0.56026 0.0
C999 C 0.99657 0.52859 0.48439 0.0
C1000 C 0.98426 0.53717 0.51762 0.0
H1001 H 0.03942 0.50538 0.4526 0.0
H1002 H 0.97915 0.53522 0.46276 0.0
C1003 C 1.00838 0.52891 0.54467 0.0
C1004 C 0.0451 0.52881 0.98396 0.0
C1005 C 0.05728 0.53746 0.0172 0.0
H1006 H 1.00235 0.50566 0.95209 0.0
C1007 C 0.03309 0.52933 0.0442 0.0
H1008 H 0.06259 0.53533 0.96237 0.0
C1009 C 0.99793 0.51338 0.0381 0.0
C1010 C 0.98572 0.50481 1.00485 0.0
H1011 H 0.04068 0.53657 0.06996 0.0
H1012 H 0.98043 0.50689 0.05969 0.0
C1013 C 1.00994 0.51286 0.97786 0.0
C1014 C 0.54412 0.52793 0.53822 0.0
C1015 C 0.55592 0.53672 0.5049 0.0
H1016 H 0.50171 0.50463 0.57035 0.0
C1017 C 0.53141 0.52884 0.47809 0.0
H1018 H 0.56187 0.53431 0.55968 0.0
C1019 C 0.4963 0.51293 0.48442 0.0
C1020 C 0.4845 0.50412 0.51773 0.0
H1021 H 0.53871 0.53622 0.45229 0.0
H1022 H 0.47854 0.50659 0.46296 0.0
C1023 C 0.50901 0.512 0.54455 0.0
C1024 C 0.16274 0.30837 0.34692 0.0
C1025 C 0.16625 0.27041 0.35611 0.0
H1026 H 0.15404 0.36503 0.36414 0.0
C1027 C 0.16657 0.26159 0.3908 0.0
H1028 H 0.16242 0.31629 0.32042 0.0
C1029 C 0.16207 0.28914 0.41543 0.0
C1030 C 0.15685 0.32691 0.40664 0.0
H1031 H 0.16961 0.23299 0.39918 0.0
H1032 H 0.16189 0.2804 0.44173 0.0
C1033 C 0.15806 0.33637 0.37196 0.0
C1034 C 0.03166 0.91448 0.641 0.0
C1035 C 0.02269 0.91612 0.60637 0.0
H1036 H 1.01292 0.90833 0.6918 0.0
C1037 C 0.98458 0.91435 0.59725 0.0
H1038 H 0.06038 0.91603 0.64935 0.0
C1039 C 0.95652 0.90969 0.62222 0.0
C1040 C 0.96605 0.9067 0.6568 0.0
H1041 H 0.97652 0.91554 0.5708 0.0
H1042 H 0.9277 0.90723 0.61439 0.0
C1043 C 1.00405 0.90997 0.66558 0.0
C1044 C 0.37902 0.73237 0.84596 0.0
C1045 C 0.37528 0.77028 0.85522 0.0
H1046 H 0.38788 0.67571 0.8631 0.0
C1047 C 0.37474 0.77903 0.88992 0.0
H1048 H 0.37951 0.72452 0.81944 0.0
C1049 C 0.37923 0.75144 0.91451 0.0
C1050 C 0.38468 0.71373 0.90566 0.0
H1051 H 0.3715 0.80759 0.89836 0.0
H1052 H 0.37921 0.76012 0.94083 0.0
C1053 C 0.38371 0.70433 0.87095 0.0
C1054 C 0.58564 0.13272 0.12189 0.0
C1055 C 0.57624 0.13432 0.15657 0.0
H1056 H 0.56545 0.12795 0.07042 0.0
C1057 C 0.53848 0.12938 0.16546 0.0
H1058 H 0.61429 0.1365 0.114 0.0
C1059 C 0.51087 0.12477 0.1409 0.0
C1060 C 0.51962 0.12469 0.1062 0.0
H1061 H 0.52979 0.12986 0.19177 0.0
H1062 H 0.48228 0.12195 0.14935 0.0
C1063 C 0.55758 0.12793 0.09693 0.0
C1064 C 0.1608 0.75398 0.10623 0.0
C1065 C 0.1569 0.71606 0.1151 0.0
H1066 H 0.16759 0.81028 0.12236 0.0
C1067 C 0.15959 0.7066 0.1497 0.0
H1068 H 0.15942 0.76277 0.07997 0.0
C1069 C 0.16452 0.73467 0.17462 0.0
C1070 C 0.16686 0.77272 0.16542 0.0
H1071 H 0.15664 0.67785 0.15759 0.0
H1072 H 0.16542 0.72668 0.2011 0.0
C1073 C 0.16558 0.7816 0.13077 0.0
C1074 C 0.55859 0.91257 0.42572 0.0
C1075 C 0.52065 0.91604 0.41644 0.0
H1076 H 0.61531 0.90392 0.40864 0.0
C1077 C 0.51192 0.91621 0.38173 0.0
H1078 H 0.56645 0.91236 0.45224 0.0
C1079 C 0.53954 0.91166 0.35717 0.0
C1080 C 0.5773 0.90654 0.36604 0.0
H1081 H 0.48334 0.9192 0.37327 0.0
H1082 H 0.53084 0.91141 0.33085 0.0
C1083 C 0.58667 0.90784 0.40075 0.0
C1084 C 0.38182 0.33464 0.65011 0.0
C1085 C 0.3855 0.32516 0.61556 0.0
H1086 H 0.37506 0.31461 0.70143 0.0
C1087 C 0.38271 0.28712 0.60677 0.0
H1088 H 0.38386 0.36348 0.65797 0.0
C1089 C 0.37786 0.25947 0.63129 0.0
C1090 C 0.37542 0.26842 0.66589 0.0
H1091 H 0.38492 0.27823 0.58059 0.0
H1092 H 0.37666 0.23074 0.62291 0.0
C1093 C 0.37684 0.30655 0.67501 0.0
C1094 C 0.95576 0.13263 0.9002 0.0
C1095 C 0.96531 0.13539 0.86561 0.0
H1096 H 0.97568 0.12657 0.95162 0.0
C1097 C 1.00325 0.13143 0.85684 0.0
H1098 H 0.92698 0.1356 0.90802 0.0
C1099 C 0.0308 0.12647 0.88143 0.0
C1100 C 0.02182 0.12508 0.91606 0.0
H1101 H 1.01213 0.13285 0.83061 0.0
H1102 H 0.05949 0.1244 0.87308 0.0
C1103 C 0.98375 0.12753 0.92517 0.0
C1104 C 0.88202 0.70653 0.65019 0.0
C1105 C 0.88459 0.71593 0.61555 0.0
H1106 H 0.8765 0.72671 0.70159 0.0
C1107 C 0.88085 0.75388 0.60669 0.0
H1108 H 0.88484 0.67776 0.65809 0.0
C1109 C 0.87634 0.78157 0.63123 0.0
C1110 C 0.87516 0.77274 0.6659 0.0
H1111 H 0.88215 0.76265 0.58043 0.0
H1112 H 0.87444 0.81025 0.6228 0.0
C1113 C 0.87734 0.73467 0.67511 0.0
C1114 C 1.01053 0.12609 0.38138 0.0
C1115 C 1.01937 0.1247 0.41604 0.0
H1116 H 0.02937 0.13251 0.33063 0.0
C1117 C 0.0574 0.12722 0.42529 0.0
H1118 H 0.98188 0.12398 0.37293 0.0
C1119 C 0.08547 0.13237 0.40042 0.0
C1120 C 0.07605 0.13512 0.3658 0.0
H1121 H 0.06537 0.12626 0.45177 0.0
H1122 H 0.1142 0.13539 0.40835 0.0
C1123 C 0.03816 0.13109 0.35689 0.0
C1124 C 0.66147 0.28734 0.10647 0.0
C1125 C 0.6571 0.32523 0.11524 0.0
H1126 H 0.66849 0.23112 0.12278 0.0
C1127 C 0.65924 0.3348 0.14986 0.0
H1128 H 0.66054 0.27851 0.08021 0.0
C1129 C 0.66405 0.30683 0.17488 0.0
C1130 C 0.66679 0.26878 0.16576 0.0
H1131 H 0.6559 0.36355 0.15766 0.0
H1132 H 0.66448 0.31487 0.20135 0.0
C1133 C 0.66612 0.2598 0.13111 0.0
C1134 C 0.50334 0.90875 0.85658 0.0
C1135 C 0.46535 0.90537 0.86535 0.0
H1136 H 0.55963 0.91544 0.87277 0.0
C1137 C 0.45582 0.9087 0.89991 0.0
H1138 H 0.51225 0.90684 0.83038 0.0
C1139 C 0.48385 0.91388 0.92485 0.0
C1140 C 0.52195 0.91586 0.91574 0.0
H1141 H 0.42702 0.9062 0.90776 0.0
H1142 H 0.47577 0.91535 0.95128 0.0
C1143 C 0.53092 0.9138 0.88113 0.0
C1144 C 0.88074 0.28948 0.91513 0.0
C1145 C 0.8852 0.32732 0.90631 0.0
H1146 H 0.87365 0.23327 0.89896 0.0
C1147 C 0.88324 0.33679 0.87164 0.0
H1148 H 0.88152 0.28069 0.94141 0.0
C1149 C 0.87847 0.30876 0.84666 0.0
C1150 C 0.87559 0.27075 0.85586 0.0
H1151 H 0.88662 0.3655 0.86379 0.0
H1152 H 0.87813 0.31671 0.82016 0.0
C1153 C 0.87614 0.2619 0.89054 0.0
C1154 C 0.53043 0.1249 0.64074 0.0
C1155 C 0.52151 0.12504 0.60606 0.0
H1156 H 0.5117 0.1295 0.6917 0.0
C1157 C 0.4835 0.12814 0.59694 0.0
H1158 H 0.55908 0.12217 0.64907 0.0
C1159 C 0.45552 0.13259 0.62201 0.0
C1160 C 0.46507 0.13396 0.65667 0.0
H1161 H 0.47551 0.12831 0.57045 0.0
H1162 H 0.42681 0.13628 0.61424 0.0
C1163 C 0.5029 0.12916 0.66541 0.0
C1164 C 0.66578 0.77982 0.39056 0.0
C1165 C 0.66633 0.77101 0.35586 0.0
H1166 H 0.66016 0.76099 0.44139 0.0
C1167 C 0.66323 0.73304 0.34661 0.0
H1168 H 0.66842 0.80842 0.39901 0.0
C1169 C 0.65823 0.705 0.37155 0.0
C1170 C 0.65625 0.71443 0.40622 0.0
H1171 H 0.66357 0.72512 0.32011 0.0
H1172 H 0.65468 0.67632 0.36366 0.0
C1173 C 0.66094 0.75223 0.4151 0.0
C1174 C 0.08593 0.90837 0.1214 0.0
C1175 C 0.07659 0.90724 0.15612 0.0
H1176 H 0.06562 0.9125 0.06992 0.0
C1177 C 0.03885 0.91237 0.16501 0.0
H1178 H 0.11456 0.90442 0.11351 0.0
C1179 C 1.01118 0.91668 0.14046 0.0
C1180 C 1.01987 0.91627 0.10575 0.0
H1181 H 0.03021 0.91226 0.19135 0.0
H1182 H 0.98261 0.91966 0.14893 0.0
C1183 C 0.05781 0.91287 0.09645 0.0
C1184 C 0.6629 0.80852 0.8465 0.0
C1185 C 0.66669 0.77057 0.85558 0.0
H1186 H 0.65384 0.86505 0.86391 0.0
C1187 C 0.66715 0.76162 0.89025 0.0
H1188 H 0.66246 0.81653 0.82002 0.0
C1189 C 0.66249 0.78904 0.91497 0.0
C1190 C 0.65697 0.82678 0.90628 0.0
H1191 H 0.67042 0.73302 0.89856 0.0
H1192 H 0.66241 0.78023 0.94126 0.0
C1193 C 0.65808 0.83639 0.87163 0.0
C1194 C 0.53133 0.41368 0.14104 0.0
C1195 C 0.52238 0.41562 0.10643 0.0
H1196 H 0.51255 0.40725 0.19179 0.0
C1197 C 0.48427 0.41401 0.09727 0.0
H1198 H 0.56005 0.41507 0.14941 0.0
C1199 C 0.45618 0.40927 0.12219 0.0
C1200 C 0.46566 0.40606 0.15677 0.0
H1201 H 0.47623 0.41542 0.07083 0.0
H1202 H 0.42736 0.40702 0.11433 0.0
C1203 C 0.50368 0.40909 0.16558 0.0
C1204 C 0.88341 0.20462 0.37149 0.0
C1205 C 0.88453 0.21408 0.40618 0.0
H1206 H 0.87912 0.22472 0.31994 0.0
C1207 C 0.87921 0.25183 0.41497 0.0
H1208 H 0.88749 0.17597 0.36368 0.0
C1209 C 0.87471 0.27938 0.39034 0.0
C1210 C 0.87513 0.27058 0.35564 0.0
H1211 H 0.87931 0.26056 0.44128 0.0
H1212 H 0.87159 0.30797 0.39874 0.0
C1213 C 0.87872 0.23263 0.34645 0.0
C1214 C 1.01017 0.62554 0.64101 0.0
C1215 C 1.01892 0.62481 0.60633 0.0
H1216 H 0.0292 0.63098 0.6918 0.0
C1217 C 0.05692 0.62734 0.59702 0.0
H1218 H 0.98153 0.62331 0.64948 0.0
C1219 C 0.08507 0.63201 0.62189 0.0
C1220 C 0.07574 0.63419 0.65655 0.0
H1221 H 0.06479 0.62685 0.57051 0.0
H1222 H 0.11378 0.63519 0.61395 0.0
C1223 C 0.03788 0.63001 0.6655 0.0
C1224 C 0.66007 0.25385 0.60639 0.0
C1225 C 0.6564 0.21593 0.61535 0.0
H1226 H 0.66675 0.31023 0.62236 0.0
C1227 C 0.65932 0.20658 0.64997 0.0
H1228 H 0.6585 0.26259 0.58013 0.0
C1229 C 0.66432 0.23474 0.67479 0.0
C1230 C 0.66649 0.27277 0.66549 0.0
H1231 H 0.65658 0.17784 0.65793 0.0
H1232 H 0.66544 0.22681 0.70127 0.0
C1233 C 0.66491 0.28157 0.63084 0.0
C1234 C 1.01149 0.41606 0.88191 0.0
C1235 C 1.02028 0.41638 0.91662 0.0
H1236 H 0.03032 0.41061 0.83106 0.0
C1237 C 0.05825 0.41307 0.92586 0.0
H1238 H 0.9829 0.41888 0.87346 0.0
C1239 C 0.08629 0.40808 0.9009 0.0
C1240 C 0.07686 0.40631 0.86622 0.0
H1241 H 0.06617 0.41323 0.95237 0.0
H1242 H 0.11496 0.40435 0.90878 0.0
C1243 C 0.03907 0.41123 0.85735 0.0
C1244 C 0.88237 0.78748 0.10661 0.0
C1245 C 0.88528 0.82549 0.11549 0.0
H1246 H 0.87645 0.73105 0.12264 0.0
C1247 C 0.88191 0.83487 0.15008 0.0
H1248 H 0.88434 0.77868 0.08039 0.0
C1249 C 0.87713 0.80669 0.17493 0.0
C1250 C 0.87563 0.7686 0.16571 0.0
H1251 H 0.88406 0.86368 0.15801 0.0
H1252 H 0.87559 0.81467 0.20139 0.0
C1253 C 0.87774 0.75976 0.13108 0.0
C1254 C 0.53003 0.62487 0.38141 0.0
C1255 C 0.52108 0.62483 0.41608 0.0
H1256 H 0.51141 0.63004 0.33044 0.0
C1257 C 0.48309 0.62824 0.42516 0.0
H1258 H 0.55866 0.62194 0.37308 0.0
C1259 C 0.45518 0.63313 0.40006 0.0
C1260 C 0.46477 0.63468 0.36541 0.0
H1261 H 0.47506 0.6283 0.45163 0.0
H1262 H 0.42648 0.63702 0.4078 0.0
C1263 C 0.50257 0.6296 0.35671 0.0
C1264 C 0.38292 0.20529 0.15094 0.0
C1265 C 0.38459 0.21464 0.11624 0.0
H1266 H 0.37823 0.22556 0.2024 0.0
C1267 C 0.38004 0.25247 0.10735 0.0
H1268 H 0.38638 0.17659 0.15885 0.0
C1269 C 0.37566 0.28014 0.13189 0.0
C1270 C 0.37541 0.27141 0.1666 0.0
H1271 H 0.3806 0.26118 0.08105 0.0
H1272 H 0.37309 0.30875 0.12342 0.0
C1273 C 0.37835 0.23342 0.17589 0.0
C1274 C 0.51145 0.62607 0.88114 0.0
C1275 C 0.52026 0.62505 0.91583 0.0
H1276 H 0.53027 0.63217 0.83035 0.0
C1277 C 0.55827 0.62788 0.92507 0.0
H1278 H 0.48283 0.62367 0.87267 0.0
C1279 C 0.58632 0.63301 0.90016 0.0
C1280 C 0.5769 0.63541 0.8655 0.0
H1281 H 0.56621 0.6272 0.95157 0.0
H1282 H 0.61503 0.6363 0.90807 0.0
C1283 C 0.53905 0.63104 0.85662 0.0
C1284 C 0.16432 0.80661 0.67467 0.0
C1285 C 0.16656 0.76855 0.66546 0.0
H1286 H 0.1567 0.86349 0.65764 0.0
C1287 C 0.16541 0.75969 0.6308 0.0
H1288 H 0.16513 0.81458 0.70115 0.0
C1289 C 0.16086 0.78736 0.60626 0.0
C1290 C 0.15705 0.8253 0.61513 0.0
H1291 H 0.16737 0.73101 0.62239 0.0
H1292 H 0.15958 0.77859 0.58 0.0
C1293 C 0.1596 0.83473 0.64975 0.0
C1294 C 0.95586 0.40903 0.40009 0.0
C1295 C 0.96542 0.40546 0.36556 0.0
H1296 H 0.97576 0.41588 0.45145 0.0
C1297 C 1.00345 0.40859 0.35682 0.0
H1298 H 0.92703 0.40673 0.40791 0.0
C1299 C 0.03101 0.41366 0.38138 0.0
C1300 C 0.02199 0.41597 0.41597 0.0
H1301 H 1.01238 0.40649 0.33064 0.0
H1302 H 0.05974 0.41511 0.37304 0.0
C1303 C 0.98387 0.41422 0.42504 0.0
C1304 C 0.38189 0.78809 0.41513 0.0
C1305 C 0.38559 0.82605 0.40635 0.0
H1306 H 0.37508 0.73184 0.39891 0.0
C1307 C 0.38262 0.83561 0.37178 0.0
H1308 H 0.3835 0.7792 0.44135 0.0
C1309 C 0.37754 0.80761 0.34681 0.0
C1310 C 0.37532 0.76954 0.35593 0.0
H1311 H 0.38538 0.8644 0.36395 0.0
H1312 H 0.37638 0.81569 0.32037 0.0
C1313 C 0.37695 0.76054 0.39055 0.0
C1314 C 1.00383 0.62999 0.1655 0.0
C1315 C 0.96592 0.6341 0.15669 0.0
H1316 H 0.06013 0.6234 0.14927 0.0
C1317 C 0.95643 0.63197 0.12206 0.0
H1318 H 1.01264 0.63094 0.19178 0.0
C1319 C 0.98447 0.62739 0.09708 0.0
C1320 C 0.02252 0.6249 0.10625 0.0
H1321 H 0.92767 0.63511 0.11423 0.0
H1322 H 0.97647 0.62693 0.0706 0.0
C1323 C 0.03145 0.62559 0.1409 0.0
C1324 C 0.1667 0.27972 0.89084 0.0
C1325 C 0.16653 0.27087 0.85615 0.0
H1326 H 0.16169 0.26096 0.94177 0.0
C1327 C 0.16293 0.23293 0.84697 0.0
H1328 H 0.16979 0.3083 0.89923 0.0
C1329 C 0.15804 0.20498 0.872 0.0
C1330 C 0.15667 0.21448 0.90667 0.0
H1331 H 0.16271 0.22499 0.82047 0.0
H1332 H 0.15397 0.17634 0.86418 0.0
C1333 C 0.16198 0.25221 0.91547 0.0
C1334 C 0.58601 0.40811 0.62125 0.0
C1335 C 0.57669 0.40764 0.65597 0.0
H1336 H 0.56569 0.41157 0.56973 0.0
C1337 C 0.53904 0.41338 0.66485 0.0
H1338 H 0.61459 0.40367 0.61339 0.0
C1339 C 0.51139 0.41756 0.64026 0.0
C1340 C 0.52004 0.41642 0.60556 0.0
H1341 H 0.53045 0.4138 0.69119 0.0
H1342 H 0.48286 0.42099 0.6487 0.0
C1343 C 0.55793 0.4125 0.59626 0.0
C1344 C 1.01594 0.23184 0.25616 0.0
C1345 C 0.05159 0.24738 0.25756 0.0
H1346 H 0.9576 0.24232 0.25583 0.0
C1347 C 0.05603 0.28634 0.25697 0.0
H1348 H 1.0119 0.20192 0.25643 0.0
C1349 C 0.02508 0.30951 0.25659 0.0
C1350 C 0.98941 0.29396 0.25699 0.0
H1351 H 0.0834 0.29904 0.2576 0.0
H1352 H 0.0291 0.33943 0.25726 0.0
C1353 C 0.98499 0.25501 0.25596 0.0
C1354 C 1.00494 0.80616 0.50779 0.0
C1355 C 0.04387 0.80158 0.50846 0.0
H1356 H 0.9519 0.7794 0.50817 0.0
C1357 C 0.05945 0.76586 0.50772 0.0
H1358 H 0.99227 0.83359 0.50797 0.0
C1359 C 0.03632 0.73498 0.50789 0.0
C1360 C 0.9974 0.73956 0.50857 0.0
H1361 H 0.08937 0.76175 0.50814 0.0
H1362 H 0.049 0.70755 0.50815 0.0
C1363 C 0.98182 0.77528 0.50774 0.0
C1364 C 0.52535 0.80954 0.75621 0.0
C1365 C 0.48971 0.79392 0.75679 0.0
H1366 H 0.58371 0.79917 0.75692 0.0
C1367 C 0.48537 0.75496 0.75585 0.0
H1368 H 0.52932 0.83947 0.7568 0.0
C1369 C 0.51637 0.73184 0.75591 0.0
C1370 C 0.552 0.74745 0.75709 0.0
H1371 H 0.45801 0.74221 0.75587 0.0
H1372 H 0.51239 0.70191 0.75624 0.0
C1373 C 0.55635 0.78643 0.75644 0.0
C1374 C 0.53492 0.23469 1.00642 0.0
C1375 C 0.49603 0.23928 1.0083 0.0
H1376 H 0.58805 0.26128 1.006 0.0
C1377 C 0.48054 0.27503 1.00885 0.0
H1378 H 0.54753 0.20724 1.00557 0.0
C1379 C 0.50379 0.30587 1.00917 0.0
C1380 C 0.54275 0.30122 1.00871 0.0
H1381 H 0.45066 0.27915 1.01024 0.0
H1382 H 0.4912 0.3333 1.01047 0.0
C1383 C 0.55814 0.2655 1.00654 0.0
C1384 C 0.02573 0.73169 0.26356 0.0
C1385 C 0.99 0.74725 0.26312 0.0
H1386 H 0.08403 0.74216 0.26281 0.0
C1387 C 0.98542 0.78618 0.26388 0.0
H1388 H 0.02985 0.70177 0.26304 0.0
C1389 C 1.01629 0.80932 0.26379 0.0
C1390 C 0.05201 0.79377 0.26274 0.0
H1391 H 0.95798 0.79885 0.2639 0.0
H1392 H 1.01215 0.83924 0.2635 0.0
C1393 C 0.05661 0.75483 0.26326 0.0
C1394 C 0.5595 0.77511 0.5155 0.0
C1395 C 0.54397 0.73943 0.5144 0.0
H1396 H 0.549 0.83345 0.51547 0.0
C1397 C 0.50501 0.735 0.5151 0.0
H1398 H 0.58942 0.77915 0.51512 0.0
C1399 C 0.48183 0.76595 0.51533 0.0
C1400 C 0.49736 0.80163 0.51468 0.0
H1401 H 0.49232 0.70762 0.51468 0.0
H1402 H 0.45191 0.76192 0.51479 0.0
C1403 C 0.53632 0.80606 0.51555 0.0
C1404 C 0.52541 0.23175 0.76325 0.0
C1405 C 0.48966 0.24727 0.76304 0.0
H1406 H 0.58369 0.24229 0.76221 0.0
C1407 C 0.48505 0.28619 0.76384 0.0
H1408 H 0.52956 0.20184 0.76269 0.0
C1409 C 0.51589 0.30938 0.7636 0.0
C1410 C 0.55163 0.29387 0.76236 0.0
H1411 H 0.4576 0.29883 0.76402 0.0
H1412 H 0.51172 0.33929 0.76338 0.0
C1413 C 0.55626 0.25494 0.7628 0.0
C1414 C 0.98052 0.26641 0.01356 0.0
C1415 C 0.99618 0.30204 0.01443 0.0
H1416 H 0.9909 0.20808 0.01149 0.0
C1417 C 0.03508 0.30633 0.01639 0.0
H1418 H 0.95062 0.26253 0.01207 0.0
C1419 C 0.05815 0.27534 0.01605 0.0
C1420 C 0.04259 0.23976 0.01358 0.0
H1421 H 0.0478 0.33367 0.01747 0.0
H1422 H 0.08807 0.27934 0.01669 0.0
C1423 C 1.00362 0.2354 0.01303 0.0
C1424 C 1.01606 0.73205 0.76449 0.0
C1425 C 0.05174 0.74757 0.76323 0.0
H1426 H 0.95773 0.74258 0.76481 0.0
C1427 C 0.05626 0.78649 0.7637 0.0
H1428 H 1.01198 0.70213 0.76426 0.0
C1429 C 0.02535 0.80966 0.76409 0.0
C1430 C 0.98965 0.79413 0.76379 0.0
H1431 H 0.08367 0.79913 0.76311 0.0
H1432 H 0.02941 0.83957 0.76348 0.0
C1433 C 0.98514 0.75521 0.76467 0.0
C1434 C 1.00474 0.30603 0.51386 0.0
C1435 C 0.04368 0.30163 0.51321 0.0
H1436 H 0.95183 0.27903 0.51352 0.0
C1437 C 0.05944 0.26599 0.51385 0.0
H1438 H 0.99193 0.3334 0.51373 0.0
C1439 C 0.03647 0.235 0.51368 0.0
C1440 C 0.99752 0.2394 0.51307 0.0
H1441 H 0.08938 0.26201 0.51343 0.0
H1442 H 0.04928 0.20763 0.5134 0.0
C1443 C 0.98177 0.27504 0.5139 0.0
C1444 C 0.52539 0.3108 0.26368 0.0
C1445 C 0.48971 0.29531 0.26484 0.0
H1446 H 0.58366 0.30013 0.26117 0.0
C1447 C 0.48526 0.25644 0.26697 0.0
H1448 H 0.52939 0.34068 0.26206 0.0
C1449 C 0.51614 0.23321 0.26644 0.0
C1450 C 0.55178 0.24859 0.26363 0.0
H1451 H 0.45787 0.24384 0.26828 0.0
H1452 H 0.51201 0.20331 0.26718 0.0
C1453 C 0.5563 0.28754 0.26296 0.0
C1454 C 0.50388 0.806 0.01265 0.0
C1455 C 0.54285 0.80151 0.01301 0.0
H1456 H 0.45087 0.77906 0.01163 0.0
C1457 C 0.55842 0.76585 0.01498 0.0
H1458 H 0.49116 0.83338 0.01149 0.0
C1459 C 0.53534 0.73494 0.01504 0.0
C1460 C 0.49643 0.73938 0.01331 0.0
H1461 H 0.58834 0.76176 0.01543 0.0
H1462 H 0.54808 0.70754 0.01577 0.0
C1463 C 0.48078 0.77506 0.01291 0.0
C1464 C 0.98527 0.28644 0.75673 0.0
C1465 C 0.98975 0.24747 0.75762 0.0
H1466 H 1.01209 0.3395 0.75719 0.0
C1467 C 0.02545 0.23188 0.75706 0.0
H1468 H 0.95786 0.29916 0.75674 0.0
C1469 C 0.05636 0.25501 0.75735 0.0
C1470 C 0.05186 0.29399 0.75802 0.0
H1471 H 0.02952 0.20195 0.75761 0.0
H1472 H 0.08376 0.24228 0.75783 0.0
C1473 C 1.01618 0.30957 0.75685 0.0
C1474 C 0.48158 0.26599 0.50647 0.0
C1475 C 0.49694 0.30174 0.50694 0.0
H1476 H 0.49234 0.2077 0.50734 0.0
C1477 C 0.53589 0.30633 0.50592 0.0
H1478 H 0.45168 0.26183 0.50714 0.0
C1479 C 0.55921 0.27548 0.50603 0.0
C1480 C 0.54386 0.23974 0.50735 0.0
H1481 H 0.54845 0.33377 0.50585 0.0
H1482 H 0.58912 0.27965 0.5063 0.0
C1483 C 0.5049 0.23514 0.50677 0.0
C1484 C 0.52536 0.73301 0.25651 0.0
C1485 C 0.48971 0.74859 0.25846 0.0
H1486 H 0.58367 0.74333 0.25576 0.0
C1487 C 0.48523 0.78757 0.25881 0.0
H1488 H 0.52945 0.70308 0.25606 0.0
C1489 C 0.51618 0.81066 0.25858 0.0
C1490 C 0.55186 0.79499 0.25822 0.0
H1491 H 0.45786 0.8003 0.25996 0.0
H1492 H 0.5122 0.84057 0.25986 0.0
C1493 C 0.55628 0.75608 0.25646 0.0
C1494 C 0.98057 0.7661 1.00813 0.0
C1495 C 0.99605 0.8018 1.00724 0.0
H1496 H 0.99124 0.70782 1.01027 0.0
C1497 C 0.03492 0.80628 1.00516 0.0
H1498 H 0.95069 0.76208 1.00969 0.0
C1499 C 0.05815 0.7754 1.0055 0.0
C1500 C 0.04277 0.73975 1.00808 0.0
H1501 H 0.04751 0.83369 1.00404 0.0
H1502 H 0.08805 0.77955 1.00484 0.0
C1503 C 1.00382 0.7352 1.00867 0.0
C1504 C 0.15502 0.17908 0.11431 0.0
C1505 C 0.12806 0.15462 0.10119 0.0
H1506 H 0.1793 0.20314 0.15886 0.0
C1507 C 0.1066 0.13308 0.12351 0.0
H1508 H 0.17188 0.19607 0.09758 0.0
C1509 C 0.11152 0.13649 0.15848 0.0
C1510 C 0.13726 0.16222 0.17159 0.0
H1511 H 0.0858 0.1139 0.11393 0.0
H1512 H 0.09411 0.1201 0.17525 0.0
C1513 C 0.15921 0.18323 0.14927 0.0
C1514 C 0.10731 0.90871 0.39882 0.0
C1515 C 0.12871 0.88688 0.42101 0.0
H1516 H 0.09441 0.92173 0.34719 0.0
C1517 C 0.15511 0.86184 0.40773 0.0
H1518 H 0.08694 0.92831 0.40854 0.0
C1519 C 0.15877 0.85743 0.37274 0.0
C1520 C 0.13685 0.87873 0.35056 0.0
H1521 H 0.17189 0.84461 0.42437 0.0
H1522 H 0.17846 0.83713 0.36303 0.0
C1523 C 0.11171 0.90503 0.36383 0.0
C1524 C 0.38126 0.85845 0.6487 0.0
C1525 C 0.40302 0.87964 0.67106 0.0
H1526 H 0.36855 0.84576 0.59696 0.0
C1527 C 0.42812 0.90601 0.65799 0.0
H1528 H 0.36165 0.83805 0.65825 0.0
C1529 C 0.4327 0.90983 0.62302 0.0
C1530 C 0.41152 0.88806 0.60066 0.0
H1531 H 0.44536 0.92258 0.67476 0.0
H1532 H 0.45311 0.92943 0.61347 0.0
C1533 C 0.38511 0.86299 0.61373 0.0
C1534 C 0.38237 0.18376 0.87337 0.0
C1535 C 0.40403 0.16213 0.85121 0.0
H1536 H 0.36915 0.19658 0.92501 0.0
C1537 C 0.42838 0.13513 0.86456 0.0
H1538 H 0.36327 0.2046 0.86362 0.0
C1539 C 0.43234 0.13111 0.89956 0.0
C1540 C 0.41125 0.15328 0.92172 0.0
H1541 H 0.44545 0.11813 0.84798 0.0
H1542 H 0.4522 0.11101 0.90932 0.0
C1543 C 0.38559 0.17902 0.90838 0.0
C1544 C 0.9318 0.91078 0.89926 0.0
C1545 C 0.91078 0.88864 0.92143 0.0
H1546 H 0.94485 0.92372 0.84767 0.0
C1547 C 0.88507 0.86301 0.90813 0.0
H1548 H 0.9517 0.9308 0.90901 0.0
C1549 C 0.88178 0.85829 0.87313 0.0
C1550 C 0.90343 0.87984 0.85096 0.0
H1551 H 0.86867 0.84547 0.92478 0.0
H1552 H 0.86269 0.8375 0.8634 0.0
C1553 C 0.92778 0.90679 0.86427 0.0
C1554 C 0.93401 0.1327 0.62322 0.0
C1555 C 0.91252 0.15426 0.60088 0.0
H1556 H 0.94674 0.11992 0.67495 0.0
C1557 C 0.88572 0.17897 0.614 0.0
H1558 H 0.9547 0.11335 0.61364 0.0
C1559 C 0.88174 0.18335 0.64898 0.0
C1560 C 0.90375 0.16233 0.67131 0.0
H1561 H 0.86885 0.196 0.59726 0.0
H1562 H 0.86178 0.20345 0.65857 0.0
C1563 C 0.92931 0.13634 0.65819 0.0
C1564 C 0.60814 0.13195 0.39911 0.0
C1565 C 0.62921 0.15394 0.42135 0.0
H1566 H 0.59522 0.11912 0.34747 0.0
C1567 C 0.655 0.17956 0.40816 0.0
H1568 H 0.58818 0.11194 0.40878 0.0
C1569 C 0.6584 0.18434 0.37318 0.0
C1570 C 0.63678 0.16285 0.35094 0.0
H1571 H 0.67145 0.19699 0.42487 0.0
H1572 H 0.67762 0.20505 0.36353 0.0
C1573 C 0.61227 0.136 0.36414 0.0
C1574 C 0.61171 0.90498 0.15826 0.0
C1575 C 0.63756 0.87931 0.17143 0.0
H1576 H 0.58584 0.92736 0.11366 0.0
C1577 C 0.65953 0.85821 0.14914 0.0
H1578 H 0.59429 0.92142 0.17501 0.0
C1579 C 0.65526 0.8622 0.11416 0.0
C1580 C 0.6282 0.8866 0.10098 0.0
H1581 H 0.67969 0.83834 0.15877 0.0
H1582 H 0.67216 0.84515 0.09747 0.0
C1583 C 0.60671 0.90823 0.12327 0.0
C1584 C 0.60831 0.63178 0.62307 0.0
C1585 C 0.62951 0.65347 0.60066 0.0
H1586 H 0.59575 0.61908 0.67484 0.0
C1587 C 0.65592 0.67857 0.61371 0.0
H1588 H 0.58789 0.61217 0.61355 0.0
C1589 C 0.65982 0.68315 0.64867 0.0
C1590 C 0.63811 0.66197 0.67108 0.0
H1591 H 0.67249 0.69575 0.5969 0.0
H1592 H 0.67948 0.70353 0.65819 0.0
C1593 C 0.61295 0.63563 0.65804 0.0
C1594 C 0.61093 0.40464 0.86389 0.0
C1595 C 0.63616 0.37848 0.85054 0.0
H1596 H 0.58601 0.42761 0.90866 0.0
C1597 C 0.65807 0.35708 0.87266 0.0
H1598 H 0.59363 0.4214 0.84728 0.0
C1599 C 0.65431 0.36127 0.90766 0.0
C1600 C 0.62784 0.38618 0.921 0.0
H1601 H 0.67782 0.33688 0.86289 0.0
H1602 H 0.6711 0.34398 0.92424 0.0
C1603 C 0.60643 0.40809 0.89889 0.0
C1604 C 0.93225 0.41033 0.12324 0.0
C1605 C 0.91103 0.38864 0.10085 0.0
H1606 H 0.94504 0.42291 0.17499 0.0
C1607 C 0.8847 0.36348 0.11392 0.0
H1608 H 0.95261 0.42999 0.11371 0.0
C1609 C 0.88096 0.35879 0.14889 0.0
C1610 C 0.90275 0.37992 0.17128 0.0
H1611 H 0.86811 0.34629 0.09712 0.0
H1612 H 0.8614 0.33833 0.15842 0.0
C1613 C 0.92778 0.40637 0.15821 0.0
C1614 C 0.88611 0.67935 0.40799 0.0
C1615 C 0.91233 0.65418 0.42134 0.0
H1616 H 0.86307 0.70419 0.36321 0.0
C1617 C 0.93365 0.6322 0.39924 0.0
H1618 H 0.86939 0.6967 0.42458 0.0
C1619 C 0.92939 0.63588 0.36424 0.0
C1620 C 0.90449 0.66235 0.35088 0.0
H1621 H 0.95389 0.61249 0.40902 0.0
H1622 H 0.94667 0.61907 0.34766 0.0
C1623 C 0.88259 0.68377 0.37299 0.0
C1624 C 0.43183 0.41065 0.3992 0.0
C1625 C 0.41067 0.38864 0.42138 0.0
H1626 H 0.44463 0.42378 0.34757 0.0
C1627 C 0.38434 0.36363 0.40809 0.0
H1628 H 0.45218 0.43022 0.40893 0.0
C1629 C 0.38061 0.35933 0.37309 0.0
C1630 C 0.40242 0.3807 0.35091 0.0
H1631 H 0.36779 0.34622 0.42472 0.0
H1632 H 0.36109 0.33893 0.36336 0.0
C1633 C 0.42738 0.40707 0.3642 0.0
C1634 C 0.42909 0.63616 0.1576 0.0
C1635 C 0.4046 0.66315 0.17073 0.0
H1636 H 0.45311 0.61178 0.11304 0.0
C1637 C 0.38297 0.6846 0.1484 0.0
H1638 H 0.44616 0.6193 0.17432 0.0
C1639 C 0.38632 0.67962 0.11342 0.0
C1640 C 0.41207 0.65383 0.1003 0.0
H1641 H 0.36377 0.70543 0.15798 0.0
H1642 H 0.36986 0.697 0.09665 0.0
C1643 C 0.43318 0.63191 0.12263 0.0
C1644 C 0.10715 0.63277 0.89885 0.0
C1645 C 0.1284 0.65468 0.92103 0.0
H1646 H 0.09449 0.61956 0.84721 0.0
C1647 C 0.1548 0.67965 0.90778 0.0
H1648 H 0.08679 0.6132 0.90855 0.0
C1649 C 0.15861 0.68392 0.8728 0.0
C1650 C 0.13682 0.66255 0.85062 0.0
H1651 H 0.17147 0.69693 0.92442 0.0
H1652 H 0.17827 0.70418 0.86309 0.0
C1653 C 0.1117 0.6363 0.86387 0.0
C1654 C 0.10681 0.40843 0.62355 0.0
C1655 C 0.1284 0.38697 0.60122 0.0
H1656 H 0.0941 0.42123 0.6753 0.0
C1657 C 0.15535 0.36242 0.61435 0.0
H1658 H 0.08601 0.42766 0.61397 0.0
C1659 C 0.15941 0.35813 0.64933 0.0
C1660 C 0.13733 0.37907 0.67165 0.0
H1661 H 0.17231 0.34547 0.59762 0.0
H1662 H 0.1795 0.33816 0.65892 0.0
C1663 C 0.11159 0.40488 0.65853 0.0
loop_
_geom_bond_atom_site_label_1
_geom_bond_atom_site_label_2
_geom_bond_distance
_geom_bond_site_symmetry_2
_ccdc_geom_bond_type
Fe0 O2 1.918 . S
Fe0 O5 1.997 . S
Fe0 O6 2.002 . S
Fe0 O11 1.976 . S
Fe0 O14 1.996 . S
Fe1 O2 1.918 . S
Fe1 O9 1.997 . S
Fe1 O12 1.996 . S
Fe1 O16 1.976 . S
Fe1 O19 2.002 . S
O2 Fe0 1.918 . S
O2 Fe1 1.918 . S
O2 Fe3 1.918 . S
Fe3 O2 1.918 . S
Fe3 O4 2.002 . S
Fe3 O13 1.976 . S
Fe3 O17 1.996 . S
Fe3 O20 1.997 . S
O4 Fe3 2.002 . S
O4 C21 1.295 . S
O5 Fe0 1.997 . S
O5 C21 1.235 . S
O6 Fe0 2.002 . S
O6 C7 1.295 . S
C7 O6 1.295 . S
C7 O9 1.235 . S
C8 O13 1.287 . S
C8 O14 1.255 . S
O9 Fe1 1.997 . S
O9 C7 1.235 . S
C10 O16 1.287 . S
C10 O17 1.255 . S
O11 Fe0 1.976 . S
O11 C18 1.287 . S
O12 Fe1 1.996 . S
O12 C18 1.255 . S
O13 Fe3 1.976 . S
O13 C8 1.287 . S
O14 Fe0 1.996 . S
O14 C8 1.255 . S
C15 O19 1.295 . S
C15 O20 1.235 . S
O16 Fe1 1.976 . S
O16 C10 1.287 . S
O17 Fe3 1.996 . S
O17 C10 1.255 . S
C18 O11 1.287 . S
C18 O12 1.255 . S
O19 Fe1 2.002 . S
O19 C15 1.295 . S
O20 Fe3 1.997 . S
O20 C15 1.235 . S
C21 O4 1.295 . S
C21 O5 1.235 . S
Fe22 O24 1.918 . S
Fe22 O27 1.997 . S
Fe22 O28 2.002 . S
Fe22 O33 1.976 . S
Fe22 O36 1.996 . S
Fe23 O24 1.918 . S
Fe23 O31 1.997 . S
Fe23 O34 1.996 . S
Fe23 O38 1.976 . S
Fe23 O41 2.002 . S
O24 Fe22 1.918 . S
O24 Fe23 1.918 . S
O24 Fe25 1.918 . S
Fe25 O24 1.918 . S
Fe25 O26 2.002 . S
Fe25 O35 1.976 . S
Fe25 O39 1.996 . S
Fe25 O42 1.997 . S
O26 Fe25 2.002 . S
O26 C43 1.295 . S
O27 Fe22 1.997 . S
O27 C43 1.235 . S
O28 Fe22 2.002 . S
O28 C29 1.295 . S
C29 O28 1.295 . S
C29 O31 1.235 . S
C30 O35 1.287 . S
C30 O36 1.255 . S
O31 Fe23 1.997 . S
O31 C29 1.235 . S
C32 O38 1.287 . S
C32 O39 1.255 . S
O33 Fe22 1.976 . S
O33 C40 1.287 . S
O34 Fe23 1.996 . S
O34 C40 1.255 . S
O35 Fe25 1.976 . S
O35 C30 1.287 . S
O36 Fe22 1.996 . S
O36 C30 1.255 . S
C37 O41 1.295 . S
C37 O42 1.235 . S
O38 Fe23 1.976 . S
O38 C32 1.287 . S
O39 Fe25 1.996 . S
O39 C32 1.255 . S
C40 O33 1.287 . S
C40 O34 1.255 . S
O41 Fe23 2.002 . S
O41 C37 1.295 . S
O42 Fe25 1.997 . S
O42 C37 1.235 . S
C43 O26 1.295 . S
C43 O27 1.235 . S
Fe44 O46 1.918 . S
Fe44 O49 1.997 . S
Fe44 O50 2.002 . S
Fe44 O55 1.976 . S
Fe44 O58 1.996 . S
Fe45 O46 1.918 . S
Fe45 O53 1.997 . S
Fe45 O56 1.996 . S
Fe45 O60 1.976 . S
Fe45 O63 2.002 . S
O46 Fe44 1.918 . S
O46 Fe45 1.918 . S
O46 Fe47 1.918 . S
Fe47 O46 1.918 . S
Fe47 O48 2.002 . S
Fe47 O57 1.976 . S
Fe47 O61 1.996 . S
Fe47 O64 1.997 . S
O48 Fe47 2.002 . S
O48 C65 1.295 . S
O49 Fe44 1.997 . S
O49 C65 1.235 . S
O50 Fe44 2.002 . S
O50 C51 1.295 . S
C51 O50 1.295 . S
C51 O53 1.235 . S
C52 O57 1.287 . S
C52 O58 1.255 . S
O53 Fe45 1.997 . S
O53 C51 1.235 . S
C54 O60 1.287 . S
C54 O61 1.255 . S
O55 Fe44 1.976 . S
O55 C62 1.287 . S
O56 Fe45 1.996 . S
O56 C62 1.255 . S
O57 Fe47 1.976 . S
O57 C52 1.287 . S
O58 Fe44 1.996 . S
O58 C52 1.255 . S
C59 O63 1.295 . S
C59 O64 1.235 . S
O60 Fe45 1.976 . S
O60 C54 1.287 . S
O61 Fe47 1.996 . S
O61 C54 1.255 . S
C62 O55 1.287 . S
C62 O56 1.255 . S
O63 Fe45 2.002 . S
O63 C59 1.295 . S
O64 Fe47 1.997 . S
O64 C59 1.235 . S
C65 O48 1.295 . S
C65 O49 1.235 . S
Fe66 O68 1.918 . S
Fe66 O71 1.997 . S
Fe66 O72 2.002 . S
Fe66 O77 1.976 . S
Fe66 O80 1.996 1_554 S
Fe67 O68 1.918 . S
Fe67 O75 1.997 . S
Fe67 O78 1.996 . S
Fe67 O82 1.976 . S
Fe67 O85 2.002 . S
O68 Fe66 1.918 . S
O68 Fe67 1.918 . S
O68 Fe69 1.923 . S
Fe69 O68 1.923 . S
Fe69 O70 2.002 1_554 S
Fe69 O79 1.964 1_554 S
Fe69 O83 1.995 1_554 S
Fe69 O86 2.008 . S
O70 Fe69 2.002 1_556 S
O70 C87 1.294 1_556 S
O71 Fe66 1.997 . S
O71 C87 1.235 . S
O72 Fe66 2.002 . S
O72 C73 1.295 . S
C73 O72 1.295 . S
C73 O75 1.235 . S
C74 O79 1.287 . S
C74 O80 1.255 . S
O75 Fe67 1.997 . S
O75 C73 1.235 . S
C76 O82 1.287 . S
C76 O83 1.255 1_554 S
O77 Fe66 1.976 . S
O77 C84 1.287 . S
O78 Fe67 1.996 . S
O78 C84 1.255 . S
O79 Fe69 1.964 1_556 S
O79 C74 1.287 . S
O80 Fe66 1.996 1_556 S
O80 C74 1.255 . S
C81 O85 1.295 . S
C81 O86 1.235 . S
O82 Fe67 1.976 . S
O82 C76 1.287 . S
O83 Fe69 1.995 1_556 S
O83 C76 1.255 1_556 S
C84 O77 1.287 . S
C84 O78 1.255 . S
O85 Fe67 2.002 . S
O85 C81 1.295 . S
O86 Fe69 2.008 . S
O86 C81 1.235 . S
C87 O70 1.294 1_554 S
C87 O71 1.235 . S
Fe88 O90 1.918 . S
Fe88 O93 1.997 . S
Fe88 O94 2.002 . S
Fe88 O99 1.976 . S
Fe88 O102 1.996 . S
Fe89 O90 1.918 . S
Fe89 O97 1.997 . S
Fe89 O100 1.996 . S
Fe89 O104 1.976 . S
Fe89 O107 2.002 . S
O90 Fe88 1.918 . S
O90 Fe89 1.918 . S
O90 Fe91 1.918 . S
Fe91 O90 1.918 . S
Fe91 O92 2.002 . S
Fe91 O101 1.976 . S
Fe91 O105 1.996 . S
Fe91 O108 1.997 . S
O92 Fe91 2.002 . S
O92 C109 1.295 . S
O93 Fe88 1.997 . S
O93 C109 1.235 . S
O94 Fe88 2.002 . S
O94 C95 1.295 . S
C95 O94 1.295 . S
C95 O97 1.235 . S
C96 O101 1.287 . S
C96 O102 1.255 . S
O97 Fe89 1.997 . S
O97 C95 1.235 . S
C98 O104 1.287 . S
C98 O105 1.255 . S
O99 Fe88 1.976 . S
O99 C106 1.287 . S
O100 Fe89 1.996 . S
O100 C106 1.255 . S
O101 Fe91 1.976 . S
O101 C96 1.287 . S
O102 Fe88 1.996 . S
O102 C96 1.255 . S
C103 O107 1.295 . S
C103 O108 1.235 . S
O104 Fe89 1.976 . S
O104 C98 1.287 . S
O105 Fe91 1.996 . S
O105 C98 1.255 . S
C106 O99 1.287 . S
C106 O100 1.255 . S
O107 Fe89 2.002 . S
O107 C103 1.295 . S
O108 Fe91 1.997 . S
O108 C103 1.235 . S
C109 O92 1.295 . S
C109 O93 1.235 . S
Fe110 O112 1.918 . S
Fe110 O115 1.997 . S
Fe110 O116 2.002 . S
Fe110 O121 1.976 . S
Fe110 O124 1.996 . S
Fe111 O112 1.918 . S
Fe111 O119 1.997 . S
Fe111 O122 1.996 . S
Fe111 O126 1.976 . S
Fe111 O129 2.002 . S
O112 Fe110 1.918 . S
O112 Fe111 1.918 . S
O112 Fe113 1.918 . S
Fe113 O112 1.918 . S
Fe113 O114 2.002 . S
Fe113 O123 1.976 . S
Fe113 O127 1.996 . S
Fe113 O130 1.997 . S
O114 Fe113 2.002 . S
O114 C131 1.295 . S
O115 Fe110 1.997 . S
O115 C131 1.235 . S
O116 Fe110 2.002 . S
O116 C117 1.295 . S
C117 O116 1.295 . S
C117 O119 1.235 . S
C118 O123 1.287 . S
C118 O124 1.255 . S
O119 Fe111 1.997 . S
O119 C117 1.235 . S
C120 O126 1.287 . S
C120 O127 1.255 . S
O121 Fe110 1.976 . S
O121 C128 1.287 . S
O122 Fe111 1.996 . S
O122 C128 1.255 . S
O123 Fe113 1.976 . S
O123 C118 1.287 . S
O124 Fe110 1.996 . S
O124 C118 1.255 . S
C125 O129 1.295 . S
C125 O130 1.235 . S
O126 Fe111 1.976 . S
O126 C120 1.287 . S
O127 Fe113 1.996 . S
O127 C120 1.255 . S
C128 O121 1.287 . S
C128 O122 1.255 . S
O129 Fe111 2.002 . S
O129 C125 1.295 . S
O130 Fe113 1.997 . S
O130 C125 1.235 . S
C131 O114 1.295 . S
C131 O115 1.235 . S
Fe132 O134 1.918 . S
Fe132 O137 1.997 . S
Fe132 O138 2.002 . S
Fe132 O143 1.976 . S
Fe132 O146 1.996 . S
Fe133 O134 1.918 . S
Fe133 O141 1.997 . S
Fe133 O144 1.996 . S
Fe133 O148 1.976 . S
Fe133 O151 2.002 . S
O134 Fe132 1.918 . S
O134 Fe133 1.918 . S
O134 Fe135 1.918 . S
Fe135 O134 1.918 . S
Fe135 O136 2.002 . S
Fe135 O145 1.976 . S
Fe135 O149 1.996 . S
Fe135 O152 1.997 . S
O136 Fe135 2.002 . S
O136 C153 1.295 . S
O137 Fe132 1.997 . S
O137 C153 1.235 . S
O138 Fe132 2.002 . S
O138 C139 1.295 . S
C139 O138 1.295 . S
C139 O141 1.235 . S
C140 O145 1.287 . S
C140 O146 1.255 . S
O141 Fe133 1.997 . S
O141 C139 1.235 . S
C142 O148 1.287 . S
C142 O149 1.255 . S
O143 Fe132 1.976 . S
O143 C150 1.287 . S
O144 Fe133 1.996 . S
O144 C150 1.255 . S
O145 Fe135 1.976 . S
O145 C140 1.287 . S
O146 Fe132 1.996 . S
O146 C140 1.255 . S
C147 O151 1.295 . S
C147 O152 1.235 . S
O148 Fe133 1.976 . S
O148 C142 1.287 . S
O149 Fe135 1.996 . S
O149 C142 1.255 . S
C150 O143 1.287 . S
C150 O144 1.255 . S
O151 Fe133 2.002 . S
O151 C147 1.295 . S
O152 Fe135 1.997 . S
O152 C147 1.235 . S
C153 O136 1.295 . S
C153 O137 1.235 . S
Fe154 O156 1.918 . S
Fe154 O159 1.997 . S
Fe154 O160 2.002 . S
Fe154 O165 1.976 . S
Fe154 O168 1.996 . S
Fe155 O156 1.923 . S
Fe155 O163 2.008 . S
Fe155 O166 1.995 1_556 S
Fe155 O170 1.964 1_556 S
Fe155 O173 2.002 1_556 S
O156 Fe154 1.918 . S
O156 Fe155 1.923 . S
O156 Fe157 1.918 . S
Fe157 O156 1.918 . S
Fe157 O158 2.002 . S
Fe157 O167 1.976 . S
Fe157 O171 1.996 1_556 S
Fe157 O174 1.997 . S
O158 Fe157 2.002 . S
O158 C175 1.295 . S
O159 Fe154 1.997 . S
O159 C175 1.235 . S
O160 Fe154 2.002 . S
O160 C161 1.295 . S
C161 O160 1.295 . S
C161 O163 1.235 . S
C162 O167 1.287 . S
C162 O168 1.255 . S
O163 Fe155 2.008 . S
O163 C161 1.235 . S
C164 O170 1.287 . S
C164 O171 1.255 . S
O165 Fe154 1.976 . S
O165 C172 1.287 . S
O166 Fe155 1.995 1_554 S
O166 C172 1.255 1_554 S
O167 Fe157 1.976 . S
O167 C162 1.287 . S
O168 Fe154 1.996 . S
O168 C162 1.255 . S
C169 O173 1.294 1_556 S
C169 O174 1.235 . S
O170 Fe155 1.964 1_554 S
O170 C164 1.287 . S
O171 Fe157 1.996 1_554 S
O171 C164 1.255 . S
C172 O165 1.287 . S
C172 O166 1.255 1_556 S
O173 Fe155 2.002 1_554 S
O173 C169 1.294 1_554 S
O174 Fe157 1.997 . S
O174 C169 1.235 . S
C175 O158 1.295 . S
C175 O159 1.235 . S
Fe176 O178 1.918 . S
Fe176 O181 1.997 . S
Fe176 O182 2.002 . S
Fe176 O187 1.976 . S
Fe176 O190 1.996 . S
Fe177 O178 1.918 . S
Fe177 O185 1.997 . S
Fe177 O188 1.996 . S
Fe177 O192 1.976 . S
Fe177 O195 2.002 . S
O178 Fe176 1.918 . S
O178 Fe177 1.918 . S
O178 Fe179 1.918 . S
Fe179 O178 1.918 . S
Fe179 O180 2.002 . S
Fe179 O189 1.976 . S
Fe179 O193 1.996 . S
Fe179 O196 1.997 . S
O180 Fe179 2.002 . S
O180 C197 1.295 . S
O181 Fe176 1.997 . S
O181 C197 1.235 . S
O182 Fe176 2.002 . S
O182 C183 1.295 . S
C183 O182 1.295 . S
C183 O185 1.235 . S
C184 O189 1.287 . S
C184 O190 1.255 . S
O185 Fe177 1.997 . S
O185 C183 1.235 . S
C186 O192 1.287 . S
C186 O193 1.255 . S
O187 Fe176 1.976 . S
O187 C194 1.287 . S
O188 Fe177 1.996 . S
O188 C194 1.255 . S
O189 Fe179 1.976 . S
O189 C184 1.287 . S
O190 Fe176 1.996 . S
O190 C184 1.255 . S
C191 O195 1.295 . S
C191 O196 1.235 . S
O192 Fe177 1.976 . S
O192 C186 1.287 . S
O193 Fe179 1.996 . S
O193 C186 1.255 . S
C194 O187 1.287 . S
C194 O188 1.255 . S
O195 Fe177 2.002 . S
O195 C191 1.295 . S
O196 Fe179 1.997 . S
O196 C191 1.235 . S
C197 O180 1.295 . S
C197 O181 1.235 . S
Fe198 O200 1.918 . S
Fe198 O203 1.997 . S
Fe198 O204 2.002 . S
Fe198 O209 1.976 . S
Fe198 O212 1.996 . S
Fe199 O200 1.918 . S
Fe199 O207 1.997 . S
Fe199 O210 1.996 . S
Fe199 O214 1.976 . S
Fe199 O217 2.002 . S
O200 Fe198 1.918 . S
O200 Fe199 1.918 . S
O200 Fe201 1.918 . S
Fe201 O200 1.918 . S
Fe201 O202 2.002 . S
Fe201 O211 1.976 . S
Fe201 O215 1.996 . S
Fe201 O218 1.997 . S
O202 Fe201 2.002 . S
O202 C219 1.295 . S
O203 Fe198 1.997 . S
O203 C219 1.235 . S
O204 Fe198 2.002 . S
O204 C205 1.295 . S
C205 O204 1.295 . S
C205 O207 1.235 . S
C206 O211 1.287 . S
C206 O212 1.255 . S
O207 Fe199 1.997 . S
O207 C205 1.235 . S
C208 O214 1.287 . S
C208 O215 1.255 . S
O209 Fe198 1.976 . S
O209 C216 1.287 . S
O210 Fe199 1.996 . S
O210 C216 1.255 . S
O211 Fe201 1.976 . S
O211 C206 1.287 . S
O212 Fe198 1.996 . S
O212 C206 1.255 . S
C213 O217 1.295 . S
C213 O218 1.235 . S
O214 Fe199 1.976 . S
O214 C208 1.287 . S
O215 Fe201 1.996 . S
O215 C208 1.255 . S
C216 O209 1.287 . S
C216 O210 1.255 . S
O217 Fe199 2.002 . S
O217 C213 1.295 . S
O218 Fe201 1.997 . S
O218 C213 1.235 . S
C219 O202 1.295 . S
C219 O203 1.235 . S
Fe220 O222 1.918 . S
Fe220 O225 1.997 . S
Fe220 O226 2.002 . S
Fe220 O231 1.976 . S
Fe220 O234 1.996 . S
Fe221 O222 1.918 . S
Fe221 O229 1.997 . S
Fe221 O232 1.996 . S
Fe221 O236 1.976 . S
Fe221 O239 2.002 . S
O222 Fe220 1.918 . S
O222 Fe221 1.918 . S
O222 Fe223 1.918 . S
Fe223 O222 1.918 . S
Fe223 O224 2.002 . S
Fe223 O233 1.976 . S
Fe223 O237 1.996 . S
Fe223 O240 1.997 . S
O224 Fe223 2.002 . S
O224 C241 1.295 . S
O225 Fe220 1.997 . S
O225 C241 1.235 . S
O226 Fe220 2.002 . S
O226 C227 1.295 . S
C227 O226 1.295 . S
C227 O229 1.235 . S
C228 O233 1.287 . S
C228 O234 1.255 . S
O229 Fe221 1.997 . S
O229 C227 1.235 . S
C230 O236 1.287 . S
C230 O237 1.255 . S
O231 Fe220 1.976 . S
O231 C238 1.287 . S
O232 Fe221 1.996 . S
O232 C238 1.255 . S
O233 Fe223 1.976 . S
O233 C228 1.287 . S
O234 Fe220 1.996 . S
O234 C228 1.255 . S
C235 O239 1.295 . S
C235 O240 1.235 . S
O236 Fe221 1.976 . S
O236 C230 1.287 . S
O237 Fe223 1.996 . S
O237 C230 1.255 . S
C238 O231 1.287 . S
C238 O232 1.255 . S
O239 Fe221 2.002 . S
O239 C235 1.295 . S
O240 Fe223 1.997 . S
O240 C235 1.235 . S
C241 O224 1.295 . S
C241 O225 1.235 . S
Fe242 O244 1.919 . S
Fe242 O247 1.996 1_556 S
Fe242 O248 2.004 . S
Fe242 O253 1.976 1_556 S
Fe242 O256 1.994 1_556 S
Fe243 O244 1.918 . S
Fe243 O251 1.997 . S
Fe243 O254 1.996 . S
Fe243 O258 1.976 . S
Fe243 O261 2.002 . S
O244 Fe242 1.919 . S
O244 Fe243 1.918 . S
O244 Fe245 1.918 . S
Fe245 O244 1.918 . S
Fe245 O246 2.002 . S
Fe245 O255 1.976 1_556 S
Fe245 O259 1.996 . S
Fe245 O262 1.997 . S
O246 Fe245 2.002 . S
O246 C263 1.295 . S
O247 Fe242 1.996 1_554 S
O247 C263 1.233 1_554 S
O248 Fe242 2.004 . S
O248 C249 1.295 . S
C249 O248 1.295 . S
C249 O251 1.235 . S
C250 O255 1.287 . S
C250 O256 1.255 . S
O251 Fe243 1.997 . S
O251 C249 1.235 . S
C252 O258 1.287 . S
C252 O259 1.255 . S
O253 Fe242 1.976 1_554 S
O253 C260 1.287 1_554 S
O254 Fe243 1.996 . S
O254 C260 1.255 . S
O255 Fe245 1.976 1_554 S
O255 C250 1.287 . S
O256 Fe242 1.994 1_554 S
O256 C250 1.255 . S
C257 O261 1.295 . S
C257 O262 1.235 . S
O258 Fe243 1.976 . S
O258 C252 1.287 . S
O259 Fe245 1.996 . S
O259 C252 1.255 . S
C260 O253 1.287 1_556 S
C260 O254 1.255 . S
O261 Fe243 2.002 . S
O261 C257 1.295 . S
O262 Fe245 1.997 . S
O262 C257 1.235 . S
C263 O246 1.295 . S
C263 O247 1.233 1_556 S
Fe264 O266 1.918 . S
Fe264 O269 1.997 . S
Fe264 O270 2.002 . S
Fe264 O275 1.976 . S
Fe264 O278 1.996 . S
Fe265 O266 1.918 . S
Fe265 O273 1.997 . S
Fe265 O276 1.996 . S
Fe265 O280 1.976 . S
Fe265 O283 2.002 . S
O266 Fe264 1.918 . S
O266 Fe265 1.918 . S
O266 Fe267 1.918 . S
Fe267 O266 1.918 . S
Fe267 O268 2.002 . S
Fe267 O277 1.976 . S
Fe267 O281 1.996 . S
Fe267 O284 1.997 . S
O268 Fe267 2.002 . S
O268 C285 1.295 . S
O269 Fe264 1.997 . S
O269 C285 1.235 . S
O270 Fe264 2.002 . S
O270 C271 1.295 . S
C271 O270 1.295 . S
C271 O273 1.235 . S
C272 O277 1.287 . S
C272 O278 1.255 . S
O273 Fe265 1.997 . S
O273 C271 1.235 . S
C274 O280 1.287 . S
C274 O281 1.255 . S
O275 Fe264 1.976 . S
O275 C282 1.287 . S
O276 Fe265 1.996 . S
O276 C282 1.255 . S
O277 Fe267 1.976 . S
O277 C272 1.287 . S
O278 Fe264 1.996 . S
O278 C272 1.255 . S
C279 O283 1.295 . S
C279 O284 1.235 . S
O280 Fe265 1.976 . S
O280 C274 1.287 . S
O281 Fe267 1.996 . S
O281 C274 1.255 . S
C282 O275 1.287 . S
C282 O276 1.255 . S
O283 Fe265 2.002 . S
O283 C279 1.295 . S
O284 Fe267 1.997 . S
O284 C279 1.235 . S
C285 O268 1.295 . S
C285 O269 1.235 . S
Fe286 O288 1.918 . S
Fe286 O291 1.997 . S
Fe286 O292 2.002 . S
Fe286 O297 1.976 . S
Fe286 O300 1.996 . S
Fe287 O288 1.918 . S
Fe287 O295 1.997 . S
Fe287 O298 1.996 . S
Fe287 O302 1.976 . S
Fe287 O305 2.002 . S
O288 Fe286 1.918 . S
O288 Fe287 1.918 . S
O288 Fe289 1.918 . S
Fe289 O288 1.918 . S
Fe289 O290 2.002 . S
Fe289 O299 1.976 . S
Fe289 O303 1.996 . S
Fe289 O306 1.997 . S
O290 Fe289 2.002 . S
O290 C307 1.295 . S
O291 Fe286 1.997 . S
O291 C307 1.235 . S
O292 Fe286 2.002 . S
O292 C293 1.295 . S
C293 O292 1.295 . S
C293 O295 1.235 . S
C294 O299 1.287 . S
C294 O300 1.255 . S
O295 Fe287 1.997 . S
O295 C293 1.235 . S
C296 O302 1.287 . S
C296 O303 1.255 . S
O297 Fe286 1.976 . S
O297 C304 1.287 . S
O298 Fe287 1.996 . S
O298 C304 1.255 . S
O299 Fe289 1.976 . S
O299 C294 1.287 . S
O300 Fe286 1.996 . S
O300 C294 1.255 . S
C301 O305 1.295 . S
C301 O306 1.235 . S
O302 Fe287 1.976 . S
O302 C296 1.287 . S
O303 Fe289 1.996 . S
O303 C296 1.255 . S
C304 O297 1.287 . S
C304 O298 1.255 . S
O305 Fe287 2.002 . S
O305 C301 1.295 . S
O306 Fe289 1.997 . S
O306 C301 1.235 . S
C307 O290 1.295 . S
C307 O291 1.235 . S
Fe308 O310 1.918 . S
Fe308 O313 1.997 . S
Fe308 O314 2.002 . S
Fe308 O319 1.976 . S
Fe308 O322 1.996 . S
Fe309 O310 1.918 . S
Fe309 O317 1.997 . S
Fe309 O320 1.996 . S
Fe309 O324 1.976 . S
Fe309 O327 2.002 . S
O310 Fe308 1.918 . S
O310 Fe309 1.918 . S
O310 Fe311 1.918 . S
Fe311 O310 1.918 . S
Fe311 O312 2.002 . S
Fe311 O321 1.976 . S
Fe311 O325 1.996 . S
Fe311 O328 1.997 . S
O312 Fe311 2.002 . S
O312 C329 1.295 . S
O313 Fe308 1.997 . S
O313 C329 1.235 . S
O314 Fe308 2.002 . S
O314 C315 1.295 . S
C315 O314 1.295 . S
C315 O317 1.235 . S
C316 O321 1.287 . S
C316 O322 1.255 . S
O317 Fe309 1.997 . S
O317 C315 1.235 . S
C318 O324 1.287 . S
C318 O325 1.255 . S
O319 Fe308 1.976 . S
O319 C326 1.287 . S
O320 Fe309 1.996 . S
O320 C326 1.255 . S
O321 Fe311 1.976 . S
O321 C316 1.287 . S
O322 Fe308 1.996 . S
O322 C316 1.255 . S
C323 O327 1.295 . S
C323 O328 1.235 . S
O324 Fe309 1.976 . S
O324 C318 1.287 . S
O325 Fe311 1.996 . S
O325 C318 1.255 . S
C326 O319 1.287 . S
C326 O320 1.255 . S
O327 Fe309 2.002 . S
O327 C323 1.295 . S
O328 Fe311 1.997 . S
O328 C323 1.235 . S
C329 O312 1.295 . S
C329 O313 1.235 . S
Fe330 O332 1.919 . S
Fe330 O335 1.996 1_554 S
Fe330 O336 2.004 . S
Fe330 O341 1.976 1_554 S
Fe330 O344 1.994 1_554 S
Fe331 O332 1.918 . S
Fe331 O339 1.997 . S
Fe331 O342 1.996 . S
Fe331 O346 1.976 . S
Fe331 O349 2.002 . S
O332 Fe330 1.919 . S
O332 Fe331 1.918 . S
O332 Fe333 1.918 . S
Fe333 O332 1.918 . S
Fe333 O334 2.002 . S
Fe333 O343 1.976 1_554 S
Fe333 O347 1.996 . S
Fe333 O350 1.997 . S
O334 Fe333 2.002 . S
O334 C351 1.295 . S
O335 Fe330 1.996 1_556 S
O335 C351 1.233 1_556 S
O336 Fe330 2.004 . S
O336 C337 1.295 . S
C337 O336 1.295 . S
C337 O339 1.235 . S
C338 O343 1.287 . S
C338 O344 1.255 . S
O339 Fe331 1.997 . S
O339 C337 1.235 . S
C340 O346 1.287 . S
C340 O347 1.255 . S
O341 Fe330 1.976 1_556 S
O341 C348 1.287 1_556 S
O342 Fe331 1.996 . S
O342 C348 1.255 . S
O343 Fe333 1.976 1_556 S
O343 C338 1.287 . S
O344 Fe330 1.994 1_556 S
O344 C338 1.255 . S
C345 O349 1.295 . S
C345 O350 1.235 . S
O346 Fe331 1.976 . S
O346 C340 1.287 . S
O347 Fe333 1.996 . S
O347 C340 1.255 . S
C348 O341 1.287 1_554 S
C348 O342 1.255 . S
O349 Fe331 2.002 . S
O349 C345 1.295 . S
O350 Fe333 1.997 . S
O350 C345 1.235 . S
C351 O334 1.295 . S
C351 O335 1.233 1_554 S
Fe352 O354 1.918 . S
Fe352 O357 1.997 . S
Fe352 O358 2.002 . S
Fe352 O363 1.976 . S
Fe352 O366 1.996 . S
Fe353 O354 1.918 . S
Fe353 O361 1.997 . S
Fe353 O364 1.996 . S
Fe353 O368 1.976 . S
Fe353 O371 2.002 . S
O354 Fe352 1.918 . S
O354 Fe353 1.918 . S
O354 Fe355 1.918 . S
Fe355 O354 1.918 . S
Fe355 O356 2.002 . S
Fe355 O365 1.976 . S
Fe355 O369 1.996 . S
Fe355 O372 1.997 . S
O356 Fe355 2.002 . S
O356 C373 1.295 . S
O357 Fe352 1.997 . S
O357 C373 1.235 . S
O358 Fe352 2.002 . S
O358 C359 1.295 . S
C359 O358 1.295 . S
C359 O361 1.235 . S
C360 O365 1.287 . S
C360 O366 1.255 . S
O361 Fe353 1.997 . S
O361 C359 1.235 . S
C362 O368 1.287 . S
C362 O369 1.255 . S
O363 Fe352 1.976 . S
O363 C370 1.287 . S
O364 Fe353 1.996 . S
O364 C370 1.255 . S
O365 Fe355 1.976 . S
O365 C360 1.287 . S
O366 Fe352 1.996 . S
O366 C360 1.255 . S
C367 O371 1.295 . S
C367 O372 1.235 . S
O368 Fe353 1.976 . S
O368 C362 1.287 . S
O369 Fe355 1.996 . S
O369 C362 1.255 . S
C370 O363 1.287 . S
C370 O364 1.255 . S
O371 Fe353 2.002 . S
O371 C367 1.295 . S
O372 Fe355 1.997 . S
O372 C367 1.235 . S
C373 O356 1.295 . S
C373 O357 1.235 . S
Fe374 O376 1.918 . S
Fe374 O379 1.997 . S
Fe374 O380 2.002 . S
Fe374 O385 1.976 . S
Fe374 O388 1.996 . S
Fe375 O376 1.923 . S
Fe375 O383 2.008 . S
Fe375 O386 1.995 1_554 S
Fe375 O390 1.964 1_554 S
Fe375 O393 2.002 1_554 S
O376 Fe374 1.918 . S
O376 Fe375 1.923 . S
O376 Fe377 1.918 . S
Fe377 O376 1.918 . S
Fe377 O378 2.002 . S
Fe377 O387 1.976 . S
Fe377 O391 1.996 1_554 S
Fe377 O394 1.997 . S
O378 Fe377 2.002 . S
O378 C395 1.295 . S
O379 Fe374 1.997 . S
O379 C395 1.235 . S
O380 Fe374 2.002 . S
O380 C381 1.295 . S
C381 O380 1.295 . S
C381 O383 1.235 . S
C382 O387 1.287 . S
C382 O388 1.255 . S
O383 Fe375 2.008 . S
O383 C381 1.235 . S
C384 O390 1.287 . S
C384 O391 1.255 . S
O385 Fe374 1.976 . S
O385 C392 1.287 . S
O386 Fe375 1.995 1_556 S
O386 C392 1.255 1_556 S
O387 Fe377 1.976 . S
O387 C382 1.287 . S
O388 Fe374 1.996 . S
O388 C382 1.255 . S
C389 O393 1.294 1_554 S
C389 O394 1.235 . S
O390 Fe375 1.964 1_556 S
O390 C384 1.287 . S
O391 Fe377 1.996 1_556 S
O391 C384 1.255 . S
C392 O385 1.287 . S
C392 O386 1.255 1_554 S
O393 Fe375 2.002 1_556 S
O393 C389 1.294 1_556 S
O394 Fe377 1.997 . S
O394 C389 1.235 . S
C395 O378 1.295 . S
C395 O379 1.235 . S
Fe396 O398 1.918 . S
Fe396 O401 1.997 . S
Fe396 O402 2.002 . S
Fe396 O407 1.976 . S
Fe396 O410 1.996 . S
Fe397 O398 1.918 . S
Fe397 O405 1.997 . S
Fe397 O408 1.996 . S
Fe397 O412 1.976 . S
Fe397 O415 2.002 . S
O398 Fe396 1.918 . S
O398 Fe397 1.918 . S
O398 Fe399 1.918 . S
Fe399 O398 1.918 . S
Fe399 O400 2.002 . S
Fe399 O409 1.976 . S
Fe399 O413 1.996 . S
Fe399 O416 1.997 . S
O400 Fe399 2.002 . S
O400 C417 1.295 . S
O401 Fe396 1.997 . S
O401 C417 1.235 . S
O402 Fe396 2.002 . S
O402 C403 1.295 . S
C403 O402 1.295 . S
C403 O405 1.235 . S
C404 O409 1.287 . S
C404 O410 1.255 . S
O405 Fe397 1.997 . S
O405 C403 1.235 . S
C406 O412 1.287 . S
C406 O413 1.255 . S
O407 Fe396 1.976 . S
O407 C414 1.287 . S
O408 Fe397 1.996 . S
O408 C414 1.255 . S
O409 Fe399 1.976 . S
O409 C404 1.287 . S
O410 Fe396 1.996 . S
O410 C404 1.255 . S
C411 O415 1.295 . S
C411 O416 1.235 . S
O412 Fe397 1.976 . S
O412 C406 1.287 . S
O413 Fe399 1.996 . S
O413 C406 1.255 . S
C414 O407 1.287 . S
C414 O408 1.255 . S
O415 Fe397 2.002 . S
O415 C411 1.295 . S
O416 Fe399 1.997 . S
O416 C411 1.235 . S
C417 O400 1.295 . S
C417 O401 1.235 . S
Fe418 O420 1.918 . S
Fe418 O423 1.997 . S
Fe418 O424 2.002 . S
Fe418 O429 1.976 . S
Fe418 O432 1.996 . S
Fe419 O420 1.918 . S
Fe419 O427 1.997 . S
Fe419 O430 1.996 . S
Fe419 O434 1.976 . S
Fe419 O437 2.002 . S
O420 Fe418 1.918 . S
O420 Fe419 1.918 . S
O420 Fe421 1.918 . S
Fe421 O420 1.918 . S
Fe421 O422 2.002 . S
Fe421 O431 1.976 . S
Fe421 O435 1.996 . S
Fe421 O438 1.997 . S
O422 Fe421 2.002 . S
O422 C439 1.295 . S
O423 Fe418 1.997 . S
O423 C439 1.235 . S
O424 Fe418 2.002 . S
O424 C425 1.295 . S
C425 O424 1.295 . S
C425 O427 1.235 . S
C426 O431 1.287 . S
C426 O432 1.255 . S
O427 Fe419 1.997 . S
O427 C425 1.235 . S
C428 O434 1.287 . S
C428 O435 1.255 . S
O429 Fe418 1.976 . S
O429 C436 1.287 . S
O430 Fe419 1.996 . S
O430 C436 1.255 . S
O431 Fe421 1.976 . S
O431 C426 1.287 . S
O432 Fe418 1.996 . S
O432 C426 1.255 . S
C433 O437 1.295 . S
C433 O438 1.235 . S
O434 Fe419 1.976 . S
O434 C428 1.287 . S
O435 Fe421 1.996 . S
O435 C428 1.255 . S
C436 O429 1.287 . S
C436 O430 1.255 . S
O437 Fe419 2.002 . S
O437 C433 1.295 . S
O438 Fe421 1.997 . S
O438 C433 1.235 . S
C439 O422 1.295 . S
C439 O423 1.235 . S
Fe440 O442 1.918 . S
Fe440 O445 1.997 . S
Fe440 O446 2.002 . S
Fe440 O451 1.976 . S
Fe440 O454 1.996 . S
Fe441 O442 1.918 . S
Fe441 O449 1.997 . S
Fe441 O452 1.996 . S
Fe441 O456 1.976 . S
Fe441 O459 2.002 . S
O442 Fe440 1.918 . S
O442 Fe441 1.918 . S
O442 Fe443 1.918 . S
Fe443 O442 1.918 . S
Fe443 O444 2.002 . S
Fe443 O453 1.976 . S
Fe443 O457 1.996 . S
Fe443 O460 1.997 . S
O444 Fe443 2.002 . S
O444 C461 1.295 . S
O445 Fe440 1.997 . S
O445 C461 1.235 . S
O446 Fe440 2.002 . S
O446 C447 1.295 . S
C447 O446 1.295 . S
C447 O449 1.235 . S
C448 O453 1.287 . S
C448 O454 1.255 . S
O449 Fe441 1.997 . S
O449 C447 1.235 . S
C450 O456 1.287 . S
C450 O457 1.255 . S
O451 Fe440 1.976 . S
O451 C458 1.287 . S
O452 Fe441 1.996 . S
O452 C458 1.255 . S
O453 Fe443 1.976 . S
O453 C448 1.287 . S
O454 Fe440 1.996 . S
O454 C448 1.255 . S
C455 O459 1.295 . S
C455 O460 1.235 . S
O456 Fe441 1.976 . S
O456 C450 1.287 . S
O457 Fe443 1.996 . S
O457 C450 1.255 . S
C458 O451 1.287 . S
C458 O452 1.255 . S
O459 Fe441 2.002 . S
O459 C455 1.295 . S
O460 Fe443 1.997 . S
O460 C455 1.235 . S
C461 O444 1.295 . S
C461 O445 1.235 . S
Fe462 O464 1.918 . S
Fe462 O467 1.997 . S
Fe462 O468 2.002 . S
Fe462 O473 1.976 . S
Fe462 O476 1.996 1_556 S
Fe463 O464 1.918 . S
Fe463 O471 1.997 . S
Fe463 O474 1.996 . S
Fe463 O478 1.976 . S
Fe463 O481 2.002 . S
O464 Fe462 1.918 . S
O464 Fe463 1.918 . S
O464 Fe465 1.923 . S
Fe465 O464 1.923 . S
Fe465 O466 2.002 1_556 S
Fe465 O475 1.964 1_556 S
Fe465 O479 1.995 1_556 S
Fe465 O482 2.008 . S
O466 Fe465 2.002 1_554 S
O466 C483 1.294 1_554 S
O467 Fe462 1.997 . S
O467 C483 1.235 . S
O468 Fe462 2.002 . S
O468 C469 1.295 . S
C469 O468 1.295 . S
C469 O471 1.235 . S
C470 O475 1.287 . S
C470 O476 1.255 . S
O471 Fe463 1.997 . S
O471 C469 1.235 . S
C472 O478 1.287 . S
C472 O479 1.255 1_556 S
O473 Fe462 1.976 . S
O473 C480 1.287 . S
O474 Fe463 1.996 . S
O474 C480 1.255 . S
O475 Fe465 1.964 1_554 S
O475 C470 1.287 . S
O476 Fe462 1.996 1_554 S
O476 C470 1.255 . S
C477 O481 1.295 . S
C477 O482 1.235 . S
O478 Fe463 1.976 . S
O478 C472 1.287 . S
O479 Fe465 1.995 1_554 S
O479 C472 1.255 1_554 S
C480 O473 1.287 . S
C480 O474 1.255 . S
O481 Fe463 2.002 . S
O481 C477 1.295 . S
O482 Fe465 2.008 . S
O482 C477 1.235 . S
C483 O466 1.294 1_556 S
C483 O467 1.235 . S
Fe484 O486 1.918 . S
Fe484 O489 1.997 . S
Fe484 O490 2.002 . S
Fe484 O495 1.976 . S
Fe484 O498 1.996 . S
Fe485 O486 1.918 . S
Fe485 O493 1.997 . S
Fe485 O496 1.996 . S
Fe485 O500 1.976 . S
Fe485 O503 2.002 . S
O486 Fe484 1.918 . S
O486 Fe485 1.918 . S
O486 Fe487 1.918 . S
Fe487 O486 1.918 . S
Fe487 O488 2.002 . S
Fe487 O497 1.976 . S
Fe487 O501 1.996 . S
Fe487 O504 1.997 . S
O488 Fe487 2.002 . S
O488 C505 1.295 . S
O489 Fe484 1.997 . S
O489 C505 1.235 . S
O490 Fe484 2.002 . S
O490 C491 1.295 . S
C491 O490 1.295 . S
C491 O493 1.235 . S
C492 O497 1.287 . S
C492 O498 1.255 . S
O493 Fe485 1.997 . S
O493 C491 1.235 . S
C494 O500 1.287 . S
C494 O501 1.255 . S
O495 Fe484 1.976 . S
O495 C502 1.287 . S
O496 Fe485 1.996 . S
O496 C502 1.255 . S
O497 Fe487 1.976 . S
O497 C492 1.287 . S
O498 Fe484 1.996 . S
O498 C492 1.255 . S
C499 O503 1.295 . S
C499 O504 1.235 . S
O500 Fe485 1.976 . S
O500 C494 1.287 . S
O501 Fe487 1.996 . S
O501 C494 1.255 . S
C502 O495 1.287 . S
C502 O496 1.255 . S
O503 Fe485 2.002 . S
O503 C499 1.295 . S
O504 Fe487 1.997 . S
O504 C499 1.235 . S
C505 O488 1.295 . S
C505 O489 1.235 . S
Fe506 O508 1.918 . S
Fe506 O511 1.997 . S
Fe506 O512 2.002 . S
Fe506 O517 1.976 . S
Fe506 O520 1.996 . S
Fe507 O508 1.918 . S
Fe507 O515 1.997 . S
Fe507 O518 1.996 . S
Fe507 O522 1.976 . S
Fe507 O525 2.002 . S
O508 Fe506 1.918 . S
O508 Fe507 1.918 . S
O508 Fe509 1.918 . S
Fe509 O508 1.918 . S
Fe509 O510 2.002 . S
Fe509 O519 1.976 . S
Fe509 O523 1.996 . S
Fe509 O526 1.997 . S
O510 Fe509 2.002 . S
O510 C527 1.295 . S
O511 Fe506 1.997 . S
O511 C527 1.235 . S
O512 Fe506 2.002 . S
O512 C513 1.295 . S
C513 O512 1.295 . S
C513 O515 1.235 . S
C514 O519 1.287 . S
C514 O520 1.255 . S
O515 Fe507 1.997 . S
O515 C513 1.235 . S
C516 O522 1.287 . S
C516 O523 1.255 . S
O517 Fe506 1.976 . S
O517 C524 1.287 . S
O518 Fe507 1.996 . S
O518 C524 1.255 . S
O519 Fe509 1.976 . S
O519 C514 1.287 . S
O520 Fe506 1.996 . S
O520 C514 1.255 . S
C521 O525 1.295 . S
C521 O526 1.235 . S
O522 Fe507 1.976 . S
O522 C516 1.287 . S
O523 Fe509 1.996 . S
O523 C516 1.255 . S
C524 O517 1.287 . S
C524 O518 1.255 . S
O525 Fe507 2.002 . S
O525 C521 1.295 . S
O526 Fe509 1.997 . S
O526 C521 1.235 . S
C527 O510 1.295 . S
C527 O511 1.235 . S
Fe528 O530 1.918 . S
Fe528 O533 1.997 . S
Fe528 O534 2.002 . S
Fe528 O539 1.976 . S
Fe528 O542 1.996 . S
Fe529 O530 1.918 . S
Fe529 O537 1.997 . S
Fe529 O540 1.996 . S
Fe529 O544 1.976 . S
Fe529 O547 2.002 . S
O530 Fe528 1.918 . S
O530 Fe529 1.918 . S
O530 Fe531 1.918 . S
Fe531 O530 1.918 . S
Fe531 O532 2.002 . S
Fe531 O541 1.976 . S
Fe531 O545 1.996 . S
Fe531 O548 1.997 . S
O532 Fe531 2.002 . S
O532 C549 1.295 . S
O533 Fe528 1.997 . S
O533 C549 1.235 . S
O534 Fe528 2.002 . S
O534 C535 1.295 . S
C535 O534 1.295 . S
C535 O537 1.235 . S
C536 O541 1.287 . S
C536 O542 1.255 . S
O537 Fe529 1.997 . S
O537 C535 1.235 . S
C538 O544 1.287 . S
C538 O545 1.255 . S
O539 Fe528 1.976 . S
O539 C546 1.287 . S
O540 Fe529 1.996 . S
O540 C546 1.255 . S
O541 Fe531 1.976 . S
O541 C536 1.287 . S
O542 Fe528 1.996 . S
O542 C536 1.255 . S
C543 O547 1.295 . S
C543 O548 1.235 . S
O544 Fe529 1.976 . S
O544 C538 1.287 . S
O545 Fe531 1.996 . S
O545 C538 1.255 . S
C546 O539 1.287 . S
C546 O540 1.255 . S
O547 Fe529 2.002 . S
O547 C543 1.295 . S
O548 Fe531 1.997 . S
O548 C543 1.235 . S
C549 O532 1.295 . S
C549 O533 1.235 . S
Fe550 O552 1.919 . S
Fe550 O555 1.996 1_556 S
Fe550 O556 2.004 . S
Fe550 O561 1.976 1_556 S
Fe550 O564 1.994 1_556 S
Fe551 O552 1.918 . S
Fe551 O559 1.997 . S
Fe551 O562 1.996 . S
Fe551 O566 1.976 . S
Fe551 O569 2.002 . S
O552 Fe550 1.919 . S
O552 Fe551 1.918 . S
O552 Fe553 1.918 . S
Fe553 O552 1.918 . S
Fe553 O554 2.002 . S
Fe553 O563 1.976 1_556 S
Fe553 O567 1.996 . S
Fe553 O570 1.997 . S
O554 Fe553 2.002 . S
O554 C571 1.295 . S
O555 Fe550 1.996 1_554 S
O555 C571 1.233 1_554 S
O556 Fe550 2.004 . S
O556 C557 1.295 . S
C557 O556 1.295 . S
C557 O559 1.235 . S
C558 O563 1.287 . S
C558 O564 1.255 . S
O559 Fe551 1.997 . S
O559 C557 1.235 . S
C560 O566 1.287 . S
C560 O567 1.255 . S
O561 Fe550 1.976 1_554 S
O561 C568 1.287 1_554 S
O562 Fe551 1.996 . S
O562 C568 1.255 . S
O563 Fe553 1.976 1_554 S
O563 C558 1.287 . S
O564 Fe550 1.994 1_554 S
O564 C558 1.255 . S
C565 O569 1.295 . S
C565 O570 1.235 . S
O566 Fe551 1.976 . S
O566 C560 1.287 . S
O567 Fe553 1.996 . S
O567 C560 1.255 . S
C568 O561 1.287 1_556 S
C568 O562 1.255 . S
O569 Fe551 2.002 . S
O569 C565 1.295 . S
O570 Fe553 1.997 . S
O570 C565 1.235 . S
C571 O554 1.295 . S
C571 O555 1.233 1_556 S
Fe572 O574 1.918 . S
Fe572 O577 1.997 . S
Fe572 O578 2.002 . S
Fe572 O583 1.976 . S
Fe572 O586 1.996 . S
Fe573 O574 1.918 . S
Fe573 O581 1.997 . S
Fe573 O584 1.996 . S
Fe573 O588 1.976 . S
Fe573 O591 2.002 . S
O574 Fe572 1.918 . S
O574 Fe573 1.918 . S
O574 Fe575 1.918 . S
Fe575 O574 1.918 . S
Fe575 O576 2.002 . S
Fe575 O585 1.976 . S
Fe575 O589 1.996 . S
Fe575 O592 1.997 . S
O576 Fe575 2.002 . S
O576 C593 1.295 . S
O577 Fe572 1.997 . S
O577 C593 1.235 . S
O578 Fe572 2.002 . S
O578 C579 1.295 . S
C579 O578 1.295 . S
C579 O581 1.235 . S
C580 O585 1.287 . S
C580 O586 1.255 . S
O581 Fe573 1.997 . S
O581 C579 1.235 . S
C582 O588 1.287 . S
C582 O589 1.255 . S
O583 Fe572 1.976 . S
O583 C590 1.287 . S
O584 Fe573 1.996 . S
O584 C590 1.255 . S
O585 Fe575 1.976 . S
O585 C580 1.287 . S
O586 Fe572 1.996 . S
O586 C580 1.255 . S
C587 O591 1.295 . S
C587 O592 1.235 . S
O588 Fe573 1.976 . S
O588 C582 1.287 . S
O589 Fe575 1.996 . S
O589 C582 1.255 . S
C590 O583 1.287 . S
C590 O584 1.255 . S
O591 Fe573 2.002 . S
O591 C587 1.295 . S
O592 Fe575 1.997 . S
O592 C587 1.235 . S
C593 O576 1.295 . S
C593 O577 1.235 . S
Fe594 O596 1.918 . S
Fe594 O599 1.997 . S
Fe594 O600 2.002 . S
Fe594 O605 1.976 . S
Fe594 O608 1.996 . S
Fe595 O596 1.918 . S
Fe595 O603 1.997 . S
Fe595 O606 1.996 . S
Fe595 O610 1.976 . S
Fe595 O613 2.002 . S
O596 Fe594 1.918 . S
O596 Fe595 1.918 . S
O596 Fe597 1.918 . S
Fe597 O596 1.918 . S
Fe597 O598 2.002 . S
Fe597 O607 1.976 . S
Fe597 O611 1.996 . S
Fe597 O614 1.997 . S
O598 Fe597 2.002 . S
O598 C615 1.295 . S
O599 Fe594 1.997 . S
O599 C615 1.235 . S
O600 Fe594 2.002 . S
O600 C601 1.295 . S
C601 O600 1.295 . S
C601 O603 1.235 . S
C602 O607 1.287 . S
C602 O608 1.255 . S
O603 Fe595 1.997 . S
O603 C601 1.235 . S
C604 O610 1.287 . S
C604 O611 1.255 . S
O605 Fe594 1.976 . S
O605 C612 1.287 . S
O606 Fe595 1.996 . S
O606 C612 1.255 . S
O607 Fe597 1.976 . S
O607 C602 1.287 . S
O608 Fe594 1.996 . S
O608 C602 1.255 . S
C609 O613 1.295 . S
C609 O614 1.235 . S
O610 Fe595 1.976 . S
O610 C604 1.287 . S
O611 Fe597 1.996 . S
O611 C604 1.255 . S
C612 O605 1.287 . S
C612 O606 1.255 . S
O613 Fe595 2.002 . S
O613 C609 1.295 . S
O614 Fe597 1.997 . S
O614 C609 1.235 . S
C615 O598 1.295 . S
C615 O599 1.235 . S
Fe616 O618 1.918 . S
Fe616 O621 1.997 . S
Fe616 O622 2.002 . S
Fe616 O627 1.976 . S
Fe616 O630 1.996 . S
Fe617 O618 1.918 . S
Fe617 O625 1.997 . S
Fe617 O628 1.996 . S
Fe617 O632 1.976 . S
Fe617 O635 2.002 . S
O618 Fe616 1.918 . S
O618 Fe617 1.918 . S
O618 Fe619 1.918 . S
Fe619 O618 1.918 . S
Fe619 O620 2.002 . S
Fe619 O629 1.976 . S
Fe619 O633 1.996 . S
Fe619 O636 1.997 . S
O620 Fe619 2.002 . S
O620 C637 1.295 . S
O621 Fe616 1.997 . S
O621 C637 1.235 . S
O622 Fe616 2.002 . S
O622 C623 1.295 . S
C623 O622 1.295 . S
C623 O625 1.235 . S
C624 O629 1.287 . S
C624 O630 1.255 . S
O625 Fe617 1.997 . S
O625 C623 1.235 . S
C626 O632 1.287 . S
C626 O633 1.255 . S
O627 Fe616 1.976 . S
O627 C634 1.287 . S
O628 Fe617 1.996 . S
O628 C634 1.255 . S
O629 Fe619 1.976 . S
O629 C624 1.287 . S
O630 Fe616 1.996 . S
O630 C624 1.255 . S
C631 O635 1.295 . S
C631 O636 1.235 . S
O632 Fe617 1.976 . S
O632 C626 1.287 . S
O633 Fe619 1.996 . S
O633 C626 1.255 . S
C634 O627 1.287 . S
C634 O628 1.255 . S
O635 Fe617 2.002 . S
O635 C631 1.295 . S
O636 Fe619 1.997 . S
O636 C631 1.235 . S
C637 O620 1.295 . S
C637 O621 1.235 . S
Fe638 O640 1.918 . S
Fe638 O643 1.997 . S
Fe638 O644 2.002 . S
Fe638 O649 1.976 1_554 S
Fe638 O652 1.996 . S
Fe639 O640 1.919 . S
Fe639 O647 1.996 1_554 S
Fe639 O650 1.994 1_554 S
Fe639 O654 1.976 1_554 S
Fe639 O657 2.004 . S
O640 Fe638 1.918 . S
O640 Fe639 1.919 . S
O640 Fe641 1.918 . S
Fe641 O640 1.918 . S
Fe641 O642 2.002 . S
Fe641 O651 1.976 . S
Fe641 O655 1.996 . S
Fe641 O658 1.997 . S
O642 Fe641 2.002 . S
O642 C659 1.295 . S
O643 Fe638 1.997 . S
O643 C659 1.235 . S
O644 Fe638 2.002 . S
O644 C645 1.295 . S
C645 O644 1.295 . S
C645 O647 1.233 1_554 S
C646 O651 1.287 . S
C646 O652 1.255 . S
O647 Fe639 1.996 1_556 S
O647 C645 1.233 1_556 S
C648 O654 1.287 1_554 S
C648 O655 1.255 . S
O649 Fe638 1.976 1_556 S
O649 C656 1.287 . S
O650 Fe639 1.994 1_556 S
O650 C656 1.255 . S
O651 Fe641 1.976 . S
O651 C646 1.287 . S
O652 Fe638 1.996 . S
O652 C646 1.255 . S
C653 O657 1.295 . S
C653 O658 1.235 . S
O654 Fe639 1.976 1_556 S
O654 C648 1.287 1_556 S
O655 Fe641 1.996 . S
O655 C648 1.255 . S
C656 O649 1.287 . S
C656 O650 1.255 . S
O657 Fe639 2.004 . S
O657 C653 1.295 . S
O658 Fe641 1.997 . S
O658 C653 1.235 . S
C659 O642 1.295 . S
C659 O643 1.235 . S
Fe660 O662 1.918 . S
Fe660 O665 1.997 . S
Fe660 O666 2.002 . S
Fe660 O671 1.976 . S
Fe660 O674 1.996 . S
Fe661 O662 1.918 . S
Fe661 O669 1.997 . S
Fe661 O672 1.996 . S
Fe661 O676 1.976 . S
Fe661 O679 2.002 . S
O662 Fe660 1.918 . S
O662 Fe661 1.918 . S
O662 Fe663 1.918 . S
Fe663 O662 1.918 . S
Fe663 O664 2.002 . S
Fe663 O673 1.976 . S
Fe663 O677 1.996 . S
Fe663 O680 1.997 . S
O664 Fe663 2.002 . S
O664 C681 1.295 . S
O665 Fe660 1.997 . S
O665 C681 1.235 . S
O666 Fe660 2.002 . S
O666 C667 1.295 . S
C667 O666 1.295 . S
C667 O669 1.235 . S
C668 O673 1.287 . S
C668 O674 1.255 . S
O669 Fe661 1.997 . S
O669 C667 1.235 . S
C670 O676 1.287 . S
C670 O677 1.255 . S
O671 Fe660 1.976 . S
O671 C678 1.287 . S
O672 Fe661 1.996 . S
O672 C678 1.255 . S
O673 Fe663 1.976 . S
O673 C668 1.287 . S
O674 Fe660 1.996 . S
O674 C668 1.255 . S
C675 O679 1.295 . S
C675 O680 1.235 . S
O676 Fe661 1.976 . S
O676 C670 1.287 . S
O677 Fe663 1.996 . S
O677 C670 1.255 . S
C678 O671 1.287 . S
C678 O672 1.255 . S
O679 Fe661 2.002 . S
O679 C675 1.295 . S
O680 Fe663 1.997 . S
O680 C675 1.235 . S
C681 O664 1.295 . S
C681 O665 1.235 . S
Fe682 O684 1.918 . S
Fe682 O687 1.997 . S
Fe682 O688 2.002 . S
Fe682 O693 1.976 . S
Fe682 O696 1.996 . S
Fe683 O684 1.918 . S
Fe683 O691 1.997 . S
Fe683 O694 1.996 . S
Fe683 O698 1.976 . S
Fe683 O701 2.002 . S
O684 Fe682 1.918 . S
O684 Fe683 1.918 . S
O684 Fe685 1.918 . S
Fe685 O684 1.918 . S
Fe685 O686 2.002 . S
Fe685 O695 1.976 . S
Fe685 O699 1.996 . S
Fe685 O702 1.997 . S
O686 Fe685 2.002 . S
O686 C703 1.295 . S
O687 Fe682 1.997 . S
O687 C703 1.235 . S
O688 Fe682 2.002 . S
O688 C689 1.295 . S
C689 O688 1.295 . S
C689 O691 1.235 . S
C690 O695 1.287 . S
C690 O696 1.255 . S
O691 Fe683 1.997 . S
O691 C689 1.235 . S
C692 O698 1.287 . S
C692 O699 1.255 . S
O693 Fe682 1.976 . S
O693 C700 1.287 . S
O694 Fe683 1.996 . S
O694 C700 1.255 . S
O695 Fe685 1.976 . S
O695 C690 1.287 . S
O696 Fe682 1.996 . S
O696 C690 1.255 . S
C697 O701 1.295 . S
C697 O702 1.235 . S
O698 Fe683 1.976 . S
O698 C692 1.287 . S
O699 Fe685 1.996 . S
O699 C692 1.255 . S
C700 O693 1.287 . S
C700 O694 1.255 . S
O701 Fe683 2.002 . S
O701 C697 1.295 . S
O702 Fe685 1.997 . S
O702 C697 1.235 . S
C703 O686 1.295 . S
C703 O687 1.235 . S
C704 C705 1.387 . S
C704 H708 0.950 . S
C704 C713 1.390 1_545 S
C705 C704 1.387 . S
C705 C707 1.387 . S
H706 C713 0.950 . S
C707 C705 1.387 . S
C707 C709 1.390 1_545 S
C707 H711 0.950 . S
H708 C704 0.950 . S
C709 C707 1.390 1_565 S
C709 C710 1.387 . S
C709 H712 0.950 . S
C710 C709 1.387 . S
C710 C713 1.387 . S
H711 C707 0.950 . S
H712 C709 0.950 . S
C713 C704 1.390 1_565 S
C713 H706 0.950 . S
C713 C710 1.387 . S
C714 C715 1.387 . S
C714 H718 0.950 . S
C714 C723 1.390 . S
C715 C714 1.387 . S
C715 C717 1.387 . S
H716 C723 0.950 . S
C717 C715 1.387 . S
C717 C719 1.390 . S
C717 H721 0.950 . S
H718 C714 0.950 . S
C719 C717 1.390 . S
C719 C720 1.387 . S
C719 H722 0.950 . S
C720 C719 1.387 . S
C720 C723 1.387 . S
H721 C717 0.950 . S
H722 C719 0.950 . S
C723 C714 1.390 . S
C723 H716 0.950 . S
C723 C720 1.387 . S
C724 C725 1.387 . S
C724 H728 0.950 . S
C724 C733 1.390 1_545 S
C725 C724 1.387 . S
C725 C727 1.387 . S
H726 C733 0.950 . S
C727 C725 1.387 . S
C727 C729 1.390 1_545 S
C727 H731 0.950 . S
H728 C724 0.950 . S
C729 C727 1.390 1_565 S
C729 C730 1.387 . S
C729 H732 0.950 . S
C730 C729 1.387 . S
C730 C733 1.387 . S
H731 C727 0.950 . S
H732 C729 0.950 . S
C733 C724 1.390 1_565 S
C733 H726 0.950 . S
C733 C730 1.387 . S
C734 C735 1.387 . S
C734 H738 0.950 . S
C734 C743 1.390 1_554 S
C735 C734 1.387 . S
C735 C737 1.387 . S
H736 C743 0.950 . S
C737 C735 1.387 . S
C737 C739 1.390 1_554 S
C737 H741 0.950 . S
H738 C734 0.950 . S
C739 C737 1.390 1_556 S
C739 C740 1.387 . S
C739 H742 0.950 . S
C740 C739 1.387 . S
C740 C743 1.387 . S
H741 C737 0.950 . S
H742 C739 0.950 . S
C743 C734 1.390 1_556 S
C743 H736 0.950 . S
C743 C740 1.387 . S
C744 C745 1.387 . S
C744 H748 0.950 . S
C744 C753 1.390 1_565 S
C745 C744 1.387 . S
C745 C747 1.387 . S
H746 C753 0.950 . S
C747 C745 1.387 . S
C747 C749 1.390 1_565 S
C747 H751 0.950 . S
H748 C744 0.950 . S
C749 C747 1.390 1_545 S
C749 C750 1.387 . S
C749 H752 0.950 . S
C750 C749 1.387 . S
C750 C753 1.387 . S
H751 C747 0.950 . S
H752 C749 0.950 . S
C753 C744 1.390 1_545 S
C753 H746 0.950 . S
C753 C750 1.387 . S
C754 C755 1.387 . S
C754 H758 0.950 . S
C754 C763 1.390 . S
C755 C754 1.387 . S
C755 C757 1.387 . S
H756 C763 0.950 . S
C757 C755 1.387 . S
C757 C759 1.390 . S
C757 H761 0.950 . S
H758 C754 0.950 . S
C759 C757 1.390 . S
C759 C760 1.387 . S
C759 H762 0.950 . S
C760 C759 1.387 . S
C760 C763 1.387 . S
H761 C757 0.950 . S
H762 C759 0.950 . S
C763 C754 1.390 . S
C763 H756 0.950 . S
C763 C760 1.387 . S
C764 C765 1.387 . S
C764 H768 0.950 . S
C764 C773 1.390 1_545 S
C765 C764 1.387 . S
C765 C767 1.387 . S
H766 C773 0.950 . S
C767 C765 1.387 . S
C767 C769 1.390 1_545 S
C767 H771 0.950 . S
H768 C764 0.950 . S
C769 C767 1.390 1_565 S
C769 C770 1.387 . S
C769 H772 0.950 . S
C770 C769 1.387 . S
C770 C773 1.387 . S
H771 C767 0.950 . S
H772 C769 0.950 . S
C773 C764 1.390 1_565 S
C773 H766 0.950 . S
C773 C770 1.387 . S
C774 C775 1.387 . S
C774 H778 0.950 . S
C774 C783 1.390 1_554 S
C775 C774 1.387 . S
C775 C777 1.387 . S
H776 C783 0.950 . S
C777 C775 1.387 . S
C777 C779 1.390 1_554 S
C777 H781 0.950 . S
H778 C774 0.950 . S
C779 C777 1.390 1_556 S
C779 C780 1.387 . S
C779 H782 0.950 . S
C780 C779 1.387 . S
C780 C783 1.387 . S
H781 C777 0.950 . S
H782 C779 0.950 . S
C783 C774 1.390 1_556 S
C783 H776 0.950 . S
C783 C780 1.387 . S
C784 C785 1.387 . S
C784 H788 0.950 . S
C784 C793 1.390 . S
C785 C784 1.387 . S
C785 C787 1.387 . S
H786 C793 0.950 . S
C787 C785 1.387 . S
C787 C789 1.390 . S
C787 H791 0.950 . S
H788 C784 0.950 . S
C789 C787 1.390 . S
C789 C790 1.387 . S
C789 H792 0.950 . S
C790 C789 1.387 . S
C790 C793 1.387 . S
H791 C787 0.950 . S
H792 C789 0.950 . S
C793 C784 1.390 . S
C793 H786 0.950 . S
C793 C790 1.387 . S
C794 C795 1.387 . S
C794 H798 0.950 . S
C794 C803 1.390 1_556 S
C795 C794 1.387 . S
C795 C797 1.387 . S
H796 C803 0.950 . S
C797 C795 1.387 . S
C797 C799 1.390 1_556 S
C797 H801 0.950 . S
H798 C794 0.950 . S
C799 C797 1.390 1_554 S
C799 C800 1.387 . S
C799 H802 0.950 . S
C800 C799 1.387 . S
C800 C803 1.387 . S
H801 C797 0.950 . S
H802 C799 0.950 . S
C803 C794 1.390 1_554 S
C803 H796 0.950 . S
C803 C800 1.387 . S
C804 C805 1.387 . S
C804 H808 0.950 . S
C804 C813 1.390 . S
C805 C804 1.387 . S
C805 C807 1.387 . S
H806 C813 0.950 . S
C807 C805 1.387 . S
C807 C809 1.390 . S
C807 H811 0.950 . S
H808 C804 0.950 . S
C809 C807 1.390 . S
C809 C810 1.387 . S
C809 H812 0.950 . S
C810 C809 1.387 . S
C810 C813 1.387 . S
H811 C807 0.950 . S
H812 C809 0.950 . S
C813 C804 1.390 . S
C813 H806 0.950 . S
C813 C810 1.387 . S
C814 C815 1.387 . S
C814 H818 0.950 . S
C814 C823 1.390 . S
C815 C814 1.387 . S
C815 C817 1.387 . S
H816 C823 0.950 . S
C817 C815 1.387 . S
C817 C819 1.390 . S
C817 H821 0.950 . S
H818 C814 0.950 . S
C819 C817 1.390 . S
C819 C820 1.387 . S
C819 H822 0.950 . S
C820 C819 1.387 . S
C820 C823 1.387 . S
H821 C817 0.950 . S
H822 C819 0.950 . S
C823 C814 1.390 . S
C823 H816 0.950 . S
C823 C820 1.387 . S
C824 C825 1.387 . S
C824 H828 0.950 . S
C824 C833 1.390 . S
C825 C824 1.387 . S
C825 C827 1.387 . S
H826 C833 0.950 . S
C827 C825 1.387 . S
C827 C829 1.390 . S
C827 H831 0.950 . S
H828 C824 0.950 . S
C829 C827 1.390 . S
C829 C830 1.387 . S
C829 H832 0.950 . S
C830 C829 1.387 . S
C830 C833 1.387 . S
H831 C827 0.950 . S
H832 C829 0.950 . S
C833 C824 1.390 . S
C833 H826 0.950 . S
C833 C830 1.387 . S
C834 C835 1.387 . S
C834 H838 0.950 . S
C834 C843 1.390 1_556 S
C835 C834 1.387 . S
C835 C837 1.387 . S
H836 C843 0.950 . S
C837 C835 1.387 . S
C837 C839 1.390 1_556 S
C837 H841 0.950 . S
H838 C834 0.950 . S
C839 C837 1.390 1_554 S
C839 C840 1.387 . S
C839 H842 0.950 . S
C840 C839 1.387 . S
C840 C843 1.387 . S
H841 C837 0.950 . S
H842 C839 0.950 . S
C843 C834 1.390 1_554 S
C843 H836 0.950 . S
C843 C840 1.387 . S
C844 C845 1.387 . S
C844 H848 0.950 . S
C844 C853 1.390 . S
C845 C844 1.387 . S
C845 C847 1.387 . S
H846 C853 0.950 . S
C847 C845 1.387 . S
C847 C849 1.390 . S
C847 H851 0.950 . S
H848 C844 0.950 . S
C849 C847 1.390 . S
C849 C850 1.387 . S
C849 H852 0.950 . S
C850 C849 1.387 . S
C850 C853 1.387 . S
H851 C847 0.950 . S
H852 C849 0.950 . S
C853 C844 1.390 . S
C853 H846 0.950 . S
C853 C850 1.387 . S
C854 C855 1.387 . S
C854 H858 0.950 . S
C854 C863 1.390 . S
C855 C854 1.387 . S
C855 C857 1.387 . S
H856 C863 0.950 . S
C857 C855 1.387 . S
C857 C859 1.390 . S
C857 H861 0.950 . S
H858 C854 0.950 . S
C859 C857 1.390 . S
C859 C860 1.387 . S
C859 H862 0.950 . S
C860 C859 1.387 . S
C860 C863 1.387 . S
H861 C857 0.950 . S
H862 C859 0.950 . S
C863 C854 1.390 . S
C863 H856 0.950 . S
C863 C860 1.387 . S
C864 C865 1.387 . S
C864 H868 0.950 . S
C864 C873 1.390 . S
C865 C864 1.387 . S
C865 C867 1.387 . S
H866 C873 0.950 . S
C867 C865 1.387 . S
C867 C869 1.390 . S
C867 H871 0.950 . S
H868 C864 0.950 . S
C869 C867 1.390 . S
C869 C870 1.387 . S
C869 H872 0.950 . S
C870 C869 1.387 . S
C870 C873 1.387 . S
H871 C867 0.950 . S
H872 C869 0.950 . S
C873 C864 1.390 . S
C873 H866 0.950 . S
C873 C870 1.387 . S
C874 C875 1.387 . S
C874 H878 0.950 . S
C874 C883 1.386 1_645 S
C875 C874 1.387 . S
C875 C877 1.391 . S
H876 C883 0.950 . S
C877 C875 1.391 . S
C877 C879 1.387 1_645 S
C877 H881 0.950 . S
H878 C874 0.950 . S
C879 C877 1.387 1_465 S
C879 C880 1.387 . S
C879 H882 0.950 . S
C880 C879 1.387 . S
C880 C883 1.392 . S
H881 C877 0.950 . S
H882 C879 0.950 . S
C883 C874 1.386 1_465 S
C883 H876 0.950 . S
C883 C880 1.392 . S
C884 C885 1.387 . S
C884 H888 0.950 . S
C884 C893 1.390 . S
C885 C884 1.387 . S
C885 C887 1.387 . S
H886 C893 0.950 . S
C887 C885 1.387 . S
C887 C889 1.390 . S
C887 H891 0.950 . S
H888 C884 0.950 . S
C889 C887 1.390 . S
C889 C890 1.387 . S
C889 H892 0.950 . S
C890 C889 1.387 . S
C890 C893 1.387 . S
H891 C887 0.950 . S
H892 C889 0.950 . S
C893 C884 1.390 . S
C893 H886 0.950 . S
C893 C890 1.387 . S
C894 C895 1.391 . S
C894 H898 0.950 . S
C894 C903 1.387 1_545 S
C895 C894 1.391 . S
C895 C897 1.387 1_554 S
H896 C903 0.950 . S
C897 C895 1.387 1_556 S
C897 C899 1.388 1_545 S
C897 H901 0.950 . S
H898 C894 0.950 . S
C899 C897 1.388 1_565 S
C899 C900 1.390 . S
C899 H902 0.950 . S
C900 C899 1.390 . S
C900 C903 1.387 1_556 S
H901 C897 0.950 . S
H902 C899 0.950 . S
C903 C894 1.387 1_565 S
C903 H896 0.950 . S
C903 C900 1.387 1_554 S
C904 C905 1.387 . S
C904 H908 0.950 . S
C904 C913 1.390 . S
C905 C904 1.387 . S
C905 C907 1.387 . S
H906 C913 0.950 . S
C907 C905 1.387 . S
C907 C909 1.390 . S
C907 H911 0.950 . S
H908 C904 0.950 . S
C909 C907 1.390 . S
C909 C910 1.387 . S
C909 H912 0.950 . S
C910 C909 1.387 . S
C910 C913 1.387 . S
H911 C907 0.950 . S
H912 C909 0.950 . S
C913 C904 1.390 . S
C913 H906 0.950 . S
C913 C910 1.387 . S
C914 C915 1.387 1_545 S
C914 H918 0.950 . S
C914 C923 1.390 . S
C915 C914 1.387 1_565 S
C915 C917 1.387 . S
H916 C923 0.950 . S
C917 C915 1.387 . S
C917 C919 1.390 . S
C917 H921 0.950 . S
H918 C914 0.950 . S
C919 C917 1.390 . S
C919 C920 1.387 1_565 S
C919 H922 0.950 . S
C920 C919 1.387 1_545 S
C920 C923 1.387 . S
H921 C917 0.950 . S
H922 C919 0.950 . S
C923 C914 1.390 . S
C923 H916 0.950 . S
C923 C920 1.387 . S
C924 C925 1.387 . S
C924 H928 0.950 . S
C924 C933 1.390 . S
C925 C924 1.387 . S
C925 C927 1.387 . S
H926 C933 0.950 . S
C927 C925 1.387 . S
C927 C929 1.390 . S
C927 H931 0.950 . S
H928 C924 0.950 . S
C929 C927 1.390 . S
C929 C930 1.387 . S
C929 H932 0.950 . S
C930 C929 1.387 . S
C930 C933 1.387 . S
H931 C927 0.950 . S
H932 C929 0.950 . S
C933 C924 1.390 . S
C933 H926 0.950 . S
C933 C930 1.387 . S
C934 C935 1.387 1_556 S
C934 H938 0.950 . S
C934 C943 1.390 1_665 S
C935 C934 1.387 1_554 S
C935 C937 1.387 . S
H936 C943 0.950 . S
C937 C935 1.387 . S
C937 C939 1.390 1_665 S
C937 H941 0.950 . S
H938 C934 0.950 . S
C939 C937 1.390 1_445 S
C939 C940 1.387 1_554 S
C939 H942 0.950 . S
C940 C939 1.387 1_556 S
C940 C943 1.387 . S
H941 C937 0.950 . S
H942 C939 0.950 . S
C943 C934 1.390 1_445 S
C943 H936 0.950 . S
C943 C940 1.387 . S
C944 C945 1.387 . S
C944 H948 0.950 . S
C944 C953 1.390 . S
C945 C944 1.387 . S
C945 C947 1.387 . S
H946 C953 0.950 . S
C947 C945 1.387 . S
C947 C949 1.390 . S
C947 H951 0.950 . S
H948 C944 0.950 . S
C949 C947 1.390 . S
C949 C950 1.387 . S
C949 H952 0.950 . S
C950 C949 1.387 . S
C950 C953 1.387 . S
H951 C947 0.950 . S
H952 C949 0.950 . S
C953 C944 1.390 . S
C953 H946 0.950 . S
C953 C950 1.387 . S
C954 C955 1.387 . S
C954 H958 0.950 . S
C954 C963 1.390 . S
C955 C954 1.387 . S
C955 C957 1.387 . S
H956 C963 0.950 . S
C957 C955 1.387 . S
C957 C959 1.390 . S
C957 H961 0.950 . S
H958 C954 0.950 . S
C959 C957 1.390 . S
C959 C960 1.387 . S
C959 H962 0.950 . S
C960 C959 1.387 . S
C960 C963 1.387 . S
H961 C957 0.950 . S
H962 C959 0.950 . S
C963 C954 1.390 . S
C963 H956 0.950 . S
C963 C960 1.387 . S
C964 C965 1.387 . S
C964 H968 0.950 . S
C964 C973 1.390 . S
C965 C964 1.387 . S
C965 C967 1.387 . S
H966 C973 0.950 . S
C967 C965 1.387 . S
C967 C969 1.390 . S
C967 H971 0.950 . S
H968 C964 0.950 . S
C969 C967 1.390 . S
C969 C970 1.387 . S
C969 H972 0.950 . S
C970 C969 1.387 . S
C970 C973 1.387 . S
H971 C967 0.950 . S
H972 C969 0.950 . S
C973 C964 1.390 . S
C973 H966 0.950 . S
C973 C970 1.387 . S
C974 C975 1.387 . S
C974 H978 0.950 . S
C974 C983 1.390 . S
C975 C974 1.387 . S
C975 C977 1.387 . S
H976 C983 0.950 . S
C977 C975 1.387 . S
C977 C979 1.390 . S
C977 H981 0.950 . S
H978 C974 0.950 . S
C979 C977 1.390 . S
C979 C980 1.387 . S
C979 H982 0.950 . S
C980 C979 1.387 . S
C980 C983 1.387 . S
H981 C977 0.950 . S
H982 C979 0.950 . S
C983 C974 1.390 . S
C983 H976 0.950 . S
C983 C980 1.387 . S
C984 C985 1.387 1_556 S
C984 H988 0.950 . S
C984 C993 1.390 . S
C985 C984 1.387 1_554 S
C985 C987 1.387 . S
H986 C993 0.950 . S
C987 C985 1.387 . S
C987 C989 1.390 . S
C987 H991 0.950 . S
H988 C984 0.950 . S
C989 C987 1.390 . S
C989 C990 1.387 1_554 S
C989 H992 0.950 . S
C990 C989 1.387 1_556 S
C990 C993 1.387 . S
H991 C987 0.950 . S
H992 C989 0.950 . S
C993 C984 1.390 . S
C993 H986 0.950 . S
C993 C990 1.387 . S
C994 C995 1.387 . S
C994 H998 0.950 . S
C994 C1003 1.390 1_455 S
C995 C994 1.387 . S
C995 C997 1.387 . S
H996 C1003 0.950 . S
C997 C995 1.387 . S
C997 C999 1.390 1_455 S
C997 H1001 0.950 . S
H998 C994 0.950 . S
C999 C997 1.390 1_655 S
C999 C1000 1.387 . S
C999 H1002 0.950 . S
C1000 C999 1.387 . S
C1000 C1003 1.387 . S
H1001 C997 0.950 . S
H1002 C999 0.950 . S
C1003 C994 1.390 1_655 S
C1003 H996 0.950 . S
C1003 C1000 1.387 . S
C1004 C1005 1.387 1_556 S
C1004 H1008 0.950 . S
C1004 C1013 1.390 1_455 S
C1005 C1004 1.387 1_554 S
C1005 C1007 1.387 . S
H1006 C1013 0.950 . S
C1007 C1005 1.387 . S
C1007 C1009 1.390 1_455 S
C1007 H1011 0.950 . S
H1008 C1004 0.950 . S
C1009 C1007 1.390 1_655 S
C1009 C1010 1.387 1_554 S
C1009 H1012 0.950 . S
C1010 C1009 1.387 1_556 S
C1010 C1013 1.387 . S
H1011 C1007 0.950 . S
H1012 C1009 0.950 . S
C1013 C1004 1.390 1_655 S
C1013 H1006 0.950 . S
C1013 C1010 1.387 . S
C1014 C1015 1.387 . S
C1014 H1018 0.950 . S
C1014 C1023 1.390 . S
C1015 C1014 1.387 . S
C1015 C1017 1.387 . S
H1016 C1023 0.950 . S
C1017 C1015 1.387 . S
C1017 C1019 1.390 . S
C1017 H1021 0.950 . S
H1018 C1014 0.950 . S
C1019 C1017 1.390 . S
C1019 C1020 1.387 . S
C1019 H1022 0.950 . S
C1020 C1019 1.387 . S
C1020 C1023 1.387 . S
H1021 C1017 0.950 . S
H1022 C1019 0.950 . S
C1023 C1014 1.390 . S
C1023 H1016 0.950 . S
C1023 C1020 1.387 . S
C1024 C1025 1.387 . S
C1024 H1028 0.950 . S
C1024 C1033 1.390 . S
C1025 C1024 1.387 . S
C1025 C1027 1.387 . S
H1026 C1033 0.950 . S
C1027 C1025 1.387 . S
C1027 C1029 1.390 . S
C1027 H1031 0.950 . S
H1028 C1024 0.950 . S
C1029 C1027 1.390 . S
C1029 C1030 1.387 . S
C1029 H1032 0.950 . S
C1030 C1029 1.387 . S
C1030 C1033 1.387 . S
H1031 C1027 0.950 . S
H1032 C1029 0.950 . S
C1033 C1024 1.390 . S
C1033 H1026 0.950 . S
C1033 C1030 1.387 . S
C1034 C1035 1.387 . S
C1034 H1038 0.950 . S
C1034 C1043 1.390 . S
C1035 C1034 1.387 . S
C1035 C1037 1.387 . S
H1036 C1043 0.950 . S
C1037 C1035 1.387 . S
C1037 C1039 1.390 . S
C1037 H1041 0.950 . S
H1038 C1034 0.950 . S
C1039 C1037 1.390 . S
C1039 C1040 1.387 . S
C1039 H1042 0.950 . S
C1040 C1039 1.387 . S
C1040 C1043 1.387 . S
H1041 C1037 0.950 . S
H1042 C1039 0.950 . S
C1043 C1034 1.390 . S
C1043 H1036 0.950 . S
C1043 C1040 1.387 . S
C1044 C1045 1.387 . S
C1044 H1048 0.950 . S
C1044 C1053 1.390 . S
C1045 C1044 1.387 . S
C1045 C1047 1.387 . S
H1046 C1053 0.950 . S
C1047 C1045 1.387 . S
C1047 C1049 1.390 . S
C1047 H1051 0.950 . S
H1048 C1044 0.950 . S
C1049 C1047 1.390 . S
C1049 C1050 1.387 . S
C1049 H1052 0.950 . S
C1050 C1049 1.387 . S
C1050 C1053 1.387 . S
H1051 C1047 0.950 . S
H1052 C1049 0.950 . S
C1053 C1044 1.390 . S
C1053 H1046 0.950 . S
C1053 C1050 1.387 . S
C1054 C1055 1.387 . S
C1054 H1058 0.950 . S
C1054 C1063 1.390 . S
C1055 C1054 1.387 . S
C1055 C1057 1.387 . S
H1056 C1063 0.950 . S
C1057 C1055 1.387 . S
C1057 C1059 1.390 . S
C1057 H1061 0.950 . S
H1058 C1054 0.950 . S
C1059 C1057 1.390 . S
C1059 C1060 1.387 . S
C1059 H1062 0.950 . S
C1060 C1059 1.387 . S
C1060 C1063 1.387 . S
H1061 C1057 0.950 . S
H1062 C1059 0.950 . S
C1063 C1054 1.390 . S
C1063 H1056 0.950 . S
C1063 C1060 1.387 . S
C1064 C1065 1.387 . S
C1064 H1068 0.950 . S
C1064 C1073 1.390 . S
C1065 C1064 1.387 . S
C1065 C1067 1.387 . S
H1066 C1073 0.950 . S
C1067 C1065 1.387 . S
C1067 C1069 1.390 . S
C1067 H1071 0.950 . S
H1068 C1064 0.950 . S
C1069 C1067 1.390 . S
C1069 C1070 1.387 . S
C1069 H1072 0.950 . S
C1070 C1069 1.387 . S
C1070 C1073 1.387 . S
H1071 C1067 0.950 . S
H1072 C1069 0.950 . S
C1073 C1064 1.390 . S
C1073 H1066 0.950 . S
C1073 C1070 1.387 . S
C1074 C1075 1.387 . S
C1074 H1078 0.950 . S
C1074 C1083 1.390 . S
C1075 C1074 1.387 . S
C1075 C1077 1.387 . S
H1076 C1083 0.950 . S
C1077 C1075 1.387 . S
C1077 C1079 1.390 . S
C1077 H1081 0.950 . S
H1078 C1074 0.950 . S
C1079 C1077 1.390 . S
C1079 C1080 1.387 . S
C1079 H1082 0.950 . S
C1080 C1079 1.387 . S
C1080 C1083 1.387 . S
H1081 C1077 0.950 . S
H1082 C1079 0.950 . S
C1083 C1074 1.390 . S
C1083 H1076 0.950 . S
C1083 C1080 1.387 . S
C1084 C1085 1.387 . S
C1084 H1088 0.950 . S
C1084 C1093 1.390 . S
C1085 C1084 1.387 . S
C1085 C1087 1.387 . S
H1086 C1093 0.950 . S
C1087 C1085 1.387 . S
C1087 C1089 1.390 . S
C1087 H1091 0.950 . S
H1088 C1084 0.950 . S
C1089 C1087 1.390 . S
C1089 C1090 1.387 . S
C1089 H1092 0.950 . S
C1090 C1089 1.387 . S
C1090 C1093 1.387 . S
H1091 C1087 0.950 . S
H1092 C1089 0.950 . S
C1093 C1084 1.390 . S
C1093 H1086 0.950 . S
C1093 C1090 1.387 . S
C1094 C1095 1.387 . S
C1094 H1098 0.950 . S
C1094 C1103 1.390 . S
C1095 C1094 1.387 . S
C1095 C1097 1.387 . S
H1096 C1103 0.950 . S
C1097 C1095 1.387 . S
C1097 C1099 1.390 . S
C1097 H1101 0.950 . S
H1098 C1094 0.950 . S
C1099 C1097 1.390 . S
C1099 C1100 1.387 . S
C1099 H1102 0.950 . S
C1100 C1099 1.387 . S
C1100 C1103 1.387 . S
H1101 C1097 0.950 . S
H1102 C1099 0.950 . S
C1103 C1094 1.390 . S
C1103 H1096 0.950 . S
C1103 C1100 1.387 . S
C1104 C1105 1.387 . S
C1104 H1108 0.950 . S
C1104 C1113 1.390 . S
C1105 C1104 1.387 . S
C1105 C1107 1.387 . S
H1106 C1113 0.950 . S
C1107 C1105 1.387 . S
C1107 C1109 1.390 . S
C1107 H1111 0.950 . S
H1108 C1104 0.950 . S
C1109 C1107 1.390 . S
C1109 C1110 1.387 . S
C1109 H1112 0.950 . S
C1110 C1109 1.387 . S
C1110 C1113 1.387 . S
H1111 C1107 0.950 . S
H1112 C1109 0.950 . S
C1113 C1104 1.390 . S
C1113 H1106 0.950 . S
C1113 C1110 1.387 . S
C1114 C1115 1.387 . S
C1114 H1118 0.960 . S
C1114 C1123 1.390 . S
C1115 C1114 1.387 . S
C1115 C1117 1.387 . S
H1116 C1123 0.950 . S
C1117 C1115 1.387 . S
C1117 C1119 1.390 . S
C1117 H1121 0.950 . S
H1118 C1114 0.960 . S
C1119 C1117 1.390 . S
C1119 C1120 1.387 . S
C1119 H1122 0.950 . S
C1120 C1119 1.387 . S
C1120 C1123 1.387 . S
H1121 C1117 0.950 . S
H1122 C1119 0.950 . S
C1123 C1114 1.390 . S
C1123 H1116 0.950 . S
C1123 C1120 1.387 . S
C1124 C1125 1.387 . S
C1124 H1128 0.950 . S
C1124 C1133 1.390 . S
C1125 C1124 1.387 . S
C1125 C1127 1.387 . S
H1126 C1133 0.950 . S
C1127 C1125 1.387 . S
C1127 C1129 1.390 . S
C1127 H1131 0.950 . S
H1128 C1124 0.950 . S
C1129 C1127 1.390 . S
C1129 C1130 1.387 . S
C1129 H1132 0.950 . S
C1130 C1129 1.387 . S
C1130 C1133 1.387 . S
H1131 C1127 0.950 . S
H1132 C1129 0.950 . S
C1133 C1124 1.390 . S
C1133 H1126 0.950 . S
C1133 C1130 1.387 . S
C1134 C1135 1.387 . S
C1134 H1138 0.950 . S
C1134 C1143 1.390 . S
C1135 C1134 1.387 . S
C1135 C1137 1.387 . S
H1136 C1143 0.950 . S
C1137 C1135 1.387 . S
C1137 C1139 1.390 . S
C1137 H1141 0.950 . S
H1138 C1134 0.950 . S
C1139 C1137 1.390 . S
C1139 C1140 1.387 . S
C1139 H1142 0.950 . S
C1140 C1139 1.387 . S
C1140 C1143 1.387 . S
H1141 C1137 0.950 . S
H1142 C1139 0.950 . S
C1143 C1134 1.390 . S
C1143 H1136 0.950 . S
C1143 C1140 1.387 . S
C1144 C1145 1.387 . S
C1144 H1148 0.950 . S
C1144 C1153 1.390 . S
C1145 C1144 1.387 . S
C1145 C1147 1.387 . S
H1146 C1153 0.950 . S
C1147 C1145 1.387 . S
C1147 C1149 1.390 . S
C1147 H1151 0.950 . S
H1148 C1144 0.950 . S
C1149 C1147 1.390 . S
C1149 C1150 1.387 . S
C1149 H1152 0.950 . S
C1150 C1149 1.387 . S
C1150 C1153 1.387 . S
H1151 C1147 0.950 . S
H1152 C1149 0.950 . S
C1153 C1144 1.390 . S
C1153 H1146 0.950 . S
C1153 C1150 1.387 . S
C1154 C1155 1.387 . S
C1154 H1158 0.950 . S
C1154 C1163 1.390 . S
C1155 C1154 1.387 . S
C1155 C1157 1.387 . S
H1156 C1163 0.950 . S
C1157 C1155 1.387 . S
C1157 C1159 1.390 . S
C1157 H1161 0.950 . S
H1158 C1154 0.950 . S
C1159 C1157 1.390 . S
C1159 C1160 1.387 . S
C1159 H1162 0.950 . S
C1160 C1159 1.387 . S
C1160 C1163 1.387 . S
H1161 C1157 0.950 . S
H1162 C1159 0.950 . S
C1163 C1154 1.390 . S
C1163 H1156 0.950 . S
C1163 C1160 1.387 . S
C1164 C1165 1.387 . S
C1164 H1168 0.950 . S
C1164 C1173 1.390 . S
C1165 C1164 1.387 . S
C1165 C1167 1.387 . S
H1166 C1173 0.950 . S
C1167 C1165 1.387 . S
C1167 C1169 1.390 . S
C1167 H1171 0.950 . S
H1168 C1164 0.950 . S
C1169 C1167 1.390 . S
C1169 C1170 1.387 . S
C1169 H1172 0.950 . S
C1170 C1169 1.387 . S
C1170 C1173 1.387 . S
H1171 C1167 0.950 . S
H1172 C1169 0.950 . S
C1173 C1164 1.390 . S
C1173 H1166 0.950 . S
C1173 C1170 1.387 . S
C1174 C1175 1.387 . S
C1174 H1178 0.950 . S
C1174 C1183 1.390 . S
C1175 C1174 1.387 . S
C1175 C1177 1.387 . S
H1176 C1183 0.950 . S
C1177 C1175 1.387 . S
C1177 C1179 1.390 . S
C1177 H1181 0.950 . S
H1178 C1174 0.950 . S
C1179 C1177 1.390 . S
C1179 C1180 1.387 . S
C1179 H1182 0.950 . S
C1180 C1179 1.387 . S
C1180 C1183 1.387 . S
H1181 C1177 0.950 . S
H1182 C1179 0.950 . S
C1183 C1174 1.390 . S
C1183 H1176 0.950 . S
C1183 C1180 1.387 . S
C1184 C1185 1.387 . S
C1184 H1188 0.950 . S
C1184 C1193 1.390 . S
C1185 C1184 1.387 . S
C1185 C1187 1.387 . S
H1186 C1193 0.950 . S
C1187 C1185 1.387 . S
C1187 C1189 1.390 . S
C1187 H1191 0.950 . S
H1188 C1184 0.950 . S
C1189 C1187 1.390 . S
C1189 C1190 1.387 . S
C1189 H1192 0.950 . S
C1190 C1189 1.387 . S
C1190 C1193 1.387 . S
H1191 C1187 0.950 . S
H1192 C1189 0.950 . S
C1193 C1184 1.390 . S
C1193 H1186 0.950 . S
C1193 C1190 1.387 . S
C1194 C1195 1.387 . S
C1194 H1198 0.950 . S
C1194 C1203 1.390 . S
C1195 C1194 1.387 . S
C1195 C1197 1.387 . S
H1196 C1203 0.950 . S
C1197 C1195 1.387 . S
C1197 C1199 1.390 . S
C1197 H1201 0.950 . S
H1198 C1194 0.950 . S
C1199 C1197 1.390 . S
C1199 C1200 1.387 . S
C1199 H1202 0.950 . S
C1200 C1199 1.387 . S
C1200 C1203 1.387 . S
H1201 C1197 0.950 . S
H1202 C1199 0.950 . S
C1203 C1194 1.390 . S
C1203 H1196 0.950 . S
C1203 C1200 1.387 . S
C1204 C1205 1.387 . S
C1204 H1208 0.950 . S
C1204 C1213 1.390 . S
C1205 C1204 1.387 . S
C1205 C1207 1.387 . S
H1206 C1213 0.950 . S
C1207 C1205 1.387 . S
C1207 C1209 1.390 . S
C1207 H1211 0.950 . S
H1208 C1204 0.950 . S
C1209 C1207 1.390 . S
C1209 C1210 1.387 . S
C1209 H1212 0.950 . S
C1210 C1209 1.387 . S
C1210 C1213 1.387 . S
H1211 C1207 0.950 . S
H1212 C1209 0.950 . S
C1213 C1204 1.390 . S
C1213 H1206 0.950 . S
C1213 C1210 1.387 . S
C1214 C1215 1.387 . S
C1214 H1218 0.950 . S
C1214 C1223 1.390 . S
C1215 C1214 1.387 . S
C1215 C1217 1.387 . S
H1216 C1223 0.950 . S
C1217 C1215 1.387 . S
C1217 C1219 1.390 . S
C1217 H1221 0.950 . S
H1218 C1214 0.950 . S
C1219 C1217 1.390 . S
C1219 C1220 1.387 . S
C1219 H1222 0.950 . S
C1220 C1219 1.387 . S
C1220 C1223 1.387 . S
H1221 C1217 0.950 . S
H1222 C1219 0.950 . S
C1223 C1214 1.390 . S
C1223 H1216 0.950 . S
C1223 C1220 1.387 . S
C1224 C1225 1.387 . S
C1224 H1228 0.950 . S
C1224 C1233 1.390 . S
C1225 C1224 1.387 . S
C1225 C1227 1.387 . S
H1226 C1233 0.950 . S
C1227 C1225 1.387 . S
C1227 C1229 1.390 . S
C1227 H1231 0.950 . S
H1228 C1224 0.950 . S
C1229 C1227 1.390 . S
C1229 C1230 1.387 . S
C1229 H1232 0.950 . S
C1230 C1229 1.387 . S
C1230 C1233 1.387 . S
H1231 C1227 0.950 . S
H1232 C1229 0.950 . S
C1233 C1224 1.390 . S
C1233 H1226 0.950 . S
C1233 C1230 1.387 . S
C1234 C1235 1.387 . S
C1234 H1238 0.950 1_455 S
C1234 C1243 1.390 . S
C1235 C1234 1.387 . S
C1235 C1237 1.387 . S
H1236 C1243 0.950 . S
C1237 C1235 1.387 . S
C1237 C1239 1.390 . S
C1237 H1241 0.950 . S
H1238 C1234 0.950 1_655 S
C1239 C1237 1.390 . S
C1239 C1240 1.387 . S
C1239 H1242 0.950 . S
C1240 C1239 1.387 . S
C1240 C1243 1.387 . S
H1241 C1237 0.950 . S
H1242 C1239 0.950 . S
C1243 C1234 1.390 . S
C1243 H1236 0.950 . S
C1243 C1240 1.387 . S
C1244 C1245 1.387 . S
C1244 H1248 0.950 . S
C1244 C1253 1.390 . S
C1245 C1244 1.387 . S
C1245 C1247 1.387 . S
H1246 C1253 0.950 . S
C1247 C1245 1.387 . S
C1247 C1249 1.390 . S
C1247 H1251 0.950 . S
H1248 C1244 0.950 . S
C1249 C1247 1.390 . S
C1249 C1250 1.387 . S
C1249 H1252 0.950 . S
C1250 C1249 1.387 . S
C1250 C1253 1.387 . S
H1251 C1247 0.950 . S
H1252 C1249 0.950 . S
C1253 C1244 1.390 . S
C1253 H1246 0.950 . S
C1253 C1250 1.387 . S
C1254 C1255 1.387 . S
C1254 H1258 0.950 . S
C1254 C1263 1.390 . S
C1255 C1254 1.387 . S
C1255 C1257 1.387 . S
H1256 C1263 0.950 . S
C1257 C1255 1.387 . S
C1257 C1259 1.390 . S
C1257 H1261 0.950 . S
H1258 C1254 0.950 . S
C1259 C1257 1.390 . S
C1259 C1260 1.387 . S
C1259 H1262 0.950 . S
C1260 C1259 1.387 . S
C1260 C1263 1.387 . S
H1261 C1257 0.950 . S
H1262 C1259 0.950 . S
C1263 C1254 1.390 . S
C1263 H1256 0.950 . S
C1263 C1260 1.387 . S
C1264 C1265 1.387 . S
C1264 H1268 0.950 . S
C1264 C1273 1.390 . S
C1265 C1264 1.387 . S
C1265 C1267 1.387 . S
H1266 C1273 0.950 . S
C1267 C1265 1.387 . S
C1267 C1269 1.390 . S
C1267 H1271 0.950 . S
H1268 C1264 0.950 . S
C1269 C1267 1.390 . S
C1269 C1270 1.387 . S
C1269 H1272 0.950 . S
C1270 C1269 1.387 . S
C1270 C1273 1.387 . S
H1271 C1267 0.950 . S
H1272 C1269 0.950 . S
C1273 C1264 1.390 . S
C1273 H1266 0.950 . S
C1273 C1270 1.387 . S
C1274 C1275 1.387 . S
C1274 H1278 0.950 . S
C1274 C1283 1.390 . S
C1275 C1274 1.387 . S
C1275 C1277 1.387 . S
H1276 C1283 0.950 . S
C1277 C1275 1.387 . S
C1277 C1279 1.390 . S
C1277 H1281 0.950 . S
H1278 C1274 0.950 . S
C1279 C1277 1.390 . S
C1279 C1280 1.387 . S
C1279 H1282 0.950 . S
C1280 C1279 1.387 . S
C1280 C1283 1.387 . S
H1281 C1277 0.950 . S
H1282 C1279 0.950 . S
C1283 C1274 1.390 . S
C1283 H1276 0.950 . S
C1283 C1280 1.387 . S
C1284 C1285 1.387 . S
C1284 H1288 0.950 . S
C1284 C1293 1.390 . S
C1285 C1284 1.387 . S
C1285 C1287 1.387 . S
H1286 C1293 0.950 . S
C1287 C1285 1.387 . S
C1287 C1289 1.390 . S
C1287 H1291 0.950 . S
H1288 C1284 0.950 . S
C1289 C1287 1.390 . S
C1289 C1290 1.387 . S
C1289 H1292 0.950 . S
C1290 C1289 1.387 . S
C1290 C1293 1.387 . S
H1291 C1287 0.950 . S
H1292 C1289 0.950 . S
C1293 C1284 1.390 . S
C1293 H1286 0.950 . S
C1293 C1290 1.387 . S
C1294 C1295 1.387 . S
C1294 H1298 0.950 . S
C1294 C1303 1.390 . S
C1295 C1294 1.387 . S
C1295 C1297 1.387 . S
H1296 C1303 0.950 . S
C1297 C1295 1.387 . S
C1297 C1299 1.390 . S
C1297 H1301 0.950 . S
H1298 C1294 0.950 . S
C1299 C1297 1.390 . S
C1299 C1300 1.387 . S
C1299 H1302 0.950 . S
C1300 C1299 1.387 . S
C1300 C1303 1.387 . S
H1301 C1297 0.950 . S
H1302 C1299 0.950 . S
C1303 C1294 1.390 . S
C1303 H1296 0.950 . S
C1303 C1300 1.387 . S
C1304 C1305 1.387 . S
C1304 H1308 0.950 . S
C1304 C1313 1.390 . S
C1305 C1304 1.387 . S
C1305 C1307 1.387 . S
H1306 C1313 0.950 . S
C1307 C1305 1.387 . S
C1307 C1309 1.390 . S
C1307 H1311 0.950 . S
H1308 C1304 0.950 . S
C1309 C1307 1.390 . S
C1309 C1310 1.387 . S
C1309 H1312 0.950 . S
C1310 C1309 1.387 . S
C1310 C1313 1.387 . S
H1311 C1307 0.950 . S
H1312 C1309 0.950 . S
C1313 C1304 1.390 . S
C1313 H1306 0.950 . S
C1313 C1310 1.387 . S
C1314 C1315 1.387 . S
C1314 H1318 0.950 . S
C1314 C1323 1.390 . S
C1315 C1314 1.387 . S
C1315 C1317 1.387 . S
H1316 C1323 0.950 . S
C1317 C1315 1.387 . S
C1317 C1319 1.390 . S
C1317 H1321 0.950 . S
H1318 C1314 0.950 . S
C1319 C1317 1.390 . S
C1319 C1320 1.387 . S
C1319 H1322 0.950 . S
C1320 C1319 1.387 . S
C1320 C1323 1.387 . S
H1321 C1317 0.950 . S
H1322 C1319 0.950 . S
C1323 C1314 1.390 . S
C1323 H1316 0.950 . S
C1323 C1320 1.387 . S
C1324 C1325 1.387 . S
C1324 H1328 0.950 . S
C1324 C1333 1.390 . S
C1325 C1324 1.387 . S
C1325 C1327 1.387 . S
H1326 C1333 0.950 . S
C1327 C1325 1.387 . S
C1327 C1329 1.390 . S
C1327 H1331 0.950 . S
H1328 C1324 0.950 . S
C1329 C1327 1.390 . S
C1329 C1330 1.387 . S
C1329 H1332 0.950 . S
C1330 C1329 1.387 . S
C1330 C1333 1.387 . S
H1331 C1327 0.950 . S
H1332 C1329 0.950 . S
C1333 C1324 1.390 . S
C1333 H1326 0.950 . S
C1333 C1330 1.387 . S
C1334 C1335 1.387 . S
C1334 H1338 0.950 . S
C1334 C1343 1.390 . S
C1335 C1334 1.387 . S
C1335 C1337 1.387 . S
H1336 C1343 0.950 . S
C1337 C1335 1.387 . S
C1337 C1339 1.390 . S
C1337 H1341 0.950 . S
H1338 C1334 0.950 . S
C1339 C1337 1.390 . S
C1339 C1340 1.387 . S
C1339 H1342 0.950 . S
C1340 C1339 1.387 . S
C1340 C1343 1.387 . S
H1341 C1337 0.950 . S
H1342 C1339 0.950 . S
C1343 C1334 1.390 . S
C1343 H1336 0.950 . S
C1343 C1340 1.387 . S
C1344 C1345 1.387 . S
C1344 H1348 0.950 . S
C1344 C1353 1.390 1_455 S
C1345 C1344 1.387 . S
C1345 C1347 1.387 . S
H1346 C1353 0.950 . S
C1347 C1345 1.387 . S
C1347 C1349 1.390 1_455 S
C1347 H1351 0.950 . S
H1348 C1344 0.950 . S
C1349 C1347 1.390 1_655 S
C1349 C1350 1.387 . S
C1349 H1352 0.950 . S
C1350 C1349 1.387 . S
C1350 C1353 1.387 . S
H1351 C1347 0.950 . S
H1352 C1349 0.950 . S
C1353 C1344 1.390 1_655 S
C1353 H1346 0.950 . S
C1353 C1350 1.387 . S
C1354 C1355 1.387 . S
C1354 H1358 0.950 . S
C1354 C1363 1.390 1_455 S
C1355 C1354 1.387 . S
C1355 C1357 1.387 . S
H1356 C1363 0.950 . S
C1357 C1355 1.387 . S
C1357 C1359 1.390 1_455 S
C1357 H1361 0.950 . S
H1358 C1354 0.950 . S
C1359 C1357 1.390 1_655 S
C1359 C1360 1.387 . S
C1359 H1362 0.950 . S
C1360 C1359 1.387 . S
C1360 C1363 1.387 . S
H1361 C1357 0.950 . S
H1362 C1359 0.950 . S
C1363 C1354 1.390 1_655 S
C1363 H1356 0.950 . S
C1363 C1360 1.387 . S
C1364 C1365 1.387 . S
C1364 H1368 0.950 . S
C1364 C1373 1.390 . S
C1365 C1364 1.387 . S
C1365 C1367 1.387 . S
H1366 C1373 0.950 . S
C1367 C1365 1.387 . S
C1367 C1369 1.390 . S
C1367 H1371 0.950 . S
H1368 C1364 0.950 . S
C1369 C1367 1.390 . S
C1369 C1370 1.387 . S
C1369 H1372 0.950 . S
C1370 C1369 1.387 . S
C1370 C1373 1.387 . S
H1371 C1367 0.950 . S
H1372 C1369 0.950 . S
C1373 C1364 1.390 . S
C1373 H1366 0.950 . S
C1373 C1370 1.387 . S
C1374 C1375 1.387 . S
C1374 H1378 0.950 . S
C1374 C1383 1.390 . S
C1375 C1374 1.387 . S
C1375 C1377 1.387 1_554 S
H1376 C1383 0.950 . S
C1377 C1375 1.387 1_556 S
C1377 C1379 1.390 . S
C1377 H1381 0.950 . S
H1378 C1374 0.950 . S
C1379 C1377 1.390 . S
C1379 C1380 1.387 1_556 S
C1379 H1382 0.950 . S
C1380 C1379 1.387 1_554 S
C1380 C1383 1.387 . S
H1381 C1377 0.950 . S
H1382 C1379 0.950 . S
C1383 C1374 1.390 . S
C1383 H1376 0.950 . S
C1383 C1380 1.387 . S
C1384 C1385 1.387 . S
C1384 H1388 0.950 . S
C1384 C1393 1.390 1_655 S
C1385 C1384 1.387 . S
C1385 C1387 1.387 . S
H1386 C1393 0.950 . S
C1387 C1385 1.387 . S
C1387 C1389 1.390 1_655 S
C1387 H1391 0.950 . S
H1388 C1384 0.950 . S
C1389 C1387 1.390 1_455 S
C1389 C1390 1.387 . S
C1389 H1392 0.950 . S
C1390 C1389 1.387 . S
C1390 C1393 1.387 . S
H1391 C1387 0.950 . S
H1392 C1389 0.950 . S
C1393 C1384 1.390 1_455 S
C1393 H1386 0.950 . S
C1393 C1390 1.387 . S
C1394 C1395 1.387 . S
C1394 H1398 0.950 . S
C1394 C1403 1.390 . S
C1395 C1394 1.387 . S
C1395 C1397 1.387 . S
H1396 C1403 0.950 . S
C1397 C1395 1.387 . S
C1397 C1399 1.390 . S
C1397 H1401 0.950 . S
H1398 C1394 0.950 . S
C1399 C1397 1.390 . S
C1399 C1400 1.387 . S
C1399 H1402 0.950 . S
C1400 C1399 1.387 . S
C1400 C1403 1.387 . S
H1401 C1397 0.950 . S
H1402 C1399 0.950 . S
C1403 C1394 1.390 . S
C1403 H1396 0.950 . S
C1403 C1400 1.387 . S
C1404 C1405 1.387 . S
C1404 H1408 0.950 . S
C1404 C1413 1.390 . S
C1405 C1404 1.387 . S
C1405 C1407 1.387 . S
H1406 C1413 0.950 . S
C1407 C1405 1.387 . S
C1407 C1409 1.390 . S
C1407 H1411 0.950 . S
H1408 C1404 0.950 . S
C1409 C1407 1.390 . S
C1409 C1410 1.387 . S
C1409 H1412 0.950 . S
C1410 C1409 1.387 . S
C1410 C1413 1.387 . S
H1411 C1407 0.950 . S
H1412 C1409 0.950 . S
C1413 C1404 1.390 . S
C1413 H1406 0.950 . S
C1413 C1410 1.387 . S
C1414 C1415 1.387 . S
C1414 H1418 0.950 . S
C1414 C1423 1.390 1_655 S
C1415 C1414 1.387 . S
C1415 C1417 1.387 1_556 S
H1416 C1423 0.950 . S
C1417 C1415 1.387 1_554 S
C1417 C1419 1.390 1_655 S
C1417 H1421 0.950 . S
H1418 C1414 0.950 . S
C1419 C1417 1.390 1_455 S
C1419 C1420 1.387 1_554 S
C1419 H1422 0.950 . S
C1420 C1419 1.387 1_556 S
C1420 C1423 1.387 . S
H1421 C1417 0.950 . S
H1422 C1419 0.950 . S
C1423 C1414 1.390 1_455 S
C1423 H1416 0.950 . S
C1423 C1420 1.387 . S
C1424 C1425 1.387 . S
C1424 H1428 0.950 . S
C1424 C1433 1.390 1_455 S
C1425 C1424 1.387 . S
C1425 C1427 1.387 . S
H1426 C1433 0.950 . S
C1427 C1425 1.387 . S
C1427 C1429 1.390 1_455 S
C1427 H1431 0.950 . S
H1428 C1424 0.950 . S
C1429 C1427 1.390 1_655 S
C1429 C1430 1.387 . S
C1429 H1432 0.950 . S
C1430 C1429 1.387 . S
C1430 C1433 1.387 . S
H1431 C1427 0.950 . S
H1432 C1429 0.950 . S
C1433 C1424 1.390 1_655 S
C1433 H1426 0.950 . S
C1433 C1430 1.387 . S
C1434 C1435 1.387 . S
C1434 H1438 0.950 . S
C1434 C1443 1.390 1_455 S
C1435 C1434 1.387 . S
C1435 C1437 1.387 . S
H1436 C1443 0.950 . S
C1437 C1435 1.387 . S
C1437 C1439 1.390 1_455 S
C1437 H1441 0.950 . S
H1438 C1434 0.950 . S
C1439 C1437 1.390 1_655 S
C1439 C1440 1.387 . S
C1439 H1442 0.950 . S
C1440 C1439 1.387 . S
C1440 C1443 1.387 . S
H1441 C1437 0.950 . S
H1442 C1439 0.950 . S
C1443 C1434 1.390 1_655 S
C1443 H1436 0.950 . S
C1443 C1440 1.387 . S
C1444 C1445 1.387 . S
C1444 H1448 0.950 . S
C1444 C1453 1.390 . S
C1445 C1444 1.387 . S
C1445 C1447 1.387 . S
H1446 C1453 0.950 . S
C1447 C1445 1.387 . S
C1447 C1449 1.390 . S
C1447 H1451 0.950 . S
H1448 C1444 0.950 . S
C1449 C1447 1.390 . S
C1449 C1450 1.387 . S
C1449 H1452 0.950 . S
C1450 C1449 1.387 . S
C1450 C1453 1.387 . S
H1451 C1447 0.950 . S
H1452 C1449 0.950 . S
C1453 C1444 1.390 . S
C1453 H1446 0.950 . S
C1453 C1450 1.387 . S
C1454 C1455 1.387 . S
C1454 H1458 0.950 . S
C1454 C1463 1.390 . S
C1455 C1454 1.387 . S
C1455 C1457 1.387 1_556 S
H1456 C1463 0.950 . S
C1457 C1455 1.387 1_554 S
C1457 C1459 1.390 . S
C1457 H1461 0.950 . S
H1458 C1454 0.950 . S
C1459 C1457 1.390 . S
C1459 C1460 1.387 1_554 S
C1459 H1462 0.950 . S
C1460 C1459 1.387 1_556 S
C1460 C1463 1.387 . S
H1461 C1457 0.950 . S
H1462 C1459 0.950 . S
C1463 C1454 1.390 . S
C1463 H1456 0.950 . S
C1463 C1460 1.387 . S
C1464 C1465 1.387 . S
C1464 H1468 0.950 . S
C1464 C1473 1.390 1_655 S
C1465 C1464 1.387 . S
C1465 C1467 1.387 . S
H1466 C1473 0.950 . S
C1467 C1465 1.387 . S
C1467 C1469 1.390 1_655 S
C1467 H1471 0.950 . S
H1468 C1464 0.950 . S
C1469 C1467 1.390 1_455 S
C1469 C1470 1.387 . S
C1469 H1472 0.950 . S
C1470 C1469 1.387 . S
C1470 C1473 1.387 . S
H1471 C1467 0.950 . S
H1472 C1469 0.950 . S
C1473 C1464 1.390 1_455 S
C1473 H1466 0.950 . S
C1473 C1470 1.387 . S
C1474 C1475 1.387 . S
C1474 H1478 0.950 . S
C1474 C1483 1.390 . S
C1475 C1474 1.387 . S
C1475 C1477 1.387 . S
H1476 C1483 0.950 . S
C1477 C1475 1.387 . S
C1477 C1479 1.390 . S
C1477 H1481 0.950 . S
H1478 C1474 0.950 . S
C1479 C1477 1.390 . S
C1479 C1480 1.387 . S
C1479 H1482 0.950 . S
C1480 C1479 1.387 . S
C1480 C1483 1.387 . S
H1481 C1477 0.950 . S
H1482 C1479 0.950 . S
C1483 C1474 1.390 . S
C1483 H1476 0.950 . S
C1483 C1480 1.387 . S
C1484 C1485 1.387 . S
C1484 H1488 0.950 . S
C1484 C1493 1.390 . S
C1485 C1484 1.387 . S
C1485 C1487 1.387 . S
H1486 C1493 0.950 . S
C1487 C1485 1.387 . S
C1487 C1489 1.390 . S
C1487 H1491 0.950 . S
H1488 C1484 0.950 . S
C1489 C1487 1.390 . S
C1489 C1490 1.387 . S
C1489 H1492 0.950 . S
C1490 C1489 1.387 . S
C1490 C1493 1.387 . S
H1491 C1487 0.950 . S
H1492 C1489 0.950 . S
C1493 C1484 1.390 . S
C1493 H1486 0.950 . S
C1493 C1490 1.387 . S
C1494 C1495 1.387 . S
C1494 H1498 0.950 . S
C1494 C1503 1.390 1_655 S
C1495 C1494 1.387 . S
C1495 C1497 1.387 1_554 S
H1496 C1503 0.950 . S
C1497 C1495 1.387 1_556 S
C1497 C1499 1.390 1_655 S
C1497 H1501 0.950 . S
H1498 C1494 0.950 . S
C1499 C1497 1.390 1_455 S
C1499 C1500 1.387 1_556 S
C1499 H1502 0.950 . S
C1500 C1499 1.387 1_554 S
C1500 C1503 1.387 . S
H1501 C1497 0.950 . S
H1502 C1499 0.950 . S
C1503 C1494 1.390 1_455 S
C1503 H1496 0.950 . S
C1503 C1500 1.387 . S
C1504 C1505 1.387 . S
C1504 H1508 0.950 . S
C1504 C1513 1.390 . S
C1505 C1504 1.387 . S
C1505 C1507 1.387 . S
H1506 C1513 0.950 . S
C1507 C1505 1.387 . S
C1507 C1509 1.390 . S
C1507 H1511 0.950 . S
H1508 C1504 0.950 . S
C1509 C1507 1.390 . S
C1509 C1510 1.387 . S
C1509 H1512 0.950 . S
C1510 C1509 1.387 . S
C1510 C1513 1.387 . S
H1511 C1507 0.950 . S
H1512 C1509 0.950 . S
C1513 C1504 1.390 . S
C1513 H1506 0.950 . S
C1513 C1510 1.387 . S
C1514 C1515 1.387 . S
C1514 H1518 0.950 . S
C1514 C1523 1.390 . S
C1515 C1514 1.387 . S
C1515 C1517 1.387 . S
H1516 C1523 0.950 . S
C1517 C1515 1.387 . S
C1517 C1519 1.390 . S
C1517 H1521 0.950 . S
H1518 C1514 0.950 . S
C1519 C1517 1.390 . S
C1519 C1520 1.387 . S
C1519 H1522 0.950 . S
C1520 C1519 1.387 . S
C1520 C1523 1.387 . S
H1521 C1517 0.950 . S
H1522 C1519 0.950 . S
C1523 C1514 1.390 . S
C1523 H1516 0.950 . S
C1523 C1520 1.387 . S
C1524 C1525 1.387 . S
C1524 H1528 0.950 . S
C1524 C1533 1.390 . S
C1525 C1524 1.387 . S
C1525 C1527 1.387 . S
H1526 C1533 0.950 . S
C1527 C1525 1.387 . S
C1527 C1529 1.390 . S
C1527 H1531 0.950 . S
H1528 C1524 0.950 . S
C1529 C1527 1.390 . S
C1529 C1530 1.387 . S
C1529 H1532 0.950 . S
C1530 C1529 1.387 . S
C1530 C1533 1.387 . S
H1531 C1527 0.950 . S
H1532 C1529 0.950 . S
C1533 C1524 1.390 . S
C1533 H1526 0.950 . S
C1533 C1530 1.387 . S
C1534 C1535 1.387 . S
C1534 H1538 0.950 . S
C1534 C1543 1.390 . S
C1535 C1534 1.387 . S
C1535 C1537 1.387 . S
H1536 C1543 0.950 . S
C1537 C1535 1.387 . S
C1537 C1539 1.390 . S
C1537 H1541 0.950 . S
H1538 C1534 0.950 . S
C1539 C1537 1.390 . S
C1539 C1540 1.387 . S
C1539 H1542 0.950 . S
C1540 C1539 1.387 . S
C1540 C1543 1.387 . S
H1541 C1537 0.950 . S
H1542 C1539 0.950 . S
C1543 C1534 1.390 . S
C1543 H1536 0.950 . S
C1543 C1540 1.387 . S
C1544 C1545 1.387 . S
C1544 H1548 0.950 . S
C1544 C1553 1.390 . S
C1545 C1544 1.387 . S
C1545 C1547 1.387 . S
H1546 C1553 0.950 . S
C1547 C1545 1.387 . S
C1547 C1549 1.390 . S
C1547 H1551 0.950 . S
H1548 C1544 0.950 . S
C1549 C1547 1.390 . S
C1549 C1550 1.387 . S
C1549 H1552 0.950 . S
C1550 C1549 1.387 . S
C1550 C1553 1.387 . S
H1551 C1547 0.950 . S
H1552 C1549 0.950 . S
C1553 C1544 1.390 . S
C1553 H1546 0.950 . S
C1553 C1550 1.387 . S
C1554 C1555 1.387 . S
C1554 H1558 0.950 . S
C1554 C1563 1.390 . S
C1555 C1554 1.387 . S
C1555 C1557 1.387 . S
H1556 C1563 0.950 . S
C1557 C1555 1.387 . S
C1557 C1559 1.390 . S
C1557 H1561 0.950 . S
H1558 C1554 0.950 . S
C1559 C1557 1.390 . S
C1559 C1560 1.387 . S
C1559 H1562 0.950 . S
C1560 C1559 1.387 . S
C1560 C1563 1.387 . S
H1561 C1557 0.950 . S
H1562 C1559 0.950 . S
C1563 C1554 1.390 . S
C1563 H1556 0.950 . S
C1563 C1560 1.387 . S
C1564 C1565 1.387 . S
C1564 H1568 0.950 . S
C1564 C1573 1.390 . S
C1565 C1564 1.387 . S
C1565 C1567 1.387 . S
H1566 C1573 0.950 . S
C1567 C1565 1.387 . S
C1567 C1569 1.390 . S
C1567 H1571 0.950 . S
H1568 C1564 0.950 . S
C1569 C1567 1.390 . S
C1569 C1570 1.387 . S
C1569 H1572 0.950 . S
C1570 C1569 1.387 . S
C1570 C1573 1.387 . S
H1571 C1567 0.950 . S
H1572 C1569 0.950 . S
C1573 C1564 1.390 . S
C1573 H1566 0.950 . S
C1573 C1570 1.387 . S
C1574 C1575 1.387 . S
C1574 H1578 0.950 . S
C1574 C1583 1.390 . S
C1575 C1574 1.387 . S
C1575 C1577 1.387 . S
H1576 C1583 0.950 . S
C1577 C1575 1.387 . S
C1577 C1579 1.390 . S
C1577 H1581 0.950 . S
H1578 C1574 0.950 . S
C1579 C1577 1.390 . S
C1579 C1580 1.387 . S
C1579 H1582 0.950 . S
C1580 C1579 1.387 . S
C1580 C1583 1.387 . S
H1581 C1577 0.950 . S
H1582 C1579 0.950 . S
C1583 C1574 1.390 . S
C1583 H1576 0.950 . S
C1583 C1580 1.387 . S
C1584 C1585 1.387 . S
C1584 H1588 0.950 . S
C1584 C1593 1.390 . S
C1585 C1584 1.387 . S
C1585 C1587 1.387 . S
H1586 C1593 0.950 . S
C1587 C1585 1.387 . S
C1587 C1589 1.390 . S
C1587 H1591 0.950 . S
H1588 C1584 0.950 . S
C1589 C1587 1.390 . S
C1589 C1590 1.387 . S
C1589 H1592 0.950 . S
C1590 C1589 1.387 . S
C1590 C1593 1.387 . S
H1591 C1587 0.950 . S
H1592 C1589 0.950 . S
C1593 C1584 1.390 . S
C1593 H1586 0.950 . S
C1593 C1590 1.387 . S
C1594 C1595 1.387 . S
C1594 H1598 0.950 . S
C1594 C1603 1.390 . S
C1595 C1594 1.387 . S
C1595 C1597 1.387 . S
H1596 C1603 0.950 . S
C1597 C1595 1.387 . S
C1597 C1599 1.390 . S
C1597 H1601 0.950 . S
H1598 C1594 0.950 . S
C1599 C1597 1.390 . S
C1599 C1600 1.387 . S
C1599 H1602 0.950 . S
C1600 C1599 1.387 . S
C1600 C1603 1.387 . S
H1601 C1597 0.950 . S
H1602 C1599 0.950 . S
C1603 C1594 1.390 . S
C1603 H1596 0.950 . S
C1603 C1600 1.387 . S
C1604 C1605 1.387 . S
C1604 H1608 0.950 . S
C1604 C1613 1.390 . S
C1605 C1604 1.387 . S
C1605 C1607 1.387 . S
H1606 C1613 0.950 . S
C1607 C1605 1.387 . S
C1607 C1609 1.390 . S
C1607 H1611 0.950 . S
H1608 C1604 0.950 . S
C1609 C1607 1.390 . S
C1609 C1610 1.387 . S
C1609 H1612 0.950 . S
C1610 C1609 1.387 . S
C1610 C1613 1.387 . S
H1611 C1607 0.950 . S
H1612 C1609 0.950 . S
C1613 C1604 1.390 . S
C1613 H1606 0.950 . S
C1613 C1610 1.387 . S
C1614 C1615 1.387 . S
C1614 H1618 0.950 . S
C1614 C1623 1.390 . S
C1615 C1614 1.387 . S
C1615 C1617 1.387 . S
H1616 C1623 0.950 . S
C1617 C1615 1.387 . S
C1617 C1619 1.390 . S
C1617 H1621 0.950 . S
H1618 C1614 0.950 . S
C1619 C1617 1.390 . S
C1619 C1620 1.387 . S
C1619 H1622 0.950 . S
C1620 C1619 1.387 . S
C1620 C1623 1.387 . S
H1621 C1617 0.950 . S
H1622 C1619 0.950 . S
C1623 C1614 1.390 . S
C1623 H1616 0.950 . S
C1623 C1620 1.387 . S
C1624 C1625 1.387 . S
C1624 H1628 0.950 . S
C1624 C1633 1.390 . S
C1625 C1624 1.387 . S
C1625 C1627 1.387 . S
H1626 C1633 0.950 . S
C1627 C1625 1.387 . S
C1627 C1629 1.390 . S
C1627 H1631 0.950 . S
H1628 C1624 0.950 . S
C1629 C1627 1.390 . S
C1629 C1630 1.387 . S
C1629 H1632 0.950 . S
C1630 C1629 1.387 . S
C1630 C1633 1.387 . S
H1631 C1627 0.950 . S
H1632 C1629 0.950 . S
C1633 C1624 1.390 . S
C1633 H1626 0.950 . S
C1633 C1630 1.387 . S
C1634 C1635 1.387 . S
C1634 H1638 0.950 . S
C1634 C1643 1.390 . S
C1635 C1634 1.387 . S
C1635 C1637 1.387 . S
H1636 C1643 0.950 . S
C1637 C1635 1.387 . S
C1637 C1639 1.390 . S
C1637 H1641 0.950 . S
H1638 C1634 0.950 . S
C1639 C1637 1.390 . S
C1639 C1640 1.387 . S
C1639 H1642 0.950 . S
C1640 C1639 1.387 . S
C1640 C1643 1.387 . S
H1641 C1637 0.950 . S
H1642 C1639 0.950 . S
C1643 C1634 1.390 . S
C1643 H1636 0.950 . S
C1643 C1640 1.387 . S
C1644 C1645 1.387 . S
C1644 H1648 0.950 . S
C1644 C1653 1.390 . S
C1645 C1644 1.387 . S
C1645 C1647 1.387 . S
H1646 C1653 0.950 . S
C1647 C1645 1.387 . S
C1647 C1649 1.390 . S
C1647 H1651 0.950 . S
H1648 C1644 0.950 . S
C1649 C1647 1.390 . S
C1649 C1650 1.387 . S
C1649 H1652 0.950 . S
C1650 C1649 1.387 . S
C1650 C1653 1.387 . S
H1651 C1647 0.950 . S
H1652 C1649 0.950 . S
C1653 C1644 1.390 . S
C1653 H1646 0.950 . S
C1653 C1650 1.387 . S
C1654 C1655 1.387 . S
C1654 H1658 0.950 . S
C1654 C1663 1.390 . S
C1655 C1654 1.387 . S
C1655 C1657 1.387 . S
H1656 C1663 0.950 . S
C1657 C1655 1.387 . S
C1657 C1659 1.390 . S
C1657 H1661 0.950 . S
H1658 C1654 0.950 . S
C1659 C1657 1.390 . S
C1659 C1660 1.387 . S
C1659 H1662 0.950 . S
C1660 C1659 1.387 . S
C1660 C1663 1.387 . S
H1661 C1657 0.950 . S
H1662 C1659 0.950 . S
C1663 C1654 1.390 . S
C1663 H1656 0.950 . S
C1663 C1660 1.387 . S
C705 C8 1.894 . S
C710 C106 1.894 . S
C715 C128 1.894 . S
C720 C30 1.894 . S
C725 C142 1.894 . S
C730 C54 1.894 . S
C735 C84 1.895 . S
C740 C162 1.895 . S
C745 C194 1.877 . S
C750 C272 1.877 . S
C755 C208 1.877 . S
C760 C304 1.877 . S
C765 C230 1.877 . S
C770 C316 1.877 . S
C775 C340 1.877 . S
C780 C252 1.877 . S
C785 C370 1.894 . S
C790 C458 1.894 . S
C795 C480 1.894 . S
C800 C382 1.894 . S
C805 C404 1.894 . S
C810 C502 1.894 . S
C815 C524 1.895 . S
C820 C436 1.895 . S
C825 C538 1.877 . S
C830 C624 1.877 . S
C835 C560 1.877 . S
C840 C646 1.877 . S
C845 C590 1.877 . S
C850 C678 1.877 . S
C855 C612 1.877 . S
C860 C692 1.877 . S
C865 C546 1.664 . S
C870 C18 1.643 . S
C875 C216 1.660 . S
C880 C40 1.639 . S
C885 C52 1.639 . S
C890 C580 1.660 . S
C895 C76 1.639 . S
C900 C260 1.660 . S
C905 C98 1.639 . S
C910 C626 1.660 . S
C915 C120 1.639 . S
C920 C294 1.660 . S
C925 C668 1.660 . S
C930 C140 1.639 . S
C935 C348 1.660 . S
C940 C172 1.639 . S
C945 C362 1.639 . S
C950 C184 1.660 . S
C955 C238 1.660 . S
C960 C414 1.639 . S
C965 C274 1.660 . S
C970 C450 1.639 . S
C975 C494 1.639 . S
C980 C318 1.660 . S
C985 C392 1.643 . S
C990 C568 1.664 . S
C995 C602 1.660 . S
C1000 C428 1.639 . S
C1005 C648 1.660 . S
C1010 C472 1.639 . S
C1015 C516 1.643 . S
C1020 C700 1.664 . S
C1025 C7 1.254 . S
C1030 C601 1.254 . S
C1035 C29 1.254 1_655 S
C1040 C183 1.254 . S
C1045 C65 1.254 . S
C1050 C565 1.254 . S
C1055 C235 1.254 . S
C1060 C81 1.253 . S
C1065 C659 1.254 . S
C1070 C103 1.254 . S
C1075 C125 1.254 . S
C1080 C329 1.254 . S
C1085 C697 1.254 . S
C1090 C153 1.254 . S
C1095 C285 1.254 . S
C1100 C161 1.253 1_655 S
C1105 C425 1.256 . S
C1110 C197 1.257 . S
C1115 C205 1.257 1_455 S
C1120 C21 1.256 . S
C1125 C395 1.256 . S
C1130 C227 1.257 . S
C1135 C59 1.256 . S
C1140 C249 1.256 . S
C1145 C469 1.256 . S
C1150 C279 1.257 . S
C1155 C307 1.256 . S
C1160 C147 1.256 . S
C1165 C323 1.257 . S
C1170 C513 1.256 . S
C1175 C95 1.256 . S
C1180 C337 1.257 1_455 S
C1185 C367 1.253 . S
C1190 C257 1.254 . S
C1195 C381 1.254 . S
C1200 C543 1.254 . S
C1205 C213 1.254 . S
C1210 C403 1.253 . S
C1215 C433 1.254 1_455 S
C1220 C579 1.254 . S
C1225 C293 1.254 . S
C1230 C455 1.254 . S
C1235 C477 1.253 1_455 S
C1240 C667 1.254 . S
C1245 C345 1.254 . S
C1250 C499 1.253 . S
C1255 C521 1.254 . S
C1260 C637 1.254 . S
C1265 C73 1.256 . S
C1270 C535 1.256 . S
C1275 C557 1.257 . S
C1280 C359 1.256 . S
C1285 C593 1.257 . S
C1290 C43 1.256 . S
C1295 C417 1.256 . S
C1300 C615 1.257 1_655 S
C1305 C117 1.256 . S
C1310 C631 1.256 . S
C1315 C491 1.256 . S
C1320 C653 1.256 1_655 S
C1325 C681 1.257 . S
C1330 C175 1.256 . S
C1335 C447 1.256 . S
C1340 C689 1.257 . S
C1345 C15 0.809 . S
C1350 C411 0.809 . S
C1355 C37 0.809 . S
C1360 C439 0.809 . S
C1365 C51 0.809 . S
C1370 C373 0.809 . S
C1375 C87 0.809 . S
C1380 C389 0.809 . S
C1385 C505 0.809 . S
C1390 C109 0.809 . S
C1395 C527 0.809 . S
C1400 C131 0.809 . S
C1405 C139 0.809 . S
C1410 C461 0.809 . S
C1415 C483 0.809 . S
C1420 C169 0.809 . S
C1425 C587 0.813 . S
C1430 C191 0.813 . S
C1435 C609 0.813 . S
C1440 C219 0.813 . S
C1445 C549 0.811 . S
C1450 C241 0.811 . S
C1455 C263 0.811 . S
C1460 C571 0.811 . S
C1465 C271 0.811 . S
C1470 C675 0.811 . S
C1475 C703 0.813 . S
C1480 C301 0.813 . S
C1485 C623 0.811 . S
C1490 C315 0.811 . S
C1495 C351 0.811 . S
C1500 C645 0.811 . S
C1505 C164 1.368 . S
C1510 C10 1.368 . S
C1515 C32 1.369 . S
C1520 C96 1.370 . S
C1525 C62 1.368 . S
C1530 C118 1.368 . S
C1535 C150 1.368 . S
C1540 C74 1.368 . S
C1545 C338 1.386 . S
C1550 C186 1.386 . S
C1555 C206 1.386 . S
C1560 C282 1.385 . S
C1565 C296 1.385 . S
C1570 C228 1.385 . S
C1575 C326 1.387 . S
C1580 C250 1.387 . S
C1585 C514 1.370 . S
C1590 C360 1.370 . S
C1595 C448 1.370 . S
C1600 C384 1.369 . S
C1605 C470 1.370 . S
C1610 C406 1.370 . S
C1615 C426 1.368 . S
C1620 C492 1.368 . S
C1625 C690 1.385 . S
C1630 C536 1.385 . S
C1635 C634 1.385 . S
C1640 C558 1.385 . S
C1645 C656 1.385 . S
C1650 C582 1.385 . S
C1655 C604 1.386 . S
C1660 C670 1.385 . S
