# Generated by pormake.
# Topology ato, (4)-cn, num edge types: 1
# Building blocks:
#     Node 0, Type 0, BuildingBlock: CEKHIL_clean_sbu_0, # of connection points: 4
#     Node 1, Type 0, BuildingBlock: CEKHIL_clean_sbu_0, # of connection points: 4
#     Node 2, Type 0, BuildingBlock: CEKHIL_clean_sbu_0, # of connection points: 4
#     Node 3, Type 0, BuildingBlock: CEKHIL_clean_sbu_0, # of connection points: 4
#     Node 4, Type 0, BuildingBlock: CEKHIL_clean_sbu_0, # of connection points: 4
#     Node 5, Type 0, BuildingBlock: CEKHIL_clean_sbu_0, # of connection points: 4
#     Node 6, Type 0, BuildingBlock: CEKHIL_clean_sbu_0, # of connection points: 4
#     Node 7, Type 0, BuildingBlock: CEKHIL_clean_sbu_0, # of connection points: 4
#     Node 8, Type 0, BuildingBlock: CEKHIL_clean_sbu_0, # of connection points: 4
#     Node 9, Type 0, BuildingBlock: CEKHIL_clean_sbu_0, # of connection points: 4
#     Node 10, Type 0, BuildingBlock: CEKHIL_clean_sbu_0, # of connection points: 4
#     Node 11, Type 0, BuildingBlock: CEKHIL_clean_sbu_0, # of connection points: 4
#     Node 12, Type 0, BuildingBlock: CEKHIL_clean_sbu_0, # of connection points: 4
#     Node 13, Type 0, BuildingBlock: CEKHIL_clean_sbu_0, # of connection points: 4
#     Node 14, Type 0, BuildingBlock: CEKHIL_clean_sbu_0, # of connection points: 4
#     Node 15, Type 0, BuildingBlock: CEKHIL_clean_sbu_0, # of connection points: 4
#     Node 16, Type 0, BuildingBlock: CEKHIL_clean_sbu_0, # of connection points: 4
#     Node 17, Type 0, BuildingBlock: CEKHIL_clean_sbu_0, # of connection points: 4
#     Node 18, Type 0, BuildingBlock: CEKHIL_clean_sbu_0, # of connection points: 4
#     Node 19, Type 0, BuildingBlock: CEKHIL_clean_sbu_0, # of connection points: 4
#     Node 20, Type 0, BuildingBlock: CEKHIL_clean_sbu_0, # of connection points: 4
#     Node 21, Type 0, BuildingBlock: CEKHIL_clean_sbu_0, # of connection points: 4
#     Node 22, Type 0, BuildingBlock: CEKHIL_clean_sbu_0, # of connection points: 4
#     Node 23, Type 0, BuildingBlock: CEKHIL_clean_sbu_0, # of connection points: 4
#     Node 24, Type 0, BuildingBlock: CEKHIL_clean_sbu_0, # of connection points: 4
#     Node 25, Type 0, BuildingBlock: CEKHIL_clean_sbu_0, # of connection points: 4
#     Node 26, Type 0, BuildingBlock: CEKHIL_clean_sbu_0, # of connection points: 4
#     Node 27, Type 0, BuildingBlock: CEKHIL_clean_sbu_0, # of connection points: 4
#     Node 28, Type 0, BuildingBlock: CEKHIL_clean_sbu_0, # of connection points: 4
#     Node 29, Type 0, BuildingBlock: CEKHIL_clean_sbu_0, # of connection points: 4
#     Node 30, Type 0, BuildingBlock: CEKHIL_clean_sbu_0, # of connection points: 4
#     Node 31, Type 0, BuildingBlock: CEKHIL_clean_sbu_0, # of connection points: 4
#     Node 32, Type 0, BuildingBlock: CEKHIL_clean_sbu_0, # of connection points: 4
#     Node 33, Type 0, BuildingBlock: CEKHIL_clean_sbu_0, # of connection points: 4
#     Node 34, Type 0, BuildingBlock: CEKHIL_clean_sbu_0, # of connection points: 4
#     Node 35, Type 0, BuildingBlock: CEKHIL_clean_sbu_0, # of connection points: 4
#     Edge 36, Type (0, 0), BuildingBlock: KIFKEQ_clean_linker_1, # of connection points: 2
#     Edge 37, Type (0, 0), BuildingBlock: KIFKEQ_clean_linker_1, # of connection points: 2
#     Edge 38, Type (0, 0), BuildingBlock: KIFKEQ_clean_linker_1, # of connection points: 2
#     Edge 39, Type (0, 0), BuildingBlock: KIFKEQ_clean_linker_1, # of connection points: 2
#     Edge 40, Type (0, 0), BuildingBlock: KIFKEQ_clean_linker_1, # of connection points: 2
#     Edge 41, Type (0, 0), BuildingBlock: KIFKEQ_clean_linker_1, # of connection points: 2
#     Edge 42, Type (0, 0), BuildingBlock: KIFKEQ_clean_linker_1, # of connection points: 2
#     Edge 43, Type (0, 0), BuildingBlock: KIFKEQ_clean_linker_1, # of connection points: 2
#     Edge 44, Type (0, 0), BuildingBlock: KIFKEQ_clean_linker_1, # of connection points: 2
#     Edge 45, Type (0, 0), BuildingBlock: KIFKEQ_clean_linker_1, # of connection points: 2
#     Edge 46, Type (0, 0), BuildingBlock: KIFKEQ_clean_linker_1, # of connection points: 2
#     Edge 47, Type (0, 0), BuildingBlock: KIFKEQ_clean_linker_1, # of connection points: 2
#     Edge 48, Type (0, 0), BuildingBlock: KIFKEQ_clean_linker_1, # of connection points: 2
#     Edge 49, Type (0, 0), BuildingBlock: KIFKEQ_clean_linker_1, # of connection points: 2
#     Edge 50, Type (0, 0), BuildingBlock: KIFKEQ_clean_linker_1, # of connection points: 2
#     Edge 51, Type (0, 0), BuildingBlock: KIFKEQ_clean_linker_1, # of connection points: 2
#     Edge 52, Type (0, 0), BuildingBlock: KIFKEQ_clean_linker_1, # of connection points: 2
#     Edge 53, Type (0, 0), BuildingBlock: KIFKEQ_clean_linker_1, # of connection points: 2
#     Edge 54, Type (0, 0), BuildingBlock: KIFKEQ_clean_linker_1, # of connection points: 2
#     Edge 55, Type (0, 0), BuildingBlock: KIFKEQ_clean_linker_1, # of connection points: 2
#     Edge 56, Type (0, 0), BuildingBlock: KIFKEQ_clean_linker_1, # of connection points: 2
#     Edge 57, Type (0, 0), BuildingBlock: KIFKEQ_clean_linker_1, # of connection points: 2
#     Edge 58, Type (0, 0), BuildingBlock: KIFKEQ_clean_linker_1, # of connection points: 2
#     Edge 59, Type (0, 0), BuildingBlock: KIFKEQ_clean_linker_1, # of connection points: 2
#     Edge 60, Type (0, 0), BuildingBlock: KIFKEQ_clean_linker_1, # of connection points: 2
#     Edge 61, Type (0, 0), BuildingBlock: KIFKEQ_clean_linker_1, # of connection points: 2
#     Edge 62, Type (0, 0), BuildingBlock: KIFKEQ_clean_linker_1, # of connection points: 2
#     Edge 63, Type (0, 0), BuildingBlock: KIFKEQ_clean_linker_1, # of connection points: 2
#     Edge 64, Type (0, 0), BuildingBlock: KIFKEQ_clean_linker_1, # of connection points: 2
#     Edge 65, Type (0, 0), BuildingBlock: KIFKEQ_clean_linker_1, # of connection points: 2
#     Edge 66, Type (0, 0), BuildingBlock: KIFKEQ_clean_linker_1, # of connection points: 2
#     Edge 67, Type (0, 0), BuildingBlock: KIFKEQ_clean_linker_1, # of connection points: 2
#     Edge 68, Type (0, 0), BuildingBlock: KIFKEQ_clean_linker_1, # of connection points: 2
#     Edge 69, Type (0, 0), BuildingBlock: KIFKEQ_clean_linker_1, # of connection points: 2
#     Edge 70, Type (0, 0), BuildingBlock: KIFKEQ_clean_linker_1, # of connection points: 2
#     Edge 71, Type (0, 0), BuildingBlock: KIFKEQ_clean_linker_1, # of connection points: 2
#     Edge 72, Type (0, 0), BuildingBlock: KIFKEQ_clean_linker_1, # of connection points: 2
#     Edge 73, Type (0, 0), BuildingBlock: KIFKEQ_clean_linker_1, # of connection points: 2
#     Edge 74, Type (0, 0), BuildingBlock: KIFKEQ_clean_linker_1, # of connection points: 2
#     Edge 75, Type (0, 0), BuildingBlock: KIFKEQ_clean_linker_1, # of connection points: 2
#     Edge 76, Type (0, 0), BuildingBlock: KIFKEQ_clean_linker_1, # of connection points: 2
#     Edge 77, Type (0, 0), BuildingBlock: KIFKEQ_clean_linker_1, # of connection points: 2
#     Edge 78, Type (0, 0), BuildingBlock: KIFKEQ_clean_linker_1, # of connection points: 2
#     Edge 79, Type (0, 0), BuildingBlock: KIFKEQ_clean_linker_1, # of connection points: 2
#     Edge 80, Type (0, 0), BuildingBlock: KIFKEQ_clean_linker_1, # of connection points: 2
#     Edge 81, Type (0, 0), BuildingBlock: KIFKEQ_clean_linker_1, # of connection points: 2
#     Edge 82, Type (0, 0), BuildingBlock: KIFKEQ_clean_linker_1, # of connection points: 2
#     Edge 83, Type (0, 0), BuildingBlock: KIFKEQ_clean_linker_1, # of connection points: 2
#     Edge 84, Type (0, 0), BuildingBlock: KIFKEQ_clean_linker_1, # of connection points: 2
#     Edge 85, Type (0, 0), BuildingBlock: KIFKEQ_clean_linker_1, # of connection points: 2
#     Edge 86, Type (0, 0), BuildingBlock: KIFKEQ_clean_linker_1, # of connection points: 2
#     Edge 87, Type (0, 0), BuildingBlock: KIFKEQ_clean_linker_1, # of connection points: 2
#     Edge 88, Type (0, 0), BuildingBlock: KIFKEQ_clean_linker_1, # of connection points: 2
#     Edge 89, Type (0, 0), BuildingBlock: KIFKEQ_clean_linker_1, # of connection points: 2
#     Edge 90, Type (0, 0), BuildingBlock: KIFKEQ_clean_linker_1, # of connection points: 2
#     Edge 91, Type (0, 0), BuildingBlock: KIFKEQ_clean_linker_1, # of connection points: 2
#     Edge 92, Type (0, 0), BuildingBlock: KIFKEQ_clean_linker_1, # of connection points: 2
#     Edge 93, Type (0, 0), BuildingBlock: KIFKEQ_clean_linker_1, # of connection points: 2
#     Edge 94, Type (0, 0), BuildingBlock: KIFKEQ_clean_linker_1, # of connection points: 2
#     Edge 95, Type (0, 0), BuildingBlock: KIFKEQ_clean_linker_1, # of connection points: 2
#     Edge 96, Type (0, 0), BuildingBlock: KIFKEQ_clean_linker_1, # of connection points: 2
#     Edge 97, Type (0, 0), BuildingBlock: KIFKEQ_clean_linker_1, # of connection points: 2
#     Edge 98, Type (0, 0), BuildingBlock: KIFKEQ_clean_linker_1, # of connection points: 2
#     Edge 99, Type (0, 0), BuildingBlock: KIFKEQ_clean_linker_1, # of connection points: 2
#     Edge 100, Type (0, 0), BuildingBlock: KIFKEQ_clean_linker_1, # of connection points: 2
#     Edge 101, Type (0, 0), BuildingBlock: KIFKEQ_clean_linker_1, # of connection points: 2
#     Edge 102, Type (0, 0), BuildingBlock: KIFKEQ_clean_linker_1, # of connection points: 2
#     Edge 103, Type (0, 0), BuildingBlock: KIFKEQ_clean_linker_1, # of connection points: 2
#     Edge 104, Type (0, 0), BuildingBlock: KIFKEQ_clean_linker_1, # of connection points: 2
#     Edge 105, Type (0, 0), BuildingBlock: KIFKEQ_clean_linker_1, # of connection points: 2
#     Edge 106, Type (0, 0), BuildingBlock: KIFKEQ_clean_linker_1, # of connection points: 2
#     Edge 107, Type (0, 0), BuildingBlock: KIFKEQ_clean_linker_1, # of connection points: 2
# Relax obj value: 0.085
# Max RMSD: 0.095
# Mean RMSD: 0.095
data_MOF--net-ato--node1-CEKHIL_clean_sbu_0--edge1-KIFKEQ_clean_linker_1
_symmetry_space_group_name_H-M    P1
_symmetry_Int_Tables_number       1
_symmetry_cell_setting            triclinic
loop_
_symmetry_equiv_pos_as_xyz
'x, y, z'
_cell_length_a     103.13855
_cell_length_b     103.20313
_cell_length_c     23.486247
_cell_angle_alpha  90.009916
_cell_angle_beta   89.997178
_cell_angle_gamma 120.05294
loop_
_atom_site_label
_atom_site_type_symbol
_atom_site_fract_x
_atom_site_fract_y
_atom_site_fract_z
_atom_type_partial_charge
Co0 Co 0.25799 0.06009 0.27936 0.0
O1 O 0.24085 0.04561 0.32297 0.0
O2 O 0.26311 0.04743 0.32383 0.0
C3 C 0.25561 0.08017 0.30238 0.0
O4 O 0.27855 0.07372 0.24395 0.0
Co5 Co 0.25545 0.07865 0.18007 0.0
O6 O 0.27763 0.08958 0.18066 0.0
C7 C 0.24678 0.0469 0.16095 0.0
C8 C 0.24952 0.04101 0.34369 0.0
C9 C 0.28492 0.08479 0.20898 0.0
O10 O 0.25163 0.04602 0.21085 0.0
O11 O 0.24628 0.05843 0.14398 0.0
O12 O 0.26226 0.07556 0.33711 0.0
O13 O 0.24985 0.07204 0.25768 0.0
Co14 Co 0.9524 0.20119 0.27673 0.0
O15 O 0.96677 0.19806 0.31915 0.0
O16 O 0.96467 0.21827 0.32498 0.0
C17 C 0.93209 0.17836 0.29405 0.0
O18 O 0.93884 0.20853 0.24363 0.0
Co19 Co 0.93471 0.18182 0.17193 0.0
O20 O 0.92338 0.19257 0.17719 0.0
C21 C 0.96607 0.20627 0.15733 0.0
C22 C 0.97116 0.211 0.34273 0.0
C23 C 0.9279 0.20419 0.20807 0.0
O24 O 0.96692 0.21025 0.21006 0.0
O25 O 0.95461 0.19494 0.13577 0.0
O26 O 0.93667 0.1889 0.33207 0.0
O27 O 0.94056 0.1815 0.24984 0.0
Co28 Co 0.81192 0.75443 0.2753 0.0
O29 O 0.81511 0.7716 0.31972 0.0
O30 O 0.79424 0.7497 0.32026 0.0
C31 C 0.83428 0.75638 0.2973 0.0
O32 O 0.80457 0.73384 0.23938 0.0
Co33 Co 0.83275 0.75681 0.17503 0.0
O34 O 0.82134 0.73464 0.17615 0.0
C35 C 0.81 0.76596 0.15739 0.0
C36 C 0.8018 0.76321 0.3406 0.0
C37 C 0.80923 0.72742 0.20442 0.0
O38 O 0.80431 0.7611 0.20735 0.0
O39 O 0.82191 0.7663 0.13987 0.0
O40 O 0.82306 0.74983 0.33233 0.0
O41 O 0.83193 0.76226 0.25299 0.0
Co42 Co 0.06193 0.25547 0.74497 0.0
O43 O 0.04749 0.23806 0.70223 0.0
O44 O 0.0497 0.26043 0.69714 0.0
C45 C 0.08218 0.25291 0.72707 0.0
O46 O 0.07559 0.27629 0.77865 0.0
Co47 Co 0.07952 0.25341 0.84933 0.0
O48 O 0.09096 0.2755 0.84474 0.0
C49 C 0.04827 0.24677 0.8644 0.0
C50 C 0.04315 0.24669 0.67903 0.0
C51 C 0.08652 0.28274 0.8143 0.0
O52 O 0.04743 0.24996 0.81174 0.0
O53 O 0.05967 0.24676 0.88574 0.0
O54 O 0.07762 0.25896 0.68939 0.0
O55 O 0.0737 0.24749 0.77121 0.0
Co56 Co 0.75648 0.80819 0.7441 0.0
O57 O 0.77381 0.81149 0.70051 0.0
O58 O 0.75188 0.79065 0.69846 0.0
C59 C 0.75852 0.8306 0.72263 0.0
O60 O 0.73575 0.80078 0.77909 0.0
Co61 Co 0.75859 0.82879 0.84493 0.0
O62 O 0.73644 0.81744 0.84264 0.0
C63 C 0.7666 0.80522 0.86363 0.0
C64 C 0.76548 0.79826 0.6789 0.0
C65 C 0.72928 0.8054 0.81399 0.0
O66 O 0.76283 0.80029 0.81208 0.0
O67 O 0.76659 0.81686 0.88234 0.0
O68 O 0.7521 0.81949 0.68714 0.0
O69 O 0.76428 0.82816 0.76713 0.0
Co70 Co 0.20351 0.95126 0.74748 0.0
O71 O 0.20092 0.96579 0.7041 0.0
O72 O 0.22128 0.96383 0.70266 0.0
C73 C 0.18096 0.93119 0.72485 0.0
O74 O 0.21033 0.93755 0.78266 0.0
Co75 Co 0.18243 0.93282 0.84724 0.0
O76 O 0.19342 0.92167 0.84568 0.0
C77 C 0.20642 0.96422 0.86713 0.0
C78 C 0.21416 0.97032 0.68305 0.0
C79 C 0.20551 0.92642 0.81744 0.0
O80 O 0.2115 0.96534 0.81587 0.0
O81 O 0.19456 0.95267 0.88525 0.0
O82 O 0.19218 0.93583 0.68987 0.0
O83 O 0.18338 0.93935 0.76953 0.0
Co84 Co 0.75776 0.94972 0.74499 0.0
O85 O 0.77519 0.96328 0.70042 0.0
O86 O 0.75358 0.96287 0.69914 0.0
C87 C 0.75872 0.92863 0.72542 0.0
O88 O 0.73701 0.93708 0.78063 0.0
Co89 Co 0.7593 0.93132 0.84759 0.0
O90 O 0.73717 0.92123 0.84605 0.0
C91 C 0.76966 0.96354 0.86217 0.0
C92 C 0.76709 0.9685 0.67909 0.0
C93 C 0.73029 0.92627 0.81654 0.0
O94 O 0.76468 0.96422 0.8123 0.0
O95 O 0.76973 0.95189 0.88051 0.0
O96 O 0.75287 0.93368 0.6888 0.0
O97 O 0.76478 0.93703 0.76922 0.0
Co98 Co 0.0629 0.81002 0.74552 0.0
O99 O 0.04918 0.81386 0.70189 0.0
O100 O 0.04977 0.79279 0.69903 0.0
C101 C 0.08384 0.83228 0.72639 0.0
O102 O 0.07573 0.80198 0.77997 0.0
Co103 Co 0.08139 0.82979 0.84845 0.0
O104 O 0.09161 0.81791 0.84561 0.0
C105 C 0.04918 0.80775 0.86315 0.0
C106 C 0.04402 0.80063 0.67982 0.0
C107 C 0.08661 0.80608 0.81562 0.0
O108 O 0.04846 0.80215 0.81309 0.0
O109 O 0.06083 0.81948 0.8815 0.0
O110 O 0.07886 0.82149 0.6893 0.0
O111 O 0.07548 0.82969 0.77047 0.0
Co112 Co 0.2025 0.25447 0.74423 0.0
O113 O 0.19902 0.23706 0.70065 0.0
O114 O 0.2199 0.25895 0.69799 0.0
C115 C 0.18003 0.25246 0.72383 0.0
O116 O 0.21017 0.27525 0.77886 0.0
Co117 Co 0.18232 0.25288 0.84579 0.0
O118 O 0.19384 0.27502 0.84284 0.0
C119 C 0.20559 0.24436 0.86338 0.0
C120 C 0.21222 0.24534 0.67865 0.0
C121 C 0.20583 0.28197 0.81374 0.0
O122 O 0.21053 0.24817 0.81187 0.0
O123 O 0.194 0.24446 0.88223 0.0
O124 O 0.19104 0.2588 0.68782 0.0
O125 O 0.18262 0.24681 0.7683 0.0
Co126 Co 0.95339 0.75543 0.27648 0.0
O127 O 0.96733 0.773 0.31955 0.0
O128 O 0.96638 0.75117 0.32313 0.0
C129 C 0.93262 0.75705 0.29574 0.0
O130 O 0.94027 0.73455 0.24246 0.0
Co131 Co 0.93497 0.75691 0.17359 0.0
O132 O 0.92432 0.73482 0.17769 0.0
C133 C 0.96661 0.76496 0.15667 0.0
C134 C 0.97232 0.76482 0.34193 0.0
C135 C 0.92926 0.72786 0.20727 0.0
O136 O 0.96774 0.76154 0.20879 0.0
O137 O 0.95495 0.76477 0.13697 0.0
O138 O 0.93758 0.75123 0.33287 0.0
O139 O 0.94097 0.76274 0.2515 0.0
Co140 Co 0.25736 0.20035 0.27498 0.0
O141 O 0.23974 0.19664 0.31779 0.0
O142 O 0.26143 0.21775 0.32017 0.0
C143 C 0.25587 0.17815 0.29641 0.0
O144 O 0.27826 0.20832 0.24092 0.0
Co145 Co 0.25673 0.18025 0.17472 0.0
O146 O 0.27856 0.19007 0.18958 0.0
C147 C 0.24715 0.20269 0.15511 0.0
C148 C 0.24782 0.20993 0.33935 0.0
C149 C 0.28527 0.20278 0.21408 0.0
O150 O 0.25094 0.20791 0.20632 0.0
O151 O 0.24775 0.19129 0.13707 0.0
O152 O 0.26175 0.18915 0.33264 0.0
O153 O 0.25027 0.18058 0.25144 0.0
Co154 Co 0.81226 0.05899 0.27583 0.0
O155 O 0.81576 0.04509 0.31941 0.0
O156 O 0.79484 0.046 0.322 0.0
C157 C 0.83469 0.07951 0.29642 0.0
O158 O 0.80458 0.07207 0.24092 0.0
Co159 Co 0.83256 0.0776 0.1744 0.0
O160 O 0.82096 0.08812 0.17686 0.0
C161 C 0.80897 0.04594 0.15624 0.0
C162 C 0.80253 0.04009 0.34132 0.0
C163 C 0.80894 0.08307 0.20574 0.0
O164 O 0.80426 0.04467 0.20816 0.0
O165 O 0.82047 0.05768 0.13706 0.0
O166 O 0.82365 0.07479 0.33232 0.0
O167 O 0.83216 0.07127 0.25198 0.0
Co168 Co 0.92417 0.39293 0.60767 0.0
O169 O 0.90653 0.37881 0.6498 0.0
O170 O 0.92839 0.37978 0.65326 0.0
C171 C 0.92226 0.41341 0.62873 0.0
O172 O 0.94512 0.40615 0.57439 0.0
Co173 Co 0.92361 0.41232 0.50708 0.0
O174 O 0.9453 0.42473 0.5238 0.0
C175 C 0.91525 0.38062 0.48679 0.0
C176 C 0.91471 0.37378 0.67185 0.0
C177 C 0.95207 0.41881 0.54832 0.0
O178 O 0.91817 0.37899 0.53904 0.0
O179 O 0.91604 0.39263 0.46786 0.0
O180 O 0.92817 0.4084 0.66526 0.0
O181 O 0.91687 0.4054 0.58352 0.0
Co182 Co 0.61998 0.53415 0.60766 0.0
O183 O 0.63453 0.53131 0.65013 0.0
O184 O 0.6324 0.55153 0.65445 0.0
C185 C 0.59975 0.51141 0.62721 0.0
O186 O 0.60625 0.5412 0.57416 0.0
Co187 Co 0.60186 0.51399 0.50498 0.0
O188 O 0.5906 0.52483 0.50911 0.0
C189 C 0.63323 0.53827 0.48781 0.0
C190 C 0.63894 0.54436 0.67281 0.0
C191 C 0.59521 0.53663 0.53901 0.0
O192 O 0.63422 0.54282 0.53985 0.0
O193 O 0.62176 0.52658 0.46818 0.0
O194 O 0.60445 0.52218 0.66428 0.0
O195 O 0.60807 0.51429 0.58272 0.0
Co196 Co 0.47796 0.08816 0.60665 0.0
O197 O 0.48122 0.10548 0.65022 0.0
O198 O 0.46044 0.0835 0.65253 0.0
C199 C 0.50045 0.0903 0.6276 0.0
O200 O 0.47054 0.06743 0.57191 0.0
Co201 Co 0.49839 0.09013 0.50543 0.0
O202 O 0.48721 0.06799 0.50875 0.0
C203 C 0.4747 0.09802 0.48708 0.0
C204 C 0.46801 0.0971 0.67199 0.0
C205 C 0.47517 0.06088 0.53745 0.0
O206 O 0.46991 0.0944 0.53884 0.0
O207 O 0.48629 0.09793 0.46804 0.0
O208 O 0.48939 0.08389 0.66336 0.0
O209 O 0.49791 0.09598 0.58311 0.0
Co210 Co 0.72919 0.58829 0.07631 0.0
O211 O 0.71472 0.57108 0.03288 0.0
O212 O 0.71665 0.59336 0.03065 0.0
C213 C 0.74929 0.58576 0.05494 0.0
O214 O 0.74282 0.60893 0.11115 0.0
Co215 Co 0.74755 0.58598 0.17702 0.0
O216 O 0.75851 0.60815 0.17571 0.0
C217 C 0.71572 0.57728 0.19438 0.0
C218 C 0.7102 0.57973 0.0113 0.0
C219 C 0.75381 0.61538 0.1465 0.0
O220 O 0.71499 0.58218 0.14439 0.0
O221 O 0.72718 0.57672 0.21191 0.0
O222 O 0.74479 0.59232 0.01934 0.0
O223 O 0.74104 0.58016 0.09946 0.0
Co224 Co 0.42377 0.14312 0.07548 0.0
O225 O 0.44093 0.1464 0.03081 0.0
O226 O 0.4191 0.12543 0.03072 0.0
C227 C 0.42551 0.16536 0.05324 0.0
O228 O 0.40322 0.1357 0.1119 0.0
Co229 Co 0.42626 0.16403 0.1756 0.0
O230 O 0.40408 0.15248 0.17521 0.0
C231 C 0.43559 0.14143 0.19311 0.0
C232 C 0.43259 0.13306 1.01015 0.0
C233 C 0.39684 0.14034 0.14713 0.0
O234 O 0.43062 0.13567 0.14333 0.0
O235 O 0.43593 0.15334 0.21057 0.0
O236 O 0.41896 0.15409 0.01844 0.0
O237 O 0.43153 0.16314 0.09744 0.0
Co238 Co 0.86893 0.284 0.0769 0.0
O239 O 0.86544 0.29764 0.03163 0.0
O240 O 0.88651 0.29699 0.03155 0.0
C241 C 0.84673 0.26328 0.05578 0.0
O242 O 0.87655 0.27114 0.11396 0.0
Co243 Co 0.84824 0.26577 0.17798 0.0
O244 O 0.85998 0.25535 0.17815 0.0
C245 C 0.87076 0.29784 0.19385 0.0
C246 C 0.87878 0.3027 0.01077 0.0
C247 C 0.87207 0.26027 0.14981 0.0
O248 O 0.87644 0.29852 0.14401 0.0
O249 O 0.85891 0.28627 0.2119 0.0
O250 O 0.85793 0.268 0.02065 0.0
O251 O 0.84898 0.27166 0.09956 0.0
Co252 Co 0.42439 0.28417 0.07867 0.0
O253 O 0.44184 0.29793 0.03477 0.0
O254 O 0.42017 0.29739 0.03336 0.0
C255 C 0.42571 0.26334 0.05766 0.0
O256 O 0.40363 0.27133 0.11401 0.0
Co257 Co 0.42552 0.26512 0.17947 0.0
O258 O 0.40364 0.25302 0.1659 0.0
C259 C 0.43523 0.29722 0.1976 0.0
C260 C 0.43371 0.30311 0.01348 0.0
C261 C 0.39678 0.25887 0.1415 0.0
O262 O 0.43111 0.29841 0.14667 0.0
O263 O 0.43476 0.28531 0.21596 0.0
O264 O 0.41973 0.26838 0.02158 0.0
O265 O 0.43155 0.27155 0.10211 0.0
Co266 Co 0.7286 0.14215 0.07711 0.0
O267 O 0.71486 0.14599 0.03375 0.0
O268 O 0.7157 0.12505 0.02963 0.0
C269 C 0.74945 0.16453 0.0592 0.0
O270 O 0.74153 0.13418 0.1114 0.0
Co271 Co 0.74662 0.1616 0.18143 0.0
O272 O 0.75731 0.15021 0.17704 0.0
C273 C 0.71498 0.13789 0.19638 0.0
C274 C 0.70985 0.13285 0.01101 0.0
C275 C 0.75244 0.13839 0.14702 0.0
O276 O 0.71399 0.13375 0.1438 0.0
O277 O 0.72663 0.14907 0.21766 0.0
O278 O 0.74458 0.15386 0.02163 0.0
O279 O 0.74099 0.16179 0.10317 0.0
Co280 Co 0.87022 0.58858 0.08221 0.0
O281 O 0.86727 0.57119 0.03951 0.0
O282 O 0.88762 0.59349 0.03568 0.0
C283 C 0.84755 0.5862 0.06239 0.0
O284 O 0.87745 0.60937 0.11597 0.0
Co285 Co 0.85007 0.5867 0.18459 0.0
O286 O 0.86118 0.60882 0.18105 0.0
C287 C 0.87403 0.57919 0.20191 0.0
C288 C 0.88037 0.57979 0.01708 0.0
C289 C 0.87302 0.61593 0.15124 0.0
O290 O 0.87872 0.58285 0.15005 0.0
O291 O 0.86236 0.57904 0.22126 0.0
O292 O 0.85837 0.59227 0.02551 0.0
O293 O 0.85035 0.58072 0.10693 0.0
Co294 Co 0.61897 0.08796 0.60866 0.0
O295 O 0.63281 0.10549 0.65217 0.0
O296 O 0.63171 0.0836 0.65622 0.0
C297 C 0.5982 0.08968 0.62622 0.0
O298 O 0.60594 0.06708 0.57442 0.0
Co299 Co 0.60109 0.08946 0.50407 0.0
O300 O 0.59029 0.06736 0.50834 0.0
C301 C 0.63267 0.09717 0.48946 0.0
C302 C 0.63769 0.09726 0.67489 0.0
C303 C 0.59507 0.06039 0.53865 0.0
O304 O 0.63361 0.09406 0.54213 0.0
O305 O 0.62107 0.09675 0.46798 0.0
O306 O 0.60298 0.08383 0.66393 0.0
O307 O 0.60671 0.09535 0.58232 0.0
Co308 Co 0.92415 0.53352 0.61351 0.0
O309 O 0.907 0.5308 0.65721 0.0
O310 O 0.92925 0.55125 0.65848 0.0
C311 C 0.92174 0.51102 0.63592 0.0
O312 O 0.94471 0.54049 0.57793 0.0
Co313 Co 0.92151 0.51249 0.51364 0.0
O314 O 0.9437 0.52382 0.5138 0.0
C315 C 0.91293 0.53564 0.49536 0.0
C316 C 0.91565 0.54404 0.67824 0.0
C317 C 0.95102 0.53585 0.54239 0.0
O318 O 0.91785 0.54135 0.54525 0.0
O319 O 0.91233 0.52358 0.47816 0.0
O320 O 0.92838 0.52222 0.6709 0.0
O321 O 0.91599 0.51345 0.59138 0.0
Co322 Co 0.47916 0.39314 0.60934 0.0
O323 O 0.48243 0.37904 0.65252 0.0
O324 O 0.46159 0.3801 0.6547 0.0
C325 C 0.50165 0.41337 0.63144 0.0
O326 O 0.47169 0.40641 0.5745 0.0
Co327 Co 0.49967 0.41233 0.50981 0.0
O328 O 0.4903 0.42477 0.52382 0.0
C329 C 0.47618 0.38063 0.48916 0.0
C330 C 0.46918 0.3741 0.6741 0.0
C331 C 0.47751 0.41897 0.54761 0.0
O332 O 0.47136 0.37909 0.54101 0.0
O333 O 0.4876 0.39258 0.47072 0.0
O334 O 0.49048 0.40871 0.66672 0.0
O335 O 0.49913 0.40533 0.58638 0.0
Co336 Co 0.59039 0.72582 0.94575 0.0
O337 O 0.57321 0.71141 0.9894 0.0
O338 O 0.59542 0.71312 0.99047 0.0
C339 C 0.58815 0.746 0.96839 0.0
O340 O 0.61096 0.73936 0.91023 0.0
Co341 Co 0.5879 0.74436 0.84614 0.0
O342 O 0.61009 0.75529 0.84711 0.0
C343 C 0.57924 0.71261 0.82733 0.0
C344 C 0.58183 0.70676 1.01028 0.0
C345 C 0.61736 0.75045 0.8753 0.0
O346 O 0.58404 0.71173 0.87734 0.0
O347 O 0.57876 0.72413 0.81017 0.0
O348 O 0.59471 0.74135 1.00332 0.0
O349 O 0.58234 0.73783 0.92382 0.0
Co350 Co 0.28597 0.86758 0.9441 0.0
O351 O 0.30048 0.86458 0.9862 0.0
O352 O 0.29842 0.88482 0.99154 0.0
C353 C 0.26571 0.84479 0.9629 0.0
O354 O 0.27228 0.87477 0.91111 0.0
Co355 Co 0.26785 0.84767 0.84085 0.0
O356 O 0.25663 0.85853 0.84569 0.0
C357 C 0.29925 0.87193 0.82421 0.0
C358 C 0.30492 0.87758 1.00943 0.0
C359 C 0.26125 0.87028 0.87593 0.0
O360 O 0.30024 0.87639 0.87641 0.0
O361 O 0.28777 0.8603 0.80433 0.0
O362 O 0.2704 0.85546 1.00042 0.0
O363 O 0.27406 0.8478 0.91844 0.0
Co364 Co 0.14536 0.42163 0.94541 0.0
O365 O 0.14838 0.43883 0.98932 0.0
O366 O 0.128 0.41653 0.99251 0.0
C367 C 0.16803 0.42404 0.96453 0.0
O368 O 0.13817 0.40101 0.90997 0.0
Co369 Co 0.16543 0.42414 0.84223 0.0
O370 O 0.15455 0.402 0.84454 0.0
C371 C 0.141 0.43102 0.82663 0.0
C372 C 0.13528 0.43018 0.01161 0.0
C373 C 0.1427 0.39468 0.87411 0.0
O374 O 0.13679 0.42766 0.87901 0.0
O375 O 0.15241 0.43097 0.80553 0.0
O376 O 0.15713 0.41756 1.00088 0.0
O377 O 0.16529 0.42979 0.92061 0.0
Co378 Co 0.39534 0.9215 0.41292 0.0
O379 O 0.38102 0.90413 0.36961 0.0
O380 O 0.38273 0.92631 0.36669 0.0
C381 C 0.41582 0.91945 0.39303 0.0
O382 O 0.40877 0.94225 0.44731 0.0
Co383 Co 0.41359 0.91955 0.51519 0.0
O384 O 0.42436 0.9417 0.51295 0.0
C385 C 0.38166 0.91047 0.53087 0.0
C386 C 0.37641 0.91267 0.34757 0.0
C387 C 0.41966 0.9488 0.48302 0.0
O388 O 0.38105 0.9154 0.48079 0.0
O389 O 0.39311 0.90997 0.54894 0.0
O390 O 0.41103 0.9255 0.35626 0.0
O391 O 0.40747 0.9138 0.43729 0.0
Co392 Co 0.09105 0.47628 0.41373 0.0
O393 O 0.10849 0.47926 0.37128 0.0
O394 O 0.08616 0.45894 0.36712 0.0
C395 C 0.09356 0.49898 0.39425 0.0
O396 O 0.07022 0.46896 0.4473 0.0
Co397 Co 0.0922 0.496 0.51601 0.0
O398 O 0.07052 0.48722 0.50044 0.0
C399 C 0.09933 0.47175 0.53407 0.0
C400 C 0.09988 0.46618 0.34878 0.0
C401 C 0.0635 0.47469 0.47487 0.0
O402 O 0.09668 0.46773 0.48125 0.0
O403 O 0.09868 0.48289 0.5547 0.0
O404 O 0.08747 0.4882 0.35718 0.0
O405 O 0.09888 0.49608 0.43907 0.0
Co406 Co 0.53624 0.61683 0.4142 0.0
O407 O 0.53337 0.6313 0.37146 0.0
O408 O 0.5537 0.62934 0.36796 0.0
C409 C 0.51359 0.59653 0.39397 0.0
O410 O 0.54336 0.6032 0.44809 0.0
Co411 Co 0.51592 0.59855 0.51625 0.0
O412 O 0.52692 0.58745 0.51269 0.0
C413 C 0.53991 0.63002 0.5339 0.0
C414 C 0.54648 0.63579 0.34923 0.0
C415 C 0.5388 0.59216 0.48315 0.0
O416 O 0.54467 0.63103 0.48217 0.0
O417 O 0.52818 0.61851 0.55305 0.0
O418 O 0.52446 0.60131 0.35728 0.0
O419 O 0.51633 0.60481 0.43851 0.0
Co420 Co 0.09023 0.61669 0.411 0.0
O421 O 0.10757 0.6308 0.36759 0.0
O422 O 0.08555 0.62948 0.36481 0.0
C423 C 0.09258 0.59646 0.39022 0.0
O424 O 0.06948 0.60327 0.44571 0.0
Co425 Co 0.09229 0.59831 0.51232 0.0
O426 O 0.07014 0.58728 0.50915 0.0
C427 C 0.10005 0.62986 0.53047 0.0
C428 C 0.09919 0.63558 0.34557 0.0
C429 C 0.06297 0.59213 0.48041 0.0
O430 O 0.09639 0.63099 0.47873 0.0
O431 O 0.10004 0.61824 0.54952 0.0
O432 O 0.08609 0.60099 0.35439 0.0
O433 O 0.09817 0.60471 0.43475 0.0
Co434 Co 0.39547 0.47594 0.40958 0.0
O435 O 0.38125 0.47924 0.36726 0.0
O436 O 0.38232 0.45842 0.36421 0.0
C437 C 0.41564 0.49845 0.38735 0.0
O438 O 0.40881 0.46842 0.44338 0.0
Co439 Co 0.41501 0.4963 0.50881 0.0
O440 O 0.42747 0.48704 0.49299 0.0
C441 C 0.38337 0.47272 0.53053 0.0
C442 C 0.37625 0.46602 0.34543 0.0
C443 C 0.42152 0.47424 0.46927 0.0
O444 O 0.3816 0.46809 0.47835 0.0
O445 O 0.39543 0.48403 0.54894 0.0
O446 O 0.41092 0.48733 0.35184 0.0
O447 O 0.40773 0.49587 0.43279 0.0
Co448 Co 0.53611 0.92116 0.41104 0.0
O449 O 0.53274 0.90379 0.36756 0.0
O450 O 0.55361 0.92568 0.36531 0.0
C451 C 0.51368 0.91914 0.38973 0.0
O452 O 0.54364 0.94189 0.44596 0.0
Co453 Co 0.51561 0.91929 0.5119 0.0
O454 O 0.52707 0.94142 0.50941 0.0
C455 C 0.53924 0.91133 0.53076 0.0
C456 C 0.54598 0.91208 0.34589 0.0
C457 C 0.53914 0.94848 0.48083 0.0
O458 O 0.54404 0.91487 0.47898 0.0
O459 O 0.52767 0.91148 0.54962 0.0
O460 O 0.52479 0.92553 0.35415 0.0
O461 O 0.51615 0.91343 0.4343 0.0
Co462 Co 0.28634 0.42141 0.94002 0.0
O463 O 0.2999 0.43879 0.98477 0.0
O464 O 0.29932 0.41712 0.98654 0.0
C465 C 0.26533 0.42259 0.95883 0.0
O466 O 0.27361 0.40067 0.90431 0.0
Co467 Co 0.26823 0.42312 0.83671 0.0
O468 O 0.25795 0.40099 0.83834 0.0
C469 C 0.30049 0.43337 0.82339 0.0
C470 C 0.30499 0.43063 1.00654 0.0
C471 C 0.26283 0.39402 0.86816 0.0
O472 O 0.30101 0.42827 0.87321 0.0
O473 O 0.28891 0.43353 0.80468 0.0
O474 O 0.27023 0.41666 0.99571 0.0
O475 O 0.27382 0.42857 0.91518 0.0
Co476 Co 0.5908 0.86671 0.94197 0.0
O477 O 0.57337 0.86293 0.98623 0.0
O478 O 0.59503 0.88408 0.98769 0.0
C479 C 0.58967 0.84461 0.96199 0.0
O480 O 0.61157 0.87473 0.90662 0.0
Co481 Co 0.58923 0.84666 0.83975 0.0
O482 O 0.61137 0.85862 0.84158 0.0
C483 C 0.57906 0.86864 0.82448 0.0
C484 C 0.5815 0.87624 1.00761 0.0
C485 C 0.61827 0.87056 0.87096 0.0
O486 O 0.58399 0.87431 0.87441 0.0
O487 O 0.57898 0.85691 0.80633 0.0
O488 O 0.59556 0.85555 0.99847 0.0
O489 O 0.5837 0.84697 0.91798 0.0
Co490 Co 0.14553 0.7259 0.94203 0.0
O491 O 0.14887 0.71206 0.98671 0.0
O492 O 0.1279 0.7129 0.9871 0.0
C493 C 0.16783 0.74647 0.96365 0.0
O494 O 0.13798 0.73892 0.90587 0.0
Co495 Co 0.16619 0.74441 0.84144 0.0
O496 O 0.15451 0.75489 0.84204 0.0
C497 C 0.14366 0.71238 0.82439 0.0
C498 C 0.13554 0.70705 1.00755 0.0
C499 C 0.14243 0.7499 0.87053 0.0
O500 O 0.13797 0.71156 0.87433 0.0
O501 O 0.15552 0.72401 0.80669 0.0
O502 O 0.15662 0.74175 0.99877 0.0
O503 O 0.16551 0.73821 0.91944 0.0
H504 H 0.23804 0.97698 0.61354 0.0
H505 H 0.2038 0.98849 0.64454 0.0
H506 H 0.24646 0.99332 0.53044 0.0
H507 H 0.21259 0.00538 0.56318 0.0
H508 H 0.22098 0.023 0.38283 0.0
H509 H 0.21286 0.00609 0.46412 0.0
H510 H 0.25876 0.01776 0.49545 0.0
H511 H 0.26669 0.03412 0.41241 0.0
C512 C 0.23247 0.98321 0.60317 0.0
C513 C 0.22023 0.9814 0.63574 0.0
C514 C 0.23733 0.99266 0.55544 0.0
C515 C 0.2302 1.00071 0.53925 0.0
C516 C 0.21819 0.99915 0.57303 0.0
C517 C 0.21322 0.98957 0.62028 0.0
C518 C 0.22931 0.02184 0.40676 0.0
C519 C 0.24448 0.02991 0.39093 0.0
C520 C 0.22468 0.01223 0.45397 0.0
C521 C 0.23512 0.01057 0.48735 0.0
C522 C 0.2503 0.01851 0.47077 0.0
C523 C 0.25489 0.02797 0.42308 0.0
H524 H 0.03623 0.26353 0.6089 0.0
H525 H 0.02521 0.21797 0.64078 0.0
H526 H 0.01955 0.2553 0.52692 0.0
H527 H 0.00796 0.20953 0.56027 0.0
H528 H 0.98901 0.20007 0.38046 0.0
H529 H 1.00628 0.20876 0.46096 0.0
H530 H 0.99487 0.243 0.49534 0.0
H531 H 0.97819 0.2347 0.41339 0.0
C532 C 0.03006 0.2517 0.59891 0.0
C533 C 0.03208 0.24142 0.63157 0.0
C534 C 0.02039 0.24692 0.55182 0.0
C535 C 0.0123 0.23169 0.53627 0.0
C536 C 0.01416 0.22139 0.56978 0.0
C537 C 0.02396 0.2262 0.6165 0.0
C538 C 0.9903 0.20954 0.40497 0.0
C539 C 0.98224 0.21671 0.39021 0.0
C540 C 1.00012 0.21446 0.45168 0.0
C541 C 1.00203 0.2266 0.48546 0.0
C542 C 0.99399 0.2338 0.47021 0.0
C543 C 0.98431 0.22899 0.42314 0.0
H544 H 0.81803 0.78679 0.41156 0.0
H545 H 0.77286 0.75133 0.37921 0.0
H546 H 0.8095 0.79456 0.49408 0.0
H547 H 0.76399 0.75965 0.46002 0.0
H548 H 0.75362 0.76949 0.63847 0.0
H549 H 0.76227 0.76092 0.5577 0.0
H550 H 0.79754 0.80648 0.52737 0.0
H551 H 0.78944 0.81469 0.60984 0.0
C552 C 0.80618 0.78081 0.4215 0.0
C553 C 0.79613 0.76847 0.38852 0.0
C554 C 0.80122 0.78534 0.46895 0.0
C555 C 0.78595 0.77787 0.48441 0.0
C556 C 0.77586 0.7656 0.45067 0.0
C557 C 0.7809 0.76088 0.40375 0.0
C558 C 0.76332 0.77761 0.61477 0.0
C559 C 0.77091 0.79275 0.63102 0.0
C560 C 0.76823 0.77273 0.56786 0.0
C561 C 0.78069 0.78293 0.53518 0.0
C562 C 0.78816 0.79811 0.55167 0.0
C563 C 0.78345 0.8029 0.5991 0.0
H564 H 0.79072 0.97563 0.60824 0.0
H565 H 0.75573 0.98595 0.64089 0.0
H566 H 0.79872 0.99204 0.52576 0.0
H567 H 0.76424 1.00317 0.56031 0.0
H568 H 0.77383 0.02321 0.38225 0.0
H569 H 0.76529 0.00594 0.46276 0.0
H570 H 0.81081 0.01595 0.49178 0.0
H571 H 0.81901 0.03238 0.40947 0.0
C572 C 0.7849 0.98165 0.59837 0.0
C573 C 0.7726 0.97949 0.63135 0.0
C574 C 0.78954 0.99119 0.55096 0.0
C575 C 0.78222 0.99913 0.53558 0.0
C576 C 0.77004 0.99711 0.56948 0.0
C577 C 0.76522 0.98733 0.61631 0.0
C578 C 0.78195 0.02157 0.4056 0.0
C579 C 0.79708 0.0291 0.38906 0.0
C580 C 0.7771 0.01176 0.45238 0.0
C581 C 0.78729 0.00941 0.4847 0.0
C582 C 0.80245 0.01706 0.46782 0.0
C583 C 0.80723 0.02662 0.4205 0.0
H584 H 0.03672 0.81723 0.61032 0.0
H585 H 0.02665 0.77191 0.64038 0.0
H586 H 0.02029 0.80899 0.52784 0.0
H587 H 0.0094 0.76335 0.55988 0.0
H588 H 0.98936 0.75319 0.38216 0.0
H589 H 1.00663 0.76187 0.4626 0.0
H590 H 0.99646 0.79718 0.49289 0.0
H591 H 0.98001 0.78899 0.41048 0.0
C592 C 0.03076 0.80542 0.59988 0.0
C593 C 0.033 0.79524 0.63213 0.0
C594 C 0.0212 0.80062 0.55247 0.0
C595 C 0.01333 0.7854 0.53632 0.0
C596 C 0.01541 0.77519 0.56957 0.0
C597 C 0.02521 0.78006 0.61638 0.0
C598 C 0.99096 0.7629 0.40576 0.0
C599 C 0.98337 0.77044 0.38955 0.0
C600 C 1.00078 0.76782 0.45254 0.0
C601 C 1.00307 0.78028 0.48528 0.0
C602 C 0.99539 0.78777 0.46866 0.0
C603 C 0.98582 0.78302 0.42128 0.0
H604 H 0.25918 0.23869 0.37839 0.0
H605 H 0.22398 0.19333 0.4091 0.0
H606 H 0.2506 0.24723 0.45929 0.0
H607 H 0.21593 0.20155 0.49187 0.0
H608 H 0.19571 0.22134 0.60965 0.0
H609 H 0.20391 0.21333 0.52672 0.0
H610 H 0.24947 0.24865 0.55689 0.0
H611 H 0.24093 0.25718 0.63801 0.0
C612 C 0.24962 0.23053 0.40257 0.0
C613 C 0.24221 0.21535 0.38693 0.0
C614 C 0.24476 0.23539 0.44959 0.0
C615 C 0.23252 0.22515 0.48308 0.0
C616 C 0.22516 0.20993 0.46703 0.0
C617 C 0.22983 0.20515 0.41942 0.0
C618 C 0.2075 0.22735 0.59875 0.0
C619 C 0.21766 0.23988 0.63067 0.0
C620 C 0.21227 0.2227 0.55106 0.0
C621 C 0.22745 0.23024 0.53432 0.0
C622 C 0.23766 0.24266 0.56715 0.0
C623 C 0.2328 0.24749 0.61428 0.0
H624 H 0.92644 0.35681 0.71206 0.0
H625 H 0.89054 0.36607 0.74018 0.0
H626 H 0.91782 0.33964 0.79284 0.0
H627 H 0.88243 0.34974 0.82278 0.0
H628 H 0.8623 0.30966 0.93963 0.0
H629 H 0.87063 0.32586 0.85675 0.0
H630 H 0.9163 0.33701 0.89061 0.0
H631 H 0.90764 0.31993 0.97179 0.0
C632 C 0.91671 0.35519 0.73564 0.0
C633 C 0.90911 0.36273 0.71931 0.0
C634 C 0.91183 0.34544 0.78257 0.0
C635 C 0.89937 0.34317 0.81523 0.0
C636 C 0.89183 0.35079 0.79853 0.0
C637 C 0.89654 0.36029 0.75103 0.0
C638 C 0.87414 0.31562 0.92955 0.0
C639 C 0.8843 0.31352 0.96256 0.0
C640 C 0.87899 0.32505 0.8819 0.0
C641 C 0.89423 0.33296 0.86628 0.0
C642 C 0.90444 0.33098 0.90007 0.0
C643 C 0.89951 0.32129 0.94721 0.0
H644 H 0.64573 0.56808 0.74318 0.0
H645 H 0.65699 0.53373 0.71091 0.0
H646 H 0.66221 0.57641 0.82582 0.0
H647 H 0.67404 0.54244 0.79196 0.0
H648 H 0.69231 0.55114 0.97206 0.0
H649 H 0.67527 0.54291 0.89105 0.0
H650 H 0.68671 0.58872 0.85964 0.0
H651 H 0.7032 0.59675 0.9423 0.0
C652 C 0.65192 0.56245 0.7532 0.0
C653 C 0.65001 0.55022 0.7203 0.0
C654 C 0.66147 0.56727 0.80067 0.0
C655 C 0.66954 0.56012 0.81637 0.0
C656 C 0.66784 0.54808 0.78244 0.0
C657 C 0.65815 0.54315 0.73538 0.0
C658 C 0.69107 0.55943 0.94815 0.0
C659 C 0.6991 0.57461 0.96391 0.0
C660 C 0.68139 0.55474 0.90109 0.0
C661 C 0.67958 0.56511 0.86784 0.0
C662 C 0.68754 0.58029 0.88424 0.0
C663 C 0.69708 0.58495 0.93174 0.0
H664 H 0.48436 0.12111 0.74096 0.0
H665 H 0.43924 0.08507 0.71255 0.0
H666 H 0.47605 0.12912 0.82349 0.0
H667 H 0.43057 0.0936 0.79337 0.0
H668 H 0.4209 0.10412 0.97186 0.0
H669 H 0.42934 0.09533 0.89112 0.0
H670 H 0.46395 0.14092 0.85654 0.0
H671 H 0.45607 0.14938 0.93896 0.0
C672 C 0.47256 0.11505 0.75176 0.0
C673 C 0.46247 0.10248 0.71989 0.0
C674 C 0.46773 0.1197 0.79922 0.0
C675 C 0.45254 0.11214 0.81577 0.0
C676 C 0.44239 0.09964 0.78315 0.0
C677 C 0.44732 0.0948 0.73622 0.0
C678 C 0.43041 0.1122 0.94722 0.0
C679 C 0.43789 0.12743 0.96226 0.0
C680 C 0.43519 0.1072 0.90034 0.0
C681 C 0.44741 0.11734 0.8665 0.0
C682 C 0.45477 0.1326 0.88177 0.0
C683 C 0.45018 0.13753 0.92916 0.0
H684 H 0.44044 0.35731 0.71487 0.0
H685 H 0.48557 0.36639 0.74263 0.0
H686 H 0.43185 0.34018 0.79586 0.0
H687 H 0.47733 0.35014 0.82534 0.0
H688 H 0.45729 0.31011 0.9427 0.0
H689 H 0.46522 0.32631 0.85974 0.0
H690 H 0.43078 0.33755 0.89356 0.0
H691 H 0.42231 0.32049 0.97472 0.0
C692 C 0.44853 0.35567 0.73841 0.0
C693 C 0.46367 0.36314 0.7219 0.0
C694 C 0.44365 0.34595 0.78546 0.0
C695 C 0.45383 0.34363 0.81804 0.0
C696 C 0.46899 0.35121 0.80118 0.0
C697 C 0.47378 0.36067 0.75361 0.0
C698 C 0.45146 0.31611 0.93261 0.0
C699 C 0.43919 0.31403 0.96557 0.0
C700 C 0.45607 0.32553 0.8849 0.0
C701 C 0.44875 0.33345 0.86919 0.0
C702 C 0.43659 0.33151 0.90304 0.0
C703 C 0.4318 0.32183 0.95018 0.0
H704 H 0.69249 0.10418 0.97121 0.0
H705 H 0.70244 0.14952 0.94239 0.0
H706 H 0.67509 0.09568 0.89122 0.0
H707 H 0.68585 0.14133 0.86035 0.0
H708 H 0.64535 0.12133 0.74399 0.0
H709 H 0.66194 0.1295 0.82605 0.0
H710 H 0.67222 0.09432 0.79409 0.0
H711 H 0.65482 0.08567 0.71413 0.0
C712 C 0.691 0.11235 0.94755 0.0
C713 C 0.6988 0.12751 0.96349 0.0
C714 C 0.68111 0.10751 0.90105 0.0
C715 C 0.67895 0.11775 0.8683 0.0
C716 C 0.68683 0.13295 0.88461 0.0
C717 C 0.69647 0.13772 0.93176 0.0
C718 C 0.65121 0.11539 0.7544 0.0
C719 C 0.64875 0.10285 0.72238 0.0
C720 C 0.66085 0.12013 0.80155 0.0
C721 C 0.6686 0.11265 0.81757 0.0
C722 C 0.6663 0.10025 0.78451 0.0
C723 C 0.65641 0.09534 0.73802 0.0
H724 H 0.88707 0.53339 0.71732 0.0
H725 H 0.93275 0.56808 0.74727 0.0
H726 H 0.87887 0.54217 0.79842 0.0
H727 H 0.92474 0.5765 0.83008 0.0
H728 H 0.90416 0.59676 0.947 0.0
H729 H 0.91248 0.58867 0.86425 0.0
H730 H 0.87837 0.54283 0.89744 0.0
H731 H 0.86966 0.55112 0.9786 0.0
C732 C 0.89538 0.54291 0.7413 0.0
C733 C 0.91057 0.55005 0.72557 0.0
C734 C 0.8907 0.54788 0.78841 0.0
C735 C 0.9011 0.56003 0.82178 0.0
C736 C 0.91629 0.56727 0.80539 0.0
C737 C 0.92094 0.5624 0.75781 0.0
C738 C 0.89849 0.58494 0.93682 0.0
C739 C 0.88623 0.57461 0.96954 0.0
C740 C 0.90331 0.58025 0.88927 0.0
C741 C 0.89612 0.56504 0.87335 0.0
C742 C 0.88404 0.55468 0.90713 0.0
C743 C 0.87911 0.5594 0.95425 0.0
H744 H 0.53588 0.65383 0.31086 0.0
H745 H 0.57023 0.64252 0.27906 0.0
H746 H 0.5446 0.6708 0.22963 0.0
H747 H 0.57856 0.65891 0.19622 0.0
H748 H 0.55325 0.68888 0.0495 0.0
H749 H 0.54504 0.6719 0.13062 0.0
H750 H 0.59087 0.68333 0.1619 0.0
H751 H 0.59889 0.69975 0.07907 0.0
C752 C 0.5453 0.65496 0.28645 0.0
C753 C 0.55237 0.64684 0.30171 0.0
C754 C 0.55024 0.6646 0.23929 0.0
C755 C 0.56228 0.66626 0.20542 0.0
C756 C 0.56943 0.6582 0.22131 0.0
C757 C 0.5646 0.64871 0.26891 0.0
C758 C 0.56155 0.68765 0.07339 0.0
C759 C 0.57673 0.69566 0.05757 0.0
C760 C 0.55686 0.678 0.12052 0.0
C761 C 0.56725 0.67622 0.15379 0.0
C762 C 0.58244 0.68414 0.13728 0.0
C763 C 0.58709 0.69364 0.08969 0.0
H764 H 0.36924 0.92958 0.2789 0.0
H765 H 0.35877 0.88406 0.30751 0.0
H766 H 0.35274 0.92156 0.19643 0.0
H767 H 0.34166 0.87582 0.22658 0.0
H768 H 0.32295 0.86681 0.04666 0.0
H769 H 0.34007 0.87536 0.12756 0.0
H770 H 0.32827 0.90927 0.16323 0.0
H771 H 0.31175 0.90112 0.08078 0.0
C772 C 0.36322 0.9178 0.26811 0.0
C773 C 0.36535 0.90748 0.29999 0.0
C774 C 0.35365 0.91314 0.22072 0.0
C775 C 0.34575 0.89798 0.20407 0.0
C776 C 0.34771 0.88763 0.23687 0.0
C777 C 0.35743 0.89233 0.28387 0.0
C778 C 0.32413 0.87619 0.07151 0.0
C779 C 0.316 0.8833 0.05695 0.0
C780 C 0.33386 0.88102 0.11848 0.0
C781 C 0.33561 0.89301 0.15283 0.0
C782 C 0.32752 0.90018 0.13773 0.0
C783 C 0.31794 0.89546 0.09035 0.0
H784 H 0.08292 0.44229 0.27936 0.0
H785 H 0.12858 0.47689 0.31042 0.0
H786 H 0.09102 0.43379 0.1972 0.0
H787 H 0.13688 0.468 0.22978 0.0
H788 H 0.14603 0.45884 0.04959 0.0
H789 H 0.13738 0.46725 0.13052 0.0
H790 H 0.10329 0.42146 0.16465 0.0
H791 H 0.11156 0.41324 0.08208 0.0
C792 C 0.09474 0.44794 0.26918 0.0
C793 C 0.10509 0.46028 0.30156 0.0
C794 C 0.09944 0.44302 0.222 0.0
C795 C 0.11465 0.45018 0.20614 0.0
C796 C 0.12503 0.46235 0.23952 0.0
C797 C 0.1203 0.46738 0.28631 0.0
C798 C 0.1366 0.45059 0.07412 0.0
C799 C 0.12947 0.43537 0.05916 0.0
C800 C 0.13171 0.45539 0.12109 0.0
C801 C 0.11965 0.44508 0.15498 0.0
C802 C 0.11245 0.42983 0.13946 0.0
C803 C 0.11723 0.42507 0.09206 0.0
H804 H 0.08721 0.65231 0.30464 0.0
H805 H 0.12329 0.6433 0.27706 0.0
H806 H 0.09588 0.66956 0.22397 0.0
H807 H 0.13143 0.65965 0.19467 0.0
H808 H 0.15183 0.69988 0.07892 0.0
H809 H 0.14329 0.68354 0.16138 0.0
H810 H 0.09772 0.67257 0.12637 0.0
H811 H 0.10659 0.68979 0.04566 0.0
C812 C 0.09697 0.65398 0.28118 0.0
C813 C 0.10462 0.64652 0.2977 0.0
C814 C 0.10189 0.66378 0.23433 0.0
C815 C 0.11444 0.66617 0.20197 0.0
C816 C 0.12198 0.65855 0.21872 0.0
C817 C 0.11724 0.64902 0.2661 0.0
C818 C 0.13996 0.69392 0.08865 0.0
C819 C 0.12989 0.69612 0.05545 0.0
C820 C 0.13499 0.68441 0.13606 0.0
C821 C 0.11971 0.6765 0.15124 0.0
C822 C 0.1096 0.67858 0.11726 0.0
C823 C 0.11465 0.68836 0.07039 0.0
H824 H 0.35937 0.43731 0.30468 0.0
H825 H 0.36834 0.4824 0.27775 0.0
H826 H 0.34209 0.42874 0.22413 0.0
H827 H 0.35192 0.47418 0.19541 0.0
H828 H 0.31188 0.45413 0.07767 0.0
H829 H 0.32809 0.46206 0.16073 0.0
H830 H 0.33941 0.42771 0.12662 0.0
H831 H 0.32236 0.41925 0.04547 0.0
C832 C 0.35767 0.44541 0.28141 0.0
C833 C 0.36516 0.46052 0.298 0.0
C834 C 0.34786 0.44053 0.2346 0.0
C835 C 0.34548 0.4507 0.2023 0.0
C836 C 0.35305 0.46584 0.21932 0.0
C837 C 0.3626 0.47063 0.26668 0.0
C838 C 0.31789 0.44832 0.08778 0.0
C839 C 0.31584 0.43608 0.05472 0.0
C840 C 0.32732 0.45292 0.13553 0.0
C841 C 0.33527 0.44563 0.15118 0.0
C842 C 0.33335 0.4335 0.11724 0.0
C843 C 0.32367 0.42871 0.07008 0.0
H844 H 0.57473 0.92397 0.30531 0.0
H845 H 0.52956 0.88796 0.27739 0.0
H846 H 0.58332 0.91533 0.22465 0.0
H847 H 0.53781 0.87983 0.19499 0.0
H848 H 0.55788 0.8597 0.07835 0.0
H849 H 0.54991 0.86804 0.16103 0.0
H850 H 0.58443 0.9137 0.12701 0.0
H851 H 0.59292 0.90505 0.04618 0.0
C852 C 0.56662 0.91422 0.28179 0.0
C853 C 0.55148 0.9066 0.29816 0.0
C854 C 0.57151 0.90932 0.23494 0.0
C855 C 0.56133 0.89681 0.20241 0.0
C856 C 0.54616 0.88927 0.21912 0.0
C857 C 0.54135 0.89399 0.26651 0.0
C858 C 0.56372 0.87153 0.08837 0.0
C859 C 0.57601 0.8817 0.05545 0.0
C860 C 0.55909 0.87639 0.1359 0.0
C861 C 0.56642 0.89164 0.15146 0.0
C862 C 0.57861 0.90184 0.11766 0.0
C863 C 0.58342 0.89691 0.0707 0.0
H864 H 0.22697 0.99408 0.8478 0.0
H865 H 0.20434 0.96202 0.9825 0.0
H866 H 0.2385 0.01407 0.91918 0.0
H867 H 0.21559 0.9818 0.05284 0.0
H868 H 0.24622 0.01987 0.17228 0.0
H869 H 0.23871 1.00019 0.10015 0.0
H870 H 0.22912 0.02639 0.98225 0.0
H871 H 0.23662 0.04587 0.05286 0.0
C872 C 0.22455 0.99127 0.89244 0.0
C873 C 0.21455 0.97648 0.90917 0.0
C874 C 0.23109 1.00271 0.93337 0.0
C875 C 0.22791 0.99955 0.99185 0.0
C876 C 0.21842 0.98466 1.00844 0.0
C877 C 0.21182 0.97332 0.96777 0.0
C878 C 0.24251 0.02141 0.13098 0.0
C879 C 0.24201 0.0345 0.11886 0.0
C880 C 0.23822 0.01015 0.08958 0.0
C881 C 0.23343 0.01177 0.03511 0.0
C882 C 0.23303 0.02487 0.02315 0.0
C883 C 0.23721 0.03602 0.06426 0.0
H884 H 0.9963 0.21825 0.17459 0.0
H885 H 0.96378 0.21392 0.04943 0.0
H886 H 0.01599 0.22926 0.10246 0.0
H887 H 0.98337 0.22566 0.97817 0.0
H888 H 0.01795 0.22904 0.8472 0.0
H889 H 0.9983 0.22068 0.9194 0.0
H890 H 0.03128 0.24908 0.04394 0.0
H891 H 0.05081 0.25657 0.97263 0.0
C892 C 0.99346 0.22004 0.13202 0.0
C893 C 0.97854 0.21517 0.1175 0.0
C894 C 1.00474 0.22639 0.09044 0.0
C895 C 1.00135 0.22827 0.03374 0.0
C896 C 0.98645 0.22405 0.02054 0.0
C897 C 0.97521 0.21746 0.06164 0.0
C898 C 0.02088 0.23359 0.88986 0.0
C899 C 0.03588 0.24335 0.90443 0.0
C900 C 0.00963 0.22886 0.93147 0.0
C901 C 0.01312 0.23405 0.98824 0.0
C902 C 0.02811 0.24444 1.00151 0.0
C903 C 0.03932 0.24889 0.96038 0.0
H904 H 0.77745 0.78594 0.8438 0.0
H905 H 0.76529 0.80625 0.97894 0.0
H906 H 0.78632 0.77479 0.91522 0.0
H907 H 0.77424 0.7954 0.04934 0.0
H908 H 0.78286 0.76526 0.16731 0.0
H909 H 0.77049 0.77247 0.09499 0.0
H910 H 0.80766 0.78482 0.98065 0.0
H911 H 0.81985 0.77764 0.05151 0.0
C912 C 0.77654 0.78791 0.88853 0.0
C913 C 0.77087 0.79717 0.90543 0.0
C914 C 0.78168 0.7816 0.92949 0.0
C915 C 0.78108 0.78428 0.98814 0.0
C916 C 0.77478 0.79298 1.0048 0.0
C917 C 0.76979 0.79935 0.96413 0.0
C918 C 0.78838 0.76954 0.12681 0.0
C919 C 0.80239 0.77085 0.11568 0.0
C920 C 0.78129 0.77365 0.08527 0.0
C921 C 0.78801 0.77908 0.03164 0.0
C922 C 0.80198 0.78038 0.02079 0.0
C923 C 0.80906 0.77638 0.06206 0.0
H924 H 0.78343 0.96644 0.96421 0.0
H925 H 0.76762 0.98925 0.85438 0.0
H926 H 0.79053 0.98572 0.03548 0.0
H927 H 0.77482 0.00878 0.92704 0.0
H928 H 0.80866 0.04854 0.04136 0.0
H929 H 0.79788 0.02884 0.97045 0.0
H930 H 0.77973 0.99569 0.10413 0.0
H931 H 0.79079 0.01562 0.17597 0.0
C932 C 0.78141 0.97556 0.95507 0.0
C933 C 0.77489 0.97621 0.90313 0.0
C934 C 0.78537 0.98658 0.99655 0.0
C935 C 0.78304 0.99868 0.98754 0.0
C936 C 0.77676 0.99957 0.93533 0.0
C937 C 0.77269 0.98842 0.89357 0.0
C938 C 0.8023 0.03706 0.05593 0.0
C939 C 0.80081 0.03364 0.11452 0.0
C940 C 0.79597 0.02575 0.01503 0.0
C941 C 0.78803 0.01068 0.03144 0.0
C942 C 0.78597 0.00723 0.09009 0.0
C943 C 0.79222 0.01861 0.13128 0.0
H944 H 0.04645 0.81848 0.96573 0.0
H945 H 0.02335 0.78001 0.85517 0.0
H946 H 0.02716 0.80631 0.03693 0.0
H947 H 1.0038 0.76767 0.92784 0.0
H948 H 0.96412 0.76195 0.04182 0.0
H949 H 0.98388 0.77073 0.97124 0.0
H950 H 0.01691 0.7856 0.10541 0.0
H951 H 0.99691 0.77689 0.17696 0.0
C952 C 0.03726 0.80736 0.95642 0.0
C953 C 0.03653 0.80025 0.90426 0.0
C954 C 0.02624 0.80031 0.99789 0.0
C955 C 0.01404 0.78592 0.98868 0.0
C956 C 0.01309 0.77879 0.9363 0.0
C957 C 0.02424 0.78587 0.89453 0.0
C958 C 0.97559 0.76701 0.05659 0.0
C959 C 0.97894 0.76896 0.11524 0.0
C960 C 0.98692 0.7719 0.01586 0.0
C961 C 1.00199 0.77896 0.03247 0.0
C962 C 1.00539 0.78036 0.09119 0.0
C963 C 0.99396 0.77532 0.13223 0.0
H964 H 0.24491 0.22817 0.16827 0.0
H965 H 0.23832 0.19419 0.04532 0.0
H966 H 0.23703 0.24008 0.09658 0.0
H967 H 0.23036 0.20587 0.9751 0.0
H968 H 0.22688 0.23602 0.84343 0.0
H969 H 0.23868 0.2277 0.91415 0.0
H970 H 0.21404 0.23456 0.04809 0.0
H971 H 0.20259 0.24301 0.97864 0.0
C972 C 0.24178 0.22322 0.12626 0.0
C973 C 0.24221 0.21016 0.11305 0.0
C974 C 0.23727 0.23004 0.08512 0.0
C975 C 0.23314 0.22398 0.02982 0.0
C976 C 0.23373 0.21103 0.01669 0.0
C977 C 0.23816 0.20423 0.05755 0.0
C978 C 0.22411 0.23586 0.888 0.0
C979 C 0.21362 0.23999 0.90499 0.0
C980 C 0.23081 0.23105 0.92856 0.0
C981 C 0.22727 0.23042 0.98694 0.0
C982 C 0.21719 0.23505 1.00381 0.0
C983 C 0.21046 0.23973 0.96355 0.0
H984 H 0.91714 0.38309 0.37141 0.0
H985 H 0.90345 0.35037 0.50638 0.0
H986 H 0.90781 0.36329 0.30084 0.0
H987 H 0.89422 0.33037 0.43489 0.0
H988 H 0.86059 0.30039 0.29807 0.0
H989 H 0.87301 0.31982 0.36866 0.0
H990 H 0.91084 0.3435 0.25605 0.0
H991 H 0.89826 0.32385 0.18406 0.0
C992 C 0.91224 0.37164 0.38614 0.0
C993 C 0.91083 0.36832 0.44482 0.0
C994 C 0.90702 0.36028 0.3454 0.0
C995 C 0.90017 0.34523 0.36203 0.0
C996 C 0.89927 0.34187 0.42066 0.0
C997 C 0.90463 0.35331 0.46166 0.0
C998 C 0.87157 0.30969 0.28786 0.0
C999 C 0.87839 0.31048 0.2349 0.0
C1000 C 0.87877 0.3208 0.32894 0.0
C1001 C 0.89301 0.33313 0.31852 0.0
C1002 C 0.89984 0.33412 0.26541 0.0
C1003 C 0.89262 0.3229 0.22406 0.0
H1004 H 0.69009 0.57951 0.18628 0.0
H1005 H 0.71318 0.5645 0.29841 0.0
H1006 H 0.67064 0.57268 0.25898 0.0
H1007 H 0.69394 0.5577 0.36963 0.0
H1008 H 0.66347 0.55677 0.50857 0.0
H1009 H 0.68356 0.56808 0.43736 0.0
H1010 H 0.65067 0.54992 0.30268 0.0
H1011 H 0.63082 0.53893 0.37299 0.0
C1012 C 0.69101 0.57472 0.22605 0.0
C1013 C 0.70325 0.57258 0.2361 0.0
C1014 C 0.6799 0.57085 0.26782 0.0
C1015 C 0.68083 0.56481 0.32057 0.0
C1016 C 0.69302 0.56265 0.33026 0.0
C1017 C 0.70402 0.56644 0.28879 0.0
C1018 C 0.66057 0.55543 0.46379 0.0
C1019 C 0.64557 0.54676 0.44657 0.0
C1020 C 0.67205 0.56181 0.42294 0.0
C1021 C 0.66872 0.55979 0.36416 0.0
C1022 C 0.65367 0.5518 0.34733 0.0
C1023 C 0.64228 0.54536 0.38788 0.0
H1024 H 0.43403 0.11389 0.18467 0.0
H1025 H 0.44828 0.15181 0.29727 0.0
H1026 H 0.44116 0.10153 0.25725 0.0
H1027 H 0.45538 0.1396 0.36846 0.0
H1028 H 0.45613 0.10969 0.50719 0.0
H1029 H 0.44506 0.11864 0.43574 0.0
H1030 H 0.46408 0.10476 0.30148 0.0
H1031 H 0.47486 0.09576 0.37197 0.0
C1032 C 0.43873 0.11963 0.2245 0.0
C1033 C 0.44056 0.13388 0.23472 0.0
C1034 C 0.44278 0.11253 0.26621 0.0
C1035 C 0.44868 0.1195 0.31908 0.0
C1036 C 0.45055 0.13374 0.32895 0.0
C1037 C 0.4466 0.14081 0.28751 0.0
C1038 C 0.45775 0.10839 0.46244 0.0
C1039 C 0.46657 0.10222 0.44545 0.0
C1040 C 0.4515 0.11358 0.42146 0.0
C1041 C 0.45378 0.11252 0.36275 0.0
C1042 C 0.46199 0.10568 0.34607 0.0
C1043 C 0.46831 0.10066 0.38676 0.0
H1044 H 0.44517 0.29822 0.30604 0.0
H1045 H 0.4368 0.32466 0.18447 0.0
H1046 H 0.4531 0.31796 0.37582 0.0
H1047 H 0.4447 0.34459 0.25573 0.0
H1048 H 0.47887 0.38261 0.37364 0.0
H1049 H 0.46773 0.36273 0.30369 0.0
H1050 H 0.44408 0.33075 0.43748 0.0
H1051 H 0.45553 0.35081 0.50847 0.0
C1052 C 0.44494 0.30823 0.29401 0.0
C1053 C 0.44035 0.30979 0.23908 0.0
C1054 C 0.44937 0.31953 0.33461 0.0
C1055 C 0.44942 0.33282 0.32181 0.0
C1056 C 0.44486 0.33449 0.26695 0.0
C1057 C 0.44034 0.32308 0.22605 0.0
C1058 C 0.47127 0.37136 0.38852 0.0
C1059 C 0.46829 0.36831 0.44709 0.0
C1060 C 0.46473 0.35996 0.34803 0.0
C1061 C 0.45505 0.34512 0.36477 0.0
C1062 C 0.45166 0.34207 0.42317 0.0
C1063 C 0.45816 0.35355 0.46389 0.0
H1064 H 0.71729 0.13072 0.30493 0.0
H1065 H 0.68473 0.12596 0.1791 0.0
H1066 H 0.6977 0.11913 0.37624 0.0
H1067 H 0.66503 0.11509 0.25133 0.0
H1068 H 0.63033 0.08741 0.38131 0.0
H1069 H 0.64991 0.09519 0.31008 0.0
H1070 H 0.68262 0.12408 0.43444 0.0
H1071 H 0.66293 0.11547 0.50662 0.0
C1072 C 0.70585 0.12715 0.2926 0.0
C1073 C 0.70251 0.12927 0.23652 0.0
C1074 C 0.69462 0.12064 0.33374 0.0
C1075 C 0.67971 0.11632 0.32033 0.0
C1076 C 0.67631 0.11806 0.26348 0.0
C1077 C 0.68758 0.12432 0.22187 0.0
C1078 C 0.64177 0.09528 0.39354 0.0
C1079 C 0.64513 0.10088 0.44944 0.0
C1080 C 0.653 0.09989 0.35245 0.0
C1081 C 0.66792 0.11049 0.36572 0.0
C1082 C 0.67134 0.11576 0.42241 0.0
C1083 C 0.66007 0.11088 0.46399 0.0
H1084 H 0.91451 0.56317 0.50436 0.0
H1085 H 0.90095 0.52571 0.38992 0.0
H1086 H 0.90765 0.57575 0.43174 0.0
H1087 H 0.89409 0.53811 0.31876 0.0
H1088 H 0.89298 0.56798 0.18125 0.0
H1089 H 0.90425 0.55917 0.25239 0.0
H1090 H 0.88486 0.5725 0.38714 0.0
H1091 H 0.87393 0.58141 0.31699 0.0
C1092 C 0.91004 0.55759 0.46409 0.0
C1093 C 0.90829 0.54339 0.45342 0.0
C1094 C 0.90614 0.5648 0.42237 0.0
C1095 C 0.90046 0.558 0.36905 0.0
C1096 C 0.89874 0.54385 0.35864 0.0
C1097 C 0.90255 0.53666 0.40008 0.0
C1098 C 0.89134 0.56921 0.22605 0.0
C1099 C 0.88236 0.57518 0.24328 0.0
C1100 C 0.8977 0.5641 0.26685 0.0
C1101 C 0.89536 0.56502 0.3256 0.0
C1102 C 0.88702 0.57169 0.34251 0.0
C1103 C 0.8806 0.57666 0.30201 0.0
H1104 H 0.53932 0.62777 0.64911 0.0
H1105 H 0.55932 0.66011 0.51336 0.0
H1106 H 0.55035 0.64763 0.71917 0.0
H1107 H 0.57069 0.68022 0.58446 0.0
H1108 H 0.56786 0.7109 0.72095 0.0
H1109 H 0.56084 0.69159 0.64989 0.0
H1110 H 0.57318 0.66684 0.76447 0.0
H1111 H 0.58018 0.68633 0.83699 0.0
C1112 C 0.54621 0.63916 0.63411 0.0
C1113 C 0.54822 0.64237 0.57536 0.0
C1114 C 0.55269 0.65055 0.67458 0.0
C1115 C 0.56135 0.66555 0.65765 0.0
C1116 C 0.56391 0.66877 0.59893 0.0
C1117 C 0.55748 0.65728 0.55816 0.0
C1118 C 0.56915 0.7014 0.73149 0.0
C1119 C 0.57457 0.70022 0.78527 0.0
C1120 C 0.56526 0.69036 0.69011 0.0
C1121 C 0.56658 0.67772 0.70101 0.0
C1122 C 0.57197 0.67644 0.75472 0.0
C1123 C 0.57596 0.68758 0.79638 0.0
H1124 H 0.32954 0.89009 0.84491 0.0
H1125 H 0.29678 0.87301 0.7096 0.0
H1126 H 0.3496 0.90127 0.77355 0.0
H1127 H 0.31659 0.88386 0.63913 0.0
H1128 H 0.35629 0.91316 0.52293 0.0
H1129 H 0.33686 0.90649 0.59566 0.0
H1130 H 0.35952 0.89055 0.70522 0.0
H1131 H 0.37871 0.89716 0.63397 0.0
C1132 C 0.32661 0.8889 0.80017 0.0
C1133 C 0.31159 0.88046 0.78304 0.0
C1134 C 0.33807 0.8952 0.75923 0.0
C1135 C 0.3347 0.89333 0.70047 0.0
C1136 C 0.31963 0.88562 0.68377 0.0
C1137 C 0.30826 0.87925 0.7244 0.0
C1138 C 0.35706 0.90818 0.56243 0.0
C1139 C 0.36912 0.90574 0.57223 0.0
C1140 C 0.34597 0.90441 0.60423 0.0
C1141 C 0.34675 0.89818 0.65674 0.0
C1142 C 0.35874 0.89567 0.66608 0.0
C1143 C 0.3697 0.89935 0.62458 0.0
H1144 H 0.12897 0.44916 0.8443 0.0
H1145 H 0.13357 0.42134 0.71833 0.0
H1146 H 0.11782 0.45778 0.77261 0.0
H1147 H 0.12161 0.42904 0.64756 0.0
H1148 H 0.11735 0.45956 0.51693 0.0
H1149 H 0.12613 0.44868 0.58891 0.0
H1150 H 0.09802 0.45329 0.71461 0.0
H1151 H 0.09012 0.46498 0.64342 0.0
C1152 C 0.12722 0.44462 0.8016 0.0
C1153 C 0.13221 0.4347 0.78672 0.0
C1154 C 0.12078 0.44949 0.76029 0.0
C1155 C 0.11889 0.44427 0.70352 0.0
C1156 C 0.12323 0.43371 0.68996 0.0
C1157 C 0.12996 0.42915 0.73078 0.0
C1158 C 0.11297 0.45807 0.55985 0.0
C1159 C 0.10316 0.46321 0.57468 0.0
C1160 C 0.11794 0.45177 0.60134 0.0
C1161 C 0.11293 0.45016 0.65832 0.0
C1162 C 0.10252 0.45469 0.67199 0.0
C1163 C 0.09785 0.46127 0.63094 0.0
H1164 H 0.15402 0.71004 0.72026 0.0
H1165 H 0.11609 0.68641 0.83296 0.0
H1166 H 0.14173 0.69074 0.64905 0.0
H1167 H 0.10364 0.66691 0.76036 0.0
H1168 H 0.09772 0.62743 0.64552 0.0
H1169 H 0.10678 0.64722 0.71605 0.0
H1170 H 0.12073 0.68013 0.58184 0.0
H1171 H 0.11174 0.66011 0.51035 0.0
C1172 C 0.14301 0.70074 0.73004 0.0
C1173 C 0.13609 0.69985 0.78285 0.0
C1174 C 0.13588 0.68971 0.68859 0.0
C1175 C 0.12162 0.67736 0.69847 0.0
C1176 C 0.11467 0.6763 0.75139 0.0
C1177 C 0.12181 0.68744 0.79311 0.0
C1178 C 0.10264 0.63888 0.63076 0.0
C1179 C 0.10423 0.64219 0.57208 0.0
C1180 C 0.1077 0.65023 0.67146 0.0
C1181 C 0.11458 0.66528 0.6548 0.0
C1182 C 0.11564 0.66863 0.5961 0.0
C1183 C 0.11043 0.65719 0.55511 0.0
H1184 H 0.30328 0.44655 0.72013 0.0
H1185 H 0.32668 0.4322 0.83366 0.0
H1186 H 0.32285 0.4539 0.65001 0.0
H1187 H 0.34654 0.43969 0.76206 0.0
H1188 H 0.38606 0.4736 0.64598 0.0
H1189 H 0.36635 0.46292 0.71708 0.0
H1190 H 0.33327 0.44301 0.58376 0.0
H1191 H 0.35314 0.45392 0.51183 0.0
C1192 C 0.3126 0.4449 0.73036 0.0
C1193 C 0.3133 0.43869 0.78297 0.0
C1194 C 0.32379 0.44902 0.68953 0.0
C1195 C 0.33615 0.44718 0.69986 0.0
C1196 C 0.33711 0.44124 0.75276 0.0
C1197 C 0.32578 0.43699 0.79388 0.0
C1198 C 0.37459 0.46688 0.63154 0.0
C1199 C 0.37117 0.46482 0.57294 0.0
C1200 C 0.36329 0.46062 0.67257 0.0
C1201 C 0.34822 0.4522 0.65625 0.0
C1202 C 0.34479 0.44962 0.59772 0.0
C1203 C 0.35615 0.4558 0.55647 0.0
H1204 H 0.56618 0.85815 0.72078 0.0
H1205 H 0.58028 0.89602 0.83354 0.0
H1206 H 0.5589 0.87023 0.64987 0.0
H1207 H 0.5729 0.90826 0.76117 0.0
H1208 H 0.53879 0.91343 0.64593 0.0
H1209 H 0.54973 0.90466 0.71669 0.0
H1210 H 0.56936 0.89134 0.58287 0.0
H1211 H 0.55814 0.90005 0.51115 0.0
C1212 C 0.56779 0.86911 0.73065 0.0
C1213 C 0.57387 0.87608 0.78335 0.0
C1214 C 0.56373 0.87611 0.68937 0.0
C1215 C 0.5655 0.8903 0.6993 0.0
C1216 C 0.57138 0.89729 0.75218 0.0
C1217 C 0.57557 0.89027 0.79375 0.0
C1218 C 0.5455 0.9087 0.63129 0.0
C1219 C 0.54737 0.90721 0.57264 0.0
C1220 C 0.55192 0.90382 0.67213 0.0
C1221 C 0.56034 0.89721 0.65562 0.0
C1222 C 0.56276 0.89623 0.59698 0.0
C1223 C 0.55641 0.90127 0.55586 0.0
H1224 H 0.38106 0.1402 0.24058 0.0
H1225 H 0.37553 0.11979 0.07505 0.0
H1226 H 0.35403 0.12576 0.25563 0.0
H1227 H 0.34836 0.10549 0.09001 0.0
H1228 H 0.30089 0.10096 0.11659 0.0
H1229 H 0.32792 0.11326 0.10153 0.0
H1230 H 0.33322 0.09768 0.2656 0.0
H1231 H 0.30608 0.0851 0.28056 0.0
C1232 C 0.37408 0.13263 0.20739 0.0
C1233 C 0.38045 0.13119 0.15647 0.0
C1234 C 0.35861 0.12429 0.21624 0.0
C1235 C 0.34912 0.11452 0.17401 0.0
C1236 C 0.35544 0.113 0.12317 0.0
C1237 C 0.37098 0.12114 0.11472 0.0
C1238 C 0.3078 0.10011 0.14948 0.0
C1239 C 0.30133 0.0921 0.19993 0.0
C1240 C 0.32326 0.10707 0.14059 0.0
C1241 C 0.33264 0.1064 0.18235 0.0
C1242 C 0.32622 0.0984 0.2328 0.0
C1243 C 0.3107 0.09118 0.24126 0.0
H1244 H 0.89308 0.26011 0.07868 0.0
H1245 H 0.8721 0.24444 0.24292 0.0
H1246 H 0.90755 0.24747 0.09369 0.0
H1247 H 0.88668 0.23203 0.25796 0.0
H1248 H 0.92712 0.2243 0.2827 0.0
H1249 H 0.91456 0.23894 0.26934 0.0
H1250 H 0.89987 0.21949 0.10254 0.0
H1251 H 0.91216 0.20477 0.11588 0.0
C1252 C 0.89164 0.25409 0.1181 0.0
C1253 C 0.88137 0.2532 0.15941 0.0
C1254 C 0.89988 0.24682 0.12659 0.0
C1255 C 0.89823 0.23878 0.17701 0.0
C1256 C 0.88827 0.23824 0.21892 0.0
C1257 C 0.87984 0.24526 0.21003 0.0
C1258 C 0.92124 0.22319 0.24318 0.0
C1259 C 0.92057 0.21331 0.20054 0.0
C1260 C 0.91403 0.23152 0.23562 0.0
C1261 C 0.9063 0.23037 0.18481 0.0
C1262 C 0.90587 0.22071 0.14188 0.0
C1263 C 0.91281 0.21219 0.14981 0.0
H1264 H 0.75425 0.63637 0.07364 0.0
H1265 H 0.76987 0.63158 0.23873 0.0
H1266 H 0.76681 0.66353 0.08763 0.0
H1267 H 0.78217 0.65862 0.25279 0.0
H1268 H 0.78869 0.70626 0.27695 0.0
H1269 H 0.77445 0.67907 0.2629 0.0
H1270 H 0.79482 0.68439 0.09766 0.0
H1271 H 0.80919 0.71144 0.11179 0.0
C1272 C 0.76028 0.64108 0.11297 0.0
C1273 C 0.76113 0.63181 0.15491 0.0
C1274 C 0.76749 0.65661 0.12088 0.0
C1275 C 0.77543 0.66315 0.17135 0.0
C1276 C 0.77603 0.65387 0.2137 0.0
C1277 C 0.76908 0.6384 0.20538 0.0
C1278 C 0.79007 0.70162 0.23755 0.0
C1279 C 0.80013 0.71101 0.19564 0.0
C1280 C 0.78197 0.68608 0.22963 0.0
C1281 C 0.78353 0.67965 0.17916 0.0
C1282 C 0.79331 0.68905 0.13677 0.0
C1283 C 0.80161 0.70453 0.14511 0.0
H1284 H 0.1024 0.2988 0.90679 0.0
H1285 H 0.08744 0.30388 0.74075 0.0
H1286 H 0.11492 0.3258 0.92102 0.0
H1287 H 0.10022 0.33107 0.75502 0.0
H1288 H 0.14271 0.37879 0.78122 0.0
H1289 H 0.12812 0.3518 0.76617 0.0
H1290 H 0.10759 0.34631 0.93116 0.0
H1291 H 0.12207 0.37344 0.94622 0.0
C1292 C 0.1018 0.30568 0.87322 0.0
C1293 C 0.09398 0.29918 0.82244 0.0
C1294 C 0.10888 0.32114 0.88167 0.0
C1295 C 0.10851 0.33051 0.83921 0.0
C1296 C 0.1007 0.32407 0.78837 0.0
C1297 C 0.09337 0.30854 0.78029 0.0
C1298 C 0.13507 0.37186 0.81434 0.0
C1299 C 0.13362 0.37827 0.86512 0.0
C1300 C 0.12664 0.35641 0.80543 0.0
C1301 C 0.11673 0.34698 0.84744 0.0
C1302 C 0.1152 0.35335 0.89816 0.0
C1303 C 0.12346 0.36886 0.90669 0.0
H1304 H 0.71358 0.8041 0.9091 0.0
H1305 H 0.70791 0.78612 0.73898 0.0
H1306 H 0.68652 0.78979 0.92365 0.0
H1307 H 0.68069 0.77195 0.75342 0.0
H1308 H 0.63353 0.7678 0.78526 0.0
H1309 H 0.66052 0.77991 0.76987 0.0
H1310 H 0.66545 0.76179 0.92866 0.0
H1311 H 0.63835 0.74944 0.94402 0.0
C1312 C 0.70655 0.79709 0.87478 0.0
C1313 C 0.71287 0.79628 0.82276 0.0
C1314 C 0.69107 0.78882 0.88332 0.0
C1315 C 0.68153 0.77978 0.83969 0.0
C1316 C 0.68781 0.77889 0.78769 0.0
C1317 C 0.70336 0.78694 0.77952 0.0
C1318 C 0.64033 0.76635 0.81693 0.0
C1319 C 0.63377 0.75769 0.86605 0.0
C1320 C 0.65578 0.7732 0.80781 0.0
C1321 C 0.66505 0.77176 0.84799 0.0
C1322 C 0.65854 0.76311 0.89708 0.0
C1323 C 0.64303 0.75603 0.90578 0.0
H1324 H 0.22653 0.92626 0.74645 0.0
H1325 H 0.20492 0.90993 0.9093 0.0
H1326 H 0.2409 0.91352 0.76138 0.0
H1327 H 0.21943 0.89743 0.92429 0.0
H1328 H 0.26023 0.89027 0.95045 0.0
H1329 H 0.24751 0.90475 0.93676 0.0
H1330 H 0.23323 0.88542 0.76958 0.0
H1331 H 0.24566 0.87084 0.78327 0.0
C1332 C 0.22491 0.92004 0.7855 0.0
C1333 C 0.21451 0.91903 0.82649 0.0
C1334 C 0.23311 0.91273 0.79396 0.0
C1335 C 0.23128 0.90453 0.84404 0.0
C1336 C 0.22114 0.90378 0.88553 0.0
C1337 C 0.21275 0.91084 0.87665 0.0
C1338 C 0.2544 0.88915 0.91078 0.0
C1339 C 0.25388 0.87934 0.86813 0.0
C1340 C 0.2471 0.89739 0.90303 0.0
C1341 C 0.23943 0.89621 0.85204 0.0
C1342 C 0.23916 0.88663 0.80908 0.0
C1343 C 0.24619 0.8782 0.8172 0.0
H1344 H 0.70963 0.92641 0.74336 0.0
H1345 H 0.71387 0.91067 0.90898 0.0
H1346 H 0.68244 0.91412 0.75657 0.0
H1347 H 0.68683 0.89861 0.92219 0.0
H1348 H 0.63901 0.89115 0.9446 0.0
H1349 H 0.66622 0.9059 0.93153 0.0
H1350 H 0.6617 0.88626 0.76527 0.0
H1351 H 0.63463 0.87142 0.77835 0.0
C1352 C 0.70479 0.92045 0.78269 0.0
C1353 C 0.7139 0.91944 0.82493 0.0
C1354 C 0.68925 0.91339 0.79015 0.0
C1355 C 0.68256 0.90544 0.84045 0.0
C1356 C 0.6917 0.90477 0.88324 0.0
C1357 C 0.70717 0.91158 0.8754 0.0
C1358 C 0.64382 0.89006 0.90516 0.0
C1359 C 0.63467 0.88005 0.86269 0.0
C1360 C 0.65938 0.89846 0.89779 0.0
C1361 C 0.66604 0.89723 0.84735 0.0
C1362 C 0.65685 0.88753 0.80435 0.0
C1363 C 0.64137 0.87895 0.8121 0.0
H1364 H 0.10171 0.80477 0.90865 0.0
H1365 H 0.08725 0.78599 0.74054 0.0
H1366 H 0.11393 0.78996 0.92138 0.0
H1367 H 0.09975 0.77128 0.75325 0.0
H1368 H 0.14246 0.76618 0.7788 0.0
H1369 H 0.12768 0.77843 0.76492 0.0
H1370 H 0.10657 0.76203 0.92819 0.0
H1371 H 0.12123 0.74955 0.94202 0.0
C1372 C 0.10112 0.79746 0.87439 0.0
C1373 C 0.09356 0.79661 0.82343 0.0
C1374 C 0.10804 0.7889 0.88192 0.0
C1375 C 0.10778 0.77947 0.83835 0.0
C1376 C 0.10015 0.77851 0.78745 0.0
C1377 C 0.09297 0.78689 0.78028 0.0
C1378 C 0.13463 0.76512 0.81171 0.0
C1379 C 0.13309 0.75695 0.8617 0.0
C1380 C 0.12609 0.77205 0.80349 0.0
C1381 C 0.11599 0.77117 0.84544 0.0
C1382 C 0.11433 0.76292 0.89525 0.0
C1383 C 0.12269 0.75576 0.90307 0.0
H1384 H 0.20603 0.29852 0.90476 0.0
H1385 H 0.22703 0.30257 0.7414 0.0
H1386 H 0.22112 0.32555 0.91804 0.0
H1387 H 0.24201 0.32974 0.75465 0.0
H1388 H 0.2478 0.37782 0.77456 0.0
H1389 H 0.23527 0.35076 0.76145 0.0
H1390 H 0.24912 0.34589 0.92966 0.0
H1391 H 0.26191 0.37311 0.94275 0.0
C1392 C 0.21387 0.30517 0.87164 0.0
C1393 C 0.21527 0.29838 0.82183 0.0
C1394 C 0.22259 0.32064 0.87955 0.0
C1395 C 0.23274 0.32972 0.83745 0.0
C1396 C 0.23422 0.32298 0.78771 0.0
C1397 C 0.22568 0.30744 0.78021 0.0
C1398 C 0.24825 0.37101 0.80873 0.0
C1399 C 0.25579 0.37762 0.85987 0.0
C1400 C 0.24116 0.35552 0.80098 0.0
C1401 C 0.24122 0.34624 0.84451 0.0
C1402 C 0.24886 0.35281 0.89549 0.0
C1403 C 0.25621 0.36837 0.90289 0.0
H1404 H 0.91383 0.71168 0.11439 0.0
H1405 H 0.92869 0.70697 0.28117 0.0
H1406 H 0.90145 0.68466 0.1008 0.0
H1407 H 0.91605 0.67977 0.26757 0.0
H1408 H 0.87317 0.63223 0.24293 0.0
H1409 H 0.88804 0.65924 0.25673 0.0
H1410 H 0.90859 0.66393 0.09226 0.0
H1411 H 0.89382 0.63677 0.07845 0.0
C1412 C 0.91446 0.70487 0.14819 0.0
C1413 C 0.92217 0.71147 0.19906 0.0
C1414 C 0.90747 0.68941 0.14013 0.0
C1415 C 0.90781 0.68014 0.18309 0.0
C1416 C 0.91559 0.68668 0.23386 0.0
C1417 C 0.92284 0.70223 0.24155 0.0
C1418 C 0.88087 0.63899 0.20965 0.0
C1419 C 0.88224 0.63235 0.15938 0.0
C1420 C 0.88947 0.65444 0.21787 0.0
C1421 C 0.89947 0.66365 0.17565 0.0
C1422 C 0.90092 0.65706 0.12542 0.0
C1423 C 0.89249 0.64153 0.11759 0.0
H1424 H 0.37974 0.2714 0.16847 0.0
H1425 H 0.377 0.22924 0.13056 0.0
H1426 H 0.35303 0.25841 0.1901 0.0
H1427 H 0.35015 0.21623 0.14696 0.0
H1428 H 0.30534 0.19351 0.23021 0.0
H1429 H 0.33222 0.20755 0.21427 0.0
H1430 H 0.3287 0.24591 0.1617 0.0
H1431 H 0.30197 0.23206 0.18294 0.0
C1432 C 0.37329 0.25935 0.16352 0.0
C1433 C 0.38037 0.25129 0.14815 0.0
C1434 C 0.35792 0.25185 0.17567 0.0
C1435 C 0.34921 0.23612 0.17112 0.0
C1436 C 0.35638 0.22823 0.15317 0.0
C1437 C 0.37178 0.23569 0.14287 0.0
C1438 C 0.31043 0.20503 0.21599 0.0
C1439 C 0.30167 0.21175 0.20794 0.0
C1440 C 0.32585 0.21308 0.20595 0.0
C1441 C 0.33284 0.22791 0.18544 0.0
C1442 C 0.32395 0.23465 0.17816 0.0
C1443 C 0.30857 0.22671 0.19007 0.0
H1444 H 0.75301 0.11801 0.07325 0.0
H1445 H 0.76774 0.13756 0.24015 0.0
H1446 H 0.76557 0.10338 0.08722 0.0
H1447 H 0.78003 0.12287 0.25409 0.0
H1448 H 0.78788 0.08291 0.27772 0.0
H1449 H 0.77296 0.0951 0.26306 0.0
H1450 H 0.79349 0.11073 0.0984 0.0
H1451 H 0.80851 0.09879 0.11308 0.0
C1452 C 0.75881 0.1191 0.11297 0.0
C1453 C 0.75946 0.12902 0.15538 0.0
C1454 C 0.76602 0.11077 0.12088 0.0
C1455 C 0.77374 0.11199 0.1718 0.0
C1456 C 0.77406 0.12161 0.21466 0.0
C1457 C 0.76711 0.13011 0.20639 0.0
C1458 C 0.78916 0.08889 0.23832 0.0
C1459 C 0.79947 0.08997 0.19679 0.0
C1460 C 0.78065 0.09588 0.23 0.0
C1461 C 0.78206 0.10382 0.17952 0.0
C1462 C 0.79208 0.10457 0.13746 0.0
C1463 C 0.80077 0.09784 0.14617 0.0
H1464 H 0.04381 0.48474 0.46593 0.0
H1465 H 0.04643 0.4451 0.50031 0.0
H1466 H 0.01694 0.47085 0.48267 0.0
H1467 H 0.01978 0.43135 0.52237 0.0
H1468 H 0.96887 0.40652 0.51578 0.0
H1469 H 0.99556 0.41961 0.49414 0.0
H1470 H 0.9989 0.46123 0.54951 0.0
H1471 H 0.97201 0.44817 0.56579 0.0
C1472 C 0.03856 0.47302 0.47749 0.0
C1473 C 0.0471 0.46595 0.48159 0.0
C1474 C 0.02316 0.46504 0.48799 0.0
C1475 C 0.01598 0.4499 0.505 0.0
C1476 C 0.02466 0.44285 0.50855 0.0
C1477 C 0.04 0.45073 0.49614 0.0
C1478 C 0.97543 0.41846 0.5235 0.0
C1479 C 0.96847 0.42638 0.54228 0.0
C1480 C 0.99078 0.42602 0.51135 0.0
C1481 C 0.99962 0.44164 0.51936 0.0
C1482 C 0.99258 0.44935 0.5407 0.0
C1483 C 0.97716 0.44186 0.55096 0.0
H1484 H 0.57935 0.53691 0.44664 0.0
H1485 H 0.59432 0.55676 0.613 0.0
H1486 H 0.56678 0.55136 0.43308 0.0
H1487 H 0.58149 0.57111 0.59944 0.0
H1488 H 0.53874 0.57589 0.57475 0.0
H1489 H 0.55342 0.56355 0.58857 0.0
H1490 H 0.57408 0.57936 0.42423 0.0
H1491 H 0.55952 0.59195 0.41041 0.0
C1492 C 0.57994 0.54434 0.48039 0.0
C1493 C 0.58778 0.54563 0.53109 0.0
C1494 C 0.57284 0.5527 0.47234 0.0
C1495 C 0.57318 0.56235 0.51514 0.0
C1496 C 0.58102 0.5637 0.56584 0.0
C1497 C 0.58838 0.55552 0.57351 0.0
C1498 C 0.54642 0.57677 0.5415 0.0
C1499 C 0.5479 0.58484 0.49129 0.0
C1500 C 0.55491 0.5698 0.54971 0.0
C1501 C 0.56488 0.57052 0.50753 0.0
C1502 C 0.56642 0.5786 0.45734 0.0
C1503 C 0.55812 0.58582 0.44952 0.0
H1504 H 0.45474 0.03995 0.61091 0.0
H1505 H 0.47495 0.04466 0.44543 0.0
H1506 H 0.44037 0.01273 0.59775 0.0
H1507 H 0.46046 0.01759 0.4322 0.0
H1508 H 0.41994 0.96961 0.40958 0.0
H1509 H 0.43247 0.99679 0.42286 0.0
H1510 H 0.44796 0.99222 0.58825 0.0
H1511 H 0.43568 0.96517 0.57495 0.0
C1512 C 0.45603 0.0352 0.57165 0.0
C1513 C 0.46604 0.04445 0.52938 0.0
C1514 C 0.44785 0.01964 0.56422 0.0
C1515 C 0.4493 0.01308 0.51391 0.0
C1516 C 0.45904 0.02236 0.47118 0.0
C1517 C 0.46741 0.03785 0.47902 0.0
C1518 C 0.42598 0.97441 0.44882 0.0
C1519 C 0.42689 0.96523 0.49103 0.0
C1520 C 0.43317 0.98995 0.45633 0.0
C1521 C 0.44115 0.99658 0.50664 0.0
C1522 C 0.44179 0.98739 0.54928 0.0
C1523 C 0.43485 0.97191 0.54139 0.0
H1524 H 0.57982 0.04417 0.44552 0.0
H1525 H 0.59441 0.0395 0.61289 0.0
H1526 H 0.56761 0.01716 0.4318 0.0
H1527 H 0.58193 0.01231 0.59915 0.0
H1528 H 0.53922 0.9646 0.57301 0.0
H1529 H 0.55403 0.9916 0.58749 0.0
H1530 H 0.57493 0.99658 0.42359 0.0
H1531 H 0.56023 0.96943 0.40913 0.0
C1532 C 0.58042 0.03738 0.47944 0.0
C1533 C 0.58802 0.04398 0.5305 0.0
C1534 C 0.57353 0.02192 0.4713 0.0
C1535 C 0.57385 0.01266 0.51435 0.0
C1536 C 0.58149 0.01921 0.56535 0.0
C1537 C 0.58865 0.03476 0.57312 0.0
C1538 C 0.547 0.97142 0.54004 0.0
C1539 C 0.54848 0.96487 0.4897 0.0
C1540 C 0.55557 0.98687 0.54864 0.0
C1541 C 0.56562 0.99616 0.50672 0.0
C1542 C 0.56721 0.98965 0.45651 0.0
C1543 C 0.55883 0.97413 0.44832 0.0
H1544 H 0.96685 0.53572 0.44939 0.0
H1545 H 0.97231 0.55672 0.61366 0.0
H1546 H 0.99386 0.55042 0.43382 0.0
H1547 H 0.99943 0.57127 0.59815 0.0
H1548 H 0.04703 0.57638 0.57327 0.0
H1549 H 0.02001 0.56385 0.58796 0.0
H1550 H 0.01455 0.57854 0.42226 0.0
H1551 H 0.04175 0.59136 0.40763 0.0
C1552 C 0.97381 0.54346 0.48223 0.0
C1553 C 0.96743 0.54499 0.53295 0.0
C1554 C 0.98926 0.55195 0.47303 0.0
C1555 C 0.99872 0.56198 0.51473 0.0
C1556 C 0.99238 0.56357 0.56538 0.0
C1557 C 0.97687 0.55528 0.57417 0.0
C1558 C 0.0401 0.57699 0.53993 0.0
C1559 C 0.04655 0.58482 0.48912 0.0
C1560 C 0.02464 0.5699 0.5486 0.0
C1561 C 0.0152 0.57024 0.50631 0.0
C1562 C 0.02159 0.57807 0.45548 0.0
C1563 C 0.03714 0.58544 0.44721 0.0
H1564 H 0.45078 0.48339 0.45013 0.0
H1565 H 0.40929 0.44541 0.50541 0.0
H1566 H 0.4638 0.4696 0.46752 0.0
H1567 H 0.42238 0.43189 0.5281 0.0
H1568 H 0.44767 0.40627 0.52447 0.0
H1569 H 0.43386 0.41904 0.50144 0.0
H1570 H 0.47376 0.46167 0.53473 0.0
H1571 H 0.48764 0.4488 0.55267 0.0
C1572 C 0.44449 0.47205 0.46637 0.0
C1573 C 0.42906 0.4654 0.47617 0.0
C1574 C 0.45197 0.46416 0.47726 0.0
C1575 C 0.44432 0.44958 0.50039 0.0
C1576 C 0.42875 0.44293 0.50954 0.0
C1577 C 0.42118 0.45069 0.49678 0.0
C1578 C 0.45339 0.41838 0.52701 0.0
C1579 C 0.46871 0.42657 0.5401 0.0
C1580 C 0.44547 0.42576 0.51403 0.0
C1581 C 0.4526 0.44154 0.51542 0.0
C1582 C 0.46786 0.44961 0.53101 0.0
C1583 C 0.47584 0.44223 0.54217 0.0
H1584 H 0.27479 0.10508 0.36531 0.0
H1585 H 0.23587 0.08709 0.25657 0.0
H1586 H 0.27539 0.12918 0.36809 0.0
H1587 H 0.23595 0.11059 0.26138 0.0
H1588 H 0.24977 0.15733 0.21481 0.0
H1589 H 0.25035 0.13432 0.22128 0.0
H1590 H 0.26372 0.14364 0.39779 0.0
H1591 H 0.26386 0.16747 0.39018 0.0
C1592 C 0.26624 0.10621 0.34284 0.0
C1593 C 0.25541 0.0943 0.31004 0.0
C1594 C 0.26654 0.11999 0.34456 0.0
C1595 C 0.25591 0.12199 0.31399 0.0
C1596 C 0.24464 0.1097 0.28391 0.0
C1597 C 0.2445 0.09614 0.28145 0.0
C1598 C 0.25293 0.15461 0.25509 0.0
C1599 C 0.25669 0.16426 0.30208 0.0
C1600 C 0.25311 0.14125 0.259 0.0
C1601 C 0.25675 0.13686 0.31044 0.0
C1602 C 0.26086 0.14664 0.35745 0.0
C1603 C 0.26088 0.16026 0.35323 0.0
H1604 H 0.86097 0.08717 0.24495 0.0
H1605 H 0.84069 0.10411 0.36174 0.0
H1606 H 0.8843 0.1108 0.24899 0.0
H1607 H 0.86405 0.12833 0.36385 0.0
H1608 H 0.91342 0.16648 0.38674 0.0
H1609 H 0.88989 0.14251 0.39199 0.0
H1610 H 0.89417 0.13493 0.21366 0.0
H1611 H 0.91775 0.15821 0.20951 0.0
C1612 C 0.8615 0.09603 0.27136 0.0
C1613 C 0.84897 0.09382 0.30266 0.0
C1614 C 0.87488 0.10968 0.27335 0.0
C1615 C 0.87607 0.12169 0.3058 0.0
C1616 C 0.86362 0.11935 0.33855 0.0
C1617 C 0.85021 0.10551 0.33723 0.0
C1618 C 0.90929 0.15962 0.34884 0.0
C1619 C 0.91753 0.1642 0.29786 0.0
C1620 C 0.89576 0.14592 0.35171 0.0
C1621 C 0.89014 0.13659 0.30346 0.0
C1622 C 0.89827 0.1415 0.25223 0.0
C1623 C 0.9118 0.155 0.24965 0.0
H1624 H 0.91372 0.74925 0.3885 0.0
H1625 H 0.91796 0.76266 0.21224 0.0
H1626 H 0.88985 0.74907 0.39426 0.0
H1627 H 0.89415 0.76175 0.21688 0.0
H1628 H 0.86081 0.77581 0.24948 0.0
H1629 H 0.8843 0.77589 0.25453 0.0
H1630 H 0.86383 0.7371 0.36453 0.0
H1631 H 0.84024 0.73755 0.36144 0.0
C1632 C 0.9095 0.75202 0.35094 0.0
C1633 C 0.91783 0.75611 0.30009 0.0
C1634 C 0.89579 0.75184 0.3541 0.0
C1635 C 0.89012 0.75564 0.3063 0.0
C1636 C 0.8983 0.75921 0.25516 0.0
C1637 C 0.91198 0.7596 0.2523 0.0
C1638 C 0.86131 0.76733 0.27506 0.0
C1639 C 0.84864 0.75658 0.30459 0.0
C1640 C 0.87479 0.76729 0.27765 0.0
C1641 C 0.87596 0.75628 0.30887 0.0
C1642 C 0.86338 0.74577 0.34013 0.0
C1643 C 0.84985 0.74597 0.33824 0.0
H1644 H 0.09649 0.24691 0.81108 0.0
H1645 H 0.10093 0.26008 0.6345 0.0
H1646 H 0.12017 0.24744 0.80669 0.0
H1647 H 0.12456 0.25986 0.62896 0.0
H1648 H 0.17386 0.27104 0.65924 0.0
H1649 H 0.15036 0.27163 0.65732 0.0
H1650 H 0.1303 0.2335 0.77063 0.0
H1651 H 0.15375 0.23347 0.77455 0.0
C1652 C 0.10248 0.24981 0.77102 0.0
C1653 C 0.09676 0.25338 0.72307 0.0
C1654 C 0.11608 0.24998 0.76829 0.0
C1655 C 0.12427 0.25343 0.71716 0.0
C1656 C 0.11865 0.25723 0.66917 0.0
C1657 C 0.10506 0.25727 0.6722 0.0
C1658 C 0.16436 0.26279 0.68344 0.0
C1659 C 0.16568 0.25233 0.71758 0.0
C1660 C 0.15087 0.26307 0.68223 0.0
C1661 C 0.13842 0.25277 0.71463 0.0
C1662 C 0.1397 0.24193 0.74658 0.0
C1663 C 0.15316 0.24182 0.7485 0.0
H1664 H 0.73983 0.83654 0.65748 0.0
H1665 H 0.77755 0.85703 0.77218 0.0
H1666 H 0.73916 0.86 0.65464 0.0
H1667 H 0.77741 0.8804 0.7674 0.0
H1668 H 0.76371 0.91362 0.80924 0.0
H1669 H 0.76287 0.88988 0.80428 0.0
H1670 H 0.75109 0.88611 0.62601 0.0
H1671 H 0.75118 0.90993 0.63205 0.0
C1672 C 0.74809 0.84611 0.68136 0.0
C1673 C 0.75861 0.84491 0.71568 0.0
C1674 C 0.74776 0.85956 0.6796 0.0
C1675 C 0.75805 0.87207 0.71169 0.0
C1676 C 0.76898 0.87093 0.74362 0.0
C1677 C 0.76914 0.85752 0.74606 0.0
C1678 C 0.76084 0.90777 0.76891 0.0
C1679 C 0.7576 0.91376 0.72094 0.0
C1680 C 0.7605 0.89413 0.76588 0.0
C1681 C 0.75725 0.88613 0.7144 0.0
C1682 C 0.75363 0.89192 0.66643 0.0
C1683 C 0.75374 0.90559 0.66975 0.0
H1684 H 0.15442 0.92335 0.77468 0.0
H1685 H 0.17531 0.90682 0.65897 0.0
H1686 H 0.1312 0.8996 0.76951 0.0
H1687 H 0.15206 0.8825 0.6557 0.0
H1688 H 0.09862 0.85228 0.8105 0.0
H1689 H 0.1221 0.87554 0.80571 0.0
H1690 H 0.12598 0.86799 0.62706 0.0
H1691 H 0.10243 0.84393 0.63287 0.0
C1692 C 0.15404 0.91456 0.74822 0.0
C1693 C 0.16672 0.9169 0.71767 0.0
C1694 C 0.14073 0.90086 0.74554 0.0
C1695 C 0.13977 0.88892 0.71319 0.0
C1696 C 0.15234 0.89141 0.68095 0.0
C1697 C 0.16568 0.90531 0.68297 0.0
C1698 C 0.10445 0.85545 0.77012 0.0
C1699 C 0.09857 0.84624 0.72197 0.0
C1700 C 0.11792 0.86895 0.7672 0.0
C1701 C 0.12586 0.87391 0.71568 0.0
C1702 C 0.1202 0.86454 0.66751 0.0
C1703 C 0.10669 0.85079 0.67071 0.0
H1704 H 0.91603 0.42802 0.54706 0.0
H1705 H 0.93001 0.432 0.72255 0.0
H1706 H 0.9165 0.45158 0.55355 0.0
H1707 H 0.92977 0.45562 0.73019 0.0
H1708 H 0.94082 0.50518 0.69882 0.0
H1709 H 0.94143 0.48169 0.70101 0.0
H1710 H 0.90219 0.46102 0.59321 0.0
H1711 H 0.90211 0.48443 0.58898 0.0
C1712 C 0.91913 0.43389 0.58736 0.0
C1713 C 0.92291 0.42805 0.63438 0.0
C1714 C 0.91926 0.44742 0.59129 0.0
C1715 C 0.92287 0.45545 0.64276 0.0
C1716 C 0.92696 0.44978 0.68981 0.0
C1717 C 0.92703 0.43621 0.68558 0.0
C1718 C 0.93232 0.49553 0.67597 0.0
C1719 C 0.92154 0.49667 0.64309 0.0
C1720 C 0.93262 0.48207 0.67735 0.0
C1721 C 0.92204 0.46948 0.64636 0.0
C1722 C 0.91084 0.47055 0.61608 0.0
C1723 C 0.9107 0.48398 0.61396 0.0
H1724 H 0.52814 0.42025 0.58398 0.0
H1725 H 0.50771 0.43832 0.6947 0.0
H1726 H 0.55167 0.44368 0.58823 0.0
H1727 H 0.53131 0.46235 0.69695 0.0
H1728 H 0.58091 0.50031 0.71994 0.0
H1729 H 0.5572 0.47649 0.72638 0.0
H1730 H 0.56173 0.46757 0.54984 0.0
H1731 H 0.58544 0.49065 0.54458 0.0
C1732 C 0.52869 0.42931 0.60916 0.0
C1733 C 0.51605 0.42749 0.63862 0.0
C1734 C 0.54219 0.44284 0.61126 0.0
C1735 C 0.5434 0.45512 0.64188 0.0
C1736 C 0.53085 0.45316 0.67305 0.0
C1737 C 0.51731 0.43942 0.67167 0.0
C1738 C 0.57679 0.49318 0.68272 0.0
C1739 C 0.58514 0.49733 0.63192 0.0
C1740 C 0.56317 0.47957 0.68625 0.0
C1741 C 0.55757 0.46992 0.63888 0.0
C1742 C 0.56581 0.4744 0.58782 0.0
C1743 C 0.57942 0.48779 0.58458 0.0
H1744 H 0.58355 0.09491 0.54144 0.0
H1745 H 0.57952 0.08274 0.71908 0.0
H1746 H 0.55987 0.09435 0.5455 0.0
H1747 H 0.55585 0.08293 0.72421 0.0
H1748 H 0.50651 0.07185 0.69353 0.0
H1749 H 0.52992 0.0711 0.6961 0.0
H1750 H 0.5501 0.10875 0.58055 0.0
H1751 H 0.52674 0.10894 0.57608 0.0
C1752 C 0.57764 0.0922 0.58166 0.0
C1753 C 0.58349 0.08895 0.63002 0.0
C1754 C 0.56405 0.09202 0.58417 0.0
C1755 C 0.55598 0.08889 0.63549 0.0
C1756 C 0.56168 0.08534 0.68387 0.0
C1757 C 0.57528 0.0853 0.68107 0.0
C1758 C 0.51602 0.07996 0.66896 0.0
C1759 C 0.51475 0.09034 0.63406 0.0
C1760 C 0.52945 0.07958 0.67055 0.0
C1761 C 0.5419 0.08969 0.63772 0.0
C1762 C 0.54068 0.10045 0.60498 0.0
C1763 C 0.52728 0.10066 0.60273 0.0
H1764 H 0.77426 0.6045 0.9915 0.0
H1765 H 0.75625 0.56641 0.10431 0.0
H1766 H 0.79833 0.60505 0.99015 0.0
H1767 H 0.77973 0.56641 0.10093 0.0
H1768 H 0.82678 0.5799 0.14483 0.0
H1769 H 0.80364 0.58037 0.13895 0.0
H1770 H 0.81256 0.59341 0.962 0.0
H1771 H 0.83643 0.59368 0.96907 0.0
C1772 C 0.77538 0.59612 0.01521 0.0
C1773 C 0.76345 0.58553 0.04856 0.0
C1774 C 0.78915 0.59638 0.01433 0.0
C1775 C 0.79114 0.58594 0.04629 0.0
C1776 C 0.77887 0.57495 0.07727 0.0
C1777 C 0.76531 0.57486 0.07887 0.0
C1778 C 0.82391 0.58294 0.10461 0.0
C1779 C 0.83346 0.58669 0.05735 0.0
C1780 C 0.81048 0.58306 0.10102 0.0
C1781 C 0.80598 0.58665 0.04966 0.0
C1782 C 0.81565 0.59065 1.00235 0.0
C1783 C 0.82929 0.59073 1.00625 0.0
H1784 H 0.40617 0.17098 0.99083 0.0
H1785 H 0.44522 0.19207 0.09885 0.0
H1786 H 0.40556 0.19449 0.98794 0.0
H1787 H 0.44514 0.21546 0.09392 0.0
H1788 H 0.43176 0.24869 0.13967 0.0
H1789 H 0.4309 0.22495 0.13392 0.0
H1790 H 0.41727 0.22058 0.95766 0.0
H1791 H 0.41738 0.24442 0.96459 0.0
C1792 C 0.41473 0.18069 0.01316 0.0
C1793 C 0.42561 0.17965 0.04575 0.0
C1794 C 0.41444 0.19417 0.01138 0.0
C1795 C 0.42512 0.20685 0.04168 0.0
C1796 C 0.43641 0.20586 0.07162 0.0
C1797 C 0.43654 0.19244 0.07415 0.0
C1798 C 0.42848 0.24271 0.09961 0.0
C1799 C 0.42472 0.24854 0.05248 0.0
C1800 C 0.42813 0.22907 0.09611 0.0
C1801 C 0.42435 0.22091 0.04493 0.0
C1802 C 0.42023 0.22654 0.99781 0.0
C1803 C 0.42036 0.24022 1.00164 0.0
H1804 H 0.76815 0.17601 0.96623 0.0
H1805 H 0.76413 0.18461 0.14338 0.0
H1806 H 0.79181 0.19992 0.96046 0.0
H1807 H 0.78776 0.2078 0.13864 0.0
H1808 H 0.82024 0.25556 0.10546 0.0
H1809 H 0.79706 0.23182 0.10139 0.0
H1810 H 0.81787 0.21426 0.98947 0.0
H1811 H 0.84114 0.23861 0.99168 0.0
C1812 C 0.77239 0.18291 1.00399 0.0
C1813 C 0.76418 0.17848 0.05508 0.0
C1814 C 0.78597 0.19657 1.00082 0.0
C1815 C 0.79163 0.20597 0.04884 0.0
C1816 C 0.7836 0.20115 0.10024 0.0
C1817 C 0.77003 0.18772 0.10314 0.0
C1818 C 0.81988 0.24668 0.07969 0.0
C1819 C 0.83255 0.2489 0.04932 0.0
C1820 C 0.80658 0.23297 0.07767 0.0
C1821 C 0.80561 0.22092 0.04612 0.0
C1822 C 0.81817 0.22327 0.01412 0.0
C1823 C 0.83152 0.23719 0.0155 0.0
H1824 H 0.60723 0.77069 0.03251 0.0
H1825 H 0.56909 0.7535 0.91991 0.0
H1826 H 0.60829 0.79501 0.03464 0.0
H1827 H 0.56965 0.77723 0.92393 0.0
H1828 H 0.58425 0.82426 0.87909 0.0
H1829 H 0.58458 0.80109 0.88527 0.0
H1830 H 0.5967 0.80959 0.06313 0.0
H1831 H 0.59707 0.83353 0.05591 0.0
C1832 C 0.59895 0.77205 1.00901 0.0
C1833 C 0.5882 0.76028 0.97543 0.0
C1834 C 0.59951 0.78594 1.01033 0.0
C1835 C 0.58924 0.78823 0.97853 0.0
C1836 C 0.57807 0.77612 0.94747 0.0
C1837 C 0.57766 0.76242 0.94547 0.0
C1838 C 0.58708 0.82132 0.91958 0.0
C1839 C 0.59054 0.83074 0.96711 0.0
C1840 C 0.58713 0.80788 0.92331 0.0
C1841 C 0.59033 0.80321 0.97506 0.0
C1842 C 0.59419 0.81281 0.02255 0.0
C1843 C 0.59434 0.82649 0.01854 0.0
H1844 H 0.17367 0.77125 0.02766 0.0
H1845 H 0.19437 0.75375 0.91553 0.0
H1846 H 0.19718 0.79536 0.03071 0.0
H1847 H 0.21781 0.77724 0.92058 0.0
H1848 H 0.25148 0.82435 0.87928 0.0
H1849 H 0.22779 0.80124 0.88347 0.0
H1850 H 0.22305 0.80951 0.0606 0.0
H1851 H 0.24675 0.83337 0.05525 0.0
C1852 C 0.1833 0.7725 1.00441 0.0
C1853 C 0.18215 0.7607 0.97076 0.0
C1854 C 0.19679 0.78628 1.00628 0.0
C1855 C 0.20939 0.78842 0.97502 0.0
C1856 C 0.20828 0.77627 0.94371 0.0
C1857 C 0.19483 0.7627 0.94113 0.0
C1858 C 0.24542 0.82134 0.91919 0.0
C1859 C 0.25108 0.83071 0.96701 0.0
C1860 C 0.23182 0.80794 0.9218 0.0
C1861 C 0.22353 0.80326 0.97271 0.0
C1862 C 0.22906 0.81274 0.02058 0.0
C1863 C 0.24268 0.82637 0.01767 0.0
H1864 H 0.17416 0.4057 0.03041 0.0
H1865 H 0.19411 0.44222 0.91037 0.0
H1866 H 0.19739 0.40465 0.03192 0.0
H1867 H 0.21736 0.44175 0.91381 0.0
H1868 H 0.25032 0.42737 0.87434 0.0
H1869 H 0.22677 0.42701 0.87922 0.0
H1870 H 0.22337 0.41632 0.05855 0.0
H1871 H 0.24694 0.41591 0.05259 0.0
C1872 C 0.18358 0.41363 1.005 0.0
C1873 C 0.18228 0.42393 0.96976 0.0
C1874 C 0.19692 0.41308 1.00601 0.0
C1875 C 0.20925 0.42295 0.97225 0.0
C1876 C 0.20802 0.43364 0.93901 0.0
C1877 C 0.19469 0.43401 0.93733 0.0
C1878 C 0.24457 0.42485 0.91487 0.0
C1879 C 0.25058 0.42175 0.96316 0.0
C1880 C 0.23105 0.42479 0.91785 0.0
C1881 C 0.22322 0.42196 0.96958 0.0
C1882 C 0.22904 0.41851 0.0179 0.0
C1883 C 0.24257 0.41834 0.01462 0.0
H1884 H 0.43027 0.9134 0.47607 0.0
H1885 H 0.43465 0.9271 0.30014 0.0
H1886 H 0.45394 0.91401 0.47109 0.0
H1887 H 0.45835 0.92695 0.29397 0.0
H1888 H 0.50777 0.938 0.32573 0.0
H1889 H 0.48428 0.93861 0.32311 0.0
H1890 H 0.46375 0.89991 0.43354 0.0
H1891 H 0.48719 0.89986 0.43822 0.0
C1892 C 0.43625 0.91645 0.436 0.0
C1893 C 0.4305 0.92013 0.38842 0.0
C1894 C 0.44985 0.91666 0.43293 0.0
C1895 C 0.45802 0.92023 0.38177 0.0
C1896 C 0.45242 0.92419 0.33416 0.0
C1897 C 0.4388 0.9242 0.33754 0.0
C1898 C 0.49817 0.92963 0.34913 0.0
C1899 C 0.49935 0.91901 0.38279 0.0
C1900 C 0.48468 0.92992 0.3475 0.0
C1901 C 0.47212 0.91948 0.37901 0.0
C1902 C 0.47326 0.90846 0.41025 0.0
C1903 C 0.4867 0.90833 0.41261 0.0
H1904 H 0.11218 0.58977 0.43916 0.0
H1905 H 0.07403 0.5715 0.32644 0.0
H1906 H 0.11259 0.56653 0.43481 0.0
H1907 H 0.07387 0.54764 0.32419 0.0
H1908 H 0.08587 0.51008 0.30145 0.0
H1909 H 0.0858 0.53378 0.29525 0.0
H1910 H 0.09901 0.54257 0.47211 0.0
H1911 H 0.09984 0.51963 0.47707 0.0
C1912 C 0.1038 0.5807 0.41359 0.0
C1913 C 0.09299 0.58241 0.38356 0.0
C1914 C 0.10394 0.56727 0.41142 0.0
C1915 C 0.09306 0.55499 0.38018 0.0
C1916 C 0.08247 0.55684 0.34856 0.0
C1917 C 0.0825 0.57048 0.34997 0.0
C1918 C 0.08881 0.51716 0.33877 0.0
C1919 C 0.09298 0.51302 0.38959 0.0
C1920 C 0.08868 0.5307 0.33539 0.0
C1921 C 0.09261 0.54028 0.38294 0.0
C1922 C 0.09636 0.53581 0.43399 0.0
C1923 C 0.0967 0.52249 0.43706 0.0
H1924 H 0.49265 0.58212 0.47586 0.0
H1925 H 0.50275 0.57779 0.30088 0.0
H1926 H 0.46957 0.55842 0.46976 0.0
H1927 H 0.47895 0.55409 0.29359 0.0
H1928 H 0.44069 0.50453 0.32461 0.0
H1929 H 0.46473 0.52816 0.32279 0.0
H1930 H 0.44577 0.54847 0.43027 0.0
H1931 H 0.42234 0.52493 0.43411 0.0
C1932 C 0.48988 0.57615 0.43576 0.0
C1933 C 0.49954 0.58192 0.38877 0.0
C1934 C 0.4765 0.56254 0.43204 0.0
C1935 C 0.47215 0.55437 0.38082 0.0
C1936 C 0.48193 0.56001 0.33381 0.0
C1937 C 0.49552 0.57364 0.33784 0.0
C1938 C 0.44173 0.51413 0.34741 0.0
C1939 C 0.42973 0.51287 0.38005 0.0
C1940 C 0.45547 0.52768 0.34629 0.0
C1941 C 0.45735 0.54022 0.37731 0.0
C1942 C 0.44499 0.539 0.4074 0.0
C1943 C 0.43147 0.5255 0.40925 0.0
loop_
_geom_bond_atom_site_label_1
_geom_bond_atom_site_label_2
_geom_bond_distance
_geom_bond_site_symmetry_2
_ccdc_geom_bond_type
Co0 O1 2.216 . S
Co0 O2 2.091 . S
Co0 O4 2.004 . S
Co0 O10 2.021 . S
Co0 O12 2.137 . S
Co0 O13 2.244 . S
O1 Co0 2.216 . S
O1 C8 1.247 . S
O2 Co0 2.091 . S
O2 C8 1.261 . S
C3 O12 1.247 . S
C3 O13 1.272 . S
O4 Co0 2.004 . S
O4 C9 1.259 . S
Co5 O6 2.061 . S
Co5 O11 2.052 . S
Co5 O13 2.135 . S
O6 Co5 2.061 . S
O6 C9 1.235 . S
C7 O10 1.238 . S
C7 O11 1.241 . S
C8 O1 1.247 . S
C8 O2 1.261 . S
C9 O4 1.259 . S
C9 O6 1.235 . S
O10 Co0 2.021 . S
O10 C7 1.238 . S
O11 Co5 2.052 . S
O11 C7 1.241 . S
O12 Co0 2.137 . S
O12 C3 1.247 . S
O13 Co0 2.244 . S
O13 C3 1.272 . S
O13 Co5 2.135 . S
Co14 O15 2.216 . S
Co14 O16 2.091 . S
Co14 O18 2.004 . S
Co14 O24 2.021 . S
Co14 O26 2.137 . S
Co14 O27 2.244 . S
O15 Co14 2.216 . S
O15 C22 1.247 . S
O16 Co14 2.091 . S
O16 C22 1.261 . S
C17 O26 1.247 . S
C17 O27 1.272 . S
O18 Co14 2.004 . S
O18 C23 1.259 . S
Co19 O20 2.061 . S
Co19 O25 2.052 . S
Co19 O27 2.135 . S
O20 Co19 2.061 . S
O20 C23 1.235 . S
C21 O24 1.238 . S
C21 O25 1.241 . S
C22 O15 1.247 . S
C22 O16 1.261 . S
C23 O18 1.259 . S
C23 O20 1.235 . S
O24 Co14 2.021 . S
O24 C21 1.238 . S
O25 Co19 2.052 . S
O25 C21 1.241 . S
O26 Co14 2.137 . S
O26 C17 1.247 . S
O27 Co14 2.244 . S
O27 C17 1.272 . S
O27 Co19 2.135 . S
Co28 O29 2.216 . S
Co28 O30 2.091 . S
Co28 O32 2.004 . S
Co28 O38 2.021 . S
Co28 O40 2.137 . S
Co28 O41 2.244 . S
O29 Co28 2.216 . S
O29 C36 1.247 . S
O30 Co28 2.091 . S
O30 C36 1.261 . S
C31 O40 1.247 . S
C31 O41 1.272 . S
O32 Co28 2.004 . S
O32 C37 1.259 . S
Co33 O34 2.061 . S
Co33 O39 2.052 . S
Co33 O41 2.135 . S
O34 Co33 2.061 . S
O34 C37 1.235 . S
C35 O38 1.238 . S
C35 O39 1.241 . S
C36 O29 1.247 . S
C36 O30 1.261 . S
C37 O32 1.259 . S
C37 O34 1.235 . S
O38 Co28 2.021 . S
O38 C35 1.238 . S
O39 Co33 2.052 . S
O39 C35 1.241 . S
O40 Co28 2.137 . S
O40 C31 1.247 . S
O41 Co28 2.244 . S
O41 C31 1.272 . S
O41 Co33 2.135 . S
Co42 O43 2.216 . S
Co42 O44 2.091 . S
Co42 O46 2.004 . S
Co42 O52 2.021 . S
Co42 O54 2.137 . S
Co42 O55 2.244 . S
O43 Co42 2.216 . S
O43 C50 1.247 . S
O44 Co42 2.091 . S
O44 C50 1.261 . S
C45 O54 1.247 . S
C45 O55 1.272 . S
O46 Co42 2.004 . S
O46 C51 1.259 . S
Co47 O48 2.061 . S
Co47 O53 2.052 . S
Co47 O55 2.135 . S
O48 Co47 2.061 . S
O48 C51 1.235 . S
C49 O52 1.238 . S
C49 O53 1.241 . S
C50 O43 1.247 . S
C50 O44 1.261 . S
C51 O46 1.259 . S
C51 O48 1.235 . S
O52 Co42 2.021 . S
O52 C49 1.238 . S
O53 Co47 2.052 . S
O53 C49 1.241 . S
O54 Co42 2.137 . S
O54 C45 1.247 . S
O55 Co42 2.244 . S
O55 C45 1.272 . S
O55 Co47 2.135 . S
Co56 O57 2.216 . S
Co56 O58 2.091 . S
Co56 O60 2.004 . S
Co56 O66 2.021 . S
Co56 O68 2.137 . S
Co56 O69 2.244 . S
O57 Co56 2.216 . S
O57 C64 1.247 . S
O58 Co56 2.091 . S
O58 C64 1.261 . S
C59 O68 1.247 . S
C59 O69 1.272 . S
O60 Co56 2.004 . S
O60 C65 1.259 . S
Co61 O62 2.061 . S
Co61 O67 2.052 . S
Co61 O69 2.135 . S
O62 Co61 2.061 . S
O62 C65 1.235 . S
C63 O66 1.238 . S
C63 O67 1.241 . S
C64 O57 1.247 . S
C64 O58 1.261 . S
C65 O60 1.259 . S
C65 O62 1.235 . S
O66 Co56 2.021 . S
O66 C63 1.238 . S
O67 Co61 2.052 . S
O67 C63 1.241 . S
O68 Co56 2.137 . S
O68 C59 1.247 . S
O69 Co56 2.244 . S
O69 C59 1.272 . S
O69 Co61 2.135 . S
Co70 O71 2.216 . S
Co70 O72 2.091 . S
Co70 O74 2.004 . S
Co70 O80 2.021 . S
Co70 O82 2.137 . S
Co70 O83 2.244 . S
O71 Co70 2.216 . S
O71 C78 1.247 . S
O72 Co70 2.091 . S
O72 C78 1.261 . S
C73 O82 1.247 . S
C73 O83 1.272 . S
O74 Co70 2.004 . S
O74 C79 1.259 . S
Co75 O76 2.061 . S
Co75 O81 2.052 . S
Co75 O83 2.135 . S
O76 Co75 2.061 . S
O76 C79 1.235 . S
C77 O80 1.238 . S
C77 O81 1.241 . S
C78 O71 1.247 . S
C78 O72 1.261 . S
C79 O74 1.259 . S
C79 O76 1.235 . S
O80 Co70 2.021 . S
O80 C77 1.238 . S
O81 Co75 2.052 . S
O81 C77 1.241 . S
O82 Co70 2.137 . S
O82 C73 1.247 . S
O83 Co70 2.244 . S
O83 C73 1.272 . S
O83 Co75 2.135 . S
Co84 O85 2.216 . S
Co84 O86 2.091 . S
Co84 O88 2.004 . S
Co84 O94 2.021 . S
Co84 O96 2.137 . S
Co84 O97 2.244 . S
O85 Co84 2.216 . S
O85 C92 1.247 . S
O86 Co84 2.091 . S
O86 C92 1.261 . S
C87 O96 1.247 . S
C87 O97 1.272 . S
O88 Co84 2.004 . S
O88 C93 1.259 . S
Co89 O90 2.061 . S
Co89 O95 2.052 . S
Co89 O97 2.135 . S
O90 Co89 2.061 . S
O90 C93 1.235 . S
C91 O94 1.238 . S
C91 O95 1.241 . S
C92 O85 1.247 . S
C92 O86 1.261 . S
C93 O88 1.259 . S
C93 O90 1.235 . S
O94 Co84 2.021 . S
O94 C91 1.238 . S
O95 Co89 2.052 . S
O95 C91 1.241 . S
O96 Co84 2.137 . S
O96 C87 1.247 . S
O97 Co84 2.244 . S
O97 C87 1.272 . S
O97 Co89 2.135 . S
Co98 O99 2.216 . S
Co98 O100 2.091 . S
Co98 O102 2.004 . S
Co98 O108 2.021 . S
Co98 O110 2.137 . S
Co98 O111 2.244 . S
O99 Co98 2.216 . S
O99 C106 1.247 . S
O100 Co98 2.091 . S
O100 C106 1.261 . S
C101 O110 1.247 . S
C101 O111 1.272 . S
O102 Co98 2.004 . S
O102 C107 1.259 . S
Co103 O104 2.061 . S
Co103 O109 2.052 . S
Co103 O111 2.135 . S
O104 Co103 2.061 . S
O104 C107 1.235 . S
C105 O108 1.238 . S
C105 O109 1.241 . S
C106 O99 1.247 . S
C106 O100 1.261 . S
C107 O102 1.259 . S
C107 O104 1.235 . S
O108 Co98 2.021 . S
O108 C105 1.238 . S
O109 Co103 2.052 . S
O109 C105 1.241 . S
O110 Co98 2.137 . S
O110 C101 1.247 . S
O111 Co98 2.244 . S
O111 C101 1.272 . S
O111 Co103 2.135 . S
Co112 O113 2.216 . S
Co112 O114 2.091 . S
Co112 O116 2.004 . S
Co112 O122 2.021 . S
Co112 O124 2.137 . S
Co112 O125 2.244 . S
O113 Co112 2.216 . S
O113 C120 1.247 . S
O114 Co112 2.091 . S
O114 C120 1.261 . S
C115 O124 1.247 . S
C115 O125 1.272 . S
O116 Co112 2.004 . S
O116 C121 1.259 . S
Co117 O118 2.061 . S
Co117 O123 2.052 . S
Co117 O125 2.135 . S
O118 Co117 2.061 . S
O118 C121 1.235 . S
C119 O122 1.238 . S
C119 O123 1.241 . S
C120 O113 1.247 . S
C120 O114 1.261 . S
C121 O116 1.259 . S
C121 O118 1.235 . S
O122 Co112 2.021 . S
O122 C119 1.238 . S
O123 Co117 2.052 . S
O123 C119 1.241 . S
O124 Co112 2.137 . S
O124 C115 1.247 . S
O125 Co112 2.244 . S
O125 C115 1.272 . S
O125 Co117 2.135 . S
Co126 O127 2.216 . S
Co126 O128 2.091 . S
Co126 O130 2.004 . S
Co126 O136 2.021 . S
Co126 O138 2.137 . S
Co126 O139 2.244 . S
O127 Co126 2.216 . S
O127 C134 1.247 . S
O128 Co126 2.091 . S
O128 C134 1.261 . S
C129 O138 1.247 . S
C129 O139 1.272 . S
O130 Co126 2.004 . S
O130 C135 1.259 . S
Co131 O132 2.061 . S
Co131 O137 2.052 . S
Co131 O139 2.135 . S
O132 Co131 2.061 . S
O132 C135 1.235 . S
C133 O136 1.238 . S
C133 O137 1.241 . S
C134 O127 1.247 . S
C134 O128 1.261 . S
C135 O130 1.259 . S
C135 O132 1.235 . S
O136 Co126 2.021 . S
O136 C133 1.238 . S
O137 Co131 2.052 . S
O137 C133 1.241 . S
O138 Co126 2.137 . S
O138 C129 1.247 . S
O139 Co126 2.244 . S
O139 C129 1.272 . S
O139 Co131 2.135 . S
Co140 O141 2.216 . S
Co140 O142 2.091 . S
Co140 O144 2.004 . S
Co140 O150 2.021 . S
Co140 O152 2.137 . S
Co140 O153 2.244 . S
O141 Co140 2.216 . S
O141 C148 1.247 . S
O142 Co140 2.091 . S
O142 C148 1.261 . S
C143 O152 1.247 . S
C143 O153 1.272 . S
O144 Co140 2.004 . S
O144 C149 1.259 . S
Co145 O146 2.061 . S
Co145 O151 2.052 . S
Co145 O153 2.135 . S
O146 Co145 2.061 . S
O146 C149 1.235 . S
C147 O150 1.238 . S
C147 O151 1.241 . S
C148 O141 1.247 . S
C148 O142 1.261 . S
C149 O144 1.259 . S
C149 O146 1.235 . S
O150 Co140 2.021 . S
O150 C147 1.238 . S
O151 Co145 2.052 . S
O151 C147 1.241 . S
O152 Co140 2.137 . S
O152 C143 1.247 . S
O153 Co140 2.244 . S
O153 C143 1.272 . S
O153 Co145 2.135 . S
Co154 O155 2.216 . S
Co154 O156 2.091 . S
Co154 O158 2.004 . S
Co154 O164 2.021 . S
Co154 O166 2.137 . S
Co154 O167 2.244 . S
O155 Co154 2.216 . S
O155 C162 1.247 . S
O156 Co154 2.091 . S
O156 C162 1.261 . S
C157 O166 1.247 . S
C157 O167 1.272 . S
O158 Co154 2.004 . S
O158 C163 1.259 . S
Co159 O160 2.061 . S
Co159 O165 2.052 . S
Co159 O167 2.135 . S
O160 Co159 2.061 . S
O160 C163 1.235 . S
C161 O164 1.238 . S
C161 O165 1.241 . S
C162 O155 1.247 . S
C162 O156 1.261 . S
C163 O158 1.259 . S
C163 O160 1.235 . S
O164 Co154 2.021 . S
O164 C161 1.238 . S
O165 Co159 2.052 . S
O165 C161 1.241 . S
O166 Co154 2.137 . S
O166 C157 1.247 . S
O167 Co154 2.244 . S
O167 C157 1.272 . S
O167 Co159 2.135 . S
Co168 O169 2.216 . S
Co168 O170 2.091 . S
Co168 O172 2.004 . S
Co168 O178 2.021 . S
Co168 O180 2.137 . S
Co168 O181 2.244 . S
O169 Co168 2.216 . S
O169 C176 1.247 . S
O170 Co168 2.091 . S
O170 C176 1.261 . S
C171 O180 1.247 . S
C171 O181 1.272 . S
O172 Co168 2.004 . S
O172 C177 1.259 . S
Co173 O174 2.061 . S
Co173 O179 2.052 . S
Co173 O181 2.135 . S
O174 Co173 2.061 . S
O174 C177 1.235 . S
C175 O178 1.238 . S
C175 O179 1.241 . S
C176 O169 1.247 . S
C176 O170 1.261 . S
C177 O172 1.259 . S
C177 O174 1.235 . S
O178 Co168 2.021 . S
O178 C175 1.238 . S
O179 Co173 2.052 . S
O179 C175 1.241 . S
O180 Co168 2.137 . S
O180 C171 1.247 . S
O181 Co168 2.244 . S
O181 C171 1.272 . S
O181 Co173 2.135 . S
Co182 O183 2.216 . S
Co182 O184 2.091 . S
Co182 O186 2.004 . S
Co182 O192 2.021 . S
Co182 O194 2.137 . S
Co182 O195 2.244 . S
O183 Co182 2.216 . S
O183 C190 1.247 . S
O184 Co182 2.091 . S
O184 C190 1.261 . S
C185 O194 1.247 . S
C185 O195 1.272 . S
O186 Co182 2.004 . S
O186 C191 1.259 . S
Co187 O188 2.061 . S
Co187 O193 2.052 . S
Co187 O195 2.135 . S
O188 Co187 2.061 . S
O188 C191 1.235 . S
C189 O192 1.238 . S
C189 O193 1.241 . S
C190 O183 1.247 . S
C190 O184 1.261 . S
C191 O186 1.259 . S
C191 O188 1.235 . S
O192 Co182 2.021 . S
O192 C189 1.238 . S
O193 Co187 2.052 . S
O193 C189 1.241 . S
O194 Co182 2.137 . S
O194 C185 1.247 . S
O195 Co182 2.244 . S
O195 C185 1.272 . S
O195 Co187 2.135 . S
Co196 O197 2.216 . S
Co196 O198 2.091 . S
Co196 O200 2.004 . S
Co196 O206 2.021 . S
Co196 O208 2.137 . S
Co196 O209 2.244 . S
O197 Co196 2.216 . S
O197 C204 1.247 . S
O198 Co196 2.091 . S
O198 C204 1.261 . S
C199 O208 1.247 . S
C199 O209 1.272 . S
O200 Co196 2.004 . S
O200 C205 1.259 . S
Co201 O202 2.061 . S
Co201 O207 2.052 . S
Co201 O209 2.135 . S
O202 Co201 2.061 . S
O202 C205 1.235 . S
C203 O206 1.238 . S
C203 O207 1.241 . S
C204 O197 1.247 . S
C204 O198 1.261 . S
C205 O200 1.259 . S
C205 O202 1.235 . S
O206 Co196 2.021 . S
O206 C203 1.238 . S
O207 Co201 2.052 . S
O207 C203 1.241 . S
O208 Co196 2.137 . S
O208 C199 1.247 . S
O209 Co196 2.244 . S
O209 C199 1.272 . S
O209 Co201 2.135 . S
Co210 O211 2.216 . S
Co210 O212 2.091 1_554 S
Co210 O214 2.004 . S
Co210 O220 2.021 . S
Co210 O222 2.137 . S
Co210 O223 2.244 . S
O211 Co210 2.216 . S
O211 C218 1.247 1_554 S
O212 Co210 2.091 1_556 S
O212 C218 1.261 . S
C213 O222 1.247 . S
C213 O223 1.272 . S
O214 Co210 2.004 . S
O214 C219 1.259 . S
Co215 O216 2.061 . S
Co215 O221 2.052 . S
Co215 O223 2.135 . S
O216 Co215 2.061 . S
O216 C219 1.235 . S
C217 O220 1.238 . S
C217 O221 1.241 . S
C218 O211 1.247 1_556 S
C218 O212 1.261 . S
C219 O214 1.259 . S
C219 O216 1.235 . S
O220 Co210 2.021 . S
O220 C217 1.238 . S
O221 Co215 2.052 . S
O221 C217 1.241 . S
O222 Co210 2.137 . S
O222 C213 1.247 . S
O223 Co210 2.244 . S
O223 C213 1.272 . S
O223 Co215 2.135 . S
Co224 O225 2.216 . S
Co224 O226 2.091 1_554 S
Co224 O228 2.004 . S
Co224 O234 2.021 . S
Co224 O236 2.137 . S
Co224 O237 2.244 . S
O225 Co224 2.216 . S
O225 C232 1.247 1_554 S
O226 Co224 2.091 1_556 S
O226 C232 1.261 . S
C227 O236 1.247 . S
C227 O237 1.272 . S
O228 Co224 2.004 . S
O228 C233 1.259 . S
Co229 O230 2.061 . S
Co229 O235 2.052 . S
Co229 O237 2.135 . S
O230 Co229 2.061 . S
O230 C233 1.235 . S
C231 O234 1.238 . S
C231 O235 1.241 . S
C232 O225 1.247 1_556 S
C232 O226 1.261 . S
C233 O228 1.259 . S
C233 O230 1.235 . S
O234 Co224 2.021 . S
O234 C231 1.238 . S
O235 Co229 2.052 . S
O235 C231 1.241 . S
O236 Co224 2.137 . S
O236 C227 1.247 . S
O237 Co224 2.244 . S
O237 C227 1.272 . S
O237 Co229 2.135 . S
Co238 O239 2.216 . S
Co238 O240 2.091 1_554 S
Co238 O242 2.004 . S
Co238 O248 2.021 . S
Co238 O250 2.137 . S
Co238 O251 2.244 . S
O239 Co238 2.216 . S
O239 C246 1.247 1_554 S
O240 Co238 2.091 1_556 S
O240 C246 1.261 . S
C241 O250 1.247 . S
C241 O251 1.272 . S
O242 Co238 2.004 . S
O242 C247 1.259 . S
Co243 O244 2.061 . S
Co243 O249 2.052 . S
Co243 O251 2.135 . S
O244 Co243 2.061 . S
O244 C247 1.235 . S
C245 O248 1.238 . S
C245 O249 1.241 . S
C246 O239 1.247 1_556 S
C246 O240 1.261 . S
C247 O242 1.259 . S
C247 O244 1.235 . S
O248 Co238 2.021 . S
O248 C245 1.238 . S
O249 Co243 2.052 . S
O249 C245 1.241 . S
O250 Co238 2.137 . S
O250 C241 1.247 . S
O251 Co238 2.244 . S
O251 C241 1.272 . S
O251 Co243 2.135 . S
Co252 O253 2.216 . S
Co252 O254 2.091 1_554 S
Co252 O256 2.004 . S
Co252 O262 2.021 . S
Co252 O264 2.137 . S
Co252 O265 2.244 . S
O253 Co252 2.216 . S
O253 C260 1.247 1_554 S
O254 Co252 2.091 1_556 S
O254 C260 1.261 . S
C255 O264 1.247 . S
C255 O265 1.272 . S
O256 Co252 2.004 . S
O256 C261 1.259 . S
Co257 O258 2.061 . S
Co257 O263 2.052 . S
Co257 O265 2.135 . S
O258 Co257 2.061 . S
O258 C261 1.235 . S
C259 O262 1.238 . S
C259 O263 1.241 . S
C260 O253 1.247 1_556 S
C260 O254 1.261 . S
C261 O256 1.259 . S
C261 O258 1.235 . S
O262 Co252 2.021 . S
O262 C259 1.238 . S
O263 Co257 2.052 . S
O263 C259 1.241 . S
O264 Co252 2.137 . S
O264 C255 1.247 . S
O265 Co252 2.244 . S
O265 C255 1.272 . S
O265 Co257 2.135 . S
Co266 O267 2.216 . S
Co266 O268 2.091 1_554 S
Co266 O270 2.004 . S
Co266 O276 2.021 . S
Co266 O278 2.137 . S
Co266 O279 2.244 . S
O267 Co266 2.216 . S
O267 C274 1.247 1_554 S
O268 Co266 2.091 1_556 S
O268 C274 1.261 . S
C269 O278 1.247 . S
C269 O279 1.272 . S
O270 Co266 2.004 . S
O270 C275 1.259 . S
Co271 O272 2.061 . S
Co271 O277 2.052 . S
Co271 O279 2.135 . S
O272 Co271 2.061 . S
O272 C275 1.235 . S
C273 O276 1.238 . S
C273 O277 1.241 . S
C274 O267 1.247 1_556 S
C274 O268 1.261 . S
C275 O270 1.259 . S
C275 O272 1.235 . S
O276 Co266 2.021 . S
O276 C273 1.238 . S
O277 Co271 2.052 . S
O277 C273 1.241 . S
O278 Co266 2.137 . S
O278 C269 1.247 . S
O279 Co266 2.244 . S
O279 C269 1.272 . S
O279 Co271 2.135 . S
Co280 O281 2.216 . S
Co280 O282 2.091 1_554 S
Co280 O284 2.004 . S
Co280 O290 2.021 . S
Co280 O292 2.137 . S
Co280 O293 2.244 . S
O281 Co280 2.216 . S
O281 C288 1.247 1_554 S
O282 Co280 2.091 1_556 S
O282 C288 1.261 . S
C283 O292 1.247 . S
C283 O293 1.272 . S
O284 Co280 2.004 . S
O284 C289 1.259 . S
Co285 O286 2.061 . S
Co285 O291 2.052 . S
Co285 O293 2.135 . S
O286 Co285 2.061 . S
O286 C289 1.235 . S
C287 O290 1.238 . S
C287 O291 1.241 . S
C288 O281 1.247 1_556 S
C288 O282 1.261 . S
C289 O284 1.259 . S
C289 O286 1.235 . S
O290 Co280 2.021 . S
O290 C287 1.238 . S
O291 Co285 2.052 . S
O291 C287 1.241 . S
O292 Co280 2.137 . S
O292 C283 1.247 . S
O293 Co280 2.244 . S
O293 C283 1.272 . S
O293 Co285 2.135 . S
Co294 O295 2.216 . S
Co294 O296 2.091 . S
Co294 O298 2.004 . S
Co294 O304 2.021 . S
Co294 O306 2.137 . S
Co294 O307 2.244 . S
O295 Co294 2.216 . S
O295 C302 1.247 . S
O296 Co294 2.091 . S
O296 C302 1.261 . S
C297 O306 1.247 . S
C297 O307 1.272 . S
O298 Co294 2.004 . S
O298 C303 1.259 . S
Co299 O300 2.061 . S
Co299 O305 2.052 . S
Co299 O307 2.135 . S
O300 Co299 2.061 . S
O300 C303 1.235 . S
C301 O304 1.238 . S
C301 O305 1.241 . S
C302 O295 1.247 . S
C302 O296 1.261 . S
C303 O298 1.259 . S
C303 O300 1.235 . S
O304 Co294 2.021 . S
O304 C301 1.238 . S
O305 Co299 2.052 . S
O305 C301 1.241 . S
O306 Co294 2.137 . S
O306 C297 1.247 . S
O307 Co294 2.244 . S
O307 C297 1.272 . S
O307 Co299 2.135 . S
Co308 O309 2.216 . S
Co308 O310 2.091 . S
Co308 O312 2.004 . S
Co308 O318 2.021 . S
Co308 O320 2.137 . S
Co308 O321 2.244 . S
O309 Co308 2.216 . S
O309 C316 1.247 . S
O310 Co308 2.091 . S
O310 C316 1.261 . S
C311 O320 1.247 . S
C311 O321 1.272 . S
O312 Co308 2.004 . S
O312 C317 1.259 . S
Co313 O314 2.061 . S
Co313 O319 2.052 . S
Co313 O321 2.135 . S
O314 Co313 2.061 . S
O314 C317 1.235 . S
C315 O318 1.238 . S
C315 O319 1.241 . S
C316 O309 1.247 . S
C316 O310 1.261 . S
C317 O312 1.259 . S
C317 O314 1.235 . S
O318 Co308 2.021 . S
O318 C315 1.238 . S
O319 Co313 2.052 . S
O319 C315 1.241 . S
O320 Co308 2.137 . S
O320 C311 1.247 . S
O321 Co308 2.244 . S
O321 C311 1.272 . S
O321 Co313 2.135 . S
Co322 O323 2.216 . S
Co322 O324 2.091 . S
Co322 O326 2.004 . S
Co322 O332 2.021 . S
Co322 O334 2.137 . S
Co322 O335 2.244 . S
O323 Co322 2.216 . S
O323 C330 1.247 . S
O324 Co322 2.091 . S
O324 C330 1.261 . S
C325 O334 1.247 . S
C325 O335 1.272 . S
O326 Co322 2.004 . S
O326 C331 1.259 . S
Co327 O328 2.061 . S
Co327 O333 2.052 . S
Co327 O335 2.135 . S
O328 Co327 2.061 . S
O328 C331 1.235 . S
C329 O332 1.238 . S
C329 O333 1.241 . S
C330 O323 1.247 . S
C330 O324 1.261 . S
C331 O326 1.259 . S
C331 O328 1.235 . S
O332 Co322 2.021 . S
O332 C329 1.238 . S
O333 Co327 2.052 . S
O333 C329 1.241 . S
O334 Co322 2.137 . S
O334 C325 1.247 . S
O335 Co322 2.244 . S
O335 C325 1.272 . S
O335 Co327 2.135 . S
Co336 O337 2.216 . S
Co336 O338 2.091 1_556 S
Co336 O340 2.004 . S
Co336 O346 2.021 . S
Co336 O348 2.137 . S
Co336 O349 2.244 . S
O337 Co336 2.216 . S
O337 C344 1.247 1_556 S
O338 Co336 2.091 1_554 S
O338 C344 1.261 . S
C339 O348 1.247 . S
C339 O349 1.272 . S
O340 Co336 2.004 . S
O340 C345 1.259 . S
Co341 O342 2.061 . S
Co341 O347 2.052 . S
Co341 O349 2.135 . S
O342 Co341 2.061 . S
O342 C345 1.235 . S
C343 O346 1.238 . S
C343 O347 1.241 . S
C344 O337 1.247 1_554 S
C344 O338 1.261 . S
C345 O340 1.259 . S
C345 O342 1.235 . S
O346 Co336 2.021 . S
O346 C343 1.238 . S
O347 Co341 2.052 . S
O347 C343 1.241 . S
O348 Co336 2.137 . S
O348 C339 1.247 . S
O349 Co336 2.244 . S
O349 C339 1.272 . S
O349 Co341 2.135 . S
Co350 O351 2.216 . S
Co350 O352 2.091 1_556 S
Co350 O354 2.004 . S
Co350 O360 2.021 . S
Co350 O362 2.137 . S
Co350 O363 2.244 . S
O351 Co350 2.216 . S
O351 C358 1.247 1_556 S
O352 Co350 2.091 1_554 S
O352 C358 1.261 . S
C353 O362 1.247 . S
C353 O363 1.272 . S
O354 Co350 2.004 . S
O354 C359 1.259 . S
Co355 O356 2.061 . S
Co355 O361 2.052 . S
Co355 O363 2.135 . S
O356 Co355 2.061 . S
O356 C359 1.235 . S
C357 O360 1.238 . S
C357 O361 1.241 . S
C358 O351 1.247 1_554 S
C358 O352 1.261 . S
C359 O354 1.259 . S
C359 O356 1.235 . S
O360 Co350 2.021 . S
O360 C357 1.238 . S
O361 Co355 2.052 . S
O361 C357 1.241 . S
O362 Co350 2.137 . S
O362 C353 1.247 . S
O363 Co350 2.244 . S
O363 C353 1.272 . S
O363 Co355 2.135 . S
Co364 O365 2.216 . S
Co364 O366 2.091 1_556 S
Co364 O368 2.004 . S
Co364 O374 2.021 . S
Co364 O376 2.137 . S
Co364 O377 2.244 . S
O365 Co364 2.216 . S
O365 C372 1.247 1_556 S
O366 Co364 2.091 1_554 S
O366 C372 1.261 . S
C367 O376 1.247 . S
C367 O377 1.272 . S
O368 Co364 2.004 . S
O368 C373 1.259 . S
Co369 O370 2.061 . S
Co369 O375 2.052 . S
Co369 O377 2.135 . S
O370 Co369 2.061 . S
O370 C373 1.235 . S
C371 O374 1.238 . S
C371 O375 1.241 . S
C372 O365 1.247 1_554 S
C372 O366 1.261 . S
C373 O368 1.259 . S
C373 O370 1.235 . S
O374 Co364 2.021 . S
O374 C371 1.238 . S
O375 Co369 2.052 . S
O375 C371 1.241 . S
O376 Co364 2.137 . S
O376 C367 1.247 . S
O377 Co364 2.244 . S
O377 C367 1.272 . S
O377 Co369 2.135 . S
Co378 O379 2.216 . S
Co378 O380 2.091 . S
Co378 O382 2.004 . S
Co378 O388 2.021 . S
Co378 O390 2.137 . S
Co378 O391 2.244 . S
O379 Co378 2.216 . S
O379 C386 1.247 . S
O380 Co378 2.091 . S
O380 C386 1.261 . S
C381 O390 1.247 . S
C381 O391 1.272 . S
O382 Co378 2.004 . S
O382 C387 1.259 . S
Co383 O384 2.061 . S
Co383 O389 2.052 . S
Co383 O391 2.135 . S
O384 Co383 2.061 . S
O384 C387 1.235 . S
C385 O388 1.238 . S
C385 O389 1.241 . S
C386 O379 1.247 . S
C386 O380 1.261 . S
C387 O382 1.259 . S
C387 O384 1.235 . S
O388 Co378 2.021 . S
O388 C385 1.238 . S
O389 Co383 2.052 . S
O389 C385 1.241 . S
O390 Co378 2.137 . S
O390 C381 1.247 . S
O391 Co378 2.244 . S
O391 C381 1.272 . S
O391 Co383 2.135 . S
Co392 O393 2.216 . S
Co392 O394 2.091 . S
Co392 O396 2.004 . S
Co392 O402 2.021 . S
Co392 O404 2.137 . S
Co392 O405 2.244 . S
O393 Co392 2.216 . S
O393 C400 1.247 . S
O394 Co392 2.091 . S
O394 C400 1.261 . S
C395 O404 1.247 . S
C395 O405 1.272 . S
O396 Co392 2.004 . S
O396 C401 1.259 . S
Co397 O398 2.061 . S
Co397 O403 2.052 . S
Co397 O405 2.135 . S
O398 Co397 2.061 . S
O398 C401 1.235 . S
C399 O402 1.238 . S
C399 O403 1.241 . S
C400 O393 1.247 . S
C400 O394 1.261 . S
C401 O396 1.259 . S
C401 O398 1.235 . S
O402 Co392 2.021 . S
O402 C399 1.238 . S
O403 Co397 2.052 . S
O403 C399 1.241 . S
O404 Co392 2.137 . S
O404 C395 1.247 . S
O405 Co392 2.244 . S
O405 C395 1.272 . S
O405 Co397 2.135 . S
Co406 O407 2.216 . S
Co406 O408 2.091 . S
Co406 O410 2.004 . S
Co406 O416 2.021 . S
Co406 O418 2.137 . S
Co406 O419 2.244 . S
O407 Co406 2.216 . S
O407 C414 1.247 . S
O408 Co406 2.091 . S
O408 C414 1.261 . S
C409 O418 1.247 . S
C409 O419 1.272 . S
O410 Co406 2.004 . S
O410 C415 1.259 . S
Co411 O412 2.061 . S
Co411 O417 2.052 . S
Co411 O419 2.135 . S
O412 Co411 2.061 . S
O412 C415 1.235 . S
C413 O416 1.238 . S
C413 O417 1.241 . S
C414 O407 1.247 . S
C414 O408 1.261 . S
C415 O410 1.259 . S
C415 O412 1.235 . S
O416 Co406 2.021 . S
O416 C413 1.238 . S
O417 Co411 2.052 . S
O417 C413 1.241 . S
O418 Co406 2.137 . S
O418 C409 1.247 . S
O419 Co406 2.244 . S
O419 C409 1.272 . S
O419 Co411 2.135 . S
Co420 O421 2.216 . S
Co420 O422 2.091 . S
Co420 O424 2.004 . S
Co420 O430 2.021 . S
Co420 O432 2.137 . S
Co420 O433 2.244 . S
O421 Co420 2.216 . S
O421 C428 1.247 . S
O422 Co420 2.091 . S
O422 C428 1.261 . S
C423 O432 1.247 . S
C423 O433 1.272 . S
O424 Co420 2.004 . S
O424 C429 1.259 . S
Co425 O426 2.061 . S
Co425 O431 2.052 . S
Co425 O433 2.135 . S
O426 Co425 2.061 . S
O426 C429 1.235 . S
C427 O430 1.238 . S
C427 O431 1.241 . S
C428 O421 1.247 . S
C428 O422 1.261 . S
C429 O424 1.259 . S
C429 O426 1.235 . S
O430 Co420 2.021 . S
O430 C427 1.238 . S
O431 Co425 2.052 . S
O431 C427 1.241 . S
O432 Co420 2.137 . S
O432 C423 1.247 . S
O433 Co420 2.244 . S
O433 C423 1.272 . S
O433 Co425 2.135 . S
Co434 O435 2.216 . S
Co434 O436 2.091 . S
Co434 O438 2.004 . S
Co434 O444 2.021 . S
Co434 O446 2.137 . S
Co434 O447 2.244 . S
O435 Co434 2.216 . S
O435 C442 1.247 . S
O436 Co434 2.091 . S
O436 C442 1.261 . S
C437 O446 1.247 . S
C437 O447 1.272 . S
O438 Co434 2.004 . S
O438 C443 1.259 . S
Co439 O440 2.061 . S
Co439 O445 2.052 . S
Co439 O447 2.135 . S
O440 Co439 2.061 . S
O440 C443 1.235 . S
C441 O444 1.238 . S
C441 O445 1.241 . S
C442 O435 1.247 . S
C442 O436 1.261 . S
C443 O438 1.259 . S
C443 O440 1.235 . S
O444 Co434 2.021 . S
O444 C441 1.238 . S
O445 Co439 2.052 . S
O445 C441 1.241 . S
O446 Co434 2.137 . S
O446 C437 1.247 . S
O447 Co434 2.244 . S
O447 C437 1.272 . S
O447 Co439 2.135 . S
Co448 O449 2.216 . S
Co448 O450 2.091 . S
Co448 O452 2.004 . S
Co448 O458 2.021 . S
Co448 O460 2.137 . S
Co448 O461 2.244 . S
O449 Co448 2.216 . S
O449 C456 1.247 . S
O450 Co448 2.091 . S
O450 C456 1.261 . S
C451 O460 1.247 . S
C451 O461 1.272 . S
O452 Co448 2.004 . S
O452 C457 1.259 . S
Co453 O454 2.061 . S
Co453 O459 2.052 . S
Co453 O461 2.135 . S
O454 Co453 2.061 . S
O454 C457 1.235 . S
C455 O458 1.238 . S
C455 O459 1.241 . S
C456 O449 1.247 . S
C456 O450 1.261 . S
C457 O452 1.259 . S
C457 O454 1.235 . S
O458 Co448 2.021 . S
O458 C455 1.238 . S
O459 Co453 2.052 . S
O459 C455 1.241 . S
O460 Co448 2.137 . S
O460 C451 1.247 . S
O461 Co448 2.244 . S
O461 C451 1.272 . S
O461 Co453 2.135 . S
Co462 O463 2.216 . S
Co462 O464 2.091 1_556 S
Co462 O466 2.004 . S
Co462 O472 2.021 . S
Co462 O474 2.137 . S
Co462 O475 2.244 . S
O463 Co462 2.216 . S
O463 C470 1.247 1_556 S
O464 Co462 2.091 1_554 S
O464 C470 1.261 . S
C465 O474 1.247 . S
C465 O475 1.272 . S
O466 Co462 2.004 . S
O466 C471 1.259 . S
Co467 O468 2.061 . S
Co467 O473 2.052 . S
Co467 O475 2.135 . S
O468 Co467 2.061 . S
O468 C471 1.235 . S
C469 O472 1.238 . S
C469 O473 1.241 . S
C470 O463 1.247 1_554 S
C470 O464 1.261 . S
C471 O466 1.259 . S
C471 O468 1.235 . S
O472 Co462 2.021 . S
O472 C469 1.238 . S
O473 Co467 2.052 . S
O473 C469 1.241 . S
O474 Co462 2.137 . S
O474 C465 1.247 . S
O475 Co462 2.244 . S
O475 C465 1.272 . S
O475 Co467 2.135 . S
Co476 O477 2.216 . S
Co476 O478 2.091 1_556 S
Co476 O480 2.004 . S
Co476 O486 2.021 . S
Co476 O488 2.137 . S
Co476 O489 2.244 . S
O477 Co476 2.216 . S
O477 C484 1.247 1_556 S
O478 Co476 2.091 1_554 S
O478 C484 1.261 . S
C479 O488 1.247 . S
C479 O489 1.272 . S
O480 Co476 2.004 . S
O480 C485 1.259 . S
Co481 O482 2.061 . S
Co481 O487 2.052 . S
Co481 O489 2.135 . S
O482 Co481 2.061 . S
O482 C485 1.235 . S
C483 O486 1.238 . S
C483 O487 1.241 . S
C484 O477 1.247 1_554 S
C484 O478 1.261 . S
C485 O480 1.259 . S
C485 O482 1.235 . S
O486 Co476 2.021 . S
O486 C483 1.238 . S
O487 Co481 2.052 . S
O487 C483 1.241 . S
O488 Co476 2.137 . S
O488 C479 1.247 . S
O489 Co476 2.244 . S
O489 C479 1.272 . S
O489 Co481 2.135 . S
Co490 O491 2.216 . S
Co490 O492 2.091 1_556 S
Co490 O494 2.004 . S
Co490 O500 2.021 . S
Co490 O502 2.137 . S
Co490 O503 2.244 . S
O491 Co490 2.216 . S
O491 C498 1.247 1_556 S
O492 Co490 2.091 1_554 S
O492 C498 1.261 . S
C493 O502 1.247 . S
C493 O503 1.272 . S
O494 Co490 2.004 . S
O494 C499 1.259 . S
Co495 O496 2.061 . S
Co495 O501 2.052 . S
Co495 O503 2.135 . S
O496 Co495 2.061 . S
O496 C499 1.235 . S
C497 O500 1.238 . S
C497 O501 1.241 . S
C498 O491 1.247 1_554 S
C498 O492 1.261 . S
C499 O494 1.259 . S
C499 O496 1.235 . S
O500 Co490 2.021 . S
O500 C497 1.238 . S
O501 Co495 2.052 . S
O501 C497 1.241 . S
O502 Co490 2.137 . S
O502 C493 1.247 . S
O503 Co490 2.244 . S
O503 C493 1.272 . S
O503 Co495 2.135 . S
H504 C512 0.950 . S
H505 C517 0.950 . S
H506 C514 0.950 1_545 S
H507 C516 0.950 . S
H508 C518 0.950 . S
H509 C520 0.950 1_565 S
H510 C522 0.950 . S
H511 C523 0.950 . S
C512 H504 0.950 . S
C512 C513 1.386 . S
C512 C514 1.391 . S
C513 C512 1.386 . S
C513 C517 1.393 . S
C514 H506 0.950 1_565 S
C514 C512 1.391 . S
C514 C515 1.400 . S
C515 C514 1.400 . S
C515 C516 1.398 . S
C515 C521 1.491 1_565 S
C516 H507 0.950 . S
C516 C515 1.398 . S
C516 C517 1.391 . S
C517 H505 0.950 . S
C517 C513 1.393 . S
C517 C516 1.391 . S
C518 H508 0.950 . S
C518 C519 1.386 . S
C518 C520 1.391 . S
C519 C518 1.386 . S
C519 C523 1.393 . S
C520 H509 0.950 1_545 S
C520 C518 1.391 . S
C520 C521 1.400 . S
C521 C515 1.491 1_545 S
C521 C520 1.400 . S
C521 C522 1.398 . S
C522 H510 0.950 . S
C522 C521 1.398 . S
C522 C523 1.391 . S
C523 H511 0.950 . S
C523 C519 1.393 . S
C523 C522 1.391 . S
H524 C532 0.950 . S
H525 C537 0.950 . S
H526 C534 0.950 1_655 S
H527 C536 0.950 . S
H528 C538 0.950 . S
H529 C540 0.950 1_455 S
H530 C542 0.950 . S
H531 C543 0.950 . S
C532 H524 0.950 . S
C532 C533 1.386 . S
C532 C534 1.391 . S
C533 C532 1.386 . S
C533 C537 1.393 . S
C534 H526 0.950 1_455 S
C534 C532 1.391 . S
C534 C535 1.400 . S
C535 C534 1.400 . S
C535 C536 1.398 . S
C535 C541 1.491 1_455 S
C536 H527 0.950 . S
C536 C535 1.398 . S
C536 C537 1.391 . S
C537 H525 0.950 . S
C537 C533 1.393 . S
C537 C536 1.391 . S
C538 H528 0.950 . S
C538 C539 1.386 . S
C538 C540 1.391 . S
C539 C538 1.386 . S
C539 C543 1.393 . S
C540 H529 0.950 1_655 S
C540 C538 1.391 . S
C540 C541 1.400 . S
C541 C535 1.491 1_655 S
C541 C540 1.400 . S
C541 C542 1.398 . S
C542 H530 0.950 . S
C542 C541 1.398 . S
C542 C543 1.391 . S
C543 H531 0.950 . S
C543 C539 1.393 . S
C543 C542 1.391 . S
H544 C552 0.950 . S
H545 C557 0.950 . S
H546 C554 0.950 . S
H547 C556 0.950 . S
H548 C558 0.950 . S
H549 C560 0.950 . S
H550 C562 0.950 . S
H551 C563 0.950 . S
C552 H544 0.950 . S
C552 C553 1.386 . S
C552 C554 1.391 . S
C553 C552 1.386 . S
C553 C557 1.393 . S
C554 H546 0.950 . S
C554 C552 1.391 . S
C554 C555 1.400 . S
C555 C554 1.400 . S
C555 C556 1.398 . S
C555 C561 1.491 . S
C556 H547 0.950 . S
C556 C555 1.398 . S
C556 C557 1.391 . S
C557 H545 0.950 . S
C557 C553 1.393 . S
C557 C556 1.391 . S
C558 H548 0.950 . S
C558 C559 1.386 . S
C558 C560 1.391 . S
C559 C558 1.386 . S
C559 C563 1.393 . S
C560 H549 0.950 . S
C560 C558 1.391 . S
C560 C561 1.400 . S
C561 C555 1.491 . S
C561 C560 1.400 . S
C561 C562 1.398 . S
C562 H550 0.950 . S
C562 C561 1.398 . S
C562 C563 1.391 . S
C563 H551 0.950 . S
C563 C559 1.393 . S
C563 C562 1.391 . S
H564 C572 0.950 . S
H565 C577 0.950 . S
H566 C574 0.950 . S
H567 C576 0.896 1_545 S
H568 C578 0.950 . S
H569 C580 0.950 . S
H570 C582 0.897 1_565 S
H571 C583 0.950 . S
C572 H564 0.950 . S
C572 C573 1.386 . S
C572 C574 1.391 . S
C573 C572 1.386 . S
C573 C577 1.393 . S
C574 H566 0.950 . S
C574 C572 1.391 . S
C574 C575 1.400 . S
C575 C574 1.400 . S
C575 C576 1.420 . S
C575 C581 1.491 1_565 S
C576 H567 0.896 1_565 S
C576 C575 1.420 . S
C576 C577 1.423 . S
C577 H565 0.950 . S
C577 C573 1.393 . S
C577 C576 1.423 . S
C578 H568 0.950 . S
C578 C579 1.386 . S
C578 C580 1.391 . S
C579 C578 1.386 . S
C579 C583 1.393 . S
C580 H569 0.950 . S
C580 C578 1.391 . S
C580 C581 1.400 . S
C581 C575 1.491 1_545 S
C581 C580 1.400 . S
C581 C582 1.420 . S
C582 H570 0.897 1_545 S
C582 C581 1.420 . S
C582 C583 1.423 . S
C583 H571 0.950 . S
C583 C579 1.393 . S
C583 C582 1.423 . S
H584 C592 0.950 . S
H585 C597 0.950 . S
H586 C594 0.950 1_655 S
H587 C596 0.950 . S
H588 C598 0.950 . S
H589 C600 0.950 1_455 S
H590 C602 0.950 . S
H591 C603 0.950 . S
C592 H584 0.950 . S
C592 C593 1.386 . S
C592 C594 1.391 . S
C593 C592 1.386 . S
C593 C597 1.393 . S
C594 H586 0.950 1_455 S
C594 C592 1.391 . S
C594 C595 1.400 . S
C595 C594 1.400 . S
C595 C596 1.398 . S
C595 C601 1.491 1_455 S
C596 H587 0.950 . S
C596 C595 1.398 . S
C596 C597 1.391 . S
C597 H585 0.950 . S
C597 C593 1.393 . S
C597 C596 1.391 . S
C598 H588 0.950 . S
C598 C599 1.386 . S
C598 C600 1.391 . S
C599 C598 1.386 . S
C599 C603 1.393 . S
C600 H589 0.950 1_655 S
C600 C598 1.391 . S
C600 C601 1.400 . S
C601 C595 1.491 1_655 S
C601 C600 1.400 . S
C601 C602 1.398 . S
C602 H590 0.950 . S
C602 C601 1.398 . S
C602 C603 1.391 . S
C603 H591 0.950 . S
C603 C599 1.393 . S
C603 C602 1.391 . S
H604 C612 0.950 . S
H605 C617 0.950 . S
H606 C614 0.950 . S
H607 C616 0.950 . S
H608 C618 0.950 . S
H609 C620 0.950 . S
H610 C622 0.950 . S
H611 C623 0.950 . S
C612 H604 0.950 . S
C612 C613 1.386 . S
C612 C614 1.391 . S
C613 C612 1.386 . S
C613 C617 1.393 . S
C614 H606 0.950 . S
C614 C612 1.391 . S
C614 C615 1.400 . S
C615 C614 1.400 . S
C615 C616 1.398 . S
C615 C621 1.491 . S
C616 H607 0.950 . S
C616 C615 1.398 . S
C616 C617 1.391 . S
C617 H605 0.950 . S
C617 C613 1.393 . S
C617 C616 1.391 . S
C618 H608 0.950 . S
C618 C619 1.386 . S
C618 C620 1.391 . S
C619 C618 1.386 . S
C619 C623 1.393 . S
C620 H609 0.950 . S
C620 C618 1.391 . S
C620 C621 1.400 . S
C621 C615 1.491 . S
C621 C620 1.400 . S
C621 C622 1.398 . S
C622 H610 0.950 . S
C622 C621 1.398 . S
C622 C623 1.391 . S
C623 H611 0.950 . S
C623 C619 1.393 . S
C623 C622 1.391 . S
H624 C632 0.950 . S
H625 C637 0.950 . S
H626 C634 0.950 . S
H627 C636 0.950 . S
H628 C638 0.950 . S
H629 C640 0.950 . S
H630 C642 0.950 . S
H631 C643 0.950 . S
C632 H624 0.950 . S
C632 C633 1.386 . S
C632 C634 1.391 . S
C633 C632 1.386 . S
C633 C637 1.393 . S
C634 H626 0.950 . S
C634 C632 1.391 . S
C634 C635 1.400 . S
C635 C634 1.400 . S
C635 C636 1.398 . S
C635 C641 1.491 . S
C636 H627 0.950 . S
C636 C635 1.398 . S
C636 C637 1.391 . S
C637 H625 0.950 . S
C637 C633 1.393 . S
C637 C636 1.391 . S
C638 H628 0.950 . S
C638 C639 1.386 . S
C638 C640 1.391 . S
C639 C638 1.386 . S
C639 C643 1.393 . S
C640 H629 0.950 . S
C640 C638 1.391 . S
C640 C641 1.400 . S
C641 C635 1.491 . S
C641 C640 1.400 . S
C641 C642 1.398 . S
C642 H630 0.950 . S
C642 C641 1.398 . S
C642 C643 1.391 . S
C643 H631 0.950 . S
C643 C639 1.393 . S
C643 C642 1.391 . S
H644 C652 0.950 . S
H645 C657 0.950 . S
H646 C654 0.950 . S
H647 C656 0.950 . S
H648 C658 0.950 . S
H649 C660 0.950 . S
H650 C662 0.950 . S
H651 C663 0.950 . S
C652 H644 0.950 . S
C652 C653 1.386 . S
C652 C654 1.391 . S
C653 C652 1.386 . S
C653 C657 1.393 . S
C654 H646 0.950 . S
C654 C652 1.391 . S
C654 C655 1.400 . S
C655 C654 1.400 . S
C655 C656 1.398 . S
C655 C661 1.491 . S
C656 H647 0.950 . S
C656 C655 1.398 . S
C656 C657 1.391 . S
C657 H645 0.950 . S
C657 C653 1.393 . S
C657 C656 1.391 . S
C658 H648 0.950 . S
C658 C659 1.386 . S
C658 C660 1.391 . S
C659 C658 1.386 . S
C659 C663 1.393 . S
C660 H649 0.950 . S
C660 C658 1.391 . S
C660 C661 1.400 . S
C661 C655 1.491 . S
C661 C660 1.400 . S
C661 C662 1.398 . S
C662 H650 0.950 . S
C662 C661 1.398 . S
C662 C663 1.391 . S
C663 H651 0.950 . S
C663 C659 1.393 . S
C663 C662 1.391 . S
H664 C672 0.950 . S
H665 C677 0.950 . S
H666 C674 0.950 . S
H667 C676 0.950 . S
H668 C678 0.950 . S
H669 C680 0.950 . S
H670 C682 0.950 . S
H671 C683 0.950 . S
C672 H664 0.950 . S
C672 C673 1.386 . S
C672 C674 1.391 . S
C673 C672 1.386 . S
C673 C677 1.393 . S
C674 H666 0.950 . S
C674 C672 1.391 . S
C674 C675 1.400 . S
C675 C674 1.400 . S
C675 C676 1.398 . S
C675 C681 1.491 . S
C676 H667 0.950 . S
C676 C675 1.398 . S
C676 C677 1.391 . S
C677 H665 0.950 . S
C677 C673 1.393 . S
C677 C676 1.391 . S
C678 H668 0.950 . S
C678 C679 1.386 . S
C678 C680 1.391 . S
C679 C678 1.386 . S
C679 C683 1.393 . S
C680 H669 0.950 . S
C680 C678 1.391 . S
C680 C681 1.400 . S
C681 C675 1.491 . S
C681 C680 1.400 . S
C681 C682 1.398 . S
C682 H670 0.950 . S
C682 C681 1.398 . S
C682 C683 1.391 . S
C683 H671 0.950 . S
C683 C679 1.393 . S
C683 C682 1.391 . S
H684 C692 0.950 . S
H685 C697 0.950 . S
H686 C694 0.950 . S
H687 C696 0.950 . S
H688 C698 0.950 . S
H689 C700 0.950 . S
H690 C702 0.950 . S
H691 C703 0.950 . S
C692 H684 0.950 . S
C692 C693 1.386 . S
C692 C694 1.391 . S
C693 C692 1.386 . S
C693 C697 1.393 . S
C694 H686 0.950 . S
C694 C692 1.391 . S
C694 C695 1.400 . S
C695 C694 1.400 . S
C695 C696 1.398 . S
C695 C701 1.491 . S
C696 H687 0.950 . S
C696 C695 1.398 . S
C696 C697 1.391 . S
C697 H685 0.950 . S
C697 C693 1.393 . S
C697 C696 1.391 . S
C698 H688 0.950 . S
C698 C699 1.386 . S
C698 C700 1.391 . S
C699 C698 1.386 . S
C699 C703 1.393 . S
C700 H689 0.950 . S
C700 C698 1.391 . S
C700 C701 1.400 . S
C701 C695 1.491 . S
C701 C700 1.400 . S
C701 C702 1.398 . S
C702 H690 0.950 . S
C702 C701 1.398 . S
C702 C703 1.391 . S
C703 H691 0.950 . S
C703 C699 1.393 . S
C703 C702 1.391 . S
H704 C712 0.950 . S
H705 C717 0.950 . S
H706 C714 0.950 . S
H707 C716 0.950 . S
H708 C718 0.950 . S
H709 C720 0.950 . S
H710 C722 0.950 . S
H711 C723 0.950 . S
C712 H704 0.950 . S
C712 C713 1.386 . S
C712 C714 1.391 . S
C713 C712 1.386 . S
C713 C717 1.393 . S
C714 H706 0.950 . S
C714 C712 1.391 . S
C714 C715 1.400 . S
C715 C714 1.400 . S
C715 C716 1.398 . S
C715 C721 1.491 . S
C716 H707 0.950 . S
C716 C715 1.398 . S
C716 C717 1.391 . S
C717 H705 0.950 . S
C717 C713 1.393 . S
C717 C716 1.391 . S
C718 H708 0.950 . S
C718 C719 1.386 . S
C718 C720 1.391 . S
C719 C718 1.386 . S
C719 C723 1.393 . S
C720 H709 0.950 . S
C720 C718 1.391 . S
C720 C721 1.400 . S
C721 C715 1.491 . S
C721 C720 1.400 . S
C721 C722 1.398 . S
C722 H710 0.950 . S
C722 C721 1.398 . S
C722 C723 1.391 . S
C723 H711 0.950 . S
C723 C719 1.393 . S
C723 C722 1.391 . S
H724 C732 0.950 . S
H725 C737 0.950 . S
H726 C734 0.950 . S
H727 C736 0.950 . S
H728 C738 0.950 . S
H729 C740 0.950 . S
H730 C742 0.950 . S
H731 C743 0.950 . S
C732 H724 0.950 . S
C732 C733 1.386 . S
C732 C734 1.391 . S
C733 C732 1.386 . S
C733 C737 1.393 . S
C734 H726 0.950 . S
C734 C732 1.391 . S
C734 C735 1.400 . S
C735 C734 1.400 . S
C735 C736 1.398 . S
C735 C741 1.491 . S
C736 H727 0.950 . S
C736 C735 1.398 . S
C736 C737 1.391 . S
C737 H725 0.950 . S
C737 C733 1.393 . S
C737 C736 1.391 . S
C738 H728 0.950 . S
C738 C739 1.386 . S
C738 C740 1.391 . S
C739 C738 1.386 . S
C739 C743 1.393 . S
C740 H729 0.950 . S
C740 C738 1.391 . S
C740 C741 1.400 . S
C741 C735 1.491 . S
C741 C740 1.400 . S
C741 C742 1.398 . S
C742 H730 0.950 . S
C742 C741 1.398 . S
C742 C743 1.391 . S
C743 H731 0.950 . S
C743 C739 1.393 . S
C743 C742 1.391 . S
H744 C752 0.950 . S
H745 C757 0.950 . S
H746 C754 0.950 . S
H747 C756 0.950 . S
H748 C758 0.950 . S
H749 C760 0.950 . S
H750 C762 0.950 . S
H751 C763 0.950 . S
C752 H744 0.950 . S
C752 C753 1.386 . S
C752 C754 1.391 . S
C753 C752 1.386 . S
C753 C757 1.393 . S
C754 H746 0.950 . S
C754 C752 1.391 . S
C754 C755 1.400 . S
C755 C754 1.400 . S
C755 C756 1.398 . S
C755 C761 1.491 . S
C756 H747 0.950 . S
C756 C755 1.398 . S
C756 C757 1.391 . S
C757 H745 0.950 . S
C757 C753 1.393 . S
C757 C756 1.391 . S
C758 H748 0.950 . S
C758 C759 1.386 . S
C758 C760 1.391 . S
C759 C758 1.386 . S
C759 C763 1.393 . S
C760 H749 0.950 . S
C760 C758 1.391 . S
C760 C761 1.400 . S
C761 C755 1.491 . S
C761 C760 1.400 . S
C761 C762 1.398 . S
C762 H750 0.950 . S
C762 C761 1.398 . S
C762 C763 1.391 . S
C763 H751 0.950 . S
C763 C759 1.393 . S
C763 C762 1.391 . S
H764 C772 0.950 . S
H765 C777 0.950 . S
H766 C774 0.950 . S
H767 C776 0.950 . S
H768 C778 0.950 . S
H769 C780 0.950 . S
H770 C782 0.950 . S
H771 C783 0.950 . S
C772 H764 0.950 . S
C772 C773 1.386 . S
C772 C774 1.391 . S
C773 C772 1.386 . S
C773 C777 1.393 . S
C774 H766 0.950 . S
C774 C772 1.391 . S
C774 C775 1.400 . S
C775 C774 1.400 . S
C775 C776 1.398 . S
C775 C781 1.491 . S
C776 H767 0.950 . S
C776 C775 1.398 . S
C776 C777 1.391 . S
C777 H765 0.950 . S
C777 C773 1.393 . S
C777 C776 1.391 . S
C778 H768 0.950 . S
C778 C779 1.386 . S
C778 C780 1.391 . S
C779 C778 1.386 . S
C779 C783 1.393 . S
C780 H769 0.950 . S
C780 C778 1.391 . S
C780 C781 1.400 . S
C781 C775 1.491 . S
C781 C780 1.400 . S
C781 C782 1.398 . S
C782 H770 0.950 . S
C782 C781 1.398 . S
C782 C783 1.391 . S
C783 H771 0.950 . S
C783 C779 1.393 . S
C783 C782 1.391 . S
H784 C792 0.950 . S
H785 C797 0.950 . S
H786 C794 0.950 . S
H787 C796 0.950 . S
H788 C798 0.950 . S
H789 C800 0.950 . S
H790 C802 0.950 . S
H791 C803 0.950 . S
C792 H784 0.950 . S
C792 C793 1.386 . S
C792 C794 1.391 . S
C793 C792 1.386 . S
C793 C797 1.393 . S
C794 H786 0.950 . S
C794 C792 1.391 . S
C794 C795 1.400 . S
C795 C794 1.400 . S
C795 C796 1.398 . S
C795 C801 1.491 . S
C796 H787 0.950 . S
C796 C795 1.398 . S
C796 C797 1.391 . S
C797 H785 0.950 . S
C797 C793 1.393 . S
C797 C796 1.391 . S
C798 H788 0.950 . S
C798 C799 1.386 . S
C798 C800 1.391 . S
C799 C798 1.386 . S
C799 C803 1.393 . S
C800 H789 0.950 . S
C800 C798 1.391 . S
C800 C801 1.400 . S
C801 C795 1.491 . S
C801 C800 1.400 . S
C801 C802 1.398 . S
C802 H790 0.950 . S
C802 C801 1.398 . S
C802 C803 1.391 . S
C803 H791 0.950 . S
C803 C799 1.393 . S
C803 C802 1.391 . S
H804 C812 0.950 . S
H805 C817 0.950 . S
H806 C814 0.950 . S
H807 C816 0.950 . S
H808 C818 0.950 . S
H809 C820 0.950 . S
H810 C822 0.950 . S
H811 C823 0.950 . S
C812 H804 0.950 . S
C812 C813 1.386 . S
C812 C814 1.391 . S
C813 C812 1.386 . S
C813 C817 1.393 . S
C814 H806 0.950 . S
C814 C812 1.391 . S
C814 C815 1.400 . S
C815 C814 1.400 . S
C815 C816 1.398 . S
C815 C821 1.491 . S
C816 H807 0.950 . S
C816 C815 1.398 . S
C816 C817 1.391 . S
C817 H805 0.950 . S
C817 C813 1.393 . S
C817 C816 1.391 . S
C818 H808 0.950 . S
C818 C819 1.386 . S
C818 C820 1.391 . S
C819 C818 1.386 . S
C819 C823 1.393 . S
C820 H809 0.950 . S
C820 C818 1.391 . S
C820 C821 1.400 . S
C821 C815 1.491 . S
C821 C820 1.400 . S
C821 C822 1.398 . S
C822 H810 0.950 . S
C822 C821 1.398 . S
C822 C823 1.391 . S
C823 H811 0.950 . S
C823 C819 1.393 . S
C823 C822 1.391 . S
H824 C832 0.950 . S
H825 C837 0.950 . S
H826 C834 0.950 . S
H827 C836 0.950 . S
H828 C838 0.950 . S
H829 C840 0.950 . S
H830 C842 0.950 . S
H831 C843 0.950 . S
C832 H824 0.950 . S
C832 C833 1.386 . S
C832 C834 1.391 . S
C833 C832 1.386 . S
C833 C837 1.393 . S
C834 H826 0.950 . S
C834 C832 1.391 . S
C834 C835 1.400 . S
C835 C834 1.400 . S
C835 C836 1.398 . S
C835 C841 1.491 . S
C836 H827 0.950 . S
C836 C835 1.398 . S
C836 C837 1.391 . S
C837 H825 0.950 . S
C837 C833 1.393 . S
C837 C836 1.391 . S
C838 H828 0.950 . S
C838 C839 1.386 . S
C838 C840 1.391 . S
C839 C838 1.386 . S
C839 C843 1.393 . S
C840 H829 0.950 . S
C840 C838 1.391 . S
C840 C841 1.400 . S
C841 C835 1.491 . S
C841 C840 1.400 . S
C841 C842 1.398 . S
C842 H830 0.950 . S
C842 C841 1.398 . S
C842 C843 1.391 . S
C843 H831 0.950 . S
C843 C839 1.393 . S
C843 C842 1.391 . S
H844 C852 0.950 . S
H845 C857 0.950 . S
H846 C854 0.950 . S
H847 C856 0.950 . S
H848 C858 0.950 . S
H849 C860 0.950 . S
H850 C862 0.950 . S
H851 C863 0.950 . S
C852 H844 0.950 . S
C852 C853 1.386 . S
C852 C854 1.391 . S
C853 C852 1.386 . S
C853 C857 1.393 . S
C854 H846 0.950 . S
C854 C852 1.391 . S
C854 C855 1.400 . S
C855 C854 1.400 . S
C855 C856 1.398 . S
C855 C861 1.491 . S
C856 H847 0.950 . S
C856 C855 1.398 . S
C856 C857 1.391 . S
C857 H845 0.950 . S
C857 C853 1.393 . S
C857 C856 1.391 . S
C858 H848 0.950 . S
C858 C859 1.386 . S
C858 C860 1.391 . S
C859 C858 1.386 . S
C859 C863 1.393 . S
C860 H849 0.950 . S
C860 C858 1.391 . S
C860 C861 1.400 . S
C861 C855 1.491 . S
C861 C860 1.400 . S
C861 C862 1.398 . S
C862 H850 0.950 . S
C862 C861 1.398 . S
C862 C863 1.391 . S
C863 H851 0.950 . S
C863 C859 1.393 . S
C863 C862 1.391 . S
H864 C872 0.950 . S
H865 C877 0.950 . S
H866 C874 0.950 1_545 S
H867 C876 0.950 1_554 S
H868 C878 0.950 . S
H869 C880 0.950 1_565 S
H870 C882 0.950 1_556 S
H871 C883 0.950 . S
C872 H864 0.950 . S
C872 C873 1.386 . S
C872 C874 1.391 . S
C873 C872 1.386 . S
C873 C877 1.393 . S
C874 H866 0.950 1_565 S
C874 C872 1.391 . S
C874 C875 1.400 . S
C875 C874 1.400 . S
C875 C876 1.398 . S
C875 C881 1.491 1_566 S
C876 H867 0.950 1_556 S
C876 C875 1.398 . S
C876 C877 1.391 . S
C877 H865 0.950 . S
C877 C873 1.393 . S
C877 C876 1.391 . S
C878 H868 0.950 . S
C878 C879 1.386 . S
C878 C880 1.391 . S
C879 C878 1.386 . S
C879 C883 1.393 . S
C880 H869 0.950 1_545 S
C880 C878 1.391 . S
C880 C881 1.400 . S
C881 C875 1.491 1_544 S
C881 C880 1.400 . S
C881 C882 1.398 . S
C882 H870 0.950 1_554 S
C882 C881 1.398 . S
C882 C883 1.391 . S
C883 H871 0.950 . S
C883 C879 1.393 . S
C883 C882 1.391 . S
H884 C892 0.950 . S
H885 C897 0.950 . S
H886 C894 1.013 . S
H887 C896 0.950 1_556 S
H888 C898 0.950 . S
H889 C900 1.013 . S
H890 C902 0.950 1_554 S
H891 C903 0.950 . S
C892 H884 0.950 . S
C892 C893 1.386 . S
C892 C894 1.355 1_655 S
C893 C892 1.386 . S
C893 C897 1.393 . S
C894 H886 1.013 . S
C894 C892 1.355 1_455 S
C894 C895 1.378 1_455 S
C895 C894 1.378 1_655 S
C895 C896 1.398 . S
C895 C901 1.491 1_654 S
C896 H887 0.950 1_554 S
C896 C895 1.398 . S
C896 C897 1.391 . S
C897 H885 0.950 . S
C897 C893 1.393 . S
C897 C896 1.391 . S
C898 H888 0.950 . S
C898 C899 1.386 . S
C898 C900 1.356 1_455 S
C899 C898 1.386 . S
C899 C903 1.393 . S
C900 H889 1.013 . S
C900 C898 1.356 1_655 S
C900 C901 1.378 1_655 S
C901 C895 1.491 1_456 S
C901 C900 1.378 1_455 S
C901 C902 1.398 . S
C902 H890 0.950 1_556 S
C902 C901 1.398 . S
C902 C903 1.391 . S
C903 H891 0.950 . S
C903 C899 1.393 . S
C903 C902 1.391 . S
H904 C912 0.950 . S
H905 C917 0.950 . S
H906 C914 0.950 . S
H907 C916 0.950 1_554 S
H908 C918 0.950 . S
H909 C920 0.950 . S
H910 C922 0.950 1_556 S
H911 C923 0.950 . S
C912 H904 0.950 . S
C912 C913 1.386 . S
C912 C914 1.391 . S
C913 C912 1.386 . S
C913 C917 1.393 . S
C914 H906 0.950 . S
C914 C912 1.391 . S
C914 C915 1.400 . S
C915 C914 1.400 . S
C915 C916 1.398 . S
C915 C921 1.491 1_556 S
C916 H907 0.950 1_556 S
C916 C915 1.398 . S
C916 C917 1.391 . S
C917 H905 0.950 . S
C917 C913 1.393 . S
C917 C916 1.391 . S
C918 H908 0.950 . S
C918 C919 1.386 . S
C918 C920 1.391 . S
C919 C918 1.386 . S
C919 C923 1.393 . S
C920 H909 0.950 . S
C920 C918 1.391 . S
C920 C921 1.400 . S
C921 C915 1.491 1_554 S
C921 C920 1.400 . S
C921 C922 1.398 . S
C922 H910 0.950 1_554 S
C922 C921 1.398 . S
C922 C923 1.391 . S
C923 H911 0.950 . S
C923 C919 1.393 . S
C923 C922 1.391 . S
H924 C932 0.950 . S
H925 C937 0.950 . S
H926 C934 0.950 . S
H927 C936 0.950 1_545 S
H928 C938 0.950 . S
H929 C940 0.950 . S
H930 C942 0.950 1_565 S
H931 C943 0.950 . S
C932 H924 0.950 . S
C932 C933 1.386 . S
C932 C934 1.391 . S
C933 C932 1.386 . S
C933 C937 1.393 . S
C934 H926 0.950 . S
C934 C932 1.391 . S
C934 C935 1.400 . S
C935 C934 1.400 . S
C935 C936 1.398 . S
C935 C941 1.491 1_566 S
C936 H927 0.950 1_565 S
C936 C935 1.398 . S
C936 C937 1.391 . S
C937 H925 0.950 . S
C937 C933 1.393 . S
C937 C936 1.391 . S
C938 H928 0.950 . S
C938 C939 1.386 . S
C938 C940 1.391 . S
C939 C938 1.386 . S
C939 C943 1.393 . S
C940 H929 0.950 . S
C940 C938 1.391 . S
C940 C941 1.400 . S
C941 C935 1.491 1_544 S
C941 C940 1.400 . S
C941 C942 1.398 . S
C942 H930 0.950 1_545 S
C942 C941 1.398 . S
C942 C943 1.391 . S
C943 H931 0.950 . S
C943 C939 1.393 . S
C943 C942 1.391 . S
H944 C952 0.950 . S
H945 C957 0.950 . S
H946 C954 0.950 1_554 S
H947 C956 0.916 1_655 S
H948 C958 0.950 . S
H949 C960 0.950 1_556 S
H950 C962 0.916 1_455 S
H951 C963 0.950 . S
C952 H944 0.950 . S
C952 C953 1.386 . S
C952 C954 1.391 . S
C953 C952 1.386 . S
C953 C957 1.393 . S
C954 H946 0.950 1_556 S
C954 C952 1.391 . S
C954 C955 1.400 . S
C955 C954 1.400 . S
C955 C956 1.399 . S
C955 C961 1.491 1_456 S
C956 H947 0.916 1_455 S
C956 C955 1.399 . S
C956 C957 1.427 . S
C957 H945 0.950 . S
C957 C953 1.393 . S
C957 C956 1.427 . S
C958 H948 0.950 . S
C958 C959 1.386 . S
C958 C960 1.391 . S
C959 C958 1.386 . S
C959 C963 1.393 . S
C960 H949 0.950 1_554 S
C960 C958 1.391 . S
C960 C961 1.400 . S
C961 C955 1.491 1_654 S
C961 C960 1.400 . S
C961 C962 1.399 . S
C962 H950 0.916 1_655 S
C962 C961 1.399 . S
C962 C963 1.427 . S
C963 H951 0.950 . S
C963 C959 1.393 . S
C963 C962 1.427 . S
H964 C972 0.950 . S
H965 C977 0.950 . S
H966 C974 0.950 . S
H967 C976 0.950 1_556 S
H968 C978 0.950 . S
H969 C980 0.950 . S
H970 C982 0.950 1_554 S
H971 C983 0.950 . S
C972 H964 0.950 . S
C972 C973 1.386 . S
C972 C974 1.391 . S
C973 C972 1.386 . S
C973 C977 1.393 . S
C974 H966 0.950 . S
C974 C972 1.391 . S
C974 C975 1.400 . S
C975 C974 1.400 . S
C975 C976 1.398 . S
C975 C981 1.491 1_554 S
C976 H967 0.950 1_554 S
C976 C975 1.398 . S
C976 C977 1.391 . S
C977 H965 0.950 . S
C977 C973 1.393 . S
C977 C976 1.391 . S
C978 H968 0.950 . S
C978 C979 1.386 . S
C978 C980 1.391 . S
C979 C978 1.386 . S
C979 C983 1.393 . S
C980 H969 0.950 . S
C980 C978 1.391 . S
C980 C981 1.400 . S
C981 C975 1.491 1_556 S
C981 C980 1.400 . S
C981 C982 1.398 . S
C982 H970 0.950 1_556 S
C982 C981 1.398 . S
C982 C983 1.391 . S
C983 H971 0.950 . S
C983 C979 1.393 . S
C983 C982 1.391 . S
H984 C992 0.950 . S
H985 C997 0.950 . S
H986 C994 0.950 . S
H987 C996 0.950 . S
H988 C998 0.950 . S
H989 C1000 0.950 . S
H990 C1002 0.950 . S
H991 C1003 0.950 . S
C992 H984 0.950 . S
C992 C993 1.386 . S
C992 C994 1.391 . S
C993 C992 1.386 . S
C993 C997 1.393 . S
C994 H986 0.950 . S
C994 C992 1.391 . S
C994 C995 1.400 . S
C995 C994 1.400 . S
C995 C996 1.398 . S
C995 C1001 1.491 . S
C996 H987 0.950 . S
C996 C995 1.398 . S
C996 C997 1.391 . S
C997 H985 0.950 . S
C997 C993 1.393 . S
C997 C996 1.391 . S
C998 H988 0.950 . S
C998 C999 1.386 . S
C998 C1000 1.391 . S
C999 C998 1.386 . S
C999 C1003 1.393 . S
C1000 H989 0.950 . S
C1000 C998 1.391 . S
C1000 C1001 1.400 . S
C1001 C995 1.491 . S
C1001 C1000 1.400 . S
C1001 C1002 1.398 . S
C1002 H990 0.950 . S
C1002 C1001 1.398 . S
C1002 C1003 1.391 . S
C1003 H991 0.950 . S
C1003 C999 1.393 . S
C1003 C1002 1.391 . S
H1004 C1012 0.950 . S
H1005 C1017 0.950 . S
H1006 C1014 0.950 . S
H1007 C1016 0.950 . S
H1008 C1018 0.950 . S
H1009 C1020 0.950 . S
H1010 C1022 0.950 . S
H1011 C1023 0.950 . S
C1012 H1004 0.950 . S
C1012 C1013 1.386 . S
C1012 C1014 1.391 . S
C1013 C1012 1.386 . S
C1013 C1017 1.393 . S
C1014 H1006 0.950 . S
C1014 C1012 1.391 . S
C1014 C1015 1.400 . S
C1015 C1014 1.400 . S
C1015 C1016 1.398 . S
C1015 C1021 1.491 . S
C1016 H1007 0.950 . S
C1016 C1015 1.398 . S
C1016 C1017 1.391 . S
C1017 H1005 0.950 . S
C1017 C1013 1.393 . S
C1017 C1016 1.391 . S
C1018 H1008 0.950 . S
C1018 C1019 1.386 . S
C1018 C1020 1.391 . S
C1019 C1018 1.386 . S
C1019 C1023 1.393 . S
C1020 H1009 0.950 . S
C1020 C1018 1.391 . S
C1020 C1021 1.400 . S
C1021 C1015 1.491 . S
C1021 C1020 1.400 . S
C1021 C1022 1.398 . S
C1022 H1010 0.950 . S
C1022 C1021 1.398 . S
C1022 C1023 1.391 . S
C1023 H1011 0.950 . S
C1023 C1019 1.393 . S
C1023 C1022 1.391 . S
H1024 C1032 0.950 . S
H1025 C1037 0.950 . S
H1026 C1034 0.950 . S
H1027 C1036 0.950 . S
H1028 C1038 0.950 . S
H1029 C1040 0.950 . S
H1030 C1042 0.950 . S
H1031 C1043 0.950 . S
C1032 H1024 0.950 . S
C1032 C1033 1.386 . S
C1032 C1034 1.391 . S
C1033 C1032 1.386 . S
C1033 C1037 1.393 . S
C1034 H1026 0.950 . S
C1034 C1032 1.391 . S
C1034 C1035 1.400 . S
C1035 C1034 1.400 . S
C1035 C1036 1.398 . S
C1035 C1041 1.491 . S
C1036 H1027 0.950 . S
C1036 C1035 1.398 . S
C1036 C1037 1.391 . S
C1037 H1025 0.950 . S
C1037 C1033 1.393 . S
C1037 C1036 1.391 . S
C1038 H1028 0.950 . S
C1038 C1039 1.386 . S
C1038 C1040 1.391 . S
C1039 C1038 1.386 . S
C1039 C1043 1.393 . S
C1040 H1029 0.950 . S
C1040 C1038 1.391 . S
C1040 C1041 1.400 . S
C1041 C1035 1.491 . S
C1041 C1040 1.400 . S
C1041 C1042 1.398 . S
C1042 H1030 0.950 . S
C1042 C1041 1.398 . S
C1042 C1043 1.391 . S
C1043 H1031 0.950 . S
C1043 C1039 1.393 . S
C1043 C1042 1.391 . S
H1044 C1052 0.950 . S
H1045 C1057 0.950 . S
H1046 C1054 0.950 . S
H1047 C1056 0.950 . S
H1048 C1058 0.950 . S
H1049 C1060 0.950 . S
H1050 C1062 0.950 . S
H1051 C1063 0.950 . S
C1052 H1044 0.950 . S
C1052 C1053 1.386 . S
C1052 C1054 1.391 . S
C1053 C1052 1.386 . S
C1053 C1057 1.393 . S
C1054 H1046 0.950 . S
C1054 C1052 1.391 . S
C1054 C1055 1.400 . S
C1055 C1054 1.400 . S
C1055 C1056 1.398 . S
C1055 C1061 1.491 . S
C1056 H1047 0.950 . S
C1056 C1055 1.398 . S
C1056 C1057 1.391 . S
C1057 H1045 0.950 . S
C1057 C1053 1.393 . S
C1057 C1056 1.391 . S
C1058 H1048 0.950 . S
C1058 C1059 1.386 . S
C1058 C1060 1.391 . S
C1059 C1058 1.386 . S
C1059 C1063 1.393 . S
C1060 H1049 0.950 . S
C1060 C1058 1.391 . S
C1060 C1061 1.400 . S
C1061 C1055 1.491 . S
C1061 C1060 1.400 . S
C1061 C1062 1.398 . S
C1062 H1050 0.950 . S
C1062 C1061 1.398 . S
C1062 C1063 1.391 . S
C1063 H1051 0.950 . S
C1063 C1059 1.393 . S
C1063 C1062 1.391 . S
H1064 C1072 0.950 . S
H1065 C1077 0.950 . S
H1066 C1074 0.950 . S
H1067 C1076 0.950 . S
H1068 C1078 0.950 . S
H1069 C1080 0.950 . S
H1070 C1082 0.950 . S
H1071 C1083 0.950 . S
C1072 H1064 0.950 . S
C1072 C1073 1.386 . S
C1072 C1074 1.391 . S
C1073 C1072 1.386 . S
C1073 C1077 1.393 . S
C1074 H1066 0.950 . S
C1074 C1072 1.391 . S
C1074 C1075 1.400 . S
C1075 C1074 1.400 . S
C1075 C1076 1.398 . S
C1075 C1081 1.491 . S
C1076 H1067 0.950 . S
C1076 C1075 1.398 . S
C1076 C1077 1.391 . S
C1077 H1065 0.950 . S
C1077 C1073 1.393 . S
C1077 C1076 1.391 . S
C1078 H1068 0.950 . S
C1078 C1079 1.386 . S
C1078 C1080 1.391 . S
C1079 C1078 1.386 . S
C1079 C1083 1.393 . S
C1080 H1069 0.950 . S
C1080 C1078 1.391 . S
C1080 C1081 1.400 . S
C1081 C1075 1.491 . S
C1081 C1080 1.400 . S
C1081 C1082 1.398 . S
C1082 H1070 0.950 . S
C1082 C1081 1.398 . S
C1082 C1083 1.391 . S
C1083 H1071 0.950 . S
C1083 C1079 1.393 . S
C1083 C1082 1.391 . S
H1084 C1092 0.950 . S
H1085 C1097 0.950 . S
H1086 C1094 0.950 . S
H1087 C1096 0.950 . S
H1088 C1098 0.950 . S
H1089 C1100 0.950 . S
H1090 C1102 0.950 . S
H1091 C1103 0.950 . S
C1092 H1084 0.950 . S
C1092 C1093 1.386 . S
C1092 C1094 1.391 . S
C1093 C1092 1.386 . S
C1093 C1097 1.393 . S
C1094 H1086 0.950 . S
C1094 C1092 1.391 . S
C1094 C1095 1.400 . S
C1095 C1094 1.400 . S
C1095 C1096 1.398 . S
C1095 C1101 1.491 . S
C1096 H1087 0.950 . S
C1096 C1095 1.398 . S
C1096 C1097 1.391 . S
C1097 H1085 0.950 . S
C1097 C1093 1.393 . S
C1097 C1096 1.391 . S
C1098 H1088 0.950 . S
C1098 C1099 1.386 . S
C1098 C1100 1.391 . S
C1099 C1098 1.386 . S
C1099 C1103 1.393 . S
C1100 H1089 0.950 . S
C1100 C1098 1.391 . S
C1100 C1101 1.400 . S
C1101 C1095 1.491 . S
C1101 C1100 1.400 . S
C1101 C1102 1.398 . S
C1102 H1090 0.950 . S
C1102 C1101 1.398 . S
C1102 C1103 1.391 . S
C1103 H1091 0.950 . S
C1103 C1099 1.393 . S
C1103 C1102 1.391 . S
H1104 C1112 0.950 . S
H1105 C1117 0.950 . S
H1106 C1114 0.950 . S
H1107 C1116 0.950 . S
H1108 C1118 0.950 . S
H1109 C1120 0.950 . S
H1110 C1122 0.950 . S
H1111 C1123 0.950 . S
C1112 H1104 0.950 . S
C1112 C1113 1.386 . S
C1112 C1114 1.391 . S
C1113 C1112 1.386 . S
C1113 C1117 1.393 . S
C1114 H1106 0.950 . S
C1114 C1112 1.391 . S
C1114 C1115 1.400 . S
C1115 C1114 1.400 . S
C1115 C1116 1.398 . S
C1115 C1121 1.491 . S
C1116 H1107 0.950 . S
C1116 C1115 1.398 . S
C1116 C1117 1.391 . S
C1117 H1105 0.950 . S
C1117 C1113 1.393 . S
C1117 C1116 1.391 . S
C1118 H1108 0.950 . S
C1118 C1119 1.386 . S
C1118 C1120 1.391 . S
C1119 C1118 1.386 . S
C1119 C1123 1.393 . S
C1120 H1109 0.950 . S
C1120 C1118 1.391 . S
C1120 C1121 1.400 . S
C1121 C1115 1.491 . S
C1121 C1120 1.400 . S
C1121 C1122 1.398 . S
C1122 H1110 0.950 . S
C1122 C1121 1.398 . S
C1122 C1123 1.391 . S
C1123 H1111 0.950 . S
C1123 C1119 1.393 . S
C1123 C1122 1.391 . S
H1124 C1132 0.950 . S
H1125 C1137 0.950 . S
H1126 C1134 0.950 . S
H1127 C1136 0.950 . S
H1128 C1138 0.950 . S
H1129 C1140 0.950 . S
H1130 C1142 0.950 . S
H1131 C1143 0.950 . S
C1132 H1124 0.950 . S
C1132 C1133 1.386 . S
C1132 C1134 1.391 . S
C1133 C1132 1.386 . S
C1133 C1137 1.393 . S
C1134 H1126 0.950 . S
C1134 C1132 1.391 . S
C1134 C1135 1.400 . S
C1135 C1134 1.400 . S
C1135 C1136 1.398 . S
C1135 C1141 1.491 . S
C1136 H1127 0.950 . S
C1136 C1135 1.398 . S
C1136 C1137 1.391 . S
C1137 H1125 0.950 . S
C1137 C1133 1.393 . S
C1137 C1136 1.391 . S
C1138 H1128 0.950 . S
C1138 C1139 1.386 . S
C1138 C1140 1.391 . S
C1139 C1138 1.386 . S
C1139 C1143 1.393 . S
C1140 H1129 0.950 . S
C1140 C1138 1.391 . S
C1140 C1141 1.400 . S
C1141 C1135 1.491 . S
C1141 C1140 1.400 . S
C1141 C1142 1.398 . S
C1142 H1130 0.950 . S
C1142 C1141 1.398 . S
C1142 C1143 1.391 . S
C1143 H1131 0.950 . S
C1143 C1139 1.393 . S
C1143 C1142 1.391 . S
H1144 C1152 0.950 . S
H1145 C1157 0.950 . S
H1146 C1154 0.950 . S
H1147 C1156 0.950 . S
H1148 C1158 0.950 . S
H1149 C1160 0.950 . S
H1150 C1162 0.950 . S
H1151 C1163 0.950 . S
C1152 H1144 0.950 . S
C1152 C1153 1.386 . S
C1152 C1154 1.391 . S
C1153 C1152 1.386 . S
C1153 C1157 1.393 . S
C1154 H1146 0.950 . S
C1154 C1152 1.391 . S
C1154 C1155 1.400 . S
C1155 C1154 1.400 . S
C1155 C1156 1.398 . S
C1155 C1161 1.491 . S
C1156 H1147 0.950 . S
C1156 C1155 1.398 . S
C1156 C1157 1.391 . S
C1157 H1145 0.950 . S
C1157 C1153 1.393 . S
C1157 C1156 1.391 . S
C1158 H1148 0.950 . S
C1158 C1159 1.386 . S
C1158 C1160 1.391 . S
C1159 C1158 1.386 . S
C1159 C1163 1.393 . S
C1160 H1149 0.950 . S
C1160 C1158 1.391 . S
C1160 C1161 1.400 . S
C1161 C1155 1.491 . S
C1161 C1160 1.400 . S
C1161 C1162 1.398 . S
C1162 H1150 0.950 . S
C1162 C1161 1.398 . S
C1162 C1163 1.391 . S
C1163 H1151 0.950 . S
C1163 C1159 1.393 . S
C1163 C1162 1.391 . S
H1164 C1172 0.950 . S
H1165 C1177 0.950 . S
H1166 C1174 0.950 . S
H1167 C1176 0.950 . S
H1168 C1178 0.950 . S
H1169 C1180 0.950 . S
H1170 C1182 0.950 . S
H1171 C1183 0.950 . S
C1172 H1164 0.950 . S
C1172 C1173 1.386 . S
C1172 C1174 1.391 . S
C1173 C1172 1.386 . S
C1173 C1177 1.393 . S
C1174 H1166 0.950 . S
C1174 C1172 1.391 . S
C1174 C1175 1.400 . S
C1175 C1174 1.400 . S
C1175 C1176 1.398 . S
C1175 C1181 1.491 . S
C1176 H1167 0.950 . S
C1176 C1175 1.398 . S
C1176 C1177 1.391 . S
C1177 H1165 0.950 . S
C1177 C1173 1.393 . S
C1177 C1176 1.391 . S
C1178 H1168 0.950 . S
C1178 C1179 1.386 . S
C1178 C1180 1.391 . S
C1179 C1178 1.386 . S
C1179 C1183 1.393 . S
C1180 H1169 0.950 . S
C1180 C1178 1.391 . S
C1180 C1181 1.400 . S
C1181 C1175 1.491 . S
C1181 C1180 1.400 . S
C1181 C1182 1.398 . S
C1182 H1170 0.950 . S
C1182 C1181 1.398 . S
C1182 C1183 1.391 . S
C1183 H1171 0.950 . S
C1183 C1179 1.393 . S
C1183 C1182 1.391 . S
H1184 C1192 0.950 . S
H1185 C1197 0.950 . S
H1186 C1194 0.950 . S
H1187 C1196 0.950 . S
H1188 C1198 0.950 . S
H1189 C1200 0.950 . S
H1190 C1202 0.950 . S
H1191 C1203 0.950 . S
C1192 H1184 0.950 . S
C1192 C1193 1.386 . S
C1192 C1194 1.391 . S
C1193 C1192 1.386 . S
C1193 C1197 1.393 . S
C1194 H1186 0.950 . S
C1194 C1192 1.391 . S
C1194 C1195 1.400 . S
C1195 C1194 1.400 . S
C1195 C1196 1.398 . S
C1195 C1201 1.491 . S
C1196 H1187 0.950 . S
C1196 C1195 1.398 . S
C1196 C1197 1.391 . S
C1197 H1185 0.950 . S
C1197 C1193 1.393 . S
C1197 C1196 1.391 . S
C1198 H1188 0.950 . S
C1198 C1199 1.386 . S
C1198 C1200 1.391 . S
C1199 C1198 1.386 . S
C1199 C1203 1.393 . S
C1200 H1189 0.950 . S
C1200 C1198 1.391 . S
C1200 C1201 1.400 . S
C1201 C1195 1.491 . S
C1201 C1200 1.400 . S
C1201 C1202 1.398 . S
C1202 H1190 0.950 . S
C1202 C1201 1.398 . S
C1202 C1203 1.391 . S
C1203 H1191 0.950 . S
C1203 C1199 1.393 . S
C1203 C1202 1.391 . S
H1204 C1212 0.950 . S
H1205 C1217 0.950 . S
H1206 C1214 0.950 . S
H1207 C1216 0.950 . S
H1208 C1218 0.950 . S
H1209 C1220 0.950 . S
H1210 C1222 0.950 . S
H1211 C1223 0.950 . S
C1212 H1204 0.950 . S
C1212 C1213 1.386 . S
C1212 C1214 1.391 . S
C1213 C1212 1.386 . S
C1213 C1217 1.393 . S
C1214 H1206 0.950 . S
C1214 C1212 1.391 . S
C1214 C1215 1.400 . S
C1215 C1214 1.400 . S
C1215 C1216 1.398 . S
C1215 C1221 1.491 . S
C1216 H1207 0.950 . S
C1216 C1215 1.398 . S
C1216 C1217 1.391 . S
C1217 H1205 0.950 . S
C1217 C1213 1.393 . S
C1217 C1216 1.391 . S
C1218 H1208 0.950 . S
C1218 C1219 1.386 . S
C1218 C1220 1.391 . S
C1219 C1218 1.386 . S
C1219 C1223 1.393 . S
C1220 H1209 0.950 . S
C1220 C1218 1.391 . S
C1220 C1221 1.400 . S
C1221 C1215 1.491 . S
C1221 C1220 1.400 . S
C1221 C1222 1.398 . S
C1222 H1210 0.950 . S
C1222 C1221 1.398 . S
C1222 C1223 1.391 . S
C1223 H1211 0.950 . S
C1223 C1219 1.393 . S
C1223 C1222 1.391 . S
H1224 C1232 0.950 . S
H1225 C1237 0.950 . S
H1226 C1234 0.950 . S
H1227 C1236 0.950 . S
H1228 C1238 0.950 . S
H1229 C1240 0.950 . S
H1230 C1242 0.950 . S
H1231 C1243 0.950 . S
C1232 H1224 0.950 . S
C1232 C1233 1.386 . S
C1232 C1234 1.391 . S
C1233 C1232 1.386 . S
C1233 C1237 1.393 . S
C1234 H1226 0.950 . S
C1234 C1232 1.391 . S
C1234 C1235 1.400 . S
C1235 C1234 1.400 . S
C1235 C1236 1.398 . S
C1235 C1241 1.491 . S
C1236 H1227 0.950 . S
C1236 C1235 1.398 . S
C1236 C1237 1.391 . S
C1237 H1225 0.950 . S
C1237 C1233 1.393 . S
C1237 C1236 1.391 . S
C1238 H1228 0.950 . S
C1238 C1239 1.386 . S
C1238 C1240 1.391 . S
C1239 C1238 1.386 . S
C1239 C1243 1.393 . S
C1240 H1229 0.950 . S
C1240 C1238 1.391 . S
C1240 C1241 1.400 . S
C1241 C1235 1.491 . S
C1241 C1240 1.400 . S
C1241 C1242 1.398 . S
C1242 H1230 0.950 . S
C1242 C1241 1.398 . S
C1242 C1243 1.391 . S
C1243 H1231 0.950 . S
C1243 C1239 1.393 . S
C1243 C1242 1.391 . S
H1244 C1252 0.950 . S
H1245 C1257 0.950 . S
H1246 C1254 0.950 . S
H1247 C1256 0.950 . S
H1248 C1258 0.950 . S
H1249 C1260 0.950 . S
H1250 C1262 0.950 . S
H1251 C1263 0.950 . S
C1252 H1244 0.950 . S
C1252 C1253 1.386 . S
C1252 C1254 1.391 . S
C1253 C1252 1.386 . S
C1253 C1257 1.393 . S
C1254 H1246 0.950 . S
C1254 C1252 1.391 . S
C1254 C1255 1.400 . S
C1255 C1254 1.400 . S
C1255 C1256 1.398 . S
C1255 C1261 1.491 . S
C1256 H1247 0.950 . S
C1256 C1255 1.398 . S
C1256 C1257 1.391 . S
C1257 H1245 0.950 . S
C1257 C1253 1.393 . S
C1257 C1256 1.391 . S
C1258 H1248 0.950 . S
C1258 C1259 1.386 . S
C1258 C1260 1.391 . S
C1259 C1258 1.386 . S
C1259 C1263 1.393 . S
C1260 H1249 0.950 . S
C1260 C1258 1.391 . S
C1260 C1261 1.400 . S
C1261 C1255 1.491 . S
C1261 C1260 1.400 . S
C1261 C1262 1.398 . S
C1262 H1250 0.950 . S
C1262 C1261 1.398 . S
C1262 C1263 1.391 . S
C1263 H1251 0.950 . S
C1263 C1259 1.393 . S
C1263 C1262 1.391 . S
H1264 C1272 0.950 . S
H1265 C1277 0.950 . S
H1266 C1274 0.950 . S
H1267 C1276 0.950 . S
H1268 C1278 0.950 . S
H1269 C1280 0.950 . S
H1270 C1282 0.950 . S
H1271 C1283 0.950 . S
C1272 H1264 0.950 . S
C1272 C1273 1.386 . S
C1272 C1274 1.391 . S
C1273 C1272 1.386 . S
C1273 C1277 1.393 . S
C1274 H1266 0.950 . S
C1274 C1272 1.391 . S
C1274 C1275 1.400 . S
C1275 C1274 1.400 . S
C1275 C1276 1.398 . S
C1275 C1281 1.491 . S
C1276 H1267 0.950 . S
C1276 C1275 1.398 . S
C1276 C1277 1.391 . S
C1277 H1265 0.950 . S
C1277 C1273 1.393 . S
C1277 C1276 1.391 . S
C1278 H1268 0.950 . S
C1278 C1279 1.386 . S
C1278 C1280 1.391 . S
C1279 C1278 1.386 . S
C1279 C1283 1.393 . S
C1280 H1269 0.950 . S
C1280 C1278 1.391 . S
C1280 C1281 1.400 . S
C1281 C1275 1.491 . S
C1281 C1280 1.400 . S
C1281 C1282 1.398 . S
C1282 H1270 0.950 . S
C1282 C1281 1.398 . S
C1282 C1283 1.391 . S
C1283 H1271 0.950 . S
C1283 C1279 1.393 . S
C1283 C1282 1.391 . S
H1284 C1292 0.950 . S
H1285 C1297 0.950 . S
H1286 C1294 0.950 . S
H1287 C1296 0.950 . S
H1288 C1298 0.950 . S
H1289 C1300 0.950 . S
H1290 C1302 0.950 . S
H1291 C1303 0.950 . S
C1292 H1284 0.950 . S
C1292 C1293 1.386 . S
C1292 C1294 1.391 . S
C1293 C1292 1.386 . S
C1293 C1297 1.393 . S
C1294 H1286 0.950 . S
C1294 C1292 1.391 . S
C1294 C1295 1.400 . S
C1295 C1294 1.400 . S
C1295 C1296 1.398 . S
C1295 C1301 1.491 . S
C1296 H1287 0.950 . S
C1296 C1295 1.398 . S
C1296 C1297 1.391 . S
C1297 H1285 0.950 . S
C1297 C1293 1.393 . S
C1297 C1296 1.391 . S
C1298 H1288 0.950 . S
C1298 C1299 1.386 . S
C1298 C1300 1.391 . S
C1299 C1298 1.386 . S
C1299 C1303 1.393 . S
C1300 H1289 0.950 . S
C1300 C1298 1.391 . S
C1300 C1301 1.400 . S
C1301 C1295 1.491 . S
C1301 C1300 1.400 . S
C1301 C1302 1.398 . S
C1302 H1290 0.950 . S
C1302 C1301 1.398 . S
C1302 C1303 1.391 . S
C1303 H1291 0.950 . S
C1303 C1299 1.393 . S
C1303 C1302 1.391 . S
H1304 C1312 0.950 . S
H1305 C1317 0.950 . S
H1306 C1314 0.950 . S
H1307 C1316 0.950 . S
H1308 C1318 0.950 . S
H1309 C1320 0.950 . S
H1310 C1322 0.950 . S
H1311 C1323 0.950 . S
C1312 H1304 0.950 . S
C1312 C1313 1.386 . S
C1312 C1314 1.391 . S
C1313 C1312 1.386 . S
C1313 C1317 1.393 . S
C1314 H1306 0.950 . S
C1314 C1312 1.391 . S
C1314 C1315 1.400 . S
C1315 C1314 1.400 . S
C1315 C1316 1.398 . S
C1315 C1321 1.491 . S
C1316 H1307 0.950 . S
C1316 C1315 1.398 . S
C1316 C1317 1.391 . S
C1317 H1305 0.950 . S
C1317 C1313 1.393 . S
C1317 C1316 1.391 . S
C1318 H1308 0.950 . S
C1318 C1319 1.386 . S
C1318 C1320 1.391 . S
C1319 C1318 1.386 . S
C1319 C1323 1.393 . S
C1320 H1309 0.950 . S
C1320 C1318 1.391 . S
C1320 C1321 1.400 . S
C1321 C1315 1.491 . S
C1321 C1320 1.400 . S
C1321 C1322 1.398 . S
C1322 H1310 0.950 . S
C1322 C1321 1.398 . S
C1322 C1323 1.391 . S
C1323 H1311 0.950 . S
C1323 C1319 1.393 . S
C1323 C1322 1.391 . S
H1324 C1332 0.950 . S
H1325 C1337 0.950 . S
H1326 C1334 0.950 . S
H1327 C1336 0.950 . S
H1328 C1338 0.950 . S
H1329 C1340 0.950 . S
H1330 C1342 0.950 . S
H1331 C1343 0.950 . S
C1332 H1324 0.950 . S
C1332 C1333 1.386 . S
C1332 C1334 1.391 . S
C1333 C1332 1.386 . S
C1333 C1337 1.393 . S
C1334 H1326 0.950 . S
C1334 C1332 1.391 . S
C1334 C1335 1.400 . S
C1335 C1334 1.400 . S
C1335 C1336 1.398 . S
C1335 C1341 1.491 . S
C1336 H1327 0.950 . S
C1336 C1335 1.398 . S
C1336 C1337 1.391 . S
C1337 H1325 0.950 . S
C1337 C1333 1.393 . S
C1337 C1336 1.391 . S
C1338 H1328 0.950 . S
C1338 C1339 1.386 . S
C1338 C1340 1.391 . S
C1339 C1338 1.386 . S
C1339 C1343 1.393 . S
C1340 H1329 0.950 . S
C1340 C1338 1.391 . S
C1340 C1341 1.400 . S
C1341 C1335 1.491 . S
C1341 C1340 1.400 . S
C1341 C1342 1.398 . S
C1342 H1330 0.950 . S
C1342 C1341 1.398 . S
C1342 C1343 1.391 . S
C1343 H1331 0.950 . S
C1343 C1339 1.393 . S
C1343 C1342 1.391 . S
H1344 C1352 0.950 . S
H1345 C1357 0.950 . S
H1346 C1354 0.950 . S
H1347 C1356 0.950 . S
H1348 C1358 0.950 . S
H1349 C1360 0.950 . S
H1350 C1362 0.950 . S
H1351 C1363 0.950 . S
C1352 H1344 0.950 . S
C1352 C1353 1.386 . S
C1352 C1354 1.391 . S
C1353 C1352 1.386 . S
C1353 C1357 1.393 . S
C1354 H1346 0.950 . S
C1354 C1352 1.391 . S
C1354 C1355 1.400 . S
C1355 C1354 1.400 . S
C1355 C1356 1.398 . S
C1355 C1361 1.491 . S
C1356 H1347 0.950 . S
C1356 C1355 1.398 . S
C1356 C1357 1.391 . S
C1357 H1345 0.950 . S
C1357 C1353 1.393 . S
C1357 C1356 1.391 . S
C1358 H1348 0.950 . S
C1358 C1359 1.386 . S
C1358 C1360 1.391 . S
C1359 C1358 1.386 . S
C1359 C1363 1.393 . S
C1360 H1349 0.950 . S
C1360 C1358 1.391 . S
C1360 C1361 1.400 . S
C1361 C1355 1.491 . S
C1361 C1360 1.400 . S
C1361 C1362 1.398 . S
C1362 H1350 0.950 . S
C1362 C1361 1.398 . S
C1362 C1363 1.391 . S
C1363 H1351 0.950 . S
C1363 C1359 1.393 . S
C1363 C1362 1.391 . S
H1364 C1372 0.950 . S
H1365 C1377 0.950 . S
H1366 C1374 0.950 . S
H1367 C1376 0.950 . S
H1368 C1378 0.950 . S
H1369 C1380 0.950 . S
H1370 C1382 0.950 . S
H1371 C1383 0.950 . S
C1372 H1364 0.950 . S
C1372 C1373 1.386 . S
C1372 C1374 1.391 . S
C1373 C1372 1.386 . S
C1373 C1377 1.393 . S
C1374 H1366 0.950 . S
C1374 C1372 1.391 . S
C1374 C1375 1.400 . S
C1375 C1374 1.400 . S
C1375 C1376 1.398 . S
C1375 C1381 1.491 . S
C1376 H1367 0.950 . S
C1376 C1375 1.398 . S
C1376 C1377 1.391 . S
C1377 H1365 0.950 . S
C1377 C1373 1.393 . S
C1377 C1376 1.391 . S
C1378 H1368 0.950 . S
C1378 C1379 1.386 . S
C1378 C1380 1.391 . S
C1379 C1378 1.386 . S
C1379 C1383 1.393 . S
C1380 H1369 0.950 . S
C1380 C1378 1.391 . S
C1380 C1381 1.400 . S
C1381 C1375 1.491 . S
C1381 C1380 1.400 . S
C1381 C1382 1.398 . S
C1382 H1370 0.950 . S
C1382 C1381 1.398 . S
C1382 C1383 1.391 . S
C1383 H1371 0.950 . S
C1383 C1379 1.393 . S
C1383 C1382 1.391 . S
H1384 C1392 0.950 . S
H1385 C1397 0.950 . S
H1386 C1394 0.950 . S
H1387 C1396 0.950 . S
H1388 C1398 0.950 . S
H1389 C1400 0.950 . S
H1390 C1402 0.950 . S
H1391 C1403 0.950 . S
C1392 H1384 0.950 . S
C1392 C1393 1.386 . S
C1392 C1394 1.391 . S
C1393 C1392 1.386 . S
C1393 C1397 1.393 . S
C1394 H1386 0.950 . S
C1394 C1392 1.391 . S
C1394 C1395 1.400 . S
C1395 C1394 1.400 . S
C1395 C1396 1.398 . S
C1395 C1401 1.491 . S
C1396 H1387 0.950 . S
C1396 C1395 1.398 . S
C1396 C1397 1.391 . S
C1397 H1385 0.950 . S
C1397 C1393 1.393 . S
C1397 C1396 1.391 . S
C1398 H1388 0.950 . S
C1398 C1399 1.386 . S
C1398 C1400 1.391 . S
C1399 C1398 1.386 . S
C1399 C1403 1.393 . S
C1400 H1389 0.950 . S
C1400 C1398 1.391 . S
C1400 C1401 1.400 . S
C1401 C1395 1.491 . S
C1401 C1400 1.400 . S
C1401 C1402 1.398 . S
C1402 H1390 0.950 . S
C1402 C1401 1.398 . S
C1402 C1403 1.391 . S
C1403 H1391 0.950 . S
C1403 C1399 1.393 . S
C1403 C1402 1.391 . S
H1404 C1412 0.950 . S
H1405 C1417 0.950 . S
H1406 C1414 0.950 . S
H1407 C1416 0.950 . S
H1408 C1418 0.950 . S
H1409 C1420 0.950 . S
H1410 C1422 0.950 . S
H1411 C1423 0.950 . S
C1412 H1404 0.950 . S
C1412 C1413 1.386 . S
C1412 C1414 1.391 . S
C1413 C1412 1.386 . S
C1413 C1417 1.393 . S
C1414 H1406 0.950 . S
C1414 C1412 1.391 . S
C1414 C1415 1.400 . S
C1415 C1414 1.400 . S
C1415 C1416 1.398 . S
C1415 C1421 1.491 . S
C1416 H1407 0.950 . S
C1416 C1415 1.398 . S
C1416 C1417 1.391 . S
C1417 H1405 0.950 . S
C1417 C1413 1.393 . S
C1417 C1416 1.391 . S
C1418 H1408 0.950 . S
C1418 C1419 1.386 . S
C1418 C1420 1.391 . S
C1419 C1418 1.386 . S
C1419 C1423 1.393 . S
C1420 H1409 0.950 . S
C1420 C1418 1.391 . S
C1420 C1421 1.400 . S
C1421 C1415 1.491 . S
C1421 C1420 1.400 . S
C1421 C1422 1.398 . S
C1422 H1410 0.950 . S
C1422 C1421 1.398 . S
C1422 C1423 1.391 . S
C1423 H1411 0.950 . S
C1423 C1419 1.393 . S
C1423 C1422 1.391 . S
H1424 C1432 0.950 . S
H1425 C1437 0.950 . S
H1426 C1434 0.950 . S
H1427 C1436 0.950 . S
H1428 C1438 0.950 . S
H1429 C1440 0.950 . S
H1430 C1442 0.950 . S
H1431 C1443 0.950 . S
C1432 H1424 0.950 . S
C1432 C1433 1.386 . S
C1432 C1434 1.391 . S
C1433 C1432 1.386 . S
C1433 C1437 1.393 . S
C1434 H1426 0.950 . S
C1434 C1432 1.391 . S
C1434 C1435 1.400 . S
C1435 C1434 1.400 . S
C1435 C1436 1.398 . S
C1435 C1441 1.491 . S
C1436 H1427 0.950 . S
C1436 C1435 1.398 . S
C1436 C1437 1.391 . S
C1437 H1425 0.950 . S
C1437 C1433 1.393 . S
C1437 C1436 1.391 . S
C1438 H1428 0.950 . S
C1438 C1439 1.386 . S
C1438 C1440 1.391 . S
C1439 C1438 1.386 . S
C1439 C1443 1.393 . S
C1440 H1429 0.950 . S
C1440 C1438 1.391 . S
C1440 C1441 1.400 . S
C1441 C1435 1.491 . S
C1441 C1440 1.400 . S
C1441 C1442 1.398 . S
C1442 H1430 0.950 . S
C1442 C1441 1.398 . S
C1442 C1443 1.391 . S
C1443 H1431 0.950 . S
C1443 C1439 1.393 . S
C1443 C1442 1.391 . S
H1444 C1452 0.950 . S
H1445 C1457 0.950 . S
H1446 C1454 0.950 . S
H1447 C1456 0.950 . S
H1448 C1458 0.950 . S
H1449 C1460 0.950 . S
H1450 C1462 0.950 . S
H1451 C1463 0.950 . S
C1452 H1444 0.950 . S
C1452 C1453 1.386 . S
C1452 C1454 1.391 . S
C1453 C1452 1.386 . S
C1453 C1457 1.393 . S
C1454 H1446 0.950 . S
C1454 C1452 1.391 . S
C1454 C1455 1.400 . S
C1455 C1454 1.400 . S
C1455 C1456 1.398 . S
C1455 C1461 1.491 . S
C1456 H1447 0.950 . S
C1456 C1455 1.398 . S
C1456 C1457 1.391 . S
C1457 H1445 0.950 . S
C1457 C1453 1.393 . S
C1457 C1456 1.391 . S
C1458 H1448 0.950 . S
C1458 C1459 1.386 . S
C1458 C1460 1.391 . S
C1459 C1458 1.386 . S
C1459 C1463 1.393 . S
C1460 H1449 0.950 . S
C1460 C1458 1.391 . S
C1460 C1461 1.400 . S
C1461 C1455 1.491 . S
C1461 C1460 1.400 . S
C1461 C1462 1.398 . S
C1462 H1450 0.950 . S
C1462 C1461 1.398 . S
C1462 C1463 1.391 . S
C1463 H1451 0.950 . S
C1463 C1459 1.393 . S
C1463 C1462 1.391 . S
H1464 C1472 0.950 . S
H1465 C1477 0.950 . S
H1466 C1474 0.950 . S
H1467 C1476 0.950 . S
H1468 C1478 0.950 . S
H1469 C1480 0.950 . S
H1470 C1482 0.950 . S
H1471 C1483 0.950 . S
C1472 H1464 0.950 . S
C1472 C1473 1.386 . S
C1472 C1474 1.391 . S
C1473 C1472 1.386 . S
C1473 C1477 1.393 . S
C1474 H1466 0.950 . S
C1474 C1472 1.391 . S
C1474 C1475 1.400 . S
C1475 C1474 1.400 . S
C1475 C1476 1.398 . S
C1475 C1481 1.491 1_455 S
C1476 H1467 0.950 . S
C1476 C1475 1.398 . S
C1476 C1477 1.391 . S
C1477 H1465 0.950 . S
C1477 C1473 1.393 . S
C1477 C1476 1.391 . S
C1478 H1468 0.950 . S
C1478 C1479 1.386 . S
C1478 C1480 1.391 . S
C1479 C1478 1.386 . S
C1479 C1483 1.393 . S
C1480 H1469 0.950 . S
C1480 C1478 1.391 . S
C1480 C1481 1.400 . S
C1481 C1475 1.491 1_655 S
C1481 C1480 1.400 . S
C1481 C1482 1.398 . S
C1482 H1470 0.950 . S
C1482 C1481 1.398 . S
C1482 C1483 1.391 . S
C1483 H1471 0.950 . S
C1483 C1479 1.393 . S
C1483 C1482 1.391 . S
H1484 C1492 0.950 . S
H1485 C1497 0.950 . S
H1486 C1494 0.950 . S
H1487 C1496 0.950 . S
H1488 C1498 0.950 . S
H1489 C1500 0.950 . S
H1490 C1502 0.950 . S
H1491 C1503 0.950 . S
C1492 H1484 0.950 . S
C1492 C1493 1.386 . S
C1492 C1494 1.391 . S
C1493 C1492 1.386 . S
C1493 C1497 1.393 . S
C1494 H1486 0.950 . S
C1494 C1492 1.391 . S
C1494 C1495 1.400 . S
C1495 C1494 1.400 . S
C1495 C1496 1.398 . S
C1495 C1501 1.491 . S
C1496 H1487 0.950 . S
C1496 C1495 1.398 . S
C1496 C1497 1.391 . S
C1497 H1485 0.950 . S
C1497 C1493 1.393 . S
C1497 C1496 1.391 . S
C1498 H1488 0.950 . S
C1498 C1499 1.386 . S
C1498 C1500 1.391 . S
C1499 C1498 1.386 . S
C1499 C1503 1.393 . S
C1500 H1489 0.950 . S
C1500 C1498 1.391 . S
C1500 C1501 1.400 . S
C1501 C1495 1.491 . S
C1501 C1500 1.400 . S
C1501 C1502 1.398 . S
C1502 H1490 0.950 . S
C1502 C1501 1.398 . S
C1502 C1503 1.391 . S
C1503 H1491 0.950 . S
C1503 C1499 1.393 . S
C1503 C1502 1.391 . S
H1504 C1512 0.950 . S
H1505 C1517 0.950 . S
H1506 C1514 0.950 . S
H1507 C1516 0.950 . S
H1508 C1518 0.950 . S
H1509 C1520 0.950 . S
H1510 C1522 0.950 . S
H1511 C1523 0.950 . S
C1512 H1504 0.950 . S
C1512 C1513 1.386 . S
C1512 C1514 1.391 . S
C1513 C1512 1.386 . S
C1513 C1517 1.393 . S
C1514 H1506 0.950 . S
C1514 C1512 1.391 . S
C1514 C1515 1.400 . S
C1515 C1514 1.400 . S
C1515 C1516 1.398 . S
C1515 C1521 1.491 1_545 S
C1516 H1507 0.950 . S
C1516 C1515 1.398 . S
C1516 C1517 1.391 . S
C1517 H1505 0.950 . S
C1517 C1513 1.393 . S
C1517 C1516 1.391 . S
C1518 H1508 0.950 . S
C1518 C1519 1.386 . S
C1518 C1520 1.391 . S
C1519 C1518 1.386 . S
C1519 C1523 1.393 . S
C1520 H1509 0.950 . S
C1520 C1518 1.391 . S
C1520 C1521 1.400 . S
C1521 C1515 1.491 1_565 S
C1521 C1520 1.400 . S
C1521 C1522 1.398 . S
C1522 H1510 0.950 . S
C1522 C1521 1.398 . S
C1522 C1523 1.391 . S
C1523 H1511 0.950 . S
C1523 C1519 1.393 . S
C1523 C1522 1.391 . S
H1524 C1532 0.950 . S
H1525 C1537 0.950 . S
H1526 C1534 0.950 . S
H1527 C1536 0.950 . S
H1528 C1538 0.950 . S
H1529 C1540 0.950 . S
H1530 C1542 0.950 . S
H1531 C1543 0.950 . S
C1532 H1524 0.950 . S
C1532 C1533 1.386 . S
C1532 C1534 1.391 . S
C1533 C1532 1.386 . S
C1533 C1537 1.393 . S
C1534 H1526 0.950 . S
C1534 C1532 1.391 . S
C1534 C1535 1.400 . S
C1535 C1534 1.400 . S
C1535 C1536 1.398 . S
C1535 C1541 1.491 1_545 S
C1536 H1527 0.950 . S
C1536 C1535 1.398 . S
C1536 C1537 1.391 . S
C1537 H1525 0.950 . S
C1537 C1533 1.393 . S
C1537 C1536 1.391 . S
C1538 H1528 0.950 . S
C1538 C1539 1.386 . S
C1538 C1540 1.391 . S
C1539 C1538 1.386 . S
C1539 C1543 1.393 . S
C1540 H1529 0.950 . S
C1540 C1538 1.391 . S
C1540 C1541 1.400 . S
C1541 C1535 1.491 1_565 S
C1541 C1540 1.400 . S
C1541 C1542 1.398 . S
C1542 H1530 0.950 . S
C1542 C1541 1.398 . S
C1542 C1543 1.391 . S
C1543 H1531 0.950 . S
C1543 C1539 1.393 . S
C1543 C1542 1.391 . S
H1544 C1552 0.950 . S
H1545 C1557 0.950 . S
H1546 C1554 0.950 . S
H1547 C1556 0.950 . S
H1548 C1558 0.950 . S
H1549 C1560 0.950 . S
H1550 C1562 0.950 . S
H1551 C1563 0.950 . S
C1552 H1544 0.950 . S
C1552 C1553 1.386 . S
C1552 C1554 1.391 . S
C1553 C1552 1.386 . S
C1553 C1557 1.393 . S
C1554 H1546 0.950 . S
C1554 C1552 1.391 . S
C1554 C1555 1.400 . S
C1555 C1554 1.400 . S
C1555 C1556 1.398 . S
C1555 C1561 1.491 1_655 S
C1556 H1547 0.950 . S
C1556 C1555 1.398 . S
C1556 C1557 1.391 . S
C1557 H1545 0.950 . S
C1557 C1553 1.393 . S
C1557 C1556 1.391 . S
C1558 H1548 0.950 . S
C1558 C1559 1.386 . S
C1558 C1560 1.391 . S
C1559 C1558 1.386 . S
C1559 C1563 1.393 . S
C1560 H1549 0.950 . S
C1560 C1558 1.391 . S
C1560 C1561 1.400 . S
C1561 C1555 1.491 1_455 S
C1561 C1560 1.400 . S
C1561 C1562 1.398 . S
C1562 H1550 0.950 . S
C1562 C1561 1.398 . S
C1562 C1563 1.391 . S
C1563 H1551 0.950 . S
C1563 C1559 1.393 . S
C1563 C1562 1.391 . S
H1564 C1572 0.950 . S
H1565 C1577 0.950 . S
H1566 C1574 0.950 . S
H1567 C1576 0.950 . S
H1568 C1578 0.950 . S
H1569 C1580 0.950 . S
H1570 C1582 0.950 . S
H1571 C1583 0.950 . S
C1572 H1564 0.950 . S
C1572 C1573 1.386 . S
C1572 C1574 1.391 . S
C1573 C1572 1.386 . S
C1573 C1577 1.393 . S
C1574 H1566 0.950 . S
C1574 C1572 1.391 . S
C1574 C1575 1.400 . S
C1575 C1574 1.400 . S
C1575 C1576 1.398 . S
C1575 C1581 1.491 . S
C1576 H1567 0.950 . S
C1576 C1575 1.398 . S
C1576 C1577 1.391 . S
C1577 H1565 0.950 . S
C1577 C1573 1.393 . S
C1577 C1576 1.391 . S
C1578 H1568 0.950 . S
C1578 C1579 1.386 . S
C1578 C1580 1.391 . S
C1579 C1578 1.386 . S
C1579 C1583 1.393 . S
C1580 H1569 0.950 . S
C1580 C1578 1.391 . S
C1580 C1581 1.400 . S
C1581 C1575 1.491 . S
C1581 C1580 1.400 . S
C1581 C1582 1.398 . S
C1582 H1570 0.950 . S
C1582 C1581 1.398 . S
C1582 C1583 1.391 . S
C1583 H1571 0.950 . S
C1583 C1579 1.393 . S
C1583 C1582 1.391 . S
H1584 C1592 0.950 . S
H1585 C1597 0.950 . S
H1586 C1594 0.950 . S
H1587 C1596 0.950 . S
H1588 C1598 0.950 . S
H1589 C1600 0.950 . S
H1590 C1602 0.950 . S
H1591 C1603 0.950 . S
C1592 H1584 0.950 . S
C1592 C1593 1.386 . S
C1592 C1594 1.391 . S
C1593 C1592 1.386 . S
C1593 C1597 1.393 . S
C1594 H1586 0.950 . S
C1594 C1592 1.391 . S
C1594 C1595 1.400 . S
C1595 C1594 1.400 . S
C1595 C1596 1.398 . S
C1595 C1601 1.491 . S
C1596 H1587 0.950 . S
C1596 C1595 1.398 . S
C1596 C1597 1.391 . S
C1597 H1585 0.950 . S
C1597 C1593 1.393 . S
C1597 C1596 1.391 . S
C1598 H1588 0.950 . S
C1598 C1599 1.386 . S
C1598 C1600 1.391 . S
C1599 C1598 1.386 . S
C1599 C1603 1.393 . S
C1600 H1589 0.950 . S
C1600 C1598 1.391 . S
C1600 C1601 1.400 . S
C1601 C1595 1.491 . S
C1601 C1600 1.400 . S
C1601 C1602 1.398 . S
C1602 H1590 0.950 . S
C1602 C1601 1.398 . S
C1602 C1603 1.391 . S
C1603 H1591 0.950 . S
C1603 C1599 1.393 . S
C1603 C1602 1.391 . S
H1604 C1612 0.950 . S
H1605 C1617 0.950 . S
H1606 C1614 0.950 . S
H1607 C1616 0.950 . S
H1608 C1618 0.950 . S
H1609 C1620 0.950 . S
H1610 C1622 0.950 . S
H1611 C1623 0.950 . S
C1612 H1604 0.950 . S
C1612 C1613 1.386 . S
C1612 C1614 1.391 . S
C1613 C1612 1.386 . S
C1613 C1617 1.393 . S
C1614 H1606 0.950 . S
C1614 C1612 1.391 . S
C1614 C1615 1.400 . S
C1615 C1614 1.400 . S
C1615 C1616 1.398 . S
C1615 C1621 1.491 . S
C1616 H1607 0.950 . S
C1616 C1615 1.398 . S
C1616 C1617 1.391 . S
C1617 H1605 0.950 . S
C1617 C1613 1.393 . S
C1617 C1616 1.391 . S
C1618 H1608 0.950 . S
C1618 C1619 1.386 . S
C1618 C1620 1.391 . S
C1619 C1618 1.386 . S
C1619 C1623 1.393 . S
C1620 H1609 0.950 . S
C1620 C1618 1.391 . S
C1620 C1621 1.400 . S
C1621 C1615 1.491 . S
C1621 C1620 1.400 . S
C1621 C1622 1.398 . S
C1622 H1610 0.950 . S
C1622 C1621 1.398 . S
C1622 C1623 1.391 . S
C1623 H1611 0.950 . S
C1623 C1619 1.393 . S
C1623 C1622 1.391 . S
H1624 C1632 0.950 . S
H1625 C1637 0.950 . S
H1626 C1634 0.950 . S
H1627 C1636 0.950 . S
H1628 C1638 0.950 . S
H1629 C1640 0.950 . S
H1630 C1642 0.950 . S
H1631 C1643 0.950 . S
C1632 H1624 0.950 . S
C1632 C1633 1.386 . S
C1632 C1634 1.391 . S
C1633 C1632 1.386 . S
C1633 C1637 1.393 . S
C1634 H1626 0.950 . S
C1634 C1632 1.391 . S
C1634 C1635 1.400 . S
C1635 C1634 1.400 . S
C1635 C1636 1.398 . S
C1635 C1641 1.491 . S
C1636 H1627 0.950 . S
C1636 C1635 1.398 . S
C1636 C1637 1.391 . S
C1637 H1625 0.950 . S
C1637 C1633 1.393 . S
C1637 C1636 1.391 . S
C1638 H1628 0.950 . S
C1638 C1639 1.386 . S
C1638 C1640 1.391 . S
C1639 C1638 1.386 . S
C1639 C1643 1.393 . S
C1640 H1629 0.950 . S
C1640 C1638 1.391 . S
C1640 C1641 1.400 . S
C1641 C1635 1.491 . S
C1641 C1640 1.400 . S
C1641 C1642 1.398 . S
C1642 H1630 0.950 . S
C1642 C1641 1.398 . S
C1642 C1643 1.391 . S
C1643 H1631 0.950 . S
C1643 C1639 1.393 . S
C1643 C1642 1.391 . S
H1644 C1652 0.950 . S
H1645 C1657 0.950 . S
H1646 C1654 0.950 . S
H1647 C1656 0.950 . S
H1648 C1658 0.950 . S
H1649 C1660 0.950 . S
H1650 C1662 0.950 . S
H1651 C1663 0.950 . S
C1652 H1644 0.950 . S
C1652 C1653 1.386 . S
C1652 C1654 1.391 . S
C1653 C1652 1.386 . S
C1653 C1657 1.393 . S
C1654 H1646 0.950 . S
C1654 C1652 1.391 . S
C1654 C1655 1.400 . S
C1655 C1654 1.400 . S
C1655 C1656 1.398 . S
C1655 C1661 1.491 . S
C1656 H1647 0.950 . S
C1656 C1655 1.398 . S
C1656 C1657 1.391 . S
C1657 H1645 0.950 . S
C1657 C1653 1.393 . S
C1657 C1656 1.391 . S
C1658 H1648 0.950 . S
C1658 C1659 1.386 . S
C1658 C1660 1.391 . S
C1659 C1658 1.386 . S
C1659 C1663 1.393 . S
C1660 H1649 0.950 . S
C1660 C1658 1.391 . S
C1660 C1661 1.400 . S
C1661 C1655 1.491 . S
C1661 C1660 1.400 . S
C1661 C1662 1.398 . S
C1662 H1650 0.950 . S
C1662 C1661 1.398 . S
C1662 C1663 1.391 . S
C1663 H1651 0.950 . S
C1663 C1659 1.393 . S
C1663 C1662 1.391 . S
H1664 C1672 0.950 . S
H1665 C1677 0.950 . S
H1666 C1674 0.950 . S
H1667 C1676 0.950 . S
H1668 C1678 0.950 . S
H1669 C1680 0.950 . S
H1670 C1682 0.950 . S
H1671 C1683 0.950 . S
C1672 H1664 0.950 . S
C1672 C1673 1.386 . S
C1672 C1674 1.391 . S
C1673 C1672 1.386 . S
C1673 C1677 1.393 . S
C1674 H1666 0.950 . S
C1674 C1672 1.391 . S
C1674 C1675 1.400 . S
C1675 C1674 1.400 . S
C1675 C1676 1.398 . S
C1675 C1681 1.491 . S
C1676 H1667 0.950 . S
C1676 C1675 1.398 . S
C1676 C1677 1.391 . S
C1677 H1665 0.950 . S
C1677 C1673 1.393 . S
C1677 C1676 1.391 . S
C1678 H1668 0.950 . S
C1678 C1679 1.386 . S
C1678 C1680 1.391 . S
C1679 C1678 1.386 . S
C1679 C1683 1.393 . S
C1680 H1669 0.950 . S
C1680 C1678 1.391 . S
C1680 C1681 1.400 . S
C1681 C1675 1.491 . S
C1681 C1680 1.400 . S
C1681 C1682 1.398 . S
C1682 H1670 0.950 . S
C1682 C1681 1.398 . S
C1682 C1683 1.391 . S
C1683 H1671 0.950 . S
C1683 C1679 1.393 . S
C1683 C1682 1.391 . S
H1684 C1692 0.950 . S
H1685 C1697 0.950 . S
H1686 C1694 0.950 . S
H1687 C1696 0.950 . S
H1688 C1698 0.950 . S
H1689 C1700 0.950 . S
H1690 C1702 0.950 . S
H1691 C1703 0.950 . S
C1692 H1684 0.950 . S
C1692 C1693 1.386 . S
C1692 C1694 1.391 . S
C1693 C1692 1.386 . S
C1693 C1697 1.393 . S
C1694 H1686 0.950 . S
C1694 C1692 1.391 . S
C1694 C1695 1.400 . S
C1695 C1694 1.400 . S
C1695 C1696 1.398 . S
C1695 C1701 1.491 . S
C1696 H1687 0.950 . S
C1696 C1695 1.398 . S
C1696 C1697 1.391 . S
C1697 H1685 0.950 . S
C1697 C1693 1.393 . S
C1697 C1696 1.391 . S
C1698 H1688 0.950 . S
C1698 C1699 1.386 . S
C1698 C1700 1.391 . S
C1699 C1698 1.386 . S
C1699 C1703 1.393 . S
C1700 H1689 0.950 . S
C1700 C1698 1.391 . S
C1700 C1701 1.400 . S
C1701 C1695 1.491 . S
C1701 C1700 1.400 . S
C1701 C1702 1.398 . S
C1702 H1690 0.950 . S
C1702 C1701 1.398 . S
C1702 C1703 1.391 . S
C1703 H1691 0.950 . S
C1703 C1699 1.393 . S
C1703 C1702 1.391 . S
H1704 C1712 0.950 . S
H1705 C1717 0.950 . S
H1706 C1714 0.950 . S
H1707 C1716 0.950 . S
H1708 C1718 0.950 . S
H1709 C1720 0.950 . S
H1710 C1722 0.950 . S
H1711 C1723 0.950 . S
C1712 H1704 0.950 . S
C1712 C1713 1.386 . S
C1712 C1714 1.391 . S
C1713 C1712 1.386 . S
C1713 C1717 1.393 . S
C1714 H1706 0.950 . S
C1714 C1712 1.391 . S
C1714 C1715 1.400 . S
C1715 C1714 1.400 . S
C1715 C1716 1.398 . S
C1715 C1721 1.491 . S
C1716 H1707 0.950 . S
C1716 C1715 1.398 . S
C1716 C1717 1.391 . S
C1717 H1705 0.950 . S
C1717 C1713 1.393 . S
C1717 C1716 1.391 . S
C1718 H1708 0.950 . S
C1718 C1719 1.386 . S
C1718 C1720 1.391 . S
C1719 C1718 1.386 . S
C1719 C1723 1.393 . S
C1720 H1709 0.950 . S
C1720 C1718 1.391 . S
C1720 C1721 1.400 . S
C1721 C1715 1.491 . S
C1721 C1720 1.400 . S
C1721 C1722 1.398 . S
C1722 H1710 0.950 . S
C1722 C1721 1.398 . S
C1722 C1723 1.391 . S
C1723 H1711 0.950 . S
C1723 C1719 1.393 . S
C1723 C1722 1.391 . S
H1724 C1732 0.950 . S
H1725 C1737 0.950 . S
H1726 C1734 0.950 . S
H1727 C1736 0.950 . S
H1728 C1738 0.950 . S
H1729 C1740 0.950 . S
H1730 C1742 0.950 . S
H1731 C1743 0.950 . S
C1732 H1724 0.950 . S
C1732 C1733 1.386 . S
C1732 C1734 1.391 . S
C1733 C1732 1.386 . S
C1733 C1737 1.393 . S
C1734 H1726 0.950 . S
C1734 C1732 1.391 . S
C1734 C1735 1.400 . S
C1735 C1734 1.400 . S
C1735 C1736 1.398 . S
C1735 C1741 1.491 . S
C1736 H1727 0.950 . S
C1736 C1735 1.398 . S
C1736 C1737 1.391 . S
C1737 H1725 0.950 . S
C1737 C1733 1.393 . S
C1737 C1736 1.391 . S
C1738 H1728 0.950 . S
C1738 C1739 1.386 . S
C1738 C1740 1.391 . S
C1739 C1738 1.386 . S
C1739 C1743 1.393 . S
C1740 H1729 0.950 . S
C1740 C1738 1.391 . S
C1740 C1741 1.400 . S
C1741 C1735 1.491 . S
C1741 C1740 1.400 . S
C1741 C1742 1.398 . S
C1742 H1730 0.950 . S
C1742 C1741 1.398 . S
C1742 C1743 1.391 . S
C1743 H1731 0.950 . S
C1743 C1739 1.393 . S
C1743 C1742 1.391 . S
H1744 C1752 0.950 . S
H1745 C1757 0.950 . S
H1746 C1754 0.950 . S
H1747 C1756 0.950 . S
H1748 C1758 0.950 . S
H1749 C1760 0.950 . S
H1750 C1762 0.950 . S
H1751 C1763 0.950 . S
C1752 H1744 0.950 . S
C1752 C1753 1.386 . S
C1752 C1754 1.391 . S
C1753 C1752 1.386 . S
C1753 C1757 1.393 . S
C1754 H1746 0.950 . S
C1754 C1752 1.391 . S
C1754 C1755 1.400 . S
C1755 C1754 1.400 . S
C1755 C1756 1.398 . S
C1755 C1761 1.491 . S
C1756 H1747 0.950 . S
C1756 C1755 1.398 . S
C1756 C1757 1.391 . S
C1757 H1745 0.950 . S
C1757 C1753 1.393 . S
C1757 C1756 1.391 . S
C1758 H1748 0.950 . S
C1758 C1759 1.386 . S
C1758 C1760 1.391 . S
C1759 C1758 1.386 . S
C1759 C1763 1.393 . S
C1760 H1749 0.950 . S
C1760 C1758 1.391 . S
C1760 C1761 1.400 . S
C1761 C1755 1.491 . S
C1761 C1760 1.400 . S
C1761 C1762 1.398 . S
C1762 H1750 0.950 . S
C1762 C1761 1.398 . S
C1762 C1763 1.391 . S
C1763 H1751 0.950 . S
C1763 C1759 1.393 . S
C1763 C1762 1.391 . S
H1764 C1772 0.950 . S
H1765 C1777 0.950 . S
H1766 C1774 0.950 . S
H1767 C1776 0.950 . S
H1768 C1778 0.950 . S
H1769 C1780 0.950 . S
H1770 C1782 0.950 1_556 S
H1771 C1783 0.950 1_556 S
C1772 H1764 0.950 . S
C1772 C1773 1.386 . S
C1772 C1774 1.391 . S
C1773 C1772 1.386 . S
C1773 C1777 1.393 . S
C1774 H1766 0.950 . S
C1774 C1772 1.391 . S
C1774 C1775 1.400 . S
C1775 C1774 1.400 . S
C1775 C1776 1.398 . S
C1775 C1781 1.491 . S
C1776 H1767 0.950 . S
C1776 C1775 1.398 . S
C1776 C1777 1.391 . S
C1777 H1765 0.950 . S
C1777 C1773 1.393 . S
C1777 C1776 1.391 . S
C1778 H1768 0.950 . S
C1778 C1779 1.386 . S
C1778 C1780 1.391 . S
C1779 C1778 1.386 . S
C1779 C1783 1.393 . S
C1780 H1769 0.950 . S
C1780 C1778 1.391 . S
C1780 C1781 1.400 . S
C1781 C1775 1.491 . S
C1781 C1780 1.400 . S
C1781 C1782 1.398 . S
C1782 H1770 0.950 1_554 S
C1782 C1781 1.398 . S
C1782 C1783 1.391 . S
C1783 H1771 0.950 1_554 S
C1783 C1779 1.393 . S
C1783 C1782 1.391 . S
H1784 C1792 0.950 1_556 S
H1785 C1797 0.950 . S
H1786 C1794 0.950 1_556 S
H1787 C1796 0.950 . S
H1788 C1798 0.950 . S
H1789 C1800 0.950 . S
H1790 C1802 0.950 1_556 S
H1791 C1803 0.950 1_556 S
C1792 H1784 0.950 1_554 S
C1792 C1793 1.386 . S
C1792 C1794 1.391 . S
C1793 C1792 1.386 . S
C1793 C1797 1.393 . S
C1794 H1786 0.950 1_554 S
C1794 C1792 1.391 . S
C1794 C1795 1.400 . S
C1795 C1794 1.400 . S
C1795 C1796 1.398 . S
C1795 C1801 1.491 . S
C1796 H1787 0.950 . S
C1796 C1795 1.398 . S
C1796 C1797 1.391 . S
C1797 H1785 0.950 . S
C1797 C1793 1.393 . S
C1797 C1796 1.391 . S
C1798 H1788 0.950 . S
C1798 C1799 1.386 . S
C1798 C1800 1.391 . S
C1799 C1798 1.386 . S
C1799 C1803 1.393 . S
C1800 H1789 0.950 . S
C1800 C1798 1.391 . S
C1800 C1801 1.400 . S
C1801 C1795 1.491 . S
C1801 C1800 1.400 . S
C1801 C1802 1.398 . S
C1802 H1790 0.950 1_554 S
C1802 C1801 1.398 . S
C1802 C1803 1.391 . S
C1803 H1791 0.950 1_554 S
C1803 C1799 1.393 . S
C1803 C1802 1.391 . S
H1804 C1812 0.950 1_556 S
H1805 C1817 0.950 . S
H1806 C1814 0.950 1_556 S
H1807 C1816 0.950 . S
H1808 C1818 0.950 . S
H1809 C1820 0.950 . S
H1810 C1822 0.950 1_556 S
H1811 C1823 0.950 1_556 S
C1812 H1804 0.950 1_554 S
C1812 C1813 1.386 . S
C1812 C1814 1.391 . S
C1813 C1812 1.386 . S
C1813 C1817 1.393 . S
C1814 H1806 0.950 1_554 S
C1814 C1812 1.391 . S
C1814 C1815 1.400 . S
C1815 C1814 1.400 . S
C1815 C1816 1.398 . S
C1815 C1821 1.491 . S
C1816 H1807 0.950 . S
C1816 C1815 1.398 . S
C1816 C1817 1.391 . S
C1817 H1805 0.950 . S
C1817 C1813 1.393 . S
C1817 C1816 1.391 . S
C1818 H1808 0.950 . S
C1818 C1819 1.386 . S
C1818 C1820 1.391 . S
C1819 C1818 1.386 . S
C1819 C1823 1.393 . S
C1820 H1809 0.950 . S
C1820 C1818 1.391 . S
C1820 C1821 1.400 . S
C1821 C1815 1.491 . S
C1821 C1820 1.400 . S
C1821 C1822 1.398 . S
C1822 H1810 0.950 1_554 S
C1822 C1821 1.398 . S
C1822 C1823 1.391 . S
C1823 H1811 0.950 1_554 S
C1823 C1819 1.393 . S
C1823 C1822 1.391 . S
H1824 C1832 0.950 1_554 S
H1825 C1837 0.950 . S
H1826 C1834 0.950 1_554 S
H1827 C1836 0.950 . S
H1828 C1838 0.950 . S
H1829 C1840 0.950 . S
H1830 C1842 0.950 1_554 S
H1831 C1843 0.950 1_554 S
C1832 H1824 0.950 1_556 S
C1832 C1833 1.386 . S
C1832 C1834 1.391 . S
C1833 C1832 1.386 . S
C1833 C1837 1.393 . S
C1834 H1826 0.950 1_556 S
C1834 C1832 1.391 . S
C1834 C1835 1.400 . S
C1835 C1834 1.400 . S
C1835 C1836 1.398 . S
C1835 C1841 1.491 . S
C1836 H1827 0.950 . S
C1836 C1835 1.398 . S
C1836 C1837 1.391 . S
C1837 H1825 0.950 . S
C1837 C1833 1.393 . S
C1837 C1836 1.391 . S
C1838 H1828 0.950 . S
C1838 C1839 1.386 . S
C1838 C1840 1.391 . S
C1839 C1838 1.386 . S
C1839 C1843 1.393 . S
C1840 H1829 0.950 . S
C1840 C1838 1.391 . S
C1840 C1841 1.400 . S
C1841 C1835 1.491 . S
C1841 C1840 1.400 . S
C1841 C1842 1.398 . S
C1842 H1830 0.950 1_556 S
C1842 C1841 1.398 . S
C1842 C1843 1.391 . S
C1843 H1831 0.950 1_556 S
C1843 C1839 1.393 . S
C1843 C1842 1.391 . S
H1844 C1852 0.950 1_554 S
H1845 C1857 0.950 . S
H1846 C1854 0.950 1_554 S
H1847 C1856 0.950 . S
H1848 C1858 0.950 . S
H1849 C1860 0.950 . S
H1850 C1862 0.950 1_554 S
H1851 C1863 0.950 1_554 S
C1852 H1844 0.950 1_556 S
C1852 C1853 1.386 . S
C1852 C1854 1.391 . S
C1853 C1852 1.386 . S
C1853 C1857 1.393 . S
C1854 H1846 0.950 1_556 S
C1854 C1852 1.391 . S
C1854 C1855 1.400 . S
C1855 C1854 1.400 . S
C1855 C1856 1.398 . S
C1855 C1861 1.491 . S
C1856 H1847 0.950 . S
C1856 C1855 1.398 . S
C1856 C1857 1.391 . S
C1857 H1845 0.950 . S
C1857 C1853 1.393 . S
C1857 C1856 1.391 . S
C1858 H1848 0.950 . S
C1858 C1859 1.386 . S
C1858 C1860 1.391 . S
C1859 C1858 1.386 . S
C1859 C1863 1.393 . S
C1860 H1849 0.950 . S
C1860 C1858 1.391 . S
C1860 C1861 1.400 . S
C1861 C1855 1.491 . S
C1861 C1860 1.400 . S
C1861 C1862 1.398 . S
C1862 H1850 0.950 1_556 S
C1862 C1861 1.398 . S
C1862 C1863 1.391 . S
C1863 H1851 0.950 1_556 S
C1863 C1859 1.393 . S
C1863 C1862 1.391 . S
H1864 C1872 0.950 1_554 S
H1865 C1877 0.950 . S
H1866 C1874 0.950 1_554 S
H1867 C1876 0.950 . S
H1868 C1878 0.950 . S
H1869 C1880 0.950 . S
H1870 C1882 0.950 1_554 S
H1871 C1883 0.950 1_554 S
C1872 H1864 0.950 1_556 S
C1872 C1873 1.386 . S
C1872 C1874 1.391 . S
C1873 C1872 1.386 . S
C1873 C1877 1.393 . S
C1874 H1866 0.950 1_556 S
C1874 C1872 1.391 . S
C1874 C1875 1.400 . S
C1875 C1874 1.400 . S
C1875 C1876 1.398 . S
C1875 C1881 1.491 . S
C1876 H1867 0.950 . S
C1876 C1875 1.398 . S
C1876 C1877 1.391 . S
C1877 H1865 0.950 . S
C1877 C1873 1.393 . S
C1877 C1876 1.391 . S
C1878 H1868 0.950 . S
C1878 C1879 1.386 . S
C1878 C1880 1.391 . S
C1879 C1878 1.386 . S
C1879 C1883 1.393 . S
C1880 H1869 0.950 . S
C1880 C1878 1.391 . S
C1880 C1881 1.400 . S
C1881 C1875 1.491 . S
C1881 C1880 1.400 . S
C1881 C1882 1.398 . S
C1882 H1870 0.950 1_556 S
C1882 C1881 1.398 . S
C1882 C1883 1.391 . S
C1883 H1871 0.950 1_556 S
C1883 C1879 1.393 . S
C1883 C1882 1.391 . S
H1884 C1892 0.950 . S
H1885 C1897 0.950 . S
H1886 C1894 0.950 . S
H1887 C1896 0.950 . S
H1888 C1898 0.950 . S
H1889 C1900 0.950 . S
H1890 C1902 0.950 . S
H1891 C1903 0.950 . S
C1892 H1884 0.950 . S
C1892 C1893 1.386 . S
C1892 C1894 1.391 . S
C1893 C1892 1.386 . S
C1893 C1897 1.393 . S
C1894 H1886 0.950 . S
C1894 C1892 1.391 . S
C1894 C1895 1.400 . S
C1895 C1894 1.400 . S
C1895 C1896 1.398 . S
C1895 C1901 1.491 . S
C1896 H1887 0.950 . S
C1896 C1895 1.398 . S
C1896 C1897 1.391 . S
C1897 H1885 0.950 . S
C1897 C1893 1.393 . S
C1897 C1896 1.391 . S
C1898 H1888 0.950 . S
C1898 C1899 1.386 . S
C1898 C1900 1.391 . S
C1899 C1898 1.386 . S
C1899 C1903 1.393 . S
C1900 H1889 0.950 . S
C1900 C1898 1.391 . S
C1900 C1901 1.400 . S
C1901 C1895 1.491 . S
C1901 C1900 1.400 . S
C1901 C1902 1.398 . S
C1902 H1890 0.950 . S
C1902 C1901 1.398 . S
C1902 C1903 1.391 . S
C1903 H1891 0.950 . S
C1903 C1899 1.393 . S
C1903 C1902 1.391 . S
H1904 C1912 0.950 . S
H1905 C1917 0.950 . S
H1906 C1914 0.950 . S
H1907 C1916 0.950 . S
H1908 C1918 0.950 . S
H1909 C1920 0.950 . S
H1910 C1922 0.950 . S
H1911 C1923 0.950 . S
C1912 H1904 0.950 . S
C1912 C1913 1.386 . S
C1912 C1914 1.391 . S
C1913 C1912 1.386 . S
C1913 C1917 1.393 . S
C1914 H1906 0.950 . S
C1914 C1912 1.391 . S
C1914 C1915 1.400 . S
C1915 C1914 1.400 . S
C1915 C1916 1.398 . S
C1915 C1921 1.491 . S
C1916 H1907 0.950 . S
C1916 C1915 1.398 . S
C1916 C1917 1.391 . S
C1917 H1905 0.950 . S
C1917 C1913 1.393 . S
C1917 C1916 1.391 . S
C1918 H1908 0.950 . S
C1918 C1919 1.386 . S
C1918 C1920 1.391 . S
C1919 C1918 1.386 . S
C1919 C1923 1.393 . S
C1920 H1909 0.950 . S
C1920 C1918 1.391 . S
C1920 C1921 1.400 . S
C1921 C1915 1.491 . S
C1921 C1920 1.400 . S
C1921 C1922 1.398 . S
C1922 H1910 0.950 . S
C1922 C1921 1.398 . S
C1922 C1923 1.391 . S
C1923 H1911 0.950 . S
C1923 C1919 1.393 . S
C1923 C1922 1.391 . S
H1924 C1932 0.950 . S
H1925 C1937 0.950 . S
H1926 C1934 0.950 . S
H1927 C1936 0.950 . S
H1928 C1938 0.950 . S
H1929 C1940 0.950 . S
H1930 C1942 0.950 . S
H1931 C1943 0.950 . S
C1932 H1924 0.950 . S
C1932 C1933 1.386 . S
C1932 C1934 1.391 . S
C1933 C1932 1.386 . S
C1933 C1937 1.393 . S
C1934 H1926 0.950 . S
C1934 C1932 1.391 . S
C1934 C1935 1.400 . S
C1935 C1934 1.400 . S
C1935 C1936 1.398 . S
C1935 C1941 1.491 . S
C1936 H1927 0.950 . S
C1936 C1935 1.398 . S
C1936 C1937 1.391 . S
C1937 H1925 0.950 . S
C1937 C1933 1.393 . S
C1937 C1936 1.391 . S
C1938 H1928 0.950 . S
C1938 C1939 1.386 . S
C1938 C1940 1.391 . S
C1939 C1938 1.386 . S
C1939 C1943 1.393 . S
C1940 H1929 0.950 . S
C1940 C1938 1.391 . S
C1940 C1941 1.400 . S
C1941 C1935 1.491 . S
C1941 C1940 1.400 . S
C1941 C1942 1.398 . S
C1942 H1930 0.950 . S
C1942 C1941 1.398 . S
C1942 C1943 1.391 . S
C1943 H1931 0.950 . S
C1943 C1939 1.393 . S
C1943 C1942 1.391 . S
C513 C78 1.506 . S
C519 C8 1.512 . S
C533 C50 1.506 . S
C539 C22 1.513 . S
C553 C36 1.513 . S
C559 C64 1.507 . S
C573 C92 1.504 . S
C579 C162 1.515 . S
C593 C106 1.514 . S
C599 C134 1.504 . S
C613 C148 1.508 . S
C619 C120 1.511 . S
C633 C176 1.515 . S
C639 C246 1.504 . S
C653 C190 1.512 . S
C659 C218 1.507 . S
C673 C204 1.504 . S
C679 C232 1.515 . S
C693 C330 1.504 . S
C699 C260 1.515 . S
C713 C274 1.510 . S
C719 C302 1.510 . S
C733 C316 1.508 . S
C739 C288 1.511 . S
C753 C414 1.504 . S
C759 C344 1.515 . S
C773 C386 1.509 . S
C779 C358 1.510 . S
C793 C400 1.515 . S
C799 C372 1.504 . S
C813 C428 1.505 . S
C819 C498 1.515 . S
C833 C442 1.504 . S
C839 C470 1.515 . S
C853 C456 1.513 . S
C859 C484 1.507 . S
C873 C77 1.520 . S
C879 C7 1.520 . S
C893 C21 1.528 . S
C899 C49 1.527 . S
C913 C63 1.521 . S
C919 C35 1.520 . S
C933 C91 1.541 . S
C939 C161 1.540 . S
C953 C105 1.538 . S
C959 C133 1.537 . S
C973 C147 1.522 . S
C979 C119 1.523 . S
C993 C175 1.539 . S
C999 C245 1.539 . S
C1013 C217 1.540 . S
C1019 C189 1.540 . S
C1033 C231 1.540 . S
C1039 C203 1.540 . S
C1053 C259 1.538 . S
C1059 C329 1.537 . S
C1073 C273 1.533 . S
C1079 C301 1.532 . S
C1093 C315 1.522 . S
C1099 C287 1.522 . S
C1113 C413 1.539 . S
C1119 C343 1.539 . S
C1133 C357 1.521 . S
C1139 C385 1.520 . S
C1153 C371 1.528 . S
C1159 C399 1.527 . S
C1173 C497 1.541 . S
C1179 C427 1.541 . S
C1193 C469 1.536 . S
C1199 C441 1.536 . S
C1213 C483 1.540 . S
C1219 C455 1.539 . S
C1233 C233 1.644 . S
C1239 C9 1.651 . S
C1253 C247 1.652 . S
C1259 C23 1.645 . S
C1273 C219 1.648 . S
C1279 C37 1.644 . S
C1293 C51 1.647 . S
C1299 C373 1.653 . S
C1313 C65 1.644 . S
C1319 C345 1.648 . S
C1333 C79 1.651 . S
C1339 C359 1.644 . S
C1353 C93 1.648 . S
C1359 C485 1.652 . S
C1373 C107 1.652 . S
C1379 C499 1.649 . S
C1393 C121 1.649 . S
C1399 C471 1.644 . S
C1413 C135 1.652 . S
C1419 C289 1.648 . S
C1433 C261 1.649 . S
C1439 C149 1.652 . S
C1453 C275 1.648 . S
C1459 C163 1.652 . S
C1473 C401 1.651 . S
C1479 C177 1.651 . S
C1493 C191 1.644 . S
C1499 C415 1.649 . S
C1513 C205 1.652 . S
C1519 C387 1.649 . S
C1533 C303 1.650 . S
C1539 C457 1.644 . S
C1553 C317 1.652 . S
C1559 C429 1.645 . S
C1573 C443 1.645 . S
C1579 C331 1.646 . S
C1593 C3 1.305 . S
C1599 C143 1.306 . S
C1613 C157 1.303 . S
C1619 C17 1.309 . S
C1633 C129 1.311 . S
C1639 C31 1.301 . S
C1653 C45 1.310 . S
C1659 C115 1.301 . S
C1673 C59 1.305 . S
C1679 C87 1.307 . S
C1693 C73 1.304 . S
C1699 C101 1.308 . S
C1713 C171 1.306 . S
C1719 C311 1.306 . S
C1733 C325 1.301 . S
C1739 C185 1.311 . S
C1753 C297 1.303 . S
C1759 C199 1.308 . S
C1773 C213 1.301 . S
C1779 C283 1.310 . S
C1793 C227 1.301 . S
C1799 C255 1.311 . S
C1813 C269 1.311 . S
C1819 C241 1.301 . S
C1833 C339 1.301 . S
C1839 C479 1.311 . S
C1853 C493 1.309 . S
C1859 C353 1.303 . S
C1873 C367 1.301 . S
C1879 C465 1.311 . S
C1893 C381 1.309 . S
C1899 C451 1.303 . S
C1913 C423 1.301 . S
C1919 C395 1.310 . S
C1933 C409 1.311 . S
C1939 C437 1.301 . S
