# Generated by pormake.
# Topology snk, (6)-cn, num edge types: 1
# Building blocks:
#     Node 0, Type 0, BuildingBlock: KUMBOL_clean_sbu_1, # of connection points: 6
#     Node 1, Type 0, BuildingBlock: KUMBOL_clean_sbu_1, # of connection points: 6
#     Node 2, Type 0, BuildingBlock: KUMBOL_clean_sbu_1, # of connection points: 6
#     Node 3, Type 0, BuildingBlock: KUMBOL_clean_sbu_1, # of connection points: 6
#     Node 4, Type 0, BuildingBlock: KUMBOL_clean_sbu_1, # of connection points: 6
#     Node 5, Type 0, BuildingBlock: KUMBOL_clean_sbu_1, # of connection points: 6
#     Node 6, Type 0, BuildingBlock: KUMBOL_clean_sbu_1, # of connection points: 6
#     Node 7, Type 0, BuildingBlock: KUMBOL_clean_sbu_1, # of connection points: 6
#     Edge 8, Type (0, 0), BuildingBlock: CIFDUS_clean_linker_0, # of connection points: 2
#     Edge 9, Type (0, 0), BuildingBlock: CIFDUS_clean_linker_0, # of connection points: 2
#     Edge 10, Type (0, 0), BuildingBlock: CIFDUS_clean_linker_0, # of connection points: 2
#     Edge 11, Type (0, 0), BuildingBlock: CIFDUS_clean_linker_0, # of connection points: 2
#     Edge 12, Type (0, 0), BuildingBlock: CIFDUS_clean_linker_0, # of connection points: 2
#     Edge 13, Type (0, 0), BuildingBlock: CIFDUS_clean_linker_0, # of connection points: 2
#     Edge 14, Type (0, 0), BuildingBlock: CIFDUS_clean_linker_0, # of connection points: 2
#     Edge 15, Type (0, 0), BuildingBlock: CIFDUS_clean_linker_0, # of connection points: 2
#     Edge 16, Type (0, 0), BuildingBlock: CIFDUS_clean_linker_0, # of connection points: 2
#     Edge 17, Type (0, 0), BuildingBlock: CIFDUS_clean_linker_0, # of connection points: 2
#     Edge 18, Type (0, 0), BuildingBlock: CIFDUS_clean_linker_0, # of connection points: 2
#     Edge 19, Type (0, 0), BuildingBlock: CIFDUS_clean_linker_0, # of connection points: 2
#     Edge 20, Type (0, 0), BuildingBlock: CIFDUS_clean_linker_0, # of connection points: 2
#     Edge 21, Type (0, 0), BuildingBlock: CIFDUS_clean_linker_0, # of connection points: 2
#     Edge 22, Type (0, 0), BuildingBlock: CIFDUS_clean_linker_0, # of connection points: 2
#     Edge 23, Type (0, 0), BuildingBlock: CIFDUS_clean_linker_0, # of connection points: 2
#     Edge 24, Type (0, 0), BuildingBlock: CIFDUS_clean_linker_0, # of connection points: 2
#     Edge 25, Type (0, 0), BuildingBlock: CIFDUS_clean_linker_0, # of connection points: 2
#     Edge 26, Type (0, 0), BuildingBlock: CIFDUS_clean_linker_0, # of connection points: 2
#     Edge 27, Type (0, 0), BuildingBlock: CIFDUS_clean_linker_0, # of connection points: 2
#     Edge 28, Type (0, 0), BuildingBlock: CIFDUS_clean_linker_0, # of connection points: 2
#     Edge 29, Type (0, 0), BuildingBlock: CIFDUS_clean_linker_0, # of connection points: 2
#     Edge 30, Type (0, 0), BuildingBlock: CIFDUS_clean_linker_0, # of connection points: 2
#     Edge 31, Type (0, 0), BuildingBlock: CIFDUS_clean_linker_0, # of connection points: 2
# Relax obj value: 0.008
# Max RMSD: 0.075
# Mean RMSD: 0.073
data_MOF--net-snk--node1-KUMBOL_clean_sbu_1--edge1-CIFDUS_clean_linker_0
_symmetry_space_group_name_H-M    P1
_symmetry_Int_Tables_number       1
_symmetry_cell_setting            triclinic
loop_
_symmetry_equiv_pos_as_xyz
'x, y, z'
_cell_length_a     33.222137
_cell_length_b     33.161541
_cell_length_c     22.960502
_cell_angle_alpha  90.12072
_cell_angle_beta   90.173642
_cell_angle_gamma 90.128314
loop_
_atom_site_label
_atom_site_type_symbol
_atom_site_fract_x
_atom_site_fract_y
_atom_site_fract_z
_atom_type_partial_charge
C0 C 0.98166 0.88347 0.44594 0.0
C1 C 0.91153 0.88326 0.41601 0.0
C2 C 0.94748 0.90412 0.42873 0.0
C3 C 0.90995 0.84128 0.4235 0.0
C4 C 0.98079 0.84108 0.45064 0.0
C5 C 0.9445 0.82024 0.44086 0.0
N6 N 0.01636 0.90456 0.45416 0.0
C7 C 0.05197 0.8846 0.46155 0.0
C8 C 0.01672 0.82081 0.46292 0.0
C9 C 0.05258 0.84264 0.46733 0.0
Gd10 Gd 0.00897 0.03609 0.59885 0.0
Gd11 Gd 0.01125 0.97538 0.44712 0.0
N12 N 0.9499 0.94472 0.42234 0.0
C13 C 0.87861 0.90515 0.39476 0.0
C14 C 0.91886 0.96592 0.39821 0.0
C15 C 0.88251 0.94658 0.38496 0.0
H16 H 0.92202 0.9979 0.39051 0.0
H17 H 0.85757 0.96359 0.36724 0.0
H18 H 0.10302 1.0022 0.62957 0.0
H19 H 0.08021 0.90078 0.46237 0.0
H20 H 0.17067 0.03081 0.64303 0.0
H21 H 0.85043 0.89022 0.38446 0.0
H22 H 0.88246 0.8247 0.41462 0.0
H23 H 0.9474 0.11462 0.5796 0.0
H24 H 0.01737 0.78828 0.46689 0.0
H25 H 0.08079 0.82711 0.47442 0.0
H26 H 0.15085 0.17374 0.62773 0.0
H27 H 0.94308 0.78774 0.44503 0.0
H28 H 0.01809 0.22228 0.58838 0.0
H29 H 0.9522 0.18878 0.57489 0.0
N30 N 0.01015 0.10626 0.59239 0.0
C31 C 0.0465 0.12401 0.60201 0.0
C32 C 0.97644 0.12886 0.5838 0.0
C33 C 0.01624 0.18972 0.58993 0.0
C34 C 0.97899 0.1709 0.58196 0.0
C35 C 0.05053 0.16632 0.60045 0.0
H36 H 0.09213 0.21641 0.60882 0.0
N37 N 0.07519 0.05878 0.61359 0.0
C38 C 0.07991 0.09966 0.61277 0.0
C39 C 0.15103 0.09218 0.63198 0.0
C40 C 0.11803 0.11738 0.62171 0.0
C41 C 0.10701 0.03421 0.62551 0.0
C42 C 0.14544 0.05047 0.6341 0.0
O43 O 0.95594 0.96835 0.5043 0.0
O44 O 0.98095 0.97367 0.59686 0.0
O45 O 0.02154 0.03117 0.69071 0.0
O46 O 0.96454 0.05636 0.66236 0.0
O47 O 0.98129 0.03708 0.45019 0.0
O48 O 0.95377 0.04411 0.54218 0.0
O49 O 0.0388 0.06406 0.51855 0.0
O50 O 0.06648 0.00818 0.47862 0.0
O51 O 0.01076 0.00919 0.36572 0.0
O52 O 0.04023 0.95137 0.3703 0.0
O53 O 0.03588 0.97361 0.60283 0.0
O54 O 0.06203 0.96166 0.51141 0.0
C55 C 0.95489 0.95875 0.5596 0.0
C56 C 0.95337 0.05127 0.48563 0.0
C57 C 0.98928 0.07375 0.75707 0.0
C58 C 0.98866 0.08001 0.86293 0.0
C59 C 0.00583 0.13769 0.8026 0.0
C60 C 1.00047 0.11437 0.75233 0.0
C61 C 1.00025 0.12061 0.85769 0.0
C62 C 0.98322 0.05685 0.81224 0.0
C63 C 0.98741 0.04678 0.7065 0.0
C64 C 0.12201 0.15956 0.6203 0.0
C65 C 0.08845 0.18393 0.60967 0.0
H66 H 0.18083 0.1046 0.63899 0.0
C67 C 0.0663 0.04729 0.48546 0.0
C68 C 0.05855 0.95266 0.56708 0.0
C69 C 0.00766 0.96753 0.28221 0.0
C70 C 0.993 0.97927 0.17913 0.0
C71 C 0.9701 0.91772 0.22675 0.0
C72 C 0.9872 0.93049 0.27904 0.0
C73 C 0.97335 0.94154 0.17703 0.0
C74 C 0.00991 0.99209 0.23254 0.0
C75 C 0.0277 0.98019 0.33658 0.0
H76 H 0.01464 0.16902 0.79888 0.0
H77 H 0.0056 0.12786 0.71021 0.0
H78 H 1.00456 0.13917 0.89609 0.0
H79 H 0.97541 0.02516 0.81575 0.0
H80 H 0.95486 0.88887 0.22447 0.0
H81 H 0.985 0.91104 0.31667 0.0
H82 H 0.96107 0.92978 0.13671 0.0
H83 H 0.02494 0.02104 0.2358 0.0
C84 C 0.38343 0.72919 0.67444 0.0
C85 C 0.38279 0.66071 0.63626 0.0
C86 C 0.36219 0.69532 0.65592 0.0
C87 C 0.42501 0.6602 0.63707 0.0
C88 C 0.42589 0.72897 0.67417 0.0
C89 C 0.44645 0.69405 0.65654 0.0
N90 N 0.36266 0.76249 0.69151 0.0
C91 C 0.38262 0.79765 0.70355 0.0
C92 C 0.44641 0.76405 0.6909 0.0
C93 C 0.42467 0.79871 0.70461 0.0
Gd94 Gd 0.22769 0.75158 0.83839 0.0
Gd95 Gd 0.2921 0.7559 0.6898 0.0
N96 N 0.32142 0.69552 0.65945 0.0
C97 C 0.36028 0.62728 0.61779 0.0
C98 C 0.29923 0.66381 0.63894 0.0
C99 C 0.3183 0.62901 0.6186 0.0
H100 H 0.26684 0.66539 0.63799 0.0
H101 H 0.30061 0.60364 0.60333 0.0
H102 H 0.25901 0.84625 0.87396 0.0
H103 H 0.3665 0.82534 0.71125 0.0
H104 H 0.22874 0.91312 0.88737 0.0
H105 H 0.37501 0.60014 0.60249 0.0
H106 H 0.44138 0.63368 0.62306 0.0
H107 H 0.15136 0.68902 0.80771 0.0
H108 H 0.47897 0.76507 0.6919 0.0
H109 H 0.4403 0.82645 0.71531 0.0
H110 H 0.08738 0.89108 0.85846 0.0
H111 H 0.47896 0.6929 0.65737 0.0
H112 H 0.04238 0.75749 0.8118 0.0
H113 H 0.0775 0.69253 0.79731 0.0
N114 N 0.15808 0.75167 0.82493 0.0
C115 C 0.1394 0.78742 0.83531 0.0
C116 C 0.13647 0.7177 0.81257 0.0
C117 C 0.07486 0.75619 0.81595 0.0
C118 C 0.09457 0.7195 0.80743 0.0
C119 C 0.09722 0.79073 0.83015 0.0
H120 H 0.04638 0.83141 0.83483 0.0
N121 N 0.20356 0.8173 0.8532 0.0
C122 C 0.16275 0.82119 0.84921 0.0
C123 C 0.16832 0.89233 0.87082 0.0
C124 C 0.14414 0.85894 0.85755 0.0
C125 C 0.2271 0.84954 0.86779 0.0
C126 C 0.20991 0.88755 0.87622 0.0
O127 O 0.30457 0.70251 0.74944 0.0
O128 O 0.29038 0.72506 0.84246 0.0
O129 O 0.22281 0.76318 0.93173 0.0
O130 O 0.20803 0.7035 0.89585 0.0
O131 O 0.23147 0.72414 0.69092 0.0
O132 O 0.22474 0.69579 0.78198 0.0
O133 O 0.20202 0.78099 0.75617 0.0
O134 O 0.25843 0.8103 0.72045 0.0
O135 O 0.25649 0.75672 0.60962 0.0
O136 O 0.31736 0.78074 0.61086 0.0
O137 O 0.2889 0.78079 0.84709 0.0
O138 O 0.30584 0.80599 0.75597 0.0
C139 C 0.30935 0.70079 0.80645 0.0
C140 C 0.21819 0.69541 0.7255 0.0
C141 C 0.20146 0.71154 1.00095 0.0
C142 C 0.2047 0.71832 0.10705 0.0
C143 C 0.17548 0.65827 0.06286 0.0
C144 C 0.18307 0.67367 1.00753 0.0
C145 C 0.18633 0.68027 0.11229 0.0
C146 C 0.2119 0.73404 0.05101 0.0
C147 C 0.21112 0.72634 0.94197 0.0
C148 C 0.10212 0.86228 0.85224 0.0
C149 C 0.07874 0.82828 0.83878 0.0
H150 H 0.15516 0.92185 0.87745 0.0
C151 C 0.21921 0.80888 0.72398 0.0
C152 C 0.31161 0.80313 0.81288 0.0
C153 C 0.27657 0.79824 0.52942 0.0
C154 C 0.26294 0.80189 0.42457 0.0
C155 C 0.27944 0.8626 0.48012 0.0
C156 C 0.28357 0.83986 0.53087 0.0
C157 C 0.26979 0.84384 0.42725 0.0
C158 C 0.26534 0.77966 0.4768 0.0
C159 C 0.28577 0.77231 0.57949 0.0
H160 H 0.16124 0.62907 0.06747 0.0
H161 H 0.17468 0.65578 0.96986 0.0
H162 H 0.17993 0.66769 0.15477 0.0
H163 H 0.2265 0.76313 0.0465 0.0
H164 H 0.28514 0.89474 0.48132 0.0
H165 H 0.29329 0.85454 0.57065 0.0
H166 H 0.26908 0.8622 0.38839 0.0
H167 H 0.2597 0.74747 0.47667 0.0
C168 C 0.53069 0.12707 0.9255 0.0
C169 C 0.59778 0.12485 0.88386 0.0
C170 C 0.5634 0.10502 0.90578 0.0
C171 C 0.59896 0.16717 0.88272 0.0
C172 C 0.53144 0.16955 0.92305 0.0
C173 C 0.56587 0.18946 0.90229 0.0
N174 N 0.49777 0.10704 0.94544 0.0
C175 C 0.46349 0.12764 0.95895 0.0
C176 C 0.4972 0.19078 0.94039 0.0
C177 C 0.4629 0.16975 0.95774 0.0
Gd178 Gd 0.51261 0.97029 0.09433 0.0
Gd179 Gd 0.50231 0.03633 0.94535 0.0
N180 N 0.56207 0.06419 0.90946 0.0
C181 C 0.6301 0.10152 0.86424 0.0
C182 C 0.59256 0.04125 0.88758 0.0
C183 C 0.62728 0.05952 0.86558 0.0
H184 H 0.59007 0.0089 0.88632 0.0
H185 H 0.65168 0.04119 0.84919 0.0
H186 H 0.41744 0.99547 0.1345 0.0
H187 H 0.43604 0.11182 0.96853 0.0
H188 H 0.3528 0.96106 0.14942 0.0
H189 H 0.65707 0.11561 0.84727 0.0
H190 H 0.62522 0.18294 0.86648 0.0
H191 H 0.57856 0.8984 0.05922 0.0
H192 H 0.49658 0.22329 0.93868 0.0
H193 H 0.43574 0.18592 0.96906 0.0
H194 H 0.38154 0.82162 0.11285 0.0
H195 H 0.56702 0.22209 0.90051 0.0
H196 H 0.51565 0.78608 0.05539 0.0
H197 H 0.57834 0.82487 0.04253 0.0
N198 N 0.5161 0.90107 0.0783 0.0
C199 C 0.48166 0.88009 0.08899 0.0
C200 C 0.5508 0.88179 0.06361 0.0
C201 C 0.51544 0.81819 0.06312 0.0
C202 C 0.55091 0.8401 0.0551 0.0
C203 C 0.48033 0.83797 0.08092 0.0
H204 H 0.44241 0.78477 0.08375 0.0
N205 N 0.44879 0.94212 0.1106 0.0
C206 C 0.44708 0.90114 0.10536 0.0
C207 C 0.37636 0.90216 0.12965 0.0
C208 C 0.41062 0.88019 0.11407 0.0
C209 C 0.41575 0.9635 0.12729 0.0
C210 C 0.37902 0.94392 0.13657 0.0
O211 O 0.55608 0.05155 1.00311 0.0
O212 O 0.53798 0.03397 0.09731 0.0
O213 O 0.50256 0.96595 0.188 0.0
O214 O 0.56135 0.95043 0.15103 0.0
O215 O 0.53481 0.97624 0.94542 0.0
O216 O 0.56623 0.9719 0.03491 0.0
O217 O 0.48127 0.94413 1.0135 0.0
O218 O 0.45098 1.00065 0.98123 0.0
O219 O 0.49891 1.00255 0.86229 0.0
O220 O 0.46807 0.06035 0.87367 0.0
O221 O 0.48023 0.02901 0.10554 0.0
O222 O 0.45561 0.05098 0.01569 0.0
C223 C 0.55951 0.05529 0.06021 0.0
C224 C 0.56486 0.96438 0.97876 0.0
C225 C 0.55446 0.9441 0.25657 0.0
C226 C 0.55112 0.95119 0.36308 0.0
C227 C 0.60498 0.91252 0.31773 0.0
C228 C 0.58932 0.92071 0.26265 0.0
C229 C 0.58638 0.92784 0.36745 0.0
C230 C 0.53514 0.95887 0.30695 0.0
C231 C 0.53918 0.95367 0.19759 0.0
C232 C 0.40934 0.83815 0.10643 0.0
C233 C 0.44404 0.81713 0.08988 0.0
H234 H 0.34779 0.88716 0.13672 0.0
C235 C 0.45334 0.96144 0.98159 0.0
C236 C 0.45689 0.05214 0.07348 0.0
C237 C 0.45864 0.02864 0.78021 0.0
C238 C 0.46269 0.01367 0.67581 0.0
C239 C 0.40297 0.04553 0.71613 0.0
C240 C 0.42017 0.04496 0.77149 0.0
C241 C 0.42401 0.03016 0.66864 0.0
C242 C 0.47975 0.01247 0.73232 0.0
C243 C 0.47663 0.03057 0.83904 0.0
H244 H 0.63204 0.89462 0.3219 0.0
H245 H 0.6046 0.90879 0.22474 0.0
H246 H 0.60029 0.92197 0.40924 0.0
H247 H 0.50791 0.97648 0.30228 0.0
H248 H 0.37322 0.05808 0.70994 0.0
H249 H 0.40332 0.05739 0.80763 0.0
H250 H 0.40971 0.03081 0.62619 0.0
H251 H 0.50969 1.00028 0.7387 0.0
C252 C 0.37519 0.28574 0.32247 0.0
C253 C 0.37554 0.35883 0.32797 0.0
C254 C 0.35439 0.32193 0.32644 0.0
C255 C 0.4177 0.35887 0.32344 0.0
C256 C 0.41758 0.28561 0.31921 0.0
C257 C 0.43864 0.32238 0.31883 0.0
N258 N 0.35401 0.25065 0.32317 0.0
C259 C 0.37337 0.21449 0.32461 0.0
C260 C 0.43755 0.24848 0.31749 0.0
C261 C 0.41533 0.21275 0.32093 0.0
Gd262 Gd 0.21155 0.25664 0.18634 0.0
Gd263 Gd 0.28373 0.25639 0.32587 0.0
N264 N 0.31346 0.32094 0.32948 0.0
C265 C 0.35369 0.3945 0.33523 0.0
C266 C 0.29238 0.3555 0.33961 0.0
C267 C 0.312 0.39277 0.34157 0.0
H268 H 0.26071 0.35466 0.34812 0.0
H269 H 0.29501 0.42009 0.34911 0.0
H270 H 0.22994 0.15692 0.17581 0.0
H271 H 0.35634 0.18713 0.3307 0.0
H272 H 0.1918 0.09326 0.17977 0.0
H273 H 0.36868 0.42339 0.33805 0.0
H274 H 0.43448 0.38688 0.32428 0.0
H275 H 0.14384 0.33087 0.1978 0.0
H276 H 0.47009 0.2471 0.31502 0.0
H277 H 0.43052 0.18391 0.32157 0.0
H278 H 0.05479 0.13503 0.20616 0.0
H279 H 0.47119 0.32291 0.31606 0.0
H280 H 0.02798 0.2766 0.22092 0.0
H281 H 0.07069 0.33764 0.21411 0.0
N282 N 0.14235 0.26679 0.19666 0.0
C283 C 0.11926 0.23288 0.19817 0.0
C284 C 0.12543 0.30409 0.20115 0.0
C285 C 0.05993 0.27351 0.21316 0.0
C286 C 0.084 0.30803 0.20982 0.0
C287 C 0.07737 0.23536 0.20675 0.0
H288 H 0.02219 0.20113 0.21676 0.0
N289 N 0.1787 0.19392 0.18878 0.0
C290 C 0.13785 0.19541 0.19329 0.0
C291 C 0.13459 0.12263 0.1913 0.0
C292 C 0.1148 0.15972 0.1959 0.0
C293 C 0.19799 0.15795 0.18247 0.0
C294 C 0.17631 0.12178 0.18413 0.0
O295 O 0.30832 0.28404 0.24229 0.0
O296 O 0.25332 0.31049 0.19458 0.0
O297 O 0.22479 0.23456 0.09965 0.0
O298 O 0.18507 0.28563 0.11068 0.0
O299 O 0.22349 0.28932 0.32931 0.0
O300 O 0.21255 0.3142 0.237 0.0
O301 O 0.18778 0.23126 0.2718 0.0
O302 O 0.24239 0.20238 0.31602 0.0
O303 O 0.26606 0.27552 0.41256 0.0
O304 O 0.30898 0.22716 0.40215 0.0
O305 O 0.27176 0.22589 0.17988 0.0
O306 O 0.29074 0.20033 0.26955 0.0
C307 C 0.29204 0.31053 0.20681 0.0
C308 C 0.20654 0.31521 0.29332 0.0
C309 C 0.22619 0.28397 0.027 0.0
C310 C 0.24359 0.28847 0.92392 0.0
C311 C 0.27195 0.33608 0.99395 0.0
C312 C 0.25103 0.31722 0.03893 0.0
C313 C 0.2682 0.322 0.93678 0.0
C314 C 0.22286 0.26947 0.96978 0.0
C315 C 0.20469 0.26312 0.07394 0.0
C316 C 0.07298 0.16215 0.20382 0.0
C317 C 0.05437 0.19983 0.20963 0.0
H318 H 0.11793 0.09452 0.19298 0.0
C319 C 0.20332 0.20555 0.30902 0.0
C320 C 0.29102 0.19936 0.21193 0.0
C321 C 0.26807 0.22622 0.48586 0.0
C322 C 0.25388 0.2197 0.58961 0.0
C323 C 0.22788 0.17017 0.52057 0.0
C324 C 0.24586 0.19104 0.47474 0.0
C325 C 0.23225 0.1841 0.57772 0.0
C326 C 0.27169 0.24066 0.54309 0.0
C327 C 0.2878 0.24832 0.43858 0.0
H328 H 0.29087 0.36189 1.00343 0.0
H329 H 0.25421 0.32864 0.08286 0.0
H330 H 0.28406 0.33782 0.90261 0.0
H331 H 0.20443 0.24307 0.9613 0.0
H332 H 0.21103 0.14281 0.51192 0.0
H333 H 0.24296 0.17951 0.43087 0.0
H334 H 0.21951 0.16659 0.61281 0.0
H335 H 0.2883 0.2683 0.55126 0.0
C336 C 0.88341 0.24458 0.16881 0.0
C337 C 0.88903 0.17516 0.13625 0.0
C338 C 0.86565 0.20768 0.15667 0.0
C339 C 0.93059 0.18045 0.1281 0.0
C340 C 0.92496 0.2503 0.15948 0.0
C341 C 0.94846 0.21801 0.13933 0.0
N342 N 0.85973 0.27542 0.18709 0.0
C343 C 0.8755 0.31306 0.19539 0.0
C344 C 0.94142 0.28863 0.16912 0.0
C345 C 0.91658 0.32012 0.18719 0.0
Gd346 Gd 0.72507 0.25729 0.3434 0.0
Gd347 Gd 0.79059 0.26158 0.1938 0.0
N348 N 0.82544 0.2035 0.16519 0.0
C349 C 0.86986 0.13838 0.12448 0.0
C350 C 0.80629 0.16822 0.1517 0.0
C351 C 0.82827 0.13496 0.13203 0.0
H352 H 0.77408 0.16567 0.15632 0.0
H353 H 0.81308 0.10684 0.12223 0.0
H354 H 0.76986 0.34519 0.38803 0.0
H355 H 0.85625 0.33811 0.20648 0.0
H356 H 0.75092 0.41588 0.40089 0.0
H357 H 0.88678 0.11262 0.10898 0.0
H358 H 0.94909 0.15584 0.11249 0.0
H359 H 0.64098 0.20901 0.30564 0.0
H360 H 0.973 0.29449 0.16131 0.0
H361 H 0.92889 0.35005 0.19362 0.0
H362 H 0.60906 0.41785 0.36304 0.0
H363 H 0.98037 0.22193 0.13159 0.0
H364 H 0.54393 0.29378 0.31124 0.0
H365 H 0.56846 0.22436 0.29435 0.0
N366 N 0.65686 0.26922 0.32726 0.0
C367 C 0.64405 0.30742 0.33836 0.0
C368 C 0.63041 0.23942 0.31237 0.0
C369 C 0.57568 0.2872 0.3163 0.0
C370 C 0.58943 0.24799 0.3064 0.0
C371 C 0.60303 0.31751 0.33236 0.0
H372 H 0.55938 0.36585 0.33668 0.0
N373 N 0.71209 0.3264 0.35799 0.0
C374 C 0.67248 0.3369 0.35289 0.0
C375 C 0.68879 0.40584 0.37816 0.0
C376 C 0.65995 0.37703 0.36224 0.0
C377 C 0.7397 0.35394 0.37726 0.0
C378 C 0.72871 0.39412 0.38636 0.0
O379 O 0.81327 0.21364 0.25566 0.0
O380 O 0.77874 0.215 0.34448 0.0
O381 O 0.72464 0.26819 0.43733 0.0
O382 O 0.69305 0.21592 0.40008 0.0
O383 O 0.73191 0.22551 0.19461 0.0
O384 O 0.72063 0.20141 0.28807 0.0
O385 O 0.69874 0.28276 0.2591 0.0
O386 O 0.75548 0.31283 0.23005 0.0
O387 O 0.76019 0.25428 0.10974 0.0
O388 O 0.8037 0.302 0.12277 0.0
O389 O 0.78938 0.27864 0.35265 0.0
O390 O 0.80226 0.30837 0.26432 0.0
C391 C 0.80733 0.2013 0.30964 0.0
C392 C 0.71587 0.19922 0.23121 0.0
C393 C 0.68821 0.22469 0.50467 0.0
C394 C 0.69684 0.22346 0.61025 0.0
C395 C 0.63573 0.19691 0.56601 0.0
C396 C 0.65044 0.20624 0.51081 0.0
C397 C 0.65865 0.20558 0.6155 0.0
C398 C 0.71148 0.23315 0.55452 0.0
C399 C 0.70208 0.23672 0.44647 0.0
C400 C 0.6191 0.38714 0.35614 0.0
C401 C 0.59075 0.35749 0.34135 0.0
H402 H 0.68037 0.43695 0.38573 0.0
C403 C 0.71652 0.31022 0.22732 0.0
C404 C 0.81255 0.30034 0.3185 0.0
C405 C 0.80139 0.27269 0.02926 0.0
C406 C 0.79645 0.26221 0.92366 0.0
C407 C 0.86205 0.26709 0.97123 0.0
C408 C 0.84355 0.27218 0.02496 0.0
C409 C 0.83889 0.26288 0.92092 0.0
C410 C 0.77802 0.26676 0.97878 0.0
C411 C 0.78179 0.28235 0.08525 0.0
H412 H 0.60645 0.1829 0.57046 0.0
H413 H 0.63195 0.19973 0.47296 0.0
H414 H 0.64687 0.19758 0.65789 0.0
H415 H 0.74074 0.24737 0.55005 0.0
H416 H 0.89456 0.26749 0.96833 0.0
H417 H 0.8624 0.27693 0.06277 0.0
H418 H 0.85463 0.26115 0.87986 0.0
H419 H 0.74556 0.26622 0.98288 0.0
C420 C 0.87294 0.76461 0.86031 0.0
C421 C 0.88056 0.83667 0.8754 0.0
C422 C 0.85612 0.80287 0.86273 0.0
C423 C 0.92179 0.83133 0.88651 0.0
C424 C 0.91442 0.75918 0.87113 0.0
C425 C 0.93868 0.79271 0.88432 0.0
N426 N 0.84889 0.73271 0.847 0.0
C427 C 0.86396 0.6945 0.84596 0.0
C428 C 0.93029 0.72015 0.86842 0.0
C429 C 0.90489 0.68764 0.85604 0.0
Gd430 Gd 0.71907 0.76807 0.6834 0.0
Gd431 Gd 0.78062 0.74689 0.83212 0.0
N432 N 0.81638 0.80728 0.84961 0.0
C433 C 0.86305 0.87498 0.87519 0.0
C434 C 0.79936 0.84468 0.84903 0.0
C435 C 0.8223 0.87897 0.86176 0.0
H436 H 0.76847 0.84857 0.83747 0.0
H437 H 0.80855 0.90852 0.8608 0.0
H438 H 0.72666 0.66672 0.67051 0.0
H439 H 0.84403 0.66913 0.83913 0.0
H440 H 0.68218 0.60901 0.65026 0.0
H441 H 0.88082 0.90167 0.88455 0.0
H442 H 0.94098 0.85696 0.89624 0.0
H443 H 0.66024 0.84998 0.68252 0.0
H444 H 0.96199 0.71477 0.87641 0.0
H445 H 0.91669 0.65726 0.85495 0.0
H446 H 0.55211 0.6685 0.62248 0.0
H447 H 0.9706 0.78912 0.89266 0.0
H448 H 0.54005 0.81173 0.64267 0.0
H449 H 0.58863 0.8663 0.66482 0.0
N450 N 0.6517 0.78677 0.67234 0.0
C451 C 0.6256 0.75629 0.65996 0.0
C452 C 0.63905 0.82592 0.6737 0.0
C453 C 0.5713 0.80436 0.65099 0.0
C454 C 0.59862 0.83527 0.66347 0.0
C455 C 0.58466 0.76436 0.64879 0.0
H456 H 0.52735 0.7384 0.62425 0.0
N457 N 0.67982 0.71014 0.66702 0.0
C458 C 0.64002 0.71696 0.65692 0.0
C459 C 0.62896 0.64557 0.64227 0.0
C460 C 0.61356 0.68479 0.64418 0.0
C461 C 0.69516 0.67207 0.6637 0.0
C462 C 0.66994 0.6392 0.65209 0.0
O463 O 0.81532 0.77773 0.75956 0.0
O464 O 0.7663 0.81337 0.71174 0.0
O465 O 0.73946 0.75383 0.59583 0.0
O466 O 0.70963 0.81058 0.6131 0.0
O467 O 0.72377 0.78453 0.83822 0.0
O468 O 0.71412 0.81725 0.75024 0.0
O469 O 0.68508 0.7359 0.75606 0.0
O470 O 0.73625 0.70087 0.79832 0.0
O471 O 0.75733 0.75852 0.91893 0.0
O472 O 0.79028 0.7036 0.90137 0.0
O473 O 0.77452 0.72898 0.67731 0.0
O474 O 0.78867 0.6972 0.76536 0.0
C475 C 0.80446 0.80535 0.7215 0.0
C476 C 0.70562 0.81152 0.80553 0.0
C477 C 0.69986 0.78125 0.52002 0.0
C478 C 0.69796 0.76652 0.41599 0.0
C479 C 0.63636 0.7831 0.4674 0.0
C480 C 0.65809 0.78775 0.51902 0.0
C481 C 0.65609 0.77256 0.41608 0.0
C482 C 0.71959 0.77065 0.4684 0.0
C483 C 0.72378 0.78637 0.5736 0.0
C484 C 0.57278 0.69278 0.63306 0.0
C485 C 0.55854 0.73249 0.6347 0.0
H486 H 0.60956 0.6201 0.6327 0.0
C487 C 0.69773 0.70816 0.79267 0.0
C488 C 0.79215 0.70062 0.70819 0.0
C489 C 0.79621 0.73173 0.99586 0.0
C490 C 0.79484 0.74492 0.10026 0.0
C491 C 0.85843 0.73231 0.05166 0.0
C492 C 0.83823 0.72744 0.99882 0.0
C493 C 0.83695 0.74098 0.10219 0.0
C494 C 0.7747 0.74052 0.04671 0.0
C495 C 0.77396 0.72637 0.94088 0.0
H496 H 0.60416 0.78801 0.46708 0.0
H497 H 0.64218 0.7969 0.5576 0.0
H498 H 0.63858 0.76909 0.37651 0.0
H499 H 0.75199 0.76665 0.46888 0.0
H500 H 0.89083 0.72911 0.05351 0.0
H501 H 0.85557 0.71993 0.9608 0.0
H502 H 0.85329 0.74475 0.14274 0.0
H503 H 0.74217 0.74303 0.04471 0.0
C504 C 0.48749 0.37692 0.94928 0.0
C505 C 0.41457 0.37233 0.94417 0.0
C506 C 0.45012 0.3956 0.94561 0.0
C507 C 0.41704 0.33014 0.947 0.0
C508 C 0.49009 0.33455 0.95202 0.0
C509 C 0.45465 0.31134 0.95107 0.0
N510 N 0.5212 0.40021 0.95137 0.0
C511 C 0.55848 0.38314 0.95444 0.0
C512 C 0.52824 0.31685 0.95611 0.0
C513 C 0.56256 0.34124 0.95701 0.0
Gd514 Gd 0.50955 0.53946 0.0901 0.0
Gd515 Gd 0.51105 0.47004 0.94919 0.0
N516 N 0.44857 0.43663 0.94536 0.0
C517 C 0.37756 0.39218 0.94013 0.0
C518 C 0.41266 0.45602 0.93888 0.0
C519 C 0.37664 0.43418 0.93696 0.0
H520 H 0.41147 0.48818 0.9343 0.0
H521 H 0.3482 0.44976 0.93256 0.0
H522 H 0.60884 0.51773 0.09721 0.0
H523 H 0.58518 0.40181 0.9544 0.0
H524 H 0.67323 0.55448 0.09601 0.0
H525 H 0.34963 0.37535 0.93856 0.0
H526 H 0.39001 0.31178 0.94626 0.0
H527 H 0.43742 0.60936 0.08698 0.0
H528 H 0.53161 0.28445 0.95851 0.0
H529 H 0.59216 0.32779 0.95968 0.0
H530 H 0.63488 0.69381 0.08677 0.0
H531 H 0.45585 0.27882 0.95366 0.0
H532 H 0.49388 0.72503 0.08343 0.0
H533 H 0.43221 0.68359 0.08313 0.0
N534 N 0.50121 0.60918 0.08524 0.0
C535 C 0.53566 0.6314 0.08641 0.0
C536 C 0.46443 0.62729 0.08452 0.0
C537 C 0.49646 0.69261 0.08355 0.0
C538 C 0.46146 0.66926 0.08337 0.0
C539 C 0.53418 0.67384 0.08494 0.0
H540 H 0.56965 0.72877 0.08387 0.0
N541 N 0.57309 0.57049 0.08927 0.0
C542 C 0.5726 0.61159 0.08872 0.0
C543 C 0.64531 0.61295 0.09067 0.0
C544 C 0.60877 0.63387 0.08873 0.0
C545 C 0.60853 0.55002 0.09354 0.0
C546 C 0.64515 0.57087 0.09351 0.0
O547 O 0.48334 0.44312 0.03 0.0
O548 O 0.45661 0.49582 0.0826 0.0
O549 O 0.53228 0.52678 0.17662 0.0
O550 O 0.47973 0.56451 0.16592 0.0
O551 O 0.47636 0.52951 0.94705 0.0
O552 O 0.45183 0.54112 0.03939 0.0
O553 O 0.53539 0.56548 1.00534 0.0
O554 O 0.56464 0.51022 0.9642 0.0
O555 O 0.49119 0.48806 0.86324 0.0
O556 O 0.54174 0.44748 0.87229 0.0
O557 O 0.53959 0.47857 0.09682 0.0
O558 O 0.56652 0.46499 1.00658 0.0
C559 C 0.4583 0.45723 0.06905 0.0
C560 C 0.45019 0.54642 0.98279 0.0
C561 C 0.48339 0.52373 0.24937 0.0
C562 C 0.47839 0.5077 0.35262 0.0
C563 C 0.4354 0.47364 0.28179 0.0
C564 C 0.45299 0.49565 0.23698 0.0
C565 C 0.44784 0.47958 0.33939 0.0
C566 C 0.49617 0.52954 0.30693 0.0
C567 C 0.5032 0.54595 0.2025 0.0
C568 C 0.60737 0.67619 0.08681 0.0
C569 C 0.5702 0.69611 0.0851 0.0
H570 H 0.67376 0.62898 0.09061 0.0
C571 C 0.56186 0.54937 0.96973 0.0
C572 C 0.56428 0.45839 0.06306 0.0
C573 C 0.54029 0.49049 0.79042 0.0
C574 C 0.54583 0.507 0.68735 0.0
C575 C 0.58959 0.53963 0.75855 0.0
C576 C 0.57146 0.51764 0.80319 0.0
C577 C 0.57697 0.53433 0.7009 0.0
C578 C 0.52745 0.4854 0.73275 0.0
C579 C 0.51953 0.46831 0.8366 0.0
H580 H 0.41206 0.45201 0.27151 0.0
H581 H 0.44291 0.4907 0.19278 0.0
H582 H 0.43322 0.46255 0.37354 0.0
H583 H 0.5204 0.55065 0.31586 0.0
H584 H 0.61363 0.56065 0.7686 0.0
H585 H 0.58167 0.52173 0.84747 0.0
H586 H 0.59205 0.55105 0.66688 0.0
H587 H 0.50274 0.46493 0.72344 0.0
C588 C 0.02351 0.63214 0.42232 0.0
C589 C 0.09507 0.63358 0.40142 0.0
C590 C 0.05969 0.61184 0.41468 0.0
C591 C 0.09327 0.67558 0.3941 0.0
C592 C 0.02186 0.67445 0.41658 0.0
C593 C 0.05678 0.69595 0.40168 0.0
N594 N 0.99046 0.61081 0.43846 0.0
C595 C 0.95486 0.62974 0.44947 0.0
C596 C 0.98532 0.69402 0.42723 0.0
C597 C 0.95171 0.67157 0.44397 0.0
Gd598 Gd 0.01595 0.47394 0.59036 0.0
Gd599 Gd 0.99806 0.54076 0.44314 0.0
N600 N 0.06086 0.57138 0.42467 0.0
C601 C 0.13149 0.61268 0.39779 0.0
C602 C 0.09652 0.55114 0.42229 0.0
C603 C 0.13223 0.57134 0.40865 0.0
H604 H 0.09805 0.51972 0.4321 0.0
H605 H 0.16038 0.55501 0.40703 0.0
H606 H 0.91662 0.49292 0.6103 0.0
H607 H 0.92857 0.6124 0.46076 0.0
H608 H 0.85438 0.45466 0.62607 0.0
H609 H 0.15931 0.62831 0.38786 0.0
H610 H 0.12013 0.69269 0.38378 0.0
H611 H 0.09045 0.40582 0.58883 0.0
H612 H 0.98284 0.72642 0.423 0.0
H613 H 0.92332 0.68643 0.45228 0.0
H614 H 0.89761 0.31697 0.63577 0.0
H615 H 0.05604 0.72845 0.39698 0.0
H616 H 0.03851 0.2894 0.61734 0.0
H617 H 0.09828 0.33225 0.60071 0.0
N618 N 0.02683 0.40449 0.59919 0.0
C619 C 0.99362 0.38163 0.60957 0.0
C620 C 0.06415 0.38738 0.59676 0.0
C621 C 0.03483 0.32163 0.61244 0.0
C622 C 0.0687 0.34574 0.60321 0.0
C623 C 0.99671 0.33943 0.61569 0.0
H624 H 0.96362 0.28387 0.62942 0.0
N625 N 0.95418 0.44122 0.60729 0.0
C626 C 0.95631 0.40044 0.61386 0.0
C627 C 0.88424 0.3971 0.6272 0.0
C628 C 0.92128 0.37729 0.62338 0.0
C629 C 0.9183 0.46073 0.61293 0.0
C630 C 0.88282 0.43901 0.62235 0.0
O631 O 0.03179 0.57144 0.51641 0.0
O632 O 0.06364 0.51843 0.5608 0.0
O633 O 0.00612 0.48864 0.68303 0.0
O634 O 0.06222 0.46103 0.65322 0.0
O635 O 0.03227 0.48196 0.43198 0.0
O636 O 0.06218 0.46434 0.5204 0.0
O637 O 0.9817 0.44252 0.51674 0.0
O638 O 0.95226 0.49829 0.47991 0.0
O639 O 1.00242 0.52043 0.35201 0.0
O640 O 0.95349 0.55989 0.38065 0.0
O641 O 0.98345 0.53354 0.59857 0.0
O642 O 0.9497 0.54664 0.51209 0.0
C643 C 0.05859 0.55741 0.55337 0.0
C644 C 0.05623 0.45927 0.46404 0.0
C645 C 0.0585 0.47395 0.75644 0.0
C646 C 0.05191 0.48154 0.86208 0.0
C647 C 0.11587 0.46149 0.8197 0.0
C648 C 0.09908 0.46327 0.76418 0.0
C649 C 0.09253 0.4703 0.8683 0.0
C650 C 0.03498 0.4833 0.8056 0.0
C651 C 0.04147 0.47441 0.69692 0.0
C652 C 0.92424 0.33521 0.62865 0.0
C653 C 0.96184 0.31635 0.62497 0.0
H654 H 0.85665 0.38038 0.63439 0.0
C655 C 0.95681 0.45924 0.47944 0.0
C656 C 0.95541 0.5524 0.56851 0.0
C657 C 0.95183 0.54069 0.27929 0.0
C658 C 0.95678 0.53303 0.17351 0.0
C659 C 0.89331 0.55236 0.21815 0.0
C660 C 0.91108 0.55096 0.27309 0.0
C661 C 0.91593 0.54374 0.16869 0.0
C662 C 0.97455 0.53134 0.22942 0.0
C663 C 0.97002 0.54037 0.33796 0.0
H664 H 0.14706 0.45288 0.82512 0.0
H665 H 0.11798 0.45604 0.72726 0.0
H666 H 0.10625 0.4676 0.91095 0.0
H667 H 1.00378 0.49192 0.79989 0.0
H668 H 0.86193 0.56059 0.21381 0.0
H669 H 0.89284 0.55797 0.3108 0.0
H670 H 0.90149 0.54627 0.12652 0.0
H671 H 0.00591 0.52299 0.23418 0.0
H672 H 0.06235 0.12743 0.45704 0.0
H673 H 0.13942 0.02335 0.44446 0.0
H674 H 0.18946 0.06299 0.39158 0.0
H675 H 0.21101 0.12718 0.34597 0.0
H676 H 0.13128 0.22944 0.35176 0.0
H677 H 0.08303 0.19093 0.40953 0.0
C678 C 0.09018 0.11348 0.44298 0.0
C679 C 0.09702 0.07239 0.45493 0.0
C680 C 0.11852 0.13625 0.411 0.0
C681 C 0.13319 0.05482 0.4358 0.0
C682 C 0.16193 0.07752 0.4055 0.0
C683 C 0.1832 0.14102 0.36032 0.0
C684 C 0.17504 0.18131 0.34512 0.0
C685 C 0.15489 0.11823 0.39242 0.0
C686 C 0.13844 0.19855 0.36304 0.0
C687 C 0.11078 0.17653 0.39617 0.0
H688 H 0.13955 0.93891 0.55621 0.0
H689 H 0.03226 0.89466 0.63954 0.0
H690 H 0.07174 0.84506 0.69356 0.0
H691 H 0.13707 0.81591 0.72011 0.0
H692 H 0.24551 0.86477 0.64543 0.0
H693 H 0.2057 0.91 0.58447 0.0
C694 C 0.12492 0.91788 0.58546 0.0
C695 C 0.08301 0.92011 0.59353 0.0
C696 C 0.14813 0.89029 0.61818 0.0
C697 C 0.06445 0.89335 0.63253 0.0
C698 C 0.08703 0.86506 0.66355 0.0
C699 C 0.15211 0.83658 0.69093 0.0
C700 C 0.19442 0.83665 0.68751 0.0
C701 C 0.12898 0.86362 0.65745 0.0
C702 C 0.21307 0.86364 0.64874 0.0
C703 C 0.19026 0.88972 0.61392 0.0
H704 H 0.33082 0.88341 0.7992 0.0
H705 H 0.36276 0.77658 0.89525 0.0
H706 H 0.41067 0.81525 0.95389 0.0
H707 H 0.44164 0.87978 0.98087 0.0
H708 H 0.40584 0.9883 0.89184 0.0
H709 H 0.36223 0.94894 0.82725 0.0
C710 C 0.34883 0.86864 0.8323 0.0
C711 C 0.34352 0.8271 0.8425 0.0
C712 C 0.37558 0.89148 0.86748 0.0
C713 C 0.36641 0.80848 0.88644 0.0
C714 C 0.39377 0.8306 0.92013 0.0
C715 C 0.42426 0.89494 0.94763 0.0
C716 C 0.42711 0.9371 0.94181 0.0
C717 C 0.39823 0.87221 0.91167 0.0
C718 C 0.40433 0.95595 0.89778 0.0
C719 C 0.37927 0.9334 0.86065 0.0
H720 H 0.3892 0.09173 0.034 0.0
H721 H 0.4598 0.07028 0.18915 0.0
H722 H 0.41278 0.10959 0.24645 0.0
H723 H 0.35167 0.15028 0.25302 0.0
H724 H 0.28673 0.18043 0.09637 0.0
H725 H 0.33078 0.13712 0.0398 0.0
C726 C 0.39503 0.0965 0.0799 0.0
C727 C 0.42856 0.0783 0.10651 0.0
C728 C 0.36844 0.1204 0.11286 0.0
C729 C 0.43438 0.08375 0.16693 0.0
C730 C 0.40742 0.10629 0.20008 0.0
C731 C 0.34756 0.14832 0.20663 0.0
C732 C 0.31639 0.16983 0.17952 0.0
C733 C 0.37436 0.12485 0.17355 0.0
C734 C 0.31075 0.1649 0.11896 0.0
C735 C 0.33605 0.14009 0.08622 0.0
H736 H 0.95889 0.90628 0.6499 0.0
H737 H 0.87786 0.95075 0.51821 0.0
H738 H 0.82372 0.90821 0.55673 0.0
H739 H 0.79891 0.85898 0.63012 0.0
H740 H 0.88389 0.80897 0.75259 0.0
H741 H 0.93619 0.85329 0.71662 0.0
C742 C 0.92939 0.90665 0.6296 0.0
C743 C 0.92241 0.93187 0.58148 0.0
C744 C 0.89872 0.88142 0.65113 0.0
C745 C 0.88412 0.93152 0.55517 0.0
C746 C 0.85306 0.90731 0.57741 0.0
C747 C 0.82882 0.85789 0.64906 0.0
C748 C 0.8366 0.83161 0.69609 0.0
C749 C 0.85989 0.88224 0.62575 0.0
C750 C 0.87609 0.82985 0.71843 0.0
C751 C 0.90644 0.85499 0.69727 0.0
H752 H 0.94883 0.08201 0.37584 0.0
H753 H 0.88581 0.08061 0.53993 0.0
H754 H 0.83501 0.12625 0.50033 0.0
H755 H 0.80881 0.16753 0.41918 0.0
H756 H 0.87249 0.16744 0.25574 0.0
H757 H 0.92199 0.12141 0.29476 0.0
C758 C 0.92396 0.09148 0.40309 0.0
C759 C 0.9216 0.07806 0.46112 0.0
C760 C 0.89464 0.11753 0.37998 0.0
C761 C 0.88886 0.09073 0.49535 0.0
C762 C 0.85963 0.1168 0.47266 0.0
C763 C 0.83335 0.15734 0.39186 0.0
C764 C 0.83643 0.17131 0.33397 0.0
C765 C 0.86227 0.13058 0.415 0.0
C766 C 0.86876 0.1575 0.2999 0.0
C767 C 0.89742 0.13103 0.32242 0.0
H768 H 0.68658 0.19226 0.12036 0.0
H769 H 0.68095 0.13591 0.28943 0.0
H770 H 0.63217 0.0869 0.25232 0.0
H771 H 0.59007 0.06026 0.17169 0.0
H772 H 0.59755 0.1169 1.00361 0.0
H773 H 0.64592 0.16519 0.04026 0.0
C774 C 0.67495 0.16919 0.1492 0.0
C775 C 0.68758 0.16809 0.20776 0.0
C776 C 0.64679 0.14102 0.12769 0.0
C777 C 0.67185 0.13779 0.24418 0.0
C778 C 0.64381 0.10965 0.22301 0.0
C779 C 0.6022 0.08318 0.14303 0.0
C780 C 0.58964 0.08463 0.08424 0.0
C781 C 0.63083 0.11106 0.16481 0.0
C782 C 0.60625 0.11455 0.04831 0.0
C783 C 0.63418 0.14245 0.06955 0.0
H784 H 0.71532 0.86361 0.89651 0.0
H785 H 0.62577 0.81191 0.78313 0.0
H786 H 0.57468 0.85707 0.82265 0.0
H787 H 0.55563 0.91125 0.8902 0.0
H788 H 0.64342 0.9579 1.01168 0.0
H789 H 0.69515 0.91443 0.96915 0.0
C790 C 0.68481 0.86275 0.87986 0.0
C791 C 0.67488 0.83707 0.83322 0.0
C792 C 0.65529 0.88756 0.90498 0.0
C793 C 0.63472 0.83431 0.81479 0.0
C794 C 0.60535 0.85936 0.83859 0.0
C795 C 0.58618 0.91207 0.90703 0.0
C796 C 0.59596 0.93803 0.95338 0.0
C797 C 0.61543 0.88651 0.88319 0.0
C798 C 0.63534 0.93819 0.9758 0.0
C799 C 0.66486 0.9134 0.95151 0.0
H800 H 0.55079 0.6239 0.92167 0.0
H801 H 0.64097 0.53306 0.95184 0.0
H802 H 0.69109 0.57406 0.90117 0.0
H803 H 0.70934 0.63542 0.84664 0.0
H804 H 0.61798 0.72406 0.80967 0.0
H805 H 0.56855 0.68438 0.8637 0.0
C806 C 0.58149 0.61329 0.91734 0.0
C807 C 0.59217 0.57554 0.94069 0.0
C808 C 0.60998 0.63657 0.88641 0.0
C809 C 0.63195 0.56194 0.93415 0.0
C810 C 0.66064 0.58539 0.90512 0.0
C811 C 0.67863 0.64609 0.85038 0.0
C812 C 0.66761 0.6829 0.82422 0.0
C813 C 0.65001 0.62267 0.88073 0.0
C814 C 0.62745 0.69591 0.82919 0.0
C815 C 0.5991 0.67324 0.86031 0.0
H816 H 0.63499 0.31916 0.21909 0.0
H817 H 0.74615 0.36151 0.14448 0.0
H818 H 0.7089 0.40766 0.08159 0.0
H819 H 0.64444 0.43983 0.05218 0.0
H820 H 0.53535 0.40403 0.13902 0.0
H821 H 0.57165 0.35223 0.19287 0.0
C822 C 0.65117 0.33872 0.18968 0.0
C823 C 0.69341 0.33697 0.18733 0.0
C824 C 0.62968 0.36659 0.1555 0.0
C825 C 0.71365 0.36212 0.14759 0.0
C826 C 0.69234 0.38868 0.11154 0.0
C827 C 0.6287 0.42017 0.08221 0.0
C828 C 0.58711 0.42514 0.09068 0.0
C829 C 0.65031 0.39167 0.11561 0.0
C830 C 0.56719 0.40024 0.13091 0.0
C831 C 0.588 0.37077 0.16207 0.0
H832 H 0.94223 0.37809 0.48647 0.0
H833 H 0.91172 0.48391 0.38682 0.0
H834 H 0.8678 0.44371 0.32417 0.0
H835 H 0.83489 0.37881 0.30042 0.0
H836 H 0.86165 0.27421 0.40455 0.0
H837 H 0.90986 0.31332 0.46237 0.0
C838 C 0.92608 0.39235 0.45097 0.0
C839 C 0.93042 0.43405 0.44151 0.0
C840 C 0.9 0.36913 0.41573 0.0
C841 C 0.90903 0.45193 0.3953 0.0
C842 C 0.88383 0.42892 0.3593 0.0
C843 C 0.85192 0.36448 0.33499 0.0
C844 C 0.84504 0.32358 0.34782 0.0
C845 C 0.87877 0.38752 0.36932 0.0
C846 C 0.86656 0.30563 0.39374 0.0
C847 C 0.89404 0.328 0.42694 0.0
H848 H 0.85645 0.65715 0.74619 0.0
H849 H 0.78362 0.67832 0.59412 0.0
H850 H 0.82651 0.63334 0.5374 0.0
H851 H 0.88562 0.58862 0.53109 0.0
H852 H 0.96119 0.5733 0.68297 0.0
H853 H 0.91585 0.61472 0.74 0.0
C854 C 0.84958 0.65177 0.70118 0.0
C855 C 0.81669 0.67107 0.67514 0.0
C856 C 0.87505 0.62686 0.66852 0.0
C857 C 0.80881 0.66393 0.61567 0.0
C858 C 0.83335 0.63819 0.58307 0.0
C859 C 0.89266 0.59493 0.57627 0.0
C860 C 0.92728 0.57821 0.60206 0.0
C861 C 0.86688 0.61979 0.60893 0.0
C862 C 0.93496 0.58575 0.66148 0.0
C863 C 0.90902 0.60952 0.69439 0.0
H864 H 0.37078 0.30573 0.17743 0.0
H865 H 0.27113 0.38851 0.18342 0.0
H866 H 0.31416 0.44262 0.14573 0.0
H867 H 0.38049 0.46607 0.10838 0.0
H868 H 0.47674 0.3797 0.0924 0.0
H869 H 0.4352 0.32789 0.13678 0.0
C870 C 0.35852 0.33564 0.17047 0.0
C871 C 0.31788 0.3431 0.18307 0.0
C872 C 0.38308 0.3662 0.14723 0.0
C873 C 0.3023 0.38193 0.17351 0.0
C874 C 0.32695 0.41293 0.1522 0.0
C875 C 0.39237 0.43603 0.11532 0.0
C876 C 0.4321 0.42718 0.09843 0.0
C877 C 0.36745 0.40544 0.13859 0.0
C878 C 0.44666 0.38772 0.10614 0.0
C879 C 0.42279 0.35785 0.1312 0.0
H880 H 0.44526 0.57536 0.87225 0.0
H881 H 0.38406 0.57867 0.03764 0.0
H882 H 0.33635 0.62797 0.99926 0.0
H883 H 0.31201 0.67081 0.91803 0.0
H884 H 0.37079 0.66165 0.75212 0.0
H885 H 0.41867 0.61413 0.79061 0.0
C886 C 0.42142 0.58662 0.90003 0.0
C887 C 0.41917 0.57406 0.95836 0.0
C888 C 0.39335 0.61409 0.87728 0.0
C889 C 0.38752 0.58873 0.99312 0.0
C890 C 0.35992 0.61676 0.97105 0.0
C891 C 0.33531 0.65844 0.89031 0.0
C892 C 0.33772 0.6705 0.8315 0.0
C893 C 0.36268 0.62995 0.91316 0.0
C894 C 0.36788 0.65346 0.79669 0.0
C895 C 0.39555 0.62603 0.81907 0.0
H896 H 0.16599 0.70448 0.63622 0.0
H897 H 0.20882 0.61685 0.75984 0.0
H898 H 0.16443 0.56545 0.71667 0.0
H899 H 0.11318 0.54556 0.64254 0.0
H900 H 0.06615 0.6373 0.52798 0.0
H901 H 0.11259 0.68628 0.56783 0.0
C902 C 0.16578 0.67406 0.65353 0.0
C903 C 0.19097 0.66431 0.70062 0.0
C904 C 0.13956 0.64515 0.62957 0.0
C905 C 0.18972 0.62502 0.72344 0.0
C906 C 0.16441 0.59564 0.69868 0.0
C907 C 0.1133 0.57619 0.62611 0.0
C908 C 0.08695 0.58698 0.58043 0.0
C909 C 0.13917 0.6053 0.65148 0.0
C910 C 0.08683 0.62729 0.56121 0.0
C911 C 0.11324 0.65574 0.58455 0.0
H912 H 0.15362 0.30713 0.3815 0.0
H913 H 0.19895 0.39258 0.25653 0.0
H914 H 0.1552 0.44503 0.29666 0.0
H915 H 0.10529 0.46679 0.3693 0.0
H916 H 0.05476 0.37947 0.48627 0.0
H917 H 0.09915 0.3273 0.44775 0.0
C918 C 0.15395 0.33732 0.36338 0.0
C919 C 0.17969 0.34637 0.31693 0.0
C920 C 0.12815 0.36693 0.38575 0.0
C921 C 0.17932 0.38518 0.29259 0.0
C922 C 0.15439 0.4151 0.31548 0.0
C923 C 0.10438 0.4365 0.38675 0.0
C924 C 0.0795 0.42757 0.43436 0.0
C925 C 0.12887 0.4064 0.36238 0.0
C926 C 0.07671 0.38767 0.45391 0.0
C927 C 0.10131 0.35769 0.43071 0.0
H928 H 0.03822 0.08371 0.95756 0.0
H929 H 0.92541 0.03387 0.89754 0.0
H930 H 0.91567 1.00072 0.99129 0.0
H931 H 0.93925 0.98549 0.08929 0.0
H932 H 0.05527 0.02972 0.14684 0.0
H933 H 0.06257 0.06718 0.05637 0.0
C934 C 0.01132 0.06596 0.9654 0.0
C935 C 0.98247 0.06137 0.92088 0.0
C936 C 0.00622 0.0464 0.01917 0.0
C937 C 0.94809 0.03771 0.93111 0.0
C938 C 0.94245 0.01887 0.98473 0.0
C939 C 0.96654 1.0027 0.08205 0.0
C940 C 0.99672 1.00419 0.12524 0.0
C941 C 0.97144 0.02279 0.02887 0.0
C942 C 0.03111 0.02813 0.11518 0.0
C943 C 0.0356 0.04932 0.06298 0.0
H944 H 0.22523 0.83151 0.32653 0.0
H945 H 0.28509 0.72503 0.39206 0.0
H946 H 0.27249 0.6906 0.30055 0.0
H947 H 0.24477 0.69011 0.20151 0.0
H948 H 0.18985 0.79759 0.13244 0.0
H949 H 0.20243 0.83284 0.22464 0.0
C950 C 0.23624 0.80104 0.32087 0.0
C951 C 0.25559 0.78108 0.36743 0.0
C952 C 0.23038 0.78163 0.26692 0.0
C953 C 0.26888 0.74117 0.3585 0.0
C954 C 0.26224 0.72142 0.30558 0.0
C955 C 0.23558 0.72129 0.20668 0.0
C956 C 0.21597 0.74108 0.16052 0.0
C957 C 0.24292 0.74128 0.25962 0.0
C958 C 0.20503 0.78172 0.16731 0.0
C959 C 0.21195 0.80176 0.22016 0.0
H960 H 0.46889 0.04843 0.56894 0.0
H961 H 0.50494 0.94304 0.66561 0.0
H962 H 0.53448 0.9141 0.57739 0.0
H963 H 0.54681 0.9173 0.47202 0.0
H964 H 0.51301 0.02424 0.37646 0.0
H965 H 0.48405 0.05298 0.46454 0.0
C966 C 0.48315 0.01906 0.57072 0.0
C967 C 0.48433 0.99777 0.6238 0.0
C968 C 0.49971 1.00249 0.51976 0.0
C969 C 0.50375 0.96018 0.62554 0.0
C970 C 0.52032 0.94347 0.57494 0.0
C971 C 0.5337 0.94717 0.47029 0.0
C972 C 0.53223 0.96832 0.41694 0.0
C973 C 0.51804 0.96416 0.52166 0.0
C974 C 0.51405 0.00665 0.41609 0.0
C975 C 0.49784 0.02343 0.46678 0.0
H976 H 0.30132 0.28443 0.83962 0.0
H977 H 0.17556 0.25924 0.87049 0.0
H978 H 0.16795 0.2353 0.77065 0.0
H979 H 0.19642 0.22311 0.67372 0.0
H980 H 0.32163 0.24975 0.64206 0.0
H981 H 0.3295 0.27314 0.74238 0.0
C982 C 0.27209 0.27421 0.82445 0.0
C983 C 0.23913 0.2737 0.86288 0.0
C984 C 0.26765 0.26116 0.76654 0.0
C985 C 0.2017 0.25945 0.84244 0.0
C986 C 0.19717 0.24604 0.78508 0.0
C987 C 0.22553 0.23364 0.68892 0.0
C988 C 0.2584 0.23448 0.65044 0.0
C989 C 0.22991 0.24685 0.74674 0.0
C990 C 0.29571 0.24911 0.67055 0.0
C991 C 0.30032 0.26224 0.72804 0.0
H992 H 0.81689 0.22346 0.82204 0.0
H993 H 0.72026 0.29191 0.90032 0.0
H994 H 0.68124 0.2855 0.81115 0.0
H995 H 0.67468 0.26156 0.70986 0.0
H996 H 0.7744 0.20053 0.62874 0.0
H997 H 0.81318 0.20551 0.71924 0.0
C998 C 0.78781 0.23806 0.81979 0.0
C999 C 0.77201 0.25813 0.86895 0.0
C1000 C 0.76623 0.23626 0.76725 0.0
C1001 C 0.73333 0.27532 0.86448 0.0
C1002 C 0.71101 0.27223 0.81294 0.0
C1003 C 0.70499 0.24954 0.71211 0.0
C1004 C 0.72162 0.23041 0.66306 0.0
C1005 C 0.72721 0.25287 0.76403 0.0
C1006 C 0.76108 0.21549 0.66598 0.0
C1007 C 0.78309 0.21805 0.71778 0.0
H1008 H 0.68589 0.80028 0.30987 0.0
H1009 H 0.75808 0.71161 0.39928 0.0
H1010 H 0.7943 0.69716 0.30926 0.0
H1011 H 0.80519 0.70954 0.20538 0.0
H1012 H 0.73295 0.798 0.11579 0.0
H1013 H 0.696 0.81182 0.20551 0.0
C1014 C 0.70917 0.7774 0.30948 0.0
C1015 C 0.71923 0.757 0.3611 0.0
C1016 C 0.72965 0.76908 0.25761 0.0
C1017 C 0.75005 0.72803 0.36021 0.0
C1018 C 0.77062 0.7196 0.30875 0.0
C1019 C 0.78159 0.7321 0.20566 0.0
C1020 C 0.77198 0.75292 0.15425 0.0
C1021 C 0.76074 0.74005 0.2573 0.0
C1022 C 0.74073 0.78141 0.15481 0.0
C1023 C 0.71976 0.78947 0.20609 0.0
H1024 H 0.53536 0.56373 0.60297 0.0
H1025 H 0.52671 0.43566 0.63422 0.0
H1026 H 0.50479 0.42472 0.53397 0.0
H1027 H 0.48943 0.45118 0.43694 0.0
H1028 H 0.49756 0.57926 0.40562 0.0
H1029 H 0.51974 0.59026 0.50579 0.0
C1030 C 0.52908 0.53338 0.5877 0.0
C1031 C 0.5327 0.5006 0.62613 0.0
C1032 C 0.51677 0.5272 0.52982 0.0
C1033 C 0.52371 0.46153 0.60583 0.0
C1034 C 0.51142 0.45517 0.54838 0.0
C1035 C 0.49558 0.48156 0.45216 0.0
C1036 C 0.49174 0.5143 0.41373 0.0
C1037 C 0.50787 0.48777 0.51 0.0
C1038 C 0.5007 0.5534 0.43398 0.0
C1039 C 0.51314 0.55979 0.49141 0.0
H1040 H 0.07553 0.52208 0.95967 0.0
H1041 H 0.97355 0.46011 0.88395 0.0
H1042 H 0.9357 0.46976 0.97395 0.0
H1043 H 0.93258 0.49332 0.07521 0.0
H1044 H 0.03472 0.55524 0.15072 0.0
H1045 H 0.07232 0.5459 0.06058 0.0
C1046 C 0.04513 0.51034 0.96289 0.0
C1047 C 0.02759 0.49013 0.91505 0.0
C1048 C 0.02387 0.51521 0.01512 0.0
C1049 C 0.98775 0.47612 0.91969 0.0
C1050 C 0.96621 0.48124 0.97141 0.0
C1051 C 0.96293 0.50515 0.07189 0.0
C1052 C 0.98063 0.52511 0.11985 0.0
C1053 C 0.98413 0.50042 0.01953 0.0
C1054 C 0.02041 0.53931 0.11499 0.0
C1055 C 0.04182 0.53438 0.06318 0.0
loop_
_geom_bond_atom_site_label_1
_geom_bond_atom_site_label_2
_geom_bond_distance
_geom_bond_site_symmetry_2
_ccdc_geom_bond_type
C0 C2 1.422 . S
C0 C4 1.415 . S
C0 N6 1.369 1_655 S
C1 C2 1.421 . S
C1 C3 1.417 . S
C1 C13 1.422 . S
C2 C0 1.422 . S
C2 C1 1.421 . S
C2 N12 1.359 . S
C3 C1 1.417 . S
C3 C5 1.329 . S
C3 H22 0.930 . S
C4 C0 1.415 . S
C4 C5 1.437 . S
C4 C8 1.413 1_655 S
C5 C3 1.329 . S
C5 C4 1.437 . S
C5 H27 0.929 . S
N6 C0 1.369 1_455 S
N6 C7 1.338 . S
N6 Gd11 2.622 . S
C7 N6 1.338 . S
C7 C9 1.378 . S
C7 H19 0.929 . S
C8 C4 1.413 1_455 S
C8 C9 1.348 . S
C8 H24 0.931 . S
C9 C7 1.378 . S
C9 C8 1.348 . S
C9 H25 0.930 . S
Gd10 N30 2.622 . S
Gd10 N37 2.570 1_655 S
Gd10 O44 2.353 1_545 S
Gd10 O45 2.468 1_655 S
Gd10 O46 2.427 . S
Gd10 O48 2.388 . S
Gd10 O49 2.386 1_655 S
Gd10 O53 2.307 1_645 S
Gd10 C63 2.805 . S
Gd11 N6 2.622 . S
Gd11 N12 2.570 1_455 S
Gd11 O43 2.386 1_455 S
Gd11 O47 2.307 1_465 S
Gd11 O50 2.353 1_565 S
Gd11 O51 2.468 1_455 S
Gd11 O52 2.427 . S
Gd11 O54 2.388 . S
Gd11 C75 2.805 . S
N12 C2 1.359 . S
N12 Gd11 2.570 1_655 S
N12 C14 1.343 . S
C13 C1 1.422 . S
C13 C15 1.321 . S
C13 H21 0.931 . S
C14 N12 1.343 . S
C14 C15 1.390 . S
C14 H16 0.931 . S
C15 C13 1.321 . S
C15 C14 1.390 . S
C15 H17 0.930 . S
H16 C14 0.931 . S
H17 C15 0.930 . S
H18 C41 0.931 . S
H19 C7 0.929 . S
H20 C42 0.930 . S
H21 C13 0.931 . S
H22 C3 0.930 . S
H23 C32 0.929 . S
H24 C8 0.931 . S
H25 C9 0.930 . S
H26 C64 0.930 . S
H27 C5 0.929 . S
H28 C33 0.931 . S
H29 C34 0.930 . S
N30 Gd10 2.622 . S
N30 C31 1.369 1_655 S
N30 C32 1.338 . S
C31 N30 1.369 1_455 S
C31 C35 1.415 . S
C31 C38 1.422 . S
C32 H23 0.929 . S
C32 N30 1.338 . S
C32 C34 1.378 . S
C33 H28 0.931 . S
C33 C34 1.348 . S
C33 C35 1.413 1_655 S
C34 H29 0.930 . S
C34 C32 1.378 . S
C34 C33 1.348 . S
C35 C31 1.415 . S
C35 C33 1.413 1_455 S
C35 C65 1.437 . S
H36 C65 0.929 . S
N37 Gd10 2.570 1_455 S
N37 C38 1.359 . S
N37 C41 1.343 . S
C38 C31 1.422 . S
C38 N37 1.359 . S
C38 C40 1.421 . S
C39 C40 1.422 . S
C39 C42 1.321 . S
C39 H66 0.931 . S
C40 C38 1.421 . S
C40 C39 1.422 . S
C40 C64 1.417 . S
C41 H18 0.931 . S
C41 N37 1.343 . S
C41 C42 1.390 . S
C42 H20 0.930 . S
C42 C39 1.321 . S
C42 C41 1.390 . S
O43 Gd11 2.386 1_655 S
O43 C55 1.265 . S
O44 Gd10 2.353 1_565 S
O44 C55 1.242 . S
O45 Gd10 2.468 1_455 S
O45 C63 1.263 1_455 S
O46 Gd10 2.427 . S
O46 C63 1.252 . S
O47 Gd11 2.307 1_645 S
O47 C56 1.261 . S
O48 Gd10 2.388 . S
O48 C56 1.252 . S
O49 Gd10 2.386 1_455 S
O49 C67 1.265 . S
O50 Gd11 2.353 1_545 S
O50 C67 1.242 . S
O51 Gd11 2.468 1_655 S
O51 C75 1.263 1_655 S
O52 Gd11 2.427 . S
O52 C75 1.252 . S
O53 Gd10 2.307 1_465 S
O53 C68 1.261 . S
O54 Gd11 2.388 . S
O54 C68 1.252 . S
C55 O43 1.265 . S
C55 O44 1.242 . S
C56 O47 1.261 . S
C56 O48 1.252 . S
C57 C60 1.394 . S
C57 C62 1.370 . S
C57 C63 1.500 . S
C58 C61 1.383 . S
C58 C62 1.395 . S
C59 C60 1.396 . S
C59 C61 1.365 . S
C59 H76 0.929 . S
C60 C57 1.394 . S
C60 C59 1.396 . S
C60 H77 0.930 . S
C61 C58 1.383 . S
C61 C59 1.365 . S
C61 H78 0.931 . S
C62 C57 1.370 . S
C62 C58 1.395 . S
C62 H79 0.930 1_645 S
C63 Gd10 2.805 . S
C63 O45 1.263 1_655 S
C63 O46 1.252 . S
C63 C57 1.500 . S
C64 H26 0.930 . S
C64 C40 1.417 . S
C64 C65 1.329 . S
C65 C35 1.437 . S
C65 H36 0.929 . S
C65 C64 1.329 . S
H66 C39 0.931 . S
C67 O49 1.265 . S
C67 O50 1.242 . S
C68 O53 1.261 . S
C68 O54 1.252 . S
C69 C72 1.394 . S
C69 C74 1.370 . S
C69 C75 1.500 . S
C70 C73 1.383 . S
C70 C74 1.395 . S
C71 C72 1.396 . S
C71 C73 1.365 . S
C71 H80 0.929 . S
C72 C69 1.394 . S
C72 C71 1.396 . S
C72 H81 0.930 . S
C73 C70 1.383 . S
C73 C71 1.365 . S
C73 H82 0.931 . S
C74 C69 1.370 . S
C74 C70 1.395 . S
C74 H83 0.930 1_465 S
C75 Gd11 2.805 . S
C75 O51 1.263 1_455 S
C75 O52 1.252 . S
C75 C69 1.500 . S
H76 C59 0.929 . S
H77 C60 0.930 . S
H78 C61 0.931 . S
H79 C62 0.930 1_465 S
H80 C71 0.929 . S
H81 C72 0.930 . S
H82 C73 0.931 . S
H83 C74 0.930 1_645 S
C84 C86 1.422 . S
C84 C88 1.415 . S
C84 N90 1.369 . S
C85 C86 1.421 . S
C85 C87 1.417 . S
C85 C97 1.422 . S
C86 C84 1.422 . S
C86 C85 1.421 . S
C86 N96 1.359 . S
C87 C85 1.417 . S
C87 C89 1.329 . S
C87 H106 0.930 . S
C88 C84 1.415 . S
C88 C89 1.437 . S
C88 C92 1.413 . S
C89 C87 1.329 . S
C89 C88 1.437 . S
C89 H111 0.929 . S
N90 C84 1.369 . S
N90 C91 1.338 . S
N90 Gd95 2.622 . S
C91 N90 1.338 . S
C91 C93 1.378 . S
C91 H103 0.929 . S
C92 C88 1.413 . S
C92 C93 1.348 . S
C92 H108 0.931 . S
C93 C91 1.378 . S
C93 C92 1.348 . S
C93 H109 0.930 . S
Gd94 N114 2.622 . S
Gd94 N121 2.570 . S
Gd94 O128 2.353 . S
Gd94 O129 2.468 . S
Gd94 O130 2.427 . S
Gd94 O132 2.388 . S
Gd94 O133 2.386 . S
Gd94 O137 2.307 . S
Gd94 C147 2.805 . S
Gd95 N90 2.622 . S
Gd95 N96 2.570 . S
Gd95 O127 2.386 . S
Gd95 O131 2.307 . S
Gd95 O134 2.353 . S
Gd95 O135 2.468 . S
Gd95 O136 2.427 . S
Gd95 O138 2.388 . S
Gd95 C159 2.805 . S
N96 C86 1.359 . S
N96 Gd95 2.570 . S
N96 C98 1.343 . S
C97 C85 1.422 . S
C97 C99 1.321 . S
C97 H105 0.931 . S
C98 N96 1.343 . S
C98 C99 1.390 . S
C98 H100 0.931 . S
C99 C97 1.321 . S
C99 C98 1.390 . S
C99 H101 0.930 . S
H100 C98 0.931 . S
H101 C99 0.930 . S
H102 C125 0.931 . S
H103 C91 0.929 . S
H104 C126 0.930 . S
H105 C97 0.931 . S
H106 C87 0.930 . S
H107 C116 0.929 . S
H108 C92 0.931 . S
H109 C93 0.930 . S
H110 C148 0.930 . S
H111 C89 0.929 . S
H112 C117 0.931 . S
H113 C118 0.930 . S
N114 Gd94 2.622 . S
N114 C115 1.369 . S
N114 C116 1.338 . S
C115 N114 1.369 . S
C115 C119 1.415 . S
C115 C122 1.422 . S
C116 H107 0.929 . S
C116 N114 1.338 . S
C116 C118 1.378 . S
C117 H112 0.931 . S
C117 C118 1.348 . S
C117 C119 1.413 . S
C118 H113 0.930 . S
C118 C116 1.378 . S
C118 C117 1.348 . S
C119 C115 1.415 . S
C119 C117 1.413 . S
C119 C149 1.437 . S
H120 C149 0.929 . S
N121 Gd94 2.570 . S
N121 C122 1.359 . S
N121 C125 1.343 . S
C122 C115 1.422 . S
C122 N121 1.359 . S
C122 C124 1.421 . S
C123 C124 1.422 . S
C123 C126 1.321 . S
C123 H150 0.931 . S
C124 C122 1.421 . S
C124 C123 1.422 . S
C124 C148 1.417 . S
C125 H102 0.931 . S
C125 N121 1.343 . S
C125 C126 1.390 . S
C126 H104 0.930 . S
C126 C123 1.321 . S
C126 C125 1.390 . S
O127 Gd95 2.386 . S
O127 C139 1.265 . S
O128 Gd94 2.353 . S
O128 C139 1.242 . S
O129 Gd94 2.468 . S
O129 C147 1.263 . S
O130 Gd94 2.427 . S
O130 C147 1.252 . S
O131 Gd95 2.307 . S
O131 C140 1.261 . S
O132 Gd94 2.388 . S
O132 C140 1.252 . S
O133 Gd94 2.386 . S
O133 C151 1.265 . S
O134 Gd95 2.353 . S
O134 C151 1.242 . S
O135 Gd95 2.468 . S
O135 C159 1.263 . S
O136 Gd95 2.427 . S
O136 C159 1.252 . S
O137 Gd94 2.307 . S
O137 C152 1.261 . S
O138 Gd95 2.388 . S
O138 C152 1.252 . S
C139 O127 1.265 . S
C139 O128 1.242 . S
C140 O131 1.261 . S
C140 O132 1.252 . S
C141 C144 1.394 1_556 S
C141 C146 1.371 1_556 S
C141 C147 1.498 . S
C142 C145 1.383 . S
C142 C146 1.395 . S
C143 C144 1.396 . S
C143 C145 1.365 . S
C143 H160 0.929 . S
C144 C141 1.394 1_554 S
C144 C143 1.396 . S
C144 H161 0.930 1_554 S
C145 C142 1.383 . S
C145 C143 1.365 . S
C145 H162 0.931 . S
C146 C141 1.371 1_554 S
C146 C142 1.395 . S
C146 H163 0.930 . S
C147 Gd94 2.805 . S
C147 O129 1.263 . S
C147 O130 1.252 . S
C147 C141 1.498 . S
C148 H110 0.930 . S
C148 C124 1.417 . S
C148 C149 1.329 . S
C149 C119 1.437 . S
C149 H120 0.929 . S
C149 C148 1.329 . S
H150 C123 0.931 . S
C151 O133 1.265 . S
C151 O134 1.242 . S
C152 O137 1.261 . S
C152 O138 1.252 . S
C153 C156 1.394 . S
C153 C158 1.370 . S
C153 C159 1.500 . S
C154 C157 1.383 . S
C154 C158 1.395 . S
C155 C156 1.396 . S
C155 C157 1.365 . S
C155 H164 0.929 . S
C156 C153 1.394 . S
C156 C155 1.396 . S
C156 H165 0.930 . S
C157 C154 1.383 . S
C157 C155 1.365 . S
C157 H166 0.931 . S
C158 C153 1.370 . S
C158 C154 1.395 . S
C158 H167 0.930 . S
C159 Gd95 2.805 . S
C159 O135 1.263 . S
C159 O136 1.252 . S
C159 C153 1.500 . S
H160 C143 0.929 . S
H161 C144 0.930 1_556 S
H162 C145 0.931 . S
H163 C146 0.930 . S
H164 C155 0.929 . S
H165 C156 0.930 . S
H166 C157 0.931 . S
H167 C158 0.930 . S
C168 C170 1.422 . S
C168 C172 1.415 . S
C168 N174 1.369 . S
C169 C170 1.421 . S
C169 C171 1.417 . S
C169 C181 1.422 . S
C170 C168 1.422 . S
C170 C169 1.421 . S
C170 N180 1.359 . S
C171 C169 1.417 . S
C171 C173 1.329 . S
C171 H190 0.930 . S
C172 C168 1.415 . S
C172 C173 1.437 . S
C172 C176 1.413 . S
C173 C171 1.329 . S
C173 C172 1.437 . S
C173 H195 0.929 . S
N174 C168 1.369 . S
N174 C175 1.338 . S
N174 Gd179 2.622 . S
C175 N174 1.338 . S
C175 C177 1.378 . S
C175 H187 0.929 . S
C176 C172 1.413 . S
C176 C177 1.348 . S
C176 H192 0.931 . S
C177 C175 1.378 . S
C177 C176 1.348 . S
C177 H193 0.930 . S
Gd178 N198 2.622 . S
Gd178 N205 2.570 . S
Gd178 O212 2.353 1_565 S
Gd178 O213 2.468 . S
Gd178 O214 2.427 . S
Gd178 O216 2.388 . S
Gd178 O217 2.386 1_554 S
Gd178 O221 2.307 1_565 S
Gd178 C231 2.805 . S
Gd179 N174 2.622 . S
Gd179 N180 2.570 . S
Gd179 O211 2.386 1_556 S
Gd179 O215 2.307 1_545 S
Gd179 O218 2.353 1_545 S
Gd179 O219 2.468 . S
Gd179 O220 2.427 . S
Gd179 O222 2.388 . S
Gd179 C243 2.805 . S
N180 C170 1.359 . S
N180 Gd179 2.570 . S
N180 C182 1.343 . S
C181 C169 1.422 . S
C181 C183 1.321 . S
C181 H189 0.931 . S
C182 N180 1.343 . S
C182 C183 1.390 . S
C182 H184 0.931 . S
C183 C181 1.321 . S
C183 C182 1.390 . S
C183 H185 0.930 . S
H184 C182 0.931 . S
H185 C183 0.930 . S
H186 C209 0.931 . S
H187 C175 0.929 . S
H188 C210 0.930 . S
H189 C181 0.931 . S
H190 C171 0.930 . S
H191 C200 0.929 . S
H192 C176 0.931 . S
H193 C177 0.930 . S
H194 C232 0.930 . S
H195 C173 0.929 . S
H196 C201 0.931 . S
H197 C202 0.930 . S
N198 Gd178 2.622 . S
N198 C199 1.369 . S
N198 C200 1.338 . S
C199 N198 1.369 . S
C199 C203 1.415 . S
C199 C206 1.422 . S
C200 H191 0.929 . S
C200 N198 1.338 . S
C200 C202 1.378 . S
C201 H196 0.931 . S
C201 C202 1.348 . S
C201 C203 1.413 . S
C202 H197 0.930 . S
C202 C200 1.378 . S
C202 C201 1.348 . S
C203 C199 1.415 . S
C203 C201 1.413 . S
C203 C233 1.437 . S
H204 C233 0.929 . S
N205 Gd178 2.570 . S
N205 C206 1.359 . S
N205 C209 1.343 . S
C206 C199 1.422 . S
C206 N205 1.359 . S
C206 C208 1.421 . S
C207 C208 1.422 . S
C207 C210 1.321 . S
C207 H234 0.931 . S
C208 C206 1.421 . S
C208 C207 1.422 . S
C208 C232 1.417 . S
C209 H186 0.931 . S
C209 N205 1.343 . S
C209 C210 1.390 . S
C210 H188 0.930 . S
C210 C207 1.321 . S
C210 C209 1.390 . S
O211 Gd179 2.386 1_554 S
O211 C223 1.265 . S
O212 Gd178 2.353 1_545 S
O212 C223 1.242 . S
O213 Gd178 2.468 . S
O213 C231 1.263 . S
O214 Gd178 2.427 . S
O214 C231 1.252 . S
O215 Gd179 2.307 1_565 S
O215 C224 1.261 . S
O216 Gd178 2.388 . S
O216 C224 1.252 1_554 S
O217 Gd178 2.386 1_556 S
O217 C235 1.265 . S
O218 Gd179 2.353 1_565 S
O218 C235 1.242 . S
O219 Gd179 2.468 . S
O219 C243 1.263 . S
O220 Gd179 2.427 . S
O220 C243 1.252 . S
O221 Gd178 2.307 1_545 S
O221 C236 1.261 . S
O222 Gd179 2.388 . S
O222 C236 1.252 1_556 S
C223 O211 1.265 . S
C223 O212 1.242 . S
C224 O215 1.261 . S
C224 O216 1.252 1_556 S
C225 C228 1.394 . S
C225 C230 1.370 . S
C225 C231 1.500 . S
C226 C229 1.383 . S
C226 C230 1.395 . S
C227 C228 1.396 . S
C227 C229 1.365 . S
C227 H244 0.929 . S
C228 C225 1.394 . S
C228 C227 1.396 . S
C228 H245 0.930 . S
C229 C226 1.383 . S
C229 C227 1.365 . S
C229 H246 0.931 . S
C230 C225 1.370 . S
C230 C226 1.395 . S
C230 H247 0.930 1_565 S
C231 Gd178 2.805 . S
C231 O213 1.263 . S
C231 O214 1.252 . S
C231 C225 1.500 . S
C232 H194 0.930 . S
C232 C208 1.417 . S
C232 C233 1.329 . S
C233 C203 1.437 . S
C233 H204 0.929 . S
C233 C232 1.329 . S
H234 C207 0.931 . S
C235 O217 1.265 . S
C235 O218 1.242 . S
C236 O221 1.261 . S
C236 O222 1.252 1_554 S
C237 C240 1.394 . S
C237 C242 1.370 . S
C237 C243 1.500 . S
C238 C241 1.383 . S
C238 C242 1.395 . S
C239 C240 1.396 . S
C239 C241 1.365 . S
C239 H248 0.929 . S
C240 C237 1.394 . S
C240 C239 1.396 . S
C240 H249 0.930 . S
C241 C238 1.383 . S
C241 C239 1.365 . S
C241 H250 0.931 . S
C242 C237 1.370 . S
C242 C238 1.395 . S
C242 H251 0.930 1_545 S
C243 Gd179 2.805 . S
C243 O219 1.263 . S
C243 O220 1.252 . S
C243 C237 1.500 . S
H244 C227 0.929 . S
H245 C228 0.930 . S
H246 C229 0.931 . S
H247 C230 0.930 1_545 S
H248 C239 0.929 . S
H249 C240 0.930 . S
H250 C241 0.931 . S
H251 C242 0.930 1_565 S
C252 C254 1.422 . S
C252 C256 1.415 . S
C252 N258 1.369 . S
C253 C254 1.421 . S
C253 C255 1.417 . S
C253 C265 1.422 . S
C254 C252 1.422 . S
C254 C253 1.421 . S
C254 N264 1.359 . S
C255 C253 1.417 . S
C255 C257 1.329 . S
C255 H274 0.930 . S
C256 C252 1.415 . S
C256 C257 1.437 . S
C256 C260 1.413 . S
C257 C255 1.329 . S
C257 C256 1.437 . S
C257 H279 0.929 . S
N258 C252 1.369 . S
N258 C259 1.338 . S
N258 Gd263 2.622 . S
C259 N258 1.338 . S
C259 C261 1.378 . S
C259 H271 0.929 . S
C260 C256 1.413 . S
C260 C261 1.348 . S
C260 H276 0.931 . S
C261 C259 1.378 . S
C261 C260 1.348 . S
C261 H277 0.930 . S
Gd262 N282 2.622 . S
Gd262 N289 2.570 . S
Gd262 O296 2.353 . S
Gd262 O297 2.468 . S
Gd262 O298 2.427 . S
Gd262 O300 2.388 . S
Gd262 O301 2.386 . S
Gd262 O305 2.307 . S
Gd262 C315 2.805 . S
Gd263 N258 2.622 . S
Gd263 N264 2.570 . S
Gd263 O295 2.386 . S
Gd263 O299 2.307 . S
Gd263 O302 2.353 . S
Gd263 O303 2.468 . S
Gd263 O304 2.427 . S
Gd263 O306 2.388 . S
Gd263 C327 2.805 . S
N264 C254 1.359 . S
N264 Gd263 2.570 . S
N264 C266 1.343 . S
C265 C253 1.422 . S
C265 C267 1.321 . S
C265 H273 0.931 . S
C266 N264 1.343 . S
C266 C267 1.390 . S
C266 H268 0.931 . S
C267 C265 1.321 . S
C267 C266 1.390 . S
C267 H269 0.930 . S
H268 C266 0.931 . S
H269 C267 0.930 . S
H270 C293 0.931 . S
H271 C259 0.929 . S
H272 C294 0.930 . S
H273 C265 0.931 . S
H274 C255 0.930 . S
H275 C284 0.929 . S
H276 C260 0.931 . S
H277 C261 0.930 . S
H278 C316 0.930 . S
H279 C257 0.929 . S
H280 C285 0.931 . S
H281 C286 0.930 . S
N282 Gd262 2.622 . S
N282 C283 1.369 . S
N282 C284 1.338 . S
C283 N282 1.369 . S
C283 C287 1.415 . S
C283 C290 1.422 . S
C284 H275 0.929 . S
C284 N282 1.338 . S
C284 C286 1.378 . S
C285 H280 0.931 . S
C285 C286 1.348 . S
C285 C287 1.413 . S
C286 H281 0.930 . S
C286 C284 1.378 . S
C286 C285 1.348 . S
C287 C283 1.415 . S
C287 C285 1.413 . S
C287 C317 1.437 . S
H288 C317 0.929 . S
N289 Gd262 2.570 . S
N289 C290 1.359 . S
N289 C293 1.343 . S
C290 C283 1.422 . S
C290 N289 1.359 . S
C290 C292 1.421 . S
C291 C292 1.422 . S
C291 C294 1.321 . S
C291 H318 0.931 . S
C292 C290 1.421 . S
C292 C291 1.422 . S
C292 C316 1.417 . S
C293 H270 0.931 . S
C293 N289 1.343 . S
C293 C294 1.390 . S
C294 H272 0.930 . S
C294 C291 1.321 . S
C294 C293 1.390 . S
O295 Gd263 2.386 . S
O295 C307 1.265 . S
O296 Gd262 2.353 . S
O296 C307 1.242 . S
O297 Gd262 2.468 . S
O297 C315 1.263 . S
O298 Gd262 2.427 . S
O298 C315 1.252 . S
O299 Gd263 2.307 . S
O299 C308 1.261 . S
O300 Gd262 2.388 . S
O300 C308 1.252 . S
O301 Gd262 2.386 . S
O301 C319 1.265 . S
O302 Gd263 2.353 . S
O302 C319 1.242 . S
O303 Gd263 2.468 . S
O303 C327 1.263 . S
O304 Gd263 2.427 . S
O304 C327 1.252 . S
O305 Gd262 2.307 . S
O305 C320 1.261 . S
O306 Gd263 2.388 . S
O306 C320 1.252 . S
C307 O295 1.265 . S
C307 O296 1.242 . S
C308 O299 1.261 . S
C308 O300 1.252 . S
C309 C312 1.393 1_554 S
C309 C314 1.370 1_554 S
C309 C315 1.500 . S
C310 C313 1.383 . S
C310 C314 1.395 . S
C311 C312 1.396 . S
C311 C313 1.365 . S
C311 H328 0.929 . S
C312 C309 1.393 1_556 S
C312 C311 1.396 . S
C312 H329 0.930 1_556 S
C313 C310 1.383 . S
C313 C311 1.365 . S
C313 H330 0.931 . S
C314 C309 1.370 1_556 S
C314 C310 1.395 . S
C314 H331 0.930 . S
C315 Gd262 2.805 . S
C315 O297 1.263 . S
C315 O298 1.252 . S
C315 C309 1.500 . S
C316 H278 0.930 . S
C316 C292 1.417 . S
C316 C317 1.329 . S
C317 C287 1.437 . S
C317 H288 0.929 . S
C317 C316 1.329 . S
H318 C291 0.931 . S
C319 O301 1.265 . S
C319 O302 1.242 . S
C320 O305 1.261 . S
C320 O306 1.252 . S
C321 C324 1.394 . S
C321 C326 1.370 . S
C321 C327 1.500 . S
C322 C325 1.383 . S
C322 C326 1.395 . S
C323 C324 1.396 . S
C323 C325 1.365 . S
C323 H332 0.929 . S
C324 C321 1.394 . S
C324 C323 1.396 . S
C324 H333 0.930 . S
C325 C322 1.383 . S
C325 C323 1.365 . S
C325 H334 0.931 . S
C326 C321 1.370 . S
C326 C322 1.395 . S
C326 H335 0.930 . S
C327 Gd263 2.805 . S
C327 O303 1.263 . S
C327 O304 1.252 . S
C327 C321 1.500 . S
H328 C311 0.929 . S
H329 C312 0.930 1_554 S
H330 C313 0.931 . S
H331 C314 0.930 . S
H332 C323 0.929 . S
H333 C324 0.930 . S
H334 C325 0.931 . S
H335 C326 0.930 . S
C336 C338 1.422 . S
C336 C340 1.415 . S
C336 N342 1.369 . S
C337 C338 1.421 . S
C337 C339 1.417 . S
C337 C349 1.422 . S
C338 C336 1.422 . S
C338 C337 1.421 . S
C338 N348 1.359 . S
C339 C337 1.417 . S
C339 C341 1.329 . S
C339 H358 0.930 . S
C340 C336 1.415 . S
C340 C341 1.437 . S
C340 C344 1.413 . S
C341 C339 1.329 . S
C341 C340 1.437 . S
C341 H363 0.929 . S
N342 C336 1.369 . S
N342 C343 1.338 . S
N342 Gd347 2.622 . S
C343 N342 1.338 . S
C343 C345 1.378 . S
C343 H355 0.929 . S
C344 C340 1.413 . S
C344 C345 1.348 . S
C344 H360 0.931 . S
C345 C343 1.378 . S
C345 C344 1.348 . S
C345 H361 0.930 . S
Gd346 N366 2.622 . S
Gd346 N373 2.570 . S
Gd346 O380 2.353 . S
Gd346 O381 2.468 . S
Gd346 O382 2.427 . S
Gd346 O384 2.388 . S
Gd346 O385 2.386 . S
Gd346 O389 2.307 . S
Gd346 C399 2.805 . S
Gd347 N342 2.622 . S
Gd347 N348 2.570 . S
Gd347 O379 2.386 . S
Gd347 O383 2.307 . S
Gd347 O386 2.353 . S
Gd347 O387 2.468 . S
Gd347 O388 2.427 . S
Gd347 O390 2.388 . S
Gd347 C411 2.805 . S
N348 C338 1.359 . S
N348 Gd347 2.570 . S
N348 C350 1.343 . S
C349 C337 1.422 . S
C349 C351 1.321 . S
C349 H357 0.931 . S
C350 N348 1.343 . S
C350 C351 1.390 . S
C350 H352 0.931 . S
C351 C349 1.321 . S
C351 C350 1.390 . S
C351 H353 0.930 . S
H352 C350 0.931 . S
H353 C351 0.930 . S
H354 C377 0.931 . S
H355 C343 0.929 . S
H356 C378 0.930 . S
H357 C349 0.931 . S
H358 C339 0.930 . S
H359 C368 0.929 . S
H360 C344 0.931 . S
H361 C345 0.930 . S
H362 C400 0.930 . S
H363 C341 0.929 . S
H364 C369 0.931 . S
H365 C370 0.930 . S
N366 Gd346 2.622 . S
N366 C367 1.369 . S
N366 C368 1.338 . S
C367 N366 1.369 . S
C367 C371 1.415 . S
C367 C374 1.422 . S
C368 H359 0.929 . S
C368 N366 1.338 . S
C368 C370 1.378 . S
C369 H364 0.931 . S
C369 C370 1.348 . S
C369 C371 1.413 . S
C370 H365 0.930 . S
C370 C368 1.378 . S
C370 C369 1.348 . S
C371 C367 1.415 . S
C371 C369 1.413 . S
C371 C401 1.437 . S
H372 C401 0.929 . S
N373 Gd346 2.570 . S
N373 C374 1.359 . S
N373 C377 1.343 . S
C374 C367 1.422 . S
C374 N373 1.359 . S
C374 C376 1.421 . S
C375 C376 1.422 . S
C375 C378 1.321 . S
C375 H402 0.931 . S
C376 C374 1.421 . S
C376 C375 1.422 . S
C376 C400 1.417 . S
C377 H354 0.931 . S
C377 N373 1.343 . S
C377 C378 1.390 . S
C378 H356 0.930 . S
C378 C375 1.321 . S
C378 C377 1.390 . S
O379 Gd347 2.386 . S
O379 C391 1.265 . S
O380 Gd346 2.353 . S
O380 C391 1.242 . S
O381 Gd346 2.468 . S
O381 C399 1.263 . S
O382 Gd346 2.427 . S
O382 C399 1.252 . S
O383 Gd347 2.307 . S
O383 C392 1.261 . S
O384 Gd346 2.388 . S
O384 C392 1.252 . S
O385 Gd346 2.386 . S
O385 C403 1.265 . S
O386 Gd347 2.353 . S
O386 C403 1.242 . S
O387 Gd347 2.468 . S
O387 C411 1.263 . S
O388 Gd347 2.427 . S
O388 C411 1.252 . S
O389 Gd346 2.307 . S
O389 C404 1.261 . S
O390 Gd347 2.388 . S
O390 C404 1.252 . S
C391 O379 1.265 . S
C391 O380 1.242 . S
C392 O383 1.261 . S
C392 O384 1.252 . S
C393 C396 1.394 . S
C393 C398 1.370 . S
C393 C399 1.500 . S
C394 C397 1.383 . S
C394 C398 1.395 . S
C395 C396 1.396 . S
C395 C397 1.365 . S
C395 H412 0.929 . S
C396 C393 1.394 . S
C396 C395 1.396 . S
C396 H413 0.930 . S
C397 C394 1.383 . S
C397 C395 1.365 . S
C397 H414 0.931 . S
C398 C393 1.370 . S
C398 C394 1.395 . S
C398 H415 0.930 . S
C399 Gd346 2.805 . S
C399 O381 1.263 . S
C399 O382 1.252 . S
C399 C393 1.500 . S
C400 H362 0.930 . S
C400 C376 1.417 . S
C400 C401 1.329 . S
C401 C371 1.437 . S
C401 H372 0.929 . S
C401 C400 1.329 . S
H402 C375 0.931 . S
C403 O385 1.265 . S
C403 O386 1.242 . S
C404 O389 1.261 . S
C404 O390 1.252 . S
C405 C408 1.394 1_554 S
C405 C410 1.371 1_554 S
C405 C411 1.498 . S
C406 C409 1.383 . S
C406 C410 1.395 . S
C407 C408 1.396 . S
C407 C409 1.365 . S
C407 H416 0.929 . S
C408 C405 1.394 1_556 S
C408 C407 1.396 . S
C408 H417 0.930 1_556 S
C409 C406 1.383 . S
C409 C407 1.365 . S
C409 H418 0.931 . S
C410 C405 1.371 1_556 S
C410 C406 1.395 . S
C410 H419 0.930 . S
C411 Gd347 2.805 . S
C411 O387 1.263 . S
C411 O388 1.252 . S
C411 C405 1.498 . S
H412 C395 0.929 . S
H413 C396 0.930 . S
H414 C397 0.931 . S
H415 C398 0.930 . S
H416 C407 0.929 . S
H417 C408 0.930 1_554 S
H418 C409 0.931 . S
H419 C410 0.930 . S
C420 C422 1.422 . S
C420 C424 1.415 . S
C420 N426 1.369 . S
C421 C422 1.421 . S
C421 C423 1.417 . S
C421 C433 1.422 . S
C422 C420 1.422 . S
C422 C421 1.421 . S
C422 N432 1.359 . S
C423 C421 1.417 . S
C423 C425 1.329 . S
C423 H442 0.930 . S
C424 C420 1.415 . S
C424 C425 1.437 . S
C424 C428 1.413 . S
C425 C423 1.329 . S
C425 C424 1.437 . S
C425 H447 0.929 . S
N426 C420 1.369 . S
N426 C427 1.338 . S
N426 Gd431 2.622 . S
C427 N426 1.338 . S
C427 C429 1.378 . S
C427 H439 0.929 . S
C428 C424 1.413 . S
C428 C429 1.348 . S
C428 H444 0.931 . S
C429 C427 1.378 . S
C429 C428 1.348 . S
C429 H445 0.930 . S
Gd430 N450 2.622 . S
Gd430 N457 2.570 . S
Gd430 O464 2.353 . S
Gd430 O465 2.468 . S
Gd430 O466 2.427 . S
Gd430 O468 2.388 . S
Gd430 O469 2.386 . S
Gd430 O473 2.307 . S
Gd430 C483 2.805 . S
Gd431 N426 2.622 . S
Gd431 N432 2.570 . S
Gd431 O463 2.386 . S
Gd431 O467 2.307 . S
Gd431 O470 2.353 . S
Gd431 O471 2.468 . S
Gd431 O472 2.427 . S
Gd431 O474 2.388 . S
Gd431 C495 2.805 . S
N432 C422 1.359 . S
N432 Gd431 2.570 . S
N432 C434 1.343 . S
C433 C421 1.422 . S
C433 C435 1.321 . S
C433 H441 0.931 . S
C434 N432 1.343 . S
C434 C435 1.390 . S
C434 H436 0.931 . S
C435 C433 1.321 . S
C435 C434 1.390 . S
C435 H437 0.930 . S
H436 C434 0.931 . S
H437 C435 0.930 . S
H438 C461 0.931 . S
H439 C427 0.929 . S
H440 C462 0.930 . S
H441 C433 0.931 . S
H442 C423 0.930 . S
H443 C452 0.929 . S
H444 C428 0.931 . S
H445 C429 0.930 . S
H446 C484 0.930 . S
H447 C425 0.929 . S
H448 C453 0.931 . S
H449 C454 0.930 . S
N450 Gd430 2.622 . S
N450 C451 1.369 . S
N450 C452 1.338 . S
C451 N450 1.369 . S
C451 C455 1.415 . S
C451 C458 1.422 . S
C452 H443 0.929 . S
C452 N450 1.338 . S
C452 C454 1.378 . S
C453 H448 0.931 . S
C453 C454 1.348 . S
C453 C455 1.413 . S
C454 H449 0.930 . S
C454 C452 1.378 . S
C454 C453 1.348 . S
C455 C451 1.415 . S
C455 C453 1.413 . S
C455 C485 1.437 . S
H456 C485 0.929 . S
N457 Gd430 2.570 . S
N457 C458 1.359 . S
N457 C461 1.343 . S
C458 C451 1.422 . S
C458 N457 1.359 . S
C458 C460 1.421 . S
C459 C460 1.422 . S
C459 C462 1.321 . S
C459 H486 0.931 . S
C460 C458 1.421 . S
C460 C459 1.422 . S
C460 C484 1.417 . S
C461 H438 0.931 . S
C461 N457 1.343 . S
C461 C462 1.390 . S
C462 H440 0.930 . S
C462 C459 1.321 . S
C462 C461 1.390 . S
O463 Gd431 2.386 . S
O463 C475 1.265 . S
O464 Gd430 2.353 . S
O464 C475 1.242 . S
O465 Gd430 2.468 . S
O465 C483 1.263 . S
O466 Gd430 2.427 . S
O466 C483 1.252 . S
O467 Gd431 2.307 . S
O467 C476 1.261 . S
O468 Gd430 2.388 . S
O468 C476 1.252 . S
O469 Gd430 2.386 . S
O469 C487 1.265 . S
O470 Gd431 2.353 . S
O470 C487 1.242 . S
O471 Gd431 2.468 . S
O471 C495 1.263 . S
O472 Gd431 2.427 . S
O472 C495 1.252 . S
O473 Gd430 2.307 . S
O473 C488 1.261 . S
O474 Gd431 2.388 . S
O474 C488 1.252 . S
C475 O463 1.265 . S
C475 O464 1.242 . S
C476 O467 1.261 . S
C476 O468 1.252 . S
C477 C480 1.394 . S
C477 C482 1.370 . S
C477 C483 1.500 . S
C478 C481 1.383 . S
C478 C482 1.395 . S
C479 C480 1.396 . S
C479 C481 1.365 . S
C479 H496 0.929 . S
C480 C477 1.394 . S
C480 C479 1.396 . S
C480 H497 0.930 . S
C481 C478 1.383 . S
C481 C479 1.365 . S
C481 H498 0.931 . S
C482 C477 1.370 . S
C482 C478 1.395 . S
C482 H499 0.930 . S
C483 Gd430 2.805 . S
C483 O465 1.263 . S
C483 O466 1.252 . S
C483 C477 1.500 . S
C484 H446 0.930 . S
C484 C460 1.417 . S
C484 C485 1.329 . S
C485 C455 1.437 . S
C485 H456 0.929 . S
C485 C484 1.329 . S
H486 C459 0.931 . S
C487 O469 1.265 . S
C487 O470 1.242 . S
C488 O473 1.261 . S
C488 O474 1.252 . S
C489 C492 1.393 1_556 S
C489 C494 1.370 1_556 S
C489 C495 1.500 . S
C490 C493 1.383 . S
C490 C494 1.395 . S
C491 C492 1.396 . S
C491 C493 1.365 . S
C491 H500 0.929 . S
C492 C489 1.393 1_554 S
C492 C491 1.396 . S
C492 H501 0.930 1_554 S
C493 C490 1.383 . S
C493 C491 1.365 . S
C493 H502 0.931 . S
C494 C489 1.370 1_554 S
C494 C490 1.395 . S
C494 H503 0.930 . S
C495 Gd431 2.805 . S
C495 O471 1.263 . S
C495 O472 1.252 . S
C495 C489 1.500 . S
H496 C479 0.929 . S
H497 C480 0.930 . S
H498 C481 0.931 . S
H499 C482 0.930 . S
H500 C491 0.929 . S
H501 C492 0.930 1_556 S
H502 C493 0.931 . S
H503 C494 0.930 . S
C504 C506 1.422 . S
C504 C508 1.415 . S
C504 N510 1.369 . S
C505 C506 1.421 . S
C505 C507 1.417 . S
C505 C517 1.422 . S
C506 C504 1.422 . S
C506 C505 1.421 . S
C506 N516 1.359 . S
C507 C505 1.417 . S
C507 C509 1.329 . S
C507 H526 0.930 . S
C508 C504 1.415 . S
C508 C509 1.437 . S
C508 C512 1.413 . S
C509 C507 1.329 . S
C509 C508 1.437 . S
C509 H531 0.929 . S
N510 C504 1.369 . S
N510 C511 1.338 . S
N510 Gd515 2.622 . S
C511 N510 1.338 . S
C511 C513 1.378 . S
C511 H523 0.929 . S
C512 C508 1.413 . S
C512 C513 1.348 . S
C512 H528 0.931 . S
C513 C511 1.378 . S
C513 C512 1.348 . S
C513 H529 0.930 . S
Gd514 N534 2.622 . S
Gd514 N541 2.570 . S
Gd514 O548 2.353 . S
Gd514 O549 2.468 . S
Gd514 O550 2.427 . S
Gd514 O552 2.388 . S
Gd514 O553 2.386 1_554 S
Gd514 O557 2.307 . S
Gd514 C567 2.805 . S
Gd515 N510 2.622 . S
Gd515 N516 2.570 . S
Gd515 O547 2.386 1_556 S
Gd515 O551 2.307 . S
Gd515 O554 2.353 . S
Gd515 O555 2.468 . S
Gd515 O556 2.427 . S
Gd515 O558 2.388 . S
Gd515 C579 2.805 . S
N516 C506 1.359 . S
N516 Gd515 2.570 . S
N516 C518 1.343 . S
C517 C505 1.422 . S
C517 C519 1.321 . S
C517 H525 0.931 . S
C518 N516 1.343 . S
C518 C519 1.390 . S
C518 H520 0.931 . S
C519 C517 1.321 . S
C519 C518 1.390 . S
C519 H521 0.930 . S
H520 C518 0.931 . S
H521 C519 0.930 . S
H522 C545 0.931 . S
H523 C511 0.929 . S
H524 C546 0.930 . S
H525 C517 0.931 . S
H526 C507 0.930 . S
H527 C536 0.929 . S
H528 C512 0.931 . S
H529 C513 0.930 . S
H530 C568 0.930 . S
H531 C509 0.929 . S
H532 C537 0.931 . S
H533 C538 0.930 . S
N534 Gd514 2.622 . S
N534 C535 1.369 . S
N534 C536 1.338 . S
C535 N534 1.369 . S
C535 C539 1.415 . S
C535 C542 1.422 . S
C536 H527 0.929 . S
C536 N534 1.338 . S
C536 C538 1.378 . S
C537 H532 0.931 . S
C537 C538 1.348 . S
C537 C539 1.413 . S
C538 H533 0.930 . S
C538 C536 1.378 . S
C538 C537 1.348 . S
C539 C535 1.415 . S
C539 C537 1.413 . S
C539 C569 1.437 . S
H540 C569 0.929 . S
N541 Gd514 2.570 . S
N541 C542 1.359 . S
N541 C545 1.343 . S
C542 C535 1.422 . S
C542 N541 1.359 . S
C542 C544 1.421 . S
C543 C544 1.422 . S
C543 C546 1.321 . S
C543 H570 0.931 . S
C544 C542 1.421 . S
C544 C543 1.422 . S
C544 C568 1.417 . S
C545 H522 0.931 . S
C545 N541 1.343 . S
C545 C546 1.390 . S
C546 H524 0.930 . S
C546 C543 1.321 . S
C546 C545 1.390 . S
O547 Gd515 2.386 1_554 S
O547 C559 1.265 . S
O548 Gd514 2.353 . S
O548 C559 1.242 . S
O549 Gd514 2.468 . S
O549 C567 1.263 . S
O550 Gd514 2.427 . S
O550 C567 1.252 . S
O551 Gd515 2.307 . S
O551 C560 1.261 . S
O552 Gd514 2.388 . S
O552 C560 1.252 1_554 S
O553 Gd514 2.386 1_556 S
O553 C571 1.265 . S
O554 Gd515 2.353 . S
O554 C571 1.242 . S
O555 Gd515 2.468 . S
O555 C579 1.263 . S
O556 Gd515 2.427 . S
O556 C579 1.252 . S
O557 Gd514 2.307 . S
O557 C572 1.261 . S
O558 Gd515 2.388 . S
O558 C572 1.252 1_556 S
C559 O547 1.265 . S
C559 O548 1.242 . S
C560 O551 1.261 . S
C560 O552 1.252 1_556 S
C561 C564 1.394 . S
C561 C566 1.370 . S
C561 C567 1.500 . S
C562 C565 1.383 . S
C562 C566 1.395 . S
C563 C564 1.396 . S
C563 C565 1.365 . S
C563 H580 0.929 . S
C564 C561 1.394 . S
C564 C563 1.396 . S
C564 H581 0.930 . S
C565 C562 1.383 . S
C565 C563 1.365 . S
C565 H582 0.931 . S
C566 C561 1.370 . S
C566 C562 1.395 . S
C566 H583 0.930 . S
C567 Gd514 2.805 . S
C567 O549 1.263 . S
C567 O550 1.252 . S
C567 C561 1.500 . S
C568 H530 0.930 . S
C568 C544 1.417 . S
C568 C569 1.329 . S
C569 C539 1.437 . S
C569 H540 0.929 . S
C569 C568 1.329 . S
H570 C543 0.931 . S
C571 O553 1.265 . S
C571 O554 1.242 . S
C572 O557 1.261 . S
C572 O558 1.252 1_554 S
C573 C576 1.394 . S
C573 C578 1.370 . S
C573 C579 1.500 . S
C574 C577 1.383 . S
C574 C578 1.395 . S
C575 C576 1.396 . S
C575 C577 1.365 . S
C575 H584 0.929 . S
C576 C573 1.394 . S
C576 C575 1.396 . S
C576 H585 0.930 . S
C577 C574 1.383 . S
C577 C575 1.365 . S
C577 H586 0.931 . S
C578 C573 1.370 . S
C578 C574 1.395 . S
C578 H587 0.930 . S
C579 Gd515 2.805 . S
C579 O555 1.263 . S
C579 O556 1.252 . S
C579 C573 1.500 . S
H580 C563 0.929 . S
H581 C564 0.930 . S
H582 C565 0.931 . S
H583 C566 0.930 . S
H584 C575 0.929 . S
H585 C576 0.930 . S
H586 C577 0.931 . S
H587 C578 0.930 . S
C588 C590 1.422 . S
C588 C592 1.415 . S
C588 N594 1.369 1_455 S
C589 C590 1.421 . S
C589 C591 1.417 . S
C589 C601 1.422 . S
C590 C588 1.422 . S
C590 C589 1.421 . S
C590 N600 1.359 . S
C591 C589 1.417 . S
C591 C593 1.329 . S
C591 H610 0.930 . S
C592 C588 1.415 . S
C592 C593 1.437 . S
C592 C596 1.413 1_455 S
C593 C591 1.329 . S
C593 C592 1.437 . S
C593 H615 0.929 . S
N594 C588 1.369 1_655 S
N594 C595 1.338 . S
N594 Gd599 2.622 . S
C595 N594 1.338 . S
C595 C597 1.378 . S
C595 H607 0.929 . S
C596 C592 1.413 1_655 S
C596 C597 1.348 . S
C596 H612 0.931 . S
C597 C595 1.378 . S
C597 C596 1.348 . S
C597 H613 0.930 . S
Gd598 N618 2.622 . S
Gd598 N625 2.570 1_455 S
Gd598 O632 2.353 . S
Gd598 O633 2.468 1_455 S
Gd598 O634 2.427 . S
Gd598 O636 2.388 . S
Gd598 O637 2.386 1_455 S
Gd598 O641 2.307 1_455 S
Gd598 C651 2.805 . S
Gd599 N594 2.622 . S
Gd599 N600 2.570 1_655 S
Gd599 O631 2.386 1_655 S
Gd599 O635 2.307 1_655 S
Gd599 O638 2.353 . S
Gd599 O639 2.468 1_655 S
Gd599 O640 2.427 . S
Gd599 O642 2.388 . S
Gd599 C663 2.805 . S
N600 C590 1.359 . S
N600 Gd599 2.570 1_455 S
N600 C602 1.343 . S
C601 C589 1.422 . S
C601 C603 1.321 . S
C601 H609 0.931 . S
C602 N600 1.343 . S
C602 C603 1.390 . S
C602 H604 0.931 . S
C603 C601 1.321 . S
C603 C602 1.390 . S
C603 H605 0.930 . S
H604 C602 0.931 . S
H605 C603 0.930 . S
H606 C629 0.931 . S
H607 C595 0.929 . S
H608 C630 0.930 . S
H609 C601 0.931 . S
H610 C591 0.930 . S
H611 C620 0.929 . S
H612 C596 0.931 . S
H613 C597 0.930 . S
H614 C652 0.930 . S
H615 C593 0.929 . S
H616 C621 0.931 . S
H617 C622 0.930 . S
N618 Gd598 2.622 . S
N618 C619 1.369 1_455 S
N618 C620 1.338 . S
C619 N618 1.369 1_655 S
C619 C623 1.415 . S
C619 C626 1.422 . S
C620 H611 0.929 . S
C620 N618 1.338 . S
C620 C622 1.378 . S
C621 H616 0.931 . S
C621 C622 1.348 . S
C621 C623 1.413 1_455 S
C622 H617 0.930 . S
C622 C620 1.378 . S
C622 C621 1.348 . S
C623 C619 1.415 . S
C623 C621 1.413 1_655 S
C623 C653 1.437 . S
H624 C653 0.929 . S
N625 Gd598 2.570 1_655 S
N625 C626 1.359 . S
N625 C629 1.343 . S
C626 C619 1.422 . S
C626 N625 1.359 . S
C626 C628 1.421 . S
C627 C628 1.422 . S
C627 C630 1.321 . S
C627 H654 0.931 . S
C628 C626 1.421 . S
C628 C627 1.422 . S
C628 C652 1.417 . S
C629 H606 0.931 . S
C629 N625 1.343 . S
C629 C630 1.390 . S
C630 H608 0.930 . S
C630 C627 1.321 . S
C630 C629 1.390 . S
O631 Gd599 2.386 1_455 S
O631 C643 1.265 . S
O632 Gd598 2.353 . S
O632 C643 1.242 . S
O633 Gd598 2.468 1_655 S
O633 C651 1.263 1_655 S
O634 Gd598 2.427 . S
O634 C651 1.252 . S
O635 Gd599 2.307 1_455 S
O635 C644 1.261 . S
O636 Gd598 2.388 . S
O636 C644 1.252 . S
O637 Gd598 2.386 1_655 S
O637 C655 1.265 . S
O638 Gd599 2.353 . S
O638 C655 1.242 . S
O639 Gd599 2.468 1_455 S
O639 C663 1.263 1_455 S
O640 Gd599 2.427 . S
O640 C663 1.252 . S
O641 Gd598 2.307 1_655 S
O641 C656 1.261 . S
O642 Gd599 2.388 . S
O642 C656 1.252 . S
C643 O631 1.265 . S
C643 O632 1.242 . S
C644 O635 1.261 . S
C644 O636 1.252 . S
C645 C648 1.394 . S
C645 C650 1.370 . S
C645 C651 1.500 . S
C646 C649 1.383 . S
C646 C650 1.395 . S
C647 C648 1.396 . S
C647 C649 1.365 . S
C647 H664 0.929 . S
C648 C645 1.394 . S
C648 C647 1.396 . S
C648 H665 0.930 . S
C649 C646 1.383 . S
C649 C647 1.365 . S
C649 H666 0.931 . S
C650 C645 1.370 . S
C650 C646 1.395 . S
C650 H667 0.930 1_455 S
C651 Gd598 2.805 . S
C651 O633 1.263 1_455 S
C651 O634 1.252 . S
C651 C645 1.500 . S
C652 H614 0.930 . S
C652 C628 1.417 . S
C652 C653 1.329 . S
C653 C623 1.437 . S
C653 H624 0.929 . S
C653 C652 1.329 . S
H654 C627 0.931 . S
C655 O637 1.265 . S
C655 O638 1.242 . S
C656 O641 1.261 . S
C656 O642 1.252 . S
C657 C660 1.394 . S
C657 C662 1.370 . S
C657 C663 1.500 . S
C658 C661 1.383 . S
C658 C662 1.395 . S
C659 C660 1.396 . S
C659 C661 1.365 . S
C659 H668 0.929 . S
C660 C657 1.394 . S
C660 C659 1.396 . S
C660 H669 0.930 . S
C661 C658 1.383 . S
C661 C659 1.365 . S
C661 H670 0.931 . S
C662 C657 1.370 . S
C662 C658 1.395 . S
C662 H671 0.930 1_655 S
C663 Gd599 2.805 . S
C663 O639 1.263 1_655 S
C663 O640 1.252 . S
C663 C657 1.500 . S
H664 C647 0.929 . S
H665 C648 0.930 . S
H666 C649 0.931 . S
H667 C650 0.930 1_655 S
H668 C659 0.929 . S
H669 C660 0.930 . S
H670 C661 0.931 . S
H671 C662 0.930 1_455 S
H672 C678 0.930 . S
H673 C681 0.930 . S
H674 C682 0.930 . S
H675 C683 0.930 . S
H676 C686 0.930 . S
H677 C687 0.930 . S
C678 H672 0.930 . S
C678 C679 1.355 . S
C678 C680 1.415 . S
C679 C678 1.355 . S
C679 C681 1.419 . S
C680 C678 1.415 . S
C680 C685 1.425 . S
C680 C687 1.409 . S
C681 H673 0.930 . S
C681 C679 1.419 . S
C681 C682 1.362 . S
C682 H674 0.930 . S
C682 C681 1.362 . S
C682 C685 1.409 . S
C683 H675 0.930 . S
C683 C684 1.355 . S
C683 C685 1.415 . S
C684 C683 1.355 . S
C684 C686 1.419 . S
C685 C680 1.425 . S
C685 C682 1.409 . S
C685 C683 1.415 . S
C686 H676 0.930 . S
C686 C684 1.419 . S
C686 C687 1.362 . S
C687 H677 0.930 . S
C687 C680 1.409 . S
C687 C686 1.362 . S
H688 C694 0.930 . S
H689 C697 0.930 . S
H690 C698 0.930 . S
H691 C699 0.930 . S
H692 C702 0.930 . S
H693 C703 0.930 . S
C694 H688 0.930 . S
C694 C695 1.355 . S
C694 C696 1.415 . S
C695 C694 1.355 . S
C695 C697 1.419 . S
C696 C694 1.415 . S
C696 C701 1.425 . S
C696 C703 1.409 . S
C697 H689 0.930 . S
C697 C695 1.419 . S
C697 C698 1.362 . S
C698 H690 0.930 . S
C698 C697 1.362 . S
C698 C701 1.409 . S
C699 H691 0.930 . S
C699 C700 1.355 . S
C699 C701 1.415 . S
C700 C699 1.355 . S
C700 C702 1.419 . S
C701 C696 1.425 . S
C701 C698 1.409 . S
C701 C699 1.415 . S
C702 H692 0.930 . S
C702 C700 1.419 . S
C702 C703 1.362 . S
C703 H693 0.930 . S
C703 C696 1.409 . S
C703 C702 1.362 . S
H704 C710 0.930 . S
H705 C713 0.930 . S
H706 C714 0.930 . S
H707 C715 0.930 . S
H708 C718 0.930 . S
H709 C719 0.930 . S
C710 H704 0.930 . S
C710 C711 1.355 . S
C710 C712 1.415 . S
C711 C710 1.355 . S
C711 C713 1.419 . S
C712 C710 1.415 . S
C712 C717 1.425 . S
C712 C719 1.409 . S
C713 H705 0.930 . S
C713 C711 1.419 . S
C713 C714 1.362 . S
C714 H706 0.930 . S
C714 C713 1.362 . S
C714 C717 1.409 . S
C715 H707 0.930 . S
C715 C716 1.355 . S
C715 C717 1.415 . S
C716 C715 1.355 . S
C716 C718 1.419 . S
C717 C712 1.425 . S
C717 C714 1.409 . S
C717 C715 1.415 . S
C718 H708 0.930 . S
C718 C716 1.419 . S
C718 C719 1.362 . S
C719 H709 0.930 . S
C719 C712 1.409 . S
C719 C718 1.362 . S
H720 C726 0.930 . S
H721 C729 0.930 . S
H722 C730 0.930 . S
H723 C731 0.930 . S
H724 C734 0.930 . S
H725 C735 0.930 . S
C726 H720 0.930 . S
C726 C727 1.355 . S
C726 C728 1.415 . S
C727 C726 1.355 . S
C727 C729 1.419 . S
C728 C726 1.415 . S
C728 C733 1.425 . S
C728 C735 1.409 . S
C729 H721 0.930 . S
C729 C727 1.419 . S
C729 C730 1.362 . S
C730 H722 0.930 . S
C730 C729 1.362 . S
C730 C733 1.409 . S
C731 H723 0.930 . S
C731 C732 1.355 . S
C731 C733 1.415 . S
C732 C731 1.355 . S
C732 C734 1.419 . S
C733 C728 1.425 . S
C733 C730 1.409 . S
C733 C731 1.415 . S
C734 H724 0.930 . S
C734 C732 1.419 . S
C734 C735 1.362 . S
C735 H725 0.930 . S
C735 C728 1.409 . S
C735 C734 1.362 . S
H736 C742 0.930 . S
H737 C745 0.930 . S
H738 C746 0.930 . S
H739 C747 0.930 . S
H740 C750 0.930 . S
H741 C751 0.930 . S
C742 H736 0.930 . S
C742 C743 1.355 . S
C742 C744 1.415 . S
C743 C742 1.355 . S
C743 C745 1.419 . S
C744 C742 1.415 . S
C744 C749 1.425 . S
C744 C751 1.409 . S
C745 H737 0.930 . S
C745 C743 1.419 . S
C745 C746 1.362 . S
C746 H738 0.930 . S
C746 C745 1.362 . S
C746 C749 1.409 . S
C747 H739 0.930 . S
C747 C748 1.355 . S
C747 C749 1.415 . S
C748 C747 1.355 . S
C748 C750 1.419 . S
C749 C744 1.425 . S
C749 C746 1.409 . S
C749 C747 1.415 . S
C750 H740 0.930 . S
C750 C748 1.419 . S
C750 C751 1.362 . S
C751 H741 0.930 . S
C751 C744 1.409 . S
C751 C750 1.362 . S
H752 C758 0.930 . S
H753 C761 0.930 . S
H754 C762 0.930 . S
H755 C763 0.930 . S
H756 C766 0.930 . S
H757 C767 0.930 . S
C758 H752 0.930 . S
C758 C759 1.355 . S
C758 C760 1.415 . S
C759 C758 1.355 . S
C759 C761 1.419 . S
C760 C758 1.415 . S
C760 C765 1.425 . S
C760 C767 1.409 . S
C761 H753 0.930 . S
C761 C759 1.419 . S
C761 C762 1.362 . S
C762 H754 0.930 . S
C762 C761 1.362 . S
C762 C765 1.409 . S
C763 H755 0.930 . S
C763 C764 1.355 . S
C763 C765 1.415 . S
C764 C763 1.355 . S
C764 C766 1.419 . S
C765 C760 1.425 . S
C765 C762 1.409 . S
C765 C763 1.415 . S
C766 H756 0.930 . S
C766 C764 1.419 . S
C766 C767 1.362 . S
C767 H757 0.930 . S
C767 C760 1.409 . S
C767 C766 1.362 . S
H768 C774 0.930 . S
H769 C777 0.930 . S
H770 C778 0.930 . S
H771 C779 0.930 . S
H772 C782 0.930 1_556 S
H773 C783 0.930 . S
C774 H768 0.930 . S
C774 C775 1.355 . S
C774 C776 1.415 . S
C775 C774 1.355 . S
C775 C777 1.419 . S
C776 C774 1.415 . S
C776 C781 1.425 . S
C776 C783 1.409 . S
C777 H769 0.930 . S
C777 C775 1.419 . S
C777 C778 1.362 . S
C778 H770 0.930 . S
C778 C777 1.362 . S
C778 C781 1.409 . S
C779 H771 0.930 . S
C779 C780 1.355 . S
C779 C781 1.415 . S
C780 C779 1.355 . S
C780 C782 1.419 . S
C781 C776 1.425 . S
C781 C778 1.409 . S
C781 C779 1.415 . S
C782 H772 0.930 1_554 S
C782 C780 1.419 . S
C782 C783 1.362 . S
C783 H773 0.930 . S
C783 C776 1.409 . S
C783 C782 1.362 . S
H784 C790 0.930 . S
H785 C793 0.930 . S
H786 C794 0.930 . S
H787 C795 0.930 . S
H788 C798 0.930 . S
H789 C799 0.930 . S
C790 H784 0.930 . S
C790 C791 1.355 . S
C790 C792 1.415 . S
C791 C790 1.355 . S
C791 C793 1.419 . S
C792 C790 1.415 . S
C792 C797 1.425 . S
C792 C799 1.409 . S
C793 H785 0.930 . S
C793 C791 1.419 . S
C793 C794 1.362 . S
C794 H786 0.930 . S
C794 C793 1.362 . S
C794 C797 1.409 . S
C795 H787 0.930 . S
C795 C796 1.355 . S
C795 C797 1.415 . S
C796 C795 1.355 . S
C796 C798 1.419 . S
C797 C792 1.425 . S
C797 C794 1.409 . S
C797 C795 1.415 . S
C798 H788 0.930 . S
C798 C796 1.419 . S
C798 C799 1.362 . S
C799 H789 0.930 . S
C799 C792 1.409 . S
C799 C798 1.362 . S
H800 C806 0.930 . S
H801 C809 0.930 . S
H802 C810 0.930 . S
H803 C811 0.930 . S
H804 C814 0.930 . S
H805 C815 0.930 . S
C806 H800 0.930 . S
C806 C807 1.355 . S
C806 C808 1.415 . S
C807 C806 1.355 . S
C807 C809 1.419 . S
C808 C806 1.415 . S
C808 C813 1.425 . S
C808 C815 1.409 . S
C809 H801 0.930 . S
C809 C807 1.419 . S
C809 C810 1.362 . S
C810 H802 0.930 . S
C810 C809 1.362 . S
C810 C813 1.409 . S
C811 H803 0.930 . S
C811 C812 1.355 . S
C811 C813 1.415 . S
C812 C811 1.355 . S
C812 C814 1.419 . S
C813 C808 1.425 . S
C813 C810 1.409 . S
C813 C811 1.415 . S
C814 H804 0.930 . S
C814 C812 1.419 . S
C814 C815 1.362 . S
C815 H805 0.930 . S
C815 C808 1.409 . S
C815 C814 1.362 . S
H816 C822 0.930 . S
H817 C825 0.930 . S
H818 C826 0.930 . S
H819 C827 0.930 . S
H820 C830 0.930 . S
H821 C831 0.930 . S
C822 H816 0.930 . S
C822 C823 1.355 . S
C822 C824 1.415 . S
C823 C822 1.355 . S
C823 C825 1.419 . S
C824 C822 1.415 . S
C824 C829 1.425 . S
C824 C831 1.409 . S
C825 H817 0.930 . S
C825 C823 1.419 . S
C825 C826 1.362 . S
C826 H818 0.930 . S
C826 C825 1.362 . S
C826 C829 1.409 . S
C827 H819 0.930 . S
C827 C828 1.355 . S
C827 C829 1.415 . S
C828 C827 1.355 . S
C828 C830 1.419 . S
C829 C824 1.425 . S
C829 C826 1.409 . S
C829 C827 1.415 . S
C830 H820 0.930 . S
C830 C828 1.419 . S
C830 C831 1.362 . S
C831 H821 0.930 . S
C831 C824 1.409 . S
C831 C830 1.362 . S
H832 C838 0.930 . S
H833 C841 0.930 . S
H834 C842 0.930 . S
H835 C843 0.930 . S
H836 C846 0.930 . S
H837 C847 0.930 . S
C838 H832 0.930 . S
C838 C839 1.355 . S
C838 C840 1.415 . S
C839 C838 1.355 . S
C839 C841 1.419 . S
C840 C838 1.415 . S
C840 C845 1.425 . S
C840 C847 1.409 . S
C841 H833 0.930 . S
C841 C839 1.419 . S
C841 C842 1.362 . S
C842 H834 0.930 . S
C842 C841 1.362 . S
C842 C845 1.409 . S
C843 H835 0.930 . S
C843 C844 1.355 . S
C843 C845 1.415 . S
C844 C843 1.355 . S
C844 C846 1.419 . S
C845 C840 1.425 . S
C845 C842 1.409 . S
C845 C843 1.415 . S
C846 H836 0.930 . S
C846 C844 1.419 . S
C846 C847 1.362 . S
C847 H837 0.930 . S
C847 C840 1.409 . S
C847 C846 1.362 . S
H848 C854 0.930 . S
H849 C857 0.930 . S
H850 C858 0.930 . S
H851 C859 0.930 . S
H852 C862 0.930 . S
H853 C863 0.930 . S
C854 H848 0.930 . S
C854 C855 1.355 . S
C854 C856 1.415 . S
C855 C854 1.355 . S
C855 C857 1.419 . S
C856 C854 1.415 . S
C856 C861 1.425 . S
C856 C863 1.409 . S
C857 H849 0.930 . S
C857 C855 1.419 . S
C857 C858 1.362 . S
C858 H850 0.930 . S
C858 C857 1.362 . S
C858 C861 1.409 . S
C859 H851 0.930 . S
C859 C860 1.355 . S
C859 C861 1.415 . S
C860 C859 1.355 . S
C860 C862 1.419 . S
C861 C856 1.425 . S
C861 C858 1.409 . S
C861 C859 1.415 . S
C862 H852 0.930 . S
C862 C860 1.419 . S
C862 C863 1.362 . S
C863 H853 0.930 . S
C863 C856 1.409 . S
C863 C862 1.362 . S
H864 C870 0.930 . S
H865 C873 0.930 . S
H866 C874 0.930 . S
H867 C875 0.930 . S
H868 C878 0.930 . S
H869 C879 0.930 . S
C870 H864 0.930 . S
C870 C871 1.355 . S
C870 C872 1.415 . S
C871 C870 1.355 . S
C871 C873 1.419 . S
C872 C870 1.415 . S
C872 C877 1.425 . S
C872 C879 1.409 . S
C873 H865 0.930 . S
C873 C871 1.419 . S
C873 C874 1.362 . S
C874 H866 0.930 . S
C874 C873 1.362 . S
C874 C877 1.409 . S
C875 H867 0.930 . S
C875 C876 1.355 . S
C875 C877 1.415 . S
C876 C875 1.355 . S
C876 C878 1.419 . S
C877 C872 1.425 . S
C877 C874 1.409 . S
C877 C875 1.415 . S
C878 H868 0.930 . S
C878 C876 1.419 . S
C878 C879 1.362 . S
C879 H869 0.930 . S
C879 C872 1.409 . S
C879 C878 1.362 . S
H880 C886 0.930 . S
H881 C889 0.930 1_554 S
H882 C890 0.930 . S
H883 C891 0.930 . S
H884 C894 0.930 . S
H885 C895 0.930 . S
C886 H880 0.930 . S
C886 C887 1.355 . S
C886 C888 1.415 . S
C887 C886 1.355 . S
C887 C889 1.419 . S
C888 C886 1.415 . S
C888 C893 1.425 . S
C888 C895 1.409 . S
C889 H881 0.930 1_556 S
C889 C887 1.419 . S
C889 C890 1.362 . S
C890 H882 0.930 . S
C890 C889 1.362 . S
C890 C893 1.409 . S
C891 H883 0.930 . S
C891 C892 1.355 . S
C891 C893 1.415 . S
C892 C891 1.355 . S
C892 C894 1.419 . S
C893 C888 1.425 . S
C893 C890 1.409 . S
C893 C891 1.415 . S
C894 H884 0.930 . S
C894 C892 1.419 . S
C894 C895 1.362 . S
C895 H885 0.930 . S
C895 C888 1.409 . S
C895 C894 1.362 . S
H896 C902 0.930 . S
H897 C905 0.930 . S
H898 C906 0.930 . S
H899 C907 0.930 . S
H900 C910 0.930 . S
H901 C911 0.930 . S
C902 H896 0.930 . S
C902 C903 1.355 . S
C902 C904 1.415 . S
C903 C902 1.355 . S
C903 C905 1.419 . S
C904 C902 1.415 . S
C904 C909 1.425 . S
C904 C911 1.409 . S
C905 H897 0.930 . S
C905 C903 1.419 . S
C905 C906 1.362 . S
C906 H898 0.930 . S
C906 C905 1.362 . S
C906 C909 1.409 . S
C907 H899 0.930 . S
C907 C908 1.355 . S
C907 C909 1.415 . S
C908 C907 1.355 . S
C908 C910 1.419 . S
C909 C904 1.425 . S
C909 C906 1.409 . S
C909 C907 1.415 . S
C910 H900 0.930 . S
C910 C908 1.419 . S
C910 C911 1.362 . S
C911 H901 0.930 . S
C911 C904 1.409 . S
C911 C910 1.362 . S
H912 C918 0.930 . S
H913 C921 0.930 . S
H914 C922 0.930 . S
H915 C923 0.930 . S
H916 C926 0.930 . S
H917 C927 0.930 . S
C918 H912 0.930 . S
C918 C919 1.355 . S
C918 C920 1.415 . S
C919 C918 1.355 . S
C919 C921 1.419 . S
C920 C918 1.415 . S
C920 C925 1.425 . S
C920 C927 1.409 . S
C921 H913 0.930 . S
C921 C919 1.419 . S
C921 C922 1.362 . S
C922 H914 0.930 . S
C922 C921 1.362 . S
C922 C925 1.409 . S
C923 H915 0.930 . S
C923 C924 1.355 . S
C923 C925 1.415 . S
C924 C923 1.355 . S
C924 C926 1.419 . S
C925 C920 1.425 . S
C925 C922 1.409 . S
C925 C923 1.415 . S
C926 H916 0.930 . S
C926 C924 1.419 . S
C926 C927 1.362 . S
C927 H917 0.930 . S
C927 C920 1.409 . S
C927 C926 1.362 . S
H928 C934 0.930 . S
H929 C937 0.930 . S
H930 C938 0.930 . S
H931 C939 0.930 . S
H932 C942 0.930 . S
H933 C943 0.930 . S
C934 H928 0.930 . S
C934 C935 1.355 1_455 S
C934 C936 1.415 . S
C935 C934 1.355 1_655 S
C935 C937 1.419 1_565 S
C936 C934 1.415 . S
C936 C941 1.425 1_466 S
C936 C943 1.409 1_556 S
C937 H929 0.930 . S
C937 C935 1.419 1_545 S
C937 C938 1.362 . S
C938 H930 0.930 . S
C938 C937 1.362 . S
C938 C941 1.409 1_556 S
C939 H931 0.930 . S
C939 C940 1.355 1_655 S
C939 C941 1.415 . S
C940 C939 1.355 1_455 S
C940 C942 1.419 1_545 S
C941 C936 1.425 1_644 S
C941 C938 1.409 1_554 S
C941 C939 1.415 . S
C942 H932 0.930 . S
C942 C940 1.419 1_565 S
C942 C943 1.362 . S
C943 H933 0.930 . S
C943 C936 1.409 1_554 S
C943 C942 1.362 . S
H944 C950 0.930 . S
H945 C953 0.930 . S
H946 C954 0.930 . S
H947 C955 0.930 . S
H948 C958 0.930 . S
H949 C959 0.930 . S
C950 H944 0.930 . S
C950 C951 1.355 . S
C950 C952 1.415 . S
C951 C950 1.355 . S
C951 C953 1.419 . S
C952 C950 1.415 . S
C952 C957 1.425 . S
C952 C959 1.409 . S
C953 H945 0.930 . S
C953 C951 1.419 . S
C953 C954 1.362 . S
C954 H946 0.930 . S
C954 C953 1.362 . S
C954 C957 1.409 . S
C955 H947 0.930 . S
C955 C956 1.355 . S
C955 C957 1.415 . S
C956 C955 1.355 . S
C956 C958 1.419 . S
C957 C952 1.425 . S
C957 C954 1.409 . S
C957 C955 1.415 . S
C958 H948 0.930 . S
C958 C956 1.419 . S
C958 C959 1.362 . S
C959 H949 0.930 . S
C959 C952 1.409 . S
C959 C958 1.362 . S
H960 C966 0.930 . S
H961 C969 0.930 . S
H962 C970 0.930 . S
H963 C971 0.930 . S
H964 C974 0.930 . S
H965 C975 0.930 . S
C966 H960 0.930 . S
C966 C967 1.355 1_545 S
C966 C968 1.415 . S
C967 C966 1.355 1_565 S
C967 C969 1.419 . S
C968 C966 1.415 . S
C968 C973 1.425 1_545 S
C968 C975 1.409 . S
C969 H961 0.930 . S
C969 C967 1.419 . S
C969 C970 1.362 . S
C970 H962 0.930 . S
C970 C969 1.362 . S
C970 C973 1.409 . S
C971 H963 0.930 . S
C971 C972 1.355 1_565 S
C971 C973 1.415 . S
C972 C971 1.355 1_545 S
C972 C974 1.419 . S
C973 C968 1.425 1_565 S
C973 C970 1.409 . S
C973 C971 1.415 . S
C974 H964 0.930 . S
C974 C972 1.419 . S
C974 C975 1.362 . S
C975 H965 0.930 . S
C975 C968 1.409 . S
C975 C974 1.362 . S
H976 C982 0.930 . S
H977 C985 0.930 . S
H978 C986 0.930 . S
H979 C987 0.930 . S
H980 C990 0.930 . S
H981 C991 0.930 . S
C982 H976 0.930 . S
C982 C983 1.355 . S
C982 C984 1.415 . S
C983 C982 1.355 . S
C983 C985 1.419 . S
C984 C982 1.415 . S
C984 C989 1.425 . S
C984 C991 1.409 . S
C985 H977 0.930 . S
C985 C983 1.419 . S
C985 C986 1.362 . S
C986 H978 0.930 . S
C986 C985 1.362 . S
C986 C989 1.409 . S
C987 H979 0.930 . S
C987 C988 1.355 . S
C987 C989 1.415 . S
C988 C987 1.355 . S
C988 C990 1.419 . S
C989 C984 1.425 . S
C989 C986 1.409 . S
C989 C987 1.415 . S
C990 H980 0.930 . S
C990 C988 1.419 . S
C990 C991 1.362 . S
C991 H981 0.930 . S
C991 C984 1.409 . S
C991 C990 1.362 . S
H992 C998 0.930 . S
H993 C1001 0.930 . S
H994 C1002 0.930 . S
H995 C1003 0.930 . S
H996 C1006 0.930 . S
H997 C1007 0.930 . S
C998 H992 0.930 . S
C998 C999 1.355 . S
C998 C1000 1.415 . S
C999 C998 1.355 . S
C999 C1001 1.419 . S
C1000 C998 1.415 . S
C1000 C1005 1.425 . S
C1000 C1007 1.409 . S
C1001 H993 0.930 . S
C1001 C999 1.419 . S
C1001 C1002 1.362 . S
C1002 H994 0.930 . S
C1002 C1001 1.362 . S
C1002 C1005 1.409 . S
C1003 H995 0.930 . S
C1003 C1004 1.355 . S
C1003 C1005 1.415 . S
C1004 C1003 1.355 . S
C1004 C1006 1.419 . S
C1005 C1000 1.425 . S
C1005 C1002 1.409 . S
C1005 C1003 1.415 . S
C1006 H996 0.930 . S
C1006 C1004 1.419 . S
C1006 C1007 1.362 . S
C1007 H997 0.930 . S
C1007 C1000 1.409 . S
C1007 C1006 1.362 . S
H1008 C1014 0.930 . S
H1009 C1017 0.930 . S
H1010 C1018 0.930 . S
H1011 C1019 0.930 . S
H1012 C1022 0.930 . S
H1013 C1023 0.930 . S
C1014 H1008 0.930 . S
C1014 C1015 1.355 . S
C1014 C1016 1.415 . S
C1015 C1014 1.355 . S
C1015 C1017 1.419 . S
C1016 C1014 1.415 . S
C1016 C1021 1.425 . S
C1016 C1023 1.409 . S
C1017 H1009 0.930 . S
C1017 C1015 1.419 . S
C1017 C1018 1.362 . S
C1018 H1010 0.930 . S
C1018 C1017 1.362 . S
C1018 C1021 1.409 . S
C1019 H1011 0.930 . S
C1019 C1020 1.355 . S
C1019 C1021 1.415 . S
C1020 C1019 1.355 . S
C1020 C1022 1.419 . S
C1021 C1016 1.425 . S
C1021 C1018 1.409 . S
C1021 C1019 1.415 . S
C1022 H1012 0.930 . S
C1022 C1020 1.419 . S
C1022 C1023 1.362 . S
C1023 H1013 0.930 . S
C1023 C1016 1.409 . S
C1023 C1022 1.362 . S
H1024 C1030 0.930 . S
H1025 C1033 0.930 . S
H1026 C1034 0.930 . S
H1027 C1035 0.930 . S
H1028 C1038 0.930 . S
H1029 C1039 0.930 . S
C1030 H1024 0.930 . S
C1030 C1031 1.355 . S
C1030 C1032 1.415 . S
C1031 C1030 1.355 . S
C1031 C1033 1.419 . S
C1032 C1030 1.415 . S
C1032 C1037 1.425 . S
C1032 C1039 1.409 . S
C1033 H1025 0.930 . S
C1033 C1031 1.419 . S
C1033 C1034 1.362 . S
C1034 H1026 0.930 . S
C1034 C1033 1.362 . S
C1034 C1037 1.409 . S
C1035 H1027 0.930 . S
C1035 C1036 1.355 . S
C1035 C1037 1.415 . S
C1036 C1035 1.355 . S
C1036 C1038 1.419 . S
C1037 C1032 1.425 . S
C1037 C1034 1.409 . S
C1037 C1035 1.415 . S
C1038 H1028 0.930 . S
C1038 C1036 1.419 . S
C1038 C1039 1.362 . S
C1039 H1029 0.930 . S
C1039 C1032 1.409 . S
C1039 C1038 1.362 . S
H1040 C1046 0.930 . S
H1041 C1049 0.930 . S
H1042 C1050 0.930 . S
H1043 C1051 0.930 . S
H1044 C1054 0.930 . S
H1045 C1055 0.930 . S
C1046 H1040 0.930 . S
C1046 C1047 1.355 . S
C1046 C1048 1.415 . S
C1047 C1046 1.355 . S
C1047 C1049 1.419 1_455 S
C1048 C1046 1.415 . S
C1048 C1053 1.425 1_456 S
C1048 C1055 1.409 1_556 S
C1049 H1041 0.930 . S
C1049 C1047 1.419 1_655 S
C1049 C1050 1.362 . S
C1050 H1042 0.930 . S
C1050 C1049 1.362 . S
C1050 C1053 1.409 1_556 S
C1051 H1043 0.930 . S
C1051 C1052 1.355 . S
C1051 C1053 1.415 . S
C1052 C1051 1.355 . S
C1052 C1054 1.419 1_655 S
C1053 C1048 1.425 1_654 S
C1053 C1050 1.409 1_554 S
C1053 C1051 1.415 . S
C1054 H1044 0.930 . S
C1054 C1052 1.419 1_455 S
C1054 C1055 1.362 . S
C1055 H1045 0.930 . S
C1055 C1048 1.409 1_554 S
C1055 C1054 1.362 . S
C679 C67 1.483 . S
C684 C319 1.492 . S
C695 C68 1.514 . S
C700 C151 1.500 . S
C711 C152 1.508 . S
C716 C235 1.485 . S
C727 C236 1.511 . S
C732 C320 1.505 . S
C743 C55 1.507 . S
C748 C475 1.505 . S
C759 C56 1.484 . S
C764 C391 1.498 . S
C775 C392 1.477 . S
C780 C223 1.501 . S
C791 C476 1.491 . S
C796 C224 1.489 . S
C807 C571 1.511 . S
C812 C487 1.483 . S
C823 C403 1.513 . S
C828 C572 1.501 . S
C839 C655 1.509 . S
C844 C404 1.500 . S
C855 C488 1.513 . S
C860 C656 1.512 . S
C871 C307 1.513 . S
C876 C559 1.486 . S
C887 C560 1.485 . S
C892 C139 1.510 . S
C903 C140 1.480 . S
C908 C643 1.486 . S
C919 C308 1.480 . S
C924 C644 1.480 . S
C935 C58 1.259 1_565 S
C940 C70 1.259 1_545 S
C951 C154 1.357 . S
C956 C142 1.357 . S
C967 C238 1.271 1_565 S
C972 C226 1.271 1_545 S
C983 C310 1.245 . S
C988 C322 1.245 . S
C999 C406 1.249 . S
C1004 C394 1.249 . S
C1015 C478 1.322 . S
C1020 C490 1.322 . S
C1031 C574 1.248 . S
C1036 C562 1.248 . S
C1047 C646 1.256 . S
C1052 C658 1.256 . S
