# Generated by pormake.
# Topology umb, (4)-cn, num edge types: 1
# Building blocks:
#     Node 0, Type 0, BuildingBlock: QUQFOY_clean_sbu_1, # of connection points: 4
#     Node 1, Type 0, BuildingBlock: QUQFOY_clean_sbu_1, # of connection points: 4
#     Node 2, Type 0, BuildingBlock: QUQFOY_clean_sbu_1, # of connection points: 4
#     Node 3, Type 0, BuildingBlock: QUQFOY_clean_sbu_1, # of connection points: 4
#     Node 4, Type 0, BuildingBlock: QUQFOY_clean_sbu_1, # of connection points: 4
#     Node 5, Type 0, BuildingBlock: QUQFOY_clean_sbu_1, # of connection points: 4
#     Node 6, Type 0, BuildingBlock: QUQFOY_clean_sbu_1, # of connection points: 4
#     Node 7, Type 0, BuildingBlock: QUQFOY_clean_sbu_1, # of connection points: 4
#     Node 8, Type 0, BuildingBlock: QUQFOY_clean_sbu_1, # of connection points: 4
#     Node 9, Type 0, BuildingBlock: QUQFOY_clean_sbu_1, # of connection points: 4
#     Node 10, Type 0, BuildingBlock: QUQFOY_clean_sbu_1, # of connection points: 4
#     Node 11, Type 0, BuildingBlock: QUQFOY_clean_sbu_1, # of connection points: 4
#     Edge 12, Type (0, 0), BuildingBlock: XIVTED_clean_linker_0, # of connection points: 2
#     Edge 13, Type (0, 0), BuildingBlock: XIVTED_clean_linker_0, # of connection points: 2
#     Edge 14, Type (0, 0), BuildingBlock: XIVTED_clean_linker_0, # of connection points: 2
#     Edge 15, Type (0, 0), BuildingBlock: XIVTED_clean_linker_0, # of connection points: 2
#     Edge 16, Type (0, 0), BuildingBlock: XIVTED_clean_linker_0, # of connection points: 2
#     Edge 17, Type (0, 0), BuildingBlock: XIVTED_clean_linker_0, # of connection points: 2
#     Edge 18, Type (0, 0), BuildingBlock: XIVTED_clean_linker_0, # of connection points: 2
#     Edge 19, Type (0, 0), BuildingBlock: XIVTED_clean_linker_0, # of connection points: 2
#     Edge 20, Type (0, 0), BuildingBlock: XIVTED_clean_linker_0, # of connection points: 2
#     Edge 21, Type (0, 0), BuildingBlock: XIVTED_clean_linker_0, # of connection points: 2
#     Edge 22, Type (0, 0), BuildingBlock: XIVTED_clean_linker_0, # of connection points: 2
#     Edge 23, Type (0, 0), BuildingBlock: XIVTED_clean_linker_0, # of connection points: 2
#     Edge 24, Type (0, 0), BuildingBlock: XIVTED_clean_linker_0, # of connection points: 2
#     Edge 25, Type (0, 0), BuildingBlock: XIVTED_clean_linker_0, # of connection points: 2
#     Edge 26, Type (0, 0), BuildingBlock: XIVTED_clean_linker_0, # of connection points: 2
#     Edge 27, Type (0, 0), BuildingBlock: XIVTED_clean_linker_0, # of connection points: 2
#     Edge 28, Type (0, 0), BuildingBlock: XIVTED_clean_linker_0, # of connection points: 2
#     Edge 29, Type (0, 0), BuildingBlock: XIVTED_clean_linker_0, # of connection points: 2
#     Edge 30, Type (0, 0), BuildingBlock: XIVTED_clean_linker_0, # of connection points: 2
#     Edge 31, Type (0, 0), BuildingBlock: XIVTED_clean_linker_0, # of connection points: 2
#     Edge 32, Type (0, 0), BuildingBlock: XIVTED_clean_linker_0, # of connection points: 2
#     Edge 33, Type (0, 0), BuildingBlock: XIVTED_clean_linker_0, # of connection points: 2
#     Edge 34, Type (0, 0), BuildingBlock: XIVTED_clean_linker_0, # of connection points: 2
#     Edge 35, Type (0, 0), BuildingBlock: XIVTED_clean_linker_0, # of connection points: 2
# Relax obj value: 0.093
# Max RMSD: 0.160
# Mean RMSD: 0.160
data_MOF--net-umb--node1-QUQFOY_clean_sbu_1--edge1-XIVTED_clean_linker_0
_symmetry_space_group_name_H-M    P1
_symmetry_Int_Tables_number       1
_symmetry_cell_setting            triclinic
loop_
_symmetry_equiv_pos_as_xyz
'x, y, z'
_cell_length_a     53.277269
_cell_length_b     53.53299
_cell_length_c     38.687039
_cell_angle_alpha  89.745425
_cell_angle_beta   89.878876
_cell_angle_gamma 120.05201
loop_
_atom_site_label
_atom_site_type_symbol
_atom_site_fract_x
_atom_site_fract_y
_atom_site_fract_z
_atom_type_partial_charge
O0 O 0.55923 0.14096 0.38695 0.0
Cd1 Cd 0.56129 0.13557 0.33461 0.0
Cd2 Cd 0.56601 0.1891 0.33537 0.0
O3 O 0.55329 0.17896 0.38716 0.0
O4 O 0.55452 0.09563 0.33236 0.0
O5 O 0.52586 0.10864 0.30669 0.0
C6 C 0.53215 0.08882 0.31364 0.0
C7 C 0.54839 0.21118 0.29728 0.0
C8 C 0.55525 0.15921 0.40336 0.0
C9 C 0.61888 0.18391 0.31813 0.0
O10 O 0.60862 0.19999 0.32655 0.0
O11 O 0.60251 0.15687 0.31581 0.0
O12 O 0.56446 0.22482 0.32329 0.0
O13 O 0.54091 0.18433 0.29383 0.0
O14 O 0.38102 0.55214 0.72453 0.0
Cd15 Cd 0.39479 0.55993 0.67395 0.0
Cd16 Cd 0.35103 0.5735 0.66929 0.0
O17 O 0.34663 0.56366 0.72204 0.0
O18 O 0.42626 0.55038 0.6746 0.0
O19 O 0.38803 0.52777 0.64094 0.0
C20 C 0.41259 0.53133 0.65135 0.0
C21 C 0.31181 0.55682 0.63091 0.0
C22 C 0.36204 0.55611 0.73948 0.0
C23 C 0.41223 0.62115 0.65711 0.0
O24 O 0.38553 0.61372 0.65769 0.0
O25 O 0.42018 0.60279 0.66239 0.0
O26 O 0.31568 0.575 0.65494 0.0
O27 O 0.32946 0.54688 0.62961 0.0
O28 O 0.8118 0.37983 0.06543 0.0
Cd29 Cd 0.81665 0.39401 1.01508 0.0
Cd30 Cd 0.76006 0.34994 1.01076 0.0
O31 O 0.76584 0.34542 0.06336 0.0
O32 O 0.85736 0.42623 1.01469 0.0
O33 O 0.84215 0.38875 0.98016 0.0
C34 C 0.86283 0.41344 0.99032 0.0
C35 C 0.73963 0.31195 0.97084 0.0
C36 C 0.78891 0.3608 0.08057 0.0
C37 C 0.77121 0.41006 1.00103 0.0
O38 O 0.75247 0.38333 1.0007 0.0
O39 O 0.79777 0.41846 1.00576 0.0
O40 O 0.72433 0.31412 0.99525 0.0
O41 O 0.76708 0.33054 0.97012 0.0
O42 O 0.38933 0.82622 0.38993 0.0
Cd43 Cd 0.37989 0.83215 0.34018 0.0
Cd44 Cd 0.37084 0.77624 0.3334 0.0
O45 O 0.38155 0.78175 0.38578 0.0
O46 O 0.38713 0.87228 0.34186 0.0
O47 O 0.41103 0.85921 0.30657 0.0
C48 C 0.40633 0.87911 0.31802 0.0
C49 C 0.38865 0.75517 0.29435 0.0
C50 C 0.38764 0.8039 0.40389 0.0
C51 C 0.31972 0.78512 0.32416 0.0
O52 O 0.3293 0.76765 0.32346 0.0
O53 O 0.33649 0.8117 0.32995 0.0
O54 O 0.3711 0.74043 0.31905 0.0
O55 O 0.39728 0.78241 0.29261 0.0
O56 O 0.53308 0.39226 0.72598 0.0
Cd57 Cd 0.52183 0.3853 0.67471 0.0
Cd58 Cd 0.57375 0.38595 0.67169 0.0
O59 O 0.57811 0.40081 0.72249 0.0
O60 O 0.48744 0.39035 0.67226 0.0
O61 O 0.52754 0.41744 0.64231 0.0
C62 C 0.50149 0.41106 0.65054 0.0
C63 C 0.61194 0.40351 0.6311 0.0
C64 C 0.55696 0.39865 0.74036 0.0
C65 C 0.51726 0.3294 0.66197 0.0
O66 O 0.54452 0.34243 0.66664 0.0
O67 O 0.50364 0.34312 0.66133 0.0
O68 O 0.61189 0.3896 0.6584 0.0
O69 O 0.59109 0.40906 0.62773 0.0
O70 O 0.12247 0.5507 0.05551 0.0
Cd71 Cd 0.11884 0.53492 1.00634 0.0
Cd72 Cd 0.17477 0.58255 1.00081 0.0
O73 O 0.16703 0.58795 0.05239 0.0
O74 O 0.07908 0.50097 1.00746 0.0
O75 O 0.09203 0.53713 0.97082 0.0
C76 C 0.07235 0.51233 0.98247 0.0
C77 C 0.1962 0.62087 0.96069 0.0
C78 C 0.14418 0.57171 0.06984 0.0
C79 C 0.16763 0.52331 0.99494 0.0
O80 O 0.18478 0.55043 0.99367 0.0
O81 O 0.14064 0.51297 0.99922 0.0
O82 O 0.21061 0.61903 0.98633 0.0
O83 O 0.16905 0.60159 0.95856 0.0
O84 O 0.80905 0.39526 0.35151 0.0
Cd85 Cd 0.81368 0.3883 0.40284 0.0
Cd86 Cd 0.75747 0.37737 0.40566 0.0
O87 O 0.76396 0.38668 0.3528 0.0
O88 O 0.85452 0.39704 0.40405 0.0
O89 O 0.83898 0.42099 0.4353 0.0
C90 C 0.85991 0.41682 0.42625 0.0
C91 C 0.73616 0.39588 0.44342 0.0
C92 C 0.7868 0.39239 0.33586 0.0
C93 C 0.76769 0.32783 0.4188 0.0
O94 O 0.74937 0.3364 0.41713 0.0
O95 O 0.79454 0.34548 0.41517 0.0
O96 O 0.72137 0.37782 0.41946 0.0
O97 O 0.76356 0.40461 0.44502 0.0
O98 O 0.39317 0.82224 0.67704 0.0
Cd99 Cd 0.40924 0.82613 0.7261 0.0
Cd100 Cd 0.36265 0.77008 0.73177 0.0
O101 O 0.35713 0.77715 0.67991 0.0
O102 O 0.44229 0.8663 0.72527 0.0
O103 O 0.40571 0.85179 0.76187 0.0
C104 C 0.43026 0.87215 0.7503 0.0
C105 C 0.32407 0.74836 0.77166 0.0
C106 C 0.3727 0.80019 0.66258 0.0
C107 C 0.42282 0.77893 0.73803 0.0
O108 O 0.3957 0.76134 0.73977 0.0
O109 O 0.43251 0.80561 0.73297 0.0
O110 O 0.32646 0.73404 0.74642 0.0
O111 O 0.34295 0.77555 0.77351 0.0
O112 O 0.56474 0.42037 1.01463 0.0
Cd113 Cd 0.57048 0.43054 0.06618 0.0
Cd114 Cd 0.56736 0.37753 0.06899 0.0
O115 O 0.55358 0.37471 1.01772 0.0
O116 O 0.56555 0.46483 0.06921 0.0
O117 O 0.53712 0.42398 0.097 0.0
C118 C 0.54382 0.45013 0.0895 0.0
C119 C 0.54819 0.33827 0.10811 0.0
C120 C 0.55733 0.39648 1.0 0.0
C121 C 0.62504 0.43262 0.08158 0.0
O122 O 0.61117 0.4056 0.076 0.0
O123 O 0.61225 0.44715 0.08165 0.0
O124 O 0.56262 0.33885 0.08105 0.0
O125 O 0.54301 0.35923 0.11202 0.0
O126 O 0.11787 0.5577 0.34316 0.0
Cd127 Cd 0.11402 0.5691 0.39269 0.0
Cd128 Cd 0.16926 0.57748 0.39828 0.0
O129 O 0.16258 0.56541 0.34638 0.0
O130 O 0.07349 0.56126 0.39396 0.0
O131 O 0.08927 0.53945 0.42894 0.0
C132 C 0.06838 0.54327 0.41875 0.0
C133 C 0.1896 0.55961 0.43838 0.0
C134 C 0.13992 0.55889 0.32881 0.0
C135 C 0.16187 0.62933 0.40497 0.0
O136 O 0.17911 0.61943 0.40629 0.0
O137 O 0.13499 0.6127 0.40018 0.0
O138 O 0.20463 0.57622 0.41313 0.0
O139 O 0.16245 0.55195 0.44011 0.0
O140 O 0.54171 0.1335 0.67792 0.0
Cd141 Cd 0.53336 0.12739 0.73015 0.0
Cd142 Cd 0.58332 0.17875 0.73155 0.0
O143 O 0.58644 0.17048 0.67934 0.0
O144 O 0.49992 0.08753 0.73315 0.0
O145 O 0.54173 0.10074 0.75877 0.0
C146 C 0.51545 0.0809 0.75225 0.0
C147 C 0.62138 0.19624 0.77166 0.0
C148 C 0.56468 0.15182 0.66228 0.0
C149 C 0.52684 0.17675 0.74835 0.0
O150 O 0.55365 0.19203 0.74099 0.0
O151 O 0.51452 0.1495 0.74886 0.0
O152 O 0.62156 0.21196 0.74619 0.0
O153 O 0.6004 0.16978 0.77318 0.0
O154 O 0.39344 0.56138 1.01105 0.0
Cd155 Cd 0.38589 0.54775 0.06169 0.0
Cd156 Cd 0.37292 0.59178 0.06665 0.0
O157 O 0.38219 0.59582 1.01376 0.0
O158 O 0.3956 0.51651 0.06132 0.0
O159 O 0.41845 0.55483 0.0945 0.0
C160 C 0.41495 0.53038 0.0843 0.0
C161 C 0.39008 0.63118 0.10446 0.0
C162 C 0.38948 0.58034 0.99621 0.0
C163 C 0.32473 0.53105 0.07937 0.0
O164 O 0.33254 0.55771 0.07887 0.0
O165 O 0.34285 0.5228 0.07365 0.0
O166 O 0.37161 0.62713 0.08058 0.0
O167 O 0.40003 0.61359 0.10595 0.0
H168 H 0.58911 0.14574 0.4422 0.0
H169 H 0.51794 0.1385 0.62222 0.0
H170 H 0.52594 0.17329 0.45151 0.0
H171 H 0.60977 0.16962 0.61532 0.0
H172 H 0.51628 0.14259 0.55936 0.0
H173 H 0.59299 0.14599 0.50523 0.0
C174 C 0.57588 0.15166 0.45755 0.0
C175 C 0.55695 0.15928 0.4416 0.0
C176 C 0.53676 0.14853 0.57163 0.0
C177 C 0.56116 0.15927 0.51376 0.0
C178 C 0.53775 0.14595 0.60743 0.0
C179 C 0.56404 0.15349 0.62403 0.0
C180 C 0.56208 0.15796 0.55202 0.0
C181 C 0.58907 0.16348 0.60356 0.0
C182 C 0.57834 0.15203 0.49346 0.0
C183 C 0.5407 0.1672 0.46277 0.0
N184 N 0.58741 0.16503 0.56849 0.0
N185 N 0.54284 0.16656 0.49788 0.0
H186 H 0.3378 0.57923 0.78271 0.0
H187 H 0.41173 0.55695 0.95156 0.0
H188 H 0.38674 0.5349 0.7839 0.0
H189 H 0.36477 0.60327 0.95331 0.0
H190 H 0.40308 0.54964 0.8897 0.0
H191 H 0.34574 0.5872 0.84513 0.0
C192 C 0.34971 0.57067 0.79614 0.0
C193 C 0.36164 0.55638 0.7779 0.0
C194 C 0.39481 0.5616 0.90345 0.0
C195 C 0.37134 0.566 0.8492 0.0
C196 C 0.39994 0.56599 0.93884 0.0
C197 C 0.38897 0.58076 0.95781 0.0
C198 C 0.37838 0.57187 0.88661 0.0
C199 C 0.37381 0.59192 0.93975 0.0
C200 C 0.35452 0.57553 0.83172 0.0
C201 C 0.37718 0.5461 0.79672 0.0
N202 N 0.36876 0.58704 0.90522 0.0
N203 N 0.38168 0.55124 0.83114 0.0
H204 H 0.73972 0.37033 0.29224 0.0
H205 H 0.8349 0.38356 0.12485 0.0
H206 H 0.83295 0.40968 0.29196 0.0
H207 H 0.74138 0.33942 0.12385 0.0
H208 H 0.83407 0.39244 0.18645 0.0
H209 H 0.73946 0.36008 0.23043 0.0
C210 C 0.76017 0.37733 0.27911 0.0
C211 C 0.78641 0.39093 0.29746 0.0
C212 C 0.81366 0.38056 0.17293 0.0
C213 C 0.78619 0.37866 0.22685 0.0
C214 C 0.81412 0.37527 0.13771 0.0
C215 C 0.78817 0.36069 0.119 0.0
C216 C 0.78707 0.37149 0.18981 0.0
C217 C 0.76193 0.35057 0.1372 0.0
C218 C 0.75998 0.37115 0.24389 0.0
C219 C 0.81218 0.39913 0.27904 0.0
N220 N 0.76204 0.3564 0.1715 0.0
N221 N 0.81139 0.39277 0.24495 0.0
H222 H 0.36847 0.75612 0.44614 0.0
H223 H 0.39417 0.84707 0.61964 0.0
H224 H 0.40745 0.84881 0.44913 0.0
H225 H 0.34781 0.75396 0.61827 0.0
H226 H 0.39899 0.84765 0.55697 0.0
H227 H 0.36246 0.75449 0.50917 0.0
C228 C 0.37626 0.77616 0.46005 0.0
C229 C 0.38849 0.80265 0.44221 0.0
C230 C 0.38751 0.82704 0.57024 0.0
C231 C 0.38114 0.80087 0.51425 0.0
C232 C 0.38457 0.8267 0.60609 0.0
C233 C 0.37054 0.80043 0.62435 0.0
C234 C 0.37661 0.80092 0.55225 0.0
C235 C 0.35861 0.77472 0.60528 0.0
C236 C 0.3725 0.77518 0.496 0.0
C237 C 0.39784 0.82787 0.46166 0.0
N238 N 0.36216 0.7756 0.5703 0.0
N239 N 0.39387 0.82633 0.49646 0.0
H240 H 0.52389 0.35054 0.95715 0.0
H241 H 0.60444 0.42894 0.78263 0.0
H242 H 0.5899 0.44055 0.95574 0.0
H243 H 0.51224 0.36931 0.78523 0.0
H244 H 0.60477 0.4278 0.84638 0.0
H245 H 0.52439 0.35103 0.89337 0.0
C246 C 0.53845 0.37031 0.94347 0.0
C247 C 0.55658 0.39561 0.96171 0.0
C248 C 0.58454 0.41504 0.83279 0.0
C249 C 0.55791 0.39609 0.8893 0.0
C250 C 0.58434 0.41571 0.79656 0.0
C251 C 0.55824 0.39954 0.77865 0.0
C252 C 0.55864 0.39736 0.85102 0.0
C253 C 0.5328 0.3825 0.79799 0.0
C254 C 0.53872 0.3706 0.90722 0.0
C255 C 0.57522 0.42066 0.9427 0.0
N256 N 0.53367 0.38164 0.83306 0.0
N257 N 0.57559 0.42022 0.90759 0.0
H258 H 0.09371 0.53637 0.28489 0.0
H259 H 0.19063 0.60036 0.11358 0.0
H260 H 0.18717 0.57879 0.28537 0.0
H261 H 0.09738 0.5469 0.11345 0.0
H262 H 0.19005 0.59593 0.17675 0.0
H263 H 0.09491 0.54138 0.22214 0.0
C264 C 0.1145 0.54637 0.27175 0.0
C265 C 0.14037 0.55712 0.29054 0.0
C266 C 0.16971 0.58536 0.16287 0.0
C267 C 0.14195 0.56357 0.2184 0.0
C268 C 0.17 0.58818 0.12682 0.0
C269 C 0.14401 0.57398 0.10808 0.0
C270 C 0.14326 0.56835 0.18033 0.0
C271 C 0.11798 0.55818 0.12672 0.0
C272 C 0.11519 0.5494 0.23587 0.0
C273 C 0.16666 0.56996 0.27198 0.0
N274 N 0.11829 0.55572 0.16166 0.0
N275 N 0.1668 0.57307 0.23699 0.0
H276 H 0.72034 0.28161 0.44795 0.0
H277 H 0.6634 0.23432 0.29245 0.0
H278 H 0.78979 0.30475 0.37467 0.0
H279 H 0.64432 0.16058 0.35623 0.0
H280 H 0.71132 0.2608 0.31924 0.0
H281 H 0.69231 0.23517 0.41885 0.0
C282 C 0.73023 0.2763 0.42687 0.0
C283 C 0.7571 0.29704 0.41332 0.0
C284 C 0.69711 0.23834 0.32614 0.0
C285 C 0.72489 0.24512 0.3792 0.0
C286 C 0.66987 0.22332 0.31087 0.0
C287 C 0.65007 0.19543 0.32235 0.0
C288 C 0.70366 0.22576 0.35405 0.0
C289 C 0.65918 0.18213 0.34674 0.0
C290 C 0.71429 0.24989 0.41025 0.0
C291 C 0.76897 0.2893 0.3857 0.0
N292 N 0.68491 0.19791 0.36309 0.0
N293 N 0.75214 0.26445 0.36832 0.0
H294 H 0.4641 0.79541 0.68861 0.0
H295 H 0.45819 0.64542 0.70019 0.0
H296 H 0.4237 0.73474 0.77251 0.0
H297 H 0.41385 0.6665 0.62231 0.0
H298 H 0.48001 0.69473 0.72213 0.0
H299 H 0.48024 0.7638 0.66374 0.0
C300 C 0.4601 0.77628 0.70287 0.0
C301 C 0.44213 0.76722 0.73228 0.0
C302 C 0.46681 0.6889 0.69906 0.0
C303 C 0.46109 0.73184 0.70454 0.0
C304 C 0.45437 0.66087 0.68643 0.0
C305 C 0.43377 0.65192 0.65987 0.0
C306 C 0.45915 0.708 0.68422 0.0
C307 C 0.42932 0.6726 0.64317 0.0
C308 C 0.46929 0.75834 0.68858 0.0
C309 C 0.43722 0.74216 0.74956 0.0
N310 N 0.44155 0.69971 0.65606 0.0
N311 N 0.44626 0.72498 0.73505 0.0
H312 H 0.66323 0.42251 0.11695 0.0
H313 H 0.79398 0.45662 0.04305 0.0
H314 H 0.65724 0.47459 0.03569 0.0
H315 H 0.72475 0.40957 0.97055 0.0
H316 H 0.76699 0.47865 0.06675 0.0
H317 H 0.71123 0.4345 0.09506 0.0
C318 C 0.67268 0.43756 0.09555 0.0
C319 C 0.65658 0.44769 0.07805 0.0
C320 C 0.75855 0.46461 0.04455 0.0
C321 C 0.71021 0.46023 0.05218 0.0
C322 C 0.77384 0.45208 0.03089 0.0
C323 C 0.76118 0.43088 1.00523 0.0
C324 C 0.731 0.45635 0.03164 0.0
C325 C 0.73496 0.42554 0.99063 0.0
C326 C 0.69995 0.44441 0.08309 0.0
C327 C 0.66931 0.46661 0.04992 0.0
N328 N 0.72042 0.4379 1.00447 0.0
N329 N 0.69495 0.47126 0.03677 0.0
H330 H 0.27658 0.74119 0.28756 0.0
H331 H 0.14403 0.65572 0.35938 0.0
H332 H 0.29217 0.80076 0.37044 0.0
H333 H 0.2086 0.67325 0.43717 0.0
H334 H 0.17522 0.70402 0.33499 0.0
H335 H 0.22677 0.71105 0.30854 0.0
C336 C 0.26907 0.74852 0.3092 0.0
C337 C 0.28835 0.77321 0.32752 0.0
C338 C 0.18176 0.69768 0.3584 0.0
C339 C 0.23232 0.73861 0.35226 0.0
C340 C 0.16406 0.67027 0.37245 0.0
C341 C 0.17419 0.66048 0.39989 0.0
C342 C 0.20922 0.71533 0.3726 0.0
C343 C 0.20033 0.67998 0.41569 0.0
C344 C 0.24071 0.73145 0.32111 0.0
C345 C 0.27781 0.78177 0.35569 0.0
N346 N 0.21726 0.70647 0.40142 0.0
N347 N 0.2508 0.76373 0.36827 0.0
H348 H 0.52571 0.28857 0.63104 0.0
H349 H 0.53659 0.22701 0.77775 0.0
H350 H 0.47417 0.30058 0.70808 0.0
H351 H 0.47808 0.15811 0.71098 0.0
H352 H 0.51709 0.25684 0.75556 0.0
H353 H 0.5113 0.24121 0.65658 0.0
C354 C 0.51033 0.28061 0.6523 0.0
C355 C 0.50101 0.29819 0.66756 0.0
C356 C 0.50768 0.2347 0.74699 0.0
C357 C 0.48583 0.2454 0.69754 0.0
C358 C 0.51876 0.21779 0.75961 0.0
C359 C 0.50889 0.19027 0.74604 0.0
C360 C 0.48776 0.22432 0.71972 0.0
C361 C 0.48609 0.17929 0.7221 0.0
C362 C 0.50215 0.25375 0.66684 0.0
C363 C 0.48156 0.28734 0.69556 0.0
N364 N 0.47711 0.19686 0.70843 0.0
N365 N 0.47557 0.26204 0.71075 0.0
H366 H 0.14901 0.47922 0.04096 0.0
H367 H 0.27998 0.5298 0.11538 0.0
H368 H 0.21519 0.5262 0.96411 0.0
H369 H 0.2994 0.48617 0.03531 0.0
H370 H 0.23026 0.50779 0.09393 0.0
H371 H 0.18004 0.46266 0.06706 0.0
C372 C 0.16938 0.48476 0.02844 0.0
C373 C 0.17999 0.50457 1.00081 0.0
C374 C 0.24503 0.5019 0.08215 0.0
C375 C 0.21485 0.48537 0.03003 0.0
C376 C 0.27335 0.51452 0.09434 0.0
C377 C 0.29369 0.51 0.07678 0.0
C378 C 0.23772 0.48593 0.05142 0.0
C379 C 0.28423 0.49024 0.04941 0.0
C380 C 0.18699 0.47536 0.04346 0.0
C381 C 0.20655 0.5113 0.98573 0.0
N382 N 0.25721 0.47999 0.03641 0.0
N383 N 0.22338 0.50206 1.00095 0.0
H384 H 0.54843 0.04861 0.30509 0.0
H385 H 0.38967 0.91941 0.31972 0.0
H386 H 0.47443 0.06065 0.29703 0.0
H387 H 0.46071 0.90727 0.28902 0.0
H388 H 0.41968 0.97096 0.30787 0.0
H389 H 0.51684 -0.00296 0.29542 0.0
C390 C 0.52553 0.04039 0.3008 0.0
C391 C 0.51388 0.05876 0.30232 0.0
C392 C 0.42859 0.95701 0.30311 0.0
C393 C 0.47759 -0.00023 0.29172 0.0
C394 C 0.41152 0.92761 0.31002 0.0
C395 C 0.42293 0.90921 0.30577 0.0
C396 C 0.45749 0.9682 0.2926 0.0
C397 C 0.4512 0.92081 0.29279 0.0
C398 C 0.50754 0.01098 0.29512 0.0
C399 C 0.48419 0.04713 0.29621 0.0
N400 N 0.46777 0.94975 0.2873 0.0
N401 N 0.4669 0.0182 0.29186 0.0
H402 H 0.38379 0.47572 0.6274 0.0
H403 H 0.52893 0.46615 0.62443 0.0
H404 H 0.46944 0.5476 0.6461 0.0
H405 H 0.4441 0.39391 0.64745 0.0
H406 H 0.50662 0.4958 0.6128 0.0
H407 H 0.40539 0.44538 0.61546 0.0
C408 C 0.40713 0.48522 0.62822 0.0
C409 C 0.42489 0.51396 0.63828 0.0
C410 C 0.4929 0.4733 0.61979 0.0
C411 C 0.44956 0.47979 0.62447 0.0
C412 C 0.50558 0.45639 0.62631 0.0
C413 C 0.48835 0.42777 0.63752 0.0
C414 C 0.46283 0.4613 0.62418 0.0
C415 C 0.45819 0.4161 0.63947 0.0
C416 C 0.41941 0.46795 0.62155 0.0
C417 C 0.455 0.52535 0.639 0.0
N418 N 0.44639 0.43299 0.6332 0.0
N419 N 0.46639 0.50818 0.63246 0.0
H420 H 0.89165 0.3871 0.9644 0.0
H421 H 0.04208 0.53632 0.95427 0.0
H422 H 0.90077 0.4706 0.98317 0.0
H423 H 0.0347 0.45467 0.98151 0.0
H424 H -0.01041 0.51126 0.94366 0.0
H425 H 0.94359 0.41102 0.94973 0.0
C426 C 0.90444 0.41044 0.96462 0.0
C427 C 0.89224 0.42696 0.97555 0.0
C428 C -0.00033 0.49883 0.95124 0.0
C429 C 0.951 0.45424 0.95858 0.0
C430 C 0.02953 0.51307 0.95715 0.0
C431 C 0.04246 0.49753 0.96935 0.0
C432 C -0.01704 0.46892 0.95713 0.0
C433 C 0.02534 0.46745 0.97271 0.0
C434 C 0.93397 0.42403 0.95638 0.0
C435 C 0.9096 0.45712 0.97545 0.0
N436 N -0.00362 0.45411 0.96695 0.0
N437 N 0.93819 0.46982 0.96738 0.0
H438 H 0.02759 0.55944 0.42108 0.0
H439 H 0.90074 0.40114 0.43361 0.0
H440 H 0.04211 0.4896 0.44892 0.0
H441 H 0.88675 0.47317 0.44731 0.0
H442 H 0.95234 0.4329 0.44434 0.0
H443 H -0.02365 0.52905 0.43558 0.0
C444 C 0.02 0.53779 0.4308 0.0
C445 C 0.03891 0.52678 0.43333 0.0
C446 C 0.93796 0.44171 0.44575 0.0
C447 C -0.01972 0.49177 0.44944 0.0
C448 C 0.90854 0.42362 0.43948 0.0
C449 C 0.88966 0.43474 0.4391 0.0
C450 C 0.94868 0.47127 0.45079 0.0
C451 C 0.90071 0.46387 0.4472 0.0
C452 C -0.00921 0.52051 0.43923 0.0
C453 C 0.02813 0.49878 0.44642 0.0
N454 N 0.9297 0.48135 0.45196 0.0
N455 N -0.00068 0.48195 0.45328 0.0
H456 H 0.45867 0.04078 0.76158 0.0
H457 H 0.48757 0.91206 0.74982 0.0
H458 H 0.54481 0.05299 0.77052 0.0
H459 H 0.40413 0.89971 0.78014 0.0
H460 H 0.50946 0.96344 0.76196 0.0
H461 H 0.43838 -0.01065 0.77299 0.0
C462 C 0.47331 0.03263 0.76644 0.0
C463 C 0.50345 0.05099 0.76459 0.0
C464 C 0.48647 0.94947 0.76665 0.0
C465 C 0.48039 -0.00785 0.77721 0.0
C466 C 0.47394 0.92017 0.75958 0.0
C467 C 0.44396 0.90181 0.76354 0.0
C468 C 0.46876 0.9606 0.77693 0.0
C469 C 0.42732 0.91325 0.77661 0.0
C470 C 0.46171 0.0033 0.77313 0.0
C471 C 0.52144 0.03947 0.7715 0.0
N472 N 0.43986 0.94212 0.78215 0.0
N473 N 0.50963 0.0106 0.77681 0.0
H474 H 0.39966 0.474 0.08887 0.0
H475 H 0.55989 0.507 0.09296 0.0
H476 H 0.47075 0.55967 0.10852 0.0
H477 H 0.48756 0.42166 0.11248 0.0
H478 H 0.52824 0.52708 0.10287 0.0
H479 H 0.43122 0.45437 0.10156 0.0
C480 C 0.4219 0.48864 0.09633 0.0
C481 C 0.43281 0.51851 0.09724 0.0
C482 C 0.51939 0.50402 0.10567 0.0
C483 C 0.46917 0.49625 0.11127 0.0
C484 C 0.5374 0.49253 0.09988 0.0
C485 C 0.52616 0.46259 0.10141 0.0
C486 C 0.4898 0.48537 0.1123 0.0
C487 C 0.49701 0.44485 0.11083 0.0
C488 C 0.43986 0.47741 0.10374 0.0
C489 C 0.46161 0.53651 0.10741 0.0
N490 N 0.47965 0.45647 0.11524 0.0
N491 N 0.47904 0.52514 0.11336 0.0
H492 H 0.55071 0.26324 0.30351 0.0
H493 H 0.54535 0.28599 0.10177 0.0
H494 H 0.53029 0.1951 0.23048 0.0
H495 H 0.53464 0.33961 0.17638 0.0
H496 H 0.53969 0.25233 0.14822 0.0
H497 H 0.54482 0.29152 0.25764 0.0
C498 C 0.54463 0.25406 0.27791 0.0
C499 C 0.54107 0.22675 0.27085 0.0
C500 C 0.53816 0.27124 0.15439 0.0
C501 C 0.53481 0.25933 0.21795 0.0
C502 C 0.54141 0.2905 0.12787 0.0
C503 C 0.54054 0.31574 0.13516 0.0
C504 C 0.53461 0.27748 0.18869 0.0
C505 C 0.53538 0.32041 0.16951 0.0
C506 C 0.54124 0.27023 0.25172 0.0
C507 C 0.53318 0.216 0.23716 0.0
N508 N 0.53305 0.30172 0.19504 0.0
N509 N 0.53074 0.23246 0.21187 0.0
H510 H 0.2404 0.55874 0.43397 0.0
H511 H 0.26301 0.56137 0.63535 0.0
H512 H 0.1719 0.54353 0.5055 0.0
H513 H 0.31003 0.53716 0.56509 0.0
H514 H 0.22989 0.55608 0.58847 0.0
H515 H 0.26696 0.55205 0.4813 0.0
C516 C 0.23077 0.55363 0.45957 0.0
C517 C 0.20391 0.55176 0.4658 0.0
C518 C 0.24719 0.55151 0.58343 0.0
C519 C 0.23451 0.54467 0.52027 0.0
C520 C 0.26614 0.55458 0.61016 0.0
C521 C 0.28937 0.54977 0.60411 0.0
C522 C 0.25189 0.54427 0.55014 0.0
C523 C 0.29236 0.54099 0.57094 0.0
C524 C 0.24593 0.54976 0.48656 0.0
C525 C 0.19249 0.54507 0.49951 0.0
N526 N 0.27416 0.539 0.54505 0.0
N527 N 0.20806 0.54225 0.52559 0.0
H528 H 0.68661 0.26256 0.97254 0.0
H529 H 0.67418 0.24592 0.76964 0.0
H530 H 0.75982 0.31271 0.90527 0.0
H531 H 0.61715 0.17685 0.83837 0.0
H532 H 0.70589 0.27088 0.81857 0.0
H533 H 0.66064 0.23096 0.92402 0.0
C534 C 0.69738 0.26671 0.94766 0.0
C535 C 0.72542 0.29039 0.94296 0.0
C536 C 0.68668 0.25006 0.82287 0.0
C537 C 0.69554 0.25458 0.88706 0.0
C538 C 0.66854 0.23579 0.79494 0.0
C539 C 0.64291 0.20927 0.7999 0.0
C540 C 0.67884 0.23807 0.85623 0.0
C541 C 0.63672 0.1972 0.83331 0.0
C542 C 0.68254 0.24862 0.91997 0.0
C543 C 0.73828 0.29468 0.91011 0.0
N544 N 0.65428 0.2119 0.86028 0.0
N545 N 0.72308 0.27725 0.8833 0.0
H546 H 0.38624 0.68011 0.09905 0.0
H547 H 0.3881 0.70396 0.29977 0.0
H548 H 0.40971 0.6332 0.17046 0.0
H549 H 0.40595 0.77249 0.22742 0.0
H550 H 0.39456 0.67687 0.25311 0.0
H551 H 0.39198 0.7136 0.14538 0.0
C552 C 0.39297 0.67708 0.12438 0.0
C553 C 0.39745 0.65378 0.13091 0.0
C554 C 0.39749 0.69802 0.24754 0.0
C555 C 0.40343 0.69168 0.18425 0.0
C556 C 0.39375 0.71347 0.27414 0.0
C557 C 0.39644 0.74051 0.26746 0.0
C558 C 0.40324 0.70931 0.21378 0.0
C559 C 0.40379 0.75178 0.23375 0.0
C560 C 0.3963 0.69624 0.15078 0.0
C561 C 0.40614 0.65092 0.16424 0.0
N562 N 0.40644 0.73592 0.20803 0.0
N563 N 0.40837 0.66933 0.18982 0.0
H564 H 0.60858 0.41522 0.56266 0.0
H565 H 0.75543 0.4183 0.50799 0.0
H566 H 0.66447 0.40608 0.63587 0.0
H567 H 0.68298 0.39193 0.43913 0.0
H568 H 0.72782 0.42583 0.55359 0.0
H569 H 0.64138 0.41876 0.51581 0.0
C570 C 0.62802 0.41452 0.56898 0.0
C571 C 0.63369 0.41018 0.60325 0.0
C572 C 0.71814 0.41872 0.52835 0.0
C573 C 0.6713 0.41427 0.54977 0.0
C574 C 0.73394 0.41458 0.50225 0.0
C575 C 0.72144 0.40429 0.46973 0.0
C576 C 0.68981 0.41298 0.52175 0.0
C577 C 0.6934 0.39968 0.46388 0.0
C578 C 0.64661 0.41635 0.5422 0.0
C579 C 0.65914 0.40924 0.60983 0.0
N580 N 0.67854 0.404 0.48961 0.0
N581 N 0.67694 0.41118 0.58337 0.0
H582 H 0.17892 0.62056 0.89383 0.0
H583 H 0.32366 0.7658 0.83817 0.0
H584 H 0.24797 0.67146 0.965 0.0
H585 H 0.27388 0.69627 0.76746 0.0
H586 H 0.28973 0.73739 0.88472 0.0
H587 H 0.20735 0.6543 0.84721 0.0
C588 C 0.19981 0.63909 0.89979 0.0
C589 C 0.21117 0.64308 0.93333 0.0
C590 C 0.28609 0.72855 0.85889 0.0
C591 C 0.24368 0.68179 0.88018 0.0
C592 C 0.30533 0.7448 0.83228 0.0
C593 C 0.30171 0.73332 0.79891 0.0
C594 C 0.26279 0.70083 0.85196 0.0
C595 C 0.27762 0.70588 0.79285 0.0
C596 C 0.21607 0.65822 0.87314 0.0
C597 C 0.23846 0.66742 0.93948 0.0
N598 N 0.25913 0.69057 0.81909 0.0
N599 N 0.25379 0.68581 0.91319 0.0
loop_
_geom_bond_atom_site_label_1
_geom_bond_atom_site_label_2
_geom_bond_distance
_geom_bond_site_symmetry_2
_ccdc_geom_bond_type
O0 Cd1 2.223 . S
O0 C8 1.315 . S
Cd1 O0 2.223 . S
Cd1 O4 2.297 . S
Cd1 O5 2.439 . S
Cd1 O11 2.240 . S
Cd2 O3 2.240 . S
Cd2 O10 2.223 . S
Cd2 O12 2.297 . S
Cd2 O13 2.439 . S
O3 Cd2 2.240 . S
O3 C8 1.279 . S
O4 Cd1 2.297 . S
O4 C6 1.247 . S
O5 Cd1 2.439 . S
O5 C6 1.208 . S
C6 O4 1.247 . S
C6 O5 1.208 . S
C7 O12 1.247 . S
C7 O13 1.208 . S
C8 O0 1.315 . S
C8 O3 1.279 . S
C9 O10 1.315 . S
C9 O11 1.279 . S
O10 Cd2 2.223 . S
O10 C9 1.315 . S
O11 Cd1 2.240 . S
O11 C9 1.279 . S
O12 Cd2 2.297 . S
O12 C7 1.247 . S
O13 Cd2 2.439 . S
O13 C7 1.208 . S
O14 Cd15 2.223 . S
O14 C22 1.315 . S
Cd15 O14 2.223 . S
Cd15 O18 2.297 . S
Cd15 O19 2.439 . S
Cd15 O25 2.240 . S
Cd16 O17 2.240 . S
Cd16 O24 2.223 . S
Cd16 O26 2.297 . S
Cd16 O27 2.439 . S
O17 Cd16 2.240 . S
O17 C22 1.279 . S
O18 Cd15 2.297 . S
O18 C20 1.247 . S
O19 Cd15 2.439 . S
O19 C20 1.208 . S
C20 O18 1.247 . S
C20 O19 1.208 . S
C21 O26 1.247 . S
C21 O27 1.208 . S
C22 O14 1.315 . S
C22 O17 1.279 . S
C23 O24 1.315 . S
C23 O25 1.279 . S
O24 Cd16 2.223 . S
O24 C23 1.315 . S
O25 Cd15 2.240 . S
O25 C23 1.279 . S
O26 Cd16 2.297 . S
O26 C21 1.247 . S
O27 Cd16 2.439 . S
O27 C21 1.208 . S
O28 Cd29 2.223 . S
O28 C36 1.315 . S
Cd29 O28 2.223 . S
Cd29 O32 2.297 . S
Cd29 O33 2.439 1_554 S
Cd29 O39 2.240 1_554 S
Cd30 O31 2.240 . S
Cd30 O38 2.223 . S
Cd30 O40 2.297 1_554 S
Cd30 O41 2.439 1_554 S
O31 Cd30 2.240 . S
O31 C36 1.279 . S
O32 Cd29 2.297 . S
O32 C34 1.247 1_554 S
O33 Cd29 2.439 1_556 S
O33 C34 1.208 . S
C34 O32 1.247 1_556 S
C34 O33 1.208 . S
C35 O40 1.247 . S
C35 O41 1.208 . S
C36 O28 1.315 . S
C36 O31 1.279 . S
C37 O38 1.315 . S
C37 O39 1.279 1_554 S
O38 Cd30 2.223 . S
O38 C37 1.315 . S
O39 Cd29 2.240 1_556 S
O39 C37 1.279 1_556 S
O40 Cd30 2.297 1_556 S
O40 C35 1.247 . S
O41 Cd30 2.439 1_556 S
O41 C35 1.208 . S
O42 Cd43 2.223 . S
O42 C50 1.315 . S
Cd43 O42 2.223 . S
Cd43 O46 2.297 . S
Cd43 O47 2.439 . S
Cd43 O53 2.240 . S
Cd44 O45 2.240 . S
Cd44 O52 2.223 . S
Cd44 O54 2.297 . S
Cd44 O55 2.439 . S
O45 Cd44 2.240 . S
O45 C50 1.279 . S
O46 Cd43 2.297 . S
O46 C48 1.247 . S
O47 Cd43 2.439 . S
O47 C48 1.208 . S
C48 O46 1.247 . S
C48 O47 1.208 . S
C49 O54 1.247 . S
C49 O55 1.208 . S
C50 O42 1.315 . S
C50 O45 1.279 . S
C51 O52 1.315 . S
C51 O53 1.279 . S
O52 Cd44 2.223 . S
O52 C51 1.315 . S
O53 Cd43 2.240 . S
O53 C51 1.279 . S
O54 Cd44 2.297 . S
O54 C49 1.247 . S
O55 Cd44 2.439 . S
O55 C49 1.208 . S
O56 Cd57 2.223 . S
O56 C64 1.315 . S
Cd57 O56 2.223 . S
Cd57 O60 2.297 . S
Cd57 O61 2.439 . S
Cd57 O67 2.240 . S
Cd58 O59 2.240 . S
Cd58 O66 2.223 . S
Cd58 O68 2.297 . S
Cd58 O69 2.439 . S
O59 Cd58 2.240 . S
O59 C64 1.279 . S
O60 Cd57 2.297 . S
O60 C62 1.247 . S
O61 Cd57 2.439 . S
O61 C62 1.208 . S
C62 O60 1.247 . S
C62 O61 1.208 . S
C63 O68 1.247 . S
C63 O69 1.208 . S
C64 O56 1.315 . S
C64 O59 1.279 . S
C65 O66 1.315 . S
C65 O67 1.279 . S
O66 Cd58 2.223 . S
O66 C65 1.315 . S
O67 Cd57 2.240 . S
O67 C65 1.279 . S
O68 Cd58 2.297 . S
O68 C63 1.247 . S
O69 Cd58 2.439 . S
O69 C63 1.208 . S
O70 Cd71 2.223 . S
O70 C78 1.315 . S
Cd71 O70 2.223 . S
Cd71 O74 2.297 . S
Cd71 O75 2.439 1_554 S
Cd71 O81 2.240 1_554 S
Cd72 O73 2.240 . S
Cd72 O80 2.223 . S
Cd72 O82 2.297 1_554 S
Cd72 O83 2.439 1_554 S
O73 Cd72 2.240 . S
O73 C78 1.279 . S
O74 Cd71 2.297 . S
O74 C76 1.247 1_554 S
O75 Cd71 2.439 1_556 S
O75 C76 1.208 . S
C76 O74 1.247 1_556 S
C76 O75 1.208 . S
C77 O82 1.247 . S
C77 O83 1.208 . S
C78 O70 1.315 . S
C78 O73 1.279 . S
C79 O80 1.315 . S
C79 O81 1.279 1_554 S
O80 Cd72 2.223 . S
O80 C79 1.315 . S
O81 Cd71 2.240 1_556 S
O81 C79 1.279 1_556 S
O82 Cd72 2.297 1_556 S
O82 C77 1.247 . S
O83 Cd72 2.439 1_556 S
O83 C77 1.208 . S
O84 Cd85 2.223 . S
O84 C92 1.315 . S
Cd85 O84 2.223 . S
Cd85 O88 2.297 . S
Cd85 O89 2.439 . S
Cd85 O95 2.240 . S
Cd86 O87 2.240 . S
Cd86 O94 2.223 . S
Cd86 O96 2.297 . S
Cd86 O97 2.439 . S
O87 Cd86 2.240 . S
O87 C92 1.279 . S
O88 Cd85 2.297 . S
O88 C90 1.247 . S
O89 Cd85 2.439 . S
O89 C90 1.208 . S
C90 O88 1.247 . S
C90 O89 1.208 . S
C91 O96 1.247 . S
C91 O97 1.208 . S
C92 O84 1.315 . S
C92 O87 1.279 . S
C93 O94 1.315 . S
C93 O95 1.279 . S
O94 Cd86 2.223 . S
O94 C93 1.315 . S
O95 Cd85 2.240 . S
O95 C93 1.279 . S
O96 Cd86 2.297 . S
O96 C91 1.247 . S
O97 Cd86 2.439 . S
O97 C91 1.208 . S
O98 Cd99 2.223 . S
O98 C106 1.315 . S
Cd99 O98 2.223 . S
Cd99 O102 2.297 . S
Cd99 O103 2.439 . S
Cd99 O109 2.240 . S
Cd100 O101 2.240 . S
Cd100 O108 2.223 . S
Cd100 O110 2.297 . S
Cd100 O111 2.439 . S
O101 Cd100 2.240 . S
O101 C106 1.279 . S
O102 Cd99 2.297 . S
O102 C104 1.247 . S
O103 Cd99 2.439 . S
O103 C104 1.208 . S
C104 O102 1.247 . S
C104 O103 1.208 . S
C105 O110 1.247 . S
C105 O111 1.208 . S
C106 O98 1.315 . S
C106 O101 1.279 . S
C107 O108 1.315 . S
C107 O109 1.279 . S
O108 Cd100 2.223 . S
O108 C107 1.315 . S
O109 Cd99 2.240 . S
O109 C107 1.279 . S
O110 Cd100 2.297 . S
O110 C105 1.247 . S
O111 Cd100 2.439 . S
O111 C105 1.208 . S
O112 Cd113 2.223 1_556 S
O112 C120 1.315 . S
Cd113 O112 2.223 1_554 S
Cd113 O116 2.297 . S
Cd113 O117 2.439 . S
Cd113 O123 2.240 . S
Cd114 O115 2.240 1_554 S
Cd114 O122 2.227 . S
Cd114 O124 2.297 . S
Cd114 O125 2.439 . S
O115 Cd114 2.240 1_556 S
O115 C120 1.279 . S
O116 Cd113 2.297 . S
O116 C118 1.247 . S
O117 Cd113 2.439 . S
O117 C118 1.208 . S
C118 O116 1.247 . S
C118 O117 1.208 . S
C119 O124 1.247 . S
C119 O125 1.208 . S
C120 O112 1.315 . S
C120 O115 1.279 . S
C121 O122 1.322 . S
C121 O123 1.279 . S
O122 Cd114 2.227 . S
O122 C121 1.322 . S
O123 Cd113 2.240 . S
O123 C121 1.279 . S
O124 Cd114 2.297 . S
O124 C119 1.247 . S
O125 Cd114 2.439 . S
O125 C119 1.208 . S
O126 Cd127 2.223 . S
O126 C134 1.315 . S
Cd127 O126 2.223 . S
Cd127 O130 2.297 . S
Cd127 O131 2.439 . S
Cd127 O137 2.240 . S
Cd128 O129 2.240 . S
Cd128 O136 2.223 . S
Cd128 O138 2.297 . S
Cd128 O139 2.439 . S
O129 Cd128 2.240 . S
O129 C134 1.279 . S
O130 Cd127 2.297 . S
O130 C132 1.247 . S
O131 Cd127 2.439 . S
O131 C132 1.208 . S
C132 O130 1.247 . S
C132 O131 1.208 . S
C133 O138 1.247 . S
C133 O139 1.208 . S
C134 O126 1.315 . S
C134 O129 1.279 . S
C135 O136 1.315 . S
C135 O137 1.279 . S
O136 Cd128 2.223 . S
O136 C135 1.315 . S
O137 Cd127 2.240 . S
O137 C135 1.279 . S
O138 Cd128 2.297 . S
O138 C133 1.247 . S
O139 Cd128 2.439 . S
O139 C133 1.208 . S
O140 Cd141 2.223 . S
O140 C148 1.315 . S
Cd141 O140 2.223 . S
Cd141 O144 2.297 . S
Cd141 O145 2.439 . S
Cd141 O151 2.240 . S
Cd142 O143 2.240 . S
Cd142 O150 2.223 . S
Cd142 O152 2.297 . S
Cd142 O153 2.439 . S
O143 Cd142 2.240 . S
O143 C148 1.279 . S
O144 Cd141 2.297 . S
O144 C146 1.247 . S
O145 Cd141 2.439 . S
O145 C146 1.208 . S
C146 O144 1.247 . S
C146 O145 1.208 . S
C147 O152 1.247 . S
C147 O153 1.208 . S
C148 O140 1.315 . S
C148 O143 1.279 . S
C149 O150 1.315 . S
C149 O151 1.279 . S
O150 Cd142 2.223 . S
O150 C149 1.315 . S
O151 Cd141 2.240 . S
O151 C149 1.279 . S
O152 Cd142 2.297 . S
O152 C147 1.247 . S
O153 Cd142 2.439 . S
O153 C147 1.208 . S
O154 Cd155 2.223 1_556 S
O154 C162 1.315 . S
Cd155 O154 2.223 1_554 S
Cd155 O158 2.297 . S
Cd155 O159 2.439 . S
Cd155 O165 2.240 . S
Cd156 O157 2.240 1_554 S
Cd156 O164 2.227 . S
Cd156 O166 2.297 . S
Cd156 O167 2.439 . S
O157 Cd156 2.240 1_556 S
O157 C162 1.279 . S
O158 Cd155 2.297 . S
O158 C160 1.247 . S
O159 Cd155 2.439 . S
O159 C160 1.208 . S
C160 O158 1.247 . S
C160 O159 1.208 . S
C161 O166 1.247 . S
C161 O167 1.208 . S
C162 O154 1.315 . S
C162 O157 1.279 . S
C163 O164 1.322 . S
C163 O165 1.279 . S
O164 Cd156 2.227 . S
O164 C163 1.322 . S
O165 Cd155 2.240 . S
O165 C163 1.279 . S
O166 Cd156 2.297 . S
O166 C161 1.247 . S
O167 Cd156 2.439 . S
O167 C161 1.208 . S
H168 C174 0.930 . S
H169 C178 0.930 . S
H170 C183 0.929 . S
H171 C181 0.929 . S
H172 C176 0.929 . S
H173 C182 0.929 . S
C174 H168 0.930 . S
C174 C175 1.367 . S
C174 C182 1.378 . S
C175 C174 1.367 . S
C175 C183 1.433 . S
C176 H172 0.929 . S
C176 C178 1.378 . S
C176 C180 1.350 . S
C177 C180 1.463 . S
C177 C182 1.350 . S
C177 N185 1.427 . S
C178 H169 0.930 . S
C178 C176 1.378 . S
C178 C179 1.367 . S
C179 C178 1.367 . S
C179 C181 1.433 . S
C180 C176 1.350 . S
C180 C177 1.463 . S
C180 N184 1.427 . S
C181 H171 0.929 . S
C181 C179 1.433 . S
C181 N184 1.384 . S
C182 H173 0.929 . S
C182 C174 1.378 . S
C182 C177 1.350 . S
C183 H170 0.929 . S
C183 C175 1.433 . S
C183 N185 1.384 . S
N184 C180 1.427 . S
N184 C181 1.384 . S
N185 C177 1.427 . S
N185 C183 1.384 . S
H186 C192 0.930 . S
H187 C196 0.930 . S
H188 C201 0.929 . S
H189 C199 0.929 . S
H190 C194 0.929 . S
H191 C200 0.929 . S
C192 H186 0.930 . S
C192 C193 1.367 . S
C192 C200 1.378 . S
C193 C192 1.367 . S
C193 C201 1.433 . S
C194 H190 0.929 . S
C194 C196 1.378 . S
C194 C198 1.350 . S
C195 C198 1.463 . S
C195 C200 1.350 . S
C195 N203 1.427 . S
C196 H187 0.930 . S
C196 C194 1.378 . S
C196 C197 1.367 . S
C197 C196 1.367 . S
C197 C199 1.433 . S
C198 C194 1.350 . S
C198 C195 1.463 . S
C198 N202 1.427 . S
C199 H189 0.929 . S
C199 C197 1.433 . S
C199 N202 1.384 . S
C200 H191 0.929 . S
C200 C192 1.378 . S
C200 C195 1.350 . S
C201 H188 0.929 . S
C201 C193 1.433 . S
C201 N203 1.384 . S
N202 C198 1.427 . S
N202 C199 1.384 . S
N203 C195 1.427 . S
N203 C201 1.384 . S
H204 C210 0.930 . S
H205 C214 0.930 . S
H206 C219 0.929 . S
H207 C217 0.929 . S
H208 C212 0.929 . S
H209 C218 0.929 . S
C210 H204 0.930 . S
C210 C211 1.367 . S
C210 C218 1.378 . S
C211 C210 1.367 . S
C211 C219 1.433 . S
C212 H208 0.929 . S
C212 C214 1.378 . S
C212 C216 1.350 . S
C213 C216 1.463 . S
C213 C218 1.350 . S
C213 N221 1.427 . S
C214 H205 0.930 . S
C214 C212 1.378 . S
C214 C215 1.367 . S
C215 C214 1.367 . S
C215 C217 1.433 . S
C216 C212 1.350 . S
C216 C213 1.463 . S
C216 N220 1.427 . S
C217 H207 0.929 . S
C217 C215 1.433 . S
C217 N220 1.384 . S
C218 H209 0.929 . S
C218 C210 1.378 . S
C218 C213 1.350 . S
C219 H206 0.929 . S
C219 C211 1.433 . S
C219 N221 1.384 . S
N220 C216 1.427 . S
N220 C217 1.384 . S
N221 C213 1.427 . S
N221 C219 1.384 . S
H222 C228 0.930 . S
H223 C232 0.930 . S
H224 C237 0.929 . S
H225 C235 0.929 . S
H226 C230 0.929 . S
H227 C236 0.929 . S
C228 H222 0.930 . S
C228 C229 1.367 . S
C228 C236 1.378 . S
C229 C228 1.367 . S
C229 C237 1.433 . S
C230 H226 0.929 . S
C230 C232 1.378 . S
C230 C234 1.350 . S
C231 C234 1.463 . S
C231 C236 1.350 . S
C231 N239 1.427 . S
C232 H223 0.930 . S
C232 C230 1.378 . S
C232 C233 1.367 . S
C233 C232 1.367 . S
C233 C235 1.433 . S
C234 C230 1.350 . S
C234 C231 1.463 . S
C234 N238 1.427 . S
C235 H225 0.929 . S
C235 C233 1.433 . S
C235 N238 1.384 . S
C236 H227 0.929 . S
C236 C228 1.378 . S
C236 C231 1.350 . S
C237 H224 0.929 . S
C237 C229 1.433 . S
C237 N239 1.384 . S
N238 C234 1.427 . S
N238 C235 1.384 . S
N239 C231 1.427 . S
N239 C237 1.384 . S
H240 C246 0.930 . S
H241 C250 0.930 . S
H242 C255 0.929 . S
H243 C253 0.929 . S
H244 C248 0.929 . S
H245 C254 0.929 . S
C246 H240 0.930 . S
C246 C247 1.367 . S
C246 C254 1.378 . S
C247 C246 1.367 . S
C247 C255 1.433 . S
C248 H244 0.929 . S
C248 C250 1.378 . S
C248 C252 1.350 . S
C249 C252 1.463 . S
C249 C254 1.350 . S
C249 N257 1.427 . S
C250 H241 0.930 . S
C250 C248 1.378 . S
C250 C251 1.367 . S
C251 C250 1.367 . S
C251 C253 1.433 . S
C252 C248 1.350 . S
C252 C249 1.463 . S
C252 N256 1.427 . S
C253 H243 0.929 . S
C253 C251 1.433 . S
C253 N256 1.384 . S
C254 H245 0.929 . S
C254 C246 1.378 . S
C254 C249 1.350 . S
C255 H242 0.929 . S
C255 C247 1.433 . S
C255 N257 1.384 . S
N256 C252 1.427 . S
N256 C253 1.384 . S
N257 C249 1.427 . S
N257 C255 1.384 . S
H258 C264 0.930 . S
H259 C268 0.930 . S
H260 C273 0.929 . S
H261 C271 0.929 . S
H262 C266 0.929 . S
H263 C272 0.929 . S
C264 H258 0.930 . S
C264 C265 1.367 . S
C264 C272 1.378 . S
C265 C264 1.367 . S
C265 C273 1.433 . S
C266 H262 0.929 . S
C266 C268 1.378 . S
C266 C270 1.350 . S
C267 C270 1.463 . S
C267 C272 1.350 . S
C267 N275 1.427 . S
C268 H259 0.930 . S
C268 C266 1.378 . S
C268 C269 1.367 . S
C269 C268 1.367 . S
C269 C271 1.433 . S
C270 C266 1.350 . S
C270 C267 1.463 . S
C270 N274 1.427 . S
C271 H261 0.929 . S
C271 C269 1.433 . S
C271 N274 1.384 . S
C272 H263 0.929 . S
C272 C264 1.378 . S
C272 C267 1.350 . S
C273 H260 0.929 . S
C273 C265 1.433 . S
C273 N275 1.384 . S
N274 C270 1.427 . S
N274 C271 1.384 . S
N275 C267 1.427 . S
N275 C273 1.384 . S
H276 C282 0.930 . S
H277 C286 0.930 . S
H278 C291 0.929 . S
H279 C289 0.929 . S
H280 C284 0.929 . S
H281 C290 0.929 . S
C282 H276 0.930 . S
C282 C283 1.367 . S
C282 C290 1.378 . S
C283 C282 1.367 . S
C283 C291 1.433 . S
C284 H280 0.929 . S
C284 C286 1.378 . S
C284 C288 1.350 . S
C285 C288 1.463 . S
C285 C290 1.350 . S
C285 N293 1.427 . S
C286 H277 0.930 . S
C286 C284 1.378 . S
C286 C287 1.367 . S
C287 C286 1.367 . S
C287 C289 1.433 . S
C288 C284 1.350 . S
C288 C285 1.463 . S
C288 N292 1.427 . S
C289 H279 0.929 . S
C289 C287 1.433 . S
C289 N292 1.384 . S
C290 H281 0.929 . S
C290 C282 1.378 . S
C290 C285 1.350 . S
C291 H278 0.929 . S
C291 C283 1.433 . S
C291 N293 1.384 . S
N292 C288 1.427 . S
N292 C289 1.384 . S
N293 C285 1.427 . S
N293 C291 1.384 . S
H294 C300 0.930 . S
H295 C304 0.930 . S
H296 C309 0.929 . S
H297 C307 0.929 . S
H298 C302 0.929 . S
H299 C308 0.929 . S
C300 H294 0.930 . S
C300 C301 1.367 . S
C300 C308 1.378 . S
C301 C300 1.367 . S
C301 C309 1.433 . S
C302 H298 0.929 . S
C302 C304 1.378 . S
C302 C306 1.350 . S
C303 C306 1.463 . S
C303 C308 1.350 . S
C303 N311 1.427 . S
C304 H295 0.930 . S
C304 C302 1.378 . S
C304 C305 1.367 . S
C305 C304 1.367 . S
C305 C307 1.433 . S
C306 C302 1.350 . S
C306 C303 1.463 . S
C306 N310 1.427 . S
C307 H297 0.929 . S
C307 C305 1.433 . S
C307 N310 1.384 . S
C308 H299 0.929 . S
C308 C300 1.378 . S
C308 C303 1.350 . S
C309 H296 0.929 . S
C309 C301 1.433 . S
C309 N311 1.384 . S
N310 C306 1.427 . S
N310 C307 1.384 . S
N311 C303 1.427 . S
N311 C309 1.384 . S
H312 C318 0.930 . S
H313 C322 0.930 . S
H314 C327 0.929 . S
H315 C325 0.929 . S
H316 C320 0.929 . S
H317 C326 0.929 . S
C318 H312 0.930 . S
C318 C319 1.367 1_556 S
C318 C326 1.378 . S
C319 C318 1.367 1_554 S
C319 C327 1.433 . S
C320 H316 0.929 . S
C320 C322 1.378 . S
C320 C324 1.350 . S
C321 C324 1.463 . S
C321 C326 1.350 1_554 S
C321 N329 1.427 . S
C322 H313 0.930 . S
C322 C320 1.378 . S
C322 C323 1.367 . S
C323 C322 1.367 . S
C323 C325 1.433 1_554 S
C324 C320 1.350 . S
C324 C321 1.463 . S
C324 N328 1.427 1_554 S
C325 H315 0.929 . S
C325 C323 1.433 1_556 S
C325 N328 1.384 . S
C326 H317 0.929 . S
C326 C318 1.378 . S
C326 C321 1.350 1_556 S
C327 H314 0.929 . S
C327 C319 1.433 . S
C327 N329 1.384 . S
N328 C324 1.427 1_556 S
N328 C325 1.384 . S
N329 C321 1.427 . S
N329 C327 1.384 . S
H330 C336 0.930 . S
H331 C340 0.930 . S
H332 C345 0.929 . S
H333 C343 0.929 . S
H334 C338 0.929 . S
H335 C344 0.929 . S
C336 H330 0.930 . S
C336 C337 1.367 . S
C336 C344 1.378 . S
C337 C336 1.367 . S
C337 C345 1.433 . S
C338 H334 0.929 . S
C338 C340 1.378 . S
C338 C342 1.350 . S
C339 C342 1.463 . S
C339 C344 1.350 . S
C339 N347 1.427 . S
C340 H331 0.930 . S
C340 C338 1.378 . S
C340 C341 1.367 . S
C341 C340 1.367 . S
C341 C343 1.433 . S
C342 C338 1.350 . S
C342 C339 1.463 . S
C342 N346 1.427 . S
C343 H333 0.929 . S
C343 C341 1.433 . S
C343 N346 1.384 . S
C344 H335 0.929 . S
C344 C336 1.378 . S
C344 C339 1.350 . S
C345 H332 0.929 . S
C345 C337 1.433 . S
C345 N347 1.384 . S
N346 C342 1.427 . S
N346 C343 1.384 . S
N347 C339 1.427 . S
N347 C345 1.384 . S
H348 C354 0.930 . S
H349 C358 0.930 . S
H350 C363 0.929 . S
H351 C361 0.929 . S
H352 C356 0.929 . S
H353 C362 0.929 . S
C354 H348 0.930 . S
C354 C355 1.367 . S
C354 C362 1.378 . S
C355 C354 1.367 . S
C355 C363 1.433 . S
C356 H352 0.929 . S
C356 C358 1.378 . S
C356 C360 1.350 . S
C357 C360 1.463 . S
C357 C362 1.350 . S
C357 N365 1.427 . S
C358 H349 0.930 . S
C358 C356 1.378 . S
C358 C359 1.367 . S
C359 C358 1.367 . S
C359 C361 1.433 . S
C360 C356 1.350 . S
C360 C357 1.463 . S
C360 N364 1.427 . S
C361 H351 0.929 . S
C361 C359 1.433 . S
C361 N364 1.384 . S
C362 H353 0.929 . S
C362 C354 1.378 . S
C362 C357 1.350 . S
C363 H350 0.929 . S
C363 C355 1.433 . S
C363 N365 1.384 . S
N364 C360 1.427 . S
N364 C361 1.384 . S
N365 C357 1.427 . S
N365 C363 1.384 . S
H366 C372 0.930 . S
H367 C376 0.930 . S
H368 C381 0.929 . S
H369 C379 0.929 1_556 S
H370 C374 0.929 . S
H371 C380 0.929 . S
C372 H366 0.930 . S
C372 C373 1.367 1_556 S
C372 C380 1.378 . S
C373 C372 1.367 1_554 S
C373 C381 1.433 . S
C374 H370 0.929 . S
C374 C376 1.378 . S
C374 C378 1.350 . S
C375 C378 1.463 . S
C375 C380 1.350 1_554 S
C375 N383 1.427 . S
C376 H367 0.930 . S
C376 C374 1.378 . S
C376 C377 1.367 . S
C377 C376 1.367 . S
C377 C379 1.433 . S
C378 C374 1.350 . S
C378 C375 1.463 . S
C378 N382 1.431 . S
C379 H369 0.929 1_554 S
C379 C377 1.433 . S
C379 N382 1.384 . S
C380 H371 0.929 . S
C380 C372 1.378 . S
C380 C375 1.350 1_556 S
C381 H368 0.929 . S
C381 C373 1.433 . S
C381 N383 1.384 . S
N382 C378 1.431 . S
N382 C379 1.384 . S
N383 C375 1.427 . S
N383 C381 1.384 . S
H384 C390 0.930 . S
H385 C394 0.930 . S
H386 C399 0.929 . S
H387 C397 0.929 . S
H388 C392 0.929 . S
H389 C398 0.929 . S
C390 H384 0.930 . S
C390 C391 1.367 . S
C390 C398 1.378 . S
C391 C390 1.367 . S
C391 C399 1.433 . S
C392 H388 0.929 . S
C392 C394 1.378 . S
C392 C396 1.350 . S
C393 C396 1.463 1_545 S
C393 C398 1.350 . S
C393 N401 1.427 . S
C394 H385 0.930 . S
C394 C392 1.378 . S
C394 C395 1.367 . S
C395 C394 1.367 . S
C395 C397 1.433 . S
C396 C392 1.350 . S
C396 C393 1.463 1_565 S
C396 N400 1.427 . S
C397 H387 0.929 . S
C397 C395 1.433 . S
C397 N400 1.384 . S
C398 H389 0.929 . S
C398 C390 1.378 . S
C398 C393 1.350 . S
C399 H386 0.929 . S
C399 C391 1.433 . S
C399 N401 1.384 . S
N400 C396 1.427 . S
N400 C397 1.384 . S
N401 C393 1.427 . S
N401 C399 1.384 . S
H402 C408 0.930 . S
H403 C412 0.930 . S
H404 C417 0.929 . S
H405 C415 0.929 . S
H406 C410 0.929 . S
H407 C416 0.929 . S
C408 H402 0.930 . S
C408 C409 1.367 . S
C408 C416 1.378 . S
C409 C408 1.367 . S
C409 C417 1.433 . S
C410 H406 0.929 . S
C410 C412 1.378 . S
C410 C414 1.350 . S
C411 C414 1.463 . S
C411 C416 1.350 . S
C411 N419 1.427 . S
C412 H403 0.930 . S
C412 C410 1.378 . S
C412 C413 1.367 . S
C413 C412 1.367 . S
C413 C415 1.433 . S
C414 C410 1.350 . S
C414 C411 1.463 . S
C414 N418 1.427 . S
C415 H405 0.929 . S
C415 C413 1.433 . S
C415 N418 1.384 . S
C416 H407 0.929 . S
C416 C408 1.378 . S
C416 C411 1.350 . S
C417 H404 0.929 . S
C417 C409 1.433 . S
C417 N419 1.384 . S
N418 C414 1.427 . S
N418 C415 1.384 . S
N419 C411 1.427 . S
N419 C417 1.384 . S
H420 C426 0.930 . S
H421 C430 0.930 . S
H422 C435 0.929 . S
H423 C433 0.929 . S
H424 C428 0.929 . S
H425 C434 0.929 . S
C426 H420 0.930 . S
C426 C427 1.367 1_554 S
C426 C434 1.378 . S
C427 C426 1.367 1_556 S
C427 C435 1.433 . S
C428 H424 0.929 . S
C428 C430 1.378 . S
C428 C432 1.350 . S
C429 C432 1.463 1_655 S
C429 C434 1.350 1_556 S
C429 N437 1.427 . S
C430 H421 0.930 . S
C430 C428 1.378 . S
C430 C431 1.367 . S
C431 C430 1.367 . S
C431 C433 1.433 1_556 S
C432 C428 1.350 . S
C432 C429 1.463 1_455 S
C432 N436 1.427 1_556 S
C433 H423 0.929 . S
C433 C431 1.433 1_554 S
C433 N436 1.384 . S
C434 H425 0.929 . S
C434 C426 1.378 . S
C434 C429 1.350 1_554 S
C435 H422 0.929 . S
C435 C427 1.433 . S
C435 N437 1.384 . S
N436 C432 1.427 1_554 S
N436 C433 1.384 . S
N437 C429 1.427 . S
N437 C435 1.384 . S
H438 C444 0.930 . S
H439 C448 0.930 . S
H440 C453 0.929 . S
H441 C451 0.929 . S
H442 C446 0.929 . S
H443 C452 0.929 . S
C444 H438 0.930 . S
C444 C445 1.367 . S
C444 C452 1.378 . S
C445 C444 1.367 . S
C445 C453 1.433 . S
C446 H442 0.929 . S
C446 C448 1.378 . S
C446 C450 1.350 . S
C447 C450 1.463 1_455 S
C447 C452 1.350 . S
C447 N455 1.427 . S
C448 H439 0.930 . S
C448 C446 1.378 . S
C448 C449 1.367 . S
C449 C448 1.367 . S
C449 C451 1.433 . S
C450 C446 1.350 . S
C450 C447 1.463 1_655 S
C450 N454 1.427 . S
C451 H441 0.929 . S
C451 C449 1.433 . S
C451 N454 1.384 . S
C452 H443 0.929 . S
C452 C444 1.378 . S
C452 C447 1.350 . S
C453 H440 0.929 . S
C453 C445 1.433 . S
C453 N455 1.384 . S
N454 C450 1.427 . S
N454 C451 1.384 . S
N455 C447 1.427 . S
N455 C453 1.384 . S
H456 C462 0.930 . S
H457 C466 0.930 . S
H458 C471 0.929 . S
H459 C469 0.929 . S
H460 C464 0.929 . S
H461 C470 0.929 . S
C462 H456 0.930 . S
C462 C463 1.367 . S
C462 C470 1.378 . S
C463 C462 1.367 . S
C463 C471 1.433 . S
C464 H460 0.929 . S
C464 C466 1.378 . S
C464 C468 1.350 . S
C465 C468 1.463 1_545 S
C465 C470 1.350 . S
C465 N473 1.427 . S
C466 H457 0.930 . S
C466 C464 1.378 . S
C466 C467 1.367 . S
C467 C466 1.367 . S
C467 C469 1.433 . S
C468 C464 1.350 . S
C468 C465 1.463 1_565 S
C468 N472 1.427 . S
C469 H459 0.929 . S
C469 C467 1.433 . S
C469 N472 1.384 . S
C470 H461 0.929 . S
C470 C462 1.378 . S
C470 C465 1.350 . S
C471 H458 0.929 . S
C471 C463 1.433 . S
C471 N473 1.384 . S
N472 C468 1.427 . S
N472 C469 1.384 . S
N473 C465 1.427 . S
N473 C471 1.384 . S
H474 C480 0.930 . S
H475 C484 0.930 1_556 S
H476 C489 0.929 1_556 S
H477 C487 0.929 . S
H478 C482 0.929 1_556 S
H479 C488 0.929 . S
C480 H474 0.930 . S
C480 C481 1.367 . S
C480 C488 1.378 . S
C481 C480 1.367 . S
C481 C489 1.433 . S
C482 H478 0.929 1_554 S
C482 C484 1.378 . S
C482 C486 1.350 . S
C483 C486 1.463 . S
C483 C488 1.350 . S
C483 N491 1.427 . S
C484 H475 0.930 1_554 S
C484 C482 1.378 . S
C484 C485 1.367 . S
C485 C484 1.367 . S
C485 C487 1.433 . S
C486 C482 1.350 . S
C486 C483 1.463 . S
C486 N490 1.427 . S
C487 H477 0.929 . S
C487 C485 1.433 . S
C487 N490 1.384 . S
C488 H479 0.929 . S
C488 C480 1.378 . S
C488 C483 1.350 . S
C489 H476 0.929 1_554 S
C489 C481 1.433 . S
C489 N491 1.384 . S
N490 C486 1.427 . S
N490 C487 1.384 . S
N491 C483 1.427 . S
N491 C489 1.384 . S
H492 C498 0.930 . S
H493 C502 0.930 . S
H494 C507 0.929 . S
H495 C505 0.929 . S
H496 C500 0.929 . S
H497 C506 0.929 . S
C498 H492 0.930 . S
C498 C499 1.367 . S
C498 C506 1.378 . S
C499 C498 1.367 . S
C499 C507 1.433 . S
C500 H496 0.929 . S
C500 C502 1.378 . S
C500 C504 1.350 . S
C501 C504 1.463 . S
C501 C506 1.350 . S
C501 N509 1.427 . S
C502 H493 0.930 . S
C502 C500 1.378 . S
C502 C503 1.367 . S
C503 C502 1.367 . S
C503 C505 1.433 . S
C504 C500 1.350 . S
C504 C501 1.463 . S
C504 N508 1.427 . S
C505 H495 0.929 . S
C505 C503 1.433 . S
C505 N508 1.384 . S
C506 H497 0.929 . S
C506 C498 1.378 . S
C506 C501 1.350 . S
C507 H494 0.929 . S
C507 C499 1.433 . S
C507 N509 1.384 . S
N508 C504 1.427 . S
N508 C505 1.384 . S
N509 C501 1.427 . S
N509 C507 1.384 . S
H510 C516 0.930 . S
H511 C520 0.930 . S
H512 C525 0.929 . S
H513 C523 0.929 . S
H514 C518 0.929 . S
H515 C524 0.929 . S
C516 H510 0.930 . S
C516 C517 1.367 . S
C516 C524 1.378 . S
C517 C516 1.367 . S
C517 C525 1.433 . S
C518 H514 0.929 . S
C518 C520 1.378 . S
C518 C522 1.350 . S
C519 C522 1.463 . S
C519 C524 1.350 . S
C519 N527 1.427 . S
C520 H511 0.930 . S
C520 C518 1.378 . S
C520 C521 1.367 . S
C521 C520 1.367 . S
C521 C523 1.433 . S
C522 C518 1.350 . S
C522 C519 1.463 . S
C522 N526 1.427 . S
C523 H513 0.929 . S
C523 C521 1.433 . S
C523 N526 1.384 . S
C524 H515 0.929 . S
C524 C516 1.378 . S
C524 C519 1.350 . S
C525 H512 0.929 . S
C525 C517 1.433 . S
C525 N527 1.384 . S
N526 C522 1.427 . S
N526 C523 1.384 . S
N527 C519 1.427 . S
N527 C525 1.384 . S
H528 C534 0.930 . S
H529 C538 0.930 . S
H530 C543 0.929 . S
H531 C541 0.929 . S
H532 C536 0.929 . S
H533 C542 0.929 . S
C534 H528 0.930 . S
C534 C535 1.367 . S
C534 C542 1.378 . S
C535 C534 1.367 . S
C535 C543 1.433 . S
C536 H532 0.929 . S
C536 C538 1.378 . S
C536 C540 1.350 . S
C537 C540 1.463 . S
C537 C542 1.350 . S
C537 N545 1.427 . S
C538 H529 0.930 . S
C538 C536 1.378 . S
C538 C539 1.367 . S
C539 C538 1.367 . S
C539 C541 1.433 . S
C540 C536 1.350 . S
C540 C537 1.463 . S
C540 N544 1.427 . S
C541 H531 0.929 . S
C541 C539 1.433 . S
C541 N544 1.384 . S
C542 H533 0.929 . S
C542 C534 1.378 . S
C542 C537 1.350 . S
C543 H530 0.929 . S
C543 C535 1.433 . S
C543 N545 1.384 . S
N544 C540 1.427 . S
N544 C541 1.384 . S
N545 C537 1.427 . S
N545 C543 1.384 . S
H546 C552 0.930 . S
H547 C556 0.930 . S
H548 C561 0.929 . S
H549 C559 0.929 . S
H550 C554 0.929 . S
H551 C560 0.929 . S
C552 H546 0.930 . S
C552 C553 1.367 . S
C552 C560 1.378 . S
C553 C552 1.367 . S
C553 C561 1.433 . S
C554 H550 0.929 . S
C554 C556 1.378 . S
C554 C558 1.350 . S
C555 C558 1.463 . S
C555 C560 1.350 . S
C555 N563 1.427 . S
C556 H547 0.930 . S
C556 C554 1.378 . S
C556 C557 1.367 . S
C557 C556 1.367 . S
C557 C559 1.433 . S
C558 C554 1.350 . S
C558 C555 1.463 . S
C558 N562 1.427 . S
C559 H549 0.929 . S
C559 C557 1.433 . S
C559 N562 1.384 . S
C560 H551 0.929 . S
C560 C552 1.378 . S
C560 C555 1.350 . S
C561 H548 0.929 . S
C561 C553 1.433 . S
C561 N563 1.384 . S
N562 C558 1.427 . S
N562 C559 1.384 . S
N563 C555 1.427 . S
N563 C561 1.384 . S
H564 C570 0.930 . S
H565 C574 0.930 . S
H566 C579 0.929 . S
H567 C577 0.929 . S
H568 C572 0.929 . S
H569 C578 0.929 . S
C570 H564 0.930 . S
C570 C571 1.367 . S
C570 C578 1.378 . S
C571 C570 1.367 . S
C571 C579 1.433 . S
C572 H568 0.929 . S
C572 C574 1.378 . S
C572 C576 1.350 . S
C573 C576 1.463 . S
C573 C578 1.350 . S
C573 N581 1.427 . S
C574 H565 0.930 . S
C574 C572 1.378 . S
C574 C575 1.367 . S
C575 C574 1.367 . S
C575 C577 1.433 . S
C576 C572 1.350 . S
C576 C573 1.463 . S
C576 N580 1.427 . S
C577 H567 0.929 . S
C577 C575 1.433 . S
C577 N580 1.384 . S
C578 H569 0.929 . S
C578 C570 1.378 . S
C578 C573 1.350 . S
C579 H566 0.929 . S
C579 C571 1.433 . S
C579 N581 1.384 . S
N580 C576 1.427 . S
N580 C577 1.384 . S
N581 C573 1.427 . S
N581 C579 1.384 . S
H582 C588 0.930 . S
H583 C592 0.930 . S
H584 C597 0.929 . S
H585 C595 0.929 . S
H586 C590 0.929 . S
H587 C596 0.929 . S
C588 H582 0.930 . S
C588 C589 1.367 . S
C588 C596 1.378 . S
C589 C588 1.367 . S
C589 C597 1.433 . S
C590 H586 0.929 . S
C590 C592 1.378 . S
C590 C594 1.350 . S
C591 C594 1.463 . S
C591 C596 1.350 . S
C591 N599 1.427 . S
C592 H583 0.930 . S
C592 C590 1.378 . S
C592 C593 1.367 . S
C593 C592 1.367 . S
C593 C595 1.433 . S
C594 C590 1.350 . S
C594 C591 1.463 . S
C594 N598 1.427 . S
C595 H585 0.929 . S
C595 C593 1.433 . S
C595 N598 1.384 . S
C596 H587 0.929 . S
C596 C588 1.378 . S
C596 C591 1.350 . S
C597 H584 0.929 . S
C597 C589 1.433 . S
C597 N599 1.384 . S
N598 C594 1.427 . S
N598 C595 1.384 . S
N599 C591 1.427 . S
N599 C597 1.384 . S
C175 C8 1.595 . S
C179 C148 1.597 . S
C193 C22 1.602 . S
C197 C162 1.597 . S
C211 C92 1.606 . S
C215 C36 1.601 . S
C229 C50 1.611 . S
C233 C106 1.606 . S
C247 C120 1.613 . S
C251 C64 1.614 . S
C265 C134 1.605 . S
C269 C78 1.610 . S
C283 C93 0.831 . S
C287 C9 0.830 . S
C301 C107 0.829 . S
C305 C23 0.837 . S
C319 C121 0.826 . S
C323 C37 0.840 . S
C337 C51 0.823 . S
C341 C135 0.839 . S
C355 C65 0.828 . S
C359 C149 0.833 . S
C373 C79 0.841 . S
C377 C163 0.821 . S
C391 C6 1.400 . S
C395 C48 1.394 . S
C409 C20 1.400 . S
C413 C62 1.405 . S
C427 C34 1.395 . S
C431 C76 1.402 . S
C445 C132 1.391 . S
C449 C90 1.393 . S
C463 C146 1.394 . S
C467 C104 1.391 . S
C481 C160 1.397 . S
C485 C118 1.392 . S
C499 C7 1.338 . S
C503 C119 1.337 . S
C517 C133 1.344 . S
C521 C21 1.337 . S
C535 C35 1.338 . S
C539 C147 1.338 . S
C553 C161 1.336 . S
C557 C49 1.343 . S
C571 C63 1.339 . S
C575 C91 1.347 . S
C589 C77 1.349 . S
C593 C105 1.343 . S
