# Generated by pormake.
# Topology acs-a, (4)-cn, num edge types: 1
# Building blocks:
#     Node 0, Type 0, BuildingBlock: QUQFOY_clean_sbu_1, # of connection points: 4
#     Node 1, Type 0, BuildingBlock: QUQFOY_clean_sbu_1, # of connection points: 4
#     Node 2, Type 0, BuildingBlock: QUQFOY_clean_sbu_1, # of connection points: 4
#     Node 3, Type 0, BuildingBlock: QUQFOY_clean_sbu_1, # of connection points: 4
#     Node 4, Type 0, BuildingBlock: QUQFOY_clean_sbu_1, # of connection points: 4
#     Node 5, Type 0, BuildingBlock: QUQFOY_clean_sbu_1, # of connection points: 4
#     Node 6, Type 0, BuildingBlock: QUQFOY_clean_sbu_1, # of connection points: 4
#     Node 7, Type 0, BuildingBlock: QUQFOY_clean_sbu_1, # of connection points: 4
#     Node 8, Type 0, BuildingBlock: QUQFOY_clean_sbu_1, # of connection points: 4
#     Node 9, Type 0, BuildingBlock: QUQFOY_clean_sbu_1, # of connection points: 4
#     Node 10, Type 0, BuildingBlock: QUQFOY_clean_sbu_1, # of connection points: 4
#     Node 11, Type 0, BuildingBlock: QUQFOY_clean_sbu_1, # of connection points: 4
#     Edge 12, Type (0, 0), BuildingBlock: ZUJKAS_clean_linker_0, # of connection points: 2
#     Edge 13, Type (0, 0), BuildingBlock: ZUJKAS_clean_linker_0, # of connection points: 2
#     Edge 14, Type (0, 0), BuildingBlock: ZUJKAS_clean_linker_0, # of connection points: 2
#     Edge 15, Type (0, 0), BuildingBlock: ZUJKAS_clean_linker_0, # of connection points: 2
#     Edge 16, Type (0, 0), BuildingBlock: ZUJKAS_clean_linker_0, # of connection points: 2
#     Edge 17, Type (0, 0), BuildingBlock: ZUJKAS_clean_linker_0, # of connection points: 2
#     Edge 18, Type (0, 0), BuildingBlock: ZUJKAS_clean_linker_0, # of connection points: 2
#     Edge 19, Type (0, 0), BuildingBlock: ZUJKAS_clean_linker_0, # of connection points: 2
#     Edge 20, Type (0, 0), BuildingBlock: ZUJKAS_clean_linker_0, # of connection points: 2
#     Edge 21, Type (0, 0), BuildingBlock: ZUJKAS_clean_linker_0, # of connection points: 2
#     Edge 22, Type (0, 0), BuildingBlock: ZUJKAS_clean_linker_0, # of connection points: 2
#     Edge 23, Type (0, 0), BuildingBlock: ZUJKAS_clean_linker_0, # of connection points: 2
#     Edge 24, Type (0, 0), BuildingBlock: ZUJKAS_clean_linker_0, # of connection points: 2
#     Edge 25, Type (0, 0), BuildingBlock: ZUJKAS_clean_linker_0, # of connection points: 2
#     Edge 26, Type (0, 0), BuildingBlock: ZUJKAS_clean_linker_0, # of connection points: 2
#     Edge 27, Type (0, 0), BuildingBlock: ZUJKAS_clean_linker_0, # of connection points: 2
#     Edge 28, Type (0, 0), BuildingBlock: ZUJKAS_clean_linker_0, # of connection points: 2
#     Edge 29, Type (0, 0), BuildingBlock: ZUJKAS_clean_linker_0, # of connection points: 2
#     Edge 30, Type (0, 0), BuildingBlock: ZUJKAS_clean_linker_0, # of connection points: 2
#     Edge 31, Type (0, 0), BuildingBlock: ZUJKAS_clean_linker_0, # of connection points: 2
#     Edge 32, Type (0, 0), BuildingBlock: ZUJKAS_clean_linker_0, # of connection points: 2
#     Edge 33, Type (0, 0), BuildingBlock: ZUJKAS_clean_linker_0, # of connection points: 2
#     Edge 34, Type (0, 0), BuildingBlock: ZUJKAS_clean_linker_0, # of connection points: 2
#     Edge 35, Type (0, 0), BuildingBlock: ZUJKAS_clean_linker_0, # of connection points: 2
# Relax obj value: 0.485
# Max RMSD: 0.256
# Mean RMSD: 0.239
data_MOF--net-acs-a--node1-QUQFOY_clean_sbu_1--edge1-ZUJKAS_clean_linker_0
_symmetry_space_group_name_H-M    P1
_symmetry_Int_Tables_number       1
_symmetry_cell_setting            triclinic
loop_
_symmetry_equiv_pos_as_xyz
'x, y, z'
_cell_length_a     60.455839
_cell_length_b     60.478975
_cell_length_c     66.159026
_cell_angle_alpha  89.971759
_cell_angle_beta   90.035416
_cell_angle_gamma 116.05021
loop_
_atom_site_label
_atom_site_type_symbol
_atom_site_fract_x
_atom_site_fract_y
_atom_site_fract_z
_atom_type_partial_charge
O0 O 0.56416 0.1509 0.08457 0.0
Cd1 Cd 0.57157 0.12085 0.08766 0.0
Cd2 Cd 0.5615 0.124 0.12489 0.0
O3 O 0.54236 0.14179 0.11255 0.0
O4 O 0.56557 0.1037 0.06134 0.0
O5 O 0.54225 0.08818 0.08855 0.0
C6 C 0.54653 0.08635 0.06963 0.0
C7 C 0.54431 0.09721 0.15202 0.0
C8 C 0.54914 0.15405 0.09627 0.0
C9 C 0.61422 0.1395 0.11369 0.0
O10 O 0.59963 0.14295 0.12571 0.0
O11 O 0.60591 0.12704 0.0977 0.0
O12 O 0.55206 0.12064 0.15381 0.0
O13 O 0.54561 0.08863 0.13442 0.0
O14 O 0.36786 0.54 0.59201 0.0
Cd15 Cd 0.40475 0.55369 0.5849 0.0
Cd16 Cd 0.40978 0.55858 0.62574 0.0
O17 O 0.37188 0.54136 0.62516 0.0
O18 O 0.40597 0.54232 0.55702 0.0
O19 O 0.42193 0.53194 0.58345 0.0
C20 C 0.41776 0.53074 0.56421 0.0
C21 C 0.42943 0.54966 0.65279 0.0
C22 C 0.35829 0.5362 0.60954 0.0
C23 C 0.43118 0.60477 0.59988 0.0
O24 O 0.42625 0.59514 0.61736 0.0
O25 O 0.42503 0.59134 0.58421 0.0
O26 O 0.41746 0.56257 0.655 0.0
O27 O 0.42979 0.54086 0.63509 0.0
O28 O 0.8443 0.40077 0.13081 0.0
Cd29 Cd 0.86759 0.38392 0.13317 0.0
Cd30 Cd 0.86886 0.38953 0.09309 0.0
O31 O 0.85318 0.41279 0.09917 0.0
O32 O 0.87344 0.38386 0.16262 0.0
O33 O 0.90329 0.40431 0.14094 0.0
C34 C 0.89635 0.39808 0.15938 0.0
C35 C 0.90112 0.40343 0.07011 0.0
C36 C 0.84259 0.41289 0.11568 0.0
C37 C 0.84367 0.33809 0.1092 0.0
O38 O 0.8464 0.35218 0.09421 0.0
O39 O 0.8531 0.34705 0.12618 0.0
O40 O 0.87861 0.39567 0.0643 0.0
O41 O 0.90541 0.40312 0.08922 0.0
O42 O 0.42707 0.84038 0.58479 0.0
Cd43 Cd 0.41852 0.86972 0.58744 0.0
Cd44 Cd 0.43131 0.86825 0.6242 0.0
O45 O 0.45082 0.85091 0.61167 0.0
O46 O 0.42094 0.8832 0.55981 0.0
O47 O 0.44585 0.90361 0.58495 0.0
C48 C 0.43971 0.90255 0.56612 0.0
C49 C 0.44929 0.89908 0.64817 0.0
C50 C 0.44309 0.838 0.5958 0.0
C51 C 0.37787 0.85108 0.61576 0.0
O52 O 0.3934 0.84811 0.62705 0.0
O53 O 0.38488 0.86305 0.59938 0.0
O54 O 0.44418 0.87651 0.65217 0.0
O55 O 0.44496 0.90453 0.63018 0.0
O56 O 0.62039 0.4471 0.08231 0.0
Cd57 Cd 0.58302 0.43634 0.08057 0.0
Cd58 Cd 0.58685 0.43744 0.1211 0.0
O59 O 0.62393 0.45623 0.11475 0.0
O60 O 0.57685 0.44508 0.05297 0.0
O61 O 0.56906 0.4609 0.08074 0.0
C62 C 0.56894 0.45956 0.06123 0.0
C63 C 0.57319 0.44915 0.15055 0.0
C64 C 0.63371 0.45584 0.09787 0.0
C65 C 0.55996 0.388 0.10025 0.0
O66 O 0.57045 0.39977 0.11613 0.0
O67 O 0.56073 0.39947 0.084 0.0
O68 O 0.58754 0.43855 0.15106 0.0
O69 O 0.56665 0.45366 0.13305 0.0
O70 O 0.14482 0.58872 0.62963 0.0
Cd71 Cd 0.1241 0.60829 0.63223 0.0
Cd72 Cd 0.12737 0.60771 0.5916 0.0
O73 O 0.14636 0.58726 0.59642 0.0
O74 O 0.11899 0.60755 0.66182 0.0
O75 O 0.08815 0.58996 0.64042 0.0
C76 C 0.09575 0.59494 0.65885 0.0
C77 C 0.09293 0.59103 0.57106 0.0
C78 C 0.15175 0.58184 0.61368 0.0
C79 C 0.14997 0.65712 0.61077 0.0
O80 O 0.14676 0.64516 0.5944 0.0
O81 O 0.1414 0.64591 0.62728 0.0
O82 O 0.11484 0.60095 0.56354 0.0
O83 O 0.09057 0.591 0.59049 0.0
O84 O 0.839 0.43144 0.40925 0.0
Cd85 Cd 0.8681 0.42286 0.41284 0.0
Cd86 Cd 0.86938 0.42498 0.37203 0.0
O87 O 0.84598 0.44114 0.37703 0.0
O88 O 0.87863 0.43122 0.44128 0.0
O89 O 0.90246 0.44972 0.4151 0.0
C90 C 0.89932 0.44762 0.43446 0.0
C91 C 0.89602 0.44075 0.3445 0.0
C92 C 0.83426 0.44002 0.3932 0.0
C93 C 0.85507 0.3755 0.39226 0.0
O94 O 0.85582 0.3872 0.37609 0.0
O95 O 0.86115 0.38682 0.409 0.0
O96 O 0.87265 0.42816 0.34225 0.0
O97 O 0.9047 0.44462 0.36266 0.0
O98 O 0.34135 0.85344 0.90324 0.0
Cd99 Cd 0.37907 0.87123 0.90587 0.0
Cd100 Cd 0.37769 0.86698 0.8646 0.0
O101 O 0.34027 0.85067 0.87 0.0
O102 O 0.38501 0.88061 0.93474 0.0
O103 O 0.39654 0.90792 0.90988 0.0
C104 C 0.3958 0.90322 0.92898 0.0
C105 C 0.39269 0.89469 0.83782 0.0
C106 C 0.32919 0.84656 0.8869 0.0
C107 C 0.40363 0.84225 0.88691 0.0
O108 O 0.39655 0.84618 0.86977 0.0
O109 O 0.39867 0.8509 0.90282 0.0
O110 O 0.37925 0.87155 0.83489 0.0
O111 O 0.39739 0.9025 0.85622 0.0
O112 O 0.58195 0.41135 0.37259 0.0
Cd113 Cd 0.54382 0.39598 0.37258 0.0
Cd114 Cd 0.55294 0.40943 0.4105 0.0
O115 O 0.58813 0.43179 0.40117 0.0
O116 O 0.53615 0.39038 0.34336 0.0
O117 O 0.52695 0.41588 0.36142 0.0
C118 C 0.52729 0.40621 0.3441 0.0
C119 C 0.53182 0.42531 0.43046 0.0
C120 C 0.59651 0.42687 0.3851 0.0
C121 C 0.53181 0.35564 0.40152 0.0
O122 O 0.54447 0.37265 0.4138 0.0
O123 O 0.52599 0.36099 0.3844 0.0
O124 O 0.54921 0.42082 0.43779 0.0
O125 O 0.52659 0.42103 0.41147 0.0
O126 O 0.15512 0.56208 0.90973 0.0
Cd127 Cd 0.1255 0.56991 0.91255 0.0
Cd128 Cd 0.12502 0.56801 0.87215 0.0
O129 O 0.14873 0.55222 0.87749 0.0
O130 O 0.11283 0.55978 0.94024 0.0
O131 O 0.09135 0.54255 0.91262 0.0
C132 C 0.09291 0.54354 0.93213 0.0
C133 C 0.09866 0.55253 0.8444 0.0
C134 C 0.16026 0.55355 0.89384 0.0
C135 C 0.13796 0.61722 0.89247 0.0
O136 O 0.13776 0.60568 0.87635 0.0
O137 O 0.13184 0.6058 0.90916 0.0
O138 O 0.12204 0.56528 0.84236 0.0
O139 O 0.08986 0.54808 0.86252 0.0
O140 O 0.64851 0.14027 0.40443 0.0
Cd141 Cd 0.61056 0.12295 0.40665 0.0
Cd142 Cd 0.6132 0.12938 0.36602 0.0
O143 O 0.65044 0.14409 0.3713 0.0
O144 O 0.60445 0.11018 0.43466 0.0
O145 O 0.5911 0.08617 0.40776 0.0
C146 C 0.59231 0.08849 0.4272 0.0
C147 C 0.59791 0.10285 0.33849 0.0
C148 C 0.66112 0.14739 0.38832 0.0
C149 C 0.58818 0.15435 0.38938 0.0
O150 O 0.59608 0.15152 0.37226 0.0
O151 O 0.59149 0.14399 0.40501 0.0
O152 O 0.61125 0.12612 0.33622 0.0
O153 O 0.59315 0.09429 0.35668 0.0
O154 O 0.41077 0.58202 0.86992 0.0
Cd155 Cd 0.44864 0.59882 0.86791 0.0
Cd156 Cd 0.44482 0.59301 0.90802 0.0
O157 O 0.40803 0.57157 0.90207 0.0
O158 O 0.45438 0.59961 0.83839 0.0
O159 O 0.46652 0.57873 0.85941 0.0
C160 C 0.46478 0.5853 0.84114 0.0
C161 C 0.46506 0.57719 0.92916 0.0
C162 C 0.39785 0.57115 0.88519 0.0
C163 C 0.46533 0.64474 0.89227 0.0
O164 O 0.45711 0.63072 0.90753 0.0
O165 O 0.46543 0.63565 0.875 0.0
O166 O 0.45009 0.58525 0.93621 0.0
O167 O 0.46854 0.57805 0.90984 0.0
H168 H 0.55947 0.05635 0.33639 0.0
H169 H 0.54043 0.03313 0.30545 0.0
H170 H 0.5947 0.09116 0.26952 0.0
H171 H 0.61364 0.11399 0.29992 0.0
H172 H 0.51931 0.04865 0.27619 0.0
H173 H 0.59225 0.03175 0.2406 0.0
H174 H 0.5927 0.03849 0.26726 0.0
H175 H 0.60559 0.06307 0.24899 0.0
C176 C 0.56761 0.06378 0.32187 0.0
C177 C 0.58796 0.08703 0.32054 0.0
C178 C 0.55674 0.05051 0.30425 0.0
C179 C 0.56643 0.06015 0.28517 0.0
C180 C 0.58729 0.08294 0.28403 0.0
H181 H 0.53221 0.10902 0.18851 0.0
H182 H 0.52843 0.08769 0.22023 0.0
C183 C 0.59795 0.09617 0.30147 0.0
C184 C 0.55334 0.04883 0.26618 0.0
H185 H 0.56792 0.04494 0.21707 0.0
C186 C 0.52952 0.04684 0.26334 0.0
C187 C 0.56606 0.0454 0.24946 0.0
C188 C 0.59045 0.0445 0.25185 0.0
C189 C 0.51986 0.04543 0.24383 0.0
C190 C 0.5347 0.04676 0.22691 0.0
C191 C 0.55673 0.04471 0.22995 0.0
C192 C 0.53101 0.05609 0.20703 0.0
C193 C 0.4946 0.04436 0.24155 0.0
C194 C 0.53356 0.0455 0.1888 0.0
C195 C 0.53609 0.058 0.17044 0.0
C196 C 0.5364 0.08139 0.17016 0.0
C197 C 0.53215 0.09108 0.18822 0.0
C198 C 0.52961 0.07865 0.20642 0.0
H199 H 0.48199 0.03222 0.25331 0.0
H200 H 0.49578 0.06304 0.24381 0.0
H201 H 0.48659 0.03748 0.22641 0.0
H202 H 0.53494 0.02823 0.18889 0.0
H203 H 0.53938 0.0501 0.15675 0.0
H204 H 0.45177 0.5824 0.68231 0.0
H205 H 0.47047 0.57649 0.71311 0.0
H206 H 0.45555 0.50306 0.69404 0.0
H207 H 0.43711 0.50924 0.66246 0.0
H208 H 0.43596 0.50863 0.73368 0.0
H209 H 0.535 0.57029 0.72673 0.0
H210 H 0.51659 0.58415 0.71648 0.0
H211 H 0.51541 0.55662 0.70507 0.0
C212 C 0.45287 0.56514 0.68445 0.0
C213 C 0.44293 0.54623 0.67011 0.0
C214 C 0.46378 0.56187 0.70196 0.0
C215 C 0.46475 0.53949 0.7057 0.0
C216 C 0.45532 0.52061 0.69123 0.0
H217 H 0.47139 0.54317 0.8381 0.0
H218 H 0.47789 0.52492 0.8067 0.0
C219 C 0.4448 0.52412 0.6733 0.0
C220 C 0.47248 0.53556 0.72607 0.0
H221 H 0.51664 0.56905 0.76025 0.0
C222 C 0.45395 0.5209 0.73957 0.0
C223 C 0.49603 0.55134 0.73362 0.0
C224 C 0.51698 0.5663 0.71965 0.0
C225 C 0.45721 0.52455 0.76053 0.0
C226 C 0.47966 0.54311 0.76795 0.0
C227 C 0.49934 0.55502 0.75454 0.0
C228 C 0.48045 0.55506 0.78765 0.0
C229 C 0.43563 0.51081 0.77435 0.0
C230 C 0.48077 0.57838 0.7874 0.0
C231 C 0.47701 0.58867 0.80508 0.0
C232 C 0.47301 0.57595 0.82349 0.0
C233 C 0.47441 0.55334 0.82408 0.0
C234 C 0.47801 0.54287 0.80619 0.0
H235 H 0.41939 0.49712 0.76608 0.0
H236 H 0.44094 0.501 0.78614 0.0
H237 H 0.4302 0.52399 0.78206 0.0
H238 H 0.48257 0.58809 0.77326 0.0
H239 H 0.47627 0.60622 0.80418 0.0
H240 H 0.9409 0.43925 0.16101 0.0
H241 H 0.96486 0.4581 0.19165 0.0
H242 H 0.91331 0.39745 0.22711 0.0
H243 H 0.88985 0.3787 0.19694 0.0
H244 H 0.94737 0.4743 0.22191 0.0
H245 H 0.97564 0.40782 0.25491 0.0
H246 H 0.96775 0.40681 0.22844 0.0
H247 H 0.94429 0.39088 0.24711 0.0
C248 C 0.93522 0.42966 0.1753 0.0
C249 C 0.91342 0.40762 0.17665 0.0
C250 C 0.94891 0.44042 0.19276 0.0
C251 C 0.94119 0.429 0.21168 0.0
C252 C 0.92017 0.40631 0.2127 0.0
H253 H 0.88227 0.44796 0.30722 0.0
H254 H 0.90542 0.45517 0.27606 0.0
C255 C 0.90651 0.39573 0.19541 0.0
C256 C 0.95175 0.44213 0.23086 0.0
H257 H 0.95717 0.42692 0.27955 0.0
C258 C 0.9506 0.46448 0.23442 0.0
C259 C 0.95703 0.43009 0.24719 0.0
C260 C 0.96154 0.40772 0.24408 0.0
C261 C 0.95035 0.47271 0.2542 0.0
C262 C 0.95063 0.45787 0.27064 0.0
C263 C 0.95609 0.43794 0.26699 0.0
C264 C 0.93911 0.45861 0.29027 0.0
C265 C 0.94757 0.49606 0.25728 0.0
C266 C 0.95021 0.45805 0.30883 0.0
C267 C 0.93675 0.45374 0.32689 0.0
C268 C 0.91193 0.44943 0.32648 0.0
C269 C 0.90134 0.45112 0.30802 0.0
C270 C 0.91473 0.45561 0.29016 0.0
H271 H 0.9585 0.51006 0.24585 0.0
H272 H 0.92799 0.49217 0.25516 0.0
H273 H 0.95357 0.50383 0.27263 0.0
H274 H 0.96887 0.45995 0.30923 0.0
H275 H 0.94531 0.45241 0.34093 0.0
H276 H 0.37294 0.89044 0.80054 0.0
H277 H 0.39466 0.91002 0.76958 0.0
H278 H 0.45971 0.95387 0.80419 0.0
H279 H 0.43774 0.93462 0.83553 0.0
H280 H 0.43711 0.97078 0.75888 0.0
H281 H 0.46238 0.89277 0.7647 0.0
H282 H 0.43283 0.88831 0.77435 0.0
H283 H 0.46044 0.90954 0.78666 0.0
C284 C 0.39158 0.90489 0.80164 0.0
C285 C 0.40377 0.91089 0.82034 0.0
C286 C 0.40391 0.91615 0.78397 0.0
C287 C 0.42872 0.93332 0.78467 0.0
C288 C 0.44045 0.94084 0.80345 0.0
H289 H 0.48896 0.91264 0.6729 0.0
H290 H 0.49379 0.9324 0.70595 0.0
C291 C 0.42792 0.92981 0.82128 0.0
C292 C 0.44297 0.93895 0.7657 0.0
H293 H 0.46479 0.91027 0.7327 0.0
C294 C 0.44388 0.95806 0.75321 0.0
C295 C 0.45217 0.92263 0.75858 0.0
C296 C 0.4521 0.90217 0.77172 0.0
C297 C 0.45231 0.96019 0.73315 0.0
C298 C 0.45888 0.94207 0.72526 0.0
C299 C 0.45977 0.92423 0.73845 0.0
C300 C 0.46116 0.93854 0.70319 0.0
C301 C 0.45354 0.98151 0.7206 0.0
C302 C 0.44231 0.93695 0.68992 0.0
C303 C 0.44026 0.92667 0.6707 0.0
C304 C 0.4565 0.91703 0.66471 0.0
C305 C 0.47637 0.92017 0.67722 0.0
C306 C 0.479 0.93134 0.69614 0.0
H307 H 0.45954 -0.00164 0.73003 0.0
H308 H 0.4664 0.98544 0.70766 0.0
H309 H 0.43488 0.97729 0.71478 0.0
H310 H 0.42778 0.94149 0.69498 0.0
H311 H 0.42451 0.92393 0.66139 0.0
H312 H 0.52132 0.38488 0.30722 0.0
H313 H 0.51775 0.40201 0.27491 0.0
H314 H 0.51275 0.46278 0.30529 0.0
H315 H 0.51712 0.4459 0.33807 0.0
H316 H 0.48564 0.41597 0.25585 0.0
H317 H 0.57483 0.49745 0.27197 0.0
H318 H 0.56332 0.47091 0.2883 0.0
H319 H 0.5491 0.49148 0.28834 0.0
C320 C 0.51909 0.4017 0.30715 0.0
C321 C 0.52 0.4143 0.32519 0.0
C322 C 0.51688 0.41143 0.28861 0.0
C323 C 0.51547 0.43394 0.28762 0.0
C324 C 0.51433 0.44563 0.30568 0.0
H325 H 0.53567 0.46284 0.15615 0.0
H326 H 0.51792 0.46681 0.18867 0.0
C327 C 0.51666 0.43589 0.32439 0.0
C328 C 0.51828 0.44585 0.26755 0.0
H329 H 0.56341 0.48843 0.23832 0.0
C330 C 0.50222 0.43231 0.25199 0.0
C331 C 0.53985 0.46732 0.26261 0.0
C332 C 0.55789 0.48269 0.27858 0.0
C333 C 0.50865 0.43781 0.23157 0.0
C334 C 0.5315 0.4577 0.22669 0.0
C335 C 0.54598 0.47311 0.24219 0.0
C336 C 0.5434 0.45894 0.20686 0.0
C337 C 0.49225 0.42073 0.21553 0.0
C338 C 0.56408 0.45416 0.20636 0.0
C339 C 0.57421 0.45203 0.18802 0.0
C340 C 0.56392 0.45462 0.16966 0.0
C341 C 0.54392 0.46065 0.17008 0.0
C342 C 0.5337 0.46279 0.1886 0.0
H343 H 0.47583 0.4052 0.22204 0.0
H344 H 0.48583 0.43113 0.20516 0.0
H345 H 0.5027 0.41306 0.20644 0.0
H346 H 0.57187 0.45109 0.22023 0.0
H347 H 0.58973 0.44759 0.18829 0.0
H348 H 0.1053 0.61168 0.69721 0.0
H349 H 0.0821 0.59248 0.72738 0.0
H350 H 0.025 0.53789 0.6909 0.0
H351 H 0.04876 0.55705 0.66021 0.0
H352 H 0.03495 0.57991 0.74238 0.0
H353 H 0.04895 0.49657 0.72535 0.0
H354 H 0.06472 0.52429 0.71075 0.0
H355 H 0.03209 0.50634 0.70797 0.0
C356 C 0.08764 0.59581 0.69549 0.0
C357 C 0.07906 0.5856 0.67637 0.0
C358 C 0.07426 0.58493 0.71279 0.0
C359 C 0.05196 0.56353 0.71146 0.0
C360 C 0.04234 0.55419 0.69229 0.0
H361 H 0.04835 0.53613 0.8416 0.0
H362 H 0.02416 0.5291 0.81025 0.0
C363 C 0.05585 0.56521 0.67479 0.0
C364 C 0.04129 0.55011 0.73048 0.0
H365 H 0.04718 0.50621 0.75923 0.0
C366 C 0.03654 0.56318 0.74608 0.0
C367 C 0.04295 0.52805 0.73516 0.0
C368 C 0.04745 0.51288 0.71902 0.0
C369 C 0.03752 0.55711 0.76644 0.0
C370 C 0.04285 0.53714 0.77114 0.0
C371 C 0.04343 0.52171 0.75551 0.0
C372 C 0.05516 0.5367 0.79043 0.0
C373 C 0.03606 0.57398 0.78263 0.0
C374 C 0.08023 0.54221 0.78967 0.0
C375 C 0.09389 0.54611 0.80733 0.0
C376 C 0.08283 0.54458 0.82625 0.0
C377 C 0.05735 0.53753 0.82719 0.0
C378 C 0.04356 0.53364 0.80932 0.0
H379 H 0.0323 0.58902 0.77631 0.0
H380 H 0.02114 0.56327 0.79343 0.0
H381 H 0.05363 0.58235 0.79119 0.0
H382 H 0.08961 0.54474 0.77529 0.0
H383 H 0.1134 0.55123 0.80607 0.0
H384 H 0.55733 0.06393 0.03822 0.0
H385 H 0.52825 0.03317 0.0153 0.0
H386 H 0.46756 0.03414 0.04906 0.0
H387 H 0.4967 0.06354 0.07288 0.0
H388 H 0.45552 0.99046 0.03832 0.0
H389 H 0.49379 0.04731 0.97043 0.0
H390 H 0.51726 0.04156 0.98247 0.0
H391 H 0.50389 0.05899 0.99551 0.0
C392 C 0.53776 0.05728 0.04084 0.0
C393 C 0.52916 0.06603 0.0572 0.0
C394 C 0.52116 0.04 0.02759 0.0
C395 C 0.4957 0.03203 0.02996 0.0
C396 C 0.48711 0.04019 0.04677 0.0
H397 H 0.40385 0.95141 0.92703 0.0
H398 H 0.42455 0.98355 0.95242 0.0
C399 C 0.50372 0.05689 0.0604 0.0
C400 C 0.4781 0.01496 0.01506 0.0
H401 H 0.4685 0.00406 0.96448 0.0
C402 C 0.45817 0.99365 0.02218 0.0
C403 C 0.48091 0.01941 0.99397 0.0
C404 C 0.49995 0.04322 0.9852 0.0
C405 C 0.44177 0.97613 0.00881 0.0
C406 C 0.44618 0.97936 0.98774 0.0
C407 C 0.46534 0.00125 0.98062 0.0
C408 C 0.43217 0.95975 0.97292 0.0
C409 C 0.4198 0.95454 0.01753 0.0
C410 C 0.42973 0.9358 0.97586 0.0
C411 C 0.41737 0.91742 0.96173 0.0
C412 C 0.408 0.9228 0.94396 0.0
C413 C 0.4109 0.94684 0.94066 0.0
C414 C 0.4227 0.96515 0.95514 0.0
H415 H 0.41366 0.95974 0.03183 0.0
H416 H 0.40406 0.94738 0.00683 0.0
H417 H 0.42507 0.93957 0.02118 0.0
H418 H 0.43778 0.93134 0.98893 0.0
H419 H 0.41578 0.89911 0.96445 0.0
H420 H 0.44772 0.50888 0.57346 0.0
H421 H 0.465 0.48927 0.54995 0.0
H422 H 0.42533 0.50223 0.50076 0.0
H423 H 0.40834 0.52216 0.52397 0.0
H424 H 0.44187 0.44872 0.52391 0.0
H425 H 0.49674 0.53463 0.48114 0.0
H426 H 0.48298 0.53463 0.50534 0.0
H427 H 0.46449 0.52674 0.48279 0.0
C428 C 0.44261 0.50746 0.55766 0.0
C429 C 0.42688 0.51728 0.55053 0.0
C430 C 0.45248 0.49626 0.54426 0.0
C431 C 0.44679 0.49476 0.52359 0.0
C432 C 0.43038 0.50373 0.51659 0.0
H433 H 0.49622 0.43959 0.41968 0.0
H434 H 0.47394 0.45525 0.44203 0.0
C435 C 0.42061 0.515 0.52991 0.0
C436 C 0.45823 0.4841 0.50926 0.0
H437 H 0.49587 0.49784 0.46803 0.0
C438 C 0.45371 0.45943 0.5117 0.0
C439 C 0.47361 0.49818 0.49335 0.0
C440 C 0.47997 0.52507 0.49054 0.0
C441 C 0.46406 0.44839 0.49852 0.0
C442 C 0.47954 0.46251 0.4827 0.0
C443 C 0.48386 0.48708 0.48013 0.0
C444 C 0.49242 0.45249 0.46926 0.0
C445 C 0.45824 0.42166 0.50151 0.0
C446 C 0.51033 0.44613 0.4772 0.0
C447 C 0.52312 0.43735 0.46453 0.0
C448 C 0.51824 0.4348 0.44366 0.0
C449 C 0.50033 0.44129 0.4357 0.0
C450 C 0.4876 0.45021 0.44842 0.0
H451 H 0.44147 0.4119 0.51086 0.0
H452 H 0.45556 0.41207 0.48675 0.0
H453 H 0.47389 0.42042 0.50936 0.0
H454 H 0.51462 0.44822 0.49319 0.0
H455 H 0.53684 0.43256 0.47114 0.0
H456 H 0.04772 0.50825 0.92025 0.0
H457 H 0.0144 0.48023 0.94206 0.0
H458 H 0.0592 0.5122 0.9947 0.0
H459 H 0.09252 0.54009 0.97316 0.0
H460 H 0.03446 0.4587 0.99361 0.0
H461 H 0.97233 0.50295 0.97906 0.0
H462 H 0.98425 0.49408 0.95723 0.0
H463 H 0.00484 0.51806 0.97346 0.0
C464 C 0.05045 0.5093 0.93646 0.0
C465 C 0.07267 0.52647 0.945 0.0
C466 C 0.03142 0.49333 0.94887 0.0
C467 C 0.03438 0.49436 0.96994 0.0
C468 C 0.05663 0.51119 0.97845 0.0
H469 H 0.95059 0.42895 0.07727 0.0
H470 H 0.98315 0.44863 0.05216 0.0
C471 C 0.07559 0.52716 0.96611 0.0
C472 C 0.01419 0.47826 0.98331 0.0
H473 H 0.95773 0.46877 0.00084 0.0
C474 C 0.01759 0.46074 0.99515 0.0
C475 C 0.99231 0.48108 0.98521 0.0
C476 C 0.98813 0.50015 0.9732 0.0
C477 C -0.00043 0.4459 0.00895 0.0
C478 C 0.97791 0.44911 0.01119 0.0
C479 C 0.97437 0.46636 -0.00093 0.0
C480 C 0.95881 0.43531 0.02633 0.0
C481 C 0.00379 0.42681 0.02086 0.0
C482 C 0.93438 0.42149 0.02013 0.0
C483 C 0.91577 0.41054 0.03441 0.0
C484 C 0.92126 0.41322 0.05518 0.0
C485 C 0.94585 0.42646 0.06138 0.0
C486 C 0.96448 0.43758 0.04704 0.0
H487 H 0.01729 0.42173 0.01326 0.0
H488 H 0.01129 0.43441 0.03596 0.0
H489 H 0.98633 0.4099 0.02306 0.0
H490 H 0.92964 0.4196 0.00422 0.0
H491 H 0.89701 0.40036 0.02915 0.0
H492 H 0.5568 0.04266 0.41712 0.0
H493 H 0.53089 0.01006 0.44049 0.0
H494 H 0.57172 0.05417 0.49102 0.0
H495 H 0.59731 0.08688 0.46793 0.0
H496 H 0.5417 0.98331 0.47069 0.0
H497 H 0.50076 0.04147 0.50327 0.0
H498 H 0.51847 0.0494 0.48019 0.0
H499 H 0.53378 0.05536 0.5043 0.0
C500 C 0.56042 0.04526 0.4332 0.0
C501 C 0.57886 0.06742 0.44073 0.0
C502 C 0.54559 0.02668 0.4465 0.0
C503 C 0.54906 0.03004 0.46746 0.0
C504 C 0.56837 0.05153 0.47491 0.0
H505 H 0.48 0.94586 0.5744 0.0
H506 H 0.50637 0.97669 0.55003 0.0
C507 C 0.58305 0.07013 0.46168 0.0
C508 C 0.5321 0.01147 0.48165 0.0
H509 H 0.49175 0.00376 0.52013 0.0
C510 C 0.53065 0.98768 0.48142 0.0
C511 C 0.51768 0.0173 0.49556 0.0
C512 C 0.51751 0.04219 0.49577 0.0
C513 C 0.51556 0.96969 0.49513 0.0
C514 C 0.50145 0.97568 0.50922 0.0
C515 C 0.50275 -0.00063 0.50935 0.0
C516 C 0.48509 0.95749 0.5239 0.0
C517 C 0.51515 0.94457 0.49477 0.0
C518 C 0.46416 0.93693 0.51721 0.0
C519 C 0.44901 0.91942 0.53105 0.0
C520 C 0.45459 0.9222 0.55181 0.0
C521 C 0.47525 0.9432 0.55851 0.0
C522 C 0.49034 0.96077 0.54464 0.0
H523 H 0.53072 0.94448 0.48591 0.0
H524 H 0.51593 0.93814 0.51036 0.0
H525 H 0.49771 0.93123 0.48774 0.0
H526 H 0.45964 0.93436 0.50127 0.0
H527 H 0.4332 0.90348 0.5254 0.0
H528 H 0.46376 0.5766 0.97032 0.0
H529 H 0.4836 0.55933 0.99336 0.0
H530 H 0.51399 0.53726 0.94259 0.0
H531 H 0.49453 0.55496 0.91934 0.0
H532 H 0.47598 0.51137 0.99581 0.0
H533 H 0.574 0.57217 0.97869 0.0
H534 H 0.54929 0.57936 0.97086 0.0
H535 H 0.55593 0.55754 0.9568 0.0
C536 C 0.47481 0.56824 0.96401 0.0
C537 C 0.47762 0.56718 0.94299 0.0
C538 C 0.48613 0.55838 0.97723 0.0
C539 C 0.50053 0.54732 0.9697 0.0
C540 C 0.5034 0.54621 0.94872 0.0
H541 H 0.56945 0.46234 0.02014 0.0
H542 H 0.55311 0.48473 -0.00112 0.0
C543 C 0.49214 0.55618 0.93546 0.0
C544 C 0.51148 0.53592 0.98385 0.0
H545 H 0.56589 0.53674 -0.00119 0.0
C546 C 0.49565 0.51704 0.9966 0.0
C547 C 0.53715 0.54342 0.98484 0.0
C548 C 0.55513 0.56439 0.97221 0.0
C549 C 0.50475 0.50501 0.00997 0.0
C550 C 0.53037 0.51227 0.01074 0.0
C551 C 0.54624 0.53128 0.99815 0.0
C552 C 0.54091 0.49958 0.0239 0.0
C553 C 0.48687 0.48416 0.02276 0.0
C554 C 0.53973 0.50085 0.04502 0.0
C555 C 0.54908 0.48807 0.05727 0.0
C556 C 0.55975 0.47385 0.04853 0.0
C557 C 0.56125 0.47303 0.02735 0.0
C558 C 0.55199 0.48585 0.01516 0.0
H559 H 0.46755 0.47776 0.01756 0.0
H560 H 0.49153 0.46833 0.02253 0.0
H561 H 0.48805 0.49046 0.03865 0.0
H562 H 0.5315 0.51164 0.05201 0.0
H563 H 0.54774 0.48913 0.07354 0.0
H564 H 0.89653 0.44845 0.47551 0.0
H565 H 0.92799 0.47511 0.49907 0.0
H566 H 0.9772 0.50945 0.44926 0.0
H567 H 0.94559 0.48305 0.42544 0.0
H568 H 0.97435 0.47825 0.50486 0.0
H569 H 0.97957 0.56843 0.48104 0.0
H570 H 0.9546 0.53948 0.47366 0.0
H571 H 0.98371 0.55081 0.4608 0.0
C572 C 0.914 0.46174 0.46951 0.0
C573 C 0.91858 0.4637 0.44859 0.0
C574 C 0.93193 0.47696 0.48302 0.0
C575 C 0.95473 0.49447 0.47588 0.0
C576 C 0.95949 0.4964 0.45502 0.0
H577 H 0.09243 0.591 0.5299 0.0
H578 H 0.05755 0.56826 0.50764 0.0
C579 C 0.9415 0.48119 0.44146 0.0
C580 C 0.97386 0.50994 0.49041 0.0
H581 H 0.01048 0.56945 0.50387 0.0
C582 C 0.98212 0.49818 0.50477 0.0
C583 C 0.98387 0.53592 0.49023 0.0
C584 C 0.97485 0.54945 0.47574 0.0
C585 C 0.00064 0.51175 0.51866 0.0
C586 C 0.01088 0.53772 0.5183 0.0
C587 C 0.00248 0.54951 0.50408 0.0
C588 C 0.03125 0.55294 0.53192 0.0
C589 C 0.00965 0.49824 0.5332 0.0
C590 C 0.02778 0.55229 0.55292 0.0
C591 C 0.0477 0.56528 0.56574 0.0
C592 C 0.07134 0.5791 0.55768 0.0
C593 C 0.07448 0.5804 0.53659 0.0
C594 C 0.05459 0.56748 0.52382 0.0
H595 H 0.00328 0.47864 0.52888 0.0
H596 H 0.03008 0.50717 0.53395 0.0
H597 H 0.00253 0.4988 0.54855 0.0
H598 H 0.00977 0.54139 0.55939 0.0
H599 H 0.04469 0.56401 0.58192 0.0
H600 H 0.50657 0.15567 0.10784 0.0
H601 H 0.49626 0.19038 0.10448 0.0
H602 H 0.56539 0.232 0.07392 0.0
H603 H 0.57483 0.19686 0.07605 0.0
H604 H 0.51648 0.23127 0.12128 0.0
H605 H 0.52444 0.25231 0.0402 0.0
H606 H 0.52358 0.22396 0.04965 0.0
H607 H 0.55238 0.25147 0.04803 0.0
C608 C 0.51919 0.17204 0.09992 0.0
C609 C 0.54143 0.1736 0.09211 0.0
C610 C 0.51333 0.19187 0.09802 0.0
C611 C 0.52983 0.2138 0.08865 0.0
C612 C 0.55185 0.21509 0.08053 0.0
H613 H 0.57034 0.35862 0.12576 0.0
H614 H 0.55709 0.31456 0.12289 0.0
C615 C 0.55739 0.19503 0.08192 0.0
C616 C 0.52566 0.23626 0.08954 0.0
H617 H 0.5351 0.28783 0.06278 0.0
C618 C 0.51995 0.24332 0.10832 0.0
C619 C 0.52935 0.25183 0.07262 0.0
C620 C 0.53246 0.24427 0.05148 0.0
C621 C 0.5198 0.26625 0.11097 0.0
C622 C 0.52673 0.2831 0.09465 0.0
C623 C 0.53042 0.27526 0.07549 0.0
C624 C 0.53262 0.30948 0.0975 0.0
C625 C 0.51251 0.27216 0.13133 0.0
C626 C 0.52385 0.32166 0.08389 0.0
C627 C 0.5321 0.34715 0.08512 0.0
C628 C 0.54899 0.36085 0.10016 0.0
C629 C 0.55703 0.34853 0.1142 0.0
C630 C 0.54925 0.32321 0.11268 0.0
H631 H 0.49828 0.2553 0.13851 0.0
H632 H 0.52879 0.27933 0.14147 0.0
H633 H 0.5052 0.28604 0.13017 0.0
H634 H 0.51113 0.31154 0.07198 0.0
H635 H 0.5256 0.35619 0.07409 0.0
H636 H 0.33166 0.52716 0.64458 0.0
H637 H 0.29006 0.52364 0.64849 0.0
H638 H 0.28333 0.52629 0.58373 0.0
H639 H 0.32463 0.52936 0.57964 0.0
H640 H 0.28049 0.56119 0.63623 0.0
H641 H 0.21491 0.47555 0.59903 0.0
H642 H 0.24556 0.48056 0.60636 0.0
H643 H 0.24068 0.49332 0.58314 0.0
C644 C 0.32107 0.52627 0.63113 0.0
C645 C 0.3316 0.52884 0.61179 0.0
C646 C 0.29728 0.52423 0.63341 0.0
C647 C 0.28353 0.52457 0.61641 0.0
C648 C 0.29336 0.52547 0.59705 0.0
H649 H 0.17395 0.56894 0.58292 0.0
H650 H 0.20332 0.55143 0.58576 0.0
C651 C 0.31712 0.52742 0.59475 0.0
C652 C 0.26094 0.52812 0.6189 0.0
H653 H 0.20158 0.50763 0.60268 0.0
C654 C 0.26306 0.54919 0.62928 0.0
C655 C 0.23832 0.51254 0.60967 0.0
C656 C 0.23463 0.4891 0.59909 0.0
C657 C 0.24362 0.55586 0.62978 0.0
C658 C 0.22124 0.54074 0.61997 0.0
C659 C 0.21877 0.51917 0.6102 0.0
C660 C 0.20106 0.54824 0.61835 0.0
C661 C 0.2477 0.57976 0.63985 0.0
C662 C 0.18952 0.55155 0.6357 0.0
C663 C 0.17288 0.56179 0.63416 0.0
C664 C 0.16734 0.56867 0.61521 0.0
C665 C 0.17791 0.56401 0.59776 0.0
C666 C 0.19464 0.5539 0.59934 0.0
H667 H 0.2675 0.59162 0.64296 0.0
H668 H 0.24051 0.59025 0.63029 0.0
H669 H 0.23772 0.57574 0.65448 0.0
H670 H 0.19393 0.54686 0.65048 0.0
H671 H 0.16484 0.56486 0.64787 0.0
H672 H 0.80432 0.31707 0.08424 0.0
H673 H 0.77118 0.27561 0.08642 0.0
H674 H 0.81136 0.25745 0.13228 0.0
H675 H 0.84393 0.29981 0.13119 0.0
H676 H 0.76383 0.2311 0.08124 0.0
H677 H 0.75084 0.24255 0.16316 0.0
H678 H 0.77226 0.26738 0.14796 0.0
H679 H 0.78004 0.24349 0.15678 0.0
C680 C 0.80629 0.30416 0.0946 0.0
C681 C 0.82649 0.31174 0.10777 0.0
C682 C 0.7873 0.28039 0.09584 0.0
C683 C 0.78834 0.26351 0.10997 0.0
C684 C 0.80963 0.27038 0.12185 0.0
H685 H 0.64981 0.12632 0.10081 0.0
H686 H 0.69452 0.15138 0.10233 0.0
C687 C 0.82835 0.29448 0.12106 0.0
C688 C 0.76623 0.23967 0.11296 0.0
H689 H 0.72206 0.20697 0.14762 0.0
C690 C 0.75476 0.22568 0.09579 0.0
C691 C 0.75442 0.23257 0.13199 0.0
C692 C 0.76486 0.24735 0.151 0.0
C693 C 0.73102 0.20616 0.09674 0.0
C694 C 0.71893 0.19948 0.11569 0.0
C695 C 0.7313 0.21214 0.13311 0.0
C696 C 0.69237 0.18216 0.11745 0.0
C697 C 0.71855 0.19432 0.07717 0.0
C698 C 0.67636 0.19022 0.12683 0.0
C699 C 0.651 0.17556 0.12671 0.0
C700 C 0.64105 0.15273 0.11681 0.0
C701 C 0.65705 0.14404 0.1083 0.0
C702 C 0.68256 0.15845 0.10898 0.0
H703 H 0.72823 0.20546 0.06378 0.0
H704 H 0.71852 0.17604 0.07568 0.0
H705 H 0.6992 0.19174 0.07684 0.0
H706 H 0.68338 0.20838 0.13354 0.0
H707 H 0.63912 0.18277 0.13334 0.0
H708 H 0.487 0.83737 0.60471 0.0
H709 H 0.4978 0.80311 0.59987 0.0
H710 H 0.42592 0.7597 0.57408 0.0
H711 H 0.416 0.79433 0.57746 0.0
H712 H 0.48143 0.76274 0.61665 0.0
H713 H 0.46301 0.73945 0.53656 0.0
H714 H 0.46443 0.7678 0.5465 0.0
H715 H 0.43581 0.73993 0.54665 0.0
C716 C 0.47384 0.82067 0.59751 0.0
C717 C 0.45076 0.81851 0.59131 0.0
C718 C 0.47998 0.80109 0.59477 0.0
C719 C 0.46292 0.77883 0.58618 0.0
C720 C 0.43991 0.77688 0.57989 0.0
H721 H 0.4265 0.63685 0.62602 0.0
H722 H 0.44053 0.68081 0.62164 0.0
C723 C 0.43409 0.79665 0.58205 0.0
C724 C 0.46766 0.75668 0.58601 0.0
H725 H 0.45377 0.70399 0.55938 0.0
C726 C 0.476 0.75023 0.60388 0.0
C727 C 0.46164 0.74053 0.56923 0.0
C728 C 0.45606 0.74754 0.54863 0.0
C729 C 0.47621 0.72725 0.60602 0.0
C730 C 0.46649 0.70969 0.59031 0.0
C731 C 0.46047 0.71701 0.57177 0.0
C732 C 0.45985 0.68316 0.59351 0.0
C733 C 0.4865 0.72207 0.62527 0.0
C734 C 0.46507 0.66934 0.57878 0.0
C735 C 0.45611 0.64382 0.58089 0.0
C736 C 0.4422 0.6318 0.59796 0.0
C737 C 0.43755 0.64569 0.61288 0.0
C738 C 0.44586 0.67097 0.61049 0.0
H739 H 0.50233 0.73899 0.63075 0.0
H740 H 0.47219 0.71627 0.63722 0.0
H741 H 0.49272 0.70746 0.62317 0.0
H742 H 0.47564 0.67821 0.56545 0.0
H743 H 0.45991 0.63348 0.56916 0.0
H744 H 0.65533 0.43445 0.07416 0.0
H745 H 0.6964 0.437 0.07799 0.0
H746 H 0.71336 0.49365 0.12318 0.0
H747 H 0.67129 0.48961 0.1205 0.0
H748 H 0.74089 0.46743 0.07368 0.0
H749 H 0.7269 0.44677 0.15579 0.0
H750 H 0.70272 0.44644 0.13976 0.0
H751 H 0.72639 0.47519 0.14888 0.0
C752 C 0.66792 0.44772 0.08471 0.0
C753 C 0.66007 0.46162 0.09722 0.0
C754 C 0.69146 0.44917 0.08692 0.0
C755 C 0.70785 0.46497 0.10137 0.0
C756 C 0.70077 0.48056 0.11256 0.0
H757 H 0.85026 0.45679 0.09879 0.0
H758 H 0.8211 0.47487 0.09721 0.0
C759 C 0.67686 0.4785 0.11083 0.0
C760 C 0.73149 0.46365 0.10528 0.0
H761 H 0.76429 0.45135 0.14197 0.0
C762 C 0.74605 0.46398 0.08864 0.0
C763 C 0.7382 0.459 0.12481 0.0
C764 C 0.72264 0.45659 0.14329 0.0
C765 C 0.76611 0.45832 0.0907 0.0
C766 C 0.77284 0.45373 0.11024 0.0
C767 C 0.75918 0.45489 0.12703 0.0
C768 C 0.79213 0.44506 0.11344 0.0
C769 C 0.77864 0.45572 0.07172 0.0
C770 C 0.78639 0.42332 0.12447 0.0
C771 C 0.80345 0.41365 0.12619 0.0
C772 C 0.82634 0.4252 0.11651 0.0
C773 C 0.83255 0.44743 0.10617 0.0
C774 C 0.81578 0.45758 0.10506 0.0
H775 H 0.76697 0.45312 0.05812 0.0
H776 H 0.79595 0.47272 0.0694 0.0
H777 H 0.78316 0.43984 0.0728 0.0
H778 H 0.76835 0.4133 0.13117 0.0
H779 H 0.79822 0.39643 0.13418 0.0
H780 H 0.15189 0.69127 0.63879 0.0
H781 H 0.18367 0.73378 0.64183 0.0
H782 H 0.21845 0.72431 0.58768 0.0
H783 H 0.18608 0.68279 0.58391 0.0
H784 H 0.22788 0.74786 0.64987 0.0
H785 H 0.22891 0.79157 0.57728 0.0
H786 H 0.20361 0.7627 0.58426 0.0
H787 H 0.23039 0.76337 0.57156 0.0
C788 C 0.16593 0.69863 0.62721 0.0
C789 C 0.16648 0.68376 0.61107 0.0
C790 C 0.18412 0.72289 0.62897 0.0
C791 C 0.20339 0.73256 0.61483 0.0
C792 C 0.2034 0.71784 0.5984 0.0
H793 H 0.35355 0.80754 0.63525 0.0
H794 H 0.30921 0.7833 0.63802 0.0
C795 C 0.18493 0.69389 0.59635 0.0
C796 C 0.22524 0.75643 0.61852 0.0
H797 H 0.26992 0.80405 0.59305 0.0
C798 C 0.2367 0.76053 0.63756 0.0
C799 C 0.23657 0.77372 0.60288 0.0
C800 C 0.22396 0.77269 0.58297 0.0
C801 C 0.26015 0.77992 0.64071 0.0
C802 C 0.27304 0.79481 0.62414 0.0
C803 C 0.26056 0.79225 0.6057 0.0
C804 C 0.29999 0.81104 0.6248 0.0
C805 C 0.27088 0.78383 0.66174 0.0
C806 C 0.30988 0.8346 0.616 0.0
C807 C 0.33534 0.84809 0.61366 0.0
C808 C 0.35138 0.83849 0.62048 0.0
C809 C 0.34161 0.81553 0.63016 0.0
C810 C 0.31618 0.80175 0.63194 0.0
H811 H 0.25621 0.77973 0.67325 0.0
H812 H 0.27912 0.77091 0.66442 0.0
H813 H 0.28519 0.80298 0.66404 0.0
H814 H 0.29789 0.84222 0.61031 0.0
H815 H 0.34247 0.86579 0.60615 0.0
H816 H 0.79268 0.42018 0.41582 0.0
H817 H 0.75615 0.42726 0.41255 0.0
H818 H 0.793 0.48304 0.36743 0.0
H819 H 0.82908 0.47464 0.36967 0.0
H820 H 0.74541 0.46304 0.41856 0.0
H821 H 0.73335 0.44184 0.33647 0.0
H822 H 0.75615 0.43761 0.35133 0.0
H823 H 0.76173 0.46784 0.34261 0.0
C824 C 0.79303 0.43404 0.40527 0.0
C825 C 0.81355 0.44668 0.39283 0.0
C826 C 0.77214 0.43812 0.40341 0.0
C827 C 0.77151 0.45529 0.38938 0.0
C828 C 0.79264 0.46906 0.37782 0.0
H829 H 0.63281 0.47015 0.39928 0.0
H830 H 0.67734 0.48307 0.39817 0.0
C831 C 0.81333 0.46444 0.37925 0.0
C832 C 0.74834 0.45787 0.38666 0.0
H833 H 0.70424 0.45206 0.35201 0.0
C834 C 0.73643 0.46072 0.40399 0.0
C835 C 0.7366 0.45482 0.36762 0.0
C836 C 0.74747 0.45013 0.34848 0.0
C837 C 0.71256 0.45906 0.40307 0.0
C838 C 0.70075 0.45588 0.38405 0.0
C839 C 0.7133 0.45458 0.36656 0.0
C840 C 0.6744 0.45064 0.38216 0.0
C841 C 0.69978 0.45904 0.42269 0.0
C842 C 0.65808 0.42914 0.37217 0.0
C843 C 0.63285 0.4223 0.37208 0.0
C844 C 0.62334 0.43654 0.38234 0.0
C845 C 0.63969 0.45869 0.39149 0.0
C846 C 0.66509 0.46593 0.39104 0.0
H847 H 0.70904 0.45538 0.4359 0.0
H848 H 0.70011 0.47735 0.42496 0.0
H849 H 0.68031 0.44491 0.4225 0.0
H850 H 0.66473 0.41703 0.36513 0.0
H851 H 0.62069 0.40509 0.36495 0.0
H852 H 0.29827 0.83814 0.91928 0.0
H853 H 0.25627 0.80544 0.92237 0.0
H854 H 0.25787 0.78585 0.8599 0.0
H855 H 0.29937 0.81893 0.85646 0.0
H856 H 0.21111 0.7784 0.87222 0.0
H857 H 0.25318 0.73718 0.92632 0.0
H858 H 0.25529 0.76669 0.93337 0.0
H859 H 0.27149 0.76397 0.91145 0.0
C860 C 0.28944 0.82727 0.90606 0.0
C861 C 0.30234 0.83077 0.88774 0.0
C862 C 0.26548 0.80855 0.90788 0.0
C863 C 0.25428 0.7928 0.89153 0.0
C864 C 0.26625 0.7977 0.87275 0.0
H865 H 0.15748 0.64831 0.86037 0.0
H866 H 0.18028 0.69303 0.86147 0.0
C867 C 0.29005 0.8166 0.87084 0.0
C868 C 0.2319 0.76936 0.89445 0.0
H869 H 0.21236 0.71327 0.91713 0.0
C870 C 0.21118 0.76425 0.88227 0.0
C871 C 0.23209 0.75089 0.90752 0.0
C872 C 0.25423 0.75477 0.92031 0.0
C873 C 0.19095 0.74089 0.88236 0.0
C874 C 0.19166 0.7222 0.8948 0.0
C875 C 0.21182 0.7277 0.90769 0.0
C876 C 0.17337 0.6961 0.89321 0.0
C877 C 0.16924 0.73628 0.86888 0.0
C878 C 0.16163 0.68295 0.91062 0.0
C879 C 0.14882 0.65731 0.91011 0.0
C880 C 0.14766 0.64435 0.89218 0.0
C881 C 0.15806 0.6577 0.87444 0.0
C882 C 0.17092 0.68334 0.87499 0.0
H883 H 0.16761 0.75357 0.86584 0.0
H884 H 0.17185 0.72894 0.85417 0.0
H885 H 0.15178 0.72264 0.87569 0.0
H886 H 0.16345 0.69244 0.92486 0.0
H887 H 0.14087 0.64762 0.92402 0.0
H888 H 0.59881 0.19666 0.36888 0.0
H889 H 0.58079 0.22534 0.37375 0.0
H890 H 0.53055 0.17631 0.41794 0.0
H891 H 0.54998 0.14851 0.41418 0.0
H892 H 0.53879 0.2237 0.3678 0.0
H893 H 0.55616 0.2368 0.4503 0.0
H894 H 0.56804 0.21973 0.43516 0.0
H895 H 0.53647 0.20558 0.44353 0.0
C896 C 0.58395 0.19208 0.37966 0.0
C897 C 0.57593 0.17059 0.39132 0.0
C898 C 0.5736 0.20843 0.38243 0.0
C899 C 0.55461 0.20333 0.39657 0.0
C900 C 0.54577 0.18118 0.40751 0.0
H901 H 0.49504 0.31263 0.38725 0.0
H902 H 0.49406 0.27168 0.38864 0.0
C903 C 0.5567 0.16519 0.40522 0.0
C904 C 0.5445 0.22149 0.39971 0.0
H905 H 0.53516 0.25737 0.43533 0.0
C906 C 0.53799 0.23106 0.38259 0.0
C907 C 0.5434 0.2311 0.41902 0.0
C908 C 0.5516 0.22296 0.43802 0.0
C909 C 0.53193 0.25089 0.384 0.0
C910 C 0.53082 0.26052 0.40332 0.0
C911 C 0.53587 0.24994 0.42056 0.0
C912 C 0.52791 0.28356 0.40579 0.0
C913 C 0.52852 0.26227 0.36462 0.0
C914 C 0.54584 0.30329 0.41659 0.0
C915 C 0.54575 0.32629 0.41661 0.0
C916 C 0.52805 0.33021 0.40542 0.0
C917 C 0.50908 0.31013 0.39578 0.0
C918 C 0.50871 0.28683 0.39635 0.0
H919 H 0.53609 0.25661 0.35135 0.0
H920 H 0.50859 0.25613 0.36187 0.0
H921 H 0.5377 0.28267 0.36548 0.0
H922 H 0.56079 0.30131 0.42413 0.0
H923 H 0.56066 0.34143 0.42414 0.0
H924 H 0.16532 0.51803 0.87153 0.0
H925 H 0.20088 0.50867 0.87076 0.0
H926 H 0.23804 0.5665 0.91425 0.0
H927 H 0.202 0.57448 0.91613 0.0
H928 H 0.24338 0.53278 0.85821 0.0
H929 H 0.25539 0.51739 0.93826 0.0
H930 H 0.228 0.51907 0.92929 0.0
H931 H 0.2549 0.54666 0.93644 0.0
C932 C 0.18094 0.52831 0.88122 0.0
C933 C 0.18089 0.54679 0.89404 0.0
C934 C 0.20125 0.523 0.88077 0.0
C935 C 0.22205 0.53644 0.89282 0.0
C936 C 0.22194 0.55505 0.90548 0.0
H937 H 0.37066 0.58666 0.86185 0.0
H938 H 0.32632 0.57253 0.86265 0.0
C939 C 0.20139 0.55982 0.90639 0.0
C940 C 0.24479 0.53288 0.89082 0.0
H941 H 0.29347 0.53509 0.91821 0.0
C942 C 0.25403 0.53266 0.87137 0.0
C943 C 0.25849 0.53174 0.90783 0.0
C944 C 0.24843 0.5284 0.92907 0.0
C945 C 0.27733 0.5334 0.86855 0.0
C946 C 0.29243 0.53584 0.88559 0.0
C947 C 0.28236 0.53395 0.90502 0.0
C948 C 0.31918 0.54269 0.88375 0.0
C949 C 0.28544 0.53172 0.84726 0.0
C950 C 0.33036 0.5313 0.89586 0.0
C951 C 0.35598 0.54014 0.89606 0.0
C952 C 0.3708 0.56013 0.88379 0.0
C953 C 0.35961 0.57092 0.87117 0.0
C954 C 0.33415 0.56263 0.87145 0.0
H955 H 0.2695 0.51938 0.83793 0.0
H956 H 0.29305 0.55021 0.84015 0.0
H957 H 0.2996 0.52471 0.84691 0.0
H958 H 0.31932 0.51598 0.90556 0.0
H959 H 0.36422 0.53154 0.90595 0.0
H960 H 0.69265 0.17123 0.3575 0.0
H961 H 0.73443 0.20355 0.36057 0.0
H962 H 0.73287 0.19054 0.42479 0.0
H963 H 0.69059 0.1585 0.42194 0.0
H964 H 0.74184 0.23637 0.41683 0.0
H965 H 0.80383 0.21379 0.36907 0.0
H966 H 0.77702 0.21017 0.35515 0.0
H967 H 0.77383 0.19083 0.37676 0.0
C968 C 0.70138 0.17469 0.37222 0.0
C969 C 0.6881 0.16254 0.38953 0.0
C970 C 0.72547 0.19308 0.37391 0.0
C971 C 0.73692 0.1994 0.39289 0.0
C972 C 0.72442 0.18591 0.40998 0.0
H973 H 0.85382 0.34496 0.42323 0.0
H974 H 0.82985 0.30026 0.42466 0.0
C975 C 0.70022 0.16763 0.40832 0.0
C976 C 0.7596 0.22277 0.39528 0.0
H977 H 0.81602 0.25757 0.37439 0.0
C978 C 0.75834 0.24077 0.40797 0.0
C979 C 0.78104 0.2286 0.38358 0.0
C980 C 0.7841 0.20969 0.37054 0.0
C981 C 0.77716 0.26485 0.40831 0.0
C982 C 0.79807 0.27101 0.39588 0.0
C983 C 0.79994 0.25277 0.38388 0.0
C984 C 0.81679 0.29685 0.39384 0.0
C985 C 0.77376 0.28386 0.42104 0.0
C986 C 0.81849 0.30946 0.37568 0.0
C987 C 0.83229 0.33499 0.37475 0.0
C988 C 0.84452 0.3483 0.39203 0.0
C989 C 0.84433 0.33531 0.40974 0.0
C990 C 0.83065 0.30977 0.4106 0.0
H991 H 0.75464 0.27707 0.42684 0.0
H992 H 0.78636 0.28868 0.43423 0.0
H993 H 0.77828 0.30092 0.4122 0.0
H994 H 0.80795 0.29977 0.36257 0.0
H995 H 0.83219 0.34439 0.36083 0.0
H996 H 0.47508 0.67805 0.86164 0.0
H997 H 0.47411 0.71779 0.86356 0.0
H998 H 0.46734 0.71117 0.92843 0.0
H999 H 0.46759 0.67093 0.92662 0.0
H1000 H 0.43024 0.7171 0.91186 0.0
H1001 H 0.51704 0.78761 0.8799 0.0
H1002 H 0.50295 0.76162 0.8634 0.0
H1003 H 0.51372 0.75777 0.88794 0.0
C1004 C 0.47414 0.68532 0.8764 0.0
C1005 C 0.47105 0.67113 0.89396 0.0
C1006 C 0.47378 0.70822 0.87748 0.0
C1007 C 0.47078 0.71756 0.89615 0.0
C1008 C 0.4697 0.70432 0.91386 0.0
H1009 H 0.42157 0.83067 0.92117 0.0
H1010 H 0.44075 0.80273 0.92436 0.0
C1011 C 0.46985 0.68131 0.91279 0.0
C1012 C 0.46463 0.73875 0.89678 0.0
H1013 H 0.48222 0.79733 0.8795 0.0
C1014 C 0.44186 0.7348 0.90515 0.0
C1015 C 0.47967 0.76175 0.88781 0.0
C1016 C 0.50481 0.76752 0.87944 0.0
C1017 C 0.43327 0.75284 0.90413 0.0
C1018 C 0.44797 0.77555 0.89467 0.0
C1019 C 0.471 0.77981 0.88668 0.0
C1020 C 0.43911 0.79463 0.89242 0.0
C1021 C 0.40808 0.7471 0.91247 0.0
C1022 C 0.43253 0.79983 0.87329 0.0
C1023 C 0.42152 0.81579 0.87137 0.0
C1024 C 0.41698 0.82684 0.88858 0.0
C1025 C 0.42458 0.82232 0.90762 0.0
C1026 C 0.43556 0.80638 0.9095 0.0
H1027 H 0.39726 0.7272 0.91583 0.0
H1028 H 0.41014 0.75751 0.92672 0.0
H1029 H 0.39751 0.75281 0.90165 0.0
H1030 H 0.43516 0.79089 0.85994 0.0
H1031 H 0.41604 0.81898 0.85648 0.0
loop_
_geom_bond_atom_site_label_1
_geom_bond_atom_site_label_2
_geom_bond_distance
_geom_bond_site_symmetry_2
_ccdc_geom_bond_type
O0 Cd1 2.223 . S
O0 C8 1.315 . S
Cd1 O0 2.223 . S
Cd1 O4 2.297 . S
Cd1 O5 2.439 . S
Cd1 O11 2.240 . S
Cd2 O3 2.240 . S
Cd2 O10 2.223 . S
Cd2 O12 2.297 . S
Cd2 O13 2.439 . S
O3 Cd2 2.240 . S
O3 C8 1.279 . S
O4 Cd1 2.297 . S
O4 C6 1.247 . S
O5 Cd1 2.439 . S
O5 C6 1.208 . S
C6 O4 1.247 . S
C6 O5 1.208 . S
C7 O12 1.247 . S
C7 O13 1.208 . S
C8 O0 1.315 . S
C8 O3 1.279 . S
C9 O10 1.315 . S
C9 O11 1.279 . S
O10 Cd2 2.223 . S
O10 C9 1.315 . S
O11 Cd1 2.240 . S
O11 C9 1.279 . S
O12 Cd2 2.297 . S
O12 C7 1.247 . S
O13 Cd2 2.439 . S
O13 C7 1.208 . S
O14 Cd15 2.223 . S
O14 C22 1.315 . S
Cd15 O14 2.223 . S
Cd15 O18 2.297 . S
Cd15 O19 2.439 . S
Cd15 O25 2.240 . S
Cd16 O17 2.240 . S
Cd16 O24 2.223 . S
Cd16 O26 2.297 . S
Cd16 O27 2.439 . S
O17 Cd16 2.240 . S
O17 C22 1.279 . S
O18 Cd15 2.297 . S
O18 C20 1.247 . S
O19 Cd15 2.439 . S
O19 C20 1.208 . S
C20 O18 1.247 . S
C20 O19 1.208 . S
C21 O26 1.247 . S
C21 O27 1.208 . S
C22 O14 1.315 . S
C22 O17 1.279 . S
C23 O24 1.315 . S
C23 O25 1.279 . S
O24 Cd16 2.223 . S
O24 C23 1.315 . S
O25 Cd15 2.240 . S
O25 C23 1.279 . S
O26 Cd16 2.297 . S
O26 C21 1.247 . S
O27 Cd16 2.439 . S
O27 C21 1.208 . S
O28 Cd29 2.223 . S
O28 C36 1.315 . S
Cd29 O28 2.223 . S
Cd29 O32 2.297 . S
Cd29 O33 2.439 . S
Cd29 O39 2.240 . S
Cd30 O31 2.240 . S
Cd30 O38 2.223 . S
Cd30 O40 2.297 . S
Cd30 O41 2.439 . S
O31 Cd30 2.240 . S
O31 C36 1.279 . S
O32 Cd29 2.297 . S
O32 C34 1.247 . S
O33 Cd29 2.439 . S
O33 C34 1.208 . S
C34 O32 1.247 . S
C34 O33 1.208 . S
C35 O40 1.247 . S
C35 O41 1.208 . S
C36 O28 1.315 . S
C36 O31 1.279 . S
C37 O38 1.315 . S
C37 O39 1.279 . S
O38 Cd30 2.223 . S
O38 C37 1.315 . S
O39 Cd29 2.240 . S
O39 C37 1.279 . S
O40 Cd30 2.297 . S
O40 C35 1.247 . S
O41 Cd30 2.439 . S
O41 C35 1.208 . S
O42 Cd43 2.223 . S
O42 C50 1.315 . S
Cd43 O42 2.223 . S
Cd43 O46 2.297 . S
Cd43 O47 2.439 . S
Cd43 O53 2.240 . S
Cd44 O45 2.240 . S
Cd44 O52 2.223 . S
Cd44 O54 2.297 . S
Cd44 O55 2.439 . S
O45 Cd44 2.240 . S
O45 C50 1.279 . S
O46 Cd43 2.297 . S
O46 C48 1.247 . S
O47 Cd43 2.439 . S
O47 C48 1.208 . S
C48 O46 1.247 . S
C48 O47 1.208 . S
C49 O54 1.247 . S
C49 O55 1.208 . S
C50 O42 1.315 . S
C50 O45 1.279 . S
C51 O52 1.315 . S
C51 O53 1.279 . S
O52 Cd44 2.223 . S
O52 C51 1.315 . S
O53 Cd43 2.240 . S
O53 C51 1.279 . S
O54 Cd44 2.297 . S
O54 C49 1.247 . S
O55 Cd44 2.439 . S
O55 C49 1.208 . S
O56 Cd57 2.223 . S
O56 C64 1.315 . S
Cd57 O56 2.223 . S
Cd57 O60 2.297 . S
Cd57 O61 2.439 . S
Cd57 O67 2.240 . S
Cd58 O59 2.240 . S
Cd58 O66 2.223 . S
Cd58 O68 2.297 . S
Cd58 O69 2.439 . S
O59 Cd58 2.240 . S
O59 C64 1.279 . S
O60 Cd57 2.297 . S
O60 C62 1.247 . S
O61 Cd57 2.439 . S
O61 C62 1.208 . S
C62 O60 1.247 . S
C62 O61 1.208 . S
C63 O68 1.247 . S
C63 O69 1.208 . S
C64 O56 1.315 . S
C64 O59 1.279 . S
C65 O66 1.315 . S
C65 O67 1.279 . S
O66 Cd58 2.223 . S
O66 C65 1.315 . S
O67 Cd57 2.240 . S
O67 C65 1.279 . S
O68 Cd58 2.297 . S
O68 C63 1.247 . S
O69 Cd58 2.439 . S
O69 C63 1.208 . S
O70 Cd71 2.223 . S
O70 C78 1.315 . S
Cd71 O70 2.223 . S
Cd71 O74 2.297 . S
Cd71 O75 2.439 . S
Cd71 O81 2.240 . S
Cd72 O73 2.240 . S
Cd72 O80 2.223 . S
Cd72 O82 2.297 . S
Cd72 O83 2.439 . S
O73 Cd72 2.240 . S
O73 C78 1.279 . S
O74 Cd71 2.297 . S
O74 C76 1.247 . S
O75 Cd71 2.439 . S
O75 C76 1.208 . S
C76 O74 1.247 . S
C76 O75 1.208 . S
C77 O82 1.247 . S
C77 O83 1.208 . S
C78 O70 1.315 . S
C78 O73 1.279 . S
C79 O80 1.315 . S
C79 O81 1.279 . S
O80 Cd72 2.223 . S
O80 C79 1.315 . S
O81 Cd71 2.240 . S
O81 C79 1.279 . S
O82 Cd72 2.297 . S
O82 C77 1.247 . S
O83 Cd72 2.439 . S
O83 C77 1.208 . S
O84 Cd85 2.223 . S
O84 C92 1.315 . S
Cd85 O84 2.223 . S
Cd85 O88 2.297 . S
Cd85 O89 2.439 . S
Cd85 O95 2.240 . S
Cd86 O87 2.240 . S
Cd86 O94 2.223 . S
Cd86 O96 2.297 . S
Cd86 O97 2.439 . S
O87 Cd86 2.240 . S
O87 C92 1.279 . S
O88 Cd85 2.297 . S
O88 C90 1.247 . S
O89 Cd85 2.439 . S
O89 C90 1.208 . S
C90 O88 1.247 . S
C90 O89 1.208 . S
C91 O96 1.247 . S
C91 O97 1.208 . S
C92 O84 1.315 . S
C92 O87 1.279 . S
C93 O94 1.315 . S
C93 O95 1.279 . S
O94 Cd86 2.223 . S
O94 C93 1.315 . S
O95 Cd85 2.240 . S
O95 C93 1.279 . S
O96 Cd86 2.297 . S
O96 C91 1.247 . S
O97 Cd86 2.439 . S
O97 C91 1.208 . S
O98 Cd99 2.223 . S
O98 C106 1.315 . S
Cd99 O98 2.223 . S
Cd99 O102 2.297 . S
Cd99 O103 2.439 . S
Cd99 O109 2.240 . S
Cd100 O101 2.240 . S
Cd100 O108 2.223 . S
Cd100 O110 2.297 . S
Cd100 O111 2.439 . S
O101 Cd100 2.240 . S
O101 C106 1.279 . S
O102 Cd99 2.297 . S
O102 C104 1.247 . S
O103 Cd99 2.439 . S
O103 C104 1.208 . S
C104 O102 1.247 . S
C104 O103 1.208 . S
C105 O110 1.247 . S
C105 O111 1.208 . S
C106 O98 1.315 . S
C106 O101 1.279 . S
C107 O108 1.315 . S
C107 O109 1.279 . S
O108 Cd100 2.223 . S
O108 C107 1.315 . S
O109 Cd99 2.240 . S
O109 C107 1.279 . S
O110 Cd100 2.297 . S
O110 C105 1.247 . S
O111 Cd100 2.439 . S
O111 C105 1.208 . S
O112 Cd113 2.223 . S
O112 C120 1.315 . S
Cd113 O112 2.223 . S
Cd113 O116 2.297 . S
Cd113 O117 2.439 . S
Cd113 O123 2.240 . S
Cd114 O115 2.240 . S
Cd114 O122 2.223 . S
Cd114 O124 2.297 . S
Cd114 O125 2.439 . S
O115 Cd114 2.240 . S
O115 C120 1.279 . S
O116 Cd113 2.297 . S
O116 C118 1.247 . S
O117 Cd113 2.439 . S
O117 C118 1.208 . S
C118 O116 1.247 . S
C118 O117 1.208 . S
C119 O124 1.247 . S
C119 O125 1.208 . S
C120 O112 1.315 . S
C120 O115 1.279 . S
C121 O122 1.315 . S
C121 O123 1.279 . S
O122 Cd114 2.223 . S
O122 C121 1.315 . S
O123 Cd113 2.240 . S
O123 C121 1.279 . S
O124 Cd114 2.297 . S
O124 C119 1.247 . S
O125 Cd114 2.439 . S
O125 C119 1.208 . S
O126 Cd127 2.223 . S
O126 C134 1.315 . S
Cd127 O126 2.223 . S
Cd127 O130 2.297 . S
Cd127 O131 2.439 . S
Cd127 O137 2.240 . S
Cd128 O129 2.240 . S
Cd128 O136 2.223 . S
Cd128 O138 2.297 . S
Cd128 O139 2.439 . S
O129 Cd128 2.240 . S
O129 C134 1.279 . S
O130 Cd127 2.297 . S
O130 C132 1.247 . S
O131 Cd127 2.439 . S
O131 C132 1.208 . S
C132 O130 1.247 . S
C132 O131 1.208 . S
C133 O138 1.247 . S
C133 O139 1.208 . S
C134 O126 1.315 . S
C134 O129 1.279 . S
C135 O136 1.315 . S
C135 O137 1.279 . S
O136 Cd128 2.223 . S
O136 C135 1.315 . S
O137 Cd127 2.240 . S
O137 C135 1.279 . S
O138 Cd128 2.297 . S
O138 C133 1.247 . S
O139 Cd128 2.439 . S
O139 C133 1.208 . S
O140 Cd141 2.223 . S
O140 C148 1.315 . S
Cd141 O140 2.223 . S
Cd141 O144 2.297 . S
Cd141 O145 2.439 . S
Cd141 O151 2.240 . S
Cd142 O143 2.240 . S
Cd142 O150 2.223 . S
Cd142 O152 2.297 . S
Cd142 O153 2.439 . S
O143 Cd142 2.240 . S
O143 C148 1.279 . S
O144 Cd141 2.297 . S
O144 C146 1.247 . S
O145 Cd141 2.439 . S
O145 C146 1.208 . S
C146 O144 1.247 . S
C146 O145 1.208 . S
C147 O152 1.247 . S
C147 O153 1.208 . S
C148 O140 1.315 . S
C148 O143 1.279 . S
C149 O150 1.315 . S
C149 O151 1.279 . S
O150 Cd142 2.223 . S
O150 C149 1.315 . S
O151 Cd141 2.240 . S
O151 C149 1.279 . S
O152 Cd142 2.297 . S
O152 C147 1.247 . S
O153 Cd142 2.439 . S
O153 C147 1.208 . S
O154 Cd155 2.223 . S
O154 C162 1.315 . S
Cd155 O154 2.223 . S
Cd155 O158 2.297 . S
Cd155 O159 2.439 . S
Cd155 O165 2.240 . S
Cd156 O157 2.240 . S
Cd156 O164 2.223 . S
Cd156 O166 2.297 . S
Cd156 O167 2.439 . S
O157 Cd156 2.240 . S
O157 C162 1.279 . S
O158 Cd155 2.297 . S
O158 C160 1.247 . S
O159 Cd155 2.439 . S
O159 C160 1.208 . S
C160 O158 1.247 . S
C160 O159 1.208 . S
C161 O166 1.247 . S
C161 O167 1.208 . S
C162 O154 1.315 . S
C162 O157 1.279 . S
C163 O164 1.315 . S
C163 O165 1.279 . S
O164 Cd156 2.223 . S
O164 C163 1.315 . S
O165 Cd155 2.240 . S
O165 C163 1.279 . S
O166 Cd156 2.297 . S
O166 C161 1.247 . S
O167 Cd156 2.439 . S
O167 C161 1.208 . S
H168 C176 0.929 . S
H169 C178 0.930 . S
H170 C180 0.930 . S
H171 C183 0.929 . S
H172 C186 0.930 . S
H173 C188 0.960 . S
H174 C188 0.960 . S
H175 C188 0.960 . S
C176 H168 0.929 . S
C176 C177 1.377 . S
C176 C178 1.384 . S
C177 C176 1.377 . S
C177 C183 1.390 . S
C178 H169 0.930 . S
C178 C176 1.384 . S
C178 C179 1.372 . S
C179 C178 1.372 . S
C179 C180 1.400 . S
C179 C184 1.490 . S
C180 H170 0.930 . S
C180 C179 1.400 . S
C180 C183 1.386 . S
H181 C197 0.930 . S
H182 C198 0.931 . S
C183 H171 0.929 . S
C183 C177 1.390 . S
C183 C180 1.386 . S
C184 C179 1.490 . S
C184 C186 1.395 . S
C184 C187 1.403 . S
H185 C191 0.930 . S
C186 H172 0.930 . S
C186 C184 1.395 . S
C186 C189 1.403 . S
C187 C184 1.403 . S
C187 C188 1.524 . S
C187 C191 1.400 . S
C188 H173 0.960 . S
C188 H174 0.960 . S
C188 H175 0.960 . S
C188 C187 1.524 . S
C189 C186 1.403 . S
C189 C190 1.392 . S
C189 C193 1.495 . S
C190 C189 1.392 . S
C190 C191 1.385 . S
C190 C192 1.478 . S
C191 H185 0.930 . S
C191 C187 1.400 . S
C191 C190 1.385 . S
C192 C190 1.478 . S
C192 C194 1.381 . S
C192 C198 1.383 . S
C193 C189 1.495 . S
C193 H199 0.959 . S
C193 H200 0.961 . S
C193 H201 0.960 . S
C194 C192 1.381 . S
C194 C195 1.394 . S
C194 H202 0.930 . S
C195 C194 1.394 . S
C195 C196 1.383 . S
C195 H203 0.929 . S
C196 C195 1.383 . S
C196 C197 1.377 . S
C197 H181 0.930 . S
C197 C196 1.377 . S
C197 C198 1.379 . S
C198 H182 0.931 . S
C198 C192 1.383 . S
C198 C197 1.379 . S
H199 C193 0.959 . S
H200 C193 0.961 . S
H201 C193 0.960 . S
H202 C194 0.930 . S
H203 C195 0.929 . S
H204 C212 0.929 . S
H205 C214 0.930 . S
H206 C216 0.930 . S
H207 C219 0.929 . S
H208 C222 0.930 . S
H209 C224 0.960 . S
H210 C224 0.960 . S
H211 C224 0.960 . S
C212 H204 0.929 . S
C212 C213 1.377 . S
C212 C214 1.384 . S
C213 C212 1.377 . S
C213 C219 1.390 . S
C214 H205 0.930 . S
C214 C212 1.384 . S
C214 C215 1.372 . S
C215 C214 1.372 . S
C215 C216 1.400 . S
C215 C220 1.490 . S
C216 H206 0.930 . S
C216 C215 1.400 . S
C216 C219 1.386 . S
H217 C233 0.930 . S
H218 C234 0.931 . S
C219 H207 0.929 . S
C219 C213 1.390 . S
C219 C216 1.386 . S
C220 C215 1.490 . S
C220 C222 1.395 . S
C220 C223 1.403 . S
H221 C227 0.930 . S
C222 H208 0.930 . S
C222 C220 1.395 . S
C222 C225 1.403 . S
C223 C220 1.403 . S
C223 C224 1.524 . S
C223 C227 1.400 . S
C224 H209 0.960 . S
C224 H210 0.960 . S
C224 H211 0.960 . S
C224 C223 1.524 . S
C225 C222 1.403 . S
C225 C226 1.392 . S
C225 C229 1.495 . S
C226 C225 1.392 . S
C226 C227 1.385 . S
C226 C228 1.478 . S
C227 H221 0.930 . S
C227 C223 1.400 . S
C227 C226 1.385 . S
C228 C226 1.478 . S
C228 C230 1.381 . S
C228 C234 1.383 . S
C229 C225 1.495 . S
C229 H235 0.959 . S
C229 H236 0.961 . S
C229 H237 0.960 . S
C230 C228 1.381 . S
C230 C231 1.394 . S
C230 H238 0.930 . S
C231 C230 1.394 . S
C231 C232 1.383 . S
C231 H239 0.929 . S
C232 C231 1.383 . S
C232 C233 1.377 . S
C233 H217 0.930 . S
C233 C232 1.377 . S
C233 C234 1.379 . S
C234 H218 0.931 . S
C234 C228 1.383 . S
C234 C233 1.379 . S
H235 C229 0.959 . S
H236 C229 0.961 . S
H237 C229 0.960 . S
H238 C230 0.930 . S
H239 C231 0.929 . S
H240 C248 0.929 . S
H241 C250 0.930 . S
H242 C252 0.930 . S
H243 C255 0.929 . S
H244 C258 0.930 . S
H245 C260 0.960 . S
H246 C260 0.960 . S
H247 C260 0.960 . S
C248 H240 0.929 . S
C248 C249 1.377 . S
C248 C250 1.384 . S
C249 C248 1.377 . S
C249 C255 1.390 . S
C250 H241 0.930 . S
C250 C248 1.384 . S
C250 C251 1.372 . S
C251 C250 1.372 . S
C251 C252 1.400 . S
C251 C256 1.490 . S
C252 H242 0.930 . S
C252 C251 1.400 . S
C252 C255 1.386 . S
H253 C269 0.930 . S
H254 C270 0.931 . S
C255 H243 0.929 . S
C255 C249 1.390 . S
C255 C252 1.386 . S
C256 C251 1.490 . S
C256 C258 1.395 . S
C256 C259 1.403 . S
H257 C263 0.930 . S
C258 H244 0.930 . S
C258 C256 1.395 . S
C258 C261 1.403 . S
C259 C256 1.403 . S
C259 C260 1.524 . S
C259 C263 1.400 . S
C260 H245 0.960 . S
C260 H246 0.960 . S
C260 H247 0.960 . S
C260 C259 1.524 . S
C261 C258 1.403 . S
C261 C262 1.392 . S
C261 C265 1.495 . S
C262 C261 1.392 . S
C262 C263 1.385 . S
C262 C264 1.478 . S
C263 H257 0.930 . S
C263 C259 1.400 . S
C263 C262 1.385 . S
C264 C262 1.478 . S
C264 C266 1.381 . S
C264 C270 1.383 . S
C265 C261 1.495 . S
C265 H271 0.959 . S
C265 H272 0.961 . S
C265 H273 0.960 . S
C266 C264 1.381 . S
C266 C267 1.394 . S
C266 H274 0.930 . S
C267 C266 1.394 . S
C267 C268 1.383 . S
C267 H275 0.929 . S
C268 C267 1.383 . S
C268 C269 1.377 . S
C269 H253 0.930 . S
C269 C268 1.377 . S
C269 C270 1.379 . S
C270 H254 0.931 . S
C270 C264 1.383 . S
C270 C269 1.379 . S
H271 C265 0.959 . S
H272 C265 0.961 . S
H273 C265 0.960 . S
H274 C266 0.930 . S
H275 C267 0.929 . S
H276 C284 0.929 . S
H277 C286 0.930 . S
H278 C288 0.930 . S
H279 C291 0.929 . S
H280 C294 0.930 . S
H281 C296 0.960 . S
H282 C296 0.960 . S
H283 C296 0.960 . S
C284 H276 0.929 . S
C284 C285 1.377 . S
C284 C286 1.384 . S
C285 C284 1.377 . S
C285 C291 1.390 . S
C286 H277 0.930 . S
C286 C284 1.384 . S
C286 C287 1.372 . S
C287 C286 1.372 . S
C287 C288 1.400 . S
C287 C292 1.490 . S
C288 H278 0.930 . S
C288 C287 1.400 . S
C288 C291 1.386 . S
H289 C305 0.930 . S
H290 C306 0.931 . S
C291 H279 0.929 . S
C291 C285 1.390 . S
C291 C288 1.386 . S
C292 C287 1.490 . S
C292 C294 1.395 . S
C292 C295 1.403 . S
H293 C299 0.930 . S
C294 H280 0.930 . S
C294 C292 1.395 . S
C294 C297 1.403 . S
C295 C292 1.403 . S
C295 C296 1.524 . S
C295 C299 1.400 . S
C296 H281 0.960 . S
C296 H282 0.960 . S
C296 H283 0.960 . S
C296 C295 1.524 . S
C297 C294 1.403 . S
C297 C298 1.392 . S
C297 C301 1.495 . S
C298 C297 1.392 . S
C298 C299 1.385 . S
C298 C300 1.478 . S
C299 H293 0.930 . S
C299 C295 1.400 . S
C299 C298 1.385 . S
C300 C298 1.478 . S
C300 C302 1.381 . S
C300 C306 1.383 . S
C301 C297 1.495 . S
C301 H307 0.959 . S
C301 H308 0.961 . S
C301 H309 0.960 . S
C302 C300 1.381 . S
C302 C303 1.394 . S
C302 H310 0.930 . S
C303 C302 1.394 . S
C303 C304 1.383 . S
C303 H311 0.929 . S
C304 C303 1.383 . S
C304 C305 1.377 . S
C305 H289 0.930 . S
C305 C304 1.377 . S
C305 C306 1.379 . S
C306 H290 0.931 . S
C306 C300 1.383 . S
C306 C305 1.379 . S
H307 C301 0.959 . S
H308 C301 0.961 . S
H309 C301 0.960 . S
H310 C302 0.930 . S
H311 C303 0.929 . S
H312 C320 0.929 . S
H313 C322 0.930 . S
H314 C324 0.930 . S
H315 C327 0.929 . S
H316 C330 0.930 . S
H317 C332 0.960 . S
H318 C332 0.960 . S
H319 C332 0.960 . S
C320 H312 0.929 . S
C320 C321 1.377 . S
C320 C322 1.384 . S
C321 C320 1.377 . S
C321 C327 1.390 . S
C322 H313 0.930 . S
C322 C320 1.384 . S
C322 C323 1.372 . S
C323 C322 1.372 . S
C323 C324 1.400 . S
C323 C328 1.490 . S
C324 H314 0.930 . S
C324 C323 1.400 . S
C324 C327 1.386 . S
H325 C341 0.930 . S
H326 C342 0.931 . S
C327 H315 0.929 . S
C327 C321 1.390 . S
C327 C324 1.386 . S
C328 C323 1.490 . S
C328 C330 1.395 . S
C328 C331 1.403 . S
H329 C335 0.930 . S
C330 H316 0.930 . S
C330 C328 1.395 . S
C330 C333 1.403 . S
C331 C328 1.403 . S
C331 C332 1.524 . S
C331 C335 1.400 . S
C332 H317 0.960 . S
C332 H318 0.960 . S
C332 H319 0.960 . S
C332 C331 1.524 . S
C333 C330 1.403 . S
C333 C334 1.392 . S
C333 C337 1.495 . S
C334 C333 1.392 . S
C334 C335 1.385 . S
C334 C336 1.478 . S
C335 H329 0.930 . S
C335 C331 1.400 . S
C335 C334 1.385 . S
C336 C334 1.478 . S
C336 C338 1.381 . S
C336 C342 1.383 . S
C337 C333 1.495 . S
C337 H343 0.959 . S
C337 H344 0.961 . S
C337 H345 0.960 . S
C338 C336 1.381 . S
C338 C339 1.394 . S
C338 H346 0.930 . S
C339 C338 1.394 . S
C339 C340 1.383 . S
C339 H347 0.929 . S
C340 C339 1.383 . S
C340 C341 1.377 . S
C341 H325 0.930 . S
C341 C340 1.377 . S
C341 C342 1.379 . S
C342 H326 0.931 . S
C342 C336 1.383 . S
C342 C341 1.379 . S
H343 C337 0.959 . S
H344 C337 0.961 . S
H345 C337 0.960 . S
H346 C338 0.930 . S
H347 C339 0.929 . S
H348 C356 0.929 . S
H349 C358 0.930 . S
H350 C360 0.930 . S
H351 C363 0.929 . S
H352 C366 0.930 . S
H353 C368 0.960 . S
H354 C368 0.960 . S
H355 C368 0.960 . S
C356 H348 0.929 . S
C356 C357 1.377 . S
C356 C358 1.384 . S
C357 C356 1.377 . S
C357 C363 1.390 . S
C358 H349 0.930 . S
C358 C356 1.384 . S
C358 C359 1.372 . S
C359 C358 1.372 . S
C359 C360 1.400 . S
C359 C364 1.490 . S
C360 H350 0.930 . S
C360 C359 1.400 . S
C360 C363 1.386 . S
H361 C377 0.930 . S
H362 C378 0.931 . S
C363 H351 0.929 . S
C363 C357 1.390 . S
C363 C360 1.386 . S
C364 C359 1.490 . S
C364 C366 1.395 . S
C364 C367 1.403 . S
H365 C371 0.930 . S
C366 H352 0.930 . S
C366 C364 1.395 . S
C366 C369 1.403 . S
C367 C364 1.403 . S
C367 C368 1.524 . S
C367 C371 1.400 . S
C368 H353 0.960 . S
C368 H354 0.960 . S
C368 H355 0.960 . S
C368 C367 1.524 . S
C369 C366 1.403 . S
C369 C370 1.392 . S
C369 C373 1.495 . S
C370 C369 1.392 . S
C370 C371 1.385 . S
C370 C372 1.478 . S
C371 H365 0.930 . S
C371 C367 1.400 . S
C371 C370 1.385 . S
C372 C370 1.478 . S
C372 C374 1.381 . S
C372 C378 1.383 . S
C373 C369 1.495 . S
C373 H379 0.959 . S
C373 H380 0.961 . S
C373 H381 0.960 . S
C374 C372 1.381 . S
C374 C375 1.394 . S
C374 H382 0.930 . S
C375 C374 1.394 . S
C375 C376 1.383 . S
C375 H383 0.929 . S
C376 C375 1.383 . S
C376 C377 1.377 . S
C377 H361 0.930 . S
C377 C376 1.377 . S
C377 C378 1.379 . S
C378 H362 0.931 . S
C378 C372 1.383 . S
C378 C377 1.379 . S
H379 C373 0.959 . S
H380 C373 0.961 . S
H381 C373 0.960 . S
H382 C374 0.930 . S
H383 C375 0.929 . S
H384 C392 0.929 . S
H385 C394 0.930 . S
H386 C396 0.930 . S
H387 C399 0.929 . S
H388 C402 0.930 . S
H389 C404 0.960 . S
H390 C404 0.960 . S
H391 C404 0.960 . S
C392 H384 0.929 . S
C392 C393 1.377 . S
C392 C394 1.384 . S
C393 C392 1.377 . S
C393 C399 1.390 . S
C394 H385 0.930 . S
C394 C392 1.384 . S
C394 C395 1.372 . S
C395 C394 1.372 . S
C395 C396 1.400 . S
C395 C400 1.490 . S
C396 H386 0.930 . S
C396 C395 1.400 . S
C396 C399 1.386 . S
H397 C413 0.930 . S
H398 C414 0.931 . S
C399 H387 0.929 . S
C399 C393 1.390 . S
C399 C396 1.386 . S
C400 C395 1.490 . S
C400 C402 1.395 1_545 S
C400 C403 1.403 1_554 S
H401 C407 0.930 . S
C402 H388 0.930 . S
C402 C400 1.395 1_565 S
C402 C405 1.403 . S
C403 C400 1.403 1_556 S
C403 C404 1.524 . S
C403 C407 1.400 . S
C404 H389 0.960 . S
C404 H390 0.960 . S
C404 H391 0.960 . S
C404 C403 1.524 . S
C405 C402 1.403 . S
C405 C406 1.392 1_554 S
C405 C409 1.495 . S
C406 C405 1.392 1_556 S
C406 C407 1.385 1_565 S
C406 C408 1.478 . S
C407 H401 0.930 . S
C407 C403 1.400 . S
C407 C406 1.385 1_545 S
C408 C406 1.478 . S
C408 C410 1.381 . S
C408 C414 1.383 . S
C409 C405 1.495 . S
C409 H415 0.959 . S
C409 H416 0.961 . S
C409 H417 0.960 . S
C410 C408 1.381 . S
C410 C411 1.394 . S
C410 H418 0.930 . S
C411 C410 1.394 . S
C411 C412 1.383 . S
C411 H419 0.929 . S
C412 C411 1.383 . S
C412 C413 1.377 . S
C413 H397 0.930 . S
C413 C412 1.377 . S
C413 C414 1.379 . S
C414 H398 0.931 . S
C414 C408 1.383 . S
C414 C413 1.379 . S
H415 C409 0.959 . S
H416 C409 0.961 . S
H417 C409 0.960 . S
H418 C410 0.930 . S
H419 C411 0.929 . S
H420 C428 0.929 . S
H421 C430 0.930 . S
H422 C432 0.930 . S
H423 C435 0.929 . S
H424 C438 0.930 . S
H425 C440 0.960 . S
H426 C440 0.960 . S
H427 C440 0.960 . S
C428 H420 0.929 . S
C428 C429 1.377 . S
C428 C430 1.384 . S
C429 C428 1.377 . S
C429 C435 1.390 . S
C430 H421 0.930 . S
C430 C428 1.384 . S
C430 C431 1.372 . S
C431 C430 1.372 . S
C431 C432 1.400 . S
C431 C436 1.490 . S
C432 H422 0.930 . S
C432 C431 1.400 . S
C432 C435 1.386 . S
H433 C449 0.930 . S
H434 C450 0.931 . S
C435 H423 0.929 . S
C435 C429 1.390 . S
C435 C432 1.386 . S
C436 C431 1.490 . S
C436 C438 1.395 . S
C436 C439 1.403 . S
H437 C443 0.930 . S
C438 H424 0.930 . S
C438 C436 1.395 . S
C438 C441 1.403 . S
C439 C436 1.403 . S
C439 C440 1.524 . S
C439 C443 1.400 . S
C440 H425 0.960 . S
C440 H426 0.960 . S
C440 H427 0.960 . S
C440 C439 1.524 . S
C441 C438 1.403 . S
C441 C442 1.392 . S
C441 C445 1.495 . S
C442 C441 1.392 . S
C442 C443 1.385 . S
C442 C444 1.478 . S
C443 H437 0.930 . S
C443 C439 1.400 . S
C443 C442 1.385 . S
C444 C442 1.478 . S
C444 C446 1.381 . S
C444 C450 1.383 . S
C445 C441 1.495 . S
C445 H451 0.959 . S
C445 H452 0.961 . S
C445 H453 0.960 . S
C446 C444 1.381 . S
C446 C447 1.394 . S
C446 H454 0.930 . S
C447 C446 1.394 . S
C447 C448 1.383 . S
C447 H455 0.929 . S
C448 C447 1.383 . S
C448 C449 1.377 . S
C449 H433 0.930 . S
C449 C448 1.377 . S
C449 C450 1.379 . S
C450 H434 0.931 . S
C450 C444 1.383 . S
C450 C449 1.379 . S
H451 C445 0.959 . S
H452 C445 0.961 . S
H453 C445 0.960 . S
H454 C446 0.930 . S
H455 C447 0.929 . S
H456 C464 0.929 . S
H457 C466 0.930 . S
H458 C468 0.930 . S
H459 C471 0.929 . S
H460 C474 0.930 . S
H461 C476 0.960 . S
H462 C476 0.960 . S
H463 C476 0.960 . S
C464 H456 0.929 . S
C464 C465 1.377 . S
C464 C466 1.384 . S
C465 C464 1.377 . S
C465 C471 1.390 . S
C466 H457 0.930 . S
C466 C464 1.384 . S
C466 C467 1.372 . S
C467 C466 1.372 . S
C467 C468 1.400 . S
C467 C472 1.490 . S
C468 H458 0.930 . S
C468 C467 1.400 . S
C468 C471 1.386 . S
H469 C485 0.930 . S
H470 C486 0.931 . S
C471 H459 0.929 . S
C471 C465 1.390 . S
C471 C468 1.386 . S
C472 C467 1.490 . S
C472 C474 1.395 1_556 S
C472 C475 1.403 1_455 S
H473 C479 0.930 . S
C474 H460 0.930 . S
C474 C472 1.395 1_554 S
C474 C477 1.403 . S
C475 C472 1.403 1_655 S
C475 C476 1.524 . S
C475 C479 1.400 . S
C476 H461 0.960 . S
C476 H462 0.960 . S
C476 H463 0.960 . S
C476 C475 1.524 . S
C477 C474 1.403 . S
C477 C478 1.392 1_455 S
C477 C481 1.495 . S
C478 C477 1.392 1_655 S
C478 C479 1.385 1_554 S
C478 C480 1.478 . S
C479 H473 0.930 . S
C479 C475 1.400 . S
C479 C478 1.385 1_556 S
C480 C478 1.478 . S
C480 C482 1.381 . S
C480 C486 1.383 . S
C481 C477 1.495 . S
C481 H487 0.959 . S
C481 H488 0.961 . S
C481 H489 0.960 . S
C482 C480 1.381 . S
C482 C483 1.394 . S
C482 H490 0.930 . S
C483 C482 1.394 . S
C483 C484 1.383 . S
C483 H491 0.929 . S
C484 C483 1.383 . S
C484 C485 1.377 . S
C485 H469 0.930 . S
C485 C484 1.377 . S
C485 C486 1.379 . S
C486 H470 0.931 . S
C486 C480 1.383 . S
C486 C485 1.379 . S
H487 C481 0.959 . S
H488 C481 0.961 . S
H489 C481 0.960 . S
H490 C482 0.930 . S
H491 C483 0.929 . S
H492 C500 0.929 . S
H493 C502 0.930 . S
H494 C504 0.930 . S
H495 C507 0.929 . S
H496 C510 0.930 . S
H497 C512 0.960 . S
H498 C512 0.960 . S
H499 C512 0.960 . S
C500 H492 0.929 . S
C500 C501 1.377 . S
C500 C502 1.384 . S
C501 C500 1.377 . S
C501 C507 1.390 . S
C502 H493 0.930 . S
C502 C500 1.384 . S
C502 C503 1.372 . S
C503 C502 1.372 . S
C503 C504 1.400 . S
C503 C508 1.490 . S
C504 H494 0.930 . S
C504 C503 1.400 . S
C504 C507 1.386 . S
H505 C521 0.930 . S
H506 C522 0.931 . S
C507 H495 0.929 . S
C507 C501 1.390 . S
C507 C504 1.386 . S
C508 C503 1.490 . S
C508 C510 1.395 1_545 S
C508 C511 1.403 . S
H509 C515 0.930 1_545 S
C510 H496 0.930 . S
C510 C508 1.395 1_565 S
C510 C513 1.403 . S
C511 C508 1.403 . S
C511 C512 1.524 . S
C511 C515 1.400 1_545 S
C512 H497 0.960 . S
C512 H498 0.960 . S
C512 H499 0.960 . S
C512 C511 1.524 . S
C513 C510 1.403 . S
C513 C514 1.392 . S
C513 C517 1.495 . S
C514 C513 1.392 . S
C514 C515 1.385 . S
C514 C516 1.478 . S
C515 H509 0.930 1_565 S
C515 C511 1.400 1_565 S
C515 C514 1.385 . S
C516 C514 1.478 . S
C516 C518 1.381 . S
C516 C522 1.383 . S
C517 C513 1.495 . S
C517 H523 0.959 . S
C517 H524 0.961 . S
C517 H525 0.960 . S
C518 C516 1.381 . S
C518 C519 1.394 . S
C518 H526 0.930 . S
C519 C518 1.394 . S
C519 C520 1.383 . S
C519 H527 0.929 . S
C520 C519 1.383 . S
C520 C521 1.377 . S
C521 H505 0.930 . S
C521 C520 1.377 . S
C521 C522 1.379 . S
C522 H506 0.931 . S
C522 C516 1.383 . S
C522 C521 1.379 . S
H523 C517 0.959 . S
H524 C517 0.961 . S
H525 C517 0.960 . S
H526 C518 0.930 . S
H527 C519 0.929 . S
H528 C536 0.929 . S
H529 C538 0.930 . S
H530 C540 0.930 . S
H531 C543 0.929 . S
H532 C546 0.930 . S
H533 C548 0.960 . S
H534 C548 0.960 . S
H535 C548 0.960 . S
C536 H528 0.929 . S
C536 C537 1.377 . S
C536 C538 1.384 . S
C537 C536 1.377 . S
C537 C543 1.390 . S
C538 H529 0.930 . S
C538 C536 1.384 . S
C538 C539 1.372 . S
C539 C538 1.372 . S
C539 C540 1.400 . S
C539 C544 1.490 . S
C540 H530 0.930 . S
C540 C539 1.400 . S
C540 C543 1.386 . S
H541 C557 0.930 . S
H542 C558 0.931 . S
C543 H531 0.929 . S
C543 C537 1.390 . S
C543 C540 1.386 . S
C544 C539 1.490 . S
C544 C546 1.395 1_556 S
C544 C547 1.403 . S
H545 C551 0.939 . S
C546 H532 0.930 . S
C546 C544 1.395 1_554 S
C546 C549 1.403 . S
C547 C544 1.403 . S
C547 C548 1.524 . S
C547 C551 1.437 . S
C548 H533 0.960 . S
C548 H534 0.960 . S
C548 H535 0.960 . S
C548 C547 1.524 . S
C549 C546 1.403 . S
C549 C550 1.392 . S
C549 C553 1.495 . S
C550 C549 1.392 . S
C550 C551 1.342 1_554 S
C550 C552 1.478 . S
C551 H545 0.939 . S
C551 C547 1.437 . S
C551 C550 1.342 1_556 S
C552 C550 1.478 . S
C552 C554 1.381 . S
C552 C558 1.383 . S
C553 C549 1.495 . S
C553 H559 0.959 . S
C553 H560 0.961 . S
C553 H561 0.960 . S
C554 C552 1.381 . S
C554 C555 1.394 . S
C554 H562 0.930 . S
C555 C554 1.394 . S
C555 C556 1.383 . S
C555 H563 0.929 . S
C556 C555 1.383 . S
C556 C557 1.377 . S
C557 H541 0.930 . S
C557 C556 1.377 . S
C557 C558 1.379 . S
C558 H542 0.931 . S
C558 C552 1.383 . S
C558 C557 1.379 . S
H559 C553 0.959 . S
H560 C553 0.961 . S
H561 C553 0.960 . S
H562 C554 0.930 . S
H563 C555 0.929 . S
H564 C572 0.929 . S
H565 C574 0.930 . S
H566 C576 0.930 . S
H567 C579 0.929 . S
H568 C582 0.930 . S
H569 C584 0.960 . S
H570 C584 0.960 . S
H571 C584 0.960 . S
C572 H564 0.929 . S
C572 C573 1.377 . S
C572 C574 1.384 . S
C573 C572 1.377 . S
C573 C579 1.390 . S
C574 H565 0.930 . S
C574 C572 1.384 . S
C574 C575 1.372 . S
C575 C574 1.372 . S
C575 C576 1.400 . S
C575 C580 1.490 . S
C576 H566 0.930 . S
C576 C575 1.400 . S
C576 C579 1.386 . S
H577 C593 0.930 . S
H578 C594 0.931 . S
C579 H567 0.929 . S
C579 C573 1.390 . S
C579 C576 1.386 . S
C580 C575 1.490 . S
C580 C582 1.395 . S
C580 C583 1.403 . S
H581 C587 0.930 . S
C582 H568 0.930 . S
C582 C580 1.395 . S
C582 C585 1.403 1_655 S
C583 C580 1.403 . S
C583 C584 1.524 . S
C583 C587 1.400 1_655 S
C584 H569 0.960 . S
C584 H570 0.960 . S
C584 H571 0.960 . S
C584 C583 1.524 . S
C585 C582 1.403 1_455 S
C585 C586 1.392 . S
C585 C589 1.495 . S
C586 C585 1.392 . S
C586 C587 1.385 . S
C586 C588 1.478 . S
C587 H581 0.930 . S
C587 C583 1.400 1_455 S
C587 C586 1.385 . S
C588 C586 1.478 . S
C588 C590 1.381 . S
C588 C594 1.383 . S
C589 C585 1.495 . S
C589 H595 0.960 . S
C589 H596 0.961 . S
C589 H597 0.960 . S
C590 C588 1.381 . S
C590 C591 1.394 . S
C590 H598 0.930 . S
C591 C590 1.394 . S
C591 C592 1.383 . S
C591 H599 0.929 . S
C592 C591 1.383 . S
C592 C593 1.377 . S
C593 H577 0.930 . S
C593 C592 1.377 . S
C593 C594 1.379 . S
C594 H578 0.931 . S
C594 C588 1.383 . S
C594 C593 1.379 . S
H595 C589 0.960 . S
H596 C589 0.961 . S
H597 C589 0.960 . S
H598 C590 0.930 . S
H599 C591 0.929 . S
H600 C608 0.929 . S
H601 C610 0.930 . S
H602 C612 0.930 . S
H603 C615 0.929 . S
H604 C618 0.930 . S
H605 C620 0.960 . S
H606 C620 0.960 . S
H607 C620 0.960 . S
C608 H600 0.929 . S
C608 C609 1.377 . S
C608 C610 1.384 . S
C609 C608 1.377 . S
C609 C615 1.390 . S
C610 H601 0.930 . S
C610 C608 1.384 . S
C610 C611 1.372 . S
C611 C610 1.372 . S
C611 C612 1.400 . S
C611 C616 1.490 . S
C612 H602 0.930 . S
C612 C611 1.400 . S
C612 C615 1.386 . S
H613 C629 0.930 . S
H614 C630 0.931 . S
C615 H603 0.929 . S
C615 C609 1.390 . S
C615 C612 1.386 . S
C616 C611 1.490 . S
C616 C618 1.395 . S
C616 C619 1.403 . S
H617 C623 0.930 . S
C618 H604 0.930 . S
C618 C616 1.395 . S
C618 C621 1.403 . S
C619 C616 1.403 . S
C619 C620 1.524 . S
C619 C623 1.400 . S
C620 H605 0.960 . S
C620 H606 0.960 . S
C620 H607 0.960 . S
C620 C619 1.524 . S
C621 C618 1.403 . S
C621 C622 1.392 . S
C621 C625 1.495 . S
C622 C621 1.392 . S
C622 C623 1.385 . S
C622 C624 1.478 . S
C623 H617 0.930 . S
C623 C619 1.400 . S
C623 C622 1.385 . S
C624 C622 1.478 . S
C624 C626 1.381 . S
C624 C630 1.383 . S
C625 C621 1.495 . S
C625 H631 0.959 . S
C625 H632 0.961 . S
C625 H633 0.960 . S
C626 C624 1.381 . S
C626 C627 1.394 . S
C626 H634 0.930 . S
C627 C626 1.394 . S
C627 C628 1.383 . S
C627 H635 0.929 . S
C628 C627 1.383 . S
C628 C629 1.377 . S
C629 H613 0.930 . S
C629 C628 1.377 . S
C629 C630 1.379 . S
C630 H614 0.931 . S
C630 C624 1.383 . S
C630 C629 1.379 . S
H631 C625 0.959 . S
H632 C625 0.961 . S
H633 C625 0.960 . S
H634 C626 0.930 . S
H635 C627 0.929 . S
H636 C644 0.929 . S
H637 C646 0.930 . S
H638 C648 0.930 . S
H639 C651 0.929 . S
H640 C654 0.930 . S
H641 C656 0.960 . S
H642 C656 0.960 . S
H643 C656 0.960 . S
C644 H636 0.929 . S
C644 C645 1.377 . S
C644 C646 1.384 . S
C645 C644 1.377 . S
C645 C651 1.390 . S
C646 H637 0.930 . S
C646 C644 1.384 . S
C646 C647 1.372 . S
C647 C646 1.372 . S
C647 C648 1.400 . S
C647 C652 1.490 . S
C648 H638 0.930 . S
C648 C647 1.400 . S
C648 C651 1.386 . S
H649 C665 0.930 . S
H650 C666 0.931 . S
C651 H639 0.929 . S
C651 C645 1.390 . S
C651 C648 1.386 . S
C652 C647 1.490 . S
C652 C654 1.395 . S
C652 C655 1.403 . S
H653 C659 0.930 . S
C654 H640 0.930 . S
C654 C652 1.395 . S
C654 C657 1.403 . S
C655 C652 1.403 . S
C655 C656 1.524 . S
C655 C659 1.400 . S
C656 H641 0.960 . S
C656 H642 0.960 . S
C656 H643 0.960 . S
C656 C655 1.524 . S
C657 C654 1.403 . S
C657 C658 1.392 . S
C657 C661 1.495 . S
C658 C657 1.392 . S
C658 C659 1.385 . S
C658 C660 1.478 . S
C659 H653 0.930 . S
C659 C655 1.400 . S
C659 C658 1.385 . S
C660 C658 1.478 . S
C660 C662 1.381 . S
C660 C666 1.383 . S
C661 C657 1.495 . S
C661 H667 0.959 . S
C661 H668 0.961 . S
C661 H669 0.960 . S
C662 C660 1.381 . S
C662 C663 1.394 . S
C662 H670 0.930 . S
C663 C662 1.394 . S
C663 C664 1.383 . S
C663 H671 0.929 . S
C664 C663 1.383 . S
C664 C665 1.377 . S
C665 H649 0.930 . S
C665 C664 1.377 . S
C665 C666 1.379 . S
C666 H650 0.931 . S
C666 C660 1.383 . S
C666 C665 1.379 . S
H667 C661 0.959 . S
H668 C661 0.961 . S
H669 C661 0.960 . S
H670 C662 0.930 . S
H671 C663 0.929 . S
H672 C680 0.929 . S
H673 C682 0.930 . S
H674 C684 0.930 . S
H675 C687 0.929 . S
H676 C690 0.930 . S
H677 C692 0.960 . S
H678 C692 0.960 . S
H679 C692 0.960 . S
C680 H672 0.929 . S
C680 C681 1.377 . S
C680 C682 1.384 . S
C681 C680 1.377 . S
C681 C687 1.390 . S
C682 H673 0.930 . S
C682 C680 1.384 . S
C682 C683 1.372 . S
C683 C682 1.372 . S
C683 C684 1.400 . S
C683 C688 1.490 . S
C684 H674 0.930 . S
C684 C683 1.400 . S
C684 C687 1.386 . S
H685 C701 0.930 . S
H686 C702 0.931 . S
C687 H675 0.929 . S
C687 C681 1.390 . S
C687 C684 1.386 . S
C688 C683 1.490 . S
C688 C690 1.395 . S
C688 C691 1.403 . S
H689 C695 0.930 . S
C690 H676 0.930 . S
C690 C688 1.395 . S
C690 C693 1.403 . S
C691 C688 1.403 . S
C691 C692 1.524 . S
C691 C695 1.400 . S
C692 H677 0.960 . S
C692 H678 0.960 . S
C692 H679 0.960 . S
C692 C691 1.524 . S
C693 C690 1.403 . S
C693 C694 1.392 . S
C693 C697 1.495 . S
C694 C693 1.392 . S
C694 C695 1.385 . S
C694 C696 1.478 . S
C695 H689 0.930 . S
C695 C691 1.400 . S
C695 C694 1.385 . S
C696 C694 1.478 . S
C696 C698 1.381 . S
C696 C702 1.383 . S
C697 C693 1.495 . S
C697 H703 0.959 . S
C697 H704 0.961 . S
C697 H705 0.960 . S
C698 C696 1.381 . S
C698 C699 1.394 . S
C698 H706 0.930 . S
C699 C698 1.394 . S
C699 C700 1.383 . S
C699 H707 0.929 . S
C700 C699 1.383 . S
C700 C701 1.377 . S
C701 H685 0.930 . S
C701 C700 1.377 . S
C701 C702 1.379 . S
C702 H686 0.931 . S
C702 C696 1.383 . S
C702 C701 1.379 . S
H703 C697 0.959 . S
H704 C697 0.961 . S
H705 C697 0.960 . S
H706 C698 0.930 . S
H707 C699 0.929 . S
H708 C716 0.929 . S
H709 C718 0.930 . S
H710 C720 0.930 . S
H711 C723 0.929 . S
H712 C726 0.930 . S
H713 C728 0.960 . S
H714 C728 0.960 . S
H715 C728 0.960 . S
C716 H708 0.929 . S
C716 C717 1.377 . S
C716 C718 1.384 . S
C717 C716 1.377 . S
C717 C723 1.390 . S
C718 H709 0.930 . S
C718 C716 1.384 . S
C718 C719 1.372 . S
C719 C718 1.372 . S
C719 C720 1.400 . S
C719 C724 1.490 . S
C720 H710 0.930 . S
C720 C719 1.400 . S
C720 C723 1.386 . S
H721 C737 0.930 . S
H722 C738 0.931 . S
C723 H711 0.929 . S
C723 C717 1.390 . S
C723 C720 1.386 . S
C724 C719 1.490 . S
C724 C726 1.395 . S
C724 C727 1.403 . S
H725 C731 0.930 . S
C726 H712 0.930 . S
C726 C724 1.395 . S
C726 C729 1.403 . S
C727 C724 1.403 . S
C727 C728 1.524 . S
C727 C731 1.400 . S
C728 H713 0.960 . S
C728 H714 0.960 . S
C728 H715 0.960 . S
C728 C727 1.524 . S
C729 C726 1.403 . S
C729 C730 1.392 . S
C729 C733 1.495 . S
C730 C729 1.392 . S
C730 C731 1.385 . S
C730 C732 1.478 . S
C731 H725 0.930 . S
C731 C727 1.400 . S
C731 C730 1.385 . S
C732 C730 1.478 . S
C732 C734 1.381 . S
C732 C738 1.383 . S
C733 C729 1.495 . S
C733 H739 0.959 . S
C733 H740 0.961 . S
C733 H741 0.960 . S
C734 C732 1.381 . S
C734 C735 1.394 . S
C734 H742 0.930 . S
C735 C734 1.394 . S
C735 C736 1.383 . S
C735 H743 0.929 . S
C736 C735 1.383 . S
C736 C737 1.377 . S
C737 H721 0.930 . S
C737 C736 1.377 . S
C737 C738 1.379 . S
C738 H722 0.931 . S
C738 C732 1.383 . S
C738 C737 1.379 . S
H739 C733 0.959 . S
H740 C733 0.961 . S
H741 C733 0.960 . S
H742 C734 0.930 . S
H743 C735 0.929 . S
H744 C752 0.929 . S
H745 C754 0.930 . S
H746 C756 0.930 . S
H747 C759 0.929 . S
H748 C762 0.930 . S
H749 C764 0.960 . S
H750 C764 0.960 . S
H751 C764 0.960 . S
C752 H744 0.929 . S
C752 C753 1.377 . S
C752 C754 1.384 . S
C753 C752 1.377 . S
C753 C759 1.390 . S
C754 H745 0.930 . S
C754 C752 1.384 . S
C754 C755 1.372 . S
C755 C754 1.372 . S
C755 C756 1.400 . S
C755 C760 1.490 . S
C756 H746 0.930 . S
C756 C755 1.400 . S
C756 C759 1.386 . S
H757 C773 0.930 . S
H758 C774 0.931 . S
C759 H747 0.929 . S
C759 C753 1.390 . S
C759 C756 1.386 . S
C760 C755 1.490 . S
C760 C762 1.395 . S
C760 C763 1.403 . S
H761 C767 0.930 . S
C762 H748 0.930 . S
C762 C760 1.395 . S
C762 C765 1.403 . S
C763 C760 1.403 . S
C763 C764 1.524 . S
C763 C767 1.400 . S
C764 H749 0.960 . S
C764 H750 0.960 . S
C764 H751 0.960 . S
C764 C763 1.524 . S
C765 C762 1.403 . S
C765 C766 1.392 . S
C765 C769 1.495 . S
C766 C765 1.392 . S
C766 C767 1.385 . S
C766 C768 1.478 . S
C767 H761 0.930 . S
C767 C763 1.400 . S
C767 C766 1.385 . S
C768 C766 1.478 . S
C768 C770 1.381 . S
C768 C774 1.383 . S
C769 C765 1.495 . S
C769 H775 0.959 . S
C769 H776 0.961 . S
C769 H777 0.960 . S
C770 C768 1.381 . S
C770 C771 1.394 . S
C770 H778 0.930 . S
C771 C770 1.394 . S
C771 C772 1.383 . S
C771 H779 0.929 . S
C772 C771 1.383 . S
C772 C773 1.377 . S
C773 H757 0.930 . S
C773 C772 1.377 . S
C773 C774 1.379 . S
C774 H758 0.931 . S
C774 C768 1.383 . S
C774 C773 1.379 . S
H775 C769 0.959 . S
H776 C769 0.961 . S
H777 C769 0.960 . S
H778 C770 0.930 . S
H779 C771 0.929 . S
H780 C788 0.929 . S
H781 C790 0.930 . S
H782 C792 0.930 . S
H783 C795 0.929 . S
H784 C798 0.930 . S
H785 C800 0.960 . S
H786 C800 0.960 . S
H787 C800 0.960 . S
C788 H780 0.929 . S
C788 C789 1.377 . S
C788 C790 1.384 . S
C789 C788 1.377 . S
C789 C795 1.390 . S
C790 H781 0.930 . S
C790 C788 1.384 . S
C790 C791 1.372 . S
C791 C790 1.372 . S
C791 C792 1.400 . S
C791 C796 1.490 . S
C792 H782 0.930 . S
C792 C791 1.400 . S
C792 C795 1.386 . S
H793 C809 0.930 . S
H794 C810 0.931 . S
C795 H783 0.929 . S
C795 C789 1.390 . S
C795 C792 1.386 . S
C796 C791 1.490 . S
C796 C798 1.395 . S
C796 C799 1.403 . S
H797 C803 0.930 . S
C798 H784 0.930 . S
C798 C796 1.395 . S
C798 C801 1.403 . S
C799 C796 1.403 . S
C799 C800 1.524 . S
C799 C803 1.400 . S
C800 H785 0.960 . S
C800 H786 0.960 . S
C800 H787 0.960 . S
C800 C799 1.524 . S
C801 C798 1.403 . S
C801 C802 1.392 . S
C801 C805 1.495 . S
C802 C801 1.392 . S
C802 C803 1.385 . S
C802 C804 1.478 . S
C803 H797 0.930 . S
C803 C799 1.400 . S
C803 C802 1.385 . S
C804 C802 1.478 . S
C804 C806 1.381 . S
C804 C810 1.383 . S
C805 C801 1.495 . S
C805 H811 0.959 . S
C805 H812 0.961 . S
C805 H813 0.960 . S
C806 C804 1.381 . S
C806 C807 1.394 . S
C806 H814 0.930 . S
C807 C806 1.394 . S
C807 C808 1.383 . S
C807 H815 0.929 . S
C808 C807 1.383 . S
C808 C809 1.377 . S
C809 H793 0.930 . S
C809 C808 1.377 . S
C809 C810 1.379 . S
C810 H794 0.931 . S
C810 C804 1.383 . S
C810 C809 1.379 . S
H811 C805 0.959 . S
H812 C805 0.961 . S
H813 C805 0.960 . S
H814 C806 0.930 . S
H815 C807 0.929 . S
H816 C824 0.929 . S
H817 C826 0.930 . S
H818 C828 0.930 . S
H819 C831 0.929 . S
H820 C834 0.930 . S
H821 C836 0.960 . S
H822 C836 0.960 . S
H823 C836 0.960 . S
C824 H816 0.929 . S
C824 C825 1.377 . S
C824 C826 1.384 . S
C825 C824 1.377 . S
C825 C831 1.390 . S
C826 H817 0.930 . S
C826 C824 1.384 . S
C826 C827 1.372 . S
C827 C826 1.372 . S
C827 C828 1.400 . S
C827 C832 1.490 . S
C828 H818 0.930 . S
C828 C827 1.400 . S
C828 C831 1.386 . S
H829 C845 0.930 . S
H830 C846 0.931 . S
C831 H819 0.929 . S
C831 C825 1.390 . S
C831 C828 1.386 . S
C832 C827 1.490 . S
C832 C834 1.395 . S
C832 C835 1.403 . S
H833 C839 0.930 . S
C834 H820 0.930 . S
C834 C832 1.395 . S
C834 C837 1.403 . S
C835 C832 1.403 . S
C835 C836 1.524 . S
C835 C839 1.400 . S
C836 H821 0.960 . S
C836 H822 0.960 . S
C836 H823 0.960 . S
C836 C835 1.524 . S
C837 C834 1.403 . S
C837 C838 1.392 . S
C837 C841 1.495 . S
C838 C837 1.392 . S
C838 C839 1.385 . S
C838 C840 1.478 . S
C839 H833 0.930 . S
C839 C835 1.400 . S
C839 C838 1.385 . S
C840 C838 1.478 . S
C840 C842 1.381 . S
C840 C846 1.383 . S
C841 C837 1.495 . S
C841 H847 0.959 . S
C841 H848 0.961 . S
C841 H849 0.960 . S
C842 C840 1.381 . S
C842 C843 1.394 . S
C842 H850 0.930 . S
C843 C842 1.394 . S
C843 C844 1.383 . S
C843 H851 0.929 . S
C844 C843 1.383 . S
C844 C845 1.377 . S
C845 H829 0.930 . S
C845 C844 1.377 . S
C845 C846 1.379 . S
C846 H830 0.931 . S
C846 C840 1.383 . S
C846 C845 1.379 . S
H847 C841 0.959 . S
H848 C841 0.961 . S
H849 C841 0.960 . S
H850 C842 0.930 . S
H851 C843 0.929 . S
H852 C860 0.929 . S
H853 C862 0.930 . S
H854 C864 0.930 . S
H855 C867 0.929 . S
H856 C870 0.930 . S
H857 C872 0.960 . S
H858 C872 0.960 . S
H859 C872 0.960 . S
C860 H852 0.929 . S
C860 C861 1.377 . S
C860 C862 1.384 . S
C861 C860 1.377 . S
C861 C867 1.390 . S
C862 H853 0.930 . S
C862 C860 1.384 . S
C862 C863 1.372 . S
C863 C862 1.372 . S
C863 C864 1.400 . S
C863 C868 1.490 . S
C864 H854 0.930 . S
C864 C863 1.400 . S
C864 C867 1.386 . S
H865 C881 0.930 . S
H866 C882 0.931 . S
C867 H855 0.929 . S
C867 C861 1.390 . S
C867 C864 1.386 . S
C868 C863 1.490 . S
C868 C870 1.395 . S
C868 C871 1.403 . S
H869 C875 0.930 . S
C870 H856 0.930 . S
C870 C868 1.395 . S
C870 C873 1.403 . S
C871 C868 1.403 . S
C871 C872 1.524 . S
C871 C875 1.400 . S
C872 H857 0.960 . S
C872 H858 0.960 . S
C872 H859 0.960 . S
C872 C871 1.524 . S
C873 C870 1.403 . S
C873 C874 1.392 . S
C873 C877 1.495 . S
C874 C873 1.392 . S
C874 C875 1.385 . S
C874 C876 1.478 . S
C875 H869 0.930 . S
C875 C871 1.400 . S
C875 C874 1.385 . S
C876 C874 1.478 . S
C876 C878 1.381 . S
C876 C882 1.383 . S
C877 C873 1.495 . S
C877 H883 0.959 . S
C877 H884 0.961 . S
C877 H885 0.960 . S
C878 C876 1.381 . S
C878 C879 1.394 . S
C878 H886 0.930 . S
C879 C878 1.394 . S
C879 C880 1.383 . S
C879 H887 0.929 . S
C880 C879 1.383 . S
C880 C881 1.377 . S
C881 H865 0.930 . S
C881 C880 1.377 . S
C881 C882 1.379 . S
C882 H866 0.931 . S
C882 C876 1.383 . S
C882 C881 1.379 . S
H883 C877 0.959 . S
H884 C877 0.961 . S
H885 C877 0.960 . S
H886 C878 0.930 . S
H887 C879 0.929 . S
H888 C896 0.929 . S
H889 C898 0.930 . S
H890 C900 0.930 . S
H891 C903 0.929 . S
H892 C906 0.930 . S
H893 C908 0.960 . S
H894 C908 0.960 . S
H895 C908 0.960 . S
C896 H888 0.929 . S
C896 C897 1.377 . S
C896 C898 1.384 . S
C897 C896 1.377 . S
C897 C903 1.390 . S
C898 H889 0.930 . S
C898 C896 1.384 . S
C898 C899 1.372 . S
C899 C898 1.372 . S
C899 C900 1.400 . S
C899 C904 1.490 . S
C900 H890 0.930 . S
C900 C899 1.400 . S
C900 C903 1.386 . S
H901 C917 0.930 . S
H902 C918 0.931 . S
C903 H891 0.929 . S
C903 C897 1.390 . S
C903 C900 1.386 . S
C904 C899 1.490 . S
C904 C906 1.395 . S
C904 C907 1.403 . S
H905 C911 0.930 . S
C906 H892 0.930 . S
C906 C904 1.395 . S
C906 C909 1.403 . S
C907 C904 1.403 . S
C907 C908 1.524 . S
C907 C911 1.400 . S
C908 H893 0.960 . S
C908 H894 0.960 . S
C908 H895 0.960 . S
C908 C907 1.524 . S
C909 C906 1.403 . S
C909 C910 1.392 . S
C909 C913 1.495 . S
C910 C909 1.392 . S
C910 C911 1.385 . S
C910 C912 1.478 . S
C911 H905 0.930 . S
C911 C907 1.400 . S
C911 C910 1.385 . S
C912 C910 1.478 . S
C912 C914 1.381 . S
C912 C918 1.383 . S
C913 C909 1.495 . S
C913 H919 0.959 . S
C913 H920 0.961 . S
C913 H921 0.960 . S
C914 C912 1.381 . S
C914 C915 1.394 . S
C914 H922 0.930 . S
C915 C914 1.394 . S
C915 C916 1.383 . S
C915 H923 0.929 . S
C916 C915 1.383 . S
C916 C917 1.377 . S
C917 H901 0.930 . S
C917 C916 1.377 . S
C917 C918 1.379 . S
C918 H902 0.931 . S
C918 C912 1.383 . S
C918 C917 1.379 . S
H919 C913 0.959 . S
H920 C913 0.961 . S
H921 C913 0.960 . S
H922 C914 0.930 . S
H923 C915 0.929 . S
H924 C932 0.929 . S
H925 C934 0.930 . S
H926 C936 0.930 . S
H927 C939 0.929 . S
H928 C942 0.930 . S
H929 C944 0.960 . S
H930 C944 0.960 . S
H931 C944 0.960 . S
C932 H924 0.929 . S
C932 C933 1.377 . S
C932 C934 1.384 . S
C933 C932 1.377 . S
C933 C939 1.390 . S
C934 H925 0.930 . S
C934 C932 1.384 . S
C934 C935 1.372 . S
C935 C934 1.372 . S
C935 C936 1.400 . S
C935 C940 1.490 . S
C936 H926 0.930 . S
C936 C935 1.400 . S
C936 C939 1.386 . S
H937 C953 0.930 . S
H938 C954 0.931 . S
C939 H927 0.929 . S
C939 C933 1.390 . S
C939 C936 1.386 . S
C940 C935 1.490 . S
C940 C942 1.395 . S
C940 C943 1.403 . S
H941 C947 0.930 . S
C942 H928 0.930 . S
C942 C940 1.395 . S
C942 C945 1.403 . S
C943 C940 1.403 . S
C943 C944 1.524 . S
C943 C947 1.400 . S
C944 H929 0.960 . S
C944 H930 0.960 . S
C944 H931 0.960 . S
C944 C943 1.524 . S
C945 C942 1.403 . S
C945 C946 1.392 . S
C945 C949 1.495 . S
C946 C945 1.392 . S
C946 C947 1.385 . S
C946 C948 1.478 . S
C947 H941 0.930 . S
C947 C943 1.400 . S
C947 C946 1.385 . S
C948 C946 1.478 . S
C948 C950 1.381 . S
C948 C954 1.383 . S
C949 C945 1.495 . S
C949 H955 0.959 . S
C949 H956 0.961 . S
C949 H957 0.960 . S
C950 C948 1.381 . S
C950 C951 1.394 . S
C950 H958 0.930 . S
C951 C950 1.394 . S
C951 C952 1.383 . S
C951 H959 0.929 . S
C952 C951 1.383 . S
C952 C953 1.377 . S
C953 H937 0.930 . S
C953 C952 1.377 . S
C953 C954 1.379 . S
C954 H938 0.931 . S
C954 C948 1.383 . S
C954 C953 1.379 . S
H955 C949 0.959 . S
H956 C949 0.961 . S
H957 C949 0.960 . S
H958 C950 0.930 . S
H959 C951 0.929 . S
H960 C968 0.929 . S
H961 C970 0.930 . S
H962 C972 0.930 . S
H963 C975 0.929 . S
H964 C978 0.930 . S
H965 C980 0.960 . S
H966 C980 0.960 . S
H967 C980 0.960 . S
C968 H960 0.929 . S
C968 C969 1.377 . S
C968 C970 1.384 . S
C969 C968 1.377 . S
C969 C975 1.390 . S
C970 H961 0.930 . S
C970 C968 1.384 . S
C970 C971 1.372 . S
C971 C970 1.372 . S
C971 C972 1.400 . S
C971 C976 1.490 . S
C972 H962 0.930 . S
C972 C971 1.400 . S
C972 C975 1.386 . S
H973 C989 0.930 . S
H974 C990 0.931 . S
C975 H963 0.929 . S
C975 C969 1.390 . S
C975 C972 1.386 . S
C976 C971 1.490 . S
C976 C978 1.395 . S
C976 C979 1.403 . S
H977 C983 0.930 . S
C978 H964 0.930 . S
C978 C976 1.395 . S
C978 C981 1.403 . S
C979 C976 1.403 . S
C979 C980 1.524 . S
C979 C983 1.400 . S
C980 H965 0.960 . S
C980 H966 0.960 . S
C980 H967 0.960 . S
C980 C979 1.524 . S
C981 C978 1.403 . S
C981 C982 1.392 . S
C981 C985 1.495 . S
C982 C981 1.392 . S
C982 C983 1.385 . S
C982 C984 1.478 . S
C983 H977 0.930 . S
C983 C979 1.400 . S
C983 C982 1.385 . S
C984 C982 1.478 . S
C984 C986 1.381 . S
C984 C990 1.383 . S
C985 C981 1.495 . S
C985 H991 0.959 . S
C985 H992 0.961 . S
C985 H993 0.960 . S
C986 C984 1.381 . S
C986 C987 1.394 . S
C986 H994 0.930 . S
C987 C986 1.394 . S
C987 C988 1.383 . S
C987 H995 0.929 . S
C988 C987 1.383 . S
C988 C989 1.377 . S
C989 H973 0.930 . S
C989 C988 1.377 . S
C989 C990 1.379 . S
C990 H974 0.931 . S
C990 C984 1.383 . S
C990 C989 1.379 . S
H991 C985 0.959 . S
H992 C985 0.961 . S
H993 C985 0.960 . S
H994 C986 0.930 . S
H995 C987 0.929 . S
H996 C1004 0.929 . S
H997 C1006 0.930 . S
H998 C1008 0.930 . S
H999 C1011 0.929 . S
H1000 C1014 0.930 . S
H1001 C1016 0.960 . S
H1002 C1016 0.960 . S
H1003 C1016 0.960 . S
C1004 H996 0.929 . S
C1004 C1005 1.377 . S
C1004 C1006 1.384 . S
C1005 C1004 1.377 . S
C1005 C1011 1.390 . S
C1006 H997 0.930 . S
C1006 C1004 1.384 . S
C1006 C1007 1.372 . S
C1007 C1006 1.372 . S
C1007 C1008 1.400 . S
C1007 C1012 1.490 . S
C1008 H998 0.930 . S
C1008 C1007 1.400 . S
C1008 C1011 1.386 . S
H1009 C1025 0.930 . S
H1010 C1026 0.931 . S
C1011 H999 0.929 . S
C1011 C1005 1.390 . S
C1011 C1008 1.386 . S
C1012 C1007 1.490 . S
C1012 C1014 1.395 . S
C1012 C1015 1.403 . S
H1013 C1019 0.930 . S
C1014 H1000 0.930 . S
C1014 C1012 1.395 . S
C1014 C1017 1.403 . S
C1015 C1012 1.403 . S
C1015 C1016 1.524 . S
C1015 C1019 1.400 . S
C1016 H1001 0.960 . S
C1016 H1002 0.960 . S
C1016 H1003 0.960 . S
C1016 C1015 1.524 . S
C1017 C1014 1.403 . S
C1017 C1018 1.392 . S
C1017 C1021 1.495 . S
C1018 C1017 1.392 . S
C1018 C1019 1.385 . S
C1018 C1020 1.478 . S
C1019 H1013 0.930 . S
C1019 C1015 1.400 . S
C1019 C1018 1.385 . S
C1020 C1018 1.478 . S
C1020 C1022 1.381 . S
C1020 C1026 1.383 . S
C1021 C1017 1.495 . S
C1021 H1027 0.959 . S
C1021 H1028 0.961 . S
C1021 H1029 0.960 . S
C1022 C1020 1.381 . S
C1022 C1023 1.394 . S
C1022 H1030 0.930 . S
C1023 C1022 1.394 . S
C1023 C1024 1.383 . S
C1023 H1031 0.929 . S
C1024 C1023 1.383 . S
C1024 C1025 1.377 . S
C1025 H1009 0.930 . S
C1025 C1024 1.377 . S
C1025 C1026 1.379 . S
C1026 H1010 0.931 . S
C1026 C1020 1.383 . S
C1026 C1025 1.379 . S
H1027 C1021 0.959 . S
H1028 C1021 0.961 . S
H1029 C1021 0.960 . S
H1030 C1022 0.930 . S
H1031 C1023 0.929 . S
C177 C147 1.403 . S
C196 C7 1.417 . S
C213 C21 1.316 . S
C232 C160 1.266 . S
C249 C34 1.406 . S
C268 C91 1.402 . S
C285 C105 1.401 . S
C304 C49 1.432 . S
C321 C118 1.307 . S
C340 C63 1.317 . S
C357 C76 1.401 . S
C376 C133 1.432 . S
C393 C6 0.768 . S
C412 C104 0.750 . S
C429 C20 0.717 . S
C448 C119 0.735 . S
C465 C132 0.783 . S
C484 C35 0.810 . S
C501 C146 0.763 . S
C520 C48 0.761 . S
C537 C161 0.727 . S
C556 C62 0.723 . S
C573 C90 0.774 . S
C592 C77 0.736 . S
C609 C8 1.011 . S
C628 C65 1.014 . S
C645 C22 1.109 . S
C664 C78 1.102 . S
C681 C37 0.973 . S
C700 C9 0.992 . S
C717 C50 1.011 . S
C736 C23 1.012 . S
C753 C64 1.101 . S
C772 C36 1.118 . S
C789 C79 0.987 . S
C808 C51 0.967 . S
C825 C92 1.002 . S
C844 C120 1.024 . S
C861 C106 0.982 . S
C880 C135 1.004 . S
C897 C149 1.121 . S
C916 C121 1.079 . S
C933 C134 1.011 . S
C952 C162 0.986 . S
C969 C148 0.977 . S
C988 C93 0.975 . S
C1005 C163 1.104 . S
C1024 C107 1.108 . S
