# Generated by pormake.
# Topology sxb, (6)-cn, num edge types: 1
# Building blocks:
#     Node 0, Type 0, BuildingBlock: KUMJIN_clean_sbu_1, # of connection points: 6
#     Node 1, Type 0, BuildingBlock: KUMJIN_clean_sbu_1, # of connection points: 6
#     Node 2, Type 0, BuildingBlock: KUMJIN_clean_sbu_1, # of connection points: 6
#     Node 3, Type 0, BuildingBlock: KUMJIN_clean_sbu_1, # of connection points: 6
#     Edge 4, Type (0, 0), BuildingBlock: UVAHIK_clean_linker_0, # of connection points: 2
#     Edge 5, Type (0, 0), BuildingBlock: UVAHIK_clean_linker_0, # of connection points: 2
#     Edge 6, Type (0, 0), BuildingBlock: UVAHIK_clean_linker_0, # of connection points: 2
#     Edge 7, Type (0, 0), BuildingBlock: UVAHIK_clean_linker_0, # of connection points: 2
#     Edge 8, Type (0, 0), BuildingBlock: UVAHIK_clean_linker_0, # of connection points: 2
#     Edge 9, Type (0, 0), BuildingBlock: UVAHIK_clean_linker_0, # of connection points: 2
#     Edge 10, Type (0, 0), BuildingBlock: UVAHIK_clean_linker_0, # of connection points: 2
#     Edge 11, Type (0, 0), BuildingBlock: UVAHIK_clean_linker_0, # of connection points: 2
#     Edge 12, Type (0, 0), BuildingBlock: UVAHIK_clean_linker_0, # of connection points: 2
#     Edge 13, Type (0, 0), BuildingBlock: UVAHIK_clean_linker_0, # of connection points: 2
#     Edge 14, Type (0, 0), BuildingBlock: UVAHIK_clean_linker_0, # of connection points: 2
#     Edge 15, Type (0, 0), BuildingBlock: UVAHIK_clean_linker_0, # of connection points: 2
# Relax obj value: 0.009
# Max RMSD: 0.046
# Mean RMSD: 0.046
data_MOF--net-sxb--node1-KUMJIN_clean_sbu_1--edge1-UVAHIK_clean_linker_0
_symmetry_space_group_name_H-M    P1
_symmetry_Int_Tables_number       1
_symmetry_cell_setting            triclinic
loop_
_symmetry_equiv_pos_as_xyz
'x, y, z'
_cell_length_a     19.540447
_cell_length_b     55.381379
_cell_length_c     38.77469
_cell_angle_alpha  115.84279
_cell_angle_beta   90.071527
_cell_angle_gamma 90.017324
loop_
_atom_site_label
_atom_site_type_symbol
_atom_site_fract_x
_atom_site_fract_y
_atom_site_fract_z
_atom_type_partial_charge
Eu0 Eu 1.01394 0.96795 0.97684 0.0
C1 C 0.1435 0.08311 0.04108 0.0
N2 N 0.09846 0.07101 0.05526 0.0
C3 C 0.15933 0.08809 0.11487 0.0
C4 C 0.20009 0.09745 0.06303 0.0
C5 C 0.10398 0.07407 0.09204 0.0
C6 C 0.20794 0.09964 0.1002 0.0
C7 C 0.1789 0.09331 0.98892 0.0
C8 C 0.13295 0.08099 0.0044 0.0
C9 C 0.23601 0.10724 0.01046 0.0
C10 C 0.24654 0.10932 0.04741 0.0
Eu11 Eu 1.00554 0.04872 0.01532 0.0
N12 N 0.07742 0.06726 0.9841 0.0
C13 C 0.16576 0.09145 0.95234 0.0
C14 C 0.06218 0.06687 0.94953 0.0
C15 C 0.10672 0.07841 0.93274 0.0
H16 H 0.06583 0.06564 0.10373 0.0
H17 H 0.09482 0.07766 0.90502 0.0
H18 H 1.01696 0.94566 0.8796 0.0
H19 H 0.8381 0.9397 0.06149 0.0
H20 H 1.01458 0.05847 0.9354 0.0
H21 H 0.19993 0.10057 0.9394 0.0
H22 H 0.94348 0.95939 0.04855 0.0
H23 H 0.16423 0.09013 0.14382 0.0
H24 H 0.27199 0.11672 -0.00106 0.0
H25 H 0.29048 0.12035 0.06379 0.0
H26 H 0.93721 0.92573 0.82553 0.0
H27 H 0.25072 0.11053 0.11799 0.0
H28 H 0.74984 0.92006 0.01092 0.0
N29 N 0.94425 0.94704 0.92143 0.0
C30 C 0.88274 0.93776 0.92707 0.0
C31 C 0.9207 0.92946 0.85406 0.0
C32 C 0.83659 0.92494 0.89642 0.0
C33 C 0.96529 0.9415 0.88514 0.0
C34 C 0.85556 0.92159 0.85982 0.0
N35 N 0.91333 0.95143 0.99197 0.0
C36 C 0.90478 0.95086 0.02655 0.0
C37 C 0.80677 0.92814 0.96916 0.0
C38 C 0.86762 0.93939 0.96306 0.0
C39 C 0.79586 0.92859 0.00517 0.0
C40 C 0.84552 0.93969 0.03382 0.0
H41 H 0.82153 0.91187 0.83555 0.0
H42 H 0.73806 0.90522 0.87969 0.0
H43 H 0.7121 0.90795 0.94334 0.0
O44 O 0.06662 0.94631 0.00456 0.0
O45 O 0.91619 0.99135 0.00359 0.0
O46 O 0.9172 0.02299 0.98117 0.0
O47 O 0.04644 0.9264 0.94386 0.0
O48 O 0.04607 0.99451 0.03785 0.0
O49 O 0.9782 0.03231 0.05819 0.0
O50 O 0.96704 0.08617 0.016 0.0
O51 O 0.10861 0.03009 0.01886 0.0
O52 O 0.1121 0.987 0.96949 0.0
O53 O 0.93656 0.07457 0.06098 0.0
O54 O 0.98216 0.0222 0.95258 0.0
O55 O 0.04917 0.98437 0.93508 0.0
C56 C 0.88324 0.00743 0.99255 0.0
C57 C 0.14128 0.91153 0.96697 0.0
C58 C 0.21412 0.87665 0.9698 0.0
C59 C 0.26949 0.88687 0.95701 0.0
C60 C 0.19675 0.92127 0.95391 0.0
C61 C 0.2607 0.90902 0.94915 0.0
C62 C 0.14996 0.88925 0.97479 0.0
C63 C 1.00985 0.01352 0.06432 0.0
C64 C 0.07412 0.92446 0.97306 0.0
C65 C 0.77429 0.91492 0.90286 0.0
C66 C 0.75955 0.91641 0.93909 0.0
C67 C 0.14228 0.00913 0.99392 0.0
C68 C 0.89057 0.11687 0.06539 0.0
C69 C 0.83817 0.1568 0.06451 0.0
C70 C 0.8102 0.16322 0.10088 0.0
C71 C 0.86174 0.12379 0.10162 0.0
C72 C 0.87916 0.13363 0.047 0.0
C73 C 0.82209 0.14687 0.11923 0.0
C74 C 1.02001 1.00294 0.92741 0.0
C75 C 0.9322 0.09221 0.04721 0.0
H76 H 0.31936 0.87746 0.95245 0.0
H77 H 0.19055 0.93831 0.94748 0.0
H78 H 0.30353 0.91663 0.93915 0.0
H79 H 0.10689 0.88195 0.98517 0.0
H80 H 0.77954 0.18113 0.11537 0.0
H81 H 0.87001 0.1114 0.11648 0.0
H82 H 0.90083 0.12842 0.01893 0.0
H83 H 0.8004 0.15211 0.14726 0.0
Eu84 Eu 0.0364 0.04752 0.51409 0.0
C85 C 0.15997 0.93797 0.42399 0.0
N86 N 0.09757 0.94697 0.41904 0.0
C87 C 0.11982 0.93077 0.35173 0.0
C88 C 0.20591 0.92607 0.39306 0.0
C89 C 0.07549 0.94184 0.38302 0.0
C90 C 0.18581 0.92332 0.35689 0.0
C91 C 0.23796 0.92768 0.46468 0.0
C92 C 0.17621 0.93882 0.45942 0.0
C93 C 0.28499 0.91696 0.43442 0.0
C94 C 0.26913 0.91626 0.39876 0.0
Eu95 Eu 0.02855 0.96644 0.47489 0.0
N96 N 0.13061 0.94985 0.48853 0.0
C97 C 0.24989 0.92714 0.5 0.0
C98 C 0.1402 0.94828 0.52238 0.0
C99 C 0.20032 0.93714 0.52878 0.0
H100 H 0.02328 0.94567 0.37782 0.0
H101 H 0.20851 0.93638 0.5559 0.0
H102 H 0.96929 0.06535 0.60097 0.0
H103 H 0.96048 0.07524 0.40031 0.0
H104 H 0.10168 0.95601 0.54451 0.0
H105 H 0.2966 0.91865 0.50508 0.0
H106 H 0.03632 0.05633 0.43316 0.0
H107 H 0.10249 0.92744 0.32348 0.0
H108 H 0.3331 0.90861 0.43805 0.0
H109 H 0.3052 0.90728 0.37539 0.0
H110 H 0.86907 0.09042 0.63848 0.0
H111 H 0.21965 0.91433 0.33244 0.0
H112 H 0.85364 0.09833 0.43163 0.0
N113 N 0.94155 0.07024 0.55139 0.0
C114 C 0.89879 0.08208 0.53569 0.0
C115 C 0.87655 0.08804 0.60951 0.0
C116 C 0.84125 0.09664 0.55605 0.0
C117 C 0.93296 0.07378 0.58823 0.0
C118 C 0.83014 0.09932 0.59324 0.0
N119 N 0.9694 0.0658 0.48052 0.0
C120 C 0.98814 0.06507 0.44619 0.0
C121 C 0.8692 0.09161 0.48208 0.0
C122 C 0.91273 0.07954 0.49911 0.0
C123 C 0.88589 0.08942 0.44573 0.0
C124 C 0.94601 0.07632 0.42789 0.0
H125 H 0.78651 0.11039 0.60982 0.0
H126 H 0.75251 0.11944 0.554 0.0
H127 H 0.7769 0.11501 0.48927 0.0
O128 O 0.07656 0.08527 0.51634 0.0
O129 O 0.93306 0.02912 0.51761 0.0
O130 O 0.92867 0.98541 0.46949 0.0
O131 O 0.10508 0.07257 0.56055 0.0
O132 O 0.06053 0.0201 0.45192 0.0
O133 O 0.99034 0.98329 0.43419 0.0
O134 O 0.98016 0.94372 0.5022 0.0
O135 O 0.12534 0.99031 0.50301 0.0
O136 O 0.12461 0.02176 0.48026 0.0
O137 O 0.99502 0.92506 0.44105 0.0
O138 O 0.99578 0.99262 0.53577 0.0
O139 O 0.06032 0.03138 0.55771 0.0
C140 C 0.89911 0.00784 0.49351 0.0
C141 C 0.15263 0.11514 0.56709 0.0
C142 C 0.20639 0.15559 0.56871 0.0
C143 C 0.23316 0.16123 0.60512 0.0
C144 C 0.1803 0.12128 0.60341 0.0
C145 C 0.22002 0.14423 0.62228 0.0
C146 C 0.16529 0.13256 0.54991 0.0
C147 C 1.01887 1.00227 0.42731 0.0
C148 C 0.11051 0.0907 0.54773 0.0
C149 C 0.79716 0.10825 0.53886 0.0
C150 C 0.81105 0.10571 0.50198 0.0
C151 C 0.15848 0.00653 0.4923 0.0
C152 C 0.903 0.90972 0.46556 0.0
C153 C 0.8308 0.87534 0.47024 0.0
C154 C 0.77402 0.8862 0.45956 0.0
C155 C 0.84612 0.92008 0.4545 0.0
C156 C 0.89534 0.88735 0.47325 0.0
C157 C 0.7818 0.9084 0.45171 0.0
C158 C 0.03099 0.01173 0.56285 0.0
C159 C 0.97036 0.92237 0.47032 0.0
H160 H 0.26387 0.17902 0.62056 0.0
H161 H 0.17097 0.1084 0.61739 0.0
H162 H 0.24078 0.14887 0.65037 0.0
H163 H 0.14445 0.12799 0.52182 0.0
H164 H 0.72377 0.87725 0.45663 0.0
H165 H 0.85148 0.93722 0.44822 0.0
H166 H 0.9395 0.87955 0.48208 0.0
H167 H 0.73787 0.91652 0.44334 0.0
Eu168 Eu 0.53415 0.46359 0.97446 0.0
C169 C 0.66064 0.57327 0.0631 0.0
N170 N 0.59836 0.56444 0.06856 0.0
C171 C 0.62207 0.58106 0.1358 0.0
C172 C 0.70727 0.58527 0.09374 0.0
C173 C 0.57706 0.56986 0.10477 0.0
C174 C 0.68796 0.58832 0.13015 0.0
C175 C 0.73784 0.58299 0.02159 0.0
C176 C 0.67614 0.57208 0.0274 0.0
C177 C 0.78551 0.59383 0.05159 0.0
C178 C 0.77039 0.59486 0.08752 0.0
Eu179 Eu 0.52813 0.54479 0.01314 0.0
N180 N 0.62998 0.56088 -0.00149 0.0
C181 C 0.74915 0.58311 0.98598 0.0
C182 C 0.639 0.56203 0.96435 0.0
C183 C 0.69906 0.57292 0.95741 0.0
H184 H 0.52492 0.56625 0.1103 0.0
H185 H 0.7068 0.57336 0.93006 0.0
H186 H 0.4738 0.44697 0.88602 0.0
H187 H 0.44414 0.4346 0.08453 0.0
H188 H 0.60004 0.55416 0.94241 0.0
H189 H 0.79582 0.5914 0.98047 0.0
H190 H 0.52429 0.45411 0.05449 0.0
H191 H 0.60533 0.58464 0.16423 0.0
H192 H 0.8336 0.602 0.04755 0.0
H193 H 0.80698 0.60392 0.11067 0.0
H194 H 0.37577 0.42244 0.84577 0.0
H195 H 0.72234 0.59741 0.15439 0.0
H196 H 0.33978 0.41128 0.04967 0.0
N197 N 0.44146 0.44129 0.93429 0.0
C198 C 0.39657 0.42901 0.94827 0.0
C199 C 0.38069 0.42434 0.87465 0.0
C200 C 0.34017 0.4146 0.92617 0.0
C201 C 0.43584 0.43842 0.89761 0.0
C202 C 0.33231 0.41256 0.88909 0.0
N203 N 0.46215 0.44494 0.00544 0.0
C204 C 0.47702 0.44547 0.04013 0.0
C205 C 0.36105 0.41862 0.00025 0.0
C206 C 0.40695 0.43107 0.98494 0.0
C207 C 0.37391 0.42051 0.03687 0.0
C208 C 0.43254 0.43378 0.05673 0.0
H209 H 0.28968 0.40163 0.8712 0.0
H210 H 0.25012 0.39144 0.92507 0.0
H211 H 0.26834 0.39496 0.98989 0.0
O212 O 0.57289 0.42635 0.97438 0.0
O213 O 0.43065 0.48224 0.97189 0.0
O214 O 0.42803 0.52626 0.01936 0.0
O215 O 0.60318 0.43756 0.92898 0.0
O216 O 0.55737 0.49048 0.03705 0.0
O217 O 0.49071 0.52835 0.05427 0.0
O218 O 0.47884 0.56734 0.98574 0.0
O219 O 0.62433 0.52067 0.98533 0.0
O220 O 0.6226 0.48938 0.00837 0.0
O221 O 0.49635 0.58637 0.0467 0.0
O222 O 0.49396 0.51805 0.95281 0.0
O223 O 0.55981 0.47975 0.93113 0.0
C224 C 0.39763 0.50381 -0.00415 0.0
C225 C 0.64937 0.39544 0.9252 0.0
C226 C 0.70161 0.35563 0.92657 0.0
C227 C 0.72966 0.34902 0.89017 0.0
C228 C 0.6783 0.38833 0.88895 0.0
C229 C 0.71791 0.36522 0.87156 0.0
C230 C 0.66065 0.37883 0.94385 0.0
C231 C 0.51833 0.50948 0.06177 0.0
C232 C 0.60764 0.4201 0.94308 0.0
C233 C 0.29387 0.40254 0.94159 0.0
C234 C 0.30425 0.40455 0.97852 0.0
C235 C 0.65693 0.50451 -0.00366 0.0
C236 C 0.40326 0.60178 0.02308 0.0
C237 C 0.33081 0.63656 0.01967 0.0
C238 C 0.27494 0.62619 0.03184 0.0
C239 C 0.34724 0.59189 0.03551 0.0
C240 C 0.39505 0.62409 0.01527 0.0
C241 C 0.28325 0.60401 0.03968 0.0
C242 C 0.52952 0.49915 0.92582 0.0
C243 C 0.47042 0.58889 0.01754 0.0
H244 H 0.7603 0.33109 0.87585 0.0
H245 H 0.67012 0.40059 0.87388 0.0
H246 H 0.73966 0.35983 0.84351 0.0
H247 H 0.63887 0.38417 0.97194 0.0
H248 H 0.22499 0.63549 0.03595 0.0
H249 H 0.35304 0.57482 0.04191 0.0
H250 H 0.43854 0.6315 0.00536 0.0
H251 H 0.24001 0.59627 0.04918 0.0
Eu252 Eu 0.51141 0.54691 0.51986 0.0
C253 C 0.65077 0.43625 0.43397 0.0
N254 N 0.59531 0.44607 0.42307 0.0
C255 C 0.63975 0.43024 0.35941 0.0
C256 C 0.70388 0.42334 0.4078 0.0
C257 C 0.58858 0.44304 0.38639 0.0
C258 C 0.69773 0.4204 0.37016 0.0
C259 C 0.71295 0.43024 0.48391 0.0
C260 C 0.65532 0.43988 0.47179 0.0
C261 C 0.76624 0.41763 0.45799 0.0
C262 C 0.76166 0.41415 0.42005 0.0
Eu263 Eu 0.5103 0.46596 0.46983 0.0
N264 N 0.60308 0.45229 0.49643 0.0
C265 C 0.71468 0.43303 0.52154 0.0
C266 C 0.60209 0.45287 0.53195 0.0
C267 C 0.65848 0.44399 0.54545 0.0
H268 H 0.54331 0.45015 0.37781 0.0
H269 H 0.65782 0.44501 0.57396 0.0
H270 H 0.54292 0.5706 0.61412 0.0
H271 H 0.29571 0.56465 0.44438 0.0
H272 H 0.55706 0.45906 0.54946 0.0
H273 H 0.75801 0.42589 0.53194 0.0
H274 H 0.40737 0.54593 0.45017 0.0
H275 H 0.63431 0.42788 0.33033 0.0
H276 H 0.81094 0.41022 0.46691 0.0
H277 H 0.8031 0.4043 0.40039 0.0
H278 H 0.48504 0.59851 0.67529 0.0
H279 H 0.73742 0.41057 0.34921 0.0
H280 H 0.23076 0.59323 0.50274 0.0
N281 N 0.46147 0.57339 0.57974 0.0
C282 C 0.39982 0.58445 0.57875 0.0
C283 C 0.46033 0.59457 0.64836 0.0
C284 C 0.36555 0.60093 0.61295 0.0
C285 C 0.49256 0.57847 0.61372 0.0
C286 C 0.39643 0.60577 0.64799 0.0
N287 N 0.40406 0.56266 0.51085 0.0
C288 C 0.37895 0.55794 0.47567 0.0
C289 C 0.30705 0.59056 0.5415 0.0
C290 C 0.37078 0.57929 0.5434 0.0
C291 C 0.27961 0.58495 0.50541 0.0
C292 C 0.31598 0.56873 0.47238 0.0
H293 H 0.3717 0.61832 0.67489 0.0
H294 H 0.27476 0.62478 0.63711 0.0
H295 H 0.22365 0.61573 0.57464 0.0
O296 O 0.54999 0.57014 0.49078 0.0
O297 O 0.4102 0.52671 0.52066 0.0
O298 O 0.40996 0.4855 0.46778 0.0
O299 O 0.55903 0.58607 0.55235 0.0
O300 O 0.52926 0.52463 0.45575 0.0
O301 O 0.47028 0.48446 0.43208 0.0
O302 O 0.46232 0.43421 0.48229 0.0
O303 O 0.60563 0.48866 0.46604 0.0
O304 O 0.60851 0.52608 0.52365 0.0
O305 O 0.47325 0.42933 0.42353 0.0
O306 O 0.48272 0.48852 0.53323 0.0
O307 O 0.55011 0.52652 0.55531 0.0
C308 C 0.37813 0.5057 0.49491 0.0
C309 C 0.6421 0.59929 0.51996 0.0
C310 C 0.71603 0.63223 0.51245 0.0
C311 C 0.77346 0.61808 0.51594 0.0
C312 C 0.69984 0.58542 0.52308 0.0
C313 C 0.76525 0.59479 0.52107 0.0
C314 C 0.6502 0.62255 0.51446 0.0
C315 C 0.49541 0.50521 0.42827 0.0
C316 C 0.57309 0.58964 0.52208 0.0
C317 C 0.30186 0.61208 0.61113 0.0
C318 C 0.27275 0.60694 0.57553 0.0
C319 C 0.63989 0.50706 0.4946 0.0
C320 C 0.41917 0.39227 0.42994 0.0
C321 C 0.36868 0.35413 0.43663 0.0
C322 C 0.35247 0.34238 0.3974 0.0
C323 C 0.40252 0.3799 0.39071 0.0
C324 C 0.40275 0.37911 0.45292 0.0
C325 C 0.36958 0.35514 0.37464 0.0
C326 C 0.51544 0.50827 0.5611 0.0
C327 C 0.45234 0.41897 0.44592 0.0
H328 H 0.82485 0.62517 0.51526 0.0
H329 H 0.69411 0.56747 0.52724 0.0
H330 H 0.80974 0.58407 0.52371 0.0
H331 H 0.60517 0.63287 0.51136 0.0
H332 H 0.32693 0.32309 0.38424 0.0
H333 H 0.41451 0.38944 0.37229 0.0
H334 H 0.41529 0.38832 0.48318 0.0
H335 H 0.35701 0.34584 0.34443 0.0
C336 C 0.37088 0.68121 0.02484 0.0
C337 C 0.32195 0.6605 0.01209 0.0
C338 C 0.36026 0.70441 0.0197 0.0
C339 C 0.25717 0.73188 0.96446 0.0
H340 H 0.30052 0.80043 0.04914 0.0
C341 C 0.17419 0.83211 0.96505 0.0
C342 C 0.22335 0.85273 0.97737 0.0
C343 C 0.18501 0.80893 0.97022 0.0
C344 C 0.28868 0.78145 0.02509 0.0
H345 H 0.22506 0.64744 0.98242 0.0
H346 H 0.20585 0.68803 0.97415 0.0
H347 H 0.32484 0.75907 0.0546 0.0
H348 H 0.32088 0.86568 0.00634 0.0
H349 H 0.34032 0.82513 0.01476 0.0
H350 H 0.22091 0.75426 0.93499 0.0
C351 C 0.2526 0.68636 0.98798 0.0
C352 C 0.30282 0.75772 0.02817 0.0
C353 C 0.26321 0.6632 0.99312 0.0
C354 C 0.28254 0.84998 -0.00403 0.0
C355 C 0.2933 0.82685 0.0012 0.0
C356 C 0.24298 0.7556 0.9614 0.0
C357 C 0.30054 0.70741 0.00162 0.0
C358 C 0.2872 0.73263 -0.0021 0.0
C359 C 0.24512 0.80589 0.98795 0.0
C360 C 0.25859 0.78068 0.99167 0.0
H361 H 0.4166 0.67981 0.03968 0.0
H362 H 0.39874 0.72006 0.03003 0.0
H363 H 0.24536 0.71291 0.94039 0.0
H364 H 0.12812 0.83356 0.9505 0.0
H365 H 0.14637 0.79334 0.96019 0.0
C366 C 0.66308 0.32901 0.96183 0.0
C367 C 0.71595 0.33802 0.94576 0.0
C368 C 0.67625 0.30979 0.97547 0.0
C369 C 0.80149 0.25627 0.96351 0.0
H370 H 0.71347 0.25708 0.05344 0.0
C371 C 0.87651 0.18357 0.02946 0.0
C372 C 0.82373 0.17455 0.04555 0.0
C373 C 0.86325 0.20283 0.0159 0.0
C374 C 0.73788 0.25634 0.02794 0.0
H375 H 0.82477 0.33545 0.93403 0.0
H376 H 0.8479 0.30244 0.95825 0.0
H377 H 0.69035 0.29303 0.03486 0.0
H378 H 0.71497 0.17713 0.05745 0.0
H379 H 0.69167 0.21021 0.03337 0.0
H380 H 0.84901 0.21958 0.95658 0.0
C381 C 0.79587 0.30943 0.95921 0.0
C382 C 0.72462 0.27702 0.01733 0.0
C383 C 0.78268 0.32847 0.94549 0.0
C384 C 0.75699 0.18413 0.04597 0.0
C385 C 0.74371 0.2032 0.03232 0.0
C386 C 0.81474 0.23559 0.97412 0.0
C387 C 0.74263 0.2993 0.97349 0.0
C388 C 0.75636 0.27731 0.985 0.0
C389 C 0.79685 0.21333 0.01798 0.0
C390 C 0.78303 0.23531 0.00645 0.0
H391 H 0.61109 0.33593 0.96233 0.0
H392 H 0.63392 0.30241 0.98619 0.0
H393 H 0.82591 0.25553 0.93801 0.0
H394 H 0.9285 0.17662 0.02885 0.0
H395 H 0.90551 0.21021 0.00513 0.0
C396 C 0.28941 0.18347 0.55248 0.0
C397 C 0.22223 0.17402 0.5511 0.0
C398 C 0.304 0.20326 0.54043 0.0
C399 C 0.23695 0.23828 0.48501 0.0
H400 H 0.36191 0.29441 0.54933 0.0
C401 C 0.28126 0.33125 0.45865 0.0
C402 C 0.34931 0.33959 0.45941 0.0
C403 C 0.26411 0.31292 0.47303 0.0
C404 C 0.3274 0.2788 0.53087 0.0
H405 H 0.11805 0.17706 0.53425 0.0
H406 H 0.14337 0.21192 0.51326 0.0
H407 H 0.3353 0.2575 0.56533 0.0
H408 H 0.45237 0.33647 0.47749 0.0
H409 H 0.42277 0.30408 0.50248 0.0
H410 H 0.22937 0.25946 0.4504 0.0
C411 C 0.18493 0.20389 0.5236 0.0
C412 C 0.31218 0.25758 0.53998 0.0
C413 C 0.17035 0.18391 0.53557 0.0
C414 C 0.39942 0.3305 0.47691 0.0
C415 C 0.38235 0.31191 0.49111 0.0
C416 C 0.25221 0.2595 0.47588 0.0
C417 C 0.25174 0.21426 0.52677 0.0
C418 C 0.26699 0.23697 0.51709 0.0
C419 C 0.31479 0.30224 0.48818 0.0
C420 C 0.29767 0.28004 0.49867 0.0
H421 H 0.33073 0.17582 0.56356 0.0
H422 H 0.35632 0.21016 0.54223 0.0
H423 H 0.20267 0.22262 0.46647 0.0
H424 H 0.24167 0.33814 0.44548 0.0
H425 H 0.21131 0.30653 0.47127 0.0
C426 C 0.76647 0.84918 0.49874 0.0
C427 C 0.82263 0.85133 0.47764 0.0
C428 C 0.75637 0.82594 0.50378 0.0
C429 C 0.79736 0.75401 0.45902 0.0
H430 H 0.73518 0.75662 0.5555 0.0
C431 C 0.77842 0.65895 0.48401 0.0
C432 C 0.7251 0.65707 0.50704 0.0
C433 C 0.78933 0.68263 0.48032 0.0
C434 C 0.75154 0.7555 0.52817 0.0
H435 H 0.91329 0.83105 0.44613 0.0
H436 H 0.89595 0.79051 0.45521 0.0
H437 H 0.75894 0.79826 0.55072 0.0
H438 H 0.64041 0.67868 0.54364 0.0
H439 H 0.65788 0.71966 0.53606 0.0
H440 H 0.78913 0.71135 0.43623 0.0
C441 C 0.85929 0.80671 0.46748 0.0
C442 C 0.76546 0.7794 0.52551 0.0
C443 C 0.86959 0.83002 0.4626 0.0
C444 C 0.68175 0.67931 0.52548 0.0
C445 C 0.69237 0.70298 0.52156 0.0
C446 C 0.78306 0.73013 0.46161 0.0
C447 C 0.80206 0.80428 0.4877 0.0
C448 C 0.78867 0.77892 0.49092 0.0
C449 C 0.7468 0.70504 0.49926 0.0
C450 C 0.76017 0.73054 0.49625 0.0
H451 H 0.72998 0.86542 0.51116 0.0
H452 H 0.71163 0.82466 0.51936 0.0
H453 H 0.81397 0.75297 0.43177 0.0
H454 H 0.81205 0.64209 0.46881 0.0
H455 H 0.83213 0.6835 0.46319 0.0
C456 C 0.25396 0.99113 0.00394 0.0
C457 C 0.21784 0.00956 -0.00502 0.0
C458 C 0.32569 0.99114 0.00426 0.0
C459 C 0.47561 0.01155 0.96552 0.0
H460 H 0.5737 0.00662 0.04908 0.0
C461 C 0.77062 0.02247 0.97704 0.0
C462 C 0.8072 0.00855 0.99394 0.0
C463 C 0.6989 0.02306 0.97782 0.0
C464 C 0.54764 0.0075 0.02503 0.0
H465 H 0.22797 0.04166 0.97798 0.0
H466 H 0.353 0.04241 0.97957 0.0
H467 H 0.44935 0.00589 0.04848 0.0
H468 H 0.79658 0.98573 0.02683 0.0
H469 H 0.67282 0.98444 0.02519 0.0
H470 H 0.57312 0.0122 0.94116 0.0
C471 C 0.32618 0.02791 0.98635 0.0
C472 C 0.47595 0.00724 0.02489 0.0
C473 C 0.25453 0.02786 0.98611 0.0
C474 C 0.77026 0.9957 0.01221 0.0
C475 C 0.69869 0.9956 0.01207 0.0
C476 C 0.54729 0.01131 0.96525 0.0
C477 C 0.36271 0.00952 -0.00461 0.0
C478 C 0.43904 0.00941 -0.00474 0.0
C479 C 0.66158 0.00934 -0.00505 0.0
C480 C 0.58468 0.00942 -0.0049 0.0
H481 H 0.22663 0.97684 0.01095 0.0
H482 H 0.35219 0.97652 0.01092 0.0
H483 H 0.44874 0.0129 0.94197 0.0
H484 H 0.79735 0.03296 0.96315 0.0
H485 H 0.67301 0.03455 0.96522 0.0
C486 C 0.27099 0.02158 0.47689 0.0
C487 C 0.23448 0.00776 0.49393 0.0
C488 C 0.34268 0.02224 0.47775 0.0
C489 C 0.49409 0.00702 0.52532 0.0
H490 H 0.59262 0.01211 0.44204 0.0
C491 C 0.78724 0.99001 0.50352 0.0
C492 C 0.82358 0.00847 0.49475 0.0
C493 C 0.71553 0.99021 0.50404 0.0
C494 C 0.56583 0.01085 0.46564 0.0
H495 H 0.2451 0.98519 0.52718 0.0
H496 H 0.36892 0.98399 0.52568 0.0
H497 H 0.46823 0.01135 0.44117 0.0
H498 H 0.81386 0.04096 0.47846 0.0
H499 H 0.68882 0.04191 0.48018 0.0
H500 H 0.5925 1.0055 0.54883 0.0
C501 C 0.343 0.99503 0.51239 0.0
C502 C 0.49416 0.01058 0.46535 0.0
C503 C 0.27143 0.99509 0.51246 0.0
C504 C 0.78713 0.02705 0.48632 0.0
C505 C 0.71549 0.02725 0.48669 0.0
C506 C 0.56576 0.00677 0.52519 0.0
C507 C 0.38005 0.00866 0.4951 0.0
C508 C 0.45692 0.00879 0.49528 0.0
C509 C 0.67878 0.0088 0.49551 0.0
C510 C 0.6025 0.00882 0.49546 0.0
H511 H 0.24424 0.03193 0.46278 0.0
H512 H 0.36851 0.03365 0.46502 0.0
H513 H 0.46814 0.00623 0.54943 0.0
H514 H 0.81436 0.97557 0.5103 0.0
H515 H 0.68883 0.97557 0.51057 0.0
C516 C 0.76938 0.48968 0.0124 0.0
C517 C 0.73293 0.50322 -0.00512 0.0
C518 C 0.8411 0.48912 0.01175 0.0
C519 C 0.99262 0.50424 0.96416 0.0
H520 H 0.09114 0.49985 0.04805 0.0
C521 C 0.28558 0.52202 0.98676 0.0
C522 C 0.32205 0.50341 -0.00485 0.0
C523 C 0.21387 0.52181 0.98634 0.0
C524 C 0.06433 0.50094 0.0243 0.0
H525 H 0.7437 0.5253 0.96096 0.0
H526 H 0.86739 0.52672 0.96286 0.0
H527 H 0.96671 0.50029 0.04854 0.0
H528 H 0.31255 0.47073 0.01103 0.0
H529 H 0.18746 0.46981 0.00955 0.0
H530 H 0.09105 0.50595 0.94091 0.0
C531 C 0.84149 0.51582 0.97635 0.0
C532 C 0.99264 0.50101 0.02436 0.0
C533 C 0.76995 0.51565 0.97605 0.0
C534 C 0.2857 0.48474 0.00342 0.0
C535 C 0.21407 0.48456 0.0032 0.0
C536 C 0.06428 0.50472 0.96454 0.0
C537 C 0.87852 0.5025 0.99414 0.0
C538 C 0.95542 0.50253 0.99419 0.0
C539 C 0.17725 0.50309 0.99463 0.0
C540 C 0.10099 0.50294 0.9945 0.0
H541 H 0.74256 0.47952 0.02673 0.0
H542 H 0.86692 0.47794 0.02487 0.0
H543 H 0.96674 0.50481 0.93985 0.0
H544 H 0.3126 0.53654 0.98009 0.0
H545 H 0.18704 0.53652 0.97998 0.0
C546 C 0.26573 0.48768 0.4628 0.0
C547 C 0.30239 0.5058 0.49487 0.0
C548 C 0.19424 0.488 0.46257 0.0
C549 C 0.04531 0.50925 0.52706 0.0
H550 H 0.94738 0.50195 0.43603 0.0
C551 C 0.75253 0.52183 0.52802 0.0
C552 C 0.71563 0.5066 0.49434 0.0
C553 C 0.82397 0.52192 0.52786 0.0
C554 C 0.97366 0.50357 0.46154 0.0
H555 H 0.2925 0.53816 0.55211 0.0
H556 H 0.16797 0.53916 0.55129 0.0
H557 H 0.07183 0.50174 0.43606 0.0
H558 H 0.72506 0.47987 0.43395 0.0
H559 H 0.84926 0.47798 0.43428 0.0
H560 H 0.9477 0.51047 0.55239 0.0
C561 C 0.19449 0.52454 0.52646 0.0
C562 C 0.04519 0.50357 0.46156 0.0
C563 C 0.26595 0.52416 0.52674 0.0
C564 C 0.75184 0.49126 0.46059 0.0
C565 C 0.82334 0.49069 0.46064 0.0
C566 C 0.97382 0.50895 0.52692 0.0
C567 C 0.15781 0.50642 0.4944 0.0
C568 C 0.0818 0.50648 0.49436 0.0
C569 C 0.86051 0.5062 0.49423 0.0
C570 C 0.93688 0.50618 0.49419 0.0
H571 H 0.29217 0.47326 0.43775 0.0
H572 H 0.16747 0.47356 0.43762 0.0
H573 H 0.07202 0.51113 0.5526 0.0
H574 H 0.72623 0.53396 0.55457 0.0
H575 H 0.85036 0.53464 0.55411 0.0
C576 C 0.95033 0.9987 0.37085 0.0
C577 C 1.01402 1.00076 0.38858 0.0
C578 C 0.94593 1.00038 0.33588 0.0
C579 C 0.04903 0.02322 0.27431 0.0
H580 H 0.91116 0.9851 0.19778 0.0
C581 C 0.06308 1.00479 0.11619 0.0
C582 C 1.00712 0.01415 0.10271 0.0
C583 C 0.06035 1.00436 0.15187 0.0
C584 C 0.94949 0.996 0.21914 0.0
H585 H 0.12321 1.00449 0.38326 0.0
H586 H 0.11652 0.00572 0.32143 0.0
H587 H 0.91414 0.98038 0.25763 0.0
H588 H 0.9041 0.03 0.1155 0.0
H589 H 0.89857 0.02841 0.17788 0.0
H590 H 0.0862 0.03768 0.23476 0.0
C591 C 0.06932 1.00423 0.33496 0.0
C592 C 0.95118 0.99341 0.25351 0.0
C593 C 0.07343 1.00323 0.37021 0.0
C594 C 0.94812 0.02294 0.12548 0.0
C595 C 0.94476 0.02186 0.16088 0.0
C596 C 0.04814 0.02531 0.23973 0.0
C597 C 1.00543 1.00357 0.31771 0.0
C598 C 1.00148 0.0068 0.28146 0.0
C599 C 1.00102 0.01265 0.17435 0.0
C600 C 0.99869 0.01162 0.21179 0.0
H601 H 0.90384 0.99699 0.38483 0.0
H602 H 0.89576 1.00003 0.32382 0.0
H603 H 0.08723 0.03455 0.29543 0.0
H604 H 0.10921 0.99794 0.0992 0.0
H605 H 0.10425 0.99711 0.16168 0.0
C606 C 0.08153 0.98879 0.86472 0.0
C607 C 0.02509 1.00109 0.88828 0.0
C608 C 0.08819 0.98919 0.82898 0.0
C609 C 0.06303 0.98131 0.74583 0.0
H610 H 0.02656 0.04929 0.74288 0.0
C611 C 1.00629 0.9899 0.606 0.0
C612 C 0.03614 0.01114 0.60063 0.0
C613 C 1.01218 0.98859 0.64098 0.0
C614 C 0.03764 0.03025 0.74328 0.0
H615 H 0.92942 0.02191 0.89197 0.0
H616 H 0.94153 0.02291 0.83013 0.0
H617 H 0.02312 0.04647 0.80398 0.0
H618 H 0.09535 0.0478 0.62819 0.0
H619 H 0.10485 0.04564 0.68974 0.0
H620 H 0.0764 0.96499 0.68499 0.0
C621 C 0.98121 0.01342 0.83946 0.0
C622 C 0.03504 0.02857 0.77818 0.0
C623 C 0.97422 0.01277 0.87481 0.0
C624 C 0.07165 0.03119 0.63134 0.0
C625 C 0.07705 0.02998 0.66658 0.0
C626 C 0.06498 0.98292 0.71083 0.0
C627 C 0.03873 1.00204 0.81644 0.0
C628 C 0.04669 1.00401 0.77973 0.0
C629 C 0.04758 0.00857 0.67167 0.0
C630 C 0.05137 0.00734 0.70913 0.0
H631 H 0.12138 0.97955 0.87435 0.0
H632 H 0.13295 0.98018 0.8117 0.0
H633 H 0.07209 0.96213 0.7462 0.0
H634 H 0.97834 0.97411 0.58312 0.0
H635 H 0.98789 0.9721 0.64419 0.0
C636 C 0.5173 0.52775 0.38575 0.0
C637 C 0.48895 0.50619 0.39086 0.0
C638 C 0.51249 0.5287 0.35049 0.0
C639 C 0.49506 0.48537 0.24831 0.0
H640 H 0.45752 0.55201 0.24158 0.0
C641 C 0.56227 0.50028 0.11522 0.0
C642 C 0.51159 0.51133 0.10072 0.0
C643 C 0.55418 0.5002 0.15085 0.0
C644 C 0.46748 0.53323 0.24302 0.0
H645 H 0.43182 0.46899 0.36297 0.0
H646 H 0.42434 0.47053 0.30107 0.0
H647 H 0.44994 0.55046 0.30358 0.0
H648 H 0.41429 0.53215 0.11278 0.0
H649 H 0.40054 0.53239 0.17578 0.0
H650 H 0.51345 0.46822 0.1879 0.0
C651 C 0.45052 0.48661 0.3245 0.0
C652 C 0.46366 0.53238 0.27847 0.0
C653 C 0.45481 0.48576 0.35995 0.0
C654 C 0.45399 0.52341 0.12329 0.0
C655 C 0.44613 0.52353 0.15923 0.0
C656 C 0.49941 0.48628 0.21298 0.0
C657 C 0.47954 0.50807 0.31942 0.0
C658 C 0.47821 0.50851 0.28151 0.0
C659 C 0.49564 0.51148 0.17298 0.0
C660 C 0.48658 0.51029 0.21009 0.0
H661 H 0.54383 0.5439 0.40889 0.0
H662 H 0.53612 0.54531 0.34729 0.0
H663 H 0.50703 0.46676 0.24982 0.0
H664 H 0.60788 0.49132 0.09875 0.0
H665 H 0.59385 0.4913 0.16114 0.0
C666 C 0.57011 0.52256 0.62548 0.0
C667 C 0.51792 0.5086 0.59941 0.0
C668 C 0.57479 0.52155 0.66077 0.0
C669 C 0.54693 0.52791 0.74161 0.0
H670 H 0.51965 0.45956 0.745 0.0
C671 C 0.49943 0.51988 0.88212 0.0
C672 C 0.53245 0.49934 0.88781 0.0
C673 C 0.50237 0.52071 0.84678 0.0
C674 C 0.52809 0.47872 0.74444 0.0
H675 H 0.42914 0.48299 0.59007 0.0
H676 H 0.4373 0.48126 0.65175 0.0
H677 H 0.51526 0.4619 0.68356 0.0
H678 H 0.59435 0.46343 0.86055 0.0
H679 H 0.59912 0.46483 0.79836 0.0
H680 H 0.55979 0.54474 0.80244 0.0
C681 C 0.47499 0.49274 0.64471 0.0
C682 C 0.52477 0.48012 0.70936 0.0
C683 C 0.47007 0.49387 0.60952 0.0
C684 C 0.56828 0.4795 0.85711 0.0
C685 C 0.57086 0.48025 0.8215 0.0
C686 C 0.54994 0.52652 0.77668 0.0
C687 C 0.52768 0.50641 0.67059 0.0
C688 C 0.53349 0.50478 0.70764 0.0
C689 C 0.53814 0.50096 0.81609 0.0
C690 C 0.53981 0.50197 0.77852 0.0
H691 H 0.60845 0.53373 0.61828 0.0
H692 H 0.61631 0.5321 0.67999 0.0
H693 H 0.55357 0.5472 0.74121 0.0
H694 H 0.47112 0.53548 0.90499 0.0
H695 H 0.47565 0.53665 0.84333 0.0
loop_
_geom_bond_atom_site_label_1
_geom_bond_atom_site_label_2
_geom_bond_distance
_geom_bond_site_symmetry_2
_ccdc_geom_bond_type
Eu0 N29 2.600 . S
Eu0 N35 2.562 . S
Eu0 O44 2.462 1_655 S
Eu0 O45 2.373 . S
Eu0 O47 2.432 1_655 S
Eu0 O48 2.291 1_556 S
Eu0 O52 2.335 1_655 S
Eu0 O55 2.372 1_655 S
Eu0 C64 2.787 1_655 S
C1 N2 1.365 . S
C1 C4 1.405 . S
C1 C8 1.448 . S
N2 C1 1.365 . S
N2 C5 1.319 . S
N2 Eu11 2.600 . S
C3 C5 1.397 . S
C3 C6 1.367 . S
C3 H23 0.931 . S
C4 C1 1.405 . S
C4 C6 1.403 . S
C4 C10 1.439 . S
C5 N2 1.319 . S
C5 C3 1.397 . S
C5 H16 0.930 . S
C6 C3 1.367 . S
C6 C4 1.403 . S
C6 H27 0.929 . S
C7 C8 1.430 . S
C7 C9 1.387 . S
C7 C13 1.404 . S
C8 C1 1.448 . S
C8 C7 1.430 . S
C8 N12 1.351 . S
C9 C7 1.387 . S
C9 C10 1.374 . S
C9 H24 0.931 . S
C10 C4 1.439 . S
C10 C9 1.374 . S
C10 H25 0.931 . S
Eu11 N2 2.600 . S
Eu11 N12 2.562 . S
Eu11 O46 2.335 1_455 S
Eu11 O49 2.372 1_455 S
Eu11 O50 2.462 1_455 S
Eu11 O51 2.373 . S
Eu11 O53 2.432 1_455 S
Eu11 O54 2.291 1_554 S
Eu11 C75 2.787 1_455 S
N12 C8 1.351 . S
N12 Eu11 2.562 . S
N12 C14 1.325 1_554 S
C13 C7 1.404 . S
C13 C15 1.366 1_554 S
C13 H21 0.930 1_554 S
C14 N12 1.325 1_556 S
C14 C15 1.416 . S
C14 H20 0.929 . S
C15 C13 1.366 1_556 S
C15 C14 1.416 . S
C15 H17 0.930 . S
H16 C5 0.930 . S
H17 C15 0.930 . S
H18 C33 0.930 . S
H19 C40 0.930 . S
H20 C14 0.929 . S
H21 C13 0.930 1_556 S
H22 C36 0.929 . S
H23 C3 0.931 . S
H24 C9 0.931 . S
H25 C10 0.931 . S
H26 C31 0.931 . S
H27 C6 0.929 . S
H28 C39 0.930 1_554 S
N29 Eu0 2.600 . S
N29 C30 1.365 . S
N29 C33 1.319 . S
C30 N29 1.365 . S
C30 C32 1.405 . S
C30 C38 1.448 . S
C31 H26 0.931 . S
C31 C33 1.397 . S
C31 C34 1.367 . S
C32 C30 1.405 . S
C32 C34 1.403 . S
C32 C65 1.439 . S
C33 H18 0.930 . S
C33 N29 1.319 . S
C33 C31 1.397 . S
C34 C31 1.367 . S
C34 C32 1.403 . S
C34 H41 0.929 . S
N35 Eu0 2.562 . S
N35 C36 1.325 1_556 S
N35 C38 1.351 . S
C36 H22 0.929 . S
C36 N35 1.325 1_554 S
C36 C40 1.416 . S
C37 C38 1.430 . S
C37 C39 1.404 . S
C37 C66 1.387 . S
C38 C30 1.448 . S
C38 N35 1.351 . S
C38 C37 1.430 . S
C39 H28 0.930 1_556 S
C39 C37 1.404 . S
C39 C40 1.366 1_556 S
C40 H19 0.930 . S
C40 C36 1.416 . S
C40 C39 1.366 1_554 S
H41 C34 0.929 . S
H42 C65 0.931 . S
H43 C66 0.931 . S
O44 Eu0 2.462 1_455 S
O44 C64 1.252 . S
O45 Eu0 2.373 . S
O45 C56 1.249 1_565 S
O46 Eu11 2.335 1_655 S
O46 C56 1.264 1_554 S
O47 Eu0 2.432 1_455 S
O47 C64 1.268 . S
O48 Eu0 2.291 1_554 S
O48 C63 1.255 1_565 S
O49 Eu11 2.372 1_655 S
O49 C63 1.257 . S
O50 Eu11 2.462 1_655 S
O50 C75 1.252 . S
O51 Eu11 2.373 . S
O51 C67 1.249 1_545 S
O52 Eu0 2.335 1_455 S
O52 C67 1.264 1_556 S
O53 Eu11 2.432 1_655 S
O53 C75 1.268 . S
O54 Eu11 2.291 1_556 S
O54 C74 1.255 1_545 S
O55 Eu0 2.372 1_455 S
O55 C74 1.257 . S
C56 O45 1.249 1_545 S
C56 O46 1.264 1_556 S
C57 C60 1.382 . S
C57 C62 1.390 . S
C57 C64 1.506 . S
C58 C59 1.398 . S
C58 C62 1.392 . S
C59 C58 1.398 . S
C59 C61 1.372 . S
C59 H76 0.931 . S
C60 C57 1.382 . S
C60 C61 1.390 . S
C60 H77 0.931 . S
C61 C59 1.372 . S
C61 C60 1.390 . S
C61 H78 0.929 . S
C62 C57 1.390 . S
C62 C58 1.392 . S
C62 H79 0.930 1_556 S
C63 O48 1.255 1_545 S
C63 O49 1.257 . S
C64 Eu0 2.787 1_455 S
C64 O44 1.252 . S
C64 O47 1.268 . S
C64 C57 1.506 . S
C65 C32 1.439 . S
C65 H42 0.931 . S
C65 C66 1.374 . S
C66 C37 1.387 . S
C66 H43 0.931 . S
C66 C65 1.374 . S
C67 O51 1.249 1_565 S
C67 O52 1.264 1_554 S
C68 C71 1.382 . S
C68 C72 1.390 . S
C68 C75 1.506 . S
C69 C70 1.398 . S
C69 C72 1.392 . S
C70 C69 1.398 . S
C70 C73 1.372 . S
C70 H80 0.931 . S
C71 C68 1.382 . S
C71 C73 1.390 . S
C71 H81 0.931 . S
C72 C68 1.390 . S
C72 C69 1.392 . S
C72 H82 0.930 1_554 S
C73 C70 1.372 . S
C73 C71 1.390 . S
C73 H83 0.929 . S
C74 O54 1.255 1_565 S
C74 O55 1.257 . S
C75 Eu11 2.787 1_655 S
C75 O50 1.252 . S
C75 O53 1.268 . S
C75 C68 1.506 . S
H76 C59 0.931 . S
H77 C60 0.931 . S
H78 C61 0.929 . S
H79 C62 0.930 1_554 S
H80 C70 0.931 . S
H81 C71 0.931 . S
H82 C72 0.930 1_556 S
H83 C73 0.929 . S
Eu84 N113 2.600 . S
Eu84 N119 2.562 . S
Eu84 O128 2.462 1_655 S
Eu84 O129 2.373 . S
Eu84 O131 2.432 1_655 S
Eu84 O132 2.291 . S
Eu84 O136 2.335 1_655 S
Eu84 O139 2.372 1_655 S
Eu84 C148 2.787 1_655 S
C85 N86 1.365 . S
C85 C88 1.405 . S
C85 C92 1.448 . S
N86 C85 1.365 . S
N86 C89 1.319 . S
N86 Eu95 2.600 . S
C87 C89 1.397 . S
C87 C90 1.367 . S
C87 H107 0.931 . S
C88 C85 1.405 . S
C88 C90 1.403 . S
C88 C94 1.439 . S
C89 N86 1.319 . S
C89 C87 1.397 . S
C89 H100 0.930 . S
C90 C87 1.367 . S
C90 C88 1.403 . S
C90 H111 0.929 . S
C91 C92 1.430 . S
C91 C93 1.387 . S
C91 C97 1.404 . S
C92 C85 1.448 . S
C92 C91 1.430 . S
C92 N96 1.351 . S
C93 C91 1.387 . S
C93 C94 1.374 . S
C93 H108 0.931 . S
C94 C88 1.439 . S
C94 C93 1.374 . S
C94 H109 0.931 . S
Eu95 N86 2.600 . S
Eu95 N96 2.562 . S
Eu95 O130 2.335 1_455 S
Eu95 O133 2.372 1_455 S
Eu95 O134 2.462 1_455 S
Eu95 O135 2.373 . S
Eu95 O137 2.432 1_455 S
Eu95 O138 2.291 . S
Eu95 C159 2.787 1_455 S
N96 C92 1.351 . S
N96 Eu95 2.562 . S
N96 C98 1.325 . S
C97 C91 1.404 . S
C97 C99 1.366 . S
C97 H105 0.930 . S
C98 N96 1.325 . S
C98 C99 1.416 . S
C98 H104 0.929 . S
C99 C97 1.366 . S
C99 C98 1.416 . S
C99 H101 0.930 . S
H100 C89 0.930 . S
H101 C99 0.930 . S
H102 C117 0.930 . S
H103 C124 0.930 . S
H104 C98 0.929 . S
H105 C97 0.930 . S
H106 C120 0.929 . S
H107 C87 0.931 . S
H108 C93 0.931 . S
H109 C94 0.931 . S
H110 C115 0.931 . S
H111 C90 0.929 . S
H112 C123 0.930 . S
N113 Eu84 2.600 . S
N113 C114 1.365 . S
N113 C117 1.319 . S
C114 N113 1.365 . S
C114 C116 1.405 . S
C114 C122 1.448 . S
C115 H110 0.931 . S
C115 C117 1.397 . S
C115 C118 1.367 . S
C116 C114 1.405 . S
C116 C118 1.403 . S
C116 C149 1.439 . S
C117 H102 0.930 . S
C117 N113 1.319 . S
C117 C115 1.397 . S
C118 C115 1.367 . S
C118 C116 1.403 . S
C118 H125 0.929 . S
N119 Eu84 2.562 . S
N119 C120 1.325 . S
N119 C122 1.351 . S
C120 H106 0.929 . S
C120 N119 1.325 . S
C120 C124 1.416 . S
C121 C122 1.430 . S
C121 C123 1.404 . S
C121 C150 1.387 . S
C122 C114 1.448 . S
C122 N119 1.351 . S
C122 C121 1.430 . S
C123 H112 0.930 . S
C123 C121 1.404 . S
C123 C124 1.366 . S
C124 H103 0.930 . S
C124 C120 1.416 . S
C124 C123 1.366 . S
H125 C118 0.929 . S
H126 C149 0.931 . S
H127 C150 0.931 . S
O128 Eu84 2.462 1_455 S
O128 C148 1.252 . S
O129 Eu84 2.373 . S
O129 C140 1.249 1_545 S
O130 Eu95 2.335 1_655 S
O130 C140 1.264 . S
O131 Eu84 2.432 1_455 S
O131 C148 1.268 . S
O132 Eu84 2.291 . S
O132 C147 1.255 1_545 S
O133 Eu95 2.372 1_655 S
O133 C147 1.257 . S
O134 Eu95 2.462 1_655 S
O134 C159 1.252 . S
O135 Eu95 2.373 . S
O135 C151 1.249 1_565 S
O136 Eu84 2.335 1_455 S
O136 C151 1.264 . S
O137 Eu95 2.432 1_655 S
O137 C159 1.268 . S
O138 Eu95 2.291 . S
O138 C158 1.255 1_565 S
O139 Eu84 2.372 1_455 S
O139 C158 1.257 . S
C140 O129 1.249 1_565 S
C140 O130 1.264 . S
C141 C144 1.382 . S
C141 C146 1.390 . S
C141 C148 1.506 . S
C142 C143 1.398 . S
C142 C146 1.392 . S
C143 C142 1.398 . S
C143 C145 1.372 . S
C143 H160 0.931 . S
C144 C141 1.382 . S
C144 C145 1.390 . S
C144 H161 0.931 . S
C145 C143 1.372 . S
C145 C144 1.390 . S
C145 H162 0.929 . S
C146 C141 1.390 . S
C146 C142 1.392 . S
C146 H163 0.930 . S
C147 O132 1.255 1_565 S
C147 O133 1.257 . S
C148 Eu84 2.787 1_455 S
C148 O128 1.252 . S
C148 O131 1.268 . S
C148 C141 1.506 . S
C149 C116 1.439 . S
C149 H126 0.931 . S
C149 C150 1.374 . S
C150 C121 1.387 . S
C150 H127 0.931 . S
C150 C149 1.374 . S
C151 O135 1.249 1_545 S
C151 O136 1.264 . S
C152 C155 1.382 . S
C152 C156 1.390 . S
C152 C159 1.506 . S
C153 C154 1.398 . S
C153 C156 1.392 . S
C154 C153 1.398 . S
C154 C157 1.372 . S
C154 H164 0.931 . S
C155 C152 1.382 . S
C155 C157 1.390 . S
C155 H165 0.931 . S
C156 C152 1.390 . S
C156 C153 1.392 . S
C156 H166 0.930 . S
C157 C154 1.372 . S
C157 C155 1.390 . S
C157 H167 0.929 . S
C158 O138 1.255 1_545 S
C158 O139 1.257 . S
C159 Eu95 2.787 1_655 S
C159 O134 1.252 . S
C159 O137 1.268 . S
C159 C152 1.506 . S
H160 C143 0.931 . S
H161 C144 0.931 . S
H162 C145 0.929 . S
H163 C146 0.930 . S
H164 C154 0.931 . S
H165 C155 0.931 . S
H166 C156 0.930 . S
H167 C157 0.929 . S
Eu168 N197 2.600 . S
Eu168 N203 2.562 . S
Eu168 O212 2.462 . S
Eu168 O213 2.373 . S
Eu168 O215 2.432 . S
Eu168 O216 2.291 1_556 S
Eu168 O220 2.335 . S
Eu168 O223 2.372 . S
Eu168 C232 2.787 . S
C169 N170 1.365 . S
C169 C172 1.405 . S
C169 C176 1.448 . S
N170 C169 1.365 . S
N170 C173 1.319 . S
N170 Eu179 2.600 . S
C171 C173 1.397 . S
C171 C174 1.367 . S
C171 H191 0.931 . S
C172 C169 1.405 . S
C172 C174 1.403 . S
C172 C178 1.439 . S
C173 N170 1.319 . S
C173 C171 1.397 . S
C173 H184 0.930 . S
C174 C171 1.367 . S
C174 C172 1.403 . S
C174 H195 0.929 . S
C175 C176 1.430 . S
C175 C177 1.387 . S
C175 C181 1.404 . S
C176 C169 1.448 . S
C176 C175 1.430 . S
C176 N180 1.351 . S
C177 C175 1.387 . S
C177 C178 1.374 . S
C177 H192 0.931 . S
C178 C172 1.439 . S
C178 C177 1.374 . S
C178 H193 0.931 . S
Eu179 N170 2.600 . S
Eu179 N180 2.562 . S
Eu179 O214 2.335 . S
Eu179 O217 2.372 . S
Eu179 O218 2.462 . S
Eu179 O219 2.373 . S
Eu179 O221 2.432 . S
Eu179 O222 2.291 1_554 S
Eu179 C243 2.787 . S
N180 C176 1.351 . S
N180 Eu179 2.562 . S
N180 C182 1.325 1_554 S
C181 C175 1.404 . S
C181 C183 1.366 1_554 S
C181 H189 0.930 1_554 S
C182 N180 1.325 1_556 S
C182 C183 1.416 . S
C182 H188 0.929 . S
C183 C181 1.366 1_556 S
C183 C182 1.416 . S
C183 H185 0.930 . S
H184 C173 0.930 . S
H185 C183 0.930 . S
H186 C201 0.930 . S
H187 C208 0.930 . S
H188 C182 0.929 . S
H189 C181 0.930 1_556 S
H190 C204 0.929 . S
H191 C171 0.931 . S
H192 C177 0.931 . S
H193 C178 0.931 . S
H194 C199 0.931 . S
H195 C174 0.929 . S
H196 C207 0.930 1_554 S
N197 Eu168 2.600 . S
N197 C198 1.365 . S
N197 C201 1.319 . S
C198 N197 1.365 . S
C198 C200 1.405 . S
C198 C206 1.448 . S
C199 H194 0.931 . S
C199 C201 1.397 . S
C199 C202 1.367 . S
C200 C198 1.405 . S
C200 C202 1.403 . S
C200 C233 1.439 . S
C201 H186 0.930 . S
C201 N197 1.319 . S
C201 C199 1.397 . S
C202 C199 1.367 . S
C202 C200 1.403 . S
C202 H209 0.929 . S
N203 Eu168 2.562 . S
N203 C204 1.325 1_556 S
N203 C206 1.351 . S
C204 H190 0.929 . S
C204 N203 1.325 1_554 S
C204 C208 1.416 . S
C205 C206 1.430 . S
C205 C207 1.404 . S
C205 C234 1.387 . S
C206 C198 1.448 . S
C206 N203 1.351 . S
C206 C205 1.430 . S
C207 H196 0.930 1_556 S
C207 C205 1.404 . S
C207 C208 1.366 1_556 S
C208 H187 0.930 . S
C208 C204 1.416 . S
C208 C207 1.366 1_554 S
H209 C202 0.929 . S
H210 C233 0.931 . S
H211 C234 0.931 . S
O212 Eu168 2.462 . S
O212 C232 1.252 . S
O213 Eu168 2.373 . S
O213 C224 1.249 . S
O214 Eu179 2.335 . S
O214 C224 1.264 1_554 S
O215 Eu168 2.432 . S
O215 C232 1.268 . S
O216 Eu168 2.291 1_554 S
O216 C231 1.255 . S
O217 Eu179 2.372 . S
O217 C231 1.257 . S
O218 Eu179 2.462 . S
O218 C243 1.252 . S
O219 Eu179 2.373 . S
O219 C235 1.249 . S
O220 Eu168 2.335 . S
O220 C235 1.264 1_556 S
O221 Eu179 2.432 . S
O221 C243 1.268 . S
O222 Eu179 2.291 1_556 S
O222 C242 1.255 . S
O223 Eu168 2.372 . S
O223 C242 1.257 . S
C224 O213 1.249 . S
C224 O214 1.264 1_556 S
C225 C228 1.382 . S
C225 C230 1.390 . S
C225 C232 1.506 . S
C226 C227 1.398 . S
C226 C230 1.392 . S
C227 C226 1.398 . S
C227 C229 1.372 . S
C227 H244 0.931 . S
C228 C225 1.382 . S
C228 C229 1.390 . S
C228 H245 0.931 . S
C229 C227 1.372 . S
C229 C228 1.390 . S
C229 H246 0.929 . S
C230 C225 1.390 . S
C230 C226 1.392 . S
C230 H247 0.930 1_556 S
C231 O216 1.255 . S
C231 O217 1.257 . S
C232 Eu168 2.787 . S
C232 O212 1.252 . S
C232 O215 1.268 . S
C232 C225 1.506 . S
C233 C200 1.439 . S
C233 H210 0.931 . S
C233 C234 1.374 . S
C234 C205 1.387 . S
C234 H211 0.931 . S
C234 C233 1.374 . S
C235 O219 1.249 . S
C235 O220 1.264 1_554 S
C236 C239 1.382 . S
C236 C240 1.390 . S
C236 C243 1.506 . S
C237 C238 1.398 . S
C237 C240 1.392 . S
C238 C237 1.398 . S
C238 C241 1.372 . S
C238 H248 0.931 . S
C239 C236 1.382 . S
C239 C241 1.390 . S
C239 H249 0.931 . S
C240 C236 1.390 . S
C240 C237 1.392 . S
C240 H250 0.930 1_554 S
C241 C238 1.372 . S
C241 C239 1.390 . S
C241 H251 0.929 . S
C242 O222 1.255 . S
C242 O223 1.257 . S
C243 Eu179 2.787 . S
C243 O218 1.252 . S
C243 O221 1.268 . S
C243 C236 1.506 . S
H244 C227 0.931 . S
H245 C228 0.931 . S
H246 C229 0.929 . S
H247 C230 0.930 1_554 S
H248 C238 0.931 . S
H249 C239 0.931 . S
H250 C240 0.930 1_556 S
H251 C241 0.929 . S
Eu252 N281 2.600 . S
Eu252 N287 2.562 . S
Eu252 O296 2.462 . S
Eu252 O297 2.373 . S
Eu252 O299 2.432 . S
Eu252 O300 2.291 . S
Eu252 O304 2.335 . S
Eu252 O307 2.372 . S
Eu252 C316 2.787 . S
C253 N254 1.365 . S
C253 C256 1.405 . S
C253 C260 1.448 . S
N254 C253 1.365 . S
N254 C257 1.319 . S
N254 Eu263 2.600 . S
C255 C257 1.397 . S
C255 C258 1.367 . S
C255 H275 0.931 . S
C256 C253 1.405 . S
C256 C258 1.403 . S
C256 C262 1.439 . S
C257 N254 1.319 . S
C257 C255 1.397 . S
C257 H268 0.930 . S
C258 C255 1.367 . S
C258 C256 1.403 . S
C258 H279 0.929 . S
C259 C260 1.430 . S
C259 C261 1.387 . S
C259 C265 1.404 . S
C260 C253 1.448 . S
C260 C259 1.430 . S
C260 N264 1.351 . S
C261 C259 1.387 . S
C261 C262 1.374 . S
C261 H276 0.931 . S
C262 C256 1.439 . S
C262 C261 1.374 . S
C262 H277 0.931 . S
Eu263 N254 2.600 . S
Eu263 N264 2.562 . S
Eu263 O298 2.335 . S
Eu263 O301 2.372 . S
Eu263 O302 2.462 . S
Eu263 O303 2.373 . S
Eu263 O305 2.432 . S
Eu263 O306 2.291 . S
Eu263 C327 2.787 . S
N264 C260 1.351 . S
N264 Eu263 2.562 . S
N264 C266 1.325 . S
C265 C259 1.404 . S
C265 C267 1.366 . S
C265 H273 0.930 . S
C266 N264 1.325 . S
C266 C267 1.416 . S
C266 H272 0.929 . S
C267 C265 1.366 . S
C267 C266 1.416 . S
C267 H269 0.930 . S
H268 C257 0.930 . S
H269 C267 0.930 . S
H270 C285 0.930 . S
H271 C292 0.930 . S
H272 C266 0.929 . S
H273 C265 0.930 . S
H274 C288 0.929 . S
H275 C255 0.931 . S
H276 C261 0.931 . S
H277 C262 0.931 . S
H278 C283 0.931 . S
H279 C258 0.929 . S
H280 C291 0.930 . S
N281 Eu252 2.600 . S
N281 C282 1.365 . S
N281 C285 1.319 . S
C282 N281 1.365 . S
C282 C284 1.405 . S
C282 C290 1.448 . S
C283 H278 0.931 . S
C283 C285 1.397 . S
C283 C286 1.367 . S
C284 C282 1.405 . S
C284 C286 1.403 . S
C284 C317 1.439 . S
C285 H270 0.930 . S
C285 N281 1.319 . S
C285 C283 1.397 . S
C286 C283 1.367 . S
C286 C284 1.403 . S
C286 H293 0.929 . S
N287 Eu252 2.562 . S
N287 C288 1.325 . S
N287 C290 1.351 . S
C288 H274 0.929 . S
C288 N287 1.325 . S
C288 C292 1.416 . S
C289 C290 1.430 . S
C289 C291 1.404 . S
C289 C318 1.387 . S
C290 C282 1.448 . S
C290 N287 1.351 . S
C290 C289 1.430 . S
C291 H280 0.930 . S
C291 C289 1.404 . S
C291 C292 1.366 . S
C292 H271 0.930 . S
C292 C288 1.416 . S
C292 C291 1.366 . S
H293 C286 0.929 . S
H294 C317 0.931 . S
H295 C318 0.931 . S
O296 Eu252 2.462 . S
O296 C316 1.252 . S
O297 Eu252 2.373 . S
O297 C308 1.249 . S
O298 Eu263 2.335 . S
O298 C308 1.264 . S
O299 Eu252 2.432 . S
O299 C316 1.268 . S
O300 Eu252 2.291 . S
O300 C315 1.255 . S
O301 Eu263 2.372 . S
O301 C315 1.257 . S
O302 Eu263 2.462 . S
O302 C327 1.252 . S
O303 Eu263 2.373 . S
O303 C319 1.249 . S
O304 Eu252 2.335 . S
O304 C319 1.264 . S
O305 Eu263 2.432 . S
O305 C327 1.268 . S
O306 Eu263 2.291 . S
O306 C326 1.255 . S
O307 Eu252 2.372 . S
O307 C326 1.257 . S
C308 O297 1.249 . S
C308 O298 1.264 . S
C309 C312 1.382 . S
C309 C314 1.390 . S
C309 C316 1.506 . S
C310 C311 1.398 . S
C310 C314 1.392 . S
C311 C310 1.398 . S
C311 C313 1.372 . S
C311 H328 0.931 . S
C312 C309 1.382 . S
C312 C313 1.390 . S
C312 H329 0.931 . S
C313 C311 1.372 . S
C313 C312 1.390 . S
C313 H330 0.929 . S
C314 C309 1.390 . S
C314 C310 1.392 . S
C314 H331 0.930 . S
C315 O300 1.255 . S
C315 O301 1.257 . S
C316 Eu252 2.787 . S
C316 O296 1.252 . S
C316 O299 1.268 . S
C316 C309 1.506 . S
C317 C284 1.439 . S
C317 H294 0.931 . S
C317 C318 1.374 . S
C318 C289 1.387 . S
C318 H295 0.931 . S
C318 C317 1.374 . S
C319 O303 1.249 . S
C319 O304 1.264 . S
C320 C323 1.382 . S
C320 C324 1.390 . S
C320 C327 1.506 . S
C321 C322 1.398 . S
C321 C324 1.392 . S
C322 C321 1.398 . S
C322 C325 1.372 . S
C322 H332 0.931 . S
C323 C320 1.382 . S
C323 C325 1.390 . S
C323 H333 0.931 . S
C324 C320 1.390 . S
C324 C321 1.392 . S
C324 H334 0.930 . S
C325 C322 1.372 . S
C325 C323 1.390 . S
C325 H335 0.929 . S
C326 O306 1.255 . S
C326 O307 1.257 . S
C327 Eu263 2.787 . S
C327 O302 1.252 . S
C327 O305 1.268 . S
C327 C320 1.506 . S
H328 C311 0.931 . S
H329 C312 0.931 . S
H330 C313 0.929 . S
H331 C314 0.930 . S
H332 C322 0.931 . S
H333 C323 0.931 . S
H334 C324 0.930 . S
H335 C325 0.929 . S
C336 C337 1.349 1_554 S
C336 C338 1.327 . S
C336 H361 0.950 . S
C337 C336 1.349 1_556 S
C337 C353 1.349 . S
C338 C336 1.327 . S
C338 C357 1.420 1_554 S
C338 H362 0.950 . S
C339 C356 1.574 . S
C339 C358 1.366 . S
C339 H363 0.949 . S
H340 C344 0.949 . S
C341 C342 1.349 1_556 S
C341 C343 1.327 . S
C341 H364 0.950 . S
C342 C341 1.349 1_554 S
C342 C354 1.349 . S
C343 C341 1.327 . S
C343 C359 1.402 1_556 S
C343 H365 0.950 . S
C344 H340 0.949 . S
C344 C352 1.574 . S
C344 C360 1.384 . S
H345 C353 0.950 . S
H346 C351 0.950 . S
H347 C352 0.949 . S
H348 C354 0.950 . S
H349 C355 0.950 . S
H350 C356 0.949 . S
C351 H346 0.950 . S
C351 C353 1.327 . S
C351 C357 1.432 . S
C352 C344 1.574 . S
C352 H347 0.949 . S
C352 C358 1.370 1_554 S
C353 C337 1.349 . S
C353 H345 0.950 . S
C353 C351 1.327 . S
C354 C342 1.349 . S
C354 H348 0.950 . S
C354 C355 1.327 . S
C355 H349 0.950 . S
C355 C354 1.327 . S
C355 C359 1.441 . S
C356 C339 1.574 . S
C356 H350 0.949 . S
C356 C360 1.359 1_556 S
C357 C338 1.420 1_556 S
C357 C351 1.432 . S
C357 C358 1.529 . S
C358 C339 1.366 . S
C358 C352 1.370 1_556 S
C358 C357 1.529 . S
C359 C343 1.402 1_554 S
C359 C355 1.441 . S
C359 C360 1.529 . S
C360 C344 1.384 . S
C360 C356 1.359 1_554 S
C360 C359 1.529 . S
H361 C336 0.950 . S
H362 C338 0.950 . S
H363 C339 0.949 . S
H364 C341 0.950 . S
H365 C343 0.950 . S
C366 C367 1.349 . S
C366 C368 1.327 . S
C366 H391 0.950 . S
C367 C366 1.349 . S
C367 C383 1.349 1_554 S
C368 C366 1.327 . S
C368 C387 1.442 . S
C368 H392 0.950 . S
C369 C386 1.574 . S
C369 C388 1.358 1_556 S
C369 H393 0.949 . S
H370 C374 0.949 . S
C371 C372 1.349 . S
C371 C373 1.327 . S
C371 H394 0.950 . S
C372 C371 1.349 . S
C372 C384 1.349 1_556 S
C373 C371 1.327 . S
C373 C389 1.433 . S
C373 H395 0.950 . S
C374 H370 0.949 . S
C374 C382 1.574 . S
C374 C390 1.370 1_554 S
H375 C383 0.950 . S
H376 C381 0.950 . S
H377 C382 0.949 . S
H378 C384 0.950 . S
H379 C385 0.950 . S
H380 C386 0.949 . S
C381 H376 0.950 . S
C381 C383 1.327 . S
C381 C387 1.400 1_556 S
C382 C374 1.574 . S
C382 H377 0.949 . S
C382 C388 1.385 . S
C383 C367 1.349 1_556 S
C383 H375 0.950 . S
C383 C381 1.327 . S
C384 C372 1.349 1_554 S
C384 H378 0.950 . S
C384 C385 1.327 . S
C385 H379 0.950 . S
C385 C384 1.327 . S
C385 C389 1.419 1_554 S
C386 C369 1.574 . S
C386 H380 0.949 . S
C386 C390 1.366 . S
C387 C368 1.442 . S
C387 C381 1.400 1_554 S
C387 C388 1.529 . S
C388 C369 1.358 1_554 S
C388 C382 1.385 . S
C388 C387 1.529 . S
C389 C373 1.433 . S
C389 C385 1.419 1_556 S
C389 C390 1.529 . S
C390 C374 1.370 1_556 S
C390 C386 1.366 . S
C390 C389 1.529 . S
H391 C366 0.950 . S
H392 C368 0.950 . S
H393 C369 0.949 . S
H394 C371 0.950 . S
H395 C373 0.950 . S
C396 C397 1.349 . S
C396 C398 1.327 . S
C396 H421 0.950 . S
C397 C396 1.349 . S
C397 C413 1.349 . S
C398 C396 1.327 . S
C398 C417 1.429 . S
C398 H422 0.950 . S
C399 C416 1.574 . S
C399 C418 1.368 . S
C399 H423 0.949 . S
H400 C404 0.949 . S
C401 C402 1.349 . S
C401 C403 1.327 . S
C401 H424 0.950 . S
C402 C401 1.349 . S
C402 C414 1.349 . S
C403 C401 1.327 . S
C403 C419 1.429 . S
C403 H425 0.950 . S
C404 H400 0.949 . S
C404 C412 1.574 . S
C404 C420 1.368 . S
H405 C413 0.950 . S
H406 C411 0.950 . S
H407 C412 0.949 . S
H408 C414 0.950 . S
H409 C415 0.950 . S
H410 C416 0.949 . S
C411 H406 0.950 . S
C411 C413 1.327 . S
C411 C417 1.429 . S
C412 C404 1.574 . S
C412 H407 0.949 . S
C412 C418 1.368 . S
C413 C397 1.349 . S
C413 H405 0.950 . S
C413 C411 1.327 . S
C414 C402 1.349 . S
C414 H408 0.950 . S
C414 C415 1.327 . S
C415 H409 0.950 . S
C415 C414 1.327 . S
C415 C419 1.429 . S
C416 C399 1.574 . S
C416 H410 0.949 . S
C416 C420 1.368 . S
C417 C398 1.429 . S
C417 C411 1.429 . S
C417 C418 1.523 . S
C418 C399 1.368 . S
C418 C412 1.368 . S
C418 C417 1.523 . S
C419 C403 1.429 . S
C419 C415 1.429 . S
C419 C420 1.523 . S
C420 C404 1.368 . S
C420 C416 1.368 . S
C420 C419 1.523 . S
H421 C396 0.950 . S
H422 C398 0.950 . S
H423 C399 0.949 . S
H424 C401 0.950 . S
H425 C403 0.950 . S
C426 C427 1.349 . S
C426 C428 1.327 . S
C426 H451 0.950 . S
C427 C426 1.349 . S
C427 C443 1.349 . S
C428 C426 1.327 . S
C428 C447 1.429 . S
C428 H452 0.950 . S
C429 C446 1.574 . S
C429 C448 1.368 . S
C429 H453 0.949 . S
H430 C434 0.949 . S
C431 C432 1.349 . S
C431 C433 1.327 . S
C431 H454 0.950 . S
C432 C431 1.349 . S
C432 C444 1.349 . S
C433 C431 1.327 . S
C433 C449 1.429 . S
C433 H455 0.950 . S
C434 H430 0.949 . S
C434 C442 1.574 . S
C434 C450 1.368 . S
H435 C443 0.950 . S
H436 C441 0.950 . S
H437 C442 0.949 . S
H438 C444 0.950 . S
H439 C445 0.950 . S
H440 C446 0.949 . S
C441 H436 0.950 . S
C441 C443 1.327 . S
C441 C447 1.429 . S
C442 C434 1.574 . S
C442 H437 0.949 . S
C442 C448 1.368 . S
C443 C427 1.349 . S
C443 H435 0.950 . S
C443 C441 1.327 . S
C444 C432 1.349 . S
C444 H438 0.950 . S
C444 C445 1.327 . S
C445 H439 0.950 . S
C445 C444 1.327 . S
C445 C449 1.429 . S
C446 C429 1.574 . S
C446 H440 0.949 . S
C446 C450 1.368 . S
C447 C428 1.429 . S
C447 C441 1.429 . S
C447 C448 1.523 . S
C448 C429 1.368 . S
C448 C442 1.368 . S
C448 C447 1.523 . S
C449 C433 1.429 . S
C449 C445 1.429 . S
C449 C450 1.523 . S
C450 C434 1.368 . S
C450 C446 1.368 . S
C450 C449 1.523 . S
H451 C426 0.950 . S
H452 C428 0.950 . S
H453 C429 0.949 . S
H454 C431 0.950 . S
H455 C433 0.950 . S
C456 C457 1.346 . S
C456 C458 1.327 . S
C456 H481 0.950 . S
C457 C456 1.346 . S
C457 C473 1.352 1_564 S
C458 C456 1.327 . S
C458 C477 1.441 . S
C458 H482 0.950 . S
C459 C476 1.574 . S
C459 C478 1.371 1_556 S
C459 H483 0.949 . S
H460 C464 0.949 . S
C461 C462 1.334 1_556 S
C461 C463 1.327 . S
C461 H484 0.950 . S
C462 C461 1.334 1_554 S
C462 C474 1.364 1_545 S
C463 C461 1.327 . S
C463 C479 1.418 1_556 S
C463 H485 0.950 . S
C464 H460 0.949 . S
C464 C472 1.574 . S
C464 C480 1.377 1_565 S
H465 C473 0.950 . S
H466 C471 0.950 . S
H467 C472 0.949 . S
H468 C474 0.950 . S
H469 C475 0.950 . S
H470 C476 0.949 . S
C471 H466 0.950 . S
C471 C473 1.327 . S
C471 C477 1.417 1_546 S
C472 C464 1.574 . S
C472 H467 0.949 . S
C472 C478 1.366 1_565 S
C473 C457 1.352 1_546 S
C473 H465 0.950 . S
C473 C471 1.327 . S
C474 C462 1.364 1_565 S
C474 H468 0.950 . S
C474 C475 1.327 . S
C475 H469 0.950 . S
C475 C474 1.327 . S
C475 C479 1.439 1_565 S
C476 C459 1.574 . S
C476 H470 0.949 . S
C476 C480 1.360 1_556 S
C477 C458 1.441 . S
C477 C471 1.417 1_564 S
C477 C478 1.522 1_565 S
C478 C459 1.371 1_554 S
C478 C472 1.366 1_545 S
C478 C477 1.522 1_545 S
C479 C463 1.418 1_554 S
C479 C475 1.439 1_545 S
C479 C480 1.523 . S
C480 C464 1.377 1_545 S
C480 C476 1.360 1_554 S
C480 C479 1.523 . S
H481 C456 0.950 . S
H482 C458 0.950 . S
H483 C459 0.949 . S
H484 C461 0.950 . S
H485 C463 0.950 . S
C486 C487 1.349 . S
C486 C488 1.327 . S
C486 H511 0.950 . S
C487 C486 1.349 . S
C487 C503 1.349 1_545 S
C488 C486 1.327 . S
C488 C507 1.429 . S
C488 H512 0.950 . S
C489 C506 1.574 . S
C489 C508 1.368 1_565 S
C489 H513 0.949 . S
H490 C494 0.949 . S
C491 C492 1.349 . S
C491 C493 1.327 . S
C491 H514 0.950 . S
C492 C491 1.349 . S
C492 C504 1.349 1_565 S
C493 C491 1.327 . S
C493 C509 1.442 . S
C493 H515 0.950 . S
C494 H490 0.949 . S
C494 C502 1.574 . S
C494 C510 1.378 . S
H495 C503 0.950 . S
H496 C501 0.950 . S
H497 C502 0.949 . S
H498 C504 0.950 . S
H499 C505 0.950 . S
H500 C506 0.949 . S
C501 H496 0.950 . S
C501 C503 1.327 . S
C501 C507 1.429 1_565 S
C502 C494 1.574 . S
C502 H497 0.949 . S
C502 C508 1.368 . S
C503 C487 1.349 1_565 S
C503 H495 0.950 . S
C503 C501 1.327 . S
C504 C492 1.349 1_545 S
C504 H498 0.950 . S
C504 C505 1.327 . S
C505 H499 0.950 . S
C505 C504 1.327 . S
C505 C509 1.416 1_545 S
C506 C489 1.574 . S
C506 H500 0.949 . S
C506 C510 1.359 1_565 S
C507 C488 1.429 . S
C507 C501 1.429 1_545 S
C507 C508 1.523 . S
C508 C489 1.368 1_545 S
C508 C502 1.368 . S
C508 C507 1.523 . S
C509 C493 1.442 . S
C509 C505 1.416 1_565 S
C509 C510 1.522 1_565 S
C510 C494 1.378 . S
C510 C506 1.359 1_545 S
C510 C509 1.522 1_545 S
H511 C486 0.950 . S
H512 C488 0.950 . S
H513 C489 0.949 . S
H514 C491 0.950 . S
H515 C493 0.950 . S
C516 C517 1.347 . S
C516 C518 1.327 . S
C516 H541 0.950 . S
C517 C516 1.347 . S
C517 C533 1.351 1_554 S
C518 C516 1.327 . S
C518 C537 1.430 . S
C518 H542 0.950 . S
C519 C536 1.574 1_655 S
C519 C538 1.365 1_556 S
C519 H543 0.949 . S
H520 C524 0.949 . S
C521 C522 1.338 1_556 S
C521 C523 1.327 . S
C521 H544 0.950 . S
C522 C521 1.338 1_554 S
C522 C534 1.360 . S
C523 C521 1.327 . S
C523 C539 1.421 1_556 S
C523 H545 0.950 . S
C524 H520 0.949 . S
C524 C532 1.574 1_455 S
C524 C540 1.375 . S
H525 C533 0.950 . S
H526 C531 0.950 . S
H527 C532 0.949 . S
H528 C534 0.950 . S
H529 C535 0.950 . S
H530 C536 0.949 . S
C531 H526 0.950 . S
C531 C533 1.327 . S
C531 C537 1.427 1_556 S
C532 C524 1.574 1_655 S
C532 H527 0.949 . S
C532 C538 1.372 . S
C533 C517 1.351 1_556 S
C533 H525 0.950 . S
C533 C531 1.327 . S
C534 C522 1.360 . S
C534 H528 0.950 . S
C534 C535 1.327 . S
C535 H529 0.950 . S
C535 C534 1.327 . S
C535 C539 1.436 . S
C536 C519 1.574 1_455 S
C536 H530 0.949 . S
C536 C540 1.362 1_556 S
C537 C518 1.430 . S
C537 C531 1.427 1_554 S
C537 C538 1.523 . S
C538 C519 1.365 1_554 S
C538 C532 1.372 . S
C538 C537 1.523 . S
C539 C523 1.421 1_554 S
C539 C535 1.436 . S
C539 C540 1.523 . S
C540 C524 1.375 . S
C540 C536 1.362 1_554 S
C540 C539 1.523 . S
H541 C516 0.950 . S
H542 C518 0.950 . S
H543 C519 0.949 . S
H544 C521 0.950 . S
H545 C523 0.950 . S
C546 C547 1.349 . S
C546 C548 1.327 . S
C546 H571 0.950 . S
C547 C546 1.349 . S
C547 C563 1.349 . S
C548 C546 1.327 . S
C548 C567 1.429 . S
C548 H572 0.950 . S
C549 C566 1.574 1_455 S
C549 C568 1.368 . S
C549 H573 0.949 . S
H550 C554 0.949 . S
C551 C552 1.349 . S
C551 C553 1.327 . S
C551 H574 0.950 . S
C552 C551 1.349 . S
C552 C564 1.349 . S
C553 C551 1.327 . S
C553 C569 1.429 . S
C553 H575 0.950 . S
C554 H550 0.949 . S
C554 C562 1.574 1_655 S
C554 C570 1.368 . S
H555 C563 0.950 . S
H556 C561 0.950 . S
H557 C562 0.949 . S
H558 C564 0.950 . S
H559 C565 0.950 . S
H560 C566 0.949 . S
C561 H556 0.950 . S
C561 C563 1.327 . S
C561 C567 1.429 . S
C562 C554 1.574 1_455 S
C562 H557 0.949 . S
C562 C568 1.368 . S
C563 C547 1.349 . S
C563 H555 0.950 . S
C563 C561 1.327 . S
C564 C552 1.349 . S
C564 H558 0.950 . S
C564 C565 1.327 . S
C565 H559 0.950 . S
C565 C564 1.327 . S
C565 C569 1.429 . S
C566 C549 1.574 1_655 S
C566 H560 0.949 . S
C566 C570 1.368 . S
C567 C548 1.429 . S
C567 C561 1.429 . S
C567 C568 1.523 . S
C568 C549 1.368 . S
C568 C562 1.368 . S
C568 C567 1.523 . S
C569 C553 1.429 . S
C569 C565 1.429 . S
C569 C570 1.523 . S
C570 C554 1.368 . S
C570 C566 1.368 . S
C570 C569 1.523 . S
H571 C546 0.950 . S
H572 C548 0.950 . S
H573 C549 0.949 . S
H574 C551 0.950 . S
H575 C553 0.950 . S
C576 C577 1.349 1_565 S
C576 C578 1.327 . S
C576 H601 0.950 . S
C577 C576 1.349 1_545 S
C577 C593 1.349 1_655 S
C578 C576 1.327 . S
C578 C597 1.429 1_565 S
C578 H602 0.950 . S
C579 C596 1.574 . S
C579 C598 1.368 1_455 S
C579 H603 0.949 . S
H580 C584 0.949 . S
C581 C582 1.363 1_455 S
C581 C583 1.327 . S
C581 H604 0.950 . S
C582 C581 1.363 1_655 S
C582 C594 1.321 1_545 S
C583 C581 1.327 . S
C583 C599 1.465 1_455 S
C583 H605 0.950 . S
C584 H580 0.949 . S
C584 C592 1.574 . S
C584 C600 1.328 1_565 S
H585 C593 0.950 . S
H586 C591 0.950 . S
H587 C592 0.949 . S
H588 C594 0.950 . S
H589 C595 0.950 . S
H590 C596 0.949 . S
C591 H586 0.950 . S
C591 C593 1.327 . S
C591 C597 1.428 1_455 S
C592 C584 1.574 . S
C592 H587 0.949 . S
C592 C598 1.368 1_565 S
C593 C577 1.349 1_455 S
C593 H585 0.950 . S
C593 C591 1.327 . S
C594 C582 1.321 1_565 S
C594 H588 0.950 . S
C594 C595 1.327 . S
C595 H589 0.950 . S
C595 C594 1.327 . S
C595 C599 1.413 1_565 S
C596 C579 1.574 . S
C596 H590 0.949 . S
C596 C600 1.393 1_455 S
C597 C578 1.429 1_545 S
C597 C591 1.428 1_655 S
C597 C598 1.523 . S
C598 C579 1.368 1_655 S
C598 C592 1.368 1_545 S
C598 C597 1.523 . S
C599 C583 1.465 1_655 S
C599 C595 1.413 1_545 S
C599 C600 1.525 . S
C600 C584 1.328 1_545 S
C600 C596 1.393 1_655 S
C600 C599 1.525 . S
H601 C576 0.950 . S
H602 C578 0.950 . S
H603 C579 0.949 . S
H604 C581 0.950 . S
H605 C583 0.950 . S
C606 C607 1.351 . S
C606 C608 1.327 . S
C606 H631 0.950 . S
C607 C606 1.351 . S
C607 C623 1.347 1_445 S
C608 C606 1.327 . S
C608 C627 1.431 . S
C608 H632 0.950 . S
C609 C626 1.574 . S
C609 C628 1.366 1_665 S
C609 H633 0.949 . S
H610 C614 0.949 . S
C611 C612 1.318 1_665 S
C611 C613 1.327 . S
C611 H634 0.950 . S
C612 C611 1.318 1_445 S
C612 C624 1.365 . S
C613 C611 1.327 . S
C613 C629 1.411 1_665 S
C613 H635 0.950 . S
C614 H610 0.949 . S
C614 C622 1.574 . S
C614 C630 1.395 . S
H615 C623 0.950 . S
H616 C621 0.950 . S
H617 C622 0.949 . S
H618 C624 0.950 . S
H619 C625 0.950 . S
H620 C626 0.949 . S
C621 H616 0.950 . S
C621 C623 1.327 . S
C621 C627 1.426 1_665 S
C622 C614 1.574 . S
C622 H617 0.949 . S
C622 C628 1.371 . S
C623 C607 1.347 1_665 S
C623 H615 0.950 . S
C623 C621 1.327 . S
C624 C612 1.365 . S
C624 H618 0.950 . S
C624 C625 1.327 . S
C625 H619 0.950 . S
C625 C624 1.327 . S
C625 C629 1.467 . S
C626 C609 1.574 . S
C626 H620 0.949 . S
C626 C630 1.326 1_665 S
C627 C608 1.431 . S
C627 C621 1.426 1_445 S
C627 C628 1.523 . S
C628 C609 1.366 1_445 S
C628 C622 1.371 . S
C628 C627 1.523 . S
C629 C613 1.411 1_445 S
C629 C625 1.467 . S
C629 C630 1.525 . S
C630 C614 1.395 . S
C630 C626 1.326 1_445 S
C630 C629 1.525 . S
H631 C606 0.950 . S
H632 C608 0.950 . S
H633 C609 0.949 . S
H634 C611 0.950 . S
H635 C613 0.950 . S
C636 C637 1.349 . S
C636 C638 1.327 . S
C636 H661 0.950 . S
C637 C636 1.349 . S
C637 C653 1.349 . S
C638 C636 1.327 . S
C638 C657 1.429 . S
C638 H662 0.950 . S
C639 C656 1.574 . S
C639 C658 1.368 . S
C639 H663 0.949 . S
H640 C644 0.949 . S
C641 C642 1.349 . S
C641 C643 1.327 . S
C641 H664 0.950 . S
C642 C641 1.349 . S
C642 C654 1.349 . S
C643 C641 1.327 . S
C643 C659 1.429 . S
C643 H665 0.950 . S
C644 H640 0.949 . S
C644 C652 1.574 . S
C644 C660 1.368 . S
H645 C653 0.950 . S
H646 C651 0.950 . S
H647 C652 0.949 . S
H648 C654 0.950 . S
H649 C655 0.950 . S
H650 C656 0.949 . S
C651 H646 0.950 . S
C651 C653 1.327 . S
C651 C657 1.429 . S
C652 C644 1.574 . S
C652 H647 0.949 . S
C652 C658 1.368 . S
C653 C637 1.349 . S
C653 H645 0.950 . S
C653 C651 1.327 . S
C654 C642 1.349 . S
C654 H648 0.950 . S
C654 C655 1.327 . S
C655 H649 0.950 . S
C655 C654 1.327 . S
C655 C659 1.429 . S
C656 C639 1.574 . S
C656 H650 0.949 . S
C656 C660 1.368 . S
C657 C638 1.429 . S
C657 C651 1.429 . S
C657 C658 1.523 . S
C658 C639 1.368 . S
C658 C652 1.368 . S
C658 C657 1.523 . S
C659 C643 1.429 . S
C659 C655 1.429 . S
C659 C660 1.523 . S
C660 C644 1.368 . S
C660 C656 1.368 . S
C660 C659 1.523 . S
H661 C636 0.950 . S
H662 C638 0.950 . S
H663 C639 0.949 . S
H664 C641 0.950 . S
H665 C643 0.950 . S
C666 C667 1.349 . S
C666 C668 1.327 . S
C666 H691 0.950 . S
C667 C666 1.349 . S
C667 C683 1.349 . S
C668 C666 1.327 . S
C668 C687 1.429 . S
C668 H692 0.950 . S
C669 C686 1.574 . S
C669 C688 1.368 . S
C669 H693 0.949 . S
H670 C674 0.949 . S
C671 C672 1.349 . S
C671 C673 1.327 . S
C671 H694 0.950 . S
C672 C671 1.349 . S
C672 C684 1.349 . S
C673 C671 1.327 . S
C673 C689 1.429 . S
C673 H695 0.950 . S
C674 H670 0.949 . S
C674 C682 1.574 . S
C674 C690 1.368 . S
H675 C683 0.950 . S
H676 C681 0.950 . S
H677 C682 0.949 . S
H678 C684 0.950 . S
H679 C685 0.950 . S
H680 C686 0.949 . S
C681 H676 0.950 . S
C681 C683 1.327 . S
C681 C687 1.429 . S
C682 C674 1.574 . S
C682 H677 0.949 . S
C682 C688 1.368 . S
C683 C667 1.349 . S
C683 H675 0.950 . S
C683 C681 1.327 . S
C684 C672 1.349 . S
C684 H678 0.950 . S
C684 C685 1.327 . S
C685 H679 0.950 . S
C685 C684 1.327 . S
C685 C689 1.429 . S
C686 C669 1.574 . S
C686 H680 0.949 . S
C686 C690 1.368 . S
C687 C668 1.429 . S
C687 C681 1.429 . S
C687 C688 1.523 . S
C688 C669 1.368 . S
C688 C682 1.368 . S
C688 C687 1.523 . S
C689 C673 1.429 . S
C689 C685 1.429 . S
C689 C690 1.523 . S
C690 C674 1.368 . S
C690 C686 1.368 . S
C690 C689 1.523 . S
H691 C666 0.950 . S
H692 C668 0.950 . S
H693 C669 0.949 . S
H694 C671 0.950 . S
H695 C673 0.950 . S
C337 C237 1.383 1_556 S
C342 C58 1.383 1_554 S
C367 C226 1.383 1_554 S
C372 C69 1.383 1_556 S
C397 C142 1.383 . S
C402 C321 1.383 . S
C427 C153 1.383 . S
C432 C310 1.383 . S
C457 C67 1.931 . S
C462 C56 1.930 1_554 S
C487 C151 1.931 . S
C492 C140 1.931 . S
C517 C235 1.931 . S
C522 C224 1.930 1_554 S
C547 C308 1.931 . S
C552 C319 1.931 . S
C577 C147 1.480 1_545 S
C582 C63 1.498 . S
C607 C74 1.481 1_545 S
C612 C158 1.499 . S
C637 C315 1.481 . S
C642 C231 1.481 . S
C667 C326 1.480 . S
C672 C242 1.480 . S
