# Generated by pormake.
# Topology wlr, (5)-cn, num edge types: 1
# Building blocks:
#     Node 0, Type 0, BuildingBlock: XOMCOT_clean_sbu_0, # of connection points: 5
#     Node 1, Type 0, BuildingBlock: XOMCOT_clean_sbu_0, # of connection points: 5
#     Node 2, Type 0, BuildingBlock: XOMCOT_clean_sbu_0, # of connection points: 5
#     Node 3, Type 0, BuildingBlock: XOMCOT_clean_sbu_0, # of connection points: 5
#     Node 4, Type 0, BuildingBlock: XOMCOT_clean_sbu_0, # of connection points: 5
#     Node 5, Type 0, BuildingBlock: XOMCOT_clean_sbu_0, # of connection points: 5
#     Node 6, Type 0, BuildingBlock: XOMCOT_clean_sbu_0, # of connection points: 5
#     Node 7, Type 0, BuildingBlock: XOMCOT_clean_sbu_0, # of connection points: 5
#     Node 8, Type 0, BuildingBlock: XOMCOT_clean_sbu_0, # of connection points: 5
#     Node 9, Type 0, BuildingBlock: XOMCOT_clean_sbu_0, # of connection points: 5
#     Node 10, Type 0, BuildingBlock: XOMCOT_clean_sbu_0, # of connection points: 5
#     Node 11, Type 0, BuildingBlock: XOMCOT_clean_sbu_0, # of connection points: 5
#     Node 12, Type 0, BuildingBlock: XOMCOT_clean_sbu_0, # of connection points: 5
#     Node 13, Type 0, BuildingBlock: XOMCOT_clean_sbu_0, # of connection points: 5
#     Node 14, Type 0, BuildingBlock: XOMCOT_clean_sbu_0, # of connection points: 5
#     Node 15, Type 0, BuildingBlock: XOMCOT_clean_sbu_0, # of connection points: 5
#     Node 16, Type 0, BuildingBlock: XOMCOT_clean_sbu_0, # of connection points: 5
#     Node 17, Type 0, BuildingBlock: XOMCOT_clean_sbu_0, # of connection points: 5
#     Node 18, Type 0, BuildingBlock: XOMCOT_clean_sbu_0, # of connection points: 5
#     Node 19, Type 0, BuildingBlock: XOMCOT_clean_sbu_0, # of connection points: 5
#     Node 20, Type 0, BuildingBlock: XOMCOT_clean_sbu_0, # of connection points: 5
#     Node 21, Type 0, BuildingBlock: XOMCOT_clean_sbu_0, # of connection points: 5
#     Node 22, Type 0, BuildingBlock: XOMCOT_clean_sbu_0, # of connection points: 5
#     Node 23, Type 0, BuildingBlock: XOMCOT_clean_sbu_0, # of connection points: 5
#     Node 24, Type 0, BuildingBlock: XOMCOT_clean_sbu_0, # of connection points: 5
#     Node 25, Type 0, BuildingBlock: XOMCOT_clean_sbu_0, # of connection points: 5
#     Node 26, Type 0, BuildingBlock: XOMCOT_clean_sbu_0, # of connection points: 5
#     Node 27, Type 0, BuildingBlock: XOMCOT_clean_sbu_0, # of connection points: 5
#     Node 28, Type 0, BuildingBlock: XOMCOT_clean_sbu_0, # of connection points: 5
#     Node 29, Type 0, BuildingBlock: XOMCOT_clean_sbu_0, # of connection points: 5
#     Node 30, Type 0, BuildingBlock: XOMCOT_clean_sbu_0, # of connection points: 5
#     Node 31, Type 0, BuildingBlock: XOMCOT_clean_sbu_0, # of connection points: 5
#     Node 32, Type 0, BuildingBlock: XOMCOT_clean_sbu_0, # of connection points: 5
#     Node 33, Type 0, BuildingBlock: XOMCOT_clean_sbu_0, # of connection points: 5
#     Node 34, Type 0, BuildingBlock: XOMCOT_clean_sbu_0, # of connection points: 5
#     Node 35, Type 0, BuildingBlock: XOMCOT_clean_sbu_0, # of connection points: 5
#     Edge 36, Type (0, 0), BuildingBlock: AJUNOK_clean_linker_0, # of connection points: 2
#     Edge 37, Type (0, 0), BuildingBlock: AJUNOK_clean_linker_0, # of connection points: 2
#     Edge 38, Type (0, 0), BuildingBlock: AJUNOK_clean_linker_0, # of connection points: 2
#     Edge 39, Type (0, 0), BuildingBlock: AJUNOK_clean_linker_0, # of connection points: 2
#     Edge 40, Type (0, 0), BuildingBlock: AJUNOK_clean_linker_0, # of connection points: 2
#     Edge 41, Type (0, 0), BuildingBlock: AJUNOK_clean_linker_0, # of connection points: 2
#     Edge 42, Type (0, 0), BuildingBlock: AJUNOK_clean_linker_0, # of connection points: 2
#     Edge 43, Type (0, 0), BuildingBlock: AJUNOK_clean_linker_0, # of connection points: 2
#     Edge 44, Type (0, 0), BuildingBlock: AJUNOK_clean_linker_0, # of connection points: 2
#     Edge 45, Type (0, 0), BuildingBlock: AJUNOK_clean_linker_0, # of connection points: 2
#     Edge 46, Type (0, 0), BuildingBlock: AJUNOK_clean_linker_0, # of connection points: 2
#     Edge 47, Type (0, 0), BuildingBlock: AJUNOK_clean_linker_0, # of connection points: 2
#     Edge 48, Type (0, 0), BuildingBlock: AJUNOK_clean_linker_0, # of connection points: 2
#     Edge 49, Type (0, 0), BuildingBlock: AJUNOK_clean_linker_0, # of connection points: 2
#     Edge 50, Type (0, 0), BuildingBlock: AJUNOK_clean_linker_0, # of connection points: 2
#     Edge 51, Type (0, 0), BuildingBlock: AJUNOK_clean_linker_0, # of connection points: 2
#     Edge 52, Type (0, 0), BuildingBlock: AJUNOK_clean_linker_0, # of connection points: 2
#     Edge 53, Type (0, 0), BuildingBlock: AJUNOK_clean_linker_0, # of connection points: 2
#     Edge 54, Type (0, 0), BuildingBlock: AJUNOK_clean_linker_0, # of connection points: 2
#     Edge 55, Type (0, 0), BuildingBlock: AJUNOK_clean_linker_0, # of connection points: 2
#     Edge 56, Type (0, 0), BuildingBlock: AJUNOK_clean_linker_0, # of connection points: 2
#     Edge 57, Type (0, 0), BuildingBlock: AJUNOK_clean_linker_0, # of connection points: 2
#     Edge 58, Type (0, 0), BuildingBlock: AJUNOK_clean_linker_0, # of connection points: 2
#     Edge 59, Type (0, 0), BuildingBlock: AJUNOK_clean_linker_0, # of connection points: 2
#     Edge 60, Type (0, 0), BuildingBlock: AJUNOK_clean_linker_0, # of connection points: 2
#     Edge 61, Type (0, 0), BuildingBlock: AJUNOK_clean_linker_0, # of connection points: 2
#     Edge 62, Type (0, 0), BuildingBlock: AJUNOK_clean_linker_0, # of connection points: 2
#     Edge 63, Type (0, 0), BuildingBlock: AJUNOK_clean_linker_0, # of connection points: 2
#     Edge 64, Type (0, 0), BuildingBlock: AJUNOK_clean_linker_0, # of connection points: 2
#     Edge 65, Type (0, 0), BuildingBlock: AJUNOK_clean_linker_0, # of connection points: 2
#     Edge 66, Type (0, 0), BuildingBlock: AJUNOK_clean_linker_0, # of connection points: 2
#     Edge 67, Type (0, 0), BuildingBlock: AJUNOK_clean_linker_0, # of connection points: 2
#     Edge 68, Type (0, 0), BuildingBlock: AJUNOK_clean_linker_0, # of connection points: 2
#     Edge 69, Type (0, 0), BuildingBlock: AJUNOK_clean_linker_0, # of connection points: 2
#     Edge 70, Type (0, 0), BuildingBlock: AJUNOK_clean_linker_0, # of connection points: 2
#     Edge 71, Type (0, 0), BuildingBlock: AJUNOK_clean_linker_0, # of connection points: 2
#     Edge 72, Type (0, 0), BuildingBlock: AJUNOK_clean_linker_0, # of connection points: 2
#     Edge 73, Type (0, 0), BuildingBlock: AJUNOK_clean_linker_0, # of connection points: 2
#     Edge 74, Type (0, 0), BuildingBlock: AJUNOK_clean_linker_0, # of connection points: 2
#     Edge 75, Type (0, 0), BuildingBlock: AJUNOK_clean_linker_0, # of connection points: 2
#     Edge 76, Type (0, 0), BuildingBlock: AJUNOK_clean_linker_0, # of connection points: 2
#     Edge 77, Type (0, 0), BuildingBlock: AJUNOK_clean_linker_0, # of connection points: 2
#     Edge 78, Type (0, 0), BuildingBlock: AJUNOK_clean_linker_0, # of connection points: 2
#     Edge 79, Type (0, 0), BuildingBlock: AJUNOK_clean_linker_0, # of connection points: 2
#     Edge 80, Type (0, 0), BuildingBlock: AJUNOK_clean_linker_0, # of connection points: 2
#     Edge 81, Type (0, 0), BuildingBlock: AJUNOK_clean_linker_0, # of connection points: 2
#     Edge 82, Type (0, 0), BuildingBlock: AJUNOK_clean_linker_0, # of connection points: 2
#     Edge 83, Type (0, 0), BuildingBlock: AJUNOK_clean_linker_0, # of connection points: 2
#     Edge 84, Type (0, 0), BuildingBlock: AJUNOK_clean_linker_0, # of connection points: 2
#     Edge 85, Type (0, 0), BuildingBlock: AJUNOK_clean_linker_0, # of connection points: 2
#     Edge 86, Type (0, 0), BuildingBlock: AJUNOK_clean_linker_0, # of connection points: 2
#     Edge 87, Type (0, 0), BuildingBlock: AJUNOK_clean_linker_0, # of connection points: 2
#     Edge 88, Type (0, 0), BuildingBlock: AJUNOK_clean_linker_0, # of connection points: 2
#     Edge 89, Type (0, 0), BuildingBlock: AJUNOK_clean_linker_0, # of connection points: 2
#     Edge 90, Type (0, 0), BuildingBlock: AJUNOK_clean_linker_0, # of connection points: 2
#     Edge 91, Type (0, 0), BuildingBlock: AJUNOK_clean_linker_0, # of connection points: 2
#     Edge 92, Type (0, 0), BuildingBlock: AJUNOK_clean_linker_0, # of connection points: 2
#     Edge 93, Type (0, 0), BuildingBlock: AJUNOK_clean_linker_0, # of connection points: 2
#     Edge 94, Type (0, 0), BuildingBlock: AJUNOK_clean_linker_0, # of connection points: 2
#     Edge 95, Type (0, 0), BuildingBlock: AJUNOK_clean_linker_0, # of connection points: 2
#     Edge 96, Type (0, 0), BuildingBlock: AJUNOK_clean_linker_0, # of connection points: 2
#     Edge 97, Type (0, 0), BuildingBlock: AJUNOK_clean_linker_0, # of connection points: 2
#     Edge 98, Type (0, 0), BuildingBlock: AJUNOK_clean_linker_0, # of connection points: 2
#     Edge 99, Type (0, 0), BuildingBlock: AJUNOK_clean_linker_0, # of connection points: 2
#     Edge 100, Type (0, 0), BuildingBlock: AJUNOK_clean_linker_0, # of connection points: 2
#     Edge 101, Type (0, 0), BuildingBlock: AJUNOK_clean_linker_0, # of connection points: 2
#     Edge 102, Type (0, 0), BuildingBlock: AJUNOK_clean_linker_0, # of connection points: 2
#     Edge 103, Type (0, 0), BuildingBlock: AJUNOK_clean_linker_0, # of connection points: 2
#     Edge 104, Type (0, 0), BuildingBlock: AJUNOK_clean_linker_0, # of connection points: 2
#     Edge 105, Type (0, 0), BuildingBlock: AJUNOK_clean_linker_0, # of connection points: 2
#     Edge 106, Type (0, 0), BuildingBlock: AJUNOK_clean_linker_0, # of connection points: 2
#     Edge 107, Type (0, 0), BuildingBlock: AJUNOK_clean_linker_0, # of connection points: 2
#     Edge 108, Type (0, 0), BuildingBlock: AJUNOK_clean_linker_0, # of connection points: 2
#     Edge 109, Type (0, 0), BuildingBlock: AJUNOK_clean_linker_0, # of connection points: 2
#     Edge 110, Type (0, 0), BuildingBlock: AJUNOK_clean_linker_0, # of connection points: 2
#     Edge 111, Type (0, 0), BuildingBlock: AJUNOK_clean_linker_0, # of connection points: 2
#     Edge 112, Type (0, 0), BuildingBlock: AJUNOK_clean_linker_0, # of connection points: 2
#     Edge 113, Type (0, 0), BuildingBlock: AJUNOK_clean_linker_0, # of connection points: 2
#     Edge 114, Type (0, 0), BuildingBlock: AJUNOK_clean_linker_0, # of connection points: 2
#     Edge 115, Type (0, 0), BuildingBlock: AJUNOK_clean_linker_0, # of connection points: 2
#     Edge 116, Type (0, 0), BuildingBlock: AJUNOK_clean_linker_0, # of connection points: 2
#     Edge 117, Type (0, 0), BuildingBlock: AJUNOK_clean_linker_0, # of connection points: 2
#     Edge 118, Type (0, 0), BuildingBlock: AJUNOK_clean_linker_0, # of connection points: 2
#     Edge 119, Type (0, 0), BuildingBlock: AJUNOK_clean_linker_0, # of connection points: 2
#     Edge 120, Type (0, 0), BuildingBlock: AJUNOK_clean_linker_0, # of connection points: 2
#     Edge 121, Type (0, 0), BuildingBlock: AJUNOK_clean_linker_0, # of connection points: 2
#     Edge 122, Type (0, 0), BuildingBlock: AJUNOK_clean_linker_0, # of connection points: 2
#     Edge 123, Type (0, 0), BuildingBlock: AJUNOK_clean_linker_0, # of connection points: 2
#     Edge 124, Type (0, 0), BuildingBlock: AJUNOK_clean_linker_0, # of connection points: 2
#     Edge 125, Type (0, 0), BuildingBlock: AJUNOK_clean_linker_0, # of connection points: 2
# Relax obj value: 0.223
# Max RMSD: 0.169
# Mean RMSD: 0.169
data_MOF--net-wlr--node1-XOMCOT_clean_sbu_0--edge1-AJUNOK_clean_linker_0
_symmetry_space_group_name_H-M    P1
_symmetry_Int_Tables_number       1
_symmetry_cell_setting            triclinic
loop_
_symmetry_equiv_pos_as_xyz
'x, y, z'
_cell_length_a     60.877735
_cell_length_b     60.965297
_cell_length_c     24.383476
_cell_angle_alpha  90.234992
_cell_angle_beta   89.866357
_cell_angle_gamma 119.94828
loop_
_atom_site_label
_atom_site_type_symbol
_atom_site_fract_x
_atom_site_fract_y
_atom_site_fract_z
_atom_type_partial_charge
Co0 Co 0.26556 0.2079 0.08593 0.0
C1 C 0.22414 0.21373 0.03644 0.0
C2 C 0.25991 0.23907 0.9999 0.0
C3 C 0.24196 0.24398 0.97867 0.0
N4 N 0.24875 0.21949 0.03501 0.0
N5 N 0.21944 0.22858 1.00283 0.0
H6 H 0.21032 0.20025 0.06463 0.0
H7 H 0.27999 0.25044 0.99241 0.0
C8 C 0.30106 0.22277 0.9879 0.0
O9 O 0.28103 0.20836 0.95778 0.0
N10 N 0.28109 0.19617 0.13821 0.0
C11 C 0.26807 0.17681 0.1732 0.0
C12 C 0.28469 0.17132 0.19903 0.0
C13 C 0.30552 0.2023 0.14325 0.0
N14 N 0.30813 0.18726 0.18001 0.0
C15 C 0.22753 0.15817 0.04803 0.0
C16 C 0.26169 0.14249 0.02049 0.0
C17 C 0.2359 0.12444 0.02208 0.0
C18 C 0.21863 0.13254 0.03548 0.0
C19 C 0.26978 0.16757 0.0345 0.0
N20 N 0.25291 0.17538 0.04807 0.0
H21 H 0.21413 0.16374 0.0615 0.0
H22 H 0.28991 0.18023 0.03836 0.0
H23 H 0.24767 0.16638 0.17752 0.0
H24 H 0.32072 0.21609 0.11795 0.0
O25 O 0.23827 0.19872 0.13809 0.0
O26 O 0.27289 0.23623 0.13444 0.0
O27 O 0.29826 0.22464 0.03972 0.0
C28 C 0.25159 0.22123 0.15921 0.0
H29 H 0.24583 0.25843 0.94865 0.0
H30 H 0.27981 0.15606 0.22772 0.0
H31 H 0.27574 0.13694 1.01229 0.0
H32 H 0.19853 0.11903 0.03819 0.0
Co33 Co 0.82026 0.06392 0.08542 0.0
C34 C 0.81613 0.01757 0.03691 0.0
C35 C 0.78748 0.02454 1.00502 0.0
C36 C 0.78334 1.00162 0.98526 0.0
N37 N 0.80851 0.03497 0.03634 0.0
N38 N 0.80121 0.99697 1.00582 0.0
H39 H 0.83072 0.01886 0.06393 0.0
H40 H 0.77485 0.03201 0.99979 0.0
C41 C 0.80328 0.08214 0.98594 0.0
O42 O 0.81593 0.07486 0.95413 0.0
N43 N 0.83258 0.09195 0.13596 0.0
C44 C 0.85125 0.09788 0.1729 0.0
C45 C 0.85846 0.12124 0.19469 0.0
C46 C 0.82869 0.11178 0.13574 0.0
N47 N 0.84452 0.13 0.17069 0.0
C48 C 0.87075 0.07591 0.0542 0.0
C49 C 0.88519 0.12383 1.01554 0.0
C50 C 0.90388 0.11743 0.02512 0.0
C51 C 0.89649 0.09301 0.04383 0.0
C52 C 0.85999 0.10661 0.02801 0.0
N53 N 0.85279 0.08289 0.04734 0.0
H54 H 0.86573 0.05791 0.07236 0.0
H55 H 0.84692 0.11363 0.02704 0.0
H56 H 0.86035 0.08687 0.18086 0.0
H57 H 0.81565 0.11354 0.10871 0.0
O58 O 0.82898 0.04623 0.13952 0.0
O59 O 0.79182 0.04419 0.13398 0.0
O60 O 0.8034 0.07922 0.03811 0.0
C61 C 0.80652 0.03805 0.16032 0.0
H62 H 0.76745 0.9888 0.96003 0.0
H63 H 0.874 0.13178 0.22289 0.0
H64 H 0.8903 0.14282 1.00294 0.0
H65 H 0.91056 0.08763 0.05288 0.0
Co66 Co 0.96598 0.76342 0.0846 0.0
C67 C 1.01421 0.80296 0.03719 0.0
C68 C 1.00792 0.76569 0.02106 0.0
C69 C 0.03255 0.78295 1.00739 0.0
N70 N 0.9962 0.77817 0.03919 0.0
N71 N 0.03661 0.80635 1.01848 0.0
H72 H 1.0119 0.81804 0.05443 0.0
H73 H 0.9999 0.74538 0.02232 0.0
C74 C 0.95028 0.72751 0.9865 0.0
O75 O 0.96106 0.74732 0.9541 0.0
N76 N 0.93675 0.7499 0.1317 0.0
C77 C 0.93092 0.76393 0.16527 0.0
C78 C 0.90756 0.74865 0.18795 0.0
C79 C 0.91683 0.72627 0.13415 0.0
N80 N 0.8987 0.72513 0.16786 0.0
C81 C 0.95619 0.80305 0.05251 0.0
C82 C 0.90939 0.77094 1.0063 0.0
C83 C 0.91507 0.79532 0.02118 0.0
C84 C 0.93906 0.81178 0.0432 0.0
C85 C 0.92651 0.7627 1.01808 0.0
N86 N 0.94953 0.77843 0.04202 0.0
H87 H 0.97361 0.81539 0.07378 0.0
H88 H 0.91945 0.74274 1.01391 0.0
H89 H 0.94247 0.78413 0.17157 0.0
H90 H 0.91504 0.71051 0.11022 0.0
O91 O 0.98409 0.79 0.13892 0.0
O92 O 0.98308 0.75333 0.13691 0.0
O93 O 0.95005 0.73085 0.03852 0.0
C94 C 0.99052 0.77478 0.16184 0.0
H95 H 0.04676 0.7785 0.99331 0.0
H96 H 0.89774 0.75442 0.2165 0.0
H97 H 0.89076 0.75746 0.99074 0.0
H98 H 0.94394 0.8307 0.05611 0.0
Co99 Co 0.21334 0.26015 0.44995 0.0
C100 C 0.21891 0.21857 0.4958 0.0
C101 C 0.25245 0.25451 0.50758 0.0
C102 C 0.2579 0.23571 0.52005 0.0
N103 N 0.22784 0.24382 0.49314 0.0
N104 N 0.23684 0.21306 0.51213 0.0
H105 H 0.20065 0.20458 0.48004 0.0
H106 H 0.26607 0.2745 0.50476 0.0
C107 C 0.23547 0.29456 0.55013 0.0
O108 O 0.22891 0.27427 0.57974 0.0
N109 N 0.19833 0.27495 0.40464 0.0
C110 C 0.17866 0.26161 0.37032 0.0
C111 C 0.17101 0.27741 0.34892 0.0
C112 C 0.20234 0.29875 0.40397 0.0
N113 N 0.18569 0.30059 0.37057 0.0
C114 C 0.16307 0.22155 0.47974 0.0
C115 C 0.15042 0.25386 0.53283 0.0
C116 C 0.13096 0.23039 0.51491 0.0
C117 C 0.13747 0.21378 0.48954 0.0
C118 C 0.17558 0.26122 0.52065 0.0
N119 N 0.18189 0.24549 0.49303 0.0
H120 H 0.16728 0.2092 0.45584 0.0
H121 H 0.18917 0.28076 0.52796 0.0
H122 H 0.16982 0.24151 0.36248 0.0
H123 H 0.21636 0.31412 0.42872 0.0
O124 O 0.20381 0.23381 0.395 0.0
O125 O 0.24027 0.26954 0.39573 0.0
O126 O 0.23043 0.29227 0.49845 0.0
C127 C 0.2254 0.24815 0.37114 0.0
H128 H 0.27637 0.23854 0.53083 0.0
H129 H 0.1557 0.27221 0.32003 0.0
H130 H 0.14609 0.26746 0.55132 0.0
H131 H 0.12286 0.19555 0.47444 0.0
Co132 Co 0.76962 0.95857 0.44255 0.0
C133 C 0.81487 1.00525 0.48436 0.0
C134 C 0.7848 0.99011 0.5435 0.0
C135 C 0.80439 0.01248 0.56355 0.0
N136 N 0.79129 0.98545 0.4937 0.0
N137 N 0.82328 0.02211 0.52624 0.0
H138 H 0.8251 1.00814 0.44637 0.0
H139 H 0.76682 0.97858 0.56366 0.0
C140 C 0.72955 0.92663 0.53197 0.0
O141 O 0.7384 0.91113 0.53789 0.0
N142 N 0.74788 0.93204 0.39054 0.0
C143 C 0.74854 0.93287 0.33499 0.0
C144 C 0.73283 0.90911 0.31438 0.0
C145 C 0.73146 0.90758 0.40231 0.0
N146 N 0.72237 0.8932 0.35681 0.0
C147 C 0.78949 0.92558 0.4287 0.0
C148 C 0.7949 0.91697 0.53752 0.0
C149 C 0.79848 0.90267 0.49691 0.0
C150 C 0.79677 0.90794 0.44196 0.0
C151 C 0.78826 0.93511 0.52214 0.0
N152 N 0.78324 0.93738 0.46846 0.0
H153 H 0.78802 0.92909 0.38589 0.0
H154 H 0.78517 0.94571 0.5538 0.0
H155 H 0.76041 0.94906 0.30996 0.0
H156 H 0.72665 0.9002 0.44308 0.0
O157 O 0.79428 0.9753 0.38519 0.0
O158 O 0.76274 0.98234 0.40347 0.0
O159 O 0.73962 0.94499 0.49729 0.0
C160 C 0.78234 0.98733 0.37296 0.0
H161 H 0.80438 0.02138 0.60204 0.0
H162 H 0.73011 0.90376 0.27148 0.0
H163 H 0.79658 0.91371 0.58054 0.0
H164 H 0.79987 0.89764 0.40939 0.0
Co165 Co 0.06867 0.81262 0.44785 0.0
C166 C 0.02465 0.81199 0.50042 0.0
C167 C 0.02707 0.77921 0.5216 0.0
C168 C 1.00408 0.77577 0.5395 0.0
N169 N 0.04027 0.80217 0.49787 0.0
N170 N 1.00243 0.79624 0.52539 0.0
H171 H 0.02848 0.82933 0.48056 0.0
H172 H 0.03267 0.76495 0.52152 0.0
C173 C 0.08435 0.79321 0.54668 0.0
O174 O 0.0765 0.80545 0.57826 0.0
N175 N 0.09617 0.82354 0.39588 0.0
C176 C 0.10193 0.84169 0.3579 0.0
C177 C 0.12441 0.84746 0.3334 0.0
C178 C 0.1154 0.8186 0.39414 0.0
N179 N 0.13285 0.83302 0.35626 0.0
C180 C 0.08464 0.86443 0.47625 0.0
C181 C 0.13175 0.87545 0.5146 0.0
C182 C 0.12784 0.8955 0.50124 0.0
C183 C 0.10356 0.8898 0.48423 0.0
C184 C 0.11268 0.85059 0.50521 0.0
N185 N 0.08945 0.84508 0.48525 0.0
H186 H 0.06708 0.8607 0.45758 0.0
H187 H 0.11804 0.83632 0.50843 0.0
H188 H 0.09135 0.85128 0.35045 0.0
H189 H 0.11762 0.80625 0.42238 0.0
O190 O 0.05108 0.82218 0.39486 0.0
O191 O 0.04743 0.78438 0.40041 0.0
O192 O 0.08298 0.79458 0.49432 0.0
C193 C 0.04161 0.79943 0.37474 0.0
H194 H 0.98883 0.7586 0.55705 0.0
H195 H 0.13441 0.86199 0.30292 0.0
H196 H 0.15016 0.87898 0.52832 0.0
H197 H 0.0998 0.9048 0.47311 0.0
Co198 Co 0.77221 0.8158 0.95404 0.0
C199 C 0.81646 0.81649 1.00424 0.0
C200 C 0.78203 0.78306 0.02676 0.0
C201 C 0.80225 0.78049 0.04362 0.0
N202 N 0.7909 0.8059 1.00296 0.0
N203 N 0.82383 0.80144 0.02891 0.0
H204 H 0.82939 0.83369 0.98293 0.0
H205 H 0.76236 0.76829 0.02724 0.0
C206 C 0.73709 0.79489 0.0537 0.0
O207 O 0.75694 0.80599 0.08613 0.0
N208 N 0.75504 0.82649 0.90312 0.0
C209 C 0.7667 0.84311 0.86192 0.0
C210 C 0.74996 0.84906 0.83849 0.0
C211 C 0.73132 0.82291 0.90466 0.0
N212 N 0.72774 0.83632 0.86517 0.0
C213 C 0.80751 0.86816 0.97599 0.0
C214 C 0.77305 0.87829 0.02713 0.0
C215 C 0.79557 0.89871 1.00738 0.0
C216 C 0.81337 0.89339 0.98313 0.0
C217 C 0.76747 0.85356 1.0169 0.0
N218 N 0.78436 0.84846 0.99085 0.0
H219 H 0.82068 0.86466 0.95327 0.0
H220 H 0.74835 0.83906 0.02503 0.0
H221 H 0.78652 0.85167 0.85126 0.0
H222 H 0.71732 0.81172 0.93514 0.0
O223 O 0.79883 0.82498 0.89962 0.0
O224 O 0.7647 0.78727 0.90709 0.0
O225 O 0.74019 0.79774 1.00154 0.0
C226 C 0.78532 0.80212 0.88032 0.0
H227 H 0.80117 0.76356 0.06036 0.0
H228 H 0.75432 0.86297 0.80666 0.0
H229 H 0.75873 0.88129 0.0466 0.0
H230 H 0.83082 0.90833 0.96587 0.0
Co231 Co 0.21681 0.95964 0.94723 0.0
C232 C 0.21412 1.00558 0.97801 0.0
C233 C 0.22451 0.99095 0.04685 0.0
C234 C 0.22522 0.01308 0.06251 0.0
N235 N 0.21758 0.98619 0.99367 0.0
N236 N 0.21898 0.0224 0.01895 0.0
H237 H 0.20864 1.00778 0.9372 0.0
H238 H 0.22957 0.9797 0.07234 0.0
C239 C 0.2292 0.92876 0.02669 0.0
O240 O 0.20815 0.90848 1.01204 0.0
N241 N 0.2166 0.93361 0.89962 0.0
C242 C 0.23388 0.93733 0.86046 0.0
C243 C 0.22702 0.91483 0.83453 0.0
C244 C 0.19969 0.90854 0.89709 0.0
N245 N 0.2055 0.89671 0.85763 0.0
C246 C 0.16362 0.927 0.9352 0.0
C247 C 0.15221 0.90994 0.04182 0.0
C248 C 0.13335 0.89859 1.00138 0.0
C249 C 0.13908 0.90812 0.94807 0.0
C250 C 0.17663 0.92923 0.02722 0.0
N251 N 0.18254 0.9361 0.97355 0.0
H252 H 0.16779 0.93284 0.89295 0.0
H253 H 0.19098 0.93766 0.05862 0.0
H254 H 0.25074 0.95503 0.8512 0.0
H255 H 0.18418 0.89872 0.92532 0.0
O256 O 0.2068 0.97215 0.88523 0.0
O257 O 0.24658 0.98539 0.90771 0.0
O258 O 0.23495 0.95052 1.00669 0.0
C259 C 0.2306 0.98631 0.87344 0.0
H260 H 0.2311 0.02229 0.10211 0.0
H261 H 0.23744 0.91197 0.80191 0.0
H262 H 0.14826 0.90362 0.08399 0.0
H263 H 0.12507 0.90006 0.91568 0.0
Co264 Co 0.06757 0.25777 0.95091 0.0
C265 C 0.02393 0.21443 1.00259 0.0
C266 C 0.02448 0.24913 0.02079 0.0
C267 C 1.00175 0.22923 0.03856 0.0
N268 N 0.03865 0.23989 0.99914 0.0
N269 N 1.00146 0.20749 0.02682 0.0
H270 H 0.02841 0.2012 0.983 0.0
H271 H 0.0293 0.26875 0.01923 0.0
C272 C 0.08118 0.29364 0.04988 0.0
O273 O 0.07147 0.27406 0.08297 0.0
N274 N 0.09595 0.27429 0.90105 0.0
C275 C 0.10042 0.26285 0.8583 0.0
C276 C 0.12465 0.27804 0.83997 0.0
C277 C 0.11775 0.29632 0.90819 0.0
N278 N 0.13561 0.29889 0.8717 0.0
C279 C 0.08447 0.2223 0.9723 0.0
C280 C 0.12796 0.25601 0.02754 0.0
C281 C 0.1268 0.23445 1.00433 0.0
C282 C 0.1041 0.21671 0.97906 0.0
C283 C 0.10858 0.26135 1.01797 0.0
N284 N 0.08731 0.24504 0.98907 0.0
H285 H 0.06818 0.20937 0.94839 0.0
H286 H 0.11272 0.28005 0.02876 0.0
H287 H 0.08772 0.24399 0.84324 0.0
H288 H 0.12082 0.30971 0.94049 0.0
O289 O 0.05008 0.23104 0.89653 0.0
O290 O 0.04727 0.26563 0.9024 0.0
O291 O 0.08163 0.29008 0.99795 0.0
C292 C 0.0413 0.24481 0.87608 0.0
H293 H 0.98571 0.2305 0.05388 0.0
H294 H 0.13399 0.27344 0.80778 0.0
H295 H 0.14484 0.26995 0.04883 0.0
H296 H 0.10225 0.19964 0.96087 0.0
Co297 Co 0.82235 0.76315 0.59119 0.0
C298 C 0.8182 0.80485 0.54029 0.0
C299 C 0.78551 0.76862 0.5248 0.0
C300 C 0.78007 0.7871 0.5096 0.0
N301 N 0.80955 0.77967 0.54362 0.0
N302 N 0.8006 0.80984 0.51959 0.0
H303 H 0.83574 0.81919 0.55831 0.0
H304 H 0.77199 0.74859 0.52699 0.0
C305 C 0.80237 0.72795 0.49265 0.0
O306 O 0.81365 0.74795 0.46091 0.0
N307 N 0.83517 0.74763 0.64057 0.0
C308 C 0.85417 0.76028 0.67682 0.0
C309 C 0.86004 0.74357 0.70082 0.0
C310 C 0.82982 0.72342 0.64267 0.0
N311 N 0.84475 0.72052 0.6792 0.0
C312 C 0.87293 0.80056 0.55827 0.0
C313 C 0.88566 0.76572 0.51914 0.0
C314 C 0.905 0.79039 0.52962 0.0
C315 C 0.89848 0.8082 0.54789 0.0
C316 C 0.86058 0.75882 0.5305 0.0
N317 N 0.85426 0.77595 0.55079 0.0
H318 H 0.86866 0.81393 0.57754 0.0
H319 H 0.84691 0.73893 0.52873 0.0
H320 H 0.8641 0.78053 0.68336 0.0
H321 H 0.81622 0.70847 0.61652 0.0
O322 O 0.83197 0.79017 0.64477 0.0
O323 O 0.79475 0.75506 0.64129 0.0
O324 O 0.80454 0.73081 0.54491 0.0
C325 C 0.80969 0.77615 0.66659 0.0
H326 H 0.76187 0.78408 0.4958 0.0
H327 H 0.87548 0.74827 0.72907 0.0
H328 H 0.8901 0.75131 0.50646 0.0
H329 H 0.91309 0.82735 0.55768 0.0
Co330 Co 0.2637 0.06267 0.58676 0.0
C331 C 0.22278 0.01289 0.54597 0.0
C332 C 0.25104 0.03222 0.48421 0.0
C333 C 0.23266 1.00929 0.46326 0.0
N334 N 0.24493 0.0345 0.5363 0.0
N335 N 0.21502 0.99706 0.50237 0.0
H336 H 0.21261 1.0084 0.58443 0.0
H337 H 0.2676 0.04616 0.4624 0.0
C338 C 0.30794 0.09907 0.51048 0.0
O339 O 0.3034 0.11771 0.51934 0.0
N340 N 0.28159 0.09028 0.63911 0.0
C341 C 0.27115 0.09444 0.68434 0.0
C342 C 0.28858 0.11642 0.70924 0.0
C343 C 0.3059 0.10928 0.63951 0.0
N344 N 0.3102 0.12576 0.68056 0.0
C345 C 0.23343 0.08638 0.5877 0.0
C346 C 0.24643 0.10842 0.48558 0.0
C347 C 0.23505 0.11719 0.5234 0.0
C348 C 0.22735 0.10487 0.57394 0.0
C349 C 0.252 0.08953 0.50123 0.0
N350 N 0.24799 0.08087 0.55398 0.0
H351 H 0.22752 0.07755 0.62717 0.0
H352 H 0.26121 0.08339 0.47211 0.0
H353 H 0.25199 0.08262 0.69871 0.0
H354 H 0.32026 0.11151 0.61058 0.0
O355 O 0.23878 0.04462 0.64317 0.0
O356 O 0.27353 0.04234 0.63071 0.0
O357 O 0.29436 0.07753 0.53402 0.0
C358 C 0.25341 0.03619 0.66017 0.0
H359 H 0.23226 1.00238 0.42213 0.0
H360 H 0.2855 0.12526 0.74478 0.0
H361 H 0.25189 0.11678 0.44521 0.0
H362 H 0.21815 0.11053 0.60435 0.0
Co363 Co 0.96637 0.20743 0.58561 0.0
C364 C 1.0117 0.20929 0.53766 0.0
C365 C 1.00767 0.24027 0.50917 0.0
C366 C 0.03092 0.24391 0.49218 0.0
N367 N 0.99531 0.21823 0.53686 0.0
N368 N 0.03342 0.22451 0.51071 0.0
H369 H 1.00895 0.19324 0.56156 0.0
H370 H 1.00137 0.25393 0.50567 0.0
C371 C 0.94979 0.22641 0.48643 0.0
O372 O 0.95722 0.21406 0.45408 0.0
N373 N 0.93836 0.19599 0.63613 0.0
C374 C 0.93193 0.17716 0.67271 0.0
C375 C 0.90918 0.17119 0.69608 0.0
C376 C 0.91932 0.20118 0.6376 0.0
N377 N 0.9013 0.18622 0.67387 0.0
C378 C 0.95212 0.15631 0.55443 0.0
C379 C 0.90459 0.14402 0.51642 0.0
C380 C 0.90956 0.12438 0.527 0.0
C381 C 0.93401 0.13082 0.54448 0.0
C382 C 0.92292 0.16901 0.52765 0.0
N383 N 0.94636 0.17511 0.54722 0.0
H384 H 0.96982 0.16046 0.57301 0.0
H385 H 0.9169 0.18284 0.52593 0.0
H386 H 0.94227 0.16728 0.67979 0.0
H387 H 0.91767 0.21415 0.61017 0.0
O388 O 0.98351 0.19788 0.63988 0.0
O389 O 0.98687 0.23554 0.63411 0.0
O390 O 0.95203 0.22537 0.53865 0.0
C391 C 0.99247 0.22049 0.66049 0.0
H392 H 0.04574 0.26061 0.47222 0.0
H393 H 0.89865 0.1562 0.72531 0.0
H394 H 0.88595 0.13998 0.50323 0.0
H395 H 0.93855 0.11625 0.55454 0.0
Co396 Co 0.93075 0.5401 0.41948 0.0
C397 C 0.88804 0.5438 0.37164 0.0
C398 C 0.92356 0.57228 0.33911 0.0
C399 C 0.90477 0.57644 0.31986 0.0
N400 N 0.91309 0.55133 0.37045 0.0
N401 N 0.88231 0.55874 0.34092 0.0
H402 H 0.87478 0.52933 0.39888 0.0
H403 H 0.94364 0.58499 0.33372 0.0
C404 C 0.96558 0.55723 0.32014 0.0
O405 O 0.94539 0.54356 0.28986 0.0
N406 N 0.947 0.52849 0.47004 0.0
C407 C 0.93441 0.5091 0.50525 0.0
C408 C 0.9513 0.50357 0.52946 0.0
C409 C 0.97145 0.53453 0.47322 0.0
N410 N 0.97447 0.51946 0.50914 0.0
C411 C 0.8935 0.48978 0.38482 0.0
C412 C 0.92858 0.476 0.35268 0.0
C413 C 0.90341 0.45713 0.35998 0.0
C414 C 0.88556 0.46415 0.37502 0.0
C415 C 0.93581 0.50111 0.36411 0.0
N416 N 0.91851 0.50793 0.38066 0.0
H417 H 0.87988 0.49457 0.40059 0.0
H418 H 0.95583 0.5145 0.36488 0.0
H419 H 0.91408 0.49864 0.51079 0.0
H420 H 0.98633 0.54827 0.44721 0.0
O421 O 0.90374 0.53008 0.47271 0.0
O422 O 0.93792 0.56795 0.46912 0.0
O423 O 0.96309 0.55777 0.37244 0.0
C424 C 0.91696 0.55246 0.49443 0.0
H425 H 0.90783 0.59231 0.29479 0.0
H426 H 0.94677 0.4883 0.55791 0.0
H427 H 0.94297 0.47112 0.3426 0.0
H428 H 0.86597 0.44988 0.38213 0.0
Co429 Co 0.48754 0.39436 0.42359 0.0
C430 C 0.48733 0.35045 0.37216 0.0
C431 C 0.45647 0.35457 0.34286 0.0
C432 C 0.45348 0.33195 0.32357 0.0
N433 N 0.47807 0.36653 0.37243 0.0
N434 N 0.47284 0.32939 0.34241 0.0
H435 H 0.50297 0.35281 0.39721 0.0
H436 H 0.44256 0.36057 0.33964 0.0
C437 C 0.46978 0.41177 0.32464 0.0
O438 O 0.48371 0.40594 0.29322 0.0
N439 N 0.49739 0.42132 0.47639 0.0
C440 C 0.51615 0.42813 0.51351 0.0
C441 C 0.52162 0.45083 0.53654 0.0
C442 C 0.49161 0.43991 0.47755 0.0
N443 N 0.50647 0.45834 0.51327 0.0
C444 C 0.53919 0.41023 0.3915 0.0
C445 C 0.55067 0.45853 0.36164 0.0
C446 C 0.57044 0.45342 0.36806 0.0
C447 C 0.56455 0.42875 0.38147 0.0
C448 C 0.52582 0.43966 0.37174 0.0
N449 N 0.52012 0.41584 0.38741 0.0
H450 H 0.53534 0.39215 0.40708 0.0
H451 H 0.51166 0.44529 0.37208 0.0
H452 H 0.52658 0.41834 0.5205 0.0
H453 H 0.478 0.44077 0.45067 0.0
O454 O 0.49733 0.37708 0.47683 0.0
O455 O 0.45907 0.37242 0.46955 0.0
O456 O 0.46949 0.40843 0.37669 0.0
C457 C 0.47432 0.36704 0.49593 0.0
H458 H 0.43709 0.31744 0.30199 0.0
H459 H 0.53694 0.46195 0.56482 0.0
H460 H 0.55456 0.47751 0.3523 0.0
H461 H 0.5795 0.42432 0.38789 0.0
Co462 Co 0.63189 0.09646 0.42028 0.0
C463 C 0.67726 0.13976 0.37195 0.0
C464 C 0.67274 0.1046 0.34258 0.0
C465 C 0.69583 0.12397 0.3247 0.0
N466 N 0.66073 0.11451 0.37127 0.0
N467 N 0.69866 0.14599 0.34371 0.0
H468 H 0.67481 0.15322 0.39633 0.0
H469 H 0.66631 0.08463 0.33877 0.0
C470 C 0.61509 0.06146 0.3202 0.0
O471 O 0.62234 0.08137 0.28875 0.0
N472 N 0.60394 0.07986 0.47098 0.0
C473 C 0.59762 0.09221 0.50833 0.0
C474 C 0.57463 0.07558 0.53085 0.0
C475 C 0.5846 0.05579 0.47126 0.0
N476 N 0.56642 0.05287 0.50706 0.0
C477 C 0.6177 0.13346 0.39097 0.0
C478 C 0.56989 0.09845 0.35366 0.0
C479 C 0.57521 0.12308 0.36462 0.0
C480 C 0.5996 0.14095 0.38219 0.0
C481 C 0.58821 0.09166 0.36381 0.0
N482 N 0.61181 0.10889 0.38297 0.0
H483 H 0.63554 0.14692 0.40921 0.0
H484 H 0.58211 0.0718 0.36174 0.0
H485 H 0.60821 0.11231 0.51659 0.0
H486 H 0.58289 0.04118 0.4435 0.0
O487 O 0.64918 0.12309 0.47473 0.0
O488 O 0.65256 0.08878 0.46793 0.0
O489 O 0.61747 0.06442 0.37248 0.0
C490 C 0.65831 0.1095 0.49454 0.0
H491 H 0.71035 0.12187 0.30361 0.0
H492 H 0.56428 0.08001 0.56089 0.0
H493 H 0.55097 0.084 0.34164 0.0
H494 H 0.60411 0.16007 0.39233 0.0
Co495 Co 0.88066 0.59148 0.78491 0.0
C496 C 0.88137 0.54785 0.83547 0.0
C497 C 0.9132 0.58297 0.86127 0.0
C498 C 0.91619 0.56345 0.8808 0.0
N499 N 0.891 0.57323 0.83395 0.0
N500 N 0.89621 0.54142 0.86425 0.0
H501 H 0.86499 0.53437 0.81243 0.0
H502 H 0.9273 0.60284 0.86319 0.0
C503 C 0.89919 0.62586 0.88495 0.0
O504 O 0.88597 0.60554 0.91495 0.0
N505 N 0.86992 0.6085 0.73437 0.0
C506 C 0.85129 0.59665 0.69688 0.0
C507 C 0.84517 0.61367 0.67571 0.0
C508 C 0.87488 0.63261 0.73552 0.0
N509 N 0.85976 0.63608 0.70057 0.0
C510 C 0.82904 0.55577 0.81465 0.0
C511 C 0.81775 0.59201 0.85092 0.0
C512 C 0.79776 0.56795 0.83773 0.0
C513 C 0.8036 0.5493 0.82194 0.0
C514 C 0.84268 0.59782 0.842 0.0
N515 N 0.84833 0.58005 0.82286 0.0
H516 H 0.83288 0.5418 0.797 0.0
H517 H 0.8569 0.61748 0.84481 0.0
H518 H 0.84144 0.57658 0.68812 0.0
H519 H 0.88824 0.64696 0.76314 0.0
O520 O 0.8702 0.56444 0.73151 0.0
O521 O 0.90851 0.59796 0.73592 0.0
O522 O 0.89903 0.62357 0.83249 0.0
C523 C 0.89274 0.57719 0.71033 0.0
H524 H 0.93281 0.56533 0.90128 0.0
H525 H 0.82994 0.60951 0.64725 0.0
H526 H 0.81415 0.60693 0.864 0.0
H527 H 0.78866 0.53043 0.81117 0.0
Co528 Co 0.43739 0.29137 0.78568 0.0
C529 C 0.4784 0.33895 0.83243 0.0
C530 C 0.44168 0.33439 0.84789 0.0
C531 C 0.45971 0.35891 0.86052 0.0
N532 N 0.45332 0.32171 0.83065 0.0
N533 N 0.48274 0.3618 0.85007 0.0
H534 H 0.49302 0.3358 0.81557 0.0
H535 H 0.42145 0.3271 0.84639 0.0
C536 C 0.40227 0.27694 0.885 0.0
O537 O 0.42234 0.28766 0.91687 0.0
N538 N 0.4226 0.26195 0.73901 0.0
C539 C 0.4358 0.25527 0.70494 0.0
C540 C 0.41966 0.23187 0.68325 0.0
C541 C 0.39865 0.24252 0.73784 0.0
N542 N 0.3964 0.22396 0.70399 0.0
C543 C 0.47633 0.28032 0.81708 0.0
C544 C 0.44362 0.23436 0.86531 0.0
C545 C 0.46785 0.23939 0.85064 0.0
C546 C 0.4846 0.26294 0.82746 0.0
C547 C 0.43584 0.2517 0.85249 0.0
N548 N 0.45189 0.27435 0.82784 0.0
H549 H 0.48885 0.29736 0.795 0.0
H550 H 0.41594 0.24508 0.85668 0.0
H551 H 0.45602 0.26613 0.69809 0.0
H552 H 0.38356 0.24125 0.76345 0.0
O553 O 0.46377 0.30859 0.73064 0.0
O554 O 0.42771 0.30891 0.73362 0.0
O555 O 0.4052 0.2765 0.83287 0.0
C556 C 0.4489 0.31561 0.70814 0.0
H557 H 0.45611 0.37388 0.87306 0.0
H558 H 0.42474 0.22116 0.65565 0.0
H559 H 0.42991 0.21603 0.88164 0.0
H560 H 0.50337 0.26726 0.81458 0.0
Co561 Co 0.73616 0.14976 0.78151 0.0
C562 C 0.6905 0.14697 0.83084 0.0
C563 C 0.69509 0.11596 0.85667 0.0
C564 C 0.67192 0.1119 0.87503 0.0
N565 N 0.7071 0.13831 0.83002 0.0
N566 N 0.66909 0.13134 0.85837 0.0
H567 H 0.69289 0.16313 0.80787 0.0
H568 H 0.70165 0.10247 0.85874 0.0
C569 C 0.75249 0.13238 0.88231 0.0
O570 O 0.74421 0.14476 0.91212 0.0
N571 N 0.76436 0.16166 0.73135 0.0
C572 C 0.77013 0.17983 0.69337 0.0
C573 C 0.79364 0.18716 0.67227 0.0
C574 C 0.78452 0.15818 0.73286 0.0
N575 N 0.8027 0.17379 0.69766 0.0
C576 C 0.74943 0.20084 0.80997 0.0
C577 C 0.79686 0.2142 0.85078 0.0
C578 C 0.79142 0.23328 0.83852 0.0
C579 C 0.76722 0.22649 0.81903 0.0
C580 C 0.77894 0.18904 0.83992 0.0
N581 N 0.75549 0.18237 0.81922 0.0
H582 H 0.73176 0.19623 0.79054 0.0
H583 H 0.78536 0.17555 0.84281 0.0
H584 H 0.75879 0.1884 0.68373 0.0
H585 H 0.78671 0.14592 0.76151 0.0
O586 O 0.71849 0.15847 0.72706 0.0
O587 O 0.71617 0.12127 0.73335 0.0
O588 O 0.75106 0.13282 0.82978 0.0
C589 C 0.70992 0.13584 0.70694 0.0
H590 H 0.65736 0.09495 0.89475 0.0
H591 H 0.80367 0.2018 0.64203 0.0
H592 H 0.81566 0.21886 0.86423 0.0
H593 H 0.76262 0.24091 0.80788 0.0
Co594 Co 0.43612 0.1493 0.28802 0.0
C595 C 0.47809 0.14496 0.33705 0.0
C596 C 0.44218 0.11221 0.3543 0.0
C597 C 0.46111 0.1079 0.37269 0.0
N598 N 0.4528 0.13576 0.33324 0.0
N599 N 0.48363 0.1285 0.36148 0.0
H600 H 0.49227 0.16243 0.31871 0.0
H601 H 0.42216 0.09845 0.3531 0.0
C602 C 0.40177 0.12912 0.38833 0.0
O603 O 0.42212 0.13755 0.41903 0.0
N604 N 0.42088 0.16345 0.24124 0.0
C605 C 0.4339 0.18281 0.20613 0.0
C606 C 0.41812 0.19096 0.18674 0.0
C607 C 0.3973 0.16012 0.24285 0.0
N608 N 0.39529 0.1769 0.21038 0.0
C609 C 0.47486 0.19939 0.31753 0.0
C610 C 0.4423 0.21316 0.3653 0.0
C611 C 0.46629 0.23207 0.34884 0.0
C612 C 0.48304 0.22505 0.32642 0.0
C613 C 0.43463 0.18788 0.35445 0.0
N614 N 0.45055 0.18105 0.32949 0.0
H615 H 0.48729 0.19478 0.29514 0.0
H616 H 0.41485 0.17457 0.36017 0.0
H617 H 0.45389 0.19135 0.19706 0.0
H618 H 0.3823 0.14672 0.26913 0.0
O619 O 0.46252 0.15858 0.2336 0.0
O620 O 0.42699 0.12187 0.2354 0.0
O621 O 0.40405 0.13248 0.33613 0.0
C622 C 0.44828 0.13675 0.21049 0.0
H623 H 0.45859 0.09029 0.38893 0.0
H624 H 0.42317 0.20634 0.15828 0.0
H625 H 0.42864 0.21802 0.38134 0.0
H626 H 0.50161 0.23932 0.31222 0.0
Co627 Co 0.88064 0.29355 0.28528 0.0
C628 C 0.88097 0.33767 0.3355 0.0
C629 C 0.91261 0.33444 0.36297 0.0
C630 C 0.91575 0.35734 0.38076 0.0
N631 N 0.89049 0.3218 0.33543 0.0
N632 N 0.89596 0.35939 0.3628 0.0
H633 H 0.86471 0.33462 0.31188 0.0
H634 H 0.92666 0.32859 0.36573 0.0
C635 C 0.89847 0.277 0.38565 0.0
O636 O 0.88559 0.28445 0.41618 0.0
N637 N 0.87028 0.26632 0.23338 0.0
C638 C 0.85201 0.2601 0.19535 0.0
C639 C 0.8471 0.23799 0.17035 0.0
C640 C 0.87618 0.24782 0.23129 0.0
N641 N 0.86226 0.23034 0.19302 0.0
C642 C 0.82876 0.27829 0.31215 0.0
C643 C 0.81658 0.23123 0.35258 0.0
C644 C 0.79701 0.2362 0.3415 0.0
C645 C 0.80326 0.26017 0.32178 0.0
C646 C 0.84161 0.24948 0.34098 0.0
N647 N 0.84771 0.27285 0.32108 0.0
H648 H 0.83287 0.29581 0.29292 0.0
H649 H 0.85553 0.24357 0.34324 0.0
H650 H 0.84169 0.27001 0.18853 0.0
H651 H 0.88928 0.24637 0.25884 0.0
O652 O 0.87159 0.3111 0.23109 0.0
O653 O 0.9094 0.31485 0.23889 0.0
O654 O 0.89809 0.27897 0.33322 0.0
C655 C 0.89451 0.32055 0.21197 0.0
H656 H 0.93241 0.37232 0.4007 0.0
H657 H 0.83216 0.22734 0.14096 0.0
H658 H 0.81238 0.21261 0.36601 0.0
H659 H 0.7885 0.26443 0.31142 0.0
Co660 Co 0.73559 0.59402 0.28616 0.0
C661 C 0.68992 0.55139 0.3356 0.0
C662 C 0.69123 0.58686 0.34813 0.0
C663 C 0.66797 0.5677 0.36519 0.0
N664 N 0.70521 0.5767 0.33041 0.0
N665 N 0.66702 0.54538 0.35666 0.0
H666 H 0.69486 0.53762 0.32139 0.0
H667 H 0.69689 0.60668 0.34528 0.0
C668 C 0.74792 0.62728 0.38768 0.0
O669 O 0.73661 0.60653 0.41713 0.0
N670 N 0.76517 0.6101 0.24028 0.0
C671 C 0.77253 0.59762 0.20573 0.0
C672 C 0.79564 0.61446 0.18406 0.0
C673 C 0.78391 0.63439 0.23935 0.0
N674 N 0.8027 0.63746 0.20521 0.0
C675 C 0.74901 0.5562 0.31148 0.0
C676 C 0.7931 0.5887 0.36643 0.0
C677 C 0.79053 0.56615 0.34542 0.0
C678 C 0.76757 0.54923 0.31965 0.0
C679 C 0.77487 0.59544 0.35505 0.0
N680 N 0.7532 0.57962 0.32674 0.0
H681 H 0.73269 0.54385 0.28699 0.0
H682 H 0.78028 0.61474 0.3636 0.0
H683 H 0.76227 0.57744 0.19827 0.0
H684 H 0.78443 0.6492 0.26483 0.0
O685 O 0.71913 0.56833 0.22965 0.0
O686 O 0.71763 0.6037 0.23488 0.0
O687 O 0.74956 0.62548 0.33549 0.0
C688 C 0.71176 0.58304 0.20793 0.0
H689 H 0.65226 0.56991 0.37898 0.0
H690 H 0.80671 0.61009 0.15589 0.0
H691 H 0.81032 0.60232 0.38715 0.0
H692 H 0.76473 0.53175 0.30166 0.0
Co693 Co 0.48713 0.09603 0.92471 0.0
C694 C 0.48732 0.14042 0.87633 0.0
C695 C 0.45553 0.10595 0.84773 0.0
C696 C 0.45288 0.126 0.83014 0.0
N697 N 0.47748 0.11498 0.87579 0.0
N698 N 0.47279 0.14758 0.8487 0.0
H699 H 0.50351 0.1534 0.90048 0.0
H700 H 0.44131 0.08617 0.8442 0.0
C701 C 0.46883 0.06214 0.8236 0.0
O702 O 0.48221 0.08252 0.7939 0.0
N703 N 0.49734 0.07848 0.97544 0.0
C704 C 0.51437 0.08988 1.0162 0.0
C705 C 0.52011 0.07286 0.03871 0.0
C706 C 0.49316 0.05458 0.97343 0.0
N707 N 0.50683 0.05074 1.01184 0.0
C708 C 0.53874 0.13218 0.89638 0.0
C709 C 0.55061 0.09731 0.85358 0.0
C710 C 0.57022 0.12187 0.86426 0.0
C711 C 0.5641 0.13957 0.88518 0.0
C712 C 0.52568 0.09053 0.86671 0.0
N713 N 0.51975 0.10781 0.88779 0.0
H714 H 0.53483 0.14563 0.91642 0.0
H715 H 0.51172 0.07074 0.86427 0.0
H716 H 0.52346 0.10973 0.02681 0.0
H717 H 0.4815 0.0407 0.94295 0.0
O718 O 0.49709 0.12275 0.97879 0.0
O719 O 0.4588 0.08934 0.9726 0.0
O720 O 0.469 0.06426 0.87611 0.0
C721 C 0.47428 0.11009 0.99859 0.0
H722 H 0.43649 0.1247 0.80973 0.0
H723 H 0.53443 0.07699 0.06958 0.0
H724 H 0.55474 0.08291 0.83923 0.0
H725 H 0.57891 0.1586 0.89524 0.0
Co726 Co 0.932 0.39644 0.92261 0.0
C727 C 0.88912 0.35113 0.87268 0.0
C728 C 0.9246 0.3551 0.84713 0.0
C729 C 0.90529 0.3324 0.82728 0.0
N730 N 0.91446 0.3672 0.87453 0.0
N731 N 0.88303 0.32997 0.84366 0.0
H732 H 0.87538 0.3538 0.89533 0.0
H733 H 0.94462 0.36137 0.84494 0.0
C734 C 0.96686 0.41264 0.82212 0.0
O735 O 0.94678 0.40438 0.79055 0.0
N736 N 0.94814 0.42496 0.97213 0.0
C737 C 0.93565 0.43082 1.01012 0.0
C738 C 0.95163 0.45452 0.0305 0.0
C739 C 0.9716 0.44531 0.96985 0.0
N740 N 0.97402 0.46363 1.00467 0.0
C741 C 0.89396 0.40926 0.89472 0.0
C742 C 0.92737 0.45616 0.85132 0.0
C743 C 0.9029 0.45073 0.86481 0.0
C744 C 0.88582 0.42677 0.88548 0.0
C745 C 0.9349 0.43846 0.86229 0.0
N746 N 0.91845 0.4153 0.88439 0.0
H747 H 0.88118 0.39192 0.91542 0.0
H748 H 0.9548 0.44488 0.85847 0.0
H749 H 0.9158 0.41936 0.02029 0.0
H750 H 0.98605 0.44752 0.94098 0.0
O751 O 0.90562 0.37903 0.97742 0.0
O752 O 0.94061 0.37682 0.97153 0.0
O753 O 0.96403 0.41112 0.87451 0.0
C754 C 0.91978 0.37074 0.99807 0.0
H755 H 0.90748 0.31792 0.80632 0.0
H756 H 0.94692 0.46459 0.06069 0.0
H757 H 0.94128 0.47484 0.837 0.0
H758 H 0.8669 0.42224 0.89771 0.0
Co759 Co 0.63308 0.54194 0.92504 0.0
C760 C 0.68011 0.54532 0.87934 0.0
C761 C 0.66194 0.5568 0.82011 0.0
C762 C 0.68431 0.56024 0.79811 0.0
N763 N 0.65917 0.54736 0.87122 0.0
N764 N 0.69595 0.55341 0.83576 0.0
H765 H 0.68446 0.53918 0.91719 0.0
H766 H 0.64892 0.56132 0.79998 0.0
C767 C 0.59886 0.55014 0.84249 0.0
O768 O 0.5813 0.52616 0.84372 0.0
N769 N 0.60767 0.53697 0.98081 0.0
C770 C 0.60797 0.53114 0.03441 0.0
C771 C 0.58618 0.52721 0.05958 0.0
C772 C 0.58558 0.53691 0.9751 0.0
N773 N 0.57224 0.5309 0.02223 0.0
C774 C 0.60086 0.48884 0.93691 0.0
C775 C 0.58839 0.4761 0.82823 0.0
C776 C 0.57538 0.45771 0.86868 0.0
C777 C 0.58272 0.46411 0.92332 0.0
C778 C 0.60689 0.50075 0.84379 0.0
N779 N 0.61128 0.50736 0.89802 0.0
H780 H 0.60603 0.49319 0.9794 0.0
H781 H 0.61615 0.51481 0.81229 0.0
H782 H 0.62225 0.52844 0.0543 0.0
H783 H 0.57858 0.54014 0.93745 0.0
O784 O 0.65094 0.53397 0.97951 0.0
O785 O 0.65727 0.57242 0.96412 0.0
O786 O 0.61885 0.55845 0.87259 0.0
C787 C 0.66255 0.55777 0.99336 0.0
H788 H 0.69144 0.56745 0.75756 0.0
H789 H 0.58061 0.5213 0.10155 0.0
H790 H 0.58383 0.47168 0.78525 0.0
H791 H 0.57367 0.45039 0.95581 0.0
Co792 Co 0.6001 0.87435 0.75085 0.0
C793 C 0.55727 0.87917 0.70568 0.0
C794 C 0.59266 0.90624 0.67014 0.0
C795 C 0.57422 0.91112 0.65193 0.0
N796 N 0.58208 0.88564 0.7026 0.0
N797 N 0.55194 0.89463 0.67563 0.0
H798 H 0.54379 0.86481 0.73298 0.0
H799 H 0.6127 0.91826 0.66284 0.0
C800 C 0.63359 0.89021 0.64911 0.0
O801 O 0.613 0.87729 0.61949 0.0
N802 N 0.6168 0.86285 0.80098 0.0
C803 C 0.6046 0.84427 0.83821 0.0
C804 C 0.62154 0.83844 0.86129 0.0
C805 C 0.64106 0.86806 0.80184 0.0
N806 N 0.64429 0.85316 0.83796 0.0
C807 C 0.56204 0.8237 0.71806 0.0
C808 C 0.597 0.80955 0.68719 0.0
C809 C 0.5719 0.79073 0.69537 0.0
C810 C 0.55401 0.79793 0.70915 0.0
C811 C 0.6042 0.83476 0.69667 0.0
N812 N 0.58705 0.84176 0.71324 0.0
H813 H 0.54853 0.82878 0.73344 0.0
H814 H 0.62423 0.8481 0.69632 0.0
H815 H 0.58442 0.83444 0.84585 0.0
H816 H 0.65574 0.88151 0.77507 0.0
O817 O 0.5739 0.86544 0.80599 0.0
O818 O 0.60853 0.90285 0.79902 0.0
O819 O 0.63181 0.89092 0.70161 0.0
C820 C 0.58792 0.88808 0.82612 0.0
H821 H 0.57753 0.92634 0.62454 0.0
H822 H 0.61715 0.82333 0.89014 0.0
H823 H 0.61141 0.80465 0.67745 0.0
H824 H 0.53443 0.78374 0.71663 0.0
Co825 Co 0.15125 0.72699 0.75541 0.0
C826 C 0.15402 0.68339 0.70874 0.0
C827 C 0.12403 0.68687 0.67199 0.0
C828 C 0.12219 0.66447 0.65452 0.0
N829 N 0.14443 0.69922 0.70508 0.0
N830 N 0.14091 0.66222 0.67818 0.0
H831 H 0.16887 0.68603 0.73675 0.0
H832 H 0.10996 0.69238 0.66489 0.0
C833 C 0.13454 0.74312 0.65329 0.0
O834 O 0.15 0.73823 0.62498 0.0
N835 N 0.15783 0.7537 0.80788 0.0
C836 C 0.17064 0.75791 0.85557 0.0
C837 C 0.17481 0.78031 0.87772 0.0
C838 C 0.15423 0.77372 0.80227 0.0
N839 N 0.16462 0.79025 0.84413 0.0
C840 C 0.20351 0.7445 0.72654 0.0
C841 C 0.21453 0.79219 0.69333 0.0
C842 C 0.23462 0.78744 0.69997 0.0
C843 C 0.22874 0.76293 0.71532 0.0
C844 C 0.18971 0.7733 0.70445 0.0
N845 N 0.18424 0.74976 0.72167 0.0
H846 H 0.19984 0.72652 0.74232 0.0
H847 H 0.17525 0.77846 0.70224 0.0
H848 H 0.17833 0.74668 0.8717 0.0
H849 H 0.14642 0.77749 0.76615 0.0
O850 O 0.16215 0.71142 0.80963 0.0
O851 O 0.12276 0.70357 0.80047 0.0
O852 O 0.13268 0.73946 0.70536 0.0
C853 C 0.13896 0.69974 0.82763 0.0
H854 H 0.1069 0.64986 0.63053 0.0
H855 H 0.18672 0.7899 0.91277 0.0
H856 H 0.21801 0.81087 0.68247 0.0
H857 H 0.24354 0.75817 0.72029 0.0
Co858 Co 0.29806 0.43041 0.75774 0.0
C859 C 0.34539 0.47442 0.71978 0.0
C860 C 0.33498 0.44264 0.6665 0.0
C861 C 0.35802 0.46251 0.64941 0.0
N862 N 0.32715 0.45015 0.71089 0.0
N863 N 0.36457 0.48228 0.68353 0.0
H864 H 0.34502 0.48613 0.75279 0.0
H865 H 0.32523 0.42388 0.6487 0.0
C866 C 0.26269 0.38516 0.68279 0.0
O867 O 0.24317 0.38781 0.69562 0.0
N868 N 0.26953 0.41185 0.80693 0.0
C869 C 0.2624 0.42243 0.84695 0.0
C870 C 0.2417 0.40393 0.87363 0.0
C871 C 0.25358 0.38673 0.81189 0.0
N872 N 0.2361 0.38154 0.8514 0.0
C873 C 0.27697 0.46295 0.75359 0.0
C874 C 0.24944 0.44416 0.65833 0.0
C875 C 0.24241 0.45711 0.69584 0.0
C876 C 0.25781 0.46831 0.74157 0.0
C877 C 0.2692 0.4395 0.67202 0.0
N878 N 0.2802 0.44601 0.72275 0.0
H879 H 0.28784 0.4711 0.79029 0.0
H880 H 0.2743 0.42923 0.64345 0.0
H881 H 0.27141 0.44233 0.85662 0.0
H882 H 0.25434 0.37241 0.78706 0.0
O883 O 0.31443 0.45485 0.81582 0.0
O884 O 0.3183 0.4211 0.80455 0.0
O885 O 0.2847 0.4003 0.70326 0.0
C886 C 0.32374 0.4412 0.83353 0.0
H887 H 0.36962 0.46208 0.61618 0.0
H888 H 0.23071 0.40686 0.90479 0.0
H889 H 0.2388 0.43634 0.62086 0.0
H890 H 0.25397 0.47974 0.76989 0.0
Co891 Co 0.54945 0.92612 0.11507 0.0
C892 C 0.55297 0.88322 0.16357 0.0
C893 C 0.57995 0.91858 0.19948 0.0
C894 C 0.58393 0.89994 0.22004 0.0
N895 N 0.55996 0.90813 0.16524 0.0
N896 N 0.56725 0.87748 0.19696 0.0
H897 H 0.53922 0.87019 0.13478 0.0
H898 H 0.5922 0.9386 0.20642 0.0
C899 C 0.5646 0.96046 0.21561 0.0
O900 O 0.55031 0.94022 0.24503 0.0
N901 N 0.53872 0.94288 0.06328 0.0
C902 C 0.52071 0.93084 0.02462 0.0
C903 C 0.51435 0.94754 1.00252 0.0
C904 C 0.54313 0.96684 0.06398 0.0
N905 N 0.52815 0.96997 0.02789 0.0
C906 C 0.49853 0.88853 0.14762 0.0
C907 C 0.48432 0.92368 0.17584 0.0
C908 C 0.46548 0.89846 0.16919 0.0
C909 C 0.47275 0.8805 0.15677 0.0
C910 C 0.50953 0.93085 0.16635 0.0
N911 N 0.51658 0.91358 0.15122 0.0
H912 H 0.5036 0.87488 0.1333 0.0
H913 H 0.52292 0.95082 0.16625 0.0
H914 H 0.51135 0.9108 1.01574 0.0
H915 H 0.55574 0.98122 0.09251 0.0
O916 O 0.54052 0.89954 0.06083 0.0
O917 O 0.57821 0.93382 0.06831 0.0
O918 O 0.56628 0.95811 0.16355 0.0
C919 C 0.56334 0.91317 0.04134 0.0
H920 H 0.59907 0.90333 0.24794 0.0
H921 H 0.49926 0.94304 0.9734 0.0
H922 H 0.4794 0.93814 0.18477 0.0
H923 H 0.45858 0.86082 0.15053 0.0
Co924 Co 0.10275 0.6273 0.11953 0.0
C925 C 0.1453 0.67386 0.16732 0.0
C926 C 0.10971 0.66735 0.19874 0.0
C927 C 0.12854 0.69051 0.21741 0.0
N928 N 0.12022 0.65648 0.1683 0.0
N929 N 0.15103 0.69483 0.19721 0.0
H930 H 0.15867 0.67232 0.14078 0.0
H931 H 0.08962 0.66004 0.20389 0.0
C932 C 0.06701 0.6097 0.21792 0.0
O933 O 0.0868 0.61653 0.24973 0.0
N934 N 0.0868 0.59911 0.06901 0.0
C935 C 0.09969 0.5925 0.03381 0.0
C936 C 0.08317 0.56984 1.00983 0.0
C937 C 0.06253 0.58027 0.06604 0.0
N938 N 0.05992 0.56216 0.03027 0.0
C939 C 0.14002 0.61442 0.15563 0.0
C940 C 0.10451 0.56546 0.18449 0.0
C941 C 0.12964 0.57151 0.17711 0.0
C942 C 0.1478 0.59655 0.16465 0.0
C943 C 0.09756 0.58363 0.17494 0.0
N944 N 0.115 0.60769 0.15913 0.0
H945 H 0.15379 0.63285 0.1406 0.0
H946 H 0.07757 0.57714 0.17414 0.0
H947 H 0.12001 0.60267 0.0281 0.0
H948 H 0.04753 0.57884 0.0922 0.0
O949 O 0.12981 0.64406 0.06643 0.0
O950 O 0.09538 0.64747 0.0695 0.0
O951 O 0.07024 0.61283 0.16581 0.0
C952 C 0.1163 0.65276 0.04418 0.0
H953 H 0.12556 0.70372 0.24157 0.0
H954 H 0.08805 0.55924 0.98141 0.0
H955 H 0.08992 0.54618 0.19327 0.0
H956 H 0.16739 0.60175 0.15777 0.0
Co957 Co 0.40077 0.47833 0.12188 0.0
C958 C 0.35388 0.47431 0.16953 0.0
C959 C 0.36028 0.44485 0.19806 0.0
C960 C 0.33703 0.44008 0.21639 0.0
N961 N 0.37146 0.4668 0.17013 0.0
N962 N 0.33236 0.45803 0.19673 0.0
H963 H 0.35586 0.49006 0.14556 0.0
H964 H 0.36751 0.43195 0.20175 0.0
C965 C 0.4162 0.45926 0.22209 0.0
O966 O 0.40757 0.47104 0.25291 0.0
N967 N 0.42927 0.48992 0.07169 0.0
C968 C 0.43128 0.50026 0.02159 0.0
C969 C 0.4553 0.50915 1.00189 0.0
C970 C 0.4524 0.49287 0.08156 0.0
N971 N 0.46867 0.50494 0.04002 0.0
C972 C 0.4159 0.53033 0.14554 0.0
C973 C 0.46029 0.54191 0.19888 0.0
C974 C 0.458 0.56178 0.17677 0.0
C975 C 0.4348 0.55587 0.15256 0.0
C976 C 0.4419 0.51696 0.18809 0.0
N977 N 0.4201 0.51105 0.16025 0.0
H978 H 0.39897 0.52627 0.12332 0.0
H979 H 0.44725 0.50314 0.19721 0.0
H980 H 0.41677 0.50217 1.00055 0.0
H981 H 0.45763 0.48732 0.11916 0.0
O982 O 0.3835 0.48771 0.06861 0.0
O983 O 0.38027 0.45011 0.07228 0.0
O984 O 0.41542 0.46079 0.16954 0.0
C985 C 0.37433 0.46527 0.04724 0.0
H986 H 0.32436 0.42389 0.24079 0.0
H987 H 0.46234 0.51813 0.96259 0.0
H988 H 0.47751 0.54552 0.21967 0.0
H989 H 0.43197 0.57065 0.13552 0.0
Co990 Co 0.10174 0.48099 0.61552 0.0
C991 C 0.14285 0.47469 0.66332 0.0
C992 C 0.10615 0.44292 0.67998 0.0
C993 C 0.12422 0.43694 0.69567 0.0
N994 N 0.11777 0.46681 0.66064 0.0
N995 N 0.14729 0.45689 0.68494 0.0
H996 H 0.15751 0.49225 0.64616 0.0
H997 H 0.08594 0.42993 0.67847 0.0
C998 C 0.06781 0.46193 0.71622 0.0
O999 O 0.08861 0.47215 0.74584 0.0
N1000 N 0.08687 0.4954 0.56867 0.0
C1001 C 0.10004 0.51456 0.53322 0.0
C1002 C 0.08436 0.52269 0.51307 0.0
C1003 C 0.06335 0.49216 0.56982 0.0
N1004 N 0.06149 0.5088 0.53664 0.0
C1005 C 0.141 0.53104 0.64635 0.0
C1006 C 0.1087 0.5452 0.69413 0.0
C1007 C 0.13314 0.56407 0.68001 0.0
C1008 C 0.14963 0.55677 0.65692 0.0
C1009 C 0.10059 0.51997 0.68124 0.0
N1010 N 0.11646 0.51289 0.657 0.0
H1011 H 0.1534 0.52621 0.62441 0.0
H1012 H 0.08062 0.50692 0.68529 0.0
H1013 H 0.12003 0.52293 0.52431 0.0
H1014 H 0.0483 0.47896 0.59632 0.0
O1015 O 0.12805 0.48967 0.56053 0.0
O1016 O 0.09204 0.4534 0.56363 0.0
O1017 O 0.06968 0.46418 0.66372 0.0
C1018 C 0.11331 0.46769 0.53825 0.0
H1019 H 0.12059 0.41859 0.70963 0.0
H1020 H 0.0895 0.53791 0.48415 0.0
H1021 H 0.09513 0.55015 0.71028 0.0
H1022 H 0.16855 0.57092 0.64439 0.0
Co1023 Co 0.54646 0.62505 0.61913 0.0
C1024 C 0.54957 0.67083 0.66869 0.0
C1025 C 0.58348 0.6692 0.68241 0.0
C1026 C 0.58763 0.69259 0.69902 0.0
N1027 N 0.55943 0.6553 0.66429 0.0
N1028 N 0.56639 0.69371 0.68965 0.0
H1029 H 0.53114 0.66623 0.65352 0.0
H1030 H 0.59763 0.66345 0.67995 0.0
C1031 C 0.56706 0.61229 0.72029 0.0
O1032 O 0.55814 0.62418 0.74984 0.0
N1033 N 0.53301 0.59575 0.57207 0.0
C1034 C 0.51366 0.58913 0.53666 0.0
C1035 C 0.50703 0.56602 0.51434 0.0
C1036 C 0.53778 0.57645 0.57125 0.0
N1037 N 0.52219 0.55815 0.53605 0.0
C1038 C 0.4957 0.61247 0.6482 0.0
C1039 C 0.48332 0.56719 0.69853 0.0
C1040 C 0.46379 0.5717 0.68364 0.0
C1041 C 0.47021 0.59492 0.65934 0.0
C1042 C 0.50836 0.58483 0.68549 0.0
N1043 N 0.51455 0.6072 0.66004 0.0
H1044 H 0.49976 0.62904 0.62488 0.0
H1045 H 0.52198 0.57869 0.69053 0.0
H1046 H 0.50404 0.59971 0.52953 0.0
H1047 H 0.55163 0.57533 0.59692 0.0
O1048 O 0.53701 0.64175 0.56412 0.0
O1049 O 0.57403 0.64348 0.56717 0.0
O1050 O 0.56373 0.61059 0.668 0.0
C1051 C 0.55903 0.64951 0.54162 0.0
H1052 H 0.6055 0.70828 0.71285 0.0
H1053 H 0.49126 0.55513 0.48691 0.0
H1054 H 0.47909 0.5491 0.71552 0.0
H1055 H 0.45555 0.59888 0.64623 0.0
Co1056 Co 0.40233 0.92457 0.62287 0.0
C1057 C 0.35618 0.88342 0.67374 0.0
C1058 C 0.35755 0.91922 0.67889 0.0
C1059 C 0.33358 0.90049 0.69311 0.0
N1060 N 0.37188 0.90863 0.66718 0.0
N1061 N 0.33276 0.87805 0.68987 0.0
H1062 H 0.36087 0.86921 0.66115 0.0
H1063 H 0.36339 0.93893 0.67232 0.0
C1064 C 0.41422 0.96078 0.7206 0.0
O1065 O 0.40072 0.94128 0.75258 0.0
N1066 N 0.432 0.93924 0.57676 0.0
C1067 C 0.43853 0.92607 0.54219 0.0
C1068 C 0.4619 0.94213 0.52033 0.0
C1069 C 0.45149 0.96317 0.57544 0.0
N1070 N 0.46989 0.96536 0.54112 0.0
C1071 C 0.41655 0.88723 0.64602 0.0
C1072 C 0.45785 0.91845 0.70999 0.0
C1073 C 0.45791 0.89825 0.68272 0.0
C1074 C 0.43606 0.88147 0.65336 0.0
C1075 C 0.43879 0.9242 0.69943 0.0
N1076 N 0.41897 0.90949 0.66518 0.0
H1077 H 0.40107 0.87523 0.61909 0.0
H1078 H 0.44218 0.94208 0.71457 0.0
H1079 H 0.42743 0.90595 0.53448 0.0
H1080 H 0.45276 0.97842 0.60045 0.0
O1081 O 0.38483 0.89837 0.56727 0.0
O1082 O 0.38504 0.93458 0.57043 0.0
O1083 O 0.41741 0.95701 0.66995 0.0
C1084 C 0.37798 0.91335 0.54484 0.0
H1085 H 0.31739 0.90291 0.7008 0.0
H1086 H 0.47239 0.93713 0.49188 0.0
H1087 H 0.47375 0.9313 0.73531 0.0
H1088 H 0.43495 0.86527 0.63237 0.0
Co1089 Co 0.1536 0.43095 0.24818 0.0
C1090 C 0.15134 0.47332 0.19718 0.0
C1091 C 0.11612 0.43846 0.18904 0.0
C1092 C 0.11252 0.45798 0.17254 0.0
N1093 N 0.14058 0.448 0.20354 0.0
N1094 N 0.13457 0.47992 0.17842 0.0
H1095 H 0.17049 0.4867 0.20975 0.0
H1096 H 0.10149 0.41891 0.19413 0.0
C1097 C 0.13013 0.39598 0.14855 0.0
O1098 O 0.13686 0.41602 0.11792 0.0
N1099 N 0.16725 0.41524 0.29471 0.0
C1100 C 0.18633 0.42777 0.33087 0.0
C1101 C 0.19289 0.4112 0.35278 0.0
C1102 C 0.16238 0.39116 0.29512 0.0
N1103 N 0.1778 0.3883 0.33038 0.0
C1104 C 0.20583 0.46752 0.22889 0.0
C1105 C 0.21568 0.43741 0.16044 0.0
C1106 C 0.2359 0.4567 0.18964 0.0
C1107 C 0.23098 0.47299 0.22138 0.0
C1108 C 0.19093 0.43171 0.17157 0.0
N1109 N 0.18589 0.44587 0.20775 0.0
H1110 H 0.20246 0.47916 0.25719 0.0
H1111 H 0.1764 0.41428 0.15481 0.0
H1112 H 0.19549 0.44781 0.33969 0.0
H1113 H 0.14865 0.37629 0.26893 0.0
O1114 O 0.16215 0.45684 0.30435 0.0
O1115 O 0.12567 0.42119 0.29922 0.0
O1116 O 0.13632 0.39896 0.19961 0.0
C1117 C 0.13995 0.44215 0.32564 0.0
H1118 H 0.09456 0.45639 0.16152 0.0
H1119 H 0.20778 0.41564 0.38237 0.0
H1120 H 0.21866 0.42508 0.13312 0.0
H1121 H 0.24607 0.48854 0.24392 0.0
Co1122 Co 0.60049 0.72624 0.25446 0.0
C1123 C 0.55579 0.6804 0.20664 0.0
C1124 C 0.58976 0.69026 0.16227 0.0
C1125 C 0.57067 0.66801 0.14146 0.0
N1126 N 0.58055 0.69881 0.2022 0.0
N1127 N 0.54938 0.66107 0.17067 0.0
H1128 H 0.54321 0.68006 0.2384 0.0
H1129 H 0.6094 0.698 0.15144 0.0
C1130 C 0.63556 0.7457 0.15479 0.0
O1131 O 0.61611 0.74268 0.12562 0.0
N1132 N 0.6197 0.75257 0.30816 0.0
C1133 C 0.61065 0.75686 0.35527 0.0
C1134 C 0.62919 0.77872 0.37908 0.0
C1135 C 0.64369 0.77199 0.30425 0.0
N1136 N 0.64979 0.78813 0.34679 0.0
C1137 C 0.56567 0.74361 0.22599 0.0
C1138 C 0.60246 0.79179 0.19578 0.0
C1139 C 0.5778 0.78728 0.20441 0.0
C1140 C 0.55904 0.76249 0.21837 0.0
C1141 C 0.6084 0.77292 0.20605 0.0
N1142 N 0.59027 0.74905 0.22124 0.0
H1143 H 0.5513 0.72512 0.23981 0.0
H1144 H 0.62814 0.77841 0.20498 0.0
H1145 H 0.59142 0.74591 0.3701 0.0
H1146 H 0.65593 0.77549 0.26931 0.0
O1147 O 0.57348 0.71007 0.30759 0.0
O1148 O 0.60526 0.70258 0.29962 0.0
O1149 O 0.6324 0.73967 0.20589 0.0
C1150 C 0.58499 0.69855 0.32633 0.0
H1151 H 0.57295 0.65737 0.10861 0.0
H1152 H 0.62701 0.7882 0.41458 0.0
H1153 H 0.61765 0.81038 0.18423 0.0
H1154 H 0.53978 0.75799 0.22673 0.0
Co1155 Co 0.30109 0.87477 0.25511 0.0
C1156 C 0.34563 0.87676 0.20167 0.0
C1157 C 0.34642 0.91227 0.19712 0.0
C1158 C 0.3693 0.91571 0.17882 0.0
N1159 N 0.3313 0.88773 0.21031 0.0
N1160 N 0.36893 0.89347 0.18231 0.0
H1161 H 0.33974 0.85743 0.21259 0.0
H1162 H 0.34172 0.927 0.20382 0.0
C1163 C 0.29047 0.89889 0.15599 0.0
O1164 O 0.30453 0.89294 0.12545 0.0
N1165 N 0.27157 0.86119 0.30185 0.0
C1166 C 0.26598 0.84353 0.34097 0.0
C1167 C 0.24177 0.835 0.35927 0.0
C1168 C 0.25055 0.86309 0.29675 0.0
N1169 N 0.23211 0.84713 0.33106 0.0
C1170 C 0.28587 0.82292 0.23319 0.0
C1171 C 0.24396 0.81276 0.17122 0.0
C1172 C 0.24463 0.79243 0.19599 0.0
C1173 C 0.26656 0.79771 0.22531 0.0
C1174 C 0.26313 0.83756 0.18151 0.0
N1175 N 0.28341 0.84269 0.21425 0.0
H1176 H 0.30143 0.82639 0.25975 0.0
H1177 H 0.25964 0.85212 0.16728 0.0
H1178 H 0.27811 0.83628 0.35383 0.0
H1179 H 0.2482 0.87484 0.26697 0.0
O1180 O 0.31835 0.86588 0.31044 0.0
O1181 O 0.3194 0.90248 0.30666 0.0
O1182 O 0.28648 0.89212 0.20666 0.0
C1183 C 0.32601 0.88801 0.33232 0.0
H1184 H 0.38567 0.93363 0.16784 0.0
H1185 H 0.23187 0.82068 0.39019 0.0
H1186 H 0.22768 0.80971 0.14733 0.0
H1187 H 0.26802 0.78279 0.2459 0.0
C1188 C 0.34937 0.1586 0.20049 0.0
C1189 C 0.3736 0.17999 0.20443 0.0
C1190 C 0.32802 0.16115 0.19296 0.0
C1191 C 0.33024 0.18519 0.18937 0.0
H1192 H 0.34701 0.13979 0.20202 0.0
H1193 H 0.30971 0.14418 0.1887 0.0
S1194 S 0.38917 0.24709 0.20348 0.0
N1195 N 0.39849 0.22596 0.20862 0.0
N1196 N 0.35818 0.23071 0.194 0.0
C1197 C 0.35428 0.20674 0.19454 0.0
C1198 C 0.37604 0.20416 0.20229 0.0
C1199 C 0.85386 0.16698 0.22698 0.0
C1200 C 0.84898 0.15526 0.17529 0.0
C1201 C 0.85904 0.19191 0.23242 0.0
C1202 C 0.85958 0.20584 0.1862 0.0
H1203 H 0.85328 0.1566 0.26342 0.0
H1204 H 0.86187 0.20007 0.2731 0.0
S1205 S 0.8509 0.18467 0.04128 0.0
N1206 N 0.847 0.15995 0.0767 0.0
N1207 N 0.85663 0.20695 0.08703 0.0
C1208 C 0.85544 0.19458 0.13416 0.0
C1209 C 0.85014 0.16921 0.12863 0.0
C1210 C 0.84879 0.65816 0.19376 0.0
C1211 C 0.82664 0.65986 0.19701 0.0
C1212 C 0.87231 0.67962 0.18432 0.0
C1213 C 0.87441 0.70345 0.17804 0.0
H1214 H 0.84792 0.64011 0.199 0.0
H1215 H 0.88902 0.67766 0.18242 0.0
S1216 S 0.82179 0.71756 0.17879 0.0
N1217 N 0.80796 0.68686 0.19073 0.0
N1218 N 0.85235 0.72742 0.17264 0.0
C1219 C 0.85239 0.70541 0.18075 0.0
C1220 C 0.82843 0.68352 0.19042 0.0
C1221 C 0.20317 0.3677 0.34419 0.0
C1222 C 0.17934 0.36599 0.33992 0.0
C1223 C 0.20514 0.34624 0.35474 0.0
C1224 C 0.18333 0.32247 0.36128 0.0
H1225 H 0.22036 0.38572 0.33867 0.0
H1226 H 0.22377 0.34813 0.35692 0.0
S1227 S 0.11666 0.30856 0.35904 0.0
N1228 N 0.13366 0.33916 0.34606 0.0
N1229 N 0.13728 0.29868 0.36649 0.0
C1230 C 0.1594 0.3206 0.35805 0.0
C1231 C 0.15742 0.34243 0.34711 0.0
C1232 C 0.67045 0.83045 0.30686 0.0
C1233 C 0.66969 0.81387 0.34744 0.0
C1234 C 0.68793 0.85631 0.30997 0.0
C1235 C 0.70532 0.86636 0.35358 0.0
H1236 H 0.65679 0.82341 0.27367 0.0
H1237 H 0.68734 0.86863 0.27888 0.0
S1238 S 0.71242 0.82967 0.46662 0.0
N1239 N 0.68812 0.80839 0.43042 0.0
N1240 N 0.72212 0.857 0.43541 0.0
C1241 C 0.70532 0.84962 0.39329 0.0
C1242 C 0.68717 0.82333 0.39042 0.0
C1243 C 0.17869 0.8604 0.34313 0.0
C1244 C 0.15751 0.836 0.34855 0.0
C1245 C 0.20303 0.86389 0.33654 0.0
C1246 C 0.20692 0.84309 0.3353 0.0
H1247 H 0.17646 0.87692 0.34504 0.0
H1248 H 0.21898 0.88296 0.33364 0.0
S1249 S 0.15742 0.77531 0.3408 0.0
N1250 N 0.14168 0.79073 0.3479 0.0
N1251 N 0.18759 0.79725 0.33512 0.0
C1252 C 0.18585 0.81856 0.33909 0.0
C1253 C 0.16108 0.81502 0.34591 0.0
C1254 C 0.69307 0.84145 0.90322 0.0
C1255 C 0.70623 0.83965 0.85759 0.0
C1256 C 0.67313 0.8464 0.89649 0.0
C1257 C 0.66586 0.84987 0.84403 0.0
H1258 H 0.69855 0.83952 0.94434 0.0
H1259 H 0.66336 0.84768 0.93247 0.0
S1260 S 0.69251 0.84438 0.71131 0.0
N1261 N 0.70943 0.8399 0.75813 0.0
N1262 N 0.67197 0.84933 0.74569 0.0
C1263 C 0.67853 0.84766 0.79809 0.0
C1264 C 0.69872 0.8425 0.80485 0.0
C1265 C 0.19885 0.83336 0.8288 0.0
C1266 C 0.17334 0.8167 0.84135 0.0
C1267 C 0.20894 0.85947 0.83231 0.0
C1268 C 0.19382 0.86985 0.84845 0.0
H1269 H 0.21121 0.82598 0.81795 0.0
H1270 H 0.229 0.87149 0.82468 0.0
S1271 S 0.12496 0.83358 0.88049 0.0
N1272 N 0.13267 0.81165 0.86725 0.0
N1273 N 0.15124 0.86107 0.87244 0.0
C1274 C 0.16783 0.8532 0.85858 0.0
C1275 C 0.15765 0.8265 0.85525 0.0
C1276 C 0.17342 0.32581 0.81676 0.0
C1277 C 0.16157 0.31869 0.86832 0.0
C1278 C 0.19846 0.34539 0.81179 0.0
C1279 C 0.21246 0.35859 0.85823 0.0
H1280 H 0.16297 0.31673 0.77977 0.0
H1281 H 0.20646 0.3511 0.77115 0.0
S1282 S 0.19153 0.34515 1.00303 0.0
N1283 N 0.16665 0.32461 0.96724 0.0
N1284 N 0.21378 0.36189 0.95755 0.0
C1285 C 0.20131 0.35097 0.9102 0.0
C1286 C 0.17581 0.33094 0.91536 0.0
C1287 C 0.85213 0.66485 0.64461 0.0
C1288 C 0.85653 0.65768 0.69624 0.0
C1289 C 0.8477 0.68511 0.63941 0.0
C1290 C 0.84754 0.69876 0.68575 0.0
H1291 H 0.85233 0.65481 0.60805 0.0
H1292 H 0.84497 0.69051 0.59884 0.0
S1293 S 0.85541 0.68586 0.8305 0.0
N1294 N 0.85855 0.66449 0.79491 0.0
N1295 N 0.85055 0.70296 0.7849 0.0
C1296 C 0.85143 0.69152 0.73768 0.0
C1297 C 0.85586 0.67084 0.74302 0.0
C1298 C 0.35615 0.1537 0.68796 0.0
C1299 C 0.33172 0.15047 0.68624 0.0
C1300 C 0.37731 0.17787 0.69352 0.0
C1301 C 0.37456 0.19943 0.69687 0.0
H1302 H 0.35877 0.1374 0.68584 0.0
H1303 H 0.3959 0.17967 0.69617 0.0
S1304 S 0.31457 0.20082 0.68659 0.0
N1305 N 0.30584 0.17048 0.68361 0.0
N1306 N 0.34573 0.2161 0.69324 0.0
C1307 C 0.35021 0.19639 0.69347 0.0
C1308 C 0.32872 0.17182 0.68825 0.0
C1309 C 0.83104 0.15624 0.68996 0.0
C1310 C 0.82767 0.17734 0.69253 0.0
C1311 C 0.85523 0.1593 0.68397 0.0
C1312 C 0.87675 0.18357 0.68068 0.0
H1313 H 0.8148 0.13729 0.69164 0.0
H1314 H 0.85709 0.14257 0.68093 0.0
S1315 S 0.87819 0.24482 0.69178 0.0
N1316 N 0.84782 0.22326 0.6957 0.0
N1317 N 0.89344 0.22895 0.68414 0.0
C1318 C 0.87369 0.20481 0.68437 0.0
C1319 C 0.84907 0.20171 0.69048 0.0
C1320 C 0.99434 0.49326 0.51976 0.0
C1321 C 0.99663 0.51734 0.51674 0.0
C1322 C 1.01566 0.49063 0.52658 0.0
C1323 C 0.03992 0.51199 0.5303 0.0
H1324 H 0.97598 0.47632 0.51588 0.0
H1325 H 1.01325 0.47181 0.52802 0.0
S1326 S 0.05573 0.57915 0.52954 0.0
N1327 N 0.02469 0.56285 0.52093 0.0
N1328 N 0.065 0.55797 0.53409 0.0
C1329 C 0.04246 0.5362 0.52822 0.0
C1330 C 0.02072 0.53885 0.52125 0.0
C1331 C 0.51492 0.49512 0.56975 0.0
C1332 C 0.50959 0.48315 0.51822 0.0
C1333 C 0.51966 0.51993 0.57524 0.0
C1334 C 0.51919 0.53349 0.5293 0.0
H1335 H 0.5153 0.48512 0.60602 0.0
H1336 H 0.52315 0.52838 0.61573 0.0
S1337 S 0.50867 0.51166 0.38474 0.0
N1338 N 0.50592 0.48734 0.41993 0.0
N1339 N 0.51452 0.53397 0.4305 0.0
C1340 C 0.51432 0.52194 0.47746 0.0
C1341 C 0.50956 0.49673 0.47182 0.0
C1342 C 0.51603 0.98557 0.5288 0.0
C1343 C 0.49394 0.98745 0.53139 0.0
C1344 C 0.53974 1.00703 0.52007 0.0
C1345 C 0.54198 0.03093 0.51384 0.0
H1346 H 0.51496 0.96746 0.53452 0.0
H1347 H 0.55648 1.00509 0.51926 0.0
S1348 S 0.48949 0.04512 0.50935 0.0
N1349 N 0.47546 0.01447 0.52193 0.0
N1350 N 0.5201 0.05493 0.5053 0.0
C1351 C 0.51996 0.0329 0.51452 0.0
C1352 C 0.49589 0.01109 0.52344 0.0
C1353 C 0.51937 0.99849 0.97337 0.0
C1354 C 0.5234 0.9907 0.02468 0.0
C1355 C 0.51322 0.01768 0.96935 0.0
C1356 C 0.51076 0.02953 1.01663 0.0
H1357 H 0.52122 0.98977 0.93617 0.0
H1358 H 0.511 0.02372 0.92905 0.0
S1359 S 0.51655 0.01399 0.16076 0.0
N1360 N 0.5226 0.99488 0.12376 0.0
N1361 N 0.51101 0.03099 0.11621 0.0
C1362 C 0.51409 0.02145 0.0682 0.0
C1363 C 0.52045 1.00202 0.07226 0.0
C1364 C 0.01987 0.492 1.01241 0.0
C1365 C 0.99537 0.48859 1.00971 0.0
C1366 C 0.04091 0.51615 0.01898 0.0
C1367 C 0.03808 0.53765 0.02262 0.0
H1368 H 0.02267 0.4758 1.01056 0.0
H1369 H 0.05948 0.51797 0.0223 0.0
S1370 S 0.97813 0.53896 1.01105 0.0
N1371 N 0.96947 0.50866 1.00669 0.0
N1372 N 1.00922 0.55423 0.01905 0.0
C1373 C 1.01373 0.53454 1.01859 0.0
C1374 C 0.99229 0.50995 1.01201 0.0
C1375 C 0.5036 0.49701 0.06056 0.0
C1376 C 0.49509 0.51254 0.03764 0.0
C1377 C 0.52902 0.50343 0.05638 0.0
C1378 C 0.54668 0.52551 0.02899 0.0
H1379 H 0.4904 0.47947 0.08051 0.0
H1380 H 0.53477 0.49066 0.07323 0.0
S1381 S 0.53488 0.57416 0.9681 0.0
N1382 N 0.50695 0.55231 0.99139 0.0
N1383 N 0.55468 0.56389 0.98251 0.0
C1384 C 0.53868 0.54159 1.00739 0.0
C1385 C 0.51287 0.53523 1.01201 0.0
C1386 C 0.21567 0.0804 0.05999 0.0
C1387 C 0.22798 0.09714 1.01626 0.0
C1388 C 0.21216 0.05577 0.0599 0.0
C1389 C 0.22045 0.04679 1.01572 0.0
H1390 H 0.20984 0.0868 0.09577 0.0
H1391 H 0.20335 0.04379 0.09516 0.0
S1392 S 0.25259 0.08278 0.88995 0.0
N1393 N 0.24754 0.10268 0.92665 0.0
N1394 N 0.24085 0.05649 0.92625 0.0
C1395 C 0.23186 0.06302 0.97074 0.0
C1396 C 0.23567 0.08815 0.97112 0.0
C1397 C 0.94416 0.14749 0.07283 0.0
C1398 C 0.93086 0.13767 0.02336 0.0
C1399 C 0.9678 0.16993 0.07361 0.0
C1400 C 0.97909 0.18291 0.02489 0.0
H1401 H 0.93557 0.13854 0.11143 0.0
H1402 H 0.977 0.17764 0.11256 0.0
S1403 S 0.95264 0.1647 0.88478 0.0
N1404 N 0.93101 0.14246 0.92451 0.0
N1405 N 0.97579 0.18416 0.926 0.0
C1406 C 0.96652 0.17277 0.97507 0.0
C1407 C 0.94229 0.15025 0.97431 0.0
C1408 C 0.88329 0.80197 0.07252 0.0
C1409 C 0.89431 0.80144 0.02204 0.0
C1410 C 0.8606 0.80276 0.07461 0.0
C1411 C 0.84848 0.80361 0.02636 0.0
H1412 H 0.89157 0.80042 0.11058 0.0
H1413 H 0.85209 0.80208 0.11407 0.0
S1414 S 0.86963 0.80285 0.88408 0.0
N1415 N 0.89134 0.8018 0.92281 0.0
N1416 N 0.84919 0.80412 0.92684 0.0
C1417 C 0.85972 0.80392 0.97574 0.0
C1418 C 0.88251 0.80261 0.97356 0.0
C1419 C 0.06938 0.22447 0.46373 0.0
C1420 C 0.05659 0.22356 0.51247 0.0
C1421 C 0.0928 0.22513 0.46493 0.0
C1422 C 0.10447 0.22546 0.51498 0.0
H1423 H 0.06129 0.22497 0.42457 0.0
H1424 H 0.10236 0.22647 0.42651 0.0
S1425 S 0.07901 0.22406 0.65394 0.0
N1426 N 0.05722 0.22303 0.61201 0.0
N1427 N 0.10156 0.22504 0.61433 0.0
C1428 C 0.09181 0.22447 0.56394 0.0
C1429 C 0.06777 0.2233 0.56268 0.0
C1430 C 0.78099 0.85915 0.53445 0.0
C1431 C 0.80138 0.88057 0.51039 0.0
C1432 C 0.78103 0.83619 0.53807 0.0
C1433 C 0.80162 0.83397 0.5185 0.0
H1434 H 0.76439 0.8598 0.54819 0.0
H1435 H 0.76469 0.81995 0.55568 0.0
S1436 S 0.86012 0.88491 0.45475 0.0
N1437 N 0.84299 0.89843 0.46834 0.0
N1438 N 0.8433 0.8554 0.47645 0.0
C1439 C 0.82255 0.85554 0.49652 0.0
C1440 C 0.82234 0.8788 0.49201 0.0
C1441 C 0.14912 0.94183 0.52649 0.0
C1442 C 0.14983 0.92181 0.49929 0.0
C1443 C 0.1704 0.96639 0.52702 0.0
C1444 C 0.19304 0.97192 0.49972 0.0
H1445 H 0.13221 0.93837 0.54846 0.0
H1446 H 0.16911 0.9812 0.54888 0.0
S1447 S 0.2042 0.92622 0.42061 0.0
N1448 N 0.17469 0.90937 0.44239 0.0
N1449 N 0.21462 0.95512 0.4445 0.0
C1450 C 0.19375 0.9521 0.47153 0.0
C1451 C 0.17219 0.92719 0.47106 0.0
C1452 C 0.77712 0.92693 0.99309 0.0
C1453 C 0.79838 0.92455 1.006 0.0
C1454 C 0.77835 0.95045 0.99257 0.0
C1455 C 0.80108 0.97307 1.00375 0.0
H1456 H 0.75911 0.91038 0.98316 0.0
H1457 H 0.76101 0.95061 0.98427 0.0
S1458 S 0.86307 0.97776 0.03525 0.0
N1459 N 0.84324 0.94708 0.02878 0.0
N1460 N 0.84611 0.99159 0.02395 0.0
C1461 C 0.82287 0.97117 1.0146 0.0
C1462 C 0.82143 0.94694 1.01635 0.0
C1463 C 0.08577 0.87465 0.99531 0.0
C1464 C 0.10837 0.87571 1.01247 0.0
C1465 C 0.0623 0.85211 0.99875 0.0
C1466 C 0.06064 0.82968 1.0184 0.0
H1467 H 0.08632 0.89128 0.97813 0.0
H1468 H 0.04543 0.85198 0.98428 0.0
S1469 S 0.114 0.82271 0.07108 0.0
N1470 N 0.12742 0.85257 0.05166 0.0
N1471 N 0.08342 0.81036 0.05852 0.0
C1472 C 0.08299 0.83068 0.03714 0.0
C1473 C 0.10681 0.85366 0.03414 0.0
C1474 C 0.17265 0.2088 1.01439 0.0
C1475 C 0.19625 0.22992 1.0 0.0
C1476 C 0.15015 0.21006 1.0149 0.0
C1477 C 0.15028 0.23248 1.00099 0.0
H1478 H 0.17151 0.19111 0.02559 0.0
H1479 H 0.13264 0.19351 0.02732 0.0
S1480 S 0.20614 0.29273 0.95617 0.0
N1481 N 0.21767 0.27404 0.97048 0.0
N1482 N 0.17543 0.27557 0.96761 0.0
C1483 C 0.17343 0.25339 0.9844 0.0
C1484 C 0.19635 0.25233 0.98485 0.0
C1485 C 0.94059 0.78872 0.57563 0.0
C1486 C 0.93159 0.7958 0.52983 0.0
C1487 C 0.96417 0.7898 0.57447 0.0
C1488 C 0.97969 0.79811 0.52757 0.0
H1489 H 0.92888 0.78144 0.61197 0.0
H1490 H 0.97012 0.78357 0.61011 0.0
S1491 S 0.96432 0.81823 0.39646 0.0
N1492 N 0.9397 0.81123 0.43633 0.0
N1493 N 0.98406 0.8133 0.4338 0.0
C1494 C 0.97108 0.80577 0.48183 0.0
C1495 C 0.94698 0.80456 0.48303 0.0
C1496 C 0.25565 0.16294 0.49694 0.0
C1497 C 0.23374 0.14069 0.51363 0.0
C1498 C 0.25641 0.18635 0.49602 0.0
C1499 C 0.23526 0.18854 0.51157 0.0
H1500 H 0.27273 0.16248 0.4866 0.0
H1501 H 0.27382 0.2029 0.48331 0.0
S1502 S 0.17268 0.13569 0.55504 0.0
N1503 N 0.18981 0.12208 0.54277 0.0
N1504 N 0.19143 0.1661 0.54223 0.0
C1505 C 0.21295 0.16629 0.52654 0.0
C1506 C 0.21215 0.14242 0.52738 0.0
C1507 C 0.8652 0.09191 0.55255 0.0
C1508 C 0.8882 0.09765 0.52682 0.0
C1509 C 0.8444 0.06728 0.55272 0.0
C1510 C 0.84555 0.04712 0.52724 0.0
H1511 H 0.86321 0.10664 0.573 0.0
H1512 H 0.82706 0.06416 0.5721 0.0
S1513 S 0.90169 0.05166 0.4562 0.0
N1514 N 0.9111 0.08097 0.47617 0.0
N1515 N 0.87209 0.03441 0.47746 0.0
C1516 C 0.86857 0.05242 0.50217 0.0
C1517 C 0.88987 0.07767 0.50196 0.0
C1518 C 0.89706 0.39565 0.41051 0.0
C1519 C 0.89461 0.3823 0.36169 0.0
C1520 C 0.89817 0.41922 0.40974 0.0
C1521 C 0.89726 0.43038 0.36002 0.0
H1522 H 0.89862 0.38798 0.44933 0.0
H1523 H 0.90088 0.42933 0.44806 0.0
S1524 S 0.89176 0.40352 0.2209 0.0
N1525 N 0.89142 0.38197 0.26233 0.0
N1526 N 0.8941 0.42655 0.26091 0.0
C1527 C 0.89456 0.41713 0.31102 0.0
C1528 C 0.89305 0.39298 0.31184 0.0
C1529 C 0.60432 0.49369 0.40849 0.0
C1530 C 0.59686 0.47487 0.36787 0.0
C1531 C 0.62776 0.51612 0.40568 0.0
C1532 C 0.64466 0.52071 0.36204 0.0
H1533 H 0.59156 0.49134 0.44189 0.0
H1534 H 0.63248 0.53034 0.43723 0.0
S1535 S 0.63383 0.47722 0.24509 0.0
N1536 N 0.60811 0.46186 0.28325 0.0
N1537 N 0.65214 0.50425 0.27717 0.0
C1538 C 0.6377 0.50165 0.32187 0.0
C1539 C 0.61378 0.47868 0.32498 0.0
C1540 C 0.54568 0.13445 0.31752 0.0
C1541 C 0.554 0.1284 0.36587 0.0
C1542 C 0.52316 0.13559 0.31685 0.0
C1543 C 0.50803 0.13014 0.36421 0.0
H1544 H 0.55622 0.13753 0.27974 0.0
H1545 H 0.51691 0.13961 0.27857 0.0
S1546 S 0.52244 0.11489 0.50153 0.0
N1547 N 0.54621 0.11827 0.46268 0.0
N1548 N 0.50366 0.11987 0.461 0.0
C1549 C 0.51655 0.12474 0.41293 0.0
C1550 C 0.5396 0.12399 0.41386 0.0
C1551 C 0.75115 0.54268 0.86074 0.0
C1552 C 0.77139 0.56354 0.83468 0.0
C1553 C 0.72652 0.5393 0.86027 0.0
C1554 C 0.72112 0.55648 0.83319 0.0
H1555 H 0.75448 0.5292 0.88266 0.0
H1556 H 0.71156 0.52312 0.88139 0.0
S1557 S 0.76747 0.61363 0.75645 0.0
N1558 N 0.78417 0.60089 0.77855 0.0
N1559 N 0.73838 0.59508 0.77919 0.0
C1560 C 0.74118 0.57713 0.806 0.0
C1561 C 0.76615 0.58052 0.8064 0.0
C1562 C 0.47396 0.2068 0.80157 0.0
C1563 C 0.47346 0.21834 0.85134 0.0
C1564 C 0.47431 0.18391 0.80091 0.0
C1565 C 0.4747 0.17209 0.84995 0.0
H1566 H 0.47281 0.21488 0.76293 0.0
H1567 H 0.47379 0.17509 0.76193 0.0
S1568 S 0.47386 0.19469 0.99088 0.0
N1569 N 0.47339 0.21623 0.95074 0.0
N1570 N 0.47483 0.17366 0.94948 0.0
C1571 C 0.47501 0.18383 0.89991 0.0
C1572 C 0.47416 0.20684 0.9006 0.0
C1573 C 0.84416 0.29688 0.88872 0.0
C1574 C 0.85858 0.3073 0.84079 0.0
C1575 C 0.8216 0.27335 0.88754 0.0
C1576 C 0.81245 0.25983 0.83817 0.0
H1577 H 0.851 0.30646 0.92771 0.0
H1578 H 0.81168 0.2653 0.92564 0.0
S1579 S 0.84213 0.27976 0.70109 0.0
N1580 N 0.86151 0.30286 0.74256 0.0
N1581 N 0.81886 0.25893 0.74008 0.0
C1582 C 0.82615 0.27052 0.78976 0.0
C1583 C 0.84929 0.29419 0.79113 0.0
C1584 C 0.4773 0.29659 0.39219 0.0
C1585 C 0.47402 0.30638 0.34257 0.0
C1586 C 0.47578 0.27284 0.39395 0.0
C1587 C 0.47156 0.25847 0.34595 0.0
H1588 H 0.47992 0.30687 0.43019 0.0
H1589 H 0.47726 0.26538 0.43315 0.0
S1590 S 0.46299 0.27615 0.20569 0.0
N1591 N 0.46709 0.30021 0.24444 0.0
N1592 N 0.46478 0.25583 0.24748 0.0
C1593 C 0.4691 0.2684 0.29596 0.0
C1594 C 0.47019 0.29231 0.29433 0.0
C1595 C 0.75775 0.20364 0.29411 0.0
C1596 C 0.77037 0.21512 0.34334 0.0
C1597 C 0.73404 0.18128 0.29448 0.0
C1598 C 0.72192 0.16998 0.34405 0.0
H1599 H 0.76677 0.21143 0.25508 0.0
H1600 H 0.72522 0.1725 0.25586 0.0
S1601 S 0.74691 0.1926 0.48391 0.0
N1602 N 0.76908 0.21346 0.44281 0.0
N1603 N 0.72418 0.17191 0.44349 0.0
C1604 C 0.73403 0.18163 0.39349 0.0
C1605 C 0.75837 0.20408 0.39313 0.0
C1606 C 0.85914 0.5822 0.32952 0.0
C1607 C 0.85871 0.55928 0.33989 0.0
C1608 C 0.83706 0.58384 0.33068 0.0
C1609 C 0.81328 0.5628 0.34344 0.0
H1610 H 0.87676 0.59941 0.32138 0.0
H1611 H 0.83878 0.60199 0.32135 0.0
S1612 S 0.80094 0.49778 0.37084 0.0
N1613 N 0.83178 0.51436 0.35955 0.0
N1614 N 0.79042 0.51793 0.36508 0.0
C1615 C 0.81227 0.53955 0.35298 0.0
C1616 C 0.83489 0.53772 0.35074 0.0
C1617 C 0.61055 0.13065 0.90963 0.0
C1618 C 0.59688 0.12757 0.86098 0.0
C1619 C 0.63447 0.13245 0.90847 0.0
C1620 C 0.64572 0.13183 0.85859 0.0
H1621 H 0.60221 0.1306 0.94897 0.0
H1622 H 0.64411 0.13392 0.94673 0.0
S1623 S 0.61808 0.12455 0.71998 0.0
N1624 N 0.5964 0.12407 0.76169 0.0
N1625 N 0.64174 0.1283 0.75951 0.0
C1626 C 0.63262 0.12951 0.80963 0.0
C1627 C 0.60806 0.12714 0.81084 0.0
C1628 C 0.89091 0.50305 0.81737 0.0
C1629 C 0.8945 0.51702 0.86597 0.0
C1630 C 0.89253 0.48083 0.81733 0.0
C1631 C 0.89718 0.47162 0.8661 0.0
H1632 H 0.88807 0.51003 0.77881 0.0
H1633 H 0.8909 0.47122 0.7788 0.0
S1634 S 0.90618 0.50024 1.00442 0.0
N1635 N 0.90186 0.51949 0.96409 0.0
N1636 N 0.90432 0.47746 0.9643 0.0
C1637 C 0.89976 0.48484 0.91515 0.0
C1638 C 0.89856 0.50762 0.91502 0.0
C1639 C 0.5281 0.38701 0.87431 0.0
C1640 C 0.50655 0.38528 0.84919 0.0
C1641 C 0.55081 0.41032 0.87814 0.0
C1642 C 0.55292 0.43261 0.8559 0.0
H1643 H 0.52703 0.37043 0.89304 0.0
H1644 H 0.56666 0.41106 0.89994 0.0
S1645 S 0.50259 0.43742 0.78077 0.0
N1646 N 0.48924 0.40727 0.79792 0.0
N1647 N 0.5318 0.45099 0.80498 0.0
C1648 C 0.53184 0.43077 0.82814 0.0
C1649 C 0.50868 0.40715 0.82489 0.0
C1650 C 0.57537 0.73296 0.7378 0.0
C1651 C 0.56416 0.71619 0.69347 0.0
C1652 C 0.5763 0.75641 0.7395 0.0
C1653 C 0.56604 0.76402 0.69694 0.0
H1654 H 0.5841 0.72816 0.77073 0.0
H1655 H 0.586 0.76915 0.77342 0.0
S1656 S 0.5348 0.72745 0.57136 0.0
N1657 N 0.54253 0.70899 0.60577 0.0
N1658 N 0.5442 0.75308 0.60949 0.0
C1659 C 0.55411 0.74724 0.65316 0.0
C1660 C 0.55315 0.72329 0.65131 0.0
C1661 C 0.29134 0.84855 0.6491 0.0
C1662 C 0.30994 0.85377 0.68897 0.0
C1663 C 0.2676 0.82638 0.65131 0.0
C1664 C 0.26135 0.80869 0.69403 0.0
H1665 H 0.29506 0.86208 0.61672 0.0
H1666 H 0.25376 0.82342 0.62006 0.0
S1667 S 0.30408 0.81395 0.80823 0.0
N1668 N 0.32126 0.83957 0.7711 0.0
N1669 N 0.27638 0.79817 0.77694 0.0
C1670 C 0.28025 0.81347 0.73331 0.0
C1671 C 0.30458 0.83597 0.73043 0.0
C1672 C 0.21192 0.46704 0.64681 0.0
C1673 C 0.21783 0.45665 0.69195 0.0
C1674 C 0.18904 0.46755 0.6451 0.0
C1675 C 0.17118 0.45732 0.68806 0.0
H1676 H 0.22519 0.47511 0.61311 0.0
H1677 H 0.18509 0.4756 0.60956 0.0
S1678 S 0.17754 0.42741 0.81458 0.0
N1679 N 0.20383 0.43551 0.77995 0.0
N1680 N 0.16111 0.43653 0.77668 0.0
C1681 C 0.17686 0.44669 0.73298 0.0
C1682 C 0.2001 0.44634 0.73493 0.0
C1683 C 0.40762 0.9028 0.13164 0.0
C1684 C 0.39072 0.89028 0.17501 0.0
C1685 C 0.43109 0.90384 0.12836 0.0
C1686 C 0.43865 0.89239 0.16833 0.0
H1687 H 0.40299 0.9127 0.1011 0.0
H1688 H 0.44395 0.91466 0.09551 0.0
S1689 S 0.4013 0.8566 0.28935 0.0
N1690 N 0.38297 0.86551 0.25812 0.0
N1691 N 0.42719 0.86738 0.25151 0.0
C1692 C 0.42157 0.87878 0.21054 0.0
C1693 C 0.39755 0.87773 0.21398 0.0
C1694 C 0.12522 0.5101 0.13221 0.0
C1695 C 0.13745 0.50483 0.17469 0.0
C1696 C 0.12417 0.53252 0.13188 0.0
C1697 C 0.13532 0.55058 0.17404 0.0
H1698 H 0.11564 0.49631 0.09994 0.0
H1699 H 0.11367 0.53534 0.09947 0.0
S1700 S 0.16998 0.54632 0.29427 0.0
N1701 N 0.16139 0.51989 0.2597 0.0
N1702 N 0.15954 0.56224 0.25853 0.0
C1703 C 0.14851 0.54617 0.21561 0.0
C1704 C 0.14957 0.52323 0.21606 0.0
C1705 C 0.4806 0.60964 0.1876 0.0
C1706 C 0.48103 0.58751 0.17266 0.0
C1707 C 0.50289 0.6336 0.18652 0.0
C1708 C 0.52643 0.63638 0.17031 0.0
H1709 H 0.46306 0.60837 0.20121 0.0
H1710 H 0.50167 0.65008 0.19851 0.0
S1711 S 0.53733 0.58402 0.12575 0.0
N1712 N 0.50664 0.57014 0.1377 0.0
N1713 N 0.54839 0.61417 0.1401 0.0
C1714 C 0.52689 0.61423 0.15492 0.0
C1715 C 0.50426 0.59013 0.15489 0.0
C1716 C 0.14318 0.62746 0.63116 0.0
C1717 C 0.14247 0.63939 0.68006 0.0
C1718 C 0.14195 0.6038 0.63184 0.0
C1719 C 0.1394 0.59098 0.68144 0.0
H1720 H 0.14412 0.63629 0.59211 0.0
H1721 H 0.14169 0.59488 0.59314 0.0
S1722 S 0.13644 0.61405 0.82066 0.0
N1723 N 0.13946 0.63683 0.77939 0.0
N1724 N 0.13641 0.59208 0.78063 0.0
C1725 C 0.13905 0.6029 0.73064 0.0
C1726 C 0.14081 0.62719 0.72999 0.0
C1727 C 0.4229 0.54169 0.63734 0.0
C1728 C 0.43709 0.55064 0.68606 0.0
C1729 C 0.39909 0.51947 0.63683 0.0
C1730 C 0.38843 0.5057 0.68516 0.0
H1731 H 0.43072 0.55136 0.59892 0.0
H1732 H 0.38899 0.51284 0.59836 0.0
S1733 S 0.41764 0.52136 0.82357 0.0
N1734 N 0.43861 0.54416 0.78389 0.0
N1735 N 0.39375 0.50269 0.78311 0.0
C1736 C 0.40212 0.51481 0.73438 0.0
C1737 C 0.42649 0.53719 0.73475 0.0
C1738 C 0.48209 0.87429 0.68719 0.0
C1739 C 0.4819 0.89707 0.67939 0.0
C1740 C 0.50492 0.87359 0.68551 0.0
C1741 C 0.52851 0.8956 0.67575 0.0
H1742 H 0.46453 0.85696 0.69545 0.0
H1743 H 0.50405 0.85561 0.69179 0.0
S1744 S 0.538 0.96 0.65031 0.0
N1745 N 0.50712 0.94186 0.65779 0.0
N1746 N 0.54975 0.94105 0.65864 0.0
C1747 C 0.52839 0.91847 0.66739 0.0
C1748 C 0.5052 0.91905 0.66817 0.0
C1749 C 0.28404 0.47997 0.18855 0.0
C1750 C 0.26072 0.45721 0.19255 0.0
C1751 C 0.30729 0.48013 0.1904 0.0
C1752 C 0.30822 0.45757 0.19642 0.0
H1753 H 0.28433 0.49774 0.18325 0.0
H1754 H 0.3247 0.49812 0.18723 0.0
S1755 S 0.25209 0.39289 0.21099 0.0
N1756 N 0.24005 0.41174 0.20682 0.0
N1757 N 0.28299 0.41163 0.20555 0.0
C1758 C 0.28485 0.43469 0.20076 0.0
C1759 C 0.26137 0.43464 0.20007 0.0
C1760 C 0.58933 0.8542 0.22447 0.0
C1761 C 0.56803 0.85395 0.20095 0.0
C1762 C 0.59163 0.83253 0.22659 0.0
C1763 C 0.57312 0.80926 0.20423 0.0
H1764 H 0.60495 0.87135 0.24087 0.0
H1765 H 0.60843 0.83424 0.2459 0.0
S1766 S 0.51236 0.79677 0.1419 0.0
N1767 N 0.52655 0.82698 0.15927 0.0
N1768 N 0.53194 0.78673 0.15995 0.0
C1769 C 0.55128 0.80819 0.18192 0.0
C1770 C 0.54857 0.83035 0.1808 0.0
C1771 C 0.17494 0.74162 0.20603 0.0
C1772 C 0.17489 0.71866 0.19865 0.0
C1773 C 0.19747 0.76501 0.20539 0.0
C1774 C 0.22121 0.76681 0.19665 0.0
H1775 H 0.15738 0.74176 0.21144 0.0
H1776 H 0.19618 0.78191 0.21212 0.0
S1777 S 0.23214 0.71256 0.17762 0.0
N1778 N 0.20115 0.69929 0.18548 0.0
N1779 N 0.24336 0.7434 0.18148 0.0
C1780 C 0.22164 0.74407 0.18995 0.0
C1781 C 0.19859 0.72006 0.19135 0.0
C1782 C 0.26058 0.25138 0.23838 0.0
C1783 C 0.24406 0.22835 0.2118 0.0
C1784 C 0.25459 0.25757 0.28994 0.0
C1785 C 0.23182 0.24101 0.31719 0.0
H1786 H 0.27849 0.26465 0.2196 0.0
H1787 H 0.26796 0.27551 0.30854 0.0
S1788 S 0.18173 0.17848 0.26496 0.0
N1789 N 0.20364 0.18909 0.21669 0.0
N1790 N 0.1925 0.20058 0.31291 0.0
C1791 C 0.21505 0.218 0.29082 0.0
C1792 C 0.22112 0.21174 0.2384 0.0
C1793 C 0.8165 0.01939 0.24122 0.0
C1794 C 0.79947 0.02503 0.21445 0.0
C1795 C 0.81116 1.00821 0.29329 0.0
C1796 C 0.78859 1.00223 0.32128 0.0
H1797 H 0.83419 0.02357 0.22179 0.0
H1798 H 0.82479 1.0039 0.31143 0.0
S1799 S 0.73776 0.01359 0.27012 0.0
N1800 N 0.75914 0.02418 0.22062 0.0
N1801 N 0.74913 1.00312 0.31846 0.0
C1802 C 0.77151 1.00811 0.29553 0.0
C1803 C 0.77691 0.01944 0.24216 0.0
C1804 C 0.02166 0.80906 0.29518 0.0
C1805 C 0.02744 0.79211 0.32189 0.0
C1806 C 1.01003 0.80345 0.24331 0.0
C1807 C 1.00376 0.7807 0.2158 0.0
H1808 H 0.02633 0.82695 0.31424 0.0
H1809 H 1.00591 0.8171 0.22472 0.0
S1810 S 1.01471 0.72976 0.26793 0.0
N1811 N 0.02577 0.75144 0.31679 0.0
N1812 N 1.0041 0.74099 0.21967 0.0
C1813 C 1.00932 0.76352 0.24217 0.0
C1814 C 0.02106 0.76918 0.29507 0.0
C1815 C 0.81439 0.81095 0.80002 0.0
C1816 C 0.79157 0.7945 0.82714 0.0
C1817 C 0.81991 0.80507 0.74786 0.0
C1818 C 0.80277 0.78257 0.72046 0.0
H1819 H 0.82811 0.82862 0.81906 0.0
H1820 H 0.83782 0.81829 0.72899 0.0
S1821 S 0.74033 0.73295 0.77364 0.0
N1822 N 0.75175 0.75458 0.8226 0.0
N1823 N 0.762 0.74364 0.72482 0.0
C1824 C 0.7799 0.76591 0.74718 0.0
C1825 C 0.77435 0.77182 0.80043 0.0
C1826 C 0.22479 0.0142 0.73922 0.0
C1827 C 0.24844 0.0229 0.71372 0.0
C1828 C 0.2197 1.00317 0.79133 0.0
C1829 C 0.23807 1.00046 0.82078 0.0
H1830 H 0.20993 0.0159 0.71877 0.0
H1831 H 0.20102 0.99658 0.80853 0.0
S1832 S 0.30344 0.02082 0.77343 0.0
N1833 N 0.29076 0.02852 0.72249 0.0
N1834 N 0.28116 1.00781 0.82082 0.0
C1835 C 0.26198 1.00936 0.79627 0.0
C1836 C 0.26714 0.02048 0.74266 0.0
C1837 C 0.02267 0.21628 0.79405 0.0
C1838 C 0.02798 0.23865 0.82215 0.0
C1839 C 1.01169 0.21083 0.74148 0.0
C1840 C 1.0057 0.22756 0.71453 0.0
H1841 H 0.02712 0.20287 0.81263 0.0
H1842 H 1.00783 0.19327 0.72193 0.0
S1843 S 1.01571 0.28873 0.77012 0.0
N1844 N 0.02624 0.27763 0.81881 0.0
N1845 N 1.00585 0.26749 0.72038 0.0
C1846 C 1.01095 0.25002 0.74212 0.0
C1847 C 0.02197 0.2555 0.79578 0.0
C1848 C 0.92702 0.58125 0.57621 0.0
C1849 C 0.90999 0.55878 0.54852 0.0
C1850 C 0.92163 0.58674 0.62901 0.0
C1851 C 0.89896 0.57002 0.65636 0.0
H1852 H 0.94482 0.59467 0.55724 0.0
H1853 H 0.93527 0.6044 0.64821 0.0
S1854 S 0.84796 0.50852 0.60205 0.0
N1855 N 0.86942 0.51965 0.55281 0.0
N1856 N 0.85938 0.52989 0.65152 0.0
C1857 C 0.88179 0.54746 0.62916 0.0
C1858 C 0.88726 0.54188 0.57545 0.0
C1859 C 0.48411 0.3478 0.57659 0.0
C1860 C 0.46684 0.35273 0.54852 0.0
C1861 C 0.47826 0.33604 0.62824 0.0
C1862 C 0.45495 0.32882 0.65424 0.0
H1863 H 0.50245 0.35326 0.55879 0.0
H1864 H 0.49221 0.33264 0.64794 0.0
S1865 S 0.40291 0.33718 0.59811 0.0
N1866 N 0.4252 0.34914 0.55066 0.0
N1867 N 0.41433 0.32727 0.64741 0.0
C1868 C 0.43745 0.33353 0.62652 0.0
C1869 C 0.44334 0.34537 0.5738 0.0
C1870 C 0.69 0.14483 0.62643 0.0
C1871 C 0.69606 0.12821 0.6537 0.0
C1872 C 0.67828 0.13884 0.57468 0.0
C1873 C 0.67221 0.11602 0.54774 0.0
H1874 H 0.69442 0.16273 0.64506 0.0
H1875 H 0.67389 0.15224 0.55577 0.0
S1876 S 0.68403 0.06587 0.60126 0.0
N1877 N 0.695 0.08781 0.6496 0.0
N1878 N 0.67314 0.07664 0.5526 0.0
C1879 C 0.67821 0.09923 0.57446 0.0
C1880 C 0.69003 0.10527 0.62733 0.0
C1881 C 0.43901 0.10689 0.13076 0.0
C1882 C 0.4552 0.13022 0.15652 0.0
C1883 C 0.44491 0.10078 0.07908 0.0
C1884 C 0.46727 0.11772 0.05102 0.0
H1885 H 0.42161 0.09317 0.15065 0.0
H1886 H 0.43201 0.08243 0.06146 0.0
S1887 S 0.51562 0.18178 0.09922 0.0
N1888 N 0.49433 0.17069 0.14878 0.0
N1889 N 0.50529 0.15923 0.05233 0.0
C1890 C 0.48344 0.14125 0.07596 0.0
C1891 C 0.47746 0.14748 0.12846 0.0
C1892 C 0.88545 0.34058 0.13179 0.0
C1893 C 0.90208 0.33441 0.15876 0.0
C1894 C 0.89116 0.35191 0.07969 0.0
C1895 C 0.91369 0.35746 0.05199 0.0
H1896 H 0.86773 0.33651 0.1509 0.0
H1897 H 0.87774 0.35639 0.06107 0.0
S1898 S 0.96382 0.34527 0.10462 0.0
N1899 N 0.94225 0.33492 0.15367 0.0
N1900 N 0.95288 0.35604 0.05604 0.0
C1901 C 0.93054 0.35147 0.07855 0.0
C1902 C 0.92479 0.34005 0.13179 0.0
C1903 C 0.68283 0.54928 0.07331 0.0
C1904 C 0.67729 0.56613 0.04538 0.0
C1905 C 0.6937 0.55485 0.12579 0.0
C1906 C 0.69948 0.57752 0.15295 0.0
H1907 H 0.67832 0.5313 0.05491 0.0
H1908 H 0.69744 0.54112 0.1453 0.0
S1909 S 0.68937 0.62848 0.09748 0.0
N1910 N 0.6789 0.60677 0.04862 0.0
N1911 N 0.69939 0.61732 0.14717 0.0
C1912 C 0.69443 0.59478 0.12524 0.0
C1913 C 0.6834 0.58911 0.07152 0.0
C1914 C 0.55382 0.88435 0.96011 0.0
C1915 C 0.57072 0.90692 0.98763 0.0
C1916 C 0.55935 0.8787 0.9077 0.0
C1917 C 0.58196 0.89543 0.88019 0.0
H1918 H 0.53602 0.87089 0.97903 0.0
H1919 H 0.54574 0.86097 0.88869 0.0
S1920 S 0.63272 0.95717 0.93402 0.0
N1921 N 0.61118 0.94616 0.98314 0.0
N1922 N 0.62149 0.93563 0.88485 0.0
C1923 C 0.59906 0.91811 0.90717 0.0
C1924 C 0.59349 0.9238 0.96076 0.0
C1925 C 0.10614 0.6717 0.96351 0.0
C1926 C 0.12271 0.6651 0.98932 0.0
C1927 C 0.11095 0.68194 0.91035 0.0
C1928 C 0.13259 0.68609 0.88086 0.0
H1929 H 0.08921 0.66889 0.98443 0.0
H1930 H 0.09789 0.68717 0.89282 0.0
S1931 S 0.18143 0.67098 0.9284 0.0
N1932 N 0.1613 0.66273 0.98006 0.0
N1933 N 0.17031 0.68196 0.88069 0.0
C1934 C 0.14913 0.67924 0.90579 0.0
C1935 C 0.14422 0.66879 0.95982 0.0
C1936 C 0.34059 0.42943 0.91628 0.0
C1937 C 0.33793 0.44768 0.88635 0.0
C1938 C 0.35195 0.43499 0.96869 0.0
C1939 C 0.36102 0.45899 0.99318 0.0
H1940 H 0.33343 0.41058 0.89962 0.0
H1941 H 0.35361 0.42036 0.99011 0.0
S1942 S 0.36001 0.51393 0.93011 0.0
N1943 N 0.34648 0.49113 0.88411 0.0
N1944 N 0.3673 0.50142 0.98186 0.0
C1945 C 0.35874 0.47746 0.96311 0.0
C1946 C 0.34738 0.47186 0.90995 0.0
C1947 C 0.14239 0.47717 0.45752 0.0
C1948 C 0.11972 0.4603 0.4847 0.0
C1949 C 0.14853 0.47128 0.40598 0.0
C1950 C 0.13227 0.44827 0.37916 0.0
H1951 H 0.15555 0.49521 0.47604 0.0
H1952 H 0.16627 0.48493 0.38713 0.0
S1953 S 0.07054 0.39741 0.43249 0.0
N1954 N 0.08091 0.41946 0.48059 0.0
N1955 N 0.0924 0.40843 0.38404 0.0
C1956 C 0.10951 0.43121 0.40579 0.0
C1957 C 0.10327 0.4372 0.4584 0.0
C1958 C 0.59281 0.67672 0.40536 0.0
C1959 C 0.57732 0.68474 0.37968 0.0
C1960 C 0.58708 0.66581 0.45802 0.0
C1961 C 0.56558 0.6624 0.48722 0.0
H1962 H 0.60975 0.67922 0.38504 0.0
H1963 H 0.59955 0.65987 0.47578 0.0
S1964 S 0.51877 0.68015 0.4386 0.0
N1965 N 0.53937 0.68832 0.38791 0.0
N1966 N 0.52877 0.66805 0.48623 0.0
C1967 C 0.54989 0.67025 0.46192 0.0
C1968 C 0.55569 0.68131 0.40841 0.0
C1969 C 0.34614 0.87871 0.41213 0.0
C1970 C 0.33986 0.89536 0.38572 0.0
C1971 C 0.35815 0.88454 0.46363 0.0
C1972 C 0.36437 0.90727 0.49117 0.0
H1973 H 0.34168 0.86089 0.39301 0.0
H1974 H 0.36264 0.87108 0.48186 0.0
S1975 S 0.35209 0.95749 0.44 0.0
N1976 N 0.34089 0.93571 0.39132 0.0
N1977 N 0.36332 0.94662 0.48774 0.0
C1978 C 0.35822 0.92413 0.46523 0.0
C1979 C 0.34604 0.91821 0.41269 0.0
C1980 C 0.34908 0.24757 0.99251 0.0
C1981 C 0.32667 0.23708 0.9611 0.0
C1982 C 0.37325 0.26046 0.9677 0.0
C1983 C 0.37623 0.26362 0.91026 0.0
H1984 H 0.34801 0.24554 0.0367 0.0
H1985 H 0.38975 0.26782 0.99401 0.0
S1986 S 0.32366 0.2415 0.80944 0.0
N1987 N 0.30922 0.23189 0.86915 0.0
N1988 N 0.35428 0.25613 0.82309 0.0
C1989 C 0.35396 0.25367 0.87849 0.0
C1990 C 0.32937 0.24045 0.90368 0.0
C1991 C 0.78996 0.09778 0.90344 0.0
C1992 C 0.7897 0.0946 0.96085 0.0
C1993 C 0.77777 0.10968 0.8785 0.0
C1994 C 0.76482 0.11919 0.90968 0.0
H1995 H 0.79975 0.09106 0.87717 0.0
H1996 H 0.77877 0.11161 0.8343 0.0
S1997 S 0.75772 0.1153 0.06153 0.0
N1998 N 0.77459 0.10156 0.04796 0.0
N1999 N 0.75218 0.12411 1.00165 0.0
C2000 C 0.76426 0.11602 0.96715 0.0
C2001 C 0.77652 0.10373 0.9925 0.0
C2002 C 0.92364 0.67377 0.88003 0.0
C2003 C 0.91259 0.65154 0.91186 0.0
C2004 C 0.9357 0.69802 0.90444 0.0
C2005 C 0.93738 0.70133 0.96196 0.0
H2006 H 0.92285 0.67252 0.8357 0.0
H2007 H 0.94368 0.71433 0.87768 0.0
S2008 S 0.91218 0.64941 0.06443 0.0
N2009 N 0.90458 0.63465 1.00467 0.0
N2010 N 0.92724 0.6799 0.05002 0.0
C2011 C 0.9266 0.67926 0.99431 0.0
C2012 C 0.91426 0.65455 0.96949 0.0
C2013 C 0.23498 0.3352 0.56846 0.0
C2014 C 0.24525 0.31945 0.57921 0.0
C2015 C 0.24116 0.35667 0.60136 0.0
C2016 C 0.2585 0.36381 0.64533 0.0
H2017 H 0.22112 0.33025 0.53607 0.0
H2018 H 0.23199 0.3676 0.59271 0.0
S2019 S 0.29198 0.32992 0.68835 0.0
N2020 N 0.27423 0.31304 0.63618 0.0
N2021 N 0.28662 0.35379 0.69598 0.0
C2022 C 0.26977 0.34888 0.65482 0.0
C2023 C 0.26293 0.32663 0.62239 0.0
C2024 C 0.67959 0.90199 0.64534 0.0
C2025 C 0.65886 0.90248 0.62126 0.0
C2026 C 0.70261 0.91066 0.61676 0.0
C2027 C 0.70619 0.92089 0.56349 0.0
H2028 H 0.67769 0.8938 0.68557 0.0
H2029 H 0.71761 0.90888 0.63626 0.0
S2030 S 0.65848 0.92816 0.48358 0.0
N2031 N 0.64382 0.915 0.5416 0.0
N2032 N 0.68724 0.93199 0.48896 0.0
C2033 C 0.68603 0.92259 0.53998 0.0
C2034 C 0.66236 0.91318 0.56852 0.0
C2035 C 0.09817 0.77866 0.63012 0.0
C2036 C 0.09631 0.7793 0.57245 0.0
C2037 C 0.10995 0.76652 0.6558 0.0
C2038 C 0.12071 0.75459 0.62517 0.0
H2039 H 0.09062 0.7878 0.65602 0.0
H2040 H 0.11097 0.76693 0.70014 0.0
S2041 S 0.11966 0.74918 0.47309 0.0
N2042 N 0.10523 0.76549 0.48572 0.0
N2043 N 0.12761 0.74322 0.53355 0.0
C2044 C 0.11858 0.75464 0.5675 0.0
C2045 C 0.10637 0.7668 0.54135 0.0
C2046 C 0.70772 0.77966 0.13582 0.0
C2047 C 0.71094 0.78107 0.07829 0.0
C2048 C 0.68346 0.7677 0.16022 0.0
C2049 C 0.6612 0.7568 0.12831 0.0
H2050 H 0.72409 0.78809 0.16258 0.0
H2051 H 0.68223 0.76749 0.20452 0.0
S2052 S 0.65875 0.75334 0.97595 0.0
N2053 N 0.68931 0.76876 0.99028 0.0
N2054 N 0.64408 0.74699 0.0357 0.0
C2055 C 0.6641 0.75754 0.07076 0.0
C2056 C 0.68879 0.76944 0.04594 0.0
C2057 C 0.25047 0.90081 0.14063 0.0
C2058 C 0.27621 0.90992 0.12857 0.0
C2059 C 0.23575 0.90806 0.1091 0.0
C2060 C 0.24629 0.92531 0.06524 0.0
H2061 H 0.24122 0.88688 0.17262 0.0
H2062 H 0.2157 0.89948 0.11813 0.0
S2063 S 0.31324 0.95625 0.01959 0.0
N2064 N 0.31187 0.93807 0.07108 0.0
N2065 N 0.28445 0.95226 1.01347 0.0
C2066 C 0.2723 0.93563 0.05475 0.0
C2067 C 0.28715 0.92776 0.0859 0.0
C2068 C 0.0961 0.3237 0.13113 0.0
C2069 C 0.09372 0.31998 0.07371 0.0
C2070 C 0.1079 0.34811 0.15482 0.0
C2071 C 0.11781 0.37011 0.12237 0.0
H2072 H 0.08884 0.30758 0.15836 0.0
H2073 H 0.1091 0.34968 0.19911 0.0
S2074 S 0.117 0.37118 0.96973 0.0
N2075 N 0.10269 0.3408 0.98505 0.0
N2076 N 0.12468 0.38634 0.02902 0.0
C2077 C 0.11563 0.36669 0.06483 0.0
C2078 C 0.10369 0.34182 0.04073 0.0
C2079 C 0.77474 0.67504 0.38458 0.0
C2080 C 0.76116 0.65271 0.41554 0.0
C2081 C 0.78781 0.69906 0.40978 0.0
C2082 C 0.78802 0.70203 0.46727 0.0
H2083 H 0.77543 0.67405 0.34031 0.0
H2084 H 0.79796 0.71545 0.38367 0.0
S2085 S 0.7551 0.64979 0.56763 0.0
N2086 N 0.74859 0.63538 0.5075 0.0
N2087 N 0.77291 0.68025 0.55436 0.0
C2088 C 0.77437 0.67989 0.49877 0.0
C2089 C 0.76104 0.6554 0.47313 0.0
C2090 C 0.35948 0.12695 0.40001 0.0
C2091 C 0.37653 0.11884 0.41582 0.0
C2092 C 0.33715 0.12005 0.43019 0.0
C2093 C 0.33049 0.10413 0.47644 0.0
H2094 H 0.36397 0.13964 0.36555 0.0
H2095 H 0.32511 0.1275 0.41752 0.0
S2096 S 0.36794 0.07664 0.53309 0.0
N2097 N 0.38482 0.09354 0.48017 0.0
N2098 N 0.34254 0.07981 0.53518 0.0
C2099 C 0.34687 0.09509 0.49128 0.0
C2100 C 0.36993 0.10267 0.4615 0.0
C2101 C 0.92107 0.25154 0.38049 0.0
C2102 C 0.9122 0.26494 0.41214 0.0
C2103 C 0.93323 0.23942 0.40474 0.0
C2104 C 0.93732 0.24017 0.46193 0.0
H2105 H 0.91835 0.25007 0.33648 0.0
H2106 H 0.93932 0.2292 0.37813 0.0
S2107 S 0.91917 0.274 0.56341 0.0
N2108 N 0.9093 0.2789 0.50417 0.0
N2109 N 0.93226 0.25658 0.54919 0.0
C2110 C 0.92899 0.25393 0.49398 0.0
C2111 C 0.91645 0.26614 0.46932 0.0
C2112 C 0.03774 0.59293 0.30004 0.0
C2113 C 0.04089 0.59709 0.24286 0.0
C2114 C 1.01355 0.58049 0.32471 0.0
C2115 C 0.99123 0.57136 0.29342 0.0
H2116 H 0.05414 0.59918 0.3263 0.0
H2117 H 1.0124 0.57768 0.36867 0.0
S2118 S 0.98861 0.5784 0.14247 0.0
N2119 N 0.01917 0.59186 0.15609 0.0
N2120 N 0.97402 0.56831 0.20191 0.0
C2121 C 0.99406 0.57569 0.23629 0.0
C2122 C 0.01871 0.58855 0.21124 0.0
C2123 C 0.44376 0.43899 0.21764 0.0
C2124 C 0.42896 0.44636 0.2487 0.0
C2125 C 0.45667 0.42778 0.24241 0.0
C2126 C 0.45533 0.42325 0.29945 0.0
H2127 H 0.44575 0.44222 0.1738 0.0
H2128 H 0.46795 0.42279 0.21639 0.0
S2129 S 0.41824 0.43797 0.39933 0.0
N2130 N 0.41325 0.4476 0.33992 0.0
N2131 N 0.4371 0.42646 0.38587 0.0
C2132 C 0.44025 0.43017 0.33084 0.0
C2133 C 0.42722 0.4417 0.3057 0.0
C2134 C 0.58754 1.0084 0.21202 0.0
C2135 C 0.57814 0.98601 0.24296 0.0
C2136 C 0.59947 0.03249 0.23723 0.0
C2137 C 0.60284 0.03546 0.29466 0.0
H2138 H 0.58536 1.00737 0.16787 0.0
H2139 H 0.60598 0.04893 0.2112 0.0
S2140 S 0.58298 0.98296 0.39451 0.0
N2141 N 0.57383 0.96857 0.33453 0.0
N2142 N 0.59651 0.01351 0.38136 0.0
C2143 C 0.59398 0.01322 0.32598 0.0
C2144 C 0.58161 0.98868 0.30036 0.0
C2145 C 0.42943 0.99011 0.80296 0.0
C2146 C 0.42803 0.98693 0.74539 0.0
C2147 C 0.44244 0.01427 0.8277 0.0
C2148 C 0.4547 0.03657 0.79621 0.0
H2149 H 0.42056 0.97374 0.82952 0.0
H2150 H 0.44296 0.01539 0.87206 0.0
S2151 S 0.45583 0.03907 0.64366 0.0
N2152 N 0.43945 1.00856 0.65765 0.0
N2153 N 0.46386 0.05367 0.70357 0.0
C2154 C 0.45322 0.0337 0.73852 0.0
C2155 C 0.43996 1.00905 0.71335 0.0
C2156 C 0.01974 0.43977 0.71347 0.0
C2157 C 0.04229 0.44914 0.74415 0.0
C2158 C 0.99569 0.42802 0.73892 0.0
C2159 C 0.99286 0.42498 0.79641 0.0
H2160 H 0.0206 0.44159 0.66925 0.0
H2161 H 0.97914 0.42135 0.71297 0.0
S2162 S 0.04573 0.44573 0.89611 0.0
N2163 N 0.05996 0.45421 0.83594 0.0
N2164 N 1.0151 0.43216 0.88311 0.0
C2165 C 1.01524 0.4341 0.8276 0.0
C2166 C 0.03976 0.44612 0.80174 0.0
C2167 C 0.57382 0.57474 0.72853 0.0
C2168 C 0.57789 0.59811 0.74909 0.0
C2169 C 0.58125 0.55975 0.75842 0.0
C2170 C 0.59371 0.56773 0.80946 0.0
H2171 H 0.56385 0.56742 0.69015 0.0
H2172 H 0.57688 0.54152 0.74168 0.0
S2173 S 0.60992 0.62781 0.88057 0.0
N2174 N 0.59578 0.62871 0.82355 0.0
N2175 N 0.61032 0.60093 0.87844 0.0
C2176 C 0.59873 0.59144 0.82954 0.0
C2177 C 0.59065 0.60646 0.79976 0.0
loop_
_geom_bond_atom_site_label_1
_geom_bond_atom_site_label_2
_geom_bond_distance
_geom_bond_site_symmetry_2
_ccdc_geom_bond_type
Co0 N4 2.148 . S
Co0 N10 2.128 . S
Co0 N20 2.194 . S
Co0 O25 2.351 . S
Co0 O26 2.155 . S
Co0 O27 2.096 . S
C1 N4 1.301 . S
C1 N5 1.328 1_554 S
C1 H6 0.930 . S
C2 C3 1.333 . S
C2 N4 1.317 1_556 S
C2 H7 0.930 . S
C3 C2 1.333 . S
C3 N5 1.350 . S
C3 H29 0.931 . S
N4 Co0 2.148 . S
N4 C1 1.301 . S
N4 C2 1.317 1_554 S
N5 C1 1.328 1_556 S
N5 C3 1.350 . S
H6 C1 0.930 . S
H7 C2 0.930 . S
C8 O9 1.224 . S
C8 O27 1.247 1_556 S
O9 C8 1.224 . S
N10 Co0 2.128 . S
N10 C11 1.355 . S
N10 C13 1.311 . S
C11 N10 1.355 . S
C11 C12 1.363 . S
C11 H23 0.929 . S
C12 C11 1.363 . S
C12 N14 1.375 . S
C12 H30 0.931 . S
C13 N10 1.311 . S
C13 N14 1.347 . S
C13 H24 0.929 . S
N14 C12 1.375 . S
N14 C13 1.347 . S
C15 C18 1.365 . S
C15 N20 1.328 . S
C15 H21 0.929 . S
C16 C17 1.362 1_556 S
C16 C19 1.378 1_556 S
C16 H31 0.929 . S
C17 C16 1.362 1_554 S
C17 C18 1.366 . S
C18 C15 1.365 . S
C18 C17 1.366 . S
C18 H32 0.930 . S
C19 C16 1.378 1_554 S
C19 N20 1.315 . S
C19 H22 0.930 1_554 S
N20 Co0 2.194 . S
N20 C15 1.328 . S
N20 C19 1.315 . S
H21 C15 0.929 . S
H22 C19 0.930 1_556 S
H23 C11 0.929 . S
H24 C13 0.929 . S
O25 Co0 2.351 . S
O25 C28 1.244 . S
O26 Co0 2.155 . S
O26 C28 1.240 . S
O27 Co0 2.096 . S
O27 C8 1.247 1_554 S
C28 O25 1.244 . S
C28 O26 1.240 . S
H29 C3 0.931 . S
H30 C12 0.931 . S
H31 C16 0.929 . S
H32 C18 0.930 . S
Co33 N37 2.148 . S
Co33 N43 2.128 . S
Co33 N53 2.194 . S
Co33 O58 2.351 . S
Co33 O59 2.155 . S
Co33 O60 2.096 . S
C34 N37 1.301 . S
C34 N38 1.328 1_544 S
C34 H39 0.930 . S
C35 C36 1.333 . S
C35 N37 1.317 1_556 S
C35 H40 0.930 . S
C36 C35 1.333 . S
C36 N38 1.350 1_545 S
C36 H62 0.931 1_545 S
N37 Co33 2.148 . S
N37 C34 1.301 . S
N37 C35 1.317 1_554 S
N38 C34 1.328 1_566 S
N38 C36 1.350 1_565 S
H39 C34 0.930 . S
H40 C35 0.930 . S
C41 O42 1.224 . S
C41 O60 1.247 1_556 S
O42 C41 1.224 . S
N43 Co33 2.128 . S
N43 C44 1.355 . S
N43 C46 1.311 . S
C44 N43 1.355 . S
C44 C45 1.363 . S
C44 H56 0.929 . S
C45 C44 1.363 . S
C45 N47 1.375 . S
C45 H63 0.931 . S
C46 N43 1.311 . S
C46 N47 1.347 . S
C46 H57 0.929 . S
N47 C45 1.375 . S
N47 C46 1.347 . S
C48 C51 1.365 . S
C48 N53 1.328 . S
C48 H54 0.929 . S
C49 C50 1.362 1_556 S
C49 C52 1.378 1_556 S
C49 H64 0.929 . S
C50 C49 1.362 1_554 S
C50 C51 1.366 . S
C51 C48 1.365 . S
C51 C50 1.366 . S
C51 H65 0.930 . S
C52 C49 1.378 1_554 S
C52 N53 1.315 . S
C52 H55 0.930 1_554 S
N53 Co33 2.194 . S
N53 C48 1.328 . S
N53 C52 1.315 . S
H54 C48 0.929 . S
H55 C52 0.930 1_556 S
H56 C44 0.929 . S
H57 C46 0.929 . S
O58 Co33 2.351 . S
O58 C61 1.244 . S
O59 Co33 2.155 . S
O59 C61 1.240 . S
O60 Co33 2.096 . S
O60 C41 1.247 1_554 S
C61 O58 1.244 . S
C61 O59 1.240 . S
H62 C36 0.931 1_565 S
H63 C45 0.931 . S
H64 C49 0.929 . S
H65 C51 0.930 . S
Co66 N70 2.148 . S
Co66 N76 2.128 . S
Co66 N86 2.194 . S
Co66 O91 2.351 . S
Co66 O92 2.155 . S
Co66 O93 2.096 . S
C67 N70 1.301 . S
C67 N71 1.328 1_654 S
C67 H72 0.930 . S
C68 C69 1.333 . S
C68 N70 1.317 1_556 S
C68 H73 0.930 . S
C69 C68 1.333 . S
C69 N71 1.350 1_655 S
C69 H95 0.931 1_655 S
N70 Co66 2.148 . S
N70 C67 1.301 . S
N70 C68 1.317 1_554 S
N71 C67 1.328 1_456 S
N71 C69 1.350 1_455 S
H72 C67 0.930 . S
H73 C68 0.930 . S
C74 O75 1.224 . S
C74 O93 1.247 1_556 S
O75 C74 1.224 . S
N76 Co66 2.128 . S
N76 C77 1.355 . S
N76 C79 1.311 . S
C77 N76 1.355 . S
C77 C78 1.363 . S
C77 H89 0.929 . S
C78 C77 1.363 . S
C78 N80 1.375 . S
C78 H96 0.931 . S
C79 N76 1.311 . S
C79 N80 1.347 . S
C79 H90 0.929 . S
N80 C78 1.375 . S
N80 C79 1.347 . S
C81 C84 1.365 . S
C81 N86 1.328 . S
C81 H87 0.929 . S
C82 C83 1.362 1_556 S
C82 C85 1.378 1_556 S
C82 H97 0.929 . S
C83 C82 1.362 1_554 S
C83 C84 1.366 . S
C84 C81 1.365 . S
C84 C83 1.366 . S
C84 H98 0.930 . S
C85 C82 1.378 1_554 S
C85 N86 1.315 . S
C85 H88 0.930 1_554 S
N86 Co66 2.194 . S
N86 C81 1.328 . S
N86 C85 1.315 . S
H87 C81 0.929 . S
H88 C85 0.930 1_556 S
H89 C77 0.929 . S
H90 C79 0.929 . S
O91 Co66 2.351 . S
O91 C94 1.244 . S
O92 Co66 2.155 . S
O92 C94 1.240 . S
O93 Co66 2.096 . S
O93 C74 1.247 1_554 S
C94 O91 1.244 . S
C94 O92 1.240 . S
H95 C69 0.931 1_455 S
H96 C78 0.931 . S
H97 C82 0.929 . S
H98 C84 0.930 . S
Co99 N103 2.148 . S
Co99 N109 2.128 . S
Co99 N119 2.194 . S
Co99 O124 2.351 . S
Co99 O125 2.155 . S
Co99 O126 2.096 . S
C100 N103 1.301 . S
C100 N104 1.328 . S
C100 H105 0.930 . S
C101 C102 1.333 . S
C101 N103 1.317 . S
C101 H106 0.930 . S
C102 C101 1.333 . S
C102 N104 1.350 . S
C102 H128 0.931 . S
N103 Co99 2.148 . S
N103 C100 1.301 . S
N103 C101 1.317 . S
N104 C100 1.328 . S
N104 C102 1.350 . S
H105 C100 0.930 . S
H106 C101 0.930 . S
C107 O108 1.224 . S
C107 O126 1.247 . S
O108 C107 1.224 . S
N109 Co99 2.128 . S
N109 C110 1.355 . S
N109 C112 1.311 . S
C110 N109 1.355 . S
C110 C111 1.363 . S
C110 H122 0.929 . S
C111 C110 1.363 . S
C111 N113 1.375 . S
C111 H129 0.931 . S
C112 N109 1.311 . S
C112 N113 1.347 . S
C112 H123 0.929 . S
N113 C111 1.375 . S
N113 C112 1.347 . S
C114 C117 1.365 . S
C114 N119 1.328 . S
C114 H120 0.929 . S
C115 C116 1.362 . S
C115 C118 1.378 . S
C115 H130 0.929 . S
C116 C115 1.362 . S
C116 C117 1.366 . S
C117 C114 1.365 . S
C117 C116 1.366 . S
C117 H131 0.930 . S
C118 C115 1.378 . S
C118 N119 1.315 . S
C118 H121 0.930 . S
N119 Co99 2.194 . S
N119 C114 1.328 . S
N119 C118 1.315 . S
H120 C114 0.929 . S
H121 C118 0.930 . S
H122 C110 0.929 . S
H123 C112 0.929 . S
O124 Co99 2.351 . S
O124 C127 1.244 . S
O125 Co99 2.155 . S
O125 C127 1.240 . S
O126 Co99 2.096 . S
O126 C107 1.247 . S
C127 O124 1.244 . S
C127 O125 1.240 . S
H128 C102 0.931 . S
H129 C111 0.931 . S
H130 C115 0.929 . S
H131 C117 0.930 . S
Co132 N136 2.148 . S
Co132 N142 2.128 . S
Co132 N152 2.194 . S
Co132 O157 2.351 . S
Co132 O158 2.155 . S
Co132 O159 2.096 . S
C133 N136 1.301 . S
C133 N137 1.328 1_565 S
C133 H138 0.930 . S
C134 C135 1.333 . S
C134 N136 1.317 . S
C134 H139 0.930 . S
C135 C134 1.333 . S
C135 N137 1.350 1_565 S
C135 H161 0.931 1_565 S
N136 Co132 2.148 . S
N136 C133 1.301 . S
N136 C134 1.317 . S
N137 C133 1.328 1_545 S
N137 C135 1.350 1_545 S
H138 C133 0.930 . S
H139 C134 0.930 . S
C140 O141 1.224 . S
C140 O159 1.247 . S
O141 C140 1.224 . S
N142 Co132 2.128 . S
N142 C143 1.355 . S
N142 C145 1.311 . S
C143 N142 1.355 . S
C143 C144 1.363 . S
C143 H155 0.929 . S
C144 C143 1.363 . S
C144 N146 1.375 . S
C144 H162 0.931 . S
C145 N142 1.311 . S
C145 N146 1.347 . S
C145 H156 0.929 . S
N146 C144 1.375 . S
N146 C145 1.347 . S
C147 C150 1.365 . S
C147 N152 1.328 . S
C147 H153 0.929 . S
C148 C149 1.362 . S
C148 C151 1.378 . S
C148 H163 0.929 . S
C149 C148 1.362 . S
C149 C150 1.366 . S
C150 C147 1.365 . S
C150 C149 1.366 . S
C150 H164 0.930 . S
C151 C148 1.378 . S
C151 N152 1.315 . S
C151 H154 0.930 . S
N152 Co132 2.194 . S
N152 C147 1.328 . S
N152 C151 1.315 . S
H153 C147 0.929 . S
H154 C151 0.930 . S
H155 C143 0.929 . S
H156 C145 0.929 . S
O157 Co132 2.351 . S
O157 C160 1.244 . S
O158 Co132 2.155 . S
O158 C160 1.240 . S
O159 Co132 2.096 . S
O159 C140 1.247 . S
C160 O157 1.244 . S
C160 O158 1.240 . S
H161 C135 0.931 1_545 S
H162 C144 0.931 . S
H163 C148 0.929 . S
H164 C150 0.930 . S
Co165 N169 2.148 . S
Co165 N175 2.128 . S
Co165 N185 2.194 . S
Co165 O190 2.351 . S
Co165 O191 2.155 . S
Co165 O192 2.096 . S
C166 N169 1.301 . S
C166 N170 1.328 1_455 S
C166 H171 0.930 . S
C167 C168 1.333 . S
C167 N169 1.317 . S
C167 H172 0.930 . S
C168 C167 1.333 . S
C168 N170 1.350 1_455 S
C168 H194 0.931 1_455 S
N169 Co165 2.148 . S
N169 C166 1.301 . S
N169 C167 1.317 . S
N170 C166 1.328 1_655 S
N170 C168 1.350 1_655 S
H171 C166 0.930 . S
H172 C167 0.930 . S
C173 O174 1.224 . S
C173 O192 1.247 . S
O174 C173 1.224 . S
N175 Co165 2.128 . S
N175 C176 1.355 . S
N175 C178 1.311 . S
C176 N175 1.355 . S
C176 C177 1.363 . S
C176 H188 0.929 . S
C177 C176 1.363 . S
C177 N179 1.375 . S
C177 H195 0.931 . S
C178 N175 1.311 . S
C178 N179 1.347 . S
C178 H189 0.929 . S
N179 C177 1.375 . S
N179 C178 1.347 . S
C180 C183 1.365 . S
C180 N185 1.328 . S
C180 H186 0.929 . S
C181 C182 1.362 . S
C181 C184 1.378 . S
C181 H196 0.929 . S
C182 C181 1.362 . S
C182 C183 1.366 . S
C183 C180 1.365 . S
C183 C182 1.366 . S
C183 H197 0.930 . S
C184 C181 1.378 . S
C184 N185 1.315 . S
C184 H187 0.930 . S
N185 Co165 2.194 . S
N185 C180 1.328 . S
N185 C184 1.315 . S
H186 C180 0.929 . S
H187 C184 0.930 . S
H188 C176 0.929 . S
H189 C178 0.929 . S
O190 Co165 2.351 . S
O190 C193 1.244 . S
O191 Co165 2.155 . S
O191 C193 1.240 . S
O192 Co165 2.096 . S
O192 C173 1.247 . S
C193 O190 1.244 . S
C193 O191 1.240 . S
H194 C168 0.931 1_655 S
H195 C177 0.931 . S
H196 C181 0.929 . S
H197 C183 0.930 . S
Co198 N202 2.148 . S
Co198 N208 2.128 . S
Co198 N218 2.194 . S
Co198 O223 2.351 . S
Co198 O224 2.155 . S
Co198 O225 2.096 . S
C199 N202 1.301 . S
C199 N203 1.328 1_556 S
C199 H204 0.930 . S
C200 C201 1.333 . S
C200 N202 1.317 1_554 S
C200 H205 0.930 . S
C201 C200 1.333 . S
C201 N203 1.350 . S
C201 H227 0.931 . S
N202 Co198 2.148 . S
N202 C199 1.301 . S
N202 C200 1.317 1_556 S
N203 C199 1.328 1_554 S
N203 C201 1.350 . S
H204 C199 0.930 . S
H205 C200 0.930 . S
C206 O207 1.224 . S
C206 O225 1.247 1_554 S
O207 C206 1.224 . S
N208 Co198 2.128 . S
N208 C209 1.355 . S
N208 C211 1.311 . S
C209 N208 1.355 . S
C209 C210 1.363 . S
C209 H221 0.929 . S
C210 C209 1.363 . S
C210 N212 1.375 . S
C210 H228 0.931 . S
C211 N208 1.311 . S
C211 N212 1.347 . S
C211 H222 0.929 . S
N212 C210 1.375 . S
N212 C211 1.347 . S
C213 C216 1.365 . S
C213 N218 1.328 . S
C213 H219 0.929 . S
C214 C215 1.362 1_554 S
C214 C217 1.378 1_554 S
C214 H229 0.929 . S
C215 C214 1.362 1_556 S
C215 C216 1.366 . S
C216 C213 1.365 . S
C216 C215 1.366 . S
C216 H230 0.930 . S
C217 C214 1.378 1_556 S
C217 N218 1.315 . S
C217 H220 0.930 1_556 S
N218 Co198 2.194 . S
N218 C213 1.328 . S
N218 C217 1.315 . S
H219 C213 0.929 . S
H220 C217 0.930 1_554 S
H221 C209 0.929 . S
H222 C211 0.929 . S
O223 Co198 2.351 . S
O223 C226 1.244 . S
O224 Co198 2.155 . S
O224 C226 1.240 . S
O225 Co198 2.096 . S
O225 C206 1.247 1_556 S
C226 O223 1.244 . S
C226 O224 1.240 . S
H227 C201 0.931 . S
H228 C210 0.931 . S
H229 C214 0.929 . S
H230 C216 0.930 . S
Co231 N235 2.148 . S
Co231 N241 2.128 . S
Co231 N251 2.194 . S
Co231 O256 2.351 . S
Co231 O257 2.155 . S
Co231 O258 2.096 . S
C232 N235 1.301 . S
C232 N236 1.328 1_566 S
C232 H237 0.930 . S
C233 C234 1.333 . S
C233 N235 1.317 1_554 S
C233 H238 0.930 . S
C234 C233 1.333 . S
C234 N236 1.350 1_565 S
C234 H260 0.931 1_565 S
N235 Co231 2.148 . S
N235 C232 1.301 . S
N235 C233 1.317 1_556 S
N236 C232 1.328 1_544 S
N236 C234 1.350 1_545 S
H237 C232 0.930 . S
H238 C233 0.930 . S
C239 O240 1.224 . S
C239 O258 1.247 1_554 S
O240 C239 1.224 . S
N241 Co231 2.128 . S
N241 C242 1.355 . S
N241 C244 1.311 . S
C242 N241 1.355 . S
C242 C243 1.363 . S
C242 H254 0.929 . S
C243 C242 1.363 . S
C243 N245 1.375 . S
C243 H261 0.931 . S
C244 N241 1.311 . S
C244 N245 1.347 . S
C244 H255 0.929 . S
N245 C243 1.375 . S
N245 C244 1.347 . S
C246 C249 1.365 . S
C246 N251 1.328 . S
C246 H252 0.929 . S
C247 C248 1.362 1_554 S
C247 C250 1.378 1_554 S
C247 H262 0.929 . S
C248 C247 1.362 1_556 S
C248 C249 1.366 . S
C249 C246 1.365 . S
C249 C248 1.366 . S
C249 H263 0.930 . S
C250 C247 1.378 1_556 S
C250 N251 1.315 . S
C250 H253 0.930 1_556 S
N251 Co231 2.194 . S
N251 C246 1.328 . S
N251 C250 1.315 . S
H252 C246 0.929 . S
H253 C250 0.930 1_554 S
H254 C242 0.929 . S
H255 C244 0.929 . S
O256 Co231 2.351 . S
O256 C259 1.244 . S
O257 Co231 2.155 . S
O257 C259 1.240 . S
O258 Co231 2.096 . S
O258 C239 1.247 1_556 S
C259 O256 1.244 . S
C259 O257 1.240 . S
H260 C234 0.931 1_545 S
H261 C243 0.931 . S
H262 C247 0.929 . S
H263 C249 0.930 . S
Co264 N268 2.148 . S
Co264 N274 2.128 . S
Co264 N284 2.194 . S
Co264 O289 2.351 . S
Co264 O290 2.155 . S
Co264 O291 2.096 . S
C265 N268 1.301 . S
C265 N269 1.328 1_456 S
C265 H270 0.930 . S
C266 C267 1.333 . S
C266 N268 1.317 1_554 S
C266 H271 0.930 . S
C267 C266 1.333 . S
C267 N269 1.350 1_455 S
C267 H293 0.931 1_455 S
N268 Co264 2.148 . S
N268 C265 1.301 . S
N268 C266 1.317 1_556 S
N269 C265 1.328 1_654 S
N269 C267 1.350 1_655 S
H270 C265 0.930 . S
H271 C266 0.930 . S
C272 O273 1.224 . S
C272 O291 1.247 1_554 S
O273 C272 1.224 . S
N274 Co264 2.128 . S
N274 C275 1.355 . S
N274 C277 1.311 . S
C275 N274 1.355 . S
C275 C276 1.363 . S
C275 H287 0.929 . S
C276 C275 1.363 . S
C276 N278 1.375 . S
C276 H294 0.931 . S
C277 N274 1.311 . S
C277 N278 1.347 . S
C277 H288 0.929 . S
N278 C276 1.375 . S
N278 C277 1.347 . S
C279 C282 1.365 . S
C279 N284 1.328 . S
C279 H285 0.929 . S
C280 C281 1.362 1_554 S
C280 C283 1.378 1_554 S
C280 H295 0.929 . S
C281 C280 1.362 1_556 S
C281 C282 1.366 . S
C282 C279 1.365 . S
C282 C281 1.366 . S
C282 H296 0.930 . S
C283 C280 1.378 1_556 S
C283 N284 1.315 . S
C283 H286 0.930 1_556 S
N284 Co264 2.194 . S
N284 C279 1.328 . S
N284 C283 1.315 . S
H285 C279 0.929 . S
H286 C283 0.930 1_554 S
H287 C275 0.929 . S
H288 C277 0.929 . S
O289 Co264 2.351 . S
O289 C292 1.244 . S
O290 Co264 2.155 . S
O290 C292 1.240 . S
O291 Co264 2.096 . S
O291 C272 1.247 1_556 S
C292 O289 1.244 . S
C292 O290 1.240 . S
H293 C267 0.931 1_655 S
H294 C276 0.931 . S
H295 C280 0.929 . S
H296 C282 0.930 . S
Co297 N301 2.148 . S
Co297 N307 2.128 . S
Co297 N317 2.194 . S
Co297 O322 2.351 . S
Co297 O323 2.155 . S
Co297 O324 2.096 . S
C298 N301 1.301 . S
C298 N302 1.328 . S
C298 H303 0.930 . S
C299 C300 1.333 . S
C299 N301 1.317 . S
C299 H304 0.930 . S
C300 C299 1.333 . S
C300 N302 1.350 . S
C300 H326 0.931 . S
N301 Co297 2.148 . S
N301 C298 1.301 . S
N301 C299 1.317 . S
N302 C298 1.328 . S
N302 C300 1.350 . S
H303 C298 0.930 . S
H304 C299 0.930 . S
C305 O306 1.224 . S
C305 O324 1.247 . S
O306 C305 1.224 . S
N307 Co297 2.128 . S
N307 C308 1.355 . S
N307 C310 1.311 . S
C308 N307 1.355 . S
C308 C309 1.363 . S
C308 H320 0.929 . S
C309 C308 1.363 . S
C309 N311 1.375 . S
C309 H327 0.931 . S
C310 N307 1.311 . S
C310 N311 1.347 . S
C310 H321 0.929 . S
N311 C309 1.375 . S
N311 C310 1.347 . S
C312 C315 1.365 . S
C312 N317 1.328 . S
C312 H318 0.929 . S
C313 C314 1.362 . S
C313 C316 1.378 . S
C313 H328 0.929 . S
C314 C313 1.362 . S
C314 C315 1.366 . S
C315 C312 1.365 . S
C315 C314 1.366 . S
C315 H329 0.930 . S
C316 C313 1.378 . S
C316 N317 1.315 . S
C316 H319 0.930 . S
N317 Co297 2.194 . S
N317 C312 1.328 . S
N317 C316 1.315 . S
H318 C312 0.929 . S
H319 C316 0.930 . S
H320 C308 0.929 . S
H321 C310 0.929 . S
O322 Co297 2.351 . S
O322 C325 1.244 . S
O323 Co297 2.155 . S
O323 C325 1.240 . S
O324 Co297 2.096 . S
O324 C305 1.247 . S
C325 O322 1.244 . S
C325 O323 1.240 . S
H326 C300 0.931 . S
H327 C309 0.931 . S
H328 C313 0.929 . S
H329 C315 0.930 . S
Co330 N334 2.148 . S
Co330 N340 2.128 . S
Co330 N350 2.194 . S
Co330 O355 2.351 . S
Co330 O356 2.155 . S
Co330 O357 2.096 . S
C331 N334 1.301 . S
C331 N335 1.328 1_545 S
C331 H336 0.930 . S
C332 C333 1.333 . S
C332 N334 1.317 . S
C332 H337 0.930 . S
C333 C332 1.333 . S
C333 N335 1.350 1_545 S
C333 H359 0.931 1_545 S
N334 Co330 2.148 . S
N334 C331 1.301 . S
N334 C332 1.317 . S
N335 C331 1.328 1_565 S
N335 C333 1.350 1_565 S
H336 C331 0.930 . S
H337 C332 0.930 . S
C338 O339 1.224 . S
C338 O357 1.247 . S
O339 C338 1.224 . S
N340 Co330 2.128 . S
N340 C341 1.355 . S
N340 C343 1.311 . S
C341 N340 1.355 . S
C341 C342 1.363 . S
C341 H353 0.929 . S
C342 C341 1.363 . S
C342 N344 1.375 . S
C342 H360 0.931 . S
C343 N340 1.311 . S
C343 N344 1.347 . S
C343 H354 0.929 . S
N344 C342 1.375 . S
N344 C343 1.347 . S
C345 C348 1.365 . S
C345 N350 1.328 . S
C345 H351 0.929 . S
C346 C347 1.362 . S
C346 C349 1.378 . S
C346 H361 0.929 . S
C347 C346 1.362 . S
C347 C348 1.366 . S
C348 C345 1.365 . S
C348 C347 1.366 . S
C348 H362 0.930 . S
C349 C346 1.378 . S
C349 N350 1.315 . S
C349 H352 0.930 . S
N350 Co330 2.194 . S
N350 C345 1.328 . S
N350 C349 1.315 . S
H351 C345 0.929 . S
H352 C349 0.930 . S
H353 C341 0.929 . S
H354 C343 0.929 . S
O355 Co330 2.351 . S
O355 C358 1.244 . S
O356 Co330 2.155 . S
O356 C358 1.240 . S
O357 Co330 2.096 . S
O357 C338 1.247 . S
C358 O355 1.244 . S
C358 O356 1.240 . S
H359 C333 0.931 1_565 S
H360 C342 0.931 . S
H361 C346 0.929 . S
H362 C348 0.930 . S
Co363 N367 2.148 . S
Co363 N373 2.128 . S
Co363 N383 2.194 . S
Co363 O388 2.351 . S
Co363 O389 2.155 . S
Co363 O390 2.096 . S
C364 N367 1.301 . S
C364 N368 1.328 1_655 S
C364 H369 0.930 . S
C365 C366 1.333 . S
C365 N367 1.317 . S
C365 H370 0.930 . S
C366 C365 1.333 . S
C366 N368 1.350 1_655 S
C366 H392 0.931 1_655 S
N367 Co363 2.148 . S
N367 C364 1.301 . S
N367 C365 1.317 . S
N368 C364 1.328 1_455 S
N368 C366 1.350 1_455 S
H369 C364 0.930 . S
H370 C365 0.930 . S
C371 O372 1.224 . S
C371 O390 1.247 . S
O372 C371 1.224 . S
N373 Co363 2.128 . S
N373 C374 1.355 . S
N373 C376 1.311 . S
C374 N373 1.355 . S
C374 C375 1.363 . S
C374 H386 0.929 . S
C375 C374 1.363 . S
C375 N377 1.375 . S
C375 H393 0.931 . S
C376 N373 1.311 . S
C376 N377 1.347 . S
C376 H387 0.929 . S
N377 C375 1.375 . S
N377 C376 1.347 . S
C378 C381 1.365 . S
C378 N383 1.328 . S
C378 H384 0.929 . S
C379 C380 1.362 . S
C379 C382 1.378 . S
C379 H394 0.929 . S
C380 C379 1.362 . S
C380 C381 1.366 . S
C381 C378 1.365 . S
C381 C380 1.366 . S
C381 H395 0.930 . S
C382 C379 1.378 . S
C382 N383 1.315 . S
C382 H385 0.930 . S
N383 Co363 2.194 . S
N383 C378 1.328 . S
N383 C382 1.315 . S
H384 C378 0.929 . S
H385 C382 0.930 . S
H386 C374 0.929 . S
H387 C376 0.929 . S
O388 Co363 2.351 . S
O388 C391 1.244 . S
O389 Co363 2.155 . S
O389 C391 1.240 . S
O390 Co363 2.096 . S
O390 C371 1.247 . S
C391 O388 1.244 . S
C391 O389 1.240 . S
H392 C366 0.931 1_455 S
H393 C375 0.931 . S
H394 C379 0.929 . S
H395 C381 0.930 . S
Co396 N400 2.148 . S
Co396 N406 2.128 . S
Co396 N416 2.194 . S
Co396 O421 2.351 . S
Co396 O422 2.155 . S
Co396 O423 2.096 . S
C397 N400 1.301 . S
C397 N401 1.328 . S
C397 H402 0.930 . S
C398 C399 1.333 . S
C398 N400 1.317 . S
C398 H403 0.930 . S
C399 C398 1.333 . S
C399 N401 1.350 . S
C399 H425 0.931 . S
N400 Co396 2.148 . S
N400 C397 1.301 . S
N400 C398 1.317 . S
N401 C397 1.328 . S
N401 C399 1.350 . S
H402 C397 0.930 . S
H403 C398 0.930 . S
C404 O405 1.224 . S
C404 O423 1.247 . S
O405 C404 1.224 . S
N406 Co396 2.128 . S
N406 C407 1.355 . S
N406 C409 1.311 . S
C407 N406 1.355 . S
C407 C408 1.363 . S
C407 H419 0.929 . S
C408 C407 1.363 . S
C408 N410 1.375 . S
C408 H426 0.931 . S
C409 N406 1.311 . S
C409 N410 1.347 . S
C409 H420 0.929 . S
N410 C408 1.375 . S
N410 C409 1.347 . S
C411 C414 1.365 . S
C411 N416 1.328 . S
C411 H417 0.929 . S
C412 C413 1.362 . S
C412 C415 1.378 . S
C412 H427 0.929 . S
C413 C412 1.362 . S
C413 C414 1.366 . S
C414 C411 1.365 . S
C414 C413 1.366 . S
C414 H428 0.930 . S
C415 C412 1.378 . S
C415 N416 1.315 . S
C415 H418 0.930 . S
N416 Co396 2.194 . S
N416 C411 1.328 . S
N416 C415 1.315 . S
H417 C411 0.929 . S
H418 C415 0.930 . S
H419 C407 0.929 . S
H420 C409 0.929 . S
O421 Co396 2.351 . S
O421 C424 1.244 . S
O422 Co396 2.155 . S
O422 C424 1.240 . S
O423 Co396 2.096 . S
O423 C404 1.247 . S
C424 O421 1.244 . S
C424 O422 1.240 . S
H425 C399 0.931 . S
H426 C408 0.931 . S
H427 C412 0.929 . S
H428 C414 0.930 . S
Co429 N433 2.148 . S
Co429 N439 2.128 . S
Co429 N449 2.194 . S
Co429 O454 2.351 . S
Co429 O455 2.155 . S
Co429 O456 2.096 . S
C430 N433 1.301 . S
C430 N434 1.328 . S
C430 H435 0.930 . S
C431 C432 1.333 . S
C431 N433 1.317 . S
C431 H436 0.930 . S
C432 C431 1.333 . S
C432 N434 1.350 . S
C432 H458 0.931 . S
N433 Co429 2.148 . S
N433 C430 1.301 . S
N433 C431 1.317 . S
N434 C430 1.328 . S
N434 C432 1.350 . S
H435 C430 0.930 . S
H436 C431 0.930 . S
C437 O438 1.224 . S
C437 O456 1.247 . S
O438 C437 1.224 . S
N439 Co429 2.128 . S
N439 C440 1.355 . S
N439 C442 1.311 . S
C440 N439 1.355 . S
C440 C441 1.363 . S
C440 H452 0.929 . S
C441 C440 1.363 . S
C441 N443 1.375 . S
C441 H459 0.931 . S
C442 N439 1.311 . S
C442 N443 1.347 . S
C442 H453 0.929 . S
N443 C441 1.375 . S
N443 C442 1.347 . S
C444 C447 1.365 . S
C444 N449 1.328 . S
C444 H450 0.929 . S
C445 C446 1.362 . S
C445 C448 1.378 . S
C445 H460 0.929 . S
C446 C445 1.362 . S
C446 C447 1.366 . S
C447 C444 1.365 . S
C447 C446 1.366 . S
C447 H461 0.930 . S
C448 C445 1.378 . S
C448 N449 1.315 . S
C448 H451 0.930 . S
N449 Co429 2.194 . S
N449 C444 1.328 . S
N449 C448 1.315 . S
H450 C444 0.929 . S
H451 C448 0.930 . S
H452 C440 0.929 . S
H453 C442 0.929 . S
O454 Co429 2.351 . S
O454 C457 1.244 . S
O455 Co429 2.155 . S
O455 C457 1.240 . S
O456 Co429 2.096 . S
O456 C437 1.247 . S
C457 O454 1.244 . S
C457 O455 1.240 . S
H458 C432 0.931 . S
H459 C441 0.931 . S
H460 C445 0.929 . S
H461 C447 0.930 . S
Co462 N466 2.148 . S
Co462 N472 2.128 . S
Co462 N482 2.194 . S
Co462 O487 2.351 . S
Co462 O488 2.155 . S
Co462 O489 2.096 . S
C463 N466 1.301 . S
C463 N467 1.328 . S
C463 H468 0.930 . S
C464 C465 1.333 . S
C464 N466 1.317 . S
C464 H469 0.930 . S
C465 C464 1.333 . S
C465 N467 1.350 . S
C465 H491 0.931 . S
N466 Co462 2.148 . S
N466 C463 1.301 . S
N466 C464 1.317 . S
N467 C463 1.328 . S
N467 C465 1.350 . S
H468 C463 0.930 . S
H469 C464 0.930 . S
C470 O471 1.224 . S
C470 O489 1.247 . S
O471 C470 1.224 . S
N472 Co462 2.128 . S
N472 C473 1.355 . S
N472 C475 1.311 . S
C473 N472 1.355 . S
C473 C474 1.363 . S
C473 H485 0.929 . S
C474 C473 1.363 . S
C474 N476 1.375 . S
C474 H492 0.931 . S
C475 N472 1.311 . S
C475 N476 1.347 . S
C475 H486 0.929 . S
N476 C474 1.375 . S
N476 C475 1.347 . S
C477 C480 1.365 . S
C477 N482 1.328 . S
C477 H483 0.929 . S
C478 C479 1.362 . S
C478 C481 1.378 . S
C478 H493 0.929 . S
C479 C478 1.362 . S
C479 C480 1.366 . S
C480 C477 1.365 . S
C480 C479 1.366 . S
C480 H494 0.930 . S
C481 C478 1.378 . S
C481 N482 1.315 . S
C481 H484 0.930 . S
N482 Co462 2.194 . S
N482 C477 1.328 . S
N482 C481 1.315 . S
H483 C477 0.929 . S
H484 C481 0.930 . S
H485 C473 0.929 . S
H486 C475 0.929 . S
O487 Co462 2.351 . S
O487 C490 1.244 . S
O488 Co462 2.155 . S
O488 C490 1.240 . S
O489 Co462 2.096 . S
O489 C470 1.247 . S
C490 O487 1.244 . S
C490 O488 1.240 . S
H491 C465 0.931 . S
H492 C474 0.931 . S
H493 C478 0.929 . S
H494 C480 0.930 . S
Co495 N499 2.148 . S
Co495 N505 2.128 . S
Co495 N515 2.194 . S
Co495 O520 2.351 . S
Co495 O521 2.155 . S
Co495 O522 2.096 . S
C496 N499 1.301 . S
C496 N500 1.328 . S
C496 H501 0.930 . S
C497 C498 1.333 . S
C497 N499 1.317 . S
C497 H502 0.930 . S
C498 C497 1.333 . S
C498 N500 1.350 . S
C498 H524 0.931 . S
N499 Co495 2.148 . S
N499 C496 1.301 . S
N499 C497 1.317 . S
N500 C496 1.328 . S
N500 C498 1.350 . S
H501 C496 0.930 . S
H502 C497 0.930 . S
C503 O504 1.224 . S
C503 O522 1.247 . S
O504 C503 1.224 . S
N505 Co495 2.128 . S
N505 C506 1.355 . S
N505 C508 1.311 . S
C506 N505 1.355 . S
C506 C507 1.363 . S
C506 H518 0.929 . S
C507 C506 1.363 . S
C507 N509 1.375 . S
C507 H525 0.931 . S
C508 N505 1.311 . S
C508 N509 1.347 . S
C508 H519 0.929 . S
N509 C507 1.375 . S
N509 C508 1.347 . S
C510 C513 1.365 . S
C510 N515 1.328 . S
C510 H516 0.929 . S
C511 C512 1.362 . S
C511 C514 1.378 . S
C511 H526 0.929 . S
C512 C511 1.362 . S
C512 C513 1.366 . S
C513 C510 1.365 . S
C513 C512 1.366 . S
C513 H527 0.930 . S
C514 C511 1.378 . S
C514 N515 1.315 . S
C514 H517 0.930 . S
N515 Co495 2.194 . S
N515 C510 1.328 . S
N515 C514 1.315 . S
H516 C510 0.929 . S
H517 C514 0.930 . S
H518 C506 0.929 . S
H519 C508 0.929 . S
O520 Co495 2.351 . S
O520 C523 1.244 . S
O521 Co495 2.155 . S
O521 C523 1.240 . S
O522 Co495 2.096 . S
O522 C503 1.247 . S
C523 O520 1.244 . S
C523 O521 1.240 . S
H524 C498 0.931 . S
H525 C507 0.931 . S
H526 C511 0.929 . S
H527 C513 0.930 . S
Co528 N532 2.148 . S
Co528 N538 2.128 . S
Co528 N548 2.194 . S
Co528 O553 2.351 . S
Co528 O554 2.155 . S
Co528 O555 2.096 . S
C529 N532 1.301 . S
C529 N533 1.328 . S
C529 H534 0.930 . S
C530 C531 1.333 . S
C530 N532 1.317 . S
C530 H535 0.930 . S
C531 C530 1.333 . S
C531 N533 1.350 . S
C531 H557 0.931 . S
N532 Co528 2.148 . S
N532 C529 1.301 . S
N532 C530 1.317 . S
N533 C529 1.328 . S
N533 C531 1.350 . S
H534 C529 0.930 . S
H535 C530 0.930 . S
C536 O537 1.224 . S
C536 O555 1.247 . S
O537 C536 1.224 . S
N538 Co528 2.128 . S
N538 C539 1.355 . S
N538 C541 1.311 . S
C539 N538 1.355 . S
C539 C540 1.363 . S
C539 H551 0.929 . S
C540 C539 1.363 . S
C540 N542 1.375 . S
C540 H558 0.931 . S
C541 N538 1.311 . S
C541 N542 1.347 . S
C541 H552 0.929 . S
N542 C540 1.375 . S
N542 C541 1.347 . S
C543 C546 1.365 . S
C543 N548 1.328 . S
C543 H549 0.929 . S
C544 C545 1.362 . S
C544 C547 1.378 . S
C544 H559 0.929 . S
C545 C544 1.362 . S
C545 C546 1.366 . S
C546 C543 1.365 . S
C546 C545 1.366 . S
C546 H560 0.930 . S
C547 C544 1.378 . S
C547 N548 1.315 . S
C547 H550 0.930 . S
N548 Co528 2.194 . S
N548 C543 1.328 . S
N548 C547 1.315 . S
H549 C543 0.929 . S
H550 C547 0.930 . S
H551 C539 0.929 . S
H552 C541 0.929 . S
O553 Co528 2.351 . S
O553 C556 1.244 . S
O554 Co528 2.155 . S
O554 C556 1.240 . S
O555 Co528 2.096 . S
O555 C536 1.247 . S
C556 O553 1.244 . S
C556 O554 1.240 . S
H557 C531 0.931 . S
H558 C540 0.931 . S
H559 C544 0.929 . S
H560 C546 0.930 . S
Co561 N565 2.148 . S
Co561 N571 2.128 . S
Co561 N581 2.194 . S
Co561 O586 2.351 . S
Co561 O587 2.155 . S
Co561 O588 2.096 . S
C562 N565 1.301 . S
C562 N566 1.328 . S
C562 H567 0.930 . S
C563 C564 1.333 . S
C563 N565 1.317 . S
C563 H568 0.930 . S
C564 C563 1.333 . S
C564 N566 1.350 . S
C564 H590 0.931 . S
N565 Co561 2.148 . S
N565 C562 1.301 . S
N565 C563 1.317 . S
N566 C562 1.328 . S
N566 C564 1.350 . S
H567 C562 0.930 . S
H568 C563 0.930 . S
C569 O570 1.224 . S
C569 O588 1.247 . S
O570 C569 1.224 . S
N571 Co561 2.128 . S
N571 C572 1.355 . S
N571 C574 1.311 . S
C572 N571 1.355 . S
C572 C573 1.363 . S
C572 H584 0.929 . S
C573 C572 1.363 . S
C573 N575 1.375 . S
C573 H591 0.931 . S
C574 N571 1.311 . S
C574 N575 1.347 . S
C574 H585 0.929 . S
N575 C573 1.375 . S
N575 C574 1.347 . S
C576 C579 1.365 . S
C576 N581 1.328 . S
C576 H582 0.929 . S
C577 C578 1.362 . S
C577 C580 1.378 . S
C577 H592 0.929 . S
C578 C577 1.362 . S
C578 C579 1.366 . S
C579 C576 1.365 . S
C579 C578 1.366 . S
C579 H593 0.930 . S
C580 C577 1.378 . S
C580 N581 1.315 . S
C580 H583 0.930 . S
N581 Co561 2.194 . S
N581 C576 1.328 . S
N581 C580 1.315 . S
H582 C576 0.929 . S
H583 C580 0.930 . S
H584 C572 0.929 . S
H585 C574 0.929 . S
O586 Co561 2.351 . S
O586 C589 1.244 . S
O587 Co561 2.155 . S
O587 C589 1.240 . S
O588 Co561 2.096 . S
O588 C569 1.247 . S
C589 O586 1.244 . S
C589 O587 1.240 . S
H590 C564 0.931 . S
H591 C573 0.931 . S
H592 C577 0.929 . S
H593 C579 0.930 . S
Co594 N598 2.148 . S
Co594 N604 2.128 . S
Co594 N614 2.194 . S
Co594 O619 2.351 . S
Co594 O620 2.155 . S
Co594 O621 2.096 . S
C595 N598 1.301 . S
C595 N599 1.328 . S
C595 H600 0.930 . S
C596 C597 1.333 . S
C596 N598 1.317 . S
C596 H601 0.930 . S
C597 C596 1.333 . S
C597 N599 1.350 . S
C597 H623 0.931 . S
N598 Co594 2.148 . S
N598 C595 1.301 . S
N598 C596 1.317 . S
N599 C595 1.328 . S
N599 C597 1.350 . S
H600 C595 0.930 . S
H601 C596 0.930 . S
C602 O603 1.224 . S
C602 O621 1.247 . S
O603 C602 1.224 . S
N604 Co594 2.128 . S
N604 C605 1.355 . S
N604 C607 1.311 . S
C605 N604 1.355 . S
C605 C606 1.363 . S
C605 H617 0.929 . S
C606 C605 1.363 . S
C606 N608 1.375 . S
C606 H624 0.931 . S
C607 N604 1.311 . S
C607 N608 1.347 . S
C607 H618 0.929 . S
N608 C606 1.375 . S
N608 C607 1.347 . S
C609 C612 1.365 . S
C609 N614 1.328 . S
C609 H615 0.929 . S
C610 C611 1.362 . S
C610 C613 1.378 . S
C610 H625 0.929 . S
C611 C610 1.362 . S
C611 C612 1.366 . S
C612 C609 1.365 . S
C612 C611 1.366 . S
C612 H626 0.930 . S
C613 C610 1.378 . S
C613 N614 1.315 . S
C613 H616 0.930 . S
N614 Co594 2.194 . S
N614 C609 1.328 . S
N614 C613 1.315 . S
H615 C609 0.929 . S
H616 C613 0.930 . S
H617 C605 0.929 . S
H618 C607 0.929 . S
O619 Co594 2.351 . S
O619 C622 1.244 . S
O620 Co594 2.155 . S
O620 C622 1.240 . S
O621 Co594 2.096 . S
O621 C602 1.247 . S
C622 O619 1.244 . S
C622 O620 1.240 . S
H623 C597 0.931 . S
H624 C606 0.931 . S
H625 C610 0.929 . S
H626 C612 0.930 . S
Co627 N631 2.148 . S
Co627 N637 2.128 . S
Co627 N647 2.194 . S
Co627 O652 2.351 . S
Co627 O653 2.155 . S
Co627 O654 2.096 . S
C628 N631 1.301 . S
C628 N632 1.328 . S
C628 H633 0.930 . S
C629 C630 1.333 . S
C629 N631 1.317 . S
C629 H634 0.930 . S
C630 C629 1.333 . S
C630 N632 1.350 . S
C630 H656 0.931 . S
N631 Co627 2.148 . S
N631 C628 1.301 . S
N631 C629 1.317 . S
N632 C628 1.328 . S
N632 C630 1.350 . S
H633 C628 0.930 . S
H634 C629 0.930 . S
C635 O636 1.224 . S
C635 O654 1.247 . S
O636 C635 1.224 . S
N637 Co627 2.128 . S
N637 C638 1.355 . S
N637 C640 1.311 . S
C638 N637 1.355 . S
C638 C639 1.363 . S
C638 H650 0.929 . S
C639 C638 1.363 . S
C639 N641 1.375 . S
C639 H657 0.931 . S
C640 N637 1.311 . S
C640 N641 1.347 . S
C640 H651 0.929 . S
N641 C639 1.375 . S
N641 C640 1.347 . S
C642 C645 1.365 . S
C642 N647 1.328 . S
C642 H648 0.929 . S
C643 C644 1.362 . S
C643 C646 1.378 . S
C643 H658 0.929 . S
C644 C643 1.362 . S
C644 C645 1.366 . S
C645 C642 1.365 . S
C645 C644 1.366 . S
C645 H659 0.930 . S
C646 C643 1.378 . S
C646 N647 1.315 . S
C646 H649 0.930 . S
N647 Co627 2.194 . S
N647 C642 1.328 . S
N647 C646 1.315 . S
H648 C642 0.929 . S
H649 C646 0.930 . S
H650 C638 0.929 . S
H651 C640 0.929 . S
O652 Co627 2.351 . S
O652 C655 1.244 . S
O653 Co627 2.155 . S
O653 C655 1.240 . S
O654 Co627 2.096 . S
O654 C635 1.247 . S
C655 O652 1.244 . S
C655 O653 1.240 . S
H656 C630 0.931 . S
H657 C639 0.931 . S
H658 C643 0.929 . S
H659 C645 0.930 . S
Co660 N664 2.148 . S
Co660 N670 2.128 . S
Co660 N680 2.194 . S
Co660 O685 2.351 . S
Co660 O686 2.155 . S
Co660 O687 2.096 . S
C661 N664 1.301 . S
C661 N665 1.328 . S
C661 H666 0.930 . S
C662 C663 1.333 . S
C662 N664 1.317 . S
C662 H667 0.930 . S
C663 C662 1.333 . S
C663 N665 1.350 . S
C663 H689 0.931 . S
N664 Co660 2.148 . S
N664 C661 1.301 . S
N664 C662 1.317 . S
N665 C661 1.328 . S
N665 C663 1.350 . S
H666 C661 0.930 . S
H667 C662 0.930 . S
C668 O669 1.224 . S
C668 O687 1.247 . S
O669 C668 1.224 . S
N670 Co660 2.128 . S
N670 C671 1.355 . S
N670 C673 1.311 . S
C671 N670 1.355 . S
C671 C672 1.363 . S
C671 H683 0.929 . S
C672 C671 1.363 . S
C672 N674 1.375 . S
C672 H690 0.931 . S
C673 N670 1.311 . S
C673 N674 1.347 . S
C673 H684 0.929 . S
N674 C672 1.375 . S
N674 C673 1.347 . S
C675 C678 1.365 . S
C675 N680 1.328 . S
C675 H681 0.929 . S
C676 C677 1.362 . S
C676 C679 1.378 . S
C676 H691 0.929 . S
C677 C676 1.362 . S
C677 C678 1.366 . S
C678 C675 1.365 . S
C678 C677 1.366 . S
C678 H692 0.930 . S
C679 C676 1.378 . S
C679 N680 1.315 . S
C679 H682 0.930 . S
N680 Co660 2.194 . S
N680 C675 1.328 . S
N680 C679 1.315 . S
H681 C675 0.929 . S
H682 C679 0.930 . S
H683 C671 0.929 . S
H684 C673 0.929 . S
O685 Co660 2.351 . S
O685 C688 1.244 . S
O686 Co660 2.155 . S
O686 C688 1.240 . S
O687 Co660 2.096 . S
O687 C668 1.247 . S
C688 O685 1.244 . S
C688 O686 1.240 . S
H689 C663 0.931 . S
H690 C672 0.931 . S
H691 C676 0.929 . S
H692 C678 0.930 . S
Co693 N697 2.148 . S
Co693 N703 2.128 . S
Co693 N713 2.194 . S
Co693 O718 2.351 . S
Co693 O719 2.155 . S
Co693 O720 2.096 . S
C694 N697 1.301 . S
C694 N698 1.328 . S
C694 H699 0.930 . S
C695 C696 1.333 . S
C695 N697 1.317 . S
C695 H700 0.930 . S
C696 C695 1.333 . S
C696 N698 1.350 . S
C696 H722 0.931 . S
N697 Co693 2.148 . S
N697 C694 1.301 . S
N697 C695 1.317 . S
N698 C694 1.328 . S
N698 C696 1.350 . S
H699 C694 0.930 . S
H700 C695 0.930 . S
C701 O702 1.224 . S
C701 O720 1.247 . S
O702 C701 1.224 . S
N703 Co693 2.128 . S
N703 C704 1.355 . S
N703 C706 1.311 . S
C704 N703 1.355 . S
C704 C705 1.363 . S
C704 H716 0.929 . S
C705 C704 1.363 . S
C705 N707 1.375 . S
C705 H723 0.931 1_556 S
C706 N703 1.311 . S
C706 N707 1.347 . S
C706 H717 0.929 . S
N707 C705 1.375 . S
N707 C706 1.347 . S
C708 C711 1.365 . S
C708 N713 1.328 . S
C708 H714 0.929 . S
C709 C710 1.362 . S
C709 C712 1.378 . S
C709 H724 0.929 . S
C710 C709 1.362 . S
C710 C711 1.366 . S
C711 C708 1.365 . S
C711 C710 1.366 . S
C711 H725 0.930 . S
C712 C709 1.378 . S
C712 N713 1.315 . S
C712 H715 0.930 . S
N713 Co693 2.194 . S
N713 C708 1.328 . S
N713 C712 1.315 . S
H714 C708 0.929 . S
H715 C712 0.930 . S
H716 C704 0.929 . S
H717 C706 0.929 . S
O718 Co693 2.351 . S
O718 C721 1.244 . S
O719 Co693 2.155 . S
O719 C721 1.240 . S
O720 Co693 2.096 . S
O720 C701 1.247 . S
C721 O718 1.244 . S
C721 O719 1.240 . S
H722 C696 0.931 . S
H723 C705 0.931 1_554 S
H724 C709 0.929 . S
H725 C711 0.930 . S
Co726 N730 2.148 . S
Co726 N736 2.128 . S
Co726 N746 2.194 . S
Co726 O751 2.351 . S
Co726 O752 2.155 . S
Co726 O753 2.096 . S
C727 N730 1.301 . S
C727 N731 1.328 . S
C727 H732 0.930 . S
C728 C729 1.333 . S
C728 N730 1.317 . S
C728 H733 0.930 . S
C729 C728 1.333 . S
C729 N731 1.350 . S
C729 H755 0.931 . S
N730 Co726 2.148 . S
N730 C727 1.301 . S
N730 C728 1.317 . S
N731 C727 1.328 . S
N731 C729 1.350 . S
H732 C727 0.930 . S
H733 C728 0.930 . S
C734 O735 1.224 . S
C734 O753 1.247 . S
O735 C734 1.224 . S
N736 Co726 2.128 . S
N736 C737 1.355 . S
N736 C739 1.311 . S
C737 N736 1.355 . S
C737 C738 1.363 . S
C737 H749 0.929 . S
C738 C737 1.363 . S
C738 N740 1.375 . S
C738 H756 0.931 1_556 S
C739 N736 1.311 . S
C739 N740 1.347 . S
C739 H750 0.929 . S
N740 C738 1.375 . S
N740 C739 1.347 . S
C741 C744 1.365 . S
C741 N746 1.328 . S
C741 H747 0.929 . S
C742 C743 1.362 . S
C742 C745 1.378 . S
C742 H757 0.929 . S
C743 C742 1.362 . S
C743 C744 1.366 . S
C744 C741 1.365 . S
C744 C743 1.366 . S
C744 H758 0.930 . S
C745 C742 1.378 . S
C745 N746 1.315 . S
C745 H748 0.930 . S
N746 Co726 2.194 . S
N746 C741 1.328 . S
N746 C745 1.315 . S
H747 C741 0.929 . S
H748 C745 0.930 . S
H749 C737 0.929 . S
H750 C739 0.929 . S
O751 Co726 2.351 . S
O751 C754 1.244 . S
O752 Co726 2.155 . S
O752 C754 1.240 . S
O753 Co726 2.096 . S
O753 C734 1.247 . S
C754 O751 1.244 . S
C754 O752 1.240 . S
H755 C729 0.931 . S
H756 C738 0.931 1_554 S
H757 C742 0.929 . S
H758 C744 0.930 . S
Co759 N763 2.148 . S
Co759 N769 2.128 . S
Co759 N779 2.194 . S
Co759 O784 2.351 . S
Co759 O785 2.155 . S
Co759 O786 2.096 . S
C760 N763 1.301 . S
C760 N764 1.328 . S
C760 H765 0.930 . S
C761 C762 1.333 . S
C761 N763 1.317 . S
C761 H766 0.930 . S
C762 C761 1.333 . S
C762 N764 1.350 . S
C762 H788 0.931 . S
N763 Co759 2.148 . S
N763 C760 1.301 . S
N763 C761 1.317 . S
N764 C760 1.328 . S
N764 C762 1.350 . S
H765 C760 0.930 . S
H766 C761 0.930 . S
C767 O768 1.224 . S
C767 O786 1.247 . S
O768 C767 1.224 . S
N769 Co759 2.128 . S
N769 C770 1.355 . S
N769 C772 1.311 . S
C770 N769 1.355 . S
C770 C771 1.363 . S
C770 H782 0.929 . S
C771 C770 1.363 . S
C771 N773 1.375 . S
C771 H789 0.931 1_556 S
C772 N769 1.311 . S
C772 N773 1.347 . S
C772 H783 0.929 . S
N773 C771 1.375 . S
N773 C772 1.347 . S
C774 C777 1.365 . S
C774 N779 1.328 . S
C774 H780 0.929 . S
C775 C776 1.362 . S
C775 C778 1.378 . S
C775 H790 0.929 . S
C776 C775 1.362 . S
C776 C777 1.366 . S
C777 C774 1.365 . S
C777 C776 1.366 . S
C777 H791 0.930 . S
C778 C775 1.378 . S
C778 N779 1.315 . S
C778 H781 0.930 . S
N779 Co759 2.194 . S
N779 C774 1.328 . S
N779 C778 1.315 . S
H780 C774 0.929 . S
H781 C778 0.930 . S
H782 C770 0.929 . S
H783 C772 0.929 . S
O784 Co759 2.351 . S
O784 C787 1.244 . S
O785 Co759 2.155 . S
O785 C787 1.240 . S
O786 Co759 2.096 . S
O786 C767 1.247 . S
C787 O784 1.244 . S
C787 O785 1.240 . S
H788 C762 0.931 . S
H789 C771 0.931 1_554 S
H790 C775 0.929 . S
H791 C777 0.930 . S
Co792 N796 2.148 . S
Co792 N802 2.128 . S
Co792 N812 2.194 . S
Co792 O817 2.351 . S
Co792 O818 2.155 . S
Co792 O819 2.096 . S
C793 N796 1.301 . S
C793 N797 1.328 . S
C793 H798 0.930 . S
C794 C795 1.333 . S
C794 N796 1.317 . S
C794 H799 0.930 . S
C795 C794 1.333 . S
C795 N797 1.350 . S
C795 H821 0.931 . S
N796 Co792 2.148 . S
N796 C793 1.301 . S
N796 C794 1.317 . S
N797 C793 1.328 . S
N797 C795 1.350 . S
H798 C793 0.930 . S
H799 C794 0.930 . S
C800 O801 1.224 . S
C800 O819 1.247 . S
O801 C800 1.224 . S
N802 Co792 2.128 . S
N802 C803 1.355 . S
N802 C805 1.311 . S
C803 N802 1.355 . S
C803 C804 1.363 . S
C803 H815 0.929 . S
C804 C803 1.363 . S
C804 N806 1.375 . S
C804 H822 0.931 . S
C805 N802 1.311 . S
C805 N806 1.347 . S
C805 H816 0.929 . S
N806 C804 1.375 . S
N806 C805 1.347 . S
C807 C810 1.365 . S
C807 N812 1.328 . S
C807 H813 0.929 . S
C808 C809 1.362 . S
C808 C811 1.378 . S
C808 H823 0.929 . S
C809 C808 1.362 . S
C809 C810 1.366 . S
C810 C807 1.365 . S
C810 C809 1.366 . S
C810 H824 0.930 . S
C811 C808 1.378 . S
C811 N812 1.315 . S
C811 H814 0.930 . S
N812 Co792 2.194 . S
N812 C807 1.328 . S
N812 C811 1.315 . S
H813 C807 0.929 . S
H814 C811 0.930 . S
H815 C803 0.929 . S
H816 C805 0.929 . S
O817 Co792 2.351 . S
O817 C820 1.244 . S
O818 Co792 2.155 . S
O818 C820 1.240 . S
O819 Co792 2.096 . S
O819 C800 1.247 . S
C820 O817 1.244 . S
C820 O818 1.240 . S
H821 C795 0.931 . S
H822 C804 0.931 . S
H823 C808 0.929 . S
H824 C810 0.930 . S
Co825 N829 2.148 . S
Co825 N835 2.128 . S
Co825 N845 2.194 . S
Co825 O850 2.351 . S
Co825 O851 2.155 . S
Co825 O852 2.096 . S
C826 N829 1.301 . S
C826 N830 1.328 . S
C826 H831 0.930 . S
C827 C828 1.333 . S
C827 N829 1.317 . S
C827 H832 0.930 . S
C828 C827 1.333 . S
C828 N830 1.350 . S
C828 H854 0.931 . S
N829 Co825 2.148 . S
N829 C826 1.301 . S
N829 C827 1.317 . S
N830 C826 1.328 . S
N830 C828 1.350 . S
H831 C826 0.930 . S
H832 C827 0.930 . S
C833 O834 1.224 . S
C833 O852 1.247 . S
O834 C833 1.224 . S
N835 Co825 2.128 . S
N835 C836 1.355 . S
N835 C838 1.311 . S
C836 N835 1.355 . S
C836 C837 1.363 . S
C836 H848 0.929 . S
C837 C836 1.363 . S
C837 N839 1.375 . S
C837 H855 0.931 . S
C838 N835 1.311 . S
C838 N839 1.347 . S
C838 H849 0.929 . S
N839 C837 1.375 . S
N839 C838 1.347 . S
C840 C843 1.365 . S
C840 N845 1.328 . S
C840 H846 0.929 . S
C841 C842 1.362 . S
C841 C844 1.378 . S
C841 H856 0.929 . S
C842 C841 1.362 . S
C842 C843 1.366 . S
C843 C840 1.365 . S
C843 C842 1.366 . S
C843 H857 0.930 . S
C844 C841 1.378 . S
C844 N845 1.315 . S
C844 H847 0.930 . S
N845 Co825 2.194 . S
N845 C840 1.328 . S
N845 C844 1.315 . S
H846 C840 0.929 . S
H847 C844 0.930 . S
H848 C836 0.929 . S
H849 C838 0.929 . S
O850 Co825 2.351 . S
O850 C853 1.244 . S
O851 Co825 2.155 . S
O851 C853 1.240 . S
O852 Co825 2.096 . S
O852 C833 1.247 . S
C853 O850 1.244 . S
C853 O851 1.240 . S
H854 C828 0.931 . S
H855 C837 0.931 . S
H856 C841 0.929 . S
H857 C843 0.930 . S
Co858 N862 2.148 . S
Co858 N868 2.128 . S
Co858 N878 2.194 . S
Co858 O883 2.351 . S
Co858 O884 2.155 . S
Co858 O885 2.096 . S
C859 N862 1.301 . S
C859 N863 1.328 . S
C859 H864 0.930 . S
C860 C861 1.333 . S
C860 N862 1.317 . S
C860 H865 0.930 . S
C861 C860 1.333 . S
C861 N863 1.350 . S
C861 H887 0.931 . S
N862 Co858 2.148 . S
N862 C859 1.301 . S
N862 C860 1.317 . S
N863 C859 1.328 . S
N863 C861 1.350 . S
H864 C859 0.930 . S
H865 C860 0.930 . S
C866 O867 1.224 . S
C866 O885 1.247 . S
O867 C866 1.224 . S
N868 Co858 2.128 . S
N868 C869 1.355 . S
N868 C871 1.311 . S
C869 N868 1.355 . S
C869 C870 1.363 . S
C869 H881 0.929 . S
C870 C869 1.363 . S
C870 N872 1.375 . S
C870 H888 0.931 . S
C871 N868 1.311 . S
C871 N872 1.347 . S
C871 H882 0.929 . S
N872 C870 1.375 . S
N872 C871 1.347 . S
C873 C876 1.365 . S
C873 N878 1.328 . S
C873 H879 0.929 . S
C874 C875 1.362 . S
C874 C877 1.378 . S
C874 H889 0.929 . S
C875 C874 1.362 . S
C875 C876 1.366 . S
C876 C873 1.365 . S
C876 C875 1.366 . S
C876 H890 0.930 . S
C877 C874 1.378 . S
C877 N878 1.315 . S
C877 H880 0.930 . S
N878 Co858 2.194 . S
N878 C873 1.328 . S
N878 C877 1.315 . S
H879 C873 0.929 . S
H880 C877 0.930 . S
H881 C869 0.929 . S
H882 C871 0.929 . S
O883 Co858 2.351 . S
O883 C886 1.244 . S
O884 Co858 2.155 . S
O884 C886 1.240 . S
O885 Co858 2.096 . S
O885 C866 1.247 . S
C886 O883 1.244 . S
C886 O884 1.240 . S
H887 C861 0.931 . S
H888 C870 0.931 . S
H889 C874 0.929 . S
H890 C876 0.930 . S
Co891 N895 2.148 . S
Co891 N901 2.128 . S
Co891 N911 2.194 . S
Co891 O916 2.351 . S
Co891 O917 2.155 . S
Co891 O918 2.096 . S
C892 N895 1.301 . S
C892 N896 1.328 . S
C892 H897 0.930 . S
C893 C894 1.333 . S
C893 N895 1.317 . S
C893 H898 0.930 . S
C894 C893 1.333 . S
C894 N896 1.350 . S
C894 H920 0.931 . S
N895 Co891 2.148 . S
N895 C892 1.301 . S
N895 C893 1.317 . S
N896 C892 1.328 . S
N896 C894 1.350 . S
H897 C892 0.930 . S
H898 C893 0.930 . S
C899 O900 1.224 . S
C899 O918 1.247 . S
O900 C899 1.224 . S
N901 Co891 2.128 . S
N901 C902 1.355 . S
N901 C904 1.311 . S
C902 N901 1.355 . S
C902 C903 1.363 . S
C902 H914 0.929 . S
C903 C902 1.363 . S
C903 N905 1.375 . S
C903 H921 0.931 1_554 S
C904 N901 1.311 . S
C904 N905 1.347 . S
C904 H915 0.929 . S
N905 C903 1.375 . S
N905 C904 1.347 . S
C906 C909 1.365 . S
C906 N911 1.328 . S
C906 H912 0.929 . S
C907 C908 1.362 . S
C907 C910 1.378 . S
C907 H922 0.929 . S
C908 C907 1.362 . S
C908 C909 1.366 . S
C909 C906 1.365 . S
C909 C908 1.366 . S
C909 H923 0.930 . S
C910 C907 1.378 . S
C910 N911 1.315 . S
C910 H913 0.930 . S
N911 Co891 2.194 . S
N911 C906 1.328 . S
N911 C910 1.315 . S
H912 C906 0.929 . S
H913 C910 0.930 . S
H914 C902 0.929 . S
H915 C904 0.929 . S
O916 Co891 2.351 . S
O916 C919 1.244 . S
O917 Co891 2.155 . S
O917 C919 1.240 . S
O918 Co891 2.096 . S
O918 C899 1.247 . S
C919 O916 1.244 . S
C919 O917 1.240 . S
H920 C894 0.931 . S
H921 C903 0.931 1_556 S
H922 C907 0.929 . S
H923 C909 0.930 . S
Co924 N928 2.148 . S
Co924 N934 2.128 . S
Co924 N944 2.194 . S
Co924 O949 2.351 . S
Co924 O950 2.155 . S
Co924 O951 2.096 . S
C925 N928 1.301 . S
C925 N929 1.328 . S
C925 H930 0.930 . S
C926 C927 1.333 . S
C926 N928 1.317 . S
C926 H931 0.930 . S
C927 C926 1.333 . S
C927 N929 1.350 . S
C927 H953 0.931 . S
N928 Co924 2.148 . S
N928 C925 1.301 . S
N928 C926 1.317 . S
N929 C925 1.328 . S
N929 C927 1.350 . S
H930 C925 0.930 . S
H931 C926 0.930 . S
C932 O933 1.224 . S
C932 O951 1.247 . S
O933 C932 1.224 . S
N934 Co924 2.128 . S
N934 C935 1.355 . S
N934 C937 1.311 . S
C935 N934 1.355 . S
C935 C936 1.363 . S
C935 H947 0.929 . S
C936 C935 1.363 . S
C936 N938 1.375 . S
C936 H954 0.931 1_554 S
C937 N934 1.311 . S
C937 N938 1.347 . S
C937 H948 0.929 . S
N938 C936 1.375 . S
N938 C937 1.347 . S
C939 C942 1.365 . S
C939 N944 1.328 . S
C939 H945 0.929 . S
C940 C941 1.362 . S
C940 C943 1.378 . S
C940 H955 0.929 . S
C941 C940 1.362 . S
C941 C942 1.366 . S
C942 C939 1.365 . S
C942 C941 1.366 . S
C942 H956 0.930 . S
C943 C940 1.378 . S
C943 N944 1.315 . S
C943 H946 0.930 . S
N944 Co924 2.194 . S
N944 C939 1.328 . S
N944 C943 1.315 . S
H945 C939 0.929 . S
H946 C943 0.930 . S
H947 C935 0.929 . S
H948 C937 0.929 . S
O949 Co924 2.351 . S
O949 C952 1.244 . S
O950 Co924 2.155 . S
O950 C952 1.240 . S
O951 Co924 2.096 . S
O951 C932 1.247 . S
C952 O949 1.244 . S
C952 O950 1.240 . S
H953 C927 0.931 . S
H954 C936 0.931 1_556 S
H955 C940 0.929 . S
H956 C942 0.930 . S
Co957 N961 2.148 . S
Co957 N967 2.128 . S
Co957 N977 2.194 . S
Co957 O982 2.351 . S
Co957 O983 2.155 . S
Co957 O984 2.096 . S
C958 N961 1.301 . S
C958 N962 1.328 . S
C958 H963 0.930 . S
C959 C960 1.333 . S
C959 N961 1.317 . S
C959 H964 0.930 . S
C960 C959 1.333 . S
C960 N962 1.350 . S
C960 H986 0.931 . S
N961 Co957 2.148 . S
N961 C958 1.301 . S
N961 C959 1.317 . S
N962 C958 1.328 . S
N962 C960 1.350 . S
H963 C958 0.930 . S
H964 C959 0.930 . S
C965 O966 1.224 . S
C965 O984 1.247 . S
O966 C965 1.224 . S
N967 Co957 2.128 . S
N967 C968 1.355 . S
N967 C970 1.311 . S
C968 N967 1.355 . S
C968 C969 1.363 . S
C968 H980 0.929 . S
C969 C968 1.363 . S
C969 N971 1.375 . S
C969 H987 0.931 1_554 S
C970 N967 1.311 . S
C970 N971 1.347 . S
C970 H981 0.929 . S
N971 C969 1.375 . S
N971 C970 1.347 . S
C972 C975 1.365 . S
C972 N977 1.328 . S
C972 H978 0.929 . S
C973 C974 1.362 . S
C973 C976 1.378 . S
C973 H988 0.929 . S
C974 C973 1.362 . S
C974 C975 1.366 . S
C975 C972 1.365 . S
C975 C974 1.366 . S
C975 H989 0.930 . S
C976 C973 1.378 . S
C976 N977 1.315 . S
C976 H979 0.930 . S
N977 Co957 2.194 . S
N977 C972 1.328 . S
N977 C976 1.315 . S
H978 C972 0.929 . S
H979 C976 0.930 . S
H980 C968 0.929 . S
H981 C970 0.929 . S
O982 Co957 2.351 . S
O982 C985 1.244 . S
O983 Co957 2.155 . S
O983 C985 1.240 . S
O984 Co957 2.096 . S
O984 C965 1.247 . S
C985 O982 1.244 . S
C985 O983 1.240 . S
H986 C960 0.931 . S
H987 C969 0.931 1_556 S
H988 C973 0.929 . S
H989 C975 0.930 . S
Co990 N994 2.148 . S
Co990 N1000 2.128 . S
Co990 N1010 2.194 . S
Co990 O1015 2.351 . S
Co990 O1016 2.155 . S
Co990 O1017 2.096 . S
C991 N994 1.301 . S
C991 N995 1.328 . S
C991 H996 0.930 . S
C992 C993 1.333 . S
C992 N994 1.317 . S
C992 H997 0.930 . S
C993 C992 1.333 . S
C993 N995 1.350 . S
C993 H1019 0.931 . S
N994 Co990 2.148 . S
N994 C991 1.301 . S
N994 C992 1.317 . S
N995 C991 1.328 . S
N995 C993 1.350 . S
H996 C991 0.930 . S
H997 C992 0.930 . S
C998 O999 1.224 . S
C998 O1017 1.247 . S
O999 C998 1.224 . S
N1000 Co990 2.128 . S
N1000 C1001 1.355 . S
N1000 C1003 1.311 . S
C1001 N1000 1.355 . S
C1001 C1002 1.363 . S
C1001 H1013 0.929 . S
C1002 C1001 1.363 . S
C1002 N1004 1.375 . S
C1002 H1020 0.931 . S
C1003 N1000 1.311 . S
C1003 N1004 1.347 . S
C1003 H1014 0.929 . S
N1004 C1002 1.375 . S
N1004 C1003 1.347 . S
C1005 C1008 1.365 . S
C1005 N1010 1.328 . S
C1005 H1011 0.929 . S
C1006 C1007 1.362 . S
C1006 C1009 1.378 . S
C1006 H1021 0.929 . S
C1007 C1006 1.362 . S
C1007 C1008 1.366 . S
C1008 C1005 1.365 . S
C1008 C1007 1.366 . S
C1008 H1022 0.930 . S
C1009 C1006 1.378 . S
C1009 N1010 1.315 . S
C1009 H1012 0.930 . S
N1010 Co990 2.194 . S
N1010 C1005 1.328 . S
N1010 C1009 1.315 . S
H1011 C1005 0.929 . S
H1012 C1009 0.930 . S
H1013 C1001 0.929 . S
H1014 C1003 0.929 . S
O1015 Co990 2.351 . S
O1015 C1018 1.244 . S
O1016 Co990 2.155 . S
O1016 C1018 1.240 . S
O1017 Co990 2.096 . S
O1017 C998 1.247 . S
C1018 O1015 1.244 . S
C1018 O1016 1.240 . S
H1019 C993 0.931 . S
H1020 C1002 0.931 . S
H1021 C1006 0.929 . S
H1022 C1008 0.930 . S
Co1023 N1027 2.148 . S
Co1023 N1033 2.128 . S
Co1023 N1043 2.194 . S
Co1023 O1048 2.351 . S
Co1023 O1049 2.155 . S
Co1023 O1050 2.096 . S
C1024 N1027 1.301 . S
C1024 N1028 1.328 . S
C1024 H1029 0.930 . S
C1025 C1026 1.333 . S
C1025 N1027 1.317 . S
C1025 H1030 0.930 . S
C1026 C1025 1.333 . S
C1026 N1028 1.350 . S
C1026 H1052 0.931 . S
N1027 Co1023 2.148 . S
N1027 C1024 1.301 . S
N1027 C1025 1.317 . S
N1028 C1024 1.328 . S
N1028 C1026 1.350 . S
H1029 C1024 0.930 . S
H1030 C1025 0.930 . S
C1031 O1032 1.224 . S
C1031 O1050 1.247 . S
O1032 C1031 1.224 . S
N1033 Co1023 2.128 . S
N1033 C1034 1.355 . S
N1033 C1036 1.311 . S
C1034 N1033 1.355 . S
C1034 C1035 1.363 . S
C1034 H1046 0.929 . S
C1035 C1034 1.363 . S
C1035 N1037 1.375 . S
C1035 H1053 0.931 . S
C1036 N1033 1.311 . S
C1036 N1037 1.347 . S
C1036 H1047 0.929 . S
N1037 C1035 1.375 . S
N1037 C1036 1.347 . S
C1038 C1041 1.365 . S
C1038 N1043 1.328 . S
C1038 H1044 0.929 . S
C1039 C1040 1.362 . S
C1039 C1042 1.378 . S
C1039 H1054 0.929 . S
C1040 C1039 1.362 . S
C1040 C1041 1.366 . S
C1041 C1038 1.365 . S
C1041 C1040 1.366 . S
C1041 H1055 0.930 . S
C1042 C1039 1.378 . S
C1042 N1043 1.315 . S
C1042 H1045 0.930 . S
N1043 Co1023 2.194 . S
N1043 C1038 1.328 . S
N1043 C1042 1.315 . S
H1044 C1038 0.929 . S
H1045 C1042 0.930 . S
H1046 C1034 0.929 . S
H1047 C1036 0.929 . S
O1048 Co1023 2.351 . S
O1048 C1051 1.244 . S
O1049 Co1023 2.155 . S
O1049 C1051 1.240 . S
O1050 Co1023 2.096 . S
O1050 C1031 1.247 . S
C1051 O1048 1.244 . S
C1051 O1049 1.240 . S
H1052 C1026 0.931 . S
H1053 C1035 0.931 . S
H1054 C1039 0.929 . S
H1055 C1041 0.930 . S
Co1056 N1060 2.148 . S
Co1056 N1066 2.128 . S
Co1056 N1076 2.194 . S
Co1056 O1081 2.351 . S
Co1056 O1082 2.155 . S
Co1056 O1083 2.096 . S
C1057 N1060 1.301 . S
C1057 N1061 1.328 . S
C1057 H1062 0.930 . S
C1058 C1059 1.333 . S
C1058 N1060 1.317 . S
C1058 H1063 0.930 . S
C1059 C1058 1.333 . S
C1059 N1061 1.350 . S
C1059 H1085 0.931 . S
N1060 Co1056 2.148 . S
N1060 C1057 1.301 . S
N1060 C1058 1.317 . S
N1061 C1057 1.328 . S
N1061 C1059 1.350 . S
H1062 C1057 0.930 . S
H1063 C1058 0.930 . S
C1064 O1065 1.224 . S
C1064 O1083 1.247 . S
O1065 C1064 1.224 . S
N1066 Co1056 2.128 . S
N1066 C1067 1.355 . S
N1066 C1069 1.311 . S
C1067 N1066 1.355 . S
C1067 C1068 1.363 . S
C1067 H1079 0.929 . S
C1068 C1067 1.363 . S
C1068 N1070 1.375 . S
C1068 H1086 0.931 . S
C1069 N1066 1.311 . S
C1069 N1070 1.347 . S
C1069 H1080 0.929 . S
N1070 C1068 1.375 . S
N1070 C1069 1.347 . S
C1071 C1074 1.365 . S
C1071 N1076 1.328 . S
C1071 H1077 0.929 . S
C1072 C1073 1.362 . S
C1072 C1075 1.378 . S
C1072 H1087 0.929 . S
C1073 C1072 1.362 . S
C1073 C1074 1.366 . S
C1074 C1071 1.365 . S
C1074 C1073 1.366 . S
C1074 H1088 0.930 . S
C1075 C1072 1.378 . S
C1075 N1076 1.315 . S
C1075 H1078 0.930 . S
N1076 Co1056 2.194 . S
N1076 C1071 1.328 . S
N1076 C1075 1.315 . S
H1077 C1071 0.929 . S
H1078 C1075 0.930 . S
H1079 C1067 0.929 . S
H1080 C1069 0.929 . S
O1081 Co1056 2.351 . S
O1081 C1084 1.244 . S
O1082 Co1056 2.155 . S
O1082 C1084 1.240 . S
O1083 Co1056 2.096 . S
O1083 C1064 1.247 . S
C1084 O1081 1.244 . S
C1084 O1082 1.240 . S
H1085 C1059 0.931 . S
H1086 C1068 0.931 . S
H1087 C1072 0.929 . S
H1088 C1074 0.930 . S
Co1089 N1093 2.148 . S
Co1089 N1099 2.128 . S
Co1089 N1109 2.194 . S
Co1089 O1114 2.351 . S
Co1089 O1115 2.155 . S
Co1089 O1116 2.096 . S
C1090 N1093 1.301 . S
C1090 N1094 1.328 . S
C1090 H1095 0.930 . S
C1091 C1092 1.333 . S
C1091 N1093 1.317 . S
C1091 H1096 0.930 . S
C1092 C1091 1.333 . S
C1092 N1094 1.350 . S
C1092 H1118 0.931 . S
N1093 Co1089 2.148 . S
N1093 C1090 1.301 . S
N1093 C1091 1.317 . S
N1094 C1090 1.328 . S
N1094 C1092 1.350 . S
H1095 C1090 0.930 . S
H1096 C1091 0.930 . S
C1097 O1098 1.224 . S
C1097 O1116 1.247 . S
O1098 C1097 1.224 . S
N1099 Co1089 2.128 . S
N1099 C1100 1.355 . S
N1099 C1102 1.311 . S
C1100 N1099 1.355 . S
C1100 C1101 1.363 . S
C1100 H1112 0.929 . S
C1101 C1100 1.363 . S
C1101 N1103 1.375 . S
C1101 H1119 0.931 . S
C1102 N1099 1.311 . S
C1102 N1103 1.347 . S
C1102 H1113 0.929 . S
N1103 C1101 1.375 . S
N1103 C1102 1.347 . S
C1104 C1107 1.365 . S
C1104 N1109 1.328 . S
C1104 H1110 0.929 . S
C1105 C1106 1.362 . S
C1105 C1108 1.378 . S
C1105 H1120 0.929 . S
C1106 C1105 1.362 . S
C1106 C1107 1.366 . S
C1107 C1104 1.365 . S
C1107 C1106 1.366 . S
C1107 H1121 0.930 . S
C1108 C1105 1.378 . S
C1108 N1109 1.315 . S
C1108 H1111 0.930 . S
N1109 Co1089 2.194 . S
N1109 C1104 1.328 . S
N1109 C1108 1.315 . S
H1110 C1104 0.929 . S
H1111 C1108 0.930 . S
H1112 C1100 0.929 . S
H1113 C1102 0.929 . S
O1114 Co1089 2.351 . S
O1114 C1117 1.244 . S
O1115 Co1089 2.155 . S
O1115 C1117 1.240 . S
O1116 Co1089 2.096 . S
O1116 C1097 1.247 . S
C1117 O1114 1.244 . S
C1117 O1115 1.240 . S
H1118 C1092 0.931 . S
H1119 C1101 0.931 . S
H1120 C1105 0.929 . S
H1121 C1107 0.930 . S
Co1122 N1126 2.148 . S
Co1122 N1132 2.128 . S
Co1122 N1142 2.194 . S
Co1122 O1147 2.351 . S
Co1122 O1148 2.155 . S
Co1122 O1149 2.096 . S
C1123 N1126 1.301 . S
C1123 N1127 1.328 . S
C1123 H1128 0.930 . S
C1124 C1125 1.333 . S
C1124 N1126 1.317 . S
C1124 H1129 0.930 . S
C1125 C1124 1.333 . S
C1125 N1127 1.350 . S
C1125 H1151 0.931 . S
N1126 Co1122 2.148 . S
N1126 C1123 1.301 . S
N1126 C1124 1.317 . S
N1127 C1123 1.328 . S
N1127 C1125 1.350 . S
H1128 C1123 0.930 . S
H1129 C1124 0.930 . S
C1130 O1131 1.224 . S
C1130 O1149 1.247 . S
O1131 C1130 1.224 . S
N1132 Co1122 2.128 . S
N1132 C1133 1.355 . S
N1132 C1135 1.311 . S
C1133 N1132 1.355 . S
C1133 C1134 1.363 . S
C1133 H1145 0.929 . S
C1134 C1133 1.363 . S
C1134 N1136 1.375 . S
C1134 H1152 0.931 . S
C1135 N1132 1.311 . S
C1135 N1136 1.347 . S
C1135 H1146 0.929 . S
N1136 C1134 1.375 . S
N1136 C1135 1.347 . S
C1137 C1140 1.365 . S
C1137 N1142 1.328 . S
C1137 H1143 0.929 . S
C1138 C1139 1.362 . S
C1138 C1141 1.378 . S
C1138 H1153 0.929 . S
C1139 C1138 1.362 . S
C1139 C1140 1.366 . S
C1140 C1137 1.365 . S
C1140 C1139 1.366 . S
C1140 H1154 0.930 . S
C1141 C1138 1.378 . S
C1141 N1142 1.315 . S
C1141 H1144 0.930 . S
N1142 Co1122 2.194 . S
N1142 C1137 1.328 . S
N1142 C1141 1.315 . S
H1143 C1137 0.929 . S
H1144 C1141 0.930 . S
H1145 C1133 0.929 . S
H1146 C1135 0.929 . S
O1147 Co1122 2.351 . S
O1147 C1150 1.244 . S
O1148 Co1122 2.155 . S
O1148 C1150 1.240 . S
O1149 Co1122 2.096 . S
O1149 C1130 1.247 . S
C1150 O1147 1.244 . S
C1150 O1148 1.240 . S
H1151 C1125 0.931 . S
H1152 C1134 0.931 . S
H1153 C1138 0.929 . S
H1154 C1140 0.930 . S
Co1155 N1159 2.148 . S
Co1155 N1165 2.128 . S
Co1155 N1175 2.194 . S
Co1155 O1180 2.351 . S
Co1155 O1181 2.155 . S
Co1155 O1182 2.096 . S
C1156 N1159 1.301 . S
C1156 N1160 1.328 . S
C1156 H1161 0.930 . S
C1157 C1158 1.333 . S
C1157 N1159 1.317 . S
C1157 H1162 0.930 . S
C1158 C1157 1.333 . S
C1158 N1160 1.350 . S
C1158 H1184 0.931 . S
N1159 Co1155 2.148 . S
N1159 C1156 1.301 . S
N1159 C1157 1.317 . S
N1160 C1156 1.328 . S
N1160 C1158 1.350 . S
H1161 C1156 0.930 . S
H1162 C1157 0.930 . S
C1163 O1164 1.224 . S
C1163 O1182 1.247 . S
O1164 C1163 1.224 . S
N1165 Co1155 2.128 . S
N1165 C1166 1.355 . S
N1165 C1168 1.311 . S
C1166 N1165 1.355 . S
C1166 C1167 1.363 . S
C1166 H1178 0.929 . S
C1167 C1166 1.363 . S
C1167 N1169 1.375 . S
C1167 H1185 0.931 . S
C1168 N1165 1.311 . S
C1168 N1169 1.347 . S
C1168 H1179 0.929 . S
N1169 C1167 1.375 . S
N1169 C1168 1.347 . S
C1170 C1173 1.365 . S
C1170 N1175 1.328 . S
C1170 H1176 0.929 . S
C1171 C1172 1.362 . S
C1171 C1174 1.378 . S
C1171 H1186 0.929 . S
C1172 C1171 1.362 . S
C1172 C1173 1.366 . S
C1173 C1170 1.365 . S
C1173 C1172 1.366 . S
C1173 H1187 0.930 . S
C1174 C1171 1.378 . S
C1174 N1175 1.315 . S
C1174 H1177 0.930 . S
N1175 Co1155 2.194 . S
N1175 C1170 1.328 . S
N1175 C1174 1.315 . S
H1176 C1170 0.929 . S
H1177 C1174 0.930 . S
H1178 C1166 0.929 . S
H1179 C1168 0.929 . S
O1180 Co1155 2.351 . S
O1180 C1183 1.244 . S
O1181 Co1155 2.155 . S
O1181 C1183 1.240 . S
O1182 Co1155 2.096 . S
O1182 C1163 1.247 . S
C1183 O1180 1.244 . S
C1183 O1181 1.240 . S
H1184 C1158 0.931 . S
H1185 C1167 0.931 . S
H1186 C1171 0.929 . S
H1187 C1173 0.930 . S
C1188 C1189 1.369 . S
C1188 C1190 1.419 . S
C1188 H1192 0.930 . S
C1189 C1188 1.369 . S
C1189 C1198 1.429 . S
C1190 C1188 1.419 . S
C1190 C1191 1.363 . S
C1190 H1193 0.929 . S
C1191 C1190 1.363 . S
C1191 C1197 1.428 . S
H1192 C1188 0.930 . S
H1193 C1190 0.929 . S
S1194 N1195 1.613 . S
S1194 N1196 1.610 . S
N1195 S1194 1.613 . S
N1195 C1198 1.350 . S
N1196 S1194 1.610 . S
N1196 C1197 1.351 . S
C1197 C1191 1.428 . S
C1197 N1196 1.351 . S
C1197 C1198 1.434 . S
C1198 C1189 1.429 . S
C1198 N1195 1.350 . S
C1198 C1197 1.434 . S
C1199 C1200 1.369 . S
C1199 C1201 1.419 . S
C1199 H1203 0.930 . S
C1200 C1199 1.369 . S
C1200 C1209 1.429 . S
C1201 C1199 1.419 . S
C1201 C1202 1.363 . S
C1201 H1204 0.929 . S
C1202 C1201 1.363 . S
C1202 C1208 1.428 . S
H1203 C1199 0.930 . S
H1204 C1201 0.929 . S
S1205 N1206 1.613 . S
S1205 N1207 1.610 . S
N1206 S1205 1.613 . S
N1206 C1209 1.350 . S
N1207 S1205 1.610 . S
N1207 C1208 1.351 . S
C1208 C1202 1.428 . S
C1208 N1207 1.351 . S
C1208 C1209 1.434 . S
C1209 C1200 1.429 . S
C1209 N1206 1.350 . S
C1209 C1208 1.434 . S
C1210 C1211 1.369 . S
C1210 C1212 1.419 . S
C1210 H1214 0.930 . S
C1211 C1210 1.369 . S
C1211 C1220 1.429 . S
C1212 C1210 1.419 . S
C1212 C1213 1.363 . S
C1212 H1215 0.929 . S
C1213 C1212 1.363 . S
C1213 C1219 1.428 . S
H1214 C1210 0.930 . S
H1215 C1212 0.929 . S
S1216 N1217 1.613 . S
S1216 N1218 1.610 . S
N1217 S1216 1.613 . S
N1217 C1220 1.350 . S
N1218 S1216 1.610 . S
N1218 C1219 1.351 . S
C1219 C1213 1.428 . S
C1219 N1218 1.351 . S
C1219 C1220 1.434 . S
C1220 C1211 1.429 . S
C1220 N1217 1.350 . S
C1220 C1219 1.434 . S
C1221 C1222 1.369 . S
C1221 C1223 1.419 . S
C1221 H1225 0.930 . S
C1222 C1221 1.369 . S
C1222 C1231 1.429 . S
C1223 C1221 1.419 . S
C1223 C1224 1.363 . S
C1223 H1226 0.929 . S
C1224 C1223 1.363 . S
C1224 C1230 1.428 . S
H1225 C1221 0.930 . S
H1226 C1223 0.929 . S
S1227 N1228 1.613 . S
S1227 N1229 1.610 . S
N1228 S1227 1.613 . S
N1228 C1231 1.350 . S
N1229 S1227 1.610 . S
N1229 C1230 1.351 . S
C1230 C1224 1.428 . S
C1230 N1229 1.351 . S
C1230 C1231 1.434 . S
C1231 C1222 1.429 . S
C1231 N1228 1.350 . S
C1231 C1230 1.434 . S
C1232 C1233 1.369 . S
C1232 C1234 1.419 . S
C1232 H1236 0.930 . S
C1233 C1232 1.369 . S
C1233 C1242 1.429 . S
C1234 C1232 1.419 . S
C1234 C1235 1.363 . S
C1234 H1237 0.929 . S
C1235 C1234 1.363 . S
C1235 C1241 1.428 . S
H1236 C1232 0.930 . S
H1237 C1234 0.929 . S
S1238 N1239 1.613 . S
S1238 N1240 1.610 . S
N1239 S1238 1.613 . S
N1239 C1242 1.350 . S
N1240 S1238 1.610 . S
N1240 C1241 1.351 . S
C1241 C1235 1.428 . S
C1241 N1240 1.351 . S
C1241 C1242 1.434 . S
C1242 C1233 1.429 . S
C1242 N1239 1.350 . S
C1242 C1241 1.434 . S
C1243 C1244 1.369 . S
C1243 C1245 1.419 . S
C1243 H1247 0.930 . S
C1244 C1243 1.369 . S
C1244 C1253 1.429 . S
C1245 C1243 1.419 . S
C1245 C1246 1.363 . S
C1245 H1248 0.929 . S
C1246 C1245 1.363 . S
C1246 C1252 1.428 . S
H1247 C1243 0.930 . S
H1248 C1245 0.929 . S
S1249 N1250 1.613 . S
S1249 N1251 1.610 . S
N1250 S1249 1.613 . S
N1250 C1253 1.350 . S
N1251 S1249 1.610 . S
N1251 C1252 1.351 . S
C1252 C1246 1.428 . S
C1252 N1251 1.351 . S
C1252 C1253 1.434 . S
C1253 C1244 1.429 . S
C1253 N1250 1.350 . S
C1253 C1252 1.434 . S
C1254 C1255 1.369 . S
C1254 C1256 1.419 . S
C1254 H1258 0.930 . S
C1255 C1254 1.369 . S
C1255 C1264 1.429 . S
C1256 C1254 1.419 . S
C1256 C1257 1.363 . S
C1256 H1259 0.929 . S
C1257 C1256 1.363 . S
C1257 C1263 1.428 . S
H1258 C1254 0.930 . S
H1259 C1256 0.929 . S
S1260 N1261 1.613 . S
S1260 N1262 1.610 . S
N1261 S1260 1.613 . S
N1261 C1264 1.350 . S
N1262 S1260 1.610 . S
N1262 C1263 1.351 . S
C1263 C1257 1.428 . S
C1263 N1262 1.351 . S
C1263 C1264 1.434 . S
C1264 C1255 1.429 . S
C1264 N1261 1.350 . S
C1264 C1263 1.434 . S
C1265 C1266 1.369 . S
C1265 C1267 1.419 . S
C1265 H1269 0.930 . S
C1266 C1265 1.369 . S
C1266 C1275 1.429 . S
C1267 C1265 1.419 . S
C1267 C1268 1.363 . S
C1267 H1270 0.929 . S
C1268 C1267 1.363 . S
C1268 C1274 1.428 . S
H1269 C1265 0.930 . S
H1270 C1267 0.929 . S
S1271 N1272 1.613 . S
S1271 N1273 1.610 . S
N1272 S1271 1.613 . S
N1272 C1275 1.350 . S
N1273 S1271 1.610 . S
N1273 C1274 1.351 . S
C1274 C1268 1.428 . S
C1274 N1273 1.351 . S
C1274 C1275 1.434 . S
C1275 C1266 1.429 . S
C1275 N1272 1.350 . S
C1275 C1274 1.434 . S
C1276 C1277 1.369 . S
C1276 C1278 1.419 . S
C1276 H1280 0.930 . S
C1277 C1276 1.369 . S
C1277 C1286 1.429 . S
C1278 C1276 1.419 . S
C1278 C1279 1.363 . S
C1278 H1281 0.929 . S
C1279 C1278 1.363 . S
C1279 C1285 1.428 . S
H1280 C1276 0.930 . S
H1281 C1278 0.929 . S
S1282 N1283 1.613 . S
S1282 N1284 1.610 . S
N1283 S1282 1.613 . S
N1283 C1286 1.350 . S
N1284 S1282 1.610 . S
N1284 C1285 1.351 . S
C1285 C1279 1.428 . S
C1285 N1284 1.351 . S
C1285 C1286 1.434 . S
C1286 C1277 1.429 . S
C1286 N1283 1.350 . S
C1286 C1285 1.434 . S
C1287 C1288 1.369 . S
C1287 C1289 1.419 . S
C1287 H1291 0.930 . S
C1288 C1287 1.369 . S
C1288 C1297 1.429 . S
C1289 C1287 1.419 . S
C1289 C1290 1.363 . S
C1289 H1292 0.929 . S
C1290 C1289 1.363 . S
C1290 C1296 1.428 . S
H1291 C1287 0.930 . S
H1292 C1289 0.929 . S
S1293 N1294 1.613 . S
S1293 N1295 1.610 . S
N1294 S1293 1.613 . S
N1294 C1297 1.350 . S
N1295 S1293 1.610 . S
N1295 C1296 1.351 . S
C1296 C1290 1.428 . S
C1296 N1295 1.351 . S
C1296 C1297 1.434 . S
C1297 C1288 1.429 . S
C1297 N1294 1.350 . S
C1297 C1296 1.434 . S
C1298 C1299 1.369 . S
C1298 C1300 1.419 . S
C1298 H1302 0.930 . S
C1299 C1298 1.369 . S
C1299 C1308 1.429 . S
C1300 C1298 1.419 . S
C1300 C1301 1.363 . S
C1300 H1303 0.929 . S
C1301 C1300 1.363 . S
C1301 C1307 1.428 . S
H1302 C1298 0.930 . S
H1303 C1300 0.929 . S
S1304 N1305 1.613 . S
S1304 N1306 1.610 . S
N1305 S1304 1.613 . S
N1305 C1308 1.350 . S
N1306 S1304 1.610 . S
N1306 C1307 1.351 . S
C1307 C1301 1.428 . S
C1307 N1306 1.351 . S
C1307 C1308 1.434 . S
C1308 C1299 1.429 . S
C1308 N1305 1.350 . S
C1308 C1307 1.434 . S
C1309 C1310 1.369 . S
C1309 C1311 1.419 . S
C1309 H1313 0.930 . S
C1310 C1309 1.369 . S
C1310 C1319 1.429 . S
C1311 C1309 1.419 . S
C1311 C1312 1.363 . S
C1311 H1314 0.929 . S
C1312 C1311 1.363 . S
C1312 C1318 1.428 . S
H1313 C1309 0.930 . S
H1314 C1311 0.929 . S
S1315 N1316 1.613 . S
S1315 N1317 1.610 . S
N1316 S1315 1.613 . S
N1316 C1319 1.350 . S
N1317 S1315 1.610 . S
N1317 C1318 1.351 . S
C1318 C1312 1.428 . S
C1318 N1317 1.351 . S
C1318 C1319 1.434 . S
C1319 C1310 1.429 . S
C1319 N1316 1.350 . S
C1319 C1318 1.434 . S
C1320 C1321 1.369 . S
C1320 C1322 1.419 1_655 S
C1320 H1324 0.930 . S
C1321 C1320 1.369 . S
C1321 C1330 1.429 . S
C1322 C1320 1.419 1_455 S
C1322 C1323 1.363 . S
C1322 H1325 0.929 . S
C1323 C1322 1.363 . S
C1323 C1329 1.428 . S
H1324 C1320 0.930 . S
H1325 C1322 0.929 . S
S1326 N1327 1.613 1_455 S
S1326 N1328 1.610 . S
N1327 S1326 1.613 1_655 S
N1327 C1330 1.350 . S
N1328 S1326 1.610 . S
N1328 C1329 1.351 . S
C1329 C1323 1.428 . S
C1329 N1328 1.351 . S
C1329 C1330 1.434 1_455 S
C1330 C1321 1.429 . S
C1330 N1327 1.350 . S
C1330 C1329 1.434 1_655 S
C1331 C1332 1.369 . S
C1331 C1333 1.419 . S
C1331 H1335 0.930 . S
C1332 C1331 1.369 . S
C1332 C1341 1.429 . S
C1333 C1331 1.419 . S
C1333 C1334 1.363 . S
C1333 H1336 0.929 . S
C1334 C1333 1.363 . S
C1334 C1340 1.428 . S
H1335 C1331 0.930 . S
H1336 C1333 0.929 . S
S1337 N1338 1.613 . S
S1337 N1339 1.610 . S
N1338 S1337 1.613 . S
N1338 C1341 1.350 . S
N1339 S1337 1.610 . S
N1339 C1340 1.351 . S
C1340 C1334 1.428 . S
C1340 N1339 1.351 . S
C1340 C1341 1.434 . S
C1341 C1332 1.429 . S
C1341 N1338 1.350 . S
C1341 C1340 1.434 . S
C1342 C1343 1.369 . S
C1342 C1344 1.419 . S
C1342 H1346 0.930 . S
C1343 C1342 1.369 . S
C1343 C1352 1.429 1_565 S
C1344 C1342 1.419 . S
C1344 C1345 1.363 1_565 S
C1344 H1347 0.929 . S
C1345 C1344 1.363 1_545 S
C1345 C1351 1.428 . S
H1346 C1342 0.930 . S
H1347 C1344 0.929 . S
S1348 N1349 1.613 . S
S1348 N1350 1.610 . S
N1349 S1348 1.613 . S
N1349 C1352 1.350 . S
N1350 S1348 1.610 . S
N1350 C1351 1.351 . S
C1351 C1345 1.428 . S
C1351 N1350 1.351 . S
C1351 C1352 1.434 . S
C1352 C1343 1.429 1_545 S
C1352 N1349 1.350 . S
C1352 C1351 1.434 . S
C1353 C1354 1.369 1_556 S
C1353 C1355 1.419 . S
C1353 H1357 0.930 . S
C1354 C1353 1.369 1_554 S
C1354 C1363 1.429 1_565 S
C1355 C1353 1.419 . S
C1355 C1356 1.363 1_565 S
C1355 H1358 0.929 . S
C1356 C1355 1.363 1_545 S
C1356 C1362 1.428 1_556 S
H1357 C1353 0.930 . S
H1358 C1355 0.929 . S
S1359 N1360 1.613 . S
S1359 N1361 1.610 . S
N1360 S1359 1.613 . S
N1360 C1363 1.350 . S
N1361 S1359 1.610 . S
N1361 C1362 1.351 . S
C1362 C1356 1.428 1_554 S
C1362 N1361 1.351 . S
C1362 C1363 1.434 . S
C1363 C1354 1.429 1_545 S
C1363 N1360 1.350 . S
C1363 C1362 1.434 . S
C1364 C1365 1.369 1_455 S
C1364 C1366 1.419 . S
C1364 H1368 0.930 . S
C1365 C1364 1.369 1_655 S
C1365 C1374 1.429 1_556 S
C1366 C1364 1.419 . S
C1366 C1367 1.363 1_556 S
C1366 H1369 0.929 . S
C1367 C1366 1.363 1_554 S
C1367 C1373 1.428 1_455 S
H1368 C1364 0.930 . S
H1369 C1366 0.929 . S
S1370 N1371 1.613 . S
S1370 N1372 1.610 . S
N1371 S1370 1.613 . S
N1371 C1374 1.350 . S
N1372 S1370 1.610 . S
N1372 C1373 1.351 . S
C1373 C1367 1.428 1_655 S
C1373 N1372 1.351 . S
C1373 C1374 1.434 . S
C1374 C1365 1.429 1_554 S
C1374 N1371 1.350 . S
C1374 C1373 1.434 . S
C1375 C1376 1.369 1_556 S
C1375 C1377 1.419 . S
C1375 H1379 0.930 . S
C1376 C1375 1.369 1_554 S
C1376 C1385 1.429 . S
C1377 C1375 1.419 . S
C1377 C1378 1.363 . S
C1377 H1380 0.929 . S
C1378 C1377 1.363 . S
C1378 C1384 1.428 1_556 S
H1379 C1375 0.930 . S
H1380 C1377 0.929 . S
S1381 N1382 1.613 . S
S1381 N1383 1.610 . S
N1382 S1381 1.613 . S
N1382 C1385 1.350 . S
N1383 S1381 1.610 . S
N1383 C1384 1.351 . S
C1384 C1378 1.428 1_554 S
C1384 N1383 1.351 . S
C1384 C1385 1.434 . S
C1385 C1376 1.429 . S
C1385 N1382 1.350 . S
C1385 C1384 1.434 . S
C1386 C1387 1.369 . S
C1386 C1388 1.419 . S
C1386 H1390 0.930 . S
C1387 C1386 1.369 . S
C1387 C1396 1.429 1_554 S
C1388 C1386 1.419 . S
C1388 C1389 1.363 . S
C1388 H1391 0.929 . S
C1389 C1388 1.363 . S
C1389 C1395 1.428 1_554 S
H1390 C1386 0.930 . S
H1391 C1388 0.929 . S
S1392 N1393 1.613 . S
S1392 N1394 1.610 . S
N1393 S1392 1.613 . S
N1393 C1396 1.350 . S
N1394 S1392 1.610 . S
N1394 C1395 1.351 . S
C1395 C1389 1.428 1_556 S
C1395 N1394 1.351 . S
C1395 C1396 1.434 . S
C1396 C1387 1.429 1_556 S
C1396 N1393 1.350 . S
C1396 C1395 1.434 . S
C1397 C1398 1.369 . S
C1397 C1399 1.419 . S
C1397 H1401 0.930 . S
C1398 C1397 1.369 . S
C1398 C1407 1.429 1_554 S
C1399 C1397 1.419 . S
C1399 C1400 1.363 . S
C1399 H1402 0.929 . S
C1400 C1399 1.363 . S
C1400 C1406 1.428 1_554 S
H1401 C1397 0.930 . S
H1402 C1399 0.929 . S
S1403 N1404 1.613 . S
S1403 N1405 1.610 . S
N1404 S1403 1.613 . S
N1404 C1407 1.350 . S
N1405 S1403 1.610 . S
N1405 C1406 1.351 . S
C1406 C1400 1.428 1_556 S
C1406 N1405 1.351 . S
C1406 C1407 1.434 . S
C1407 C1398 1.429 1_556 S
C1407 N1404 1.350 . S
C1407 C1406 1.434 . S
C1408 C1409 1.369 . S
C1408 C1410 1.419 . S
C1408 H1412 0.930 . S
C1409 C1408 1.369 . S
C1409 C1418 1.429 1_554 S
C1410 C1408 1.419 . S
C1410 C1411 1.363 . S
C1410 H1413 0.929 . S
C1411 C1410 1.363 . S
C1411 C1417 1.428 1_554 S
H1412 C1408 0.930 . S
H1413 C1410 0.929 . S
S1414 N1415 1.613 . S
S1414 N1416 1.610 . S
N1415 S1414 1.613 . S
N1415 C1418 1.350 . S
N1416 S1414 1.610 . S
N1416 C1417 1.351 . S
C1417 C1411 1.428 1_556 S
C1417 N1416 1.351 . S
C1417 C1418 1.434 . S
C1418 C1409 1.429 1_556 S
C1418 N1415 1.350 . S
C1418 C1417 1.434 . S
C1419 C1420 1.369 . S
C1419 C1421 1.419 . S
C1419 H1423 0.930 . S
C1420 C1419 1.369 . S
C1420 C1429 1.429 . S
C1421 C1419 1.419 . S
C1421 C1422 1.363 . S
C1421 H1424 0.929 . S
C1422 C1421 1.363 . S
C1422 C1428 1.428 . S
H1423 C1419 0.930 . S
H1424 C1421 0.929 . S
S1425 N1426 1.613 . S
S1425 N1427 1.610 . S
N1426 S1425 1.613 . S
N1426 C1429 1.350 . S
N1427 S1425 1.610 . S
N1427 C1428 1.351 . S
C1428 C1422 1.428 . S
C1428 N1427 1.351 . S
C1428 C1429 1.434 . S
C1429 C1420 1.429 . S
C1429 N1426 1.350 . S
C1429 C1428 1.434 . S
C1430 C1431 1.369 . S
C1430 C1432 1.419 . S
C1430 H1434 0.930 . S
C1431 C1430 1.369 . S
C1431 C1440 1.429 . S
C1432 C1430 1.419 . S
C1432 C1433 1.363 . S
C1432 H1435 0.929 . S
C1433 C1432 1.363 . S
C1433 C1439 1.428 . S
H1434 C1430 0.930 . S
H1435 C1432 0.929 . S
S1436 N1437 1.613 . S
S1436 N1438 1.610 . S
N1437 S1436 1.613 . S
N1437 C1440 1.350 . S
N1438 S1436 1.610 . S
N1438 C1439 1.351 . S
C1439 C1433 1.428 . S
C1439 N1438 1.351 . S
C1439 C1440 1.434 . S
C1440 C1431 1.429 . S
C1440 N1437 1.350 . S
C1440 C1439 1.434 . S
C1441 C1442 1.369 . S
C1441 C1443 1.419 . S
C1441 H1445 0.930 . S
C1442 C1441 1.369 . S
C1442 C1451 1.429 . S
C1443 C1441 1.419 . S
C1443 C1444 1.363 . S
C1443 H1446 0.929 . S
C1444 C1443 1.363 . S
C1444 C1450 1.428 . S
H1445 C1441 0.930 . S
H1446 C1443 0.929 . S
S1447 N1448 1.613 . S
S1447 N1449 1.610 . S
N1448 S1447 1.613 . S
N1448 C1451 1.350 . S
N1449 S1447 1.610 . S
N1449 C1450 1.351 . S
C1450 C1444 1.428 . S
C1450 N1449 1.351 . S
C1450 C1451 1.434 . S
C1451 C1442 1.429 . S
C1451 N1448 1.350 . S
C1451 C1450 1.434 . S
C1452 C1453 1.369 . S
C1452 C1454 1.419 . S
C1452 H1456 0.930 . S
C1453 C1452 1.369 . S
C1453 C1462 1.429 . S
C1454 C1452 1.419 . S
C1454 C1455 1.363 . S
C1454 H1457 0.929 . S
C1455 C1454 1.363 . S
C1455 C1461 1.428 . S
H1456 C1452 0.930 . S
H1457 C1454 0.929 . S
S1458 N1459 1.613 . S
S1458 N1460 1.610 . S
N1459 S1458 1.613 . S
N1459 C1462 1.350 . S
N1460 S1458 1.610 . S
N1460 C1461 1.351 . S
C1461 C1455 1.428 . S
C1461 N1460 1.351 . S
C1461 C1462 1.434 . S
C1462 C1453 1.429 . S
C1462 N1459 1.350 . S
C1462 C1461 1.434 . S
C1463 C1464 1.369 . S
C1463 C1465 1.419 . S
C1463 H1467 0.930 . S
C1464 C1463 1.369 . S
C1464 C1473 1.429 . S
C1465 C1463 1.419 . S
C1465 C1466 1.363 . S
C1465 H1468 0.929 . S
C1466 C1465 1.363 . S
C1466 C1472 1.428 . S
H1467 C1463 0.930 . S
H1468 C1465 0.929 . S
S1469 N1470 1.613 . S
S1469 N1471 1.610 . S
N1470 S1469 1.613 . S
N1470 C1473 1.350 1_554 S
N1471 S1469 1.610 . S
N1471 C1472 1.351 1_554 S
C1472 C1466 1.428 . S
C1472 N1471 1.351 1_556 S
C1472 C1473 1.434 . S
C1473 C1464 1.429 . S
C1473 N1470 1.350 1_556 S
C1473 C1472 1.434 . S
C1474 C1475 1.369 . S
C1474 C1476 1.419 . S
C1474 H1478 0.930 . S
C1475 C1474 1.369 . S
C1475 C1484 1.429 . S
C1476 C1474 1.419 . S
C1476 C1477 1.363 . S
C1476 H1479 0.929 . S
C1477 C1476 1.363 . S
C1477 C1483 1.428 . S
H1478 C1474 0.930 . S
H1479 C1476 0.929 . S
S1480 N1481 1.613 . S
S1480 N1482 1.610 . S
N1481 S1480 1.613 . S
N1481 C1484 1.350 . S
N1482 S1480 1.610 . S
N1482 C1483 1.351 . S
C1483 C1477 1.428 . S
C1483 N1482 1.351 . S
C1483 C1484 1.434 . S
C1484 C1475 1.429 . S
C1484 N1481 1.350 . S
C1484 C1483 1.434 . S
C1485 C1486 1.369 . S
C1485 C1487 1.419 . S
C1485 H1489 0.930 . S
C1486 C1485 1.369 . S
C1486 C1495 1.429 . S
C1487 C1485 1.419 . S
C1487 C1488 1.363 . S
C1487 H1490 0.929 . S
C1488 C1487 1.363 . S
C1488 C1494 1.428 . S
H1489 C1485 0.930 . S
H1490 C1487 0.929 . S
S1491 N1492 1.613 . S
S1491 N1493 1.610 . S
N1492 S1491 1.613 . S
N1492 C1495 1.350 . S
N1493 S1491 1.610 . S
N1493 C1494 1.351 . S
C1494 C1488 1.428 . S
C1494 N1493 1.351 . S
C1494 C1495 1.434 . S
C1495 C1486 1.429 . S
C1495 N1492 1.350 . S
C1495 C1494 1.434 . S
C1496 C1497 1.369 . S
C1496 C1498 1.419 . S
C1496 H1500 0.930 . S
C1497 C1496 1.369 . S
C1497 C1506 1.429 . S
C1498 C1496 1.419 . S
C1498 C1499 1.363 . S
C1498 H1501 0.929 . S
C1499 C1498 1.363 . S
C1499 C1505 1.428 . S
H1500 C1496 0.930 . S
H1501 C1498 0.929 . S
S1502 N1503 1.613 . S
S1502 N1504 1.610 . S
N1503 S1502 1.613 . S
N1503 C1506 1.350 . S
N1504 S1502 1.610 . S
N1504 C1505 1.351 . S
C1505 C1499 1.428 . S
C1505 N1504 1.351 . S
C1505 C1506 1.434 . S
C1506 C1497 1.429 . S
C1506 N1503 1.350 . S
C1506 C1505 1.434 . S
C1507 C1508 1.369 . S
C1507 C1509 1.419 . S
C1507 H1511 0.930 . S
C1508 C1507 1.369 . S
C1508 C1517 1.429 . S
C1509 C1507 1.419 . S
C1509 C1510 1.363 . S
C1509 H1512 0.929 . S
C1510 C1509 1.363 . S
C1510 C1516 1.428 . S
H1511 C1507 0.930 . S
H1512 C1509 0.929 . S
S1513 N1514 1.613 . S
S1513 N1515 1.610 . S
N1514 S1513 1.613 . S
N1514 C1517 1.350 . S
N1515 S1513 1.610 . S
N1515 C1516 1.351 . S
C1516 C1510 1.428 . S
C1516 N1515 1.351 . S
C1516 C1517 1.434 . S
C1517 C1508 1.429 . S
C1517 N1514 1.350 . S
C1517 C1516 1.434 . S
C1518 C1519 1.369 . S
C1518 C1520 1.419 . S
C1518 H1522 0.930 . S
C1519 C1518 1.369 . S
C1519 C1528 1.429 . S
C1520 C1518 1.419 . S
C1520 C1521 1.363 . S
C1520 H1523 0.929 . S
C1521 C1520 1.363 . S
C1521 C1527 1.428 . S
H1522 C1518 0.930 . S
H1523 C1520 0.929 . S
S1524 N1525 1.613 . S
S1524 N1526 1.610 . S
N1525 S1524 1.613 . S
N1525 C1528 1.350 . S
N1526 S1524 1.610 . S
N1526 C1527 1.351 . S
C1527 C1521 1.428 . S
C1527 N1526 1.351 . S
C1527 C1528 1.434 . S
C1528 C1519 1.429 . S
C1528 N1525 1.350 . S
C1528 C1527 1.434 . S
C1529 C1530 1.369 . S
C1529 C1531 1.419 . S
C1529 H1533 0.930 . S
C1530 C1529 1.369 . S
C1530 C1539 1.429 . S
C1531 C1529 1.419 . S
C1531 C1532 1.363 . S
C1531 H1534 0.929 . S
C1532 C1531 1.363 . S
C1532 C1538 1.428 . S
H1533 C1529 0.930 . S
H1534 C1531 0.929 . S
S1535 N1536 1.613 . S
S1535 N1537 1.610 . S
N1536 S1535 1.613 . S
N1536 C1539 1.350 . S
N1537 S1535 1.610 . S
N1537 C1538 1.351 . S
C1538 C1532 1.428 . S
C1538 N1537 1.351 . S
C1538 C1539 1.434 . S
C1539 C1530 1.429 . S
C1539 N1536 1.350 . S
C1539 C1538 1.434 . S
C1540 C1541 1.369 . S
C1540 C1542 1.419 . S
C1540 H1544 0.930 . S
C1541 C1540 1.369 . S
C1541 C1550 1.429 . S
C1542 C1540 1.419 . S
C1542 C1543 1.363 . S
C1542 H1545 0.929 . S
C1543 C1542 1.363 . S
C1543 C1549 1.428 . S
H1544 C1540 0.930 . S
H1545 C1542 0.929 . S
S1546 N1547 1.613 . S
S1546 N1548 1.610 . S
N1547 S1546 1.613 . S
N1547 C1550 1.350 . S
N1548 S1546 1.610 . S
N1548 C1549 1.351 . S
C1549 C1543 1.428 . S
C1549 N1548 1.351 . S
C1549 C1550 1.434 . S
C1550 C1541 1.429 . S
C1550 N1547 1.350 . S
C1550 C1549 1.434 . S
C1551 C1552 1.369 . S
C1551 C1553 1.419 . S
C1551 H1555 0.930 . S
C1552 C1551 1.369 . S
C1552 C1561 1.429 . S
C1553 C1551 1.419 . S
C1553 C1554 1.363 . S
C1553 H1556 0.929 . S
C1554 C1553 1.363 . S
C1554 C1560 1.428 . S
H1555 C1551 0.930 . S
H1556 C1553 0.929 . S
S1557 N1558 1.613 . S
S1557 N1559 1.610 . S
N1558 S1557 1.613 . S
N1558 C1561 1.350 . S
N1559 S1557 1.610 . S
N1559 C1560 1.351 . S
C1560 C1554 1.428 . S
C1560 N1559 1.351 . S
C1560 C1561 1.434 . S
C1561 C1552 1.429 . S
C1561 N1558 1.350 . S
C1561 C1560 1.434 . S
C1562 C1563 1.369 . S
C1562 C1564 1.419 . S
C1562 H1566 0.930 . S
C1563 C1562 1.369 . S
C1563 C1572 1.429 . S
C1564 C1562 1.419 . S
C1564 C1565 1.363 . S
C1564 H1567 0.929 . S
C1565 C1564 1.363 . S
C1565 C1571 1.428 . S
H1566 C1562 0.930 . S
H1567 C1564 0.929 . S
S1568 N1569 1.613 . S
S1568 N1570 1.610 . S
N1569 S1568 1.613 . S
N1569 C1572 1.350 . S
N1570 S1568 1.610 . S
N1570 C1571 1.351 . S
C1571 C1565 1.428 . S
C1571 N1570 1.351 . S
C1571 C1572 1.434 . S
C1572 C1563 1.429 . S
C1572 N1569 1.350 . S
C1572 C1571 1.434 . S
C1573 C1574 1.369 . S
C1573 C1575 1.419 . S
C1573 H1577 0.930 . S
C1574 C1573 1.369 . S
C1574 C1583 1.429 . S
C1575 C1573 1.419 . S
C1575 C1576 1.363 . S
C1575 H1578 0.929 . S
C1576 C1575 1.363 . S
C1576 C1582 1.428 . S
H1577 C1573 0.930 . S
H1578 C1575 0.929 . S
S1579 N1580 1.613 . S
S1579 N1581 1.610 . S
N1580 S1579 1.613 . S
N1580 C1583 1.350 . S
N1581 S1579 1.610 . S
N1581 C1582 1.351 . S
C1582 C1576 1.428 . S
C1582 N1581 1.351 . S
C1582 C1583 1.434 . S
C1583 C1574 1.429 . S
C1583 N1580 1.350 . S
C1583 C1582 1.434 . S
C1584 C1585 1.369 . S
C1584 C1586 1.419 . S
C1584 H1588 0.930 . S
C1585 C1584 1.369 . S
C1585 C1594 1.429 . S
C1586 C1584 1.419 . S
C1586 C1587 1.363 . S
C1586 H1589 0.929 . S
C1587 C1586 1.363 . S
C1587 C1593 1.428 . S
H1588 C1584 0.930 . S
H1589 C1586 0.929 . S
S1590 N1591 1.613 . S
S1590 N1592 1.610 . S
N1591 S1590 1.613 . S
N1591 C1594 1.350 . S
N1592 S1590 1.610 . S
N1592 C1593 1.351 . S
C1593 C1587 1.428 . S
C1593 N1592 1.351 . S
C1593 C1594 1.434 . S
C1594 C1585 1.429 . S
C1594 N1591 1.350 . S
C1594 C1593 1.434 . S
C1595 C1596 1.369 . S
C1595 C1597 1.419 . S
C1595 H1599 0.930 . S
C1596 C1595 1.369 . S
C1596 C1605 1.429 . S
C1597 C1595 1.419 . S
C1597 C1598 1.363 . S
C1597 H1600 0.929 . S
C1598 C1597 1.363 . S
C1598 C1604 1.428 . S
H1599 C1595 0.930 . S
H1600 C1597 0.929 . S
S1601 N1602 1.613 . S
S1601 N1603 1.610 . S
N1602 S1601 1.613 . S
N1602 C1605 1.350 . S
N1603 S1601 1.610 . S
N1603 C1604 1.351 . S
C1604 C1598 1.428 . S
C1604 N1603 1.351 . S
C1604 C1605 1.434 . S
C1605 C1596 1.429 . S
C1605 N1602 1.350 . S
C1605 C1604 1.434 . S
C1606 C1607 1.369 . S
C1606 C1608 1.419 . S
C1606 H1610 0.930 . S
C1607 C1606 1.369 . S
C1607 C1616 1.429 . S
C1608 C1606 1.419 . S
C1608 C1609 1.363 . S
C1608 H1611 0.929 . S
C1609 C1608 1.363 . S
C1609 C1615 1.428 . S
H1610 C1606 0.930 . S
H1611 C1608 0.929 . S
S1612 N1613 1.613 . S
S1612 N1614 1.610 . S
N1613 S1612 1.613 . S
N1613 C1616 1.350 . S
N1614 S1612 1.610 . S
N1614 C1615 1.351 . S
C1615 C1609 1.428 . S
C1615 N1614 1.351 . S
C1615 C1616 1.434 . S
C1616 C1607 1.429 . S
C1616 N1613 1.350 . S
C1616 C1615 1.434 . S
C1617 C1618 1.369 . S
C1617 C1619 1.419 . S
C1617 H1621 0.930 . S
C1618 C1617 1.369 . S
C1618 C1627 1.429 . S
C1619 C1617 1.419 . S
C1619 C1620 1.363 . S
C1619 H1622 0.929 . S
C1620 C1619 1.363 . S
C1620 C1626 1.428 . S
H1621 C1617 0.930 . S
H1622 C1619 0.929 . S
S1623 N1624 1.613 . S
S1623 N1625 1.610 . S
N1624 S1623 1.613 . S
N1624 C1627 1.350 . S
N1625 S1623 1.610 . S
N1625 C1626 1.351 . S
C1626 C1620 1.428 . S
C1626 N1625 1.351 . S
C1626 C1627 1.434 . S
C1627 C1618 1.429 . S
C1627 N1624 1.350 . S
C1627 C1626 1.434 . S
C1628 C1629 1.369 . S
C1628 C1630 1.419 . S
C1628 H1632 0.930 . S
C1629 C1628 1.369 . S
C1629 C1638 1.429 . S
C1630 C1628 1.419 . S
C1630 C1631 1.363 . S
C1630 H1633 0.929 . S
C1631 C1630 1.363 . S
C1631 C1637 1.428 . S
H1632 C1628 0.930 . S
H1633 C1630 0.929 . S
S1634 N1635 1.613 . S
S1634 N1636 1.610 . S
N1635 S1634 1.613 . S
N1635 C1638 1.350 . S
N1636 S1634 1.610 . S
N1636 C1637 1.351 . S
C1637 C1631 1.428 . S
C1637 N1636 1.351 . S
C1637 C1638 1.434 . S
C1638 C1629 1.429 . S
C1638 N1635 1.350 . S
C1638 C1637 1.434 . S
C1639 C1640 1.369 . S
C1639 C1641 1.419 . S
C1639 H1643 0.930 . S
C1640 C1639 1.369 . S
C1640 C1649 1.429 . S
C1641 C1639 1.419 . S
C1641 C1642 1.363 . S
C1641 H1644 0.929 . S
C1642 C1641 1.363 . S
C1642 C1648 1.428 . S
H1643 C1639 0.930 . S
H1644 C1641 0.929 . S
S1645 N1646 1.613 . S
S1645 N1647 1.610 . S
N1646 S1645 1.613 . S
N1646 C1649 1.350 . S
N1647 S1645 1.610 . S
N1647 C1648 1.351 . S
C1648 C1642 1.428 . S
C1648 N1647 1.351 . S
C1648 C1649 1.434 . S
C1649 C1640 1.429 . S
C1649 N1646 1.350 . S
C1649 C1648 1.434 . S
C1650 C1651 1.369 . S
C1650 C1652 1.419 . S
C1650 H1654 0.930 . S
C1651 C1650 1.369 . S
C1651 C1660 1.429 . S
C1652 C1650 1.419 . S
C1652 C1653 1.363 . S
C1652 H1655 0.929 . S
C1653 C1652 1.363 . S
C1653 C1659 1.428 . S
H1654 C1650 0.930 . S
H1655 C1652 0.929 . S
S1656 N1657 1.613 . S
S1656 N1658 1.610 . S
N1657 S1656 1.613 . S
N1657 C1660 1.350 . S
N1658 S1656 1.610 . S
N1658 C1659 1.351 . S
C1659 C1653 1.428 . S
C1659 N1658 1.351 . S
C1659 C1660 1.434 . S
C1660 C1651 1.429 . S
C1660 N1657 1.350 . S
C1660 C1659 1.434 . S
C1661 C1662 1.369 . S
C1661 C1663 1.419 . S
C1661 H1665 0.930 . S
C1662 C1661 1.369 . S
C1662 C1671 1.429 . S
C1663 C1661 1.419 . S
C1663 C1664 1.363 . S
C1663 H1666 0.929 . S
C1664 C1663 1.363 . S
C1664 C1670 1.428 . S
H1665 C1661 0.930 . S
H1666 C1663 0.929 . S
S1667 N1668 1.613 . S
S1667 N1669 1.610 . S
N1668 S1667 1.613 . S
N1668 C1671 1.350 . S
N1669 S1667 1.610 . S
N1669 C1670 1.351 . S
C1670 C1664 1.428 . S
C1670 N1669 1.351 . S
C1670 C1671 1.434 . S
C1671 C1662 1.429 . S
C1671 N1668 1.350 . S
C1671 C1670 1.434 . S
C1672 C1673 1.369 . S
C1672 C1674 1.419 . S
C1672 H1676 0.930 . S
C1673 C1672 1.369 . S
C1673 C1682 1.429 . S
C1674 C1672 1.419 . S
C1674 C1675 1.363 . S
C1674 H1677 0.929 . S
C1675 C1674 1.363 . S
C1675 C1681 1.428 . S
H1676 C1672 0.930 . S
H1677 C1674 0.929 . S
S1678 N1679 1.613 . S
S1678 N1680 1.610 . S
N1679 S1678 1.613 . S
N1679 C1682 1.350 . S
N1680 S1678 1.610 . S
N1680 C1681 1.351 . S
C1681 C1675 1.428 . S
C1681 N1680 1.351 . S
C1681 C1682 1.434 . S
C1682 C1673 1.429 . S
C1682 N1679 1.350 . S
C1682 C1681 1.434 . S
C1683 C1684 1.369 . S
C1683 C1685 1.419 . S
C1683 H1687 0.930 . S
C1684 C1683 1.369 . S
C1684 C1693 1.429 . S
C1685 C1683 1.419 . S
C1685 C1686 1.363 . S
C1685 H1688 0.929 . S
C1686 C1685 1.363 . S
C1686 C1692 1.428 . S
H1687 C1683 0.930 . S
H1688 C1685 0.929 . S
S1689 N1690 1.613 . S
S1689 N1691 1.610 . S
N1690 S1689 1.613 . S
N1690 C1693 1.350 . S
N1691 S1689 1.610 . S
N1691 C1692 1.351 . S
C1692 C1686 1.428 . S
C1692 N1691 1.351 . S
C1692 C1693 1.434 . S
C1693 C1684 1.429 . S
C1693 N1690 1.350 . S
C1693 C1692 1.434 . S
C1694 C1695 1.369 . S
C1694 C1696 1.419 . S
C1694 H1698 0.930 . S
C1695 C1694 1.369 . S
C1695 C1704 1.429 . S
C1696 C1694 1.419 . S
C1696 C1697 1.363 . S
C1696 H1699 0.929 . S
C1697 C1696 1.363 . S
C1697 C1703 1.428 . S
H1698 C1694 0.930 . S
H1699 C1696 0.929 . S
S1700 N1701 1.613 . S
S1700 N1702 1.610 . S
N1701 S1700 1.613 . S
N1701 C1704 1.350 . S
N1702 S1700 1.610 . S
N1702 C1703 1.351 . S
C1703 C1697 1.428 . S
C1703 N1702 1.351 . S
C1703 C1704 1.434 . S
C1704 C1695 1.429 . S
C1704 N1701 1.350 . S
C1704 C1703 1.434 . S
C1705 C1706 1.369 . S
C1705 C1707 1.419 . S
C1705 H1709 0.930 . S
C1706 C1705 1.369 . S
C1706 C1715 1.429 . S
C1707 C1705 1.419 . S
C1707 C1708 1.363 . S
C1707 H1710 0.929 . S
C1708 C1707 1.363 . S
C1708 C1714 1.428 . S
H1709 C1705 0.930 . S
H1710 C1707 0.929 . S
S1711 N1712 1.613 . S
S1711 N1713 1.610 . S
N1712 S1711 1.613 . S
N1712 C1715 1.350 . S
N1713 S1711 1.610 . S
N1713 C1714 1.351 . S
C1714 C1708 1.428 . S
C1714 N1713 1.351 . S
C1714 C1715 1.434 . S
C1715 C1706 1.429 . S
C1715 N1712 1.350 . S
C1715 C1714 1.434 . S
C1716 C1717 1.369 . S
C1716 C1718 1.419 . S
C1716 H1720 0.930 . S
C1717 C1716 1.369 . S
C1717 C1726 1.429 . S
C1718 C1716 1.419 . S
C1718 C1719 1.363 . S
C1718 H1721 0.929 . S
C1719 C1718 1.363 . S
C1719 C1725 1.428 . S
H1720 C1716 0.930 . S
H1721 C1718 0.929 . S
S1722 N1723 1.613 . S
S1722 N1724 1.610 . S
N1723 S1722 1.613 . S
N1723 C1726 1.350 . S
N1724 S1722 1.610 . S
N1724 C1725 1.351 . S
C1725 C1719 1.428 . S
C1725 N1724 1.351 . S
C1725 C1726 1.434 . S
C1726 C1717 1.429 . S
C1726 N1723 1.350 . S
C1726 C1725 1.434 . S
C1727 C1728 1.369 . S
C1727 C1729 1.419 . S
C1727 H1731 0.930 . S
C1728 C1727 1.369 . S
C1728 C1737 1.429 . S
C1729 C1727 1.419 . S
C1729 C1730 1.363 . S
C1729 H1732 0.929 . S
C1730 C1729 1.363 . S
C1730 C1736 1.428 . S
H1731 C1727 0.930 . S
H1732 C1729 0.929 . S
S1733 N1734 1.613 . S
S1733 N1735 1.610 . S
N1734 S1733 1.613 . S
N1734 C1737 1.350 . S
N1735 S1733 1.610 . S
N1735 C1736 1.351 . S
C1736 C1730 1.428 . S
C1736 N1735 1.351 . S
C1736 C1737 1.434 . S
C1737 C1728 1.429 . S
C1737 N1734 1.350 . S
C1737 C1736 1.434 . S
C1738 C1739 1.369 . S
C1738 C1740 1.419 . S
C1738 H1742 0.930 . S
C1739 C1738 1.369 . S
C1739 C1748 1.429 . S
C1740 C1738 1.419 . S
C1740 C1741 1.363 . S
C1740 H1743 0.929 . S
C1741 C1740 1.363 . S
C1741 C1747 1.428 . S
H1742 C1738 0.930 . S
H1743 C1740 0.929 . S
S1744 N1745 1.613 . S
S1744 N1746 1.610 . S
N1745 S1744 1.613 . S
N1745 C1748 1.350 . S
N1746 S1744 1.610 . S
N1746 C1747 1.351 . S
C1747 C1741 1.428 . S
C1747 N1746 1.351 . S
C1747 C1748 1.434 . S
C1748 C1739 1.429 . S
C1748 N1745 1.350 . S
C1748 C1747 1.434 . S
C1749 C1750 1.369 . S
C1749 C1751 1.419 . S
C1749 H1753 0.930 . S
C1750 C1749 1.369 . S
C1750 C1759 1.429 . S
C1751 C1749 1.419 . S
C1751 C1752 1.363 . S
C1751 H1754 0.929 . S
C1752 C1751 1.363 . S
C1752 C1758 1.428 . S
H1753 C1749 0.930 . S
H1754 C1751 0.929 . S
S1755 N1756 1.613 . S
S1755 N1757 1.610 . S
N1756 S1755 1.613 . S
N1756 C1759 1.350 . S
N1757 S1755 1.610 . S
N1757 C1758 1.351 . S
C1758 C1752 1.428 . S
C1758 N1757 1.351 . S
C1758 C1759 1.434 . S
C1759 C1750 1.429 . S
C1759 N1756 1.350 . S
C1759 C1758 1.434 . S
C1760 C1761 1.369 . S
C1760 C1762 1.419 . S
C1760 H1764 0.930 . S
C1761 C1760 1.369 . S
C1761 C1770 1.429 . S
C1762 C1760 1.419 . S
C1762 C1763 1.363 . S
C1762 H1765 0.929 . S
C1763 C1762 1.363 . S
C1763 C1769 1.428 . S
H1764 C1760 0.930 . S
H1765 C1762 0.929 . S
S1766 N1767 1.613 . S
S1766 N1768 1.610 . S
N1767 S1766 1.613 . S
N1767 C1770 1.350 . S
N1768 S1766 1.610 . S
N1768 C1769 1.351 . S
C1769 C1763 1.428 . S
C1769 N1768 1.351 . S
C1769 C1770 1.434 . S
C1770 C1761 1.429 . S
C1770 N1767 1.350 . S
C1770 C1769 1.434 . S
C1771 C1772 1.369 . S
C1771 C1773 1.419 . S
C1771 H1775 0.930 . S
C1772 C1771 1.369 . S
C1772 C1781 1.429 . S
C1773 C1771 1.419 . S
C1773 C1774 1.363 . S
C1773 H1776 0.929 . S
C1774 C1773 1.363 . S
C1774 C1780 1.428 . S
H1775 C1771 0.930 . S
H1776 C1773 0.929 . S
S1777 N1778 1.613 . S
S1777 N1779 1.610 . S
N1778 S1777 1.613 . S
N1778 C1781 1.350 . S
N1779 S1777 1.610 . S
N1779 C1780 1.351 . S
C1780 C1774 1.428 . S
C1780 N1779 1.351 . S
C1780 C1781 1.434 . S
C1781 C1772 1.429 . S
C1781 N1778 1.350 . S
C1781 C1780 1.434 . S
C1782 C1783 1.369 . S
C1782 C1784 1.419 . S
C1782 H1786 0.930 . S
C1783 C1782 1.369 . S
C1783 C1792 1.429 . S
C1784 C1782 1.419 . S
C1784 C1785 1.363 . S
C1784 H1787 0.929 . S
C1785 C1784 1.363 . S
C1785 C1791 1.428 . S
H1786 C1782 0.930 . S
H1787 C1784 0.929 . S
S1788 N1789 1.613 . S
S1788 N1790 1.610 . S
N1789 S1788 1.613 . S
N1789 C1792 1.350 . S
N1790 S1788 1.610 . S
N1790 C1791 1.351 . S
C1791 C1785 1.428 . S
C1791 N1790 1.351 . S
C1791 C1792 1.434 . S
C1792 C1783 1.429 . S
C1792 N1789 1.350 . S
C1792 C1791 1.434 . S
C1793 C1794 1.369 . S
C1793 C1795 1.419 1_545 S
C1793 H1797 0.930 . S
C1794 C1793 1.369 . S
C1794 C1803 1.429 . S
C1795 C1793 1.419 1_565 S
C1795 C1796 1.363 . S
C1795 H1798 0.929 . S
C1796 C1795 1.363 . S
C1796 C1802 1.428 . S
H1797 C1793 0.930 . S
H1798 C1795 0.929 . S
S1799 N1800 1.613 1_565 S
S1799 N1801 1.610 . S
N1800 S1799 1.613 1_545 S
N1800 C1803 1.350 . S
N1801 S1799 1.610 . S
N1801 C1802 1.351 . S
C1802 C1796 1.428 . S
C1802 N1801 1.351 . S
C1802 C1803 1.434 1_565 S
C1803 C1794 1.429 . S
C1803 N1800 1.350 . S
C1803 C1802 1.434 1_545 S
C1804 C1805 1.369 . S
C1804 C1806 1.419 . S
C1804 H1808 0.930 . S
C1805 C1804 1.369 . S
C1805 C1814 1.429 1_455 S
C1806 C1804 1.419 . S
C1806 C1807 1.363 1_455 S
C1806 H1809 0.929 . S
C1807 C1806 1.363 1_655 S
C1807 C1813 1.428 . S
H1808 C1804 0.930 . S
H1809 C1806 0.929 . S
S1810 N1811 1.613 . S
S1810 N1812 1.610 . S
N1811 S1810 1.613 . S
N1811 C1814 1.350 . S
N1812 S1810 1.610 . S
N1812 C1813 1.351 . S
C1813 C1807 1.428 . S
C1813 N1812 1.351 . S
C1813 C1814 1.434 . S
C1814 C1805 1.429 1_655 S
C1814 N1811 1.350 . S
C1814 C1813 1.434 . S
C1815 C1816 1.369 . S
C1815 C1817 1.419 . S
C1815 H1819 0.930 . S
C1816 C1815 1.369 . S
C1816 C1825 1.429 . S
C1817 C1815 1.419 . S
C1817 C1818 1.363 . S
C1817 H1820 0.929 . S
C1818 C1817 1.363 . S
C1818 C1824 1.428 . S
H1819 C1815 0.930 . S
H1820 C1817 0.929 . S
S1821 N1822 1.613 . S
S1821 N1823 1.610 . S
N1822 S1821 1.613 . S
N1822 C1825 1.350 . S
N1823 S1821 1.610 . S
N1823 C1824 1.351 . S
C1824 C1818 1.428 . S
C1824 N1823 1.351 . S
C1824 C1825 1.434 . S
C1825 C1816 1.429 . S
C1825 N1822 1.350 . S
C1825 C1824 1.434 . S
C1826 C1827 1.369 . S
C1826 C1828 1.433 . S
C1826 H1830 0.930 . S
C1827 C1826 1.369 . S
C1827 C1836 1.429 1_545 S
C1828 C1826 1.433 . S
C1828 C1829 1.338 1_545 S
C1828 H1831 0.941 . S
C1829 C1828 1.338 1_565 S
C1829 C1835 1.428 . S
H1830 C1826 0.930 . S
H1831 C1828 0.941 . S
S1832 N1833 1.613 . S
S1832 N1834 1.610 . S
N1833 S1832 1.613 . S
N1833 C1836 1.350 . S
N1834 S1832 1.610 . S
N1834 C1835 1.351 . S
C1835 C1829 1.428 . S
C1835 N1834 1.351 . S
C1835 C1836 1.434 . S
C1836 C1827 1.429 1_565 S
C1836 N1833 1.350 . S
C1836 C1835 1.434 . S
C1837 C1838 1.369 . S
C1837 C1839 1.419 1_455 S
C1837 H1841 0.930 . S
C1838 C1837 1.369 . S
C1838 C1847 1.429 . S
C1839 C1837 1.419 1_655 S
C1839 C1840 1.363 . S
C1839 H1842 0.929 . S
C1840 C1839 1.363 . S
C1840 C1846 1.428 . S
H1841 C1837 0.930 . S
H1842 C1839 0.929 . S
S1843 N1844 1.613 . S
S1843 N1845 1.610 1_455 S
N1844 S1843 1.613 . S
N1844 C1847 1.350 . S
N1845 S1843 1.610 1_655 S
N1845 C1846 1.351 . S
C1846 C1840 1.428 . S
C1846 N1845 1.351 . S
C1846 C1847 1.434 1_655 S
C1847 C1838 1.429 . S
C1847 N1844 1.350 . S
C1847 C1846 1.434 1_455 S
C1848 C1849 1.369 . S
C1848 C1850 1.419 . S
C1848 H1852 0.930 . S
C1849 C1848 1.369 . S
C1849 C1858 1.429 . S
C1850 C1848 1.419 . S
C1850 C1851 1.363 . S
C1850 H1853 0.929 . S
C1851 C1850 1.363 . S
C1851 C1857 1.428 . S
H1852 C1848 0.930 . S
H1853 C1850 0.929 . S
S1854 N1855 1.613 . S
S1854 N1856 1.610 . S
N1855 S1854 1.613 . S
N1855 C1858 1.350 . S
N1856 S1854 1.610 . S
N1856 C1857 1.351 . S
C1857 C1851 1.428 . S
C1857 N1856 1.351 . S
C1857 C1858 1.434 . S
C1858 C1849 1.429 . S
C1858 N1855 1.350 . S
C1858 C1857 1.434 . S
C1859 C1860 1.369 . S
C1859 C1861 1.419 . S
C1859 H1863 0.930 . S
C1860 C1859 1.369 . S
C1860 C1869 1.429 . S
C1861 C1859 1.419 . S
C1861 C1862 1.363 . S
C1861 H1864 0.929 . S
C1862 C1861 1.363 . S
C1862 C1868 1.428 . S
H1863 C1859 0.930 . S
H1864 C1861 0.929 . S
S1865 N1866 1.613 . S
S1865 N1867 1.610 . S
N1866 S1865 1.613 . S
N1866 C1869 1.350 . S
N1867 S1865 1.610 . S
N1867 C1868 1.351 . S
C1868 C1862 1.428 . S
C1868 N1867 1.351 . S
C1868 C1869 1.434 . S
C1869 C1860 1.429 . S
C1869 N1866 1.350 . S
C1869 C1868 1.434 . S
C1870 C1871 1.369 . S
C1870 C1872 1.419 . S
C1870 H1874 0.930 . S
C1871 C1870 1.369 . S
C1871 C1880 1.429 . S
C1872 C1870 1.419 . S
C1872 C1873 1.363 . S
C1872 H1875 0.929 . S
C1873 C1872 1.363 . S
C1873 C1879 1.428 . S
H1874 C1870 0.930 . S
H1875 C1872 0.929 . S
S1876 N1877 1.613 . S
S1876 N1878 1.610 . S
N1877 S1876 1.613 . S
N1877 C1880 1.350 . S
N1878 S1876 1.610 . S
N1878 C1879 1.351 . S
C1879 C1873 1.428 . S
C1879 N1878 1.351 . S
C1879 C1880 1.434 . S
C1880 C1871 1.429 . S
C1880 N1877 1.350 . S
C1880 C1879 1.434 . S
C1881 C1882 1.369 . S
C1881 C1883 1.419 . S
C1881 H1885 0.930 . S
C1882 C1881 1.369 . S
C1882 C1891 1.429 . S
C1883 C1881 1.419 . S
C1883 C1884 1.363 . S
C1883 H1886 0.929 . S
C1884 C1883 1.363 . S
C1884 C1890 1.428 . S
H1885 C1881 0.930 . S
H1886 C1883 0.929 . S
S1887 N1888 1.613 . S
S1887 N1889 1.610 . S
N1888 S1887 1.613 . S
N1888 C1891 1.350 . S
N1889 S1887 1.610 . S
N1889 C1890 1.351 . S
C1890 C1884 1.428 . S
C1890 N1889 1.351 . S
C1890 C1891 1.434 . S
C1891 C1882 1.429 . S
C1891 N1888 1.350 . S
C1891 C1890 1.434 . S
C1892 C1893 1.369 . S
C1892 C1894 1.419 . S
C1892 H1896 0.930 . S
C1893 C1892 1.369 . S
C1893 C1902 1.429 . S
C1894 C1892 1.419 . S
C1894 C1895 1.363 . S
C1894 H1897 0.929 . S
C1895 C1894 1.363 . S
C1895 C1901 1.428 . S
H1896 C1892 0.930 . S
H1897 C1894 0.929 . S
S1898 N1899 1.613 . S
S1898 N1900 1.610 1_554 S
N1899 S1898 1.613 . S
N1899 C1902 1.350 . S
N1900 S1898 1.610 1_556 S
N1900 C1901 1.351 1_556 S
C1901 C1895 1.428 . S
C1901 N1900 1.351 1_554 S
C1901 C1902 1.434 . S
C1902 C1893 1.429 . S
C1902 N1899 1.350 . S
C1902 C1901 1.434 . S
C1903 C1904 1.369 . S
C1903 C1905 1.419 . S
C1903 H1907 0.930 . S
C1904 C1903 1.369 . S
C1904 C1913 1.429 . S
C1905 C1903 1.419 . S
C1905 C1906 1.363 . S
C1905 H1908 0.929 . S
C1906 C1905 1.363 . S
C1906 C1912 1.428 . S
H1907 C1903 0.930 . S
H1908 C1905 0.929 . S
S1909 N1910 1.613 1_554 S
S1909 N1911 1.610 . S
N1910 S1909 1.613 1_556 S
N1910 C1913 1.350 1_556 S
N1911 S1909 1.610 . S
N1911 C1912 1.351 . S
C1912 C1906 1.428 . S
C1912 N1911 1.351 . S
C1912 C1913 1.434 . S
C1913 C1904 1.429 . S
C1913 N1910 1.350 1_554 S
C1913 C1912 1.434 . S
C1914 C1915 1.369 . S
C1914 C1916 1.419 . S
C1914 H1918 0.930 . S
C1915 C1914 1.369 . S
C1915 C1924 1.429 . S
C1916 C1914 1.419 . S
C1916 C1917 1.363 . S
C1916 H1919 0.929 . S
C1917 C1916 1.363 . S
C1917 C1923 1.428 . S
H1918 C1914 0.930 . S
H1919 C1916 0.929 . S
S1920 N1921 1.613 . S
S1920 N1922 1.610 . S
N1921 S1920 1.613 . S
N1921 C1924 1.350 . S
N1922 S1920 1.610 . S
N1922 C1923 1.351 . S
C1923 C1917 1.428 . S
C1923 N1922 1.351 . S
C1923 C1924 1.434 . S
C1924 C1915 1.429 . S
C1924 N1921 1.350 . S
C1924 C1923 1.434 . S
C1925 C1926 1.369 . S
C1925 C1927 1.419 . S
C1925 H1929 0.930 . S
C1926 C1925 1.369 . S
C1926 C1935 1.429 . S
C1927 C1925 1.419 . S
C1927 C1928 1.363 . S
C1927 H1930 0.929 . S
C1928 C1927 1.363 . S
C1928 C1934 1.428 . S
H1929 C1925 0.930 . S
H1930 C1927 0.929 . S
S1931 N1932 1.614 . S
S1931 N1933 1.610 . S
N1932 S1931 1.614 . S
N1932 C1935 1.351 . S
N1933 S1931 1.610 . S
N1933 C1934 1.351 . S
C1934 C1928 1.428 . S
C1934 N1933 1.351 . S
C1934 C1935 1.434 . S
C1935 C1926 1.429 . S
C1935 N1932 1.351 . S
C1935 C1934 1.434 . S
C1936 C1937 1.369 . S
C1936 C1938 1.419 . S
C1936 H1940 0.930 . S
C1937 C1936 1.369 . S
C1937 C1946 1.429 . S
C1938 C1936 1.419 . S
C1938 C1939 1.363 . S
C1938 H1941 0.929 . S
C1939 C1938 1.363 . S
C1939 C1945 1.428 . S
H1940 C1936 0.930 . S
H1941 C1938 0.929 . S
S1942 N1943 1.613 . S
S1942 N1944 1.610 . S
N1943 S1942 1.613 . S
N1943 C1946 1.350 . S
N1944 S1942 1.610 . S
N1944 C1945 1.351 . S
C1945 C1939 1.428 . S
C1945 N1944 1.351 . S
C1945 C1946 1.434 . S
C1946 C1937 1.429 . S
C1946 N1943 1.350 . S
C1946 C1945 1.434 . S
C1947 C1948 1.369 . S
C1947 C1949 1.419 . S
C1947 H1951 0.930 . S
C1948 C1947 1.369 . S
C1948 C1957 1.429 . S
C1949 C1947 1.419 . S
C1949 C1950 1.363 . S
C1949 H1952 0.929 . S
C1950 C1949 1.363 . S
C1950 C1956 1.428 . S
H1951 C1947 0.930 . S
H1952 C1949 0.929 . S
S1953 N1954 1.613 . S
S1953 N1955 1.610 . S
N1954 S1953 1.613 . S
N1954 C1957 1.350 . S
N1955 S1953 1.610 . S
N1955 C1956 1.351 . S
C1956 C1950 1.428 . S
C1956 N1955 1.351 . S
C1956 C1957 1.434 . S
C1957 C1948 1.429 . S
C1957 N1954 1.350 . S
C1957 C1956 1.434 . S
C1958 C1959 1.369 . S
C1958 C1960 1.419 . S
C1958 H1962 0.930 . S
C1959 C1958 1.369 . S
C1959 C1968 1.429 . S
C1960 C1958 1.419 . S
C1960 C1961 1.363 . S
C1960 H1963 0.929 . S
C1961 C1960 1.363 . S
C1961 C1967 1.428 . S
H1962 C1958 0.930 . S
H1963 C1960 0.929 . S
S1964 N1965 1.613 . S
S1964 N1966 1.610 . S
N1965 S1964 1.613 . S
N1965 C1968 1.350 . S
N1966 S1964 1.610 . S
N1966 C1967 1.351 . S
C1967 C1961 1.428 . S
C1967 N1966 1.351 . S
C1967 C1968 1.434 . S
C1968 C1959 1.429 . S
C1968 N1965 1.350 . S
C1968 C1967 1.434 . S
C1969 C1970 1.369 . S
C1969 C1971 1.419 . S
C1969 H1973 0.930 . S
C1970 C1969 1.369 . S
C1970 C1979 1.429 . S
C1971 C1969 1.419 . S
C1971 C1972 1.363 . S
C1971 H1974 0.929 . S
C1972 C1971 1.363 . S
C1972 C1978 1.428 . S
H1973 C1969 0.930 . S
H1974 C1971 0.929 . S
S1975 N1976 1.613 . S
S1975 N1977 1.610 . S
N1976 S1975 1.613 . S
N1976 C1979 1.350 . S
N1977 S1975 1.610 . S
N1977 C1978 1.351 . S
C1978 C1972 1.428 . S
C1978 N1977 1.351 . S
C1978 C1979 1.434 . S
C1979 C1970 1.429 . S
C1979 N1976 1.350 . S
C1979 C1978 1.434 . S
C1980 C1981 1.369 . S
C1980 C1982 1.419 . S
C1980 H1984 0.930 . S
C1981 C1980 1.369 . S
C1981 C1990 1.429 . S
C1982 C1980 1.419 . S
C1982 C1983 1.363 . S
C1982 H1985 0.929 . S
C1983 C1982 1.363 . S
C1983 C1989 1.428 . S
H1984 C1980 0.930 . S
H1985 C1982 0.929 . S
S1986 N1987 1.613 . S
S1986 N1988 1.610 . S
N1987 S1986 1.613 . S
N1987 C1990 1.350 . S
N1988 S1986 1.610 . S
N1988 C1989 1.351 . S
C1989 C1983 1.428 . S
C1989 N1988 1.351 . S
C1989 C1990 1.434 . S
C1990 C1981 1.429 . S
C1990 N1987 1.350 . S
C1990 C1989 1.434 . S
C1991 C1992 1.369 . S
C1991 C1993 1.419 . S
C1991 H1995 0.930 . S
C1992 C1991 1.369 . S
C1992 C2001 1.429 . S
C1993 C1991 1.419 . S
C1993 C1994 1.363 . S
C1993 H1996 0.929 . S
C1994 C1993 1.363 . S
C1994 C2000 1.428 . S
H1995 C1991 0.930 . S
H1996 C1993 0.929 . S
S1997 N1998 1.613 . S
S1997 N1999 1.610 . S
N1998 S1997 1.613 . S
N1998 C2001 1.350 . S
N1999 S1997 1.610 . S
N1999 C2000 1.351 . S
C2000 C1994 1.428 . S
C2000 N1999 1.351 . S
C2000 C2001 1.434 . S
C2001 C1992 1.429 . S
C2001 N1998 1.350 . S
C2001 C2000 1.434 . S
C2002 C2003 1.369 . S
C2002 C2004 1.419 . S
C2002 H2006 0.930 . S
C2003 C2002 1.369 . S
C2003 C2012 1.429 . S
C2004 C2002 1.419 . S
C2004 C2005 1.363 . S
C2004 H2007 0.929 . S
C2005 C2004 1.363 . S
C2005 C2011 1.428 . S
H2006 C2002 0.930 . S
H2007 C2004 0.929 . S
S2008 N2009 1.613 . S
S2008 N2010 1.610 . S
N2009 S2008 1.613 . S
N2009 C2012 1.350 . S
N2010 S2008 1.610 . S
N2010 C2011 1.351 . S
C2011 C2005 1.428 . S
C2011 N2010 1.351 . S
C2011 C2012 1.434 . S
C2012 C2003 1.429 . S
C2012 N2009 1.350 . S
C2012 C2011 1.434 . S
C2013 C2014 1.369 . S
C2013 C2015 1.419 . S
C2013 H2017 0.930 . S
C2014 C2013 1.369 . S
C2014 C2023 1.429 . S
C2015 C2013 1.419 . S
C2015 C2016 1.363 . S
C2015 H2018 0.929 . S
C2016 C2015 1.363 . S
C2016 C2022 1.428 . S
H2017 C2013 0.930 . S
H2018 C2015 0.929 . S
S2019 N2020 1.613 . S
S2019 N2021 1.610 . S
N2020 S2019 1.613 . S
N2020 C2023 1.350 . S
N2021 S2019 1.610 . S
N2021 C2022 1.351 . S
C2022 C2016 1.428 . S
C2022 N2021 1.351 . S
C2022 C2023 1.434 . S
C2023 C2014 1.429 . S
C2023 N2020 1.350 . S
C2023 C2022 1.434 . S
C2024 C2025 1.369 . S
C2024 C2026 1.419 . S
C2024 H2028 0.930 . S
C2025 C2024 1.369 . S
C2025 C2034 1.429 . S
C2026 C2024 1.419 . S
C2026 C2027 1.363 . S
C2026 H2029 0.929 . S
C2027 C2026 1.363 . S
C2027 C2033 1.428 . S
H2028 C2024 0.930 . S
H2029 C2026 0.929 . S
S2030 N2031 1.613 . S
S2030 N2032 1.610 . S
N2031 S2030 1.613 . S
N2031 C2034 1.350 . S
N2032 S2030 1.610 . S
N2032 C2033 1.351 . S
C2033 C2027 1.428 . S
C2033 N2032 1.351 . S
C2033 C2034 1.434 . S
C2034 C2025 1.429 . S
C2034 N2031 1.350 . S
C2034 C2033 1.434 . S
C2035 C2036 1.369 . S
C2035 C2037 1.419 . S
C2035 H2039 0.930 . S
C2036 C2035 1.369 . S
C2036 C2045 1.429 . S
C2037 C2035 1.419 . S
C2037 C2038 1.363 . S
C2037 H2040 0.929 . S
C2038 C2037 1.363 . S
C2038 C2044 1.428 . S
H2039 C2035 0.930 . S
H2040 C2037 0.929 . S
S2041 N2042 1.613 . S
S2041 N2043 1.610 . S
N2042 S2041 1.613 . S
N2042 C2045 1.350 . S
N2043 S2041 1.610 . S
N2043 C2044 1.351 . S
C2044 C2038 1.428 . S
C2044 N2043 1.351 . S
C2044 C2045 1.434 . S
C2045 C2036 1.429 . S
C2045 N2042 1.350 . S
C2045 C2044 1.434 . S
C2046 C2047 1.369 . S
C2046 C2048 1.419 . S
C2046 H2050 0.930 . S
C2047 C2046 1.369 . S
C2047 C2056 1.429 . S
C2048 C2046 1.419 . S
C2048 C2049 1.363 . S
C2048 H2051 0.929 . S
C2049 C2048 1.363 . S
C2049 C2055 1.428 . S
H2050 C2046 0.930 . S
H2051 C2048 0.929 . S
S2052 N2053 1.613 . S
S2052 N2054 1.610 1_556 S
N2053 S2052 1.613 . S
N2053 C2056 1.350 1_556 S
N2054 S2052 1.610 1_554 S
N2054 C2055 1.351 . S
C2055 C2049 1.428 . S
C2055 N2054 1.351 . S
C2055 C2056 1.434 . S
C2056 C2047 1.429 . S
C2056 N2053 1.350 1_554 S
C2056 C2055 1.434 . S
C2057 C2058 1.369 . S
C2057 C2059 1.419 . S
C2057 H2061 0.930 . S
C2058 C2057 1.369 . S
C2058 C2067 1.429 . S
C2059 C2057 1.419 . S
C2059 C2060 1.363 . S
C2059 H2062 0.929 . S
C2060 C2059 1.363 . S
C2060 C2066 1.428 . S
H2061 C2057 0.930 . S
H2062 C2059 0.929 . S
S2063 N2064 1.613 1_556 S
S2063 N2065 1.610 . S
N2064 S2063 1.613 1_554 S
N2064 C2067 1.350 . S
N2065 S2063 1.610 . S
N2065 C2066 1.351 1_556 S
C2066 C2060 1.428 . S
C2066 N2065 1.351 1_554 S
C2066 C2067 1.434 . S
C2067 C2058 1.429 . S
C2067 N2064 1.350 . S
C2067 C2066 1.434 . S
C2068 C2069 1.369 . S
C2068 C2070 1.419 . S
C2068 H2072 0.930 . S
C2069 C2068 1.369 . S
C2069 C2078 1.429 . S
C2070 C2068 1.419 . S
C2070 C2071 1.363 . S
C2070 H2073 0.929 . S
C2071 C2070 1.363 . S
C2071 C2077 1.428 . S
H2072 C2068 0.930 . S
H2073 C2070 0.929 . S
S2074 N2075 1.613 . S
S2074 N2076 1.610 . S
N2075 S2074 1.613 . S
N2075 C2078 1.350 . S
N2076 S2074 1.610 . S
N2076 C2077 1.351 . S
C2077 C2071 1.428 . S
C2077 N2076 1.351 . S
C2077 C2078 1.434 . S
C2078 C2069 1.429 . S
C2078 N2075 1.350 . S
C2078 C2077 1.434 . S
C2079 C2080 1.369 . S
C2079 C2081 1.419 . S
C2079 H2083 0.930 . S
C2080 C2079 1.369 . S
C2080 C2089 1.429 . S
C2081 C2079 1.419 . S
C2081 C2082 1.363 . S
C2081 H2084 0.929 . S
C2082 C2081 1.363 . S
C2082 C2088 1.428 . S
H2083 C2079 0.930 . S
H2084 C2081 0.929 . S
S2085 N2086 1.613 . S
S2085 N2087 1.610 . S
N2086 S2085 1.613 . S
N2086 C2089 1.350 . S
N2087 S2085 1.610 . S
N2087 C2088 1.351 . S
C2088 C2082 1.428 . S
C2088 N2087 1.351 . S
C2088 C2089 1.434 . S
C2089 C2080 1.429 . S
C2089 N2086 1.350 . S
C2089 C2088 1.434 . S
C2090 C2091 1.369 . S
C2090 C2092 1.419 . S
C2090 H2094 0.930 . S
C2091 C2090 1.369 . S
C2091 C2100 1.429 . S
C2092 C2090 1.419 . S
C2092 C2093 1.363 . S
C2092 H2095 0.929 . S
C2093 C2092 1.363 . S
C2093 C2099 1.428 . S
H2094 C2090 0.930 . S
H2095 C2092 0.929 . S
S2096 N2097 1.613 . S
S2096 N2098 1.610 . S
N2097 S2096 1.613 . S
N2097 C2100 1.350 . S
N2098 S2096 1.610 . S
N2098 C2099 1.351 . S
C2099 C2093 1.428 . S
C2099 N2098 1.351 . S
C2099 C2100 1.434 . S
C2100 C2091 1.429 . S
C2100 N2097 1.350 . S
C2100 C2099 1.434 . S
C2101 C2102 1.369 . S
C2101 C2103 1.419 . S
C2101 H2105 0.930 . S
C2102 C2101 1.369 . S
C2102 C2111 1.429 . S
C2103 C2101 1.419 . S
C2103 C2104 1.363 . S
C2103 H2106 0.929 . S
C2104 C2103 1.363 . S
C2104 C2110 1.428 . S
H2105 C2101 0.930 . S
H2106 C2103 0.929 . S
S2107 N2108 1.613 . S
S2107 N2109 1.610 . S
N2108 S2107 1.613 . S
N2108 C2111 1.350 . S
N2109 S2107 1.610 . S
N2109 C2110 1.351 . S
C2110 C2104 1.428 . S
C2110 N2109 1.351 . S
C2110 C2111 1.434 . S
C2111 C2102 1.429 . S
C2111 N2108 1.350 . S
C2111 C2110 1.434 . S
C2112 C2113 1.369 . S
C2112 C2114 1.419 1_455 S
C2112 H2116 0.930 . S
C2113 C2112 1.369 . S
C2113 C2122 1.429 . S
C2114 C2112 1.419 1_655 S
C2114 C2115 1.363 . S
C2114 H2117 0.929 . S
C2115 C2114 1.363 . S
C2115 C2121 1.428 . S
H2116 C2112 0.930 . S
H2117 C2114 0.929 . S
S2118 N2119 1.613 1_655 S
S2118 N2120 1.610 . S
N2119 S2118 1.613 1_455 S
N2119 C2122 1.350 . S
N2120 S2118 1.610 . S
N2120 C2121 1.351 . S
C2121 C2115 1.428 . S
C2121 N2120 1.351 . S
C2121 C2122 1.434 1_655 S
C2122 C2113 1.429 . S
C2122 N2119 1.350 . S
C2122 C2121 1.434 1_455 S
C2123 C2124 1.369 . S
C2123 C2125 1.419 . S
C2123 H2127 0.930 . S
C2124 C2123 1.369 . S
C2124 C2133 1.429 . S
C2125 C2123 1.419 . S
C2125 C2126 1.363 . S
C2125 H2128 0.929 . S
C2126 C2125 1.363 . S
C2126 C2132 1.428 . S
H2127 C2123 0.930 . S
H2128 C2125 0.929 . S
S2129 N2130 1.613 . S
S2129 N2131 1.610 . S
N2130 S2129 1.613 . S
N2130 C2133 1.350 . S
N2131 S2129 1.610 . S
N2131 C2132 1.351 . S
C2132 C2126 1.428 . S
C2132 N2131 1.351 . S
C2132 C2133 1.434 . S
C2133 C2124 1.429 . S
C2133 N2130 1.350 . S
C2133 C2132 1.434 . S
C2134 C2135 1.369 . S
C2134 C2136 1.419 1_565 S
C2134 H2138 0.930 . S
C2135 C2134 1.369 . S
C2135 C2144 1.429 . S
C2136 C2134 1.419 1_545 S
C2136 C2137 1.363 . S
C2136 H2139 0.929 . S
C2137 C2136 1.363 . S
C2137 C2143 1.428 . S
H2138 C2134 0.930 . S
H2139 C2136 0.929 . S
S2140 N2141 1.613 . S
S2140 N2142 1.610 1_565 S
N2141 S2140 1.613 . S
N2141 C2144 1.350 . S
N2142 S2140 1.610 1_545 S
N2142 C2143 1.351 . S
C2143 C2137 1.428 . S
C2143 N2142 1.351 . S
C2143 C2144 1.434 1_545 S
C2144 C2135 1.429 . S
C2144 N2141 1.350 . S
C2144 C2143 1.434 1_565 S
C2145 C2146 1.369 . S
C2145 C2147 1.419 1_565 S
C2145 H2149 0.930 . S
C2146 C2145 1.369 . S
C2146 C2155 1.429 . S
C2147 C2145 1.419 1_545 S
C2147 C2148 1.363 . S
C2147 H2150 0.929 . S
C2148 C2147 1.363 . S
C2148 C2154 1.428 . S
H2149 C2145 0.930 . S
H2150 C2147 0.929 . S
S2151 N2152 1.613 1_545 S
S2151 N2153 1.610 . S
N2152 S2151 1.613 1_565 S
N2152 C2155 1.350 . S
N2153 S2151 1.610 . S
N2153 C2154 1.351 . S
C2154 C2148 1.428 . S
C2154 N2153 1.351 . S
C2154 C2155 1.434 1_545 S
C2155 C2146 1.429 . S
C2155 N2152 1.350 . S
C2155 C2154 1.434 1_565 S
C2156 C2157 1.369 . S
C2156 C2158 1.419 1_455 S
C2156 H2160 0.930 . S
C2157 C2156 1.369 . S
C2157 C2166 1.429 . S
C2158 C2156 1.419 1_655 S
C2158 C2159 1.363 . S
C2158 H2161 0.929 . S
C2159 C2158 1.363 . S
C2159 C2165 1.428 . S
H2160 C2156 0.930 . S
H2161 C2158 0.929 . S
S2162 N2163 1.613 . S
S2162 N2164 1.610 1_455 S
N2163 S2162 1.613 . S
N2163 C2166 1.350 . S
N2164 S2162 1.610 1_655 S
N2164 C2165 1.351 . S
C2165 C2159 1.428 . S
C2165 N2164 1.351 . S
C2165 C2166 1.434 1_655 S
C2166 C2157 1.429 . S
C2166 N2163 1.350 . S
C2166 C2165 1.434 1_455 S
C2167 C2168 1.369 . S
C2167 C2169 1.419 . S
C2167 H2171 0.930 . S
C2168 C2167 1.369 . S
C2168 C2177 1.429 . S
C2169 C2167 1.419 . S
C2169 C2170 1.363 . S
C2169 H2172 0.929 . S
C2170 C2169 1.363 . S
C2170 C2176 1.428 . S
H2171 C2167 0.930 . S
H2172 C2169 0.929 . S
S2173 N2174 1.613 . S
S2173 N2175 1.610 . S
N2174 S2173 1.613 . S
N2174 C2177 1.350 . S
N2175 S2173 1.610 . S
N2175 C2176 1.351 . S
C2176 C2170 1.428 . S
C2176 N2175 1.351 . S
C2176 C2177 1.434 . S
C2177 C2168 1.429 . S
C2177 N2174 1.350 . S
C2177 C2176 1.434 . S
C1189 N608 0.923 . S
C1191 N14 0.929 . S
C1200 N47 0.923 . S
C1202 N641 0.927 . S
C1211 N674 0.924 . S
C1213 N80 0.927 . S
C1222 N1103 0.926 . S
C1224 N113 0.925 . S
C1233 N1136 0.920 . S
C1235 N146 0.930 . S
C1244 N179 0.930 . S
C1246 N1169 0.923 . S
C1255 N212 0.922 . S
C1257 N806 0.928 . S
C1266 N839 0.921 . S
C1268 N245 0.930 . S
C1277 N278 0.932 . S
C1279 N872 0.921 . S
C1288 N509 0.931 . S
C1290 N311 0.922 . S
C1299 N344 0.927 . S
C1301 N542 0.925 . S
C1310 N575 0.920 . S
C1312 N377 0.930 . S
C1321 N410 0.930 . S
C1323 N1004 0.923 . S
C1332 N443 0.931 . S
C1334 N1037 0.922 . S
C1343 N1070 0.929 . S
C1345 N476 0.923 . S
C1354 N905 0.931 . S
C1356 N707 0.921 . S
C1365 N740 0.921 . S
C1367 N938 0.930 . S
C1376 N971 0.921 . S
C1378 N773 0.929 . S
C1387 C17 1.240 . S
C1389 N236 1.261 . S
C1398 C50 1.240 . S
C1400 N269 1.261 . S
C1409 C83 1.243 . S
C1411 N203 1.262 . S
C1420 N368 1.261 . S
C1422 C116 1.241 . S
C1431 C149 1.242 . S
C1433 N302 1.264 . S
C1442 C182 1.236 . S
C1444 N335 1.260 . S
C1453 C215 1.244 . S
C1455 N38 1.263 . S
C1464 C248 1.235 . S
C1466 N71 1.260 . S
C1475 N5 1.260 . S
C1477 C281 1.236 . S
C1486 C314 1.241 . S
C1488 N170 1.261 . S
C1497 C347 1.244 . S
C1499 N104 1.263 . S
C1508 C380 1.243 . S
C1510 N137 1.262 . S
C1519 N632 1.260 . S
C1521 C413 1.238 . S
C1530 C446 1.241 . S
C1532 N665 1.261 . S
C1541 C479 1.237 . S
C1543 N599 1.263 . S
C1552 C512 1.235 . S
C1554 N764 1.261 . S
C1563 C545 1.239 . S
C1565 N698 1.261 . S
C1574 N731 1.263 . S
C1576 C578 1.238 . S
C1585 N434 1.263 . S
C1587 C611 1.238 . S
C1596 C644 1.238 . S
C1598 N467 1.260 . S
C1607 N401 1.264 . S
C1609 C677 1.241 . S
C1618 C710 1.237 . S
C1620 N566 1.260 . S
C1629 N500 1.262 . S
C1631 C743 1.236 . S
C1640 N533 1.260 . S
C1642 C776 1.237 . S
C1651 N1028 1.260 . S
C1653 C809 1.240 . S
C1662 N1061 1.264 . S
C1664 C842 1.242 . S
C1673 C875 1.236 . S
C1675 N995 1.263 . S
C1684 N1160 1.262 . S
C1686 C908 1.242 . S
C1695 N1094 1.262 . S
C1697 C941 1.242 . S
C1706 C974 1.238 . S
C1708 N1127 1.260 . S
C1717 N830 1.261 . S
C1719 C1007 1.241 . S
C1728 C1040 1.238 . S
C1730 N863 1.260 . S
C1739 C1073 1.235 . S
C1741 N797 1.261 . S
C1750 C1106 1.235 . S
C1752 N962 1.261 . S
C1761 N896 1.264 . S
C1763 C1139 1.242 . S
C1772 N929 1.264 . S
C1774 C1172 1.241 . S
C1783 C28 1.639 . S
C1785 C127 1.640 . S
C1794 C61 1.639 . S
C1796 C160 1.639 . S
C1805 C193 1.639 . S
C1807 C94 1.639 . S
C1816 C226 1.639 . S
C1818 C325 1.639 . S
C1827 C358 1.640 . S
C1829 C259 1.639 . S
C1838 C292 1.639 . S
C1840 C391 1.639 . S
C1849 C424 1.639 . S
C1851 C523 1.640 . S
C1860 C457 1.639 . S
C1862 C556 1.640 . S
C1871 C589 1.639 . S
C1873 C490 1.639 . S
C1882 C622 1.639 . S
C1884 C721 1.640 1_554 S
C1893 C655 1.639 . S
C1895 C754 1.640 1_554 S
C1904 C787 1.640 1_554 S
C1906 C688 1.639 . S
C1915 C919 1.639 1_556 S
C1917 C820 1.639 . S
C1926 C952 1.640 1_556 S
C1928 C853 1.639 . S
C1937 C886 1.640 . S
C1939 C985 1.639 1_556 S
C1948 C1018 1.640 . S
C1950 C1117 1.639 . S
C1959 C1150 1.639 . S
C1961 C1051 1.640 . S
C1970 C1183 1.639 . S
C1972 C1084 1.639 . S
C1981 C8 2.010 . S
C1983 C536 2.010 . S
C1992 C41 2.014 . S
C1994 C569 2.013 . S
C2003 C503 2.010 . S
C2005 C74 2.010 . S
C2014 C107 2.012 . S
C2016 C866 2.012 . S
C2025 C800 2.012 . S
C2027 C140 2.012 . S
C2036 C173 2.010 . S
C2038 C833 2.010 . S
C2047 C206 2.011 . S
C2049 C1130 2.011 . S
C2058 C1163 2.013 . S
C2060 C239 2.013 . S
C2069 C272 2.013 . S
C2071 C1097 2.013 . S
C2080 C668 2.010 . S
C2082 C305 2.011 . S
C2091 C602 2.013 . S
C2093 C338 2.013 . S
C2102 C635 2.013 . S
C2104 C371 2.013 . S
C2113 C932 2.014 . S
C2115 C404 2.013 . S
C2124 C965 2.014 . S
C2126 C437 2.013 . S
C2135 C899 2.013 . S
C2137 C470 2.013 . S
C2146 C1064 2.013 . S
C2148 C701 2.013 . S
C2157 C998 2.010 . S
C2159 C734 2.011 . S
C2168 C1031 2.013 . S
C2170 C767 2.012 . S
