# Generated by pormake.
# Topology snp, (6)-cn, num edge types: 1
# Building blocks:
#     Node 0, Type 0, BuildingBlock: KUMBUR_clean_sbu_0, # of connection points: 6
#     Node 1, Type 0, BuildingBlock: KUMBUR_clean_sbu_0, # of connection points: 6
#     Node 2, Type 0, BuildingBlock: KUMBUR_clean_sbu_0, # of connection points: 6
#     Node 3, Type 0, BuildingBlock: KUMBUR_clean_sbu_0, # of connection points: 6
#     Edge 4, Type (0, 0), BuildingBlock: XUDNAN_clean_linker_2, # of connection points: 2
#     Edge 5, Type (0, 0), BuildingBlock: XUDNAN_clean_linker_2, # of connection points: 2
#     Edge 6, Type (0, 0), BuildingBlock: XUDNAN_clean_linker_2, # of connection points: 2
#     Edge 7, Type (0, 0), BuildingBlock: XUDNAN_clean_linker_2, # of connection points: 2
#     Edge 8, Type (0, 0), BuildingBlock: XUDNAN_clean_linker_2, # of connection points: 2
#     Edge 9, Type (0, 0), BuildingBlock: XUDNAN_clean_linker_2, # of connection points: 2
#     Edge 10, Type (0, 0), BuildingBlock: XUDNAN_clean_linker_2, # of connection points: 2
#     Edge 11, Type (0, 0), BuildingBlock: XUDNAN_clean_linker_2, # of connection points: 2
#     Edge 12, Type (0, 0), BuildingBlock: XUDNAN_clean_linker_2, # of connection points: 2
#     Edge 13, Type (0, 0), BuildingBlock: XUDNAN_clean_linker_2, # of connection points: 2
#     Edge 14, Type (0, 0), BuildingBlock: XUDNAN_clean_linker_2, # of connection points: 2
#     Edge 15, Type (0, 0), BuildingBlock: XUDNAN_clean_linker_2, # of connection points: 2
# Relax obj value: 0.231
# Max RMSD: 0.260
# Mean RMSD: 0.235
data_MOF--net-snp--node1-KUMBUR_clean_sbu_0--edge1-XUDNAN_clean_linker_2
_symmetry_space_group_name_H-M    P1
_symmetry_Int_Tables_number       1
_symmetry_cell_setting            triclinic
loop_
_symmetry_equiv_pos_as_xyz
'x, y, z'
_cell_length_a     24.442359
_cell_length_b     26.245694
_cell_length_c     32.886963
_cell_angle_alpha  116.56364
_cell_angle_beta   97.528589
_cell_angle_gamma 95.138157
loop_
_atom_site_label
_atom_site_type_symbol
_atom_site_fract_x
_atom_site_fract_y
_atom_site_fract_z
_atom_type_partial_charge
Tb0 Tb 0.34173 0.1498 0.23926 0.0
C1 C 0.46345 0.95179 0.23447 0.0
C2 C 0.42537 0.86707 0.16144 0.0
C3 C 0.52188 0.88005 0.19877 0.0
C4 C 0.41955 0.92022 0.19791 0.0
C5 C 0.51514 0.93215 0.23557 0.0
C6 C 0.47702 0.84752 0.16176 0.0
C7 C 0.54923 0.0166 0.30942 0.0
N8 N 0.45555 1.00272 0.26864 0.0
C9 C 0.49725 0.03451 0.30663 0.0
C10 C 0.55839 0.96545 0.27359 0.0
Tb11 Tb 0.36895 0.02879 0.26005 0.0
N12 N 0.37054 0.94086 0.19884 0.0
C13 C 0.32431 0.90784 0.16602 0.0
C14 C 0.37885 0.83479 0.12626 0.0
C15 C 0.32785 0.85495 0.12892 0.0
H16 H 0.49134 0.07452 0.33438 0.0
H17 H 0.29119 0.8298 0.10247 0.0
H18 H 0.48248 0.80703 0.13388 0.0
H19 H 0.5823 0.04245 0.33916 0.0
H20 H 0.28473 0.92231 0.16805 0.0
H21 H 0.53905 0.26847 0.36081 0.0
H22 H 0.38153 0.7938 0.09754 0.0
H23 H 0.215 0.18375 0.24091 0.0
H24 H 0.47587 0.18228 0.30387 0.0
H25 H 0.16931 0.26573 0.28723 0.0
H26 H 0.56139 0.86434 0.19879 0.0
H27 H 0.50425 0.36068 0.39884 0.0
H28 H 0.4224 0.41256 0.41248 0.0
H29 H 0.5988 0.95189 0.27577 0.0
H30 H 0.32088 0.40975 0.39585 0.0
N31 N 0.40504 0.22432 0.30143 0.0
C32 C 0.45958 0.22192 0.31617 0.0
C33 C 0.47618 0.3229 0.3718 0.0
C34 C 0.41947 0.3242 0.36046 0.0
C35 C 0.49596 0.27107 0.35031 0.0
C36 C 0.38457 0.27358 0.32498 0.0
H37 H 0.22617 0.35429 0.35073 0.0
N38 N 0.29562 0.22207 0.28267 0.0
C39 C 0.21378 0.26739 0.29599 0.0
C40 C 0.32771 0.27182 0.31622 0.0
C41 C 0.23952 0.22045 0.27087 0.0
C42 C 0.24609 0.31772 0.3318 0.0
C43 C 0.3039 0.32087 0.34179 0.0
O44 O 0.29051 0.16211 0.18892 0.0
O45 O 0.35449 0.06093 0.20978 0.0
O46 O 0.44364 0.05201 0.23626 0.0
O47 O 0.42643 0.13357 0.2274 0.0
O48 O 0.2994 0.08198 0.17017 0.0
O49 O 0.37912 0.19619 0.20873 0.0
O50 O 0.37223 0.01999 0.32116 0.0
O51 O 0.34723 0.11435 0.28657 0.0
O52 O 0.26661 0.11408 0.25453 0.0
O53 O 0.27938 0.01889 0.23049 0.0
O54 O 0.40031 0.10057 0.33038 0.0
O55 O 0.30774 0.968 0.26135 0.0
C56 C 0.32398 0.04057 0.16985 0.0
C57 C 0.32027 0.2386 0.17266 0.0
C58 C 0.31135 0.27956 0.11837 0.0
C59 C 0.32525 0.23542 0.12933 0.0
C60 C 0.29236 0.3269 0.15171 0.0
C61 C 0.30179 0.28657 0.2053 0.0
C62 C 0.28784 0.33033 0.19477 0.0
C63 C 0.45867 0.09504 0.22694 0.0
C64 C 0.33198 0.18995 0.18174 0.0
C65 C 0.33846 0.3717 0.37608 0.0
C66 C 0.39624 0.37344 0.38528 0.0
C67 C 0.37248 0.13861 0.32794 0.0
C68 C 0.33352 0.92827 0.31211 0.0
C69 C 0.31858 0.92857 0.3524 0.0
C70 C 0.31897 0.87912 0.3594 0.0
C71 C 0.33554 0.83007 0.32589 0.0
C72 C 0.35023 0.87871 0.27961 0.0
C73 C 0.35133 0.83011 0.28659 0.0
C74 C 0.24606 0.05812 0.23584 0.0
C75 C 0.32912 0.97869 0.3034 0.0
H76 H 0.33915 0.1981 0.10391 0.0
H77 H 0.28212 0.36203 0.14493 0.0
H78 H 0.29784 0.29022 0.23873 0.0
H79 H 0.27357 0.36724 0.2202 0.0
H80 H 0.3054 0.96657 0.37759 0.0
H81 H 0.33688 0.79169 0.33034 0.0
H82 H 0.36181 0.87722 0.24854 0.0
H83 H 0.36417 0.79205 0.26122 0.0
Tb84 Tb 0.05251 0.25268 0.60407 0.0
C85 C 0.26397 0.44808 0.67604 0.0
C86 C 0.34139 0.40657 0.64227 0.0
C87 C 0.3377 0.50804 0.66638 0.0
C88 C 0.29035 0.40117 0.65679 0.0
C89 C 0.28711 0.50217 0.68103 0.0
C90 C 0.3649 0.46028 0.64711 0.0
C91 C 0.2088 0.54071 0.71483 0.0
N92 N 0.21514 0.44045 0.68948 0.0
C93 C 0.18779 0.4863 0.7095 0.0
C94 C 0.25855 0.54859 0.70033 0.0
Tb95 Tb 0.18252 0.34884 0.67725 0.0
N96 N 0.26563 0.34999 0.65197 0.0
C97 C 0.29128 0.30248 0.6342 0.0
C98 C 0.36718 0.35785 0.62334 0.0
C99 C 0.34209 0.30563 0.61952 0.0
H100 H 0.14857 0.48101 0.71994 0.0
H101 H 0.36164 0.26761 0.60493 0.0
H102 H 0.404 0.46532 0.63605 0.0
H103 H 0.18634 0.57643 0.72977 0.0
H104 H 0.27245 0.26149 0.6303 0.0
H105 H 0.88204 0.34849 0.68196 0.0
H106 H 0.40636 0.36012 0.61169 0.0
H107 H 0.07918 0.11884 0.56276 0.0
H108 H 0.96796 0.34651 0.65022 0.0
H109 H 0.04062 0.02723 0.56013 0.0
H110 H 0.35615 0.54927 0.6699 0.0
H111 H 0.83732 0.26145 0.68394 0.0
H112 H 0.83582 0.15669 0.66364 0.0
H113 H 0.27445 0.59043 0.70396 0.0
H114 H 0.87967 0.06955 0.63143 0.0
N115 N 0.97419 0.25997 0.63637 0.0
C116 C 0.94954 0.3083 0.65127 0.0
C117 C 0.87549 0.26048 0.67036 0.0
C118 C 0.89932 0.21024 0.65293 0.0
C119 C 0.90057 0.30963 0.66924 0.0
C120 C 0.94934 0.21156 0.63614 0.0
H121 H 0.95696 0.02155 0.59411 0.0
N122 N 0.01961 0.16548 0.59961 0.0
C123 C 0.02102 0.06487 0.57616 0.0
C124 C 0.97311 0.16257 0.61728 0.0
C125 C 0.04276 0.11697 0.57772 0.0
C126 C 0.97391 0.0618 0.59535 0.0
C127 C 0.94862 0.11067 0.61537 0.0
O128 O 0.02388 0.19905 0.53254 0.0
O129 O 0.13756 0.28771 0.60765 0.0
O130 O 0.14793 0.3814 0.63081 0.0
O131 O 0.0536 0.3438 0.61941 0.0
O132 O 0.10583 0.20704 0.55542 0.0
O133 O 0.99471 0.27968 0.56731 0.0
O134 O 0.19904 0.38785 0.75054 0.0
O135 O 0.09707 0.31389 0.67192 0.0
O136 O 0.09311 0.21991 0.6498 0.0
O137 O 0.18302 0.25732 0.65208 0.0
O138 O 0.12597 0.39416 0.72391 0.0
O139 O 0.23803 0.31625 0.71036 0.0
C140 C 0.14879 0.24712 0.57176 0.0
C141 C 0.01077 0.25242 0.49148 0.0
C142 C 0.98841 0.24958 0.41528 0.0
C143 C 0.97196 0.23831 0.45075 0.0
C144 C 0.04475 0.27389 0.42159 0.0
C145 C 0.0651 0.27984 0.4973 0.0
C146 C 0.08222 0.28968 0.46247 0.0
C147 C 0.09391 0.38029 0.6183 0.0
C148 C 0.99641 0.23676 0.5273 0.0
C149 C 0.89924 0.10905 0.63264 0.0
C150 C 0.87427 0.15862 0.65093 0.0
C151 C 0.08281 0.35414 0.70565 0.0
C152 C 0.279 0.37065 0.78957 0.0
C153 C 0.27982 0.34764 0.82103 0.0
C154 C 0.32724 0.36217 0.85588 0.0
C155 C 0.37342 0.40082 0.85908 0.0
C156 C 0.32535 0.40903 0.7934 0.0
C157 C 0.37225 0.4242 0.82823 0.0
C158 C 0.14814 0.22293 0.65962 0.0
C159 C 0.23059 0.35083 0.75153 0.0
H160 H 0.92949 0.2188 0.44707 0.0
H161 H 0.06085 0.28021 0.3948 0.0
H162 H 0.09464 0.2936 0.52883 0.0
H163 H 0.12498 0.30926 0.46705 0.0
H164 H 0.24423 0.31712 0.8175 0.0
H165 H 0.41039 0.41324 0.88569 0.0
H166 H 0.32541 0.42663 0.76921 0.0
H167 H 0.40809 0.45385 0.83113 0.0
Tb168 Tb 0.84242 0.10594 1.00163 0.0
C169 C 0.89375 0.87103 0.96249 0.0
C170 C 0.8107 0.81188 0.90595 0.0
C171 C 0.8981 0.77413 0.90385 0.0
C172 C 0.83772 0.86418 0.94458 0.0
C173 C 0.92427 0.82556 0.94317 0.0
C174 C 0.84141 0.76731 0.88525 0.0
C175 C 1.002 0.88245 1.00622 0.0
N176 N 0.91748 0.92098 1.00065 0.0
C177 C 0.96985 0.92611 1.02405 0.0
C178 C 0.97947 0.83234 0.96507 0.0
Tb179 Tb 0.8615 0.9888 0.02888 0.0
N180 N 0.80943 0.90817 0.96571 0.0
C181 C 0.75359 0.90247 0.94915 0.0
C182 C 0.75357 0.80575 0.88946 0.0
C183 C 0.72497 0.8513 0.91114 0.0
H184 H 0.98693 0.96434 0.05637 0.0
H185 H 0.68088 0.84728 0.89828 0.0
H186 H 0.82146 0.72706 0.85534 0.0
H187 H 0.04389 0.88725 1.02444 0.0
H188 H 0.73046 0.93723 0.96394 0.0
H189 H 0.94569 0.30376 0.15122 0.0
H190 H 0.73129 0.76628 0.85991 0.0
H191 H 0.71244 0.06513 0.93943 0.0
H192 H 0.93916 0.20477 0.08814 0.0
H193 H 0.62632 0.10776 0.94011 0.0
H194 H 0.92096 0.73889 0.88824 0.0
H195 H 0.86243 0.35208 0.15986 0.0
H196 H 0.76133 0.34895 0.12989 0.0
H197 H 0.00429 0.79837 0.95143 0.0
H198 H 0.67486 0.2961 0.07212 0.0
N199 N 0.8526 0.19623 0.06248 0.0
C200 C 0.90232 0.22505 0.09203 0.0
C201 C 0.85923 0.3085 0.13231 0.0
C202 C 0.80888 0.27948 0.10086 0.0
C203 C 0.90629 0.28135 0.12756 0.0
C204 C 0.80701 0.22282 0.06572 0.0
H205 H 0.62416 0.20614 1.00123 0.0
N206 N 0.75839 0.13829 1.00038 0.0
C207 C 0.66315 0.1321 0.9666 0.0
C208 C 0.75846 0.19329 0.03321 0.0
C209 C 0.71202 0.10807 0.9663 0.0
C210 C 0.66212 0.18774 1.00113 0.0
C211 C 0.7102 0.21919 0.03488 0.0
O212 O 0.83621 0.10643 0.93742 0.0
O213 O 0.85388 0.01815 0.97751 0.0
O214 O 0.93231 1.00702 1.00069 0.0
O215 O 0.93287 0.10467 1.02291 0.0
O216 O 0.80456 0.03327 0.93283 0.0
O217 O 0.89735 0.16879 0.99569 0.0
O218 O 0.90054 0.98999 0.09028 0.0
O219 O 0.85574 0.07915 0.05525 0.0
O220 O 0.77174 0.0928 0.03279 0.0
O221 O 0.77566 1.00664 0.03714 0.0
O222 O 0.91583 0.05936 0.09045 0.0
O223 O 0.817 0.94264 0.05608 0.0
C224 C 0.82889 0.99336 0.93597 0.0
C225 C 0.85628 0.19842 0.94098 0.0
C226 C 0.87228 0.2661 0.90877 0.0
C227 C 0.89152 0.2259 0.92306 0.0
C228 C 0.8179 0.27845 0.91346 0.0
C229 C 0.80202 0.21137 0.94372 0.0
C230 C 0.78339 0.2515 0.93092 0.0
C231 C 0.95952 0.05969 1.01443 0.0
C232 C 0.87348 0.15284 0.95301 0.0
C233 C 0.71156 0.27542 0.07012 0.0
C234 C 0.76078 0.30548 0.10306 0.0
C235 C 0.89111 0.10172 0.09285 0.0
C236 C 0.87321 0.91007 0.10205 0.0
C237 C 0.89228 0.9241 0.1488 0.0
C238 C 0.90543 0.88105 0.16124 0.0
C239 C 0.90001 0.82393 0.12598 0.0
C240 C 0.8685 0.85287 0.06756 0.0
C241 C 0.882 0.81015 0.07957 0.0
C242 C 0.75067 0.05134 0.04179 0.0
C243 C 0.85859 0.95597 0.09045 0.0
H244 H 0.93306 0.21533 0.9196 0.0
H245 H 0.80069 0.3073 0.9018 0.0
H246 H 0.77272 0.18905 0.95402 0.0
H247 H 0.74118 0.26041 0.93318 0.0
H248 H 0.89578 0.9683 0.17552 0.0
H249 H 0.91026 0.78993 0.13428 0.0
H250 H 0.85423 0.84118 0.03146 0.0
H251 H 0.87831 0.76607 0.05279 0.0
Tb252 Tb 0.06628 0.84438 0.62231 0.0
C253 C 0.30814 0.85372 0.70466 0.0
C254 C 0.34311 0.79093 0.63719 0.0
C255 C 0.40697 0.86988 0.70262 0.0
C256 C 0.29848 0.80739 0.66086 0.0
C257 C 0.36259 0.88484 0.72654 0.0
C258 C 0.39721 0.82307 0.65795 0.0
C259 C 0.32581 0.94026 0.79511 0.0
N260 N 0.26411 0.86716 0.72641 0.0
C261 C 0.27256 0.90809 0.77191 0.0
C262 C 0.37093 0.92912 0.77213 0.0
Tb263 Tb 0.17862 0.81189 0.68569 0.0
N264 N 0.2458 0.77697 0.64237 0.0
C265 C 0.23579 0.72717 0.6012 0.0
C266 C 0.33228 0.74187 0.59391 0.0
C267 C 0.27849 0.70951 0.5761 0.0
H268 H 0.23788 0.91701 0.78989 0.0
H269 H 0.26988 0.67081 0.54306 0.0
H270 H 0.43197 0.81131 0.64019 0.0
H271 H 0.33203 0.97355 0.83069 0.0
H272 H 0.19474 0.70117 0.58677 0.0
H273 H 0.97612 0.01466 0.74664 0.0
H274 H 0.36536 0.72786 0.57452 0.0
H275 H 1.00264 0.73121 0.5238 0.0
H276 H 0.05031 0.97182 0.70665 0.0
H277 H 0.90786 0.67323 0.48902 0.0
H278 H 0.44909 0.89352 0.71865 0.0
H279 H 0.88164 0.95702 0.72577 0.0
H280 H 0.81492 0.86528 0.67175 0.0
H281 H 0.41217 0.95402 0.7902 0.0
H282 H 0.79605 0.77185 0.60084 0.0
N283 N 0.99998 0.88919 0.66289 0.0
C284 C 0.00998 0.94536 0.69694 0.0
C285 C 0.91435 0.93764 0.70783 0.0
C286 C 0.90327 0.88151 0.6711 0.0
C287 C 0.96761 0.9702 0.71989 0.0
C288 C 0.94733 0.85861 0.64871 0.0
H289 H 0.83024 0.70042 0.53173 0.0
N290 N 0.9794 0.789 0.58651 0.0
C291 C 0.91546 0.71037 0.52297 0.0
C292 C 0.93663 0.8065 0.60898 0.0
C293 C 0.969 0.74342 0.54269 0.0
C294 C 0.8718 0.72573 0.54726 0.0
C295 C 0.88177 0.77517 0.59034 0.0
O296 O 0.06227 0.84111 0.55672 0.0
O297 O 0.15212 0.82983 0.62824 0.0
O298 O 0.20874 0.89514 0.69385 0.0
O299 O 0.12334 0.92279 0.67814 0.0
O300 O 0.10278 0.78718 0.56466 0.0
O301 O 0.05817 0.92019 0.61602 0.0
O302 O 0.17875 0.80536 0.74716 0.0
O303 O 0.09389 0.82955 0.6802 0.0
O304 O 0.03768 0.76081 0.61832 0.0
O305 O 0.12416 0.7337 0.63102 0.0
O306 O 0.1407 0.8646 0.74515 0.0
O307 O 0.1962 0.73512 0.68652 0.0
C308 C 0.1539 0.79928 0.58602 0.0
C309 C 0.00594 0.9015 0.54284 0.0
C310 C 0.96576 0.90725 0.47292 0.0
C311 C 0.01235 0.90469 0.50191 0.0
C312 C 0.91305 0.90685 0.48556 0.0
C313 C 0.95281 0.90158 0.55462 0.0
C314 C 0.90677 0.90422 0.52615 0.0
C315 C 0.17734 0.93436 0.69805 0.0
C316 C 0.05374 0.89395 0.57113 0.0
C317 C 0.83839 0.79564 0.61424 0.0
C318 C 0.84914 0.84881 0.65461 0.0
C319 C 0.09207 0.85971 0.72227 0.0
C320 C 0.24711 0.75305 0.76045 0.0
C321 C 0.25919 0.78833 0.80918 0.0
C322 C 0.30487 0.78265 0.83745 0.0
C323 C 0.33777 0.74047 0.81546 0.0
C324 C 0.2821 0.713 0.74011 0.0
C325 C 0.32701 0.70694 0.76745 0.0
C326 C 0.06973 0.72156 0.61418 0.0
C327 C 0.19729 0.75655 0.73101 0.0
H328 H 0.05309 0.904 0.4922 0.0
H329 H 0.87666 0.90914 0.46415 0.0
H330 H 0.94677 0.89979 0.58588 0.0
H331 H 0.866 0.9043 0.53566 0.0
H332 H 0.2331 0.82029 0.82475 0.0
H333 H 0.37169 0.73225 0.83513 0.0
H334 H 0.27438 0.68565 0.70298 0.0
H335 H 0.35324 0.67529 0.75137 0.0
H336 H 0.00779 0.13816 0.10227 0.0
H337 H 0.03795 0.99516 0.97897 0.0
H338 H 0.10924 0.97396 1.02645 0.0
H339 H 0.14748 0.18228 0.17773 0.0
H340 H 0.11354 0.19224 0.2259 0.0
H341 H 0.07861 0.20169 0.17888 0.0
H342 H 0.99634 0.12788 0.17531 0.0
H343 H 0.03643 0.11368 0.21797 0.0
H344 H 0.00683 0.05541 0.16123 0.0
H345 H 0.15019 0.94844 0.08753 0.0
H346 H 0.21026 0.95575 0.15611 0.0
H347 H 0.15404 0.11449 0.24199 0.0
C348 C 0.0317 0.10455 0.08508 0.0
C349 C 0.01796 0.06878 0.03677 0.0
C350 C 0.0495 0.02456 1.01559 0.0
C351 C 0.08859 0.01082 0.04255 0.0
C352 C 0.09454 0.04122 0.09042 0.0
C353 C 0.06901 0.08866 0.11159 0.0
C354 C 0.08053 0.11186 0.16361 0.0
C355 C 0.10683 0.17589 0.18795 0.0
C356 C 0.02684 0.10164 0.18053 0.0
C357 C 0.12056 0.07335 0.16857 0.0
C358 C 0.12401 0.0301 0.12571 0.0
C359 C 0.15157 0.98448 0.1211 0.0
C360 C 0.18486 0.98858 0.16069 0.0
C361 C 0.19121 0.03878 0.2038 0.0
C362 C 0.15364 0.07817 0.20868 0.0
H363 H 0.13493 0.02188 0.75754 0.0
H364 H 0.28288 0.97822 0.70002 0.0
H365 H 0.31529 0.07975 0.72274 0.0
H366 H 0.08572 0.07805 0.71653 0.0
H367 H 0.06714 0.14429 0.75622 0.0
H368 H 0.07759 0.09059 0.77399 0.0
H369 H 0.21339 0.19317 0.83861 0.0
H370 H 0.14813 0.16131 0.84385 0.0
H371 H 0.15178 0.22116 0.83081 0.0
H372 H 0.29918 0.15142 0.70107 0.0
H373 H 0.2498 0.19134 0.65586 0.0
H374 H 0.1066 0.19235 0.72033 0.0
C375 C 0.17507 0.03525 0.75177 0.0
C376 C 0.20488 0.99382 0.72493 0.0
C377 C 0.25865 0.0103 0.71939 0.0
C378 C 0.27768 0.06815 0.73291 0.0
C379 C 0.24209 0.10793 0.75149 0.0
C380 C 0.19335 0.09291 0.76412 0.0
C381 C 0.15577 0.13762 0.77201 0.0
C382 C 0.09299 0.11103 0.75355 0.0
C383 C 0.16765 0.18067 0.82418 0.0
C384 C 0.17925 0.16517 0.74495 0.0
C385 C 0.23256 0.15281 0.73867 0.0
C386 C 0.25874 0.16337 0.70745 0.0
C387 C 0.22961 0.18464 0.68087 0.0
C388 C 0.17445 0.19518 0.68519 0.0
C389 C 0.14919 0.18584 0.71774 0.0
H390 H 0.68204 0.97859 0.06259 0.0
H391 H 0.72269 0.1569 0.08967 0.0
H392 H 0.65978 0.18592 0.14411 0.0
H393 H 0.53442 0.9807 0.06976 0.0
H394 H 0.53309 0.93655 0.09888 0.0
H395 H 0.58153 0.92914 0.06057 0.0
H396 H 0.66229 0.94775 0.12791 0.0
H397 H 0.61342 0.95754 0.16638 0.0
H398 H 0.67221 0.01356 0.18167 0.0
H399 H 0.59502 0.1986 0.19574 0.0
H400 H 0.51916 0.19184 0.23578 0.0
H401 H 0.51669 1.00683 0.17987 0.0
C402 C 0.67689 0.02349 0.07948 0.0
C403 C 0.70642 0.06497 0.0702 0.0
C404 C 0.69922 0.1235 0.09393 0.0
C405 C 0.66422 0.14094 0.12605 0.0
C406 C 0.63644 0.09958 0.13476 0.0
C407 C 0.6414 0.04194 0.11202 0.0
C408 C 0.60462 1.00692 0.12775 0.0
C409 C 0.56079 0.96061 0.08678 0.0
C410 C 0.64028 0.97984 0.15239 0.0
C411 C 0.57752 0.05403 0.16169 0.0
C412 C 0.5978 0.10715 0.16559 0.0
C413 C 0.57865 0.15734 0.19314 0.0
C414 C 0.53554 0.15301 0.21582 0.0
C415 C 0.51168 0.09884 0.21073 0.0
C416 C 0.53435 0.04889 0.18465 0.0
H417 H 0.01911 0.45322 0.64494 0.0
H418 H 0.13627 0.39609 0.55227 0.0
H419 H 0.11044 0.46142 0.52048 0.0
H420 H 0.91616 0.50043 0.57467 0.0
H421 H 0.91241 0.56477 0.62634 0.0
H422 H 0.92209 0.49914 0.62941 0.0
H423 H 0.01182 0.5532 0.69238 0.0
H424 H 1.00152 0.61861 0.69005 0.0
H425 H 0.06685 0.59237 0.68074 0.0
H426 H 0.08826 0.54196 0.50936 0.0
H427 H 0.09335 0.64585 0.53414 0.0
H428 H 0.99894 0.66229 0.64044 0.0
C429 C 0.03743 0.4534 0.61673 0.0
C430 C 0.07777 0.4186 0.59945 0.0
C431 C 0.10391 0.42153 0.56466 0.0
C432 C 0.08895 0.45796 0.54611 0.0
C433 C 0.04933 0.49269 0.56408 0.0
C434 C 0.02509 0.492 0.59966 0.0
C435 C 0.99681 0.54412 0.62185 0.0
C436 C 0.93307 0.52601 0.61248 0.0
C437 C 0.02074 0.57913 0.6743 0.0
C438 C 0.0127 0.5764 0.59563 0.0
C439 C 0.03984 0.54401 0.56046 0.0
C440 C 0.06591 0.56725 0.53586 0.0
C441 C 0.06853 0.62615 0.55 0.0
C442 C 0.04573 0.66071 0.5885 0.0
C443 C 0.01457 0.63544 0.60977 0.0
H444 H 0.16945 0.15352 0.50026 0.0
H445 H 0.21575 0.33958 0.57231 0.0
H446 H 0.28232 0.33361 0.52008 0.0
H447 H 0.29459 0.10823 0.46319 0.0
H448 H 0.25923 0.0551 0.40591 0.0
H449 H 0.2234 0.07434 0.45386 0.0
H450 H 0.14368 0.09976 0.40953 0.0
H451 H 0.17973 0.08125 0.36168 0.0
H452 H 0.16022 0.15181 0.38937 0.0
H453 H 0.35353 0.30073 0.46317 0.0
H454 H 0.40199 0.25083 0.39805 0.0
H455 H 0.28395 0.0938 0.34961 0.0
C456 C 0.19464 0.19308 0.50595 0.0
C457 C 0.19158 0.24673 0.54345 0.0
C458 C 0.22164 0.29767 0.54699 0.0
C459 C 0.25856 0.29461 0.51666 0.0
C460 C 0.26153 0.24051 0.48075 0.0
C461 C 0.22829 0.19109 0.47425 0.0
C462 C 0.2322 0.1394 0.42947 0.0
C463 C 0.25366 0.09147 0.4387 0.0
C464 C 0.1756 0.11674 0.39551 0.0
C465 C 0.27486 0.16663 0.41251 0.0
C466 C 0.29255 0.22465 0.44303 0.0
C467 C 0.33762 0.25632 0.43773 0.0
C468 C 0.36432 0.2281 0.40007 0.0
C469 C 0.34361 0.1702 0.36652 0.0
C470 C 0.29856 0.13918 0.37327 0.0
H471 H 0.05606 0.26411 0.72423 0.0
H472 H 0.0228 0.43522 0.75477 0.0
H473 H 0.96549 0.43303 0.81116 0.0
H474 H 0.92558 0.1982 0.73973 0.0
H475 H 0.96675 0.16448 0.76679 0.0
H476 H 0.99249 0.18144 0.72459 0.0
H477 H 0.08406 0.24482 0.7928 0.0
H478 H 0.05048 0.22261 0.82966 0.0
H479 H 0.07204 0.298 0.84697 0.0
H480 H 0.91732 0.41329 0.86876 0.0
H481 H 0.87714 0.37595 0.91703 0.0
H482 H 0.94329 0.21709 0.84804 0.0
C483 C 0.03512 0.30012 0.74146 0.0
C484 C 0.04217 0.34889 0.73387 0.0
C485 C 0.01673 0.39683 0.75932 0.0
C486 C 0.9843 0.39598 0.79147 0.0
C487 C 0.97884 0.34731 0.7986 0.0
C488 C 1.00358 0.30033 0.77421 0.0
C489 C 0.9972 0.25651 0.79211 0.0
C490 C 0.96896 0.19655 0.75341 0.0
C491 C 0.05426 0.25517 0.81684 0.0
C492 C 0.96059 0.28291 0.8271 0.0
C493 C 0.95209 0.33641 0.83171 0.0
C494 C 0.92288 0.37086 0.86452 0.0
C495 C 0.90009 0.34902 0.89179 0.0
C496 C 0.90552 0.2926 0.88573 0.0
C497 C 0.93776 0.26007 0.85367 0.0
H498 H 0.90412 0.83674 0.3864 0.0
H499 H 0.03738 0.98424 0.461 0.0
H500 H 0.03775 0.9942 0.38936 0.0
H501 H 0.95464 0.77717 0.27715 0.0
H502 H 0.88493 0.75302 0.24265 0.0
H503 H 0.89734 0.75708 0.29932 0.0
H504 H 0.82227 0.82311 0.32316 0.0
H505 H 0.80995 0.81968 0.26674 0.0
H506 H 0.82868 0.88878 0.31789 0.0
H507 H 0.01725 0.99153 0.30949 0.0
H508 H 0.98489 0.97083 0.22809 0.0
H509 H 0.86761 0.82285 0.20631 0.0
C510 C 0.93379 0.87077 0.38749 0.0
C511 C 0.97077 0.90975 0.42917 0.0
C512 C 0.0091 0.95362 0.42928 0.0
C513 C 0.00929 0.95976 0.38883 0.0
C514 C 0.97139 0.92116 0.34844 0.0
C515 C 0.93499 0.87695 0.34744 0.0
C516 C 0.89844 0.84098 0.29992 0.0
C517 C 0.90952 0.77836 0.2785 0.0
C518 C 0.83615 0.84331 0.30208 0.0
C519 C 0.91913 0.8722 0.27429 0.0
C520 C 0.96099 0.91858 0.30278 0.0
C521 C 0.98492 0.95493 0.28688 0.0
C522 C 0.96605 0.94309 0.24068 0.0
C523 C 0.92402 0.89497 0.21069 0.0
C524 C 0.90039 0.85941 0.22809 0.0
H525 H 0.23344 0.83624 0.89791 0.0
H526 H 0.40801 0.81566 0.89674 0.0
H527 H 0.42914 0.86881 0.98152 0.0
H528 H 0.26639 0.98381 0.98694 0.0
H529 H 0.20704 0.97899 1.01295 0.0
H530 H 0.2032 0.93381 0.95197 0.0
H531 H 0.17728 0.84181 0.96075 0.0
H532 H 0.17931 0.88651 1.02138 0.0
H533 H 0.2214 0.83024 1.00326 0.0
H534 H 0.43181 0.92481 0.0682 0.0
H535 H 0.41825 0.99116 0.14663 0.0
H536 H 0.24688 0.98653 0.09032 0.0
C537 C 0.27636 0.84301 0.91492 0.0
C538 C 0.31832 0.8193 0.88944 0.0
C539 C 0.37388 0.83029 0.91449 0.0
C540 C 0.38672 0.86116 0.96309 0.0
C541 C 0.3441 0.88254 0.98682 0.0
C542 C 0.29039 0.87522 0.96345 0.0
C543 C 0.25325 0.90665 0.99688 0.0
C544 C 0.23117 0.95358 0.98655 0.0
C545 C 0.20499 0.86375 0.9955 0.0
C546 C 0.29454 0.93292 0.0426 0.0
C547 C 0.34645 0.91752 0.03625 0.0
C548 C 0.3913 0.93715 0.07353 0.0
C549 C 0.38319 0.97468 0.11818 0.0
C550 C 0.33082 0.99257 0.12528 0.0
C551 C 0.28635 0.97134 0.08667 0.0
H552 H 0.92956 0.03114 0.92373 0.0
H553 H 0.79342 0.88641 0.85961 0.0
H554 H 0.84445 0.83567 0.79618 0.0
H555 H 0.95223 0.02648 0.81888 0.0
H556 H 0.02744 0.04704 0.83471 0.0
H557 H 0.9849 0.07208 0.87842 0.0
H558 H 0.03681 0.0305 0.92497 0.0
H559 H 0.08307 1.00594 0.88451 0.0
H560 H 0.04502 0.95523 0.898 0.0
H561 H 0.91368 0.8008 0.73983 0.0
H562 H 0.99234 0.78597 0.69716 0.0
H563 H 0.08107 0.95554 0.79861 0.0
C564 C 0.9114 0.98783 0.89736 0.0
C565 C 0.85916 0.96084 0.89834 0.0
C566 C 0.8347 0.90632 0.86094 0.0
C567 C 0.86321 0.87763 0.82451 0.0
C568 C 0.91546 0.90499 0.8253 0.0
C569 C 0.93903 0.95918 0.86081 0.0
C570 C 0.99403 0.98109 0.85274 0.0
C571 C 0.98943 0.03482 0.84571 0.0
C572 C 0.04258 0.99382 0.89245 0.0
C573 C 0.99949 0.92962 0.80838 0.0
C574 C 0.95339 0.88643 0.79244 0.0
C575 C 0.94969 0.83457 0.75204 0.0
C576 C 0.99438 0.82657 0.72786 0.0
C577 C 0.04211 0.87014 0.74415 0.0
C578 C 0.04463 0.92193 0.7851 0.0
H579 H 0.24599 0.79504 0.36182 0.0
H580 H 0.35423 0.95906 0.4512 0.0
H581 H 0.33207 0.95174 0.52015 0.0
H582 H 0.13954 0.81995 0.4317 0.0
H583 H 0.12369 0.74526 0.41874 0.0
H584 H 0.15 0.76368 0.37757 0.0
H585 H 0.23076 0.7059 0.37765 0.0
H586 H 0.20519 0.68843 0.41962 0.0
H587 H 0.27634 0.72389 0.43161 0.0
H588 H 0.29787 0.92459 0.57994 0.0
H589 H 0.24476 0.88856 0.62336 0.0
H590 H 0.15771 0.74344 0.49439 0.0
C591 C 0.2652 0.82938 0.39592 0.0
C592 C 0.3023 0.87747 0.40108 0.0
C593 C 0.32563 0.92194 0.44635 0.0
C594 C 0.31364 0.91783 0.4857 0.0
C595 C 0.27775 0.86919 0.47933 0.0
C596 C 0.25312 0.82629 0.43544 0.0
C597 C 0.21342 0.78014 0.43767 0.0
C598 C 0.1531 0.77711 0.41509 0.0
C599 C 0.2326 0.7211 0.4153 0.0
C600 C 0.21959 0.80339 0.48964 0.0
C601 C 0.25731 0.85447 0.51324 0.0
C602 C 0.26831 0.8846 0.56161 0.0
C603 C 0.23817 0.86347 0.5862 0.0
C604 C 0.19704 0.81291 0.56251 0.0
C605 C 0.18934 0.78177 0.51364 0.0
H606 H 0.2493 0.35579 0.90787 0.0
H607 H 0.41138 0.31199 0.87814 0.0
H608 H 0.42042 0.27709 0.93673 0.0
H609 H 0.28594 0.41194 0.02785 0.0
H610 H 0.22006 0.38462 0.03585 0.0
H611 H 0.22246 0.39881 0.98736 0.0
H612 H 0.17522 0.29322 0.93059 0.0
H613 H 0.172 0.27922 0.97922 0.0
H614 H 0.20562 0.23446 0.93331 0.0
H615 H 0.41547 0.25385 1.00266 0.0
H616 H 0.39875 0.24797 0.073 0.0
H617 H 0.24081 0.30877 0.06201 0.0
C618 C 0.28609 0.33768 0.91305 0.0
C619 C 0.32967 0.33658 0.88837 0.0
C620 C 0.37765 0.31357 0.8968 0.0
C621 C 0.383 0.29331 0.92983 0.0
C622 C 0.34002 0.29627 0.95439 0.0
C623 C 0.29239 0.3178 0.94641 0.0
C624 C 0.25447 0.32036 0.98014 0.0
C625 C 0.24522 0.38264 1.00954 0.0
C626 C 0.19851 0.27938 0.95427 0.0
C627 C 0.28914 0.29893 1.00934 0.0
C628 C 0.33777 0.28412 0.99324 0.0
C629 C 0.37725 0.26481 1.01529 0.0
C630 C 0.36727 0.26137 0.0552 0.0
C631 C 0.3185 0.27783 0.07325 0.0
C632 C 0.27868 0.29612 0.04937 0.0
H633 H 0.94447 0.20647 0.16366 0.0
H634 H 0.80998 0.06593 0.12696 0.0
H635 H 0.80655 0.10013 0.20896 0.0
H636 H 0.01849 0.2132 0.25502 0.0
H637 H 0.03355 0.29009 0.29083 0.0
H638 H 0.01622 0.26114 0.22917 0.0
H639 H 0.93595 0.32216 0.23962 0.0
H640 H 0.95352 0.34944 0.30154 0.0
H641 H 0.88327 0.31423 0.27088 0.0
H642 H 0.84084 0.12886 0.29227 0.0
H643 H 0.89558 0.16243 0.37036 0.0
H644 H 0.99209 0.29993 0.3572 0.0
C645 C 0.91071 0.18627 0.17242 0.0
C646 C 0.87533 0.13534 0.13823 0.0
C647 C 0.83545 0.10665 0.15194 0.0
C648 C 0.83368 0.12545 0.19879 0.0
C649 C 0.87067 0.1745 0.23175 0.0
C650 C 0.90651 0.2064 0.21912 0.0
C651 C 0.94437 0.25542 0.26157 0.0
C652 C 0.00677 0.25475 0.25883 0.0
C653 C 0.9283 0.31377 0.26884 0.0
C654 C 0.92951 0.24099 0.299 0.0
C655 C 0.88647 0.19462 0.28129 0.0
C656 C 0.87271 0.16703 0.30723 0.0
C657 C 0.90428 0.18664 0.35195 0.0
C658 C 0.949 0.23401 0.37081 0.0
C659 C 0.95935 0.2629 0.34427 0.0
loop_
_geom_bond_atom_site_label_1
_geom_bond_atom_site_label_2
_geom_bond_distance
_geom_bond_site_symmetry_2
_ccdc_geom_bond_type
Tb0 N31 2.660 . S
Tb0 N38 2.600 . S
Tb0 O44 2.546 . S
Tb0 O45 2.610 1_545 S
Tb0 O47 2.320 . S
Tb0 O48 2.552 . S
Tb0 O49 2.413 . S
Tb0 O51 2.362 . S
Tb0 O52 2.421 . S
Tb0 C64 2.833 . S
C1 C4 1.432 . S
C1 C5 1.414 . S
C1 N8 1.359 . S
C2 C4 1.417 . S
C2 C6 1.432 . S
C2 C14 1.410 . S
C3 C5 1.444 . S
C3 C6 1.317 . S
C3 H26 0.929 . S
C4 C1 1.432 . S
C4 C2 1.417 . S
C4 N12 1.360 . S
C5 C1 1.414 . S
C5 C3 1.444 . S
C5 C10 1.385 . S
C6 C2 1.432 . S
C6 C3 1.317 . S
C6 H18 0.930 1_554 S
C7 C9 1.392 . S
C7 C10 1.370 . S
C7 H19 0.931 . S
N8 C1 1.359 . S
N8 C9 1.327 . S
N8 Tb11 2.600 . S
C9 C7 1.392 . S
C9 N8 1.327 . S
C9 H16 0.930 . S
C10 C5 1.385 . S
C10 C7 1.370 . S
C10 H29 0.930 . S
Tb11 N8 2.600 . S
Tb11 N12 2.660 . S
Tb11 O45 2.362 . S
Tb11 O46 2.421 . S
Tb11 O50 2.546 . S
Tb11 O51 2.610 1_565 S
Tb11 O53 2.320 . S
Tb11 O54 2.552 1_565 S
Tb11 O55 2.413 . S
Tb11 C75 2.833 . S
N12 C4 1.360 . S
N12 Tb11 2.660 . S
N12 C13 1.305 . S
C13 N12 1.305 . S
C13 C15 1.407 . S
C13 H20 0.930 . S
C14 C2 1.410 . S
C14 C15 1.345 . S
C14 H22 0.930 1_554 S
C15 C13 1.407 . S
C15 C14 1.345 . S
C15 H17 0.930 . S
H16 C9 0.930 . S
H17 C15 0.930 . S
H18 C6 0.930 1_556 S
H19 C7 0.931 . S
H20 C13 0.930 . S
H21 C35 0.930 . S
H22 C14 0.930 1_556 S
H23 C41 0.930 . S
H24 C32 0.930 . S
H25 C39 0.931 . S
H26 C3 0.929 . S
H27 C33 0.930 . S
H28 C66 0.930 . S
H29 C10 0.930 . S
H30 C65 0.929 . S
N31 Tb0 2.660 . S
N31 C32 1.305 . S
N31 C36 1.360 . S
C32 H24 0.930 . S
C32 N31 1.305 . S
C32 C35 1.407 . S
C33 H27 0.930 . S
C33 C34 1.410 . S
C33 C35 1.345 . S
C34 C33 1.410 . S
C34 C36 1.417 . S
C34 C66 1.432 . S
C35 H21 0.930 . S
C35 C32 1.407 . S
C35 C33 1.345 . S
C36 N31 1.360 . S
C36 C34 1.417 . S
C36 C40 1.432 . S
H37 C42 0.930 . S
N38 Tb0 2.600 . S
N38 C40 1.359 . S
N38 C41 1.327 . S
C39 H25 0.931 . S
C39 C41 1.392 . S
C39 C42 1.370 . S
C40 C36 1.432 . S
C40 N38 1.359 . S
C40 C43 1.414 . S
C41 H23 0.930 . S
C41 N38 1.327 . S
C41 C39 1.392 . S
C42 H37 0.930 . S
C42 C39 1.370 . S
C42 C43 1.385 . S
C43 C40 1.414 . S
C43 C42 1.385 . S
C43 C65 1.444 . S
O44 Tb0 2.546 . S
O44 C64 1.251 . S
O45 Tb0 2.610 1_565 S
O45 Tb11 2.362 . S
O45 C56 1.283 . S
O46 Tb11 2.421 . S
O46 C63 1.262 1_565 S
O47 Tb0 2.320 . S
O47 C63 1.260 . S
O48 Tb0 2.552 . S
O48 C56 1.243 1_545 S
O49 Tb0 2.413 . S
O49 C64 1.256 . S
O50 Tb11 2.546 . S
O50 C75 1.251 . S
O51 Tb0 2.362 . S
O51 Tb11 2.610 1_545 S
O51 C67 1.283 . S
O52 Tb0 2.421 . S
O52 C74 1.262 . S
O53 Tb11 2.320 . S
O53 C74 1.260 1_565 S
O54 Tb11 2.552 1_545 S
O54 C67 1.243 . S
O55 Tb11 2.413 . S
O55 C75 1.256 . S
C56 O45 1.283 . S
C56 O48 1.243 1_565 S
C57 C59 1.382 . S
C57 C61 1.393 . S
C57 C64 1.500 . S
C58 C59 1.400 . S
C58 C60 1.384 . S
C59 C57 1.382 . S
C59 C58 1.400 . S
C59 H76 0.930 . S
C60 C58 1.384 . S
C60 C62 1.392 . S
C60 H77 0.931 . S
C61 C57 1.393 . S
C61 C62 1.401 . S
C61 H78 0.930 . S
C62 C60 1.392 . S
C62 C61 1.401 . S
C62 H79 0.930 . S
C63 O46 1.262 1_545 S
C63 O47 1.260 . S
C64 Tb0 2.833 . S
C64 O44 1.251 . S
C64 O49 1.256 . S
C64 C57 1.500 . S
C65 H30 0.929 . S
C65 C43 1.444 . S
C65 C66 1.317 . S
C66 H28 0.930 . S
C66 C34 1.432 . S
C66 C65 1.317 . S
C67 O51 1.283 . S
C67 O54 1.243 . S
C68 C69 1.382 . S
C68 C72 1.393 . S
C68 C75 1.500 . S
C69 C68 1.382 . S
C69 C70 1.400 . S
C69 H80 0.930 . S
C70 C69 1.400 . S
C70 C71 1.384 . S
C71 C70 1.384 . S
C71 C73 1.392 . S
C71 H81 0.931 . S
C72 C68 1.393 . S
C72 C73 1.401 . S
C72 H82 0.930 . S
C73 C71 1.392 . S
C73 C72 1.401 . S
C73 H83 0.930 . S
C74 O52 1.262 . S
C74 O53 1.260 1_545 S
C75 Tb11 2.833 . S
C75 O50 1.251 . S
C75 O55 1.256 . S
C75 C68 1.500 . S
H76 C59 0.930 . S
H77 C60 0.931 . S
H78 C61 0.930 . S
H79 C62 0.930 . S
H80 C69 0.930 . S
H81 C71 0.931 . S
H82 C72 0.930 . S
H83 C73 0.930 . S
Tb84 N115 2.660 . S
Tb84 N122 2.600 . S
Tb84 O128 2.546 . S
Tb84 O129 2.610 . S
Tb84 O131 2.320 . S
Tb84 O132 2.552 . S
Tb84 O133 2.413 . S
Tb84 O135 2.362 . S
Tb84 O136 2.421 . S
Tb84 C148 2.833 . S
C85 C88 1.432 . S
C85 C89 1.414 . S
C85 N92 1.359 . S
C86 C88 1.417 . S
C86 C90 1.432 . S
C86 C98 1.410 . S
C87 C89 1.444 . S
C87 C90 1.317 . S
C87 H110 0.929 . S
C88 C85 1.432 . S
C88 C86 1.417 . S
C88 N96 1.360 . S
C89 C85 1.414 . S
C89 C87 1.444 . S
C89 C94 1.385 . S
C90 C86 1.432 . S
C90 C87 1.317 . S
C90 H102 0.930 . S
C91 C93 1.392 . S
C91 C94 1.370 . S
C91 H103 0.931 . S
N92 C85 1.359 . S
N92 C93 1.327 . S
N92 Tb95 2.600 . S
C93 C91 1.392 . S
C93 N92 1.327 . S
C93 H100 0.930 . S
C94 C89 1.385 . S
C94 C91 1.370 . S
C94 H113 0.930 . S
Tb95 N92 2.600 . S
Tb95 N96 2.660 . S
Tb95 O129 2.362 . S
Tb95 O130 2.421 . S
Tb95 O134 2.546 . S
Tb95 O135 2.610 . S
Tb95 O137 2.320 . S
Tb95 O138 2.552 . S
Tb95 O139 2.413 . S
Tb95 C159 2.833 . S
N96 C88 1.360 . S
N96 Tb95 2.660 . S
N96 C97 1.305 . S
C97 N96 1.305 . S
C97 C99 1.407 . S
C97 H104 0.930 . S
C98 C86 1.410 . S
C98 C99 1.345 . S
C98 H106 0.930 . S
C99 C97 1.407 . S
C99 C98 1.345 . S
C99 H101 0.930 . S
H100 C93 0.930 . S
H101 C99 0.930 . S
H102 C90 0.930 . S
H103 C91 0.931 . S
H104 C97 0.930 . S
H105 C119 0.930 . S
H106 C98 0.930 . S
H107 C125 0.930 . S
H108 C116 0.930 . S
H109 C123 0.931 . S
H110 C87 0.929 . S
H111 C117 0.930 . S
H112 C150 0.930 . S
H113 C94 0.930 . S
H114 C149 0.929 . S
N115 Tb84 2.660 . S
N115 C116 1.305 . S
N115 C120 1.360 1_455 S
C116 H108 0.930 . S
C116 N115 1.305 . S
C116 C119 1.407 . S
C117 H111 0.930 . S
C117 C118 1.410 . S
C117 C119 1.345 1_655 S
C118 C117 1.410 . S
C118 C120 1.417 . S
C118 C150 1.432 . S
C119 H105 0.930 . S
C119 C116 1.407 . S
C119 C117 1.345 1_455 S
C120 N115 1.360 1_655 S
C120 C118 1.417 . S
C120 C124 1.432 . S
H121 C126 0.930 . S
N122 Tb84 2.600 . S
N122 C124 1.359 1_455 S
N122 C125 1.327 . S
C123 H109 0.931 . S
C123 C125 1.392 1_655 S
C123 C126 1.370 . S
C124 C120 1.432 . S
C124 N122 1.359 1_655 S
C124 C127 1.414 . S
C125 H107 0.930 . S
C125 N122 1.327 . S
C125 C123 1.392 1_455 S
C126 H121 0.930 . S
C126 C123 1.370 . S
C126 C127 1.385 . S
C127 C124 1.414 . S
C127 C126 1.385 . S
C127 C149 1.444 . S
O128 Tb84 2.546 . S
O128 C148 1.251 . S
O129 Tb84 2.610 . S
O129 Tb95 2.362 . S
O129 C140 1.283 . S
O130 Tb95 2.421 . S
O130 C147 1.262 . S
O131 Tb84 2.320 . S
O131 C147 1.260 . S
O132 Tb84 2.552 . S
O132 C140 1.243 . S
O133 Tb84 2.413 . S
O133 C148 1.256 . S
O134 Tb95 2.546 . S
O134 C159 1.251 . S
O135 Tb84 2.362 . S
O135 Tb95 2.610 . S
O135 C151 1.283 . S
O136 Tb84 2.421 . S
O136 C158 1.262 . S
O137 Tb95 2.320 . S
O137 C158 1.260 . S
O138 Tb95 2.552 . S
O138 C151 1.243 . S
O139 Tb95 2.413 . S
O139 C159 1.256 . S
C140 O129 1.283 . S
C140 O132 1.243 . S
C141 C143 1.382 . S
C141 C145 1.393 1_455 S
C141 C148 1.500 . S
C142 C143 1.400 . S
C142 C144 1.384 1_455 S
C143 C141 1.382 . S
C143 C142 1.400 . S
C143 H160 0.930 . S
C144 C142 1.384 1_655 S
C144 C146 1.392 . S
C144 H161 0.931 . S
C145 C141 1.393 1_655 S
C145 C146 1.401 . S
C145 H162 0.930 . S
C146 C144 1.392 . S
C146 C145 1.401 . S
C146 H163 0.930 . S
C147 O130 1.262 . S
C147 O131 1.260 . S
C148 Tb84 2.833 . S
C148 O128 1.251 . S
C148 O133 1.256 . S
C148 C141 1.500 . S
C149 H114 0.929 . S
C149 C127 1.444 . S
C149 C150 1.317 . S
C150 H112 0.930 . S
C150 C118 1.432 . S
C150 C149 1.317 . S
C151 O135 1.283 . S
C151 O138 1.243 . S
C152 C153 1.382 . S
C152 C156 1.393 . S
C152 C159 1.500 . S
C153 C152 1.382 . S
C153 C154 1.400 . S
C153 H164 0.930 . S
C154 C153 1.400 . S
C154 C155 1.384 . S
C155 C154 1.384 . S
C155 C157 1.392 . S
C155 H165 0.931 . S
C156 C152 1.393 . S
C156 C157 1.401 . S
C156 H166 0.930 . S
C157 C155 1.392 . S
C157 C156 1.401 . S
C157 H167 0.930 . S
C158 O136 1.262 . S
C158 O137 1.260 . S
C159 Tb95 2.833 . S
C159 O134 1.251 . S
C159 O139 1.256 . S
C159 C152 1.500 . S
H160 C143 0.930 . S
H161 C144 0.931 . S
H162 C145 0.930 . S
H163 C146 0.930 . S
H164 C153 0.930 . S
H165 C155 0.931 . S
H166 C156 0.930 . S
H167 C157 0.930 . S
Tb168 N199 2.660 . S
Tb168 N206 2.600 . S
Tb168 O212 2.546 . S
Tb168 O213 2.610 . S
Tb168 O215 2.320 . S
Tb168 O216 2.552 1_554 S
Tb168 O217 2.413 . S
Tb168 O219 2.362 . S
Tb168 O220 2.421 . S
Tb168 C232 2.833 . S
C169 C172 1.432 . S
C169 C173 1.414 . S
C169 N176 1.359 1_556 S
C170 C172 1.417 . S
C170 C174 1.432 . S
C170 C182 1.410 . S
C171 C173 1.444 . S
C171 C174 1.317 . S
C171 H194 0.929 . S
C172 C169 1.432 . S
C172 C170 1.417 . S
C172 N180 1.360 1_556 S
C173 C169 1.414 . S
C173 C171 1.444 . S
C173 C178 1.385 . S
C174 C170 1.432 . S
C174 C171 1.317 . S
C174 H186 0.930 . S
C175 C177 1.392 1_455 S
C175 C178 1.370 1_454 S
C175 H187 0.931 . S
N176 C169 1.359 1_554 S
N176 C177 1.327 . S
N176 Tb179 2.600 1_565 S
C177 C175 1.392 1_655 S
C177 N176 1.327 . S
C177 H184 0.930 1_655 S
C178 C173 1.385 . S
C178 C175 1.370 1_656 S
C178 H197 0.930 . S
Tb179 N176 2.600 1_545 S
Tb179 N180 2.660 1_545 S
Tb179 O213 2.362 . S
Tb179 O214 2.421 . S
Tb179 O218 2.546 1_545 S
Tb179 O219 2.610 . S
Tb179 O221 2.320 . S
Tb179 O222 2.552 . S
Tb179 O223 2.413 1_545 S
Tb179 C243 2.833 1_545 S
N180 C172 1.360 1_554 S
N180 Tb179 2.660 1_565 S
N180 C181 1.305 1_554 S
C181 N180 1.305 1_556 S
C181 C183 1.407 . S
C181 H188 0.930 1_556 S
C182 C170 1.410 . S
C182 C183 1.345 . S
C182 H190 0.930 . S
C183 C181 1.407 . S
C183 C182 1.345 . S
C183 H185 0.930 . S
H184 C177 0.930 1_455 S
H185 C183 0.930 . S
H186 C174 0.930 . S
H187 C175 0.931 . S
H188 C181 0.930 1_554 S
H189 C203 0.930 . S
H190 C182 0.930 . S
H191 C209 0.930 . S
H192 C200 0.930 1_455 S
H193 C207 0.931 . S
H194 C171 0.929 . S
H195 C201 0.930 . S
H196 C234 0.930 . S
H197 C178 0.930 . S
H198 C233 0.929 . S
N199 Tb168 2.660 . S
N199 C200 1.305 . S
N199 C204 1.360 . S
C200 H192 0.930 1_655 S
C200 N199 1.305 . S
C200 C203 1.407 1_655 S
C201 H195 0.930 . S
C201 C202 1.410 1_455 S
C201 C203 1.345 . S
C202 C201 1.410 1_655 S
C202 C204 1.417 . S
C202 C234 1.432 . S
C203 H189 0.930 . S
C203 C200 1.407 1_455 S
C203 C201 1.345 . S
C204 N199 1.360 . S
C204 C202 1.417 . S
C204 C208 1.432 . S
H205 C210 0.930 . S
N206 Tb168 2.600 . S
N206 C208 1.359 . S
N206 C209 1.327 . S
C207 H193 0.931 . S
C207 C209 1.392 . S
C207 C210 1.370 . S
C208 C204 1.432 . S
C208 N206 1.359 . S
C208 C211 1.414 . S
C209 H191 0.930 . S
C209 N206 1.327 . S
C209 C207 1.392 . S
C210 H205 0.930 . S
C210 C207 1.370 . S
C210 C211 1.385 . S
C211 C208 1.414 . S
C211 C210 1.385 . S
C211 C233 1.444 . S
O212 Tb168 2.546 . S
O212 C232 1.251 . S
O213 Tb168 2.610 . S
O213 Tb179 2.362 . S
O213 C224 1.283 1_554 S
O214 Tb179 2.421 . S
O214 C231 1.262 . S
O215 Tb168 2.320 . S
O215 C231 1.260 . S
O216 Tb168 2.552 1_556 S
O216 C224 1.243 . S
O217 Tb168 2.413 . S
O217 C232 1.256 . S
O218 Tb179 2.546 1_565 S
O218 C243 1.251 . S
O219 Tb168 2.362 . S
O219 Tb179 2.610 . S
O219 C235 1.283 . S
O220 Tb168 2.421 . S
O220 C242 1.262 . S
O221 Tb179 2.320 . S
O221 C242 1.260 . S
O222 Tb179 2.552 . S
O222 C235 1.243 . S
O223 Tb179 2.413 1_565 S
O223 C243 1.256 . S
C224 O213 1.283 1_556 S
C224 O216 1.243 . S
C225 C227 1.382 . S
C225 C229 1.393 . S
C225 C232 1.500 1_556 S
C226 C227 1.400 . S
C226 C228 1.384 . S
C227 C225 1.382 . S
C227 C226 1.400 . S
C227 H244 0.930 . S
C228 C226 1.384 . S
C228 C230 1.392 . S
C228 H245 0.931 . S
C229 C225 1.393 . S
C229 C230 1.401 . S
C229 H246 0.930 . S
C230 C228 1.392 . S
C230 C229 1.401 . S
C230 H247 0.930 . S
C231 O214 1.262 . S
C231 O215 1.260 . S
C232 Tb168 2.833 . S
C232 O212 1.251 . S
C232 O217 1.256 . S
C232 C225 1.500 1_554 S
C233 H198 0.929 . S
C233 C211 1.444 . S
C233 C234 1.317 . S
C234 H196 0.930 . S
C234 C202 1.432 . S
C234 C233 1.317 . S
C235 O219 1.283 . S
C235 O222 1.243 . S
C236 C237 1.382 . S
C236 C240 1.393 . S
C236 C243 1.500 . S
C237 C236 1.382 . S
C237 C238 1.400 . S
C237 H248 0.930 . S
C238 C237 1.400 . S
C238 C239 1.384 . S
C239 C238 1.384 . S
C239 C241 1.392 . S
C239 H249 0.931 . S
C240 C236 1.393 . S
C240 C241 1.401 . S
C240 H250 0.930 . S
C241 C239 1.392 . S
C241 C240 1.401 . S
C241 H251 0.930 . S
C242 O220 1.262 . S
C242 O221 1.260 . S
C243 Tb179 2.833 1_565 S
C243 O218 1.251 . S
C243 O223 1.256 . S
C243 C236 1.500 . S
H244 C227 0.930 . S
H245 C228 0.931 . S
H246 C229 0.930 . S
H247 C230 0.930 . S
H248 C237 0.930 . S
H249 C239 0.931 . S
H250 C240 0.930 . S
H251 C241 0.930 . S
Tb252 N283 2.660 . S
Tb252 N290 2.600 . S
Tb252 O296 2.546 . S
Tb252 O297 2.610 1_655 S
Tb252 O299 2.320 . S
Tb252 O300 2.552 1_655 S
Tb252 O301 2.413 . S
Tb252 O303 2.362 . S
Tb252 O304 2.421 . S
Tb252 C316 2.833 . S
C253 C256 1.432 . S
C253 C257 1.414 . S
C253 N260 1.359 . S
C254 C256 1.417 . S
C254 C258 1.432 . S
C254 C266 1.410 . S
C255 C257 1.444 . S
C255 C258 1.317 . S
C255 H278 0.929 . S
C256 C253 1.432 . S
C256 C254 1.417 . S
C256 N264 1.360 . S
C257 C253 1.414 . S
C257 C255 1.444 . S
C257 C262 1.385 . S
C258 C254 1.432 . S
C258 C255 1.317 . S
C258 H270 0.930 . S
C259 C261 1.392 1_545 S
C259 C262 1.370 1_545 S
C259 H271 0.931 . S
N260 C253 1.359 . S
N260 C261 1.327 . S
N260 Tb263 2.600 . S
C261 C259 1.392 1_565 S
C261 N260 1.327 . S
C261 H268 0.930 . S
C262 C257 1.385 . S
C262 C259 1.370 1_565 S
C262 H281 0.930 1_565 S
Tb263 N260 2.600 . S
Tb263 N264 2.660 . S
Tb263 O297 2.362 . S
Tb263 O298 2.421 . S
Tb263 O302 2.546 . S
Tb263 O303 2.610 1_455 S
Tb263 O305 2.320 . S
Tb263 O306 2.552 . S
Tb263 O307 2.413 . S
Tb263 C327 2.833 . S
N264 C256 1.360 . S
N264 Tb263 2.660 . S
N264 C265 1.305 . S
C265 N264 1.305 . S
C265 C267 1.407 . S
C265 H272 0.930 . S
C266 C254 1.410 . S
C266 C267 1.345 . S
C266 H274 0.930 . S
C267 C265 1.407 . S
C267 C266 1.345 . S
C267 H269 0.930 . S
H268 C261 0.930 . S
H269 C267 0.930 . S
H270 C258 0.930 . S
H271 C259 0.931 . S
H272 C265 0.930 . S
H273 C287 0.930 . S
H274 C266 0.930 . S
H275 C293 0.930 . S
H276 C284 0.930 . S
H277 C291 0.931 . S
H278 C255 0.929 . S
H279 C285 0.930 . S
H280 C318 0.930 . S
H281 C262 0.930 1_545 S
H282 C317 0.929 . S
N283 Tb252 2.660 . S
N283 C284 1.305 . S
N283 C288 1.360 . S
C284 H276 0.930 . S
C284 N283 1.305 . S
C284 C287 1.407 . S
C285 H279 0.930 . S
C285 C286 1.410 . S
C285 C287 1.345 . S
C286 C285 1.410 . S
C286 C288 1.417 . S
C286 C318 1.432 . S
C287 H273 0.930 . S
C287 C284 1.407 . S
C287 C285 1.345 . S
C288 N283 1.360 . S
C288 C286 1.417 . S
C288 C292 1.432 . S
H289 C294 0.930 . S
N290 Tb252 2.600 . S
N290 C292 1.359 . S
N290 C293 1.327 . S
C291 H277 0.931 . S
C291 C293 1.392 . S
C291 C294 1.370 . S
C292 C288 1.432 . S
C292 N290 1.359 . S
C292 C295 1.414 . S
C293 H275 0.930 . S
C293 N290 1.327 . S
C293 C291 1.392 . S
C294 H289 0.930 . S
C294 C291 1.370 . S
C294 C295 1.385 . S
C295 C292 1.414 . S
C295 C294 1.385 . S
C295 C317 1.444 . S
O296 Tb252 2.546 . S
O296 C316 1.251 . S
O297 Tb252 2.610 1_455 S
O297 Tb263 2.362 . S
O297 C308 1.283 . S
O298 Tb263 2.421 . S
O298 C315 1.262 . S
O299 Tb252 2.320 . S
O299 C315 1.260 1_655 S
O300 Tb252 2.552 1_455 S
O300 C308 1.243 . S
O301 Tb252 2.413 . S
O301 C316 1.256 . S
O302 Tb263 2.546 . S
O302 C327 1.251 . S
O303 Tb252 2.362 . S
O303 Tb263 2.610 1_655 S
O303 C319 1.283 . S
O304 Tb252 2.421 . S
O304 C326 1.262 1_655 S
O305 Tb263 2.320 . S
O305 C326 1.260 . S
O306 Tb263 2.552 . S
O306 C319 1.243 1_455 S
O307 Tb263 2.413 . S
O307 C327 1.256 . S
C308 O297 1.283 . S
C308 O300 1.243 . S
C309 C311 1.382 . S
C309 C313 1.393 . S
C309 C316 1.500 . S
C310 C311 1.400 . S
C310 C312 1.384 . S
C311 C309 1.382 . S
C311 C310 1.400 . S
C311 H328 0.930 . S
C312 C310 1.384 . S
C312 C314 1.392 . S
C312 H329 0.931 . S
C313 C309 1.393 . S
C313 C314 1.401 . S
C313 H330 0.930 . S
C314 C312 1.392 . S
C314 C313 1.401 . S
C314 H331 0.930 . S
C315 O298 1.262 . S
C315 O299 1.260 1_455 S
C316 Tb252 2.833 . S
C316 O296 1.251 . S
C316 O301 1.256 . S
C316 C309 1.500 . S
C317 H282 0.929 . S
C317 C295 1.444 . S
C317 C318 1.317 . S
C318 H280 0.930 . S
C318 C286 1.432 . S
C318 C317 1.317 . S
C319 O303 1.283 . S
C319 O306 1.243 1_655 S
C320 C321 1.382 . S
C320 C324 1.393 . S
C320 C327 1.500 . S
C321 C320 1.382 . S
C321 C322 1.400 . S
C321 H332 0.930 . S
C322 C321 1.400 . S
C322 C323 1.384 . S
C323 C322 1.384 . S
C323 C325 1.392 . S
C323 H333 0.931 . S
C324 C320 1.393 . S
C324 C325 1.401 . S
C324 H334 0.930 . S
C325 C323 1.392 . S
C325 C324 1.401 . S
C325 H335 0.930 . S
C326 O304 1.262 1_455 S
C326 O305 1.260 . S
C327 Tb263 2.833 . S
C327 O302 1.251 . S
C327 O307 1.256 . S
C327 C320 1.500 . S
H328 C311 0.930 . S
H329 C312 0.931 . S
H330 C313 0.930 . S
H331 C314 0.930 . S
H332 C321 0.930 . S
H333 C323 0.931 . S
H334 C324 0.930 . S
H335 C325 0.930 . S
H336 C348 0.930 . S
H337 C350 0.930 1_656 S
H338 C351 0.930 1_565 S
H339 C355 0.959 . S
H340 C355 0.959 . S
H341 C355 0.961 . S
H342 C356 0.960 . S
H343 C356 0.961 . S
H344 C356 0.959 . S
H345 C359 0.929 . S
H346 C360 0.931 . S
H347 C362 0.930 . S
C348 H336 0.930 . S
C348 C349 1.399 . S
C348 C353 1.399 . S
C349 C348 1.399 . S
C349 C350 1.376 . S
C350 H337 0.930 1_454 S
C350 C349 1.376 . S
C350 C351 1.388 . S
C351 H338 0.930 1_545 S
C351 C350 1.388 . S
C351 C352 1.390 . S
C352 C351 1.390 . S
C352 C353 1.394 . S
C352 C358 1.465 . S
C353 C348 1.399 . S
C353 C352 1.394 . S
C353 C354 1.516 . S
C354 C353 1.516 . S
C354 C355 1.502 . S
C354 C356 1.561 . S
C354 C357 1.526 . S
C355 H339 0.959 . S
C355 H340 0.959 . S
C355 H341 0.961 . S
C355 C354 1.502 . S
C356 H342 0.960 . S
C356 H343 0.961 . S
C356 H344 0.959 . S
C356 C354 1.561 . S
C357 C354 1.526 . S
C357 C358 1.396 . S
C357 C362 1.390 . S
C358 C352 1.465 . S
C358 C357 1.396 . S
C358 C359 1.399 1_545 S
C359 H345 0.929 . S
C359 C358 1.399 1_565 S
C359 C360 1.385 . S
C360 H346 0.931 . S
C360 C359 1.385 . S
C360 C361 1.389 1_565 S
C361 C360 1.389 1_545 S
C361 C362 1.387 . S
C362 H347 0.930 . S
C362 C357 1.390 . S
C362 C361 1.387 . S
H363 C375 0.930 1_655 S
H364 C377 0.930 . S
H365 C378 0.930 . S
H366 C382 0.959 . S
H367 C382 0.959 . S
H368 C382 0.961 1_655 S
H369 C383 0.960 1_655 S
H370 C383 0.961 . S
H371 C383 0.959 . S
H372 C386 0.929 . S
H373 C387 0.931 . S
H374 C389 0.930 . S
C375 H363 0.930 1_455 S
C375 C376 1.399 . S
C375 C380 1.399 1_565 S
C376 C375 1.399 . S
C376 C377 1.376 . S
C377 H364 0.930 . S
C377 C376 1.376 . S
C377 C378 1.388 . S
C378 H365 0.930 . S
C378 C377 1.388 . S
C378 C379 1.390 1_565 S
C379 C378 1.390 1_545 S
C379 C380 1.394 . S
C379 C385 1.465 . S
C380 C375 1.399 1_545 S
C380 C379 1.394 . S
C380 C381 1.516 . S
C381 C380 1.516 . S
C381 C382 1.502 . S
C381 C383 1.561 . S
C381 C384 1.526 . S
C382 H366 0.959 . S
C382 H367 0.959 . S
C382 H368 0.961 1_455 S
C382 C381 1.502 . S
C383 H369 0.960 1_455 S
C383 H370 0.961 . S
C383 H371 0.959 . S
C383 C381 1.561 . S
C384 C381 1.526 . S
C384 C385 1.396 . S
C384 C389 1.390 . S
C385 C379 1.465 . S
C385 C384 1.396 . S
C385 C386 1.399 . S
C386 H372 0.929 . S
C386 C385 1.399 . S
C386 C387 1.385 . S
C387 H373 0.931 . S
C387 C386 1.385 . S
C387 C388 1.389 . S
C388 C387 1.389 . S
C388 C389 1.387 . S
C389 H374 0.930 . S
C389 C384 1.390 . S
C389 C388 1.387 . S
H390 C402 0.930 . S
H391 C404 0.930 . S
H392 C405 0.930 . S
H393 C409 0.959 . S
H394 C409 0.959 . S
H395 C409 0.961 . S
H396 C410 0.960 . S
H397 C410 0.961 . S
H398 C410 0.959 . S
H399 C413 0.929 . S
H400 C414 0.931 . S
H401 C416 0.930 1_565 S
C402 H390 0.930 . S
C402 C403 1.399 . S
C402 C407 1.399 . S
C403 C402 1.399 . S
C403 C404 1.376 . S
C404 H391 0.930 . S
C404 C403 1.376 . S
C404 C405 1.388 . S
C405 H392 0.930 . S
C405 C404 1.388 . S
C405 C406 1.390 . S
C406 C405 1.390 . S
C406 C407 1.394 . S
C406 C412 1.465 . S
C407 C402 1.399 . S
C407 C406 1.394 . S
C407 C408 1.516 . S
C408 C407 1.516 . S
C408 C409 1.502 . S
C408 C410 1.561 1_545 S
C408 C411 1.526 . S
C409 H393 0.959 . S
C409 H394 0.959 . S
C409 H395 0.961 . S
C409 C408 1.502 . S
C410 H396 0.960 . S
C410 H397 0.961 . S
C410 H398 0.959 . S
C410 C408 1.561 1_565 S
C411 C408 1.526 . S
C411 C412 1.396 . S
C411 C416 1.390 . S
C412 C406 1.465 . S
C412 C411 1.396 . S
C412 C413 1.399 . S
C413 H399 0.929 . S
C413 C412 1.399 . S
C413 C414 1.385 . S
C414 H400 0.931 . S
C414 C413 1.385 . S
C414 C415 1.389 . S
C415 C414 1.389 . S
C415 C416 1.387 . S
C416 H401 0.930 1_545 S
C416 C411 1.390 . S
C416 C415 1.387 . S
H417 C429 0.930 . S
H418 C431 0.930 . S
H419 C432 0.930 . S
H420 C436 0.959 . S
H421 C436 0.959 . S
H422 C436 0.961 . S
H423 C437 0.960 . S
H424 C437 0.961 . S
H425 C437 0.959 . S
H426 C440 0.929 . S
H427 C441 0.931 . S
H428 C443 0.930 . S
C429 H417 0.930 . S
C429 C430 1.399 . S
C429 C434 1.399 . S
C430 C429 1.399 . S
C430 C431 1.376 . S
C431 H418 0.930 . S
C431 C430 1.376 . S
C431 C432 1.388 . S
C432 H419 0.930 . S
C432 C431 1.388 . S
C432 C433 1.390 . S
C433 C432 1.390 . S
C433 C434 1.394 . S
C433 C439 1.465 . S
C434 C429 1.399 . S
C434 C433 1.394 . S
C434 C435 1.516 . S
C435 C434 1.516 . S
C435 C436 1.502 . S
C435 C437 1.561 . S
C435 C438 1.526 . S
C436 H420 0.959 . S
C436 H421 0.959 . S
C436 H422 0.961 . S
C436 C435 1.502 . S
C437 H423 0.960 . S
C437 H424 0.961 . S
C437 H425 0.959 . S
C437 C435 1.561 . S
C438 C435 1.526 . S
C438 C439 1.396 . S
C438 C443 1.390 . S
C439 C433 1.465 . S
C439 C438 1.396 . S
C439 C440 1.399 . S
C440 H426 0.929 . S
C440 C439 1.399 . S
C440 C441 1.385 . S
C441 H427 0.931 . S
C441 C440 1.385 . S
C441 C442 1.389 . S
C442 C441 1.389 . S
C442 C443 1.387 . S
C443 H428 0.930 . S
C443 C438 1.390 . S
C443 C442 1.387 . S
H444 C456 0.930 . S
H445 C458 0.930 . S
H446 C459 0.930 . S
H447 C463 0.959 . S
H448 C463 0.959 . S
H449 C463 0.961 . S
H450 C464 0.960 . S
H451 C464 0.961 . S
H452 C464 0.959 . S
H453 C467 0.929 . S
H454 C468 0.931 . S
H455 C470 0.930 . S
C456 H444 0.930 . S
C456 C457 1.399 . S
C456 C461 1.399 . S
C457 C456 1.399 . S
C457 C458 1.376 . S
C458 H445 0.930 . S
C458 C457 1.376 . S
C458 C459 1.388 . S
C459 H446 0.930 . S
C459 C458 1.388 . S
C459 C460 1.390 . S
C460 C459 1.390 . S
C460 C461 1.394 . S
C460 C466 1.465 . S
C461 C456 1.399 . S
C461 C460 1.394 . S
C461 C462 1.516 . S
C462 C461 1.516 . S
C462 C463 1.502 . S
C462 C464 1.561 . S
C462 C465 1.526 . S
C463 H447 0.959 . S
C463 H448 0.959 . S
C463 H449 0.961 . S
C463 C462 1.502 . S
C464 H450 0.960 . S
C464 H451 0.961 . S
C464 H452 0.959 . S
C464 C462 1.561 . S
C465 C462 1.526 . S
C465 C466 1.396 . S
C465 C470 1.390 . S
C466 C460 1.465 . S
C466 C465 1.396 . S
C466 C467 1.399 . S
C467 H453 0.929 . S
C467 C466 1.399 . S
C467 C468 1.385 . S
C468 H454 0.931 . S
C468 C467 1.385 . S
C468 C469 1.389 . S
C469 C468 1.389 . S
C469 C470 1.387 . S
C470 H455 0.930 . S
C470 C465 1.390 . S
C470 C469 1.387 . S
H471 C483 0.930 . S
H472 C485 0.930 . S
H473 C486 0.930 . S
H474 C490 0.959 . S
H475 C490 0.959 . S
H476 C490 0.961 . S
H477 C491 0.960 . S
H478 C491 0.961 . S
H479 C491 0.959 . S
H480 C494 0.929 . S
H481 C495 0.931 . S
H482 C497 0.930 . S
C483 H471 0.930 . S
C483 C484 1.399 . S
C483 C488 1.399 . S
C484 C483 1.399 . S
C484 C485 1.376 . S
C485 H472 0.930 . S
C485 C484 1.376 . S
C485 C486 1.388 . S
C486 H473 0.930 . S
C486 C485 1.388 . S
C486 C487 1.390 . S
C487 C486 1.390 . S
C487 C488 1.394 . S
C487 C493 1.465 . S
C488 C483 1.399 . S
C488 C487 1.394 . S
C488 C489 1.516 . S
C489 C488 1.516 . S
C489 C490 1.502 1_455 S
C489 C491 1.561 . S
C489 C492 1.526 . S
C490 H474 0.959 . S
C490 H475 0.959 . S
C490 H476 0.961 . S
C490 C489 1.502 1_655 S
C491 H477 0.960 . S
C491 H478 0.961 . S
C491 H479 0.959 . S
C491 C489 1.561 . S
C492 C489 1.526 . S
C492 C493 1.396 . S
C492 C497 1.390 1_455 S
C493 C487 1.465 . S
C493 C492 1.396 . S
C493 C494 1.399 . S
C494 H480 0.929 . S
C494 C493 1.399 . S
C494 C495 1.385 . S
C495 H481 0.931 . S
C495 C494 1.385 . S
C495 C496 1.389 1_455 S
C496 C495 1.389 1_655 S
C496 C497 1.387 . S
C497 H482 0.930 . S
C497 C492 1.390 1_655 S
C497 C496 1.387 . S
H498 C510 0.930 . S
H499 C512 0.930 . S
H500 C513 0.930 . S
H501 C517 0.959 . S
H502 C517 0.959 . S
H503 C517 0.961 . S
H504 C518 0.960 . S
H505 C518 0.961 . S
H506 C518 0.959 . S
H507 C521 0.929 . S
H508 C522 0.931 . S
H509 C524 0.930 . S
C510 H498 0.930 . S
C510 C511 1.399 . S
C510 C515 1.399 . S
C511 C510 1.399 . S
C511 C512 1.376 . S
C512 H499 0.930 . S
C512 C511 1.376 . S
C512 C513 1.388 . S
C513 H500 0.930 . S
C513 C512 1.388 . S
C513 C514 1.390 . S
C514 C513 1.390 . S
C514 C515 1.394 . S
C514 C520 1.465 . S
C515 C510 1.399 . S
C515 C514 1.394 . S
C515 C516 1.516 . S
C516 C515 1.516 . S
C516 C517 1.502 . S
C516 C518 1.561 . S
C516 C519 1.526 . S
C517 H501 0.959 . S
C517 H502 0.959 . S
C517 H503 0.961 . S
C517 C516 1.502 . S
C518 H504 0.960 . S
C518 H505 0.961 . S
C518 H506 0.959 . S
C518 C516 1.561 . S
C519 C516 1.526 . S
C519 C520 1.396 . S
C519 C524 1.390 . S
C520 C514 1.465 . S
C520 C519 1.396 . S
C520 C521 1.399 . S
C521 H507 0.929 . S
C521 C520 1.399 . S
C521 C522 1.385 . S
C522 H508 0.931 . S
C522 C521 1.385 . S
C522 C523 1.389 . S
C523 C522 1.389 . S
C523 C524 1.387 . S
C524 H509 0.930 . S
C524 C519 1.390 . S
C524 C523 1.387 . S
H525 C537 0.930 . S
H526 C539 0.930 . S
H527 C540 0.930 . S
H528 C544 0.959 . S
H529 C544 0.959 . S
H530 C544 0.961 . S
H531 C545 0.960 . S
H532 C545 0.961 . S
H533 C545 0.959 . S
H534 C548 0.929 . S
H535 C549 0.931 1_545 S
H536 C551 0.930 . S
C537 H525 0.930 . S
C537 C538 1.399 . S
C537 C542 1.399 . S
C538 C537 1.399 . S
C538 C539 1.376 . S
C539 H526 0.930 . S
C539 C538 1.376 . S
C539 C540 1.388 . S
C540 H527 0.930 . S
C540 C539 1.388 . S
C540 C541 1.390 . S
C541 C540 1.390 . S
C541 C542 1.394 . S
C541 C547 1.465 . S
C542 C537 1.399 . S
C542 C541 1.394 . S
C542 C543 1.516 . S
C543 C542 1.516 . S
C543 C544 1.502 . S
C543 C545 1.561 . S
C543 C546 1.526 . S
C544 H528 0.959 . S
C544 H529 0.959 . S
C544 H530 0.961 . S
C544 C543 1.502 . S
C545 H531 0.960 . S
C545 H532 0.961 . S
C545 H533 0.959 . S
C545 C543 1.561 . S
C546 C543 1.526 . S
C546 C547 1.396 . S
C546 C551 1.390 1_556 S
C547 C541 1.465 . S
C547 C546 1.396 . S
C547 C548 1.399 . S
C548 H534 0.929 . S
C548 C547 1.399 . S
C548 C549 1.385 1_556 S
C549 H535 0.931 1_565 S
C549 C548 1.385 1_554 S
C549 C550 1.389 . S
C550 C549 1.389 . S
C550 C551 1.387 . S
C551 H536 0.930 . S
C551 C546 1.390 1_554 S
C551 C550 1.387 . S
H552 C564 0.930 . S
H553 C566 0.930 . S
H554 C567 0.930 . S
H555 C571 0.959 1_565 S
H556 C571 0.959 . S
H557 C571 0.961 . S
H558 C572 0.960 . S
H559 C572 0.961 . S
H560 C572 0.959 1_455 S
H561 C575 0.929 . S
H562 C576 0.931 . S
H563 C578 0.930 . S
C564 H552 0.930 . S
C564 C565 1.399 1_545 S
C564 C569 1.399 1_545 S
C565 C564 1.399 1_565 S
C565 C566 1.376 . S
C566 H553 0.930 . S
C566 C565 1.376 . S
C566 C567 1.388 . S
C567 H554 0.930 . S
C567 C566 1.388 . S
C567 C568 1.390 . S
C568 C567 1.390 . S
C568 C569 1.394 . S
C568 C574 1.465 . S
C569 C564 1.399 1_565 S
C569 C568 1.394 . S
C569 C570 1.516 . S
C570 C569 1.516 . S
C570 C571 1.502 1_565 S
C570 C572 1.561 1_565 S
C570 C573 1.526 . S
C571 H555 0.959 1_545 S
C571 H556 0.959 . S
C571 H557 0.961 . S
C571 C570 1.502 1_545 S
C572 H558 0.960 . S
C572 H559 0.961 . S
C572 H560 0.959 1_655 S
C572 C570 1.561 1_545 S
C573 C570 1.526 . S
C573 C574 1.396 . S
C573 C578 1.390 . S
C574 C568 1.465 . S
C574 C573 1.396 . S
C574 C575 1.399 . S
C575 H561 0.929 . S
C575 C574 1.399 . S
C575 C576 1.385 . S
C576 H562 0.931 . S
C576 C575 1.385 . S
C576 C577 1.389 . S
C577 C576 1.389 . S
C577 C578 1.387 . S
C578 H563 0.930 . S
C578 C573 1.390 . S
C578 C577 1.387 . S
H579 C591 0.930 . S
H580 C593 0.930 . S
H581 C594 0.930 . S
H582 C598 0.959 . S
H583 C598 0.959 . S
H584 C598 0.961 . S
H585 C599 0.960 . S
H586 C599 0.961 . S
H587 C599 0.959 . S
H588 C602 0.929 . S
H589 C603 0.931 . S
H590 C605 0.930 . S
C591 H579 0.930 . S
C591 C592 1.399 . S
C591 C596 1.399 . S
C592 C591 1.399 . S
C592 C593 1.376 . S
C593 H580 0.930 . S
C593 C592 1.376 . S
C593 C594 1.388 . S
C594 H581 0.930 . S
C594 C593 1.388 . S
C594 C595 1.390 . S
C595 C594 1.390 . S
C595 C596 1.394 . S
C595 C601 1.465 . S
C596 C591 1.399 . S
C596 C595 1.394 . S
C596 C597 1.516 . S
C597 C596 1.516 . S
C597 C598 1.502 . S
C597 C599 1.561 . S
C597 C600 1.526 . S
C598 H582 0.959 . S
C598 H583 0.959 . S
C598 H584 0.961 . S
C598 C597 1.502 . S
C599 H585 0.960 . S
C599 H586 0.961 . S
C599 H587 0.959 . S
C599 C597 1.561 . S
C600 C597 1.526 . S
C600 C601 1.396 . S
C600 C605 1.390 . S
C601 C595 1.465 . S
C601 C600 1.396 . S
C601 C602 1.399 . S
C602 H588 0.929 . S
C602 C601 1.399 . S
C602 C603 1.385 . S
C603 H589 0.931 . S
C603 C602 1.385 . S
C603 C604 1.389 . S
C604 C603 1.389 . S
C604 C605 1.387 . S
C605 H590 0.930 . S
C605 C600 1.390 . S
C605 C604 1.387 . S
H606 C618 0.930 . S
H607 C620 0.930 . S
H608 C621 0.930 . S
H609 C625 0.959 . S
H610 C625 0.959 . S
H611 C625 0.961 . S
H612 C626 0.960 . S
H613 C626 0.961 . S
H614 C626 0.959 . S
H615 C629 0.929 . S
H616 C630 0.931 . S
H617 C632 0.930 . S
C618 H606 0.930 . S
C618 C619 1.399 . S
C618 C623 1.399 . S
C619 C618 1.399 . S
C619 C620 1.376 . S
C620 H607 0.930 . S
C620 C619 1.376 . S
C620 C621 1.388 . S
C621 H608 0.930 . S
C621 C620 1.388 . S
C621 C622 1.390 . S
C622 C621 1.390 . S
C622 C623 1.394 . S
C622 C628 1.465 . S
C623 C618 1.399 . S
C623 C622 1.394 . S
C623 C624 1.516 . S
C624 C623 1.516 . S
C624 C625 1.502 . S
C624 C626 1.561 . S
C624 C627 1.526 . S
C625 H609 0.959 . S
C625 H610 0.959 . S
C625 H611 0.961 . S
C625 C624 1.502 . S
C626 H612 0.960 . S
C626 H613 0.961 . S
C626 H614 0.959 . S
C626 C624 1.561 . S
C627 C624 1.526 . S
C627 C628 1.396 . S
C627 C632 1.390 . S
C628 C622 1.465 . S
C628 C627 1.396 . S
C628 C629 1.399 1_556 S
C629 H615 0.929 . S
C629 C628 1.399 1_554 S
C629 C630 1.385 . S
C630 H616 0.931 . S
C630 C629 1.385 . S
C630 C631 1.389 . S
C631 C630 1.389 . S
C631 C632 1.387 1_554 S
C632 H617 0.930 . S
C632 C627 1.390 . S
C632 C631 1.387 1_556 S
H633 C645 0.930 . S
H634 C647 0.930 . S
H635 C648 0.930 . S
H636 C652 0.959 . S
H637 C652 0.959 . S
H638 C652 0.961 . S
H639 C653 0.960 . S
H640 C653 0.961 . S
H641 C653 0.959 . S
H642 C656 0.929 . S
H643 C657 0.931 . S
H644 C659 0.930 . S
C645 H633 0.930 . S
C645 C646 1.399 . S
C645 C650 1.399 . S
C646 C645 1.399 . S
C646 C647 1.376 . S
C647 H634 0.930 . S
C647 C646 1.376 . S
C647 C648 1.388 . S
C648 H635 0.930 . S
C648 C647 1.388 . S
C648 C649 1.390 . S
C649 C648 1.390 . S
C649 C650 1.394 . S
C649 C655 1.465 . S
C650 C645 1.399 . S
C650 C649 1.394 . S
C650 C651 1.516 . S
C651 C650 1.516 . S
C651 C652 1.502 1_655 S
C651 C653 1.561 . S
C651 C654 1.526 . S
C652 H636 0.959 . S
C652 H637 0.959 . S
C652 H638 0.961 . S
C652 C651 1.502 1_455 S
C653 H639 0.960 . S
C653 H640 0.961 . S
C653 H641 0.959 . S
C653 C651 1.561 . S
C654 C651 1.526 . S
C654 C655 1.396 . S
C654 C659 1.390 1_655 S
C655 C649 1.465 . S
C655 C654 1.396 . S
C655 C656 1.399 . S
C656 H642 0.929 . S
C656 C655 1.399 . S
C656 C657 1.385 . S
C657 H643 0.931 . S
C657 C656 1.385 . S
C657 C658 1.389 1_655 S
C658 C657 1.389 1_455 S
C658 C659 1.387 . S
C659 H644 0.930 . S
C659 C654 1.390 1_455 S
C659 C658 1.387 . S
C349 C231 0.787 1_455 S
C361 C74 0.733 . S
C376 C315 0.484 . S
C388 C158 0.640 . S
C403 C242 1.269 . S
C415 C63 1.254 . S
C430 C147 1.402 . S
C442 C326 1.308 . S
C457 C140 1.905 . S
C469 C67 2.099 . S
C484 C151 2.038 . S
C496 C226 2.072 . S
C511 C310 1.093 . S
C523 C238 1.037 . S
C538 C322 0.674 . S
C550 C56 0.807 . S
C565 C224 2.102 1_565 S
C577 C319 1.940 . S
C592 C70 2.109 . S
C604 C308 2.041 . S
C619 C154 1.054 . S
C631 C58 0.978 . S
C646 C235 0.856 . S
C658 C142 0.673 . S
