# Generated by pormake.
# Topology pyc, (8)-cn, num edge types: 1
# Building blocks:
#     Node 0, Type 0, BuildingBlock: EBIMEJ_clean_sbu_0, # of connection points: 8
#     Node 1, Type 0, BuildingBlock: EBIMEJ_clean_sbu_0, # of connection points: 8
#     Node 2, Type 0, BuildingBlock: EBIMEJ_clean_sbu_0, # of connection points: 8
#     Node 3, Type 0, BuildingBlock: EBIMEJ_clean_sbu_0, # of connection points: 8
#     Node 4, Type 0, BuildingBlock: EBIMEJ_clean_sbu_0, # of connection points: 8
#     Node 5, Type 0, BuildingBlock: EBIMEJ_clean_sbu_0, # of connection points: 8
#     Node 6, Type 0, BuildingBlock: EBIMEJ_clean_sbu_0, # of connection points: 8
#     Node 7, Type 0, BuildingBlock: EBIMEJ_clean_sbu_0, # of connection points: 8
#     Node 8, Type 0, BuildingBlock: EBIMEJ_clean_sbu_0, # of connection points: 8
#     Node 9, Type 0, BuildingBlock: EBIMEJ_clean_sbu_0, # of connection points: 8
#     Node 10, Type 0, BuildingBlock: EBIMEJ_clean_sbu_0, # of connection points: 8
#     Node 11, Type 0, BuildingBlock: EBIMEJ_clean_sbu_0, # of connection points: 8
#     Node 12, Type 0, BuildingBlock: EBIMEJ_clean_sbu_0, # of connection points: 8
#     Node 13, Type 0, BuildingBlock: EBIMEJ_clean_sbu_0, # of connection points: 8
#     Node 14, Type 0, BuildingBlock: EBIMEJ_clean_sbu_0, # of connection points: 8
#     Node 15, Type 0, BuildingBlock: EBIMEJ_clean_sbu_0, # of connection points: 8
#     Node 16, Type 0, BuildingBlock: EBIMEJ_clean_sbu_0, # of connection points: 8
#     Node 17, Type 0, BuildingBlock: EBIMEJ_clean_sbu_0, # of connection points: 8
#     Node 18, Type 0, BuildingBlock: EBIMEJ_clean_sbu_0, # of connection points: 8
#     Node 19, Type 0, BuildingBlock: EBIMEJ_clean_sbu_0, # of connection points: 8
#     Node 20, Type 0, BuildingBlock: EBIMEJ_clean_sbu_0, # of connection points: 8
#     Node 21, Type 0, BuildingBlock: EBIMEJ_clean_sbu_0, # of connection points: 8
#     Node 22, Type 0, BuildingBlock: EBIMEJ_clean_sbu_0, # of connection points: 8
#     Node 23, Type 0, BuildingBlock: EBIMEJ_clean_sbu_0, # of connection points: 8
#     Node 24, Type 0, BuildingBlock: EBIMEJ_clean_sbu_0, # of connection points: 8
#     Node 25, Type 0, BuildingBlock: EBIMEJ_clean_sbu_0, # of connection points: 8
#     Node 26, Type 0, BuildingBlock: EBIMEJ_clean_sbu_0, # of connection points: 8
#     Node 27, Type 0, BuildingBlock: EBIMEJ_clean_sbu_0, # of connection points: 8
#     Node 28, Type 0, BuildingBlock: EBIMEJ_clean_sbu_0, # of connection points: 8
#     Node 29, Type 0, BuildingBlock: EBIMEJ_clean_sbu_0, # of connection points: 8
#     Node 30, Type 0, BuildingBlock: EBIMEJ_clean_sbu_0, # of connection points: 8
#     Node 31, Type 0, BuildingBlock: EBIMEJ_clean_sbu_0, # of connection points: 8
#     Node 32, Type 0, BuildingBlock: EBIMEJ_clean_sbu_0, # of connection points: 8
#     Node 33, Type 0, BuildingBlock: EBIMEJ_clean_sbu_0, # of connection points: 8
#     Node 34, Type 0, BuildingBlock: EBIMEJ_clean_sbu_0, # of connection points: 8
#     Node 35, Type 0, BuildingBlock: EBIMEJ_clean_sbu_0, # of connection points: 8
#     Node 36, Type 0, BuildingBlock: EBIMEJ_clean_sbu_0, # of connection points: 8
#     Node 37, Type 0, BuildingBlock: EBIMEJ_clean_sbu_0, # of connection points: 8
#     Node 38, Type 0, BuildingBlock: EBIMEJ_clean_sbu_0, # of connection points: 8
#     Node 39, Type 0, BuildingBlock: EBIMEJ_clean_sbu_0, # of connection points: 8
#     Node 40, Type 0, BuildingBlock: EBIMEJ_clean_sbu_0, # of connection points: 8
#     Node 41, Type 0, BuildingBlock: EBIMEJ_clean_sbu_0, # of connection points: 8
#     Node 42, Type 0, BuildingBlock: EBIMEJ_clean_sbu_0, # of connection points: 8
#     Node 43, Type 0, BuildingBlock: EBIMEJ_clean_sbu_0, # of connection points: 8
#     Node 44, Type 0, BuildingBlock: EBIMEJ_clean_sbu_0, # of connection points: 8
#     Node 45, Type 0, BuildingBlock: EBIMEJ_clean_sbu_0, # of connection points: 8
#     Node 46, Type 0, BuildingBlock: EBIMEJ_clean_sbu_0, # of connection points: 8
#     Node 47, Type 0, BuildingBlock: EBIMEJ_clean_sbu_0, # of connection points: 8
#     Edge 48, Type (0, 0), BuildingBlock: XIVTED_clean_linker_0, # of connection points: 2
#     Edge 49, Type (0, 0), BuildingBlock: XIVTED_clean_linker_0, # of connection points: 2
#     Edge 50, Type (0, 0), BuildingBlock: XIVTED_clean_linker_0, # of connection points: 2
#     Edge 51, Type (0, 0), BuildingBlock: XIVTED_clean_linker_0, # of connection points: 2
#     Edge 52, Type (0, 0), BuildingBlock: XIVTED_clean_linker_0, # of connection points: 2
#     Edge 53, Type (0, 0), BuildingBlock: XIVTED_clean_linker_0, # of connection points: 2
#     Edge 54, Type (0, 0), BuildingBlock: XIVTED_clean_linker_0, # of connection points: 2
#     Edge 55, Type (0, 0), BuildingBlock: XIVTED_clean_linker_0, # of connection points: 2
#     Edge 56, Type (0, 0), BuildingBlock: XIVTED_clean_linker_0, # of connection points: 2
#     Edge 57, Type (0, 0), BuildingBlock: XIVTED_clean_linker_0, # of connection points: 2
#     Edge 58, Type (0, 0), BuildingBlock: XIVTED_clean_linker_0, # of connection points: 2
#     Edge 59, Type (0, 0), BuildingBlock: XIVTED_clean_linker_0, # of connection points: 2
#     Edge 60, Type (0, 0), BuildingBlock: XIVTED_clean_linker_0, # of connection points: 2
#     Edge 61, Type (0, 0), BuildingBlock: XIVTED_clean_linker_0, # of connection points: 2
#     Edge 62, Type (0, 0), BuildingBlock: XIVTED_clean_linker_0, # of connection points: 2
#     Edge 63, Type (0, 0), BuildingBlock: XIVTED_clean_linker_0, # of connection points: 2
#     Edge 64, Type (0, 0), BuildingBlock: XIVTED_clean_linker_0, # of connection points: 2
#     Edge 65, Type (0, 0), BuildingBlock: XIVTED_clean_linker_0, # of connection points: 2
#     Edge 66, Type (0, 0), BuildingBlock: XIVTED_clean_linker_0, # of connection points: 2
#     Edge 67, Type (0, 0), BuildingBlock: XIVTED_clean_linker_0, # of connection points: 2
#     Edge 68, Type (0, 0), BuildingBlock: XIVTED_clean_linker_0, # of connection points: 2
#     Edge 69, Type (0, 0), BuildingBlock: XIVTED_clean_linker_0, # of connection points: 2
#     Edge 70, Type (0, 0), BuildingBlock: XIVTED_clean_linker_0, # of connection points: 2
#     Edge 71, Type (0, 0), BuildingBlock: XIVTED_clean_linker_0, # of connection points: 2
#     Edge 72, Type (0, 0), BuildingBlock: XIVTED_clean_linker_0, # of connection points: 2
#     Edge 73, Type (0, 0), BuildingBlock: XIVTED_clean_linker_0, # of connection points: 2
#     Edge 74, Type (0, 0), BuildingBlock: XIVTED_clean_linker_0, # of connection points: 2
#     Edge 75, Type (0, 0), BuildingBlock: XIVTED_clean_linker_0, # of connection points: 2
#     Edge 76, Type (0, 0), BuildingBlock: XIVTED_clean_linker_0, # of connection points: 2
#     Edge 77, Type (0, 0), BuildingBlock: XIVTED_clean_linker_0, # of connection points: 2
#     Edge 78, Type (0, 0), BuildingBlock: XIVTED_clean_linker_0, # of connection points: 2
#     Edge 79, Type (0, 0), BuildingBlock: XIVTED_clean_linker_0, # of connection points: 2
#     Edge 80, Type (0, 0), BuildingBlock: XIVTED_clean_linker_0, # of connection points: 2
#     Edge 81, Type (0, 0), BuildingBlock: XIVTED_clean_linker_0, # of connection points: 2
#     Edge 82, Type (0, 0), BuildingBlock: XIVTED_clean_linker_0, # of connection points: 2
#     Edge 83, Type (0, 0), BuildingBlock: XIVTED_clean_linker_0, # of connection points: 2
#     Edge 84, Type (0, 0), BuildingBlock: XIVTED_clean_linker_0, # of connection points: 2
#     Edge 85, Type (0, 0), BuildingBlock: XIVTED_clean_linker_0, # of connection points: 2
#     Edge 86, Type (0, 0), BuildingBlock: XIVTED_clean_linker_0, # of connection points: 2
#     Edge 87, Type (0, 0), BuildingBlock: XIVTED_clean_linker_0, # of connection points: 2
#     Edge 88, Type (0, 0), BuildingBlock: XIVTED_clean_linker_0, # of connection points: 2
#     Edge 89, Type (0, 0), BuildingBlock: XIVTED_clean_linker_0, # of connection points: 2
#     Edge 90, Type (0, 0), BuildingBlock: XIVTED_clean_linker_0, # of connection points: 2
#     Edge 91, Type (0, 0), BuildingBlock: XIVTED_clean_linker_0, # of connection points: 2
#     Edge 92, Type (0, 0), BuildingBlock: XIVTED_clean_linker_0, # of connection points: 2
#     Edge 93, Type (0, 0), BuildingBlock: XIVTED_clean_linker_0, # of connection points: 2
#     Edge 94, Type (0, 0), BuildingBlock: XIVTED_clean_linker_0, # of connection points: 2
#     Edge 95, Type (0, 0), BuildingBlock: XIVTED_clean_linker_0, # of connection points: 2
#     Edge 96, Type (0, 0), BuildingBlock: XIVTED_clean_linker_0, # of connection points: 2
#     Edge 97, Type (0, 0), BuildingBlock: XIVTED_clean_linker_0, # of connection points: 2
#     Edge 98, Type (0, 0), BuildingBlock: XIVTED_clean_linker_0, # of connection points: 2
#     Edge 99, Type (0, 0), BuildingBlock: XIVTED_clean_linker_0, # of connection points: 2
#     Edge 100, Type (0, 0), BuildingBlock: XIVTED_clean_linker_0, # of connection points: 2
#     Edge 101, Type (0, 0), BuildingBlock: XIVTED_clean_linker_0, # of connection points: 2
#     Edge 102, Type (0, 0), BuildingBlock: XIVTED_clean_linker_0, # of connection points: 2
#     Edge 103, Type (0, 0), BuildingBlock: XIVTED_clean_linker_0, # of connection points: 2
#     Edge 104, Type (0, 0), BuildingBlock: XIVTED_clean_linker_0, # of connection points: 2
#     Edge 105, Type (0, 0), BuildingBlock: XIVTED_clean_linker_0, # of connection points: 2
#     Edge 106, Type (0, 0), BuildingBlock: XIVTED_clean_linker_0, # of connection points: 2
#     Edge 107, Type (0, 0), BuildingBlock: XIVTED_clean_linker_0, # of connection points: 2
#     Edge 108, Type (0, 0), BuildingBlock: XIVTED_clean_linker_0, # of connection points: 2
#     Edge 109, Type (0, 0), BuildingBlock: XIVTED_clean_linker_0, # of connection points: 2
#     Edge 110, Type (0, 0), BuildingBlock: XIVTED_clean_linker_0, # of connection points: 2
#     Edge 111, Type (0, 0), BuildingBlock: XIVTED_clean_linker_0, # of connection points: 2
#     Edge 112, Type (0, 0), BuildingBlock: XIVTED_clean_linker_0, # of connection points: 2
#     Edge 113, Type (0, 0), BuildingBlock: XIVTED_clean_linker_0, # of connection points: 2
#     Edge 114, Type (0, 0), BuildingBlock: XIVTED_clean_linker_0, # of connection points: 2
#     Edge 115, Type (0, 0), BuildingBlock: XIVTED_clean_linker_0, # of connection points: 2
#     Edge 116, Type (0, 0), BuildingBlock: XIVTED_clean_linker_0, # of connection points: 2
#     Edge 117, Type (0, 0), BuildingBlock: XIVTED_clean_linker_0, # of connection points: 2
#     Edge 118, Type (0, 0), BuildingBlock: XIVTED_clean_linker_0, # of connection points: 2
#     Edge 119, Type (0, 0), BuildingBlock: XIVTED_clean_linker_0, # of connection points: 2
#     Edge 120, Type (0, 0), BuildingBlock: XIVTED_clean_linker_0, # of connection points: 2
#     Edge 121, Type (0, 0), BuildingBlock: XIVTED_clean_linker_0, # of connection points: 2
#     Edge 122, Type (0, 0), BuildingBlock: XIVTED_clean_linker_0, # of connection points: 2
#     Edge 123, Type (0, 0), BuildingBlock: XIVTED_clean_linker_0, # of connection points: 2
#     Edge 124, Type (0, 0), BuildingBlock: XIVTED_clean_linker_0, # of connection points: 2
#     Edge 125, Type (0, 0), BuildingBlock: XIVTED_clean_linker_0, # of connection points: 2
#     Edge 126, Type (0, 0), BuildingBlock: XIVTED_clean_linker_0, # of connection points: 2
#     Edge 127, Type (0, 0), BuildingBlock: XIVTED_clean_linker_0, # of connection points: 2
#     Edge 128, Type (0, 0), BuildingBlock: XIVTED_clean_linker_0, # of connection points: 2
#     Edge 129, Type (0, 0), BuildingBlock: XIVTED_clean_linker_0, # of connection points: 2
#     Edge 130, Type (0, 0), BuildingBlock: XIVTED_clean_linker_0, # of connection points: 2
#     Edge 131, Type (0, 0), BuildingBlock: XIVTED_clean_linker_0, # of connection points: 2
#     Edge 132, Type (0, 0), BuildingBlock: XIVTED_clean_linker_0, # of connection points: 2
#     Edge 133, Type (0, 0), BuildingBlock: XIVTED_clean_linker_0, # of connection points: 2
#     Edge 134, Type (0, 0), BuildingBlock: XIVTED_clean_linker_0, # of connection points: 2
#     Edge 135, Type (0, 0), BuildingBlock: XIVTED_clean_linker_0, # of connection points: 2
#     Edge 136, Type (0, 0), BuildingBlock: XIVTED_clean_linker_0, # of connection points: 2
#     Edge 137, Type (0, 0), BuildingBlock: XIVTED_clean_linker_0, # of connection points: 2
#     Edge 138, Type (0, 0), BuildingBlock: XIVTED_clean_linker_0, # of connection points: 2
#     Edge 139, Type (0, 0), BuildingBlock: XIVTED_clean_linker_0, # of connection points: 2
#     Edge 140, Type (0, 0), BuildingBlock: XIVTED_clean_linker_0, # of connection points: 2
#     Edge 141, Type (0, 0), BuildingBlock: XIVTED_clean_linker_0, # of connection points: 2
#     Edge 142, Type (0, 0), BuildingBlock: XIVTED_clean_linker_0, # of connection points: 2
#     Edge 143, Type (0, 0), BuildingBlock: XIVTED_clean_linker_0, # of connection points: 2
#     Edge 144, Type (0, 0), BuildingBlock: XIVTED_clean_linker_0, # of connection points: 2
#     Edge 145, Type (0, 0), BuildingBlock: XIVTED_clean_linker_0, # of connection points: 2
#     Edge 146, Type (0, 0), BuildingBlock: XIVTED_clean_linker_0, # of connection points: 2
#     Edge 147, Type (0, 0), BuildingBlock: XIVTED_clean_linker_0, # of connection points: 2
#     Edge 148, Type (0, 0), BuildingBlock: XIVTED_clean_linker_0, # of connection points: 2
#     Edge 149, Type (0, 0), BuildingBlock: XIVTED_clean_linker_0, # of connection points: 2
#     Edge 150, Type (0, 0), BuildingBlock: XIVTED_clean_linker_0, # of connection points: 2
#     Edge 151, Type (0, 0), BuildingBlock: XIVTED_clean_linker_0, # of connection points: 2
#     Edge 152, Type (0, 0), BuildingBlock: XIVTED_clean_linker_0, # of connection points: 2
#     Edge 153, Type (0, 0), BuildingBlock: XIVTED_clean_linker_0, # of connection points: 2
#     Edge 154, Type (0, 0), BuildingBlock: XIVTED_clean_linker_0, # of connection points: 2
#     Edge 155, Type (0, 0), BuildingBlock: XIVTED_clean_linker_0, # of connection points: 2
#     Edge 156, Type (0, 0), BuildingBlock: XIVTED_clean_linker_0, # of connection points: 2
#     Edge 157, Type (0, 0), BuildingBlock: XIVTED_clean_linker_0, # of connection points: 2
#     Edge 158, Type (0, 0), BuildingBlock: XIVTED_clean_linker_0, # of connection points: 2
#     Edge 159, Type (0, 0), BuildingBlock: XIVTED_clean_linker_0, # of connection points: 2
#     Edge 160, Type (0, 0), BuildingBlock: XIVTED_clean_linker_0, # of connection points: 2
#     Edge 161, Type (0, 0), BuildingBlock: XIVTED_clean_linker_0, # of connection points: 2
#     Edge 162, Type (0, 0), BuildingBlock: XIVTED_clean_linker_0, # of connection points: 2
#     Edge 163, Type (0, 0), BuildingBlock: XIVTED_clean_linker_0, # of connection points: 2
#     Edge 164, Type (0, 0), BuildingBlock: XIVTED_clean_linker_0, # of connection points: 2
#     Edge 165, Type (0, 0), BuildingBlock: XIVTED_clean_linker_0, # of connection points: 2
#     Edge 166, Type (0, 0), BuildingBlock: XIVTED_clean_linker_0, # of connection points: 2
#     Edge 167, Type (0, 0), BuildingBlock: XIVTED_clean_linker_0, # of connection points: 2
#     Edge 168, Type (0, 0), BuildingBlock: XIVTED_clean_linker_0, # of connection points: 2
#     Edge 169, Type (0, 0), BuildingBlock: XIVTED_clean_linker_0, # of connection points: 2
#     Edge 170, Type (0, 0), BuildingBlock: XIVTED_clean_linker_0, # of connection points: 2
#     Edge 171, Type (0, 0), BuildingBlock: XIVTED_clean_linker_0, # of connection points: 2
#     Edge 172, Type (0, 0), BuildingBlock: XIVTED_clean_linker_0, # of connection points: 2
#     Edge 173, Type (0, 0), BuildingBlock: XIVTED_clean_linker_0, # of connection points: 2
#     Edge 174, Type (0, 0), BuildingBlock: XIVTED_clean_linker_0, # of connection points: 2
#     Edge 175, Type (0, 0), BuildingBlock: XIVTED_clean_linker_0, # of connection points: 2
#     Edge 176, Type (0, 0), BuildingBlock: XIVTED_clean_linker_0, # of connection points: 2
#     Edge 177, Type (0, 0), BuildingBlock: XIVTED_clean_linker_0, # of connection points: 2
#     Edge 178, Type (0, 0), BuildingBlock: XIVTED_clean_linker_0, # of connection points: 2
#     Edge 179, Type (0, 0), BuildingBlock: XIVTED_clean_linker_0, # of connection points: 2
#     Edge 180, Type (0, 0), BuildingBlock: XIVTED_clean_linker_0, # of connection points: 2
#     Edge 181, Type (0, 0), BuildingBlock: XIVTED_clean_linker_0, # of connection points: 2
#     Edge 182, Type (0, 0), BuildingBlock: XIVTED_clean_linker_0, # of connection points: 2
#     Edge 183, Type (0, 0), BuildingBlock: XIVTED_clean_linker_0, # of connection points: 2
#     Edge 184, Type (0, 0), BuildingBlock: XIVTED_clean_linker_0, # of connection points: 2
#     Edge 185, Type (0, 0), BuildingBlock: XIVTED_clean_linker_0, # of connection points: 2
#     Edge 186, Type (0, 0), BuildingBlock: XIVTED_clean_linker_0, # of connection points: 2
#     Edge 187, Type (0, 0), BuildingBlock: XIVTED_clean_linker_0, # of connection points: 2
#     Edge 188, Type (0, 0), BuildingBlock: XIVTED_clean_linker_0, # of connection points: 2
#     Edge 189, Type (0, 0), BuildingBlock: XIVTED_clean_linker_0, # of connection points: 2
#     Edge 190, Type (0, 0), BuildingBlock: XIVTED_clean_linker_0, # of connection points: 2
#     Edge 191, Type (0, 0), BuildingBlock: XIVTED_clean_linker_0, # of connection points: 2
#     Edge 192, Type (0, 0), BuildingBlock: XIVTED_clean_linker_0, # of connection points: 2
#     Edge 193, Type (0, 0), BuildingBlock: XIVTED_clean_linker_0, # of connection points: 2
#     Edge 194, Type (0, 0), BuildingBlock: XIVTED_clean_linker_0, # of connection points: 2
#     Edge 195, Type (0, 0), BuildingBlock: XIVTED_clean_linker_0, # of connection points: 2
#     Edge 196, Type (0, 0), BuildingBlock: XIVTED_clean_linker_0, # of connection points: 2
#     Edge 197, Type (0, 0), BuildingBlock: XIVTED_clean_linker_0, # of connection points: 2
#     Edge 198, Type (0, 0), BuildingBlock: XIVTED_clean_linker_0, # of connection points: 2
#     Edge 199, Type (0, 0), BuildingBlock: XIVTED_clean_linker_0, # of connection points: 2
#     Edge 200, Type (0, 0), BuildingBlock: XIVTED_clean_linker_0, # of connection points: 2
#     Edge 201, Type (0, 0), BuildingBlock: XIVTED_clean_linker_0, # of connection points: 2
#     Edge 202, Type (0, 0), BuildingBlock: XIVTED_clean_linker_0, # of connection points: 2
#     Edge 203, Type (0, 0), BuildingBlock: XIVTED_clean_linker_0, # of connection points: 2
#     Edge 204, Type (0, 0), BuildingBlock: XIVTED_clean_linker_0, # of connection points: 2
#     Edge 205, Type (0, 0), BuildingBlock: XIVTED_clean_linker_0, # of connection points: 2
#     Edge 206, Type (0, 0), BuildingBlock: XIVTED_clean_linker_0, # of connection points: 2
#     Edge 207, Type (0, 0), BuildingBlock: XIVTED_clean_linker_0, # of connection points: 2
#     Edge 208, Type (0, 0), BuildingBlock: XIVTED_clean_linker_0, # of connection points: 2
#     Edge 209, Type (0, 0), BuildingBlock: XIVTED_clean_linker_0, # of connection points: 2
#     Edge 210, Type (0, 0), BuildingBlock: XIVTED_clean_linker_0, # of connection points: 2
#     Edge 211, Type (0, 0), BuildingBlock: XIVTED_clean_linker_0, # of connection points: 2
#     Edge 212, Type (0, 0), BuildingBlock: XIVTED_clean_linker_0, # of connection points: 2
#     Edge 213, Type (0, 0), BuildingBlock: XIVTED_clean_linker_0, # of connection points: 2
#     Edge 214, Type (0, 0), BuildingBlock: XIVTED_clean_linker_0, # of connection points: 2
#     Edge 215, Type (0, 0), BuildingBlock: XIVTED_clean_linker_0, # of connection points: 2
#     Edge 216, Type (0, 0), BuildingBlock: XIVTED_clean_linker_0, # of connection points: 2
#     Edge 217, Type (0, 0), BuildingBlock: XIVTED_clean_linker_0, # of connection points: 2
#     Edge 218, Type (0, 0), BuildingBlock: XIVTED_clean_linker_0, # of connection points: 2
#     Edge 219, Type (0, 0), BuildingBlock: XIVTED_clean_linker_0, # of connection points: 2
#     Edge 220, Type (0, 0), BuildingBlock: XIVTED_clean_linker_0, # of connection points: 2
#     Edge 221, Type (0, 0), BuildingBlock: XIVTED_clean_linker_0, # of connection points: 2
#     Edge 222, Type (0, 0), BuildingBlock: XIVTED_clean_linker_0, # of connection points: 2
#     Edge 223, Type (0, 0), BuildingBlock: XIVTED_clean_linker_0, # of connection points: 2
#     Edge 224, Type (0, 0), BuildingBlock: XIVTED_clean_linker_0, # of connection points: 2
#     Edge 225, Type (0, 0), BuildingBlock: XIVTED_clean_linker_0, # of connection points: 2
#     Edge 226, Type (0, 0), BuildingBlock: XIVTED_clean_linker_0, # of connection points: 2
#     Edge 227, Type (0, 0), BuildingBlock: XIVTED_clean_linker_0, # of connection points: 2
#     Edge 228, Type (0, 0), BuildingBlock: XIVTED_clean_linker_0, # of connection points: 2
#     Edge 229, Type (0, 0), BuildingBlock: XIVTED_clean_linker_0, # of connection points: 2
#     Edge 230, Type (0, 0), BuildingBlock: XIVTED_clean_linker_0, # of connection points: 2
#     Edge 231, Type (0, 0), BuildingBlock: XIVTED_clean_linker_0, # of connection points: 2
#     Edge 232, Type (0, 0), BuildingBlock: XIVTED_clean_linker_0, # of connection points: 2
#     Edge 233, Type (0, 0), BuildingBlock: XIVTED_clean_linker_0, # of connection points: 2
#     Edge 234, Type (0, 0), BuildingBlock: XIVTED_clean_linker_0, # of connection points: 2
#     Edge 235, Type (0, 0), BuildingBlock: XIVTED_clean_linker_0, # of connection points: 2
#     Edge 236, Type (0, 0), BuildingBlock: XIVTED_clean_linker_0, # of connection points: 2
#     Edge 237, Type (0, 0), BuildingBlock: XIVTED_clean_linker_0, # of connection points: 2
#     Edge 238, Type (0, 0), BuildingBlock: XIVTED_clean_linker_0, # of connection points: 2
#     Edge 239, Type (0, 0), BuildingBlock: XIVTED_clean_linker_0, # of connection points: 2
# Relax obj value: 0.341
# Max RMSD: 0.282
# Mean RMSD: 0.275
data_MOF--net-pyc--node1-EBIMEJ_clean_sbu_0--edge1-XIVTED_clean_linker_0
_symmetry_space_group_name_H-M    P1
_symmetry_Int_Tables_number       1
_symmetry_cell_setting            triclinic
loop_
_symmetry_equiv_pos_as_xyz
'x, y, z'
_cell_length_a     65.154631
_cell_length_b     65.155691
_cell_length_c     65.050219
_cell_angle_alpha  94.723545
_cell_angle_beta   86.856562
_cell_angle_gamma 94.753352
loop_
_atom_site_label
_atom_site_type_symbol
_atom_site_fract_x
_atom_site_fract_y
_atom_site_fract_z
_atom_type_partial_charge
Co0 Co 0.15615 0.1696 0.42285 0.0
Co1 Co 0.11373 0.14731 0.44198 0.0
Co2 Co 0.1468 0.12103 0.42269 0.0
H3 H 0.14584 0.14501 0.42182 0.0
O4 O 0.13391 0.14796 0.41829 0.0
H5 H 0.11489 0.12358 0.4429 0.0
O6 O 0.12682 0.12064 0.44632 0.0
Co7 Co 0.10434 0.09925 0.4425 0.0
O8 O 0.08033 0.11203 0.45874 0.0
O9 O 0.09273 0.14495 0.46542 0.0
O10 O 0.11927 0.08356 0.41868 0.0
O11 O 0.1521 0.09181 0.4252 0.0
O12 O 0.17111 0.19805 0.4198 0.0
O13 O 0.14685 0.1875 0.40107 0.0
O14 O 0.08927 0.10352 0.41767 0.0
O15 O 0.09165 0.13804 0.42139 0.0
C16 C 0.18015 0.13907 0.39503 0.0
C17 C 0.12121 0.19091 0.44516 0.0
C18 C 0.10484 0.07321 0.46797 0.0
C19 C 0.17764 0.14636 0.45098 0.0
C20 C 0.0791 0.12998 0.46816 0.0
C21 C 0.13753 0.07831 0.42018 0.0
C22 C 0.16015 0.20201 0.40555 0.0
C23 C 0.08451 0.12079 0.41248 0.0
O24 O 0.17779 0.15717 0.40341 0.0
O25 O 0.16845 0.12311 0.39959 0.0
O26 O 0.10748 0.17639 0.44039 0.0
O27 O 0.14045 0.18824 0.44349 0.0
O28 O 0.09174 0.07247 0.4544 0.0
O29 O 0.11755 0.08867 0.46703 0.0
O30 O 0.17432 0.16388 0.4452 0.0
O31 O 0.16843 0.12958 0.44339 0.0
Co32 Co 0.85742 0.40555 0.69202 0.0
Co33 Co 0.87638 0.36404 0.70502 0.0
Co34 Co 0.90405 0.39526 0.68106 0.0
H35 H 0.87981 0.39468 0.68547 0.0
O36 O 0.8739 0.38247 0.68257 0.0
H37 H 0.90022 0.36507 0.7018 0.0
O38 O 0.90614 0.37733 0.70377 0.0
Co39 Co 0.92268 0.35392 0.69914 0.0
O40 O 0.90863 0.3304 0.71509 0.0
O41 O 0.88009 0.34502 0.7273 0.0
O42 O 0.94255 0.36607 0.67715 0.0
O43 O 0.93525 0.39945 0.67677 0.0
O44 O 0.83228 0.42199 0.69885 0.0
O45 O 0.83195 0.39903 0.67455 0.0
O46 O 0.91172 0.33899 0.67365 0.0
O47 O 0.87815 0.33969 0.68291 0.0
C48 C 0.88513 0.42959 0.66149 0.0
C49 C 0.83472 0.37252 0.71702 0.0
C50 C 0.94765 0.35496 0.72661 0.0
C51 C 0.89177 0.42875 0.71387 0.0
C52 C 0.89255 0.33078 0.72732 0.0
C53 C 0.94751 0.38479 0.673 0.0
C54 C 0.82212 0.41269 0.68459 0.0
C55 C 0.89299 0.33275 0.67106 0.0
O56 O 0.86904 0.42749 0.67342 0.0
O57 O 0.89962 0.41694 0.6606 0.0
O58 O 0.84582 0.35811 0.70938 0.0
O59 O 0.84009 0.39155 0.71477 0.0
O60 O 0.94322 0.33927 0.71462 0.0
O61 O 0.93818 0.37007 0.72273 0.0
O62 O 0.87259 0.42567 0.71136 0.0
O63 O 0.90514 0.4182 0.70374 0.0
Co64 Co 0.65611 0.17049 0.92276 0.0
Co65 Co 0.61448 0.14849 0.94388 0.0
Co66 Co 0.64699 0.12206 0.92366 0.0
H67 H 0.64578 0.14594 0.92252 0.0
O68 O 0.63368 0.14881 0.91945 0.0
H69 H 0.61577 0.12476 0.94493 0.0
O70 O 0.62787 0.12191 0.94792 0.0
Co71 Co 0.60549 0.10034 0.94528 0.0
O72 O 0.58273 0.11315 0.9635 0.0
O73 O 0.59445 0.14653 0.96811 0.0
O74 O 0.62002 0.08101 0.92413 0.0
O75 O 0.6531 0.09307 0.92642 0.0
O76 O 0.67279 0.19413 0.90889 0.0
O77 O 0.6411 0.18917 0.90571 0.0
O78 O 0.59121 0.10445 0.91984 0.0
O79 O 0.59161 0.13884 0.92433 0.0
C80 C 0.68023 0.13975 0.89572 0.0
C81 C 0.62204 0.19212 0.94663 0.0
C82 C 0.60437 0.07501 0.97155 0.0
C83 C 0.67827 0.14802 0.95109 0.0
C84 C 0.5817 0.13131 0.97245 0.0
C85 C 0.63926 0.07826 0.92309 0.0
C86 C 0.65723 0.20009 0.90126 0.0
C87 C 0.5853 0.12146 0.91511 0.0
O88 O 0.6784 0.15779 0.90449 0.0
O89 O 0.66795 0.12404 0.8999 0.0
O90 O 0.60815 0.17756 0.94241 0.0
O91 O 0.64128 0.18971 0.94363 0.0
O92 O 0.58958 0.07712 0.96049 0.0
O93 O 0.61974 0.08718 0.9676 0.0
O94 O 0.67463 0.16549 0.94533 0.0
O95 O 0.66913 0.13116 0.9436 0.0
Co96 Co 0.85682 0.90398 0.18917 0.0
Co97 Co 0.87738 0.86426 0.20538 0.0
Co98 Co 0.90393 0.89505 0.17989 0.0
H99 H 0.87971 0.89368 0.18396 0.0
O100 O 0.87417 0.88121 0.18187 0.0
H101 H 0.90111 0.86528 0.2013 0.0
O102 O 0.90693 0.87764 0.20281 0.0
Co103 Co 0.9236 0.85434 0.19838 0.0
O104 O 0.91001 0.8312 0.21525 0.0
O105 O 0.88202 0.8463 0.22831 0.0
O106 O 0.94324 0.8672 0.17657 0.0
O107 O 0.93498 0.90028 0.17579 0.0
O108 O 0.83569 0.91872 0.17453 0.0
O109 O 0.82812 0.88939 0.18435 0.0
O110 O 0.91172 0.8395 0.17327 0.0
O111 O 0.8785 0.83902 0.18421 0.0
C112 C 0.88422 0.92895 0.15978 0.0
C113 C 0.83832 0.87472 0.22065 0.0
C114 C 0.94924 0.85544 0.22518 0.0
C115 C 0.89005 0.92897 0.21128 0.0
C116 C 0.89442 0.83196 0.22812 0.0
C117 C 0.94771 0.886 0.17237 0.0
C118 C 0.82196 0.90419 0.17594 0.0
C119 C 0.89304 0.83252 0.17166 0.0
O120 O 0.86793 0.92664 0.17137 0.0
O121 O 0.89885 0.91644 0.15916 0.0
O122 O 0.847 0.85918 0.21163 0.0
O123 O 0.8437 0.8931 0.21571 0.0
O124 O 0.94435 0.83964 0.2135 0.0
O125 O 0.93987 0.87062 0.22134 0.0
O126 O 0.87103 0.92583 0.20776 0.0
O127 O 0.90384 0.91809 0.20237 0.0
Co128 Co 0.08395 0.15201 0.80594 0.0
Co129 Co 0.10298 0.11074 0.82396 0.0
Co130 Co 0.13054 0.14241 0.80059 0.0
H131 H 0.10664 0.14118 0.80358 0.0
O132 O 0.10085 0.12889 0.80148 0.0
H133 H 0.12707 0.11163 0.81962 0.0
O134 O 0.13304 0.12374 0.82282 0.0
Co135 Co 0.14913 0.10087 0.81182 0.0
O136 O 0.1377 0.0784 0.83008 0.0
O137 O 0.10762 0.08909 0.84415 0.0
O138 O 0.16791 0.1154 0.79069 0.0
O139 O 0.16118 0.14863 0.79644 0.0
O140 O 0.06323 0.16677 0.79078 0.0
O141 O 0.06909 0.13639 0.7816 0.0
O142 O 0.134 0.09522 0.78571 0.0
O143 O 0.1032 0.08824 0.80091 0.0
C144 C 0.11425 0.1756 0.77838 0.0
C145 C 0.05908 0.12016 0.83115 0.0
C146 C 0.18286 0.08995 0.82054 0.0
C147 C 0.11323 0.17323 0.83458 0.0
C148 C 0.12204 0.07638 0.84263 0.0
C149 C 0.17281 0.13458 0.78887 0.0
C150 C 0.05931 0.15144 0.77817 0.0
C151 C 0.11566 0.08706 0.78512 0.0
O152 O 0.09806 0.1758 0.79045 0.0
O153 O 0.12684 0.1615 0.77845 0.0
O154 O 0.0718 0.10587 0.82777 0.0
O155 O 0.06355 0.13894 0.82693 0.0
O156 O 0.17426 0.08439 0.80397 0.0
O157 O 0.17215 0.1015 0.83236 0.0
O158 O 0.09459 0.16684 0.83165 0.0
O159 O 0.12832 0.16655 0.82291 0.0
Co160 Co 0.90179 0.40585 0.06109 0.0
Co161 Co 0.86028 0.3844 0.08287 0.0
Co162 Co 0.89301 0.35776 0.06358 0.0
H163 H 0.89168 0.38141 0.06197 0.0
O164 O 0.87959 0.38407 0.05877 0.0
H165 H 0.86153 0.36061 0.08458 0.0
O166 O 0.8736 0.35786 0.08786 0.0
Co167 Co 0.85123 0.33605 0.08467 0.0
O168 O 0.82914 0.34896 0.10308 0.0
O169 O 0.83921 0.38289 0.10654 0.0
O170 O 0.86619 0.31682 0.06388 0.0
O171 O 0.8993 0.32879 0.06567 0.0
O172 O 0.91238 0.43393 0.05075 0.0
O173 O 0.8911 0.41428 0.03431 0.0
O174 O 0.8325 0.34051 0.06206 0.0
O175 O 0.83833 0.37476 0.06296 0.0
C176 C 0.92589 0.37444 0.03481 0.0
C177 C 0.86758 0.42824 0.08174 0.0
C178 C 0.85033 0.30666 0.1064 0.0
C179 C 0.92199 0.38551 0.09196 0.0
C180 C 0.8272 0.3672 0.1113 0.0
C181 C 0.88544 0.31431 0.06113 0.0
C182 C 0.90159 0.43133 0.03517 0.0
C183 C 0.82903 0.35785 0.05585 0.0
O184 O 0.92471 0.39279 0.04326 0.0
O185 O 0.9132 0.3593 0.03949 0.0
O186 O 0.85394 0.41312 0.0792 0.0
O187 O 0.88687 0.42581 0.08117 0.0
O188 O 0.83472 0.31237 0.09863 0.0
O189 O 0.86637 0.31772 0.10196 0.0
O190 O 0.91624 0.40233 0.08658 0.0
O191 O 0.91569 0.36788 0.08323 0.0
Co192 Co 0.58274 0.15186 0.30696 0.0
Co193 Co 0.60195 0.11066 0.32453 0.0
Co194 Co 0.62931 0.14238 0.30092 0.0
H195 H 0.60545 0.14114 0.3042 0.0
O196 O 0.59966 0.12883 0.3021 0.0
H197 H 0.626 0.11195 0.32055 0.0
O198 O 0.63183 0.12417 0.32352 0.0
Co199 Co 0.6483 0.10139 0.31366 0.0
O200 O 0.636 0.07728 0.32931 0.0
O201 O 0.6068 0.08884 0.34461 0.0
O202 O 0.66696 0.11507 0.29186 0.0
O203 O 0.65999 0.14836 0.29631 0.0
O204 O 0.56244 0.16639 0.29107 0.0
O205 O 0.5668 0.1353 0.28388 0.0
O206 O 0.63418 0.09433 0.28717 0.0
O207 O 0.60261 0.08837 0.30125 0.0
C208 C 0.61269 0.17535 0.27876 0.0
C209 C 0.55823 0.11992 0.33212 0.0
C210 C 0.68086 0.09423 0.32835 0.0
C211 C 0.61244 0.17346 0.33489 0.0
C212 C 0.62061 0.07545 0.34221 0.0
C213 C 0.6716 0.13413 0.28906 0.0
C214 C 0.55766 0.15047 0.27954 0.0
C215 C 0.61573 0.08655 0.28603 0.0
O216 O 0.59663 0.17548 0.29105 0.0
O217 O 0.62538 0.16129 0.27865 0.0
O218 O 0.57077 0.10553 0.32813 0.0
O219 O 0.563 0.13885 0.32857 0.0
O220 O 0.66781 0.08044 0.32153 0.0
O221 O 0.67529 0.11202 0.32709 0.0
O222 O 0.59375 0.16695 0.33236 0.0
O223 O 0.62736 0.16678 0.32298 0.0
Co224 Co 0.89931 0.90877 0.56258 0.0
Co225 Co 0.85833 0.88537 0.58439 0.0
Co226 Co 0.8922 0.86058 0.56463 0.0
H227 H 0.88981 0.88409 0.56327 0.0
O228 O 0.87755 0.88635 0.5602 0.0
H229 H 0.86026 0.86143 0.58489 0.0
O230 O 0.87233 0.85901 0.58847 0.0
Co231 Co 0.85097 0.83649 0.5829 0.0
O232 O 0.82923 0.8482 0.60296 0.0
O233 O 0.83758 0.88237 0.60802 0.0
O234 O 0.86812 0.81865 0.56258 0.0
O235 O 0.90033 0.8323 0.56654 0.0
O236 O 0.91198 0.93566 0.55104 0.0
O237 O 0.88746 0.91855 0.53689 0.0
O238 O 0.83472 0.8419 0.55887 0.0
O239 O 0.83596 0.87617 0.56465 0.0
C240 C 0.92446 0.87871 0.53592 0.0
C241 C 0.865 0.92919 0.58533 0.0
C242 C 0.84601 0.80278 0.59791 0.0
C243 C 0.92073 0.88919 0.59301 0.0
C244 C 0.82635 0.86594 0.61206 0.0
C245 C 0.88759 0.81719 0.56104 0.0
C246 C 0.89987 0.93432 0.53653 0.0
C247 C 0.82902 0.85932 0.55512 0.0
O248 O 0.92261 0.897 0.54423 0.0
O249 O 0.91239 0.86322 0.54076 0.0
O250 O 0.85142 0.91416 0.582 0.0
O251 O 0.88428 0.92672 0.58458 0.0
O252 O 0.84329 0.80546 0.57939 0.0
O253 O 0.85146 0.81937 0.6081 0.0
O254 O 0.91477 0.9059 0.58759 0.0
O255 O 0.91431 0.87147 0.58459 0.0
Co256 Co 0.43886 0.17702 0.13908 0.0
Co257 Co 0.42297 0.15465 0.09628 0.0
Co258 Co 0.44583 0.13082 0.12462 0.0
H259 H 0.44304 0.15436 0.12619 0.0
O260 O 0.44585 0.1598 0.11466 0.0
H261 H 0.42417 0.1306 0.09563 0.0
O262 O 0.42165 0.12589 0.10762 0.0
Co263 Co 0.42624 0.10685 0.08375 0.0
O264 O 0.41265 0.11799 0.0605 0.0
O265 O 0.4017 0.14797 0.07494 0.0
O266 O 0.447 0.08927 0.09425 0.0
O267 O 0.44837 0.10076 0.12771 0.0
O268 O 0.45762 0.20011 0.15345 0.0
O269 O 0.45517 0.19801 0.12156 0.0
O270 O 0.45362 0.1199 0.07462 0.0
O271 O 0.44611 0.15274 0.07403 0.0
C272 C 0.46975 0.15265 0.15808 0.0
C273 C 0.41301 0.19508 0.11054 0.0
C274 C 0.40223 0.0754 0.08161 0.0
C275 C 0.41472 0.14452 0.15941 0.0
C276 C 0.40195 0.13348 0.06033 0.0
C277 C 0.45169 0.08714 0.11274 0.0
C278 C 0.46354 0.20761 0.13674 0.0
C279 C 0.45823 0.13825 0.06968 0.0
O280 O 0.45748 0.16716 0.15968 0.0
O281 O 0.46912 0.13822 0.14337 0.0
O282 O 0.42092 0.18517 0.09441 0.0
O283 O 0.41375 0.18859 0.1285 0.0
O284 O 0.41317 0.08168 0.06653 0.0
O285 O 0.40489 0.08702 0.09774 0.0
O286 O 0.41577 0.16338 0.15555 0.0
O287 O 0.42618 0.13152 0.14972 0.0
Co288 Co 0.89869 0.68327 0.34234 0.0
Co289 Co 0.86217 0.70688 0.36827 0.0
Co290 Co 0.8839 0.67456 0.38884 0.0
H291 H 0.88603 0.67978 0.36541 0.0
O292 O 0.87415 0.6804 0.3603 0.0
H293 H 0.86 0.7018 0.39126 0.0
O294 O 0.87167 0.70085 0.39657 0.0
Co295 Co 0.84692 0.69937 0.41401 0.0
O296 O 0.82926 0.72146 0.40535 0.0
O297 O 0.84827 0.7326 0.37802 0.0
O298 O 0.85049 0.67244 0.42684 0.0
O299 O 0.88394 0.66729 0.41887 0.0
O300 O 0.91089 0.66687 0.31694 0.0
O301 O 0.88041 0.67443 0.31792 0.0
O302 O 0.8261 0.68071 0.39882 0.0
O303 O 0.83425 0.69038 0.3669 0.0
C304 C 0.91518 0.64957 0.36469 0.0
C305 C 0.877 0.71872 0.32762 0.0
C306 C 0.86034 0.72021 0.44452 0.0
C307 C 0.92374 0.69986 0.37789 0.0
C308 C 0.83342 0.73452 0.39168 0.0
C309 C 0.8671 0.66418 0.43019 0.0
C310 C 0.89441 0.66555 0.30763 0.0
C311 C 0.82272 0.68002 0.37969 0.0
O312 O 0.91712 0.66228 0.35065 0.0
O313 O 0.90072 0.6501 0.37916 0.0
O314 O 0.86066 0.71455 0.33903 0.0
O315 O 0.89372 0.7101 0.32964 0.0
O316 O 0.86566 0.72349 0.4262 0.0
O317 O 0.84686 0.70531 0.44564 0.0
O318 O 0.92126 0.69817 0.35855 0.0
O319 O 0.9108 0.69198 0.39111 0.0
Co320 Co 0.31136 0.08984 0.65532 0.0
Co321 Co 0.29241 0.12701 0.63186 0.0
Co322 Co 0.32168 0.0985 0.60756 0.0
H323 H 0.31609 0.09957 0.63181 0.0
O324 O 0.31674 0.11221 0.63708 0.0
H325 H 0.29871 0.12639 0.60846 0.0
O326 O 0.29805 0.11413 0.60245 0.0
Co327 Co 0.30483 0.13789 0.58657 0.0
O328 O 0.2848 0.15885 0.59776 0.0
O329 O 0.26912 0.14357 0.62471 0.0
O330 O 0.3318 0.12863 0.57342 0.0
O331 O 0.32872 0.09442 0.57651 0.0
O332 O 0.33033 0.0777 0.67499 0.0
O333 O 0.32013 0.10682 0.6821 0.0
O334 O 0.32864 0.15126 0.60206 0.0
O335 O 0.31135 0.15307 0.63244 0.0
C336 C 0.34176 0.06567 0.6282 0.0
C337 C 0.28084 0.12039 0.67526 0.0
C338 C 0.28368 0.13852 0.55602 0.0
C339 C 0.28947 0.06519 0.62078 0.0
C340 C 0.27017 0.15747 0.61163 0.0
C341 C 0.33473 0.11023 0.56617 0.0
C342 C 0.33079 0.09331 0.68767 0.0
C343 C 0.32631 0.1593 0.6204 0.0
O344 O 0.32879 0.06678 0.64364 0.0
O345 O 0.34324 0.07892 0.61425 0.0
O346 O 0.28505 0.13353 0.66174 0.0
O347 O 0.28776 0.10236 0.67342 0.0
O348 O 0.29379 0.15408 0.56412 0.0
O349 O 0.28585 0.12264 0.56508 0.0
O350 O 0.29143 0.06959 0.64008 0.0
O351 O 0.30031 0.07446 0.60684 0.0
Co352 Co 0.93207 0.55629 0.897 0.0
Co353 Co 0.90843 0.56996 0.85749 0.0
Co354 Co 0.88475 0.5465 0.89061 0.0
H355 H 0.90851 0.55087 0.88777 0.0
O356 O 0.91311 0.54821 0.87528 0.0
H357 H 0.88445 0.56468 0.85996 0.0
O358 O 0.87967 0.56792 0.87233 0.0
Co359 Co 0.86126 0.5563 0.85099 0.0
O360 O 0.87209 0.572 0.82668 0.0
O361 O 0.90154 0.58953 0.83684 0.0
O362 O 0.84196 0.53834 0.86881 0.0
O363 O 0.85519 0.54227 0.90014 0.0
O364 O 0.94308 0.53031 0.88167 0.0
O365 O 0.96067 0.54771 0.90351 0.0
O366 O 0.87563 0.53103 0.84151 0.0
O367 O 0.90657 0.54689 0.83506 0.0
C368 C 0.90572 0.52712 0.92238 0.0
C369 C 0.95086 0.58267 0.86472 0.0
C370 C 0.82717 0.56665 0.84291 0.0
C371 C 0.90275 0.58119 0.92133 0.0
C372 C 0.88688 0.58579 0.82423 0.0
C373 C 0.84038 0.53679 0.88827 0.0
C374 C 0.95961 0.53202 0.89086 0.0
C375 C 0.89346 0.53134 0.83259 0.0
O376 O 0.92134 0.54029 0.92131 0.0
O377 O 0.89145 0.52564 0.90945 0.0
O378 O 0.9387 0.57514 0.8506 0.0
O379 O 0.94633 0.58122 0.88394 0.0
O380 O 0.8372 0.55405 0.83162 0.0
O381 O 0.83655 0.57343 0.85871 0.0
O382 O 0.92158 0.57944 0.91574 0.0
O383 O 0.88813 0.5692 0.91353 0.0
Co384 Co 0.14485 0.44893 0.15596 0.0
Co385 Co 0.12045 0.46049 0.11741 0.0
Co386 Co 0.09744 0.43612 0.1503 0.0
H387 H 0.12135 0.44127 0.14737 0.0
O388 O 0.12589 0.43845 0.13483 0.0
H389 H 0.09676 0.45512 0.11995 0.0
O390 O 0.09203 0.45758 0.13242 0.0
Co391 Co 0.07338 0.44879 0.1106 0.0
O392 O 0.08362 0.46628 0.08719 0.0
O393 O 0.11315 0.4817 0.09925 0.0
O394 O 0.06054 0.42346 0.12412 0.0
O395 O 0.0673 0.43068 0.15752 0.0
O396 O 0.16692 0.44003 0.17416 0.0
O397 O 0.17021 0.43583 0.14216 0.0
O398 O 0.08505 0.42656 0.09142 0.0
O399 O 0.11806 0.43855 0.09365 0.0
C400 C 0.11955 0.42045 0.18348 0.0
C401 C 0.1641 0.47277 0.12114 0.0
C402 C 0.0441 0.47109 0.11552 0.0
C403 C 0.11314 0.47517 0.17402 0.0
C404 C 0.09875 0.48007 0.08644 0.0
C405 C 0.05549 0.42259 0.14332 0.0
C406 C 0.17803 0.4337 0.15895 0.0
C407 C 0.10397 0.42602 0.08562 0.0
O408 O 0.13444 0.43409 0.18087 0.0
O409 O 0.10481 0.41675 0.17098 0.0
O410 O 0.15011 0.46615 0.10863 0.0
O411 O 0.16208 0.47051 0.14049 0.0
O412 O 0.04617 0.4577 0.10065 0.0
O413 O 0.05843 0.47152 0.12768 0.0
O414 O 0.13115 0.47463 0.16556 0.0
O415 O 0.09974 0.45973 0.1723 0.0
Co416 Co 0.66108 0.30917 0.09377 0.0
Co417 Co 0.62324 0.33231 0.11908 0.0
Co418 Co 0.64638 0.30113 0.13963 0.0
H419 H 0.64833 0.3062 0.11661 0.0
O420 O 0.63654 0.30663 0.11136 0.0
H421 H 0.62205 0.32759 0.1425 0.0
O422 O 0.63406 0.32749 0.14749 0.0
Co423 Co 0.60977 0.32331 0.16544 0.0
O424 O 0.58952 0.34249 0.1569 0.0
O425 O 0.60545 0.35594 0.12882 0.0
O426 O 0.61531 0.29728 0.17886 0.0
O427 O 0.64837 0.29366 0.16892 0.0
O428 O 0.66387 0.30281 0.06223 0.0
O429 O 0.63989 0.28858 0.07978 0.0
O430 O 0.5981 0.29887 0.14814 0.0
O431 O 0.59721 0.31325 0.11823 0.0
C432 C 0.6745 0.27334 0.11556 0.0
C433 C 0.63894 0.34301 0.07787 0.0
C434 C 0.61003 0.34289 0.19961 0.0
C435 C 0.68539 0.32842 0.12797 0.0
C436 C 0.59085 0.35549 0.14314 0.0
C437 C 0.63234 0.28921 0.18065 0.0
C438 C 0.64791 0.29052 0.06203 0.0
C439 C 0.59148 0.29894 0.13014 0.0
O440 O 0.67836 0.28636 0.10177 0.0
O441 O 0.66026 0.27555 0.12982 0.0
O442 O 0.62216 0.33888 0.08899 0.0
O443 O 0.65613 0.33611 0.08164 0.0
O444 O 0.59443 0.33983 0.18892 0.0
O445 O 0.62537 0.33484 0.19091 0.0
O446 O 0.68183 0.32794 0.10891 0.0
O447 O 0.67419 0.31775 0.14073 0.0
Co448 Co 0.70118 0.86729 0.42008 0.0
Co449 Co 0.68466 0.90771 0.39902 0.0
Co450 Co 0.71244 0.87795 0.37428 0.0
H451 H 0.70661 0.87864 0.39789 0.0
O452 O 0.70765 0.89095 0.40382 0.0
H453 H 0.68959 0.90601 0.37476 0.0
O454 O 0.6883 0.89331 0.36967 0.0
Co455 Co 0.69476 0.91518 0.35115 0.0
O456 O 0.67757 0.93862 0.36209 0.0
O457 O 0.66384 0.92821 0.3925 0.0
O458 O 0.71956 0.90386 0.33454 0.0
O459 O 0.71926 0.87159 0.34418 0.0
O460 O 0.70456 0.86463 0.45138 0.0
O461 O 0.73006 0.87001 0.43153 0.0
O462 O 0.71969 0.92786 0.36573 0.0
O463 O 0.70727 0.93073 0.3986 0.0
C464 C 0.73448 0.84672 0.39344 0.0
C465 C 0.67258 0.89657 0.44045 0.0
C466 C 0.67483 0.91272 0.31915 0.0
C467 C 0.68007 0.84372 0.38651 0.0
C468 C 0.6651 0.94072 0.37785 0.0
C469 C 0.72538 0.88544 0.33184 0.0
C470 C 0.72389 0.8672 0.44969 0.0
C471 C 0.72129 0.93463 0.38457 0.0
O472 O 0.72033 0.84576 0.40787 0.0
O473 O 0.7356 0.86087 0.38065 0.0
O474 O 0.67862 0.91235 0.43009 0.0
O475 O 0.67456 0.87811 0.43278 0.0
O476 O 0.67661 0.92853 0.33153 0.0
O477 O 0.68441 0.89846 0.32485 0.0
O478 O 0.67892 0.84968 0.40561 0.0
O479 O 0.69312 0.85224 0.37381 0.0
Co480 Co 0.14501 0.95314 0.65606 0.0
Co481 Co 0.12176 0.96117 0.61547 0.0
Co482 Co 0.09801 0.93896 0.6494 0.0
H483 H 0.12198 0.94428 0.647 0.0
O484 O 0.12687 0.94063 0.63477 0.0
H485 H 0.09799 0.95639 0.61804 0.0
O486 O 0.09321 0.95958 0.63036 0.0
Co487 Co 0.07463 0.9499 0.60867 0.0
O488 O 0.08493 0.96632 0.58445 0.0
O489 O 0.11502 0.98117 0.59571 0.0
O490 O 0.06204 0.92483 0.62278 0.0
O491 O 0.06771 0.93385 0.65607 0.0
O492 O 0.16871 0.95512 0.67596 0.0
O493 O 0.16975 0.93586 0.64885 0.0
O494 O 0.08584 0.92697 0.59018 0.0
O495 O 0.11907 0.93781 0.59312 0.0
C496 C 0.11918 0.92497 0.68389 0.0
C497 C 0.16611 0.97128 0.61816 0.0
C498 C 0.04553 0.97237 0.61343 0.0
C499 C 0.11243 0.97913 0.67148 0.0
C500 C 0.10051 0.97952 0.58302 0.0
C501 C 0.05629 0.92505 0.64189 0.0
C502 C 0.17888 0.9425 0.66484 0.0
C503 C 0.10481 0.92552 0.58507 0.0
O504 O 0.13386 0.93883 0.68119 0.0
O505 O 0.10483 0.9205 0.67107 0.0
O506 O 0.15138 0.96548 0.6063 0.0
O507 O 0.16446 0.97032 0.63771 0.0
O508 O 0.04743 0.95878 0.59872 0.0
O509 O 0.05993 0.97292 0.62552 0.0
O510 O 0.13035 0.97888 0.66281 0.0
O511 O 0.09968 0.96314 0.67069 0.0
Co512 Co 0.57898 0.40005 0.42405 0.0
Co513 Co 0.5576 0.37538 0.38375 0.0
Co514 Co 0.58246 0.3521 0.41093 0.0
H515 H 0.58066 0.37621 0.41196 0.0
O516 O 0.58243 0.38093 0.39991 0.0
H517 H 0.56077 0.35193 0.38222 0.0
O518 O 0.55857 0.34667 0.39392 0.0
Co519 Co 0.56475 0.32919 0.36951 0.0
O520 O 0.54556 0.33853 0.34922 0.0
O521 O 0.53385 0.36739 0.36563 0.0
O522 O 0.59046 0.31746 0.37819 0.0
O523 O 0.5852 0.32159 0.41252 0.0
O524 O 0.5802 0.43155 0.42502 0.0
O525 O 0.60732 0.41662 0.42149 0.0
O526 O 0.58465 0.34269 0.34954 0.0
O527 O 0.57652 0.37507 0.35812 0.0
C528 C 0.60594 0.3738 0.44529 0.0
C529 C 0.54994 0.41768 0.39648 0.0
C530 C 0.54305 0.29824 0.37869 0.0
C531 C 0.55284 0.36805 0.4456 0.0
C532 C 0.53317 0.35293 0.35093 0.0
C533 C 0.59221 0.31138 0.39614 0.0
C534 C 0.59944 0.43362 0.42266 0.0
C535 C 0.58632 0.36183 0.3467 0.0
O536 O 0.59551 0.38952 0.44553 0.0
O537 O 0.60497 0.35896 0.43101 0.0
O538 O 0.55419 0.4052 0.38086 0.0
O539 O 0.55526 0.4149 0.41465 0.0
O540 O 0.55552 0.29846 0.36322 0.0
O541 O 0.54296 0.31549 0.38872 0.0
O542 O 0.558 0.38699 0.4433 0.0
O543 O 0.56094 0.35322 0.43468 0.0
Co544 Co 0.15869 0.80708 0.09253 0.0
Co545 Co 0.12178 0.83129 0.11826 0.0
Co546 Co 0.14389 0.79903 0.13832 0.0
H547 H 0.14582 0.80427 0.11534 0.0
O548 O 0.13405 0.8051 0.11019 0.0
H549 H 0.11966 0.82581 0.14168 0.0
O550 O 0.13161 0.82531 0.14671 0.0
Co551 Co 0.10699 0.82186 0.16469 0.0
O552 O 0.08909 0.84356 0.15679 0.0
O553 O 0.1052 0.85573 0.12816 0.0
O554 O 0.11274 0.79469 0.17648 0.0
O555 O 0.14599 0.7913 0.16733 0.0
O556 O 0.16055 0.80208 0.06082 0.0
O557 O 0.13846 0.7854 0.07849 0.0
O558 O 0.08387 0.80818 0.14842 0.0
O559 O 0.09481 0.81394 0.11589 0.0
C560 C 0.17211 0.77135 0.11418 0.0
C561 C 0.13844 0.84245 0.07733 0.0
C562 C 0.11037 0.83613 0.20083 0.0
C563 C 0.18351 0.82567 0.12668 0.0
C564 C 0.09096 0.85633 0.1428 0.0
C565 C 0.12972 0.78652 0.17852 0.0
C566 C 0.14554 0.78863 0.06064 0.0
C567 C 0.08156 0.80644 0.12906 0.0
O568 O 0.17606 0.7844 0.10047 0.0
O569 O 0.15768 0.77343 0.12824 0.0
O570 O 0.12156 0.83882 0.0884 0.0
O571 O 0.15518 0.83453 0.08076 0.0
O572 O 0.10494 0.81763 0.19557 0.0
O573 O 0.11355 0.84679 0.18562 0.0
O574 O 0.18011 0.82501 0.10757 0.0
O575 O 0.1718 0.81556 0.13952 0.0
Co576 Co 0.0795 0.39964 0.92108 0.0
Co577 Co 0.05977 0.37471 0.88071 0.0
Co578 Co 0.08314 0.35174 0.90929 0.0
H579 H 0.08168 0.37574 0.90958 0.0
O580 O 0.08403 0.38026 0.8975 0.0
H581 H 0.06313 0.35129 0.87927 0.0
O582 O 0.0604 0.34592 0.89084 0.0
Co583 Co 0.06785 0.32869 0.86655 0.0
O584 O 0.04872 0.3379 0.84598 0.0
O585 O 0.03651 0.36663 0.86217 0.0
O586 O 0.09307 0.31772 0.87758 0.0
O587 O 0.08559 0.32136 0.91162 0.0
O588 O 0.09404 0.42407 0.93812 0.0
O589 O 0.09947 0.42013 0.90628 0.0
O590 O 0.08973 0.34262 0.84882 0.0
O591 O 0.07929 0.37439 0.85557 0.0
C592 C 0.10362 0.37359 0.94522 0.0
C593 C 0.05348 0.41856 0.89197 0.0
C594 C 0.04494 0.29705 0.87014 0.0
C595 C 0.04773 0.36821 0.93563 0.0
C596 C 0.03613 0.35213 0.84754 0.0
C597 C 0.09366 0.31138 0.89562 0.0
C598 C 0.10357 0.43103 0.92254 0.0
C599 C 0.09056 0.36158 0.84534 0.0
O600 O 0.09277 0.38892 0.94475 0.0
O601 O 0.10424 0.35902 0.93071 0.0
O602 O 0.05652 0.40456 0.8773 0.0
O603 O 0.05874 0.41713 0.91041 0.0
O604 O 0.05208 0.30291 0.85305 0.0
O605 O 0.051 0.30899 0.88502 0.0
O606 O 0.05225 0.3865 0.93047 0.0
O607 O 0.0599 0.35373 0.93142 0.0
Co608 Co 0.08294 0.65137 0.30811 0.0
Co609 Co 0.102 0.61001 0.32479 0.0
Co610 Co 0.12941 0.64187 0.30146 0.0
H611 H 0.10557 0.64062 0.30485 0.0
O612 O 0.09975 0.62836 0.30255 0.0
H613 H 0.12605 0.61103 0.32045 0.0
O614 O 0.13203 0.62315 0.32363 0.0
Co615 Co 0.14811 0.60032 0.31274 0.0
O616 O 0.1364 0.57713 0.32998 0.0
O617 O 0.10675 0.58817 0.34476 0.0
O618 O 0.16673 0.61464 0.29133 0.0
O619 O 0.16007 0.64793 0.2969 0.0
O620 O 0.05945 0.66406 0.29496 0.0
O621 O 0.06966 0.63587 0.28291 0.0
O622 O 0.13321 0.59394 0.2866 0.0
O623 O 0.10216 0.58759 0.30157 0.0
C624 C 0.11244 0.67485 0.27944 0.0
C625 C 0.05858 0.61977 0.33336 0.0
C626 C 0.18169 0.59079 0.32324 0.0
C627 C 0.11269 0.67268 0.33593 0.0
C628 C 0.12091 0.57516 0.34275 0.0
C629 C 0.17161 0.6338 0.28929 0.0
C630 C 0.05742 0.64942 0.28118 0.0
C631 C 0.11483 0.5859 0.28598 0.0
O632 O 0.0964 0.67487 0.29176 0.0
O633 O 0.12539 0.66105 0.27946 0.0
O634 O 0.0708 0.6052 0.32871 0.0
O635 O 0.06374 0.63876 0.33035 0.0
O636 O 0.16929 0.57874 0.31306 0.0
O637 O 0.17485 0.60812 0.32777 0.0
O638 O 0.09399 0.66617 0.33359 0.0
O639 O 0.12751 0.66611 0.3238 0.0
Co640 Co 0.40013 0.90973 0.06335 0.0
Co641 Co 0.35852 0.88594 0.08311 0.0
Co642 Co 0.39319 0.86148 0.06466 0.0
H643 H 0.39081 0.88499 0.0634 0.0
O644 O 0.37872 0.88716 0.05978 0.0
H645 H 0.36059 0.86202 0.08397 0.0
O646 O 0.37258 0.85977 0.08791 0.0
Co647 Co 0.35148 0.83697 0.08223 0.0
O648 O 0.32979 0.84837 0.10246 0.0
O649 O 0.33678 0.88284 0.10595 0.0
O650 O 0.36902 0.82002 0.06138 0.0
O651 O 0.40114 0.83318 0.06666 0.0
O652 O 0.41209 0.93714 0.05242 0.0
O653 O 0.38837 0.91935 0.03761 0.0
O654 O 0.33248 0.84199 0.06027 0.0
O655 O 0.33738 0.87634 0.06223 0.0
C656 C 0.42638 0.88008 0.03733 0.0
C657 C 0.36471 0.92981 0.08396 0.0
C658 C 0.34777 0.80286 0.09642 0.0
C659 C 0.4206 0.8899 0.09426 0.0
C660 C 0.32622 0.86626 0.11072 0.0
C661 C 0.38846 0.81836 0.06033 0.0
C662 C 0.4002 0.93554 0.0377 0.0
C663 C 0.32858 0.85937 0.0546 0.0
O664 O 0.42419 0.89822 0.04593 0.0
O665 O 0.41416 0.86444 0.04146 0.0
O666 O 0.35145 0.91459 0.08013 0.0
O667 O 0.38393 0.92748 0.08457 0.0
O668 O 0.34487 0.80582 0.078 0.0
O669 O 0.35274 0.81937 0.10695 0.0
O670 O 0.41475 0.90665 0.08881 0.0
O671 O 0.41461 0.87224 0.08542 0.0
Co672 Co 0.15578 0.66963 0.92309 0.0
Co673 Co 0.11365 0.64746 0.94251 0.0
Co674 Co 0.14678 0.62106 0.92382 0.0
H675 H 0.14561 0.64497 0.92234 0.0
O676 O 0.13364 0.64766 0.91868 0.0
H677 H 0.11526 0.62391 0.94445 0.0
O678 O 0.12735 0.6214 0.94779 0.0
Co679 Co 0.1053 0.59944 0.94553 0.0
O680 O 0.08212 0.61224 0.9631 0.0
O681 O 0.09314 0.64588 0.96632 0.0
O682 O 0.12003 0.57962 0.92516 0.0
O683 O 0.15297 0.59223 0.92731 0.0
O684 O 0.16667 0.69992 0.92409 0.0
O685 O 0.15153 0.68636 0.89838 0.0
O686 O 0.09063 0.60234 0.92001 0.0
O687 O 0.09147 0.63681 0.92257 0.0
C688 C 0.1794 0.63854 0.89528 0.0
C689 C 0.12014 0.69079 0.94472 0.0
C690 C 0.10547 0.57486 0.97234 0.0
C691 C 0.17788 0.64722 0.95133 0.0
C692 C 0.08067 0.63066 0.97122 0.0
C693 C 0.13932 0.57718 0.92439 0.0
C694 C 0.16045 0.70255 0.90663 0.0
C695 C 0.08505 0.61906 0.91422 0.0
O696 O 0.17699 0.65677 0.90334 0.0
O697 O 0.16794 0.62262 0.90035 0.0
O698 O 0.10674 0.67605 0.93981 0.0
O699 O 0.13946 0.68842 0.94322 0.0
O700 O 0.09276 0.57319 0.95832 0.0
O701 O 0.11801 0.59043 0.97108 0.0
O702 O 0.17432 0.66465 0.9455 0.0
O703 O 0.16872 0.63038 0.9439 0.0
Co704 Co 0.35959 0.90723 0.69503 0.0
Co705 Co 0.3774 0.86551 0.70625 0.0
Co706 Co 0.40504 0.89642 0.68186 0.0
H707 H 0.38114 0.89595 0.68674 0.0
O708 O 0.37484 0.88394 0.68381 0.0
H709 H 0.4013 0.8659 0.7024 0.0
O710 O 0.40743 0.8781 0.70425 0.0
Co711 Co 0.42373 0.85449 0.69942 0.0
O712 O 0.40892 0.83129 0.7155 0.0
O713 O 0.38098 0.8465 0.72846 0.0
O714 O 0.44358 0.86739 0.67769 0.0
O715 O 0.43611 0.90076 0.67736 0.0
O716 O 0.33371 0.92242 0.70321 0.0
O717 O 0.33592 0.90491 0.67507 0.0
O718 O 0.4116 0.84002 0.67422 0.0
O719 O 0.37816 0.84091 0.68424 0.0
C720 C 0.38579 0.931 0.66329 0.0
C721 C 0.33811 0.87627 0.72191 0.0
C722 C 0.44993 0.85388 0.72567 0.0
C723 C 0.39373 0.92109 0.72083 0.0
C724 C 0.39296 0.83182 0.72793 0.0
C725 C 0.44837 0.88615 0.67343 0.0
C726 C 0.32486 0.916 0.68701 0.0
C727 C 0.39275 0.83387 0.67208 0.0
O728 O 0.37027 0.92917 0.67601 0.0
O729 O 0.40019 0.91823 0.66176 0.0
O730 O 0.34669 0.86105 0.71203 0.0
O731 O 0.34549 0.89481 0.72 0.0
O732 O 0.43611 0.83971 0.72203 0.0
O733 O 0.44942 0.86813 0.71393 0.0
O734 O 0.37512 0.91371 0.72073 0.0
O735 O 0.40591 0.91905 0.70489 0.0
Co736 Co 0.58091 0.90051 0.92202 0.0
Co737 Co 0.55984 0.87675 0.8818 0.0
Co738 Co 0.58226 0.85226 0.90989 0.0
H739 H 0.58187 0.87644 0.91045 0.0
O740 O 0.58433 0.88101 0.8984 0.0
H741 H 0.56235 0.85317 0.87996 0.0
O742 O 0.5594 0.84766 0.89144 0.0
Co743 Co 0.56634 0.8306 0.86689 0.0
O744 O 0.54921 0.84193 0.84566 0.0
O745 O 0.53639 0.86969 0.86328 0.0
O746 O 0.59043 0.81747 0.87762 0.0
O747 O 0.5835 0.82158 0.9118 0.0
O748 O 0.59652 0.92531 0.93756 0.0
O749 O 0.60038 0.92018 0.90565 0.0
O750 O 0.58912 0.84424 0.85006 0.0
O751 O 0.57934 0.87628 0.85652 0.0
C752 C 0.60394 0.87306 0.94576 0.0
C753 C 0.55416 0.92027 0.89448 0.0
C754 C 0.54362 0.79898 0.87126 0.0
C755 C 0.54837 0.87026 0.93775 0.0
C756 C 0.5367 0.85625 0.84771 0.0
C757 C 0.59095 0.81121 0.8957 0.0
C758 C 0.60532 0.93162 0.92133 0.0
C759 C 0.59054 0.8632 0.84658 0.0
O760 O 0.59418 0.88915 0.94529 0.0
O761 O 0.60355 0.85836 0.93134 0.0
O762 O 0.55749 0.90698 0.8792 0.0
O763 O 0.55928 0.9178 0.91275 0.0
O764 O 0.55306 0.80295 0.85449 0.0
O765 O 0.54709 0.81291 0.88535 0.0
O766 O 0.55396 0.8886 0.93334 0.0
O767 O 0.55919 0.85495 0.93218 0.0
Co768 Co 0.16015 0.3075 0.59249 0.0
Co769 Co 0.12291 0.33136 0.61806 0.0
Co770 Co 0.14582 0.29992 0.63853 0.0
H771 H 0.14753 0.30478 0.61543 0.0
O772 O 0.13568 0.30533 0.61034 0.0
H773 H 0.12216 0.32709 0.64163 0.0
O774 O 0.1343 0.3267 0.64624 0.0
Co775 Co 0.11065 0.32409 0.66522 0.0
O776 O 0.09043 0.34326 0.65671 0.0
O777 O 0.10572 0.35546 0.62775 0.0
O778 O 0.11559 0.29789 0.67867 0.0
O779 O 0.14815 0.29277 0.66784 0.0
O780 O 0.16261 0.30237 0.56081 0.0
O781 O 0.14008 0.2859 0.57817 0.0
O782 O 0.09393 0.30177 0.6496 0.0
O783 O 0.09637 0.31296 0.61787 0.0
C784 C 0.17336 0.27164 0.61451 0.0
C785 C 0.13819 0.34163 0.57673 0.0
C786 C 0.11467 0.34383 0.69902 0.0
C787 C 0.18498 0.32662 0.62634 0.0
C788 C 0.09146 0.35564 0.64241 0.0
C789 C 0.13229 0.28912 0.68005 0.0
C790 C 0.1475 0.28903 0.56042 0.0
C791 C 0.08813 0.30097 0.6312 0.0
O792 O 0.17724 0.28458 0.60065 0.0
O793 O 0.15915 0.27398 0.62877 0.0
O794 O 0.12147 0.33769 0.58798 0.0
O795 O 0.15531 0.33447 0.58031 0.0
O796 O 0.0983 0.34204 0.6895 0.0
O797 O 0.12871 0.33448 0.68934 0.0
O798 O 0.18112 0.32629 0.60736 0.0
O799 O 0.17388 0.31598 0.63917 0.0
Co800 Co 0.39602 0.68447 0.84144 0.0
Co801 Co 0.35984 0.70679 0.86784 0.0
Co802 Co 0.38314 0.6755 0.88814 0.0
H803 H 0.38406 0.68011 0.86462 0.0
O804 O 0.37197 0.68026 0.85985 0.0
H805 H 0.35847 0.70203 0.89093 0.0
O806 O 0.37035 0.70148 0.89595 0.0
Co807 Co 0.346 0.69965 0.914 0.0
O808 O 0.32805 0.72177 0.90575 0.0
O809 O 0.3461 0.7325 0.8777 0.0
O810 O 0.35104 0.67294 0.92659 0.0
O811 O 0.38469 0.66907 0.91823 0.0
O812 O 0.39992 0.68768 0.81052 0.0
O813 O 0.39563 0.65831 0.82108 0.0
O814 O 0.3255 0.67995 0.89945 0.0
O815 O 0.33206 0.69018 0.86752 0.0
C816 C 0.41439 0.65142 0.86352 0.0
C817 C 0.3729 0.71861 0.82671 0.0
C818 C 0.35871 0.72098 0.94455 0.0
C819 C 0.41459 0.70814 0.87598 0.0
C820 C 0.33174 0.73465 0.89184 0.0
C821 C 0.3681 0.66541 0.92977 0.0
C822 C 0.398 0.66867 0.80558 0.0
C823 C 0.32138 0.67936 0.88051 0.0
O824 O 0.4155 0.66418 0.84953 0.0
O825 O 0.40021 0.65143 0.87826 0.0
O826 O 0.35705 0.71406 0.83863 0.0
O827 O 0.39 0.71056 0.82827 0.0
O828 O 0.36257 0.72533 0.92626 0.0
O829 O 0.34699 0.70473 0.94565 0.0
O830 O 0.40475 0.70932 0.85991 0.0
O831 O 0.40982 0.69366 0.88793 0.0
Co832 Co 0.93363 0.05852 0.39604 0.0
Co833 Co 0.9084 0.07132 0.35666 0.0
Co834 Co 0.88666 0.04661 0.3898 0.0
H835 H 0.91024 0.0522 0.38681 0.0
O836 O 0.91475 0.04989 0.37422 0.0
H837 H 0.88447 0.06498 0.35965 0.0
O838 O 0.88013 0.06799 0.37222 0.0
Co839 Co 0.86087 0.05609 0.35177 0.0
O840 O 0.86895 0.07481 0.32905 0.0
O841 O 0.90005 0.09075 0.33643 0.0
O842 O 0.84855 0.03131 0.3667 0.0
O843 O 0.85739 0.04044 0.39897 0.0
O844 O 0.96008 0.04871 0.40678 0.0
O845 O 0.94921 0.0364 0.37861 0.0
O846 O 0.8743 0.03652 0.33136 0.0
O847 O 0.90736 0.04855 0.33375 0.0
C848 C 0.90896 0.02739 0.42071 0.0
C849 C 0.9502 0.08583 0.36367 0.0
C850 C 0.82479 0.06486 0.35183 0.0
C851 C 0.90323 0.08162 0.42093 0.0
C852 C 0.88394 0.08814 0.32556 0.0
C853 C 0.8456 0.03018 0.38616 0.0
C854 C 0.96281 0.03601 0.39145 0.0
C855 C 0.89321 0.03625 0.32566 0.0
O856 O 0.92407 0.04119 0.41988 0.0
O857 O 0.89459 0.02572 0.40791 0.0
O858 O 0.93837 0.07789 0.34944 0.0
O859 O 0.94534 0.0845 0.38286 0.0
O860 O 0.8398 0.07801 0.35444 0.0
O861 O 0.83026 0.04677 0.34924 0.0
O862 O 0.9221 0.08102 0.41493 0.0
O863 O 0.88907 0.06891 0.41326 0.0
Co864 Co 0.4419 0.67746 0.63712 0.0
Co865 Co 0.42417 0.65528 0.59556 0.0
Co866 Co 0.44777 0.63097 0.62291 0.0
H867 H 0.44539 0.65457 0.62447 0.0
O868 O 0.44792 0.65988 0.61283 0.0
H869 H 0.42551 0.63113 0.59435 0.0
O870 O 0.4233 0.62628 0.60631 0.0
Co871 Co 0.42707 0.60741 0.5821 0.0
O872 O 0.41179 0.61879 0.56015 0.0
O873 O 0.4019 0.64901 0.57514 0.0
O874 O 0.44873 0.59036 0.59214 0.0
O875 O 0.45002 0.60093 0.6258 0.0
O876 O 0.45042 0.70848 0.64229 0.0
O877 O 0.46518 0.69032 0.619 0.0
O878 O 0.44991 0.62032 0.56469 0.0
O879 O 0.44602 0.65409 0.57212 0.0
C880 C 0.47235 0.65261 0.65604 0.0
C881 C 0.4149 0.69611 0.61072 0.0
C882 C 0.40393 0.57543 0.58229 0.0
C883 C 0.41837 0.6453 0.65899 0.0
C884 C 0.40128 0.63447 0.56054 0.0
C885 C 0.45354 0.58775 0.61052 0.0
C886 C 0.46406 0.70805 0.62783 0.0
C887 C 0.45495 0.63924 0.56213 0.0
O888 O 0.46049 0.66746 0.6576 0.0
O889 O 0.47133 0.63811 0.64139 0.0
O890 O 0.42199 0.68598 0.59432 0.0
O891 O 0.41651 0.68987 0.62863 0.0
O892 O 0.41304 0.58192 0.56629 0.0
O893 O 0.40806 0.58703 0.59813 0.0
O894 O 0.42061 0.66437 0.65595 0.0
O895 O 0.42838 0.63173 0.64827 0.0
Co896 Co 0.89691 0.18286 0.84102 0.0
Co897 Co 0.86076 0.20551 0.86704 0.0
Co898 Co 0.88386 0.17426 0.88762 0.0
H899 H 0.88491 0.17887 0.86416 0.0
O900 O 0.87285 0.17902 0.85928 0.0
H901 H 0.85895 0.20059 0.89013 0.0
O902 O 0.87077 0.2001 0.8953 0.0
Co903 Co 0.84632 0.19786 0.9131 0.0
O904 O 0.82916 0.22074 0.90504 0.0
O905 O 0.84707 0.23123 0.87677 0.0
O906 O 0.85117 0.17094 0.92535 0.0
O907 O 0.88504 0.16775 0.91774 0.0
O908 O 0.9116 0.16822 0.81586 0.0
O909 O 0.87976 0.16962 0.81724 0.0
O910 O 0.82582 0.17869 0.89806 0.0
O911 O 0.8329 0.18895 0.8662 0.0
C912 C 0.91593 0.15081 0.86336 0.0
C913 C 0.87458 0.21699 0.8257 0.0
C914 C 0.85875 0.21656 0.94515 0.0
C915 C 0.91644 0.20686 0.87599 0.0
C916 C 0.83297 0.23362 0.89113 0.0
C917 C 0.8683 0.16383 0.929 0.0
C918 C 0.89512 0.16342 0.80684 0.0
C919 C 0.822 0.17815 0.87906 0.0
O920 O 0.91716 0.1637 0.84951 0.0
O921 O 0.90147 0.15049 0.87783 0.0
O922 O 0.85863 0.21284 0.83768 0.0
O923 O 0.89155 0.20882 0.82742 0.0
O924 O 0.84388 0.20295 0.94479 0.0
O925 O 0.86604 0.21984 0.92739 0.0
O926 O 0.90997 0.20683 0.85792 0.0
O927 O 0.91007 0.19306 0.88826 0.0
Co928 Co 0.94052 0.67633 0.13928 0.0
Co929 Co 0.92424 0.65385 0.09713 0.0
Co930 Co 0.94646 0.62971 0.12567 0.0
H931 H 0.94422 0.65333 0.12694 0.0
O932 O 0.94723 0.65853 0.11533 0.0
H933 H 0.92512 0.62976 0.09649 0.0
O934 O 0.92242 0.62507 0.10847 0.0
Co935 Co 0.92709 0.60598 0.08467 0.0
O936 O 0.91361 0.61745 0.06149 0.0
O937 O 0.90284 0.64751 0.07596 0.0
O938 O 0.94754 0.58822 0.09553 0.0
O939 O 0.94841 0.59965 0.12902 0.0
O940 O 0.9499 0.70716 0.14477 0.0
O941 O 0.96346 0.68906 0.12065 0.0
O942 O 0.95467 0.61884 0.07589 0.0
O943 O 0.94714 0.65159 0.07474 0.0
C944 C 0.97013 0.65138 0.15931 0.0
C945 C 0.91501 0.69471 0.11117 0.0
C946 C 0.90322 0.57448 0.08198 0.0
C947 C 0.91665 0.64452 0.16132 0.0
C948 C 0.90304 0.63305 0.06133 0.0
C949 C 0.95193 0.58603 0.11411 0.0
C950 C 0.96308 0.70667 0.12989 0.0
C951 C 0.95929 0.63709 0.07068 0.0
O952 O 0.9583 0.66625 0.16046 0.0
O953 O 0.96954 0.63691 0.14465 0.0
O954 O 0.92271 0.68447 0.09515 0.0
O955 O 0.91566 0.68852 0.12924 0.0
O956 O 0.91414 0.58107 0.06703 0.0
O957 O 0.90581 0.58583 0.09829 0.0
O958 O 0.91921 0.66362 0.15843 0.0
O959 O 0.92649 0.63087 0.15052 0.0
Co960 Co 0.65613 0.66975 0.42176 0.0
Co961 Co 0.61476 0.64706 0.44273 0.0
Co962 Co 0.64758 0.62121 0.4221 0.0
H963 H 0.64612 0.64508 0.42133 0.0
O964 O 0.63397 0.64791 0.41836 0.0
H965 H 0.6163 0.62343 0.44341 0.0
O966 O 0.62841 0.6205 0.44632 0.0
Co967 Co 0.60601 0.59907 0.44335 0.0
O968 O 0.58161 0.61186 0.45883 0.0
O969 O 0.59449 0.64436 0.46673 0.0
O970 O 0.62064 0.58028 0.4219 0.0
O971 O 0.65384 0.59211 0.42413 0.0
O972 O 0.67252 0.69318 0.40732 0.0
O973 O 0.64068 0.68842 0.40514 0.0
O974 O 0.59184 0.60327 0.41788 0.0
O975 O 0.59206 0.63762 0.42281 0.0
C976 C 0.68068 0.63969 0.39444 0.0
C977 C 0.62199 0.69076 0.44621 0.0
C978 C 0.60583 0.57439 0.47018 0.0
C979 C 0.67812 0.64722 0.45018 0.0
C980 C 0.58053 0.62955 0.4688 0.0
C981 C 0.63988 0.5775 0.42036 0.0
C982 C 0.65673 0.6992 0.40016 0.0
C983 C 0.5859 0.62032 0.41331 0.0
O984 O 0.67866 0.65763 0.40336 0.0
O985 O 0.66861 0.62378 0.39845 0.0
O986 O 0.6082 0.67615 0.44181 0.0
O987 O 0.64126 0.68858 0.44297 0.0
O988 O 0.61738 0.59076 0.46991 0.0
O989 O 0.59432 0.57196 0.45515 0.0
O990 O 0.67409 0.66468 0.44468 0.0
O991 O 0.66957 0.63025 0.44225 0.0
Co992 Co 0.58189 0.65137 0.80739 0.0
Co993 Co 0.6011 0.60983 0.82435 0.0
Co994 Co 0.62843 0.64192 0.80115 0.0
H995 H 0.60458 0.64061 0.80445 0.0
O996 O 0.59875 0.62834 0.80222 0.0
H997 H 0.62509 0.6108 0.81967 0.0
O998 O 0.63116 0.62285 0.823 0.0
Co999 Co 0.64694 0.60007 0.81124 0.0
O1000 O 0.63592 0.57724 0.82927 0.0
O1001 O 0.60609 0.58778 0.84411 0.0
O1002 O 0.66544 0.61477 0.79002 0.0
O1003 O 0.65911 0.64804 0.79666 0.0
O1004 O 0.56124 0.66591 0.79199 0.0
O1005 O 0.56668 0.63527 0.78354 0.0
O1006 O 0.63147 0.59473 0.78533 0.0
O1007 O 0.60094 0.5876 0.80101 0.0
C1008 C 0.61158 0.67526 0.77942 0.0
C1009 C 0.55749 0.61953 0.83262 0.0
C1010 C 0.68083 0.58955 0.8197 0.0
C1011 C 0.61147 0.6727 0.83557 0.0
C1012 C 0.62053 0.57505 0.84212 0.0
C1013 C 0.67057 0.63398 0.78868 0.0
C1014 C 0.55708 0.65033 0.77977 0.0
C1015 C 0.61312 0.58659 0.78499 0.0
O1016 O 0.59549 0.6752 0.79165 0.0
O1017 O 0.62444 0.66136 0.77935 0.0
O1018 O 0.56992 0.60506 0.82844 0.0
O1019 O 0.56235 0.63846 0.82919 0.0
O1020 O 0.67195 0.58349 0.80339 0.0
O1021 O 0.67028 0.60135 0.8314 0.0
O1022 O 0.59278 0.66632 0.83287 0.0
O1023 O 0.62644 0.66592 0.82375 0.0
Co1024 Co 0.31039 0.59062 0.15568 0.0
Co1025 Co 0.29206 0.62789 0.13219 0.0
Co1026 Co 0.32151 0.59948 0.10801 0.0
H1027 H 0.31559 0.6004 0.13223 0.0
O1028 O 0.31626 0.61302 0.13756 0.0
H1029 H 0.29865 0.6275 0.10885 0.0
O1030 O 0.29805 0.61529 0.10271 0.0
Co1031 Co 0.30508 0.63926 0.08714 0.0
O1032 O 0.28492 0.66008 0.09837 0.0
O1033 O 0.26886 0.64442 0.12491 0.0
O1034 O 0.33213 0.62993 0.07423 0.0
O1035 O 0.32894 0.59567 0.07698 0.0
O1036 O 0.32844 0.5773 0.17527 0.0
O1037 O 0.32012 0.60713 0.18243 0.0
O1038 O 0.3289 0.65185 0.10314 0.0
O1039 O 0.311 0.65393 0.13315 0.0
C1040 C 0.34117 0.56648 0.12896 0.0
C1041 C 0.27995 0.62112 0.17555 0.0
C1042 C 0.28442 0.64111 0.05638 0.0
C1043 C 0.28844 0.56684 0.12066 0.0
C1044 C 0.27008 0.65846 0.11199 0.0
C1045 C 0.33505 0.61159 0.06681 0.0
C1046 C 0.32993 0.59291 0.18791 0.0
C1047 C 0.32632 0.65993 0.12142 0.0
O1048 O 0.32804 0.56769 0.14426 0.0
O1049 O 0.3428 0.57964 0.11489 0.0
O1050 O 0.28438 0.63424 0.16204 0.0
O1051 O 0.28676 0.60305 0.17376 0.0
O1052 O 0.29399 0.65645 0.06548 0.0
O1053 O 0.28686 0.62477 0.06456 0.0
O1054 O 0.28999 0.5713 0.14001 0.0
O1055 O 0.29995 0.57562 0.10687 0.0
Co1056 Co 0.6605 0.80828 0.59359 0.0
Co1057 Co 0.62312 0.83204 0.61858 0.0
Co1058 Co 0.64492 0.7998 0.63906 0.0
H1059 H 0.64725 0.80513 0.61613 0.0
O1060 O 0.63559 0.8059 0.61073 0.0
H1061 H 0.62081 0.82662 0.64195 0.0
O1062 O 0.63266 0.8261 0.64716 0.0
Co1063 Co 0.60792 0.82279 0.66482 0.0
O1064 O 0.58962 0.8439 0.65652 0.0
O1065 O 0.60624 0.85637 0.62827 0.0
O1066 O 0.61322 0.79607 0.67746 0.0
O1067 O 0.64639 0.7921 0.66822 0.0
O1068 O 0.66311 0.80287 0.56194 0.0
O1069 O 0.64033 0.78674 0.57933 0.0
O1070 O 0.58553 0.80798 0.64832 0.0
O1071 O 0.59629 0.81454 0.61594 0.0
C1072 C 0.67358 0.77233 0.61523 0.0
C1073 C 0.64016 0.84323 0.57775 0.0
C1074 C 0.61111 0.83981 0.69996 0.0
C1075 C 0.6841 0.82726 0.62837 0.0
C1076 C 0.59169 0.85676 0.64263 0.0
C1077 C 0.63009 0.78779 0.67961 0.0
C1078 C 0.6479 0.78964 0.56159 0.0
C1079 C 0.58324 0.80648 0.62895 0.0
O1080 O 0.6777 0.78558 0.60174 0.0
O1081 O 0.65897 0.77423 0.62916 0.0
O1082 O 0.62319 0.83951 0.58866 0.0
O1083 O 0.65695 0.83556 0.58151 0.0
O1084 O 0.59433 0.83606 0.69125 0.0
O1085 O 0.62606 0.83367 0.68882 0.0
O1086 O 0.68081 0.82706 0.60928 0.0
O1087 O 0.67275 0.81636 0.64082 0.0
Co1088 Co 0.70185 0.36719 0.92 0.0
Co1089 Co 0.68548 0.40753 0.89917 0.0
Co1090 Co 0.71507 0.37923 0.87503 0.0
H1091 H 0.7082 0.37924 0.89838 0.0
O1092 O 0.70875 0.39143 0.90457 0.0
H1093 H 0.69122 0.40658 0.87493 0.0
O1094 O 0.69069 0.39395 0.86964 0.0
Co1095 Co 0.69599 0.41645 0.85146 0.0
O1096 O 0.67866 0.43959 0.863 0.0
O1097 O 0.66424 0.42755 0.89244 0.0
O1098 O 0.71962 0.40426 0.8333 0.0
O1099 O 0.72306 0.3733 0.84515 0.0
O1100 O 0.71259 0.34994 0.94182 0.0
O1101 O 0.71983 0.38159 0.94292 0.0
O1102 O 0.71624 0.43619 0.8669 0.0
O1103 O 0.70721 0.43132 0.90013 0.0
C1104 C 0.73737 0.34875 0.89513 0.0
C1105 C 0.67213 0.39534 0.94005 0.0
C1106 C 0.67648 0.41384 0.81911 0.0
C1107 C 0.68267 0.3443 0.88522 0.0
C1108 C 0.66574 0.44079 0.87845 0.0
C1109 C 0.72691 0.38641 0.83154 0.0
C1110 C 0.72217 0.36519 0.95106 0.0
C1111 C 0.71824 0.4405 0.88622 0.0
O1112 O 0.72259 0.34697 0.90879 0.0
O1113 O 0.73842 0.36282 0.88225 0.0
O1114 O 0.67824 0.4114 0.93014 0.0
O1115 O 0.67464 0.37708 0.9321 0.0
O1116 O 0.67725 0.42925 0.83204 0.0
O1117 O 0.6869 0.40001 0.82442 0.0
O1118 O 0.68005 0.35044 0.90415 0.0
O1119 O 0.69659 0.35288 0.87343 0.0
Co1120 Co 0.07729 0.89951 0.42355 0.0
Co1121 Co 0.05937 0.87646 0.38167 0.0
Co1122 Co 0.08089 0.85185 0.41043 0.0
H1123 H 0.07998 0.87598 0.41137 0.0
O1124 O 0.08302 0.88088 0.39954 0.0
H1125 H 0.06126 0.85277 0.38049 0.0
O1126 O 0.05801 0.84761 0.39209 0.0
Co1127 Co 0.06479 0.82963 0.36832 0.0
O1128 O 0.0471 0.83964 0.34703 0.0
O1129 O 0.03659 0.86956 0.36227 0.0
O1130 O 0.08963 0.81728 0.37815 0.0
O1131 O 0.08221 0.8211 0.41213 0.0
O1132 O 0.07941 0.92892 0.4375 0.0
O1133 O 0.10458 0.91748 0.42057 0.0
O1134 O 0.08692 0.84215 0.35007 0.0
O1135 O 0.07983 0.87507 0.35712 0.0
C1136 C 0.10253 0.87241 0.44606 0.0
C1137 C 0.05381 0.91998 0.39327 0.0
C1138 C 0.04235 0.79914 0.37735 0.0
C1139 C 0.04523 0.868 0.4359 0.0
C1140 C 0.03563 0.85478 0.34791 0.0
C1141 C 0.09003 0.81089 0.39615 0.0
C1142 C 0.09772 0.93271 0.43101 0.0
C1143 C 0.08983 0.86116 0.3469 0.0
O1144 O 0.09206 0.88808 0.44597 0.0
O1145 O 0.1023 0.85778 0.4316 0.0
O1146 O 0.05783 0.90659 0.37829 0.0
O1147 O 0.05734 0.91734 0.41198 0.0
O1148 O 0.05626 0.79861 0.36315 0.0
O1149 O 0.04109 0.81691 0.38601 0.0
O1150 O 0.04934 0.88594 0.42975 0.0
O1151 O 0.05806 0.85401 0.43292 0.0
Co1152 Co 0.40113 0.40874 0.56293 0.0
Co1153 Co 0.35941 0.38598 0.58321 0.0
Co1154 Co 0.39306 0.36072 0.56401 0.0
H1155 H 0.39117 0.38426 0.5629 0.0
O1156 O 0.37911 0.38681 0.55951 0.0
H1157 H 0.36086 0.36194 0.58388 0.0
O1158 O 0.37284 0.35933 0.58755 0.0
Co1159 Co 0.35116 0.33705 0.58225 0.0
O1160 O 0.33005 0.34904 0.60278 0.0
O1161 O 0.33811 0.38335 0.6064 0.0
O1162 O 0.36809 0.31943 0.56143 0.0
O1163 O 0.40052 0.33221 0.56575 0.0
O1164 O 0.41199 0.43623 0.55146 0.0
O1165 O 0.38942 0.41689 0.53649 0.0
O1166 O 0.33237 0.34269 0.56036 0.0
O1167 O 0.33775 0.37701 0.56271 0.0
C1168 C 0.42749 0.37854 0.53826 0.0
C1169 C 0.36643 0.42998 0.5841 0.0
C1170 C 0.3465 0.30293 0.59642 0.0
C1171 C 0.42081 0.38835 0.59387 0.0
C1172 C 0.32716 0.36703 0.61122 0.0
C1173 C 0.38749 0.31748 0.55998 0.0
C1174 C 0.40045 0.4336 0.53645 0.0
C1175 C 0.3287 0.36024 0.55496 0.0
O1176 O 0.42612 0.39639 0.54785 0.0
O1177 O 0.41381 0.36359 0.54062 0.0
O1178 O 0.35294 0.41489 0.58059 0.0
O1179 O 0.38573 0.42766 0.58367 0.0
O1180 O 0.34302 0.30614 0.57821 0.0
O1181 O 0.35263 0.31921 0.60675 0.0
O1182 O 0.41517 0.40527 0.58863 0.0
O1183 O 0.41479 0.37088 0.58467 0.0
Co1184 Co 0.35748 0.40541 0.19249 0.0
Co1185 Co 0.37711 0.3649 0.20594 0.0
Co1186 Co 0.4041 0.3965 0.1818 0.0
H1187 H 0.38002 0.39511 0.18588 0.0
O1188 O 0.37432 0.3828 0.18311 0.0
H1189 H 0.40091 0.36618 0.20244 0.0
O1190 O 0.4067 0.37851 0.20433 0.0
Co1191 Co 0.42357 0.35544 0.19974 0.0
O1192 O 0.40982 0.33177 0.2156 0.0
O1193 O 0.38133 0.34619 0.22837 0.0
O1194 O 0.44343 0.36854 0.1783 0.0
O1195 O 0.43524 0.40169 0.1779 0.0
O1196 O 0.33658 0.42385 0.18215 0.0
O1197 O 0.33044 0.39197 0.18105 0.0
O1198 O 0.41244 0.33995 0.17456 0.0
O1199 O 0.37888 0.3403 0.18408 0.0
C1200 C 0.38499 0.43142 0.16388 0.0
C1201 C 0.33543 0.3735 0.21875 0.0
C1202 C 0.44808 0.35705 0.2277 0.0
C1203 C 0.39025 0.42167 0.21986 0.0
C1204 C 0.39395 0.33204 0.22813 0.0
C1205 C 0.44794 0.38738 0.17428 0.0
C1206 C 0.32388 0.40881 0.17758 0.0
C1207 C 0.39373 0.33344 0.17218 0.0
O1208 O 0.36943 0.42942 0.17657 0.0
O1209 O 0.399 0.41822 0.16169 0.0
O1210 O 0.3465 0.35903 0.21098 0.0
O1211 O 0.34034 0.39249 0.21581 0.0
O1212 O 0.44495 0.34165 0.21496 0.0
O1213 O 0.43761 0.37159 0.22426 0.0
O1214 O 0.37157 0.41461 0.21865 0.0
O1215 O 0.40361 0.41888 0.20499 0.0
Co1216 Co 0.39773 0.18331 0.34117 0.0
Co1217 Co 0.36122 0.20663 0.36772 0.0
Co1218 Co 0.38351 0.17438 0.38774 0.0
H1219 H 0.38531 0.17971 0.36433 0.0
O1220 O 0.37335 0.18029 0.35939 0.0
H1221 H 0.35934 0.20135 0.39065 0.0
O1222 O 0.3711 0.20051 0.39584 0.0
Co1223 Co 0.34641 0.19846 0.41338 0.0
O1224 O 0.3286 0.22066 0.40524 0.0
O1225 O 0.34723 0.23221 0.37787 0.0
O1226 O 0.35044 0.1714 0.42573 0.0
O1227 O 0.38401 0.16699 0.41764 0.0
O1228 O 0.41015 0.16649 0.31617 0.0
O1229 O 0.38001 0.17487 0.31621 0.0
O1230 O 0.32625 0.17905 0.3981 0.0
O1231 O 0.33337 0.19003 0.36653 0.0
C1232 C 0.41471 0.14965 0.36317 0.0
C1233 C 0.37541 0.21869 0.32708 0.0
C1234 C 0.35903 0.21935 0.44421 0.0
C1235 C 0.42314 0.1999 0.37644 0.0
C1236 C 0.33255 0.23394 0.39176 0.0
C1237 C 0.36727 0.16349 0.42897 0.0
C1238 C 0.394 0.16557 0.30636 0.0
C1239 C 0.32245 0.17891 0.37913 0.0
O1240 O 0.4164 0.16239 0.34917 0.0
O1241 O 0.40037 0.15006 0.37776 0.0
O1242 O 0.35924 0.21438 0.33865 0.0
O1243 O 0.39223 0.21015 0.32878 0.0
O1244 O 0.36371 0.22346 0.42599 0.0
O1245 O 0.34658 0.20358 0.44507 0.0
O1246 O 0.42043 0.19828 0.35714 0.0
O1247 O 0.41037 0.19191 0.38976 0.0
Co1248 Co 0.94001 0.17716 0.63767 0.0
Co1249 Co 0.92322 0.1542 0.59585 0.0
Co1250 Co 0.94733 0.13092 0.62357 0.0
H1251 H 0.94429 0.15443 0.62502 0.0
O1252 O 0.94677 0.15968 0.61334 0.0
H1253 H 0.9247 0.1301 0.59524 0.0
O1254 O 0.92268 0.12556 0.60735 0.0
Co1255 Co 0.9262 0.10613 0.58355 0.0
O1256 O 0.91086 0.1167 0.56123 0.0
O1257 O 0.90108 0.14725 0.57539 0.0
O1258 O 0.94817 0.08947 0.59348 0.0
O1259 O 0.95026 0.10105 0.62682 0.0
O1260 O 0.95106 0.20623 0.6485 0.0
O1261 O 0.95875 0.19457 0.61851 0.0
O1262 O 0.94871 0.11865 0.56547 0.0
O1263 O 0.94518 0.15254 0.5725 0.0
C1264 C 0.97188 0.15333 0.65616 0.0
C1265 C 0.91328 0.19469 0.61003 0.0
C1266 C 0.90284 0.07441 0.5852 0.0
C1267 C 0.91777 0.14461 0.65984 0.0
C1268 C 0.90042 0.13238 0.56114 0.0
C1269 C 0.95349 0.08749 0.61181 0.0
C1270 C 0.96086 0.20957 0.63174 0.0
C1271 C 0.95388 0.13749 0.56259 0.0
O1272 O 0.95957 0.16782 0.65778 0.0
O1273 O 0.97105 0.13875 0.6416 0.0
O1274 O 0.92079 0.18463 0.59382 0.0
O1275 O 0.91434 0.18829 0.62796 0.0
O1276 O 0.91125 0.08057 0.56875 0.0
O1277 O 0.90779 0.08619 0.60067 0.0
O1278 O 0.91896 0.1636 0.65649 0.0
O1279 O 0.92837 0.13149 0.64918 0.0
Co1280 Co 0.81087 0.09065 0.15576 0.0
Co1281 Co 0.79244 0.12785 0.13184 0.0
Co1282 Co 0.82164 0.09907 0.10781 0.0
H1283 H 0.81588 0.10019 0.13211 0.0
O1284 O 0.81662 0.11286 0.13729 0.0
H1285 H 0.7993 0.12769 0.10848 0.0
O1286 O 0.79862 0.11547 0.10234 0.0
Co1287 Co 0.80572 0.13961 0.08679 0.0
O1288 O 0.78509 0.16002 0.09784 0.0
O1289 O 0.76927 0.14444 0.12455 0.0
O1290 O 0.83299 0.12942 0.07519 0.0
O1291 O 0.82886 0.09511 0.07682 0.0
O1292 O 0.80994 0.09375 0.18771 0.0
O1293 O 0.838 0.09259 0.17135 0.0
O1294 O 0.82744 0.15665 0.1025 0.0
O1295 O 0.81118 0.154 0.13335 0.0
C1296 C 0.8411 0.06581 0.12893 0.0
C1297 C 0.78014 0.12101 0.17527 0.0
C1298 C 0.78544 0.14121 0.05565 0.0
C1299 C 0.78848 0.06666 0.12096 0.0
C1300 C 0.77035 0.15842 0.11157 0.0
C1301 C 0.83515 0.11119 0.067 0.0
C1302 C 0.82913 0.09433 0.18894 0.0
C1303 C 0.82501 0.16263 0.1215 0.0
O1304 O 0.82842 0.06752 0.14457 0.0
O1305 O 0.84253 0.07871 0.11462 0.0
O1306 O 0.78452 0.13406 0.16169 0.0
O1307 O 0.78705 0.10298 0.1736 0.0
O1308 O 0.79496 0.15657 0.06476 0.0
O1309 O 0.78781 0.12492 0.06396 0.0
O1310 O 0.7906 0.07099 0.14025 0.0
O1311 O 0.79957 0.07563 0.10696 0.0
Co1312 Co 0.43192 0.55866 0.39761 0.0
Co1313 Co 0.4088 0.56976 0.35678 0.0
Co1314 Co 0.38507 0.54687 0.39029 0.0
H1315 H 0.40877 0.55198 0.3879 0.0
O1316 O 0.41377 0.54903 0.37562 0.0
H1317 H 0.38495 0.56374 0.35884 0.0
O1318 O 0.37977 0.5673 0.37099 0.0
Co1319 Co 0.36232 0.55402 0.34953 0.0
O1320 O 0.37316 0.56923 0.32484 0.0
O1321 O 0.40168 0.58829 0.3353 0.0
O1322 O 0.34335 0.53574 0.36731 0.0
O1323 O 0.35537 0.54195 0.39907 0.0
O1324 O 0.45656 0.54672 0.40963 0.0
O1325 O 0.44821 0.53743 0.37971 0.0
O1326 O 0.37796 0.52894 0.34289 0.0
O1327 O 0.40801 0.54584 0.33505 0.0
C1328 C 0.40611 0.52908 0.4231 0.0
C1329 C 0.45038 0.58454 0.36497 0.0
C1330 C 0.32797 0.56313 0.34076 0.0
C1331 C 0.40133 0.58281 0.42079 0.0
C1332 C 0.38743 0.58357 0.3224 0.0
C1333 C 0.34115 0.53522 0.38688 0.0
C1334 C 0.46028 0.53524 0.39359 0.0
C1335 C 0.39583 0.52943 0.33406 0.0
O1336 O 0.42138 0.54267 0.422 0.0
O1337 O 0.39197 0.52693 0.41 0.0
O1338 O 0.43912 0.5758 0.35059 0.0
O1339 O 0.44488 0.58391 0.38409 0.0
O1340 O 0.33463 0.54567 0.33642 0.0
O1341 O 0.3409 0.57547 0.34991 0.0
O1342 O 0.42033 0.58171 0.41559 0.0
O1343 O 0.38724 0.57021 0.41284 0.0
Co1344 Co 0.64329 0.45345 0.65675 0.0
Co1345 Co 0.62026 0.4607 0.61615 0.0
Co1346 Co 0.59685 0.43811 0.65004 0.0
H1347 H 0.62063 0.4439 0.64758 0.0
O1348 O 0.62568 0.44028 0.6354 0.0
H1349 H 0.59655 0.45549 0.61861 0.0
O1350 O 0.59164 0.45853 0.63091 0.0
Co1351 Co 0.5733 0.44872 0.60907 0.0
O1352 O 0.58359 0.46519 0.58487 0.0
O1353 O 0.61324 0.48069 0.59655 0.0
O1354 O 0.56055 0.42382 0.62342 0.0
O1355 O 0.56669 0.43245 0.65676 0.0
O1356 O 0.66805 0.45672 0.67524 0.0
O1357 O 0.66657 0.43422 0.65057 0.0
O1358 O 0.58496 0.42601 0.5906 0.0
O1359 O 0.61804 0.43744 0.59356 0.0
C1360 C 0.61835 0.42508 0.68482 0.0
C1361 C 0.66441 0.47188 0.61922 0.0
C1362 C 0.5442 0.47129 0.61286 0.0
C1363 C 0.61026 0.47878 0.67172 0.0
C1364 C 0.59888 0.47875 0.5837 0.0
C1365 C 0.55522 0.42364 0.64263 0.0
C1366 C 0.67688 0.44233 0.66528 0.0
C1367 C 0.60397 0.42496 0.58542 0.0
O1368 O 0.63249 0.43948 0.68218 0.0
O1369 O 0.60421 0.41998 0.67186 0.0
O1370 O 0.64993 0.46558 0.6072 0.0
O1371 O 0.6625 0.47122 0.63879 0.0
O1372 O 0.54731 0.45867 0.59753 0.0
O1373 O 0.55734 0.47074 0.62614 0.0
O1374 O 0.62814 0.47893 0.66296 0.0
O1375 O 0.59799 0.46244 0.67121 0.0
Co1376 Co 0.19978 0.86792 0.92036 0.0
Co1377 Co 0.18376 0.90816 0.89948 0.0
Co1378 Co 0.21179 0.87861 0.87482 0.0
H1379 H 0.20576 0.87928 0.89832 0.0
O1380 O 0.20681 0.89156 0.90432 0.0
H1381 H 0.18866 0.90648 0.87521 0.0
O1382 O 0.18753 0.89379 0.87009 0.0
Co1383 Co 0.19366 0.91573 0.85161 0.0
O1384 O 0.17677 0.93933 0.86283 0.0
O1385 O 0.16294 0.92856 0.89305 0.0
O1386 O 0.21802 0.90413 0.83453 0.0
O1387 O 0.21882 0.87215 0.84474 0.0
O1388 O 0.21161 0.85114 0.94191 0.0
O1389 O 0.21788 0.88293 0.9428 0.0
O1390 O 0.21878 0.92786 0.86627 0.0
O1391 O 0.2063 0.93124 0.89909 0.0
C1392 C 0.23419 0.84815 0.89485 0.0
C1393 C 0.17117 0.89692 0.94071 0.0
C1394 C 0.17394 0.91365 0.81947 0.0
C1395 C 0.17806 0.84611 0.88666 0.0
C1396 C 0.16431 0.94128 0.87861 0.0
C1397 C 0.22419 0.88584 0.832 0.0
C1398 C 0.2209 0.86671 0.95092 0.0
C1399 C 0.22042 0.93477 0.88506 0.0
O1400 O 0.21982 0.84698 0.90901 0.0
O1401 O 0.23503 0.86184 0.88158 0.0
O1402 O 0.17757 0.91273 0.93055 0.0
O1403 O 0.17306 0.87849 0.93293 0.0
O1404 O 0.17509 0.92909 0.83237 0.0
O1405 O 0.184 0.89956 0.82478 0.0
O1406 O 0.17615 0.85359 0.90525 0.0
O1407 O 0.1926 0.85277 0.87436 0.0
Co1408 Co 0.64466 0.94952 0.15594 0.0
Co1409 Co 0.62066 0.9609 0.11705 0.0
Co1410 Co 0.59718 0.93757 0.1504 0.0
H1411 H 0.62112 0.94217 0.14736 0.0
O1412 O 0.62562 0.93905 0.13486 0.0
H1413 H 0.59687 0.95607 0.11968 0.0
O1414 O 0.59225 0.95885 0.13214 0.0
Co1415 Co 0.57332 0.95014 0.11054 0.0
O1416 O 0.58357 0.96778 0.08725 0.0
O1417 O 0.61386 0.98205 0.09862 0.0
O1418 O 0.55999 0.92527 0.12455 0.0
O1419 O 0.56703 0.93296 0.15782 0.0
O1420 O 0.66655 0.941 0.17452 0.0
O1421 O 0.66893 0.93428 0.14268 0.0
O1422 O 0.58444 0.92765 0.09129 0.0
O1423 O 0.6177 0.93868 0.09361 0.0
C1424 C 0.61862 0.92256 0.18426 0.0
C1425 C 0.6649 0.97156 0.12015 0.0
C1426 C 0.54433 0.97278 0.11573 0.0
C1427 C 0.61359 0.97671 0.17343 0.0
C1428 C 0.59913 0.98105 0.08624 0.0
C1429 C 0.555 0.92489 0.14382 0.0
C1430 C 0.67693 0.93299 0.15957 0.0
C1431 C 0.60333 0.92652 0.08558 0.0
O1432 O 0.6336 0.93607 0.1815 0.0
O1433 O 0.60414 0.91849 0.17151 0.0
O1434 O 0.65036 0.96574 0.10801 0.0
O1435 O 0.66331 0.96928 0.13951 0.0
O1436 O 0.54629 0.95955 0.10069 0.0
O1437 O 0.55861 0.97284 0.12791 0.0
O1438 O 0.63159 0.97572 0.16504 0.0
O1439 O 0.59994 0.96149 0.17193 0.0
Co1440 Co 0.43333 0.05867 0.89704 0.0
Co1441 Co 0.40971 0.06959 0.85613 0.0
Co1442 Co 0.38659 0.04631 0.8895 0.0
H1443 H 0.41024 0.05191 0.88729 0.0
O1444 O 0.41524 0.04909 0.87498 0.0
H1445 H 0.3859 0.06312 0.85829 0.0
O1446 O 0.38079 0.06669 0.87045 0.0
Co1447 Co 0.36332 0.05266 0.8494 0.0
O1448 O 0.37257 0.06981 0.82557 0.0
O1449 O 0.40214 0.0879 0.83472 0.0
O1450 O 0.34924 0.02937 0.8652 0.0
O1451 O 0.35692 0.0402 0.89752 0.0
O1452 O 0.45912 0.04792 0.90825 0.0
O1453 O 0.44916 0.03701 0.87929 0.0
O1454 O 0.37954 0.02803 0.84263 0.0
O1455 O 0.40915 0.04563 0.83446 0.0
C1456 C 0.40786 0.02856 0.9222 0.0
C1457 C 0.45104 0.08479 0.86433 0.0
C1458 C 0.32817 0.06121 0.84267 0.0
C1459 C 0.40211 0.08216 0.9203 0.0
C1460 C 0.38706 0.08385 0.82268 0.0
C1461 C 0.34556 0.02931 0.88469 0.0
C1462 C 0.46219 0.03579 0.89253 0.0
C1463 C 0.3974 0.02892 0.83379 0.0
O1464 O 0.42304 0.04227 0.92128 0.0
O1465 O 0.39382 0.02639 0.90901 0.0
O1466 O 0.43992 0.07602 0.84987 0.0
O1467 O 0.44529 0.08428 0.88341 0.0
O1468 O 0.33896 0.0502 0.83036 0.0
O1469 O 0.33742 0.06752 0.85868 0.0
O1470 O 0.42116 0.08131 0.91517 0.0
O1471 O 0.38815 0.06945 0.91226 0.0
Co1472 Co 0.81076 0.59007 0.65677 0.0
Co1473 Co 0.79181 0.62693 0.63304 0.0
Co1474 Co 0.8209 0.59825 0.6087 0.0
H1475 H 0.81544 0.59948 0.63305 0.0
O1476 O 0.81619 0.61217 0.63817 0.0
H1477 H 0.79789 0.62624 0.60956 0.0
O1478 O 0.79724 0.61394 0.60362 0.0
Co1479 Co 0.80365 0.63769 0.58752 0.0
O1480 O 0.78355 0.65855 0.59892 0.0
O1481 O 0.76836 0.64331 0.62611 0.0
O1482 O 0.83057 0.62828 0.57434 0.0
O1483 O 0.82776 0.59409 0.57758 0.0
O1484 O 0.82943 0.57746 0.67637 0.0
O1485 O 0.82014 0.60693 0.68349 0.0
O1486 O 0.82765 0.65104 0.60277 0.0
O1487 O 0.8107 0.65302 0.63332 0.0
C1488 C 0.84124 0.56567 0.62972 0.0
C1489 C 0.78019 0.62059 0.67646 0.0
C1490 C 0.78277 0.63923 0.55684 0.0
C1491 C 0.78845 0.56541 0.62241 0.0
C1492 C 0.76916 0.65719 0.61304 0.0
C1493 C 0.83354 0.60989 0.56713 0.0
C1494 C 0.83045 0.5931 0.689 0.0
C1495 C 0.82553 0.65916 0.62109 0.0
O1496 O 0.82857 0.56721 0.64538 0.0
O1497 O 0.84239 0.57851 0.61537 0.0
O1498 O 0.78471 0.63365 0.66292 0.0
O1499 O 0.787 0.60251 0.67477 0.0
O1500 O 0.79171 0.65475 0.56627 0.0
O1501 O 0.78593 0.62288 0.56465 0.0
O1502 O 0.79045 0.57009 0.64167 0.0
O1503 O 0.79941 0.57432 0.6083 0.0
Co1504 Co 0.20112 0.36753 0.41959 0.0
Co1505 Co 0.18474 0.40763 0.39884 0.0
Co1506 Co 0.21375 0.37898 0.37453 0.0
H1507 H 0.20734 0.37937 0.39791 0.0
O1508 O 0.20809 0.3916 0.40402 0.0
H1509 H 0.1903 0.40652 0.37456 0.0
O1510 O 0.18952 0.39387 0.36935 0.0
Co1511 Co 0.19511 0.41608 0.35096 0.0
O1512 O 0.17736 0.43894 0.3623 0.0
O1513 O 0.16343 0.4275 0.39221 0.0
O1514 O 0.2191 0.40393 0.33325 0.0
O1515 O 0.22114 0.37259 0.3447 0.0
O1516 O 0.21195 0.35085 0.44176 0.0
O1517 O 0.21964 0.38241 0.44171 0.0
O1518 O 0.21523 0.43614 0.36615 0.0
O1519 O 0.20644 0.43149 0.39948 0.0
C1520 C 0.23602 0.34835 0.39439 0.0
C1521 C 0.17147 0.39556 0.4398 0.0
C1522 C 0.1755 0.41291 0.31872 0.0
C1523 C 0.18028 0.34562 0.38551 0.0
C1524 C 0.16463 0.44038 0.37791 0.0
C1525 C 0.22584 0.38583 0.33139 0.0
C1526 C 0.22182 0.36629 0.45037 0.0
C1527 C 0.2173 0.44062 0.38542 0.0
O1528 O 0.22142 0.3468 0.40829 0.0
O1529 O 0.23702 0.36242 0.38152 0.0
O1530 O 0.17771 0.41158 0.42986 0.0
O1531 O 0.17398 0.37727 0.43195 0.0
O1532 O 0.17631 0.42852 0.33139 0.0
O1533 O 0.18598 0.3992 0.3242 0.0
O1534 O 0.17797 0.3526 0.40422 0.0
O1535 O 0.1948 0.35295 0.37356 0.0
H1536 H 0.1308 0.00986 0.57417 0.0
H1537 H 0.07769 0.03963 0.47361 0.0
H1538 H 0.07325 0.98032 0.55256 0.0
H1539 H 0.13201 0.07302 0.49832 0.0
H1540 H 0.07707 0.01625 0.50126 0.0
H1541 H 0.13257 0.03198 0.54548 0.0
C1542 C 0.11853 0.008 0.56342 0.0
C1543 C 0.10184 0.99318 0.56583 0.0
C1544 C 0.08915 0.02867 0.50062 0.0
C1545 C 0.10384 0.01843 0.53289 0.0
C1546 C 0.08952 0.04197 0.48483 0.0
C1547 C 0.10484 0.05831 0.48381 0.0
C1548 C 0.10423 0.03175 0.51545 0.0
C1549 C 0.11987 0.06064 0.49864 0.0
C1550 C 0.11957 0.02064 0.54703 0.0
C1551 C 0.08642 0.99151 0.55137 0.0
N1552 N 0.11915 0.04754 0.5139 0.0
N1553 N 0.08781 0.00396 0.53554 0.0
H1554 H 0.02589 0.32068 0.81871 0.0
H1555 H 0.95725 0.38705 0.75509 0.0
H1556 H 0.01318 0.38353 0.83819 0.0
H1557 H 0.96764 0.32311 0.73866 0.0
H1558 H 0.97776 0.38641 0.78545 0.0
H1559 H 0.00429 0.32148 0.78953 0.0
C1560 C 0.01848 0.33466 0.81692 0.0
C1561 C 0.02148 0.35212 0.83091 0.0
C1562 C 0.97558 0.37253 0.77519 0.0
C1563 C 0.99666 0.35314 0.79727 0.0
C1564 C 0.96395 0.37291 0.75783 0.0
C1565 C 0.96084 0.35511 0.74434 0.0
C1566 C 0.98415 0.35423 0.77905 0.0
C1567 C 0.96976 0.33719 0.74863 0.0
C1568 C 0.00611 0.33509 0.8002 0.0
C1569 C 0.01129 0.36971 0.82782 0.0
N1570 N 0.981 0.33721 0.76561 0.0
N1571 N 0.99942 0.36981 0.81124 0.0
H1572 H 0.63868 0.2308 0.94134 0.0
H1573 H 0.61372 0.26356 0.05966 0.0
H1574 H 0.5948 0.19638 0.9799 0.0
H1575 H 0.66216 0.29308 0.0219 0.0
H1576 H 0.60069 0.2439 0.0288 0.0
H1577 H 0.64023 0.25928 0.96814 0.0
C1578 C 0.62878 0.2296 0.95521 0.0
C1579 C 0.61678 0.21122 0.9586 0.0
C1580 C 0.61402 0.25484 0.02722 0.0
C1581 C 0.61907 0.2433 0.98963 0.0
C1582 C 0.62154 0.26599 0.04482 0.0
C1583 C 0.63928 0.27965 0.04331 0.0
C1584 C 0.62435 0.25737 0.00798 0.0
C1585 C 0.64863 0.28246 0.02374 0.0
C1586 C 0.62984 0.24575 0.97059 0.0
C1587 C 0.60425 0.21034 0.97676 0.0
N1588 N 0.64117 0.27123 0.00684 0.0
N1589 N 0.60611 0.226 0.99188 0.0
H1590 H 0.74149 0.84806 0.31819 0.0
H1591 H 0.82902 0.90501 0.24952 0.0
H1592 H 0.74455 0.91235 0.30572 0.0
H1593 H 0.81148 0.84084 0.232 0.0
H1594 H 0.80143 0.90526 0.27568 0.0
H1595 H 0.76903 0.84262 0.29102 0.0
C1596 C 0.74776 0.86097 0.30972 0.0
C1597 C 0.74068 0.88077 0.31446 0.0
C1598 C 0.80345 0.89106 0.26615 0.0
C1599 C 0.77225 0.87464 0.28374 0.0
C1600 C 0.81933 0.89083 0.25109 0.0
C1601 C 0.82245 0.87297 0.23802 0.0
C1602 C 0.79026 0.87328 0.26863 0.0
C1603 C 0.80955 0.85502 0.24154 0.0
C1604 C 0.76342 0.8578 0.29422 0.0
C1605 C 0.7494 0.89684 0.30287 0.0
N1606 N 0.79385 0.85563 0.25649 0.0
N1607 N 0.76473 0.89344 0.28834 0.0
H1608 H 0.10525 0.28469 0.71313 0.0
H1609 H 0.14681 0.18147 0.74958 0.0
H1610 H 0.15862 0.25795 0.6832 0.0
H1611 H 0.0913 0.20831 0.77404 0.0
H1612 H 0.15298 0.20953 0.72635 0.0
H1613 H 0.10196 0.25764 0.73684 0.0
C1614 C 0.11644 0.27319 0.71157 0.0
C1615 C 0.13221 0.2737 0.69592 0.0
C1616 C 0.13949 0.20925 0.73683 0.0
C1617 C 0.12835 0.2421 0.72341 0.0
C1618 C 0.13591 0.19321 0.75013 0.0
C1619 C 0.11846 0.19239 0.76392 0.0
C1620 C 0.12557 0.2247 0.73733 0.0
C1621 C 0.10497 0.20814 0.76381 0.0
C1622 C 0.11449 0.25762 0.7252 0.0
C1623 C 0.14625 0.25829 0.695 0.0
N1624 N 0.10881 0.2235 0.75082 0.0
N1625 N 0.14393 0.24306 0.70846 0.0
H1626 H 0.73254 0.33035 0.96768 0.0
H1627 H 0.81723 0.39211 0.03922 0.0
H1628 H 0.74489 0.39658 0.97183 0.0
H1629 H 0.80454 0.32587 0.03704 0.0
H1630 H 0.79073 0.39377 0.01457 0.0
H1631 H 0.75837 0.32818 0.9933 0.0
C1632 C 0.74055 0.34445 0.97414 0.0
C1633 C 0.73652 0.36369 0.96767 0.0
C1634 C 0.7937 0.37885 0.01945 0.0
C1635 C 0.76625 0.36131 0.99683 0.0
C1636 C 0.80892 0.37786 0.03356 0.0
C1637 C 0.81322 0.35879 0.04032 0.0
C1638 C 0.78257 0.36066 0.01191 0.0
C1639 C 0.80182 0.34092 0.03231 0.0
C1640 C 0.75536 0.34319 0.9887 0.0
C1641 C 0.74747 0.38144 0.97641 0.0
N1642 N 0.78704 0.34229 0.01856 0.0
N1643 N 0.76184 0.37981 0.99047 0.0
H1644 H 0.58421 0.05607 0.28113 0.0
H1645 H 0.63392 0.01483 0.17261 0.0
H1646 H 0.63508 0.0875 0.24803 0.0
H1647 H 0.58369 0.98124 0.20457 0.0
H1648 H 0.63015 0.04435 0.19749 0.0
H1649 H 0.57942 0.03141 0.25086 0.0
C1650 C 0.59411 0.05799 0.26738 0.0
C1651 C 0.61031 0.07358 0.26718 0.0
C1652 C 0.61977 0.03064 0.19901 0.0
C1653 C 0.60499 0.04555 0.23271 0.0
C1654 C 0.62194 0.01374 0.18479 0.0
C1655 C 0.60932 0.99544 0.18675 0.0
C1656 C 0.60504 0.02919 0.21552 0.0
C1657 C 0.59384 0.99503 0.20262 0.0
C1658 C 0.59142 0.0439 0.25016 0.0
C1659 C 0.62266 0.07545 0.24899 0.0
N1660 N 0.59234 0.01158 0.21664 0.0
N1661 N 0.61987 0.06148 0.23259 0.0
H1662 H 0.03408 0.84018 0.46547 0.0
H1663 H 0.94345 0.90667 0.51074 0.0
H1664 H 0.01124 0.88874 0.43387 0.0
H1665 H 0.94376 0.84319 0.5251 0.0
H1666 H 0.97132 0.90115 0.48478 0.0
H1667 H 0.00313 0.84076 0.48916 0.0
C1668 C 0.02244 0.85063 0.46326 0.0
C1669 C 0.02543 0.86468 0.44792 0.0
C1670 C 0.96523 0.88837 0.49353 0.0
C1671 C 0.99054 0.8657 0.47497 0.0
C1672 C 0.94941 0.89157 0.50844 0.0
C1673 C 0.94125 0.87536 0.52005 0.0
C1674 C 0.9733 0.86895 0.49041 0.0
C1675 C 0.94954 0.85605 0.51633 0.0
C1676 C 0.00489 0.85103 0.4768 0.0
C1677 C 0.00985 0.87793 0.44575 0.0
N1678 N 0.96528 0.8534 0.50194 0.0
N1679 N 0.99332 0.87832 0.45927 0.0
H1680 H 0.47073 0.16788 0.04211 0.0
H1681 H 0.56262 0.10286 0.99678 0.0
H1682 H 0.49158 0.11644 0.07084 0.0
H1683 H 0.56263 0.16694 0.98445 0.0
H1684 H 0.53417 0.10741 0.02213 0.0
H1685 H 0.50256 0.16853 0.01955 0.0
C1686 C 0.48208 0.157 0.04391 0.0
C1687 C 0.47829 0.14183 0.05809 0.0
C1688 C 0.54043 0.12057 0.01401 0.0
C1689 C 0.51426 0.14231 0.03239 0.0
C1690 C 0.55663 0.11793 0.99944 0.0
C1691 C 0.565 0.13453 0.98847 0.0
C1692 C 0.53215 0.13986 0.01749 0.0
C1693 C 0.55666 0.15377 0.99268 0.0
C1694 C 0.50016 0.15733 0.03104 0.0
C1695 C 0.49354 0.12812 0.05982 0.0
N1696 N 0.54048 0.15588 0.00673 0.0
N1697 N 0.51062 0.12853 0.047 0.0
H1698 H 0.90595 0.72492 0.29632 0.0
H1699 H 0.86181 0.82576 0.2569 0.0
H1700 H 0.84976 0.74879 0.32289 0.0
H1701 H 0.91826 0.80013 0.23351 0.0
H1702 H 0.85611 0.79798 0.28054 0.0
H1703 H 0.90931 0.752 0.27259 0.0
C1704 C 0.89417 0.7358 0.29717 0.0
C1705 C 0.87755 0.73442 0.31187 0.0
C1706 C 0.86972 0.79847 0.27022 0.0
C1707 C 0.88147 0.76609 0.28429 0.0
C1708 C 0.87304 0.81438 0.25671 0.0
C1709 C 0.8906 0.81546 0.24304 0.0
C1710 C 0.88403 0.78341 0.27015 0.0
C1711 C 0.90449 0.80011 0.2436 0.0
C1712 C 0.89615 0.7514 0.2835 0.0
C1713 C 0.86281 0.7491 0.31186 0.0
N1714 N 0.90091 0.78488 0.25682 0.0
N1715 N 0.86517 0.76435 0.2984 0.0
H1716 H 0.2597 0.10646 0.53791 0.0
H1717 H 0.20275 0.1782 0.46849 0.0
H1718 H 0.27432 0.17216 0.53682 0.0
H1719 H 0.18855 0.11229 0.46892 0.0
H1720 H 0.22911 0.17622 0.49329 0.0
H1721 H 0.23398 0.10817 0.51223 0.0
C1722 C 0.2576 0.12123 0.53212 0.0
C1723 C 0.26918 0.13919 0.53945 0.0
C1724 C 0.22022 0.16219 0.48799 0.0
C1725 C 0.23965 0.14132 0.51016 0.0
C1726 C 0.20509 0.1633 0.47383 0.0
C1727 C 0.19332 0.14538 0.46654 0.0
C1728 C 0.22368 0.14303 0.49503 0.0
C1729 C 0.1972 0.12652 0.47404 0.0
C1730 C 0.24287 0.12221 0.5175 0.0
C1731 C 0.26577 0.15793 0.53152 0.0
N1732 N 0.21203 0.12585 0.48786 0.0
N1733 N 0.25127 0.15851 0.51734 0.0
H1734 H 0.93064 0.52162 0.81334 0.0
H1735 H 0.87551 0.46542 0.71983 0.0
H1736 H 0.86525 0.50356 0.81465 0.0
H1737 H 0.92237 0.43074 0.74181 0.0
H1738 H 0.88029 0.49083 0.74917 0.0
H1739 H 0.93527 0.49689 0.78284 0.0
C1740 C 0.91737 0.51232 0.80743 0.0
C1741 C 0.8975 0.51475 0.81643 0.0
C1742 C 0.88979 0.47785 0.74731 0.0
C1743 C 0.9027 0.48727 0.78182 0.0
C1744 C 0.88709 0.46338 0.73069 0.0
C1745 C 0.89826 0.44582 0.7288 0.0
C1746 C 0.90373 0.47473 0.76214 0.0
C1747 C 0.91339 0.44408 0.74297 0.0
C1748 C 0.92007 0.49831 0.79017 0.0
C1749 C 0.88084 0.50229 0.80827 0.0
N1750 N 0.91548 0.45828 0.75948 0.0
N1751 N 0.88378 0.48939 0.79121 0.0
H1752 H 0.54701 0.1177 0.25213 0.0
H1753 H 0.48155 0.18452 0.18573 0.0
H1754 H 0.53886 0.18247 0.26622 0.0
H1755 H 0.4912 0.12048 0.16849 0.0
H1756 H 0.50302 0.18377 0.21494 0.0
H1757 H 0.52669 0.11799 0.22154 0.0
C1758 C 0.54083 0.13195 0.24883 0.0
C1759 C 0.54452 0.15009 0.26174 0.0
C1760 C 0.50056 0.16987 0.20478 0.0
C1761 C 0.52147 0.15056 0.22677 0.0
C1762 C 0.48827 0.17027 0.18802 0.0
C1763 C 0.48443 0.15248 0.17465 0.0
C1764 C 0.50911 0.15151 0.2084 0.0
C1765 C 0.49376 0.13456 0.17838 0.0
C1766 C 0.52933 0.13212 0.23134 0.0
C1767 C 0.53629 0.16813 0.25674 0.0
N1768 N 0.50558 0.13449 0.19502 0.0
N1769 N 0.52516 0.1679 0.23966 0.0
H1770 H 0.87938 0.77652 0.56601 0.0
H1771 H 0.88864 0.75337 0.4441 0.0
H1772 H 0.90986 0.81875 0.5246 0.0
H1773 H 0.85319 0.71409 0.48551 0.0
H1774 H 0.9029 0.77397 0.47383 0.0
H1775 H 0.87741 0.74953 0.53757 0.0
C1776 C 0.88631 0.7798 0.55103 0.0
C1777 C 0.89456 0.79979 0.54749 0.0
C1778 C 0.89217 0.76074 0.47644 0.0
C1779 C 0.89187 0.76944 0.51478 0.0
C1780 C 0.88393 0.74904 0.45948 0.0
C1781 C 0.86947 0.73222 0.46242 0.0
C1782 C 0.88588 0.75559 0.49648 0.0
C1783 C 0.86408 0.72713 0.48262 0.0
C1784 C 0.88505 0.76451 0.53476 0.0
C1785 C 0.90349 0.80343 0.52792 0.0
N1786 N 0.87217 0.73889 0.49891 0.0
N1787 N 0.90149 0.78851 0.51212 0.0
H1788 H 0.2767 0.1021 0.71184 0.0
H1789 H 0.17938 0.16139 0.75779 0.0
H1790 H 0.25409 0.15144 0.68129 0.0
H1791 H 0.20905 0.11727 0.78941 0.0
H1792 H 0.20776 0.16089 0.73104 0.0
H1793 H 0.25306 0.10962 0.74129 0.0
C1794 C 0.26681 0.11459 0.71132 0.0
C1795 C 0.26738 0.12602 0.69389 0.0
C1796 C 0.20825 0.15167 0.74408 0.0
C1797 C 0.23987 0.13476 0.72788 0.0
C1798 C 0.19217 0.15216 0.75948 0.0
C1799 C 0.19186 0.13938 0.7759 0.0
C1800 C 0.22401 0.13826 0.74514 0.0
C1801 C 0.20862 0.12735 0.77703 0.0
C1802 C 0.25328 0.11896 0.72825 0.0
C1803 C 0.25422 0.14219 0.69436 0.0
N1804 N 0.22379 0.12693 0.76184 0.0
N1805 N 0.24087 0.14593 0.71095 0.0
H1806 H 0.92332 0.46894 0.03411 0.0
H1807 H 0.87763 0.49404 0.92805 0.0
H1808 H 0.87905 0.42783 1.00086 0.0
H1809 H 0.92993 0.5288 0.95559 0.0
H1810 H 0.87553 0.47136 0.95632 0.0
H1811 H 0.92337 0.49306 0.0072 0.0
C1812 C 0.91361 0.46503 0.02114 0.0
C1813 C 0.90131 0.44635 0.01954 0.0
C1814 C 0.88745 0.48397 0.95615 0.0
C1815 C 0.90126 0.47374 0.9888 0.0
C1816 C 0.88865 0.49693 0.94003 0.0
C1817 C 0.90405 0.51329 0.93937 0.0
C1818 C 0.90165 0.48748 0.97178 0.0
C1819 C 0.91788 0.51631 0.95536 0.0
C1820 C 0.91365 0.47876 0.00579 0.0
C1821 C 0.88887 0.44205 1.00256 0.0
N1822 N 0.91634 0.50353 0.9709 0.0
N1823 N 0.8892 0.45563 0.98779 0.0
H1824 H 0.01272 0.47359 0.08987 0.0
H1825 H 0.97635 0.57973 0.14609 0.0
H1826 H 0.03912 0.50268 0.14538 0.0
H1827 H 0.9519 0.54995 0.08988 0.0
H1828 H 0.99708 0.55021 0.14839 0.0
H1829 H 0.98807 0.50005 0.09171 0.0
C1830 C 0.01319 0.48545 0.10256 0.0
C1831 C 0.02801 0.48597 0.11744 0.0
C1832 C 0.98701 0.55009 0.13568 0.0
C1833 C 0.99992 0.5165 0.11963 0.0
C1834 C 0.97509 0.56688 0.13444 0.0
C1835 C 0.9625 0.56742 0.11767 0.0
C1836 C 0.98623 0.53375 0.1201 0.0
C1837 C 0.96157 0.55037 0.10295 0.0
C1838 C 0.99914 0.50061 0.10361 0.0
C1839 C 0.02794 0.50173 0.13355 0.0
N1840 N 0.97333 0.53437 0.10445 0.0
N1841 N 0.01421 0.51645 0.13415 0.0
H1842 H 0.47405 0.2304 0.10385 0.0
H1843 H 0.58604 0.26041 0.14289 0.0
H1844 H 0.49301 0.21916 0.16419 0.0
H1845 H 0.55856 0.30205 0.10611 0.0
H1846 H 0.55403 0.23831 0.14287 0.0
H1847 H 0.50644 0.25195 0.09836 0.0
C1848 C 0.48491 0.23272 0.11601 0.0
C1849 C 0.48098 0.22309 0.13451 0.0
C1850 C 0.5551 0.25215 0.13457 0.0
C1851 C 0.51788 0.24683 0.12804 0.0
C1852 C 0.57337 0.26465 0.1344 0.0
C1853 C 0.57473 0.28324 0.12481 0.0
C1854 C 0.53812 0.25818 0.12497 0.0
C1855 C 0.55802 0.28786 0.11375 0.0
C1856 C 0.5033 0.24488 0.11282 0.0
C1857 C 0.49545 0.22643 0.14978 0.0
N1858 N 0.54013 0.27547 0.11435 0.0
N1859 N 0.51343 0.23782 0.14608 0.0
H1860 H 0.8339 0.76407 0.36325 0.0
H1861 H 0.73855 0.81858 0.42142 0.0
H1862 H 0.80215 0.7452 0.41943 0.0
H1863 H 0.76628 0.83881 0.36396 0.0
H1864 H 0.7629 0.79246 0.42064 0.0
H1865 H 0.81071 0.79199 0.36302 0.0
C1866 C 0.82218 0.76581 0.3756 0.0
C1867 C 0.8201 0.75214 0.39143 0.0
C1868 C 0.76379 0.80253 0.40813 0.0
C1869 C 0.79343 0.78413 0.39116 0.0
C1870 C 0.74977 0.81759 0.40852 0.0
C1871 C 0.75015 0.83107 0.39266 0.0
C1872 C 0.7786 0.8006 0.39174 0.0
C1873 C 0.76533 0.82883 0.37654 0.0
C1874 C 0.8089 0.78175 0.3754 0.0
C1875 C 0.80448 0.75521 0.40689 0.0
N1876 N 0.77893 0.81387 0.37646 0.0
N1877 N 0.79187 0.77076 0.40633 0.0
H1878 H 0.28216 0.02896 0.63818 0.0
H1879 H 0.17361 1.00174 0.59126 0.0
H1880 H 0.26234 0.06284 0.58963 0.0
H1881 H 0.20372 0.9613 0.62702 0.0
H1882 H 0.20674 0.02229 0.58637 0.0
H1883 H 0.25458 1.00226 0.63108 0.0
C1884 C 0.27202 0.03063 0.62587 0.0
C1885 C 0.2743 0.04813 0.61461 0.0
C1886 C 0.20618 0.00857 0.59478 0.0
C1887 C 0.24235 0.01779 0.60653 0.0
C1888 C 0.18734 0.9968 0.59743 0.0
C1889 C 0.18603 0.98004 0.60977 0.0
C1890 C 0.22354 0.00343 0.60464 0.0
C1891 C 0.20411 0.97431 0.61764 0.0
C1892 C 0.25631 0.01534 0.62171 0.0
C1893 C 0.26095 0.0495 0.59865 0.0
N1894 N 0.22202 0.98614 0.6152 0.0
N1895 N 0.2452 0.03468 0.59532 0.0
H1896 H 0.46933 0.50788 0.36061 0.0
H1897 H 0.54356 0.44921 0.42565 0.0
H1898 H 0.48538 0.52637 0.42326 0.0
H1899 H 0.52988 0.42842 0.36273 0.0
H1900 H 0.52357 0.47846 0.42363 0.0
H1901 H 0.49252 0.4799 0.35973 0.0
C1902 C 0.47788 0.50616 0.3741 0.0
C1903 C 0.47545 0.51945 0.39206 0.0
C1904 C 0.52493 0.46764 0.41016 0.0
C1905 C 0.50181 0.48749 0.39118 0.0
C1906 C 0.53643 0.45078 0.41127 0.0
C1907 C 0.53846 0.43613 0.39432 0.0
C1908 C 0.51509 0.47008 0.39199 0.0
C1909 C 0.52877 0.43929 0.37618 0.0
C1910 C 0.49106 0.49018 0.37359 0.0
C1911 C 0.48682 0.51653 0.40909 0.0
N1912 N 0.51738 0.45589 0.37552 0.0
N1913 N 0.49939 0.50085 0.40825 0.0
H1914 H 0.17177 0.74187 0.14255 0.0
H1915 H 0.26549 0.68574 0.08327 0.0
H1916 H 0.20269 0.76014 0.08575 0.0
H1917 H 0.23844 0.66667 0.14144 0.0
H1918 H 0.24124 0.712 0.08394 0.0
H1919 H 0.19451 0.71361 0.14239 0.0
C1920 C 0.18322 0.73993 0.12998 0.0
C1921 C 0.1852 0.75353 0.1141 0.0
C1922 C 0.24047 0.70213 0.09661 0.0
C1923 C 0.21137 0.72111 0.11392 0.0
C1924 C 0.25442 0.687 0.09627 0.0
C1925 C 0.25422 0.67385 0.1124 0.0
C1926 C 0.22596 0.70444 0.11321 0.0
C1927 C 0.23923 0.67638 0.12865 0.0
C1928 C 0.19624 0.72378 0.12995 0.0
C1929 C 0.20046 0.75018 0.09834 0.0
N1930 N 0.22575 0.69142 0.12868 0.0
N1931 N 0.21286 0.73442 0.09868 0.0
H1932 H 0.84423 0.98971 0.37436 0.0
H1933 H 0.72744 0.96586 0.41557 0.0
H1934 H 0.81153 0.0347 0.41253 0.0
H1935 H 0.75904 0.93126 0.36585 0.0
H1936 H 0.75968 0.98776 0.42137 0.0
H1937 H 0.81513 0.96425 0.37887 0.0
C1938 C 0.83099 0.99403 0.38409 0.0
C1939 C 0.83012 0.01421 0.39305 0.0
C1940 C 0.7595 0.97522 0.40937 0.0
C1941 C 0.7964 0.98544 0.39772 0.0
C1942 C 0.74118 0.96274 0.40609 0.0
C1943 C 0.74054 0.94698 0.38999 0.0
C1944 C 0.77721 0.97155 0.39669 0.0
C1945 C 0.75874 0.94349 0.37818 0.0
C1946 C 0.81432 0.97957 0.38656 0.0
C1947 C 0.81268 0.01917 0.40548 0.0
N1948 N 0.77623 0.95568 0.38173 0.0
N1949 N 0.79624 0.00492 0.4072 0.0
H1950 H 0.92433 0.24433 0.86115 0.0
H1951 H 0.03211 0.27832 0.90513 0.0
H1952 H 0.94823 0.2036 0.90154 0.0
H1953 H 0.01972 0.27933 0.84073 0.0
H1954 H 1.00005 0.25611 0.9101 0.0
H1955 H 0.95719 0.26498 0.86116 0.0
C1956 C 0.93639 0.23998 0.87039 0.0
C1957 C 0.93377 0.22201 0.88104 0.0
C1958 C 0.00464 0.26098 0.89488 0.0
C1959 C 0.9713 0.24553 0.88096 0.0
C1960 C 0.02283 0.27354 0.892 0.0
C1961 C 0.02838 0.28066 0.8725 0.0
C1962 C 0.99188 0.25616 0.87826 0.0
C1963 C 0.01596 0.27414 0.85598 0.0
C1964 C 0.95513 0.25166 0.87022 0.0
C1965 C 0.94975 0.21731 0.89306 0.0
N1966 N 0.99804 0.26254 0.85932 0.0
N1967 N 0.96811 0.22894 0.89255 0.0
H1968 H 0.88014 0.99515 0.42708 0.0
H1969 H 0.92647 0.96855 0.53234 0.0
H1970 H 0.93465 0.02751 0.45274 0.0
H1971 H 0.87556 0.93279 0.50358 0.0
H1972 H 0.92878 0.99137 0.5041 0.0
H1973 H 0.87756 0.97285 0.45558 0.0
C1974 C 0.89161 0.99756 0.43866 0.0
C1975 C 0.90765 0.01327 0.43749 0.0
C1976 C 0.91709 0.97854 0.50397 0.0
C1977 C 0.90467 0.98781 0.47027 0.0
C1978 C 0.91574 0.96557 0.52011 0.0
C1979 C 0.90085 0.94878 0.52021 0.0
C1980 C 0.90342 0.97466 0.48788 0.0
C1981 C 0.88729 0.94558 0.50404 0.0
C1982 C 0.8901 0.98481 0.45496 0.0
C1983 C 0.92203 0.01561 0.45298 0.0
N1984 N 0.88893 0.95838 0.48849 0.0
N1985 N 0.92017 1.00305 0.46875 0.0
H1986 H 0.9957 0.62111 0.16614 0.0
H1987 H 0.03084 0.67795 0.27408 0.0
H1988 H 0.97603 0.67996 0.19192 0.0
H1989 H 0.05324 0.62023 0.24874 0.0
H1990 H 0.00991 0.67818 0.24412 0.0
H1991 H 0.01677 0.61997 0.19609 0.0
C1992 C 0.99588 0.63382 0.17798 0.0
C1993 C 0.98403 0.65064 0.17646 0.0
C1994 C 0.01935 0.66541 0.24509 0.0
C1995 C 0.00789 0.64934 0.21078 0.0
C1996 C 0.03124 0.66526 0.26224 0.0
C1997 C 0.04374 0.64906 0.26385 0.0
C1998 C 0.02001 0.64925 0.2294 0.0
C1999 C 0.04375 0.63301 0.24806 0.0
C2000 C 0.00785 0.63313 0.1951 0.0
C2001 C 0.98483 0.66663 0.19234 0.0
N2002 N 0.03209 0.63352 0.23143 0.0
N2003 N 0.99648 0.66554 0.20878 0.0
H2004 H 0.35589 0.71208 0.98504 0.0
H2005 H 0.40938 0.8216 0.02341 0.0
H2006 H 0.38272 0.75722 0.9444 0.0
H2007 H 0.38187 0.77731 0.0643 0.0
H2008 H 0.40715 0.79503 0.99461 0.0
H2009 H 0.3709 0.73299 0.01433 0.0
C2010 C 0.36495 0.72639 0.98232 0.0
C2011 C 0.36782 0.73313 0.96238 0.0
C2012 C 0.4021 0.79089 0.00997 0.0
C2013 C 0.38519 0.757 0.99567 0.0
C2014 C 0.40376 0.80598 0.02647 0.0
C2015 C 0.39561 0.80153 0.04612 0.0
C2016 C 0.39205 0.7714 0.01327 0.0
C2017 C 0.388 0.78125 0.04923 0.0
C2018 C 0.37365 0.73824 0.99899 0.0
C2019 C 0.37996 0.75159 0.9596 0.0
N2020 N 0.386 0.76699 0.03289 0.0
N2021 N 0.38804 0.76299 0.97608 0.0
H2022 H 0.18976 0.61295 0.96797 0.0
H2023 H 0.27401 0.67568 0.03935 0.0
H2024 H 0.20218 0.67923 0.97003 0.0
H2025 H 0.26182 0.60943 0.03601 0.0
H2026 H 0.24827 0.67742 0.01356 0.0
H2027 H 0.21626 0.61152 0.99275 0.0
C2028 C 0.19802 0.62724 0.97363 0.0
C2029 C 0.19365 0.64626 0.96683 0.0
C2030 C 0.25129 0.66249 0.01839 0.0
C2031 C 0.22423 0.64467 0.9953 0.0
C2032 C 0.26604 0.66149 0.03304 0.0
C2033 C 0.27007 0.64237 0.03977 0.0
C2034 C 0.24048 0.64424 0.01045 0.0
C2035 C 0.25921 0.62449 0.03122 0.0
C2036 C 0.21321 0.62639 0.98779 0.0
C2037 C 0.20495 0.66421 0.9748 0.0
N2038 N 0.24489 0.62586 0.01706 0.0
N2039 N 0.2197 0.66297 0.98859 0.0
H2040 H 0.38303 0.98896 0.83721 0.0
H2041 H 0.42463 0.95243 0.72381 0.0
H2042 H 0.42481 0.02737 0.80015 0.0
H2043 H 0.37789 0.91871 0.76008 0.0
H2044 H 0.43112 0.97671 0.7541 0.0
H2045 H 0.38762 0.95987 0.81193 0.0
C2046 C 0.39341 0.99118 0.82384 0.0
C2047 C 0.40326 0.01067 0.82054 0.0
C2048 C 0.4197 0.96379 0.75547 0.0
C2049 C 0.40834 0.97747 0.79131 0.0
C2050 C 0.41605 0.94992 0.73824 0.0
C2051 C 0.40044 0.93381 0.7394 0.0
C2052 C 0.40775 0.96134 0.77389 0.0
C2053 C 0.38978 0.93117 0.75842 0.0
C2054 C 0.39603 0.97456 0.80939 0.0
C2055 C 0.4168 0.0126 0.80316 0.0
N2056 N 0.3935 0.9449 0.77483 0.0
N2057 N 0.41866 0.99626 0.78893 0.0
H2058 H 0.95771 0.11638 0.52548 0.0
H2059 H 0.07182 0.16352 0.49584 0.0
H2060 H 0.98757 0.16631 0.56332 0.0
H2061 H 0.04388 0.10465 0.47169 0.0
H2062 H 0.04024 0.16867 0.5176 0.0
H2063 H 0.98771 0.11679 0.5016 0.0
C2064 C 0.97056 0.12768 0.52857 0.0
C2065 C 0.97028 0.1412 0.54646 0.0
C2066 C 0.04112 0.15469 0.50748 0.0
C2067 C 0.00507 0.14147 0.51934 0.0
C2068 C 0.05911 0.15171 0.49507 0.0
C2069 C 0.06058 0.13357 0.48192 0.0
C2070 C 0.02447 0.13956 0.50644 0.0
C2071 C 0.04362 0.11882 0.4816 0.0
C2072 C 0.98777 0.12782 0.515 0.0
C2073 C 0.98723 0.15566 0.54964 0.0
N2074 N 0.02636 0.12219 0.49358 0.0
N2075 N 0.00417 0.15525 0.53631 0.0
H2076 H 0.53457 0.83989 0.96416 0.0
H2077 H 0.44806 0.90943 0.01559 0.0
H2078 H 0.51713 0.89521 0.93966 0.0
H2079 H 0.44428 0.84417 0.02401 0.0
H2080 H 0.47653 0.90472 0.99025 0.0
H2081 H 0.50368 0.84059 0.98802 0.0
C2082 C 0.52417 0.85194 0.96358 0.0
C2083 C 0.52867 0.86772 0.95017 0.0
C2084 C 0.46944 0.89137 0.99756 0.0
C2085 C 0.49384 0.8688 0.97739 0.0
C2086 C 0.45323 0.89409 0.01213 0.0
C2087 C 0.44371 0.87718 0.02191 0.0
C2088 C 0.47648 0.87163 0.99283 0.0
C2089 C 0.4511 0.85761 0.01671 0.0
C2090 C 0.50665 0.85239 0.97721 0.0
C2091 C 0.51463 0.88297 0.95003 0.0
N2092 N 0.46717 0.85537 1.00259 0.0
N2093 N 0.49811 0.88325 0.96354 0.0
H2094 H 0.71811 0.8767 0.49155 0.0
H2095 H 0.82171 0.8326 0.52115 0.0
H2096 H 0.76205 0.85351 0.44517 0.0
H2097 H 0.80005 0.88737 0.55433 0.0
H2098 H 0.79517 0.83391 0.49603 0.0
H2099 H 0.74349 0.87464 0.51802 0.0
C2100 C 0.733 0.87104 0.48701 0.0
C2101 C 0.73812 0.86538 0.46622 0.0
C2102 C 0.79626 0.8456 0.50885 0.0
C2103 C 0.76676 0.8626 0.49617 0.0
C2104 C 0.81134 0.84486 0.52317 0.0
C2105 C 0.81319 0.86 0.53974 0.0
C2106 C 0.78256 0.86125 0.51142 0.0
C2107 C 0.7993 0.87553 0.54164 0.0
C2108 C 0.74744 0.86997 0.50203 0.0
C2109 C 0.75761 0.85819 0.46105 0.0
N2110 N 0.78444 0.87568 0.52773 0.0
N2111 N 0.77115 0.85684 0.47593 0.0
H2112 H 0.13221 0.51375 0.1727 0.0
H2113 H 0.08424 0.55429 0.28228 0.0
H2114 H 0.08385 0.4789 0.20593 0.0
H2115 H 0.13273 0.58718 0.24736 0.0
H2116 H 0.07944 0.5291 0.25241 0.0
H2117 H 0.12818 0.5432 0.19759 0.0
C2118 C 0.12058 0.51237 0.18518 0.0
C2119 C 0.10857 0.49375 0.18745 0.0
C2120 C 0.0909 0.54202 0.25122 0.0
C2121 C 0.10399 0.52746 0.21626 0.0
C2122 C 0.09358 0.55643 0.26822 0.0
C2123 C 0.10914 0.57261 0.26738 0.0
C2124 C 0.10383 0.54396 0.23335 0.0
C2125 C 0.12081 0.57471 0.2488 0.0
C2126 C 0.11825 0.52923 0.1994 0.0
C2127 C 0.09351 0.49295 0.20371 0.0
N2128 N 0.11805 0.56044 0.23264 0.0
N2129 N 0.09186 0.5095 0.21774 0.0
H2130 H 0.48761 0.87511 0.73012 0.0
H2131 H 0.49508 0.86012 0.84892 0.0
H2132 H 0.44211 0.83532 0.7615 0.0
H2133 H 0.54867 0.85633 0.80728 0.0
H2134 H 0.47351 0.86025 0.8189 0.0
H2135 H 0.50884 0.87726 0.76053 0.0
C2136 C 0.48215 0.86685 0.7434 0.0
C2137 C 0.46328 0.85484 0.74332 0.0
C2138 C 0.49002 0.85955 0.81647 0.0
C2139 C 0.48691 0.85784 0.77808 0.0
C2140 C 0.50226 0.85959 0.83349 0.0
C2141 C 0.52355 0.85809 0.83041 0.0
C2142 C 0.49933 0.85866 0.79645 0.0
C2143 C 0.53224 0.85734 0.81017 0.0
C2144 C 0.49418 0.8681 0.76065 0.0
C2145 C 0.45673 0.84452 0.76092 0.0
N2146 N 0.52012 0.85778 0.79392 0.0
N2147 N 0.46845 0.84641 0.77772 0.0
H2148 H 0.16006 0.29472 0.52035 0.0
H2149 H 0.09276 0.19485 0.47744 0.0
H2150 H 0.11536 0.25958 0.55755 0.0
H2151 H 0.13821 0.22966 0.44088 0.0
H2152 H 0.09429 0.22324 0.50462 0.0
H2153 H 0.14686 0.2754 0.48935 0.0
C2154 C 0.1474 0.283 0.52195 0.0
C2155 C 0.13905 0.27842 0.54149 0.0
C2156 C 0.10348 0.22494 0.49039 0.0
C2157 C 0.12378 0.25633 0.50619 0.0
C2158 C 0.10236 0.20885 0.47477 0.0
C2159 C 0.11559 0.20991 0.45711 0.0
C2160 C 0.11798 0.24197 0.48819 0.0
C2161 C 0.12796 0.22824 0.45445 0.0
C2162 C 0.13977 0.27205 0.50427 0.0
C2163 C 0.12245 0.26334 0.54274 0.0
N2164 N 0.12918 0.24339 0.47002 0.0
N2165 N 0.11552 0.25265 0.52534 0.0
H2166 H 0.0718 0.48045 0.05577 0.0
H2167 H 0.13182 0.57643 0.00368 0.0
H2168 H 0.12794 0.51186 0.07884 0.0
H2169 H 0.07878 0.54115 0.97838 0.0
H2170 H 0.13057 0.55338 0.03165 0.0
H2171 H 0.07387 0.50318 0.0278 0.0
C2172 C 0.08457 0.49215 0.05501 0.0
C2173 C 0.09974 0.49421 0.06972 0.0
C2174 C 0.11924 0.55065 0.01995 0.0
C2175 C 0.10218 0.52036 0.03757 0.0
C2176 C 0.11995 0.56377 0.004 0.0
C2177 C 0.10533 0.56067 0.98879 0.0
C2178 C 0.10377 0.53436 0.02066 0.0
C2179 C 0.09031 0.54408 0.98985 0.0
C2180 C 0.08576 0.50512 0.03896 0.0
C2181 C 0.1159 0.5097 0.06786 0.0
N2182 N 0.08988 0.53157 0.00557 0.0
N2183 N 0.11669 0.5222 0.05206 0.0
H2184 H 0.05727 0.45656 0.91263 0.0
H2185 H 0.95824 0.49612 0.86586 0.0
H2186 H 0.02461 0.42221 0.86329 0.0
H2187 H 0.99614 0.53259 0.90982 0.0
H2188 H 0.98294 0.46953 0.86334 0.0
H2189 H 0.03604 0.48524 0.9102 0.0
C2190 C 0.04572 0.45514 0.90111 0.0
C2191 C 0.04261 0.4369 0.88823 0.0
C2192 C 0.98596 0.48343 0.87338 0.0
C2193 C 0.01795 0.46973 0.88554 0.0
C2194 C 0.97187 0.49862 0.87484 0.0
C2195 C 0.97513 0.51656 0.88814 0.0
C2196 C 0.00342 0.48618 0.88536 0.0
C2197 C 0.993 0.51897 0.89944 0.0
C2198 C 0.03358 0.47155 0.89973 0.0
C2199 C 0.02755 0.43602 0.87348 0.0
N2200 N 0.00638 0.50391 0.89788 0.0
N2201 N 0.01558 0.45211 0.87271 0.0
H2202 H 0.52494 0.78608 0.90703 0.0
H2203 H 0.43038 0.73596 0.84941 0.0
H2204 H 0.52665 0.77285 0.84088 0.0
H2205 H 0.44301 0.71093 0.90656 0.0
H2206 H 0.464 0.75452 0.84916 0.0
H2207 H 0.49424 0.76173 0.91002 0.0
C2208 C 0.51907 0.77774 0.8932 0.0
C2209 C 0.52803 0.78164 0.87363 0.0
C2210 C 0.45944 0.74496 0.86176 0.0
C2211 C 0.49312 0.75434 0.87698 0.0
C2212 C 0.44011 0.73446 0.8621 0.0
C2213 C 0.43384 0.72163 0.87799 0.0
C2214 C 0.47262 0.7431 0.87761 0.0
C2215 C 0.44727 0.72058 0.89399 0.0
C2216 C 0.50167 0.76388 0.89496 0.0
C2217 C 0.52005 0.77041 0.85621 0.0
N2218 N 0.46614 0.73132 0.89348 0.0
N2219 N 0.50275 0.75754 0.85826 0.0
H2220 H 0.26505 0.18425 0.58257 0.0
H2221 H 0.17326 0.24245 0.64317 0.0
H2222 H 0.23926 0.16651 0.64168 0.0
H2223 H 0.20334 0.25977 0.58566 0.0
H2224 H 0.19569 0.2139 0.64287 0.0
H2225 H 0.24112 0.21085 0.58345 0.0
C2226 C 0.25433 0.18587 0.59582 0.0
C2227 C 0.2544 0.17299 0.61215 0.0
C2228 C 0.19731 0.22393 0.63031 0.0
C2229 C 0.22649 0.20399 0.61319 0.0
C2230 C 0.18447 0.24025 0.63041 0.0
C2231 C 0.1863 0.25367 0.61438 0.0
C2232 C 0.21211 0.22089 0.61402 0.0
C2233 C 0.20124 0.24996 0.59838 0.0
C2234 C 0.24056 0.2012 0.59627 0.0
C2235 C 0.23983 0.17599 0.62872 0.0
N2236 N 0.21347 0.23404 0.59864 0.0
N2237 N 0.22652 0.19121 0.62885 0.0
H2238 H 0.47598 0.57969 0.64342 0.0
H2239 H 0.51594 0.47627 0.58455 0.0
H2240 H 0.45602 0.55329 0.58406 0.0
H2241 H 0.53691 0.50115 0.64395 0.0
H2242 H 0.49199 0.50329 0.5856 0.0
H2243 H 0.49642 0.54994 0.64555 0.0
C2244 C 0.47569 0.56757 0.63097 0.0
C2245 C 0.46439 0.56912 0.61346 0.0
C2246 C 0.50169 0.5028 0.59852 0.0
C2247 C 0.48778 0.53516 0.61573 0.0
C2248 C 0.51534 0.48731 0.59792 0.0
C2249 C 0.52843 0.48648 0.61416 0.0
C2250 C 0.50113 0.51766 0.61546 0.0
C2251 C 0.52706 0.50125 0.63108 0.0
C2252 C 0.48743 0.55064 0.63215 0.0
C2253 C 0.46466 0.55295 0.59777 0.0
N2254 N 0.51375 0.51632 0.63125 0.0
N2255 N 0.47621 0.53679 0.59924 0.0
H2256 H 0.83294 0.26268 0.86239 0.0
H2257 H 0.74333 0.32271 0.92458 0.0
H2258 H 0.80359 0.24596 0.92041 0.0
H2259 H 0.76764 0.33926 0.86457 0.0
H2260 H 0.76705 0.2959 0.92346 0.0
H2261 H 0.81097 0.29162 0.86303 0.0
C2262 C 0.82198 0.26509 0.87532 0.0
C2263 C 0.82021 0.25172 0.8914 0.0
C2264 C 0.76733 0.30534 0.91049 0.0
C2265 C 0.79495 0.28496 0.89217 0.0
C2266 C 0.7537 0.32079 0.91109 0.0
C2267 C 0.75326 0.33337 0.89457 0.0
C2268 C 0.78088 0.30212 0.89321 0.0
C2269 C 0.76738 0.33003 0.87769 0.0
C2270 C 0.80941 0.28164 0.87562 0.0
C2271 C 0.80561 0.2557 0.90764 0.0
N2272 N 0.78055 0.31467 0.8774 0.0
N2273 N 0.79365 0.27186 0.90758 0.0
H2274 H 0.04385 0.81514 0.14434 0.0
H2275 H 0.99314 0.70711 0.09914 0.0
H2276 H 0.07477 0.77487 0.09905 0.0
H2277 H 0.96545 0.74607 0.14803 0.0
H2278 H 0.01965 0.735 0.09298 0.0
H2279 H 0.01168 0.79386 0.13934 0.0
C2280 C 0.04367 0.80195 0.13302 0.0
C2281 C 0.06186 0.79644 0.12229 0.0
C2282 C 0.00763 0.73756 0.10486 0.0
C2283 C 0.02537 0.77174 0.11687 0.0
C2284 C 0.99252 0.72165 0.10842 0.0
C2285 C 0.9774 0.72422 0.12442 0.0
C2286 C 0.00758 0.75611 0.11744 0.0
C2287 C 0.97707 0.74339 0.13578 0.0
C2288 C 0.02536 0.78979 0.1302 0.0
C2289 C 0.06096 0.77947 0.10764 0.0
N2290 N 0.99213 0.75854 0.13223 0.0
N2291 N 0.04302 0.76738 0.10564 0.0
H2292 H 0.9687 0.82337 0.2374 0.0
H2293 H 0.01419 0.88708 0.33787 0.0
H2294 H 0.95965 0.88772 0.25317 0.0
H2295 H 0.0251 0.82363 0.31893 0.0
H2296 H 0.99307 0.88764 0.30785 0.0
H2297 H 0.98895 0.8233 0.26787 0.0
C2298 C 0.97113 0.83752 0.24722 0.0
C2299 C 0.96259 0.85558 0.24275 0.0
C2300 C 1.00007 0.87361 0.31036 0.0
C2301 C 0.98555 0.85562 0.2778 0.0
C2302 C 0.01203 0.87325 0.32754 0.0
C2303 C 0.02152 0.85532 0.33091 0.0
C2304 C 0.99757 0.8559 0.29655 0.0
C2305 C 0.01825 0.83788 0.31694 0.0
C2306 C 0.98262 0.83748 0.26467 0.0
C2307 C 0.96606 0.87348 0.25606 0.0
N2308 N 0.00662 0.83864 0.30041 0.0
N2309 N 0.97726 0.87305 0.27303 0.0
H2310 H 0.66079 0.79484 0.52151 0.0
H2311 H 0.59402 0.69443 0.47899 0.0
H2312 H 0.61575 0.76019 0.5588 0.0
H2313 H 0.63897 0.72956 0.44215 0.0
H2314 H 0.59553 0.72283 0.50617 0.0
H2315 H 0.64786 0.77514 0.49061 0.0
C2316 C 0.64811 0.78314 0.52315 0.0
C2317 C 0.63958 0.77883 0.54269 0.0
C2318 C 0.60463 0.72458 0.4919 0.0
C2319 C 0.62464 0.75627 0.5075 0.0
C2320 C 0.60354 0.70848 0.47629 0.0
C2321 C 0.61662 0.70965 0.45853 0.0
C2322 C 0.61896 0.74174 0.4896 0.0
C2323 C 0.62885 0.72805 0.45581 0.0
C2324 C 0.64064 0.77197 0.50552 0.0
C2325 C 0.62297 0.76376 0.54399 0.0
N2326 N 0.63004 0.74322 0.47136 0.0
N2327 N 0.6162 0.75283 0.52665 0.0
H2328 H 0.82779 0.34523 0.74777 0.0
H2329 H 0.73111 0.40509 0.79519 0.0
H2330 H 0.79923 0.39141 0.71796 0.0
H2331 H 0.75383 0.35546 0.82524 0.0
H2332 H 0.75483 0.39796 0.76574 0.0
H2333 H 0.79963 0.34579 0.7748 0.0
C2334 C 0.81532 0.35501 0.74656 0.0
C2335 C 0.8159 0.36832 0.73055 0.0
C2336 C 0.75463 0.38848 0.77867 0.0
C2337 C 0.78395 0.36941 0.76157 0.0
C2338 C 0.74105 0.39262 0.79561 0.0
C2339 C 0.74047 0.381 0.8129 0.0
C2340 C 0.7681 0.37269 0.77888 0.0
C2341 C 0.7537 0.36486 0.81228 0.0
C2342 C 0.79937 0.35551 0.76211 0.0
C2343 C 0.79952 0.38096 0.73001 0.0
N2344 N 0.76709 0.36133 0.79568 0.0
N2345 N 0.78445 0.38132 0.74528 0.0
H2346 H 0.08752 0.7056 0.27373 0.0
H2347 H 0.15863 0.75835 0.18416 0.0
H2348 H 0.14539 0.68232 0.25133 0.0
H2349 H 0.09998 0.77826 0.2086 0.0
H2350 H 0.15552 0.73119 0.20875 0.0
H2351 H 0.09306 0.73272 0.25005 0.0
C2352 C 0.10146 0.70615 0.26386 0.0
C2353 C 0.11598 0.69148 0.26469 0.0
C2354 C 0.14343 0.74162 0.20873 0.0
C2355 C 0.12251 0.72298 0.23711 0.0
C2356 C 0.14524 0.75721 0.19475 0.0
C2357 C 0.12956 0.77077 0.19415 0.0
C2358 C 0.12584 0.73958 0.22226 0.0
C2359 C 0.1125 0.7683 0.20824 0.0
C2360 C 0.10463 0.72175 0.25024 0.0
C2361 C 0.13372 0.6932 0.2513 0.0
N2362 N 0.11114 0.75315 0.22152 0.0
N2363 N 0.13648 0.70861 0.23809 0.0
H2364 H 0.62706 0.51819 0.66925 0.0
H2365 H 0.58207 0.55552 0.781 0.0
H2366 H 0.58152 0.48152 0.70411 0.0
H2367 H 0.63001 0.58918 0.74607 0.0
H2368 H 0.57616 0.53152 0.75045 0.0
H2369 H 0.62262 0.54746 0.69438 0.0
C2370 C 0.61591 0.51639 0.68209 0.0
C2371 C 0.60492 0.49731 0.68483 0.0
C2372 C 0.58774 0.54436 0.74941 0.0
C2373 C 0.59995 0.53071 0.71388 0.0
C2374 C 0.59107 0.55808 0.76681 0.0
C2375 C 0.60684 0.57407 0.76614 0.0
C2376 C 0.60021 0.54681 0.73132 0.0
C2377 C 0.61799 0.57678 0.74738 0.0
C2378 C 0.61337 0.53312 0.69645 0.0
C2379 C 0.59043 0.49594 0.70154 0.0
N2380 N 0.61461 0.56315 0.73081 0.0
N2381 N 0.58862 0.51234 0.71568 0.0
H2382 H 0.01412 0.38947 0.93378 0.0
H2383 H 0.94444 0.33843 0.02336 0.0
H2384 H 0.03563 0.33936 0.9641 0.0
H2385 H 0.94552 0.40235 0.0101 0.0
H2386 H 0.97307 0.33375 0.99741 0.0
H2387 H 0.98338 0.38869 0.95655 0.0
C2388 C 0.01231 0.37813 0.94517 0.0
C2389 C 0.02773 0.36472 0.94731 0.0
C2390 C 0.96692 0.34873 1.00023 0.0
C2391 C 0.99228 0.36383 0.9736 0.0
C2392 C 0.95058 0.35141 0.01491 0.0
C2393 C 0.94263 0.37084 0.01892 0.0
C2394 C 0.97494 0.36548 0.98924 0.0
C2395 C 0.95123 0.38715 0.00765 0.0
C2396 C 0.99472 0.37775 0.9582 0.0
C2397 C 0.02419 0.35005 0.96204 0.0
N2398 N 0.96679 0.38406 0.9933 0.0
N2399 N 0.00685 0.35012 0.97486 0.0
H2400 H 0.4887 0.66785 0.56423 0.0
H2401 H 0.54465 0.60511 0.46999 0.0
H2402 H 0.45932 0.6191 0.5246 0.0
H2403 H 0.57326 0.66216 0.49769 0.0
H2404 H 0.51345 0.61081 0.49085 0.0
H2405 H 0.51957 0.66783 0.5404 0.0
C2406 C 0.48856 0.65758 0.55025 0.0
C2407 C 0.4716 0.64333 0.54637 0.0
C2408 C 0.52646 0.6222 0.49241 0.0
C2409 C 0.50662 0.64291 0.51953 0.0
C2410 C 0.54443 0.61886 0.48055 0.0
C2411 C 0.56172 0.63312 0.4821 0.0
C2412 C 0.5256 0.63987 0.50624 0.0
C2413 C 0.5603 0.65074 0.496 0.0
C2414 C 0.50619 0.65743 0.53679 0.0
C2415 C 0.47219 0.63017 0.52825 0.0
N2416 N 0.54256 0.65357 0.50768 0.0
N2417 N 0.48944 0.63014 0.51567 0.0
H2418 H 0.9016 0.22162 0.79266 0.0
H2419 H 0.85999 0.32493 0.75623 0.0
H2420 H 0.848 0.24802 0.82244 0.0
H2421 H 0.91543 0.29801 0.73172 0.0
H2422 H 0.85378 0.29684 0.77946 0.0
H2423 H 0.90487 0.24874 0.76902 0.0
C2424 C 0.89035 0.23306 0.79419 0.0
C2425 C 0.87452 0.23241 0.80979 0.0
C2426 C 0.86727 0.29711 0.76897 0.0
C2427 C 0.87836 0.26414 0.78236 0.0
C2428 C 0.87087 0.31318 0.75568 0.0
C2429 C 0.88832 0.314 0.74185 0.0
C2430 C 0.88116 0.28162 0.76846 0.0
C2431 C 0.90177 0.29821 0.74197 0.0
C2432 C 0.89229 0.24868 0.7806 0.0
C2433 C 0.8604 0.24776 0.81067 0.0
N2434 N 0.8979 0.28283 0.75495 0.0
N2435 N 0.86273 0.26306 0.79726 0.0
H2436 H 0.9247 0.01035 0.31803 0.0
H2437 H 0.87629 0.96664 0.2114 0.0
H2438 H 0.87254 0.03247 0.29103 0.0
H2439 H 0.91769 0.93234 0.24213 0.0
H2440 H 0.88225 0.99568 0.2368 0.0
H2441 H 0.92896 0.98591 0.2872 0.0
C2442 C 0.9144 0.01022 0.30549 0.0
C2443 C 0.89805 0.02303 0.30703 0.0
C2444 C 0.89019 0.9819 0.23803 0.0
C2445 C 0.90292 0.99581 0.27213 0.0
C2446 C 0.88675 0.96535 0.22354 0.0
C2447 C 0.89618 0.94707 0.22508 0.0
C2448 C 0.9028 0.98004 0.25449 0.0
C2449 C 0.91001 0.94623 0.2407 0.0
C2450 C 0.91678 0.99634 0.28804 0.0
C2451 C 0.8851 0.02251 0.29052 0.0
N2452 N 0.91264 0.96245 0.25518 0.0
N2453 N 0.88777 0.00908 0.27385 0.0
H2454 H 0.53756 0.68239 0.76769 0.0
H2455 H 0.49372 0.62006 0.6657 0.0
H2456 H 0.54792 0.61853 0.75074 0.0
H2457 H 0.48361 0.68365 0.68481 0.0
H2458 H 0.51471 0.6191 0.69578 0.0
H2459 H 0.51813 0.68291 0.73675 0.0
C2460 C 0.5356 0.66843 0.7575 0.0
C2461 C 0.54425 0.65038 0.7618 0.0
C2462 C 0.50794 0.63326 0.69328 0.0
C2463 C 0.5222 0.65086 0.72618 0.0
C2464 C 0.49607 0.63385 0.67605 0.0
C2465 C 0.48678 0.65192 0.67275 0.0
C2466 C 0.51053 0.65087 0.70721 0.0
C2467 C 0.49029 0.6693 0.68676 0.0
C2468 C 0.52458 0.66873 0.73977 0.0
C2469 C 0.5414 0.63275 0.748 0.0
N2470 N 0.50178 0.6683 0.70334 0.0
N2471 N 0.53061 0.63342 0.73077 0.0
H2472 H 0.91349 0.31064 0.02848 0.0
H2473 H 0.84656 0.2105 0.98524 0.0
H2474 H 0.86818 0.27556 0.06496 0.0
H2475 H 0.89039 0.24656 0.94799 0.0
H2476 H 0.85973 0.22983 0.01626 0.0
H2477 H 0.9118 0.28249 1.00107 0.0
C2478 C 0.90387 0.29662 0.03106 0.0
C2479 C 0.89075 0.29542 0.04879 0.0
C2480 C 0.86663 0.23339 1.00131 0.0
C2481 C 0.88817 0.26362 0.01744 0.0
C2482 C 0.85901 0.22244 0.98363 0.0
C2483 C 0.86714 0.22725 0.96408 0.0
C2484 C 0.88237 0.24935 0.99939 0.0
C2485 C 0.88349 0.2426 0.96281 0.0
C2486 C 0.90266 0.28068 0.01531 0.0
C2487 C 0.87835 0.27709 0.05133 0.0
N2488 N 0.89041 0.25328 0.98021 0.0
N2489 N 0.87705 0.26206 0.03564 0.0
H2490 H 0.20794 0.61691 0.29079 0.0
H2491 H 0.25381 0.6527 0.18121 0.0
H2492 H 0.17842 0.65987 0.25753 0.0
H2493 H 0.27429 0.60239 0.21193 0.0
H2494 H 0.22955 0.65986 0.21075 0.0
H2495 H 0.23606 0.61663 0.26455 0.0
C2496 C 0.20765 0.62673 0.27817 0.0
C2497 C 0.19079 0.63849 0.27644 0.0
C2498 C 0.23947 0.64737 0.21106 0.0
C2499 C 0.2229 0.63775 0.24567 0.0
C2500 C 0.2534 0.64328 0.19421 0.0
C2501 C 0.26613 0.62679 0.19393 0.0
C2502 C 0.23838 0.63505 0.22791 0.0
C2503 C 0.26475 0.61513 0.21126 0.0
C2504 C 0.22366 0.62641 0.26303 0.0
C2505 C 0.19122 0.65079 0.25962 0.0
N2506 N 0.25119 0.61946 0.2274 0.0
N2507 N 0.20688 0.64989 0.24473 0.0
H2508 H 0.97806 0.08119 0.64366 0.0
H2509 H 0.01412 0.97477 0.5878 0.0
H2510 H 0.95408 0.0517 0.58709 0.0
H2511 H 0.04074 0.00415 0.64309 0.0
H2512 H 0.98966 1.0014 0.58943 0.0
H2513 H 0.99875 0.05167 0.64597 0.0
C2514 C 0.97694 0.06843 0.63189 0.0
C2515 C 0.96446 0.06904 0.61506 0.0
C2516 C 1.00073 1.00198 0.60132 0.0
C2517 C 0.9881 0.03534 0.61754 0.0
C2518 C 0.01468 0.98674 0.6004 0.0
C2519 C 0.02951 0.98731 0.61527 0.0
C2520 C 1.00164 0.018 0.61721 0.0
C2521 C 0.02955 1.00318 0.63127 0.0
C2522 C 0.98882 0.05163 0.63316 0.0
C2523 C 0.96367 0.05208 0.60022 0.0
N2524 N 0.01593 0.01798 0.63175 0.0
N2525 N 0.97538 0.03606 0.60176 0.0
H2526 H 0.46388 0.74795 0.64425 0.0
H2527 H 0.57666 0.77717 0.59668 0.0
H2528 H 0.49605 0.70842 0.59911 0.0
H2529 H 0.54553 0.81292 0.64578 0.0
H2530 H 0.54415 0.75597 0.59078 0.0
H2531 H 0.49035 0.77595 0.63843 0.0
C2532 C 0.47642 0.74527 0.63297 0.0
C2533 C 0.47814 0.7258 0.62253 0.0
C2534 C 0.54437 0.76873 0.60256 0.0
C2535 C 0.50849 0.75755 0.61588 0.0
C2536 C 0.56284 0.78081 0.60583 0.0
C2537 C 0.56366 0.79636 0.622 0.0
C2538 C 0.52683 0.77249 0.61553 0.0
C2539 C 0.54549 0.80067 0.63346 0.0
C2540 C 0.4915 0.76123 0.6296 0.0
C2541 C 0.49443 0.72317 0.60777 0.0
N2542 N 0.52787 0.78863 0.63018 0.0
N2543 N 0.50921 0.73879 0.60512 0.0
H2544 H 0.28384 0.5291 0.13487 0.0
H2545 H 0.17205 0.5011 0.09158 0.0
H2546 H 0.25841 0.56657 0.09255 0.0
H2547 H 0.20127 0.46754 0.13474 0.0
H2548 H 0.20508 0.52186 0.08583 0.0
H2549 H 0.2558 0.50269 0.12878 0.0
C2550 C 0.27235 0.53159 0.12409 0.0
C2551 C 0.27319 0.54998 0.11435 0.0
C2552 C 0.20429 0.50957 0.09615 0.0
C2553 C 0.24053 0.52013 0.10769 0.0
C2554 C 0.18553 0.4977 0.09933 0.0
C2555 C 0.18399 0.48267 0.11372 0.0
C2556 C 0.22142 0.50606 0.10733 0.0
C2557 C 0.20176 0.47894 0.12352 0.0
C2558 C 0.2563 0.51654 0.12058 0.0
C2559 C 0.25812 0.55249 0.10035 0.0
N2560 N 0.21958 0.49059 0.12026 0.0
N2561 N 0.24207 0.53786 0.09771 0.0
H2562 H 0.46927 0.0068 0.86051 0.0
H2563 H 0.55304 0.95498 0.92064 0.0
H2564 H 0.49043 0.02955 0.92045 0.0
H2565 H 0.53038 0.92831 0.86243 0.0
H2566 H 0.53245 0.98406 0.91875 0.0
H2567 H 0.49346 0.97973 0.85904 0.0
C2568 C 0.47915 0.00622 0.87328 0.0
C2569 C 0.47785 0.02044 0.89066 0.0
C2570 C 0.532 0.97197 0.90628 0.0
C2571 C 0.50547 0.98948 0.8891 0.0
C2572 C 0.54381 0.95527 0.90733 0.0
C2573 C 0.54334 0.93899 0.89174 0.0
C2574 C 0.51944 0.97257 0.88954 0.0
C2575 C 0.53122 0.94049 0.8748 0.0
C2576 C 0.49291 0.99073 0.87243 0.0
C2577 C 0.49094 0.01894 0.90676 0.0
N2578 N 0.5196 0.95691 0.87422 0.0
N2579 N 0.50411 0.00371 0.90561 0.0
H2580 H 0.74432 0.44311 0.9184 0.0
H2581 H 0.80263 0.54684 0.87992 0.0
H2582 H 0.72731 0.47609 0.8679 0.0
H2583 H 0.83309 0.50542 0.91424 0.0
H2584 H 0.77022 0.52604 0.88498 0.0
H2585 H 0.7726 0.47005 0.92523 0.0
C2586 C 0.74633 0.45619 0.90903 0.0
C2587 C 0.7337 0.45735 0.89242 0.0
C2588 C 0.78386 0.52163 0.89176 0.0
C2589 C 0.76547 0.48808 0.90029 0.0
C2590 C 0.80233 0.53358 0.88898 0.0
C2591 C 0.8205 0.52765 0.89649 0.0
C2592 C 0.78359 0.50336 0.90182 0.0
C2593 C 0.81932 0.51043 0.90823 0.0
C2594 C 0.76244 0.47146 0.91288 0.0
C2595 C 0.7369 0.47449 0.88066 0.0
N2596 N 0.80117 0.49856 0.91021 0.0
N2597 N 0.75246 0.48912 0.8848 0.0
H2598 H 0.04271 0.75915 0.36117 0.0
H2599 H 0.93051 0.72933 0.40997 0.0
H2600 H 0.01035 0.7988 0.40602 0.0
H2601 H 0.96134 0.69363 0.36063 0.0
H2602 H 0.96293 0.75083 0.41536 0.0
H2603 H 0.01647 0.731 0.36734 0.0
C2604 C 0.03017 0.76183 0.37245 0.0
C2605 C 0.02832 0.78136 0.38271 0.0
C2606 C 0.96267 0.73801 0.40364 0.0
C2607 C 0.99827 0.74945 0.38981 0.0
C2608 C 0.94425 0.72576 0.40066 0.0
C2609 C 0.94336 0.71013 0.38457 0.0
C2610 C 0.98008 0.73436 0.39045 0.0
C2611 C 0.96144 0.70593 0.3729 0.0
C2612 C 0.01522 0.74579 0.37603 0.0
C2613 C 0.01205 0.78401 0.39749 0.0
N2614 N 0.97901 0.71814 0.37589 0.0
N2615 N 0.99742 0.7683 0.40037 0.0
H2616 H 0.99522 0.12183 0.66456 0.0
H2617 H 0.03865 0.1833 0.76719 0.0
H2618 H 0.98182 0.18407 0.68585 0.0
H2619 H 0.05073 0.12021 0.74842 0.0
H2620 H 0.01849 0.18393 0.7367 0.0
H2621 H 0.0169 0.12115 0.69412 0.0
C2622 C 0.99697 0.1354 0.67529 0.0
C2623 C 0.98658 0.153 0.67272 0.0
C2624 C 0.0255 0.16991 0.73924 0.0
C2625 C 0.0112 0.15225 0.70663 0.0
C2626 C 0.03694 0.16954 0.75669 0.0
C2627 C 0.04627 0.15166 0.76035 0.0
C2628 C 0.02337 0.15227 0.72529 0.0
C2629 C 0.0437 0.13429 0.74618 0.0
C2630 C 0.00926 0.13497 0.69223 0.0
C2631 C 0.98938 0.1701 0.68722 0.0
N2632 N 0.03249 0.13503 0.72925 0.0
N2633 N 1.00132 0.16926 0.70352 0.0
H2634 H 0.35381 0.21118 0.48484 0.0
H2635 H 0.41009 0.31921 0.52379 0.0
H2636 H 0.38478 0.25446 0.44448 0.0
H2637 H 0.37834 0.27674 0.56417 0.0
H2638 H 0.40811 0.29224 0.4953 0.0
H2639 H 0.36818 0.23197 0.51452 0.0
C2640 C 0.36366 0.22505 0.48226 0.0
C2641 C 0.36787 0.23132 0.46227 0.0
C2642 C 0.40205 0.28858 0.51051 0.0
C2643 C 0.38448 0.25508 0.49601 0.0
C2644 C 0.40352 0.30388 0.52683 0.0
C2645 C 0.39414 0.3001 0.54618 0.0
C2646 C 0.39098 0.26953 0.51369 0.0
C2647 C 0.38541 0.28019 0.54931 0.0
C2648 C 0.37198 0.23684 0.49915 0.0
C2649 C 0.38097 0.24922 0.45969 0.0
N2650 N 0.38365 0.26572 0.53313 0.0
N2651 N 0.38865 0.26058 0.47638 0.0
H2652 H 0.42441 0.52762 0.30136 0.0
H2653 H 0.37265 0.41903 0.25839 0.0
H2654 H 0.37891 0.48996 0.33524 0.0
H2655 H 0.4209 0.4531 0.22431 0.0
H2656 H 0.37894 0.44266 0.2887 0.0
H2657 H 0.42771 0.49858 0.2752 0.0
C2658 C 0.41545 0.51312 0.30352 0.0
C2659 C 0.40109 0.51129 0.32028 0.0
C2660 C 0.38836 0.44493 0.27471 0.0
C2661 C 0.40466 0.47822 0.29047 0.0
C2662 C 0.38471 0.43145 0.25737 0.0
C2663 C 0.39604 0.43436 0.23876 0.0
C2664 C 0.40321 0.46173 0.27339 0.0
C2665 C 0.41174 0.45045 0.23837 0.0
C2666 C 0.41728 0.4966 0.28856 0.0
C2667 C 0.38989 0.49218 0.32236 0.0
N2668 N 0.41463 0.46381 0.25537 0.0
N2669 N 0.39174 0.47651 0.30751 0.0
H2670 H 0.99292 0.6159 0.07267 0.0
H2671 H 0.06164 0.66647 0.98211 0.0
H2672 H 0.97131 0.66585 0.04218 0.0
H2673 H 0.06168 0.603 0.99656 0.0
H2674 H 0.03326 0.67125 0.00828 0.0
H2675 H 0.02368 0.6167 0.04991 0.0
C2676 C 0.99472 0.6272 0.06124 0.0
C2677 C 0.97927 0.64055 0.05903 0.0
C2678 C 0.0396 0.65636 0.00568 0.0
C2679 C 0.01469 0.64145 0.03276 0.0
C2680 C 0.05579 0.65362 0.99087 0.0
C2681 C 0.06397 0.63428 0.98713 0.0
C2682 C 0.03195 0.63975 0.01706 0.0
C2683 C 0.05576 0.61812 0.99879 0.0
C2684 C 0.01231 0.62759 0.04822 0.0
C2685 C 0.98277 0.65519 0.04428 0.0
N2686 N 0.04031 0.62126 0.01325 0.0
N2687 N 1.0001 0.65511 0.03145 0.0
H2688 H 0.43337 0.34646 0.50878 0.0
H2689 H 0.55067 0.38674 0.484 0.0
H2690 H 0.4643 0.40182 0.53742 0.0
H2691 H 0.51806 0.34101 0.44359 0.0
H2692 H 0.52049 0.3871 0.50777 0.0
H2693 H 0.46508 0.34011 0.48791 0.0
C2694 C 0.44681 0.35724 0.51074 0.0
C2695 C 0.44615 0.37473 0.52489 0.0
C2696 C 0.51992 0.37677 0.49386 0.0
C2697 C 0.48244 0.36738 0.50127 0.0
C2698 C 0.53721 0.37642 0.48039 0.0
C2699 C 0.53673 0.36392 0.46182 0.0
C2700 C 0.50185 0.36466 0.48868 0.0
C2701 C 0.51899 0.35079 0.45785 0.0
C2702 C 0.46487 0.35359 0.49882 0.0
C2703 C 0.46399 0.38822 0.52665 0.0
N2704 N 0.50204 0.35171 0.47107 0.0
N2705 N 0.48136 0.38422 0.51505 0.0
H2706 H 0.08434 0.0563 0.7807 0.0
H2707 H 0.13045 0.01816 0.6696 0.0
H2708 H 0.13346 0.08914 0.7465 0.0
H2709 H 0.08338 0.9824 0.70355 0.0
H2710 H 0.12643 0.04741 0.69483 0.0
H2711 H 0.07865 0.03229 0.75011 0.0
C2712 C 0.09367 0.05867 0.76667 0.0
C2713 C 0.10967 0.07444 0.76622 0.0
C2714 C 0.11676 0.03327 0.69669 0.0
C2715 C 0.10329 0.04717 0.73136 0.0
C2716 C 0.11907 0.01655 0.68227 0.0
C2717 C 0.1075 0.99772 0.68471 0.0
C2718 C 0.10298 0.03111 0.71388 0.0
C2719 C 0.09273 0.99661 0.70121 0.0
C2720 C 0.09045 0.04495 0.74925 0.0
C2721 C 0.12123 0.07691 0.74765 0.0
N2722 N 0.09114 0.013 0.71542 0.0
N2723 N 0.11795 0.06329 0.73105 0.0
H2724 H 0.52335 0.32195 0.32157 0.0
H2725 H 0.4546 0.38824 0.258 0.0
H2726 H 0.51018 0.38453 0.34176 0.0
H2727 H 0.47 0.32619 0.23883 0.0
H2728 H 0.47411 0.38739 0.28905 0.0
H2729 H 0.50261 0.32325 0.29195 0.0
C2730 C 0.51598 0.33598 0.31988 0.0
C2731 C 0.51865 0.35322 0.33421 0.0
C2732 C 0.47326 0.374 0.27802 0.0
C2733 C 0.49478 0.35481 0.29994 0.0
C2734 C 0.46222 0.37449 0.26027 0.0
C2735 C 0.46078 0.35727 0.24581 0.0
C2736 C 0.48291 0.35613 0.28131 0.0
C2737 C 0.47079 0.33983 0.24954 0.0
C2738 C 0.50413 0.3367 0.30285 0.0
C2739 C 0.50853 0.37086 0.33115 0.0
N2740 N 0.4814 0.33971 0.26692 0.0
N2741 N 0.49712 0.37125 0.31425 0.0
H2742 H 0.0928 0.69293 0.97803 0.0
H2743 H 0.15721 0.79472 0.02046 0.0
H2744 H 0.13494 0.73026 0.94057 0.0
H2745 H 0.11409 0.75837 0.05814 0.0
H2746 H 0.14404 0.77512 0.98962 0.0
H2747 H 0.09392 0.72094 0.00559 0.0
C2748 C 0.10156 0.70739 0.97527 0.0
C2749 C 0.11402 0.70932 0.95718 0.0
C2750 C 0.13727 0.77156 0.00461 0.0
C2751 C 0.11604 0.74098 0.98872 0.0
C2752 C 0.1449 0.78267 0.0222 0.0
C2753 C 0.13699 0.77787 0.04183 0.0
C2754 C 0.12176 0.7554 0.0067 0.0
C2755 C 0.12082 0.76234 0.04326 0.0
C2756 C 0.10247 0.72327 0.99111 0.0
C2757 C 0.12537 0.72819 0.95446 0.0
N2758 N 0.11391 0.75147 0.02594 0.0
N2759 N 0.12646 0.74315 0.97022 0.0
H2760 H 0.9923 0.03173 0.41869 0.0
H2761 H 0.03087 0.92739 0.36043 0.0
H2762 H 0.96927 0.00571 0.36049 0.0
H2763 H 0.0529 0.9554 0.4184 0.0
H2764 H 0.01038 0.95715 0.35816 0.0
H2765 H 0.0166 0.005 0.41708 0.0
C2766 C 0.99251 0.02049 0.40546 0.0
C2767 C 0.97874 0.02093 0.38973 0.0
C2768 C 0.01988 0.95681 0.37125 0.0
C2769 C 0.00646 0.99005 0.38779 0.0
C2770 C 0.03166 0.9399 0.37249 0.0
C2771 C 0.0435 0.93878 0.38971 0.0
C2772 C 0.02003 0.97268 0.38733 0.0
C2773 C 0.04384 0.9554 0.40494 0.0
C2774 C 0.00637 0.00517 0.40453 0.0
C2775 C 0.97964 0.00591 0.37297 0.0
N2776 N 0.03221 0.9715 0.40344 0.0
N2777 N 0.99317 0.991 0.37249 0.0
H2778 H 0.51366 0.29657 0.41006 0.0
H2779 H 0.46045 0.19193 0.3596 0.0
H2780 H 0.53995 0.25972 0.35864 0.0
H2781 H 0.43071 0.23029 0.40752 0.0
H2782 H 0.49294 0.21242 0.36514 0.0
H2783 H 0.48666 0.26881 0.41499 0.0
C2784 C 0.5139 0.28249 0.39999 0.0
C2785 C 0.52875 0.28051 0.38364 0.0
C2786 C 0.47945 0.21626 0.37469 0.0
C2787 C 0.49801 0.24882 0.38918 0.0
C2788 C 0.46094 0.20458 0.37152 0.0
C2789 C 0.44298 0.2098 0.38289 0.0
C2790 C 0.4799 0.23356 0.38904 0.0
C2791 C 0.44431 0.22599 0.39839 0.0
C2792 C 0.49851 0.26666 0.40283 0.0
C2793 C 0.52857 0.26193 0.37122 0.0
N2794 N 0.46247 0.23765 0.40076 0.0
N2795 N 0.51325 0.24688 0.37409 0.0
H2796 H 0.53963 0.00397 0.14605 0.0
H2797 H 0.45067 0.05088 0.0888 0.0
H2798 H 0.51312 0.97616 0.09009 0.0
H2799 H 0.47697 0.0808 0.14407 0.0
H2800 H 0.47124 0.02182 0.09132 0.0
H2801 H 0.51499 0.0306 0.14767 0.0
C2802 C 0.52848 1.00335 0.13422 0.0
C2803 C 0.52844 0.98786 0.11786 0.0
C2804 C 0.47246 0.03462 0.10303 0.0
C2805 C 0.50027 0.0183 0.11959 0.0
C2806 C 0.46068 0.05128 0.10161 0.0
C2807 C 0.46222 0.06845 0.11615 0.0
C2808 C 0.4861 0.03502 0.11904 0.0
C2809 C 0.47529 0.0679 0.13253 0.0
C2810 C 0.51445 0.01858 0.13514 0.0
C2811 C 0.51371 0.98782 0.10295 0.0
N2812 N 0.48691 0.05154 0.13341 0.0
N2813 N 0.50031 1.00284 0.10412 0.0
H2814 H 0.06258 0.29986 0.5983 0.0
H2815 H 0.97396 0.23925 0.66098 0.0
H2816 H 0.07111 0.27061 0.6542 0.0
H2817 H 0.9818 0.22006 0.5961 0.0
H2818 H 0.00428 0.26372 0.65764 0.0
H2819 H 0.02845 0.28035 0.59584 0.0
C2820 C 0.05747 0.28923 0.60983 0.0
C2821 C 0.06957 0.28713 0.62666 0.0
C2822 C 0.99901 0.25443 0.64407 0.0
C2823 C 0.03082 0.26583 0.62433 0.0
C2824 C 0.98174 0.24057 0.64594 0.0
C2825 C 0.97576 0.22739 0.62889 0.0
C2826 C 0.01014 0.25517 0.62503 0.0
C2827 C 0.98627 0.22979 0.60967 0.0
C2828 C 0.03804 0.27834 0.60849 0.0
C2829 C 0.06222 0.27313 0.64117 0.0
N2830 N 0.00327 0.24327 0.60826 0.0
N2831 N 0.04322 0.26331 0.63985 0.0
H2832 H 0.63184 0.00749 0.0743 0.0
H2833 H 0.57141 0.05005 0.98472 0.0
H2834 H 0.56882 0.98748 0.06061 0.0
H2835 H 0.6354 0.06771 0.99576 0.0
H2836 H 0.57008 0.02738 0.01297 0.0
H2837 H 0.6333 0.03036 0.04622 0.0
C2838 C 0.61829 0.00794 0.06546 0.0
C2839 C 0.6002 0.99547 0.06978 0.0
C2840 C 0.58444 0.03616 0.00919 0.0
C2841 C 0.6018 0.02156 0.03762 0.0
C2842 C 0.5852 0.04905 0.99305 0.0
C2843 C 0.60353 0.06071 0.98796 0.0
C2844 C 0.60215 0.03496 0.0203 0.0
C2845 C 0.62095 0.05897 0.99926 0.0
C2846 C 0.61916 0.02096 0.04939 0.0
C2847 C 0.58315 0.99669 0.05777 0.0
N2848 N 0.61983 0.04634 0.01494 0.0
N2849 N 0.58438 0.00948 0.04225 0.0
H2850 H 0.23759 0.91111 0.80194 0.0
H2851 H 0.31409 0.84056 0.73381 0.0
H2852 H 0.24415 0.84997 0.82059 0.0
H2853 H 0.32181 0.90688 0.74647 0.0
H2854 H 0.28464 0.83986 0.75987 0.0
H2855 H 0.26361 0.90564 0.77456 0.0
C2856 C 0.24436 0.89639 0.80026 0.0
C2857 C 0.23872 0.88112 0.81395 0.0
C2858 C 0.29301 0.85443 0.75679 0.0
C2859 C 0.26906 0.87474 0.78212 0.0
C2860 C 0.30974 0.85485 0.74191 0.0
C2861 C 0.32048 0.8738 0.73754 0.0
C2862 C 0.28702 0.87309 0.767 0.0
C2863 C 0.31412 0.89181 0.74874 0.0
C2864 C 0.25935 0.89329 0.78452 0.0
C2865 C 0.24813 0.86228 0.81055 0.0
N2866 N 0.29797 0.89095 0.76264 0.0
N2867 N 0.263 0.85964 0.79503 0.0
H2868 H 0.58879 0.20721 0.27416 0.0
H2869 H 0.65987 0.2592 0.18422 0.0
H2870 H 0.64556 0.18241 0.25044 0.0
H2871 H 0.60436 0.28294 0.21267 0.0
H2872 H 0.65623 0.23146 0.20818 0.0
H2873 H 0.59515 0.23502 0.25135 0.0
C2874 C 0.60265 0.20755 0.26417 0.0
C2875 C 0.61663 0.19227 0.26439 0.0
C2876 C 0.64496 0.24286 0.2092 0.0
C2877 C 0.62412 0.22457 0.23783 0.0
C2878 C 0.64711 0.25879 0.1956 0.0
C2879 C 0.63238 0.27352 0.19627 0.0
C2880 C 0.62798 0.24165 0.22357 0.0
C2881 C 0.61607 0.27199 0.21131 0.0
C2882 C 0.60631 0.22357 0.25107 0.0
C2883 C 0.6343 0.19376 0.25088 0.0
N2884 N 0.61431 0.25643 0.22415 0.0
N2885 N 0.63753 0.20957 0.23817 0.0
H2886 H 0.23131 0.33211 0.4686 0.0
H2887 H 0.3172 0.39462 0.53814 0.0
H2888 H 0.24536 0.39804 0.46957 0.0
H2889 H 0.30394 0.32847 0.53666 0.0
H2890 H 0.29055 0.39619 0.51349 0.0
H2891 H 0.25711 0.33052 0.49431 0.0
C2892 C 0.23971 0.34627 0.47437 0.0
C2893 C 0.23618 0.36524 0.467 0.0
C2894 C 0.29346 0.38133 0.51856 0.0
C2895 C 0.26586 0.36354 0.49624 0.0
C2896 C 0.30873 0.38041 0.53264 0.0
C2897 C 0.31289 0.36137 0.53955 0.0
C2898 C 0.28218 0.36311 0.51128 0.0
C2899 C 0.30134 0.3435 0.53179 0.0
C2900 C 0.25449 0.34535 0.48898 0.0
C2901 C 0.24758 0.38309 0.47488 0.0
N2902 N 0.28653 0.34481 0.51812 0.0
N2903 N 0.26193 0.3818 0.48902 0.0
H2904 H 0.41562 0.79888 0.73169 0.0
H2905 H 0.3455 0.74891 0.82347 0.0
H2906 H 0.36055 0.82591 0.7571 0.0
H2907 H 0.40037 0.72453 0.79421 0.0
H2908 H 0.34904 0.77653 0.79932 0.0
H2909 H 0.40897 0.77131 0.75465 0.0
C2910 C 0.40207 0.79909 0.74209 0.0
C2911 C 0.38869 0.81495 0.74232 0.0
C2912 C 0.36017 0.76499 0.79817 0.0
C2913 C 0.38083 0.78286 0.76908 0.0
C2914 C 0.35807 0.74912 0.81187 0.0
C2915 C 0.37265 0.73423 0.81103 0.0
C2916 C 0.37692 0.76593 0.78351 0.0
C2917 C 0.38873 0.73554 0.79572 0.0
C2918 C 0.39824 0.78319 0.75529 0.0
C2919 C 0.37137 0.8141 0.75633 0.0
N2920 N 0.39042 0.75099 0.78279 0.0
N2921 N 0.36795 0.79838 0.76914 0.0
H2922 H 0.69058 0.11359 0.96713 0.0
H2923 H 0.77491 0.17584 0.03881 0.0
H2924 H 0.70243 0.17995 0.97023 0.0
H2925 H 0.76288 0.10958 0.03501 0.0
H2926 H 0.74905 0.17775 0.01319 0.0
H2927 H 0.71724 0.11195 0.9917 0.0
C2928 C 0.69873 0.12786 0.97298 0.0
C2929 C 0.69415 0.14696 0.96651 0.0
C2930 C 0.75214 0.16278 0.01787 0.0
C2931 C 0.72494 0.14513 0.99478 0.0
C2932 C 0.76696 0.16168 0.03243 0.0
C2933 C 0.77108 0.14251 0.039 0.0
C2934 C 0.74131 0.14458 0.00983 0.0
C2935 C 0.76021 0.12467 0.03035 0.0
C2936 C 0.71403 0.12689 0.98703 0.0
C2937 C 0.70535 0.16487 0.97472 0.0
N2938 N 0.74581 0.12614 0.01627 0.0
N2939 N 0.7202 0.16351 0.98839 0.0
H2940 H 0.70784 0.11701 0.29037 0.0
H2941 H 0.75419 0.15279 0.18091 0.0
H2942 H 0.67836 0.15999 0.25707 0.0
H2943 H 0.77383 0.10196 0.21146 0.0
H2944 H 0.72976 0.15997 0.21033 0.0
H2945 H 0.73588 0.11658 0.26405 0.0
C2946 C 0.70752 0.12679 0.27771 0.0
C2947 C 0.69069 0.13859 0.276 0.0
C2948 C 0.73955 0.14736 0.21062 0.0
C2949 C 0.72274 0.13769 0.24515 0.0
C2950 C 0.75357 0.14326 0.19385 0.0
C2951 C 0.76616 0.12665 0.19355 0.0
C2952 C 0.73822 0.13493 0.2274 0.0
C2953 C 0.76448 0.11484 0.21079 0.0
C2954 C 0.72349 0.12638 0.26252 0.0
C2955 C 0.69113 0.15085 0.25914 0.0
N2956 N 0.75086 0.1192 0.22686 0.0
N2957 N 0.70676 0.14988 0.24421 0.0
H2958 H 0.3765 0.43 0.50308 0.0
H2959 H 0.43071 0.53145 0.45607 0.0
H2960 H 0.42363 0.47016 0.53329 0.0
H2961 H 0.37849 0.49574 0.42939 0.0
H2962 H 0.42855 0.50883 0.48422 0.0
H2963 H 0.37709 0.45366 0.47575 0.0
C2964 C 0.38693 0.44385 0.50397 0.0
C2965 C 0.40013 0.44813 0.52036 0.0
C2966 C 0.41753 0.50596 0.47224 0.0
C2967 C 0.40091 0.47519 0.4892 0.0
C2968 C 0.41878 0.51885 0.4561 0.0
C2969 C 0.40479 0.51548 0.44028 0.0
C2970 C 0.40226 0.48947 0.47255 0.0
C2971 C 0.38961 0.49893 0.44124 0.0
C2972 C 0.38724 0.45735 0.48839 0.0
C2973 C 0.41328 0.46627 0.52085 0.0
N2974 N 0.3888 0.48648 0.45707 0.0
N2975 N 0.4134 0.47912 0.50542 0.0
H2976 H 0.33148 0.76366 0.86305 0.0
H2977 H 0.2396 0.82145 0.92391 0.0
H2978 H 0.30167 0.74629 0.92066 0.0
H2979 H 0.26486 0.83906 0.86458 0.0
H2980 H 0.26367 0.79499 0.92296 0.0
H2981 H 0.3088 0.79201 0.86332 0.0
C2982 C 0.32027 0.76581 0.87581 0.0
C2983 C 0.31859 0.75244 0.89189 0.0
C2984 C 0.26408 0.80458 0.91009 0.0
C2985 C 0.29252 0.78498 0.89223 0.0
C2986 C 0.25023 0.81983 0.9106 0.0
C2987 C 0.24997 0.83263 0.89423 0.0
C2988 C 0.27804 0.80179 0.89308 0.0
C2989 C 0.26443 0.82963 0.87756 0.0
C2990 C 0.3073 0.78201 0.87591 0.0
C2991 C 0.30365 0.75606 0.9079 0.0
N2992 N 0.27782 0.81449 0.87738 0.0
N2993 N 0.2913 0.77188 0.90764 0.0
H2994 H 0.70248 0.96238 0.12962 0.0
H2995 H 0.76185 0.06461 0.08924 0.0
H2996 H 0.67243 1.00278 0.09381 0.0
H2997 H 0.77919 0.03117 0.13927 0.0
H2998 H 0.73295 0.0382 0.08296 0.0
H2999 H 0.73497 0.98263 0.12406 0.0
C3000 C 0.70288 0.97528 0.12012 0.0
C3001 C 0.6848 0.98099 0.11226 0.0
C3002 C 0.74331 0.03658 0.09508 0.0
C3003 C 0.72187 0.00495 0.10654 0.0
C3004 C 0.75977 0.05153 0.09861 0.0
C3005 C 0.7727 0.05007 0.11493 0.0
C3006 C 0.74021 0.01999 0.10771 0.0
C3007 C 0.76941 0.03298 0.1267 0.0
C3008 C 0.72141 0.98698 0.11709 0.0
C3009 C 0.68612 0.99792 0.1001 0.0
N3010 N 0.75351 0.01868 0.12289 0.0
N3011 N 0.70435 0.00966 0.09794 0.0
H3012 H 0.73822 0.66539 0.64324 0.0
H3013 H 0.70396 0.76142 0.58656 0.0
H3014 H 0.76416 0.68495 0.58485 0.0
H3015 H 0.67332 0.74233 0.64318 0.0
H3016 H 0.72593 0.73301 0.58639 0.0
H3017 H 0.71406 0.69271 0.64414 0.0
C3018 C 0.7388 0.67526 0.63059 0.0
C3019 C 0.75341 0.67276 0.61398 0.0
C3020 C 0.71439 0.73491 0.59887 0.0
C3021 C 0.72586 0.70413 0.61498 0.0
C3022 C 0.70176 0.75124 0.59898 0.0
C3023 C 0.68663 0.75442 0.61489 0.0
C3024 C 0.71211 0.72145 0.61482 0.0
C3025 C 0.68469 0.74052 0.63053 0.0
C3026 C 0.72503 0.6909 0.63114 0.0
C3027 C 0.75339 0.68617 0.59808 0.0
N3028 N 0.69729 0.72471 0.63013 0.0
N3029 N 0.73998 0.70115 0.59903 0.0
H3030 H 0.31256 0.03504 0.91238 0.0
H3031 H 0.25837 0.92737 0.86921 0.0
H3032 H 0.3419 0.98894 0.87238 0.0
H3033 H 0.22687 0.9687 0.91302 0.0
H3034 H 0.29041 0.94832 0.87458 0.0
H3035 H 0.28252 0.00993 0.91741 0.0
C3036 C 0.31286 0.01948 0.90516 0.0
C3037 C 0.3295 0.01397 0.89183 0.0
C3038 C 0.27663 0.95288 0.88323 0.0
C3039 C 0.29553 0.98551 0.89725 0.0
C3040 C 0.25828 0.9409 0.88009 0.0
C3041 C 0.23994 0.94653 0.89045 0.0
C3042 C 0.27671 0.97099 0.89653 0.0
C3043 C 0.24074 0.96397 0.90465 0.0
C3044 C 0.29574 0.00523 0.90791 0.0
C3045 C 0.32922 0.99379 0.88262 0.0
N3046 N 0.25882 0.97588 0.90703 0.0
N3047 N 0.31247 0.9804 0.88537 0.0
H3048 H 0.4256 0.97075 0.03432 0.0
H3049 H 0.3788 0.99667 0.92908 0.0
H3050 H 0.3757 0.93388 0.00497 0.0
H3051 H 0.43308 0.02955 0.95468 0.0
H3052 H 0.37614 0.97479 0.95791 0.0
H3053 H 0.42705 0.99408 0.00655 0.0
C3054 C 0.41492 0.96763 0.02205 0.0
C3055 C 0.40061 0.95035 0.02179 0.0
C3056 C 0.38863 0.9868 0.95721 0.0
C3057 C 0.40219 0.97679 0.99005 0.0
C3058 C 0.39018 0.9993 0.94074 0.0
C3059 C 0.40622 0.01498 0.93941 0.0
C3060 C 0.40318 0.99 0.97253 0.0
C3061 C 0.42048 0.01765 0.95502 0.0
C3062 C 0.41577 0.9809 0.0062 0.0
C3063 C 0.38704 0.94701 0.00565 0.0
N3064 N 0.41861 0.00529 0.97093 0.0
N3065 N 0.3882 0.96009 0.99037 0.0
H3066 H 0.70061 0.67962 0.47038 0.0
H3067 H 0.76203 0.6071 0.53515 0.0
H3068 H 0.6914 0.61303 0.46591 0.0
H3069 H 0.77074 0.67363 0.54072 0.0
H3070 H 0.73677 0.60902 0.50905 0.0
H3071 H 0.72667 0.67782 0.49566 0.0
C3072 C 0.70401 0.66461 0.4747 0.0
C3073 C 0.69371 0.64645 0.46592 0.0
C3074 C 0.74425 0.62322 0.5159 0.0
C3075 C 0.7237 0.6443 0.49492 0.0
C3076 C 0.75872 0.62212 0.53076 0.0
C3077 C 0.76851 0.64023 0.54008 0.0
C3078 C 0.73947 0.64259 0.51029 0.0
C3079 C 0.76359 0.65928 0.53386 0.0
C3080 C 0.71895 0.66361 0.48915 0.0
C3081 C 0.69887 0.62746 0.4722 0.0
N3082 N 0.74938 0.65997 0.5194 0.0
N3083 N 0.71347 0.6269 0.48627 0.0
H3084 H 0.30524 0.82692 0.03552 0.0
H3085 H 0.24258 0.89896 0.97146 0.0
H3086 H 0.31544 0.89343 0.03846 0.0
H3087 H 0.23292 0.83248 0.96739 0.0
H3088 H 0.26867 0.89721 0.99675 0.0
H3089 H 0.27843 0.82859 0.01101 0.0
C3090 C 0.30193 0.84189 0.03099 0.0
C3091 C 0.31271 0.86007 0.03913 0.0
C3092 C 0.2608 0.88299 0.99042 0.0
C3093 C 0.28183 0.86206 0.01105 0.0
C3094 C 0.24585 0.88399 0.97602 0.0
C3095 C 0.23555 0.86584 0.96736 0.0
C3096 C 0.26555 0.86368 0.9962 0.0
C3097 C 0.24044 0.84686 0.97377 0.0
C3098 C 0.28655 0.84282 0.017 0.0
C3099 C 0.30761 0.87899 0.03265 0.0
N3100 N 0.25513 0.84627 0.98776 0.0
N3101 N 0.29256 0.87947 0.01904 0.0
H3102 H 0.62942 0.57783 0.5038 0.0
H3103 H 0.57371 0.4771 0.55117 0.0
H3104 H 0.58154 0.53853 0.47382 0.0
H3105 H 0.62664 0.51197 0.57739 0.0
H3106 H 0.57577 0.50004 0.52326 0.0
H3107 H 0.62812 0.55441 0.53141 0.0
C3108 C 0.61868 0.56421 0.50302 0.0
C3109 C 0.60553 0.56008 0.48657 0.0
C3110 C 0.58695 0.50266 0.5351 0.0
C3111 C 0.60392 0.53327 0.51806 0.0
C3112 C 0.58577 0.48958 0.5511 0.0
C3113 C 0.60002 0.49259 0.5667 0.0
C3114 C 0.60242 0.51896 0.53471 0.0
C3115 C 0.61533 0.50902 0.5657 0.0
C3116 C 0.61795 0.55085 0.51876 0.0
C3117 C 0.5919 0.54227 0.48627 0.0
N3118 N 0.61609 0.52162 0.55 0.0
N3119 N 0.59141 0.52953 0.50183 0.0
H3120 H 0.67444 0.2441 0.14411 0.0
H3121 H 0.76473 0.18477 0.08227 0.0
H3122 H 0.70418 0.26135 0.08643 0.0
H3123 H 0.73991 0.16775 0.14196 0.0
H3124 H 0.74098 0.21156 0.08338 0.0
H3125 H 0.69653 0.21526 0.14346 0.0
C3126 C 0.68551 0.24183 0.13126 0.0
C3127 C 0.68735 0.25531 0.11527 0.0
C3128 C 0.74059 0.20202 0.09628 0.0
C3129 C 0.71275 0.22219 0.1145 0.0
C3130 C 0.75424 0.18658 0.09568 0.0
C3131 C 0.75454 0.17388 0.11213 0.0
C3132 C 0.72689 0.20509 0.11346 0.0
C3133 C 0.74029 0.17709 0.12891 0.0
C3134 C 0.69816 0.22534 0.13094 0.0
C3135 C 0.7021 0.25151 0.09912 0.0
N3136 N 0.72711 0.19243 0.12919 0.0
N3137 N 0.71413 0.23541 0.09918 0.0
H3138 H 0.26731 0.34072 0.36446 0.0
H3139 H 0.30182 0.24424 0.42027 0.0
H3140 H 0.2407 0.32008 0.42218 0.0
H3141 H 0.33266 0.26417 0.36406 0.0
H3142 H 0.27953 0.2724 0.42055 0.0
H3143 H 0.29162 0.31353 0.36344 0.0
C3144 C 0.26661 0.33063 0.37695 0.0
C3145 C 0.25179 0.33279 0.3934 0.0
C3146 C 0.29118 0.27074 0.40813 0.0
C3147 C 0.27951 0.30158 0.39226 0.0
C3148 C 0.304 0.25456 0.40796 0.0
C3149 C 0.31929 0.25169 0.39214 0.0
C3150 C 0.29343 0.28438 0.39234 0.0
C3151 C 0.32118 0.26574 0.37664 0.0
C3152 C 0.28047 0.31507 0.37632 0.0
C3153 C 0.25165 0.31911 0.40908 0.0
N3154 N 0.3084 0.28142 0.3771 0.0
N3155 N 0.26516 0.30422 0.40807 0.0
H3156 H 0.25146 0.35381 0.32561 0.0
H3157 H 0.3006 0.3931 0.21888 0.0
H3158 H 0.23238 0.40522 0.29555 0.0
H3159 H 0.32707 0.34595 0.24926 0.0
H3160 H 0.27215 0.39302 0.24446 0.0
H3161 H 0.27612 0.34687 0.29633 0.0
C3162 C 0.25227 0.36352 0.3128 0.0
C3163 C 0.23983 0.38026 0.31319 0.0
C3164 C 0.28393 0.38242 0.24553 0.0
C3165 C 0.26802 0.37228 0.27958 0.0
C3166 C 0.30015 0.38228 0.23069 0.0
C3167 C 0.31624 0.3694 0.23175 0.0
C3168 C 0.28374 0.36985 0.26205 0.0
C3169 C 0.31489 0.35597 0.24771 0.0
C3170 C 0.26641 0.35955 0.29612 0.0
C3171 C 0.24169 0.39229 0.29614 0.0
N3172 N 0.29905 0.35674 0.26244 0.0
N3173 N 0.25547 0.38809 0.28019 0.0
H3174 H 0.58683 0.70624 0.77399 0.0
H3175 H 0.65832 0.7589 0.6847 0.0
H3176 H 0.64464 0.68286 0.7515 0.0
H3177 H 0.60071 0.78042 0.71025 0.0
H3178 H 0.65485 0.73158 0.70907 0.0
H3179 H 0.59263 0.73367 0.75065 0.0
C3180 C 0.60081 0.70684 0.76418 0.0
C3181 C 0.61525 0.69206 0.76489 0.0
C3182 C 0.64305 0.74238 0.70935 0.0
C3183 C 0.62207 0.72389 0.73772 0.0
C3184 C 0.64508 0.75807 0.6955 0.0
C3185 C 0.62977 0.77208 0.69526 0.0
C3186 C 0.62561 0.74068 0.72309 0.0
C3187 C 0.61289 0.77002 0.70961 0.0
C3188 C 0.60414 0.72262 0.75076 0.0
C3189 C 0.63303 0.69383 0.75157 0.0
N3190 N 0.61129 0.75472 0.72275 0.0
N3191 N 0.63593 0.7094 0.73856 0.0
H3192 H 0.41819 0.30049 0.23287 0.0
H3193 H 0.3475 0.24818 0.32291 0.0
H3194 H 0.36126 0.3249 0.25666 0.0
H3195 H 0.40418 0.22579 0.29584 0.0
H3196 H 0.35093 0.27575 0.2988 0.0
H3197 H 0.41229 0.2729 0.25598 0.0
C3198 C 0.40439 0.30011 0.24294 0.0
C3199 C 0.39024 0.31522 0.24266 0.0
C3200 C 0.36252 0.26471 0.29813 0.0
C3201 C 0.38328 0.28316 0.26957 0.0
C3202 C 0.36052 0.24887 0.31183 0.0
C3203 C 0.3756 0.23455 0.31158 0.0
C3204 C 0.37971 0.26623 0.28404 0.0
C3205 C 0.39219 0.23643 0.29687 0.0
C3206 C 0.401 0.28422 0.25622 0.0
C3207 C 0.37266 0.31368 0.25627 0.0
N3208 N 0.39378 0.25188 0.2839 0.0
N3209 N 0.36969 0.29799 0.26915 0.0
H3210 H 0.70703 0.6177 0.79121 0.0
H3211 H 0.75412 0.6522 0.68158 0.0
H3212 H 0.67762 0.65967 0.75666 0.0
H3213 H 0.77403 0.60206 0.71297 0.0
H3214 H 0.72955 0.6596 0.71077 0.0
H3215 H 0.73546 0.61717 0.76529 0.0
C3216 C 0.70684 0.62728 0.77839 0.0
C3217 C 0.68993 0.63883 0.7762 0.0
C3218 C 0.73941 0.6471 0.71131 0.0
C3219 C 0.7224 0.63779 0.74582 0.0
C3220 C 0.75352 0.64287 0.69467 0.0
C3221 C 0.7662 0.62636 0.69467 0.0
C3222 C 0.73807 0.63491 0.72826 0.0
C3223 C 0.76456 0.61481 0.71209 0.0
C3224 C 0.72303 0.6268 0.76343 0.0
C3225 C 0.69048 0.65079 0.75912 0.0
N3226 N 0.75082 0.61929 0.72805 0.0
N3227 N 0.70632 0.64976 0.74443 0.0
H3228 H 0.67223 0.50248 0.59247 0.0
H3229 H 0.77992 0.5299 0.64093 0.0
H3230 H 0.70186 0.46182 0.62841 0.0
H3231 H 0.7619 0.56262 0.59069 0.0
H3232 H 0.75212 0.50342 0.63392 0.0
H3233 H 0.70545 0.52302 0.58799 0.0
C3234 C 0.68588 0.49749 0.59876 0.0
C3235 C 0.68441 0.48066 0.61101 0.0
C3236 C 0.75429 0.5162 0.62417 0.0
C3237 C 0.72199 0.50405 0.60639 0.0
C3238 C 0.77013 0.53137 0.62828 0.0
C3239 C 0.77301 0.54847 0.61649 0.0
C3240 C 0.74082 0.51836 0.60848 0.0
C3241 C 0.76007 0.54959 0.60012 0.0
C3242 C 0.70476 0.50926 0.59635 0.0
C3243 C 0.70238 0.47489 0.61907 0.0
N3244 N 0.7442 0.53489 0.59681 0.0
N3245 N 0.72032 0.48672 0.61688 0.0
H3246 H 0.33361 0.50505 0.41419 0.0
H3247 H 0.22427 0.47682 0.36795 0.0
H3248 H 0.30353 0.544 0.37678 0.0
H3249 H 0.24521 0.44299 0.41598 0.0
H3250 H 0.25213 0.50339 0.37428 0.0
H3251 H 0.30061 0.48418 0.41905 0.0
C3252 C 0.31991 0.50957 0.4076 0.0
C3253 C 0.3212 0.52605 0.39489 0.0
C3254 C 0.25062 0.49034 0.3837 0.0
C3255 C 0.28384 0.5023 0.39999 0.0
C3256 C 0.23472 0.47514 0.38001 0.0
C3257 C 0.23263 0.45768 0.39134 0.0
C3258 C 0.26497 0.4879 0.39851 0.0
C3259 C 0.24641 0.4563 0.40693 0.0
C3260 C 0.30116 0.49762 0.41023 0.0
C3261 C 0.30318 0.53122 0.38646 0.0
N3262 N 0.26231 0.47106 0.40982 0.0
N3263 N 0.28535 0.51925 0.38894 0.0
H3264 H 0.08269 0.96824 0.44809 0.0
H3265 H 0.16058 0.05758 0.44449 0.0
H3266 H 0.13703 0.94438 0.41702 0.0
H3267 H 0.11893 0.04869 0.39463 0.0
H3268 H 0.1554 0.02023 0.44913 0.0
H3269 H 0.09861 0.00339 0.44542 0.0
C3270 C 0.09816 0.97037 0.44118 0.0
C3271 C 0.10856 0.95346 0.43264 0.0
C3272 C 0.14806 0.02652 0.43677 0.0
C3273 C 0.12665 0.99333 0.42977 0.0
C3274 C 0.1511 0.04766 0.43399 0.0
C3275 C 0.14012 0.05608 0.41917 0.0
C3276 C 0.13408 0.01412 0.42457 0.0
C3277 C 0.12759 0.04273 0.40626 0.0
C3278 C 0.10716 0.99034 0.43971 0.0
C3279 C 0.12853 0.95709 0.4237 0.0
N3280 N 0.12458 0.02242 0.40952 0.0
N3281 N 0.1369 0.97678 0.42218 0.0
H3282 H 0.07781 0.38187 0.67391 0.0
H3283 H 0.96344 0.36926 0.636 0.0
H3284 H 0.06332 0.35679 0.61266 0.0
H3285 H 0.98052 0.40697 0.69077 0.0
H3286 H 1.00004 0.36737 0.62561 0.0
H3287 H 0.04323 0.39417 0.6789 0.0
C3288 C 0.0676 0.37969 0.66117 0.0
C3289 C 0.07375 0.36876 0.64261 0.0
C3290 C 0.99588 0.37653 0.63963 0.0
C3291 C 0.03345 0.38192 0.64862 0.0
C3292 C 0.97494 0.37778 0.64548 0.0
C3293 C 0.96886 0.38875 0.66402 0.0
C3294 C 0.01107 0.38584 0.65271 0.0
C3295 C 0.98447 0.39885 0.67608 0.0
C3296 C 0.04771 0.38652 0.66412 0.0
C3297 C 0.05952 0.36569 0.62696 0.0
N3298 N 0.00478 0.3969 0.67038 0.0
N3299 N 0.03999 0.3719 0.63043 0.0
H3300 H 0.69765 0.31651 0.85573 0.0
H3301 H 0.62494 0.22339 0.89811 0.0
H3302 H 0.64659 0.32493 0.89996 0.0
H3303 H 0.68986 0.22087 0.88209 0.0
H3304 H 0.62676 0.25849 0.88673 0.0
H3305 H 0.68795 0.27939 0.85282 0.0
C3306 C 0.68392 0.31069 0.86423 0.0
C3307 C 0.67309 0.32375 0.87841 0.0
C3308 C 0.64045 0.25001 0.88526 0.0
C3309 C 0.66206 0.28144 0.87512 0.0
C3310 C 0.63944 0.23004 0.89168 0.0
C3311 C 0.65736 0.21945 0.89119 0.0
C3312 C 0.65941 0.25917 0.878 0.0
C3313 C 0.67578 0.22871 0.88288 0.0
C3314 C 0.67854 0.28949 0.86267 0.0
C3315 C 0.65551 0.31532 0.88909 0.0
N3316 N 0.67638 0.24816 0.87672 0.0
N3317 N 0.65069 0.29458 0.88747 0.0
H3318 H 0.69427 0.92321 0.19441 0.0
H3319 H 0.8071 0.92725 0.14779 0.0
H3320 H 0.70566 0.92513 0.12857 0.0
H3321 H 0.78803 0.88469 0.19388 0.0
H3322 H 0.77065 0.93149 0.14254 0.0
H3323 H 0.72958 0.91338 0.19707 0.0
C3324 C 0.70417 0.92144 0.18054 0.0
C3325 C 0.69722 0.92515 0.16128 0.0
C3326 C 0.77454 0.92105 0.15361 0.0
C3327 C 0.73736 0.91448 0.16428 0.0
C3328 C 0.79521 0.91868 0.15662 0.0
C3329 C 0.8004 0.90554 0.17116 0.0
C3330 C 0.75915 0.91071 0.16572 0.0
C3331 C 0.78454 0.89482 0.18237 0.0
C3332 C 0.72419 0.91581 0.18206 0.0
C3333 C 0.71054 0.92258 0.14374 0.0
N3334 N 0.76455 0.8979 0.17967 0.0
N3335 N 0.73017 0.91775 0.14569 0.0
H3336 H 0.08999 0.18125 0.86996 0.0
H3337 H 0.13056 0.30032 0.87937 0.0
H3338 H 0.14245 0.20656 0.83439 0.0
H3339 H 0.07508 0.27587 0.91071 0.0
H3340 H 0.13954 0.26513 0.86899 0.0
H3341 H 0.08884 0.21418 0.89064 0.0
C3342 C 0.10164 0.1936 0.86682 0.0
C3343 C 0.11632 0.19107 0.85029 0.0
C3344 C 0.12568 0.26735 0.87862 0.0
C3345 C 0.1148 0.22922 0.87386 0.0
C3346 C 0.12067 0.28747 0.8848 0.0
C3347 C 0.1022 0.29105 0.89624 0.0
C3348 C 0.11198 0.25052 0.88362 0.0
C3349 C 0.08969 0.27384 0.90234 0.0
C3350 C 0.10088 0.21249 0.87861 0.0
C3351 C 0.13096 0.20769 0.84702 0.0
N3352 N 0.09464 0.25434 0.89569 0.0
N3353 N 0.12963 0.22613 0.85846 0.0
H3354 H 0.8121 0.34323 0.14163 0.0
H3355 H 0.70105 0.36529 0.11498 0.0
H3356 H 0.79904 0.3958 0.10991 0.0
H3357 H 0.71304 0.31899 0.15548 0.0
H3358 H 0.73585 0.38134 0.11942 0.0
H3359 H 0.77601 0.33914 0.15384 0.0
C3360 C 0.80173 0.35443 0.13794 0.0
C3361 C 0.80846 0.3698 0.12467 0.0
C3362 C 0.73082 0.36796 0.12774 0.0
C3363 C 0.76694 0.36471 0.13783 0.0
C3364 C 0.71093 0.35877 0.1252 0.0
C3365 C 0.70431 0.34063 0.13466 0.0
C3366 C 0.74441 0.35865 0.13944 0.0
C3367 C 0.7176 0.33293 0.14787 0.0
C3368 C 0.78107 0.35199 0.14477 0.0
C3369 C 0.79445 0.3838 0.12018 0.0
N3370 N 0.73722 0.3417 0.14949 0.0
N3371 N 0.7742 0.38059 0.1263 0.0
H3372 H 0.63856 0.06929 0.37826 0.0
H3373 H 0.63743 0.94711 0.34965 0.0
H3374 H 0.60324 0.03713 0.32993 0.0
H3375 H 0.66472 0.97627 0.40447 0.0
H3376 H 0.62273 0.97949 0.34405 0.0
H3377 H 0.64605 0.03581 0.39003 0.0
C3378 C 0.63158 0.0552 0.37068 0.0
C3379 C 0.61943 0.0562 0.35359 0.0
C3380 C 0.63151 0.97883 0.3576 0.0
C3381 C 0.62901 0.01743 0.3663 0.0
C3382 C 0.63977 0.96017 0.36094 0.0
C3383 C 0.65186 0.9586 0.37794 0.0
C3384 C 0.63569 0.99658 0.37103 0.0
C3385 C 0.65498 0.97644 0.39153 0.0
C3386 C 0.63615 0.036 0.37722 0.0
C3387 C 0.61193 0.03725 0.34366 0.0
N3388 N 0.64718 0.99464 0.38769 0.0
N3389 N 0.61693 0.01884 0.35001 0.0
H3390 H 0.94727 0.86011 0.6004 0.0
H3391 H 0.02355 0.94498 0.6588 0.0
H3392 H 0.93274 0.92255 0.61917 0.0
H3393 H 0.041 0.88576 0.63252 0.0
H3394 H 0.98733 0.93362 0.65293 0.0
H3395 H 0.97855 0.86603 0.62003 0.0
C3396 C 0.95038 0.8749 0.609 0.0
C3397 C 0.93746 0.89093 0.60786 0.0
C3398 C 0.99899 0.92284 0.64907 0.0
C3399 C 0.97334 0.89787 0.63026 0.0
C3400 C 0.01962 0.92922 0.65277 0.0
C3401 C 0.03517 0.91616 0.64637 0.0
C3402 C 0.99401 0.90331 0.63882 0.0
C3403 C 0.02937 0.89616 0.63788 0.0
C3404 C 0.96831 0.87831 0.62014 0.0
C3405 C 0.94237 0.9098 0.61933 0.0
N3406 N 0.00932 0.89044 0.63408 0.0
N3407 N 0.95999 0.91282 0.62981 0.0
H3408 H 0.36974 0.10933 0.04481 0.0
H3409 H 0.42456 0.11663 0.9363 0.0
H3410 H 0.41412 0.15958 0.03098 0.0
H3411 H 0.36696 0.08006 0.94552 0.0
H3412 H 0.41816 0.13575 0.96959 0.0
H3413 H 0.36451 0.10202 0.00792 0.0
C3414 C 0.37757 0.1195 0.034 0.0
C3415 C 0.39212 0.13526 0.04087 0.0
C3416 C 0.40667 0.12387 0.96415 0.0
C3417 C 0.38726 0.12624 0.9986 0.0
C3418 C 0.41035 0.11289 0.94514 0.0
C3419 C 0.39641 0.09652 0.9382 0.0
C3420 C 0.3891 0.11821 0.97656 0.0
C3421 C 0.37819 0.09248 0.95027 0.0
C3422 C 0.37482 0.11516 0.01291 0.0
C3423 C 0.40246 0.14754 0.02625 0.0
N3424 N 0.37528 0.10295 0.96905 0.0
N3425 N 0.40025 0.14244 0.00574 0.0
H3426 H 0.92482 0.6146 0.18591 0.0
H3427 H 0.86371 0.66951 0.28173 0.0
H3428 H 0.88391 0.66258 0.18101 0.0
H3429 H 0.92024 0.64021 0.28556 0.0
H3430 H 0.86282 0.65726 0.24512 0.0
H3431 H 0.91414 0.61361 0.22248 0.0
C3432 C 0.91298 0.62434 0.19232 0.0
C3433 C 0.90544 0.63894 0.18058 0.0
C3434 C 0.87519 0.65321 0.2541 0.0
C3435 C 0.89345 0.63805 0.22226 0.0
C3436 C 0.87572 0.66019 0.27493 0.0
C3437 C 0.89226 0.65611 0.28647 0.0
C3438 C 0.8912 0.64196 0.24491 0.0
C3439 C 0.9074 0.64392 0.27703 0.0
C3440 C 0.90707 0.62392 0.21323 0.0
C3441 C 0.89028 0.65132 0.18968 0.0
N3442 N 0.90661 0.63741 0.2567 0.0
N3443 N 0.885 0.65083 0.21011 0.0
H3444 H 0.33521 0.1368 0.44029 0.0
H3445 H 0.37311 0.125 0.55308 0.0
H3446 H 0.39583 0.15992 0.45879 0.0
H3447 H 0.31635 0.09556 0.53038 0.0
H3448 H 0.38354 0.13467 0.51813 0.0
H3449 H 0.32975 0.11908 0.47197 0.0
C3450 C 0.34759 0.13788 0.45088 0.0
C3451 C 0.3661 0.14988 0.44664 0.0
C3452 C 0.36908 0.12554 0.52057 0.0
C3453 C 0.35968 0.12966 0.48371 0.0
C3454 C 0.36325 0.11969 0.54053 0.0
C3455 C 0.34412 0.10872 0.54468 0.0
C3456 C 0.3555 0.12089 0.50448 0.0
C3457 C 0.33155 0.10326 0.52788 0.0
C3458 C 0.34441 0.12772 0.46909 0.0
C3459 C 0.38144 0.15068 0.46116 0.0
N3460 N 0.33732 0.10959 0.50871 0.0
N3461 N 0.37779 0.14098 0.47911 0.0
H3462 H 0.85879 0.56773 0.69996 0.0
H3463 H 0.865 0.61728 0.81515 0.0
H3464 H 0.82906 0.62279 0.72135 0.0
H3465 H 0.90661 0.57341 0.78831 0.0
H3466 H 0.8537 0.62186 0.7806 0.0
H3467 H 0.87752 0.57063 0.73184 0.0
C3468 C 0.85626 0.58047 0.71135 0.0
C3469 C 0.84227 0.59498 0.70803 0.0
C3470 C 0.86582 0.61175 0.78213 0.0
C3471 C 0.86367 0.59842 0.74467 0.0
C3472 C 0.87255 0.60945 0.80183 0.0
C3473 C 0.88722 0.59543 0.80451 0.0
C3474 C 0.87338 0.59947 0.76504 0.0
C3475 C 0.89574 0.58485 0.78683 0.0
C3476 C 0.86706 0.58221 0.72951 0.0
C3477 C 0.83968 0.61125 0.72329 0.0
N3478 N 0.88844 0.58678 0.76791 0.0
N3479 N 0.8501 0.61241 0.74101 0.0
H3480 H 0.38111 0.16166 0.17849 0.0
H3481 H 0.41988 0.13971 0.28514 0.0
H3482 H 0.42397 0.11581 0.18498 0.0
H3483 H 0.36414 0.16981 0.27957 0.0
H3484 H 0.41894 0.12732 0.24869 0.0
H3485 H 0.37089 0.16077 0.21509 0.0
C3486 C 0.38789 0.15093 0.1875 0.0
C3487 C 0.40365 0.13907 0.17881 0.0
C3488 C 0.40669 0.13631 0.25549 0.0
C3489 C 0.39255 0.13845 0.22076 0.0
C3490 C 0.40731 0.14348 0.27625 0.0
C3491 C 0.39223 0.15601 0.28519 0.0
C3492 C 0.3911 0.14207 0.24354 0.0
C3493 C 0.37615 0.1603 0.27314 0.0
C3494 C 0.38212 0.15048 0.20842 0.0
C3495 C 0.41184 0.12532 0.19109 0.0
N3496 N 0.3762 0.15365 0.2528 0.0
N3497 N 0.40661 0.1258 0.21161 0.0
H3498 H 0.83426 0.63854 0.4418 0.0
H3499 H 0.87222 0.62389 0.55401 0.0
H3500 H 0.89561 0.65943 0.45983 0.0
H3501 H 0.81478 0.59623 0.53127 0.0
H3502 H 0.88274 0.63393 0.51918 0.0
H3503 H 0.82843 0.62065 0.47333 0.0
C3504 C 0.84671 0.63912 0.45227 0.0
C3505 C 0.86554 0.65055 0.44791 0.0
C3506 C 0.86811 0.6251 0.52158 0.0
C3507 C 0.8587 0.63008 0.48485 0.0
C3508 C 0.86221 0.61902 0.54146 0.0
C3509 C 0.84287 0.60841 0.54558 0.0
C3510 C 0.85438 0.62107 0.50552 0.0
C3511 C 0.83014 0.60359 0.5288 0.0
C3512 C 0.84331 0.62885 0.4704 0.0
C3513 C 0.88095 0.65067 0.46229 0.0
N3514 N 0.83598 0.61014 0.50972 0.0
N3515 N 0.8771 0.64086 0.48017 0.0
H3516 H 0.32698 0.12214 0.72035 0.0
H3517 H 0.4087 0.07444 0.78697 0.0
H3518 H 0.36051 0.06953 0.69881 0.0
H3519 H 0.36189 0.11271 0.81376 0.0
H3520 H 0.39745 0.07946 0.75246 0.0
H3521 H 0.34505 0.12483 0.75267 0.0
C3522 C 0.33827 0.11125 0.72237 0.0
C3523 C 0.34216 0.09549 0.70695 0.0
C3524 C 0.39006 0.0873 0.76584 0.0
C3525 C 0.3631 0.09867 0.74377 0.0
C3526 C 0.39677 0.0848 0.78549 0.0
C3527 C 0.38655 0.09364 0.80315 0.0
C3528 C 0.37297 0.09872 0.76389 0.0
C3529 C 0.3705 0.1061 0.80047 0.0
C3530 C 0.34858 0.11281 0.74081 0.0
C3531 C 0.35693 0.08181 0.71038 0.0
N3532 N 0.36408 0.10813 0.78123 0.0
N3533 N 0.36685 0.0837 0.72842 0.0
H3534 H 0.87021 0.61012 0.04551 0.0
H3535 H 0.92738 0.61381 0.93806 0.0
H3536 H 0.91673 0.65864 0.03207 0.0
H3537 H 0.86727 0.58146 0.946 0.0
H3538 H 0.92153 0.63338 0.97122 0.0
H3539 H 0.86541 0.60288 0.00853 0.0
C3540 C 0.87862 0.61997 0.03475 0.0
C3541 C 0.89363 0.63519 0.04175 0.0
C3542 C 0.90941 0.62234 0.96551 0.0
C3543 C 0.88926 0.6262 0.99944 0.0
C3544 C 0.91279 0.61108 0.94659 0.0
C3545 C 0.89791 0.59575 0.93934 0.0
C3546 C 0.8912 0.61798 0.97749 0.0
C3547 C 0.87924 0.59302 0.95102 0.0
C3548 C 0.87611 0.61566 0.01362 0.0
C3549 C 0.90472 0.64704 0.02722 0.0
N3550 N 0.87659 0.60371 0.9697 0.0
N3551 N 0.90272 0.64193 0.00669 0.0
H3552 H 0.93094 0.4175 0.12063 0.0
H3553 H 0.04229 0.38256 0.1347 0.0
H3554 H 0.95038 0.35771 0.09805 0.0
H3555 H 0.02166 0.441 0.15955 0.0
H3556 H 0.00663 0.37009 0.1282 0.0
H3557 H 0.96142 0.42342 0.14104 0.0
C3558 C 0.94146 0.40542 0.12023 0.0
C3559 C 0.93819 0.38716 0.10735 0.0
C3560 C 0.00972 0.3854 0.13572 0.0
C3561 C 0.97345 0.394 0.13067 0.0
C3562 C 0.03006 0.3924 0.13973 0.0
C3563 C 0.03483 0.4127 0.14798 0.0
C3564 C 0.99406 0.39899 0.13955 0.0
C3565 C 0.01855 0.4251 0.15358 0.0
C3566 C 0.9589 0.40883 0.13194 0.0
C3567 C 0.95228 0.37203 0.10768 0.0
N3568 N 0.99892 0.4182 0.14887 0.0
N3569 N 0.96948 0.37594 0.11885 0.0
H3570 H 0.57746 0.38042 0.17576 0.0
H3571 H 0.46379 0.37538 0.136 0.0
H3572 H 0.56314 0.35911 0.1134 0.0
H3573 H 0.48109 0.40671 0.19403 0.0
H3574 H 0.50038 0.37288 0.12578 0.0
H3575 H 0.54339 0.39372 0.18117 0.0
C3576 C 0.56741 0.37926 0.16291 0.0
C3577 C 0.57345 0.36908 0.14391 0.0
C3578 C 0.49628 0.38084 0.14051 0.0
C3579 C 0.53367 0.38347 0.15033 0.0
C3580 C 0.47535 0.38249 0.14626 0.0
C3581 C 0.46933 0.39184 0.16565 0.0
C3582 C 0.51147 0.38808 0.15449 0.0
C3583 C 0.485 0.39997 0.17869 0.0
C3584 C 0.54779 0.38667 0.16609 0.0
C3585 C 0.55942 0.36737 0.12809 0.0
N3586 N 0.50525 0.39767 0.17301 0.0
N3587 N 0.54012 0.37416 0.13174 0.0
H3588 H 0.64507 0.82459 0.40377 0.0
H3589 H 0.68889 0.71983 0.38019 0.0
H3590 H 0.69232 0.81623 0.35533 0.0
H3591 H 0.6244 0.72267 0.39812 0.0
H3592 H 0.68973 0.75491 0.36916 0.0
H3593 H 0.63522 0.78748 0.40003 0.0
C3594 C 0.65292 0.81504 0.39191 0.0
C3595 C 0.66974 0.82341 0.38009 0.0
C3596 C 0.67526 0.74766 0.37501 0.0
C3597 C 0.65899 0.78107 0.37616 0.0
C3598 C 0.67483 0.72773 0.38139 0.0
C3599 C 0.65661 0.71856 0.39018 0.0
C3600 C 0.6575 0.75859 0.37804 0.0
C3601 C 0.63876 0.72932 0.39141 0.0
C3602 C 0.64731 0.79389 0.38978 0.0
C3603 C 0.67935 0.8104 0.36487 0.0
N3604 N 0.63975 0.74903 0.38588 0.0
N3605 N 0.67425 0.78973 0.36376 0.0
H3606 H 0.20095 0.95512 0.69872 0.0
H3607 H 0.30291 0.9034 0.65296 0.0
H3608 H 0.20461 0.91921 0.64006 0.0
H3609 H 0.29826 0.93734 0.71263 0.0
H3610 H 0.26697 0.90919 0.64774 0.0
H3611 H 0.2366 0.9486 0.70417 0.0
C3612 C 0.20925 0.94576 0.68705 0.0
C3613 C 0.19988 0.93766 0.66894 0.0
C3614 C 0.27382 0.9154 0.66197 0.0
C3615 C 0.24066 0.93029 0.67493 0.0
C3616 C 0.29432 0.91214 0.66491 0.0
C3617 C 0.30352 0.91998 0.6832 0.0
C3618 C 0.26247 0.92655 0.67746 0.0
C3619 C 0.29175 0.93113 0.69824 0.0
C3620 C 0.2296 0.94208 0.69013 0.0
C3621 C 0.21128 0.92567 0.65428 0.0
N3622 N 0.27182 0.93407 0.69504 0.0
N3623 N 0.23112 0.92241 0.65756 0.0
H3624 H 0.63895 0.44701 0.43298 0.0
H3625 H 0.62934 0.55453 0.3858 0.0
H3626 H 0.58567 0.46519 0.4046 0.0
H3627 H 0.66028 0.55237 0.44235 0.0
H3628 H 0.6249 0.51684 0.38265 0.0
H3629 H 0.65646 0.48156 0.42808 0.0
C3630 C 0.63111 0.45819 0.42553 0.0
C3631 C 0.61085 0.45353 0.41935 0.0
C3632 C 0.63331 0.52458 0.39537 0.0
C3633 C 0.6308 0.49213 0.41306 0.0
C3634 C 0.63605 0.54601 0.39704 0.0
C3635 C 0.64515 0.55637 0.41435 0.0
C3636 C 0.63948 0.51354 0.41127 0.0
C3637 C 0.65332 0.54477 0.4287 0.0
C3638 C 0.64106 0.47773 0.42273 0.0
C3639 C 0.60122 0.46835 0.40979 0.0
N3640 N 0.64987 0.52381 0.42713 0.0
N3641 N 0.61131 0.48696 0.40687 0.0
H3642 H 0.2078 0.81876 0.15846 0.0
H3643 H 0.31162 0.83958 0.13897 0.0
H3644 H 0.20336 0.85907 0.10978 0.0
H3645 H 0.29684 0.89399 0.11124 0.0
H3646 H 0.27581 0.83372 0.15097 0.0
H3647 H 0.24302 0.83389 0.16376 0.0
C3648 C 0.21411 0.83103 0.14914 0.0
C3649 C 0.20284 0.83731 0.13332 0.0
C3650 C 0.28034 0.84747 0.14308 0.0
C3651 C 0.2433 0.85426 0.13878 0.0
C3652 C 0.30091 0.85081 0.13619 0.0
C3653 C 0.30717 0.86725 0.12403 0.0
C3654 C 0.26579 0.8605 0.13747 0.0
C3655 C 0.29268 0.8812 0.12067 0.0
C3656 C 0.23435 0.83949 0.15196 0.0
C3657 C 0.2117 0.8534 0.12182 0.0
N3658 N 0.27254 0.87719 0.12686 0.0
N3659 N 0.23144 0.8611 0.1246 0.0
H3660 H 0.88818 0.05633 0.61992 0.0
H3661 H 0.85033 0.9512 0.55667 0.0
H3662 H 0.88854 0.04799 0.55341 0.0
H3663 H 0.86905 0.95551 0.61945 0.0
H3664 H 0.85309 0.98907 0.55752 0.0
H3665 H 0.87055 0.02185 0.62178 0.0
C3666 C 0.88427 0.04734 0.60572 0.0
C3667 C 0.89007 0.05481 0.58647 0.0
C3668 C 0.8559 0.98173 0.57133 0.0
C3669 C 0.86989 0.01552 0.58849 0.0
C3670 C 0.85405 0.9602 0.57094 0.0
C3671 C 0.85926 0.95047 0.58811 0.0
C3672 C 0.863 0.99338 0.58904 0.0
C3673 C 0.86469 0.96261 0.60602 0.0
C3674 C 0.87421 0.02771 0.60679 0.0
C3675 C 0.88455 0.04263 0.56854 0.0
N3676 N 0.86665 0.9835 0.60597 0.0
N3677 N 0.87492 0.02345 0.56997 0.0
H3678 H 0.94238 0.64791 0.39506 0.0
H3679 H 0.02619 0.59689 0.31511 0.0
H3680 H 0.9292 0.6232 0.33336 0.0
H3681 H 0.04173 0.63516 0.37004 0.0
H3682 H 0.98937 0.59882 0.32526 0.0
H3683 H 0.97716 0.63566 0.38996 0.0
C3684 C 0.94643 0.63901 0.38082 0.0
C3685 C 0.93258 0.6361 0.36483 0.0
C3686 C 1.00083 0.60634 0.3354 0.0
C3687 C 0.97277 0.62262 0.35853 0.0
C3688 C 0.02188 0.60497 0.32973 0.0
C3689 C 0.03711 0.61549 0.34197 0.0
C3690 C 0.9949 0.61827 0.3535 0.0
C3691 C 0.03053 0.62649 0.36034 0.0
C3692 C 0.96646 0.63234 0.37774 0.0
C3693 C 0.93916 0.62535 0.34629 0.0
N3694 N 0.01004 0.62766 0.36549 0.0
N3695 N 0.9587 0.61915 0.34361 0.0
H3696 H 0.31596 0.69029 0.1511 0.0
H3697 H 0.34597 0.76654 0.07313 0.0
H3698 H 0.36171 0.67613 0.10255 0.0
H3699 H 0.34922 0.7922 0.13632 0.0
H3700 H 0.34799 0.73222 0.08466 0.0
H3701 H 0.32616 0.72711 0.14901 0.0
C3702 C 0.32872 0.69482 0.14062 0.0
C3703 C 0.33751 0.68019 0.12643 0.0
C3704 C 0.34851 0.7454 0.09598 0.0
C3705 C 0.34881 0.72196 0.12384 0.0
C3706 C 0.34717 0.76494 0.08946 0.0
C3707 C 0.34771 0.78217 0.1038 0.0
C3708 C 0.34962 0.74295 0.11707 0.0
C3709 C 0.34893 0.77919 0.12482 0.0
C3710 C 0.33446 0.71584 0.13943 0.0
C3711 C 0.35408 0.68695 0.11332 0.0
N3712 N 0.34951 0.75977 0.13096 0.0
N3713 N 0.35873 0.70743 0.11183 0.0
H3714 H 0.3061 0.04947 0.80865 0.0
H3715 H 0.20446 0.1013 0.85506 0.0
H3716 H 0.3019 0.08265 0.86875 0.0
H3717 H 0.20897 0.06779 0.79516 0.0
H3718 H 0.24003 0.09441 0.86063 0.0
H3719 H 0.27044 0.05608 0.80347 0.0
C3720 C 0.29765 0.05819 0.82073 0.0
C3721 C 0.30689 0.06555 0.83913 0.0
C3722 C 0.23321 0.0885 0.8463 0.0
C3723 C 0.26612 0.07309 0.8334 0.0
C3724 C 0.21292 0.09238 0.84316 0.0
C3725 C 0.20381 0.08502 0.82467 0.0
C3726 C 0.24443 0.07723 0.83081 0.0
C3727 C 0.21542 0.07365 0.80968 0.0
C3728 C 0.2773 0.06193 0.81779 0.0
C3729 C 0.29531 0.07674 0.85431 0.0
N3730 N 0.23515 0.07013 0.81307 0.0
N3731 N 0.27549 0.08016 0.85111 0.0
H3732 H 0.93304 0.7299 0.09507 0.0
H3733 H 0.8643 0.79895 0.17384 0.0
H3734 H 0.87837 0.70584 0.12803 0.0
H3735 H 0.91488 0.8239 0.13554 0.0
H3736 H 0.86569 0.76565 0.15333 0.0
H3737 H 0.92345 0.76512 0.10534 0.0
C3738 C 0.91854 0.73203 0.10363 0.0
C3739 C 0.90632 0.71494 0.11042 0.0
C3740 C 0.8762 0.77855 0.14912 0.0
C3741 C 0.89562 0.75515 0.12307 0.0
C3742 C 0.87524 0.79765 0.16074 0.0
C3743 C 0.88955 0.81426 0.15653 0.0
C3744 C 0.89164 0.77602 0.13324 0.0
C3745 C 0.90364 0.81148 0.1395 0.0
C3746 C 0.91319 0.75215 0.10982 0.0
C3747 C 0.88809 0.71862 0.12227 0.0
N3748 N 0.90453 0.79274 0.12874 0.0
N3749 N 0.88346 0.73823 0.12844 0.0
H3750 H 0.30532 0.64323 0.8951 0.0
H3751 H 0.1948 0.66284 0.86523 0.0
H3752 H 0.29406 0.68751 0.85211 0.0
H3753 H 0.20777 0.61027 0.89702 0.0
H3754 H 0.2311 0.66748 0.85389 0.0
H3755 H 0.27075 0.6267 0.89034 0.0
C3756 C 0.29565 0.64923 0.88433 0.0
C3757 C 0.30241 0.66695 0.87421 0.0
C3758 C 0.22599 0.65451 0.86278 0.0
C3759 C 0.26258 0.64834 0.86899 0.0
C3760 C 0.20521 0.65176 0.86911 0.0
C3761 C 0.19836 0.63624 0.88217 0.0
C3762 C 0.24011 0.64196 0.87003 0.0
C3763 C 0.21244 0.62239 0.8869 0.0
C3764 C 0.27591 0.63975 0.88157 0.0
C3765 C 0.28939 0.67394 0.86027 0.0
N3766 N 0.23278 0.62592 0.8813 0.0
N3767 N 0.26989 0.6649 0.85843 0.0
H3768 H 0.3613 0.93678 0.63188 0.0
H3769 H 0.37486 0.06011 0.65079 0.0
H3770 H 0.40854 0.96834 0.66901 0.0
H3771 H 0.33565 0.02864 0.6052 0.0
H3772 H 0.3893 0.02724 0.65567 0.0
H3773 H 0.35375 0.96997 0.61982 0.0
C3774 C 0.37075 0.9506 0.6368 0.0
C3775 C 0.38623 0.94947 0.65085 0.0
C3776 C 0.37793 0.02752 0.6442 0.0
C3777 C 0.37674 0.98818 0.63797 0.0
C3778 C 0.36985 0.04642 0.64121 0.0
C3779 C 0.35456 0.04743 0.62694 0.0
C3780 C 0.37032 0.00912 0.63329 0.0
C3781 C 0.34794 0.02884 0.61578 0.0
C3782 C 0.36619 0.96968 0.63014 0.0
C3783 C 0.39708 0.96822 0.65756 0.0
N3784 N 0.35566 0.01057 0.6193 0.0
N3785 N 0.39202 0.98668 0.65128 0.0
H3786 H 0.0579 0.15045 0.40722 0.0
H3787 H 0.9831 0.06843 0.34383 0.0
H3788 H 0.07354 0.08959 0.3836 0.0
H3789 H 0.96427 0.12503 0.37534 0.0
H3790 H 0.0192 0.08053 0.3493 0.0
H3791 H 0.02676 0.14572 0.38727 0.0
C3792 C 0.05508 0.13632 0.39745 0.0
C3793 C 0.0682 0.12028 0.39734 0.0
C3794 C 0.00723 0.09063 0.3544 0.0
C3795 C 0.03253 0.11468 0.3746 0.0
C3796 C 0.98665 0.08386 0.35094 0.0
C3797 C 0.97079 0.09587 0.35897 0.0
C3798 C 0.01184 0.10949 0.36606 0.0
C3799 C 0.97615 0.11543 0.36875 0.0
C3800 C 0.03724 0.13357 0.38614 0.0
C3801 C 0.0637 0.10226 0.38442 0.0
N3802 N 0.99618 0.1215 0.37232 0.0
N3803 N 0.04615 0.09985 0.37382 0.0
H3804 H 0.63926 0.92685 0.06152 0.0
H3805 H 0.58939 0.84742 0.9747 0.0
H3806 H 0.57924 0.89393 0.06786 0.0
H3807 H 0.63661 0.89568 0.96242 0.0
H3808 H 0.5933 0.85541 0.01184 0.0
H3809 H 0.6453 0.90709 0.02841 0.0
C3810 C 0.62751 0.91518 0.0562 0.0
C3811 C 0.60857 0.91228 0.0674 0.0
C3812 C 0.60338 0.86371 1.00101 0.0
C3813 C 0.61551 0.88955 0.02952 0.0
C3814 C 0.60144 0.85888 0.97983 0.0
C3815 C 0.61291 0.87075 0.96556 0.0
C3816 C 0.61694 0.88047 0.00786 0.0
C3817 C 0.62773 0.88599 0.97298 0.0
C3818 C 0.63099 0.90394 0.03727 0.0
C3819 C 0.59396 0.8969 0.05966 0.0
N3820 N 0.62912 0.89064 0.99364 0.0
N3821 N 0.59765 0.88626 0.04112 0.0
H3822 H 0.14552 0.34111 0.72503 0.0
H3823 H 0.08125 0.39143 0.82112 0.0
H3824 H 0.08788 0.36836 0.72095 0.0
H3825 H 0.12394 0.34487 0.82526 0.0
H3826 H 0.09219 0.39365 0.78477 0.0
H3827 H 0.14558 0.35272 0.76179 0.0
C3828 C 0.13309 0.34991 0.7318 0.0
C3829 C 0.11648 0.35353 0.72012 0.0
C3830 C 0.09955 0.38338 0.79382 0.0
C3831 C 0.11655 0.36688 0.76193 0.0
C3832 C 0.09347 0.38222 0.81461 0.0
C3833 C 0.10147 0.36765 0.82608 0.0
C3834 C 0.11383 0.37002 0.78461 0.0
C3835 C 0.11717 0.35605 0.81683 0.0
C3836 C 0.13315 0.3565 0.75273 0.0
C3837 C 0.10081 0.36503 0.72956 0.0
N3838 N 0.12263 0.35725 0.7965 0.0
N3839 N 0.10111 0.37113 0.75002 0.0
H3840 H 0.63403 0.88289 0.45401 0.0
H3841 H 0.67286 0.86897 0.56598 0.0
H3842 H 0.6919 0.91023 0.476 0.0
H3843 H 0.61151 0.84763 0.54821 0.0
H3844 H 0.67849 0.88665 0.53433 0.0
H3845 H 0.62379 0.87313 0.48898 0.0
C3846 C 0.6442 0.88773 0.46643 0.0
C3847 C 0.66358 0.89813 0.46208 0.0
C3848 C 0.66365 0.8784 0.53736 0.0
C3849 C 0.65238 0.88586 0.50226 0.0
C3850 C 0.66037 0.86825 0.55555 0.0
C3851 C 0.6416 0.85674 0.55999 0.0
C3852 C 0.6482 0.877 0.52297 0.0
C3853 C 0.62612 0.85645 0.54567 0.0
C3854 C 0.63847 0.88182 0.48638 0.0
C3855 C 0.67652 0.903 0.47868 0.0
N3856 N 0.62985 0.86617 0.52775 0.0
N3857 N 0.67082 0.89662 0.49784 0.0
H3858 H 0.14669 0.4378 0.30791 0.0
H3859 H 0.1423 0.3896 0.1923 0.0
H3860 H 0.17753 0.3835 0.28621 0.0
H3861 H 0.09919 0.43185 0.21937 0.0
H3862 H 0.15344 0.3848 0.22684 0.0
H3863 H 0.1281 0.43481 0.27593 0.0
C3864 C 0.14949 0.42521 0.29642 0.0
C3865 C 0.16375 0.41094 0.29967 0.0
C3866 C 0.14104 0.39458 0.22536 0.0
C3867 C 0.14253 0.4074 0.26296 0.0
C3868 C 0.13442 0.397 0.20566 0.0
C3869 C 0.11937 0.41065 0.20307 0.0
C3870 C 0.13297 0.40638 0.24254 0.0
C3871 C 0.11038 0.42071 0.22079 0.0
C3872 C 0.13878 0.42341 0.27822 0.0
C3873 C 0.16669 0.39485 0.28431 0.0
N3874 N 0.11757 0.41869 0.23973 0.0
N3875 N 0.15636 0.39364 0.26655 0.0
H3876 H 0.62521 0.8474 0.82868 0.0
H3877 H 0.645 0.8439 0.72334 0.0
H3878 H 0.57986 0.89006 0.81985 0.0
H3879 H 0.58122 0.85748 0.72463 0.0
H3880 H 0.64648 0.85683 0.75971 0.0
H3881 H 0.63551 0.84713 0.7921 0.0
C3882 C 0.61803 0.85738 0.81916 0.0
C3883 C 0.6016 0.86864 0.82721 0.0
C3884 C 0.63218 0.85698 0.75203 0.0
C3885 C 0.61302 0.86822 0.78528 0.0
C3886 C 0.63136 0.84973 0.73127 0.0
C3887 C 0.61284 0.84928 0.72118 0.0
C3888 C 0.61433 0.86377 0.76265 0.0
C3889 C 0.59569 0.85724 0.732 0.0
C3890 C 0.62393 0.85726 0.79823 0.0
C3891 C 0.59266 0.88121 0.81424 0.0
N3892 N 0.59681 0.86404 0.75222 0.0
N3893 N 0.59807 0.88017 0.79374 0.0
H3894 H 0.16928 0.36977 0.56633 0.0
H3895 H 0.13333 0.37973 0.45232 0.0
H3896 H 0.1102 0.3437 0.54598 0.0
H3897 H 0.18911 0.41047 0.47602 0.0
H3898 H 0.12258 0.36979 0.48709 0.0
H3899 H 0.17485 0.38746 0.53465 0.0
C3900 C 0.15723 0.36805 0.55533 0.0
C3901 C 0.13913 0.35523 0.55906 0.0
C3902 C 0.13689 0.37923 0.4849 0.0
C3903 C 0.14572 0.37542 0.52199 0.0
C3904 C 0.1429 0.38523 0.46504 0.0
C3905 C 0.16186 0.39664 0.46122 0.0
C3906 C 0.1501 0.38423 0.50125 0.0
C3907 C 0.17405 0.4024 0.47825 0.0
C3908 C 0.16049 0.37818 0.53711 0.0
C3909 C 0.12424 0.3536 0.54402 0.0
N3910 N 0.1681 0.39594 0.49734 0.0
N3911 N 0.12797 0.36333 0.52609 0.0
H3912 H 0.67503 0.88224 0.28766 0.0
H3913 H 0.59905 0.93626 0.21977 0.0
H3914 H 0.64793 0.93924 0.30725 0.0
H3915 H 0.63957 0.89077 0.19428 0.0
H3916 H 0.61011 0.93158 0.2544 0.0
H3917 H 0.65645 0.88014 0.25569 0.0
C3918 C 0.66505 0.89425 0.28529 0.0
C3919 C 0.66313 0.91103 0.30007 0.0
C3920 C 0.6161 0.92211 0.24133 0.0
C3921 C 0.6416 0.90856 0.26362 0.0
C3922 C 0.60944 0.92446 0.22162 0.0
C3923 C 0.61797 0.91343 0.20425 0.0
C3924 C 0.63148 0.90869 0.24364 0.0
C3925 C 0.63219 0.8991 0.20736 0.0
C3926 C 0.65444 0.89302 0.26705 0.0
C3927 C 0.64997 0.92613 0.2962 0.0
N3928 N 0.63866 0.89727 0.22664 0.0
N3929 N 0.63973 0.92455 0.27835 0.0
H3930 H 0.13941 0.42814 0.06086 0.0
H3931 H 0.09094 0.3474 0.97429 0.0
H3932 H 0.08089 0.3926 0.06812 0.0
H3933 H 0.13526 0.39806 0.96156 0.0
H3934 H 0.09544 0.35532 0.01137 0.0
H3935 H 0.14549 0.40908 0.02737 0.0
C3936 C 0.12803 0.41603 0.05566 0.0
C3937 C 0.10946 0.41218 0.06723 0.0
C3938 C 0.10478 0.3642 1.00043 0.0
C3939 C 0.11644 0.39027 0.02893 0.0
C3940 C 0.1025 0.35944 0.97929 0.0
C3941 C 0.11299 0.37194 0.96495 0.0
C3942 C 0.11768 0.38153 0.00715 0.0
C3943 C 0.12717 0.38789 0.97219 0.0
C3944 C 0.13152 0.4052 0.03651 0.0
C3945 C 0.09531 0.39629 0.05963 0.0
N3946 N 0.12891 0.39244 0.99282 0.0
N3947 N 0.099 0.38606 0.04088 0.0
H3948 H 0.07528 0.58649 0.8864 0.0
H3949 H 0.96443 0.6226 0.87332 0.0
H3950 H 0.0573 0.64722 0.90752 0.0
H3951 H 0.98428 0.56404 0.84784 0.0
H3952 H 1.0003 0.6348 0.87915 0.0
H3953 H 0.04457 0.58069 0.8663 0.0
C3954 C 0.06504 0.59879 0.88653 0.0
C3955 C 0.06877 0.6173 0.89891 0.0
C3956 C 0.99698 0.61953 0.87163 0.0
C3957 C 0.03327 0.61061 0.87598 0.0
C3958 C 0.97651 0.61268 0.86802 0.0
C3959 C 0.97149 0.59243 0.85979 0.0
C3960 C 0.01249 0.60581 0.86744 0.0
C3961 C 0.9876 0.57991 0.85382 0.0
C3962 C 0.04747 0.59545 0.87499 0.0
C3963 C 0.05503 0.6327 0.89827 0.0
N3964 N 0.00735 0.58665 0.85816 0.0
N3965 N 0.0377 0.62887 0.88731 0.0
H3966 H 0.44087 0.64705 0.89411 0.0
H3967 H 0.52512 0.59857 0.81288 0.0
H3968 H 0.42931 0.62751 0.83067 0.0
H3969 H 0.54052 0.63299 0.87002 0.0
H3970 H 0.48831 0.6011 0.82257 0.0
H3971 H 0.47538 0.63407 0.88896 0.0
C3972 C 0.44522 0.63922 0.87937 0.0
C3973 C 0.43196 0.63802 0.86293 0.0
C3974 C 0.49971 0.6076 0.83328 0.0
C3975 C 0.47174 0.62358 0.85669 0.0
C3976 C 0.52073 0.60586 0.82787 0.0
C3977 C 0.53594 0.61511 0.84089 0.0
C3978 C 0.49375 0.61868 0.85189 0.0
C3979 C 0.52932 0.62523 0.85974 0.0
C3980 C 0.46508 0.6321 0.87632 0.0
C3981 C 0.43886 0.62846 0.84388 0.0
N3982 N 0.50882 0.62682 0.86462 0.0
N3983 N 0.45818 0.62175 0.84128 0.0
H3984 H 0.3418 0.26672 0.57314 0.0
H3985 H 0.3164 0.18929 0.6507 0.0
H3986 H 0.35008 0.2919 0.63591 0.0
H3987 H 0.36079 0.17621 0.60052 0.0
H3988 H 0.32591 0.22626 0.64869 0.0
H3989 H 0.34386 0.23217 0.58413 0.0
C3990 C 0.34404 0.26496 0.58927 0.0
C3991 C 0.34606 0.28213 0.60362 0.0
C3992 C 0.33407 0.21518 0.63871 0.0
C3993 C 0.34806 0.24268 0.61628 0.0
C3994 C 0.32873 0.19408 0.63985 0.0
C3995 C 0.33732 0.1797 0.62523 0.0
C3996 C 0.34779 0.22164 0.62276 0.0
C3997 C 0.35332 0.18681 0.61165 0.0
C3998 C 0.3454 0.24529 0.59546 0.0
C3999 C 0.34863 0.27895 0.6244 0.0
N4000 N 0.35755 0.20736 0.61024 0.0
N4001 N 0.34928 0.25943 0.63025 0.0
H4002 H 0.69405 0.05717 0.33617 0.0
H4003 H 0.81064 0.10291 0.35009 0.0
H4004 H 0.71379 0.12199 0.33548 0.0
H4005 H 0.7903 0.03834 0.35201 0.0
H4006 H 0.77488 0.11065 0.34696 0.0
H4007 H 0.72886 0.05032 0.34446 0.0
C4008 C 0.70572 0.06996 0.33792 0.0
C4009 C 0.70116 0.09013 0.3351 0.0
C4010 C 0.77821 0.09481 0.34823 0.0
C4011 C 0.74096 0.08247 0.34433 0.0
C4012 C 0.79859 0.09041 0.35003 0.0
C4013 C 0.80332 0.06996 0.35118 0.0
C4014 C 0.76254 0.07863 0.34762 0.0
C4015 C 0.78724 0.0543 0.35098 0.0
C4016 C 0.72556 0.06607 0.34263 0.0
C4017 C 0.71673 0.10621 0.3376 0.0
N4018 N 0.76755 0.05895 0.34915 0.0
N4019 N 0.73602 0.102 0.34192 0.0
H4020 H 0.36781 0.45626 0.61845 0.0
H4021 H 0.39173 0.5491 0.54956 0.0
H4022 H 0.35442 0.45198 0.55408 0.0
H4023 H 0.38764 0.55682 0.61613 0.0
H4024 H 0.37432 0.51446 0.55103 0.0
H4025 H 0.37038 0.49392 0.61876 0.0
C4026 C 0.36454 0.46337 0.60462 0.0
C4027 C 0.36061 0.45124 0.58632 0.0
C4028 C 0.37688 0.52387 0.56531 0.0
C4029 C 0.36463 0.49408 0.58613 0.0
C4030 C 0.3869 0.54358 0.56446 0.0
C4031 C 0.39133 0.55564 0.58276 0.0
C4032 C 0.37154 0.51614 0.5846 0.0
C4033 C 0.38466 0.54789 0.60167 0.0
C4034 C 0.3662 0.48483 0.6047 0.0
C4035 C 0.3571 0.46098 0.56858 0.0
N4036 N 0.37537 0.52849 0.60211 0.0
N4037 N 0.35965 0.4819 0.56879 0.0
H4038 H 0.70533 0.10766 0.89225 0.0
H4039 H 0.80655 0.14175 0.89322 0.0
H4040 H 0.6985 0.16698 0.8697 0.0
H4041 H 0.79432 0.1863 0.85092 0.0
H4042 H 0.77206 0.12536 0.88929 0.0
H4043 H 0.7416 0.11026 0.88 0.0
C4044 C 0.71132 0.12093 0.88416 0.0
C4045 C 0.69909 0.13734 0.88239 0.0
C4046 C 0.77693 0.1382 0.88018 0.0
C4047 C 0.74075 0.14107 0.86943 0.0
C4048 C 0.7967 0.14771 0.8826 0.0
C4049 C 0.80319 0.16556 0.87258 0.0
C4050 C 0.76333 0.14677 0.86784 0.0
C4051 C 0.78989 0.17259 0.85895 0.0
C4052 C 0.73218 0.12266 0.87755 0.0
C4053 C 0.70759 0.15417 0.87174 0.0
N4054 N 0.77039 0.16348 0.85738 0.0
N4055 N 0.72797 0.1558 0.86604 0.0
H4056 H 0.11521 0.45652 0.95613 0.0
H4057 H 0.13897 0.55142 0.88963 0.0
H4058 H 0.12042 0.4506 0.88954 0.0
H4059 H 0.15025 0.55463 0.95446 0.0
H4060 H 0.13698 0.51372 0.88857 0.0
H4061 H 0.13208 0.4915 0.95578 0.0
C4062 C 0.1202 0.46249 0.94146 0.0
C4063 C 0.1162 0.45084 0.92283 0.0
C4064 C 0.14055 0.52259 0.90292 0.0
C4065 C 0.13532 0.49074 0.92226 0.0
C4066 C 0.14186 0.54408 0.90343 0.0
C4067 C 0.14507 0.55591 0.92206 0.0
C4068 C 0.14176 0.513 0.92136 0.0
C4069 C 0.14812 0.54587 0.93974 0.0
C4070 C 0.12989 0.48241 0.94125 0.0
C4071 C 0.12307 0.45918 0.90425 0.0
N4072 N 0.14596 0.52491 0.93907 0.0
N4073 N 0.132 0.47876 0.90442 0.0
H4074 H 0.06457 0.85901 0.11197 0.0
H4075 H 0.97963 0.90834 0.19154 0.0
H4076 H 0.07636 0.88185 0.17454 0.0
H4077 H 0.96491 0.87171 0.13541 0.0
H4078 H 0.01654 0.9066 0.1819 0.0
H4079 H 0.02985 0.87145 0.11661 0.0
C4080 C 0.06023 0.86753 0.12635 0.0
C4081 C 0.07362 0.86983 0.14272 0.0
C4082 C 0.00526 0.89943 0.17139 0.0
C4083 C 0.03357 0.88356 0.14843 0.0
C4084 C 0.98417 0.9007 0.17676 0.0
C4085 C 0.96916 0.8906 0.16401 0.0
C4086 C 0.01144 0.88796 0.15309 0.0
C4087 C 0.97597 0.8801 0.14546 0.0
C4088 C 0.04024 0.87431 0.12913 0.0
C4089 C 0.06672 0.88014 0.16137 0.0
N4090 N 0.99651 0.87898 0.14061 0.0
N4091 N 0.04724 0.88648 0.16374 0.0
H4092 H 0.70163 0.4588 0.69581 0.0
H4093 H 0.79684 0.39372 0.6553 0.0
H4094 H 0.69936 0.41378 0.64331 0.0
H4095 H 0.7987 0.44001 0.70673 0.0
H4096 H 0.76081 0.40001 0.651 0.0
H4097 H 0.73698 0.45107 0.70072 0.0
C4098 C 0.70857 0.44719 0.68541 0.0
C4099 C 0.69766 0.43689 0.66916 0.0
C4100 C 0.76912 0.40879 0.66321 0.0
C4101 C 0.73805 0.42806 0.67453 0.0
C4102 C 0.78965 0.40523 0.66562 0.0
C4103 C 0.80068 0.41645 0.6813 0.0
C4104 C 0.75968 0.42362 0.67663 0.0
C4105 C 0.79073 0.43111 0.69436 0.0
C4106 C 0.72875 0.44281 0.68817 0.0
C4107 C 0.7073 0.42202 0.65607 0.0
N4108 N 0.77078 0.43427 0.69173 0.0
N4109 N 0.72702 0.41808 0.659 0.0
H4110 H 0.0942 0.67786 0.37429 0.0
H4111 H 0.07128 0.77625 0.41276 0.0
H4112 H 0.13712 0.70893 0.33222 0.0
H4113 H 0.12586 0.79837 0.37841 0.0
H4114 H 0.07965 0.74081 0.40298 0.0
H4115 H 0.09143 0.71024 0.39538 0.0
C4116 C 0.10343 0.69151 0.36974 0.0
C4117 C 0.11595 0.69061 0.35144 0.0
C4118 C 0.09037 0.75324 0.39816 0.0
C4119 C 0.1119 0.72848 0.37501 0.0
C4120 C 0.08559 0.77361 0.40402 0.0
C4121 C 0.09808 0.7903 0.39675 0.0
C4122 C 0.10781 0.7495 0.38485 0.0
C4123 C 0.11596 0.78593 0.38461 0.0
C4124 C 0.10153 0.71021 0.38164 0.0
C4125 C 0.12746 0.7088 0.3463 0.0
N4126 N 0.12012 0.76609 0.37886 0.0
N4127 N 0.12491 0.727 0.35782 0.0
H4128 H 0.6996 0.86451 0.61635 0.0
H4129 H 0.8011 0.89788 0.61831 0.0
H4130 H 0.71185 0.81713 0.65546 0.0
H4131 H 0.80776 0.83632 0.63544 0.0
H4132 H 0.76494 0.8946 0.63078 0.0
H4133 H 0.73435 0.88021 0.62055 0.0
C4134 C 0.7095 0.85779 0.62639 0.0
C4135 C 0.70293 0.83941 0.63543 0.0
C4136 C 0.7743 0.88184 0.63197 0.0
C4137 C 0.74309 0.85732 0.64038 0.0
C4138 C 0.79511 0.8839 0.62523 0.0
C4139 C 0.80729 0.86716 0.62539 0.0
C4140 C 0.7657 0.8628 0.63866 0.0
C4141 C 0.79874 0.84944 0.63461 0.0
C4142 C 0.72942 0.86688 0.62894 0.0
C4143 C 0.71633 0.83132 0.64826 0.0
N4144 N 0.7784 0.84757 0.64049 0.0
N4145 N 0.73598 0.84004 0.64992 0.0
H4146 H 0.67134 0.47734 0.90237 0.0
H4147 H 0.59732 0.53796 0.83639 0.0
H4148 H 0.63345 0.44719 0.85497 0.0
H4149 H 0.64575 0.56837 0.87276 0.0
H4150 H 0.60516 0.50462 0.84826 0.0
H4151 H 0.65722 0.51031 0.897 0.0
C4152 C 0.65939 0.47746 0.89144 0.0
C4153 C 0.65305 0.45916 0.87969 0.0
C4154 C 0.61373 0.51863 0.85412 0.0
C4155 C 0.63717 0.49733 0.87283 0.0
C4156 C 0.60898 0.53779 0.84761 0.0
C4157 C 0.6203 0.55628 0.85417 0.0
C4158 C 0.63006 0.51774 0.86732 0.0
C4159 C 0.63607 0.55473 0.86784 0.0
C4160 C 0.65154 0.49642 0.88812 0.0
C4161 C 0.63831 0.46067 0.86491 0.0
N4162 N 0.64045 0.53598 0.87389 0.0
N4163 N 0.63093 0.47925 0.86194 0.0
H4164 H 0.36846 0.61105 0.54523 0.0
H4165 H 0.42426 0.61693 0.43695 0.0
H4166 H 0.41361 0.66063 0.53134 0.0
H4167 H 0.36609 0.58127 0.44592 0.0
H4168 H 0.41793 0.63624 0.47017 0.0
H4169 H 0.36345 0.60357 0.50832 0.0
C4170 C 0.37647 0.62109 0.53441 0.0
C4171 C 0.39121 0.63668 0.54129 0.0
C4172 C 0.40631 0.62452 0.46468 0.0
C4173 C 0.38661 0.62742 0.49898 0.0
C4174 C 0.40995 0.61342 0.44571 0.0
C4175 C 0.3958 0.59727 0.4387 0.0
C4176 C 0.38857 0.61919 0.47699 0.0
C4177 C 0.37748 0.59353 0.4507 0.0
C4178 C 0.37387 0.61663 0.51329 0.0
C4179 C 0.40179 0.64875 0.52663 0.0
N4180 N 0.37459 0.60409 0.46944 0.0
N4181 N 0.39972 0.64351 0.50612 0.0
H4182 H 0.8616 0.15742 0.78314 0.0
H4183 H 0.88329 0.15988 0.67876 0.0
H4184 H 0.92625 0.1473 0.78248 0.0
H4185 H 0.92934 0.11743 0.68577 0.0
H4186 H 0.87288 0.15844 0.7152 0.0
H4187 H 0.86125 0.14559 0.74646 0.0
C4188 C 0.87567 0.1525 0.7753 0.0
C4189 C 0.8941 0.1537 0.78566 0.0
C4190 C 0.88468 0.14875 0.70867 0.0
C4191 C 0.89388 0.14053 0.74381 0.0
C4192 C 0.89066 0.14964 0.68785 0.0
C4193 C 0.90722 0.13883 0.67934 0.0
C4194 C 0.89566 0.13729 0.72109 0.0
C4195 C 0.91642 0.12592 0.69176 0.0
C4196 C 0.87548 0.14589 0.75437 0.0
C4197 C 0.91182 0.14691 0.77492 0.0
N4198 N 0.91092 0.12598 0.71221 0.0
N4199 N 0.91131 0.14077 0.75448 0.0
H4200 H 0.3733 0.62711 0.05416 0.0
H4201 H 0.3369 0.63748 0.94037 0.0
H4202 H 0.31731 0.59667 0.03066 0.0
H4203 H 0.3963 0.66299 0.96029 0.0
H4204 H 0.33139 0.61978 0.97205 0.0
H4205 H 0.38398 0.63701 0.01934 0.0
C4206 C 0.36367 0.62165 0.04147 0.0
C4207 C 0.34468 0.61032 0.04537 0.0
C4208 C 0.3458 0.62894 0.96949 0.0
C4209 C 0.35635 0.62272 0.00528 0.0
C4210 C 0.34903 0.63907 0.95127 0.0
C4211 C 0.3672 0.65174 0.9474 0.0
C4212 C 0.36068 0.63153 0.98451 0.0
C4213 C 0.3822 0.65321 0.96234 0.0
C4214 C 0.36965 0.62763 0.02158 0.0
C4215 C 0.33241 0.60465 0.02838 0.0
N4216 N 0.3785 0.64348 0.98028 0.0
N4217 N 0.33831 0.61109 0.00927 0.0
H4218 H 0.85481 0.11332 0.31803 0.0
H4219 H 0.86969 0.08922 0.19546 0.0
H4220 H 0.90734 0.08431 0.28953 0.0
H4221 H 0.813 0.10587 0.2274 0.0
H4222 H 0.88663 0.09321 0.2286 0.0
H4223 H 0.84308 0.11815 0.28384 0.0
C4224 C 0.86442 0.10889 0.30452 0.0
C4225 C 0.88233 0.09884 0.30664 0.0
C4226 C 0.87053 0.09613 0.22832 0.0
C4227 C 0.86837 0.10323 0.26727 0.0
C4228 C 0.86085 0.09384 0.20942 0.0
C4229 C 0.83986 0.09709 0.20869 0.0
C4230 C 0.85921 0.10199 0.24659 0.0
C4231 C 0.82916 0.10304 0.22725 0.0
C4232 C 0.85749 0.11125 0.28497 0.0
C4233 C 0.89376 0.09265 0.28858 0.0
N4234 N 0.83892 0.10528 0.24536 0.0
N4235 N 0.88644 0.09464 0.26964 0.0
H4236 H 0.38407 0.66174 0.67654 0.0
H4237 H 0.40698 0.63022 0.78845 0.0
H4238 H 0.42778 0.61748 0.68558 0.0
H4239 H 0.38506 0.68782 0.77412 0.0
H4240 H 0.4056 0.61787 0.75158 0.0
H4241 H 0.37348 0.66217 0.71311 0.0
C4242 C 0.39094 0.65159 0.68613 0.0
C4243 C 0.40705 0.63986 0.67821 0.0
C4244 C 0.40083 0.63307 0.75668 0.0
C4245 C 0.39556 0.64079 0.72006 0.0
C4246 C 0.40168 0.6401 0.77758 0.0
C4247 C 0.39645 0.66013 0.78409 0.0
C4248 C 0.39419 0.64605 0.74258 0.0
C4249 C 0.38957 0.6724 0.7696 0.0
C4250 C 0.38503 0.65196 0.70701 0.0
C4251 C 0.41536 0.62683 0.69119 0.0
N4252 N 0.38867 0.66516 0.74954 0.0
N4253 N 0.40989 0.62804 0.71172 0.0
H4254 H 0.83725 0.13577 0.93974 0.0
H4255 H 0.87306 0.12744 0.0542 0.0
H4256 H 0.8962 0.16228 0.95996 0.0
H4257 H 0.8174 0.09615 0.03078 0.0
H4258 H 0.8837 0.13712 0.01931 0.0
H4259 H 0.83159 0.1186 0.97174 0.0
C4260 C 0.84926 0.13769 0.95078 0.0
C4261 C 0.86735 0.15047 0.94689 0.0
C4262 C 0.86944 0.12763 0.02159 0.0
C4263 C 0.86065 0.13089 0.98435 0.0
C4264 C 0.86347 0.1218 0.04152 0.0
C4265 C 0.8446 0.11028 0.04546 0.0
C4266 C 0.85625 0.12238 0.00525 0.0
C4267 C 0.83241 0.10432 0.02848 0.0
C4268 C 0.84594 0.12787 0.96918 0.0
C4269 C 0.88218 0.15239 0.96202 0.0
N4270 N 0.8383 0.11061 0.0093 0.0
N4271 N 0.8784 0.14295 0.98012 0.0
H4272 H 0.36624 0.61572 0.31369 0.0
H4273 H 0.35744 0.56659 0.19856 0.0
H4274 H 0.40593 0.57038 0.28616 0.0
H4275 H 0.32956 0.62261 0.22032 0.0
H4276 H 0.37641 0.56881 0.23022 0.0
H4277 H 0.35468 0.62079 0.27933 0.0
C4278 C 0.37331 0.60764 0.30025 0.0
C4279 C 0.38752 0.59308 0.30265 0.0
C4280 C 0.3663 0.58074 0.22803 0.0
C4281 C 0.3734 0.59772 0.26346 0.0
C4282 C 0.35536 0.57939 0.21 0.0
C4283 C 0.34182 0.59438 0.20685 0.0
C4284 C 0.3635 0.59705 0.24324 0.0
C4285 C 0.33982 0.61071 0.22215 0.0
C4286 C 0.36644 0.61023 0.28067 0.0
C4287 C 0.39543 0.58221 0.28486 0.0
N4288 N 0.35036 0.6115 0.23976 0.0
N4289 N 0.38802 0.58447 0.26608 0.0
H4290 H 0.9094 0.16182 0.53416 0.0
H4291 H 0.92688 0.11484 0.43791 0.0
H4292 H 0.87142 0.10567 0.54312 0.0
H4293 H 0.86775 0.08058 0.44574 0.0
H4294 H 0.92049 0.13411 0.47099 0.0
H4295 H 0.90608 0.15543 0.49679 0.0
C4296 C 0.89949 0.1487 0.5283 0.0
C4297 C 0.89062 0.13425 0.54165 0.0
C4298 C 0.90854 0.12293 0.46522 0.0
C4299 C 0.88778 0.12615 0.49903 0.0
C4300 C 0.91231 0.11171 0.44635 0.0
C4301 C 0.89792 0.09591 0.43906 0.0
C4302 C 0.8903 0.11822 0.47706 0.0
C4303 C 0.87932 0.09258 0.45073 0.0
C4304 C 0.89806 0.14474 0.50693 0.0
C4305 C 0.8784 0.11721 0.53326 0.0
N4306 N 0.87626 0.10331 0.46934 0.0
N4307 N 0.87762 0.11343 0.51246 0.0
H4308 H 0.48058 0.90914 0.69161 0.0
H4309 H 0.56474 0.85836 0.6121 0.0
H4310 H 0.46525 0.87049 0.63686 0.0
H4311 H 0.57754 0.8831 0.67388 0.0
H4312 H 0.52991 0.87051 0.61698 0.0
H4313 H 0.51741 0.9074 0.68152 0.0
C4314 C 0.48495 0.90101 0.67703 0.0
C4315 C 0.4698 0.89035 0.66481 0.0
C4316 C 0.54055 0.87386 0.62926 0.0
C4317 C 0.51199 0.88779 0.65336 0.0
C4318 C 0.56059 0.86725 0.62631 0.0
C4319 C 0.57432 0.87019 0.64239 0.0
C4320 C 0.53413 0.88355 0.64844 0.0
C4321 C 0.56765 0.88093 0.66089 0.0
C4322 C 0.50599 0.89976 0.6714 0.0
C4323 C 0.47642 0.87928 0.64651 0.0
N4324 N 0.5481 0.88708 0.66345 0.0
N4325 N 0.49692 0.87822 0.6414 0.0
H4326 H 0.30902 0.44058 0.15943 0.0
H4327 H 0.19484 0.42056 0.19264 0.0
H4328 H 0.29057 0.38159 0.18322 0.0
H4329 H 0.20849 0.43162 0.12863 0.0
H4330 H 0.23079 0.41246 0.19534 0.0
H4331 H 0.27266 0.44454 0.15311 0.0
C4332 C 0.29734 0.42848 0.1632 0.0
C4333 C 0.30266 0.41079 0.17188 0.0
C4334 C 0.22574 0.4166 0.18074 0.0
C4335 C 0.26153 0.41552 0.16541 0.0
C4336 C 0.20537 0.42121 0.17919 0.0
C4337 C 0.19885 0.42694 0.16046 0.0
C4338 C 0.23964 0.41841 0.16364 0.0
C4339 C 0.21301 0.42747 0.14341 0.0
C4340 C 0.27675 0.43072 0.15959 0.0
C4341 C 0.28703 0.39548 0.17652 0.0
N4342 N 0.23294 0.42367 0.1455 0.0
N4343 N 0.26703 0.39837 0.17362 0.0
H4344 H 0.61933 0.95049 0.88691 0.0
H4345 H 0.65548 0.056 0.95072 0.0
H4346 H 0.61933 0.95794 0.95344 0.0
H4347 H 0.63324 0.05193 0.88926 0.0
H4348 H 0.6536 0.01808 0.94937 0.0
H4349 H 0.63546 0.98561 0.88546 0.0
C4350 C 0.62308 0.9594 0.90121 0.0
C4351 C 0.61777 0.95147 0.92035 0.0
C4352 C 0.64977 0.02552 0.93595 0.0
C4353 C 0.63622 0.99153 0.91877 0.0
C4354 C 0.6511 0.04708 0.93662 0.0
C4355 C 0.64471 0.05687 0.91996 0.0
C4356 C 0.6421 0.01391 0.91846 0.0
C4357 C 0.63849 0.0448 0.90228 0.0
C4358 C 0.63225 0.97942 0.90036 0.0
C4359 C 0.623 0.96361 0.93839 0.0
N4360 N 0.63717 0.02389 0.90203 0.0
N4361 N 0.63178 0.98318 0.93718 0.0
H4362 H 0.20116 0.36323 0.61305 0.0
H4363 H 0.31175 0.34094 0.63977 0.0
H4364 H 0.21239 0.31704 0.65399 0.0
H4365 H 0.29882 0.39567 0.61147 0.0
H4366 H 0.27557 0.33609 0.65146 0.0
H4367 H 0.23592 0.37922 0.61794 0.0
C4368 C 0.21087 0.3567 0.62342 0.0
C4369 C 0.20405 0.33863 0.63291 0.0
C4370 C 0.28068 0.34954 0.64326 0.0
C4371 C 0.24408 0.3566 0.63825 0.0
C4372 C 0.30139 0.35239 0.63671 0.0
C4373 C 0.30819 0.36863 0.62449 0.0
C4374 C 0.26659 0.36274 0.63709 0.0
C4375 C 0.29418 0.38297 0.62087 0.0
C4376 C 0.23072 0.36587 0.62626 0.0
C4377 C 0.21712 0.33093 0.64634 0.0
N4378 N 0.2739 0.37938 0.62666 0.0
N4379 N 0.23672 0.33967 0.64824 0.0
H4380 H 0.89517 0.54775 0.04819 0.0
H4381 H 0.8659 0.45483 0.11589 0.0
H4382 H 0.8832 0.55588 0.11413 0.0
H4383 H 0.85877 0.44995 0.05022 0.0
H4384 H 0.86805 0.4925 0.1159 0.0
H4385 H 0.87853 0.51266 0.04828 0.0
C4386 C 0.88873 0.54224 0.06262 0.0
C4387 C 0.89075 0.55456 0.08121 0.0
C4388 C 0.86535 0.48325 0.10156 0.0
C4389 C 0.87187 0.51455 0.0815 0.0
C4390 C 0.86394 0.4618 0.10163 0.0
C4391 C 0.86186 0.44952 0.0831 0.0
C4392 C 0.86538 0.49234 0.08268 0.0
C4393 C 0.86004 0.45907 0.06485 0.0
C4394 C 0.87917 0.52227 0.06267 0.0
C4395 C 0.88209 0.54678 0.09948 0.0
N4396 N 0.86227 0.48 0.065 0.0
N4397 N 0.87331 0.52714 0.09922 0.0
H4398 H 0.04333 0.13144 0.86969 0.0
H4399 H 0.92906 0.12566 0.83083 0.0
H4400 H 0.02584 0.10141 0.81116 0.0
H4401 H 0.94402 0.1476 0.89285 0.0
H4402 H 0.96326 0.11273 0.82507 0.0
H4403 H 0.00674 0.13358 0.88021 0.0
C4404 C 0.03172 0.12456 0.85936 0.0
C4405 C 0.03768 0.11566 0.83974 0.0
C4406 C 0.95898 0.11984 0.84016 0.0
C4407 C 0.99555 0.11899 0.85128 0.0
C4408 C 0.93929 0.12701 0.84355 0.0
C4409 C 0.93338 0.13727 0.86255 0.0
C4410 C 0.97331 0.12333 0.85571 0.0
C4411 C 0.94764 0.13927 0.87818 0.0
C4412 C 0.0108 0.126 0.86528 0.0
C4413 C 0.02197 0.1078 0.82665 0.0
N4414 N 0.96699 0.13268 0.87433 0.0
N4415 N 1.00173 0.10987 0.83253 0.0
H4416 H 0.19896 0.55416 0.31474 0.0
H4417 H 0.31046 0.59949 0.3506 0.0
H4418 H 0.21217 0.61675 0.34044 0.0
H4419 H 0.29714 0.53711 0.32437 0.0
H4420 H 0.27443 0.60613 0.3473 0.0
H4421 H 0.23475 0.54736 0.319 0.0
C4422 C 0.20939 0.56641 0.32143 0.0
C4423 C 0.20268 0.58601 0.32728 0.0
C4424 C 0.2794 0.59101 0.3422 0.0
C4425 C 0.24361 0.57848 0.33198 0.0
C4426 C 0.29995 0.58725 0.344 0.0
C4427 C 0.30672 0.56777 0.33764 0.0
C4428 C 0.26556 0.57513 0.33401 0.0
C4429 C 0.29252 0.55239 0.32934 0.0
C4430 C 0.22982 0.56256 0.32379 0.0
C4431 C 0.21676 0.60138 0.33582 0.0
N4432 N 0.27258 0.55639 0.32779 0.0
N4433 N 0.23662 0.59731 0.33784 0.0
H4434 H 0.86315 0.3001 0.67206 0.0
H4435 H 0.93095 0.22964 0.59319 0.0
H4436 H 0.91586 0.32364 0.63565 0.0
H4437 H 0.87735 0.20633 0.62831 0.0
H4438 H 0.92186 0.26503 0.60346 0.0
H4439 H 0.86409 0.26681 0.65148 0.0
C4440 C 0.87449 0.29851 0.65933 0.0
C4441 C 0.88949 0.3147 0.65568 0.0
C4442 C 0.91172 0.25217 0.60844 0.0
C4443 C 0.89101 0.27645 0.6323 0.0
C4444 C 0.91677 0.23196 0.60227 0.0
C4445 C 0.90473 0.21503 0.60966 0.0
C4446 C 0.89459 0.25545 0.62221 0.0
C4447 C 0.88693 0.21897 0.6221 0.0
C4448 C 0.87518 0.2794 0.64769 0.0
C4449 C 0.90406 0.31155 0.63915 0.0
N4450 N 0.88256 0.23868 0.62818 0.0
N4451 N 0.90462 0.29281 0.62831 0.0
H4452 H 0.19544 0.16383 0.36535 0.0
H4453 H 0.30672 0.14195 0.39196 0.0
H4454 H 0.20865 0.11077 0.39622 0.0
H4455 H 0.29466 0.18856 0.35184 0.0
H4456 H 0.27188 0.12597 0.38754 0.0
H4457 H 0.23162 0.16846 0.35357 0.0
C4458 C 0.20587 0.15266 0.36896 0.0
C4459 C 0.19912 0.13696 0.38185 0.0
C4460 C 0.27691 0.13942 0.3793 0.0
C4461 C 0.24076 0.14265 0.36917 0.0
C4462 C 0.29682 0.14856 0.38183 0.0
C4463 C 0.30346 0.16675 0.37245 0.0
C4464 C 0.26329 0.14881 0.36769 0.0
C4465 C 0.29012 0.17457 0.35938 0.0
C4466 C 0.22659 0.1554 0.36237 0.0
C4467 C 0.21323 0.12301 0.38623 0.0
N4468 N 0.27048 0.16583 0.35776 0.0
N4469 N 0.23352 0.1265 0.38035 0.0
H4470 H 0.36636 0.43784 0.12833 0.0
H4471 H 0.36964 0.5602 0.15646 0.0
H4472 H 0.40316 0.46955 0.17577 0.0
H4473 H 0.34078 0.53095 0.10255 0.0
H4474 H 0.3842 0.52766 0.16188 0.0
H4475 H 0.35915 0.47142 0.11668 0.0
C4476 C 0.3737 0.45184 0.13573 0.0
C4477 C 0.38618 0.45068 0.15253 0.0
C4478 C 0.37512 0.52835 0.14853 0.0
C4479 C 0.37694 0.48961 0.13998 0.0
C4480 C 0.36698 0.5471 0.14529 0.0
C4481 C 0.35452 0.54869 0.12857 0.0
C4482 C 0.37043 0.51055 0.13532 0.0
C4483 C 0.35087 0.53077 0.1152 0.0
C4484 C 0.36929 0.47111 0.12926 0.0
C4485 C 0.39418 0.46954 0.16225 0.0
N4486 N 0.35857 0.51251 0.11896 0.0
N4487 N 0.38932 0.48804 0.156 0.0
H4488 H 0.6382 0.39782 0.46108 0.0
H4489 H 0.58095 0.39128 0.56841 0.0
H4490 H 0.59388 0.34731 0.47421 0.0
H4491 H 0.63958 0.42651 0.56085 0.0
H4492 H 0.58775 0.37225 0.53512 0.0
H4493 H 0.64258 0.4053 0.4981 0.0
C4494 C 0.63026 0.38759 0.47176 0.0
C4495 C 0.61592 0.37173 0.46463 0.0
C4496 C 0.59936 0.38381 0.54094 0.0
C4497 C 0.61977 0.38098 0.50704 0.0
C4498 C 0.59544 0.39475 0.55994 0.0
C4499 C 0.60961 0.4107 0.56738 0.0
C4500 C 0.61739 0.38909 0.52903 0.0
C4501 C 0.62817 0.41441 0.55574 0.0
C4502 C 0.63249 0.39205 0.49294 0.0
C4503 C 0.6054 0.3594 0.47912 0.0
N4504 N 0.63133 0.404 0.53697 0.0
N4505 N 0.60708 0.36464 0.49968 0.0
H4506 H 0.121 0.81434 0.23158 0.0
H4507 H 0.08324 0.89016 0.32039 0.0
H4508 H 0.10677 0.87534 0.21874 0.0
H4509 H 0.12311 0.84247 0.32977 0.0
H4510 H 0.0945 0.88835 0.28379 0.0
H4511 H 0.12376 0.82615 0.26789 0.0
C4512 C 0.11858 0.8303 0.23648 0.0
C4513 C 0.11344 0.84388 0.22235 0.0
C4514 C 0.10133 0.87882 0.29401 0.0
C4515 C 0.11636 0.85751 0.26388 0.0
C4516 C 0.09504 0.87997 0.31495 0.0
C4517 C 0.10196 0.86611 0.32795 0.0
C4518 C 0.11441 0.86361 0.28625 0.0
C4519 C 0.11711 0.85312 0.32011 0.0
C4520 C 0.12035 0.83712 0.25716 0.0
C4521 C 0.11069 0.86445 0.22933 0.0
N4522 N 0.12246 0.85182 0.29965 0.0
N4523 N 0.11175 0.8706 0.24978 0.0
H4524 H 0.66976 0.37136 0.06726 0.0
H4525 H 0.63426 0.37885 0.95264 0.0
H4526 H 0.61106 0.34428 0.04688 0.0
H4527 H 0.68947 0.41092 0.97627 0.0
H4528 H 0.62351 0.36932 0.98755 0.0
H4529 H 0.6753 0.38857 0.03528 0.0
C4530 C 0.65778 0.36932 0.05619 0.0
C4531 C 0.6398 0.35636 0.06001 0.0
C4532 C 0.63769 0.37894 0.9853 0.0
C4533 C 0.64636 0.37597 0.02259 0.0
C4534 C 0.64371 0.38469 0.96536 0.0
C4535 C 0.6625 0.39637 0.96149 0.0
C4536 C 0.65074 0.38445 1.0017 0.0
C4537 C 0.67453 0.40261 0.97853 0.0
C4538 C 0.66102 0.37917 0.0378 0.0
C4539 C 0.62499 0.3543 0.04487 0.0
N4540 N 0.66859 0.39638 0.99772 0.0
N4541 N 0.62871 0.36375 0.02678 0.0
H4542 H 0.09924 0.93803 0.71947 0.0
H4543 H 0.17569 0.88427 0.78709 0.0
H4544 H 0.14081 0.89361 0.69376 0.0
H4545 H 0.14622 0.9396 0.80805 0.0
H4546 H 0.15768 0.88257 0.75483 0.0
H4547 H 0.10998 0.93296 0.75413 0.0
C4548 C 0.10984 0.9264 0.72126 0.0
C4549 C 0.11872 0.91576 0.70383 0.0
C4550 C 0.15502 0.89499 0.76654 0.0
C4551 C 0.13186 0.9106 0.74327 0.0
C4552 C 0.1653 0.89599 0.78496 0.0
C4553 C 0.16255 0.91219 0.80022 0.0
C4554 C 0.14167 0.91019 0.76339 0.0
C4555 C 0.14891 0.92694 0.79662 0.0
C4556 C 0.1163 0.92383 0.74099 0.0
C4557 C 0.13317 0.90164 0.70687 0.0
N4558 N 0.13901 0.92561 0.77858 0.0
N4559 N 0.13944 0.89959 0.72618 0.0
H4560 H 0.57964 0.36417 0.21992 0.0
H4561 H 0.57703 0.39284 0.3238 0.0
H4562 H 0.64009 0.34405 0.22721 0.0
H4563 H 0.61775 0.34394 0.32445 0.0
H4564 H 0.58615 0.39532 0.28707 0.0
H4565 H 0.57796 0.37645 0.25643 0.0
C4566 C 0.59273 0.36276 0.22915 0.0
C4567 C 0.60993 0.35295 0.22068 0.0
C4568 C 0.59327 0.38424 0.29532 0.0
C4569 C 0.60832 0.36716 0.26231 0.0
C4570 C 0.58836 0.38305 0.31636 0.0
C4571 C 0.59636 0.36786 0.32703 0.0
C4572 C 0.60626 0.37014 0.28503 0.0
C4573 C 0.61096 0.3556 0.31666 0.0
C4574 C 0.59189 0.37 0.24995 0.0
C4575 C 0.6265 0.35148 0.23322 0.0
N4576 N 0.61524 0.35681 0.29613 0.0
N4577 N 0.6251 0.35812 0.25354 0.0
H4578 H 0.17095 0.86866 0.06611 0.0
H4579 H 0.13258 0.88317 0.95408 0.0
H4580 H 0.1099 0.84693 0.04773 0.0
H4581 H 0.19036 0.91042 0.9764 0.0
H4582 H 0.12222 0.87321 0.98894 0.0
H4583 H 0.17663 0.88671 0.03467 0.0
C4584 C 0.15853 0.86794 0.05559 0.0
C4585 C 0.13984 0.85622 0.05979 0.0
C4586 C 0.1369 0.88192 0.98645 0.0
C4587 C 0.1465 0.87686 0.02301 0.0
C4588 C 0.14271 0.88795 0.96655 0.0
C4589 C 0.16211 0.89837 0.96232 0.0
C4590 C 0.15076 0.88587 1.00238 0.0
C4591 C 0.17498 0.90316 0.97898 0.0
C4592 C 0.16184 0.87829 0.03752 0.0
C4593 C 0.12445 0.85592 0.04538 0.0
N4594 N 0.1692 0.89667 0.99809 0.0
N4595 N 0.12821 0.86583 0.02757 0.0
H4596 H 0.67848 0.38477 0.78628 0.0
H4597 H 0.59932 0.43787 0.72099 0.0
H4598 H 0.64799 0.43919 0.80833 0.0
H4599 H 0.64051 0.39373 0.69386 0.0
H4600 H 0.61112 0.43274 0.75521 0.0
H4601 H 0.65985 0.383 0.75431 0.0
C4602 C 0.66776 0.39627 0.78444 0.0
C4603 C 0.66488 0.41223 0.79994 0.0
C4604 C 0.61714 0.42367 0.74187 0.0
C4605 C 0.6433 0.41015 0.76348 0.0
C4606 C 0.61007 0.42628 0.72239 0.0
C4607 C 0.61849 0.41572 0.70466 0.0
C4608 C 0.63292 0.41054 0.74363 0.0
C4609 C 0.63318 0.40167 0.70722 0.0
C4610 C 0.65713 0.39524 0.7662 0.0
C4611 C 0.6508 0.42671 0.79673 0.0
N4612 N 0.64007 0.39962 0.72629 0.0
N4613 N 0.64057 0.42533 0.77889 0.0
H4614 H 0.09029 0.84597 0.47502 0.0
H4615 H 0.14056 0.92621 0.56079 0.0
H4616 H 0.13486 0.8963 0.46184 0.0
H4617 H 0.08134 0.89202 0.56831 0.0
H4618 H 0.1464 0.90651 0.52762 0.0
H4619 H 0.09556 0.85357 0.512 0.0
C4620 C 0.10206 0.85785 0.47987 0.0
C4621 C 0.11236 0.8704 0.46546 0.0
C4622 C 0.13234 0.90303 0.53677 0.0
C4623 C 0.11796 0.87959 0.50755 0.0
C4624 C 0.12899 0.91422 0.55575 0.0
C4625 C 0.11027 0.91099 0.56724 0.0
C4626 C 0.11697 0.88836 0.52932 0.0
C4627 C 0.09587 0.89524 0.55985 0.0
C4628 C 0.1048 0.86241 0.50097 0.0
C4629 C 0.12687 0.88612 0.47253 0.0
N4630 N 0.09942 0.88466 0.54126 0.0
N4631 N 0.12904 0.89049 0.49312 0.0
H4632 H 0.52593 0.09777 0.31315 0.0
H4633 H 0.44176 0.14746 0.3936 0.0
H4634 H 0.54126 0.13431 0.36915 0.0
H4635 H 0.42905 0.12396 0.33143 0.0
H4636 H 0.47654 0.13518 0.3885 0.0
H4637 H 0.48909 0.09971 0.32312 0.0
C4638 C 0.52155 0.10544 0.32796 0.0
C4639 C 0.53674 0.11545 0.34058 0.0
C4640 C 0.46594 0.13214 0.37617 0.0
C4641 C 0.4945 0.11832 0.35189 0.0
C4642 C 0.44591 0.13883 0.37923 0.0
C4643 C 0.43221 0.13627 0.36312 0.0
C4644 C 0.47237 0.12274 0.35684 0.0
C4645 C 0.4389 0.12585 0.34444 0.0
C4646 C 0.5005 0.10683 0.33353 0.0
C4647 C 0.53009 0.126 0.35918 0.0
N4648 N 0.45843 0.11961 0.34179 0.0
N4649 N 0.50958 0.12722 0.36422 0.0
H4650 H 0.70674 0.56721 0.79432 0.0
H4651 H 0.80173 0.58997 0.86798 0.0
H4652 H 0.70312 0.60247 0.85335 0.0
H4653 H 0.80448 0.55318 0.80977 0.0
H4654 H 0.76577 0.59535 0.86268 0.0
H4655 H 0.74269 0.56208 0.79967 0.0
C4656 C 0.7135 0.5737 0.8085 0.0
C4657 C 0.702 0.58519 0.82348 0.0
C4658 C 0.77425 0.58617 0.85102 0.0
C4659 C 0.74311 0.57957 0.82963 0.0
C4660 C 0.79478 0.58318 0.854 0.0
C4661 C 0.80601 0.57116 0.83925 0.0
C4662 C 0.76496 0.57708 0.83315 0.0
C4663 C 0.79631 0.56257 0.82149 0.0
C4664 C 0.73403 0.57085 0.81151 0.0
C4665 C 0.71149 0.59345 0.84148 0.0
N4666 N 0.7763 0.56568 0.81894 0.0
N4667 N 0.73154 0.5905 0.84405 0.0
H4668 H 0.36349 0.95695 0.11767 0.0
H4669 H 0.39411 0.04804 0.04826 0.0
H4670 H 0.35541 0.95096 0.05215 0.0
H4671 H 0.38178 0.05767 0.11405 0.0
H4672 H 0.37689 0.01321 0.04898 0.0
H4673 H 0.36615 0.99454 0.11698 0.0
C4674 C 0.36141 0.96366 0.10331 0.0
C4675 C 0.35892 0.95107 0.08502 0.0
C4676 C 0.37758 0.0231 0.06319 0.0
C4677 C 0.3631 0.99382 0.08377 0.0
C4678 C 0.38748 0.04292 0.06278 0.0
C4679 C 0.38956 0.05559 0.08116 0.0
C4680 C 0.37 0.01589 0.08215 0.0
C4681 C 0.38065 0.0483 0.09955 0.0
C4682 C 0.36313 0.98508 0.10283 0.0
C4683 C 0.35696 0.96032 0.06661 0.0
N4684 N 0.37154 0.02881 0.09964 0.0
N4685 N 0.35956 0.98121 0.06635 0.0
H4686 H 0.69519 0.66451 0.36468 0.0
H4687 H 0.79901 0.68572 0.34705 0.0
H4688 H 0.70963 0.61179 0.39537 0.0
H4689 H 0.80276 0.64696 0.39716 0.0
H4690 H 0.76412 0.66999 0.34126 0.0
H4691 H 0.73109 0.66993 0.35288 0.0
C4692 C 0.70585 0.65346 0.36809 0.0
C4693 C 0.69948 0.63769 0.381 0.0
C4694 C 0.77255 0.66487 0.3535 0.0
C4695 C 0.74099 0.644 0.36793 0.0
C4696 C 0.79261 0.67368 0.35662 0.0
C4697 C 0.80359 0.66804 0.37296 0.0
C4698 C 0.76344 0.65041 0.36693 0.0
C4699 C 0.79464 0.65219 0.38472 0.0
C4700 C 0.72649 0.65658 0.36136 0.0
C4701 C 0.7139 0.62402 0.38529 0.0
N4702 N 0.77505 0.64416 0.38166 0.0
N4703 N 0.73411 0.62784 0.37925 0.0
H4704 H 0.19106 0.31791 0.35361 0.0
H4705 H 0.18686 0.23503 0.41524 0.0
H4706 H 0.1463 0.32639 0.40447 0.0
H4707 H 0.13564 0.21508 0.37705 0.0
H4708 H 0.18667 0.26976 0.40359 0.0
H4709 H 0.1826 0.28059 0.353 0.0
C4710 C 0.17879 0.31209 0.36401 0.0
C4711 C 0.16979 0.32523 0.37956 0.0
C4712 C 0.1757 0.2576 0.39761 0.0
C4713 C 0.1601 0.28287 0.37863 0.0
C4714 C 0.17578 0.23789 0.40419 0.0
C4715 C 0.16126 0.22225 0.39703 0.0
C4716 C 0.16105 0.26164 0.38384 0.0
C4717 C 0.14709 0.22681 0.38284 0.0
C4718 C 0.17403 0.29081 0.3636 0.0
C4719 C 0.15395 0.31675 0.39257 0.0
N4720 N 0.14717 0.24632 0.37676 0.0
N4721 N 0.15005 0.29596 0.39227 0.0
H4722 H 0.62878 0.30088 0.37855 0.0
H4723 H 0.59006 0.18135 0.37083 0.0
H4724 H 0.57485 0.27575 0.41189 0.0
H4725 H 0.64118 0.20711 0.33378 0.0
H4726 H 0.58898 0.21433 0.39142 0.0
H4727 H 0.63813 0.26584 0.36799 0.0
C4728 C 0.61935 0.28792 0.38436 0.0
C4729 C 0.6012 0.29126 0.39644 0.0
C4730 C 0.60072 0.21274 0.37908 0.0
C4731 C 0.61135 0.2509 0.38364 0.0
C4732 C 0.60144 0.19382 0.36734 0.0
C4733 C 0.61571 0.1914 0.35045 0.0
C4734 C 0.61425 0.22961 0.37389 0.0
C4735 C 0.63003 0.20816 0.34671 0.0
C4736 C 0.62455 0.26789 0.37808 0.0
C4737 C 0.58923 0.27391 0.40302 0.0
N4738 N 0.62872 0.22663 0.35811 0.0
N4739 N 0.59434 0.25449 0.39627 0.0
H4740 H 0.09849 0.03976 0.83603 0.0
H4741 H 0.1682 0.97695 0.90431 0.0
H4742 H 0.14616 0.06917 0.87401 0.0
H4743 H 0.13419 0.94873 0.85312 0.0
H4744 H 0.15458 0.01024 0.89909 0.0
H4745 H 0.10544 0.00615 0.84783 0.0
C4746 C 0.10976 0.0393 0.84759 0.0
C4747 C 0.12118 0.05757 0.85459 0.0
C4748 C 0.14965 0.99667 0.88932 0.0
C4749 C 0.12987 0.01876 0.8677 0.0
C4750 C 0.1572 0.97754 0.89252 0.0
C4751 C 0.15186 0.95975 0.87957 0.0
C4752 C 0.13652 0.99817 0.87306 0.0
C4753 C 0.13829 0.96183 0.86386 0.0
C4754 C 0.11401 0.02001 0.85406 0.0
C4755 C 0.13645 0.05568 0.86872 0.0
N4756 N 0.13114 0.98053 0.86107 0.0
N4757 N 0.14033 0.03679 0.87475 0.0
H4758 H 0.54065 0.88503 0.13626 0.0
H4759 H 0.4305 0.92256 0.12199 0.0
H4760 H 0.5219 0.94463 0.15982 0.0
H4761 H 0.44802 0.86154 0.10134 0.0
H4762 H 0.46116 0.92825 0.14216 0.0
H4763 H 0.50464 0.87334 0.13054 0.0
C4764 C 0.52877 0.89532 0.14116 0.0
C4765 C 0.53414 0.9157 0.14881 0.0
C4766 C 0.45816 0.91345 0.13355 0.0
C4767 C 0.49301 0.90286 0.14127 0.0
C4768 C 0.44061 0.91017 0.12198 0.0
C4769 C 0.43678 0.89162 0.10968 0.0
C4770 C 0.47223 0.89818 0.13271 0.0
C4771 C 0.45037 0.87611 0.1105 0.0
C4772 C 0.50823 0.88876 0.13761 0.0
C4773 C 0.5183 0.92867 0.15429 0.0
N4774 N 0.46767 0.87987 0.1215 0.0
N4775 N 0.49847 0.92218 0.15001 0.0
H4776 H 0.43034 0.42022 0.62257 0.0
H4777 H 0.54141 0.38388 0.63349 0.0
H4778 H 0.44851 0.35996 0.59989 0.0
H4779 H 0.52189 0.44223 0.66001 0.0
H4780 H 0.50546 0.37175 0.62815 0.0
H4781 H 0.46114 0.42563 0.64257 0.0
C4782 C 0.44063 0.40792 0.6221 0.0
C4783 C 0.43695 0.38969 0.60926 0.0
C4784 C 0.50887 0.38697 0.63576 0.0
C4785 C 0.47253 0.39594 0.63207 0.0
C4786 C 0.52939 0.39378 0.63906 0.0
C4787 C 0.53451 0.41396 0.64742 0.0
C4788 C 0.4934 0.40066 0.64038 0.0
C4789 C 0.51849 0.42643 0.65386 0.0
C4790 C 0.45825 0.41104 0.63357 0.0
C4791 C 0.45074 0.37427 0.60948 0.0
N4792 N 0.49866 0.41974 0.64979 0.0
N4793 N 0.46811 0.37791 0.62038 0.0
H4794 H 0.14919 0.71219 0.86864 0.0
H4795 H 0.14429 0.82836 0.90704 0.0
H4796 H 0.1723 0.73927 0.92653 0.0
H4797 H 0.18682 0.8174 0.85472 0.0
H4798 H 0.13566 0.7912 0.90697 0.0
H4799 H 0.14734 0.74737 0.85747 0.0
C4800 C 0.1539 0.72548 0.8789 0.0
C4801 C 0.16083 0.72295 0.89855 0.0
C4802 C 0.14624 0.79711 0.895 0.0
C4803 C 0.15794 0.76242 0.88631 0.0
C4804 C 0.1512 0.81826 0.89501 0.0
C4805 C 0.16687 0.82591 0.88135 0.0
C4806 C 0.15683 0.78367 0.88114 0.0
C4807 C 0.17499 0.8121 0.86583 0.0
C4808 C 0.15272 0.74535 0.87257 0.0
C4809 C 0.16682 0.74054 0.9113 0.0
N4810 N 0.17035 0.79143 0.86653 0.0
N4811 N 0.16498 0.75956 0.90506 0.0
H4812 H 0.84768 0.79278 0.63804 0.0
H4813 H 0.86007 0.67559 0.60097 0.0
H4814 H 0.84338 0.76608 0.5753 0.0
H4815 H 0.81608 0.68942 0.6513 0.0
H4816 H 0.86945 0.71249 0.59958 0.0
H4817 H 0.84865 0.75765 0.64959 0.0
C4818 C 0.84706 0.77959 0.62675 0.0
C4819 C 0.84556 0.78222 0.60569 0.0
C4820 C 0.85825 0.70732 0.61137 0.0
C4821 C 0.84763 0.74281 0.61856 0.0
C4822 C 0.85291 0.6863 0.61224 0.0
C4823 C 0.83673 0.67949 0.62576 0.0
C4824 C 0.84748 0.72149 0.62423 0.0
C4825 C 0.82832 0.69406 0.64032 0.0
C4826 C 0.84774 0.75974 0.63332 0.0
C4827 C 0.8447 0.76474 0.59164 0.0
N4828 N 0.8334 0.71457 0.63881 0.0
N4829 N 0.84597 0.7458 0.59831 0.0
H4830 H 0.43184 0.73149 0.59407 0.0
H4831 H 0.36395 0.8004 0.67432 0.0
H4832 H 0.37889 0.70705 0.62938 0.0
H4833 H 0.41427 0.82536 0.63572 0.0
H4834 H 0.36535 0.76703 0.65391 0.0
H4835 H 0.42214 0.76662 0.60466 0.0
C4836 C 0.41767 0.7335 0.60326 0.0
C4837 C 0.40597 0.71632 0.61056 0.0
C4838 C 0.37579 0.77994 0.6496 0.0
C4839 C 0.39515 0.75648 0.62351 0.0
C4840 C 0.3748 0.7991 0.66114 0.0
C4841 C 0.38902 0.81575 0.6568 0.0
C4842 C 0.39115 0.77739 0.63364 0.0
C4843 C 0.40305 0.81293 0.63973 0.0
C4844 C 0.41227 0.75358 0.60961 0.0
C4845 C 0.38819 0.71989 0.62319 0.0
N4846 N 0.40395 0.79415 0.62902 0.0
N4847 N 0.38349 0.73947 0.62945 0.0
H4848 H 0.86427 0.9364 0.12542 0.0
H4849 H 0.869 0.05805 0.15656 0.0
H4850 H 0.90424 0.96645 0.17107 0.0
H4851 H 0.8406 0.0309 0.10156 0.0
H4852 H 0.88347 0.02513 0.16079 0.0
H4853 H 0.85708 0.97043 0.11493 0.0
C4854 C 0.87233 0.95013 0.13259 0.0
C4855 C 0.88572 0.94831 0.14852 0.0
C4856 C 0.87448 0.02638 0.1475 0.0
C4857 C 0.87642 0.98785 0.13744 0.0
C4858 C 0.86636 0.04534 0.14495 0.0
C4859 C 0.85407 0.04764 0.12826 0.0
C4860 C 0.8699 0.00905 0.13362 0.0
C4861 C 0.85052 0.03019 0.11425 0.0
C4862 C 0.86793 0.96966 0.12681 0.0
C4863 C 0.8946 0.96689 0.15809 0.0
N4864 N 0.85815 0.0117 0.11736 0.0
N4865 N 0.88966 0.98569 0.15259 0.0
H4866 H 0.55792 0.15036 0.90958 0.0
H4867 H 0.48447 0.0669 0.84606 0.0
H4868 H 0.57458 0.0896 0.88676 0.0
H4869 H 0.46501 0.12407 0.8757 0.0
H4870 H 0.52039 0.07907 0.85244 0.0
H4871 H 0.52689 0.14488 0.8895 0.0
C4872 C 0.55533 0.13607 0.9 0.0
C4873 C 0.56875 0.12032 0.90012 0.0
C4874 C 0.50834 0.08926 0.85695 0.0
C4875 C 0.53319 0.11385 0.8772 0.0
C4876 C 0.48788 0.08243 0.85296 0.0
C4877 C 0.47186 0.09462 0.86018 0.0
C4878 C 0.51269 0.10834 0.86831 0.0
C4879 C 0.47701 0.11434 0.86973 0.0
C4880 C 0.53755 0.1329 0.8886 0.0
C4881 C 0.56452 0.10208 0.88741 0.0
N4882 N 0.49692 0.12047 0.87381 0.0
N4883 N 0.54704 0.09926 0.87671 0.0
H4884 H 0.57635 0.58935 0.38369 0.0
H4885 H 0.46382 0.62412 0.37565 0.0
H4886 H 0.55701 0.64821 0.40943 0.0
H4887 H 0.48415 0.56685 0.34716 0.0
H4888 H 0.49963 0.63644 0.38151 0.0
H4889 H 0.54506 0.58393 0.36442 0.0
C4890 C 0.56569 0.60136 0.385 0.0
C4891 C 0.56925 0.61919 0.39843 0.0
C4892 C 0.49642 0.62144 0.37338 0.0
C4893 C 0.53306 0.61291 0.37645 0.0
C4894 C 0.47598 0.61452 0.36977 0.0
C4895 C 0.47109 0.59457 0.36065 0.0
C4896 C 0.51211 0.6081 0.36826 0.0
C4897 C 0.48733 0.58248 0.35387 0.0
C4898 C 0.54778 0.59823 0.37395 0.0
C4899 C 0.55493 0.63423 0.39931 0.0
N4900 N 0.50709 0.58927 0.35819 0.0
N4901 N 0.5373 0.63058 0.38878 0.0
H4902 H 0.88277 0.28354 0.10931 0.0
H4903 H 0.81056 0.19011 0.15161 0.0
H4904 H 0.81793 0.28583 0.12587 0.0
H4905 H 0.86096 0.18205 0.1065 0.0
H4906 H 0.82043 0.22718 0.15493 0.0
H4907 H 0.88117 0.2484 0.12058 0.0
C4908 C 0.86835 0.27684 0.11586 0.0
C4909 C 0.85038 0.28736 0.11651 0.0
C4910 C 0.82967 0.21716 0.1448 0.0
C4911 C 0.84857 0.24761 0.12956 0.0
C4912 C 0.82419 0.19598 0.14299 0.0
C4913 C 0.83476 0.18306 0.12845 0.0
C4914 C 0.84599 0.22532 0.13223 0.0
C4915 C 0.85222 0.19156 0.11764 0.0
C4916 C 0.86746 0.25685 0.1222 0.0
C4917 C 0.83205 0.27805 0.12495 0.0
N4918 N 0.85714 0.21227 0.11952 0.0
N4919 N 0.83157 0.25858 0.13104 0.0
H4920 H 0.628 0.80026 0.87981 0.0
H4921 H 0.58881 0.68064 0.87133 0.0
H4922 H 0.57227 0.77556 0.9105 0.0
H4923 H 0.64017 0.70645 0.83463 0.0
H4924 H 0.58729 0.71376 0.89162 0.0
H4925 H 0.63721 0.76512 0.86951 0.0
C4926 C 0.6181 0.78737 0.88512 0.0
C4927 C 0.59951 0.79088 0.89639 0.0
C4928 C 0.59918 0.71214 0.87943 0.0
C4929 C 0.60958 0.75038 0.88387 0.0
C4930 C 0.60017 0.69315 0.86787 0.0
C4931 C 0.61464 0.69067 0.85114 0.0
C4932 C 0.61267 0.72906 0.87427 0.0
C4933 C 0.62889 0.70751 0.84744 0.0
C4934 C 0.62325 0.76728 0.87898 0.0
C4935 C 0.58698 0.7736 0.90231 0.0
N4936 N 0.62734 0.72604 0.85869 0.0
N4937 N 0.5921 0.75412 0.89574 0.0
H4938 H 0.16617 0.47538 0.40481 0.0
H4939 H 0.09964 0.53794 0.33319 0.0
H4940 H 0.13576 0.44776 0.3511 0.0
H4941 H 0.14252 0.56798 0.37613 0.0
H4942 H 0.10679 0.50432 0.34467 0.0
H4943 H 0.15202 0.50846 0.39964 0.0
C4944 C 0.15582 0.47602 0.39244 0.0
C4945 C 0.15165 0.45846 0.37878 0.0
C4946 C 0.11424 0.51826 0.35205 0.0
C4947 C 0.13578 0.49667 0.37231 0.0
C4948 C 0.10985 0.53756 0.34573 0.0
C4949 C 0.11983 0.55603 0.35425 0.0
C4950 C 0.12888 0.51718 0.36702 0.0
C4951 C 0.13387 0.5543 0.36964 0.0
C4952 C 0.14799 0.49504 0.38928 0.0
C4953 C 0.13895 0.46065 0.36238 0.0
N4954 N 0.13797 0.53537 0.37547 0.0
N4955 N 0.13153 0.47923 0.35963 0.0
H4956 H 0.36381 0.3008 0.17312 0.0
H4957 H 0.43117 0.23004 0.09399 0.0
H4958 H 0.41679 0.32409 0.13693 0.0
H4959 H 0.37711 0.20702 0.12861 0.0
H4960 H 0.42247 0.2655 0.10456 0.0
H4961 H 0.36459 0.26753 0.15244 0.0
C4962 C 0.3752 0.29916 0.16044 0.0
C4963 C 0.39031 0.31528 0.15688 0.0
C4964 C 0.41216 0.2527 0.10937 0.0
C4965 C 0.39162 0.27706 0.13335 0.0
C4966 C 0.41699 0.23244 0.10303 0.0
C4967 C 0.40471 0.21556 0.1102 0.0
C4968 C 0.39501 0.25607 0.1231 0.0
C4969 C 0.38688 0.21962 0.12257 0.0
C4970 C 0.37579 0.28007 0.14873 0.0
C4971 C 0.40492 0.31206 0.14039 0.0
N4972 N 0.38273 0.23936 0.12883 0.0
N4973 N 0.40537 0.29334 0.12948 0.0
H4974 H 0.86896 0.55831 0.65762 0.0
H4975 H 0.86624 0.43671 0.62628 0.0
H4976 H 0.84156 0.53087 0.60219 0.0
H4977 H 0.90412 0.4673 0.67343 0.0
H4978 H 0.85899 0.47062 0.61548 0.0
H4979 H 0.88367 0.52561 0.6621 0.0
C4980 C 0.86661 0.54558 0.64596 0.0
C4981 C 0.8545 0.54774 0.62911 0.0
C4982 C 0.8694 0.47 0.62779 0.0
C4983 C 0.87063 0.50937 0.63473 0.0
C4984 C 0.87384 0.45054 0.63375 0.0
C4985 C 0.88665 0.44893 0.65022 0.0
C4986 C 0.87727 0.48828 0.63873 0.0
C4987 C 0.89494 0.46761 0.66009 0.0
C4988 C 0.87486 0.52674 0.64866 0.0
C4989 C 0.85133 0.53027 0.61503 0.0
N4990 N 0.88998 0.4863 0.65438 0.0
N4991 N 0.85909 0.51189 0.61827 0.0
loop_
_geom_bond_atom_site_label_1
_geom_bond_atom_site_label_2
_geom_bond_distance
_geom_bond_site_symmetry_2
_ccdc_geom_bond_type
Co0 H3 2.400 . S
Co0 O4 2.009 . S
Co0 O12 2.115 . S
Co0 O13 2.315 . S
Co0 O24 2.053 . S
Co0 O27 2.094 . S
Co0 O30 2.122 . S
Co1 O4 2.126 . S
Co1 H5 2.388 . S
Co1 O6 2.053 . S
Co1 O9 2.047 . S
Co1 O15 2.113 . S
Co1 O26 2.063 . S
Co2 H3 2.388 . S
Co2 O4 2.053 . S
Co2 O6 2.126 . S
Co2 O11 2.063 . S
Co2 O25 2.047 . S
Co2 O31 2.113 . S
H3 Co0 2.400 . S
H3 Co2 2.388 . S
H3 O4 0.760 . S
O4 Co0 2.009 . S
O4 Co1 2.126 . S
O4 Co2 2.053 . S
O4 H3 0.760 . S
H5 Co1 2.388 . S
H5 O6 0.760 . S
H5 Co7 2.400 . S
O6 Co1 2.053 . S
O6 Co2 2.126 . S
O6 H5 0.760 . S
O6 Co7 2.009 . S
Co7 H5 2.400 . S
Co7 O6 2.009 . S
Co7 O8 2.053 . S
Co7 O10 2.094 . S
Co7 O14 2.122 . S
Co7 O28 2.115 . S
Co7 O29 2.315 . S
O8 Co7 2.053 . S
O8 C20 1.259 . S
O9 Co1 2.047 . S
O9 C20 1.257 . S
O10 Co7 2.094 . S
O10 C21 1.253 . S
O11 Co2 2.063 . S
O11 C21 1.268 . S
O12 Co0 2.115 . S
O12 C22 1.281 . S
O13 Co0 2.315 . S
O13 C22 1.252 . S
O14 Co7 2.122 . S
O14 C23 1.272 . S
O15 Co1 2.113 . S
O15 C23 1.245 . S
C16 O24 1.259 . S
C16 O25 1.257 . S
C17 O26 1.268 . S
C17 O27 1.253 . S
C18 O28 1.281 . S
C18 O29 1.252 . S
C19 O30 1.272 . S
C19 O31 1.245 . S
C20 O8 1.259 . S
C20 O9 1.257 . S
C21 O10 1.253 . S
C21 O11 1.268 . S
C22 O12 1.281 . S
C22 O13 1.252 . S
C23 O14 1.272 . S
C23 O15 1.245 . S
O24 Co0 2.053 . S
O24 C16 1.259 . S
O25 Co2 2.047 . S
O25 C16 1.257 . S
O26 Co1 2.063 . S
O26 C17 1.268 . S
O27 Co0 2.094 . S
O27 C17 1.253 . S
O28 Co7 2.115 . S
O28 C18 1.281 . S
O29 Co7 2.315 . S
O29 C18 1.252 . S
O30 Co0 2.122 . S
O30 C19 1.272 . S
O31 Co2 2.113 . S
O31 C19 1.245 . S
Co32 H35 2.400 . S
Co32 O36 2.009 . S
Co32 O44 2.115 . S
Co32 O45 2.315 . S
Co32 O56 2.053 . S
Co32 O59 2.094 . S
Co32 O62 2.122 . S
Co33 O36 2.126 . S
Co33 H37 2.388 . S
Co33 O38 2.053 . S
Co33 O41 2.047 . S
Co33 O47 2.113 . S
Co33 O58 2.063 . S
Co34 H35 2.388 . S
Co34 O36 2.053 . S
Co34 O38 2.126 . S
Co34 O43 2.063 . S
Co34 O57 2.047 . S
Co34 O63 2.113 . S
H35 Co32 2.400 . S
H35 Co34 2.388 . S
H35 O36 0.760 . S
O36 Co32 2.009 . S
O36 Co33 2.126 . S
O36 Co34 2.053 . S
O36 H35 0.760 . S
H37 Co33 2.388 . S
H37 O38 0.760 . S
H37 Co39 2.400 . S
O38 Co33 2.053 . S
O38 Co34 2.126 . S
O38 H37 0.760 . S
O38 Co39 2.009 . S
Co39 H37 2.400 . S
Co39 O38 2.009 . S
Co39 O40 2.053 . S
Co39 O42 2.094 . S
Co39 O46 2.122 . S
Co39 O60 2.115 . S
Co39 O61 2.315 . S
O40 Co39 2.053 . S
O40 C52 1.259 . S
O41 Co33 2.047 . S
O41 C52 1.257 . S
O42 Co39 2.094 . S
O42 C53 1.253 . S
O43 Co34 2.063 . S
O43 C53 1.268 . S
O44 Co32 2.115 . S
O44 C54 1.281 . S
O45 Co32 2.315 . S
O45 C54 1.252 . S
O46 Co39 2.122 . S
O46 C55 1.272 . S
O47 Co33 2.113 . S
O47 C55 1.245 . S
C48 O56 1.259 . S
C48 O57 1.257 . S
C49 O58 1.268 . S
C49 O59 1.253 . S
C50 O60 1.281 . S
C50 O61 1.252 . S
C51 O62 1.272 . S
C51 O63 1.245 . S
C52 O40 1.259 . S
C52 O41 1.257 . S
C53 O42 1.253 . S
C53 O43 1.268 . S
C54 O44 1.281 . S
C54 O45 1.252 . S
C55 O46 1.272 . S
C55 O47 1.245 . S
O56 Co32 2.053 . S
O56 C48 1.259 . S
O57 Co34 2.047 . S
O57 C48 1.257 . S
O58 Co33 2.063 . S
O58 C49 1.268 . S
O59 Co32 2.094 . S
O59 C49 1.253 . S
O60 Co39 2.115 . S
O60 C50 1.281 . S
O61 Co39 2.315 . S
O61 C50 1.252 . S
O62 Co32 2.122 . S
O62 C51 1.272 . S
O63 Co34 2.113 . S
O63 C51 1.245 . S
Co64 H67 2.400 . S
Co64 O68 2.009 . S
Co64 O76 2.115 . S
Co64 O77 2.315 . S
Co64 O88 2.053 . S
Co64 O91 2.094 . S
Co64 O94 2.122 . S
Co65 O68 2.126 . S
Co65 H69 2.388 . S
Co65 O70 2.053 . S
Co65 O73 2.047 . S
Co65 O79 2.113 . S
Co65 O90 2.063 . S
Co66 H67 2.388 . S
Co66 O68 2.053 . S
Co66 O70 2.126 . S
Co66 O75 2.063 . S
Co66 O89 2.047 . S
Co66 O95 2.113 . S
H67 Co64 2.400 . S
H67 Co66 2.388 . S
H67 O68 0.760 . S
O68 Co64 2.009 . S
O68 Co65 2.126 . S
O68 Co66 2.053 . S
O68 H67 0.760 . S
H69 Co65 2.388 . S
H69 O70 0.760 . S
H69 Co71 2.400 . S
O70 Co65 2.053 . S
O70 Co66 2.126 . S
O70 H69 0.760 . S
O70 Co71 2.009 . S
Co71 H69 2.400 . S
Co71 O70 2.009 . S
Co71 O72 2.053 . S
Co71 O74 2.094 . S
Co71 O78 2.122 . S
Co71 O92 2.115 . S
Co71 O93 2.315 . S
O72 Co71 2.053 . S
O72 C84 1.259 . S
O73 Co65 2.047 . S
O73 C84 1.257 . S
O74 Co71 2.094 . S
O74 C85 1.253 . S
O75 Co66 2.063 . S
O75 C85 1.268 . S
O76 Co64 2.115 . S
O76 C86 1.281 . S
O77 Co64 2.315 . S
O77 C86 1.252 . S
O78 Co71 2.122 . S
O78 C87 1.272 . S
O79 Co65 2.113 . S
O79 C87 1.245 . S
C80 O88 1.259 . S
C80 O89 1.257 . S
C81 O90 1.268 . S
C81 O91 1.253 . S
C82 O92 1.281 . S
C82 O93 1.252 . S
C83 O94 1.272 . S
C83 O95 1.245 . S
C84 O72 1.259 . S
C84 O73 1.257 . S
C85 O74 1.253 . S
C85 O75 1.268 . S
C86 O76 1.281 . S
C86 O77 1.252 . S
C87 O78 1.272 . S
C87 O79 1.245 . S
O88 Co64 2.053 . S
O88 C80 1.259 . S
O89 Co66 2.047 . S
O89 C80 1.257 . S
O90 Co65 2.063 . S
O90 C81 1.268 . S
O91 Co64 2.094 . S
O91 C81 1.253 . S
O92 Co71 2.115 . S
O92 C82 1.281 . S
O93 Co71 2.315 . S
O93 C82 1.252 . S
O94 Co64 2.122 . S
O94 C83 1.272 . S
O95 Co66 2.113 . S
O95 C83 1.245 . S
Co96 H99 2.400 . S
Co96 O100 2.009 . S
Co96 O108 2.115 . S
Co96 O109 2.315 . S
Co96 O120 2.053 . S
Co96 O123 2.094 . S
Co96 O126 2.122 . S
Co97 O100 2.126 . S
Co97 H101 2.388 . S
Co97 O102 2.053 . S
Co97 O105 2.047 . S
Co97 O111 2.113 . S
Co97 O122 2.063 . S
Co98 H99 2.388 . S
Co98 O100 2.053 . S
Co98 O102 2.126 . S
Co98 O107 2.063 . S
Co98 O121 2.047 . S
Co98 O127 2.113 . S
H99 Co96 2.400 . S
H99 Co98 2.388 . S
H99 O100 0.760 . S
O100 Co96 2.009 . S
O100 Co97 2.126 . S
O100 Co98 2.053 . S
O100 H99 0.760 . S
H101 Co97 2.388 . S
H101 O102 0.760 . S
H101 Co103 2.400 . S
O102 Co97 2.053 . S
O102 Co98 2.126 . S
O102 H101 0.760 . S
O102 Co103 2.009 . S
Co103 H101 2.400 . S
Co103 O102 2.009 . S
Co103 O104 2.053 . S
Co103 O106 2.094 . S
Co103 O110 2.122 . S
Co103 O124 2.115 . S
Co103 O125 2.315 . S
O104 Co103 2.053 . S
O104 C116 1.259 . S
O105 Co97 2.047 . S
O105 C116 1.257 . S
O106 Co103 2.094 . S
O106 C117 1.253 . S
O107 Co98 2.063 . S
O107 C117 1.268 . S
O108 Co96 2.115 . S
O108 C118 1.281 . S
O109 Co96 2.315 . S
O109 C118 1.252 . S
O110 Co103 2.122 . S
O110 C119 1.272 . S
O111 Co97 2.113 . S
O111 C119 1.245 . S
C112 O120 1.259 . S
C112 O121 1.257 . S
C113 O122 1.268 . S
C113 O123 1.253 . S
C114 O124 1.281 . S
C114 O125 1.252 . S
C115 O126 1.272 . S
C115 O127 1.245 . S
C116 O104 1.259 . S
C116 O105 1.257 . S
C117 O106 1.253 . S
C117 O107 1.268 . S
C118 O108 1.281 . S
C118 O109 1.252 . S
C119 O110 1.272 . S
C119 O111 1.245 . S
O120 Co96 2.053 . S
O120 C112 1.259 . S
O121 Co98 2.047 . S
O121 C112 1.257 . S
O122 Co97 2.063 . S
O122 C113 1.268 . S
O123 Co96 2.094 . S
O123 C113 1.253 . S
O124 Co103 2.115 . S
O124 C114 1.281 . S
O125 Co103 2.315 . S
O125 C114 1.252 . S
O126 Co96 2.122 . S
O126 C115 1.272 . S
O127 Co98 2.113 . S
O127 C115 1.245 . S
Co128 H131 2.400 . S
Co128 O132 2.009 . S
Co128 O140 2.115 . S
Co128 O141 2.315 . S
Co128 O152 2.053 . S
Co128 O155 2.094 . S
Co128 O158 2.122 . S
Co129 O132 2.126 . S
Co129 H133 2.388 . S
Co129 O134 2.053 . S
Co129 O137 2.047 . S
Co129 O143 2.113 . S
Co129 O154 2.063 . S
Co130 H131 2.388 . S
Co130 O132 2.053 . S
Co130 O134 2.126 . S
Co130 O139 2.063 . S
Co130 O153 2.047 . S
Co130 O159 2.113 . S
H131 Co128 2.400 . S
H131 Co130 2.388 . S
H131 O132 0.760 . S
O132 Co128 2.009 . S
O132 Co129 2.126 . S
O132 Co130 2.053 . S
O132 H131 0.760 . S
H133 Co129 2.388 . S
H133 O134 0.760 . S
H133 Co135 2.400 . S
O134 Co129 2.053 . S
O134 Co130 2.126 . S
O134 H133 0.760 . S
O134 Co135 2.009 . S
Co135 H133 2.400 . S
Co135 O134 2.009 . S
Co135 O136 2.053 . S
Co135 O138 2.094 . S
Co135 O142 2.122 . S
Co135 O156 2.115 . S
Co135 O157 2.315 . S
O136 Co135 2.053 . S
O136 C148 1.259 . S
O137 Co129 2.047 . S
O137 C148 1.257 . S
O138 Co135 2.094 . S
O138 C149 1.253 . S
O139 Co130 2.063 . S
O139 C149 1.268 . S
O140 Co128 2.115 . S
O140 C150 1.281 . S
O141 Co128 2.315 . S
O141 C150 1.252 . S
O142 Co135 2.122 . S
O142 C151 1.272 . S
O143 Co129 2.113 . S
O143 C151 1.245 . S
C144 O152 1.259 . S
C144 O153 1.257 . S
C145 O154 1.268 . S
C145 O155 1.253 . S
C146 O156 1.281 . S
C146 O157 1.252 . S
C147 O158 1.272 . S
C147 O159 1.245 . S
C148 O136 1.259 . S
C148 O137 1.257 . S
C149 O138 1.253 . S
C149 O139 1.268 . S
C150 O140 1.281 . S
C150 O141 1.252 . S
C151 O142 1.272 . S
C151 O143 1.245 . S
O152 Co128 2.053 . S
O152 C144 1.259 . S
O153 Co130 2.047 . S
O153 C144 1.257 . S
O154 Co129 2.063 . S
O154 C145 1.268 . S
O155 Co128 2.094 . S
O155 C145 1.253 . S
O156 Co135 2.115 . S
O156 C146 1.281 . S
O157 Co135 2.315 . S
O157 C146 1.252 . S
O158 Co128 2.122 . S
O158 C147 1.272 . S
O159 Co130 2.113 . S
O159 C147 1.245 . S
Co160 H163 2.400 . S
Co160 O164 2.009 . S
Co160 O172 2.115 . S
Co160 O173 2.315 . S
Co160 O184 2.053 . S
Co160 O187 2.094 . S
Co160 O190 2.122 . S
Co161 O164 2.126 . S
Co161 H165 2.388 . S
Co161 O166 2.053 . S
Co161 O169 2.047 . S
Co161 O175 2.113 . S
Co161 O186 2.063 . S
Co162 H163 2.388 . S
Co162 O164 2.053 . S
Co162 O166 2.126 . S
Co162 O171 2.063 . S
Co162 O185 2.047 . S
Co162 O191 2.113 . S
H163 Co160 2.400 . S
H163 Co162 2.388 . S
H163 O164 0.760 . S
O164 Co160 2.009 . S
O164 Co161 2.126 . S
O164 Co162 2.053 . S
O164 H163 0.760 . S
H165 Co161 2.388 . S
H165 O166 0.760 . S
H165 Co167 2.400 . S
O166 Co161 2.053 . S
O166 Co162 2.126 . S
O166 H165 0.760 . S
O166 Co167 2.009 . S
Co167 H165 2.400 . S
Co167 O166 2.009 . S
Co167 O168 2.053 . S
Co167 O170 2.094 . S
Co167 O174 2.122 . S
Co167 O188 2.115 . S
Co167 O189 2.315 . S
O168 Co167 2.053 . S
O168 C180 1.259 . S
O169 Co161 2.047 . S
O169 C180 1.257 . S
O170 Co167 2.094 . S
O170 C181 1.253 . S
O171 Co162 2.063 . S
O171 C181 1.268 . S
O172 Co160 2.115 . S
O172 C182 1.281 . S
O173 Co160 2.315 . S
O173 C182 1.252 . S
O174 Co167 2.122 . S
O174 C183 1.272 . S
O175 Co161 2.113 . S
O175 C183 1.245 . S
C176 O184 1.259 . S
C176 O185 1.257 . S
C177 O186 1.268 . S
C177 O187 1.253 . S
C178 O188 1.281 . S
C178 O189 1.252 . S
C179 O190 1.272 . S
C179 O191 1.245 . S
C180 O168 1.259 . S
C180 O169 1.257 . S
C181 O170 1.253 . S
C181 O171 1.268 . S
C182 O172 1.281 . S
C182 O173 1.252 . S
C183 O174 1.272 . S
C183 O175 1.245 . S
O184 Co160 2.053 . S
O184 C176 1.259 . S
O185 Co162 2.047 . S
O185 C176 1.257 . S
O186 Co161 2.063 . S
O186 C177 1.268 . S
O187 Co160 2.094 . S
O187 C177 1.253 . S
O188 Co167 2.115 . S
O188 C178 1.281 . S
O189 Co167 2.315 . S
O189 C178 1.252 . S
O190 Co160 2.122 . S
O190 C179 1.272 . S
O191 Co162 2.113 . S
O191 C179 1.245 . S
Co192 H195 2.400 . S
Co192 O196 2.009 . S
Co192 O204 2.115 . S
Co192 O205 2.315 . S
Co192 O216 2.053 . S
Co192 O219 2.094 . S
Co192 O222 2.122 . S
Co193 O196 2.126 . S
Co193 H197 2.388 . S
Co193 O198 2.053 . S
Co193 O201 2.047 . S
Co193 O207 2.113 . S
Co193 O218 2.063 . S
Co194 H195 2.388 . S
Co194 O196 2.053 . S
Co194 O198 2.126 . S
Co194 O203 2.063 . S
Co194 O217 2.047 . S
Co194 O223 2.113 . S
H195 Co192 2.400 . S
H195 Co194 2.388 . S
H195 O196 0.760 . S
O196 Co192 2.009 . S
O196 Co193 2.126 . S
O196 Co194 2.053 . S
O196 H195 0.760 . S
H197 Co193 2.388 . S
H197 O198 0.760 . S
H197 Co199 2.400 . S
O198 Co193 2.053 . S
O198 Co194 2.126 . S
O198 H197 0.760 . S
O198 Co199 2.009 . S
Co199 H197 2.400 . S
Co199 O198 2.009 . S
Co199 O200 2.053 . S
Co199 O202 2.094 . S
Co199 O206 2.122 . S
Co199 O220 2.115 . S
Co199 O221 2.315 . S
O200 Co199 2.053 . S
O200 C212 1.259 . S
O201 Co193 2.047 . S
O201 C212 1.257 . S
O202 Co199 2.094 . S
O202 C213 1.253 . S
O203 Co194 2.063 . S
O203 C213 1.268 . S
O204 Co192 2.115 . S
O204 C214 1.281 . S
O205 Co192 2.315 . S
O205 C214 1.252 . S
O206 Co199 2.122 . S
O206 C215 1.272 . S
O207 Co193 2.113 . S
O207 C215 1.245 . S
C208 O216 1.259 . S
C208 O217 1.257 . S
C209 O218 1.268 . S
C209 O219 1.253 . S
C210 O220 1.281 . S
C210 O221 1.252 . S
C211 O222 1.272 . S
C211 O223 1.245 . S
C212 O200 1.259 . S
C212 O201 1.257 . S
C213 O202 1.253 . S
C213 O203 1.268 . S
C214 O204 1.281 . S
C214 O205 1.252 . S
C215 O206 1.272 . S
C215 O207 1.245 . S
O216 Co192 2.053 . S
O216 C208 1.259 . S
O217 Co194 2.047 . S
O217 C208 1.257 . S
O218 Co193 2.063 . S
O218 C209 1.268 . S
O219 Co192 2.094 . S
O219 C209 1.253 . S
O220 Co199 2.115 . S
O220 C210 1.281 . S
O221 Co199 2.315 . S
O221 C210 1.252 . S
O222 Co192 2.122 . S
O222 C211 1.272 . S
O223 Co194 2.113 . S
O223 C211 1.245 . S
Co224 H227 2.400 . S
Co224 O228 2.009 . S
Co224 O236 2.115 . S
Co224 O237 2.315 . S
Co224 O248 2.053 . S
Co224 O251 2.094 . S
Co224 O254 2.122 . S
Co225 O228 2.126 . S
Co225 H229 2.388 . S
Co225 O230 2.053 . S
Co225 O233 2.047 . S
Co225 O239 2.113 . S
Co225 O250 2.063 . S
Co226 H227 2.388 . S
Co226 O228 2.053 . S
Co226 O230 2.126 . S
Co226 O235 2.063 . S
Co226 O249 2.047 . S
Co226 O255 2.113 . S
H227 Co224 2.400 . S
H227 Co226 2.388 . S
H227 O228 0.760 . S
O228 Co224 2.009 . S
O228 Co225 2.126 . S
O228 Co226 2.053 . S
O228 H227 0.760 . S
H229 Co225 2.388 . S
H229 O230 0.760 . S
H229 Co231 2.400 . S
O230 Co225 2.053 . S
O230 Co226 2.126 . S
O230 H229 0.760 . S
O230 Co231 2.009 . S
Co231 H229 2.400 . S
Co231 O230 2.009 . S
Co231 O232 2.053 . S
Co231 O234 2.094 . S
Co231 O238 2.122 . S
Co231 O252 2.115 . S
Co231 O253 2.315 . S
O232 Co231 2.053 . S
O232 C244 1.259 . S
O233 Co225 2.047 . S
O233 C244 1.257 . S
O234 Co231 2.094 . S
O234 C245 1.253 . S
O235 Co226 2.063 . S
O235 C245 1.268 . S
O236 Co224 2.115 . S
O236 C246 1.281 . S
O237 Co224 2.315 . S
O237 C246 1.252 . S
O238 Co231 2.122 . S
O238 C247 1.272 . S
O239 Co225 2.113 . S
O239 C247 1.245 . S
C240 O248 1.259 . S
C240 O249 1.257 . S
C241 O250 1.268 . S
C241 O251 1.253 . S
C242 O252 1.281 . S
C242 O253 1.252 . S
C243 O254 1.272 . S
C243 O255 1.245 . S
C244 O232 1.259 . S
C244 O233 1.257 . S
C245 O234 1.253 . S
C245 O235 1.268 . S
C246 O236 1.281 . S
C246 O237 1.252 . S
C247 O238 1.272 . S
C247 O239 1.245 . S
O248 Co224 2.053 . S
O248 C240 1.259 . S
O249 Co226 2.047 . S
O249 C240 1.257 . S
O250 Co225 2.063 . S
O250 C241 1.268 . S
O251 Co224 2.094 . S
O251 C241 1.253 . S
O252 Co231 2.115 . S
O252 C242 1.281 . S
O253 Co231 2.315 . S
O253 C242 1.252 . S
O254 Co224 2.122 . S
O254 C243 1.272 . S
O255 Co226 2.113 . S
O255 C243 1.245 . S
Co256 H259 2.400 . S
Co256 O260 2.009 . S
Co256 O268 2.115 . S
Co256 O269 2.315 . S
Co256 O280 2.053 . S
Co256 O283 2.094 . S
Co256 O286 2.122 . S
Co257 O260 2.126 . S
Co257 H261 2.388 . S
Co257 O262 2.053 . S
Co257 O265 2.047 . S
Co257 O271 2.113 . S
Co257 O282 2.063 . S
Co258 H259 2.388 . S
Co258 O260 2.053 . S
Co258 O262 2.126 . S
Co258 O267 2.063 . S
Co258 O281 2.047 . S
Co258 O287 2.113 . S
H259 Co256 2.400 . S
H259 Co258 2.388 . S
H259 O260 0.760 . S
O260 Co256 2.009 . S
O260 Co257 2.126 . S
O260 Co258 2.053 . S
O260 H259 0.760 . S
H261 Co257 2.388 . S
H261 O262 0.760 . S
H261 Co263 2.400 . S
O262 Co257 2.053 . S
O262 Co258 2.126 . S
O262 H261 0.760 . S
O262 Co263 2.009 . S
Co263 H261 2.400 . S
Co263 O262 2.009 . S
Co263 O264 2.053 . S
Co263 O266 2.094 . S
Co263 O270 2.122 . S
Co263 O284 2.115 . S
Co263 O285 2.315 . S
O264 Co263 2.053 . S
O264 C276 1.259 . S
O265 Co257 2.047 . S
O265 C276 1.257 . S
O266 Co263 2.094 . S
O266 C277 1.253 . S
O267 Co258 2.063 . S
O267 C277 1.268 . S
O268 Co256 2.115 . S
O268 C278 1.281 . S
O269 Co256 2.315 . S
O269 C278 1.252 . S
O270 Co263 2.122 . S
O270 C279 1.272 . S
O271 Co257 2.113 . S
O271 C279 1.245 . S
C272 O280 1.259 . S
C272 O281 1.257 . S
C273 O282 1.268 . S
C273 O283 1.253 . S
C274 O284 1.281 . S
C274 O285 1.252 . S
C275 O286 1.272 . S
C275 O287 1.245 . S
C276 O264 1.259 . S
C276 O265 1.257 . S
C277 O266 1.253 . S
C277 O267 1.268 . S
C278 O268 1.281 . S
C278 O269 1.252 . S
C279 O270 1.272 . S
C279 O271 1.245 . S
O280 Co256 2.053 . S
O280 C272 1.259 . S
O281 Co258 2.047 . S
O281 C272 1.257 . S
O282 Co257 2.063 . S
O282 C273 1.268 . S
O283 Co256 2.094 . S
O283 C273 1.253 . S
O284 Co263 2.115 . S
O284 C274 1.281 . S
O285 Co263 2.315 . S
O285 C274 1.252 . S
O286 Co256 2.122 . S
O286 C275 1.272 . S
O287 Co258 2.113 . S
O287 C275 1.245 . S
Co288 H291 2.400 . S
Co288 O292 2.009 . S
Co288 O300 2.115 . S
Co288 O301 2.315 . S
Co288 O312 2.053 . S
Co288 O315 2.094 . S
Co288 O318 2.122 . S
Co289 O292 2.126 . S
Co289 H293 2.388 . S
Co289 O294 2.053 . S
Co289 O297 2.047 . S
Co289 O303 2.113 . S
Co289 O314 2.063 . S
Co290 H291 2.388 . S
Co290 O292 2.053 . S
Co290 O294 2.126 . S
Co290 O299 2.063 . S
Co290 O313 2.047 . S
Co290 O319 2.113 . S
H291 Co288 2.400 . S
H291 Co290 2.388 . S
H291 O292 0.760 . S
O292 Co288 2.009 . S
O292 Co289 2.126 . S
O292 Co290 2.053 . S
O292 H291 0.760 . S
H293 Co289 2.388 . S
H293 O294 0.760 . S
H293 Co295 2.400 . S
O294 Co289 2.053 . S
O294 Co290 2.126 . S
O294 H293 0.760 . S
O294 Co295 2.009 . S
Co295 H293 2.400 . S
Co295 O294 2.009 . S
Co295 O296 2.053 . S
Co295 O298 2.094 . S
Co295 O302 2.122 . S
Co295 O316 2.115 . S
Co295 O317 2.315 . S
O296 Co295 2.053 . S
O296 C308 1.259 . S
O297 Co289 2.047 . S
O297 C308 1.257 . S
O298 Co295 2.094 . S
O298 C309 1.253 . S
O299 Co290 2.063 . S
O299 C309 1.268 . S
O300 Co288 2.115 . S
O300 C310 1.281 . S
O301 Co288 2.315 . S
O301 C310 1.252 . S
O302 Co295 2.122 . S
O302 C311 1.272 . S
O303 Co289 2.113 . S
O303 C311 1.245 . S
C304 O312 1.259 . S
C304 O313 1.257 . S
C305 O314 1.268 . S
C305 O315 1.253 . S
C306 O316 1.281 . S
C306 O317 1.252 . S
C307 O318 1.272 . S
C307 O319 1.245 . S
C308 O296 1.259 . S
C308 O297 1.257 . S
C309 O298 1.253 . S
C309 O299 1.268 . S
C310 O300 1.281 . S
C310 O301 1.252 . S
C311 O302 1.272 . S
C311 O303 1.245 . S
O312 Co288 2.053 . S
O312 C304 1.259 . S
O313 Co290 2.047 . S
O313 C304 1.257 . S
O314 Co289 2.063 . S
O314 C305 1.268 . S
O315 Co288 2.094 . S
O315 C305 1.253 . S
O316 Co295 2.115 . S
O316 C306 1.281 . S
O317 Co295 2.315 . S
O317 C306 1.252 . S
O318 Co288 2.122 . S
O318 C307 1.272 . S
O319 Co290 2.113 . S
O319 C307 1.245 . S
Co320 H323 2.400 . S
Co320 O324 2.009 . S
Co320 O332 2.115 . S
Co320 O333 2.315 . S
Co320 O344 2.053 . S
Co320 O347 2.094 . S
Co320 O350 2.122 . S
Co321 O324 2.126 . S
Co321 H325 2.388 . S
Co321 O326 2.053 . S
Co321 O329 2.047 . S
Co321 O335 2.113 . S
Co321 O346 2.063 . S
Co322 H323 2.388 . S
Co322 O324 2.053 . S
Co322 O326 2.126 . S
Co322 O331 2.063 . S
Co322 O345 2.047 . S
Co322 O351 2.113 . S
H323 Co320 2.400 . S
H323 Co322 2.388 . S
H323 O324 0.760 . S
O324 Co320 2.009 . S
O324 Co321 2.126 . S
O324 Co322 2.053 . S
O324 H323 0.760 . S
H325 Co321 2.388 . S
H325 O326 0.760 . S
H325 Co327 2.400 . S
O326 Co321 2.053 . S
O326 Co322 2.126 . S
O326 H325 0.760 . S
O326 Co327 2.009 . S
Co327 H325 2.400 . S
Co327 O326 2.009 . S
Co327 O328 2.053 . S
Co327 O330 2.094 . S
Co327 O334 2.122 . S
Co327 O348 2.115 . S
Co327 O349 2.315 . S
O328 Co327 2.053 . S
O328 C340 1.259 . S
O329 Co321 2.047 . S
O329 C340 1.257 . S
O330 Co327 2.094 . S
O330 C341 1.253 . S
O331 Co322 2.063 . S
O331 C341 1.268 . S
O332 Co320 2.115 . S
O332 C342 1.281 . S
O333 Co320 2.315 . S
O333 C342 1.252 . S
O334 Co327 2.122 . S
O334 C343 1.272 . S
O335 Co321 2.113 . S
O335 C343 1.245 . S
C336 O344 1.259 . S
C336 O345 1.257 . S
C337 O346 1.268 . S
C337 O347 1.253 . S
C338 O348 1.281 . S
C338 O349 1.252 . S
C339 O350 1.272 . S
C339 O351 1.245 . S
C340 O328 1.259 . S
C340 O329 1.257 . S
C341 O330 1.253 . S
C341 O331 1.268 . S
C342 O332 1.281 . S
C342 O333 1.252 . S
C343 O334 1.272 . S
C343 O335 1.245 . S
O344 Co320 2.053 . S
O344 C336 1.259 . S
O345 Co322 2.047 . S
O345 C336 1.257 . S
O346 Co321 2.063 . S
O346 C337 1.268 . S
O347 Co320 2.094 . S
O347 C337 1.253 . S
O348 Co327 2.115 . S
O348 C338 1.281 . S
O349 Co327 2.315 . S
O349 C338 1.252 . S
O350 Co320 2.122 . S
O350 C339 1.272 . S
O351 Co322 2.113 . S
O351 C339 1.245 . S
Co352 H355 2.400 . S
Co352 O356 2.009 . S
Co352 O364 2.115 . S
Co352 O365 2.315 . S
Co352 O376 2.053 . S
Co352 O379 2.094 . S
Co352 O382 2.122 . S
Co353 O356 2.126 . S
Co353 H357 2.388 . S
Co353 O358 2.053 . S
Co353 O361 2.047 . S
Co353 O367 2.113 . S
Co353 O378 2.063 . S
Co354 H355 2.388 . S
Co354 O356 2.053 . S
Co354 O358 2.126 . S
Co354 O363 2.063 . S
Co354 O377 2.047 . S
Co354 O383 2.113 . S
H355 Co352 2.400 . S
H355 Co354 2.388 . S
H355 O356 0.760 . S
O356 Co352 2.009 . S
O356 Co353 2.126 . S
O356 Co354 2.053 . S
O356 H355 0.760 . S
H357 Co353 2.388 . S
H357 O358 0.760 . S
H357 Co359 2.400 . S
O358 Co353 2.053 . S
O358 Co354 2.126 . S
O358 H357 0.760 . S
O358 Co359 2.009 . S
Co359 H357 2.400 . S
Co359 O358 2.009 . S
Co359 O360 2.053 . S
Co359 O362 2.094 . S
Co359 O366 2.122 . S
Co359 O380 2.115 . S
Co359 O381 2.315 . S
O360 Co359 2.053 . S
O360 C372 1.259 . S
O361 Co353 2.047 . S
O361 C372 1.257 . S
O362 Co359 2.094 . S
O362 C373 1.253 . S
O363 Co354 2.063 . S
O363 C373 1.268 . S
O364 Co352 2.115 . S
O364 C374 1.281 . S
O365 Co352 2.315 . S
O365 C374 1.252 . S
O366 Co359 2.122 . S
O366 C375 1.272 . S
O367 Co353 2.113 . S
O367 C375 1.245 . S
C368 O376 1.259 . S
C368 O377 1.257 . S
C369 O378 1.268 . S
C369 O379 1.253 . S
C370 O380 1.281 . S
C370 O381 1.252 . S
C371 O382 1.272 . S
C371 O383 1.245 . S
C372 O360 1.259 . S
C372 O361 1.257 . S
C373 O362 1.253 . S
C373 O363 1.268 . S
C374 O364 1.281 . S
C374 O365 1.252 . S
C375 O366 1.272 . S
C375 O367 1.245 . S
O376 Co352 2.053 . S
O376 C368 1.259 . S
O377 Co354 2.047 . S
O377 C368 1.257 . S
O378 Co353 2.063 . S
O378 C369 1.268 . S
O379 Co352 2.094 . S
O379 C369 1.253 . S
O380 Co359 2.115 . S
O380 C370 1.281 . S
O381 Co359 2.315 . S
O381 C370 1.252 . S
O382 Co352 2.122 . S
O382 C371 1.272 . S
O383 Co354 2.113 . S
O383 C371 1.245 . S
Co384 H387 2.400 . S
Co384 O388 2.009 . S
Co384 O396 2.115 . S
Co384 O397 2.315 . S
Co384 O408 2.053 . S
Co384 O411 2.094 . S
Co384 O414 2.122 . S
Co385 O388 2.126 . S
Co385 H389 2.388 . S
Co385 O390 2.053 . S
Co385 O393 2.047 . S
Co385 O399 2.113 . S
Co385 O410 2.063 . S
Co386 H387 2.388 . S
Co386 O388 2.053 . S
Co386 O390 2.126 . S
Co386 O395 2.063 . S
Co386 O409 2.047 . S
Co386 O415 2.113 . S
H387 Co384 2.400 . S
H387 Co386 2.388 . S
H387 O388 0.760 . S
O388 Co384 2.009 . S
O388 Co385 2.126 . S
O388 Co386 2.053 . S
O388 H387 0.760 . S
H389 Co385 2.388 . S
H389 O390 0.760 . S
H389 Co391 2.400 . S
O390 Co385 2.053 . S
O390 Co386 2.126 . S
O390 H389 0.760 . S
O390 Co391 2.009 . S
Co391 H389 2.400 . S
Co391 O390 2.009 . S
Co391 O392 2.053 . S
Co391 O394 2.094 . S
Co391 O398 2.122 . S
Co391 O412 2.115 . S
Co391 O413 2.315 . S
O392 Co391 2.053 . S
O392 C404 1.259 . S
O393 Co385 2.047 . S
O393 C404 1.257 . S
O394 Co391 2.094 . S
O394 C405 1.253 . S
O395 Co386 2.063 . S
O395 C405 1.268 . S
O396 Co384 2.115 . S
O396 C406 1.281 . S
O397 Co384 2.315 . S
O397 C406 1.252 . S
O398 Co391 2.122 . S
O398 C407 1.272 . S
O399 Co385 2.113 . S
O399 C407 1.245 . S
C400 O408 1.259 . S
C400 O409 1.257 . S
C401 O410 1.268 . S
C401 O411 1.253 . S
C402 O412 1.281 . S
C402 O413 1.252 . S
C403 O414 1.272 . S
C403 O415 1.245 . S
C404 O392 1.259 . S
C404 O393 1.257 . S
C405 O394 1.253 . S
C405 O395 1.268 . S
C406 O396 1.281 . S
C406 O397 1.252 . S
C407 O398 1.272 . S
C407 O399 1.245 . S
O408 Co384 2.053 . S
O408 C400 1.259 . S
O409 Co386 2.047 . S
O409 C400 1.257 . S
O410 Co385 2.063 . S
O410 C401 1.268 . S
O411 Co384 2.094 . S
O411 C401 1.253 . S
O412 Co391 2.115 . S
O412 C402 1.281 . S
O413 Co391 2.315 . S
O413 C402 1.252 . S
O414 Co384 2.122 . S
O414 C403 1.272 . S
O415 Co386 2.113 . S
O415 C403 1.245 . S
Co416 H419 2.400 . S
Co416 O420 2.009 . S
Co416 O428 2.115 . S
Co416 O429 2.315 . S
Co416 O440 2.053 . S
Co416 O443 2.094 . S
Co416 O446 2.122 . S
Co417 O420 2.126 . S
Co417 H421 2.388 . S
Co417 O422 2.053 . S
Co417 O425 2.047 . S
Co417 O431 2.113 . S
Co417 O442 2.063 . S
Co418 H419 2.388 . S
Co418 O420 2.053 . S
Co418 O422 2.126 . S
Co418 O427 2.063 . S
Co418 O441 2.047 . S
Co418 O447 2.113 . S
H419 Co416 2.400 . S
H419 Co418 2.388 . S
H419 O420 0.760 . S
O420 Co416 2.009 . S
O420 Co417 2.126 . S
O420 Co418 2.053 . S
O420 H419 0.760 . S
H421 Co417 2.388 . S
H421 O422 0.760 . S
H421 Co423 2.400 . S
O422 Co417 2.053 . S
O422 Co418 2.126 . S
O422 H421 0.760 . S
O422 Co423 2.009 . S
Co423 H421 2.400 . S
Co423 O422 2.009 . S
Co423 O424 2.053 . S
Co423 O426 2.094 . S
Co423 O430 2.122 . S
Co423 O444 2.115 . S
Co423 O445 2.315 . S
O424 Co423 2.053 . S
O424 C436 1.259 . S
O425 Co417 2.047 . S
O425 C436 1.257 . S
O426 Co423 2.094 . S
O426 C437 1.253 . S
O427 Co418 2.063 . S
O427 C437 1.268 . S
O428 Co416 2.115 . S
O428 C438 1.281 . S
O429 Co416 2.315 . S
O429 C438 1.252 . S
O430 Co423 2.122 . S
O430 C439 1.272 . S
O431 Co417 2.113 . S
O431 C439 1.245 . S
C432 O440 1.259 . S
C432 O441 1.257 . S
C433 O442 1.268 . S
C433 O443 1.253 . S
C434 O444 1.281 . S
C434 O445 1.252 . S
C435 O446 1.272 . S
C435 O447 1.245 . S
C436 O424 1.259 . S
C436 O425 1.257 . S
C437 O426 1.253 . S
C437 O427 1.268 . S
C438 O428 1.281 . S
C438 O429 1.252 . S
C439 O430 1.272 . S
C439 O431 1.245 . S
O440 Co416 2.053 . S
O440 C432 1.259 . S
O441 Co418 2.047 . S
O441 C432 1.257 . S
O442 Co417 2.063 . S
O442 C433 1.268 . S
O443 Co416 2.094 . S
O443 C433 1.253 . S
O444 Co423 2.115 . S
O444 C434 1.281 . S
O445 Co423 2.315 . S
O445 C434 1.252 . S
O446 Co416 2.122 . S
O446 C435 1.272 . S
O447 Co418 2.113 . S
O447 C435 1.245 . S
Co448 H451 2.400 . S
Co448 O452 2.009 . S
Co448 O460 2.115 . S
Co448 O461 2.315 . S
Co448 O472 2.053 . S
Co448 O475 2.094 . S
Co448 O478 2.122 . S
Co449 O452 2.126 . S
Co449 H453 2.388 . S
Co449 O454 2.053 . S
Co449 O457 2.047 . S
Co449 O463 2.113 . S
Co449 O474 2.063 . S
Co450 H451 2.388 . S
Co450 O452 2.053 . S
Co450 O454 2.126 . S
Co450 O459 2.063 . S
Co450 O473 2.047 . S
Co450 O479 2.113 . S
H451 Co448 2.400 . S
H451 Co450 2.388 . S
H451 O452 0.760 . S
O452 Co448 2.009 . S
O452 Co449 2.126 . S
O452 Co450 2.053 . S
O452 H451 0.760 . S
H453 Co449 2.388 . S
H453 O454 0.760 . S
H453 Co455 2.400 . S
O454 Co449 2.053 . S
O454 Co450 2.126 . S
O454 H453 0.760 . S
O454 Co455 2.009 . S
Co455 H453 2.400 . S
Co455 O454 2.009 . S
Co455 O456 2.053 . S
Co455 O458 2.094 . S
Co455 O462 2.122 . S
Co455 O476 2.115 . S
Co455 O477 2.315 . S
O456 Co455 2.053 . S
O456 C468 1.259 . S
O457 Co449 2.047 . S
O457 C468 1.257 . S
O458 Co455 2.094 . S
O458 C469 1.253 . S
O459 Co450 2.063 . S
O459 C469 1.268 . S
O460 Co448 2.115 . S
O460 C470 1.281 . S
O461 Co448 2.315 . S
O461 C470 1.252 . S
O462 Co455 2.122 . S
O462 C471 1.272 . S
O463 Co449 2.113 . S
O463 C471 1.245 . S
C464 O472 1.259 . S
C464 O473 1.257 . S
C465 O474 1.268 . S
C465 O475 1.253 . S
C466 O476 1.281 . S
C466 O477 1.252 . S
C467 O478 1.272 . S
C467 O479 1.245 . S
C468 O456 1.259 . S
C468 O457 1.257 . S
C469 O458 1.253 . S
C469 O459 1.268 . S
C470 O460 1.281 . S
C470 O461 1.252 . S
C471 O462 1.272 . S
C471 O463 1.245 . S
O472 Co448 2.053 . S
O472 C464 1.259 . S
O473 Co450 2.047 . S
O473 C464 1.257 . S
O474 Co449 2.063 . S
O474 C465 1.268 . S
O475 Co448 2.094 . S
O475 C465 1.253 . S
O476 Co455 2.115 . S
O476 C466 1.281 . S
O477 Co455 2.315 . S
O477 C466 1.252 . S
O478 Co448 2.122 . S
O478 C467 1.272 . S
O479 Co450 2.113 . S
O479 C467 1.245 . S
Co480 H483 2.400 . S
Co480 O484 2.009 . S
Co480 O492 2.115 . S
Co480 O493 2.315 . S
Co480 O504 2.053 . S
Co480 O507 2.094 . S
Co480 O510 2.122 . S
Co481 O484 2.126 . S
Co481 H485 2.388 . S
Co481 O486 2.053 . S
Co481 O489 2.047 . S
Co481 O495 2.113 . S
Co481 O506 2.063 . S
Co482 H483 2.388 . S
Co482 O484 2.053 . S
Co482 O486 2.126 . S
Co482 O491 2.063 . S
Co482 O505 2.047 . S
Co482 O511 2.113 . S
H483 Co480 2.400 . S
H483 Co482 2.388 . S
H483 O484 0.760 . S
O484 Co480 2.009 . S
O484 Co481 2.126 . S
O484 Co482 2.053 . S
O484 H483 0.760 . S
H485 Co481 2.388 . S
H485 O486 0.760 . S
H485 Co487 2.400 . S
O486 Co481 2.053 . S
O486 Co482 2.126 . S
O486 H485 0.760 . S
O486 Co487 2.009 . S
Co487 H485 2.400 . S
Co487 O486 2.009 . S
Co487 O488 2.053 . S
Co487 O490 2.094 . S
Co487 O494 2.122 . S
Co487 O508 2.115 . S
Co487 O509 2.315 . S
O488 Co487 2.053 . S
O488 C500 1.259 . S
O489 Co481 2.047 . S
O489 C500 1.257 . S
O490 Co487 2.094 . S
O490 C501 1.253 . S
O491 Co482 2.063 . S
O491 C501 1.268 . S
O492 Co480 2.115 . S
O492 C502 1.281 . S
O493 Co480 2.315 . S
O493 C502 1.252 . S
O494 Co487 2.122 . S
O494 C503 1.272 . S
O495 Co481 2.113 . S
O495 C503 1.245 . S
C496 O504 1.259 . S
C496 O505 1.257 . S
C497 O506 1.268 . S
C497 O507 1.253 . S
C498 O508 1.281 . S
C498 O509 1.252 . S
C499 O510 1.272 . S
C499 O511 1.245 . S
C500 O488 1.259 . S
C500 O489 1.257 . S
C501 O490 1.253 . S
C501 O491 1.268 . S
C502 O492 1.281 . S
C502 O493 1.252 . S
C503 O494 1.272 . S
C503 O495 1.245 . S
O504 Co480 2.053 . S
O504 C496 1.259 . S
O505 Co482 2.047 . S
O505 C496 1.257 . S
O506 Co481 2.063 . S
O506 C497 1.268 . S
O507 Co480 2.094 . S
O507 C497 1.253 . S
O508 Co487 2.115 . S
O508 C498 1.281 . S
O509 Co487 2.315 . S
O509 C498 1.252 . S
O510 Co480 2.122 . S
O510 C499 1.272 . S
O511 Co482 2.113 . S
O511 C499 1.245 . S
Co512 H515 2.400 . S
Co512 O516 2.009 . S
Co512 O524 2.115 . S
Co512 O525 2.315 . S
Co512 O536 2.053 . S
Co512 O539 2.094 . S
Co512 O542 2.122 . S
Co513 O516 2.126 . S
Co513 H517 2.388 . S
Co513 O518 2.053 . S
Co513 O521 2.047 . S
Co513 O527 2.113 . S
Co513 O538 2.063 . S
Co514 H515 2.388 . S
Co514 O516 2.053 . S
Co514 O518 2.126 . S
Co514 O523 2.063 . S
Co514 O537 2.047 . S
Co514 O543 2.113 . S
H515 Co512 2.400 . S
H515 Co514 2.388 . S
H515 O516 0.760 . S
O516 Co512 2.009 . S
O516 Co513 2.126 . S
O516 Co514 2.053 . S
O516 H515 0.760 . S
H517 Co513 2.388 . S
H517 O518 0.760 . S
H517 Co519 2.400 . S
O518 Co513 2.053 . S
O518 Co514 2.126 . S
O518 H517 0.760 . S
O518 Co519 2.009 . S
Co519 H517 2.400 . S
Co519 O518 2.009 . S
Co519 O520 2.053 . S
Co519 O522 2.094 . S
Co519 O526 2.122 . S
Co519 O540 2.115 . S
Co519 O541 2.315 . S
O520 Co519 2.053 . S
O520 C532 1.259 . S
O521 Co513 2.047 . S
O521 C532 1.257 . S
O522 Co519 2.094 . S
O522 C533 1.253 . S
O523 Co514 2.063 . S
O523 C533 1.268 . S
O524 Co512 2.115 . S
O524 C534 1.281 . S
O525 Co512 2.315 . S
O525 C534 1.252 . S
O526 Co519 2.122 . S
O526 C535 1.272 . S
O527 Co513 2.113 . S
O527 C535 1.245 . S
C528 O536 1.259 . S
C528 O537 1.257 . S
C529 O538 1.268 . S
C529 O539 1.253 . S
C530 O540 1.281 . S
C530 O541 1.252 . S
C531 O542 1.272 . S
C531 O543 1.245 . S
C532 O520 1.259 . S
C532 O521 1.257 . S
C533 O522 1.253 . S
C533 O523 1.268 . S
C534 O524 1.281 . S
C534 O525 1.252 . S
C535 O526 1.272 . S
C535 O527 1.245 . S
O536 Co512 2.053 . S
O536 C528 1.259 . S
O537 Co514 2.047 . S
O537 C528 1.257 . S
O538 Co513 2.063 . S
O538 C529 1.268 . S
O539 Co512 2.094 . S
O539 C529 1.253 . S
O540 Co519 2.115 . S
O540 C530 1.281 . S
O541 Co519 2.315 . S
O541 C530 1.252 . S
O542 Co512 2.122 . S
O542 C531 1.272 . S
O543 Co514 2.113 . S
O543 C531 1.245 . S
Co544 H547 2.400 . S
Co544 O548 2.009 . S
Co544 O556 2.115 . S
Co544 O557 2.315 . S
Co544 O568 2.053 . S
Co544 O571 2.094 . S
Co544 O574 2.122 . S
Co545 O548 2.126 . S
Co545 H549 2.388 . S
Co545 O550 2.053 . S
Co545 O553 2.047 . S
Co545 O559 2.113 . S
Co545 O570 2.063 . S
Co546 H547 2.388 . S
Co546 O548 2.053 . S
Co546 O550 2.126 . S
Co546 O555 2.063 . S
Co546 O569 2.047 . S
Co546 O575 2.113 . S
H547 Co544 2.400 . S
H547 Co546 2.388 . S
H547 O548 0.760 . S
O548 Co544 2.009 . S
O548 Co545 2.126 . S
O548 Co546 2.053 . S
O548 H547 0.760 . S
H549 Co545 2.388 . S
H549 O550 0.760 . S
H549 Co551 2.400 . S
O550 Co545 2.053 . S
O550 Co546 2.126 . S
O550 H549 0.760 . S
O550 Co551 2.009 . S
Co551 H549 2.400 . S
Co551 O550 2.009 . S
Co551 O552 2.053 . S
Co551 O554 2.094 . S
Co551 O558 2.122 . S
Co551 O572 2.115 . S
Co551 O573 2.315 . S
O552 Co551 2.053 . S
O552 C564 1.259 . S
O553 Co545 2.047 . S
O553 C564 1.257 . S
O554 Co551 2.094 . S
O554 C565 1.253 . S
O555 Co546 2.063 . S
O555 C565 1.268 . S
O556 Co544 2.115 . S
O556 C566 1.281 . S
O557 Co544 2.315 . S
O557 C566 1.252 . S
O558 Co551 2.122 . S
O558 C567 1.272 . S
O559 Co545 2.113 . S
O559 C567 1.245 . S
C560 O568 1.259 . S
C560 O569 1.257 . S
C561 O570 1.268 . S
C561 O571 1.253 . S
C562 O572 1.281 . S
C562 O573 1.252 . S
C563 O574 1.272 . S
C563 O575 1.245 . S
C564 O552 1.259 . S
C564 O553 1.257 . S
C565 O554 1.253 . S
C565 O555 1.268 . S
C566 O556 1.281 . S
C566 O557 1.252 . S
C567 O558 1.272 . S
C567 O559 1.245 . S
O568 Co544 2.053 . S
O568 C560 1.259 . S
O569 Co546 2.047 . S
O569 C560 1.257 . S
O570 Co545 2.063 . S
O570 C561 1.268 . S
O571 Co544 2.094 . S
O571 C561 1.253 . S
O572 Co551 2.115 . S
O572 C562 1.281 . S
O573 Co551 2.315 . S
O573 C562 1.252 . S
O574 Co544 2.122 . S
O574 C563 1.272 . S
O575 Co546 2.113 . S
O575 C563 1.245 . S
Co576 H579 2.400 . S
Co576 O580 2.009 . S
Co576 O588 2.115 . S
Co576 O589 2.315 . S
Co576 O600 2.053 . S
Co576 O603 2.094 . S
Co576 O606 2.122 . S
Co577 O580 2.126 . S
Co577 H581 2.388 . S
Co577 O582 2.053 . S
Co577 O585 2.047 . S
Co577 O591 2.113 . S
Co577 O602 2.063 . S
Co578 H579 2.388 . S
Co578 O580 2.053 . S
Co578 O582 2.126 . S
Co578 O587 2.063 . S
Co578 O601 2.047 . S
Co578 O607 2.113 . S
H579 Co576 2.400 . S
H579 Co578 2.388 . S
H579 O580 0.760 . S
O580 Co576 2.009 . S
O580 Co577 2.126 . S
O580 Co578 2.053 . S
O580 H579 0.760 . S
H581 Co577 2.388 . S
H581 O582 0.760 . S
H581 Co583 2.400 . S
O582 Co577 2.053 . S
O582 Co578 2.126 . S
O582 H581 0.760 . S
O582 Co583 2.009 . S
Co583 H581 2.400 . S
Co583 O582 2.009 . S
Co583 O584 2.053 . S
Co583 O586 2.094 . S
Co583 O590 2.122 . S
Co583 O604 2.115 . S
Co583 O605 2.315 . S
O584 Co583 2.053 . S
O584 C596 1.259 . S
O585 Co577 2.047 . S
O585 C596 1.257 . S
O586 Co583 2.094 . S
O586 C597 1.253 . S
O587 Co578 2.063 . S
O587 C597 1.268 . S
O588 Co576 2.115 . S
O588 C598 1.281 . S
O589 Co576 2.315 . S
O589 C598 1.252 . S
O590 Co583 2.122 . S
O590 C599 1.272 . S
O591 Co577 2.113 . S
O591 C599 1.245 . S
C592 O600 1.259 . S
C592 O601 1.257 . S
C593 O602 1.268 . S
C593 O603 1.253 . S
C594 O604 1.281 . S
C594 O605 1.252 . S
C595 O606 1.272 . S
C595 O607 1.245 . S
C596 O584 1.259 . S
C596 O585 1.257 . S
C597 O586 1.253 . S
C597 O587 1.268 . S
C598 O588 1.281 . S
C598 O589 1.252 . S
C599 O590 1.272 . S
C599 O591 1.245 . S
O600 Co576 2.053 . S
O600 C592 1.259 . S
O601 Co578 2.047 . S
O601 C592 1.257 . S
O602 Co577 2.063 . S
O602 C593 1.268 . S
O603 Co576 2.094 . S
O603 C593 1.253 . S
O604 Co583 2.115 . S
O604 C594 1.281 . S
O605 Co583 2.315 . S
O605 C594 1.252 . S
O606 Co576 2.122 . S
O606 C595 1.272 . S
O607 Co578 2.113 . S
O607 C595 1.245 . S
Co608 H611 2.400 . S
Co608 O612 2.009 . S
Co608 O620 2.115 . S
Co608 O621 2.315 . S
Co608 O632 2.053 . S
Co608 O635 2.094 . S
Co608 O638 2.122 . S
Co609 O612 2.126 . S
Co609 H613 2.388 . S
Co609 O614 2.053 . S
Co609 O617 2.047 . S
Co609 O623 2.113 . S
Co609 O634 2.063 . S
Co610 H611 2.388 . S
Co610 O612 2.053 . S
Co610 O614 2.126 . S
Co610 O619 2.063 . S
Co610 O633 2.047 . S
Co610 O639 2.113 . S
H611 Co608 2.400 . S
H611 Co610 2.388 . S
H611 O612 0.760 . S
O612 Co608 2.009 . S
O612 Co609 2.126 . S
O612 Co610 2.053 . S
O612 H611 0.760 . S
H613 Co609 2.388 . S
H613 O614 0.760 . S
H613 Co615 2.400 . S
O614 Co609 2.053 . S
O614 Co610 2.126 . S
O614 H613 0.760 . S
O614 Co615 2.009 . S
Co615 H613 2.400 . S
Co615 O614 2.009 . S
Co615 O616 2.053 . S
Co615 O618 2.094 . S
Co615 O622 2.122 . S
Co615 O636 2.115 . S
Co615 O637 2.315 . S
O616 Co615 2.053 . S
O616 C628 1.259 . S
O617 Co609 2.047 . S
O617 C628 1.257 . S
O618 Co615 2.094 . S
O618 C629 1.253 . S
O619 Co610 2.063 . S
O619 C629 1.268 . S
O620 Co608 2.115 . S
O620 C630 1.281 . S
O621 Co608 2.315 . S
O621 C630 1.252 . S
O622 Co615 2.122 . S
O622 C631 1.272 . S
O623 Co609 2.113 . S
O623 C631 1.245 . S
C624 O632 1.259 . S
C624 O633 1.257 . S
C625 O634 1.268 . S
C625 O635 1.253 . S
C626 O636 1.281 . S
C626 O637 1.252 . S
C627 O638 1.272 . S
C627 O639 1.245 . S
C628 O616 1.259 . S
C628 O617 1.257 . S
C629 O618 1.253 . S
C629 O619 1.268 . S
C630 O620 1.281 . S
C630 O621 1.252 . S
C631 O622 1.272 . S
C631 O623 1.245 . S
O632 Co608 2.053 . S
O632 C624 1.259 . S
O633 Co610 2.047 . S
O633 C624 1.257 . S
O634 Co609 2.063 . S
O634 C625 1.268 . S
O635 Co608 2.094 . S
O635 C625 1.253 . S
O636 Co615 2.115 . S
O636 C626 1.281 . S
O637 Co615 2.315 . S
O637 C626 1.252 . S
O638 Co608 2.122 . S
O638 C627 1.272 . S
O639 Co610 2.113 . S
O639 C627 1.245 . S
Co640 H643 2.400 . S
Co640 O644 2.009 . S
Co640 O652 2.115 . S
Co640 O653 2.315 . S
Co640 O664 2.053 . S
Co640 O667 2.094 . S
Co640 O670 2.122 . S
Co641 O644 2.126 . S
Co641 H645 2.388 . S
Co641 O646 2.053 . S
Co641 O649 2.047 . S
Co641 O655 2.113 . S
Co641 O666 2.063 . S
Co642 H643 2.388 . S
Co642 O644 2.053 . S
Co642 O646 2.126 . S
Co642 O651 2.063 . S
Co642 O665 2.047 . S
Co642 O671 2.113 . S
H643 Co640 2.400 . S
H643 Co642 2.388 . S
H643 O644 0.760 . S
O644 Co640 2.009 . S
O644 Co641 2.126 . S
O644 Co642 2.053 . S
O644 H643 0.760 . S
H645 Co641 2.388 . S
H645 O646 0.760 . S
H645 Co647 2.400 . S
O646 Co641 2.053 . S
O646 Co642 2.126 . S
O646 H645 0.760 . S
O646 Co647 2.009 . S
Co647 H645 2.400 . S
Co647 O646 2.009 . S
Co647 O648 2.053 . S
Co647 O650 2.094 . S
Co647 O654 2.122 . S
Co647 O668 2.115 . S
Co647 O669 2.315 . S
O648 Co647 2.053 . S
O648 C660 1.259 . S
O649 Co641 2.047 . S
O649 C660 1.257 . S
O650 Co647 2.094 . S
O650 C661 1.253 . S
O651 Co642 2.063 . S
O651 C661 1.268 . S
O652 Co640 2.115 . S
O652 C662 1.281 . S
O653 Co640 2.315 . S
O653 C662 1.252 . S
O654 Co647 2.122 . S
O654 C663 1.272 . S
O655 Co641 2.113 . S
O655 C663 1.245 . S
C656 O664 1.259 . S
C656 O665 1.257 . S
C657 O666 1.268 . S
C657 O667 1.253 . S
C658 O668 1.281 . S
C658 O669 1.252 . S
C659 O670 1.272 . S
C659 O671 1.245 . S
C660 O648 1.259 . S
C660 O649 1.257 . S
C661 O650 1.253 . S
C661 O651 1.268 . S
C662 O652 1.281 . S
C662 O653 1.252 . S
C663 O654 1.272 . S
C663 O655 1.245 . S
O664 Co640 2.053 . S
O664 C656 1.259 . S
O665 Co642 2.047 . S
O665 C656 1.257 . S
O666 Co641 2.063 . S
O666 C657 1.268 . S
O667 Co640 2.094 . S
O667 C657 1.253 . S
O668 Co647 2.115 . S
O668 C658 1.281 . S
O669 Co647 2.315 . S
O669 C658 1.252 . S
O670 Co640 2.122 . S
O670 C659 1.272 . S
O671 Co642 2.113 . S
O671 C659 1.245 . S
Co672 H675 2.400 . S
Co672 O676 2.009 . S
Co672 O684 2.115 . S
Co672 O685 2.315 . S
Co672 O696 2.053 . S
Co672 O699 2.094 . S
Co672 O702 2.122 . S
Co673 O676 2.126 . S
Co673 H677 2.388 . S
Co673 O678 2.053 . S
Co673 O681 2.047 . S
Co673 O687 2.113 . S
Co673 O698 2.063 . S
Co674 H675 2.388 . S
Co674 O676 2.053 . S
Co674 O678 2.126 . S
Co674 O683 2.063 . S
Co674 O697 2.047 . S
Co674 O703 2.113 . S
H675 Co672 2.400 . S
H675 Co674 2.388 . S
H675 O676 0.760 . S
O676 Co672 2.009 . S
O676 Co673 2.126 . S
O676 Co674 2.053 . S
O676 H675 0.760 . S
H677 Co673 2.388 . S
H677 O678 0.760 . S
H677 Co679 2.400 . S
O678 Co673 2.053 . S
O678 Co674 2.126 . S
O678 H677 0.760 . S
O678 Co679 2.009 . S
Co679 H677 2.400 . S
Co679 O678 2.009 . S
Co679 O680 2.053 . S
Co679 O682 2.094 . S
Co679 O686 2.122 . S
Co679 O700 2.115 . S
Co679 O701 2.315 . S
O680 Co679 2.053 . S
O680 C692 1.259 . S
O681 Co673 2.047 . S
O681 C692 1.257 . S
O682 Co679 2.094 . S
O682 C693 1.253 . S
O683 Co674 2.063 . S
O683 C693 1.268 . S
O684 Co672 2.115 . S
O684 C694 1.281 . S
O685 Co672 2.315 . S
O685 C694 1.252 . S
O686 Co679 2.122 . S
O686 C695 1.272 . S
O687 Co673 2.113 . S
O687 C695 1.245 . S
C688 O696 1.259 . S
C688 O697 1.257 . S
C689 O698 1.268 . S
C689 O699 1.253 . S
C690 O700 1.281 . S
C690 O701 1.252 . S
C691 O702 1.272 . S
C691 O703 1.245 . S
C692 O680 1.259 . S
C692 O681 1.257 . S
C693 O682 1.253 . S
C693 O683 1.268 . S
C694 O684 1.281 . S
C694 O685 1.252 . S
C695 O686 1.272 . S
C695 O687 1.245 . S
O696 Co672 2.053 . S
O696 C688 1.259 . S
O697 Co674 2.047 . S
O697 C688 1.257 . S
O698 Co673 2.063 . S
O698 C689 1.268 . S
O699 Co672 2.094 . S
O699 C689 1.253 . S
O700 Co679 2.115 . S
O700 C690 1.281 . S
O701 Co679 2.315 . S
O701 C690 1.252 . S
O702 Co672 2.122 . S
O702 C691 1.272 . S
O703 Co674 2.113 . S
O703 C691 1.245 . S
Co704 H707 2.400 . S
Co704 O708 2.009 . S
Co704 O716 2.115 . S
Co704 O717 2.315 . S
Co704 O728 2.053 . S
Co704 O731 2.094 . S
Co704 O734 2.122 . S
Co705 O708 2.126 . S
Co705 H709 2.388 . S
Co705 O710 2.053 . S
Co705 O713 2.047 . S
Co705 O719 2.113 . S
Co705 O730 2.063 . S
Co706 H707 2.388 . S
Co706 O708 2.053 . S
Co706 O710 2.126 . S
Co706 O715 2.063 . S
Co706 O729 2.047 . S
Co706 O735 2.113 . S
H707 Co704 2.400 . S
H707 Co706 2.388 . S
H707 O708 0.760 . S
O708 Co704 2.009 . S
O708 Co705 2.126 . S
O708 Co706 2.053 . S
O708 H707 0.760 . S
H709 Co705 2.388 . S
H709 O710 0.760 . S
H709 Co711 2.400 . S
O710 Co705 2.053 . S
O710 Co706 2.126 . S
O710 H709 0.760 . S
O710 Co711 2.009 . S
Co711 H709 2.400 . S
Co711 O710 2.009 . S
Co711 O712 2.053 . S
Co711 O714 2.094 . S
Co711 O718 2.122 . S
Co711 O732 2.115 . S
Co711 O733 2.315 . S
O712 Co711 2.053 . S
O712 C724 1.259 . S
O713 Co705 2.047 . S
O713 C724 1.257 . S
O714 Co711 2.094 . S
O714 C725 1.253 . S
O715 Co706 2.063 . S
O715 C725 1.268 . S
O716 Co704 2.115 . S
O716 C726 1.281 . S
O717 Co704 2.315 . S
O717 C726 1.252 . S
O718 Co711 2.122 . S
O718 C727 1.272 . S
O719 Co705 2.113 . S
O719 C727 1.245 . S
C720 O728 1.259 . S
C720 O729 1.257 . S
C721 O730 1.268 . S
C721 O731 1.253 . S
C722 O732 1.281 . S
C722 O733 1.252 . S
C723 O734 1.272 . S
C723 O735 1.245 . S
C724 O712 1.259 . S
C724 O713 1.257 . S
C725 O714 1.253 . S
C725 O715 1.268 . S
C726 O716 1.281 . S
C726 O717 1.252 . S
C727 O718 1.272 . S
C727 O719 1.245 . S
O728 Co704 2.053 . S
O728 C720 1.259 . S
O729 Co706 2.047 . S
O729 C720 1.257 . S
O730 Co705 2.063 . S
O730 C721 1.268 . S
O731 Co704 2.094 . S
O731 C721 1.253 . S
O732 Co711 2.115 . S
O732 C722 1.281 . S
O733 Co711 2.315 . S
O733 C722 1.252 . S
O734 Co704 2.122 . S
O734 C723 1.272 . S
O735 Co706 2.113 . S
O735 C723 1.245 . S
Co736 H739 2.400 . S
Co736 O740 2.009 . S
Co736 O748 2.115 . S
Co736 O749 2.315 . S
Co736 O760 2.053 . S
Co736 O763 2.094 . S
Co736 O766 2.122 . S
Co737 O740 2.126 . S
Co737 H741 2.388 . S
Co737 O742 2.053 . S
Co737 O745 2.047 . S
Co737 O751 2.113 . S
Co737 O762 2.063 . S
Co738 H739 2.388 . S
Co738 O740 2.053 . S
Co738 O742 2.126 . S
Co738 O747 2.063 . S
Co738 O761 2.047 . S
Co738 O767 2.113 . S
H739 Co736 2.400 . S
H739 Co738 2.388 . S
H739 O740 0.760 . S
O740 Co736 2.009 . S
O740 Co737 2.126 . S
O740 Co738 2.053 . S
O740 H739 0.760 . S
H741 Co737 2.388 . S
H741 O742 0.760 . S
H741 Co743 2.400 . S
O742 Co737 2.053 . S
O742 Co738 2.126 . S
O742 H741 0.760 . S
O742 Co743 2.009 . S
Co743 H741 2.400 . S
Co743 O742 2.009 . S
Co743 O744 2.053 . S
Co743 O746 2.094 . S
Co743 O750 2.122 . S
Co743 O764 2.115 . S
Co743 O765 2.315 . S
O744 Co743 2.053 . S
O744 C756 1.259 . S
O745 Co737 2.047 . S
O745 C756 1.257 . S
O746 Co743 2.094 . S
O746 C757 1.253 . S
O747 Co738 2.063 . S
O747 C757 1.268 . S
O748 Co736 2.115 . S
O748 C758 1.281 . S
O749 Co736 2.315 . S
O749 C758 1.252 . S
O750 Co743 2.122 . S
O750 C759 1.272 . S
O751 Co737 2.113 . S
O751 C759 1.245 . S
C752 O760 1.259 . S
C752 O761 1.257 . S
C753 O762 1.268 . S
C753 O763 1.253 . S
C754 O764 1.281 . S
C754 O765 1.252 . S
C755 O766 1.272 . S
C755 O767 1.245 . S
C756 O744 1.259 . S
C756 O745 1.257 . S
C757 O746 1.253 . S
C757 O747 1.268 . S
C758 O748 1.281 . S
C758 O749 1.252 . S
C759 O750 1.272 . S
C759 O751 1.245 . S
O760 Co736 2.053 . S
O760 C752 1.259 . S
O761 Co738 2.047 . S
O761 C752 1.257 . S
O762 Co737 2.063 . S
O762 C753 1.268 . S
O763 Co736 2.094 . S
O763 C753 1.253 . S
O764 Co743 2.115 . S
O764 C754 1.281 . S
O765 Co743 2.315 . S
O765 C754 1.252 . S
O766 Co736 2.122 . S
O766 C755 1.272 . S
O767 Co738 2.113 . S
O767 C755 1.245 . S
Co768 H771 2.400 . S
Co768 O772 2.009 . S
Co768 O780 2.115 . S
Co768 O781 2.315 . S
Co768 O792 2.053 . S
Co768 O795 2.094 . S
Co768 O798 2.122 . S
Co769 O772 2.126 . S
Co769 H773 2.388 . S
Co769 O774 2.053 . S
Co769 O777 2.047 . S
Co769 O783 2.113 . S
Co769 O794 2.063 . S
Co770 H771 2.388 . S
Co770 O772 2.053 . S
Co770 O774 2.126 . S
Co770 O779 2.063 . S
Co770 O793 2.047 . S
Co770 O799 2.113 . S
H771 Co768 2.400 . S
H771 Co770 2.388 . S
H771 O772 0.760 . S
O772 Co768 2.009 . S
O772 Co769 2.126 . S
O772 Co770 2.053 . S
O772 H771 0.760 . S
H773 Co769 2.388 . S
H773 O774 0.760 . S
H773 Co775 2.400 . S
O774 Co769 2.053 . S
O774 Co770 2.126 . S
O774 H773 0.760 . S
O774 Co775 2.009 . S
Co775 H773 2.400 . S
Co775 O774 2.009 . S
Co775 O776 2.053 . S
Co775 O778 2.094 . S
Co775 O782 2.122 . S
Co775 O796 2.115 . S
Co775 O797 2.315 . S
O776 Co775 2.053 . S
O776 C788 1.259 . S
O777 Co769 2.047 . S
O777 C788 1.257 . S
O778 Co775 2.094 . S
O778 C789 1.253 . S
O779 Co770 2.063 . S
O779 C789 1.268 . S
O780 Co768 2.115 . S
O780 C790 1.281 . S
O781 Co768 2.315 . S
O781 C790 1.252 . S
O782 Co775 2.122 . S
O782 C791 1.272 . S
O783 Co769 2.113 . S
O783 C791 1.245 . S
C784 O792 1.259 . S
C784 O793 1.257 . S
C785 O794 1.268 . S
C785 O795 1.253 . S
C786 O796 1.281 . S
C786 O797 1.252 . S
C787 O798 1.272 . S
C787 O799 1.245 . S
C788 O776 1.259 . S
C788 O777 1.257 . S
C789 O778 1.253 . S
C789 O779 1.268 . S
C790 O780 1.281 . S
C790 O781 1.252 . S
C791 O782 1.272 . S
C791 O783 1.245 . S
O792 Co768 2.053 . S
O792 C784 1.259 . S
O793 Co770 2.047 . S
O793 C784 1.257 . S
O794 Co769 2.063 . S
O794 C785 1.268 . S
O795 Co768 2.094 . S
O795 C785 1.253 . S
O796 Co775 2.115 . S
O796 C786 1.281 . S
O797 Co775 2.315 . S
O797 C786 1.252 . S
O798 Co768 2.122 . S
O798 C787 1.272 . S
O799 Co770 2.113 . S
O799 C787 1.245 . S
Co800 H803 2.400 . S
Co800 O804 2.009 . S
Co800 O812 2.115 . S
Co800 O813 2.315 . S
Co800 O824 2.053 . S
Co800 O827 2.094 . S
Co800 O830 2.122 . S
Co801 O804 2.126 . S
Co801 H805 2.388 . S
Co801 O806 2.053 . S
Co801 O809 2.047 . S
Co801 O815 2.113 . S
Co801 O826 2.063 . S
Co802 H803 2.388 . S
Co802 O804 2.053 . S
Co802 O806 2.126 . S
Co802 O811 2.063 . S
Co802 O825 2.047 . S
Co802 O831 2.113 . S
H803 Co800 2.400 . S
H803 Co802 2.388 . S
H803 O804 0.760 . S
O804 Co800 2.009 . S
O804 Co801 2.126 . S
O804 Co802 2.053 . S
O804 H803 0.760 . S
H805 Co801 2.388 . S
H805 O806 0.760 . S
H805 Co807 2.400 . S
O806 Co801 2.053 . S
O806 Co802 2.126 . S
O806 H805 0.760 . S
O806 Co807 2.009 . S
Co807 H805 2.400 . S
Co807 O806 2.009 . S
Co807 O808 2.053 . S
Co807 O810 2.094 . S
Co807 O814 2.122 . S
Co807 O828 2.115 . S
Co807 O829 2.315 . S
O808 Co807 2.053 . S
O808 C820 1.259 . S
O809 Co801 2.047 . S
O809 C820 1.257 . S
O810 Co807 2.094 . S
O810 C821 1.253 . S
O811 Co802 2.063 . S
O811 C821 1.268 . S
O812 Co800 2.115 . S
O812 C822 1.281 . S
O813 Co800 2.315 . S
O813 C822 1.252 . S
O814 Co807 2.122 . S
O814 C823 1.272 . S
O815 Co801 2.113 . S
O815 C823 1.245 . S
C816 O824 1.259 . S
C816 O825 1.257 . S
C817 O826 1.268 . S
C817 O827 1.253 . S
C818 O828 1.281 . S
C818 O829 1.252 . S
C819 O830 1.272 . S
C819 O831 1.245 . S
C820 O808 1.259 . S
C820 O809 1.257 . S
C821 O810 1.253 . S
C821 O811 1.268 . S
C822 O812 1.281 . S
C822 O813 1.252 . S
C823 O814 1.272 . S
C823 O815 1.245 . S
O824 Co800 2.053 . S
O824 C816 1.259 . S
O825 Co802 2.047 . S
O825 C816 1.257 . S
O826 Co801 2.063 . S
O826 C817 1.268 . S
O827 Co800 2.094 . S
O827 C817 1.253 . S
O828 Co807 2.115 . S
O828 C818 1.281 . S
O829 Co807 2.315 . S
O829 C818 1.252 . S
O830 Co800 2.122 . S
O830 C819 1.272 . S
O831 Co802 2.113 . S
O831 C819 1.245 . S
Co832 H835 2.400 . S
Co832 O836 2.009 . S
Co832 O844 2.115 . S
Co832 O845 2.315 . S
Co832 O856 2.053 . S
Co832 O859 2.094 . S
Co832 O862 2.122 . S
Co833 O836 2.126 . S
Co833 H837 2.388 . S
Co833 O838 2.053 . S
Co833 O841 2.047 . S
Co833 O847 2.113 . S
Co833 O858 2.063 . S
Co834 H835 2.388 . S
Co834 O836 2.053 . S
Co834 O838 2.126 . S
Co834 O843 2.063 . S
Co834 O857 2.047 . S
Co834 O863 2.113 . S
H835 Co832 2.400 . S
H835 Co834 2.388 . S
H835 O836 0.760 . S
O836 Co832 2.009 . S
O836 Co833 2.126 . S
O836 Co834 2.053 . S
O836 H835 0.760 . S
H837 Co833 2.388 . S
H837 O838 0.760 . S
H837 Co839 2.400 . S
O838 Co833 2.053 . S
O838 Co834 2.126 . S
O838 H837 0.760 . S
O838 Co839 2.009 . S
Co839 H837 2.400 . S
Co839 O838 2.009 . S
Co839 O840 2.053 . S
Co839 O842 2.094 . S
Co839 O846 2.122 . S
Co839 O860 2.115 . S
Co839 O861 2.315 . S
O840 Co839 2.053 . S
O840 C852 1.259 . S
O841 Co833 2.047 . S
O841 C852 1.257 . S
O842 Co839 2.094 . S
O842 C853 1.253 . S
O843 Co834 2.063 . S
O843 C853 1.268 . S
O844 Co832 2.115 . S
O844 C854 1.281 . S
O845 Co832 2.315 . S
O845 C854 1.252 . S
O846 Co839 2.122 . S
O846 C855 1.272 . S
O847 Co833 2.113 . S
O847 C855 1.245 . S
C848 O856 1.259 . S
C848 O857 1.257 . S
C849 O858 1.268 . S
C849 O859 1.253 . S
C850 O860 1.281 . S
C850 O861 1.252 . S
C851 O862 1.272 . S
C851 O863 1.245 . S
C852 O840 1.259 . S
C852 O841 1.257 . S
C853 O842 1.253 . S
C853 O843 1.268 . S
C854 O844 1.281 . S
C854 O845 1.252 . S
C855 O846 1.272 . S
C855 O847 1.245 . S
O856 Co832 2.053 . S
O856 C848 1.259 . S
O857 Co834 2.047 . S
O857 C848 1.257 . S
O858 Co833 2.063 . S
O858 C849 1.268 . S
O859 Co832 2.094 . S
O859 C849 1.253 . S
O860 Co839 2.115 . S
O860 C850 1.281 . S
O861 Co839 2.315 . S
O861 C850 1.252 . S
O862 Co832 2.122 . S
O862 C851 1.272 . S
O863 Co834 2.113 . S
O863 C851 1.245 . S
Co864 H867 2.400 . S
Co864 O868 2.009 . S
Co864 O876 2.115 . S
Co864 O877 2.315 . S
Co864 O888 2.053 . S
Co864 O891 2.094 . S
Co864 O894 2.122 . S
Co865 O868 2.126 . S
Co865 H869 2.388 . S
Co865 O870 2.053 . S
Co865 O873 2.047 . S
Co865 O879 2.113 . S
Co865 O890 2.063 . S
Co866 H867 2.388 . S
Co866 O868 2.053 . S
Co866 O870 2.126 . S
Co866 O875 2.063 . S
Co866 O889 2.047 . S
Co866 O895 2.113 . S
H867 Co864 2.400 . S
H867 Co866 2.388 . S
H867 O868 0.760 . S
O868 Co864 2.009 . S
O868 Co865 2.126 . S
O868 Co866 2.053 . S
O868 H867 0.760 . S
H869 Co865 2.388 . S
H869 O870 0.760 . S
H869 Co871 2.400 . S
O870 Co865 2.053 . S
O870 Co866 2.126 . S
O870 H869 0.760 . S
O870 Co871 2.009 . S
Co871 H869 2.400 . S
Co871 O870 2.009 . S
Co871 O872 2.053 . S
Co871 O874 2.094 . S
Co871 O878 2.122 . S
Co871 O892 2.115 . S
Co871 O893 2.315 . S
O872 Co871 2.053 . S
O872 C884 1.259 . S
O873 Co865 2.047 . S
O873 C884 1.257 . S
O874 Co871 2.094 . S
O874 C885 1.253 . S
O875 Co866 2.063 . S
O875 C885 1.268 . S
O876 Co864 2.115 . S
O876 C886 1.281 . S
O877 Co864 2.315 . S
O877 C886 1.252 . S
O878 Co871 2.122 . S
O878 C887 1.272 . S
O879 Co865 2.113 . S
O879 C887 1.245 . S
C880 O888 1.259 . S
C880 O889 1.257 . S
C881 O890 1.268 . S
C881 O891 1.253 . S
C882 O892 1.281 . S
C882 O893 1.252 . S
C883 O894 1.272 . S
C883 O895 1.245 . S
C884 O872 1.259 . S
C884 O873 1.257 . S
C885 O874 1.253 . S
C885 O875 1.268 . S
C886 O876 1.281 . S
C886 O877 1.252 . S
C887 O878 1.272 . S
C887 O879 1.245 . S
O888 Co864 2.053 . S
O888 C880 1.259 . S
O889 Co866 2.047 . S
O889 C880 1.257 . S
O890 Co865 2.063 . S
O890 C881 1.268 . S
O891 Co864 2.094 . S
O891 C881 1.253 . S
O892 Co871 2.115 . S
O892 C882 1.281 . S
O893 Co871 2.315 . S
O893 C882 1.252 . S
O894 Co864 2.122 . S
O894 C883 1.272 . S
O895 Co866 2.113 . S
O895 C883 1.245 . S
Co896 H899 2.400 . S
Co896 O900 2.009 . S
Co896 O908 2.115 . S
Co896 O909 2.315 . S
Co896 O920 2.053 . S
Co896 O923 2.094 . S
Co896 O926 2.122 . S
Co897 O900 2.126 . S
Co897 H901 2.388 . S
Co897 O902 2.053 . S
Co897 O905 2.047 . S
Co897 O911 2.113 . S
Co897 O922 2.063 . S
Co898 H899 2.388 . S
Co898 O900 2.053 . S
Co898 O902 2.126 . S
Co898 O907 2.063 . S
Co898 O921 2.047 . S
Co898 O927 2.113 . S
H899 Co896 2.400 . S
H899 Co898 2.388 . S
H899 O900 0.760 . S
O900 Co896 2.009 . S
O900 Co897 2.126 . S
O900 Co898 2.053 . S
O900 H899 0.760 . S
H901 Co897 2.388 . S
H901 O902 0.760 . S
H901 Co903 2.400 . S
O902 Co897 2.053 . S
O902 Co898 2.126 . S
O902 H901 0.760 . S
O902 Co903 2.009 . S
Co903 H901 2.400 . S
Co903 O902 2.009 . S
Co903 O904 2.053 . S
Co903 O906 2.094 . S
Co903 O910 2.122 . S
Co903 O924 2.115 . S
Co903 O925 2.315 . S
O904 Co903 2.053 . S
O904 C916 1.259 . S
O905 Co897 2.047 . S
O905 C916 1.257 . S
O906 Co903 2.094 . S
O906 C917 1.253 . S
O907 Co898 2.063 . S
O907 C917 1.268 . S
O908 Co896 2.115 . S
O908 C918 1.281 . S
O909 Co896 2.315 . S
O909 C918 1.252 . S
O910 Co903 2.122 . S
O910 C919 1.272 . S
O911 Co897 2.113 . S
O911 C919 1.245 . S
C912 O920 1.259 . S
C912 O921 1.257 . S
C913 O922 1.268 . S
C913 O923 1.253 . S
C914 O924 1.281 . S
C914 O925 1.252 . S
C915 O926 1.272 . S
C915 O927 1.245 . S
C916 O904 1.259 . S
C916 O905 1.257 . S
C917 O906 1.253 . S
C917 O907 1.268 . S
C918 O908 1.281 . S
C918 O909 1.252 . S
C919 O910 1.272 . S
C919 O911 1.245 . S
O920 Co896 2.053 . S
O920 C912 1.259 . S
O921 Co898 2.047 . S
O921 C912 1.257 . S
O922 Co897 2.063 . S
O922 C913 1.268 . S
O923 Co896 2.094 . S
O923 C913 1.253 . S
O924 Co903 2.115 . S
O924 C914 1.281 . S
O925 Co903 2.315 . S
O925 C914 1.252 . S
O926 Co896 2.122 . S
O926 C915 1.272 . S
O927 Co898 2.113 . S
O927 C915 1.245 . S
Co928 H931 2.400 . S
Co928 O932 2.009 . S
Co928 O940 2.115 . S
Co928 O941 2.315 . S
Co928 O952 2.053 . S
Co928 O955 2.094 . S
Co928 O958 2.122 . S
Co929 O932 2.126 . S
Co929 H933 2.388 . S
Co929 O934 2.053 . S
Co929 O937 2.047 . S
Co929 O943 2.113 . S
Co929 O954 2.063 . S
Co930 H931 2.388 . S
Co930 O932 2.053 . S
Co930 O934 2.126 . S
Co930 O939 2.063 . S
Co930 O953 2.047 . S
Co930 O959 2.113 . S
H931 Co928 2.400 . S
H931 Co930 2.388 . S
H931 O932 0.760 . S
O932 Co928 2.009 . S
O932 Co929 2.126 . S
O932 Co930 2.053 . S
O932 H931 0.760 . S
H933 Co929 2.388 . S
H933 O934 0.760 . S
H933 Co935 2.400 . S
O934 Co929 2.053 . S
O934 Co930 2.126 . S
O934 H933 0.760 . S
O934 Co935 2.009 . S
Co935 H933 2.400 . S
Co935 O934 2.009 . S
Co935 O936 2.053 . S
Co935 O938 2.094 . S
Co935 O942 2.122 . S
Co935 O956 2.115 . S
Co935 O957 2.315 . S
O936 Co935 2.053 . S
O936 C948 1.259 . S
O937 Co929 2.047 . S
O937 C948 1.257 . S
O938 Co935 2.094 . S
O938 C949 1.253 . S
O939 Co930 2.063 . S
O939 C949 1.268 . S
O940 Co928 2.115 . S
O940 C950 1.281 . S
O941 Co928 2.315 . S
O941 C950 1.252 . S
O942 Co935 2.122 . S
O942 C951 1.272 . S
O943 Co929 2.113 . S
O943 C951 1.245 . S
C944 O952 1.259 . S
C944 O953 1.257 . S
C945 O954 1.268 . S
C945 O955 1.253 . S
C946 O956 1.281 . S
C946 O957 1.252 . S
C947 O958 1.272 . S
C947 O959 1.245 . S
C948 O936 1.259 . S
C948 O937 1.257 . S
C949 O938 1.253 . S
C949 O939 1.268 . S
C950 O940 1.281 . S
C950 O941 1.252 . S
C951 O942 1.272 . S
C951 O943 1.245 . S
O952 Co928 2.053 . S
O952 C944 1.259 . S
O953 Co930 2.047 . S
O953 C944 1.257 . S
O954 Co929 2.063 . S
O954 C945 1.268 . S
O955 Co928 2.094 . S
O955 C945 1.253 . S
O956 Co935 2.115 . S
O956 C946 1.281 . S
O957 Co935 2.315 . S
O957 C946 1.252 . S
O958 Co928 2.122 . S
O958 C947 1.272 . S
O959 Co930 2.113 . S
O959 C947 1.245 . S
Co960 H963 2.400 . S
Co960 O964 2.009 . S
Co960 O972 2.115 . S
Co960 O973 2.315 . S
Co960 O984 2.053 . S
Co960 O987 2.094 . S
Co960 O990 2.122 . S
Co961 O964 2.126 . S
Co961 H965 2.388 . S
Co961 O966 2.053 . S
Co961 O969 2.047 . S
Co961 O975 2.113 . S
Co961 O986 2.063 . S
Co962 H963 2.388 . S
Co962 O964 2.053 . S
Co962 O966 2.126 . S
Co962 O971 2.063 . S
Co962 O985 2.047 . S
Co962 O991 2.113 . S
H963 Co960 2.400 . S
H963 Co962 2.388 . S
H963 O964 0.760 . S
O964 Co960 2.009 . S
O964 Co961 2.126 . S
O964 Co962 2.053 . S
O964 H963 0.760 . S
H965 Co961 2.388 . S
H965 O966 0.760 . S
H965 Co967 2.400 . S
O966 Co961 2.053 . S
O966 Co962 2.126 . S
O966 H965 0.760 . S
O966 Co967 2.009 . S
Co967 H965 2.400 . S
Co967 O966 2.009 . S
Co967 O968 2.053 . S
Co967 O970 2.094 . S
Co967 O974 2.122 . S
Co967 O988 2.115 . S
Co967 O989 2.315 . S
O968 Co967 2.053 . S
O968 C980 1.259 . S
O969 Co961 2.047 . S
O969 C980 1.257 . S
O970 Co967 2.094 . S
O970 C981 1.253 . S
O971 Co962 2.063 . S
O971 C981 1.268 . S
O972 Co960 2.115 . S
O972 C982 1.281 . S
O973 Co960 2.315 . S
O973 C982 1.252 . S
O974 Co967 2.122 . S
O974 C983 1.272 . S
O975 Co961 2.113 . S
O975 C983 1.245 . S
C976 O984 1.259 . S
C976 O985 1.257 . S
C977 O986 1.268 . S
C977 O987 1.253 . S
C978 O988 1.281 . S
C978 O989 1.252 . S
C979 O990 1.272 . S
C979 O991 1.245 . S
C980 O968 1.259 . S
C980 O969 1.257 . S
C981 O970 1.253 . S
C981 O971 1.268 . S
C982 O972 1.281 . S
C982 O973 1.252 . S
C983 O974 1.272 . S
C983 O975 1.245 . S
O984 Co960 2.053 . S
O984 C976 1.259 . S
O985 Co962 2.047 . S
O985 C976 1.257 . S
O986 Co961 2.063 . S
O986 C977 1.268 . S
O987 Co960 2.094 . S
O987 C977 1.253 . S
O988 Co967 2.115 . S
O988 C978 1.281 . S
O989 Co967 2.315 . S
O989 C978 1.252 . S
O990 Co960 2.122 . S
O990 C979 1.272 . S
O991 Co962 2.113 . S
O991 C979 1.245 . S
Co992 H995 2.400 . S
Co992 O996 2.009 . S
Co992 O1004 2.115 . S
Co992 O1005 2.315 . S
Co992 O1016 2.053 . S
Co992 O1019 2.094 . S
Co992 O1022 2.122 . S
Co993 O996 2.126 . S
Co993 H997 2.388 . S
Co993 O998 2.053 . S
Co993 O1001 2.047 . S
Co993 O1007 2.113 . S
Co993 O1018 2.063 . S
Co994 H995 2.388 . S
Co994 O996 2.053 . S
Co994 O998 2.126 . S
Co994 O1003 2.063 . S
Co994 O1017 2.047 . S
Co994 O1023 2.113 . S
H995 Co992 2.400 . S
H995 Co994 2.388 . S
H995 O996 0.760 . S
O996 Co992 2.009 . S
O996 Co993 2.126 . S
O996 Co994 2.053 . S
O996 H995 0.760 . S
H997 Co993 2.388 . S
H997 O998 0.760 . S
H997 Co999 2.400 . S
O998 Co993 2.053 . S
O998 Co994 2.126 . S
O998 H997 0.760 . S
O998 Co999 2.009 . S
Co999 H997 2.400 . S
Co999 O998 2.009 . S
Co999 O1000 2.053 . S
Co999 O1002 2.094 . S
Co999 O1006 2.122 . S
Co999 O1020 2.115 . S
Co999 O1021 2.315 . S
O1000 Co999 2.053 . S
O1000 C1012 1.259 . S
O1001 Co993 2.047 . S
O1001 C1012 1.257 . S
O1002 Co999 2.094 . S
O1002 C1013 1.253 . S
O1003 Co994 2.063 . S
O1003 C1013 1.268 . S
O1004 Co992 2.115 . S
O1004 C1014 1.281 . S
O1005 Co992 2.315 . S
O1005 C1014 1.252 . S
O1006 Co999 2.122 . S
O1006 C1015 1.272 . S
O1007 Co993 2.113 . S
O1007 C1015 1.245 . S
C1008 O1016 1.259 . S
C1008 O1017 1.257 . S
C1009 O1018 1.268 . S
C1009 O1019 1.253 . S
C1010 O1020 1.281 . S
C1010 O1021 1.252 . S
C1011 O1022 1.272 . S
C1011 O1023 1.245 . S
C1012 O1000 1.259 . S
C1012 O1001 1.257 . S
C1013 O1002 1.253 . S
C1013 O1003 1.268 . S
C1014 O1004 1.281 . S
C1014 O1005 1.252 . S
C1015 O1006 1.272 . S
C1015 O1007 1.245 . S
O1016 Co992 2.053 . S
O1016 C1008 1.259 . S
O1017 Co994 2.047 . S
O1017 C1008 1.257 . S
O1018 Co993 2.063 . S
O1018 C1009 1.268 . S
O1019 Co992 2.094 . S
O1019 C1009 1.253 . S
O1020 Co999 2.115 . S
O1020 C1010 1.281 . S
O1021 Co999 2.315 . S
O1021 C1010 1.252 . S
O1022 Co992 2.122 . S
O1022 C1011 1.272 . S
O1023 Co994 2.113 . S
O1023 C1011 1.245 . S
Co1024 H1027 2.400 . S
Co1024 O1028 2.009 . S
Co1024 O1036 2.115 . S
Co1024 O1037 2.315 . S
Co1024 O1048 2.053 . S
Co1024 O1051 2.094 . S
Co1024 O1054 2.122 . S
Co1025 O1028 2.126 . S
Co1025 H1029 2.388 . S
Co1025 O1030 2.053 . S
Co1025 O1033 2.047 . S
Co1025 O1039 2.113 . S
Co1025 O1050 2.063 . S
Co1026 H1027 2.388 . S
Co1026 O1028 2.053 . S
Co1026 O1030 2.126 . S
Co1026 O1035 2.063 . S
Co1026 O1049 2.047 . S
Co1026 O1055 2.113 . S
H1027 Co1024 2.400 . S
H1027 Co1026 2.388 . S
H1027 O1028 0.760 . S
O1028 Co1024 2.009 . S
O1028 Co1025 2.126 . S
O1028 Co1026 2.053 . S
O1028 H1027 0.760 . S
H1029 Co1025 2.388 . S
H1029 O1030 0.760 . S
H1029 Co1031 2.400 . S
O1030 Co1025 2.053 . S
O1030 Co1026 2.126 . S
O1030 H1029 0.760 . S
O1030 Co1031 2.009 . S
Co1031 H1029 2.400 . S
Co1031 O1030 2.009 . S
Co1031 O1032 2.053 . S
Co1031 O1034 2.094 . S
Co1031 O1038 2.122 . S
Co1031 O1052 2.115 . S
Co1031 O1053 2.315 . S
O1032 Co1031 2.053 . S
O1032 C1044 1.259 . S
O1033 Co1025 2.047 . S
O1033 C1044 1.257 . S
O1034 Co1031 2.094 . S
O1034 C1045 1.253 . S
O1035 Co1026 2.063 . S
O1035 C1045 1.268 . S
O1036 Co1024 2.115 . S
O1036 C1046 1.281 . S
O1037 Co1024 2.315 . S
O1037 C1046 1.252 . S
O1038 Co1031 2.122 . S
O1038 C1047 1.272 . S
O1039 Co1025 2.113 . S
O1039 C1047 1.245 . S
C1040 O1048 1.259 . S
C1040 O1049 1.257 . S
C1041 O1050 1.268 . S
C1041 O1051 1.253 . S
C1042 O1052 1.281 . S
C1042 O1053 1.252 . S
C1043 O1054 1.272 . S
C1043 O1055 1.245 . S
C1044 O1032 1.259 . S
C1044 O1033 1.257 . S
C1045 O1034 1.253 . S
C1045 O1035 1.268 . S
C1046 O1036 1.281 . S
C1046 O1037 1.252 . S
C1047 O1038 1.272 . S
C1047 O1039 1.245 . S
O1048 Co1024 2.053 . S
O1048 C1040 1.259 . S
O1049 Co1026 2.047 . S
O1049 C1040 1.257 . S
O1050 Co1025 2.063 . S
O1050 C1041 1.268 . S
O1051 Co1024 2.094 . S
O1051 C1041 1.253 . S
O1052 Co1031 2.115 . S
O1052 C1042 1.281 . S
O1053 Co1031 2.315 . S
O1053 C1042 1.252 . S
O1054 Co1024 2.122 . S
O1054 C1043 1.272 . S
O1055 Co1026 2.113 . S
O1055 C1043 1.245 . S
Co1056 H1059 2.400 . S
Co1056 O1060 2.009 . S
Co1056 O1068 2.115 . S
Co1056 O1069 2.315 . S
Co1056 O1080 2.053 . S
Co1056 O1083 2.094 . S
Co1056 O1086 2.122 . S
Co1057 O1060 2.126 . S
Co1057 H1061 2.388 . S
Co1057 O1062 2.053 . S
Co1057 O1065 2.047 . S
Co1057 O1071 2.113 . S
Co1057 O1082 2.063 . S
Co1058 H1059 2.388 . S
Co1058 O1060 2.053 . S
Co1058 O1062 2.126 . S
Co1058 O1067 2.063 . S
Co1058 O1081 2.047 . S
Co1058 O1087 2.113 . S
H1059 Co1056 2.400 . S
H1059 Co1058 2.388 . S
H1059 O1060 0.760 . S
O1060 Co1056 2.009 . S
O1060 Co1057 2.126 . S
O1060 Co1058 2.053 . S
O1060 H1059 0.760 . S
H1061 Co1057 2.388 . S
H1061 O1062 0.760 . S
H1061 Co1063 2.400 . S
O1062 Co1057 2.053 . S
O1062 Co1058 2.126 . S
O1062 H1061 0.760 . S
O1062 Co1063 2.009 . S
Co1063 H1061 2.400 . S
Co1063 O1062 2.009 . S
Co1063 O1064 2.053 . S
Co1063 O1066 2.094 . S
Co1063 O1070 2.122 . S
Co1063 O1084 2.115 . S
Co1063 O1085 2.315 . S
O1064 Co1063 2.053 . S
O1064 C1076 1.259 . S
O1065 Co1057 2.047 . S
O1065 C1076 1.257 . S
O1066 Co1063 2.094 . S
O1066 C1077 1.253 . S
O1067 Co1058 2.063 . S
O1067 C1077 1.268 . S
O1068 Co1056 2.115 . S
O1068 C1078 1.281 . S
O1069 Co1056 2.315 . S
O1069 C1078 1.252 . S
O1070 Co1063 2.122 . S
O1070 C1079 1.272 . S
O1071 Co1057 2.113 . S
O1071 C1079 1.245 . S
C1072 O1080 1.259 . S
C1072 O1081 1.257 . S
C1073 O1082 1.268 . S
C1073 O1083 1.253 . S
C1074 O1084 1.281 . S
C1074 O1085 1.252 . S
C1075 O1086 1.272 . S
C1075 O1087 1.245 . S
C1076 O1064 1.259 . S
C1076 O1065 1.257 . S
C1077 O1066 1.253 . S
C1077 O1067 1.268 . S
C1078 O1068 1.281 . S
C1078 O1069 1.252 . S
C1079 O1070 1.272 . S
C1079 O1071 1.245 . S
O1080 Co1056 2.053 . S
O1080 C1072 1.259 . S
O1081 Co1058 2.047 . S
O1081 C1072 1.257 . S
O1082 Co1057 2.063 . S
O1082 C1073 1.268 . S
O1083 Co1056 2.094 . S
O1083 C1073 1.253 . S
O1084 Co1063 2.115 . S
O1084 C1074 1.281 . S
O1085 Co1063 2.315 . S
O1085 C1074 1.252 . S
O1086 Co1056 2.122 . S
O1086 C1075 1.272 . S
O1087 Co1058 2.113 . S
O1087 C1075 1.245 . S
Co1088 H1091 2.400 . S
Co1088 O1092 2.009 . S
Co1088 O1100 2.115 . S
Co1088 O1101 2.315 . S
Co1088 O1112 2.053 . S
Co1088 O1115 2.094 . S
Co1088 O1118 2.122 . S
Co1089 O1092 2.126 . S
Co1089 H1093 2.388 . S
Co1089 O1094 2.053 . S
Co1089 O1097 2.047 . S
Co1089 O1103 2.113 . S
Co1089 O1114 2.063 . S
Co1090 H1091 2.388 . S
Co1090 O1092 2.053 . S
Co1090 O1094 2.126 . S
Co1090 O1099 2.063 . S
Co1090 O1113 2.047 . S
Co1090 O1119 2.113 . S
H1091 Co1088 2.400 . S
H1091 Co1090 2.388 . S
H1091 O1092 0.760 . S
O1092 Co1088 2.009 . S
O1092 Co1089 2.126 . S
O1092 Co1090 2.053 . S
O1092 H1091 0.760 . S
H1093 Co1089 2.388 . S
H1093 O1094 0.760 . S
H1093 Co1095 2.400 . S
O1094 Co1089 2.053 . S
O1094 Co1090 2.126 . S
O1094 H1093 0.760 . S
O1094 Co1095 2.009 . S
Co1095 H1093 2.400 . S
Co1095 O1094 2.009 . S
Co1095 O1096 2.053 . S
Co1095 O1098 2.094 . S
Co1095 O1102 2.122 . S
Co1095 O1116 2.115 . S
Co1095 O1117 2.315 . S
O1096 Co1095 2.053 . S
O1096 C1108 1.259 . S
O1097 Co1089 2.047 . S
O1097 C1108 1.257 . S
O1098 Co1095 2.094 . S
O1098 C1109 1.253 . S
O1099 Co1090 2.063 . S
O1099 C1109 1.268 . S
O1100 Co1088 2.115 . S
O1100 C1110 1.281 . S
O1101 Co1088 2.315 . S
O1101 C1110 1.252 . S
O1102 Co1095 2.122 . S
O1102 C1111 1.272 . S
O1103 Co1089 2.113 . S
O1103 C1111 1.245 . S
C1104 O1112 1.259 . S
C1104 O1113 1.257 . S
C1105 O1114 1.268 . S
C1105 O1115 1.253 . S
C1106 O1116 1.281 . S
C1106 O1117 1.252 . S
C1107 O1118 1.272 . S
C1107 O1119 1.245 . S
C1108 O1096 1.259 . S
C1108 O1097 1.257 . S
C1109 O1098 1.253 . S
C1109 O1099 1.268 . S
C1110 O1100 1.281 . S
C1110 O1101 1.252 . S
C1111 O1102 1.272 . S
C1111 O1103 1.245 . S
O1112 Co1088 2.053 . S
O1112 C1104 1.259 . S
O1113 Co1090 2.047 . S
O1113 C1104 1.257 . S
O1114 Co1089 2.063 . S
O1114 C1105 1.268 . S
O1115 Co1088 2.094 . S
O1115 C1105 1.253 . S
O1116 Co1095 2.115 . S
O1116 C1106 1.281 . S
O1117 Co1095 2.315 . S
O1117 C1106 1.252 . S
O1118 Co1088 2.122 . S
O1118 C1107 1.272 . S
O1119 Co1090 2.113 . S
O1119 C1107 1.245 . S
Co1120 H1123 2.400 . S
Co1120 O1124 2.009 . S
Co1120 O1132 2.115 . S
Co1120 O1133 2.315 . S
Co1120 O1144 2.053 . S
Co1120 O1147 2.094 . S
Co1120 O1150 2.122 . S
Co1121 O1124 2.126 . S
Co1121 H1125 2.388 . S
Co1121 O1126 2.053 . S
Co1121 O1129 2.047 . S
Co1121 O1135 2.113 . S
Co1121 O1146 2.063 . S
Co1122 H1123 2.388 . S
Co1122 O1124 2.053 . S
Co1122 O1126 2.126 . S
Co1122 O1131 2.063 . S
Co1122 O1145 2.047 . S
Co1122 O1151 2.113 . S
H1123 Co1120 2.400 . S
H1123 Co1122 2.388 . S
H1123 O1124 0.760 . S
O1124 Co1120 2.009 . S
O1124 Co1121 2.126 . S
O1124 Co1122 2.053 . S
O1124 H1123 0.760 . S
H1125 Co1121 2.388 . S
H1125 O1126 0.760 . S
H1125 Co1127 2.400 . S
O1126 Co1121 2.053 . S
O1126 Co1122 2.126 . S
O1126 H1125 0.760 . S
O1126 Co1127 2.009 . S
Co1127 H1125 2.400 . S
Co1127 O1126 2.009 . S
Co1127 O1128 2.053 . S
Co1127 O1130 2.094 . S
Co1127 O1134 2.122 . S
Co1127 O1148 2.115 . S
Co1127 O1149 2.315 . S
O1128 Co1127 2.053 . S
O1128 C1140 1.259 . S
O1129 Co1121 2.047 . S
O1129 C1140 1.257 . S
O1130 Co1127 2.094 . S
O1130 C1141 1.253 . S
O1131 Co1122 2.063 . S
O1131 C1141 1.268 . S
O1132 Co1120 2.115 . S
O1132 C1142 1.281 . S
O1133 Co1120 2.315 . S
O1133 C1142 1.252 . S
O1134 Co1127 2.122 . S
O1134 C1143 1.272 . S
O1135 Co1121 2.113 . S
O1135 C1143 1.245 . S
C1136 O1144 1.259 . S
C1136 O1145 1.257 . S
C1137 O1146 1.268 . S
C1137 O1147 1.253 . S
C1138 O1148 1.281 . S
C1138 O1149 1.252 . S
C1139 O1150 1.272 . S
C1139 O1151 1.245 . S
C1140 O1128 1.259 . S
C1140 O1129 1.257 . S
C1141 O1130 1.253 . S
C1141 O1131 1.268 . S
C1142 O1132 1.281 . S
C1142 O1133 1.252 . S
C1143 O1134 1.272 . S
C1143 O1135 1.245 . S
O1144 Co1120 2.053 . S
O1144 C1136 1.259 . S
O1145 Co1122 2.047 . S
O1145 C1136 1.257 . S
O1146 Co1121 2.063 . S
O1146 C1137 1.268 . S
O1147 Co1120 2.094 . S
O1147 C1137 1.253 . S
O1148 Co1127 2.115 . S
O1148 C1138 1.281 . S
O1149 Co1127 2.315 . S
O1149 C1138 1.252 . S
O1150 Co1120 2.122 . S
O1150 C1139 1.272 . S
O1151 Co1122 2.113 . S
O1151 C1139 1.245 . S
Co1152 H1155 2.400 . S
Co1152 O1156 2.009 . S
Co1152 O1164 2.115 . S
Co1152 O1165 2.315 . S
Co1152 O1176 2.053 . S
Co1152 O1179 2.094 . S
Co1152 O1182 2.122 . S
Co1153 O1156 2.126 . S
Co1153 H1157 2.388 . S
Co1153 O1158 2.053 . S
Co1153 O1161 2.047 . S
Co1153 O1167 2.113 . S
Co1153 O1178 2.063 . S
Co1154 H1155 2.388 . S
Co1154 O1156 2.053 . S
Co1154 O1158 2.126 . S
Co1154 O1163 2.063 . S
Co1154 O1177 2.047 . S
Co1154 O1183 2.113 . S
H1155 Co1152 2.400 . S
H1155 Co1154 2.388 . S
H1155 O1156 0.760 . S
O1156 Co1152 2.009 . S
O1156 Co1153 2.126 . S
O1156 Co1154 2.053 . S
O1156 H1155 0.760 . S
H1157 Co1153 2.388 . S
H1157 O1158 0.760 . S
H1157 Co1159 2.400 . S
O1158 Co1153 2.053 . S
O1158 Co1154 2.126 . S
O1158 H1157 0.760 . S
O1158 Co1159 2.009 . S
Co1159 H1157 2.400 . S
Co1159 O1158 2.009 . S
Co1159 O1160 2.053 . S
Co1159 O1162 2.094 . S
Co1159 O1166 2.122 . S
Co1159 O1180 2.115 . S
Co1159 O1181 2.315 . S
O1160 Co1159 2.053 . S
O1160 C1172 1.259 . S
O1161 Co1153 2.047 . S
O1161 C1172 1.257 . S
O1162 Co1159 2.094 . S
O1162 C1173 1.253 . S
O1163 Co1154 2.063 . S
O1163 C1173 1.268 . S
O1164 Co1152 2.115 . S
O1164 C1174 1.281 . S
O1165 Co1152 2.315 . S
O1165 C1174 1.252 . S
O1166 Co1159 2.122 . S
O1166 C1175 1.272 . S
O1167 Co1153 2.113 . S
O1167 C1175 1.245 . S
C1168 O1176 1.259 . S
C1168 O1177 1.257 . S
C1169 O1178 1.268 . S
C1169 O1179 1.253 . S
C1170 O1180 1.281 . S
C1170 O1181 1.252 . S
C1171 O1182 1.272 . S
C1171 O1183 1.245 . S
C1172 O1160 1.259 . S
C1172 O1161 1.257 . S
C1173 O1162 1.253 . S
C1173 O1163 1.268 . S
C1174 O1164 1.281 . S
C1174 O1165 1.252 . S
C1175 O1166 1.272 . S
C1175 O1167 1.245 . S
O1176 Co1152 2.053 . S
O1176 C1168 1.259 . S
O1177 Co1154 2.047 . S
O1177 C1168 1.257 . S
O1178 Co1153 2.063 . S
O1178 C1169 1.268 . S
O1179 Co1152 2.094 . S
O1179 C1169 1.253 . S
O1180 Co1159 2.115 . S
O1180 C1170 1.281 . S
O1181 Co1159 2.315 . S
O1181 C1170 1.252 . S
O1182 Co1152 2.122 . S
O1182 C1171 1.272 . S
O1183 Co1154 2.113 . S
O1183 C1171 1.245 . S
Co1184 H1187 2.400 . S
Co1184 O1188 2.009 . S
Co1184 O1196 2.115 . S
Co1184 O1197 2.315 . S
Co1184 O1208 2.053 . S
Co1184 O1211 2.094 . S
Co1184 O1214 2.122 . S
Co1185 O1188 2.126 . S
Co1185 H1189 2.388 . S
Co1185 O1190 2.053 . S
Co1185 O1193 2.047 . S
Co1185 O1199 2.113 . S
Co1185 O1210 2.063 . S
Co1186 H1187 2.388 . S
Co1186 O1188 2.053 . S
Co1186 O1190 2.126 . S
Co1186 O1195 2.063 . S
Co1186 O1209 2.047 . S
Co1186 O1215 2.113 . S
H1187 Co1184 2.400 . S
H1187 Co1186 2.388 . S
H1187 O1188 0.760 . S
O1188 Co1184 2.009 . S
O1188 Co1185 2.126 . S
O1188 Co1186 2.053 . S
O1188 H1187 0.760 . S
H1189 Co1185 2.388 . S
H1189 O1190 0.760 . S
H1189 Co1191 2.400 . S
O1190 Co1185 2.053 . S
O1190 Co1186 2.126 . S
O1190 H1189 0.760 . S
O1190 Co1191 2.009 . S
Co1191 H1189 2.400 . S
Co1191 O1190 2.009 . S
Co1191 O1192 2.053 . S
Co1191 O1194 2.094 . S
Co1191 O1198 2.122 . S
Co1191 O1212 2.115 . S
Co1191 O1213 2.315 . S
O1192 Co1191 2.053 . S
O1192 C1204 1.259 . S
O1193 Co1185 2.047 . S
O1193 C1204 1.257 . S
O1194 Co1191 2.094 . S
O1194 C1205 1.253 . S
O1195 Co1186 2.063 . S
O1195 C1205 1.268 . S
O1196 Co1184 2.115 . S
O1196 C1206 1.281 . S
O1197 Co1184 2.315 . S
O1197 C1206 1.252 . S
O1198 Co1191 2.122 . S
O1198 C1207 1.272 . S
O1199 Co1185 2.113 . S
O1199 C1207 1.245 . S
C1200 O1208 1.259 . S
C1200 O1209 1.257 . S
C1201 O1210 1.268 . S
C1201 O1211 1.253 . S
C1202 O1212 1.281 . S
C1202 O1213 1.252 . S
C1203 O1214 1.272 . S
C1203 O1215 1.245 . S
C1204 O1192 1.259 . S
C1204 O1193 1.257 . S
C1205 O1194 1.253 . S
C1205 O1195 1.268 . S
C1206 O1196 1.281 . S
C1206 O1197 1.252 . S
C1207 O1198 1.272 . S
C1207 O1199 1.245 . S
O1208 Co1184 2.053 . S
O1208 C1200 1.259 . S
O1209 Co1186 2.047 . S
O1209 C1200 1.257 . S
O1210 Co1185 2.063 . S
O1210 C1201 1.268 . S
O1211 Co1184 2.094 . S
O1211 C1201 1.253 . S
O1212 Co1191 2.115 . S
O1212 C1202 1.281 . S
O1213 Co1191 2.315 . S
O1213 C1202 1.252 . S
O1214 Co1184 2.122 . S
O1214 C1203 1.272 . S
O1215 Co1186 2.113 . S
O1215 C1203 1.245 . S
Co1216 H1219 2.400 . S
Co1216 O1220 2.009 . S
Co1216 O1228 2.115 . S
Co1216 O1229 2.315 . S
Co1216 O1240 2.053 . S
Co1216 O1243 2.094 . S
Co1216 O1246 2.122 . S
Co1217 O1220 2.126 . S
Co1217 H1221 2.388 . S
Co1217 O1222 2.053 . S
Co1217 O1225 2.047 . S
Co1217 O1231 2.113 . S
Co1217 O1242 2.063 . S
Co1218 H1219 2.388 . S
Co1218 O1220 2.053 . S
Co1218 O1222 2.126 . S
Co1218 O1227 2.063 . S
Co1218 O1241 2.047 . S
Co1218 O1247 2.113 . S
H1219 Co1216 2.400 . S
H1219 Co1218 2.388 . S
H1219 O1220 0.760 . S
O1220 Co1216 2.009 . S
O1220 Co1217 2.126 . S
O1220 Co1218 2.053 . S
O1220 H1219 0.760 . S
H1221 Co1217 2.388 . S
H1221 O1222 0.760 . S
H1221 Co1223 2.400 . S
O1222 Co1217 2.053 . S
O1222 Co1218 2.126 . S
O1222 H1221 0.760 . S
O1222 Co1223 2.009 . S
Co1223 H1221 2.400 . S
Co1223 O1222 2.009 . S
Co1223 O1224 2.053 . S
Co1223 O1226 2.094 . S
Co1223 O1230 2.122 . S
Co1223 O1244 2.115 . S
Co1223 O1245 2.315 . S
O1224 Co1223 2.053 . S
O1224 C1236 1.259 . S
O1225 Co1217 2.047 . S
O1225 C1236 1.257 . S
O1226 Co1223 2.094 . S
O1226 C1237 1.253 . S
O1227 Co1218 2.063 . S
O1227 C1237 1.268 . S
O1228 Co1216 2.115 . S
O1228 C1238 1.281 . S
O1229 Co1216 2.315 . S
O1229 C1238 1.252 . S
O1230 Co1223 2.122 . S
O1230 C1239 1.272 . S
O1231 Co1217 2.113 . S
O1231 C1239 1.245 . S
C1232 O1240 1.259 . S
C1232 O1241 1.257 . S
C1233 O1242 1.268 . S
C1233 O1243 1.253 . S
C1234 O1244 1.281 . S
C1234 O1245 1.252 . S
C1235 O1246 1.272 . S
C1235 O1247 1.245 . S
C1236 O1224 1.259 . S
C1236 O1225 1.257 . S
C1237 O1226 1.253 . S
C1237 O1227 1.268 . S
C1238 O1228 1.281 . S
C1238 O1229 1.252 . S
C1239 O1230 1.272 . S
C1239 O1231 1.245 . S
O1240 Co1216 2.053 . S
O1240 C1232 1.259 . S
O1241 Co1218 2.047 . S
O1241 C1232 1.257 . S
O1242 Co1217 2.063 . S
O1242 C1233 1.268 . S
O1243 Co1216 2.094 . S
O1243 C1233 1.253 . S
O1244 Co1223 2.115 . S
O1244 C1234 1.281 . S
O1245 Co1223 2.315 . S
O1245 C1234 1.252 . S
O1246 Co1216 2.122 . S
O1246 C1235 1.272 . S
O1247 Co1218 2.113 . S
O1247 C1235 1.245 . S
Co1248 H1251 2.400 . S
Co1248 O1252 2.009 . S
Co1248 O1260 2.115 . S
Co1248 O1261 2.315 . S
Co1248 O1272 2.053 . S
Co1248 O1275 2.094 . S
Co1248 O1278 2.122 . S
Co1249 O1252 2.126 . S
Co1249 H1253 2.388 . S
Co1249 O1254 2.053 . S
Co1249 O1257 2.047 . S
Co1249 O1263 2.113 . S
Co1249 O1274 2.063 . S
Co1250 H1251 2.388 . S
Co1250 O1252 2.053 . S
Co1250 O1254 2.126 . S
Co1250 O1259 2.063 . S
Co1250 O1273 2.047 . S
Co1250 O1279 2.113 . S
H1251 Co1248 2.400 . S
H1251 Co1250 2.388 . S
H1251 O1252 0.760 . S
O1252 Co1248 2.009 . S
O1252 Co1249 2.126 . S
O1252 Co1250 2.053 . S
O1252 H1251 0.760 . S
H1253 Co1249 2.388 . S
H1253 O1254 0.760 . S
H1253 Co1255 2.400 . S
O1254 Co1249 2.053 . S
O1254 Co1250 2.126 . S
O1254 H1253 0.760 . S
O1254 Co1255 2.009 . S
Co1255 H1253 2.400 . S
Co1255 O1254 2.009 . S
Co1255 O1256 2.053 . S
Co1255 O1258 2.094 . S
Co1255 O1262 2.122 . S
Co1255 O1276 2.115 . S
Co1255 O1277 2.315 . S
O1256 Co1255 2.053 . S
O1256 C1268 1.259 . S
O1257 Co1249 2.047 . S
O1257 C1268 1.257 . S
O1258 Co1255 2.094 . S
O1258 C1269 1.253 . S
O1259 Co1250 2.063 . S
O1259 C1269 1.268 . S
O1260 Co1248 2.115 . S
O1260 C1270 1.281 . S
O1261 Co1248 2.315 . S
O1261 C1270 1.252 . S
O1262 Co1255 2.122 . S
O1262 C1271 1.272 . S
O1263 Co1249 2.113 . S
O1263 C1271 1.245 . S
C1264 O1272 1.259 . S
C1264 O1273 1.257 . S
C1265 O1274 1.268 . S
C1265 O1275 1.253 . S
C1266 O1276 1.281 . S
C1266 O1277 1.252 . S
C1267 O1278 1.272 . S
C1267 O1279 1.245 . S
C1268 O1256 1.259 . S
C1268 O1257 1.257 . S
C1269 O1258 1.253 . S
C1269 O1259 1.268 . S
C1270 O1260 1.281 . S
C1270 O1261 1.252 . S
C1271 O1262 1.272 . S
C1271 O1263 1.245 . S
O1272 Co1248 2.053 . S
O1272 C1264 1.259 . S
O1273 Co1250 2.047 . S
O1273 C1264 1.257 . S
O1274 Co1249 2.063 . S
O1274 C1265 1.268 . S
O1275 Co1248 2.094 . S
O1275 C1265 1.253 . S
O1276 Co1255 2.115 . S
O1276 C1266 1.281 . S
O1277 Co1255 2.315 . S
O1277 C1266 1.252 . S
O1278 Co1248 2.122 . S
O1278 C1267 1.272 . S
O1279 Co1250 2.113 . S
O1279 C1267 1.245 . S
Co1280 H1283 2.400 . S
Co1280 O1284 2.009 . S
Co1280 O1292 2.115 . S
Co1280 O1293 2.315 . S
Co1280 O1304 2.053 . S
Co1280 O1307 2.094 . S
Co1280 O1310 2.122 . S
Co1281 O1284 2.126 . S
Co1281 H1285 2.388 . S
Co1281 O1286 2.053 . S
Co1281 O1289 2.047 . S
Co1281 O1295 2.113 . S
Co1281 O1306 2.063 . S
Co1282 H1283 2.388 . S
Co1282 O1284 2.053 . S
Co1282 O1286 2.126 . S
Co1282 O1291 2.063 . S
Co1282 O1305 2.047 . S
Co1282 O1311 2.113 . S
H1283 Co1280 2.400 . S
H1283 Co1282 2.388 . S
H1283 O1284 0.760 . S
O1284 Co1280 2.009 . S
O1284 Co1281 2.126 . S
O1284 Co1282 2.053 . S
O1284 H1283 0.760 . S
H1285 Co1281 2.388 . S
H1285 O1286 0.760 . S
H1285 Co1287 2.400 . S
O1286 Co1281 2.053 . S
O1286 Co1282 2.126 . S
O1286 H1285 0.760 . S
O1286 Co1287 2.009 . S
Co1287 H1285 2.400 . S
Co1287 O1286 2.009 . S
Co1287 O1288 2.053 . S
Co1287 O1290 2.094 . S
Co1287 O1294 2.122 . S
Co1287 O1308 2.115 . S
Co1287 O1309 2.315 . S
O1288 Co1287 2.053 . S
O1288 C1300 1.259 . S
O1289 Co1281 2.047 . S
O1289 C1300 1.257 . S
O1290 Co1287 2.094 . S
O1290 C1301 1.253 . S
O1291 Co1282 2.063 . S
O1291 C1301 1.268 . S
O1292 Co1280 2.115 . S
O1292 C1302 1.281 . S
O1293 Co1280 2.315 . S
O1293 C1302 1.252 . S
O1294 Co1287 2.122 . S
O1294 C1303 1.272 . S
O1295 Co1281 2.113 . S
O1295 C1303 1.245 . S
C1296 O1304 1.259 . S
C1296 O1305 1.257 . S
C1297 O1306 1.268 . S
C1297 O1307 1.253 . S
C1298 O1308 1.281 . S
C1298 O1309 1.252 . S
C1299 O1310 1.272 . S
C1299 O1311 1.245 . S
C1300 O1288 1.259 . S
C1300 O1289 1.257 . S
C1301 O1290 1.253 . S
C1301 O1291 1.268 . S
C1302 O1292 1.281 . S
C1302 O1293 1.252 . S
C1303 O1294 1.272 . S
C1303 O1295 1.245 . S
O1304 Co1280 2.053 . S
O1304 C1296 1.259 . S
O1305 Co1282 2.047 . S
O1305 C1296 1.257 . S
O1306 Co1281 2.063 . S
O1306 C1297 1.268 . S
O1307 Co1280 2.094 . S
O1307 C1297 1.253 . S
O1308 Co1287 2.115 . S
O1308 C1298 1.281 . S
O1309 Co1287 2.315 . S
O1309 C1298 1.252 . S
O1310 Co1280 2.122 . S
O1310 C1299 1.272 . S
O1311 Co1282 2.113 . S
O1311 C1299 1.245 . S
Co1312 H1315 2.400 . S
Co1312 O1316 2.009 . S
Co1312 O1324 2.115 . S
Co1312 O1325 2.315 . S
Co1312 O1336 2.053 . S
Co1312 O1339 2.094 . S
Co1312 O1342 2.122 . S
Co1313 O1316 2.126 . S
Co1313 H1317 2.388 . S
Co1313 O1318 2.053 . S
Co1313 O1321 2.047 . S
Co1313 O1327 2.113 . S
Co1313 O1338 2.063 . S
Co1314 H1315 2.388 . S
Co1314 O1316 2.053 . S
Co1314 O1318 2.126 . S
Co1314 O1323 2.063 . S
Co1314 O1337 2.047 . S
Co1314 O1343 2.113 . S
H1315 Co1312 2.400 . S
H1315 Co1314 2.388 . S
H1315 O1316 0.760 . S
O1316 Co1312 2.009 . S
O1316 Co1313 2.126 . S
O1316 Co1314 2.053 . S
O1316 H1315 0.760 . S
H1317 Co1313 2.388 . S
H1317 O1318 0.760 . S
H1317 Co1319 2.400 . S
O1318 Co1313 2.053 . S
O1318 Co1314 2.126 . S
O1318 H1317 0.760 . S
O1318 Co1319 2.009 . S
Co1319 H1317 2.400 . S
Co1319 O1318 2.009 . S
Co1319 O1320 2.053 . S
Co1319 O1322 2.094 . S
Co1319 O1326 2.122 . S
Co1319 O1340 2.115 . S
Co1319 O1341 2.315 . S
O1320 Co1319 2.053 . S
O1320 C1332 1.259 . S
O1321 Co1313 2.047 . S
O1321 C1332 1.257 . S
O1322 Co1319 2.094 . S
O1322 C1333 1.253 . S
O1323 Co1314 2.063 . S
O1323 C1333 1.268 . S
O1324 Co1312 2.115 . S
O1324 C1334 1.281 . S
O1325 Co1312 2.315 . S
O1325 C1334 1.252 . S
O1326 Co1319 2.122 . S
O1326 C1335 1.272 . S
O1327 Co1313 2.113 . S
O1327 C1335 1.245 . S
C1328 O1336 1.259 . S
C1328 O1337 1.257 . S
C1329 O1338 1.268 . S
C1329 O1339 1.253 . S
C1330 O1340 1.281 . S
C1330 O1341 1.252 . S
C1331 O1342 1.272 . S
C1331 O1343 1.245 . S
C1332 O1320 1.259 . S
C1332 O1321 1.257 . S
C1333 O1322 1.253 . S
C1333 O1323 1.268 . S
C1334 O1324 1.281 . S
C1334 O1325 1.252 . S
C1335 O1326 1.272 . S
C1335 O1327 1.245 . S
O1336 Co1312 2.053 . S
O1336 C1328 1.259 . S
O1337 Co1314 2.047 . S
O1337 C1328 1.257 . S
O1338 Co1313 2.063 . S
O1338 C1329 1.268 . S
O1339 Co1312 2.094 . S
O1339 C1329 1.253 . S
O1340 Co1319 2.115 . S
O1340 C1330 1.281 . S
O1341 Co1319 2.315 . S
O1341 C1330 1.252 . S
O1342 Co1312 2.122 . S
O1342 C1331 1.272 . S
O1343 Co1314 2.113 . S
O1343 C1331 1.245 . S
Co1344 H1347 2.400 . S
Co1344 O1348 2.009 . S
Co1344 O1356 2.115 . S
Co1344 O1357 2.315 . S
Co1344 O1368 2.053 . S
Co1344 O1371 2.094 . S
Co1344 O1374 2.122 . S
Co1345 O1348 2.126 . S
Co1345 H1349 2.388 . S
Co1345 O1350 2.053 . S
Co1345 O1353 2.047 . S
Co1345 O1359 2.113 . S
Co1345 O1370 2.063 . S
Co1346 H1347 2.388 . S
Co1346 O1348 2.053 . S
Co1346 O1350 2.126 . S
Co1346 O1355 2.063 . S
Co1346 O1369 2.047 . S
Co1346 O1375 2.113 . S
H1347 Co1344 2.400 . S
H1347 Co1346 2.388 . S
H1347 O1348 0.760 . S
O1348 Co1344 2.009 . S
O1348 Co1345 2.126 . S
O1348 Co1346 2.053 . S
O1348 H1347 0.760 . S
H1349 Co1345 2.388 . S
H1349 O1350 0.760 . S
H1349 Co1351 2.400 . S
O1350 Co1345 2.053 . S
O1350 Co1346 2.126 . S
O1350 H1349 0.760 . S
O1350 Co1351 2.009 . S
Co1351 H1349 2.400 . S
Co1351 O1350 2.009 . S
Co1351 O1352 2.053 . S
Co1351 O1354 2.094 . S
Co1351 O1358 2.122 . S
Co1351 O1372 2.115 . S
Co1351 O1373 2.315 . S
O1352 Co1351 2.053 . S
O1352 C1364 1.259 . S
O1353 Co1345 2.047 . S
O1353 C1364 1.257 . S
O1354 Co1351 2.094 . S
O1354 C1365 1.253 . S
O1355 Co1346 2.063 . S
O1355 C1365 1.268 . S
O1356 Co1344 2.115 . S
O1356 C1366 1.281 . S
O1357 Co1344 2.315 . S
O1357 C1366 1.252 . S
O1358 Co1351 2.122 . S
O1358 C1367 1.272 . S
O1359 Co1345 2.113 . S
O1359 C1367 1.245 . S
C1360 O1368 1.259 . S
C1360 O1369 1.257 . S
C1361 O1370 1.268 . S
C1361 O1371 1.253 . S
C1362 O1372 1.281 . S
C1362 O1373 1.252 . S
C1363 O1374 1.272 . S
C1363 O1375 1.245 . S
C1364 O1352 1.259 . S
C1364 O1353 1.257 . S
C1365 O1354 1.253 . S
C1365 O1355 1.268 . S
C1366 O1356 1.281 . S
C1366 O1357 1.252 . S
C1367 O1358 1.272 . S
C1367 O1359 1.245 . S
O1368 Co1344 2.053 . S
O1368 C1360 1.259 . S
O1369 Co1346 2.047 . S
O1369 C1360 1.257 . S
O1370 Co1345 2.063 . S
O1370 C1361 1.268 . S
O1371 Co1344 2.094 . S
O1371 C1361 1.253 . S
O1372 Co1351 2.115 . S
O1372 C1362 1.281 . S
O1373 Co1351 2.315 . S
O1373 C1362 1.252 . S
O1374 Co1344 2.122 . S
O1374 C1363 1.272 . S
O1375 Co1346 2.113 . S
O1375 C1363 1.245 . S
Co1376 H1379 2.400 . S
Co1376 O1380 2.009 . S
Co1376 O1388 2.115 . S
Co1376 O1389 2.315 . S
Co1376 O1400 2.053 . S
Co1376 O1403 2.094 . S
Co1376 O1406 2.122 . S
Co1377 O1380 2.126 . S
Co1377 H1381 2.388 . S
Co1377 O1382 2.053 . S
Co1377 O1385 2.047 . S
Co1377 O1391 2.113 . S
Co1377 O1402 2.063 . S
Co1378 H1379 2.388 . S
Co1378 O1380 2.053 . S
Co1378 O1382 2.126 . S
Co1378 O1387 2.063 . S
Co1378 O1401 2.047 . S
Co1378 O1407 2.113 . S
H1379 Co1376 2.400 . S
H1379 Co1378 2.388 . S
H1379 O1380 0.760 . S
O1380 Co1376 2.009 . S
O1380 Co1377 2.126 . S
O1380 Co1378 2.053 . S
O1380 H1379 0.760 . S
H1381 Co1377 2.388 . S
H1381 O1382 0.760 . S
H1381 Co1383 2.400 . S
O1382 Co1377 2.053 . S
O1382 Co1378 2.126 . S
O1382 H1381 0.760 . S
O1382 Co1383 2.009 . S
Co1383 H1381 2.400 . S
Co1383 O1382 2.009 . S
Co1383 O1384 2.053 . S
Co1383 O1386 2.094 . S
Co1383 O1390 2.122 . S
Co1383 O1404 2.115 . S
Co1383 O1405 2.315 . S
O1384 Co1383 2.053 . S
O1384 C1396 1.259 . S
O1385 Co1377 2.047 . S
O1385 C1396 1.257 . S
O1386 Co1383 2.094 . S
O1386 C1397 1.253 . S
O1387 Co1378 2.063 . S
O1387 C1397 1.268 . S
O1388 Co1376 2.115 . S
O1388 C1398 1.281 . S
O1389 Co1376 2.315 . S
O1389 C1398 1.252 . S
O1390 Co1383 2.122 . S
O1390 C1399 1.272 . S
O1391 Co1377 2.113 . S
O1391 C1399 1.245 . S
C1392 O1400 1.259 . S
C1392 O1401 1.257 . S
C1393 O1402 1.268 . S
C1393 O1403 1.253 . S
C1394 O1404 1.281 . S
C1394 O1405 1.252 . S
C1395 O1406 1.272 . S
C1395 O1407 1.245 . S
C1396 O1384 1.259 . S
C1396 O1385 1.257 . S
C1397 O1386 1.253 . S
C1397 O1387 1.268 . S
C1398 O1388 1.281 . S
C1398 O1389 1.252 . S
C1399 O1390 1.272 . S
C1399 O1391 1.245 . S
O1400 Co1376 2.053 . S
O1400 C1392 1.259 . S
O1401 Co1378 2.047 . S
O1401 C1392 1.257 . S
O1402 Co1377 2.063 . S
O1402 C1393 1.268 . S
O1403 Co1376 2.094 . S
O1403 C1393 1.253 . S
O1404 Co1383 2.115 . S
O1404 C1394 1.281 . S
O1405 Co1383 2.315 . S
O1405 C1394 1.252 . S
O1406 Co1376 2.122 . S
O1406 C1395 1.272 . S
O1407 Co1378 2.113 . S
O1407 C1395 1.245 . S
Co1408 H1411 2.400 . S
Co1408 O1412 2.009 . S
Co1408 O1420 2.115 . S
Co1408 O1421 2.315 . S
Co1408 O1432 2.053 . S
Co1408 O1435 2.094 . S
Co1408 O1438 2.122 . S
Co1409 O1412 2.126 . S
Co1409 H1413 2.388 . S
Co1409 O1414 2.053 . S
Co1409 O1417 2.047 . S
Co1409 O1423 2.113 . S
Co1409 O1434 2.063 . S
Co1410 H1411 2.388 . S
Co1410 O1412 2.053 . S
Co1410 O1414 2.126 . S
Co1410 O1419 2.063 . S
Co1410 O1433 2.047 . S
Co1410 O1439 2.113 . S
H1411 Co1408 2.400 . S
H1411 Co1410 2.388 . S
H1411 O1412 0.760 . S
O1412 Co1408 2.009 . S
O1412 Co1409 2.126 . S
O1412 Co1410 2.053 . S
O1412 H1411 0.760 . S
H1413 Co1409 2.388 . S
H1413 O1414 0.760 . S
H1413 Co1415 2.400 . S
O1414 Co1409 2.053 . S
O1414 Co1410 2.126 . S
O1414 H1413 0.760 . S
O1414 Co1415 2.009 . S
Co1415 H1413 2.400 . S
Co1415 O1414 2.009 . S
Co1415 O1416 2.053 . S
Co1415 O1418 2.094 . S
Co1415 O1422 2.122 . S
Co1415 O1436 2.115 . S
Co1415 O1437 2.315 . S
O1416 Co1415 2.053 . S
O1416 C1428 1.259 . S
O1417 Co1409 2.047 . S
O1417 C1428 1.257 . S
O1418 Co1415 2.094 . S
O1418 C1429 1.253 . S
O1419 Co1410 2.063 . S
O1419 C1429 1.268 . S
O1420 Co1408 2.115 . S
O1420 C1430 1.281 . S
O1421 Co1408 2.315 . S
O1421 C1430 1.252 . S
O1422 Co1415 2.122 . S
O1422 C1431 1.272 . S
O1423 Co1409 2.113 . S
O1423 C1431 1.245 . S
C1424 O1432 1.259 . S
C1424 O1433 1.257 . S
C1425 O1434 1.268 . S
C1425 O1435 1.253 . S
C1426 O1436 1.281 . S
C1426 O1437 1.252 . S
C1427 O1438 1.272 . S
C1427 O1439 1.245 . S
C1428 O1416 1.259 . S
C1428 O1417 1.257 . S
C1429 O1418 1.253 . S
C1429 O1419 1.268 . S
C1430 O1420 1.281 . S
C1430 O1421 1.252 . S
C1431 O1422 1.272 . S
C1431 O1423 1.245 . S
O1432 Co1408 2.053 . S
O1432 C1424 1.259 . S
O1433 Co1410 2.047 . S
O1433 C1424 1.257 . S
O1434 Co1409 2.063 . S
O1434 C1425 1.268 . S
O1435 Co1408 2.094 . S
O1435 C1425 1.253 . S
O1436 Co1415 2.115 . S
O1436 C1426 1.281 . S
O1437 Co1415 2.315 . S
O1437 C1426 1.252 . S
O1438 Co1408 2.122 . S
O1438 C1427 1.272 . S
O1439 Co1410 2.113 . S
O1439 C1427 1.245 . S
Co1440 H1443 2.400 . S
Co1440 O1444 2.009 . S
Co1440 O1452 2.115 . S
Co1440 O1453 2.315 . S
Co1440 O1464 2.053 . S
Co1440 O1467 2.094 . S
Co1440 O1470 2.122 . S
Co1441 O1444 2.126 . S
Co1441 H1445 2.388 . S
Co1441 O1446 2.053 . S
Co1441 O1449 2.047 . S
Co1441 O1455 2.113 . S
Co1441 O1466 2.063 . S
Co1442 H1443 2.388 . S
Co1442 O1444 2.053 . S
Co1442 O1446 2.126 . S
Co1442 O1451 2.063 . S
Co1442 O1465 2.047 . S
Co1442 O1471 2.113 . S
H1443 Co1440 2.400 . S
H1443 Co1442 2.388 . S
H1443 O1444 0.760 . S
O1444 Co1440 2.009 . S
O1444 Co1441 2.126 . S
O1444 Co1442 2.053 . S
O1444 H1443 0.760 . S
H1445 Co1441 2.388 . S
H1445 O1446 0.760 . S
H1445 Co1447 2.400 . S
O1446 Co1441 2.053 . S
O1446 Co1442 2.126 . S
O1446 H1445 0.760 . S
O1446 Co1447 2.009 . S
Co1447 H1445 2.400 . S
Co1447 O1446 2.009 . S
Co1447 O1448 2.053 . S
Co1447 O1450 2.094 . S
Co1447 O1454 2.122 . S
Co1447 O1468 2.115 . S
Co1447 O1469 2.315 . S
O1448 Co1447 2.053 . S
O1448 C1460 1.259 . S
O1449 Co1441 2.047 . S
O1449 C1460 1.257 . S
O1450 Co1447 2.094 . S
O1450 C1461 1.253 . S
O1451 Co1442 2.063 . S
O1451 C1461 1.268 . S
O1452 Co1440 2.115 . S
O1452 C1462 1.281 . S
O1453 Co1440 2.315 . S
O1453 C1462 1.252 . S
O1454 Co1447 2.122 . S
O1454 C1463 1.272 . S
O1455 Co1441 2.113 . S
O1455 C1463 1.245 . S
C1456 O1464 1.259 . S
C1456 O1465 1.257 . S
C1457 O1466 1.268 . S
C1457 O1467 1.253 . S
C1458 O1468 1.281 . S
C1458 O1469 1.252 . S
C1459 O1470 1.272 . S
C1459 O1471 1.245 . S
C1460 O1448 1.259 . S
C1460 O1449 1.257 . S
C1461 O1450 1.253 . S
C1461 O1451 1.268 . S
C1462 O1452 1.281 . S
C1462 O1453 1.252 . S
C1463 O1454 1.272 . S
C1463 O1455 1.245 . S
O1464 Co1440 2.053 . S
O1464 C1456 1.259 . S
O1465 Co1442 2.047 . S
O1465 C1456 1.257 . S
O1466 Co1441 2.063 . S
O1466 C1457 1.268 . S
O1467 Co1440 2.094 . S
O1467 C1457 1.253 . S
O1468 Co1447 2.115 . S
O1468 C1458 1.281 . S
O1469 Co1447 2.315 . S
O1469 C1458 1.252 . S
O1470 Co1440 2.122 . S
O1470 C1459 1.272 . S
O1471 Co1442 2.113 . S
O1471 C1459 1.245 . S
Co1472 H1475 2.400 . S
Co1472 O1476 2.009 . S
Co1472 O1484 2.115 . S
Co1472 O1485 2.315 . S
Co1472 O1496 2.053 . S
Co1472 O1499 2.094 . S
Co1472 O1502 2.122 . S
Co1473 O1476 2.126 . S
Co1473 H1477 2.388 . S
Co1473 O1478 2.053 . S
Co1473 O1481 2.047 . S
Co1473 O1487 2.113 . S
Co1473 O1498 2.063 . S
Co1474 H1475 2.388 . S
Co1474 O1476 2.053 . S
Co1474 O1478 2.126 . S
Co1474 O1483 2.063 . S
Co1474 O1497 2.047 . S
Co1474 O1503 2.113 . S
H1475 Co1472 2.400 . S
H1475 Co1474 2.388 . S
H1475 O1476 0.760 . S
O1476 Co1472 2.009 . S
O1476 Co1473 2.126 . S
O1476 Co1474 2.053 . S
O1476 H1475 0.760 . S
H1477 Co1473 2.388 . S
H1477 O1478 0.760 . S
H1477 Co1479 2.400 . S
O1478 Co1473 2.053 . S
O1478 Co1474 2.126 . S
O1478 H1477 0.760 . S
O1478 Co1479 2.009 . S
Co1479 H1477 2.400 . S
Co1479 O1478 2.009 . S
Co1479 O1480 2.053 . S
Co1479 O1482 2.094 . S
Co1479 O1486 2.122 . S
Co1479 O1500 2.115 . S
Co1479 O1501 2.315 . S
O1480 Co1479 2.053 . S
O1480 C1492 1.259 . S
O1481 Co1473 2.047 . S
O1481 C1492 1.257 . S
O1482 Co1479 2.094 . S
O1482 C1493 1.253 . S
O1483 Co1474 2.063 . S
O1483 C1493 1.268 . S
O1484 Co1472 2.115 . S
O1484 C1494 1.281 . S
O1485 Co1472 2.315 . S
O1485 C1494 1.252 . S
O1486 Co1479 2.122 . S
O1486 C1495 1.272 . S
O1487 Co1473 2.113 . S
O1487 C1495 1.245 . S
C1488 O1496 1.259 . S
C1488 O1497 1.257 . S
C1489 O1498 1.268 . S
C1489 O1499 1.253 . S
C1490 O1500 1.281 . S
C1490 O1501 1.252 . S
C1491 O1502 1.272 . S
C1491 O1503 1.245 . S
C1492 O1480 1.259 . S
C1492 O1481 1.257 . S
C1493 O1482 1.253 . S
C1493 O1483 1.268 . S
C1494 O1484 1.281 . S
C1494 O1485 1.252 . S
C1495 O1486 1.272 . S
C1495 O1487 1.245 . S
O1496 Co1472 2.053 . S
O1496 C1488 1.259 . S
O1497 Co1474 2.047 . S
O1497 C1488 1.257 . S
O1498 Co1473 2.063 . S
O1498 C1489 1.268 . S
O1499 Co1472 2.094 . S
O1499 C1489 1.253 . S
O1500 Co1479 2.115 . S
O1500 C1490 1.281 . S
O1501 Co1479 2.315 . S
O1501 C1490 1.252 . S
O1502 Co1472 2.122 . S
O1502 C1491 1.272 . S
O1503 Co1474 2.113 . S
O1503 C1491 1.245 . S
Co1504 H1507 2.400 . S
Co1504 O1508 2.009 . S
Co1504 O1516 2.115 . S
Co1504 O1517 2.315 . S
Co1504 O1528 2.053 . S
Co1504 O1531 2.094 . S
Co1504 O1534 2.122 . S
Co1505 O1508 2.126 . S
Co1505 H1509 2.388 . S
Co1505 O1510 2.053 . S
Co1505 O1513 2.047 . S
Co1505 O1519 2.113 . S
Co1505 O1530 2.063 . S
Co1506 H1507 2.388 . S
Co1506 O1508 2.053 . S
Co1506 O1510 2.126 . S
Co1506 O1515 2.063 . S
Co1506 O1529 2.047 . S
Co1506 O1535 2.113 . S
H1507 Co1504 2.400 . S
H1507 Co1506 2.388 . S
H1507 O1508 0.760 . S
O1508 Co1504 2.009 . S
O1508 Co1505 2.126 . S
O1508 Co1506 2.053 . S
O1508 H1507 0.760 . S
H1509 Co1505 2.388 . S
H1509 O1510 0.760 . S
H1509 Co1511 2.400 . S
O1510 Co1505 2.053 . S
O1510 Co1506 2.126 . S
O1510 H1509 0.760 . S
O1510 Co1511 2.009 . S
Co1511 H1509 2.400 . S
Co1511 O1510 2.009 . S
Co1511 O1512 2.053 . S
Co1511 O1514 2.094 . S
Co1511 O1518 2.122 . S
Co1511 O1532 2.115 . S
Co1511 O1533 2.315 . S
O1512 Co1511 2.053 . S
O1512 C1524 1.259 . S
O1513 Co1505 2.047 . S
O1513 C1524 1.257 . S
O1514 Co1511 2.094 . S
O1514 C1525 1.253 . S
O1515 Co1506 2.063 . S
O1515 C1525 1.268 . S
O1516 Co1504 2.115 . S
O1516 C1526 1.281 . S
O1517 Co1504 2.315 . S
O1517 C1526 1.252 . S
O1518 Co1511 2.122 . S
O1518 C1527 1.272 . S
O1519 Co1505 2.113 . S
O1519 C1527 1.245 . S
C1520 O1528 1.259 . S
C1520 O1529 1.257 . S
C1521 O1530 1.268 . S
C1521 O1531 1.253 . S
C1522 O1532 1.281 . S
C1522 O1533 1.252 . S
C1523 O1534 1.272 . S
C1523 O1535 1.245 . S
C1524 O1512 1.259 . S
C1524 O1513 1.257 . S
C1525 O1514 1.253 . S
C1525 O1515 1.268 . S
C1526 O1516 1.281 . S
C1526 O1517 1.252 . S
C1527 O1518 1.272 . S
C1527 O1519 1.245 . S
O1528 Co1504 2.053 . S
O1528 C1520 1.259 . S
O1529 Co1506 2.047 . S
O1529 C1520 1.257 . S
O1530 Co1505 2.063 . S
O1530 C1521 1.268 . S
O1531 Co1504 2.094 . S
O1531 C1521 1.253 . S
O1532 Co1511 2.115 . S
O1532 C1522 1.281 . S
O1533 Co1511 2.315 . S
O1533 C1522 1.252 . S
O1534 Co1504 2.122 . S
O1534 C1523 1.272 . S
O1535 Co1506 2.113 . S
O1535 C1523 1.245 . S
H1536 C1542 0.930 . S
H1537 C1546 0.930 . S
H1538 C1551 0.929 . S
H1539 C1549 0.929 . S
H1540 C1544 0.929 . S
H1541 C1550 0.929 . S
C1542 H1536 0.930 . S
C1542 C1543 1.367 1_545 S
C1542 C1550 1.378 . S
C1543 C1542 1.367 1_565 S
C1543 C1551 1.433 . S
C1544 H1540 0.929 . S
C1544 C1546 1.378 . S
C1544 C1548 1.350 . S
C1545 C1548 1.463 . S
C1545 C1550 1.350 . S
C1545 N1553 1.427 1_545 S
C1546 H1537 0.930 . S
C1546 C1544 1.378 . S
C1546 C1547 1.367 . S
C1547 C1546 1.367 . S
C1547 C1549 1.433 . S
C1548 C1544 1.350 . S
C1548 C1545 1.463 . S
C1548 N1552 1.427 . S
C1549 H1539 0.929 . S
C1549 C1547 1.433 . S
C1549 N1552 1.384 . S
C1550 H1541 0.929 . S
C1550 C1542 1.378 . S
C1550 C1545 1.350 . S
C1551 H1538 0.929 . S
C1551 C1543 1.433 . S
C1551 N1553 1.384 . S
N1552 C1548 1.427 . S
N1552 C1549 1.384 . S
N1553 C1545 1.427 1_565 S
N1553 C1551 1.384 . S
H1554 C1560 0.930 . S
H1555 C1564 0.930 . S
H1556 C1569 0.929 . S
H1557 C1567 0.929 . S
H1558 C1562 0.929 1_455 S
H1559 C1568 0.957 . S
C1560 H1554 0.930 . S
C1560 C1561 1.367 . S
C1560 C1568 1.351 1_455 S
C1561 C1560 1.367 . S
C1561 C1569 1.433 . S
C1562 H1558 0.929 1_655 S
C1562 C1564 1.378 . S
C1562 C1566 1.350 . S
C1563 C1566 1.463 1_455 S
C1563 C1568 1.350 1_455 S
C1563 N1571 1.427 . S
C1564 H1555 0.930 . S
C1564 C1562 1.378 . S
C1564 C1565 1.367 . S
C1565 C1564 1.367 . S
C1565 C1567 1.433 . S
C1566 C1562 1.350 . S
C1566 C1563 1.463 1_655 S
C1566 N1570 1.427 . S
C1567 H1557 0.929 . S
C1567 C1565 1.433 . S
C1567 N1570 1.384 . S
C1568 H1559 0.957 . S
C1568 C1560 1.351 1_655 S
C1568 C1563 1.350 1_655 S
C1569 H1556 0.929 . S
C1569 C1561 1.433 . S
C1569 N1571 1.384 . S
N1570 C1566 1.427 . S
N1570 C1567 1.384 . S
N1571 C1563 1.427 . S
N1571 C1569 1.384 . S
H1572 C1578 0.930 . S
H1573 C1582 0.930 . S
H1574 C1587 0.929 . S
H1575 C1585 0.929 . S
H1576 C1580 0.929 . S
H1577 C1586 0.929 . S
C1578 H1572 0.930 . S
C1578 C1579 1.367 . S
C1578 C1586 1.378 . S
C1579 C1578 1.367 . S
C1579 C1587 1.433 . S
C1580 H1576 0.929 . S
C1580 C1582 1.378 . S
C1580 C1584 1.350 . S
C1581 C1584 1.463 1_556 S
C1581 C1586 1.350 . S
C1581 N1589 1.427 . S
C1582 H1573 0.930 . S
C1582 C1580 1.378 . S
C1582 C1583 1.367 . S
C1583 C1582 1.367 . S
C1583 C1585 1.433 . S
C1584 C1580 1.350 . S
C1584 C1581 1.463 1_554 S
C1584 N1588 1.427 . S
C1585 H1575 0.929 . S
C1585 C1583 1.433 . S
C1585 N1588 1.384 . S
C1586 H1577 0.929 . S
C1586 C1578 1.378 . S
C1586 C1581 1.350 . S
C1587 H1574 0.929 . S
C1587 C1579 1.433 . S
C1587 N1589 1.384 . S
N1588 C1584 1.427 . S
N1588 C1585 1.384 . S
N1589 C1581 1.427 . S
N1589 C1587 1.384 . S
H1590 C1596 0.930 . S
H1591 C1600 0.930 . S
H1592 C1605 0.929 . S
H1593 C1603 0.929 . S
H1594 C1598 0.929 . S
H1595 C1604 0.929 . S
C1596 H1590 0.930 . S
C1596 C1597 1.367 . S
C1596 C1604 1.378 . S
C1597 C1596 1.367 . S
C1597 C1605 1.433 . S
C1598 H1594 0.929 . S
C1598 C1600 1.378 . S
C1598 C1602 1.350 . S
C1599 C1602 1.463 . S
C1599 C1604 1.350 . S
C1599 N1607 1.427 . S
C1600 H1591 0.930 . S
C1600 C1598 1.378 . S
C1600 C1601 1.367 . S
C1601 C1600 1.367 . S
C1601 C1603 1.433 . S
C1602 C1598 1.350 . S
C1602 C1599 1.463 . S
C1602 N1606 1.427 . S
C1603 H1593 0.929 . S
C1603 C1601 1.433 . S
C1603 N1606 1.384 . S
C1604 H1595 0.929 . S
C1604 C1596 1.378 . S
C1604 C1599 1.350 . S
C1605 H1592 0.929 . S
C1605 C1597 1.433 . S
C1605 N1607 1.384 . S
N1606 C1602 1.427 . S
N1606 C1603 1.384 . S
N1607 C1599 1.427 . S
N1607 C1605 1.384 . S
H1608 C1614 0.930 . S
H1609 C1618 0.930 . S
H1610 C1623 0.929 . S
H1611 C1621 0.929 . S
H1612 C1616 0.929 . S
H1613 C1622 0.929 . S
C1614 H1608 0.930 . S
C1614 C1615 1.367 . S
C1614 C1622 1.378 . S
C1615 C1614 1.367 . S
C1615 C1623 1.433 . S
C1616 H1612 0.929 . S
C1616 C1618 1.378 . S
C1616 C1620 1.350 . S
C1617 C1620 1.463 . S
C1617 C1622 1.350 . S
C1617 N1625 1.427 . S
C1618 H1609 0.930 . S
C1618 C1616 1.378 . S
C1618 C1619 1.367 . S
C1619 C1618 1.367 . S
C1619 C1621 1.433 . S
C1620 C1616 1.350 . S
C1620 C1617 1.463 . S
C1620 N1624 1.427 . S
C1621 H1611 0.929 . S
C1621 C1619 1.433 . S
C1621 N1624 1.384 . S
C1622 H1613 0.929 . S
C1622 C1614 1.378 . S
C1622 C1617 1.350 . S
C1623 H1610 0.929 . S
C1623 C1615 1.433 . S
C1623 N1625 1.384 . S
N1624 C1620 1.427 . S
N1624 C1621 1.384 . S
N1625 C1617 1.427 . S
N1625 C1623 1.384 . S
H1626 C1632 0.930 . S
H1627 C1636 0.930 . S
H1628 C1641 0.929 . S
H1629 C1639 0.929 . S
H1630 C1634 0.929 . S
H1631 C1640 0.929 . S
C1632 H1626 0.930 . S
C1632 C1633 1.367 . S
C1632 C1640 1.378 . S
C1633 C1632 1.367 . S
C1633 C1641 1.433 . S
C1634 H1630 0.929 . S
C1634 C1636 1.378 . S
C1634 C1638 1.350 . S
C1635 C1638 1.463 . S
C1635 C1640 1.350 1_554 S
C1635 N1643 1.427 1_554 S
C1636 H1627 0.930 . S
C1636 C1634 1.378 . S
C1636 C1637 1.367 . S
C1637 C1636 1.367 . S
C1637 C1639 1.433 . S
C1638 C1634 1.350 . S
C1638 C1635 1.463 . S
C1638 N1642 1.427 . S
C1639 H1629 0.929 . S
C1639 C1637 1.433 . S
C1639 N1642 1.384 . S
C1640 H1631 0.929 . S
C1640 C1632 1.378 . S
C1640 C1635 1.350 1_556 S
C1641 H1628 0.929 . S
C1641 C1633 1.433 . S
C1641 N1643 1.384 . S
N1642 C1638 1.427 . S
N1642 C1639 1.384 . S
N1643 C1635 1.427 1_556 S
N1643 C1641 1.384 . S
H1644 C1650 0.930 . S
H1645 C1654 0.930 . S
H1646 C1659 0.929 . S
H1647 C1657 0.929 . S
H1648 C1652 0.929 . S
H1649 C1658 0.929 . S
C1650 H1644 0.930 . S
C1650 C1651 1.367 . S
C1650 C1658 1.378 . S
C1651 C1650 1.367 . S
C1651 C1659 1.433 . S
C1652 H1648 0.929 . S
C1652 C1654 1.378 1_545 S
C1652 C1656 1.350 . S
C1653 C1656 1.463 . S
C1653 C1658 1.350 . S
C1653 N1661 1.427 . S
C1654 H1645 0.930 . S
C1654 C1652 1.378 1_565 S
C1654 C1655 1.367 . S
C1655 C1654 1.367 . S
C1655 C1657 1.433 . S
C1656 C1652 1.350 . S
C1656 C1653 1.463 . S
C1656 N1660 1.405 1_545 S
C1657 H1647 0.929 . S
C1657 C1655 1.433 . S
C1657 N1660 1.412 . S
C1658 H1649 0.929 . S
C1658 C1650 1.378 . S
C1658 C1653 1.350 . S
C1659 H1646 0.929 . S
C1659 C1651 1.433 . S
C1659 N1661 1.384 . S
N1660 C1656 1.405 1_565 S
N1660 C1657 1.412 . S
N1661 C1653 1.427 . S
N1661 C1659 1.384 . S
H1662 C1668 0.930 . S
H1663 C1672 0.930 . S
H1664 C1677 0.929 . S
H1665 C1675 0.929 . S
H1666 C1670 0.929 . S
H1667 C1676 0.929 . S
C1668 H1662 0.930 . S
C1668 C1669 1.367 . S
C1668 C1676 1.378 . S
C1669 C1668 1.367 . S
C1669 C1677 1.433 . S
C1670 H1666 0.929 . S
C1670 C1672 1.378 . S
C1670 C1674 1.350 . S
C1671 C1674 1.507 . S
C1671 C1676 1.305 1_655 S
C1671 N1679 1.433 . S
C1672 H1663 0.930 . S
C1672 C1670 1.378 . S
C1672 C1673 1.367 . S
C1673 C1672 1.367 . S
C1673 C1675 1.433 . S
C1674 C1670 1.350 . S
C1674 C1671 1.507 . S
C1674 N1678 1.427 . S
C1675 H1665 0.929 . S
C1675 C1673 1.433 . S
C1675 N1678 1.384 . S
C1676 H1667 0.929 . S
C1676 C1668 1.378 . S
C1676 C1671 1.305 1_455 S
C1677 H1664 0.929 . S
C1677 C1669 1.433 . S
C1677 N1679 1.384 1_455 S
N1678 C1674 1.427 . S
N1678 C1675 1.384 . S
N1679 C1671 1.433 . S
N1679 C1677 1.384 1_655 S
H1680 C1686 0.930 . S
H1681 C1690 0.939 . S
H1682 C1695 0.929 . S
H1683 C1693 0.929 . S
H1684 C1688 0.929 . S
H1685 C1694 0.929 . S
C1686 H1680 0.930 . S
C1686 C1687 1.367 . S
C1686 C1694 1.378 . S
C1687 C1686 1.367 . S
C1687 C1695 1.433 . S
C1688 H1684 0.929 . S
C1688 C1690 1.391 . S
C1688 C1692 1.350 . S
C1689 C1692 1.463 . S
C1689 C1694 1.350 . S
C1689 N1697 1.427 . S
C1690 H1681 0.939 . S
C1690 C1688 1.391 . S
C1690 C1691 1.346 1_554 S
C1691 C1690 1.346 1_556 S
C1691 C1693 1.433 . S
C1692 C1688 1.350 . S
C1692 C1689 1.463 . S
C1692 N1696 1.427 1_554 S
C1693 H1683 0.929 . S
C1693 C1691 1.433 . S
C1693 N1696 1.384 . S
C1694 H1685 0.929 . S
C1694 C1686 1.378 . S
C1694 C1689 1.350 . S
C1695 H1682 0.929 . S
C1695 C1687 1.433 . S
C1695 N1697 1.384 . S
N1696 C1692 1.427 1_556 S
N1696 C1693 1.384 . S
N1697 C1689 1.427 . S
N1697 C1695 1.384 . S
H1698 C1704 0.930 . S
H1699 C1708 0.930 . S
H1700 C1713 0.929 . S
H1701 C1711 0.929 . S
H1702 C1706 0.929 . S
H1703 C1712 0.929 . S
C1704 H1698 0.930 . S
C1704 C1705 1.367 . S
C1704 C1712 1.378 . S
C1705 C1704 1.367 . S
C1705 C1713 1.433 . S
C1706 H1702 0.929 . S
C1706 C1708 1.378 . S
C1706 C1710 1.350 . S
C1707 C1710 1.463 . S
C1707 C1712 1.350 . S
C1707 N1715 1.427 . S
C1708 H1699 0.930 . S
C1708 C1706 1.378 . S
C1708 C1709 1.367 . S
C1709 C1708 1.367 . S
C1709 C1711 1.433 . S
C1710 C1706 1.350 . S
C1710 C1707 1.463 . S
C1710 N1714 1.427 . S
C1711 H1701 0.929 . S
C1711 C1709 1.433 . S
C1711 N1714 1.384 . S
C1712 H1703 0.929 . S
C1712 C1704 1.378 . S
C1712 C1707 1.350 . S
C1713 H1700 0.929 . S
C1713 C1705 1.433 . S
C1713 N1715 1.384 . S
N1714 C1710 1.427 . S
N1714 C1711 1.384 . S
N1715 C1707 1.427 . S
N1715 C1713 1.384 . S
H1716 C1722 0.930 . S
H1717 C1726 0.930 . S
H1718 C1731 0.929 . S
H1719 C1729 0.929 . S
H1720 C1724 0.929 . S
H1721 C1730 0.929 . S
C1722 H1716 0.930 . S
C1722 C1723 1.367 . S
C1722 C1730 1.378 . S
C1723 C1722 1.367 . S
C1723 C1731 1.433 . S
C1724 H1720 0.929 . S
C1724 C1726 1.378 . S
C1724 C1728 1.350 . S
C1725 C1728 1.463 . S
C1725 C1730 1.350 . S
C1725 N1733 1.427 . S
C1726 H1717 0.930 . S
C1726 C1724 1.378 . S
C1726 C1727 1.367 . S
C1727 C1726 1.367 . S
C1727 C1729 1.433 . S
C1728 C1724 1.350 . S
C1728 C1725 1.463 . S
C1728 N1732 1.427 . S
C1729 H1719 0.929 . S
C1729 C1727 1.433 . S
C1729 N1732 1.384 . S
C1730 H1721 0.929 . S
C1730 C1722 1.378 . S
C1730 C1725 1.350 . S
C1731 H1718 0.929 . S
C1731 C1723 1.433 . S
C1731 N1733 1.384 . S
N1732 C1728 1.427 . S
N1732 C1729 1.384 . S
N1733 C1725 1.427 . S
N1733 C1731 1.384 . S
H1734 C1740 0.930 . S
H1735 C1744 0.930 . S
H1736 C1749 0.929 . S
H1737 C1747 0.929 . S
H1738 C1742 0.929 . S
H1739 C1748 0.929 . S
C1740 H1734 0.930 . S
C1740 C1741 1.367 . S
C1740 C1748 1.378 . S
C1741 C1740 1.367 . S
C1741 C1749 1.433 . S
C1742 H1738 0.929 . S
C1742 C1744 1.378 . S
C1742 C1746 1.350 . S
C1743 C1746 1.463 . S
C1743 C1748 1.350 . S
C1743 N1751 1.427 . S
C1744 H1735 0.930 . S
C1744 C1742 1.378 . S
C1744 C1745 1.367 . S
C1745 C1744 1.367 . S
C1745 C1747 1.433 . S
C1746 C1742 1.350 . S
C1746 C1743 1.463 . S
C1746 N1750 1.427 . S
C1747 H1737 0.929 . S
C1747 C1745 1.433 . S
C1747 N1750 1.384 . S
C1748 H1739 0.929 . S
C1748 C1740 1.378 . S
C1748 C1743 1.350 . S
C1749 H1736 0.929 . S
C1749 C1741 1.433 . S
C1749 N1751 1.384 . S
N1750 C1746 1.427 . S
N1750 C1747 1.384 . S
N1751 C1743 1.427 . S
N1751 C1749 1.384 . S
H1752 C1758 0.930 . S
H1753 C1762 0.930 . S
H1754 C1767 0.929 . S
H1755 C1765 0.929 . S
H1756 C1760 0.929 . S
H1757 C1766 0.929 . S
C1758 H1752 0.930 . S
C1758 C1759 1.367 . S
C1758 C1766 1.378 . S
C1759 C1758 1.367 . S
C1759 C1767 1.433 . S
C1760 H1756 0.929 . S
C1760 C1762 1.378 . S
C1760 C1764 1.350 . S
C1761 C1764 1.463 . S
C1761 C1766 1.350 . S
C1761 N1769 1.427 . S
C1762 H1753 0.930 . S
C1762 C1760 1.378 . S
C1762 C1763 1.367 . S
C1763 C1762 1.367 . S
C1763 C1765 1.433 . S
C1764 C1760 1.350 . S
C1764 C1761 1.463 . S
C1764 N1768 1.427 . S
C1765 H1755 0.929 . S
C1765 C1763 1.433 . S
C1765 N1768 1.384 . S
C1766 H1757 0.929 . S
C1766 C1758 1.378 . S
C1766 C1761 1.350 . S
C1767 H1754 0.929 . S
C1767 C1759 1.433 . S
C1767 N1769 1.384 . S
N1768 C1764 1.427 . S
N1768 C1765 1.384 . S
N1769 C1761 1.427 . S
N1769 C1767 1.384 . S
H1770 C1776 0.930 . S
H1771 C1780 0.930 . S
H1772 C1785 0.929 . S
H1773 C1783 0.929 . S
H1774 C1778 0.929 . S
H1775 C1784 0.929 . S
C1776 H1770 0.930 . S
C1776 C1777 1.367 . S
C1776 C1784 1.378 . S
C1777 C1776 1.367 . S
C1777 C1785 1.433 . S
C1778 H1774 0.929 . S
C1778 C1780 1.378 . S
C1778 C1782 1.350 . S
C1779 C1782 1.463 . S
C1779 C1784 1.350 . S
C1779 N1787 1.427 . S
C1780 H1771 0.930 . S
C1780 C1778 1.378 . S
C1780 C1781 1.367 . S
C1781 C1780 1.367 . S
C1781 C1783 1.433 . S
C1782 C1778 1.350 . S
C1782 C1779 1.463 . S
C1782 N1786 1.427 . S
C1783 H1773 0.929 . S
C1783 C1781 1.433 . S
C1783 N1786 1.384 . S
C1784 H1775 0.929 . S
C1784 C1776 1.378 . S
C1784 C1779 1.350 . S
C1785 H1772 0.929 . S
C1785 C1777 1.433 . S
C1785 N1787 1.384 . S
N1786 C1782 1.427 . S
N1786 C1783 1.384 . S
N1787 C1779 1.427 . S
N1787 C1785 1.384 . S
H1788 C1794 0.930 . S
H1789 C1798 0.930 . S
H1790 C1803 0.929 . S
H1791 C1801 0.929 . S
H1792 C1796 0.929 . S
H1793 C1802 0.929 . S
C1794 H1788 0.930 . S
C1794 C1795 1.367 . S
C1794 C1802 1.378 . S
C1795 C1794 1.367 . S
C1795 C1803 1.433 . S
C1796 H1792 0.929 . S
C1796 C1798 1.378 . S
C1796 C1800 1.350 . S
C1797 C1800 1.463 . S
C1797 C1802 1.350 . S
C1797 N1805 1.427 . S
C1798 H1789 0.930 . S
C1798 C1796 1.378 . S
C1798 C1799 1.367 . S
C1799 C1798 1.367 . S
C1799 C1801 1.433 . S
C1800 C1796 1.350 . S
C1800 C1797 1.463 . S
C1800 N1804 1.427 . S
C1801 H1791 0.929 . S
C1801 C1799 1.433 . S
C1801 N1804 1.384 . S
C1802 H1793 0.929 . S
C1802 C1794 1.378 . S
C1802 C1797 1.350 . S
C1803 H1790 0.929 . S
C1803 C1795 1.433 . S
C1803 N1805 1.384 . S
N1804 C1800 1.427 . S
N1804 C1801 1.384 . S
N1805 C1797 1.427 . S
N1805 C1803 1.384 . S
H1806 C1812 0.930 . S
H1807 C1816 0.930 . S
H1808 C1821 0.929 . S
H1809 C1819 0.929 . S
H1810 C1814 0.929 . S
H1811 C1820 0.929 . S
C1812 H1806 0.930 . S
C1812 C1813 1.367 . S
C1812 C1820 1.378 . S
C1813 C1812 1.367 . S
C1813 C1821 1.433 . S
C1814 H1810 0.929 . S
C1814 C1816 1.378 . S
C1814 C1818 1.350 . S
C1815 C1818 1.463 1_554 S
C1815 C1820 1.350 . S
C1815 N1823 1.427 1_554 S
C1816 H1807 0.930 . S
C1816 C1814 1.378 . S
C1816 C1817 1.367 . S
C1817 C1816 1.367 . S
C1817 C1819 1.433 . S
C1818 C1814 1.350 . S
C1818 C1815 1.463 1_556 S
C1818 N1822 1.427 . S
C1819 H1809 0.929 . S
C1819 C1817 1.433 . S
C1819 N1822 1.384 . S
C1820 H1811 0.929 . S
C1820 C1812 1.378 . S
C1820 C1815 1.350 . S
C1821 H1808 0.929 . S
C1821 C1813 1.433 . S
C1821 N1823 1.384 1_554 S
N1822 C1818 1.427 . S
N1822 C1819 1.384 . S
N1823 C1815 1.427 1_556 S
N1823 C1821 1.384 1_556 S
H1824 C1830 0.930 . S
H1825 C1834 0.930 . S
H1826 C1839 0.929 . S
H1827 C1837 0.929 . S
H1828 C1832 0.929 . S
H1829 C1838 0.929 . S
C1830 H1824 0.930 . S
C1830 C1831 1.367 . S
C1830 C1838 1.378 1_455 S
C1831 C1830 1.367 . S
C1831 C1839 1.433 . S
C1832 H1828 0.929 . S
C1832 C1834 1.378 . S
C1832 C1836 1.350 . S
C1833 C1836 1.463 . S
C1833 C1838 1.350 . S
C1833 N1841 1.427 1_655 S
C1834 H1825 0.930 . S
C1834 C1832 1.378 . S
C1834 C1835 1.367 . S
C1835 C1834 1.367 . S
C1835 C1837 1.433 . S
C1836 C1832 1.350 . S
C1836 C1833 1.463 . S
C1836 N1840 1.427 . S
C1837 H1827 0.929 . S
C1837 C1835 1.433 . S
C1837 N1840 1.384 . S
C1838 H1829 0.929 . S
C1838 C1830 1.378 1_655 S
C1838 C1833 1.350 . S
C1839 H1826 0.929 . S
C1839 C1831 1.433 . S
C1839 N1841 1.384 . S
N1840 C1836 1.427 . S
N1840 C1837 1.384 . S
N1841 C1833 1.427 1_455 S
N1841 C1839 1.384 . S
H1842 C1848 0.930 . S
H1843 C1852 0.930 . S
H1844 C1857 0.929 . S
H1845 C1855 0.929 . S
H1846 C1850 0.929 . S
H1847 C1856 0.929 . S
C1848 H1842 0.930 . S
C1848 C1849 1.367 . S
C1848 C1856 1.378 . S
C1849 C1848 1.367 . S
C1849 C1857 1.433 . S
C1850 H1846 0.929 . S
C1850 C1852 1.378 . S
C1850 C1854 1.350 . S
C1851 C1854 1.463 . S
C1851 C1856 1.350 . S
C1851 N1859 1.427 . S
C1852 H1843 0.930 . S
C1852 C1850 1.378 . S
C1852 C1853 1.367 . S
C1853 C1852 1.367 . S
C1853 C1855 1.433 . S
C1854 C1850 1.350 . S
C1854 C1851 1.463 . S
C1854 N1858 1.427 . S
C1855 H1845 0.929 . S
C1855 C1853 1.433 . S
C1855 N1858 1.384 . S
C1856 H1847 0.929 . S
C1856 C1848 1.378 . S
C1856 C1851 1.350 . S
C1857 H1844 0.929 . S
C1857 C1849 1.433 . S
C1857 N1859 1.384 . S
N1858 C1854 1.427 . S
N1858 C1855 1.384 . S
N1859 C1851 1.427 . S
N1859 C1857 1.384 . S
H1860 C1866 0.930 . S
H1861 C1870 0.930 . S
H1862 C1875 0.929 . S
H1863 C1873 0.929 . S
H1864 C1868 0.929 . S
H1865 C1874 0.929 . S
C1866 H1860 0.930 . S
C1866 C1867 1.367 . S
C1866 C1874 1.378 . S
C1867 C1866 1.367 . S
C1867 C1875 1.433 . S
C1868 H1864 0.929 . S
C1868 C1870 1.378 . S
C1868 C1872 1.350 . S
C1869 C1872 1.463 . S
C1869 C1874 1.350 . S
C1869 N1877 1.427 . S
C1870 H1861 0.930 . S
C1870 C1868 1.378 . S
C1870 C1871 1.367 . S
C1871 C1870 1.367 . S
C1871 C1873 1.433 . S
C1872 C1868 1.350 . S
C1872 C1869 1.463 . S
C1872 N1876 1.427 . S
C1873 H1863 0.929 . S
C1873 C1871 1.433 . S
C1873 N1876 1.384 . S
C1874 H1865 0.929 . S
C1874 C1866 1.378 . S
C1874 C1869 1.350 . S
C1875 H1862 0.929 . S
C1875 C1867 1.433 . S
C1875 N1877 1.384 . S
N1876 C1872 1.427 . S
N1876 C1873 1.384 . S
N1877 C1869 1.427 . S
N1877 C1875 1.384 . S
H1878 C1884 0.930 . S
H1879 C1888 0.930 . S
H1880 C1893 0.929 . S
H1881 C1891 0.929 . S
H1882 C1886 0.929 . S
H1883 C1892 0.929 . S
C1884 H1878 0.930 . S
C1884 C1885 1.367 . S
C1884 C1892 1.378 . S
C1885 C1884 1.367 . S
C1885 C1893 1.433 . S
C1886 H1882 0.929 . S
C1886 C1888 1.378 1_545 S
C1886 C1890 1.350 . S
C1887 C1890 1.463 . S
C1887 C1892 1.350 . S
C1887 N1895 1.427 . S
C1888 H1879 0.930 . S
C1888 C1886 1.378 1_565 S
C1888 C1889 1.367 . S
C1889 C1888 1.367 . S
C1889 C1891 1.433 . S
C1890 C1886 1.350 . S
C1890 C1887 1.463 . S
C1890 N1894 1.427 1_545 S
C1891 H1881 0.929 . S
C1891 C1889 1.433 . S
C1891 N1894 1.384 . S
C1892 H1883 0.929 . S
C1892 C1884 1.378 . S
C1892 C1887 1.350 . S
C1893 H1880 0.929 . S
C1893 C1885 1.433 . S
C1893 N1895 1.384 . S
N1894 C1890 1.427 1_565 S
N1894 C1891 1.384 . S
N1895 C1887 1.427 . S
N1895 C1893 1.384 . S
H1896 C1902 0.930 . S
H1897 C1906 0.930 . S
H1898 C1911 0.929 . S
H1899 C1909 0.929 . S
H1900 C1904 0.929 . S
H1901 C1910 0.929 . S
C1902 H1896 0.930 . S
C1902 C1903 1.367 . S
C1902 C1910 1.378 . S
C1903 C1902 1.367 . S
C1903 C1911 1.433 . S
C1904 H1900 0.929 . S
C1904 C1906 1.378 . S
C1904 C1908 1.350 . S
C1905 C1908 1.463 . S
C1905 C1910 1.350 . S
C1905 N1913 1.427 . S
C1906 H1897 0.930 . S
C1906 C1904 1.378 . S
C1906 C1907 1.367 . S
C1907 C1906 1.367 . S
C1907 C1909 1.433 . S
C1908 C1904 1.350 . S
C1908 C1905 1.463 . S
C1908 N1912 1.427 . S
C1909 H1899 0.929 . S
C1909 C1907 1.433 . S
C1909 N1912 1.384 . S
C1910 H1901 0.929 . S
C1910 C1902 1.378 . S
C1910 C1905 1.350 . S
C1911 H1898 0.929 . S
C1911 C1903 1.433 . S
C1911 N1913 1.384 . S
N1912 C1908 1.427 . S
N1912 C1909 1.384 . S
N1913 C1905 1.427 . S
N1913 C1911 1.384 . S
H1914 C1920 0.930 . S
H1915 C1924 0.930 . S
H1916 C1929 0.929 . S
H1917 C1927 0.929 . S
H1918 C1922 0.929 . S
H1919 C1928 0.929 . S
C1920 H1914 0.930 . S
C1920 C1921 1.367 . S
C1920 C1928 1.378 . S
C1921 C1920 1.367 . S
C1921 C1929 1.433 . S
C1922 H1918 0.929 . S
C1922 C1924 1.378 . S
C1922 C1926 1.350 . S
C1923 C1926 1.463 . S
C1923 C1928 1.350 . S
C1923 N1931 1.427 . S
C1924 H1915 0.930 . S
C1924 C1922 1.378 . S
C1924 C1925 1.367 . S
C1925 C1924 1.367 . S
C1925 C1927 1.433 . S
C1926 C1922 1.350 . S
C1926 C1923 1.463 . S
C1926 N1930 1.427 . S
C1927 H1917 0.929 . S
C1927 C1925 1.433 . S
C1927 N1930 1.384 . S
C1928 H1919 0.929 . S
C1928 C1920 1.378 . S
C1928 C1923 1.350 . S
C1929 H1916 0.929 . S
C1929 C1921 1.433 . S
C1929 N1931 1.384 . S
N1930 C1926 1.427 . S
N1930 C1927 1.384 . S
N1931 C1923 1.427 . S
N1931 C1929 1.384 . S
H1932 C1938 0.930 . S
H1933 C1942 0.930 . S
H1934 C1947 0.929 . S
H1935 C1945 0.929 . S
H1936 C1940 0.929 . S
H1937 C1946 0.929 . S
C1938 H1932 0.930 . S
C1938 C1939 1.367 . S
C1938 C1946 1.378 1_545 S
C1939 C1938 1.367 . S
C1939 C1947 1.433 . S
C1940 H1936 0.929 . S
C1940 C1942 1.378 . S
C1940 C1944 1.350 . S
C1941 C1944 1.463 . S
C1941 C1946 1.350 . S
C1941 N1949 1.427 1_565 S
C1942 H1933 0.930 . S
C1942 C1940 1.378 . S
C1942 C1943 1.367 . S
C1943 C1942 1.367 . S
C1943 C1945 1.433 . S
C1944 C1940 1.350 . S
C1944 C1941 1.463 . S
C1944 N1948 1.427 . S
C1945 H1935 0.929 . S
C1945 C1943 1.433 . S
C1945 N1948 1.384 . S
C1946 H1937 0.929 . S
C1946 C1938 1.378 1_565 S
C1946 C1941 1.350 . S
C1947 H1934 0.929 . S
C1947 C1939 1.433 . S
C1947 N1949 1.384 . S
N1948 C1944 1.427 . S
N1948 C1945 1.384 . S
N1949 C1941 1.427 1_545 S
N1949 C1947 1.384 . S
H1950 C1956 0.930 . S
H1951 C1960 0.930 . S
H1952 C1965 0.929 . S
H1953 C1963 0.929 . S
H1954 C1958 0.929 . S
H1955 C1964 0.929 . S
C1956 H1950 0.930 . S
C1956 C1957 1.367 . S
C1956 C1964 1.378 . S
C1957 C1956 1.367 . S
C1957 C1965 1.433 . S
C1958 H1954 0.929 . S
C1958 C1960 1.378 . S
C1958 C1962 1.350 1_455 S
C1959 C1962 1.463 . S
C1959 C1964 1.350 . S
C1959 N1967 1.427 . S
C1960 H1951 0.930 . S
C1960 C1958 1.378 . S
C1960 C1961 1.367 . S
C1961 C1960 1.367 . S
C1961 C1963 1.433 . S
C1962 C1958 1.350 1_655 S
C1962 C1959 1.463 . S
C1962 N1966 1.427 1_655 S
C1963 H1953 0.929 . S
C1963 C1961 1.433 . S
C1963 N1966 1.384 . S
C1964 H1955 0.929 . S
C1964 C1956 1.378 . S
C1964 C1959 1.350 . S
C1965 H1952 0.929 . S
C1965 C1957 1.433 . S
C1965 N1967 1.384 . S
N1966 C1962 1.427 1_455 S
N1966 C1963 1.384 . S
N1967 C1959 1.427 . S
N1967 C1965 1.384 . S
H1968 C1974 0.930 . S
H1969 C1978 0.930 . S
H1970 C1983 0.929 . S
H1971 C1981 0.929 . S
H1972 C1976 0.929 1_545 S
H1973 C1982 0.929 . S
C1974 H1968 0.930 . S
C1974 C1975 1.367 1_565 S
C1974 C1982 1.378 . S
C1975 C1974 1.367 1_545 S
C1975 C1983 1.433 . S
C1976 H1972 0.929 1_565 S
C1976 C1978 1.378 . S
C1976 C1980 1.350 . S
C1977 C1980 1.463 . S
C1977 C1982 1.350 . S
C1977 N1985 1.427 1_565 S
C1978 H1969 0.930 . S
C1978 C1976 1.378 . S
C1978 C1979 1.367 . S
C1979 C1978 1.367 . S
C1979 C1981 1.433 . S
C1980 C1976 1.350 . S
C1980 C1977 1.463 . S
C1980 N1984 1.427 . S
C1981 H1971 0.929 . S
C1981 C1979 1.433 . S
C1981 N1984 1.384 . S
C1982 H1973 0.929 . S
C1982 C1974 1.378 . S
C1982 C1977 1.350 . S
C1983 H1970 0.929 . S
C1983 C1975 1.433 . S
C1983 N1985 1.384 . S
N1984 C1980 1.427 . S
N1984 C1981 1.384 . S
N1985 C1977 1.427 1_545 S
N1985 C1983 1.384 . S
H1986 C1992 0.930 1_455 S
H1987 C1996 0.930 . S
H1988 C2001 0.929 . S
H1989 C1999 0.929 . S
H1990 C1994 0.929 . S
H1991 C2000 0.929 . S
C1992 H1986 0.930 1_655 S
C1992 C1993 1.367 . S
C1992 C2000 1.378 1_655 S
C1993 C1992 1.367 . S
C1993 C2001 1.433 . S
C1994 H1990 0.929 . S
C1994 C1996 1.378 1_655 S
C1994 C1998 1.350 1_655 S
C1995 C1998 1.463 1_655 S
C1995 C2000 1.350 1_655 S
C1995 N2003 1.427 . S
C1996 H1987 0.930 . S
C1996 C1994 1.378 1_455 S
C1996 C1997 1.367 . S
C1997 C1996 1.367 . S
C1997 C1999 1.433 . S
C1998 C1994 1.350 1_455 S
C1998 C1995 1.463 1_455 S
C1998 N2002 1.427 . S
C1999 H1989 0.929 . S
C1999 C1997 1.433 . S
C1999 N2002 1.384 . S
C2000 H1991 0.929 . S
C2000 C1992 1.378 1_455 S
C2000 C1995 1.350 1_455 S
C2001 H1988 0.929 . S
C2001 C1993 1.433 . S
C2001 N2003 1.384 . S
N2002 C1998 1.427 . S
N2002 C1999 1.384 . S
N2003 C1995 1.427 . S
N2003 C2001 1.384 . S
H2004 C2010 0.930 . S
H2005 C2014 0.930 . S
H2006 C2019 0.929 . S
H2007 C2017 0.929 . S
H2008 C2012 0.929 . S
H2009 C2018 0.929 1_554 S
C2010 H2004 0.930 . S
C2010 C2011 1.367 . S
C2010 C2018 1.378 . S
C2011 C2010 1.367 . S
C2011 C2019 1.433 . S
C2012 H2008 0.929 . S
C2012 C2014 1.378 . S
C2012 C2016 1.350 . S
C2013 C2016 1.463 1_556 S
C2013 C2018 1.350 . S
C2013 N2021 1.427 . S
C2014 H2005 0.930 . S
C2014 C2012 1.378 . S
C2014 C2015 1.367 . S
C2015 C2014 1.367 . S
C2015 C2017 1.433 . S
C2016 C2012 1.350 . S
C2016 C2013 1.463 1_554 S
C2016 N2020 1.427 . S
C2017 H2007 0.929 . S
C2017 C2015 1.433 . S
C2017 N2020 1.384 . S
C2018 H2009 0.929 1_556 S
C2018 C2010 1.378 . S
C2018 C2013 1.350 . S
C2019 H2006 0.929 . S
C2019 C2011 1.433 . S
C2019 N2021 1.384 . S
N2020 C2016 1.427 . S
N2020 C2017 1.384 . S
N2021 C2013 1.427 . S
N2021 C2019 1.384 . S
H2022 C2028 0.930 . S
H2023 C2032 0.930 . S
H2024 C2037 0.929 . S
H2025 C2035 0.929 . S
H2026 C2030 0.929 . S
H2027 C2036 0.929 . S
C2028 H2022 0.930 . S
C2028 C2029 1.367 . S
C2028 C2036 1.378 . S
C2029 C2028 1.367 . S
C2029 C2037 1.433 . S
C2030 H2026 0.929 . S
C2030 C2032 1.378 1_556 S
C2030 C2034 1.350 . S
C2031 C2034 1.463 . S
C2031 C2036 1.350 . S
C2031 N2039 1.427 . S
C2032 H2023 0.930 . S
C2032 C2030 1.378 1_554 S
C2032 C2033 1.367 . S
C2033 C2032 1.367 . S
C2033 C2035 1.433 . S
C2034 C2030 1.350 . S
C2034 C2031 1.463 . S
C2034 N2038 1.427 1_556 S
C2035 H2025 0.929 . S
C2035 C2033 1.433 . S
C2035 N2038 1.384 . S
C2036 H2027 0.929 . S
C2036 C2028 1.378 . S
C2036 C2031 1.350 . S
C2037 H2024 0.929 . S
C2037 C2029 1.433 . S
C2037 N2039 1.384 . S
N2038 C2034 1.427 1_554 S
N2038 C2035 1.384 . S
N2039 C2031 1.427 . S
N2039 C2037 1.384 . S
H2040 C2046 0.930 . S
H2041 C2050 0.930 . S
H2042 C2055 0.929 . S
H2043 C2053 0.929 . S
H2044 C2048 0.929 . S
H2045 C2054 0.929 . S
C2046 H2040 0.930 . S
C2046 C2047 1.367 . S
C2046 C2054 1.378 1_545 S
C2047 C2046 1.367 . S
C2047 C2055 1.433 . S
C2048 H2044 0.929 . S
C2048 C2050 1.378 . S
C2048 C2052 1.350 . S
C2049 C2052 1.463 . S
C2049 C2054 1.350 . S
C2049 N2057 1.427 1_565 S
C2050 H2041 0.930 . S
C2050 C2048 1.378 . S
C2050 C2051 1.367 . S
C2051 C2050 1.367 . S
C2051 C2053 1.433 . S
C2052 C2048 1.350 . S
C2052 C2049 1.463 . S
C2052 N2056 1.427 . S
C2053 H2043 0.929 . S
C2053 C2051 1.433 . S
C2053 N2056 1.384 . S
C2054 H2045 0.929 . S
C2054 C2046 1.378 1_565 S
C2054 C2049 1.350 . S
C2055 H2042 0.929 . S
C2055 C2047 1.433 . S
C2055 N2057 1.384 . S
N2056 C2052 1.427 . S
N2056 C2053 1.384 . S
N2057 C2049 1.427 1_545 S
N2057 C2055 1.384 . S
H2058 C2064 0.930 . S
H2059 C2068 0.930 . S
H2060 C2073 0.929 . S
H2061 C2071 0.929 . S
H2062 C2066 0.929 . S
H2063 C2072 0.929 . S
C2064 H2058 0.930 . S
C2064 C2065 1.367 . S
C2064 C2072 1.378 . S
C2065 C2064 1.367 . S
C2065 C2073 1.433 . S
C2066 H2062 0.929 . S
C2066 C2068 1.378 . S
C2066 C2070 1.350 . S
C2067 C2070 1.463 . S
C2067 C2072 1.350 1_455 S
C2067 N2075 1.427 1_455 S
C2068 H2059 0.930 . S
C2068 C2066 1.378 . S
C2068 C2069 1.367 . S
C2069 C2068 1.367 . S
C2069 C2071 1.433 . S
C2070 C2066 1.350 . S
C2070 C2067 1.463 . S
C2070 N2074 1.427 . S
C2071 H2061 0.929 . S
C2071 C2069 1.433 . S
C2071 N2074 1.384 . S
C2072 H2063 0.929 . S
C2072 C2064 1.378 . S
C2072 C2067 1.350 1_655 S
C2073 H2060 0.929 . S
C2073 C2065 1.433 . S
C2073 N2075 1.384 . S
N2074 C2070 1.427 . S
N2074 C2071 1.384 . S
N2075 C2067 1.427 1_655 S
N2075 C2073 1.384 . S
H2076 C2082 0.930 . S
H2077 C2086 0.930 . S
H2078 C2091 0.929 . S
H2079 C2089 0.929 . S
H2080 C2084 0.929 . S
H2081 C2090 0.929 . S
C2082 H2076 0.930 . S
C2082 C2083 1.367 . S
C2082 C2090 1.378 . S
C2083 C2082 1.367 . S
C2083 C2091 1.433 . S
C2084 H2080 0.929 . S
C2084 C2086 1.378 1_556 S
C2084 C2088 1.350 . S
C2085 C2088 1.463 . S
C2085 C2090 1.350 . S
C2085 N2093 1.427 . S
C2086 H2077 0.930 . S
C2086 C2084 1.378 1_554 S
C2086 C2087 1.367 . S
C2087 C2086 1.367 . S
C2087 C2089 1.433 . S
C2088 C2084 1.350 . S
C2088 C2085 1.463 . S
C2088 N2092 1.427 1_556 S
C2089 H2079 0.929 . S
C2089 C2087 1.433 . S
C2089 N2092 1.384 . S
C2090 H2081 0.929 . S
C2090 C2082 1.378 . S
C2090 C2085 1.350 . S
C2091 H2078 0.929 . S
C2091 C2083 1.433 . S
C2091 N2093 1.384 . S
N2092 C2088 1.427 1_554 S
N2092 C2089 1.384 . S
N2093 C2085 1.427 . S
N2093 C2091 1.384 . S
H2094 C2100 0.930 . S
H2095 C2104 0.930 . S
H2096 C2109 0.929 . S
H2097 C2107 0.929 . S
H2098 C2102 0.929 . S
H2099 C2108 0.929 . S
C2100 H2094 0.930 . S
C2100 C2101 1.367 . S
C2100 C2108 1.378 . S
C2101 C2100 1.367 . S
C2101 C2109 1.433 . S
C2102 H2098 0.929 . S
C2102 C2104 1.378 . S
C2102 C2106 1.350 . S
C2103 C2106 1.463 . S
C2103 C2108 1.350 . S
C2103 N2111 1.427 . S
C2104 H2095 0.930 . S
C2104 C2102 1.378 . S
C2104 C2105 1.367 . S
C2105 C2104 1.367 . S
C2105 C2107 1.433 . S
C2106 C2102 1.350 . S
C2106 C2103 1.463 . S
C2106 N2110 1.427 . S
C2107 H2097 0.929 . S
C2107 C2105 1.433 . S
C2107 N2110 1.384 . S
C2108 H2099 0.929 . S
C2108 C2100 1.378 . S
C2108 C2103 1.350 . S
C2109 H2096 0.929 . S
C2109 C2101 1.433 . S
C2109 N2111 1.384 . S
N2110 C2106 1.427 . S
N2110 C2107 1.384 . S
N2111 C2103 1.427 . S
N2111 C2109 1.384 . S
H2112 C2118 0.930 . S
H2113 C2122 0.930 . S
H2114 C2127 0.929 . S
H2115 C2125 0.929 . S
H2116 C2120 0.929 . S
H2117 C2126 0.929 . S
C2118 H2112 0.930 . S
C2118 C2119 1.367 . S
C2118 C2126 1.378 . S
C2119 C2118 1.367 . S
C2119 C2127 1.433 . S
C2120 H2116 0.929 . S
C2120 C2122 1.378 . S
C2120 C2124 1.350 . S
C2121 C2124 1.463 . S
C2121 C2126 1.350 . S
C2121 N2129 1.427 . S
C2122 H2113 0.930 . S
C2122 C2120 1.378 . S
C2122 C2123 1.367 . S
C2123 C2122 1.367 . S
C2123 C2125 1.433 . S
C2124 C2120 1.350 . S
C2124 C2121 1.463 . S
C2124 N2128 1.427 . S
C2125 H2115 0.929 . S
C2125 C2123 1.433 . S
C2125 N2128 1.384 . S
C2126 H2117 0.929 . S
C2126 C2118 1.378 . S
C2126 C2121 1.350 . S
C2127 H2114 0.929 . S
C2127 C2119 1.433 . S
C2127 N2129 1.384 . S
N2128 C2124 1.427 . S
N2128 C2125 1.384 . S
N2129 C2121 1.427 . S
N2129 C2127 1.384 . S
H2130 C2136 0.930 . S
H2131 C2140 0.930 . S
H2132 C2145 0.929 . S
H2133 C2143 0.929 . S
H2134 C2138 0.929 . S
H2135 C2144 0.929 . S
C2136 H2130 0.930 . S
C2136 C2137 1.367 . S
C2136 C2144 1.378 . S
C2137 C2136 1.367 . S
C2137 C2145 1.433 . S
C2138 H2134 0.929 . S
C2138 C2140 1.378 . S
C2138 C2142 1.350 . S
C2139 C2142 1.463 . S
C2139 C2144 1.350 . S
C2139 N2147 1.427 . S
C2140 H2131 0.930 . S
C2140 C2138 1.378 . S
C2140 C2141 1.367 . S
C2141 C2140 1.367 . S
C2141 C2143 1.433 . S
C2142 C2138 1.350 . S
C2142 C2139 1.463 . S
C2142 N2146 1.427 . S
C2143 H2133 0.929 . S
C2143 C2141 1.433 . S
C2143 N2146 1.384 . S
C2144 H2135 0.929 . S
C2144 C2136 1.378 . S
C2144 C2139 1.350 . S
C2145 H2132 0.929 . S
C2145 C2137 1.433 . S
C2145 N2147 1.384 . S
N2146 C2142 1.427 . S
N2146 C2143 1.384 . S
N2147 C2139 1.427 . S
N2147 C2145 1.384 . S
H2148 C2154 0.930 . S
H2149 C2158 0.930 . S
H2150 C2163 0.929 . S
H2151 C2161 0.929 . S
H2152 C2156 0.929 . S
H2153 C2162 0.929 . S
C2154 H2148 0.930 . S
C2154 C2155 1.367 . S
C2154 C2162 1.378 . S
C2155 C2154 1.367 . S
C2155 C2163 1.433 . S
C2156 H2152 0.929 . S
C2156 C2158 1.378 . S
C2156 C2160 1.350 . S
C2157 C2160 1.463 . S
C2157 C2162 1.350 . S
C2157 N2165 1.427 . S
C2158 H2149 0.930 . S
C2158 C2156 1.378 . S
C2158 C2159 1.367 . S
C2159 C2158 1.367 . S
C2159 C2161 1.433 . S
C2160 C2156 1.350 . S
C2160 C2157 1.463 . S
C2160 N2164 1.427 . S
C2161 H2151 0.929 . S
C2161 C2159 1.433 . S
C2161 N2164 1.384 . S
C2162 H2153 0.929 . S
C2162 C2154 1.378 . S
C2162 C2157 1.350 . S
C2163 H2150 0.929 . S
C2163 C2155 1.433 . S
C2163 N2165 1.384 . S
N2164 C2160 1.427 . S
N2164 C2161 1.384 . S
N2165 C2157 1.427 . S
N2165 C2163 1.384 . S
H2166 C2172 0.930 . S
H2167 C2176 0.930 . S
H2168 C2181 0.929 . S
H2169 C2179 0.929 . S
H2170 C2174 0.956 . S
H2171 C2180 0.929 . S
C2172 H2166 0.930 . S
C2172 C2173 1.367 . S
C2172 C2180 1.378 . S
C2173 C2172 1.367 . S
C2173 C2181 1.433 . S
C2174 H2170 0.956 . S
C2174 C2176 1.349 1_554 S
C2174 C2178 1.353 1_554 S
C2175 C2178 1.445 1_554 S
C2175 C2180 1.350 . S
C2175 N2183 1.427 . S
C2176 H2167 0.930 . S
C2176 C2174 1.349 1_556 S
C2176 C2177 1.367 . S
C2177 C2176 1.367 . S
C2177 C2179 1.433 . S
C2178 C2174 1.353 1_556 S
C2178 C2175 1.445 1_556 S
C2178 N2182 1.444 . S
C2179 H2169 0.929 . S
C2179 C2177 1.433 . S
C2179 N2182 1.384 . S
C2180 H2171 0.929 . S
C2180 C2172 1.378 . S
C2180 C2175 1.350 . S
C2181 H2168 0.929 . S
C2181 C2173 1.433 . S
C2181 N2183 1.384 . S
N2182 C2178 1.444 . S
N2182 C2179 1.384 . S
N2183 C2175 1.427 . S
N2183 C2181 1.384 . S
H2184 C2190 0.930 . S
H2185 C2194 0.930 . S
H2186 C2199 0.929 . S
H2187 C2197 0.929 . S
H2188 C2192 0.929 . S
H2189 C2198 0.929 . S
C2190 H2184 0.930 . S
C2190 C2191 1.367 . S
C2190 C2198 1.378 . S
C2191 C2190 1.367 . S
C2191 C2199 1.433 . S
C2192 H2188 0.929 . S
C2192 C2194 1.378 . S
C2192 C2196 1.350 1_655 S
C2193 C2196 1.463 . S
C2193 C2198 1.350 . S
C2193 N2201 1.427 . S
C2194 H2185 0.930 . S
C2194 C2192 1.378 . S
C2194 C2195 1.367 . S
C2195 C2194 1.367 . S
C2195 C2197 1.433 1_655 S
C2196 C2192 1.350 1_455 S
C2196 C2193 1.463 . S
C2196 N2200 1.427 . S
C2197 H2187 0.929 . S
C2197 C2195 1.433 1_455 S
C2197 N2200 1.384 . S
C2198 H2189 0.929 . S
C2198 C2190 1.378 . S
C2198 C2193 1.350 . S
C2199 H2186 0.929 . S
C2199 C2191 1.433 . S
C2199 N2201 1.384 . S
N2200 C2196 1.427 . S
N2200 C2197 1.384 . S
N2201 C2193 1.427 . S
N2201 C2199 1.384 . S
H2202 C2208 0.930 . S
H2203 C2212 0.930 . S
H2204 C2217 0.929 . S
H2205 C2215 0.929 . S
H2206 C2210 0.929 . S
H2207 C2216 0.929 . S
C2208 H2202 0.930 . S
C2208 C2209 1.367 . S
C2208 C2216 1.378 . S
C2209 C2208 1.367 . S
C2209 C2217 1.433 . S
C2210 H2206 0.929 . S
C2210 C2212 1.378 . S
C2210 C2214 1.350 . S
C2211 C2214 1.463 . S
C2211 C2216 1.350 . S
C2211 N2219 1.427 . S
C2212 H2203 0.930 . S
C2212 C2210 1.378 . S
C2212 C2213 1.367 . S
C2213 C2212 1.367 . S
C2213 C2215 1.433 . S
C2214 C2210 1.350 . S
C2214 C2211 1.463 . S
C2214 N2218 1.427 . S
C2215 H2205 0.929 . S
C2215 C2213 1.433 . S
C2215 N2218 1.384 . S
C2216 H2207 0.929 . S
C2216 C2208 1.378 . S
C2216 C2211 1.350 . S
C2217 H2204 0.929 . S
C2217 C2209 1.433 . S
C2217 N2219 1.384 . S
N2218 C2214 1.427 . S
N2218 C2215 1.384 . S
N2219 C2211 1.427 . S
N2219 C2217 1.384 . S
H2220 C2226 0.930 . S
H2221 C2230 0.930 . S
H2222 C2235 0.929 . S
H2223 C2233 0.929 . S
H2224 C2228 0.929 . S
H2225 C2234 0.929 . S
C2226 H2220 0.930 . S
C2226 C2227 1.367 . S
C2226 C2234 1.378 . S
C2227 C2226 1.367 . S
C2227 C2235 1.433 . S
C2228 H2224 0.929 . S
C2228 C2230 1.378 . S
C2228 C2232 1.350 . S
C2229 C2232 1.463 . S
C2229 C2234 1.350 . S
C2229 N2237 1.427 . S
C2230 H2221 0.930 . S
C2230 C2228 1.378 . S
C2230 C2231 1.367 . S
C2231 C2230 1.367 . S
C2231 C2233 1.433 . S
C2232 C2228 1.350 . S
C2232 C2229 1.463 . S
C2232 N2236 1.427 . S
C2233 H2223 0.929 . S
C2233 C2231 1.433 . S
C2233 N2236 1.384 . S
C2234 H2225 0.929 . S
C2234 C2226 1.378 . S
C2234 C2229 1.350 . S
C2235 H2222 0.929 . S
C2235 C2227 1.433 . S
C2235 N2237 1.384 . S
N2236 C2232 1.427 . S
N2236 C2233 1.384 . S
N2237 C2229 1.427 . S
N2237 C2235 1.384 . S
H2238 C2244 0.930 . S
H2239 C2248 0.930 . S
H2240 C2253 0.929 . S
H2241 C2251 0.929 . S
H2242 C2246 0.929 . S
H2243 C2252 0.929 . S
C2244 H2238 0.930 . S
C2244 C2245 1.367 . S
C2244 C2252 1.378 . S
C2245 C2244 1.367 . S
C2245 C2253 1.433 . S
C2246 H2242 0.929 . S
C2246 C2248 1.378 . S
C2246 C2250 1.350 . S
C2247 C2250 1.463 . S
C2247 C2252 1.350 . S
C2247 N2255 1.427 . S
C2248 H2239 0.930 . S
C2248 C2246 1.378 . S
C2248 C2249 1.367 . S
C2249 C2248 1.367 . S
C2249 C2251 1.433 . S
C2250 C2246 1.350 . S
C2250 C2247 1.463 . S
C2250 N2254 1.427 . S
C2251 H2241 0.929 . S
C2251 C2249 1.433 . S
C2251 N2254 1.384 . S
C2252 H2243 0.929 . S
C2252 C2244 1.378 . S
C2252 C2247 1.350 . S
C2253 H2240 0.929 . S
C2253 C2245 1.433 . S
C2253 N2255 1.384 . S
N2254 C2250 1.427 . S
N2254 C2251 1.384 . S
N2255 C2247 1.427 . S
N2255 C2253 1.384 . S
H2256 C2262 0.930 . S
H2257 C2266 0.930 . S
H2258 C2271 0.929 . S
H2259 C2269 0.929 . S
H2260 C2264 0.929 . S
H2261 C2270 0.929 . S
C2262 H2256 0.930 . S
C2262 C2263 1.367 . S
C2262 C2270 1.378 . S
C2263 C2262 1.367 . S
C2263 C2271 1.433 . S
C2264 H2260 0.929 . S
C2264 C2266 1.378 . S
C2264 C2268 1.350 . S
C2265 C2268 1.463 . S
C2265 C2270 1.350 . S
C2265 N2273 1.427 . S
C2266 H2257 0.930 . S
C2266 C2264 1.378 . S
C2266 C2267 1.367 . S
C2267 C2266 1.367 . S
C2267 C2269 1.433 . S
C2268 C2264 1.350 . S
C2268 C2265 1.463 . S
C2268 N2272 1.427 . S
C2269 H2259 0.929 . S
C2269 C2267 1.433 . S
C2269 N2272 1.384 . S
C2270 H2261 0.929 . S
C2270 C2262 1.378 . S
C2270 C2265 1.350 . S
C2271 H2258 0.929 . S
C2271 C2263 1.433 . S
C2271 N2273 1.384 . S
N2272 C2268 1.427 . S
N2272 C2269 1.384 . S
N2273 C2265 1.427 . S
N2273 C2271 1.384 . S
H2274 C2280 0.930 . S
H2275 C2284 0.930 . S
H2276 C2289 0.929 . S
H2277 C2287 0.929 . S
H2278 C2282 0.928 1_455 S
H2279 C2288 0.929 . S
C2280 H2274 0.930 . S
C2280 C2281 1.367 . S
C2280 C2288 1.378 . S
C2281 C2280 1.367 . S
C2281 C2289 1.433 . S
C2282 H2278 0.928 1_655 S
C2282 C2284 1.378 . S
C2282 C2286 1.350 1_655 S
C2283 C2286 1.463 . S
C2283 C2288 1.350 . S
C2283 N2291 1.427 . S
C2284 H2275 0.930 . S
C2284 C2282 1.378 . S
C2284 C2285 1.367 . S
C2285 C2284 1.367 . S
C2285 C2287 1.433 . S
C2286 C2282 1.350 1_455 S
C2286 C2283 1.463 . S
C2286 N2290 1.427 1_455 S
C2287 H2277 0.929 . S
C2287 C2285 1.433 . S
C2287 N2290 1.384 . S
C2288 H2279 0.929 . S
C2288 C2280 1.378 . S
C2288 C2283 1.350 . S
C2289 H2276 0.929 . S
C2289 C2281 1.433 . S
C2289 N2291 1.384 . S
N2290 C2286 1.427 1_655 S
N2290 C2287 1.384 . S
N2291 C2283 1.427 . S
N2291 C2289 1.384 . S
H2292 C2298 0.930 . S
H2293 C2302 0.930 . S
H2294 C2307 0.929 . S
H2295 C2305 0.929 1_655 S
H2296 C2300 0.929 . S
H2297 C2306 0.929 . S
C2298 H2292 0.930 . S
C2298 C2299 1.367 . S
C2298 C2306 1.378 . S
C2299 C2298 1.367 . S
C2299 C2307 1.433 . S
C2300 H2296 0.929 . S
C2300 C2302 1.378 . S
C2300 C2304 1.350 . S
C2301 C2304 1.463 1_655 S
C2301 C2306 1.350 . S
C2301 N2309 1.441 . S
C2302 H2293 0.930 . S
C2302 C2300 1.378 . S
C2302 C2303 1.367 . S
C2303 C2302 1.367 . S
C2303 C2305 1.433 . S
C2304 C2300 1.350 . S
C2304 C2301 1.463 1_455 S
C2304 N2308 1.427 1_455 S
C2305 H2295 0.929 1_455 S
C2305 C2303 1.433 . S
C2305 N2308 1.384 1_455 S
C2306 H2297 0.929 . S
C2306 C2298 1.378 . S
C2306 C2301 1.350 . S
C2307 H2294 0.929 . S
C2307 C2299 1.433 . S
C2307 N2309 1.407 . S
N2308 C2304 1.427 1_655 S
N2308 C2305 1.384 1_655 S
N2309 C2301 1.441 . S
N2309 C2307 1.407 . S
H2310 C2316 0.930 . S
H2311 C2320 0.930 . S
H2312 C2325 0.929 . S
H2313 C2323 0.929 . S
H2314 C2318 0.929 . S
H2315 C2324 0.929 . S
C2316 H2310 0.930 . S
C2316 C2317 1.367 . S
C2316 C2324 1.378 . S
C2317 C2316 1.367 . S
C2317 C2325 1.433 . S
C2318 H2314 0.929 . S
C2318 C2320 1.378 . S
C2318 C2322 1.350 . S
C2319 C2322 1.463 . S
C2319 C2324 1.350 . S
C2319 N2327 1.427 . S
C2320 H2311 0.930 . S
C2320 C2318 1.378 . S
C2320 C2321 1.367 . S
C2321 C2320 1.367 . S
C2321 C2323 1.433 . S
C2322 C2318 1.350 . S
C2322 C2319 1.463 . S
C2322 N2326 1.427 . S
C2323 H2313 0.929 . S
C2323 C2321 1.433 . S
C2323 N2326 1.384 . S
C2324 H2315 0.929 . S
C2324 C2316 1.378 . S
C2324 C2319 1.350 . S
C2325 H2312 0.929 . S
C2325 C2317 1.433 . S
C2325 N2327 1.384 . S
N2326 C2322 1.427 . S
N2326 C2323 1.384 . S
N2327 C2319 1.427 . S
N2327 C2325 1.384 . S
H2328 C2334 0.930 . S
H2329 C2338 0.930 . S
H2330 C2343 0.929 . S
H2331 C2341 0.929 . S
H2332 C2336 0.929 . S
H2333 C2342 0.929 . S
C2334 H2328 0.930 . S
C2334 C2335 1.367 . S
C2334 C2342 1.378 . S
C2335 C2334 1.367 . S
C2335 C2343 1.433 . S
C2336 H2332 0.929 . S
C2336 C2338 1.378 . S
C2336 C2340 1.350 . S
C2337 C2340 1.463 . S
C2337 C2342 1.350 . S
C2337 N2345 1.427 . S
C2338 H2329 0.930 . S
C2338 C2336 1.378 . S
C2338 C2339 1.367 . S
C2339 C2338 1.367 . S
C2339 C2341 1.433 . S
C2340 C2336 1.350 . S
C2340 C2337 1.463 . S
C2340 N2344 1.427 . S
C2341 H2331 0.929 . S
C2341 C2339 1.433 . S
C2341 N2344 1.384 . S
C2342 H2333 0.929 . S
C2342 C2334 1.378 . S
C2342 C2337 1.350 . S
C2343 H2330 0.929 . S
C2343 C2335 1.433 . S
C2343 N2345 1.384 . S
N2344 C2340 1.427 . S
N2344 C2341 1.384 . S
N2345 C2337 1.427 . S
N2345 C2343 1.384 . S
H2346 C2352 0.930 . S
H2347 C2356 0.930 . S
H2348 C2361 0.929 . S
H2349 C2359 0.929 . S
H2350 C2354 0.929 . S
H2351 C2360 0.929 . S
C2352 H2346 0.930 . S
C2352 C2353 1.367 . S
C2352 C2360 1.378 . S
C2353 C2352 1.367 . S
C2353 C2361 1.433 . S
C2354 H2350 0.929 . S
C2354 C2356 1.378 . S
C2354 C2358 1.350 . S
C2355 C2358 1.463 . S
C2355 C2360 1.350 . S
C2355 N2363 1.427 . S
C2356 H2347 0.930 . S
C2356 C2354 1.378 . S
C2356 C2357 1.367 . S
C2357 C2356 1.367 . S
C2357 C2359 1.433 . S
C2358 C2354 1.350 . S
C2358 C2355 1.463 . S
C2358 N2362 1.427 . S
C2359 H2349 0.929 . S
C2359 C2357 1.433 . S
C2359 N2362 1.384 . S
C2360 H2351 0.929 . S
C2360 C2352 1.378 . S
C2360 C2355 1.350 . S
C2361 H2348 0.929 . S
C2361 C2353 1.433 . S
C2361 N2363 1.384 . S
N2362 C2358 1.427 . S
N2362 C2359 1.384 . S
N2363 C2355 1.427 . S
N2363 C2361 1.384 . S
H2364 C2370 0.930 . S
H2365 C2374 0.930 . S
H2366 C2379 0.929 . S
H2367 C2377 0.929 . S
H2368 C2372 0.929 . S
H2369 C2378 0.929 . S
C2370 H2364 0.930 . S
C2370 C2371 1.367 . S
C2370 C2378 1.378 . S
C2371 C2370 1.367 . S
C2371 C2379 1.433 . S
C2372 H2368 0.929 . S
C2372 C2374 1.378 . S
C2372 C2376 1.350 . S
C2373 C2376 1.463 . S
C2373 C2378 1.350 . S
C2373 N2381 1.427 . S
C2374 H2365 0.930 . S
C2374 C2372 1.378 . S
C2374 C2375 1.367 . S
C2375 C2374 1.367 . S
C2375 C2377 1.433 . S
C2376 C2372 1.350 . S
C2376 C2373 1.463 . S
C2376 N2380 1.427 . S
C2377 H2367 0.929 . S
C2377 C2375 1.433 . S
C2377 N2380 1.384 . S
C2378 H2369 0.929 . S
C2378 C2370 1.378 . S
C2378 C2373 1.350 . S
C2379 H2366 0.929 . S
C2379 C2371 1.433 . S
C2379 N2381 1.384 . S
N2380 C2376 1.427 . S
N2380 C2377 1.384 . S
N2381 C2373 1.427 . S
N2381 C2379 1.384 . S
H2382 C2388 0.930 . S
H2383 C2392 0.930 . S
H2384 C2397 0.929 . S
H2385 C2395 0.929 . S
H2386 C2390 0.929 . S
H2387 C2396 0.929 1_655 S
C2388 H2382 0.930 . S
C2388 C2389 1.367 . S
C2388 C2396 1.378 . S
C2389 C2388 1.367 . S
C2389 C2397 1.433 . S
C2390 H2386 0.929 . S
C2390 C2392 1.378 . S
C2390 C2394 1.350 1_554 S
C2391 C2394 1.463 . S
C2391 C2396 1.350 1_655 S
C2391 N2399 1.427 1_655 S
C2392 H2383 0.930 . S
C2392 C2390 1.378 . S
C2392 C2393 1.367 . S
C2393 C2392 1.367 . S
C2393 C2395 1.433 . S
C2394 C2390 1.350 1_556 S
C2394 C2391 1.463 . S
C2394 N2398 1.427 . S
C2395 H2385 0.929 . S
C2395 C2393 1.433 . S
C2395 N2398 1.384 1_554 S
C2396 H2387 0.929 1_455 S
C2396 C2388 1.378 . S
C2396 C2391 1.350 1_455 S
C2397 H2384 0.929 . S
C2397 C2389 1.433 . S
C2397 N2399 1.384 . S
N2398 C2394 1.427 . S
N2398 C2395 1.384 1_556 S
N2399 C2391 1.427 1_455 S
N2399 C2397 1.384 . S
H2400 C2406 0.930 . S
H2401 C2410 0.930 . S
H2402 C2415 0.929 . S
H2403 C2413 0.929 . S
H2404 C2408 0.929 . S
H2405 C2414 0.929 . S
C2406 H2400 0.930 . S
C2406 C2407 1.367 . S
C2406 C2414 1.378 . S
C2407 C2406 1.367 . S
C2407 C2415 1.433 . S
C2408 H2404 0.929 . S
C2408 C2410 1.378 . S
C2408 C2412 1.350 . S
C2409 C2412 1.463 . S
C2409 C2414 1.350 . S
C2409 N2417 1.427 . S
C2410 H2401 0.930 . S
C2410 C2408 1.378 . S
C2410 C2411 1.367 . S
C2411 C2410 1.367 . S
C2411 C2413 1.433 . S
C2412 C2408 1.350 . S
C2412 C2409 1.463 . S
C2412 N2416 1.427 . S
C2413 H2403 0.929 . S
C2413 C2411 1.433 . S
C2413 N2416 1.384 . S
C2414 H2405 0.929 . S
C2414 C2406 1.378 . S
C2414 C2409 1.350 . S
C2415 H2402 0.929 . S
C2415 C2407 1.433 . S
C2415 N2417 1.384 . S
N2416 C2412 1.427 . S
N2416 C2413 1.384 . S
N2417 C2409 1.427 . S
N2417 C2415 1.384 . S
H2418 C2424 0.930 . S
H2419 C2428 0.930 . S
H2420 C2433 0.929 . S
H2421 C2431 0.929 . S
H2422 C2426 0.929 . S
H2423 C2432 0.929 . S
C2424 H2418 0.930 . S
C2424 C2425 1.367 . S
C2424 C2432 1.378 . S
C2425 C2424 1.367 . S
C2425 C2433 1.433 . S
C2426 H2422 0.929 . S
C2426 C2428 1.378 . S
C2426 C2430 1.350 . S
C2427 C2430 1.463 . S
C2427 C2432 1.350 . S
C2427 N2435 1.427 . S
C2428 H2419 0.930 . S
C2428 C2426 1.378 . S
C2428 C2429 1.367 . S
C2429 C2428 1.367 . S
C2429 C2431 1.433 . S
C2430 C2426 1.350 . S
C2430 C2427 1.463 . S
C2430 N2434 1.427 . S
C2431 H2421 0.929 . S
C2431 C2429 1.433 . S
C2431 N2434 1.384 . S
C2432 H2423 0.929 . S
C2432 C2424 1.378 . S
C2432 C2427 1.350 . S
C2433 H2420 0.929 . S
C2433 C2425 1.433 . S
C2433 N2435 1.384 . S
N2434 C2430 1.427 . S
N2434 C2431 1.384 . S
N2435 C2427 1.427 . S
N2435 C2433 1.384 . S
H2436 C2442 0.930 . S
H2437 C2446 0.930 . S
H2438 C2451 0.929 . S
H2439 C2449 0.929 . S
H2440 C2444 0.929 . S
H2441 C2450 0.929 . S
C2442 H2436 0.930 . S
C2442 C2443 1.367 . S
C2442 C2450 1.378 1_545 S
C2443 C2442 1.367 . S
C2443 C2451 1.433 . S
C2444 H2440 0.929 . S
C2444 C2446 1.378 . S
C2444 C2448 1.350 . S
C2445 C2448 1.463 . S
C2445 C2450 1.350 . S
C2445 N2453 1.427 1_565 S
C2446 H2437 0.930 . S
C2446 C2444 1.378 . S
C2446 C2447 1.367 . S
C2447 C2446 1.367 . S
C2447 C2449 1.433 . S
C2448 C2444 1.350 . S
C2448 C2445 1.463 . S
C2448 N2452 1.427 . S
C2449 H2439 0.929 . S
C2449 C2447 1.433 . S
C2449 N2452 1.384 . S
C2450 H2441 0.929 . S
C2450 C2442 1.378 1_565 S
C2450 C2445 1.350 . S
C2451 H2438 0.929 . S
C2451 C2443 1.433 . S
C2451 N2453 1.384 . S
N2452 C2448 1.427 . S
N2452 C2449 1.384 . S
N2453 C2445 1.427 1_545 S
N2453 C2451 1.384 . S
H2454 C2460 0.930 . S
H2455 C2464 0.930 . S
H2456 C2469 0.929 . S
H2457 C2467 0.929 . S
H2458 C2462 0.929 . S
H2459 C2468 0.929 . S
C2460 H2454 0.930 . S
C2460 C2461 1.367 . S
C2460 C2468 1.378 . S
C2461 C2460 1.367 . S
C2461 C2469 1.433 . S
C2462 H2458 0.929 . S
C2462 C2464 1.378 . S
C2462 C2466 1.350 . S
C2463 C2466 1.463 . S
C2463 C2468 1.350 . S
C2463 N2471 1.427 . S
C2464 H2455 0.930 . S
C2464 C2462 1.378 . S
C2464 C2465 1.367 . S
C2465 C2464 1.367 . S
C2465 C2467 1.433 . S
C2466 C2462 1.350 . S
C2466 C2463 1.463 . S
C2466 N2470 1.427 . S
C2467 H2457 0.929 . S
C2467 C2465 1.433 . S
C2467 N2470 1.384 . S
C2468 H2459 0.929 . S
C2468 C2460 1.378 . S
C2468 C2463 1.350 . S
C2469 H2456 0.929 . S
C2469 C2461 1.433 . S
C2469 N2471 1.384 . S
N2470 C2466 1.427 . S
N2470 C2467 1.384 . S
N2471 C2463 1.427 . S
N2471 C2469 1.384 . S
H2472 C2478 0.930 . S
H2473 C2482 0.930 . S
H2474 C2487 0.929 . S
H2475 C2485 0.929 . S
H2476 C2480 0.980 . S
H2477 C2486 0.929 1_556 S
C2478 H2472 0.930 . S
C2478 C2479 1.367 . S
C2478 C2486 1.378 . S
C2479 C2478 1.367 . S
C2479 C2487 1.433 . S
C2480 H2476 0.980 . S
C2480 C2482 1.343 1_554 S
C2480 C2484 1.334 1_554 S
C2481 C2484 1.463 1_554 S
C2481 C2486 1.350 . S
C2481 N2489 1.427 . S
C2482 H2473 0.930 . S
C2482 C2480 1.343 1_556 S
C2482 C2483 1.367 . S
C2483 C2482 1.367 . S
C2483 C2485 1.433 . S
C2484 C2480 1.334 1_556 S
C2484 C2481 1.463 1_556 S
C2484 N2488 1.427 . S
C2485 H2475 0.929 . S
C2485 C2483 1.433 . S
C2485 N2488 1.384 . S
C2486 H2477 0.929 1_554 S
C2486 C2478 1.378 . S
C2486 C2481 1.350 . S
C2487 H2474 0.929 . S
C2487 C2479 1.433 . S
C2487 N2489 1.384 . S
N2488 C2484 1.427 . S
N2488 C2485 1.384 . S
N2489 C2481 1.427 . S
N2489 C2487 1.384 . S
H2490 C2496 0.930 . S
H2491 C2500 0.930 . S
H2492 C2505 0.929 . S
H2493 C2503 0.929 . S
H2494 C2498 0.929 . S
H2495 C2504 0.929 . S
C2496 H2490 0.930 . S
C2496 C2497 1.367 . S
C2496 C2504 1.378 . S
C2497 C2496 1.367 . S
C2497 C2505 1.433 . S
C2498 H2494 0.929 . S
C2498 C2500 1.378 . S
C2498 C2502 1.350 . S
C2499 C2502 1.463 . S
C2499 C2504 1.350 . S
C2499 N2507 1.427 . S
C2500 H2491 0.930 . S
C2500 C2498 1.378 . S
C2500 C2501 1.367 . S
C2501 C2500 1.367 . S
C2501 C2503 1.433 . S
C2502 C2498 1.350 . S
C2502 C2499 1.463 . S
C2502 N2506 1.427 . S
C2503 H2493 0.929 . S
C2503 C2501 1.433 . S
C2503 N2506 1.384 . S
C2504 H2495 0.929 . S
C2504 C2496 1.378 . S
C2504 C2499 1.350 . S
C2505 H2492 0.929 . S
C2505 C2497 1.433 . S
C2505 N2507 1.384 . S
N2506 C2502 1.427 . S
N2506 C2503 1.384 . S
N2507 C2499 1.427 . S
N2507 C2505 1.384 . S
H2508 C2514 0.930 . S
H2509 C2518 0.940 . S
H2510 C2523 0.929 . S
H2511 C2521 0.929 . S
H2512 C2516 0.929 . S
H2513 C2522 0.929 . S
C2514 H2508 0.930 . S
C2514 C2515 1.367 . S
C2514 C2522 1.378 . S
C2515 C2514 1.367 . S
C2515 C2523 1.433 . S
C2516 H2512 0.929 . S
C2516 C2518 1.412 . S
C2516 C2520 1.350 1_565 S
C2517 C2520 1.463 . S
C2517 C2522 1.350 . S
C2517 N2525 1.427 . S
C2518 H2509 0.940 . S
C2518 C2516 1.412 . S
C2518 C2519 1.325 1_655 S
C2519 C2518 1.325 1_455 S
C2519 C2521 1.433 . S
C2520 C2516 1.350 1_545 S
C2520 C2517 1.463 . S
C2520 N2524 1.427 1_655 S
C2521 H2511 0.929 . S
C2521 C2519 1.433 . S
C2521 N2524 1.384 1_565 S
C2522 H2513 0.929 . S
C2522 C2514 1.378 . S
C2522 C2517 1.350 . S
C2523 H2510 0.929 . S
C2523 C2515 1.433 . S
C2523 N2525 1.384 . S
N2524 C2520 1.427 1_455 S
N2524 C2521 1.384 1_545 S
N2525 C2517 1.427 . S
N2525 C2523 1.384 . S
H2526 C2532 0.930 . S
H2527 C2536 0.930 . S
H2528 C2541 0.929 . S
H2529 C2539 0.929 . S
H2530 C2534 0.929 . S
H2531 C2540 0.929 . S
C2532 H2526 0.930 . S
C2532 C2533 1.367 . S
C2532 C2540 1.378 . S
C2533 C2532 1.367 . S
C2533 C2541 1.433 . S
C2534 H2530 0.929 . S
C2534 C2536 1.378 . S
C2534 C2538 1.350 . S
C2535 C2538 1.463 . S
C2535 C2540 1.350 . S
C2535 N2543 1.427 . S
C2536 H2527 0.930 . S
C2536 C2534 1.378 . S
C2536 C2537 1.367 . S
C2537 C2536 1.367 . S
C2537 C2539 1.433 . S
C2538 C2534 1.350 . S
C2538 C2535 1.463 . S
C2538 N2542 1.427 . S
C2539 H2529 0.929 . S
C2539 C2537 1.433 . S
C2539 N2542 1.384 . S
C2540 H2531 0.929 . S
C2540 C2532 1.378 . S
C2540 C2535 1.350 . S
C2541 H2528 0.929 . S
C2541 C2533 1.433 . S
C2541 N2543 1.384 . S
N2542 C2538 1.427 . S
N2542 C2539 1.384 . S
N2543 C2535 1.427 . S
N2543 C2541 1.384 . S
H2544 C2550 0.930 . S
H2545 C2554 0.930 . S
H2546 C2559 0.929 . S
H2547 C2557 0.929 . S
H2548 C2552 0.929 . S
H2549 C2558 0.929 . S
C2550 H2544 0.930 . S
C2550 C2551 1.367 . S
C2550 C2558 1.378 . S
C2551 C2550 1.367 . S
C2551 C2559 1.433 . S
C2552 H2548 0.929 . S
C2552 C2554 1.378 . S
C2552 C2556 1.350 . S
C2553 C2556 1.463 . S
C2553 C2558 1.350 . S
C2553 N2561 1.427 . S
C2554 H2545 0.930 . S
C2554 C2552 1.378 . S
C2554 C2555 1.367 . S
C2555 C2554 1.367 . S
C2555 C2557 1.433 . S
C2556 C2552 1.350 . S
C2556 C2553 1.463 . S
C2556 N2560 1.427 . S
C2557 H2547 0.929 . S
C2557 C2555 1.433 . S
C2557 N2560 1.384 . S
C2558 H2549 0.929 . S
C2558 C2550 1.378 . S
C2558 C2553 1.350 . S
C2559 H2546 0.929 . S
C2559 C2551 1.433 . S
C2559 N2561 1.384 . S
N2560 C2556 1.427 . S
N2560 C2557 1.384 . S
N2561 C2553 1.427 . S
N2561 C2559 1.384 . S
H2562 C2568 0.930 . S
H2563 C2572 0.930 . S
H2564 C2577 0.929 . S
H2565 C2575 0.929 . S
H2566 C2570 0.929 . S
H2567 C2576 0.929 . S
C2568 H2562 0.930 . S
C2568 C2569 1.367 . S
C2568 C2576 1.378 . S
C2569 C2568 1.367 . S
C2569 C2577 1.433 . S
C2570 H2566 0.929 . S
C2570 C2572 1.378 . S
C2570 C2574 1.350 . S
C2571 C2574 1.463 . S
C2571 C2576 1.350 1_565 S
C2571 N2579 1.427 . S
C2572 H2563 0.930 . S
C2572 C2570 1.378 . S
C2572 C2573 1.367 . S
C2573 C2572 1.367 . S
C2573 C2575 1.433 . S
C2574 C2570 1.350 . S
C2574 C2571 1.463 . S
C2574 N2578 1.427 . S
C2575 H2565 0.929 . S
C2575 C2573 1.433 . S
C2575 N2578 1.384 . S
C2576 H2567 0.929 . S
C2576 C2568 1.378 . S
C2576 C2571 1.350 1_545 S
C2577 H2564 0.929 . S
C2577 C2569 1.433 . S
C2577 N2579 1.384 1_545 S
N2578 C2574 1.427 . S
N2578 C2575 1.384 . S
N2579 C2571 1.427 . S
N2579 C2577 1.384 1_565 S
H2580 C2586 0.930 . S
H2581 C2590 0.930 . S
H2582 C2595 0.929 . S
H2583 C2593 0.929 . S
H2584 C2588 0.929 . S
H2585 C2594 0.929 . S
C2586 H2580 0.930 . S
C2586 C2587 1.367 . S
C2586 C2594 1.378 . S
C2587 C2586 1.367 . S
C2587 C2595 1.433 . S
C2588 H2584 0.929 . S
C2588 C2590 1.378 . S
C2588 C2592 1.350 . S
C2589 C2592 1.463 . S
C2589 C2594 1.350 . S
C2589 N2597 1.427 . S
C2590 H2581 0.930 . S
C2590 C2588 1.378 . S
C2590 C2591 1.367 . S
C2591 C2590 1.367 . S
C2591 C2593 1.433 . S
C2592 C2588 1.350 . S
C2592 C2589 1.463 . S
C2592 N2596 1.427 . S
C2593 H2583 0.929 . S
C2593 C2591 1.433 . S
C2593 N2596 1.384 . S
C2594 H2585 0.929 . S
C2594 C2586 1.378 . S
C2594 C2589 1.350 . S
C2595 H2582 0.929 . S
C2595 C2587 1.433 . S
C2595 N2597 1.384 . S
N2596 C2592 1.427 . S
N2596 C2593 1.384 . S
N2597 C2589 1.427 . S
N2597 C2595 1.384 . S
H2598 C2604 0.930 . S
H2599 C2608 0.930 . S
H2600 C2613 0.929 . S
H2601 C2611 0.929 . S
H2602 C2606 0.929 . S
H2603 C2612 0.929 . S
C2604 H2598 0.930 . S
C2604 C2605 1.367 . S
C2604 C2612 1.378 . S
C2605 C2604 1.367 . S
C2605 C2613 1.433 . S
C2606 H2602 0.929 . S
C2606 C2608 1.378 . S
C2606 C2610 1.350 . S
C2607 C2610 1.463 . S
C2607 C2612 1.350 1_655 S
C2607 N2615 1.427 1_655 S
C2608 H2599 0.930 . S
C2608 C2606 1.378 . S
C2608 C2609 1.367 . S
C2609 C2608 1.367 . S
C2609 C2611 1.433 . S
C2610 C2606 1.350 . S
C2610 C2607 1.463 . S
C2610 N2614 1.427 . S
C2611 H2601 0.929 . S
C2611 C2609 1.433 . S
C2611 N2614 1.384 . S
C2612 H2603 0.929 . S
C2612 C2604 1.378 . S
C2612 C2607 1.350 1_455 S
C2613 H2600 0.929 . S
C2613 C2605 1.433 . S
C2613 N2615 1.401 . S
N2614 C2610 1.427 . S
N2614 C2611 1.384 . S
N2615 C2607 1.427 1_455 S
N2615 C2613 1.401 . S
H2616 C2622 0.930 . S
H2617 C2626 0.930 . S
H2618 C2631 0.929 . S
H2619 C2629 0.929 . S
H2620 C2624 0.929 . S
H2621 C2630 0.926 . S
C2622 H2616 0.930 . S
C2622 C2623 1.367 . S
C2622 C2630 1.378 . S
C2623 C2622 1.367 . S
C2623 C2631 1.433 . S
C2624 H2620 0.929 . S
C2624 C2626 1.378 . S
C2624 C2628 1.350 . S
C2625 C2628 1.463 1_655 S
C2625 C2630 1.350 . S
C2625 N2633 1.427 . S
C2626 H2617 0.930 . S
C2626 C2624 1.378 . S
C2626 C2627 1.367 . S
C2627 C2626 1.367 . S
C2627 C2629 1.433 . S
C2628 C2624 1.350 . S
C2628 C2625 1.463 1_455 S
C2628 N2632 1.427 . S
C2629 H2619 0.929 . S
C2629 C2627 1.433 . S
C2629 N2632 1.384 . S
C2630 H2621 0.926 . S
C2630 C2622 1.378 . S
C2630 C2625 1.350 . S
C2631 H2618 0.929 . S
C2631 C2623 1.433 . S
C2631 N2633 1.384 . S
N2632 C2628 1.427 . S
N2632 C2629 1.384 . S
N2633 C2625 1.427 . S
N2633 C2631 1.384 . S
H2634 C2640 0.930 . S
H2635 C2644 0.930 . S
H2636 C2649 0.929 . S
H2637 C2647 0.929 . S
H2638 C2642 0.929 . S
H2639 C2648 0.929 . S
C2640 H2634 0.930 . S
C2640 C2641 1.367 . S
C2640 C2648 1.378 . S
C2641 C2640 1.367 . S
C2641 C2649 1.433 . S
C2642 H2638 0.929 . S
C2642 C2644 1.378 . S
C2642 C2646 1.350 . S
C2643 C2646 1.463 . S
C2643 C2648 1.350 . S
C2643 N2651 1.427 . S
C2644 H2635 0.930 . S
C2644 C2642 1.378 . S
C2644 C2645 1.367 . S
C2645 C2644 1.367 . S
C2645 C2647 1.433 . S
C2646 C2642 1.350 . S
C2646 C2643 1.463 . S
C2646 N2650 1.427 . S
C2647 H2637 0.929 . S
C2647 C2645 1.433 . S
C2647 N2650 1.384 . S
C2648 H2639 0.929 . S
C2648 C2640 1.378 . S
C2648 C2643 1.350 . S
C2649 H2636 0.929 . S
C2649 C2641 1.433 . S
C2649 N2651 1.384 . S
N2650 C2646 1.427 . S
N2650 C2647 1.384 . S
N2651 C2643 1.427 . S
N2651 C2649 1.384 . S
H2652 C2658 0.930 . S
H2653 C2662 0.930 . S
H2654 C2667 0.929 . S
H2655 C2665 0.929 . S
H2656 C2660 0.929 . S
H2657 C2666 0.929 . S
C2658 H2652 0.930 . S
C2658 C2659 1.367 . S
C2658 C2666 1.378 . S
C2659 C2658 1.367 . S
C2659 C2667 1.433 . S
C2660 H2656 0.929 . S
C2660 C2662 1.378 . S
C2660 C2664 1.350 . S
C2661 C2664 1.463 . S
C2661 C2666 1.350 . S
C2661 N2669 1.427 . S
C2662 H2653 0.930 . S
C2662 C2660 1.378 . S
C2662 C2663 1.367 . S
C2663 C2662 1.367 . S
C2663 C2665 1.433 . S
C2664 C2660 1.350 . S
C2664 C2661 1.463 . S
C2664 N2668 1.427 . S
C2665 H2655 0.929 . S
C2665 C2663 1.433 . S
C2665 N2668 1.384 . S
C2666 H2657 0.929 . S
C2666 C2658 1.378 . S
C2666 C2661 1.350 . S
C2667 H2654 0.929 . S
C2667 C2659 1.433 . S
C2667 N2669 1.384 . S
N2668 C2664 1.427 . S
N2668 C2665 1.384 . S
N2669 C2661 1.427 . S
N2669 C2667 1.384 . S
H2670 C2676 0.930 . S
H2671 C2680 0.930 . S
H2672 C2685 0.929 . S
H2673 C2683 0.930 1_554 S
H2674 C2678 0.929 . S
H2675 C2684 0.935 . S
C2676 H2670 0.930 . S
C2676 C2677 1.367 . S
C2676 C2684 1.372 1_655 S
C2677 C2676 1.367 . S
C2677 C2685 1.433 . S
C2678 H2674 0.929 . S
C2678 C2680 1.378 . S
C2678 C2682 1.350 1_556 S
C2679 C2682 1.463 . S
C2679 C2684 1.350 . S
C2679 N2687 1.427 1_455 S
C2680 H2671 0.930 . S
C2680 C2678 1.378 . S
C2680 C2681 1.367 . S
C2681 C2680 1.367 . S
C2681 C2683 1.431 . S
C2682 C2678 1.350 1_554 S
C2682 C2679 1.463 . S
C2682 N2686 1.427 . S
C2683 H2673 0.930 1_556 S
C2683 C2681 1.431 . S
C2683 N2686 1.385 1_556 S
C2684 H2675 0.935 . S
C2684 C2676 1.372 1_455 S
C2684 C2679 1.350 . S
C2685 H2672 0.929 . S
C2685 C2677 1.433 . S
C2685 N2687 1.384 . S
N2686 C2682 1.427 . S
N2686 C2683 1.385 1_554 S
N2687 C2679 1.427 1_655 S
N2687 C2685 1.384 . S
H2688 C2694 0.930 . S
H2689 C2698 0.930 . S
H2690 C2703 0.929 . S
H2691 C2701 0.929 . S
H2692 C2696 0.929 . S
H2693 C2702 0.929 . S
C2694 H2688 0.930 . S
C2694 C2695 1.367 . S
C2694 C2702 1.378 . S
C2695 C2694 1.367 . S
C2695 C2703 1.433 . S
C2696 H2692 0.929 . S
C2696 C2698 1.378 . S
C2696 C2700 1.350 . S
C2697 C2700 1.463 . S
C2697 C2702 1.350 . S
C2697 N2705 1.427 . S
C2698 H2689 0.930 . S
C2698 C2696 1.378 . S
C2698 C2699 1.367 . S
C2699 C2698 1.367 . S
C2699 C2701 1.433 . S
C2700 C2696 1.350 . S
C2700 C2697 1.463 . S
C2700 N2704 1.427 . S
C2701 H2691 0.929 . S
C2701 C2699 1.433 . S
C2701 N2704 1.384 . S
C2702 H2693 0.929 . S
C2702 C2694 1.378 . S
C2702 C2697 1.350 . S
C2703 H2690 0.929 . S
C2703 C2695 1.433 . S
C2703 N2705 1.384 . S
N2704 C2700 1.427 . S
N2704 C2701 1.384 . S
N2705 C2697 1.427 . S
N2705 C2703 1.384 . S
H2706 C2712 0.930 . S
H2707 C2716 0.929 1_545 S
H2708 C2721 0.929 . S
H2709 C2719 0.929 . S
H2710 C2714 0.929 . S
H2711 C2720 0.929 . S
C2712 H2706 0.930 . S
C2712 C2713 1.367 . S
C2712 C2720 1.378 . S
C2713 C2712 1.367 . S
C2713 C2721 1.433 . S
C2714 H2710 0.929 . S
C2714 C2716 1.368 1_545 S
C2714 C2718 1.350 . S
C2715 C2718 1.463 . S
C2715 C2720 1.350 . S
C2715 N2723 1.427 . S
C2716 H2707 0.929 1_565 S
C2716 C2714 1.368 1_565 S
C2716 C2717 1.378 . S
C2717 C2716 1.378 . S
C2717 C2719 1.433 . S
C2718 C2714 1.350 . S
C2718 C2715 1.463 . S
C2718 N2722 1.427 1_545 S
C2719 H2709 0.929 . S
C2719 C2717 1.433 . S
C2719 N2722 1.384 . S
C2720 H2711 0.929 . S
C2720 C2712 1.378 . S
C2720 C2715 1.350 . S
C2721 H2708 0.929 . S
C2721 C2713 1.433 . S
C2721 N2723 1.384 . S
N2722 C2718 1.427 1_565 S
N2722 C2719 1.384 . S
N2723 C2715 1.427 . S
N2723 C2721 1.384 . S
H2724 C2730 0.930 . S
H2725 C2734 0.930 . S
H2726 C2739 0.929 . S
H2727 C2737 0.929 . S
H2728 C2732 0.929 . S
H2729 C2738 0.929 . S
C2730 H2724 0.930 . S
C2730 C2731 1.367 . S
C2730 C2738 1.378 . S
C2731 C2730 1.367 . S
C2731 C2739 1.433 . S
C2732 H2728 0.929 . S
C2732 C2734 1.378 . S
C2732 C2736 1.350 . S
C2733 C2736 1.463 . S
C2733 C2738 1.350 . S
C2733 N2741 1.427 . S
C2734 H2725 0.930 . S
C2734 C2732 1.378 . S
C2734 C2735 1.367 . S
C2735 C2734 1.367 . S
C2735 C2737 1.433 . S
C2736 C2732 1.350 . S
C2736 C2733 1.463 . S
C2736 N2740 1.427 . S
C2737 H2727 0.929 . S
C2737 C2735 1.433 . S
C2737 N2740 1.384 . S
C2738 H2729 0.929 . S
C2738 C2730 1.378 . S
C2738 C2733 1.350 . S
C2739 H2726 0.929 . S
C2739 C2731 1.433 . S
C2739 N2741 1.384 . S
N2740 C2736 1.427 . S
N2740 C2737 1.384 . S
N2741 C2733 1.427 . S
N2741 C2739 1.384 . S
H2742 C2748 0.930 . S
H2743 C2752 0.930 . S
H2744 C2757 0.929 . S
H2745 C2755 0.929 . S
H2746 C2750 0.938 . S
H2747 C2756 0.929 1_554 S
C2748 H2742 0.930 . S
C2748 C2749 1.367 . S
C2748 C2756 1.378 . S
C2749 C2748 1.367 . S
C2749 C2757 1.433 . S
C2750 H2746 0.938 . S
C2750 C2752 1.371 1_556 S
C2750 C2754 1.347 1_556 S
C2751 C2754 1.463 1_556 S
C2751 C2756 1.350 . S
C2751 N2759 1.427 . S
C2752 H2743 0.930 . S
C2752 C2750 1.371 1_554 S
C2752 C2753 1.367 . S
C2753 C2752 1.367 . S
C2753 C2755 1.433 . S
C2754 C2750 1.347 1_554 S
C2754 C2751 1.463 1_554 S
C2754 N2758 1.427 . S
C2755 H2745 0.929 . S
C2755 C2753 1.433 . S
C2755 N2758 1.384 . S
C2756 H2747 0.929 1_556 S
C2756 C2748 1.378 . S
C2756 C2751 1.350 . S
C2757 H2744 0.929 . S
C2757 C2749 1.433 . S
C2757 N2759 1.384 . S
N2758 C2754 1.427 . S
N2758 C2755 1.384 . S
N2759 C2751 1.427 . S
N2759 C2757 1.384 . S
H2760 C2766 0.930 . S
H2761 C2770 0.930 . S
H2762 C2775 0.929 . S
H2763 C2773 0.929 . S
H2764 C2768 0.929 . S
H2765 C2774 0.929 . S
C2766 H2760 0.930 . S
C2766 C2767 1.367 . S
C2766 C2774 1.378 1_545 S
C2767 C2766 1.367 . S
C2767 C2775 1.433 . S
C2768 H2764 0.929 . S
C2768 C2770 1.378 . S
C2768 C2772 1.350 . S
C2769 C2772 1.463 . S
C2769 C2774 1.350 1_455 S
C2769 N2777 1.427 1_565 S
C2770 H2761 0.930 . S
C2770 C2768 1.378 . S
C2770 C2771 1.367 . S
C2771 C2770 1.367 . S
C2771 C2773 1.433 . S
C2772 C2768 1.350 . S
C2772 C2769 1.463 . S
C2772 N2776 1.427 . S
C2773 H2763 0.929 . S
C2773 C2771 1.433 . S
C2773 N2776 1.384 . S
C2774 H2765 0.929 . S
C2774 C2766 1.378 1_565 S
C2774 C2769 1.350 1_655 S
C2775 H2762 0.929 . S
C2775 C2767 1.433 . S
C2775 N2777 1.384 1_655 S
N2776 C2772 1.427 . S
N2776 C2773 1.384 . S
N2777 C2769 1.427 1_545 S
N2777 C2775 1.384 1_455 S
H2778 C2784 0.930 . S
H2779 C2788 0.930 . S
H2780 C2793 0.929 . S
H2781 C2791 0.929 . S
H2782 C2786 0.929 . S
H2783 C2792 0.929 . S
C2784 H2778 0.930 . S
C2784 C2785 1.367 . S
C2784 C2792 1.378 . S
C2785 C2784 1.367 . S
C2785 C2793 1.433 . S
C2786 H2782 0.929 . S
C2786 C2788 1.378 . S
C2786 C2790 1.350 . S
C2787 C2790 1.463 . S
C2787 C2792 1.350 . S
C2787 N2795 1.427 . S
C2788 H2779 0.930 . S
C2788 C2786 1.378 . S
C2788 C2789 1.367 . S
C2789 C2788 1.367 . S
C2789 C2791 1.433 . S
C2790 C2786 1.350 . S
C2790 C2787 1.463 . S
C2790 N2794 1.427 . S
C2791 H2781 0.929 . S
C2791 C2789 1.433 . S
C2791 N2794 1.384 . S
C2792 H2783 0.929 . S
C2792 C2784 1.378 . S
C2792 C2787 1.350 . S
C2793 H2780 0.929 . S
C2793 C2785 1.433 . S
C2793 N2795 1.384 . S
N2794 C2790 1.427 . S
N2794 C2791 1.384 . S
N2795 C2787 1.427 . S
N2795 C2793 1.384 . S
H2796 C2802 0.930 . S
H2797 C2806 0.930 . S
H2798 C2811 0.929 . S
H2799 C2809 0.929 . S
H2800 C2804 0.929 . S
H2801 C2810 0.929 . S
C2802 H2796 0.930 . S
C2802 C2803 1.367 . S
C2802 C2810 1.378 1_565 S
C2803 C2802 1.367 . S
C2803 C2811 1.433 . S
C2804 H2800 0.929 . S
C2804 C2806 1.378 . S
C2804 C2808 1.350 . S
C2805 C2808 1.463 . S
C2805 C2810 1.350 . S
C2805 N2813 1.427 1_545 S
C2806 H2797 0.930 . S
C2806 C2804 1.378 . S
C2806 C2807 1.367 . S
C2807 C2806 1.367 . S
C2807 C2809 1.433 . S
C2808 C2804 1.350 . S
C2808 C2805 1.463 . S
C2808 N2812 1.427 . S
C2809 H2799 0.929 . S
C2809 C2807 1.433 . S
C2809 N2812 1.384 . S
C2810 H2801 0.929 . S
C2810 C2802 1.378 1_545 S
C2810 C2805 1.350 . S
C2811 H2798 0.929 . S
C2811 C2803 1.433 . S
C2811 N2813 1.384 . S
N2812 C2808 1.427 . S
N2812 C2809 1.384 . S
N2813 C2805 1.427 1_565 S
N2813 C2811 1.384 . S
H2814 C2820 0.930 . S
H2815 C2824 0.930 . S
H2816 C2829 0.929 . S
H2817 C2827 0.929 . S
H2818 C2822 0.924 1_455 S
H2819 C2828 0.929 . S
C2820 H2814 0.930 . S
C2820 C2821 1.367 . S
C2820 C2828 1.378 . S
C2821 C2820 1.367 . S
C2821 C2829 1.433 . S
C2822 H2818 0.924 1_655 S
C2822 C2824 1.378 . S
C2822 C2826 1.350 1_655 S
C2823 C2826 1.463 . S
C2823 C2828 1.350 . S
C2823 N2831 1.427 . S
C2824 H2815 0.930 . S
C2824 C2822 1.378 . S
C2824 C2825 1.367 . S
C2825 C2824 1.367 . S
C2825 C2827 1.433 . S
C2826 C2822 1.350 1_455 S
C2826 C2823 1.463 . S
C2826 N2830 1.427 1_455 S
C2827 H2817 0.929 . S
C2827 C2825 1.433 . S
C2827 N2830 1.384 . S
C2828 H2819 0.929 . S
C2828 C2820 1.378 . S
C2828 C2823 1.350 . S
C2829 H2816 0.929 . S
C2829 C2821 1.433 . S
C2829 N2831 1.384 . S
N2830 C2826 1.427 1_655 S
N2830 C2827 1.384 . S
N2831 C2823 1.427 . S
N2831 C2829 1.384 . S
H2832 C2838 0.930 . S
H2833 C2842 0.930 . S
H2834 C2847 0.929 . S
H2835 C2845 0.929 . S
H2836 C2840 0.929 . S
H2837 C2846 0.929 . S
C2838 H2832 0.930 . S
C2838 C2839 1.367 . S
C2838 C2846 1.378 . S
C2839 C2838 1.367 . S
C2839 C2847 1.433 1_565 S
C2840 H2836 0.929 . S
C2840 C2842 1.378 1_554 S
C2840 C2844 1.350 1_554 S
C2841 C2844 1.447 1_554 S
C2841 C2846 1.350 1_545 S
C2841 N2849 1.427 . S
C2842 H2833 0.930 . S
C2842 C2840 1.378 1_556 S
C2842 C2843 1.367 . S
C2843 C2842 1.367 . S
C2843 C2845 1.433 . S
C2844 C2840 1.350 1_556 S
C2844 C2841 1.447 1_556 S
C2844 N2848 1.443 . S
C2845 H2835 0.929 . S
C2845 C2843 1.433 . S
C2845 N2848 1.384 . S
C2846 H2837 0.929 . S
C2846 C2838 1.378 . S
C2846 C2841 1.350 1_565 S
C2847 H2834 0.929 . S
C2847 C2839 1.433 1_545 S
C2847 N2849 1.384 . S
N2848 C2844 1.443 . S
N2848 C2845 1.384 . S
N2849 C2841 1.427 . S
N2849 C2847 1.384 . S
H2850 C2856 0.930 . S
H2851 C2860 0.930 . S
H2852 C2865 0.929 . S
H2853 C2863 0.929 . S
H2854 C2858 0.929 . S
H2855 C2864 0.929 . S
C2856 H2850 0.930 . S
C2856 C2857 1.367 . S
C2856 C2864 1.378 . S
C2857 C2856 1.367 . S
C2857 C2865 1.433 . S
C2858 H2854 0.929 . S
C2858 C2860 1.378 . S
C2858 C2862 1.350 . S
C2859 C2862 1.463 . S
C2859 C2864 1.350 . S
C2859 N2867 1.427 . S
C2860 H2851 0.930 . S
C2860 C2858 1.378 . S
C2860 C2861 1.367 . S
C2861 C2860 1.367 . S
C2861 C2863 1.433 . S
C2862 C2858 1.350 . S
C2862 C2859 1.463 . S
C2862 N2866 1.427 . S
C2863 H2853 0.929 . S
C2863 C2861 1.433 . S
C2863 N2866 1.384 . S
C2864 H2855 0.929 . S
C2864 C2856 1.378 . S
C2864 C2859 1.350 . S
C2865 H2852 0.929 . S
C2865 C2857 1.433 . S
C2865 N2867 1.384 . S
N2866 C2862 1.427 . S
N2866 C2863 1.384 . S
N2867 C2859 1.427 . S
N2867 C2865 1.384 . S
H2868 C2874 0.930 . S
H2869 C2878 0.930 . S
H2870 C2883 0.929 . S
H2871 C2881 0.929 . S
H2872 C2876 0.929 . S
H2873 C2882 0.929 . S
C2874 H2868 0.930 . S
C2874 C2875 1.367 . S
C2874 C2882 1.378 . S
C2875 C2874 1.367 . S
C2875 C2883 1.433 . S
C2876 H2872 0.929 . S
C2876 C2878 1.378 . S
C2876 C2880 1.350 . S
C2877 C2880 1.463 . S
C2877 C2882 1.350 . S
C2877 N2885 1.427 . S
C2878 H2869 0.930 . S
C2878 C2876 1.378 . S
C2878 C2879 1.367 . S
C2879 C2878 1.367 . S
C2879 C2881 1.433 . S
C2880 C2876 1.350 . S
C2880 C2877 1.463 . S
C2880 N2884 1.427 . S
C2881 H2871 0.929 . S
C2881 C2879 1.433 . S
C2881 N2884 1.384 . S
C2882 H2873 0.929 . S
C2882 C2874 1.378 . S
C2882 C2877 1.350 . S
C2883 H2870 0.929 . S
C2883 C2875 1.433 . S
C2883 N2885 1.384 . S
N2884 C2880 1.427 . S
N2884 C2881 1.384 . S
N2885 C2877 1.427 . S
N2885 C2883 1.384 . S
H2886 C2892 0.930 . S
H2887 C2896 0.930 . S
H2888 C2901 0.929 . S
H2889 C2899 0.929 . S
H2890 C2894 0.929 . S
H2891 C2900 0.929 . S
C2892 H2886 0.930 . S
C2892 C2893 1.367 . S
C2892 C2900 1.378 . S
C2893 C2892 1.367 . S
C2893 C2901 1.433 . S
C2894 H2890 0.929 . S
C2894 C2896 1.378 . S
C2894 C2898 1.350 . S
C2895 C2898 1.463 . S
C2895 C2900 1.350 . S
C2895 N2903 1.427 . S
C2896 H2887 0.930 . S
C2896 C2894 1.378 . S
C2896 C2897 1.367 . S
C2897 C2896 1.367 . S
C2897 C2899 1.433 . S
C2898 C2894 1.350 . S
C2898 C2895 1.463 . S
C2898 N2902 1.427 . S
C2899 H2889 0.929 . S
C2899 C2897 1.433 . S
C2899 N2902 1.384 . S
C2900 H2891 0.929 . S
C2900 C2892 1.378 . S
C2900 C2895 1.350 . S
C2901 H2888 0.929 . S
C2901 C2893 1.433 . S
C2901 N2903 1.384 . S
N2902 C2898 1.427 . S
N2902 C2899 1.384 . S
N2903 C2895 1.427 . S
N2903 C2901 1.384 . S
H2904 C2910 0.930 . S
H2905 C2914 0.930 . S
H2906 C2919 0.929 . S
H2907 C2917 0.929 . S
H2908 C2912 0.929 . S
H2909 C2918 0.929 . S
C2910 H2904 0.930 . S
C2910 C2911 1.367 . S
C2910 C2918 1.378 . S
C2911 C2910 1.367 . S
C2911 C2919 1.433 . S
C2912 H2908 0.929 . S
C2912 C2914 1.378 . S
C2912 C2916 1.350 . S
C2913 C2916 1.463 . S
C2913 C2918 1.350 . S
C2913 N2921 1.427 . S
C2914 H2905 0.930 . S
C2914 C2912 1.378 . S
C2914 C2915 1.367 . S
C2915 C2914 1.367 . S
C2915 C2917 1.433 . S
C2916 C2912 1.350 . S
C2916 C2913 1.463 . S
C2916 N2920 1.427 . S
C2917 H2907 0.929 . S
C2917 C2915 1.433 . S
C2917 N2920 1.384 . S
C2918 H2909 0.929 . S
C2918 C2910 1.378 . S
C2918 C2913 1.350 . S
C2919 H2906 0.929 . S
C2919 C2911 1.433 . S
C2919 N2921 1.384 . S
N2920 C2916 1.427 . S
N2920 C2917 1.384 . S
N2921 C2913 1.427 . S
N2921 C2919 1.384 . S
H2922 C2928 0.930 . S
H2923 C2932 0.930 . S
H2924 C2937 0.929 . S
H2925 C2935 0.928 1_556 S
H2926 C2930 0.929 . S
H2927 C2936 0.929 . S
C2928 H2922 0.930 . S
C2928 C2929 1.367 . S
C2928 C2936 1.378 . S
C2929 C2928 1.367 . S
C2929 C2937 1.433 . S
C2930 H2926 0.929 . S
C2930 C2932 1.378 . S
C2930 C2934 1.350 1_554 S
C2931 C2934 1.463 . S
C2931 C2936 1.350 . S
C2931 N2939 1.427 . S
C2932 H2923 0.930 . S
C2932 C2930 1.378 . S
C2932 C2933 1.367 . S
C2933 C2932 1.367 . S
C2933 C2935 1.433 . S
C2934 C2930 1.350 1_556 S
C2934 C2931 1.463 . S
C2934 N2938 1.427 . S
C2935 H2925 0.928 1_554 S
C2935 C2933 1.433 . S
C2935 N2938 1.384 1_554 S
C2936 H2927 0.929 . S
C2936 C2928 1.378 . S
C2936 C2931 1.350 . S
C2937 H2924 0.929 . S
C2937 C2929 1.433 . S
C2937 N2939 1.384 . S
N2938 C2934 1.427 . S
N2938 C2935 1.384 1_556 S
N2939 C2931 1.427 . S
N2939 C2937 1.384 . S
H2940 C2946 0.930 . S
H2941 C2950 0.930 . S
H2942 C2955 0.929 . S
H2943 C2953 0.929 . S
H2944 C2948 0.929 . S
H2945 C2954 0.929 . S
C2946 H2940 0.930 . S
C2946 C2947 1.367 . S
C2946 C2954 1.378 . S
C2947 C2946 1.367 . S
C2947 C2955 1.433 . S
C2948 H2944 0.929 . S
C2948 C2950 1.378 . S
C2948 C2952 1.350 . S
C2949 C2952 1.463 . S
C2949 C2954 1.350 . S
C2949 N2957 1.427 . S
C2950 H2941 0.930 . S
C2950 C2948 1.378 . S
C2950 C2951 1.367 . S
C2951 C2950 1.367 . S
C2951 C2953 1.433 . S
C2952 C2948 1.350 . S
C2952 C2949 1.463 . S
C2952 N2956 1.427 . S
C2953 H2943 0.929 . S
C2953 C2951 1.433 . S
C2953 N2956 1.384 . S
C2954 H2945 0.929 . S
C2954 C2946 1.378 . S
C2954 C2949 1.350 . S
C2955 H2942 0.929 . S
C2955 C2947 1.433 . S
C2955 N2957 1.384 . S
N2956 C2952 1.427 . S
N2956 C2953 1.384 . S
N2957 C2949 1.427 . S
N2957 C2955 1.384 . S
H2958 C2964 0.930 . S
H2959 C2968 0.930 . S
H2960 C2973 0.929 . S
H2961 C2971 0.929 . S
H2962 C2966 0.929 . S
H2963 C2972 0.929 . S
C2964 H2958 0.930 . S
C2964 C2965 1.367 . S
C2964 C2972 1.378 . S
C2965 C2964 1.367 . S
C2965 C2973 1.433 . S
C2966 H2962 0.929 . S
C2966 C2968 1.378 . S
C2966 C2970 1.350 . S
C2967 C2970 1.463 . S
C2967 C2972 1.350 . S
C2967 N2975 1.427 . S
C2968 H2959 0.930 . S
C2968 C2966 1.378 . S
C2968 C2969 1.367 . S
C2969 C2968 1.367 . S
C2969 C2971 1.433 . S
C2970 C2966 1.350 . S
C2970 C2967 1.463 . S
C2970 N2974 1.427 . S
C2971 H2961 0.929 . S
C2971 C2969 1.433 . S
C2971 N2974 1.384 . S
C2972 H2963 0.929 . S
C2972 C2964 1.378 . S
C2972 C2967 1.350 . S
C2973 H2960 0.929 . S
C2973 C2965 1.433 . S
C2973 N2975 1.384 . S
N2974 C2970 1.427 . S
N2974 C2971 1.384 . S
N2975 C2967 1.427 . S
N2975 C2973 1.384 . S
H2976 C2982 0.930 . S
H2977 C2986 0.930 . S
H2978 C2991 0.929 . S
H2979 C2989 0.929 . S
H2980 C2984 0.929 . S
H2981 C2990 0.929 . S
C2982 H2976 0.930 . S
C2982 C2983 1.367 . S
C2982 C2990 1.378 . S
C2983 C2982 1.367 . S
C2983 C2991 1.433 . S
C2984 H2980 0.929 . S
C2984 C2986 1.378 . S
C2984 C2988 1.350 . S
C2985 C2988 1.463 . S
C2985 C2990 1.350 . S
C2985 N2993 1.427 . S
C2986 H2977 0.930 . S
C2986 C2984 1.378 . S
C2986 C2987 1.367 . S
C2987 C2986 1.367 . S
C2987 C2989 1.433 . S
C2988 C2984 1.350 . S
C2988 C2985 1.463 . S
C2988 N2992 1.427 . S
C2989 H2979 0.929 . S
C2989 C2987 1.433 . S
C2989 N2992 1.384 . S
C2990 H2981 0.929 . S
C2990 C2982 1.378 . S
C2990 C2985 1.350 . S
C2991 H2978 0.929 . S
C2991 C2983 1.433 . S
C2991 N2993 1.384 . S
N2992 C2988 1.427 . S
N2992 C2989 1.384 . S
N2993 C2985 1.427 . S
N2993 C2991 1.384 . S
H2994 C3000 0.930 . S
H2995 C3004 0.930 . S
H2996 C3009 0.929 . S
H2997 C3007 0.929 . S
H2998 C3002 0.929 . S
H2999 C3008 0.929 . S
C3000 H2994 0.930 . S
C3000 C3001 1.367 . S
C3000 C3008 1.378 . S
C3001 C3000 1.367 . S
C3001 C3009 1.433 . S
C3002 H2998 0.929 . S
C3002 C3004 1.378 . S
C3002 C3006 1.350 . S
C3003 C3006 1.463 . S
C3003 C3008 1.350 1_545 S
C3003 N3011 1.427 . S
C3004 H2995 0.930 . S
C3004 C3002 1.378 . S
C3004 C3005 1.367 . S
C3005 C3004 1.367 . S
C3005 C3007 1.433 . S
C3006 C3002 1.350 . S
C3006 C3003 1.463 . S
C3006 N3010 1.427 . S
C3007 H2997 0.929 . S
C3007 C3005 1.433 . S
C3007 N3010 1.384 . S
C3008 H2999 0.929 . S
C3008 C3000 1.378 . S
C3008 C3003 1.350 1_565 S
C3009 H2996 0.929 . S
C3009 C3001 1.433 . S
C3009 N3011 1.384 1_565 S
N3010 C3006 1.427 . S
N3010 C3007 1.384 . S
N3011 C3003 1.427 . S
N3011 C3009 1.384 1_545 S
H3012 C3018 0.930 . S
H3013 C3022 0.930 . S
H3014 C3027 0.929 . S
H3015 C3025 0.929 . S
H3016 C3020 0.929 . S
H3017 C3026 0.929 . S
C3018 H3012 0.930 . S
C3018 C3019 1.367 . S
C3018 C3026 1.378 . S
C3019 C3018 1.367 . S
C3019 C3027 1.433 . S
C3020 H3016 0.929 . S
C3020 C3022 1.378 . S
C3020 C3024 1.350 . S
C3021 C3024 1.463 . S
C3021 C3026 1.350 . S
C3021 N3029 1.427 . S
C3022 H3013 0.930 . S
C3022 C3020 1.378 . S
C3022 C3023 1.367 . S
C3023 C3022 1.367 . S
C3023 C3025 1.433 . S
C3024 C3020 1.350 . S
C3024 C3021 1.463 . S
C3024 N3028 1.427 . S
C3025 H3015 0.929 . S
C3025 C3023 1.433 . S
C3025 N3028 1.384 . S
C3026 H3017 0.929 . S
C3026 C3018 1.378 . S
C3026 C3021 1.350 . S
C3027 H3014 0.929 . S
C3027 C3019 1.433 . S
C3027 N3029 1.384 . S
N3028 C3024 1.427 . S
N3028 C3025 1.384 . S
N3029 C3021 1.427 . S
N3029 C3027 1.384 . S
H3030 C3036 0.930 . S
H3031 C3040 0.930 . S
H3032 C3045 0.929 . S
H3033 C3043 0.929 . S
H3034 C3038 0.929 . S
H3035 C3044 0.929 . S
C3036 H3030 0.930 . S
C3036 C3037 1.367 . S
C3036 C3044 1.378 . S
C3037 C3036 1.367 . S
C3037 C3045 1.433 . S
C3038 H3034 0.929 . S
C3038 C3040 1.378 . S
C3038 C3042 1.350 . S
C3039 C3042 1.463 . S
C3039 C3044 1.350 1_565 S
C3039 N3047 1.427 . S
C3040 H3031 0.930 . S
C3040 C3038 1.378 . S
C3040 C3041 1.367 . S
C3041 C3040 1.367 . S
C3041 C3043 1.433 . S
C3042 C3038 1.350 . S
C3042 C3039 1.463 . S
C3042 N3046 1.427 . S
C3043 H3033 0.929 . S
C3043 C3041 1.433 . S
C3043 N3046 1.384 . S
C3044 H3035 0.929 . S
C3044 C3036 1.378 . S
C3044 C3039 1.350 1_545 S
C3045 H3032 0.929 . S
C3045 C3037 1.433 . S
C3045 N3047 1.384 1_545 S
N3046 C3042 1.427 . S
N3046 C3043 1.384 . S
N3047 C3039 1.427 . S
N3047 C3045 1.384 1_565 S
H3048 C3054 0.930 . S
H3049 C3058 0.930 . S
H3050 C3063 0.929 . S
H3051 C3061 0.929 . S
H3052 C3056 0.929 . S
H3053 C3062 0.929 1_545 S
C3054 H3048 0.930 . S
C3054 C3055 1.367 . S
C3054 C3062 1.378 . S
C3055 C3054 1.367 . S
C3055 C3063 1.433 . S
C3056 H3052 0.929 . S
C3056 C3058 1.378 . S
C3056 C3060 1.350 . S
C3057 C3060 1.463 1_554 S
C3057 C3062 1.350 . S
C3057 N3065 1.426 . S
C3058 H3049 0.930 . S
C3058 C3056 1.378 . S
C3058 C3059 1.367 1_565 S
C3059 C3058 1.367 1_545 S
C3059 C3061 1.433 . S
C3060 C3056 1.350 . S
C3060 C3057 1.463 1_556 S
C3060 N3064 1.427 1_565 S
C3061 H3051 0.929 . S
C3061 C3059 1.433 . S
C3061 N3064 1.384 . S
C3062 H3053 0.929 1_565 S
C3062 C3054 1.378 . S
C3062 C3057 1.350 . S
C3063 H3050 0.929 . S
C3063 C3055 1.433 . S
C3063 N3065 1.412 . S
N3064 C3060 1.427 1_545 S
N3064 C3061 1.384 . S
N3065 C3057 1.426 . S
N3065 C3063 1.412 . S
H3066 C3072 0.930 . S
H3067 C3076 0.930 . S
H3068 C3081 0.929 . S
H3069 C3079 0.929 . S
H3070 C3074 0.929 . S
H3071 C3080 0.929 . S
C3072 H3066 0.930 . S
C3072 C3073 1.367 . S
C3072 C3080 1.378 . S
C3073 C3072 1.367 . S
C3073 C3081 1.433 . S
C3074 H3070 0.929 . S
C3074 C3076 1.378 . S
C3074 C3078 1.350 . S
C3075 C3078 1.463 . S
C3075 C3080 1.350 . S
C3075 N3083 1.427 . S
C3076 H3067 0.930 . S
C3076 C3074 1.378 . S
C3076 C3077 1.367 . S
C3077 C3076 1.367 . S
C3077 C3079 1.433 . S
C3078 C3074 1.350 . S
C3078 C3075 1.463 . S
C3078 N3082 1.427 . S
C3079 H3069 0.929 . S
C3079 C3077 1.433 . S
C3079 N3082 1.384 . S
C3080 H3071 0.929 . S
C3080 C3072 1.378 . S
C3080 C3075 1.350 . S
C3081 H3068 0.929 . S
C3081 C3073 1.433 . S
C3081 N3083 1.384 . S
N3082 C3078 1.427 . S
N3082 C3079 1.384 . S
N3083 C3075 1.427 . S
N3083 C3081 1.384 . S
H3084 C3090 0.930 . S
H3085 C3094 0.930 . S
H3086 C3099 0.929 . S
H3087 C3097 0.929 . S
H3088 C3092 0.929 . S
H3089 C3098 0.929 . S
C3090 H3084 0.930 . S
C3090 C3091 1.367 . S
C3090 C3098 1.378 . S
C3091 C3090 1.367 . S
C3091 C3099 1.433 . S
C3092 H3088 0.929 . S
C3092 C3094 1.378 . S
C3092 C3096 1.350 1_556 S
C3093 C3096 1.463 . S
C3093 C3098 1.350 . S
C3093 N3101 1.427 . S
C3094 H3085 0.930 . S
C3094 C3092 1.378 . S
C3094 C3095 1.367 . S
C3095 C3094 1.367 . S
C3095 C3097 1.433 . S
C3096 C3092 1.350 1_554 S
C3096 C3093 1.463 . S
C3096 N3100 1.427 . S
C3097 H3087 0.929 . S
C3097 C3095 1.433 . S
C3097 N3100 1.384 1_556 S
C3098 H3089 0.929 . S
C3098 C3090 1.378 . S
C3098 C3093 1.350 . S
C3099 H3086 0.929 . S
C3099 C3091 1.433 . S
C3099 N3101 1.384 . S
N3100 C3096 1.427 . S
N3100 C3097 1.384 1_554 S
N3101 C3093 1.427 . S
N3101 C3099 1.384 . S
H3102 C3108 0.930 . S
H3103 C3112 0.930 . S
H3104 C3117 0.929 . S
H3105 C3115 0.929 . S
H3106 C3110 0.929 . S
H3107 C3116 0.929 . S
C3108 H3102 0.930 . S
C3108 C3109 1.367 . S
C3108 C3116 1.378 . S
C3109 C3108 1.367 . S
C3109 C3117 1.433 . S
C3110 H3106 0.929 . S
C3110 C3112 1.378 . S
C3110 C3114 1.350 . S
C3111 C3114 1.463 . S
C3111 C3116 1.350 . S
C3111 N3119 1.427 . S
C3112 H3103 0.930 . S
C3112 C3110 1.378 . S
C3112 C3113 1.367 . S
C3113 C3112 1.367 . S
C3113 C3115 1.433 . S
C3114 C3110 1.350 . S
C3114 C3111 1.463 . S
C3114 N3118 1.427 . S
C3115 H3105 0.929 . S
C3115 C3113 1.433 . S
C3115 N3118 1.384 . S
C3116 H3107 0.929 . S
C3116 C3108 1.378 . S
C3116 C3111 1.350 . S
C3117 H3104 0.929 . S
C3117 C3109 1.433 . S
C3117 N3119 1.384 . S
N3118 C3114 1.427 . S
N3118 C3115 1.384 . S
N3119 C3111 1.427 . S
N3119 C3117 1.384 . S
H3120 C3126 0.930 . S
H3121 C3130 0.930 . S
H3122 C3135 0.929 . S
H3123 C3133 0.929 . S
H3124 C3128 0.929 . S
H3125 C3134 0.929 . S
C3126 H3120 0.930 . S
C3126 C3127 1.367 . S
C3126 C3134 1.378 . S
C3127 C3126 1.367 . S
C3127 C3135 1.433 . S
C3128 H3124 0.929 . S
C3128 C3130 1.378 . S
C3128 C3132 1.350 . S
C3129 C3132 1.463 . S
C3129 C3134 1.350 . S
C3129 N3137 1.427 . S
C3130 H3121 0.930 . S
C3130 C3128 1.378 . S
C3130 C3131 1.367 . S
C3131 C3130 1.367 . S
C3131 C3133 1.433 . S
C3132 C3128 1.350 . S
C3132 C3129 1.463 . S
C3132 N3136 1.427 . S
C3133 H3123 0.929 . S
C3133 C3131 1.433 . S
C3133 N3136 1.384 . S
C3134 H3125 0.929 . S
C3134 C3126 1.378 . S
C3134 C3129 1.350 . S
C3135 H3122 0.929 . S
C3135 C3127 1.433 . S
C3135 N3137 1.384 . S
N3136 C3132 1.427 . S
N3136 C3133 1.384 . S
N3137 C3129 1.427 . S
N3137 C3135 1.384 . S
H3138 C3144 0.930 . S
H3139 C3148 0.930 . S
H3140 C3153 0.929 . S
H3141 C3151 0.929 . S
H3142 C3146 0.929 . S
H3143 C3152 0.929 . S
C3144 H3138 0.930 . S
C3144 C3145 1.367 . S
C3144 C3152 1.378 . S
C3145 C3144 1.367 . S
C3145 C3153 1.433 . S
C3146 H3142 0.929 . S
C3146 C3148 1.378 . S
C3146 C3150 1.350 . S
C3147 C3150 1.463 . S
C3147 C3152 1.350 . S
C3147 N3155 1.427 . S
C3148 H3139 0.930 . S
C3148 C3146 1.378 . S
C3148 C3149 1.367 . S
C3149 C3148 1.367 . S
C3149 C3151 1.433 . S
C3150 C3146 1.350 . S
C3150 C3147 1.463 . S
C3150 N3154 1.427 . S
C3151 H3141 0.929 . S
C3151 C3149 1.433 . S
C3151 N3154 1.384 . S
C3152 H3143 0.929 . S
C3152 C3144 1.378 . S
C3152 C3147 1.350 . S
C3153 H3140 0.929 . S
C3153 C3145 1.433 . S
C3153 N3155 1.384 . S
N3154 C3150 1.427 . S
N3154 C3151 1.384 . S
N3155 C3147 1.427 . S
N3155 C3153 1.384 . S
H3156 C3162 0.930 . S
H3157 C3166 0.930 . S
H3158 C3171 0.929 . S
H3159 C3169 0.929 . S
H3160 C3164 0.929 . S
H3161 C3170 0.929 . S
C3162 H3156 0.930 . S
C3162 C3163 1.367 . S
C3162 C3170 1.378 . S
C3163 C3162 1.367 . S
C3163 C3171 1.433 . S
C3164 H3160 0.929 . S
C3164 C3166 1.378 . S
C3164 C3168 1.350 . S
C3165 C3168 1.463 . S
C3165 C3170 1.350 . S
C3165 N3173 1.427 . S
C3166 H3157 0.930 . S
C3166 C3164 1.378 . S
C3166 C3167 1.367 . S
C3167 C3166 1.367 . S
C3167 C3169 1.433 . S
C3168 C3164 1.350 . S
C3168 C3165 1.463 . S
C3168 N3172 1.427 . S
C3169 H3159 0.929 . S
C3169 C3167 1.433 . S
C3169 N3172 1.384 . S
C3170 H3161 0.929 . S
C3170 C3162 1.378 . S
C3170 C3165 1.350 . S
C3171 H3158 0.929 . S
C3171 C3163 1.433 . S
C3171 N3173 1.384 . S
N3172 C3168 1.427 . S
N3172 C3169 1.384 . S
N3173 C3165 1.427 . S
N3173 C3171 1.384 . S
H3174 C3180 0.930 . S
H3175 C3184 0.930 . S
H3176 C3189 0.929 . S
H3177 C3187 0.929 . S
H3178 C3182 0.929 . S
H3179 C3188 0.929 . S
C3180 H3174 0.930 . S
C3180 C3181 1.367 . S
C3180 C3188 1.378 . S
C3181 C3180 1.367 . S
C3181 C3189 1.433 . S
C3182 H3178 0.929 . S
C3182 C3184 1.378 . S
C3182 C3186 1.350 . S
C3183 C3186 1.463 . S
C3183 C3188 1.350 . S
C3183 N3191 1.427 . S
C3184 H3175 0.930 . S
C3184 C3182 1.378 . S
C3184 C3185 1.367 . S
C3185 C3184 1.367 . S
C3185 C3187 1.433 . S
C3186 C3182 1.350 . S
C3186 C3183 1.463 . S
C3186 N3190 1.427 . S
C3187 H3177 0.929 . S
C3187 C3185 1.433 . S
C3187 N3190 1.384 . S
C3188 H3179 0.929 . S
C3188 C3180 1.378 . S
C3188 C3183 1.350 . S
C3189 H3176 0.929 . S
C3189 C3181 1.433 . S
C3189 N3191 1.384 . S
N3190 C3186 1.427 . S
N3190 C3187 1.384 . S
N3191 C3183 1.427 . S
N3191 C3189 1.384 . S
H3192 C3198 0.930 . S
H3193 C3202 0.930 . S
H3194 C3207 0.929 . S
H3195 C3205 0.929 . S
H3196 C3200 0.929 . S
H3197 C3206 0.929 . S
C3198 H3192 0.930 . S
C3198 C3199 1.367 . S
C3198 C3206 1.378 . S
C3199 C3198 1.367 . S
C3199 C3207 1.433 . S
C3200 H3196 0.929 . S
C3200 C3202 1.378 . S
C3200 C3204 1.350 . S
C3201 C3204 1.463 . S
C3201 C3206 1.350 . S
C3201 N3209 1.427 . S
C3202 H3193 0.930 . S
C3202 C3200 1.378 . S
C3202 C3203 1.367 . S
C3203 C3202 1.367 . S
C3203 C3205 1.433 . S
C3204 C3200 1.350 . S
C3204 C3201 1.463 . S
C3204 N3208 1.427 . S
C3205 H3195 0.929 . S
C3205 C3203 1.433 . S
C3205 N3208 1.384 . S
C3206 H3197 0.929 . S
C3206 C3198 1.378 . S
C3206 C3201 1.350 . S
C3207 H3194 0.929 . S
C3207 C3199 1.433 . S
C3207 N3209 1.384 . S
N3208 C3204 1.427 . S
N3208 C3205 1.384 . S
N3209 C3201 1.427 . S
N3209 C3207 1.384 . S
H3210 C3216 0.930 . S
H3211 C3220 0.930 . S
H3212 C3225 0.929 . S
H3213 C3223 0.929 . S
H3214 C3218 0.929 . S
H3215 C3224 0.929 . S
C3216 H3210 0.930 . S
C3216 C3217 1.367 . S
C3216 C3224 1.378 . S
C3217 C3216 1.367 . S
C3217 C3225 1.433 . S
C3218 H3214 0.929 . S
C3218 C3220 1.378 . S
C3218 C3222 1.350 . S
C3219 C3222 1.463 . S
C3219 C3224 1.350 . S
C3219 N3227 1.427 . S
C3220 H3211 0.930 . S
C3220 C3218 1.378 . S
C3220 C3221 1.367 . S
C3221 C3220 1.367 . S
C3221 C3223 1.433 . S
C3222 C3218 1.350 . S
C3222 C3219 1.463 . S
C3222 N3226 1.427 . S
C3223 H3213 0.929 . S
C3223 C3221 1.433 . S
C3223 N3226 1.384 . S
C3224 H3215 0.929 . S
C3224 C3216 1.378 . S
C3224 C3219 1.350 . S
C3225 H3212 0.929 . S
C3225 C3217 1.433 . S
C3225 N3227 1.384 . S
N3226 C3222 1.427 . S
N3226 C3223 1.384 . S
N3227 C3219 1.427 . S
N3227 C3225 1.384 . S
H3228 C3234 0.930 . S
H3229 C3238 0.930 . S
H3230 C3243 0.929 . S
H3231 C3241 0.929 . S
H3232 C3236 0.929 . S
H3233 C3242 0.929 . S
C3234 H3228 0.930 . S
C3234 C3235 1.367 . S
C3234 C3242 1.378 . S
C3235 C3234 1.367 . S
C3235 C3243 1.433 . S
C3236 H3232 0.929 . S
C3236 C3238 1.378 . S
C3236 C3240 1.350 . S
C3237 C3240 1.463 . S
C3237 C3242 1.350 . S
C3237 N3245 1.427 . S
C3238 H3229 0.930 . S
C3238 C3236 1.378 . S
C3238 C3239 1.367 . S
C3239 C3238 1.367 . S
C3239 C3241 1.433 . S
C3240 C3236 1.350 . S
C3240 C3237 1.463 . S
C3240 N3244 1.427 . S
C3241 H3231 0.929 . S
C3241 C3239 1.433 . S
C3241 N3244 1.384 . S
C3242 H3233 0.929 . S
C3242 C3234 1.378 . S
C3242 C3237 1.350 . S
C3243 H3230 0.929 . S
C3243 C3235 1.433 . S
C3243 N3245 1.384 . S
N3244 C3240 1.427 . S
N3244 C3241 1.384 . S
N3245 C3237 1.427 . S
N3245 C3243 1.384 . S
H3246 C3252 0.930 . S
H3247 C3256 0.930 . S
H3248 C3261 0.929 . S
H3249 C3259 0.929 . S
H3250 C3254 0.929 . S
H3251 C3260 0.929 . S
C3252 H3246 0.930 . S
C3252 C3253 1.367 . S
C3252 C3260 1.378 . S
C3253 C3252 1.367 . S
C3253 C3261 1.433 . S
C3254 H3250 0.929 . S
C3254 C3256 1.378 . S
C3254 C3258 1.350 . S
C3255 C3258 1.463 . S
C3255 C3260 1.350 . S
C3255 N3263 1.427 . S
C3256 H3247 0.930 . S
C3256 C3254 1.378 . S
C3256 C3257 1.367 . S
C3257 C3256 1.367 . S
C3257 C3259 1.433 . S
C3258 C3254 1.350 . S
C3258 C3255 1.463 . S
C3258 N3262 1.427 . S
C3259 H3249 0.929 . S
C3259 C3257 1.433 . S
C3259 N3262 1.384 . S
C3260 H3251 0.929 . S
C3260 C3252 1.378 . S
C3260 C3255 1.350 . S
C3261 H3248 0.929 . S
C3261 C3253 1.433 . S
C3261 N3263 1.384 . S
N3262 C3258 1.427 . S
N3262 C3259 1.384 . S
N3263 C3255 1.427 . S
N3263 C3261 1.384 . S
H3264 C3270 0.930 . S
H3265 C3274 0.930 . S
H3266 C3279 0.929 . S
H3267 C3277 0.929 . S
H3268 C3272 0.929 . S
H3269 C3278 0.929 . S
C3270 H3264 0.930 . S
C3270 C3271 1.367 . S
C3270 C3278 1.378 . S
C3271 C3270 1.367 . S
C3271 C3279 1.433 . S
C3272 H3268 0.929 . S
C3272 C3274 1.378 . S
C3272 C3276 1.350 . S
C3273 C3276 1.463 1_565 S
C3273 C3278 1.350 . S
C3273 N3281 1.427 . S
C3274 H3265 0.930 . S
C3274 C3272 1.378 . S
C3274 C3275 1.367 . S
C3275 C3274 1.367 . S
C3275 C3277 1.433 . S
C3276 C3272 1.350 . S
C3276 C3273 1.463 1_545 S
C3276 N3280 1.427 . S
C3277 H3267 0.929 . S
C3277 C3275 1.433 . S
C3277 N3280 1.384 . S
C3278 H3269 0.929 . S
C3278 C3270 1.378 . S
C3278 C3273 1.350 . S
C3279 H3266 0.929 . S
C3279 C3271 1.433 . S
C3279 N3281 1.384 . S
N3280 C3276 1.427 . S
N3280 C3277 1.384 . S
N3281 C3273 1.427 . S
N3281 C3279 1.384 . S
H3282 C3288 0.930 . S
H3283 C3292 0.930 . S
H3284 C3297 0.929 . S
H3285 C3295 0.929 . S
H3286 C3290 0.929 . S
H3287 C3296 0.929 . S
C3288 H3282 0.930 . S
C3288 C3289 1.367 . S
C3288 C3296 1.378 . S
C3289 C3288 1.367 . S
C3289 C3297 1.433 . S
C3290 H3286 0.929 . S
C3290 C3292 1.378 . S
C3290 C3294 1.329 1_655 S
C3291 C3294 1.507 . S
C3291 C3296 1.350 . S
C3291 N3299 1.427 . S
C3292 H3283 0.930 . S
C3292 C3290 1.378 . S
C3292 C3293 1.367 . S
C3293 C3292 1.367 . S
C3293 C3295 1.433 . S
C3294 C3290 1.329 1_455 S
C3294 C3291 1.507 . S
C3294 N3298 1.406 1_455 S
C3295 H3285 0.929 . S
C3295 C3293 1.433 . S
C3295 N3298 1.384 . S
C3296 H3287 0.929 . S
C3296 C3288 1.378 . S
C3296 C3291 1.350 . S
C3297 H3284 0.929 . S
C3297 C3289 1.433 . S
C3297 N3299 1.384 . S
N3298 C3294 1.406 1_655 S
N3298 C3295 1.384 . S
N3299 C3291 1.427 . S
N3299 C3297 1.384 . S
H3300 C3306 0.930 . S
H3301 C3310 0.930 . S
H3302 C3315 0.929 . S
H3303 C3313 0.929 . S
H3304 C3308 0.929 . S
H3305 C3314 0.929 . S
C3306 H3300 0.930 . S
C3306 C3307 1.367 . S
C3306 C3314 1.378 . S
C3307 C3306 1.367 . S
C3307 C3315 1.433 . S
C3308 H3304 0.929 . S
C3308 C3310 1.378 . S
C3308 C3312 1.350 . S
C3309 C3312 1.463 . S
C3309 C3314 1.350 . S
C3309 N3317 1.427 . S
C3310 H3301 0.930 . S
C3310 C3308 1.378 . S
C3310 C3311 1.367 . S
C3311 C3310 1.367 . S
C3311 C3313 1.433 . S
C3312 C3308 1.350 . S
C3312 C3309 1.463 . S
C3312 N3316 1.427 . S
C3313 H3303 0.929 . S
C3313 C3311 1.433 . S
C3313 N3316 1.384 . S
C3314 H3305 0.929 . S
C3314 C3306 1.378 . S
C3314 C3309 1.350 . S
C3315 H3302 0.929 . S
C3315 C3307 1.433 . S
C3315 N3317 1.384 . S
N3316 C3312 1.427 . S
N3316 C3313 1.384 . S
N3317 C3309 1.427 . S
N3317 C3315 1.384 . S
H3318 C3324 0.930 . S
H3319 C3328 0.930 . S
H3320 C3333 0.929 . S
H3321 C3331 0.929 . S
H3322 C3326 0.929 . S
H3323 C3332 0.929 . S
C3324 H3318 0.930 . S
C3324 C3325 1.367 . S
C3324 C3332 1.378 . S
C3325 C3324 1.367 . S
C3325 C3333 1.433 . S
C3326 H3322 0.929 . S
C3326 C3328 1.378 . S
C3326 C3330 1.350 . S
C3327 C3330 1.463 . S
C3327 C3332 1.350 . S
C3327 N3335 1.427 . S
C3328 H3319 0.930 . S
C3328 C3326 1.378 . S
C3328 C3329 1.367 . S
C3329 C3328 1.367 . S
C3329 C3331 1.433 . S
C3330 C3326 1.350 . S
C3330 C3327 1.463 . S
C3330 N3334 1.427 . S
C3331 H3321 0.929 . S
C3331 C3329 1.433 . S
C3331 N3334 1.384 . S
C3332 H3323 0.929 . S
C3332 C3324 1.378 . S
C3332 C3327 1.350 . S
C3333 H3320 0.929 . S
C3333 C3325 1.433 . S
C3333 N3335 1.384 . S
N3334 C3330 1.427 . S
N3334 C3331 1.384 . S
N3335 C3327 1.427 . S
N3335 C3333 1.384 . S
H3336 C3342 0.930 . S
H3337 C3346 0.930 . S
H3338 C3351 0.929 . S
H3339 C3349 0.929 . S
H3340 C3344 0.929 . S
H3341 C3350 0.929 . S
C3342 H3336 0.930 . S
C3342 C3343 1.367 . S
C3342 C3350 1.378 . S
C3343 C3342 1.367 . S
C3343 C3351 1.433 . S
C3344 H3340 0.929 . S
C3344 C3346 1.378 . S
C3344 C3348 1.350 . S
C3345 C3348 1.463 . S
C3345 C3350 1.350 . S
C3345 N3353 1.427 . S
C3346 H3337 0.930 . S
C3346 C3344 1.378 . S
C3346 C3347 1.367 . S
C3347 C3346 1.367 . S
C3347 C3349 1.433 . S
C3348 C3344 1.350 . S
C3348 C3345 1.463 . S
C3348 N3352 1.427 . S
C3349 H3339 0.929 . S
C3349 C3347 1.433 . S
C3349 N3352 1.384 . S
C3350 H3341 0.929 . S
C3350 C3342 1.378 . S
C3350 C3345 1.350 . S
C3351 H3338 0.929 . S
C3351 C3343 1.433 . S
C3351 N3353 1.384 . S
N3352 C3348 1.427 . S
N3352 C3349 1.384 . S
N3353 C3345 1.427 . S
N3353 C3351 1.384 . S
H3354 C3360 0.930 . S
H3355 C3364 0.930 . S
H3356 C3369 0.929 . S
H3357 C3367 0.929 . S
H3358 C3362 0.929 . S
H3359 C3368 0.929 . S
C3360 H3354 0.930 . S
C3360 C3361 1.367 . S
C3360 C3368 1.378 . S
C3361 C3360 1.367 . S
C3361 C3369 1.433 . S
C3362 H3358 0.929 . S
C3362 C3364 1.378 . S
C3362 C3366 1.350 . S
C3363 C3366 1.463 . S
C3363 C3368 1.350 . S
C3363 N3371 1.427 . S
C3364 H3355 0.930 . S
C3364 C3362 1.378 . S
C3364 C3365 1.367 . S
C3365 C3364 1.367 . S
C3365 C3367 1.433 . S
C3366 C3362 1.350 . S
C3366 C3363 1.463 . S
C3366 N3370 1.427 . S
C3367 H3357 0.929 . S
C3367 C3365 1.433 . S
C3367 N3370 1.384 . S
C3368 H3359 0.929 . S
C3368 C3360 1.378 . S
C3368 C3363 1.350 . S
C3369 H3356 0.929 . S
C3369 C3361 1.433 . S
C3369 N3371 1.384 . S
N3370 C3366 1.427 . S
N3370 C3367 1.384 . S
N3371 C3363 1.427 . S
N3371 C3369 1.384 . S
H3372 C3378 0.930 . S
H3373 C3382 0.930 . S
H3374 C3387 0.929 . S
H3375 C3385 0.929 . S
H3376 C3380 0.929 . S
H3377 C3386 0.929 . S
C3378 H3372 0.930 . S
C3378 C3379 1.367 . S
C3378 C3386 1.378 . S
C3379 C3378 1.367 . S
C3379 C3387 1.433 . S
C3380 H3376 0.929 . S
C3380 C3382 1.378 . S
C3380 C3384 1.350 . S
C3381 C3384 1.463 1_545 S
C3381 C3386 1.350 . S
C3381 N3389 1.427 . S
C3382 H3373 0.930 . S
C3382 C3380 1.378 . S
C3382 C3383 1.367 . S
C3383 C3382 1.367 . S
C3383 C3385 1.433 . S
C3384 C3380 1.350 . S
C3384 C3381 1.463 1_565 S
C3384 N3388 1.427 . S
C3385 H3375 0.929 . S
C3385 C3383 1.433 . S
C3385 N3388 1.384 . S
C3386 H3377 0.929 . S
C3386 C3378 1.378 . S
C3386 C3381 1.350 . S
C3387 H3374 0.929 . S
C3387 C3379 1.433 . S
C3387 N3389 1.384 . S
N3388 C3384 1.427 . S
N3388 C3385 1.384 . S
N3389 C3381 1.427 . S
N3389 C3387 1.384 . S
H3390 C3396 0.930 . S
H3391 C3400 0.930 . S
H3392 C3405 0.929 . S
H3393 C3403 0.929 . S
H3394 C3398 0.929 1_655 S
H3395 C3404 0.929 . S
C3396 H3390 0.930 . S
C3396 C3397 1.367 . S
C3396 C3404 1.378 . S
C3397 C3396 1.367 . S
C3397 C3405 1.433 . S
C3398 H3394 0.929 1_455 S
C3398 C3400 1.378 . S
C3398 C3402 1.350 1_455 S
C3399 C3402 1.463 . S
C3399 C3404 1.350 . S
C3399 N3407 1.427 . S
C3400 H3391 0.930 . S
C3400 C3398 1.378 . S
C3400 C3401 1.367 . S
C3401 C3400 1.367 . S
C3401 C3403 1.433 . S
C3402 C3398 1.350 1_655 S
C3402 C3399 1.463 . S
C3402 N3406 1.427 1_655 S
C3403 H3393 0.929 . S
C3403 C3401 1.433 . S
C3403 N3406 1.384 . S
C3404 H3395 0.929 . S
C3404 C3396 1.378 . S
C3404 C3399 1.350 . S
C3405 H3392 0.929 . S
C3405 C3397 1.433 . S
C3405 N3407 1.384 . S
N3406 C3402 1.427 1_455 S
N3406 C3403 1.384 . S
N3407 C3399 1.427 . S
N3407 C3405 1.384 . S
H3408 C3414 0.930 . S
H3409 C3418 0.930 . S
H3410 C3423 0.929 . S
H3411 C3421 0.929 . S
H3412 C3416 0.929 . S
H3413 C3422 0.929 . S
C3414 H3408 0.930 . S
C3414 C3415 1.367 . S
C3414 C3422 1.378 . S
C3415 C3414 1.367 . S
C3415 C3423 1.433 . S
C3416 H3412 0.929 . S
C3416 C3418 1.378 . S
C3416 C3420 1.350 . S
C3417 C3420 1.463 1_554 S
C3417 C3422 1.350 . S
C3417 N3425 1.427 . S
C3418 H3409 0.930 . S
C3418 C3416 1.378 . S
C3418 C3419 1.367 . S
C3419 C3418 1.367 . S
C3419 C3421 1.433 . S
C3420 C3416 1.350 . S
C3420 C3417 1.463 1_556 S
C3420 N3424 1.427 . S
C3421 H3411 0.929 . S
C3421 C3419 1.433 . S
C3421 N3424 1.384 . S
C3422 H3413 0.929 . S
C3422 C3414 1.378 . S
C3422 C3417 1.350 . S
C3423 H3410 0.929 . S
C3423 C3415 1.433 . S
C3423 N3425 1.384 . S
N3424 C3420 1.427 . S
N3424 C3421 1.384 . S
N3425 C3417 1.427 . S
N3425 C3423 1.384 . S
H3426 C3432 0.930 . S
H3427 C3436 0.930 . S
H3428 C3441 0.929 . S
H3429 C3439 0.929 . S
H3430 C3434 0.929 . S
H3431 C3440 0.929 . S
C3432 H3426 0.930 . S
C3432 C3433 1.367 . S
C3432 C3440 1.378 . S
C3433 C3432 1.367 . S
C3433 C3441 1.433 . S
C3434 H3430 0.929 . S
C3434 C3436 1.378 . S
C3434 C3438 1.350 . S
C3435 C3438 1.463 . S
C3435 C3440 1.350 . S
C3435 N3443 1.427 . S
C3436 H3427 0.930 . S
C3436 C3434 1.378 . S
C3436 C3437 1.367 . S
C3437 C3436 1.367 . S
C3437 C3439 1.433 . S
C3438 C3434 1.350 . S
C3438 C3435 1.463 . S
C3438 N3442 1.427 . S
C3439 H3429 0.929 . S
C3439 C3437 1.433 . S
C3439 N3442 1.384 . S
C3440 H3431 0.929 . S
C3440 C3432 1.378 . S
C3440 C3435 1.350 . S
C3441 H3428 0.929 . S
C3441 C3433 1.433 . S
C3441 N3443 1.384 . S
N3442 C3438 1.427 . S
N3442 C3439 1.384 . S
N3443 C3435 1.427 . S
N3443 C3441 1.384 . S
H3444 C3450 0.930 . S
H3445 C3454 0.930 . S
H3446 C3459 0.929 . S
H3447 C3457 0.929 . S
H3448 C3452 0.929 . S
H3449 C3458 0.929 . S
C3450 H3444 0.930 . S
C3450 C3451 1.367 . S
C3450 C3458 1.378 . S
C3451 C3450 1.367 . S
C3451 C3459 1.433 . S
C3452 H3448 0.929 . S
C3452 C3454 1.378 . S
C3452 C3456 1.350 . S
C3453 C3456 1.463 . S
C3453 C3458 1.350 . S
C3453 N3461 1.427 . S
C3454 H3445 0.930 . S
C3454 C3452 1.378 . S
C3454 C3455 1.367 . S
C3455 C3454 1.367 . S
C3455 C3457 1.433 . S
C3456 C3452 1.350 . S
C3456 C3453 1.463 . S
C3456 N3460 1.427 . S
C3457 H3447 0.929 . S
C3457 C3455 1.433 . S
C3457 N3460 1.384 . S
C3458 H3449 0.929 . S
C3458 C3450 1.378 . S
C3458 C3453 1.350 . S
C3459 H3446 0.929 . S
C3459 C3451 1.433 . S
C3459 N3461 1.384 . S
N3460 C3456 1.427 . S
N3460 C3457 1.384 . S
N3461 C3453 1.427 . S
N3461 C3459 1.384 . S
H3462 C3468 0.930 . S
H3463 C3472 0.930 . S
H3464 C3477 0.929 . S
H3465 C3475 0.929 . S
H3466 C3470 0.929 . S
H3467 C3476 0.929 . S
C3468 H3462 0.930 . S
C3468 C3469 1.367 . S
C3468 C3476 1.378 . S
C3469 C3468 1.367 . S
C3469 C3477 1.433 . S
C3470 H3466 0.929 . S
C3470 C3472 1.378 . S
C3470 C3474 1.350 . S
C3471 C3474 1.463 . S
C3471 C3476 1.350 . S
C3471 N3479 1.427 . S
C3472 H3463 0.930 . S
C3472 C3470 1.378 . S
C3472 C3473 1.367 . S
C3473 C3472 1.367 . S
C3473 C3475 1.433 . S
C3474 C3470 1.350 . S
C3474 C3471 1.463 . S
C3474 N3478 1.427 . S
C3475 H3465 0.929 . S
C3475 C3473 1.433 . S
C3475 N3478 1.384 . S
C3476 H3467 0.929 . S
C3476 C3468 1.378 . S
C3476 C3471 1.350 . S
C3477 H3464 0.929 . S
C3477 C3469 1.433 . S
C3477 N3479 1.384 . S
N3478 C3474 1.427 . S
N3478 C3475 1.384 . S
N3479 C3471 1.427 . S
N3479 C3477 1.384 . S
H3480 C3486 0.930 . S
H3481 C3490 0.930 . S
H3482 C3495 0.929 . S
H3483 C3493 0.929 . S
H3484 C3488 0.929 . S
H3485 C3494 0.929 . S
C3486 H3480 0.930 . S
C3486 C3487 1.367 . S
C3486 C3494 1.378 . S
C3487 C3486 1.367 . S
C3487 C3495 1.433 . S
C3488 H3484 0.929 . S
C3488 C3490 1.378 . S
C3488 C3492 1.350 . S
C3489 C3492 1.463 . S
C3489 C3494 1.350 . S
C3489 N3497 1.427 . S
C3490 H3481 0.930 . S
C3490 C3488 1.378 . S
C3490 C3491 1.367 . S
C3491 C3490 1.367 . S
C3491 C3493 1.433 . S
C3492 C3488 1.350 . S
C3492 C3489 1.463 . S
C3492 N3496 1.427 . S
C3493 H3483 0.929 . S
C3493 C3491 1.433 . S
C3493 N3496 1.384 . S
C3494 H3485 0.929 . S
C3494 C3486 1.378 . S
C3494 C3489 1.350 . S
C3495 H3482 0.929 . S
C3495 C3487 1.433 . S
C3495 N3497 1.384 . S
N3496 C3492 1.427 . S
N3496 C3493 1.384 . S
N3497 C3489 1.427 . S
N3497 C3495 1.384 . S
H3498 C3504 0.930 . S
H3499 C3508 0.930 . S
H3500 C3513 0.929 . S
H3501 C3511 0.929 . S
H3502 C3506 0.929 . S
H3503 C3512 0.929 . S
C3504 H3498 0.930 . S
C3504 C3505 1.367 . S
C3504 C3512 1.378 . S
C3505 C3504 1.367 . S
C3505 C3513 1.433 . S
C3506 H3502 0.929 . S
C3506 C3508 1.378 . S
C3506 C3510 1.350 . S
C3507 C3510 1.463 . S
C3507 C3512 1.350 . S
C3507 N3515 1.427 . S
C3508 H3499 0.930 . S
C3508 C3506 1.378 . S
C3508 C3509 1.367 . S
C3509 C3508 1.367 . S
C3509 C3511 1.433 . S
C3510 C3506 1.350 . S
C3510 C3507 1.463 . S
C3510 N3514 1.427 . S
C3511 H3501 0.929 . S
C3511 C3509 1.433 . S
C3511 N3514 1.384 . S
C3512 H3503 0.929 . S
C3512 C3504 1.378 . S
C3512 C3507 1.350 . S
C3513 H3500 0.929 . S
C3513 C3505 1.433 . S
C3513 N3515 1.384 . S
N3514 C3510 1.427 . S
N3514 C3511 1.384 . S
N3515 C3507 1.427 . S
N3515 C3513 1.384 . S
H3516 C3522 0.930 . S
H3517 C3526 0.930 . S
H3518 C3531 0.929 . S
H3519 C3529 0.929 . S
H3520 C3524 0.929 . S
H3521 C3530 0.929 . S
C3522 H3516 0.930 . S
C3522 C3523 1.367 . S
C3522 C3530 1.378 . S
C3523 C3522 1.367 . S
C3523 C3531 1.433 . S
C3524 H3520 0.929 . S
C3524 C3526 1.378 . S
C3524 C3528 1.350 . S
C3525 C3528 1.463 . S
C3525 C3530 1.350 . S
C3525 N3533 1.427 . S
C3526 H3517 0.930 . S
C3526 C3524 1.378 . S
C3526 C3527 1.367 . S
C3527 C3526 1.367 . S
C3527 C3529 1.433 . S
C3528 C3524 1.350 . S
C3528 C3525 1.463 . S
C3528 N3532 1.427 . S
C3529 H3519 0.929 . S
C3529 C3527 1.433 . S
C3529 N3532 1.384 . S
C3530 H3521 0.929 . S
C3530 C3522 1.378 . S
C3530 C3525 1.350 . S
C3531 H3518 0.929 . S
C3531 C3523 1.433 . S
C3531 N3533 1.384 . S
N3532 C3528 1.427 . S
N3532 C3529 1.384 . S
N3533 C3525 1.427 . S
N3533 C3531 1.384 . S
H3534 C3540 0.930 . S
H3535 C3544 0.930 . S
H3536 C3549 0.929 . S
H3537 C3547 0.929 . S
H3538 C3542 0.929 . S
H3539 C3548 0.929 . S
C3540 H3534 0.930 . S
C3540 C3541 1.367 . S
C3540 C3548 1.378 . S
C3541 C3540 1.367 . S
C3541 C3549 1.433 . S
C3542 H3538 0.929 . S
C3542 C3544 1.378 . S
C3542 C3546 1.350 . S
C3543 C3546 1.463 1_554 S
C3543 C3548 1.350 . S
C3543 N3551 1.427 . S
C3544 H3535 0.930 . S
C3544 C3542 1.378 . S
C3544 C3545 1.367 . S
C3545 C3544 1.367 . S
C3545 C3547 1.433 . S
C3546 C3542 1.350 . S
C3546 C3543 1.463 1_556 S
C3546 N3550 1.427 . S
C3547 H3537 0.929 . S
C3547 C3545 1.433 . S
C3547 N3550 1.384 . S
C3548 H3539 0.929 . S
C3548 C3540 1.378 . S
C3548 C3543 1.350 . S
C3549 H3536 0.929 . S
C3549 C3541 1.433 . S
C3549 N3551 1.384 . S
N3550 C3546 1.427 . S
N3550 C3547 1.384 . S
N3551 C3543 1.427 . S
N3551 C3549 1.384 . S
H3552 C3558 0.930 . S
H3553 C3562 0.930 . S
H3554 C3567 0.929 . S
H3555 C3565 0.929 . S
H3556 C3560 0.929 . S
H3557 C3566 0.929 . S
C3558 H3552 0.930 . S
C3558 C3559 1.367 . S
C3558 C3566 1.378 . S
C3559 C3558 1.367 . S
C3559 C3567 1.433 . S
C3560 H3556 0.929 . S
C3560 C3562 1.378 . S
C3560 C3564 1.350 1_455 S
C3561 C3564 1.463 . S
C3561 C3566 1.350 . S
C3561 N3569 1.427 . S
C3562 H3553 0.930 . S
C3562 C3560 1.378 . S
C3562 C3563 1.367 . S
C3563 C3562 1.367 . S
C3563 C3565 1.433 . S
C3564 C3560 1.350 1_655 S
C3564 C3561 1.463 . S
C3564 N3568 1.427 . S
C3565 H3555 0.929 . S
C3565 C3563 1.433 . S
C3565 N3568 1.384 1_455 S
C3566 H3557 0.929 . S
C3566 C3558 1.378 . S
C3566 C3561 1.350 . S
C3567 H3554 0.929 . S
C3567 C3559 1.433 . S
C3567 N3569 1.384 . S
N3568 C3564 1.427 . S
N3568 C3565 1.384 1_655 S
N3569 C3561 1.427 . S
N3569 C3567 1.384 . S
H3570 C3576 0.930 . S
H3571 C3580 0.930 . S
H3572 C3585 0.929 . S
H3573 C3583 0.929 . S
H3574 C3578 0.929 . S
H3575 C3584 0.929 . S
C3576 H3570 0.930 . S
C3576 C3577 1.367 . S
C3576 C3584 1.378 . S
C3577 C3576 1.367 . S
C3577 C3585 1.433 . S
C3578 H3574 0.929 . S
C3578 C3580 1.378 . S
C3578 C3582 1.350 . S
C3579 C3582 1.463 . S
C3579 C3584 1.350 . S
C3579 N3587 1.427 . S
C3580 H3571 0.930 . S
C3580 C3578 1.378 . S
C3580 C3581 1.367 . S
C3581 C3580 1.367 . S
C3581 C3583 1.433 . S
C3582 C3578 1.350 . S
C3582 C3579 1.463 . S
C3582 N3586 1.427 . S
C3583 H3573 0.929 . S
C3583 C3581 1.433 . S
C3583 N3586 1.384 . S
C3584 H3575 0.929 . S
C3584 C3576 1.378 . S
C3584 C3579 1.350 . S
C3585 H3572 0.929 . S
C3585 C3577 1.433 . S
C3585 N3587 1.384 . S
N3586 C3582 1.427 . S
N3586 C3583 1.384 . S
N3587 C3579 1.427 . S
N3587 C3585 1.384 . S
H3588 C3594 0.930 . S
H3589 C3598 0.930 . S
H3590 C3603 0.929 . S
H3591 C3601 0.929 . S
H3592 C3596 0.929 . S
H3593 C3602 0.929 . S
C3594 H3588 0.930 . S
C3594 C3595 1.367 . S
C3594 C3602 1.378 . S
C3595 C3594 1.367 . S
C3595 C3603 1.433 . S
C3596 H3592 0.929 . S
C3596 C3598 1.378 . S
C3596 C3600 1.350 . S
C3597 C3600 1.463 . S
C3597 C3602 1.350 . S
C3597 N3605 1.427 . S
C3598 H3589 0.930 . S
C3598 C3596 1.378 . S
C3598 C3599 1.367 . S
C3599 C3598 1.367 . S
C3599 C3601 1.433 . S
C3600 C3596 1.350 . S
C3600 C3597 1.463 . S
C3600 N3604 1.427 . S
C3601 H3591 0.929 . S
C3601 C3599 1.433 . S
C3601 N3604 1.384 . S
C3602 H3593 0.929 . S
C3602 C3594 1.378 . S
C3602 C3597 1.350 . S
C3603 H3590 0.929 . S
C3603 C3595 1.433 . S
C3603 N3605 1.384 . S
N3604 C3600 1.427 . S
N3604 C3601 1.384 . S
N3605 C3597 1.427 . S
N3605 C3603 1.384 . S
H3606 C3612 0.930 . S
H3607 C3616 0.930 . S
H3608 C3621 0.929 . S
H3609 C3619 0.929 . S
H3610 C3614 0.929 . S
H3611 C3620 0.929 . S
C3612 H3606 0.930 . S
C3612 C3613 1.367 . S
C3612 C3620 1.378 . S
C3613 C3612 1.367 . S
C3613 C3621 1.433 . S
C3614 H3610 0.929 . S
C3614 C3616 1.378 . S
C3614 C3618 1.350 . S
C3615 C3618 1.463 . S
C3615 C3620 1.350 . S
C3615 N3623 1.427 . S
C3616 H3607 0.930 . S
C3616 C3614 1.378 . S
C3616 C3617 1.367 . S
C3617 C3616 1.367 . S
C3617 C3619 1.433 . S
C3618 C3614 1.350 . S
C3618 C3615 1.463 . S
C3618 N3622 1.427 . S
C3619 H3609 0.929 . S
C3619 C3617 1.433 . S
C3619 N3622 1.384 . S
C3620 H3611 0.929 . S
C3620 C3612 1.378 . S
C3620 C3615 1.350 . S
C3621 H3608 0.929 . S
C3621 C3613 1.433 . S
C3621 N3623 1.384 . S
N3622 C3618 1.427 . S
N3622 C3619 1.384 . S
N3623 C3615 1.427 . S
N3623 C3621 1.384 . S
H3624 C3630 0.930 . S
H3625 C3634 0.930 . S
H3626 C3639 0.929 . S
H3627 C3637 0.929 . S
H3628 C3632 0.929 . S
H3629 C3638 0.929 . S
C3630 H3624 0.930 . S
C3630 C3631 1.367 . S
C3630 C3638 1.378 . S
C3631 C3630 1.367 . S
C3631 C3639 1.433 . S
C3632 H3628 0.929 . S
C3632 C3634 1.378 . S
C3632 C3636 1.350 . S
C3633 C3636 1.463 . S
C3633 C3638 1.350 . S
C3633 N3641 1.427 . S
C3634 H3625 0.930 . S
C3634 C3632 1.378 . S
C3634 C3635 1.367 . S
C3635 C3634 1.367 . S
C3635 C3637 1.433 . S
C3636 C3632 1.350 . S
C3636 C3633 1.463 . S
C3636 N3640 1.427 . S
C3637 H3627 0.929 . S
C3637 C3635 1.433 . S
C3637 N3640 1.384 . S
C3638 H3629 0.929 . S
C3638 C3630 1.378 . S
C3638 C3633 1.350 . S
C3639 H3626 0.929 . S
C3639 C3631 1.433 . S
C3639 N3641 1.384 . S
N3640 C3636 1.427 . S
N3640 C3637 1.384 . S
N3641 C3633 1.427 . S
N3641 C3639 1.384 . S
H3642 C3648 0.930 . S
H3643 C3652 0.930 . S
H3644 C3657 0.929 . S
H3645 C3655 0.929 . S
H3646 C3650 0.929 . S
H3647 C3656 0.929 . S
C3648 H3642 0.930 . S
C3648 C3649 1.367 . S
C3648 C3656 1.378 . S
C3649 C3648 1.367 . S
C3649 C3657 1.433 . S
C3650 H3646 0.929 . S
C3650 C3652 1.378 . S
C3650 C3654 1.350 . S
C3651 C3654 1.463 . S
C3651 C3656 1.350 . S
C3651 N3659 1.427 . S
C3652 H3643 0.930 . S
C3652 C3650 1.378 . S
C3652 C3653 1.367 . S
C3653 C3652 1.367 . S
C3653 C3655 1.433 . S
C3654 C3650 1.350 . S
C3654 C3651 1.463 . S
C3654 N3658 1.427 . S
C3655 H3645 0.929 . S
C3655 C3653 1.433 . S
C3655 N3658 1.384 . S
C3656 H3647 0.929 . S
C3656 C3648 1.378 . S
C3656 C3651 1.350 . S
C3657 H3644 0.929 . S
C3657 C3649 1.433 . S
C3657 N3659 1.384 . S
N3658 C3654 1.427 . S
N3658 C3655 1.384 . S
N3659 C3651 1.427 . S
N3659 C3657 1.384 . S
H3660 C3666 0.930 . S
H3661 C3670 0.930 . S
H3662 C3675 0.929 . S
H3663 C3673 0.929 . S
H3664 C3668 0.929 . S
H3665 C3674 0.929 . S
C3666 H3660 0.930 . S
C3666 C3667 1.367 . S
C3666 C3674 1.378 . S
C3667 C3666 1.367 . S
C3667 C3675 1.433 . S
C3668 H3664 0.929 . S
C3668 C3670 1.378 . S
C3668 C3672 1.350 . S
C3669 C3672 1.463 1_545 S
C3669 C3674 1.350 . S
C3669 N3677 1.427 . S
C3670 H3661 0.930 . S
C3670 C3668 1.378 . S
C3670 C3671 1.367 . S
C3671 C3670 1.367 . S
C3671 C3673 1.433 . S
C3672 C3668 1.350 . S
C3672 C3669 1.463 1_565 S
C3672 N3676 1.427 . S
C3673 H3663 0.929 . S
C3673 C3671 1.433 . S
C3673 N3676 1.384 . S
C3674 H3665 0.929 . S
C3674 C3666 1.378 . S
C3674 C3669 1.350 . S
C3675 H3662 0.929 . S
C3675 C3667 1.433 . S
C3675 N3677 1.384 . S
N3676 C3672 1.427 . S
N3676 C3673 1.384 . S
N3677 C3669 1.427 . S
N3677 C3675 1.384 . S
H3678 C3684 0.930 . S
H3679 C3688 0.930 . S
H3680 C3693 0.929 . S
H3681 C3691 0.929 . S
H3682 C3686 0.929 1_655 S
H3683 C3692 0.929 . S
C3684 H3678 0.930 . S
C3684 C3685 1.367 . S
C3684 C3692 1.378 . S
C3685 C3684 1.367 . S
C3685 C3693 1.433 . S
C3686 H3682 0.929 1_455 S
C3686 C3688 1.378 . S
C3686 C3690 1.328 1_455 S
C3687 C3690 1.516 . S
C3687 C3692 1.350 . S
C3687 N3695 1.427 . S
C3688 H3679 0.930 . S
C3688 C3686 1.378 . S
C3688 C3689 1.367 . S
C3689 C3688 1.367 . S
C3689 C3691 1.433 . S
C3690 C3686 1.328 1_655 S
C3690 C3687 1.516 . S
C3690 N3694 1.400 1_655 S
C3691 H3681 0.929 . S
C3691 C3689 1.433 . S
C3691 N3694 1.384 . S
C3692 H3683 0.929 . S
C3692 C3684 1.378 . S
C3692 C3687 1.350 . S
C3693 H3680 0.929 . S
C3693 C3685 1.433 . S
C3693 N3695 1.384 . S
N3694 C3690 1.400 1_455 S
N3694 C3691 1.384 . S
N3695 C3687 1.427 . S
N3695 C3693 1.384 . S
H3696 C3702 0.930 . S
H3697 C3706 0.930 . S
H3698 C3711 0.929 . S
H3699 C3709 0.929 . S
H3700 C3704 0.929 . S
H3701 C3710 0.929 . S
C3702 H3696 0.930 . S
C3702 C3703 1.367 . S
C3702 C3710 1.378 . S
C3703 C3702 1.367 . S
C3703 C3711 1.433 . S
C3704 H3700 0.929 . S
C3704 C3706 1.378 . S
C3704 C3708 1.350 . S
C3705 C3708 1.463 . S
C3705 C3710 1.350 . S
C3705 N3713 1.427 . S
C3706 H3697 0.930 . S
C3706 C3704 1.378 . S
C3706 C3707 1.367 . S
C3707 C3706 1.367 . S
C3707 C3709 1.433 . S
C3708 C3704 1.350 . S
C3708 C3705 1.463 . S
C3708 N3712 1.427 . S
C3709 H3699 0.929 . S
C3709 C3707 1.433 . S
C3709 N3712 1.384 . S
C3710 H3701 0.929 . S
C3710 C3702 1.378 . S
C3710 C3705 1.350 . S
C3711 H3698 0.929 . S
C3711 C3703 1.433 . S
C3711 N3713 1.384 . S
N3712 C3708 1.427 . S
N3712 C3709 1.384 . S
N3713 C3705 1.427 . S
N3713 C3711 1.384 . S
H3714 C3720 0.930 . S
H3715 C3724 0.930 . S
H3716 C3729 0.929 . S
H3717 C3727 0.929 . S
H3718 C3722 0.929 . S
H3719 C3728 0.929 . S
C3720 H3714 0.930 . S
C3720 C3721 1.367 . S
C3720 C3728 1.378 . S
C3721 C3720 1.367 . S
C3721 C3729 1.433 . S
C3722 H3718 0.929 . S
C3722 C3724 1.378 . S
C3722 C3726 1.350 . S
C3723 C3726 1.463 . S
C3723 C3728 1.350 . S
C3723 N3731 1.427 . S
C3724 H3715 0.930 . S
C3724 C3722 1.378 . S
C3724 C3725 1.367 . S
C3725 C3724 1.367 . S
C3725 C3727 1.433 . S
C3726 C3722 1.350 . S
C3726 C3723 1.463 . S
C3726 N3730 1.427 . S
C3727 H3717 0.929 . S
C3727 C3725 1.433 . S
C3727 N3730 1.384 . S
C3728 H3719 0.929 . S
C3728 C3720 1.378 . S
C3728 C3723 1.350 . S
C3729 H3716 0.929 . S
C3729 C3721 1.433 . S
C3729 N3731 1.384 . S
N3730 C3726 1.427 . S
N3730 C3727 1.384 . S
N3731 C3723 1.427 . S
N3731 C3729 1.384 . S
H3732 C3738 0.930 . S
H3733 C3742 0.930 . S
H3734 C3747 0.929 . S
H3735 C3745 0.929 . S
H3736 C3740 0.929 . S
H3737 C3746 0.929 . S
C3738 H3732 0.930 . S
C3738 C3739 1.367 . S
C3738 C3746 1.378 . S
C3739 C3738 1.367 . S
C3739 C3747 1.433 . S
C3740 H3736 0.929 . S
C3740 C3742 1.378 . S
C3740 C3744 1.350 . S
C3741 C3744 1.463 . S
C3741 C3746 1.350 . S
C3741 N3749 1.427 . S
C3742 H3733 0.930 . S
C3742 C3740 1.378 . S
C3742 C3743 1.367 . S
C3743 C3742 1.367 . S
C3743 C3745 1.433 . S
C3744 C3740 1.350 . S
C3744 C3741 1.463 . S
C3744 N3748 1.427 . S
C3745 H3735 0.929 . S
C3745 C3743 1.433 . S
C3745 N3748 1.384 . S
C3746 H3737 0.929 . S
C3746 C3738 1.378 . S
C3746 C3741 1.350 . S
C3747 H3734 0.929 . S
C3747 C3739 1.433 . S
C3747 N3749 1.384 . S
N3748 C3744 1.427 . S
N3748 C3745 1.384 . S
N3749 C3741 1.427 . S
N3749 C3747 1.384 . S
H3750 C3756 0.930 . S
H3751 C3760 0.930 . S
H3752 C3765 0.929 . S
H3753 C3763 0.929 . S
H3754 C3758 0.929 . S
H3755 C3764 0.929 . S
C3756 H3750 0.930 . S
C3756 C3757 1.367 . S
C3756 C3764 1.378 . S
C3757 C3756 1.367 . S
C3757 C3765 1.433 . S
C3758 H3754 0.929 . S
C3758 C3760 1.378 . S
C3758 C3762 1.350 . S
C3759 C3762 1.463 . S
C3759 C3764 1.350 . S
C3759 N3767 1.427 . S
C3760 H3751 0.930 . S
C3760 C3758 1.378 . S
C3760 C3761 1.367 . S
C3761 C3760 1.367 . S
C3761 C3763 1.433 . S
C3762 C3758 1.350 . S
C3762 C3759 1.463 . S
C3762 N3766 1.427 . S
C3763 H3753 0.929 . S
C3763 C3761 1.433 . S
C3763 N3766 1.384 . S
C3764 H3755 0.929 . S
C3764 C3756 1.378 . S
C3764 C3759 1.350 . S
C3765 H3752 0.929 . S
C3765 C3757 1.433 . S
C3765 N3767 1.384 . S
N3766 C3762 1.427 . S
N3766 C3763 1.384 . S
N3767 C3759 1.427 . S
N3767 C3765 1.384 . S
H3768 C3774 0.930 . S
H3769 C3778 0.930 . S
H3770 C3783 0.929 . S
H3771 C3781 0.929 . S
H3772 C3776 0.929 . S
H3773 C3782 0.929 . S
C3774 H3768 0.930 . S
C3774 C3775 1.367 . S
C3774 C3782 1.378 . S
C3775 C3774 1.367 . S
C3775 C3783 1.433 . S
C3776 H3772 0.929 . S
C3776 C3778 1.378 . S
C3776 C3780 1.350 . S
C3777 C3780 1.463 1_565 S
C3777 C3782 1.350 . S
C3777 N3785 1.427 . S
C3778 H3769 0.930 . S
C3778 C3776 1.378 . S
C3778 C3779 1.367 . S
C3779 C3778 1.367 . S
C3779 C3781 1.433 . S
C3780 C3776 1.350 . S
C3780 C3777 1.463 1_545 S
C3780 N3784 1.427 . S
C3781 H3771 0.929 . S
C3781 C3779 1.433 . S
C3781 N3784 1.384 . S
C3782 H3773 0.929 . S
C3782 C3774 1.378 . S
C3782 C3777 1.350 . S
C3783 H3770 0.929 . S
C3783 C3775 1.433 . S
C3783 N3785 1.384 . S
N3784 C3780 1.427 . S
N3784 C3781 1.384 . S
N3785 C3777 1.427 . S
N3785 C3783 1.384 . S
H3786 C3792 0.930 . S
H3787 C3796 0.930 . S
H3788 C3801 0.929 . S
H3789 C3799 0.929 . S
H3790 C3794 0.929 . S
H3791 C3800 0.929 . S
C3792 H3786 0.930 . S
C3792 C3793 1.367 . S
C3792 C3800 1.378 . S
C3793 C3792 1.367 . S
C3793 C3801 1.433 . S
C3794 H3790 0.929 . S
C3794 C3796 1.378 1_455 S
C3794 C3798 1.350 . S
C3795 C3798 1.463 . S
C3795 C3800 1.350 . S
C3795 N3803 1.427 . S
C3796 H3787 0.930 . S
C3796 C3794 1.378 1_655 S
C3796 C3797 1.367 . S
C3797 C3796 1.367 . S
C3797 C3799 1.433 . S
C3798 C3794 1.350 . S
C3798 C3795 1.463 . S
C3798 N3802 1.427 1_455 S
C3799 H3789 0.929 . S
C3799 C3797 1.433 . S
C3799 N3802 1.384 . S
C3800 H3791 0.929 . S
C3800 C3792 1.378 . S
C3800 C3795 1.350 . S
C3801 H3788 0.929 . S
C3801 C3793 1.433 . S
C3801 N3803 1.384 . S
N3802 C3798 1.427 1_655 S
N3802 C3799 1.384 . S
N3803 C3795 1.427 . S
N3803 C3801 1.384 . S
H3804 C3810 0.930 . S
H3805 C3814 0.930 . S
H3806 C3819 0.929 . S
H3807 C3817 0.929 . S
H3808 C3812 0.929 . S
H3809 C3818 0.929 . S
C3810 H3804 0.930 . S
C3810 C3811 1.367 . S
C3810 C3818 1.378 . S
C3811 C3810 1.367 . S
C3811 C3819 1.433 . S
C3812 H3808 0.929 . S
C3812 C3814 1.378 . S
C3812 C3816 1.350 . S
C3813 C3816 1.463 1_554 S
C3813 C3818 1.350 . S
C3813 N3821 1.427 . S
C3814 H3805 0.930 . S
C3814 C3812 1.378 . S
C3814 C3815 1.367 . S
C3815 C3814 1.367 . S
C3815 C3817 1.433 . S
C3816 C3812 1.350 . S
C3816 C3813 1.463 1_556 S
C3816 N3820 1.427 . S
C3817 H3807 0.929 . S
C3817 C3815 1.433 . S
C3817 N3820 1.384 . S
C3818 H3809 0.929 . S
C3818 C3810 1.378 . S
C3818 C3813 1.350 . S
C3819 H3806 0.929 . S
C3819 C3811 1.433 . S
C3819 N3821 1.384 . S
N3820 C3816 1.427 . S
N3820 C3817 1.384 . S
N3821 C3813 1.427 . S
N3821 C3819 1.384 . S
H3822 C3828 0.930 . S
H3823 C3832 0.930 . S
H3824 C3837 0.929 . S
H3825 C3835 0.929 . S
H3826 C3830 0.929 . S
H3827 C3836 0.929 . S
C3828 H3822 0.930 . S
C3828 C3829 1.367 . S
C3828 C3836 1.378 . S
C3829 C3828 1.367 . S
C3829 C3837 1.433 . S
C3830 H3826 0.929 . S
C3830 C3832 1.378 . S
C3830 C3834 1.350 . S
C3831 C3834 1.463 . S
C3831 C3836 1.350 . S
C3831 N3839 1.427 . S
C3832 H3823 0.930 . S
C3832 C3830 1.378 . S
C3832 C3833 1.367 . S
C3833 C3832 1.367 . S
C3833 C3835 1.433 . S
C3834 C3830 1.350 . S
C3834 C3831 1.463 . S
C3834 N3838 1.427 . S
C3835 H3825 0.929 . S
C3835 C3833 1.433 . S
C3835 N3838 1.384 . S
C3836 H3827 0.929 . S
C3836 C3828 1.378 . S
C3836 C3831 1.350 . S
C3837 H3824 0.929 . S
C3837 C3829 1.433 . S
C3837 N3839 1.384 . S
N3838 C3834 1.427 . S
N3838 C3835 1.384 . S
N3839 C3831 1.427 . S
N3839 C3837 1.384 . S
H3840 C3846 0.930 . S
H3841 C3850 0.930 . S
H3842 C3855 0.929 . S
H3843 C3853 0.929 . S
H3844 C3848 0.929 . S
H3845 C3854 0.929 . S
C3846 H3840 0.930 . S
C3846 C3847 1.367 . S
C3846 C3854 1.378 . S
C3847 C3846 1.367 . S
C3847 C3855 1.433 . S
C3848 H3844 0.929 . S
C3848 C3850 1.378 . S
C3848 C3852 1.350 . S
C3849 C3852 1.463 . S
C3849 C3854 1.350 . S
C3849 N3857 1.427 . S
C3850 H3841 0.930 . S
C3850 C3848 1.378 . S
C3850 C3851 1.367 . S
C3851 C3850 1.367 . S
C3851 C3853 1.433 . S
C3852 C3848 1.350 . S
C3852 C3849 1.463 . S
C3852 N3856 1.427 . S
C3853 H3843 0.929 . S
C3853 C3851 1.433 . S
C3853 N3856 1.384 . S
C3854 H3845 0.929 . S
C3854 C3846 1.378 . S
C3854 C3849 1.350 . S
C3855 H3842 0.929 . S
C3855 C3847 1.433 . S
C3855 N3857 1.384 . S
N3856 C3852 1.427 . S
N3856 C3853 1.384 . S
N3857 C3849 1.427 . S
N3857 C3855 1.384 . S
H3858 C3864 0.930 . S
H3859 C3868 0.930 . S
H3860 C3873 0.929 . S
H3861 C3871 0.929 . S
H3862 C3866 0.929 . S
H3863 C3872 0.929 . S
C3864 H3858 0.930 . S
C3864 C3865 1.367 . S
C3864 C3872 1.378 . S
C3865 C3864 1.367 . S
C3865 C3873 1.433 . S
C3866 H3862 0.929 . S
C3866 C3868 1.378 . S
C3866 C3870 1.350 . S
C3867 C3870 1.463 . S
C3867 C3872 1.350 . S
C3867 N3875 1.427 . S
C3868 H3859 0.930 . S
C3868 C3866 1.378 . S
C3868 C3869 1.367 . S
C3869 C3868 1.367 . S
C3869 C3871 1.433 . S
C3870 C3866 1.350 . S
C3870 C3867 1.463 . S
C3870 N3874 1.427 . S
C3871 H3861 0.929 . S
C3871 C3869 1.433 . S
C3871 N3874 1.384 . S
C3872 H3863 0.929 . S
C3872 C3864 1.378 . S
C3872 C3867 1.350 . S
C3873 H3860 0.929 . S
C3873 C3865 1.433 . S
C3873 N3875 1.384 . S
N3874 C3870 1.427 . S
N3874 C3871 1.384 . S
N3875 C3867 1.427 . S
N3875 C3873 1.384 . S
H3876 C3882 0.930 . S
H3877 C3886 0.930 . S
H3878 C3891 0.929 . S
H3879 C3889 0.929 . S
H3880 C3884 0.929 . S
H3881 C3890 0.929 . S
C3882 H3876 0.930 . S
C3882 C3883 1.367 . S
C3882 C3890 1.378 . S
C3883 C3882 1.367 . S
C3883 C3891 1.433 . S
C3884 H3880 0.929 . S
C3884 C3886 1.378 . S
C3884 C3888 1.350 . S
C3885 C3888 1.463 . S
C3885 C3890 1.350 . S
C3885 N3893 1.427 . S
C3886 H3877 0.930 . S
C3886 C3884 1.378 . S
C3886 C3887 1.367 . S
C3887 C3886 1.367 . S
C3887 C3889 1.433 . S
C3888 C3884 1.350 . S
C3888 C3885 1.463 . S
C3888 N3892 1.427 . S
C3889 H3879 0.929 . S
C3889 C3887 1.433 . S
C3889 N3892 1.384 . S
C3890 H3881 0.929 . S
C3890 C3882 1.378 . S
C3890 C3885 1.350 . S
C3891 H3878 0.929 . S
C3891 C3883 1.433 . S
C3891 N3893 1.384 . S
N3892 C3888 1.427 . S
N3892 C3889 1.384 . S
N3893 C3885 1.427 . S
N3893 C3891 1.384 . S
H3894 C3900 0.930 . S
H3895 C3904 0.930 . S
H3896 C3909 0.929 . S
H3897 C3907 0.929 . S
H3898 C3902 0.929 . S
H3899 C3908 0.929 . S
C3900 H3894 0.930 . S
C3900 C3901 1.367 . S
C3900 C3908 1.378 . S
C3901 C3900 1.367 . S
C3901 C3909 1.433 . S
C3902 H3898 0.929 . S
C3902 C3904 1.378 . S
C3902 C3906 1.350 . S
C3903 C3906 1.463 . S
C3903 C3908 1.350 . S
C3903 N3911 1.427 . S
C3904 H3895 0.930 . S
C3904 C3902 1.378 . S
C3904 C3905 1.367 . S
C3905 C3904 1.367 . S
C3905 C3907 1.433 . S
C3906 C3902 1.350 . S
C3906 C3903 1.463 . S
C3906 N3910 1.427 . S
C3907 H3897 0.929 . S
C3907 C3905 1.433 . S
C3907 N3910 1.384 . S
C3908 H3899 0.929 . S
C3908 C3900 1.378 . S
C3908 C3903 1.350 . S
C3909 H3896 0.929 . S
C3909 C3901 1.433 . S
C3909 N3911 1.384 . S
N3910 C3906 1.427 . S
N3910 C3907 1.384 . S
N3911 C3903 1.427 . S
N3911 C3909 1.384 . S
H3912 C3918 0.930 . S
H3913 C3922 0.930 . S
H3914 C3927 0.929 . S
H3915 C3925 0.929 . S
H3916 C3920 0.929 . S
H3917 C3926 0.929 . S
C3918 H3912 0.930 . S
C3918 C3919 1.367 . S
C3918 C3926 1.378 . S
C3919 C3918 1.367 . S
C3919 C3927 1.433 . S
C3920 H3916 0.929 . S
C3920 C3922 1.378 . S
C3920 C3924 1.350 . S
C3921 C3924 1.463 . S
C3921 C3926 1.350 . S
C3921 N3929 1.427 . S
C3922 H3913 0.930 . S
C3922 C3920 1.378 . S
C3922 C3923 1.367 . S
C3923 C3922 1.367 . S
C3923 C3925 1.433 . S
C3924 C3920 1.350 . S
C3924 C3921 1.463 . S
C3924 N3928 1.427 . S
C3925 H3915 0.929 . S
C3925 C3923 1.433 . S
C3925 N3928 1.384 . S
C3926 H3917 0.929 . S
C3926 C3918 1.378 . S
C3926 C3921 1.350 . S
C3927 H3914 0.929 . S
C3927 C3919 1.433 . S
C3927 N3929 1.384 . S
N3928 C3924 1.427 . S
N3928 C3925 1.384 . S
N3929 C3921 1.427 . S
N3929 C3927 1.384 . S
H3930 C3936 0.930 . S
H3931 C3940 0.930 . S
H3932 C3945 0.929 . S
H3933 C3943 0.929 . S
H3934 C3938 0.929 . S
H3935 C3944 0.929 . S
C3936 H3930 0.930 . S
C3936 C3937 1.367 . S
C3936 C3944 1.378 . S
C3937 C3936 1.367 . S
C3937 C3945 1.433 . S
C3938 H3934 0.929 . S
C3938 C3940 1.378 . S
C3938 C3942 1.350 . S
C3939 C3942 1.463 1_554 S
C3939 C3944 1.350 . S
C3939 N3947 1.427 . S
C3940 H3931 0.930 . S
C3940 C3938 1.378 . S
C3940 C3941 1.367 . S
C3941 C3940 1.367 . S
C3941 C3943 1.433 . S
C3942 C3938 1.350 . S
C3942 C3939 1.463 1_556 S
C3942 N3946 1.427 . S
C3943 H3933 0.929 . S
C3943 C3941 1.433 . S
C3943 N3946 1.384 . S
C3944 H3935 0.929 . S
C3944 C3936 1.378 . S
C3944 C3939 1.350 . S
C3945 H3932 0.929 . S
C3945 C3937 1.433 . S
C3945 N3947 1.384 . S
N3946 C3942 1.427 . S
N3946 C3943 1.384 . S
N3947 C3939 1.427 . S
N3947 C3945 1.384 . S
H3948 C3954 0.930 . S
H3949 C3958 0.930 . S
H3950 C3963 0.929 . S
H3951 C3961 0.929 . S
H3952 C3956 0.929 . S
H3953 C3962 0.929 . S
C3954 H3948 0.930 . S
C3954 C3955 1.367 . S
C3954 C3962 1.378 . S
C3955 C3954 1.367 . S
C3955 C3963 1.433 . S
C3956 H3952 0.929 . S
C3956 C3958 1.378 . S
C3956 C3960 1.350 1_655 S
C3957 C3960 1.463 . S
C3957 C3962 1.350 . S
C3957 N3965 1.427 . S
C3958 H3949 0.930 . S
C3958 C3956 1.378 . S
C3958 C3959 1.367 . S
C3959 C3958 1.367 . S
C3959 C3961 1.433 . S
C3960 C3956 1.350 1_455 S
C3960 C3957 1.463 . S
C3960 N3964 1.427 . S
C3961 H3951 0.929 . S
C3961 C3959 1.433 . S
C3961 N3964 1.384 1_655 S
C3962 H3953 0.929 . S
C3962 C3954 1.378 . S
C3962 C3957 1.350 . S
C3963 H3950 0.929 . S
C3963 C3955 1.433 . S
C3963 N3965 1.384 . S
N3964 C3960 1.427 . S
N3964 C3961 1.384 1_455 S
N3965 C3957 1.427 . S
N3965 C3963 1.384 . S
H3966 C3972 0.930 . S
H3967 C3976 0.930 . S
H3968 C3981 0.929 . S
H3969 C3979 0.929 . S
H3970 C3974 0.929 . S
H3971 C3980 0.929 . S
C3972 H3966 0.930 . S
C3972 C3973 1.367 . S
C3972 C3980 1.378 . S
C3973 C3972 1.367 . S
C3973 C3981 1.433 . S
C3974 H3970 0.929 . S
C3974 C3976 1.378 . S
C3974 C3978 1.350 . S
C3975 C3978 1.463 . S
C3975 C3980 1.350 . S
C3975 N3983 1.427 . S
C3976 H3967 0.930 . S
C3976 C3974 1.378 . S
C3976 C3977 1.367 . S
C3977 C3976 1.367 . S
C3977 C3979 1.433 . S
C3978 C3974 1.350 . S
C3978 C3975 1.463 . S
C3978 N3982 1.427 . S
C3979 H3969 0.929 . S
C3979 C3977 1.433 . S
C3979 N3982 1.384 . S
C3980 H3971 0.929 . S
C3980 C3972 1.378 . S
C3980 C3975 1.350 . S
C3981 H3968 0.929 . S
C3981 C3973 1.433 . S
C3981 N3983 1.384 . S
N3982 C3978 1.427 . S
N3982 C3979 1.384 . S
N3983 C3975 1.427 . S
N3983 C3981 1.384 . S
H3984 C3990 0.930 . S
H3985 C3994 0.930 . S
H3986 C3999 0.929 . S
H3987 C3997 0.929 . S
H3988 C3992 0.929 . S
H3989 C3998 0.929 . S
C3990 H3984 0.930 . S
C3990 C3991 1.367 . S
C3990 C3998 1.378 . S
C3991 C3990 1.367 . S
C3991 C3999 1.433 . S
C3992 H3988 0.929 . S
C3992 C3994 1.378 . S
C3992 C3996 1.350 . S
C3993 C3996 1.463 . S
C3993 C3998 1.350 . S
C3993 N4001 1.427 . S
C3994 H3985 0.930 . S
C3994 C3992 1.378 . S
C3994 C3995 1.367 . S
C3995 C3994 1.367 . S
C3995 C3997 1.433 . S
C3996 C3992 1.350 . S
C3996 C3993 1.463 . S
C3996 N4000 1.427 . S
C3997 H3987 0.929 . S
C3997 C3995 1.433 . S
C3997 N4000 1.384 . S
C3998 H3989 0.929 . S
C3998 C3990 1.378 . S
C3998 C3993 1.350 . S
C3999 H3986 0.929 . S
C3999 C3991 1.433 . S
C3999 N4001 1.384 . S
N4000 C3996 1.427 . S
N4000 C3997 1.384 . S
N4001 C3993 1.427 . S
N4001 C3999 1.384 . S
H4002 C4008 0.930 . S
H4003 C4012 0.930 . S
H4004 C4017 0.929 . S
H4005 C4015 0.929 . S
H4006 C4010 0.929 . S
H4007 C4016 0.929 . S
C4008 H4002 0.930 . S
C4008 C4009 1.367 . S
C4008 C4016 1.378 . S
C4009 C4008 1.367 . S
C4009 C4017 1.433 . S
C4010 H4006 0.929 . S
C4010 C4012 1.378 . S
C4010 C4014 1.350 . S
C4011 C4014 1.463 . S
C4011 C4016 1.350 . S
C4011 N4019 1.427 . S
C4012 H4003 0.930 . S
C4012 C4010 1.378 . S
C4012 C4013 1.367 . S
C4013 C4012 1.367 . S
C4013 C4015 1.433 . S
C4014 C4010 1.350 . S
C4014 C4011 1.463 . S
C4014 N4018 1.427 . S
C4015 H4005 0.929 . S
C4015 C4013 1.433 . S
C4015 N4018 1.384 . S
C4016 H4007 0.929 . S
C4016 C4008 1.378 . S
C4016 C4011 1.350 . S
C4017 H4004 0.929 . S
C4017 C4009 1.433 . S
C4017 N4019 1.384 . S
N4018 C4014 1.427 . S
N4018 C4015 1.384 . S
N4019 C4011 1.427 . S
N4019 C4017 1.384 . S
H4020 C4026 0.930 . S
H4021 C4030 0.930 . S
H4022 C4035 0.929 . S
H4023 C4033 0.929 . S
H4024 C4028 0.929 . S
H4025 C4034 0.929 . S
C4026 H4020 0.930 . S
C4026 C4027 1.367 . S
C4026 C4034 1.378 . S
C4027 C4026 1.367 . S
C4027 C4035 1.433 . S
C4028 H4024 0.929 . S
C4028 C4030 1.378 . S
C4028 C4032 1.350 . S
C4029 C4032 1.463 . S
C4029 C4034 1.350 . S
C4029 N4037 1.427 . S
C4030 H4021 0.930 . S
C4030 C4028 1.378 . S
C4030 C4031 1.367 . S
C4031 C4030 1.367 . S
C4031 C4033 1.433 . S
C4032 C4028 1.350 . S
C4032 C4029 1.463 . S
C4032 N4036 1.427 . S
C4033 H4023 0.929 . S
C4033 C4031 1.433 . S
C4033 N4036 1.384 . S
C4034 H4025 0.929 . S
C4034 C4026 1.378 . S
C4034 C4029 1.350 . S
C4035 H4022 0.929 . S
C4035 C4027 1.433 . S
C4035 N4037 1.384 . S
N4036 C4032 1.427 . S
N4036 C4033 1.384 . S
N4037 C4029 1.427 . S
N4037 C4035 1.384 . S
H4038 C4044 0.930 . S
H4039 C4048 0.930 . S
H4040 C4053 0.929 . S
H4041 C4051 0.929 . S
H4042 C4046 0.929 . S
H4043 C4052 0.929 . S
C4044 H4038 0.930 . S
C4044 C4045 1.367 . S
C4044 C4052 1.378 . S
C4045 C4044 1.367 . S
C4045 C4053 1.433 . S
C4046 H4042 0.929 . S
C4046 C4048 1.378 . S
C4046 C4050 1.350 . S
C4047 C4050 1.463 . S
C4047 C4052 1.350 . S
C4047 N4055 1.427 . S
C4048 H4039 0.930 . S
C4048 C4046 1.378 . S
C4048 C4049 1.367 . S
C4049 C4048 1.367 . S
C4049 C4051 1.433 . S
C4050 C4046 1.350 . S
C4050 C4047 1.463 . S
C4050 N4054 1.427 . S
C4051 H4041 0.929 . S
C4051 C4049 1.433 . S
C4051 N4054 1.384 . S
C4052 H4043 0.929 . S
C4052 C4044 1.378 . S
C4052 C4047 1.350 . S
C4053 H4040 0.929 . S
C4053 C4045 1.433 . S
C4053 N4055 1.384 . S
N4054 C4050 1.427 . S
N4054 C4051 1.384 . S
N4055 C4047 1.427 . S
N4055 C4053 1.384 . S
H4056 C4062 0.930 . S
H4057 C4066 0.930 . S
H4058 C4071 0.929 . S
H4059 C4069 0.929 . S
H4060 C4064 0.929 . S
H4061 C4070 0.929 . S
C4062 H4056 0.930 . S
C4062 C4063 1.367 . S
C4062 C4070 1.378 . S
C4063 C4062 1.367 . S
C4063 C4071 1.433 . S
C4064 H4060 0.929 . S
C4064 C4066 1.378 . S
C4064 C4068 1.350 . S
C4065 C4068 1.463 . S
C4065 C4070 1.350 . S
C4065 N4073 1.427 . S
C4066 H4057 0.930 . S
C4066 C4064 1.378 . S
C4066 C4067 1.367 . S
C4067 C4066 1.367 . S
C4067 C4069 1.433 . S
C4068 C4064 1.350 . S
C4068 C4065 1.463 . S
C4068 N4072 1.427 . S
C4069 H4059 0.929 . S
C4069 C4067 1.433 . S
C4069 N4072 1.384 . S
C4070 H4061 0.929 . S
C4070 C4062 1.378 . S
C4070 C4065 1.350 . S
C4071 H4058 0.929 . S
C4071 C4063 1.433 . S
C4071 N4073 1.384 . S
N4072 C4068 1.427 . S
N4072 C4069 1.384 . S
N4073 C4065 1.427 . S
N4073 C4071 1.384 . S
H4074 C4080 0.930 . S
H4075 C4084 0.930 . S
H4076 C4089 0.929 . S
H4077 C4087 0.929 . S
H4078 C4082 0.929 1_455 S
H4079 C4088 0.929 . S
C4080 H4074 0.930 . S
C4080 C4081 1.367 . S
C4080 C4088 1.378 . S
C4081 C4080 1.367 . S
C4081 C4089 1.433 . S
C4082 H4078 0.929 1_655 S
C4082 C4084 1.378 . S
C4082 C4086 1.329 1_655 S
C4083 C4086 1.516 . S
C4083 C4088 1.350 . S
C4083 N4091 1.427 . S
C4084 H4075 0.930 . S
C4084 C4082 1.378 . S
C4084 C4085 1.367 . S
C4085 C4084 1.367 . S
C4085 C4087 1.433 . S
C4086 C4082 1.329 1_455 S
C4086 C4083 1.516 . S
C4086 N4090 1.398 1_455 S
C4087 H4077 0.929 . S
C4087 C4085 1.433 . S
C4087 N4090 1.384 . S
C4088 H4079 0.929 . S
C4088 C4080 1.378 . S
C4088 C4083 1.350 . S
C4089 H4076 0.929 . S
C4089 C4081 1.433 . S
C4089 N4091 1.384 . S
N4090 C4086 1.398 1_655 S
N4090 C4087 1.384 . S
N4091 C4083 1.427 . S
N4091 C4089 1.384 . S
H4092 C4098 0.930 . S
H4093 C4102 0.930 . S
H4094 C4107 0.929 . S
H4095 C4105 0.929 . S
H4096 C4100 0.929 . S
H4097 C4106 0.929 . S
C4098 H4092 0.930 . S
C4098 C4099 1.367 . S
C4098 C4106 1.378 . S
C4099 C4098 1.367 . S
C4099 C4107 1.433 . S
C4100 H4096 0.929 . S
C4100 C4102 1.378 . S
C4100 C4104 1.350 . S
C4101 C4104 1.463 . S
C4101 C4106 1.350 . S
C4101 N4109 1.427 . S
C4102 H4093 0.930 . S
C4102 C4100 1.378 . S
C4102 C4103 1.367 . S
C4103 C4102 1.367 . S
C4103 C4105 1.433 . S
C4104 C4100 1.350 . S
C4104 C4101 1.463 . S
C4104 N4108 1.427 . S
C4105 H4095 0.929 . S
C4105 C4103 1.433 . S
C4105 N4108 1.384 . S
C4106 H4097 0.929 . S
C4106 C4098 1.378 . S
C4106 C4101 1.350 . S
C4107 H4094 0.929 . S
C4107 C4099 1.433 . S
C4107 N4109 1.384 . S
N4108 C4104 1.427 . S
N4108 C4105 1.384 . S
N4109 C4101 1.427 . S
N4109 C4107 1.384 . S
H4110 C4116 0.930 . S
H4111 C4120 0.930 . S
H4112 C4125 0.929 . S
H4113 C4123 0.929 . S
H4114 C4118 0.929 . S
H4115 C4124 0.929 . S
C4116 H4110 0.930 . S
C4116 C4117 1.367 . S
C4116 C4124 1.378 . S
C4117 C4116 1.367 . S
C4117 C4125 1.433 . S
C4118 H4114 0.929 . S
C4118 C4120 1.378 . S
C4118 C4122 1.350 . S
C4119 C4122 1.463 . S
C4119 C4124 1.350 . S
C4119 N4127 1.427 . S
C4120 H4111 0.930 . S
C4120 C4118 1.378 . S
C4120 C4121 1.367 . S
C4121 C4120 1.367 . S
C4121 C4123 1.433 . S
C4122 C4118 1.350 . S
C4122 C4119 1.463 . S
C4122 N4126 1.427 . S
C4123 H4113 0.929 . S
C4123 C4121 1.433 . S
C4123 N4126 1.384 . S
C4124 H4115 0.929 . S
C4124 C4116 1.378 . S
C4124 C4119 1.350 . S
C4125 H4112 0.929 . S
C4125 C4117 1.433 . S
C4125 N4127 1.384 . S
N4126 C4122 1.427 . S
N4126 C4123 1.384 . S
N4127 C4119 1.427 . S
N4127 C4125 1.384 . S
H4128 C4134 0.930 . S
H4129 C4138 0.930 . S
H4130 C4143 0.929 . S
H4131 C4141 0.929 . S
H4132 C4136 0.929 . S
H4133 C4142 0.929 . S
C4134 H4128 0.930 . S
C4134 C4135 1.367 . S
C4134 C4142 1.378 . S
C4135 C4134 1.367 . S
C4135 C4143 1.433 . S
C4136 H4132 0.929 . S
C4136 C4138 1.378 . S
C4136 C4140 1.350 . S
C4137 C4140 1.463 . S
C4137 C4142 1.350 . S
C4137 N4145 1.427 . S
C4138 H4129 0.930 . S
C4138 C4136 1.378 . S
C4138 C4139 1.367 . S
C4139 C4138 1.367 . S
C4139 C4141 1.433 . S
C4140 C4136 1.350 . S
C4140 C4137 1.463 . S
C4140 N4144 1.427 . S
C4141 H4131 0.929 . S
C4141 C4139 1.433 . S
C4141 N4144 1.384 . S
C4142 H4133 0.929 . S
C4142 C4134 1.378 . S
C4142 C4137 1.350 . S
C4143 H4130 0.929 . S
C4143 C4135 1.433 . S
C4143 N4145 1.384 . S
N4144 C4140 1.427 . S
N4144 C4141 1.384 . S
N4145 C4137 1.427 . S
N4145 C4143 1.384 . S
H4146 C4152 0.930 . S
H4147 C4156 0.930 . S
H4148 C4161 0.929 . S
H4149 C4159 0.929 . S
H4150 C4154 0.929 . S
H4151 C4160 0.929 . S
C4152 H4146 0.930 . S
C4152 C4153 1.367 . S
C4152 C4160 1.378 . S
C4153 C4152 1.367 . S
C4153 C4161 1.433 . S
C4154 H4150 0.929 . S
C4154 C4156 1.378 . S
C4154 C4158 1.350 . S
C4155 C4158 1.463 . S
C4155 C4160 1.350 . S
C4155 N4163 1.427 . S
C4156 H4147 0.930 . S
C4156 C4154 1.378 . S
C4156 C4157 1.367 . S
C4157 C4156 1.367 . S
C4157 C4159 1.433 . S
C4158 C4154 1.350 . S
C4158 C4155 1.463 . S
C4158 N4162 1.427 . S
C4159 H4149 0.929 . S
C4159 C4157 1.433 . S
C4159 N4162 1.384 . S
C4160 H4151 0.929 . S
C4160 C4152 1.378 . S
C4160 C4155 1.350 . S
C4161 H4148 0.929 . S
C4161 C4153 1.433 . S
C4161 N4163 1.384 . S
N4162 C4158 1.427 . S
N4162 C4159 1.384 . S
N4163 C4155 1.427 . S
N4163 C4161 1.384 . S
H4164 C4170 0.930 . S
H4165 C4174 0.930 . S
H4166 C4179 0.929 . S
H4167 C4177 0.929 . S
H4168 C4172 0.929 . S
H4169 C4178 0.929 . S
C4170 H4164 0.930 . S
C4170 C4171 1.367 . S
C4170 C4178 1.378 . S
C4171 C4170 1.367 . S
C4171 C4179 1.433 . S
C4172 H4168 0.929 . S
C4172 C4174 1.378 . S
C4172 C4176 1.350 . S
C4173 C4176 1.463 . S
C4173 C4178 1.350 . S
C4173 N4181 1.427 . S
C4174 H4165 0.930 . S
C4174 C4172 1.378 . S
C4174 C4175 1.367 . S
C4175 C4174 1.367 . S
C4175 C4177 1.433 . S
C4176 C4172 1.350 . S
C4176 C4173 1.463 . S
C4176 N4180 1.427 . S
C4177 H4167 0.929 . S
C4177 C4175 1.433 . S
C4177 N4180 1.384 . S
C4178 H4169 0.929 . S
C4178 C4170 1.378 . S
C4178 C4173 1.350 . S
C4179 H4166 0.929 . S
C4179 C4171 1.433 . S
C4179 N4181 1.384 . S
N4180 C4176 1.427 . S
N4180 C4177 1.384 . S
N4181 C4173 1.427 . S
N4181 C4179 1.384 . S
H4182 C4188 0.930 . S
H4183 C4192 0.930 . S
H4184 C4197 0.929 . S
H4185 C4195 0.929 . S
H4186 C4190 0.929 . S
H4187 C4196 0.929 . S
C4188 H4182 0.930 . S
C4188 C4189 1.367 . S
C4188 C4196 1.378 . S
C4189 C4188 1.367 . S
C4189 C4197 1.433 . S
C4190 H4186 0.929 . S
C4190 C4192 1.378 . S
C4190 C4194 1.350 . S
C4191 C4194 1.463 . S
C4191 C4196 1.350 . S
C4191 N4199 1.427 . S
C4192 H4183 0.930 . S
C4192 C4190 1.378 . S
C4192 C4193 1.367 . S
C4193 C4192 1.367 . S
C4193 C4195 1.433 . S
C4194 C4190 1.350 . S
C4194 C4191 1.463 . S
C4194 N4198 1.427 . S
C4195 H4185 0.929 . S
C4195 C4193 1.433 . S
C4195 N4198 1.384 . S
C4196 H4187 0.929 . S
C4196 C4188 1.378 . S
C4196 C4191 1.350 . S
C4197 H4184 0.929 . S
C4197 C4189 1.433 . S
C4197 N4199 1.384 . S
N4198 C4194 1.427 . S
N4198 C4195 1.384 . S
N4199 C4191 1.427 . S
N4199 C4197 1.384 . S
H4200 C4206 0.930 . S
H4201 C4210 0.930 . S
H4202 C4215 0.929 . S
H4203 C4213 0.929 . S
H4204 C4208 0.929 . S
H4205 C4214 0.929 . S
C4206 H4200 0.930 . S
C4206 C4207 1.367 . S
C4206 C4214 1.378 . S
C4207 C4206 1.367 . S
C4207 C4215 1.433 . S
C4208 H4204 0.929 . S
C4208 C4210 1.378 . S
C4208 C4212 1.350 . S
C4209 C4212 1.463 . S
C4209 C4214 1.350 1_556 S
C4209 N4217 1.427 . S
C4210 H4201 0.930 . S
C4210 C4208 1.378 . S
C4210 C4211 1.367 . S
C4211 C4210 1.367 . S
C4211 C4213 1.433 . S
C4212 C4208 1.350 . S
C4212 C4209 1.463 . S
C4212 N4216 1.427 . S
C4213 H4203 0.929 . S
C4213 C4211 1.433 . S
C4213 N4216 1.384 . S
C4214 H4205 0.929 . S
C4214 C4206 1.378 . S
C4214 C4209 1.350 1_554 S
C4215 H4202 0.929 . S
C4215 C4207 1.433 . S
C4215 N4217 1.384 1_554 S
N4216 C4212 1.427 . S
N4216 C4213 1.384 . S
N4217 C4209 1.427 . S
N4217 C4215 1.384 1_556 S
H4218 C4224 0.930 . S
H4219 C4228 0.930 . S
H4220 C4233 0.929 . S
H4221 C4231 0.929 . S
H4222 C4226 0.929 . S
H4223 C4232 0.929 . S
C4224 H4218 0.930 . S
C4224 C4225 1.367 . S
C4224 C4232 1.378 . S
C4225 C4224 1.367 . S
C4225 C4233 1.433 . S
C4226 H4222 0.929 . S
C4226 C4228 1.378 . S
C4226 C4230 1.350 . S
C4227 C4230 1.463 . S
C4227 C4232 1.350 . S
C4227 N4235 1.427 . S
C4228 H4219 0.930 . S
C4228 C4226 1.378 . S
C4228 C4229 1.367 . S
C4229 C4228 1.367 . S
C4229 C4231 1.433 . S
C4230 C4226 1.350 . S
C4230 C4227 1.463 . S
C4230 N4234 1.427 . S
C4231 H4221 0.929 . S
C4231 C4229 1.433 . S
C4231 N4234 1.384 . S
C4232 H4223 0.929 . S
C4232 C4224 1.378 . S
C4232 C4227 1.350 . S
C4233 H4220 0.929 . S
C4233 C4225 1.433 . S
C4233 N4235 1.384 . S
N4234 C4230 1.427 . S
N4234 C4231 1.384 . S
N4235 C4227 1.427 . S
N4235 C4233 1.384 . S
H4236 C4242 0.930 . S
H4237 C4246 0.930 . S
H4238 C4251 0.929 . S
H4239 C4249 0.929 . S
H4240 C4244 0.929 . S
H4241 C4250 0.929 . S
C4242 H4236 0.930 . S
C4242 C4243 1.367 . S
C4242 C4250 1.378 . S
C4243 C4242 1.367 . S
C4243 C4251 1.433 . S
C4244 H4240 0.929 . S
C4244 C4246 1.378 . S
C4244 C4248 1.350 . S
C4245 C4248 1.463 . S
C4245 C4250 1.350 . S
C4245 N4253 1.427 . S
C4246 H4237 0.930 . S
C4246 C4244 1.378 . S
C4246 C4247 1.367 . S
C4247 C4246 1.367 . S
C4247 C4249 1.433 . S
C4248 C4244 1.350 . S
C4248 C4245 1.463 . S
C4248 N4252 1.427 . S
C4249 H4239 0.929 . S
C4249 C4247 1.433 . S
C4249 N4252 1.384 . S
C4250 H4241 0.929 . S
C4250 C4242 1.378 . S
C4250 C4245 1.350 . S
C4251 H4238 0.929 . S
C4251 C4243 1.433 . S
C4251 N4253 1.384 . S
N4252 C4248 1.427 . S
N4252 C4249 1.384 . S
N4253 C4245 1.427 . S
N4253 C4251 1.384 . S
H4254 C4260 0.930 . S
H4255 C4264 0.930 . S
H4256 C4269 0.929 . S
H4257 C4267 0.929 . S
H4258 C4262 0.929 . S
H4259 C4268 0.929 . S
C4260 H4254 0.930 . S
C4260 C4261 1.367 . S
C4260 C4268 1.378 . S
C4261 C4260 1.367 . S
C4261 C4269 1.433 . S
C4262 H4258 0.929 . S
C4262 C4264 1.378 . S
C4262 C4266 1.350 1_554 S
C4263 C4266 1.463 . S
C4263 C4268 1.350 . S
C4263 N4271 1.427 . S
C4264 H4255 0.930 . S
C4264 C4262 1.378 . S
C4264 C4265 1.367 . S
C4265 C4264 1.367 . S
C4265 C4267 1.433 . S
C4266 C4262 1.350 1_556 S
C4266 C4263 1.463 . S
C4266 N4270 1.427 . S
C4267 H4257 0.929 . S
C4267 C4265 1.433 . S
C4267 N4270 1.384 1_554 S
C4268 H4259 0.929 . S
C4268 C4260 1.378 . S
C4268 C4263 1.350 . S
C4269 H4256 0.929 . S
C4269 C4261 1.433 . S
C4269 N4271 1.384 . S
N4270 C4266 1.427 . S
N4270 C4267 1.384 1_556 S
N4271 C4263 1.427 . S
N4271 C4269 1.384 . S
H4272 C4278 0.930 . S
H4273 C4282 0.930 . S
H4274 C4287 0.929 . S
H4275 C4285 0.929 . S
H4276 C4280 0.929 . S
H4277 C4286 0.929 . S
C4278 H4272 0.930 . S
C4278 C4279 1.367 . S
C4278 C4286 1.378 . S
C4279 C4278 1.367 . S
C4279 C4287 1.433 . S
C4280 H4276 0.929 . S
C4280 C4282 1.378 . S
C4280 C4284 1.350 . S
C4281 C4284 1.463 . S
C4281 C4286 1.350 . S
C4281 N4289 1.427 . S
C4282 H4273 0.930 . S
C4282 C4280 1.378 . S
C4282 C4283 1.367 . S
C4283 C4282 1.367 . S
C4283 C4285 1.433 . S
C4284 C4280 1.350 . S
C4284 C4281 1.463 . S
C4284 N4288 1.427 . S
C4285 H4275 0.929 . S
C4285 C4283 1.433 . S
C4285 N4288 1.384 . S
C4286 H4277 0.929 . S
C4286 C4278 1.378 . S
C4286 C4281 1.350 . S
C4287 H4274 0.929 . S
C4287 C4279 1.433 . S
C4287 N4289 1.384 . S
N4288 C4284 1.427 . S
N4288 C4285 1.384 . S
N4289 C4281 1.427 . S
N4289 C4287 1.384 . S
H4290 C4296 0.930 . S
H4291 C4300 0.930 . S
H4292 C4305 0.929 . S
H4293 C4303 0.929 . S
H4294 C4298 0.929 . S
H4295 C4304 0.929 . S
C4296 H4290 0.930 . S
C4296 C4297 1.367 . S
C4296 C4304 1.378 . S
C4297 C4296 1.367 . S
C4297 C4305 1.433 . S
C4298 H4294 0.929 . S
C4298 C4300 1.378 . S
C4298 C4302 1.350 . S
C4299 C4302 1.463 . S
C4299 C4304 1.350 . S
C4299 N4307 1.427 . S
C4300 H4291 0.930 . S
C4300 C4298 1.378 . S
C4300 C4301 1.367 . S
C4301 C4300 1.367 . S
C4301 C4303 1.433 . S
C4302 C4298 1.350 . S
C4302 C4299 1.463 . S
C4302 N4306 1.427 . S
C4303 H4293 0.929 . S
C4303 C4301 1.433 . S
C4303 N4306 1.384 . S
C4304 H4295 0.929 . S
C4304 C4296 1.378 . S
C4304 C4299 1.350 . S
C4305 H4292 0.929 . S
C4305 C4297 1.433 . S
C4305 N4307 1.384 . S
N4306 C4302 1.427 . S
N4306 C4303 1.384 . S
N4307 C4299 1.427 . S
N4307 C4305 1.384 . S
H4308 C4314 0.930 . S
H4309 C4318 0.930 . S
H4310 C4323 0.929 . S
H4311 C4321 0.929 . S
H4312 C4316 0.929 . S
H4313 C4322 0.929 . S
C4314 H4308 0.930 . S
C4314 C4315 1.367 . S
C4314 C4322 1.378 . S
C4315 C4314 1.367 . S
C4315 C4323 1.433 . S
C4316 H4312 0.929 . S
C4316 C4318 1.378 . S
C4316 C4320 1.350 . S
C4317 C4320 1.463 . S
C4317 C4322 1.350 . S
C4317 N4325 1.427 . S
C4318 H4309 0.930 . S
C4318 C4316 1.378 . S
C4318 C4319 1.367 . S
C4319 C4318 1.367 . S
C4319 C4321 1.433 . S
C4320 C4316 1.350 . S
C4320 C4317 1.463 . S
C4320 N4324 1.427 . S
C4321 H4311 0.929 . S
C4321 C4319 1.433 . S
C4321 N4324 1.384 . S
C4322 H4313 0.929 . S
C4322 C4314 1.378 . S
C4322 C4317 1.350 . S
C4323 H4310 0.929 . S
C4323 C4315 1.433 . S
C4323 N4325 1.384 . S
N4324 C4320 1.427 . S
N4324 C4321 1.384 . S
N4325 C4317 1.427 . S
N4325 C4323 1.384 . S
H4326 C4332 0.930 . S
H4327 C4336 0.930 . S
H4328 C4341 0.929 . S
H4329 C4339 0.929 . S
H4330 C4334 0.929 . S
H4331 C4340 0.929 . S
C4332 H4326 0.930 . S
C4332 C4333 1.367 . S
C4332 C4340 1.378 . S
C4333 C4332 1.367 . S
C4333 C4341 1.433 . S
C4334 H4330 0.929 . S
C4334 C4336 1.378 . S
C4334 C4338 1.350 . S
C4335 C4338 1.463 . S
C4335 C4340 1.350 . S
C4335 N4343 1.427 . S
C4336 H4327 0.930 . S
C4336 C4334 1.378 . S
C4336 C4337 1.367 . S
C4337 C4336 1.367 . S
C4337 C4339 1.433 . S
C4338 C4334 1.350 . S
C4338 C4335 1.463 . S
C4338 N4342 1.427 . S
C4339 H4329 0.929 . S
C4339 C4337 1.433 . S
C4339 N4342 1.384 . S
C4340 H4331 0.929 . S
C4340 C4332 1.378 . S
C4340 C4335 1.350 . S
C4341 H4328 0.929 . S
C4341 C4333 1.433 . S
C4341 N4343 1.384 . S
N4342 C4338 1.427 . S
N4342 C4339 1.384 . S
N4343 C4335 1.427 . S
N4343 C4341 1.384 . S
H4344 C4350 0.930 . S
H4345 C4354 0.930 . S
H4346 C4359 0.929 . S
H4347 C4357 0.929 . S
H4348 C4352 0.929 . S
H4349 C4358 0.929 . S
C4350 H4344 0.930 . S
C4350 C4351 1.367 . S
C4350 C4358 1.378 . S
C4351 C4350 1.367 . S
C4351 C4359 1.433 . S
C4352 H4348 0.929 . S
C4352 C4354 1.378 . S
C4352 C4356 1.350 . S
C4353 C4356 1.463 1_565 S
C4353 C4358 1.350 . S
C4353 N4361 1.427 . S
C4354 H4345 0.930 . S
C4354 C4352 1.378 . S
C4354 C4355 1.367 . S
C4355 C4354 1.367 . S
C4355 C4357 1.433 . S
C4356 C4352 1.350 . S
C4356 C4353 1.463 1_545 S
C4356 N4360 1.427 . S
C4357 H4347 0.929 . S
C4357 C4355 1.433 . S
C4357 N4360 1.384 . S
C4358 H4349 0.929 . S
C4358 C4350 1.378 . S
C4358 C4353 1.350 . S
C4359 H4346 0.929 . S
C4359 C4351 1.433 . S
C4359 N4361 1.384 . S
N4360 C4356 1.427 . S
N4360 C4357 1.384 . S
N4361 C4353 1.427 . S
N4361 C4359 1.384 . S
H4362 C4368 0.930 . S
H4363 C4372 0.930 . S
H4364 C4377 0.929 . S
H4365 C4375 0.929 . S
H4366 C4370 0.929 . S
H4367 C4376 0.929 . S
C4368 H4362 0.930 . S
C4368 C4369 1.367 . S
C4368 C4376 1.378 . S
C4369 C4368 1.367 . S
C4369 C4377 1.433 . S
C4370 H4366 0.929 . S
C4370 C4372 1.378 . S
C4370 C4374 1.350 . S
C4371 C4374 1.463 . S
C4371 C4376 1.350 . S
C4371 N4379 1.427 . S
C4372 H4363 0.930 . S
C4372 C4370 1.378 . S
C4372 C4373 1.367 . S
C4373 C4372 1.367 . S
C4373 C4375 1.433 . S
C4374 C4370 1.350 . S
C4374 C4371 1.463 . S
C4374 N4378 1.427 . S
C4375 H4365 0.929 . S
C4375 C4373 1.433 . S
C4375 N4378 1.384 . S
C4376 H4367 0.929 . S
C4376 C4368 1.378 . S
C4376 C4371 1.350 . S
C4377 H4364 0.929 . S
C4377 C4369 1.433 . S
C4377 N4379 1.384 . S
N4378 C4374 1.427 . S
N4378 C4375 1.384 . S
N4379 C4371 1.427 . S
N4379 C4377 1.384 . S
H4380 C4386 0.930 . S
H4381 C4390 0.930 . S
H4382 C4395 0.929 . S
H4383 C4393 0.929 . S
H4384 C4388 0.929 . S
H4385 C4394 0.929 . S
C4386 H4380 0.930 . S
C4386 C4387 1.367 . S
C4386 C4394 1.378 . S
C4387 C4386 1.367 . S
C4387 C4395 1.433 . S
C4388 H4384 0.929 . S
C4388 C4390 1.378 . S
C4388 C4392 1.350 . S
C4389 C4392 1.463 . S
C4389 C4394 1.350 . S
C4389 N4397 1.427 . S
C4390 H4381 0.930 . S
C4390 C4388 1.378 . S
C4390 C4391 1.367 . S
C4391 C4390 1.367 . S
C4391 C4393 1.433 . S
C4392 C4388 1.350 . S
C4392 C4389 1.463 . S
C4392 N4396 1.427 . S
C4393 H4383 0.929 . S
C4393 C4391 1.433 . S
C4393 N4396 1.384 . S
C4394 H4385 0.929 . S
C4394 C4386 1.378 . S
C4394 C4389 1.350 . S
C4395 H4382 0.929 . S
C4395 C4387 1.433 . S
C4395 N4397 1.384 . S
N4396 C4392 1.427 . S
N4396 C4393 1.384 . S
N4397 C4389 1.427 . S
N4397 C4395 1.384 . S
H4398 C4404 0.930 . S
H4399 C4408 0.930 . S
H4400 C4413 0.929 . S
H4401 C4411 0.929 . S
H4402 C4406 0.929 . S
H4403 C4412 0.934 . S
C4404 H4398 0.930 . S
C4404 C4405 1.367 . S
C4404 C4412 1.378 . S
C4405 C4404 1.367 . S
C4405 C4413 1.433 . S
C4406 H4402 0.929 . S
C4406 C4408 1.378 . S
C4406 C4410 1.350 . S
C4407 C4410 1.513 . S
C4407 C4412 1.324 1_655 S
C4407 N4415 1.407 1_655 S
C4408 H4399 0.930 . S
C4408 C4406 1.378 . S
C4408 C4409 1.367 . S
C4409 C4408 1.367 . S
C4409 C4411 1.433 . S
C4410 C4406 1.350 . S
C4410 C4407 1.513 . S
C4410 N4414 1.427 . S
C4411 H4401 0.929 . S
C4411 C4409 1.433 . S
C4411 N4414 1.384 . S
C4412 H4403 0.934 . S
C4412 C4404 1.378 . S
C4412 C4407 1.324 1_455 S
C4413 H4400 0.929 . S
C4413 C4405 1.433 . S
C4413 N4415 1.384 . S
N4414 C4410 1.427 . S
N4414 C4411 1.384 . S
N4415 C4407 1.407 1_455 S
N4415 C4413 1.384 . S
H4416 C4422 0.930 . S
H4417 C4426 0.930 . S
H4418 C4431 0.929 . S
H4419 C4429 0.929 . S
H4420 C4424 0.929 . S
H4421 C4430 0.929 . S
C4422 H4416 0.930 . S
C4422 C4423 1.367 . S
C4422 C4430 1.378 . S
C4423 C4422 1.367 . S
C4423 C4431 1.433 . S
C4424 H4420 0.929 . S
C4424 C4426 1.378 . S
C4424 C4428 1.350 . S
C4425 C4428 1.463 . S
C4425 C4430 1.350 . S
C4425 N4433 1.427 . S
C4426 H4417 0.930 . S
C4426 C4424 1.378 . S
C4426 C4427 1.367 . S
C4427 C4426 1.367 . S
C4427 C4429 1.433 . S
C4428 C4424 1.350 . S
C4428 C4425 1.463 . S
C4428 N4432 1.427 . S
C4429 H4419 0.929 . S
C4429 C4427 1.433 . S
C4429 N4432 1.384 . S
C4430 H4421 0.929 . S
C4430 C4422 1.378 . S
C4430 C4425 1.350 . S
C4431 H4418 0.929 . S
C4431 C4423 1.433 . S
C4431 N4433 1.384 . S
N4432 C4428 1.427 . S
N4432 C4429 1.384 . S
N4433 C4425 1.427 . S
N4433 C4431 1.384 . S
H4434 C4440 0.930 . S
H4435 C4444 0.930 . S
H4436 C4449 0.929 . S
H4437 C4447 0.929 . S
H4438 C4442 0.929 . S
H4439 C4448 0.929 . S
C4440 H4434 0.930 . S
C4440 C4441 1.367 . S
C4440 C4448 1.378 . S
C4441 C4440 1.367 . S
C4441 C4449 1.433 . S
C4442 H4438 0.929 . S
C4442 C4444 1.378 . S
C4442 C4446 1.350 . S
C4443 C4446 1.463 . S
C4443 C4448 1.350 . S
C4443 N4451 1.427 . S
C4444 H4435 0.930 . S
C4444 C4442 1.378 . S
C4444 C4445 1.367 . S
C4445 C4444 1.367 . S
C4445 C4447 1.433 . S
C4446 C4442 1.350 . S
C4446 C4443 1.463 . S
C4446 N4450 1.427 . S
C4447 H4437 0.929 . S
C4447 C4445 1.433 . S
C4447 N4450 1.384 . S
C4448 H4439 0.929 . S
C4448 C4440 1.378 . S
C4448 C4443 1.350 . S
C4449 H4436 0.929 . S
C4449 C4441 1.433 . S
C4449 N4451 1.384 . S
N4450 C4446 1.427 . S
N4450 C4447 1.384 . S
N4451 C4443 1.427 . S
N4451 C4449 1.384 . S
H4452 C4458 0.930 . S
H4453 C4462 0.930 . S
H4454 C4467 0.929 . S
H4455 C4465 0.929 . S
H4456 C4460 0.929 . S
H4457 C4466 0.929 . S
C4458 H4452 0.930 . S
C4458 C4459 1.367 . S
C4458 C4466 1.378 . S
C4459 C4458 1.367 . S
C4459 C4467 1.433 . S
C4460 H4456 0.929 . S
C4460 C4462 1.378 . S
C4460 C4464 1.350 . S
C4461 C4464 1.463 . S
C4461 C4466 1.350 . S
C4461 N4469 1.427 . S
C4462 H4453 0.930 . S
C4462 C4460 1.378 . S
C4462 C4463 1.367 . S
C4463 C4462 1.367 . S
C4463 C4465 1.433 . S
C4464 C4460 1.350 . S
C4464 C4461 1.463 . S
C4464 N4468 1.427 . S
C4465 H4455 0.929 . S
C4465 C4463 1.433 . S
C4465 N4468 1.384 . S
C4466 H4457 0.929 . S
C4466 C4458 1.378 . S
C4466 C4461 1.350 . S
C4467 H4454 0.929 . S
C4467 C4459 1.433 . S
C4467 N4469 1.384 . S
N4468 C4464 1.427 . S
N4468 C4465 1.384 . S
N4469 C4461 1.427 . S
N4469 C4467 1.384 . S
H4470 C4476 0.930 . S
H4471 C4480 0.930 . S
H4472 C4485 0.929 . S
H4473 C4483 0.929 . S
H4474 C4478 0.929 . S
H4475 C4484 0.929 . S
C4476 H4470 0.930 . S
C4476 C4477 1.367 . S
C4476 C4484 1.378 . S
C4477 C4476 1.367 . S
C4477 C4485 1.433 . S
C4478 H4474 0.929 . S
C4478 C4480 1.378 . S
C4478 C4482 1.350 . S
C4479 C4482 1.463 . S
C4479 C4484 1.350 . S
C4479 N4487 1.427 . S
C4480 H4471 0.930 . S
C4480 C4478 1.378 . S
C4480 C4481 1.367 . S
C4481 C4480 1.367 . S
C4481 C4483 1.433 . S
C4482 C4478 1.350 . S
C4482 C4479 1.463 . S
C4482 N4486 1.427 . S
C4483 H4473 0.929 . S
C4483 C4481 1.433 . S
C4483 N4486 1.384 . S
C4484 H4475 0.929 . S
C4484 C4476 1.378 . S
C4484 C4479 1.350 . S
C4485 H4472 0.929 . S
C4485 C4477 1.433 . S
C4485 N4487 1.384 . S
N4486 C4482 1.427 . S
N4486 C4483 1.384 . S
N4487 C4479 1.427 . S
N4487 C4485 1.384 . S
H4488 C4494 0.930 . S
H4489 C4498 0.930 . S
H4490 C4503 0.929 . S
H4491 C4501 0.929 . S
H4492 C4496 0.929 . S
H4493 C4502 0.929 . S
C4494 H4488 0.930 . S
C4494 C4495 1.367 . S
C4494 C4502 1.378 . S
C4495 C4494 1.367 . S
C4495 C4503 1.433 . S
C4496 H4492 0.929 . S
C4496 C4498 1.378 . S
C4496 C4500 1.350 . S
C4497 C4500 1.463 . S
C4497 C4502 1.350 . S
C4497 N4505 1.427 . S
C4498 H4489 0.930 . S
C4498 C4496 1.378 . S
C4498 C4499 1.367 . S
C4499 C4498 1.367 . S
C4499 C4501 1.433 . S
C4500 C4496 1.350 . S
C4500 C4497 1.463 . S
C4500 N4504 1.427 . S
C4501 H4491 0.929 . S
C4501 C4499 1.433 . S
C4501 N4504 1.384 . S
C4502 H4493 0.929 . S
C4502 C4494 1.378 . S
C4502 C4497 1.350 . S
C4503 H4490 0.929 . S
C4503 C4495 1.433 . S
C4503 N4505 1.384 . S
N4504 C4500 1.427 . S
N4504 C4501 1.384 . S
N4505 C4497 1.427 . S
N4505 C4503 1.384 . S
H4506 C4512 0.930 . S
H4507 C4516 0.930 . S
H4508 C4521 0.929 . S
H4509 C4519 0.929 . S
H4510 C4514 0.929 . S
H4511 C4520 0.929 . S
C4512 H4506 0.930 . S
C4512 C4513 1.367 . S
C4512 C4520 1.378 . S
C4513 C4512 1.367 . S
C4513 C4521 1.433 . S
C4514 H4510 0.929 . S
C4514 C4516 1.378 . S
C4514 C4518 1.350 . S
C4515 C4518 1.463 . S
C4515 C4520 1.350 . S
C4515 N4523 1.427 . S
C4516 H4507 0.930 . S
C4516 C4514 1.378 . S
C4516 C4517 1.367 . S
C4517 C4516 1.367 . S
C4517 C4519 1.433 . S
C4518 C4514 1.350 . S
C4518 C4515 1.463 . S
C4518 N4522 1.427 . S
C4519 H4509 0.929 . S
C4519 C4517 1.433 . S
C4519 N4522 1.384 . S
C4520 H4511 0.929 . S
C4520 C4512 1.378 . S
C4520 C4515 1.350 . S
C4521 H4508 0.929 . S
C4521 C4513 1.433 . S
C4521 N4523 1.384 . S
N4522 C4518 1.427 . S
N4522 C4519 1.384 . S
N4523 C4515 1.427 . S
N4523 C4521 1.384 . S
H4524 C4530 0.930 . S
H4525 C4534 0.930 . S
H4526 C4539 0.929 . S
H4527 C4537 0.929 . S
H4528 C4532 0.929 . S
H4529 C4538 0.929 . S
C4530 H4524 0.930 . S
C4530 C4531 1.367 . S
C4530 C4538 1.378 . S
C4531 C4530 1.367 . S
C4531 C4539 1.433 . S
C4532 H4528 0.929 . S
C4532 C4534 1.378 . S
C4532 C4536 1.350 1_556 S
C4533 C4536 1.463 . S
C4533 C4538 1.350 . S
C4533 N4541 1.427 . S
C4534 H4525 0.930 . S
C4534 C4532 1.378 . S
C4534 C4535 1.367 . S
C4535 C4534 1.367 . S
C4535 C4537 1.433 . S
C4536 C4532 1.350 1_554 S
C4536 C4533 1.463 . S
C4536 N4540 1.427 . S
C4537 H4527 0.929 . S
C4537 C4535 1.433 . S
C4537 N4540 1.384 1_556 S
C4538 H4529 0.929 . S
C4538 C4530 1.378 . S
C4538 C4533 1.350 . S
C4539 H4526 0.929 . S
C4539 C4531 1.433 . S
C4539 N4541 1.384 . S
N4540 C4536 1.427 . S
N4540 C4537 1.384 1_554 S
N4541 C4533 1.427 . S
N4541 C4539 1.384 . S
H4542 C4548 0.930 . S
H4543 C4552 0.930 . S
H4544 C4557 0.929 . S
H4545 C4555 0.929 . S
H4546 C4550 0.929 . S
H4547 C4556 0.929 . S
C4548 H4542 0.930 . S
C4548 C4549 1.367 . S
C4548 C4556 1.378 . S
C4549 C4548 1.367 . S
C4549 C4557 1.433 . S
C4550 H4546 0.929 . S
C4550 C4552 1.378 . S
C4550 C4554 1.350 . S
C4551 C4554 1.463 . S
C4551 C4556 1.350 . S
C4551 N4559 1.427 . S
C4552 H4543 0.930 . S
C4552 C4550 1.378 . S
C4552 C4553 1.367 . S
C4553 C4552 1.367 . S
C4553 C4555 1.433 . S
C4554 C4550 1.350 . S
C4554 C4551 1.463 . S
C4554 N4558 1.427 . S
C4555 H4545 0.929 . S
C4555 C4553 1.433 . S
C4555 N4558 1.384 . S
C4556 H4547 0.929 . S
C4556 C4548 1.378 . S
C4556 C4551 1.350 . S
C4557 H4544 0.929 . S
C4557 C4549 1.433 . S
C4557 N4559 1.384 . S
N4558 C4554 1.427 . S
N4558 C4555 1.384 . S
N4559 C4551 1.427 . S
N4559 C4557 1.384 . S
H4560 C4566 0.930 . S
H4561 C4570 0.930 . S
H4562 C4575 0.929 . S
H4563 C4573 0.929 . S
H4564 C4568 0.929 . S
H4565 C4574 0.929 . S
C4566 H4560 0.930 . S
C4566 C4567 1.367 . S
C4566 C4574 1.378 . S
C4567 C4566 1.367 . S
C4567 C4575 1.433 . S
C4568 H4564 0.929 . S
C4568 C4570 1.378 . S
C4568 C4572 1.350 . S
C4569 C4572 1.463 . S
C4569 C4574 1.350 . S
C4569 N4577 1.427 . S
C4570 H4561 0.930 . S
C4570 C4568 1.378 . S
C4570 C4571 1.367 . S
C4571 C4570 1.367 . S
C4571 C4573 1.433 . S
C4572 C4568 1.350 . S
C4572 C4569 1.463 . S
C4572 N4576 1.427 . S
C4573 H4563 0.929 . S
C4573 C4571 1.433 . S
C4573 N4576 1.384 . S
C4574 H4565 0.929 . S
C4574 C4566 1.378 . S
C4574 C4569 1.350 . S
C4575 H4562 0.929 . S
C4575 C4567 1.433 . S
C4575 N4577 1.384 . S
N4576 C4572 1.427 . S
N4576 C4573 1.384 . S
N4577 C4569 1.427 . S
N4577 C4575 1.384 . S
H4578 C4584 0.930 . S
H4579 C4588 0.930 . S
H4580 C4593 0.929 . S
H4581 C4591 0.929 . S
H4582 C4586 0.929 . S
H4583 C4592 0.929 . S
C4584 H4578 0.930 . S
C4584 C4585 1.367 . S
C4584 C4592 1.378 . S
C4585 C4584 1.367 . S
C4585 C4593 1.433 . S
C4586 H4582 0.929 . S
C4586 C4588 1.378 . S
C4586 C4590 1.350 1_556 S
C4587 C4590 1.463 . S
C4587 C4592 1.350 . S
C4587 N4595 1.427 . S
C4588 H4579 0.930 . S
C4588 C4586 1.378 . S
C4588 C4589 1.367 . S
C4589 C4588 1.367 . S
C4589 C4591 1.433 . S
C4590 C4586 1.350 1_554 S
C4590 C4587 1.463 . S
C4590 N4594 1.432 . S
C4591 H4581 0.929 . S
C4591 C4589 1.433 . S
C4591 N4594 1.354 1_556 S
C4592 H4583 0.929 . S
C4592 C4584 1.378 . S
C4592 C4587 1.350 . S
C4593 H4580 0.929 . S
C4593 C4585 1.433 . S
C4593 N4595 1.384 . S
N4594 C4590 1.432 . S
N4594 C4591 1.354 1_554 S
N4595 C4587 1.427 . S
N4595 C4593 1.384 . S
H4596 C4602 0.930 . S
H4597 C4606 0.930 . S
H4598 C4611 0.929 . S
H4599 C4609 0.929 . S
H4600 C4604 0.929 . S
H4601 C4610 0.929 . S
C4602 H4596 0.930 . S
C4602 C4603 1.367 . S
C4602 C4610 1.378 . S
C4603 C4602 1.367 . S
C4603 C4611 1.433 . S
C4604 H4600 0.929 . S
C4604 C4606 1.378 . S
C4604 C4608 1.350 . S
C4605 C4608 1.463 . S
C4605 C4610 1.350 . S
C4605 N4613 1.427 . S
C4606 H4597 0.930 . S
C4606 C4604 1.378 . S
C4606 C4607 1.367 . S
C4607 C4606 1.367 . S
C4607 C4609 1.433 . S
C4608 C4604 1.350 . S
C4608 C4605 1.463 . S
C4608 N4612 1.427 . S
C4609 H4599 0.929 . S
C4609 C4607 1.433 . S
C4609 N4612 1.384 . S
C4610 H4601 0.929 . S
C4610 C4602 1.378 . S
C4610 C4605 1.350 . S
C4611 H4598 0.929 . S
C4611 C4603 1.433 . S
C4611 N4613 1.384 . S
N4612 C4608 1.427 . S
N4612 C4609 1.384 . S
N4613 C4605 1.427 . S
N4613 C4611 1.384 . S
H4614 C4620 0.930 . S
H4615 C4624 0.930 . S
H4616 C4629 0.929 . S
H4617 C4627 0.929 . S
H4618 C4622 0.929 . S
H4619 C4628 0.929 . S
C4620 H4614 0.930 . S
C4620 C4621 1.367 . S
C4620 C4628 1.378 . S
C4621 C4620 1.367 . S
C4621 C4629 1.433 . S
C4622 H4618 0.929 . S
C4622 C4624 1.378 . S
C4622 C4626 1.350 . S
C4623 C4626 1.463 . S
C4623 C4628 1.350 . S
C4623 N4631 1.427 . S
C4624 H4615 0.930 . S
C4624 C4622 1.378 . S
C4624 C4625 1.367 . S
C4625 C4624 1.367 . S
C4625 C4627 1.433 . S
C4626 C4622 1.350 . S
C4626 C4623 1.463 . S
C4626 N4630 1.427 . S
C4627 H4617 0.929 . S
C4627 C4625 1.433 . S
C4627 N4630 1.384 . S
C4628 H4619 0.929 . S
C4628 C4620 1.378 . S
C4628 C4623 1.350 . S
C4629 H4616 0.929 . S
C4629 C4621 1.433 . S
C4629 N4631 1.384 . S
N4630 C4626 1.427 . S
N4630 C4627 1.384 . S
N4631 C4623 1.427 . S
N4631 C4629 1.384 . S
H4632 C4638 0.930 . S
H4633 C4642 0.930 . S
H4634 C4647 0.929 . S
H4635 C4645 0.929 . S
H4636 C4640 0.929 . S
H4637 C4646 0.929 . S
C4638 H4632 0.930 . S
C4638 C4639 1.367 . S
C4638 C4646 1.378 . S
C4639 C4638 1.367 . S
C4639 C4647 1.433 . S
C4640 H4636 0.929 . S
C4640 C4642 1.378 . S
C4640 C4644 1.350 . S
C4641 C4644 1.463 . S
C4641 C4646 1.350 . S
C4641 N4649 1.427 . S
C4642 H4633 0.930 . S
C4642 C4640 1.378 . S
C4642 C4643 1.367 . S
C4643 C4642 1.367 . S
C4643 C4645 1.433 . S
C4644 C4640 1.350 . S
C4644 C4641 1.463 . S
C4644 N4648 1.427 . S
C4645 H4635 0.929 . S
C4645 C4643 1.433 . S
C4645 N4648 1.384 . S
C4646 H4637 0.929 . S
C4646 C4638 1.378 . S
C4646 C4641 1.350 . S
C4647 H4634 0.929 . S
C4647 C4639 1.433 . S
C4647 N4649 1.384 . S
N4648 C4644 1.427 . S
N4648 C4645 1.384 . S
N4649 C4641 1.427 . S
N4649 C4647 1.384 . S
H4650 C4656 0.930 . S
H4651 C4660 0.930 . S
H4652 C4665 0.929 . S
H4653 C4663 0.929 . S
H4654 C4658 0.929 . S
H4655 C4664 0.929 . S
C4656 H4650 0.930 . S
C4656 C4657 1.367 . S
C4656 C4664 1.378 . S
C4657 C4656 1.367 . S
C4657 C4665 1.433 . S
C4658 H4654 0.929 . S
C4658 C4660 1.378 . S
C4658 C4662 1.350 . S
C4659 C4662 1.463 . S
C4659 C4664 1.350 . S
C4659 N4667 1.427 . S
C4660 H4651 0.930 . S
C4660 C4658 1.378 . S
C4660 C4661 1.367 . S
C4661 C4660 1.367 . S
C4661 C4663 1.433 . S
C4662 C4658 1.350 . S
C4662 C4659 1.463 . S
C4662 N4666 1.427 . S
C4663 H4653 0.929 . S
C4663 C4661 1.433 . S
C4663 N4666 1.384 . S
C4664 H4655 0.929 . S
C4664 C4656 1.378 . S
C4664 C4659 1.350 . S
C4665 H4652 0.929 . S
C4665 C4657 1.433 . S
C4665 N4667 1.384 . S
N4666 C4662 1.427 . S
N4666 C4663 1.384 . S
N4667 C4659 1.427 . S
N4667 C4665 1.384 . S
H4668 C4674 0.930 . S
H4669 C4678 0.930 . S
H4670 C4683 0.929 . S
H4671 C4681 0.929 . S
H4672 C4676 0.929 1_565 S
H4673 C4682 0.929 . S
C4674 H4668 0.930 . S
C4674 C4675 1.367 . S
C4674 C4682 1.378 . S
C4675 C4674 1.367 . S
C4675 C4683 1.433 . S
C4676 H4672 0.929 1_545 S
C4676 C4678 1.378 . S
C4676 C4680 1.350 . S
C4677 C4680 1.463 1_565 S
C4677 C4682 1.350 . S
C4677 N4685 1.427 . S
C4678 H4669 0.930 . S
C4678 C4676 1.378 . S
C4678 C4679 1.367 . S
C4679 C4678 1.367 . S
C4679 C4681 1.433 . S
C4680 C4676 1.350 . S
C4680 C4677 1.463 1_545 S
C4680 N4684 1.427 . S
C4681 H4671 0.929 . S
C4681 C4679 1.433 . S
C4681 N4684 1.384 . S
C4682 H4673 0.929 . S
C4682 C4674 1.378 . S
C4682 C4677 1.350 . S
C4683 H4670 0.929 . S
C4683 C4675 1.433 . S
C4683 N4685 1.384 . S
N4684 C4680 1.427 . S
N4684 C4681 1.384 . S
N4685 C4677 1.427 . S
N4685 C4683 1.384 . S
H4686 C4692 0.930 . S
H4687 C4696 0.930 . S
H4688 C4701 0.929 . S
H4689 C4699 0.929 . S
H4690 C4694 0.929 . S
H4691 C4700 0.929 . S
C4692 H4686 0.930 . S
C4692 C4693 1.367 . S
C4692 C4700 1.378 . S
C4693 C4692 1.367 . S
C4693 C4701 1.433 . S
C4694 H4690 0.929 . S
C4694 C4696 1.378 . S
C4694 C4698 1.350 . S
C4695 C4698 1.463 . S
C4695 C4700 1.350 . S
C4695 N4703 1.427 . S
C4696 H4687 0.930 . S
C4696 C4694 1.378 . S
C4696 C4697 1.367 . S
C4697 C4696 1.367 . S
C4697 C4699 1.433 . S
C4698 C4694 1.350 . S
C4698 C4695 1.463 . S
C4698 N4702 1.427 . S
C4699 H4689 0.929 . S
C4699 C4697 1.433 . S
C4699 N4702 1.384 . S
C4700 H4691 0.929 . S
C4700 C4692 1.378 . S
C4700 C4695 1.350 . S
C4701 H4688 0.929 . S
C4701 C4693 1.433 . S
C4701 N4703 1.384 . S
N4702 C4698 1.427 . S
N4702 C4699 1.384 . S
N4703 C4695 1.427 . S
N4703 C4701 1.384 . S
H4704 C4710 0.930 . S
H4705 C4714 0.930 . S
H4706 C4719 0.929 . S
H4707 C4717 0.929 . S
H4708 C4712 0.929 . S
H4709 C4718 0.929 . S
C4710 H4704 0.930 . S
C4710 C4711 1.367 . S
C4710 C4718 1.378 . S
C4711 C4710 1.367 . S
C4711 C4719 1.433 . S
C4712 H4708 0.929 . S
C4712 C4714 1.378 . S
C4712 C4716 1.350 . S
C4713 C4716 1.463 . S
C4713 C4718 1.350 . S
C4713 N4721 1.427 . S
C4714 H4705 0.930 . S
C4714 C4712 1.378 . S
C4714 C4715 1.367 . S
C4715 C4714 1.367 . S
C4715 C4717 1.433 . S
C4716 C4712 1.350 . S
C4716 C4713 1.463 . S
C4716 N4720 1.427 . S
C4717 H4707 0.929 . S
C4717 C4715 1.433 . S
C4717 N4720 1.384 . S
C4718 H4709 0.929 . S
C4718 C4710 1.378 . S
C4718 C4713 1.350 . S
C4719 H4706 0.929 . S
C4719 C4711 1.433 . S
C4719 N4721 1.384 . S
N4720 C4716 1.427 . S
N4720 C4717 1.384 . S
N4721 C4713 1.427 . S
N4721 C4719 1.384 . S
H4722 C4728 0.930 . S
H4723 C4732 0.930 . S
H4724 C4737 0.929 . S
H4725 C4735 0.929 . S
H4726 C4730 0.929 . S
H4727 C4736 0.929 . S
C4728 H4722 0.930 . S
C4728 C4729 1.367 . S
C4728 C4736 1.378 . S
C4729 C4728 1.367 . S
C4729 C4737 1.433 . S
C4730 H4726 0.929 . S
C4730 C4732 1.378 . S
C4730 C4734 1.350 . S
C4731 C4734 1.463 . S
C4731 C4736 1.350 . S
C4731 N4739 1.427 . S
C4732 H4723 0.930 . S
C4732 C4730 1.378 . S
C4732 C4733 1.367 . S
C4733 C4732 1.367 . S
C4733 C4735 1.433 . S
C4734 C4730 1.350 . S
C4734 C4731 1.463 . S
C4734 N4738 1.427 . S
C4735 H4725 0.929 . S
C4735 C4733 1.433 . S
C4735 N4738 1.384 . S
C4736 H4727 0.929 . S
C4736 C4728 1.378 . S
C4736 C4731 1.350 . S
C4737 H4724 0.929 . S
C4737 C4729 1.433 . S
C4737 N4739 1.384 . S
N4738 C4734 1.427 . S
N4738 C4735 1.384 . S
N4739 C4731 1.427 . S
N4739 C4737 1.384 . S
H4740 C4746 0.930 . S
H4741 C4750 0.930 . S
H4742 C4755 0.929 . S
H4743 C4753 0.929 . S
H4744 C4748 0.929 . S
H4745 C4754 0.929 . S
C4746 H4740 0.930 . S
C4746 C4747 1.367 . S
C4746 C4754 1.378 . S
C4747 C4746 1.367 . S
C4747 C4755 1.433 . S
C4748 H4744 0.929 . S
C4748 C4750 1.378 . S
C4748 C4752 1.350 . S
C4749 C4752 1.463 1_545 S
C4749 C4754 1.350 . S
C4749 N4757 1.427 . S
C4750 H4741 0.930 . S
C4750 C4748 1.378 . S
C4750 C4751 1.367 . S
C4751 C4750 1.367 . S
C4751 C4753 1.433 . S
C4752 C4748 1.350 . S
C4752 C4749 1.463 1_565 S
C4752 N4756 1.427 . S
C4753 H4743 0.929 . S
C4753 C4751 1.433 . S
C4753 N4756 1.384 . S
C4754 H4745 0.929 . S
C4754 C4746 1.378 . S
C4754 C4749 1.350 . S
C4755 H4742 0.929 . S
C4755 C4747 1.433 . S
C4755 N4757 1.384 . S
N4756 C4752 1.427 . S
N4756 C4753 1.384 . S
N4757 C4749 1.427 . S
N4757 C4755 1.384 . S
H4758 C4764 0.930 . S
H4759 C4768 0.930 . S
H4760 C4773 0.929 . S
H4761 C4771 0.929 . S
H4762 C4766 0.929 . S
H4763 C4772 0.929 . S
C4764 H4758 0.930 . S
C4764 C4765 1.367 . S
C4764 C4772 1.378 . S
C4765 C4764 1.367 . S
C4765 C4773 1.433 . S
C4766 H4762 0.929 . S
C4766 C4768 1.378 . S
C4766 C4770 1.350 . S
C4767 C4770 1.463 . S
C4767 C4772 1.350 . S
C4767 N4775 1.427 . S
C4768 H4759 0.930 . S
C4768 C4766 1.378 . S
C4768 C4769 1.367 . S
C4769 C4768 1.367 . S
C4769 C4771 1.433 . S
C4770 C4766 1.350 . S
C4770 C4767 1.463 . S
C4770 N4774 1.427 . S
C4771 H4761 0.929 . S
C4771 C4769 1.433 . S
C4771 N4774 1.384 . S
C4772 H4763 0.929 . S
C4772 C4764 1.378 . S
C4772 C4767 1.350 . S
C4773 H4760 0.929 . S
C4773 C4765 1.433 . S
C4773 N4775 1.384 . S
N4774 C4770 1.427 . S
N4774 C4771 1.384 . S
N4775 C4767 1.427 . S
N4775 C4773 1.384 . S
H4776 C4782 0.930 . S
H4777 C4786 0.930 . S
H4778 C4791 0.929 . S
H4779 C4789 0.929 . S
H4780 C4784 0.929 . S
H4781 C4790 0.929 . S
C4782 H4776 0.930 . S
C4782 C4783 1.367 . S
C4782 C4790 1.378 . S
C4783 C4782 1.367 . S
C4783 C4791 1.433 . S
C4784 H4780 0.929 . S
C4784 C4786 1.378 . S
C4784 C4788 1.350 . S
C4785 C4788 1.463 . S
C4785 C4790 1.350 . S
C4785 N4793 1.427 . S
C4786 H4777 0.930 . S
C4786 C4784 1.378 . S
C4786 C4787 1.367 . S
C4787 C4786 1.367 . S
C4787 C4789 1.433 . S
C4788 C4784 1.350 . S
C4788 C4785 1.463 . S
C4788 N4792 1.427 . S
C4789 H4779 0.929 . S
C4789 C4787 1.433 . S
C4789 N4792 1.384 . S
C4790 H4781 0.929 . S
C4790 C4782 1.378 . S
C4790 C4785 1.350 . S
C4791 H4778 0.929 . S
C4791 C4783 1.433 . S
C4791 N4793 1.384 . S
N4792 C4788 1.427 . S
N4792 C4789 1.384 . S
N4793 C4785 1.427 . S
N4793 C4791 1.384 . S
H4794 C4800 0.930 . S
H4795 C4804 0.930 . S
H4796 C4809 0.929 . S
H4797 C4807 0.929 . S
H4798 C4802 0.929 . S
H4799 C4808 0.929 . S
C4800 H4794 0.930 . S
C4800 C4801 1.367 . S
C4800 C4808 1.378 . S
C4801 C4800 1.367 . S
C4801 C4809 1.433 . S
C4802 H4798 0.929 . S
C4802 C4804 1.378 . S
C4802 C4806 1.350 . S
C4803 C4806 1.463 . S
C4803 C4808 1.350 . S
C4803 N4811 1.427 . S
C4804 H4795 0.930 . S
C4804 C4802 1.378 . S
C4804 C4805 1.367 . S
C4805 C4804 1.367 . S
C4805 C4807 1.433 . S
C4806 C4802 1.350 . S
C4806 C4803 1.463 . S
C4806 N4810 1.427 . S
C4807 H4797 0.929 . S
C4807 C4805 1.433 . S
C4807 N4810 1.384 . S
C4808 H4799 0.929 . S
C4808 C4800 1.378 . S
C4808 C4803 1.350 . S
C4809 H4796 0.929 . S
C4809 C4801 1.433 . S
C4809 N4811 1.384 . S
N4810 C4806 1.427 . S
N4810 C4807 1.384 . S
N4811 C4803 1.427 . S
N4811 C4809 1.384 . S
H4812 C4818 0.930 . S
H4813 C4822 0.930 . S
H4814 C4827 0.929 . S
H4815 C4825 0.929 . S
H4816 C4820 0.929 . S
H4817 C4826 0.929 . S
C4818 H4812 0.930 . S
C4818 C4819 1.367 . S
C4818 C4826 1.378 . S
C4819 C4818 1.367 . S
C4819 C4827 1.433 . S
C4820 H4816 0.929 . S
C4820 C4822 1.378 . S
C4820 C4824 1.350 . S
C4821 C4824 1.463 . S
C4821 C4826 1.350 . S
C4821 N4829 1.427 . S
C4822 H4813 0.930 . S
C4822 C4820 1.378 . S
C4822 C4823 1.367 . S
C4823 C4822 1.367 . S
C4823 C4825 1.433 . S
C4824 C4820 1.350 . S
C4824 C4821 1.463 . S
C4824 N4828 1.427 . S
C4825 H4815 0.929 . S
C4825 C4823 1.433 . S
C4825 N4828 1.384 . S
C4826 H4817 0.929 . S
C4826 C4818 1.378 . S
C4826 C4821 1.350 . S
C4827 H4814 0.929 . S
C4827 C4819 1.433 . S
C4827 N4829 1.384 . S
N4828 C4824 1.427 . S
N4828 C4825 1.384 . S
N4829 C4821 1.427 . S
N4829 C4827 1.384 . S
H4830 C4836 0.930 . S
H4831 C4840 0.930 . S
H4832 C4845 0.929 . S
H4833 C4843 0.929 . S
H4834 C4838 0.929 . S
H4835 C4844 0.929 . S
C4836 H4830 0.930 . S
C4836 C4837 1.367 . S
C4836 C4844 1.378 . S
C4837 C4836 1.367 . S
C4837 C4845 1.433 . S
C4838 H4834 0.929 . S
C4838 C4840 1.378 . S
C4838 C4842 1.350 . S
C4839 C4842 1.463 . S
C4839 C4844 1.350 . S
C4839 N4847 1.427 . S
C4840 H4831 0.930 . S
C4840 C4838 1.378 . S
C4840 C4841 1.367 . S
C4841 C4840 1.367 . S
C4841 C4843 1.433 . S
C4842 C4838 1.350 . S
C4842 C4839 1.463 . S
C4842 N4846 1.427 . S
C4843 H4833 0.929 . S
C4843 C4841 1.433 . S
C4843 N4846 1.384 . S
C4844 H4835 0.929 . S
C4844 C4836 1.378 . S
C4844 C4839 1.350 . S
C4845 H4832 0.929 . S
C4845 C4837 1.433 . S
C4845 N4847 1.384 . S
N4846 C4842 1.427 . S
N4846 C4843 1.384 . S
N4847 C4839 1.427 . S
N4847 C4845 1.384 . S
H4848 C4854 0.930 . S
H4849 C4858 0.930 . S
H4850 C4863 0.929 . S
H4851 C4861 0.929 . S
H4852 C4856 0.929 . S
H4853 C4862 0.929 . S
C4854 H4848 0.930 . S
C4854 C4855 1.367 . S
C4854 C4862 1.378 . S
C4855 C4854 1.367 . S
C4855 C4863 1.433 . S
C4856 H4852 0.929 . S
C4856 C4858 1.378 . S
C4856 C4860 1.350 . S
C4857 C4860 1.463 1_565 S
C4857 C4862 1.350 . S
C4857 N4865 1.427 . S
C4858 H4849 0.930 . S
C4858 C4856 1.378 . S
C4858 C4859 1.367 . S
C4859 C4858 1.367 . S
C4859 C4861 1.433 . S
C4860 C4856 1.350 . S
C4860 C4857 1.463 1_545 S
C4860 N4864 1.427 . S
C4861 H4851 0.929 . S
C4861 C4859 1.433 . S
C4861 N4864 1.384 . S
C4862 H4853 0.929 . S
C4862 C4854 1.378 . S
C4862 C4857 1.350 . S
C4863 H4850 0.929 . S
C4863 C4855 1.433 . S
C4863 N4865 1.384 . S
N4864 C4860 1.427 . S
N4864 C4861 1.384 . S
N4865 C4857 1.427 . S
N4865 C4863 1.384 . S
H4866 C4872 0.930 . S
H4867 C4876 0.930 . S
H4868 C4881 0.929 . S
H4869 C4879 0.929 . S
H4870 C4874 0.929 . S
H4871 C4880 0.929 . S
C4872 H4866 0.930 . S
C4872 C4873 1.367 . S
C4872 C4880 1.378 . S
C4873 C4872 1.367 . S
C4873 C4881 1.433 . S
C4874 H4870 0.929 . S
C4874 C4876 1.378 . S
C4874 C4878 1.350 . S
C4875 C4878 1.463 . S
C4875 C4880 1.350 . S
C4875 N4883 1.427 . S
C4876 H4867 0.930 . S
C4876 C4874 1.378 . S
C4876 C4877 1.367 . S
C4877 C4876 1.367 . S
C4877 C4879 1.433 . S
C4878 C4874 1.350 . S
C4878 C4875 1.463 . S
C4878 N4882 1.427 . S
C4879 H4869 0.929 . S
C4879 C4877 1.433 . S
C4879 N4882 1.384 . S
C4880 H4871 0.929 . S
C4880 C4872 1.378 . S
C4880 C4875 1.350 . S
C4881 H4868 0.929 . S
C4881 C4873 1.433 . S
C4881 N4883 1.384 . S
N4882 C4878 1.427 . S
N4882 C4879 1.384 . S
N4883 C4875 1.427 . S
N4883 C4881 1.384 . S
H4884 C4890 0.930 . S
H4885 C4894 0.930 . S
H4886 C4899 0.929 . S
H4887 C4897 0.929 . S
H4888 C4892 0.929 . S
H4889 C4898 0.929 . S
C4890 H4884 0.930 . S
C4890 C4891 1.367 . S
C4890 C4898 1.378 . S
C4891 C4890 1.367 . S
C4891 C4899 1.433 . S
C4892 H4888 0.929 . S
C4892 C4894 1.378 . S
C4892 C4896 1.350 . S
C4893 C4896 1.463 . S
C4893 C4898 1.350 . S
C4893 N4901 1.427 . S
C4894 H4885 0.930 . S
C4894 C4892 1.378 . S
C4894 C4895 1.367 . S
C4895 C4894 1.367 . S
C4895 C4897 1.433 . S
C4896 C4892 1.350 . S
C4896 C4893 1.463 . S
C4896 N4900 1.427 . S
C4897 H4887 0.929 . S
C4897 C4895 1.433 . S
C4897 N4900 1.384 . S
C4898 H4889 0.929 . S
C4898 C4890 1.378 . S
C4898 C4893 1.350 . S
C4899 H4886 0.929 . S
C4899 C4891 1.433 . S
C4899 N4901 1.384 . S
N4900 C4896 1.427 . S
N4900 C4897 1.384 . S
N4901 C4893 1.427 . S
N4901 C4899 1.384 . S
H4902 C4908 0.930 . S
H4903 C4912 0.930 . S
H4904 C4917 0.929 . S
H4905 C4915 0.929 . S
H4906 C4910 0.929 . S
H4907 C4916 0.929 . S
C4908 H4902 0.930 . S
C4908 C4909 1.367 . S
C4908 C4916 1.378 . S
C4909 C4908 1.367 . S
C4909 C4917 1.433 . S
C4910 H4906 0.929 . S
C4910 C4912 1.378 . S
C4910 C4914 1.350 . S
C4911 C4914 1.463 . S
C4911 C4916 1.350 . S
C4911 N4919 1.427 . S
C4912 H4903 0.930 . S
C4912 C4910 1.378 . S
C4912 C4913 1.367 . S
C4913 C4912 1.367 . S
C4913 C4915 1.433 . S
C4914 C4910 1.350 . S
C4914 C4911 1.463 . S
C4914 N4918 1.427 . S
C4915 H4905 0.929 . S
C4915 C4913 1.433 . S
C4915 N4918 1.384 . S
C4916 H4907 0.929 . S
C4916 C4908 1.378 . S
C4916 C4911 1.350 . S
C4917 H4904 0.929 . S
C4917 C4909 1.433 . S
C4917 N4919 1.384 . S
N4918 C4914 1.427 . S
N4918 C4915 1.384 . S
N4919 C4911 1.427 . S
N4919 C4917 1.384 . S
H4920 C4926 0.930 . S
H4921 C4930 0.930 . S
H4922 C4935 0.929 . S
H4923 C4933 0.929 . S
H4924 C4928 0.929 . S
H4925 C4934 0.929 . S
C4926 H4920 0.930 . S
C4926 C4927 1.367 . S
C4926 C4934 1.378 . S
C4927 C4926 1.367 . S
C4927 C4935 1.433 . S
C4928 H4924 0.929 . S
C4928 C4930 1.378 . S
C4928 C4932 1.350 . S
C4929 C4932 1.463 . S
C4929 C4934 1.350 . S
C4929 N4937 1.427 . S
C4930 H4921 0.930 . S
C4930 C4928 1.378 . S
C4930 C4931 1.367 . S
C4931 C4930 1.367 . S
C4931 C4933 1.433 . S
C4932 C4928 1.350 . S
C4932 C4929 1.463 . S
C4932 N4936 1.427 . S
C4933 H4923 0.929 . S
C4933 C4931 1.433 . S
C4933 N4936 1.384 . S
C4934 H4925 0.929 . S
C4934 C4926 1.378 . S
C4934 C4929 1.350 . S
C4935 H4922 0.929 . S
C4935 C4927 1.433 . S
C4935 N4937 1.384 . S
N4936 C4932 1.427 . S
N4936 C4933 1.384 . S
N4937 C4929 1.427 . S
N4937 C4935 1.384 . S
H4938 C4944 0.930 . S
H4939 C4948 0.930 . S
H4940 C4953 0.929 . S
H4941 C4951 0.929 . S
H4942 C4946 0.929 . S
H4943 C4952 0.929 . S
C4944 H4938 0.930 . S
C4944 C4945 1.367 . S
C4944 C4952 1.378 . S
C4945 C4944 1.367 . S
C4945 C4953 1.433 . S
C4946 H4942 0.929 . S
C4946 C4948 1.378 . S
C4946 C4950 1.350 . S
C4947 C4950 1.463 . S
C4947 C4952 1.350 . S
C4947 N4955 1.427 . S
C4948 H4939 0.930 . S
C4948 C4946 1.378 . S
C4948 C4949 1.367 . S
C4949 C4948 1.367 . S
C4949 C4951 1.433 . S
C4950 C4946 1.350 . S
C4950 C4947 1.463 . S
C4950 N4954 1.427 . S
C4951 H4941 0.929 . S
C4951 C4949 1.433 . S
C4951 N4954 1.384 . S
C4952 H4943 0.929 . S
C4952 C4944 1.378 . S
C4952 C4947 1.350 . S
C4953 H4940 0.929 . S
C4953 C4945 1.433 . S
C4953 N4955 1.384 . S
N4954 C4950 1.427 . S
N4954 C4951 1.384 . S
N4955 C4947 1.427 . S
N4955 C4953 1.384 . S
H4956 C4962 0.930 . S
H4957 C4966 0.930 . S
H4958 C4971 0.929 . S
H4959 C4969 0.929 . S
H4960 C4964 0.929 . S
H4961 C4970 0.929 . S
C4962 H4956 0.930 . S
C4962 C4963 1.367 . S
C4962 C4970 1.378 . S
C4963 C4962 1.367 . S
C4963 C4971 1.433 . S
C4964 H4960 0.929 . S
C4964 C4966 1.378 . S
C4964 C4968 1.350 . S
C4965 C4968 1.463 . S
C4965 C4970 1.350 . S
C4965 N4973 1.427 . S
C4966 H4957 0.930 . S
C4966 C4964 1.378 . S
C4966 C4967 1.367 . S
C4967 C4966 1.367 . S
C4967 C4969 1.433 . S
C4968 C4964 1.350 . S
C4968 C4965 1.463 . S
C4968 N4972 1.427 . S
C4969 H4959 0.929 . S
C4969 C4967 1.433 . S
C4969 N4972 1.384 . S
C4970 H4961 0.929 . S
C4970 C4962 1.378 . S
C4970 C4965 1.350 . S
C4971 H4958 0.929 . S
C4971 C4963 1.433 . S
C4971 N4973 1.384 . S
N4972 C4968 1.427 . S
N4972 C4969 1.384 . S
N4973 C4965 1.427 . S
N4973 C4971 1.384 . S
H4974 C4980 0.930 . S
H4975 C4984 0.930 . S
H4976 C4989 0.929 . S
H4977 C4987 0.929 . S
H4978 C4982 0.929 . S
H4979 C4988 0.929 . S
C4980 H4974 0.930 . S
C4980 C4981 1.367 . S
C4980 C4988 1.378 . S
C4981 C4980 1.367 . S
C4981 C4989 1.433 . S
C4982 H4978 0.929 . S
C4982 C4984 1.378 . S
C4982 C4986 1.350 . S
C4983 C4986 1.463 . S
C4983 C4988 1.350 . S
C4983 N4991 1.427 . S
C4984 H4975 0.930 . S
C4984 C4982 1.378 . S
C4984 C4985 1.367 . S
C4985 C4984 1.367 . S
C4985 C4987 1.433 . S
C4986 C4982 1.350 . S
C4986 C4983 1.463 . S
C4986 N4990 1.427 . S
C4987 H4977 0.929 . S
C4987 C4985 1.433 . S
C4987 N4990 1.384 . S
C4988 H4979 0.929 . S
C4988 C4980 1.378 . S
C4988 C4983 1.350 . S
C4989 H4976 0.929 . S
C4989 C4981 1.433 . S
C4989 N4991 1.384 . S
N4990 C4986 1.427 . S
N4990 C4987 1.384 . S
N4991 C4983 1.427 . S
N4991 C4989 1.384 . S
C1543 C500 2.008 . S
C1547 C18 1.870 . S
C1561 C596 2.003 . S
C1565 C50 1.841 . S
C1579 C81 1.943 . S
C1583 C438 1.974 . S
C1597 C469 2.206 . S
C1601 C113 2.183 . S
C1615 C789 2.170 . S
C1619 C144 2.323 . S
C1633 C1110 1.783 . S
C1637 C183 1.880 . S
C1651 C215 1.933 . S
C1655 C1427 1.917 . S
C1669 C1139 1.897 . S
C1673 C240 1.937 . S
C1687 C279 1.897 . S
C1691 C84 1.937 . S
C1705 C305 2.167 . S
C1709 C116 2.322 . S
C1723 C338 1.775 . S
C1727 C19 1.874 . S
C1741 C375 1.924 . S
C1745 C51 1.927 . S
C1759 C214 1.844 . S
C1763 C272 2.004 . S
C1777 C245 1.958 . S
C1781 C306 1.971 . S
C1795 C337 2.198 . S
C1799 C149 2.191 . S
C1813 C182 1.871 . S
C1817 C368 2.007 . S
C1831 C402 1.972 . S
C1835 C949 2.021 . S
C1849 C278 1.749 . S
C1853 C439 1.849 . S
C1867 C308 2.118 . S
C1871 C464 2.121 . S
C1885 C339 2.013 . S
C1889 C497 1.961 . S
C1903 C1334 1.972 . S
C1907 C529 2.012 . S
C1921 C560 2.118 . S
C1925 C1044 2.122 . S
C1939 C853 1.953 . S
C1943 C471 2.018 . S
C1957 C915 1.848 . S
C1961 C594 1.745 . S
C1975 C848 2.007 . S
C1979 C246 1.871 . S
C1993 C944 2.005 . S
C1997 C630 1.847 . S
C2011 C818 1.976 . S
C2015 C661 1.943 . S
C2029 C691 1.880 . S
C2033 C1042 1.789 . S
C2047 C1463 1.917 . S
C2051 C723 1.933 . S
C2065 C1271 1.889 . S
C2069 C20 1.938 . S
C2083 C755 1.898 . S
C2087 C656 1.936 . S
C2101 C470 1.789 . S
C2105 C247 1.876 . S
C2119 C403 1.917 . S
C2123 C631 1.933 . S
C2137 C722 1.846 . S
C2141 C756 2.005 . S
C2155 C790 1.977 . S
C2159 C17 1.956 . S
C2173 C404 2.003 . S
C2177 C690 1.854 . S
C2191 C593 2.022 . S
C2195 C374 1.961 . S
C2209 C754 1.743 . S
C2213 C819 1.847 . S
C2227 C340 2.121 . S
C2231 C784 2.119 . S
C2245 C885 2.023 . S
C2249 C1362 1.966 . S
C2263 C916 2.119 . S
C2267 C1104 2.121 . S
C2281 C567 1.849 . S
C2285 C950 1.736 . S
C2299 C114 1.833 . S
C2303 C1140 2.003 . S
C2317 C1078 1.981 . S
C2321 C977 1.951 . S
C2335 C49 2.186 . S
C2339 C1109 2.203 . S
C2353 C624 2.321 . S
C2357 C565 2.168 . S
C2371 C1363 1.918 . S
C2375 C1015 1.932 . S
C2389 C595 1.888 . S
C2393 C176 1.937 . S
C2407 C887 1.892 . S
C2411 C980 1.936 . S
C2425 C913 2.166 . S
C2429 C52 2.322 . S
C2443 C855 1.924 . S
C2447 C115 1.928 . S
C2461 C1014 1.834 . S
C2465 C880 2.003 . S
C2479 C181 1.945 . S
C2483 C914 1.981 . S
C2497 C629 2.183 . S
C2501 C1041 2.205 . S
C2515 C1269 2.019 . S
C2519 C498 1.974 . S
C2533 C886 1.753 . S
C2537 C1079 1.855 . S
C2551 C1043 2.016 . S
C2555 C401 1.954 . S
C2569 C1462 1.970 . S
C2573 C753 2.011 . S
C2587 C1111 2.018 . S
C2591 C373 1.957 . S
C2605 C1138 1.752 . S
C2609 C307 1.856 . S
C2623 C1264 2.005 . S
C2627 C150 1.841 . S
C2641 C1234 1.978 . S
C2645 C1173 1.943 . S
C2659 C1335 1.925 . S
C2663 C1203 1.927 . S
C2677 C951 1.888 . S
C2681 C692 1.937 . S
C2695 C1168 1.938 . S
C2699 C531 1.890 . S
C2713 C151 1.932 . S
C2717 C499 1.918 . S
C2731 C532 2.002 . S
C2735 C1202 1.831 . S
C2749 C689 1.944 . S
C2753 C566 1.980 . S
C2767 C854 1.967 . S
C2771 C1137 2.023 . S
C2785 C530 1.741 . S
C2789 C1235 1.847 . S
C2803 C1426 1.961 . S
C2807 C277 2.017 . S
C2821 C791 1.857 . S
C2825 C1270 1.747 . S
C2839 C1428 2.005 . S
C2843 C82 1.857 . S
C2857 C1397 2.195 . S
C2861 C721 2.194 . S
C2875 C208 2.322 . S
C2879 C437 2.176 . S
C2893 C1526 1.790 . S
C2897 C1175 1.879 . S
C2911 C724 2.322 . S
C2915 C817 2.169 . S
C2929 C83 1.878 . S
C2933 C1298 1.778 . S
C2947 C213 2.187 . S
C2951 C1297 2.202 . S
C2965 C1174 1.855 . S
C2969 C1328 2.004 . S
C2983 C820 2.119 . S
C2987 C1392 2.121 . S
C3001 C1425 1.957 . S
C3005 C1299 2.018 . S
C3019 C1492 2.123 . S
C3023 C1072 2.117 . S
C3037 C1461 1.964 . S
C3041 C1399 2.012 . S
C3055 C662 1.871 . S
C3059 C1456 2.008 . S
C3073 C979 1.873 . S
C3077 C1490 1.782 . S
C3091 C663 1.873 . S
C3095 C1398 1.779 . S
C3109 C978 1.856 . S
C3113 C1364 2.005 . S
C3127 C432 2.119 . S
C3131 C1300 2.121 . S
C3145 C1520 2.123 . S
C3149 C1236 2.117 . S
C3163 C1525 2.204 . S
C3167 C1201 2.185 . S
C3181 C1008 2.322 . S
C3185 C1077 2.175 . S
C3199 C1204 2.322 . S
C3203 C1233 2.172 . S
C3217 C1013 2.184 . S
C3221 C1489 2.204 . S
C3235 C1361 1.958 . S
C3239 C1491 2.013 . S
C3253 C1333 1.962 . S
C3257 C1527 2.012 . S
C3271 C1142 1.316 . S
C3275 C21 1.251 . S
C3289 C788 1.427 . S
C3293 C53 1.461 . S
C3307 C1107 0.666 . S
C3311 C86 0.613 . S
C3325 C1430 0.922 . S
C3329 C118 0.922 . S
C3343 C147 1.204 . S
C3347 C597 1.211 . S
C3361 C180 1.315 . S
C3365 C435 1.265 . S
C3379 C212 2.195 . S
C3383 C468 2.172 . S
C3397 C243 1.321 . S
C3401 C501 1.338 . S
C3415 C276 1.268 . S
C3419 C1459 1.347 . S
C3433 C947 0.737 . S
C3437 C310 0.744 . S
C3451 C1237 1.460 . S
C3455 C341 1.473 . S
C3469 C1494 1.740 . S
C3473 C372 1.612 . S
C3487 C275 0.754 . S
C3491 C1238 0.758 . S
C3505 C309 1.468 . S
C3509 C1493 1.461 . S
C3523 C342 1.740 . S
C3527 C1460 1.601 . S
C3541 C948 1.266 . S
C3545 C371 1.348 . S
C3559 C179 1.304 . S
C3563 C405 1.337 . S
C3577 C436 1.413 . S
C3581 C1205 1.471 . S
C3595 C467 0.697 . S
C3599 C982 0.630 . S
C3613 C502 0.923 . S
C3617 C726 0.925 . S
C3631 C534 1.319 . S
C3635 C981 1.244 . S
C3649 C563 1.271 . S
C3653 C660 1.304 . S
C3667 C1266 1.313 . S
C3671 C241 1.241 . S
C3685 C304 1.411 . S
C3689 C625 1.471 . S
C3703 C1047 0.702 . S
C3707 C658 0.621 . S
C3721 C1458 0.924 . S
C3725 C146 0.925 . S
C3739 C945 1.210 . S
C3743 C119 1.223 . S
C3757 C823 1.252 . S
C3761 C688 1.321 . S
C3775 C720 2.187 . S
C3779 C336 2.182 . S
C3793 C23 1.313 . S
C3797 C849 1.348 . S
C3811 C1431 1.346 . S
C3815 C752 1.256 . S
C3829 C786 0.744 . S
C3833 C599 0.745 . S
C3847 C465 1.473 . S
C3851 C1073 1.460 . S
C3865 C1522 1.741 . S
C3869 C400 1.615 . S
C3883 C759 0.731 . S
C3887 C1074 0.751 . S
C3901 C785 1.463 . S
C3905 C1521 1.463 . S
C3919 C466 1.739 . S
C3923 C1424 1.600 . S
C3937 C407 1.345 . S
C3941 C592 1.257 . S
C3955 C695 1.308 . S
C3959 C369 1.335 . S
C3973 C816 1.409 . S
C3977 C1009 1.473 . S
C3991 C1170 0.617 . S
C3995 C343 0.689 . S
C4009 C210 0.923 . S
C4013 C850 0.923 . S
C4027 C1169 1.256 . S
C4031 C882 1.322 . S
C4045 C80 1.320 . S
C4049 C919 1.248 . S
C4063 C598 1.321 . S
C4067 C693 1.252 . S
C4081 C564 1.413 . S
C4085 C117 1.469 . S
C4099 C1366 0.924 . S
C4103 C54 0.925 . S
C4117 C627 1.224 . S
C4121 C1141 1.200 . S
C4135 C1075 1.248 . S
C4139 C244 1.320 . S
C4153 C1108 2.172 . S
C4157 C1012 2.193 . S
C4171 C884 1.274 . S
C4175 C1331 1.343 . S
C4189 C918 0.749 . S
C4193 C1267 0.730 . S
C4207 C1045 1.462 . S
C4211 C821 1.465 . S
C4225 C852 1.603 . S
C4229 C1302 1.739 . S
C4243 C883 0.746 . S
C4247 C822 0.757 . S
C4261 C917 1.463 . S
C4265 C1301 1.463 . S
C4279 C1332 1.618 . S
C4283 C1046 1.743 . S
C4297 C1268 1.276 . S
C4301 C851 1.337 . S
C4315 C725 1.471 . S
C4319 C1076 1.410 . S
C4333 C1206 0.921 . S
C4337 C406 0.922 . S
C4351 C758 1.313 . S
C4355 C85 1.245 . S
C4369 C787 1.270 . S
C4373 C1172 1.309 . S
C4387 C946 1.322 . S
C4391 C177 1.254 . S
C4405 C145 1.473 . S
C4409 C912 1.410 . S
C4423 C626 0.920 . S
C4427 C1330 0.922 . S
C4441 C55 1.206 . S
C4445 C1265 1.220 . S
C4459 C16 1.313 . S
C4463 C1239 1.267 . S
C4477 C1200 2.195 . S
C4481 C1040 2.172 . S
C4495 C528 1.277 . S
C4499 C1367 1.340 . S
C4513 C562 0.744 . S
C4517 C1143 0.754 . S
C4531 C433 1.466 . S
C4535 C1105 1.461 . S
C4549 C496 1.608 . S
C4553 C1394 1.742 . S
C4567 C434 0.751 . S
C4571 C535 0.770 . S
C4585 C561 1.467 . S
C4589 C1393 1.461 . S
C4603 C1106 1.739 . S
C4607 C1360 1.600 . S
C4621 C1136 1.265 . S
C4625 C503 1.341 . S
C4639 C209 1.467 . S
C4643 C1232 1.415 . S
C4657 C1010 0.920 . S
C4661 C370 0.924 . S
C4675 C657 1.257 . S
C4679 C274 1.322 . S
C4693 C976 1.305 . S
C4697 C311 1.271 . S
C4711 C1523 0.710 . S
C4715 C22 0.625 . S
C4729 C533 1.198 . S
C4733 C211 1.217 . S
C4747 C148 2.193 . S
C4751 C1396 2.172 . S
C4765 C1429 1.347 . S
C4769 C659 1.298 . S
C4783 C1171 1.316 . S
C4787 C1365 1.333 . S
C4801 C694 0.620 . S
C4805 C1395 0.667 . S
C4819 C242 0.628 . S
C4823 C1495 0.688 . S
C4837 C881 1.202 . S
C4841 C727 1.225 . S
C4855 C112 2.190 . S
C4859 C1296 2.179 . S
C4873 C87 1.300 . S
C4877 C1457 1.350 . S
C4891 C983 1.319 . S
C4895 C1329 1.334 . S
C4909 C178 0.615 . S
C4913 C1303 0.680 . S
C4927 C757 1.210 . S
C4931 C1011 1.205 . S
C4945 C1524 2.178 . S
C4949 C628 2.187 . S
C4963 C1207 1.204 . S
C4967 C273 1.219 . S
C4981 C1488 2.172 . S
C4985 C48 2.195 . S
