# Generated by pormake.
# Topology dei, (4)-cn, num edge types: 1
# Building blocks:
#     Node 0, Type 0, BuildingBlock: GALJAG_clean_sbu_0, # of connection points: 4
#     Node 1, Type 0, BuildingBlock: GALJAG_clean_sbu_0, # of connection points: 4
#     Node 2, Type 0, BuildingBlock: GALJAG_clean_sbu_0, # of connection points: 4
#     Node 3, Type 0, BuildingBlock: GALJAG_clean_sbu_0, # of connection points: 4
#     Node 4, Type 0, BuildingBlock: GALJAG_clean_sbu_0, # of connection points: 4
#     Node 5, Type 0, BuildingBlock: GALJAG_clean_sbu_0, # of connection points: 4
#     Node 6, Type 0, BuildingBlock: GALJAG_clean_sbu_0, # of connection points: 4
#     Node 7, Type 0, BuildingBlock: GALJAG_clean_sbu_0, # of connection points: 4
#     Node 8, Type 0, BuildingBlock: GALJAG_clean_sbu_0, # of connection points: 4
#     Node 9, Type 0, BuildingBlock: GALJAG_clean_sbu_0, # of connection points: 4
#     Node 10, Type 0, BuildingBlock: GALJAG_clean_sbu_0, # of connection points: 4
#     Node 11, Type 0, BuildingBlock: GALJAG_clean_sbu_0, # of connection points: 4
#     Node 12, Type 0, BuildingBlock: GALJAG_clean_sbu_0, # of connection points: 4
#     Node 13, Type 0, BuildingBlock: GALJAG_clean_sbu_0, # of connection points: 4
#     Node 14, Type 0, BuildingBlock: GALJAG_clean_sbu_0, # of connection points: 4
#     Node 15, Type 0, BuildingBlock: GALJAG_clean_sbu_0, # of connection points: 4
#     Node 16, Type 0, BuildingBlock: GALJAG_clean_sbu_0, # of connection points: 4
#     Node 17, Type 0, BuildingBlock: GALJAG_clean_sbu_0, # of connection points: 4
#     Node 18, Type 0, BuildingBlock: GALJAG_clean_sbu_0, # of connection points: 4
#     Node 19, Type 0, BuildingBlock: GALJAG_clean_sbu_0, # of connection points: 4
#     Node 20, Type 0, BuildingBlock: GALJAG_clean_sbu_0, # of connection points: 4
#     Node 21, Type 0, BuildingBlock: GALJAG_clean_sbu_0, # of connection points: 4
#     Node 22, Type 0, BuildingBlock: GALJAG_clean_sbu_0, # of connection points: 4
#     Node 23, Type 0, BuildingBlock: GALJAG_clean_sbu_0, # of connection points: 4
#     Node 24, Type 0, BuildingBlock: GALJAG_clean_sbu_0, # of connection points: 4
#     Node 25, Type 0, BuildingBlock: GALJAG_clean_sbu_0, # of connection points: 4
#     Node 26, Type 0, BuildingBlock: GALJAG_clean_sbu_0, # of connection points: 4
#     Node 27, Type 0, BuildingBlock: GALJAG_clean_sbu_0, # of connection points: 4
#     Node 28, Type 0, BuildingBlock: GALJAG_clean_sbu_0, # of connection points: 4
#     Node 29, Type 0, BuildingBlock: GALJAG_clean_sbu_0, # of connection points: 4
#     Node 30, Type 0, BuildingBlock: GALJAG_clean_sbu_0, # of connection points: 4
#     Node 31, Type 0, BuildingBlock: GALJAG_clean_sbu_0, # of connection points: 4
#     Edge 32, Type (0, 0), BuildingBlock: XIVTED_clean_linker_0, # of connection points: 2
#     Edge 33, Type (0, 0), BuildingBlock: XIVTED_clean_linker_0, # of connection points: 2
#     Edge 34, Type (0, 0), BuildingBlock: XIVTED_clean_linker_0, # of connection points: 2
#     Edge 35, Type (0, 0), BuildingBlock: XIVTED_clean_linker_0, # of connection points: 2
#     Edge 36, Type (0, 0), BuildingBlock: XIVTED_clean_linker_0, # of connection points: 2
#     Edge 37, Type (0, 0), BuildingBlock: XIVTED_clean_linker_0, # of connection points: 2
#     Edge 38, Type (0, 0), BuildingBlock: XIVTED_clean_linker_0, # of connection points: 2
#     Edge 39, Type (0, 0), BuildingBlock: XIVTED_clean_linker_0, # of connection points: 2
#     Edge 40, Type (0, 0), BuildingBlock: XIVTED_clean_linker_0, # of connection points: 2
#     Edge 41, Type (0, 0), BuildingBlock: XIVTED_clean_linker_0, # of connection points: 2
#     Edge 42, Type (0, 0), BuildingBlock: XIVTED_clean_linker_0, # of connection points: 2
#     Edge 43, Type (0, 0), BuildingBlock: XIVTED_clean_linker_0, # of connection points: 2
#     Edge 44, Type (0, 0), BuildingBlock: XIVTED_clean_linker_0, # of connection points: 2
#     Edge 45, Type (0, 0), BuildingBlock: XIVTED_clean_linker_0, # of connection points: 2
#     Edge 46, Type (0, 0), BuildingBlock: XIVTED_clean_linker_0, # of connection points: 2
#     Edge 47, Type (0, 0), BuildingBlock: XIVTED_clean_linker_0, # of connection points: 2
#     Edge 48, Type (0, 0), BuildingBlock: XIVTED_clean_linker_0, # of connection points: 2
#     Edge 49, Type (0, 0), BuildingBlock: XIVTED_clean_linker_0, # of connection points: 2
#     Edge 50, Type (0, 0), BuildingBlock: XIVTED_clean_linker_0, # of connection points: 2
#     Edge 51, Type (0, 0), BuildingBlock: XIVTED_clean_linker_0, # of connection points: 2
#     Edge 52, Type (0, 0), BuildingBlock: XIVTED_clean_linker_0, # of connection points: 2
#     Edge 53, Type (0, 0), BuildingBlock: XIVTED_clean_linker_0, # of connection points: 2
#     Edge 54, Type (0, 0), BuildingBlock: XIVTED_clean_linker_0, # of connection points: 2
#     Edge 55, Type (0, 0), BuildingBlock: XIVTED_clean_linker_0, # of connection points: 2
#     Edge 56, Type (0, 0), BuildingBlock: XIVTED_clean_linker_0, # of connection points: 2
#     Edge 57, Type (0, 0), BuildingBlock: XIVTED_clean_linker_0, # of connection points: 2
#     Edge 58, Type (0, 0), BuildingBlock: XIVTED_clean_linker_0, # of connection points: 2
#     Edge 59, Type (0, 0), BuildingBlock: XIVTED_clean_linker_0, # of connection points: 2
#     Edge 60, Type (0, 0), BuildingBlock: XIVTED_clean_linker_0, # of connection points: 2
#     Edge 61, Type (0, 0), BuildingBlock: XIVTED_clean_linker_0, # of connection points: 2
#     Edge 62, Type (0, 0), BuildingBlock: XIVTED_clean_linker_0, # of connection points: 2
#     Edge 63, Type (0, 0), BuildingBlock: XIVTED_clean_linker_0, # of connection points: 2
#     Edge 64, Type (0, 0), BuildingBlock: XIVTED_clean_linker_0, # of connection points: 2
#     Edge 65, Type (0, 0), BuildingBlock: XIVTED_clean_linker_0, # of connection points: 2
#     Edge 66, Type (0, 0), BuildingBlock: XIVTED_clean_linker_0, # of connection points: 2
#     Edge 67, Type (0, 0), BuildingBlock: XIVTED_clean_linker_0, # of connection points: 2
#     Edge 68, Type (0, 0), BuildingBlock: XIVTED_clean_linker_0, # of connection points: 2
#     Edge 69, Type (0, 0), BuildingBlock: XIVTED_clean_linker_0, # of connection points: 2
#     Edge 70, Type (0, 0), BuildingBlock: XIVTED_clean_linker_0, # of connection points: 2
#     Edge 71, Type (0, 0), BuildingBlock: XIVTED_clean_linker_0, # of connection points: 2
#     Edge 72, Type (0, 0), BuildingBlock: XIVTED_clean_linker_0, # of connection points: 2
#     Edge 73, Type (0, 0), BuildingBlock: XIVTED_clean_linker_0, # of connection points: 2
#     Edge 74, Type (0, 0), BuildingBlock: XIVTED_clean_linker_0, # of connection points: 2
#     Edge 75, Type (0, 0), BuildingBlock: XIVTED_clean_linker_0, # of connection points: 2
#     Edge 76, Type (0, 0), BuildingBlock: XIVTED_clean_linker_0, # of connection points: 2
#     Edge 77, Type (0, 0), BuildingBlock: XIVTED_clean_linker_0, # of connection points: 2
#     Edge 78, Type (0, 0), BuildingBlock: XIVTED_clean_linker_0, # of connection points: 2
#     Edge 79, Type (0, 0), BuildingBlock: XIVTED_clean_linker_0, # of connection points: 2
#     Edge 80, Type (0, 0), BuildingBlock: XIVTED_clean_linker_0, # of connection points: 2
#     Edge 81, Type (0, 0), BuildingBlock: XIVTED_clean_linker_0, # of connection points: 2
#     Edge 82, Type (0, 0), BuildingBlock: XIVTED_clean_linker_0, # of connection points: 2
#     Edge 83, Type (0, 0), BuildingBlock: XIVTED_clean_linker_0, # of connection points: 2
#     Edge 84, Type (0, 0), BuildingBlock: XIVTED_clean_linker_0, # of connection points: 2
#     Edge 85, Type (0, 0), BuildingBlock: XIVTED_clean_linker_0, # of connection points: 2
#     Edge 86, Type (0, 0), BuildingBlock: XIVTED_clean_linker_0, # of connection points: 2
#     Edge 87, Type (0, 0), BuildingBlock: XIVTED_clean_linker_0, # of connection points: 2
#     Edge 88, Type (0, 0), BuildingBlock: XIVTED_clean_linker_0, # of connection points: 2
#     Edge 89, Type (0, 0), BuildingBlock: XIVTED_clean_linker_0, # of connection points: 2
#     Edge 90, Type (0, 0), BuildingBlock: XIVTED_clean_linker_0, # of connection points: 2
#     Edge 91, Type (0, 0), BuildingBlock: XIVTED_clean_linker_0, # of connection points: 2
#     Edge 92, Type (0, 0), BuildingBlock: XIVTED_clean_linker_0, # of connection points: 2
#     Edge 93, Type (0, 0), BuildingBlock: XIVTED_clean_linker_0, # of connection points: 2
#     Edge 94, Type (0, 0), BuildingBlock: XIVTED_clean_linker_0, # of connection points: 2
#     Edge 95, Type (0, 0), BuildingBlock: XIVTED_clean_linker_0, # of connection points: 2
# Relax obj value: 0.292
# Max RMSD: 0.107
# Mean RMSD: 0.106
data_MOF--net-dei--node1-GALJAG_clean_sbu_0--edge1-XIVTED_clean_linker_0
_symmetry_space_group_name_H-M    P1
_symmetry_Int_Tables_number       1
_symmetry_cell_setting            triclinic
loop_
_symmetry_equiv_pos_as_xyz
'x, y, z'
_cell_length_a     57.249781
_cell_length_b     57.254153
_cell_length_c     81.995606
_cell_angle_alpha  90.024695
_cell_angle_beta   90.034364
_cell_angle_gamma 89.981954
loop_
_atom_site_label
_atom_site_type_symbol
_atom_site_fract_x
_atom_site_fract_y
_atom_site_fract_z
_atom_type_partial_charge
In0 In 0.13605 0.62548 0.02806 0.0
O1 O 0.14581 0.60296 0.00569 0.0
O2 O 0.15545 0.59049 0.02895 0.0
C3 C 0.1536 0.66731 0.01788 0.0
C4 C 0.08921 0.62855 0.02456 0.0
C5 C 0.1392 0.6201 0.06068 0.0
O6 O 0.13733 0.65683 0.01058 0.0
O7 O 0.16212 0.65603 0.02966 0.0
O8 O 0.12166 0.61353 0.05256 0.0
O9 O 0.15527 0.62936 0.05234 0.0
C10 C 0.15467 0.58657 0.01388 0.0
O11 O 0.101 0.61207 0.0185 0.0
O12 O 0.10102 0.6434 0.03239 0.0
In13 In 0.63466 0.88983 0.28225 0.0
O14 O 0.61839 0.88065 0.30664 0.0
O15 O 0.6404 0.91061 0.30573 0.0
C16 C 0.64124 0.84327 0.27898 0.0
C17 C 0.5928 0.90485 0.27046 0.0
C18 C 0.67638 0.90671 0.27138 0.0
O19 O 0.64213 0.85383 0.29242 0.0
O20 O 0.63708 0.85621 0.26686 0.0
O21 O 0.65803 0.90809 0.26287 0.0
O22 O 0.67333 0.89765 0.28516 0.0
C23 C 0.62804 0.89712 0.31436 0.0
O24 O 0.60172 0.88543 0.26682 0.0
O25 O 0.60564 0.91756 0.2793 0.0
In26 In 0.3712 0.38335 0.52994 0.0
O27 O 0.40651 0.36579 0.53342 0.0
O28 O 0.40534 0.3958 0.51824 0.0
C29 C 0.37127 0.38586 0.5628 0.0
C30 C 0.35155 0.4236 0.51851 0.0
C31 C 0.35208 0.34273 0.51888 0.0
O32 O 0.38638 0.39585 0.55405 0.0
O33 O 0.35594 0.3746 0.55498 0.0
O34 O 0.36963 0.35219 0.51239 0.0
O35 O 0.34312 0.35454 0.53026 0.0
C36 C 0.41765 0.37992 0.52458 0.0
O37 O 0.35874 0.40768 0.50913 0.0
O38 O 0.35299 0.41859 0.53339 0.0
In39 In 0.87842 0.12382 0.77951 0.0
O40 O 0.87712 0.14285 0.80379 0.0
O41 O 0.87385 0.10583 0.80425 0.0
C42 C 0.8826 0.1696 0.77186 0.0
C43 C 0.919 0.10201 0.77098 0.0
C44 C 0.83717 0.1066 0.76806 0.0
O45 O 0.86518 0.15759 0.76754 0.0
O46 O 0.89782 0.15847 0.77979 0.0
O47 O 0.85514 0.10785 0.75915 0.0
O48 O 0.84039 0.11324 0.78249 0.0
C49 C 0.87424 0.1247 0.81227 0.0
O50 O 0.9082 0.09766 0.78401 0.0
O51 O 0.90846 0.11599 0.76167 0.0
In52 In 0.13529 0.37845 0.96545 0.0
O53 O 0.09924 0.36294 0.96153 0.0
O54 O 0.10212 0.39008 0.97902 0.0
C55 C 0.13963 0.377 0.9327 0.0
C56 C 0.14867 0.42218 0.97422 0.0
C57 C 0.15609 0.33974 0.97822 0.0
O58 O 0.12255 0.36831 0.94024 0.0
O59 O 0.15503 0.3862 0.94168 0.0
O60 O 0.16353 0.34982 0.96559 0.0
O61 O 0.13944 0.35023 0.9851 0.0
C62 C 0.08898 0.37583 0.97169 0.0
O63 O 0.15491 0.40437 0.98226 0.0
O64 O 0.13614 0.41774 0.96198 0.0
In65 In 0.87803 0.89074 0.21559 0.0
O66 O 0.90825 0.91746 0.21624 0.0
O67 O 0.91025 0.88835 0.23204 0.0
C68 C 0.83965 0.91021 0.22993 0.0
C69 C 0.87301 0.89483 0.18301 0.0
C70 C 0.87984 0.84369 0.21792 0.0
O71 O 0.8559 0.90093 0.23804 0.0
O72 O 0.8435 0.911 0.21485 0.0
O73 O 0.89346 0.85533 0.20899 0.0
O74 O 0.86525 0.85578 0.22579 0.0
C75 C 0.92021 0.90632 0.22657 0.0
O76 O 0.86262 0.87946 0.1913 0.0
O77 O 0.88591 0.90842 0.19117 0.0
In78 In 0.37197 0.62882 0.46868 0.0
O79 O 0.35793 0.60514 0.48946 0.0
O80 O 0.35675 0.59242 0.46527 0.0
C81 C 0.35028 0.66965 0.47691 0.0
C82 C 0.41766 0.63115 0.47698 0.0
C83 C 0.37463 0.62479 0.43593 0.0
O84 O 0.36294 0.65839 0.48672 0.0
O85 O 0.34714 0.65947 0.46347 0.0
O86 O 0.39231 0.62809 0.44482 0.0
O87 O 0.35543 0.62395 0.4435 0.0
C88 C 0.35309 0.58829 0.4801 0.0
O89 O 0.40565 0.6129 0.479 0.0
O90 O 0.4066 0.64809 0.47091 0.0
In91 In 0.63255 0.1222 0.71665 0.0
O92 O 0.601 0.12137 0.73387 0.0
O93 O 0.60343 0.09443 0.71631 0.0
C94 C 0.67277 0.10318 0.72863 0.0
C95 C 0.63506 0.1207 0.68381 0.0
C96 C 0.62967 0.16872 0.72191 0.0
O97 O 0.65586 0.10868 0.73771 0.0
O98 O 0.66883 0.10603 0.7137 0.0
O99 O 0.6156 0.15777 0.71287 0.0
O100 O 0.64518 0.15618 0.72847 0.0
C101 C 0.59151 0.10374 0.7275 0.0
O102 O 0.6436 0.13713 0.69215 0.0
O103 O 0.62521 0.10486 0.69203 0.0
In104 In 0.86797 0.38222 0.96674 0.0
O105 O 0.88261 0.39595 0.9428 0.0
O106 O 0.85317 0.37335 0.94156 0.0
C107 C 0.91451 0.37842 0.9716 0.0
C108 C 0.84947 0.34147 0.97803 0.0
C109 C 0.84789 0.42194 0.9787 0.0
O110 O 0.90294 0.36413 0.96314 0.0
O111 O 0.90261 0.39477 0.97774 0.0
O112 O 0.85647 0.40644 0.98784 0.0
O113 O 0.84815 0.41672 0.96381 0.0
C114 C 0.86802 0.38545 0.9339 0.0
O115 O 0.84057 0.3527 0.96634 0.0
O116 O 0.86654 0.35159 0.98467 0.0
In117 In 0.37964 0.12416 0.71809 0.0
O118 O 0.38408 0.14123 0.69336 0.0
O119 O 0.37428 0.10539 0.69364 0.0
C120 C 0.383 0.16997 0.72583 0.0
C121 C 0.41933 0.10269 0.72867 0.0
C122 C 0.33696 0.10864 0.72778 0.0
O123 O 0.3978 0.15939 0.71719 0.0
O124 O 0.36645 0.15737 0.73089 0.0
O125 O 0.34066 0.11906 0.71453 0.0
O126 O 0.35505 0.10544 0.73637 0.0
C127 C 0.37886 0.12329 0.68522 0.0
O128 O 0.40853 0.11771 0.737 0.0
O129 O 0.40909 0.09704 0.71565 0.0
In130 In 0.63709 0.62754 0.46811 0.0
O131 O 0.61749 0.62929 0.44399 0.0
O132 O 0.65393 0.62219 0.44309 0.0
C133 C 0.59153 0.62992 0.47675 0.0
C134 C 0.65932 0.66784 0.4768 0.0
C135 C 0.65488 0.58629 0.47903 0.0
O136 O 0.60395 0.61219 0.47962 0.0
O137 O 0.60213 0.64637 0.46974 0.0
O138 O 0.65364 0.60411 0.48811 0.0
O139 O 0.64798 0.58969 0.46467 0.0
C140 C 0.63509 0.62486 0.43528 0.0
O141 O 0.66353 0.65709 0.46371 0.0
O142 O 0.64526 0.65738 0.48608 0.0
In143 In 0.13582 0.89003 0.21691 0.0
O144 O 0.15222 0.87977 0.19269 0.0
O145 O 0.12751 0.90753 0.1925 0.0
C146 C 0.1346 0.84289 0.21861 0.0
C147 C 0.09344 0.90514 0.22778 0.0
C148 C 0.17355 0.9095 0.23206 0.0
O149 O 0.12082 0.8546 0.20984 0.0
O150 O 0.149 0.85494 0.22667 0.0
O151 O 0.1574 0.89938 0.23974 0.0
O152 O 0.1699 0.91117 0.21698 0.0
C153 C 0.14111 0.89461 0.18437 0.0
O154 O 0.10553 0.91665 0.21773 0.0
O155 O 0.10333 0.88699 0.23302 0.0
In156 In 0.86789 0.62635 0.02949 0.0
O157 O 0.86647 0.65745 0.01184 0.0
O158 O 0.84125 0.65646 0.03063 0.0
C159 C 0.84821 0.58629 0.01772 0.0
C160 C 0.86689 0.62318 0.0623 0.0
C161 C 0.91444 0.62899 0.0244 0.0
O162 O 0.85469 0.60263 0.00845 0.0
O163 O 0.85048 0.59077 0.03263 0.0
O164 O 0.90198 0.61315 0.01814 0.0
O165 O 0.90339 0.64346 0.03306 0.0
C166 C 0.84989 0.66778 0.01891 0.0
O167 O 0.8837 0.61573 0.05382 0.0
O168 O 0.85043 0.63232 0.05423 0.0
In169 In 0.13271 0.12374 0.7792 0.0
O170 O 0.10146 0.09986 0.78482 0.0
O171 O 0.10317 0.11443 0.76122 0.0
C172 C 0.17209 0.1048 0.76603 0.0
C173 C 0.13726 0.12589 0.81195 0.0
C174 C 0.13163 0.16972 0.77158 0.0
O175 O 0.15537 0.11206 0.75736 0.0
O176 O 0.16831 0.10588 0.78112 0.0
O177 O 0.15022 0.15789 0.77135 0.0
O178 O 0.11367 0.15836 0.77559 0.0
C179 C 0.09157 0.10245 0.77123 0.0
O180 O 0.13273 0.14352 0.80328 0.0
O181 O 0.13913 0.10695 0.80414 0.0
In182 In 0.63886 0.38151 0.52989 0.0
O183 O 0.62405 0.39276 0.55439 0.0
O184 O 0.65647 0.37459 0.55448 0.0
C185 C 0.59227 0.37828 0.52505 0.0
C186 C 0.65721 0.34043 0.51898 0.0
C187 C 0.65781 0.42162 0.5177 0.0
O188 O 0.60357 0.36409 0.53378 0.0
O189 O 0.60448 0.39414 0.51862 0.0
O190 O 0.6517 0.40486 0.50866 0.0
O191 O 0.65559 0.41756 0.53267 0.0
C192 C 0.64062 0.38444 0.56271 0.0
O193 O 0.6664 0.35215 0.53032 0.0
O194 O 0.63982 0.35017 0.51247 0.0
In195 In 0.37919 0.89041 0.28474 0.0
O196 O 0.40865 0.91763 0.28191 0.0
O197 O 0.41015 0.88722 0.26728 0.0
C198 C 0.33652 0.9053 0.27432 0.0
C199 C 0.38473 0.89958 0.31675 0.0
C200 C 0.37597 0.84345 0.28208 0.0
O201 O 0.35508 0.91102 0.26699 0.0
O202 O 0.33973 0.89272 0.28667 0.0
O203 O 0.37753 0.85404 0.29548 0.0
O204 O 0.37601 0.85655 0.2697 0.0
C205 C 0.42012 0.90579 0.27169 0.0
O206 O 0.39629 0.88415 0.30929 0.0
O207 O 0.37085 0.91119 0.30791 0.0
In208 In 0.63979 0.12706 0.52886 0.0
O209 O 0.60458 0.14492 0.53175 0.0
O210 O 0.60576 0.11454 0.51692 0.0
C211 C 0.64067 0.12521 0.56172 0.0
C212 C 0.65893 0.08626 0.51793 0.0
C213 C 0.65846 0.16793 0.51794 0.0
O214 O 0.62376 0.11766 0.55336 0.0
O215 O 0.65727 0.13378 0.55351 0.0
O216 O 0.66667 0.15694 0.52998 0.0
O217 O 0.64207 0.15747 0.51074 0.0
C218 C 0.5935 0.13074 0.5229 0.0
O219 O 0.6546 0.10313 0.50849 0.0
O220 O 0.65476 0.0905 0.53266 0.0
In221 In 0.13318 0.38986 0.77805 0.0
O222 O 0.12985 0.37077 0.80226 0.0
O223 O 0.13778 0.40704 0.80307 0.0
C224 C 0.13264 0.34386 0.77039 0.0
C225 C 0.0928 0.41108 0.7684 0.0
C226 C 0.17401 0.40844 0.76703 0.0
O227 O 0.1509 0.35609 0.76944 0.0
O228 O 0.11477 0.35485 0.77504 0.0
O229 O 0.1571 0.4042 0.75757 0.0
O230 O 0.16983 0.40429 0.7818 0.0
C231 C 0.13426 0.38841 0.81094 0.0
O232 O 0.10423 0.39751 0.7593 0.0
O233 O 0.10266 0.41541 0.7818 0.0
In234 In 0.86907 0.88242 0.02852 0.0
O235 O 0.85923 0.90486 0.00616 0.0
O236 O 0.84955 0.9174 0.02939 0.0
C237 C 0.8514 0.84064 0.0183 0.0
C238 C 0.91589 0.87916 0.02505 0.0
C239 C 0.86658 0.8881 0.06114 0.0
O240 O 0.86769 0.85111 0.01103 0.0
O241 O 0.84293 0.85191 0.03011 0.0
O242 O 0.88368 0.89509 0.05276 0.0
O243 O 0.85055 0.87828 0.05306 0.0
C244 C 0.85034 0.92128 0.01431 0.0
O245 O 0.90413 0.89554 0.01884 0.0
O246 O 0.90404 0.86443 0.03294 0.0
In247 In 0.38107 0.6216 0.28261 0.0
O248 O 0.40999 0.59388 0.27959 0.0
O249 O 0.41261 0.62492 0.2657 0.0
C250 C 0.33863 0.60653 0.27193 0.0
C251 C 0.38619 0.61242 0.31465 0.0
C252 C 0.37755 0.66857 0.28012 0.0
O253 O 0.35726 0.60145 0.26444 0.0
O254 O 0.34166 0.6186 0.28455 0.0
O255 O 0.37951 0.65792 0.29346 0.0
O256 O 0.37736 0.65554 0.2677 0.0
C257 C 0.42202 0.60592 0.26981 0.0
O258 O 0.39828 0.62744 0.30721 0.0
O259 O 0.37203 0.6012 0.30578 0.0
In260 In 0.63905 0.88112 0.46855 0.0
O261 O 0.60524 0.8995 0.4762 0.0
O262 O 0.6044 0.86269 0.47334 0.0
C263 C 0.63613 0.88399 0.43575 0.0
C264 C 0.6585 0.92098 0.48061 0.0
C265 C 0.66063 0.84026 0.47681 0.0
O266 O 0.61898 0.87854 0.44461 0.0
O267 O 0.65498 0.8875 0.44338 0.0
O268 O 0.66326 0.85003 0.46318 0.0
O269 O 0.64852 0.85191 0.48673 0.0
C270 C 0.59326 0.88104 0.47678 0.0
O271 O 0.65227 0.90436 0.48976 0.0
O272 O 0.65606 0.91687 0.46565 0.0
In273 In 0.37937 0.39025 0.71783 0.0
O274 O 0.41007 0.39285 0.73575 0.0
O275 O 0.40889 0.41751 0.71659 0.0
C276 C 0.33883 0.40976 0.72885 0.0
C277 C 0.37726 0.38983 0.68496 0.0
C278 C 0.38283 0.34408 0.72421 0.0
O279 O 0.35524 0.40413 0.73835 0.0
O280 O 0.34345 0.40677 0.71402 0.0
O281 O 0.39757 0.35506 0.71576 0.0
O282 O 0.36621 0.35638 0.72955 0.0
C283 C 0.42019 0.40942 0.72852 0.0
O284 O 0.36957 0.37337 0.69365 0.0
O285 O 0.38609 0.40662 0.69284 0.0
In286 In 0.86975 0.12947 0.96588 0.0
O287 O 0.90631 0.13302 0.95575 0.0
O288 O 0.90355 0.12582 0.98104 0.0
C289 C 0.86112 0.1333 0.93367 0.0
C290 C 0.85648 0.0861 0.97574 0.0
C291 C 0.85149 0.1693 0.97878 0.0
O292 O 0.8749 0.14665 0.94124 0.0
O293 O 0.85085 0.11838 0.94248 0.0
O294 O 0.84115 0.15761 0.96791 0.0
O295 O 0.86998 0.15996 0.98398 0.0
C296 C 0.9168 0.12941 0.969 0.0
O297 O 0.84895 0.10432 0.98271 0.0
O298 O 0.87023 0.08997 0.9641 0.0
In299 In 0.13743 0.62077 0.21531 0.0
O300 O 0.10751 0.5938 0.21683 0.0
O301 O 0.10481 0.62439 0.23118 0.0
C302 C 0.17567 0.60135 0.22983 0.0
C303 C 0.14151 0.61592 0.1827 0.0
C304 C 0.13657 0.66785 0.21761 0.0
O305 O 0.15914 0.61027 0.23785 0.0
O306 O 0.1722 0.60087 0.21469 0.0
O307 O 0.12304 0.65652 0.20842 0.0
O308 O 0.15057 0.65546 0.22576 0.0
C309 C 0.09521 0.60577 0.22649 0.0
O310 O 0.15268 0.63102 0.19075 0.0
O311 O 0.12839 0.60292 0.19112 0.0
In312 In 0.37301 0.88375 0.47093 0.0
O313 O 0.39239 0.88252 0.44669 0.0
O314 O 0.3566 0.89235 0.44617 0.0
C315 C 0.41916 0.88349 0.47806 0.0
C316 C 0.3517 0.84236 0.4783 0.0
C317 C 0.35432 0.92249 0.48516 0.0
O318 O 0.40742 0.90207 0.47703 0.0
O319 O 0.40763 0.86507 0.47554 0.0
O320 O 0.36384 0.9064 0.49331 0.0
O321 O 0.3529 0.91829 0.47013 0.0
C322 C 0.37517 0.88891 0.43821 0.0
O323 O 0.34944 0.85247 0.46477 0.0
O324 O 0.36337 0.85385 0.48857 0.0
In325 In 0.87977 0.62163 0.21682 0.0
O326 O 0.86404 0.63288 0.19261 0.0
O327 O 0.88787 0.60437 0.19229 0.0
C328 C 0.88076 0.66868 0.2193 0.0
C329 C 0.9221 0.60634 0.22769 0.0
C330 C 0.84179 0.60157 0.23121 0.0
O331 O 0.89472 0.65732 0.21044 0.0
O332 O 0.86631 0.65631 0.22706 0.0
O333 O 0.85781 0.6113 0.23927 0.0
O334 O 0.84569 0.60061 0.21614 0.0
C335 C 0.87471 0.61781 0.18422 0.0
O336 O 0.91023 0.5952 0.2173 0.0
O337 O 0.912 0.62419 0.23324 0.0
In338 In 0.13898 0.12851 0.96556 0.0
O339 O 0.16774 0.15638 0.96819 0.0
O340 O 0.13803 0.15931 0.98337 0.0
C341 C 0.15197 0.08521 0.97576 0.0
C342 C 0.14849 0.13248 0.93348 0.0
C343 C 0.09188 0.1284 0.96816 0.0
O344 O 0.15901 0.10348 0.98291 0.0
O345 O 0.13883 0.08898 0.96375 0.0
O346 O 0.10262 0.13167 0.95498 0.0
O347 O 0.10489 0.12511 0.98038 0.0
C348 C 0.15693 0.16833 0.97868 0.0
O349 O 0.13413 0.14548 0.9408 0.0
O350 O 0.15886 0.11784 0.94247 0.0
In351 In 0.63365 0.38994 0.71759 0.0
O352 O 0.64511 0.37494 0.69318 0.0
O353 O 0.6265 0.40712 0.69291 0.0
C354 C 0.63001 0.34335 0.7223 0.0
C355 C 0.5927 0.40841 0.72858 0.0
C356 C 0.67373 0.40926 0.72963 0.0
O357 O 0.61563 0.35492 0.71391 0.0
O358 O 0.6463 0.3553 0.72847 0.0
O359 O 0.65729 0.40263 0.73875 0.0
O360 O 0.66937 0.40735 0.71468 0.0
C361 C 0.63652 0.39127 0.68477 0.0
O362 O 0.60296 0.39167 0.73552 0.0
O363 O 0.60387 0.41697 0.71676 0.0
In364 In 0.37352 0.13192 0.53054 0.0
O365 O 0.38889 0.13965 0.55543 0.0
O366 O 0.35469 0.12519 0.5548 0.0
C367 C 0.41937 0.13553 0.52299 0.0
C368 C 0.35174 0.17084 0.51896 0.0
C369 C 0.35957 0.08833 0.52177 0.0
O370 O 0.409 0.14939 0.53246 0.0
O371 O 0.40653 0.11982 0.51697 0.0
O372 O 0.35372 0.10618 0.51363 0.0
O373 O 0.37195 0.09268 0.53409 0.0
C374 C 0.37151 0.13244 0.5634 0.0
O375 O 0.36737 0.16015 0.51112 0.0
O376 O 0.34567 0.1608 0.53196 0.0
In377 In 0.63583 0.62202 0.28164 0.0
O378 O 0.60654 0.59462 0.2788 0.0
O379 O 0.60403 0.62572 0.26497 0.0
C380 C 0.67815 0.60585 0.27147 0.0
C381 C 0.62948 0.61398 0.31368 0.0
C382 C 0.64096 0.66872 0.27831 0.0
O383 O 0.65973 0.6021 0.26338 0.0
O384 O 0.67493 0.61707 0.28444 0.0
O385 O 0.64031 0.65848 0.29187 0.0
O386 O 0.639 0.65541 0.26611 0.0
C387 C 0.59451 0.60679 0.2691 0.0
O388 O 0.61911 0.63009 0.30607 0.0
O389 O 0.64249 0.6012 0.30498 0.0
In390 In 0.13753 0.88231 0.02977 0.0
O391 O 0.13794 0.85064 0.0126 0.0
O392 O 0.16367 0.85171 0.03106 0.0
C393 C 0.15656 0.92107 0.01569 0.0
C394 C 0.14045 0.88767 0.06241 0.0
C395 C 0.09073 0.87996 0.02592 0.0
O396 O 0.15626 0.91765 0.03082 0.0
O397 O 0.14857 0.90428 0.00744 0.0
O398 O 0.10295 0.89583 0.01951 0.0
O399 O 0.1021 0.86532 0.03424 0.0
C400 C 0.15458 0.84027 0.01956 0.0
O401 O 0.12308 0.8944 0.05419 0.0
O402 O 0.15651 0.87817 0.05417 0.0
In403 In 0.87932 0.38985 0.77891 0.0
O404 O 0.91052 0.39271 0.76142 0.0
O405 O 0.90872 0.41716 0.78069 0.0
C406 C 0.83878 0.40918 0.76767 0.0
C407 C 0.87669 0.38948 0.81179 0.0
C408 C 0.8825 0.34375 0.77215 0.0
O409 O 0.85576 0.40475 0.75836 0.0
O410 O 0.84279 0.40504 0.78245 0.0
O411 O 0.86628 0.35638 0.76658 0.0
O412 O 0.89707 0.3544 0.78098 0.0
C413 C 0.92034 0.40929 0.76884 0.0
O414 O 0.8701 0.37258 0.80306 0.0
O415 O 0.88474 0.40669 0.80396 0.0
H416 H 0.1718 0.63881 0.16263 0.0
H417 H 0.10825 0.59796 0.08075 0.0
H418 H 0.11445 0.58993 0.16195 0.0
H419 H 0.17309 0.63636 0.08131 0.0
H420 H 0.10998 0.59501 0.11047 0.0
H421 H 0.17247 0.63825 0.13285 0.0
C422 C 0.15942 0.62785 0.1562 0.0
C423 C 0.14298 0.61445 0.16476 0.0
C424 C 0.1239 0.60397 0.10409 0.0
C425 C 0.14352 0.61387 0.13066 0.0
C426 C 0.1229 0.6057 0.08713 0.0
C427 C 0.14052 0.6175 0.07857 0.0
C428 C 0.14256 0.61428 0.11258 0.0
C429 C 0.15912 0.62715 0.08744 0.0
C430 C 0.15983 0.62752 0.1392 0.0
C431 C 0.12741 0.60053 0.15582 0.0
N432 N 0.15958 0.62545 0.10398 0.0
N433 N 0.12794 0.60072 0.13924 0.0
H434 H 0.59933 0.87178 0.41638 0.0
H435 H 0.65556 0.92329 0.33464 0.0
H436 H 0.66789 0.90297 0.41465 0.0
H437 H 0.59868 0.87387 0.33488 0.0
H438 H 0.65684 0.92144 0.3645 0.0
H439 H 0.59573 0.87727 0.3869 0.0
C440 C 0.61363 0.87977 0.40978 0.0
C441 C 0.634 0.88681 0.41792 0.0
C442 C 0.64398 0.91115 0.358 0.0
C443 C 0.62988 0.8934 0.38427 0.0
C444 C 0.64312 0.91233 0.34099 0.0
C445 C 0.62704 0.89864 0.33231 0.0
C446 C 0.62849 0.89635 0.36634 0.0
C447 C 0.61141 0.88464 0.34112 0.0
C448 C 0.61156 0.88291 0.39297 0.0
C449 C 0.65196 0.89714 0.4088 0.0
N450 N 0.61255 0.88381 0.35766 0.0
N451 N 0.64947 0.90019 0.39245 0.0
H452 H 0.35455 0.35815 0.66578 0.0
H453 H 0.39942 0.41294 0.58188 0.0
H454 H 0.39676 0.42048 0.66327 0.0
H455 H 0.34434 0.36166 0.58458 0.0
H456 H 0.40058 0.41437 0.61167 0.0
H457 H 0.35253 0.3575 0.63601 0.0
C458 C 0.3634 0.37171 0.65895 0.0
C459 C 0.37585 0.3894 0.66698 0.0
C460 C 0.38818 0.40286 0.60576 0.0
C461 C 0.37368 0.38871 0.63292 0.0
C462 C 0.38754 0.402 0.58876 0.0
C463 C 0.37175 0.38715 0.58077 0.0
C464 C 0.37308 0.3886 0.61484 0.0
C465 C 0.35675 0.37337 0.59027 0.0
C466 C 0.36217 0.37136 0.64196 0.0
C467 C 0.38694 0.40655 0.65754 0.0
N468 N 0.35786 0.37435 0.60682 0.0
N469 N 0.38568 0.40572 0.641 0.0
H470 H 0.87617 0.1673 0.91302 0.0
H471 H 0.86191 0.08925 0.83303 0.0
H472 H 0.84287 0.09971 0.91355 0.0
H473 H 0.87876 0.16269 0.83201 0.0
H474 H 0.85598 0.09199 0.8626 0.0
H475 H 0.87784 0.16556 0.8833 0.0
C476 C 0.86896 0.1522 0.90684 0.0
C477 C 0.85939 0.13361 0.91573 0.0
C478 C 0.86089 0.1075 0.85587 0.0
C479 C 0.86161 0.13129 0.88172 0.0
C480 C 0.8644 0.10591 0.83904 0.0
C481 C 0.87092 0.12575 0.8301 0.0
C482 C 0.86416 0.12903 0.8638 0.0
C483 C 0.87379 0.14695 0.83845 0.0
C484 C 0.86995 0.15119 0.88988 0.0
C485 C 0.85032 0.11445 0.90713 0.0
N486 N 0.8705 0.148 0.85482 0.0
N487 N 0.85187 0.11366 0.89058 0.0
H488 H 0.11425 0.35053 0.91163 0.0
H489 H 0.15163 0.42105 0.83218 0.0
H490 H 0.16672 0.40456 0.91296 0.0
H491 H 0.12041 0.3525 0.83044 0.0
H492 H 0.1545 0.41767 0.86196 0.0
H493 H 0.11366 0.35306 0.88191 0.0
C494 C 0.12576 0.36284 0.90563 0.0
C495 C 0.14058 0.37735 0.91473 0.0
C496 C 0.14709 0.40338 0.85502 0.0
C497 C 0.13974 0.38059 0.88075 0.0
C498 C 0.14532 0.40535 0.83808 0.0
C499 C 0.13571 0.38704 0.82888 0.0
C500 C 0.13888 0.38311 0.86278 0.0
C501 C 0.12792 0.36702 0.83709 0.0
C502 C 0.12543 0.36426 0.88868 0.0
C503 C 0.15513 0.39299 0.90636 0.0
N504 N 0.12955 0.36565 0.85357 0.0
N505 N 0.1542 0.39437 0.8898 0.0
H506 H 0.83394 0.87098 0.08238 0.0
H507 H 0.89785 0.92209 0.16175 0.0
H508 H 0.89753 0.91134 0.0806 0.0
H509 H 0.84306 0.87041 0.16354 0.0
H510 H 0.89506 0.92217 0.13193 0.0
H511 H 0.83411 0.87436 0.11215 0.0
C512 C 0.84787 0.88064 0.08826 0.0
C513 C 0.86581 0.89079 0.07904 0.0
C514 C 0.8836 0.91088 0.13886 0.0
C515 C 0.86612 0.89476 0.11303 0.0
C516 C 0.88514 0.91088 0.15587 0.0
C517 C 0.87075 0.89614 0.1651 0.0
C518 C 0.86744 0.89614 0.13107 0.0
C519 C 0.85458 0.88196 0.15687 0.0
C520 C 0.84799 0.88253 0.10524 0.0
C521 C 0.88341 0.90315 0.08726 0.0
N522 N 0.85338 0.88229 0.14033 0.0
N523 N 0.88315 0.90477 0.10379 0.0
H524 H 0.34054 0.61076 0.41464 0.0
H525 H 0.41893 0.62976 0.33552 0.0
H526 H 0.41307 0.63101 0.41677 0.0
H527 H 0.35413 0.59133 0.33455 0.0
H528 H 0.41678 0.63115 0.36526 0.0
H529 H 0.34442 0.60488 0.38515 0.0
C530 C 0.35725 0.61401 0.40889 0.0
C531 C 0.37649 0.62148 0.41812 0.0
C532 C 0.40316 0.62218 0.35857 0.0
C533 C 0.38106 0.61478 0.38449 0.0
C534 C 0.40439 0.62135 0.3416 0.0
C535 C 0.38666 0.61044 0.33259 0.0
C536 C 0.38385 0.61234 0.36659 0.0
C537 C 0.36821 0.59985 0.34107 0.0
C538 C 0.3595 0.61052 0.3921 0.0
C539 C 0.39778 0.62529 0.4101 0.0
N540 N 0.36713 0.6013 0.35761 0.0
N541 N 0.39946 0.62203 0.39373 0.0
H542 H 0.61295 0.09094 0.66272 0.0
H543 H 0.67153 0.14574 0.58282 0.0
H544 H 0.66034 0.14951 0.66405 0.0
H545 H 0.61022 0.10196 0.58148 0.0
H546 H 0.6709 0.14395 0.61268 0.0
H547 H 0.61495 0.09131 0.63287 0.0
C548 C 0.62382 0.10381 0.65672 0.0
C549 C 0.63644 0.12026 0.66584 0.0
C550 C 0.6576 0.13474 0.60583 0.0
C551 C 0.63889 0.12073 0.63179 0.0
C552 C 0.65799 0.13571 0.58882 0.0
C553 C 0.64086 0.12404 0.5797 0.0
C554 C 0.6401 0.12181 0.61375 0.0
C555 C 0.6237 0.11129 0.58806 0.0
C556 C 0.62491 0.10406 0.63971 0.0
C557 C 0.65026 0.13657 0.65747 0.0
N558 N 0.62378 0.11047 0.60462 0.0
N559 N 0.65116 0.13637 0.64092 0.0
H560 H 0.85514 0.35681 0.83076 0.0
H561 H 0.89501 0.4141 0.91514 0.0
H562 H 0.89401 0.42124 0.83367 0.0
H563 H 0.84263 0.36013 0.91179 0.0
H564 H 0.89672 0.41563 0.88536 0.0
H565 H 0.85229 0.35627 0.8605 0.0
C566 C 0.86309 0.37085 0.83767 0.0
C567 C 0.87485 0.3891 0.82976 0.0
C568 C 0.88478 0.40351 0.89113 0.0
C569 C 0.87172 0.38854 0.86379 0.0
C570 C 0.88383 0.4026 0.90813 0.0
C571 C 0.86866 0.38694 0.91593 0.0
C572 C 0.87064 0.3885 0.88187 0.0
C573 C 0.85455 0.37247 0.90626 0.0
C574 C 0.86139 0.37057 0.85464 0.0
C575 C 0.88477 0.40686 0.8393 0.0
N576 N 0.85597 0.37351 0.88972 0.0
N577 N 0.88307 0.40609 0.85583 0.0
H578 H 0.35886 0.09108 0.66472 0.0
H579 H 0.40073 0.1557 0.58384 0.0
H580 H 0.39587 0.15673 0.66493 0.0
H581 H 0.34281 0.10751 0.58376 0.0
H582 H 0.40232 0.15317 0.61353 0.0
H583 H 0.35604 0.09346 0.63485 0.0
C584 C 0.36648 0.1059 0.65847 0.0
C585 C 0.37764 0.12373 0.66726 0.0
C586 C 0.38918 0.14323 0.60704 0.0
C587 C 0.37455 0.1265 0.6333 0.0
C588 C 0.38828 0.14464 0.59011 0.0
C589 C 0.37157 0.13184 0.58138 0.0
C590 C 0.3735 0.1286 0.61533 0.0
C591 C 0.35586 0.11776 0.59008 0.0
C592 C 0.36474 0.10731 0.64148 0.0
C593 C 0.3871 0.14262 0.65862 0.0
N594 N 0.35731 0.11636 0.60662 0.0
N595 N 0.38544 0.14345 0.64212 0.0
H596 H 0.59808 0.63555 0.4157 0.0
H597 H 0.65817 0.58889 0.33386 0.0
H598 H 0.66821 0.60797 0.41426 0.0
H599 H 0.59879 0.63533 0.33427 0.0
H600 H 0.65899 0.59017 0.36375 0.0
H601 H 0.5953 0.63057 0.38615 0.0
C602 C 0.6129 0.62846 0.40915 0.0
C603 C 0.63346 0.62229 0.4174 0.0
C604 C 0.64569 0.59993 0.35727 0.0
C605 C 0.63029 0.61629 0.38364 0.0
C606 C 0.6451 0.59907 0.34025 0.0
C607 C 0.62843 0.61209 0.33161 0.0
C608 C 0.62934 0.61371 0.36567 0.0
C609 C 0.61199 0.6251 0.34047 0.0
C610 C 0.6113 0.62561 0.3923 0.0
C611 C 0.6521 0.6131 0.40834 0.0
N612 N 0.61289 0.62562 0.35702 0.0
N613 N 0.65006 0.61032 0.39192 0.0
H614 H 0.17189 0.87136 0.16483 0.0
H615 H 0.10955 0.9105 0.08209 0.0
H616 H 0.11453 0.92019 0.16312 0.0
H617 H 0.17395 0.87137 0.08339 0.0
H618 H 0.11099 0.91414 0.11176 0.0
H619 H 0.17305 0.87118 0.13504 0.0
C620 C 0.15963 0.88216 0.15817 0.0
C621 C 0.14303 0.89575 0.16644 0.0
C622 C 0.12488 0.90486 0.10557 0.0
C623 C 0.14411 0.89548 0.13234 0.0
C624 C 0.12404 0.90273 0.08863 0.0
C625 C 0.14162 0.89054 0.08029 0.0
C626 C 0.14335 0.89457 0.11426 0.0
C627 C 0.16002 0.88087 0.08936 0.0
C628 C 0.16031 0.88206 0.14116 0.0
C629 C 0.1276 0.90946 0.15721 0.0
N630 N 0.16034 0.88299 0.10587 0.0
N631 N 0.1284 0.90884 0.14065 0.0
H632 H 0.83475 0.64101 0.08366 0.0
H633 H 0.89981 0.59096 0.16286 0.0
H634 H 0.8986 0.60104 0.08174 0.0
H635 H 0.84454 0.64216 0.16486 0.0
H636 H 0.89696 0.591 0.13306 0.0
H637 H 0.83548 0.63831 0.11346 0.0
C638 C 0.84888 0.63162 0.08952 0.0
C639 C 0.86669 0.62132 0.08025 0.0
C640 C 0.88542 0.60217 0.14003 0.0
C641 C 0.86761 0.61809 0.11427 0.0
C642 C 0.88699 0.6021 0.15703 0.0
C643 C 0.87246 0.61665 0.16631 0.0
C644 C 0.8691 0.6168 0.1323 0.0
C645 C 0.85616 0.63075 0.15815 0.0
C646 C 0.84931 0.63011 0.10651 0.0
C647 C 0.88457 0.60932 0.08844 0.0
N648 N 0.85493 0.63049 0.1416 0.0
N649 N 0.88458 0.60804 0.10498 0.0
H650 H 0.13018 0.16391 0.83134 0.0
H651 H 0.16964 0.10009 0.91377 0.0
H652 H 0.15203 0.09181 0.83305 0.0
H653 H 0.13211 0.16543 0.91243 0.0
H654 H 0.16875 0.09889 0.88387 0.0
H655 H 0.13573 0.16664 0.86081 0.0
C656 C 0.13616 0.14864 0.83793 0.0
C657 C 0.14051 0.12756 0.82977 0.0
C658 C 0.16088 0.11356 0.89014 0.0
C659 C 0.14709 0.1306 0.8635 0.0
C660 C 0.16152 0.11434 0.90718 0.0
C661 C 0.15085 0.13284 0.91556 0.0
C662 C 0.14964 0.13152 0.88148 0.0
C663 C 0.14046 0.15079 0.90644 0.0
C664 C 0.13934 0.15021 0.85475 0.0
C665 C 0.14833 0.10836 0.83891 0.0
N666 N 0.14006 0.14964 0.88991 0.0
N667 N 0.15138 0.11033 0.85531 0.0
H668 H 0.6711 0.36331 0.5838 0.0
H669 H 0.61465 0.42102 0.66356 0.0
H670 H 0.61145 0.40936 0.58244 0.0
H671 H 0.66153 0.36202 0.66512 0.0
H672 H 0.61643 0.4202 0.63372 0.0
H673 H 0.67101 0.36577 0.61363 0.0
C674 C 0.65804 0.37399 0.58978 0.0
C675 C 0.64121 0.38609 0.58067 0.0
C676 C 0.62634 0.40745 0.6406 0.0
C677 C 0.64105 0.38908 0.6147 0.0
C678 C 0.62538 0.40796 0.65762 0.0
C679 C 0.6379 0.39152 0.6668 0.0
C680 C 0.64009 0.39051 0.63274 0.0
C681 C 0.65153 0.37497 0.65849 0.0
C682 C 0.65796 0.37535 0.60679 0.0
C683 C 0.62468 0.39968 0.58902 0.0
N684 N 0.65228 0.3749 0.64193 0.0
N685 N 0.62504 0.40083 0.60557 0.0
H686 H 0.4169 0.88085 0.33744 0.0
H687 H 0.3422 0.90699 0.4175 0.0
H688 H 0.35414 0.92258 0.33684 0.0
H689 H 0.41214 0.87891 0.41845 0.0
H690 H 0.34573 0.91249 0.38796 0.0
H691 H 0.41538 0.88007 0.36718 0.0
C692 C 0.40294 0.8901 0.3436 0.0
C693 C 0.38559 0.90175 0.33468 0.0
C694 C 0.36033 0.90523 0.39465 0.0
C695 C 0.38349 0.90062 0.36873 0.0
C696 C 0.35828 0.90198 0.41149 0.0
C697 C 0.37686 0.89238 0.4204 0.0
C698 C 0.38104 0.89862 0.38669 0.0
C699 C 0.39735 0.88631 0.41204 0.0
C700 C 0.40205 0.88962 0.36058 0.0
C701 C 0.3679 0.91344 0.34327 0.0
N702 N 0.39884 0.88941 0.39565 0.0
N703 N 0.36715 0.91236 0.35984 0.0
H704 H 0.06037 0.66225 0.03675 0.0
H705 H 0.94282 0.59842 0.00801 0.0
H706 H 0.05968 0.59799 0.00923 0.0
H707 H 0.94436 0.66154 0.03677 0.0
H708 H 0.98556 0.59916 0.00671 0.0
H709 H 0.0178 0.66348 0.03533 0.0
C710 C 0.05124 0.64844 0.03035 0.0
C711 C 0.06354 0.62993 0.02316 0.0
C712 C 0.97653 0.61291 0.01323 0.0
C713 C 0.01478 0.63118 0.02151 0.0
C714 C 0.95215 0.61251 0.01396 0.0
C715 C 0.94007 0.62988 0.02257 0.0
C716 C 0.98887 0.63082 0.02119 0.0
C717 C 0.95299 0.64774 0.03005 0.0
C718 C 0.02692 0.64914 0.02954 0.0
C719 C 0.05084 0.61254 0.01498 0.0
N720 N 0.97668 0.64769 0.02924 0.0
N721 N 0.02713 0.61354 0.01443 0.0
H722 H 0.63745 0.69664 0.25107 0.0
H723 H 0.65352 0.81373 0.30336 0.0
H724 H 0.64986 0.69903 0.30296 0.0
H725 H 0.63522 0.81464 0.2523 0.0
H726 H 0.65575 0.77139 0.30239 0.0
H727 H 0.63975 0.73952 0.25025 0.0
C728 C 0.64079 0.70617 0.26224 0.0
C729 C 0.64334 0.69432 0.27712 0.0
C730 C 0.65131 0.78075 0.29134 0.0
C731 C 0.64603 0.74308 0.27628 0.0
C732 C 0.65005 0.80498 0.29189 0.0
C733 C 0.64401 0.8177 0.27791 0.0
C734 C 0.64639 0.76898 0.27671 0.0
C735 C 0.63986 0.80544 0.26336 0.0
C736 C 0.64207 0.73059 0.26178 0.0
C737 C 0.64765 0.70744 0.29124 0.0
N738 N 0.64098 0.78167 0.26315 0.0
N739 N 0.6488 0.73105 0.29046 0.0
H740 H 0.44631 0.40967 0.5077 0.0
H741 H 0.56297 0.34524 0.53743 0.0
H742 H 0.4472 0.34715 0.53706 0.0
H743 H 0.56332 0.40829 0.50861 0.0
H744 H 0.52045 0.34436 0.53573 0.0
H745 H 0.48904 0.40822 0.50619 0.0
C746 C 0.45549 0.39556 0.51373 0.0
C747 C 0.44324 0.37857 0.52259 0.0
C748 C 0.52978 0.35835 0.5297 0.0
C749 C 0.492 0.37683 0.52097 0.0
C750 C 0.55408 0.35885 0.53066 0.0
C751 C 0.56666 0.37694 0.52322 0.0
C752 C 0.51791 0.37611 0.52127 0.0
C753 C 0.55425 0.39407 0.51457 0.0
C754 C 0.47986 0.39475 0.51288 0.0
C755 C 0.45596 0.36066 0.53015 0.0
N756 N 0.53052 0.39331 0.5139 0.0
N757 N 0.47963 0.36032 0.52923 0.0
H758 H 0.85098 0.31579 0.75624 0.0
H759 H 0.91874 0.19827 0.77995 0.0
H760 H 0.91672 0.31379 0.78198 0.0
H761 H 0.85041 0.19879 0.75771 0.0
H762 H 0.92011 0.24071 0.7778 0.0
H763 H 0.85219 0.27314 0.7538 0.0
C764 C 0.86575 0.30639 0.76125 0.0
C765 C 0.8837 0.31829 0.76942 0.0
C766 C 0.90485 0.23159 0.77328 0.0
C767 C 0.88518 0.26962 0.76671 0.0
C768 C 0.90409 0.20733 0.77448 0.0
C769 C 0.88435 0.19502 0.76911 0.0
C770 C 0.88571 0.24371 0.76671 0.0
C771 C 0.86592 0.20764 0.76206 0.0
C772 C 0.86642 0.28206 0.75988 0.0
C773 C 0.90244 0.30529 0.77567 0.0
N774 N 0.86696 0.23135 0.76117 0.0
N775 N 0.90263 0.28167 0.77425 0.0
H776 H 0.94302 0.34455 0.95949 0.0
H777 H 0.0614 0.40497 0.99006 0.0
H778 H 0.94415 0.40798 0.98794 0.0
H779 H 0.05845 0.34483 0.95838 0.0
H780 H 0.01861 0.40456 0.99177 0.0
H781 H 0.98545 0.34256 0.9613 0.0
C782 C 0.95222 0.35802 0.9662 0.0
C783 C 0.94008 0.37654 0.97349 0.0
C784 C 0.02737 0.39139 0.98454 0.0
C785 C 0.98877 0.37443 0.97558 0.0
C786 C 0.05176 0.39158 0.98359 0.0
C787 C 0.06343 0.37498 0.97399 0.0
C788 C 0.01467 0.37444 0.97585 0.0
C789 C 0.05015 0.35803 0.96585 0.0
C790 C 0.97647 0.35689 0.96722 0.0
C791 C 0.95288 0.39345 0.98208 0.0
N792 N 0.0265 0.35825 0.96692 0.0
N793 N 0.97658 0.39206 0.98282 0.0
H794 H 0.90931 0.81449 0.20162 0.0
H795 H 0.85232 0.69736 0.23722 0.0
H796 H 0.85224 0.81438 0.23598 0.0
H797 H 0.90958 0.69855 0.20303 0.0
H798 H 0.85239 0.74014 0.23753 0.0
H799 H 0.91005 0.77192 0.20253 0.0
C800 C 0.89697 0.80548 0.2094 0.0
C801 C 0.88068 0.81796 0.21873 0.0
C802 C 0.86497 0.73103 0.23 0.0
C803 C 0.88138 0.76916 0.21982 0.0
C804 C 0.86494 0.70663 0.22983 0.0
C805 C 0.88095 0.69443 0.22007 0.0
C806 C 0.88111 0.74327 0.22032 0.0
C807 C 0.89693 0.70727 0.21072 0.0
C808 C 0.89739 0.78116 0.20991 0.0
C809 C 0.86507 0.8054 0.22858 0.0
N810 N 0.89656 0.73098 0.21106 0.0
N811 N 0.86578 0.78166 0.22885 0.0
H812 H 0.44647 0.66876 0.47385 0.0
H813 H 0.5634 0.59502 0.48848 0.0
H814 H 0.44657 0.59583 0.48711 0.0
H815 H 0.56203 0.66676 0.47239 0.0
H816 H 0.52079 0.59602 0.49126 0.0
H817 H 0.4889 0.66941 0.47653 0.0
C818 C 0.45543 0.65291 0.47747 0.0
C819 C 0.44303 0.63215 0.48013 0.0
C820 C 0.52985 0.61159 0.48726 0.0
C821 C 0.49167 0.63271 0.48312 0.0
C822 C 0.55415 0.61105 0.4857 0.0
C823 C 0.56621 0.63079 0.48008 0.0
C824 C 0.51758 0.63203 0.48316 0.0
C825 C 0.55341 0.65109 0.47667 0.0
C826 C 0.47968 0.65328 0.47898 0.0
C827 C 0.45551 0.61217 0.48487 0.0
N828 N 0.52979 0.65114 0.47817 0.0
N829 N 0.47919 0.61289 0.48608 0.0
H830 H 0.65953 0.19688 0.73911 0.0
H831 H 0.59638 0.31458 0.71008 0.0
H832 H 0.59751 0.19877 0.70921 0.0
H833 H 0.66004 0.31387 0.73828 0.0
H834 H 0.59503 0.27205 0.71151 0.0
H835 H 0.65859 0.23959 0.74081 0.0
C836 C 0.64564 0.20628 0.733 0.0
C837 C 0.62863 0.19431 0.72394 0.0
C838 C 0.60926 0.28115 0.71746 0.0
C839 C 0.62748 0.24307 0.72578 0.0
C840 C 0.61002 0.30545 0.71666 0.0
C841 C 0.62841 0.31774 0.724 0.0
C842 C 0.62706 0.26898 0.72564 0.0
C843 C 0.64559 0.30504 0.7324 0.0
C844 C 0.64513 0.23065 0.73395 0.0
C845 C 0.61102 0.20732 0.71627 0.0
N846 N 0.64456 0.28131 0.73293 0.0
N847 N 0.61095 0.23098 0.71731 0.0
H848 H 0.41811 0.31499 0.71507 0.0
H849 H 0.35098 0.19824 0.74104 0.0
H850 H 0.35124 0.31532 0.73934 0.0
H851 H 0.41775 0.1996 0.71667 0.0
H852 H 0.35203 0.24098 0.74288 0.0
H853 H 0.41957 0.27264 0.71782 0.0
C854 C 0.40377 0.30613 0.72107 0.0
C855 C 0.38445 0.31864 0.72688 0.0
C856 C 0.36653 0.23189 0.73726 0.0
C857 C 0.38591 0.27005 0.73 0.0
C858 C 0.36596 0.20752 0.73624 0.0
C859 C 0.38423 0.19541 0.72859 0.0
C860 C 0.3855 0.24415 0.73055 0.0
C861 C 0.40322 0.20824 0.72258 0.0
C862 C 0.40461 0.28192 0.72264 0.0
C863 C 0.36643 0.30629 0.73463 0.0
N864 N 0.40328 0.23189 0.7236 0.0
N865 N 0.36751 0.28261 0.73586 0.0
H866 H 0.16393 0.69648 0.23639 0.0
H867 H 0.10609 0.81371 0.20147 0.0
H868 H 0.10841 0.69775 0.20078 0.0
H869 H 0.16235 0.8135 0.23651 0.0
H870 H 0.10623 0.7711 0.20162 0.0
H871 H 0.16323 0.73925 0.23718 0.0
C872 C 0.15157 0.70577 0.22876 0.0
C873 C 0.13621 0.69359 0.2185 0.0
C874 C 0.11853 0.78033 0.20932 0.0
C875 C 0.13532 0.74241 0.21932 0.0
C876 C 0.11843 0.80467 0.20924 0.0
C877 C 0.13424 0.81713 0.21899 0.0
C878 C 0.13455 0.76831 0.21922 0.0
C879 C 0.14988 0.80454 0.22881 0.0
C880 C 0.15118 0.73016 0.22922 0.0
C881 C 0.12056 0.70645 0.20887 0.0
N882 N 0.14966 0.78079 0.22866 0.0
N883 N 0.12054 0.73015 0.20951 0.0
H884 H 0.09371 0.19859 0.77167 0.0
H885 H 0.16956 0.31535 0.76293 0.0
H886 H 0.16844 0.19867 0.76485 0.0
H887 H 0.09525 0.31443 0.77168 0.0
H888 H 0.16912 0.27268 0.76081 0.0
H889 H 0.09352 0.24104 0.76892 0.0
C890 C 0.11007 0.20755 0.76947 0.0
C891 C 0.13114 0.19513 0.7686 0.0
C892 C 0.15289 0.28183 0.76307 0.0
C893 C 0.13111 0.24377 0.76553 0.0
C894 C 0.15313 0.30617 0.76425 0.0
C895 C 0.13244 0.31839 0.76759 0.0
C896 C 0.1318 0.26967 0.76527 0.0
C897 C 0.11163 0.30567 0.76918 0.0
C898 C 0.10997 0.2318 0.76791 0.0
C899 C 0.15182 0.20761 0.76567 0.0
N900 N 0.11187 0.28201 0.76809 0.0
N901 N 0.15131 0.23127 0.76435 0.0
H902 H 0.37606 0.69706 0.25306 0.0
H903 H 0.37325 0.81327 0.30748 0.0
H904 H 0.37531 0.69853 0.30568 0.0
H905 H 0.3757 0.81516 0.25489 0.0
H906 H 0.3723 0.77089 0.3065 0.0
H907 H 0.37438 0.73999 0.25288 0.0
C908 C 0.37546 0.70641 0.26454 0.0
C909 C 0.3759 0.69427 0.27941 0.0
C910 C 0.37301 0.78047 0.29513 0.0
C911 C 0.37397 0.74308 0.2793 0.0
C912 C 0.37355 0.80472 0.29569 0.0
C913 C 0.37464 0.81774 0.28124 0.0
C914 C 0.37364 0.76897 0.28 0.0
C915 C 0.37489 0.80572 0.26631 0.0
C916 C 0.37452 0.73085 0.26443 0.0
C917 C 0.37509 0.70716 0.29393 0.0
N918 N 0.37448 0.78194 0.26606 0.0
N919 N 0.3742 0.73079 0.2935 0.0
H920 H 0.4492 0.16935 0.5334 0.0
H921 H 0.56461 0.10071 0.50633 0.0
H922 H 0.44744 0.10446 0.50664 0.0
H923 H 0.56445 0.16491 0.53391 0.0
H924 H 0.52196 0.10318 0.50406 0.0
H925 H 0.49163 0.16959 0.53131 0.0
C926 C 0.45776 0.15523 0.52696 0.0
C927 C 0.44481 0.13677 0.52028 0.0
C928 C 0.5313 0.11679 0.51051 0.0
C929 C 0.49352 0.1368 0.51795 0.0
C930 C 0.55561 0.11539 0.5118 0.0
C931 C 0.56803 0.13255 0.52042 0.0
C932 C 0.5194 0.13548 0.5179 0.0
C933 C 0.55556 0.15122 0.52724 0.0
C934 C 0.48202 0.15535 0.52578 0.0
C935 C 0.45681 0.11899 0.512 0.0
N936 N 0.53195 0.15212 0.5259 0.0
N937 N 0.48055 0.11933 0.51118 0.0
H938 H 0.94475 0.8459 0.03783 0.0
H939 H 0.06215 0.91024 0.00953 0.0
H940 H 0.94545 0.90955 0.00967 0.0
H941 H 0.06094 0.84764 0.0388 0.0
H942 H 0.01947 0.90918 0.00809 0.0
H943 H 0.98739 0.84507 0.03694 0.0
C944 C 0.95389 0.85965 0.03139 0.0
C945 C 0.94158 0.87788 0.02387 0.0
C946 C 0.02854 0.89563 0.01478 0.0
C947 C 0.99039 0.8771 0.02284 0.0
C948 C 0.05289 0.89622 0.01559 0.0
C949 C 0.06506 0.87905 0.02435 0.0
C950 C 0.01629 0.87773 0.02279 0.0
C951 C 0.05223 0.86126 0.03196 0.0
C952 C 0.97824 0.85919 0.0309 0.0
C953 C 0.95429 0.89521 0.01567 0.0
N954 N 0.02855 0.86111 0.03105 0.0
N955 N 0.97802 0.89445 0.01543 0.0
H956 H 0.4481 0.92098 0.48243 0.0
H957 H 0.5642 0.84338 0.4788 0.0
H958 H 0.4482 0.84571 0.47968 0.0
H959 H 0.56459 0.91863 0.48173 0.0
H960 H 0.52173 0.84379 0.48157 0.0
H961 H 0.49072 0.92042 0.4846 0.0
C962 C 0.45709 0.90433 0.48242 0.0
C963 C 0.44465 0.88336 0.48075 0.0
C964 C 0.53109 0.86022 0.48173 0.0
C965 C 0.49336 0.88258 0.48315 0.0
C966 C 0.55534 0.85999 0.48016 0.0
C967 C 0.56789 0.88101 0.47992 0.0
C968 C 0.51926 0.88165 0.48298 0.0
C969 C 0.55555 0.90202 0.48179 0.0
C970 C 0.48141 0.90402 0.48364 0.0
C971 C 0.45714 0.86229 0.48085 0.0
N972 N 0.53189 0.90182 0.48311 0.0
N973 N 0.48081 0.86244 0.48191 0.0
H974 H 0.06189 0.13538 0.94305 0.0
H975 H 0.94493 0.12183 0.9958 0.0
H976 H 0.06327 0.12174 0.9948 0.0
H977 H 0.94725 0.13674 0.94423 0.0
H978 H 0.98791 0.12154 0.9963 0.0
H979 H 0.01953 0.13568 0.9438 0.0
C980 C 0.05324 0.13244 0.95461 0.0
C981 C 0.06612 0.12853 0.96889 0.0
C982 C 0.97894 0.12488 0.98491 0.0
C983 C 0.01732 0.12885 0.96988 0.0
C984 C 0.95447 0.12506 0.98462 0.0
C985 C 0.94255 0.12931 0.96995 0.0
C986 C 0.99141 0.12897 0.97042 0.0
C987 C 0.95569 0.13338 0.95582 0.0
C988 C 0.02898 0.13262 0.95505 0.0
C989 C 0.05394 0.12483 0.98352 0.0
N990 N 0.97933 0.13309 0.95642 0.0
N991 N 0.03014 0.12507 0.98365 0.0
H992 H 0.14071 0.46173 0.95666 0.0
H993 H 0.17282 0.54851 0.02959 0.0
H994 H 0.16911 0.43822 0.00255 0.0
H995 H 0.14807 0.57131 0.98251 0.0
H996 H 0.17534 0.50852 0.01919 0.0
H997 H 0.14667 0.50208 0.96519 0.0
C998 C 0.14838 0.46506 0.96852 0.0
C999 C 0.15427 0.44654 0.97896 0.0
C1000 C 0.16965 0.5223 0.01106 0.0
C1001 C 0.16104 0.49294 0.98889 0.0
C1002 C 0.16829 0.54517 0.01697 0.0
C1003 C 0.1601 0.56328 0.00692 0.0
C1004 C 0.16262 0.51742 0.995 0.0
C1005 C 0.15445 0.55791 0.9907 0.0
C1006 C 0.15181 0.48816 0.97338 0.0
C1007 C 0.16426 0.45196 0.99413 0.0
N1008 N 0.15558 0.53545 0.9853 0.0
N1009 N 0.16713 0.47467 -0.00129 0.0
H1010 H 0.82596 0.90784 0.26192 0.0
H1011 H 0.69001 0.92063 0.24063 0.0
H1012 H 0.80048 0.92529 0.21393 0.0
H1013 H 0.71681 0.90684 0.28885 0.0
H1014 H 0.73023 0.92634 0.23099 0.0
H1015 H 0.78619 0.91155 0.27249 0.0
C1016 C 0.81206 0.91284 0.25365 0.0
C1017 C 0.81656 0.91614 0.237 0.0
C1018 C 0.72727 0.92232 0.24372 0.0
C1019 C 0.77081 0.92003 0.24895 0.0
C1020 C 0.7043 0.91912 0.24922 0.0
C1021 C 0.70004 0.91308 0.26553 0.0
C1022 C 0.74607 0.91939 0.25461 0.0
C1023 C 0.71925 0.91131 0.27614 0.0
C1024 C 0.7893 0.91486 0.25968 0.0
C1025 C 0.79782 0.92253 0.22685 0.0
N1026 N 0.74135 0.91424 0.27048 0.0
N1027 N 0.77575 0.924 0.23294 0.0
H1028 H 0.34074 0.46169 0.53714 0.0
H1029 H 0.34304 0.55008 0.46154 0.0
H1030 H 0.34887 0.43999 0.48707 0.0
H1031 H 0.34886 0.57231 0.51166 0.0
H1032 H 0.33787 0.50989 0.47075 0.0
H1033 H 0.33644 0.50212 0.52799 0.0
C1034 C 0.34124 0.46536 0.52418 0.0
C1035 C 0.34531 0.44741 0.51285 0.0
C1036 C 0.34004 0.52355 0.47976 0.0
C1037 C 0.34054 0.49378 0.50231 0.0
C1038 C 0.34291 0.54657 0.47452 0.0
C1039 C 0.34656 0.56461 0.48585 0.0
C1040 C 0.34079 0.51842 0.49649 0.0
C1041 C 0.34616 0.55895 0.5025 0.0
C1042 C 0.33889 0.4885 0.51899 0.0
C1043 C 0.34583 0.45326 0.49623 0.0
N1044 N 0.34353 0.53632 0.50732 0.0
N1045 N 0.34364 0.47594 0.49148 0.0
H1046 H 0.823 0.09774 0.73653 0.0
H1047 H 0.68733 0.09973 0.76045 0.0
H1048 H 0.79746 0.10134 0.78595 0.0
H1049 H 0.71216 0.09389 0.71096 0.0
H1050 H 0.7276 0.09593 0.77016 0.0
H1051 H 0.78274 0.09208 0.72698 0.0
C1052 C 0.80899 0.09701 0.74538 0.0
C1053 C 0.81359 0.10019 0.76204 0.0
C1054 C 0.72424 0.0952 0.75717 0.0
C1055 C 0.76749 0.09392 0.75124 0.0
C1056 C 0.70121 0.09727 0.75164 0.0
C1057 C 0.69637 0.09727 0.73487 0.0
C1058 C 0.74262 0.09326 0.74586 0.0
C1059 C 0.71508 0.09408 0.724 0.0
C1060 C 0.78599 0.09385 0.73994 0.0
C1061 C 0.79473 0.09913 0.77297 0.0
N1062 N 0.73737 0.09246 0.72966 0.0
N1063 N 0.77256 0.09629 0.76738 0.0
H1064 H 0.83747 0.5481 0.03612 0.0
H1065 H 0.83566 0.45986 0.96034 0.0
H1066 H 0.84478 0.57035 0.98612 0.0
H1067 H 0.84611 0.43819 0.0102 0.0
H1068 H 0.83101 0.5002 0.96966 0.0
H1069 H 0.8326 0.50788 0.02678 0.0
C1070 C 0.83769 0.54459 0.02314 0.0
C1071 C 0.8417 0.56264 0.01188 0.0
C1072 C 0.83404 0.48659 0.97858 0.0
C1073 C 0.83624 0.51646 0.00111 0.0
C1074 C 0.83658 0.46351 0.97329 0.0
C1075 C 0.84141 0.44561 0.98451 0.0
C1076 C 0.83621 0.49184 0.99524 0.0
C1077 C 0.84247 0.45143 0.00112 0.0
C1078 C 0.83501 0.52157 0.01783 0.0
C1079 C 0.8418 0.55699 0.99522 0.0
N1080 N 0.84004 0.47405 0.00597 0.0
N1081 N 0.83928 0.53437 0.99034 0.0
H1082 H 0.18672 0.10625 0.73419 0.0
H1083 H 0.32206 0.09263 0.75771 0.0
H1084 H 0.21091 0.09079 0.78284 0.0
H1085 H 0.29708 0.111 0.70976 0.0
H1086 H 0.28146 0.08685 0.76649 0.0
H1087 H 0.22689 0.10272 0.72429 0.0
C1088 C 0.20042 0.10172 0.74274 0.0
C1089 C 0.19545 0.09896 0.75938 0.0
C1090 C 0.2849 0.09192 0.754 0.0
C1091 C 0.2416 0.09522 0.7482 0.0
C1092 C 0.30807 0.09515 0.74899 0.0
C1093 C 0.31296 0.10248 0.73303 0.0
C1094 C 0.26651 0.09602 0.74296 0.0
C1095 C 0.29414 0.10552 0.72223 0.0
C1096 C 0.2234 0.09982 0.73711 0.0
C1097 C 0.21394 0.09317 0.76992 0.0
N1098 N 0.27181 0.10244 0.72741 0.0
N1099 N 0.2362 0.09172 0.76419 0.0
H1100 H 0.6603 0.43639 0.48589 0.0
H1101 H 0.66426 0.57178 0.51039 0.0
H1102 H 0.66817 0.46075 0.53538 0.0
H1103 H 0.65972 0.54674 0.46086 0.0
H1104 H 0.66981 0.5314 0.51967 0.0
H1105 H 0.66428 0.47668 0.47629 0.0
C1106 C 0.66324 0.45016 0.49472 0.0
C1107 C 0.66377 0.44519 0.51146 0.0
C1108 C 0.66787 0.53478 0.50675 0.0
C1109 C 0.66799 0.49147 0.50061 0.0
C1110 C 0.66477 0.55785 0.50146 0.0
C1111 C 0.66136 0.56263 0.48485 0.0
C1112 C 0.66747 0.51638 0.49535 0.0
C1113 C 0.66213 0.54387 0.4738 0.0
C1114 C 0.66542 0.4732 0.48925 0.0
C1115 C 0.66756 0.46378 0.52236 0.0
N1116 N 0.66489 0.52163 0.47925 0.0
N1117 N 0.66928 0.48608 0.51676 0.0
H1118 H 0.18684 0.90454 0.26395 0.0
H1119 H 0.3228 0.92518 0.24517 0.0
H1120 H 0.21263 0.9269 0.21707 0.0
H1121 H 0.29574 0.89893 0.2907 0.0
H1122 H 0.2825 0.931 0.23559 0.0
H1123 H 0.22636 0.90787 0.27499 0.0
C1124 C 0.20075 0.91054 0.25604 0.0
C1125 C 0.19642 0.91531 0.23954 0.0
C1126 C 0.28543 0.92418 0.24774 0.0
C1127 C 0.24193 0.91882 0.25203 0.0
C1128 C 0.30842 0.92092 0.25321 0.0
C1129 C 0.31264 0.91138 0.2687 0.0
C1130 C 0.26658 0.91793 0.25786 0.0
C1131 C 0.29334 0.90615 0.27861 0.0
C1132 C 0.22338 0.91233 0.26233 0.0
C1133 C 0.21518 0.92298 0.22986 0.0
N1134 N 0.27124 0.90935 0.27301 0.0
N1135 N 0.23714 0.92425 0.2362 0.0
H1136 H 0.66538 0.07081 0.48648 0.0
H1137 H 0.6614 0.93628 0.51235 0.0
H1138 H 0.66617 0.04736 0.53647 0.0
H1139 H 0.6696 0.95953 0.46264 0.0
H1140 H 0.66633 0.9767 0.52159 0.0
H1141 H 0.67013 0.03022 0.47754 0.0
C1142 C 0.66692 0.05718 0.49557 0.0
C1143 C 0.66524 0.06249 0.51223 0.0
C1144 C 0.66736 0.97292 0.50867 0.0
C1145 C 0.67035 0.01593 0.50212 0.0
C1146 C 0.66461 0.94981 0.5034 0.0
C1147 C 0.66495 0.94452 0.4867 0.0
C1148 C 0.67027 0.9909 0.49714 0.0
C1149 C 0.6691 0.9628 0.47564 0.0
C1150 C 0.66957 0.03398 0.49048 0.0
C1151 C 0.66728 0.04408 0.52349 0.0
N1152 N 0.67134 0.98516 0.48103 0.0
N1153 N 0.66946 0.02166 0.51823 0.0
H1154 H 0.21229 0.41777 0.78573 0.0
H1155 H 0.30059 0.4195 0.71011 0.0
H1156 H 0.19006 0.41324 0.73555 0.0
H1157 H 0.32257 0.41364 0.76028 0.0
H1158 H 0.26019 0.42389 0.71923 0.0
H1159 H 0.25253 0.42292 0.77659 0.0
C1160 C 0.21582 0.41817 0.77276 0.0
C1161 C 0.19776 0.4149 0.76138 0.0
C1162 C 0.27386 0.42191 0.72827 0.0
C1163 C 0.244 0.42063 0.75082 0.0
C1164 C 0.29698 0.4195 0.72308 0.0
C1165 C 0.31501 0.41605 0.73446 0.0
C1166 C 0.26864 0.42089 0.74498 0.0
C1167 C 0.30924 0.4162 0.75109 0.0
C1168 C 0.23886 0.42104 0.76755 0.0
C1169 C 0.20343 0.41564 0.74474 0.0
N1170 N 0.28654 0.41838 0.75584 0.0
N1171 N 0.22608 0.41823 0.73996 0.0
H1172 H 0.85577 0.93581 0.98272 0.0
H1173 H 0.83434 0.07113 0.00374 0.0
H1174 H 0.83348 0.95998 0.03006 0.0
H1175 H 0.86554 0.04596 0.9592 0.0
H1176 H 0.82821 0.03043 0.01235 0.0
H1177 H 0.85321 0.97586 0.97253 0.0
C1178 C 0.84994 0.94947 0.9909 0.0
C1179 C 0.84498 0.94454 0.00729 0.0
C1180 C 0.83622 0.03386 0.00064 0.0
C1181 C 0.84232 0.99059 0.99578 0.0
C1182 C 0.83967 0.05707 0.99572 0.0
C1183 C 0.85064 0.06194 0.9808 0.0
C1184 C 0.84366 0.01546 0.9905 0.0
C1185 C 0.8572 0.04305 0.97087 0.0
C1186 C 0.84861 0.9724 0.98511 0.0
C1187 C 0.83756 0.96301 0.01734 0.0
N1188 N 0.8537 0.02073 0.97592 0.0
N1189 N 0.83667 0.98523 0.01148 0.0
H1190 H 0.32519 0.58777 0.24236 0.0
H1191 H 0.1889 0.60465 0.26186 0.0
H1192 H 0.29782 0.61137 0.28852 0.0
H1193 H 0.21507 0.58571 0.21433 0.0
H1194 H 0.22852 0.60148 0.27277 0.0
H1195 H 0.28497 0.58163 0.23272 0.0
C1196 C 0.31076 0.59138 0.25052 0.0
C1197 C 0.31486 0.60027 0.26621 0.0
C1198 C 0.2256 0.59774 0.25998 0.0
C1199 C 0.2689 0.59335 0.25531 0.0
C1200 C 0.20292 0.59943 0.25377 0.0
C1201 C 0.19867 0.59559 0.23714 0.0
C1202 C 0.24425 0.59228 0.24949 0.0
C1203 C 0.21756 0.58891 0.22723 0.0
C1204 C 0.28782 0.58794 0.24501 0.0
C1205 C 0.2955 0.60468 0.27628 0.0
N1206 N 0.23955 0.58771 0.23351 0.0
N1207 N 0.27345 0.60131 0.27064 0.0
H1208 H 0.33882 0.07236 0.49352 0.0
H1209 H 0.3607 0.93788 0.5165 0.0
H1210 H 0.36735 0.04877 0.53935 0.0
H1211 H 0.33639 0.96055 0.46929 0.0
H1212 H 0.35793 0.97816 0.52627 0.0
H1213 H 0.33293 0.03142 0.48548 0.0
C1214 C 0.34361 0.0586 0.50194 0.0
C1215 C 0.35376 0.06399 0.51707 0.0
C1216 C 0.35293 0.97431 0.51382 0.0
C1217 C 0.34712 0.01718 0.50799 0.0
C1218 C 0.35438 0.95126 0.50827 0.0
C1219 C 0.3489 0.94584 0.49203 0.0
C1220 C 0.34603 0.99215 0.50304 0.0
C1221 C 0.34088 0.96395 0.48189 0.0
C1222 C 0.34029 0.03524 0.49736 0.0
C1223 C 0.35964 0.04545 0.52752 0.0
N1224 N 0.3399 0.9863 0.48751 0.0
N1225 N 0.35636 0.02296 0.52276 0.0
H1226 H 0.69223 0.58849 0.24165 0.0
H1227 H 0.82785 0.60485 0.26308 0.0
H1228 H 0.71845 0.60881 0.2889 0.0
H1229 H 0.80301 0.5852 0.21533 0.0
H1230 H 0.78804 0.60122 0.27354 0.0
H1231 H 0.73264 0.58237 0.23246 0.0
C1232 C 0.70644 0.59136 0.25014 0.0
C1233 C 0.70197 0.59936 0.26601 0.0
C1234 C 0.7913 0.59741 0.26081 0.0
C1235 C 0.74817 0.59252 0.25562 0.0
C1236 C 0.81409 0.59938 0.25485 0.0
C1237 C 0.81876 0.59547 0.23829 0.0
C1238 C 0.77295 0.59166 0.25011 0.0
C1239 C 0.80019 0.58846 0.22819 0.0
C1240 C 0.7295 0.58793 0.24489 0.0
C1241 C 0.72106 0.60283 0.27651 0.0
N1242 N 0.77808 0.58704 0.2342 0.0
N1243 N 0.74324 0.59956 0.2711 0.0
H1244 H 0.15264 0.93498 0.98383 0.0
H1245 H 0.17287 0.07063 0.00431 0.0
H1246 H 0.17253 0.96007 0.03147 0.0
H1247 H 0.14372 0.04485 0.95925 0.0
H1248 H 0.17868 0.03008 0.01332 0.0
H1249 H 0.15563 0.97487 0.97336 0.0
C1250 C 0.15804 0.94881 0.99203 0.0
C1251 C 0.16219 0.94419 0.00857 0.0
C1252 C 0.1712 0.03334 0.0014 0.0
C1253 C 0.16534 0.99003 0.99673 0.0
C1254 C 0.16793 0.05647 0.99626 0.0
C1255 C 0.15762 0.06112 0.98107 0.0
C1256 C 0.16424 0.01479 0.99122 0.0
C1257 C 0.15154 0.0421 0.97112 0.0
C1258 C 0.15961 0.97163 0.98607 0.0
C1259 C 0.16907 0.96285 0.01864 0.0
N1260 N 0.15484 0.01985 0.97638 0.0
N1261 N 0.17022 0.98496 0.0126 0.0
H1262 H 0.8237 0.41523 0.73608 0.0
H1263 H 0.68891 0.41234 0.76136 0.0
H1264 H 0.79971 0.41693 0.78593 0.0
H1265 H 0.71251 0.4198 0.71168 0.0
H1266 H 0.72928 0.41711 0.7707 0.0
H1267 H 0.78321 0.42003 0.72689 0.0
C1268 C 0.80997 0.41698 0.74509 0.0
C1269 C 0.8151 0.41554 0.76179 0.0
C1270 C 0.7256 0.418 0.75776 0.0
C1271 C 0.76867 0.4207 0.75138 0.0
C1272 C 0.70252 0.41534 0.75244 0.0
C1273 C 0.69732 0.41555 0.73572 0.0
C1274 C 0.74367 0.42068 0.74628 0.0
C1275 C 0.71571 0.41945 0.72469 0.0
C1276 C 0.78684 0.41966 0.73984 0.0
C1277 C 0.79658 0.41785 0.77293 0.0
N1278 N 0.73805 0.42159 0.73015 0.0
N1279 N 0.77423 0.42005 0.76753 0.0
H1280 H 0.1858 0.81206 0.0356 0.0
H1281 H 0.13581 0.69583 0.99413 0.0
H1282 H 0.13589 0.81172 0.99618 0.0
H1283 H 0.18396 0.69562 0.03461 0.0
H1284 H 0.14035 0.73817 0.99198 0.0
H1285 H 0.19003 0.76967 0.03274 0.0
C1286 C 0.17605 0.80314 0.02614 0.0
C1287 C 0.16035 0.81545 0.01619 0.0
C1288 C 0.15019 0.72886 0.00121 0.0
C1289 C 0.16488 0.76685 0.01296 0.0
C1290 C 0.14767 0.70463 0.00239 0.0
C1291 C 0.1594 0.69215 0.01464 0.0
C1292 C 0.16445 0.74081 0.01241 0.0
C1293 C 0.17452 0.70453 0.02501 0.0
C1294 C 0.17839 0.7789 0.02456 0.0
C1295 C 0.14812 0.80294 0.00417 0.0
N1296 N 0.1764 0.72818 0.02378 0.0
N1297 N 0.15047 0.77935 0.00301 0.0
H1298 H 0.5659 0.94074 0.28247 0.0
H1299 H 0.4476 0.88299 0.2496 0.0
H1300 H 0.56302 0.88105 0.25043 0.0
H1301 H 0.44904 0.93964 0.28427 0.0
H1302 H 0.48979 0.88669 0.24619 0.0
H1303 H 0.52343 0.94511 0.27979 0.0
C1304 C 0.55642 0.92885 0.27461 0.0
C1305 C 0.56803 0.9104 0.26675 0.0
C1306 C 0.4809 0.89856 0.25439 0.0
C1307 C 0.51939 0.91514 0.26376 0.0
C1308 C 0.45674 0.89651 0.25629 0.0
C1309 C 0.44475 0.91092 0.26732 0.0
C1310 C 0.49333 0.91503 0.26369 0.0
C1311 C 0.45756 0.92813 0.27565 0.0
C1312 C 0.53214 0.93127 0.27316 0.0
C1313 C 0.55481 0.89544 0.25679 0.0
N1314 N 0.48119 0.92952 0.27382 0.0
N1315 N 0.53124 0.89801 0.25571 0.0
H1316 H 0.36647 0.19799 0.49347 0.0
H1317 H 0.31967 0.31569 0.5347 0.0
H1318 H 0.32199 0.19952 0.5359 0.0
H1319 H 0.3696 0.31367 0.49535 0.0
H1320 H 0.31422 0.27344 0.53193 0.0
H1321 H 0.36151 0.24021 0.49058 0.0
C1322 C 0.35523 0.20712 0.50198 0.0
C1323 C 0.34479 0.19519 0.51504 0.0
C1324 C 0.3261 0.28228 0.52373 0.0
C1325 C 0.33933 0.24371 0.51195 0.0
C1326 C 0.32913 0.30645 0.52525 0.0
C1327 C 0.34527 0.31823 0.51533 0.0
C1328 C 0.33931 0.26976 0.51221 0.0
C1329 C 0.35708 0.30531 0.50333 0.0
C1330 C 0.35252 0.23129 0.50038 0.0
C1331 C 0.33046 0.20799 0.5257 0.0
N1332 N 0.35406 0.28178 0.50223 0.0
N1333 N 0.3284 0.23157 0.52404 0.0
H1334 H 0.94662 0.07502 0.79071 0.0
H1335 H 0.06413 0.11183 0.74459 0.0
H1336 H 0.94783 0.1135 0.74551 0.0
H1337 H 0.06254 0.07806 0.79158 0.0
H1338 H 0.02181 0.10648 0.74234 0.0
H1339 H 0.98893 0.06981 0.78878 0.0
C1340 C 0.95571 0.08199 0.7802 0.0
C1341 C 0.94365 0.09487 0.76831 0.0
C1342 C 0.03075 0.09993 0.75304 0.0
C1343 C 0.99227 0.08926 0.76614 0.0
C1344 C 0.05496 0.10287 0.7543 0.0
C1345 C 0.0669 0.09553 0.76835 0.0
C1346 C 0.01833 0.0896 0.76595 0.0
C1347 C 0.05406 0.0841 0.78056 0.0
C1348 C 0.97993 0.07911 0.77915 0.0
C1349 C 0.95641 0.10351 0.75499 0.0
N1350 N 0.03049 0.08171 0.77916 0.0
N1351 N 0.98002 0.10079 0.75436 0.0
H1352 H 0.19175 0.19519 0.96541 0.0
H1353 H 0.13907 0.3128 0.00308 0.0
H1354 H 0.13632 0.19729 0.00099 0.0
H1355 H 0.18796 0.31124 0.96308 0.0
H1356 H 0.14423 0.2707 0.00655 0.0
H1357 H 0.19677 0.23745 0.9685 0.0
C1358 C 0.18098 0.20444 0.97415 0.0
C1359 C 0.16344 0.1927 0.98285 0.0
C1360 C 0.15413 0.2796 0.99718 0.0
C1361 C 0.16891 0.24115 0.98631 0.0
C1362 C 0.15129 0.3037 0.99525 0.0
C1363 C 0.16293 0.31556 0.98266 0.0
C1364 C 0.16867 0.26719 0.98642 0.0
C1365 C 0.17853 0.30281 0.97289 0.0
C1366 C 0.18377 0.22861 0.97583 0.0
C1367 C 0.14996 0.20563 0.99395 0.0
N1368 N 0.18072 0.27929 0.97484 0.0
N1369 N 0.1528 0.22916 0.99523 0.0
H1370 H 0.94826 0.93982 0.2127 0.0
H1371 H 0.06469 0.88313 0.24945 0.0
H1372 H 0.94907 0.88421 0.24817 0.0
H1373 H 0.06518 0.93831 0.21366 0.0
H1374 H 0.02239 0.88726 0.25187 0.0
H1375 H 0.99076 0.94349 0.21557 0.0
C1376 C 0.95731 0.92868 0.22131 0.0
C1377 C 0.94509 0.91158 0.23013 0.0
C1378 C 0.03172 0.89871 0.24362 0.0
C1379 C 0.99377 0.91549 0.23334 0.0
C1380 C 0.05594 0.8964 0.24228 0.0
C1381 C 0.06852 0.9103 0.23126 0.0
C1382 C 0.01983 0.91492 0.23378 0.0
C1383 C 0.05619 0.9272 0.22229 0.0
C1384 C 0.98159 0.93071 0.22289 0.0
C1385 C 0.95775 0.89757 0.24106 0.0
N1386 N 0.03251 0.92885 0.22361 0.0
N1387 N 0.98136 0.89968 0.24223 0.0
H1388 H 0.32468 0.69798 0.45681 0.0
H1389 H 0.36064 0.81433 0.50474 0.0
H1390 H 0.36085 0.69787 0.50297 0.0
H1391 H 0.32765 0.8138 0.45743 0.0
H1392 H 0.35513 0.77197 0.50648 0.0
H1393 H 0.31978 0.74028 0.45907 0.0
C1394 C 0.33121 0.70679 0.46758 0.0
C1395 C 0.34334 0.69434 0.47967 0.0
C1396 C 0.34878 0.78116 0.49582 0.0
C1397 C 0.33812 0.74298 0.48222 0.0
C1398 C 0.35182 0.80539 0.49485 0.0
C1399 C 0.34474 0.81764 0.48086 0.0
C1400 C 0.33862 0.76904 0.48269 0.0
C1401 C 0.33349 0.80508 0.46842 0.0
C1402 C 0.32851 0.731 0.46883 0.0
C1403 C 0.35144 0.70674 0.49334 0.0
N1404 N 0.331 0.78149 0.46955 0.0
N1405 N 0.34893 0.73038 0.49415 0.0
H1406 H 0.4469 0.11695 0.75409 0.0
H1407 H 0.5643 0.07148 0.71163 0.0
H1408 H 0.44799 0.07392 0.7109 0.0
H1409 H 0.56256 0.12139 0.75103 0.0
H1410 H 0.52206 0.06599 0.71453 0.0
H1411 H 0.48923 0.11234 0.75651 0.0
C1412 C 0.45596 0.10611 0.74531 0.0
C1413 C 0.44387 0.09597 0.73219 0.0
C1414 C 0.53097 0.07788 0.7227 0.0
C1415 C 0.4925 0.09089 0.73475 0.0
C1416 C 0.55512 0.08094 0.72111 0.0
C1417 C 0.56697 0.09706 0.73102 0.0
C1418 C 0.51854 0.09103 0.73431 0.0
C1419 C 0.55413 0.10888 0.74306 0.0
C1420 C 0.48019 0.1036 0.74664 0.0
C1421 C 0.45659 0.08215 0.72117 0.0
N1422 N 0.53063 0.1058 0.74425 0.0
N1423 N 0.48022 0.08024 0.72258 0.0
H1424 H 0.81732 0.31339 0.96272 0.0
H1425 H 0.87095 0.19764 0.00196 0.0
H1426 H 0.86822 0.31322 0.00153 0.0
H1427 H 0.81818 0.19698 0.9644 0.0
H1428 H 0.86576 0.23981 0.00477 0.0
H1429 H 0.81298 0.27105 0.96585 0.0
C1430 C 0.82724 0.30453 0.97212 0.0
C1431 C 0.8433 0.31687 0.98179 0.0
C1432 C 0.85503 0.23044 0.99608 0.0
C1433 C 0.83868 0.26831 0.98529 0.0
C1434 C 0.85792 0.2063 0.99452 0.0
C1435 C 0.8451 0.19375 0.98285 0.0
C1436 C 0.83935 0.24226 0.98577 0.0
C1437 C 0.82848 0.20594 0.97354 0.0
C1438 C 0.82483 0.28032 0.97386 0.0
C1439 C 0.85572 0.30443 0.99375 0.0
N1440 N 0.82632 0.22954 0.97503 0.0
N1441 N 0.85336 0.28086 0.99502 0.0
H1442 H 0.65093 0.81296 0.50344 0.0
H1443 H 0.68679 0.69518 0.45724 0.0
H1444 H 0.68514 0.81108 0.45661 0.0
H1445 H 0.64805 0.69671 0.50233 0.0
H1446 H 0.69254 0.7374 0.45931 0.0
H1447 H 0.65589 0.7706 0.50568 0.0
C1448 C 0.65991 0.80372 0.49377 0.0
C1449 C 0.66747 0.8156 0.47976 0.0
C1450 C 0.68307 0.72849 0.46889 0.0
C1451 C 0.67296 0.76697 0.48214 0.0
C1452 C 0.67988 0.70432 0.46775 0.0
C1453 C 0.66676 0.69237 0.47956 0.0
C1454 C 0.673 0.74091 0.4819 0.0
C1455 C 0.65821 0.70519 0.4929 0.0
C1456 C 0.66264 0.77948 0.49502 0.0
C1457 C 0.67893 0.80265 0.4676 0.0
N1458 N 0.66123 0.72877 0.49361 0.0
N1459 N 0.6811 0.77906 0.46899 0.0
H1460 H 0.81873 0.69583 0.03512 0.0
H1461 H 0.86881 0.81236 0.99428 0.0
H1462 H 0.86818 0.69644 0.99545 0.0
H1463 H 0.82109 0.81223 0.03497 0.0
H1464 H 0.864 0.77008 0.99181 0.0
H1465 H 0.81458 0.73824 0.03252 0.0
C1466 C 0.82838 0.70481 0.02565 0.0
C1467 C 0.84395 0.69256 0.01556 0.0
C1468 C 0.85432 0.7793 0.00115 0.0
C1469 C 0.83952 0.74122 0.01265 0.0
C1470 C 0.85699 0.8035 0.00253 0.0
C1471 C 0.84546 0.81587 0.01493 0.0
C1472 C 0.8401 0.76727 0.01231 0.0
C1473 C 0.83038 0.80341 0.02526 0.0
C1474 C 0.82608 0.72907 0.02422 0.0
C1475 C 0.85604 0.70516 0.00354 0.0
N1476 N 0.82834 0.77979 0.02384 0.0
N1477 N 0.85376 0.72878 0.00254 0.0
H1478 H 0.6896 0.31305 0.5346 0.0
H1479 H 0.64122 0.19579 0.49364 0.0
H1480 H 0.6389 0.3115 0.49568 0.0
H1481 H 0.68868 0.19662 0.53452 0.0
H1482 H 0.64552 0.23811 0.49116 0.0
H1483 H 0.69473 0.27076 0.53172 0.0
C1484 C 0.67988 0.3039 0.52523 0.0
C1485 C 0.66366 0.31583 0.51544 0.0
C1486 C 0.65528 0.22904 0.50054 0.0
C1487 C 0.66924 0.26733 0.51221 0.0
C1488 C 0.65291 0.20481 0.50191 0.0
C1489 C 0.66448 0.19263 0.51439 0.0
C1490 C 0.66922 0.24128 0.51177 0.0
C1491 C 0.67938 0.20529 0.52475 0.0
C1492 C 0.68273 0.27971 0.52364 0.0
C1493 C 0.65151 0.30303 0.50355 0.0
N1494 N 0.6811 0.22894 0.52334 0.0
N1495 N 0.65436 0.27949 0.50238 0.0
H1496 H 0.94751 0.44016 0.786 0.0
H1497 H 0.06544 0.39812 0.74249 0.0
H1498 H 0.94948 0.39339 0.74477 0.0
H1499 H 0.06368 0.43809 0.78707 0.0
H1500 H 0.02306 0.40254 0.74008 0.0
H1501 H 0.98975 0.44577 0.78349 0.0
C1502 C 0.95674 0.43142 0.77622 0.0
C1503 C 0.94493 0.41614 0.76565 0.0
C1504 C 0.03197 0.41065 0.75027 0.0
C1505 C 0.99342 0.42228 0.76282 0.0
C1506 C 0.05622 0.40825 0.75159 0.0
C1507 C 0.06814 0.4176 0.76507 0.0
C1508 C 0.01948 0.42247 0.76251 0.0
C1509 C 0.05522 0.4305 0.77652 0.0
C1510 C 0.98091 0.43454 0.77484 0.0
C1511 C 0.95786 0.40524 0.75323 0.0
N1512 N 0.03159 0.43233 0.77507 0.0
N1513 N 0.9814 0.40834 0.75227 0.0
H1514 H 0.44964 0.57063 0.28183 0.0
H1515 H 0.5662 0.6297 0.24758 0.0
H1516 H 0.45077 0.62919 0.24878 0.0
H1517 H 0.56637 0.57228 0.2816 0.0
H1518 H 0.524 0.62541 0.24452 0.0
H1519 H 0.49204 0.56665 0.2786 0.0
C1520 C 0.45872 0.58234 0.27363 0.0
C1521 C 0.44664 0.60039 0.26566 0.0
C1522 C 0.53325 0.61351 0.2525 0.0
C1523 C 0.49522 0.59613 0.26206 0.0
C1524 C 0.55741 0.6159 0.2542 0.0
C1525 C 0.56984 0.60144 0.26495 0.0
C1526 C 0.52127 0.59664 0.26172 0.0
C1527 C 0.55748 0.58384 0.2732 0.0
C1528 C 0.48296 0.58014 0.27186 0.0
C1529 C 0.45935 0.61511 0.25524 0.0
N1530 N 0.53385 0.58213 0.27158 0.0
N1531 N 0.48291 0.61281 0.25388 0.0
H1532 H 0.4479 0.44065 0.71212 0.0
H1533 H 0.56476 0.39122 0.75284 0.0
H1534 H 0.44894 0.39202 0.75228 0.0
H1535 H 0.56426 0.43913 0.71226 0.0
H1536 H 0.52253 0.39619 0.75556 0.0
H1537 H 0.49028 0.44521 0.71472 0.0
C1538 C 0.45697 0.43129 0.7217 0.0
C1539 C 0.44485 0.41579 0.73192 0.0
C1540 C 0.53166 0.4059 0.7462 0.0
C1541 C 0.49347 0.42067 0.73483 0.0
C1542 C 0.55583 0.40313 0.74468 0.0
C1543 C 0.56807 0.41465 0.73222 0.0
C1544 C 0.51953 0.42017 0.73511 0.0
C1545 C 0.55554 0.42985 0.72201 0.0
C1546 C 0.4812 0.43381 0.72313 0.0
C1547 C 0.45755 0.40407 0.74409 0.0
N1548 N 0.53194 0.43194 0.72355 0.0
N1549 N 0.48115 0.40655 0.74507 0.0
H1550 H 0.95065 0.62814 0.24962 0.0
H1551 H 0.06743 0.57139 0.21337 0.0
H1552 H 0.95051 0.57343 0.21343 0.0
H1553 H 0.06618 0.62871 0.24751 0.0
H1554 H 0.02496 0.56753 0.2163 0.0
H1555 H 0.99296 0.62416 0.25211 0.0
C1556 C 0.95948 0.615 0.24238 0.0
C1557 C 0.94701 0.60121 0.23122 0.0
C1558 C 0.03403 0.58074 0.22332 0.0
C1559 C 0.99569 0.59675 0.23383 0.0
C1560 C 0.0583 0.58287 0.22172 0.0
C1561 C 0.07037 0.6005 0.23013 0.0
C1562 C 0.02174 0.59635 0.23341 0.0
C1563 C 0.0576 0.61495 0.24072 0.0
C1564 C 0.9837 0.61279 0.24376 0.0
C1565 C 0.95943 0.58447 0.22217 0.0
N1566 N 0.03402 0.61269 0.24193 0.0
N1567 N 0.9831 0.58289 0.22353 0.0
loop_
_geom_bond_atom_site_label_1
_geom_bond_atom_site_label_2
_geom_bond_distance
_geom_bond_site_symmetry_2
_ccdc_geom_bond_type
In0 O1 2.294 . S
In0 O2 2.326 . S
In0 O6 2.266 . S
In0 O7 2.326 . S
In0 O8 2.266 . S
In0 O9 2.326 . S
In0 O11 2.294 . S
In0 O12 2.326 . S
O1 In0 2.294 . S
O1 C10 1.240 . S
O2 In0 2.326 . S
O2 C10 1.252 . S
C3 O6 1.252 . S
C3 O7 1.260 . S
C4 O11 1.240 . S
C4 O12 1.252 . S
C5 O8 1.252 . S
C5 O9 1.260 . S
O6 In0 2.266 . S
O6 C3 1.252 . S
O7 In0 2.326 . S
O7 C3 1.260 . S
O8 In0 2.266 . S
O8 C5 1.252 . S
O9 In0 2.326 . S
O9 C5 1.260 . S
C10 O1 1.240 . S
C10 O2 1.252 . S
O11 In0 2.294 . S
O11 C4 1.240 . S
O12 In0 2.326 . S
O12 C4 1.252 . S
In13 O14 2.294 . S
In13 O15 2.326 . S
In13 O19 2.266 . S
In13 O20 2.326 . S
In13 O21 2.266 . S
In13 O22 2.326 . S
In13 O24 2.294 . S
In13 O25 2.326 . S
O14 In13 2.294 . S
O14 C23 1.240 . S
O15 In13 2.326 . S
O15 C23 1.252 . S
C16 O19 1.252 . S
C16 O20 1.260 . S
C17 O24 1.240 . S
C17 O25 1.252 . S
C18 O21 1.252 . S
C18 O22 1.260 . S
O19 In13 2.266 . S
O19 C16 1.252 . S
O20 In13 2.326 . S
O20 C16 1.260 . S
O21 In13 2.266 . S
O21 C18 1.252 . S
O22 In13 2.326 . S
O22 C18 1.260 . S
C23 O14 1.240 . S
C23 O15 1.252 . S
O24 In13 2.294 . S
O24 C17 1.240 . S
O25 In13 2.326 . S
O25 C17 1.252 . S
In26 O27 2.294 . S
In26 O28 2.326 . S
In26 O32 2.266 . S
In26 O33 2.326 . S
In26 O34 2.266 . S
In26 O35 2.326 . S
In26 O37 2.294 . S
In26 O38 2.326 . S
O27 In26 2.294 . S
O27 C36 1.240 . S
O28 In26 2.326 . S
O28 C36 1.252 . S
C29 O32 1.252 . S
C29 O33 1.260 . S
C30 O37 1.240 . S
C30 O38 1.252 . S
C31 O34 1.252 . S
C31 O35 1.260 . S
O32 In26 2.266 . S
O32 C29 1.252 . S
O33 In26 2.326 . S
O33 C29 1.260 . S
O34 In26 2.266 . S
O34 C31 1.252 . S
O35 In26 2.326 . S
O35 C31 1.260 . S
C36 O27 1.240 . S
C36 O28 1.252 . S
O37 In26 2.294 . S
O37 C30 1.240 . S
O38 In26 2.326 . S
O38 C30 1.252 . S
In39 O40 2.294 . S
In39 O41 2.326 . S
In39 O45 2.266 . S
In39 O46 2.326 . S
In39 O47 2.266 . S
In39 O48 2.326 . S
In39 O50 2.294 . S
In39 O51 2.326 . S
O40 In39 2.294 . S
O40 C49 1.240 . S
O41 In39 2.326 . S
O41 C49 1.252 . S
C42 O45 1.252 . S
C42 O46 1.260 . S
C43 O50 1.240 . S
C43 O51 1.252 . S
C44 O47 1.252 . S
C44 O48 1.260 . S
O45 In39 2.266 . S
O45 C42 1.252 . S
O46 In39 2.326 . S
O46 C42 1.260 . S
O47 In39 2.266 . S
O47 C44 1.252 . S
O48 In39 2.326 . S
O48 C44 1.260 . S
C49 O40 1.240 . S
C49 O41 1.252 . S
O50 In39 2.294 . S
O50 C43 1.240 . S
O51 In39 2.326 . S
O51 C43 1.252 . S
In52 O53 2.294 . S
In52 O54 2.326 . S
In52 O58 2.266 . S
In52 O59 2.326 . S
In52 O60 2.266 . S
In52 O61 2.326 . S
In52 O63 2.294 . S
In52 O64 2.326 . S
O53 In52 2.294 . S
O53 C62 1.240 . S
O54 In52 2.326 . S
O54 C62 1.252 . S
C55 O58 1.252 . S
C55 O59 1.260 . S
C56 O63 1.240 . S
C56 O64 1.252 . S
C57 O60 1.252 . S
C57 O61 1.260 . S
O58 In52 2.266 . S
O58 C55 1.252 . S
O59 In52 2.326 . S
O59 C55 1.260 . S
O60 In52 2.266 . S
O60 C57 1.252 . S
O61 In52 2.326 . S
O61 C57 1.260 . S
C62 O53 1.240 . S
C62 O54 1.252 . S
O63 In52 2.294 . S
O63 C56 1.240 . S
O64 In52 2.326 . S
O64 C56 1.252 . S
In65 O66 2.294 . S
In65 O67 2.326 . S
In65 O71 2.266 . S
In65 O72 2.326 . S
In65 O73 2.266 . S
In65 O74 2.326 . S
In65 O76 2.294 . S
In65 O77 2.326 . S
O66 In65 2.294 . S
O66 C75 1.240 . S
O67 In65 2.326 . S
O67 C75 1.252 . S
C68 O71 1.252 . S
C68 O72 1.260 . S
C69 O76 1.240 . S
C69 O77 1.252 . S
C70 O73 1.252 . S
C70 O74 1.260 . S
O71 In65 2.266 . S
O71 C68 1.252 . S
O72 In65 2.326 . S
O72 C68 1.260 . S
O73 In65 2.266 . S
O73 C70 1.252 . S
O74 In65 2.326 . S
O74 C70 1.260 . S
C75 O66 1.240 . S
C75 O67 1.252 . S
O76 In65 2.294 . S
O76 C69 1.240 . S
O77 In65 2.326 . S
O77 C69 1.252 . S
In78 O79 2.294 . S
In78 O80 2.326 . S
In78 O84 2.266 . S
In78 O85 2.326 . S
In78 O86 2.266 . S
In78 O87 2.326 . S
In78 O89 2.294 . S
In78 O90 2.326 . S
O79 In78 2.294 . S
O79 C88 1.240 . S
O80 In78 2.326 . S
O80 C88 1.252 . S
C81 O84 1.252 . S
C81 O85 1.260 . S
C82 O89 1.240 . S
C82 O90 1.252 . S
C83 O86 1.252 . S
C83 O87 1.260 . S
O84 In78 2.266 . S
O84 C81 1.252 . S
O85 In78 2.326 . S
O85 C81 1.260 . S
O86 In78 2.266 . S
O86 C83 1.252 . S
O87 In78 2.326 . S
O87 C83 1.260 . S
C88 O79 1.240 . S
C88 O80 1.252 . S
O89 In78 2.294 . S
O89 C82 1.240 . S
O90 In78 2.326 . S
O90 C82 1.252 . S
In91 O92 2.294 . S
In91 O93 2.326 . S
In91 O97 2.266 . S
In91 O98 2.326 . S
In91 O99 2.266 . S
In91 O100 2.326 . S
In91 O102 2.294 . S
In91 O103 2.326 . S
O92 In91 2.294 . S
O92 C101 1.240 . S
O93 In91 2.326 . S
O93 C101 1.252 . S
C94 O97 1.252 . S
C94 O98 1.260 . S
C95 O102 1.240 . S
C95 O103 1.252 . S
C96 O99 1.252 . S
C96 O100 1.260 . S
O97 In91 2.266 . S
O97 C94 1.252 . S
O98 In91 2.326 . S
O98 C94 1.260 . S
O99 In91 2.266 . S
O99 C96 1.252 . S
O100 In91 2.326 . S
O100 C96 1.260 . S
C101 O92 1.240 . S
C101 O93 1.252 . S
O102 In91 2.294 . S
O102 C95 1.240 . S
O103 In91 2.326 . S
O103 C95 1.252 . S
In104 O105 2.294 . S
In104 O106 2.326 . S
In104 O110 2.266 . S
In104 O111 2.326 . S
In104 O112 2.266 . S
In104 O113 2.326 . S
In104 O115 2.294 . S
In104 O116 2.326 . S
O105 In104 2.294 . S
O105 C114 1.240 . S
O106 In104 2.326 . S
O106 C114 1.252 . S
C107 O110 1.252 . S
C107 O111 1.260 . S
C108 O115 1.240 . S
C108 O116 1.252 . S
C109 O112 1.252 . S
C109 O113 1.260 . S
O110 In104 2.266 . S
O110 C107 1.252 . S
O111 In104 2.326 . S
O111 C107 1.260 . S
O112 In104 2.266 . S
O112 C109 1.252 . S
O113 In104 2.326 . S
O113 C109 1.260 . S
C114 O105 1.240 . S
C114 O106 1.252 . S
O115 In104 2.294 . S
O115 C108 1.240 . S
O116 In104 2.326 . S
O116 C108 1.252 . S
In117 O118 2.294 . S
In117 O119 2.326 . S
In117 O123 2.266 . S
In117 O124 2.326 . S
In117 O125 2.266 . S
In117 O126 2.326 . S
In117 O128 2.294 . S
In117 O129 2.326 . S
O118 In117 2.294 . S
O118 C127 1.240 . S
O119 In117 2.326 . S
O119 C127 1.252 . S
C120 O123 1.252 . S
C120 O124 1.260 . S
C121 O128 1.240 . S
C121 O129 1.252 . S
C122 O125 1.252 . S
C122 O126 1.260 . S
O123 In117 2.266 . S
O123 C120 1.252 . S
O124 In117 2.326 . S
O124 C120 1.260 . S
O125 In117 2.266 . S
O125 C122 1.252 . S
O126 In117 2.326 . S
O126 C122 1.260 . S
C127 O118 1.240 . S
C127 O119 1.252 . S
O128 In117 2.294 . S
O128 C121 1.240 . S
O129 In117 2.326 . S
O129 C121 1.252 . S
In130 O131 2.294 . S
In130 O132 2.326 . S
In130 O136 2.266 . S
In130 O137 2.326 . S
In130 O138 2.266 . S
In130 O139 2.326 . S
In130 O141 2.294 . S
In130 O142 2.326 . S
O131 In130 2.294 . S
O131 C140 1.240 . S
O132 In130 2.326 . S
O132 C140 1.252 . S
C133 O136 1.252 . S
C133 O137 1.260 . S
C134 O141 1.240 . S
C134 O142 1.252 . S
C135 O138 1.252 . S
C135 O139 1.260 . S
O136 In130 2.266 . S
O136 C133 1.252 . S
O137 In130 2.326 . S
O137 C133 1.260 . S
O138 In130 2.266 . S
O138 C135 1.252 . S
O139 In130 2.326 . S
O139 C135 1.260 . S
C140 O131 1.240 . S
C140 O132 1.252 . S
O141 In130 2.294 . S
O141 C134 1.240 . S
O142 In130 2.326 . S
O142 C134 1.252 . S
In143 O144 2.294 . S
In143 O145 2.326 . S
In143 O149 2.266 . S
In143 O150 2.326 . S
In143 O151 2.266 . S
In143 O152 2.326 . S
In143 O154 2.294 . S
In143 O155 2.326 . S
O144 In143 2.294 . S
O144 C153 1.240 . S
O145 In143 2.326 . S
O145 C153 1.252 . S
C146 O149 1.252 . S
C146 O150 1.260 . S
C147 O154 1.240 . S
C147 O155 1.252 . S
C148 O151 1.252 . S
C148 O152 1.260 . S
O149 In143 2.266 . S
O149 C146 1.252 . S
O150 In143 2.326 . S
O150 C146 1.260 . S
O151 In143 2.266 . S
O151 C148 1.252 . S
O152 In143 2.326 . S
O152 C148 1.260 . S
C153 O144 1.240 . S
C153 O145 1.252 . S
O154 In143 2.294 . S
O154 C147 1.240 . S
O155 In143 2.326 . S
O155 C147 1.252 . S
In156 O157 2.294 . S
In156 O158 2.326 . S
In156 O162 2.266 . S
In156 O163 2.326 . S
In156 O164 2.266 . S
In156 O165 2.326 . S
In156 O167 2.294 . S
In156 O168 2.326 . S
O157 In156 2.294 . S
O157 C166 1.240 . S
O158 In156 2.326 . S
O158 C166 1.252 . S
C159 O162 1.252 . S
C159 O163 1.260 . S
C160 O167 1.240 . S
C160 O168 1.252 . S
C161 O164 1.252 . S
C161 O165 1.260 . S
O162 In156 2.266 . S
O162 C159 1.252 . S
O163 In156 2.326 . S
O163 C159 1.260 . S
O164 In156 2.266 . S
O164 C161 1.252 . S
O165 In156 2.326 . S
O165 C161 1.260 . S
C166 O157 1.240 . S
C166 O158 1.252 . S
O167 In156 2.294 . S
O167 C160 1.240 . S
O168 In156 2.326 . S
O168 C160 1.252 . S
In169 O170 2.294 . S
In169 O171 2.326 . S
In169 O175 2.266 . S
In169 O176 2.326 . S
In169 O177 2.266 . S
In169 O178 2.326 . S
In169 O180 2.294 . S
In169 O181 2.326 . S
O170 In169 2.294 . S
O170 C179 1.240 . S
O171 In169 2.326 . S
O171 C179 1.252 . S
C172 O175 1.252 . S
C172 O176 1.260 . S
C173 O180 1.240 . S
C173 O181 1.252 . S
C174 O177 1.252 . S
C174 O178 1.260 . S
O175 In169 2.266 . S
O175 C172 1.252 . S
O176 In169 2.326 . S
O176 C172 1.260 . S
O177 In169 2.266 . S
O177 C174 1.252 . S
O178 In169 2.326 . S
O178 C174 1.260 . S
C179 O170 1.240 . S
C179 O171 1.252 . S
O180 In169 2.294 . S
O180 C173 1.240 . S
O181 In169 2.326 . S
O181 C173 1.252 . S
In182 O183 2.294 . S
In182 O184 2.326 . S
In182 O188 2.266 . S
In182 O189 2.326 . S
In182 O190 2.266 . S
In182 O191 2.326 . S
In182 O193 2.294 . S
In182 O194 2.326 . S
O183 In182 2.294 . S
O183 C192 1.240 . S
O184 In182 2.326 . S
O184 C192 1.252 . S
C185 O188 1.252 . S
C185 O189 1.260 . S
C186 O193 1.240 . S
C186 O194 1.252 . S
C187 O190 1.252 . S
C187 O191 1.260 . S
O188 In182 2.266 . S
O188 C185 1.252 . S
O189 In182 2.326 . S
O189 C185 1.260 . S
O190 In182 2.266 . S
O190 C187 1.252 . S
O191 In182 2.326 . S
O191 C187 1.260 . S
C192 O183 1.240 . S
C192 O184 1.252 . S
O193 In182 2.294 . S
O193 C186 1.240 . S
O194 In182 2.326 . S
O194 C186 1.252 . S
In195 O196 2.294 . S
In195 O197 2.326 . S
In195 O201 2.266 . S
In195 O202 2.326 . S
In195 O203 2.266 . S
In195 O204 2.326 . S
In195 O206 2.294 . S
In195 O207 2.326 . S
O196 In195 2.294 . S
O196 C205 1.240 . S
O197 In195 2.326 . S
O197 C205 1.252 . S
C198 O201 1.252 . S
C198 O202 1.260 . S
C199 O206 1.240 . S
C199 O207 1.252 . S
C200 O203 1.252 . S
C200 O204 1.260 . S
O201 In195 2.266 . S
O201 C198 1.252 . S
O202 In195 2.326 . S
O202 C198 1.260 . S
O203 In195 2.266 . S
O203 C200 1.252 . S
O204 In195 2.326 . S
O204 C200 1.260 . S
C205 O196 1.240 . S
C205 O197 1.252 . S
O206 In195 2.294 . S
O206 C199 1.240 . S
O207 In195 2.326 . S
O207 C199 1.252 . S
In208 O209 2.294 . S
In208 O210 2.326 . S
In208 O214 2.266 . S
In208 O215 2.326 . S
In208 O216 2.266 . S
In208 O217 2.326 . S
In208 O219 2.294 . S
In208 O220 2.326 . S
O209 In208 2.294 . S
O209 C218 1.240 . S
O210 In208 2.326 . S
O210 C218 1.252 . S
C211 O214 1.252 . S
C211 O215 1.260 . S
C212 O219 1.240 . S
C212 O220 1.252 . S
C213 O216 1.252 . S
C213 O217 1.260 . S
O214 In208 2.266 . S
O214 C211 1.252 . S
O215 In208 2.326 . S
O215 C211 1.260 . S
O216 In208 2.266 . S
O216 C213 1.252 . S
O217 In208 2.326 . S
O217 C213 1.260 . S
C218 O209 1.240 . S
C218 O210 1.252 . S
O219 In208 2.294 . S
O219 C212 1.240 . S
O220 In208 2.326 . S
O220 C212 1.252 . S
In221 O222 2.294 . S
In221 O223 2.326 . S
In221 O227 2.266 . S
In221 O228 2.326 . S
In221 O229 2.266 . S
In221 O230 2.326 . S
In221 O232 2.294 . S
In221 O233 2.326 . S
O222 In221 2.294 . S
O222 C231 1.240 . S
O223 In221 2.326 . S
O223 C231 1.252 . S
C224 O227 1.252 . S
C224 O228 1.260 . S
C225 O232 1.240 . S
C225 O233 1.252 . S
C226 O229 1.252 . S
C226 O230 1.260 . S
O227 In221 2.266 . S
O227 C224 1.252 . S
O228 In221 2.326 . S
O228 C224 1.260 . S
O229 In221 2.266 . S
O229 C226 1.252 . S
O230 In221 2.326 . S
O230 C226 1.260 . S
C231 O222 1.240 . S
C231 O223 1.252 . S
O232 In221 2.294 . S
O232 C225 1.240 . S
O233 In221 2.326 . S
O233 C225 1.252 . S
In234 O235 2.294 . S
In234 O236 2.326 . S
In234 O240 2.266 . S
In234 O241 2.326 . S
In234 O242 2.266 . S
In234 O243 2.326 . S
In234 O245 2.294 . S
In234 O246 2.326 . S
O235 In234 2.294 . S
O235 C244 1.240 . S
O236 In234 2.326 . S
O236 C244 1.252 . S
C237 O240 1.252 . S
C237 O241 1.260 . S
C238 O245 1.240 . S
C238 O246 1.252 . S
C239 O242 1.252 . S
C239 O243 1.260 . S
O240 In234 2.266 . S
O240 C237 1.252 . S
O241 In234 2.326 . S
O241 C237 1.260 . S
O242 In234 2.266 . S
O242 C239 1.252 . S
O243 In234 2.326 . S
O243 C239 1.260 . S
C244 O235 1.240 . S
C244 O236 1.252 . S
O245 In234 2.294 . S
O245 C238 1.240 . S
O246 In234 2.326 . S
O246 C238 1.252 . S
In247 O248 2.294 . S
In247 O249 2.326 . S
In247 O253 2.266 . S
In247 O254 2.326 . S
In247 O255 2.266 . S
In247 O256 2.326 . S
In247 O258 2.294 . S
In247 O259 2.326 . S
O248 In247 2.294 . S
O248 C257 1.240 . S
O249 In247 2.326 . S
O249 C257 1.252 . S
C250 O253 1.252 . S
C250 O254 1.260 . S
C251 O258 1.240 . S
C251 O259 1.252 . S
C252 O255 1.252 . S
C252 O256 1.260 . S
O253 In247 2.266 . S
O253 C250 1.252 . S
O254 In247 2.326 . S
O254 C250 1.260 . S
O255 In247 2.266 . S
O255 C252 1.252 . S
O256 In247 2.326 . S
O256 C252 1.260 . S
C257 O248 1.240 . S
C257 O249 1.252 . S
O258 In247 2.294 . S
O258 C251 1.240 . S
O259 In247 2.326 . S
O259 C251 1.252 . S
In260 O261 2.294 . S
In260 O262 2.326 . S
In260 O266 2.266 . S
In260 O267 2.326 . S
In260 O268 2.266 . S
In260 O269 2.326 . S
In260 O271 2.294 . S
In260 O272 2.326 . S
O261 In260 2.294 . S
O261 C270 1.240 . S
O262 In260 2.326 . S
O262 C270 1.252 . S
C263 O266 1.252 . S
C263 O267 1.260 . S
C264 O271 1.240 . S
C264 O272 1.252 . S
C265 O268 1.252 . S
C265 O269 1.260 . S
O266 In260 2.266 . S
O266 C263 1.252 . S
O267 In260 2.326 . S
O267 C263 1.260 . S
O268 In260 2.266 . S
O268 C265 1.252 . S
O269 In260 2.326 . S
O269 C265 1.260 . S
C270 O261 1.240 . S
C270 O262 1.252 . S
O271 In260 2.294 . S
O271 C264 1.240 . S
O272 In260 2.326 . S
O272 C264 1.252 . S
In273 O274 2.294 . S
In273 O275 2.326 . S
In273 O279 2.266 . S
In273 O280 2.326 . S
In273 O281 2.266 . S
In273 O282 2.326 . S
In273 O284 2.294 . S
In273 O285 2.326 . S
O274 In273 2.294 . S
O274 C283 1.240 . S
O275 In273 2.326 . S
O275 C283 1.252 . S
C276 O279 1.252 . S
C276 O280 1.260 . S
C277 O284 1.240 . S
C277 O285 1.252 . S
C278 O281 1.252 . S
C278 O282 1.260 . S
O279 In273 2.266 . S
O279 C276 1.252 . S
O280 In273 2.326 . S
O280 C276 1.260 . S
O281 In273 2.266 . S
O281 C278 1.252 . S
O282 In273 2.326 . S
O282 C278 1.260 . S
C283 O274 1.240 . S
C283 O275 1.252 . S
O284 In273 2.294 . S
O284 C277 1.240 . S
O285 In273 2.326 . S
O285 C277 1.252 . S
In286 O287 2.294 . S
In286 O288 2.326 . S
In286 O292 2.266 . S
In286 O293 2.326 . S
In286 O294 2.266 . S
In286 O295 2.326 . S
In286 O297 2.294 . S
In286 O298 2.326 . S
O287 In286 2.294 . S
O287 C296 1.240 . S
O288 In286 2.326 . S
O288 C296 1.252 . S
C289 O292 1.252 . S
C289 O293 1.260 . S
C290 O297 1.240 . S
C290 O298 1.252 . S
C291 O294 1.252 . S
C291 O295 1.260 . S
O292 In286 2.266 . S
O292 C289 1.252 . S
O293 In286 2.326 . S
O293 C289 1.260 . S
O294 In286 2.266 . S
O294 C291 1.252 . S
O295 In286 2.326 . S
O295 C291 1.260 . S
C296 O287 1.240 . S
C296 O288 1.252 . S
O297 In286 2.294 . S
O297 C290 1.240 . S
O298 In286 2.326 . S
O298 C290 1.252 . S
In299 O300 2.294 . S
In299 O301 2.326 . S
In299 O305 2.266 . S
In299 O306 2.326 . S
In299 O307 2.266 . S
In299 O308 2.326 . S
In299 O310 2.294 . S
In299 O311 2.326 . S
O300 In299 2.294 . S
O300 C309 1.240 . S
O301 In299 2.326 . S
O301 C309 1.252 . S
C302 O305 1.252 . S
C302 O306 1.260 . S
C303 O310 1.240 . S
C303 O311 1.252 . S
C304 O307 1.252 . S
C304 O308 1.260 . S
O305 In299 2.266 . S
O305 C302 1.252 . S
O306 In299 2.326 . S
O306 C302 1.260 . S
O307 In299 2.266 . S
O307 C304 1.252 . S
O308 In299 2.326 . S
O308 C304 1.260 . S
C309 O300 1.240 . S
C309 O301 1.252 . S
O310 In299 2.294 . S
O310 C303 1.240 . S
O311 In299 2.326 . S
O311 C303 1.252 . S
In312 O313 2.294 . S
In312 O314 2.326 . S
In312 O318 2.266 . S
In312 O319 2.326 . S
In312 O320 2.266 . S
In312 O321 2.326 . S
In312 O323 2.294 . S
In312 O324 2.326 . S
O313 In312 2.294 . S
O313 C322 1.240 . S
O314 In312 2.326 . S
O314 C322 1.252 . S
C315 O318 1.252 . S
C315 O319 1.260 . S
C316 O323 1.240 . S
C316 O324 1.252 . S
C317 O320 1.252 . S
C317 O321 1.260 . S
O318 In312 2.266 . S
O318 C315 1.252 . S
O319 In312 2.326 . S
O319 C315 1.260 . S
O320 In312 2.266 . S
O320 C317 1.252 . S
O321 In312 2.326 . S
O321 C317 1.260 . S
C322 O313 1.240 . S
C322 O314 1.252 . S
O323 In312 2.294 . S
O323 C316 1.240 . S
O324 In312 2.326 . S
O324 C316 1.252 . S
In325 O326 2.294 . S
In325 O327 2.326 . S
In325 O331 2.266 . S
In325 O332 2.326 . S
In325 O333 2.266 . S
In325 O334 2.326 . S
In325 O336 2.294 . S
In325 O337 2.326 . S
O326 In325 2.294 . S
O326 C335 1.240 . S
O327 In325 2.326 . S
O327 C335 1.252 . S
C328 O331 1.252 . S
C328 O332 1.260 . S
C329 O336 1.240 . S
C329 O337 1.252 . S
C330 O333 1.252 . S
C330 O334 1.260 . S
O331 In325 2.266 . S
O331 C328 1.252 . S
O332 In325 2.326 . S
O332 C328 1.260 . S
O333 In325 2.266 . S
O333 C330 1.252 . S
O334 In325 2.326 . S
O334 C330 1.260 . S
C335 O326 1.240 . S
C335 O327 1.252 . S
O336 In325 2.294 . S
O336 C329 1.240 . S
O337 In325 2.326 . S
O337 C329 1.252 . S
In338 O339 2.294 . S
In338 O340 2.326 . S
In338 O344 2.266 . S
In338 O345 2.326 . S
In338 O346 2.266 . S
In338 O347 2.326 . S
In338 O349 2.294 . S
In338 O350 2.326 . S
O339 In338 2.294 . S
O339 C348 1.240 . S
O340 In338 2.326 . S
O340 C348 1.252 . S
C341 O344 1.252 . S
C341 O345 1.260 . S
C342 O349 1.240 . S
C342 O350 1.252 . S
C343 O346 1.252 . S
C343 O347 1.260 . S
O344 In338 2.266 . S
O344 C341 1.252 . S
O345 In338 2.326 . S
O345 C341 1.260 . S
O346 In338 2.266 . S
O346 C343 1.252 . S
O347 In338 2.326 . S
O347 C343 1.260 . S
C348 O339 1.240 . S
C348 O340 1.252 . S
O349 In338 2.294 . S
O349 C342 1.240 . S
O350 In338 2.326 . S
O350 C342 1.252 . S
In351 O352 2.294 . S
In351 O353 2.326 . S
In351 O357 2.266 . S
In351 O358 2.326 . S
In351 O359 2.266 . S
In351 O360 2.326 . S
In351 O362 2.294 . S
In351 O363 2.326 . S
O352 In351 2.294 . S
O352 C361 1.240 . S
O353 In351 2.326 . S
O353 C361 1.252 . S
C354 O357 1.252 . S
C354 O358 1.260 . S
C355 O362 1.240 . S
C355 O363 1.252 . S
C356 O359 1.252 . S
C356 O360 1.260 . S
O357 In351 2.266 . S
O357 C354 1.252 . S
O358 In351 2.326 . S
O358 C354 1.260 . S
O359 In351 2.266 . S
O359 C356 1.252 . S
O360 In351 2.326 . S
O360 C356 1.260 . S
C361 O352 1.240 . S
C361 O353 1.252 . S
O362 In351 2.294 . S
O362 C355 1.240 . S
O363 In351 2.326 . S
O363 C355 1.252 . S
In364 O365 2.294 . S
In364 O366 2.326 . S
In364 O370 2.266 . S
In364 O371 2.326 . S
In364 O372 2.266 . S
In364 O373 2.326 . S
In364 O375 2.294 . S
In364 O376 2.326 . S
O365 In364 2.294 . S
O365 C374 1.240 . S
O366 In364 2.326 . S
O366 C374 1.252 . S
C367 O370 1.252 . S
C367 O371 1.260 . S
C368 O375 1.240 . S
C368 O376 1.252 . S
C369 O372 1.252 . S
C369 O373 1.260 . S
O370 In364 2.266 . S
O370 C367 1.252 . S
O371 In364 2.326 . S
O371 C367 1.260 . S
O372 In364 2.266 . S
O372 C369 1.252 . S
O373 In364 2.326 . S
O373 C369 1.260 . S
C374 O365 1.240 . S
C374 O366 1.252 . S
O375 In364 2.294 . S
O375 C368 1.240 . S
O376 In364 2.326 . S
O376 C368 1.252 . S
In377 O378 2.294 . S
In377 O379 2.326 . S
In377 O383 2.266 . S
In377 O384 2.326 . S
In377 O385 2.266 . S
In377 O386 2.326 . S
In377 O388 2.294 . S
In377 O389 2.326 . S
O378 In377 2.294 . S
O378 C387 1.240 . S
O379 In377 2.326 . S
O379 C387 1.252 . S
C380 O383 1.252 . S
C380 O384 1.260 . S
C381 O388 1.240 . S
C381 O389 1.252 . S
C382 O385 1.252 . S
C382 O386 1.260 . S
O383 In377 2.266 . S
O383 C380 1.252 . S
O384 In377 2.326 . S
O384 C380 1.260 . S
O385 In377 2.266 . S
O385 C382 1.252 . S
O386 In377 2.326 . S
O386 C382 1.260 . S
C387 O378 1.240 . S
C387 O379 1.252 . S
O388 In377 2.294 . S
O388 C381 1.240 . S
O389 In377 2.326 . S
O389 C381 1.252 . S
In390 O391 2.294 . S
In390 O392 2.326 . S
In390 O396 2.266 . S
In390 O397 2.326 . S
In390 O398 2.266 . S
In390 O399 2.326 . S
In390 O401 2.294 . S
In390 O402 2.326 . S
O391 In390 2.294 . S
O391 C400 1.240 . S
O392 In390 2.326 . S
O392 C400 1.252 . S
C393 O396 1.252 . S
C393 O397 1.260 . S
C394 O401 1.240 . S
C394 O402 1.252 . S
C395 O398 1.252 . S
C395 O399 1.260 . S
O396 In390 2.266 . S
O396 C393 1.252 . S
O397 In390 2.326 . S
O397 C393 1.260 . S
O398 In390 2.266 . S
O398 C395 1.252 . S
O399 In390 2.326 . S
O399 C395 1.260 . S
C400 O391 1.240 . S
C400 O392 1.252 . S
O401 In390 2.294 . S
O401 C394 1.240 . S
O402 In390 2.326 . S
O402 C394 1.252 . S
In403 O404 2.294 . S
In403 O405 2.326 . S
In403 O409 2.266 . S
In403 O410 2.326 . S
In403 O411 2.266 . S
In403 O412 2.326 . S
In403 O414 2.294 . S
In403 O415 2.326 . S
O404 In403 2.294 . S
O404 C413 1.240 . S
O405 In403 2.326 . S
O405 C413 1.252 . S
C406 O409 1.252 . S
C406 O410 1.260 . S
C407 O414 1.240 . S
C407 O415 1.252 . S
C408 O411 1.252 . S
C408 O412 1.260 . S
O409 In403 2.266 . S
O409 C406 1.252 . S
O410 In403 2.326 . S
O410 C406 1.260 . S
O411 In403 2.266 . S
O411 C408 1.252 . S
O412 In403 2.326 . S
O412 C408 1.260 . S
C413 O404 1.240 . S
C413 O405 1.252 . S
O414 In403 2.294 . S
O414 C407 1.240 . S
O415 In403 2.326 . S
O415 C407 1.252 . S
H416 C422 0.930 . S
H417 C426 0.930 . S
H418 C431 0.929 . S
H419 C429 0.929 . S
H420 C424 0.929 . S
H421 C430 0.929 . S
C422 H416 0.930 . S
C422 C423 1.367 . S
C422 C430 1.378 . S
C423 C422 1.367 . S
C423 C431 1.433 . S
C424 H420 0.929 . S
C424 C426 1.378 . S
C424 C428 1.350 . S
C425 C428 1.463 . S
C425 C430 1.350 . S
C425 N433 1.427 . S
C426 H417 0.930 . S
C426 C424 1.378 . S
C426 C427 1.367 . S
C427 C426 1.367 . S
C427 C429 1.433 . S
C428 C424 1.350 . S
C428 C425 1.463 . S
C428 N432 1.427 . S
C429 H419 0.929 . S
C429 C427 1.433 . S
C429 N432 1.384 . S
C430 H421 0.929 . S
C430 C422 1.378 . S
C430 C425 1.350 . S
C431 H418 0.929 . S
C431 C423 1.433 . S
C431 N433 1.384 . S
N432 C428 1.427 . S
N432 C429 1.384 . S
N433 C425 1.427 . S
N433 C431 1.384 . S
H434 C440 0.930 . S
H435 C444 0.930 . S
H436 C449 0.929 . S
H437 C447 0.929 . S
H438 C442 0.929 . S
H439 C448 0.929 . S
C440 H434 0.930 . S
C440 C441 1.367 . S
C440 C448 1.378 . S
C441 C440 1.367 . S
C441 C449 1.433 . S
C442 H438 0.929 . S
C442 C444 1.378 . S
C442 C446 1.350 . S
C443 C446 1.463 . S
C443 C448 1.350 . S
C443 N451 1.427 . S
C444 H435 0.930 . S
C444 C442 1.378 . S
C444 C445 1.367 . S
C445 C444 1.367 . S
C445 C447 1.433 . S
C446 C442 1.350 . S
C446 C443 1.463 . S
C446 N450 1.427 . S
C447 H437 0.929 . S
C447 C445 1.433 . S
C447 N450 1.384 . S
C448 H439 0.929 . S
C448 C440 1.378 . S
C448 C443 1.350 . S
C449 H436 0.929 . S
C449 C441 1.433 . S
C449 N451 1.384 . S
N450 C446 1.427 . S
N450 C447 1.384 . S
N451 C443 1.427 . S
N451 C449 1.384 . S
H452 C458 0.930 . S
H453 C462 0.930 . S
H454 C467 0.929 . S
H455 C465 0.929 . S
H456 C460 0.929 . S
H457 C466 0.929 . S
C458 H452 0.930 . S
C458 C459 1.367 . S
C458 C466 1.378 . S
C459 C458 1.367 . S
C459 C467 1.433 . S
C460 H456 0.929 . S
C460 C462 1.378 . S
C460 C464 1.350 . S
C461 C464 1.463 . S
C461 C466 1.350 . S
C461 N469 1.427 . S
C462 H453 0.930 . S
C462 C460 1.378 . S
C462 C463 1.367 . S
C463 C462 1.367 . S
C463 C465 1.433 . S
C464 C460 1.350 . S
C464 C461 1.463 . S
C464 N468 1.427 . S
C465 H455 0.929 . S
C465 C463 1.433 . S
C465 N468 1.384 . S
C466 H457 0.929 . S
C466 C458 1.378 . S
C466 C461 1.350 . S
C467 H454 0.929 . S
C467 C459 1.433 . S
C467 N469 1.384 . S
N468 C464 1.427 . S
N468 C465 1.384 . S
N469 C461 1.427 . S
N469 C467 1.384 . S
H470 C476 0.930 . S
H471 C480 0.930 . S
H472 C485 0.929 . S
H473 C483 0.929 . S
H474 C478 0.929 . S
H475 C484 0.929 . S
C476 H470 0.930 . S
C476 C477 1.367 . S
C476 C484 1.378 . S
C477 C476 1.367 . S
C477 C485 1.433 . S
C478 H474 0.929 . S
C478 C480 1.378 . S
C478 C482 1.350 . S
C479 C482 1.463 . S
C479 C484 1.350 . S
C479 N487 1.427 . S
C480 H471 0.930 . S
C480 C478 1.378 . S
C480 C481 1.367 . S
C481 C480 1.367 . S
C481 C483 1.433 . S
C482 C478 1.350 . S
C482 C479 1.463 . S
C482 N486 1.427 . S
C483 H473 0.929 . S
C483 C481 1.433 . S
C483 N486 1.384 . S
C484 H475 0.929 . S
C484 C476 1.378 . S
C484 C479 1.350 . S
C485 H472 0.929 . S
C485 C477 1.433 . S
C485 N487 1.384 . S
N486 C482 1.427 . S
N486 C483 1.384 . S
N487 C479 1.427 . S
N487 C485 1.384 . S
H488 C494 0.930 . S
H489 C498 0.930 . S
H490 C503 0.929 . S
H491 C501 0.929 . S
H492 C496 0.929 . S
H493 C502 0.929 . S
C494 H488 0.930 . S
C494 C495 1.367 . S
C494 C502 1.378 . S
C495 C494 1.367 . S
C495 C503 1.433 . S
C496 H492 0.929 . S
C496 C498 1.378 . S
C496 C500 1.350 . S
C497 C500 1.463 . S
C497 C502 1.350 . S
C497 N505 1.427 . S
C498 H489 0.930 . S
C498 C496 1.378 . S
C498 C499 1.367 . S
C499 C498 1.367 . S
C499 C501 1.433 . S
C500 C496 1.350 . S
C500 C497 1.463 . S
C500 N504 1.427 . S
C501 H491 0.929 . S
C501 C499 1.433 . S
C501 N504 1.384 . S
C502 H493 0.929 . S
C502 C494 1.378 . S
C502 C497 1.350 . S
C503 H490 0.929 . S
C503 C495 1.433 . S
C503 N505 1.384 . S
N504 C500 1.427 . S
N504 C501 1.384 . S
N505 C497 1.427 . S
N505 C503 1.384 . S
H506 C512 0.930 . S
H507 C516 0.930 . S
H508 C521 0.929 . S
H509 C519 0.929 . S
H510 C514 0.929 . S
H511 C520 0.929 . S
C512 H506 0.930 . S
C512 C513 1.367 . S
C512 C520 1.378 . S
C513 C512 1.367 . S
C513 C521 1.433 . S
C514 H510 0.929 . S
C514 C516 1.378 . S
C514 C518 1.350 . S
C515 C518 1.463 . S
C515 C520 1.350 . S
C515 N523 1.427 . S
C516 H507 0.930 . S
C516 C514 1.378 . S
C516 C517 1.367 . S
C517 C516 1.367 . S
C517 C519 1.433 . S
C518 C514 1.350 . S
C518 C515 1.463 . S
C518 N522 1.427 . S
C519 H509 0.929 . S
C519 C517 1.433 . S
C519 N522 1.384 . S
C520 H511 0.929 . S
C520 C512 1.378 . S
C520 C515 1.350 . S
C521 H508 0.929 . S
C521 C513 1.433 . S
C521 N523 1.384 . S
N522 C518 1.427 . S
N522 C519 1.384 . S
N523 C515 1.427 . S
N523 C521 1.384 . S
H524 C530 0.930 . S
H525 C534 0.930 . S
H526 C539 0.929 . S
H527 C537 0.929 . S
H528 C532 0.929 . S
H529 C538 0.929 . S
C530 H524 0.930 . S
C530 C531 1.367 . S
C530 C538 1.378 . S
C531 C530 1.367 . S
C531 C539 1.433 . S
C532 H528 0.929 . S
C532 C534 1.378 . S
C532 C536 1.350 . S
C533 C536 1.463 . S
C533 C538 1.350 . S
C533 N541 1.427 . S
C534 H525 0.930 . S
C534 C532 1.378 . S
C534 C535 1.367 . S
C535 C534 1.367 . S
C535 C537 1.433 . S
C536 C532 1.350 . S
C536 C533 1.463 . S
C536 N540 1.427 . S
C537 H527 0.929 . S
C537 C535 1.433 . S
C537 N540 1.384 . S
C538 H529 0.929 . S
C538 C530 1.378 . S
C538 C533 1.350 . S
C539 H526 0.929 . S
C539 C531 1.433 . S
C539 N541 1.384 . S
N540 C536 1.427 . S
N540 C537 1.384 . S
N541 C533 1.427 . S
N541 C539 1.384 . S
H542 C548 0.930 . S
H543 C552 0.930 . S
H544 C557 0.929 . S
H545 C555 0.929 . S
H546 C550 0.929 . S
H547 C556 0.929 . S
C548 H542 0.930 . S
C548 C549 1.367 . S
C548 C556 1.378 . S
C549 C548 1.367 . S
C549 C557 1.433 . S
C550 H546 0.929 . S
C550 C552 1.378 . S
C550 C554 1.350 . S
C551 C554 1.463 . S
C551 C556 1.350 . S
C551 N559 1.427 . S
C552 H543 0.930 . S
C552 C550 1.378 . S
C552 C553 1.367 . S
C553 C552 1.367 . S
C553 C555 1.433 . S
C554 C550 1.350 . S
C554 C551 1.463 . S
C554 N558 1.427 . S
C555 H545 0.929 . S
C555 C553 1.433 . S
C555 N558 1.384 . S
C556 H547 0.929 . S
C556 C548 1.378 . S
C556 C551 1.350 . S
C557 H544 0.929 . S
C557 C549 1.433 . S
C557 N559 1.384 . S
N558 C554 1.427 . S
N558 C555 1.384 . S
N559 C551 1.427 . S
N559 C557 1.384 . S
H560 C566 0.930 . S
H561 C570 0.930 . S
H562 C575 0.929 . S
H563 C573 0.929 . S
H564 C568 0.929 . S
H565 C574 0.929 . S
C566 H560 0.930 . S
C566 C567 1.367 . S
C566 C574 1.378 . S
C567 C566 1.367 . S
C567 C575 1.433 . S
C568 H564 0.929 . S
C568 C570 1.378 . S
C568 C572 1.350 . S
C569 C572 1.463 . S
C569 C574 1.350 . S
C569 N577 1.427 . S
C570 H561 0.930 . S
C570 C568 1.378 . S
C570 C571 1.367 . S
C571 C570 1.367 . S
C571 C573 1.433 . S
C572 C568 1.350 . S
C572 C569 1.463 . S
C572 N576 1.427 . S
C573 H563 0.929 . S
C573 C571 1.433 . S
C573 N576 1.384 . S
C574 H565 0.929 . S
C574 C566 1.378 . S
C574 C569 1.350 . S
C575 H562 0.929 . S
C575 C567 1.433 . S
C575 N577 1.384 . S
N576 C572 1.427 . S
N576 C573 1.384 . S
N577 C569 1.427 . S
N577 C575 1.384 . S
H578 C584 0.930 . S
H579 C588 0.930 . S
H580 C593 0.929 . S
H581 C591 0.929 . S
H582 C586 0.929 . S
H583 C592 0.929 . S
C584 H578 0.930 . S
C584 C585 1.367 . S
C584 C592 1.378 . S
C585 C584 1.367 . S
C585 C593 1.433 . S
C586 H582 0.929 . S
C586 C588 1.378 . S
C586 C590 1.350 . S
C587 C590 1.463 . S
C587 C592 1.350 . S
C587 N595 1.427 . S
C588 H579 0.930 . S
C588 C586 1.378 . S
C588 C589 1.367 . S
C589 C588 1.367 . S
C589 C591 1.433 . S
C590 C586 1.350 . S
C590 C587 1.463 . S
C590 N594 1.427 . S
C591 H581 0.929 . S
C591 C589 1.433 . S
C591 N594 1.384 . S
C592 H583 0.929 . S
C592 C584 1.378 . S
C592 C587 1.350 . S
C593 H580 0.929 . S
C593 C585 1.433 . S
C593 N595 1.384 . S
N594 C590 1.427 . S
N594 C591 1.384 . S
N595 C587 1.427 . S
N595 C593 1.384 . S
H596 C602 0.930 . S
H597 C606 0.930 . S
H598 C611 0.929 . S
H599 C609 0.929 . S
H600 C604 0.929 . S
H601 C610 0.929 . S
C602 H596 0.930 . S
C602 C603 1.367 . S
C602 C610 1.378 . S
C603 C602 1.367 . S
C603 C611 1.433 . S
C604 H600 0.929 . S
C604 C606 1.378 . S
C604 C608 1.350 . S
C605 C608 1.463 . S
C605 C610 1.350 . S
C605 N613 1.427 . S
C606 H597 0.930 . S
C606 C604 1.378 . S
C606 C607 1.367 . S
C607 C606 1.367 . S
C607 C609 1.433 . S
C608 C604 1.350 . S
C608 C605 1.463 . S
C608 N612 1.427 . S
C609 H599 0.929 . S
C609 C607 1.433 . S
C609 N612 1.384 . S
C610 H601 0.929 . S
C610 C602 1.378 . S
C610 C605 1.350 . S
C611 H598 0.929 . S
C611 C603 1.433 . S
C611 N613 1.384 . S
N612 C608 1.427 . S
N612 C609 1.384 . S
N613 C605 1.427 . S
N613 C611 1.384 . S
H614 C620 0.930 . S
H615 C624 0.930 . S
H616 C629 0.929 . S
H617 C627 0.929 . S
H618 C622 0.929 . S
H619 C628 0.929 . S
C620 H614 0.930 . S
C620 C621 1.367 . S
C620 C628 1.378 . S
C621 C620 1.367 . S
C621 C629 1.433 . S
C622 H618 0.929 . S
C622 C624 1.378 . S
C622 C626 1.350 . S
C623 C626 1.463 . S
C623 C628 1.350 . S
C623 N631 1.427 . S
C624 H615 0.930 . S
C624 C622 1.378 . S
C624 C625 1.367 . S
C625 C624 1.367 . S
C625 C627 1.433 . S
C626 C622 1.350 . S
C626 C623 1.463 . S
C626 N630 1.427 . S
C627 H617 0.929 . S
C627 C625 1.433 . S
C627 N630 1.384 . S
C628 H619 0.929 . S
C628 C620 1.378 . S
C628 C623 1.350 . S
C629 H616 0.929 . S
C629 C621 1.433 . S
C629 N631 1.384 . S
N630 C626 1.427 . S
N630 C627 1.384 . S
N631 C623 1.427 . S
N631 C629 1.384 . S
H632 C638 0.930 . S
H633 C642 0.930 . S
H634 C647 0.929 . S
H635 C645 0.929 . S
H636 C640 0.929 . S
H637 C646 0.929 . S
C638 H632 0.930 . S
C638 C639 1.367 . S
C638 C646 1.378 . S
C639 C638 1.367 . S
C639 C647 1.433 . S
C640 H636 0.929 . S
C640 C642 1.378 . S
C640 C644 1.350 . S
C641 C644 1.463 . S
C641 C646 1.350 . S
C641 N649 1.427 . S
C642 H633 0.930 . S
C642 C640 1.378 . S
C642 C643 1.367 . S
C643 C642 1.367 . S
C643 C645 1.433 . S
C644 C640 1.350 . S
C644 C641 1.463 . S
C644 N648 1.427 . S
C645 H635 0.929 . S
C645 C643 1.433 . S
C645 N648 1.384 . S
C646 H637 0.929 . S
C646 C638 1.378 . S
C646 C641 1.350 . S
C647 H634 0.929 . S
C647 C639 1.433 . S
C647 N649 1.384 . S
N648 C644 1.427 . S
N648 C645 1.384 . S
N649 C641 1.427 . S
N649 C647 1.384 . S
H650 C656 0.930 . S
H651 C660 0.930 . S
H652 C665 0.929 . S
H653 C663 0.929 . S
H654 C658 0.929 . S
H655 C664 0.929 . S
C656 H650 0.930 . S
C656 C657 1.367 . S
C656 C664 1.378 . S
C657 C656 1.367 . S
C657 C665 1.433 . S
C658 H654 0.929 . S
C658 C660 1.378 . S
C658 C662 1.350 . S
C659 C662 1.463 . S
C659 C664 1.350 . S
C659 N667 1.427 . S
C660 H651 0.930 . S
C660 C658 1.378 . S
C660 C661 1.367 . S
C661 C660 1.367 . S
C661 C663 1.433 . S
C662 C658 1.350 . S
C662 C659 1.463 . S
C662 N666 1.427 . S
C663 H653 0.929 . S
C663 C661 1.433 . S
C663 N666 1.384 . S
C664 H655 0.929 . S
C664 C656 1.378 . S
C664 C659 1.350 . S
C665 H652 0.929 . S
C665 C657 1.433 . S
C665 N667 1.384 . S
N666 C662 1.427 . S
N666 C663 1.384 . S
N667 C659 1.427 . S
N667 C665 1.384 . S
H668 C674 0.930 . S
H669 C678 0.930 . S
H670 C683 0.929 . S
H671 C681 0.929 . S
H672 C676 0.929 . S
H673 C682 0.929 . S
C674 H668 0.930 . S
C674 C675 1.367 . S
C674 C682 1.378 . S
C675 C674 1.367 . S
C675 C683 1.433 . S
C676 H672 0.929 . S
C676 C678 1.378 . S
C676 C680 1.350 . S
C677 C680 1.463 . S
C677 C682 1.350 . S
C677 N685 1.427 . S
C678 H669 0.930 . S
C678 C676 1.378 . S
C678 C679 1.367 . S
C679 C678 1.367 . S
C679 C681 1.433 . S
C680 C676 1.350 . S
C680 C677 1.463 . S
C680 N684 1.427 . S
C681 H671 0.929 . S
C681 C679 1.433 . S
C681 N684 1.384 . S
C682 H673 0.929 . S
C682 C674 1.378 . S
C682 C677 1.350 . S
C683 H670 0.929 . S
C683 C675 1.433 . S
C683 N685 1.384 . S
N684 C680 1.427 . S
N684 C681 1.384 . S
N685 C677 1.427 . S
N685 C683 1.384 . S
H686 C692 0.930 . S
H687 C696 0.930 . S
H688 C701 0.929 . S
H689 C699 0.929 . S
H690 C694 0.929 . S
H691 C700 0.929 . S
C692 H686 0.930 . S
C692 C693 1.367 . S
C692 C700 1.378 . S
C693 C692 1.367 . S
C693 C701 1.433 . S
C694 H690 0.929 . S
C694 C696 1.378 . S
C694 C698 1.350 . S
C695 C698 1.463 . S
C695 C700 1.350 . S
C695 N703 1.427 . S
C696 H687 0.930 . S
C696 C694 1.378 . S
C696 C697 1.367 . S
C697 C696 1.367 . S
C697 C699 1.433 . S
C698 C694 1.350 . S
C698 C695 1.463 . S
C698 N702 1.427 . S
C699 H689 0.929 . S
C699 C697 1.433 . S
C699 N702 1.384 . S
C700 H691 0.929 . S
C700 C692 1.378 . S
C700 C695 1.350 . S
C701 H688 0.929 . S
C701 C693 1.433 . S
C701 N703 1.384 . S
N702 C698 1.427 . S
N702 C699 1.384 . S
N703 C695 1.427 . S
N703 C701 1.384 . S
H704 C710 0.930 1_556 S
H705 C714 0.930 . S
H706 C719 0.929 . S
H707 C717 0.929 1_556 S
H708 C712 0.929 . S
H709 C718 0.929 1_556 S
C710 H704 0.930 1_554 S
C710 C711 1.367 . S
C710 C718 1.378 . S
C711 C710 1.367 . S
C711 C719 1.433 . S
C712 H708 0.929 . S
C712 C714 1.378 . S
C712 C716 1.350 . S
C713 C716 1.463 1_455 S
C713 C718 1.350 . S
C713 N721 1.427 . S
C714 H705 0.930 . S
C714 C712 1.378 . S
C714 C715 1.367 . S
C715 C714 1.367 . S
C715 C717 1.433 . S
C716 C712 1.350 . S
C716 C713 1.463 1_655 S
C716 N720 1.427 . S
C717 H707 0.929 1_554 S
C717 C715 1.433 . S
C717 N720 1.384 . S
C718 H709 0.929 1_554 S
C718 C710 1.378 . S
C718 C713 1.350 . S
C719 H706 0.929 . S
C719 C711 1.433 . S
C719 N721 1.384 . S
N720 C716 1.427 . S
N720 C717 1.384 . S
N721 C713 1.427 . S
N721 C719 1.384 . S
H722 C728 0.930 . S
H723 C732 0.930 . S
H724 C737 0.929 . S
H725 C735 0.929 . S
H726 C730 0.929 . S
H727 C736 0.929 . S
C728 H722 0.930 . S
C728 C729 1.367 . S
C728 C736 1.378 . S
C729 C728 1.367 . S
C729 C737 1.433 . S
C730 H726 0.929 . S
C730 C732 1.378 . S
C730 C734 1.350 . S
C731 C734 1.463 . S
C731 C736 1.350 . S
C731 N739 1.427 . S
C732 H723 0.930 . S
C732 C730 1.378 . S
C732 C733 1.367 . S
C733 C732 1.367 . S
C733 C735 1.433 . S
C734 C730 1.350 . S
C734 C731 1.463 . S
C734 N738 1.427 . S
C735 H725 0.929 . S
C735 C733 1.433 . S
C735 N738 1.384 . S
C736 H727 0.929 . S
C736 C728 1.378 . S
C736 C731 1.350 . S
C737 H724 0.929 . S
C737 C729 1.433 . S
C737 N739 1.384 . S
N738 C734 1.427 . S
N738 C735 1.384 . S
N739 C731 1.427 . S
N739 C737 1.384 . S
H740 C746 0.930 . S
H741 C750 0.930 . S
H742 C755 0.929 . S
H743 C753 0.929 . S
H744 C748 0.929 . S
H745 C754 0.929 . S
C746 H740 0.930 . S
C746 C747 1.367 . S
C746 C754 1.378 . S
C747 C746 1.367 . S
C747 C755 1.433 . S
C748 H744 0.929 . S
C748 C750 1.378 . S
C748 C752 1.350 . S
C749 C752 1.463 . S
C749 C754 1.350 . S
C749 N757 1.427 . S
C750 H741 0.930 . S
C750 C748 1.378 . S
C750 C751 1.367 . S
C751 C750 1.367 . S
C751 C753 1.433 . S
C752 C748 1.350 . S
C752 C749 1.463 . S
C752 N756 1.427 . S
C753 H743 0.929 . S
C753 C751 1.433 . S
C753 N756 1.384 . S
C754 H745 0.929 . S
C754 C746 1.378 . S
C754 C749 1.350 . S
C755 H742 0.929 . S
C755 C747 1.433 . S
C755 N757 1.384 . S
N756 C752 1.427 . S
N756 C753 1.384 . S
N757 C749 1.427 . S
N757 C755 1.384 . S
H758 C764 0.930 . S
H759 C768 0.930 . S
H760 C773 0.929 . S
H761 C771 0.929 . S
H762 C766 0.929 . S
H763 C772 0.929 . S
C764 H758 0.930 . S
C764 C765 1.367 . S
C764 C772 1.378 . S
C765 C764 1.367 . S
C765 C773 1.433 . S
C766 H762 0.929 . S
C766 C768 1.378 . S
C766 C770 1.350 . S
C767 C770 1.463 . S
C767 C772 1.350 . S
C767 N775 1.427 . S
C768 H759 0.930 . S
C768 C766 1.378 . S
C768 C769 1.367 . S
C769 C768 1.367 . S
C769 C771 1.433 . S
C770 C766 1.350 . S
C770 C767 1.463 . S
C770 N774 1.427 . S
C771 H761 0.929 . S
C771 C769 1.433 . S
C771 N774 1.384 . S
C772 H763 0.929 . S
C772 C764 1.378 . S
C772 C767 1.350 . S
C773 H760 0.929 . S
C773 C765 1.433 . S
C773 N775 1.384 . S
N774 C770 1.427 . S
N774 C771 1.384 . S
N775 C767 1.427 . S
N775 C773 1.384 . S
H776 C782 0.930 . S
H777 C786 0.930 1_554 S
H778 C791 0.929 1_554 S
H779 C789 0.929 . S
H780 C784 0.929 1_554 S
H781 C790 0.929 . S
C782 H776 0.930 . S
C782 C783 1.367 . S
C782 C790 1.378 . S
C783 C782 1.367 . S
C783 C791 1.433 . S
C784 H780 0.929 1_556 S
C784 C786 1.378 . S
C784 C788 1.350 . S
C785 C788 1.463 1_655 S
C785 C790 1.350 . S
C785 N793 1.427 . S
C786 H777 0.930 1_556 S
C786 C784 1.378 . S
C786 C787 1.367 . S
C787 C786 1.367 . S
C787 C789 1.433 . S
C788 C784 1.350 . S
C788 C785 1.463 1_455 S
C788 N792 1.427 . S
C789 H779 0.929 . S
C789 C787 1.433 . S
C789 N792 1.384 . S
C790 H781 0.929 . S
C790 C782 1.378 . S
C790 C785 1.350 . S
C791 H778 0.929 1_556 S
C791 C783 1.433 . S
C791 N793 1.384 . S
N792 C788 1.427 . S
N792 C789 1.384 . S
N793 C785 1.427 . S
N793 C791 1.384 . S
H794 C800 0.930 . S
H795 C804 0.930 . S
H796 C809 0.929 . S
H797 C807 0.929 . S
H798 C802 0.929 . S
H799 C808 0.929 . S
C800 H794 0.930 . S
C800 C801 1.367 . S
C800 C808 1.378 . S
C801 C800 1.367 . S
C801 C809 1.433 . S
C802 H798 0.929 . S
C802 C804 1.378 . S
C802 C806 1.350 . S
C803 C806 1.463 . S
C803 C808 1.350 . S
C803 N811 1.427 . S
C804 H795 0.930 . S
C804 C802 1.378 . S
C804 C805 1.367 . S
C805 C804 1.367 . S
C805 C807 1.433 . S
C806 C802 1.350 . S
C806 C803 1.463 . S
C806 N810 1.427 . S
C807 H797 0.929 . S
C807 C805 1.433 . S
C807 N810 1.384 . S
C808 H799 0.929 . S
C808 C800 1.378 . S
C808 C803 1.350 . S
C809 H796 0.929 . S
C809 C801 1.433 . S
C809 N811 1.384 . S
N810 C806 1.427 . S
N810 C807 1.384 . S
N811 C803 1.427 . S
N811 C809 1.384 . S
H812 C818 0.930 . S
H813 C822 0.930 . S
H814 C827 0.929 . S
H815 C825 0.929 . S
H816 C820 0.929 . S
H817 C826 0.929 . S
C818 H812 0.930 . S
C818 C819 1.367 . S
C818 C826 1.378 . S
C819 C818 1.367 . S
C819 C827 1.433 . S
C820 H816 0.929 . S
C820 C822 1.378 . S
C820 C824 1.350 . S
C821 C824 1.463 . S
C821 C826 1.350 . S
C821 N829 1.427 . S
C822 H813 0.930 . S
C822 C820 1.378 . S
C822 C823 1.367 . S
C823 C822 1.367 . S
C823 C825 1.433 . S
C824 C820 1.350 . S
C824 C821 1.463 . S
C824 N828 1.427 . S
C825 H815 0.929 . S
C825 C823 1.433 . S
C825 N828 1.384 . S
C826 H817 0.929 . S
C826 C818 1.378 . S
C826 C821 1.350 . S
C827 H814 0.929 . S
C827 C819 1.433 . S
C827 N829 1.384 . S
N828 C824 1.427 . S
N828 C825 1.384 . S
N829 C821 1.427 . S
N829 C827 1.384 . S
H830 C836 0.930 . S
H831 C840 0.930 . S
H832 C845 0.929 . S
H833 C843 0.929 . S
H834 C838 0.929 . S
H835 C844 0.929 . S
C836 H830 0.930 . S
C836 C837 1.367 . S
C836 C844 1.378 . S
C837 C836 1.367 . S
C837 C845 1.433 . S
C838 H834 0.929 . S
C838 C840 1.378 . S
C838 C842 1.350 . S
C839 C842 1.463 . S
C839 C844 1.350 . S
C839 N847 1.427 . S
C840 H831 0.930 . S
C840 C838 1.378 . S
C840 C841 1.367 . S
C841 C840 1.367 . S
C841 C843 1.433 . S
C842 C838 1.350 . S
C842 C839 1.463 . S
C842 N846 1.427 . S
C843 H833 0.929 . S
C843 C841 1.433 . S
C843 N846 1.384 . S
C844 H835 0.929 . S
C844 C836 1.378 . S
C844 C839 1.350 . S
C845 H832 0.929 . S
C845 C837 1.433 . S
C845 N847 1.384 . S
N846 C842 1.427 . S
N846 C843 1.384 . S
N847 C839 1.427 . S
N847 C845 1.384 . S
H848 C854 0.930 . S
H849 C858 0.930 . S
H850 C863 0.929 . S
H851 C861 0.929 . S
H852 C856 0.929 . S
H853 C862 0.929 . S
C854 H848 0.930 . S
C854 C855 1.367 . S
C854 C862 1.378 . S
C855 C854 1.367 . S
C855 C863 1.433 . S
C856 H852 0.929 . S
C856 C858 1.378 . S
C856 C860 1.350 . S
C857 C860 1.463 . S
C857 C862 1.350 . S
C857 N865 1.427 . S
C858 H849 0.930 . S
C858 C856 1.378 . S
C858 C859 1.367 . S
C859 C858 1.367 . S
C859 C861 1.433 . S
C860 C856 1.350 . S
C860 C857 1.463 . S
C860 N864 1.427 . S
C861 H851 0.929 . S
C861 C859 1.433 . S
C861 N864 1.384 . S
C862 H853 0.929 . S
C862 C854 1.378 . S
C862 C857 1.350 . S
C863 H850 0.929 . S
C863 C855 1.433 . S
C863 N865 1.384 . S
N864 C860 1.427 . S
N864 C861 1.384 . S
N865 C857 1.427 . S
N865 C863 1.384 . S
H866 C872 0.930 . S
H867 C876 0.930 . S
H868 C881 0.929 . S
H869 C879 0.929 . S
H870 C874 0.929 . S
H871 C880 0.929 . S
C872 H866 0.930 . S
C872 C873 1.367 . S
C872 C880 1.378 . S
C873 C872 1.367 . S
C873 C881 1.433 . S
C874 H870 0.929 . S
C874 C876 1.378 . S
C874 C878 1.350 . S
C875 C878 1.463 . S
C875 C880 1.350 . S
C875 N883 1.427 . S
C876 H867 0.930 . S
C876 C874 1.378 . S
C876 C877 1.367 . S
C877 C876 1.367 . S
C877 C879 1.433 . S
C878 C874 1.350 . S
C878 C875 1.463 . S
C878 N882 1.427 . S
C879 H869 0.929 . S
C879 C877 1.433 . S
C879 N882 1.384 . S
C880 H871 0.929 . S
C880 C872 1.378 . S
C880 C875 1.350 . S
C881 H868 0.929 . S
C881 C873 1.433 . S
C881 N883 1.384 . S
N882 C878 1.427 . S
N882 C879 1.384 . S
N883 C875 1.427 . S
N883 C881 1.384 . S
H884 C890 0.930 . S
H885 C894 0.930 . S
H886 C899 0.929 . S
H887 C897 0.929 . S
H888 C892 0.929 . S
H889 C898 0.929 . S
C890 H884 0.930 . S
C890 C891 1.367 . S
C890 C898 1.378 . S
C891 C890 1.367 . S
C891 C899 1.433 . S
C892 H888 0.929 . S
C892 C894 1.378 . S
C892 C896 1.350 . S
C893 C896 1.463 . S
C893 C898 1.350 . S
C893 N901 1.427 . S
C894 H885 0.930 . S
C894 C892 1.378 . S
C894 C895 1.367 . S
C895 C894 1.367 . S
C895 C897 1.433 . S
C896 C892 1.350 . S
C896 C893 1.463 . S
C896 N900 1.427 . S
C897 H887 0.929 . S
C897 C895 1.433 . S
C897 N900 1.384 . S
C898 H889 0.929 . S
C898 C890 1.378 . S
C898 C893 1.350 . S
C899 H886 0.929 . S
C899 C891 1.433 . S
C899 N901 1.384 . S
N900 C896 1.427 . S
N900 C897 1.384 . S
N901 C893 1.427 . S
N901 C899 1.384 . S
H902 C908 0.930 . S
H903 C912 0.930 . S
H904 C917 0.929 . S
H905 C915 0.929 . S
H906 C910 0.929 . S
H907 C916 0.929 . S
C908 H902 0.930 . S
C908 C909 1.367 . S
C908 C916 1.378 . S
C909 C908 1.367 . S
C909 C917 1.433 . S
C910 H906 0.929 . S
C910 C912 1.378 . S
C910 C914 1.350 . S
C911 C914 1.463 . S
C911 C916 1.350 . S
C911 N919 1.427 . S
C912 H903 0.930 . S
C912 C910 1.378 . S
C912 C913 1.367 . S
C913 C912 1.367 . S
C913 C915 1.433 . S
C914 C910 1.350 . S
C914 C911 1.463 . S
C914 N918 1.427 . S
C915 H905 0.929 . S
C915 C913 1.433 . S
C915 N918 1.384 . S
C916 H907 0.929 . S
C916 C908 1.378 . S
C916 C911 1.350 . S
C917 H904 0.929 . S
C917 C909 1.433 . S
C917 N919 1.384 . S
N918 C914 1.427 . S
N918 C915 1.384 . S
N919 C911 1.427 . S
N919 C917 1.384 . S
H920 C926 0.930 . S
H921 C930 0.930 . S
H922 C935 0.929 . S
H923 C933 0.929 . S
H924 C928 0.929 . S
H925 C934 0.929 . S
C926 H920 0.930 . S
C926 C927 1.367 . S
C926 C934 1.378 . S
C927 C926 1.367 . S
C927 C935 1.433 . S
C928 H924 0.929 . S
C928 C930 1.378 . S
C928 C932 1.350 . S
C929 C932 1.463 . S
C929 C934 1.350 . S
C929 N937 1.427 . S
C930 H921 0.930 . S
C930 C928 1.378 . S
C930 C931 1.367 . S
C931 C930 1.367 . S
C931 C933 1.433 . S
C932 C928 1.350 . S
C932 C929 1.463 . S
C932 N936 1.427 . S
C933 H923 0.929 . S
C933 C931 1.433 . S
C933 N936 1.384 . S
C934 H925 0.929 . S
C934 C926 1.378 . S
C934 C929 1.350 . S
C935 H922 0.929 . S
C935 C927 1.433 . S
C935 N937 1.384 . S
N936 C932 1.427 . S
N936 C933 1.384 . S
N937 C929 1.427 . S
N937 C935 1.384 . S
H938 C944 0.930 . S
H939 C948 0.930 . S
H940 C953 0.929 . S
H941 C951 0.929 . S
H942 C946 0.929 . S
H943 C952 0.929 . S
C944 H938 0.930 . S
C944 C945 1.367 . S
C944 C952 1.378 . S
C945 C944 1.367 . S
C945 C953 1.433 . S
C946 H942 0.929 . S
C946 C948 1.378 . S
C946 C950 1.350 . S
C947 C950 1.463 1_655 S
C947 C952 1.350 . S
C947 N955 1.427 . S
C948 H939 0.930 . S
C948 C946 1.378 . S
C948 C949 1.367 . S
C949 C948 1.367 . S
C949 C951 1.433 . S
C950 C946 1.350 . S
C950 C947 1.463 1_455 S
C950 N954 1.427 . S
C951 H941 0.929 . S
C951 C949 1.433 . S
C951 N954 1.384 . S
C952 H943 0.929 . S
C952 C944 1.378 . S
C952 C947 1.350 . S
C953 H940 0.929 . S
C953 C945 1.433 . S
C953 N955 1.384 . S
N954 C950 1.427 . S
N954 C951 1.384 . S
N955 C947 1.427 . S
N955 C953 1.384 . S
H956 C962 0.930 . S
H957 C966 0.930 . S
H958 C971 0.929 . S
H959 C969 0.929 . S
H960 C964 0.929 . S
H961 C970 0.929 . S
C962 H956 0.930 . S
C962 C963 1.367 . S
C962 C970 1.378 . S
C963 C962 1.367 . S
C963 C971 1.433 . S
C964 H960 0.929 . S
C964 C966 1.378 . S
C964 C968 1.350 . S
C965 C968 1.463 . S
C965 C970 1.350 . S
C965 N973 1.427 . S
C966 H957 0.930 . S
C966 C964 1.378 . S
C966 C967 1.367 . S
C967 C966 1.367 . S
C967 C969 1.433 . S
C968 C964 1.350 . S
C968 C965 1.463 . S
C968 N972 1.427 . S
C969 H959 0.929 . S
C969 C967 1.433 . S
C969 N972 1.384 . S
C970 H961 0.929 . S
C970 C962 1.378 . S
C970 C965 1.350 . S
C971 H958 0.929 . S
C971 C963 1.433 . S
C971 N973 1.384 . S
N972 C968 1.427 . S
N972 C969 1.384 . S
N973 C965 1.427 . S
N973 C971 1.384 . S
H974 C980 0.930 . S
H975 C984 0.930 . S
H976 C989 0.929 . S
H977 C987 0.929 . S
H978 C982 0.929 . S
H979 C988 0.929 . S
C980 H974 0.930 . S
C980 C981 1.367 . S
C980 C988 1.378 . S
C981 C980 1.367 . S
C981 C989 1.433 . S
C982 H978 0.929 . S
C982 C984 1.378 . S
C982 C986 1.350 . S
C983 C986 1.463 1_455 S
C983 C988 1.350 . S
C983 N991 1.427 . S
C984 H975 0.930 . S
C984 C982 1.378 . S
C984 C985 1.367 . S
C985 C984 1.367 . S
C985 C987 1.433 . S
C986 C982 1.350 . S
C986 C983 1.463 1_655 S
C986 N990 1.427 . S
C987 H977 0.929 . S
C987 C985 1.433 . S
C987 N990 1.384 . S
C988 H979 0.929 . S
C988 C980 1.378 . S
C988 C983 1.350 . S
C989 H976 0.929 . S
C989 C981 1.433 . S
C989 N991 1.384 . S
N990 C986 1.427 . S
N990 C987 1.384 . S
N991 C983 1.427 . S
N991 C989 1.384 . S
H992 C998 0.930 . S
H993 C1002 0.930 . S
H994 C1007 0.929 . S
H995 C1005 0.929 . S
H996 C1000 0.929 . S
H997 C1006 0.929 . S
C998 H992 0.930 . S
C998 C999 1.367 . S
C998 C1006 1.378 . S
C999 C998 1.367 . S
C999 C1007 1.433 1_556 S
C1000 H996 0.929 . S
C1000 C1002 1.378 . S
C1000 C1004 1.350 . S
C1001 C1004 1.463 1_556 S
C1001 C1006 1.350 . S
C1001 N1009 1.427 1_556 S
C1002 H993 0.930 . S
C1002 C1000 1.378 . S
C1002 C1003 1.367 . S
C1003 C1002 1.367 . S
C1003 C1005 1.433 1_554 S
C1004 C1000 1.350 . S
C1004 C1001 1.463 1_554 S
C1004 N1008 1.427 1_554 S
C1005 H995 0.929 . S
C1005 C1003 1.433 1_556 S
C1005 N1008 1.384 . S
C1006 H997 0.929 . S
C1006 C998 1.378 . S
C1006 C1001 1.350 . S
C1007 H994 0.929 . S
C1007 C999 1.433 1_554 S
C1007 N1009 1.384 . S
N1008 C1004 1.427 1_556 S
N1008 C1005 1.384 . S
N1009 C1001 1.427 1_554 S
N1009 C1007 1.384 . S
H1010 C1016 0.930 . S
H1011 C1020 0.930 . S
H1012 C1025 0.929 . S
H1013 C1023 0.929 . S
H1014 C1018 0.929 . S
H1015 C1024 0.929 . S
C1016 H1010 0.930 . S
C1016 C1017 1.367 . S
C1016 C1024 1.378 . S
C1017 C1016 1.367 . S
C1017 C1025 1.433 . S
C1018 H1014 0.929 . S
C1018 C1020 1.378 . S
C1018 C1022 1.350 . S
C1019 C1022 1.463 . S
C1019 C1024 1.350 . S
C1019 N1027 1.427 . S
C1020 H1011 0.930 . S
C1020 C1018 1.378 . S
C1020 C1021 1.367 . S
C1021 C1020 1.367 . S
C1021 C1023 1.433 . S
C1022 C1018 1.350 . S
C1022 C1019 1.463 . S
C1022 N1026 1.427 . S
C1023 H1013 0.929 . S
C1023 C1021 1.433 . S
C1023 N1026 1.384 . S
C1024 H1015 0.929 . S
C1024 C1016 1.378 . S
C1024 C1019 1.350 . S
C1025 H1012 0.929 . S
C1025 C1017 1.433 . S
C1025 N1027 1.384 . S
N1026 C1022 1.427 . S
N1026 C1023 1.384 . S
N1027 C1019 1.427 . S
N1027 C1025 1.384 . S
H1028 C1034 0.930 . S
H1029 C1038 0.930 . S
H1030 C1043 0.929 . S
H1031 C1041 0.929 . S
H1032 C1036 0.929 . S
H1033 C1042 0.929 . S
C1034 H1028 0.930 . S
C1034 C1035 1.367 . S
C1034 C1042 1.378 . S
C1035 C1034 1.367 . S
C1035 C1043 1.433 . S
C1036 H1032 0.929 . S
C1036 C1038 1.378 . S
C1036 C1040 1.350 . S
C1037 C1040 1.463 . S
C1037 C1042 1.350 . S
C1037 N1045 1.427 . S
C1038 H1029 0.930 . S
C1038 C1036 1.378 . S
C1038 C1039 1.367 . S
C1039 C1038 1.367 . S
C1039 C1041 1.433 . S
C1040 C1036 1.350 . S
C1040 C1037 1.463 . S
C1040 N1044 1.427 . S
C1041 H1031 0.929 . S
C1041 C1039 1.433 . S
C1041 N1044 1.384 . S
C1042 H1033 0.929 . S
C1042 C1034 1.378 . S
C1042 C1037 1.350 . S
C1043 H1030 0.929 . S
C1043 C1035 1.433 . S
C1043 N1045 1.384 . S
N1044 C1040 1.427 . S
N1044 C1041 1.384 . S
N1045 C1037 1.427 . S
N1045 C1043 1.384 . S
H1046 C1052 0.930 . S
H1047 C1056 0.930 . S
H1048 C1061 0.929 . S
H1049 C1059 0.929 . S
H1050 C1054 0.929 . S
H1051 C1060 0.929 . S
C1052 H1046 0.930 . S
C1052 C1053 1.367 . S
C1052 C1060 1.378 . S
C1053 C1052 1.367 . S
C1053 C1061 1.433 . S
C1054 H1050 0.929 . S
C1054 C1056 1.378 . S
C1054 C1058 1.350 . S
C1055 C1058 1.463 . S
C1055 C1060 1.350 . S
C1055 N1063 1.427 . S
C1056 H1047 0.930 . S
C1056 C1054 1.378 . S
C1056 C1057 1.367 . S
C1057 C1056 1.367 . S
C1057 C1059 1.433 . S
C1058 C1054 1.350 . S
C1058 C1055 1.463 . S
C1058 N1062 1.427 . S
C1059 H1049 0.929 . S
C1059 C1057 1.433 . S
C1059 N1062 1.384 . S
C1060 H1051 0.929 . S
C1060 C1052 1.378 . S
C1060 C1055 1.350 . S
C1061 H1048 0.929 . S
C1061 C1053 1.433 . S
C1061 N1063 1.384 . S
N1062 C1058 1.427 . S
N1062 C1059 1.384 . S
N1063 C1055 1.427 . S
N1063 C1061 1.384 . S
H1064 C1070 0.930 . S
H1065 C1074 0.930 . S
H1066 C1079 0.929 . S
H1067 C1077 0.929 . S
H1068 C1072 0.929 . S
H1069 C1078 0.929 . S
C1070 H1064 0.930 . S
C1070 C1071 1.367 . S
C1070 C1078 1.378 . S
C1071 C1070 1.367 . S
C1071 C1079 1.433 1_554 S
C1072 H1068 0.929 . S
C1072 C1074 1.378 . S
C1072 C1076 1.350 . S
C1073 C1076 1.463 1_554 S
C1073 C1078 1.350 . S
C1073 N1081 1.427 1_554 S
C1074 H1065 0.930 . S
C1074 C1072 1.378 . S
C1074 C1075 1.367 . S
C1075 C1074 1.367 . S
C1075 C1077 1.433 1_556 S
C1076 C1072 1.350 . S
C1076 C1073 1.463 1_556 S
C1076 N1080 1.427 1_556 S
C1077 H1067 0.929 . S
C1077 C1075 1.433 1_554 S
C1077 N1080 1.384 . S
C1078 H1069 0.929 . S
C1078 C1070 1.378 . S
C1078 C1073 1.350 . S
C1079 H1066 0.929 . S
C1079 C1071 1.433 1_556 S
C1079 N1081 1.384 . S
N1080 C1076 1.427 1_554 S
N1080 C1077 1.384 . S
N1081 C1073 1.427 1_556 S
N1081 C1079 1.384 . S
H1082 C1088 0.930 . S
H1083 C1092 0.930 . S
H1084 C1097 0.929 . S
H1085 C1095 0.929 . S
H1086 C1090 0.929 . S
H1087 C1096 0.929 . S
C1088 H1082 0.930 . S
C1088 C1089 1.367 . S
C1088 C1096 1.378 . S
C1089 C1088 1.367 . S
C1089 C1097 1.433 . S
C1090 H1086 0.929 . S
C1090 C1092 1.378 . S
C1090 C1094 1.350 . S
C1091 C1094 1.463 . S
C1091 C1096 1.350 . S
C1091 N1099 1.427 . S
C1092 H1083 0.930 . S
C1092 C1090 1.378 . S
C1092 C1093 1.367 . S
C1093 C1092 1.367 . S
C1093 C1095 1.433 . S
C1094 C1090 1.350 . S
C1094 C1091 1.463 . S
C1094 N1098 1.427 . S
C1095 H1085 0.929 . S
C1095 C1093 1.433 . S
C1095 N1098 1.384 . S
C1096 H1087 0.929 . S
C1096 C1088 1.378 . S
C1096 C1091 1.350 . S
C1097 H1084 0.929 . S
C1097 C1089 1.433 . S
C1097 N1099 1.384 . S
N1098 C1094 1.427 . S
N1098 C1095 1.384 . S
N1099 C1091 1.427 . S
N1099 C1097 1.384 . S
H1100 C1106 0.930 . S
H1101 C1110 0.930 . S
H1102 C1115 0.929 . S
H1103 C1113 0.929 . S
H1104 C1108 0.929 . S
H1105 C1114 0.929 . S
C1106 H1100 0.930 . S
C1106 C1107 1.367 . S
C1106 C1114 1.378 . S
C1107 C1106 1.367 . S
C1107 C1115 1.433 . S
C1108 H1104 0.929 . S
C1108 C1110 1.378 . S
C1108 C1112 1.350 . S
C1109 C1112 1.463 . S
C1109 C1114 1.350 . S
C1109 N1117 1.427 . S
C1110 H1101 0.930 . S
C1110 C1108 1.378 . S
C1110 C1111 1.367 . S
C1111 C1110 1.367 . S
C1111 C1113 1.433 . S
C1112 C1108 1.350 . S
C1112 C1109 1.463 . S
C1112 N1116 1.427 . S
C1113 H1103 0.929 . S
C1113 C1111 1.433 . S
C1113 N1116 1.384 . S
C1114 H1105 0.929 . S
C1114 C1106 1.378 . S
C1114 C1109 1.350 . S
C1115 H1102 0.929 . S
C1115 C1107 1.433 . S
C1115 N1117 1.384 . S
N1116 C1112 1.427 . S
N1116 C1113 1.384 . S
N1117 C1109 1.427 . S
N1117 C1115 1.384 . S
H1118 C1124 0.930 . S
H1119 C1128 0.930 . S
H1120 C1133 0.929 . S
H1121 C1131 0.929 . S
H1122 C1126 0.929 . S
H1123 C1132 0.929 . S
C1124 H1118 0.930 . S
C1124 C1125 1.367 . S
C1124 C1132 1.378 . S
C1125 C1124 1.367 . S
C1125 C1133 1.433 . S
C1126 H1122 0.929 . S
C1126 C1128 1.378 . S
C1126 C1130 1.350 . S
C1127 C1130 1.463 . S
C1127 C1132 1.350 . S
C1127 N1135 1.427 . S
C1128 H1119 0.930 . S
C1128 C1126 1.378 . S
C1128 C1129 1.367 . S
C1129 C1128 1.367 . S
C1129 C1131 1.433 . S
C1130 C1126 1.350 . S
C1130 C1127 1.463 . S
C1130 N1134 1.427 . S
C1131 H1121 0.929 . S
C1131 C1129 1.433 . S
C1131 N1134 1.384 . S
C1132 H1123 0.929 . S
C1132 C1124 1.378 . S
C1132 C1127 1.350 . S
C1133 H1120 0.929 . S
C1133 C1125 1.433 . S
C1133 N1135 1.384 . S
N1134 C1130 1.427 . S
N1134 C1131 1.384 . S
N1135 C1127 1.427 . S
N1135 C1133 1.384 . S
H1136 C1142 0.930 . S
H1137 C1146 0.930 . S
H1138 C1151 0.929 . S
H1139 C1149 0.929 . S
H1140 C1144 0.929 . S
H1141 C1150 0.929 . S
C1142 H1136 0.930 . S
C1142 C1143 1.367 . S
C1142 C1150 1.378 . S
C1143 C1142 1.367 . S
C1143 C1151 1.433 . S
C1144 H1140 0.929 . S
C1144 C1146 1.378 . S
C1144 C1148 1.350 . S
C1145 C1148 1.463 1_545 S
C1145 C1150 1.350 . S
C1145 N1153 1.427 . S
C1146 H1137 0.930 . S
C1146 C1144 1.378 . S
C1146 C1147 1.367 . S
C1147 C1146 1.367 . S
C1147 C1149 1.433 . S
C1148 C1144 1.350 . S
C1148 C1145 1.463 1_565 S
C1148 N1152 1.427 . S
C1149 H1139 0.929 . S
C1149 C1147 1.433 . S
C1149 N1152 1.384 . S
C1150 H1141 0.929 . S
C1150 C1142 1.378 . S
C1150 C1145 1.350 . S
C1151 H1138 0.929 . S
C1151 C1143 1.433 . S
C1151 N1153 1.384 . S
N1152 C1148 1.427 . S
N1152 C1149 1.384 . S
N1153 C1145 1.427 . S
N1153 C1151 1.384 . S
H1154 C1160 0.930 . S
H1155 C1164 0.930 . S
H1156 C1169 0.929 . S
H1157 C1167 0.929 . S
H1158 C1162 0.929 . S
H1159 C1168 0.929 . S
C1160 H1154 0.930 . S
C1160 C1161 1.367 . S
C1160 C1168 1.378 . S
C1161 C1160 1.367 . S
C1161 C1169 1.433 . S
C1162 H1158 0.929 . S
C1162 C1164 1.378 . S
C1162 C1166 1.350 . S
C1163 C1166 1.463 . S
C1163 C1168 1.350 . S
C1163 N1171 1.427 . S
C1164 H1155 0.930 . S
C1164 C1162 1.378 . S
C1164 C1165 1.367 . S
C1165 C1164 1.367 . S
C1165 C1167 1.433 . S
C1166 C1162 1.350 . S
C1166 C1163 1.463 . S
C1166 N1170 1.427 . S
C1167 H1157 0.929 . S
C1167 C1165 1.433 . S
C1167 N1170 1.384 . S
C1168 H1159 0.929 . S
C1168 C1160 1.378 . S
C1168 C1163 1.350 . S
C1169 H1156 0.929 . S
C1169 C1161 1.433 . S
C1169 N1171 1.384 . S
N1170 C1166 1.427 . S
N1170 C1167 1.384 . S
N1171 C1163 1.427 . S
N1171 C1169 1.384 . S
H1172 C1178 0.916 1_556 S
H1173 C1182 0.916 1_554 S
H1174 C1187 0.929 . S
H1175 C1185 0.929 . S
H1176 C1180 0.929 . S
H1177 C1186 0.929 . S
C1178 H1172 0.916 1_554 S
C1178 C1179 1.393 . S
C1178 C1186 1.367 1_554 S
C1179 C1178 1.393 . S
C1179 C1187 1.433 . S
C1180 H1176 0.929 . S
C1180 C1182 1.367 1_554 S
C1180 C1184 1.350 1_554 S
C1181 C1184 1.463 1_564 S
C1181 C1186 1.350 1_554 S
C1181 N1189 1.427 . S
C1182 H1173 0.916 1_556 S
C1182 C1180 1.367 1_556 S
C1182 C1183 1.393 . S
C1183 C1182 1.393 . S
C1183 C1185 1.433 . S
C1184 C1180 1.350 1_556 S
C1184 C1181 1.463 1_546 S
C1184 N1188 1.427 . S
C1185 H1175 0.929 . S
C1185 C1183 1.433 . S
C1185 N1188 1.384 . S
C1186 H1177 0.929 . S
C1186 C1178 1.367 1_556 S
C1186 C1181 1.350 1_556 S
C1187 H1174 0.929 . S
C1187 C1179 1.433 . S
C1187 N1189 1.384 . S
N1188 C1184 1.427 . S
N1188 C1185 1.384 . S
N1189 C1181 1.427 . S
N1189 C1187 1.384 . S
H1190 C1196 0.930 . S
H1191 C1200 0.930 . S
H1192 C1205 0.929 . S
H1193 C1203 0.929 . S
H1194 C1198 0.929 . S
H1195 C1204 0.929 . S
C1196 H1190 0.930 . S
C1196 C1197 1.367 . S
C1196 C1204 1.378 . S
C1197 C1196 1.367 . S
C1197 C1205 1.433 . S
C1198 H1194 0.929 . S
C1198 C1200 1.378 . S
C1198 C1202 1.350 . S
C1199 C1202 1.463 . S
C1199 C1204 1.350 . S
C1199 N1207 1.427 . S
C1200 H1191 0.930 . S
C1200 C1198 1.378 . S
C1200 C1201 1.367 . S
C1201 C1200 1.367 . S
C1201 C1203 1.433 . S
C1202 C1198 1.350 . S
C1202 C1199 1.463 . S
C1202 N1206 1.427 . S
C1203 H1193 0.929 . S
C1203 C1201 1.433 . S
C1203 N1206 1.384 . S
C1204 H1195 0.929 . S
C1204 C1196 1.378 . S
C1204 C1199 1.350 . S
C1205 H1192 0.929 . S
C1205 C1197 1.433 . S
C1205 N1207 1.384 . S
N1206 C1202 1.427 . S
N1206 C1203 1.384 . S
N1207 C1199 1.427 . S
N1207 C1205 1.384 . S
H1208 C1214 0.930 . S
H1209 C1218 0.930 . S
H1210 C1223 0.929 . S
H1211 C1221 0.929 . S
H1212 C1216 0.929 . S
H1213 C1222 0.929 . S
C1214 H1208 0.930 . S
C1214 C1215 1.367 . S
C1214 C1222 1.378 . S
C1215 C1214 1.367 . S
C1215 C1223 1.433 . S
C1216 H1212 0.929 . S
C1216 C1218 1.378 . S
C1216 C1220 1.350 . S
C1217 C1220 1.463 1_545 S
C1217 C1222 1.350 . S
C1217 N1225 1.427 . S
C1218 H1209 0.930 . S
C1218 C1216 1.378 . S
C1218 C1219 1.367 . S
C1219 C1218 1.367 . S
C1219 C1221 1.433 . S
C1220 C1216 1.350 . S
C1220 C1217 1.463 1_565 S
C1220 N1224 1.427 . S
C1221 H1211 0.929 . S
C1221 C1219 1.433 . S
C1221 N1224 1.384 . S
C1222 H1213 0.929 . S
C1222 C1214 1.378 . S
C1222 C1217 1.350 . S
C1223 H1210 0.929 . S
C1223 C1215 1.433 . S
C1223 N1225 1.384 . S
N1224 C1220 1.427 . S
N1224 C1221 1.384 . S
N1225 C1217 1.427 . S
N1225 C1223 1.384 . S
H1226 C1232 0.930 . S
H1227 C1236 0.930 . S
H1228 C1241 0.929 . S
H1229 C1239 0.929 . S
H1230 C1234 0.929 . S
H1231 C1240 0.929 . S
C1232 H1226 0.930 . S
C1232 C1233 1.367 . S
C1232 C1240 1.378 . S
C1233 C1232 1.367 . S
C1233 C1241 1.433 . S
C1234 H1230 0.929 . S
C1234 C1236 1.378 . S
C1234 C1238 1.350 . S
C1235 C1238 1.463 . S
C1235 C1240 1.350 . S
C1235 N1243 1.427 . S
C1236 H1227 0.930 . S
C1236 C1234 1.378 . S
C1236 C1237 1.367 . S
C1237 C1236 1.367 . S
C1237 C1239 1.433 . S
C1238 C1234 1.350 . S
C1238 C1235 1.463 . S
C1238 N1242 1.427 . S
C1239 H1229 0.929 . S
C1239 C1237 1.433 . S
C1239 N1242 1.384 . S
C1240 H1231 0.929 . S
C1240 C1232 1.378 . S
C1240 C1235 1.350 . S
C1241 H1228 0.929 . S
C1241 C1233 1.433 . S
C1241 N1243 1.384 . S
N1242 C1238 1.427 . S
N1242 C1239 1.384 . S
N1243 C1235 1.427 . S
N1243 C1241 1.384 . S
H1244 C1250 0.930 . S
H1245 C1254 0.930 . S
H1246 C1259 0.929 . S
H1247 C1257 0.929 . S
H1248 C1252 0.929 . S
H1249 C1258 0.929 . S
C1250 H1244 0.930 . S
C1250 C1251 1.367 . S
C1250 C1258 1.378 . S
C1251 C1250 1.367 . S
C1251 C1259 1.433 . S
C1252 H1248 0.929 . S
C1252 C1254 1.378 . S
C1252 C1256 1.350 . S
C1253 C1256 1.463 1_564 S
C1253 C1258 1.350 . S
C1253 N1261 1.427 . S
C1254 H1245 0.930 . S
C1254 C1252 1.378 . S
C1254 C1255 1.367 . S
C1255 C1254 1.367 . S
C1255 C1257 1.433 . S
C1256 C1252 1.350 . S
C1256 C1253 1.463 1_546 S
C1256 N1260 1.427 . S
C1257 H1247 0.929 . S
C1257 C1255 1.433 . S
C1257 N1260 1.384 . S
C1258 H1249 0.929 . S
C1258 C1250 1.378 . S
C1258 C1253 1.350 . S
C1259 H1246 0.929 . S
C1259 C1251 1.433 . S
C1259 N1261 1.384 . S
N1260 C1256 1.427 . S
N1260 C1257 1.384 . S
N1261 C1253 1.427 . S
N1261 C1259 1.384 . S
H1262 C1268 0.930 . S
H1263 C1272 0.930 . S
H1264 C1277 0.929 . S
H1265 C1275 0.929 . S
H1266 C1270 0.929 . S
H1267 C1276 0.929 . S
C1268 H1262 0.930 . S
C1268 C1269 1.367 . S
C1268 C1276 1.378 . S
C1269 C1268 1.367 . S
C1269 C1277 1.433 . S
C1270 H1266 0.929 . S
C1270 C1272 1.378 . S
C1270 C1274 1.350 . S
C1271 C1274 1.463 . S
C1271 C1276 1.350 . S
C1271 N1279 1.427 . S
C1272 H1263 0.930 . S
C1272 C1270 1.378 . S
C1272 C1273 1.367 . S
C1273 C1272 1.367 . S
C1273 C1275 1.433 . S
C1274 C1270 1.350 . S
C1274 C1271 1.463 . S
C1274 N1278 1.427 . S
C1275 H1265 0.929 . S
C1275 C1273 1.433 . S
C1275 N1278 1.384 . S
C1276 H1267 0.929 . S
C1276 C1268 1.378 . S
C1276 C1271 1.350 . S
C1277 H1264 0.929 . S
C1277 C1269 1.433 . S
C1277 N1279 1.384 . S
N1278 C1274 1.427 . S
N1278 C1275 1.384 . S
N1279 C1271 1.427 . S
N1279 C1277 1.384 . S
H1280 C1286 0.930 . S
H1281 C1290 0.930 . S
H1282 C1295 0.929 . S
H1283 C1293 0.929 . S
H1284 C1288 0.929 . S
H1285 C1294 0.929 . S
C1286 H1280 0.930 . S
C1286 C1287 1.367 . S
C1286 C1294 1.378 . S
C1287 C1286 1.367 . S
C1287 C1295 1.433 . S
C1288 H1284 0.929 . S
C1288 C1290 1.378 . S
C1288 C1292 1.350 . S
C1289 C1292 1.463 . S
C1289 C1294 1.350 . S
C1289 N1297 1.427 . S
C1290 H1281 0.930 . S
C1290 C1288 1.378 . S
C1290 C1291 1.367 . S
C1291 C1290 1.367 . S
C1291 C1293 1.433 . S
C1292 C1288 1.350 . S
C1292 C1289 1.463 . S
C1292 N1296 1.427 . S
C1293 H1283 0.929 . S
C1293 C1291 1.433 . S
C1293 N1296 1.384 . S
C1294 H1285 0.929 . S
C1294 C1286 1.378 . S
C1294 C1289 1.350 . S
C1295 H1282 0.929 . S
C1295 C1287 1.433 . S
C1295 N1297 1.384 . S
N1296 C1292 1.427 . S
N1296 C1293 1.384 . S
N1297 C1289 1.427 . S
N1297 C1295 1.384 . S
H1298 C1304 0.930 . S
H1299 C1308 0.930 . S
H1300 C1313 0.929 . S
H1301 C1311 0.929 . S
H1302 C1306 0.929 . S
H1303 C1312 0.929 . S
C1304 H1298 0.930 . S
C1304 C1305 1.367 . S
C1304 C1312 1.378 . S
C1305 C1304 1.367 . S
C1305 C1313 1.433 . S
C1306 H1302 0.929 . S
C1306 C1308 1.378 . S
C1306 C1310 1.350 . S
C1307 C1310 1.463 . S
C1307 C1312 1.350 . S
C1307 N1315 1.427 . S
C1308 H1299 0.930 . S
C1308 C1306 1.378 . S
C1308 C1309 1.367 . S
C1309 C1308 1.367 . S
C1309 C1311 1.433 . S
C1310 C1306 1.350 . S
C1310 C1307 1.463 . S
C1310 N1314 1.427 . S
C1311 H1301 0.929 . S
C1311 C1309 1.433 . S
C1311 N1314 1.384 . S
C1312 H1303 0.929 . S
C1312 C1304 1.378 . S
C1312 C1307 1.350 . S
C1313 H1300 0.929 . S
C1313 C1305 1.433 . S
C1313 N1315 1.384 . S
N1314 C1310 1.427 . S
N1314 C1311 1.384 . S
N1315 C1307 1.427 . S
N1315 C1313 1.384 . S
H1316 C1322 0.930 . S
H1317 C1326 0.930 . S
H1318 C1331 0.929 . S
H1319 C1329 0.929 . S
H1320 C1324 0.929 . S
H1321 C1330 0.929 . S
C1322 H1316 0.930 . S
C1322 C1323 1.367 . S
C1322 C1330 1.378 . S
C1323 C1322 1.367 . S
C1323 C1331 1.433 . S
C1324 H1320 0.929 . S
C1324 C1326 1.378 . S
C1324 C1328 1.350 . S
C1325 C1328 1.463 . S
C1325 C1330 1.350 . S
C1325 N1333 1.427 . S
C1326 H1317 0.930 . S
C1326 C1324 1.378 . S
C1326 C1327 1.367 . S
C1327 C1326 1.367 . S
C1327 C1329 1.433 . S
C1328 C1324 1.350 . S
C1328 C1325 1.463 . S
C1328 N1332 1.427 . S
C1329 H1319 0.929 . S
C1329 C1327 1.433 . S
C1329 N1332 1.384 . S
C1330 H1321 0.929 . S
C1330 C1322 1.378 . S
C1330 C1325 1.350 . S
C1331 H1318 0.929 . S
C1331 C1323 1.433 . S
C1331 N1333 1.384 . S
N1332 C1328 1.427 . S
N1332 C1329 1.384 . S
N1333 C1325 1.427 . S
N1333 C1331 1.384 . S
H1334 C1340 0.930 . S
H1335 C1344 0.930 . S
H1336 C1349 0.929 . S
H1337 C1347 0.929 . S
H1338 C1342 0.929 . S
H1339 C1348 0.929 . S
C1340 H1334 0.930 . S
C1340 C1341 1.367 . S
C1340 C1348 1.378 . S
C1341 C1340 1.367 . S
C1341 C1349 1.433 . S
C1342 H1338 0.929 . S
C1342 C1344 1.378 . S
C1342 C1346 1.350 . S
C1343 C1346 1.463 1_655 S
C1343 C1348 1.350 . S
C1343 N1351 1.427 . S
C1344 H1335 0.930 . S
C1344 C1342 1.378 . S
C1344 C1345 1.367 . S
C1345 C1344 1.367 . S
C1345 C1347 1.433 . S
C1346 C1342 1.350 . S
C1346 C1343 1.463 1_455 S
C1346 N1350 1.427 . S
C1347 H1337 0.929 . S
C1347 C1345 1.433 . S
C1347 N1350 1.384 . S
C1348 H1339 0.929 . S
C1348 C1340 1.378 . S
C1348 C1343 1.350 . S
C1349 H1336 0.929 . S
C1349 C1341 1.433 . S
C1349 N1351 1.384 . S
N1350 C1346 1.427 . S
N1350 C1347 1.384 . S
N1351 C1343 1.427 . S
N1351 C1349 1.384 . S
H1352 C1358 0.930 . S
H1353 C1362 0.930 . S
H1354 C1367 0.929 . S
H1355 C1365 0.929 . S
H1356 C1360 0.929 . S
H1357 C1366 0.929 . S
C1358 H1352 0.930 . S
C1358 C1359 1.367 . S
C1358 C1366 1.378 . S
C1359 C1358 1.367 . S
C1359 C1367 1.433 . S
C1360 H1356 0.929 . S
C1360 C1362 1.378 . S
C1360 C1364 1.350 . S
C1361 C1364 1.463 . S
C1361 C1366 1.350 . S
C1361 N1369 1.427 . S
C1362 H1353 0.930 . S
C1362 C1360 1.378 . S
C1362 C1363 1.367 . S
C1363 C1362 1.367 . S
C1363 C1365 1.433 . S
C1364 C1360 1.350 . S
C1364 C1361 1.463 . S
C1364 N1368 1.427 . S
C1365 H1355 0.929 . S
C1365 C1363 1.433 . S
C1365 N1368 1.384 . S
C1366 H1357 0.929 . S
C1366 C1358 1.378 . S
C1366 C1361 1.350 . S
C1367 H1354 0.929 . S
C1367 C1359 1.433 . S
C1367 N1369 1.384 . S
N1368 C1364 1.427 . S
N1368 C1365 1.384 . S
N1369 C1361 1.427 . S
N1369 C1367 1.384 . S
H1370 C1376 0.930 . S
H1371 C1380 0.930 . S
H1372 C1385 0.929 . S
H1373 C1383 0.929 . S
H1374 C1378 0.929 . S
H1375 C1384 0.929 . S
C1376 H1370 0.930 . S
C1376 C1377 1.367 . S
C1376 C1384 1.378 . S
C1377 C1376 1.367 . S
C1377 C1385 1.433 . S
C1378 H1374 0.929 . S
C1378 C1380 1.378 . S
C1378 C1382 1.350 . S
C1379 C1382 1.463 1_655 S
C1379 C1384 1.350 . S
C1379 N1387 1.427 . S
C1380 H1371 0.930 . S
C1380 C1378 1.378 . S
C1380 C1381 1.367 . S
C1381 C1380 1.367 . S
C1381 C1383 1.433 . S
C1382 C1378 1.350 . S
C1382 C1379 1.463 1_455 S
C1382 N1386 1.427 . S
C1383 H1373 0.929 . S
C1383 C1381 1.433 . S
C1383 N1386 1.384 . S
C1384 H1375 0.929 . S
C1384 C1376 1.378 . S
C1384 C1379 1.350 . S
C1385 H1372 0.929 . S
C1385 C1377 1.433 . S
C1385 N1387 1.384 . S
N1386 C1382 1.427 . S
N1386 C1383 1.384 . S
N1387 C1379 1.427 . S
N1387 C1385 1.384 . S
H1388 C1394 0.930 . S
H1389 C1398 0.930 . S
H1390 C1403 0.929 . S
H1391 C1401 0.929 . S
H1392 C1396 0.929 . S
H1393 C1402 0.929 . S
C1394 H1388 0.930 . S
C1394 C1395 1.367 . S
C1394 C1402 1.378 . S
C1395 C1394 1.367 . S
C1395 C1403 1.433 . S
C1396 H1392 0.929 . S
C1396 C1398 1.378 . S
C1396 C1400 1.350 . S
C1397 C1400 1.463 . S
C1397 C1402 1.350 . S
C1397 N1405 1.427 . S
C1398 H1389 0.930 . S
C1398 C1396 1.378 . S
C1398 C1399 1.367 . S
C1399 C1398 1.367 . S
C1399 C1401 1.433 . S
C1400 C1396 1.350 . S
C1400 C1397 1.463 . S
C1400 N1404 1.427 . S
C1401 H1391 0.929 . S
C1401 C1399 1.433 . S
C1401 N1404 1.384 . S
C1402 H1393 0.929 . S
C1402 C1394 1.378 . S
C1402 C1397 1.350 . S
C1403 H1390 0.929 . S
C1403 C1395 1.433 . S
C1403 N1405 1.384 . S
N1404 C1400 1.427 . S
N1404 C1401 1.384 . S
N1405 C1397 1.427 . S
N1405 C1403 1.384 . S
H1406 C1412 0.930 . S
H1407 C1416 0.930 . S
H1408 C1421 0.929 . S
H1409 C1419 0.929 . S
H1410 C1414 0.929 . S
H1411 C1420 0.929 . S
C1412 H1406 0.930 . S
C1412 C1413 1.367 . S
C1412 C1420 1.378 . S
C1413 C1412 1.367 . S
C1413 C1421 1.433 . S
C1414 H1410 0.929 . S
C1414 C1416 1.378 . S
C1414 C1418 1.350 . S
C1415 C1418 1.463 . S
C1415 C1420 1.350 . S
C1415 N1423 1.427 . S
C1416 H1407 0.930 . S
C1416 C1414 1.378 . S
C1416 C1417 1.367 . S
C1417 C1416 1.367 . S
C1417 C1419 1.433 . S
C1418 C1414 1.350 . S
C1418 C1415 1.463 . S
C1418 N1422 1.427 . S
C1419 H1409 0.929 . S
C1419 C1417 1.433 . S
C1419 N1422 1.384 . S
C1420 H1411 0.929 . S
C1420 C1412 1.378 . S
C1420 C1415 1.350 . S
C1421 H1408 0.929 . S
C1421 C1413 1.433 . S
C1421 N1423 1.384 . S
N1422 C1418 1.427 . S
N1422 C1419 1.384 . S
N1423 C1415 1.427 . S
N1423 C1421 1.384 . S
H1424 C1430 0.930 . S
H1425 C1434 0.930 . S
H1426 C1439 0.929 . S
H1427 C1437 0.929 . S
H1428 C1432 0.929 . S
H1429 C1438 0.929 . S
C1430 H1424 0.930 . S
C1430 C1431 1.367 . S
C1430 C1438 1.378 . S
C1431 C1430 1.367 . S
C1431 C1439 1.433 . S
C1432 H1428 0.929 . S
C1432 C1434 1.378 . S
C1432 C1436 1.350 . S
C1433 C1436 1.463 . S
C1433 C1438 1.350 . S
C1433 N1441 1.427 . S
C1434 H1425 0.930 . S
C1434 C1432 1.378 . S
C1434 C1435 1.367 . S
C1435 C1434 1.367 . S
C1435 C1437 1.433 . S
C1436 C1432 1.350 . S
C1436 C1433 1.463 . S
C1436 N1440 1.427 . S
C1437 H1427 0.929 . S
C1437 C1435 1.433 . S
C1437 N1440 1.384 . S
C1438 H1429 0.929 . S
C1438 C1430 1.378 . S
C1438 C1433 1.350 . S
C1439 H1426 0.929 . S
C1439 C1431 1.433 . S
C1439 N1441 1.384 . S
N1440 C1436 1.427 . S
N1440 C1437 1.384 . S
N1441 C1433 1.427 . S
N1441 C1439 1.384 . S
H1442 C1448 0.930 . S
H1443 C1452 0.930 . S
H1444 C1457 0.929 . S
H1445 C1455 0.929 . S
H1446 C1450 0.929 . S
H1447 C1456 0.929 . S
C1448 H1442 0.930 . S
C1448 C1449 1.367 . S
C1448 C1456 1.378 . S
C1449 C1448 1.367 . S
C1449 C1457 1.433 . S
C1450 H1446 0.929 . S
C1450 C1452 1.378 . S
C1450 C1454 1.350 . S
C1451 C1454 1.463 . S
C1451 C1456 1.350 . S
C1451 N1459 1.427 . S
C1452 H1443 0.930 . S
C1452 C1450 1.378 . S
C1452 C1453 1.367 . S
C1453 C1452 1.367 . S
C1453 C1455 1.433 . S
C1454 C1450 1.350 . S
C1454 C1451 1.463 . S
C1454 N1458 1.427 . S
C1455 H1445 0.929 . S
C1455 C1453 1.433 . S
C1455 N1458 1.384 . S
C1456 H1447 0.929 . S
C1456 C1448 1.378 . S
C1456 C1451 1.350 . S
C1457 H1444 0.929 . S
C1457 C1449 1.433 . S
C1457 N1459 1.384 . S
N1458 C1454 1.427 . S
N1458 C1455 1.384 . S
N1459 C1451 1.427 . S
N1459 C1457 1.384 . S
H1460 C1466 0.930 . S
H1461 C1470 0.930 . S
H1462 C1475 0.929 . S
H1463 C1473 0.929 . S
H1464 C1468 0.929 . S
H1465 C1474 0.929 . S
C1466 H1460 0.930 . S
C1466 C1467 1.367 . S
C1466 C1474 1.378 . S
C1467 C1466 1.367 . S
C1467 C1475 1.433 . S
C1468 H1464 0.929 . S
C1468 C1470 1.378 . S
C1468 C1472 1.350 . S
C1469 C1472 1.463 . S
C1469 C1474 1.350 . S
C1469 N1477 1.427 . S
C1470 H1461 0.930 . S
C1470 C1468 1.378 . S
C1470 C1471 1.367 . S
C1471 C1470 1.367 . S
C1471 C1473 1.433 . S
C1472 C1468 1.350 . S
C1472 C1469 1.463 . S
C1472 N1476 1.427 . S
C1473 H1463 0.929 . S
C1473 C1471 1.433 . S
C1473 N1476 1.384 . S
C1474 H1465 0.929 . S
C1474 C1466 1.378 . S
C1474 C1469 1.350 . S
C1475 H1462 0.929 . S
C1475 C1467 1.433 . S
C1475 N1477 1.384 . S
N1476 C1472 1.427 . S
N1476 C1473 1.384 . S
N1477 C1469 1.427 . S
N1477 C1475 1.384 . S
H1478 C1484 0.930 . S
H1479 C1488 0.930 . S
H1480 C1493 0.929 . S
H1481 C1491 0.929 . S
H1482 C1486 0.929 . S
H1483 C1492 0.929 . S
C1484 H1478 0.930 . S
C1484 C1485 1.367 . S
C1484 C1492 1.378 . S
C1485 C1484 1.367 . S
C1485 C1493 1.433 . S
C1486 H1482 0.929 . S
C1486 C1488 1.378 . S
C1486 C1490 1.350 . S
C1487 C1490 1.463 . S
C1487 C1492 1.350 . S
C1487 N1495 1.427 . S
C1488 H1479 0.930 . S
C1488 C1486 1.378 . S
C1488 C1489 1.367 . S
C1489 C1488 1.367 . S
C1489 C1491 1.433 . S
C1490 C1486 1.350 . S
C1490 C1487 1.463 . S
C1490 N1494 1.427 . S
C1491 H1481 0.929 . S
C1491 C1489 1.433 . S
C1491 N1494 1.384 . S
C1492 H1483 0.929 . S
C1492 C1484 1.378 . S
C1492 C1487 1.350 . S
C1493 H1480 0.929 . S
C1493 C1485 1.433 . S
C1493 N1495 1.384 . S
N1494 C1490 1.427 . S
N1494 C1491 1.384 . S
N1495 C1487 1.427 . S
N1495 C1493 1.384 . S
H1496 C1502 0.930 . S
H1497 C1506 0.930 . S
H1498 C1511 0.929 . S
H1499 C1509 0.929 . S
H1500 C1504 0.929 . S
H1501 C1510 0.929 . S
C1502 H1496 0.930 . S
C1502 C1503 1.367 . S
C1502 C1510 1.378 . S
C1503 C1502 1.367 . S
C1503 C1511 1.433 . S
C1504 H1500 0.929 . S
C1504 C1506 1.378 . S
C1504 C1508 1.350 . S
C1505 C1508 1.463 1_655 S
C1505 C1510 1.350 . S
C1505 N1513 1.427 . S
C1506 H1497 0.930 . S
C1506 C1504 1.378 . S
C1506 C1507 1.367 . S
C1507 C1506 1.367 . S
C1507 C1509 1.433 . S
C1508 C1504 1.350 . S
C1508 C1505 1.463 1_455 S
C1508 N1512 1.427 . S
C1509 H1499 0.929 . S
C1509 C1507 1.433 . S
C1509 N1512 1.384 . S
C1510 H1501 0.929 . S
C1510 C1502 1.378 . S
C1510 C1505 1.350 . S
C1511 H1498 0.929 . S
C1511 C1503 1.433 . S
C1511 N1513 1.384 . S
N1512 C1508 1.427 . S
N1512 C1509 1.384 . S
N1513 C1505 1.427 . S
N1513 C1511 1.384 . S
H1514 C1520 0.930 . S
H1515 C1524 0.930 . S
H1516 C1529 0.929 . S
H1517 C1527 0.929 . S
H1518 C1522 0.929 . S
H1519 C1528 0.929 . S
C1520 H1514 0.930 . S
C1520 C1521 1.367 . S
C1520 C1528 1.378 . S
C1521 C1520 1.367 . S
C1521 C1529 1.433 . S
C1522 H1518 0.929 . S
C1522 C1524 1.378 . S
C1522 C1526 1.350 . S
C1523 C1526 1.463 . S
C1523 C1528 1.350 . S
C1523 N1531 1.427 . S
C1524 H1515 0.930 . S
C1524 C1522 1.378 . S
C1524 C1525 1.367 . S
C1525 C1524 1.367 . S
C1525 C1527 1.433 . S
C1526 C1522 1.350 . S
C1526 C1523 1.463 . S
C1526 N1530 1.427 . S
C1527 H1517 0.929 . S
C1527 C1525 1.433 . S
C1527 N1530 1.384 . S
C1528 H1519 0.929 . S
C1528 C1520 1.378 . S
C1528 C1523 1.350 . S
C1529 H1516 0.929 . S
C1529 C1521 1.433 . S
C1529 N1531 1.384 . S
N1530 C1526 1.427 . S
N1530 C1527 1.384 . S
N1531 C1523 1.427 . S
N1531 C1529 1.384 . S
H1532 C1538 0.930 . S
H1533 C1542 0.930 . S
H1534 C1547 0.929 . S
H1535 C1545 0.929 . S
H1536 C1540 0.929 . S
H1537 C1546 0.929 . S
C1538 H1532 0.930 . S
C1538 C1539 1.367 . S
C1538 C1546 1.378 . S
C1539 C1538 1.367 . S
C1539 C1547 1.433 . S
C1540 H1536 0.929 . S
C1540 C1542 1.378 . S
C1540 C1544 1.350 . S
C1541 C1544 1.463 . S
C1541 C1546 1.350 . S
C1541 N1549 1.427 . S
C1542 H1533 0.930 . S
C1542 C1540 1.378 . S
C1542 C1543 1.367 . S
C1543 C1542 1.367 . S
C1543 C1545 1.433 . S
C1544 C1540 1.350 . S
C1544 C1541 1.463 . S
C1544 N1548 1.427 . S
C1545 H1535 0.929 . S
C1545 C1543 1.433 . S
C1545 N1548 1.384 . S
C1546 H1537 0.929 . S
C1546 C1538 1.378 . S
C1546 C1541 1.350 . S
C1547 H1534 0.929 . S
C1547 C1539 1.433 . S
C1547 N1549 1.384 . S
N1548 C1544 1.427 . S
N1548 C1545 1.384 . S
N1549 C1541 1.427 . S
N1549 C1547 1.384 . S
H1550 C1556 0.930 . S
H1551 C1560 0.930 . S
H1552 C1565 0.929 . S
H1553 C1563 0.929 . S
H1554 C1558 0.929 . S
H1555 C1564 0.929 . S
C1556 H1550 0.930 . S
C1556 C1557 1.367 . S
C1556 C1564 1.378 . S
C1557 C1556 1.367 . S
C1557 C1565 1.433 . S
C1558 H1554 0.929 . S
C1558 C1560 1.378 . S
C1558 C1562 1.350 . S
C1559 C1562 1.463 1_655 S
C1559 C1564 1.350 . S
C1559 N1567 1.427 . S
C1560 H1551 0.930 . S
C1560 C1558 1.378 . S
C1560 C1561 1.367 . S
C1561 C1560 1.367 . S
C1561 C1563 1.433 . S
C1562 C1558 1.350 . S
C1562 C1559 1.463 1_455 S
C1562 N1566 1.427 . S
C1563 H1553 0.929 . S
C1563 C1561 1.433 . S
C1563 N1566 1.384 . S
C1564 H1555 0.929 . S
C1564 C1556 1.378 . S
C1564 C1559 1.350 . S
C1565 H1552 0.929 . S
C1565 C1557 1.433 . S
C1565 N1567 1.384 . S
N1566 C1562 1.427 . S
N1566 C1563 1.384 . S
N1567 C1559 1.427 . S
N1567 C1565 1.384 . S
C423 C303 1.769 . S
C427 C5 1.770 . S
C441 C263 1.773 . S
C445 C23 1.776 . S
C459 C277 1.767 . S
C463 C29 1.772 . S
C477 C289 1.771 . S
C481 C49 1.774 . S
C495 C55 1.772 . S
C499 C231 1.776 . S
C513 C239 1.781 . S
C517 C69 1.770 . S
C531 C83 1.779 . S
C535 C251 1.767 . S
C549 C95 1.778 . S
C553 C211 1.778 . S
C567 C407 1.753 . S
C571 C114 1.758 . S
C585 C127 1.765 . S
C589 C374 1.757 . S
C603 C140 1.758 . S
C607 C381 1.765 . S
C621 C153 1.754 . S
C625 C394 1.759 . S
C639 C160 1.764 . S
C643 C335 1.765 . S
C657 C173 1.756 . S
C661 C342 1.764 . S
C675 C192 1.764 . S
C679 C361 1.765 . S
C693 C199 1.756 . S
C697 C322 1.765 . S
C711 C4 1.198 . S
C715 C161 1.189 . S
C729 C382 1.193 . S
C733 C16 1.190 . S
C747 C36 1.196 . S
C751 C185 1.190 . S
C765 C408 1.187 . S
C769 C42 1.195 . S
C783 C107 1.188 . S
C787 C62 1.199 . S
C801 C70 1.186 . S
C805 C328 1.197 . S
C819 C82 1.192 . S
C823 C133 1.196 . S
C837 C96 1.197 . S
C841 C354 1.186 . S
C855 C278 1.186 . S
C859 C120 1.196 . S
C873 C304 1.193 . S
C877 C146 1.189 . S
C891 C174 1.192 . S
C895 C224 1.191 . S
C909 C252 1.197 . S
C913 C200 1.186 . S
C927 C367 1.188 . S
C931 C218 1.198 . S
C945 C238 1.192 . S
C949 C395 1.196 . S
C963 C315 1.189 . S
C967 C270 1.198 . S
C981 C343 1.189 . S
C985 C296 1.197 . S
C999 C56 1.160 . S
C1003 C10 1.165 . S
C1017 C68 1.168 . S
C1021 C18 1.175 . S
C1035 C30 1.161 . S
C1039 C88 1.164 . S
C1053 C44 1.169 . S
C1057 C94 1.175 . S
C1071 C159 1.179 . S
C1075 C109 1.177 . S
C1089 C172 1.178 . S
C1093 C122 1.169 . S
C1107 C187 1.184 . S
C1111 C135 1.187 . S
C1125 C148 1.170 . S
C1129 C198 1.179 . S
C1143 C212 1.170 . S
C1147 C264 1.160 . S
C1161 C226 1.164 . S
C1165 C276 1.168 . S
C1179 C244 1.170 . S
C1183 C290 1.163 . S
C1197 C250 1.168 . S
C1201 C302 1.175 . S
C1215 C369 1.187 . S
C1219 C317 1.183 . S
C1233 C380 1.178 . S
C1237 C330 1.173 . S
C1251 C393 1.177 . S
C1255 C341 1.186 . S
C1269 C406 1.171 . S
C1273 C356 1.179 . S
C1287 C400 1.839 . S
C1291 C3 1.840 . S
C1305 C17 1.840 . S
C1309 C205 1.840 . S
C1323 C368 1.845 . S
C1327 C31 1.835 . S
C1341 C43 1.842 . S
C1345 C179 1.837 . S
C1359 C348 1.844 . S
C1363 C57 1.835 . S
C1377 C75 1.843 . S
C1381 C147 1.836 . S
C1395 C81 1.838 . S
C1399 C316 1.843 . S
C1413 C121 1.843 . S
C1417 C101 1.837 . S
C1431 C108 1.845 . S
C1435 C291 1.834 . S
C1449 C265 1.835 . S
C1453 C134 1.845 . S
C1467 C166 1.840 . S
C1471 C237 1.840 . S
C1485 C186 1.844 . S
C1489 C213 1.835 . S
C1503 C413 1.837 . S
C1507 C225 1.843 . S
C1521 C257 1.843 . S
C1525 C387 1.836 . S
C1539 C283 1.837 . S
C1543 C355 1.842 . S
C1557 C329 1.837 . S
C1561 C309 1.843 . S
