# Generated by pormake.
# Topology sra, (4)-cn, num edge types: 1
# Building blocks:
#     Node 0, Type 0, BuildingBlock: UXUYUI_clean_sbu_0, # of connection points: 4
#     Node 1, Type 0, BuildingBlock: UXUYUI_clean_sbu_0, # of connection points: 4
#     Node 2, Type 0, BuildingBlock: UXUYUI_clean_sbu_0, # of connection points: 4
#     Node 3, Type 0, BuildingBlock: UXUYUI_clean_sbu_0, # of connection points: 4
#     Node 4, Type 0, BuildingBlock: UXUYUI_clean_sbu_0, # of connection points: 4
#     Node 5, Type 0, BuildingBlock: UXUYUI_clean_sbu_0, # of connection points: 4
#     Node 6, Type 0, BuildingBlock: UXUYUI_clean_sbu_0, # of connection points: 4
#     Node 7, Type 0, BuildingBlock: UXUYUI_clean_sbu_0, # of connection points: 4
#     Edge 8, Type (0, 0), BuildingBlock: TEMPAE_clean_linker_10, # of connection points: 2
#     Edge 9, Type (0, 0), BuildingBlock: TEMPAE_clean_linker_10, # of connection points: 2
#     Edge 10, Type (0, 0), BuildingBlock: TEMPAE_clean_linker_10, # of connection points: 2
#     Edge 11, Type (0, 0), BuildingBlock: TEMPAE_clean_linker_10, # of connection points: 2
#     Edge 12, Type (0, 0), BuildingBlock: TEMPAE_clean_linker_10, # of connection points: 2
#     Edge 13, Type (0, 0), BuildingBlock: TEMPAE_clean_linker_10, # of connection points: 2
#     Edge 14, Type (0, 0), BuildingBlock: TEMPAE_clean_linker_10, # of connection points: 2
#     Edge 15, Type (0, 0), BuildingBlock: TEMPAE_clean_linker_10, # of connection points: 2
#     Edge 16, Type (0, 0), BuildingBlock: TEMPAE_clean_linker_10, # of connection points: 2
#     Edge 17, Type (0, 0), BuildingBlock: TEMPAE_clean_linker_10, # of connection points: 2
#     Edge 18, Type (0, 0), BuildingBlock: TEMPAE_clean_linker_10, # of connection points: 2
#     Edge 19, Type (0, 0), BuildingBlock: TEMPAE_clean_linker_10, # of connection points: 2
#     Edge 20, Type (0, 0), BuildingBlock: TEMPAE_clean_linker_10, # of connection points: 2
#     Edge 21, Type (0, 0), BuildingBlock: TEMPAE_clean_linker_10, # of connection points: 2
#     Edge 22, Type (0, 0), BuildingBlock: TEMPAE_clean_linker_10, # of connection points: 2
#     Edge 23, Type (0, 0), BuildingBlock: TEMPAE_clean_linker_10, # of connection points: 2
# Relax obj value: 0.133
# Max RMSD: 0.099
# Mean RMSD: 0.099
data_MOF--net-sra--node1-UXUYUI_clean_sbu_0--edge1-TEMPAE_clean_linker_10
_symmetry_space_group_name_H-M    P1
_symmetry_Int_Tables_number       1
_symmetry_cell_setting            triclinic
loop_
_symmetry_equiv_pos_as_xyz
'x, y, z'
_cell_length_a     38.169272
_cell_length_b     63.679673
_cell_length_c     63.391259
_cell_angle_alpha  90.002031
_cell_angle_beta   90.008055
_cell_angle_gamma 89.99726
loop_
_atom_site_label
_atom_site_type_symbol
_atom_site_fract_x
_atom_site_fract_y
_atom_site_fract_z
_atom_type_partial_charge
Li0 Li 0.00141 0.09812 0.15856 0.0
Li1 Li 0.03189 0.06662 0.17505 0.0
Li2 Li 0.99956 0.0643 0.13967 0.0
Li3 Li 0.96871 0.06854 0.17227 0.0
C4 C 0.06801 0.09263 0.1389 0.0
N5 N 0.12163 0.11623 0.12172 0.0
C6 C 0.09865 0.09624 0.15044 0.0
C7 C 0.06483 0.10082 0.11853 0.0
C8 C 0.12542 0.10826 0.1415 0.0
C9 C 0.09217 0.11278 0.11016 0.0
C10 C 0.98211 0.09043 0.20619 0.0
C11 C 0.9655 0.0789 0.24101 0.0
N12 N 0.9418 0.09482 0.24211 0.0
C13 C 0.95774 0.10674 0.20769 0.0
C14 C 0.98613 0.07641 0.22298 0.0
C15 C 0.93755 0.10866 0.22597 0.0
C16 C 0.97086 0.13797 0.15473 0.0
N17 N 0.00231 0.128 0.156 0.0
C18 C 0.0326 0.16085 0.15503 0.0
C19 C 0.03288 0.13897 0.15642 0.0
C20 C 0.00051 0.1715 0.15383 0.0
C21 C 0.96933 0.15986 0.15376 0.0
H22 H 0.94691 0.12889 0.15476 0.0
H23 H 0.05748 0.13087 0.15821 0.0
C24 C 0.09384 0.04329 0.18296 0.0
N25 N 0.0721 0.05845 0.1905 0.0
C26 C 0.12497 0.03856 0.19359 0.0
C27 C 0.11016 0.06478 0.21971 0.0
C28 C 0.0796 0.06914 0.20849 0.0
C29 C 0.13349 0.04947 0.21217 0.0
H30 H 0.08732 0.03522 0.16847 0.0
H31 H 0.06226 0.08146 0.21383 0.0
C32 C 0.94435 0.08904 0.12741 0.0
N33 N 0.91179 0.09882 0.08974 0.0
C34 C 0.91177 0.08029 0.1225 0.0
C35 C 0.9602 0.10292 0.11326 0.0
C36 C 0.89578 0.08537 0.10334 0.0
C37 C 0.94336 0.10763 0.09428 0.0
C38 C 0.98362 0.02684 0.17101 0.0
C39 C 0.95294 0.0199 0.16122 0.0
C40 C 0.99777 0.01542 0.1878 0.0
C41 C 0.93661 0.00169 0.16859 0.0
C42 C 0.98069 0.99727 0.19467 0.0
N43 N 0.9507 0.99085 0.18503 0.0
C44 C 0.03144 0.05066 0.10176 0.0
C45 C 0.97069 0.04342 0.10418 0.0
C46 C 0.03272 0.04196 0.08155 0.0
N47 N 0.00062 0.05151 0.11249 0.0
C48 C 0.9707 0.03471 0.08398 0.0
C49 C 0.00198 0.03402 0.07234 0.0
H50 H 0.05504 0.0568 0.10888 0.0
H51 H 0.94674 0.04372 0.11322 0.0
C52 C 0.89815 0.07514 0.18146 0.0
N53 N 0.92562 0.06262 0.18678 0.0
C54 C 0.86622 0.07334 0.19199 0.0
C55 C 0.89117 0.04568 0.21333 0.0
C56 C 0.92277 0.04814 0.20248 0.0
C57 C 0.86249 0.05852 0.20823 0.0
H58 H 0.90131 0.08694 0.16937 0.0
H59 H 0.94523 0.03894 0.20708 0.0
O60 O 0.04155 0.08089 0.14743 0.0
O61 O 0.00135 0.08791 0.18817 0.0
O62 O 0.96053 0.08401 0.146 0.0
O63 O 1.0001 0.04457 0.16403 0.0
H64 H 0.10162 0.08999 0.1662 0.0
H65 H 0.04161 0.09788 0.10923 0.0
H66 H 0.14918 0.11127 0.15029 0.0
H67 H 0.09001 0.11926 0.09444 0.0
H68 H 0.96815 0.06808 0.25407 0.0
H69 H 0.95417 0.11764 0.19479 0.0
H70 H 0.00452 0.06351 0.22194 0.0
H71 H 0.91841 0.12112 0.2273 0.0
H72 H 0.05713 0.1694 0.15547 0.0
H73 H 0.94411 0.16761 0.1529 0.0
H74 H 0.14231 0.02664 0.18729 0.0
H75 H 0.11609 0.07383 0.23373 0.0
H76 H 0.89918 0.06945 0.13325 0.0
H77 H 0.98517 0.11002 0.11692 0.0
H78 H 0.87069 0.0786 0.09927 0.0
H79 H 0.95538 0.11832 0.08316 0.0
H80 H 0.94163 0.02863 0.14827 0.0
H81 H 0.02159 0.0206 0.19548 0.0
H82 H 0.9127 0.9962 0.16128 0.0
H83 H 0.99124 0.9883 0.2077 0.0
H84 H 0.05737 0.04174 0.07308 0.0
H85 H 0.94657 0.02838 0.07762 0.0
H86 H 0.84472 0.08351 0.18754 0.0
H87 H 0.88955 0.03435 0.22604 0.0
Li88 Li 0.99868 0.4358 0.13956 0.0
Li89 Li 0.03025 0.43358 0.17163 0.0
Li90 Li 0.99903 0.40309 0.15855 0.0
Li91 Li 0.9664 0.4337 0.17428 0.0
C92 C 0.05652 0.42014 0.127 0.0
N93 N 0.08907 0.42688 0.08866 0.0
C94 C 0.08092 0.43636 0.12478 0.0
C95 C 0.04884 0.40727 0.10975 0.0
C96 C 0.09708 0.43952 0.10527 0.0
C97 C 0.06551 0.41096 0.09049 0.0
C98 C 0.00977 0.47387 0.17337 0.0
C99 C 0.00448 0.50026 0.20049 0.0
N100 N 0.03475 0.50925 0.19367 0.0
C101 C 0.04075 0.48344 0.16657 0.0
C102 C 0.9914 0.48238 0.19043 0.0
C103 C 0.05298 0.50128 0.17707 0.0
C104 C 0.97823 0.43866 0.09644 0.0
N105 N 0.99665 0.44828 0.11205 0.0
C106 C 0.01429 0.47552 0.08836 0.0
C107 C 0.01422 0.46649 0.10843 0.0
C108 C 0.99595 0.46575 0.07185 0.0
C109 C 0.97763 0.4471 0.07612 0.0
H110 H 0.96409 0.42438 0.09971 0.0
H111 H 0.02862 0.47387 0.12105 0.0
C112 C 0.10183 0.42984 0.18027 0.0
N113 N 0.07277 0.44052 0.18649 0.0
C114 C 0.13337 0.43219 0.1911 0.0
C115 C 0.10481 0.45656 0.2147 0.0
C116 C 0.07369 0.45364 0.20345 0.0
C117 C 0.1351 0.44558 0.20866 0.0
H118 H 0.10031 0.41902 0.16718 0.0
H119 H 0.05005 0.46132 0.20873 0.0
C120 C 0.93509 0.4025 0.14147 0.0
N121 N 0.89081 0.36986 0.13062 0.0
C122 C 0.90426 0.39905 0.15286 0.0
C123 C 0.94332 0.38933 0.12451 0.0
C124 C 0.88222 0.38249 0.14713 0.0
C125 C 0.92064 0.37291 0.1193 0.0
C126 C 0.02034 0.40886 0.20447 0.0
C127 C 0.04477 0.39263 0.20243 0.0
C128 C 0.01882 0.42035 0.22324 0.0
C129 C 0.06731 0.38818 0.21921 0.0
C130 C 0.04179 0.4154 0.23967 0.0
N131 N 0.06537 0.39956 0.23732 0.0
C132 C 0.02685 0.36322 0.14792 0.0
C133 C 0.97222 0.36221 0.16572 0.0
C134 C 0.02777 0.34131 0.14696 0.0
N135 N 0.99918 0.37317 0.15702 0.0
C136 C 0.97164 0.34033 0.16462 0.0
C137 C 0.99972 0.3297 0.15519 0.0
H138 H 0.0484 0.37228 0.14165 0.0
H139 H 0.95112 0.37048 0.17348 0.0
C140 C 0.89945 0.45179 0.17879 0.0
N141 N 0.92531 0.44143 0.18926 0.0
C142 C 0.86753 0.45592 0.18877 0.0
C143 C 0.89019 0.43956 0.22039 0.0
C144 C 0.92133 0.43533 0.20967 0.0
C145 C 0.86269 0.44967 0.20979 0.0
H146 H 0.90327 0.45622 0.16248 0.0
H147 H 0.9419 0.42665 0.21743 0.0
O148 O 0.03962 0.41722 0.14581 0.0
O149 O 0.99708 0.45652 0.16318 0.0
O150 O 0.95714 0.41857 0.14695 0.0
O151 O 0.99881 0.41385 0.18795 0.0
H152 H 0.08701 0.44658 0.13791 0.0
H153 H 0.02992 0.39471 0.11113 0.0
H154 H 0.11586 0.45209 0.1033 0.0
H155 H 0.05964 0.40121 0.07697 0.0
H156 H 0.99057 0.50698 0.21374 0.0
H157 H 0.0556 0.47695 0.15361 0.0
H158 H 0.96733 0.47527 0.19588 0.0
H159 H 0.07706 0.50873 0.17208 0.0
H160 H 0.02906 0.48981 0.08572 0.0
H161 H 0.96272 0.43922 0.06393 0.0
H162 H 0.15614 0.42348 0.18587 0.0
H163 H 0.10487 0.46673 0.22839 0.0
H164 H 0.89747 0.40892 0.16611 0.0
H165 H 0.96732 0.39145 0.11574 0.0
H166 H 0.85834 0.37964 0.15586 0.0
H167 H 0.92686 0.36252 0.10633 0.0
H168 H 0.04671 0.38376 0.18794 0.0
H169 H 0.00073 0.43332 0.22494 0.0
H170 H 0.08647 0.37574 0.21779 0.0
H171 H 0.04107 0.42427 0.25421 0.0
H172 H 0.04995 0.33352 0.13972 0.0
H173 H 0.94985 0.33176 0.1714 0.0
H174 H 0.84674 0.46366 0.18013 0.0
H175 H 0.88707 0.43423 0.23651 0.0
Li176 Li 0.99709 0.9378 0.86019 0.0
Li177 Li 0.96849 0.93408 0.82568 0.0
Li178 Li 0.99942 0.9031 0.84233 0.0
Li179 Li 0.0316 0.93264 0.82691 0.0
C180 C 0.93358 0.91334 0.86724 0.0
N181 N 0.88458 0.90187 0.89722 0.0
C182 C 0.90029 0.92249 0.86721 0.0
C183 C 0.94171 0.89808 0.88233 0.0
C184 C 0.87595 0.91657 0.88256 0.0
C185 C 0.91665 0.89257 0.8974 0.0
C186 C 0.98506 0.97474 0.82905 0.0
C187 C 0.96807 0.99918 0.80186 0.0
N188 N 0.95114 0.01098 0.81656 0.0
C189 C 0.96774 0.98718 0.84392 0.0
C190 C 0.98551 0.98084 0.80788 0.0
C191 C 0.95066 0.00543 0.83727 0.0
C192 C 0.02772 0.95848 0.89461 0.0
N193 N 0.99656 0.95148 0.88696 0.0
C194 C 0.96694 0.96324 0.918 0.0
C195 C 0.96636 0.95396 0.89806 0.0
C196 C 0.99883 0.97029 0.92647 0.0
C197 C 0.02947 0.96802 0.91443 0.0
H198 H 0.0513 0.95642 0.88538 0.0
H199 H 0.94178 0.94882 0.89149 0.0
C200 C 0.92249 0.93113 0.79111 0.0
N201 N 0.9281 0.94151 0.80954 0.0
C202 C 0.89187 0.93459 0.77958 0.0
C203 C 0.87353 0.95963 0.806 0.0
C204 C 0.90449 0.95564 0.81705 0.0
C205 C 0.86665 0.94881 0.78712 0.0
H206 H 0.94132 0.91968 0.78567 0.0
H207 H 0.90921 0.96343 0.83191 0.0
C208 C 0.05659 0.90966 0.87078 0.0
N209 N 0.09331 0.89015 0.90286 0.0
C210 C 0.09172 0.90415 0.86791 0.0
C211 C 0.04033 0.90553 0.89009 0.0
C212 C 0.10978 0.89421 0.88428 0.0
C213 C 0.05928 0.8956 0.90608 0.0
C214 C 0.0164 0.90807 0.79421 0.0
C215 C 0.03282 0.88861 0.79171 0.0
C216 C 0.018 0.92288 0.77798 0.0
C217 C 0.05109 0.88442 0.77308 0.0
C218 C 0.03657 0.91811 0.7596 0.0
N219 N 0.05262 0.89915 0.75757 0.0
C220 C 0.96772 0.86321 0.84446 0.0
C221 C 0.0295 0.86278 0.84819 0.0
C222 C 0.96642 0.84135 0.84602 0.0
N223 N 0.99891 0.87343 0.8457 0.0
C224 C 0.02943 0.84093 0.84985 0.0
C225 C 0.99759 0.82991 0.8487 0.0
H226 H 0.94385 0.87207 0.84212 0.0
H227 H 0.05405 0.87119 0.8484 0.0
C228 C 0.08281 0.95829 0.80607 0.0
N229 N 0.07438 0.93864 0.81276 0.0
C230 C 0.11453 0.96185 0.79559 0.0
C231 C 0.12791 0.92491 0.79904 0.0
C232 C 0.09627 0.92213 0.80961 0.0
C233 C 0.13761 0.945 0.79192 0.0
H234 H 0.06498 0.97117 0.80894 0.0
H235 H 0.08893 0.9067 0.81518 0.0
O236 O 0.95765 0.91893 0.85223 0.0
O237 O 0.00176 0.95677 0.83524 0.0
O238 O 0.03858 0.91943 0.85488 0.0
O239 O 0.99894 0.91261 0.81249 0.0
H240 H 0.89335 0.93416 0.85557 0.0
H241 H 0.96688 0.89035 0.88228 0.0
H242 H 0.85019 0.92365 0.88279 0.0
H243 H 0.92265 0.88081 0.90918 0.0
H244 H 0.96801 0.00403 0.78551 0.0
H245 H 0.96727 0.98273 0.86038 0.0
H246 H 0.99904 0.97148 0.79622 0.0
H247 H 0.93698 0.01515 0.84858 0.0
H248 H 0.94264 0.96504 0.92665 0.0
H249 H 0.0546 0.97318 0.92044 0.0
H250 H 0.88744 0.9256 0.76532 0.0
H251 H 0.85496 0.97084 0.81233 0.0
H252 H 0.10491 0.90745 0.85319 0.0
H253 H 0.01355 0.91019 0.89284 0.0
H254 H 0.13691 0.88974 0.88221 0.0
H255 H 0.04697 0.8923 0.92109 0.0
H256 H 0.03171 0.87693 0.80408 0.0
H257 H 0.00523 0.93795 0.77962 0.0
H258 H 0.06412 0.86948 0.77098 0.0
H259 H 0.03824 0.92949 0.74697 0.0
H260 H 0.9413 0.8335 0.84516 0.0
H261 H 0.05413 0.83271 0.85145 0.0
H262 H 0.12103 0.97764 0.79063 0.0
H263 H 0.14435 0.91133 0.79623 0.0
Li264 Li 0.96806 0.56883 0.8277 0.0
Li265 Li 0.00056 0.59819 0.84322 0.0
Li266 Li 0.03175 0.56784 0.82724 0.0
Li267 Li 0.00171 0.56391 0.86059 0.0
C268 C 0.99141 0.59338 0.79368 0.0
N269 N 0.97215 0.60321 0.75284 0.0
C270 C 0.97243 0.61169 0.78954 0.0
C271 C 0.00128 0.58031 0.777 0.0
C272 C 0.96272 0.61631 0.76881 0.0
C273 C 0.99112 0.58549 0.75648 0.0
C274 C 0.94988 0.59122 0.87429 0.0
C275 C 0.96299 0.60978 0.9065 0.0
N276 N 0.92878 0.60823 0.91231 0.0
C277 C 0.91488 0.58981 0.88056 0.0
C278 C 0.97417 0.60129 0.88734 0.0
C279 C 0.90472 0.59852 0.89985 0.0
C280 C 0.91468 0.54303 0.80901 0.0
N281 N 0.92574 0.56296 0.81293 0.0
C282 C 0.87552 0.57714 0.79554 0.0
C283 C 0.90648 0.57985 0.80688 0.0
C284 C 0.86385 0.55678 0.79073 0.0
C285 C 0.88362 0.53956 0.79782 0.0
H286 H 0.9298 0.52982 0.8146 0.0
H287 H 0.91511 0.59548 0.811 0.0
C288 C 0.03149 0.63816 0.84733 0.0
N289 N 0.00048 0.62776 0.84625 0.0
C290 C 0.03201 0.66004 0.84879 0.0
C291 C 0.96866 0.66 0.8481 0.0
C292 C 0.96937 0.63813 0.84663 0.0
C293 C 0.00029 0.67126 0.84909 0.0
H294 H 0.05579 0.62945 0.84686 0.0
H295 H 0.94513 0.6294 0.8455 0.0
C296 C 0.00578 0.52652 0.8259 0.0
N297 N 0.02075 0.48908 0.8058 0.0
C298 C 0.01848 0.50942 0.83743 0.0
C299 C 0.00037 0.52451 0.80419 0.0
C300 C 0.02598 0.49064 0.82696 0.0
C301 C 0.00817 0.50547 0.79431 0.0
C302 C 0.07272 0.5753 0.86275 0.0
C303 C 0.07958 0.55375 0.86286 0.0
C304 C 0.0973 0.58921 0.8712 0.0
C305 C 0.11102 0.54645 0.87142 0.0
C306 C 0.12844 0.5813 0.87964 0.0
N307 N 0.1346 0.56026 0.87957 0.0
C308 C 0.08727 0.57904 0.80201 0.0
C309 C 0.08752 0.5425 0.80898 0.0
C310 C 0.1179 0.57729 0.79017 0.0
N311 N 0.07265 0.56181 0.81105 0.0
C312 C 0.11804 0.53998 0.79706 0.0
C313 C 0.13372 0.55754 0.78746 0.0
H314 H 0.07522 0.59426 0.80424 0.0
H315 H 0.07608 0.52907 0.81671 0.0
C316 C 0.9822 0.53275 0.88989 0.0
N317 N 0.00176 0.55041 0.88736 0.0
C318 C 0.98113 0.5226 0.90942 0.0
C319 C 0.02032 0.54903 0.92333 0.0
C320 C 0.02052 0.55869 0.90358 0.0
C321 C 0.00042 0.53073 0.92645 0.0
H322 H 0.96739 0.5266 0.87672 0.0
H323 H 0.03546 0.57292 0.90126 0.0
O324 O 0.00116 0.58864 0.81389 0.0
O325 O 0.96016 0.58266 0.85549 0.0
O326 O 0.99853 0.54505 0.83591 0.0
O327 O 0.04215 0.58285 0.85441 0.0
H328 H 0.96503 0.62214 0.80225 0.0
H329 H 0.01691 0.56644 0.77982 0.0
H330 H 0.94774 0.63032 0.7654 0.0
H331 H 0.99846 0.57547 0.74342 0.0
H332 H 0.98151 0.61759 0.91676 0.0
H333 H 0.89578 0.58206 0.87062 0.0
H334 H 0.00138 0.60252 0.88276 0.0
H335 H 0.8777 0.59754 0.90491 0.0
H336 H 0.86058 0.59082 0.79084 0.0
H337 H 0.87539 0.52361 0.79454 0.0
H338 H 0.05697 0.66809 0.84972 0.0
H339 H 0.94364 0.66803 0.84798 0.0
H340 H 0.02264 0.51066 0.85427 0.0
H341 H 0.99001 0.53744 0.79512 0.0
H342 H 0.03597 0.47731 0.83567 0.0
H343 H 0.00416 0.50371 0.77751 0.0
H344 H 0.06085 0.54278 0.85645 0.0
H345 H 0.09234 0.60595 0.87128 0.0
H346 H 0.11666 0.5298 0.8716 0.0
H347 H 0.1477 0.59188 0.88625 0.0
H348 H 0.12939 0.59138 0.78356 0.0
H349 H 0.12913 0.52442 0.79535 0.0
H350 H 0.96565 0.50845 0.91113 0.0
H351 H 0.03511 0.556 0.93612 0.0
Li352 Li 0.53325 0.56623 0.67326 0.0
Li353 Li 0.5048 0.59627 0.65701 0.0
Li354 Li 0.46942 0.56738 0.67244 0.0
Li355 Li 0.50264 0.56186 0.63973 0.0
C356 C 0.51944 0.60096 0.69956 0.0
N357 N 0.55483 0.62921 0.72487 0.0
C358 C 0.55336 0.60735 0.69427 0.0
C359 C 0.50351 0.60894 0.71772 0.0
C360 C 0.57082 0.62163 0.70726 0.0
C361 C 0.52184 0.62321 0.73031 0.0
C362 C 0.55932 0.58932 0.62877 0.0
C363 C 0.55365 0.60543 0.59451 0.0
N364 N 0.58863 0.6095 0.59447 0.0
C365 C 0.5952 0.59365 0.62839 0.0
C366 C 0.53834 0.59527 0.61173 0.0
C367 C 0.60953 0.60387 0.61091 0.0
C368 C 0.60359 0.55428 0.67888 0.0
N369 N 0.57324 0.55824 0.68933 0.0
C370 C 0.60217 0.55483 0.72258 0.0
C371 C 0.57188 0.55831 0.71076 0.0
C372 C 0.63427 0.55146 0.71224 0.0
C373 C 0.63459 0.55084 0.69007 0.0
H374 H 0.60391 0.55447 0.66182 0.0
H375 H 0.5475 0.56174 0.71872 0.0
C376 C 0.47441 0.6362 0.65389 0.0
N377 N 0.50558 0.62591 0.65328 0.0
C378 C 0.47332 0.65805 0.65219 0.0
C379 C 0.5365 0.65831 0.64947 0.0
C380 C 0.53634 0.63646 0.65109 0.0
C381 C 0.50469 0.66939 0.6501 0.0
H382 H 0.4504 0.62742 0.65599 0.0
H383 H 0.56084 0.62798 0.65096 0.0
C384 C 0.50037 0.52794 0.6802 0.0
N385 N 0.5008 0.49732 0.71107 0.0
C386 C 0.5063 0.50697 0.6748 0.0
C387 C 0.49471 0.53335 0.70129 0.0
C388 C 0.5064 0.49171 0.69064 0.0
C389 C 0.49501 0.51764 0.71667 0.0
C390 C 0.436 0.58399 0.63198 0.0
C391 C 0.40715 0.57059 0.63389 0.0
C392 C 0.43555 0.59995 0.61684 0.0
C393 C 0.37858 0.57316 0.62035 0.0
C394 C 0.40648 0.602 0.6036 0.0
N395 N 0.37885 0.58867 0.6056 0.0
C396 C 0.41128 0.57985 0.69529 0.0
C397 C 0.41189 0.54317 0.68894 0.0
C398 C 0.37974 0.57818 0.70626 0.0
N399 N 0.42669 0.5625 0.68701 0.0
C400 C 0.38047 0.54073 0.7 0.0
C401 C 0.36396 0.55839 0.7089 0.0
H402 H 0.4235 0.59504 0.69324 0.0
H403 H 0.42444 0.52965 0.68191 0.0
C404 C 0.53438 0.54394 0.60356 0.0
N405 N 0.50307 0.54764 0.61312 0.0
C406 C 0.53559 0.53466 0.58361 0.0
C407 C 0.47244 0.53223 0.58408 0.0
C408 C 0.47247 0.54157 0.604 0.0
C409 C 0.50428 0.52887 0.5735 0.0
H410 H 0.55846 0.54837 0.61136 0.0
H411 H 0.44801 0.54404 0.6121 0.0
O412 O 0.50172 0.587 0.68711 0.0
O413 O 0.54488 0.5796 0.64594 0.0
O414 O 0.50048 0.54303 0.66484 0.0
O415 O 0.46397 0.58196 0.64535 0.0
H416 H 0.56613 0.60132 0.6803 0.0
H417 H 0.47726 0.60413 0.72202 0.0
H418 H 0.59708 0.6267 0.70336 0.0
H419 H 0.50984 0.62951 0.74441 0.0
H420 H 0.53771 0.61007 0.58119 0.0
H421 H 0.61176 0.58929 0.64155 0.0
H422 H 0.51062 0.59194 0.61173 0.0
H423 H 0.63725 0.60737 0.61042 0.0
H424 H 0.60057 0.55517 0.73963 0.0
H425 H 0.65876 0.54858 0.68141 0.0
H426 H 0.44829 0.66602 0.65304 0.0
H427 H 0.56124 0.66646 0.64775 0.0
H428 H 0.51081 0.50255 0.65853 0.0
H429 H 0.49003 0.5495 0.70577 0.0
H430 H 0.51094 0.47541 0.68669 0.0
H431 H 0.49064 0.52161 0.73305 0.0
H432 H 0.40699 0.55816 0.64549 0.0
H433 H 0.4573 0.61074 0.61537 0.0
H434 H 0.35621 0.5628 0.62156 0.0
H435 H 0.40585 0.61425 0.59178 0.0
H436 H 0.36767 0.59231 0.71238 0.0
H437 H 0.36948 0.52515 0.70175 0.0
H438 H 0.56078 0.53196 0.57622 0.0
H439 H 0.44766 0.52806 0.57689 0.0
Li440 Li 0.50169 0.93576 0.63947 0.0
Li441 Li 0.53102 0.93179 0.67375 0.0
Li442 Li 0.49927 0.90106 0.65715 0.0
Li443 Li 0.46763 0.93057 0.67302 0.0
C444 C 0.56476 0.91232 0.6314 0.0
N445 N 0.61278 0.90347 0.59999 0.0
C446 C 0.59785 0.92173 0.63165 0.0
C447 C 0.55636 0.89813 0.61536 0.0
C448 C 0.62169 0.91714 0.61558 0.0
C449 C 0.58091 0.89394 0.59957 0.0
C450 C 0.51417 0.9727 0.67074 0.0
C451 C 0.53012 0.99753 0.6978 0.0
N452 N 0.54739 0.00921 0.68315 0.0
C453 C 0.53179 0.98504 0.65591 0.0
C454 C 0.51302 0.97907 0.69182 0.0
C455 C 0.54851 0.00341 0.66251 0.0
C456 C 0.47045 0.9547 0.60412 0.0
N457 N 0.50193 0.94942 0.61266 0.0
C458 C 0.53196 0.96251 0.5823 0.0
C459 C 0.53243 0.95349 0.60236 0.0
C460 C 0.4998 0.96767 0.57288 0.0
C461 C 0.46875 0.96389 0.58414 0.0
H462 H 0.4466 0.95148 0.61274 0.0
H463 H 0.55717 0.94985 0.60969 0.0
C464 C 0.57797 0.92729 0.7075 0.0
N465 N 0.57178 0.93874 0.6898 0.0
C466 C 0.60878 0.93019 0.71899 0.0
C467 C 0.62622 0.9569 0.69404 0.0
C468 C 0.59506 0.95342 0.68298 0.0
C469 C 0.63363 0.94496 0.71213 0.0
H470 H 0.5594 0.91547 0.71243 0.0
H471 H 0.59006 0.96196 0.66858 0.0
C472 C 0.44129 0.90673 0.63012 0.0
N473 N 0.40319 0.88489 0.60021 0.0
C474 C 0.40715 0.90013 0.63457 0.0
C475 C 0.4558 0.90252 0.61033 0.0
C476 C 0.38839 0.88901 0.61928 0.0
C477 C 0.43619 0.8914 0.59546 0.0
C478 C 0.48469 0.90625 0.70595 0.0
C479 C 0.46897 0.88675 0.70953 0.0
C480 C 0.48434 0.92146 0.72183 0.0
C481 C 0.45257 0.88294 0.72886 0.0
C482 C 0.46764 0.91706 0.74093 0.0
N483 N 0.4522 0.89806 0.74401 0.0
C484 C 0.53017 0.86112 0.65151 0.0
C485 C 0.46826 0.86082 0.65436 0.0
C486 C 0.53085 0.83927 0.64972 0.0
N487 N 0.49916 0.87141 0.6536 0.0
C488 C 0.46772 0.83897 0.65275 0.0
C489 C 0.49933 0.82791 0.65044 0.0
H490 H 0.55444 0.86987 0.65156 0.0
H491 H 0.44408 0.8693 0.65671 0.0
C492 C 0.41623 0.95663 0.69308 0.0
N493 N 0.42527 0.93673 0.68757 0.0
C494 C 0.38468 0.96042 0.70368 0.0
C495 C 0.37277 0.92315 0.70283 0.0
C496 C 0.40419 0.92015 0.69208 0.0
C497 C 0.36241 0.94352 0.70869 0.0
H498 H 0.43338 0.96956 0.68913 0.0
H499 H 0.41192 0.90451 0.68737 0.0
O500 O 0.54112 0.91667 0.64705 0.0
O501 O 0.49775 0.95463 0.66458 0.0
O502 O 0.46003 0.91761 0.64495 0.0
O503 O 0.50038 0.9104 0.687 0.0
H504 H 0.60499 0.93258 0.64402 0.0
H505 H 0.53137 0.89019 0.61522 0.0
H506 H 0.64728 0.92444 0.61551 0.0
H507 H 0.57469 0.88301 0.58705 0.0
H508 H 0.52962 0.00259 0.71409 0.0
H509 H 0.53275 0.98041 0.63951 0.0
H510 H 0.49911 0.96987 0.70343 0.0
H511 H 0.56243 0.01305 0.65123 0.0
H512 H 0.55651 0.96558 0.5743 0.0
H513 H 0.44342 0.96758 0.57739 0.0
H514 H 0.61331 0.92078 0.73295 0.0
H515 H 0.64488 0.96823 0.68803 0.0
H516 H 0.39528 0.90346 0.64968 0.0
H517 H 0.48172 0.90801 0.60637 0.0
H518 H 0.36203 0.88369 0.62258 0.0
H519 H 0.44716 0.88802 0.58009 0.0
H520 H 0.46923 0.87474 0.69748 0.0
H521 H 0.49672 0.93653 0.71939 0.0
H522 H 0.44009 0.86797 0.7318 0.0
H523 H 0.46697 0.92875 0.75331 0.0
H524 H 0.55583 0.83132 0.64836 0.0
H525 H 0.44284 0.83081 0.65335 0.0
H526 H 0.37764 0.97641 0.70765 0.0
H527 H 0.35696 0.90957 0.70668 0.0
Li528 Li 0.46638 0.43241 0.32573 0.0
Li529 Li 0.49658 0.43636 0.35954 0.0
Li530 Li 0.52975 0.43061 0.32556 0.0
Li531 Li 0.49745 0.40146 0.34215 0.0
C532 C 0.48415 0.47275 0.3272 0.0
N533 N 0.45062 0.50844 0.31286 0.0
C534 C 0.46548 0.48543 0.34124 0.0
C535 C 0.48618 0.47836 0.30593 0.0
C536 C 0.44861 0.50339 0.33367 0.0
C537 C 0.46892 0.49642 0.29896 0.0
C538 C 0.43507 0.4128 0.36937 0.0
C539 C 0.42391 0.39368 0.40153 0.0
N540 N 0.39192 0.40296 0.40297 0.0
C541 C 0.40186 0.42192 0.37101 0.0
C542 C 0.44602 0.39837 0.38461 0.0
C543 C 0.38052 0.41684 0.38817 0.0
C544 C 0.42019 0.43061 0.29113 0.0
N545 N 0.4255 0.44001 0.31011 0.0
C546 C 0.37024 0.45757 0.30763 0.0
C547 C 0.40138 0.45337 0.31844 0.0
C548 C 0.36385 0.44785 0.2881 0.0
C549 C 0.38952 0.43439 0.27978 0.0
H550 H 0.43932 0.4197 0.28505 0.0
H551 H 0.40595 0.46043 0.33369 0.0
C552 C 0.52905 0.45393 0.39529 0.0
N553 N 0.49736 0.45018 0.38625 0.0
C554 C 0.5311 0.46303 0.41529 0.0
C555 C 0.4679 0.46508 0.41597 0.0
C556 C 0.46709 0.4559 0.39597 0.0
C557 C 0.50022 0.46855 0.426 0.0
H558 H 0.55279 0.44966 0.38702 0.0
H559 H 0.44227 0.45334 0.38824 0.0
C560 C 0.51052 0.40496 0.2934 0.0
N561 N 0.54067 0.39357 0.25546 0.0
C562 C 0.52285 0.3845 0.29042 0.0
C563 C 0.51312 0.41954 0.277 0.0
C564 C 0.5381 0.37907 0.27114 0.0
C565 C 0.52857 0.41351 0.25797 0.0
C566 C 0.55873 0.40747 0.36759 0.0
C567 C 0.59279 0.40193 0.36168 0.0
C568 C 0.54693 0.40276 0.38792 0.0
C569 C 0.61419 0.39135 0.37607 0.0
C570 C 0.56913 0.3922 0.40186 0.0
N571 N 0.602 0.38673 0.39568 0.0
C572 C 0.58265 0.45635 0.30684 0.0
C573 C 0.59113 0.41961 0.30407 0.0
C574 C 0.61409 0.46009 0.29611 0.0
N575 N 0.57189 0.43635 0.31056 0.0
C576 C 0.62221 0.42259 0.29296 0.0
C577 C 0.63441 0.44305 0.28897 0.0
H578 H 0.56703 0.46939 0.31241 0.0
H579 H 0.58235 0.40387 0.30759 0.0
C580 C 0.46544 0.36176 0.34635 0.0
N581 N 0.49684 0.37183 0.34598 0.0
C582 C 0.46408 0.33992 0.34827 0.0
C583 C 0.52738 0.33925 0.34933 0.0
C584 C 0.52751 0.36105 0.34723 0.0
C585 C 0.49537 0.32841 0.34979 0.0
H586 H 0.44145 0.3707 0.34496 0.0
H587 H 0.55212 0.36929 0.34607 0.0
O588 O 0.50053 0.45501 0.33428 0.0
O589 O 0.45627 0.41762 0.35263 0.0
O590 O 0.49585 0.41062 0.31226 0.0
O591 O 0.53744 0.41781 0.35365 0.0
H592 H 0.4638 0.48137 0.35778 0.0
H593 H 0.5009 0.46886 0.29492 0.0
H594 H 0.43388 0.51328 0.34433 0.0
H595 H 0.4701 0.50088 0.28251 0.0
H596 H 0.43213 0.38257 0.41346 0.0
H597 H 0.39273 0.43291 0.35925 0.0
H598 H 0.47109 0.39064 0.38328 0.0
H599 H 0.35488 0.42392 0.38972 0.0
H600 H 0.35123 0.46813 0.31457 0.0
H601 H 0.38542 0.42624 0.26498 0.0
H602 H 0.5566 0.46581 0.42225 0.0
H603 H 0.44343 0.46905 0.42365 0.0
H604 H 0.52082 0.37297 0.30288 0.0
H605 H 0.50346 0.43537 0.27899 0.0
H606 H 0.54793 0.36333 0.26865 0.0
H607 H 0.53095 0.42468 0.24519 0.0
H608 H 0.60257 0.40565 0.34613 0.0
H609 H 0.52113 0.40749 0.39302 0.0
H610 H 0.64051 0.38684 0.37164 0.0
H611 H 0.56028 0.38845 0.41762 0.0
H612 H 0.62257 0.47614 0.29377 0.0
H613 H 0.63636 0.40891 0.28748 0.0
H614 H 0.43887 0.33213 0.34858 0.0
H615 H 0.55209 0.3309 0.35 0.0
Li616 Li 0.50029 0.0968 0.3427 0.0
Li617 Li 0.46842 0.06661 0.32485 0.0
Li618 Li 0.50107 0.06207 0.36002 0.0
Li619 Li 0.53135 0.0678 0.32747 0.0
C620 C 0.43268 0.0903 0.36245 0.0
N621 N 0.37758 0.11148 0.38112 0.0
C622 C 0.40303 0.09559 0.35062 0.0
C623 C 0.43401 0.0955 0.38387 0.0
C624 C 0.37553 0.10638 0.36032 0.0
C625 C 0.40597 0.10629 0.39298 0.0
C626 C 0.51874 0.09206 0.29501 0.0
C627 C 0.5335 0.08431 0.25886 0.0
N628 N 0.55911 0.09914 0.25956 0.0
C629 C 0.54505 0.10731 0.29535 0.0
C630 C 0.51279 0.08049 0.27662 0.0
C631 C 0.56525 0.11062 0.27728 0.0
C632 C 0.53027 0.13683 0.3494 0.0
N633 N 0.49941 0.12657 0.3464 0.0
C634 C 0.46799 0.15904 0.34692 0.0
C635 C 0.46865 0.13722 0.34489 0.0
C636 C 0.49942 0.17003 0.35005 0.0
C637 C 0.53089 0.15868 0.35127 0.0
H638 H 0.55449 0.12805 0.35008 0.0
H639 H 0.44467 0.12889 0.34167 0.0
C640 C 0.40692 0.0435 0.31474 0.0
N641 N 0.4278 0.05986 0.30913 0.0
C642 C 0.37551 0.03985 0.30396 0.0
C643 C 0.3883 0.06969 0.28166 0.0
C644 C 0.41925 0.0728 0.2929 0.0
C645 C 0.36564 0.05323 0.28732 0.0
H646 H 0.41427 0.03361 0.32789 0.0
H647 H 0.43615 0.08585 0.28898 0.0
C648 C 0.55483 0.08791 0.37356 0.0
N649 N 0.58251 0.10014 0.41194 0.0
C650 C 0.58862 0.08169 0.37935 0.0
C651 C 0.53518 0.10038 0.3873 0.0
C652 C 0.60213 0.08801 0.39882 0.0
C653 C 0.54962 0.10641 0.40662 0.0
C654 C 0.5174 0.02634 0.32784 0.0
C655 C 0.5482 0.02016 0.33801 0.0
C656 C 0.50474 0.01468 0.3108 0.0
C657 C 0.56619 0.00248 0.33072 0.0
C658 C 0.52346 0.99707 0.30402 0.0
N659 N 0.55355 0.99141 0.31402 0.0
C660 C 0.46842 0.04503 0.39622 0.0
C661 C 0.53025 0.04172 0.39562 0.0
C662 C 0.46699 0.03586 0.41622 0.0
N663 N 0.49979 0.04809 0.38654 0.0
C664 C 0.53008 0.03261 0.41563 0.0
C665 C 0.49818 0.02978 0.42629 0.0
H666 H 0.44453 0.04994 0.3885 0.0
H667 H 0.55476 0.04382 0.38738 0.0
C668 C 0.60291 0.07185 0.31881 0.0
N669 N 0.5736 0.06167 0.31223 0.0
C670 C 0.63447 0.06938 0.30802 0.0
C671 C 0.60521 0.04605 0.28366 0.0
C672 C 0.57416 0.049 0.29494 0.0
C673 C 0.63592 0.05638 0.29014 0.0
H674 H 0.60155 0.0824 0.33212 0.0
H675 H 0.55035 0.04157 0.28958 0.0
O676 O 0.45974 0.07961 0.3532 0.0
O677 O 0.49937 0.0882 0.31273 0.0
O678 O 0.54101 0.08147 0.3547 0.0
O679 O 0.4995 0.04364 0.33464 0.0
H680 H 0.4014 0.09164 0.33407 0.0
H681 H 0.45625 0.09109 0.39344 0.0
H682 H 0.35257 0.1107 0.35131 0.0
H683 H 0.40673 0.11046 0.40952 0.0
H684 H 0.52936 0.07538 0.24455 0.0
H685 H 0.55012 0.1163 0.30951 0.0
H686 H 0.49278 0.06846 0.27617 0.0
H687 H 0.58588 0.12227 0.27736 0.0
H688 H 0.44328 0.16728 0.34545 0.0
H689 H 0.55567 0.16662 0.35366 0.0
H690 H 0.35867 0.02713 0.30902 0.0
H691 H 0.38205 0.0802 0.26877 0.0
H692 H 0.60409 0.07181 0.36904 0.0
H693 H 0.50915 0.10544 0.38305 0.0
H694 H 0.62817 0.08321 0.40353 0.0
H695 H 0.53467 0.11608 0.41738 0.0
H696 H 0.55834 0.02909 0.35118 0.0
H697 H 0.48085 0.01927 0.30283 0.0
H698 H 0.59022 0.9976 0.33832 0.0
H699 H 0.5141 0.98793 0.29079 0.0
H700 H 0.44185 0.03398 0.42392 0.0
H701 H 0.55464 0.02776 0.42267 0.0
H702 H 0.65726 0.07806 0.31328 0.0
H703 H 0.60513 0.03588 0.26997 0.0
C704 C 0.02664 0.29523 0.16433 0.0
C705 C 0.99998 0.30654 0.1543 0.0
C706 C 0.02663 0.2732 0.16419 0.0
C707 C 0.9998 0.26232 0.15326 0.0
C708 C 0.97318 0.27377 0.14275 0.0
C709 C 0.97333 0.29579 0.14365 0.0
C710 C 0.05498 0.26156 0.17599 0.0
C711 C 0.94463 0.26275 0.13053 0.0
C712 C 0.01872 0.20573 0.13804 0.0
C713 C 0.99963 0.19471 0.15331 0.0
C714 C 0.01846 0.22777 0.13757 0.0
C715 C 0.99936 0.23897 0.15308 0.0
C716 C 0.98018 0.22785 0.16861 0.0
C717 C 0.98023 0.20581 0.16838 0.0
C718 C 0.03856 0.23907 0.12049 0.0
C719 C 0.96014 0.23921 0.18568 0.0
H720 H 0.04706 0.30367 0.17268 0.0
H721 H 0.95287 0.30466 0.13582 0.0
H722 H 0.04301 0.25116 0.18805 0.0
H723 H 0.0699 0.25139 0.16499 0.0
H724 H 0.0736 0.27237 0.18396 0.0
H725 H 0.92672 0.27397 0.12254 0.0
H726 H 0.9564 0.25229 0.11845 0.0
H727 H 0.92897 0.25272 0.14128 0.0
H728 H 0.03354 0.19707 0.12632 0.0
H729 H 0.96575 0.19722 0.1803 0.0
H730 H 0.05939 0.24891 0.12763 0.0
H731 H 0.0208 0.24974 0.1117 0.0
H732 H 0.05089 0.22804 0.10912 0.0
H733 H 0.97823 0.24936 0.19484 0.0
H734 H 0.94691 0.22823 0.19672 0.0
H735 H 0.94006 0.2496 0.17853 0.0
C736 C 0.97605 0.79504 0.83576 0.0
C737 C 0.99709 0.8066 0.8497 0.0
C738 C 0.97612 0.773 0.83606 0.0
C739 C 0.99774 0.76227 0.85065 0.0
C740 C 0.01875 0.77383 0.86492 0.0
C741 C 0.01819 0.79587 0.86426 0.0
C742 C 0.95345 0.76121 0.82053 0.0
C743 C 0.04201 0.76293 0.88078 0.0
C744 C 0.97612 0.70528 0.86277 0.0
C745 C 0.00016 0.69458 0.84993 0.0
C746 C 0.97521 0.72731 0.8633 0.0
C747 C 0.99888 0.73892 0.85067 0.0
C748 C 0.02338 0.72822 0.8378 0.0
C749 C 0.02372 0.70619 0.83758 0.0
C750 C 0.94881 0.73817 0.87729 0.0
C751 C 0.04896 0.74006 0.82405 0.0
H752 H 0.96005 0.80322 0.82428 0.0
H753 H 0.03418 0.80472 0.87524 0.0
H754 H 0.97012 0.75141 0.81011 0.0
H755 H 0.93553 0.75044 0.82907 0.0
H756 H 0.93752 0.7719 0.81054 0.0
H757 H 0.0562 0.77421 0.89106 0.0
H758 H 0.02615 0.75235 0.89087 0.0
H759 H 0.06154 0.75304 0.87245 0.0
H760 H 0.95814 0.6964 0.87254 0.0
H761 H 0.04203 0.69803 0.8274 0.0
H762 H 0.93121 0.74812 0.86758 0.0
H763 H 0.96245 0.7487 0.88856 0.0
H764 H 0.93257 0.72687 0.88637 0.0
H765 H 0.03447 0.7499 0.81254 0.0
H766 H 0.06674 0.72939 0.81523 0.0
H767 H 0.06507 0.75078 0.83385 0.0
C768 C 0.52813 0.70438 0.66125 0.0
C769 C 0.50431 0.69268 0.64919 0.0
C770 C 0.52753 0.7264 0.66103 0.0
C771 C 0.5026 0.73698 0.64835 0.0
C772 C 0.47873 0.72527 0.63595 0.0
C773 C 0.4798 0.70324 0.63657 0.0
C774 C 0.55323 0.73835 0.6746 0.0
C775 C 0.45196 0.736 0.62212 0.0
C776 C 0.47887 0.79289 0.66347 0.0
C777 C 0.49953 0.80462 0.64948 0.0
C778 C 0.47944 0.77086 0.66316 0.0
C779 C 0.50108 0.76032 0.64844 0.0
C780 C 0.52171 0.77206 0.63412 0.0
C781 C 0.52077 0.79409 0.63485 0.0
C782 C 0.45725 0.75888 0.67879 0.0
C783 C 0.54492 0.76135 0.61811 0.0
H784 H 0.54682 0.69629 0.67124 0.0
H785 H 0.46159 0.69425 0.62705 0.0
H786 H 0.56901 0.74916 0.66469 0.0
H787 H 0.53884 0.74812 0.68621 0.0
H788 H 0.57132 0.72777 0.68328 0.0
H789 H 0.43583 0.72462 0.61306 0.0
H790 H 0.43427 0.74577 0.63195 0.0
H791 H 0.46525 0.74669 0.61086 0.0
H792 H 0.46277 0.80095 0.675 0.0
H793 H 0.53649 0.8031 0.62386 0.0
H794 H 0.47427 0.74909 0.68902 0.0
H795 H 0.43927 0.74809 0.67034 0.0
H796 H 0.44142 0.76945 0.68898 0.0
H797 H 0.56477 0.75157 0.62629 0.0
H798 H 0.55872 0.77275 0.60777 0.0
H799 H 0.52908 0.75069 0.60808 0.0
C800 C 0.5164 0.29463 0.36556 0.0
C801 C 0.49482 0.30516 0.35112 0.0
C802 C 0.51711 0.27261 0.36642 0.0
C803 C 0.49601 0.26087 0.35234 0.0
C804 C 0.47392 0.27143 0.33786 0.0
C805 C 0.47348 0.29346 0.33749 0.0
C806 C 0.54067 0.26191 0.38225 0.0
C807 C 0.45129 0.25946 0.32245 0.0
C808 C 0.52314 0.20501 0.33925 0.0
C809 C 0.49939 0.19327 0.3513 0.0
C810 C 0.52243 0.22704 0.33953 0.0
C811 C 0.49764 0.23755 0.35236 0.0
C812 C 0.47401 0.22576 0.36486 0.0
C813 C 0.47502 0.20374 0.36407 0.0
C814 C 0.54779 0.23906 0.3258 0.0
C815 C 0.44752 0.23642 0.37895 0.0
H816 H 0.53266 0.30365 0.37627 0.0
H817 H 0.45708 0.30155 0.32613 0.0
H818 H 0.52513 0.25109 0.39227 0.0
H819 H 0.56055 0.25229 0.3739 0.0
H820 H 0.55446 0.2733 0.3926 0.0
H821 H 0.43514 0.27002 0.31246 0.0
H822 H 0.46804 0.2497 0.31202 0.0
H823 H 0.4336 0.24863 0.33107 0.0
H824 H 0.54173 0.19694 0.32918 0.0
H825 H 0.45685 0.19467 0.37354 0.0
H826 H 0.56379 0.24983 0.33561 0.0
H827 H 0.5331 0.24887 0.31435 0.0
H828 H 0.56568 0.22852 0.31691 0.0
H829 H 0.46102 0.24719 0.39005 0.0
H830 H 0.43181 0.22499 0.38821 0.0
H831 H 0.42942 0.24607 0.36929 0.0
C832 C 0.31856 0.03064 0.27125 0.0
C833 C 0.3314 0.05065 0.2764 0.0
C834 C 0.28629 0.02822 0.26082 0.0
C835 C 0.26652 0.04623 0.25537 0.0
C836 C 0.27928 0.06644 0.26061 0.0
C837 C 0.31141 0.06839 0.27113 0.0
C838 C 0.27342 0.00643 0.25557 0.0
C839 C 0.25898 0.08606 0.25511 0.0
C840 C 0.19873 0.04559 0.21157 0.0
C841 C 0.16738 0.04595 0.22308 0.0
C842 C 0.23127 0.0448 0.22186 0.0
C843 C 0.23242 0.04419 0.24419 0.0
C844 C 0.2008 0.04349 0.25584 0.0
C845 C 0.16865 0.04449 0.24514 0.0
C846 C 0.2644 0.04571 0.20889 0.0
C847 C 0.20092 0.04259 0.27964 0.0
H848 H 0.33396 0.01687 0.2751 0.0
H849 H 0.32074 0.08388 0.27543 0.0
H850 H 0.24727 0.00379 0.26274 0.0
H851 H 0.27032 0.00478 0.23824 0.0
H852 H 0.29157 0.99401 0.26124 0.0
H853 H 0.27277 0.10061 0.26007 0.0
H854 H 0.25448 0.08678 0.23783 0.0
H855 H 0.2329 0.08569 0.26283 0.0
H856 H 0.19787 0.04692 0.19453 0.0
H857 H 0.14442 0.0445 0.25407 0.0
H858 H 0.28263 0.03301 0.21365 0.0
H859 H 0.27794 0.06087 0.21177 0.0
H860 H 0.2591 0.04428 0.19171 0.0
H861 H 0.21826 0.02976 0.28521 0.0
H862 H 0.17427 0.04009 0.28622 0.0
H863 H 0.21145 0.05752 0.28606 0.0
C864 C 0.6726 0.46333 0.26367 0.0
C865 C 0.66822 0.44638 0.27761 0.0
C866 C 0.70404 0.46611 0.25246 0.0
C867 C 0.73144 0.45132 0.25484 0.0
C868 C 0.72735 0.43432 0.26899 0.0
C869 C 0.69611 0.43225 0.28041 0.0
C870 C 0.70777 0.48471 0.23785 0.0
C871 C 0.75578 0.41804 0.27181 0.0
C872 C 0.79836 0.44326 0.21132 0.0
C873 C 0.82836 0.45223 0.22028 0.0
C874 C 0.76631 0.44338 0.22215 0.0
C875 C 0.76414 0.45314 0.24219 0.0
C876 C 0.79404 0.46314 0.25081 0.0
C877 C 0.82598 0.4623 0.23987 0.0
C878 C 0.73527 0.43214 0.21263 0.0
C879 C 0.79255 0.47416 0.27188 0.0
H880 H 0.65124 0.47425 0.26115 0.0
H881 H 0.69359 0.41944 0.29155 0.0
H882 H 0.73207 0.49351 0.2416 0.0
H883 H 0.71005 0.47919 0.22131 0.0
H884 H 0.68512 0.49561 0.23895 0.0
H885 H 0.74824 0.40556 0.28318 0.0
H886 H 0.76184 0.41057 0.25641 0.0
H887 H 0.78018 0.42561 0.2775 0.0
H888 H 0.80039 0.4353 0.19624 0.0
H889 H 0.84925 0.46932 0.2467 0.0
H890 H 0.71223 0.44273 0.21199 0.0
H891 H 0.72803 0.41857 0.22271 0.0
H892 H 0.74077 0.4263 0.19645 0.0
H893 H 0.76998 0.48513 0.27237 0.0
H894 H 0.81691 0.4831 0.27526 0.0
H895 H 0.78865 0.46246 0.28462 0.0
C896 C 0.20121 0.93658 0.78655 0.0
C897 C 0.17142 0.94806 0.78057 0.0
C898 C 0.2324 0.93774 0.77493 0.0
C899 C 0.23419 0.95104 0.75708 0.0
C900 C 0.20486 0.96347 0.75152 0.0
C901 C 0.17372 0.96171 0.76322 0.0
C902 C 0.26301 0.92411 0.78131 0.0
C903 C 0.20598 0.97811 0.7328 0.0
C904 C 0.32602 0.96166 0.73639 0.0
C905 C 0.32866 0.94686 0.72004 0.0
C906 C 0.29491 0.96385 0.74805 0.0
C907 C 0.26597 0.95071 0.74348 0.0
C908 C 0.26813 0.93618 0.72664 0.0
C909 C 0.29925 0.9346 0.71501 0.0
C910 C 0.29338 0.97978 0.76566 0.0
C911 C 0.23794 0.92176 0.72134 0.0
H912 H 0.20007 0.92641 0.80024 0.0
H913 H 0.15085 0.97055 0.75834 0.0
H914 H 0.26893 0.91275 0.76852 0.0
H915 H 0.28675 0.93387 0.78367 0.0
H916 H 0.25781 0.91519 0.79605 0.0
H917 H 0.18243 0.98832 0.73193 0.0
H918 H 0.22965 0.9882 0.73355 0.0
H919 H 0.20767 0.96882 0.71803 0.0
H920 H 0.34858 0.97112 0.74053 0.0
H921 H 0.30063 0.92351 0.70207 0.0
H922 H 0.29189 0.97157 0.78107 0.0
H923 H 0.26946 0.98957 0.76418 0.0
H924 H 0.31666 0.99025 0.76579 0.0
H925 H 0.23232 0.91137 0.73498 0.0
H926 H 0.24344 0.91179 0.70735 0.0
H927 H 0.21393 0.93106 0.71822 0.0
C928 C 0.69401 0.53591 0.71833 0.0
C929 C 0.66749 0.54991 0.72445 0.0
C930 C 0.72627 0.53536 0.72898 0.0
C931 C 0.73208 0.54906 0.74622 0.0
C932 C 0.70513 0.56284 0.7528 0.0
C933 C 0.67326 0.56317 0.74179 0.0
C934 C 0.75442 0.52045 0.72151 0.0
C935 C 0.71028 0.57769 0.77112 0.0
C936 C 0.80586 0.53908 0.78525 0.0
C937 C 0.83099 0.55372 0.7786 0.0
C938 C 0.77378 0.53703 0.77458 0.0
C939 C 0.76686 0.54981 0.75679 0.0
C940 C 0.79259 0.56416 0.74965 0.0
C941 C 0.82429 0.56598 0.76069 0.0
C942 C 0.74689 0.52166 0.78273 0.0
C943 C 0.78635 0.57793 0.73062 0.0
H944 H 0.68961 0.52543 0.70512 0.0
H945 H 0.65321 0.57429 0.74643 0.0
H946 H 0.77746 0.52951 0.71593 0.0
H947 H 0.76339 0.51041 0.73475 0.0
H948 H 0.74524 0.51018 0.70847 0.0
H949 H 0.68605 0.58654 0.77502 0.0
H950 H 0.71876 0.56887 0.78533 0.0
H951 H 0.73129 0.58912 0.76732 0.0
H952 H 0.81084 0.52969 0.7992 0.0
H953 H 0.84388 0.57709 0.75532 0.0
H954 H 0.73828 0.51101 0.76988 0.0
H955 H 0.72339 0.53031 0.78827 0.0
H956 H 0.75709 0.51201 0.79598 0.0
H957 H 0.77917 0.56816 0.71679 0.0
H958 H 0.8097 0.5875 0.7265 0.0
H959 H 0.76408 0.5887 0.73372 0.0
C960 C 0.68613 0.92908 0.72954 0.0
C961 C 0.66776 0.94708 0.7232 0.0
C962 C 0.71857 0.93063 0.73981 0.0
C963 C 0.73304 0.95069 0.74389 0.0
C964 C 0.71468 0.96895 0.73752 0.0
C965 C 0.68228 0.96693 0.72719 0.0
C966 C 0.73742 0.91077 0.74621 0.0
C967 C 0.72921 0.9906 0.74172 0.0
C968 C 0.80118 0.95222 0.78749 0.0
C969 C 0.83257 0.95131 0.77599 0.0
C970 C 0.76861 0.95281 0.77722 0.0
C971 C 0.76735 0.95239 0.75491 0.0
C972 C 0.79893 0.95216 0.74319 0.0
C973 C 0.83115 0.95165 0.75387 0.0
C974 C 0.73552 0.95308 0.79027 0.0
C975 C 0.79866 0.95174 0.71938 0.0
H976 H 0.67536 0.91369 0.72618 0.0
H977 H 0.66806 0.98089 0.72245 0.0
H978 H 0.76355 0.91015 0.73856 0.0
H979 H 0.74178 0.91068 0.76351 0.0
H980 H 0.72262 0.89639 0.74184 0.0
H981 H 0.71181 0.00321 0.73565 0.0
H982 H 0.73285 0.9929 0.75893 0.0
H983 H 0.75533 0.99226 0.73423 0.0
H984 H 0.80196 0.95168 0.80457 0.0
H985 H 0.85529 0.95128 0.74488 0.0
H986 H 0.72107 0.93813 0.78802 0.0
H987 H 0.71804 0.96598 0.78503 0.0
H988 H 0.74099 0.95508 0.80737 0.0
H989 H 0.78652 0.93692 0.7138 0.0
H990 H 0.82544 0.95291 0.7126 0.0
H991 H 0.7826 0.96487 0.71315 0.0
C992 C 0.32417 0.5688 0.73864 0.0
C993 C 0.33042 0.55636 0.72075 0.0
C994 C 0.2921 0.56789 0.7494 0.0
C995 C 0.26573 0.55394 0.74233 0.0
C996 C 0.27213 0.54089 0.72468 0.0
C997 C 0.30429 0.54235 0.714 0.0
C998 C 0.28621 0.58217 0.76809 0.0
C999 C 0.24477 0.52564 0.71684 0.0
C1000 C 0.19342 0.54178 0.78169 0.0
C1001 C 0.16676 0.55551 0.77511 0.0
C1002 C 0.22537 0.54059 0.77076 0.0
C1003 C 0.23104 0.55366 0.75303 0.0
C1004 C 0.20407 0.56723 0.74605 0.0
C1005 C 0.1722 0.56785 0.75705 0.0
C1006 C 0.25336 0.52571 0.7785 0.0
C1007 C 0.20918 0.58152 0.72728 0.0
H1008 H 0.34441 0.57933 0.74429 0.0
H1009 H 0.30863 0.53284 0.70008 0.0
H1010 H 0.2637 0.59274 0.76492 0.0
H1011 H 0.27955 0.57275 0.78225 0.0
H1012 H 0.30955 0.59195 0.77173 0.0
H1013 H 0.25464 0.51566 0.70375 0.0
H1014 H 0.23601 0.51531 0.72991 0.0
H1015 H 0.22146 0.53439 0.71119 0.0
H1016 H 0.18974 0.53235 0.79573 0.0
H1017 H 0.15155 0.57816 0.75153 0.0
H1018 H 0.27623 0.53479 0.78429 0.0
H1019 H 0.26268 0.51565 0.76536 0.0
H1020 H 0.24388 0.51546 0.79148 0.0
H1021 H 0.23103 0.59258 0.73045 0.0
H1022 H 0.1853 0.59078 0.72357 0.0
H1023 H 0.21647 0.57219 0.71318 0.0
C1024 C 0.70127 0.05268 0.28846 0.0
C1025 C 0.66902 0.05434 0.27796 0.0
C1026 C 0.73292 0.05219 0.27722 0.0
C1027 C 0.73232 0.0533 0.25492 0.0
C1028 C 0.69984 0.05437 0.24419 0.0
C1029 C 0.66858 0.05492 0.25584 0.0
C1030 C 0.76703 0.05101 0.28923 0.0
C1031 C 0.69815 0.05556 0.22042 0.0
C1032 C 0.81241 0.07533 0.22721 0.0
C1033 C 0.8292 0.05703 0.2202 0.0
C1034 C 0.78092 0.0743 0.23855 0.0
C1035 C 0.76573 0.05449 0.2429 0.0
C1036 C 0.78254 0.03594 0.23587 0.0
C1037 C 0.8142 0.03743 0.22467 0.0
C1038 C 0.76399 0.09443 0.24596 0.0
C1039 C 0.76697 0.01455 0.24008 0.0
H1040 H 0.70177 0.05189 0.30554 0.0
H1041 H 0.64381 0.05646 0.24761 0.0
H1042 H 0.78286 0.03753 0.28357 0.0
H1043 H 0.78258 0.06545 0.28635 0.0
H1044 H 0.76293 0.04931 0.30649 0.0
H1045 H 0.67081 0.05494 0.21443 0.0
H1046 H 0.71036 0.0704 0.21495 0.0
H1047 H 0.7132 0.04244 0.21331 0.0
H1048 H 0.82421 0.0905 0.22406 0.0
H1049 H 0.82698 0.02326 0.21912 0.0
H1050 H 0.76143 0.09429 0.26339 0.0
H1051 H 0.73719 0.09577 0.23932 0.0
H1052 H 0.7792 0.10856 0.24128 0.0
H1053 H 0.76408 0.01208 0.25732 0.0
H1054 H 0.78328 0.00166 0.23352 0.0
H1055 H 0.7404 0.01356 0.23306 0.0
C1056 C 0.18036 0.46709 0.22762 0.0
C1057 C 0.16805 0.44741 0.22098 0.0
C1058 C 0.2119 0.46892 0.23892 0.0
C1059 C 0.2314 0.45062 0.24377 0.0
C1060 C 0.21882 0.43071 0.23734 0.0
C1061 C 0.18734 0.42936 0.22602 0.0
C1062 C 0.22457 0.49041 0.24545 0.0
C1063 C 0.23868 0.4108 0.24235 0.0
C1064 C 0.32904 0.45295 0.25493 0.0
C1065 C 0.32992 0.4507 0.27694 0.0
C1066 C 0.29709 0.45371 0.244 0.0
C1067 C 0.26524 0.45215 0.25533 0.0
C1068 C 0.26592 0.45063 0.27761 0.0
C1069 C 0.29825 0.44992 0.28815 0.0
C1070 C 0.29746 0.45548 0.22024 0.0
C1071 C 0.23252 0.44888 0.29025 0.0
H1072 H 0.16564 0.48109 0.22364 0.0
H1073 H 0.17762 0.41408 0.22124 0.0
H1074 H 0.22829 0.49098 0.26279 0.0
H1075 H 0.2504 0.49366 0.23811 0.0
H1076 H 0.20603 0.50304 0.2408 0.0
H1077 H 0.22505 0.39654 0.23648 0.0
H1078 H 0.26515 0.41144 0.23515 0.0
H1079 H 0.24228 0.40931 0.25965 0.0
H1080 H 0.35342 0.45386 0.24622 0.0
H1081 H 0.29871 0.44795 0.30513 0.0
H1082 H 0.28051 0.46866 0.21507 0.0
H1083 H 0.28668 0.44091 0.21319 0.0
H1084 H 0.32428 0.45801 0.21392 0.0
H1085 H 0.21426 0.46176 0.28602 0.0
H1086 H 0.23742 0.44942 0.30752 0.0
H1087 H 0.21919 0.43386 0.28645 0.0
C1088 C 0.97602 0.03027 0.03626 0.0
C1089 C 0.00243 0.02505 0.05073 0.0
C1090 C 0.97582 0.02175 0.01585 0.0
C1091 C 0.00252 0.00754 0.00982 0.0
C1092 C 0.02935 0.00227 0.02431 0.0
C1093 C 0.02905 0.01116 0.04458 0.0
C1094 C 0.94696 0.0279 0.00077 0.0
C1095 C 0.05808 0.98704 0.01851 0.0
C1096 C 0.98248 0.97022 0.96468 0.0
C1097 C 1.00008 0.9798 0.94782 0.0
C1098 C 0.98335 0.97898 0.98498 0.0
C1099 C 0.00199 0.99789 0.98845 0.0
C1100 C 0.0198 0.00765 0.97148 0.0
C1101 C 0.01878 0.99841 0.95137 0.0
C1102 C 0.96434 0.96799 0.00271 0.0
C1103 C 0.03963 0.02794 0.97452 0.0
H1104 H 0.95566 0.04122 0.04086 0.0
H1105 H 0.04931 0.00692 0.05579 0.0
H1106 H 0.95838 0.03468 0.98619 0.0
H1107 H 0.93181 0.01379 0.99607 0.0
H1108 H 0.92862 0.03953 0.00775 0.0
H1109 H 0.07726 0.9848 0.0315 0.0
H1110 H 0.04655 0.97156 0.01445 0.0
H1111 H 0.07229 0.99273 0.00435 0.0
H1112 H 0.96836 0.95568 0.96203 0.0
H1113 H 0.03214 0.00595 0.93832 0.0
H1114 H 0.94401 0.97851 0.0094 0.0
H1115 H 0.98297 0.96424 0.01562 0.0
H1116 H 0.95157 0.95321 0.99746 0.0
H1117 H 0.02159 0.04033 0.9803 0.0
H1118 H 0.05215 0.03348 0.95972 0.0
H1119 H 0.06025 0.02585 0.98668 0.0
C1120 C 0.9678 0.51333 0.956 0.0
C1121 C 0.99958 0.52038 0.94745 0.0
C1122 C 0.96654 0.50407 0.97609 0.0
C1123 C 0.99784 0.50175 0.98785 0.0
C1124 C 0.03005 0.5086 0.9792 0.0
C1125 C 0.03052 0.51787 0.95912 0.0
C1126 C 0.93167 0.49704 0.98484 0.0
C1127 C 0.064 0.50627 0.9912 0.0
C1128 C 0.99202 0.49664 0.04745 0.0
C1129 C 0.99601 0.47493 0.0503 0.0
C1130 C 0.99234 0.50556 0.02721 0.0
C1131 C 0.99685 0.49244 0.00937 0.0
C1132 C 0.00077 0.47051 0.01213 0.0
C1133 C 0.00028 0.46201 0.03256 0.0
C1134 C 0.98791 0.52901 0.0249 0.0
C1135 C 0.0058 0.45604 0.9935 0.0
H1136 H 0.94375 0.51546 0.94716 0.0
H1137 H 0.05522 0.52303 0.95246 0.0
H1138 H 0.9327 0.48011 0.98891 0.0
H1139 H 0.92582 0.50574 0.99959 0.0
H1140 H 0.90985 0.49961 0.97353 0.0
H1141 H 0.0869 0.51206 0.98209 0.0
H1142 H 0.06253 0.51512 0.00626 0.0
H1143 H 0.06843 0.48953 0.99526 0.0
H1144 H 0.98826 0.50667 0.06108 0.0
H1145 H 0.00382 0.44526 0.03468 0.0
H1146 H 0.96488 0.53247 0.01481 0.0
H1147 H 0.01121 0.53581 0.01698 0.0
H1148 H 0.98434 0.53698 0.04034 0.0
H1149 H 0.98345 0.45761 0.98242 0.0
H1150 H 0.00805 0.43932 0.99831 0.0
H1151 H 0.02984 0.46051 0.98475 0.0
C1152 C 0.52486 0.46941 0.46266 0.0
C1153 C 0.50169 0.47764 0.44758 0.0
C1154 C 0.52613 0.47756 0.48321 0.0
C1155 C 0.50368 0.49434 0.48885 0.0
C1156 C 0.48037 0.5028 0.47369 0.0
C1157 C 0.47966 0.49434 0.45324 0.0
C1158 C 0.55129 0.4681 0.49896 0.0
C1159 C 0.4561 0.52074 0.47909 0.0
C1160 C 0.48249 0.50291 0.54677 0.0
C1161 C 0.50474 0.51967 0.55194 0.0
C1162 C 0.482 0.49445 0.52632 0.0
C1163 C 0.50434 0.50294 0.51067 0.0
C1164 C 0.52707 0.51974 0.51582 0.0
C1165 C 0.52699 0.5279 0.53639 0.0
C1166 C 0.45747 0.47649 0.52145 0.0
C1167 C 0.55123 0.52922 0.49954 0.0
H1168 H 0.54162 0.45631 0.45848 0.0
H1169 H 0.46202 0.50096 0.4416 0.0
H1170 H 0.56911 0.48041 0.50516 0.0
H1171 H 0.53655 0.46166 0.51258 0.0
H1172 H 0.56736 0.45533 0.49198 0.0
H1173 H 0.43971 0.52561 0.46546 0.0
H1174 H 0.43856 0.51612 0.49225 0.0
H1175 H 0.47154 0.53448 0.48451 0.0
H1176 H 0.46557 0.49628 0.55878 0.0
H1177 H 0.54391 0.54104 0.54018 0.0
H1178 H 0.47259 0.46277 0.51567 0.0
H1179 H 0.4391 0.4811 0.5087 0.0
H1180 H 0.44195 0.47158 0.53543 0.0
H1181 H 0.56866 0.51693 0.49293 0.0
H1182 H 0.56773 0.54199 0.50617 0.0
H1183 H 0.53566 0.53568 0.48626 0.0
C1184 C 0.51919 0.96807 0.53518 0.0
C1185 C 0.49871 0.97676 0.55134 0.0
C1186 C 0.51856 0.97648 0.51473 0.0
C1187 C 0.49716 0.99411 0.51038 0.0
C1188 C 0.47639 0.00295 0.52662 0.0
C1189 C 0.47729 0.9941 0.5469 0.0
C1190 C 0.54082 0.9665 0.49778 0.0
C1191 C 0.45351 0.02188 0.52263 0.0
C1192 C 0.52168 0.02761 0.46308 0.0
C1193 C 0.49757 0.02075 0.44787 0.0
C1194 C 0.5216 0.01922 0.48354 0.0
C1195 C 0.49695 0.00349 0.48889 0.0
C1196 C 0.47247 0.99653 0.47362 0.0
C1197 C 0.47298 0.00531 0.45331 0.0
C1198 C 0.54792 0.02718 0.49943 0.0
C1199 C 0.44598 0.97966 0.4787 0.0
H1200 H 0.53543 0.9545 0.53849 0.0
H1201 H 0.46168 0.00097 0.55941 0.0
H1202 H 0.52408 0.96153 0.48436 0.0
H1203 H 0.55989 0.97811 0.49159 0.0
H1204 H 0.55548 0.9526 0.50365 0.0
H1205 H 0.43875 0.02676 0.53691 0.0
H1206 H 0.46987 0.03527 0.51728 0.0
H1207 H 0.43453 0.01844 0.50984 0.0
H1208 H 0.54041 0.03976 0.45903 0.0
H1209 H 0.45452 0.99983 0.44154 0.0
H1210 H 0.56482 0.01407 0.50484 0.0
H1211 H 0.53414 0.03342 0.51351 0.0
H1212 H 0.56491 0.03975 0.49287 0.0
H1213 H 0.45969 0.96502 0.48338 0.0
H1214 H 0.42855 0.97613 0.46512 0.0
H1215 H 0.42956 0.98458 0.49226 0.0
loop_
_geom_bond_atom_site_label_1
_geom_bond_atom_site_label_2
_geom_bond_distance
_geom_bond_site_symmetry_2
_ccdc_geom_bond_type
Li0 N17 1.990 . S
Li0 O60 1.956 . S
Li0 O61 1.970 1_455 S
Li0 O62 1.961 1_455 S
Li1 N25 1.990 . S
Li1 O60 1.970 . S
Li1 O61 1.943 1_455 S
Li1 O63 1.961 . S
Li2 N47 1.990 . S
Li2 O60 1.948 1_655 S
Li2 O62 1.969 . S
Li2 O63 1.970 1_655 S
Li3 N53 1.990 . S
Li3 O61 1.973 . S
Li3 O62 1.970 . S
Li3 O63 1.956 1_655 S
C4 C6 1.348 . S
C4 C7 1.356 . S
C4 O60 1.325 . S
N5 C8 1.314 . S
N5 C9 1.279 . S
C6 C4 1.348 . S
C6 C8 1.353 . S
C6 H64 0.929 . S
C7 C4 1.356 . S
C7 C9 1.358 . S
C7 H65 0.930 . S
C8 N5 1.314 . S
C8 C6 1.353 . S
C8 H66 0.930 . S
C9 N5 1.279 . S
C9 C7 1.358 . S
C9 H67 0.930 . S
C10 C13 1.350 . S
C10 C14 1.355 1_455 S
C10 O61 1.324 1_455 S
C11 N12 1.279 1_655 S
C11 C14 1.358 . S
C11 H68 0.930 . S
N12 C11 1.279 1_455 S
N12 C15 1.314 . S
C13 C10 1.350 . S
C13 C15 1.353 . S
C13 H69 0.929 . S
C14 C10 1.355 1_655 S
C14 C11 1.358 . S
C14 H70 0.930 . S
C15 N12 1.314 . S
C15 C13 1.353 . S
C15 H71 0.930 . S
C16 N17 1.314 1_655 S
C16 C21 1.353 . S
C16 H22 0.930 . S
N17 Li0 1.990 . S
N17 C16 1.314 1_455 S
N17 C19 1.279 . S
C18 C19 1.358 . S
C18 C20 1.368 . S
C18 H72 0.930 . S
C19 N17 1.279 . S
C19 C18 1.358 . S
C19 H23 0.930 . S
C20 C18 1.368 . S
C20 C21 1.336 1_455 S
C21 C16 1.353 . S
C21 C20 1.336 1_655 S
C21 H73 0.929 . S
H22 C16 0.930 . S
H23 C19 0.930 . S
C24 N25 1.314 . S
C24 C26 1.353 . S
C24 H30 0.930 . S
N25 Li1 1.990 . S
N25 C24 1.314 . S
N25 C28 1.279 . S
C26 C24 1.353 . S
C26 C29 1.348 . S
C26 H74 0.929 . S
C27 C28 1.358 . S
C27 C29 1.356 . S
C27 H75 0.930 . S
C28 N25 1.279 . S
C28 C27 1.358 . S
C28 H31 0.930 . S
C29 C26 1.348 . S
C29 C27 1.356 . S
H30 C24 0.930 . S
H31 C28 0.930 . S
C32 C34 1.348 . S
C32 C35 1.356 . S
C32 O62 1.325 . S
N33 C36 1.314 . S
N33 C37 1.279 . S
C34 C32 1.348 . S
C34 C36 1.353 . S
C34 H76 0.929 . S
C35 C32 1.356 . S
C35 C37 1.358 . S
C35 H77 0.930 . S
C36 N33 1.314 . S
C36 C34 1.353 . S
C36 H78 0.930 . S
C37 N33 1.279 . S
C37 C35 1.358 . S
C37 H79 0.930 . S
C38 C39 1.343 1_455 S
C38 C40 1.359 . S
C38 O63 1.325 . S
C39 C38 1.343 1_655 S
C39 C41 1.353 1_545 S
C39 H80 0.929 . S
C40 C38 1.359 . S
C40 C42 1.358 1_545 S
C40 H81 0.930 . S
C41 C39 1.353 1_565 S
C41 N43 1.314 . S
C41 H82 0.930 . S
C42 C40 1.358 1_565 S
C42 N43 1.279 1_455 S
C42 H83 0.930 . S
N43 C41 1.314 . S
N43 C42 1.279 1_655 S
C44 C46 1.353 . S
C44 N47 1.314 1_455 S
C44 H50 0.930 . S
C45 N47 1.279 . S
C45 C48 1.358 . S
C45 H51 0.930 . S
C46 C44 1.353 . S
C46 C49 1.356 . S
C46 H84 0.929 . S
N47 Li2 1.990 . S
N47 C44 1.314 1_655 S
N47 C45 1.279 . S
C48 C45 1.358 . S
C48 C49 1.348 1_655 S
C48 H85 0.930 . S
C49 C46 1.356 . S
C49 C48 1.348 1_455 S
H50 C44 0.930 . S
H51 C45 0.930 . S
C52 N53 1.314 . S
C52 C54 1.353 . S
C52 H58 0.930 . S
N53 Li3 1.990 . S
N53 C52 1.314 . S
N53 C56 1.279 . S
C54 C52 1.353 . S
C54 C57 1.348 . S
C54 H86 0.929 . S
C55 C56 1.358 . S
C55 C57 1.356 . S
C55 H87 0.930 . S
C56 N53 1.279 . S
C56 C55 1.358 . S
C56 H59 0.930 . S
C57 C54 1.348 . S
C57 C55 1.356 . S
H58 C52 0.930 . S
H59 C56 0.930 . S
O60 Li0 1.956 . S
O60 Li1 1.970 . S
O60 Li2 1.948 1_455 S
O60 C4 1.325 . S
O61 Li0 1.970 1_655 S
O61 Li1 1.943 1_655 S
O61 Li3 1.973 . S
O61 C10 1.324 1_655 S
O62 Li0 1.961 1_655 S
O62 Li2 1.969 . S
O62 Li3 1.970 . S
O62 C32 1.325 . S
O63 Li1 1.961 . S
O63 Li2 1.970 1_455 S
O63 Li3 1.956 1_455 S
O63 C38 1.325 . S
H64 C6 0.929 . S
H65 C7 0.930 . S
H66 C8 0.930 . S
H67 C9 0.930 . S
H68 C11 0.930 . S
H69 C13 0.929 . S
H70 C14 0.930 . S
H71 C15 0.930 . S
H72 C18 0.930 . S
H73 C21 0.929 . S
H74 C26 0.929 . S
H75 C27 0.930 . S
H76 C34 0.929 . S
H77 C35 0.930 . S
H78 C36 0.930 . S
H79 C37 0.930 . S
H80 C39 0.929 . S
H81 C40 0.930 . S
H82 C41 0.930 . S
H83 C42 0.930 . S
H84 C46 0.929 . S
H85 C48 0.930 . S
H86 C54 0.929 . S
H87 C55 0.930 . S
Li88 N105 1.990 . S
Li88 O148 1.956 . S
Li88 O149 1.969 1_455 S
Li88 O150 1.961 1_455 S
Li89 N113 1.990 . S
Li89 O148 1.970 . S
Li89 O149 1.937 1_455 S
Li89 O151 1.961 . S
Li90 N135 1.991 . S
Li90 O148 1.940 1_655 S
Li90 O150 1.976 . S
Li90 O151 1.970 1_655 S
Li91 N141 1.990 . S
Li91 O149 1.979 . S
Li91 O150 1.970 . S
Li91 O151 1.956 1_655 S
C92 C94 1.348 . S
C92 C95 1.356 . S
C92 O148 1.325 . S
N93 C96 1.314 . S
N93 C97 1.279 . S
C94 C92 1.348 . S
C94 C96 1.353 . S
C94 H152 0.929 . S
C95 C92 1.356 . S
C95 C97 1.358 . S
C95 H153 0.930 . S
C96 N93 1.314 . S
C96 C94 1.353 . S
C96 H154 0.930 . S
C97 N93 1.279 . S
C97 C95 1.358 . S
C97 H155 0.930 . S
C98 C101 1.347 . S
C98 C102 1.356 1_455 S
C98 O149 1.324 1_455 S
C99 N100 1.279 1_655 S
C99 C102 1.358 . S
C99 H156 0.930 . S
N100 C99 1.279 1_455 S
N100 C103 1.314 . S
C101 C98 1.347 . S
C101 C103 1.353 . S
C101 H157 0.929 . S
C102 C98 1.356 1_655 S
C102 C99 1.358 . S
C102 H158 0.930 . S
C103 N100 1.314 . S
C103 C101 1.353 . S
C103 H159 0.930 . S
C104 N105 1.314 1_655 S
C104 C109 1.353 . S
C104 H110 0.930 . S
N105 Li88 1.990 . S
N105 C104 1.314 1_455 S
N105 C107 1.279 . S
C106 C107 1.358 . S
C106 C108 1.360 . S
C106 H160 0.930 . S
C107 N105 1.279 . S
C107 C106 1.358 . S
C107 H111 0.930 . S
C108 C106 1.360 . S
C108 C109 1.344 1_455 S
C109 C104 1.353 . S
C109 C108 1.344 1_655 S
C109 H161 0.929 . S
H110 C104 0.930 . S
H111 C107 0.930 . S
C112 N113 1.314 . S
C112 C114 1.353 . S
C112 H118 0.930 . S
N113 Li89 1.990 . S
N113 C112 1.314 . S
N113 C116 1.279 . S
C114 C112 1.353 . S
C114 C117 1.348 . S
C114 H162 0.929 . S
C115 C116 1.358 . S
C115 C117 1.356 . S
C115 H163 0.930 . S
C116 N113 1.279 . S
C116 C115 1.358 . S
C116 H119 0.930 . S
C117 C114 1.348 . S
C117 C115 1.356 . S
H118 C112 0.930 . S
H119 C116 0.930 . S
C120 C122 1.348 . S
C120 C123 1.356 . S
C120 O150 1.325 . S
N121 C124 1.314 . S
N121 C125 1.279 . S
C122 C120 1.348 . S
C122 C124 1.353 . S
C122 H164 0.929 . S
C123 C120 1.356 . S
C123 C125 1.358 . S
C123 H165 0.930 . S
C124 N121 1.314 . S
C124 C122 1.353 . S
C124 H166 0.930 . S
C125 N121 1.279 . S
C125 C123 1.358 . S
C125 H167 0.930 . S
C126 C127 1.346 1_455 S
C126 C128 1.357 . S
C126 O151 1.325 . S
C127 C126 1.346 1_655 S
C127 C129 1.353 . S
C127 H168 0.929 . S
C128 C126 1.357 . S
C128 C130 1.358 . S
C128 H169 0.930 . S
C129 C127 1.353 . S
C129 N131 1.314 . S
C129 H170 0.930 . S
C130 C128 1.358 . S
C130 N131 1.279 1_455 S
C130 H171 0.930 . S
N131 C129 1.314 . S
N131 C130 1.279 1_655 S
C132 C134 1.353 . S
C132 N135 1.314 1_455 S
C132 H138 0.930 . S
C133 N135 1.279 . S
C133 C136 1.358 . S
C133 H139 0.930 . S
C134 C132 1.353 . S
C134 C137 1.347 . S
C134 H172 0.929 . S
N135 Li90 1.991 . S
N135 C132 1.314 1_655 S
N135 C133 1.279 . S
C136 C133 1.358 . S
C136 C137 1.356 1_655 S
C136 H173 0.930 . S
C137 C134 1.347 . S
C137 C136 1.356 1_455 S
H138 C132 0.930 . S
H139 C133 0.930 . S
C140 N141 1.314 . S
C140 C142 1.353 . S
C140 H146 0.930 . S
N141 Li91 1.990 . S
N141 C140 1.314 . S
N141 C144 1.279 . S
C142 C140 1.353 . S
C142 C145 1.348 . S
C142 H174 0.929 . S
C143 C144 1.358 . S
C143 C145 1.356 . S
C143 H175 0.930 . S
C144 N141 1.279 . S
C144 C143 1.358 . S
C144 H147 0.930 . S
C145 C142 1.348 . S
C145 C143 1.356 . S
H146 C140 0.930 . S
H147 C144 0.930 . S
O148 Li88 1.956 . S
O148 Li89 1.970 . S
O148 Li90 1.940 1_455 S
O148 C92 1.325 . S
O149 Li88 1.969 1_655 S
O149 Li89 1.937 1_655 S
O149 Li91 1.979 . S
O149 C98 1.324 1_655 S
O150 Li88 1.961 1_655 S
O150 Li90 1.976 . S
O150 Li91 1.970 . S
O150 C120 1.325 . S
O151 Li89 1.961 . S
O151 Li90 1.970 1_455 S
O151 Li91 1.956 1_455 S
O151 C126 1.325 . S
H152 C94 0.929 . S
H153 C95 0.930 . S
H154 C96 0.930 . S
H155 C97 0.930 . S
H156 C99 0.930 . S
H157 C101 0.929 . S
H158 C102 0.930 . S
H159 C103 0.930 . S
H160 C106 0.930 . S
H161 C109 0.929 . S
H162 C114 0.929 . S
H163 C115 0.930 . S
H164 C122 0.929 . S
H165 C123 0.930 . S
H166 C124 0.930 . S
H167 C125 0.930 . S
H168 C127 0.929 . S
H169 C128 0.930 . S
H170 C129 0.930 . S
H171 C130 0.930 . S
H172 C134 0.929 . S
H173 C136 0.930 . S
H174 C142 0.929 . S
H175 C143 0.930 . S
Li176 N193 1.990 . S
Li176 O236 1.969 . S
Li176 O237 1.970 1_655 S
Li176 O238 1.948 1_655 S
Li177 N201 1.990 . S
Li177 O236 1.970 . S
Li177 O237 1.956 1_655 S
Li177 O239 1.973 . S
Li178 N223 1.990 . S
Li178 O236 1.961 1_455 S
Li178 O238 1.956 . S
Li178 O239 1.970 1_455 S
Li179 N229 1.990 . S
Li179 O237 1.961 . S
Li179 O238 1.970 . S
Li179 O239 1.943 1_455 S
C180 C182 1.348 . S
C180 C183 1.356 . S
C180 O236 1.325 . S
N181 C184 1.314 . S
N181 C185 1.279 . S
C182 C180 1.348 . S
C182 C184 1.353 . S
C182 H240 0.929 . S
C183 C180 1.356 . S
C183 C185 1.358 . S
C183 H241 0.930 . S
C184 N181 1.314 . S
C184 C182 1.353 . S
C184 H242 0.930 . S
C185 N181 1.279 . S
C185 C183 1.358 . S
C185 H243 0.930 . S
C186 C189 1.343 1_455 S
C186 C190 1.359 . S
C186 O237 1.325 . S
C187 N188 1.279 1_455 S
C187 C190 1.358 1_545 S
C187 H244 0.930 . S
N188 C187 1.279 1_655 S
N188 C191 1.314 . S
C189 C186 1.343 1_655 S
C189 C191 1.353 1_565 S
C189 H245 0.929 . S
C190 C186 1.359 . S
C190 C187 1.358 1_565 S
C190 H246 0.930 . S
C191 N188 1.314 . S
C191 C189 1.353 1_545 S
C191 H247 0.930 . S
C192 N193 1.314 1_455 S
C192 C197 1.353 . S
C192 H198 0.930 . S
N193 Li176 1.990 . S
N193 C192 1.314 1_655 S
N193 C195 1.279 . S
C194 C195 1.358 . S
C194 C196 1.348 1_655 S
C194 H248 0.930 . S
C195 N193 1.279 . S
C195 C194 1.358 . S
C195 H199 0.930 . S
C196 C194 1.348 1_455 S
C196 C197 1.356 . S
C197 C192 1.353 . S
C197 C196 1.356 . S
C197 H249 0.929 . S
H198 C192 0.930 . S
H199 C195 0.930 . S
C200 N201 1.314 . S
C200 C202 1.353 . S
C200 H206 0.930 . S
N201 Li177 1.990 . S
N201 C200 1.314 . S
N201 C204 1.279 . S
C202 C200 1.353 . S
C202 C205 1.348 . S
C202 H250 0.929 . S
C203 C204 1.358 . S
C203 C205 1.356 . S
C203 H251 0.930 . S
C204 N201 1.279 . S
C204 C203 1.358 . S
C204 H207 0.930 . S
C205 C202 1.348 . S
C205 C203 1.356 . S
H206 C200 0.930 . S
H207 C204 0.930 . S
C208 C210 1.348 . S
C208 C211 1.356 . S
C208 O238 1.325 . S
N209 C212 1.314 . S
N209 C213 1.279 . S
C210 C208 1.348 . S
C210 C212 1.353 . S
C210 H252 0.929 . S
C211 C208 1.356 . S
C211 C213 1.358 . S
C211 H253 0.930 . S
C212 N209 1.314 . S
C212 C210 1.353 . S
C212 H254 0.930 . S
C213 N209 1.279 . S
C213 C211 1.358 . S
C213 H255 0.930 . S
C214 C215 1.350 . S
C214 C216 1.355 1_455 S
C214 O239 1.324 1_455 S
C215 C214 1.350 . S
C215 C217 1.353 . S
C215 H256 0.929 . S
C216 C214 1.355 1_655 S
C216 C218 1.358 . S
C216 H257 0.930 . S
C217 C215 1.353 . S
C217 N219 1.314 . S
C217 H258 0.930 . S
C218 C216 1.358 . S
C218 N219 1.279 1_655 S
C218 H259 0.930 . S
N219 C217 1.314 . S
N219 C218 1.279 1_455 S
C220 C222 1.353 . S
C220 N223 1.314 1_655 S
C220 H226 0.930 . S
C221 N223 1.279 . S
C221 C224 1.358 . S
C221 H227 0.930 . S
C222 C220 1.353 . S
C222 C225 1.336 1_655 S
C222 H260 0.929 . S
N223 Li178 1.990 . S
N223 C220 1.314 1_455 S
N223 C221 1.279 . S
C224 C221 1.358 . S
C224 C225 1.368 . S
C224 H261 0.930 . S
C225 C222 1.336 1_455 S
C225 C224 1.368 . S
H226 C220 0.930 . S
H227 C221 0.930 . S
C228 N229 1.314 . S
C228 C230 1.353 . S
C228 H234 0.930 . S
N229 Li179 1.990 . S
N229 C228 1.314 . S
N229 C232 1.279 . S
C230 C228 1.353 . S
C230 C233 1.348 . S
C230 H262 0.929 . S
C231 C232 1.358 . S
C231 C233 1.356 . S
C231 H263 0.930 . S
C232 N229 1.279 . S
C232 C231 1.358 . S
C232 H235 0.930 . S
C233 C230 1.348 . S
C233 C231 1.356 . S
H234 C228 0.930 . S
H235 C232 0.930 . S
O236 Li176 1.969 . S
O236 Li177 1.970 . S
O236 Li178 1.961 1_655 S
O236 C180 1.325 . S
O237 Li176 1.970 1_455 S
O237 Li177 1.956 1_455 S
O237 Li179 1.961 . S
O237 C186 1.325 . S
O238 Li176 1.948 1_455 S
O238 Li178 1.956 . S
O238 Li179 1.970 . S
O238 C208 1.325 . S
O239 Li177 1.973 . S
O239 Li178 1.970 1_655 S
O239 Li179 1.943 1_655 S
O239 C214 1.324 1_655 S
H240 C182 0.929 . S
H241 C183 0.930 . S
H242 C184 0.930 . S
H243 C185 0.930 . S
H244 C187 0.930 . S
H245 C189 0.929 . S
H246 C190 0.930 . S
H247 C191 0.930 . S
H248 C194 0.930 . S
H249 C197 0.929 . S
H250 C202 0.929 . S
H251 C203 0.930 . S
H252 C210 0.929 . S
H253 C211 0.930 . S
H254 C212 0.930 . S
H255 C213 0.930 . S
H256 C215 0.929 . S
H257 C216 0.930 . S
H258 C217 0.930 . S
H259 C218 0.930 . S
H260 C222 0.929 . S
H261 C224 0.930 . S
H262 C230 0.929 . S
H263 C231 0.930 . S
Li264 N281 1.990 . S
Li264 O324 1.956 1_655 S
Li264 O325 1.970 . S
Li264 O326 1.979 . S
Li265 N289 1.991 . S
Li265 O324 1.970 1_655 S
Li265 O325 1.976 . S
Li265 O327 1.940 1_655 S
Li266 N311 1.990 . S
Li266 O324 1.961 . S
Li266 O326 1.937 1_455 S
Li266 O327 1.970 . S
Li267 N317 1.990 . S
Li267 O325 1.961 1_455 S
Li267 O326 1.969 1_455 S
Li267 O327 1.956 . S
C268 C270 1.346 1_455 S
C268 C271 1.357 . S
C268 O324 1.325 . S
N269 C272 1.314 . S
N269 C273 1.279 1_655 S
C270 C268 1.346 1_655 S
C270 C272 1.353 . S
C270 H328 0.929 . S
C271 C268 1.357 . S
C271 C273 1.358 . S
C271 H329 0.930 . S
C272 N269 1.314 . S
C272 C270 1.353 . S
C272 H330 0.930 . S
C273 N269 1.279 1_455 S
C273 C271 1.358 . S
C273 H331 0.930 . S
C274 C277 1.348 . S
C274 C278 1.356 . S
C274 O325 1.325 . S
C275 N276 1.279 . S
C275 C278 1.358 . S
C275 H332 0.930 . S
N276 C275 1.279 . S
N276 C279 1.314 . S
C277 C274 1.348 . S
C277 C279 1.353 . S
C277 H333 0.929 . S
C278 C274 1.356 . S
C278 C275 1.358 . S
C278 H334 0.930 . S
C279 N276 1.314 . S
C279 C277 1.353 . S
C279 H335 0.930 . S
C280 N281 1.314 . S
C280 C285 1.353 . S
C280 H286 0.930 . S
N281 Li264 1.990 . S
N281 C280 1.314 . S
N281 C283 1.279 . S
C282 C283 1.358 . S
C282 C284 1.356 . S
C282 H336 0.930 . S
C283 N281 1.279 . S
C283 C282 1.358 . S
C283 H287 0.930 . S
C284 C282 1.356 . S
C284 C285 1.348 . S
C285 C280 1.353 . S
C285 C284 1.348 . S
C285 H337 0.929 . S
H286 C280 0.930 . S
H287 C283 0.930 . S
C288 N289 1.314 1_455 S
C288 C290 1.353 . S
C288 H294 0.930 . S
N289 Li265 1.991 . S
N289 C288 1.314 1_655 S
N289 C292 1.279 . S
C290 C288 1.353 . S
C290 C293 1.347 . S
C290 H338 0.929 . S
C291 C292 1.358 . S
C291 C293 1.356 1_655 S
C291 H339 0.930 . S
C292 N289 1.279 . S
C292 C291 1.358 . S
C292 H295 0.930 . S
C293 C290 1.347 . S
C293 C291 1.356 1_455 S
H294 C288 0.930 . S
H295 C292 0.930 . S
C296 C298 1.347 . S
C296 C299 1.356 1_455 S
C296 O326 1.324 1_455 S
N297 C300 1.314 . S
N297 C301 1.279 1_455 S
C298 C296 1.347 . S
C298 C300 1.353 . S
C298 H340 0.929 . S
C299 C296 1.356 1_655 S
C299 C301 1.358 . S
C299 H341 0.930 . S
C300 N297 1.314 . S
C300 C298 1.353 . S
C300 H342 0.930 . S
C301 N297 1.279 1_655 S
C301 C299 1.358 . S
C301 H343 0.930 . S
C302 C303 1.348 . S
C302 C304 1.356 . S
C302 O327 1.325 . S
C303 C302 1.348 . S
C303 C305 1.353 . S
C303 H344 0.929 . S
C304 C302 1.356 . S
C304 C306 1.358 . S
C304 H345 0.930 . S
C305 C303 1.353 . S
C305 N307 1.314 . S
C305 H346 0.930 . S
C306 C304 1.358 . S
C306 N307 1.279 . S
C306 H347 0.930 . S
N307 C305 1.314 . S
N307 C306 1.279 . S
C308 C310 1.353 . S
C308 N311 1.314 . S
C308 H314 0.930 . S
C309 N311 1.279 . S
C309 C312 1.358 . S
C309 H315 0.930 . S
C310 C308 1.353 . S
C310 C313 1.348 . S
C310 H348 0.929 . S
N311 Li266 1.990 . S
N311 C308 1.314 . S
N311 C309 1.279 . S
C312 C309 1.358 . S
C312 C313 1.356 . S
C312 H349 0.930 . S
C313 C310 1.348 . S
C313 C312 1.356 . S
H314 C308 0.930 . S
H315 C309 0.930 . S
C316 N317 1.314 1_655 S
C316 C318 1.353 . S
C316 H322 0.930 . S
N317 Li267 1.990 . S
N317 C316 1.314 1_455 S
N317 C320 1.279 . S
C318 C316 1.353 . S
C318 C321 1.344 1_655 S
C318 H350 0.929 . S
C319 C320 1.358 . S
C319 C321 1.360 . S
C319 H351 0.930 . S
C320 N317 1.279 . S
C320 C319 1.358 . S
C320 H323 0.930 . S
C321 C318 1.344 1_455 S
C321 C319 1.360 . S
H322 C316 0.930 . S
H323 C320 0.930 . S
O324 Li264 1.956 1_455 S
O324 Li265 1.970 1_455 S
O324 Li266 1.961 . S
O324 C268 1.325 . S
O325 Li264 1.970 . S
O325 Li265 1.976 . S
O325 Li267 1.961 1_655 S
O325 C274 1.325 . S
O326 Li264 1.979 . S
O326 Li266 1.937 1_655 S
O326 Li267 1.969 1_655 S
O326 C296 1.324 1_655 S
O327 Li265 1.940 1_455 S
O327 Li266 1.970 . S
O327 Li267 1.956 . S
O327 C302 1.325 . S
H328 C270 0.929 . S
H329 C271 0.930 . S
H330 C272 0.930 . S
H331 C273 0.930 . S
H332 C275 0.930 . S
H333 C277 0.929 . S
H334 C278 0.930 . S
H335 C279 0.930 . S
H336 C282 0.930 . S
H337 C285 0.929 . S
H338 C290 0.929 . S
H339 C291 0.930 . S
H340 C298 0.929 . S
H341 C299 0.930 . S
H342 C300 0.930 . S
H343 C301 0.930 . S
H344 C303 0.929 . S
H345 C304 0.930 . S
H346 C305 0.930 . S
H347 C306 0.930 . S
H348 C310 0.929 . S
H349 C312 0.930 . S
H350 C318 0.929 . S
H351 C319 0.930 . S
Li352 N369 1.990 . S
Li352 O412 1.956 . S
Li352 O413 1.970 . S
Li352 O414 1.961 . S
Li353 N377 1.990 . S
Li353 O412 1.970 . S
Li353 O413 1.956 . S
Li353 O415 1.961 . S
Li354 N399 1.990 . S
Li354 O412 1.961 . S
Li354 O414 1.956 . S
Li354 O415 1.970 . S
Li355 N405 1.990 . S
Li355 O413 1.961 . S
Li355 O414 1.970 . S
Li355 O415 1.956 . S
C356 C358 1.348 . S
C356 C359 1.356 . S
C356 O412 1.325 . S
N357 C360 1.314 . S
N357 C361 1.279 . S
C358 C356 1.348 . S
C358 C360 1.353 . S
C358 H416 0.929 . S
C359 C356 1.356 . S
C359 C361 1.358 . S
C359 H417 0.930 . S
C360 N357 1.314 . S
C360 C358 1.353 . S
C360 H418 0.930 . S
C361 N357 1.279 . S
C361 C359 1.358 . S
C361 H419 0.930 . S
C362 C365 1.348 . S
C362 C366 1.356 . S
C362 O413 1.325 . S
C363 N364 1.279 . S
C363 C366 1.358 . S
C363 H420 0.930 . S
N364 C363 1.279 . S
N364 C367 1.314 . S
C365 C362 1.348 . S
C365 C367 1.353 . S
C365 H421 0.929 . S
C366 C362 1.356 . S
C366 C363 1.358 . S
C366 H422 0.930 . S
C367 N364 1.314 . S
C367 C365 1.353 . S
C367 H423 0.930 . S
C368 N369 1.314 . S
C368 C373 1.353 . S
C368 H374 0.930 . S
N369 Li352 1.990 . S
N369 C368 1.314 . S
N369 C371 1.279 . S
C370 C371 1.358 . S
C370 C372 1.356 . S
C370 H424 0.930 . S
C371 N369 1.279 . S
C371 C370 1.358 . S
C371 H375 0.930 . S
C372 C370 1.356 . S
C372 C373 1.348 . S
C373 C368 1.353 . S
C373 C372 1.348 . S
C373 H425 0.929 . S
H374 C368 0.930 . S
H375 C371 0.930 . S
C376 N377 1.314 . S
C376 C378 1.353 . S
C376 H382 0.930 . S
N377 Li353 1.990 . S
N377 C376 1.314 . S
N377 C380 1.279 . S
C378 C376 1.353 . S
C378 C381 1.348 . S
C378 H426 0.929 . S
C379 C380 1.358 . S
C379 C381 1.356 . S
C379 H427 0.930 . S
C380 N377 1.279 . S
C380 C379 1.358 . S
C380 H383 0.930 . S
C381 C378 1.348 . S
C381 C379 1.356 . S
H382 C376 0.930 . S
H383 C380 0.930 . S
C384 C386 1.348 . S
C384 C387 1.356 . S
C384 O414 1.325 . S
N385 C388 1.314 . S
N385 C389 1.279 . S
C386 C384 1.348 . S
C386 C388 1.353 . S
C386 H428 0.929 . S
C387 C384 1.356 . S
C387 C389 1.358 . S
C387 H429 0.930 . S
C388 N385 1.314 . S
C388 C386 1.353 . S
C388 H430 0.930 . S
C389 N385 1.279 . S
C389 C387 1.358 . S
C389 H431 0.930 . S
C390 C391 1.348 . S
C390 C392 1.356 . S
C390 O415 1.325 . S
C391 C390 1.348 . S
C391 C393 1.353 . S
C391 H432 0.929 . S
C392 C390 1.356 . S
C392 C394 1.358 . S
C392 H433 0.930 . S
C393 C391 1.353 . S
C393 N395 1.314 . S
C393 H434 0.930 . S
C394 C392 1.358 . S
C394 N395 1.279 . S
C394 H435 0.930 . S
N395 C393 1.314 . S
N395 C394 1.279 . S
C396 C398 1.353 . S
C396 N399 1.314 . S
C396 H402 0.930 . S
C397 N399 1.279 . S
C397 C400 1.358 . S
C397 H403 0.930 . S
C398 C396 1.353 . S
C398 C401 1.348 . S
C398 H436 0.929 . S
N399 Li354 1.990 . S
N399 C396 1.314 . S
N399 C397 1.279 . S
C400 C397 1.358 . S
C400 C401 1.356 . S
C400 H437 0.930 . S
C401 C398 1.348 . S
C401 C400 1.356 . S
H402 C396 0.930 . S
H403 C397 0.930 . S
C404 N405 1.314 . S
C404 C406 1.353 . S
C404 H410 0.930 . S
N405 Li355 1.990 . S
N405 C404 1.314 . S
N405 C408 1.279 . S
C406 C404 1.353 . S
C406 C409 1.348 . S
C406 H438 0.929 . S
C407 C408 1.358 . S
C407 C409 1.356 . S
C407 H439 0.930 . S
C408 N405 1.279 . S
C408 C407 1.358 . S
C408 H411 0.930 . S
C409 C406 1.348 . S
C409 C407 1.356 . S
H410 C404 0.930 . S
H411 C408 0.930 . S
O412 Li352 1.956 . S
O412 Li353 1.970 . S
O412 Li354 1.961 . S
O412 C356 1.325 . S
O413 Li352 1.970 . S
O413 Li353 1.956 . S
O413 Li355 1.961 . S
O413 C362 1.325 . S
O414 Li352 1.961 . S
O414 Li354 1.956 . S
O414 Li355 1.970 . S
O414 C384 1.325 . S
O415 Li353 1.961 . S
O415 Li354 1.970 . S
O415 Li355 1.956 . S
O415 C390 1.325 . S
H416 C358 0.929 . S
H417 C359 0.930 . S
H418 C360 0.930 . S
H419 C361 0.930 . S
H420 C363 0.930 . S
H421 C365 0.929 . S
H422 C366 0.930 . S
H423 C367 0.930 . S
H424 C370 0.930 . S
H425 C373 0.929 . S
H426 C378 0.929 . S
H427 C379 0.930 . S
H428 C386 0.929 . S
H429 C387 0.930 . S
H430 C388 0.930 . S
H431 C389 0.930 . S
H432 C391 0.929 . S
H433 C392 0.930 . S
H434 C393 0.930 . S
H435 C394 0.930 . S
H436 C398 0.929 . S
H437 C400 0.930 . S
H438 C406 0.929 . S
H439 C407 0.930 . S
Li440 N457 1.990 . S
Li440 O500 1.956 . S
Li440 O501 1.970 . S
Li440 O502 1.961 . S
Li441 N465 1.990 . S
Li441 O500 1.970 . S
Li441 O501 1.956 . S
Li441 O503 1.961 . S
Li442 N487 1.990 . S
Li442 O500 1.961 . S
Li442 O502 1.956 . S
Li442 O503 1.970 . S
Li443 N493 1.990 . S
Li443 O501 1.961 . S
Li443 O502 1.970 . S
Li443 O503 1.956 . S
C444 C446 1.348 . S
C444 C447 1.356 . S
C444 O500 1.325 . S
N445 C448 1.314 . S
N445 C449 1.279 . S
C446 C444 1.348 . S
C446 C448 1.353 . S
C446 H504 0.929 . S
C447 C444 1.356 . S
C447 C449 1.358 . S
C447 H505 0.930 . S
C448 N445 1.314 . S
C448 C446 1.353 . S
C448 H506 0.930 . S
C449 N445 1.279 . S
C449 C447 1.358 . S
C449 H507 0.930 . S
C450 C453 1.348 . S
C450 C454 1.356 . S
C450 O501 1.325 . S
C451 N452 1.279 . S
C451 C454 1.358 1_545 S
C451 H508 0.930 . S
N452 C451 1.279 . S
N452 C455 1.314 . S
C453 C450 1.348 . S
C453 C455 1.353 1_565 S
C453 H509 0.929 . S
C454 C450 1.356 . S
C454 C451 1.358 1_565 S
C454 H510 0.930 . S
C455 N452 1.314 . S
C455 C453 1.353 1_545 S
C455 H511 0.930 . S
C456 N457 1.314 . S
C456 C461 1.353 . S
C456 H462 0.930 . S
N457 Li440 1.990 . S
N457 C456 1.314 . S
N457 C459 1.279 . S
C458 C459 1.358 . S
C458 C460 1.356 . S
C458 H512 0.930 . S
C459 N457 1.279 . S
C459 C458 1.358 . S
C459 H463 0.930 . S
C460 C458 1.356 . S
C460 C461 1.348 . S
C461 C456 1.353 . S
C461 C460 1.348 . S
C461 H513 0.929 . S
H462 C456 0.930 . S
H463 C459 0.930 . S
C464 N465 1.314 . S
C464 C466 1.353 . S
C464 H470 0.930 . S
N465 Li441 1.990 . S
N465 C464 1.314 . S
N465 C468 1.279 . S
C466 C464 1.353 . S
C466 C469 1.348 . S
C466 H514 0.929 . S
C467 C468 1.358 . S
C467 C469 1.356 . S
C467 H515 0.930 . S
C468 N465 1.279 . S
C468 C467 1.358 . S
C468 H471 0.930 . S
C469 C466 1.348 . S
C469 C467 1.356 . S
H470 C464 0.930 . S
H471 C468 0.930 . S
C472 C474 1.348 . S
C472 C475 1.356 . S
C472 O502 1.325 . S
N473 C476 1.314 . S
N473 C477 1.279 . S
C474 C472 1.348 . S
C474 C476 1.353 . S
C474 H516 0.929 . S
C475 C472 1.356 . S
C475 C477 1.358 . S
C475 H517 0.930 . S
C476 N473 1.314 . S
C476 C474 1.353 . S
C476 H518 0.930 . S
C477 N473 1.279 . S
C477 C475 1.358 . S
C477 H519 0.930 . S
C478 C479 1.348 . S
C478 C480 1.356 . S
C478 O503 1.325 . S
C479 C478 1.348 . S
C479 C481 1.353 . S
C479 H520 0.929 . S
C480 C478 1.356 . S
C480 C482 1.358 . S
C480 H521 0.930 . S
C481 C479 1.353 . S
C481 N483 1.314 . S
C481 H522 0.930 . S
C482 C480 1.358 . S
C482 N483 1.279 . S
C482 H523 0.930 . S
N483 C481 1.314 . S
N483 C482 1.279 . S
C484 C486 1.353 . S
C484 N487 1.314 . S
C484 H490 0.930 . S
C485 N487 1.279 . S
C485 C488 1.358 . S
C485 H491 0.930 . S
C486 C484 1.353 . S
C486 C489 1.348 . S
C486 H524 0.929 . S
N487 Li442 1.990 . S
N487 C484 1.314 . S
N487 C485 1.279 . S
C488 C485 1.358 . S
C488 C489 1.356 . S
C488 H525 0.930 . S
C489 C486 1.348 . S
C489 C488 1.356 . S
H490 C484 0.930 . S
H491 C485 0.930 . S
C492 N493 1.314 . S
C492 C494 1.353 . S
C492 H498 0.930 . S
N493 Li443 1.990 . S
N493 C492 1.314 . S
N493 C496 1.279 . S
C494 C492 1.353 . S
C494 C497 1.348 . S
C494 H526 0.929 . S
C495 C496 1.358 . S
C495 C497 1.356 . S
C495 H527 0.930 . S
C496 N493 1.279 . S
C496 C495 1.358 . S
C496 H499 0.930 . S
C497 C494 1.348 . S
C497 C495 1.356 . S
H498 C492 0.930 . S
H499 C496 0.930 . S
O500 Li440 1.956 . S
O500 Li441 1.970 . S
O500 Li442 1.961 . S
O500 C444 1.325 . S
O501 Li440 1.970 . S
O501 Li441 1.956 . S
O501 Li443 1.961 . S
O501 C450 1.325 . S
O502 Li440 1.961 . S
O502 Li442 1.956 . S
O502 Li443 1.970 . S
O502 C472 1.325 . S
O503 Li441 1.961 . S
O503 Li442 1.970 . S
O503 Li443 1.956 . S
O503 C478 1.325 . S
H504 C446 0.929 . S
H505 C447 0.930 . S
H506 C448 0.930 . S
H507 C449 0.930 . S
H508 C451 0.930 . S
H509 C453 0.929 . S
H510 C454 0.930 . S
H511 C455 0.930 . S
H512 C458 0.930 . S
H513 C461 0.929 . S
H514 C466 0.929 . S
H515 C467 0.930 . S
H516 C474 0.929 . S
H517 C475 0.930 . S
H518 C476 0.930 . S
H519 C477 0.930 . S
H520 C479 0.929 . S
H521 C480 0.930 . S
H522 C481 0.930 . S
H523 C482 0.930 . S
H524 C486 0.929 . S
H525 C488 0.930 . S
H526 C494 0.929 . S
H527 C495 0.930 . S
Li528 N545 1.990 . S
Li528 O588 1.956 . S
Li528 O589 1.970 . S
Li528 O590 1.961 . S
Li529 N553 1.990 . S
Li529 O588 1.970 . S
Li529 O589 1.956 . S
Li529 O591 1.961 . S
Li530 N575 1.990 . S
Li530 O588 1.961 . S
Li530 O590 1.956 . S
Li530 O591 1.970 . S
Li531 N581 1.990 . S
Li531 O589 1.961 . S
Li531 O590 1.970 . S
Li531 O591 1.956 . S
C532 C534 1.348 . S
C532 C535 1.356 . S
C532 O588 1.325 . S
N533 C536 1.314 . S
N533 C537 1.279 . S
C534 C532 1.348 . S
C534 C536 1.353 . S
C534 H592 0.929 . S
C535 C532 1.356 . S
C535 C537 1.358 . S
C535 H593 0.930 . S
C536 N533 1.314 . S
C536 C534 1.353 . S
C536 H594 0.930 . S
C537 N533 1.279 . S
C537 C535 1.358 . S
C537 H595 0.930 . S
C538 C541 1.348 . S
C538 C542 1.356 . S
C538 O589 1.325 . S
C539 N540 1.279 . S
C539 C542 1.358 . S
C539 H596 0.930 . S
N540 C539 1.279 . S
N540 C543 1.314 . S
C541 C538 1.348 . S
C541 C543 1.353 . S
C541 H597 0.929 . S
C542 C538 1.356 . S
C542 C539 1.358 . S
C542 H598 0.930 . S
C543 N540 1.314 . S
C543 C541 1.353 . S
C543 H599 0.930 . S
C544 N545 1.314 . S
C544 C549 1.353 . S
C544 H550 0.930 . S
N545 Li528 1.990 . S
N545 C544 1.314 . S
N545 C547 1.279 . S
C546 C547 1.358 . S
C546 C548 1.356 . S
C546 H600 0.930 . S
C547 N545 1.279 . S
C547 C546 1.358 . S
C547 H551 0.930 . S
C548 C546 1.356 . S
C548 C549 1.348 . S
C549 C544 1.353 . S
C549 C548 1.348 . S
C549 H601 0.929 . S
H550 C544 0.930 . S
H551 C547 0.930 . S
C552 N553 1.314 . S
C552 C554 1.353 . S
C552 H558 0.930 . S
N553 Li529 1.990 . S
N553 C552 1.314 . S
N553 C556 1.279 . S
C554 C552 1.353 . S
C554 C557 1.348 . S
C554 H602 0.929 . S
C555 C556 1.358 . S
C555 C557 1.356 . S
C555 H603 0.930 . S
C556 N553 1.279 . S
C556 C555 1.358 . S
C556 H559 0.930 . S
C557 C554 1.348 . S
C557 C555 1.356 . S
H558 C552 0.930 . S
H559 C556 0.930 . S
C560 C562 1.348 . S
C560 C563 1.356 . S
C560 O590 1.325 . S
N561 C564 1.314 . S
N561 C565 1.279 . S
C562 C560 1.348 . S
C562 C564 1.353 . S
C562 H604 0.929 . S
C563 C560 1.356 . S
C563 C565 1.358 . S
C563 H605 0.930 . S
C564 N561 1.314 . S
C564 C562 1.353 . S
C564 H606 0.930 . S
C565 N561 1.279 . S
C565 C563 1.358 . S
C565 H607 0.930 . S
C566 C567 1.348 . S
C566 C568 1.356 . S
C566 O591 1.325 . S
C567 C566 1.348 . S
C567 C569 1.353 . S
C567 H608 0.929 . S
C568 C566 1.356 . S
C568 C570 1.358 . S
C568 H609 0.930 . S
C569 C567 1.353 . S
C569 N571 1.314 . S
C569 H610 0.930 . S
C570 C568 1.358 . S
C570 N571 1.279 . S
C570 H611 0.930 . S
N571 C569 1.314 . S
N571 C570 1.279 . S
C572 C574 1.353 . S
C572 N575 1.314 . S
C572 H578 0.930 . S
C573 N575 1.279 . S
C573 C576 1.358 . S
C573 H579 0.930 . S
C574 C572 1.353 . S
C574 C577 1.348 . S
C574 H612 0.929 . S
N575 Li530 1.990 . S
N575 C572 1.314 . S
N575 C573 1.279 . S
C576 C573 1.358 . S
C576 C577 1.356 . S
C576 H613 0.930 . S
C577 C574 1.348 . S
C577 C576 1.356 . S
H578 C572 0.930 . S
H579 C573 0.930 . S
C580 N581 1.314 . S
C580 C582 1.353 . S
C580 H586 0.930 . S
N581 Li531 1.990 . S
N581 C580 1.314 . S
N581 C584 1.279 . S
C582 C580 1.353 . S
C582 C585 1.348 . S
C582 H614 0.929 . S
C583 C584 1.358 . S
C583 C585 1.356 . S
C583 H615 0.930 . S
C584 N581 1.279 . S
C584 C583 1.358 . S
C584 H587 0.930 . S
C585 C582 1.348 . S
C585 C583 1.356 . S
H586 C580 0.930 . S
H587 C584 0.930 . S
O588 Li528 1.956 . S
O588 Li529 1.970 . S
O588 Li530 1.961 . S
O588 C532 1.325 . S
O589 Li528 1.970 . S
O589 Li529 1.956 . S
O589 Li531 1.961 . S
O589 C538 1.325 . S
O590 Li528 1.961 . S
O590 Li530 1.956 . S
O590 Li531 1.970 . S
O590 C560 1.325 . S
O591 Li529 1.961 . S
O591 Li530 1.970 . S
O591 Li531 1.956 . S
O591 C566 1.325 . S
H592 C534 0.929 . S
H593 C535 0.930 . S
H594 C536 0.930 . S
H595 C537 0.930 . S
H596 C539 0.930 . S
H597 C541 0.929 . S
H598 C542 0.930 . S
H599 C543 0.930 . S
H600 C546 0.930 . S
H601 C549 0.929 . S
H602 C554 0.929 . S
H603 C555 0.930 . S
H604 C562 0.929 . S
H605 C563 0.930 . S
H606 C564 0.930 . S
H607 C565 0.930 . S
H608 C567 0.929 . S
H609 C568 0.930 . S
H610 C569 0.930 . S
H611 C570 0.930 . S
H612 C574 0.929 . S
H613 C576 0.930 . S
H614 C582 0.929 . S
H615 C583 0.930 . S
Li616 N633 1.990 . S
Li616 O676 1.956 . S
Li616 O677 1.970 . S
Li616 O678 1.961 . S
Li617 N641 1.990 . S
Li617 O676 1.970 . S
Li617 O677 1.956 . S
Li617 O679 1.961 . S
Li618 N663 1.990 . S
Li618 O676 1.961 . S
Li618 O678 1.956 . S
Li618 O679 1.970 . S
Li619 N669 1.990 . S
Li619 O677 1.961 . S
Li619 O678 1.970 . S
Li619 O679 1.956 . S
C620 C622 1.348 . S
C620 C623 1.356 . S
C620 O676 1.325 . S
N621 C624 1.314 . S
N621 C625 1.279 . S
C622 C620 1.348 . S
C622 C624 1.353 . S
C622 H680 0.929 . S
C623 C620 1.356 . S
C623 C625 1.358 . S
C623 H681 0.930 . S
C624 N621 1.314 . S
C624 C622 1.353 . S
C624 H682 0.930 . S
C625 N621 1.279 . S
C625 C623 1.358 . S
C625 H683 0.930 . S
C626 C629 1.348 . S
C626 C630 1.356 . S
C626 O677 1.325 . S
C627 N628 1.279 . S
C627 C630 1.358 . S
C627 H684 0.930 . S
N628 C627 1.279 . S
N628 C631 1.314 . S
C629 C626 1.348 . S
C629 C631 1.353 . S
C629 H685 0.929 . S
C630 C626 1.356 . S
C630 C627 1.358 . S
C630 H686 0.930 . S
C631 N628 1.314 . S
C631 C629 1.353 . S
C631 H687 0.930 . S
C632 N633 1.314 . S
C632 C637 1.353 . S
C632 H638 0.930 . S
N633 Li616 1.990 . S
N633 C632 1.314 . S
N633 C635 1.279 . S
C634 C635 1.358 . S
C634 C636 1.356 . S
C634 H688 0.930 . S
C635 N633 1.279 . S
C635 C634 1.358 . S
C635 H639 0.930 . S
C636 C634 1.356 . S
C636 C637 1.348 . S
C637 C632 1.353 . S
C637 C636 1.348 . S
C637 H689 0.929 . S
H638 C632 0.930 . S
H639 C635 0.930 . S
C640 N641 1.314 . S
C640 C642 1.353 . S
C640 H646 0.930 . S
N641 Li617 1.990 . S
N641 C640 1.314 . S
N641 C644 1.279 . S
C642 C640 1.353 . S
C642 C645 1.348 . S
C642 H690 0.929 . S
C643 C644 1.358 . S
C643 C645 1.356 . S
C643 H691 0.930 . S
C644 N641 1.279 . S
C644 C643 1.358 . S
C644 H647 0.930 . S
C645 C642 1.348 . S
C645 C643 1.356 . S
H646 C640 0.930 . S
H647 C644 0.930 . S
C648 C650 1.348 . S
C648 C651 1.356 . S
C648 O678 1.325 . S
N649 C652 1.314 . S
N649 C653 1.279 . S
C650 C648 1.348 . S
C650 C652 1.353 . S
C650 H692 0.929 . S
C651 C648 1.356 . S
C651 C653 1.358 . S
C651 H693 0.930 . S
C652 N649 1.314 . S
C652 C650 1.353 . S
C652 H694 0.930 . S
C653 N649 1.279 . S
C653 C651 1.358 . S
C653 H695 0.930 . S
C654 C655 1.348 . S
C654 C656 1.356 . S
C654 O679 1.325 . S
C655 C654 1.348 . S
C655 C657 1.353 1_545 S
C655 H696 0.929 . S
C656 C654 1.356 . S
C656 C658 1.358 1_545 S
C656 H697 0.930 . S
C657 C655 1.353 1_565 S
C657 N659 1.314 . S
C657 H698 0.930 . S
C658 C656 1.358 1_565 S
C658 N659 1.279 . S
C658 H699 0.930 . S
N659 C657 1.314 . S
N659 C658 1.279 . S
C660 C662 1.353 . S
C660 N663 1.314 . S
C660 H666 0.930 . S
C661 N663 1.279 . S
C661 C664 1.358 . S
C661 H667 0.930 . S
C662 C660 1.353 . S
C662 C665 1.348 . S
C662 H700 0.929 . S
N663 Li618 1.990 . S
N663 C660 1.314 . S
N663 C661 1.279 . S
C664 C661 1.358 . S
C664 C665 1.356 . S
C664 H701 0.930 . S
C665 C662 1.348 . S
C665 C664 1.356 . S
H666 C660 0.930 . S
H667 C661 0.930 . S
C668 N669 1.314 . S
C668 C670 1.353 . S
C668 H674 0.930 . S
N669 Li619 1.990 . S
N669 C668 1.314 . S
N669 C672 1.279 . S
C670 C668 1.353 . S
C670 C673 1.348 . S
C670 H702 0.929 . S
C671 C672 1.358 . S
C671 C673 1.356 . S
C671 H703 0.930 . S
C672 N669 1.279 . S
C672 C671 1.358 . S
C672 H675 0.930 . S
C673 C670 1.348 . S
C673 C671 1.356 . S
H674 C668 0.930 . S
H675 C672 0.930 . S
O676 Li616 1.956 . S
O676 Li617 1.970 . S
O676 Li618 1.961 . S
O676 C620 1.325 . S
O677 Li616 1.970 . S
O677 Li617 1.956 . S
O677 Li619 1.961 . S
O677 C626 1.325 . S
O678 Li616 1.961 . S
O678 Li618 1.956 . S
O678 Li619 1.970 . S
O678 C648 1.325 . S
O679 Li617 1.961 . S
O679 Li618 1.970 . S
O679 Li619 1.956 . S
O679 C654 1.325 . S
H680 C622 0.929 . S
H681 C623 0.930 . S
H682 C624 0.930 . S
H683 C625 0.930 . S
H684 C627 0.930 . S
H685 C629 0.929 . S
H686 C630 0.930 . S
H687 C631 0.930 . S
H688 C634 0.930 . S
H689 C637 0.929 . S
H690 C642 0.929 . S
H691 C643 0.930 . S
H692 C650 0.929 . S
H693 C651 0.930 . S
H694 C652 0.930 . S
H695 C653 0.930 . S
H696 C655 0.929 . S
H697 C656 0.930 . S
H698 C657 0.930 . S
H699 C658 0.930 . S
H700 C662 0.929 . S
H701 C664 0.930 . S
H702 C670 0.929 . S
H703 C671 0.930 . S
C704 C705 1.391 1_455 S
C704 C706 1.394 . S
C704 H720 0.931 . S
C705 C704 1.391 1_655 S
C705 C709 1.376 . S
C706 C704 1.394 . S
C706 C707 1.369 1_455 S
C706 C710 1.531 . S
C707 C706 1.369 1_655 S
C707 C708 1.410 . S
C707 C715 1.503 . S
C708 C707 1.410 . S
C708 C709 1.392 . S
C708 C711 1.511 . S
C709 C705 1.376 . S
C709 C708 1.392 . S
C709 H721 0.929 . S
C710 C706 1.531 . S
C710 H722 0.960 . S
C710 H723 0.962 . S
C710 H724 0.960 . S
C711 C708 1.511 . S
C711 H725 0.961 . S
C711 H726 0.961 . S
C711 H727 0.961 . S
C712 C713 1.361 1_455 S
C712 C714 1.363 . S
C712 H728 0.931 . S
C713 C712 1.361 1_655 S
C713 C717 1.418 . S
C714 C712 1.363 . S
C714 C715 1.370 1_455 S
C714 C718 1.524 . S
C715 C707 1.503 . S
C715 C714 1.370 1_655 S
C715 C716 1.403 . S
C716 C715 1.403 . S
C716 C717 1.404 . S
C716 C719 1.539 . S
C717 C713 1.418 . S
C717 C716 1.404 . S
C717 H729 0.930 . S
C718 C714 1.524 . S
C718 H730 0.956 . S
C718 H731 0.961 . S
C718 H732 0.961 . S
C719 C716 1.539 . S
C719 H733 0.958 . S
C719 H734 0.961 . S
C719 H735 0.960 . S
H720 C704 0.931 . S
H721 C709 0.929 . S
H722 C710 0.960 . S
H723 C710 0.962 . S
H724 C710 0.960 . S
H725 C711 0.961 . S
H726 C711 0.961 . S
H727 C711 0.961 . S
H728 C712 0.931 . S
H729 C717 0.930 . S
H730 C718 0.956 . S
H731 C718 0.961 . S
H732 C718 0.961 . S
H733 C719 0.958 . S
H734 C719 0.961 . S
H735 C719 0.960 . S
C736 C737 1.391 1_655 S
C736 C738 1.394 . S
C736 H752 0.931 . S
C737 C736 1.391 1_455 S
C737 C741 1.376 . S
C738 C736 1.394 . S
C738 C739 1.369 1_655 S
C738 C742 1.531 . S
C739 C738 1.369 1_455 S
C739 C740 1.410 . S
C739 C747 1.503 . S
C740 C739 1.410 . S
C740 C741 1.392 . S
C740 C743 1.511 . S
C741 C737 1.376 . S
C741 C740 1.392 . S
C741 H753 0.929 . S
C742 C738 1.531 . S
C742 H754 0.960 . S
C742 H755 0.962 . S
C742 H756 0.960 . S
C743 C740 1.511 . S
C743 H757 0.961 . S
C743 H758 0.961 . S
C743 H759 0.961 . S
C744 C745 1.370 1_655 S
C744 C746 1.363 . S
C744 H760 0.931 . S
C745 C744 1.370 1_455 S
C745 C749 1.408 . S
C746 C744 1.363 . S
C746 C747 1.370 1_655 S
C746 C750 1.524 . S
C747 C739 1.503 . S
C747 C746 1.370 1_455 S
C747 C748 1.403 . S
C748 C747 1.403 . S
C748 C749 1.404 . S
C748 C751 1.539 . S
C749 C745 1.408 . S
C749 C748 1.404 . S
C749 H761 0.930 . S
C750 C746 1.524 . S
C750 H762 0.956 . S
C750 H763 0.961 . S
C750 H764 0.961 . S
C751 C748 1.539 . S
C751 H765 0.958 . S
C751 H766 0.961 . S
C751 H767 0.960 . S
H752 C736 0.931 . S
H753 C741 0.929 . S
H754 C742 0.960 . S
H755 C742 0.962 . S
H756 C742 0.960 . S
H757 C743 0.961 . S
H758 C743 0.961 . S
H759 C743 0.961 . S
H760 C744 0.931 . S
H761 C749 0.930 . S
H762 C750 0.956 . S
H763 C750 0.961 . S
H764 C750 0.961 . S
H765 C751 0.958 . S
H766 C751 0.961 . S
H767 C751 0.960 . S
C768 C769 1.391 . S
C768 C770 1.394 . S
C768 H784 0.931 . S
C769 C768 1.391 . S
C769 C773 1.376 . S
C770 C768 1.394 . S
C770 C771 1.369 . S
C770 C774 1.531 . S
C771 C770 1.369 . S
C771 C772 1.410 . S
C771 C779 1.503 . S
C772 C771 1.410 . S
C772 C773 1.392 . S
C772 C775 1.511 . S
C773 C769 1.376 . S
C773 C772 1.392 . S
C773 H785 0.929 . S
C774 C770 1.531 . S
C774 H786 0.960 . S
C774 H787 0.962 . S
C774 H788 0.960 . S
C775 C772 1.511 . S
C775 H789 0.961 . S
C775 H790 0.961 . S
C775 H791 0.961 . S
C776 C777 1.370 . S
C776 C778 1.363 . S
C776 H792 0.931 . S
C777 C776 1.370 . S
C777 C781 1.408 . S
C778 C776 1.363 . S
C778 C779 1.370 . S
C778 C782 1.524 . S
C779 C771 1.503 . S
C779 C778 1.370 . S
C779 C780 1.403 . S
C780 C779 1.403 . S
C780 C781 1.404 . S
C780 C783 1.539 . S
C781 C777 1.408 . S
C781 C780 1.404 . S
C781 H793 0.930 . S
C782 C778 1.524 . S
C782 H794 0.956 . S
C782 H795 0.961 . S
C782 H796 0.961 . S
C783 C780 1.539 . S
C783 H797 0.958 . S
C783 H798 0.961 . S
C783 H799 0.960 . S
H784 C768 0.931 . S
H785 C773 0.929 . S
H786 C774 0.960 . S
H787 C774 0.962 . S
H788 C774 0.960 . S
H789 C775 0.961 . S
H790 C775 0.961 . S
H791 C775 0.961 . S
H792 C776 0.931 . S
H793 C781 0.930 . S
H794 C782 0.956 . S
H795 C782 0.961 . S
H796 C782 0.961 . S
H797 C783 0.958 . S
H798 C783 0.961 . S
H799 C783 0.960 . S
C800 C801 1.391 . S
C800 C802 1.394 . S
C800 H816 0.931 . S
C801 C800 1.391 . S
C801 C805 1.376 . S
C802 C800 1.394 . S
C802 C803 1.369 . S
C802 C806 1.531 . S
C803 C802 1.369 . S
C803 C804 1.410 . S
C803 C811 1.503 . S
C804 C803 1.410 . S
C804 C805 1.392 . S
C804 C807 1.511 . S
C805 C801 1.376 . S
C805 C804 1.392 . S
C805 H817 0.929 . S
C806 C802 1.531 . S
C806 H818 0.960 . S
C806 H819 0.962 . S
C806 H820 0.960 . S
C807 C804 1.511 . S
C807 H821 0.961 . S
C807 H822 0.961 . S
C807 H823 0.961 . S
C808 C809 1.370 . S
C808 C810 1.363 . S
C808 H824 0.931 . S
C809 C808 1.370 . S
C809 C813 1.408 . S
C810 C808 1.363 . S
C810 C811 1.370 . S
C810 C814 1.524 . S
C811 C803 1.503 . S
C811 C810 1.370 . S
C811 C812 1.403 . S
C812 C811 1.403 . S
C812 C813 1.404 . S
C812 C815 1.539 . S
C813 C809 1.408 . S
C813 C812 1.404 . S
C813 H825 0.930 . S
C814 C810 1.524 . S
C814 H826 0.956 . S
C814 H827 0.961 . S
C814 H828 0.961 . S
C815 C812 1.539 . S
C815 H829 0.958 . S
C815 H830 0.961 . S
C815 H831 0.960 . S
H816 C800 0.931 . S
H817 C805 0.929 . S
H818 C806 0.960 . S
H819 C806 0.962 . S
H820 C806 0.960 . S
H821 C807 0.961 . S
H822 C807 0.961 . S
H823 C807 0.961 . S
H824 C808 0.931 . S
H825 C813 0.930 . S
H826 C814 0.956 . S
H827 C814 0.961 . S
H828 C814 0.961 . S
H829 C815 0.958 . S
H830 C815 0.961 . S
H831 C815 0.960 . S
C832 C833 1.391 . S
C832 C834 1.394 . S
C832 H848 0.931 . S
C833 C832 1.391 . S
C833 C837 1.376 . S
C834 C832 1.394 . S
C834 C835 1.369 . S
C834 C838 1.531 . S
C835 C834 1.369 . S
C835 C836 1.410 . S
C835 C843 1.503 . S
C836 C835 1.410 . S
C836 C837 1.392 . S
C836 C839 1.511 . S
C837 C833 1.376 . S
C837 C836 1.392 . S
C837 H849 0.929 . S
C838 C834 1.531 . S
C838 H850 0.960 . S
C838 H851 0.962 1_545 S
C838 H852 0.960 1_545 S
C839 C836 1.511 . S
C839 H853 0.961 . S
C839 H854 0.961 . S
C839 H855 0.961 . S
C840 C841 1.370 . S
C840 C842 1.363 . S
C840 H856 0.931 . S
C841 C840 1.370 . S
C841 C845 1.408 . S
C842 C840 1.363 . S
C842 C843 1.370 . S
C842 C846 1.524 . S
C843 C835 1.503 . S
C843 C842 1.370 . S
C843 C844 1.403 . S
C844 C843 1.403 . S
C844 C845 1.404 . S
C844 C847 1.539 . S
C845 C841 1.408 . S
C845 C844 1.404 . S
C845 H857 0.930 . S
C846 C842 1.524 . S
C846 H858 0.956 . S
C846 H859 0.961 . S
C846 H860 0.961 . S
C847 C844 1.539 . S
C847 H861 0.958 . S
C847 H862 0.961 . S
C847 H863 0.960 . S
H848 C832 0.931 . S
H849 C837 0.929 . S
H850 C838 0.960 . S
H851 C838 0.962 1_565 S
H852 C838 0.960 1_565 S
H853 C839 0.961 . S
H854 C839 0.961 . S
H855 C839 0.961 . S
H856 C840 0.931 . S
H857 C845 0.930 . S
H858 C846 0.956 . S
H859 C846 0.961 . S
H860 C846 0.961 . S
H861 C847 0.958 . S
H862 C847 0.961 . S
H863 C847 0.960 . S
C864 C865 1.391 . S
C864 C866 1.394 . S
C864 H880 0.931 . S
C865 C864 1.391 . S
C865 C869 1.376 . S
C866 C864 1.394 . S
C866 C867 1.369 . S
C866 C870 1.531 . S
C867 C866 1.369 . S
C867 C868 1.410 . S
C867 C875 1.503 . S
C868 C867 1.410 . S
C868 C869 1.392 . S
C868 C871 1.511 . S
C869 C865 1.376 . S
C869 C868 1.392 . S
C869 H881 0.929 . S
C870 C866 1.531 . S
C870 H882 0.960 . S
C870 H883 0.962 . S
C870 H884 0.960 . S
C871 C868 1.511 . S
C871 H885 0.961 . S
C871 H886 0.961 . S
C871 H887 0.961 . S
C872 C873 1.370 . S
C872 C874 1.363 . S
C872 H888 0.931 . S
C873 C872 1.370 . S
C873 C877 1.408 . S
C874 C872 1.363 . S
C874 C875 1.370 . S
C874 C878 1.524 . S
C875 C867 1.503 . S
C875 C874 1.370 . S
C875 C876 1.403 . S
C876 C875 1.403 . S
C876 C877 1.404 . S
C876 C879 1.539 . S
C877 C873 1.408 . S
C877 C876 1.404 . S
C877 H889 0.930 . S
C878 C874 1.524 . S
C878 H890 0.956 . S
C878 H891 0.961 . S
C878 H892 0.961 . S
C879 C876 1.539 . S
C879 H893 0.958 . S
C879 H894 0.961 . S
C879 H895 0.960 . S
H880 C864 0.931 . S
H881 C869 0.929 . S
H882 C870 0.960 . S
H883 C870 0.962 . S
H884 C870 0.960 . S
H885 C871 0.961 . S
H886 C871 0.961 . S
H887 C871 0.961 . S
H888 C872 0.931 . S
H889 C877 0.930 . S
H890 C878 0.956 . S
H891 C878 0.961 . S
H892 C878 0.961 . S
H893 C879 0.958 . S
H894 C879 0.961 . S
H895 C879 0.960 . S
C896 C897 1.391 . S
C896 C898 1.394 . S
C896 H912 0.931 . S
C897 C896 1.391 . S
C897 C901 1.376 . S
C898 C896 1.394 . S
C898 C899 1.369 . S
C898 C902 1.531 . S
C899 C898 1.369 . S
C899 C900 1.410 . S
C899 C907 1.503 . S
C900 C899 1.410 . S
C900 C901 1.392 . S
C900 C903 1.511 . S
C901 C897 1.376 . S
C901 C900 1.392 . S
C901 H913 0.929 . S
C902 C898 1.531 . S
C902 H914 0.960 . S
C902 H915 0.962 . S
C902 H916 0.960 . S
C903 C900 1.511 . S
C903 H917 0.961 . S
C903 H918 0.961 . S
C903 H919 0.961 . S
C904 C905 1.370 . S
C904 C906 1.363 . S
C904 H920 0.931 . S
C905 C904 1.370 . S
C905 C909 1.408 . S
C906 C904 1.363 . S
C906 C907 1.370 . S
C906 C910 1.524 . S
C907 C899 1.503 . S
C907 C906 1.370 . S
C907 C908 1.403 . S
C908 C907 1.403 . S
C908 C909 1.404 . S
C908 C911 1.539 . S
C909 C905 1.408 . S
C909 C908 1.404 . S
C909 H921 0.930 . S
C910 C906 1.524 . S
C910 H922 0.956 . S
C910 H923 0.961 . S
C910 H924 0.961 . S
C911 C908 1.539 . S
C911 H925 0.958 . S
C911 H926 0.961 . S
C911 H927 0.960 . S
H912 C896 0.931 . S
H913 C901 0.929 . S
H914 C902 0.960 . S
H915 C902 0.962 . S
H916 C902 0.960 . S
H917 C903 0.961 . S
H918 C903 0.961 . S
H919 C903 0.961 . S
H920 C904 0.931 . S
H921 C909 0.930 . S
H922 C910 0.956 . S
H923 C910 0.961 . S
H924 C910 0.961 . S
H925 C911 0.958 . S
H926 C911 0.961 . S
H927 C911 0.960 . S
C928 C929 1.391 . S
C928 C930 1.394 . S
C928 H944 0.931 . S
C929 C928 1.391 . S
C929 C933 1.376 . S
C930 C928 1.394 . S
C930 C931 1.369 . S
C930 C934 1.531 . S
C931 C930 1.369 . S
C931 C932 1.410 . S
C931 C939 1.503 . S
C932 C931 1.410 . S
C932 C933 1.392 . S
C932 C935 1.511 . S
C933 C929 1.376 . S
C933 C932 1.392 . S
C933 H945 0.929 . S
C934 C930 1.531 . S
C934 H946 0.960 . S
C934 H947 0.962 . S
C934 H948 0.960 . S
C935 C932 1.511 . S
C935 H949 0.961 . S
C935 H950 0.961 . S
C935 H951 0.961 . S
C936 C937 1.370 . S
C936 C938 1.363 . S
C936 H952 0.931 . S
C937 C936 1.370 . S
C937 C941 1.408 . S
C938 C936 1.363 . S
C938 C939 1.370 . S
C938 C942 1.524 . S
C939 C931 1.503 . S
C939 C938 1.370 . S
C939 C940 1.403 . S
C940 C939 1.403 . S
C940 C941 1.404 . S
C940 C943 1.539 . S
C941 C937 1.408 . S
C941 C940 1.404 . S
C941 H953 0.930 . S
C942 C938 1.524 . S
C942 H954 0.956 . S
C942 H955 0.961 . S
C942 H956 0.961 . S
C943 C940 1.539 . S
C943 H957 0.958 . S
C943 H958 0.961 . S
C943 H959 0.960 . S
H944 C928 0.931 . S
H945 C933 0.929 . S
H946 C934 0.960 . S
H947 C934 0.962 . S
H948 C934 0.960 . S
H949 C935 0.961 . S
H950 C935 0.961 . S
H951 C935 0.961 . S
H952 C936 0.931 . S
H953 C941 0.930 . S
H954 C942 0.956 . S
H955 C942 0.961 . S
H956 C942 0.961 . S
H957 C943 0.958 . S
H958 C943 0.961 . S
H959 C943 0.960 . S
C960 C961 1.391 . S
C960 C962 1.394 . S
C960 H976 0.931 . S
C961 C960 1.391 . S
C961 C965 1.376 . S
C962 C960 1.394 . S
C962 C963 1.369 . S
C962 C966 1.531 . S
C963 C962 1.369 . S
C963 C964 1.410 . S
C963 C971 1.503 . S
C964 C963 1.410 . S
C964 C965 1.392 . S
C964 C967 1.511 . S
C965 C961 1.376 . S
C965 C964 1.392 . S
C965 H977 0.929 . S
C966 C962 1.531 . S
C966 H978 0.960 . S
C966 H979 0.962 . S
C966 H980 0.960 . S
C967 C964 1.511 . S
C967 H981 0.961 1_565 S
C967 H982 0.961 . S
C967 H983 0.961 . S
C968 C969 1.370 . S
C968 C970 1.363 . S
C968 H984 0.931 . S
C969 C968 1.370 . S
C969 C973 1.408 . S
C970 C968 1.363 . S
C970 C971 1.370 . S
C970 C974 1.524 . S
C971 C963 1.503 . S
C971 C970 1.370 . S
C971 C972 1.403 . S
C972 C971 1.403 . S
C972 C973 1.404 . S
C972 C975 1.539 . S
C973 C969 1.408 . S
C973 C972 1.404 . S
C973 H985 0.930 . S
C974 C970 1.524 . S
C974 H986 0.956 . S
C974 H987 0.961 . S
C974 H988 0.961 . S
C975 C972 1.539 . S
C975 H989 0.958 . S
C975 H990 0.961 . S
C975 H991 0.960 . S
H976 C960 0.931 . S
H977 C965 0.929 . S
H978 C966 0.960 . S
H979 C966 0.962 . S
H980 C966 0.960 . S
H981 C967 0.961 1_545 S
H982 C967 0.961 . S
H983 C967 0.961 . S
H984 C968 0.931 . S
H985 C973 0.930 . S
H986 C974 0.956 . S
H987 C974 0.961 . S
H988 C974 0.961 . S
H989 C975 0.958 . S
H990 C975 0.961 . S
H991 C975 0.960 . S
C992 C993 1.391 . S
C992 C994 1.394 . S
C992 H1008 0.931 . S
C993 C992 1.391 . S
C993 C997 1.376 . S
C994 C992 1.394 . S
C994 C995 1.369 . S
C994 C998 1.531 . S
C995 C994 1.369 . S
C995 C996 1.410 . S
C995 C1003 1.503 . S
C996 C995 1.410 . S
C996 C997 1.392 . S
C996 C999 1.511 . S
C997 C993 1.376 . S
C997 C996 1.392 . S
C997 H1009 0.929 . S
C998 C994 1.531 . S
C998 H1010 0.960 . S
C998 H1011 0.962 . S
C998 H1012 0.960 . S
C999 C996 1.511 . S
C999 H1013 0.961 . S
C999 H1014 0.961 . S
C999 H1015 0.961 . S
C1000 C1001 1.370 . S
C1000 C1002 1.363 . S
C1000 H1016 0.931 . S
C1001 C1000 1.370 . S
C1001 C1005 1.408 . S
C1002 C1000 1.363 . S
C1002 C1003 1.370 . S
C1002 C1006 1.524 . S
C1003 C995 1.503 . S
C1003 C1002 1.370 . S
C1003 C1004 1.403 . S
C1004 C1003 1.403 . S
C1004 C1005 1.404 . S
C1004 C1007 1.539 . S
C1005 C1001 1.408 . S
C1005 C1004 1.404 . S
C1005 H1017 0.930 . S
C1006 C1002 1.524 . S
C1006 H1018 0.956 . S
C1006 H1019 0.961 . S
C1006 H1020 0.961 . S
C1007 C1004 1.539 . S
C1007 H1021 0.958 . S
C1007 H1022 0.961 . S
C1007 H1023 0.960 . S
H1008 C992 0.931 . S
H1009 C997 0.929 . S
H1010 C998 0.960 . S
H1011 C998 0.962 . S
H1012 C998 0.960 . S
H1013 C999 0.961 . S
H1014 C999 0.961 . S
H1015 C999 0.961 . S
H1016 C1000 0.931 . S
H1017 C1005 0.930 . S
H1018 C1006 0.956 . S
H1019 C1006 0.961 . S
H1020 C1006 0.961 . S
H1021 C1007 0.958 . S
H1022 C1007 0.961 . S
H1023 C1007 0.960 . S
C1024 C1025 1.391 . S
C1024 C1026 1.394 . S
C1024 H1040 0.931 . S
C1025 C1024 1.391 . S
C1025 C1029 1.376 . S
C1026 C1024 1.394 . S
C1026 C1027 1.369 . S
C1026 C1030 1.531 . S
C1027 C1026 1.369 . S
C1027 C1028 1.410 . S
C1027 C1035 1.503 . S
C1028 C1027 1.410 . S
C1028 C1029 1.392 . S
C1028 C1031 1.511 . S
C1029 C1025 1.376 . S
C1029 C1028 1.392 . S
C1029 H1041 0.929 . S
C1030 C1026 1.531 . S
C1030 H1042 0.960 . S
C1030 H1043 0.962 . S
C1030 H1044 0.960 . S
C1031 C1028 1.511 . S
C1031 H1045 0.961 . S
C1031 H1046 0.961 . S
C1031 H1047 0.961 . S
C1032 C1033 1.370 . S
C1032 C1034 1.363 . S
C1032 H1048 0.931 . S
C1033 C1032 1.370 . S
C1033 C1037 1.408 . S
C1034 C1032 1.363 . S
C1034 C1035 1.370 . S
C1034 C1038 1.524 . S
C1035 C1027 1.503 . S
C1035 C1034 1.370 . S
C1035 C1036 1.403 . S
C1036 C1035 1.403 . S
C1036 C1037 1.404 . S
C1036 C1039 1.539 . S
C1037 C1033 1.408 . S
C1037 C1036 1.404 . S
C1037 H1049 0.930 . S
C1038 C1034 1.524 . S
C1038 H1050 0.956 . S
C1038 H1051 0.961 . S
C1038 H1052 0.961 . S
C1039 C1036 1.539 . S
C1039 H1053 0.958 1_545 S
C1039 H1054 0.961 1_545 S
C1039 H1055 0.960 . S
H1040 C1024 0.931 . S
H1041 C1029 0.929 . S
H1042 C1030 0.960 . S
H1043 C1030 0.962 . S
H1044 C1030 0.960 . S
H1045 C1031 0.961 . S
H1046 C1031 0.961 . S
H1047 C1031 0.961 . S
H1048 C1032 0.931 . S
H1049 C1037 0.930 . S
H1050 C1038 0.956 . S
H1051 C1038 0.961 . S
H1052 C1038 0.961 . S
H1053 C1039 0.958 1_565 S
H1054 C1039 0.961 1_565 S
H1055 C1039 0.960 . S
C1056 C1057 1.391 . S
C1056 C1058 1.394 . S
C1056 H1072 0.931 . S
C1057 C1056 1.391 . S
C1057 C1061 1.376 . S
C1058 C1056 1.394 . S
C1058 C1059 1.369 . S
C1058 C1062 1.531 . S
C1059 C1058 1.369 . S
C1059 C1060 1.410 . S
C1059 C1067 1.503 . S
C1060 C1059 1.410 . S
C1060 C1061 1.392 . S
C1060 C1063 1.511 . S
C1061 C1057 1.376 . S
C1061 C1060 1.392 . S
C1061 H1073 0.929 . S
C1062 C1058 1.531 . S
C1062 H1074 0.960 . S
C1062 H1075 0.962 . S
C1062 H1076 0.960 . S
C1063 C1060 1.511 . S
C1063 H1077 0.961 . S
C1063 H1078 0.961 . S
C1063 H1079 0.961 . S
C1064 C1065 1.370 . S
C1064 C1066 1.363 . S
C1064 H1080 0.931 . S
C1065 C1064 1.370 . S
C1065 C1069 1.408 . S
C1066 C1064 1.363 . S
C1066 C1067 1.370 . S
C1066 C1070 1.524 . S
C1067 C1059 1.503 . S
C1067 C1066 1.370 . S
C1067 C1068 1.403 . S
C1068 C1067 1.403 . S
C1068 C1069 1.404 . S
C1068 C1071 1.539 . S
C1069 C1065 1.408 . S
C1069 C1068 1.404 . S
C1069 H1081 0.930 . S
C1070 C1066 1.524 . S
C1070 H1082 0.956 . S
C1070 H1083 0.961 . S
C1070 H1084 0.961 . S
C1071 C1068 1.539 . S
C1071 H1085 0.958 . S
C1071 H1086 0.961 . S
C1071 H1087 0.960 . S
H1072 C1056 0.931 . S
H1073 C1061 0.929 . S
H1074 C1062 0.960 . S
H1075 C1062 0.962 . S
H1076 C1062 0.960 . S
H1077 C1063 0.961 . S
H1078 C1063 0.961 . S
H1079 C1063 0.961 . S
H1080 C1064 0.931 . S
H1081 C1069 0.930 . S
H1082 C1070 0.956 . S
H1083 C1070 0.961 . S
H1084 C1070 0.961 . S
H1085 C1071 0.958 . S
H1086 C1071 0.961 . S
H1087 C1071 0.960 . S
C1088 C1089 1.391 1_655 S
C1088 C1090 1.394 . S
C1088 H1104 0.931 . S
C1089 C1088 1.391 1_455 S
C1089 C1093 1.376 . S
C1090 C1088 1.394 . S
C1090 C1091 1.369 1_655 S
C1090 C1094 1.531 . S
C1091 C1090 1.369 1_455 S
C1091 C1092 1.410 . S
C1091 C1099 1.506 1_554 S
C1092 C1091 1.410 . S
C1092 C1093 1.392 . S
C1092 C1095 1.500 1_545 S
C1093 C1089 1.376 . S
C1093 C1092 1.392 . S
C1093 H1105 0.929 . S
C1094 C1090 1.531 . S
C1094 H1106 0.960 1_554 S
C1094 H1107 0.962 . S
C1094 H1108 0.960 . S
C1095 C1092 1.500 1_565 S
C1095 H1109 0.979 . S
C1095 H1110 1.010 . S
C1095 H1111 0.928 1_565 S
C1096 C1097 1.370 1_655 S
C1096 C1098 1.363 . S
C1096 H1112 0.931 . S
C1097 C1096 1.370 1_455 S
C1097 C1101 1.408 1_565 S
C1098 C1096 1.363 . S
C1098 C1099 1.362 1_665 S
C1098 C1102 1.524 1_556 S
C1099 C1091 1.506 1_556 S
C1099 C1098 1.362 1_445 S
C1099 C1100 1.408 . S
C1100 C1099 1.408 . S
C1100 C1101 1.404 . S
C1100 C1103 1.539 . S
C1101 C1097 1.408 1_545 S
C1101 C1100 1.404 . S
C1101 H1113 0.930 . S
C1102 C1098 1.524 1_554 S
C1102 H1114 0.956 . S
C1102 H1115 0.961 1_655 S
C1102 H1116 0.961 1_554 S
C1103 C1100 1.539 . S
C1103 H1117 0.941 1_455 S
C1103 H1118 0.961 . S
C1103 H1119 0.960 . S
H1104 C1088 0.931 . S
H1105 C1093 0.929 . S
H1106 C1094 0.960 1_556 S
H1107 C1094 0.962 . S
H1108 C1094 0.960 . S
H1109 C1095 0.979 . S
H1110 C1095 1.010 . S
H1111 C1095 0.928 1_545 S
H1112 C1096 0.931 . S
H1113 C1101 0.930 . S
H1114 C1102 0.956 . S
H1115 C1102 0.961 1_455 S
H1116 C1102 0.961 1_556 S
H1117 C1103 0.941 1_655 S
H1118 C1103 0.961 . S
H1119 C1103 0.960 . S
C1120 C1121 1.384 1_655 S
C1120 C1122 1.394 . S
C1120 H1136 0.931 . S
C1121 C1120 1.384 1_455 S
C1121 C1125 1.382 . S
C1122 C1120 1.394 . S
C1122 C1123 1.362 1_655 S
C1122 C1126 1.531 . S
C1123 C1122 1.362 1_455 S
C1123 C1124 1.417 . S
C1123 C1131 1.503 1_556 S
C1124 C1123 1.417 . S
C1124 C1125 1.392 . S
C1124 C1127 1.511 . S
C1125 C1121 1.382 . S
C1125 C1124 1.392 . S
C1125 H1137 0.929 . S
C1126 C1122 1.531 . S
C1126 H1138 0.960 . S
C1126 H1139 0.962 . S
C1126 H1140 0.960 . S
C1127 C1124 1.511 . S
C1127 H1141 0.961 . S
C1127 H1142 0.961 1_556 S
C1127 H1143 0.961 . S
C1128 C1129 1.369 1_655 S
C1128 C1130 1.363 . S
C1128 H1144 0.931 . S
C1129 C1128 1.369 1_455 S
C1129 C1133 1.409 . S
C1130 C1128 1.363 . S
C1130 C1131 1.370 1_655 S
C1130 C1134 1.524 . S
C1131 C1123 1.503 1_554 S
C1131 C1130 1.370 1_455 S
C1131 C1132 1.403 . S
C1132 C1131 1.403 . S
C1132 C1133 1.404 . S
C1132 C1135 1.539 . S
C1133 C1129 1.409 . S
C1133 C1132 1.404 . S
C1133 H1145 0.930 . S
C1134 C1130 1.524 . S
C1134 H1146 0.956 . S
C1134 H1147 0.961 1_655 S
C1134 H1148 0.961 . S
C1135 C1132 1.539 . S
C1135 H1149 0.958 1_454 S
C1135 H1150 0.961 . S
C1135 H1151 0.960 1_554 S
H1136 C1120 0.931 . S
H1137 C1125 0.929 . S
H1138 C1126 0.960 . S
H1139 C1126 0.962 . S
H1140 C1126 0.960 . S
H1141 C1127 0.961 . S
H1142 C1127 0.961 1_554 S
H1143 C1127 0.961 . S
H1144 C1128 0.931 . S
H1145 C1133 0.930 . S
H1146 C1134 0.956 . S
H1147 C1134 0.961 1_455 S
H1148 C1134 0.961 . S
H1149 C1135 0.958 1_656 S
H1150 C1135 0.961 . S
H1151 C1135 0.960 1_556 S
C1152 C1153 1.391 . S
C1152 C1154 1.394 . S
C1152 H1168 0.931 . S
C1153 C1152 1.391 . S
C1153 C1157 1.376 . S
C1154 C1152 1.394 . S
C1154 C1155 1.369 . S
C1154 C1158 1.531 . S
C1155 C1154 1.369 . S
C1155 C1156 1.410 . S
C1155 C1163 1.503 . S
C1156 C1155 1.410 . S
C1156 C1157 1.392 . S
C1156 C1159 1.511 . S
C1157 C1153 1.376 . S
C1157 C1156 1.392 . S
C1157 H1169 0.929 . S
C1158 C1154 1.531 . S
C1158 H1170 0.960 . S
C1158 H1171 0.962 . S
C1158 H1172 0.960 . S
C1159 C1156 1.511 . S
C1159 H1173 0.961 . S
C1159 H1174 0.961 . S
C1159 H1175 0.961 . S
C1160 C1161 1.370 . S
C1160 C1162 1.363 . S
C1160 H1176 0.931 . S
C1161 C1160 1.370 . S
C1161 C1165 1.408 . S
C1162 C1160 1.363 . S
C1162 C1163 1.370 . S
C1162 C1166 1.524 . S
C1163 C1155 1.503 . S
C1163 C1162 1.370 . S
C1163 C1164 1.403 . S
C1164 C1163 1.403 . S
C1164 C1165 1.404 . S
C1164 C1167 1.539 . S
C1165 C1161 1.408 . S
C1165 C1164 1.404 . S
C1165 H1177 0.930 . S
C1166 C1162 1.524 . S
C1166 H1178 0.956 . S
C1166 H1179 0.961 . S
C1166 H1180 0.961 . S
C1167 C1164 1.539 . S
C1167 H1181 0.958 . S
C1167 H1182 0.961 . S
C1167 H1183 0.960 . S
H1168 C1152 0.931 . S
H1169 C1157 0.929 . S
H1170 C1158 0.960 . S
H1171 C1158 0.962 . S
H1172 C1158 0.960 . S
H1173 C1159 0.961 . S
H1174 C1159 0.961 . S
H1175 C1159 0.961 . S
H1176 C1160 0.931 . S
H1177 C1165 0.930 . S
H1178 C1166 0.956 . S
H1179 C1166 0.961 . S
H1180 C1166 0.961 . S
H1181 C1167 0.958 . S
H1182 C1167 0.961 . S
H1183 C1167 0.960 . S
C1184 C1185 1.391 . S
C1184 C1186 1.394 . S
C1184 H1200 0.931 . S
C1185 C1184 1.391 . S
C1185 C1189 1.376 . S
C1186 C1184 1.394 . S
C1186 C1187 1.369 . S
C1186 C1190 1.531 . S
C1187 C1186 1.369 . S
C1187 C1188 1.410 . S
C1187 C1195 1.505 . S
C1188 C1187 1.410 . S
C1188 C1189 1.392 . S
C1188 C1191 1.511 1_565 S
C1189 C1185 1.376 . S
C1189 C1188 1.392 . S
C1189 H1201 0.929 . S
C1190 C1186 1.531 . S
C1190 H1202 0.960 . S
C1190 H1203 0.962 . S
C1190 H1204 0.960 . S
C1191 C1188 1.511 1_545 S
C1191 H1205 0.961 . S
C1191 H1206 0.961 . S
C1191 H1207 0.961 1_545 S
C1192 C1193 1.370 . S
C1192 C1194 1.363 . S
C1192 H1208 0.931 . S
C1193 C1192 1.370 . S
C1193 C1197 1.408 1_545 S
C1194 C1192 1.363 . S
C1194 C1195 1.365 1_545 S
C1194 C1198 1.524 . S
C1195 C1187 1.505 . S
C1195 C1194 1.365 1_565 S
C1195 C1196 1.406 . S
C1196 C1195 1.406 . S
C1196 C1197 1.404 . S
C1196 C1199 1.539 . S
C1197 C1193 1.408 1_565 S
C1197 C1196 1.404 . S
C1197 H1209 0.930 . S
C1198 C1194 1.524 . S
C1198 H1210 0.956 . S
C1198 H1211 0.961 . S
C1198 H1212 0.961 . S
C1199 C1196 1.539 . S
C1199 H1213 0.958 . S
C1199 H1214 0.961 . S
C1199 H1215 0.960 . S
H1200 C1184 0.931 . S
H1201 C1189 0.929 . S
H1202 C1190 0.960 . S
H1203 C1190 0.962 . S
H1204 C1190 0.960 . S
H1205 C1191 0.961 . S
H1206 C1191 0.961 . S
H1207 C1191 0.961 1_565 S
H1208 C1192 0.931 . S
H1209 C1197 0.930 . S
H1210 C1198 0.956 . S
H1211 C1198 0.961 . S
H1212 C1198 0.961 . S
H1213 C1199 0.958 . S
H1214 C1199 0.961 . S
H1215 C1199 0.960 . S
C705 C137 1.515 1_655 S
C713 C20 1.523 1_655 S
C737 C225 1.517 . S
C745 C293 1.524 . S
C769 C381 1.528 . S
C777 C489 1.528 . S
C801 C585 1.527 . S
C809 C636 1.527 . S
C833 C645 1.423 . S
C841 C29 1.427 . S
C865 C577 1.430 . S
C873 C145 1.430 . S
C897 C233 1.414 . S
C905 C497 1.424 . S
C929 C372 1.415 . S
C937 C284 1.424 . S
C961 C469 1.429 . S
C969 C205 1.436 . S
C993 C401 1.418 . S
C1001 C313 1.431 . S
C1025 C673 1.444 . S
C1033 C57 1.439 . S
C1057 C117 1.439 . S
C1065 C548 1.436 . S
C1089 C49 1.155 . S
C1097 C196 1.185 . S
C1121 C321 1.194 . S
C1129 C108 1.169 . S
C1153 C557 1.192 . S
C1161 C409 1.169 . S
C1185 C460 1.155 . S
C1193 C665 1.185 . S
