# Generated by pormake.
# Topology rkf, (6)-cn, num edge types: 1
# Building blocks:
#     Node 0, Type 0, BuildingBlock: BETGAK_clean_sbu_0, # of connection points: 6
#     Node 1, Type 0, BuildingBlock: BETGAK_clean_sbu_0, # of connection points: 6
#     Node 2, Type 0, BuildingBlock: BETGAK_clean_sbu_0, # of connection points: 6
#     Node 3, Type 0, BuildingBlock: BETGAK_clean_sbu_0, # of connection points: 6
#     Node 4, Type 0, BuildingBlock: BETGAK_clean_sbu_0, # of connection points: 6
#     Node 5, Type 0, BuildingBlock: BETGAK_clean_sbu_0, # of connection points: 6
#     Edge 6, Type (0, 0), BuildingBlock: CIFDUS_clean_linker_0, # of connection points: 2
#     Edge 7, Type (0, 0), BuildingBlock: CIFDUS_clean_linker_0, # of connection points: 2
#     Edge 8, Type (0, 0), BuildingBlock: CIFDUS_clean_linker_0, # of connection points: 2
#     Edge 9, Type (0, 0), BuildingBlock: CIFDUS_clean_linker_0, # of connection points: 2
#     Edge 10, Type (0, 0), BuildingBlock: CIFDUS_clean_linker_0, # of connection points: 2
#     Edge 11, Type (0, 0), BuildingBlock: CIFDUS_clean_linker_0, # of connection points: 2
#     Edge 12, Type (0, 0), BuildingBlock: CIFDUS_clean_linker_0, # of connection points: 2
#     Edge 13, Type (0, 0), BuildingBlock: CIFDUS_clean_linker_0, # of connection points: 2
#     Edge 14, Type (0, 0), BuildingBlock: CIFDUS_clean_linker_0, # of connection points: 2
#     Edge 15, Type (0, 0), BuildingBlock: CIFDUS_clean_linker_0, # of connection points: 2
#     Edge 16, Type (0, 0), BuildingBlock: CIFDUS_clean_linker_0, # of connection points: 2
#     Edge 17, Type (0, 0), BuildingBlock: CIFDUS_clean_linker_0, # of connection points: 2
#     Edge 18, Type (0, 0), BuildingBlock: CIFDUS_clean_linker_0, # of connection points: 2
#     Edge 19, Type (0, 0), BuildingBlock: CIFDUS_clean_linker_0, # of connection points: 2
#     Edge 20, Type (0, 0), BuildingBlock: CIFDUS_clean_linker_0, # of connection points: 2
#     Edge 21, Type (0, 0), BuildingBlock: CIFDUS_clean_linker_0, # of connection points: 2
#     Edge 22, Type (0, 0), BuildingBlock: CIFDUS_clean_linker_0, # of connection points: 2
#     Edge 23, Type (0, 0), BuildingBlock: CIFDUS_clean_linker_0, # of connection points: 2
# Relax obj value: 0.859
# Max RMSD: 0.252
# Mean RMSD: 0.251
data_MOF--net-rkf--node1-BETGAK_clean_sbu_0--edge1-CIFDUS_clean_linker_0
_symmetry_space_group_name_H-M    P1
_symmetry_Int_Tables_number       1
_symmetry_cell_setting            triclinic
loop_
_symmetry_equiv_pos_as_xyz
'x, y, z'
_cell_length_a     23.054119
_cell_length_b     23.007517
_cell_length_c     38.293017
_cell_angle_alpha  89.626074
_cell_angle_beta   89.876949
_cell_angle_gamma 120.94872
loop_
_atom_site_label
_atom_site_type_symbol
_atom_site_fract_x
_atom_site_fract_y
_atom_site_fract_z
_atom_type_partial_charge
La0 La 0.27248 0.07735 0.21217 0.0
La1 La 0.38619 0.17879 1.19474 0.0
C2 C 0.15675 -0.02187 0.22645 0.0
C3 C 0.13959 0.90917 0.23599 0.0
C4 C 0.0741 0.85356 0.232 0.0
C5 C 0.05765 0.78982 0.24517 0.0
C6 C 0.106 0.78149 0.26368 0.0
C7 C 0.17341 0.83652 0.26384 0.0
C8 C 0.1899 0.89921 0.24996 0.0
C9 C 0.27399 0.21145 0.20532 0.0
C10 C 0.33957 0.17449 0.27359 0.0
C11 C 0.48805 0.28246 1.16865 0.0
C12 C 0.5001 0.32892 1.13943 0.0
C13 C 0.53522 0.39885 1.1458 0.0
C14 C 0.53532 0.44359 1.12102 0.0
C15 C 0.50097 0.41891 1.0894 0.0
C16 C 0.47024 0.34955 1.08196 0.0
C17 C 0.46932 0.30467 1.10694 0.0
C18 C 0.40682 0.089 0.2288 0.0
C19 C 0.30013 0.06354 1.13714 0.0
O20 O 0.19465 0.0247 0.24903 0.0
O21 O 0.17902 -0.00309 1.19465 0.0
O22 O 0.2871 0.1703 1.1894 0.0
O23 O 0.28669 0.16937 1.18998 0.0
O24 O 0.30422 0.10939 0.26624 0.0
O25 O 0.37344 0.21625 0.24719 0.0
O26 O 0.47131 0.22037 1.16136 0.0
O27 O 0.45018 0.28418 1.19342 0.0
O28 O 0.43599 0.15273 0.23484 0.0
O29 O 0.36372 0.07549 0.20539 0.0
O30 O 0.34269 0.12988 1.14182 0.0
O31 O 0.2753 0.02651 1.16547 0.0
H32 H 0.0352 0.8599 0.21996 0.0
H33 H 0.00601 0.74846 0.24262 0.0
H34 H 0.21323 0.83403 0.27729 0.0
H35 H 0.24154 0.9412 0.25211 0.0
H36 H 0.55907 0.41837 1.1708 0.0
H37 H 0.5594 0.49693 1.1272 0.0
H38 H 0.44284 0.32938 1.05785 0.0
H39 H 0.44145 0.25088 1.10154 0.0
La40 La 0.31064 0.29581 0.54669 0.0
La41 La 0.29542 0.40948 0.52815 0.0
C42 C 0.35746 0.22228 0.56247 0.0
C43 C 0.39168 0.19781 0.58465 0.0
C44 C 0.41378 0.15752 0.56917 0.0
C45 C 0.44987 0.13534 0.58852 0.0
C46 C 0.46418 0.15305 0.62375 0.0
C47 C 0.44287 0.19473 0.63901 0.0
C48 C 0.40703 0.21729 0.61947 0.0
C49 C 0.1928 0.26245 0.5193 0.0
C50 C 0.25168 0.35174 0.606 0.0
C51 C 0.26589 0.4929 0.50321 0.0
C52 C 0.20576 0.49879 0.50083 0.0
C53 C 0.20375 0.54085 0.47493 0.0
C54 C 0.14255 0.53568 0.46624 0.0
C55 C 0.08222 0.48815 0.48338 0.0
C56 C 0.08599 0.45109 0.51185 0.0
C57 C 0.14727 0.45582 0.52027 0.0
C58 C 0.41991 0.44451 0.54907 0.0
C59 C 0.32014 0.32655 0.46566 0.0
O60 O 0.29456 0.2046 0.56911 0.0
O61 O 0.39421 0.28412 0.55024 0.0
O62 O 0.22312 0.22869 0.51526 0.0
O63 O 0.22529 0.30832 0.54098 0.0
O64 O 0.28903 0.32319 0.60024 0.0
O65 O 0.23824 0.37924 0.5787 0.0
O66 O 0.26207 0.4424 0.48584 0.0
O67 O 0.29194 0.49853 0.53415 0.0
O68 O 0.38883 0.47608 0.55656 0.0
O69 O 0.38052 0.39655 0.52984 0.0
O70 O 0.30679 0.37484 0.47444 0.0
O71 O 0.32675 0.2904 0.49054 0.0
H72 H 0.40312 0.1432 0.54198 0.0
H73 H 0.46569 0.10353 0.57608 0.0
H74 H 0.4518 0.20796 0.66636 0.0
H75 H 0.39092 0.24922 0.63149 0.0
H76 H 0.24857 0.57415 0.45964 0.0
H77 H 0.1419 0.56462 0.44399 0.0
H78 H 0.04078 0.41492 0.52602 0.0
H79 H 0.14808 0.42294 0.54041 0.0
La80 La 0.11116 0.37514 0.89093 0.0
La81 La -0.01423 0.25722 0.86317 0.0
C82 C 0.20167 0.49664 0.90194 0.0
C83 C 0.23585 0.53755 0.9325 0.0
C84 C 0.21056 0.51216 0.96601 0.0
C85 C 0.25438 0.53399 0.99443 0.0
C86 C 0.32377 0.58038 0.98929 0.0
C87 C 0.34645 0.61299 0.95674 0.0
C88 C 0.30251 0.59151 0.92839 0.0
C89 C 0.1199 0.2685 0.88631 0.0
C90 C 0.01337 0.26622 0.94705 0.0
C91 C 0.87749 0.14775 0.8517 0.0
C92 C 0.82222 0.12426 0.82645 0.0
C93 C 0.75528 0.09179 0.83874 0.0
C94 C 0.70157 0.06597 0.81529 0.0
C95 C 0.71407 0.07157 0.77914 0.0
C96 C 0.78144 0.10776 0.767 0.0
C97 C 0.83506 0.13414 0.79045 0.0
C98 C -0.01623 0.36964 0.87113 0.0
C99 C 0.09746 0.34016 0.80516 0.0
O100 O 0.2133 0.44739 0.89709 0.0
O101 O 0.13787 0.47688 0.89758 0.0
O102 O 0.14877 0.31296 0.91104 0.0
O103 O 0.08927 0.28589 0.86553 0.0
O104 O 0.0611 0.33159 0.94272 0.0
O105 O -0.01208 0.22721 0.91885 0.0
O106 O 0.88233 0.1936 0.8733 0.0
O107 O 0.93669 0.16101 0.84011 0.0
O108 O -0.04213 0.33077 0.84429 0.0
O109 O 0.00847 0.345 0.89092 0.0
O110 O 0.03732 0.28487 0.81127 0.0
O111 O 0.13008 0.38252 0.83186 0.0
H112 H 0.15922 0.47015 0.96954 0.0
H113 H 0.23573 0.50785 1.01924 0.0
H114 H 0.39971 0.64897 0.95226 0.0
H115 H 0.32273 0.61143 0.9026 0.0
H116 H 0.74451 0.08497 0.86652 0.0
H117 H 0.65028 0.03919 0.82541 0.0
H118 H 0.79303 0.1123 0.73934 0.0
H119 H 0.88637 0.16028 0.78034 0.0
La120 La 0.81998 0.13387 0.22887 0.0
La121 La 0.80841 0.0049 0.2034 0.0
C122 C 0.79731 0.22765 0.2414 0.0
C123 C 0.79306 0.25871 0.27412 0.0
C124 C 0.84095 0.32703 0.28015 0.0
C125 C 0.85021 0.35345 0.31372 0.0
C126 C 0.81109 0.31211 0.34191 0.0
C127 C 0.75756 0.24605 0.33487 0.0
C128 C 0.74902 0.21928 0.30134 0.0
C129 C 0.9254 0.12565 0.24114 0.0
C130 C 0.80457 0.02707 0.28669 0.0
C131 C 0.80432 0.89406 1.19644 0.0
C132 C 0.75984 0.83109 1.17807 0.0
C133 C 0.72426 0.83154 1.14865 0.0
C134 C 0.68534 0.77231 1.12994 0.0
C135 C 0.68079 0.71122 1.14046 0.0
C136 C 0.71201 0.71006 1.1718 0.0
C137 C 0.75165 0.76981 1.19036 0.0
C138 C 0.69816 0.0125 1.19756 0.0
C139 C 0.86198 0.12427 1.14722 0.0
O140 O 0.85742 0.23773 0.23432 0.0
O141 O 0.7494 0.16493 0.23551 0.0
O142 O 0.90896 0.16147 0.26028 0.0
O143 O 0.88891 0.10395 0.21436 0.0
O144 O 0.79316 0.07733 0.27959 0.0
O145 O 0.82091 -0.00067 0.26096 0.0
O146 O 0.77536 0.90692 0.22202 0.0
O147 O 0.84211 0.94778 1.17701 0.0
O148 O 0.71487 -0.01874 1.17549 0.0
O149 O 0.73981 0.03324 0.22188 0.0
O150 O 0.85688 0.06524 1.15512 0.0
O151 O 0.84387 0.15472 1.1711 0.0
H152 H 0.87509 0.35852 0.25947 0.0
H153 H 0.89221 0.40437 0.31789 0.0
H154 H 0.7253 0.21336 0.35576 0.0
H155 H 0.7109 0.16655 0.29737 0.0
H156 H 0.7288 0.87827 1.1393 0.0
H157 H 0.66316 0.77607 1.10577 0.0
H158 H 0.70878 0.66384 1.18094 0.0
H159 H 0.77752 0.76856 0.21369 0.0
La160 La 0.77457 0.82143 0.55396 0.0
La161 La 0.90896 0.84765 0.53815 0.0
C162 C 0.65059 0.75702 0.57085 0.0
C163 C 0.60757 0.75519 0.59971 0.0
C164 C 0.55665 0.76979 0.59254 0.0
C165 C 0.52565 0.78417 0.6197 0.0
C166 C 0.54475 0.78328 0.65436 0.0
C167 C 0.58967 0.76054 0.66162 0.0
C168 C 0.62133 0.74707 0.63446 0.0
C169 C 0.85962 0.94962 0.5531 0.0
C170 C 0.88251 0.84332 0.61724 0.0
C171 C 0.01969 0.86378 0.51646 0.0
C172 C 0.03137 0.81657 0.49614 0.0
C173 C -0.0145 0.74629 0.49867 0.0
C174 C -0.01355 0.70241 0.47403 0.0
C175 C 0.03379 0.72805 0.44669 0.0
C176 C 0.08405 0.79736 0.44629 0.0
C177 C 0.08251 0.84144 0.47074 0.0
C178 C 0.80762 0.71838 0.5366 0.0
C179 C 0.83123 0.87523 0.47734 0.0
O180 O 0.67993 0.81337 0.55276 0.0
O181 O 0.69195 0.73518 0.57707 0.0
O182 O 0.79572 0.92382 0.54781 0.0
O183 O 0.87288 0.90591 0.56403 0.0
O184 O 0.81723 0.81591 0.60751 0.0
O185 O 0.92998 0.87319 0.59305 0.0
O186 O -0.00347 0.84388 0.54807 0.0
O187 O -0.01339 0.88786 0.50019 0.0
O188 O 0.86302 0.7393 0.55318 0.0
O189 O 0.80965 0.76929 0.52401 0.0
O190 O 0.89084 0.89095 0.49042 0.0
O191 O 0.77537 0.83768 0.49633 0.0
H192 H 0.54471 0.77533 0.56582 0.0
H193 H 0.49129 0.80168 0.6135 0.0
H194 H 0.60592 0.76015 0.68811 0.0
H195 H 0.65996 0.73525 0.64072 0.0
H196 H 0.94601 0.72552 0.51824 0.0
H197 H 0.94703 0.64937 0.47472 0.0
H198 H 0.12048 0.81864 0.42508 0.0
H199 H 0.11829 0.89537 0.46831 0.0
La200 La 0.04596 0.847 0.88804 0.0
La201 La 0.17136 0.8663 0.8604 0.0
C202 C 0.92024 0.78643 0.8982 0.0
C203 C 0.87054 0.73676 0.92289 0.0
C204 C 0.82105 0.74804 0.93659 0.0
C205 C 0.7754 0.70379 0.9615 0.0
C206 C 0.77791 0.64675 0.97302 0.0
C207 C 0.82532 0.63351 0.95764 0.0
C208 C 0.87159 0.67839 0.93291 0.0
C209 C 0.14211 -0.02732 0.88246 0.0
C210 C 0.15779 0.88918 0.94406 0.0
C211 C 0.29283 0.89648 0.85288 0.0
C212 C 0.35662 0.93994 0.83442 0.0
C213 C 0.3955 0.91232 0.82363 0.0
C214 C 0.45435 0.95134 0.80401 0.0
C215 C 0.47494 0.01856 0.7951 0.0
C216 C 0.43883 0.04761 0.80859 0.0
C217 C 0.37982 0.00846 0.82792 0.0
C218 C 0.07385 0.73981 0.86622 0.0
C219 C 0.07079 0.86614 0.80372 0.0
O220 O -0.0377 0.84701 0.91026 0.0
O221 O 0.9501 0.76421 0.87786 0.0
O222 O 0.09311 0.95115 0.90502 0.0
O223 O 0.1296 0.928 0.86039 0.0
O224 O 0.09104 0.85759 0.94038 0.0
O225 O 0.19605 0.89799 0.91615 0.0
O226 O 0.24269 0.84957 0.83494 0.0
O227 O 0.27283 0.92612 0.8746 0.0
O228 O 0.11634 0.76426 0.8408 0.0
O229 O 0.08888 0.78446 0.88906 0.0
O230 O 0.13578 0.88663 0.80994 0.0
O231 O 0.02802 0.84729 0.8306 0.0
H232 H 0.81919 0.79248 0.92892 0.0
H233 H 0.741 0.71705 0.9732 0.0
H234 H 0.82844 0.59001 0.96571 0.0
H235 H 0.90911 0.66824 0.92234 0.0
H236 H 0.3788 0.85972 0.82915 0.0
H237 H 0.4809 0.92767 0.79368 0.0
H238 H 0.45261 0.09887 0.80159 0.0
H239 H 0.35097 0.031 0.83646 0.0
H240 H 0.03774 0.20571 0.27792 0.0
H241 H 0.93403 0.01839 0.22125 0.0
H242 H 0.03872 0.01813 0.21451 0.0
H243 H 0.15864 0.09271 0.20573 0.0
H244 H 0.26642 0.28413 0.25786 0.0
H245 H 0.1611 0.26324 0.28503 0.0
C246 C 0.0381 0.16374 0.26536 0.0
C247 C -0.01977 0.11394 0.24842 0.0
C248 C 0.09921 0.16613 0.26001 0.0
C249 C -0.02053 0.05861 0.23297 0.0
C250 C 0.03911 0.05847 0.2292 0.0
C251 C 0.16013 0.1267 0.22551 0.0
C252 C 0.21953 0.1886 0.23068 0.0
C253 C 0.09975 0.11507 0.23981 0.0
C254 C 0.2205 0.23571 0.25399 0.0
C255 C 0.16043 0.22394 0.26927 0.0
H256 H 0.9079 0.02592 0.49628 0.0
H257 H 0.91657 0.03089 0.60861 0.0
H258 H 0.01335 0.14729 0.60657 0.0
H259 H 0.10972 0.23163 0.57299 0.0
H260 H 0.11582 0.21257 0.46148 0.0
H261 H -0.00212 0.11901 0.46212 0.0
C262 C 0.93042 0.05365 0.52012 0.0
C263 C 0.9074 0.02143 0.55247 0.0
C264 C -0.01151 0.11772 0.51853 0.0
C265 C 0.93534 0.05596 0.58356 0.0
C266 C -0.00982 0.12199 0.58232 0.0
C267 C 0.08383 0.20889 0.54877 0.0
C268 C 0.11989 0.2277 0.51729 0.0
C269 C 0.01945 0.1515 0.54997 0.0
C270 C 0.08775 0.19793 0.48589 0.0
C271 C 0.02101 0.14426 0.48638 0.0
H272 H 0.15937 0.0459 0.82559 0.0
H273 H 0.23248 0.05648 0.92988 0.0
H274 H 0.25078 0.17 0.93674 0.0
H275 H 0.20171 0.23901 0.92194 0.0
H276 H 0.10316 0.21161 0.82255 0.0
H277 H 0.1368 0.13196 0.80484 0.0
C278 C 0.18301 0.07522 0.8489 0.0
C279 C 0.19178 0.04358 0.8778 0.0
C280 C 0.18438 0.13565 0.85417 0.0
C281 C 0.22388 0.08067 0.90777 0.0
C282 C 0.23282 0.1447 0.91191 0.0
C283 C 0.18892 0.21643 0.8962 0.0
C284 C 0.1476 0.22801 0.87424 0.0
C285 C 0.20568 0.1685 0.88688 0.0
C286 C 0.13275 0.20078 0.84046 0.0
C287 C 0.15264 0.15595 0.83011 0.0
H288 H 0.45027 0.49661 1.10845 0.0
H289 H 0.52119 0.43698 1.01913 0.0
H290 H 0.48281 0.49504 0.98017 0.0
H291 H 0.41598 0.54846 0.97155 0.0
H292 H 0.33513 0.59875 1.06022 0.0
H293 H 0.39286 0.56083 1.09987 0.0
C294 C 0.45868 0.49784 1.0805 0.0
C295 C 0.48835 0.46282 1.06647 0.0
C296 C 0.43482 0.5296 1.05837 0.0
C297 C 0.4981 0.46348 1.03028 0.0
C298 C 0.47616 0.49653 1.00811 0.0
C299 C 0.41298 0.5534 0.99957 0.0
C300 C 0.37206 0.57686 1.01312 0.0
C301 C 0.44276 0.52797 1.02185 0.0
C302 C 0.36695 0.58134 1.04939 0.0
C303 C 0.39925 0.55899 1.07193 0.0
H304 H -0.02481 0.36067 0.47679 0.0
H305 H 0.04127 0.56884 0.45126 0.0
H306 H 0.9506 0.53085 0.40843 0.0
H307 H 0.8683 0.43894 0.37074 0.0
H308 H 0.81069 0.2322 0.39503 0.0
H309 H 0.87924 0.26936 0.4471 0.0
C310 C -0.0316 0.39812 0.46308 0.0
C311 C 0.01618 0.46757 0.46672 0.0
C312 C 0.91748 0.37604 0.43797 0.0
C313 C 0.00628 0.51497 0.44834 0.0
C314 C 0.95445 0.49329 0.42381 0.0
C315 C 0.86976 0.40188 0.38777 0.0
C316 C 0.83534 0.33299 0.37828 0.0
C317 C 0.91227 0.42393 0.41705 0.0
C318 C 0.83619 0.28552 0.40135 0.0
C319 C 0.87632 0.30681 0.43109 0.0
H320 H 0.61076 0.94267 0.78874 0.0
H321 H 0.69459 0.10698 0.71355 0.0
H322 H 0.6293 0.02784 0.66726 0.0
H323 H 0.57269 0.91101 0.64716 0.0
H324 H 0.49978 0.74674 0.72179 0.0
H325 H 0.53252 0.82712 0.7698 0.0
C326 C 0.61265 0.96185 0.76256 0.0
C327 C 0.65899 0.03025 0.75435 0.0
C328 C 0.57668 0.91581 0.73601 0.0
C329 C 0.66086 0.05408 0.72024 0.0
C330 C 0.62361 0.00888 0.69379 0.0
C331 C 0.56105 0.8925 0.6739 0.0
C332 C 0.53511 0.82343 0.68113 0.0
C333 C 0.58464 0.93924 0.70112 0.0
C334 C 0.52037 0.79993 0.7158 0.0
C335 C 0.53992 0.84595 0.74316 0.0
H336 H 0.73559 0.63333 1.12788 0.0
H337 H 0.57507 0.66467 1.09425 0.0
H338 H 0.58074 0.62623 1.03609 0.0
H339 H 0.65028 0.61266 0.9927 0.0
H340 H 0.82166 0.59952 1.02662 0.0
H341 H 0.78638 0.59194 1.08695 0.0
C342 C 0.69867 0.62778 1.10866 0.0
C343 C 0.6577 0.65563 1.11477 0.0
C344 C 0.70304 0.60674 1.07505 0.0
C345 C 0.60942 0.64652 1.08963 0.0
C346 C 0.61237 0.62417 1.05632 0.0
C347 C 0.67893 0.60643 1.01331 0.0
C348 C 0.74047 0.61054 1.00525 0.0
C349 C 0.66224 0.60888 1.04819 0.0
C350 C 0.77485 0.59821 1.0319 0.0
C351 C 0.75525 0.5949 1.06667 0.0
H352 H 0.11988 0.70249 0.40984 0.0
H353 H 0.91775 0.66857 0.41012 0.0
H354 H 0.91249 0.65735 0.34701 0.0
H355 H -0.0194 0.69944 0.29431 0.0
H356 H 0.18117 0.72843 0.29195 0.0
H357 H 0.17049 0.69676 0.35341 0.0
C358 C 0.07359 0.68923 0.39614 0.0
C359 C 0.02044 0.68915 0.41418 0.0
C360 C 0.07135 0.68431 0.3596 0.0
C361 C -0.04015 0.67009 0.39659 0.0
C362 C -0.04297 0.66437 0.36038 0.0
C363 C 0.02146 0.69641 0.30625 0.0
C364 C 0.08493 0.72456 0.28948 0.0
C365 C 0.01495 0.67797 0.34161 0.0
C366 C 0.13414 0.71405 0.30526 0.0
C367 C 0.12806 0.69544 0.34048 0.0
H368 H 0.4649 0.96116 0.73319 0.0
H369 H 0.58037 0.14991 0.7878 0.0
H370 H 0.60433 0.21253 0.73264 0.0
H371 H 0.5596 0.21216 0.67428 0.0
H372 H 0.43225 0.02143 0.62287 0.0
H373 H 0.44792 0.96118 0.67073 0.0
C374 C 0.49819 0.01583 0.73288 0.0
C375 C 0.5188 0.05131 0.76442 0.0
C376 C 0.50773 0.05119 0.7016 0.0
C377 C 0.56289 0.12189 0.76367 0.0
C378 C 0.57571 0.15762 0.73222 0.0
C379 C 0.53687 0.15759 0.67323 0.0
C380 C 0.49271 0.12109 0.64589 0.0
C381 C 0.54308 0.12281 0.70173 0.0
C382 C 0.46562 0.05074 0.64392 0.0
C383 C 0.47397 0.01604 0.67148 0.0
H384 H 0.43332 0.0247 1.1775 0.0
H385 H 0.47562 0.08666 0.28498 0.0
H386 H 0.56731 0.06259 0.28546 0.0
H387 H 0.6436 0.03774 0.25337 0.0
H388 H 0.60749 -0.01709 1.14477 0.0
H389 H 0.50478 -0.01005 1.14652 0.0
C390 C 0.4612 0.03063 0.20131 0.0
C391 C 0.4476 0.0567 0.23134 0.0
C392 C 0.51574 0.01947 0.20088 0.0
C393 C 0.48496 0.06586 0.26178 0.0
C394 C 0.53774 0.05283 0.26192 0.0
C395 C 0.61312 0.02712 0.23008 0.0
C396 C 0.63354 0.01118 1.19877 0.0
C397 C 0.55507 0.03207 0.23128 0.0
C398 C 0.59293 -0.00401 1.16904 0.0
C399 C 0.53432 -2e-05 1.17008 0.0
H400 H 0.52718 0.48465 0.59283 0.0
H401 H 0.47356 0.4956 0.48622 0.0
H402 H 0.5916 0.57696 0.47186 0.0
H403 H 0.70729 0.65427 0.49113 0.0
H404 H 0.76505 0.64131 0.59643 0.0
H405 H 0.64872 0.55056 0.60986 0.0
C406 C 0.54198 0.50411 0.5664 0.0
C407 C 0.49234 0.48492 0.54059 0.0
C408 C 0.61039 0.55043 0.55819 0.0
C409 C 0.51139 0.50992 0.50637 0.0
C410 C 0.57868 0.5565 0.49818 0.0
C411 C 0.6946 0.63018 0.51673 0.0
C412 C 0.74387 0.65418 0.54282 0.0
C413 C 0.62822 0.57836 0.52406 0.0
C414 C 0.7276 0.62293 0.57591 0.0
C415 C 0.66103 0.57167 0.58365 0.0
H416 H 0.9466 0.4406 0.82907 0.0
H417 H 0.01588 0.43517 0.93286 0.0
H418 H 0.03544 0.5478 0.94448 0.0
H419 H 0.05416 0.65591 0.92074 0.0
H420 H -0.01146 0.66238 0.81638 0.0
H421 H 0.94323 0.54106 0.8099 0.0
C422 C -0.03551 0.46363 0.85441 0.0
C423 C -0.0177 0.43118 0.87952 0.0
C424 C -0.02405 0.5287 0.86092 0.0
C425 C 0.00388 0.46047 0.91266 0.0
C426 C 0.01486 0.52477 0.91944 0.0
C427 C 0.02711 0.62983 0.89733 0.0
C428 C 0.0249 0.66721 0.86897 0.0
C429 C 0.00409 0.56069 0.89319 0.0
C430 C -0.00933 0.6338 0.83846 0.0
C431 C -0.03443 0.56474 0.83457 0.0
H432 H 0.35752 0.29857 0.29927 0.0
H433 H 0.3178 0.10266 0.33399 0.0
H434 H 0.30964 0.1315 0.39424 0.0
H435 H 0.31168 0.21078 0.43847 0.0
H436 H 0.34256 0.40389 0.4051 0.0
H437 H 0.35528 0.37774 0.34436 0.0
C438 C 0.34748 0.26219 0.31996 0.0
C439 C 0.33908 0.198 0.31111 0.0
C440 C 0.34063 0.2786 0.35547 0.0
C441 C 0.32502 0.15222 0.33907 0.0
C442 C 0.32013 0.16876 0.37395 0.0
C443 C 0.32133 0.24765 0.41809 0.0
C444 C 0.32643 0.31005 0.42738 0.0
C445 C 0.32748 0.23158 0.38268 0.0
C446 C 0.33819 0.35568 0.39964 0.0
C447 C 0.34571 0.3406 0.36455 0.0
H448 H 0.29973 0.37683 0.67641 0.0
H449 H 0.11913 0.31305 0.61652 0.0
H450 H 0.05589 0.30146 0.67 0.0
H451 H 0.04928 0.30952 0.73535 0.0
H452 H 0.23262 0.38699 0.79463 0.0
H453 H 0.29488 0.39299 0.74149 0.0
C454 C 0.24644 0.35996 0.67489 0.0
C455 C 0.21497 0.34452 0.6413 0.0
C456 C 0.20981 0.35624 0.70646 0.0
C457 C 0.14577 0.32452 0.6411 0.0
C458 C 0.10904 0.31805 0.67212 0.0
C459 C 0.10301 0.32836 0.73682 0.0
C460 C 0.1352 0.34815 0.77012 0.0
C461 C 0.14009 0.33387 0.70521 0.0
C462 C 0.20537 0.37216 0.77019 0.0
C463 C 0.24147 0.37524 0.7394 0.0
H464 H 0.00226 0.32125 1.01161 0.0
H465 H -0.03791 0.13341 0.96602 0.0
H466 H 0.9145 0.07431 1.02136 0.0
H467 H 0.88124 0.07294 1.08395 0.0
H468 H 0.9138 0.2586 1.12879 0.0
H469 H -0.03438 0.31906 1.0741 0.0
C470 C -0.01624 0.2675 1.01368 0.0
C471 C -0.01255 0.23301 0.98356 0.0
C472 C 0.95385 0.23218 1.04621 0.0
C473 C -0.03886 0.16264 0.98784 0.0
C474 C 0.93339 0.12821 1.01991 0.0
C475 C 0.89946 0.12665 1.08199 0.0
C476 C 0.89256 0.16005 1.11167 0.0
C477 C 0.92889 0.16194 1.04949 0.0
C478 C 0.91709 0.2301 1.10727 0.0
C479 C 0.94738 0.26531 1.07559 0.0
H480 H 0.86591 0.96047 0.31486 0.0
H481 H 0.73819 0.03806 0.34443 0.0
H482 H 0.73107 -0.00428 0.40427 0.0
H483 H 0.76156 0.93584 0.44961 0.0
H484 H 0.89793 0.86854 0.42024 0.0
H485 H 0.90064 0.90658 0.36015 0.0
C486 C 0.83628 0.96821 0.33427 0.0
C487 C 0.80214 0.00253 0.32427 0.0
C488 C 0.83365 0.94484 0.3693 0.0
C489 C 0.76511 0.01223 0.35063 0.0
C490 C 0.76086 -0.01237 0.38515 0.0
C491 C 0.79138 0.92889 0.43001 0.0
C492 C 0.82866 0.8977 0.43999 0.0
C493 C 0.79475 0.95353 0.39502 0.0
C494 C 0.86823 0.8914 0.41388 0.0
C495 C 0.86992 0.91345 0.37922 0.0
H496 H 0.01179 0.88883 0.64136 0.0
H497 H 0.80667 0.79807 0.67914 0.0
H498 H 0.84589 0.79797 0.73886 0.0
H499 H 0.93918 0.82274 0.78112 0.0
H500 H 0.14335 0.91175 0.74197 0.0
H501 H 0.10381 0.91322 0.6829 0.0
C502 C -0.0249 0.86907 0.6625 0.0
C503 C 0.9055 0.84364 0.65488 0.0
C504 C -0.00177 0.86874 0.69706 0.0
C505 C 0.86008 0.81814 0.6834 0.0
C506 C 0.8828 0.81807 0.71783 0.0
C507 C -0.0246 0.84273 0.75978 0.0
C508 C 0.04515 0.86739 0.7669 0.0
C509 C 0.95185 0.8431 0.72515 0.0
C510 C 0.08998 0.8925 0.73815 0.0
C511 C 0.06712 0.89332 0.70403 0.0
H512 H 0.10419 0.88848 1.01073 0.0
H513 H 0.29406 0.97244 0.95544 0.0
H514 H 0.35453 0.03602 1.00703 0.0
H515 H 0.35608 0.06976 1.06965 0.0
H516 H 0.16631 -0.01947 1.12533 0.0
H517 H 0.10585 0.91966 1.07323 0.0
C518 C 0.15883 0.92009 1.00986 0.0
C519 C 0.19339 0.92397 0.9783 0.0
C520 C 0.1946 0.95716 1.04041 0.0
C521 C 0.26472 0.96661 0.97871 0.0
C522 C 0.29999 0.0039 1.00854 0.0
C523 C 0.3015 0.03751 1.0704 0.0
C524 C 0.26664 0.031 1.10227 0.0
C525 C 0.26587 7e-05 1.03979 0.0
C526 C 0.19558 -0.0126 1.10189 0.0
C527 C 0.16037 0.952 1.07176 0.0
loop_
_geom_bond_atom_site_label_1
_geom_bond_atom_site_label_2
_geom_bond_distance
_geom_bond_site_symmetry_2
_ccdc_geom_bond_type
La0 C2 2.928 . S
La0 O20 2.521 . S
La0 O21 2.628 . S
La0 O22 2.554 . S
La0 O23 2.757 . S
La0 O24 2.470 . S
La0 O29 2.482 . S
La0 O31 2.503 1_554 S
La1 C11 2.928 . S
La1 O23 2.482 1_556 S
La1 O25 2.503 1_556 S
La1 O26 2.521 . S
La1 O27 2.628 . S
La1 O28 2.554 . S
La1 O29 2.757 1_556 S
La1 O30 2.470 . S
C2 La0 2.928 . S
C2 C3 1.503 . S
C2 O20 1.261 . S
C2 O21 1.243 . S
C3 C2 1.503 . S
C3 C4 1.394 . S
C3 C8 1.373 . S
C4 C3 1.394 . S
C4 C5 1.380 1_545 S
C4 H32 0.930 1_545 S
C5 C4 1.380 1_565 S
C5 C6 1.376 . S
C5 H33 0.930 . S
C6 C5 1.376 . S
C6 C7 1.370 1_565 S
C7 C6 1.370 1_545 S
C7 C8 1.396 . S
C7 H34 0.929 . S
C8 C3 1.373 . S
C8 C7 1.396 . S
C8 H35 0.929 . S
C9 O22 1.240 . S
C9 O23 1.289 . S
C10 O24 1.258 . S
C10 O25 1.256 . S
C11 La1 2.928 . S
C11 C12 1.503 . S
C11 O26 1.261 . S
C11 O27 1.243 . S
C12 C11 1.503 . S
C12 C13 1.394 . S
C12 C17 1.373 . S
C13 C12 1.394 . S
C13 C14 1.380 . S
C13 H36 0.930 . S
C14 C13 1.380 . S
C14 C15 1.376 . S
C14 H37 0.930 . S
C15 C14 1.376 . S
C15 C16 1.370 . S
C16 C15 1.370 . S
C16 C17 1.396 . S
C16 H38 0.929 . S
C17 C12 1.373 . S
C17 C16 1.396 . S
C17 H39 0.929 . S
C18 O28 1.240 1_554 S
C18 O29 1.289 . S
C19 O30 1.258 . S
C19 O31 1.256 . S
O20 La0 2.521 . S
O20 C2 1.261 . S
O21 La0 2.628 . S
O21 C2 1.243 . S
O22 La0 2.554 . S
O22 C9 1.240 . S
O23 La0 2.757 . S
O23 La1 2.482 1_554 S
O23 C9 1.289 . S
O24 La0 2.470 . S
O24 C10 1.258 . S
O25 La1 2.503 1_554 S
O25 C10 1.256 . S
O26 La1 2.521 . S
O26 C11 1.261 . S
O27 La1 2.628 . S
O27 C11 1.243 . S
O28 La1 2.554 . S
O28 C18 1.240 1_556 S
O29 La0 2.482 . S
O29 La1 2.757 1_554 S
O29 C18 1.289 . S
O30 La1 2.470 . S
O30 C19 1.258 . S
O31 La0 2.503 1_556 S
O31 C19 1.256 . S
H32 C4 0.930 1_565 S
H33 C5 0.930 . S
H34 C7 0.929 . S
H35 C8 0.929 . S
H36 C13 0.930 . S
H37 C14 0.930 . S
H38 C16 0.929 . S
H39 C17 0.929 . S
La40 C42 2.928 . S
La40 O60 2.521 . S
La40 O61 2.628 . S
La40 O62 2.554 . S
La40 O63 2.757 . S
La40 O64 2.470 . S
La40 O69 2.482 . S
La40 O71 2.503 . S
La41 C51 2.928 . S
La41 O63 2.482 . S
La41 O65 2.503 . S
La41 O66 2.521 . S
La41 O67 2.628 . S
La41 O68 2.554 . S
La41 O69 2.757 . S
La41 O70 2.470 . S
C42 La40 2.928 . S
C42 C43 1.503 . S
C42 O60 1.261 . S
C42 O61 1.243 . S
C43 C42 1.503 . S
C43 C44 1.394 . S
C43 C48 1.373 . S
C44 C43 1.394 . S
C44 C45 1.380 . S
C44 H72 0.930 . S
C45 C44 1.380 . S
C45 C46 1.376 . S
C45 H73 0.930 . S
C46 C45 1.376 . S
C46 C47 1.370 . S
C47 C46 1.370 . S
C47 C48 1.396 . S
C47 H74 0.929 . S
C48 C43 1.373 . S
C48 C47 1.396 . S
C48 H75 0.929 . S
C49 O62 1.240 . S
C49 O63 1.289 . S
C50 O64 1.258 . S
C50 O65 1.256 . S
C51 La41 2.928 . S
C51 C52 1.503 . S
C51 O66 1.261 . S
C51 O67 1.243 . S
C52 C51 1.503 . S
C52 C53 1.394 . S
C52 C57 1.373 . S
C53 C52 1.394 . S
C53 C54 1.380 . S
C53 H76 0.930 . S
C54 C53 1.380 . S
C54 C55 1.376 . S
C54 H77 0.930 . S
C55 C54 1.376 . S
C55 C56 1.370 . S
C56 C55 1.370 . S
C56 C57 1.396 . S
C56 H78 0.929 . S
C57 C52 1.373 . S
C57 C56 1.396 . S
C57 H79 0.929 . S
C58 O68 1.240 . S
C58 O69 1.289 . S
C59 O70 1.258 . S
C59 O71 1.256 . S
O60 La40 2.521 . S
O60 C42 1.261 . S
O61 La40 2.628 . S
O61 C42 1.243 . S
O62 La40 2.554 . S
O62 C49 1.240 . S
O63 La40 2.757 . S
O63 La41 2.482 . S
O63 C49 1.289 . S
O64 La40 2.470 . S
O64 C50 1.258 . S
O65 La41 2.503 . S
O65 C50 1.256 . S
O66 La41 2.521 . S
O66 C51 1.261 . S
O67 La41 2.628 . S
O67 C51 1.243 . S
O68 La41 2.554 . S
O68 C58 1.240 . S
O69 La40 2.482 . S
O69 La41 2.757 . S
O69 C58 1.289 . S
O70 La41 2.470 . S
O70 C59 1.258 . S
O71 La40 2.503 . S
O71 C59 1.256 . S
H72 C44 0.930 . S
H73 C45 0.930 . S
H74 C47 0.929 . S
H75 C48 0.929 . S
H76 C53 0.930 . S
H77 C54 0.930 . S
H78 C56 0.929 . S
H79 C57 0.929 . S
La80 C82 2.928 . S
La80 O100 2.521 . S
La80 O101 2.628 . S
La80 O102 2.554 . S
La80 O103 2.757 . S
La80 O104 2.470 1_455 S
La80 O109 2.482 1_455 S
La80 O111 2.503 . S
La81 C91 2.928 . S
La81 O103 2.482 1_655 S
La81 O105 2.503 . S
La81 O106 2.521 . S
La81 O107 2.628 . S
La81 O108 2.554 . S
La81 O109 2.757 . S
La81 O110 2.470 1_655 S
C82 La80 2.928 . S
C82 C83 1.503 . S
C82 O100 1.261 . S
C82 O101 1.243 . S
C83 C82 1.503 . S
C83 C84 1.394 . S
C83 C88 1.373 . S
C84 C83 1.394 . S
C84 C85 1.380 . S
C84 H112 0.930 . S
C85 C84 1.380 . S
C85 C86 1.376 . S
C85 H113 0.930 . S
C86 C85 1.376 . S
C86 C87 1.370 . S
C87 C86 1.370 . S
C87 C88 1.396 . S
C87 H114 0.929 . S
C88 C83 1.373 . S
C88 C87 1.396 . S
C88 H115 0.929 . S
C89 O102 1.240 . S
C89 O103 1.289 . S
C90 O104 1.258 . S
C90 O105 1.256 . S
C91 La81 2.928 . S
C91 C92 1.503 . S
C91 O106 1.261 . S
C91 O107 1.243 . S
C92 C91 1.503 . S
C92 C93 1.394 . S
C92 C97 1.373 . S
C93 C92 1.394 . S
C93 C94 1.380 . S
C93 H116 0.930 . S
C94 C93 1.380 . S
C94 C95 1.376 . S
C94 H117 0.930 . S
C95 C94 1.376 . S
C95 C96 1.370 . S
C96 C95 1.370 . S
C96 C97 1.396 . S
C96 H118 0.929 . S
C97 C92 1.373 . S
C97 C96 1.396 . S
C97 H119 0.929 . S
C98 O108 1.240 . S
C98 O109 1.289 . S
C99 O110 1.258 . S
C99 O111 1.256 . S
O100 La80 2.521 . S
O100 C82 1.261 . S
O101 La80 2.628 . S
O101 C82 1.243 . S
O102 La80 2.554 . S
O102 C89 1.240 . S
O103 La80 2.757 . S
O103 La81 2.482 1_455 S
O103 C89 1.289 . S
O104 La80 2.470 1_655 S
O104 C90 1.258 . S
O105 La81 2.503 . S
O105 C90 1.256 . S
O106 La81 2.521 . S
O106 C91 1.261 . S
O107 La81 2.628 . S
O107 C91 1.243 . S
O108 La81 2.554 . S
O108 C98 1.240 . S
O109 La80 2.482 1_655 S
O109 La81 2.757 . S
O109 C98 1.289 . S
O110 La81 2.470 1_455 S
O110 C99 1.258 . S
O111 La80 2.503 . S
O111 C99 1.256 . S
H112 C84 0.930 . S
H113 C85 0.930 . S
H114 C87 0.929 . S
H115 C88 0.929 . S
H116 C93 0.930 . S
H117 C94 0.930 . S
H118 C96 0.929 . S
H119 C97 0.929 . S
La120 C122 2.928 . S
La120 O140 2.521 . S
La120 O141 2.628 . S
La120 O142 2.554 . S
La120 O143 2.757 . S
La120 O144 2.470 1_545 S
La120 O149 2.482 1_545 S
La120 O151 2.503 1_554 S
La121 C131 2.928 . S
La121 O143 2.482 1_566 S
La121 O145 2.503 1_556 S
La121 O146 2.521 . S
La121 O147 2.628 . S
La121 O148 2.554 . S
La121 O149 2.757 1_556 S
La121 O150 2.470 1_565 S
C122 La120 2.928 . S
C122 C123 1.503 . S
C122 O140 1.261 . S
C122 O141 1.243 . S
C123 C122 1.503 . S
C123 C124 1.394 . S
C123 C128 1.373 . S
C124 C123 1.394 . S
C124 C125 1.380 . S
C124 H152 0.930 . S
C125 C124 1.380 . S
C125 C126 1.376 . S
C125 H153 0.930 . S
C126 C125 1.376 . S
C126 C127 1.370 . S
C127 C126 1.370 . S
C127 C128 1.396 . S
C127 H154 0.929 . S
C128 C123 1.373 . S
C128 C127 1.396 . S
C128 H155 0.929 . S
C129 O142 1.240 . S
C129 O143 1.289 . S
C130 O144 1.258 . S
C130 O145 1.256 . S
C131 La121 2.928 . S
C131 C132 1.503 . S
C131 O146 1.261 . S
C131 O147 1.243 . S
C132 C131 1.503 . S
C132 C133 1.394 . S
C132 C137 1.373 . S
C133 C132 1.394 . S
C133 C134 1.380 . S
C133 H156 0.930 . S
C134 C133 1.380 . S
C134 C135 1.376 . S
C134 H157 0.930 . S
C135 C134 1.376 . S
C135 C136 1.370 . S
C136 C135 1.370 . S
C136 C137 1.396 . S
C136 H158 0.929 . S
C137 C132 1.373 . S
C137 C136 1.396 . S
C137 H159 0.929 . S
C138 O148 1.240 1_554 S
C138 O149 1.289 . S
C139 O150 1.258 . S
C139 O151 1.256 . S
O140 La120 2.521 . S
O140 C122 1.261 . S
O141 La120 2.628 . S
O141 C122 1.243 . S
O142 La120 2.554 . S
O142 C129 1.240 . S
O143 La120 2.757 . S
O143 La121 2.482 1_544 S
O143 C129 1.289 . S
O144 La120 2.470 1_565 S
O144 C130 1.258 . S
O145 La121 2.503 1_554 S
O145 C130 1.256 . S
O146 La121 2.521 . S
O146 C131 1.261 . S
O147 La121 2.628 . S
O147 C131 1.243 . S
O148 La121 2.554 . S
O148 C138 1.240 1_556 S
O149 La120 2.482 1_565 S
O149 La121 2.757 1_554 S
O149 C138 1.289 . S
O150 La121 2.470 1_545 S
O150 C139 1.258 . S
O151 La120 2.503 1_556 S
O151 C139 1.256 . S
H152 C124 0.930 . S
H153 C125 0.930 . S
H154 C127 0.929 . S
H155 C128 0.929 . S
H156 C133 0.930 . S
H157 C134 0.930 . S
H158 C136 0.929 . S
H159 C137 0.929 . S
La160 C162 2.928 . S
La160 O180 2.521 . S
La160 O181 2.628 . S
La160 O182 2.554 . S
La160 O183 2.757 . S
La160 O184 2.470 . S
La160 O189 2.482 . S
La160 O191 2.503 . S
La161 C171 2.928 1_655 S
La161 O183 2.482 . S
La161 O185 2.503 . S
La161 O186 2.521 . S
La161 O187 2.628 1_655 S
La161 O188 2.554 . S
La161 O189 2.757 . S
La161 O190 2.470 . S
C162 La160 2.928 . S
C162 C163 1.503 . S
C162 O180 1.261 . S
C162 O181 1.243 . S
C163 C162 1.503 . S
C163 C164 1.394 . S
C163 C168 1.373 . S
C164 C163 1.394 . S
C164 C165 1.380 . S
C164 H192 0.930 . S
C165 C164 1.380 . S
C165 C166 1.376 . S
C165 H193 0.930 . S
C166 C165 1.376 . S
C166 C167 1.370 . S
C167 C166 1.370 . S
C167 C168 1.396 . S
C167 H194 0.929 . S
C168 C163 1.373 . S
C168 C167 1.396 . S
C168 H195 0.929 . S
C169 O182 1.240 1_455 S
C169 O183 1.289 1_455 S
C170 O184 1.258 . S
C170 O185 1.256 . S
C171 La161 2.928 1_455 S
C171 C172 1.503 . S
C171 O186 1.261 1_455 S
C171 O187 1.243 . S
C172 C171 1.503 . S
C172 C173 1.394 . S
C172 C177 1.373 . S
C173 C172 1.394 . S
C173 C174 1.380 . S
C173 H196 0.930 1_455 S
C174 C173 1.380 . S
C174 C175 1.376 . S
C174 H197 0.930 . S
C175 C174 1.376 . S
C175 C176 1.370 . S
C176 C175 1.370 . S
C176 C177 1.396 . S
C176 H198 0.929 . S
C177 C172 1.373 . S
C177 C176 1.396 . S
C177 H199 0.929 . S
C178 O188 1.240 . S
C178 O189 1.289 . S
C179 O190 1.258 . S
C179 O191 1.256 . S
O180 La160 2.521 . S
O180 C162 1.261 . S
O181 La160 2.628 . S
O181 C162 1.243 . S
O182 La160 2.554 . S
O182 C169 1.240 1_655 S
O183 La160 2.757 . S
O183 La161 2.482 . S
O183 C169 1.289 1_655 S
O184 La160 2.470 . S
O184 C170 1.258 . S
O185 La161 2.503 . S
O185 C170 1.256 . S
O186 La161 2.521 . S
O186 C171 1.261 1_655 S
O187 La161 2.628 1_455 S
O187 C171 1.243 . S
O188 La161 2.554 . S
O188 C178 1.240 . S
O189 La160 2.482 . S
O189 La161 2.757 . S
O189 C178 1.289 . S
O190 La161 2.470 . S
O190 C179 1.258 . S
O191 La160 2.503 . S
O191 C179 1.256 . S
H192 C164 0.930 . S
H193 C165 0.930 . S
H194 C167 0.929 . S
H195 C168 0.929 . S
H196 C173 0.930 1_655 S
H197 C174 0.930 . S
H198 C176 0.929 . S
H199 C177 0.929 . S
La200 C202 2.928 . S
La200 O220 2.521 . S
La200 O221 2.628 . S
La200 O222 2.554 . S
La200 O223 2.757 . S
La200 O224 2.470 . S
La200 O229 2.482 . S
La200 O231 2.503 . S
La201 C211 2.928 1_565 S
La201 O223 2.482 . S
La201 O225 2.503 . S
La201 O226 2.521 . S
La201 O227 2.628 1_565 S
La201 O228 2.554 . S
La201 O229 2.757 . S
La201 O230 2.470 . S
C202 La200 2.928 . S
C202 C203 1.503 . S
C202 O220 1.261 . S
C202 O221 1.243 . S
C203 C202 1.503 . S
C203 C204 1.394 . S
C203 C208 1.373 . S
C204 C203 1.394 . S
C204 C205 1.380 1_455 S
C204 H232 0.930 1_455 S
C205 C204 1.380 1_655 S
C205 C206 1.385 . S
C205 H233 0.930 . S
C206 C205 1.385 . S
C206 C207 1.358 1_655 S
C207 C206 1.358 1_455 S
C207 C208 1.396 . S
C207 H234 0.929 . S
C208 C203 1.373 . S
C208 C207 1.396 . S
C208 H235 0.929 . S
C209 O222 1.240 1_545 S
C209 O223 1.289 1_545 S
C210 O224 1.258 . S
C210 O225 1.256 . S
C211 La201 2.928 1_545 S
C211 C212 1.503 . S
C211 O226 1.261 1_545 S
C211 O227 1.243 . S
C212 C211 1.503 . S
C212 C213 1.394 . S
C212 C217 1.373 . S
C213 C212 1.394 . S
C213 C214 1.380 . S
C213 H236 0.930 1_545 S
C214 C213 1.380 . S
C214 C215 1.376 . S
C214 H237 0.930 . S
C215 C214 1.376 . S
C215 C216 1.370 . S
C216 C215 1.370 . S
C216 C217 1.396 . S
C216 H238 0.929 . S
C217 C212 1.373 . S
C217 C216 1.396 . S
C217 H239 0.929 . S
C218 O228 1.240 . S
C218 O229 1.289 . S
C219 O230 1.258 . S
C219 O231 1.256 . S
O220 La200 2.521 . S
O220 C202 1.261 . S
O221 La200 2.628 . S
O221 C202 1.243 . S
O222 La200 2.554 . S
O222 C209 1.240 1_565 S
O223 La200 2.757 . S
O223 La201 2.482 . S
O223 C209 1.289 1_565 S
O224 La200 2.470 . S
O224 C210 1.258 . S
O225 La201 2.503 . S
O225 C210 1.256 . S
O226 La201 2.521 . S
O226 C211 1.261 1_565 S
O227 La201 2.628 1_545 S
O227 C211 1.243 . S
O228 La201 2.554 . S
O228 C218 1.240 . S
O229 La200 2.482 . S
O229 La201 2.757 . S
O229 C218 1.289 . S
O230 La201 2.470 . S
O230 C219 1.258 . S
O231 La200 2.503 . S
O231 C219 1.256 . S
H232 C204 0.930 1_655 S
H233 C205 0.930 . S
H234 C207 0.929 . S
H235 C208 0.929 . S
H236 C213 0.930 1_565 S
H237 C214 0.930 . S
H238 C216 0.929 . S
H239 C217 0.929 . S
H240 C246 0.930 1_565 S
H241 C249 0.930 . S
H242 C250 0.930 . S
H243 C251 0.930 . S
H244 C254 0.930 . S
H245 C255 0.930 . S
C246 H240 0.930 1_545 S
C246 C247 1.355 1_455 S
C246 C248 1.415 . S
C247 C246 1.355 1_655 S
C247 C249 1.419 1_554 S
C248 C246 1.415 . S
C248 C253 1.430 . S
C248 C255 1.409 . S
C249 H241 0.930 . S
C249 C247 1.419 1_556 S
C249 C250 1.362 1_655 S
C250 H242 0.930 . S
C250 C249 1.362 1_455 S
C250 C253 1.405 1_556 S
C251 H243 0.930 . S
C251 C252 1.355 1_556 S
C251 C253 1.414 1_556 S
C252 C251 1.355 1_554 S
C252 C254 1.419 . S
C253 C248 1.430 . S
C253 C250 1.405 1_554 S
C253 C251 1.414 1_554 S
C254 H244 0.930 . S
C254 C252 1.419 . S
C254 C255 1.362 . S
C255 H245 0.930 . S
C255 C248 1.409 . S
C255 C254 1.362 . S
H256 C262 0.930 1_565 S
H257 C265 0.930 1_565 S
H258 C266 0.930 . S
H259 C267 0.930 . S
H260 C270 0.930 . S
H261 C271 0.930 . S
C262 H256 0.930 1_545 S
C262 C263 1.355 1_545 S
C262 C264 1.415 . S
C263 C262 1.355 1_565 S
C263 C265 1.419 1_565 S
C264 C262 1.415 . S
C264 C269 1.425 . S
C264 C271 1.409 . S
C265 H257 0.930 1_545 S
C265 C263 1.419 1_545 S
C265 C266 1.362 . S
C266 H258 0.930 . S
C266 C265 1.362 . S
C266 C269 1.409 . S
C267 H259 0.930 . S
C267 C268 1.355 . S
C267 C269 1.415 . S
C268 C267 1.355 . S
C268 C270 1.419 . S
C269 C264 1.425 . S
C269 C266 1.409 . S
C269 C267 1.415 . S
C270 H260 0.930 . S
C270 C268 1.419 . S
C270 C271 1.362 . S
C271 H261 0.930 . S
C271 C264 1.409 . S
C271 C270 1.362 . S
H272 C278 0.930 1_565 S
H273 C281 0.930 . S
H274 C282 0.930 . S
H275 C283 0.930 . S
H276 C286 0.930 . S
H277 C287 0.930 1_665 S
C278 H272 0.930 1_545 S
C278 C279 1.355 . S
C278 C280 1.415 . S
C279 C278 1.355 . S
C279 C281 1.419 . S
C280 C278 1.415 . S
C280 C285 1.425 . S
C280 C287 1.409 . S
C281 H273 0.930 . S
C281 C279 1.419 . S
C281 C282 1.362 . S
C282 H274 0.930 . S
C282 C281 1.362 . S
C282 C285 1.409 . S
C283 H275 0.930 . S
C283 C284 1.355 . S
C283 C285 1.415 . S
C284 C283 1.355 . S
C284 C286 1.419 1_455 S
C285 C280 1.425 . S
C285 C282 1.409 . S
C285 C283 1.415 . S
C286 H276 0.930 . S
C286 C284 1.419 1_655 S
C286 C287 1.362 1_655 S
C287 H277 0.930 1_445 S
C287 C280 1.409 . S
C287 C286 1.362 1_455 S
H288 C294 0.930 . S
H289 C297 0.930 . S
H290 C298 0.930 . S
H291 C299 0.930 . S
H292 C302 0.930 . S
H293 C303 0.930 . S
C294 H288 0.930 . S
C294 C295 1.355 . S
C294 C296 1.415 . S
C295 C294 1.355 . S
C295 C297 1.419 . S
C296 C294 1.415 . S
C296 C301 1.425 . S
C296 C303 1.409 . S
C297 H289 0.930 . S
C297 C295 1.419 . S
C297 C298 1.362 . S
C298 H290 0.930 . S
C298 C297 1.362 . S
C298 C301 1.409 . S
C299 H291 0.930 . S
C299 C300 1.355 . S
C299 C301 1.415 . S
C300 C299 1.355 . S
C300 C302 1.419 . S
C301 C296 1.425 . S
C301 C298 1.409 . S
C301 C299 1.415 . S
C302 H292 0.930 . S
C302 C300 1.419 . S
C302 C303 1.362 . S
C303 H293 0.930 . S
C303 C296 1.409 . S
C303 C302 1.362 . S
H304 C310 0.930 . S
H305 C313 0.930 . S
H306 C314 0.930 . S
H307 C315 0.930 . S
H308 C318 0.930 . S
H309 C319 0.930 . S
C310 H304 0.930 . S
C310 C311 1.355 . S
C310 C312 1.415 . S
C311 C310 1.355 . S
C311 C313 1.419 . S
C312 C310 1.415 . S
C312 C317 1.425 1_455 S
C312 C319 1.409 . S
C313 H305 0.930 . S
C313 C311 1.419 . S
C313 C314 1.362 . S
C314 H306 0.930 . S
C314 C313 1.362 . S
C314 C317 1.409 1_455 S
C315 H307 0.930 . S
C315 C316 1.355 . S
C315 C317 1.415 . S
C316 C315 1.355 . S
C316 C318 1.419 . S
C317 C312 1.425 1_655 S
C317 C314 1.409 1_655 S
C317 C315 1.415 . S
C318 H308 0.930 . S
C318 C316 1.419 . S
C318 C319 1.362 1_655 S
C319 H309 0.930 . S
C319 C312 1.409 . S
C319 C318 1.362 1_455 S
H320 C326 0.930 . S
H321 C329 0.930 . S
H322 C330 0.930 . S
H323 C331 0.930 . S
H324 C334 0.930 . S
H325 C335 0.930 . S
C326 H320 0.930 . S
C326 C327 1.355 . S
C326 C328 1.415 . S
C327 C326 1.355 . S
C327 C329 1.419 . S
C328 C326 1.415 . S
C328 C333 1.425 . S
C328 C335 1.409 1_545 S
C329 H321 0.930 . S
C329 C327 1.419 . S
C329 C330 1.362 . S
C330 H322 0.930 . S
C330 C329 1.362 . S
C330 C333 1.409 . S
C331 H323 0.930 . S
C331 C332 1.355 . S
C331 C333 1.415 1_565 S
C332 C331 1.355 . S
C332 C334 1.419 . S
C333 C328 1.425 . S
C333 C330 1.409 . S
C333 C331 1.415 1_545 S
C334 H324 0.930 . S
C334 C332 1.419 . S
C334 C335 1.362 . S
C335 H325 0.930 . S
C335 C328 1.409 1_565 S
C335 C334 1.362 . S
H336 C342 0.930 . S
H337 C345 0.930 . S
H338 C346 0.930 . S
H339 C347 0.930 . S
H340 C350 0.930 1_455 S
H341 C351 0.930 . S
C342 H336 0.930 . S
C342 C343 1.355 . S
C342 C344 1.415 . S
C343 C342 1.355 . S
C343 C345 1.419 . S
C344 C342 1.415 . S
C344 C349 1.425 . S
C344 C351 1.409 . S
C345 H337 0.930 . S
C345 C343 1.419 . S
C345 C346 1.362 . S
C346 H338 0.930 . S
C346 C345 1.362 . S
C346 C349 1.409 . S
C347 H339 0.930 . S
C347 C348 1.355 . S
C347 C349 1.415 . S
C348 C347 1.355 . S
C348 C350 1.419 . S
C349 C344 1.425 . S
C349 C346 1.409 . S
C349 C347 1.415 . S
C350 H340 0.930 1_655 S
C350 C348 1.419 . S
C350 C351 1.362 . S
C351 H341 0.930 . S
C351 C344 1.409 . S
C351 C350 1.362 . S
H352 C358 0.930 . S
H353 C361 0.930 . S
H354 C362 0.930 . S
H355 C363 0.930 . S
H356 C366 0.930 . S
H357 C367 0.930 . S
C358 H352 0.930 . S
C358 C359 1.355 . S
C358 C360 1.415 . S
C359 C358 1.355 . S
C359 C361 1.419 . S
C360 C358 1.415 . S
C360 C365 1.425 . S
C360 C367 1.409 . S
C361 H353 0.930 . S
C361 C359 1.419 . S
C361 C362 1.362 . S
C362 H354 0.930 . S
C362 C361 1.362 . S
C362 C365 1.409 . S
C363 H355 0.930 . S
C363 C364 1.355 . S
C363 C365 1.415 . S
C364 C363 1.355 . S
C364 C366 1.419 . S
C365 C360 1.425 . S
C365 C362 1.409 . S
C365 C363 1.415 . S
C366 H356 0.930 . S
C366 C364 1.419 . S
C366 C367 1.362 . S
C367 H357 0.930 . S
C367 C360 1.409 . S
C367 C366 1.362 . S
H368 C374 0.930 . S
H369 C377 0.930 . S
H370 C378 0.930 . S
H371 C379 0.930 . S
H372 C382 0.930 . S
H373 C383 0.930 . S
C374 H368 0.930 . S
C374 C375 1.355 . S
C374 C376 1.415 . S
C375 C374 1.355 . S
C375 C377 1.419 . S
C376 C374 1.415 . S
C376 C381 1.425 . S
C376 C383 1.409 . S
C377 H369 0.930 . S
C377 C375 1.419 . S
C377 C378 1.362 . S
C378 H370 0.930 . S
C378 C377 1.362 . S
C378 C381 1.409 . S
C379 H371 0.930 . S
C379 C380 1.355 . S
C379 C381 1.415 . S
C380 C379 1.355 . S
C380 C382 1.419 . S
C381 C376 1.425 . S
C381 C378 1.409 . S
C381 C379 1.415 . S
C382 H372 0.930 . S
C382 C380 1.419 . S
C382 C383 1.362 . S
C383 H373 0.930 . S
C383 C376 1.409 . S
C383 C382 1.362 . S
H384 C390 0.930 . S
H385 C393 0.930 . S
H386 C394 0.930 . S
H387 C395 0.930 . S
H388 C398 0.930 . S
H389 C399 0.931 1_565 S
C390 H384 0.930 . S
C390 C391 1.355 . S
C390 C392 1.415 . S
C391 C390 1.355 . S
C391 C393 1.419 . S
C392 C390 1.415 . S
C392 C397 1.425 . S
C392 C399 1.409 . S
C393 H385 0.930 . S
C393 C391 1.419 . S
C393 C394 1.362 . S
C394 H386 0.930 . S
C394 C393 1.362 . S
C394 C397 1.409 . S
C395 H387 0.930 . S
C395 C396 1.355 . S
C395 C397 1.415 . S
C396 C395 1.355 . S
C396 C398 1.419 1_545 S
C397 C392 1.425 . S
C397 C394 1.409 . S
C397 C395 1.415 . S
C398 H388 0.930 . S
C398 C396 1.419 1_565 S
C398 C399 1.362 1_565 S
C399 H389 0.931 1_545 S
C399 C392 1.409 . S
C399 C398 1.362 1_545 S
H400 C406 0.930 . S
H401 C409 0.930 . S
H402 C410 0.930 . S
H403 C411 0.930 . S
H404 C414 0.930 . S
H405 C415 0.930 . S
C406 H400 0.930 . S
C406 C407 1.355 . S
C406 C408 1.415 . S
C407 C406 1.355 . S
C407 C409 1.419 . S
C408 C406 1.415 . S
C408 C413 1.425 . S
C408 C415 1.409 . S
C409 H401 0.930 . S
C409 C407 1.419 . S
C409 C410 1.362 . S
C410 H402 0.930 . S
C410 C409 1.362 . S
C410 C413 1.409 . S
C411 H403 0.930 . S
C411 C412 1.355 . S
C411 C413 1.415 . S
C412 C411 1.355 . S
C412 C414 1.419 . S
C413 C408 1.425 . S
C413 C410 1.409 . S
C413 C411 1.415 . S
C414 H404 0.930 . S
C414 C412 1.419 . S
C414 C415 1.362 . S
C415 H405 0.930 . S
C415 C408 1.409 . S
C415 C414 1.362 . S
H416 C422 0.930 1_655 S
H417 C425 0.930 . S
H418 C426 0.930 . S
H419 C427 0.930 . S
H420 C430 0.930 . S
H421 C431 0.930 . S
C422 H416 0.930 1_455 S
C422 C423 1.355 . S
C422 C424 1.415 . S
C423 C422 1.355 . S
C423 C425 1.419 . S
C424 C422 1.415 . S
C424 C429 1.425 . S
C424 C431 1.409 . S
C425 H417 0.930 . S
C425 C423 1.419 . S
C425 C426 1.362 . S
C426 H418 0.930 . S
C426 C425 1.362 . S
C426 C429 1.409 . S
C427 H419 0.930 . S
C427 C428 1.355 . S
C427 C429 1.415 . S
C428 C427 1.355 . S
C428 C430 1.419 . S
C429 C424 1.425 . S
C429 C426 1.409 . S
C429 C427 1.415 . S
C430 H420 0.930 . S
C430 C428 1.419 . S
C430 C431 1.362 . S
C431 H421 0.930 . S
C431 C424 1.409 . S
C431 C430 1.362 . S
H432 C438 0.930 . S
H433 C441 0.930 . S
H434 C442 0.930 . S
H435 C443 0.930 . S
H436 C446 0.930 . S
H437 C447 0.930 . S
C438 H432 0.930 . S
C438 C439 1.355 . S
C438 C440 1.415 . S
C439 C438 1.355 . S
C439 C441 1.419 . S
C440 C438 1.415 . S
C440 C445 1.425 . S
C440 C447 1.409 . S
C441 H433 0.930 . S
C441 C439 1.419 . S
C441 C442 1.362 . S
C442 H434 0.930 . S
C442 C441 1.362 . S
C442 C445 1.409 . S
C443 H435 0.930 . S
C443 C444 1.355 . S
C443 C445 1.415 . S
C444 C443 1.355 . S
C444 C446 1.419 . S
C445 C440 1.425 . S
C445 C442 1.409 . S
C445 C443 1.415 . S
C446 H436 0.930 . S
C446 C444 1.419 . S
C446 C447 1.362 . S
C447 H437 0.930 . S
C447 C440 1.409 . S
C447 C446 1.362 . S
H448 C454 0.930 . S
H449 C457 0.930 . S
H450 C458 0.930 . S
H451 C459 0.930 . S
H452 C462 0.930 . S
H453 C463 0.930 . S
C454 H448 0.930 . S
C454 C455 1.355 . S
C454 C456 1.415 . S
C455 C454 1.355 . S
C455 C457 1.419 . S
C456 C454 1.415 . S
C456 C461 1.425 . S
C456 C463 1.409 . S
C457 H449 0.930 . S
C457 C455 1.419 . S
C457 C458 1.362 . S
C458 H450 0.930 . S
C458 C457 1.362 . S
C458 C461 1.409 . S
C459 H451 0.930 . S
C459 C460 1.355 . S
C459 C461 1.415 . S
C460 C459 1.355 . S
C460 C462 1.419 . S
C461 C456 1.425 . S
C461 C458 1.409 . S
C461 C459 1.415 . S
C462 H452 0.930 . S
C462 C460 1.419 . S
C462 C463 1.362 . S
C463 H453 0.930 . S
C463 C456 1.409 . S
C463 C462 1.362 . S
H464 C470 0.930 . S
H465 C473 0.930 . S
H466 C474 0.930 . S
H467 C475 0.930 . S
H468 C478 0.930 . S
H469 C479 0.930 . S
C470 H464 0.930 . S
C470 C471 1.355 . S
C470 C472 1.415 . S
C471 C470 1.355 . S
C471 C473 1.419 . S
C472 C470 1.415 . S
C472 C477 1.425 . S
C472 C479 1.409 . S
C473 H465 0.930 . S
C473 C471 1.419 . S
C473 C474 1.362 . S
C474 H466 0.930 . S
C474 C473 1.362 . S
C474 C477 1.409 . S
C475 H467 0.930 . S
C475 C476 1.355 . S
C475 C477 1.415 . S
C476 C475 1.355 . S
C476 C478 1.419 . S
C477 C472 1.425 . S
C477 C474 1.409 . S
C477 C475 1.415 . S
C478 H468 0.930 . S
C478 C476 1.419 . S
C478 C479 1.362 . S
C479 H469 0.930 . S
C479 C472 1.409 . S
C479 C478 1.362 . S
H480 C486 0.930 . S
H481 C489 0.930 . S
H482 C490 0.930 . S
H483 C491 0.930 . S
H484 C494 0.930 . S
H485 C495 0.930 . S
C486 H480 0.930 . S
C486 C487 1.355 . S
C486 C488 1.415 . S
C487 C486 1.355 . S
C487 C489 1.419 . S
C488 C486 1.415 . S
C488 C493 1.425 . S
C488 C495 1.409 . S
C489 H481 0.930 . S
C489 C487 1.419 . S
C489 C490 1.362 . S
C490 H482 0.930 . S
C490 C489 1.362 . S
C490 C493 1.409 . S
C491 H483 0.930 . S
C491 C492 1.355 . S
C491 C493 1.415 . S
C492 C491 1.355 . S
C492 C494 1.419 . S
C493 C488 1.425 . S
C493 C490 1.409 . S
C493 C491 1.415 . S
C494 H484 0.930 . S
C494 C492 1.419 . S
C494 C495 1.362 . S
C495 H485 0.930 . S
C495 C488 1.409 . S
C495 C494 1.362 . S
H496 C502 0.930 . S
H497 C505 0.930 . S
H498 C506 0.930 . S
H499 C507 0.930 1_655 S
H500 C510 0.930 . S
H501 C511 0.930 . S
C502 H496 0.930 . S
C502 C503 1.355 . S
C502 C504 1.415 . S
C503 C502 1.355 . S
C503 C505 1.419 1_455 S
C504 C502 1.415 . S
C504 C509 1.425 . S
C504 C511 1.409 . S
C505 H497 0.930 . S
C505 C503 1.419 1_655 S
C505 C506 1.362 . S
C506 H498 0.930 . S
C506 C505 1.362 . S
C506 C509 1.409 1_655 S
C507 H499 0.930 1_455 S
C507 C508 1.355 . S
C507 C509 1.415 . S
C508 C507 1.355 . S
C508 C510 1.419 . S
C509 C504 1.425 . S
C509 C506 1.409 1_455 S
C509 C507 1.415 . S
C510 H500 0.930 . S
C510 C508 1.419 . S
C510 C511 1.362 . S
C511 H501 0.930 . S
C511 C504 1.409 . S
C511 C510 1.362 . S
H512 C518 0.930 . S
H513 C521 0.930 . S
H514 C522 0.930 . S
H515 C523 0.930 . S
H516 C526 0.930 1_565 S
H517 C527 0.930 . S
C518 H512 0.930 . S
C518 C519 1.355 1_565 S
C518 C520 1.415 1_565 S
C519 C518 1.355 1_545 S
C519 C521 1.419 . S
C520 C518 1.415 1_545 S
C520 C525 1.425 . S
C520 C527 1.409 1_545 S
C521 H513 0.930 . S
C521 C519 1.419 . S
C521 C522 1.362 . S
C522 H514 0.930 . S
C522 C521 1.362 . S
C522 C525 1.409 . S
C523 H515 0.930 . S
C523 C524 1.355 . S
C523 C525 1.415 . S
C524 C523 1.355 . S
C524 C526 1.419 . S
C525 C520 1.425 . S
C525 C522 1.409 . S
C525 C523 1.415 . S
C526 H516 0.930 1_545 S
C526 C524 1.419 . S
C526 C527 1.362 1_545 S
C527 H517 0.930 . S
C527 C520 1.409 1_565 S
C527 C526 1.362 1_565 S
C247 C129 0.763 . S
C252 C9 0.739 . S
C263 C169 0.918 . S
C268 C49 0.949 . S
C279 C209 0.949 . S
C284 C89 0.917 . S
C295 C15 1.005 . S
C300 C86 1.025 . S
C311 C55 1.006 . S
C316 C126 1.016 . S
C327 C95 0.851 . S
C332 C166 0.977 . S
C343 C135 0.926 . S
C348 C206 0.908 . S
C359 C175 0.795 . S
C364 C6 0.909 . S
C375 C215 0.912 . S
C380 C46 0.888 . S
C391 C18 1.435 . S
C396 C138 1.413 1_545 S
C407 C58 1.377 . S
C412 C178 1.416 . S
C423 C98 1.381 1_455 S
C428 C218 1.369 . S
C439 C10 4.156 . S
C444 C59 4.214 . S
C455 C50 4.139 . S
C460 C99 4.212 . S
C471 C90 4.140 . S
C476 C139 4.215 . S
C487 C130 4.162 . S
C492 C179 4.218 . S
C503 C170 4.158 1_455 S
C508 C219 4.214 . S
C519 C210 4.149 1_545 S
C524 C19 4.221 . S
