# Generated by pormake.
# Topology uov, (4)-cn, num edge types: 1
# Building blocks:
#     Node 0, Type 0, BuildingBlock: NAHDIM_clean_sbu_0, # of connection points: 4
#     Node 1, Type 0, BuildingBlock: NAHDIM_clean_sbu_0, # of connection points: 4
#     Node 2, Type 0, BuildingBlock: NAHDIM_clean_sbu_0, # of connection points: 4
#     Node 3, Type 0, BuildingBlock: NAHDIM_clean_sbu_0, # of connection points: 4
#     Node 4, Type 0, BuildingBlock: NAHDIM_clean_sbu_0, # of connection points: 4
#     Node 5, Type 0, BuildingBlock: NAHDIM_clean_sbu_0, # of connection points: 4
#     Node 6, Type 0, BuildingBlock: NAHDIM_clean_sbu_0, # of connection points: 4
#     Node 7, Type 0, BuildingBlock: NAHDIM_clean_sbu_0, # of connection points: 4
#     Edge 8, Type (0, 0), BuildingBlock: FUNLAD_clean_linker_0, # of connection points: 2
#     Edge 9, Type (0, 0), BuildingBlock: FUNLAD_clean_linker_0, # of connection points: 2
#     Edge 10, Type (0, 0), BuildingBlock: FUNLAD_clean_linker_0, # of connection points: 2
#     Edge 11, Type (0, 0), BuildingBlock: FUNLAD_clean_linker_0, # of connection points: 2
#     Edge 12, Type (0, 0), BuildingBlock: FUNLAD_clean_linker_0, # of connection points: 2
#     Edge 13, Type (0, 0), BuildingBlock: FUNLAD_clean_linker_0, # of connection points: 2
#     Edge 14, Type (0, 0), BuildingBlock: FUNLAD_clean_linker_0, # of connection points: 2
#     Edge 15, Type (0, 0), BuildingBlock: FUNLAD_clean_linker_0, # of connection points: 2
#     Edge 16, Type (0, 0), BuildingBlock: FUNLAD_clean_linker_0, # of connection points: 2
#     Edge 17, Type (0, 0), BuildingBlock: FUNLAD_clean_linker_0, # of connection points: 2
#     Edge 18, Type (0, 0), BuildingBlock: FUNLAD_clean_linker_0, # of connection points: 2
#     Edge 19, Type (0, 0), BuildingBlock: FUNLAD_clean_linker_0, # of connection points: 2
#     Edge 20, Type (0, 0), BuildingBlock: FUNLAD_clean_linker_0, # of connection points: 2
#     Edge 21, Type (0, 0), BuildingBlock: FUNLAD_clean_linker_0, # of connection points: 2
#     Edge 22, Type (0, 0), BuildingBlock: FUNLAD_clean_linker_0, # of connection points: 2
#     Edge 23, Type (0, 0), BuildingBlock: FUNLAD_clean_linker_0, # of connection points: 2
# Relax obj value: 0.256
# Max RMSD: 0.233
# Mean RMSD: 0.233
data_MOF--net-uov--node1-NAHDIM_clean_sbu_0--edge1-FUNLAD_clean_linker_0
_symmetry_space_group_name_H-M    P1
_symmetry_Int_Tables_number       1
_symmetry_cell_setting            triclinic
loop_
_symmetry_equiv_pos_as_xyz
'x, y, z'
_cell_length_a     35.051182
_cell_length_b     35.111566
_cell_length_c     48.086842
_cell_angle_alpha  89.990142
_cell_angle_beta   89.993734
_cell_angle_gamma 90.153078
loop_
_atom_site_label
_atom_site_type_symbol
_atom_site_fract_x
_atom_site_fract_y
_atom_site_fract_z
_atom_type_partial_charge
C0 C 0.01073 0.30948 0.62907 0.0
O1 O 0.99038 0.29155 0.64794 0.0
O2 O 0.97609 0.21636 0.59312 0.0
Zn3 Zn 0.02637 0.23356 0.60876 0.0
O4 O 0.0367 0.21077 0.64626 0.0
C5 C 0.06588 0.2278 0.55726 0.0
O6 O 0.03852 0.25103 0.54955 0.0
O7 O 0.02821 0.29038 0.61066 0.0
C8 C 0.03136 0.17553 0.65087 0.0
O9 O 0.01755 0.15392 0.63095 0.0
C10 C 0.94602 0.20858 0.60677 0.0
O11 O 0.94605 0.21207 0.63397 0.0
O12 O 0.06698 0.2164 0.58232 0.0
C13 C 0.31034 0.97288 0.3536 0.0
O14 O 0.28649 -0.00309 0.342 0.0
O15 O 0.22623 -0.00371 0.39579 0.0
Zn16 Zn 0.24168 0.94629 0.37894 0.0
O17 O 0.21166 0.93479 0.34445 0.0
C18 C 0.23705 0.91277 0.4329 0.0
O19 O 0.25238 0.94563 0.4398 0.0
O20 O 0.2975 0.94777 0.37019 0.0
C21 C 0.17576 0.93954 0.34339 0.0
O22 O 0.15784 0.95317 0.36522 0.0
C23 C 0.21298 0.02544 0.38352 0.0
O24 O 0.20826 0.02491 0.35642 0.0
O25 O 0.23077 0.90571 0.40739 0.0
C26 C 0.97187 0.65615 0.60178 0.0
O27 O 0.98376 0.66852 0.5775 0.0
O28 O 0.9947 0.75879 0.59234 0.0
Zn29 Zn 0.94727 0.73398 0.60774 0.0
O30 O 0.92903 0.76364 0.6409 0.0
C31 C 0.91422 0.73366 0.55282 0.0
O32 O 0.94948 0.72622 0.5454 0.0
O33 O 0.95579 0.67924 0.61837 0.0
C34 C 0.93717 0.79877 0.64345 0.0
O35 O 0.95864 0.81531 0.62457 0.0
C36 C 0.02914 0.74831 0.5952 0.0
O37 O 0.03706 0.71768 0.60976 0.0
O38 O 0.9064 0.73733 0.57849 0.0
C39 C 0.66057 0.98605 0.36167 0.0
O40 O 0.68519 0.96082 0.35256 0.0
O41 O 0.74167 0.96213 0.40436 0.0
Zn42 Zn 0.72671 0.01362 0.38978 0.0
O43 O 0.76062 0.02831 0.35793 0.0
C44 C 0.7346 0.04351 0.44566 0.0
O45 O 0.72665 0.00827 0.45285 0.0
O46 O 0.672 0.01233 0.37783 0.0
C47 C 0.79519 0.03638 0.36337 0.0
O48 O 0.80719 0.0339 0.3892 0.0
C49 C 0.76008 0.93756 0.3904 0.0
O50 O 0.76992 0.94527 0.36464 0.0
O51 O 0.73464 0.05245 0.42004 0.0
C52 C -0.00316 0.31336 0.15565 0.0
O53 O 0.01881 0.29439 0.17289 0.0
O54 O 0.03667 0.22514 0.11762 0.0
Zn55 Zn 0.98398 0.23944 0.13023 0.0
O56 O 0.96968 0.21051 0.16461 0.0
C57 C 0.94599 0.24195 0.07695 0.0
O58 O 0.96845 0.27143 0.07282 0.0
O59 O 0.97951 0.29559 0.13642 0.0
C60 C 0.96459 0.17479 0.16238 0.0
O61 O 0.97044 0.15843 0.13819 0.0
C62 C 0.05824 0.24832 0.10473 0.0
O63 O 0.0468 0.28354 0.10092 0.0
O64 O 0.94751 0.22434 0.10001 0.0
C65 C 0.32801 0.00748 0.87109 0.0
O66 O 0.30579 0.98329 0.85791 0.0
O67 O 0.23817 0.98137 0.90818 0.0
Zn68 Zn 0.25707 0.03231 0.89485 0.0
O69 O 0.2302 0.04886 0.86009 0.0
C70 C 0.25836 0.06524 0.94935 0.0
O71 O 0.27968 0.03536 0.95458 0.0
O72 O 0.31334 0.03094 0.88806 0.0
C73 C 0.19405 0.0509 0.85911 0.0
O74 O 0.17398 0.04079 0.881 0.0
C75 C 0.22193 0.95629 0.89321 0.0
O76 O 0.21758 0.96246 0.86645 0.0
O77 O 0.24589 0.07032 0.92482 0.0
C78 C 0.99302 0.66207 0.12526 0.0
O79 O 0.984 0.68413 0.1463 0.0
O80 O 0.95835 0.75434 0.0831 0.0
Zn81 Zn 0.00746 0.73376 0.09844 0.0
O82 O 0.02115 0.7575 0.13506 0.0
C83 C 0.04489 0.74312 0.04545 0.0
O84 O 0.01275 0.72892 0.03589 0.0
O85 O 0.00377 0.67711 0.10253 0.0
C86 C 0.02669 0.79315 0.13711 0.0
O87 O 0.0216 0.81485 0.11516 0.0
C88 C 0.93373 0.77372 0.09631 0.0
O89 O 0.93898 0.78101 0.12282 0.0
O90 O 0.04924 0.74691 0.07153 0.0
C91 C 0.67898 0.03429 0.8601 0.0
O92 O 0.69893 0.06463 0.85328 0.0
O93 O 0.76919 0.05488 0.8932 0.0
Zn94 Zn 0.75251 0.00537 0.87592 0.0
O95 O 0.7795 0.99397 0.8401 0.0
C96 C 0.75879 0.96664 0.92855 0.0
O97 O 0.74178 -0.0026 0.93788 0.0
O98 O 0.69605 0.00546 0.86998 0.0
C99 C 0.81465 0.98521 0.84071 0.0
O100 O 0.83293 0.98621 0.86455 0.0
C101 C 0.79419 0.07772 0.88374 0.0
O102 O 0.81062 0.07051 0.85978 0.0
O103 O 0.76556 0.96362 0.90269 0.0
C104 C -0.00333 0.59091 0.59189 0.0
C105 C 0.97658 0.6157 0.60947 0.0
C106 C 0.00024 0.55243 0.5986 0.0
C107 C 0.98391 0.5379 0.62317 0.0
C108 C 0.96375 0.56265 0.64069 0.0
C109 C 0.96033 0.60124 0.63404 0.0
C110 C 0.98535 0.49675 0.63011 0.0
C111 C 0.0137 0.47378 0.6215 0.0
C112 C 0.01358 0.43181 0.62523 0.0
C113 C 0.03592 0.40984 0.60715 0.0
C114 C 0.0353 0.37019 0.60865 0.0
C115 C 0.01251 0.35153 0.62849 0.0
H116 H 0.97499 0.42904 0.66068 0.0
C117 C 0.99111 0.37344 0.64727 0.0
C118 C 0.99166 0.41321 0.64572 0.0
H119 H 0.97361 0.35989 0.66301 0.0
H120 H 0.0093 0.6011 0.57271 0.0
H121 H 0.01482 0.53407 0.58401 0.0
H122 H 0.95054 0.55209 0.65956 0.0
H123 H 0.94449 0.61959 0.64796 0.0
H124 H 0.96181 0.48531 0.64217 0.0
H125 H 0.03734 0.48585 0.60982 0.0
H126 H 0.05333 0.42337 0.59133 0.0
H127 H 0.05241 0.3542 0.59399 0.0
C128 C 0.59372 0.01064 0.36313 0.0
C129 C 0.61964 0.9824 0.35483 0.0
C130 C 0.55469 0.00599 0.35847 0.0
C131 C 0.54075 0.97296 0.34533 0.0
C132 C 0.56671 0.94503 0.33666 0.0
C133 C 0.60581 0.9498 0.34116 0.0
C134 C 0.49928 0.96535 0.34265 0.0
C135 C 0.47298 0.99316 0.3415 0.0
C136 C 0.43137 0.98563 0.34266 0.0
C137 C 0.40616 0.01258 0.33151 0.0
C138 C 0.36675 0.00791 0.33433 0.0
C139 C 0.35182 0.97642 0.34877 0.0
H140 H 0.43487 0.9329 0.36628 0.0
C141 C 0.37703 0.94919 0.35965 0.0
C142 C 0.41638 0.95372 0.35666 0.0
H143 H 0.36642 0.92468 0.37098 0.0
H144 H 0.60346 0.03604 0.3738 0.0
H145 H 0.53553 0.02767 0.36619 0.0
H146 H 0.55668 0.91917 0.32673 0.0
H147 H 0.62505 0.92745 0.33459 0.0
H148 H 0.49028 0.93575 0.34164 0.0
H149 H 0.48208 0.02265 0.33964 0.0
H150 H 0.417 0.03758 0.32088 0.0
H151 H 0.34808 0.02947 0.32579 0.0
C152 C 0.96996 0.37495 0.13878 0.0
C153 C 0.99367 0.35526 0.15742 0.0
C154 C 0.96836 0.41461 0.13916 0.0
C155 C 0.99073 0.43555 0.15804 0.0
C156 C 0.01322 0.41588 0.17743 0.0
C157 C 0.01485 0.37608 0.17706 0.0
C158 C 0.99124 0.47781 0.1578 0.0
C159 C 0.98593 0.49799 0.1343 0.0
C160 C 0.98786 0.54014 0.1329 0.0
C161 C -0.00362 0.55727 0.10727 0.0
C162 C -0.00184 0.59682 0.10483 0.0
C163 C 0.991 0.62018 0.12795 0.0
H164 H 0.97258 0.55138 0.17595 0.0
C165 C 0.98194 0.60313 0.15356 0.0
C166 C 0.98034 0.56348 0.15605 0.0
H167 H 0.97603 0.62037 0.17173 0.0
H168 H 0.9528 0.35977 0.12365 0.0
H169 H 0.94952 0.4287 0.12462 0.0
H170 H 0.03033 0.43137 0.19243 0.0
H171 H 0.03316 0.36172 0.19184 0.0
H172 H -0.00118 0.4923 0.17697 0.0
H173 H 0.98221 0.48301 0.11472 0.0
H174 H 0.00196 0.53997 0.08907 0.0
H175 H 0.00504 0.60903 0.08475 0.0
C176 C 0.39279 0.03538 0.87896 0.0
C177 C 0.36967 0.0076 0.86631 0.0
C178 C 0.43218 0.03544 0.87482 0.0
C179 C 0.44935 0.00776 0.85781 0.0
C180 C 0.42629 0.97985 0.84532 0.0
C181 C 0.38679 0.97989 0.84936 0.0
C182 C 0.49133 0.00589 0.85418 0.0
C183 C 0.51421 0.03663 0.85639 0.0
C184 C 0.55647 0.0345 0.8555 0.0
C185 C 0.57741 0.0673 0.84859 0.0
C186 C 0.61727 0.06709 0.84945 0.0
C187 C 0.63696 0.03411 0.85757 0.0
H188 H 0.56121 0.97583 0.86963 0.0
C189 C 0.61601 0.00118 0.86426 0.0
C190 C 0.57623 0.00135 0.86331 0.0
H191 H 0.63031 0.97534 0.87074 0.0
H192 H 0.38053 0.05699 0.89229 0.0
H193 H 0.44908 0.05664 0.88559 0.0
H194 H 0.43887 0.95794 0.83241 0.0
H195 H 0.36978 0.958 0.83941 0.0
H196 H 0.5035 0.97836 0.84908 0.0
H197 H 0.50164 0.0647 0.85867 0.0
H198 H 0.56288 0.09331 0.84276 0.0
H199 H 0.63256 0.09297 0.84425 0.0
C200 C 0.20829 0.05945 0.42892 0.0
C201 C 0.20068 0.05852 0.40025 0.0
C202 C 0.19414 0.08878 0.44547 0.0
C203 C 0.17217 0.11814 0.43369 0.0
C204 C 0.16526 0.11767 0.40492 0.0
C205 C 0.17959 0.08829 0.38829 0.0
C206 C 0.15283 0.14709 0.45124 0.0
C207 C 0.16507 0.15675 0.47687 0.0
C208 C 0.14163 0.17869 0.49693 0.0
C209 C 0.14722 0.17226 0.52544 0.0
C210 C 0.12322 0.18896 0.5451 0.0
C211 C 0.09333 0.21288 0.53665 0.0
H212 H 0.10854 0.2109 0.46679 0.0
C213 C 0.089 0.22105 0.50821 0.0
C214 C 0.11291 0.20415 0.48851 0.0
H215 H 0.06656 0.2398 0.50105 0.0
H216 H 0.22437 0.03691 0.43884 0.0
H217 H 0.19913 0.08716 0.46763 0.0
H218 H 0.14809 0.1397 0.39536 0.0
H219 H 0.17315 0.08833 0.36626 0.0
H220 H 0.12638 0.15877 0.44326 0.0
H221 H 0.19178 0.14528 0.48458 0.0
H222 H 0.16935 0.15306 0.53253 0.0
H223 H 0.12761 0.18241 0.56688 0.0
C224 C 0.22168 0.89818 0.48258 0.0
C225 C 0.22319 0.88639 0.45467 0.0
C226 C 0.20443 0.87516 0.5027 0.0
C227 C 0.18848 0.8398 0.49529 0.0
C228 C 0.19214 0.82697 0.4678 0.0
C229 C 0.20903 0.85017 0.44759 0.0
C230 C 0.16619 0.81669 0.5154 0.0
C231 C 0.14347 0.83294 0.53457 0.0
C232 C 0.11572 0.811 0.55145 0.0
C233 C 0.0808 0.82808 0.55817 0.0
C234 C 0.05291 0.80775 0.57263 0.0
C235 C 0.05969 0.77014 0.58125 0.0
H236 H 0.15003 0.76004 0.55626 0.0
C237 C 0.09525 0.75347 0.57554 0.0
C238 C 0.12299 0.77365 0.56059 0.0
H239 H 0.10129 0.72457 0.58203 0.0
H240 H 0.23265 0.92577 0.48878 0.0
H241 H 0.20306 0.88537 0.52392 0.0
H242 H 0.18041 0.79965 0.46166 0.0
H243 H 0.21011 0.8401 0.42632 0.0
H244 H 0.16484 0.7861 0.5121 0.0
H245 H 0.14187 0.86381 0.53572 0.0
H246 H 0.07464 0.85691 0.55154 0.0
H247 H 0.0259 0.82149 0.57695 0.0
C248 C 0.76044 0.89312 0.43097 0.0
C249 C 0.7727 0.90195 0.4039 0.0
C250 C 0.77521 0.86164 0.44499 0.0
C251 C 0.80254 0.83815 0.43217 0.0
C252 C 0.81376 0.84625 0.40477 0.0
C253 C 0.79882 0.87768 0.39067 0.0
C254 C 0.82345 0.80844 0.44794 0.0
C255 C 0.80972 0.79176 0.47114 0.0
C256 C 0.83431 0.77063 0.49098 0.0
C257 C 0.82408 0.77045 0.51921 0.0
C258 C 0.84928 0.75667 0.53929 0.0
C259 C 0.88521 0.74259 0.5315 0.0
H260 H 0.87719 0.75165 0.46137 0.0
C261 C 0.8942 0.73992 0.50309 0.0
C262 C 0.86895 0.75363 0.48299 0.0
H263 H 0.92133 0.72842 0.49637 0.0
H264 H 0.74032 0.91125 0.44175 0.0
H265 H 0.76655 0.85724 0.46633 0.0
H266 H 0.83502 0.82886 0.39451 0.0
H267 H 0.80882 0.8837 0.36982 0.0
H268 H 0.85241 0.80274 0.44121 0.0
H269 H 0.78058 0.79735 0.47758 0.0
H270 H 0.79736 0.78289 0.52593 0.0
H271 H 0.84125 0.75867 0.56099 0.0
C272 C 0.75644 0.05926 0.49391 0.0
C273 C 0.74862 0.07108 0.46659 0.0
C274 C 0.77484 0.08373 0.51256 0.0
C275 C 0.78547 0.1208 0.50432 0.0
C276 C 0.77571 0.13314 0.47746 0.0
C277 C 0.75752 0.10863 0.45881 0.0
C278 C 0.81035 0.14585 0.52155 0.0
C279 C 0.81937 0.13929 0.54838 0.0
C280 C 0.85028 0.16034 0.56301 0.0
C281 C 0.85019 0.16211 0.59219 0.0
C282 C 0.88073 0.17878 0.60654 0.0
C283 C 0.91221 0.19351 0.59193 0.0
H284 H 0.88355 0.17377 0.52604 0.0
C285 C 0.91204 0.19216 0.56273 0.0
C286 C 0.88158 0.17569 0.54844 0.0
H287 H 0.93591 0.20308 0.5508 0.0
H288 H 0.74997 0.03049 0.50057 0.0
H289 H 0.78213 0.07259 0.53281 0.0
H290 H 0.7835 0.16145 0.47047 0.0
H291 H 0.7517 0.11873 0.43795 0.0
H292 H 0.8231 0.17016 0.51107 0.0
H293 H 0.80449 0.11742 0.56007 0.0
H294 H 0.82669 0.1501 0.60394 0.0
H295 H 0.88007 0.17924 0.62906 0.0
C296 C 0.78743 0.11945 0.92549 0.0
C297 C 0.80789 0.10927 0.9015 0.0
C298 C 0.80267 0.14545 0.94444 0.0
C299 C 0.83907 0.16137 0.94002 0.0
C300 C 0.85828 0.15321 0.9151 0.0
C301 C 0.84287 0.12737 0.896 0.0
C302 C 0.85863 0.18479 0.96151 0.0
C303 C 0.85171 0.18047 0.98892 0.0
C304 C 0.87478 0.19855 0.01126 0.0
C305 C 0.87419 0.18188 0.03779 0.0
C306 C 0.89685 0.19634 0.05919 0.0
C307 C 0.92049 0.22808 0.05461 0.0
H308 H 0.89789 0.2456 0.98702 0.0
C309 C 0.92019 0.24568 0.02835 0.0
C310 C 0.89749 0.23114 0.00687 0.0
H311 H 0.9378 0.27044 0.02425 0.0
H312 H 0.76 0.10659 0.93002 0.0
H313 H 0.78611 0.15236 0.96273 0.0
H314 H 0.8861 0.16551 0.91097 0.0
H315 H 0.8592 0.12033 0.87759 0.0
H316 H 0.88207 0.20273 0.95466 0.0
H317 H 0.83047 0.15986 0.99561 0.0
H318 H 0.85674 0.15697 0.04187 0.0
H319 H 0.89617 0.18224 0.07922 0.0
C320 C 0.22269 0.12223 0.9664 0.0
C321 C 0.24604 0.09073 0.97211 0.0
C322 C 0.20778 0.14415 0.98802 0.0
C323 C 0.21611 0.1352 0.01591 0.0
C324 C 0.24042 0.10443 0.02154 0.0
C325 C 0.25542 0.08252 -0.00012 0.0
C326 C 0.1965 0.15439 0.03944 0.0
C327 C 0.18021 0.18899 0.03733 0.0
C328 C 0.15316 0.20466 0.0582 0.0
C329 C 0.14385 0.2435 0.05695 0.0
C330 C 0.11426 0.25823 0.07316 0.0
C331 C 0.09312 0.23428 0.09083 0.0
H332 H 0.1386 0.15086 0.07821 0.0
C333 C 0.10362 0.19582 0.09313 0.0
C334 C 0.13317 0.1811 0.07694 0.0
H335 H 0.08791 0.17658 0.10655 0.0
H336 H 0.21484 0.12929 0.94524 0.0
H337 H 0.18831 0.16684 0.98266 0.0
H338 H 0.24705 0.09668 0.04281 0.0
H339 H 0.27334 0.05843 0.00499 0.0
H340 H 0.19445 0.13865 0.05881 0.0
H341 H 0.18551 0.2062 0.01897 0.0
H342 H 0.15861 0.26228 0.04264 0.0
H343 H 0.10697 0.28803 0.07094 0.0
C344 C 0.06786 0.75823 -0.00272 0.0
C345 C 0.07426 0.75795 0.02614 0.0
C346 C 0.09396 0.77575 0.97934 0.0
C347 C 0.12697 0.79349 0.98996 0.0
C348 C 0.13428 0.79128 0.01862 0.0
C349 C 0.10819 0.77388 0.03653 0.0
C350 C 0.15356 0.81617 0.97241 0.0
C351 C 0.14342 0.83257 0.94817 0.0
C352 C 0.16731 0.86149 0.93373 0.0
C353 C 0.16144 0.86818 0.90525 0.0
C354 C 0.18031 0.89805 0.89171 0.0
C355 C 0.20505 0.9222 0.90653 0.0
H356 H 0.19748 0.88179 0.97045 0.0
C357 C 0.21165 0.91494 0.93486 0.0
C358 C 0.19297 0.88505 0.94833 0.0
H359 H 0.23045 0.93308 0.94691 0.0
H360 H 0.04223 0.74574 0.98857 0.0
H361 H 0.08786 0.77555 0.9573 0.0
H362 H 0.15963 0.80433 0.02737 0.0
H363 H 0.11422 0.77384 0.05862 0.0
H364 H 0.18157 0.82207 0.98106 0.0
H365 H 0.11576 0.8265 0.93907 0.0
H366 H 0.14157 0.85073 0.89357 0.0
H367 H 0.17452 0.90296 0.86988 0.0
C368 C 0.76942 0.94212 0.97692 0.0
C369 C 0.77271 0.93717 0.94802 0.0
C370 C 0.78554 0.91575 0.99526 0.0
C371 C 0.80512 0.8837 0.98499 0.0
C372 C 0.80734 0.87833 0.95611 0.0
C373 C 0.7913 0.90465 0.93783 0.0
C374 C 0.82634 0.85688 0.00321 0.0
C375 C 0.8218 0.85396 0.03098 0.0
C376 C 0.84718 0.83004 0.04851 0.0
C377 C 0.85391 0.84077 0.07622 0.0
C378 C 0.88093 0.82149 0.09232 0.0
C379 C 0.90166 0.79105 0.08094 0.0
H380 H 0.86033 0.78741 0.0171 0.0
C381 C 0.89317 0.77879 0.05383 0.0
C382 C 0.86601 0.79782 0.03787 0.0
H383 H 0.90807 0.75487 0.04468 0.0
H384 H 0.75536 0.96696 0.98542 0.0
H385 H 0.78372 0.92158 0.01728 0.0
H386 H 0.82229 0.85401 0.94757 0.0
H387 H 0.79427 0.89988 0.91568 0.0
H388 H 0.84799 0.83979 0.99302 0.0
H389 H 0.80083 0.87132 0.0416 0.0
H390 H 0.83939 0.86513 0.08508 0.0
H391 H 0.88664 0.83143 0.11323 0.0
C392 C 0.06364 0.18058 0.6971 0.0
C393 C 0.04322 0.15865 0.67768 0.0
C394 C 0.07739 0.16408 0.72151 0.0
C395 C 0.07097 0.12526 0.72704 0.0
C396 C 0.04911 0.10375 0.70828 0.0
C397 C 0.03561 0.12019 0.68369 0.0
C398 C 0.08702 0.10661 0.7521 0.0
C399 C 0.12119 0.11668 0.76261 0.0
C400 C 0.13893 0.09795 0.78702 0.0
C401 C 0.17879 0.09873 0.78952 0.0
C402 C 0.19669 0.08274 0.81264 0.0
C403 C 0.17501 0.06611 0.83404 0.0
H404 H 0.08629 0.08073 0.80741 0.0
C405 C 0.13506 0.06529 0.83159 0.0
C406 C 0.11714 0.08102 0.80829 0.0
H407 H 0.11756 0.05284 0.8478 0.0
H408 H 0.06967 0.21039 0.69325 0.0
H409 H 0.09306 0.18179 0.736 0.0
H410 H 0.04339 0.0739 0.71227 0.0
H411 H 0.01967 0.10262 0.66926 0.0
H412 H 0.07169 0.08241 0.76072 0.0
H413 H 0.13801 0.1383 0.75201 0.0
H414 H 0.19621 0.11182 0.77351 0.0
H415 H 0.22752 0.08401 0.81392 0.0
C416 C 0.0449 0.8491 0.16667 0.0
C417 C 0.04151 0.80947 0.16331 0.0
C418 C 0.06147 0.8643 0.19069 0.0
C419 C 0.0751 0.84006 0.21175 0.0
C420 C 0.07119 0.80055 0.20852 0.0
C421 C 0.05428 0.78538 0.18469 0.0
C422 C 0.09602 0.85473 0.23629 0.0
C423 C 0.09039 0.88949 0.2473 0.0
C424 C 0.11282 0.9032 0.27143 0.0
C425 C 0.09538 0.92628 0.29154 0.0
C426 C 0.11582 0.93834 0.31493 0.0
C427 C 0.15432 0.92816 0.31827 0.0
H428 H 0.16615 0.87699 0.25887 0.0
C429 C 0.17209 0.90621 0.29759 0.0
C430 C 0.15156 0.89378 0.27445 0.0
H431 H 0.20178 0.8981 0.29944 0.0
H432 H 0.03541 0.86839 0.15052 0.0
H433 H 0.06481 0.89488 0.19219 0.0
H434 H 0.08166 0.78128 0.22437 0.0
H435 H 0.05221 0.75471 0.18273 0.0
H436 H 0.11613 0.8355 0.24621 0.0
H437 H 0.06767 0.90753 0.23947 0.0
H438 H 0.06568 0.93426 0.28945 0.0
H439 H 0.10145 0.95552 0.33041 0.0
C440 C 0.93362 0.85874 0.67147 0.0
C441 C 0.92117 0.82123 0.66665 0.0
C442 C 0.91762 0.88041 0.69285 0.0
C443 C 0.88874 0.86498 0.70978 0.0
C444 C 0.8762 0.8276 0.70486 0.0
C445 C 0.89244 0.80581 0.68368 0.0
C446 C 0.8701 0.88741 0.73205 0.0
C447 C 0.88781 0.91547 0.74614 0.0
C448 C 0.86902 0.93592 0.76933 0.0
C449 C 0.89083 0.9474 0.79231 0.0
C450 C 0.87333 0.96428 0.81531 0.0
C451 C 0.83375 0.97064 0.81548 0.0
H452 H 0.81228 0.93623 0.75121 0.0
C453 C 0.81225 0.96094 0.79184 0.0
C454 C 0.82968 0.94366 0.76901 0.0
H455 H 0.78175 0.96574 0.79123 0.0
H456 H 0.95556 0.8715 0.6586 0.0
H457 H 0.92731 0.90947 0.69558 0.0
H458 H 0.85381 0.81516 0.7175 0.0
H459 H 0.88204 0.77708 0.68039 0.0
H460 H 0.84148 0.87884 0.73818 0.0
H461 H 0.91772 0.92157 0.74218 0.0
H462 H 0.92127 0.94214 0.79286 0.0
H463 H 0.89071 0.97175 0.83312 0.0
C464 C 0.80898 0.05094 0.31341 0.0
C465 C 0.82106 0.05015 0.34126 0.0
C466 C 0.8327 0.06578 0.29272 0.0
C467 C 0.86912 0.08005 0.29945 0.0
C468 C 0.88125 0.07898 0.32724 0.0
C469 C 0.85761 0.06394 0.34792 0.0
C470 C 0.89385 0.0987 0.2784 0.0
C471 C 0.89216 0.09048 0.25109 0.0
C472 C 0.91398 0.11168 0.22961 0.0
C473 C 0.92102 0.09411 0.20392 0.0
C474 C 0.93862 0.11423 0.18236 0.0
C475 C 0.94912 0.15257 0.18596 0.0
H476 H 0.91938 0.16479 0.25261 0.0
C477 C 0.9427 0.17001 0.21183 0.0
C478 C 0.92525 0.14984 0.23342 0.0
H479 H 0.95029 0.19957 0.21522 0.0
H480 H 0.78091 0.04069 0.30762 0.0
H481 H 0.82182 0.06714 0.27169 0.0
H482 H 0.909 0.09011 0.33302 0.0
H483 H 0.86773 0.06386 0.3692 0.0
H484 H 0.91443 0.1195 0.28585 0.0
H485 H 0.87435 0.06703 0.24403 0.0
H486 H 0.91237 0.06486 0.20037 0.0
H487 H 0.94307 0.09996 0.16266 0.0
loop_
_geom_bond_atom_site_label_1
_geom_bond_atom_site_label_2
_geom_bond_distance
_geom_bond_site_symmetry_2
_ccdc_geom_bond_type
C0 O1 1.160 . S
C0 O7 1.185 . S
O1 C0 1.160 . S
O2 Zn3 1.899 . S
O2 C10 1.284 1_455 S
Zn3 O2 1.899 . S
Zn3 O4 2.032 . S
Zn3 O7 2.086 . S
Zn3 O12 1.977 . S
O4 Zn3 2.032 . S
O4 C8 1.278 . S
C5 O6 1.203 . S
C5 O12 1.267 . S
O6 C5 1.203 . S
O7 C0 1.185 . S
O7 Zn3 2.086 . S
C8 O4 1.278 . S
C8 O9 1.211 . S
O9 C8 1.211 . S
C10 O2 1.284 1_655 S
C10 O11 1.273 . S
O11 C10 1.273 . S
O12 Zn3 1.977 . S
O12 C5 1.267 . S
C13 O14 1.160 . S
C13 O20 1.185 . S
O14 C13 1.160 . S
O15 Zn16 1.899 . S
O15 C23 1.284 1_565 S
Zn16 O15 1.899 . S
Zn16 O17 2.032 . S
Zn16 O20 2.086 . S
Zn16 O25 1.977 . S
O17 Zn16 2.032 . S
O17 C21 1.278 . S
C18 O19 1.203 . S
C18 O25 1.267 . S
O19 C18 1.203 . S
O20 C13 1.185 . S
O20 Zn16 2.086 . S
C21 O17 1.278 . S
C21 O22 1.211 . S
O22 C21 1.211 . S
C23 O15 1.284 1_545 S
C23 O24 1.273 . S
O24 C23 1.273 . S
O25 Zn16 1.977 . S
O25 C18 1.267 . S
C26 O27 1.160 . S
C26 O33 1.185 . S
O27 C26 1.160 . S
O28 Zn29 1.899 . S
O28 C36 1.284 1_655 S
Zn29 O28 1.899 . S
Zn29 O30 2.032 . S
Zn29 O33 2.086 . S
Zn29 O38 1.977 . S
O30 Zn29 2.032 . S
O30 C34 1.278 . S
C31 O32 1.203 . S
C31 O38 1.267 . S
O32 C31 1.203 . S
O33 C26 1.185 . S
O33 Zn29 2.086 . S
C34 O30 1.278 . S
C34 O35 1.211 . S
O35 C34 1.211 . S
C36 O28 1.284 1_455 S
C36 O37 1.273 . S
O37 C36 1.273 . S
O38 Zn29 1.977 . S
O38 C31 1.267 . S
C39 O40 1.160 . S
C39 O46 1.185 . S
O40 C39 1.160 . S
O41 Zn42 1.899 . S
O41 C49 1.284 1_545 S
Zn42 O41 1.899 . S
Zn42 O43 2.032 . S
Zn42 O46 2.086 . S
Zn42 O51 1.977 . S
O43 Zn42 2.032 . S
O43 C47 1.278 . S
C44 O45 1.203 . S
C44 O51 1.267 . S
O45 C44 1.203 . S
O46 C39 1.185 . S
O46 Zn42 2.086 . S
C47 O43 1.278 . S
C47 O48 1.211 . S
O48 C47 1.211 . S
C49 O41 1.284 1_565 S
C49 O50 1.273 . S
O50 C49 1.273 . S
O51 Zn42 1.977 . S
O51 C44 1.267 . S
C52 O53 1.160 . S
C52 O59 1.185 . S
O53 C52 1.160 . S
O54 Zn55 1.899 . S
O54 C62 1.284 1_655 S
Zn55 O54 1.899 . S
Zn55 O56 2.032 . S
Zn55 O59 2.086 . S
Zn55 O64 1.977 . S
O56 Zn55 2.032 . S
O56 C60 1.278 . S
C57 O58 1.203 . S
C57 O64 1.267 . S
O58 C57 1.203 . S
O59 C52 1.185 . S
O59 Zn55 2.086 . S
C60 O56 1.278 . S
C60 O61 1.211 . S
O61 C60 1.211 . S
C62 O54 1.284 1_455 S
C62 O63 1.273 . S
O63 C62 1.273 . S
O64 Zn55 1.977 . S
O64 C57 1.267 . S
C65 O66 1.160 . S
C65 O72 1.185 . S
O66 C65 1.160 . S
O67 Zn68 1.899 . S
O67 C75 1.284 1_545 S
Zn68 O67 1.899 . S
Zn68 O69 2.032 . S
Zn68 O72 2.086 . S
Zn68 O77 1.977 . S
O69 Zn68 2.032 . S
O69 C73 1.278 . S
C70 O71 1.203 . S
C70 O77 1.267 . S
O71 C70 1.203 . S
O72 C65 1.185 . S
O72 Zn68 2.086 . S
C73 O69 1.278 . S
C73 O74 1.211 . S
O74 C73 1.211 . S
C75 O67 1.284 1_565 S
C75 O76 1.273 . S
O76 C75 1.273 . S
O77 Zn68 1.977 . S
O77 C70 1.267 . S
C78 O79 1.160 . S
C78 O85 1.185 . S
O79 C78 1.160 . S
O80 Zn81 1.899 . S
O80 C88 1.284 1_455 S
Zn81 O80 1.899 . S
Zn81 O82 2.032 . S
Zn81 O85 2.086 . S
Zn81 O90 1.977 . S
O82 Zn81 2.032 . S
O82 C86 1.278 . S
C83 O84 1.203 . S
C83 O90 1.267 . S
O84 C83 1.203 . S
O85 C78 1.185 . S
O85 Zn81 2.086 . S
C86 O82 1.278 . S
C86 O87 1.211 . S
O87 C86 1.211 . S
C88 O80 1.284 1_655 S
C88 O89 1.273 . S
O89 C88 1.273 . S
O90 Zn81 1.977 . S
O90 C83 1.267 . S
C91 O92 1.160 . S
C91 O98 1.185 . S
O92 C91 1.160 . S
O93 Zn94 1.899 . S
O93 C101 1.284 1_565 S
Zn94 O93 1.899 . S
Zn94 O95 2.032 . S
Zn94 O98 2.086 . S
Zn94 O103 1.977 . S
O95 Zn94 2.032 . S
O95 C99 1.278 . S
C96 O97 1.203 . S
C96 O103 1.267 . S
O97 C96 1.203 . S
O98 C91 1.185 . S
O98 Zn94 2.086 . S
C99 O95 1.278 . S
C99 O100 1.211 . S
O100 C99 1.211 . S
C101 O93 1.284 1_545 S
C101 O102 1.273 . S
O102 C101 1.273 . S
O103 Zn94 1.977 . S
O103 C96 1.267 . S
C104 C105 1.386 . S
C104 C106 1.383 1_655 S
C104 H120 0.951 1_655 S
C105 C104 1.386 . S
C105 C109 1.383 . S
C106 C104 1.383 1_455 S
C106 C107 1.402 1_455 S
C106 H121 0.951 . S
C107 C106 1.402 1_655 S
C107 C108 1.375 . S
C107 C110 1.481 . S
C108 C107 1.375 . S
C108 C109 1.367 . S
C108 H122 0.951 . S
C109 C105 1.383 . S
C109 C108 1.367 . S
C109 H123 0.950 . S
C110 C107 1.481 . S
C110 C111 1.297 1_655 S
C110 H124 0.950 . S
C111 C110 1.297 1_455 S
C111 C112 1.479 . S
C111 H125 0.950 . S
C112 C111 1.479 . S
C112 C113 1.375 . S
C112 C118 1.404 . S
C113 C112 1.375 . S
C113 C114 1.369 . S
C113 H126 0.950 . S
C114 C113 1.369 . S
C114 C115 1.392 . S
C114 H127 0.951 . S
C115 C114 1.392 . S
C115 C117 1.384 . S
H116 C118 0.949 1_655 S
C117 C115 1.384 . S
C117 C118 1.385 . S
C117 H119 0.950 . S
C118 C112 1.404 . S
C118 H116 0.949 1_455 S
C118 C117 1.385 . S
H119 C117 0.950 . S
H120 C104 0.951 1_455 S
H121 C106 0.951 . S
H122 C108 0.951 . S
H123 C109 0.950 . S
H124 C110 0.950 . S
H125 C111 0.950 . S
H126 C113 0.950 . S
H127 C114 0.951 . S
C128 C129 1.386 . S
C128 C130 1.383 . S
C128 H144 0.951 . S
C129 C128 1.386 . S
C129 C133 1.383 1_545 S
C130 C128 1.383 . S
C130 C131 1.402 . S
C130 H145 0.951 . S
C131 C130 1.402 . S
C131 C132 1.375 1_545 S
C131 C134 1.481 1_545 S
C132 C131 1.375 1_565 S
C132 C133 1.367 . S
C132 H146 0.951 . S
C133 C129 1.383 1_565 S
C133 C132 1.367 . S
C133 H147 0.950 . S
C134 C131 1.481 1_565 S
C134 C135 1.297 1_565 S
C134 H148 0.950 . S
C135 C134 1.297 1_545 S
C135 C136 1.479 1_545 S
C135 H149 0.950 . S
C136 C135 1.479 1_565 S
C136 C137 1.375 1_565 S
C136 C142 1.404 . S
C137 C136 1.375 1_545 S
C137 C138 1.369 1_545 S
C137 H150 0.950 . S
C138 C137 1.369 1_565 S
C138 C139 1.392 . S
C138 H151 0.951 1_565 S
C139 C138 1.392 . S
C139 C141 1.384 . S
H140 C142 0.949 . S
C141 C139 1.384 . S
C141 C142 1.385 . S
C141 H143 0.950 . S
C142 C136 1.404 . S
C142 H140 0.949 . S
C142 C141 1.385 . S
H143 C141 0.950 . S
H144 C128 0.951 . S
H145 C130 0.951 . S
H146 C132 0.951 . S
H147 C133 0.950 . S
H148 C134 0.950 . S
H149 C135 0.950 . S
H150 C137 0.950 . S
H151 C138 0.951 1_545 S
C152 C153 1.386 . S
C152 C154 1.383 . S
C152 H168 0.951 . S
C153 C152 1.386 . S
C153 C157 1.383 . S
C154 C152 1.383 . S
C154 C155 1.402 . S
C154 H169 0.951 . S
C155 C154 1.402 . S
C155 C156 1.375 . S
C155 C158 1.481 . S
C156 C155 1.375 . S
C156 C157 1.367 . S
C156 H170 0.951 . S
C157 C153 1.383 . S
C157 C156 1.367 . S
C157 H171 0.950 . S
C158 C155 1.481 . S
C158 C159 1.297 . S
C158 H172 0.950 . S
C159 C158 1.297 . S
C159 C160 1.476 1_655 S
C159 H173 0.950 . S
C160 C159 1.476 1_455 S
C160 C161 1.377 . S
C160 C166 1.407 . S
C161 C160 1.377 . S
C161 C162 1.369 . S
C161 H174 0.950 1_455 S
C162 C161 1.369 . S
C162 C163 1.392 . S
C162 H175 0.951 . S
C163 C162 1.392 . S
C163 C165 1.384 . S
H164 C166 0.949 . S
C165 C163 1.384 . S
C165 C166 1.385 . S
C165 H167 0.950 . S
C166 C160 1.407 . S
C166 H164 0.949 . S
C166 C165 1.385 . S
H167 C165 0.950 . S
H168 C152 0.951 . S
H169 C154 0.951 . S
H170 C156 0.951 . S
H171 C157 0.950 . S
H172 C158 0.950 . S
H173 C159 0.950 . S
H174 C161 0.950 1_655 S
H175 C162 0.951 . S
C176 C177 1.386 . S
C176 C178 1.383 . S
C176 H192 0.951 . S
C177 C176 1.386 . S
C177 C181 1.383 . S
C178 C176 1.383 . S
C178 C179 1.402 . S
C178 H193 0.951 . S
C179 C178 1.402 . S
C179 C180 1.375 . S
C179 C182 1.481 . S
C180 C179 1.375 . S
C180 C181 1.367 . S
C180 H194 0.951 1_545 S
C181 C177 1.383 . S
C181 C180 1.367 . S
C181 H195 0.950 . S
C182 C179 1.481 . S
C182 C183 1.297 . S
C182 H196 0.950 1_545 S
C183 C182 1.297 . S
C183 C184 1.479 1_545 S
C183 H197 0.950 . S
C184 C183 1.479 1_565 S
C184 C185 1.375 1_565 S
C184 C190 1.404 . S
C185 C184 1.375 1_545 S
C185 C186 1.369 1_545 S
C185 H198 0.950 . S
C186 C185 1.369 1_565 S
C186 C187 1.392 . S
C186 H199 0.951 . S
C187 C186 1.392 . S
C187 C189 1.384 . S
H188 C190 0.949 . S
C189 C187 1.384 . S
C189 C190 1.385 . S
C189 H191 0.950 . S
C190 C184 1.404 . S
C190 H188 0.949 . S
C190 C189 1.385 . S
H191 C189 0.950 . S
H192 C176 0.951 . S
H193 C178 0.951 . S
H194 C180 0.951 1_565 S
H195 C181 0.950 . S
H196 C182 0.950 1_565 S
H197 C183 0.950 . S
H198 C185 0.950 . S
H199 C186 0.951 . S
C200 C201 1.386 . S
C200 C202 1.383 . S
C200 H216 0.951 . S
C201 C200 1.386 . S
C201 C205 1.383 . S
C202 C200 1.383 . S
C202 C203 1.402 . S
C202 H217 0.951 . S
C203 C202 1.402 . S
C203 C204 1.375 . S
C203 C206 1.481 . S
C204 C203 1.375 . S
C204 C205 1.367 . S
C204 H218 0.951 . S
C205 C201 1.383 . S
C205 C204 1.367 . S
C205 H219 0.950 . S
C206 C203 1.481 . S
C206 C207 1.297 . S
C206 H220 0.950 . S
C207 C206 1.297 . S
C207 C208 1.479 . S
C207 H221 0.950 . S
C208 C207 1.479 . S
C208 C209 1.375 . S
C208 C214 1.404 . S
C209 C208 1.375 . S
C209 C210 1.369 . S
C209 H222 0.950 . S
C210 C209 1.369 . S
C210 C211 1.392 . S
C210 H223 0.951 . S
C211 C210 1.392 . S
C211 C213 1.384 . S
H212 C214 0.949 . S
C213 C211 1.384 . S
C213 C214 1.385 . S
C213 H215 0.950 . S
C214 C208 1.404 . S
C214 H212 0.949 . S
C214 C213 1.385 . S
H215 C213 0.950 . S
H216 C200 0.951 . S
H217 C202 0.951 . S
H218 C204 0.951 . S
H219 C205 0.950 . S
H220 C206 0.950 . S
H221 C207 0.950 . S
H222 C209 0.950 . S
H223 C210 0.951 . S
C224 C225 1.386 . S
C224 C226 1.383 . S
C224 H240 0.951 . S
C225 C224 1.386 . S
C225 C229 1.383 . S
C226 C224 1.383 . S
C226 C227 1.402 . S
C226 H241 0.951 . S
C227 C226 1.402 . S
C227 C228 1.375 . S
C227 C230 1.481 . S
C228 C227 1.375 . S
C228 C229 1.367 . S
C228 H242 0.951 . S
C229 C225 1.383 . S
C229 C228 1.367 . S
C229 H243 0.950 . S
C230 C227 1.481 . S
C230 C231 1.297 . S
C230 H244 0.950 . S
C231 C230 1.297 . S
C231 C232 1.479 . S
C231 H245 0.950 . S
C232 C231 1.479 . S
C232 C233 1.375 . S
C232 C238 1.404 . S
C233 C232 1.375 . S
C233 C234 1.369 . S
C233 H246 0.950 . S
C234 C233 1.369 . S
C234 C235 1.392 . S
C234 H247 0.951 1_455 S
C235 C234 1.392 . S
C235 C237 1.384 . S
H236 C238 0.949 . S
C237 C235 1.384 . S
C237 C238 1.385 . S
C237 H239 0.950 . S
C238 C232 1.404 . S
C238 H236 0.949 . S
C238 C237 1.385 . S
H239 C237 0.950 . S
H240 C224 0.951 . S
H241 C226 0.951 . S
H242 C228 0.951 . S
H243 C229 0.950 . S
H244 C230 0.950 . S
H245 C231 0.950 . S
H246 C233 0.950 . S
H247 C234 0.951 1_655 S
C248 C249 1.386 . S
C248 C250 1.383 . S
C248 H264 0.951 . S
C249 C248 1.386 . S
C249 C253 1.383 . S
C250 C248 1.383 . S
C250 C251 1.402 . S
C250 H265 0.951 . S
C251 C250 1.402 . S
C251 C252 1.375 . S
C251 C254 1.481 . S
C252 C251 1.375 . S
C252 C253 1.367 . S
C252 H266 0.951 . S
C253 C249 1.383 . S
C253 C252 1.367 . S
C253 H267 0.950 . S
C254 C251 1.481 . S
C254 C255 1.297 . S
C254 H268 0.950 . S
C255 C254 1.297 . S
C255 C256 1.479 . S
C255 H269 0.950 . S
C256 C255 1.479 . S
C256 C257 1.375 . S
C256 C262 1.404 . S
C257 C256 1.375 . S
C257 C258 1.369 . S
C257 H270 0.950 . S
C258 C257 1.369 . S
C258 C259 1.392 . S
C258 H271 0.951 . S
C259 C258 1.392 . S
C259 C261 1.384 . S
H260 C262 0.949 . S
C261 C259 1.384 . S
C261 C262 1.385 . S
C261 H263 0.950 . S
C262 C256 1.404 . S
C262 H260 0.949 . S
C262 C261 1.385 . S
H263 C261 0.950 . S
H264 C248 0.951 . S
H265 C250 0.951 . S
H266 C252 0.951 . S
H267 C253 0.950 . S
H268 C254 0.950 . S
H269 C255 0.950 . S
H270 C257 0.950 . S
H271 C258 0.951 . S
C272 C273 1.386 . S
C272 C274 1.383 . S
C272 H288 0.951 . S
C273 C272 1.386 . S
C273 C277 1.383 . S
C274 C272 1.383 . S
C274 C275 1.402 . S
C274 H289 0.951 . S
C275 C274 1.402 . S
C275 C276 1.375 . S
C275 C278 1.481 . S
C276 C275 1.375 . S
C276 C277 1.367 . S
C276 H290 0.951 . S
C277 C273 1.383 . S
C277 C276 1.367 . S
C277 H291 0.950 . S
C278 C275 1.481 . S
C278 C279 1.297 . S
C278 H292 0.950 . S
C279 C278 1.297 . S
C279 C280 1.479 . S
C279 H293 0.950 . S
C280 C279 1.479 . S
C280 C281 1.375 . S
C280 C286 1.404 . S
C281 C280 1.375 . S
C281 C282 1.369 . S
C281 H294 0.950 . S
C282 C281 1.369 . S
C282 C283 1.392 . S
C282 H295 0.951 . S
C283 C282 1.392 . S
C283 C285 1.384 . S
H284 C286 0.949 . S
C285 C283 1.384 . S
C285 C286 1.385 . S
C285 H287 0.944 1_655 S
C286 C280 1.404 . S
C286 H284 0.949 . S
C286 C285 1.385 . S
H287 C285 0.944 1_455 S
H288 C272 0.951 . S
H289 C274 0.951 . S
H290 C276 0.951 . S
H291 C277 0.950 . S
H292 C278 0.950 . S
H293 C279 0.950 . S
H294 C281 0.950 . S
H295 C282 0.951 . S
C296 C297 1.386 . S
C296 C298 1.383 . S
C296 H312 0.951 1_545 S
C297 C296 1.386 . S
C297 C301 1.383 . S
C298 C296 1.383 . S
C298 C299 1.402 . S
C298 H313 0.951 . S
C299 C298 1.402 . S
C299 C300 1.375 . S
C299 C302 1.481 . S
C300 C299 1.375 . S
C300 C301 1.367 . S
C300 H314 0.951 . S
C301 C297 1.383 . S
C301 C300 1.367 . S
C301 H315 0.950 . S
C302 C299 1.481 . S
C302 C303 1.297 . S
C302 H316 0.950 . S
C303 C302 1.297 . S
C303 C304 1.479 1_556 S
C303 H317 0.950 . S
C304 C303 1.479 1_554 S
C304 C305 1.375 . S
C304 C310 1.404 . S
C305 C304 1.375 . S
C305 C306 1.369 . S
C305 H318 0.950 . S
C306 C305 1.369 . S
C306 C307 1.392 . S
C306 H319 0.951 . S
C307 C306 1.392 . S
C307 C309 1.384 . S
H308 C310 0.949 1_556 S
C309 C307 1.384 . S
C309 C310 1.385 . S
C309 H311 0.950 . S
C310 C304 1.404 . S
C310 H308 0.949 1_554 S
C310 C309 1.385 . S
H311 C309 0.950 . S
H312 C296 0.951 1_565 S
H313 C298 0.951 . S
H314 C300 0.951 . S
H315 C301 0.950 . S
H316 C302 0.950 . S
H317 C303 0.950 . S
H318 C305 0.950 . S
H319 C306 0.951 . S
C320 C321 1.386 . S
C320 C322 1.383 . S
C320 H336 0.951 . S
C321 C320 1.386 . S
C321 C325 1.383 . S
C322 C320 1.383 . S
C322 C323 1.402 . S
C322 H337 0.951 . S
C323 C322 1.402 . S
C323 C324 1.375 . S
C323 C326 1.481 . S
C324 C323 1.375 . S
C324 C325 1.367 . S
C324 H338 0.951 . S
C325 C321 1.383 . S
C325 C324 1.367 . S
C325 H339 0.950 . S
C326 C323 1.481 . S
C326 C327 1.297 1_556 S
C326 H340 0.949 1_556 S
C327 C326 1.297 1_554 S
C327 C328 1.479 . S
C327 H341 0.950 . S
C328 C327 1.479 . S
C328 C329 1.375 . S
C328 C334 1.404 . S
C329 C328 1.375 . S
C329 C330 1.369 . S
C329 H342 0.950 . S
C330 C329 1.369 . S
C330 C331 1.392 . S
C330 H343 0.951 . S
C331 C330 1.392 . S
C331 C333 1.384 . S
H332 C334 0.949 . S
C333 C331 1.384 . S
C333 C334 1.385 . S
C333 H335 0.950 1_455 S
C334 C328 1.404 . S
C334 H332 0.949 . S
C334 C333 1.385 . S
H335 C333 0.950 1_655 S
H336 C320 0.951 . S
H337 C322 0.951 . S
H338 C324 0.951 . S
H339 C325 0.950 . S
H340 C326 0.949 1_554 S
H341 C327 0.950 . S
H342 C329 0.950 . S
H343 C330 0.951 . S
C344 C345 1.386 . S
C344 C346 1.383 . S
C344 H360 0.951 . S
C345 C344 1.386 . S
C345 C349 1.383 . S
C346 C344 1.383 . S
C346 C347 1.402 . S
C346 H361 0.951 . S
C347 C346 1.402 . S
C347 C348 1.375 . S
C347 C350 1.481 . S
C348 C347 1.375 . S
C348 C349 1.367 . S
C348 H362 0.951 . S
C349 C345 1.383 . S
C349 C348 1.367 . S
C349 H363 0.950 . S
C350 C347 1.481 . S
C350 C351 1.297 1_554 S
C350 H364 0.950 . S
C351 C350 1.297 1_556 S
C351 C352 1.479 . S
C351 H365 0.950 . S
C352 C351 1.479 . S
C352 C353 1.375 . S
C352 C358 1.404 . S
C353 C352 1.375 . S
C353 C354 1.369 . S
C353 H366 0.950 . S
C354 C353 1.369 . S
C354 C355 1.392 . S
C354 H367 0.951 . S
C355 C354 1.392 . S
C355 C357 1.384 . S
H356 C358 0.949 . S
C357 C355 1.384 . S
C357 C358 1.385 . S
C357 H359 0.950 . S
C358 C352 1.404 . S
C358 H356 0.949 . S
C358 C357 1.385 . S
H359 C357 0.950 . S
H360 C344 0.951 . S
H361 C346 0.951 . S
H362 C348 0.951 . S
H363 C349 0.950 . S
H364 C350 0.950 . S
H365 C351 0.950 . S
H366 C353 0.950 . S
H367 C354 0.951 . S
C368 C369 1.386 . S
C368 C370 1.383 . S
C368 H384 0.951 . S
C369 C368 1.386 . S
C369 C373 1.383 . S
C370 C368 1.383 . S
C370 C371 1.402 . S
C370 H385 0.951 1_556 S
C371 C370 1.402 . S
C371 C372 1.375 . S
C371 C374 1.481 1_556 S
C372 C371 1.375 . S
C372 C373 1.367 . S
C372 H386 0.951 . S
C373 C369 1.383 . S
C373 C372 1.367 . S
C373 H387 0.950 . S
C374 C371 1.481 1_554 S
C374 C375 1.297 . S
C374 H388 0.950 . S
C375 C374 1.297 . S
C375 C376 1.479 . S
C375 H389 0.950 . S
C376 C375 1.479 . S
C376 C377 1.375 . S
C376 C382 1.404 . S
C377 C376 1.375 . S
C377 C378 1.369 . S
C377 H390 0.950 . S
C378 C377 1.369 . S
C378 C379 1.392 . S
C378 H391 0.951 . S
C379 C378 1.392 . S
C379 C381 1.384 . S
H380 C382 0.949 . S
C381 C379 1.384 . S
C381 C382 1.385 . S
C381 H383 0.950 . S
C382 C376 1.404 . S
C382 H380 0.949 . S
C382 C381 1.385 . S
H383 C381 0.950 . S
H384 C368 0.951 . S
H385 C370 0.951 1_554 S
H386 C372 0.951 . S
H387 C373 0.950 . S
H388 C374 0.950 . S
H389 C375 0.950 . S
H390 C377 0.950 . S
H391 C378 0.951 . S
C392 C393 1.386 . S
C392 C394 1.383 . S
C392 H408 0.951 . S
C393 C392 1.386 . S
C393 C397 1.383 . S
C394 C392 1.383 . S
C394 C395 1.402 . S
C394 H409 0.951 . S
C395 C394 1.402 . S
C395 C396 1.375 . S
C395 C398 1.481 . S
C396 C395 1.375 . S
C396 C397 1.367 . S
C396 H410 0.951 . S
C397 C393 1.383 . S
C397 C396 1.367 . S
C397 H411 0.950 . S
C398 C395 1.481 . S
C398 C399 1.297 . S
C398 H412 0.950 . S
C399 C398 1.297 . S
C399 C400 1.479 . S
C399 H413 0.950 . S
C400 C399 1.479 . S
C400 C401 1.375 . S
C400 C406 1.404 . S
C401 C400 1.375 . S
C401 C402 1.369 . S
C401 H414 0.950 . S
C402 C401 1.369 . S
C402 C403 1.392 . S
C402 H415 0.951 . S
C403 C402 1.392 . S
C403 C405 1.384 . S
H404 C406 0.949 . S
C405 C403 1.384 . S
C405 C406 1.385 . S
C405 H407 0.950 . S
C406 C400 1.404 . S
C406 H404 0.949 . S
C406 C405 1.385 . S
H407 C405 0.950 . S
H408 C392 0.951 . S
H409 C394 0.951 . S
H410 C396 0.951 . S
H411 C397 0.950 . S
H412 C398 0.950 . S
H413 C399 0.950 . S
H414 C401 0.950 . S
H415 C402 0.951 . S
C416 C417 1.386 . S
C416 C418 1.383 . S
C416 H432 0.951 . S
C417 C416 1.386 . S
C417 C421 1.383 . S
C418 C416 1.383 . S
C418 C419 1.402 . S
C418 H433 0.951 . S
C419 C418 1.402 . S
C419 C420 1.375 . S
C419 C422 1.481 . S
C420 C419 1.375 . S
C420 C421 1.367 . S
C420 H434 0.951 . S
C421 C417 1.383 . S
C421 C420 1.367 . S
C421 H435 0.950 . S
C422 C419 1.481 . S
C422 C423 1.297 . S
C422 H436 0.950 . S
C423 C422 1.297 . S
C423 C424 1.479 . S
C423 H437 0.950 . S
C424 C423 1.479 . S
C424 C425 1.375 . S
C424 C430 1.404 . S
C425 C424 1.375 . S
C425 C426 1.369 . S
C425 H438 0.950 . S
C426 C425 1.369 . S
C426 C427 1.392 . S
C426 H439 0.951 . S
C427 C426 1.392 . S
C427 C429 1.384 . S
H428 C430 0.949 . S
C429 C427 1.384 . S
C429 C430 1.385 . S
C429 H431 0.950 . S
C430 C424 1.404 . S
C430 H428 0.949 . S
C430 C429 1.385 . S
H431 C429 0.950 . S
H432 C416 0.951 . S
H433 C418 0.951 . S
H434 C420 0.951 . S
H435 C421 0.950 . S
H436 C422 0.950 . S
H437 C423 0.950 . S
H438 C425 0.950 . S
H439 C426 0.951 . S
C440 C441 1.386 . S
C440 C442 1.383 . S
C440 H456 0.951 . S
C441 C440 1.386 . S
C441 C445 1.383 . S
C442 C440 1.383 . S
C442 C443 1.402 . S
C442 H457 0.951 . S
C443 C442 1.402 . S
C443 C444 1.375 . S
C443 C446 1.481 . S
C444 C443 1.375 . S
C444 C445 1.367 . S
C444 H458 0.951 . S
C445 C441 1.383 . S
C445 C444 1.367 . S
C445 H459 0.950 . S
C446 C443 1.481 . S
C446 C447 1.297 . S
C446 H460 0.950 . S
C447 C446 1.297 . S
C447 C448 1.479 . S
C447 H461 0.950 . S
C448 C447 1.479 . S
C448 C449 1.375 . S
C448 C454 1.404 . S
C449 C448 1.375 . S
C449 C450 1.369 . S
C449 H462 0.950 . S
C450 C449 1.369 . S
C450 C451 1.392 . S
C450 H463 0.951 . S
C451 C450 1.392 . S
C451 C453 1.384 . S
H452 C454 0.949 . S
C453 C451 1.384 . S
C453 C454 1.385 . S
C453 H455 0.950 . S
C454 C448 1.404 . S
C454 H452 0.949 . S
C454 C453 1.385 . S
H455 C453 0.950 . S
H456 C440 0.951 . S
H457 C442 0.951 . S
H458 C444 0.951 . S
H459 C445 0.950 . S
H460 C446 0.950 . S
H461 C447 0.950 . S
H462 C449 0.950 . S
H463 C450 0.951 . S
C464 C465 1.386 . S
C464 C466 1.383 . S
C464 H480 0.951 . S
C465 C464 1.386 . S
C465 C469 1.383 . S
C466 C464 1.383 . S
C466 C467 1.402 . S
C466 H481 0.951 . S
C467 C466 1.402 . S
C467 C468 1.375 . S
C467 C470 1.481 . S
C468 C467 1.375 . S
C468 C469 1.367 . S
C468 H482 0.951 . S
C469 C465 1.383 . S
C469 C468 1.367 . S
C469 H483 0.950 . S
C470 C467 1.481 . S
C470 C471 1.297 . S
C470 H484 0.950 . S
C471 C470 1.297 . S
C471 C472 1.479 . S
C471 H485 0.950 . S
C472 C471 1.479 . S
C472 C473 1.375 . S
C472 C478 1.404 . S
C473 C472 1.375 . S
C473 C474 1.369 . S
C473 H486 0.950 . S
C474 C473 1.369 . S
C474 C475 1.392 . S
C474 H487 0.951 . S
C475 C474 1.392 . S
C475 C477 1.384 . S
H476 C478 0.949 . S
C477 C475 1.384 . S
C477 C478 1.385 . S
C477 H479 0.950 . S
C478 C472 1.404 . S
C478 H476 0.949 . S
C478 C477 1.385 . S
H479 C477 0.950 . S
H480 C464 0.951 . S
H481 C466 0.951 . S
H482 C468 0.951 . S
H483 C469 0.950 . S
H484 C470 0.950 . S
H485 C471 0.950 . S
H486 C473 0.950 . S
H487 C474 0.951 . S
C105 C26 1.237 . S
C115 C0 1.275 . S
C129 C39 1.192 . S
C139 C13 1.235 . S
C153 C52 1.248 . S
C163 C78 1.148 . S
C177 C65 1.209 . S
C187 C91 1.146 . S
C201 C23 0.734 . S
C211 C5 0.852 . S
C225 C18 0.797 . S
C235 C36 0.724 . S
C249 C49 0.716 . S
C259 C31 0.795 . S
C273 C44 0.644 . S
C283 C10 0.728 . S
C297 C101 0.731 . S
C307 C57 0.628 . S
C321 C70 0.663 . S
C331 C62 0.691 . S
C345 C83 0.744 . S
C355 C75 0.666 . S
C369 C96 0.800 . S
C379 C88 0.754 . S
C393 C8 1.643 . S
C403 C73 1.585 . S
C417 C86 1.655 . S
C427 C21 1.573 . S
C441 C34 1.606 . S
C451 C99 1.662 . S
C465 C47 1.629 . S
C475 C60 1.588 . S
