# Generated by pormake.
# Topology snl, (6)-cn, num edge types: 1
# Building blocks:
#     Node 0, Type 0, BuildingBlock: MIDCAF_clean_sbu_0, # of connection points: 6
#     Node 1, Type 0, BuildingBlock: MIDCAF_clean_sbu_0, # of connection points: 6
#     Node 2, Type 0, BuildingBlock: MIDCAF_clean_sbu_0, # of connection points: 6
#     Node 3, Type 0, BuildingBlock: MIDCAF_clean_sbu_0, # of connection points: 6
#     Node 4, Type 0, BuildingBlock: MIDCAF_clean_sbu_0, # of connection points: 6
#     Node 5, Type 0, BuildingBlock: MIDCAF_clean_sbu_0, # of connection points: 6
#     Node 6, Type 0, BuildingBlock: MIDCAF_clean_sbu_0, # of connection points: 6
#     Node 7, Type 0, BuildingBlock: MIDCAF_clean_sbu_0, # of connection points: 6
#     Node 8, Type 0, BuildingBlock: MIDCAF_clean_sbu_0, # of connection points: 6
#     Node 9, Type 0, BuildingBlock: MIDCAF_clean_sbu_0, # of connection points: 6
#     Node 10, Type 0, BuildingBlock: MIDCAF_clean_sbu_0, # of connection points: 6
#     Node 11, Type 0, BuildingBlock: MIDCAF_clean_sbu_0, # of connection points: 6
#     Node 12, Type 0, BuildingBlock: MIDCAF_clean_sbu_0, # of connection points: 6
#     Node 13, Type 0, BuildingBlock: MIDCAF_clean_sbu_0, # of connection points: 6
#     Node 14, Type 0, BuildingBlock: MIDCAF_clean_sbu_0, # of connection points: 6
#     Node 15, Type 0, BuildingBlock: MIDCAF_clean_sbu_0, # of connection points: 6
#     Edge 16, Type (0, 0), BuildingBlock: UVAHIK_clean_linker_0, # of connection points: 2
#     Edge 17, Type (0, 0), BuildingBlock: UVAHIK_clean_linker_0, # of connection points: 2
#     Edge 18, Type (0, 0), BuildingBlock: UVAHIK_clean_linker_0, # of connection points: 2
#     Edge 19, Type (0, 0), BuildingBlock: UVAHIK_clean_linker_0, # of connection points: 2
#     Edge 20, Type (0, 0), BuildingBlock: UVAHIK_clean_linker_0, # of connection points: 2
#     Edge 21, Type (0, 0), BuildingBlock: UVAHIK_clean_linker_0, # of connection points: 2
#     Edge 22, Type (0, 0), BuildingBlock: UVAHIK_clean_linker_0, # of connection points: 2
#     Edge 23, Type (0, 0), BuildingBlock: UVAHIK_clean_linker_0, # of connection points: 2
#     Edge 24, Type (0, 0), BuildingBlock: UVAHIK_clean_linker_0, # of connection points: 2
#     Edge 25, Type (0, 0), BuildingBlock: UVAHIK_clean_linker_0, # of connection points: 2
#     Edge 26, Type (0, 0), BuildingBlock: UVAHIK_clean_linker_0, # of connection points: 2
#     Edge 27, Type (0, 0), BuildingBlock: UVAHIK_clean_linker_0, # of connection points: 2
#     Edge 28, Type (0, 0), BuildingBlock: UVAHIK_clean_linker_0, # of connection points: 2
#     Edge 29, Type (0, 0), BuildingBlock: UVAHIK_clean_linker_0, # of connection points: 2
#     Edge 30, Type (0, 0), BuildingBlock: UVAHIK_clean_linker_0, # of connection points: 2
#     Edge 31, Type (0, 0), BuildingBlock: UVAHIK_clean_linker_0, # of connection points: 2
#     Edge 32, Type (0, 0), BuildingBlock: UVAHIK_clean_linker_0, # of connection points: 2
#     Edge 33, Type (0, 0), BuildingBlock: UVAHIK_clean_linker_0, # of connection points: 2
#     Edge 34, Type (0, 0), BuildingBlock: UVAHIK_clean_linker_0, # of connection points: 2
#     Edge 35, Type (0, 0), BuildingBlock: UVAHIK_clean_linker_0, # of connection points: 2
#     Edge 36, Type (0, 0), BuildingBlock: UVAHIK_clean_linker_0, # of connection points: 2
#     Edge 37, Type (0, 0), BuildingBlock: UVAHIK_clean_linker_0, # of connection points: 2
#     Edge 38, Type (0, 0), BuildingBlock: UVAHIK_clean_linker_0, # of connection points: 2
#     Edge 39, Type (0, 0), BuildingBlock: UVAHIK_clean_linker_0, # of connection points: 2
#     Edge 40, Type (0, 0), BuildingBlock: UVAHIK_clean_linker_0, # of connection points: 2
#     Edge 41, Type (0, 0), BuildingBlock: UVAHIK_clean_linker_0, # of connection points: 2
#     Edge 42, Type (0, 0), BuildingBlock: UVAHIK_clean_linker_0, # of connection points: 2
#     Edge 43, Type (0, 0), BuildingBlock: UVAHIK_clean_linker_0, # of connection points: 2
#     Edge 44, Type (0, 0), BuildingBlock: UVAHIK_clean_linker_0, # of connection points: 2
#     Edge 45, Type (0, 0), BuildingBlock: UVAHIK_clean_linker_0, # of connection points: 2
#     Edge 46, Type (0, 0), BuildingBlock: UVAHIK_clean_linker_0, # of connection points: 2
#     Edge 47, Type (0, 0), BuildingBlock: UVAHIK_clean_linker_0, # of connection points: 2
#     Edge 48, Type (0, 0), BuildingBlock: UVAHIK_clean_linker_0, # of connection points: 2
#     Edge 49, Type (0, 0), BuildingBlock: UVAHIK_clean_linker_0, # of connection points: 2
#     Edge 50, Type (0, 0), BuildingBlock: UVAHIK_clean_linker_0, # of connection points: 2
#     Edge 51, Type (0, 0), BuildingBlock: UVAHIK_clean_linker_0, # of connection points: 2
#     Edge 52, Type (0, 0), BuildingBlock: UVAHIK_clean_linker_0, # of connection points: 2
#     Edge 53, Type (0, 0), BuildingBlock: UVAHIK_clean_linker_0, # of connection points: 2
#     Edge 54, Type (0, 0), BuildingBlock: UVAHIK_clean_linker_0, # of connection points: 2
#     Edge 55, Type (0, 0), BuildingBlock: UVAHIK_clean_linker_0, # of connection points: 2
#     Edge 56, Type (0, 0), BuildingBlock: UVAHIK_clean_linker_0, # of connection points: 2
#     Edge 57, Type (0, 0), BuildingBlock: UVAHIK_clean_linker_0, # of connection points: 2
#     Edge 58, Type (0, 0), BuildingBlock: UVAHIK_clean_linker_0, # of connection points: 2
#     Edge 59, Type (0, 0), BuildingBlock: UVAHIK_clean_linker_0, # of connection points: 2
#     Edge 60, Type (0, 0), BuildingBlock: UVAHIK_clean_linker_0, # of connection points: 2
#     Edge 61, Type (0, 0), BuildingBlock: UVAHIK_clean_linker_0, # of connection points: 2
#     Edge 62, Type (0, 0), BuildingBlock: UVAHIK_clean_linker_0, # of connection points: 2
#     Edge 63, Type (0, 0), BuildingBlock: UVAHIK_clean_linker_0, # of connection points: 2
# Relax obj value: 0.110
# Max RMSD: 0.169
# Mean RMSD: 0.168
data_MOF--net-snl--node1-MIDCAF_clean_sbu_0--edge1-UVAHIK_clean_linker_0
_symmetry_space_group_name_H-M    P1
_symmetry_Int_Tables_number       1
_symmetry_cell_setting            triclinic
loop_
_symmetry_equiv_pos_as_xyz
'x, y, z'
_cell_length_a     76.480927
_cell_length_b     76.386727
_cell_length_c     19.638204
_cell_angle_alpha  90.009326
_cell_angle_beta   90.127667
_cell_angle_gamma 90.015086
loop_
_atom_site_label
_atom_site_type_symbol
_atom_site_fract_x
_atom_site_fract_y
_atom_site_fract_z
_atom_type_partial_charge
Zn0 Zn 0.11685 0.60678 0.19405 0.0
Zn1 Zn 0.16004 0.65275 0.10468 0.0
Zn2 Zn 0.1371 0.63128 0.15065 0.0
C3 C 0.14709 0.66824 0.22239 0.0
C4 C 0.17874 0.62263 0.12794 0.0
O5 O 0.14989 0.60444 0.1394 0.0
O6 O 0.13011 0.58531 0.17392 0.0
C7 C 0.09811 0.62494 0.09325 0.0
O8 O 0.13877 0.65353 0.22556 0.0
O9 O 0.15748 0.67118 0.17399 0.0
O10 O 0.18123 0.63818 0.10869 0.0
O11 O 0.16305 0.61742 0.14194 0.0
O12 O 0.09651 0.61256 0.13537 0.0
O13 O 0.11284 0.63305 0.08792 0.0
O14 O 0.13 0.63897 0.25592 0.0
O15 O 0.11575 0.6153 0.28902 0.0
C16 C 0.12187 0.63027 0.3024 0.0
O17 O 0.1266 0.64148 0.053 0.0
O18 O 0.14884 0.65728 0.01606 0.0
C19 C 0.14489 0.58838 0.14823 0.0
C20 C 0.13368 0.65117 0.00696 0.0
Zn21 Zn 0.65278 0.85935 0.47057 0.0
Zn22 Zn 0.61507 0.90947 0.374 0.0
Zn23 Zn 0.63243 0.88317 0.41964 0.0
C24 C 0.59494 0.89567 0.47958 0.0
C25 C 0.64577 0.92428 0.41217 0.0
O26 O 0.65995 0.8935 0.43115 0.0
O27 O 0.67534 0.87177 0.47522 0.0
C28 C 0.63971 0.84575 0.34838 0.0
O29 O 0.60841 0.88554 0.48452 0.0
O30 O 0.59468 0.90756 0.43496 0.0
O31 O 0.63125 0.92912 0.38837 0.0
O32 O 0.64864 0.9079 0.42443 0.0
O33 O 0.64966 0.84195 0.39749 0.0
O34 O 0.6322 0.86088 0.34559 0.0
O35 O 0.62065 0.87472 0.51791 0.0
O36 O 0.6398 0.85528 0.55537 0.0
C37 C 0.62582 0.86377 0.56372 0.0
O38 O 0.62408 0.87577 0.31444 0.0
O39 O 0.61189 0.90054 0.2809 0.0
C40 C 0.67471 0.88714 0.45187 0.0
C41 C 0.61645 0.88501 0.26801 0.0
Zn42 Zn 0.40407 0.40896 0.66346 0.0
Zn43 Zn 0.36036 0.36207 0.55772 0.0
Zn44 Zn 0.38364 0.38488 0.60877 0.0
C45 C 0.38673 0.36753 0.45987 0.0
C46 C 0.37613 0.34617 0.67186 0.0
O47 O 0.39265 0.37498 0.70887 0.0
O48 O 0.40906 0.39648 0.74957 0.0
C49 C 0.37332 0.42627 0.63462 0.0
O50 O 0.39321 0.37733 0.50699 0.0
O51 O 0.37233 0.35976 0.46859 0.0
O52 O 0.36512 0.34322 0.62526 0.0
O53 O 0.38387 0.36116 0.67561 0.0
O54 O 0.38787 0.4293 0.66268 0.0
O55 O 0.36959 0.41065 0.61396 0.0
O56 O 0.40636 0.38765 0.53809 0.0
O57 O 0.42214 0.40766 0.59138 0.0
C58 C 0.42026 0.39717 0.54217 0.0
O59 O 0.35707 0.397 0.608 0.0
O60 O 0.33905 0.37691 0.56685 0.0
C61 C 0.40236 0.38148 0.75629 0.0
C62 C 0.34148 0.39193 0.59204 0.0
Zn63 Zn 0.86772 0.15978 0.88377 0.0
Zn64 Zn 0.91181 0.11306 0.79753 0.0
Zn65 Zn 0.89031 0.13659 0.8434 0.0
C66 C 0.91175 0.13957 0.70125 0.0
C67 C 0.92605 0.12435 0.92003 0.0
O68 O 0.89813 0.14364 0.94882 0.0
O69 O 0.87668 0.16146 0.97826 0.0
C70 C 0.84756 0.13117 0.84816 0.0
O71 O 0.90114 0.14625 0.74511 0.0
O72 O 0.91859 0.12481 0.71237 0.0
O73 O 0.92885 0.11349 0.87293 0.0
O74 O 0.91207 0.13383 0.91942 0.0
O75 O 0.84589 0.14679 0.86798 0.0
O76 O 0.86305 0.12481 0.83856 0.0
O77 O 0.89316 0.16039 0.77896 0.0
O78 O 0.87387 0.17905 0.8209 0.0
C79 C 0.88609 0.17572 0.77985 0.0
O80 O 0.87552 0.1115 0.82908 0.0
O81 O 0.89561 0.09316 0.79049 0.0
C82 C 0.89054 0.15337 0.99359 0.0
C83 C 0.88009 0.09609 0.80866 0.0
Zn84 Zn 0.11593 0.40662 0.79581 0.0
Zn85 Zn 0.15999 0.36218 0.89062 0.0
Zn86 Zn 0.13576 0.38217 0.84203 0.0
C87 C 0.13306 0.36338 0.98729 0.0
C88 C 0.14662 0.34504 0.77519 0.0
O89 O 0.12849 0.37346 0.73814 0.0
O90 O 0.11453 0.39707 0.70243 0.0
C91 C 0.14366 0.4253 0.83918 0.0
O92 O 0.1255 0.37248 0.94047 0.0
O93 O 0.14852 0.35799 0.97892 0.0
O94 O 0.15766 0.34324 0.82254 0.0
O95 O 0.13757 0.35928 0.77073 0.0
O96 O 0.12906 0.42842 0.81192 0.0
O97 O 0.14833 0.40924 0.8505 0.0
O98 O 0.11159 0.38088 0.90495 0.0
O99 O 0.09573 0.40148 0.85557 0.0
C100 C 0.09705 0.38928 0.89865 0.0
O101 O 0.16162 0.3963 0.8469 0.0
O102 O 0.18093 0.37723 0.88593 0.0
C103 C 0.12036 0.38189 0.69082 0.0
C104 C 0.17757 0.39219 0.86209 0.0
Zn105 Zn 0.90111 0.91642 0.15182 0.0
Zn106 Zn 0.85794 0.86748 0.06852 0.0
Zn107 Zn 0.879 0.89244 0.10906 0.0
C108 C 0.86063 0.89171 0.96181 0.0
C109 C 0.88951 0.85122 0.09532 0.0
O110 O 0.87008 0.9009 0.21109 0.0
O111 O 0.89045 0.91988 0.24218 0.0
C112 C 0.88462 0.93026 0.03699 0.0
O113 O 0.86943 0.90014 0.00727 0.0
O114 O 0.85464 0.87668 0.97498 0.0
O115 O 0.87382 0.84736 0.0824 0.0
O116 O 0.89411 0.86734 0.1036 0.0
O117 O 0.89597 0.93418 0.08121 0.0
O118 O 0.87739 0.915 0.03745 0.0
O119 O 0.90615 0.88096 0.1122 0.0
O120 O 0.92303 0.90284 0.1462 0.0
C121 C 0.92144 0.88719 0.12651 0.0
O122 O 0.85631 0.89131 0.18148 0.0
O123 O 0.83894 0.87158 0.13449 0.0
C124 C 0.87664 0.91151 0.25542 0.0
C125 C 0.84163 0.88294 0.17999 0.0
Zn126 Zn 0.35852 0.65475 0.43147 0.0
Zn127 Zn 0.4033 0.60931 0.34051 0.0
Zn128 Zn 0.38214 0.63361 0.3865 0.0
C129 C 0.40016 0.63491 0.23839 0.0
C130 C 0.41938 0.62406 0.45587 0.0
O131 O 0.39146 0.64277 0.4876 0.0
O132 O 0.36916 0.65896 0.5215 0.0
C133 C 0.33996 0.62509 0.40201 0.0
O134 O 0.39084 0.64253 0.28439 0.0
O135 O 0.40675 0.62005 0.24997 0.0
O136 O 0.42185 0.61276 0.41002 0.0
O137 O 0.40502 0.63293 0.45737 0.0
O138 O 0.33727 0.6403 0.42469 0.0
O139 O 0.35576 0.62022 0.38811 0.0
O140 O 0.38168 0.65667 0.3156 0.0
O141 O 0.36154 0.67342 0.36325 0.0
C142 C 0.3729 0.67112 0.31767 0.0
O143 O 0.36889 0.60723 0.3869 0.0
O144 O 0.38839 0.58828 0.34865 0.0
C145 C 0.38407 0.65249 0.53287 0.0
C146 C 0.37344 0.59132 0.37292 0.0
Zn147 Zn 0.66025 0.15685 0.57337 0.0
Zn148 Zn 0.61763 0.11441 0.6627 0.0
Zn149 Zn 0.63775 0.13556 0.62072 0.0
C150 C 0.59783 0.1328 0.57397 0.0
C151 C 0.64292 0.09456 0.60386 0.0
O152 O 0.66419 0.12194 0.61726 0.0
O153 O 0.68173 0.14281 0.57969 0.0
C154 C 0.64653 0.17311 0.68854 0.0
O155 O 0.61355 0.1363 0.55412 0.0
O156 O 0.59557 0.12468 0.62908 0.0
O157 O 0.6267 0.09363 0.61449 0.0
O158 O 0.65091 0.10923 0.61393 0.0
O159 O 0.65725 0.17564 0.64084 0.0
O160 O 0.6383 0.15837 0.69286 0.0
O161 O 0.62759 0.14453 0.52128 0.0
O162 O 0.64934 0.161 0.48383 0.0
C163 C 0.63445 0.15426 0.47485 0.0
O164 O 0.63054 0.14353 0.72555 0.0
O165 O 0.62217 0.11747 0.76071 0.0
C166 C 0.67974 0.1275 0.60253 0.0
C167 C 0.62581 0.13322 0.77413 0.0
Zn168 Zn 0.90455 0.4111 0.73621 0.0
Zn169 Zn 0.85884 0.36823 0.83755 0.0
Zn170 Zn 0.88153 0.39021 0.78913 0.0
C171 C 0.86405 0.39292 0.9386 0.0
C172 C 0.88773 0.34844 0.79885 0.0
O173 O 0.87192 0.39917 0.68804 0.0
O174 O 0.89277 0.41662 0.64944 0.0
C175 C 0.89285 0.4268 0.85677 0.0
O176 O 0.8735 0.39967 0.8911 0.0
O177 O 0.85668 0.37831 0.92986 0.0
O178 O 0.87224 0.34668 0.81967 0.0
O179 O 0.89417 0.36385 0.78949 0.0
O180 O 0.90344 0.42903 0.80835 0.0
O181 O 0.88351 0.41278 0.85971 0.0
O182 O 0.90771 0.3765 0.78623 0.0
O183 O 0.92519 0.3957 0.73659 0.0
C184 C 0.92308 0.38109 0.76535 0.0
O185 O 0.85806 0.39052 0.72009 0.0
O186 O 0.83957 0.37323 0.77417 0.0
C187 C 0.87813 0.4093 0.64142 0.0
C188 C 0.84276 0.38351 0.72551 0.0
Zn189 Zn 0.40462 0.10972 0.67802 0.0
Zn190 Zn 0.36132 0.15355 0.56511 0.0
Zn191 Zn 0.38422 0.13325 0.62165 0.0
C192 C 0.38874 0.15062 0.47302 0.0
C193 C 0.37291 0.17105 0.68253 0.0
O194 O 0.39182 0.14375 0.72257 0.0
O195 O 0.40832 0.12249 0.76454 0.0
C196 C 0.37522 0.09125 0.64382 0.0
O197 O 0.39503 0.14116 0.52159 0.0
O198 O 0.37379 0.15745 0.47847 0.0
O199 O 0.36265 0.17264 0.63249 0.0
O200 O 0.38204 0.15693 0.68933 0.0
O201 O 0.38945 0.08866 0.6748 0.0
O202 O 0.3712 0.10683 0.62327 0.0
O203 O 0.40819 0.13161 0.55612 0.0
O204 O 0.42366 0.11147 0.61005 0.0
C205 C 0.42226 0.12238 0.56201 0.0
O206 O 0.35791 0.11984 0.6175 0.0
O207 O 0.34013 0.13876 0.56829 0.0
C208 C 0.40135 0.13738 0.77077 0.0
C209 C 0.34239 0.12424 0.59762 0.0
Zn210 Zn 0.61216 0.61094 0.37009 0.0
Zn211 Zn 0.65423 0.6576 0.46316 0.0
Zn212 Zn 0.63297 0.63458 0.41551 0.0
C213 C 0.62799 0.6549 0.55936 0.0
C214 C 0.64221 0.67185 0.34289 0.0
O215 O 0.62458 0.64312 0.31167 0.0
O216 O 0.60751 0.62124 0.27999 0.0
C217 C 0.64285 0.5931 0.39525 0.0
O218 O 0.62244 0.64355 0.51566 0.0
O219 O 0.64183 0.66336 0.54769 0.0
O220 O 0.65309 0.67504 0.38954 0.0
O221 O 0.63355 0.65732 0.34288 0.0
O222 O 0.62756 0.59048 0.37336 0.0
O223 O 0.64758 0.60874 0.41267 0.0
O224 O 0.60939 0.63339 0.48368 0.0
O225 O 0.5933 0.61238 0.43799 0.0
C226 C 0.59532 0.62404 0.48274 0.0
O227 O 0.65968 0.62224 0.42665 0.0
O228 O 0.67557 0.64354 0.47148 0.0
C229 C 0.61469 0.63571 0.26672 0.0
C230 C 0.67444 0.62809 0.44945 0.0
Zn231 Zn 0.15967 0.86213 0.10782 0.0
Zn232 Zn 0.11442 0.90706 0.19909 0.0
Zn233 Zn 0.13534 0.88256 0.15521 0.0
C234 C 0.0968 0.88964 0.09308 0.0
C235 C 0.14314 0.92547 0.15989 0.0
O236 O 0.16123 0.89662 0.15028 0.0
O237 O 0.18047 0.87744 0.11181 0.0
C238 C 0.14628 0.84573 0.22462 0.0
O239 O 0.1115 0.88138 0.08985 0.0
O240 O 0.09481 0.90185 0.13572 0.0
O241 O 0.12825 0.92859 0.18445 0.0
O242 O 0.14793 0.90946 0.14897 0.0
O243 O 0.15735 0.84365 0.17778 0.0
O244 O 0.13711 0.8599 0.22751 0.0
O245 O 0.12545 0.87273 0.0562 0.0
O246 O 0.14818 0.85758 0.01949 0.0
C247 C 0.13289 0.86333 0.01011 0.0
O248 O 0.12773 0.87407 0.25875 0.0
O249 O 0.11265 0.89721 0.29215 0.0
C250 C 0.17715 0.89248 0.13496 0.0
C251 C 0.11903 0.8823 0.30493 0.0
Zn252 Zn 0.85785 0.65932 0.12004 0.0
Zn253 Zn 0.9038 0.61346 0.21509 0.0
Zn254 Zn 0.88163 0.63581 0.16241 0.0
C255 C 0.92317 0.64342 0.18738 0.0
C256 C 0.89118 0.59878 0.09388 0.0
O257 O 0.85884 0.63652 0.23413 0.0
O258 O 0.84014 0.65584 0.19223 0.0
C259 C 0.88985 0.67699 0.13787 0.0
O260 O 0.90815 0.64853 0.16474 0.0
O261 O 0.92464 0.62869 0.21588 0.0
O262 O 0.902 0.59596 0.14126 0.0
O263 O 0.88227 0.61308 0.09254 0.0
O264 O 0.87391 0.67979 0.12507 0.0
O265 O 0.89533 0.66137 0.15073 0.0
O266 O 0.87222 0.62651 0.06277 0.0
O267 O 0.85378 0.64732 0.03089 0.0
C268 C 0.86156 0.63307 0.01875 0.0
O269 O 0.87278 0.62766 0.26584 0.0
O270 O 0.89204 0.60812 0.30202 0.0
C271 C 0.84392 0.64444 0.23639 0.0
C272 C 0.87833 0.61692 0.31184 0.0
Zn273 Zn 0.11844 0.10721 0.82724 0.0
Zn274 Zn 0.16198 0.15312 0.91885 0.0
Zn275 Zn 0.13894 0.13162 0.87367 0.0
C276 C 0.1477 0.16939 0.80484 0.0
C277 C 0.18108 0.12371 0.88929 0.0
O278 O 0.15237 0.10513 0.87786 0.0
O279 O 0.13305 0.08611 0.83835 0.0
C280 C 0.10152 0.12208 0.94007 0.0
O281 O 0.13932 0.1547 0.80191 0.0
O282 O 0.15876 0.17196 0.85149 0.0
O283 O 0.18342 0.13903 0.91148 0.0
O284 O 0.16539 0.11838 0.87591 0.0
O285 O 0.09938 0.11072 0.89414 0.0
O286 O 0.11583 0.13101 0.94295 0.0
O287 O 0.13047 0.14031 0.77081 0.0
O288 O 0.11527 0.11738 0.73569 0.0
C289 C 0.12152 0.1324 0.72427 0.0
O290 O 0.12928 0.14087 0.97401 0.0
O291 O 0.15147 0.15712 0.00895 0.0
C292 C 0.14779 0.08916 0.86471 0.0
C293 C 0.13655 0.1506 0.01965 0.0
Zn294 Zn 0.60878 0.40431 0.60662 0.0
Zn295 Zn 0.65308 0.35826 0.50865 0.0
Zn296 Zn 0.63152 0.38158 0.55911 0.0
C297 C 0.62627 0.36102 0.41483 0.0
C298 C 0.64253 0.34475 0.6332 0.0
O299 O 0.62367 0.37262 0.66207 0.0
O300 O 0.60461 0.39265 0.69539 0.0
C301 C 0.63951 0.42324 0.58091 0.0
O302 O 0.62126 0.37244 0.45912 0.0
O303 O 0.63992 0.35212 0.42515 0.0
O304 O 0.65287 0.34137 0.58499 0.0
O305 O 0.63359 0.3591 0.63263 0.0
O306 O 0.62415 0.4251 0.60322 0.0
O307 O 0.64491 0.4079 0.56272 0.0
O308 O 0.60779 0.38182 0.4919 0.0
O309 O 0.59027 0.40174 0.53688 0.0
C310 C 0.59318 0.39029 0.49206 0.0
O311 O 0.65742 0.39481 0.54653 0.0
O312 O 0.6735 0.37396 0.49976 0.0
C313 C 0.61304 0.37876 0.70701 0.0
C314 C 0.67215 0.38939 0.52226 0.0
Zn315 Zn 0.3563 0.8625 0.43156 0.0
Zn316 Zn 0.4044 0.90551 0.34261 0.0
Zn317 Zn 0.38174 0.88253 0.3881 0.0
C318 C 0.39912 0.88074 0.23918 0.0
C319 C 0.41973 0.88872 0.45563 0.0
O320 O 0.39001 0.87293 0.4895 0.0
O321 O 0.3667 0.85794 0.52191 0.0
C322 C 0.34003 0.8934 0.40091 0.0
O323 O 0.39005 0.87325 0.28617 0.0
O324 O 0.40609 0.89547 0.25015 0.0
O325 O 0.42323 0.89926 0.40805 0.0
O326 O 0.40442 0.88172 0.45981 0.0
O327 O 0.33608 0.8785 0.42384 0.0
O328 O 0.35615 0.89714 0.38747 0.0
O329 O 0.38052 0.85946 0.31802 0.0
O330 O 0.35911 0.84376 0.36268 0.0
C331 C 0.37108 0.84544 0.31899 0.0
O332 O 0.36987 0.90949 0.38829 0.0
O333 O 0.39102 0.92743 0.35648 0.0
C334 C 0.38189 0.86363 0.53419 0.0
C335 C 0.37561 0.92517 0.37757 0.0
C336 C 0.11407 0.642 0.91054 0.0
C337 C 0.12516 0.65446 0.94067 0.0
C338 C 0.10976 0.64332 0.84127 0.0
C339 C 0.13091 0.65905 0.68818 0.0
H340 H 0.08756 0.64749 0.59628 0.0
C341 C 0.12909 0.65149 0.39686 0.0
C342 C 0.11938 0.63725 0.37216 0.0
C343 C 0.12724 0.65702 0.46446 0.0
C344 C 0.09981 0.65064 0.62116 0.0
H345 H 0.13871 0.67907 0.92465 0.0
H346 H 0.1311 0.68139 0.80471 0.0
H347 H 0.08795 0.65062 0.72023 0.0
H348 H 0.09974 0.61789 0.39897 0.0
H349 H 0.09712 0.6269 0.51641 0.0
H350 H 0.1431 0.65813 0.59073 0.0
C351 C 0.12608 0.67042 0.83371 0.0
C352 C 0.09997 0.65249 0.69209 0.0
C353 C 0.13039 0.66909 0.90241 0.0
C354 C 0.10751 0.62891 0.41615 0.0
C355 C 0.10581 0.63425 0.48365 0.0
C356 C 0.13082 0.65697 0.61765 0.0
C357 C 0.11646 0.65713 0.80165 0.0
C358 C 0.11558 0.65654 0.72628 0.0
C359 C 0.11581 0.64822 0.50914 0.0
C360 C 0.11533 0.65247 0.58318 0.0
H361 H 0.10987 0.63059 0.93883 0.0
H362 H 0.1023 0.63288 0.81772 0.0
H363 H 0.14322 0.66189 0.71328 0.0
H364 H 0.13855 0.65799 0.36495 0.0
H365 H 0.13502 0.66797 0.48199 0.0
C366 C 0.60183 0.88776 0.15493 0.0
C367 C 0.61293 0.87822 0.1985 0.0
C368 C 0.5995 0.88279 0.08727 0.0
C369 C 0.6217 0.85751 0.95218 0.0
H370 H 0.58015 0.87005 0.84926 0.0
C371 C 0.61903 0.84619 0.66655 0.0
C372 C 0.61668 0.86175 0.62943 0.0
C373 C 0.61453 0.84536 0.73515 0.0
C374 C 0.59178 0.86643 0.87754 0.0
H375 H 0.63001 0.85576 0.20458 0.0
H376 H 0.62515 0.84629 0.08758 0.0
H377 H 0.58008 0.87262 0.97334 0.0
H378 H 0.6064 0.88815 0.63339 0.0
H379 H 0.59825 0.88661 0.75396 0.0
H380 H 0.6333 0.85122 0.85635 0.0
C381 C 0.61855 0.85795 0.10543 0.0
C382 C 0.59183 0.86798 0.94858 0.0
C383 C 0.62112 0.86315 0.17316 0.0
C384 C 0.60823 0.87596 0.6606 0.0
C385 C 0.60362 0.87508 0.72959 0.0
C386 C 0.62151 0.85566 0.88153 0.0
C387 C 0.608 0.86795 0.06109 0.0
C388 C 0.60697 0.86397 0.98676 0.0
C389 C 0.60753 0.86004 0.76809 0.0
C390 C 0.60669 0.86042 0.8434 0.0
H391 H 0.59524 0.89947 0.17246 0.0
H392 H 0.59157 0.89109 0.05497 0.0
H393 H 0.63372 0.85462 0.97909 0.0
H394 H 0.62533 0.83495 0.64359 0.0
H395 H 0.61741 0.83352 0.76345 0.0
C396 C 0.40142 0.38025 0.35779 0.0
C397 C 0.39541 0.36557 0.39353 0.0
C398 C 0.40616 0.37872 0.28921 0.0
C399 C 0.39729 0.34943 0.1417 0.0
H400 H 0.42781 0.38221 0.05007 0.0
C401 C 0.42105 0.37337 0.85483 0.0
C402 C 0.40481 0.3724 0.82168 0.0
C403 C 0.42265 0.36849 0.92303 0.0
C404 C 0.4195 0.37263 0.07451 0.0
H405 H 0.39109 0.3376 0.38863 0.0
H406 H 0.40034 0.33466 0.2707 0.0
H407 H 0.42732 0.38143 0.17329 0.0
H408 H 0.37772 0.3648 0.832 0.0
H409 H 0.3802 0.35692 0.95183 0.0
H410 H 0.38986 0.34027 0.04298 0.0
C411 C 0.40063 0.34753 0.29379 0.0
C412 C 0.41899 0.37243 0.14563 0.0
C413 C 0.39552 0.34915 0.36162 0.0
C414 C 0.39043 0.36543 0.8564 0.0
C415 C 0.39191 0.36092 0.92524 0.0
C416 C 0.39805 0.3494 0.07062 0.0
C417 C 0.40526 0.3624 0.25563 0.0
C418 C 0.40754 0.36115 0.18028 0.0
C419 C 0.40792 0.36304 0.9602 0.0
C420 C 0.40881 0.36132 0.03587 0.0
H421 H 0.40134 0.39307 0.38141 0.0
H422 H 0.40951 0.39054 0.26179 0.0
H423 H 0.38811 0.34066 0.16602 0.0
H424 H 0.43236 0.37861 0.82871 0.0
H425 H 0.43532 0.36973 0.94726 0.0
C426 C 0.9292 0.14226 0.5951 0.0
C427 C 0.9149 0.14786 0.63434 0.0
C428 C 0.93021 0.14636 0.52612 0.0
C429 C 0.91683 0.14151 0.38194 0.0
H430 H 0.90982 0.18578 0.28968 0.0
C431 C 0.89061 0.16827 0.10676 0.0
C432 C 0.8974 0.15518 0.06394 0.0
C433 C 0.89565 0.16933 0.17492 0.0
C434 C 0.91161 0.17326 0.31459 0.0
H435 H 0.89123 0.16348 0.63326 0.0
H436 H 0.8932 0.17095 0.51221 0.0
H437 H 0.91296 0.18519 0.41364 0.0
H438 H 0.91492 0.13299 0.05987 0.0
H439 H 0.92477 0.13554 0.17724 0.0
H440 H 0.91441 0.12931 0.28485 0.0
C441 C 0.90356 0.1633 0.53527 0.0
C442 C 0.91351 0.173 0.38552 0.0
C443 C 0.90247 0.15908 0.6046 0.0
C444 C 0.90981 0.14351 0.09058 0.0
C445 C 0.91516 0.14478 0.15861 0.0
C446 C 0.9146 0.14172 0.31146 0.0
C447 C 0.91701 0.15627 0.49494 0.0
C448 C 0.91606 0.15709 0.41974 0.0
C449 C 0.90784 0.15748 0.2022 0.0
C450 C 0.91179 0.15757 0.27668 0.0
H451 H 0.93913 0.13379 0.61674 0.0
H452 H 0.94084 0.14101 0.49627 0.0
H453 H 0.9185 0.12902 0.40729 0.0
H454 H 0.88097 0.17751 0.08816 0.0
H455 H 0.88941 0.17908 0.20666 0.0
C456 C 0.1132 0.3717 0.0839 0.0
C457 C 0.12463 0.35968 0.0533 0.0
C458 C 0.10885 0.36993 0.15296 0.0
C459 C 0.12999 0.35367 0.30613 0.0
H460 H 0.08616 0.36385 0.39625 0.0
C461 C 0.12742 0.36022 0.59772 0.0
C462 C 0.11766 0.37448 0.62183 0.0
C463 C 0.12564 0.35464 0.53005 0.0
C464 C 0.09854 0.36106 0.37188 0.0
H465 H 0.13884 0.33539 0.06811 0.0
H466 H 0.13114 0.33227 0.18751 0.0
H467 H 0.08698 0.36151 0.27208 0.0
H468 H 0.0978 0.39357 0.59439 0.0
H469 H 0.09526 0.38443 0.47716 0.0
H470 H 0.14185 0.35417 0.40449 0.0
C471 C 0.12589 0.34325 0.15918 0.0
C472 C 0.09895 0.35968 0.30081 0.0
C473 C 0.13024 0.34504 0.09077 0.0
C474 C 0.10565 0.38259 0.57758 0.0
C475 C 0.104 0.37717 0.51017 0.0
C476 C 0.12963 0.35527 0.37685 0.0
C477 C 0.11586 0.3561 0.19185 0.0
C478 C 0.11474 0.35618 0.26724 0.0
C479 C 0.11419 0.36334 0.48496 0.0
C480 C 0.11397 0.35929 0.41071 0.0
H481 H 0.1087 0.3831 0.05617 0.0
H482 H 0.10107 0.38003 0.17696 0.0
H483 H 0.14243 0.35123 0.28161 0.0
H484 H 0.1369 0.35382 0.63004 0.0
H485 H 0.13355 0.34377 0.5127 0.0
C486 C 0.86911 0.91186 0.86653 0.0
C487 C 0.85806 0.89884 0.89251 0.0
C488 C 0.86769 0.91717 0.7987 0.0
C489 C 0.84084 0.91118 0.63943 0.0
H490 H 0.88561 0.91956 0.55323 0.0
C491 C 0.85928 0.90003 0.35426 0.0
C492 C 0.86888 0.91359 0.32371 0.0
C493 C 0.8545 0.90118 0.42289 0.0
C494 C 0.87298 0.91744 0.57678 0.0
H495 H 0.83662 0.88133 0.86782 0.0
H496 H 0.83493 0.88961 0.749 0.0
H497 H 0.88422 0.91649 0.67585 0.0
H498 H 0.88008 0.93939 0.33963 0.0
H499 H 0.87216 0.94109 0.45954 0.0
H500 H 0.83 0.91095 0.53831 0.0
C501 C 0.84422 0.8964 0.78123 0.0
C502 C 0.87211 0.91583 0.64731 0.0
C503 C 0.84534 0.89145 0.84946 0.0
C504 C 0.87281 0.92866 0.36192 0.0
C505 C 0.86824 0.92969 0.43039 0.0
C506 C 0.8418 0.91242 0.56843 0.0
C507 C 0.85562 0.90908 0.75445 0.0
C508 C 0.85607 0.91252 0.67977 0.0
C509 C 0.85953 0.91576 0.46191 0.0
C510 C 0.85791 0.91547 0.53672 0.0
H511 H 0.87944 0.91736 0.89741 0.0
H512 H 0.8765 0.92723 0.78055 0.0
H513 H 0.82819 0.90895 0.66248 0.0
H514 H 0.85633 0.88816 0.32643 0.0
H515 H 0.84791 0.8902 0.44652 0.0
C516 C 0.40324 0.6434 0.63104 0.0
C517 C 0.39209 0.6557 0.60028 0.0
C518 C 0.40782 0.64512 0.6999 0.0
C519 C 0.38759 0.66071 0.8536 0.0
H520 H 0.43256 0.65406 0.94096 0.0
C521 C 0.39153 0.65563 0.14437 0.0
C522 C 0.40273 0.64265 0.16996 0.0
C523 C 0.39282 0.66106 0.07648 0.0
C524 C 0.41986 0.6558 0.91746 0.0
H525 H 0.37823 0.68018 0.61554 0.0
H526 H 0.38605 0.68301 0.73518 0.0
H527 H 0.4308 0.65564 0.81671 0.0
H528 H 0.42457 0.6257 0.14489 0.0
H529 H 0.42619 0.63434 0.02674 0.0
H530 H 0.37633 0.65977 0.9526 0.0
C531 C 0.39113 0.672 0.70653 0.0
C532 C 0.41892 0.65678 0.84633 0.0
C533 C 0.38666 0.67035 0.63807 0.0
C534 C 0.41566 0.63571 0.12688 0.0
C535 C 0.41674 0.64086 0.05892 0.0
C536 C 0.38846 0.65941 0.92432 0.0
C537 C 0.40119 0.65909 0.73875 0.0
C538 C 0.40274 0.65911 0.81387 0.0
C539 C 0.40506 0.65329 0.03218 0.0
C540 C 0.40457 0.65672 0.95739 0.0
H541 H 0.40741 0.63187 0.60355 0.0
H542 H 0.41554 0.63494 0.72381 0.0
H543 H 0.3749 0.66227 0.82972 0.0
H544 H 0.3812 0.66096 0.17546 0.0
H545 H 0.3838 0.67093 0.05826 0.0
C546 C 0.61519 0.12839 0.89242 0.0
C547 C 0.62339 0.13943 0.84489 0.0
C548 C 0.61252 0.13384 0.95918 0.0
C549 C 0.63001 0.16396 0.08678 0.0
H550 H 0.58977 0.14798 0.18969 0.0
C551 C 0.62852 0.17278 0.37376 0.0
C552 C 0.62578 0.15701 0.40887 0.0
C553 C 0.6238 0.1743 0.30546 0.0
C554 C 0.60102 0.15261 0.1615 0.0
H555 H 0.63532 0.16484 0.83107 0.0
H556 H 0.63035 0.17465 0.94775 0.0
H557 H 0.59034 0.14422 0.06616 0.0
H558 H 0.61517 0.13083 0.4019 0.0
H559 H 0.60684 0.13341 0.28206 0.0
H560 H 0.64094 0.17186 0.18201 0.0
C561 C 0.62604 0.16168 0.93298 0.0
C562 C 0.60139 0.15043 0.09089 0.0
C563 C 0.62879 0.15614 0.8659 0.0
C564 C 0.61706 0.14322 0.37618 0.0
C565 C 0.61238 0.14471 0.30754 0.0
C566 C 0.62959 0.16624 0.1572 0.0
C567 C 0.61791 0.15054 0.98041 0.0
C568 C 0.61615 0.15556 0.05307 0.0
C569 C 0.61641 0.16002 0.27084 0.0
C570 C 0.61532 0.16014 0.19552 0.0
H571 H 0.61083 0.11539 0.8783 0.0
H572 H 0.60661 0.12474 0.99461 0.0
H573 H 0.64166 0.16787 0.05946 0.0
H574 H 0.63512 0.18365 0.39823 0.0
H575 H 0.62677 0.18635 0.27878 0.0
C576 C 0.8763 0.40842 0.04006 0.0
C577 C 0.86186 0.4017 0.00471 0.0
C578 C 0.87467 0.41324 0.10855 0.0
C579 C 0.8682 0.42592 0.2522 0.0
H580 H 0.83681 0.39616 0.3551 0.0
C581 C 0.86981 0.4279 0.5429 0.0
C582 C 0.86909 0.41163 0.57585 0.0
C583 C 0.86474 0.42948 0.4749 0.0
C584 C 0.84574 0.40452 0.32742 0.0
H585 H 0.83411 0.39633 0.00991 0.0
H586 H 0.83092 0.40584 0.12741 0.0
H587 H 0.83717 0.39426 0.23221 0.0
H588 H 0.86155 0.38447 0.56566 0.0
H589 H 0.8535 0.38686 0.44599 0.0
H590 H 0.87791 0.43502 0.34761 0.0
C591 C 0.84374 0.40653 0.10434 0.0
C592 C 0.84573 0.40369 0.25636 0.0
C593 C 0.84549 0.40127 0.0367 0.0
C594 C 0.86213 0.39718 0.54125 0.0
C595 C 0.85747 0.39863 0.47254 0.0
C596 C 0.86848 0.42648 0.32331 0.0
C597 C 0.85845 0.41179 0.14231 0.0
C598 C 0.85718 0.41416 0.21764 0.0
C599 C 0.85935 0.41468 0.43769 0.0
C600 C 0.85747 0.41556 0.36206 0.0
H601 H 0.88907 0.40877 0.01633 0.0
H602 H 0.88637 0.41709 0.13577 0.0
H603 H 0.87697 0.43445 0.2245 0.0
H604 H 0.87496 0.43929 0.56905 0.0
H605 H 0.86576 0.44219 0.45085 0.0
C606 C 0.39777 0.16948 0.37674 0.0
C607 C 0.3981 0.15302 0.40835 0.0
C608 C 0.40261 0.17128 0.30867 0.0
C609 C 0.42038 0.1469 0.15809 0.0
H610 H 0.38927 0.17802 0.05952 0.0
C611 C 0.3894 0.15309 0.87194 0.0
C612 C 0.40379 0.14664 0.8358 0.0
C613 C 0.39117 0.15757 0.94079 0.0
C614 C 0.39801 0.16918 0.08601 0.0
H615 H 0.40476 0.12572 0.3957 0.0
H616 H 0.41251 0.12856 0.27574 0.0
H617 H 0.38869 0.17763 0.18279 0.0
H618 H 0.43159 0.1415 0.84001 0.0
H619 H 0.43501 0.1504 0.95827 0.0
H620 H 0.42864 0.1374 0.06133 0.0
C621 C 0.40898 0.14026 0.3035 0.0
C622 C 0.39793 0.16917 0.15719 0.0
C623 C 0.40453 0.13857 0.37235 0.0
C624 C 0.42026 0.1463 0.86731 0.0
C625 C 0.42214 0.15117 0.93537 0.0
C626 C 0.42024 0.14669 0.08692 0.0
C627 C 0.40739 0.15655 0.27001 0.0
C628 C 0.40893 0.15783 0.19435 0.0
C629 C 0.40747 0.156 0.97415 0.0
C630 C 0.40886 0.15765 0.04977 0.0
H631 H 0.39298 0.18085 0.40392 0.0
H632 H 0.40183 0.18414 0.28565 0.0
H633 H 0.42924 0.13818 0.18458 0.0
H634 H 0.37654 0.15334 0.84866 0.0
H635 H 0.37951 0.16115 0.96865 0.0
C636 C 0.62355 0.65563 0.1704 0.0
C637 C 0.61207 0.64317 0.19773 0.0
C638 C 0.62204 0.66081 0.10221 0.0
C639 C 0.59366 0.65566 0.94576 0.0
H640 H 0.63787 0.66241 0.8534 0.0
C641 C 0.6099 0.64391 0.65742 0.0
C642 C 0.61954 0.65738 0.62637 0.0
C643 C 0.60551 0.64503 0.72659 0.0
C644 C 0.62541 0.6607 0.8787 0.0
H645 H 0.58961 0.62675 0.17516 0.0
H646 H 0.58763 0.63484 0.05664 0.0
H647 H 0.63746 0.6596 0.97644 0.0
H648 H 0.63073 0.68322 0.64169 0.0
H649 H 0.6234 0.6849 0.76204 0.0
H650 H 0.58194 0.65562 0.84608 0.0
C651 C 0.59745 0.64124 0.08764 0.0
C652 C 0.62511 0.65926 0.94948 0.0
C653 C 0.59873 0.6364 0.1559 0.0
C654 C 0.62347 0.67251 0.66428 0.0
C655 C 0.61929 0.67353 0.73315 0.0
C656 C 0.59404 0.65671 0.87457 0.0
C657 C 0.6093 0.65325 0.05923 0.0
C658 C 0.60926 0.65655 0.98422 0.0
C659 C 0.61086 0.65954 0.76546 0.0
C660 C 0.60994 0.65916 0.8406 0.0
H661 H 0.63422 0.66075 0.20042 0.0
H662 H 0.63123 0.67035 0.08285 0.0
H663 H 0.58114 0.65396 0.97042 0.0
H664 H 0.6069 0.632 0.62996 0.0
H665 H 0.59906 0.63404 0.75075 0.0
C666 C 0.10433 0.88297 0.41811 0.0
C667 C 0.1165 0.87504 0.37423 0.0
C668 C 0.1029 0.87772 0.48581 0.0
C669 C 0.12923 0.85653 0.61978 0.0
H670 H 0.08663 0.86192 0.72483 0.0
C671 C 0.13019 0.84534 0.9054 0.0
C672 C 0.12454 0.85984 0.94356 0.0
C673 C 0.1258 0.84378 0.83684 0.0
C674 C 0.09859 0.86033 0.696 0.0
H675 H 0.13633 0.85494 0.36721 0.0
H676 H 0.1333 0.84508 0.48461 0.0
H677 H 0.0856 0.86442 0.6007 0.0
H678 H 0.10858 0.88326 0.94148 0.0
H679 H 0.10084 0.88051 0.82066 0.0
H680 H 0.14221 0.85251 0.71488 0.0
C681 C 0.12509 0.8557 0.46689 0.0
C682 C 0.09805 0.86181 0.62495 0.0
C683 C 0.12667 0.86115 0.39907 0.0
C684 C 0.11308 0.87194 0.91335 0.0
C685 C 0.10868 0.87037 0.84423 0.0
C686 C 0.12971 0.85482 0.69044 0.0
C687 C 0.11348 0.86423 0.51163 0.0
C688 C 0.11346 0.86031 0.58601 0.0
C689 C 0.11568 0.85668 0.80476 0.0
C690 C 0.11447 0.85698 0.72941 0.0
H691 H 0.09618 0.89369 0.40079 0.0
H692 H 0.09401 0.88483 0.51852 0.0
H693 H 0.14143 0.85566 0.59212 0.0
H694 H 0.13881 0.83564 0.92766 0.0
H695 H 0.13108 0.83291 0.80798 0.0
C696 C 0.84323 0.62674 0.91671 0.0
C697 C 0.85923 0.62496 0.95114 0.0
C698 C 0.84174 0.62204 0.84822 0.0
C699 C 0.84527 0.62513 0.69627 0.0
H700 H 0.87588 0.59171 0.60866 0.0
C701 C 0.8636 0.63036 0.41246 0.0
C702 C 0.86954 0.6154 0.37828 0.0
C703 C 0.85875 0.62935 0.48104 0.0
C704 C 0.8669 0.60089 0.63184 0.0
H705 H 0.88601 0.61614 0.94223 0.0
H706 H 0.88377 0.60867 0.82209 0.0
H707 H 0.87394 0.59218 0.73156 0.0
H708 H 0.8735 0.58742 0.38612 0.0
H709 H 0.86402 0.58538 0.50407 0.0
H710 H 0.83774 0.63341 0.5965 0.0
C711 C 0.87212 0.61318 0.8479 0.0
C712 C 0.86606 0.60137 0.70291 0.0
C713 C 0.87348 0.6175 0.91697 0.0
C714 C 0.86918 0.5992 0.41184 0.0
C715 C 0.86393 0.59809 0.47974 0.0
C716 C 0.84584 0.62441 0.62517 0.0
C717 C 0.85636 0.6159 0.81194 0.0
C718 C 0.8556 0.61382 0.73629 0.0
C719 C 0.85942 0.61327 0.51634 0.0
C720 C 0.85701 0.61259 0.59183 0.0
H721 H 0.83198 0.63228 0.94226 0.0
H722 H 0.82922 0.62377 0.8233 0.0
H723 H 0.83718 0.63509 0.71953 0.0
H724 H 0.86386 0.64303 0.38768 0.0
H725 H 0.85551 0.6414 0.50711 0.0
C726 C 0.12964 0.15338 0.63055 0.0
C727 C 0.11882 0.14006 0.65576 0.0
C728 C 0.12816 0.15887 0.56276 0.0
C729 C 0.10102 0.15323 0.40381 0.0
H730 H 0.14569 0.16073 0.31585 0.0
C731 C 0.1173 0.14142 0.11712 0.0
C732 C 0.12841 0.15379 0.08667 0.0
C733 C 0.11274 0.14309 0.18596 0.0
C734 C 0.13307 0.15889 0.33978 0.0
H735 H 0.09743 0.12254 0.63016 0.0
H736 H 0.09548 0.13131 0.51224 0.0
H737 H 0.14451 0.15808 0.43869 0.0
H738 H 0.14208 0.17838 0.1022 0.0
H739 H 0.13424 0.18113 0.22166 0.0
H740 H 0.08991 0.15297 0.30317 0.0
C741 C 0.10478 0.13803 0.54462 0.0
C742 C 0.13235 0.1575 0.41048 0.0
C743 C 0.10606 0.13281 0.61244 0.0
C744 C 0.13371 0.16849 0.12455 0.0
C745 C 0.12924 0.1701 0.19293 0.0
C746 C 0.10181 0.15432 0.3327 0.0
C747 C 0.11607 0.15085 0.51826 0.0
C748 C 0.11636 0.15442 0.4436 0.0
C749 C 0.11931 0.15708 0.22499 0.0
C750 C 0.11788 0.15702 0.30014 0.0
H751 H 0.13982 0.15897 0.66189 0.0
H752 H 0.13689 0.16901 0.54478 0.0
H753 H 0.08841 0.15118 0.42741 0.0
H754 H 0.11317 0.12989 0.08943 0.0
H755 H 0.10511 0.13283 0.20972 0.0
C756 C 0.61784 0.34322 0.31379 0.0
C757 C 0.61744 0.35931 0.34829 0.0
C758 C 0.61325 0.34222 0.24505 0.0
C759 C 0.59555 0.36833 0.09838 0.0
H760 H 0.62639 0.33816 0.99477 0.0
C761 C 0.62558 0.36397 0.80978 0.0
C762 C 0.61102 0.37039 0.77422 0.0
C763 C 0.62412 0.35944 0.87865 0.0
C764 C 0.61774 0.34676 0.02269 0.0
H765 H 0.61093 0.38678 0.33943 0.0
H766 H 0.60353 0.3853 0.21894 0.0
H767 H 0.62714 0.33724 0.11803 0.0
H768 H 0.58326 0.37565 0.78023 0.0
H769 H 0.58042 0.36682 0.89871 0.0
H770 H 0.58717 0.37886 0.00325 0.0
C771 C 0.60697 0.37327 0.24483 0.0
C772 C 0.61792 0.34601 0.09383 0.0
C773 C 0.61121 0.37418 0.31412 0.0
C774 C 0.59474 0.37092 0.80693 0.0
C775 C 0.59318 0.36604 0.87512 0.0
C776 C 0.59559 0.36929 0.0273 0.0
C777 C 0.60857 0.35739 0.20868 0.0
C778 C 0.607 0.35697 0.13283 0.0
C779 C 0.60798 0.36096 0.91288 0.0
C780 C 0.60686 0.35869 0.98835 0.0
H781 H 0.62244 0.33151 0.33929 0.0
H782 H 0.61406 0.32964 0.21987 0.0
H783 H 0.58674 0.37678 0.12627 0.0
H784 H 0.63831 0.36356 0.78575 0.0
H785 H 0.63589 0.35571 0.90573 0.0
C786 C 0.38947 0.86023 0.14599 0.0
C787 C 0.40115 0.87291 0.17066 0.0
C788 C 0.39042 0.85459 0.07829 0.0
C789 C 0.41732 0.8585 0.91852 0.0
H790 H 0.37203 0.85351 0.83187 0.0
C791 C 0.40099 0.87183 0.63334 0.0
C792 C 0.38946 0.86001 0.60195 0.0
C793 C 0.40547 0.86978 0.7021 0.0
C794 C 0.3848 0.85463 0.85546 0.0
H795 H 0.4234 0.88917 0.14413 0.0
H796 H 0.42444 0.88018 0.02625 0.0
H797 H 0.37374 0.85608 0.95471 0.0
H798 H 0.37457 0.83611 0.61616 0.0
H799 H 0.38215 0.83272 0.73593 0.0
H800 H 0.42811 0.8582 0.81758 0.0
C801 C 0.41489 0.87404 0.05905 0.0
C802 C 0.38582 0.85598 0.92614 0.0
C803 C 0.41414 0.87939 0.12682 0.0
C804 C 0.38336 0.84554 0.6392 0.0
C805 C 0.38769 0.84357 0.70768 0.0
C806 C 0.41624 0.85748 0.84748 0.0
C807 C 0.4028 0.86185 0.0333 0.0
C808 C 0.40207 0.8582 0.95875 0.0
C809 C 0.39829 0.85598 0.74036 0.0
C810 C 0.39994 0.85571 0.81541 0.0
H811 H 0.37907 0.85529 0.1777 0.0
H812 H 0.38106 0.84495 0.06078 0.0
H813 H 0.4301 0.85984 0.94173 0.0
H814 H 0.40554 0.88327 0.60629 0.0
H815 H 0.41356 0.87961 0.72641 0.0
C816 C 0.12734 0.69183 0.26431 0.0
C817 C 0.14347 0.6831 0.26846 0.0
C818 C 0.1259 0.70939 0.28507 0.0
C819 C 0.15533 0.74761 0.29607 0.0
H820 H 0.114 0.77271 0.35484 0.0
C821 C 0.15722 0.82199 0.29964 0.0
C822 C 0.14296 0.83045 0.269 0.0
C823 C 0.15588 0.80457 0.321 0.0
C824 C 0.12566 0.76591 0.33828 0.0
H825 H 0.1702 0.68518 0.3034 0.0
H826 H 0.1675 0.71526 0.34343 0.0
H827 H 0.11408 0.7406 0.35499 0.0
H828 H 0.11575 0.82777 0.24073 0.0
H829 H 0.11342 0.79715 0.2765 0.0
H830 H 0.16676 0.77255 0.27672 0.0
C831 C 0.15608 0.70894 0.32193 0.0
C832 C 0.1257 0.74747 0.33839 0.0
C833 C 0.15758 0.69157 0.30016 0.0
C834 C 0.12686 0.82163 0.26532 0.0
C835 C 0.12559 0.80401 0.28555 0.0
C836 C 0.15528 0.76589 0.2959 0.0
C837 C 0.14056 0.71847 0.31076 0.0
C838 C 0.14055 0.73805 0.31689 0.0
C839 C 0.14037 0.79498 0.31039 0.0
C840 C 0.14045 0.77539 0.3166 0.0
H841 H 0.11636 0.6857 0.23878 0.0
H842 H 0.11373 0.71621 0.27556 0.0
H843 H 0.16684 0.74099 0.27703 0.0
H844 H 0.1698 0.82847 0.30273 0.0
H845 H 0.16739 0.7983 0.34196 0.0
C846 C 0.56649 0.90649 0.52389 0.0
C847 C 0.57873 0.89283 0.51969 0.0
C848 C 0.54945 0.90337 0.54585 0.0
C849 C 0.51371 0.8961 0.60011 0.0
H850 H 0.49407 0.85252 0.53495 0.0
C851 C 0.4397 0.89171 0.55605 0.0
C852 C 0.43454 0.8826 0.49741 0.0
C853 C 0.4565 0.88932 0.58341 0.0
C854 C 0.49921 0.86489 0.55282 0.0
H855 H 0.583 0.86533 0.54075 0.0
H856 H 0.55332 0.85993 0.58246 0.0
H857 H 0.52548 0.85626 0.53731 0.0
H858 H 0.44257 0.86368 0.42201 0.0
H859 H 0.47186 0.86011 0.46637 0.0
H860 H 0.48763 0.9055 0.6088 0.0
C861 C 0.55676 0.87304 0.56649 0.0
C862 C 0.51743 0.86691 0.55558 0.0
C863 C 0.57391 0.87617 0.54361 0.0
C864 C 0.44611 0.87052 0.46841 0.0
C865 C 0.46302 0.86848 0.49434 0.0
C866 C 0.49554 0.89429 0.59541 0.0
C867 C 0.54407 0.88648 0.56538 0.0
C868 C 0.52498 0.88284 0.57653 0.0
C869 C 0.4688 0.87835 0.55081 0.0
C870 C 0.48794 0.8789 0.56903 0.0
H871 H 0.56975 0.91951 0.50614 0.0
H872 H 0.54027 0.91411 0.54291 0.0
H873 H 0.51888 0.90835 0.61924 0.0
H874 H 0.43114 0.90144 0.57836 0.0
H875 H 0.46006 0.89682 0.62808 0.0
C876 C 0.39384 0.31932 0.67978 0.0
C877 C 0.38228 0.33097 0.71147 0.0
C878 C 0.39615 0.30236 0.70488 0.0
C879 C 0.37178 0.26951 0.80814 0.0
H880 H 0.41019 0.24026 0.74857 0.0
C881 C 0.36113 0.19846 0.73232 0.0
C882 C 0.37506 0.18654 0.72746 0.0
C883 C 0.36379 0.21542 0.75641 0.0
C884 C 0.39946 0.24812 0.76726 0.0
H885 H 0.36471 0.33446 0.79633 0.0
H886 H 0.36953 0.30518 0.84354 0.0
H887 H 0.41323 0.27182 0.74572 0.0
H888 H 0.40246 0.18259 0.75047 0.0
H889 H 0.40713 0.21223 0.7952 0.0
H890 H 0.35825 0.24583 0.83194 0.0
C891 C 0.37649 0.30884 0.79779 0.0
C892 C 0.40107 0.2664 0.7643 0.0
C893 C 0.37393 0.32579 0.77166 0.0
C894 C 0.39145 0.19147 0.75365 0.0
C895 C 0.39415 0.20858 0.77827 0.0
C896 C 0.37034 0.25127 0.81269 0.0
C897 C 0.38704 0.29656 0.76301 0.0
C898 C 0.38691 0.27741 0.78118 0.0
C899 C 0.3805 0.22106 0.77714 0.0
C900 C 0.38377 0.24024 0.78874 0.0
H901 H 0.40012 0.32291 0.63235 0.0
H902 H 0.40414 0.29349 0.67534 0.0
H903 H 0.36051 0.27726 0.82202 0.0
H904 H 0.3483 0.19506 0.71285 0.0
H905 H 0.3529 0.22442 0.75367 0.0
C906 C 0.94828 0.11296 0.00075 0.0
C907 C 0.9405 0.12738 0.96857 0.0
C908 C 0.96526 0.11414 0.02681 0.0
C909 C 1.00395 0.144 0.05207 0.0
H910 H 0.02893 0.1027 0.99181 0.0
C911 C 0.07787 0.14198 0.98051 0.0
C912 C 0.08646 0.12577 0.98464 0.0
C913 C 0.06038 0.14355 0.00136 0.0
C914 C 0.02227 0.11423 0.01068 0.0
H915 H 0.94374 0.1547 0.94283 0.0
H916 H 0.97367 0.15671 0.98627 0.0
H917 H 0.99746 0.10297 0.9884 0.0
H918 H 0.08434 0.09909 0.02023 0.0
H919 H 0.05435 0.102 0.06034 0.0
H920 H 0.02918 0.15543 0.07131 0.0
C921 C 0.9666 0.14456 0.99307 0.0
C922 C 1.00404 0.11438 0.00876 0.0
C923 C 0.94939 0.14346 0.96832 0.0
C924 C 0.07799 0.11174 0.01666 0.0
C925 C 0.06071 0.11337 0.03865 0.0
C926 C 0.02234 0.14385 0.05389 0.0
C927 C 0.9751 0.12961 0.0192 0.0
C928 C 0.99454 0.12928 0.02879 0.0
C929 C 0.05129 0.12894 0.02725 0.0
C930 C 0.03176 0.12898 0.03261 0.0
H931 H 0.94169 0.1004 0.0014 0.0
H932 H 0.9711 0.10251 0.04872 0.0
H933 H 0.99712 0.15569 0.06821 0.0
H934 H 0.08406 0.15293 0.95504 0.0
H935 H 0.05361 0.15575 0.99176 0.0
C936 C 0.15703 0.3184 0.71498 0.0
C937 C 0.14303 0.32938 0.73275 0.0
C938 C 0.15408 0.30109 0.69491 0.0
C939 C 0.12292 0.26583 0.72963 0.0
H940 H 0.15417 0.23931 0.61369 0.0
C941 C 0.12662 0.19029 0.74936 0.0
C942 C 0.14384 0.18439 0.75927 0.0
C943 C 0.12344 0.20725 0.7242 0.0
C944 C 0.14526 0.24649 0.64614 0.0
H945 H 0.11485 0.33119 0.73897 0.0
H946 H 0.1096 0.30078 0.7036 0.0
H947 H 0.154 0.27122 0.60747 0.0
H948 H 0.17112 0.191 0.74576 0.0
H949 H 0.16571 0.22012 0.70083 0.0
H950 H 0.11477 0.24115 0.77062 0.0
C951 C 0.12291 0.30559 0.70546 0.0
C952 C 0.14517 0.26482 0.64257 0.0
C953 C 0.12588 0.32308 0.72477 0.0
C954 C 0.15771 0.19515 0.73821 0.0
C955 C 0.15457 0.2119 0.71233 0.0
C956 C 0.12301 0.24748 0.73321 0.0
C957 C 0.13703 0.29417 0.69285 0.0
C958 C 0.13447 0.27479 0.68607 0.0
C959 C 0.13744 0.2185 0.70759 0.0
C960 C 0.13466 0.23758 0.69334 0.0
H961 H 0.17039 0.32285 0.72126 0.0
H962 H 0.16532 0.29277 0.68623 0.0
H963 H 0.11461 0.27301 0.76442 0.0
H964 H 0.11568 0.18235 0.7659 0.0
H965 H 0.11008 0.21183 0.72053 0.0
C966 C 0.06816 0.89555 0.03731 0.0
C967 C 0.08099 0.88338 0.05687 0.0
C968 C 0.05097 0.89019 0.02478 0.0
C969 C 0.01501 0.875 0.99081 0.0
H970 H 0.99858 0.85013 0.1505 0.0
C971 C 0.9412 0.86939 0.05203 0.0
C972 C 0.93765 0.87704 0.11558 0.0
C973 C 0.95837 0.8645 0.03504 0.0
C974 C 1.00296 0.85683 0.105 0.0
H975 H 0.08621 0.85586 0.07349 0.0
H976 H 0.05599 0.84645 0.05251 0.0
H977 H 0.02995 0.85263 0.12936 0.0
H978 H 0.94882 0.88431 0.21288 0.0
H979 H 0.97845 0.87514 0.18466 0.0
H980 H 0.98799 0.87996 0.96846 0.0
C981 C 0.05929 0.86015 0.04657 0.0
C982 C 0.02094 0.85817 0.09258 0.0
C983 C 0.07664 0.8655 0.05778 0.0
C984 C 0.95118 0.8783 0.16376 0.0
C985 C 0.96817 0.87306 0.14749 0.0
C986 C 0.997 0.87345 0.00275 0.0
C987 C 0.04612 0.87255 0.03276 0.0
C988 C 0.02721 0.86784 0.03673 0.0
C989 C 0.97213 0.8668 0.08201 0.0
C990 C 0.99079 0.86493 0.0614 0.0
H991 H 0.07114 0.90942 0.0367 0.0
H992 H 0.04119 0.90011 0.01462 0.0
H993 H 0.01941 0.88247 0.94721 0.0
H994 H 0.93103 0.8685 0.01368 0.0
H995 H 0.96102 0.85965 0.98428 0.0
C996 C 0.394 0.69214 0.26388 0.0
C997 C 0.37677 0.6862 0.27284 0.0
C998 C 0.39718 0.7092 0.24002 0.0
C999 C 0.37525 0.74906 0.16702 0.0
H1000 H 0.40514 0.77434 0.29272 0.0
C1001 C 0.36136 0.81884 0.25619 0.0
C1002 C 0.37505 0.83004 0.27574 0.0
C1003 C 0.36484 0.80206 0.23142 0.0
C1004 C 0.39706 0.76753 0.25589 0.0
H1005 H 0.34949 0.69274 0.25829 0.0
H1006 H 0.35491 0.72207 0.21581 0.0
H1007 H 0.4056 0.74247 0.2917 0.0
H1008 H 0.40319 0.83288 0.28038 0.0
H1009 H 0.40935 0.80332 0.23734 0.0
H1010 H 0.366 0.77415 0.13402 0.0
C1011 C 0.36606 0.71382 0.22708 0.0
C1012 C 0.39733 0.74918 0.25526 0.0
C1013 C 0.36291 0.69696 0.25161 0.0
C1014 C 0.39238 0.82456 0.26528 0.0
C1015 C 0.39589 0.80758 0.2413 0.0
C1016 C 0.37496 0.76739 0.16775 0.0
C1017 C 0.38318 0.72049 0.22386 0.0
C1018 C 0.38589 0.73968 0.21283 0.0
C1019 C 0.38212 0.79591 0.22634 0.0
C1020 C 0.38533 0.77686 0.21417 0.0
H1021 H 0.40492 0.68416 0.28044 0.0
H1022 H 0.41054 0.71385 0.23741 0.0
H1023 H 0.36651 0.7422 0.13268 0.0
H1024 H 0.34788 0.8227 0.26384 0.0
H1025 H 0.35388 0.79347 0.22105 0.0
C1026 C 0.57739 0.1323 0.47332 0.0
C1027 C 0.582 0.13888 0.5376 0.0
C1028 C 0.5602 0.13425 0.44864 0.0
C1029 C 0.51657 0.15514 0.49014 0.0
H1030 H 0.49805 0.11221 0.41384 0.0
C1031 C 0.45055 0.11206 0.5143 0.0
C1032 C 0.43797 0.1254 0.51913 0.0
C1033 C 0.46744 0.11562 0.49136 0.0
C1034 C 0.50294 0.12433 0.43524 0.0
H1035 H 0.57264 0.15324 0.6251 0.0
H1036 H 0.543 0.15648 0.58349 0.0
H1037 H 0.52945 0.11606 0.42336 0.0
H1038 H 0.43285 0.15272 0.49763 0.0
H1039 H 0.46238 0.15897 0.45556 0.0
H1040 H 0.49005 0.16275 0.50755 0.0
C1041 C 0.55242 0.15018 0.55057 0.0
C1042 C 0.52109 0.12667 0.43972 0.0
C1043 C 0.56949 0.14829 0.5748 0.0
C1044 C 0.44223 0.14214 0.49444 0.0
C1045 C 0.45926 0.14574 0.47126 0.0
C1046 C 0.49842 0.15268 0.48662 0.0
C1047 C 0.54727 0.14266 0.4882 0.0
C1048 C 0.52821 0.14182 0.46986 0.0
C1049 C 0.47233 0.13267 0.47213 0.0
C1050 C 0.49132 0.13692 0.46172 0.0
H1051 H 0.5866 0.12454 0.44449 0.0
H1052 H 0.55688 0.12846 0.4 0.0
H1053 H 0.52145 0.16722 0.51183 0.0
H1054 H 0.44769 0.09899 0.53262 0.0
H1055 H 0.47696 0.10515 0.49367 0.0
C1056 C 0.88289 0.20311 0.7129 0.0
C1057 C 0.89387 0.19055 0.74272 0.0
C1058 C 0.88925 0.21978 0.69734 0.0
C1059 C 0.91731 0.25103 0.77405 0.0
H1060 H 0.90541 0.27977 0.61819 0.0
C1061 C 0.91229 0.32631 0.7997 0.0
C1062 C 0.8965 0.33263 0.77279 0.0
C1063 C 0.91826 0.30949 0.78177 0.0
C1064 C 0.90889 0.27196 0.66219 0.0
H1065 H 0.92032 0.18509 0.77595 0.0
H1066 H 0.93136 0.21458 0.75083 0.0
H1067 H 0.90392 0.24793 0.60896 0.0
H1068 H 0.87513 0.32707 0.70377 0.0
H1069 H 0.88524 0.29818 0.67294 0.0
H1070 H 0.92067 0.27494 0.8294 0.0
C1071 C 0.91794 0.21138 0.73824 0.0
C1072 C 0.90815 0.25372 0.65658 0.0
C1073 C 0.91167 0.19449 0.75199 0.0
C1074 C 0.88738 0.32246 0.72506 0.0
C1075 C 0.89331 0.3059 0.70692 0.0
C1076 C 0.91775 0.2693 0.78008 0.0
C1077 C 0.9066 0.22434 0.71307 0.0
C1078 C 0.91168 0.2431 0.71322 0.0
C1079 C 0.90857 0.29891 0.73629 0.0
C1080 C 0.91272 0.28001 0.72511 0.0
H1081 H 0.86909 0.20043 0.70606 0.0
H1082 H 0.88019 0.22955 0.67846 0.0
H1083 H 0.91998 0.24314 0.81872 0.0
H1084 H 0.91944 0.33388 0.83711 0.0
H1085 H 0.93012 0.30457 0.80512 0.0
C1086 C 0.64985 0.82423 0.26294 0.0
C1087 C 0.63596 0.8316 0.29952 0.0
C1088 C 0.64854 0.80726 0.23675 0.0
C1089 C 0.6192 0.76798 0.21881 0.0
H1090 H 0.66146 0.74371 0.27299 0.0
C1091 C 0.62213 0.69482 0.2985 0.0
C1092 C 0.63833 0.68624 0.29515 0.0
C1093 C 0.62042 0.71206 0.27456 0.0
C1094 C 0.64965 0.75014 0.25566 0.0
H1095 H 0.60941 0.82762 0.33361 0.0
H1096 H 0.60715 0.79777 0.28938 0.0
H1097 H 0.6609 0.77522 0.27369 0.0
H1098 H 0.66483 0.68799 0.25778 0.0
H1099 H 0.66162 0.71746 0.21182 0.0
H1100 H 0.60781 0.74255 0.20357 0.0
C1101 C 0.61895 0.80516 0.27921 0.0
C1102 C 0.64932 0.76839 0.25612 0.0
C1103 C 0.62018 0.82231 0.3044 0.0
C1104 C 0.65219 0.69435 0.26076 0.0
C1105 C 0.65039 0.71136 0.23548 0.0
C1106 C 0.61953 0.74957 0.21821 0.0
C1107 C 0.63349 0.79707 0.24844 0.0
C1108 C 0.63405 0.77764 0.23875 0.0
C1109 C 0.63487 0.72089 0.24616 0.0
C1110 C 0.63472 0.74038 0.23769 0.0
H1111 H 0.66221 0.8311 0.2591 0.0
H1112 H 0.65983 0.80168 0.2116 0.0
H1113 H 0.60722 0.77463 0.20472 0.0
H1114 H 0.61134 0.68892 0.32578 0.0
H1115 H 0.60826 0.71889 0.28381 0.0
C1116 C 0.91025 0.69776 0.08114 0.0
C1117 C 0.90161 0.69222 0.14025 0.0
C1118 C 0.9169 0.71483 0.07666 0.0
C1119 C 0.92493 0.75609 0.17565 0.0
H1120 H 0.90753 0.7785 0.012 0.0
C1121 C 0.90198 0.82761 0.16648 0.0
C1122 C 0.90189 0.83667 0.10441 0.0
C1123 C 0.90869 0.81061 0.17042 0.0
C1124 C 0.91294 0.77253 0.0574 0.0
H1125 H 0.89383 0.69962 0.24196 0.0
H1126 H 0.90552 0.72927 0.23489 0.0
H1127 H 0.90743 0.74684 0.02 0.0
H1128 H 0.90962 0.83567 -0.00127 0.0
H1129 H 0.92194 0.80611 0.00563 0.0
H1130 H 0.92976 0.78192 0.21404 0.0
C1131 C 0.90747 0.72053 0.19214 0.0
C1132 C 0.91286 0.75426 0.06201 0.0
C1133 C 0.90077 0.70353 0.19638 0.0
C1134 C 0.90982 0.82901 0.04742 0.0
C1135 C 0.91662 0.81199 0.05129 0.0
C1136 C 0.92507 0.7744 0.17096 0.0
C1137 C 0.91495 0.72667 0.1312 0.0
C1138 C 0.91831 0.74579 0.12202 0.0
C1139 C 0.91536 0.80224 0.11206 0.0
C1140 C 0.91852 0.78291 0.11261 0.0
H1141 H 0.91077 0.68932 0.03685 0.0
H1142 H 0.92277 0.71905 0.02927 0.0
H1143 H 0.92948 0.75 0.22224 0.0
H1144 H 0.89556 0.83315 0.21068 0.0
H1145 H 0.90729 0.80356 0.21792 0.0
C1146 C 0.65611 0.19972 0.75063 0.0
C1147 C 0.64247 0.18836 0.73221 0.0
C1148 C 0.65261 0.21683 0.77168 0.0
C1149 C 0.61997 0.25072 0.73728 0.0
H1150 H 0.65187 0.27887 0.84508 0.0
C1151 C 0.62271 0.32556 0.70228 0.0
C1152 C 0.6397 0.33091 0.68478 0.0
C1153 C 0.61997 0.30925 0.73362 0.0
C1154 C 0.64273 0.27121 0.81522 0.0
H1155 H 0.61436 0.18552 0.72644 0.0
H1156 H 0.60811 0.21553 0.76402 0.0
H1157 H 0.65224 0.24704 0.85633 0.0
H1158 H 0.66715 0.32428 0.69185 0.0
H1159 H 0.66249 0.29628 0.74776 0.0
H1160 H 0.61102 0.27484 0.69393 0.0
C1161 C 0.62158 0.21122 0.76161 0.0
C1162 C 0.64296 0.25294 0.82152 0.0
C1163 C 0.62513 0.19396 0.741 0.0
C1164 C 0.65392 0.3205 0.705 0.0
C1165 C 0.65122 0.30443 0.73719 0.0
C1166 C 0.61968 0.269 0.73126 0.0
C1167 C 0.63533 0.22311 0.7743 0.0
C1168 C 0.63214 0.24239 0.78037 0.0
C1169 C 0.6342 0.29819 0.74904 0.0
C1170 C 0.63158 0.27943 0.76797 0.0
H1171 H 0.66961 0.19578 0.74383 0.0
H1172 H 0.66359 0.22551 0.78032 0.0
H1173 H 0.61154 0.24311 0.70424 0.0
H1174 H 0.6115 0.33326 0.68672 0.0
H1175 H 0.6067 0.3049 0.74263 0.0
C1176 C 0.95331 0.3717 0.73822 0.0
C1177 C 0.93907 0.37115 0.78317 0.0
C1178 C 0.97029 0.36865 0.76169 0.0
C1179 C 0.99924 0.35445 0.90156 0.0
H1180 H 0.02517 0.39606 0.85061 0.0
C1181 C 0.06807 0.39552 0.94916 0.0
C1182 C 0.08059 0.38305 0.92977 0.0
C1183 C 0.0503 0.39127 0.9495 0.0
C1184 C 0.01812 0.38443 0.86609 0.0
H1185 H 0.93125 0.36527 0.88656 0.0
H1186 H 0.96111 0.3598 0.92781 0.0
H1187 H 0.99556 0.39206 0.80919 0.0
H1188 H 0.08453 0.35584 0.90319 0.0
H1189 H 0.05335 0.34838 0.90353 0.0
H1190 H 0.02227 0.34679 0.95773 0.0
C1191 C 0.95907 0.36255 0.87428 0.0
C1192 C 1.00118 0.38202 0.84149 0.0
C1193 C 0.94195 0.36557 0.85055 0.0
C1194 C 0.07518 0.36566 0.91915 0.0
C1195 C 0.05728 0.36142 0.91883 0.0
C1196 C 0.01648 0.35675 0.92556 0.0
C1197 C 0.97346 0.36508 0.83083 0.0
C1198 C 0.99154 0.36699 0.85839 0.0
C1199 C 0.04463 0.37451 0.92961 0.0
C1200 C 0.02606 0.37186 0.90826 0.0
H1201 H 0.95149 0.37597 0.68607 0.0
H1202 H 0.98109 0.37039 0.72673 0.0
H1203 H 0.99208 0.34277 0.91561 0.0
H1204 H 0.07188 0.40902 0.95745 0.0
H1205 H 0.0409 0.40155 0.95961 0.0
C1206 C 0.44202 0.61366 0.5367 0.0
C1207 C 0.43408 0.62768 0.50258 0.0
C1208 C 0.45899 0.61525 0.56249 0.0
C1209 C 0.49719 0.64573 0.58572 0.0
H1210 H 0.52289 0.60431 0.53178 0.0
C1211 C 0.57152 0.64399 0.52102 0.0
C1212 C 0.5802 0.62786 0.52683 0.0
C1213 C 0.55392 0.64553 0.54044 0.0
C1214 C 0.51603 0.61589 0.54892 0.0
H1215 H 0.43704 0.65475 0.47262 0.0
H1216 H 0.46698 0.65749 0.51578 0.0
H1217 H 0.49144 0.60422 0.52588 0.0
H1218 H 0.57811 0.60134 0.56429 0.0
H1219 H 0.54792 0.60424 0.60214 0.0
H1220 H 0.5222 0.65755 0.60594 0.0
C1221 C 0.46003 0.64534 0.52426 0.0
C1222 C 0.49781 0.61584 0.54551 0.0
C1223 C 0.44283 0.64382 0.49965 0.0
C1224 C 0.5717 0.61393 0.55941 0.0
C1225 C 0.5543 0.61555 0.58005 0.0
C1226 C 0.51557 0.64578 0.58911 0.0
C1227 C 0.46865 0.63075 0.55279 0.0
C1228 C 0.48806 0.63076 0.5633 0.0
C1229 C 0.54481 0.63097 0.56665 0.0
C1230 C 0.52525 0.63086 0.57023 0.0
H1231 H 0.43553 0.60107 0.53942 0.0
H1232 H 0.46494 0.60391 0.58614 0.0
H1233 H 0.49015 0.65746 0.60009 0.0
H1234 H 0.57774 0.65485 0.49511 0.0
H1235 H 0.54712 0.65762 0.52936 0.0
C1236 C 0.43883 0.37925 0.46167 0.0
C1237 C 0.43517 0.3952 0.49437 0.0
C1238 C 0.45506 0.3766 0.42969 0.0
C1239 C 0.49433 0.36988 0.41914 0.0
H1240 H 0.52298 0.40956 0.36867 0.0
C1241 C 0.56754 0.3712 0.47723 0.0
C1242 C 0.57815 0.3845 0.45088 0.0
C1243 C 0.55014 0.36954 0.45623 0.0
C1244 C 0.51535 0.39807 0.38088 0.0
H1245 H 0.44513 0.42125 0.51465 0.0
H1246 H 0.47314 0.4166 0.46223 0.0
H1247 H 0.49173 0.41281 0.37375 0.0
H1248 H 0.57959 0.40551 0.37758 0.0
H1249 H 0.54975 0.40169 0.3357 0.0
H1250 H 0.51787 0.35488 0.42291 0.0
C1251 C 0.46368 0.4061 0.4592 0.0
C1252 C 0.49721 0.40009 0.38528 0.0
C1253 C 0.44753 0.40876 0.49023 0.0
C1254 C 0.57166 0.39503 0.39818 0.0
C1255 C 0.55437 0.39303 0.37544 0.0
C1256 C 0.51246 0.3677 0.41265 0.0
C1257 C 0.46801 0.3898 0.43027 0.0
C1258 C 0.48651 0.38634 0.40853 0.0
C1259 C 0.54295 0.38099 0.40721 0.0
C1260 C 0.52343 0.38203 0.39733 0.0
H1261 H 0.42966 0.36848 0.46441 0.0
H1262 H 0.45768 0.36397 0.40688 0.0
H1263 H 0.48668 0.35884 0.43657 0.0
H1264 H 0.57218 0.36317 0.51904 0.0
H1265 H 0.54209 0.36019 0.48309 0.0
C1266 C 0.06873 0.61956 0.04382 0.0
C1267 C 0.08189 0.63158 0.06115 0.0
C1268 C 0.05128 0.62485 0.03994 0.0
C1269 C 0.01948 0.66156 0.04707 0.0
H1270 H 0.99535 0.62999 0.16973 0.0
C1271 C 0.95296 0.65265 0.22159 0.0
C1272 C 0.93957 0.65295 0.17259 0.0
C1273 C 0.97038 0.65486 0.20245 0.0
C1274 C 1.00188 0.63903 0.13571 0.0
H1275 H 0.08738 0.65894 0.08043 0.0
H1276 H 0.05671 0.66825 0.07406 0.0
H1277 H 0.02518 0.62371 0.13649 0.0
H1278 H 0.93371 0.65771 0.06631 0.0
H1279 H 0.96439 0.66155 0.03249 0.0
H1280 H 0.99574 0.67683 0.04684 0.0
C1281 C 0.05992 0.65473 0.06313 0.0
C1282 C 0.01895 0.63529 0.11581 0.0
C1283 C 0.07752 0.64942 0.06638 0.0
C1284 C 0.94376 0.65759 0.10525 0.0
C1285 C 0.96134 0.65968 0.08583 0.0
C1286 C 1.00212 0.6652 0.06639 0.0
C1287 C 0.04655 0.64227 0.05413 0.0
C1288 C 0.02802 0.64645 0.07131 0.0
C1289 C 0.97486 0.65724 0.13369 0.0
C1290 C 0.99323 0.65404 0.11168 0.0
H1291 H 0.07173 0.60574 0.03936 0.0
H1292 H 0.04132 0.61501 0.03131 0.0
H1293 H 0.02616 0.67044 0.01292 0.0
H1294 H 0.95009 0.6491 0.27382 0.0
H1295 H 0.98048 0.65328 0.24074 0.0
C1296 C 0.15415 0.55711 0.15656 0.0
C1297 C 0.15497 0.5732 0.12188 0.0
C1298 C 0.15917 0.54151 0.12461 0.0
C1299 C 0.15805 0.52237 0.95577 0.0
H1300 H 0.18172 0.48293 0.03911 0.0
C1301 C 0.15577 0.45534 0.82301 0.0
C1302 C 0.15396 0.44046 0.86429 0.0
C1303 C 0.16089 0.47144 0.85091 0.0
C1304 C 0.17489 0.49369 0.01508 0.0
H1305 H 0.16266 0.58564 0.02763 0.0
H1306 H 0.17117 0.55826 0.97097 0.0
H1307 H 0.18185 0.51139 0.09592 0.0
H1308 H 0.15683 0.43056 0.96678 0.0
H1309 H 0.165 0.45867 0.01649 0.0
H1310 H 0.14995 0.50479 0.8776 0.0
C1311 C 0.16674 0.55778 0.02328 0.0
C1312 C 0.17512 0.5101 0.0476 0.0
C1313 C 0.16207 0.57349 0.05594 0.0
C1314 C 0.1584 0.44176 0.9335 0.0
C1315 C 0.16307 0.45801 0.96198 0.0
C1316 C 0.15753 0.50595 0.92394 0.0
C1317 C 0.1648 0.54153 0.05653 0.0
C1318 C 0.16654 0.52461 0.01868 0.0
C1319 C 0.16373 0.47331 0.92156 0.0
C1320 C 0.16577 0.49121 0.95326 0.0
H1321 H 0.14863 0.55645 0.20727 0.0
H1322 H 0.15742 0.52928 0.15167 0.0
H1323 H 0.15102 0.53315 0.93263 0.0
H1324 H 0.1524 0.45472 0.76944 0.0
H1325 H 0.16189 0.48257 0.81708 0.0
C1326 C 0.69399 0.90693 0.38292 0.0
C1327 C 0.69148 0.89646 0.44089 0.0
C1328 C 0.71095 0.9114 0.36195 0.0
C1329 C 0.75837 0.91009 0.40965 0.0
H1330 H 0.76447 0.89405 0.22392 0.0
C1331 C 0.81349 0.8749 0.23539 0.0
C1332 C 0.82692 0.88725 0.22639 0.0
C1333 C 0.79786 0.87953 0.26709 0.0
C1334 C 0.76296 0.89877 0.27561 0.0
H1335 H 0.70456 0.88407 0.52618 0.0
H1336 H 0.73395 0.89203 0.49036 0.0
H1337 H 0.73508 0.89806 0.26886 0.0
H1338 H 0.83465 0.91407 0.24652 0.0
H1339 H 0.80732 0.922 0.30493 0.0
H1340 H 0.78649 0.91014 0.41632 0.0
C1341 C 0.72296 0.89672 0.46065 0.0
C1342 C 0.74612 0.90124 0.30123 0.0
C1343 C 0.70609 0.8921 0.48109 0.0
C1344 C 0.8247 0.90416 0.25369 0.0
C1345 C 0.80903 0.90875 0.28656 0.0
C1346 C 0.77531 0.90786 0.38351 0.0
C1347 C 0.72567 0.90567 0.39906 0.0
C1348 C 0.74357 0.90644 0.36915 0.0
C1349 C 0.79527 0.8966 0.29134 0.0
C1350 C 0.77771 0.90164 0.31688 0.0
H1351 H 0.68302 0.91042 0.35069 0.0
H1352 H 0.71259 0.91849 0.31464 0.0
H1353 H 0.75685 0.91416 0.46213 0.0
H1354 H 0.81475 0.86175 0.2153 0.0
H1355 H 0.78755 0.86985 0.27097 0.0
C1356 C 0.3604 0.45541 0.66223 0.0
C1357 C 0.36222 0.44144 0.61642 0.0
C1358 C 0.35441 0.47175 0.63985 0.0
C1359 C 0.33913 0.4965 0.48282 0.0
H1360 H 0.36372 0.5345 0.57224 0.0
C1361 C 0.36366 0.56043 0.35618 0.0
C1362 C 0.36256 0.57614 0.39324 0.0
C1363 C 0.35751 0.54471 0.38385 0.0
C1364 C 0.35647 0.52411 0.54732 0.0
H1365 H 0.35827 0.43326 0.51214 0.0
H1366 H 0.3488 0.46182 0.47184 0.0
H1367 H 0.36452 0.5055 0.62156 0.0
H1368 H 0.35308 0.58792 0.48639 0.0
H1369 H 0.34275 0.56028 0.53577 0.0
H1370 H 0.33249 0.51526 0.40532 0.0
C1371 C 0.35134 0.46028 0.52571 0.0
C1372 C 0.35682 0.50734 0.57586 0.0
C1373 C 0.35678 0.44376 0.54875 0.0
C1374 C 0.35398 0.57604 0.45645 0.0
C1375 C 0.3482 0.56021 0.48491 0.0
C1376 C 0.33915 0.51326 0.45342 0.0
C1377 C 0.35078 0.47477 0.57034 0.0
C1378 C 0.34842 0.49311 0.54363 0.0
C1379 C 0.35047 0.5443 0.44983 0.0
C1380 C 0.34804 0.52719 0.48494 0.0
H1381 H 0.36444 0.45393 0.71483 0.0
H1382 H 0.35346 0.4822 0.67683 0.0
H1383 H 0.33213 0.48615 0.45682 0.0
H1384 H 0.37024 0.56012 0.30739 0.0
H1385 H 0.35953 0.53268 0.35572 0.0
C1386 C 0.83043 0.1086 0.78081 0.0
C1387 C 0.83128 0.12123 0.8328 0.0
C1388 C 0.81415 0.10218 0.75827 0.0
C1389 C 0.7786 0.10214 0.68623 0.0
H1390 H 0.73783 0.10432 0.80265 0.0
C1391 C 0.7112 0.121 0.5817 0.0
C1392 C 0.69582 0.11732 0.61809 0.0
C1393 C 0.72749 0.1154 0.60548 0.0
C1394 C 0.74895 0.10323 0.76899 0.0
H1395 H 0.81577 0.13611 0.90465 0.0
H1396 H 0.78786 0.12551 0.86511 0.0
H1397 H 0.76672 0.10443 0.85299 0.0
H1398 H 0.68548 0.10396 0.70636 0.0
H1399 H 0.71385 0.0932 0.74619 0.0
H1400 H 0.76082 0.1004 0.60231 0.0
C1401 C 0.7995 0.12015 0.84183 0.0
C1402 C 0.76569 0.10363 0.79809 0.0
C1403 C 0.81564 0.12643 0.86433 0.0
C1404 C 0.69703 0.10675 0.67642 0.0
C1405 C 0.71341 0.10091 0.69997 0.0
C1406 C 0.76184 0.10138 0.65716 0.0
C1407 C 0.79837 0.10829 0.78714 0.0
C1408 C 0.7808 0.10396 0.75708 0.0
C1409 C 0.729 0.10577 0.66637 0.0
C1410 C 0.74671 0.10276 0.69781 0.0
H1411 H 0.84219 0.10448 0.75481 0.0
H1412 H 0.81393 0.09286 0.71677 0.0
H1413 H 0.78977 0.10229 0.65249 0.0
H1414 H 0.71076 0.1292 0.53672 0.0
H1415 H 0.73896 0.11973 0.5781 0.0
C1416 C 0.87092 0.57833 0.03356 0.0
C1417 C 0.88797 0.58448 0.04527 0.0
C1418 C 0.86827 0.56165 0.0054 0.0
C1419 C 0.8909 0.52507 0.9175 0.0
H1420 H 0.86296 0.49464 0.03234 0.0
C1421 C 0.9042 0.45262 0.91821 0.0
C1422 C 0.88996 0.44173 0.90284 0.0
C1423 C 0.90149 0.46981 0.93919 0.0
C1424 C 0.87063 0.50302 -0.00057 0.0
H1425 H 0.91548 0.57896 0.03177 0.0
H1426 H 0.91097 0.55032 0.98096 0.0
H1427 H 0.86192 0.52648 0.04902 0.0
H1428 H 0.86173 0.43957 0.90438 0.0
H1429 H 0.85693 0.4699 0.94183 0.0
H1430 H 0.90012 0.50174 0.86956 0.0
C1431 C 0.8996 0.55809 0.99376 0.0
C1432 C 0.86995 0.52123 0.00854 0.0
C1433 C 0.90222 0.57451 0.02281 0.0
C1434 C 0.87293 0.4477 0.91631 0.0
C1435 C 0.87019 0.46508 0.93715 0.0
C1436 C 0.89164 0.50698 0.90869 0.0
C1437 C 0.88265 0.55113 0.9874 0.0
C1438 C 0.88052 0.53239 0.96899 0.0
C1439 C 0.88447 0.47653 0.94483 0.0
C1440 C 0.88198 0.49573 0.951 0.0
H1441 H 0.85974 0.58575 0.0512 0.0
H1442 H 0.85507 0.55667 0.00045 0.0
H1443 H 0.89896 0.53332 0.88551 0.0
H1444 H 0.91746 0.44827 0.90865 0.0
H1445 H 0.91275 0.47822 0.94671 0.0
C1446 C 0.21305 0.11805 0.90016 0.0
C1447 C 0.19685 0.11324 0.87186 0.0
C1448 C 0.2287 0.11185 0.87279 0.0
C1449 C 0.24603 0.09603 0.70816 0.0
H1450 H 0.2894 0.09723 0.81041 0.0
C1451 C 0.31038 0.11813 0.58702 0.0
C1452 C 0.32661 0.11386 0.61645 0.0
C1453 C 0.29477 0.11187 0.61467 0.0
C1454 C 0.27751 0.09644 0.78061 0.0
H1455 H 0.1844 0.09682 0.79601 0.0
H1456 H 0.21181 0.08547 0.74914 0.0
H1457 H 0.26179 0.09617 0.87049 0.0
H1458 H 0.33908 0.09844 0.69539 0.0
H1459 H 0.31187 0.08679 0.74186 0.0
H1460 H 0.26176 0.09596 0.61825 0.0
C1461 C 0.21241 0.09449 0.7916 0.0
C1462 C 0.26153 0.09613 0.81538 0.0
C1463 C 0.19664 0.10079 0.8191 0.0
C1464 C 0.32687 0.10194 0.67099 0.0
C1465 C 0.31117 0.09549 0.69844 0.0
C1466 C 0.26202 0.09604 0.67336 0.0
C1467 C 0.2287 0.10049 0.81636 0.0
C1468 C 0.24552 0.09677 0.77977 0.0
C1469 C 0.29483 0.10094 0.6724 0.0
C1470 C 0.27802 0.09708 0.70896 0.0
H1471 H 0.21373 0.12755 0.94107 0.0
H1472 H 0.24079 0.11702 0.89332 0.0
H1473 H 0.2341 0.0965 0.67847 0.0
H1474 H 0.30963 0.12724 0.54483 0.0
H1475 H 0.28264 0.11662 0.59309 0.0
C1476 C 0.66547 0.57574 0.46081 0.0
C1477 C 0.65414 0.57745 0.40478 0.0
C1478 C 0.67211 0.55918 0.479 0.0
C1479 C 0.67262 0.51161 0.42241 0.0
H1480 H 0.66921 0.50282 0.61595 0.0
C1481 C 0.64584 0.45434 0.61005 0.0
C1482 C 0.65023 0.43935 0.5722 0.0
C1483 C 0.65286 0.47068 0.59395 0.0
C1484 C 0.6701 0.50494 0.56157 0.0
H1485 H 0.64231 0.56353 0.3203 0.0
H1486 H 0.6533 0.53515 0.35194 0.0
H1487 H 0.66954 0.5327 0.57476 0.0
H1488 H 0.6664 0.42972 0.49002 0.0
H1489 H 0.6794 0.45821 0.46358 0.0
H1490 H 0.67144 0.48389 0.40872 0.0
C1491 C 0.65741 0.54625 0.3822 0.0
C1492 C 0.67064 0.52224 0.53784 0.0
C1493 C 0.65092 0.56266 0.36409 0.0
C1494 C 0.66286 0.44094 0.5207 0.0
C1495 C 0.67008 0.45739 0.50484 0.0
C1496 C 0.67166 0.49431 0.44602 0.0
C1497 C 0.66752 0.54404 0.44153 0.0
C1498 C 0.67111 0.52588 0.46759 0.0
C1499 C 0.6647 0.47265 0.53973 0.0
C1500 C 0.6696 0.49071 0.51585 0.0
H1501 H 0.66816 0.58688 0.49332 0.0
H1502 H 0.68018 0.55817 0.52417 0.0
H1503 H 0.67365 0.51373 0.36807 0.0
H1504 H 0.6362 0.45363 0.65028 0.0
H1505 H 0.64803 0.48191 0.62177 0.0
C1506 C 0.32346 0.90968 0.31211 0.0
C1507 C 0.32557 0.90512 0.3808 0.0
C1508 C 0.3072 0.91546 0.28777 0.0
C1509 C 0.26013 0.91204 0.33792 0.0
H1510 H 0.25301 0.93404 0.16223 0.0
C1511 C 0.19199 0.91334 0.21478 0.0
C1512 C 0.19209 0.90393 0.15327 0.0
C1513 C 0.20769 0.91963 0.24272 0.0
C1514 C 0.25479 0.92805 0.21175 0.0
H1515 H 0.31307 0.90473 0.47933 0.0
H1516 H 0.28527 0.91632 0.43878 0.0
H1517 H 0.28198 0.93461 0.21482 0.0
H1518 H 0.20833 0.89535 0.06946 0.0
H1519 H 0.23553 0.90686 0.11685 0.0
H1520 H 0.23292 0.90552 0.33451 0.0
C1521 C 0.29567 0.91448 0.40224 0.0
C1522 C 0.27146 0.92819 0.24181 0.0
C1523 C 0.31174 0.90816 0.42603 0.0
C1524 C 0.20786 0.90255 0.11695 0.0
C1525 C 0.22345 0.90917 0.14408 0.0
C1526 C 0.24345 0.91226 0.30861 0.0
C1527 C 0.29277 0.9172 0.33203 0.0
C1528 C 0.27456 0.91969 0.30452 0.0
C1529 C 0.22367 0.917 0.2088 0.0
C1530 C 0.24067 0.91981 0.24437 0.0
H1531 H 0.33387 0.90719 0.27602 0.0
H1532 H 0.30573 0.91726 0.23343 0.0
H1533 H 0.26174 0.90496 0.3852 0.0
H1534 H 0.18007 0.91451 0.24416 0.0
H1535 H 0.20747 0.92571 0.29254 0.0
C1536 C 0.66608 0.94861 0.38386 0.0
C1537 C 0.65808 0.9381 0.4333 0.0
C1538 C 0.67239 0.96528 0.40079 0.0
C1539 C 0.67649 0.99765 0.54648 0.0
H1540 H 0.66266 0.03036 0.40562 0.0
C1541 C 0.66748 0.07229 0.60072 0.0
C1542 C 0.65163 0.07888 0.57515 0.0
C1543 C 0.67371 0.05584 0.57921 0.0
C1544 C 0.66664 0.02145 0.44565 0.0
H1545 H 0.65119 0.93622 0.53963 0.0
H1546 H 0.66151 0.96536 0.56916 0.0
H1547 H 0.66437 0.99952 0.3794 0.0
H1548 H 0.63025 0.07382 0.50542 0.0
H1549 H 0.64088 0.04557 0.46822 0.0
H1550 H 0.67729 0.01974 0.61395 0.0
C1551 C 0.66359 0.96078 0.51768 0.0
C1552 C 0.66791 1.00363 0.43032 0.0
C1553 C 0.65767 0.94396 0.50093 0.0
C1554 C 0.64256 0.06912 0.52587 0.0
C1555 C 0.64876 0.05292 0.50413 0.0
C1556 C 0.67501 0.01554 0.56202 0.0
C1557 C 0.67023 0.97207 0.46709 0.0
C1558 C 0.67227 0.99131 0.48098 0.0
C1559 C 0.66425 0.04583 0.53121 0.0
C1560 C 0.6694 0.02757 0.51234 0.0
H1561 H 0.66637 0.94442 0.33115 0.0
H1562 H 0.67795 0.97324 0.3607 0.0
H1563 H 0.6803 0.98872 0.58667 0.0
H1564 H 0.67454 0.07934 0.63972 0.0
H1565 H 0.6857 0.05081 0.60109 0.0
C1566 C 0.19234 0.41204 0.77886 0.0
C1567 C 0.19249 0.40344 0.84213 0.0
C1568 C 0.20805 0.41777 0.74949 0.0
C1569 C 0.25507 0.4266 0.77642 0.0
H1570 H 0.26184 0.39951 0.61194 0.0
C1571 C 0.32402 0.40847 0.67783 0.0
C1572 C 0.32596 0.4024 0.61087 0.0
C1573 C 0.3076 0.41388 0.70162 0.0
C1574 C 0.26028 0.40769 0.65647 0.0
H1575 H 0.20881 0.39579 0.92733 0.0
H1576 H 0.23603 0.40646 0.87742 0.0
H1577 H 0.23316 0.40094 0.66309 0.0
H1578 H 0.31286 0.3989 0.51421 0.0
H1579 H 0.28472 0.40982 0.55313 0.0
H1580 H 0.28212 0.43354 0.7699 0.0
C1581 C 0.2239 0.40851 0.84997 0.0
C1582 C 0.24369 0.40839 0.68609 0.0
C1583 C 0.2083 0.4024 0.87856 0.0
C1584 C 0.31166 0.40342 0.56629 0.0
C1585 C 0.29541 0.4094 0.58927 0.0
C1586 C 0.27164 0.42629 0.74581 0.0
C1587 C 0.22406 0.41544 0.78373 0.0
C1588 C 0.24098 0.41747 0.74725 0.0
C1589 C 0.29282 0.41379 0.65834 0.0
C1590 C 0.27468 0.41639 0.68625 0.0
H1591 H 0.18039 0.41289 0.74935 0.0
H1592 H 0.2078 0.42313 0.69843 0.0
H1593 H 0.25333 0.43373 0.82361 0.0
H1594 H 0.33483 0.40763 0.71345 0.0
H1595 H 0.30641 0.417 0.75512 0.0
C1596 C 0.86144 0.9466 0.97215 0.0
C1597 C 0.87915 0.94406 0.98869 0.0
C1598 C 0.85616 0.96169 0.93678 0.0
C1599 C 0.87289 0.99836 0.83182 0.0
H1600 H 0.83791 0.02681 0.92202 0.0
C1601 C 0.86208 0.07529 0.87602 0.0
C1602 C 0.86825 0.08091 0.8125 0.0
C1603 C 0.85713 0.05778 0.88546 0.0
C1604 C 0.84761 0.019 0.89587 0.0
H1605 H 0.90526 0.95466 0.97839 0.0
H1606 H 0.8962 0.9806 0.91584 0.0
H1607 H 0.84254 0.99649 0.9583 0.0
H1608 H 0.872 0.07356 0.70724 0.0
H1609 H 0.86236 0.04339 0.72234 0.0
H1610 H 0.87892 0.02089 0.77257 0.0
C1611 C 0.88633 0.97112 0.93004 0.0
C1612 C 0.85014 1.00157 0.91619 0.0
C1613 C 0.89154 0.95628 0.96612 0.0
C1614 C 0.8673 0.06947 0.75677 0.0
C1615 C 0.86202 0.05212 0.76577 0.0
C1616 C 0.87038 0.01568 0.81151 0.0
C1617 C 0.86856 0.97425 0.91643 0.0
C1618 C 0.86326 0.99128 0.88597 0.0
C1619 C 0.85809 0.04572 0.83117 0.0
C1620 C 0.8581 0.02646 0.84466 0.0
H1621 H 0.85162 0.93742 0.98952 0.0
H1622 H 0.84238 0.96373 0.92671 0.0
H1623 H 0.88298 0.99071 0.80713 0.0
H1624 H 0.86291 0.08385 0.9199 0.0
H1625 H 0.85418 0.05341 0.9366 0.0
C1626 C 0.21041 0.61636 0.11193 0.0
C1627 C 0.19439 0.61165 0.14171 0.0
C1628 C 0.22617 0.60976 0.137 0.0
C1629 C 0.24427 0.59355 0.29953 0.0
H1630 H 0.28716 0.59526 0.19503 0.0
C1631 C 0.30824 0.61826 0.41429 0.0
C1632 C 0.32449 0.61409 0.38521 0.0
C1633 C 0.29276 0.61124 0.38826 0.0
C1634 C 0.2754 0.59431 0.22537 0.0
H1635 H 0.18229 0.59492 0.21716 0.0
H1636 H 0.2099 0.58292 0.26009 0.0
H1637 H 0.25925 0.5938 0.13633 0.0
H1638 H 0.33725 0.59809 0.30902 0.0
H1639 H 0.31018 0.58529 0.26469 0.0
H1640 H 0.26042 0.59388 0.38857 0.0
C1641 C 0.21029 0.59215 0.2183 0.0
C1642 C 0.25927 0.59376 0.19146 0.0
C1643 C 0.19441 0.59884 0.19308 0.0
C1644 C 0.32498 0.60154 0.33287 0.0
C1645 C 0.30939 0.5944 0.3068 0.0
C1646 C 0.26041 0.59382 0.33344 0.0
C1647 C 0.22645 0.59812 0.19255 0.0
C1648 C 0.24343 0.59429 0.22796 0.0
C1649 C 0.29299 0.59969 0.33242 0.0
C1650 C 0.2762 0.59512 0.29693 0.0
H1651 H 0.21089 0.62612 0.07194 0.0
H1652 H 0.23817 0.61489 0.11575 0.0
H1653 H 0.23248 0.59393 0.32987 0.0
H1654 H 0.30736 0.62783 0.45488 0.0
H1655 H 0.28055 0.6159 0.40932 0.0
C1656 C 0.3677 0.9566 0.3614 0.0
C1657 C 0.36537 0.94084 0.39721 0.0
C1658 C 0.36184 0.97249 0.38856 0.0
C1659 C 0.35943 0.99305 0.5513 0.0
H1660 H 0.33629 0.03136 0.45846 0.0
C1661 C 0.36277 0.0617 0.66829 0.0
C1662 C 0.36481 0.07579 0.62323 0.0
C1663 C 0.35711 0.04535 0.64464 0.0
C1664 C 0.34297 0.02093 0.48512 0.0
H1665 H 0.35416 0.92922 0.48772 0.0
H1666 H 0.34439 0.95716 0.53645 0.0
H1667 H 0.33676 1.00231 0.4065 0.0
H1668 H 0.36164 0.08416 0.5188 0.0
H1669 H 0.3528 0.05559 0.47637 0.0
H1670 H 0.36709 0.0115 0.62682 0.0
C1671 C 0.35053 0.95713 0.4868 0.0
C1672 C 0.34304 1.0042 0.45545 0.0
C1673 C 0.356 0.94114 0.45871 0.0
C1674 C 0.36 0.07354 0.5548 0.0
C1675 C 0.35489 0.05703 0.53056 0.0
C1676 C 0.35976 0.0098 0.58014 0.0
C1677 C 0.35389 0.97301 0.45291 0.0
C1678 C 0.35148 0.99014 0.48788 0.0
C1679 C 0.35403 0.04244 0.57465 0.0
C1680 C 0.35178 0.02416 0.54715 0.0
H1681 H 0.37492 0.95677 0.314 0.0
H1682 H 0.36471 0.9845 0.36147 0.0
H1683 H 0.36631 0.98254 0.57694 0.0
H1684 H 0.36631 0.06312 0.72146 0.0
H1685 H 0.35592 0.03483 0.68119 0.0
C1686 C 0.81732 0.65114 0.30467 0.0
C1687 C 0.83005 0.63897 0.28448 0.0
C1688 C 0.80205 0.64564 0.33717 0.0
C1689 C 0.77239 0.60823 0.34368 0.0
H1690 H 0.74968 0.63605 0.48272 0.0
C1691 C 0.70254 0.61836 0.49946 0.0
C1692 C 0.69093 0.61814 0.44401 0.0
C1693 C 0.72041 0.61549 0.48977 0.0
C1694 C 0.75585 0.62784 0.44479 0.0
H1695 H 0.83703 0.61148 0.28483 0.0
H1696 H 0.81017 0.6018 0.34182 0.0
H1697 H 0.77988 0.64208 0.45292 0.0
H1698 H 0.68858 0.61319 0.33601 0.0
H1699 H 0.71988 0.6084 0.3184 0.0
H1700 H 0.7481 0.59429 0.33436 0.0
C1701 C 0.81209 0.61564 0.33244 0.0
C1702 C 0.77318 0.63147 0.4272 0.0
C1703 C 0.82756 0.6212 0.30066 0.0
C1704 C 0.69723 0.61319 0.37977 0.0
C1705 C 0.71522 0.61055 0.36975 0.0
C1706 C 0.75495 0.60463 0.36111 0.0
C1707 C 0.79897 0.62777 0.34956 0.0
C1708 C 0.78155 0.62202 0.37532 0.0
C1709 C 0.72715 0.61268 0.42406 0.0
C1710 C 0.74633 0.61463 0.41103 0.0
H1711 H 0.81882 0.6649 0.29252 0.0
H1712 H 0.79219 0.65535 0.34908 0.0
H1713 H 0.77841 0.60077 0.30311 0.0
H1714 H 0.698 0.6222 0.54951 0.0
H1715 H 0.72909 0.6167 0.53315 0.0
C1716 C 0.16534 0.07386 0.95483 0.0
C1717 C 0.1581 0.0739 0.88899 0.0
C1718 C 0.16993 0.058 0.98643 0.0
C1719 C 0.17761 0.01035 0.96067 0.0
H1720 H 0.15123 1.00496 0.1274 0.0
C1721 C 0.1589 0.94203 0.06884 0.0
C1722 C 0.15378 0.94059 0.13719 0.0
C1723 C 0.16413 0.95826 0.04202 0.0
C1724 C 0.15916 1.00613 0.08208 0.0
H1725 H 0.15155 0.05758 0.80244 0.0
H1726 H 0.16022 0.0301 0.85629 0.0
H1727 H 0.15315 0.03344 0.07397 0.0
H1728 H 0.15163 0.95453 0.23258 0.0
H1729 H 0.16214 0.98233 0.18806 0.0
H1730 H 0.18374 0.98307 0.96863 0.0
C1731 C 0.16212 0.04221 0.88404 0.0
C1732 C 0.16016 0.02262 0.05115 0.0
C1733 C 0.15718 0.05798 0.8531 0.0
C1734 C 0.15549 0.95528 0.1796 0.0
C1735 C 0.16121 0.97135 0.15345 0.0
C1736 C 0.17692 0.99386 0.99239 0.0
C1737 C 0.16777 0.04192 0.95218 0.0
C1738 C 0.16907 0.02489 0.98935 0.0
C1739 C 0.16473 0.9734 0.08338 0.0
C1740 C 0.16734 0.99135 0.05299 0.0
H1741 H 0.16602 0.08587 0.98405 0.0
H1742 H 0.17437 0.05822 0.03883 0.0
H1743 H 0.18464 0.01168 0.91314 0.0
H1744 H 0.15744 0.93096 0.03475 0.0
H1745 H 0.16657 0.95906 0.98788 0.0
C1746 C 0.7017 0.39708 0.47909 0.0
C1747 C 0.68839 0.39986 0.52713 0.0
C1748 C 0.71887 0.40229 0.49263 0.0
C1749 C 0.75534 0.41517 0.53076 0.0
H1750 H 0.767 0.3967 0.70893 0.0
C1751 C 0.82587 0.40545 0.65522 0.0
C1752 C 0.82795 0.38833 0.68045 0.0
C1753 C 0.80964 0.41089 0.62867 0.0
C1754 C 0.76395 0.40211 0.6593 0.0
H1755 H 0.68225 0.41183 0.62405 0.0
H1756 H 0.71236 0.42102 0.64801 0.0
H1757 H 0.73652 0.40149 0.67889 0.0
H1758 H 0.81525 0.36312 0.69196 0.0
H1759 H 0.78723 0.37257 0.64627 0.0
H1760 H 0.78302 0.41492 0.51087 0.0
C1761 C 0.70952 0.41465 0.59998 0.0
C1762 C 0.74647 0.40505 0.64225 0.0
C1763 C 0.69224 0.40954 0.58606 0.0
C1764 C 0.81403 0.37644 0.67355 0.0
C1765 C 0.79794 0.38186 0.64773 0.0
C1766 C 0.77294 0.41239 0.54825 0.0
C1767 C 0.72317 0.41027 0.55491 0.0
C1768 C 0.74185 0.41104 0.57697 0.0
C1769 C 0.79535 0.39928 0.62765 0.0
C1770 C 0.77731 0.40523 0.61186 0.0
H1771 H 0.69909 0.38969 0.43308 0.0
H1772 H 0.72897 0.39863 0.45681 0.0
H1773 H 0.75223 0.41991 0.48019 0.0
H1774 H 0.83629 0.41495 0.66057 0.0
H1775 H 0.80795 0.42438 0.61312 0.0
loop_
_geom_bond_atom_site_label_1
_geom_bond_atom_site_label_2
_geom_bond_distance
_geom_bond_site_symmetry_2
_ccdc_geom_bond_type
Zn0 O6 1.920 . S
Zn0 O12 1.898 . S
Zn0 O15 1.905 . S
Zn1 O9 1.905 . S
Zn1 O10 1.898 . S
Zn1 O18 1.920 1_554 S
Zn2 O5 2.080 . S
Zn2 O8 2.114 . S
Zn2 O11 2.120 . S
Zn2 O13 2.120 . S
Zn2 O14 2.114 . S
Zn2 O17 2.080 . S
C3 O8 1.166 . S
C3 O9 1.182 . S
C4 O10 1.167 . S
C4 O11 1.299 . S
O5 Zn2 2.080 . S
O5 C19 1.305 . S
O6 Zn0 1.920 . S
O6 C19 1.234 . S
C7 O12 1.167 . S
C7 O13 1.299 . S
O8 Zn2 2.114 . S
O8 C3 1.166 . S
O9 Zn1 1.905 . S
O9 C3 1.182 . S
O10 Zn1 1.898 . S
O10 C4 1.167 . S
O11 Zn2 2.120 . S
O11 C4 1.299 . S
O12 Zn0 1.898 . S
O12 C7 1.167 . S
O13 Zn2 2.120 . S
O13 C7 1.299 . S
O14 Zn2 2.114 . S
O14 C16 1.166 . S
O15 Zn0 1.905 . S
O15 C16 1.182 . S
C16 O14 1.166 . S
C16 O15 1.182 . S
O17 Zn2 2.080 . S
O17 C20 1.305 1_554 S
O18 Zn1 1.920 1_556 S
O18 C20 1.234 . S
C19 O5 1.305 . S
C19 O6 1.234 . S
C20 O17 1.305 1_556 S
C20 O18 1.234 . S
Zn21 O27 1.920 . S
Zn21 O33 1.898 . S
Zn21 O36 1.905 . S
Zn22 O30 1.905 . S
Zn22 O31 1.898 . S
Zn22 O39 1.920 . S
Zn23 O26 2.080 . S
Zn23 O29 2.114 . S
Zn23 O32 2.120 . S
Zn23 O34 2.120 . S
Zn23 O35 2.114 . S
Zn23 O38 2.080 . S
C24 O29 1.166 . S
C24 O30 1.182 . S
C25 O31 1.167 . S
C25 O32 1.299 . S
O26 Zn23 2.080 . S
O26 C40 1.305 . S
O27 Zn21 1.920 . S
O27 C40 1.234 . S
C28 O33 1.167 . S
C28 O34 1.299 . S
O29 Zn23 2.114 . S
O29 C24 1.166 . S
O30 Zn22 1.905 . S
O30 C24 1.182 . S
O31 Zn22 1.898 . S
O31 C25 1.167 . S
O32 Zn23 2.120 . S
O32 C25 1.299 . S
O33 Zn21 1.898 . S
O33 C28 1.167 . S
O34 Zn23 2.120 . S
O34 C28 1.299 . S
O35 Zn23 2.114 . S
O35 C37 1.166 . S
O36 Zn21 1.905 . S
O36 C37 1.182 . S
C37 O35 1.166 . S
C37 O36 1.182 . S
O38 Zn23 2.080 . S
O38 C41 1.305 . S
O39 Zn22 1.920 . S
O39 C41 1.234 . S
C40 O26 1.305 . S
C40 O27 1.234 . S
C41 O38 1.305 . S
C41 O39 1.234 . S
Zn42 O48 1.920 . S
Zn42 O54 1.898 . S
Zn42 O57 1.905 . S
Zn43 O51 1.905 . S
Zn43 O52 1.898 . S
Zn43 O60 1.920 . S
Zn44 O47 2.080 . S
Zn44 O50 2.114 . S
Zn44 O53 2.120 . S
Zn44 O55 2.120 . S
Zn44 O56 2.114 . S
Zn44 O59 2.080 . S
C45 O50 1.166 . S
C45 O51 1.182 . S
C46 O52 1.167 . S
C46 O53 1.299 . S
O47 Zn44 2.080 . S
O47 C61 1.305 . S
O48 Zn42 1.920 . S
O48 C61 1.234 . S
C49 O54 1.167 . S
C49 O55 1.299 . S
O50 Zn44 2.114 . S
O50 C45 1.166 . S
O51 Zn43 1.905 . S
O51 C45 1.182 . S
O52 Zn43 1.898 . S
O52 C46 1.167 . S
O53 Zn44 2.120 . S
O53 C46 1.299 . S
O54 Zn42 1.898 . S
O54 C49 1.167 . S
O55 Zn44 2.120 . S
O55 C49 1.299 . S
O56 Zn44 2.114 . S
O56 C58 1.166 . S
O57 Zn42 1.905 . S
O57 C58 1.182 . S
C58 O56 1.166 . S
C58 O57 1.182 . S
O59 Zn44 2.080 . S
O59 C62 1.305 . S
O60 Zn43 1.920 . S
O60 C62 1.234 . S
C61 O47 1.305 . S
C61 O48 1.234 . S
C62 O59 1.305 . S
C62 O60 1.234 . S
Zn63 O69 1.920 1_556 S
Zn63 O75 1.898 . S
Zn63 O78 1.905 . S
Zn64 O72 1.905 . S
Zn64 O73 1.898 . S
Zn64 O81 1.920 . S
Zn65 O68 2.080 . S
Zn65 O71 2.114 . S
Zn65 O74 2.120 . S
Zn65 O76 2.120 . S
Zn65 O77 2.114 . S
Zn65 O80 2.080 . S
C66 O71 1.166 . S
C66 O72 1.182 . S
C67 O73 1.167 . S
C67 O74 1.299 . S
O68 Zn65 2.080 . S
O68 C82 1.305 1_556 S
O69 Zn63 1.920 1_554 S
O69 C82 1.234 . S
C70 O75 1.167 . S
C70 O76 1.299 . S
O71 Zn65 2.114 . S
O71 C66 1.166 . S
O72 Zn64 1.905 . S
O72 C66 1.182 . S
O73 Zn64 1.898 . S
O73 C67 1.167 . S
O74 Zn65 2.120 . S
O74 C67 1.299 . S
O75 Zn63 1.898 . S
O75 C70 1.167 . S
O76 Zn65 2.120 . S
O76 C70 1.299 . S
O77 Zn65 2.114 . S
O77 C79 1.166 . S
O78 Zn63 1.905 . S
O78 C79 1.182 . S
C79 O77 1.166 . S
C79 O78 1.182 . S
O80 Zn65 2.080 . S
O80 C83 1.305 . S
O81 Zn64 1.920 . S
O81 C83 1.234 . S
C82 O68 1.305 1_554 S
C82 O69 1.234 . S
C83 O80 1.305 . S
C83 O81 1.234 . S
Zn84 O90 1.920 . S
Zn84 O96 1.898 . S
Zn84 O99 1.905 . S
Zn85 O93 1.905 1_556 S
Zn85 O94 1.898 . S
Zn85 O102 1.920 . S
Zn86 O89 2.080 . S
Zn86 O92 2.114 . S
Zn86 O95 2.120 . S
Zn86 O97 2.120 . S
Zn86 O98 2.114 . S
Zn86 O101 2.080 . S
C87 O92 1.166 1_554 S
C87 O93 1.182 . S
C88 O94 1.167 . S
C88 O95 1.299 . S
O89 Zn86 2.080 . S
O89 C103 1.305 . S
O90 Zn84 1.920 . S
O90 C103 1.234 . S
C91 O96 1.167 . S
C91 O97 1.299 . S
O92 Zn86 2.114 . S
O92 C87 1.166 1_556 S
O93 Zn85 1.905 1_554 S
O93 C87 1.182 . S
O94 Zn85 1.898 . S
O94 C88 1.167 . S
O95 Zn86 2.120 . S
O95 C88 1.299 . S
O96 Zn84 1.898 . S
O96 C91 1.167 . S
O97 Zn86 2.120 . S
O97 C91 1.299 . S
O98 Zn86 2.114 . S
O98 C100 1.166 . S
O99 Zn84 1.905 . S
O99 C100 1.182 . S
C100 O98 1.166 . S
C100 O99 1.182 . S
O101 Zn86 2.080 . S
O101 C104 1.305 . S
O102 Zn85 1.920 . S
O102 C104 1.234 . S
C103 O89 1.305 . S
C103 O90 1.234 . S
C104 O101 1.305 . S
C104 O102 1.234 . S
Zn105 O111 1.920 . S
Zn105 O117 1.898 . S
Zn105 O120 1.905 . S
Zn106 O114 1.905 1_554 S
Zn106 O115 1.898 . S
Zn106 O123 1.920 . S
Zn107 O110 2.080 . S
Zn107 O113 2.114 . S
Zn107 O116 2.120 . S
Zn107 O118 2.120 . S
Zn107 O119 2.114 . S
Zn107 O122 2.080 . S
C108 O113 1.166 1_556 S
C108 O114 1.182 . S
C109 O115 1.167 . S
C109 O116 1.299 . S
O110 Zn107 2.080 . S
O110 C124 1.305 . S
O111 Zn105 1.920 . S
O111 C124 1.234 . S
C112 O117 1.167 . S
C112 O118 1.299 . S
O113 Zn107 2.114 . S
O113 C108 1.166 1_554 S
O114 Zn106 1.905 1_556 S
O114 C108 1.182 . S
O115 Zn106 1.898 . S
O115 C109 1.167 . S
O116 Zn107 2.120 . S
O116 C109 1.299 . S
O117 Zn105 1.898 . S
O117 C112 1.167 . S
O118 Zn107 2.120 . S
O118 C112 1.299 . S
O119 Zn107 2.114 . S
O119 C121 1.166 . S
O120 Zn105 1.905 . S
O120 C121 1.182 . S
C121 O119 1.166 . S
C121 O120 1.182 . S
O122 Zn107 2.080 . S
O122 C125 1.305 . S
O123 Zn106 1.920 . S
O123 C125 1.234 . S
C124 O110 1.305 . S
C124 O111 1.234 . S
C125 O122 1.305 . S
C125 O123 1.234 . S
Zn126 O132 1.920 . S
Zn126 O138 1.898 . S
Zn126 O141 1.905 . S
Zn127 O135 1.905 . S
Zn127 O136 1.898 . S
Zn127 O144 1.920 . S
Zn128 O131 2.080 . S
Zn128 O134 2.114 . S
Zn128 O137 2.120 . S
Zn128 O139 2.120 . S
Zn128 O140 2.114 . S
Zn128 O143 2.080 . S
C129 O134 1.166 . S
C129 O135 1.182 . S
C130 O136 1.167 . S
C130 O137 1.299 . S
O131 Zn128 2.080 . S
O131 C145 1.305 . S
O132 Zn126 1.920 . S
O132 C145 1.234 . S
C133 O138 1.167 . S
C133 O139 1.299 . S
O134 Zn128 2.114 . S
O134 C129 1.166 . S
O135 Zn127 1.905 . S
O135 C129 1.182 . S
O136 Zn127 1.898 . S
O136 C130 1.167 . S
O137 Zn128 2.120 . S
O137 C130 1.299 . S
O138 Zn126 1.898 . S
O138 C133 1.167 . S
O139 Zn128 2.120 . S
O139 C133 1.299 . S
O140 Zn128 2.114 . S
O140 C142 1.166 . S
O141 Zn126 1.905 . S
O141 C142 1.182 . S
C142 O140 1.166 . S
C142 O141 1.182 . S
O143 Zn128 2.080 . S
O143 C146 1.305 . S
O144 Zn127 1.920 . S
O144 C146 1.234 . S
C145 O131 1.305 . S
C145 O132 1.234 . S
C146 O143 1.305 . S
C146 O144 1.234 . S
Zn147 O153 1.920 . S
Zn147 O159 1.898 . S
Zn147 O162 1.905 . S
Zn148 O156 1.905 . S
Zn148 O157 1.898 . S
Zn148 O165 1.920 . S
Zn149 O152 2.080 . S
Zn149 O155 2.114 . S
Zn149 O158 2.120 . S
Zn149 O160 2.120 . S
Zn149 O161 2.114 . S
Zn149 O164 2.080 . S
C150 O155 1.166 . S
C150 O156 1.182 . S
C151 O157 1.167 . S
C151 O158 1.299 . S
O152 Zn149 2.080 . S
O152 C166 1.305 . S
O153 Zn147 1.920 . S
O153 C166 1.234 . S
C154 O159 1.167 . S
C154 O160 1.299 . S
O155 Zn149 2.114 . S
O155 C150 1.166 . S
O156 Zn148 1.905 . S
O156 C150 1.182 . S
O157 Zn148 1.898 . S
O157 C151 1.167 . S
O158 Zn149 2.120 . S
O158 C151 1.299 . S
O159 Zn147 1.898 . S
O159 C154 1.167 . S
O160 Zn149 2.120 . S
O160 C154 1.299 . S
O161 Zn149 2.114 . S
O161 C163 1.166 . S
O162 Zn147 1.905 . S
O162 C163 1.182 . S
C163 O161 1.166 . S
C163 O162 1.182 . S
O164 Zn149 2.080 . S
O164 C167 1.305 . S
O165 Zn148 1.920 . S
O165 C167 1.234 . S
C166 O152 1.305 . S
C166 O153 1.234 . S
C167 O164 1.305 . S
C167 O165 1.234 . S
Zn168 O174 1.920 . S
Zn168 O180 1.898 . S
Zn168 O183 1.905 . S
Zn169 O177 1.905 1_556 S
Zn169 O178 1.898 . S
Zn169 O186 1.920 . S
Zn170 O173 2.080 . S
Zn170 O176 2.114 . S
Zn170 O179 2.120 . S
Zn170 O181 2.120 . S
Zn170 O182 2.114 . S
Zn170 O185 2.080 . S
C171 O176 1.166 1_554 S
C171 O177 1.182 . S
C172 O178 1.167 . S
C172 O179 1.299 . S
O173 Zn170 2.080 . S
O173 C187 1.305 . S
O174 Zn168 1.920 . S
O174 C187 1.234 . S
C175 O180 1.167 . S
C175 O181 1.299 . S
O176 Zn170 2.114 . S
O176 C171 1.166 1_556 S
O177 Zn169 1.905 1_554 S
O177 C171 1.182 . S
O178 Zn169 1.898 . S
O178 C172 1.167 . S
O179 Zn170 2.120 . S
O179 C172 1.299 . S
O180 Zn168 1.898 . S
O180 C175 1.167 . S
O181 Zn170 2.120 . S
O181 C175 1.299 . S
O182 Zn170 2.114 . S
O182 C184 1.166 . S
O183 Zn168 1.905 . S
O183 C184 1.182 . S
C184 O182 1.166 . S
C184 O183 1.182 . S
O185 Zn170 2.080 . S
O185 C188 1.305 . S
O186 Zn169 1.920 . S
O186 C188 1.234 . S
C187 O173 1.305 . S
C187 O174 1.234 . S
C188 O185 1.305 . S
C188 O186 1.234 . S
Zn189 O195 1.920 . S
Zn189 O201 1.898 . S
Zn189 O204 1.905 . S
Zn190 O198 1.905 . S
Zn190 O199 1.898 . S
Zn190 O207 1.920 . S
Zn191 O194 2.080 . S
Zn191 O197 2.114 . S
Zn191 O200 2.120 . S
Zn191 O202 2.120 . S
Zn191 O203 2.114 . S
Zn191 O206 2.080 . S
C192 O197 1.166 . S
C192 O198 1.182 . S
C193 O199 1.167 . S
C193 O200 1.299 . S
O194 Zn191 2.080 . S
O194 C208 1.305 . S
O195 Zn189 1.920 . S
O195 C208 1.234 . S
C196 O201 1.167 . S
C196 O202 1.299 . S
O197 Zn191 2.114 . S
O197 C192 1.166 . S
O198 Zn190 1.905 . S
O198 C192 1.182 . S
O199 Zn190 1.898 . S
O199 C193 1.167 . S
O200 Zn191 2.120 . S
O200 C193 1.299 . S
O201 Zn189 1.898 . S
O201 C196 1.167 . S
O202 Zn191 2.120 . S
O202 C196 1.299 . S
O203 Zn191 2.114 . S
O203 C205 1.166 . S
O204 Zn189 1.905 . S
O204 C205 1.182 . S
C205 O203 1.166 . S
C205 O204 1.182 . S
O206 Zn191 2.080 . S
O206 C209 1.305 . S
O207 Zn190 1.920 . S
O207 C209 1.234 . S
C208 O194 1.305 . S
C208 O195 1.234 . S
C209 O206 1.305 . S
C209 O207 1.234 . S
Zn210 O216 1.920 . S
Zn210 O222 1.898 . S
Zn210 O225 1.905 . S
Zn211 O219 1.905 . S
Zn211 O220 1.898 . S
Zn211 O228 1.920 . S
Zn212 O215 2.080 . S
Zn212 O218 2.114 . S
Zn212 O221 2.120 . S
Zn212 O223 2.120 . S
Zn212 O224 2.114 . S
Zn212 O227 2.080 . S
C213 O218 1.166 . S
C213 O219 1.182 . S
C214 O220 1.167 . S
C214 O221 1.299 . S
O215 Zn212 2.080 . S
O215 C229 1.305 . S
O216 Zn210 1.920 . S
O216 C229 1.234 . S
C217 O222 1.167 . S
C217 O223 1.299 . S
O218 Zn212 2.114 . S
O218 C213 1.166 . S
O219 Zn211 1.905 . S
O219 C213 1.182 . S
O220 Zn211 1.898 . S
O220 C214 1.167 . S
O221 Zn212 2.120 . S
O221 C214 1.299 . S
O222 Zn210 1.898 . S
O222 C217 1.167 . S
O223 Zn212 2.120 . S
O223 C217 1.299 . S
O224 Zn212 2.114 . S
O224 C226 1.166 . S
O225 Zn210 1.905 . S
O225 C226 1.182 . S
C226 O224 1.166 . S
C226 O225 1.182 . S
O227 Zn212 2.080 . S
O227 C230 1.305 . S
O228 Zn211 1.920 . S
O228 C230 1.234 . S
C229 O215 1.305 . S
C229 O216 1.234 . S
C230 O227 1.305 . S
C230 O228 1.234 . S
Zn231 O237 1.920 . S
Zn231 O243 1.898 . S
Zn231 O246 1.905 1_554 S
Zn232 O240 1.905 . S
Zn232 O241 1.898 . S
Zn232 O249 1.920 . S
Zn233 O236 2.080 . S
Zn233 O239 2.114 . S
Zn233 O242 2.120 . S
Zn233 O244 2.120 . S
Zn233 O245 2.114 . S
Zn233 O248 2.080 . S
C234 O239 1.166 . S
C234 O240 1.182 . S
C235 O241 1.167 . S
C235 O242 1.299 . S
O236 Zn233 2.080 . S
O236 C250 1.305 . S
O237 Zn231 1.920 . S
O237 C250 1.234 . S
C238 O243 1.167 . S
C238 O244 1.299 . S
O239 Zn233 2.114 . S
O239 C234 1.166 . S
O240 Zn232 1.905 . S
O240 C234 1.182 . S
O241 Zn232 1.898 . S
O241 C235 1.167 . S
O242 Zn233 2.120 . S
O242 C235 1.299 . S
O243 Zn231 1.898 . S
O243 C238 1.167 . S
O244 Zn233 2.120 . S
O244 C238 1.299 . S
O245 Zn233 2.114 . S
O245 C247 1.166 1_554 S
O246 Zn231 1.905 1_556 S
O246 C247 1.182 . S
C247 O245 1.166 1_556 S
C247 O246 1.182 . S
O248 Zn233 2.080 . S
O248 C251 1.305 . S
O249 Zn232 1.920 . S
O249 C251 1.234 . S
C250 O236 1.305 . S
C250 O237 1.234 . S
C251 O248 1.305 . S
C251 O249 1.234 . S
Zn252 O258 1.920 . S
Zn252 O264 1.898 . S
Zn252 O267 1.905 1_554 S
Zn253 O261 1.905 . S
Zn253 O262 1.898 . S
Zn253 O270 1.920 . S
Zn254 O257 2.080 . S
Zn254 O260 2.114 . S
Zn254 O263 2.120 . S
Zn254 O265 2.120 . S
Zn254 O266 2.114 . S
Zn254 O269 2.080 . S
C255 O260 1.166 . S
C255 O261 1.182 . S
C256 O262 1.167 . S
C256 O263 1.299 . S
O257 Zn254 2.080 . S
O257 C271 1.305 . S
O258 Zn252 1.920 . S
O258 C271 1.234 . S
C259 O264 1.167 . S
C259 O265 1.299 . S
O260 Zn254 2.114 . S
O260 C255 1.166 . S
O261 Zn253 1.905 . S
O261 C255 1.182 . S
O262 Zn253 1.898 . S
O262 C256 1.167 . S
O263 Zn254 2.120 . S
O263 C256 1.299 . S
O264 Zn252 1.898 . S
O264 C259 1.167 . S
O265 Zn254 2.120 . S
O265 C259 1.299 . S
O266 Zn254 2.114 . S
O266 C268 1.166 1_554 S
O267 Zn252 1.905 1_556 S
O267 C268 1.182 . S
C268 O266 1.166 1_556 S
C268 O267 1.182 . S
O269 Zn254 2.080 . S
O269 C272 1.305 . S
O270 Zn253 1.920 . S
O270 C272 1.234 . S
C271 O257 1.305 . S
C271 O258 1.234 . S
C272 O269 1.305 . S
C272 O270 1.234 . S
Zn273 O279 1.920 . S
Zn273 O285 1.898 . S
Zn273 O288 1.905 . S
Zn274 O282 1.905 . S
Zn274 O283 1.898 . S
Zn274 O291 1.920 1_556 S
Zn275 O278 2.080 . S
Zn275 O281 2.114 . S
Zn275 O284 2.120 . S
Zn275 O286 2.120 . S
Zn275 O287 2.114 . S
Zn275 O290 2.080 . S
C276 O281 1.166 . S
C276 O282 1.182 . S
C277 O283 1.167 . S
C277 O284 1.299 . S
O278 Zn275 2.080 . S
O278 C292 1.305 . S
O279 Zn273 1.920 . S
O279 C292 1.234 . S
C280 O285 1.167 . S
C280 O286 1.299 . S
O281 Zn275 2.114 . S
O281 C276 1.166 . S
O282 Zn274 1.905 . S
O282 C276 1.182 . S
O283 Zn274 1.898 . S
O283 C277 1.167 . S
O284 Zn275 2.120 . S
O284 C277 1.299 . S
O285 Zn273 1.898 . S
O285 C280 1.167 . S
O286 Zn275 2.120 . S
O286 C280 1.299 . S
O287 Zn275 2.114 . S
O287 C289 1.166 . S
O288 Zn273 1.905 . S
O288 C289 1.182 . S
C289 O287 1.166 . S
C289 O288 1.182 . S
O290 Zn275 2.080 . S
O290 C293 1.305 1_556 S
O291 Zn274 1.920 1_554 S
O291 C293 1.234 . S
C292 O278 1.305 . S
C292 O279 1.234 . S
C293 O290 1.305 1_554 S
C293 O291 1.234 . S
Zn294 O300 1.920 . S
Zn294 O306 1.898 . S
Zn294 O309 1.905 . S
Zn295 O303 1.905 . S
Zn295 O304 1.898 . S
Zn295 O312 1.920 . S
Zn296 O299 2.080 . S
Zn296 O302 2.114 . S
Zn296 O305 2.120 . S
Zn296 O307 2.120 . S
Zn296 O308 2.114 . S
Zn296 O311 2.080 . S
C297 O302 1.166 . S
C297 O303 1.182 . S
C298 O304 1.167 . S
C298 O305 1.299 . S
O299 Zn296 2.080 . S
O299 C313 1.305 . S
O300 Zn294 1.920 . S
O300 C313 1.234 . S
C301 O306 1.167 . S
C301 O307 1.299 . S
O302 Zn296 2.114 . S
O302 C297 1.166 . S
O303 Zn295 1.905 . S
O303 C297 1.182 . S
O304 Zn295 1.898 . S
O304 C298 1.167 . S
O305 Zn296 2.120 . S
O305 C298 1.299 . S
O306 Zn294 1.898 . S
O306 C301 1.167 . S
O307 Zn296 2.120 . S
O307 C301 1.299 . S
O308 Zn296 2.114 . S
O308 C310 1.166 . S
O309 Zn294 1.905 . S
O309 C310 1.182 . S
C310 O308 1.166 . S
C310 O309 1.182 . S
O311 Zn296 2.080 . S
O311 C314 1.305 . S
O312 Zn295 1.920 . S
O312 C314 1.234 . S
C313 O299 1.305 . S
C313 O300 1.234 . S
C314 O311 1.305 . S
C314 O312 1.234 . S
Zn315 O321 1.920 . S
Zn315 O327 1.898 . S
Zn315 O330 1.905 . S
Zn316 O324 1.905 . S
Zn316 O325 1.898 . S
Zn316 O333 1.920 . S
Zn317 O320 2.080 . S
Zn317 O323 2.114 . S
Zn317 O326 2.120 . S
Zn317 O328 2.120 . S
Zn317 O329 2.114 . S
Zn317 O332 2.080 . S
C318 O323 1.166 . S
C318 O324 1.182 . S
C319 O325 1.167 . S
C319 O326 1.299 . S
O320 Zn317 2.080 . S
O320 C334 1.305 . S
O321 Zn315 1.920 . S
O321 C334 1.234 . S
C322 O327 1.167 . S
C322 O328 1.299 . S
O323 Zn317 2.114 . S
O323 C318 1.166 . S
O324 Zn316 1.905 . S
O324 C318 1.182 . S
O325 Zn316 1.898 . S
O325 C319 1.167 . S
O326 Zn317 2.120 . S
O326 C319 1.299 . S
O327 Zn315 1.898 . S
O327 C322 1.167 . S
O328 Zn317 2.120 . S
O328 C322 1.299 . S
O329 Zn317 2.114 . S
O329 C331 1.166 . S
O330 Zn315 1.905 . S
O330 C331 1.182 . S
C331 O329 1.166 . S
C331 O330 1.182 . S
O332 Zn317 2.080 . S
O332 C335 1.305 . S
O333 Zn316 1.920 . S
O333 C335 1.234 . S
C334 O320 1.305 . S
C334 O321 1.234 . S
C335 O332 1.305 . S
C335 O333 1.234 . S
C336 C337 1.349 . S
C336 C338 1.327 . S
C336 H361 0.950 . S
C337 C336 1.349 . S
C337 C353 1.349 . S
C338 C336 1.327 . S
C338 C357 1.429 . S
C338 H362 0.950 . S
C339 C356 1.574 . S
C339 C358 1.368 . S
C339 H363 0.949 . S
H340 C344 0.949 . S
C341 C342 1.349 . S
C341 C343 1.327 . S
C341 H364 0.950 . S
C342 C341 1.349 . S
C342 C354 1.349 . S
C343 C341 1.327 . S
C343 C359 1.429 . S
C343 H365 0.950 . S
C344 H340 0.949 . S
C344 C352 1.574 . S
C344 C360 1.368 . S
H345 C353 0.950 . S
H346 C351 0.950 . S
H347 C352 0.949 . S
H348 C354 0.950 . S
H349 C355 0.950 . S
H350 C356 0.949 . S
C351 H346 0.950 . S
C351 C353 1.327 . S
C351 C357 1.429 . S
C352 C344 1.574 . S
C352 H347 0.949 . S
C352 C358 1.368 . S
C353 C337 1.349 . S
C353 H345 0.950 . S
C353 C351 1.327 . S
C354 C342 1.349 . S
C354 H348 0.950 . S
C354 C355 1.327 . S
C355 H349 0.950 . S
C355 C354 1.327 . S
C355 C359 1.429 . S
C356 C339 1.574 . S
C356 H350 0.949 . S
C356 C360 1.368 . S
C357 C338 1.429 . S
C357 C351 1.429 . S
C357 C358 1.523 . S
C358 C339 1.368 . S
C358 C352 1.368 . S
C358 C357 1.523 . S
C359 C343 1.429 . S
C359 C355 1.429 . S
C359 C360 1.523 . S
C360 C344 1.368 . S
C360 C356 1.368 . S
C360 C359 1.523 . S
H361 C336 0.950 . S
H362 C338 0.950 . S
H363 C339 0.949 . S
H364 C341 0.950 . S
H365 C343 0.950 . S
C366 C367 1.349 . S
C366 C368 1.327 . S
C366 H391 0.950 . S
C367 C366 1.349 . S
C367 C383 1.349 . S
C368 C366 1.327 . S
C368 C387 1.429 . S
C368 H392 0.950 . S
C369 C386 1.574 . S
C369 C388 1.368 . S
C369 H393 0.949 . S
H370 C374 0.949 . S
C371 C372 1.349 . S
C371 C373 1.327 . S
C371 H394 0.950 . S
C372 C371 1.349 . S
C372 C384 1.349 . S
C373 C371 1.327 . S
C373 C389 1.429 . S
C373 H395 0.950 . S
C374 H370 0.949 . S
C374 C382 1.574 . S
C374 C390 1.368 . S
H375 C383 0.950 . S
H376 C381 0.950 . S
H377 C382 0.949 . S
H378 C384 0.950 . S
H379 C385 0.950 . S
H380 C386 0.949 . S
C381 H376 0.950 . S
C381 C383 1.327 . S
C381 C387 1.429 . S
C382 C374 1.574 . S
C382 H377 0.949 . S
C382 C388 1.368 . S
C383 C367 1.349 . S
C383 H375 0.950 . S
C383 C381 1.327 . S
C384 C372 1.349 . S
C384 H378 0.950 . S
C384 C385 1.327 . S
C385 H379 0.950 . S
C385 C384 1.327 . S
C385 C389 1.429 . S
C386 C369 1.574 . S
C386 H380 0.949 . S
C386 C390 1.368 . S
C387 C368 1.429 . S
C387 C381 1.429 . S
C387 C388 1.523 1_554 S
C388 C369 1.368 . S
C388 C382 1.368 . S
C388 C387 1.523 1_556 S
C389 C373 1.429 . S
C389 C385 1.429 . S
C389 C390 1.523 . S
C390 C374 1.368 . S
C390 C386 1.368 . S
C390 C389 1.523 . S
H391 C366 0.950 . S
H392 C368 0.950 . S
H393 C369 0.949 . S
H394 C371 0.950 . S
H395 C373 0.950 . S
C396 C397 1.349 . S
C396 C398 1.327 . S
C396 H421 0.950 . S
C397 C396 1.349 . S
C397 C413 1.349 . S
C398 C396 1.327 . S
C398 C417 1.429 . S
C398 H422 0.950 . S
C399 C416 1.574 . S
C399 C418 1.368 . S
C399 H423 0.949 . S
H400 C404 0.949 . S
C401 C402 1.349 . S
C401 C403 1.327 . S
C401 H424 0.950 . S
C402 C401 1.349 . S
C402 C414 1.349 . S
C403 C401 1.327 . S
C403 C419 1.429 . S
C403 H425 0.950 . S
C404 H400 0.949 . S
C404 C412 1.574 . S
C404 C420 1.368 . S
H405 C413 0.950 . S
H406 C411 0.950 . S
H407 C412 0.949 . S
H408 C414 0.950 . S
H409 C415 0.950 . S
H410 C416 0.949 . S
C411 H406 0.950 . S
C411 C413 1.327 . S
C411 C417 1.429 . S
C412 C404 1.574 . S
C412 H407 0.949 . S
C412 C418 1.368 . S
C413 C397 1.349 . S
C413 H405 0.950 . S
C413 C411 1.327 . S
C414 C402 1.349 . S
C414 H408 0.950 . S
C414 C415 1.327 . S
C415 H409 0.950 . S
C415 C414 1.327 . S
C415 C419 1.429 . S
C416 C399 1.574 . S
C416 H410 0.949 . S
C416 C420 1.368 . S
C417 C398 1.429 . S
C417 C411 1.429 . S
C417 C418 1.523 . S
C418 C399 1.368 . S
C418 C412 1.368 . S
C418 C417 1.523 . S
C419 C403 1.429 . S
C419 C415 1.429 . S
C419 C420 1.523 1_556 S
C420 C404 1.368 . S
C420 C416 1.368 . S
C420 C419 1.523 1_554 S
H421 C396 0.950 . S
H422 C398 0.950 . S
H423 C399 0.949 . S
H424 C401 0.950 . S
H425 C403 0.950 . S
C426 C427 1.349 . S
C426 C428 1.327 . S
C426 H451 0.950 . S
C427 C426 1.349 . S
C427 C443 1.349 . S
C428 C426 1.327 . S
C428 C447 1.429 . S
C428 H452 0.950 . S
C429 C446 1.574 . S
C429 C448 1.368 . S
C429 H453 0.949 . S
H430 C434 0.949 . S
C431 C432 1.349 . S
C431 C433 1.327 . S
C431 H454 0.950 . S
C432 C431 1.349 . S
C432 C444 1.349 . S
C433 C431 1.327 . S
C433 C449 1.429 . S
C433 H455 0.950 . S
C434 H430 0.949 . S
C434 C442 1.574 . S
C434 C450 1.368 . S
H435 C443 0.950 . S
H436 C441 0.950 . S
H437 C442 0.949 . S
H438 C444 0.950 . S
H439 C445 0.950 . S
H440 C446 0.949 . S
C441 H436 0.950 . S
C441 C443 1.327 . S
C441 C447 1.429 . S
C442 C434 1.574 . S
C442 H437 0.949 . S
C442 C448 1.368 . S
C443 C427 1.349 . S
C443 H435 0.950 . S
C443 C441 1.327 . S
C444 C432 1.349 . S
C444 H438 0.950 . S
C444 C445 1.327 . S
C445 H439 0.950 . S
C445 C444 1.327 . S
C445 C449 1.429 . S
C446 C429 1.574 . S
C446 H440 0.949 . S
C446 C450 1.368 . S
C447 C428 1.429 . S
C447 C441 1.429 . S
C447 C448 1.523 . S
C448 C429 1.368 . S
C448 C442 1.368 . S
C448 C447 1.523 . S
C449 C433 1.429 . S
C449 C445 1.429 . S
C449 C450 1.523 . S
C450 C434 1.368 . S
C450 C446 1.368 . S
C450 C449 1.523 . S
H451 C426 0.950 . S
H452 C428 0.950 . S
H453 C429 0.949 . S
H454 C431 0.950 . S
H455 C433 0.950 . S
C456 C457 1.349 . S
C456 C458 1.327 . S
C456 H481 0.950 . S
C457 C456 1.349 . S
C457 C473 1.349 . S
C458 C456 1.327 . S
C458 C477 1.429 . S
C458 H482 0.950 . S
C459 C476 1.574 . S
C459 C478 1.368 . S
C459 H483 0.949 . S
H460 C464 0.949 . S
C461 C462 1.349 . S
C461 C463 1.327 . S
C461 H484 0.950 . S
C462 C461 1.349 . S
C462 C474 1.349 . S
C463 C461 1.327 . S
C463 C479 1.429 . S
C463 H485 0.950 . S
C464 H460 0.949 . S
C464 C472 1.574 . S
C464 C480 1.368 . S
H465 C473 0.950 . S
H466 C471 0.950 . S
H467 C472 0.949 . S
H468 C474 0.950 . S
H469 C475 0.950 . S
H470 C476 0.949 . S
C471 H466 0.950 . S
C471 C473 1.327 . S
C471 C477 1.429 . S
C472 C464 1.574 . S
C472 H467 0.949 . S
C472 C478 1.368 . S
C473 C457 1.349 . S
C473 H465 0.950 . S
C473 C471 1.327 . S
C474 C462 1.349 . S
C474 H468 0.950 . S
C474 C475 1.327 . S
C475 H469 0.950 . S
C475 C474 1.327 . S
C475 C479 1.429 . S
C476 C459 1.574 . S
C476 H470 0.949 . S
C476 C480 1.368 . S
C477 C458 1.429 . S
C477 C471 1.429 . S
C477 C478 1.523 . S
C478 C459 1.368 . S
C478 C472 1.368 . S
C478 C477 1.523 . S
C479 C463 1.429 . S
C479 C475 1.429 . S
C479 C480 1.523 . S
C480 C464 1.368 . S
C480 C476 1.368 . S
C480 C479 1.523 . S
H481 C456 0.950 . S
H482 C458 0.950 . S
H483 C459 0.949 . S
H484 C461 0.950 . S
H485 C463 0.950 . S
C486 C487 1.349 . S
C486 C488 1.327 . S
C486 H511 0.950 . S
C487 C486 1.349 . S
C487 C503 1.349 . S
C488 C486 1.327 . S
C488 C507 1.429 . S
C488 H512 0.950 . S
C489 C506 1.574 . S
C489 C508 1.368 . S
C489 H513 0.949 . S
H490 C494 0.949 . S
C491 C492 1.349 . S
C491 C493 1.327 . S
C491 H514 0.950 . S
C492 C491 1.349 . S
C492 C504 1.349 . S
C493 C491 1.327 . S
C493 C509 1.429 . S
C493 H515 0.950 . S
C494 H490 0.949 . S
C494 C502 1.574 . S
C494 C510 1.368 . S
H495 C503 0.950 . S
H496 C501 0.950 . S
H497 C502 0.949 . S
H498 C504 0.950 . S
H499 C505 0.950 . S
H500 C506 0.949 . S
C501 H496 0.950 . S
C501 C503 1.327 . S
C501 C507 1.429 . S
C502 C494 1.574 . S
C502 H497 0.949 . S
C502 C508 1.368 . S
C503 C487 1.349 . S
C503 H495 0.950 . S
C503 C501 1.327 . S
C504 C492 1.349 . S
C504 H498 0.950 . S
C504 C505 1.327 . S
C505 H499 0.950 . S
C505 C504 1.327 . S
C505 C509 1.429 . S
C506 C489 1.574 . S
C506 H500 0.949 . S
C506 C510 1.368 . S
C507 C488 1.429 . S
C507 C501 1.429 . S
C507 C508 1.523 . S
C508 C489 1.368 . S
C508 C502 1.368 . S
C508 C507 1.523 . S
C509 C493 1.429 . S
C509 C505 1.429 . S
C509 C510 1.523 . S
C510 C494 1.368 . S
C510 C506 1.368 . S
C510 C509 1.523 . S
H511 C486 0.950 . S
H512 C488 0.950 . S
H513 C489 0.949 . S
H514 C491 0.950 . S
H515 C493 0.950 . S
C516 C517 1.349 . S
C516 C518 1.327 . S
C516 H541 0.950 . S
C517 C516 1.349 . S
C517 C533 1.349 . S
C518 C516 1.327 . S
C518 C537 1.429 . S
C518 H542 0.950 . S
C519 C536 1.574 . S
C519 C538 1.368 . S
C519 H543 0.949 . S
H520 C524 0.949 . S
C521 C522 1.349 . S
C521 C523 1.327 . S
C521 H544 0.950 . S
C522 C521 1.349 . S
C522 C534 1.349 . S
C523 C521 1.327 . S
C523 C539 1.429 . S
C523 H545 0.950 . S
C524 H520 0.949 . S
C524 C532 1.574 . S
C524 C540 1.368 . S
H525 C533 0.950 . S
H526 C531 0.950 . S
H527 C532 0.949 . S
H528 C534 0.950 . S
H529 C535 0.950 . S
H530 C536 0.949 . S
C531 H526 0.950 . S
C531 C533 1.327 . S
C531 C537 1.429 . S
C532 C524 1.574 . S
C532 H527 0.949 . S
C532 C538 1.368 . S
C533 C517 1.349 . S
C533 H525 0.950 . S
C533 C531 1.327 . S
C534 C522 1.349 . S
C534 H528 0.950 . S
C534 C535 1.327 . S
C535 H529 0.950 . S
C535 C534 1.327 . S
C535 C539 1.429 . S
C536 C519 1.574 . S
C536 H530 0.949 . S
C536 C540 1.368 . S
C537 C518 1.429 . S
C537 C531 1.429 . S
C537 C538 1.523 . S
C538 C519 1.368 . S
C538 C532 1.368 . S
C538 C537 1.523 . S
C539 C523 1.429 . S
C539 C535 1.429 . S
C539 C540 1.523 1_554 S
C540 C524 1.368 . S
C540 C536 1.368 . S
C540 C539 1.523 1_556 S
H541 C516 0.950 . S
H542 C518 0.950 . S
H543 C519 0.949 . S
H544 C521 0.950 . S
H545 C523 0.950 . S
C546 C547 1.349 . S
C546 C548 1.327 . S
C546 H571 0.950 . S
C547 C546 1.349 . S
C547 C563 1.349 . S
C548 C546 1.327 . S
C548 C567 1.429 . S
C548 H572 0.950 . S
C549 C566 1.574 . S
C549 C568 1.368 . S
C549 H573 0.949 . S
H550 C554 0.949 . S
C551 C552 1.349 . S
C551 C553 1.327 . S
C551 H574 0.950 . S
C552 C551 1.349 . S
C552 C564 1.349 . S
C553 C551 1.327 . S
C553 C569 1.429 . S
C553 H575 0.950 . S
C554 H550 0.949 . S
C554 C562 1.574 . S
C554 C570 1.368 . S
H555 C563 0.950 . S
H556 C561 0.950 . S
H557 C562 0.949 . S
H558 C564 0.950 . S
H559 C565 0.950 . S
H560 C566 0.949 . S
C561 H556 0.950 . S
C561 C563 1.327 . S
C561 C567 1.429 . S
C562 C554 1.574 . S
C562 H557 0.949 . S
C562 C568 1.368 . S
C563 C547 1.349 . S
C563 H555 0.950 . S
C563 C561 1.327 . S
C564 C552 1.349 . S
C564 H558 0.950 . S
C564 C565 1.327 . S
C565 H559 0.950 . S
C565 C564 1.327 . S
C565 C569 1.429 . S
C566 C549 1.574 . S
C566 H560 0.949 . S
C566 C570 1.368 . S
C567 C548 1.429 . S
C567 C561 1.429 . S
C567 C568 1.523 1_556 S
C568 C549 1.368 . S
C568 C562 1.368 . S
C568 C567 1.523 1_554 S
C569 C553 1.429 . S
C569 C565 1.429 . S
C569 C570 1.523 . S
C570 C554 1.368 . S
C570 C566 1.368 . S
C570 C569 1.523 . S
H571 C546 0.950 . S
H572 C548 0.950 . S
H573 C549 0.949 . S
H574 C551 0.950 . S
H575 C553 0.950 . S
C576 C577 1.349 . S
C576 C578 1.327 . S
C576 H601 0.950 . S
C577 C576 1.349 . S
C577 C593 1.349 . S
C578 C576 1.327 . S
C578 C597 1.429 . S
C578 H602 0.950 . S
C579 C596 1.574 . S
C579 C598 1.368 . S
C579 H603 0.949 . S
H580 C584 0.949 . S
C581 C582 1.349 . S
C581 C583 1.327 . S
C581 H604 0.950 . S
C582 C581 1.349 . S
C582 C594 1.349 . S
C583 C581 1.327 . S
C583 C599 1.429 . S
C583 H605 0.950 . S
C584 H580 0.949 . S
C584 C592 1.574 . S
C584 C600 1.368 . S
H585 C593 0.950 . S
H586 C591 0.950 . S
H587 C592 0.949 . S
H588 C594 0.950 . S
H589 C595 0.950 . S
H590 C596 0.949 . S
C591 H586 0.950 . S
C591 C593 1.327 . S
C591 C597 1.429 . S
C592 C584 1.574 . S
C592 H587 0.949 . S
C592 C598 1.368 . S
C593 C577 1.349 . S
C593 H585 0.950 . S
C593 C591 1.327 . S
C594 C582 1.349 . S
C594 H588 0.950 . S
C594 C595 1.327 . S
C595 H589 0.950 . S
C595 C594 1.327 . S
C595 C599 1.429 . S
C596 C579 1.574 . S
C596 H590 0.949 . S
C596 C600 1.368 . S
C597 C578 1.429 . S
C597 C591 1.429 . S
C597 C598 1.523 . S
C598 C579 1.368 . S
C598 C592 1.368 . S
C598 C597 1.523 . S
C599 C583 1.429 . S
C599 C595 1.429 . S
C599 C600 1.523 . S
C600 C584 1.368 . S
C600 C596 1.368 . S
C600 C599 1.523 . S
H601 C576 0.950 . S
H602 C578 0.950 . S
H603 C579 0.949 . S
H604 C581 0.950 . S
H605 C583 0.950 . S
C606 C607 1.349 . S
C606 C608 1.327 . S
C606 H631 0.950 . S
C607 C606 1.349 . S
C607 C623 1.349 . S
C608 C606 1.327 . S
C608 C627 1.429 . S
C608 H632 0.950 . S
C609 C626 1.574 . S
C609 C628 1.368 . S
C609 H633 0.949 . S
H610 C614 0.949 . S
C611 C612 1.349 . S
C611 C613 1.327 . S
C611 H634 0.950 . S
C612 C611 1.349 . S
C612 C624 1.349 . S
C613 C611 1.327 . S
C613 C629 1.429 . S
C613 H635 0.950 . S
C614 H610 0.949 . S
C614 C622 1.574 . S
C614 C630 1.368 . S
H615 C623 0.950 . S
H616 C621 0.950 . S
H617 C622 0.949 . S
H618 C624 0.950 . S
H619 C625 0.950 . S
H620 C626 0.949 . S
C621 H616 0.950 . S
C621 C623 1.327 . S
C621 C627 1.429 . S
C622 C614 1.574 . S
C622 H617 0.949 . S
C622 C628 1.368 . S
C623 C607 1.349 . S
C623 H615 0.950 . S
C623 C621 1.327 . S
C624 C612 1.349 . S
C624 H618 0.950 . S
C624 C625 1.327 . S
C625 H619 0.950 . S
C625 C624 1.327 . S
C625 C629 1.429 . S
C626 C609 1.574 . S
C626 H620 0.949 . S
C626 C630 1.368 . S
C627 C608 1.429 . S
C627 C621 1.429 . S
C627 C628 1.523 . S
C628 C609 1.368 . S
C628 C622 1.368 . S
C628 C627 1.523 . S
C629 C613 1.429 . S
C629 C625 1.429 . S
C629 C630 1.523 1_556 S
C630 C614 1.368 . S
C630 C626 1.368 . S
C630 C629 1.523 1_554 S
H631 C606 0.950 . S
H632 C608 0.950 . S
H633 C609 0.949 . S
H634 C611 0.950 . S
H635 C613 0.950 . S
C636 C637 1.349 . S
C636 C638 1.327 . S
C636 H661 0.950 . S
C637 C636 1.349 . S
C637 C653 1.349 . S
C638 C636 1.327 . S
C638 C657 1.429 . S
C638 H662 0.950 . S
C639 C656 1.574 . S
C639 C658 1.368 . S
C639 H663 0.949 . S
H640 C644 0.949 . S
C641 C642 1.349 . S
C641 C643 1.327 . S
C641 H664 0.950 . S
C642 C641 1.349 . S
C642 C654 1.349 . S
C643 C641 1.327 . S
C643 C659 1.429 . S
C643 H665 0.950 . S
C644 H640 0.949 . S
C644 C652 1.574 . S
C644 C660 1.368 . S
H645 C653 0.950 . S
H646 C651 0.950 . S
H647 C652 0.949 . S
H648 C654 0.950 . S
H649 C655 0.950 . S
H650 C656 0.949 . S
C651 H646 0.950 . S
C651 C653 1.327 . S
C651 C657 1.429 . S
C652 C644 1.574 . S
C652 H647 0.949 . S
C652 C658 1.368 . S
C653 C637 1.349 . S
C653 H645 0.950 . S
C653 C651 1.327 . S
C654 C642 1.349 . S
C654 H648 0.950 . S
C654 C655 1.327 . S
C655 H649 0.950 . S
C655 C654 1.327 . S
C655 C659 1.429 . S
C656 C639 1.574 . S
C656 H650 0.949 . S
C656 C660 1.368 . S
C657 C638 1.429 . S
C657 C651 1.429 . S
C657 C658 1.523 1_554 S
C658 C639 1.368 . S
C658 C652 1.368 . S
C658 C657 1.523 1_556 S
C659 C643 1.429 . S
C659 C655 1.429 . S
C659 C660 1.523 . S
C660 C644 1.368 . S
C660 C656 1.368 . S
C660 C659 1.523 . S
H661 C636 0.950 . S
H662 C638 0.950 . S
H663 C639 0.949 . S
H664 C641 0.950 . S
H665 C643 0.950 . S
C666 C667 1.349 . S
C666 C668 1.327 . S
C666 H691 0.950 . S
C667 C666 1.349 . S
C667 C683 1.349 . S
C668 C666 1.327 . S
C668 C687 1.429 . S
C668 H692 0.950 . S
C669 C686 1.574 . S
C669 C688 1.368 . S
C669 H693 0.949 . S
H670 C674 0.949 . S
C671 C672 1.349 . S
C671 C673 1.327 . S
C671 H694 0.950 . S
C672 C671 1.349 . S
C672 C684 1.349 . S
C673 C671 1.327 . S
C673 C689 1.429 . S
C673 H695 0.950 . S
C674 H670 0.949 . S
C674 C682 1.574 . S
C674 C690 1.368 . S
H675 C683 0.950 . S
H676 C681 0.950 . S
H677 C682 0.949 . S
H678 C684 0.950 . S
H679 C685 0.950 . S
H680 C686 0.949 . S
C681 H676 0.950 . S
C681 C683 1.327 . S
C681 C687 1.429 . S
C682 C674 1.574 . S
C682 H677 0.949 . S
C682 C688 1.368 . S
C683 C667 1.349 . S
C683 H675 0.950 . S
C683 C681 1.327 . S
C684 C672 1.349 . S
C684 H678 0.950 . S
C684 C685 1.327 . S
C685 H679 0.950 . S
C685 C684 1.327 . S
C685 C689 1.429 . S
C686 C669 1.574 . S
C686 H680 0.949 . S
C686 C690 1.368 . S
C687 C668 1.429 . S
C687 C681 1.429 . S
C687 C688 1.523 . S
C688 C669 1.368 . S
C688 C682 1.368 . S
C688 C687 1.523 . S
C689 C673 1.429 . S
C689 C685 1.429 . S
C689 C690 1.523 . S
C690 C674 1.368 . S
C690 C686 1.368 . S
C690 C689 1.523 . S
H691 C666 0.950 . S
H692 C668 0.950 . S
H693 C669 0.949 . S
H694 C671 0.950 . S
H695 C673 0.950 . S
C696 C697 1.349 . S
C696 C698 1.327 . S
C696 H721 0.950 . S
C697 C696 1.349 . S
C697 C713 1.349 . S
C698 C696 1.327 . S
C698 C717 1.429 . S
C698 H722 0.950 . S
C699 C716 1.574 . S
C699 C718 1.368 . S
C699 H723 0.949 . S
H700 C704 0.949 . S
C701 C702 1.349 . S
C701 C703 1.327 . S
C701 H724 0.950 . S
C702 C701 1.349 . S
C702 C714 1.349 . S
C703 C701 1.327 . S
C703 C719 1.429 . S
C703 H725 0.950 . S
C704 H700 0.949 . S
C704 C712 1.574 . S
C704 C720 1.368 . S
H705 C713 0.950 . S
H706 C711 0.950 . S
H707 C712 0.949 . S
H708 C714 0.950 . S
H709 C715 0.950 . S
H710 C716 0.949 . S
C711 H706 0.950 . S
C711 C713 1.327 . S
C711 C717 1.429 . S
C712 C704 1.574 . S
C712 H707 0.949 . S
C712 C718 1.368 . S
C713 C697 1.349 . S
C713 H705 0.950 . S
C713 C711 1.327 . S
C714 C702 1.349 . S
C714 H708 0.950 . S
C714 C715 1.327 . S
C715 H709 0.950 . S
C715 C714 1.327 . S
C715 C719 1.429 . S
C716 C699 1.574 . S
C716 H710 0.949 . S
C716 C720 1.368 . S
C717 C698 1.429 . S
C717 C711 1.429 . S
C717 C718 1.523 . S
C718 C699 1.368 . S
C718 C712 1.368 . S
C718 C717 1.523 . S
C719 C703 1.429 . S
C719 C715 1.429 . S
C719 C720 1.523 . S
C720 C704 1.368 . S
C720 C716 1.368 . S
C720 C719 1.523 . S
H721 C696 0.950 . S
H722 C698 0.950 . S
H723 C699 0.949 . S
H724 C701 0.950 . S
H725 C703 0.950 . S
C726 C727 1.349 . S
C726 C728 1.327 . S
C726 H751 0.950 . S
C727 C726 1.349 . S
C727 C743 1.349 . S
C728 C726 1.327 . S
C728 C747 1.429 . S
C728 H752 0.950 . S
C729 C746 1.574 . S
C729 C748 1.368 . S
C729 H753 0.949 . S
H730 C734 0.949 . S
C731 C732 1.349 . S
C731 C733 1.327 . S
C731 H754 0.950 . S
C732 C731 1.349 . S
C732 C744 1.349 . S
C733 C731 1.327 . S
C733 C749 1.429 . S
C733 H755 0.950 . S
C734 H730 0.949 . S
C734 C742 1.574 . S
C734 C750 1.368 . S
H735 C743 0.950 . S
H736 C741 0.950 . S
H737 C742 0.949 . S
H738 C744 0.950 . S
H739 C745 0.950 . S
H740 C746 0.949 . S
C741 H736 0.950 . S
C741 C743 1.327 . S
C741 C747 1.429 . S
C742 C734 1.574 . S
C742 H737 0.949 . S
C742 C748 1.368 . S
C743 C727 1.349 . S
C743 H735 0.950 . S
C743 C741 1.327 . S
C744 C732 1.349 . S
C744 H738 0.950 . S
C744 C745 1.327 . S
C745 H739 0.950 . S
C745 C744 1.327 . S
C745 C749 1.429 . S
C746 C729 1.574 . S
C746 H740 0.949 . S
C746 C750 1.368 . S
C747 C728 1.429 . S
C747 C741 1.429 . S
C747 C748 1.523 . S
C748 C729 1.368 . S
C748 C742 1.368 . S
C748 C747 1.523 . S
C749 C733 1.429 . S
C749 C745 1.429 . S
C749 C750 1.523 . S
C750 C734 1.368 . S
C750 C746 1.368 . S
C750 C749 1.523 . S
H751 C726 0.950 . S
H752 C728 0.950 . S
H753 C729 0.949 . S
H754 C731 0.950 . S
H755 C733 0.950 . S
C756 C757 1.349 . S
C756 C758 1.327 . S
C756 H781 0.950 . S
C757 C756 1.349 . S
C757 C773 1.349 . S
C758 C756 1.327 . S
C758 C777 1.429 . S
C758 H782 0.950 . S
C759 C776 1.574 . S
C759 C778 1.368 . S
C759 H783 0.949 . S
H760 C764 0.949 . S
C761 C762 1.349 . S
C761 C763 1.327 . S
C761 H784 0.950 . S
C762 C761 1.349 . S
C762 C774 1.349 . S
C763 C761 1.327 . S
C763 C779 1.429 . S
C763 H785 0.950 . S
C764 H760 0.949 . S
C764 C772 1.574 . S
C764 C780 1.368 . S
H765 C773 0.950 . S
H766 C771 0.950 . S
H767 C772 0.949 . S
H768 C774 0.950 . S
H769 C775 0.950 . S
H770 C776 0.949 . S
C771 H766 0.950 . S
C771 C773 1.327 . S
C771 C777 1.429 . S
C772 C764 1.574 . S
C772 H767 0.949 . S
C772 C778 1.368 . S
C773 C757 1.349 . S
C773 H765 0.950 . S
C773 C771 1.327 . S
C774 C762 1.349 . S
C774 H768 0.950 . S
C774 C775 1.327 . S
C775 H769 0.950 . S
C775 C774 1.327 . S
C775 C779 1.429 . S
C776 C759 1.574 . S
C776 H770 0.949 . S
C776 C780 1.368 . S
C777 C758 1.429 . S
C777 C771 1.429 . S
C777 C778 1.523 . S
C778 C759 1.368 . S
C778 C772 1.368 . S
C778 C777 1.523 . S
C779 C763 1.429 . S
C779 C775 1.429 . S
C779 C780 1.523 1_556 S
C780 C764 1.368 . S
C780 C776 1.368 . S
C780 C779 1.523 1_554 S
H781 C756 0.950 . S
H782 C758 0.950 . S
H783 C759 0.949 . S
H784 C761 0.950 . S
H785 C763 0.950 . S
C786 C787 1.349 . S
C786 C788 1.327 . S
C786 H811 0.950 . S
C787 C786 1.349 . S
C787 C803 1.349 . S
C788 C786 1.327 . S
C788 C807 1.429 . S
C788 H812 0.950 . S
C789 C806 1.574 . S
C789 C808 1.368 . S
C789 H813 0.949 . S
H790 C794 0.949 . S
C791 C792 1.349 . S
C791 C793 1.327 . S
C791 H814 0.950 . S
C792 C791 1.349 . S
C792 C804 1.349 . S
C793 C791 1.327 . S
C793 C809 1.429 . S
C793 H815 0.950 . S
C794 H790 0.949 . S
C794 C802 1.574 . S
C794 C810 1.368 . S
H795 C803 0.950 . S
H796 C801 0.950 . S
H797 C802 0.949 . S
H798 C804 0.950 . S
H799 C805 0.950 . S
H800 C806 0.949 . S
C801 H796 0.950 . S
C801 C803 1.327 . S
C801 C807 1.429 . S
C802 C794 1.574 . S
C802 H797 0.949 . S
C802 C808 1.368 . S
C803 C787 1.349 . S
C803 H795 0.950 . S
C803 C801 1.327 . S
C804 C792 1.349 . S
C804 H798 0.950 . S
C804 C805 1.327 . S
C805 H799 0.950 . S
C805 C804 1.327 . S
C805 C809 1.429 . S
C806 C789 1.574 . S
C806 H800 0.949 . S
C806 C810 1.368 . S
C807 C788 1.429 . S
C807 C801 1.429 . S
C807 C808 1.523 1_554 S
C808 C789 1.368 . S
C808 C802 1.368 . S
C808 C807 1.523 1_556 S
C809 C793 1.429 . S
C809 C805 1.429 . S
C809 C810 1.523 . S
C810 C794 1.368 . S
C810 C806 1.368 . S
C810 C809 1.523 . S
H811 C786 0.950 . S
H812 C788 0.950 . S
H813 C789 0.949 . S
H814 C791 0.950 . S
H815 C793 0.950 . S
C816 C817 1.349 . S
C816 C818 1.327 . S
C816 H841 0.950 . S
C817 C816 1.349 . S
C817 C833 1.349 . S
C818 C816 1.327 . S
C818 C837 1.429 . S
C818 H842 0.950 . S
C819 C836 1.574 . S
C819 C838 1.368 . S
C819 H843 0.949 . S
H820 C824 0.949 . S
C821 C822 1.349 . S
C821 C823 1.327 . S
C821 H844 0.950 . S
C822 C821 1.349 . S
C822 C834 1.349 . S
C823 C821 1.327 . S
C823 C839 1.429 . S
C823 H845 0.950 . S
C824 H820 0.949 . S
C824 C832 1.574 . S
C824 C840 1.368 . S
H825 C833 0.950 . S
H826 C831 0.950 . S
H827 C832 0.949 . S
H828 C834 0.950 . S
H829 C835 0.950 . S
H830 C836 0.949 . S
C831 H826 0.950 . S
C831 C833 1.327 . S
C831 C837 1.429 . S
C832 C824 1.574 . S
C832 H827 0.949 . S
C832 C838 1.368 . S
C833 C817 1.349 . S
C833 H825 0.950 . S
C833 C831 1.327 . S
C834 C822 1.349 . S
C834 H828 0.950 . S
C834 C835 1.327 . S
C835 H829 0.950 . S
C835 C834 1.327 . S
C835 C839 1.429 . S
C836 C819 1.574 . S
C836 H830 0.949 . S
C836 C840 1.368 . S
C837 C818 1.429 . S
C837 C831 1.429 . S
C837 C838 1.523 . S
C838 C819 1.368 . S
C838 C832 1.368 . S
C838 C837 1.523 . S
C839 C823 1.429 . S
C839 C835 1.429 . S
C839 C840 1.523 . S
C840 C824 1.368 . S
C840 C836 1.368 . S
C840 C839 1.523 . S
H841 C816 0.950 . S
H842 C818 0.950 . S
H843 C819 0.949 . S
H844 C821 0.950 . S
H845 C823 0.950 . S
C846 C847 1.349 . S
C846 C848 1.327 . S
C846 H871 0.950 . S
C847 C846 1.349 . S
C847 C863 1.349 . S
C848 C846 1.327 . S
C848 C867 1.429 . S
C848 H872 0.950 . S
C849 C866 1.574 . S
C849 C868 1.368 . S
C849 H873 0.949 . S
H850 C854 0.949 . S
C851 C852 1.349 . S
C851 C853 1.327 . S
C851 H874 0.950 . S
C852 C851 1.349 . S
C852 C864 1.349 . S
C853 C851 1.327 . S
C853 C869 1.429 . S
C853 H875 0.950 . S
C854 H850 0.949 . S
C854 C862 1.574 . S
C854 C870 1.368 . S
H855 C863 0.950 . S
H856 C861 0.950 . S
H857 C862 0.949 . S
H858 C864 0.950 . S
H859 C865 0.950 . S
H860 C866 0.949 . S
C861 H856 0.950 . S
C861 C863 1.327 . S
C861 C867 1.429 . S
C862 C854 1.574 . S
C862 H857 0.949 . S
C862 C868 1.368 . S
C863 C847 1.349 . S
C863 H855 0.950 . S
C863 C861 1.327 . S
C864 C852 1.349 . S
C864 H858 0.950 . S
C864 C865 1.327 . S
C865 H859 0.950 . S
C865 C864 1.327 . S
C865 C869 1.429 . S
C866 C849 1.574 . S
C866 H860 0.949 . S
C866 C870 1.368 . S
C867 C848 1.429 . S
C867 C861 1.429 . S
C867 C868 1.523 . S
C868 C849 1.368 . S
C868 C862 1.368 . S
C868 C867 1.523 . S
C869 C853 1.429 . S
C869 C865 1.429 . S
C869 C870 1.523 . S
C870 C854 1.368 . S
C870 C866 1.368 . S
C870 C869 1.523 . S
H871 C846 0.950 . S
H872 C848 0.950 . S
H873 C849 0.949 . S
H874 C851 0.950 . S
H875 C853 0.950 . S
C876 C877 1.349 . S
C876 C878 1.327 . S
C876 H901 0.950 . S
C877 C876 1.349 . S
C877 C893 1.349 . S
C878 C876 1.327 . S
C878 C897 1.429 . S
C878 H902 0.950 . S
C879 C896 1.574 . S
C879 C898 1.368 . S
C879 H903 0.949 . S
H880 C884 0.949 . S
C881 C882 1.349 . S
C881 C883 1.327 . S
C881 H904 0.950 . S
C882 C881 1.349 . S
C882 C894 1.349 . S
C883 C881 1.327 . S
C883 C899 1.429 . S
C883 H905 0.950 . S
C884 H880 0.949 . S
C884 C892 1.574 . S
C884 C900 1.368 . S
H885 C893 0.950 . S
H886 C891 0.950 . S
H887 C892 0.949 . S
H888 C894 0.950 . S
H889 C895 0.950 . S
H890 C896 0.949 . S
C891 H886 0.950 . S
C891 C893 1.327 . S
C891 C897 1.429 . S
C892 C884 1.574 . S
C892 H887 0.949 . S
C892 C898 1.368 . S
C893 C877 1.349 . S
C893 H885 0.950 . S
C893 C891 1.327 . S
C894 C882 1.349 . S
C894 H888 0.950 . S
C894 C895 1.327 . S
C895 H889 0.950 . S
C895 C894 1.327 . S
C895 C899 1.429 . S
C896 C879 1.574 . S
C896 H890 0.949 . S
C896 C900 1.368 . S
C897 C878 1.429 . S
C897 C891 1.429 . S
C897 C898 1.523 . S
C898 C879 1.368 . S
C898 C892 1.368 . S
C898 C897 1.523 . S
C899 C883 1.429 . S
C899 C895 1.429 . S
C899 C900 1.523 . S
C900 C884 1.368 . S
C900 C896 1.368 . S
C900 C899 1.523 . S
H901 C876 0.950 . S
H902 C878 0.950 . S
H903 C879 0.949 . S
H904 C881 0.950 . S
H905 C883 0.950 . S
C906 C907 1.349 . S
C906 C908 1.327 . S
C906 H931 0.950 . S
C907 C906 1.349 . S
C907 C923 1.349 . S
C908 C906 1.327 . S
C908 C927 1.429 . S
C908 H932 0.950 . S
C909 C926 1.574 1_655 S
C909 C928 1.368 . S
C909 H933 0.949 . S
H910 C914 0.949 . S
C911 C912 1.349 . S
C911 C913 1.327 . S
C911 H934 0.950 . S
C912 C911 1.349 . S
C912 C924 1.349 . S
C913 C911 1.327 . S
C913 C929 1.429 . S
C913 H935 0.950 . S
C914 H910 0.949 . S
C914 C922 1.574 1_455 S
C914 C930 1.368 . S
H915 C923 0.950 . S
H916 C921 0.950 . S
H917 C922 0.949 . S
H918 C924 0.950 . S
H919 C925 0.950 . S
H920 C926 0.949 . S
C921 H916 0.950 . S
C921 C923 1.327 . S
C921 C927 1.429 . S
C922 C914 1.574 1_655 S
C922 H917 0.949 . S
C922 C928 1.368 . S
C923 C907 1.349 . S
C923 H915 0.950 . S
C923 C921 1.327 . S
C924 C912 1.349 . S
C924 H918 0.950 . S
C924 C925 1.327 . S
C925 H919 0.950 . S
C925 C924 1.327 . S
C925 C929 1.429 . S
C926 C909 1.574 1_455 S
C926 H920 0.949 . S
C926 C930 1.368 . S
C927 C908 1.429 . S
C927 C921 1.429 . S
C927 C928 1.523 . S
C928 C909 1.368 . S
C928 C922 1.368 . S
C928 C927 1.523 . S
C929 C913 1.429 . S
C929 C925 1.429 . S
C929 C930 1.523 . S
C930 C914 1.368 . S
C930 C926 1.368 . S
C930 C929 1.523 . S
H931 C906 0.950 . S
H932 C908 0.950 . S
H933 C909 0.949 . S
H934 C911 0.950 . S
H935 C913 0.950 . S
C936 C937 1.349 . S
C936 C938 1.327 . S
C936 H961 0.950 . S
C937 C936 1.349 . S
C937 C953 1.349 . S
C938 C936 1.327 . S
C938 C957 1.429 . S
C938 H962 0.950 . S
C939 C956 1.574 . S
C939 C958 1.368 . S
C939 H963 0.949 . S
H940 C944 0.949 . S
C941 C942 1.349 . S
C941 C943 1.327 . S
C941 H964 0.950 . S
C942 C941 1.349 . S
C942 C954 1.349 . S
C943 C941 1.327 . S
C943 C959 1.429 . S
C943 H965 0.950 . S
C944 H940 0.949 . S
C944 C952 1.574 . S
C944 C960 1.368 . S
H945 C953 0.950 . S
H946 C951 0.950 . S
H947 C952 0.949 . S
H948 C954 0.950 . S
H949 C955 0.950 . S
H950 C956 0.949 . S
C951 H946 0.950 . S
C951 C953 1.327 . S
C951 C957 1.429 . S
C952 C944 1.574 . S
C952 H947 0.949 . S
C952 C958 1.368 . S
C953 C937 1.349 . S
C953 H945 0.950 . S
C953 C951 1.327 . S
C954 C942 1.349 . S
C954 H948 0.950 . S
C954 C955 1.327 . S
C955 H949 0.950 . S
C955 C954 1.327 . S
C955 C959 1.429 . S
C956 C939 1.574 . S
C956 H950 0.949 . S
C956 C960 1.368 . S
C957 C938 1.429 . S
C957 C951 1.429 . S
C957 C958 1.523 . S
C958 C939 1.368 . S
C958 C952 1.368 . S
C958 C957 1.523 . S
C959 C943 1.429 . S
C959 C955 1.429 . S
C959 C960 1.523 . S
C960 C944 1.368 . S
C960 C956 1.368 . S
C960 C959 1.523 . S
H961 C936 0.950 . S
H962 C938 0.950 . S
H963 C939 0.949 . S
H964 C941 0.950 . S
H965 C943 0.950 . S
C966 C967 1.349 . S
C966 C968 1.327 . S
C966 H991 0.950 . S
C967 C966 1.349 . S
C967 C983 1.349 . S
C968 C966 1.327 . S
C968 C987 1.429 . S
C968 H992 0.950 . S
C969 C986 1.574 1_455 S
C969 C988 1.368 . S
C969 H993 0.949 . S
H970 C974 0.949 . S
C971 C972 1.349 . S
C971 C973 1.327 . S
C971 H994 0.950 . S
C972 C971 1.349 . S
C972 C984 1.349 . S
C973 C971 1.327 . S
C973 C989 1.429 . S
C973 H995 0.950 . S
C974 H970 0.949 . S
C974 C982 1.574 1_655 S
C974 C990 1.368 . S
H975 C983 0.950 . S
H976 C981 0.950 . S
H977 C982 0.949 . S
H978 C984 0.950 . S
H979 C985 0.950 . S
H980 C986 0.949 . S
C981 H976 0.950 . S
C981 C983 1.327 . S
C981 C987 1.429 . S
C982 C974 1.574 1_455 S
C982 H977 0.949 . S
C982 C988 1.368 . S
C983 C967 1.349 . S
C983 H975 0.950 . S
C983 C981 1.327 . S
C984 C972 1.349 . S
C984 H978 0.950 . S
C984 C985 1.327 . S
C985 H979 0.950 . S
C985 C984 1.327 . S
C985 C989 1.429 . S
C986 C969 1.574 1_655 S
C986 H980 0.949 . S
C986 C990 1.368 . S
C987 C968 1.429 . S
C987 C981 1.429 . S
C987 C988 1.523 . S
C988 C969 1.368 . S
C988 C982 1.368 . S
C988 C987 1.523 . S
C989 C973 1.429 . S
C989 C985 1.429 . S
C989 C990 1.523 . S
C990 C974 1.368 . S
C990 C986 1.368 . S
C990 C989 1.523 . S
H991 C966 0.950 . S
H992 C968 0.950 . S
H993 C969 0.949 . S
H994 C971 0.950 . S
H995 C973 0.950 . S
C996 C997 1.349 . S
C996 C998 1.327 . S
C996 H1021 0.950 . S
C997 C996 1.349 . S
C997 C1013 1.349 . S
C998 C996 1.327 . S
C998 C1017 1.429 . S
C998 H1022 0.950 . S
C999 C1016 1.574 . S
C999 C1018 1.368 . S
C999 H1023 0.949 . S
H1000 C1004 0.949 . S
C1001 C1002 1.349 . S
C1001 C1003 1.327 . S
C1001 H1024 0.950 . S
C1002 C1001 1.349 . S
C1002 C1014 1.349 . S
C1003 C1001 1.327 . S
C1003 C1019 1.429 . S
C1003 H1025 0.950 . S
C1004 H1000 0.949 . S
C1004 C1012 1.574 . S
C1004 C1020 1.368 . S
H1005 C1013 0.950 . S
H1006 C1011 0.950 . S
H1007 C1012 0.949 . S
H1008 C1014 0.950 . S
H1009 C1015 0.950 . S
H1010 C1016 0.949 . S
C1011 H1006 0.950 . S
C1011 C1013 1.327 . S
C1011 C1017 1.429 . S
C1012 C1004 1.574 . S
C1012 H1007 0.949 . S
C1012 C1018 1.368 . S
C1013 C997 1.349 . S
C1013 H1005 0.950 . S
C1013 C1011 1.327 . S
C1014 C1002 1.349 . S
C1014 H1008 0.950 . S
C1014 C1015 1.327 . S
C1015 H1009 0.950 . S
C1015 C1014 1.327 . S
C1015 C1019 1.429 . S
C1016 C999 1.574 . S
C1016 H1010 0.949 . S
C1016 C1020 1.368 . S
C1017 C998 1.429 . S
C1017 C1011 1.429 . S
C1017 C1018 1.523 . S
C1018 C999 1.368 . S
C1018 C1012 1.368 . S
C1018 C1017 1.523 . S
C1019 C1003 1.429 . S
C1019 C1015 1.429 . S
C1019 C1020 1.523 . S
C1020 C1004 1.368 . S
C1020 C1016 1.368 . S
C1020 C1019 1.523 . S
H1021 C996 0.950 . S
H1022 C998 0.950 . S
H1023 C999 0.949 . S
H1024 C1001 0.950 . S
H1025 C1003 0.950 . S
C1026 C1027 1.349 . S
C1026 C1028 1.327 . S
C1026 H1051 0.950 . S
C1027 C1026 1.349 . S
C1027 C1043 1.349 . S
C1028 C1026 1.327 . S
C1028 C1047 1.429 . S
C1028 H1052 0.950 . S
C1029 C1046 1.574 . S
C1029 C1048 1.368 . S
C1029 H1053 0.949 . S
H1030 C1034 0.949 . S
C1031 C1032 1.349 . S
C1031 C1033 1.327 . S
C1031 H1054 0.950 . S
C1032 C1031 1.349 . S
C1032 C1044 1.349 . S
C1033 C1031 1.327 . S
C1033 C1049 1.429 . S
C1033 H1055 0.950 . S
C1034 H1030 0.949 . S
C1034 C1042 1.574 . S
C1034 C1050 1.368 . S
H1035 C1043 0.950 . S
H1036 C1041 0.950 . S
H1037 C1042 0.949 . S
H1038 C1044 0.950 . S
H1039 C1045 0.950 . S
H1040 C1046 0.949 . S
C1041 H1036 0.950 . S
C1041 C1043 1.327 . S
C1041 C1047 1.429 . S
C1042 C1034 1.574 . S
C1042 H1037 0.949 . S
C1042 C1048 1.368 . S
C1043 C1027 1.349 . S
C1043 H1035 0.950 . S
C1043 C1041 1.327 . S
C1044 C1032 1.349 . S
C1044 H1038 0.950 . S
C1044 C1045 1.327 . S
C1045 H1039 0.950 . S
C1045 C1044 1.327 . S
C1045 C1049 1.429 . S
C1046 C1029 1.574 . S
C1046 H1040 0.949 . S
C1046 C1050 1.368 . S
C1047 C1028 1.429 . S
C1047 C1041 1.429 . S
C1047 C1048 1.523 . S
C1048 C1029 1.368 . S
C1048 C1042 1.368 . S
C1048 C1047 1.523 . S
C1049 C1033 1.429 . S
C1049 C1045 1.429 . S
C1049 C1050 1.523 . S
C1050 C1034 1.368 . S
C1050 C1046 1.368 . S
C1050 C1049 1.523 . S
H1051 C1026 0.950 . S
H1052 C1028 0.950 . S
H1053 C1029 0.949 . S
H1054 C1031 0.950 . S
H1055 C1033 0.950 . S
C1056 C1057 1.349 . S
C1056 C1058 1.327 . S
C1056 H1081 0.950 . S
C1057 C1056 1.349 . S
C1057 C1073 1.349 . S
C1058 C1056 1.327 . S
C1058 C1077 1.429 . S
C1058 H1082 0.950 . S
C1059 C1076 1.574 . S
C1059 C1078 1.368 . S
C1059 H1083 0.949 . S
H1060 C1064 0.949 . S
C1061 C1062 1.349 . S
C1061 C1063 1.327 . S
C1061 H1084 0.950 . S
C1062 C1061 1.349 . S
C1062 C1074 1.349 . S
C1063 C1061 1.327 . S
C1063 C1079 1.429 . S
C1063 H1085 0.950 . S
C1064 H1060 0.949 . S
C1064 C1072 1.574 . S
C1064 C1080 1.368 . S
H1065 C1073 0.950 . S
H1066 C1071 0.950 . S
H1067 C1072 0.949 . S
H1068 C1074 0.950 . S
H1069 C1075 0.950 . S
H1070 C1076 0.949 . S
C1071 H1066 0.950 . S
C1071 C1073 1.327 . S
C1071 C1077 1.429 . S
C1072 C1064 1.574 . S
C1072 H1067 0.949 . S
C1072 C1078 1.368 . S
C1073 C1057 1.349 . S
C1073 H1065 0.950 . S
C1073 C1071 1.327 . S
C1074 C1062 1.349 . S
C1074 H1068 0.950 . S
C1074 C1075 1.327 . S
C1075 H1069 0.950 . S
C1075 C1074 1.327 . S
C1075 C1079 1.429 . S
C1076 C1059 1.574 . S
C1076 H1070 0.949 . S
C1076 C1080 1.368 . S
C1077 C1058 1.429 . S
C1077 C1071 1.429 . S
C1077 C1078 1.523 . S
C1078 C1059 1.368 . S
C1078 C1072 1.368 . S
C1078 C1077 1.523 . S
C1079 C1063 1.429 . S
C1079 C1075 1.429 . S
C1079 C1080 1.523 . S
C1080 C1064 1.368 . S
C1080 C1076 1.368 . S
C1080 C1079 1.523 . S
H1081 C1056 0.950 . S
H1082 C1058 0.950 . S
H1083 C1059 0.949 . S
H1084 C1061 0.950 . S
H1085 C1063 0.950 . S
C1086 C1087 1.349 . S
C1086 C1088 1.327 . S
C1086 H1111 0.950 . S
C1087 C1086 1.349 . S
C1087 C1103 1.349 . S
C1088 C1086 1.327 . S
C1088 C1107 1.429 . S
C1088 H1112 0.950 . S
C1089 C1106 1.574 . S
C1089 C1108 1.368 . S
C1089 H1113 0.949 . S
H1090 C1094 0.949 . S
C1091 C1092 1.349 . S
C1091 C1093 1.327 . S
C1091 H1114 0.950 . S
C1092 C1091 1.349 . S
C1092 C1104 1.349 . S
C1093 C1091 1.327 . S
C1093 C1109 1.429 . S
C1093 H1115 0.950 . S
C1094 H1090 0.949 . S
C1094 C1102 1.574 . S
C1094 C1110 1.368 . S
H1095 C1103 0.950 . S
H1096 C1101 0.950 . S
H1097 C1102 0.949 . S
H1098 C1104 0.950 . S
H1099 C1105 0.950 . S
H1100 C1106 0.949 . S
C1101 H1096 0.950 . S
C1101 C1103 1.327 . S
C1101 C1107 1.429 . S
C1102 C1094 1.574 . S
C1102 H1097 0.949 . S
C1102 C1108 1.368 . S
C1103 C1087 1.349 . S
C1103 H1095 0.950 . S
C1103 C1101 1.327 . S
C1104 C1092 1.349 . S
C1104 H1098 0.950 . S
C1104 C1105 1.327 . S
C1105 H1099 0.950 . S
C1105 C1104 1.327 . S
C1105 C1109 1.429 . S
C1106 C1089 1.574 . S
C1106 H1100 0.949 . S
C1106 C1110 1.368 . S
C1107 C1088 1.429 . S
C1107 C1101 1.429 . S
C1107 C1108 1.523 . S
C1108 C1089 1.368 . S
C1108 C1102 1.368 . S
C1108 C1107 1.523 . S
C1109 C1093 1.429 . S
C1109 C1105 1.429 . S
C1109 C1110 1.523 . S
C1110 C1094 1.368 . S
C1110 C1106 1.368 . S
C1110 C1109 1.523 . S
H1111 C1086 0.950 . S
H1112 C1088 0.950 . S
H1113 C1089 0.949 . S
H1114 C1091 0.950 . S
H1115 C1093 0.950 . S
C1116 C1117 1.349 . S
C1116 C1118 1.327 . S
C1116 H1141 0.950 . S
C1117 C1116 1.349 . S
C1117 C1133 1.349 . S
C1118 C1116 1.327 . S
C1118 C1137 1.429 . S
C1118 H1142 0.950 . S
C1119 C1136 1.574 . S
C1119 C1138 1.368 . S
C1119 H1143 0.949 . S
H1120 C1124 0.949 . S
C1121 C1122 1.349 . S
C1121 C1123 1.327 . S
C1121 H1144 0.950 . S
C1122 C1121 1.349 . S
C1122 C1134 1.349 . S
C1123 C1121 1.327 . S
C1123 C1139 1.429 . S
C1123 H1145 0.950 . S
C1124 H1120 0.949 . S
C1124 C1132 1.574 . S
C1124 C1140 1.368 . S
H1125 C1133 0.950 . S
H1126 C1131 0.950 . S
H1127 C1132 0.949 . S
H1128 C1134 0.950 . S
H1129 C1135 0.950 . S
H1130 C1136 0.949 . S
C1131 H1126 0.950 . S
C1131 C1133 1.327 . S
C1131 C1137 1.429 . S
C1132 C1124 1.574 . S
C1132 H1127 0.949 . S
C1132 C1138 1.368 . S
C1133 C1117 1.349 . S
C1133 H1125 0.950 . S
C1133 C1131 1.327 . S
C1134 C1122 1.349 . S
C1134 H1128 0.950 . S
C1134 C1135 1.327 . S
C1135 H1129 0.950 . S
C1135 C1134 1.327 . S
C1135 C1139 1.429 . S
C1136 C1119 1.574 . S
C1136 H1130 0.949 . S
C1136 C1140 1.368 . S
C1137 C1118 1.429 . S
C1137 C1131 1.429 . S
C1137 C1138 1.523 . S
C1138 C1119 1.368 . S
C1138 C1132 1.368 . S
C1138 C1137 1.523 . S
C1139 C1123 1.429 . S
C1139 C1135 1.429 . S
C1139 C1140 1.523 . S
C1140 C1124 1.368 . S
C1140 C1136 1.368 . S
C1140 C1139 1.523 . S
H1141 C1116 0.950 . S
H1142 C1118 0.950 . S
H1143 C1119 0.949 . S
H1144 C1121 0.950 . S
H1145 C1123 0.950 . S
C1146 C1147 1.349 . S
C1146 C1148 1.327 . S
C1146 H1171 0.950 . S
C1147 C1146 1.349 . S
C1147 C1163 1.349 . S
C1148 C1146 1.327 . S
C1148 C1167 1.429 . S
C1148 H1172 0.950 . S
C1149 C1166 1.574 . S
C1149 C1168 1.368 . S
C1149 H1173 0.949 . S
H1150 C1154 0.949 . S
C1151 C1152 1.349 . S
C1151 C1153 1.327 . S
C1151 H1174 0.950 . S
C1152 C1151 1.349 . S
C1152 C1164 1.349 . S
C1153 C1151 1.327 . S
C1153 C1169 1.429 . S
C1153 H1175 0.950 . S
C1154 H1150 0.949 . S
C1154 C1162 1.574 . S
C1154 C1170 1.368 . S
H1155 C1163 0.950 . S
H1156 C1161 0.950 . S
H1157 C1162 0.949 . S
H1158 C1164 0.950 . S
H1159 C1165 0.950 . S
H1160 C1166 0.949 . S
C1161 H1156 0.950 . S
C1161 C1163 1.327 . S
C1161 C1167 1.429 . S
C1162 C1154 1.574 . S
C1162 H1157 0.949 . S
C1162 C1168 1.368 . S
C1163 C1147 1.349 . S
C1163 H1155 0.950 . S
C1163 C1161 1.327 . S
C1164 C1152 1.349 . S
C1164 H1158 0.950 . S
C1164 C1165 1.327 . S
C1165 H1159 0.950 . S
C1165 C1164 1.327 . S
C1165 C1169 1.429 . S
C1166 C1149 1.574 . S
C1166 H1160 0.949 . S
C1166 C1170 1.368 . S
C1167 C1148 1.429 . S
C1167 C1161 1.429 . S
C1167 C1168 1.523 . S
C1168 C1149 1.368 . S
C1168 C1162 1.368 . S
C1168 C1167 1.523 . S
C1169 C1153 1.429 . S
C1169 C1165 1.429 . S
C1169 C1170 1.523 . S
C1170 C1154 1.368 . S
C1170 C1166 1.368 . S
C1170 C1169 1.523 . S
H1171 C1146 0.950 . S
H1172 C1148 0.950 . S
H1173 C1149 0.949 . S
H1174 C1151 0.950 . S
H1175 C1153 0.950 . S
C1176 C1177 1.349 . S
C1176 C1178 1.327 . S
C1176 H1201 0.950 . S
C1177 C1176 1.349 . S
C1177 C1193 1.349 . S
C1178 C1176 1.327 . S
C1178 C1197 1.429 . S
C1178 H1202 0.950 . S
C1179 C1196 1.574 1_655 S
C1179 C1198 1.368 . S
C1179 H1203 0.949 . S
H1180 C1184 0.949 . S
C1181 C1182 1.349 . S
C1181 C1183 1.327 . S
C1181 H1204 0.950 . S
C1182 C1181 1.349 . S
C1182 C1194 1.349 . S
C1183 C1181 1.327 . S
C1183 C1199 1.429 . S
C1183 H1205 0.950 . S
C1184 H1180 0.949 . S
C1184 C1192 1.574 1_455 S
C1184 C1200 1.368 . S
H1185 C1193 0.950 . S
H1186 C1191 0.950 . S
H1187 C1192 0.949 . S
H1188 C1194 0.950 . S
H1189 C1195 0.950 . S
H1190 C1196 0.949 . S
C1191 H1186 0.950 . S
C1191 C1193 1.327 . S
C1191 C1197 1.429 . S
C1192 C1184 1.574 1_655 S
C1192 H1187 0.949 . S
C1192 C1198 1.368 . S
C1193 C1177 1.349 . S
C1193 H1185 0.950 . S
C1193 C1191 1.327 . S
C1194 C1182 1.349 . S
C1194 H1188 0.950 . S
C1194 C1195 1.327 . S
C1195 H1189 0.950 . S
C1195 C1194 1.327 . S
C1195 C1199 1.429 . S
C1196 C1179 1.574 1_455 S
C1196 H1190 0.949 . S
C1196 C1200 1.368 . S
C1197 C1178 1.429 . S
C1197 C1191 1.429 . S
C1197 C1198 1.523 . S
C1198 C1179 1.368 . S
C1198 C1192 1.368 . S
C1198 C1197 1.523 . S
C1199 C1183 1.429 . S
C1199 C1195 1.429 . S
C1199 C1200 1.523 . S
C1200 C1184 1.368 . S
C1200 C1196 1.368 . S
C1200 C1199 1.523 . S
H1201 C1176 0.950 . S
H1202 C1178 0.950 . S
H1203 C1179 0.949 . S
H1204 C1181 0.950 . S
H1205 C1183 0.950 . S
C1206 C1207 1.349 . S
C1206 C1208 1.327 . S
C1206 H1231 0.950 . S
C1207 C1206 1.349 . S
C1207 C1223 1.349 . S
C1208 C1206 1.327 . S
C1208 C1227 1.429 . S
C1208 H1232 0.950 . S
C1209 C1226 1.574 . S
C1209 C1228 1.368 . S
C1209 H1233 0.949 . S
H1210 C1214 0.949 . S
C1211 C1212 1.349 . S
C1211 C1213 1.327 . S
C1211 H1234 0.950 . S
C1212 C1211 1.349 . S
C1212 C1224 1.349 . S
C1213 C1211 1.327 . S
C1213 C1229 1.429 . S
C1213 H1235 0.950 . S
C1214 H1210 0.949 . S
C1214 C1222 1.574 . S
C1214 C1230 1.368 . S
H1215 C1223 0.950 . S
H1216 C1221 0.950 . S
H1217 C1222 0.949 . S
H1218 C1224 0.950 . S
H1219 C1225 0.950 . S
H1220 C1226 0.949 . S
C1221 H1216 0.950 . S
C1221 C1223 1.327 . S
C1221 C1227 1.429 . S
C1222 C1214 1.574 . S
C1222 H1217 0.949 . S
C1222 C1228 1.368 . S
C1223 C1207 1.349 . S
C1223 H1215 0.950 . S
C1223 C1221 1.327 . S
C1224 C1212 1.349 . S
C1224 H1218 0.950 . S
C1224 C1225 1.327 . S
C1225 H1219 0.950 . S
C1225 C1224 1.327 . S
C1225 C1229 1.429 . S
C1226 C1209 1.574 . S
C1226 H1220 0.949 . S
C1226 C1230 1.368 . S
C1227 C1208 1.429 . S
C1227 C1221 1.429 . S
C1227 C1228 1.523 . S
C1228 C1209 1.368 . S
C1228 C1222 1.368 . S
C1228 C1227 1.523 . S
C1229 C1213 1.429 . S
C1229 C1225 1.429 . S
C1229 C1230 1.523 . S
C1230 C1214 1.368 . S
C1230 C1226 1.368 . S
C1230 C1229 1.523 . S
H1231 C1206 0.950 . S
H1232 C1208 0.950 . S
H1233 C1209 0.949 . S
H1234 C1211 0.950 . S
H1235 C1213 0.950 . S
C1236 C1237 1.349 . S
C1236 C1238 1.327 . S
C1236 H1261 0.950 . S
C1237 C1236 1.349 . S
C1237 C1253 1.349 . S
C1238 C1236 1.327 . S
C1238 C1257 1.429 . S
C1238 H1262 0.950 . S
C1239 C1256 1.574 . S
C1239 C1258 1.368 . S
C1239 H1263 0.949 . S
H1240 C1244 0.949 . S
C1241 C1242 1.349 . S
C1241 C1243 1.327 . S
C1241 H1264 0.950 . S
C1242 C1241 1.349 . S
C1242 C1254 1.349 . S
C1243 C1241 1.327 . S
C1243 C1259 1.429 . S
C1243 H1265 0.950 . S
C1244 H1240 0.949 . S
C1244 C1252 1.574 . S
C1244 C1260 1.368 . S
H1245 C1253 0.950 . S
H1246 C1251 0.950 . S
H1247 C1252 0.949 . S
H1248 C1254 0.950 . S
H1249 C1255 0.950 . S
H1250 C1256 0.949 . S
C1251 H1246 0.950 . S
C1251 C1253 1.327 . S
C1251 C1257 1.429 . S
C1252 C1244 1.574 . S
C1252 H1247 0.949 . S
C1252 C1258 1.368 . S
C1253 C1237 1.349 . S
C1253 H1245 0.950 . S
C1253 C1251 1.327 . S
C1254 C1242 1.349 . S
C1254 H1248 0.950 . S
C1254 C1255 1.327 . S
C1255 H1249 0.950 . S
C1255 C1254 1.327 . S
C1255 C1259 1.429 . S
C1256 C1239 1.574 . S
C1256 H1250 0.949 . S
C1256 C1260 1.368 . S
C1257 C1238 1.429 . S
C1257 C1251 1.429 . S
C1257 C1258 1.523 . S
C1258 C1239 1.368 . S
C1258 C1252 1.368 . S
C1258 C1257 1.523 . S
C1259 C1243 1.429 . S
C1259 C1255 1.429 . S
C1259 C1260 1.523 . S
C1260 C1244 1.368 . S
C1260 C1256 1.368 . S
C1260 C1259 1.523 . S
H1261 C1236 0.950 . S
H1262 C1238 0.950 . S
H1263 C1239 0.949 . S
H1264 C1241 0.950 . S
H1265 C1243 0.950 . S
C1266 C1267 1.349 . S
C1266 C1268 1.327 . S
C1266 H1291 0.950 . S
C1267 C1266 1.349 . S
C1267 C1283 1.349 . S
C1268 C1266 1.327 . S
C1268 C1287 1.429 . S
C1268 H1292 0.950 . S
C1269 C1286 1.574 1_455 S
C1269 C1288 1.368 . S
C1269 H1293 0.949 . S
H1270 C1274 0.949 . S
C1271 C1272 1.349 . S
C1271 C1273 1.327 . S
C1271 H1294 0.950 . S
C1272 C1271 1.349 . S
C1272 C1284 1.349 . S
C1273 C1271 1.327 . S
C1273 C1289 1.429 . S
C1273 H1295 0.950 . S
C1274 H1270 0.949 . S
C1274 C1282 1.574 1_655 S
C1274 C1290 1.368 . S
H1275 C1283 0.950 . S
H1276 C1281 0.950 . S
H1277 C1282 0.949 . S
H1278 C1284 0.950 . S
H1279 C1285 0.950 . S
H1280 C1286 0.949 . S
C1281 H1276 0.950 . S
C1281 C1283 1.327 . S
C1281 C1287 1.429 . S
C1282 C1274 1.574 1_455 S
C1282 H1277 0.949 . S
C1282 C1288 1.368 . S
C1283 C1267 1.349 . S
C1283 H1275 0.950 . S
C1283 C1281 1.327 . S
C1284 C1272 1.349 . S
C1284 H1278 0.950 . S
C1284 C1285 1.327 . S
C1285 H1279 0.950 . S
C1285 C1284 1.327 . S
C1285 C1289 1.429 . S
C1286 C1269 1.574 1_655 S
C1286 H1280 0.949 . S
C1286 C1290 1.368 . S
C1287 C1268 1.429 . S
C1287 C1281 1.429 . S
C1287 C1288 1.523 . S
C1288 C1269 1.368 . S
C1288 C1282 1.368 . S
C1288 C1287 1.523 . S
C1289 C1273 1.429 . S
C1289 C1285 1.429 . S
C1289 C1290 1.523 . S
C1290 C1274 1.368 . S
C1290 C1286 1.368 . S
C1290 C1289 1.523 . S
H1291 C1266 0.950 . S
H1292 C1268 0.950 . S
H1293 C1269 0.949 . S
H1294 C1271 0.950 . S
H1295 C1273 0.950 . S
C1296 C1297 1.349 . S
C1296 C1298 1.327 . S
C1296 H1321 0.950 . S
C1297 C1296 1.349 . S
C1297 C1313 1.356 . S
C1298 C1296 1.327 . S
C1298 C1317 1.429 . S
C1298 H1322 0.950 . S
C1299 C1316 1.574 . S
C1299 C1318 1.368 1_556 S
C1299 H1323 0.949 . S
H1300 C1304 0.949 . S
C1301 C1302 1.349 . S
C1301 C1303 1.327 . S
C1301 H1324 0.950 . S
C1302 C1301 1.349 . S
C1302 C1314 1.349 . S
C1303 C1301 1.327 . S
C1303 C1319 1.429 . S
C1303 H1325 0.950 . S
C1304 H1300 0.949 . S
C1304 C1312 1.574 . S
C1304 C1320 1.368 1_554 S
H1305 C1313 0.945 1_556 S
H1306 C1311 0.950 . S
H1307 C1312 0.949 . S
H1308 C1314 0.950 1_554 S
H1309 C1315 0.950 . S
H1310 C1316 0.949 . S
C1311 H1306 0.950 . S
C1311 C1313 1.325 1_556 S
C1311 C1317 1.429 1_556 S
C1312 C1304 1.574 . S
C1312 H1307 0.949 . S
C1312 C1318 1.368 . S
C1313 C1297 1.356 . S
C1313 H1305 0.945 1_554 S
C1313 C1311 1.325 1_554 S
C1314 C1302 1.349 . S
C1314 H1308 0.950 1_556 S
C1314 C1315 1.327 1_556 S
C1315 H1309 0.950 . S
C1315 C1314 1.327 1_554 S
C1315 C1319 1.429 1_554 S
C1316 C1299 1.574 . S
C1316 H1310 0.949 . S
C1316 C1320 1.368 . S
C1317 C1298 1.429 . S
C1317 C1311 1.429 1_554 S
C1317 C1318 1.523 . S
C1318 C1299 1.368 1_554 S
C1318 C1312 1.368 . S
C1318 C1317 1.523 . S
C1319 C1303 1.429 . S
C1319 C1315 1.429 1_556 S
C1319 C1320 1.523 . S
C1320 C1304 1.368 1_556 S
C1320 C1316 1.368 . S
C1320 C1319 1.523 . S
H1321 C1296 0.950 . S
H1322 C1298 0.950 . S
H1323 C1299 0.949 . S
H1324 C1301 0.950 . S
H1325 C1303 0.950 . S
C1326 C1327 1.349 . S
C1326 C1328 1.327 . S
C1326 H1351 0.950 . S
C1327 C1326 1.349 . S
C1327 C1343 1.349 . S
C1328 C1326 1.327 . S
C1328 C1347 1.429 . S
C1328 H1352 0.950 . S
C1329 C1346 1.574 . S
C1329 C1348 1.368 . S
C1329 H1353 0.949 . S
H1330 C1334 0.949 . S
C1331 C1332 1.349 . S
C1331 C1333 1.327 . S
C1331 H1354 0.950 . S
C1332 C1331 1.349 . S
C1332 C1344 1.349 . S
C1333 C1331 1.327 . S
C1333 C1349 1.429 . S
C1333 H1355 0.950 . S
C1334 H1330 0.949 . S
C1334 C1342 1.574 . S
C1334 C1350 1.368 . S
H1335 C1343 0.950 . S
H1336 C1341 0.950 . S
H1337 C1342 0.949 . S
H1338 C1344 0.950 . S
H1339 C1345 0.950 . S
H1340 C1346 0.949 . S
C1341 H1336 0.950 . S
C1341 C1343 1.327 . S
C1341 C1347 1.429 . S
C1342 C1334 1.574 . S
C1342 H1337 0.949 . S
C1342 C1348 1.368 . S
C1343 C1327 1.349 . S
C1343 H1335 0.950 . S
C1343 C1341 1.327 . S
C1344 C1332 1.349 . S
C1344 H1338 0.950 . S
C1344 C1345 1.327 . S
C1345 H1339 0.950 . S
C1345 C1344 1.327 . S
C1345 C1349 1.429 . S
C1346 C1329 1.574 . S
C1346 H1340 0.949 . S
C1346 C1350 1.368 . S
C1347 C1328 1.429 . S
C1347 C1341 1.429 . S
C1347 C1348 1.523 . S
C1348 C1329 1.368 . S
C1348 C1342 1.368 . S
C1348 C1347 1.523 . S
C1349 C1333 1.429 . S
C1349 C1345 1.429 . S
C1349 C1350 1.523 . S
C1350 C1334 1.368 . S
C1350 C1346 1.368 . S
C1350 C1349 1.523 . S
H1351 C1326 0.950 . S
H1352 C1328 0.950 . S
H1353 C1329 0.949 . S
H1354 C1331 0.950 . S
H1355 C1333 0.950 . S
C1356 C1357 1.349 . S
C1356 C1358 1.327 . S
C1356 H1381 0.950 . S
C1357 C1356 1.349 . S
C1357 C1373 1.349 . S
C1358 C1356 1.327 . S
C1358 C1377 1.429 . S
C1358 H1382 0.950 . S
C1359 C1376 1.574 . S
C1359 C1378 1.368 . S
C1359 H1383 0.949 . S
H1360 C1364 0.949 . S
C1361 C1362 1.349 . S
C1361 C1363 1.327 . S
C1361 H1384 0.950 . S
C1362 C1361 1.349 . S
C1362 C1374 1.349 . S
C1363 C1361 1.327 . S
C1363 C1379 1.429 . S
C1363 H1385 0.950 . S
C1364 H1360 0.949 . S
C1364 C1372 1.574 . S
C1364 C1380 1.368 . S
H1365 C1373 0.950 . S
H1366 C1371 0.950 . S
H1367 C1372 0.949 . S
H1368 C1374 0.950 . S
H1369 C1375 0.950 . S
H1370 C1376 0.949 . S
C1371 H1366 0.950 . S
C1371 C1373 1.327 . S
C1371 C1377 1.429 . S
C1372 C1364 1.574 . S
C1372 H1367 0.949 . S
C1372 C1378 1.368 . S
C1373 C1357 1.349 . S
C1373 H1365 0.950 . S
C1373 C1371 1.327 . S
C1374 C1362 1.349 . S
C1374 H1368 0.950 . S
C1374 C1375 1.327 . S
C1375 H1369 0.950 . S
C1375 C1374 1.327 . S
C1375 C1379 1.429 . S
C1376 C1359 1.574 . S
C1376 H1370 0.949 . S
C1376 C1380 1.368 . S
C1377 C1358 1.429 . S
C1377 C1371 1.429 . S
C1377 C1378 1.523 . S
C1378 C1359 1.368 . S
C1378 C1372 1.368 . S
C1378 C1377 1.523 . S
C1379 C1363 1.429 . S
C1379 C1375 1.429 . S
C1379 C1380 1.523 . S
C1380 C1364 1.368 . S
C1380 C1376 1.368 . S
C1380 C1379 1.523 . S
H1381 C1356 0.950 . S
H1382 C1358 0.950 . S
H1383 C1359 0.949 . S
H1384 C1361 0.950 . S
H1385 C1363 0.950 . S
C1386 C1387 1.349 . S
C1386 C1388 1.327 . S
C1386 H1411 0.950 . S
C1387 C1386 1.349 . S
C1387 C1403 1.349 . S
C1388 C1386 1.327 . S
C1388 C1407 1.429 . S
C1388 H1412 0.950 . S
C1389 C1406 1.574 . S
C1389 C1408 1.368 . S
C1389 H1413 0.949 . S
H1390 C1394 0.949 . S
C1391 C1392 1.349 . S
C1391 C1393 1.327 . S
C1391 H1414 0.950 . S
C1392 C1391 1.349 . S
C1392 C1404 1.349 . S
C1393 C1391 1.327 . S
C1393 C1409 1.429 . S
C1393 H1415 0.950 . S
C1394 H1390 0.949 . S
C1394 C1402 1.574 . S
C1394 C1410 1.368 . S
H1395 C1403 0.950 . S
H1396 C1401 0.950 . S
H1397 C1402 0.949 . S
H1398 C1404 0.950 . S
H1399 C1405 0.950 . S
H1400 C1406 0.949 . S
C1401 H1396 0.950 . S
C1401 C1403 1.327 . S
C1401 C1407 1.429 . S
C1402 C1394 1.574 . S
C1402 H1397 0.949 . S
C1402 C1408 1.368 . S
C1403 C1387 1.349 . S
C1403 H1395 0.950 . S
C1403 C1401 1.327 . S
C1404 C1392 1.349 . S
C1404 H1398 0.950 . S
C1404 C1405 1.327 . S
C1405 H1399 0.950 . S
C1405 C1404 1.327 . S
C1405 C1409 1.429 . S
C1406 C1389 1.574 . S
C1406 H1400 0.949 . S
C1406 C1410 1.368 . S
C1407 C1388 1.429 . S
C1407 C1401 1.429 . S
C1407 C1408 1.523 . S
C1408 C1389 1.368 . S
C1408 C1402 1.368 . S
C1408 C1407 1.523 . S
C1409 C1393 1.429 . S
C1409 C1405 1.429 . S
C1409 C1410 1.523 . S
C1410 C1394 1.368 . S
C1410 C1406 1.368 . S
C1410 C1409 1.523 . S
H1411 C1386 0.950 . S
H1412 C1388 0.950 . S
H1413 C1389 0.949 . S
H1414 C1391 0.950 . S
H1415 C1393 0.950 . S
C1416 C1417 1.349 . S
C1416 C1418 1.327 . S
C1416 H1441 0.950 . S
C1417 C1416 1.349 . S
C1417 C1433 1.349 . S
C1418 C1416 1.327 . S
C1418 C1437 1.429 . S
C1418 H1442 0.950 . S
C1419 C1436 1.574 . S
C1419 C1438 1.368 1_556 S
C1419 H1443 0.949 . S
H1420 C1424 0.949 . S
C1421 C1422 1.349 . S
C1421 C1423 1.327 . S
C1421 H1444 0.950 . S
C1422 C1421 1.349 . S
C1422 C1434 1.349 . S
C1423 C1421 1.327 . S
C1423 C1439 1.429 . S
C1423 H1445 0.950 . S
C1424 H1420 0.949 . S
C1424 C1432 1.574 . S
C1424 C1440 1.368 1_554 S
H1425 C1433 0.950 1_556 S
H1426 C1431 0.950 . S
H1427 C1432 0.949 . S
H1428 C1434 0.950 1_554 S
H1429 C1435 0.950 . S
H1430 C1436 0.949 . S
C1431 H1426 0.950 . S
C1431 C1433 1.327 1_556 S
C1431 C1437 1.429 1_556 S
C1432 C1424 1.574 . S
C1432 H1427 0.949 . S
C1432 C1438 1.368 . S
C1433 C1417 1.349 . S
C1433 H1425 0.950 1_554 S
C1433 C1431 1.327 1_554 S
C1434 C1422 1.349 . S
C1434 H1428 0.950 1_556 S
C1434 C1435 1.327 1_556 S
C1435 H1429 0.950 . S
C1435 C1434 1.327 1_554 S
C1435 C1439 1.429 1_554 S
C1436 C1419 1.574 . S
C1436 H1430 0.949 . S
C1436 C1440 1.368 . S
C1437 C1418 1.429 . S
C1437 C1431 1.429 1_554 S
C1437 C1438 1.523 . S
C1438 C1419 1.368 1_554 S
C1438 C1432 1.368 . S
C1438 C1437 1.523 . S
C1439 C1423 1.429 . S
C1439 C1435 1.429 1_556 S
C1439 C1440 1.523 . S
C1440 C1424 1.368 1_556 S
C1440 C1436 1.368 . S
C1440 C1439 1.523 . S
H1441 C1416 0.950 . S
H1442 C1418 0.950 . S
H1443 C1419 0.949 . S
H1444 C1421 0.950 . S
H1445 C1423 0.950 . S
C1446 C1447 1.349 . S
C1446 C1448 1.327 . S
C1446 H1471 0.950 . S
C1447 C1446 1.349 . S
C1447 C1463 1.349 . S
C1448 C1446 1.327 . S
C1448 C1467 1.429 . S
C1448 H1472 0.950 . S
C1449 C1466 1.574 . S
C1449 C1468 1.368 . S
C1449 H1473 0.949 . S
H1450 C1454 0.949 . S
C1451 C1452 1.349 . S
C1451 C1453 1.327 . S
C1451 H1474 0.950 . S
C1452 C1451 1.349 . S
C1452 C1464 1.349 . S
C1453 C1451 1.327 . S
C1453 C1469 1.429 . S
C1453 H1475 0.950 . S
C1454 H1450 0.949 . S
C1454 C1462 1.574 . S
C1454 C1470 1.368 . S
H1455 C1463 0.950 . S
H1456 C1461 0.950 . S
H1457 C1462 0.949 . S
H1458 C1464 0.950 . S
H1459 C1465 0.950 . S
H1460 C1466 0.949 . S
C1461 H1456 0.950 . S
C1461 C1463 1.327 . S
C1461 C1467 1.429 . S
C1462 C1454 1.574 . S
C1462 H1457 0.949 . S
C1462 C1468 1.368 . S
C1463 C1447 1.349 . S
C1463 H1455 0.950 . S
C1463 C1461 1.327 . S
C1464 C1452 1.349 . S
C1464 H1458 0.950 . S
C1464 C1465 1.327 . S
C1465 H1459 0.950 . S
C1465 C1464 1.327 . S
C1465 C1469 1.429 . S
C1466 C1449 1.574 . S
C1466 H1460 0.949 . S
C1466 C1470 1.368 . S
C1467 C1448 1.429 . S
C1467 C1461 1.429 . S
C1467 C1468 1.523 . S
C1468 C1449 1.368 . S
C1468 C1462 1.368 . S
C1468 C1467 1.523 . S
C1469 C1453 1.429 . S
C1469 C1465 1.429 . S
C1469 C1470 1.523 . S
C1470 C1454 1.368 . S
C1470 C1466 1.368 . S
C1470 C1469 1.523 . S
H1471 C1446 0.950 . S
H1472 C1448 0.950 . S
H1473 C1449 0.949 . S
H1474 C1451 0.950 . S
H1475 C1453 0.950 . S
C1476 C1477 1.349 . S
C1476 C1478 1.327 . S
C1476 H1501 0.950 . S
C1477 C1476 1.349 . S
C1477 C1493 1.349 . S
C1478 C1476 1.327 . S
C1478 C1497 1.429 . S
C1478 H1502 0.950 . S
C1479 C1496 1.574 . S
C1479 C1498 1.368 . S
C1479 H1503 0.949 . S
H1480 C1484 0.949 . S
C1481 C1482 1.349 . S
C1481 C1483 1.327 . S
C1481 H1504 0.950 . S
C1482 C1481 1.349 . S
C1482 C1494 1.349 . S
C1483 C1481 1.327 . S
C1483 C1499 1.429 . S
C1483 H1505 0.950 . S
C1484 H1480 0.949 . S
C1484 C1492 1.574 . S
C1484 C1500 1.368 . S
H1485 C1493 0.950 . S
H1486 C1491 0.950 . S
H1487 C1492 0.949 . S
H1488 C1494 0.950 . S
H1489 C1495 0.950 . S
H1490 C1496 0.949 . S
C1491 H1486 0.950 . S
C1491 C1493 1.327 . S
C1491 C1497 1.429 . S
C1492 C1484 1.574 . S
C1492 H1487 0.949 . S
C1492 C1498 1.368 . S
C1493 C1477 1.349 . S
C1493 H1485 0.950 . S
C1493 C1491 1.327 . S
C1494 C1482 1.349 . S
C1494 H1488 0.950 . S
C1494 C1495 1.327 . S
C1495 H1489 0.950 . S
C1495 C1494 1.327 . S
C1495 C1499 1.429 . S
C1496 C1479 1.574 . S
C1496 H1490 0.949 . S
C1496 C1500 1.368 . S
C1497 C1478 1.429 . S
C1497 C1491 1.429 . S
C1497 C1498 1.523 . S
C1498 C1479 1.368 . S
C1498 C1492 1.368 . S
C1498 C1497 1.523 . S
C1499 C1483 1.429 . S
C1499 C1495 1.429 . S
C1499 C1500 1.523 . S
C1500 C1484 1.368 . S
C1500 C1496 1.368 . S
C1500 C1499 1.523 . S
H1501 C1476 0.950 . S
H1502 C1478 0.950 . S
H1503 C1479 0.949 . S
H1504 C1481 0.950 . S
H1505 C1483 0.950 . S
C1506 C1507 1.349 . S
C1506 C1508 1.327 . S
C1506 H1531 0.950 . S
C1507 C1506 1.349 . S
C1507 C1523 1.349 . S
C1508 C1506 1.327 . S
C1508 C1527 1.429 . S
C1508 H1532 0.950 . S
C1509 C1526 1.574 . S
C1509 C1528 1.368 . S
C1509 H1533 0.949 . S
H1510 C1514 0.949 . S
C1511 C1512 1.349 . S
C1511 C1513 1.327 . S
C1511 H1534 0.950 . S
C1512 C1511 1.349 . S
C1512 C1524 1.349 . S
C1513 C1511 1.327 . S
C1513 C1529 1.429 . S
C1513 H1535 0.950 . S
C1514 H1510 0.949 . S
C1514 C1522 1.574 . S
C1514 C1530 1.368 . S
H1515 C1523 0.950 . S
H1516 C1521 0.950 . S
H1517 C1522 0.949 . S
H1518 C1524 0.950 . S
H1519 C1525 0.950 . S
H1520 C1526 0.949 . S
C1521 H1516 0.950 . S
C1521 C1523 1.327 . S
C1521 C1527 1.429 . S
C1522 C1514 1.574 . S
C1522 H1517 0.949 . S
C1522 C1528 1.368 . S
C1523 C1507 1.349 . S
C1523 H1515 0.950 . S
C1523 C1521 1.327 . S
C1524 C1512 1.349 . S
C1524 H1518 0.950 . S
C1524 C1525 1.327 . S
C1525 H1519 0.950 . S
C1525 C1524 1.327 . S
C1525 C1529 1.429 . S
C1526 C1509 1.574 . S
C1526 H1520 0.949 . S
C1526 C1530 1.368 . S
C1527 C1508 1.429 . S
C1527 C1521 1.429 . S
C1527 C1528 1.523 . S
C1528 C1509 1.368 . S
C1528 C1522 1.368 . S
C1528 C1527 1.523 . S
C1529 C1513 1.429 . S
C1529 C1525 1.429 . S
C1529 C1530 1.523 . S
C1530 C1514 1.368 . S
C1530 C1526 1.368 . S
C1530 C1529 1.523 . S
H1531 C1506 0.950 . S
H1532 C1508 0.950 . S
H1533 C1509 0.949 . S
H1534 C1511 0.950 . S
H1535 C1513 0.950 . S
C1536 C1537 1.349 . S
C1536 C1538 1.327 . S
C1536 H1561 0.950 . S
C1537 C1536 1.349 . S
C1537 C1553 1.349 . S
C1538 C1536 1.327 . S
C1538 C1557 1.429 . S
C1538 H1562 0.950 . S
C1539 C1556 1.574 1_565 S
C1539 C1558 1.368 . S
C1539 H1563 0.949 . S
H1540 C1544 0.949 . S
C1541 C1542 1.349 . S
C1541 C1543 1.327 . S
C1541 H1564 0.950 . S
C1542 C1541 1.349 . S
C1542 C1554 1.349 . S
C1543 C1541 1.327 . S
C1543 C1559 1.429 . S
C1543 H1565 0.950 . S
C1544 H1540 0.949 . S
C1544 C1552 1.574 1_545 S
C1544 C1560 1.368 . S
H1545 C1553 0.950 . S
H1546 C1551 0.950 . S
H1547 C1552 0.949 . S
H1548 C1554 0.950 . S
H1549 C1555 0.950 . S
H1550 C1556 0.949 . S
C1551 H1546 0.950 . S
C1551 C1553 1.327 . S
C1551 C1557 1.429 . S
C1552 C1544 1.574 1_565 S
C1552 H1547 0.949 . S
C1552 C1558 1.368 . S
C1553 C1537 1.349 . S
C1553 H1545 0.950 . S
C1553 C1551 1.327 . S
C1554 C1542 1.349 . S
C1554 H1548 0.950 . S
C1554 C1555 1.327 . S
C1555 H1549 0.950 . S
C1555 C1554 1.327 . S
C1555 C1559 1.429 . S
C1556 C1539 1.574 1_545 S
C1556 H1550 0.949 . S
C1556 C1560 1.368 . S
C1557 C1538 1.429 . S
C1557 C1551 1.429 . S
C1557 C1558 1.523 . S
C1558 C1539 1.368 . S
C1558 C1552 1.368 . S
C1558 C1557 1.523 . S
C1559 C1543 1.429 . S
C1559 C1555 1.429 . S
C1559 C1560 1.523 . S
C1560 C1544 1.368 . S
C1560 C1556 1.368 . S
C1560 C1559 1.523 . S
H1561 C1536 0.950 . S
H1562 C1538 0.950 . S
H1563 C1539 0.949 . S
H1564 C1541 0.950 . S
H1565 C1543 0.950 . S
C1566 C1567 1.349 . S
C1566 C1568 1.327 . S
C1566 H1591 0.950 . S
C1567 C1566 1.349 . S
C1567 C1583 1.349 . S
C1568 C1566 1.327 . S
C1568 C1587 1.429 . S
C1568 H1592 0.950 . S
C1569 C1586 1.574 . S
C1569 C1588 1.368 . S
C1569 H1593 0.949 . S
H1570 C1574 0.949 . S
C1571 C1572 1.349 . S
C1571 C1573 1.327 . S
C1571 H1594 0.950 . S
C1572 C1571 1.349 . S
C1572 C1584 1.349 . S
C1573 C1571 1.327 . S
C1573 C1589 1.429 . S
C1573 H1595 0.950 . S
C1574 H1570 0.949 . S
C1574 C1582 1.574 . S
C1574 C1590 1.368 . S
H1575 C1583 0.950 . S
H1576 C1581 0.950 . S
H1577 C1582 0.949 . S
H1578 C1584 0.950 . S
H1579 C1585 0.950 . S
H1580 C1586 0.949 . S
C1581 H1576 0.950 . S
C1581 C1583 1.327 . S
C1581 C1587 1.429 . S
C1582 C1574 1.574 . S
C1582 H1577 0.949 . S
C1582 C1588 1.368 . S
C1583 C1567 1.349 . S
C1583 H1575 0.950 . S
C1583 C1581 1.327 . S
C1584 C1572 1.349 . S
C1584 H1578 0.950 . S
C1584 C1585 1.327 . S
C1585 H1579 0.950 . S
C1585 C1584 1.327 . S
C1585 C1589 1.429 . S
C1586 C1569 1.574 . S
C1586 H1580 0.949 . S
C1586 C1590 1.368 . S
C1587 C1568 1.429 . S
C1587 C1581 1.429 . S
C1587 C1588 1.523 . S
C1588 C1569 1.368 . S
C1588 C1582 1.368 . S
C1588 C1587 1.523 . S
C1589 C1573 1.429 . S
C1589 C1585 1.429 . S
C1589 C1590 1.523 . S
C1590 C1574 1.368 . S
C1590 C1586 1.368 . S
C1590 C1589 1.523 . S
H1591 C1566 0.950 . S
H1592 C1568 0.950 . S
H1593 C1569 0.949 . S
H1594 C1571 0.950 . S
H1595 C1573 0.950 . S
C1596 C1597 1.349 . S
C1596 C1598 1.327 1_554 S
C1596 H1621 0.950 1_554 S
C1597 C1596 1.349 . S
C1597 C1613 1.349 . S
C1598 C1596 1.327 1_556 S
C1598 C1617 1.429 1_556 S
C1598 H1622 0.950 . S
C1599 C1616 1.574 1_565 S
C1599 C1618 1.368 . S
C1599 H1623 0.949 . S
H1600 C1604 0.949 . S
C1601 C1602 1.349 . S
C1601 C1603 1.327 1_556 S
C1601 H1624 0.950 1_556 S
C1602 C1601 1.349 . S
C1602 C1614 1.349 . S
C1603 C1601 1.327 1_554 S
C1603 C1619 1.429 1_554 S
C1603 H1625 0.950 . S
C1604 H1600 0.949 . S
C1604 C1612 1.574 1_545 S
C1604 C1620 1.368 . S
H1605 C1613 0.950 . S
H1606 C1611 0.950 . S
H1607 C1612 0.949 . S
H1608 C1614 0.950 . S
H1609 C1615 0.950 . S
H1610 C1616 0.949 . S
C1611 H1606 0.950 . S
C1611 C1613 1.327 . S
C1611 C1617 1.429 . S
C1612 C1604 1.574 1_565 S
C1612 H1607 0.949 . S
C1612 C1618 1.368 1_556 S
C1613 C1597 1.349 . S
C1613 H1605 0.950 . S
C1613 C1611 1.327 . S
C1614 C1602 1.349 . S
C1614 H1608 0.950 . S
C1614 C1615 1.327 . S
C1615 H1609 0.950 . S
C1615 C1614 1.327 . S
C1615 C1619 1.429 . S
C1616 C1599 1.574 1_545 S
C1616 H1610 0.949 . S
C1616 C1620 1.368 1_554 S
C1617 C1598 1.429 1_554 S
C1617 C1611 1.429 . S
C1617 C1618 1.523 . S
C1618 C1599 1.368 . S
C1618 C1612 1.368 1_554 S
C1618 C1617 1.523 . S
C1619 C1603 1.429 1_556 S
C1619 C1615 1.429 . S
C1619 C1620 1.523 . S
C1620 C1604 1.368 . S
C1620 C1616 1.368 1_556 S
C1620 C1619 1.523 . S
H1621 C1596 0.950 1_556 S
H1622 C1598 0.950 . S
H1623 C1599 0.949 . S
H1624 C1601 0.950 1_554 S
H1625 C1603 0.950 . S
C1626 C1627 1.349 . S
C1626 C1628 1.327 . S
C1626 H1651 0.950 . S
C1627 C1626 1.349 . S
C1627 C1643 1.349 . S
C1628 C1626 1.327 . S
C1628 C1647 1.429 . S
C1628 H1652 0.950 . S
C1629 C1646 1.574 . S
C1629 C1648 1.368 . S
C1629 H1653 0.949 . S
H1630 C1634 0.949 . S
C1631 C1632 1.349 . S
C1631 C1633 1.327 . S
C1631 H1654 0.950 . S
C1632 C1631 1.349 . S
C1632 C1644 1.349 . S
C1633 C1631 1.327 . S
C1633 C1649 1.429 . S
C1633 H1655 0.950 . S
C1634 H1630 0.949 . S
C1634 C1642 1.574 . S
C1634 C1650 1.368 . S
H1635 C1643 0.950 . S
H1636 C1641 0.950 . S
H1637 C1642 0.949 . S
H1638 C1644 0.950 . S
H1639 C1645 0.950 . S
H1640 C1646 0.949 . S
C1641 H1636 0.950 . S
C1641 C1643 1.327 . S
C1641 C1647 1.429 . S
C1642 C1634 1.574 . S
C1642 H1637 0.949 . S
C1642 C1648 1.368 . S
C1643 C1627 1.349 . S
C1643 H1635 0.950 . S
C1643 C1641 1.327 . S
C1644 C1632 1.349 . S
C1644 H1638 0.950 . S
C1644 C1645 1.327 . S
C1645 H1639 0.950 . S
C1645 C1644 1.327 . S
C1645 C1649 1.429 . S
C1646 C1629 1.574 . S
C1646 H1640 0.949 . S
C1646 C1650 1.368 . S
C1647 C1628 1.429 . S
C1647 C1641 1.429 . S
C1647 C1648 1.523 . S
C1648 C1629 1.368 . S
C1648 C1642 1.368 . S
C1648 C1647 1.523 . S
C1649 C1633 1.429 . S
C1649 C1645 1.429 . S
C1649 C1650 1.523 . S
C1650 C1634 1.368 . S
C1650 C1646 1.368 . S
C1650 C1649 1.523 . S
H1651 C1626 0.950 . S
H1652 C1628 0.950 . S
H1653 C1629 0.949 . S
H1654 C1631 0.950 . S
H1655 C1633 0.950 . S
C1656 C1657 1.349 . S
C1656 C1658 1.327 . S
C1656 H1681 0.950 . S
C1657 C1656 1.349 . S
C1657 C1673 1.349 . S
C1658 C1656 1.327 . S
C1658 C1677 1.429 . S
C1658 H1682 0.950 . S
C1659 C1676 1.574 1_565 S
C1659 C1678 1.368 . S
C1659 H1683 0.949 . S
H1660 C1664 0.949 . S
C1661 C1662 1.349 . S
C1661 C1663 1.327 . S
C1661 H1684 0.950 . S
C1662 C1661 1.349 . S
C1662 C1674 1.349 . S
C1663 C1661 1.327 . S
C1663 C1679 1.429 . S
C1663 H1685 0.950 . S
C1664 H1660 0.949 . S
C1664 C1672 1.574 1_545 S
C1664 C1680 1.368 . S
H1665 C1673 0.950 . S
H1666 C1671 0.950 . S
H1667 C1672 0.949 . S
H1668 C1674 0.950 . S
H1669 C1675 0.950 . S
H1670 C1676 0.949 . S
C1671 H1666 0.950 . S
C1671 C1673 1.327 . S
C1671 C1677 1.429 . S
C1672 C1664 1.574 1_565 S
C1672 H1667 0.949 . S
C1672 C1678 1.368 . S
C1673 C1657 1.349 . S
C1673 H1665 0.950 . S
C1673 C1671 1.327 . S
C1674 C1662 1.349 . S
C1674 H1668 0.950 . S
C1674 C1675 1.327 . S
C1675 H1669 0.950 . S
C1675 C1674 1.327 . S
C1675 C1679 1.429 . S
C1676 C1659 1.574 1_545 S
C1676 H1670 0.949 . S
C1676 C1680 1.368 . S
C1677 C1658 1.429 . S
C1677 C1671 1.429 . S
C1677 C1678 1.523 . S
C1678 C1659 1.368 . S
C1678 C1672 1.368 . S
C1678 C1677 1.523 . S
C1679 C1663 1.429 . S
C1679 C1675 1.429 . S
C1679 C1680 1.523 . S
C1680 C1664 1.368 . S
C1680 C1676 1.368 . S
C1680 C1679 1.523 . S
H1681 C1656 0.950 . S
H1682 C1658 0.950 . S
H1683 C1659 0.949 . S
H1684 C1661 0.950 . S
H1685 C1663 0.950 . S
C1686 C1687 1.349 . S
C1686 C1688 1.327 . S
C1686 H1711 0.950 . S
C1687 C1686 1.349 . S
C1687 C1703 1.349 . S
C1688 C1686 1.327 . S
C1688 C1707 1.429 . S
C1688 H1712 0.950 . S
C1689 C1706 1.574 . S
C1689 C1708 1.368 . S
C1689 H1713 0.949 . S
H1690 C1694 0.949 . S
C1691 C1692 1.349 . S
C1691 C1693 1.327 . S
C1691 H1714 0.950 . S
C1692 C1691 1.349 . S
C1692 C1704 1.349 . S
C1693 C1691 1.327 . S
C1693 C1709 1.429 . S
C1693 H1715 0.950 . S
C1694 H1690 0.949 . S
C1694 C1702 1.574 . S
C1694 C1710 1.368 . S
H1695 C1703 0.950 . S
H1696 C1701 0.950 . S
H1697 C1702 0.949 . S
H1698 C1704 0.950 . S
H1699 C1705 0.950 . S
H1700 C1706 0.949 . S
C1701 H1696 0.950 . S
C1701 C1703 1.327 . S
C1701 C1707 1.429 . S
C1702 C1694 1.574 . S
C1702 H1697 0.949 . S
C1702 C1708 1.368 . S
C1703 C1687 1.349 . S
C1703 H1695 0.950 . S
C1703 C1701 1.327 . S
C1704 C1692 1.349 . S
C1704 H1698 0.950 . S
C1704 C1705 1.327 . S
C1705 H1699 0.950 . S
C1705 C1704 1.327 . S
C1705 C1709 1.429 . S
C1706 C1689 1.574 . S
C1706 H1700 0.949 . S
C1706 C1710 1.368 . S
C1707 C1688 1.429 . S
C1707 C1701 1.429 . S
C1707 C1708 1.523 . S
C1708 C1689 1.368 . S
C1708 C1702 1.368 . S
C1708 C1707 1.523 . S
C1709 C1693 1.429 . S
C1709 C1705 1.429 . S
C1709 C1710 1.523 . S
C1710 C1694 1.368 . S
C1710 C1706 1.368 . S
C1710 C1709 1.523 . S
H1711 C1686 0.950 . S
H1712 C1688 0.950 . S
H1713 C1689 0.949 . S
H1714 C1691 0.950 . S
H1715 C1693 0.950 . S
C1716 C1717 1.349 . S
C1716 C1718 1.327 . S
C1716 H1741 0.950 . S
C1717 C1716 1.349 . S
C1717 C1733 1.349 . S
C1718 C1716 1.327 . S
C1718 C1737 1.429 . S
C1718 H1742 0.950 1_556 S
C1719 C1736 1.574 1_545 S
C1719 C1738 1.368 . S
C1719 H1743 0.949 . S
H1720 C1724 0.949 . S
C1721 C1722 1.349 . S
C1721 C1723 1.327 . S
C1721 H1744 0.950 . S
C1722 C1721 1.349 . S
C1722 C1734 1.349 . S
C1723 C1721 1.327 . S
C1723 C1739 1.429 . S
C1723 H1745 0.950 1_554 S
C1724 H1720 0.949 . S
C1724 C1732 1.574 1_565 S
C1724 C1740 1.368 . S
H1725 C1733 0.950 . S
H1726 C1731 0.950 . S
H1727 C1732 0.949 . S
H1728 C1734 0.950 . S
H1729 C1735 0.950 . S
H1730 C1736 0.949 . S
C1731 H1726 0.950 . S
C1731 C1733 1.327 . S
C1731 C1737 1.429 . S
C1732 C1724 1.574 1_545 S
C1732 H1727 0.949 . S
C1732 C1738 1.368 1_554 S
C1733 C1717 1.349 . S
C1733 H1725 0.950 . S
C1733 C1731 1.327 . S
C1734 C1722 1.349 . S
C1734 H1728 0.950 . S
C1734 C1735 1.327 . S
C1735 H1729 0.950 . S
C1735 C1734 1.327 . S
C1735 C1739 1.429 . S
C1736 C1719 1.574 1_565 S
C1736 H1730 0.949 . S
C1736 C1740 1.368 1_556 S
C1737 C1718 1.429 . S
C1737 C1731 1.429 . S
C1737 C1738 1.523 . S
C1738 C1719 1.368 . S
C1738 C1732 1.368 1_556 S
C1738 C1737 1.523 . S
C1739 C1723 1.429 . S
C1739 C1735 1.429 . S
C1739 C1740 1.523 . S
C1740 C1724 1.368 . S
C1740 C1736 1.368 1_554 S
C1740 C1739 1.523 . S
H1741 C1716 0.950 . S
H1742 C1718 0.950 1_554 S
H1743 C1719 0.949 . S
H1744 C1721 0.950 . S
H1745 C1723 0.950 1_556 S
C1746 C1747 1.349 . S
C1746 C1748 1.327 . S
C1746 H1771 0.950 . S
C1747 C1746 1.349 . S
C1747 C1763 1.349 . S
C1748 C1746 1.327 . S
C1748 C1767 1.429 . S
C1748 H1772 0.950 . S
C1749 C1766 1.574 . S
C1749 C1768 1.368 . S
C1749 H1773 0.949 . S
H1750 C1754 0.949 . S
C1751 C1752 1.349 . S
C1751 C1753 1.327 . S
C1751 H1774 0.950 . S
C1752 C1751 1.349 . S
C1752 C1764 1.349 . S
C1753 C1751 1.327 . S
C1753 C1769 1.429 . S
C1753 H1775 0.950 . S
C1754 H1750 0.949 . S
C1754 C1762 1.574 . S
C1754 C1770 1.368 . S
H1755 C1763 0.950 . S
H1756 C1761 0.950 . S
H1757 C1762 0.949 . S
H1758 C1764 0.950 . S
H1759 C1765 0.950 . S
H1760 C1766 0.949 . S
C1761 H1756 0.950 . S
C1761 C1763 1.327 . S
C1761 C1767 1.429 . S
C1762 C1754 1.574 . S
C1762 H1757 0.949 . S
C1762 C1768 1.368 . S
C1763 C1747 1.349 . S
C1763 H1755 0.950 . S
C1763 C1761 1.327 . S
C1764 C1752 1.349 . S
C1764 H1758 0.950 . S
C1764 C1765 1.327 . S
C1765 H1759 0.950 . S
C1765 C1764 1.327 . S
C1765 C1769 1.429 . S
C1766 C1749 1.574 . S
C1766 H1760 0.949 . S
C1766 C1770 1.368 . S
C1767 C1748 1.429 . S
C1767 C1761 1.429 . S
C1767 C1768 1.523 . S
C1768 C1749 1.368 . S
C1768 C1762 1.368 . S
C1768 C1767 1.523 . S
C1769 C1753 1.429 . S
C1769 C1765 1.429 . S
C1769 C1770 1.523 . S
C1770 C1754 1.368 . S
C1770 C1766 1.368 . S
C1770 C1769 1.523 . S
H1771 C1746 0.950 . S
H1772 C1748 0.950 . S
H1773 C1749 0.949 . S
H1774 C1751 0.950 . S
H1775 C1753 0.950 . S
C337 C20 1.273 . S
C342 C16 1.275 . S
C367 C41 1.274 . S
C372 C37 1.276 . S
C397 C45 1.276 . S
C402 C61 1.273 . S
C427 C66 1.276 . S
C432 C82 1.273 . S
C457 C87 1.274 . S
C462 C103 1.272 . S
C487 C108 1.275 . S
C492 C124 1.272 . S
C517 C145 1.272 . S
C522 C129 1.275 . S
C547 C167 1.272 . S
C552 C163 1.275 . S
C577 C171 1.274 . S
C582 C187 1.271 . S
C607 C192 1.275 . S
C612 C208 1.273 . S
C637 C229 1.274 . S
C642 C213 1.276 . S
C667 C251 1.272 . S
C672 C247 1.274 . S
C697 C268 1.276 . S
C702 C272 1.274 . S
C727 C289 1.277 . S
C732 C293 1.275 . S
C757 C297 1.276 . S
C762 C313 1.272 . S
C787 C318 1.273 . S
C792 C334 1.271 . S
C817 C3 1.309 . S
C822 C238 1.297 . S
C847 C24 1.295 . S
C852 C319 1.281 . S
C877 C46 1.277 . S
C882 C193 1.278 . S
C907 C67 1.254 . S
C912 C280 1.256 . S
C937 C88 1.312 . S
C942 C276 1.326 . S
C967 C234 1.346 . S
C972 C121 1.348 . S
C997 C142 1.350 . S
C1002 C331 1.348 . S
C1027 C150 1.336 . S
C1032 C205 1.336 . S
C1057 C79 1.328 . S
C1062 C172 1.314 . S
C1087 C28 1.281 . S
C1092 C214 1.281 . S
C1117 C259 1.282 . S
C1122 C109 1.282 . S
C1147 C154 1.285 . S
C1152 C298 1.285 . S
C1177 C184 1.340 . S
C1182 C100 1.339 . S
C1207 C130 1.288 . S
C1212 C226 1.302 . S
C1237 C58 1.326 . S
C1242 C310 1.325 . S
C1267 C7 1.284 . S
C1272 C255 1.299 . S
C1297 C19 1.324 . S
C1302 C91 1.321 . S
C1327 C40 1.335 . S
C1332 C125 1.335 . S
C1357 C49 1.321 . S
C1362 C146 1.325 . S
C1387 C70 1.352 . S
C1392 C166 1.357 . S
C1417 C256 1.337 . S
C1422 C175 1.338 . S
C1447 C277 1.339 . S
C1452 C209 1.345 . S
C1477 C217 1.331 . S
C1482 C301 1.331 . S
C1507 C322 1.323 . S
C1512 C250 1.328 . S
C1537 C25 1.341 . S
C1542 C151 1.342 . S
C1567 C104 1.317 . S
C1572 C62 1.316 . S
C1597 C112 1.319 . S
C1602 C83 1.321 . S
C1627 C4 1.358 . S
C1632 C133 1.359 . S
C1657 C335 1.327 . S
C1662 C196 1.322 . S
C1687 C271 1.337 . S
C1692 C230 1.337 . S
C1717 C292 1.338 . S
C1722 C235 1.334 . S
C1747 C314 1.338 . S
C1752 C188 1.338 . S
