# Generated by pormake.
# Topology wjd, (6)-cn, num edge types: 1
# Building blocks:
#     Node 0, Type 0, BuildingBlock: MIDCAF_clean_sbu_0, # of connection points: 6
#     Node 1, Type 0, BuildingBlock: MIDCAF_clean_sbu_0, # of connection points: 6
#     Node 2, Type 0, BuildingBlock: MIDCAF_clean_sbu_0, # of connection points: 6
#     Node 3, Type 0, BuildingBlock: MIDCAF_clean_sbu_0, # of connection points: 6
#     Node 4, Type 0, BuildingBlock: MIDCAF_clean_sbu_0, # of connection points: 6
#     Node 5, Type 0, BuildingBlock: MIDCAF_clean_sbu_0, # of connection points: 6
#     Node 6, Type 0, BuildingBlock: MIDCAF_clean_sbu_0, # of connection points: 6
#     Node 7, Type 0, BuildingBlock: MIDCAF_clean_sbu_0, # of connection points: 6
#     Node 8, Type 0, BuildingBlock: MIDCAF_clean_sbu_0, # of connection points: 6
#     Node 9, Type 0, BuildingBlock: MIDCAF_clean_sbu_0, # of connection points: 6
#     Node 10, Type 0, BuildingBlock: MIDCAF_clean_sbu_0, # of connection points: 6
#     Node 11, Type 0, BuildingBlock: MIDCAF_clean_sbu_0, # of connection points: 6
#     Edge 12, Type (0, 0), BuildingBlock: CIFDUS_clean_linker_0, # of connection points: 2
#     Edge 13, Type (0, 0), BuildingBlock: CIFDUS_clean_linker_0, # of connection points: 2
#     Edge 14, Type (0, 0), BuildingBlock: CIFDUS_clean_linker_0, # of connection points: 2
#     Edge 15, Type (0, 0), BuildingBlock: CIFDUS_clean_linker_0, # of connection points: 2
#     Edge 16, Type (0, 0), BuildingBlock: CIFDUS_clean_linker_0, # of connection points: 2
#     Edge 17, Type (0, 0), BuildingBlock: CIFDUS_clean_linker_0, # of connection points: 2
#     Edge 18, Type (0, 0), BuildingBlock: CIFDUS_clean_linker_0, # of connection points: 2
#     Edge 19, Type (0, 0), BuildingBlock: CIFDUS_clean_linker_0, # of connection points: 2
#     Edge 20, Type (0, 0), BuildingBlock: CIFDUS_clean_linker_0, # of connection points: 2
#     Edge 21, Type (0, 0), BuildingBlock: CIFDUS_clean_linker_0, # of connection points: 2
#     Edge 22, Type (0, 0), BuildingBlock: CIFDUS_clean_linker_0, # of connection points: 2
#     Edge 23, Type (0, 0), BuildingBlock: CIFDUS_clean_linker_0, # of connection points: 2
#     Edge 24, Type (0, 0), BuildingBlock: CIFDUS_clean_linker_0, # of connection points: 2
#     Edge 25, Type (0, 0), BuildingBlock: CIFDUS_clean_linker_0, # of connection points: 2
#     Edge 26, Type (0, 0), BuildingBlock: CIFDUS_clean_linker_0, # of connection points: 2
#     Edge 27, Type (0, 0), BuildingBlock: CIFDUS_clean_linker_0, # of connection points: 2
#     Edge 28, Type (0, 0), BuildingBlock: CIFDUS_clean_linker_0, # of connection points: 2
#     Edge 29, Type (0, 0), BuildingBlock: CIFDUS_clean_linker_0, # of connection points: 2
#     Edge 30, Type (0, 0), BuildingBlock: CIFDUS_clean_linker_0, # of connection points: 2
#     Edge 31, Type (0, 0), BuildingBlock: CIFDUS_clean_linker_0, # of connection points: 2
#     Edge 32, Type (0, 0), BuildingBlock: CIFDUS_clean_linker_0, # of connection points: 2
#     Edge 33, Type (0, 0), BuildingBlock: CIFDUS_clean_linker_0, # of connection points: 2
#     Edge 34, Type (0, 0), BuildingBlock: CIFDUS_clean_linker_0, # of connection points: 2
#     Edge 35, Type (0, 0), BuildingBlock: CIFDUS_clean_linker_0, # of connection points: 2
#     Edge 36, Type (0, 0), BuildingBlock: CIFDUS_clean_linker_0, # of connection points: 2
#     Edge 37, Type (0, 0), BuildingBlock: CIFDUS_clean_linker_0, # of connection points: 2
#     Edge 38, Type (0, 0), BuildingBlock: CIFDUS_clean_linker_0, # of connection points: 2
#     Edge 39, Type (0, 0), BuildingBlock: CIFDUS_clean_linker_0, # of connection points: 2
#     Edge 40, Type (0, 0), BuildingBlock: CIFDUS_clean_linker_0, # of connection points: 2
#     Edge 41, Type (0, 0), BuildingBlock: CIFDUS_clean_linker_0, # of connection points: 2
#     Edge 42, Type (0, 0), BuildingBlock: CIFDUS_clean_linker_0, # of connection points: 2
#     Edge 43, Type (0, 0), BuildingBlock: CIFDUS_clean_linker_0, # of connection points: 2
#     Edge 44, Type (0, 0), BuildingBlock: CIFDUS_clean_linker_0, # of connection points: 2
#     Edge 45, Type (0, 0), BuildingBlock: CIFDUS_clean_linker_0, # of connection points: 2
#     Edge 46, Type (0, 0), BuildingBlock: CIFDUS_clean_linker_0, # of connection points: 2
#     Edge 47, Type (0, 0), BuildingBlock: CIFDUS_clean_linker_0, # of connection points: 2
# Relax obj value: 0.343
# Max RMSD: 0.250
# Mean RMSD: 0.250
data_MOF--net-wjd--node1-MIDCAF_clean_sbu_0--edge1-CIFDUS_clean_linker_0
_symmetry_space_group_name_H-M    P1
_symmetry_Int_Tables_number       1
_symmetry_cell_setting            triclinic
loop_
_symmetry_equiv_pos_as_xyz
'x, y, z'
_cell_length_a     24.830102
_cell_length_b     24.839533
_cell_length_c     52.136122
_cell_angle_alpha  90.186728
_cell_angle_beta   89.904393
_cell_angle_gamma 119.83442
loop_
_atom_site_label
_atom_site_type_symbol
_atom_site_fract_x
_atom_site_fract_y
_atom_site_fract_z
_atom_type_partial_charge
Zn0 Zn 0.24558 0.13746 0.13358 0.0
Zn1 Zn 0.44404 0.21724 0.07759 0.0
Zn2 Zn 0.34283 0.1691 0.10706 0.0
C3 C 0.42732 0.31553 0.08826 0.0
C4 C 0.4673 0.17905 0.12659 0.0
O5 O 0.27105 0.08485 0.08771 0.0
O6 O 0.19727 0.05499 0.1171 0.0
C7 C 0.26785 0.24474 0.1109 0.0
O8 O 0.38117 0.27015 0.09995 0.0
O9 O 0.46301 0.30508 0.07448 0.0
O10 O 0.49066 0.20098 0.10491 0.0
O11 O 0.41082 0.1636 0.13173 0.0
O12 O 0.2245 0.20052 0.12296 0.0
O13 O 0.31752 0.24322 0.10524 0.0
O14 O 0.35794 0.14447 0.1474 0.0
O15 O 0.27995 0.14312 0.16843 0.0
C16 C 0.3295 0.14066 0.16872 0.0
O17 O 0.32188 0.11083 0.07107 0.0
O18 O 0.4085 0.1585 0.04835 0.0
C19 C 0.21714 0.04507 0.09634 0.0
C20 C 0.35304 0.11502 0.05054 0.0
Zn21 Zn 0.68826 0.59185 0.40258 0.0
Zn22 Zn 0.71152 0.74935 0.34511 0.0
Zn23 Zn 0.71566 0.67429 0.37466 0.0
C24 C 0.64561 0.64731 0.31843 0.0
C25 C 0.83575 0.76536 0.34888 0.0
O26 O 0.70947 0.70326 0.41439 0.0
O27 O 0.73038 0.63788 0.43432 0.0
C28 C 0.58334 0.55778 0.37741 0.0
O29 O 0.65426 0.62904 0.34047 0.0
O30 O 0.66519 0.70413 0.31473 0.0
O31 O 0.80555 0.79143 0.34169 0.0
O32 O 0.8083 0.71353 0.36082 0.0
O33 O 0.59579 0.55446 0.4006 0.0
O34 O 0.627 0.5957 0.36255 0.0
O35 O 0.79186 0.65381 0.36984 0.0
O36 O 0.72898 0.55635 0.38036 0.0
C37 C 0.77885 0.59682 0.37007 0.0
O38 O 0.71363 0.75073 0.39622 0.0
O39 O 0.67477 0.78673 0.36747 0.0
C40 C 0.72397 0.68517 0.43511 0.0
C41 C 0.69277 0.78724 0.3901 0.0
Zn42 Zn 0.98279 0.27664 0.17818 0.0
Zn43 Zn 0.86513 0.29374 0.10684 0.0
Zn44 Zn 0.92362 0.28134 0.14321 0.0
C45 C 0.7871 0.25688 0.14902 0.0
C46 C 0.96829 0.4101 0.11901 0.0
O47 O 0.02378 0.35376 0.13771 0.0
O48 O 0.06741 0.31936 0.16497 0.0
C49 C 0.91688 0.158 0.15684 0.0
O50 O 0.83931 0.27528 0.16044 0.0
O51 O 0.78402 0.25341 0.12487 0.0
O52 O 0.91626 0.38605 0.10782 0.0
O53 O 0.98531 0.37472 0.12996 0.0
O54 O 0.93763 0.18385 0.17832 0.0
O55 O 0.91464 0.19032 0.13809 0.0
O56 O 0.88063 0.28885 0.1804 0.0
O57 O 0.96511 0.32349 0.20389 0.0
C58 C 0.91108 0.31494 0.20112 0.0
O59 O 0.9044 0.20743 0.11368 0.0
O60 O 0.87812 0.24516 0.08069 0.0
C61 C 0.07274 0.35549 0.14701 0.0
C62 C 0.89161 0.20617 0.08956 0.0
Zn63 Zn 0.37583 0.14196 0.40114 0.0
Zn64 Zn 0.19662 0.04229 0.30586 0.0
Zn65 Zn 0.31006 0.08976 0.36808 0.0
C66 C 0.32724 0.06832 0.3156 0.0
C67 C 0.22726 0.15367 0.33795 0.0
O68 O 0.26878 0.03007 0.4032 0.0
O69 O 0.31616 0.10961 0.42942 0.0
C70 C 0.43751 0.09684 0.37328 0.0
O71 O 0.36425 0.08646 0.33472 0.0
O72 O 0.27041 0.04107 0.32164 0.0
O73 O 0.19964 0.12251 0.31777 0.0
O74 O 0.26097 0.13985 0.35264 0.0
O75 O 0.43212 0.1073 0.39656 0.0
O76 O 0.39901 0.09672 0.35679 0.0
O77 O 0.31289 0.17746 0.37101 0.0
O78 O 0.40266 0.22814 0.39089 0.0
C79 C 0.35831 0.22835 0.37923 0.0
O80 O 0.2342 0.00028 0.37968 0.0
O81 O 0.22 0.01808 0.34063 0.0
C82 C 0.27568 0.0536 0.42592 0.0
C83 C 0.19849 0.98339 0.36022 0.0
Zn84 Zn 0.69814 0.53028 0.14519 0.0
Zn85 Zn 0.90446 0.72325 0.17008 0.0
Zn86 Zn 0.81577 0.68973 0.1371 0.0
C87 C 0.81295 0.65167 0.19997 0.0
C88 C 0.95664 0.73517 0.12356 0.0
O89 O 0.77594 0.64059 0.10151 0.0
O90 O 0.71655 0.53742 0.10597 0.0
C91 C 0.68044 0.63148 0.13154 0.0
O92 O 0.79091 0.65459 0.17794 0.0
O93 O 0.87084 0.67331 0.20225 0.0
O94 O 0.96462 0.71878 0.14556 0.0
O95 O 0.90491 0.73213 0.11835 0.0
O96 O 0.68704 0.60805 0.15221 0.0
O97 O 0.72993 0.66779 0.11894 0.0
O98 O 0.79715 0.61007 0.1543 0.0
O99 O 0.76629 0.51538 0.16351 0.0
C100 C 0.81133 0.56823 0.15801 0.0
O101 O 0.82224 0.77432 0.14756 0.0
O102 O 0.90513 0.80542 0.17184 0.0
C103 C 0.74628 0.5855 0.09186 0.0
C104 C 0.86487 0.81561 0.1615 0.0
Zn105 Zn 0.86809 0.3075 0.42302 0.0
Zn106 Zn 0.94168 0.22766 0.3657 0.0
Zn107 Zn 0.9126 0.27131 0.39565 0.0
C108 C 0.87352 0.2672 0.34082 0.0
C109 C 0.88116 0.13605 0.39932 0.0
O110 O 0.97435 0.29961 0.42911 0.0
O111 O 0.89088 0.27148 0.45239 0.0
C112 C 0.92578 0.4012 0.39054 0.0
O113 O 0.90212 0.30842 0.3584 0.0
O114 O 0.8724 0.21596 0.34251 0.0
O115 O 0.93244 0.15681 0.3878 0.0
O116 O 0.85481 0.16949 0.39984 0.0
O117 O 0.92331 0.39752 0.41469 0.0
O118 O 0.91208 0.35197 0.37747 0.0
O119 O 0.81862 0.19385 0.40012 0.0
O120 O 0.78495 0.25992 0.4053 0.0
C121 C 0.77421 0.20617 0.39938 0.0
O122 O 0.00578 0.28757 0.40478 0.0
O123 O 0.02434 0.30653 0.36411 0.0
C124 C 0.94696 0.28459 0.45103 0.0
C125 C 0.04497 0.30657 0.38624 0.0
Zn126 Zn 0.10715 0.4392 0.63008 0.0
Zn127 Zn 0.01559 0.2692 0.68229 0.0
Zn128 Zn 0.06009 0.35598 0.65648 0.0
C129 C 0.04326 0.36295 0.71541 0.0
C130 C 0.11025 0.26407 0.65843 0.0
O131 O 0.01708 0.32857 0.61752 0.0
O132 O 0.10163 0.39569 0.5972 0.0
C133 C 0.03741 0.46577 0.66026 0.0
O134 O 0.03592 0.38362 0.69381 0.0
O135 O 0.04925 0.31535 0.71545 0.0
O136 O 0.05549 0.22461 0.66476 0.0
O137 O 0.12692 0.32212 0.65903 0.0
O138 O 0.04263 0.46384 0.63628 0.0
O139 O 0.05133 0.43188 0.67423 0.0
O140 O 0.15767 0.38341 0.65519 0.0
O141 O 0.18904 0.4822 0.64899 0.0
C142 C 0.20117 0.44032 0.65526 0.0
O143 O 0.9796 0.28517 0.63646 0.0
O144 O 0.92816 0.24548 0.67199 0.0
C145 C 0.04831 0.34814 0.59645 0.0
C146 C 0.92846 0.24822 0.64781 0.0
Zn147 Zn 0.31903 0.81173 0.93937 0.0
Zn148 Zn 0.16778 0.8081 0.83994 0.0
Zn149 Zn 0.23211 0.83863 0.87769 0.0
C150 C 0.27238 0.83918 0.81703 0.0
C151 C 0.09221 0.72117 0.87325 0.0
O152 O 0.24984 0.91599 0.90416 0.0
O153 O 0.2884 0.86418 0.92117 0.0
C154 C 0.34684 0.84436 0.88141 0.0
O155 O 0.286 0.85676 0.84064 0.0
O156 O 0.21652 0.80318 0.81093 0.0
O157 O 0.09023 0.73358 0.84997 0.0
O158 O 0.14253 0.75328 0.88611 0.0
O159 O 0.32336 0.84331 0.90309 0.0
O160 O 0.31776 0.84922 0.86237 0.0
O161 O 0.19899 0.74928 0.89945 0.0
O162 O 0.24086 0.72688 0.93378 0.0
C163 C 0.19868 0.71107 0.9165 0.0
O164 O 0.21524 0.91357 0.88165 0.0
O165 O 0.16901 0.89011 0.84386 0.0
C166 C 0.27729 0.90851 0.9233 0.0
C167 C 0.18956 0.9261 0.86311 0.0
Zn168 Zn 0.58885 0.72863 0.61143 0.0
Zn169 Zn 0.75447 0.79968 0.66839 0.0
Zn170 Zn 0.67402 0.76464 0.63841 0.0
C171 C 0.65619 0.74774 0.69854 0.0
C172 C 0.77491 0.90063 0.64054 0.0
O173 O 0.703 0.73716 0.6026 0.0
O174 O 0.63597 0.74876 0.57919 0.0
C175 C 0.5488 0.64118 0.64674 0.0
O176 O 0.63784 0.72111 0.67648 0.0
O177 O 0.70767 0.79742 0.70013 0.0
O178 O 0.80836 0.8805 0.6499 0.0
O179 O 0.71593 0.86456 0.63914 0.0
O180 O 0.54288 0.64061 0.6227 0.0
O181 O 0.59347 0.6891 0.65756 0.0
O182 O 0.65701 0.84225 0.63164 0.0
O183 O 0.55794 0.78597 0.62163 0.0
C184 C 0.60402 0.8378 0.62745 0.0
O185 O 0.7444 0.74522 0.6234 0.0
O186 O 0.76909 0.72802 0.66156 0.0
C187 C 0.68355 0.743 0.58047 0.0
C188 C 0.77423 0.72652 0.63751 0.0
Zn189 Zn 0.95407 0.17432 0.8635 0.0
Zn190 Zn 0.10022 0.2634 0.93743 0.0
Zn191 Zn 0.03232 0.22993 0.89926 0.0
C192 C 0.18054 0.2679 0.90277 0.0
C193 C 0.06257 0.35334 0.92245 0.0
O194 O 0.94995 0.14125 0.91207 0.0
O195 O 0.8781 0.11672 0.88245 0.0
C196 C 0.05909 0.15579 0.85889 0.0
O197 O 0.12826 0.24556 0.89078 0.0
O198 O 0.18317 0.28108 0.92625 0.0
O199 O 0.08562 0.33632 0.94017 0.0
O200 O 0.04178 0.32047 0.90201 0.0
O201 O 0.00534 0.13716 0.84986 0.0
O202 O 0.08015 0.19634 0.8769 0.0
O203 O 0.02265 0.30082 0.87567 0.0
O204 O 0.95765 0.24451 0.84495 0.0
C205 C -0.00547 0.2971 0.85432 0.0
O206 O 0.98268 0.18098 0.93583 0.0
O207 O 0.05745 0.19796 0.96297 0.0
C208 C 0.89471 0.10484 0.90354 0.0
C209 C 0.00026 0.1726 0.95811 0.0
Zn210 Zn 0.28455 0.89172 0.59961 0.0
Zn211 Zn 0.24138 0.0108 0.66066 0.0
Zn212 Zn 0.25647 0.94465 0.62847 0.0
C213 C 0.31002 0.96864 0.68481 0.0
C214 C 0.12758 0.90769 0.64173 0.0
O215 O 0.25633 0.9815 0.58991 0.0
O216 O 0.23632 0.89555 0.56987 0.0
C217 C 0.39169 0.96731 0.62306 0.0
O218 O 0.32057 0.96334 0.66096 0.0
O219 O 0.26919 0.98258 0.69081 0.0
O220 O 0.15137 0.96428 0.64807 0.0
O221 O 0.16231 0.88331 0.63925 0.0
O222 O 0.3765 0.95053 0.60007 0.0
O223 O 0.34934 0.96133 0.63895 0.0
O224 O 0.1873 0.84682 0.63594 0.0
O225 O 0.25182 0.8164 0.62239 0.0
C226 C 0.20426 0.80564 0.63518 0.0
O227 O 0.2493 0.02162 0.61126 0.0
O228 O 0.30419 0.08628 0.64151 0.0
C229 C 0.23988 0.94808 0.56938 0.0
C230 C 0.27503 0.0768 0.62066 0.0
Zn231 Zn 0.55722 0.60704 0.92587 0.0
Zn232 Zn 0.69005 0.642 0.86215 0.0
Zn233 Zn 0.62926 0.62877 0.89517 0.0
C234 C 0.60098 0.64637 0.84025 0.0
C235 C 0.74094 0.74717 0.89668 0.0
O236 O 0.68634 0.65099 0.93033 0.0
O237 O 0.60321 0.59214 0.95365 0.0
C238 C 0.51268 0.50489 0.89361 0.0
O239 O 0.60966 0.67291 0.8623 0.0
O240 O 0.61904 0.60736 0.8372 0.0
O241 O 0.73258 0.73725 0.87271 0.0
O242 O 0.71606 0.69987 0.91182 0.0
O243 O 0.49198 0.53414 0.90629 0.0
O244 O 0.57101 0.52982 0.88977 0.0
O245 O 0.59359 0.69246 0.88622 0.0
O246 O 0.55791 0.68748 0.92525 0.0
C247 C 0.57107 0.71279 0.90344 0.0
O248 O 0.72283 0.64022 0.90745 0.0
O249 O 0.7327 0.59475 0.87317 0.0
C250 C 0.66161 0.62263 0.95153 0.0
C251 C 0.75103 0.6158 0.89551 0.0
H252 H 0.0949 0.34287 0.09761 0.0
H253 H 0.18507 0.43384 0.16792 0.0
H254 H 0.27444 0.42243 0.15719 0.0
H255 H 0.30299 0.35068 0.13696 0.0
H256 H 0.20609 0.24924 0.06937 0.0
H257 H 0.14394 0.30049 0.0694 0.0
C258 C 0.136 0.36391 0.10966 0.0
C259 C 0.13296 0.38722 0.13385 0.0
C260 C 0.18495 0.35257 0.10426 0.0
C261 C 0.18632 0.41482 0.14933 0.0
C262 C 0.2369 0.40705 0.14344 0.0
C263 C 0.27122 0.34313 0.12132 0.0
C264 C 0.25854 0.29627 0.10331 0.0
C265 C 0.23358 0.37052 0.1223 0.0
C266 C 0.21648 0.2855 0.08335 0.0
C267 C 0.18037 0.31423 0.08359 0.0
H268 H 0.11323 0.94923 0.3226 0.0
H269 H 0.13813 0.90248 0.39963 0.0
H270 H 0.028 0.82316 0.4015 0.0
H271 H 0.92285 0.77453 0.38249 0.0
H272 H 0.89878 0.83042 0.30711 0.0
H273 H 0.01089 0.89839 0.30309 0.0
C274 C 0.09488 0.92161 0.33979 0.0
C275 C 0.1336 0.93219 0.36104 0.0
C276 C 0.03168 0.87769 0.34093 0.0
C277 C 0.10905 0.89547 0.38307 0.0
C278 C 0.04616 0.85018 0.38414 0.0
C279 C 0.94257 0.80074 0.36503 0.0
C280 C 0.9032 0.79775 0.34507 0.0
C281 C 0.00678 0.84182 0.36336 0.0
C282 C 0.92861 0.83236 0.32266 0.0
C283 C 0.99249 0.87128 0.32042 0.0
H284 H 0.93076 0.08562 0.19145 0.0
H285 H 0.85933 0.08075 0.11554 0.0
H286 H 0.83202 0.97194 0.11093 0.0
H287 H 0.83318 0.87942 0.12806 0.0
H288 H 0.90932 0.88882 0.20339 0.0
H289 H 0.92903 -0.00546 0.20882 0.0
C290 C 0.9089 0.06093 0.17388 0.0
C291 C 0.89768 0.0916 0.15377 0.0
C292 C 0.89387 -0.00102 0.17135 0.0
C293 C 0.86925 0.05858 0.1312 0.0
C294 C 0.85337 -0.00376 0.12861 0.0
C295 C 0.85322 0.9045 0.14576 0.0
C296 C 0.86984 0.87663 0.16531 0.0
C297 C 0.86604 0.96612 0.1485 0.0
C298 C 0.89647 0.90959 0.18805 0.0
C299 C 0.90783 0.96999 0.19116 0.0
H300 H 0.19781 0.1738 0.38564 0.0
H301 H 0.2296 0.24477 0.30845 0.0
H302 H 0.19305 0.31658 0.32032 0.0
H303 H 0.13333 0.34279 0.34974 0.0
H304 H 0.08459 0.25836 0.4246 0.0
H305 H 0.14969 0.21138 0.41732 0.0
C306 C 0.19802 0.20613 0.37165 0.0
C307 C 0.2156 0.20385 0.34614 0.0
C308 C 0.17402 0.24498 0.37833 0.0
C309 C 0.21549 0.24543 0.32808 0.0
C310 C 0.19478 0.28647 0.3349 0.0
C311 C 0.13838 0.31562 0.36483 0.0
C312 C 0.10263 0.30264 0.38738 0.0
C313 C 0.17117 0.28444 0.35959 0.0
C314 C 0.11095 0.26865 0.40695 0.0
C315 C 0.14735 0.24082 0.40258 0.0
H316 H 0.22142 0.94005 0.10162 0.0
H317 H 0.12035 0.01756 0.06502 0.0
H318 H 0.02689 0.91538 0.06378 0.0
H319 H 0.9692 0.81451 0.08516 0.0
H320 H 0.06908 0.74056 0.12591 0.0
H321 H 0.16757 0.82929 0.11283 0.0
C322 C 0.17983 0.93357 0.09203 0.0
C323 C 0.17725 0.98572 0.08348 0.0
C324 C 0.12541 0.8754 0.09291 0.0
C325 C 0.12316 0.97763 0.07151 0.0
C326 C 0.06947 0.91936 0.07122 0.0
C327 C 0.01246 0.81646 0.09029 0.0
C328 C 0.01189 0.77227 0.10729 0.0
C329 C 0.06899 0.86916 0.08371 0.0
C330 C 0.06832 0.77492 0.11339 0.0
C331 C 0.12475 0.82591 0.10604 0.0
H332 H 0.79812 0.85858 0.41595 0.0
H333 H 0.6215 0.84124 0.39685 0.0
H334 H 0.66387 0.9525 0.4038 0.0
H335 H 0.75731 0.05593 0.40355 0.0
H336 H 0.93637 0.07281 0.41689 0.0
H337 H 0.88758 0.9612 0.42392 0.0
C338 C 0.76823 0.87876 0.41456 0.0
C339 C 0.70718 0.84231 0.40564 0.0
C340 C 0.79425 0.94331 0.41659 0.0
C341 C 0.6688 0.86878 0.40367 0.0
C342 C 0.69333 0.93253 0.40722 0.0
C343 C 0.78525 0.03533 0.40885 0.0
C344 C 0.85022 0.07205 0.40923 0.0
C345 C 0.75704 0.9707 0.41182 0.0
C346 C 0.88622 0.04501 0.416 0.0
C347 C 0.85836 0.98124 0.42006 0.0
H348 H 0.31739 0.19443 0.63748 0.0
H349 H 0.1684 0.0477 0.59417 0.0
H350 H 0.10437 0.09565 0.60119 0.0
H351 H 0.08472 0.16948 0.62578 0.0
H352 H 0.2319 0.31251 0.67088 0.0
H353 H 0.30243 0.27555 0.65737 0.0
C354 C 0.2716 0.17391 0.62887 0.0
C355 C 0.24746 0.11685 0.61572 0.0
C356 C 0.23401 0.20015 0.63403 0.0
C357 C 0.18831 0.09142 0.60444 0.0
C358 C 0.15117 0.11831 0.60883 0.0
C359 C 0.13242 0.19262 0.63247 0.0
C360 C 0.15336 0.24341 0.64937 0.0
C361 C 0.17243 0.17079 0.6247 0.0
C362 C 0.2152 0.27367 0.65771 0.0
C363 C 0.25536 0.25243 0.65003 0.0
H364 H 0.03618 0.74462 0.91281 0.0
H365 H 0.01327 0.60237 0.85927 0.0
H366 H 0.90112 0.54782 0.86621 0.0
H367 H 0.80994 0.55478 0.87923 0.0
H368 H 0.8315 0.70123 0.93022 0.0
H369 H 0.9431 0.73928 0.93299 0.0
C370 C 0.00678 0.70007 0.9037 0.0
C371 C 0.03279 0.6773 0.8856 0.0
C372 C 0.94175 0.67075 0.90676 0.0
C373 C -0.00578 0.62037 0.87341 0.0
C374 C 0.92999 0.58968 0.87712 0.0
C375 C 0.83874 0.59389 0.8916 0.0
C376 C 0.81256 0.62593 0.90401 0.0
C377 C 0.9031 0.61654 0.89247 0.0
C378 C 0.85037 0.67595 0.92026 0.0
C379 C 0.91444 0.69807 0.92168 0.0
H380 H 0.72774 0.97761 0.64447 0.0
H381 H 0.88556 0.96657 0.61658 0.0
H382 H 0.94018 0.07755 0.60715 0.0
H383 H 0.95128 0.17861 0.6159 0.0
H384 H 0.80236 0.1917 0.65227 0.0
H385 H 0.73409 0.0794 0.64778 0.0
C386 C 0.77344 -0.00052 0.63574 0.0
C387 C 0.80334 0.96489 0.6316 0.0
C388 C 0.80568 0.06374 0.63167 0.0
C389 C 0.86252 0.9931 0.62039 0.0
C390 C 0.89349 0.05629 0.61486 0.0
C391 C 0.90292 0.15714 0.62168 0.0
C392 C 0.88156 0.19273 0.63443 0.0
C393 C 0.86672 0.09245 0.62162 0.0
C394 C 0.81933 0.16478 0.64226 0.0
C395 C 0.78087 0.10056 0.64017 0.0
H396 H 0.14236 0.14522 0.88835 0.0
H397 H 0.04859 0.09001 0.81527 0.0
H398 H 0.08788 0.01805 0.80892 0.0
H399 H 0.13689 0.96232 0.82678 0.0
H400 H 0.22418 0.01306 0.90136 0.0
H401 H 0.20009 0.09694 0.90429 0.0
C402 C 0.13221 0.11925 0.87059 0.0
C403 C 0.09285 0.12306 0.85222 0.0
C404 C 0.15289 0.07663 0.86759 0.0
C405 C 0.07879 0.08767 0.82966 0.0
C406 C 0.10094 0.04641 0.82611 0.0
C407 C 0.15123 0.99201 0.84362 0.0
C408 C 0.1813 0.9808 0.86404 0.0
C409 C 0.13601 0.03897 0.84541 0.0
C410 C 0.20029 0.02022 0.88552 0.0
C411 C 0.18657 0.06816 0.8872 0.0
H412 H 0.04224 0.78714 0.65101 0.0
H413 H 0.06862 0.95269 0.61332 0.0
H414 H 0.95982 0.89988 0.60044 0.0
H415 H 0.85532 0.81384 0.60629 0.0
H416 H 0.82491 0.6546 0.65023 0.0
H417 H 0.9371 0.69488 0.65253 0.0
C418 C 0.02412 0.8108 0.63951 0.0
C419 C 0.06262 0.87356 0.63334 0.0
C420 C 0.96092 0.78063 0.63288 0.0
C421 C 0.03909 0.9046 0.61872 0.0
C422 C 0.97716 0.87428 0.61113 0.0
C423 C 0.87318 0.78656 0.61531 0.0
C424 C 0.83232 0.73159 0.62814 0.0
C425 C 0.93725 0.81305 0.61885 0.0
C426 C 0.85583 0.69695 0.6401 0.0
C427 C 0.91992 0.7207 0.64191 0.0
H428 H 0.93397 0.02617 0.91868 0.0
H429 H 0.76931 0.04057 0.90885 0.0
H430 H 0.70494 0.92749 0.90944 0.0
H431 H 0.69823 0.82593 0.90408 0.0
H432 H 0.86303 0.81092 0.91043 0.0
H433 H 0.92503 0.92257 0.91968 0.0
C434 C 0.88378 0.00449 0.91782 0.0
C435 C 0.85627 0.04153 0.91383 0.0
C436 C 0.84747 0.93929 0.91668 0.0
C437 C 0.79133 0.01292 0.91213 0.0
C438 C 0.75466 0.94828 0.91208 0.0
C439 C 0.74746 0.84709 0.90814 0.0
C440 C 0.77642 0.81098 0.90658 0.0
C441 C 0.78257 0.91117 0.91296 0.0
C442 C 0.84012 0.83828 0.91164 0.0
C443 C 0.87541 0.902 0.91685 0.0
H444 H 0.36098 0.02972 0.27224 0.0
H445 H 0.33253 0.17528 0.30249 0.0
H446 H 0.33839 0.21572 0.25929 0.0
H447 H 0.33697 0.20092 0.21269 0.0
H448 H 0.36851 0.05831 0.18143 0.0
H449 H 0.3777 0.02622 0.22504 0.0
C450 C 0.35805 0.07139 0.26932 0.0
C451 C 0.3464 0.09968 0.29045 0.0
C452 C 0.3615 0.09447 0.24423 0.0
C453 C 0.34178 0.15307 0.2865 0.0
C454 C 0.34482 0.17597 0.26179 0.0
C455 C 0.34752 0.16385 0.21544 0.0
C456 C 0.35157 0.13166 0.19393 0.0
C457 C 0.35254 0.14583 0.24047 0.0
C458 C 0.36549 0.08394 0.1977 0.0
C459 C 0.37012 0.06527 0.22265 0.0
H460 H 0.70044 0.5804 0.30904 0.0
H461 H 0.57668 0.6355 0.27578 0.0
H462 H 0.61126 0.62702 0.23278 0.0
H463 H 0.69777 0.63523 0.20693 0.0
H464 H 0.83423 0.59974 0.24202 0.0
H465 H 0.7748 0.57 0.28191 0.0
C466 C 0.67867 0.58729 0.29229 0.0
C467 C 0.63682 0.6094 0.29545 0.0
C468 C 0.70367 0.58888 0.26798 0.0
C469 C 0.60907 0.6185 0.2737 0.0
C470 C 0.62994 0.61502 0.24917 0.0
C471 C 0.71348 0.61925 0.22309 0.0
C472 C 0.77089 0.62098 0.2218 0.0
C473 C 0.68072 0.60533 0.24634 0.0
C474 C 0.79079 0.60006 0.2428 0.0
C475 C 0.75672 0.58288 0.26557 0.0
H476 H 0.80683 0.23605 0.22712 0.0
H477 H 0.95869 0.42408 0.22627 0.0
H478 H 0.95004 0.43233 0.27257 0.0
H479 H 0.92084 0.37499 0.31351 0.0
H480 H 0.77264 0.18481 0.31416 0.0
H481 H 0.75705 0.18873 0.26823 0.0
C482 C 0.83546 0.27985 0.23691 0.0
C483 C 0.88392 0.32897 0.22353 0.0
C484 C 0.83222 0.28315 0.26381 0.0
C485 C 0.9212 0.3855 0.23636 0.0
C486 C 0.91692 0.38993 0.26292 0.0
C487 C 0.88329 0.33552 0.30378 0.0
C488 C 0.84921 0.27922 0.31696 0.0
C489 C 0.87593 0.33741 0.27705 0.0
C490 C 0.80043 0.22834 0.3042 0.0
C491 C 0.79167 0.23038 0.27787 0.0
H492 H 0.1246 0.4109 0.75496 0.0
H493 H 0.93772 0.35733 0.73258 0.0
H494 H 0.9068 0.34747 0.77767 0.0
H495 H 0.92762 0.32653 0.82179 0.0
H496 H 0.11483 0.38112 0.8442 0.0
H497 H 0.15169 0.42101 0.80116 0.0
C498 C 0.07796 0.40029 0.76004 0.0
C499 C 0.03335 0.38457 0.74052 0.0
C500 C 0.06044 0.39406 0.78609 0.0
C501 C 0.97292 0.37023 0.74726 0.0
C502 C 0.95507 0.36379 0.77309 0.0
C503 C 0.97698 0.35047 0.81766 0.0
C504 C 0.0182 0.34967 0.83605 0.0
C505 C -0.00244 0.37174 0.79255 0.0
C506 C 0.08204 0.381 0.83047 0.0
C507 C 0.10301 0.40275 0.80561 0.0
H508 H 0.28596 0.7936 0.77153 0.0
H509 H 0.35405 0.96231 0.81547 0.0
H510 H 0.38529 0.0233 0.77614 0.0
H511 H 0.36528 0.02413 0.72971 0.0
H512 H 0.30177 0.85678 0.68563 0.0
H513 H 0.29757 0.79947 0.72438 0.0
C514 C 0.31057 0.84391 0.77249 0.0
C515 C 0.31644 0.8734 0.79622 0.0
C516 C 0.32771 0.87866 0.74973 0.0
C517 C 0.34884 0.93855 0.79739 0.0
C518 C 0.36586 0.97347 0.77484 0.0
C519 C 0.35344 0.97585 0.72852 0.0
C520 C 0.33272 0.94398 0.70512 0.0
C521 C 0.3514 0.94353 0.75092 0.0
C522 C 0.31758 0.88165 0.70358 0.0
C523 C 0.31471 0.84893 0.72577 0.0
H524 H 0.65357 0.80467 0.74266 0.0
H525 H 0.58316 0.62421 0.70785 0.0
H526 H 0.54469 0.57478 0.74943 0.0
H527 H 0.55018 0.58443 0.79629 0.0
H528 H 0.62498 0.7648 0.83159 0.0
H529 H 0.6406 0.81266 0.78926 0.0
C530 C 0.62858 0.75446 0.74415 0.0
C531 C 0.62181 0.71808 0.72231 0.0
C532 C 0.60763 0.72646 0.76823 0.0
C533 C 0.58877 0.65315 0.72435 0.0
C534 C 0.56714 0.6249 0.74817 0.0
C535 C 0.56792 0.634 0.79471 0.0
C536 C 0.58759 0.67124 0.81693 0.0
C537 C 0.57889 0.66125 0.77035 0.0
C538 C 0.60967 0.73519 0.81476 0.0
C539 C 0.61945 0.76265 0.79052 0.0
H540 H 0.21122 0.94504 0.95437 0.0
H541 H 0.39101 0.96135 0.94383 0.0
H542 H 0.42946 0.02498 0.98247 0.0
H543 H 0.41285 0.07614 0.01913 0.0
H544 H 0.23233 0.05537 0.03279 0.0
H545 H 0.19267 0.99221 0.99363 0.0
C546 C 0.25885 0.96312 0.96054 0.0
C547 C 0.29872 0.94955 0.94609 0.0
C548 C 0.28015 -0.00203 0.98353 0.0
C549 C 0.35983 0.97179 0.95454 0.0
C550 C 0.38175 0.00793 0.97667 0.0
C551 C 0.36464 0.05747 0.01365 0.0
C552 C 0.32563 0.0705 0.02884 0.0
C553 C 0.34239 0.02115 0.99134 0.0
C554 C 0.26315 0.04544 0.0216 0.0
C555 C 0.2407 0.00986 0.99905 0.0
H556 H 0.76876 0.66719 0.48001 0.0
H557 H 0.68403 0.7665 0.44724 0.0
H558 H 0.67535 0.80248 0.48966 0.0
H559 H 0.67785 0.79348 0.53598 0.0
H560 H 0.7537 0.68744 0.56998 0.0
H561 H 0.78079 0.66684 0.52708 0.0
C562 C 0.74919 0.69745 0.4821 0.0
C563 C 0.72718 0.71432 0.46032 0.0
C564 C 0.74219 0.71605 0.50679 0.0
C565 C 0.70234 0.75377 0.46343 0.0
C566 C 0.6967 0.77376 0.48779 0.0
C567 C 0.70104 0.76641 0.53409 0.0
C568 C 0.71258 0.74078 0.55602 0.0
C569 C 0.71449 0.75342 0.50957 0.0
C570 C 0.74398 0.70723 0.55335 0.0
C571 C 0.75896 0.69513 0.52883 0.0
H572 H 0.02394 0.14267 1.00526 0.0
H573 H 0.87817 0.14305 0.96037 0.0
H574 H 0.82144 0.13654 0.99962 0.0
H575 H 0.82757 0.15847 0.04581 0.0
H576 H 0.97851 0.16891 0.09042 0.0
H577 H 0.01829 0.14211 0.05234 0.0
C578 C 0.97882 0.13943 1.00397 0.0
C579 C 0.95625 0.14532 0.97989 0.0
C580 C 0.94797 0.13875 0.02669 0.0
C581 C 0.8971 0.13949 0.97858 0.0
C582 C 0.86491 0.13639 1.00109 0.0
C583 C 0.86793 0.15261 0.04737 0.0
C584 C 0.90087 0.16684 0.07072 0.0
C585 C 0.89198 0.14021 0.02517 0.0
C586 C 0.95249 0.15834 0.07267 0.0
C587 C 0.97565 0.14382 0.05078 0.0
H588 H 0.25716 0.098 0.47014 0.0
H589 H 0.22615 0.92817 0.43427 0.0
H590 H 0.20326 0.87751 0.47638 0.0
H591 H 0.2098 0.88763 0.52344 0.0
H592 H 0.25113 0.06147 0.55893 0.0
H593 H 0.25237 0.10465 0.51676 0.0
C594 C 0.24417 0.04942 0.47142 0.0
C595 C 0.24425 0.01705 0.44913 0.0
C596 C 0.23421 0.02191 0.49567 0.0
C597 C 0.22632 0.95402 0.45107 0.0
C598 C 0.21407 0.92542 0.4752 0.0
C599 C 0.21824 0.93476 0.52207 0.0
C600 C 0.23125 0.97159 0.54444 0.0
C601 C 0.22073 0.95984 0.49768 0.0
C602 C 0.24137 0.03222 0.54217 0.0
C603 C 0.24224 0.05696 0.51801 0.0
H604 H 0.80253 0.67546 0.05553 0.0
H605 H 0.67082 0.48017 0.06484 0.0
H606 H 0.63999 0.47328 0.02017 0.0
H607 H 0.63821 0.52585 0.98101 0.0
H608 H 0.76766 0.72067 0.97094 0.0
H609 H 0.81269 0.72457 0.01334 0.0
C610 C 0.76792 0.63112 0.04767 0.0
C611 C 0.7379 0.57876 0.06372 0.0
C612 C 0.74972 0.62758 0.02196 0.0
C613 C 0.69417 0.52139 0.05307 0.0
C614 C 0.67626 0.5174 0.02752 0.0
C615 C 0.6772 0.56886 0.98793 0.0
C616 C 0.69907 0.62318 0.97337 0.0
C617 C 0.70183 0.57068 0.0122 0.0
C618 C 0.75016 0.67845 0.98206 0.0
C619 C 0.77541 0.68068 1.00631 0.0
H620 H 0.10938 0.37188 0.55085 0.0
H621 H 0.92861 0.25978 0.58504 0.0
H622 H 0.88382 0.22224 0.54263 0.0
H623 H 0.89363 0.23145 0.496 0.0
H624 H 0.07252 0.34818 0.4612 0.0
H625 H 0.12091 0.37279 0.50384 0.0
C626 C 0.06023 0.33872 0.5491 0.0
C627 C 0.02222 0.31913 0.5712 0.0
C628 C 0.03458 0.31844 0.52455 0.0
C629 C 0.95891 0.27558 0.5685 0.0
C630 C 0.93324 0.25435 0.5442 0.0
C631 C 0.94345 0.26167 0.49765 0.0
C632 C 0.97936 0.28891 0.47546 0.0
C633 C 0.97031 0.27695 0.52211 0.0
C634 C 0.04387 0.32686 0.47794 0.0
C635 C 0.07135 0.34132 0.50233 0.0
H636 H 0.68445 0.14625 0.15445 0.0
H637 H 0.76268 0.3404 0.17182 0.0
H638 H 0.65865 0.32811 0.17354 0.0
H639 H 0.55181 0.26906 0.15672 0.0
H640 H 0.4757 0.07679 0.13625 0.0
H641 H 0.57148 0.08009 0.1499 0.0
C642 C 0.67819 0.18489 0.16008 0.0
C643 C 0.73051 0.24412 0.16282 0.0
C644 C 0.61849 0.17778 0.15988 0.0
C645 C 0.72269 0.29434 0.16983 0.0
C646 C 0.66325 0.28743 0.17038 0.0
C647 C 0.55523 0.22716 0.15667 0.0
C648 C 0.50749 0.17284 0.14547 0.0
C649 C 0.61146 0.23042 0.1635 0.0
C650 C 0.51203 0.11885 0.14501 0.0
C651 C 0.56711 0.12107 0.15247 0.0
H652 H 0.47329 0.49883 0.40197 0.0
H653 H 0.56116 0.50578 0.32972 0.0
H654 H 0.47892 0.40111 0.31944 0.0
H655 H 0.40446 0.29963 0.33767 0.0
H656 H 0.32453 0.29052 0.4119 0.0
H657 H 0.37882 0.40373 0.41449 0.0
C658 C 0.47286 0.47821 0.38353 0.0
C659 C 0.52389 0.50886 0.36698 0.0
C660 C 0.42698 0.41698 0.37833 0.0
C661 C 0.5226 0.48278 0.34289 0.0
C662 C 0.47585 0.4225 0.33712 0.0
C663 C 0.39649 0.32287 0.35367 0.0
C664 C 0.36186 0.28791 0.37475 0.0
C665 C 0.43088 0.38768 0.35562 0.0
C666 C 0.35146 0.31733 0.39557 0.0
C667 C 0.38316 0.38192 0.39717 0.0
H668 H 0.97777 0.50841 0.09265 0.0
H669 H 0.01257 0.4553 0.16658 0.0
H670 H 0.97273 0.51566 0.18776 0.0
H671 H 0.89416 0.549 0.18406 0.0
H672 H 0.85643 0.59854 0.10991 0.0
H673 H 0.93083 0.57468 0.08995 0.0
C674 C 0.98042 0.51353 0.11337 0.0
C675 C -0.00621 0.4744 0.12806 0.0
C676 C 0.95382 0.5453 0.12536 0.0
C677 C 3e-05 0.48325 0.1548 0.0
C678 C 0.97571 0.51662 0.16701 0.0
C679 C 0.90432 0.5568 0.16372 0.0
C680 C 0.86916 0.57379 0.14825 0.0
C681 C 0.94679 0.54227 0.15236 0.0
C682 C 0.88251 0.58451 0.12201 0.0
C683 C 0.92512 0.57091 0.1106 0.0
H684 H 0.49041 0.0404 0.39792 0.0
H685 H 0.5127 0.15556 0.33261 0.0
H686 H 0.6242 0.19204 0.33189 0.0
H687 H 0.71602 0.21119 0.35715 0.0
H688 H 0.69359 0.10004 0.42383 0.0
H689 H 0.5812 0.04092 0.4167 0.0
C690 C 0.51946 0.07143 0.38288 0.0
C691 C 0.49428 0.09651 0.3657 0.0
C692 C 0.5835 0.0939 0.38332 0.0
C693 C 0.53148 0.13598 0.34606 0.0
C694 C 0.5953 0.15751 0.34591 0.0
C695 C 0.6864 0.17252 0.3695 0.0
C696 C 0.71186 0.15995 0.39112 0.0
C697 C 0.62209 0.14003 0.36556 0.0
C698 C 0.67422 0.11 0.4071 0.0
C699 C 0.61015 0.07667 0.40311 0.0
H700 H 0.49766 0.42239 0.06107 0.0
H701 H 0.40512 0.35393 0.13368 0.0
H702 H 0.46865 0.45558 0.15296 0.0
H703 H 0.56763 0.55331 0.15176 0.0
H704 H 0.65811 0.62586 0.07926 0.0
H705 H 0.577 0.53424 0.05723 0.0
C706 C 0.48975 0.43047 0.08082 0.0
C707 C 0.44768 0.38024 0.09605 0.0
C708 C 0.52712 0.48929 0.09199 0.0
C709 C 0.43718 0.39157 0.1215 0.0
C710 C 0.47413 0.4497 0.13269 0.0
C711 C 0.56868 0.55009 0.13102 0.0
C712 C 0.62125 0.59378 0.11738 0.0
C713 C 0.52196 0.49743 0.11854 0.0
C714 C 0.62006 0.59088 0.09042 0.0
C715 C 0.57369 0.53838 0.0778 0.0
H716 H 0.89481 0.6306 0.3863 0.0
H717 H 0.75326 0.51286 0.33252 0.0
H718 H 0.79969 0.44659 0.3285 0.0
H719 H 0.8618 0.4074 0.34958 0.0
H720 H -0.00341 0.52003 0.4067 0.0
H721 H 0.97337 0.60345 0.39971 0.0
C722 C 0.87625 0.59224 0.37277 0.0
C723 C 0.82079 0.57616 0.35983 0.0
C724 C 0.90129 0.55239 0.37167 0.0
C725 C 0.79616 0.52586 0.34263 0.0
C726 C 0.82228 0.48756 0.34057 0.0
C727 C 0.88812 0.45136 0.35955 0.0
C728 C 0.93004 0.45731 0.3789 0.0
C729 C 0.8722 0.49796 0.35635 0.0
C730 C 0.96357 0.51429 0.39189 0.0
C731 C 0.9499 0.56183 0.38806 0.0
H732 H 0.08046 0.72111 0.63805 0.0
H733 H 0.26013 0.76117 0.66562 0.0
H734 H 0.21461 0.66041 0.68631 0.0
H735 H 0.12999 0.55389 0.68728 0.0
H736 H 0.95527 0.50655 0.65219 0.0
H737 H 0.99011 0.61649 0.64532 0.0
C738 C 0.10885 0.70839 0.64944 0.0
C739 C 0.17327 0.74864 0.65065 0.0
C740 C 0.08273 0.64842 0.66001 0.0
C741 C 0.2103 0.73113 0.66469 0.0
C742 C 0.18431 0.67334 0.67646 0.0
C743 C 0.09838 0.56802 0.67952 0.0
C744 C 0.04045 0.52259 0.67017 0.0
C745 C 0.12122 0.63049 0.67315 0.0
C746 C 3e-05 0.54103 0.65969 0.0
C747 C 0.0206 0.60384 0.65517 0.0
H748 H 0.43785 0.86628 0.91508 0.0
H749 H 0.36687 0.78697 0.84064 0.0
H750 H 0.43988 0.74772 0.8384 0.0
H751 H 0.51328 0.72321 0.86077 0.0
H752 H 0.58343 0.80395 0.93513 0.0
H753 H 0.52334 0.8572 0.93387 0.0
C754 C 0.43907 0.84114 0.89822 0.0
C755 C 0.39638 0.82836 0.87832 0.0
C756 C 0.48135 0.81923 0.89701 0.0
C757 C 0.39904 0.79684 0.85633 0.0
C758 C 0.44072 0.77434 0.85506 0.0
C759 C 0.51709 0.75435 0.87618 0.0
C760 C 0.55211 0.75927 0.89813 0.0
C761 C 0.48083 0.78359 0.87566 0.0
C762 C 0.55633 0.79924 0.91814 0.0
C763 C 0.52156 0.82923 0.91754 0.0
H764 H 0.47591 0.52005 0.636 0.0
H765 H 0.50013 0.66317 0.68941 0.0
H766 H 0.39059 0.60448 0.70094 0.0
H767 H 0.28509 0.52767 0.68681 0.0
H768 H 0.26055 0.38923 0.63089 0.0
H769 H 0.3726 0.43015 0.62931 0.0
C770 C 0.45753 0.53678 0.651 0.0
C771 C 0.49525 0.59589 0.66157 0.0
C772 C 0.39399 0.50445 0.65643 0.0
C773 C 0.47179 0.61747 0.68112 0.0
C774 C 0.40885 0.5845 0.68734 0.0
C775 C 0.30458 0.50565 0.67491 0.0
C776 C 0.26564 0.45609 0.65889 0.0
C777 C 0.36896 0.53038 0.67371 0.0
C778 C 0.29031 0.42721 0.64353 0.0
C779 C 0.35423 0.45085 0.64249 0.0
H780 H 0.14619 0.62538 0.95396 0.0
H781 H 0.15379 0.64715 0.87181 0.0
H782 H 0.10008 0.53471 0.86612 0.0
H783 H 0.06892 0.43195 0.88453 0.0
H784 H 0.06605 0.41186 0.96678 0.0
H785 H 0.09887 0.52122 0.97239 0.0
C786 C 0.13468 0.60531 0.93486 0.0
C787 C 0.15405 0.6443 0.9134 0.0
C788 C 0.10534 0.54077 0.93172 0.0
C789 C 0.13871 0.61799 0.8887 0.0
C790 C 0.10858 0.55365 0.8854 0.0
C791 C 0.07369 0.45115 0.90363 0.0
C792 C 0.06641 0.4143 0.92517 0.0
C793 C 0.09416 0.51472 0.90677 0.0
C794 C 0.0726 0.43971 0.94987 0.0
C795 C 0.0915 0.50229 0.95313 0.0
H796 H 0.49454 -0.00208 0.59476 0.0
H797 H 0.42413 0.95565 0.67202 0.0
H798 H 0.49907 0.92334 0.68261 0.0
H799 H 0.56117 0.87849 0.6658 0.0
H800 H 0.62774 0.91604 0.58801 0.0
H801 H 0.57905 0.97979 0.58168 0.0
C802 C 0.49724 0.98391 0.61419 0.0
C803 C 0.45183 0.97617 0.63224 0.0
C804 C 0.53915 0.96332 0.61982 0.0
C805 C 0.45716 0.96015 0.65755 0.0
C806 C 0.49986 0.94114 0.66357 0.0
C807 C 0.56717 0.90311 0.64792 0.0
C808 C 0.59677 0.89254 0.62724 0.0
C809 C 0.53749 0.93794 0.64427 0.0
C810 C 0.6047 0.92394 0.60405 0.0
C811 C 0.5765 0.95986 0.60041 0.0
H812 H 0.42615 0.46267 0.85634 0.0
H813 H 0.49654 0.40386 0.91918 0.0
H814 H 0.3954 0.31034 0.9243 0.0
H815 H 0.28232 0.26383 0.91869 0.0
H816 H 0.21143 0.32345 0.85617 0.0
H817 H 0.31724 0.39683 0.84248 0.0
C818 C 0.42013 0.42741 0.8701 0.0
C819 C 0.46833 0.43984 0.8874 0.0
C820 C 0.36121 0.37474 0.87339 0.0
C821 C 0.46017 0.39467 0.90547 0.0
C822 C 0.40196 0.34174 0.90868 0.0
C823 C 0.29023 0.29094 0.90139 0.0
C824 C 0.23949 0.2895 0.88879 0.0
C825 C 0.35124 0.33381 0.89395 0.0
C826 C 0.24988 0.32406 0.86623 0.0
C827 C 0.31046 0.36661 0.85859 0.0
loop_
_geom_bond_atom_site_label_1
_geom_bond_atom_site_label_2
_geom_bond_distance
_geom_bond_site_symmetry_2
_ccdc_geom_bond_type
Zn0 O6 1.920 1_545 S
Zn0 O12 1.898 . S
Zn0 O15 1.905 . S
Zn1 O9 1.905 . S
Zn1 O10 1.898 . S
Zn1 O18 1.920 . S
Zn2 O5 2.080 . S
Zn2 O8 2.114 . S
Zn2 O11 2.120 . S
Zn2 O13 2.120 . S
Zn2 O14 2.114 . S
Zn2 O17 2.080 . S
C3 O8 1.166 . S
C3 O9 1.182 . S
C4 O10 1.167 . S
C4 O11 1.299 . S
O5 Zn2 2.080 . S
O5 C19 1.305 1_545 S
O6 Zn0 1.920 1_565 S
O6 C19 1.234 . S
C7 O12 1.167 . S
C7 O13 1.299 . S
O8 Zn2 2.114 . S
O8 C3 1.166 . S
O9 Zn1 1.905 . S
O9 C3 1.182 . S
O10 Zn1 1.898 . S
O10 C4 1.167 . S
O11 Zn2 2.120 . S
O11 C4 1.299 . S
O12 Zn0 1.898 . S
O12 C7 1.167 . S
O13 Zn2 2.120 . S
O13 C7 1.299 . S
O14 Zn2 2.114 . S
O14 C16 1.166 . S
O15 Zn0 1.905 . S
O15 C16 1.182 . S
C16 O14 1.166 . S
C16 O15 1.182 . S
O17 Zn2 2.080 . S
O17 C20 1.305 . S
O18 Zn1 1.920 . S
O18 C20 1.234 . S
C19 O5 1.305 1_565 S
C19 O6 1.234 . S
C20 O17 1.305 . S
C20 O18 1.234 . S
Zn21 O27 1.920 . S
Zn21 O33 1.898 . S
Zn21 O36 1.905 . S
Zn22 O30 1.905 . S
Zn22 O31 1.898 . S
Zn22 O39 1.920 . S
Zn23 O26 2.080 . S
Zn23 O29 2.114 . S
Zn23 O32 2.120 . S
Zn23 O34 2.120 . S
Zn23 O35 2.114 . S
Zn23 O38 2.080 . S
C24 O29 1.166 . S
C24 O30 1.182 . S
C25 O31 1.167 . S
C25 O32 1.299 . S
O26 Zn23 2.080 . S
O26 C40 1.305 . S
O27 Zn21 1.920 . S
O27 C40 1.234 . S
C28 O33 1.167 . S
C28 O34 1.299 . S
O29 Zn23 2.114 . S
O29 C24 1.166 . S
O30 Zn22 1.905 . S
O30 C24 1.182 . S
O31 Zn22 1.898 . S
O31 C25 1.167 . S
O32 Zn23 2.120 . S
O32 C25 1.299 . S
O33 Zn21 1.898 . S
O33 C28 1.167 . S
O34 Zn23 2.120 . S
O34 C28 1.299 . S
O35 Zn23 2.114 . S
O35 C37 1.166 . S
O36 Zn21 1.905 . S
O36 C37 1.182 . S
C37 O35 1.166 . S
C37 O36 1.182 . S
O38 Zn23 2.080 . S
O38 C41 1.305 . S
O39 Zn22 1.920 . S
O39 C41 1.234 . S
C40 O26 1.305 . S
C40 O27 1.234 . S
C41 O38 1.305 . S
C41 O39 1.234 . S
Zn42 O48 1.920 1_655 S
Zn42 O54 1.898 . S
Zn42 O57 1.905 . S
Zn43 O51 1.905 . S
Zn43 O52 1.898 . S
Zn43 O60 1.920 . S
Zn44 O47 2.080 . S
Zn44 O50 2.114 . S
Zn44 O53 2.120 . S
Zn44 O55 2.120 . S
Zn44 O56 2.114 . S
Zn44 O59 2.080 . S
C45 O50 1.166 . S
C45 O51 1.182 . S
C46 O52 1.167 . S
C46 O53 1.299 . S
O47 Zn44 2.080 . S
O47 C61 1.305 1_655 S
O48 Zn42 1.920 1_455 S
O48 C61 1.234 . S
C49 O54 1.167 . S
C49 O55 1.299 . S
O50 Zn44 2.114 . S
O50 C45 1.166 . S
O51 Zn43 1.905 . S
O51 C45 1.182 . S
O52 Zn43 1.898 . S
O52 C46 1.167 . S
O53 Zn44 2.120 . S
O53 C46 1.299 . S
O54 Zn42 1.898 . S
O54 C49 1.167 . S
O55 Zn44 2.120 . S
O55 C49 1.299 . S
O56 Zn44 2.114 . S
O56 C58 1.166 . S
O57 Zn42 1.905 . S
O57 C58 1.182 . S
C58 O56 1.166 . S
C58 O57 1.182 . S
O59 Zn44 2.080 . S
O59 C62 1.305 . S
O60 Zn43 1.920 . S
O60 C62 1.234 . S
C61 O47 1.305 1_455 S
C61 O48 1.234 . S
C62 O59 1.305 . S
C62 O60 1.234 . S
Zn63 O69 1.920 . S
Zn63 O75 1.898 . S
Zn63 O78 1.905 . S
Zn64 O72 1.905 . S
Zn64 O73 1.898 . S
Zn64 O81 1.920 1_545 S
Zn65 O68 2.080 . S
Zn65 O71 2.114 . S
Zn65 O74 2.120 . S
Zn65 O76 2.120 . S
Zn65 O77 2.114 . S
Zn65 O80 2.080 . S
C66 O71 1.166 . S
C66 O72 1.182 . S
C67 O73 1.167 . S
C67 O74 1.299 . S
O68 Zn65 2.080 . S
O68 C82 1.305 . S
O69 Zn63 1.920 . S
O69 C82 1.234 . S
C70 O75 1.167 . S
C70 O76 1.299 . S
O71 Zn65 2.114 . S
O71 C66 1.166 . S
O72 Zn64 1.905 . S
O72 C66 1.182 . S
O73 Zn64 1.898 . S
O73 C67 1.167 . S
O74 Zn65 2.120 . S
O74 C67 1.299 . S
O75 Zn63 1.898 . S
O75 C70 1.167 . S
O76 Zn65 2.120 . S
O76 C70 1.299 . S
O77 Zn65 2.114 . S
O77 C79 1.166 . S
O78 Zn63 1.905 . S
O78 C79 1.182 . S
C79 O77 1.166 . S
C79 O78 1.182 . S
O80 Zn65 2.080 . S
O80 C83 1.305 1_545 S
O81 Zn64 1.920 1_565 S
O81 C83 1.234 . S
C82 O68 1.305 . S
C82 O69 1.234 . S
C83 O80 1.305 1_565 S
C83 O81 1.234 . S
Zn84 O90 1.920 . S
Zn84 O96 1.898 . S
Zn84 O99 1.905 . S
Zn85 O93 1.905 . S
Zn85 O94 1.898 . S
Zn85 O102 1.920 . S
Zn86 O89 2.080 . S
Zn86 O92 2.114 . S
Zn86 O95 2.120 . S
Zn86 O97 2.120 . S
Zn86 O98 2.114 . S
Zn86 O101 2.080 . S
C87 O92 1.166 . S
C87 O93 1.182 . S
C88 O94 1.167 . S
C88 O95 1.299 . S
O89 Zn86 2.080 . S
O89 C103 1.305 . S
O90 Zn84 1.920 . S
O90 C103 1.234 . S
C91 O96 1.167 . S
C91 O97 1.299 . S
O92 Zn86 2.114 . S
O92 C87 1.166 . S
O93 Zn85 1.905 . S
O93 C87 1.182 . S
O94 Zn85 1.898 . S
O94 C88 1.167 . S
O95 Zn86 2.120 . S
O95 C88 1.299 . S
O96 Zn84 1.898 . S
O96 C91 1.167 . S
O97 Zn86 2.120 . S
O97 C91 1.299 . S
O98 Zn86 2.114 . S
O98 C100 1.166 . S
O99 Zn84 1.905 . S
O99 C100 1.182 . S
C100 O98 1.166 . S
C100 O99 1.182 . S
O101 Zn86 2.080 . S
O101 C104 1.305 . S
O102 Zn85 1.920 . S
O102 C104 1.234 . S
C103 O89 1.305 . S
C103 O90 1.234 . S
C104 O101 1.305 . S
C104 O102 1.234 . S
Zn105 O111 1.920 . S
Zn105 O117 1.898 . S
Zn105 O120 1.905 . S
Zn106 O114 1.905 . S
Zn106 O115 1.898 . S
Zn106 O123 1.920 1_655 S
Zn107 O110 2.080 . S
Zn107 O113 2.114 . S
Zn107 O116 2.120 . S
Zn107 O118 2.120 . S
Zn107 O119 2.114 . S
Zn107 O122 2.080 . S
C108 O113 1.166 . S
C108 O114 1.182 . S
C109 O115 1.167 . S
C109 O116 1.299 . S
O110 Zn107 2.080 . S
O110 C124 1.305 . S
O111 Zn105 1.920 . S
O111 C124 1.234 . S
C112 O117 1.167 . S
C112 O118 1.299 . S
O113 Zn107 2.114 . S
O113 C108 1.166 . S
O114 Zn106 1.905 . S
O114 C108 1.182 . S
O115 Zn106 1.898 . S
O115 C109 1.167 . S
O116 Zn107 2.120 . S
O116 C109 1.299 . S
O117 Zn105 1.898 . S
O117 C112 1.167 . S
O118 Zn107 2.120 . S
O118 C112 1.299 . S
O119 Zn107 2.114 . S
O119 C121 1.166 . S
O120 Zn105 1.905 . S
O120 C121 1.182 . S
C121 O119 1.166 . S
C121 O120 1.182 . S
O122 Zn107 2.080 . S
O122 C125 1.305 1_655 S
O123 Zn106 1.920 1_455 S
O123 C125 1.234 . S
C124 O110 1.305 . S
C124 O111 1.234 . S
C125 O122 1.305 1_455 S
C125 O123 1.234 . S
Zn126 O132 1.920 . S
Zn126 O138 1.898 . S
Zn126 O141 1.905 . S
Zn127 O135 1.905 . S
Zn127 O136 1.898 . S
Zn127 O144 1.920 1_455 S
Zn128 O131 2.080 . S
Zn128 O134 2.114 . S
Zn128 O137 2.120 . S
Zn128 O139 2.120 . S
Zn128 O140 2.114 . S
Zn128 O143 2.080 . S
C129 O134 1.166 . S
C129 O135 1.182 . S
C130 O136 1.167 . S
C130 O137 1.299 . S
O131 Zn128 2.080 . S
O131 C145 1.305 . S
O132 Zn126 1.920 . S
O132 C145 1.234 . S
C133 O138 1.167 . S
C133 O139 1.299 . S
O134 Zn128 2.114 . S
O134 C129 1.166 . S
O135 Zn127 1.905 . S
O135 C129 1.182 . S
O136 Zn127 1.898 . S
O136 C130 1.167 . S
O137 Zn128 2.120 . S
O137 C130 1.299 . S
O138 Zn126 1.898 . S
O138 C133 1.167 . S
O139 Zn128 2.120 . S
O139 C133 1.299 . S
O140 Zn128 2.114 . S
O140 C142 1.166 . S
O141 Zn126 1.905 . S
O141 C142 1.182 . S
C142 O140 1.166 . S
C142 O141 1.182 . S
O143 Zn128 2.080 . S
O143 C146 1.305 1_455 S
O144 Zn127 1.920 1_655 S
O144 C146 1.234 . S
C145 O131 1.305 . S
C145 O132 1.234 . S
C146 O143 1.305 1_655 S
C146 O144 1.234 . S
Zn147 O153 1.920 . S
Zn147 O159 1.898 . S
Zn147 O162 1.905 . S
Zn148 O156 1.905 . S
Zn148 O157 1.898 . S
Zn148 O165 1.920 1_565 S
Zn149 O152 2.080 . S
Zn149 O155 2.114 . S
Zn149 O158 2.120 . S
Zn149 O160 2.120 . S
Zn149 O161 2.114 . S
Zn149 O164 2.080 . S
C150 O155 1.166 . S
C150 O156 1.182 . S
C151 O157 1.167 . S
C151 O158 1.299 . S
O152 Zn149 2.080 . S
O152 C166 1.305 . S
O153 Zn147 1.920 . S
O153 C166 1.234 . S
C154 O159 1.167 . S
C154 O160 1.299 . S
O155 Zn149 2.114 . S
O155 C150 1.166 . S
O156 Zn148 1.905 . S
O156 C150 1.182 . S
O157 Zn148 1.898 . S
O157 C151 1.167 . S
O158 Zn149 2.120 . S
O158 C151 1.299 . S
O159 Zn147 1.898 . S
O159 C154 1.167 . S
O160 Zn149 2.120 . S
O160 C154 1.299 . S
O161 Zn149 2.114 . S
O161 C163 1.166 . S
O162 Zn147 1.905 . S
O162 C163 1.182 . S
C163 O161 1.166 . S
C163 O162 1.182 . S
O164 Zn149 2.080 . S
O164 C167 1.305 1_565 S
O165 Zn148 1.920 1_545 S
O165 C167 1.234 . S
C166 O152 1.305 . S
C166 O153 1.234 . S
C167 O164 1.305 1_545 S
C167 O165 1.234 . S
Zn168 O174 1.920 . S
Zn168 O180 1.898 . S
Zn168 O183 1.905 . S
Zn169 O177 1.905 . S
Zn169 O178 1.898 . S
Zn169 O186 1.920 . S
Zn170 O173 2.080 . S
Zn170 O176 2.114 . S
Zn170 O179 2.120 . S
Zn170 O181 2.120 . S
Zn170 O182 2.114 . S
Zn170 O185 2.080 . S
C171 O176 1.166 . S
C171 O177 1.182 . S
C172 O178 1.167 . S
C172 O179 1.299 . S
O173 Zn170 2.080 . S
O173 C187 1.305 . S
O174 Zn168 1.920 . S
O174 C187 1.234 . S
C175 O180 1.167 . S
C175 O181 1.299 . S
O176 Zn170 2.114 . S
O176 C171 1.166 . S
O177 Zn169 1.905 . S
O177 C171 1.182 . S
O178 Zn169 1.898 . S
O178 C172 1.167 . S
O179 Zn170 2.120 . S
O179 C172 1.299 . S
O180 Zn168 1.898 . S
O180 C175 1.167 . S
O181 Zn170 2.120 . S
O181 C175 1.299 . S
O182 Zn170 2.114 . S
O182 C184 1.166 . S
O183 Zn168 1.905 . S
O183 C184 1.182 . S
C184 O182 1.166 . S
C184 O183 1.182 . S
O185 Zn170 2.080 . S
O185 C188 1.305 . S
O186 Zn169 1.920 . S
O186 C188 1.234 . S
C187 O173 1.305 . S
C187 O174 1.234 . S
C188 O185 1.305 . S
C188 O186 1.234 . S
Zn189 O195 1.920 1_455 S
Zn189 O201 1.898 . S
Zn189 O204 1.905 . S
Zn190 O198 1.905 . S
Zn190 O199 1.898 . S
Zn190 O207 1.920 . S
Zn191 O194 2.080 . S
Zn191 O197 2.114 . S
Zn191 O200 2.120 . S
Zn191 O202 2.120 . S
Zn191 O203 2.114 . S
Zn191 O206 2.080 . S
C192 O197 1.166 . S
C192 O198 1.182 . S
C193 O199 1.167 . S
C193 O200 1.299 . S
O194 Zn191 2.080 . S
O194 C208 1.305 1_455 S
O195 Zn189 1.920 1_655 S
O195 C208 1.234 . S
C196 O201 1.167 . S
C196 O202 1.299 . S
O197 Zn191 2.114 . S
O197 C192 1.166 . S
O198 Zn190 1.905 . S
O198 C192 1.182 . S
O199 Zn190 1.898 . S
O199 C193 1.167 . S
O200 Zn191 2.120 . S
O200 C193 1.299 . S
O201 Zn189 1.898 . S
O201 C196 1.167 . S
O202 Zn191 2.120 . S
O202 C196 1.299 . S
O203 Zn191 2.114 . S
O203 C205 1.166 . S
O204 Zn189 1.905 . S
O204 C205 1.182 . S
C205 O203 1.166 . S
C205 O204 1.182 . S
O206 Zn191 2.080 . S
O206 C209 1.305 . S
O207 Zn190 1.920 . S
O207 C209 1.234 . S
C208 O194 1.305 1_655 S
C208 O195 1.234 . S
C209 O206 1.305 . S
C209 O207 1.234 . S
Zn210 O216 1.920 . S
Zn210 O222 1.898 . S
Zn210 O225 1.905 . S
Zn211 O219 1.905 . S
Zn211 O220 1.898 . S
Zn211 O228 1.920 1_565 S
Zn212 O215 2.080 . S
Zn212 O218 2.114 . S
Zn212 O221 2.120 . S
Zn212 O223 2.120 . S
Zn212 O224 2.114 . S
Zn212 O227 2.080 . S
C213 O218 1.166 . S
C213 O219 1.182 . S
C214 O220 1.167 . S
C214 O221 1.299 . S
O215 Zn212 2.080 . S
O215 C229 1.305 . S
O216 Zn210 1.920 . S
O216 C229 1.234 . S
C217 O222 1.167 . S
C217 O223 1.299 . S
O218 Zn212 2.114 . S
O218 C213 1.166 . S
O219 Zn211 1.905 . S
O219 C213 1.182 . S
O220 Zn211 1.898 . S
O220 C214 1.167 . S
O221 Zn212 2.120 . S
O221 C214 1.299 . S
O222 Zn210 1.898 . S
O222 C217 1.167 . S
O223 Zn212 2.120 . S
O223 C217 1.299 . S
O224 Zn212 2.114 . S
O224 C226 1.166 . S
O225 Zn210 1.905 . S
O225 C226 1.182 . S
C226 O224 1.166 . S
C226 O225 1.182 . S
O227 Zn212 2.080 . S
O227 C230 1.305 1_565 S
O228 Zn211 1.920 1_545 S
O228 C230 1.234 . S
C229 O215 1.305 . S
C229 O216 1.234 . S
C230 O227 1.305 1_545 S
C230 O228 1.234 . S
Zn231 O237 1.920 . S
Zn231 O243 1.898 . S
Zn231 O246 1.905 . S
Zn232 O240 1.905 . S
Zn232 O241 1.898 . S
Zn232 O249 1.920 . S
Zn233 O236 2.080 . S
Zn233 O239 2.114 . S
Zn233 O242 2.120 . S
Zn233 O244 2.120 . S
Zn233 O245 2.114 . S
Zn233 O248 2.080 . S
C234 O239 1.166 . S
C234 O240 1.182 . S
C235 O241 1.167 . S
C235 O242 1.299 . S
O236 Zn233 2.080 . S
O236 C250 1.305 . S
O237 Zn231 1.920 . S
O237 C250 1.234 . S
C238 O243 1.167 . S
C238 O244 1.299 . S
O239 Zn233 2.114 . S
O239 C234 1.166 . S
O240 Zn232 1.905 . S
O240 C234 1.182 . S
O241 Zn232 1.898 . S
O241 C235 1.167 . S
O242 Zn233 2.120 . S
O242 C235 1.299 . S
O243 Zn231 1.898 . S
O243 C238 1.167 . S
O244 Zn233 2.120 . S
O244 C238 1.299 . S
O245 Zn233 2.114 . S
O245 C247 1.166 . S
O246 Zn231 1.905 . S
O246 C247 1.182 . S
C247 O245 1.166 . S
C247 O246 1.182 . S
O248 Zn233 2.080 . S
O248 C251 1.305 . S
O249 Zn232 1.920 . S
O249 C251 1.234 . S
C250 O236 1.305 . S
C250 O237 1.234 . S
C251 O248 1.305 . S
C251 O249 1.234 . S
H252 C258 0.930 . S
H253 C261 0.930 . S
H254 C262 0.930 . S
H255 C263 0.930 . S
H256 C266 0.930 . S
H257 C267 0.930 . S
C258 H252 0.930 . S
C258 C259 1.355 . S
C258 C260 1.415 . S
C259 C258 1.355 . S
C259 C261 1.419 . S
C260 C258 1.415 . S
C260 C265 1.425 . S
C260 C267 1.409 . S
C261 H253 0.930 . S
C261 C259 1.419 . S
C261 C262 1.362 . S
C262 H254 0.930 . S
C262 C261 1.362 . S
C262 C265 1.409 . S
C263 H255 0.930 . S
C263 C264 1.355 . S
C263 C265 1.415 . S
C264 C263 1.355 . S
C264 C266 1.419 . S
C265 C260 1.425 . S
C265 C262 1.409 . S
C265 C263 1.415 . S
C266 H256 0.930 . S
C266 C264 1.419 . S
C266 C267 1.362 . S
C267 H257 0.930 . S
C267 C260 1.409 . S
C267 C266 1.362 . S
H268 C274 0.930 . S
H269 C277 0.930 . S
H270 C278 0.930 . S
H271 C279 0.930 . S
H272 C282 0.930 . S
H273 C283 0.930 . S
C274 H268 0.930 . S
C274 C275 1.355 . S
C274 C276 1.415 . S
C275 C274 1.355 . S
C275 C277 1.419 . S
C276 C274 1.415 . S
C276 C281 1.425 . S
C276 C283 1.409 . S
C277 H269 0.930 . S
C277 C275 1.419 . S
C277 C278 1.362 . S
C278 H270 0.930 . S
C278 C277 1.362 . S
C278 C281 1.409 . S
C279 H271 0.930 . S
C279 C280 1.355 . S
C279 C281 1.415 1_655 S
C280 C279 1.355 . S
C280 C282 1.419 . S
C281 C276 1.425 . S
C281 C278 1.409 . S
C281 C279 1.415 1_455 S
C282 H272 0.930 . S
C282 C280 1.419 . S
C282 C283 1.362 1_655 S
C283 H273 0.930 . S
C283 C276 1.409 . S
C283 C282 1.362 1_455 S
H284 C290 0.941 . S
H285 C293 0.930 . S
H286 C294 0.930 . S
H287 C295 0.930 . S
H288 C298 0.930 . S
H289 C299 0.930 . S
C290 H284 0.941 . S
C290 C291 1.362 . S
C290 C292 1.397 1_545 S
C291 C290 1.362 . S
C291 C293 1.419 . S
C292 C290 1.397 1_565 S
C292 C297 1.425 . S
C292 C299 1.409 . S
C293 H285 0.930 . S
C293 C291 1.419 . S
C293 C294 1.362 1_545 S
C294 H286 0.930 . S
C294 C293 1.362 1_565 S
C294 C297 1.409 . S
C295 H287 0.930 . S
C295 C296 1.355 . S
C295 C297 1.415 . S
C296 C295 1.355 . S
C296 C298 1.419 . S
C297 C292 1.425 . S
C297 C294 1.409 . S
C297 C295 1.415 . S
C298 H288 0.930 . S
C298 C296 1.419 . S
C298 C299 1.362 . S
C299 H289 0.930 . S
C299 C292 1.409 . S
C299 C298 1.362 . S
H300 C306 0.930 . S
H301 C309 0.930 . S
H302 C310 0.930 . S
H303 C311 0.930 . S
H304 C314 0.930 1_655 S
H305 C315 0.930 . S
C306 H300 0.930 . S
C306 C307 1.355 . S
C306 C308 1.415 . S
C307 C306 1.355 . S
C307 C309 1.419 . S
C308 C306 1.415 . S
C308 C313 1.425 . S
C308 C315 1.409 . S
C309 H301 0.930 . S
C309 C307 1.419 . S
C309 C310 1.362 . S
C310 H302 0.930 . S
C310 C309 1.362 . S
C310 C313 1.409 . S
C311 H303 0.930 . S
C311 C312 1.355 . S
C311 C313 1.415 . S
C312 C311 1.355 . S
C312 C314 1.419 . S
C313 C308 1.425 . S
C313 C310 1.409 . S
C313 C311 1.415 . S
C314 H304 0.930 1_455 S
C314 C312 1.419 . S
C314 C315 1.362 . S
C315 H305 0.930 . S
C315 C308 1.409 . S
C315 C314 1.362 . S
H316 C322 0.930 . S
H317 C325 0.930 . S
H318 C326 0.930 . S
H319 C327 0.930 . S
H320 C330 0.930 . S
H321 C331 0.930 . S
C322 H316 0.930 . S
C322 C323 1.355 . S
C322 C324 1.415 . S
C323 C322 1.355 . S
C323 C325 1.419 . S
C324 C322 1.415 . S
C324 C329 1.425 . S
C324 C331 1.409 . S
C325 H317 0.930 . S
C325 C323 1.419 . S
C325 C326 1.362 . S
C326 H318 0.930 . S
C326 C325 1.362 . S
C326 C329 1.409 . S
C327 H319 0.930 . S
C327 C328 1.355 . S
C327 C329 1.415 1_655 S
C328 C327 1.355 . S
C328 C330 1.419 . S
C329 C324 1.425 . S
C329 C326 1.409 . S
C329 C327 1.415 1_455 S
C330 H320 0.930 . S
C330 C328 1.419 . S
C330 C331 1.362 1_655 S
C331 H321 0.930 . S
C331 C324 1.409 . S
C331 C330 1.362 1_455 S
H332 C338 0.930 . S
H333 C341 0.930 . S
H334 C342 0.930 . S
H335 C343 0.941 . S
H336 C346 0.930 . S
H337 C347 0.930 . S
C338 H332 0.930 . S
C338 C339 1.355 . S
C338 C340 1.415 . S
C339 C338 1.355 . S
C339 C341 1.419 . S
C340 C338 1.415 . S
C340 C345 1.425 . S
C340 C347 1.409 . S
C341 H333 0.930 . S
C341 C339 1.419 . S
C341 C342 1.362 . S
C342 H334 0.930 . S
C342 C341 1.362 . S
C342 C345 1.409 . S
C343 H335 0.941 . S
C343 C344 1.362 . S
C343 C345 1.397 1_545 S
C344 C343 1.362 . S
C344 C346 1.419 . S
C345 C340 1.425 . S
C345 C342 1.409 . S
C345 C343 1.397 1_565 S
C346 H336 0.930 . S
C346 C344 1.419 . S
C346 C347 1.362 1_545 S
C347 H337 0.930 . S
C347 C340 1.409 . S
C347 C346 1.362 1_565 S
H348 C354 0.930 . S
H349 C357 0.930 . S
H350 C358 0.930 . S
H351 C359 0.930 . S
H352 C362 0.930 . S
H353 C363 0.930 . S
C354 H348 0.930 . S
C354 C355 1.355 . S
C354 C356 1.415 . S
C355 C354 1.355 . S
C355 C357 1.419 . S
C356 C354 1.415 . S
C356 C361 1.425 . S
C356 C363 1.409 . S
C357 H349 0.930 . S
C357 C355 1.419 . S
C357 C358 1.362 . S
C358 H350 0.930 . S
C358 C357 1.362 . S
C358 C361 1.409 . S
C359 H351 0.930 . S
C359 C360 1.355 . S
C359 C361 1.415 . S
C360 C359 1.355 . S
C360 C362 1.419 . S
C361 C356 1.425 . S
C361 C358 1.409 . S
C361 C359 1.415 . S
C362 H352 0.930 . S
C362 C360 1.419 . S
C362 C363 1.362 . S
C363 H353 0.930 . S
C363 C356 1.409 . S
C363 C362 1.362 . S
H364 C370 0.930 . S
H365 C373 0.930 . S
H366 C374 0.930 . S
H367 C375 0.930 . S
H368 C378 0.930 . S
H369 C379 0.930 . S
C370 H364 0.930 . S
C370 C371 1.355 . S
C370 C372 1.415 1_455 S
C371 C370 1.355 . S
C371 C373 1.419 . S
C372 C370 1.415 1_655 S
C372 C377 1.425 . S
C372 C379 1.409 . S
C373 H365 0.930 . S
C373 C371 1.419 . S
C373 C374 1.362 1_455 S
C374 H366 0.930 . S
C374 C373 1.362 1_655 S
C374 C377 1.409 . S
C375 H367 0.930 . S
C375 C376 1.355 . S
C375 C377 1.415 . S
C376 C375 1.355 . S
C376 C378 1.419 . S
C377 C372 1.425 . S
C377 C374 1.409 . S
C377 C375 1.415 . S
C378 H368 0.930 . S
C378 C376 1.419 . S
C378 C379 1.362 . S
C379 H369 0.930 . S
C379 C372 1.409 . S
C379 C378 1.362 . S
H380 C386 0.926 . S
H381 C389 0.930 . S
H382 C390 0.930 . S
H383 C391 0.930 . S
H384 C394 0.930 . S
H385 C395 0.930 . S
C386 H380 0.926 . S
C386 C387 1.367 . S
C386 C388 1.405 1_565 S
C387 C386 1.367 . S
C387 C389 1.419 . S
C388 C386 1.405 1_545 S
C388 C393 1.425 . S
C388 C395 1.409 . S
C389 H381 0.930 . S
C389 C387 1.419 . S
C389 C390 1.362 1_565 S
C390 H382 0.930 . S
C390 C389 1.362 1_545 S
C390 C393 1.409 . S
C391 H383 0.930 . S
C391 C392 1.355 . S
C391 C393 1.415 . S
C392 C391 1.355 . S
C392 C394 1.419 . S
C393 C388 1.425 . S
C393 C390 1.409 . S
C393 C391 1.415 . S
C394 H384 0.930 . S
C394 C392 1.419 . S
C394 C395 1.362 . S
C395 H385 0.930 . S
C395 C388 1.409 . S
C395 C394 1.362 . S
H396 C402 0.930 . S
H397 C405 0.930 . S
H398 C406 0.930 . S
H399 C407 0.930 . S
H400 C410 0.930 . S
H401 C411 0.930 . S
C402 H396 0.930 . S
C402 C403 1.355 . S
C402 C404 1.415 . S
C403 C402 1.355 . S
C403 C405 1.419 . S
C404 C402 1.415 . S
C404 C409 1.425 . S
C404 C411 1.409 . S
C405 H397 0.930 . S
C405 C403 1.419 . S
C405 C406 1.362 . S
C406 H398 0.930 . S
C406 C405 1.362 . S
C406 C409 1.409 . S
C407 H399 0.930 . S
C407 C408 1.355 . S
C407 C409 1.415 . S
C408 C407 1.355 . S
C408 C410 1.419 . S
C409 C404 1.425 . S
C409 C406 1.409 . S
C409 C407 1.415 . S
C410 H400 0.930 . S
C410 C408 1.419 . S
C410 C411 1.362 . S
C411 H401 0.930 . S
C411 C404 1.409 . S
C411 C410 1.362 . S
H412 C418 0.941 . S
H413 C421 0.930 . S
H414 C422 0.930 . S
H415 C423 0.930 . S
H416 C426 0.930 . S
H417 C427 0.930 . S
C418 H412 0.941 . S
C418 C419 1.362 . S
C418 C420 1.397 1_455 S
C419 C418 1.362 . S
C419 C421 1.419 . S
C420 C418 1.397 1_655 S
C420 C425 1.425 . S
C420 C427 1.409 . S
C421 H413 0.930 . S
C421 C419 1.419 . S
C421 C422 1.362 1_455 S
C422 H414 0.930 . S
C422 C421 1.362 1_655 S
C422 C425 1.409 . S
C423 H415 0.930 . S
C423 C424 1.355 . S
C423 C425 1.415 . S
C424 C423 1.355 . S
C424 C426 1.419 . S
C425 C420 1.425 . S
C425 C422 1.409 . S
C425 C423 1.415 . S
C426 H416 0.930 . S
C426 C424 1.419 . S
C426 C427 1.362 . S
C427 H417 0.930 . S
C427 C420 1.409 . S
C427 C426 1.362 . S
H428 C434 0.930 . S
H429 C437 0.930 . S
H430 C438 0.930 . S
H431 C439 0.927 . S
H432 C442 0.930 . S
H433 C443 0.930 . S
C434 H428 0.930 . S
C434 C435 1.355 . S
C434 C436 1.415 . S
C435 C434 1.355 . S
C435 C437 1.419 . S
C436 C434 1.415 . S
C436 C441 1.425 . S
C436 C443 1.409 . S
C437 H429 0.930 . S
C437 C435 1.419 . S
C437 C438 1.362 . S
C438 H430 0.930 . S
C438 C437 1.362 . S
C438 C441 1.409 . S
C439 H431 0.927 . S
C439 C440 1.362 . S
C439 C441 1.410 1_565 S
C440 C439 1.362 . S
C440 C442 1.419 . S
C441 C436 1.425 . S
C441 C438 1.409 . S
C441 C439 1.410 1_545 S
C442 H432 0.930 . S
C442 C440 1.419 . S
C442 C443 1.362 1_565 S
C443 H433 0.930 . S
C443 C436 1.409 . S
C443 C442 1.362 1_545 S
H444 C450 0.930 . S
H445 C453 0.930 . S
H446 C454 0.930 . S
H447 C455 0.930 . S
H448 C458 0.930 1_565 S
H449 C459 0.930 1_565 S
C450 H444 0.930 . S
C450 C451 1.355 . S
C450 C452 1.415 . S
C451 C450 1.355 . S
C451 C453 1.419 . S
C452 C450 1.415 . S
C452 C457 1.425 . S
C452 C459 1.409 . S
C453 H445 0.930 . S
C453 C451 1.419 . S
C453 C454 1.362 . S
C454 H446 0.930 . S
C454 C453 1.362 . S
C454 C457 1.409 . S
C455 H447 0.930 . S
C455 C456 1.355 . S
C455 C457 1.415 . S
C456 C455 1.355 . S
C456 C458 1.419 . S
C457 C452 1.425 . S
C457 C454 1.409 . S
C457 C455 1.415 . S
C458 H448 0.930 1_545 S
C458 C456 1.419 . S
C458 C459 1.362 . S
C459 H449 0.930 1_545 S
C459 C452 1.409 . S
C459 C458 1.362 . S
H460 C466 0.930 . S
H461 C469 0.930 . S
H462 C470 0.930 . S
H463 C471 0.930 . S
H464 C474 0.930 . S
H465 C475 0.930 . S
C466 H460 0.930 . S
C466 C467 1.355 . S
C466 C468 1.415 . S
C467 C466 1.355 . S
C467 C469 1.419 . S
C468 C466 1.415 . S
C468 C473 1.425 . S
C468 C475 1.409 . S
C469 H461 0.930 . S
C469 C467 1.419 . S
C469 C470 1.362 . S
C470 H462 0.930 . S
C470 C469 1.362 . S
C470 C473 1.409 . S
C471 H463 0.930 . S
C471 C472 1.355 . S
C471 C473 1.415 . S
C472 C471 1.355 . S
C472 C474 1.419 . S
C473 C468 1.425 . S
C473 C470 1.409 . S
C473 C471 1.415 . S
C474 H464 0.930 . S
C474 C472 1.419 . S
C474 C475 1.362 . S
C475 H465 0.930 . S
C475 C468 1.409 . S
C475 C474 1.362 . S
H476 C482 0.930 . S
H477 C485 0.930 . S
H478 C486 0.930 . S
H479 C487 0.930 . S
H480 C490 0.930 . S
H481 C491 0.930 . S
C482 H476 0.930 . S
C482 C483 1.355 . S
C482 C484 1.415 . S
C483 C482 1.355 . S
C483 C485 1.419 . S
C484 C482 1.415 . S
C484 C489 1.425 . S
C484 C491 1.409 . S
C485 H477 0.930 . S
C485 C483 1.419 . S
C485 C486 1.362 . S
C486 H478 0.930 . S
C486 C485 1.362 . S
C486 C489 1.409 . S
C487 H479 0.930 . S
C487 C488 1.355 . S
C487 C489 1.415 . S
C488 C487 1.355 . S
C488 C490 1.419 . S
C489 C484 1.425 . S
C489 C486 1.409 . S
C489 C487 1.415 . S
C490 H480 0.930 . S
C490 C488 1.419 . S
C490 C491 1.362 . S
C491 H481 0.930 . S
C491 C484 1.409 . S
C491 C490 1.362 . S
H492 C498 0.930 . S
H493 C501 0.946 . S
H494 C502 0.930 1_655 S
H495 C503 0.930 . S
H496 C506 0.930 . S
H497 C507 0.930 . S
C498 H492 0.930 . S
C498 C499 1.355 . S
C498 C500 1.415 . S
C499 C498 1.355 . S
C499 C501 1.419 . S
C500 C498 1.415 . S
C500 C505 1.425 . S
C500 C507 1.409 . S
C501 H493 0.946 . S
C501 C499 1.419 . S
C501 C502 1.362 . S
C502 H494 0.930 1_455 S
C502 C501 1.362 . S
C502 C505 1.409 . S
C503 H495 0.930 . S
C503 C504 1.355 . S
C503 C505 1.415 . S
C504 C503 1.355 . S
C504 C506 1.419 . S
C505 C500 1.425 . S
C505 C502 1.409 . S
C505 C503 1.415 . S
C506 H496 0.930 . S
C506 C504 1.419 . S
C506 C507 1.362 . S
C507 H497 0.930 . S
C507 C500 1.409 . S
C507 C506 1.362 . S
H508 C514 0.930 . S
H509 C517 0.930 . S
H510 C518 0.930 1_545 S
H511 C519 0.930 . S
H512 C522 0.930 . S
H513 C523 0.930 . S
C514 H508 0.930 . S
C514 C515 1.355 . S
C514 C516 1.415 . S
C515 C514 1.355 . S
C515 C517 1.419 . S
C516 C514 1.415 . S
C516 C521 1.425 . S
C516 C523 1.409 . S
C517 H509 0.930 . S
C517 C515 1.419 . S
C517 C518 1.362 . S
C518 H510 0.930 1_565 S
C518 C517 1.362 . S
C518 C521 1.409 . S
C519 H511 0.930 . S
C519 C520 1.355 . S
C519 C521 1.415 . S
C520 C519 1.355 . S
C520 C522 1.419 . S
C521 C516 1.425 . S
C521 C518 1.409 . S
C521 C519 1.415 . S
C522 H512 0.930 . S
C522 C520 1.419 . S
C522 C523 1.362 . S
C523 H513 0.930 . S
C523 C516 1.409 . S
C523 C522 1.362 . S
H524 C530 0.930 . S
H525 C533 0.930 . S
H526 C534 0.930 . S
H527 C535 0.930 . S
H528 C538 0.930 . S
H529 C539 0.930 . S
C530 H524 0.930 . S
C530 C531 1.355 . S
C530 C532 1.415 . S
C531 C530 1.355 . S
C531 C533 1.419 . S
C532 C530 1.415 . S
C532 C537 1.425 . S
C532 C539 1.409 . S
C533 H525 0.930 . S
C533 C531 1.419 . S
C533 C534 1.362 . S
C534 H526 0.930 . S
C534 C533 1.362 . S
C534 C537 1.409 . S
C535 H527 0.930 . S
C535 C536 1.355 . S
C535 C537 1.415 . S
C536 C535 1.355 . S
C536 C538 1.419 . S
C537 C532 1.425 . S
C537 C534 1.409 . S
C537 C535 1.415 . S
C538 H528 0.930 . S
C538 C536 1.419 . S
C538 C539 1.362 . S
C539 H529 0.930 . S
C539 C532 1.409 . S
C539 C538 1.362 . S
H540 C546 0.930 . S
H541 C549 0.930 . S
H542 C550 0.930 . S
H543 C551 0.930 . S
H544 C554 0.930 . S
H545 C555 0.930 . S
C546 H540 0.930 . S
C546 C547 1.355 . S
C546 C548 1.415 1_565 S
C547 C546 1.355 . S
C547 C549 1.419 . S
C548 C546 1.415 1_545 S
C548 C553 1.425 1_546 S
C548 C555 1.409 1_556 S
C549 H541 0.930 . S
C549 C547 1.419 . S
C549 C550 1.362 . S
C550 H542 0.930 . S
C550 C549 1.362 . S
C550 C553 1.409 1_556 S
C551 H543 0.930 . S
C551 C552 1.355 . S
C551 C553 1.415 1_545 S
C552 C551 1.355 . S
C552 C554 1.419 . S
C553 C548 1.425 1_564 S
C553 C550 1.409 1_554 S
C553 C551 1.415 1_565 S
C554 H544 0.930 . S
C554 C552 1.419 . S
C554 C555 1.362 . S
C555 H545 0.930 . S
C555 C548 1.409 1_554 S
C555 C554 1.362 . S
H556 C562 0.930 . S
H557 C565 0.930 . S
H558 C566 0.930 . S
H559 C567 0.930 . S
H560 C570 0.930 . S
H561 C571 0.930 . S
C562 H556 0.930 . S
C562 C563 1.355 . S
C562 C564 1.415 . S
C563 C562 1.355 . S
C563 C565 1.419 . S
C564 C562 1.415 . S
C564 C569 1.425 . S
C564 C571 1.409 . S
C565 H557 0.930 . S
C565 C563 1.419 . S
C565 C566 1.362 . S
C566 H558 0.930 . S
C566 C565 1.362 . S
C566 C569 1.409 . S
C567 H559 0.930 . S
C567 C568 1.355 . S
C567 C569 1.415 . S
C568 C567 1.355 . S
C568 C570 1.419 . S
C569 C564 1.425 . S
C569 C566 1.409 . S
C569 C567 1.415 . S
C570 H560 0.930 . S
C570 C568 1.419 . S
C570 C571 1.362 . S
C571 H561 0.930 . S
C571 C564 1.409 . S
C571 C570 1.362 . S
H572 C578 0.930 . S
H573 C581 0.930 . S
H574 C582 0.922 1_655 S
H575 C583 0.930 . S
H576 C586 0.930 . S
H577 C587 0.922 1_455 S
C578 H572 0.930 . S
C578 C579 1.355 . S
C578 C580 1.415 . S
C579 C578 1.355 . S
C579 C581 1.419 . S
C580 C578 1.415 . S
C580 C585 1.425 1_456 S
C580 C587 1.409 1_456 S
C581 H573 0.930 . S
C581 C579 1.419 . S
C581 C582 1.362 . S
C582 H574 0.922 1_455 S
C582 C581 1.362 . S
C582 C585 1.409 1_456 S
C583 H575 0.930 . S
C583 C584 1.355 . S
C583 C585 1.415 . S
C584 C583 1.355 . S
C584 C586 1.419 . S
C585 C580 1.425 1_654 S
C585 C582 1.409 1_654 S
C585 C583 1.415 . S
C586 H576 0.930 . S
C586 C584 1.419 . S
C586 C587 1.362 . S
C587 H577 0.922 1_655 S
C587 C580 1.409 1_654 S
C587 C586 1.362 . S
H588 C594 0.930 1_565 S
H589 C597 0.930 . S
H590 C598 0.930 . S
H591 C599 0.930 1_545 S
H592 C602 0.930 . S
H593 C603 0.930 . S
C594 H588 0.930 1_545 S
C594 C595 1.355 . S
C594 C596 1.415 1_545 S
C595 C594 1.355 . S
C595 C597 1.419 . S
C596 C594 1.415 1_565 S
C596 C601 1.425 1_565 S
C596 C603 1.409 . S
C597 H589 0.930 . S
C597 C595 1.419 . S
C597 C598 1.362 . S
C598 H590 0.930 . S
C598 C597 1.362 . S
C598 C601 1.409 . S
C599 H591 0.930 1_565 S
C599 C600 1.355 . S
C599 C601 1.415 1_565 S
C600 C599 1.355 . S
C600 C602 1.419 . S
C601 C596 1.425 1_545 S
C601 C598 1.409 . S
C601 C599 1.415 1_545 S
C602 H592 0.930 . S
C602 C600 1.419 . S
C602 C603 1.362 . S
C603 H593 0.930 . S
C603 C596 1.409 . S
C603 C602 1.362 . S
H604 C610 0.930 . S
H605 C613 0.930 . S
H606 C614 0.930 1_556 S
H607 C615 0.930 . S
H608 C618 0.930 . S
H609 C619 0.930 1_554 S
C610 H604 0.930 . S
C610 C611 1.355 . S
C610 C612 1.415 . S
C611 C610 1.355 . S
C611 C613 1.419 . S
C612 C610 1.415 . S
C612 C617 1.425 1_554 S
C612 C619 1.409 1_554 S
C613 H605 0.930 . S
C613 C611 1.419 . S
C613 C614 1.362 . S
C614 H606 0.930 1_554 S
C614 C613 1.362 . S
C614 C617 1.409 1_554 S
C615 H607 0.930 . S
C615 C616 1.355 . S
C615 C617 1.415 . S
C616 C615 1.355 . S
C616 C618 1.419 . S
C617 C612 1.425 1_556 S
C617 C614 1.409 1_556 S
C617 C615 1.415 . S
C618 H608 0.930 . S
C618 C616 1.419 . S
C618 C619 1.362 . S
C619 H609 0.930 1_556 S
C619 C612 1.409 1_556 S
C619 C618 1.362 . S
H620 C626 0.930 . S
H621 C629 0.930 . S
H622 C630 0.930 . S
H623 C631 0.930 . S
H624 C634 0.930 . S
H625 C635 0.930 . S
C626 H620 0.930 . S
C626 C627 1.355 . S
C626 C628 1.415 . S
C627 C626 1.355 . S
C627 C629 1.419 1_455 S
C628 C626 1.415 . S
C628 C633 1.425 1_455 S
C628 C635 1.409 . S
C629 H621 0.930 . S
C629 C627 1.419 1_655 S
C629 C630 1.362 . S
C630 H622 0.930 . S
C630 C629 1.362 . S
C630 C633 1.409 . S
C631 H623 0.930 . S
C631 C632 1.355 . S
C631 C633 1.415 . S
C632 C631 1.355 . S
C632 C634 1.419 1_655 S
C633 C628 1.425 1_655 S
C633 C630 1.409 . S
C633 C631 1.415 . S
C634 H624 0.930 . S
C634 C632 1.419 1_455 S
C634 C635 1.362 . S
C635 H625 0.930 . S
C635 C628 1.409 . S
C635 C634 1.362 . S
H636 C642 0.930 . S
H637 C645 0.930 . S
H638 C646 0.930 . S
H639 C647 0.930 . S
H640 C650 0.930 . S
H641 C651 0.930 . S
C642 H636 0.930 . S
C642 C643 1.355 . S
C642 C644 1.415 . S
C643 C642 1.355 . S
C643 C645 1.419 . S
C644 C642 1.415 . S
C644 C649 1.425 . S
C644 C651 1.409 . S
C645 H637 0.930 . S
C645 C643 1.419 . S
C645 C646 1.362 . S
C646 H638 0.930 . S
C646 C645 1.362 . S
C646 C649 1.409 . S
C647 H639 0.930 . S
C647 C648 1.355 . S
C647 C649 1.415 . S
C648 C647 1.355 . S
C648 C650 1.419 . S
C649 C644 1.425 . S
C649 C646 1.409 . S
C649 C647 1.415 . S
C650 H640 0.930 . S
C650 C648 1.419 . S
C650 C651 1.362 . S
C651 H641 0.930 . S
C651 C644 1.409 . S
C651 C650 1.362 . S
H652 C658 0.930 . S
H653 C661 0.930 . S
H654 C662 0.930 . S
H655 C663 0.930 . S
H656 C666 0.930 . S
H657 C667 0.930 . S
C658 H652 0.930 . S
C658 C659 1.355 . S
C658 C660 1.415 . S
C659 C658 1.355 . S
C659 C661 1.419 . S
C660 C658 1.415 . S
C660 C665 1.425 . S
C660 C667 1.409 . S
C661 H653 0.930 . S
C661 C659 1.419 . S
C661 C662 1.362 . S
C662 H654 0.930 . S
C662 C661 1.362 . S
C662 C665 1.409 . S
C663 H655 0.930 . S
C663 C664 1.355 . S
C663 C665 1.415 . S
C664 C663 1.355 . S
C664 C666 1.419 . S
C665 C660 1.425 . S
C665 C662 1.409 . S
C665 C663 1.415 . S
C666 H656 0.930 . S
C666 C664 1.419 . S
C666 C667 1.362 . S
C667 H657 0.930 . S
C667 C660 1.409 . S
C667 C666 1.362 . S
H668 C674 0.930 . S
H669 C677 0.930 . S
H670 C678 0.930 . S
H671 C679 0.930 . S
H672 C682 0.930 . S
H673 C683 0.930 . S
C674 H668 0.930 . S
C674 C675 1.355 . S
C674 C676 1.415 . S
C675 C674 1.355 . S
C675 C677 1.419 . S
C676 C674 1.415 . S
C676 C681 1.425 . S
C676 C683 1.409 . S
C677 H669 0.930 . S
C677 C675 1.419 . S
C677 C678 1.362 . S
C678 H670 0.930 . S
C678 C677 1.362 . S
C678 C681 1.409 . S
C679 H671 0.930 . S
C679 C680 1.355 . S
C679 C681 1.415 . S
C680 C679 1.355 . S
C680 C682 1.419 . S
C681 C676 1.425 . S
C681 C678 1.409 . S
C681 C679 1.415 . S
C682 H672 0.930 . S
C682 C680 1.419 . S
C682 C683 1.362 . S
C683 H673 0.930 . S
C683 C676 1.409 . S
C683 C682 1.362 . S
H684 C690 0.930 . S
H685 C693 0.930 . S
H686 C694 0.930 . S
H687 C695 0.930 . S
H688 C698 0.930 . S
H689 C699 0.930 . S
C690 H684 0.930 . S
C690 C691 1.355 . S
C690 C692 1.415 . S
C691 C690 1.355 . S
C691 C693 1.419 . S
C692 C690 1.415 . S
C692 C697 1.425 . S
C692 C699 1.409 . S
C693 H685 0.930 . S
C693 C691 1.419 . S
C693 C694 1.362 . S
C694 H686 0.930 . S
C694 C693 1.362 . S
C694 C697 1.409 . S
C695 H687 0.930 . S
C695 C696 1.355 . S
C695 C697 1.415 . S
C696 C695 1.355 . S
C696 C698 1.419 . S
C697 C692 1.425 . S
C697 C694 1.409 . S
C697 C695 1.415 . S
C698 H688 0.930 . S
C698 C696 1.419 . S
C698 C699 1.362 . S
C699 H689 0.930 . S
C699 C692 1.409 . S
C699 C698 1.362 . S
H700 C706 0.930 . S
H701 C709 0.930 . S
H702 C710 0.930 . S
H703 C711 0.930 . S
H704 C714 0.930 . S
H705 C715 0.930 . S
C706 H700 0.930 . S
C706 C707 1.355 . S
C706 C708 1.415 . S
C707 C706 1.355 . S
C707 C709 1.419 . S
C708 C706 1.415 . S
C708 C713 1.425 . S
C708 C715 1.409 . S
C709 H701 0.930 . S
C709 C707 1.419 . S
C709 C710 1.362 . S
C710 H702 0.930 . S
C710 C709 1.362 . S
C710 C713 1.409 . S
C711 H703 0.930 . S
C711 C712 1.355 . S
C711 C713 1.415 . S
C712 C711 1.355 . S
C712 C714 1.419 . S
C713 C708 1.425 . S
C713 C710 1.409 . S
C713 C711 1.415 . S
C714 H704 0.930 . S
C714 C712 1.419 . S
C714 C715 1.362 . S
C715 H705 0.930 . S
C715 C708 1.409 . S
C715 C714 1.362 . S
H716 C722 0.930 . S
H717 C725 0.930 . S
H718 C726 0.930 . S
H719 C727 0.930 . S
H720 C730 0.930 . S
H721 C731 0.930 . S
C722 H716 0.930 . S
C722 C723 1.355 . S
C722 C724 1.415 . S
C723 C722 1.355 . S
C723 C725 1.419 . S
C724 C722 1.415 . S
C724 C729 1.425 . S
C724 C731 1.409 . S
C725 H717 0.930 . S
C725 C723 1.419 . S
C725 C726 1.362 . S
C726 H718 0.930 . S
C726 C725 1.362 . S
C726 C729 1.409 . S
C727 H719 0.930 . S
C727 C728 1.355 . S
C727 C729 1.415 . S
C728 C727 1.355 . S
C728 C730 1.419 . S
C729 C724 1.425 . S
C729 C726 1.409 . S
C729 C727 1.415 . S
C730 H720 0.930 . S
C730 C728 1.419 . S
C730 C731 1.362 . S
C731 H721 0.930 . S
C731 C724 1.409 . S
C731 C730 1.362 . S
H732 C738 0.930 . S
H733 C741 0.930 . S
H734 C742 0.930 . S
H735 C743 0.930 . S
H736 C746 0.930 1_655 S
H737 C747 0.930 . S
C738 H732 0.930 . S
C738 C739 1.355 . S
C738 C740 1.415 . S
C739 C738 1.355 . S
C739 C741 1.419 . S
C740 C738 1.415 . S
C740 C745 1.425 . S
C740 C747 1.409 . S
C741 H733 0.930 . S
C741 C739 1.419 . S
C741 C742 1.362 . S
C742 H734 0.930 . S
C742 C741 1.362 . S
C742 C745 1.409 . S
C743 H735 0.930 . S
C743 C744 1.355 . S
C743 C745 1.415 . S
C744 C743 1.355 . S
C744 C746 1.419 . S
C745 C740 1.425 . S
C745 C742 1.409 . S
C745 C743 1.415 . S
C746 H736 0.930 1_455 S
C746 C744 1.419 . S
C746 C747 1.362 . S
C747 H737 0.930 . S
C747 C740 1.409 . S
C747 C746 1.362 . S
H748 C754 0.930 . S
H749 C757 0.930 . S
H750 C758 0.930 . S
H751 C759 0.930 . S
H752 C762 0.930 . S
H753 C763 0.930 . S
C754 H748 0.930 . S
C754 C755 1.355 . S
C754 C756 1.415 . S
C755 C754 1.355 . S
C755 C757 1.419 . S
C756 C754 1.415 . S
C756 C761 1.425 . S
C756 C763 1.409 . S
C757 H749 0.930 . S
C757 C755 1.419 . S
C757 C758 1.362 . S
C758 H750 0.930 . S
C758 C757 1.362 . S
C758 C761 1.409 . S
C759 H751 0.930 . S
C759 C760 1.355 . S
C759 C761 1.415 . S
C760 C759 1.355 . S
C760 C762 1.419 . S
C761 C756 1.425 . S
C761 C758 1.409 . S
C761 C759 1.415 . S
C762 H752 0.930 . S
C762 C760 1.419 . S
C762 C763 1.362 . S
C763 H753 0.930 . S
C763 C756 1.409 . S
C763 C762 1.362 . S
H764 C770 0.930 . S
H765 C773 0.930 . S
H766 C774 0.930 . S
H767 C775 0.930 . S
H768 C778 0.930 . S
H769 C779 0.930 . S
C770 H764 0.930 . S
C770 C771 1.355 . S
C770 C772 1.415 . S
C771 C770 1.355 . S
C771 C773 1.419 . S
C772 C770 1.415 . S
C772 C777 1.425 . S
C772 C779 1.409 . S
C773 H765 0.930 . S
C773 C771 1.419 . S
C773 C774 1.362 . S
C774 H766 0.930 . S
C774 C773 1.362 . S
C774 C777 1.409 . S
C775 H767 0.930 . S
C775 C776 1.355 . S
C775 C777 1.415 . S
C776 C775 1.355 . S
C776 C778 1.419 . S
C777 C772 1.425 . S
C777 C774 1.409 . S
C777 C775 1.415 . S
C778 H768 0.930 . S
C778 C776 1.419 . S
C778 C779 1.362 . S
C779 H769 0.930 . S
C779 C772 1.409 . S
C779 C778 1.362 . S
H780 C786 0.930 . S
H781 C789 0.930 . S
H782 C790 0.930 . S
H783 C791 0.930 . S
H784 C794 0.930 . S
H785 C795 0.930 . S
C786 H780 0.930 . S
C786 C787 1.355 . S
C786 C788 1.415 . S
C787 C786 1.355 . S
C787 C789 1.419 . S
C788 C786 1.415 . S
C788 C793 1.425 . S
C788 C795 1.409 . S
C789 H781 0.930 . S
C789 C787 1.419 . S
C789 C790 1.362 . S
C790 H782 0.930 . S
C790 C789 1.362 . S
C790 C793 1.409 . S
C791 H783 0.930 . S
C791 C792 1.355 . S
C791 C793 1.415 . S
C792 C791 1.355 . S
C792 C794 1.419 . S
C793 C788 1.425 . S
C793 C790 1.409 . S
C793 C791 1.415 . S
C794 H784 0.930 . S
C794 C792 1.419 . S
C794 C795 1.362 . S
C795 H785 0.930 . S
C795 C788 1.409 . S
C795 C794 1.362 . S
H796 C802 0.930 . S
H797 C805 0.930 . S
H798 C806 0.930 . S
H799 C807 0.930 . S
H800 C810 0.930 . S
H801 C811 0.930 . S
C802 H796 0.930 . S
C802 C803 1.355 . S
C802 C804 1.415 . S
C803 C802 1.355 . S
C803 C805 1.419 . S
C804 C802 1.415 . S
C804 C809 1.425 . S
C804 C811 1.409 . S
C805 H797 0.930 . S
C805 C803 1.419 . S
C805 C806 1.362 . S
C806 H798 0.930 . S
C806 C805 1.362 . S
C806 C809 1.409 . S
C807 H799 0.930 . S
C807 C808 1.355 . S
C807 C809 1.415 . S
C808 C807 1.355 . S
C808 C810 1.419 . S
C809 C804 1.425 . S
C809 C806 1.409 . S
C809 C807 1.415 . S
C810 H800 0.930 . S
C810 C808 1.419 . S
C810 C811 1.362 . S
C811 H801 0.930 . S
C811 C804 1.409 . S
C811 C810 1.362 . S
H812 C818 0.930 . S
H813 C821 0.930 . S
H814 C822 0.930 . S
H815 C823 0.930 . S
H816 C826 0.930 . S
H817 C827 0.930 . S
C818 H812 0.930 . S
C818 C819 1.355 . S
C818 C820 1.415 . S
C819 C818 1.355 . S
C819 C821 1.419 . S
C820 C818 1.415 . S
C820 C825 1.425 . S
C820 C827 1.409 . S
C821 H813 0.930 . S
C821 C819 1.419 . S
C821 C822 1.362 . S
C822 H814 0.930 . S
C822 C821 1.362 . S
C822 C825 1.409 . S
C823 H815 0.930 . S
C823 C824 1.355 . S
C823 C825 1.415 . S
C824 C823 1.355 . S
C824 C826 1.419 . S
C825 C820 1.425 . S
C825 C822 1.409 . S
C825 C823 1.415 . S
C826 H816 0.930 . S
C826 C824 1.419 . S
C826 C827 1.362 . S
C827 H817 0.930 . S
C827 C820 1.409 . S
C827 C826 1.362 . S
C259 C61 0.934 . S
C264 C7 1.084 . S
C275 C83 1.062 . S
C280 C25 1.012 . S
C291 C49 1.014 . S
C296 C104 1.049 . S
C307 C67 1.112 . S
C312 C125 0.958 . S
C323 C19 0.991 . S
C328 C88 1.090 . S
C339 C41 1.049 . S
C344 C109 1.014 . S
C355 C230 1.057 . S
C360 C130 1.029 . S
C371 C151 1.149 . S
C376 C251 0.878 . S
C387 C172 1.088 . S
C392 C146 0.928 . S
C403 C196 1.033 . S
C408 C167 1.012 . S
C419 C214 1.047 . S
C424 C188 0.989 . S
C435 C208 0.944 . S
C440 C235 1.077 . S
C451 C66 1.361 . S
C456 C16 1.319 . S
C467 C24 1.389 . S
C472 C87 1.290 . S
C483 C58 1.390 . S
C488 C108 1.289 . S
C499 C129 1.343 . S
C504 C205 1.337 . S
C515 C150 1.307 . S
C520 C213 1.372 . S
C531 C171 1.360 . S
C536 C234 1.320 . S
C547 C166 1.344 . S
C552 C20 1.419 . S
C563 C40 1.413 . S
C568 C187 1.405 . S
C579 C209 1.354 . S
C584 C62 1.424 . S
C595 C82 1.409 . S
C600 C229 1.334 . S
C611 C103 1.358 . S
C616 C250 1.338 . S
C627 C145 1.390 . S
C632 C124 1.422 . S
C643 C45 1.163 . S
C648 C4 1.065 . S
C659 C28 1.034 . S
C664 C79 1.197 . S
C675 C46 1.064 . S
C680 C100 1.140 . S
C691 C70 0.905 . S
C696 C121 1.242 . S
C707 C3 1.205 . S
C712 C91 0.868 . S
C723 C37 1.132 . S
C728 C112 1.050 . S
C739 C226 1.139 . S
C744 C133 0.987 . S
C755 C154 0.921 . S
C760 C247 1.241 . S
C771 C175 0.860 . S
C776 C142 1.228 . S
C787 C163 1.167 . S
C792 C193 0.920 . S
C803 C217 1.012 . S
C808 C184 1.211 . S
C819 C238 0.963 . S
C824 C192 1.147 . S
