# Generated by pormake.
# Topology snk, (6)-cn, num edge types: 1
# Building blocks:
#     Node 0, Type 0, BuildingBlock: CUKXOW_clean_sbu_0, # of connection points: 6
#     Node 1, Type 0, BuildingBlock: CUKXOW_clean_sbu_0, # of connection points: 6
#     Node 2, Type 0, BuildingBlock: CUKXOW_clean_sbu_0, # of connection points: 6
#     Node 3, Type 0, BuildingBlock: CUKXOW_clean_sbu_0, # of connection points: 6
#     Node 4, Type 0, BuildingBlock: CUKXOW_clean_sbu_0, # of connection points: 6
#     Node 5, Type 0, BuildingBlock: CUKXOW_clean_sbu_0, # of connection points: 6
#     Node 6, Type 0, BuildingBlock: CUKXOW_clean_sbu_0, # of connection points: 6
#     Node 7, Type 0, BuildingBlock: CUKXOW_clean_sbu_0, # of connection points: 6
#     Edge 8, Type (0, 0), BuildingBlock: EZIPEK_clean_linker_0, # of connection points: 2
#     Edge 9, Type (0, 0), BuildingBlock: EZIPEK_clean_linker_0, # of connection points: 2
#     Edge 10, Type (0, 0), BuildingBlock: EZIPEK_clean_linker_0, # of connection points: 2
#     Edge 11, Type (0, 0), BuildingBlock: EZIPEK_clean_linker_0, # of connection points: 2
#     Edge 12, Type (0, 0), BuildingBlock: EZIPEK_clean_linker_0, # of connection points: 2
#     Edge 13, Type (0, 0), BuildingBlock: EZIPEK_clean_linker_0, # of connection points: 2
#     Edge 14, Type (0, 0), BuildingBlock: EZIPEK_clean_linker_0, # of connection points: 2
#     Edge 15, Type (0, 0), BuildingBlock: EZIPEK_clean_linker_0, # of connection points: 2
#     Edge 16, Type (0, 0), BuildingBlock: EZIPEK_clean_linker_0, # of connection points: 2
#     Edge 17, Type (0, 0), BuildingBlock: EZIPEK_clean_linker_0, # of connection points: 2
#     Edge 18, Type (0, 0), BuildingBlock: EZIPEK_clean_linker_0, # of connection points: 2
#     Edge 19, Type (0, 0), BuildingBlock: EZIPEK_clean_linker_0, # of connection points: 2
#     Edge 20, Type (0, 0), BuildingBlock: EZIPEK_clean_linker_0, # of connection points: 2
#     Edge 21, Type (0, 0), BuildingBlock: EZIPEK_clean_linker_0, # of connection points: 2
#     Edge 22, Type (0, 0), BuildingBlock: EZIPEK_clean_linker_0, # of connection points: 2
#     Edge 23, Type (0, 0), BuildingBlock: EZIPEK_clean_linker_0, # of connection points: 2
#     Edge 24, Type (0, 0), BuildingBlock: EZIPEK_clean_linker_0, # of connection points: 2
#     Edge 25, Type (0, 0), BuildingBlock: EZIPEK_clean_linker_0, # of connection points: 2
#     Edge 26, Type (0, 0), BuildingBlock: EZIPEK_clean_linker_0, # of connection points: 2
#     Edge 27, Type (0, 0), BuildingBlock: EZIPEK_clean_linker_0, # of connection points: 2
#     Edge 28, Type (0, 0), BuildingBlock: EZIPEK_clean_linker_0, # of connection points: 2
#     Edge 29, Type (0, 0), BuildingBlock: EZIPEK_clean_linker_0, # of connection points: 2
#     Edge 30, Type (0, 0), BuildingBlock: EZIPEK_clean_linker_0, # of connection points: 2
#     Edge 31, Type (0, 0), BuildingBlock: EZIPEK_clean_linker_0, # of connection points: 2
# Relax obj value: 0.086
# Max RMSD: 0.192
# Mean RMSD: 0.132
data_MOF--net-snk--node1-CUKXOW_clean_sbu_0--edge1-EZIPEK_clean_linker_0
_symmetry_space_group_name_H-M    P1
_symmetry_Int_Tables_number       1
_symmetry_cell_setting            triclinic
loop_
_symmetry_equiv_pos_as_xyz
'x, y, z'
_cell_length_a     34.758527
_cell_length_b     34.807968
_cell_length_c     10.803094
_cell_angle_alpha  99.728383
_cell_angle_beta   100.03864
_cell_angle_gamma 91.002049
loop_
_atom_site_label
_atom_site_type_symbol
_atom_site_fract_x
_atom_site_fract_y
_atom_site_fract_z
_atom_type_partial_charge
Tb0 Tb 0.04217 0.0421 0.60844 0.0
C1 C 0.06765 0.95646 0.59999 0.0
Tb2 Tb 0.98589 0.98557 0.53194 0.0
O3 O 0.0245 0.06293 0.79175 0.0
O4 O 0.01971 0.00402 0.71939 0.0
O5 O 0.0777 0.99085 0.57696 0.0
C6 C 0.92393 0.93997 0.52406 0.0
O7 O 0.03106 0.94915 0.60819 0.0
C8 C 0.01508 0.99831 0.32953 0.0
C9 C 0.95974 0.07052 0.5185 0.0
O10 O 0.95253 0.93035 0.46484 0.0
O11 O 0.92974 0.97552 0.58377 0.0
O12 O 1.00288 0.9647 0.34742 0.0
O13 O 0.00877 0.02368 0.42132 0.0
O14 O 0.94819 0.03535 0.53151 0.0
O15 O 0.9975 0.07914 0.52799 0.0
C16 C 0.11072 0.08154 0.64373 0.0
O17 O 0.07799 0.09659 0.66316 0.0
O18 O 0.10385 0.04482 0.60093 0.0
C19 C 0.01275 0.02936 0.81041 0.0
Tb20 Tb 0.22515 0.78136 0.78033 0.0
C21 C 0.31584 0.81443 0.83857 0.0
Tb22 Tb 0.28462 0.72525 0.78029 0.0
O23 O 0.20688 0.76581 0.95036 0.0
O24 O 0.26544 0.76338 0.93355 0.0
O25 O 0.27811 0.82219 0.80902 0.0
C26 C 0.334 0.66909 0.83513 0.0
O27 O 0.32561 0.77768 0.8422 0.0
C28 C 0.26888 0.75151 0.55914 0.0
C29 C 0.1934 0.69236 0.7202 0.0
O30 O 0.32125 0.69489 0.91739 0.0
O31 O 0.31887 0.67473 0.72162 0.0
O32 O 0.30285 0.74129 0.6108 0.0
O33 O 0.24455 0.74356 0.62806 0.0
O34 O 0.23122 0.68457 0.75016 0.0
O35 O 0.18393 0.72928 0.71864 0.0
C36 C 0.17656 0.83709 0.71731 0.0
O37 O 0.19129 0.83263 0.83253 0.0
O38 O 0.18933 0.81038 0.63789 0.0
C39 C 0.241 0.75625 1.0035 0.0
Tb40 Tb 0.47617 0.03387 1.02595 0.0
C41 C 0.44349 0.94306 0.96604 0.0
Tb42 Tb 0.5324 0.97468 1.02653 0.0
O43 O 0.49206 0.05217 0.85627 0.0
O44 O 0.49416 0.99389 0.87383 0.0
O45 O 0.43582 0.98052 1.00135 0.0
C46 C 0.58791 0.9262 0.96142 0.0
O47 O 0.48016 0.93385 0.95842 0.0
C48 C 0.50708 0.99029 0.24927 0.0
C49 C 0.56561 0.06517 0.08936 0.0
O50 O 0.56396 0.94311 0.88432 0.0
O51 O 0.58088 0.93686 0.07602 0.0
O52 O 0.51654 0.95626 0.19631 0.0
O53 O 0.51456 0.0147 0.17961 0.0
O54 O 0.57353 0.02757 0.06011 0.0
O55 O 0.52866 0.07481 0.0907 0.0
C56 C 0.41917 0.08265 0.07502 0.0
O57 O 0.44482 0.07025 0.15944 0.0
O58 O 0.42538 0.06742 0.96274 0.0
C59 C 0.50189 0.01824 0.80453 0.0
Tb60 Tb 0.21324 0.20901 0.2395 0.0
C61 C 0.3003 0.18952 0.2121 0.0
Tb62 Tb 0.27614 0.27634 0.30351 0.0
O63 O 0.1996 0.2022 1.02881 0.0
O64 O 0.24153 0.24324 0.13602 0.0
O65 O 0.26465 0.17567 0.21346 0.0
C66 C 0.32462 0.33019 0.26989 0.0
O67 O 0.31046 0.22733 0.23839 0.0
C68 C 0.26149 0.25716 0.52168 0.0
C69 C 0.18795 0.29644 0.30756 0.0
O70 O 0.33485 0.30196 0.33103 0.0
O71 O 0.28717 0.32859 0.22996 0.0
O72 O 0.28683 0.28435 0.51526 0.0
O73 O 0.24739 0.24252 0.40598 0.0
O74 O 0.22364 0.30988 0.3035 0.0
O75 O 0.17791 0.25863 0.29202 0.0
C76 C 0.18207 0.15213 0.32606 0.0
O77 O 0.16185 0.17623 0.26325 0.0
O78 O 0.21896 0.15862 0.33016 0.0
C79 C 0.22596 0.22865 1.02104 0.0
Tb80 Tb 0.7249 0.28205 0.29088 0.0
C81 C 0.81538 0.3158 0.34975 0.0
Tb82 Tb 0.78516 0.22637 0.2921 0.0
O83 O 0.70689 0.26504 0.45977 0.0
O84 O 0.76528 0.26405 0.44351 0.0
O85 O 0.77762 0.32311 0.31641 0.0
C86 C 0.83745 0.17342 0.35646 0.0
O87 O 0.82522 0.27923 0.35561 0.0
C88 C 0.76938 0.25231 0.06951 0.0
C89 C 0.69433 0.19285 0.22731 0.0
O90 O 0.82365 0.19964 0.43483 0.0
O91 O 0.82106 0.17636 0.24111 0.0
O92 O 0.80351 0.243 0.12331 0.0
O93 O 0.74502 0.2444 0.13851 0.0
O94 O 0.73196 0.18539 0.26403 0.0
O95 O 0.68475 0.22946 0.22033 0.0
C96 C 0.67486 0.33821 0.2413 0.0
O97 O 0.68729 0.3128 0.15719 0.0
O98 O 0.69065 0.33218 0.35372 0.0
C99 C 0.74115 0.25588 0.51268 0.0
Tb100 Tb 0.71466 0.72306 0.69932 0.0
C101 C 0.80059 0.69633 0.70654 0.0
Tb102 Tb 0.78196 0.7857 0.76398 0.0
O103 O 0.7054 0.71455 0.48676 0.0
O104 O 0.74616 0.75464 0.59743 0.0
O105 O 0.765 0.68686 0.72302 0.0
C106 C 0.82857 0.83711 0.70916 0.0
O107 O 0.81185 0.7328 0.70378 0.0
C108 C 0.76706 0.76742 0.98224 0.0
C109 C 0.69718 0.8122 0.79222 0.0
O110 O 0.84011 0.81154 0.78074 0.0
O111 O 0.791 0.83448 0.67167 0.0
O112 O 0.7946 0.79239 0.97478 0.0
O113 O 0.75087 0.75379 0.8674 0.0
O114 O 0.73335 0.82354 0.78616 0.0
O115 O 0.68459 0.77499 0.76762 0.0
C116 C 0.66283 0.67282 0.73726 0.0
O117 O 0.65432 0.70429 0.69115 0.0
O118 O 0.7003 0.66924 0.75807 0.0
C119 C 0.73185 0.74087 0.48171 0.0
Tb120 Tb 0.53608 0.53772 0.07709 0.0
C121 C 0.56227 0.45226 0.09819 0.0
Tb122 Tb 0.47305 0.47077 1.0085 0.0
O123 O 0.54246 0.54931 0.28762 0.0
O124 O 0.50341 0.50663 0.1772 0.0
O125 O 0.57379 0.48863 0.09486 0.0
C126 C 0.42084 0.42285 0.05346 0.0
O127 O 0.52491 0.43985 0.07334 0.0
C128 C 0.49222 0.48626 0.79266 0.0
C129 C 0.44665 0.55593 0.98575 0.0
O130 O 0.44769 0.41221 0.98673 0.0
O131 O 0.42284 0.46025 0.09211 0.0
O132 O 0.46695 0.45881 0.79821 0.0
O133 O 0.50572 0.50186 0.90806 0.0
O134 O 0.43519 0.51956 0.98857 0.0
O135 O 0.48399 0.5684 1.0115 0.0
C136 C 0.58637 0.58763 1.02986 0.0
O137 O 0.55896 0.59708 0.09532 0.0
O138 O 0.58629 0.5501 0.99569 0.0
C139 C 0.51702 0.52195 0.29271 0.0
Tb140 Tb 0.97301 0.53658 0.53602 0.0
C141 C 0.94268 0.44504 0.47207 0.0
Tb142 Tb 0.03547 0.47241 0.53006 0.0
O143 O 0.96354 0.54121 0.32953 0.0
O144 O 1.00363 0.50501 0.40169 0.0
O145 O 0.93384 0.4826 0.49793 0.0
C146 C 0.08328 0.41844 0.44591 0.0
O147 O 0.97991 0.43498 0.47388 0.0
C148 C 0.01801 0.49073 0.76613 0.0
C149 C 0.06493 0.56367 0.59332 0.0
O150 O 0.04665 0.42045 0.39721 0.0
O151 O 0.09308 0.44699 0.54142 0.0
O152 O 0.04242 0.46472 0.73314 0.0
O153 O 0.00525 0.50421 0.66526 0.0
O154 O 0.07247 0.52696 0.54528 0.0
O155 O 0.02879 0.5726 0.61326 0.0
C156 C 0.92087 0.58654 0.6148 0.0
O157 O 0.94695 0.59386 0.5482 0.0
O158 O 0.92459 0.55137 0.63888 0.0
C159 C 0.98987 0.51707 0.2991 0.0
C160 C 0.16867 0.08167 0.54441 0.0
C161 C 0.14429 0.10315 0.6189 0.0
C162 C 0.15683 0.1606 0.53041 0.0
C163 C 0.16951 0.13544 0.42825 0.0
N164 N 0.19213 0.07272 0.34417 0.0
N165 N 0.12627 0.16527 0.71836 0.0
C166 C 0.17762 0.09625 0.43818 0.0
C167 C 0.14247 0.1437 0.62464 0.0
N168 N 0.18215 0.04726 0.57474 0.0
N169 N 0.16015 0.20021 0.53996 0.0
H170 H 0.11944 0.15316 0.79445 0.0
H171 H 0.11962 0.19439 0.72097 0.0
H172 H 0.17269 0.21363 0.47662 0.0
H173 H 0.15411 0.21995 0.61702 0.0
H174 H 0.20207 0.03113 0.52836 0.0
H175 H 0.17628 0.03742 0.65605 0.0
H176 H 0.19495 0.04286 0.34149 0.0
H177 H 0.19871 0.08249 0.26378 0.0
C178 C 0.08966 0.88767 0.55686 0.0
C179 C 0.09736 0.9267 0.62279 0.0
C180 C 0.16018 0.90768 0.73418 0.0
C181 C 0.14973 0.86793 0.68198 0.0
N182 N 0.10142 0.81933 0.55764 0.0
N183 N 0.13798 0.97264 0.78967 0.0
C184 C 0.11371 0.85768 0.59652 0.0
C185 C 0.13221 0.93648 0.71514 0.0
N186 N 0.0602 0.87938 0.45309 0.0
N187 N 0.19738 0.91825 0.79805 0.0
H188 H 0.1185 0.99469 0.78034 0.0
H189 H 0.1604 0.9797 0.86855 0.0
H190 H 0.21903 0.89823 0.81164 0.0
H191 H 0.20792 0.94719 0.82595 0.0
H192 H 0.05577 0.85225 0.39347 0.0
H193 H 0.0428 0.90068 0.41836 0.0
H194 H 0.07353 0.81036 0.50678 0.0
H195 H 0.11757 0.79641 0.5864 0.0
C196 C 0.37378 0.85294 0.78318 0.0
C197 C 0.3481 0.848 0.87009 0.0
C198 C 0.38636 0.90353 1.02296 0.0
C199 C 0.41013 0.91044 0.9325 0.0
N200 N 0.42095 0.89441 0.7162 0.0
N201 N 0.3275 0.87335 0.06809 0.0
C202 C 0.40235 0.88562 0.81011 0.0
C203 C 0.35363 0.87496 0.98802 0.0
N204 N 0.37107 0.82614 0.67367 0.0
N205 N 0.39659 0.92258 0.146 0.0
H206 H 0.30476 0.85208 0.04976 0.0
H207 H 0.32659 0.89464 0.14766 0.0
H208 H 0.42114 0.94161 0.17601 0.0
H209 H 0.3835 0.91655 0.22068 0.0
H210 H 0.39156 0.82462 0.61352 0.0
H211 H 0.34951 0.80366 0.64696 0.0
H212 H 0.41391 0.88073 0.62119 0.0
H213 H 0.44113 0.91797 0.73064 0.0
C214 C 0.3821 0.14358 0.0502 0.0
C215 C 0.3873 0.10899 0.10331 0.0
C216 C 0.33741 0.12837 0.2338 0.0
C217 C 0.32988 0.16143 0.17348 0.0
N218 N 0.33858 0.19455 1.00003 0.0
N219 N 0.36202 0.06345 0.21779 0.0
C220 C 0.35038 0.16736 0.07461 0.0
C221 C 0.36268 0.09994 0.18719 0.0
N222 N 0.40831 0.15474 0.98077 0.0
N223 N 0.32183 0.12472 0.33908 0.0
H224 H 0.37835 0.04116 0.1792 0.0
H225 H 0.34197 0.05403 0.26893 0.0
H226 H 0.30405 0.14527 0.37866 0.0
H227 H 0.32974 0.10339 0.39452 0.0
H228 H 0.40832 0.18181 0.95181 0.0
H229 H 0.43226 0.13859 0.96207 0.0
H230 H 0.34979 0.1972 0.91832 0.0
H231 H 0.31476 0.2117 1.01147 0.0
C232 C 0.87173 0.88757 0.48118 0.0
C233 C 0.90111 0.91151 0.56787 0.0
C234 C 0.88282 0.8869 0.74805 0.0
C235 C 0.85462 0.86155 0.66107 0.0
N236 N 0.82986 0.82921 0.44452 0.0
N237 N 0.94337 0.9246 0.77542 0.0
C238 C 0.85112 0.85934 0.52714 0.0
C239 C 0.90939 0.90844 0.69907 0.0
N240 N 0.8631 0.89228 0.35644 0.0
N241 N 0.88338 0.89154 0.87663 0.0
H242 H 0.96492 0.93896 0.74168 0.0
H243 H 0.95217 0.92002 0.86884 0.0
H244 H 0.86386 0.87654 0.91676 0.0
H245 H 0.90091 0.91293 0.94254 0.0
H246 H 0.839 0.87831 0.29249 0.0
H247 H 0.87845 0.91234 0.31933 0.0
H248 H 0.82938 0.82437 0.34643 0.0
H249 H 0.81626 0.80652 0.47519 0.0
C250 C 0.89872 0.10618 0.54822 0.0
C251 C 0.92956 0.09817 0.4785 0.0
C252 C 0.90166 0.14196 0.33328 0.0
C253 C 0.86852 0.1463 0.39428 0.0
N254 N 0.83161 0.12439 0.54085 0.0
N255 N 0.95486 0.1015 0.28539 0.0
C256 C 0.86599 0.12618 0.49676 0.0
C257 C 0.92957 0.11414 0.36562 0.0
N258 N 0.90111 0.0957 0.66557 0.0
N259 N 0.90768 0.16553 0.24863 0.0
H260 H 0.97505 0.08044 0.30254 0.0
H261 H 0.95302 0.10899 0.19519 0.0
H262 H 0.88895 0.18726 0.22512 0.0
H263 H 0.93345 0.16623 0.21192 0.0
H264 H 0.88126 0.10416 0.72585 0.0
H265 H 0.92513 0.08209 0.70834 0.0
H266 H 0.82699 0.10724 0.60765 0.0
H267 H 0.80627 0.13624 0.49931 0.0
C268 C 0.65372 0.13595 0.28119 0.0
C269 C 0.66178 0.15939 0.19104 0.0
C270 C 0.60518 0.12284 0.03676 0.0
C271 C 0.59923 0.09742 0.12364 0.0
N272 N 0.62254 0.07742 0.32485 0.0
N273 N 0.64764 0.17003 0.97379 0.0
C274 C 0.62516 0.10325 0.24421 0.0
C275 C 0.63792 0.15144 0.06656 0.0
N276 N 0.67157 0.14651 0.40563 0.0
N277 N 0.57923 0.1199 0.92467 0.0
H278 H 0.67118 0.19037 0.99059 0.0
H279 H 0.63475 0.16296 0.87788 0.0
H280 H 0.55667 0.09841 0.89649 0.0
H281 H 0.5784 0.14014 0.86361 0.0
H282 H 0.66465 0.13365 0.47971 0.0
H283 H 0.69042 0.17113 0.43677 0.0
H284 H 0.64311 0.07675 0.4069 0.0
H285 H 0.6012 0.05472 0.30475 0.0
C286 C 0.64968 0.83639 0.93709 0.0
C287 C 0.67009 0.84219 0.83782 0.0
C288 C 0.64141 0.90628 0.83668 0.0
C289 C 0.61709 0.89784 0.92255 0.0
N290 N 0.59249 0.85041 1.03279 0.0
N291 N 0.67946 0.88028 0.67704 0.0
C292 C 0.61972 0.86172 0.96716 0.0
C293 C 0.66442 0.87656 0.7833 0.0
N294 N 0.65981 0.80765 1.00684 0.0
N295 N 0.64382 0.94312 0.80968 0.0
H296 H 0.69553 0.8589 0.6327 0.0
H297 H 0.67267 0.90275 0.6255 0.0
H298 H 0.6288 0.96612 0.85089 0.0
H299 H 0.66392 0.95188 0.75758 0.0
H300 H 0.64875 0.80497 0.08882 0.0
H301 H 0.68245 0.78927 0.99196 0.0
H302 H 0.5908 0.82255 0.05535 0.0
H303 H 0.56898 0.86706 0.05265 0.0
C304 C 0.58774 0.60877 0.82431 0.0
C305 C 0.6017 0.61401 0.95794 0.0
C306 C 0.64615 0.66685 0.94529 0.0
C307 C 0.63805 0.65582 0.81041 0.0
N308 N 0.60186 0.61689 0.61851 0.0
N309 N 0.64367 0.64744 0.14858 0.0
C310 C 0.6087 0.62724 0.74853 0.0
C311 C 0.63041 0.64328 1.02 0.0
N312 N 0.55383 0.58728 0.77112 0.0
N313 N 0.66813 0.70021 1.00111 0.0
H314 H 0.63188 0.631 0.20653 0.0
H315 H 0.66789 0.66538 0.19625 0.0
H316 H 0.67997 0.71838 0.94848 0.0
H317 H 0.67139 0.7118 0.09798 0.0
H318 H 0.54025 0.58591 0.67646 0.0
H319 H 0.53713 0.57404 0.82494 0.0
H320 H 0.58384 0.59291 0.56947 0.0
H321 H 0.61609 0.631 0.56008 0.0
C322 C 0.6555 0.39455 0.12946 0.0
C323 C 0.64731 0.36917 0.21235 0.0
C324 C 0.58702 0.40308 0.2373 0.0
C325 C 0.59226 0.4244 0.13936 0.0
N326 N 0.62914 0.43497 0.97693 0.0
N327 N 0.60202 0.34541 0.33107 0.0
C328 C 0.62597 0.41878 0.08154 0.0
C329 C 0.61225 0.37246 0.26297 0.0
N330 N 0.69212 0.39678 0.10057 0.0
N331 N 0.55897 0.41297 0.30978 0.0
H332 H 0.61931 0.32227 0.35099 0.0
H333 H 0.5747 0.34384 0.35768 0.0
H334 H 0.54054 0.43581 0.29748 0.0
H335 H 0.55674 0.40127 0.39102 0.0
H336 H 0.70089 0.41743 0.05039 0.0
H337 H 0.71501 0.38098 0.13928 0.0
H338 H 0.65103 0.42835 0.92305 0.0
H339 H 0.60777 0.45186 0.93617 0.0
C340 C 0.9095 0.38224 0.51802 0.0
C341 C 0.90932 0.41246 0.44267 0.0
C342 C 0.84961 0.37759 0.3012 0.0
C343 C 0.84769 0.34946 0.38251 0.0
N344 N 0.87274 0.3317 0.58632 0.0
N345 N 0.87209 0.44183 0.27531 0.0
C346 C 0.87703 0.35358 0.4954 0.0
C347 C 0.87707 0.41107 0.339 0.0
N348 N 0.94057 0.38089 0.61365 0.0
N349 N 0.82685 0.37117 0.18258 0.0
H350 H 0.89116 0.46633 0.296 0.0
H351 H 0.84699 0.4446 0.20953 0.0
H352 H 0.80871 0.34619 0.14843 0.0
H353 H 0.82951 0.38796 0.11303 0.0
H354 H 0.94525 0.35714 0.66062 0.0
H355 H 0.96307 0.40242 0.64135 0.0
H356 H 0.89024 0.336 0.6766 0.0
H357 H 0.84904 0.31202 0.57713 0.0
C358 C 0.86868 0.6735 0.76299 0.0
C359 C 0.82983 0.6654 0.69401 0.0
C360 C 0.84971 0.60165 0.59316 0.0
C361 C 0.88941 0.61282 0.64691 0.0
N362 N 0.93744 0.66052 0.77684 0.0
N363 N 0.78363 0.62155 0.53621 0.0
C364 C 0.89911 0.64916 0.7296 0.0
C365 C 0.82021 0.62916 0.60863 0.0
N366 N 0.8761 0.70318 0.86585 0.0
N367 N 0.84004 0.5648 0.52578 0.0
H368 H 0.76028 0.63937 0.54519 0.0
H369 H 0.7768 0.59862 0.45936 0.0
H370 H 0.86061 0.54475 0.50208 0.0
H371 H 0.81143 0.55304 0.50024 0.0
H372 H 0.903 0.70828 0.9273 0.0
H373 H 0.85415 0.71987 0.89903 0.0
H374 H 0.94651 0.68865 0.82446 0.0
H375 H 0.9605 0.64259 0.76162 0.0
C376 C 0.3504 0.34344 0.0824 0.0
C377 C 0.35177 0.35155 0.21625 0.0
C378 C 0.40543 0.39917 0.2421 0.0
C379 C 0.39894 0.39621 0.10747 0.0
N380 N 0.36399 0.36802 0.89756 0.0
N381 N 0.37833 0.38802 0.42512 0.0
C382 C 0.37127 0.36884 1.02654 0.0
C383 C 0.37882 0.37951 0.29712 0.0
N384 N 0.33056 0.31067 1.00996 0.0
N385 N 0.43784 0.4193 0.31634 0.0
H386 H 0.35945 0.37349 0.46899 0.0
H387 H 0.39463 0.41135 0.48594 0.0
H388 H 0.45917 0.43252 0.27831 0.0
H389 H 0.44575 0.41935 0.41391 0.0
H390 H 0.33163 0.30162 0.91369 0.0
H391 H 0.31634 0.29024 0.04889 0.0
H392 H 0.34088 0.35149 0.83611 0.0
H393 H 0.37922 0.3861 0.85296 0.0
C394 C 0.42183 0.60429 0.84378 0.0
C395 C 0.41664 0.58359 0.94316 0.0
C396 C 0.35342 0.61362 0.95147 0.0
C397 C 0.36164 0.63846 0.86692 0.0
N398 N 0.40717 0.66153 0.74758 0.0
N399 N 0.37967 0.57373 0.10599 0.0
C400 C 0.39675 0.63486 0.81673 0.0
C401 C 0.38293 0.58956 1.00075 0.0
N402 N 0.4496 0.59369 0.77093 0.0
N403 N 0.3168 0.61167 0.98044 0.0
H404 H 0.40093 0.55677 0.1471 0.0
H405 H 0.35779 0.5806 0.1597 0.0
H406 H 0.29392 0.62725 0.9405 0.0
H407 H 0.30799 0.59141 1.03197 0.0
H408 H 0.45193 0.60502 0.68908 0.0
H409 H 0.46742 0.57045 0.78354 0.0
H410 H 0.43452 0.66275 0.72098 0.0
H411 H 0.39009 0.68474 0.72702 0.0
C412 C 0.16084 0.62767 0.75749 0.0
C413 C 0.16063 0.65885 0.68617 0.0
C414 C 0.09584 0.62953 0.56116 0.0
C415 C 0.09825 0.59632 0.62405 0.0
N416 N 0.13933 0.56147 0.76704 0.0
N417 N 0.13033 0.68229 0.49646 0.0
C418 C 0.13281 0.59467 0.71662 0.0
C419 C 0.12858 0.65783 0.58201 0.0
N420 N 0.18621 0.63054 0.8705 0.0
N421 N 0.06229 0.6342 0.47932 0.0
H422 H 0.15427 0.70136 0.50217 0.0
H423 H 0.11031 0.68048 0.41165 0.0
H424 H 0.03887 0.61363 0.45471 0.0
H425 H 0.05662 0.65979 0.44287 0.0
H426 H 0.18541 0.61118 0.93386 0.0
H427 H 0.20473 0.655 0.90833 0.0
H428 H 0.16576 0.55669 0.82331 0.0
H429 H 0.11984 0.53724 0.74359 0.0
C430 C 0.14412 0.35019 0.2495 0.0
C431 C 0.15839 0.32555 0.33793 0.0
C432 C 0.12275 0.3614 0.49559 0.0
C433 C 0.10862 0.38616 0.40749 0.0
N434 N 0.10209 0.4026 0.19716 0.0
N435 N 0.15629 0.30311 0.53607 0.0
C436 C 0.11811 0.37998 0.28309 0.0
C437 C 0.14615 0.32981 0.45822 0.0
N438 N 0.15553 0.3449 0.13318 0.0
N439 N 0.11417 0.36838 0.6161 0.0
H440 H 0.17543 0.2812 0.51671 0.0
H441 H 0.14436 0.30113 0.61678 0.0
H442 H 0.09433 0.38871 0.64428 0.0
H443 H 0.12795 0.35537 0.69084 0.0
H444 H 0.15048 0.36412 0.06881 0.0
H445 H 0.17093 0.32095 0.10109 0.0
H446 H 0.10441 0.39767 0.10119 0.0
H447 H 0.08482 0.42599 0.22047 0.0
C448 C 0.04918 0.02426 1.03236 0.0
C449 C 0.01328 0.02137 0.94353 0.0
C450 C 0.97831 1.00357 0.1079 0.0
C451 C 0.01417 0.00718 0.19735 0.0
N452 N 0.08246 0.02719 0.25187 0.0
N453 N 0.94304 0.01501 0.90284 0.0
C454 C 0.04921 0.01937 0.1614 0.0
C455 C 0.97769 0.01271 0.98303 0.0
N456 N 0.08355 0.0309 0.99256 0.0
N457 N 0.94466 0.99164 0.1426 0.0
H458 H 0.94158 0.02151 0.81146 0.0
H459 H 0.91571 0.01323 0.92881 0.0
H460 H 0.94282 0.98855 0.23571 0.0
H461 H 0.91871 0.98331 0.07852 0.0
H462 H 0.11105 0.02845 0.04616 0.0
H463 H 0.08476 0.03673 0.9019 0.0
H464 H 0.1079 0.04061 0.23742 0.0
H465 H 0.08385 0.02277 0.34556 0.0
C466 C 0.25707 0.78941 0.37292 0.0
C467 C 0.25926 0.75299 0.41683 0.0
C468 C 0.25609 0.71981 0.19247 0.0
C469 C 0.25068 0.75578 0.14699 0.0
N470 N 0.2426 0.82497 0.19545 0.0
N471 N 0.25523 0.6829 0.36479 0.0
C472 C 0.25016 0.79059 0.23801 0.0
C473 C 0.25717 0.71806 0.32522 0.0
N474 N 0.26282 0.82314 0.46069 0.0
N475 N 0.26129 0.68718 0.10873 0.0
H476 H 0.25613 0.68044 0.46015 0.0
H477 H 0.24931 0.65634 0.30264 0.0
H478 H 0.26088 0.68767 1.01247 0.0
H479 H 0.26931 0.66075 0.13591 0.0
H480 H 0.2664 0.85065 0.43752 0.0
H481 H 0.26649 0.8234 0.55868 0.0
H482 H 0.23692 0.85047 0.25365 0.0
H483 H 0.23998 0.82759 0.09963 0.0
C484 C 0.54001 0.00762 0.61934 0.0
C485 C 0.50347 0.00876 0.66234 0.0
C486 C 0.47012 0.00428 0.43678 0.0
C487 C 0.50635 0.99979 0.39249 0.0
N488 N 0.5759 0.99293 0.44358 0.0
N489 N 0.43326 1.00267 0.60851 0.0
C490 C 0.54129 1.00021 0.48467 0.0
C491 C 0.46844 0.00551 0.56971 0.0
N492 N 0.57375 0.01486 0.7076 0.0
N493 N 0.43716 0.00842 0.35178 0.0
H494 H 0.43084 0.00378 0.70394 0.0
H495 H 0.40677 0.99586 0.54585 0.0
H496 H 0.43742 0.00765 0.25515 0.0
H497 H 0.41047 0.01578 0.37809 0.0
H498 H 0.60116 0.01917 0.68443 0.0
H499 H 0.57403 0.01919 0.80565 0.0
H500 H 0.60155 0.98794 0.50331 0.0
H501 H 0.57852 0.98956 0.3477 0.0
C502 C 0.23809 0.2748 0.86601 0.0
C503 C 0.23679 0.2364 0.89512 0.0
C504 C 0.25254 0.21126 0.67978 0.0
C505 C 0.25044 0.24913 0.6467 0.0
N506 N 0.23692 0.3168 0.70659 0.0
N507 N 0.24097 0.16722 0.82291 0.0
C508 C 0.24237 0.28083 0.74009 0.0
C509 C 0.24307 0.20447 0.79924 0.0
N510 N 0.23523 0.30589 0.95902 0.0
N511 N 0.26656 0.18209 0.60101 0.0
H512 H 0.24038 0.1607 0.91318 0.0
H513 H 0.23861 0.1426 0.75179 0.0
H514 H 0.27511 0.18649 0.51668 0.0
H515 H 0.27312 0.1548 0.6239 0.0
H516 H 0.24115 0.33476 0.95187 0.0
H517 H 0.22979 0.30272 0.04835 0.0
H518 H 0.2267 0.34022 0.76318 0.0
H519 H 0.23863 0.32247 0.61598 0.0
C520 C 0.76355 0.21822 0.83611 0.0
C521 C 0.75985 0.25252 0.92583 0.0
C522 C 0.74959 0.28977 0.74603 0.0
C523 C 0.75108 0.25515 0.65572 0.0
N524 N 0.7572 0.1858 0.61451 0.0
N525 N 0.74452 0.32002 0.96258 0.0
C526 C 0.75764 0.21929 0.70123 0.0
C527 C 0.75144 0.28796 0.87923 0.0
N528 N 0.77318 0.18442 0.88013 0.0
N529 N 0.74788 0.32486 0.70487 0.0
H530 H 0.74666 0.31991 0.05979 0.0
H531 H 0.734 0.34564 0.93493 0.0
H532 H 0.74685 0.32733 0.60946 0.0
H533 H 0.75093 0.35175 0.7656 0.0
H534 H 0.7816 0.15973 0.82438 0.0
H535 H 0.77419 0.1814 0.97502 0.0
H536 H 0.75603 0.15791 0.63668 0.0
H537 H 0.75617 0.18595 0.51762 0.0
C538 C 0.73912 0.78607 0.32077 0.0
C539 C 0.74388 0.74898 0.3585 0.0
C540 C 0.75864 0.72262 0.14326 0.0
C541 C 0.75623 0.76022 0.10807 0.0
N542 N 0.7482 0.82913 0.17171 0.0
N543 N 0.76537 0.68376 0.31235 0.0
C544 C 0.74792 0.79231 0.19991 0.0
C545 C 0.75535 0.71775 0.27082 0.0
N546 N 0.72433 0.81508 0.39808 0.0
N547 N 0.7642 0.69124 0.05475 0.0
H548 H 0.76512 0.68016 0.40578 0.0
H549 H 0.77776 0.66094 0.25985 0.0
H550 H 0.76914 0.69386 0.96427 0.0
H551 H 0.76116 0.66243 0.0674 0.0
H552 H 0.71542 0.84132 0.37109 0.0
H553 H 0.71839 0.81176 0.487 0.0
H554 H 0.74821 0.85426 0.23939 0.0
H555 H 0.74999 0.83485 0.08121 0.0
C556 C 0.4666 0.50405 0.57366 0.0
C557 C 0.49926 0.49799 0.66794 0.0
C558 C 0.54263 0.50337 0.51052 0.0
C559 C 0.50998 0.50985 0.41682 0.0
N560 N 0.44157 0.52107 0.36563 0.0
N561 N 0.56789 0.48811 0.72122 0.0
C562 C 0.47211 0.51092 0.44997 0.0
C563 C 0.5372 0.49711 0.63508 0.0
N564 N 0.42984 0.50319 0.60247 0.0
N565 N 0.57922 0.50328 0.48003 0.0
H566 H 0.56504 0.48446 0.8128 0.0
H567 H 0.59574 0.48258 0.70209 0.0
H568 H 0.58406 0.50263 0.38717 0.0
H569 H 0.60505 0.50447 0.54588 0.0
H570 H 0.40425 0.50099 0.53491 0.0
H571 H 0.42464 0.50372 0.69486 0.0
H572 H 0.41406 0.52735 0.3868 0.0
H573 H 0.44439 0.52545 0.27469 0.0
C574 C 0.03819 0.52098 1.0024 0.0
C575 C 0.00905 0.50102 0.90111 0.0
C576 C 0.9723 0.48465 0.06472 0.0
C577 C 0.99978 0.50713 0.16525 0.0
N578 N 0.05702 0.55052 0.22673 0.0
N579 N 0.94533 0.46867 0.83718 0.0
C580 C 0.0323 0.52619 0.1329 0.0
C581 C 0.97517 0.4844 0.93307 0.0
N582 N 0.07196 0.53486 0.97374 0.0
N583 N 0.94426 0.46197 0.09578 0.0
H584 H 0.94651 0.46847 0.74142 0.0
H585 H 0.91824 0.4592 0.85235 0.0
H586 H 0.94315 0.46002 0.1903 0.0
H587 H 0.92514 0.44211 1.02947 0.0
H588 H 0.09661 0.54514 0.0418 0.0
H589 H 0.07583 0.53448 0.8801 0.0
H590 H 0.07836 0.56927 0.20946 0.0
H591 H 0.05467 0.55352 0.32258 0.0
loop_
_geom_bond_atom_site_label_1
_geom_bond_atom_site_label_2
_geom_bond_distance
_geom_bond_site_symmetry_2
_ccdc_geom_bond_type
Tb0 O3 2.453 . S
Tb0 O4 2.596 1_445 S
Tb0 O5 2.374 1_545 S
Tb0 O13 2.343 . S
Tb0 O15 2.353 1_455 S
Tb0 O17 2.427 . S
Tb0 O18 2.513 . S
C1 O5 1.251 . S
C1 O7 1.263 . S
Tb2 O4 2.343 . S
Tb2 O7 2.353 1_655 S
Tb2 O10 2.427 . S
Tb2 O11 2.513 . S
Tb2 O12 2.453 . S
Tb2 O13 2.596 1_665 S
Tb2 O14 2.374 1_565 S
O3 Tb0 2.453 . S
O3 C19 1.245 . S
O4 Tb0 2.596 1_665 S
O4 Tb2 2.343 . S
O4 C19 1.259 1_665 S
O5 Tb0 2.374 1_565 S
O5 C1 1.251 . S
C6 O10 1.275 . S
C6 O11 1.246 . S
O7 C1 1.263 . S
O7 Tb2 2.353 1_455 S
C8 O12 1.258 . S
C8 O13 1.256 1_665 S
C9 O14 1.250 . S
C9 O15 1.263 . S
O10 Tb2 2.427 . S
O10 C6 1.275 . S
O11 Tb2 2.513 . S
O11 C6 1.246 . S
O12 Tb2 2.453 . S
O12 C8 1.258 . S
O13 Tb0 2.343 . S
O13 Tb2 2.596 1_445 S
O13 C8 1.256 1_445 S
O14 Tb2 2.374 1_545 S
O14 C9 1.250 . S
O15 Tb0 2.353 1_655 S
O15 C9 1.263 . S
C16 O17 1.275 . S
C16 O18 1.246 . S
O17 Tb0 2.427 . S
O17 C16 1.275 . S
O18 Tb0 2.513 . S
O18 C16 1.246 . S
C19 O3 1.245 . S
C19 O4 1.259 1_445 S
Tb20 O23 2.453 . S
Tb20 O24 2.596 . S
Tb20 O25 2.374 . S
Tb20 O33 2.343 . S
Tb20 O35 2.353 . S
Tb20 O37 2.427 . S
Tb20 O38 2.513 . S
C21 O25 1.251 . S
C21 O27 1.263 . S
Tb22 O24 2.343 . S
Tb22 O27 2.353 . S
Tb22 O30 2.427 . S
Tb22 O31 2.513 . S
Tb22 O32 2.453 . S
Tb22 O33 2.596 . S
Tb22 O34 2.374 . S
O23 Tb20 2.453 . S
O23 C39 1.245 . S
O24 Tb20 2.596 . S
O24 Tb22 2.343 . S
O24 C39 1.259 . S
O25 Tb20 2.374 . S
O25 C21 1.251 . S
C26 O30 1.275 . S
C26 O31 1.246 . S
O27 C21 1.263 . S
O27 Tb22 2.353 . S
C28 O32 1.245 . S
C28 O33 1.259 . S
C29 O34 1.250 . S
C29 O35 1.263 . S
O30 Tb22 2.427 . S
O30 C26 1.275 . S
O31 Tb22 2.513 . S
O31 C26 1.246 . S
O32 Tb22 2.453 . S
O32 C28 1.245 . S
O33 Tb20 2.343 . S
O33 Tb22 2.596 . S
O33 C28 1.259 . S
O34 Tb22 2.374 . S
O34 C29 1.250 . S
O35 Tb20 2.353 . S
O35 C29 1.263 . S
C36 O37 1.275 . S
C36 O38 1.246 . S
O37 Tb20 2.427 . S
O37 C36 1.275 . S
O38 Tb20 2.513 . S
O38 C36 1.246 . S
C39 O23 1.245 . S
C39 O24 1.259 . S
Tb40 O43 2.453 . S
Tb40 O44 2.596 1_545 S
Tb40 O45 2.374 1_545 S
Tb40 O53 2.343 1_556 S
Tb40 O55 2.353 1_556 S
Tb40 O57 2.427 1_556 S
Tb40 O58 2.513 1_556 S
C41 O45 1.251 . S
C41 O47 1.263 . S
Tb42 O44 2.343 1_554 S
Tb42 O47 2.353 1_554 S
Tb42 O50 2.427 1_554 S
Tb42 O51 2.513 1_554 S
Tb42 O52 2.453 . S
Tb42 O53 2.596 1_565 S
Tb42 O54 2.374 1_565 S
O43 Tb40 2.453 . S
O43 C59 1.245 1_545 S
O44 Tb40 2.596 1_565 S
O44 Tb42 2.343 1_556 S
O44 C59 1.259 . S
O45 Tb40 2.374 1_565 S
O45 C41 1.251 . S
C46 O50 1.275 . S
C46 O51 1.246 . S
O47 C41 1.263 . S
O47 Tb42 2.353 1_556 S
C48 O52 1.245 1_545 S
C48 O53 1.259 . S
C49 O54 1.250 . S
C49 O55 1.263 . S
O50 Tb42 2.427 1_556 S
O50 C46 1.275 . S
O51 Tb42 2.513 1_556 S
O51 C46 1.246 . S
O52 Tb42 2.453 . S
O52 C48 1.245 1_565 S
O53 Tb40 2.343 1_554 S
O53 Tb42 2.596 1_545 S
O53 C48 1.259 . S
O54 Tb42 2.374 1_545 S
O54 C49 1.250 . S
O55 Tb40 2.353 1_554 S
O55 C49 1.263 . S
C56 O57 1.275 . S
C56 O58 1.246 . S
O57 Tb40 2.427 1_554 S
O57 C56 1.275 . S
O58 Tb40 2.513 1_554 S
O58 C56 1.246 . S
C59 O43 1.245 1_565 S
C59 O44 1.259 . S
Tb60 O63 2.453 1_554 S
Tb60 O64 2.596 . S
Tb60 O65 2.374 . S
Tb60 O73 2.343 . S
Tb60 O75 2.353 . S
Tb60 O77 2.427 . S
Tb60 O78 2.513 . S
C61 O65 1.251 . S
C61 O67 1.263 . S
Tb62 O64 2.343 . S
Tb62 O67 2.353 . S
Tb62 O70 2.427 . S
Tb62 O71 2.513 . S
Tb62 O72 2.453 . S
Tb62 O73 2.596 . S
Tb62 O74 2.374 . S
O63 Tb60 2.453 1_556 S
O63 C79 1.245 1_556 S
O64 Tb60 2.596 . S
O64 Tb62 2.343 . S
O64 C79 1.259 . S
O65 Tb60 2.374 . S
O65 C61 1.251 . S
C66 O70 1.275 . S
C66 O71 1.246 . S
O67 C61 1.263 . S
O67 Tb62 2.353 . S
C68 O72 1.245 . S
C68 O73 1.259 . S
C69 O74 1.250 . S
C69 O75 1.263 . S
O70 Tb62 2.427 . S
O70 C66 1.275 . S
O71 Tb62 2.513 . S
O71 C66 1.246 . S
O72 Tb62 2.453 . S
O72 C68 1.245 . S
O73 Tb60 2.343 . S
O73 Tb62 2.596 . S
O73 C68 1.259 . S
O74 Tb62 2.374 . S
O74 C69 1.250 . S
O75 Tb60 2.353 . S
O75 C69 1.263 . S
C76 O77 1.275 . S
C76 O78 1.246 . S
O77 Tb60 2.427 . S
O77 C76 1.275 . S
O78 Tb60 2.513 . S
O78 C76 1.246 . S
C79 O63 1.245 1_554 S
C79 O64 1.259 . S
Tb80 O83 2.453 . S
Tb80 O84 2.596 . S
Tb80 O85 2.374 . S
Tb80 O93 2.343 . S
Tb80 O95 2.353 . S
Tb80 O97 2.427 . S
Tb80 O98 2.513 . S
C81 O85 1.251 . S
C81 O87 1.263 . S
Tb82 O84 2.343 . S
Tb82 O87 2.353 . S
Tb82 O90 2.427 . S
Tb82 O91 2.513 . S
Tb82 O92 2.453 . S
Tb82 O93 2.596 . S
Tb82 O94 2.374 . S
O83 Tb80 2.453 . S
O83 C99 1.245 . S
O84 Tb80 2.596 . S
O84 Tb82 2.343 . S
O84 C99 1.259 . S
O85 Tb80 2.374 . S
O85 C81 1.251 . S
C86 O90 1.275 . S
C86 O91 1.246 . S
O87 C81 1.263 . S
O87 Tb82 2.353 . S
C88 O92 1.245 . S
C88 O93 1.259 . S
C89 O94 1.250 . S
C89 O95 1.263 . S
O90 Tb82 2.427 . S
O90 C86 1.275 . S
O91 Tb82 2.513 . S
O91 C86 1.246 . S
O92 Tb82 2.453 . S
O92 C88 1.245 . S
O93 Tb80 2.343 . S
O93 Tb82 2.596 . S
O93 C88 1.259 . S
O94 Tb82 2.374 . S
O94 C89 1.250 . S
O95 Tb80 2.353 . S
O95 C89 1.263 . S
C96 O97 1.275 . S
C96 O98 1.246 . S
O97 Tb80 2.427 . S
O97 C96 1.275 . S
O98 Tb80 2.513 . S
O98 C96 1.246 . S
C99 O83 1.245 . S
C99 O84 1.259 . S
Tb100 O103 2.453 . S
Tb100 O104 2.596 . S
Tb100 O105 2.374 . S
Tb100 O113 2.343 . S
Tb100 O115 2.353 . S
Tb100 O117 2.427 . S
Tb100 O118 2.513 . S
C101 O105 1.251 . S
C101 O107 1.263 . S
Tb102 O104 2.343 . S
Tb102 O107 2.353 . S
Tb102 O110 2.427 . S
Tb102 O111 2.513 . S
Tb102 O112 2.453 1_556 S
Tb102 O113 2.596 . S
Tb102 O114 2.374 . S
O103 Tb100 2.453 . S
O103 C119 1.245 . S
O104 Tb100 2.596 . S
O104 Tb102 2.343 . S
O104 C119 1.259 . S
O105 Tb100 2.374 . S
O105 C101 1.251 . S
C106 O110 1.275 . S
C106 O111 1.246 . S
O107 C101 1.263 . S
O107 Tb102 2.353 . S
C108 O112 1.245 1_556 S
C108 O113 1.259 . S
C109 O114 1.250 . S
C109 O115 1.263 . S
O110 Tb102 2.427 . S
O110 C106 1.275 . S
O111 Tb102 2.513 . S
O111 C106 1.246 . S
O112 Tb102 2.453 1_554 S
O112 C108 1.245 1_554 S
O113 Tb100 2.343 . S
O113 Tb102 2.596 . S
O113 C108 1.259 . S
O114 Tb102 2.374 . S
O114 C109 1.250 . S
O115 Tb100 2.353 . S
O115 C109 1.263 . S
C116 O117 1.275 . S
C116 O118 1.246 . S
O117 Tb100 2.427 . S
O117 C116 1.275 . S
O118 Tb100 2.513 . S
O118 C116 1.246 . S
C119 O103 1.245 . S
C119 O104 1.259 . S
Tb120 O123 2.453 . S
Tb120 O124 2.596 . S
Tb120 O125 2.374 . S
Tb120 O133 2.343 1_554 S
Tb120 O135 2.353 . S
Tb120 O137 2.427 1_554 S
Tb120 O138 2.513 1_554 S
C121 O125 1.251 . S
C121 O127 1.263 1_554 S
Tb122 O124 2.343 1_556 S
Tb122 O127 2.353 . S
Tb122 O130 2.427 1_556 S
Tb122 O131 2.513 1_556 S
Tb122 O132 2.453 . S
Tb122 O133 2.596 . S
Tb122 O134 2.374 . S
O123 Tb120 2.453 . S
O123 C139 1.245 . S
O124 Tb120 2.596 . S
O124 Tb122 2.343 1_554 S
O124 C139 1.259 . S
O125 Tb120 2.374 . S
O125 C121 1.251 . S
C126 O130 1.275 . S
C126 O131 1.246 . S
O127 C121 1.263 1_556 S
O127 Tb122 2.353 . S
C128 O132 1.245 . S
C128 O133 1.259 . S
C129 O134 1.250 . S
C129 O135 1.263 1_556 S
O130 Tb122 2.427 1_554 S
O130 C126 1.275 . S
O131 Tb122 2.513 1_554 S
O131 C126 1.246 . S
O132 Tb122 2.453 . S
O132 C128 1.245 . S
O133 Tb120 2.343 1_556 S
O133 Tb122 2.596 . S
O133 C128 1.259 . S
O134 Tb122 2.374 . S
O134 C129 1.250 . S
O135 Tb120 2.353 . S
O135 C129 1.263 1_554 S
C136 O137 1.275 . S
C136 O138 1.246 . S
O137 Tb120 2.427 1_556 S
O137 C136 1.275 . S
O138 Tb120 2.513 1_556 S
O138 C136 1.246 . S
C139 O123 1.245 . S
C139 O124 1.259 . S
Tb140 O143 2.453 . S
Tb140 O144 2.596 1_655 S
Tb140 O145 2.374 . S
Tb140 O153 2.343 . S
Tb140 O155 2.353 1_655 S
Tb140 O157 2.427 . S
Tb140 O158 2.513 . S
C141 O145 1.251 . S
C141 O147 1.263 . S
Tb142 O144 2.343 . S
Tb142 O147 2.353 1_455 S
Tb142 O150 2.427 . S
Tb142 O151 2.513 . S
Tb142 O152 2.453 . S
Tb142 O153 2.596 1_455 S
Tb142 O154 2.374 . S
O143 Tb140 2.453 . S
O143 C159 1.245 . S
O144 Tb140 2.596 1_455 S
O144 Tb142 2.343 . S
O144 C159 1.259 1_455 S
O145 Tb140 2.374 . S
O145 C141 1.251 . S
C146 O150 1.275 . S
C146 O151 1.246 . S
O147 C141 1.263 . S
O147 Tb142 2.353 1_655 S
C148 O152 1.245 . S
C148 O153 1.259 1_455 S
C149 O154 1.250 . S
C149 O155 1.263 . S
O150 Tb142 2.427 . S
O150 C146 1.275 . S
O151 Tb142 2.513 . S
O151 C146 1.246 . S
O152 Tb142 2.453 . S
O152 C148 1.245 . S
O153 Tb140 2.343 . S
O153 Tb142 2.596 1_655 S
O153 C148 1.259 1_655 S
O154 Tb142 2.374 . S
O154 C149 1.250 . S
O155 Tb140 2.353 1_455 S
O155 C149 1.263 . S
C156 O157 1.275 . S
C156 O158 1.246 . S
O157 Tb140 2.427 . S
O157 C156 1.275 . S
O158 Tb140 2.513 . S
O158 C156 1.246 . S
C159 O143 1.245 . S
C159 O144 1.259 1_655 S
C160 C161 1.363 . S
C160 C166 1.379 . S
C160 N168 1.356 . S
C161 C160 1.363 . S
C161 C167 1.363 . S
C162 C163 1.363 . S
C162 C167 1.379 . S
C162 N169 1.356 . S
C163 C162 1.363 . S
C163 C166 1.363 . S
N164 C166 1.356 . S
N164 H176 0.984 . S
N164 H177 0.985 . S
N165 C167 1.356 . S
N165 H170 0.984 . S
N165 H171 0.985 . S
C166 C160 1.379 . S
C166 C163 1.363 . S
C166 N164 1.356 . S
C167 C161 1.363 . S
C167 C162 1.379 . S
C167 N165 1.356 . S
N168 C160 1.356 . S
N168 H174 0.984 . S
N168 H175 0.984 . S
N169 C162 1.356 . S
N169 H172 0.984 . S
N169 H173 0.985 . S
H170 N165 0.984 . S
H171 N165 0.985 . S
H172 N169 0.984 . S
H173 N169 0.985 . S
H174 N168 0.984 . S
H175 N168 0.984 . S
H176 N164 0.984 . S
H177 N164 0.985 . S
C178 C179 1.363 . S
C178 C184 1.379 . S
C178 N186 1.356 . S
C179 C178 1.363 . S
C179 C185 1.363 . S
C180 C181 1.363 . S
C180 C185 1.379 . S
C180 N187 1.356 . S
C181 C180 1.363 . S
C181 C184 1.363 . S
N182 C184 1.356 . S
N182 H194 0.984 . S
N182 H195 0.985 . S
N183 C185 1.356 . S
N183 H188 0.984 . S
N183 H189 0.985 . S
C184 C178 1.379 . S
C184 C181 1.363 . S
C184 N182 1.356 . S
C185 C179 1.363 . S
C185 C180 1.379 . S
C185 N183 1.356 . S
N186 C178 1.356 . S
N186 H192 0.984 . S
N186 H193 0.984 . S
N187 C180 1.356 . S
N187 H190 0.984 . S
N187 H191 0.985 . S
H188 N183 0.984 . S
H189 N183 0.985 . S
H190 N187 0.984 . S
H191 N187 0.985 . S
H192 N186 0.984 . S
H193 N186 0.984 . S
H194 N182 0.984 . S
H195 N182 0.985 . S
C196 C197 1.363 . S
C196 C202 1.379 . S
C196 N204 1.356 . S
C197 C196 1.363 . S
C197 C203 1.363 . S
C198 C199 1.363 . S
C198 C203 1.379 . S
C198 N205 1.356 1_556 S
C199 C198 1.363 . S
C199 C202 1.363 . S
N200 C202 1.356 . S
N200 H212 0.984 . S
N200 H213 0.985 . S
N201 C203 1.356 1_554 S
N201 H206 0.984 1_554 S
N201 H207 0.985 . S
C202 C196 1.379 . S
C202 C199 1.363 . S
C202 N200 1.356 . S
C203 C197 1.363 . S
C203 C198 1.379 . S
C203 N201 1.356 1_556 S
N204 C196 1.356 . S
N204 H210 0.984 . S
N204 H211 0.984 . S
N205 C198 1.356 1_554 S
N205 H208 0.984 . S
N205 H209 0.985 . S
H206 N201 0.984 1_556 S
H207 N201 0.985 . S
H208 N205 0.984 . S
H209 N205 0.985 . S
H210 N204 0.984 . S
H211 N204 0.984 . S
H212 N200 0.984 . S
H213 N200 0.985 . S
C214 C215 1.363 . S
C214 C220 1.379 . S
C214 N222 1.356 . S
C215 C214 1.363 . S
C215 C221 1.363 . S
C216 C217 1.363 . S
C216 C221 1.379 . S
C216 N223 1.356 . S
C217 C216 1.363 . S
C217 C220 1.363 . S
N218 C220 1.356 . S
N218 H230 0.984 1_554 S
N218 H231 0.985 . S
N219 C221 1.356 . S
N219 H224 0.984 . S
N219 H225 0.985 . S
C220 C214 1.379 . S
C220 C217 1.363 . S
C220 N218 1.356 . S
C221 C215 1.363 . S
C221 C216 1.379 . S
C221 N219 1.356 . S
N222 C214 1.356 . S
N222 H228 0.984 1_554 S
N222 H229 0.984 . S
N223 C216 1.356 . S
N223 H226 0.984 . S
N223 H227 0.985 . S
H224 N219 0.984 . S
H225 N219 0.985 . S
H226 N223 0.984 . S
H227 N223 0.985 . S
H228 N222 0.984 1_556 S
H229 N222 0.984 . S
H230 N218 0.984 1_556 S
H231 N218 0.985 . S
C232 C233 1.363 . S
C232 C238 1.379 . S
C232 N240 1.356 . S
C233 C232 1.363 . S
C233 C239 1.363 . S
C234 C235 1.363 . S
C234 C239 1.379 . S
C234 N241 1.356 . S
C235 C234 1.363 . S
C235 C238 1.363 . S
N236 C238 1.356 . S
N236 H248 0.984 . S
N236 H249 0.985 . S
N237 C239 1.356 . S
N237 H242 0.984 . S
N237 H243 0.985 . S
C238 C232 1.379 . S
C238 C235 1.363 . S
C238 N236 1.356 . S
C239 C233 1.363 . S
C239 C234 1.379 . S
C239 N237 1.356 . S
N240 C232 1.356 . S
N240 H246 0.984 . S
N240 H247 0.984 . S
N241 C234 1.356 . S
N241 H244 0.984 . S
N241 H245 0.985 . S
H242 N237 0.984 . S
H243 N237 0.985 . S
H244 N241 0.984 . S
H245 N241 0.985 . S
H246 N240 0.984 . S
H247 N240 0.984 . S
H248 N236 0.984 . S
H249 N236 0.985 . S
C250 C251 1.363 . S
C250 C256 1.379 . S
C250 N258 1.356 . S
C251 C250 1.363 . S
C251 C257 1.363 . S
C252 C253 1.363 . S
C252 C257 1.379 . S
C252 N259 1.356 . S
C253 C252 1.363 . S
C253 C256 1.363 . S
N254 C256 1.356 . S
N254 H266 0.984 . S
N254 H267 0.985 . S
N255 C257 1.356 . S
N255 H260 0.984 . S
N255 H261 0.985 . S
C256 C250 1.379 . S
C256 C253 1.363 . S
C256 N254 1.356 . S
C257 C251 1.363 . S
C257 C252 1.379 . S
C257 N255 1.356 . S
N258 C250 1.356 . S
N258 H264 0.984 . S
N258 H265 0.984 . S
N259 C252 1.356 . S
N259 H262 0.984 . S
N259 H263 0.985 . S
H260 N255 0.984 . S
H261 N255 0.985 . S
H262 N259 0.984 . S
H263 N259 0.985 . S
H264 N258 0.984 . S
H265 N258 0.984 . S
H266 N254 0.984 . S
H267 N254 0.985 . S
C268 C269 1.363 . S
C268 C274 1.379 . S
C268 N276 1.356 . S
C269 C268 1.363 . S
C269 C275 1.363 . S
C270 C271 1.363 . S
C270 C275 1.379 . S
C270 N277 1.356 1_554 S
C271 C270 1.363 . S
C271 C274 1.363 . S
N272 C274 1.356 . S
N272 H284 0.984 . S
N272 H285 0.985 . S
N273 C275 1.356 1_556 S
N273 H278 0.984 1_556 S
N273 H279 0.985 . S
C274 C268 1.379 . S
C274 C271 1.363 . S
C274 N272 1.356 . S
C275 C269 1.363 . S
C275 C270 1.379 . S
C275 N273 1.356 1_554 S
N276 C268 1.356 . S
N276 H282 0.984 . S
N276 H283 0.984 . S
N277 C270 1.356 1_556 S
N277 H280 0.984 . S
N277 H281 0.985 . S
H278 N273 0.984 1_554 S
H279 N273 0.985 . S
H280 N277 0.984 . S
H281 N277 0.985 . S
H282 N276 0.984 . S
H283 N276 0.984 . S
H284 N272 0.984 . S
H285 N272 0.985 . S
C286 C287 1.363 . S
C286 C292 1.379 . S
C286 N294 1.356 . S
C287 C286 1.363 . S
C287 C293 1.363 . S
C288 C289 1.363 . S
C288 C293 1.379 . S
C288 N295 1.356 . S
C289 C288 1.363 . S
C289 C292 1.363 . S
N290 C292 1.356 . S
N290 H302 0.984 1_556 S
N290 H303 0.985 . S
N291 C293 1.356 . S
N291 H296 0.984 . S
N291 H297 0.985 . S
C292 C286 1.379 . S
C292 C289 1.363 . S
C292 N290 1.356 . S
C293 C287 1.363 . S
C293 C288 1.379 . S
C293 N291 1.356 . S
N294 C286 1.356 . S
N294 H300 0.984 1_556 S
N294 H301 0.984 . S
N295 C288 1.356 . S
N295 H298 0.984 . S
N295 H299 0.985 . S
H296 N291 0.984 . S
H297 N291 0.985 . S
H298 N295 0.984 . S
H299 N295 0.985 . S
H300 N294 0.984 1_554 S
H301 N294 0.984 . S
H302 N290 0.984 1_554 S
H303 N290 0.985 . S
C304 C305 1.363 . S
C304 C310 1.379 . S
C304 N312 1.356 . S
C305 C304 1.363 . S
C305 C311 1.363 . S
C306 C307 1.363 . S
C306 C311 1.379 . S
C306 N313 1.356 1_556 S
C307 C306 1.363 . S
C307 C310 1.363 . S
N308 C310 1.356 . S
N308 H320 0.984 . S
N308 H321 0.985 . S
N309 C311 1.356 1_554 S
N309 H314 0.984 1_554 S
N309 H315 0.985 . S
C310 C304 1.379 . S
C310 C307 1.363 . S
C310 N308 1.356 . S
C311 C305 1.363 . S
C311 C306 1.379 . S
C311 N309 1.356 1_556 S
N312 C304 1.356 . S
N312 H318 0.984 . S
N312 H319 0.984 . S
N313 C306 1.356 1_554 S
N313 H316 0.984 1_554 S
N313 H317 0.985 . S
H314 N309 0.984 1_556 S
H315 N309 0.985 . S
H316 N313 0.984 1_556 S
H317 N313 0.985 . S
H318 N312 0.984 . S
H319 N312 0.984 . S
H320 N308 0.984 . S
H321 N308 0.985 . S
C322 C323 1.363 1_556 S
C322 C328 1.379 . S
C322 N330 1.356 . S
C323 C322 1.363 1_554 S
C323 C329 1.363 . S
C324 C325 1.363 . S
C324 C329 1.379 . S
C324 N331 1.356 . S
C325 C324 1.363 . S
C325 C328 1.363 1_554 S
N326 C328 1.356 . S
N326 H338 0.984 . S
N326 H339 0.985 . S
N327 C329 1.356 . S
N327 H332 0.984 . S
N327 H333 0.985 . S
C328 C322 1.379 . S
C328 C325 1.363 1_556 S
C328 N326 1.356 . S
C329 C323 1.363 . S
C329 C324 1.379 . S
C329 N327 1.356 . S
N330 C322 1.356 . S
N330 H336 0.984 . S
N330 H337 0.984 . S
N331 C324 1.356 . S
N331 H334 0.984 . S
N331 H335 0.985 . S
H332 N327 0.984 . S
H333 N327 0.985 . S
H334 N331 0.984 . S
H335 N331 0.985 . S
H336 N330 0.984 . S
H337 N330 0.984 . S
H338 N326 0.984 . S
H339 N326 0.985 . S
C340 C341 1.363 . S
C340 C346 1.379 . S
C340 N348 1.356 . S
C341 C340 1.363 . S
C341 C347 1.363 . S
C342 C343 1.363 . S
C342 C347 1.379 . S
C342 N349 1.356 . S
C343 C342 1.363 . S
C343 C346 1.363 . S
N344 C346 1.356 . S
N344 H356 0.984 . S
N344 H357 0.985 . S
N345 C347 1.356 . S
N345 H350 0.984 . S
N345 H351 0.985 . S
C346 C340 1.379 . S
C346 C343 1.363 . S
C346 N344 1.356 . S
C347 C341 1.363 . S
C347 C342 1.379 . S
C347 N345 1.356 . S
N348 C340 1.356 . S
N348 H354 0.984 . S
N348 H355 0.984 . S
N349 C342 1.356 . S
N349 H352 0.984 . S
N349 H353 0.985 . S
H350 N345 0.984 . S
H351 N345 0.985 . S
H352 N349 0.984 . S
H353 N349 0.985 . S
H354 N348 0.984 . S
H355 N348 0.984 . S
H356 N344 0.984 . S
H357 N344 0.985 . S
C358 C359 1.363 . S
C358 C364 1.379 . S
C358 N366 1.356 . S
C359 C358 1.363 . S
C359 C365 1.363 . S
C360 C361 1.363 . S
C360 C365 1.379 . S
C360 N367 1.356 . S
C361 C360 1.363 . S
C361 C364 1.363 . S
N362 C364 1.356 . S
N362 H374 0.984 . S
N362 H375 0.985 . S
N363 C365 1.356 . S
N363 H368 0.984 . S
N363 H369 0.985 . S
C364 C358 1.379 . S
C364 C361 1.363 . S
C364 N362 1.356 . S
C365 C359 1.363 . S
C365 C360 1.379 . S
C365 N363 1.356 . S
N366 C358 1.356 . S
N366 H372 0.984 . S
N366 H373 0.984 . S
N367 C360 1.356 . S
N367 H370 0.984 . S
N367 H371 0.985 . S
H368 N363 0.984 . S
H369 N363 0.985 . S
H370 N367 0.984 . S
H371 N367 0.985 . S
H372 N366 0.984 . S
H373 N366 0.984 . S
H374 N362 0.984 . S
H375 N362 0.985 . S
C376 C377 1.363 . S
C376 C382 1.379 . S
C376 N384 1.356 1_554 S
C377 C376 1.363 . S
C377 C383 1.363 . S
C378 C379 1.363 . S
C378 C383 1.379 . S
C378 N385 1.356 . S
C379 C378 1.363 . S
C379 C382 1.363 . S
N380 C382 1.356 1_556 S
N380 H392 0.984 . S
N380 H393 0.985 1_556 S
N381 C383 1.356 . S
N381 H386 0.984 . S
N381 H387 0.985 . S
C382 C376 1.379 . S
C382 C379 1.363 . S
C382 N380 1.356 1_554 S
C383 C377 1.363 . S
C383 C378 1.379 . S
C383 N381 1.356 . S
N384 C376 1.356 1_556 S
N384 H390 0.984 . S
N384 H391 0.984 1_556 S
N385 C378 1.356 . S
N385 H388 0.984 . S
N385 H389 0.985 . S
H386 N381 0.984 . S
H387 N381 0.985 . S
H388 N385 0.984 . S
H389 N385 0.985 . S
H390 N384 0.984 . S
H391 N384 0.984 1_554 S
H392 N380 0.984 . S
H393 N380 0.985 1_554 S
C394 C395 1.363 . S
C394 C400 1.379 . S
C394 N402 1.356 . S
C395 C394 1.363 . S
C395 C401 1.363 1_556 S
C396 C397 1.363 1_554 S
C396 C401 1.379 . S
C396 N403 1.356 . S
C397 C396 1.363 1_556 S
C397 C400 1.363 . S
N398 C400 1.356 . S
N398 H410 0.984 . S
N398 H411 0.985 . S
N399 C401 1.356 . S
N399 H404 0.984 . S
N399 H405 0.985 . S
C400 C394 1.379 . S
C400 C397 1.363 . S
C400 N398 1.356 . S
C401 C395 1.363 1_554 S
C401 C396 1.379 . S
C401 N399 1.356 . S
N402 C394 1.356 . S
N402 H408 0.984 . S
N402 H409 0.984 . S
N403 C396 1.356 . S
N403 H406 0.984 . S
N403 H407 0.985 . S
H404 N399 0.984 . S
H405 N399 0.985 . S
H406 N403 0.984 . S
H407 N403 0.985 . S
H408 N402 0.984 . S
H409 N402 0.984 . S
H410 N398 0.984 . S
H411 N398 0.985 . S
C412 C413 1.363 . S
C412 C418 1.379 . S
C412 N420 1.356 . S
C413 C412 1.363 . S
C413 C419 1.363 . S
C414 C415 1.363 . S
C414 C419 1.379 . S
C414 N421 1.356 . S
C415 C414 1.363 . S
C415 C418 1.363 . S
N416 C418 1.356 . S
N416 H428 0.984 . S
N416 H429 0.985 . S
N417 C419 1.356 . S
N417 H422 0.984 . S
N417 H423 0.985 . S
C418 C412 1.379 . S
C418 C415 1.363 . S
C418 N416 1.356 . S
C419 C413 1.363 . S
C419 C414 1.379 . S
C419 N417 1.356 . S
N420 C412 1.356 . S
N420 H426 0.984 . S
N420 H427 0.984 . S
N421 C414 1.356 . S
N421 H424 0.984 . S
N421 H425 0.985 . S
H422 N417 0.984 . S
H423 N417 0.985 . S
H424 N421 0.984 . S
H425 N421 0.985 . S
H426 N420 0.984 . S
H427 N420 0.984 . S
H428 N416 0.984 . S
H429 N416 0.985 . S
C430 C431 1.363 . S
C430 C436 1.379 . S
C430 N438 1.356 . S
C431 C430 1.363 . S
C431 C437 1.363 . S
C432 C433 1.363 . S
C432 C437 1.379 . S
C432 N439 1.356 . S
C433 C432 1.363 . S
C433 C436 1.363 . S
N434 C436 1.356 . S
N434 H446 0.984 . S
N434 H447 0.985 . S
N435 C437 1.356 . S
N435 H440 0.984 . S
N435 H441 0.985 . S
C436 C430 1.379 . S
C436 C433 1.363 . S
C436 N434 1.356 . S
C437 C431 1.363 . S
C437 C432 1.379 . S
C437 N435 1.356 . S
N438 C430 1.356 . S
N438 H444 0.984 . S
N438 H445 0.984 . S
N439 C432 1.356 . S
N439 H442 0.984 . S
N439 H443 0.985 . S
H440 N435 0.984 . S
H441 N435 0.985 . S
H442 N439 0.984 . S
H443 N439 0.985 . S
H444 N438 0.984 . S
H445 N438 0.984 . S
H446 N434 0.984 . S
H447 N434 0.985 . S
C448 C449 1.363 1_445 S
C448 C454 1.379 1_556 S
C448 N456 1.356 . S
C449 C448 1.363 1_665 S
C449 C455 1.363 . S
C450 C451 1.363 1_665 S
C450 C455 1.379 1_554 S
C450 N457 1.356 . S
C451 C450 1.363 1_445 S
C451 C454 1.363 . S
N452 C454 1.356 . S
N452 H464 0.984 . S
N452 H465 0.985 . S
N453 C455 1.356 . S
N453 H458 0.984 . S
N453 H459 0.985 . S
C454 C448 1.379 1_554 S
C454 C451 1.363 . S
C454 N452 1.356 . S
C455 C449 1.363 . S
C455 C450 1.379 1_556 S
C455 N453 1.356 . S
N456 C448 1.356 . S
N456 H462 0.984 . S
N456 H463 0.984 . S
N457 C450 1.356 . S
N457 H460 0.984 . S
N457 H461 0.985 . S
H458 N453 0.984 . S
H459 N453 0.985 . S
H460 N457 0.984 . S
H461 N457 0.985 . S
H462 N456 0.984 . S
H463 N456 0.984 . S
H464 N452 0.984 . S
H465 N452 0.985 . S
C466 C467 1.363 . S
C466 C472 1.379 . S
C466 N474 1.356 . S
C467 C466 1.363 . S
C467 C473 1.363 . S
C468 C469 1.363 . S
C468 C473 1.379 . S
C468 N475 1.356 . S
C469 C468 1.363 . S
C469 C472 1.363 . S
N470 C472 1.356 . S
N470 H482 0.984 . S
N470 H483 0.985 . S
N471 C473 1.356 . S
N471 H476 0.984 . S
N471 H477 0.985 . S
C472 C466 1.379 . S
C472 C469 1.363 . S
C472 N470 1.356 . S
C473 C467 1.363 . S
C473 C468 1.379 . S
C473 N471 1.356 . S
N474 C466 1.356 . S
N474 H480 0.984 . S
N474 H481 0.984 . S
N475 C468 1.356 . S
N475 H478 0.984 . S
N475 H479 0.985 . S
H476 N471 0.984 . S
H477 N471 0.985 . S
H478 N475 0.984 . S
H479 N475 0.985 . S
H480 N474 0.984 . S
H481 N474 0.984 . S
H482 N470 0.984 . S
H483 N470 0.985 . S
C484 C485 1.363 . S
C484 C490 1.379 . S
C484 N492 1.356 . S
C485 C484 1.363 . S
C485 C491 1.363 1_565 S
C486 C487 1.363 . S
C486 C491 1.379 . S
C486 N493 1.356 . S
C487 C486 1.363 . S
C487 C490 1.363 1_545 S
N488 C490 1.356 . S
N488 H500 0.984 . S
N488 H501 0.985 . S
N489 C491 1.356 . S
N489 H494 0.984 . S
N489 H495 0.985 . S
C490 C484 1.379 . S
C490 C487 1.363 1_565 S
C490 N488 1.356 . S
C491 C485 1.363 1_545 S
C491 C486 1.379 . S
C491 N489 1.356 . S
N492 C484 1.356 . S
N492 H498 0.984 . S
N492 H499 0.984 . S
N493 C486 1.356 . S
N493 H496 0.984 . S
N493 H497 0.985 . S
H494 N489 0.984 . S
H495 N489 0.985 . S
H496 N493 0.984 . S
H497 N493 0.985 . S
H498 N492 0.984 . S
H499 N492 0.984 . S
H500 N488 0.984 . S
H501 N488 0.985 . S
C502 C503 1.363 . S
C502 C508 1.379 . S
C502 N510 1.356 . S
C503 C502 1.363 . S
C503 C509 1.363 . S
C504 C505 1.363 . S
C504 C509 1.379 . S
C504 N511 1.356 . S
C505 C504 1.363 . S
C505 C508 1.363 . S
N506 C508 1.356 . S
N506 H518 0.984 . S
N506 H519 0.985 . S
N507 C509 1.356 . S
N507 H512 0.984 . S
N507 H513 0.985 . S
C508 C502 1.379 . S
C508 C505 1.363 . S
C508 N506 1.356 . S
C509 C503 1.363 . S
C509 C504 1.379 . S
C509 N507 1.356 . S
N510 C502 1.356 . S
N510 H516 0.984 . S
N510 H517 0.984 . S
N511 C504 1.356 . S
N511 H514 0.984 . S
N511 H515 0.985 . S
H512 N507 0.984 . S
H513 N507 0.985 . S
H514 N511 0.984 . S
H515 N511 0.985 . S
H516 N510 0.984 . S
H517 N510 0.984 . S
H518 N506 0.984 . S
H519 N506 0.985 . S
C520 C521 1.363 . S
C520 C526 1.379 . S
C520 N528 1.356 . S
C521 C520 1.363 . S
C521 C527 1.363 . S
C522 C523 1.363 . S
C522 C527 1.379 . S
C522 N529 1.356 . S
C523 C522 1.363 . S
C523 C526 1.363 . S
N524 C526 1.356 . S
N524 H536 0.984 . S
N524 H537 0.985 . S
N525 C527 1.356 . S
N525 H530 0.984 . S
N525 H531 0.985 . S
C526 C520 1.379 . S
C526 C523 1.363 . S
C526 N524 1.356 . S
C527 C521 1.363 . S
C527 C522 1.379 . S
C527 N525 1.356 . S
N528 C520 1.356 . S
N528 H534 0.984 . S
N528 H535 0.984 . S
N529 C522 1.356 . S
N529 H532 0.984 . S
N529 H533 0.985 . S
H530 N525 0.984 . S
H531 N525 0.985 . S
H532 N529 0.984 . S
H533 N529 0.985 . S
H534 N528 0.984 . S
H535 N528 0.984 . S
H536 N524 0.984 . S
H537 N524 0.985 . S
C538 C539 1.363 . S
C538 C544 1.379 . S
C538 N546 1.356 . S
C539 C538 1.363 . S
C539 C545 1.363 . S
C540 C541 1.363 . S
C540 C545 1.379 . S
C540 N547 1.356 . S
C541 C540 1.363 . S
C541 C544 1.363 . S
N542 C544 1.356 . S
N542 H554 0.984 . S
N542 H555 0.985 . S
N543 C545 1.356 . S
N543 H548 0.984 . S
N543 H549 0.985 . S
C544 C538 1.379 . S
C544 C541 1.363 . S
C544 N542 1.356 . S
C545 C539 1.363 . S
C545 C540 1.379 . S
C545 N543 1.356 . S
N546 C538 1.356 . S
N546 H552 0.984 . S
N546 H553 0.984 . S
N547 C540 1.356 . S
N547 H550 0.984 . S
N547 H551 0.985 . S
H548 N543 0.984 . S
H549 N543 0.985 . S
H550 N547 0.984 . S
H551 N547 0.985 . S
H552 N546 0.984 . S
H553 N546 0.984 . S
H554 N542 0.984 . S
H555 N542 0.985 . S
C556 C557 1.363 . S
C556 C562 1.379 . S
C556 N564 1.356 . S
C557 C556 1.363 . S
C557 C563 1.363 . S
C558 C559 1.363 . S
C558 C563 1.379 . S
C558 N565 1.356 . S
C559 C558 1.363 . S
C559 C562 1.363 . S
N560 C562 1.356 . S
N560 H572 0.984 . S
N560 H573 0.985 . S
N561 C563 1.356 . S
N561 H566 0.984 . S
N561 H567 0.985 . S
C562 C556 1.379 . S
C562 C559 1.363 . S
C562 N560 1.356 . S
C563 C557 1.363 . S
C563 C558 1.379 . S
C563 N561 1.356 . S
N564 C556 1.356 . S
N564 H570 0.984 . S
N564 H571 0.984 . S
N565 C558 1.356 . S
N565 H568 0.984 . S
N565 H569 0.985 . S
H566 N561 0.984 . S
H567 N561 0.985 . S
H568 N565 0.984 . S
H569 N565 0.985 . S
H570 N564 0.984 . S
H571 N564 0.984 . S
H572 N560 0.984 . S
H573 N560 0.985 . S
C574 C575 1.363 1_455 S
C574 C580 1.379 1_556 S
C574 N582 1.356 . S
C575 C574 1.363 1_655 S
C575 C581 1.363 . S
C576 C577 1.363 1_655 S
C576 C581 1.379 1_554 S
C576 N583 1.356 . S
C577 C576 1.363 1_455 S
C577 C580 1.363 . S
N578 C580 1.356 . S
N578 H590 0.984 . S
N578 H591 0.985 . S
N579 C581 1.356 . S
N579 H584 0.984 . S
N579 H585 0.985 . S
C580 C574 1.379 1_554 S
C580 C577 1.363 . S
C580 N578 1.356 . S
C581 C575 1.363 . S
C581 C576 1.379 1_556 S
C581 N579 1.356 . S
N582 C574 1.356 . S
N582 H588 0.984 . S
N582 H589 0.984 . S
N583 C576 1.356 . S
N583 H586 0.984 . S
N583 H587 0.985 . S
H584 N579 0.984 . S
H585 N579 0.985 . S
H586 N583 0.984 . S
H587 N583 0.985 . S
H588 N582 0.984 . S
H589 N582 0.984 . S
H590 N578 0.984 . S
H591 N578 0.985 . S
C161 C16 1.144 . S
C163 C76 1.143 . S
C179 C1 1.555 . S
C181 C36 1.486 . S
C197 C21 1.923 . S
C199 C41 1.923 . S
C215 C56 1.486 . S
C217 C61 1.555 . S
C233 C6 1.144 . S
C235 C106 1.144 . S
C251 C9 1.555 . S
C253 C86 1.486 . S
C269 C89 1.923 . S
C271 C49 1.923 . S
C287 C109 1.555 . S
C289 C46 1.487 . S
C305 C136 1.144 . S
C307 C116 1.144 . S
C323 C96 1.486 . S
C325 C121 1.555 . S
C341 C141 1.923 . S
C343 C81 1.923 . S
C359 C101 1.555 . S
C361 C156 1.486 . S
C377 C66 1.144 . S
C379 C126 1.143 . S
C395 C129 1.555 . S
C397 C26 1.487 . S
C413 C29 1.923 . S
C415 C149 1.923 . S
C431 C69 1.555 . S
C433 C146 1.486 . S
C449 C19 1.798 1_665 S
C451 C8 1.792 1_445 S
C467 C28 1.828 . S
C469 C39 1.828 1_554 S
C485 C59 1.828 . S
C487 C48 1.828 . S
C503 C79 1.798 1_556 S
C505 C68 1.798 . S
C521 C88 1.828 1_556 S
C523 C99 1.828 . S
C539 C119 1.798 . S
C541 C108 1.798 1_554 S
C557 C128 1.798 . S
C559 C139 1.798 . S
C575 C148 1.828 1_655 S
C577 C159 1.828 1_455 S
