# Generated by pormake.
# Topology umo, (4)-cn, num edge types: 1
# Building blocks:
#     Node 0, Type 0, BuildingBlock: MUDLON_clean_sbu_0, # of connection points: 4
#     Node 1, Type 0, BuildingBlock: MUDLON_clean_sbu_0, # of connection points: 4
#     Node 2, Type 0, BuildingBlock: MUDLON_clean_sbu_0, # of connection points: 4
#     Node 3, Type 0, BuildingBlock: MUDLON_clean_sbu_0, # of connection points: 4
#     Node 4, Type 0, BuildingBlock: MUDLON_clean_sbu_0, # of connection points: 4
#     Node 5, Type 0, BuildingBlock: MUDLON_clean_sbu_0, # of connection points: 4
#     Node 6, Type 0, BuildingBlock: MUDLON_clean_sbu_0, # of connection points: 4
#     Node 7, Type 0, BuildingBlock: MUDLON_clean_sbu_0, # of connection points: 4
#     Node 8, Type 0, BuildingBlock: MUDLON_clean_sbu_0, # of connection points: 4
#     Node 9, Type 0, BuildingBlock: MUDLON_clean_sbu_0, # of connection points: 4
#     Node 10, Type 0, BuildingBlock: MUDLON_clean_sbu_0, # of connection points: 4
#     Node 11, Type 0, BuildingBlock: MUDLON_clean_sbu_0, # of connection points: 4
#     Edge 12, Type (0, 0), BuildingBlock: OJICUG_clean_linker_0, # of connection points: 2
#     Edge 13, Type (0, 0), BuildingBlock: OJICUG_clean_linker_0, # of connection points: 2
#     Edge 14, Type (0, 0), BuildingBlock: OJICUG_clean_linker_0, # of connection points: 2
#     Edge 15, Type (0, 0), BuildingBlock: OJICUG_clean_linker_0, # of connection points: 2
#     Edge 16, Type (0, 0), BuildingBlock: OJICUG_clean_linker_0, # of connection points: 2
#     Edge 17, Type (0, 0), BuildingBlock: OJICUG_clean_linker_0, # of connection points: 2
#     Edge 18, Type (0, 0), BuildingBlock: OJICUG_clean_linker_0, # of connection points: 2
#     Edge 19, Type (0, 0), BuildingBlock: OJICUG_clean_linker_0, # of connection points: 2
#     Edge 20, Type (0, 0), BuildingBlock: OJICUG_clean_linker_0, # of connection points: 2
#     Edge 21, Type (0, 0), BuildingBlock: OJICUG_clean_linker_0, # of connection points: 2
#     Edge 22, Type (0, 0), BuildingBlock: OJICUG_clean_linker_0, # of connection points: 2
#     Edge 23, Type (0, 0), BuildingBlock: OJICUG_clean_linker_0, # of connection points: 2
#     Edge 24, Type (0, 0), BuildingBlock: OJICUG_clean_linker_0, # of connection points: 2
#     Edge 25, Type (0, 0), BuildingBlock: OJICUG_clean_linker_0, # of connection points: 2
#     Edge 26, Type (0, 0), BuildingBlock: OJICUG_clean_linker_0, # of connection points: 2
#     Edge 27, Type (0, 0), BuildingBlock: OJICUG_clean_linker_0, # of connection points: 2
#     Edge 28, Type (0, 0), BuildingBlock: OJICUG_clean_linker_0, # of connection points: 2
#     Edge 29, Type (0, 0), BuildingBlock: OJICUG_clean_linker_0, # of connection points: 2
#     Edge 30, Type (0, 0), BuildingBlock: OJICUG_clean_linker_0, # of connection points: 2
#     Edge 31, Type (0, 0), BuildingBlock: OJICUG_clean_linker_0, # of connection points: 2
#     Edge 32, Type (0, 0), BuildingBlock: OJICUG_clean_linker_0, # of connection points: 2
#     Edge 33, Type (0, 0), BuildingBlock: OJICUG_clean_linker_0, # of connection points: 2
#     Edge 34, Type (0, 0), BuildingBlock: OJICUG_clean_linker_0, # of connection points: 2
#     Edge 35, Type (0, 0), BuildingBlock: OJICUG_clean_linker_0, # of connection points: 2
# Relax obj value: 0.142
# Max RMSD: 0.180
# Mean RMSD: 0.180
data_MOF--net-umo--node1-MUDLON_clean_sbu_0--edge1-OJICUG_clean_linker_0
_symmetry_space_group_name_H-M    P1
_symmetry_Int_Tables_number       1
_symmetry_cell_setting            triclinic
loop_
_symmetry_equiv_pos_as_xyz
'x, y, z'
_cell_length_a     37.556199
_cell_length_b     37.598228
_cell_length_c     28.867997
_cell_angle_alpha  90.094047
_cell_angle_beta   90.008481
_cell_angle_gamma 120.07714
loop_
_atom_site_label
_atom_site_type_symbol
_atom_site_fract_x
_atom_site_fract_y
_atom_site_fract_z
_atom_type_partial_charge
Mg0 Mg 0.1596 0.55581 0.40697 0.0
C1 C 0.14101 0.56992 0.5027 0.0
O2 O 0.1351 0.59578 0.47788 0.0
C3 C 0.19698 0.53562 0.32718 0.0
O4 O 0.17114 0.54442 0.3066 0.0
C5 C 0.06789 0.51287 0.39617 0.0
O6 O 0.07035 0.51017 0.44126 0.0
O7 O 0.10074 0.53094 0.37248 0.0
O8 O 0.15024 0.54561 0.48192 0.0
O9 O 0.19464 0.62199 0.40322 0.0
C10 C 0.22239 0.63607 0.43423 0.0
O11 O 0.22723 0.61011 0.46016 0.0
O12 O 0.19795 0.53562 0.37134 0.0
Mg13 Mg 0.61096 0.15857 0.5827 0.0
C14 C 0.58376 0.12687 0.67896 0.0
O15 O 0.56356 0.09301 0.65449 0.0
C16 C 0.6681 0.19352 0.50272 0.0
O17 O 0.63403 0.16487 0.48335 0.0
C18 C 0.54302 0.07725 0.54889 0.0
O19 O 0.5221 0.09625 0.55535 0.0
O20 O 0.58143 0.09626 0.55701 0.0
O21 O 0.61006 0.15962 0.65855 0.0
O22 O 0.57531 0.18685 0.56488 0.0
C23 C 0.54894 0.18659 0.59267 0.0
O24 O 0.5376 0.16227 0.62889 0.0
O25 O 0.66921 0.19719 0.5467 0.0
Mg26 Mg 0.43411 0.60885 0.74096 0.0
C27 C 0.41621 0.58024 0.8389 0.0
O28 O 0.3894 0.54793 0.81548 0.0
C29 C 0.46217 0.66483 0.65917 0.0
O30 O 0.45158 0.62902 0.64035 0.0
C31 C 0.47142 0.55395 0.73571 0.0
O32 O 0.47185 0.55766 0.78098 0.0
O33 O 0.45671 0.57141 0.71094 0.0
O34 O 0.44153 0.61238 0.81663 0.0
O35 O 0.36901 0.58251 0.72995 0.0
C36 C 0.3399 0.54537 0.73068 0.0
O37 O 0.34786 0.5153 0.73531 0.0
O38 O 0.46044 0.66703 0.70313 0.0
Mg39 Mg 0.82186 0.43152 0.90719 0.0
C40 C 0.83589 0.41533 1.00445 0.0
O41 O 0.8396 0.38747 0.98082 0.0
C42 C 0.78427 0.45138 0.82727 0.0
O43 O 0.80996 0.44238 0.80665 0.0
C44 C 0.91349 0.46569 0.89546 0.0
O45 O 0.91097 0.45721 0.93983 0.0
O46 O 0.88102 0.45738 0.87318 0.0
O47 O 0.83001 0.44139 0.98243 0.0
O48 O 0.78662 0.36538 0.90241 0.0
C49 C 0.75738 0.35198 0.93151 0.0
O50 O 0.75185 0.37852 0.95558 0.0
O51 O 0.7835 0.45164 0.87144 0.0
Mg52 Mg 0.37068 0.82767 0.08089 0.0
C53 C 0.39732 0.85966 0.17732 0.0
O54 O 0.41753 0.89352 0.15301 0.0
C55 C 0.31334 0.79232 1.00087 0.0
O56 O 0.34731 0.82096 0.98145 0.0
C57 C 0.43873 0.90922 0.04775 0.0
O58 O 0.45982 0.89045 0.05458 0.0
O59 O 0.40023 0.88995 0.05529 0.0
O60 O 0.37123 0.82685 0.15671 0.0
O61 O 0.40626 0.79913 0.0637 0.0
C62 C 0.43225 0.79922 0.09198 0.0
O63 O 0.4437 0.82393 0.12797 0.0
O64 O 0.31239 0.78883 0.04485 0.0
Mg65 Mg 0.54051 0.37328 0.24734 0.0
C66 C 0.55028 0.40359 0.34229 0.0
O67 O 0.57481 0.43585 0.3173 0.0
C68 C 0.51531 0.31971 0.1626 0.0
O69 O 0.52661 0.35594 0.14466 0.0
C70 C 0.50015 0.4235 0.23566 0.0
O71 O 0.48412 0.40521 0.27519 0.0
O72 O 0.52582 0.41621 0.21534 0.0
O73 O 0.52728 0.36958 0.32157 0.0
O74 O 0.60546 0.39615 0.2515 0.0
C75 C 0.63566 0.43266 0.24969 0.0
O76 O 0.63017 0.46306 0.23685 0.0
O77 O 0.51559 0.31651 0.20657 0.0
Mg78 Mg 0.44946 0.8268 0.45936 0.0
C79 C 0.45503 0.85935 0.36349 0.0
O80 O 0.4677 0.89278 0.38847 0.0
C81 C 0.47173 0.79294 0.53998 0.0
O82 O 0.46518 0.821 0.55881 0.0
C83 C 0.45995 0.90665 0.49418 0.0
O84 O 0.41996 0.88648 0.4876 0.0
O85 O 0.48045 0.88888 0.4858 0.0
O86 O 0.44888 0.82658 0.38352 0.0
O87 O 0.38504 0.79671 0.47579 0.0
C88 C 0.35886 0.7964 0.44763 0.0
O89 O 0.3718 0.82063 0.41133 0.0
O90 O 0.46993 0.78929 0.49598 0.0
Mg91 Mg 0.59629 0.42837 0.63701 0.0
C92 C 0.5624 0.41653 0.54226 0.0
O93 O 0.53038 0.39213 0.56778 0.0
C94 C 0.655 0.45057 0.71667 0.0
O95 O 0.62105 0.44359 0.73766 0.0
C96 C 0.55346 0.47641 0.64916 0.0
O97 O 0.56615 0.4858 0.60619 0.0
O98 O 0.56178 0.45242 0.67155 0.0
O99 O 0.59686 0.43932 0.56231 0.0
O100 O 0.5643 0.36212 0.63967 0.0
C101 C 0.57607 0.34756 0.60722 0.0
O102 O 0.60629 0.37307 0.58025 0.0
O103 O 0.65501 0.44859 0.67256 0.0
Mg104 Mg 0.16332 0.60928 0.79803 0.0
C105 C 0.1415 0.57999 0.70287 0.0
O106 O 0.1328 0.54719 0.72728 0.0
C107 C 0.1931 0.66325 0.88268 0.0
O108 O 0.16851 0.62715 0.90118 0.0
C109 C 0.07275 0.56131 0.81018 0.0
O110 O 0.07589 0.58163 0.77199 0.0
O111 O 0.10531 0.5665 0.82979 0.0
O112 O 0.15359 0.61393 0.72414 0.0
O113 O 0.20511 0.58618 0.79241 0.0
C114 C 0.19858 0.5496 0.79242 0.0
O115 O 0.16248 0.51883 0.80438 0.0
O116 O 0.19584 0.66608 0.83866 0.0
Mg117 Mg 0.53123 0.16002 0.96086 0.0
C118 C 0.52548 0.12734 0.86481 0.0
O119 O 0.5127 0.09388 0.88963 0.0
C120 C 0.50785 0.19314 0.04161 0.0
O121 O 0.51395 0.1648 0.06032 0.0
C122 C 0.52133 0.08018 0.99503 0.0
O123 O 0.56131 0.10049 0.98843 0.0
O124 O 0.50071 0.09788 0.98702 0.0
O125 O 0.53168 0.16013 0.88498 0.0
O126 O 0.59577 0.19076 0.97699 0.0
C127 C 0.62188 0.19118 0.94864 0.0
O128 O 0.60885 0.16642 0.91268 0.0
O129 O 0.51036 0.19724 0.99768 0.0
Mg130 Mg 0.38412 0.55713 0.13661 0.0
C131 C 0.41422 0.57154 0.03929 0.0
O132 O 0.44675 0.59821 0.06274 0.0
C133 C 0.32587 0.53595 0.2164 0.0
O134 O 0.35978 0.54269 0.23731 0.0
C135 C 0.43801 0.51908 0.14792 0.0
O136 O 0.44149 0.52451 0.10289 0.0
O137 O 0.41656 0.53053 0.17071 0.0
O138 O 0.38172 0.54677 0.06151 0.0
O139 O 0.41688 0.62336 0.14078 0.0
C140 C 0.40255 0.63759 0.11084 0.0
O141 O 0.37029 0.61179 0.08639 0.0
O142 O 0.32572 0.53782 0.17229 0.0
Mg143 Mg 0.81629 0.378 0.30228 0.0
C144 C 0.83319 0.40782 0.2049 0.0
O145 O 0.84487 0.44167 0.22866 0.0
C146 C 0.7876 0.32264 0.38475 0.0
O147 O 0.81182 0.35877 0.40356 0.0
C148 C 0.90855 0.4273 0.3088 0.0
O149 O 0.90525 0.41435 0.26589 0.0
O150 O 0.87618 0.41713 0.33213 0.0
O151 O 0.82056 0.37417 0.22682 0.0
O152 O 0.7766 0.40335 0.31155 0.0
C153 C 0.78384 0.44007 0.30799 0.0
O154 O 0.82151 0.4704 0.30128 0.0
O155 O 0.78472 0.32007 0.3407 0.0
C156 C 0.25978 0.70795 0.4038 0.0
C157 C 0.25029 0.68034 0.44062 0.0
H158 H 0.30207 0.7677 0.37741 0.0
C159 C 0.27113 0.69454 0.48294 0.0
H160 H 0.24372 0.69774 0.37102 0.0
C161 C 0.30402 0.73446 0.48686 0.0
C162 C 0.31689 0.76068 0.44833 0.0
H163 H 0.26356 0.67407 0.5123 0.0
H164 H 0.32133 0.74363 0.51895 0.0
C165 C 0.29304 0.74802 0.40761 0.0
C166 C 0.53267 0.23531 0.63342 0.0
C167 C 0.5428 0.2223 0.59227 0.0
H168 H 0.53553 0.28609 0.67066 0.0
C169 C 0.55582 0.24842 0.55365 0.0
H170 H 0.52228 0.21571 0.6637 0.0
C171 C 0.56378 0.28859 0.55787 0.0
C172 C 0.55845 0.30315 0.6006 0.0
H173 H 0.56315 0.23896 0.52125 0.0
H174 H 0.57652 0.30897 0.5284 0.0
C175 C 0.54046 0.27564 0.63756 0.0
C176 C 0.25534 0.56968 0.73666 0.0
C177 C 0.23002 0.54242 0.77113 0.0
H178 H 0.3093 0.59069 0.69547 0.0
C179 C 0.23666 0.51059 0.78564 0.0
H180 H 0.25013 0.59374 0.72372 0.0
C181 C 0.27082 0.50872 0.76905 0.0
C182 C 0.29815 0.53852 0.73766 0.0
H183 H 0.21713 0.48892 0.81175 0.0
H184 H 0.27749 0.48608 0.78336 0.0
C185 C 0.28895 0.56767 0.72003 0.0
C186 C 0.70872 0.29472 0.98131 0.0
C187 C 0.72954 0.30787 0.93893 0.0
H188 H 0.65895 0.24632 1.01834 0.0
C189 C 0.72031 0.27932 0.90309 0.0
H190 H 0.71611 0.31598 1.00995 0.0
C191 C 0.68734 0.2392 0.90785 0.0
C192 C 0.66357 0.22741 0.94859 0.0
H193 H 0.73639 0.28877 0.87029 0.0
H194 H 0.67851 0.21867 0.87833 0.0
C195 C 0.67618 0.25475 0.98623 0.0
C196 C 0.42326 0.73575 0.05473 0.0
C197 C 0.43753 0.76296 0.09251 0.0
H198 H 0.40092 0.67428 0.03133 0.0
C199 C 0.44817 0.75073 0.13387 0.0
H200 H 0.41552 0.74452 0.02217 0.0
C201 C 0.43978 0.71027 0.13909 0.0
C202 C 0.4206 0.68187 0.10306 0.0
H203 H 0.4595 0.77115 0.16351 0.0
H204 H 0.44517 0.7005 0.17235 0.0
C205 C 0.4146 0.69545 0.06009 0.0
C206 C 0.74963 0.47491 0.26959 0.0
C207 C 0.74821 0.44576 0.30118 0.0
H208 H 0.71435 0.49356 0.2278 0.0
C209 C 0.7103 0.41644 0.31986 0.0
H210 H 0.77858 0.49772 0.25454 0.0
C211 C 0.6741 0.41372 0.30419 0.0
C212 C 0.67496 0.44039 0.26965 0.0
H213 H 0.70841 0.39395 0.34467 0.0
H214 H 0.6452 0.38961 0.31805 0.0
C215 C 0.71301 0.47231 0.25397 0.0
C216 C 0.13797 0.54274 0.6296 0.0
C217 C 0.14006 0.57721 0.65165 0.0
H218 H 0.137 0.51349 0.5654 0.0
C219 C 0.14177 0.60881 0.62428 0.0
H220 H 0.13688 0.51791 0.64968 0.0
C221 C 0.14134 0.60596 0.57591 0.0
C222 C 0.13984 0.57174 0.5539 0.0
H223 H 0.14342 0.63571 0.6402 0.0
H224 H 0.1429 0.63098 0.55577 0.0
C225 C 0.13817 0.54018 0.58128 0.0
C226 C 0.54416 0.09072 0.74996 0.0
C227 C 0.57058 0.12778 0.72722 0.0
H228 H 0.50886 0.0616 0.81055 0.0
C229 C 0.58112 0.16509 0.74957 0.0
H230 H 0.53516 0.06142 0.73369 0.0
C231 C 0.56544 0.16518 0.79369 0.0
C232 C 0.53917 0.12798 0.81642 0.0
H233 H 0.60097 0.19419 0.73275 0.0
H234 H 0.57446 0.19436 0.81026 0.0
C235 C 0.5288 0.09082 0.79399 0.0
C236 C 0.38281 0.54251 0.96169 0.0
C237 C 0.41501 0.57315 0.98799 0.0
H238 H 0.3581 0.52073 0.89414 0.0
C239 C 0.44784 0.60637 0.96483 0.0
H240 H 0.35708 0.51663 0.97843 0.0
C241 C 0.44832 0.60902 0.91646 0.0
C242 C 0.41617 0.57829 0.89017 0.0
H243 H 0.47308 0.6307 0.98408 0.0
H244 H 0.47392 0.63501 0.8997 0.0
C245 C 0.38349 0.54494 0.91334 0.0
C246 C 0.83883 0.44477 0.13075 0.0
C247 C 0.83409 0.40956 0.15361 0.0
H248 H 0.8428 0.47419 0.0658 0.0
C249 C 0.83014 0.37653 0.12701 0.0
H250 H 0.84174 0.47074 0.15025 0.0
C251 C 0.83124 0.3788 0.07861 0.0
C252 C 0.83574 0.4139 0.05574 0.0
H253 H 0.82647 0.34905 0.14354 0.0
H254 H 0.82807 0.35272 0.05911 0.0
C255 C 0.83936 0.4468 0.08234 0.0
C256 C 0.43647 0.89589 0.24869 0.0
C257 C 0.41031 0.85881 0.22567 0.0
H258 H 0.47144 0.92507 0.30958 0.0
C259 C 0.39986 0.82153 0.24786 0.0
H260 H 0.44538 0.92517 0.23255 0.0
C261 C 0.4154 0.82147 0.29207 0.0
C262 C 0.44144 0.8587 0.31506 0.0
H263 H 0.38021 0.79241 0.23083 0.0
H264 H 0.40649 0.79231 0.30849 0.0
C265 C 0.45169 0.89584 0.29281 0.0
C266 C 0.52178 0.37668 0.42154 0.0
C267 C 0.55231 0.40707 0.39348 0.0
H268 H 0.50081 0.3562 0.49055 0.0
C269 C 0.58591 0.4411 0.41478 0.0
H270 H 0.49559 0.35015 0.4062 0.0
C271 C 0.58924 0.44439 0.46304 0.0
C272 C 0.5587 0.41406 0.49111 0.0
H273 H 0.61016 0.465 0.39415 0.0
H274 H 0.6157 0.47068 0.47832 0.0
C275 C 0.52478 0.38031 0.46985 0.0
C276 C 0.95276 0.45777 0.37877 0.0
C277 C 0.94938 0.45137 0.33064 0.0
H278 H -0.0071 0.48215 0.43719 0.0
C279 C 0.98536 0.46697 0.30388 0.0
H280 H 0.92559 0.44613 0.40033 0.0
C281 C 0.024 0.48791 0.325 0.0
C282 C 0.02731 0.49324 0.3733 0.0
H283 H 0.98371 0.46268 0.26667 0.0
H284 H 0.05121 0.4991 0.30359 0.0
C285 C -0.00867 0.47832 0.39991 0.0
C286 C 0.45881 0.97054 0.51545 0.0
C287 C 0.48113 0.95014 0.50873 0.0
H288 H 0.46089 0.02679 0.53319 0.0
C289 C 0.52399 0.97191 0.51512 0.0
H290 H 0.42575 0.95463 0.5107 0.0
C291 C 0.54413 0.01327 0.52794 0.0
C292 C 0.52182 0.0337 0.53458 0.0
H293 H 0.54207 0.95706 0.51014 0.0
H294 H 0.5772 0.02919 0.53265 0.0
C295 C 0.47896 0.01193 0.52821 0.0
C296 C 0.50403 0.51008 0.7403 0.0
C297 C 0.49039 0.53212 0.71352 0.0
H298 H 0.53451 0.47486 0.74089 0.0
C299 C 0.49638 0.53441 0.66534 0.0
H300 H 0.49973 0.50768 0.7775 0.0
C301 C 0.51652 0.51592 0.64448 0.0
C302 C 0.53077 0.49446 0.6713 0.0
H303 H 0.48622 0.55116 0.64373 0.0
H304 H 0.52113 0.51872 0.60733 0.0
C305 C 0.52389 0.49125 0.71934 0.0
C306 C 0.02848 0.51863 0.87584 0.0
C307 C 0.03197 0.53447 0.83098 0.0
H308 H 0.98821 0.48441 0.93146 0.0
C309 C -0.00394 0.52564 0.80661 0.0
H310 H 0.05561 0.52486 0.89546 0.0
C311 C 0.95748 0.5023 0.8271 0.0
C312 C 0.95403 0.48755 0.87251 0.0
H313 H -0.00228 0.53718 0.77186 0.0
H314 H 0.93045 0.49664 0.80766 0.0
C315 C -0.01013 0.4955 0.89647 0.0
C316 C 0.45738 0.01459 1.01507 0.0
C317 C 0.50028 0.0366 1.00908 0.0
H318 H 0.40426 0.95705 0.03178 0.0
C319 C 0.52274 0.01633 1.01566 0.0
H320 H 0.43919 0.02931 1.01018 0.0
C321 C 0.50271 0.97485 0.02791 0.0
C322 C 0.45981 0.95285 0.03388 0.0
H323 H 0.55584 0.03242 1.0112 0.0
H324 H 0.52089 0.96012 0.0328 0.0
C325 C 0.43736 0.97314 0.02735 0.0
C326 C 0.4469 0.48509 0.21779 0.0
C327 C 0.45636 0.49719 0.17131 0.0
H328 H 0.45332 0.45227 0.27453 0.0
C329 C 0.4821 0.48664 0.14684 0.0
H330 H 0.4272 0.49281 0.23761 0.0
C331 C 0.49726 0.46357 0.16809 0.0
C332 C 0.48669 0.45035 0.2141 0.0
H333 H 0.4901 0.49568 0.11103 0.0
H334 H 0.51645 0.45529 0.14811 0.0
C335 C 0.46179 0.46177 0.23891 0.0
C336 C 0.22557 0.53078 0.25025 0.0
C337 C 0.22741 0.53069 0.29899 0.0
H338 H 0.25479 0.53215 0.18594 0.0
C339 C 0.26019 0.52889 0.32006 0.0
H340 H 0.20066 0.53196 0.23277 0.0
C341 C 0.29131 0.52908 0.2931 0.0
C342 C 0.29037 0.53092 0.2444 0.0
H343 H 0.26259 0.52872 0.35744 0.0
H344 H 0.31674 0.5289 0.31059 0.0
C345 C 0.25661 0.53083 0.22329 0.0
C346 C 0.76377 0.291 0.46342 0.0
C347 C 0.76035 0.28719 0.41483 0.0
H348 H 0.73776 0.26444 0.52932 0.0
C349 C 0.72861 0.25055 0.39575 0.0
H350 H 0.78797 0.3187 0.47939 0.0
C351 C 0.69976 0.21943 0.42447 0.0
C352 C 0.702 0.2241 0.47301 0.0
H353 H 0.72507 0.24648 0.35855 0.0
H354 H 0.6749 0.19223 0.40846 0.0
C355 C 0.735 0.25981 0.49216 0.0
C356 C 0.47417 0.73637 0.64774 0.0
C357 C 0.47048 0.70018 0.62896 0.0
H358 H 0.47781 0.79409 0.63444 0.0
C359 C 0.47138 0.69666 0.58043 0.0
H360 H 0.47371 0.74022 0.68489 0.0
C361 C 0.47379 0.72762 0.55138 0.0
C362 C 0.47524 0.76281 0.57017 0.0
H363 H 0.46884 0.66931 0.56469 0.0
H364 H 0.47289 0.72319 0.51423 0.0
C365 C 0.47646 0.76727 0.61871 0.0
C366 C 0.75547 0.45598 0.75037 0.0
C367 C 0.75378 0.45625 0.79912 0.0
H368 H 0.72605 0.45437 0.6861 0.0
C369 C 0.72106 0.45815 0.82023 0.0
H370 H 0.78032 0.45472 0.73285 0.0
C371 C 0.68986 0.45787 0.79331 0.0
C372 C 0.69065 0.45583 0.7446 0.0
H373 H 0.71878 0.45845 0.85761 0.0
H374 H 0.66449 0.4581 0.81084 0.0
C375 C 0.72435 0.45585 0.72345 0.0
C376 C 0.28122 0.76636 0.92273 0.0
C377 C 0.27933 0.76163 0.97122 0.0
H378 H 0.25546 0.73943 0.85679 0.0
C379 C 0.24659 0.72578 0.99033 0.0
H380 H 0.30589 0.79366 0.90675 0.0
C381 C 0.21767 0.69458 0.96156 0.0
C382 C 0.22069 0.69852 0.91298 0.0
H383 H 0.24412 0.7211 0.02747 0.0
H384 H 0.19364 0.66681 0.97746 0.0
C385 C 0.25223 0.73525 0.89398 0.0
C386 C 0.50826 0.28933 0.08316 0.0
C387 C 0.50769 0.28488 0.13166 0.0
H388 H 0.50831 0.26386 1.01663 0.0
C389 C 0.50311 0.24819 0.14988 0.0
H390 H 0.51152 0.31709 0.06784 0.0
C391 C 0.50132 0.21768 0.12043 0.0
C392 C 0.50392 0.223 0.072 0.0
H393 H 0.50244 0.24362 0.18697 0.0
H394 H 0.49922 0.19044 0.1358 0.0
C395 C 0.50632 0.25874 0.05369 0.0
loop_
_geom_bond_atom_site_label_1
_geom_bond_atom_site_label_2
_geom_bond_distance
_geom_bond_site_symmetry_2
_ccdc_geom_bond_type
Mg0 O7 2.141 . S
Mg0 O8 2.048 . S
Mg0 O9 2.048 . S
Mg0 O12 2.141 . S
C1 O2 1.313 . S
C1 O8 1.195 . S
O2 C1 1.313 . S
C3 O4 1.245 . S
C3 O12 1.289 . S
O4 C3 1.245 . S
C5 O6 1.245 . S
C5 O7 1.289 . S
O6 C5 1.245 . S
O7 Mg0 2.141 . S
O7 C5 1.289 . S
O8 Mg0 2.048 . S
O8 C1 1.195 . S
O9 Mg0 2.048 . S
O9 C10 1.195 . S
C10 O9 1.195 . S
C10 O11 1.313 . S
O11 C10 1.313 . S
O12 Mg0 2.141 . S
O12 C3 1.289 . S
Mg13 O20 2.141 . S
Mg13 O21 2.048 . S
Mg13 O22 2.048 . S
Mg13 O25 2.141 . S
C14 O15 1.313 . S
C14 O21 1.195 . S
O15 C14 1.313 . S
C16 O17 1.245 . S
C16 O25 1.289 . S
O17 C16 1.245 . S
C18 O19 1.245 . S
C18 O20 1.289 . S
O19 C18 1.245 . S
O20 Mg13 2.141 . S
O20 C18 1.289 . S
O21 Mg13 2.048 . S
O21 C14 1.195 . S
O22 Mg13 2.048 . S
O22 C23 1.195 . S
C23 O22 1.195 . S
C23 O24 1.313 . S
O24 C23 1.313 . S
O25 Mg13 2.141 . S
O25 C16 1.289 . S
Mg26 O33 2.141 . S
Mg26 O34 2.048 . S
Mg26 O35 2.048 . S
Mg26 O38 2.141 . S
C27 O28 1.313 . S
C27 O34 1.195 . S
O28 C27 1.313 . S
C29 O30 1.245 . S
C29 O38 1.289 . S
O30 C29 1.245 . S
C31 O32 1.245 . S
C31 O33 1.289 . S
O32 C31 1.245 . S
O33 Mg26 2.141 . S
O33 C31 1.289 . S
O34 Mg26 2.048 . S
O34 C27 1.195 . S
O35 Mg26 2.048 . S
O35 C36 1.195 . S
C36 O35 1.195 . S
C36 O37 1.313 . S
O37 C36 1.313 . S
O38 Mg26 2.141 . S
O38 C29 1.289 . S
Mg39 O46 2.141 . S
Mg39 O47 2.048 . S
Mg39 O48 2.048 . S
Mg39 O51 2.141 . S
C40 O41 1.313 . S
C40 O47 1.195 . S
O41 C40 1.313 . S
C42 O43 1.245 . S
C42 O51 1.289 . S
O43 C42 1.245 . S
C44 O45 1.245 . S
C44 O46 1.289 . S
O45 C44 1.245 . S
O46 Mg39 2.141 . S
O46 C44 1.289 . S
O47 Mg39 2.048 . S
O47 C40 1.195 . S
O48 Mg39 2.048 . S
O48 C49 1.195 . S
C49 O48 1.195 . S
C49 O50 1.313 . S
O50 C49 1.313 . S
O51 Mg39 2.141 . S
O51 C42 1.289 . S
Mg52 O59 2.141 . S
Mg52 O60 2.048 . S
Mg52 O61 2.048 . S
Mg52 O64 2.141 . S
C53 O54 1.313 . S
C53 O60 1.195 . S
O54 C53 1.313 . S
C55 O56 1.245 . S
C55 O64 1.289 1_556 S
O56 C55 1.245 . S
C57 O58 1.245 . S
C57 O59 1.289 . S
O58 C57 1.245 . S
O59 Mg52 2.141 . S
O59 C57 1.289 . S
O60 Mg52 2.048 . S
O60 C53 1.195 . S
O61 Mg52 2.048 . S
O61 C62 1.195 . S
C62 O61 1.195 . S
C62 O63 1.313 . S
O63 C62 1.313 . S
O64 Mg52 2.141 . S
O64 C55 1.289 1_554 S
Mg65 O72 2.141 . S
Mg65 O73 2.048 . S
Mg65 O74 2.048 . S
Mg65 O77 2.141 . S
C66 O67 1.313 . S
C66 O73 1.195 . S
O67 C66 1.313 . S
C68 O69 1.245 . S
C68 O77 1.289 . S
O69 C68 1.245 . S
C70 O71 1.245 . S
C70 O72 1.289 . S
O71 C70 1.245 . S
O72 Mg65 2.141 . S
O72 C70 1.289 . S
O73 Mg65 2.048 . S
O73 C66 1.195 . S
O74 Mg65 2.048 . S
O74 C75 1.195 . S
C75 O74 1.195 . S
C75 O76 1.313 . S
O76 C75 1.313 . S
O77 Mg65 2.141 . S
O77 C68 1.289 . S
Mg78 O85 2.141 . S
Mg78 O86 2.048 . S
Mg78 O87 2.048 . S
Mg78 O90 2.141 . S
C79 O80 1.313 . S
C79 O86 1.195 . S
O80 C79 1.313 . S
C81 O82 1.245 . S
C81 O90 1.289 . S
O82 C81 1.245 . S
C83 O84 1.245 . S
C83 O85 1.289 . S
O84 C83 1.245 . S
O85 Mg78 2.141 . S
O85 C83 1.289 . S
O86 Mg78 2.048 . S
O86 C79 1.195 . S
O87 Mg78 2.048 . S
O87 C88 1.195 . S
C88 O87 1.195 . S
C88 O89 1.313 . S
O89 C88 1.313 . S
O90 Mg78 2.141 . S
O90 C81 1.289 . S
Mg91 O98 2.141 . S
Mg91 O99 2.048 . S
Mg91 O100 2.048 . S
Mg91 O103 2.141 . S
C92 O93 1.313 . S
C92 O99 1.195 . S
O93 C92 1.313 . S
C94 O95 1.245 . S
C94 O103 1.289 . S
O95 C94 1.245 . S
C96 O97 1.245 . S
C96 O98 1.289 . S
O97 C96 1.245 . S
O98 Mg91 2.141 . S
O98 C96 1.289 . S
O99 Mg91 2.048 . S
O99 C92 1.195 . S
O100 Mg91 2.048 . S
O100 C101 1.195 . S
C101 O100 1.195 . S
C101 O102 1.313 . S
O102 C101 1.313 . S
O103 Mg91 2.141 . S
O103 C94 1.289 . S
Mg104 O111 2.141 . S
Mg104 O112 2.048 . S
Mg104 O113 2.048 . S
Mg104 O116 2.141 . S
C105 O106 1.313 . S
C105 O112 1.195 . S
O106 C105 1.313 . S
C107 O108 1.245 . S
C107 O116 1.289 . S
O108 C107 1.245 . S
C109 O110 1.245 . S
C109 O111 1.289 . S
O110 C109 1.245 . S
O111 Mg104 2.141 . S
O111 C109 1.289 . S
O112 Mg104 2.048 . S
O112 C105 1.195 . S
O113 Mg104 2.048 . S
O113 C114 1.195 . S
C114 O113 1.195 . S
C114 O115 1.313 . S
O115 C114 1.313 . S
O116 Mg104 2.141 . S
O116 C107 1.289 . S
Mg117 O124 2.141 . S
Mg117 O125 2.048 . S
Mg117 O126 2.048 . S
Mg117 O129 2.141 . S
C118 O119 1.313 . S
C118 O125 1.195 . S
O119 C118 1.313 . S
C120 O121 1.245 . S
C120 O129 1.289 1_554 S
O121 C120 1.245 . S
C122 O123 1.245 . S
C122 O124 1.289 . S
O123 C122 1.245 . S
O124 Mg117 2.141 . S
O124 C122 1.289 . S
O125 Mg117 2.048 . S
O125 C118 1.195 . S
O126 Mg117 2.048 . S
O126 C127 1.195 . S
C127 O126 1.195 . S
C127 O128 1.313 . S
O128 C127 1.313 . S
O129 Mg117 2.141 . S
O129 C120 1.289 1_556 S
Mg130 O137 2.141 . S
Mg130 O138 2.048 . S
Mg130 O139 2.048 . S
Mg130 O142 2.141 . S
C131 O132 1.313 . S
C131 O138 1.195 . S
O132 C131 1.313 . S
C133 O134 1.245 . S
C133 O142 1.289 . S
O134 C133 1.245 . S
C135 O136 1.245 . S
C135 O137 1.289 . S
O136 C135 1.245 . S
O137 Mg130 2.141 . S
O137 C135 1.289 . S
O138 Mg130 2.048 . S
O138 C131 1.195 . S
O139 Mg130 2.048 . S
O139 C140 1.195 . S
C140 O139 1.195 . S
C140 O141 1.313 . S
O141 C140 1.313 . S
O142 Mg130 2.141 . S
O142 C133 1.289 . S
Mg143 O150 2.141 . S
Mg143 O151 2.048 . S
Mg143 O152 2.048 . S
Mg143 O155 2.141 . S
C144 O145 1.313 . S
C144 O151 1.195 . S
O145 C144 1.313 . S
C146 O147 1.245 . S
C146 O155 1.289 . S
O147 C146 1.245 . S
C148 O149 1.245 . S
C148 O150 1.289 . S
O149 C148 1.245 . S
O150 Mg143 2.141 . S
O150 C148 1.289 . S
O151 Mg143 2.048 . S
O151 C144 1.195 . S
O152 Mg143 2.048 . S
O152 C153 1.195 . S
C153 O152 1.195 . S
C153 O154 1.313 . S
O154 C153 1.313 . S
O155 Mg143 2.141 . S
O155 C146 1.289 . S
C156 C157 1.387 . S
C156 H160 0.950 . S
C156 C165 1.390 . S
C157 C156 1.387 . S
C157 C159 1.387 . S
H158 C165 0.950 . S
C159 C157 1.387 . S
C159 C161 1.390 . S
C159 H163 0.950 . S
H160 C156 0.950 . S
C161 C159 1.390 . S
C161 C162 1.387 . S
C161 H164 0.950 . S
C162 C161 1.387 . S
C162 C165 1.387 . S
H163 C159 0.950 . S
H164 C161 0.950 . S
C165 C156 1.390 . S
C165 H158 0.950 . S
C165 C162 1.387 . S
C166 C167 1.387 . S
C166 H170 0.950 . S
C166 C175 1.390 . S
C167 C166 1.387 . S
C167 C169 1.387 . S
H168 C175 0.950 . S
C169 C167 1.387 . S
C169 C171 1.390 . S
C169 H173 0.950 . S
H170 C166 0.950 . S
C171 C169 1.390 . S
C171 C172 1.387 . S
C171 H174 0.950 . S
C172 C171 1.387 . S
C172 C175 1.387 . S
H173 C169 0.950 . S
H174 C171 0.950 . S
C175 C166 1.390 . S
C175 H168 0.950 . S
C175 C172 1.387 . S
C176 C177 1.387 . S
C176 H180 0.950 . S
C176 C185 1.390 . S
C177 C176 1.387 . S
C177 C179 1.387 . S
H178 C185 0.950 . S
C179 C177 1.387 . S
C179 C181 1.390 . S
C179 H183 0.950 . S
H180 C176 0.950 . S
C181 C179 1.390 . S
C181 C182 1.387 . S
C181 H184 0.950 . S
C182 C181 1.387 . S
C182 C185 1.387 . S
H183 C179 0.950 . S
H184 C181 0.950 . S
C185 C176 1.390 . S
C185 H178 0.950 . S
C185 C182 1.387 . S
C186 C187 1.387 . S
C186 H190 0.950 . S
C186 C195 1.390 . S
C187 C186 1.387 . S
C187 C189 1.387 . S
H188 C195 0.950 . S
C189 C187 1.387 . S
C189 C191 1.390 . S
C189 H193 0.950 . S
H190 C186 0.950 . S
C191 C189 1.390 . S
C191 C192 1.387 . S
C191 H194 0.950 . S
C192 C191 1.387 . S
C192 C195 1.387 . S
H193 C189 0.950 . S
H194 C191 0.950 . S
C195 C186 1.390 . S
C195 H188 0.950 . S
C195 C192 1.387 . S
C196 C197 1.387 . S
C196 H200 0.950 . S
C196 C205 1.390 . S
C197 C196 1.387 . S
C197 C199 1.387 . S
H198 C205 0.950 . S
C199 C197 1.387 . S
C199 C201 1.390 . S
C199 H203 0.950 . S
H200 C196 0.950 . S
C201 C199 1.390 . S
C201 C202 1.387 . S
C201 H204 0.950 . S
C202 C201 1.387 . S
C202 C205 1.387 . S
H203 C199 0.950 . S
H204 C201 0.950 . S
C205 C196 1.390 . S
C205 H198 0.950 . S
C205 C202 1.387 . S
C206 C207 1.387 . S
C206 H210 0.950 . S
C206 C215 1.390 . S
C207 C206 1.387 . S
C207 C209 1.387 . S
H208 C215 0.950 . S
C209 C207 1.387 . S
C209 C211 1.390 . S
C209 H213 0.950 . S
H210 C206 0.950 . S
C211 C209 1.390 . S
C211 C212 1.387 . S
C211 H214 0.950 . S
C212 C211 1.387 . S
C212 C215 1.387 . S
H213 C209 0.950 . S
H214 C211 0.950 . S
C215 C206 1.390 . S
C215 H208 0.950 . S
C215 C212 1.387 . S
C216 C217 1.387 . S
C216 H220 0.950 . S
C216 C225 1.390 . S
C217 C216 1.387 . S
C217 C219 1.387 . S
H218 C225 0.950 . S
C219 C217 1.387 . S
C219 C221 1.390 . S
C219 H223 0.950 . S
H220 C216 0.950 . S
C221 C219 1.390 . S
C221 C222 1.387 . S
C221 H224 0.950 . S
C222 C221 1.387 . S
C222 C225 1.387 . S
H223 C219 0.950 . S
H224 C221 0.950 . S
C225 C216 1.390 . S
C225 H218 0.950 . S
C225 C222 1.387 . S
C226 C227 1.387 . S
C226 H230 0.950 . S
C226 C235 1.390 . S
C227 C226 1.387 . S
C227 C229 1.387 . S
H228 C235 0.950 . S
C229 C227 1.387 . S
C229 C231 1.390 . S
C229 H233 0.950 . S
H230 C226 0.950 . S
C231 C229 1.390 . S
C231 C232 1.387 . S
C231 H234 0.950 . S
C232 C231 1.387 . S
C232 C235 1.387 . S
H233 C229 0.950 . S
H234 C231 0.950 . S
C235 C226 1.390 . S
C235 H228 0.950 . S
C235 C232 1.387 . S
C236 C237 1.387 . S
C236 H240 0.950 . S
C236 C245 1.390 . S
C237 C236 1.387 . S
C237 C239 1.387 . S
H238 C245 0.950 . S
C239 C237 1.387 . S
C239 C241 1.390 . S
C239 H243 0.950 . S
H240 C236 0.950 . S
C241 C239 1.390 . S
C241 C242 1.387 . S
C241 H244 0.950 . S
C242 C241 1.387 . S
C242 C245 1.387 . S
H243 C239 0.950 . S
H244 C241 0.950 . S
C245 C236 1.390 . S
C245 H238 0.950 . S
C245 C242 1.387 . S
C246 C247 1.387 . S
C246 H250 0.950 . S
C246 C255 1.390 . S
C247 C246 1.387 . S
C247 C249 1.387 . S
H248 C255 0.950 . S
C249 C247 1.387 . S
C249 C251 1.390 . S
C249 H253 0.950 . S
H250 C246 0.950 . S
C251 C249 1.390 . S
C251 C252 1.387 . S
C251 H254 0.950 . S
C252 C251 1.387 . S
C252 C255 1.387 . S
H253 C249 0.950 . S
H254 C251 0.950 . S
C255 C246 1.390 . S
C255 H248 0.950 . S
C255 C252 1.387 . S
C256 C257 1.387 . S
C256 H260 0.950 . S
C256 C265 1.390 . S
C257 C256 1.387 . S
C257 C259 1.387 . S
H258 C265 0.950 . S
C259 C257 1.387 . S
C259 C261 1.390 . S
C259 H263 0.950 . S
H260 C256 0.950 . S
C261 C259 1.390 . S
C261 C262 1.387 . S
C261 H264 0.950 . S
C262 C261 1.387 . S
C262 C265 1.387 . S
H263 C259 0.950 . S
H264 C261 0.950 . S
C265 C256 1.390 . S
C265 H258 0.950 . S
C265 C262 1.387 . S
C266 C267 1.387 . S
C266 H270 0.950 . S
C266 C275 1.390 . S
C267 C266 1.387 . S
C267 C269 1.387 . S
H268 C275 0.950 . S
C269 C267 1.387 . S
C269 C271 1.390 . S
C269 H273 0.950 . S
H270 C266 0.950 . S
C271 C269 1.390 . S
C271 C272 1.387 . S
C271 H274 0.950 . S
C272 C271 1.387 . S
C272 C275 1.387 . S
H273 C269 0.950 . S
H274 C271 0.950 . S
C275 C266 1.390 . S
C275 H268 0.950 . S
C275 C272 1.387 . S
C276 C277 1.387 . S
C276 H280 0.950 . S
C276 C285 1.378 1_655 S
C277 C276 1.387 . S
C277 C279 1.394 . S
H278 C285 0.956 . S
C279 C277 1.394 . S
C279 C281 1.377 1_655 S
C279 H283 0.956 . S
H280 C276 0.950 . S
C281 C279 1.377 1_455 S
C281 C282 1.387 . S
C281 H284 0.950 . S
C282 C281 1.387 . S
C282 C285 1.394 . S
H283 C279 0.956 . S
H284 C281 0.950 . S
C285 C276 1.378 1_455 S
C285 H278 0.956 . S
C285 C282 1.394 . S
C286 C287 1.387 . S
C286 H290 0.950 . S
C286 C295 1.390 1_565 S
C287 C286 1.387 . S
C287 C289 1.387 . S
H288 C295 0.950 . S
C289 C287 1.387 . S
C289 C291 1.390 1_565 S
C289 H293 0.950 . S
H290 C286 0.950 . S
C291 C289 1.390 1_545 S
C291 C292 1.387 . S
C291 H294 0.950 . S
C292 C291 1.387 . S
C292 C295 1.387 . S
H293 C289 0.950 . S
H294 C291 0.950 . S
C295 C286 1.390 1_545 S
C295 H288 0.950 . S
C295 C292 1.387 . S
C296 C297 1.387 . S
C296 H300 0.950 . S
C296 C305 1.390 . S
C297 C296 1.387 . S
C297 C299 1.387 . S
H298 C305 0.950 . S
C299 C297 1.387 . S
C299 C301 1.390 . S
C299 H303 0.950 . S
H300 C296 0.950 . S
C301 C299 1.390 . S
C301 C302 1.387 . S
C301 H304 0.950 . S
C302 C301 1.387 . S
C302 C305 1.387 . S
H303 C299 0.950 . S
H304 C301 0.950 . S
C305 C296 1.390 . S
C305 H298 0.950 . S
C305 C302 1.387 . S
C306 C307 1.387 . S
C306 H310 0.950 . S
C306 C315 1.390 . S
C307 C306 1.387 . S
C307 C309 1.387 1_455 S
H308 C315 0.950 . S
C309 C307 1.387 1_655 S
C309 C311 1.390 . S
C309 H313 0.950 . S
H310 C306 0.950 . S
C311 C309 1.390 . S
C311 C312 1.387 . S
C311 H314 0.950 . S
C312 C311 1.387 . S
C312 C315 1.387 1_655 S
H313 C309 0.950 . S
H314 C311 0.950 . S
C315 C306 1.390 . S
C315 H308 0.950 . S
C315 C312 1.387 1_455 S
C316 C317 1.387 . S
C316 H320 0.950 . S
C316 C325 1.390 1_546 S
C317 C316 1.387 . S
C317 C319 1.387 . S
H318 C325 0.950 . S
C319 C317 1.387 . S
C319 C321 1.390 1_546 S
C319 H323 0.950 . S
H320 C316 0.950 . S
C321 C319 1.390 1_564 S
C321 C322 1.387 . S
C321 H324 0.950 . S
C322 C321 1.387 . S
C322 C325 1.387 . S
H323 C319 0.950 . S
H324 C321 0.950 . S
C325 C316 1.390 1_564 S
C325 H318 0.950 . S
C325 C322 1.387 . S
C326 C327 1.387 . S
C326 H330 0.950 . S
C326 C335 1.390 . S
C327 C326 1.387 . S
C327 C329 1.387 . S
H328 C335 0.950 . S
C329 C327 1.387 . S
C329 C331 1.390 . S
C329 H333 0.950 . S
H330 C326 0.950 . S
C331 C329 1.390 . S
C331 C332 1.387 . S
C331 H334 0.950 . S
C332 C331 1.387 . S
C332 C335 1.387 . S
H333 C329 0.950 . S
H334 C331 0.950 . S
C335 C326 1.390 . S
C335 H328 0.950 . S
C335 C332 1.387 . S
C336 C337 1.387 . S
C336 H340 0.950 . S
C336 C345 1.390 . S
C337 C336 1.387 . S
C337 C339 1.387 . S
H338 C345 0.950 . S
C339 C337 1.387 . S
C339 C341 1.390 . S
C339 H343 0.950 . S
H340 C336 0.950 . S
C341 C339 1.390 . S
C341 C342 1.387 . S
C341 H344 0.950 . S
C342 C341 1.387 . S
C342 C345 1.387 . S
H343 C339 0.950 . S
H344 C341 0.950 . S
C345 C336 1.390 . S
C345 H338 0.950 . S
C345 C342 1.387 . S
C346 C347 1.387 . S
C346 H350 0.950 . S
C346 C355 1.390 . S
C347 C346 1.387 . S
C347 C349 1.387 . S
H348 C355 0.950 . S
C349 C347 1.387 . S
C349 C351 1.390 . S
C349 H353 0.950 . S
H350 C346 0.950 . S
C351 C349 1.390 . S
C351 C352 1.387 . S
C351 H354 0.950 . S
C352 C351 1.387 . S
C352 C355 1.387 . S
H353 C349 0.950 . S
H354 C351 0.950 . S
C355 C346 1.390 . S
C355 H348 0.950 . S
C355 C352 1.387 . S
C356 C357 1.387 . S
C356 H360 0.950 . S
C356 C365 1.390 . S
C357 C356 1.387 . S
C357 C359 1.387 . S
H358 C365 0.950 . S
C359 C357 1.387 . S
C359 C361 1.390 . S
C359 H363 0.950 . S
H360 C356 0.950 . S
C361 C359 1.390 . S
C361 C362 1.387 . S
C361 H364 0.950 . S
C362 C361 1.387 . S
C362 C365 1.387 . S
H363 C359 0.950 . S
H364 C361 0.950 . S
C365 C356 1.390 . S
C365 H358 0.950 . S
C365 C362 1.387 . S
C366 C367 1.387 . S
C366 H370 0.950 . S
C366 C375 1.390 . S
C367 C366 1.387 . S
C367 C369 1.387 . S
H368 C375 0.950 . S
C369 C367 1.387 . S
C369 C371 1.390 . S
C369 H373 0.950 . S
H370 C366 0.950 . S
C371 C369 1.390 . S
C371 C372 1.387 . S
C371 H374 0.950 . S
C372 C371 1.387 . S
C372 C375 1.387 . S
H373 C369 0.950 . S
H374 C371 0.950 . S
C375 C366 1.390 . S
C375 H368 0.950 . S
C375 C372 1.387 . S
C376 C377 1.387 . S
C376 H380 0.950 . S
C376 C385 1.390 . S
C377 C376 1.387 . S
C377 C379 1.387 . S
H378 C385 0.950 . S
C379 C377 1.387 . S
C379 C381 1.390 . S
C379 H383 0.950 . S
H380 C376 0.950 . S
C381 C379 1.390 . S
C381 C382 1.387 . S
C381 H384 0.950 . S
C382 C381 1.387 . S
C382 C385 1.387 . S
H383 C379 0.950 . S
H384 C381 0.950 . S
C385 C376 1.390 . S
C385 H378 0.950 . S
C385 C382 1.387 . S
C386 C387 1.387 . S
C386 H390 0.950 . S
C386 C395 1.390 . S
C387 C386 1.387 . S
C387 C389 1.387 . S
H388 C395 0.950 . S
C389 C387 1.387 . S
C389 C391 1.390 . S
C389 H393 0.950 . S
H390 C386 0.950 . S
C391 C389 1.390 . S
C391 C392 1.387 . S
C391 H394 0.950 . S
C392 C391 1.387 . S
C392 C395 1.387 . S
H393 C389 0.950 . S
H394 C391 0.950 . S
C395 C386 1.390 . S
C395 H388 0.950 . S
C395 C392 1.387 . S
C157 C10 1.558 . S
C162 C88 1.555 . S
C167 C23 1.555 . S
C172 C101 1.556 . S
C177 C114 1.557 . S
C182 C36 1.557 . S
C187 C49 1.555 . S
C192 C127 1.557 . S
C197 C62 1.558 . S
C202 C140 1.556 . S
C207 C153 1.555 . S
C212 C75 1.555 . S
C217 C105 1.682 . S
C222 C1 1.683 . S
C227 C14 1.682 . S
C232 C118 1.682 . S
C237 C131 1.683 1_556 S
C242 C27 1.682 . S
C247 C144 1.681 . S
C252 C40 1.682 1_554 S
C257 C53 1.682 . S
C262 C79 1.682 . S
C267 C66 1.683 . S
C272 C92 1.682 . S
C277 C148 1.825 . S
C282 C5 1.827 . S
C287 C83 1.828 . S
C292 C18 1.828 . S
C297 C31 1.828 . S
C302 C96 1.827 . S
C307 C109 1.826 . S
C312 C44 1.828 . S
C317 C122 1.825 . S
C322 C57 1.825 . S
C327 C135 1.827 . S
C332 C70 1.828 . S
C337 C3 1.481 . S
C342 C133 1.481 . S
C347 C146 1.481 . S
C352 C16 1.479 . S
C357 C29 1.480 . S
C362 C81 1.480 . S
C367 C42 1.480 . S
C372 C94 1.480 . S
C377 C55 1.481 . S
C382 C107 1.479 . S
C387 C68 1.481 . S
C392 C120 1.480 . S
