# Generated by pormake.
# Topology wjh, (4)-cn, num edge types: 1
# Building blocks:
#     Node 0, Type 0, BuildingBlock: GALJAG_clean_sbu_0, # of connection points: 4
#     Node 1, Type 0, BuildingBlock: GALJAG_clean_sbu_0, # of connection points: 4
#     Node 2, Type 0, BuildingBlock: GALJAG_clean_sbu_0, # of connection points: 4
#     Node 3, Type 0, BuildingBlock: GALJAG_clean_sbu_0, # of connection points: 4
#     Node 4, Type 0, BuildingBlock: GALJAG_clean_sbu_0, # of connection points: 4
#     Node 5, Type 0, BuildingBlock: GALJAG_clean_sbu_0, # of connection points: 4
#     Node 6, Type 0, BuildingBlock: GALJAG_clean_sbu_0, # of connection points: 4
#     Node 7, Type 0, BuildingBlock: GALJAG_clean_sbu_0, # of connection points: 4
#     Node 8, Type 0, BuildingBlock: GALJAG_clean_sbu_0, # of connection points: 4
#     Node 9, Type 0, BuildingBlock: GALJAG_clean_sbu_0, # of connection points: 4
#     Node 10, Type 0, BuildingBlock: GALJAG_clean_sbu_0, # of connection points: 4
#     Node 11, Type 0, BuildingBlock: GALJAG_clean_sbu_0, # of connection points: 4
#     Edge 12, Type (0, 0), BuildingBlock: EYOCIG_clean_linker_4, # of connection points: 2
#     Edge 13, Type (0, 0), BuildingBlock: EYOCIG_clean_linker_4, # of connection points: 2
#     Edge 14, Type (0, 0), BuildingBlock: EYOCIG_clean_linker_4, # of connection points: 2
#     Edge 15, Type (0, 0), BuildingBlock: EYOCIG_clean_linker_4, # of connection points: 2
#     Edge 16, Type (0, 0), BuildingBlock: EYOCIG_clean_linker_4, # of connection points: 2
#     Edge 17, Type (0, 0), BuildingBlock: EYOCIG_clean_linker_4, # of connection points: 2
#     Edge 18, Type (0, 0), BuildingBlock: EYOCIG_clean_linker_4, # of connection points: 2
#     Edge 19, Type (0, 0), BuildingBlock: EYOCIG_clean_linker_4, # of connection points: 2
#     Edge 20, Type (0, 0), BuildingBlock: EYOCIG_clean_linker_4, # of connection points: 2
#     Edge 21, Type (0, 0), BuildingBlock: EYOCIG_clean_linker_4, # of connection points: 2
#     Edge 22, Type (0, 0), BuildingBlock: EYOCIG_clean_linker_4, # of connection points: 2
#     Edge 23, Type (0, 0), BuildingBlock: EYOCIG_clean_linker_4, # of connection points: 2
#     Edge 24, Type (0, 0), BuildingBlock: EYOCIG_clean_linker_4, # of connection points: 2
#     Edge 25, Type (0, 0), BuildingBlock: EYOCIG_clean_linker_4, # of connection points: 2
#     Edge 26, Type (0, 0), BuildingBlock: EYOCIG_clean_linker_4, # of connection points: 2
#     Edge 27, Type (0, 0), BuildingBlock: EYOCIG_clean_linker_4, # of connection points: 2
#     Edge 28, Type (0, 0), BuildingBlock: EYOCIG_clean_linker_4, # of connection points: 2
#     Edge 29, Type (0, 0), BuildingBlock: EYOCIG_clean_linker_4, # of connection points: 2
#     Edge 30, Type (0, 0), BuildingBlock: EYOCIG_clean_linker_4, # of connection points: 2
#     Edge 31, Type (0, 0), BuildingBlock: EYOCIG_clean_linker_4, # of connection points: 2
#     Edge 32, Type (0, 0), BuildingBlock: EYOCIG_clean_linker_4, # of connection points: 2
#     Edge 33, Type (0, 0), BuildingBlock: EYOCIG_clean_linker_4, # of connection points: 2
#     Edge 34, Type (0, 0), BuildingBlock: EYOCIG_clean_linker_4, # of connection points: 2
#     Edge 35, Type (0, 0), BuildingBlock: EYOCIG_clean_linker_4, # of connection points: 2
# Relax obj value: 0.053
# Max RMSD: 0.092
# Mean RMSD: 0.092
data_MOF--net-wjh--node1-GALJAG_clean_sbu_0--edge1-EYOCIG_clean_linker_4
_symmetry_space_group_name_H-M    P1
_symmetry_Int_Tables_number       1
_symmetry_cell_setting            triclinic
loop_
_symmetry_equiv_pos_as_xyz
'x, y, z'
_cell_length_a     47.885148
_cell_length_b     47.904559
_cell_length_c     22.367234
_cell_angle_alpha  89.999249
_cell_angle_beta   90.006531
_cell_angle_gamma 119.97314
loop_
_atom_site_label
_atom_site_type_symbol
_atom_site_fract_x
_atom_site_fract_y
_atom_site_fract_z
_atom_type_partial_charge
In0 In 0.51706 0.13728 0.04146 0.0
O1 O 0.55617 0.14495 0.97425 0.0
O2 O 0.51202 0.13954 0.94034 0.0
C3 C 0.54314 0.14264 0.14875 0.0
C4 C 0.47724 0.07331 0.04037 0.0
C5 C 0.51009 0.18862 0.06375 0.0
O6 O 0.56008 0.15022 0.10179 0.0
O7 O 0.5133 0.1312 0.14144 0.0
O8 O 0.48607 0.16045 0.05983 0.0
O9 O 0.53703 0.19116 0.0522 0.0
C10 C 0.5394 0.14294 0.92911 0.0
O11 O 0.46666 0.09276 0.03721 0.0
O12 O 0.50743 0.08595 0.04403 0.0
In13 In 0.37279 0.52036 0.20807 0.0
O14 O 0.40424 0.56013 0.14189 0.0
O15 O 0.36576 0.51621 0.10688 0.0
C16 C 0.39291 0.54515 0.31637 0.0
C17 C 0.397 0.48061 0.20449 0.0
C18 C 0.31429 0.5128 0.23121 0.0
O19 O 0.40247 0.56269 0.27014 0.0
O20 O 0.37473 0.51541 0.30778 0.0
O21 O 0.3187 0.48897 0.22638 0.0
O22 O 0.33851 0.5399 0.21988 0.0
C23 C 0.38967 0.5437 0.09632 0.0
O24 O 0.36699 0.4701 0.20134 0.0
O25 O 0.41453 0.51072 0.20969 0.0
In26 In 0.84525 0.37617 0.37469 0.0
O27 O 0.83676 0.40746 0.30843 0.0
O28 O 0.84183 0.3687 0.27362 0.0
C29 C 0.84034 0.39682 0.48222 0.0
C30 C 0.90927 0.40017 0.3712 0.0
C31 C 0.7938 0.31827 0.39897 0.0
O32 O 0.83289 0.40645 0.43545 0.0
O33 O 0.85164 0.37832 0.47461 0.0
O34 O 0.82185 0.32211 0.39444 0.0
O35 O 0.79138 0.34264 0.38657 0.0
C36 C 0.83816 0.39256 0.26296 0.0
O37 O 0.88972 0.37017 0.36815 0.0
O38 O 0.89671 0.41774 0.3762 0.0
In39 In 0.46248 0.84868 0.54135 0.0
O40 O 0.42287 0.84054 0.47485 0.0
O41 O 0.46694 0.84615 0.44014 0.0
C42 C 0.43787 0.84464 0.64944 0.0
C43 C 0.50227 0.9126 0.53985 0.0
C44 C 0.46983 0.79773 0.56537 0.0
O45 O 0.42021 0.83644 0.60332 0.0
O46 O 0.46755 0.85583 0.64079 0.0
O47 O 0.49374 0.82585 0.5598 0.0
O48 O 0.44273 0.79491 0.55414 0.0
C49 C 0.43945 0.84258 0.4294 0.0
O50 O 0.51281 0.89312 0.53605 0.0
O51 O 0.47211 0.89999 0.54395 0.0
In52 In 0.60651 0.46551 0.70798 0.0
O53 O 0.57484 0.42557 0.64218 0.0
O54 O 0.6138 0.46908 0.60691 0.0
C55 C 0.5863 0.44095 0.81631 0.0
C56 C 0.58343 0.50629 0.70406 0.0
C57 C 0.66429 0.47167 0.73227 0.0
O58 O 0.57631 0.42344 0.7701 0.0
O59 O 0.60486 0.47062 0.80769 0.0
O60 O 0.66059 0.49594 0.72725 0.0
O61 O 0.63982 0.4449 0.72023 0.0
C62 C 0.58979 0.44163 0.59653 0.0
O63 O 0.61333 0.51622 0.70067 0.0
O64 O 0.56546 0.47624 0.70941 0.0
In65 In 0.13418 0.60983 0.87468 0.0
O66 O 0.14292 0.57877 0.80822 0.0
O67 O 0.13747 0.61731 0.77355 0.0
C68 C 0.13879 0.58847 0.98167 0.0
C69 C 0.07013 0.5856 0.87264 0.0
C70 C 0.18496 0.66807 0.89981 0.0
O71 O 0.14665 0.57936 0.93473 0.0
O72 O 0.12754 0.60703 0.97446 0.0
O73 O 0.15678 0.66379 0.89451 0.0
O74 O 0.18788 0.64395 0.88777 0.0
C75 C 0.14135 0.59358 0.76279 0.0
O76 O 0.08956 0.6156 0.8692 0.0
O77 O 0.08283 0.56813 0.87677 0.0
In78 In 0.84523 0.46531 0.87014 0.0
O79 O 0.88978 0.51563 0.87624 0.0
O80 O 0.8966 0.47491 0.86867 0.0
C81 C 0.79363 0.47175 0.84742 0.0
C82 C 0.83822 0.44203 0.98197 0.0
C83 C 0.84032 0.44033 0.76202 0.0
O84 O 0.82168 0.49595 0.85173 0.0
O85 O 0.79134 0.44492 0.85888 0.0
O86 O 0.8329 0.423 0.80845 0.0
O87 O 0.85155 0.47007 0.77026 0.0
C88 C 0.90925 0.50505 0.87329 0.0
O89 O 0.83669 0.4256 0.93661 0.0
O90 O 0.84204 0.46959 0.97113 0.0
In91 In 0.37262 0.84861 0.03705 0.0
O92 O 0.36687 0.89316 0.04236 0.0
O93 O 0.41442 0.89988 0.0358 0.0
C94 C 0.31435 0.79742 0.01386 0.0
C95 C 0.38858 0.84251 0.1496 0.0
C96 C 0.39419 0.84439 0.92994 0.0
O97 O 0.31858 0.82561 0.01788 0.0
O98 O 0.33868 0.79477 0.02554 0.0
O99 O 0.40324 0.83635 0.97677 0.0
O100 O 0.37546 0.85544 0.93733 0.0
C101 C 0.39693 0.91257 0.03994 0.0
O102 O 0.40353 0.84048 0.10478 0.0
O103 O 0.36475 0.84607 0.13789 0.0
In104 In 0.51723 0.37602 0.20339 0.0
O105 O 0.46676 0.37006 0.20846 0.0
O106 O 0.50739 0.41761 0.20107 0.0
C107 C 0.51002 0.3179 0.17828 0.0
C108 C 0.5404 0.39212 0.31549 0.0
C109 C 0.54329 0.39724 0.09638 0.0
O110 O 0.48605 0.32207 0.18348 0.0
O111 O 0.537 0.34206 0.19047 0.0
O112 O 0.56021 0.40649 0.14339 0.0
O113 O 0.51348 0.3787 0.10353 0.0
C114 C 0.47722 0.40004 0.20495 0.0
O115 O 0.55686 0.40704 0.27021 0.0
O116 O 0.51285 0.3684 0.30449 0.0
In117 In 0.13414 0.52035 0.37011 0.0
O118 O 0.08957 0.47009 0.37588 0.0
O119 O 0.0828 0.51082 0.36791 0.0
C120 C 0.18497 0.51279 0.34595 0.0
C121 C 0.14134 0.54397 0.48187 0.0
C122 C 0.13854 0.54496 0.26187 0.0
O123 O 0.15682 0.48894 0.35169 0.0
O124 O 0.18786 0.53992 0.35703 0.0
O125 O 0.14649 0.56257 0.30801 0.0
O126 O 0.12724 0.51526 0.27054 0.0
C127 C 0.07012 0.48066 0.37214 0.0
O128 O 0.14295 0.56032 0.43635 0.0
O129 O 0.1374 0.51634 0.47124 0.0
In130 In 0.60656 0.13721 0.5368 0.0
O131 O 0.57513 0.14483 0.60406 0.0
O132 O 0.61416 0.13982 0.63776 0.0
C133 C 0.58637 0.14213 0.42876 0.0
C134 C 0.58256 0.07329 0.54005 0.0
C135 C 0.66441 0.18902 0.51401 0.0
O136 O 0.57656 0.14967 0.47523 0.0
O137 O 0.60477 0.13075 0.43697 0.0
O138 O 0.6607 0.161 0.51795 0.0
O139 O 0.63983 0.19119 0.52604 0.0
C140 C 0.59007 0.14301 0.64912 0.0
O141 O 0.61259 0.09283 0.54273 0.0
O142 O 0.56495 0.08583 0.53525 0.0
In143 In 0.46263 0.61014 0.70348 0.0
O144 O 0.51329 0.61666 0.70784 0.0
O145 O 0.47302 0.56886 0.70127 0.0
C146 C 0.47 0.66847 0.67964 0.0
C147 C 0.4405 0.59431 0.81628 0.0
C148 C 0.43609 0.58866 0.59666 0.0
O149 O 0.49386 0.66408 0.68402 0.0
O150 O 0.44296 0.6443 0.69148 0.0
O151 O 0.41933 0.57955 0.64387 0.0
O152 O 0.46592 0.60719 0.60354 0.0
C153 C 0.50316 0.58674 0.70479 0.0
O154 O 0.4237 0.57911 0.77149 0.0
O155 O 0.46779 0.6182 0.80444 0.0
C156 C 0.56529 0.1502 0.25821 0.0
C157 C 0.55662 0.14734 0.20716 0.0
C158 C 0.57281 0.15005 0.31872 0.0
C159 C 0.57821 0.14698 0.36993 0.0
C160 C 0.40648 0.56606 0.42674 0.0
C161 C 0.40109 0.55789 0.37538 0.0
C162 C 0.41386 0.57357 0.48734 0.0
C163 C 0.42244 0.57953 0.53841 0.0
C164 C 0.83247 0.41878 0.6521 0.0
C165 C 0.83553 0.42734 0.70322 0.0
C166 C 0.83246 0.41106 0.5917 0.0
C167 C 0.83551 0.40535 0.54071 0.0
C168 C 0.41748 0.83872 0.75987 0.0
C169 C 0.42536 0.84084 0.70846 0.0
C170 C 0.41002 0.83866 0.82044 0.0
C171 C 0.40369 0.84066 0.87154 0.0
C172 C 0.56543 0.41226 0.98707 0.0
C173 C 0.55679 0.40627 0.03808 0.0
C174 C 0.57288 0.41992 0.92657 0.0
C175 C 0.57822 0.42821 0.8753 0.0
C176 C 0.14538 0.56561 0.15149 0.0
C177 C 0.14282 0.55755 0.20285 0.0
C178 C 0.14545 0.57314 0.09098 0.0
C179 C 0.14302 0.57927 0.03996 0.0
C180 C 0.5068 0.26552 0.13191 0.0
C181 C 0.50753 0.28911 0.15297 0.0
C182 C 0.50685 0.23849 0.10635 0.0
C183 C 0.50766 0.21536 0.08701 0.0
C184 C 0.26114 0.509 0.27512 0.0
C185 C 0.28508 0.50999 0.25518 0.0
C186 C 0.23407 0.50898 0.30073 0.0
C187 C 0.21122 0.50994 0.32129 0.0
C188 C 0.71697 0.2391 0.47029 0.0
C189 C 0.69323 0.21594 0.49015 0.0
C190 C 0.74406 0.26609 0.4446 0.0
C191 C 0.76714 0.2896 0.42389 0.0
C192 C 0.47364 0.74865 0.61055 0.0
C193 C 0.47263 0.77146 0.59002 0.0
C194 C 0.47368 0.72159 0.63604 0.0
C195 C 0.47272 0.69765 0.65583 0.0
C196 C 0.71646 0.47425 0.77833 0.0
C197 C 0.69291 0.47367 0.7574 0.0
C198 C 0.74353 0.47434 0.80406 0.0
C199 C 0.76677 0.47384 0.82375 0.0
C200 C 0.23404 0.7206 0.9459 0.0
C201 C 0.2112 0.69695 0.92497 0.0
C202 C 0.26115 0.74765 0.97133 0.0
C203 C 0.28514 0.77075 0.99064 0.0
C204 C 0.57008 0.14264 0.75971 0.0
C205 C 0.57931 0.14279 0.70934 0.0
C206 C 0.55919 0.14262 0.81863 0.0
C207 C 0.55006 0.14276 0.86897 0.0
C208 C 0.42091 0.57509 0.92725 0.0
C209 C 0.43 0.584 0.87674 0.0
C210 C 0.40999 0.56421 0.98619 0.0
C211 C 0.40068 0.55481 0.0364 0.0
C212 C 0.83685 0.42184 0.0928 0.0
C213 C 0.83745 0.43087 0.0421 0.0
C214 C 0.83684 0.41164 0.15231 0.0
C215 C 0.83742 0.4031 0.20294 0.0
C216 C 0.41916 0.84273 0.31926 0.0
C217 C 0.42849 0.84267 0.36946 0.0
C218 C 0.40821 0.84271 0.26039 0.0
C219 C 0.39912 0.84264 0.20995 0.0
C220 C 0.57066 0.42112 0.48593 0.0
C221 C 0.57917 0.43024 0.53658 0.0
C222 C 0.56052 0.41096 0.42638 0.0
C223 C 0.55151 0.40251 0.37566 0.0
C224 C 0.14264 0.5643 0.5926 0.0
C225 C 0.14207 0.55524 0.54192 0.0
C226 C 0.14263 0.57451 0.65211 0.0
C227 C 0.14207 0.58306 0.70274 0.0
C228 C 0.44101 0.00995 0.04119 0.0
C229 C 0.4566 0.03897 0.04066 0.0
C230 C 0.42406 0.97593 0.0416 0.0
C231 C 0.41069 0.94691 0.04099 0.0
C232 C 0.44083 0.42703 0.20333 0.0
C233 C 0.45647 0.41363 0.20425 0.0
C234 C 0.42393 0.44417 0.20264 0.0
C235 C 0.41065 0.45992 0.2033 0.0
C236 C 0.00673 0.44429 0.3704 0.0
C237 C 0.03576 0.45999 0.37137 0.0
C238 C 0.97268 0.42721 0.36959 0.0
C239 C 0.94364 0.4138 0.37012 0.0
C240 C 0.53865 0.97593 0.54168 0.0
C241 C 0.52299 0.94692 0.54067 0.0
C242 C 0.55563 0.00995 0.54229 0.0
C243 C 0.56896 0.03896 0.54144 0.0
C244 C 0.55729 0.54347 0.70275 0.0
C245 C 0.57037 0.52752 0.70312 0.0
C246 C 0.54025 0.56049 0.70352 0.0
C247 C 0.52429 0.57356 0.70425 0.0
C248 C 0.00671 0.55842 0.87361 0.0
C249 C 0.03575 0.57187 0.87299 0.0
C250 C 0.97266 0.54134 0.87433 0.0
C251 C 0.94362 0.52569 0.87403 0.0
loop_
_geom_bond_atom_site_label_1
_geom_bond_atom_site_label_2
_geom_bond_distance
_geom_bond_site_symmetry_2
_ccdc_geom_bond_type
In0 O1 2.294 1_554 S
In0 O2 2.326 1_554 S
In0 O6 2.266 . S
In0 O7 2.326 . S
In0 O8 2.266 . S
In0 O9 2.326 . S
In0 O11 2.294 . S
In0 O12 2.326 . S
O1 In0 2.294 1_556 S
O1 C10 1.240 . S
O2 In0 2.326 1_556 S
O2 C10 1.252 . S
C3 O6 1.252 . S
C3 O7 1.260 . S
C4 O11 1.240 . S
C4 O12 1.252 . S
C5 O8 1.252 . S
C5 O9 1.260 . S
O6 In0 2.266 . S
O6 C3 1.252 . S
O7 In0 2.326 . S
O7 C3 1.260 . S
O8 In0 2.266 . S
O8 C5 1.252 . S
O9 In0 2.326 . S
O9 C5 1.260 . S
C10 O1 1.240 . S
C10 O2 1.252 . S
O11 In0 2.294 . S
O11 C4 1.240 . S
O12 In0 2.326 . S
O12 C4 1.252 . S
In13 O14 2.294 . S
In13 O15 2.326 . S
In13 O19 2.266 . S
In13 O20 2.326 . S
In13 O21 2.266 . S
In13 O22 2.326 . S
In13 O24 2.294 . S
In13 O25 2.326 . S
O14 In13 2.294 . S
O14 C23 1.240 . S
O15 In13 2.326 . S
O15 C23 1.252 . S
C16 O19 1.252 . S
C16 O20 1.260 . S
C17 O24 1.240 . S
C17 O25 1.252 . S
C18 O21 1.252 . S
C18 O22 1.260 . S
O19 In13 2.266 . S
O19 C16 1.252 . S
O20 In13 2.326 . S
O20 C16 1.260 . S
O21 In13 2.266 . S
O21 C18 1.252 . S
O22 In13 2.326 . S
O22 C18 1.260 . S
C23 O14 1.240 . S
C23 O15 1.252 . S
O24 In13 2.294 . S
O24 C17 1.240 . S
O25 In13 2.326 . S
O25 C17 1.252 . S
In26 O27 2.294 . S
In26 O28 2.326 . S
In26 O32 2.266 . S
In26 O33 2.326 . S
In26 O34 2.266 . S
In26 O35 2.326 . S
In26 O37 2.294 . S
In26 O38 2.326 . S
O27 In26 2.294 . S
O27 C36 1.240 . S
O28 In26 2.326 . S
O28 C36 1.252 . S
C29 O32 1.252 . S
C29 O33 1.260 . S
C30 O37 1.240 . S
C30 O38 1.252 . S
C31 O34 1.252 . S
C31 O35 1.260 . S
O32 In26 2.266 . S
O32 C29 1.252 . S
O33 In26 2.326 . S
O33 C29 1.260 . S
O34 In26 2.266 . S
O34 C31 1.252 . S
O35 In26 2.326 . S
O35 C31 1.260 . S
C36 O27 1.240 . S
C36 O28 1.252 . S
O37 In26 2.294 . S
O37 C30 1.240 . S
O38 In26 2.326 . S
O38 C30 1.252 . S
In39 O40 2.294 . S
In39 O41 2.326 . S
In39 O45 2.266 . S
In39 O46 2.326 . S
In39 O47 2.266 . S
In39 O48 2.326 . S
In39 O50 2.294 . S
In39 O51 2.326 . S
O40 In39 2.294 . S
O40 C49 1.240 . S
O41 In39 2.326 . S
O41 C49 1.252 . S
C42 O45 1.252 . S
C42 O46 1.260 . S
C43 O50 1.240 . S
C43 O51 1.252 . S
C44 O47 1.252 . S
C44 O48 1.260 . S
O45 In39 2.266 . S
O45 C42 1.252 . S
O46 In39 2.326 . S
O46 C42 1.260 . S
O47 In39 2.266 . S
O47 C44 1.252 . S
O48 In39 2.326 . S
O48 C44 1.260 . S
C49 O40 1.240 . S
C49 O41 1.252 . S
O50 In39 2.294 . S
O50 C43 1.240 . S
O51 In39 2.326 . S
O51 C43 1.252 . S
In52 O53 2.294 . S
In52 O54 2.326 . S
In52 O58 2.266 . S
In52 O59 2.326 . S
In52 O60 2.266 . S
In52 O61 2.326 . S
In52 O63 2.294 . S
In52 O64 2.326 . S
O53 In52 2.294 . S
O53 C62 1.240 . S
O54 In52 2.326 . S
O54 C62 1.252 . S
C55 O58 1.252 . S
C55 O59 1.260 . S
C56 O63 1.240 . S
C56 O64 1.252 . S
C57 O60 1.252 . S
C57 O61 1.260 . S
O58 In52 2.266 . S
O58 C55 1.252 . S
O59 In52 2.326 . S
O59 C55 1.260 . S
O60 In52 2.266 . S
O60 C57 1.252 . S
O61 In52 2.326 . S
O61 C57 1.260 . S
C62 O53 1.240 . S
C62 O54 1.252 . S
O63 In52 2.294 . S
O63 C56 1.240 . S
O64 In52 2.326 . S
O64 C56 1.252 . S
In65 O66 2.294 . S
In65 O67 2.326 . S
In65 O71 2.266 . S
In65 O72 2.326 . S
In65 O73 2.266 . S
In65 O74 2.326 . S
In65 O76 2.294 . S
In65 O77 2.326 . S
O66 In65 2.294 . S
O66 C75 1.240 . S
O67 In65 2.326 . S
O67 C75 1.252 . S
C68 O71 1.252 . S
C68 O72 1.260 . S
C69 O76 1.240 . S
C69 O77 1.252 . S
C70 O73 1.252 . S
C70 O74 1.260 . S
O71 In65 2.266 . S
O71 C68 1.252 . S
O72 In65 2.326 . S
O72 C68 1.260 . S
O73 In65 2.266 . S
O73 C70 1.252 . S
O74 In65 2.326 . S
O74 C70 1.260 . S
C75 O66 1.240 . S
C75 O67 1.252 . S
O76 In65 2.294 . S
O76 C69 1.240 . S
O77 In65 2.326 . S
O77 C69 1.252 . S
In78 O79 2.294 . S
In78 O80 2.326 . S
In78 O84 2.266 . S
In78 O85 2.326 . S
In78 O86 2.266 . S
In78 O87 2.326 . S
In78 O89 2.294 . S
In78 O90 2.326 . S
O79 In78 2.294 . S
O79 C88 1.240 . S
O80 In78 2.326 . S
O80 C88 1.252 . S
C81 O84 1.252 . S
C81 O85 1.260 . S
C82 O89 1.240 . S
C82 O90 1.252 . S
C83 O86 1.252 . S
C83 O87 1.260 . S
O84 In78 2.266 . S
O84 C81 1.252 . S
O85 In78 2.326 . S
O85 C81 1.260 . S
O86 In78 2.266 . S
O86 C83 1.252 . S
O87 In78 2.326 . S
O87 C83 1.260 . S
C88 O79 1.240 . S
C88 O80 1.252 . S
O89 In78 2.294 . S
O89 C82 1.240 . S
O90 In78 2.326 . S
O90 C82 1.252 . S
In91 O92 2.294 . S
In91 O93 2.326 . S
In91 O97 2.266 . S
In91 O98 2.326 . S
In91 O99 2.266 1_554 S
In91 O100 2.326 1_554 S
In91 O102 2.294 . S
In91 O103 2.326 . S
O92 In91 2.294 . S
O92 C101 1.240 . S
O93 In91 2.326 . S
O93 C101 1.252 . S
C94 O97 1.252 . S
C94 O98 1.260 . S
C95 O102 1.240 . S
C95 O103 1.252 . S
C96 O99 1.252 . S
C96 O100 1.260 . S
O97 In91 2.266 . S
O97 C94 1.252 . S
O98 In91 2.326 . S
O98 C94 1.260 . S
O99 In91 2.266 1_556 S
O99 C96 1.252 . S
O100 In91 2.326 1_556 S
O100 C96 1.260 . S
C101 O92 1.240 . S
C101 O93 1.252 . S
O102 In91 2.294 . S
O102 C95 1.240 . S
O103 In91 2.326 . S
O103 C95 1.252 . S
In104 O105 2.294 . S
In104 O106 2.326 . S
In104 O110 2.266 . S
In104 O111 2.326 . S
In104 O112 2.266 . S
In104 O113 2.326 . S
In104 O115 2.294 . S
In104 O116 2.326 . S
O105 In104 2.294 . S
O105 C114 1.240 . S
O106 In104 2.326 . S
O106 C114 1.252 . S
C107 O110 1.252 . S
C107 O111 1.260 . S
C108 O115 1.240 . S
C108 O116 1.252 . S
C109 O112 1.252 . S
C109 O113 1.260 . S
O110 In104 2.266 . S
O110 C107 1.252 . S
O111 In104 2.326 . S
O111 C107 1.260 . S
O112 In104 2.266 . S
O112 C109 1.252 . S
O113 In104 2.326 . S
O113 C109 1.260 . S
C114 O105 1.240 . S
C114 O106 1.252 . S
O115 In104 2.294 . S
O115 C108 1.240 . S
O116 In104 2.326 . S
O116 C108 1.252 . S
In117 O118 2.294 . S
In117 O119 2.326 . S
In117 O123 2.266 . S
In117 O124 2.326 . S
In117 O125 2.266 . S
In117 O126 2.326 . S
In117 O128 2.294 . S
In117 O129 2.326 . S
O118 In117 2.294 . S
O118 C127 1.240 . S
O119 In117 2.326 . S
O119 C127 1.252 . S
C120 O123 1.252 . S
C120 O124 1.260 . S
C121 O128 1.240 . S
C121 O129 1.252 . S
C122 O125 1.252 . S
C122 O126 1.260 . S
O123 In117 2.266 . S
O123 C120 1.252 . S
O124 In117 2.326 . S
O124 C120 1.260 . S
O125 In117 2.266 . S
O125 C122 1.252 . S
O126 In117 2.326 . S
O126 C122 1.260 . S
C127 O118 1.240 . S
C127 O119 1.252 . S
O128 In117 2.294 . S
O128 C121 1.240 . S
O129 In117 2.326 . S
O129 C121 1.252 . S
In130 O131 2.294 . S
In130 O132 2.326 . S
In130 O136 2.266 . S
In130 O137 2.326 . S
In130 O138 2.266 . S
In130 O139 2.326 . S
In130 O141 2.294 . S
In130 O142 2.326 . S
O131 In130 2.294 . S
O131 C140 1.240 . S
O132 In130 2.326 . S
O132 C140 1.252 . S
C133 O136 1.252 . S
C133 O137 1.260 . S
C134 O141 1.240 . S
C134 O142 1.252 . S
C135 O138 1.252 . S
C135 O139 1.260 . S
O136 In130 2.266 . S
O136 C133 1.252 . S
O137 In130 2.326 . S
O137 C133 1.260 . S
O138 In130 2.266 . S
O138 C135 1.252 . S
O139 In130 2.326 . S
O139 C135 1.260 . S
C140 O131 1.240 . S
C140 O132 1.252 . S
O141 In130 2.294 . S
O141 C134 1.240 . S
O142 In130 2.326 . S
O142 C134 1.252 . S
In143 O144 2.294 . S
In143 O145 2.326 . S
In143 O149 2.266 . S
In143 O150 2.326 . S
In143 O151 2.266 . S
In143 O152 2.326 . S
In143 O154 2.294 . S
In143 O155 2.326 . S
O144 In143 2.294 . S
O144 C153 1.240 . S
O145 In143 2.326 . S
O145 C153 1.252 . S
C146 O149 1.252 . S
C146 O150 1.260 . S
C147 O154 1.240 . S
C147 O155 1.252 . S
C148 O151 1.252 . S
C148 O152 1.260 . S
O149 In143 2.266 . S
O149 C146 1.252 . S
O150 In143 2.326 . S
O150 C146 1.260 . S
O151 In143 2.266 . S
O151 C148 1.252 . S
O152 In143 2.326 . S
O152 C148 1.260 . S
C153 O144 1.240 . S
C153 O145 1.252 . S
O154 In143 2.294 . S
O154 C147 1.240 . S
O155 In143 2.326 . S
O155 C147 1.252 . S
C156 C157 1.170 . S
C156 C158 1.380 . S
C157 C156 1.170 . S
C158 C156 1.380 . S
C158 C159 1.170 . S
C159 C158 1.170 . S
C160 C161 1.170 . S
C160 C162 1.380 . S
C161 C160 1.170 . S
C162 C160 1.380 . S
C162 C163 1.170 . S
C163 C162 1.170 . S
C164 C165 1.170 . S
C164 C166 1.380 . S
C165 C164 1.170 . S
C166 C164 1.380 . S
C166 C167 1.170 . S
C167 C166 1.170 . S
C168 C169 1.170 . S
C168 C170 1.380 . S
C169 C168 1.170 . S
C170 C168 1.380 . S
C170 C171 1.170 . S
C171 C170 1.170 . S
C172 C173 1.170 1_556 S
C172 C174 1.380 . S
C173 C172 1.170 1_554 S
C174 C172 1.380 . S
C174 C175 1.170 . S
C175 C174 1.170 . S
C176 C177 1.170 . S
C176 C178 1.380 . S
C177 C176 1.170 . S
C178 C176 1.380 . S
C178 C179 1.170 . S
C179 C178 1.170 . S
C180 C181 1.170 . S
C180 C182 1.380 . S
C181 C180 1.170 . S
C182 C180 1.380 . S
C182 C183 1.170 . S
C183 C182 1.170 . S
C184 C185 1.170 . S
C184 C186 1.380 . S
C185 C184 1.170 . S
C186 C184 1.380 . S
C186 C187 1.170 . S
C187 C186 1.170 . S
C188 C189 1.170 . S
C188 C190 1.380 . S
C189 C188 1.170 . S
C190 C188 1.380 . S
C190 C191 1.170 . S
C191 C190 1.170 . S
C192 C193 1.170 . S
C192 C194 1.380 . S
C193 C192 1.170 . S
C194 C192 1.380 . S
C194 C195 1.170 . S
C195 C194 1.170 . S
C196 C197 1.170 . S
C196 C198 1.380 . S
C197 C196 1.170 . S
C198 C196 1.380 . S
C198 C199 1.170 . S
C199 C198 1.170 . S
C200 C201 1.170 . S
C200 C202 1.380 . S
C201 C200 1.170 . S
C202 C200 1.380 . S
C202 C203 1.170 . S
C203 C202 1.170 . S
C204 C205 1.170 . S
C204 C206 1.380 . S
C205 C204 1.170 . S
C206 C204 1.380 . S
C206 C207 1.170 . S
C207 C206 1.170 . S
C208 C209 1.170 . S
C208 C210 1.380 . S
C209 C208 1.170 . S
C210 C208 1.380 . S
C210 C211 1.170 1_556 S
C211 C210 1.170 1_554 S
C212 C213 1.170 . S
C212 C214 1.380 . S
C213 C212 1.170 . S
C214 C212 1.380 . S
C214 C215 1.170 . S
C215 C214 1.170 . S
C216 C217 1.170 . S
C216 C218 1.380 . S
C217 C216 1.170 . S
C218 C216 1.380 . S
C218 C219 1.170 . S
C219 C218 1.170 . S
C220 C221 1.170 . S
C220 C222 1.380 . S
C221 C220 1.170 . S
C222 C220 1.380 . S
C222 C223 1.170 . S
C223 C222 1.170 . S
C224 C225 1.170 . S
C224 C226 1.380 . S
C225 C224 1.170 . S
C226 C224 1.380 . S
C226 C227 1.170 . S
C227 C226 1.170 . S
C228 C229 1.170 . S
C228 C230 1.380 1_545 S
C229 C228 1.170 . S
C230 C228 1.380 1_565 S
C230 C231 1.170 . S
C231 C230 1.170 . S
C232 C233 1.170 . S
C232 C234 1.380 . S
C233 C232 1.170 . S
C234 C232 1.380 . S
C234 C235 1.170 . S
C235 C234 1.170 . S
C236 C237 1.170 . S
C236 C238 1.380 1_455 S
C237 C236 1.170 . S
C238 C236 1.380 1_655 S
C238 C239 1.170 . S
C239 C238 1.170 . S
C240 C241 1.170 . S
C240 C242 1.380 1_565 S
C241 C240 1.170 . S
C242 C240 1.380 1_545 S
C242 C243 1.170 . S
C243 C242 1.170 . S
C244 C245 1.170 . S
C244 C246 1.380 . S
C245 C244 1.170 . S
C246 C244 1.380 . S
C246 C247 1.170 . S
C247 C246 1.170 . S
C248 C249 1.170 . S
C248 C250 1.380 1_455 S
C249 C248 1.170 . S
C250 C248 1.380 1_655 S
C250 C251 1.170 . S
C251 C250 1.170 . S
C157 C3 1.221 . S
C159 C133 1.214 . S
C161 C16 1.210 . S
C163 C148 1.223 . S
C165 C83 1.215 . S
C167 C29 1.221 . S
C169 C42 1.207 . S
C171 C96 1.218 . S
C173 C109 1.222 . S
C175 C55 1.210 . S
C177 C122 1.208 . S
C179 C68 1.222 1_554 S
C181 C107 1.377 . S
C183 C5 1.396 . S
C185 C18 1.392 . S
C187 C120 1.385 . S
C189 C135 1.388 . S
C191 C31 1.378 . S
C193 C44 1.386 . S
C195 C146 1.392 . S
C197 C57 1.377 . S
C199 C81 1.390 . S
C201 C70 1.378 . S
C203 C94 1.396 1_556 S
C205 C140 1.661 . S
C207 C10 1.660 . S
C209 C147 1.665 . S
C211 C23 1.661 . S
C213 C82 1.668 1_554 S
C215 C36 1.667 . S
C217 C49 1.661 . S
C219 C95 1.663 . S
C221 C62 1.667 . S
C223 C108 1.669 . S
C225 C121 1.668 . S
C227 C75 1.668 . S
C229 C4 1.452 . S
C231 C101 1.459 . S
C233 C114 1.452 . S
C235 C17 1.460 . S
C237 C127 1.452 . S
C239 C30 1.459 . S
C241 C43 1.453 . S
C243 C134 1.462 . S
C245 C56 1.471 . S
C247 C153 1.463 . S
C249 C69 1.451 . S
C251 C88 1.456 . S
