# Generated by pormake.
# Topology ukg, (4)-cn, num edge types: 1
# Building blocks:
#     Node 0, Type 0, BuildingBlock: KUFVIS_clean_sbu_0, # of connection points: 4
#     Node 1, Type 0, BuildingBlock: KUFVIS_clean_sbu_0, # of connection points: 4
#     Node 2, Type 0, BuildingBlock: KUFVIS_clean_sbu_0, # of connection points: 4
#     Node 3, Type 0, BuildingBlock: KUFVIS_clean_sbu_0, # of connection points: 4
#     Node 4, Type 0, BuildingBlock: KUFVIS_clean_sbu_0, # of connection points: 4
#     Node 5, Type 0, BuildingBlock: KUFVIS_clean_sbu_0, # of connection points: 4
#     Node 6, Type 0, BuildingBlock: KUFVIS_clean_sbu_0, # of connection points: 4
#     Node 7, Type 0, BuildingBlock: KUFVIS_clean_sbu_0, # of connection points: 4
#     Edge 8, Type (0, 0), BuildingBlock: OJICUG_clean_linker_0, # of connection points: 2
#     Edge 9, Type (0, 0), BuildingBlock: OJICUG_clean_linker_0, # of connection points: 2
#     Edge 10, Type (0, 0), BuildingBlock: OJICUG_clean_linker_0, # of connection points: 2
#     Edge 11, Type (0, 0), BuildingBlock: OJICUG_clean_linker_0, # of connection points: 2
#     Edge 12, Type (0, 0), BuildingBlock: OJICUG_clean_linker_0, # of connection points: 2
#     Edge 13, Type (0, 0), BuildingBlock: OJICUG_clean_linker_0, # of connection points: 2
#     Edge 14, Type (0, 0), BuildingBlock: OJICUG_clean_linker_0, # of connection points: 2
#     Edge 15, Type (0, 0), BuildingBlock: OJICUG_clean_linker_0, # of connection points: 2
#     Edge 16, Type (0, 0), BuildingBlock: OJICUG_clean_linker_0, # of connection points: 2
#     Edge 17, Type (0, 0), BuildingBlock: OJICUG_clean_linker_0, # of connection points: 2
#     Edge 18, Type (0, 0), BuildingBlock: OJICUG_clean_linker_0, # of connection points: 2
#     Edge 19, Type (0, 0), BuildingBlock: OJICUG_clean_linker_0, # of connection points: 2
#     Edge 20, Type (0, 0), BuildingBlock: OJICUG_clean_linker_0, # of connection points: 2
#     Edge 21, Type (0, 0), BuildingBlock: OJICUG_clean_linker_0, # of connection points: 2
#     Edge 22, Type (0, 0), BuildingBlock: OJICUG_clean_linker_0, # of connection points: 2
#     Edge 23, Type (0, 0), BuildingBlock: OJICUG_clean_linker_0, # of connection points: 2
# Relax obj value: 0.155
# Max RMSD: 0.247
# Mean RMSD: 0.247
data_MOF--net-ukg--node1-KUFVIS_clean_sbu_0--edge1-OJICUG_clean_linker_0
_symmetry_space_group_name_H-M    P1
_symmetry_Int_Tables_number       1
_symmetry_cell_setting            triclinic
loop_
_symmetry_equiv_pos_as_xyz
'x, y, z'
_cell_length_a     22.431238
_cell_length_b     22.413046
_cell_length_c     24.859646
_cell_angle_alpha  89.989055
_cell_angle_beta   90.032772
_cell_angle_gamma 89.980276
loop_
_atom_site_label
_atom_site_type_symbol
_atom_site_fract_x
_atom_site_fract_y
_atom_site_fract_z
_atom_type_partial_charge
Mn0 Mn 0.01353 0.67475 0.18879 0.0
Mn1 Mn 0.01266 0.75215 0.07271 0.0
C2 C 0.9953 0.77559 0.19054 0.0
C3 C 0.96126 0.61743 0.25068 0.0
C4 C 0.12554 0.7175 0.13145 0.0
O5 O 0.00959 0.60988 0.13195 0.0
O6 O 0.00419 0.66441 0.05605 0.0
C7 C 0.89142 0.73098 0.0302 0.0
N8 N 0.93273 0.76911 0.05089 0.0
C9 C 0.86957 0.85386 0.03354 0.0
C10 C 0.82662 0.81554 1.01174 0.0
C11 C 0.83766 0.75388 1.00992 0.0
C12 C 0.92293 0.82869 0.0519 0.0
H13 H 0.90009 0.68366 0.02784 0.0
C14 C 0.0051 0.61402 0.08095 0.0
O15 O 0.01901 0.61348 0.24763 0.0
O16 O 0.9346 0.65242 0.21703 0.0
N17 N 0.0201 0.83648 0.08366 0.0
C18 C 0.06839 0.86812 0.10091 0.0
C19 C 0.06453 0.93046 0.10528 0.0
C20 C 0.01142 0.95973 0.09125 0.0
C21 C 0.96275 0.92639 0.07261 0.0
C22 C 0.96895 0.86427 0.06972 0.0
H23 H 0.10944 0.846 0.11168 0.0
O24 O 0.01234 0.7475 0.23348 0.0
O25 O 0.98683 0.74292 0.14766 0.0
O26 O 0.10143 0.69099 0.17137 0.0
O27 O 0.09632 0.73915 0.09204 0.0
C28 C 0.90857 0.95244 0.0562 0.0
C29 C 0.86222 0.91625 0.03613 0.0
H30 H 0.78565 0.83327 0.99516 0.0
H31 H 0.80538 0.72424 0.99185 0.0
H32 H 0.10247 0.95592 0.11928 0.0
H33 H 0.0087 0.00786 0.0944 0.0
H34 H 0.90248 0.00035 0.05793 0.0
H35 H 0.82127 0.93689 1.02242 0.0
Mn36 Mn 0.32496 0.51047 0.68486 0.0
Mn37 Mn 0.24856 0.5102 0.56801 0.0
C38 C 0.22418 0.4916 0.68532 0.0
C39 C 0.3817 0.4586 0.74787 0.0
C40 C 0.28021 0.62292 0.62836 0.0
O41 O 0.3908 0.50732 0.62873 0.0
O42 O 0.33649 0.50509 0.55264 0.0
C43 C 0.2756 0.39002 0.52549 0.0
N44 N 0.23526 0.42995 0.54497 0.0
C45 C 0.1536 0.36414 0.52428 0.0
C46 C 0.19428 0.32253 0.50376 0.0
C47 C 0.2555 0.33559 0.50426 0.0
C48 C 0.17612 0.4181 0.54405 0.0
H49 H 0.32265 0.40019 0.52494 0.0
C50 C 0.38673 0.50507 0.57759 0.0
O51 O 0.38514 0.51639 0.74461 0.0
O52 O 0.3477 0.43154 0.71367 0.0
N53 N 0.16383 0.51438 0.5771 0.0
C54 C 0.12994 0.56156 0.59338 0.0
C55 C 0.06761 0.55591 0.59484 0.0
C56 C 0.0407 0.50222 0.57883 0.0
C57 C 0.07641 0.45468 0.56135 0.0
C58 C 0.13836 0.46266 0.56132 0.0
H59 H 0.15027 0.60312 0.60539 0.0
O60 O 0.25158 0.50854 0.72862 0.0
O61 O 0.25739 0.48347 0.64278 0.0
O62 O 0.30815 0.59847 0.66739 0.0
O63 O 0.25813 0.59405 0.5889 0.0
C64 C 0.0529 0.40002 0.54315 0.0
C65 C 0.09145 0.35491 0.52431 0.0
H66 H 0.17889 0.28087 0.48662 0.0
H67 H 0.28703 0.30425 0.48739 0.0
H68 H 0.04035 0.59298 0.608 0.0
H69 H 0.99258 0.49822 0.57955 0.0
H70 H 0.00518 0.39257 0.54268 0.0
H71 H 0.07279 0.31352 0.50941 0.0
Mn72 Mn 0.48309 0.82597 0.19412 0.0
Mn73 Mn 0.48717 0.75176 0.07633 0.0
C74 C 0.50009 0.72441 0.19346 0.0
C75 C 0.53398 0.88066 0.2593 0.0
C76 C 0.37262 0.78547 0.13261 0.0
O77 O 0.48899 0.89308 0.13861 0.0
O78 O 0.49732 0.83948 0.06246 0.0
C79 C 0.61413 0.77364 0.05202 0.0
N80 N 0.56833 0.73474 0.05933 0.0
C81 C 0.6334 0.65034 0.0474 0.0
C82 C 0.68116 0.68953 0.03927 0.0
C83 C 0.67148 0.75141 0.04191 0.0
C84 C 0.57726 0.67506 0.05772 0.0
H85 H 0.60702 0.82122 0.05463 0.0
C86 C 0.49534 0.88954 0.08764 0.0
O87 O 0.47644 0.88525 0.25457 0.0
O88 O 0.56145 0.84678 0.22529 0.0
N89 N 0.4779 0.66706 0.0831 0.0
C90 C 0.42798 0.63528 0.09566 0.0
C91 C 0.43031 0.57266 0.09601 0.0
C92 C 0.48379 0.54331 0.08332 0.0
C93 C 0.53443 0.57691 0.07017 0.0
C94 C 0.5292 0.63921 0.06972 0.0
H95 H 0.38666 0.65745 0.10543 0.0
O96 O 0.48267 0.75107 0.23697 0.0
O97 O 0.50951 0.7587 0.15204 0.0
O98 O 0.39587 0.81066 0.17371 0.0
O99 O 0.40264 0.76523 0.09295 0.0
C100 C 0.5901 0.55105 0.05822 0.0
C101 C 0.63966 0.58777 0.04716 0.0
H102 H 0.72554 0.67243 0.03203 0.0
H103 H 0.70811 0.78197 0.03684 0.0
H104 H 0.39098 0.54706 0.10612 0.0
H105 H 0.48551 0.49501 0.08396 0.0
H106 H 0.5955 0.50302 0.0582 0.0
H107 H 0.68254 0.56742 0.03907 0.0
Mn108 Mn 0.17156 0.97923 0.699 0.0
Mn109 Mn 0.2457 0.98773 0.58165 0.0
C110 C 0.27283 0.99658 0.69912 0.0
C111 C 0.11664 0.02916 0.76451 0.0
C112 C 0.21335 0.87078 0.63488 0.0
O113 O 0.10459 0.98661 0.64379 0.0
O114 O 0.15793 0.99633 0.56777 0.0
C115 C 0.22029 0.11534 0.56314 0.0
N116 N 0.26048 0.07009 0.56744 0.0
C117 C 0.34285 0.13842 0.56039 0.0
C118 C 0.30231 0.18567 0.55536 0.0
C119 C 0.24078 0.17408 0.55711 0.0
C120 C 0.31982 0.08084 0.56687 0.0
H121 H 0.17299 0.10676 0.56553 0.0
C122 C 0.10799 0.99376 0.59295 0.0
O123 O 0.11196 0.9716 0.75921 0.0
O124 O 0.15089 0.05695 0.73113 0.0
N125 N 0.3305 0.9804 0.58824 0.0
C126 C 0.36353 0.93085 0.59944 0.0
C127 C 0.42597 0.93508 0.60109 0.0
C128 C 0.45381 0.99009 0.59118 0.0
C129 C 0.41894 0.04031 0.57925 0.0
C130 C 0.35693 0.03316 0.5772 0.0
H131 H 0.34245 0.88846 0.60733 0.0
O132 O 0.24621 0.97766 0.74212 0.0
O133 O 0.23858 0.00704 0.65788 0.0
O134 O 0.18724 0.89259 0.67623 0.0
O135 O 0.2341 0.90218 0.59621 0.0
C136 C 0.44319 0.09745 0.57054 0.0
C137 C 0.40514 0.14658 0.56153 0.0
H138 H 0.31806 0.2311 0.55176 0.0
H139 H 0.20917 0.21034 0.55495 0.0
H140 H 0.45259 0.89609 0.61025 0.0
H141 H 0.50194 0.99334 0.59314 0.0
H142 H 0.49097 0.10434 0.57185 0.0
H143 H 0.42421 0.19061 0.5564 0.0
Mn144 Mn 0.98603 0.3247 0.85466 0.0
Mn145 Mn 0.98734 0.25261 0.97392 0.0
C146 C 0.00445 0.22368 0.85728 0.0
C147 C 0.03654 0.37871 0.78886 0.0
C148 C 0.87428 0.28333 0.91398 0.0
O149 O 0.99056 0.39283 0.90879 0.0
O150 O 0.99373 0.34107 0.98638 0.0
C151 C 0.10748 0.27922 1.01642 0.0
N152 N 0.06743 0.23891 0.9971 0.0
C153 C 0.13198 0.15688 1.02004 0.0
C154 C 0.17366 0.19753 0.04043 0.0
C155 C 0.16124 0.25892 0.03882 0.0
C156 C 0.07844 0.1796 0.99957 0.0
H157 H 0.09775 0.32641 1.01619 0.0
C158 C 0.9937 0.39049 0.96002 0.0
O159 O 0.97893 0.38247 0.79316 0.0
O160 O 0.06439 0.34601 0.82364 0.0
N161 N 0.98194 0.16761 0.96715 0.0
C162 C 0.93453 0.13385 0.95124 0.0
C163 C 0.93979 0.07143 0.95022 0.0
C164 C 0.99332 0.0443 0.96635 0.0
C165 C 0.04096 0.07985 0.98379 0.0
C166 C 0.03342 0.14191 0.98322 0.0
H167 H 0.89319 0.15437 0.93887 0.0
O168 O 0.98692 0.24943 0.81331 0.0
O169 O 0.01333 0.25854 0.89864 0.0
O170 O 0.89828 0.30925 0.87368 0.0
O171 O 0.90358 0.26254 0.95369 0.0
C172 C 0.0954 0.05613 1.00224 0.0
C173 C 0.14065 0.09459 1.02091 0.0
H174 H 0.21473 0.18196 0.05854 0.0
H175 H 0.19247 0.29043 0.05586 0.0
H176 H 0.90261 0.04426 0.93718 0.0
H177 H 0.99715 0.99613 0.96569 0.0
H178 H 0.10254 0.00834 1.00314 0.0
H179 H 0.18178 0.07579 0.03625 0.0
Mn180 Mn 0.67021 0.47872 0.34727 0.0
Mn181 Mn 0.74541 0.48861 0.46383 0.0
C182 C 0.77121 0.49729 0.34612 0.0
C183 C 0.61387 0.52849 0.28285 0.0
C184 C 0.71319 0.37103 0.41157 0.0
O185 O 0.60397 0.48553 0.40288 0.0
O186 O 0.65773 0.49714 0.47847 0.0
C187 C 0.71985 0.61636 0.4811 0.0
N188 N 0.76014 0.57118 0.47702 0.0
C189 C 0.84234 0.63997 0.48185 0.0
C190 C 0.8017 0.68714 0.48665 0.0
C191 C 0.7402 0.67529 0.48587 0.0
C192 C 0.81943 0.58219 0.47651 0.0
H193 H 0.67255 0.60756 0.47939 0.0
C194 C 0.60766 0.49363 0.45353 0.0
O195 O 0.60976 0.47082 0.28772 0.0
O196 O 0.64858 0.55628 0.31584 0.0
N197 N 0.83013 0.48146 0.45636 0.0
C198 C 0.86317 0.43184 0.44547 0.0
C199 C 0.92557 0.43622 0.44315 0.0
C200 C 0.95336 0.49148 0.45201 0.0
C201 C 0.91849 0.54181 0.46348 0.0
C202 C 0.85654 0.53449 0.46631 0.0
H203 H 0.84212 0.38925 0.43843 0.0
O204 O 0.7443 0.47788 0.30342 0.0
O205 O 0.7373 0.50725 0.38763 0.0
O206 O 0.68694 0.3924 0.37007 0.0
O207 O 0.73382 0.40282 0.45007 0.0
C208 C 0.94266 0.59918 0.47108 0.0
C209 C 0.90458 0.64833 0.4798 0.0
H210 H 0.81731 0.73271 0.4893 0.0
H211 H 0.70847 0.71146 0.48772 0.0
H212 H 0.95218 0.39715 0.43433 0.0
H213 H 0.00147 0.49481 0.44961 0.0
H214 H 0.9904 0.6062 0.46914 0.0
H215 H 0.92356 0.69251 0.48406 0.0
Mn216 Mn 0.51831 0.16969 0.85307 0.0
Mn217 Mn 0.51099 0.24788 0.96801 0.0
C218 C 0.4996 0.27074 0.84982 0.0
C219 C 0.46734 0.11192 0.79063 0.0
C220 C 0.62725 0.21469 0.91409 0.0
O221 O 0.51317 0.10485 0.91031 0.0
O222 O 0.50287 0.16039 0.98497 0.0
C223 C 0.38377 0.2229 0.98796 0.0
N224 N 0.42879 0.26306 0.98222 0.0
C225 C 0.36011 0.34549 0.98597 0.0
C226 C 0.31311 0.30501 0.99244 0.0
C227 C 0.32498 0.24345 0.99304 0.0
C228 C 0.41772 0.32237 0.98028 0.0
H229 H 0.39256 0.17553 0.98733 0.0
C230 C 0.50621 0.10965 0.96105 0.0
O231 O 0.52505 0.10785 0.79461 0.0
O232 O 0.44019 0.14714 0.82361 0.0
N233 N 0.51798 0.33246 0.95856 0.0
C234 C 0.56746 0.36523 0.94669 0.0
C235 C 0.56312 0.42765 0.94344 0.0
C236 C 0.50804 0.45573 0.95236 0.0
C237 C 0.45786 0.42113 0.9648 0.0
C238 C 0.46516 0.35918 0.96859 0.0
H239 H 0.60994 0.34399 0.93969 0.0
O240 O 0.51798 0.24251 0.80747 0.0
O241 O 0.49055 0.238 0.89233 0.0
O242 O 0.605 0.18725 0.87364 0.0
O243 O 0.59635 0.23594 0.95289 0.0
C244 C 0.40068 0.44557 0.97269 0.0
C245 C 0.35171 0.40772 0.98276 0.0
H246 H 0.26766 0.32078 0.99535 0.0
H247 H 0.28893 0.21178 0.99623 0.0
H248 H 0.6021 0.45404 0.93391 0.0
H249 H 0.50475 0.50384 0.94934 0.0
H250 H 0.39366 0.4933 0.97002 0.0
H251 H 0.30765 0.42687 0.98728 0.0
Mn252 Mn 0.82493 0.01159 0.3609 0.0
Mn253 Mn 0.74892 0.01012 0.47797 0.0
C254 C 0.72405 0.99286 0.36061 0.0
C255 C 0.88097 0.9614 0.29631 0.0
C256 C 0.78041 0.12338 0.41859 0.0
O257 O 0.89113 0.00727 0.41692 0.0
O258 O 0.83692 0.0051 0.49306 0.0
C259 C 0.77643 0.88966 0.51969 0.0
N260 N 0.73591 0.92965 0.50055 0.0
C261 C 0.65449 0.8635 0.52106 0.0
C262 C 0.69534 0.82185 0.54128 0.0
C263 C 0.75654 0.83504 0.54069 0.0
C264 C 0.6768 0.91767 0.50159 0.0
H265 H 0.82346 0.89992 0.52016 0.0
C266 C 0.88714 0.00494 0.46811 0.0
O267 O 0.8845 0.01904 0.30095 0.0
O268 O 0.8475 0.93331 0.33029 0.0
N269 N 0.66414 0.01418 0.46916 0.0
C270 C 0.63007 0.06137 0.45315 0.0
C271 C 0.56776 0.05551 0.45161 0.0
C272 C 0.54106 0.00159 0.46726 0.0
C273 C 0.57694 0.95406 0.48454 0.0
C274 C 0.63886 0.96227 0.48467 0.0
H275 H 0.65024 0.10308 0.44135 0.0
O276 O 0.75121 0.01057 0.31745 0.0
O277 O 0.75749 0.98401 0.40294 0.0
O278 O 0.80847 0.09923 0.37956 0.0
O279 O 0.75812 0.09421 0.45774 0.0
C280 C 0.55364 0.89917 0.50238 0.0
C281 C 0.59236 0.85407 0.52099 0.0
H282 H 0.68012 0.78002 0.55821 0.0
H283 H 0.78822 0.80361 0.55725 0.0
H284 H 0.54036 0.09257 0.43864 0.0
H285 H 0.49295 0.9974 0.46641 0.0
H286 H 0.50596 0.89153 0.50275 0.0
H287 H 0.57387 0.81249 0.53562 0.0
C288 C 0.99514 0.50347 0.96399 0.0
C289 C 0.99684 0.44792 0.99067 0.0
H290 H 0.9961 0.59898 0.97095 0.0
C291 C 0.00092 0.44792 0.04713 0.0
H292 H 0.99193 0.50555 0.92056 0.0
C293 C 0.00324 0.50157 0.07601 0.0
C294 C 0.00159 0.55717 0.04945 0.0
H295 H 0.00235 0.40634 0.0693 0.0
H296 H 0.00646 0.49924 0.11944 0.0
C297 C 0.99745 0.55729 0.99295 0.0
C298 C 0.44201 0.49735 0.4892 0.0
C299 C 0.44318 0.50264 0.54561 0.0
H300 H 0.49217 0.4906 0.41614 0.0
C301 C 0.49914 0.50585 0.57129 0.0
H302 H 0.39999 0.49475 0.46785 0.0
C303 C 0.55222 0.50363 0.54155 0.0
C304 C 0.55109 0.49794 0.48517 0.0
H305 H 0.50216 0.51008 0.6146 0.0
H306 H 0.59422 0.50598 0.56296 0.0
C307 C 0.49513 0.495 0.45945 0.0
C308 C 0.50552 0.94444 0.99926 0.0
C309 C 0.49908 0.94611 0.05559 0.0
H310 H 0.51247 0.99361 0.9257 0.0
C311 C 0.49472 0.00243 0.08057 0.0
H312 H 0.50895 0.90222 0.97832 0.0
C313 C 0.49662 0.05531 0.05015 0.0
C314 C 0.50297 0.05354 0.99379 0.0
H315 H 0.48958 0.00584 0.12377 0.0
H316 H 0.49317 0.09761 0.07095 0.0
C317 C 0.50742 0.9972 0.96891 0.0
C318 C 0.94229 0.99742 0.55675 0.0
C319 C 0.94357 0.0024 0.50028 0.0
H320 H 0.99228 0.99104 0.63005 0.0
C321 C -0.00039 0.00538 0.4748 0.0
H322 H 0.90021 0.99502 0.57798 0.0
C323 C 0.0526 0.00326 0.50476 0.0
C324 C 0.05137 0.99794 0.5612 0.0
H325 H 0.00274 0.00937 0.43148 0.0
H326 H 0.09464 0.00546 0.48345 0.0
C327 C 0.99534 0.99519 0.58673 0.0
C328 C 0.22008 0.74088 0.08394 0.0
C329 C 0.18981 0.73064 0.13251 0.0
H330 H 0.30118 0.76749 0.04598 0.0
C331 C 0.21941 0.741 0.18142 0.0
H332 H 0.19816 0.7338 0.04562 0.0
C333 C 0.27819 0.76181 0.18162 0.0
C334 C 0.30842 0.77176 0.13291 0.0
H335 H 0.19668 0.73458 0.21942 0.0
H336 H 0.30037 0.76871 0.21983 0.0
C337 C 0.27881 0.76083 0.08414 0.0
C338 C 0.25598 0.71874 0.58269 0.0
C339 C 0.26667 0.68721 0.63058 0.0
H340 H 0.22992 0.80128 0.5466 0.0
C341 C 0.25731 0.71582 0.68012 0.0
H342 H 0.26233 0.69761 0.54392 0.0
C343 C 0.2371 0.77485 0.68165 0.0
C344 C 0.2269 0.80643 0.63366 0.0
H345 H 0.26414 0.69217 0.71763 0.0
H346 H 0.23091 0.79618 0.72035 0.0
C347 C 0.23684 0.77785 0.58422 0.0
C348 C 0.72057 0.24245 0.96224 0.0
C349 C 0.69129 0.22929 0.91376 0.0
H350 H 0.8012 0.27091 1.0001 0.0
C351 C 0.72184 0.23709 0.86488 0.0
H352 H 0.69796 0.23748 1.00048 0.0
C353 C 0.78063 0.25783 0.8646 0.0
C354 C 0.81 0.27019 0.91322 0.0
H355 H 0.69994 0.22841 0.82683 0.0
H356 H 0.80358 0.26254 0.8265 0.0
C357 C 0.77942 0.2622 0.96199 0.0
C358 C 0.73742 0.27518 0.36517 0.0
C359 C 0.72703 0.30679 0.41308 0.0
H360 H 0.76463 0.19255 0.32938 0.0
C361 C 0.73682 0.2783 0.46261 0.0
H362 H 0.73133 0.29644 0.32642 0.0
C363 C 0.75592 0.21915 0.46428 0.0
C364 C 0.7668 0.18762 0.41645 0.0
H365 H 0.72973 0.30179 0.50016 0.0
H366 H 0.76211 0.19801 0.50308 0.0
C367 C 0.75764 0.2162 0.36685 0.0
C368 C 0.87579 0.49218 0.31349 0.0
C369 C 0.83025 0.52439 0.33927 0.0
H370 H 0.95586 0.49713 0.26623 0.0
C371 C 0.83542 0.58641 0.34436 0.0
H372 H 0.87182 0.44437 0.30819 0.0
C373 C 0.88262 0.61637 0.31989 0.0
C374 C 0.92545 0.58471 0.29027 0.0
H375 H 0.79994 0.6123 0.36253 0.0
H376 H 0.88294 0.66473 0.32035 0.0
C377 C 0.92375 0.52221 0.28964 0.0
C378 C 0.38143 0.38181 0.81926 0.0
C379 C 0.41364 0.42337 0.7886 0.0
H380 H 0.38467 0.30104 0.86514 0.0
C381 C 0.47609 0.42145 0.78897 0.0
H382 H 0.33312 0.38235 0.81909 0.0
C383 C 0.50557 0.37438 0.81487 0.0
C384 C 0.47293 0.32995 0.8418 0.0
H385 H 0.50163 0.4526 0.76492 0.0
H386 H 0.5534 0.37 0.81022 0.0
C387 C 0.4109 0.33564 0.846 0.0
C388 C 0.60759 0.87907 0.33361 0.0
C389 C 0.56861 0.91204 0.3008 0.0
H390 H 0.6871 0.88031 0.38149 0.0
C391 C 0.57344 0.97432 0.29941 0.0
H392 H 0.60479 0.83082 0.33479 0.0
C393 C 0.62117 0.00246 0.32536 0.0
C394 C 0.66349 0.96879 0.35406 0.0
H395 H 0.54434 0.00042 0.27377 0.0
H396 H 0.62803 0.0498 0.31905 0.0
C397 C 0.65438 0.90736 0.36063 0.0
C398 C 0.08855 0.15235 0.86187 0.0
C399 C 0.02773 0.16252 0.85284 0.0
H400 H 0.16483 0.0999 0.84065 0.0
C401 C 0.99429 0.11965 0.82461 0.0
H402 H 0.11548 0.18544 0.88234 0.0
C403 C 0.02235 0.07013 0.80143 0.0
C404 C 0.08434 0.06394 0.80523 0.0
H405 H 0.94744 0.12726 0.81646 0.0
H406 H 0.99674 0.04074 0.77568 0.0
C407 C 0.11675 0.10356 0.83785 0.0
C408 C 0.10963 0.37689 0.71414 0.0
C409 C 0.07066 0.40984 0.74691 0.0
H410 H 0.18838 0.37857 0.66532 0.0
C411 C 0.0745 0.4722 0.74733 0.0
H412 H 0.10751 0.32859 0.71364 0.0
C413 C 0.12141 0.50063 0.72051 0.0
C414 C 0.16385 0.46711 0.69187 0.0
H415 H 0.0453 0.49829 0.77285 0.0
H416 H 0.12771 0.54814 0.7262 0.0
C417 C 0.15553 0.40547 0.68614 0.0
C418 C 0.51891 0.5696 0.24729 0.0
C419 C 0.5809 0.56358 0.24287 0.0
H420 H 0.44368 0.62696 0.23379 0.0
C421 C 0.61302 0.60439 0.21133 0.0
H422 H 0.49361 0.53935 0.27246 0.0
C423 C 0.58469 0.65406 0.1892 0.0
C424 C 0.52379 0.66353 0.19828 0.0
H425 H 0.66111 0.601 0.20825 0.0
H426 H 0.61156 0.68804 0.16991 0.0
C427 C 0.49055 0.61979 0.2255 0.0
C428 C 0.42722 0.01703 0.75348 0.0
C429 C 0.43169 0.07932 0.75085 0.0
H430 H 0.37168 0.94092 0.73783 0.0
C431 C 0.38982 0.1117 0.72065 0.0
H432 H 0.45837 0.99149 0.77757 0.0
C433 C 0.34074 0.08305 0.69798 0.0
C434 C 0.33299 0.02155 0.70497 0.0
H435 H 0.39209 0.15997 0.71888 0.0
H436 H 0.30599 0.10987 0.67973 0.0
C437 C 0.37761 0.9883 0.73107 0.0
C438 C 0.90876 0.84365 0.19247 0.0
C439 C 0.97042 0.83567 0.19808 0.0
H440 H 0.83161 0.89081 0.22042 0.0
C441 C 0.00358 0.87784 0.2274 0.0
H442 H 0.88214 0.81096 0.17115 0.0
C443 C 0.97483 0.92417 0.25484 0.0
C444 C 0.9125 0.92763 0.25436 0.0
H445 H 0.05111 0.87176 0.23302 0.0
H446 H 0.00068 0.95318 0.28074 0.0
C447 C 0.87988 0.88894 0.22104 0.0
loop_
_geom_bond_atom_site_label_1
_geom_bond_atom_site_label_2
_geom_bond_distance
_geom_bond_site_symmetry_2
_ccdc_geom_bond_type
Mn0 O5 2.095 . S
Mn0 O15 2.162 1_455 S
Mn0 O16 2.297 1_455 S
Mn0 O24 2.385 1_455 S
Mn0 O25 2.209 1_455 S
Mn0 O26 2.094 . S
Mn1 O6 2.121 . S
Mn1 N8 2.257 1_455 S
Mn1 N17 2.282 . S
Mn1 O25 2.215 1_455 S
Mn1 O27 2.117 . S
C2 O24 1.234 . S
C2 O25 1.283 . S
C3 O15 1.281 . S
C3 O16 1.236 . S
C4 O26 1.240 . S
C4 O27 1.264 . S
O5 Mn0 2.095 . S
O5 C14 1.250 . S
O6 Mn1 2.121 . S
O6 C14 1.258 . S
C7 N8 1.326 1_556 S
C7 C11 1.460 . S
C7 H13 0.929 . S
N8 Mn1 2.257 1_655 S
N8 C7 1.326 1_554 S
N8 C12 1.362 . S
C9 C10 1.258 1_554 S
C9 C12 1.431 . S
C9 C29 1.449 . S
C10 C9 1.258 1_556 S
C10 C11 1.477 . S
C10 H30 0.931 . S
C11 C7 1.460 . S
C11 C10 1.477 . S
C11 H31 0.930 . S
C12 N8 1.362 . S
C12 C9 1.431 . S
C12 C22 1.476 1_655 S
H13 C7 0.929 . S
C14 O5 1.250 . S
C14 O6 1.258 . S
O15 Mn0 2.162 1_655 S
O15 C3 1.281 . S
O16 Mn0 2.297 1_655 S
O16 C3 1.236 . S
N17 Mn1 2.282 . S
N17 C18 1.328 . S
N17 C22 1.318 . S
C18 N17 1.328 . S
C18 C19 1.457 . S
C18 H23 0.929 . S
C19 C18 1.457 . S
C19 C20 1.291 . S
C19 H32 0.931 . S
C20 C19 1.291 . S
C20 C21 1.373 . S
C20 H33 0.929 . S
C21 C20 1.373 . S
C21 C22 1.396 . S
C21 C28 1.403 . S
C22 C12 1.476 1_455 S
C22 N17 1.318 . S
C22 C21 1.396 . S
H23 C18 0.929 . S
O24 Mn0 2.385 1_655 S
O24 C2 1.234 . S
O25 Mn0 2.209 1_655 S
O25 Mn1 2.215 1_655 S
O25 C2 1.283 . S
O26 Mn0 2.094 . S
O26 C4 1.240 . S
O27 Mn1 2.117 . S
O27 C4 1.264 . S
C28 C21 1.403 . S
C28 C29 1.399 1_455 S
C28 H34 0.929 1_565 S
C29 C9 1.449 . S
C29 C28 1.399 1_655 S
C29 H35 0.930 . S
H30 C10 0.931 . S
H31 C11 0.930 . S
H32 C19 0.931 . S
H33 C20 0.929 . S
H34 C28 0.929 1_545 S
H35 C29 0.930 . S
Mn36 O41 2.095 . S
Mn36 O51 2.162 . S
Mn36 O52 2.297 . S
Mn36 O60 2.385 . S
Mn36 O61 2.209 . S
Mn36 O62 2.094 . S
Mn37 O42 2.121 . S
Mn37 N44 2.257 . S
Mn37 N53 2.282 . S
Mn37 O61 2.215 . S
Mn37 O63 2.117 . S
C38 O60 1.234 . S
C38 O61 1.283 . S
C39 O51 1.281 . S
C39 O52 1.236 . S
C40 O62 1.240 . S
C40 O63 1.264 . S
O41 Mn36 2.095 . S
O41 C50 1.250 . S
O42 Mn37 2.121 . S
O42 C50 1.258 . S
C43 N44 1.326 . S
C43 C47 1.460 . S
C43 H49 0.929 . S
N44 Mn37 2.257 . S
N44 C43 1.326 . S
N44 C48 1.362 . S
C45 C46 1.258 . S
C45 C48 1.431 . S
C45 C65 1.449 . S
C46 C45 1.258 . S
C46 C47 1.477 . S
C46 H66 0.931 . S
C47 C43 1.460 . S
C47 C46 1.477 . S
C47 H67 0.930 . S
C48 N44 1.362 . S
C48 C45 1.431 . S
C48 C58 1.476 . S
H49 C43 0.929 . S
C50 O41 1.250 . S
C50 O42 1.258 . S
O51 Mn36 2.162 . S
O51 C39 1.281 . S
O52 Mn36 2.297 . S
O52 C39 1.236 . S
N53 Mn37 2.282 . S
N53 C54 1.328 . S
N53 C58 1.318 . S
C54 N53 1.328 . S
C54 C55 1.457 . S
C54 H59 0.929 . S
C55 C54 1.457 . S
C55 C56 1.291 . S
C55 H68 0.931 . S
C56 C55 1.291 . S
C56 C57 1.373 . S
C56 H69 0.929 . S
C57 C56 1.373 . S
C57 C58 1.396 . S
C57 C64 1.403 . S
C58 C48 1.476 . S
C58 N53 1.318 . S
C58 C57 1.396 . S
H59 C54 0.929 . S
O60 Mn36 2.385 . S
O60 C38 1.234 . S
O61 Mn36 2.209 . S
O61 Mn37 2.215 . S
O61 C38 1.283 . S
O62 Mn36 2.094 . S
O62 C40 1.240 . S
O63 Mn37 2.117 . S
O63 C40 1.264 . S
C64 C57 1.403 . S
C64 C65 1.399 . S
C64 H70 0.929 1_455 S
C65 C45 1.449 . S
C65 C64 1.399 . S
C65 H71 0.930 . S
H66 C46 0.931 . S
H67 C47 0.930 . S
H68 C55 0.931 . S
H69 C56 0.929 . S
H70 C64 0.929 1_655 S
H71 C65 0.930 . S
Mn72 O77 2.095 . S
Mn72 O87 2.162 . S
Mn72 O88 2.297 . S
Mn72 O96 2.385 . S
Mn72 O97 2.209 . S
Mn72 O98 2.094 . S
Mn73 O78 2.121 . S
Mn73 N80 2.257 . S
Mn73 N89 2.282 . S
Mn73 O97 2.215 . S
Mn73 O99 2.117 . S
C74 O96 1.234 . S
C74 O97 1.283 . S
C75 O87 1.281 . S
C75 O88 1.236 . S
C76 O98 1.240 . S
C76 O99 1.264 . S
O77 Mn72 2.095 . S
O77 C86 1.250 . S
O78 Mn73 2.121 . S
O78 C86 1.258 . S
C79 N80 1.326 1_556 S
C79 C83 1.460 . S
C79 H85 0.929 . S
N80 Mn73 2.257 . S
N80 C79 1.326 1_554 S
N80 C84 1.362 . S
C81 C82 1.258 1_554 S
C81 C84 1.431 . S
C81 C101 1.449 . S
C82 C81 1.258 1_556 S
C82 C83 1.477 . S
C82 H102 0.931 . S
C83 C79 1.460 . S
C83 C82 1.477 . S
C83 H103 0.930 . S
C84 N80 1.362 . S
C84 C81 1.431 . S
C84 C94 1.476 . S
H85 C79 0.929 . S
C86 O77 1.250 . S
C86 O78 1.258 . S
O87 Mn72 2.162 . S
O87 C75 1.281 . S
O88 Mn72 2.297 . S
O88 C75 1.236 . S
N89 Mn73 2.282 . S
N89 C90 1.328 . S
N89 C94 1.318 . S
C90 N89 1.328 . S
C90 C91 1.457 . S
C90 H95 0.929 . S
C91 C90 1.457 . S
C91 C92 1.291 . S
C91 H104 0.931 . S
C92 C91 1.291 . S
C92 C93 1.373 . S
C92 H105 0.929 . S
C93 C92 1.373 . S
C93 C94 1.396 . S
C93 C100 1.403 . S
C94 C84 1.476 . S
C94 N89 1.318 . S
C94 C93 1.396 . S
H95 C90 0.929 . S
O96 Mn72 2.385 . S
O96 C74 1.234 . S
O97 Mn72 2.209 . S
O97 Mn73 2.215 . S
O97 C74 1.283 . S
O98 Mn72 2.094 . S
O98 C76 1.240 . S
O99 Mn73 2.117 . S
O99 C76 1.264 . S
C100 C93 1.403 . S
C100 C101 1.399 . S
C100 H106 0.929 . S
C101 C81 1.449 . S
C101 C100 1.399 . S
C101 H107 0.930 . S
H102 C82 0.931 . S
H103 C83 0.930 . S
H104 C91 0.931 . S
H105 C92 0.929 . S
H106 C100 0.929 . S
H107 C101 0.930 . S
Mn108 O113 2.095 . S
Mn108 O123 2.162 1_565 S
Mn108 O124 2.297 1_565 S
Mn108 O132 2.385 1_565 S
Mn108 O133 2.209 1_565 S
Mn108 O134 2.094 . S
Mn109 O114 2.121 . S
Mn109 N116 2.257 1_565 S
Mn109 N125 2.282 . S
Mn109 O133 2.215 1_565 S
Mn109 O135 2.117 . S
C110 O132 1.234 . S
C110 O133 1.283 . S
C111 O123 1.281 . S
C111 O124 1.236 . S
C112 O134 1.240 . S
C112 O135 1.264 . S
O113 Mn108 2.095 . S
O113 C122 1.250 . S
O114 Mn109 2.121 . S
O114 C122 1.258 . S
C115 N116 1.326 . S
C115 C119 1.460 . S
C115 H121 0.929 . S
N116 Mn109 2.257 1_545 S
N116 C115 1.326 . S
N116 C120 1.362 . S
C117 C118 1.258 . S
C117 C120 1.431 . S
C117 C137 1.449 . S
C118 C117 1.258 . S
C118 C119 1.477 . S
C118 H138 0.931 . S
C119 C115 1.460 . S
C119 C118 1.477 . S
C119 H139 0.930 . S
C120 N116 1.362 . S
C120 C117 1.431 . S
C120 C130 1.476 1_545 S
H121 C115 0.929 . S
C122 O113 1.250 . S
C122 O114 1.258 . S
O123 Mn108 2.162 1_545 S
O123 C111 1.281 . S
O124 Mn108 2.297 1_545 S
O124 C111 1.236 . S
N125 Mn109 2.282 . S
N125 C126 1.328 . S
N125 C130 1.318 . S
C126 N125 1.328 . S
C126 C127 1.457 . S
C126 H131 0.929 . S
C127 C126 1.457 . S
C127 C128 1.291 . S
C127 H140 0.931 . S
C128 C127 1.291 . S
C128 C129 1.373 . S
C128 H141 0.929 . S
C129 C128 1.373 . S
C129 C130 1.396 . S
C129 C136 1.403 . S
C130 C120 1.476 1_565 S
C130 N125 1.318 . S
C130 C129 1.396 . S
H131 C126 0.929 . S
O132 Mn108 2.385 1_545 S
O132 C110 1.234 . S
O133 Mn108 2.209 1_545 S
O133 Mn109 2.215 1_545 S
O133 C110 1.283 . S
O134 Mn108 2.094 . S
O134 C112 1.240 . S
O135 Mn109 2.117 . S
O135 C112 1.264 . S
C136 C129 1.403 . S
C136 C137 1.399 1_565 S
C136 H142 0.929 . S
C137 C117 1.449 . S
C137 C136 1.399 1_545 S
C137 H143 0.930 . S
H138 C118 0.931 . S
H139 C119 0.930 . S
H140 C127 0.931 . S
H141 C128 0.929 . S
H142 C136 0.929 . S
H143 C137 0.930 . S
Mn144 O149 2.095 . S
Mn144 O159 2.162 1_655 S
Mn144 O160 2.297 1_655 S
Mn144 O168 2.385 1_655 S
Mn144 O169 2.209 1_655 S
Mn144 O170 2.094 . S
Mn145 O150 2.121 . S
Mn145 N152 2.257 1_655 S
Mn145 N161 2.282 . S
Mn145 O169 2.215 1_655 S
Mn145 O171 2.117 . S
C146 O168 1.234 . S
C146 O169 1.283 . S
C147 O159 1.281 . S
C147 O160 1.236 . S
C148 O170 1.240 . S
C148 O171 1.264 . S
O149 Mn144 2.095 . S
O149 C158 1.250 . S
O150 Mn145 2.121 . S
O150 C158 1.258 . S
C151 N152 1.326 1_554 S
C151 C155 1.460 . S
C151 H157 0.929 . S
N152 Mn145 2.257 1_455 S
N152 C151 1.326 1_556 S
N152 C156 1.362 . S
C153 C154 1.258 1_556 S
C153 C156 1.431 . S
C153 C173 1.449 . S
C154 C153 1.258 1_554 S
C154 C155 1.477 . S
C154 H174 0.931 . S
C155 C151 1.460 . S
C155 C154 1.477 . S
C155 H175 0.930 . S
C156 N152 1.362 . S
C156 C153 1.431 . S
C156 C166 1.476 1_455 S
H157 C151 0.929 . S
C158 O149 1.250 . S
C158 O150 1.258 . S
O159 Mn144 2.162 1_455 S
O159 C147 1.281 . S
O160 Mn144 2.297 1_455 S
O160 C147 1.236 . S
N161 Mn145 2.282 . S
N161 C162 1.328 . S
N161 C166 1.318 . S
C162 N161 1.328 . S
C162 C163 1.457 . S
C162 H167 0.929 . S
C163 C162 1.457 . S
C163 C164 1.291 . S
C163 H176 0.931 . S
C164 C163 1.291 . S
C164 C165 1.373 . S
C164 H177 0.929 . S
C165 C164 1.373 . S
C165 C166 1.396 . S
C165 C172 1.403 . S
C166 C156 1.476 1_655 S
C166 N161 1.318 . S
C166 C165 1.396 . S
H167 C162 0.929 . S
O168 Mn144 2.385 1_455 S
O168 C146 1.234 . S
O169 Mn144 2.209 1_455 S
O169 Mn145 2.215 1_455 S
O169 C146 1.283 . S
O170 Mn144 2.094 . S
O170 C148 1.240 . S
O171 Mn145 2.117 . S
O171 C148 1.264 . S
C172 C165 1.403 . S
C172 C173 1.399 1_655 S
C172 H178 0.929 1_545 S
C173 C153 1.449 . S
C173 C172 1.399 1_455 S
C173 H179 0.930 . S
H174 C154 0.931 . S
H175 C155 0.930 . S
H176 C163 0.931 . S
H177 C164 0.929 . S
H178 C172 0.929 1_565 S
H179 C173 0.930 . S
Mn180 O185 2.095 . S
Mn180 O195 2.162 . S
Mn180 O196 2.297 . S
Mn180 O204 2.385 . S
Mn180 O205 2.209 . S
Mn180 O206 2.094 . S
Mn181 O186 2.121 . S
Mn181 N188 2.257 . S
Mn181 N197 2.282 . S
Mn181 O205 2.215 . S
Mn181 O207 2.117 . S
C182 O204 1.234 . S
C182 O205 1.283 . S
C183 O195 1.281 . S
C183 O196 1.236 . S
C184 O206 1.240 . S
C184 O207 1.264 . S
O185 Mn180 2.095 . S
O185 C194 1.250 . S
O186 Mn181 2.121 . S
O186 C194 1.258 . S
C187 N188 1.326 . S
C187 C191 1.460 . S
C187 H193 0.929 . S
N188 Mn181 2.257 . S
N188 C187 1.326 . S
N188 C192 1.362 . S
C189 C190 1.258 . S
C189 C192 1.431 . S
C189 C209 1.449 . S
C190 C189 1.258 . S
C190 C191 1.477 . S
C190 H210 0.931 . S
C191 C187 1.460 . S
C191 C190 1.477 . S
C191 H211 0.930 . S
C192 N188 1.362 . S
C192 C189 1.431 . S
C192 C202 1.476 . S
H193 C187 0.929 . S
C194 O185 1.250 . S
C194 O186 1.258 . S
O195 Mn180 2.162 . S
O195 C183 1.281 . S
O196 Mn180 2.297 . S
O196 C183 1.236 . S
N197 Mn181 2.282 . S
N197 C198 1.328 . S
N197 C202 1.318 . S
C198 N197 1.328 . S
C198 C199 1.457 . S
C198 H203 0.929 . S
C199 C198 1.457 . S
C199 C200 1.291 . S
C199 H212 0.931 . S
C200 C199 1.291 . S
C200 C201 1.373 . S
C200 H213 0.929 . S
C201 C200 1.373 . S
C201 C202 1.396 . S
C201 C208 1.403 . S
C202 C192 1.476 . S
C202 N197 1.318 . S
C202 C201 1.396 . S
H203 C198 0.929 . S
O204 Mn180 2.385 . S
O204 C182 1.234 . S
O205 Mn180 2.209 . S
O205 Mn181 2.215 . S
O205 C182 1.283 . S
O206 Mn180 2.094 . S
O206 C184 1.240 . S
O207 Mn181 2.117 . S
O207 C184 1.264 . S
C208 C201 1.403 . S
C208 C209 1.399 . S
C208 H214 0.929 1_655 S
C209 C189 1.449 . S
C209 C208 1.399 . S
C209 H215 0.930 . S
H210 C190 0.931 . S
H211 C191 0.930 . S
H212 C199 0.931 . S
H213 C200 0.929 . S
H214 C208 0.929 1_455 S
H215 C209 0.930 . S
Mn216 O221 2.095 . S
Mn216 O231 2.162 . S
Mn216 O232 2.297 . S
Mn216 O240 2.385 . S
Mn216 O241 2.209 . S
Mn216 O242 2.094 . S
Mn217 O222 2.121 . S
Mn217 N224 2.257 . S
Mn217 N233 2.282 . S
Mn217 O241 2.215 . S
Mn217 O243 2.117 . S
C218 O240 1.234 . S
C218 O241 1.283 . S
C219 O231 1.281 . S
C219 O232 1.236 . S
C220 O242 1.240 . S
C220 O243 1.264 . S
O221 Mn216 2.095 . S
O221 C230 1.250 . S
O222 Mn217 2.121 . S
O222 C230 1.258 . S
C223 N224 1.326 1_554 S
C223 C227 1.460 . S
C223 H229 0.929 . S
N224 Mn217 2.257 . S
N224 C223 1.326 1_556 S
N224 C228 1.362 . S
C225 C226 1.258 1_556 S
C225 C228 1.431 . S
C225 C245 1.449 . S
C226 C225 1.258 1_554 S
C226 C227 1.477 . S
C226 H246 0.931 . S
C227 C223 1.460 . S
C227 C226 1.477 . S
C227 H247 0.930 . S
C228 N224 1.362 . S
C228 C225 1.431 . S
C228 C238 1.476 . S
H229 C223 0.929 . S
C230 O221 1.250 . S
C230 O222 1.258 . S
O231 Mn216 2.162 . S
O231 C219 1.281 . S
O232 Mn216 2.297 . S
O232 C219 1.236 . S
N233 Mn217 2.282 . S
N233 C234 1.328 . S
N233 C238 1.318 . S
C234 N233 1.328 . S
C234 C235 1.457 . S
C234 H239 0.929 . S
C235 C234 1.457 . S
C235 C236 1.291 . S
C235 H248 0.931 . S
C236 C235 1.291 . S
C236 C237 1.373 . S
C236 H249 0.929 . S
C237 C236 1.373 . S
C237 C238 1.396 . S
C237 C244 1.403 . S
C238 C228 1.476 . S
C238 N233 1.318 . S
C238 C237 1.396 . S
H239 C234 0.929 . S
O240 Mn216 2.385 . S
O240 C218 1.234 . S
O241 Mn216 2.209 . S
O241 Mn217 2.215 . S
O241 C218 1.283 . S
O242 Mn216 2.094 . S
O242 C220 1.240 . S
O243 Mn217 2.117 . S
O243 C220 1.264 . S
C244 C237 1.403 . S
C244 C245 1.399 . S
C244 H250 0.929 . S
C245 C225 1.449 . S
C245 C244 1.399 . S
C245 H251 0.930 . S
H246 C226 0.931 . S
H247 C227 0.930 . S
H248 C235 0.931 . S
H249 C236 0.929 . S
H250 C244 0.929 . S
H251 C245 0.930 . S
Mn252 O257 2.095 . S
Mn252 O267 2.162 1_545 S
Mn252 O268 2.297 1_545 S
Mn252 O276 2.385 1_545 S
Mn252 O277 2.209 1_545 S
Mn252 O278 2.094 . S
Mn253 O258 2.121 . S
Mn253 N260 2.257 1_545 S
Mn253 N269 2.282 . S
Mn253 O277 2.215 1_545 S
Mn253 O279 2.117 . S
C254 O276 1.234 . S
C254 O277 1.283 . S
C255 O267 1.281 . S
C255 O268 1.236 . S
C256 O278 1.240 . S
C256 O279 1.264 . S
O257 Mn252 2.095 . S
O257 C266 1.250 . S
O258 Mn253 2.121 . S
O258 C266 1.258 . S
C259 N260 1.326 . S
C259 C263 1.460 . S
C259 H265 0.929 . S
N260 Mn253 2.257 1_565 S
N260 C259 1.326 . S
N260 C264 1.362 . S
C261 C262 1.258 . S
C261 C264 1.431 . S
C261 C281 1.449 . S
C262 C261 1.258 . S
C262 C263 1.477 . S
C262 H282 0.931 . S
C263 C259 1.460 . S
C263 C262 1.477 . S
C263 H283 0.930 . S
C264 N260 1.362 . S
C264 C261 1.431 . S
C264 C274 1.476 1_565 S
H265 C259 0.929 . S
C266 O257 1.250 . S
C266 O258 1.258 . S
O267 Mn252 2.162 1_565 S
O267 C255 1.281 . S
O268 Mn252 2.297 1_565 S
O268 C255 1.236 . S
N269 Mn253 2.282 . S
N269 C270 1.328 . S
N269 C274 1.318 . S
C270 N269 1.328 . S
C270 C271 1.457 . S
C270 H275 0.929 . S
C271 C270 1.457 . S
C271 C272 1.291 . S
C271 H284 0.931 . S
C272 C271 1.291 . S
C272 C273 1.373 . S
C272 H285 0.929 . S
C273 C272 1.373 . S
C273 C274 1.396 . S
C273 C280 1.403 . S
C274 C264 1.476 1_545 S
C274 N269 1.318 . S
C274 C273 1.396 . S
H275 C270 0.929 . S
O276 Mn252 2.385 1_565 S
O276 C254 1.234 . S
O277 Mn252 2.209 1_565 S
O277 Mn253 2.215 1_565 S
O277 C254 1.283 . S
O278 Mn252 2.094 . S
O278 C256 1.240 . S
O279 Mn253 2.117 . S
O279 C256 1.264 . S
C280 C273 1.403 . S
C280 C281 1.399 1_545 S
C280 H286 0.929 . S
C281 C261 1.449 . S
C281 C280 1.399 1_565 S
C281 H287 0.930 . S
H282 C262 0.931 . S
H283 C263 0.930 . S
H284 C271 0.931 . S
H285 C272 0.929 . S
H286 C280 0.929 . S
H287 C281 0.930 . S
C288 C289 1.387 . S
C288 H292 0.950 . S
C288 C297 1.390 1_556 S
C289 C288 1.387 . S
C289 C291 1.387 1_655 S
H290 C297 0.950 . S
C291 C289 1.387 1_455 S
C291 C293 1.390 1_556 S
C291 H295 0.950 . S
H292 C288 0.950 . S
C293 C291 1.390 1_554 S
C293 C294 1.387 . S
C293 H296 0.950 . S
C294 C293 1.387 . S
C294 C297 1.387 1_455 S
H295 C291 0.950 . S
H296 C293 0.950 . S
C297 C288 1.390 1_554 S
C297 H290 0.950 . S
C297 C294 1.387 1_655 S
C298 C299 1.387 . S
C298 H302 0.950 . S
C298 C307 1.390 . S
C299 C298 1.387 . S
C299 C301 1.387 . S
H300 C307 0.950 . S
C301 C299 1.387 . S
C301 C303 1.390 . S
C301 H305 0.950 . S
H302 C298 0.950 . S
C303 C301 1.390 . S
C303 C304 1.387 . S
C303 H306 0.950 . S
C304 C303 1.387 . S
C304 C307 1.387 . S
H305 C301 0.950 . S
H306 C303 0.950 . S
C307 C298 1.390 . S
C307 H300 0.950 . S
C307 C304 1.387 . S
C308 C309 1.387 . S
C308 H312 0.950 . S
C308 C317 1.390 1_564 S
C309 C308 1.387 . S
C309 C311 1.387 . S
H310 C317 0.950 . S
C311 C309 1.387 . S
C311 C313 1.390 1_564 S
C311 H315 0.950 . S
H312 C308 0.950 . S
C313 C311 1.390 1_546 S
C313 C314 1.387 . S
C313 H316 0.950 . S
C314 C313 1.387 . S
C314 C317 1.387 . S
H315 C311 0.950 . S
H316 C313 0.950 . S
C317 C308 1.390 1_546 S
C317 H310 0.950 . S
C317 C314 1.387 . S
C318 C319 1.387 1_565 S
C318 H322 0.950 . S
C318 C327 1.390 1_655 S
C319 C318 1.387 1_545 S
C319 C321 1.387 . S
H320 C327 0.950 . S
C321 C319 1.387 . S
C321 C323 1.390 1_655 S
C321 H325 0.950 . S
H322 C318 0.950 . S
C323 C321 1.390 1_455 S
C323 C324 1.387 1_545 S
C323 H326 0.950 . S
C324 C323 1.387 1_565 S
C324 C327 1.387 . S
H325 C321 0.950 . S
H326 C323 0.950 . S
C327 C318 1.390 1_455 S
C327 H320 0.950 . S
C327 C324 1.387 . S
C328 C329 1.387 . S
C328 H332 0.950 . S
C328 C337 1.390 . S
C329 C328 1.387 . S
C329 C331 1.387 . S
H330 C337 0.950 . S
C331 C329 1.387 . S
C331 C333 1.390 . S
C331 H335 0.950 . S
H332 C328 0.950 . S
C333 C331 1.390 . S
C333 C334 1.387 . S
C333 H336 0.950 . S
C334 C333 1.387 . S
C334 C337 1.387 . S
H335 C331 0.950 . S
H336 C333 0.950 . S
C337 C328 1.390 . S
C337 H330 0.950 . S
C337 C334 1.387 . S
C338 C339 1.387 . S
C338 H342 0.950 . S
C338 C347 1.390 . S
C339 C338 1.387 . S
C339 C341 1.387 . S
H340 C347 0.950 . S
C341 C339 1.387 . S
C341 C343 1.390 . S
C341 H345 0.950 . S
H342 C338 0.950 . S
C343 C341 1.390 . S
C343 C344 1.387 . S
C343 H346 0.950 . S
C344 C343 1.387 . S
C344 C347 1.387 . S
H345 C341 0.950 . S
H346 C343 0.950 . S
C347 C338 1.390 . S
C347 H340 0.950 . S
C347 C344 1.387 . S
C348 C349 1.387 . S
C348 H352 0.950 . S
C348 C357 1.390 . S
C349 C348 1.387 . S
C349 C351 1.387 . S
H350 C357 0.950 . S
C351 C349 1.387 . S
C351 C353 1.390 . S
C351 H355 0.950 . S
H352 C348 0.950 . S
C353 C351 1.390 . S
C353 C354 1.387 . S
C353 H356 0.950 . S
C354 C353 1.387 . S
C354 C357 1.387 . S
H355 C351 0.950 . S
H356 C353 0.950 . S
C357 C348 1.390 . S
C357 H350 0.950 . S
C357 C354 1.387 . S
C358 C359 1.387 . S
C358 H362 0.950 . S
C358 C367 1.390 . S
C359 C358 1.387 . S
C359 C361 1.387 . S
H360 C367 0.950 . S
C361 C359 1.387 . S
C361 C363 1.390 . S
C361 H365 0.950 . S
H362 C358 0.950 . S
C363 C361 1.390 . S
C363 C364 1.387 . S
C363 H366 0.950 . S
C364 C363 1.387 . S
C364 C367 1.387 . S
H365 C361 0.950 . S
H366 C363 0.950 . S
C367 C358 1.390 . S
C367 H360 0.950 . S
C367 C364 1.387 . S
C368 C369 1.387 . S
C368 H372 0.950 . S
C368 C377 1.390 . S
C369 C368 1.387 . S
C369 C371 1.387 . S
H370 C377 0.950 . S
C371 C369 1.387 . S
C371 C373 1.390 . S
C371 H375 0.950 . S
H372 C368 0.950 . S
C373 C371 1.390 . S
C373 C374 1.387 . S
C373 H376 0.950 . S
C374 C373 1.387 . S
C374 C377 1.387 . S
H375 C371 0.950 . S
H376 C373 0.950 . S
C377 C368 1.390 . S
C377 H370 0.950 . S
C377 C374 1.387 . S
C378 C379 1.387 . S
C378 H382 0.950 . S
C378 C387 1.390 . S
C379 C378 1.387 . S
C379 C381 1.387 . S
H380 C387 0.950 . S
C381 C379 1.387 . S
C381 C383 1.390 . S
C381 H385 0.950 . S
H382 C378 0.950 . S
C383 C381 1.390 . S
C383 C384 1.387 . S
C383 H386 0.950 . S
C384 C383 1.387 . S
C384 C387 1.387 . S
H385 C381 0.950 . S
H386 C383 0.950 . S
C387 C378 1.390 . S
C387 H380 0.950 . S
C387 C384 1.387 . S
C388 C389 1.387 . S
C388 H392 0.950 . S
C388 C397 1.390 . S
C389 C388 1.387 . S
C389 C391 1.387 . S
H390 C397 0.950 . S
C391 C389 1.387 . S
C391 C393 1.390 . S
C391 H395 0.950 1_565 S
H392 C388 0.950 . S
C393 C391 1.390 . S
C393 C394 1.387 . S
C393 H396 0.950 1_565 S
C394 C393 1.387 . S
C394 C397 1.387 . S
H395 C391 0.950 1_545 S
H396 C393 0.950 1_545 S
C397 C388 1.390 . S
C397 H390 0.950 . S
C397 C394 1.387 . S
C398 C399 1.387 . S
C398 H402 0.950 . S
C398 C407 1.390 . S
C399 C398 1.387 . S
C399 C401 1.387 . S
H400 C407 0.950 . S
C401 C399 1.387 . S
C401 C403 1.390 . S
C401 H405 0.950 1_455 S
H402 C398 0.950 . S
C403 C401 1.390 . S
C403 C404 1.387 . S
C403 H406 0.950 1_455 S
C404 C403 1.387 . S
C404 C407 1.387 . S
H405 C401 0.950 1_655 S
H406 C403 0.950 1_655 S
C407 C398 1.390 . S
C407 H400 0.950 . S
C407 C404 1.387 . S
C408 C409 1.387 . S
C408 H412 0.950 . S
C408 C417 1.390 . S
C409 C408 1.387 . S
C409 C411 1.387 . S
H410 C417 0.950 . S
C411 C409 1.387 . S
C411 C413 1.390 . S
C411 H415 0.950 . S
H412 C408 0.950 . S
C413 C411 1.390 . S
C413 C414 1.387 . S
C413 H416 0.950 . S
C414 C413 1.387 . S
C414 C417 1.387 . S
H415 C411 0.950 . S
H416 C413 0.950 . S
C417 C408 1.390 . S
C417 H410 0.950 . S
C417 C414 1.387 . S
C418 C419 1.387 . S
C418 H422 0.950 . S
C418 C427 1.390 . S
C419 C418 1.387 . S
C419 C421 1.387 . S
H420 C427 0.950 . S
C421 C419 1.387 . S
C421 C423 1.390 . S
C421 H425 0.950 . S
H422 C418 0.950 . S
C423 C421 1.390 . S
C423 C424 1.387 . S
C423 H426 0.950 . S
C424 C423 1.387 . S
C424 C427 1.387 . S
H425 C421 0.950 . S
H426 C423 0.950 . S
C427 C418 1.390 . S
C427 H420 0.950 . S
C427 C424 1.387 . S
C428 C429 1.387 . S
C428 H432 0.950 1_545 S
C428 C437 1.390 1_545 S
C429 C428 1.387 . S
C429 C431 1.387 . S
H430 C437 0.950 . S
C431 C429 1.387 . S
C431 C433 1.390 . S
C431 H435 0.950 . S
H432 C428 0.950 1_565 S
C433 C431 1.390 . S
C433 C434 1.387 . S
C433 H436 0.950 . S
C434 C433 1.387 . S
C434 C437 1.387 1_545 S
H435 C431 0.950 . S
H436 C433 0.950 . S
C437 C428 1.390 1_565 S
C437 H430 0.950 . S
C437 C434 1.387 1_565 S
C438 C439 1.387 . S
C438 H442 0.950 . S
C438 C447 1.390 . S
C439 C438 1.387 . S
C439 C441 1.387 1_655 S
H440 C447 0.950 . S
C441 C439 1.387 1_455 S
C441 C443 1.390 1_455 S
C441 H445 0.950 . S
H442 C438 0.950 . S
C443 C441 1.390 1_655 S
C443 C444 1.387 . S
C443 H446 0.950 1_655 S
C444 C443 1.387 . S
C444 C447 1.387 . S
H445 C441 0.950 . S
H446 C443 0.950 1_455 S
C447 C438 1.390 . S
C447 H440 0.950 . S
C447 C444 1.387 . S
C289 C158 1.677 . S
C294 C14 1.677 . S
C299 C50 1.677 . S
C304 C194 1.677 . S
C309 C86 1.677 . S
C314 C230 1.677 . S
C319 C266 1.678 . S
C324 C122 1.678 . S
C329 C4 1.473 . S
C334 C76 1.473 . S
C339 C40 1.473 . S
C344 C112 1.473 . S
C349 C220 1.469 . S
C354 C148 1.469 . S
C359 C184 1.473 . S
C364 C256 1.473 . S
C369 C182 1.136 . S
C374 C3 1.166 . S
C379 C39 1.168 . S
C384 C218 1.133 . S
C389 C75 1.168 . S
C394 C254 1.134 . S
C399 C146 1.134 . S
C404 C111 1.168 . S
C409 C147 1.166 . S
C414 C38 1.136 . S
C419 C183 1.168 . S
C424 C74 1.133 . S
C429 C219 1.167 . S
C434 C110 1.133 . S
C439 C2 1.136 . S
C444 C255 1.166 . S
