# Generated by pormake.
# Topology unh, (4)-cn, num edge types: 1
# Building blocks:
#     Node 0, Type 0, BuildingBlock: MUDLON_clean_sbu_0, # of connection points: 4
#     Node 1, Type 0, BuildingBlock: MUDLON_clean_sbu_0, # of connection points: 4
#     Node 2, Type 0, BuildingBlock: MUDLON_clean_sbu_0, # of connection points: 4
#     Node 3, Type 0, BuildingBlock: MUDLON_clean_sbu_0, # of connection points: 4
#     Node 4, Type 0, BuildingBlock: MUDLON_clean_sbu_0, # of connection points: 4
#     Node 5, Type 0, BuildingBlock: MUDLON_clean_sbu_0, # of connection points: 4
#     Edge 6, Type (0, 0), BuildingBlock: CIFDUS_clean_linker_0, # of connection points: 2
#     Edge 7, Type (0, 0), BuildingBlock: CIFDUS_clean_linker_0, # of connection points: 2
#     Edge 8, Type (0, 0), BuildingBlock: CIFDUS_clean_linker_0, # of connection points: 2
#     Edge 9, Type (0, 0), BuildingBlock: CIFDUS_clean_linker_0, # of connection points: 2
#     Edge 10, Type (0, 0), BuildingBlock: CIFDUS_clean_linker_0, # of connection points: 2
#     Edge 11, Type (0, 0), BuildingBlock: CIFDUS_clean_linker_0, # of connection points: 2
#     Edge 12, Type (0, 0), BuildingBlock: CIFDUS_clean_linker_0, # of connection points: 2
#     Edge 13, Type (0, 0), BuildingBlock: CIFDUS_clean_linker_0, # of connection points: 2
#     Edge 14, Type (0, 0), BuildingBlock: CIFDUS_clean_linker_0, # of connection points: 2
#     Edge 15, Type (0, 0), BuildingBlock: CIFDUS_clean_linker_0, # of connection points: 2
#     Edge 16, Type (0, 0), BuildingBlock: CIFDUS_clean_linker_0, # of connection points: 2
#     Edge 17, Type (0, 0), BuildingBlock: CIFDUS_clean_linker_0, # of connection points: 2
# Relax obj value: 0.034
# Max RMSD: 0.245
# Mean RMSD: 0.245
data_MOF--net-unh--node1-MUDLON_clean_sbu_0--edge1-CIFDUS_clean_linker_0
_symmetry_space_group_name_H-M    P1
_symmetry_Int_Tables_number       1
_symmetry_cell_setting            triclinic
loop_
_symmetry_equiv_pos_as_xyz
'x, y, z'
_cell_length_a     38.992041
_cell_length_b     39.015489
_cell_length_c     20.563464
_cell_angle_alpha  90.801133
_cell_angle_beta   89.551294
_cell_angle_gamma 120.52027
loop_
_atom_site_label
_atom_site_type_symbol
_atom_site_fract_x
_atom_site_fract_y
_atom_site_fract_z
_atom_type_partial_charge
Mg0 Mg 0.15402 0.57944 0.07877 0.0
C1 C 0.1981 0.65598 1.00324 0.0
O2 O 0.17565 0.63197 0.95644 0.0
C3 C 0.10467 0.58237 0.19674 0.0
O4 O 0.13842 0.61232 0.21829 0.0
C5 C 0.19522 0.55419 0.17734 0.0
O6 O 0.17165 0.55834 0.21855 0.0
O7 O 0.1925 0.55918 0.11701 0.0
O8 O 0.19335 0.64268 0.06081 0.0
O9 O 0.12869 0.55046 0.98616 0.0
C10 C 0.09261 0.5225 0.98218 0.0
O11 O 0.07148 0.50929 0.03571 0.0
O12 O 0.10409 0.56551 0.14309 0.0
Mg13 Mg 0.58698 0.14804 0.27503 0.0
C14 C 0.56947 0.1995 0.19172 0.0
O15 O 0.58397 0.18513 0.14844 0.0
C16 C 0.57371 0.09588 0.38513 0.0
O17 O 0.61026 0.10747 0.36633 0.0
C18 C 0.6449 0.20557 0.36312 0.0
O19 O 0.60947 0.1963 0.38493 0.0
O20 O 0.6469 0.18826 0.3115 0.0
O21 O 0.56532 0.18774 0.25016 0.0
O22 O 0.57906 0.11021 0.19078 0.0
C23 C 0.54326 0.09294 0.17074 0.0
O24 O 0.51776 0.09974 0.20212 0.0
O25 O 0.5542 0.10853 0.35454 0.0
Mg26 Mg 0.44144 0.5719 0.45391 0.0
C27 C 0.37627 0.55815 0.36154 0.0
O28 O 0.40621 0.56938 0.32099 0.0
C29 C 0.46516 0.52748 0.54374 0.0
O30 O 0.49123 0.53605 0.49678 0.0
C31 C 0.48437 0.64407 0.54267 0.0
O32 O 0.48662 0.61771 0.57856 0.0
O33 O 0.46961 0.63397 0.48577 0.0
O34 O 0.38191 0.55561 0.42171 0.0
O35 O 0.47055 0.55904 0.37394 0.0
C36 C 0.45126 0.52292 0.35479 0.0
O37 O 0.41775 0.49851 0.38452 0.0
O38 O 0.43897 0.53748 0.53791 0.0
Mg39 Mg 0.88745 0.45828 0.58841 0.0
C40 C 0.85196 0.38286 0.49889 0.0
O41 O 0.88878 0.39614 0.47974 0.0
C42 C 0.95355 0.46269 0.67104 0.0
O43 O 0.9744 0.4806 0.61899 0.0
C44 C 0.84715 0.4847 0.68714 0.0
O45 O 0.86491 0.47254 0.72688 0.0
O46 O 0.85265 0.48379 0.62615 0.0
O47 O 0.84482 0.40222 0.54184 0.0
O48 O 0.93393 0.49789 0.52145 0.0
C49 C 0.92989 0.49645 0.46003 0.0
O50 O 0.89508 0.47139 0.43434 0.0
O51 O 0.91614 0.44865 0.67059 0.0
Mg52 Mg 0.46623 0.88227 0.76859 0.0
C53 C 0.4775 0.83455 0.66786 0.0
O54 O 0.46136 0.85198 0.63655 0.0
C55 C 0.48707 0.94168 0.87021 0.0
O56 O 0.4592 0.94215 0.83534 0.0
C57 C 0.39378 0.83638 0.85218 0.0
O58 O 0.42204 0.85053 0.8963 0.0
O59 O 0.40327 0.8459 0.79302 0.0
O60 O 0.48472 0.8421 0.72832 0.0
O61 O 0.47919 0.92613 0.69401 0.0
C62 C 0.51637 0.94764 0.68368 0.0
O63 O 0.54076 0.94138 0.71849 0.0
O64 O 0.49822 0.91723 0.85409 0.0
Mg65 Mg 0.59609 0.4583 0.95151 0.0
C66 C 0.67139 0.49339 0.87086 0.0
O67 O 0.64688 0.49391 0.82797 0.0
C68 C 0.54989 0.46946 0.05678 0.0
O69 O 0.52485 0.43348 0.0347 0.0
C70 C 0.57724 0.38913 0.03867 0.0
O71 O 0.59038 0.41772 0.08272 0.0
O72 O 0.57522 0.39731 0.97967 0.0
O73 O 0.65903 0.48265 0.92871 0.0
O74 O 0.56679 0.4588 0.86228 0.0
C75 C 0.53947 0.46737 0.85842 0.0
O76 O 0.52591 0.47521 0.91181 0.0
O77 O 0.58408 0.48886 0.0304 0.0
H78 H 1.01414 0.47151 0.95703 0.0
H79 H 0.12758 0.5435 0.86234 0.0
H80 H 0.09465 0.52795 0.75667 0.0
H81 H 0.03328 0.49911 0.69242 0.0
H82 H 0.91962 0.4293 0.78761 0.0
H83 H 0.95311 0.43851 0.89164 0.0
C84 C 0.03177 0.48341 0.91325 0.0
C85 C 0.07325 0.50894 0.91777 0.0
C86 C 1.01257 0.47495 0.85269 0.0
C87 C 0.09558 0.52397 0.86041 0.0
C88 C 0.07676 0.51516 0.7999 0.0
C89 C 1.0158 0.48545 0.73572 0.0
C90 C 0.97396 0.46385 0.73221 0.0
C91 C 0.0352 0.49147 0.79564 0.0
C92 C 0.95185 0.44627 0.78888 0.0
C93 C 0.97098 0.4516 0.84849 0.0
H94 H 0.45915 0.98583 0.92503 0.0
H95 H 0.55264 0.95829 0.9438 0.0
H96 H 0.57977 1.0041 0.03732 0.0
H97 H 0.57609 0.05178 0.11472 0.0
H98 H 0.48007 0.07578 0.09531 0.0
H99 H 0.45504 0.03179 1.00086 0.0
C100 C 0.48555 0.98981 0.94932 0.0
C101 C 0.50389 0.96873 0.92731 0.0
C102 C 0.5006 0.01571 1.00301 0.0
C103 C 0.53789 0.97412 0.95986 0.0
C104 C 0.55345 1.00037 1.01322 0.0
C105 C 0.54986 0.04747 0.08945 0.0
C106 C 0.52998 0.06704 0.11207 0.0
C107 C 0.53501 0.02136 0.03533 0.0
C108 C 0.49581 0.06093 0.07924 0.0
C109 C 0.48144 0.03579 0.02509 0.0
H110 H 0.52116 0.5628 0.28574 0.0
H111 H 0.41219 0.44923 0.2997 0.0
H112 H 0.43312 0.4233 0.20941 0.0
H113 H 0.48173 0.43218 0.12653 0.0
H114 H 0.59149 0.54463 0.11088 0.0
H115 H 0.57088 0.57155 0.20162 0.0
C116 C 0.50204 0.53241 0.26895 0.0
C117 C 0.46512 0.50808 0.29966 0.0
C118 C 0.51435 0.51739 0.21666 0.0
C119 C 0.44077 0.46871 0.27729 0.0
C120 C 0.45267 0.45376 0.22548 0.0
C121 C 0.50125 0.46263 0.14274 0.0
C122 C 0.53808 0.48634 0.11175 0.0
C123 C 0.48933 0.47777 0.19484 0.0
C124 C 0.56295 0.52569 0.13383 0.0
C125 C 0.55117 0.5411 0.18572 0.0
H126 H 0.93545 0.48894 0.32923 0.0
H127 H 1.00396 0.55599 0.49667 0.0
H128 H 0.06362 0.59041 0.42926 0.0
H129 H 0.09728 0.59865 0.32393 0.0
H130 H 0.02891 0.5294 0.15785 0.0
H131 H 0.96843 0.49893 0.22346 0.0
C132 C 0.96331 0.51139 0.35091 0.0
C133 C 0.96516 0.51976 0.41797 0.0
C134 C 0.9977 0.53057 0.31212 0.0
C135 C 1.00165 0.54883 0.44521 0.0
C136 C 0.03584 0.56852 0.40671 0.0
C137 C 0.06909 0.57719 0.30195 0.0
C138 C 0.06775 0.56627 0.2361 0.0
C139 C 0.03437 0.55921 0.34028 0.0
C140 C 0.03093 0.53823 0.20851 0.0
C141 C 0.99625 0.52075 0.24599 0.0
H142 H 0.61249 0.07552 0.47012 0.0
H143 H 0.49553 0.05466 0.42463 0.0
H144 H 0.46712 1.00721 0.51398 0.0
H145 H 0.47567 0.97028 0.60343 0.0
H146 H 0.59368 0.9931 0.64749 0.0
H147 H 0.62137 0.04114 0.56033 0.0
C148 C 0.58075 0.06066 0.47962 0.0
C149 C 0.55614 0.06841 0.44049 0.0
C150 C 0.56476 0.03367 0.53086 0.0
C151 C 0.51514 0.04918 0.45404 0.0
C152 C 0.49888 0.022 0.50503 0.0
C153 C 0.50743 0.98588 0.59402 0.0
C154 C 0.53246 0.97787 0.63187 0.0
C155 C 0.5234 1.01379 0.54353 0.0
C156 C 0.57361 0.9985 0.6192 0.0
C157 C 0.58957 0.02604 0.56923 0.0
H158 H 0.48051 0.4832 0.83157 0.0
H159 H 0.56836 0.46238 0.73958 0.0
H160 H 0.55093 0.47628 0.63364 0.0
H161 H 0.5143 0.49894 0.568 0.0
H162 H 0.42658 0.5202 0.65909 0.0
H163 H 0.44011 0.50107 0.76421 0.0
C164 C 0.49562 0.48138 0.78831 0.0
C165 C 0.52598 0.47214 0.79377 0.0
C166 C 0.48556 0.48959 0.72729 0.0
C167 C 0.545 0.46959 0.73703 0.0
C168 C 0.53511 0.47761 0.6763 0.0
C169 C 0.49784 0.49906 0.61069 0.0
C170 C 0.46975 0.51135 0.60572 0.0
C171 C 0.50598 0.48835 0.67102 0.0
C172 C 0.44844 0.51094 0.66149 0.0
C173 C 0.45628 0.50016 0.72173 0.0
H174 H 0.21183 0.54617 0.30294 0.0
H175 H 0.25277 0.55085 0.10572 0.0
H176 H 0.31112 0.55011 0.14546 0.0
H177 H 0.35296 0.55304 0.23607 0.0
H178 H 0.31265 0.54869 0.43349 0.0
H179 H 0.25154 0.54413 0.39368 0.0
C180 C 0.23328 0.54661 0.26857 0.0
C181 C 0.22801 0.54894 0.20142 0.0
C182 C 0.26705 0.5465 0.29177 0.0
C183 C 0.25606 0.54924 0.15765 0.0
C184 C 0.28956 0.54893 0.18033 0.0
C185 C 0.33072 0.55083 0.27047 0.0
C186 C 0.33761 0.55163 0.33769 0.0
C187 C 0.29576 0.54838 0.24729 0.0
C188 C 0.30821 0.54828 0.3815 0.0
C189 C 0.27327 0.54577 0.35876 0.0
H190 H 0.7237 0.23804 0.32869 0.0
H191 H 0.64669 0.24308 0.47597 0.0
H192 H 0.70375 0.29674 0.5316 0.0
H193 H 0.77482 0.34424 0.53693 0.0
H194 H 0.85341 0.34089 0.39143 0.0
H195 H 0.79663 0.28456 0.33724 0.0
C196 C 0.71951 0.25075 0.37315 0.0
C197 C 0.68081 0.23661 0.39765 0.0
C198 C 0.75273 0.28203 0.40533 0.0
C199 C 0.67597 0.25339 0.45552 0.0
C200 C 0.70864 0.28419 0.4876 0.0
C201 C 0.77969 0.33117 0.49349 0.0
C202 C 0.81832 0.347 0.46812 0.0
C203 C 0.74704 0.29905 0.46259 0.0
C204 C 0.82398 0.32935 0.41207 0.0
C205 C 0.79148 0.29718 0.38092 0.0
H206 H 0.50142 0.78556 0.71899 0.0
H207 H 0.46719 0.81558 0.53895 0.0
H208 H 0.47 0.76173 0.48291 0.0
H209 H 0.47649 0.70257 0.48649 0.0
H210 H 0.50981 0.67148 0.66629 0.0
H211 H 0.51355 0.72937 0.72025 0.0
C212 C 0.49502 0.7806 0.66736 0.0
C213 C 0.48363 0.80436 0.63359 0.0
C214 C 0.49636 0.74919 0.63518 0.0
C215 C 0.47564 0.79758 0.56653 0.0
C216 C 0.47723 0.76672 0.53424 0.0
C217 C 0.48511 0.70871 0.53724 0.0
C218 C 0.49244 0.68239 0.57228 0.0
C219 C 0.4867 0.7418 0.56833 0.0
C220 C 0.50378 0.69105 0.63802 0.0
C221 C 0.50579 0.72413 0.66912 0.0
H222 H 0.7028 0.50987 0.74888 0.0
H223 H 0.72694 0.48792 0.9437 0.0
H224 H 0.78565 0.48677 0.90452 0.0
H225 H 0.82632 0.4857 0.81356 0.0
H226 H 0.80089 0.50567 0.61832 0.0
H227 H 0.74668 0.51415 0.65929 0.0
C228 C 0.72115 0.50535 0.78305 0.0
C229 C 0.71015 0.49861 0.84912 0.0
C230 C 0.75449 0.50403 0.76001 0.0
C231 C 0.73451 0.49302 0.89258 0.0
C232 C 0.76805 0.49221 0.87015 0.0
C233 C 0.80924 0.49234 0.77994 0.0
C234 C 0.81749 0.49461 0.71279 0.0
C235 C 0.77773 0.49667 0.80373 0.0
C236 C 0.79513 0.50351 0.67015 0.0
C237 C 0.76403 0.5083 0.69354 0.0
H238 H 0.36435 0.81287 0.97399 0.0
H239 H 0.3303 0.79181 0.77163 0.0
H240 H 0.26486 0.73643 0.80152 0.0
H241 H 0.21991 0.69014 0.88402 0.0
H242 H 0.25476 0.71046 0.08612 0.0
H243 H 0.31706 0.77028 0.05733 0.0
C244 C 0.34251 0.79646 0.93638 0.0
C245 C 0.35247 0.80622 0.87056 0.0
C246 C 0.3051 0.76438 0.95383 0.0
C247 C 0.32357 0.78486 0.82262 0.0
C248 C 0.28614 0.75309 0.83967 0.0
C249 C 0.24084 0.70791 0.92197 0.0
C250 C 0.23277 0.69546 0.98711 0.0
C251 C 0.27695 0.74199 0.90498 0.0
C252 C 0.26021 0.71911 0.03557 0.0
C253 C 0.29597 0.7533 1.01912 0.0
H254 H 0.56766 0.35882 0.16013 0.0
H255 H 0.56845 0.32932 0.95722 0.0
H256 H 0.56282 0.26631 0.98691 0.0
H257 H 0.56355 0.22239 0.07045 0.0
H258 H 0.5621 0.25133 0.2734 0.0
H259 H 0.5616 0.31151 0.24367 0.0
C260 C 0.56623 0.33844 0.12239 0.0
C261 C 0.569 0.34902 0.05659 0.0
C262 C 0.56302 0.30223 0.13979 0.0
C263 C 0.56655 0.32203 1.00825 0.0
C264 C 0.56346 0.28601 0.02518 0.0
C265 C 0.56269 0.24164 0.1082 0.0
C266 C 0.56335 0.23264 0.17402 0.0
C267 C 0.56257 0.27624 0.09078 0.0
C268 C 0.56169 0.2576 0.22235 0.0
C269 C 0.56161 0.29214 0.20539 0.0
loop_
_geom_bond_atom_site_label_1
_geom_bond_atom_site_label_2
_geom_bond_distance
_geom_bond_site_symmetry_2
_ccdc_geom_bond_type
Mg0 O7 2.141 . S
Mg0 O8 2.048 . S
Mg0 O9 2.048 . S
Mg0 O12 2.141 . S
C1 O2 1.313 1_556 S
C1 O8 1.195 1_556 S
O2 C1 1.313 1_554 S
C3 O4 1.245 . S
C3 O12 1.289 . S
O4 C3 1.245 . S
C5 O6 1.245 . S
C5 O7 1.289 . S
O6 C5 1.245 . S
O7 Mg0 2.141 . S
O7 C5 1.289 . S
O8 Mg0 2.048 . S
O8 C1 1.195 1_554 S
O9 Mg0 2.048 . S
O9 C10 1.195 1_554 S
C10 O9 1.195 1_556 S
C10 O11 1.313 1_556 S
O11 C10 1.313 1_554 S
O12 Mg0 2.141 . S
O12 C3 1.289 . S
Mg13 O20 2.141 . S
Mg13 O21 2.048 . S
Mg13 O22 2.048 . S
Mg13 O25 2.141 . S
C14 O15 1.313 . S
C14 O21 1.195 . S
O15 C14 1.313 . S
C16 O17 1.245 . S
C16 O25 1.289 . S
O17 C16 1.245 . S
C18 O19 1.245 . S
C18 O20 1.289 . S
O19 C18 1.245 . S
O20 Mg13 2.141 . S
O20 C18 1.289 . S
O21 Mg13 2.048 . S
O21 C14 1.195 . S
O22 Mg13 2.048 . S
O22 C23 1.195 . S
C23 O22 1.195 . S
C23 O24 1.313 . S
O24 C23 1.313 . S
O25 Mg13 2.141 . S
O25 C16 1.289 . S
Mg26 O33 2.141 . S
Mg26 O34 2.048 . S
Mg26 O35 2.048 . S
Mg26 O38 2.141 . S
C27 O28 1.313 . S
C27 O34 1.195 . S
O28 C27 1.313 . S
C29 O30 1.245 . S
C29 O38 1.289 . S
O30 C29 1.245 . S
C31 O32 1.245 . S
C31 O33 1.289 . S
O32 C31 1.245 . S
O33 Mg26 2.141 . S
O33 C31 1.289 . S
O34 Mg26 2.048 . S
O34 C27 1.195 . S
O35 Mg26 2.048 . S
O35 C36 1.195 . S
C36 O35 1.195 . S
C36 O37 1.313 . S
O37 C36 1.313 . S
O38 Mg26 2.141 . S
O38 C29 1.289 . S
Mg39 O46 2.141 . S
Mg39 O47 2.048 . S
Mg39 O48 2.048 . S
Mg39 O51 2.141 . S
C40 O41 1.313 . S
C40 O47 1.195 . S
O41 C40 1.313 . S
C42 O43 1.245 . S
C42 O51 1.289 . S
O43 C42 1.245 . S
C44 O45 1.245 . S
C44 O46 1.289 . S
O45 C44 1.245 . S
O46 Mg39 2.141 . S
O46 C44 1.289 . S
O47 Mg39 2.048 . S
O47 C40 1.195 . S
O48 Mg39 2.048 . S
O48 C49 1.195 . S
C49 O48 1.195 . S
C49 O50 1.313 . S
O50 C49 1.313 . S
O51 Mg39 2.141 . S
O51 C42 1.289 . S
Mg52 O59 2.141 . S
Mg52 O60 2.048 . S
Mg52 O61 2.048 . S
Mg52 O64 2.141 . S
C53 O54 1.313 . S
C53 O60 1.195 . S
O54 C53 1.313 . S
C55 O56 1.245 . S
C55 O64 1.289 . S
O56 C55 1.245 . S
C57 O58 1.245 . S
C57 O59 1.289 . S
O58 C57 1.245 . S
O59 Mg52 2.141 . S
O59 C57 1.289 . S
O60 Mg52 2.048 . S
O60 C53 1.195 . S
O61 Mg52 2.048 . S
O61 C62 1.195 . S
C62 O61 1.195 . S
C62 O63 1.313 . S
O63 C62 1.313 . S
O64 Mg52 2.141 . S
O64 C55 1.289 . S
Mg65 O72 2.141 . S
Mg65 O73 2.048 . S
Mg65 O74 2.048 . S
Mg65 O77 2.141 . S
C66 O67 1.313 . S
C66 O73 1.195 . S
O67 C66 1.313 . S
C68 O69 1.245 . S
C68 O77 1.289 1_554 S
O69 C68 1.245 . S
C70 O71 1.245 . S
C70 O72 1.289 1_554 S
O71 C70 1.245 . S
O72 Mg65 2.141 . S
O72 C70 1.289 1_556 S
O73 Mg65 2.048 . S
O73 C66 1.195 . S
O74 Mg65 2.048 . S
O74 C75 1.195 . S
C75 O74 1.195 . S
C75 O76 1.313 . S
O76 C75 1.313 . S
O77 Mg65 2.141 . S
O77 C68 1.289 1_556 S
H78 C84 0.930 . S
H79 C87 0.930 . S
H80 C88 0.930 . S
H81 C89 0.930 . S
H82 C92 0.930 . S
H83 C93 0.930 . S
C84 H78 0.930 . S
C84 C85 1.355 . S
C84 C86 1.415 . S
C85 C84 1.355 . S
C85 C87 1.419 . S
C86 C84 1.415 . S
C86 C91 1.425 . S
C86 C93 1.409 1_455 S
C87 H79 0.930 . S
C87 C85 1.419 . S
C87 C88 1.362 . S
C88 H80 0.930 . S
C88 C87 1.362 . S
C88 C91 1.409 . S
C89 H81 0.930 . S
C89 C90 1.355 . S
C89 C91 1.415 1_655 S
C90 C89 1.355 . S
C90 C92 1.419 . S
C91 C86 1.425 . S
C91 C88 1.409 . S
C91 C89 1.415 1_455 S
C92 H82 0.930 . S
C92 C90 1.419 . S
C92 C93 1.362 . S
C93 H83 0.930 . S
C93 C86 1.409 1_655 S
C93 C92 1.362 . S
H94 C100 0.930 . S
H95 C103 0.930 . S
H96 C104 0.930 1_554 S
H97 C105 0.930 . S
H98 C108 0.930 . S
H99 C109 0.930 1_556 S
C100 H94 0.930 . S
C100 C101 1.355 . S
C100 C102 1.415 1_565 S
C101 C100 1.355 . S
C101 C103 1.419 . S
C102 C100 1.415 1_545 S
C102 C107 1.425 1_546 S
C102 C109 1.409 1_556 S
C103 H95 0.930 . S
C103 C101 1.419 . S
C103 C104 1.362 . S
C104 H96 0.930 1_556 S
C104 C103 1.362 . S
C104 C107 1.409 1_556 S
C105 H97 0.930 . S
C105 C106 1.355 . S
C105 C107 1.415 1_545 S
C106 C105 1.355 . S
C106 C108 1.419 . S
C107 C102 1.425 1_564 S
C107 C104 1.409 1_554 S
C107 C105 1.415 1_565 S
C108 H98 0.930 . S
C108 C106 1.419 . S
C108 C109 1.362 . S
C109 H99 0.930 1_554 S
C109 C102 1.409 1_554 S
C109 C108 1.362 . S
H110 C116 0.930 . S
H111 C119 0.930 . S
H112 C120 0.930 . S
H113 C121 0.930 . S
H114 C124 0.930 . S
H115 C125 0.930 . S
C116 H110 0.930 . S
C116 C117 1.355 . S
C116 C118 1.415 . S
C117 C116 1.355 . S
C117 C119 1.419 . S
C118 C116 1.415 . S
C118 C123 1.425 . S
C118 C125 1.409 . S
C119 H111 0.930 . S
C119 C117 1.419 . S
C119 C120 1.362 . S
C120 H112 0.930 . S
C120 C119 1.362 . S
C120 C123 1.409 . S
C121 H113 0.930 . S
C121 C122 1.355 . S
C121 C123 1.415 . S
C122 C121 1.355 . S
C122 C124 1.419 . S
C123 C118 1.425 . S
C123 C120 1.409 . S
C123 C121 1.415 . S
C124 H114 0.930 . S
C124 C122 1.419 . S
C124 C125 1.362 . S
C125 H115 0.930 . S
C125 C118 1.409 . S
C125 C124 1.362 . S
H126 C132 0.930 . S
H127 C135 0.930 1_455 S
H128 C136 0.930 . S
H129 C137 0.930 . S
H130 C140 0.930 . S
H131 C141 0.930 . S
C132 H126 0.930 . S
C132 C133 1.355 . S
C132 C134 1.415 . S
C133 C132 1.355 . S
C133 C135 1.419 . S
C134 C132 1.415 . S
C134 C139 1.425 1_655 S
C134 C141 1.409 . S
C135 H127 0.930 1_655 S
C135 C133 1.419 . S
C135 C136 1.362 1_655 S
C136 H128 0.930 . S
C136 C135 1.362 1_455 S
C136 C139 1.409 . S
C137 H129 0.930 . S
C137 C138 1.355 . S
C137 C139 1.415 . S
C138 C137 1.355 . S
C138 C140 1.419 1_455 S
C139 C134 1.425 1_455 S
C139 C136 1.409 . S
C139 C137 1.415 . S
C140 H130 0.930 . S
C140 C138 1.419 1_655 S
C140 C141 1.362 . S
C141 H131 0.930 . S
C141 C134 1.409 . S
C141 C140 1.362 . S
H142 C148 0.930 . S
H143 C151 0.930 . S
H144 C152 0.930 . S
H145 C153 0.930 . S
H146 C156 0.930 . S
H147 C157 0.930 . S
C148 H142 0.930 . S
C148 C149 1.355 . S
C148 C150 1.415 1_545 S
C149 C148 1.355 . S
C149 C151 1.419 . S
C150 C148 1.415 1_565 S
C150 C155 1.428 . S
C150 C157 1.409 . S
C151 H143 0.930 . S
C151 C149 1.419 . S
C151 C152 1.362 . S
C152 H144 0.930 . S
C152 C151 1.362 . S
C152 C155 1.405 1_545 S
C153 H145 0.930 . S
C153 C154 1.355 . S
C153 C155 1.416 . S
C154 C153 1.355 . S
C154 C156 1.419 . S
C155 C150 1.428 . S
C155 C152 1.405 1_565 S
C155 C153 1.416 . S
C156 H146 0.930 . S
C156 C154 1.419 . S
C156 C157 1.362 . S
C157 H147 0.930 . S
C157 C150 1.409 . S
C157 C156 1.362 . S
H158 C164 0.930 . S
H159 C167 0.930 . S
H160 C168 0.930 . S
H161 C169 0.930 . S
H162 C172 0.930 . S
H163 C173 0.930 . S
C164 H158 0.930 . S
C164 C165 1.355 . S
C164 C166 1.415 . S
C165 C164 1.355 . S
C165 C167 1.419 . S
C166 C164 1.415 . S
C166 C171 1.425 . S
C166 C173 1.409 . S
C167 H159 0.930 . S
C167 C165 1.419 . S
C167 C168 1.362 . S
C168 H160 0.930 . S
C168 C167 1.362 . S
C168 C171 1.409 . S
C169 H161 0.930 . S
C169 C170 1.355 . S
C169 C171 1.415 . S
C170 C169 1.355 . S
C170 C172 1.419 . S
C171 C166 1.425 . S
C171 C168 1.409 . S
C171 C169 1.415 . S
C172 H162 0.930 . S
C172 C170 1.419 . S
C172 C173 1.362 . S
C173 H163 0.930 . S
C173 C166 1.409 . S
C173 C172 1.362 . S
H174 C180 0.930 . S
H175 C183 0.930 . S
H176 C184 0.930 . S
H177 C185 0.930 . S
H178 C188 0.930 . S
H179 C189 0.930 . S
C180 H174 0.930 . S
C180 C181 1.355 . S
C180 C182 1.415 . S
C181 C180 1.355 . S
C181 C183 1.419 . S
C182 C180 1.415 . S
C182 C187 1.425 . S
C182 C189 1.409 . S
C183 H175 0.930 . S
C183 C181 1.419 . S
C183 C184 1.362 . S
C184 H176 0.930 . S
C184 C183 1.362 . S
C184 C187 1.409 . S
C185 H177 0.930 . S
C185 C186 1.355 . S
C185 C187 1.415 . S
C186 C185 1.355 . S
C186 C188 1.419 . S
C187 C182 1.425 . S
C187 C184 1.409 . S
C187 C185 1.415 . S
C188 H178 0.930 . S
C188 C186 1.419 . S
C188 C189 1.362 . S
C189 H179 0.930 . S
C189 C182 1.409 . S
C189 C188 1.362 . S
H190 C196 0.930 . S
H191 C199 0.930 . S
H192 C200 0.930 . S
H193 C201 0.930 . S
H194 C204 0.930 . S
H195 C205 0.930 . S
C196 H190 0.930 . S
C196 C197 1.355 . S
C196 C198 1.415 . S
C197 C196 1.355 . S
C197 C199 1.419 . S
C198 C196 1.415 . S
C198 C203 1.425 . S
C198 C205 1.409 . S
C199 H191 0.930 . S
C199 C197 1.419 . S
C199 C200 1.362 . S
C200 H192 0.930 . S
C200 C199 1.362 . S
C200 C203 1.409 . S
C201 H193 0.930 . S
C201 C202 1.355 . S
C201 C203 1.415 . S
C202 C201 1.355 . S
C202 C204 1.419 . S
C203 C198 1.425 . S
C203 C200 1.409 . S
C203 C201 1.415 . S
C204 H194 0.930 . S
C204 C202 1.419 . S
C204 C205 1.362 . S
C205 H195 0.930 . S
C205 C198 1.409 . S
C205 C204 1.362 . S
H206 C212 0.930 . S
H207 C215 0.930 . S
H208 C216 0.930 . S
H209 C217 0.930 . S
H210 C220 0.930 . S
H211 C221 0.930 . S
C212 H206 0.930 . S
C212 C213 1.355 . S
C212 C214 1.415 . S
C213 C212 1.355 . S
C213 C215 1.419 . S
C214 C212 1.415 . S
C214 C219 1.425 . S
C214 C221 1.409 . S
C215 H207 0.930 . S
C215 C213 1.419 . S
C215 C216 1.362 . S
C216 H208 0.930 . S
C216 C215 1.362 . S
C216 C219 1.409 . S
C217 H209 0.930 . S
C217 C218 1.355 . S
C217 C219 1.415 . S
C218 C217 1.355 . S
C218 C220 1.419 . S
C219 C214 1.425 . S
C219 C216 1.409 . S
C219 C217 1.415 . S
C220 H210 0.930 . S
C220 C218 1.419 . S
C220 C221 1.362 . S
C221 H211 0.930 . S
C221 C214 1.409 . S
C221 C220 1.362 . S
H222 C228 0.930 . S
H223 C231 0.930 . S
H224 C232 0.930 . S
H225 C233 0.930 . S
H226 C236 0.930 . S
H227 C237 0.930 . S
C228 H222 0.930 . S
C228 C229 1.355 . S
C228 C230 1.415 . S
C229 C228 1.355 . S
C229 C231 1.419 . S
C230 C228 1.415 . S
C230 C235 1.425 . S
C230 C237 1.409 . S
C231 H223 0.930 . S
C231 C229 1.419 . S
C231 C232 1.362 . S
C232 H224 0.930 . S
C232 C231 1.362 . S
C232 C235 1.409 . S
C233 H225 0.930 . S
C233 C234 1.355 . S
C233 C235 1.415 . S
C234 C233 1.355 . S
C234 C236 1.419 . S
C235 C230 1.425 . S
C235 C232 1.409 . S
C235 C233 1.415 . S
C236 H226 0.930 . S
C236 C234 1.419 . S
C236 C237 1.362 . S
C237 H227 0.930 . S
C237 C230 1.409 . S
C237 C236 1.362 . S
H238 C244 0.930 . S
H239 C247 0.930 . S
H240 C248 0.930 . S
H241 C249 0.930 . S
H242 C252 0.930 1_554 S
H243 C253 0.930 1_554 S
C244 H238 0.930 . S
C244 C245 1.355 . S
C244 C246 1.415 . S
C245 C244 1.355 . S
C245 C247 1.419 . S
C246 C244 1.415 . S
C246 C251 1.425 . S
C246 C253 1.409 . S
C247 H239 0.930 . S
C247 C245 1.419 . S
C247 C248 1.362 . S
C248 H240 0.930 . S
C248 C247 1.362 . S
C248 C251 1.409 . S
C249 H241 0.930 . S
C249 C250 1.355 . S
C249 C251 1.415 . S
C250 C249 1.355 . S
C250 C252 1.419 . S
C251 C246 1.425 . S
C251 C248 1.409 . S
C251 C249 1.415 . S
C252 H242 0.930 1_556 S
C252 C250 1.419 . S
C252 C253 1.362 . S
C253 H243 0.930 1_556 S
C253 C246 1.409 . S
C253 C252 1.362 . S
H254 C260 0.930 . S
H255 C263 0.930 . S
H256 C264 0.930 . S
H257 C265 0.930 . S
H258 C268 0.930 . S
H259 C269 0.930 . S
C260 H254 0.930 . S
C260 C261 1.355 . S
C260 C262 1.415 . S
C261 C260 1.355 . S
C261 C263 1.419 . S
C262 C260 1.415 . S
C262 C267 1.425 . S
C262 C269 1.409 . S
C263 H255 0.930 . S
C263 C261 1.419 . S
C263 C264 1.362 . S
C264 H256 0.930 . S
C264 C263 1.362 . S
C264 C267 1.409 . S
C265 H257 0.930 . S
C265 C266 1.355 . S
C265 C267 1.415 . S
C266 C265 1.355 . S
C266 C268 1.419 . S
C267 C262 1.425 . S
C267 C264 1.409 . S
C267 C265 1.415 . S
C268 H258 0.930 . S
C268 C266 1.419 . S
C268 C269 1.362 . S
C269 H259 0.930 . S
C269 C262 1.409 . S
C269 C268 1.362 . S
C85 C10 1.865 . S
C90 C42 1.831 . S
C101 C55 1.775 . S
C106 C23 1.862 . S
C117 C36 1.875 . S
C122 C68 1.805 . S
C133 C49 1.875 . S
C138 C3 1.811 . S
C149 C16 1.777 . S
C154 C62 1.865 . S
C165 C75 1.876 . S
C170 C29 1.820 . S
C181 C5 1.596 . S
C186 C27 1.520 . S
C197 C18 1.613 . S
C202 C40 1.544 . S
C213 C53 1.517 . S
C218 C31 1.599 . S
C229 C66 1.538 . S
C234 C44 1.599 . S
C245 C57 1.601 . S
C250 C1 1.518 . S
C261 C70 1.611 . S
C266 C14 1.573 . S
