# Generated by pormake.
# Topology unj, (4)-cn, num edge types: 1
# Building blocks:
#     Node 0, Type 0, BuildingBlock: QUQFOY_clean_sbu_3, # of connection points: 4
#     Node 1, Type 0, BuildingBlock: QUQFOY_clean_sbu_3, # of connection points: 4
#     Node 2, Type 0, BuildingBlock: QUQFOY_clean_sbu_3, # of connection points: 4
#     Node 3, Type 0, BuildingBlock: QUQFOY_clean_sbu_3, # of connection points: 4
#     Node 4, Type 0, BuildingBlock: QUQFOY_clean_sbu_3, # of connection points: 4
#     Node 5, Type 0, BuildingBlock: QUQFOY_clean_sbu_3, # of connection points: 4
#     Edge 6, Type (0, 0), BuildingBlock: ZUJKAS_clean_linker_0, # of connection points: 2
#     Edge 7, Type (0, 0), BuildingBlock: ZUJKAS_clean_linker_0, # of connection points: 2
#     Edge 8, Type (0, 0), BuildingBlock: ZUJKAS_clean_linker_0, # of connection points: 2
#     Edge 9, Type (0, 0), BuildingBlock: ZUJKAS_clean_linker_0, # of connection points: 2
#     Edge 10, Type (0, 0), BuildingBlock: ZUJKAS_clean_linker_0, # of connection points: 2
#     Edge 11, Type (0, 0), BuildingBlock: ZUJKAS_clean_linker_0, # of connection points: 2
#     Edge 12, Type (0, 0), BuildingBlock: ZUJKAS_clean_linker_0, # of connection points: 2
#     Edge 13, Type (0, 0), BuildingBlock: ZUJKAS_clean_linker_0, # of connection points: 2
#     Edge 14, Type (0, 0), BuildingBlock: ZUJKAS_clean_linker_0, # of connection points: 2
#     Edge 15, Type (0, 0), BuildingBlock: ZUJKAS_clean_linker_0, # of connection points: 2
#     Edge 16, Type (0, 0), BuildingBlock: ZUJKAS_clean_linker_0, # of connection points: 2
#     Edge 17, Type (0, 0), BuildingBlock: ZUJKAS_clean_linker_0, # of connection points: 2
# Relax obj value: 0.028
# Max RMSD: 0.080
# Mean RMSD: 0.080
data_MOF--net-unj--node1-QUQFOY_clean_sbu_3--edge1-ZUJKAS_clean_linker_0
_symmetry_space_group_name_H-M    P1
_symmetry_Int_Tables_number       1
_symmetry_cell_setting            triclinic
loop_
_symmetry_equiv_pos_as_xyz
'x, y, z'
_cell_length_a     43.764052
_cell_length_b     43.745839
_cell_length_c     48.299233
_cell_angle_alpha  90.010058
_cell_angle_beta   89.986213
_cell_angle_gamma 119.97122
loop_
_atom_site_label
_atom_site_type_symbol
_atom_site_fract_x
_atom_site_fract_y
_atom_site_fract_z
_atom_type_partial_charge
C0 C 0.54214 0.28067 0.53245 0.0
O1 O 0.55727 0.26308 0.53803 0.0
Cd2 Cd 0.5341 0.21572 0.57065 0.0
O3 O 0.51353 0.27382 0.54454 0.0
Cd4 Cd 0.47287 0.23389 0.58043 0.0
C5 C 0.45242 0.16177 0.54201 0.0
O6 O 0.5197 0.23918 0.61005 0.0
O7 O 0.46711 0.20134 0.62355 0.0
O8 O 0.46992 0.28557 0.59373 0.0
C9 C 0.49996 0.21781 0.62843 0.0
O10 O 0.4831 0.16727 0.54799 0.0
C11 C 0.43661 0.27008 0.59594 0.0
O12 O 0.44226 0.18292 0.55014 0.0
O13 O 0.41966 0.23726 0.59055 0.0
C14 C 0.26659 0.55937 0.71128 0.0
O15 O 0.29745 0.57481 0.7215 0.0
Cd16 Cd 0.31751 0.54858 0.75475 0.0
O17 O 0.24351 0.52856 0.71928 0.0
Cd18 Cd 0.2375 0.48444 0.75444 0.0
C19 C 0.29803 0.47105 0.72181 0.0
O20 O 0.27212 0.52803 0.78875 0.0
O21 O 0.2568 0.47475 0.8003 0.0
O22 O 0.17915 0.47612 0.76209 0.0
C23 C 0.27173 0.50707 0.80692 0.0
O24 O 0.32116 0.50129 0.73073 0.0
C25 C 0.16327 0.44265 0.76215 0.0
O26 O 0.26542 0.45915 0.72654 0.0
O27 O 0.18192 0.42831 0.75786 0.0
C28 C 0.70296 0.26443 0.86828 0.0
O29 O 0.71953 0.29666 0.87546 0.0
Cd30 Cd 0.765 0.31915 0.9098 0.0
O31 O 0.70972 0.24219 0.87961 0.0
Cd32 Cd 0.74774 0.23913 0.91596 0.0
C33 C 0.82163 0.29472 0.88092 0.0
O34 O 0.74141 0.27856 0.94752 0.0
O35 O 0.77913 0.26302 0.95979 0.0
O36 O 0.69573 0.18381 0.92723 0.0
C37 C 0.76277 0.2793 0.96556 0.0
O38 O 0.81512 0.31893 0.88801 0.0
C39 C 0.71108 0.16576 0.92843 0.0
O40 O 0.80043 0.26262 0.88712 0.0
O41 O 0.74399 0.18185 0.92343 0.0
C42 C 0.43889 0.70157 0.04765 0.0
O43 O 0.42288 0.71596 0.05871 0.0
Cd44 Cd 0.44957 0.76455 0.08988 0.0
O45 O 0.47101 0.71183 0.0535 0.0
Cd46 Cd 0.51797 0.75403 0.08523 0.0
C47 C 0.52194 0.82367 0.05162 0.0
O48 O 0.4772 0.74454 0.12168 0.0
O49 O 0.53016 0.78556 0.13041 0.0
O50 O 0.53113 0.7069 0.09107 0.0
C51 C 0.49854 0.76714 0.13858 0.0
O52 O 0.49222 0.81524 0.0625 0.0
C53 C 0.56437 0.72634 0.0893 0.0
O54 O 0.53633 0.80496 0.05562 0.0
O55 O 0.5763 0.75906 0.08523 0.0
C56 C 0.72501 0.43985 0.20446 0.0
O57 O 0.69242 0.42617 0.21006 0.0
Cd58 Cd 0.67013 0.452 0.24198 0.0
O59 O 0.74771 0.46819 0.21634 0.0
Cd60 Cd 0.75077 0.51037 0.2518 0.0
C61 C 0.70234 0.53374 0.21209 0.0
O62 O 0.70732 0.46556 0.28172 0.0
O63 O 0.7249 0.51907 0.29441 0.0
O64 O 0.80423 0.51121 0.26599 0.0
C65 C 0.70655 0.48635 0.29955 0.0
O66 O 0.67597 0.50386 0.21822 0.0
C67 C 0.8232 0.54454 0.26715 0.0
O68 O 0.7331 0.54238 0.22065 0.0
O69 O 0.80845 0.56235 0.26098 0.0
C70 C 0.29454 0.73226 0.36992 0.0
O71 O 0.27918 0.70014 0.37742 0.0
Cd72 Cd 0.23282 0.67551 0.41098 0.0
O73 O 0.28523 0.75335 0.37988 0.0
Cd74 Cd 0.24247 0.75289 0.4136 0.0
C75 C 0.17066 0.68952 0.37989 0.0
O76 O 0.25422 0.71892 0.44695 0.0
O77 O 0.21483 0.73194 0.45949 0.0
O78 O 0.28865 0.81328 0.42126 0.0
C79 C 0.2332 0.71784 0.4654 0.0
O80 O 0.17961 0.6675 0.38821 0.0
C81 C 0.26847 0.82634 0.42126 0.0
O82 O 0.18986 0.72227 0.38505 0.0
O83 O 0.23582 0.80512 0.41742 0.0
H84 H 0.38396 0.13934 0.52683 0.0
H85 H 0.34461 0.08663 0.49987 0.0
H86 H 0.4274 0.0609 0.49268 0.0
H87 H 0.46689 0.11332 0.51929 0.0
H88 H 0.38953 0.05623 0.44174 0.0
H89 H 0.30178 0.98417 0.53089 0.0
H90 H 0.30998 0.02794 0.52341 0.0
H91 H 0.34522 0.02188 0.53581 0.0
C92 C 0.39381 0.1225 0.51946 0.0
C93 C 0.42852 0.13043 0.52537 0.0
C94 C 0.37127 0.09241 0.50412 0.0
C95 C 0.38313 0.0699 0.49452 0.0
C96 C 0.41785 0.07806 0.49994 0.0
H97 H 0.33723 0.87742 0.4265 0.0
H98 H 0.36036 0.93884 0.43969 0.0
C99 C 0.44032 0.10797 0.51526 0.0
C100 C 0.35949 0.03711 0.47941 0.0
H101 H 0.29305 0.95262 0.48969 0.0
C102 C 0.368 0.0337 0.45201 0.0
C103 C 0.33128 0.00799 0.49285 0.0
C104 C 0.32142 0.01034 0.5224 0.0
C105 C 0.35012 0.0013 0.43812 0.0
C106 C 0.32358 0.97155 0.45224 0.0
C107 C 0.3135 0.97553 0.47898 0.0
C108 C 0.30929 0.93542 0.44125 0.0
C109 C 0.3605 -0.00103 0.40875 0.0
C110 C 0.27284 0.91301 0.43803 0.0
C111 C 0.25946 0.87767 0.4306 0.0
C112 C 0.28238 0.86422 0.42666 0.0
C113 C 0.3189 0.88699 0.42935 0.0
C114 C 0.3322 0.92221 0.43665 0.0
H115 H 0.37146 0.02481 0.39802 0.0
H116 H 0.38127 0.99148 0.40899 0.0
H117 H 0.33767 0.97882 0.39671 0.0
H118 H 0.25475 0.92268 0.44179 0.0
H119 H 0.23118 0.8607 0.42873 0.0
H120 H 0.46725 0.33995 0.6082 0.0
H121 H 0.43906 0.3713 0.62741 0.0
H122 H 0.33803 0.27564 0.62479 0.0
H123 H 0.36606 0.24382 0.60535 0.0
H124 H 0.34061 0.34153 0.60529 0.0
H125 H 0.40063 0.35262 0.70882 0.0
H126 H 0.43112 0.36669 0.68034 0.0
H127 H 0.39737 0.32115 0.68309 0.0
C128 C 0.43899 0.32555 0.61152 0.0
C129 C 0.41888 0.28933 0.60551 0.0
C130 C 0.42298 0.3435 0.62254 0.0
C131 C 0.38666 0.32558 0.62783 0.0
C132 C 0.36618 0.28977 0.62093 0.0
H133 H 0.25663 0.40399 0.70186 0.0
H134 H 0.27596 0.36734 0.67788 0.0
C135 C 0.38222 0.27169 0.60989 0.0
C136 C 0.37057 0.34428 0.64147 0.0
H137 H 0.37308 0.38683 0.70129 0.0
C138 C 0.34734 0.3512 0.62636 0.0
C139 C 0.37949 0.35666 0.66895 0.0
C140 C 0.40328 0.3487 0.6864 0.0
C141 C 0.33379 0.37152 0.63776 0.0
C142 C 0.34342 0.38462 0.66503 0.0
C143 C 0.36597 0.3769 0.68032 0.0
C144 C 0.33125 0.4072 0.67807 0.0
C145 C 0.31032 0.37985 0.62026 0.0
C146 C 0.35603 0.44153 0.68637 0.0
C147 C 0.34518 0.46244 0.70024 0.0
C148 C 0.3093 0.4493 0.70618 0.0
C149 C 0.28446 0.41496 0.69754 0.0
C150 C 0.29539 0.39403 0.68368 0.0
H151 H 0.31179 0.37447 0.59797 0.0
H152 H 0.28256 0.36322 0.62712 0.0
H153 H 0.31757 0.40793 0.6227 0.0
H154 H 0.38387 0.45206 0.68229 0.0
H155 H 0.365 0.48877 0.70655 0.0
H156 H 0.87218 0.36045 0.86455 0.0
H157 H 0.92766 0.37716 0.84114 0.0
H158 H 0.90185 0.2683 0.83944 0.0
H159 H 0.84581 0.25104 0.86286 0.0
H160 H 0.98036 0.36223 0.8632 0.0
H161 H 0.93282 0.30535 0.75817 0.0
H162 H 0.90611 0.31419 0.78176 0.0
H163 H 0.91243 0.27727 0.7877 0.0
C164 C 0.87804 0.33991 0.85907 0.0
C165 C 0.85455 0.30438 0.86566 0.0
C166 C 0.90977 0.34955 0.84566 0.0
C167 C 0.91861 0.32392 0.83843 0.0
C168 C 0.89517 0.28836 0.84456 0.0
H169 H 0.12303 0.37093 0.76834 0.0
H170 H 0.06219 0.33772 0.7856 0.0
C171 C 0.8633 0.27862 0.85806 0.0
C172 C 0.95342 0.3352 0.82594 0.0
H173 H 0.99439 0.33741 0.76517 0.0
C174 C 0.98346 0.35651 0.84186 0.0
C175 C 0.9572 0.32744 0.79816 0.0
C176 C 0.92553 0.30496 0.78026 0.0
C177 C 0.01729 0.37123 0.83047 0.0
C178 C 0.02105 0.36479 0.80238 0.0
C179 C 0.99118 0.34228 0.7867 0.0
C180 C 0.05578 0.38351 0.78874 0.0
C181 C 0.04883 0.39424 0.84838 0.0
C182 C 0.0716 0.41989 0.7841 0.0
C183 C 0.10612 0.43885 0.77432 0.0
C184 C 0.1254 0.42169 0.76899 0.0
C185 C 0.10884 0.38486 0.77235 0.0
C186 C 0.07416 0.36586 0.78215 0.0
H187 H 0.04215 0.39032 0.87077 0.0
H188 H 0.07061 0.38872 0.8444 0.0
H189 H 0.05854 0.42237 0.8433 0.0
H190 H 0.05758 0.4338 0.78893 0.0
H191 H 0.11804 0.46714 0.77179 0.0
H192 H 0.4986 0.86902 0.03736 0.0
H193 H 0.53081 0.92458 0.01206 0.0
H194 H 0.61963 0.90814 0.00328 0.0
H195 H 0.58751 0.85227 0.0282 0.0
H196 H 0.59442 0.98141 0.02918 0.0
H197 H 0.60737 0.93576 0.92476 0.0
H198 H 0.57617 0.9065 0.95016 0.0
H199 H 0.62197 0.91922 0.95279 0.0
C200 C 0.52482 0.87697 0.02979 0.0
C201 C 0.5405 0.85622 0.03486 0.0
C202 C 0.54316 0.90871 0.01531 0.0
C203 C 0.57739 0.9202 0.00554 0.0
C204 C 0.59294 0.89935 0.01015 0.0
H205 H 0.73715 0.121 0.93627 0.0
H206 H 0.70497 0.06028 0.95386 0.0
C207 C 0.57461 0.86754 0.02458 0.0
C208 C 0.59772 0.95529 0.99245 0.0
H209 H 0.63989 0.9976 0.933 0.0
C210 C 0.60423 0.98494 0.00812 0.0
C211 C 0.61069 0.95972 0.96505 0.0
C212 C 0.6035 0.92862 0.94707 0.0
C213 C 0.62349 0.01903 -0.00285 0.0
C214 C 0.63613 0.02346 0.96968 0.0
C215 C 0.63006 0.99392 0.95406 0.0
C216 C 0.65489 0.05871 0.95677 0.0
C217 C 0.63049 0.05011 0.01512 0.0
C218 C 0.63702 0.0773 0.95198 0.0
C219 C 0.6552 0.11179 0.94202 0.0
C220 C 0.69158 0.12825 0.9366 0.0
C221 C 0.70915 0.10903 0.94037 0.0
C222 C 0.69086 0.07441 0.95035 0.0
H223 H 0.62621 0.04292 0.03742 0.0
H224 H 0.65793 0.07214 0.01228 0.0
H225 H 0.61227 0.0597 0.0091 0.0
H226 H 0.60912 0.06533 0.95649 0.0
H227 H 0.64084 0.12579 0.93913 0.0
H228 H 0.75153 0.60093 0.19625 0.0
H229 H 0.74174 0.64177 0.16796 0.0
H230 H 0.63167 0.56344 0.16035 0.0
H231 H 0.64105 0.52246 0.18829 0.0
H232 H 0.66723 0.59945 0.10917 0.0
H233 H 0.68642 0.69038 0.1969 0.0
H234 H 0.72026 0.67936 0.1903 0.0
H235 H 0.6779 0.64601 0.20262 0.0
C236 C 0.72525 0.59237 0.1885 0.0
C237 C 0.697 0.55849 0.19468 0.0
C238 C 0.71975 0.61575 0.17239 0.0
C239 C 0.68597 0.60558 0.16228 0.0
C240 C 0.65795 0.57167 0.16798 0.0
H241 H 0.5454 0.65711 0.09338 0.0
H242 H 0.5828 0.63267 0.10572 0.0
C243 C 0.66335 0.54836 0.18406 0.0
C244 C 0.67894 0.63028 0.14649 0.0
H245 H 0.6647 0.69948 0.15532 0.0
C246 C 0.6673 0.62178 0.11903 0.0
C247 C 0.67947 0.65954 0.15939 0.0
C248 C 0.69151 0.66949 0.18896 0.0
C249 C 0.65424 0.64062 0.1046 0.0
C250 C 0.65222 0.66814 0.11824 0.0
C251 C 0.66624 0.67828 0.14498 0.0
C252 C 0.63113 0.68315 0.10698 0.0
C253 C 0.64161 0.63012 0.07524 0.0
C254 C 0.64589 0.71972 0.10373 0.0
C255 C 0.62444 0.73386 0.09679 0.0
C256 C 0.58788 0.7116 0.0934 0.0
C257 C 0.57346 0.67495 0.09585 0.0
C258 C 0.59487 0.66089 0.10264 0.0
H259 H 0.65601 0.61842 0.06482 0.0
H260 H 0.61318 0.60986 0.07546 0.0
H261 H 0.64498 0.65305 0.06294 0.0
H262 H 0.67378 0.73733 0.10731 0.0
H263 H 0.63625 0.76223 0.09509 0.0
H264 H 0.12305 0.62158 0.36553 0.0
H265 H 0.06586 0.60002 0.3432 0.0
H266 H 0.08432 0.70637 0.33841 0.0
H267 H 0.14181 0.72837 0.36051 0.0
H268 H 0.01117 0.60929 0.36493 0.0
H269 H 0.0511 0.66722 0.2596 0.0
H270 H 0.08111 0.66318 0.28298 0.0
H271 H 0.0707 0.69766 0.28787 0.0
C272 C 0.11518 0.64049 0.35948 0.0
C273 C 0.13699 0.67671 0.36486 0.0
C274 C 0.0825 0.6281 0.34672 0.0
C275 C 0.07111 0.65166 0.33894 0.0
C276 C 0.09296 0.68787 0.34383 0.0
H277 H 0.86971 0.61509 0.27395 0.0
H278 H 0.93051 0.64245 0.2911 0.0
C279 C 0.12571 0.70033 0.35661 0.0
C280 C 0.03533 0.63793 0.32748 0.0
H281 H 0.99002 0.63811 0.27002 0.0
C282 C 0.00651 0.61551 0.34416 0.0
C283 C 0.0295 0.64643 0.30049 0.0
C284 C 0.05969 0.66972 0.28154 0.0
C285 C 0.97186 0.60126 0.33457 0.0
C286 C 0.96599 0.60921 0.3074 0.0
C287 C 0.99476 0.63209 0.29083 0.0
C288 C 0.93011 0.59307 0.29569 0.0
C289 C 0.94177 0.5781 0.35368 0.0
C290 C 0.91026 0.55642 0.29207 0.0
C291 C 0.87568 0.54076 0.28239 0.0
C292 C 0.86041 0.56154 0.276 0.0
C293 C 0.88074 0.59841 0.27883 0.0
C294 C 0.91541 0.61407 0.28856 0.0
H295 H 0.9502 0.58204 0.37571 0.0
H296 H 0.9196 0.5834 0.35137 0.0
H297 H 0.93191 0.55001 0.34837 0.0
H298 H 0.92144 0.53988 0.29702 0.0
H299 H 0.8608 0.51232 0.28022 0.0
H300 H 0.60065 0.30011 0.50072 0.0
H301 H 0.62583 0.34652 0.46587 0.0
H302 H 0.54529 0.37336 0.48281 0.0
H303 H 0.51938 0.3264 0.51753 0.0
H304 H 0.55237 0.36595 0.42805 0.0
H305 H 0.68377 0.45274 0.47332 0.0
H306 H 0.67456 0.40797 0.47193 0.0
H307 H 0.6477 0.41907 0.49325 0.0
C308 C 0.5884 0.31603 0.49726 0.0
C309 C 0.55798 0.30952 0.5119 0.0
C310 C 0.60306 0.34281 0.47751 0.0
C311 C 0.58788 0.36388 0.47222 0.0
C312 C 0.5576 0.35761 0.48684 0.0
H313 H 0.70423 0.52391 0.34418 0.0
H314 H 0.67136 0.49993 0.38747 0.0
C315 C 0.54281 0.33071 0.50659 0.0
C316 C 0.60209 0.39027 0.44971 0.0
H317 H 0.6796 0.45556 0.42323 0.0
C318 C 0.58001 0.38612 0.42725 0.0
C319 C 0.63792 0.41713 0.44894 0.0
C320 C 0.66222 0.42475 0.47333 0.0
C321 C 0.59356 0.4061 0.40306 0.0
C322 C 0.63016 0.43024 0.40121 0.0
C323 C 0.65162 0.4366 0.42454 0.0
C324 C 0.64735 0.44542 0.37443 0.0
C325 C 0.5688 0.40021 0.37934 0.0
C326 C 0.64481 0.42267 0.35297 0.0
C327 C 0.6635 0.43617 0.32846 0.0
C328 C 0.68533 0.47272 0.32498 0.0
C329 C 0.68751 0.49562 0.3463 0.0
C330 C 0.66878 0.48201 0.37097 0.0
H331 H 0.54172 0.39155 0.38696 0.0
H332 H 0.57802 0.4245 0.36676 0.0
H333 H 0.56731 0.37903 0.36577 0.0
H334 H 0.62917 0.39432 0.35551 0.0
H335 H 0.66132 0.41784 0.31245 0.0
H336 H 0.2047 0.72562 0.51356 0.0
H337 H 0.20621 0.70186 0.55929 0.0
H338 H 0.2571 0.64843 0.52348 0.0
H339 H 0.25669 0.6728 0.4782 0.0
H340 H 0.17987 0.63478 0.57984 0.0
H341 H 0.32558 0.70697 0.58376 0.0
H342 H 0.30132 0.71643 0.55826 0.0
H343 H 0.30957 0.68037 0.55316 0.0
C344 C 0.21607 0.70869 0.51551 0.0
C345 C 0.23108 0.70146 0.49249 0.0
C346 C 0.2169 0.69517 0.54158 0.0
C347 C 0.23258 0.67415 0.54482 0.0
C348 C 0.24585 0.66547 0.52154 0.0
H349 H 0.21697 0.52951 0.67063 0.0
H350 H 0.206 0.5598 0.63272 0.0
C351 C 0.24546 0.67928 0.49568 0.0
C352 C 0.23589 0.66166 0.57247 0.0
H353 H 0.29608 0.65829 0.6151 0.0
C354 C 0.20527 0.64026 0.58783 0.0
C355 C 0.26915 0.66963 0.58315 0.0
C356 C 0.30327 0.69494 0.56885 0.0
C357 C 0.20693 0.62507 0.61299 0.0
C358 C 0.23997 0.63073 0.62249 0.0
C359 C 0.27067 0.65353 0.60771 0.0
C360 C 0.24363 0.61242 0.64699 0.0
C361 C 0.1733 0.60329 0.62908 0.0
C362 C 0.26889 0.6318 0.66734 0.0
C363 C 0.27598 0.61451 0.68845 0.0
C364 C 0.25756 0.5775 0.68985 0.0
C365 C 0.23136 0.55809 0.67011 0.0
C366 C 0.22481 0.57541 0.64862 0.0
H367 H 0.15386 0.612 0.62483 0.0
H368 H 0.16121 0.57529 0.62258 0.0
H369 H 0.17831 0.60493 0.65171 0.0
H370 H 0.28379 0.66037 0.6665 0.0
H371 H 0.2961 0.63012 0.70357 0.0
H372 H 0.65699 0.19668 0.85198 0.0
H373 H 0.61333 0.1775 0.81477 0.0
H374 H 0.64404 0.28593 0.79785 0.0
H375 H 0.68717 0.30535 0.8353 0.0
H376 H 0.57124 0.24075 0.79771 0.0
H377 H 0.64039 0.18871 0.73289 0.0
H378 H 0.62801 0.17048 0.7671 0.0
H379 H 0.6607 0.21616 0.76281 0.0
C380 C 0.6544 0.21646 0.84038 0.0
C381 C 0.67578 0.25259 0.84642 0.0
C382 C 0.6295 0.20542 0.81911 0.0
C383 C 0.62587 0.23034 0.80337 0.0
C384 C 0.64652 0.26631 0.80979 0.0
H385 H 0.56916 0.24931 0.64251 0.0
H386 H 0.59439 0.24539 0.68636 0.0
C387 C 0.67123 0.27736 0.83114 0.0
C388 C 0.60156 0.21949 0.7795 0.0
H389 H 0.59028 0.18698 0.7138 0.0
C390 C 0.57499 0.22853 0.77946 0.0
C391 C 0.60674 0.20363 0.7558 0.0
C392 C 0.63563 0.19436 0.7544 0.0
C393 C 0.55445 0.22365 0.75581 0.0
C394 C 0.56038 0.20879 0.73184 0.0
C395 C 0.58577 0.19817 0.73234 0.0
C396 C 0.54423 0.2087 0.70498 0.0
C397 C 0.52811 0.23636 0.75611 0.0
C398 C 0.50764 0.18888 0.70082 0.0
C399 C 0.49302 0.1912 0.67569 0.0
C400 C 0.5149 0.21327 0.65444 0.0
C401 C 0.55158 0.23219 0.6585 0.0
C402 C 0.56607 0.2299 0.68351 0.0
H403 H 0.53064 0.2521 0.77491 0.0
H404 H 0.53151 0.25277 0.73756 0.0
H405 H 0.501 0.21329 0.7556 0.0
H406 H 0.49044 0.17197 0.71707 0.0
H407 H 0.46467 0.17618 0.67306 0.0
H408 H 0.26493 0.46891 0.85391 0.0
H409 H 0.28949 0.49253 0.8999 0.0
H410 H 0.34125 0.59817 0.86664 0.0
H411 H 0.31642 0.57508 0.82117 0.0
H412 H 0.35914 0.53533 0.91924 0.0
H413 H 0.28122 0.60262 0.92954 0.0
H414 H 0.27178 0.56941 0.90354 0.0
H415 H 0.30604 0.61438 0.89794 0.0
C416 C 0.28168 0.49714 0.85647 0.0
C417 C 0.28837 0.52023 0.83412 0.0
C418 C 0.29566 0.51054 0.88267 0.0
C419 C 0.31647 0.5471 0.88668 0.0
C420 C 0.32449 0.56993 0.86407 0.0
H421 H 0.46663 0.68189 0.00526 0.0
H422 H 0.4342 0.63802 0.96941 0.0
C423 C 0.31036 0.55667 0.83809 0.0
C424 C 0.32937 0.56205 0.91447 0.0
H425 H 0.3321 0.62379 0.95885 0.0
C426 C 0.35286 0.55424 0.92825 0.0
C427 C 0.32039 0.58599 0.92645 0.0
C428 C 0.29316 0.5933 0.91374 0.0
C429 C 0.36933 0.57152 0.95297 0.0
C430 C 0.36269 0.59781 0.96362 0.0
C431 C 0.33759 0.60397 0.95059 0.0
C432 C 0.38264 0.62088 0.98719 0.0
C433 C 0.39371 0.56151 0.96726 0.0
C434 C 0.36452 0.62629 0.00889 0.0
C435 C 0.38293 0.65213 0.02882 0.0
C436 C 0.41986 0.67268 0.02767 0.0
C437 C 0.43816 0.66625 0.0067 0.0
C438 C 0.41965 0.64088 0.98638 0.0
H439 H 0.38588 0.53358 0.96297 0.0
H440 H 0.42089 0.57826 0.95923 0.0
H441 H 0.39398 0.56523 0.99002 0.0
H442 H 0.33598 0.61125 0.00991 0.0
H443 H 0.36819 0.65631 0.04495 0.0
H444 H 0.73495 0.32022 0.98047 0.0
H445 H 0.74198 0.35046 0.02437 0.0
H446 H 0.81029 0.31285 0.05396 0.0
H447 H 0.80315 0.28204 0.00988 0.0
H448 H 0.75634 0.30139 0.09078 0.0
H449 H 0.82656 0.43992 0.05501 0.0
H450 H 0.78825 0.41305 0.03436 0.0
H451 H 0.82426 0.4042 0.03461 0.0
C452 C 0.75174 0.31858 -0.00382 0.0
C453 C 0.76852 0.29877 0.99175 0.0
C454 C 0.75596 0.33614 0.02117 0.0
C455 C 0.77716 0.3344 0.04215 0.0
C456 C 0.79412 0.31476 0.03784 0.0
H457 H 0.79255 0.46103 0.18785 0.0
H458 H 0.81127 0.43458 0.15181 0.0
C459 C 0.78999 0.29721 0.01271 0.0
C460 C 0.77916 0.35108 0.06917 0.0
H461 H 0.79315 0.42838 0.09748 0.0
C462 C 0.7651 0.32931 0.09247 0.0
C463 C 0.79123 0.38758 0.07142 0.0
C464 C 0.80878 0.4126 0.04756 0.0
C465 C 0.76026 0.34265 0.11745 0.0
C466 C 0.76919 0.37846 0.11886 0.0
C467 C 0.78581 0.40078 0.09622 0.0
C468 C 0.75848 0.39253 0.14244 0.0
C469 C 0.74474 0.31807 0.14184 0.0
C470 C 0.7226 0.37769 0.14897 0.0
C471 C 0.7118 0.39269 0.16947 0.0
C472 C 0.73668 0.42306 0.18366 0.0
C473 C 0.7727 0.43765 0.17729 0.0
C474 C 0.78348 0.42256 0.15677 0.0
H475 H 0.75083 0.29629 0.14082 0.0
H476 H 0.75478 0.33232 0.16175 0.0
H477 H 0.71562 0.30605 0.14153 0.0
H478 H 0.70279 0.35507 0.13763 0.0
H479 H 0.68387 0.38085 0.17377 0.0
H480 H 0.31902 0.69419 0.34253 0.0
H481 H 0.36643 0.71553 0.30858 0.0
H482 H 0.38458 0.82138 0.31804 0.0
H483 H 0.33656 0.80015 0.35182 0.0
H484 H 0.379 0.80251 0.26469 0.0
H485 H 0.47251 0.77094 0.3158 0.0
H486 H 0.42908 0.73306 0.31561 0.0
H487 H 0.43724 0.77204 0.3344 0.0
C488 C 0.33324 0.72208 0.33763 0.0
C489 C 0.32393 0.74544 0.34985 0.0
C490 C 0.36065 0.73432 0.31843 0.0
C491 C 0.37959 0.77019 0.3113 0.0
C492 C 0.37056 0.79367 0.32355 0.0
H493 H 0.53744 0.813 0.18025 0.0
H494 H 0.51481 0.82341 0.22379 0.0
C495 C 0.34302 0.78144 0.34273 0.0
C496 C 0.40616 0.78204 0.28892 0.0
H497 H 0.47403 0.77201 0.26515 0.0
C498 C 0.40039 0.79674 0.26506 0.0
C499 C 0.43459 0.7753 0.28959 0.0
C500 C 0.44394 0.76234 0.31539 0.0
C501 C 0.42014 0.80164 0.24098 0.0
C502 C 0.44579 0.79103 0.24073 0.0
C503 C 0.45391 0.77959 0.26531 0.0
C504 C 0.46014 0.78633 0.21446 0.0
C505 C 0.41215 0.81647 0.21557 0.0
C506 C 0.43691 0.76162 0.19529 0.0
C507 C 0.44961 0.75549 0.17077 0.0
C508 C 0.4859 0.7739 0.16491 0.0
C509 C 0.50932 0.79854 0.18422 0.0
C510 C 0.4965 0.80456 0.20899 0.0
H511 H 0.40145 0.83391 0.22127 0.0
H512 H 0.43608 0.83164 0.20262 0.0
H513 H 0.39191 0.79442 0.20297 0.0
H514 H 0.40884 0.74669 0.19946 0.0
H515 H 0.43088 0.73624 0.15639 0.0
loop_
_geom_bond_atom_site_label_1
_geom_bond_atom_site_label_2
_geom_bond_distance
_geom_bond_site_symmetry_2
_ccdc_geom_bond_type
C0 O1 1.306 . S
C0 O3 1.160 . S
O1 C0 1.306 . S
O1 Cd2 2.228 . S
Cd2 O1 2.228 . S
Cd2 O6 2.273 . S
Cd2 O10 2.277 . S
O3 C0 1.160 . S
O3 Cd4 2.203 . S
Cd4 O3 2.203 . S
Cd4 O6 2.411 . S
Cd4 O7 2.333 . S
Cd4 O8 2.352 . S
Cd4 O12 2.277 . S
Cd4 O13 2.356 . S
C5 O10 1.209 . S
C5 O12 1.226 . S
O6 Cd2 2.273 . S
O6 Cd4 2.411 . S
O6 C9 1.320 . S
O7 Cd4 2.333 . S
O7 C9 1.214 . S
O8 Cd4 2.352 . S
O8 C11 1.258 . S
C9 O6 1.320 . S
C9 O7 1.214 . S
O10 Cd2 2.277 . S
O10 C5 1.209 . S
C11 O8 1.258 . S
C11 O13 1.282 . S
O12 Cd4 2.277 . S
O12 C5 1.226 . S
O13 Cd4 2.356 . S
O13 C11 1.282 . S
C14 O15 1.306 . S
C14 O17 1.160 . S
O15 C14 1.306 . S
O15 Cd16 2.228 . S
Cd16 O15 2.228 . S
Cd16 O20 2.273 . S
Cd16 O24 2.277 . S
O17 C14 1.160 . S
O17 Cd18 2.203 . S
Cd18 O17 2.203 . S
Cd18 O20 2.411 . S
Cd18 O21 2.333 . S
Cd18 O22 2.352 . S
Cd18 O26 2.277 . S
Cd18 O27 2.356 . S
C19 O24 1.209 . S
C19 O26 1.226 . S
O20 Cd16 2.273 . S
O20 Cd18 2.411 . S
O20 C23 1.320 . S
O21 Cd18 2.333 . S
O21 C23 1.214 . S
O22 Cd18 2.352 . S
O22 C25 1.258 . S
C23 O20 1.320 . S
C23 O21 1.214 . S
O24 Cd16 2.277 . S
O24 C19 1.209 . S
C25 O22 1.258 . S
C25 O27 1.282 . S
O26 Cd18 2.277 . S
O26 C19 1.226 . S
O27 Cd18 2.356 . S
O27 C25 1.282 . S
C28 O29 1.306 . S
C28 O31 1.160 . S
O29 C28 1.306 . S
O29 Cd30 2.228 . S
Cd30 O29 2.228 . S
Cd30 O34 2.273 . S
Cd30 O38 2.277 . S
O31 C28 1.160 . S
O31 Cd32 2.203 . S
Cd32 O31 2.203 . S
Cd32 O34 2.411 . S
Cd32 O35 2.333 . S
Cd32 O36 2.352 . S
Cd32 O40 2.277 . S
Cd32 O41 2.356 . S
C33 O38 1.209 . S
C33 O40 1.226 . S
O34 Cd30 2.273 . S
O34 Cd32 2.411 . S
O34 C37 1.320 . S
O35 Cd32 2.333 . S
O35 C37 1.214 . S
O36 Cd32 2.352 . S
O36 C39 1.258 . S
C37 O34 1.320 . S
C37 O35 1.214 . S
O38 Cd30 2.277 . S
O38 C33 1.209 . S
C39 O36 1.258 . S
C39 O41 1.282 . S
O40 Cd32 2.277 . S
O40 C33 1.226 . S
O41 Cd32 2.356 . S
O41 C39 1.282 . S
C42 O43 1.306 . S
C42 O45 1.160 . S
O43 C42 1.306 . S
O43 Cd44 2.228 . S
Cd44 O43 2.228 . S
Cd44 O48 2.273 . S
Cd44 O52 2.277 . S
O45 C42 1.160 . S
O45 Cd46 2.203 . S
Cd46 O45 2.203 . S
Cd46 O48 2.411 . S
Cd46 O49 2.333 . S
Cd46 O50 2.352 . S
Cd46 O54 2.277 . S
Cd46 O55 2.356 . S
C47 O52 1.209 . S
C47 O54 1.226 . S
O48 Cd44 2.273 . S
O48 Cd46 2.411 . S
O48 C51 1.320 . S
O49 Cd46 2.333 . S
O49 C51 1.214 . S
O50 Cd46 2.352 . S
O50 C53 1.258 . S
C51 O48 1.320 . S
C51 O49 1.214 . S
O52 Cd44 2.277 . S
O52 C47 1.209 . S
C53 O50 1.258 . S
C53 O55 1.282 . S
O54 Cd46 2.277 . S
O54 C47 1.226 . S
O55 Cd46 2.356 . S
O55 C53 1.282 . S
C56 O57 1.306 . S
C56 O59 1.160 . S
O57 C56 1.306 . S
O57 Cd58 2.228 . S
Cd58 O57 2.228 . S
Cd58 O62 2.273 . S
Cd58 O66 2.277 . S
O59 C56 1.160 . S
O59 Cd60 2.203 . S
Cd60 O59 2.203 . S
Cd60 O62 2.411 . S
Cd60 O63 2.333 . S
Cd60 O64 2.352 . S
Cd60 O68 2.277 . S
Cd60 O69 2.356 . S
C61 O66 1.209 . S
C61 O68 1.226 . S
O62 Cd58 2.273 . S
O62 Cd60 2.411 . S
O62 C65 1.320 . S
O63 Cd60 2.333 . S
O63 C65 1.214 . S
O64 Cd60 2.352 . S
O64 C67 1.258 . S
C65 O62 1.320 . S
C65 O63 1.214 . S
O66 Cd58 2.277 . S
O66 C61 1.209 . S
C67 O64 1.258 . S
C67 O69 1.282 . S
O68 Cd60 2.277 . S
O68 C61 1.226 . S
O69 Cd60 2.356 . S
O69 C67 1.282 . S
C70 O71 1.306 . S
C70 O73 1.160 . S
O71 C70 1.306 . S
O71 Cd72 2.228 . S
Cd72 O71 2.228 . S
Cd72 O76 2.273 . S
Cd72 O80 2.277 . S
O73 C70 1.160 . S
O73 Cd74 2.203 . S
Cd74 O73 2.203 . S
Cd74 O76 2.411 . S
Cd74 O77 2.333 . S
Cd74 O78 2.352 . S
Cd74 O82 2.277 . S
Cd74 O83 2.356 . S
C75 O80 1.209 . S
C75 O82 1.226 . S
O76 Cd72 2.273 . S
O76 Cd74 2.411 . S
O76 C79 1.320 . S
O77 Cd74 2.333 . S
O77 C79 1.214 . S
O78 Cd74 2.352 . S
O78 C81 1.258 . S
C79 O76 1.320 . S
C79 O77 1.214 . S
O80 Cd72 2.277 . S
O80 C75 1.209 . S
C81 O78 1.258 . S
C81 O83 1.282 . S
O82 Cd74 2.277 . S
O82 C75 1.226 . S
O83 Cd74 2.356 . S
O83 C81 1.282 . S
H84 C92 0.929 . S
H85 C94 0.930 . S
H86 C96 0.930 . S
H87 C99 0.929 . S
H88 C102 0.930 . S
H89 C104 0.960 1_565 S
H90 C104 0.960 . S
H91 C104 0.960 . S
C92 H84 0.929 . S
C92 C93 1.377 . S
C92 C94 1.384 . S
C93 C92 1.377 . S
C93 C99 1.390 . S
C94 H85 0.930 . S
C94 C92 1.384 . S
C94 C95 1.372 . S
C95 C94 1.372 . S
C95 C96 1.400 . S
C95 C100 1.490 . S
C96 H86 0.930 . S
C96 C95 1.400 . S
C96 C99 1.386 . S
H97 C113 0.930 . S
H98 C114 0.931 . S
C99 H87 0.929 . S
C99 C93 1.390 . S
C99 C96 1.386 . S
C100 C95 1.490 . S
C100 C102 1.395 . S
C100 C103 1.403 . S
H101 C107 0.930 . S
C102 H88 0.930 . S
C102 C100 1.395 . S
C102 C105 1.403 . S
C103 C100 1.403 . S
C103 C104 1.524 . S
C103 C107 1.400 1_545 S
C104 H89 0.960 1_545 S
C104 H90 0.960 . S
C104 H91 0.960 . S
C104 C103 1.524 . S
C105 C102 1.403 . S
C105 C106 1.392 1_545 S
C105 C109 1.495 . S
C106 C105 1.392 1_565 S
C106 C107 1.385 . S
C106 C108 1.478 . S
C107 H101 0.930 . S
C107 C103 1.400 1_565 S
C107 C106 1.385 . S
C108 C106 1.478 . S
C108 C110 1.381 . S
C108 C114 1.383 . S
C109 C105 1.495 . S
C109 H115 0.959 . S
C109 H116 0.961 1_545 S
C109 H117 0.960 1_545 S
C110 C108 1.381 . S
C110 C111 1.394 . S
C110 H118 0.930 . S
C111 C110 1.394 . S
C111 C112 1.383 . S
C111 H119 0.929 . S
C112 C111 1.383 . S
C112 C113 1.377 . S
C113 H97 0.930 . S
C113 C112 1.377 . S
C113 C114 1.379 . S
C114 H98 0.931 . S
C114 C108 1.383 . S
C114 C113 1.379 . S
H115 C109 0.959 . S
H116 C109 0.961 1_565 S
H117 C109 0.960 1_565 S
H118 C110 0.930 . S
H119 C111 0.929 . S
H120 C128 0.929 . S
H121 C130 0.930 . S
H122 C132 0.930 . S
H123 C135 0.929 . S
H124 C138 0.930 . S
H125 C140 0.960 . S
H126 C140 0.960 . S
H127 C140 0.960 . S
C128 H120 0.929 . S
C128 C129 1.377 . S
C128 C130 1.384 . S
C129 C128 1.377 . S
C129 C135 1.390 . S
C130 H121 0.930 . S
C130 C128 1.384 . S
C130 C131 1.372 . S
C131 C130 1.372 . S
C131 C132 1.400 . S
C131 C136 1.490 . S
C132 H122 0.930 . S
C132 C131 1.400 . S
C132 C135 1.386 . S
H133 C149 0.930 . S
H134 C150 0.931 . S
C135 H123 0.929 . S
C135 C129 1.390 . S
C135 C132 1.386 . S
C136 C131 1.490 . S
C136 C138 1.395 . S
C136 C139 1.403 . S
H137 C143 0.930 . S
C138 H124 0.930 . S
C138 C136 1.395 . S
C138 C141 1.403 . S
C139 C136 1.403 . S
C139 C140 1.524 . S
C139 C143 1.400 . S
C140 H125 0.960 . S
C140 H126 0.960 . S
C140 H127 0.960 . S
C140 C139 1.524 . S
C141 C138 1.403 . S
C141 C142 1.392 . S
C141 C145 1.495 . S
C142 C141 1.392 . S
C142 C143 1.385 . S
C142 C144 1.478 . S
C143 H137 0.930 . S
C143 C139 1.400 . S
C143 C142 1.385 . S
C144 C142 1.478 . S
C144 C146 1.381 . S
C144 C150 1.383 . S
C145 C141 1.495 . S
C145 H151 0.959 . S
C145 H152 0.961 . S
C145 H153 0.960 . S
C146 C144 1.381 . S
C146 C147 1.394 . S
C146 H154 0.930 . S
C147 C146 1.394 . S
C147 C148 1.383 . S
C147 H155 0.929 . S
C148 C147 1.383 . S
C148 C149 1.377 . S
C149 H133 0.930 . S
C149 C148 1.377 . S
C149 C150 1.379 . S
C150 H134 0.931 . S
C150 C144 1.383 . S
C150 C149 1.379 . S
H151 C145 0.959 . S
H152 C145 0.961 . S
H153 C145 0.960 . S
H154 C146 0.930 . S
H155 C147 0.929 . S
H156 C164 0.929 . S
H157 C166 0.930 . S
H158 C168 0.930 . S
H159 C171 0.929 . S
H160 C174 0.930 . S
H161 C176 0.960 . S
H162 C176 0.960 . S
H163 C176 0.960 . S
C164 H156 0.929 . S
C164 C165 1.377 . S
C164 C166 1.384 . S
C165 C164 1.377 . S
C165 C171 1.390 . S
C166 H157 0.930 . S
C166 C164 1.384 . S
C166 C167 1.372 . S
C167 C166 1.372 . S
C167 C168 1.400 . S
C167 C172 1.490 . S
C168 H158 0.930 . S
C168 C167 1.400 . S
C168 C171 1.386 . S
H169 C185 0.930 . S
H170 C186 0.931 . S
C171 H159 0.929 . S
C171 C165 1.390 . S
C171 C168 1.386 . S
C172 C167 1.490 . S
C172 C174 1.395 . S
C172 C175 1.403 . S
H173 C179 0.930 . S
C174 H160 0.930 . S
C174 C172 1.395 . S
C174 C177 1.403 1_655 S
C175 C172 1.403 . S
C175 C176 1.524 . S
C175 C179 1.400 1_655 S
C176 H161 0.960 . S
C176 H162 0.960 . S
C176 H163 0.960 . S
C176 C175 1.524 . S
C177 C174 1.403 1_455 S
C177 C178 1.392 . S
C177 C181 1.495 . S
C178 C177 1.392 . S
C178 C179 1.385 . S
C178 C180 1.478 . S
C179 H173 0.930 . S
C179 C175 1.400 1_455 S
C179 C178 1.385 . S
C180 C178 1.478 . S
C180 C182 1.381 . S
C180 C186 1.383 . S
C181 C177 1.495 . S
C181 H187 0.959 . S
C181 H188 0.961 . S
C181 H189 0.960 . S
C182 C180 1.381 . S
C182 C183 1.394 . S
C182 H190 0.930 . S
C183 C182 1.394 . S
C183 C184 1.383 . S
C183 H191 0.929 . S
C184 C183 1.383 . S
C184 C185 1.377 . S
C185 H169 0.930 . S
C185 C184 1.377 . S
C185 C186 1.379 . S
C186 H170 0.931 . S
C186 C180 1.383 . S
C186 C185 1.379 . S
H187 C181 0.959 . S
H188 C181 0.961 . S
H189 C181 0.960 . S
H190 C182 0.930 . S
H191 C183 0.929 . S
H192 C200 0.929 . S
H193 C202 0.930 . S
H194 C204 0.930 . S
H195 C207 0.929 . S
H196 C210 0.930 . S
H197 C212 0.960 . S
H198 C212 0.960 . S
H199 C212 0.960 . S
C200 H192 0.929 . S
C200 C201 1.377 . S
C200 C202 1.384 . S
C201 C200 1.377 . S
C201 C207 1.390 . S
C202 H193 0.930 . S
C202 C200 1.384 . S
C202 C203 1.372 . S
C203 C202 1.372 . S
C203 C204 1.400 . S
C203 C208 1.490 . S
C204 H194 0.930 . S
C204 C203 1.400 . S
C204 C207 1.386 . S
H205 C221 0.930 . S
H206 C222 0.931 . S
C207 H195 0.929 . S
C207 C201 1.390 . S
C207 C204 1.386 . S
C208 C203 1.490 . S
C208 C210 1.395 . S
C208 C211 1.403 1_554 S
H209 C215 0.931 1_545 S
C210 H196 0.930 . S
C210 C208 1.395 . S
C210 C213 1.403 1_565 S
C211 C208 1.403 1_556 S
C211 C212 1.524 . S
C211 C215 1.415 . S
C212 H197 0.960 . S
C212 H198 0.960 . S
C212 H199 0.960 . S
C212 C211 1.524 . S
C213 C210 1.403 1_545 S
C213 C214 1.392 1_554 S
C213 C217 1.495 . S
C214 C213 1.392 1_556 S
C214 C215 1.370 1_545 S
C214 C216 1.478 . S
C215 H209 0.931 1_565 S
C215 C211 1.415 . S
C215 C214 1.370 1_565 S
C216 C214 1.478 . S
C216 C218 1.381 . S
C216 C222 1.383 . S
C217 C213 1.495 . S
C217 H223 0.959 . S
C217 H224 0.961 . S
C217 H225 0.960 . S
C218 C216 1.381 . S
C218 C219 1.394 . S
C218 H226 0.930 . S
C219 C218 1.394 . S
C219 C220 1.383 . S
C219 H227 0.929 . S
C220 C219 1.383 . S
C220 C221 1.377 . S
C221 H205 0.930 . S
C221 C220 1.377 . S
C221 C222 1.379 . S
C222 H206 0.931 . S
C222 C216 1.383 . S
C222 C221 1.379 . S
H223 C217 0.959 . S
H224 C217 0.961 . S
H225 C217 0.960 . S
H226 C218 0.930 . S
H227 C219 0.929 . S
H228 C236 0.929 . S
H229 C238 0.930 . S
H230 C240 0.930 . S
H231 C243 0.929 . S
H232 C246 0.930 . S
H233 C248 0.960 . S
H234 C248 0.960 . S
H235 C248 0.960 . S
C236 H228 0.929 . S
C236 C237 1.377 . S
C236 C238 1.384 . S
C237 C236 1.377 . S
C237 C243 1.390 . S
C238 H229 0.930 . S
C238 C236 1.384 . S
C238 C239 1.372 . S
C239 C238 1.372 . S
C239 C240 1.400 . S
C239 C244 1.490 . S
C240 H230 0.930 . S
C240 C239 1.400 . S
C240 C243 1.386 . S
H241 C257 0.930 . S
H242 C258 0.931 . S
C243 H231 0.929 . S
C243 C237 1.390 . S
C243 C240 1.386 . S
C244 C239 1.490 . S
C244 C246 1.395 . S
C244 C247 1.403 . S
H245 C251 0.930 . S
C246 H232 0.930 . S
C246 C244 1.395 . S
C246 C249 1.403 . S
C247 C244 1.403 . S
C247 C248 1.524 . S
C247 C251 1.400 . S
C248 H233 0.960 . S
C248 H234 0.960 . S
C248 H235 0.960 . S
C248 C247 1.524 . S
C249 C246 1.403 . S
C249 C250 1.392 . S
C249 C253 1.495 . S
C250 C249 1.392 . S
C250 C251 1.385 . S
C250 C252 1.478 . S
C251 H245 0.930 . S
C251 C247 1.400 . S
C251 C250 1.385 . S
C252 C250 1.478 . S
C252 C254 1.381 . S
C252 C258 1.383 . S
C253 C249 1.495 . S
C253 H259 0.959 . S
C253 H260 0.961 . S
C253 H261 0.960 . S
C254 C252 1.381 . S
C254 C255 1.394 . S
C254 H262 0.930 . S
C255 C254 1.394 . S
C255 C256 1.383 . S
C255 H263 0.929 . S
C256 C255 1.383 . S
C256 C257 1.377 . S
C257 H241 0.930 . S
C257 C256 1.377 . S
C257 C258 1.379 . S
C258 H242 0.931 . S
C258 C252 1.383 . S
C258 C257 1.379 . S
H259 C253 0.959 . S
H260 C253 0.961 . S
H261 C253 0.960 . S
H262 C254 0.930 . S
H263 C255 0.929 . S
H264 C272 0.929 . S
H265 C274 0.930 . S
H266 C276 0.930 . S
H267 C279 0.929 . S
H268 C282 0.930 . S
H269 C284 0.960 . S
H270 C284 0.960 . S
H271 C284 0.960 . S
C272 H264 0.929 . S
C272 C273 1.377 . S
C272 C274 1.384 . S
C273 C272 1.377 . S
C273 C279 1.390 . S
C274 H265 0.930 . S
C274 C272 1.384 . S
C274 C275 1.372 . S
C275 C274 1.372 . S
C275 C276 1.400 . S
C275 C280 1.490 . S
C276 H266 0.930 . S
C276 C275 1.400 . S
C276 C279 1.386 . S
H277 C293 0.930 . S
H278 C294 0.931 . S
C279 H267 0.929 . S
C279 C273 1.390 . S
C279 C276 1.386 . S
C280 C275 1.490 . S
C280 C282 1.395 . S
C280 C283 1.403 . S
H281 C287 0.930 1_655 S
C282 H268 0.930 . S
C282 C280 1.395 . S
C282 C285 1.403 1_455 S
C283 C280 1.403 . S
C283 C284 1.524 . S
C283 C287 1.400 . S
C284 H269 0.960 . S
C284 H270 0.960 . S
C284 H271 0.960 . S
C284 C283 1.524 . S
C285 C282 1.403 1_655 S
C285 C286 1.392 . S
C285 C289 1.495 . S
C286 C285 1.392 . S
C286 C287 1.385 1_655 S
C286 C288 1.478 . S
C287 H281 0.930 1_455 S
C287 C283 1.400 . S
C287 C286 1.385 1_455 S
C288 C286 1.478 . S
C288 C290 1.381 . S
C288 C294 1.383 . S
C289 C285 1.495 . S
C289 H295 0.959 . S
C289 H296 0.961 . S
C289 H297 0.960 . S
C290 C288 1.381 . S
C290 C291 1.394 . S
C290 H298 0.930 . S
C291 C290 1.394 . S
C291 C292 1.383 . S
C291 H299 0.929 . S
C292 C291 1.383 . S
C292 C293 1.377 . S
C293 H277 0.930 . S
C293 C292 1.377 . S
C293 C294 1.379 . S
C294 H278 0.931 . S
C294 C288 1.383 . S
C294 C293 1.379 . S
H295 C289 0.959 . S
H296 C289 0.961 . S
H297 C289 0.960 . S
H298 C290 0.930 . S
H299 C291 0.929 . S
H300 C308 0.929 . S
H301 C310 0.930 . S
H302 C312 0.930 . S
H303 C315 0.929 . S
H304 C318 0.930 . S
H305 C320 0.960 . S
H306 C320 0.960 . S
H307 C320 0.960 . S
C308 H300 0.929 . S
C308 C309 1.377 . S
C308 C310 1.384 . S
C309 C308 1.377 . S
C309 C315 1.390 . S
C310 H301 0.930 . S
C310 C308 1.384 . S
C310 C311 1.372 . S
C311 C310 1.372 . S
C311 C312 1.400 . S
C311 C316 1.490 . S
C312 H302 0.930 . S
C312 C311 1.400 . S
C312 C315 1.386 . S
H313 C329 0.930 . S
H314 C330 0.931 . S
C315 H303 0.929 . S
C315 C309 1.390 . S
C315 C312 1.386 . S
C316 C311 1.490 . S
C316 C318 1.395 . S
C316 C319 1.403 . S
H317 C323 0.930 . S
C318 H304 0.930 . S
C318 C316 1.395 . S
C318 C321 1.403 . S
C319 C316 1.403 . S
C319 C320 1.524 . S
C319 C323 1.400 . S
C320 H305 0.960 . S
C320 H306 0.960 . S
C320 H307 0.960 . S
C320 C319 1.524 . S
C321 C318 1.403 . S
C321 C322 1.392 . S
C321 C325 1.495 . S
C322 C321 1.392 . S
C322 C323 1.385 . S
C322 C324 1.478 . S
C323 H317 0.930 . S
C323 C319 1.400 . S
C323 C322 1.385 . S
C324 C322 1.478 . S
C324 C326 1.381 . S
C324 C330 1.383 . S
C325 C321 1.495 . S
C325 H331 0.959 . S
C325 H332 0.961 . S
C325 H333 0.960 . S
C326 C324 1.381 . S
C326 C327 1.394 . S
C326 H334 0.930 . S
C327 C326 1.394 . S
C327 C328 1.383 . S
C327 H335 0.929 . S
C328 C327 1.383 . S
C328 C329 1.377 . S
C329 H313 0.930 . S
C329 C328 1.377 . S
C329 C330 1.379 . S
C330 H314 0.931 . S
C330 C324 1.383 . S
C330 C329 1.379 . S
H331 C325 0.959 . S
H332 C325 0.961 . S
H333 C325 0.960 . S
H334 C326 0.930 . S
H335 C327 0.929 . S
H336 C344 0.929 . S
H337 C346 0.930 . S
H338 C348 0.930 . S
H339 C351 0.929 . S
H340 C354 0.930 . S
H341 C356 0.960 . S
H342 C356 0.960 . S
H343 C356 0.960 . S
C344 H336 0.929 . S
C344 C345 1.377 . S
C344 C346 1.384 . S
C345 C344 1.377 . S
C345 C351 1.390 . S
C346 H337 0.930 . S
C346 C344 1.384 . S
C346 C347 1.372 . S
C347 C346 1.372 . S
C347 C348 1.400 . S
C347 C352 1.490 . S
C348 H338 0.930 . S
C348 C347 1.400 . S
C348 C351 1.386 . S
H349 C365 0.930 . S
H350 C366 0.931 . S
C351 H339 0.929 . S
C351 C345 1.390 . S
C351 C348 1.386 . S
C352 C347 1.490 . S
C352 C354 1.395 . S
C352 C355 1.403 . S
H353 C359 0.930 . S
C354 H340 0.930 . S
C354 C352 1.395 . S
C354 C357 1.403 . S
C355 C352 1.403 . S
C355 C356 1.524 . S
C355 C359 1.400 . S
C356 H341 0.960 . S
C356 H342 0.960 . S
C356 H343 0.960 . S
C356 C355 1.524 . S
C357 C354 1.403 . S
C357 C358 1.392 . S
C357 C361 1.495 . S
C358 C357 1.392 . S
C358 C359 1.385 . S
C358 C360 1.478 . S
C359 H353 0.930 . S
C359 C355 1.400 . S
C359 C358 1.385 . S
C360 C358 1.478 . S
C360 C362 1.381 . S
C360 C366 1.383 . S
C361 C357 1.495 . S
C361 H367 0.959 . S
C361 H368 0.961 . S
C361 H369 0.960 . S
C362 C360 1.381 . S
C362 C363 1.394 . S
C362 H370 0.930 . S
C363 C362 1.394 . S
C363 C364 1.383 . S
C363 H371 0.929 . S
C364 C363 1.383 . S
C364 C365 1.377 . S
C365 H349 0.930 . S
C365 C364 1.377 . S
C365 C366 1.379 . S
C366 H350 0.931 . S
C366 C360 1.383 . S
C366 C365 1.379 . S
H367 C361 0.959 . S
H368 C361 0.961 . S
H369 C361 0.960 . S
H370 C362 0.930 . S
H371 C363 0.929 . S
H372 C380 0.929 . S
H373 C382 0.930 . S
H374 C384 0.930 . S
H375 C387 0.929 . S
H376 C390 0.930 . S
H377 C392 0.960 . S
H378 C392 0.960 . S
H379 C392 0.960 . S
C380 H372 0.929 . S
C380 C381 1.377 . S
C380 C382 1.384 . S
C381 C380 1.377 . S
C381 C387 1.390 . S
C382 H373 0.930 . S
C382 C380 1.384 . S
C382 C383 1.372 . S
C383 C382 1.372 . S
C383 C384 1.400 . S
C383 C388 1.490 . S
C384 H374 0.930 . S
C384 C383 1.400 . S
C384 C387 1.386 . S
H385 C401 0.930 . S
H386 C402 0.931 . S
C387 H375 0.929 . S
C387 C381 1.390 . S
C387 C384 1.386 . S
C388 C383 1.490 . S
C388 C390 1.395 . S
C388 C391 1.403 . S
H389 C395 0.930 . S
C390 H376 0.930 . S
C390 C388 1.395 . S
C390 C393 1.403 . S
C391 C388 1.403 . S
C391 C392 1.524 . S
C391 C395 1.400 . S
C392 H377 0.960 . S
C392 H378 0.960 . S
C392 H379 0.960 . S
C392 C391 1.524 . S
C393 C390 1.403 . S
C393 C394 1.392 . S
C393 C397 1.495 . S
C394 C393 1.392 . S
C394 C395 1.385 . S
C394 C396 1.478 . S
C395 H389 0.930 . S
C395 C391 1.400 . S
C395 C394 1.385 . S
C396 C394 1.478 . S
C396 C398 1.381 . S
C396 C402 1.383 . S
C397 C393 1.495 . S
C397 H403 0.959 . S
C397 H404 0.961 . S
C397 H405 0.960 . S
C398 C396 1.381 . S
C398 C399 1.394 . S
C398 H406 0.930 . S
C399 C398 1.394 . S
C399 C400 1.383 . S
C399 H407 0.929 . S
C400 C399 1.383 . S
C400 C401 1.377 . S
C401 H385 0.930 . S
C401 C400 1.377 . S
C401 C402 1.379 . S
C402 H386 0.931 . S
C402 C396 1.383 . S
C402 C401 1.379 . S
H403 C397 0.959 . S
H404 C397 0.961 . S
H405 C397 0.960 . S
H406 C398 0.930 . S
H407 C399 0.929 . S
H408 C416 0.929 . S
H409 C418 0.930 . S
H410 C420 0.930 . S
H411 C423 0.929 . S
H412 C426 0.930 . S
H413 C428 0.960 . S
H414 C428 0.960 . S
H415 C428 0.960 . S
C416 H408 0.929 . S
C416 C417 1.377 . S
C416 C418 1.384 . S
C417 C416 1.377 . S
C417 C423 1.390 . S
C418 H409 0.930 . S
C418 C416 1.384 . S
C418 C419 1.372 . S
C419 C418 1.372 . S
C419 C420 1.400 . S
C419 C424 1.490 . S
C420 H410 0.930 . S
C420 C419 1.400 . S
C420 C423 1.386 . S
H421 C437 0.930 . S
H422 C438 0.931 . S
C423 H411 0.929 . S
C423 C417 1.390 . S
C423 C420 1.386 . S
C424 C419 1.490 . S
C424 C426 1.395 . S
C424 C427 1.403 . S
H425 C431 0.930 . S
C426 H412 0.930 . S
C426 C424 1.395 . S
C426 C429 1.403 . S
C427 C424 1.403 . S
C427 C428 1.524 . S
C427 C431 1.400 . S
C428 H413 0.960 . S
C428 H414 0.960 . S
C428 H415 0.960 . S
C428 C427 1.524 . S
C429 C426 1.403 . S
C429 C430 1.392 . S
C429 C433 1.495 . S
C430 C429 1.392 . S
C430 C431 1.385 . S
C430 C432 1.478 . S
C431 H425 0.930 . S
C431 C427 1.400 . S
C431 C430 1.385 . S
C432 C430 1.478 . S
C432 C434 1.381 . S
C432 C438 1.383 . S
C433 C429 1.495 . S
C433 H439 0.959 . S
C433 H440 0.961 . S
C433 H441 0.960 . S
C434 C432 1.381 . S
C434 C435 1.394 1_556 S
C434 H442 0.930 . S
C435 C434 1.394 1_554 S
C435 C436 1.383 . S
C435 H443 0.929 . S
C436 C435 1.383 . S
C436 C437 1.377 1_554 S
C437 H421 0.930 . S
C437 C436 1.377 1_556 S
C437 C438 1.379 . S
C438 H422 0.931 . S
C438 C432 1.383 . S
C438 C437 1.379 . S
H439 C433 0.959 . S
H440 C433 0.961 . S
H441 C433 0.960 . S
H442 C434 0.930 . S
H443 C435 0.929 . S
H444 C452 0.929 . S
H445 C454 0.930 . S
H446 C456 0.930 . S
H447 C459 0.929 . S
H448 C462 0.930 . S
H449 C464 0.960 . S
H450 C464 0.960 . S
H451 C464 0.960 . S
C452 H444 0.929 . S
C452 C453 1.377 . S
C452 C454 1.384 1_556 S
C453 C452 1.377 . S
C453 C459 1.390 1_556 S
C454 H445 0.930 . S
C454 C452 1.384 1_554 S
C454 C455 1.372 . S
C455 C454 1.372 . S
C455 C456 1.400 . S
C455 C460 1.490 . S
C456 H446 0.930 . S
C456 C455 1.400 . S
C456 C459 1.386 . S
H457 C473 0.930 . S
H458 C474 0.931 . S
C459 H447 0.929 . S
C459 C453 1.390 1_554 S
C459 C456 1.386 . S
C460 C455 1.490 . S
C460 C462 1.395 . S
C460 C463 1.403 . S
H461 C467 0.930 . S
C462 H448 0.930 . S
C462 C460 1.395 . S
C462 C465 1.403 . S
C463 C460 1.403 . S
C463 C464 1.524 . S
C463 C467 1.400 . S
C464 H449 0.960 . S
C464 H450 0.960 . S
C464 H451 0.960 . S
C464 C463 1.524 . S
C465 C462 1.403 . S
C465 C466 1.392 . S
C465 C469 1.495 . S
C466 C465 1.392 . S
C466 C467 1.385 . S
C466 C468 1.478 . S
C467 H461 0.930 . S
C467 C463 1.400 . S
C467 C466 1.385 . S
C468 C466 1.478 . S
C468 C470 1.381 . S
C468 C474 1.383 . S
C469 C465 1.495 . S
C469 H475 0.959 . S
C469 H476 0.961 . S
C469 H477 0.960 . S
C470 C468 1.381 . S
C470 C471 1.394 . S
C470 H478 0.930 . S
C471 C470 1.394 . S
C471 C472 1.383 . S
C471 H479 0.929 . S
C472 C471 1.383 . S
C472 C473 1.377 . S
C473 H457 0.930 . S
C473 C472 1.377 . S
C473 C474 1.379 . S
C474 H458 0.931 . S
C474 C468 1.383 . S
C474 C473 1.379 . S
H475 C469 0.959 . S
H476 C469 0.961 . S
H477 C469 0.960 . S
H478 C470 0.930 . S
H479 C471 0.929 . S
H480 C488 0.929 . S
H481 C490 0.930 . S
H482 C492 0.930 . S
H483 C495 0.929 . S
H484 C498 0.930 . S
H485 C500 0.960 . S
H486 C500 0.960 . S
H487 C500 0.960 . S
C488 H480 0.929 . S
C488 C489 1.377 . S
C488 C490 1.384 . S
C489 C488 1.377 . S
C489 C495 1.390 . S
C490 H481 0.930 . S
C490 C488 1.384 . S
C490 C491 1.372 . S
C491 C490 1.372 . S
C491 C492 1.400 . S
C491 C496 1.490 . S
C492 H482 0.930 . S
C492 C491 1.400 . S
C492 C495 1.386 . S
H493 C509 0.930 . S
H494 C510 0.931 . S
C495 H483 0.929 . S
C495 C489 1.390 . S
C495 C492 1.386 . S
C496 C491 1.490 . S
C496 C498 1.395 . S
C496 C499 1.403 . S
H497 C503 0.930 . S
C498 H484 0.930 . S
C498 C496 1.395 . S
C498 C501 1.403 . S
C499 C496 1.403 . S
C499 C500 1.524 . S
C499 C503 1.400 . S
C500 H485 0.960 . S
C500 H486 0.960 . S
C500 H487 0.960 . S
C500 C499 1.524 . S
C501 C498 1.403 . S
C501 C502 1.392 . S
C501 C505 1.495 . S
C502 C501 1.392 . S
C502 C503 1.385 . S
C502 C504 1.478 . S
C503 H497 0.930 . S
C503 C499 1.400 . S
C503 C502 1.385 . S
C504 C502 1.478 . S
C504 C506 1.381 . S
C504 C510 1.383 . S
C505 C501 1.495 . S
C505 H511 0.959 . S
C505 H512 0.961 . S
C505 H513 0.960 . S
C506 C504 1.381 . S
C506 C507 1.394 . S
C506 H514 0.930 . S
C507 C506 1.394 . S
C507 C508 1.383 . S
C507 H515 0.929 . S
C508 C507 1.383 . S
C508 C509 1.377 . S
C509 H493 0.930 . S
C509 C508 1.377 . S
C509 C510 1.379 . S
C510 H494 0.931 . S
C510 C504 1.383 . S
C510 C509 1.379 . S
H511 C505 0.959 . S
H512 C505 0.961 . S
H513 C505 0.960 . S
H514 C506 0.930 . S
H515 C507 0.929 . S
C93 C5 1.637 . S
C112 C81 1.634 . S
C129 C11 1.632 . S
C148 C19 1.631 . S
C165 C33 1.636 . S
C184 C25 1.633 . S
C201 C47 1.637 . S
C220 C39 1.628 . S
C237 C61 1.637 . S
C256 C53 1.619 . S
C273 C75 1.636 . S
C292 C67 1.627 . S
C309 C0 1.431 . S
C328 C65 1.447 . S
C345 C79 1.443 . S
C364 C14 1.439 . S
C381 C28 1.437 . S
C400 C9 1.434 . S
C417 C23 1.442 . S
C436 C42 1.445 . S
C453 C37 1.445 . S
C472 C56 1.418 . S
C489 C70 1.432 . S
C508 C51 1.445 . S
