# Generated by pormake.
# Topology wjh, (4)-cn, num edge types: 1
# Building blocks:
#     Node 0, Type 0, BuildingBlock: QUQFOY_clean_sbu_3, # of connection points: 4
#     Node 1, Type 0, BuildingBlock: QUQFOY_clean_sbu_3, # of connection points: 4
#     Node 2, Type 0, BuildingBlock: QUQFOY_clean_sbu_3, # of connection points: 4
#     Node 3, Type 0, BuildingBlock: QUQFOY_clean_sbu_3, # of connection points: 4
#     Node 4, Type 0, BuildingBlock: QUQFOY_clean_sbu_3, # of connection points: 4
#     Node 5, Type 0, BuildingBlock: QUQFOY_clean_sbu_3, # of connection points: 4
#     Node 6, Type 0, BuildingBlock: QUQFOY_clean_sbu_3, # of connection points: 4
#     Node 7, Type 0, BuildingBlock: QUQFOY_clean_sbu_3, # of connection points: 4
#     Node 8, Type 0, BuildingBlock: QUQFOY_clean_sbu_3, # of connection points: 4
#     Node 9, Type 0, BuildingBlock: QUQFOY_clean_sbu_3, # of connection points: 4
#     Node 10, Type 0, BuildingBlock: QUQFOY_clean_sbu_3, # of connection points: 4
#     Node 11, Type 0, BuildingBlock: QUQFOY_clean_sbu_3, # of connection points: 4
#     Edge 12, Type (0, 0), BuildingBlock: XIVTED_clean_linker_0, # of connection points: 2
#     Edge 13, Type (0, 0), BuildingBlock: XIVTED_clean_linker_0, # of connection points: 2
#     Edge 14, Type (0, 0), BuildingBlock: XIVTED_clean_linker_0, # of connection points: 2
#     Edge 15, Type (0, 0), BuildingBlock: XIVTED_clean_linker_0, # of connection points: 2
#     Edge 16, Type (0, 0), BuildingBlock: XIVTED_clean_linker_0, # of connection points: 2
#     Edge 17, Type (0, 0), BuildingBlock: XIVTED_clean_linker_0, # of connection points: 2
#     Edge 18, Type (0, 0), BuildingBlock: XIVTED_clean_linker_0, # of connection points: 2
#     Edge 19, Type (0, 0), BuildingBlock: XIVTED_clean_linker_0, # of connection points: 2
#     Edge 20, Type (0, 0), BuildingBlock: XIVTED_clean_linker_0, # of connection points: 2
#     Edge 21, Type (0, 0), BuildingBlock: XIVTED_clean_linker_0, # of connection points: 2
#     Edge 22, Type (0, 0), BuildingBlock: XIVTED_clean_linker_0, # of connection points: 2
#     Edge 23, Type (0, 0), BuildingBlock: XIVTED_clean_linker_0, # of connection points: 2
#     Edge 24, Type (0, 0), BuildingBlock: XIVTED_clean_linker_0, # of connection points: 2
#     Edge 25, Type (0, 0), BuildingBlock: XIVTED_clean_linker_0, # of connection points: 2
#     Edge 26, Type (0, 0), BuildingBlock: XIVTED_clean_linker_0, # of connection points: 2
#     Edge 27, Type (0, 0), BuildingBlock: XIVTED_clean_linker_0, # of connection points: 2
#     Edge 28, Type (0, 0), BuildingBlock: XIVTED_clean_linker_0, # of connection points: 2
#     Edge 29, Type (0, 0), BuildingBlock: XIVTED_clean_linker_0, # of connection points: 2
#     Edge 30, Type (0, 0), BuildingBlock: XIVTED_clean_linker_0, # of connection points: 2
#     Edge 31, Type (0, 0), BuildingBlock: XIVTED_clean_linker_0, # of connection points: 2
#     Edge 32, Type (0, 0), BuildingBlock: XIVTED_clean_linker_0, # of connection points: 2
#     Edge 33, Type (0, 0), BuildingBlock: XIVTED_clean_linker_0, # of connection points: 2
#     Edge 34, Type (0, 0), BuildingBlock: XIVTED_clean_linker_0, # of connection points: 2
#     Edge 35, Type (0, 0), BuildingBlock: XIVTED_clean_linker_0, # of connection points: 2
# Relax obj value: 0.075
# Max RMSD: 0.098
# Mean RMSD: 0.098
data_MOF--net-wjh--node1-QUQFOY_clean_sbu_3--edge1-XIVTED_clean_linker_0
_symmetry_space_group_name_H-M    P1
_symmetry_Int_Tables_number       1
_symmetry_cell_setting            triclinic
loop_
_symmetry_equiv_pos_as_xyz
'x, y, z'
_cell_length_a     65.217019
_cell_length_b     65.063992
_cell_length_c     27.836206
_cell_angle_alpha  90.322958
_cell_angle_beta   89.568304
_cell_angle_gamma 120.33403
loop_
_atom_site_label
_atom_site_type_symbol
_atom_site_fract_x
_atom_site_fract_y
_atom_site_fract_z
_atom_type_partial_charge
C0 C 0.51685 0.12956 0.95545 0.0
O1 O 0.52918 0.12616 -0.01397 0.0
Cd2 Cd 0.52087 0.11822 0.06904 0.0
O3 O 0.49837 0.13032 0.96828 0.0
Cd4 Cd 0.4777 0.12876 0.04607 0.0
C5 C 0.46211 0.07146 0.06076 0.0
O6 O 0.5131 0.14791 0.09491 0.0
O7 O 0.48021 0.12998 0.13413 0.0
O8 O 0.47729 0.16434 0.02328 0.0
C9 C 0.50261 0.14293 0.13514 0.0
O10 O 0.48392 0.08017 0.07149 0.0
C11 C 0.45684 0.158 0.04037 0.0
O12 O 0.4543 0.08483 0.04642 0.0
O13 O 0.44466 0.13664 0.05504 0.0
C14 C 0.36957 0.53221 0.11962 0.0
O15 O 0.38729 0.54328 0.14726 0.0
Cd16 Cd 0.39129 0.5293 0.22251 0.0
O17 O 0.35089 0.51319 0.13335 0.0
Cd18 Cd 0.33418 0.48915 0.20898 0.0
C19 C 0.37256 0.47009 0.18986 0.0
O20 O 0.35647 0.52202 0.26189 0.0
O21 O 0.34029 0.48777 0.29609 0.0
O22 O 0.30116 0.49539 0.19866 0.0
C23 C 0.35235 0.51022 0.30014 0.0
O24 O 0.38805 0.49144 0.2008 0.0
C25 C 0.28509 0.47498 0.21271 0.0
O26 O 0.35044 0.4632 0.18918 0.0
O27 O 0.29145 0.45978 0.22085 0.0
C28 C 0.82392 0.39023 0.28526 0.0
O29 O 0.83431 0.40754 0.31432 0.0
Cd30 Cd 0.84489 0.40454 0.39433 0.0
O31 O 0.81808 0.36915 0.29814 0.0
Cd32 Cd 0.82092 0.35055 0.37454 0.0
C33 C 0.8799 0.37963 0.3743 0.0
O34 O 0.81028 0.37275 0.42935 0.0
O35 O 0.82997 0.35795 0.46089 0.0
O36 O 0.78041 0.31845 0.36515 0.0
C37 C 0.81739 0.36755 0.46693 0.0
O38 O 0.8777 0.39653 0.39188 0.0
C39 C 0.78394 0.30191 0.3786 0.0
O40 O 0.86198 0.3607 0.3586 0.0
O41 O 0.80539 0.30755 0.38573 0.0
C42 C 0.41925 0.83577 0.45239 0.0
O43 O 0.41246 0.84607 0.48193 0.0
Cd44 Cd 0.42667 0.85705 0.56155 0.0
O45 O 0.43485 0.83042 0.46441 0.0
Cd46 Cd 0.45755 0.83417 0.53925 0.0
C47 C 0.48658 0.89326 0.53918 0.0
O48 O 0.42487 0.82279 0.5946 0.0
O49 O 0.45956 0.84311 0.62588 0.0
O50 O 0.44968 0.79402 0.52715 0.0
C51 C 0.43733 0.83019 0.63207 0.0
O52 O 0.46744 0.8905 0.5577 0.0
C53 C 0.46979 0.79784 0.54099 0.0
O54 O 0.48784 0.8756 0.52282 0.0
O55 O 0.4854 0.81935 0.54966 0.0
C56 C 0.56522 0.43295 0.62221 0.0
O57 O 0.54815 0.42446 0.65224 0.0
Cd58 Cd 0.54974 0.43248 0.73592 0.0
O59 O 0.58634 0.44822 0.63527 0.0
Cd60 Cd 0.6046 0.46788 0.71401 0.0
C61 C 0.5698 0.4921 0.72963 0.0
O62 O 0.58376 0.43097 0.75913 0.0
O63 O 0.60177 0.46265 0.80197 0.0
O64 O 0.64281 0.471 0.69324 0.0
C65 C 0.59052 0.44013 0.8002 0.0
O66 O 0.55393 0.47179 0.74507 0.0
C67 C 0.65516 0.49103 0.71391 0.0
O68 O 0.5891 0.49514 0.71146 0.0
O69 O 0.64411 0.50101 0.73007 0.0
C70 C 0.10933 0.57337 0.78266 0.0
O71 O 0.10026 0.55651 0.81296 0.0
Cd72 Cd 0.09313 0.55934 0.8958 0.0
O73 O 0.11579 0.59472 0.79519 0.0
Cd74 Cd 0.11611 0.61472 0.87276 0.0
C75 C 0.05665 0.58289 0.88579 0.0
O76 O 0.12908 0.59261 0.92065 0.0
O77 O 0.11599 0.61168 0.96144 0.0
O78 O 0.15497 0.64866 0.85502 0.0
C79 C 0.12616 0.59946 0.96126 0.0
O80 O 0.05981 0.56633 0.90128 0.0
C81 C 0.1503 0.66436 0.86973 0.0
O82 O 0.07377 0.60195 0.8683 0.0
O83 O 0.12883 0.65718 0.88111 0.0
C84 C 0.82246 0.43787 0.94705 0.0
O85 O 0.83069 0.42864 0.91818 0.0
Cd86 Cd 0.84272 0.44086 0.83791 0.0
O87 O 0.81959 0.455 0.93365 0.0
Cd88 Cd 0.8258 0.47662 0.85554 0.0
C89 C 0.88411 0.49983 0.85742 0.0
O90 O 0.8107 0.44234 0.80217 0.0
O91 O 0.83585 0.47584 0.77051 0.0
O92 O 0.78922 0.47779 0.86861 0.0
C93 C 0.8205 0.45408 0.76454 0.0
O94 O 0.87928 0.47981 0.83959 0.0
C95 C 0.79658 0.49745 0.84705 0.0
O96 O 0.86776 0.50339 0.87294 0.0
O97 O 0.81811 0.50837 0.83334 0.0
C98 C 0.37133 0.82887 0.11245 0.0
O99 O 0.38812 0.83351 0.08323 0.0
Cd100 Cd 0.39116 0.85014 0.00682 0.0
O101 O 0.35337 0.83039 0.09945 0.0
Cd102 Cd 0.33763 0.83724 0.02236 0.0
C103 C 0.37727 0.89432 0.03645 0.0
O104 O 0.35612 0.82278 0.96684 0.0
O105 O 0.34742 0.84795 0.93743 0.0
O106 O 0.30295 0.7987 0.03382 0.0
C107 C 0.35423 0.83307 0.93023 0.0
O108 O 0.39153 0.88717 0.0244 0.0
C109 C 0.28793 0.80383 0.01784 0.0
O110 O 0.35503 0.87971 0.04059 0.0
O111 O 0.29562 0.82562 0.00813 0.0
C112 C 0.51849 0.38551 0.28003 0.0
O113 O 0.5294 0.40214 0.24975 0.0
Cd114 Cd 0.52171 0.40099 0.1665 0.0
O115 O 0.50131 0.36521 0.26699 0.0
Cd116 Cd 0.4817 0.3467 0.18812 0.0
C117 C 0.46242 0.38523 0.17012 0.0
O118 O 0.51828 0.36479 0.14156 0.0
O119 O 0.48633 0.34899 0.09992 0.0
O120 O 0.48111 0.31008 0.20723 0.0
C121 C 0.50875 0.35879 0.10071 0.0
O122 O 0.484 0.39974 0.159 0.0
C123 C 0.46048 0.29614 0.19088 0.0
O124 O 0.45618 0.36459 0.18639 0.0
O125 O 0.44843 0.30561 0.17839 0.0
C126 C 0.1041 0.52389 0.44037 0.0
O127 O 0.09486 0.5316 0.41072 0.0
Cd128 Cd 0.08774 0.52171 0.32794 0.0
O129 O 0.1104 0.50902 0.42721 0.0
Cd130 Cd 0.11019 0.48917 0.34956 0.0
C131 C 0.05079 0.46121 0.33687 0.0
O132 O 0.12376 0.52487 0.30255 0.0
O133 O 0.11103 0.49291 0.2609 0.0
O134 O 0.14881 0.49446 0.36838 0.0
C135 C 0.1213 0.51543 0.26174 0.0
O136 O 0.05428 0.48119 0.32195 0.0
C137 C 0.14452 0.4743 0.3528 0.0
O138 O 0.06768 0.45912 0.35416 0.0
O139 O 0.12328 0.45985 0.34021 0.0
C140 C 0.55498 0.11579 0.61244 0.0
O141 O 0.53774 0.10479 0.58363 0.0
Cd142 Cd 0.54046 0.09751 0.5006 0.0
O143 O 0.57637 0.12366 0.59839 0.0
Cd144 Cd 0.59596 0.12372 0.52063 0.0
C145 C 0.56738 0.06404 0.5086 0.0
O146 O 0.57179 0.13466 0.47405 0.0
O147 O 0.59288 0.12416 0.43235 0.0
O148 O 0.62833 0.16355 0.53787 0.0
C149 C 0.57956 0.13311 0.43335 0.0
O150 O 0.54994 0.06588 0.49391 0.0
C151 C 0.64473 0.16015 0.52239 0.0
O152 O 0.58591 0.08194 0.52563 0.0
O153 O 0.63875 0.13895 0.51077 0.0
C154 C 0.41927 0.57124 0.78113 0.0
O155 O 0.41329 0.55327 0.75424 0.0
Cd156 Cd 0.4275 0.55336 0.67555 0.0
O157 O 0.43458 0.59221 0.76715 0.0
Cd158 Cd 0.45822 0.61058 0.69228 0.0
C159 C 0.4876 0.58056 0.69856 0.0
O160 O 0.42571 0.58522 0.6409 0.0
O161 O 0.45907 0.60548 0.60401 0.0
O162 O 0.44946 0.64233 0.70124 0.0
C163 C 0.43683 0.59145 0.60153 0.0
O164 O 0.46849 0.56279 0.68323 0.0
C165 C 0.46978 0.65903 0.68827 0.0
O166 O 0.48874 0.60013 0.70967 0.0
O167 O 0.48578 0.65362 0.68169 0.0
H168 H 0.48592 0.1383 0.22684 0.0
H169 H 0.59489 0.13474 0.34084 0.0
H170 H 0.54904 0.15518 0.14518 0.0
H171 H 0.54401 0.14323 0.42594 0.0
H172 H 0.57808 0.14133 0.26811 0.0
H173 H 0.50667 0.13947 0.30045 0.0
C174 C 0.50423 0.1425 0.22453 0.0
C175 C 0.51575 0.14647 0.17999 0.0
C176 C 0.57078 0.14196 0.30279 0.0
C177 C 0.53942 0.14751 0.26364 0.0
C178 C 0.58027 0.13809 0.34418 0.0
C179 C 0.57067 0.13824 0.3893 0.0
C180 C 0.5514 0.14567 0.30674 0.0
C181 C 0.55186 0.14284 0.39179 0.0
C182 C 0.51607 0.14321 0.26647 0.0
C183 C 0.53951 0.15196 0.17887 0.0
N184 N 0.54267 0.14613 0.351 0.0
N185 N 0.55049 0.152 0.22011 0.0
H186 H 0.34339 0.49122 0.39038 0.0
H187 H 0.45346 0.60447 0.50962 0.0
H188 H 0.38873 0.55575 0.31158 0.0
H189 H 0.39314 0.55219 0.59128 0.0
H190 H 0.43277 0.58451 0.43539 0.0
H191 H 0.36438 0.51115 0.46421 0.0
C192 C 0.35774 0.50956 0.38869 0.0
C193 C 0.36434 0.52191 0.34504 0.0
C194 C 0.42412 0.5775 0.46965 0.0
C195 C 0.38843 0.54461 0.42871 0.0
C196 C 0.43591 0.58881 0.51185 0.0
C197 C 0.42493 0.57996 0.55643 0.0
C198 C 0.40143 0.5571 0.47238 0.0
C199 C 0.40218 0.55965 0.55756 0.0
C200 C 0.36964 0.52091 0.43071 0.0
C201 C 0.38303 0.54564 0.34464 0.0
N202 N 0.39121 0.54882 0.5161 0.0
N203 N 0.39453 0.55622 0.38589 0.0
H204 H 0.85591 0.46581 0.69913 0.0
H205 H 0.78109 0.37252 0.50128 0.0
H206 H 0.78252 0.41404 0.72881 0.0
H207 H 0.85118 0.38612 0.53649 0.0
H208 H 0.78091 0.39316 0.57539 0.0
H209 H 0.85445 0.44282 0.62778 0.0
C210 C 0.83942 0.44978 0.69018 0.0
C211 C 0.81926 0.44171 0.71952 0.0
C212 C 0.79618 0.39137 0.5669 0.0
C213 C 0.81751 0.41573 0.63854 0.0
C214 C 0.79631 0.37969 0.52491 0.0
C215 C 0.81614 0.37763 0.51327 0.0
C216 C 0.81632 0.40165 0.59622 0.0
C217 C 0.8355 0.38722 0.54465 0.0
C218 C 0.8387 0.43663 0.64995 0.0
C219 C 0.7984 0.42073 0.70688 0.0
N220 N 0.83529 0.39922 0.58452 0.0
N221 N 0.79796 0.40848 0.66687 0.0
H222 H 0.3962 0.79358 0.66685 0.0
H223 H 0.37772 0.86883 0.86533 0.0
H224 H 0.45238 0.86472 0.70074 0.0
H225 H 0.35566 0.79527 0.89261 0.0
H226 H 0.39906 0.86765 0.79325 0.0
H227 H 0.37515 0.79362 0.74039 0.0
C228 C 0.40414 0.80908 0.69011 0.0
C229 C 0.42601 0.82911 0.6783 0.0
C230 C 0.38942 0.8518 0.81506 0.0
C231 C 0.4019 0.82956 0.76056 0.0
C232 C 0.37711 0.85237 0.85568 0.0
C233 C 0.365 0.83209 0.88457 0.0
C234 C 0.389 0.83065 0.80294 0.0
C235 C 0.36489 0.81125 0.87106 0.0
C236 C 0.39218 0.80909 0.73174 0.0
C237 C 0.43563 0.84886 0.70913 0.0
N238 N 0.37661 0.81098 0.83081 0.0
N239 N 0.42329 0.84875 0.74871 0.0
H240 H 0.55599 0.39158 0.09314 0.0
H241 H 0.55573 0.39347 0.80664 0.0
H242 H 0.49413 0.34617 0.00802 0.0
H243 H 0.60425 0.45373 0.89302 0.0
H244 H 0.53777 0.37081 0.88004 0.0
H245 H 0.5785 0.40921 0.0193 0.0
C246 C 0.54723 0.38511 0.05889 0.0
C247 C 0.52309 0.3676 0.05655 0.0
C248 C 0.55248 0.38892 0.88282 0.0
C249 C 0.54873 0.38759 0.97235 0.0
C250 C 0.56279 0.40184 0.84105 0.0
C251 C 0.5813 0.4256 0.84392 0.0
C252 C 0.56094 0.39977 0.92762 0.0
C253 C 0.58982 0.43554 0.88934 0.0
C254 C 0.56006 0.39523 0.01688 0.0
C255 C 0.51264 0.35982 0.01131 0.0
N256 N 0.57948 0.42258 0.92955 0.0
N257 N 0.52552 0.36996 0.97086 0.0
H258 H 0.13277 0.5618 0.2551 0.0
H259 H 0.13673 0.5641 0.96885 0.0
H260 H 0.12016 0.50125 0.16856 0.0
H261 H 0.12317 0.61165 0.05421 0.0
H262 H 0.13891 0.54504 0.04238 0.0
H263 H 0.13744 0.58428 0.18189 0.0
C264 C 0.13117 0.55329 0.22066 0.0
C265 C 0.12585 0.52955 0.21775 0.0
C266 C 0.13559 0.55972 0.04496 0.0
C267 C 0.13128 0.5552 0.13417 0.0
C268 C 0.13443 0.57068 0.00311 0.0
C269 C 0.12953 0.58933 0.00555 0.0
C270 C 0.13209 0.56765 0.0895 0.0
C271 C 0.12677 0.59718 0.05082 0.0
C272 C 0.13377 0.56612 0.17899 0.0
C273 C 0.12405 0.51945 0.17228 0.0
N274 N 0.12803 0.58623 0.09115 0.0
N275 N 0.12672 0.53234 0.13213 0.0
H276 H 0.41849 0.26183 0.15002 0.0
H277 H 0.48146 0.20523 0.01875 0.0
H278 H 0.48677 0.27455 0.198 0.0
H279 H 0.41806 0.15241 0.09193 0.0
H280 H 0.4775 0.23647 0.05903 0.0
H281 H 0.41217 0.22537 0.10899 0.0
C282 C 0.43184 0.25668 0.15303 0.0
C283 C 0.45331 0.27139 0.17719 0.0
C284 C 0.46417 0.218 0.06522 0.0
C285 C 0.44643 0.23055 0.12944 0.0
C286 C 0.46629 0.20014 0.04209 0.0
C287 C 0.45027 0.17613 0.05254 0.0
C288 C 0.44574 0.21187 0.09836 0.0
C289 C 0.43089 0.17071 0.0831 0.0
C290 C 0.42823 0.23602 0.12946 0.0
C291 C 0.47003 0.26391 0.17968 0.0
N292 N 0.42929 0.18852 0.10565 0.0
N293 N 0.46648 0.24433 0.15511 0.0
H294 H 0.26958 0.50653 0.20675 0.0
H295 H 0.14202 0.43337 0.31751 0.0
H296 H 0.24696 0.43476 0.25212 0.0
H297 H 0.1919 0.50583 0.35902 0.0
H298 H 0.17509 0.43047 0.28129 0.0
H299 H 0.23454 0.50353 0.24517 0.0
C300 C 0.25703 0.48994 0.22399 0.0
C301 C 0.26139 0.47095 0.22666 0.0
C302 C 0.17866 0.44678 0.29913 0.0
C303 C 0.22122 0.46754 0.27087 0.0
C304 C 0.15992 0.44845 0.31996 0.0
C305 C 0.16418 0.46995 0.34103 0.0
C306 C 0.20151 0.46692 0.29847 0.0
C307 C 0.18769 0.48895 0.34303 0.0
C308 C 0.23716 0.48836 0.24629 0.0
C309 C 0.24431 0.44985 0.24941 0.0
N310 N 0.20536 0.48714 0.32115 0.0
N311 N 0.22489 0.4487 0.27094 0.0
H312 H 0.68401 0.15944 0.48736 0.0
H313 H 0.73711 0.28835 0.37976 0.0
H314 H 0.65877 0.20723 0.52609 0.0
H315 H 0.78482 0.2626 0.41257 0.0
H316 H 0.70493 0.25342 0.41875 0.0
H317 H 0.71924 0.19308 0.44997 0.0
C318 C 0.68609 0.17703 0.48891 0.0
C319 C 0.66834 0.1805 0.50965 0.0
C320 C 0.72241 0.25534 0.4171 0.0
C321 C 0.7079 0.21851 0.46573 0.0
C322 C 0.74076 0.27514 0.39437 0.0
C323 C 0.76378 0.27853 0.39321 0.0
C324 C 0.72692 0.23853 0.43833 0.0
C325 C 0.76735 0.2607 0.41282 0.0
C326 C 0.70608 0.19611 0.46736 0.0
C327 C 0.6719 0.20365 0.51044 0.0
N328 N 0.74906 0.2414 0.43479 0.0
N329 N 0.69104 0.22165 0.48804 0.0
H330 H 0.43733 0.75057 0.53503 0.0
H331 H 0.51077 0.69895 0.65726 0.0
H332 H 0.50936 0.79929 0.57952 0.0
H333 H 0.43602 0.67168 0.68294 0.0
H334 H 0.51324 0.73392 0.61767 0.0
H335 H 0.43944 0.71816 0.57336 0.0
C336 C 0.45379 0.75442 0.55204 0.0
C337 C 0.47312 0.77777 0.55451 0.0
C338 C 0.49645 0.72034 0.6326 0.0
C339 C 0.4755 0.74064 0.59886 0.0
C340 C 0.49502 0.7005 0.65538 0.0
C341 C 0.47312 0.68231 0.67327 0.0
C342 C 0.47572 0.72154 0.62684 0.0
C343 C 0.45326 0.68517 0.66965 0.0
C344 C 0.45486 0.73593 0.57434 0.0
C345 C 0.49401 0.78157 0.57699 0.0
N346 N 0.45497 0.70418 0.64621 0.0
N347 N 0.49464 0.76315 0.59864 0.0
H348 H 0.68794 0.48297 0.66832 0.0
H349 H 0.75684 0.49166 0.89325 0.0
H350 H 0.67863 0.51829 0.79111 0.0
H351 H 0.79757 0.51848 0.76245 0.0
H352 H 0.72536 0.49691 0.85781 0.0
H353 H 0.7264 0.49146 0.70102 0.0
C354 C 0.69423 0.49294 0.70152 0.0
C355 C 0.68016 0.49998 0.72702 0.0
C356 C 0.74146 0.5021 0.83741 0.0
C357 C 0.72335 0.50887 0.7651 0.0
C358 C 0.75934 0.49913 0.85755 0.0
C359 C 0.77981 0.50481 0.83079 0.0
C360 C 0.74375 0.50986 0.7897 0.0
C361 C 0.78213 0.51416 0.78439 0.0
C362 C 0.71608 0.49777 0.72007 0.0
C363 C 0.68901 0.51269 0.77015 0.0
N364 N 0.76401 0.51583 0.76474 0.0
N365 N 0.70978 0.51619 0.78854 0.0
H366 H 0.14692 0.70269 0.90239 0.0
H367 H 0.26932 0.75628 0.02977 0.0
H368 H 0.19777 0.68079 0.86812 0.0
H369 H 0.25258 0.80732 0.97086 0.0
H370 H 0.23485 0.72447 -0.01078 0.0
H371 H 0.17897 0.73884 0.9408 0.0
C372 C 0.16484 0.70571 0.90194 0.0
C373 C 0.16964 0.68859 0.88231 0.0
C374 C 0.23859 0.74263 -0.01427 0.0
C375 C 0.20573 0.72911 0.92734 0.0
C376 C 0.25813 0.7608 0.00917 0.0
C377 C 0.26407 0.78459 0.0032 0.0
C378 C 0.22457 0.74809 0.95669 0.0
C379 C 0.2487 0.78923 0.97619 0.0
C380 C 0.18299 0.72622 0.924 0.0
C381 C 0.19316 0.69337 0.8829 0.0
N382 N 0.22959 0.77108 0.95353 0.0
N383 N 0.21019 0.7129 0.90599 0.0
H384 H 0.51249 0.10705 0.64997 0.0
H385 H 0.55952 0.1388 0.91856 0.0
H386 H 0.58576 0.13399 0.68863 0.0
H387 H 0.48998 0.12441 0.87577 0.0
H388 H 0.56963 0.13777 0.83453 0.0
H389 H 0.50399 0.11342 0.73228 0.0
C390 C 0.52683 0.1143 0.67576 0.0
C391 C 0.54988 0.11984 0.66236 0.0
C392 C 0.55223 0.13503 0.84339 0.0
C393 C 0.54018 0.12723 0.75689 0.0
C394 C 0.5464 0.13557 0.89142 0.0
C395 C 0.52376 0.13147 0.90426 0.0
C396 C 0.53523 0.13008 0.8078 0.0
C397 C 0.50761 0.12762 0.8675 0.0
C398 C 0.52195 0.11805 0.72276 0.0
C399 C 0.56773 0.12938 0.69735 0.0
N400 N 0.51358 0.12677 0.82091 0.0
N401 N 0.56246 0.13264 0.7431 0.0
H402 H 0.38062 0.53091 0.81503 0.0
H403 H 0.401 0.57629 0.08483 0.0
H404 H 0.43256 0.60269 0.85674 0.0
H405 H 0.3439 0.50734 0.04069 0.0
H406 H 0.4097 0.58794 0.0008 0.0
H407 H 0.36426 0.52346 0.89609 0.0
C408 C 0.38855 0.54518 0.84121 0.0
C409 C 0.40826 0.56737 0.82927 0.0
C410 C 0.39505 0.57038 0.00941 0.0
C411 C 0.38953 0.55888 0.92239 0.0
C412 C 0.39007 0.56369 0.05741 0.0
C413 C 0.37194 0.54065 0.0697 0.0
C414 C 0.38202 0.55381 0.97335 0.0
C415 C 0.35814 0.52521 0.03278 0.0
C416 C 0.37908 0.54092 0.88749 0.0
C417 C 0.4175 0.58526 0.8645 0.0
N418 N 0.36372 0.53194 -0.01384 0.0
N419 N 0.40823 0.58052 0.90969 0.0
H420 H 0.81693 0.45966 0.02702 0.0
H421 H 0.80996 0.36046 0.20678 0.0
H422 H 0.81644 0.39595 -0.01914 0.0
H423 H 0.82681 0.43094 0.2515 0.0
H424 H 0.80496 0.37024 0.12448 0.0
H425 H 0.81303 0.44624 0.11048 0.0
C426 C 0.8157 0.44274 0.03437 0.0
C427 C 0.81732 0.42906 -0.00297 0.0
C428 C 0.8096 0.38349 0.15244 0.0
C429 C 0.81289 0.41364 0.09207 0.0
C430 C 0.81242 0.3779 0.19941 0.0
C431 C 0.8191 0.39499 0.23596 0.0
C432 C 0.81334 0.40626 0.1421 0.0
C433 C 0.82196 0.41729 0.22435 0.0
C434 C 0.81358 0.43513 0.08195 0.0
C435 C 0.8156 0.40724 0.00858 0.0
N436 N 0.81917 0.42231 0.17842 0.0
N437 N 0.81361 0.40028 0.05505 0.0
H438 H 0.38232 0.84009 0.41902 0.0
H439 H 0.40155 0.81515 0.14712 0.0
H440 H 0.43257 0.8189 0.37461 0.0
H441 H 0.34751 0.83092 0.1925 0.0
H442 H 0.41032 0.81248 0.23094 0.0
H443 H 0.36697 0.83338 0.33747 0.0
C444 C 0.39009 0.83393 0.39216 0.0
C445 C 0.40899 0.83032 0.4036 0.0
C446 C 0.39636 0.81626 0.22268 0.0
C447 C 0.3914 0.8226 0.30992 0.0
C448 C 0.39132 0.81779 0.17477 0.0
C449 C 0.37397 0.82359 0.1628 0.0
C450 C 0.38415 0.82079 0.25903 0.0
C451 C 0.3611 0.82653 0.20011 0.0
C452 C 0.38122 0.83001 0.34557 0.0
C453 C 0.41812 0.82208 0.36737 0.0
N454 N 0.36668 0.82542 0.24663 0.0
N455 N 0.40937 0.8187 0.32203 0.0
H456 H 0.59408 0.45143 0.54259 0.0
H457 H 0.49547 0.35898 0.36019 0.0
H458 H 0.52441 0.39558 0.5868 0.0
H459 H 0.55908 0.42306 0.31551 0.0
H460 H 0.50806 0.36908 0.44398 0.0
H461 H 0.58374 0.43819 0.45915 0.0
C462 C 0.5767 0.43634 0.53484 0.0
C463 C 0.56004 0.42476 0.57171 0.0
C464 C 0.51927 0.38085 0.41572 0.0
C465 C 0.54812 0.40948 0.47655 0.0
C466 C 0.51211 0.37506 0.36793 0.0
C467 C 0.5261 0.39029 0.33081 0.0
C468 C 0.54064 0.40192 0.42631 0.0
C469 C 0.54756 0.4109 0.34295 0.0
C470 C 0.57078 0.42881 0.48723 0.0
C471 C 0.53776 0.40523 0.55953 0.0
N472 N 0.55413 0.41612 0.38959 0.0
N473 N 0.53245 0.39826 0.51306 0.0
H474 H 0.10243 0.56238 0.47462 0.0
H475 H 0.10817 0.53337 0.74907 0.0
H476 H 0.11392 0.50565 0.5201 0.0
H477 H 0.11634 0.6002 0.70169 0.0
H478 H 0.10964 0.52258 0.66568 0.0
H479 H 0.1067 0.57607 0.55754 0.0
C480 C 0.10589 0.55279 0.50206 0.0
C481 C 0.10763 0.53268 0.49043 0.0
C482 C 0.11131 0.53968 0.67348 0.0
C483 C 0.1125 0.54833 0.58561 0.0
C484 C 0.11037 0.54584 0.7211 0.0
C485 C 0.11194 0.56767 0.73235 0.0
C486 C 0.11351 0.55529 0.63666 0.0
C487 C 0.11502 0.58319 0.69463 0.0
C488 C 0.10845 0.56073 0.54939 0.0
C489 C 0.11238 0.52117 0.52746 0.0
N490 N 0.11545 0.57658 0.64836 0.0
N491 N 0.11443 0.52904 0.57352 0.0
H492 H 0.41638 0.04324 0.0261 0.0
H493 H 0.42181 0.9253 0.06637 0.0
H494 H 0.47204 0.03988 0.10235 0.0
H495 H 0.35596 0.92169 0.0291 0.0
H496 H 0.4401 0.96793 0.07764 0.0
H497 H 0.39318 -0.00062 0.02552 0.0
C498 C 0.42361 0.03336 0.0431 0.0
C499 C 0.44637 0.04528 0.06364 0.0
C500 C 0.42158 0.95793 0.06736 0.0
C501 C 0.4201 -0.00456 0.06292 0.0
C502 C 0.41114 0.93353 0.0607 0.0
C503 C 0.38736 0.91995 0.04651 0.0
C504 C 0.40836 0.96915 0.05912 0.0
C505 C 0.37435 0.93157 0.04015 0.0
C506 C 0.41037 0.00838 0.04276 0.0
C507 C 0.4548 0.03158 0.08535 0.0
N508 N 0.38512 0.95566 0.04595 0.0
N509 N 0.44179 0.00751 0.08402 0.0
H510 H 0.41787 0.36674 0.2116 0.0
H511 H 0.41102 0.48082 0.13576 0.0
H512 H 0.46732 0.42216 0.11656 0.0
H513 H 0.35427 0.42295 0.21455 0.0
H514 H 0.42948 0.45687 0.12285 0.0
H515 H 0.39202 0.38413 0.20843 0.0
C516 C 0.42314 0.38233 0.18963 0.0
C517 C 0.44499 0.39327 0.16499 0.0
C518 C 0.41286 0.44914 0.14257 0.0
C519 C 0.41564 0.41311 0.16117 0.0
C520 C 0.40232 0.46286 0.14991 0.0
C521 C 0.38124 0.45387 0.17652 0.0
C522 C 0.40257 0.42631 0.16289 0.0
C523 C 0.37056 0.43044 0.19377 0.0
C524 C 0.4084 0.39223 0.18786 0.0
C525 C 0.45089 0.41336 0.13692 0.0
N526 N 0.38159 0.41753 0.18738 0.0
N527 N 0.43644 0.42267 0.13613 0.0
H528 H 0.0176 0.44798 0.267 0.0
H529 H 0.91366 0.39609 0.44323 0.0
H530 H 0.02813 0.42954 0.40954 0.0
H531 H 0.90069 0.37172 0.29633 0.0
H532 H 0.95565 0.40843 0.43265 0.0
H533 H -0.02513 0.42006 0.27534 0.0
C534 C 0.0109 0.4376 0.29961 0.0
C535 C 0.02624 0.44103 0.33774 0.0
C536 C 0.94352 0.39986 0.40308 0.0
C537 C -0.02244 0.40978 0.34803 0.0
C538 C 0.91966 0.39294 0.40903 0.0
C539 C 0.9039 0.383 0.37051 0.0
C540 C 0.95177 0.3976 0.35779 0.0
C541 C 0.9124 0.37928 0.32686 0.0
C542 C -0.0134 0.42165 0.30429 0.0
C543 C 0.0168 0.42727 0.37934 0.0
N544 N 0.93597 0.38717 0.32122 0.0
N545 N -0.0071 0.41266 0.38395 0.0
H546 H 0.51365 0.91456 0.45957 0.0
H547 H 0.57962 0.04381 0.58015 0.0
H548 H 0.50467 0.92726 0.6083 0.0
H549 H 0.54843 0.03009 0.43913 0.0
H550 H 0.56701 0.00134 0.58709 0.0
H551 H 0.5414 0.95756 0.44929 0.0
C552 C 0.51814 0.92632 0.49031 0.0
C553 C 0.50685 0.91762 0.53471 0.0
C554 C 0.56356 0.00786 0.55419 0.0
C555 C 0.53851 0.9662 0.5235 0.0
C556 C 0.5708 0.03199 0.55013 0.0
C557 C 0.56477 0.04023 0.50923 0.0
C558 C 0.55078 -0.00781 0.51661 0.0
C559 C 0.55314 0.02426 0.47143 0.0
C560 C 0.53381 0.95073 0.48441 0.0
C561 C 0.51295 0.93347 0.57344 0.0
N562 N 0.54638 0.00091 0.4761 0.0
N563 N 0.52832 0.95708 0.56691 0.0
H564 H 0.5846 0.52843 0.66499 0.0
H565 H 0.50743 0.57962 0.78335 0.0
H566 H 0.54351 0.5004 0.79508 0.0
H567 H 0.51251 0.57241 0.63045 0.0
H568 H 0.53415 0.5637 0.79561 0.0
H569 H 0.57112 0.55747 0.66035 0.0
C570 C 0.57319 0.52875 0.6931 0.0
C571 C 0.56485 0.51185 0.73013 0.0
C572 C 0.52992 0.56629 0.7594 0.0
C573 C 0.54989 0.54509 0.72549 0.0
C574 C 0.51491 0.5755 0.75243 0.0
C575 C 0.50799 0.5773 0.70589 0.0
C576 C 0.53819 0.55925 0.71945 0.0
C577 C 0.51763 0.5713 0.66684 0.0
C578 C 0.56551 0.54523 0.69034 0.0
C579 C 0.55004 0.51294 0.76559 0.0
N580 N 0.5322 0.5624 0.67447 0.0
N581 N 0.54294 0.52924 0.76232 0.0
H582 H 0.03506 0.59239 0.81277 0.0
H583 H 0.90651 0.52841 0.93452 0.0
H584 H 0.02281 0.56285 0.95544 0.0
H585 H 0.91847 0.51334 0.78931 0.0
H586 H 0.94967 0.55528 0.9435 0.0
H587 H -0.00777 0.57763 0.80569 0.0
C588 C 0.02344 0.58344 0.84305 0.0
C589 C 0.03226 0.5786 0.8846 0.0
C590 C 0.94266 0.54643 0.90944 0.0
C591 C -0.01616 0.56221 0.87705 0.0
C592 C 0.91819 0.53124 0.90427 0.0
C593 C 0.90917 0.51862 0.86128 0.0
C594 C 0.95789 0.54941 0.87086 0.0
C595 C 0.9249 0.52266 0.82314 0.0
C596 C -0.00087 0.57497 0.8389 0.0
C597 C 0.01654 0.56671 0.92271 0.0
N598 N 0.94858 0.53774 0.8288 0.0
N599 N -0.007 0.55883 0.91801 0.0
loop_
_geom_bond_atom_site_label_1
_geom_bond_atom_site_label_2
_geom_bond_distance
_geom_bond_site_symmetry_2
_ccdc_geom_bond_type
C0 O1 1.307 1_556 S
C0 O3 1.160 . S
O1 C0 1.307 1_554 S
O1 Cd2 2.227 . S
Cd2 O1 2.227 . S
Cd2 O6 2.273 . S
Cd2 O10 2.277 . S
O3 C0 1.160 . S
O3 Cd4 2.203 1_556 S
Cd4 O3 2.203 1_554 S
Cd4 O6 2.411 . S
Cd4 O7 2.333 . S
Cd4 O8 2.352 . S
Cd4 O12 2.277 . S
Cd4 O13 2.356 . S
C5 O10 1.209 . S
C5 O12 1.226 . S
O6 Cd2 2.273 . S
O6 Cd4 2.411 . S
O6 C9 1.320 . S
O7 Cd4 2.333 . S
O7 C9 1.214 . S
O8 Cd4 2.352 . S
O8 C11 1.258 . S
C9 O6 1.320 . S
C9 O7 1.214 . S
O10 Cd2 2.277 . S
O10 C5 1.209 . S
C11 O8 1.258 . S
C11 O13 1.282 . S
O12 Cd4 2.277 . S
O12 C5 1.226 . S
O13 Cd4 2.356 . S
O13 C11 1.282 . S
C14 O15 1.306 . S
C14 O17 1.160 . S
O15 C14 1.306 . S
O15 Cd16 2.228 . S
Cd16 O15 2.228 . S
Cd16 O20 2.273 . S
Cd16 O24 2.277 . S
O17 C14 1.160 . S
O17 Cd18 2.203 . S
Cd18 O17 2.203 . S
Cd18 O20 2.411 . S
Cd18 O21 2.333 . S
Cd18 O22 2.352 . S
Cd18 O26 2.277 . S
Cd18 O27 2.356 . S
C19 O24 1.209 . S
C19 O26 1.226 . S
O20 Cd16 2.273 . S
O20 Cd18 2.411 . S
O20 C23 1.320 . S
O21 Cd18 2.333 . S
O21 C23 1.214 . S
O22 Cd18 2.352 . S
O22 C25 1.258 . S
C23 O20 1.320 . S
C23 O21 1.214 . S
O24 Cd16 2.277 . S
O24 C19 1.209 . S
C25 O22 1.258 . S
C25 O27 1.282 . S
O26 Cd18 2.277 . S
O26 C19 1.226 . S
O27 Cd18 2.356 . S
O27 C25 1.282 . S
C28 O29 1.306 . S
C28 O31 1.160 . S
O29 C28 1.306 . S
O29 Cd30 2.228 . S
Cd30 O29 2.228 . S
Cd30 O34 2.273 . S
Cd30 O38 2.277 . S
O31 C28 1.160 . S
O31 Cd32 2.203 . S
Cd32 O31 2.203 . S
Cd32 O34 2.411 . S
Cd32 O35 2.333 . S
Cd32 O36 2.352 . S
Cd32 O40 2.277 . S
Cd32 O41 2.356 . S
C33 O38 1.209 . S
C33 O40 1.226 . S
O34 Cd30 2.273 . S
O34 Cd32 2.411 . S
O34 C37 1.320 . S
O35 Cd32 2.333 . S
O35 C37 1.214 . S
O36 Cd32 2.352 . S
O36 C39 1.258 . S
C37 O34 1.320 . S
C37 O35 1.214 . S
O38 Cd30 2.277 . S
O38 C33 1.209 . S
C39 O36 1.258 . S
C39 O41 1.282 . S
O40 Cd32 2.277 . S
O40 C33 1.226 . S
O41 Cd32 2.356 . S
O41 C39 1.282 . S
C42 O43 1.306 . S
C42 O45 1.160 . S
O43 C42 1.306 . S
O43 Cd44 2.228 . S
Cd44 O43 2.228 . S
Cd44 O48 2.273 . S
Cd44 O52 2.277 . S
O45 C42 1.160 . S
O45 Cd46 2.203 . S
Cd46 O45 2.203 . S
Cd46 O48 2.411 . S
Cd46 O49 2.333 . S
Cd46 O50 2.352 . S
Cd46 O54 2.277 . S
Cd46 O55 2.356 . S
C47 O52 1.209 . S
C47 O54 1.226 . S
O48 Cd44 2.273 . S
O48 Cd46 2.411 . S
O48 C51 1.320 . S
O49 Cd46 2.333 . S
O49 C51 1.214 . S
O50 Cd46 2.352 . S
O50 C53 1.258 . S
C51 O48 1.320 . S
C51 O49 1.214 . S
O52 Cd44 2.277 . S
O52 C47 1.209 . S
C53 O50 1.258 . S
C53 O55 1.282 . S
O54 Cd46 2.277 . S
O54 C47 1.226 . S
O55 Cd46 2.356 . S
O55 C53 1.282 . S
C56 O57 1.306 . S
C56 O59 1.160 . S
O57 C56 1.306 . S
O57 Cd58 2.228 . S
Cd58 O57 2.228 . S
Cd58 O62 2.273 . S
Cd58 O66 2.277 . S
O59 C56 1.160 . S
O59 Cd60 2.203 . S
Cd60 O59 2.203 . S
Cd60 O62 2.411 . S
Cd60 O63 2.333 . S
Cd60 O64 2.352 . S
Cd60 O68 2.277 . S
Cd60 O69 2.356 . S
C61 O66 1.209 . S
C61 O68 1.226 . S
O62 Cd58 2.273 . S
O62 Cd60 2.411 . S
O62 C65 1.320 . S
O63 Cd60 2.333 . S
O63 C65 1.214 . S
O64 Cd60 2.352 . S
O64 C67 1.258 . S
C65 O62 1.320 . S
C65 O63 1.214 . S
O66 Cd58 2.277 . S
O66 C61 1.209 . S
C67 O64 1.258 . S
C67 O69 1.282 . S
O68 Cd60 2.277 . S
O68 C61 1.226 . S
O69 Cd60 2.356 . S
O69 C67 1.282 . S
C70 O71 1.306 . S
C70 O73 1.160 . S
O71 C70 1.306 . S
O71 Cd72 2.228 . S
Cd72 O71 2.228 . S
Cd72 O76 2.273 . S
Cd72 O80 2.277 . S
O73 C70 1.160 . S
O73 Cd74 2.203 . S
Cd74 O73 2.203 . S
Cd74 O76 2.411 . S
Cd74 O77 2.333 . S
Cd74 O78 2.352 . S
Cd74 O82 2.277 . S
Cd74 O83 2.356 . S
C75 O80 1.209 . S
C75 O82 1.226 . S
O76 Cd72 2.273 . S
O76 Cd74 2.411 . S
O76 C79 1.320 . S
O77 Cd74 2.333 . S
O77 C79 1.214 . S
O78 Cd74 2.352 . S
O78 C81 1.258 . S
C79 O76 1.320 . S
C79 O77 1.214 . S
O80 Cd72 2.277 . S
O80 C75 1.209 . S
C81 O78 1.258 . S
C81 O83 1.282 . S
O82 Cd74 2.277 . S
O82 C75 1.226 . S
O83 Cd74 2.356 . S
O83 C81 1.282 . S
C84 O85 1.306 . S
C84 O87 1.160 . S
O85 C84 1.306 . S
O85 Cd86 2.228 . S
Cd86 O85 2.228 . S
Cd86 O90 2.273 . S
Cd86 O94 2.277 . S
O87 C84 1.160 . S
O87 Cd88 2.203 . S
Cd88 O87 2.203 . S
Cd88 O90 2.411 . S
Cd88 O91 2.333 . S
Cd88 O92 2.352 . S
Cd88 O96 2.277 . S
Cd88 O97 2.356 . S
C89 O94 1.209 . S
C89 O96 1.226 . S
O90 Cd86 2.273 . S
O90 Cd88 2.411 . S
O90 C93 1.320 . S
O91 Cd88 2.333 . S
O91 C93 1.214 . S
O92 Cd88 2.352 . S
O92 C95 1.258 . S
C93 O90 1.320 . S
C93 O91 1.214 . S
O94 Cd86 2.277 . S
O94 C89 1.209 . S
C95 O92 1.258 . S
C95 O97 1.282 . S
O96 Cd88 2.277 . S
O96 C89 1.226 . S
O97 Cd88 2.356 . S
O97 C95 1.282 . S
C98 O99 1.306 . S
C98 O101 1.160 . S
O99 C98 1.306 . S
O99 Cd100 2.228 . S
Cd100 O99 2.228 . S
Cd100 O104 2.284 . S
Cd100 O108 2.277 . S
O101 C98 1.160 . S
O101 Cd102 2.203 . S
Cd102 O101 2.203 . S
Cd102 O104 2.420 . S
Cd102 O105 2.333 1_554 S
Cd102 O106 2.352 . S
Cd102 O110 2.277 . S
Cd102 O111 2.356 . S
C103 O108 1.209 . S
C103 O110 1.226 . S
O104 Cd100 2.284 . S
O104 Cd102 2.420 . S
O104 C107 1.302 1_554 S
O105 Cd102 2.333 1_556 S
O105 C107 1.214 . S
O106 Cd102 2.352 . S
O106 C109 1.258 . S
C107 O104 1.302 1_556 S
C107 O105 1.214 . S
O108 Cd100 2.277 . S
O108 C103 1.209 . S
C109 O106 1.258 . S
C109 O111 1.282 . S
O110 Cd102 2.277 . S
O110 C103 1.226 . S
O111 Cd102 2.356 . S
O111 C109 1.282 . S
C112 O113 1.306 . S
C112 O115 1.160 . S
O113 C112 1.306 . S
O113 Cd114 2.228 . S
Cd114 O113 2.228 . S
Cd114 O118 2.273 . S
Cd114 O122 2.277 . S
O115 C112 1.160 . S
O115 Cd116 2.203 . S
Cd116 O115 2.203 . S
Cd116 O118 2.411 . S
Cd116 O119 2.333 . S
Cd116 O120 2.352 . S
Cd116 O124 2.277 . S
Cd116 O125 2.356 . S
C117 O122 1.209 . S
C117 O124 1.226 . S
O118 Cd114 2.273 . S
O118 Cd116 2.411 . S
O118 C121 1.320 . S
O119 Cd116 2.333 . S
O119 C121 1.214 . S
O120 Cd116 2.352 . S
O120 C123 1.258 . S
C121 O118 1.320 . S
C121 O119 1.214 . S
O122 Cd114 2.277 . S
O122 C117 1.209 . S
C123 O120 1.258 . S
C123 O125 1.282 . S
O124 Cd116 2.277 . S
O124 C117 1.226 . S
O125 Cd116 2.356 . S
O125 C123 1.282 . S
C126 O127 1.306 . S
C126 O129 1.160 . S
O127 C126 1.306 . S
O127 Cd128 2.228 . S
Cd128 O127 2.228 . S
Cd128 O132 2.273 . S
Cd128 O136 2.277 . S
O129 C126 1.160 . S
O129 Cd130 2.203 . S
Cd130 O129 2.203 . S
Cd130 O132 2.411 . S
Cd130 O133 2.333 . S
Cd130 O134 2.352 . S
Cd130 O138 2.277 . S
Cd130 O139 2.356 . S
C131 O136 1.209 . S
C131 O138 1.226 . S
O132 Cd128 2.273 . S
O132 Cd130 2.411 . S
O132 C135 1.320 . S
O133 Cd130 2.333 . S
O133 C135 1.214 . S
O134 Cd130 2.352 . S
O134 C137 1.258 . S
C135 O132 1.320 . S
C135 O133 1.214 . S
O136 Cd128 2.277 . S
O136 C131 1.209 . S
C137 O134 1.258 . S
C137 O139 1.282 . S
O138 Cd130 2.277 . S
O138 C131 1.226 . S
O139 Cd130 2.356 . S
O139 C137 1.282 . S
C140 O141 1.306 . S
C140 O143 1.160 . S
O141 C140 1.306 . S
O141 Cd142 2.228 . S
Cd142 O141 2.228 . S
Cd142 O146 2.273 . S
Cd142 O150 2.277 . S
O143 C140 1.160 . S
O143 Cd144 2.203 . S
Cd144 O143 2.203 . S
Cd144 O146 2.411 . S
Cd144 O147 2.333 . S
Cd144 O148 2.352 . S
Cd144 O152 2.277 . S
Cd144 O153 2.356 . S
C145 O150 1.209 . S
C145 O152 1.226 . S
O146 Cd142 2.273 . S
O146 Cd144 2.411 . S
O146 C149 1.320 . S
O147 Cd144 2.333 . S
O147 C149 1.214 . S
O148 Cd144 2.352 . S
O148 C151 1.258 . S
C149 O146 1.320 . S
C149 O147 1.214 . S
O150 Cd142 2.277 . S
O150 C145 1.209 . S
C151 O148 1.258 . S
C151 O153 1.282 . S
O152 Cd144 2.277 . S
O152 C145 1.226 . S
O153 Cd144 2.356 . S
O153 C151 1.282 . S
C154 O155 1.306 . S
C154 O157 1.160 . S
O155 C154 1.306 . S
O155 Cd156 2.228 . S
Cd156 O155 2.228 . S
Cd156 O160 2.273 . S
Cd156 O164 2.277 . S
O157 C154 1.160 . S
O157 Cd158 2.203 . S
Cd158 O157 2.203 . S
Cd158 O160 2.411 . S
Cd158 O161 2.333 . S
Cd158 O162 2.352 . S
Cd158 O166 2.277 . S
Cd158 O167 2.356 . S
C159 O164 1.209 . S
C159 O166 1.226 . S
O160 Cd156 2.273 . S
O160 Cd158 2.411 . S
O160 C163 1.320 . S
O161 Cd158 2.333 . S
O161 C163 1.214 . S
O162 Cd158 2.352 . S
O162 C165 1.258 . S
C163 O160 1.320 . S
C163 O161 1.214 . S
O164 Cd156 2.277 . S
O164 C159 1.209 . S
C165 O162 1.258 . S
C165 O167 1.282 . S
O166 Cd158 2.277 . S
O166 C159 1.226 . S
O167 Cd158 2.356 . S
O167 C165 1.282 . S
H168 C174 0.930 . S
H169 C178 0.930 . S
H170 C183 0.929 . S
H171 C181 0.929 . S
H172 C176 0.929 . S
H173 C182 0.929 . S
C174 H168 0.930 . S
C174 C175 1.367 . S
C174 C182 1.378 . S
C175 C174 1.367 . S
C175 C183 1.433 . S
C176 H172 0.929 . S
C176 C178 1.378 . S
C176 C180 1.350 . S
C177 C180 1.463 . S
C177 C182 1.350 . S
C177 N185 1.427 . S
C178 H169 0.930 . S
C178 C176 1.378 . S
C178 C179 1.367 . S
C179 C178 1.367 . S
C179 C181 1.433 . S
C180 C176 1.350 . S
C180 C177 1.463 . S
C180 N184 1.427 . S
C181 H171 0.929 . S
C181 C179 1.433 . S
C181 N184 1.384 . S
C182 H173 0.929 . S
C182 C174 1.378 . S
C182 C177 1.350 . S
C183 H170 0.929 . S
C183 C175 1.433 . S
C183 N185 1.384 . S
N184 C180 1.427 . S
N184 C181 1.384 . S
N185 C177 1.427 . S
N185 C183 1.384 . S
H186 C192 0.930 . S
H187 C196 0.930 . S
H188 C201 0.929 . S
H189 C199 0.929 . S
H190 C194 0.929 . S
H191 C200 0.929 . S
C192 H186 0.930 . S
C192 C193 1.367 . S
C192 C200 1.378 . S
C193 C192 1.367 . S
C193 C201 1.433 . S
C194 H190 0.929 . S
C194 C196 1.378 . S
C194 C198 1.350 . S
C195 C198 1.463 . S
C195 C200 1.350 . S
C195 N203 1.427 . S
C196 H187 0.930 . S
C196 C194 1.378 . S
C196 C197 1.367 . S
C197 C196 1.367 . S
C197 C199 1.433 . S
C198 C194 1.350 . S
C198 C195 1.463 . S
C198 N202 1.427 . S
C199 H189 0.929 . S
C199 C197 1.433 . S
C199 N202 1.384 . S
C200 H191 0.929 . S
C200 C192 1.378 . S
C200 C195 1.350 . S
C201 H188 0.929 . S
C201 C193 1.433 . S
C201 N203 1.384 . S
N202 C198 1.427 . S
N202 C199 1.384 . S
N203 C195 1.427 . S
N203 C201 1.384 . S
H204 C210 0.930 . S
H205 C214 0.930 . S
H206 C219 0.929 . S
H207 C217 0.929 . S
H208 C212 0.929 . S
H209 C218 0.929 . S
C210 H204 0.930 . S
C210 C211 1.367 . S
C210 C218 1.378 . S
C211 C210 1.367 . S
C211 C219 1.433 . S
C212 H208 0.929 . S
C212 C214 1.378 . S
C212 C216 1.350 . S
C213 C216 1.463 . S
C213 C218 1.350 . S
C213 N221 1.427 . S
C214 H205 0.930 . S
C214 C212 1.378 . S
C214 C215 1.367 . S
C215 C214 1.367 . S
C215 C217 1.433 . S
C216 C212 1.350 . S
C216 C213 1.463 . S
C216 N220 1.427 . S
C217 H207 0.929 . S
C217 C215 1.433 . S
C217 N220 1.384 . S
C218 H209 0.929 . S
C218 C210 1.378 . S
C218 C213 1.350 . S
C219 H206 0.929 . S
C219 C211 1.433 . S
C219 N221 1.384 . S
N220 C216 1.427 . S
N220 C217 1.384 . S
N221 C213 1.427 . S
N221 C219 1.384 . S
H222 C228 0.930 . S
H223 C232 0.930 . S
H224 C237 0.929 . S
H225 C235 0.929 . S
H226 C230 0.929 . S
H227 C236 0.929 . S
C228 H222 0.930 . S
C228 C229 1.367 . S
C228 C236 1.378 . S
C229 C228 1.367 . S
C229 C237 1.433 . S
C230 H226 0.929 . S
C230 C232 1.378 . S
C230 C234 1.350 . S
C231 C234 1.463 . S
C231 C236 1.350 . S
C231 N239 1.427 . S
C232 H223 0.930 . S
C232 C230 1.378 . S
C232 C233 1.367 . S
C233 C232 1.367 . S
C233 C235 1.433 . S
C234 C230 1.350 . S
C234 C231 1.463 . S
C234 N238 1.427 . S
C235 H225 0.929 . S
C235 C233 1.433 . S
C235 N238 1.384 . S
C236 H227 0.929 . S
C236 C228 1.378 . S
C236 C231 1.350 . S
C237 H224 0.929 . S
C237 C229 1.433 . S
C237 N239 1.384 . S
N238 C234 1.427 . S
N238 C235 1.384 . S
N239 C231 1.427 . S
N239 C237 1.384 . S
H240 C246 0.930 . S
H241 C250 0.930 . S
H242 C255 0.929 . S
H243 C253 0.929 . S
H244 C248 0.929 . S
H245 C254 0.929 . S
C246 H240 0.930 . S
C246 C247 1.367 . S
C246 C254 1.378 . S
C247 C246 1.367 . S
C247 C255 1.433 . S
C248 H244 0.929 . S
C248 C250 1.378 . S
C248 C252 1.350 . S
C249 C252 1.463 . S
C249 C254 1.350 1_556 S
C249 N257 1.427 . S
C250 H241 0.930 . S
C250 C248 1.378 . S
C250 C251 1.367 . S
C251 C250 1.367 . S
C251 C253 1.433 . S
C252 C248 1.350 . S
C252 C249 1.463 . S
C252 N256 1.427 . S
C253 H243 0.929 . S
C253 C251 1.433 . S
C253 N256 1.384 . S
C254 H245 0.929 . S
C254 C246 1.378 . S
C254 C249 1.350 1_554 S
C255 H242 0.929 . S
C255 C247 1.433 . S
C255 N257 1.384 1_554 S
N256 C252 1.427 . S
N256 C253 1.384 . S
N257 C249 1.427 . S
N257 C255 1.384 1_556 S
H258 C264 0.930 . S
H259 C268 0.930 . S
H260 C273 0.929 . S
H261 C271 0.929 . S
H262 C266 0.929 . S
H263 C272 0.929 . S
C264 H258 0.930 . S
C264 C265 1.367 . S
C264 C272 1.378 . S
C265 C264 1.367 . S
C265 C273 1.433 . S
C266 H262 0.929 . S
C266 C268 1.378 . S
C266 C270 1.350 . S
C267 C270 1.463 . S
C267 C272 1.350 . S
C267 N275 1.427 . S
C268 H259 0.930 . S
C268 C266 1.378 . S
C268 C269 1.367 . S
C269 C268 1.367 . S
C269 C271 1.433 . S
C270 C266 1.350 . S
C270 C267 1.463 . S
C270 N274 1.427 . S
C271 H261 0.929 . S
C271 C269 1.433 . S
C271 N274 1.384 . S
C272 H263 0.929 . S
C272 C264 1.378 . S
C272 C267 1.350 . S
C273 H260 0.929 . S
C273 C265 1.433 . S
C273 N275 1.384 . S
N274 C270 1.427 . S
N274 C271 1.384 . S
N275 C267 1.427 . S
N275 C273 1.384 . S
H276 C282 0.930 . S
H277 C286 0.930 . S
H278 C291 0.929 . S
H279 C289 0.929 . S
H280 C284 0.929 . S
H281 C290 0.929 . S
C282 H276 0.930 . S
C282 C283 1.367 . S
C282 C290 1.378 . S
C283 C282 1.367 . S
C283 C291 1.433 . S
C284 H280 0.929 . S
C284 C286 1.378 . S
C284 C288 1.350 . S
C285 C288 1.463 . S
C285 C290 1.350 . S
C285 N293 1.427 . S
C286 H277 0.930 . S
C286 C284 1.378 . S
C286 C287 1.367 . S
C287 C286 1.367 . S
C287 C289 1.433 . S
C288 C284 1.350 . S
C288 C285 1.463 . S
C288 N292 1.427 . S
C289 H279 0.929 . S
C289 C287 1.433 . S
C289 N292 1.384 . S
C290 H281 0.929 . S
C290 C282 1.378 . S
C290 C285 1.350 . S
C291 H278 0.929 . S
C291 C283 1.433 . S
C291 N293 1.384 . S
N292 C288 1.427 . S
N292 C289 1.384 . S
N293 C285 1.427 . S
N293 C291 1.384 . S
H294 C300 0.930 . S
H295 C304 0.930 . S
H296 C309 0.929 . S
H297 C307 0.929 . S
H298 C302 0.929 . S
H299 C308 0.929 . S
C300 H294 0.930 . S
C300 C301 1.367 . S
C300 C308 1.378 . S
C301 C300 1.367 . S
C301 C309 1.433 . S
C302 H298 0.929 . S
C302 C304 1.378 . S
C302 C306 1.350 . S
C303 C306 1.463 . S
C303 C308 1.350 . S
C303 N311 1.427 . S
C304 H295 0.930 . S
C304 C302 1.378 . S
C304 C305 1.367 . S
C305 C304 1.367 . S
C305 C307 1.433 . S
C306 C302 1.350 . S
C306 C303 1.463 . S
C306 N310 1.427 . S
C307 H297 0.929 . S
C307 C305 1.433 . S
C307 N310 1.384 . S
C308 H299 0.929 . S
C308 C300 1.378 . S
C308 C303 1.350 . S
C309 H296 0.929 . S
C309 C301 1.433 . S
C309 N311 1.384 . S
N310 C306 1.427 . S
N310 C307 1.384 . S
N311 C303 1.427 . S
N311 C309 1.384 . S
H312 C318 0.930 . S
H313 C322 0.930 . S
H314 C327 0.929 . S
H315 C325 0.929 . S
H316 C320 0.929 . S
H317 C326 0.929 . S
C318 H312 0.930 . S
C318 C319 1.367 . S
C318 C326 1.378 . S
C319 C318 1.367 . S
C319 C327 1.433 . S
C320 H316 0.929 . S
C320 C322 1.378 . S
C320 C324 1.350 . S
C321 C324 1.463 . S
C321 C326 1.350 . S
C321 N329 1.427 . S
C322 H313 0.930 . S
C322 C320 1.378 . S
C322 C323 1.367 . S
C323 C322 1.367 . S
C323 C325 1.433 . S
C324 C320 1.350 . S
C324 C321 1.463 . S
C324 N328 1.427 . S
C325 H315 0.929 . S
C325 C323 1.433 . S
C325 N328 1.384 . S
C326 H317 0.929 . S
C326 C318 1.378 . S
C326 C321 1.350 . S
C327 H314 0.929 . S
C327 C319 1.433 . S
C327 N329 1.384 . S
N328 C324 1.427 . S
N328 C325 1.384 . S
N329 C321 1.427 . S
N329 C327 1.384 . S
H330 C336 0.930 . S
H331 C340 0.930 . S
H332 C345 0.929 . S
H333 C343 0.929 . S
H334 C338 0.929 . S
H335 C344 0.929 . S
C336 H330 0.930 . S
C336 C337 1.367 . S
C336 C344 1.378 . S
C337 C336 1.367 . S
C337 C345 1.433 . S
C338 H334 0.929 . S
C338 C340 1.378 . S
C338 C342 1.350 . S
C339 C342 1.463 . S
C339 C344 1.350 . S
C339 N347 1.427 . S
C340 H331 0.930 . S
C340 C338 1.378 . S
C340 C341 1.367 . S
C341 C340 1.367 . S
C341 C343 1.433 . S
C342 C338 1.350 . S
C342 C339 1.463 . S
C342 N346 1.427 . S
C343 H333 0.929 . S
C343 C341 1.433 . S
C343 N346 1.384 . S
C344 H335 0.929 . S
C344 C336 1.378 . S
C344 C339 1.350 . S
C345 H332 0.929 . S
C345 C337 1.433 . S
C345 N347 1.384 . S
N346 C342 1.427 . S
N346 C343 1.384 . S
N347 C339 1.427 . S
N347 C345 1.384 . S
H348 C354 0.930 . S
H349 C358 0.930 . S
H350 C363 0.929 . S
H351 C361 0.929 . S
H352 C356 0.929 . S
H353 C362 0.929 . S
C354 H348 0.930 . S
C354 C355 1.367 . S
C354 C362 1.378 . S
C355 C354 1.367 . S
C355 C363 1.433 . S
C356 H352 0.929 . S
C356 C358 1.378 . S
C356 C360 1.350 . S
C357 C360 1.463 . S
C357 C362 1.350 . S
C357 N365 1.427 . S
C358 H349 0.930 . S
C358 C356 1.378 . S
C358 C359 1.367 . S
C359 C358 1.367 . S
C359 C361 1.433 . S
C360 C356 1.350 . S
C360 C357 1.463 . S
C360 N364 1.427 . S
C361 H351 0.929 . S
C361 C359 1.433 . S
C361 N364 1.384 . S
C362 H353 0.929 . S
C362 C354 1.378 . S
C362 C357 1.350 . S
C363 H350 0.929 . S
C363 C355 1.433 . S
C363 N365 1.384 . S
N364 C360 1.427 . S
N364 C361 1.384 . S
N365 C357 1.427 . S
N365 C363 1.384 . S
H366 C372 0.930 . S
H367 C376 0.930 . S
H368 C381 0.929 . S
H369 C379 0.929 . S
H370 C374 0.929 . S
H371 C380 0.929 . S
C372 H366 0.930 . S
C372 C373 1.367 . S
C372 C380 1.378 . S
C373 C372 1.367 . S
C373 C381 1.433 . S
C374 H370 0.929 . S
C374 C376 1.378 1_556 S
C374 C378 1.350 . S
C375 C378 1.463 . S
C375 C380 1.350 . S
C375 N383 1.427 . S
C376 H367 0.930 . S
C376 C374 1.378 1_554 S
C376 C377 1.367 . S
C377 C376 1.367 . S
C377 C379 1.433 . S
C378 C374 1.350 . S
C378 C375 1.463 . S
C378 N382 1.429 . S
C379 H369 0.929 . S
C379 C377 1.433 . S
C379 N382 1.382 1_554 S
C380 H371 0.929 . S
C380 C372 1.378 . S
C380 C375 1.350 . S
C381 H368 0.929 . S
C381 C373 1.433 . S
C381 N383 1.384 . S
N382 C378 1.429 . S
N382 C379 1.382 1_556 S
N383 C375 1.427 . S
N383 C381 1.384 . S
H384 C390 0.930 . S
H385 C394 0.930 . S
H386 C399 0.929 . S
H387 C397 0.929 . S
H388 C392 0.929 . S
H389 C398 0.929 . S
C390 H384 0.930 . S
C390 C391 1.367 . S
C390 C398 1.378 . S
C391 C390 1.367 . S
C391 C399 1.433 . S
C392 H388 0.929 . S
C392 C394 1.378 . S
C392 C396 1.350 . S
C393 C396 1.463 . S
C393 C398 1.350 . S
C393 N401 1.427 . S
C394 H385 0.930 . S
C394 C392 1.378 . S
C394 C395 1.367 . S
C395 C394 1.367 . S
C395 C397 1.433 . S
C396 C392 1.350 . S
C396 C393 1.463 . S
C396 N400 1.427 . S
C397 H387 0.929 . S
C397 C395 1.433 . S
C397 N400 1.384 . S
C398 H389 0.929 . S
C398 C390 1.378 . S
C398 C393 1.350 . S
C399 H386 0.929 . S
C399 C391 1.433 . S
C399 N401 1.384 . S
N400 C396 1.427 . S
N400 C397 1.384 . S
N401 C393 1.427 . S
N401 C399 1.384 . S
H402 C408 0.930 . S
H403 C412 0.930 . S
H404 C417 0.929 . S
H405 C415 0.929 . S
H406 C410 0.929 . S
H407 C416 0.929 . S
C408 H402 0.930 . S
C408 C409 1.367 . S
C408 C416 1.378 . S
C409 C408 1.367 . S
C409 C417 1.433 . S
C410 H406 0.929 . S
C410 C412 1.378 . S
C410 C414 1.350 1_554 S
C411 C414 1.463 . S
C411 C416 1.350 . S
C411 N419 1.427 . S
C412 H403 0.930 . S
C412 C410 1.378 . S
C412 C413 1.367 . S
C413 C412 1.367 . S
C413 C415 1.433 . S
C414 C410 1.350 1_556 S
C414 C411 1.463 . S
C414 N418 1.427 . S
C415 H405 0.929 . S
C415 C413 1.433 . S
C415 N418 1.384 1_554 S
C416 H407 0.929 . S
C416 C408 1.378 . S
C416 C411 1.350 . S
C417 H404 0.929 . S
C417 C409 1.433 . S
C417 N419 1.384 . S
N418 C414 1.427 . S
N418 C415 1.384 1_556 S
N419 C411 1.427 . S
N419 C417 1.384 . S
H420 C426 0.930 . S
H421 C430 0.930 . S
H422 C435 0.929 1_556 S
H423 C433 0.929 . S
H424 C428 0.929 . S
H425 C434 0.929 . S
C426 H420 0.930 . S
C426 C427 1.367 . S
C426 C434 1.378 . S
C427 C426 1.367 . S
C427 C435 1.433 . S
C428 H424 0.929 . S
C428 C430 1.378 . S
C428 C432 1.350 . S
C429 C432 1.463 . S
C429 C434 1.350 . S
C429 N437 1.427 . S
C430 H421 0.930 . S
C430 C428 1.378 . S
C430 C431 1.367 . S
C431 C430 1.367 . S
C431 C433 1.433 . S
C432 C428 1.350 . S
C432 C429 1.463 . S
C432 N436 1.427 . S
C433 H423 0.929 . S
C433 C431 1.433 . S
C433 N436 1.384 . S
C434 H425 0.929 . S
C434 C426 1.378 . S
C434 C429 1.350 . S
C435 H422 0.929 1_554 S
C435 C427 1.433 . S
C435 N437 1.384 . S
N436 C432 1.427 . S
N436 C433 1.384 . S
N437 C429 1.427 . S
N437 C435 1.384 . S
H438 C444 0.930 . S
H439 C448 0.930 . S
H440 C453 0.929 . S
H441 C451 0.929 . S
H442 C446 0.929 . S
H443 C452 0.929 . S
C444 H438 0.930 . S
C444 C445 1.367 . S
C444 C452 1.378 . S
C445 C444 1.367 . S
C445 C453 1.433 . S
C446 H442 0.929 . S
C446 C448 1.378 . S
C446 C450 1.350 . S
C447 C450 1.463 . S
C447 C452 1.350 . S
C447 N455 1.427 . S
C448 H439 0.930 . S
C448 C446 1.378 . S
C448 C449 1.367 . S
C449 C448 1.367 . S
C449 C451 1.433 . S
C450 C446 1.350 . S
C450 C447 1.463 . S
C450 N454 1.427 . S
C451 H441 0.929 . S
C451 C449 1.433 . S
C451 N454 1.384 . S
C452 H443 0.929 . S
C452 C444 1.378 . S
C452 C447 1.350 . S
C453 H440 0.929 . S
C453 C445 1.433 . S
C453 N455 1.384 . S
N454 C450 1.427 . S
N454 C451 1.384 . S
N455 C447 1.427 . S
N455 C453 1.384 . S
H456 C462 0.930 . S
H457 C466 0.930 . S
H458 C471 0.929 . S
H459 C469 0.929 . S
H460 C464 0.929 . S
H461 C470 0.929 . S
C462 H456 0.930 . S
C462 C463 1.367 . S
C462 C470 1.378 . S
C463 C462 1.367 . S
C463 C471 1.433 . S
C464 H460 0.929 . S
C464 C466 1.378 . S
C464 C468 1.350 . S
C465 C468 1.463 . S
C465 C470 1.350 . S
C465 N473 1.427 . S
C466 H457 0.930 . S
C466 C464 1.378 . S
C466 C467 1.367 . S
C467 C466 1.367 . S
C467 C469 1.433 . S
C468 C464 1.350 . S
C468 C465 1.463 . S
C468 N472 1.427 . S
C469 H459 0.929 . S
C469 C467 1.433 . S
C469 N472 1.384 . S
C470 H461 0.929 . S
C470 C462 1.378 . S
C470 C465 1.350 . S
C471 H458 0.929 . S
C471 C463 1.433 . S
C471 N473 1.384 . S
N472 C468 1.427 . S
N472 C469 1.384 . S
N473 C465 1.427 . S
N473 C471 1.384 . S
H474 C480 0.930 . S
H475 C484 0.930 . S
H476 C489 0.929 . S
H477 C487 0.929 . S
H478 C482 0.929 . S
H479 C488 0.929 . S
C480 H474 0.930 . S
C480 C481 1.367 . S
C480 C488 1.378 . S
C481 C480 1.367 . S
C481 C489 1.433 . S
C482 H478 0.929 . S
C482 C484 1.378 . S
C482 C486 1.350 . S
C483 C486 1.463 . S
C483 C488 1.350 . S
C483 N491 1.427 . S
C484 H475 0.930 . S
C484 C482 1.378 . S
C484 C485 1.367 . S
C485 C484 1.367 . S
C485 C487 1.433 . S
C486 C482 1.350 . S
C486 C483 1.463 . S
C486 N490 1.427 . S
C487 H477 0.929 . S
C487 C485 1.433 . S
C487 N490 1.384 . S
C488 H479 0.929 . S
C488 C480 1.378 . S
C488 C483 1.350 . S
C489 H476 0.929 . S
C489 C481 1.433 . S
C489 N491 1.384 . S
N490 C486 1.427 . S
N490 C487 1.384 . S
N491 C483 1.427 . S
N491 C489 1.384 . S
H492 C498 0.930 . S
H493 C502 0.930 . S
H494 C507 0.929 . S
H495 C505 0.929 . S
H496 C500 0.929 . S
H497 C506 0.929 . S
C498 H492 0.930 . S
C498 C499 1.367 . S
C498 C506 1.378 . S
C499 C498 1.367 . S
C499 C507 1.433 . S
C500 H496 0.929 . S
C500 C502 1.378 . S
C500 C504 1.350 . S
C501 C504 1.463 1_545 S
C501 C506 1.350 . S
C501 N509 1.427 . S
C502 H493 0.930 . S
C502 C500 1.378 . S
C502 C503 1.367 . S
C503 C502 1.367 . S
C503 C505 1.433 . S
C504 C500 1.350 . S
C504 C501 1.463 1_565 S
C504 N508 1.427 . S
C505 H495 0.929 . S
C505 C503 1.433 . S
C505 N508 1.384 . S
C506 H497 0.929 . S
C506 C498 1.378 . S
C506 C501 1.350 . S
C507 H494 0.929 . S
C507 C499 1.433 . S
C507 N509 1.384 . S
N508 C504 1.427 . S
N508 C505 1.384 . S
N509 C501 1.427 . S
N509 C507 1.384 . S
H510 C516 0.930 . S
H511 C520 0.930 . S
H512 C525 0.929 . S
H513 C523 0.929 . S
H514 C518 0.929 . S
H515 C524 0.929 . S
C516 H510 0.930 . S
C516 C517 1.367 . S
C516 C524 1.378 . S
C517 C516 1.367 . S
C517 C525 1.433 . S
C518 H514 0.929 . S
C518 C520 1.378 . S
C518 C522 1.350 . S
C519 C522 1.463 . S
C519 C524 1.350 . S
C519 N527 1.427 . S
C520 H511 0.930 . S
C520 C518 1.378 . S
C520 C521 1.367 . S
C521 C520 1.367 . S
C521 C523 1.433 . S
C522 C518 1.350 . S
C522 C519 1.463 . S
C522 N526 1.427 . S
C523 H513 0.929 . S
C523 C521 1.433 . S
C523 N526 1.384 . S
C524 H515 0.929 . S
C524 C516 1.378 . S
C524 C519 1.350 . S
C525 H512 0.929 . S
C525 C517 1.433 . S
C525 N527 1.384 . S
N526 C522 1.427 . S
N526 C523 1.384 . S
N527 C519 1.427 . S
N527 C525 1.384 . S
H528 C534 0.930 . S
H529 C538 0.930 . S
H530 C543 0.929 . S
H531 C541 0.929 . S
H532 C536 0.929 . S
H533 C542 0.929 . S
C534 H528 0.930 . S
C534 C535 1.367 . S
C534 C542 1.378 . S
C535 C534 1.367 . S
C535 C543 1.433 . S
C536 H532 0.929 . S
C536 C538 1.378 . S
C536 C540 1.350 . S
C537 C540 1.463 1_455 S
C537 C542 1.350 . S
C537 N545 1.427 . S
C538 H529 0.930 . S
C538 C536 1.378 . S
C538 C539 1.367 . S
C539 C538 1.367 . S
C539 C541 1.433 . S
C540 C536 1.350 . S
C540 C537 1.463 1_655 S
C540 N544 1.427 . S
C541 H531 0.929 . S
C541 C539 1.433 . S
C541 N544 1.384 . S
C542 H533 0.929 . S
C542 C534 1.378 . S
C542 C537 1.350 . S
C543 H530 0.929 . S
C543 C535 1.433 . S
C543 N545 1.384 . S
N544 C540 1.427 . S
N544 C541 1.384 . S
N545 C537 1.427 . S
N545 C543 1.384 . S
H546 C552 0.930 . S
H547 C556 0.930 . S
H548 C561 0.929 . S
H549 C559 0.929 . S
H550 C554 0.929 . S
H551 C560 0.929 . S
C552 H546 0.930 . S
C552 C553 1.367 . S
C552 C560 1.378 . S
C553 C552 1.367 . S
C553 C561 1.433 . S
C554 H550 0.929 . S
C554 C556 1.378 . S
C554 C558 1.350 . S
C555 C558 1.463 1_565 S
C555 C560 1.350 . S
C555 N563 1.427 . S
C556 H547 0.930 . S
C556 C554 1.378 . S
C556 C557 1.367 . S
C557 C556 1.367 . S
C557 C559 1.433 . S
C558 C554 1.350 . S
C558 C555 1.463 1_545 S
C558 N562 1.427 . S
C559 H549 0.929 . S
C559 C557 1.433 . S
C559 N562 1.384 . S
C560 H551 0.929 . S
C560 C552 1.378 . S
C560 C555 1.350 . S
C561 H548 0.929 . S
C561 C553 1.433 . S
C561 N563 1.384 . S
N562 C558 1.427 . S
N562 C559 1.384 . S
N563 C555 1.427 . S
N563 C561 1.384 . S
H564 C570 0.930 . S
H565 C574 0.930 . S
H566 C579 0.929 . S
H567 C577 0.929 . S
H568 C572 0.929 . S
H569 C578 0.929 . S
C570 H564 0.930 . S
C570 C571 1.367 . S
C570 C578 1.378 . S
C571 C570 1.367 . S
C571 C579 1.433 . S
C572 H568 0.929 . S
C572 C574 1.378 . S
C572 C576 1.350 . S
C573 C576 1.463 . S
C573 C578 1.350 . S
C573 N581 1.427 . S
C574 H565 0.930 . S
C574 C572 1.378 . S
C574 C575 1.367 . S
C575 C574 1.367 . S
C575 C577 1.433 . S
C576 C572 1.350 . S
C576 C573 1.463 . S
C576 N580 1.427 . S
C577 H567 0.929 . S
C577 C575 1.433 . S
C577 N580 1.384 . S
C578 H569 0.929 . S
C578 C570 1.378 . S
C578 C573 1.350 . S
C579 H566 0.929 . S
C579 C571 1.433 . S
C579 N581 1.384 . S
N580 C576 1.427 . S
N580 C577 1.384 . S
N581 C573 1.427 . S
N581 C579 1.384 . S
H582 C588 0.930 . S
H583 C592 0.930 . S
H584 C597 0.929 . S
H585 C595 0.929 . S
H586 C590 0.929 . S
H587 C596 0.929 . S
C588 H582 0.930 . S
C588 C589 1.367 . S
C588 C596 1.378 . S
C589 C588 1.367 . S
C589 C597 1.433 . S
C590 H586 0.929 . S
C590 C592 1.378 . S
C590 C594 1.350 . S
C591 C594 1.463 1_455 S
C591 C596 1.350 . S
C591 N599 1.427 . S
C592 H583 0.930 . S
C592 C590 1.378 . S
C592 C593 1.367 . S
C593 C592 1.367 . S
C593 C595 1.433 . S
C594 C590 1.350 . S
C594 C591 1.463 1_655 S
C594 N598 1.427 . S
C595 H585 0.929 . S
C595 C593 1.433 . S
C595 N598 1.384 . S
C596 H587 0.929 . S
C596 C588 1.378 . S
C596 C591 1.350 . S
C597 H584 0.929 . S
C597 C589 1.433 . S
C597 N599 1.384 . S
N598 C594 1.427 . S
N598 C595 1.384 . S
N599 C591 1.427 . S
N599 C597 1.384 . S
C175 C9 1.132 . S
C179 C149 1.133 . S
C193 C23 1.132 . S
C197 C163 1.132 . S
C211 C93 1.135 . S
C215 C37 1.134 . S
C229 C51 1.134 . S
C233 C107 1.136 . S
C247 C121 1.138 . S
C251 C65 1.138 . S
C265 C135 1.137 . S
C269 C79 1.138 1_554 S
C283 C123 1.360 . S
C287 C11 1.359 . S
C301 C25 1.355 . S
C305 C137 1.356 . S
C319 C151 1.358 . S
C323 C39 1.357 . S
C337 C53 1.352 . S
C341 C165 1.353 . S
C355 C67 1.360 . S
C359 C95 1.360 . S
C373 C81 1.355 . S
C377 C109 1.354 . S
C391 C140 1.602 . S
C395 C0 1.607 . S
C409 C154 1.602 . S
C413 C14 1.605 . S
C427 C84 1.609 1_554 S
C431 C28 1.610 . S
C445 C42 1.606 . S
C449 C98 1.602 . S
C463 C56 1.608 . S
C467 C112 1.610 . S
C481 C126 1.605 . S
C485 C70 1.602 . S
C499 C5 1.327 . S
C503 C103 1.320 . S
C517 C117 1.328 . S
C521 C19 1.320 . S
C535 C131 1.326 . S
C539 C33 1.322 . S
C553 C47 1.324 . S
C557 C145 1.324 . S
C571 C61 1.326 . S
C575 C159 1.323 . S
C589 C75 1.323 . S
C593 C89 1.326 . S
