# Generated by pormake.
# Topology umk, (4)-cn, num edge types: 1
# Building blocks:
#     Node 0, Type 0, BuildingBlock: AZAVOO_clean_sbu_0, # of connection points: 4
#     Node 1, Type 0, BuildingBlock: AZAVOO_clean_sbu_0, # of connection points: 4
#     Node 2, Type 0, BuildingBlock: AZAVOO_clean_sbu_0, # of connection points: 4
#     Node 3, Type 0, BuildingBlock: AZAVOO_clean_sbu_0, # of connection points: 4
#     Node 4, Type 0, BuildingBlock: AZAVOO_clean_sbu_0, # of connection points: 4
#     Node 5, Type 0, BuildingBlock: AZAVOO_clean_sbu_0, # of connection points: 4
#     Node 6, Type 0, BuildingBlock: AZAVOO_clean_sbu_0, # of connection points: 4
#     Node 7, Type 0, BuildingBlock: AZAVOO_clean_sbu_0, # of connection points: 4
#     Node 8, Type 0, BuildingBlock: AZAVOO_clean_sbu_0, # of connection points: 4
#     Node 9, Type 0, BuildingBlock: AZAVOO_clean_sbu_0, # of connection points: 4
#     Node 10, Type 0, BuildingBlock: AZAVOO_clean_sbu_0, # of connection points: 4
#     Node 11, Type 0, BuildingBlock: AZAVOO_clean_sbu_0, # of connection points: 4
#     Node 12, Type 0, BuildingBlock: AZAVOO_clean_sbu_0, # of connection points: 4
#     Node 13, Type 0, BuildingBlock: AZAVOO_clean_sbu_0, # of connection points: 4
#     Node 14, Type 0, BuildingBlock: AZAVOO_clean_sbu_0, # of connection points: 4
#     Node 15, Type 0, BuildingBlock: AZAVOO_clean_sbu_0, # of connection points: 4
#     Node 16, Type 0, BuildingBlock: AZAVOO_clean_sbu_0, # of connection points: 4
#     Node 17, Type 0, BuildingBlock: AZAVOO_clean_sbu_0, # of connection points: 4
#     Node 18, Type 0, BuildingBlock: AZAVOO_clean_sbu_0, # of connection points: 4
#     Node 19, Type 0, BuildingBlock: AZAVOO_clean_sbu_0, # of connection points: 4
#     Node 20, Type 0, BuildingBlock: AZAVOO_clean_sbu_0, # of connection points: 4
#     Node 21, Type 0, BuildingBlock: AZAVOO_clean_sbu_0, # of connection points: 4
#     Node 22, Type 0, BuildingBlock: AZAVOO_clean_sbu_0, # of connection points: 4
#     Node 23, Type 0, BuildingBlock: AZAVOO_clean_sbu_0, # of connection points: 4
#     Edge 24, Type (0, 0), BuildingBlock: MIFKUJ_clean_linker_0, # of connection points: 2
#     Edge 25, Type (0, 0), BuildingBlock: MIFKUJ_clean_linker_0, # of connection points: 2
#     Edge 26, Type (0, 0), BuildingBlock: MIFKUJ_clean_linker_0, # of connection points: 2
#     Edge 27, Type (0, 0), BuildingBlock: MIFKUJ_clean_linker_0, # of connection points: 2
#     Edge 28, Type (0, 0), BuildingBlock: MIFKUJ_clean_linker_0, # of connection points: 2
#     Edge 29, Type (0, 0), BuildingBlock: MIFKUJ_clean_linker_0, # of connection points: 2
#     Edge 30, Type (0, 0), BuildingBlock: MIFKUJ_clean_linker_0, # of connection points: 2
#     Edge 31, Type (0, 0), BuildingBlock: MIFKUJ_clean_linker_0, # of connection points: 2
#     Edge 32, Type (0, 0), BuildingBlock: MIFKUJ_clean_linker_0, # of connection points: 2
#     Edge 33, Type (0, 0), BuildingBlock: MIFKUJ_clean_linker_0, # of connection points: 2
#     Edge 34, Type (0, 0), BuildingBlock: MIFKUJ_clean_linker_0, # of connection points: 2
#     Edge 35, Type (0, 0), BuildingBlock: MIFKUJ_clean_linker_0, # of connection points: 2
#     Edge 36, Type (0, 0), BuildingBlock: MIFKUJ_clean_linker_0, # of connection points: 2
#     Edge 37, Type (0, 0), BuildingBlock: MIFKUJ_clean_linker_0, # of connection points: 2
#     Edge 38, Type (0, 0), BuildingBlock: MIFKUJ_clean_linker_0, # of connection points: 2
#     Edge 39, Type (0, 0), BuildingBlock: MIFKUJ_clean_linker_0, # of connection points: 2
#     Edge 40, Type (0, 0), BuildingBlock: MIFKUJ_clean_linker_0, # of connection points: 2
#     Edge 41, Type (0, 0), BuildingBlock: MIFKUJ_clean_linker_0, # of connection points: 2
#     Edge 42, Type (0, 0), BuildingBlock: MIFKUJ_clean_linker_0, # of connection points: 2
#     Edge 43, Type (0, 0), BuildingBlock: MIFKUJ_clean_linker_0, # of connection points: 2
#     Edge 44, Type (0, 0), BuildingBlock: MIFKUJ_clean_linker_0, # of connection points: 2
#     Edge 45, Type (0, 0), BuildingBlock: MIFKUJ_clean_linker_0, # of connection points: 2
#     Edge 46, Type (0, 0), BuildingBlock: MIFKUJ_clean_linker_0, # of connection points: 2
#     Edge 47, Type (0, 0), BuildingBlock: MIFKUJ_clean_linker_0, # of connection points: 2
#     Edge 48, Type (0, 0), BuildingBlock: MIFKUJ_clean_linker_0, # of connection points: 2
#     Edge 49, Type (0, 0), BuildingBlock: MIFKUJ_clean_linker_0, # of connection points: 2
#     Edge 50, Type (0, 0), BuildingBlock: MIFKUJ_clean_linker_0, # of connection points: 2
#     Edge 51, Type (0, 0), BuildingBlock: MIFKUJ_clean_linker_0, # of connection points: 2
#     Edge 52, Type (0, 0), BuildingBlock: MIFKUJ_clean_linker_0, # of connection points: 2
#     Edge 53, Type (0, 0), BuildingBlock: MIFKUJ_clean_linker_0, # of connection points: 2
#     Edge 54, Type (0, 0), BuildingBlock: MIFKUJ_clean_linker_0, # of connection points: 2
#     Edge 55, Type (0, 0), BuildingBlock: MIFKUJ_clean_linker_0, # of connection points: 2
#     Edge 56, Type (0, 0), BuildingBlock: MIFKUJ_clean_linker_0, # of connection points: 2
#     Edge 57, Type (0, 0), BuildingBlock: MIFKUJ_clean_linker_0, # of connection points: 2
#     Edge 58, Type (0, 0), BuildingBlock: MIFKUJ_clean_linker_0, # of connection points: 2
#     Edge 59, Type (0, 0), BuildingBlock: MIFKUJ_clean_linker_0, # of connection points: 2
#     Edge 60, Type (0, 0), BuildingBlock: MIFKUJ_clean_linker_0, # of connection points: 2
#     Edge 61, Type (0, 0), BuildingBlock: MIFKUJ_clean_linker_0, # of connection points: 2
#     Edge 62, Type (0, 0), BuildingBlock: MIFKUJ_clean_linker_0, # of connection points: 2
#     Edge 63, Type (0, 0), BuildingBlock: MIFKUJ_clean_linker_0, # of connection points: 2
#     Edge 64, Type (0, 0), BuildingBlock: MIFKUJ_clean_linker_0, # of connection points: 2
#     Edge 65, Type (0, 0), BuildingBlock: MIFKUJ_clean_linker_0, # of connection points: 2
#     Edge 66, Type (0, 0), BuildingBlock: MIFKUJ_clean_linker_0, # of connection points: 2
#     Edge 67, Type (0, 0), BuildingBlock: MIFKUJ_clean_linker_0, # of connection points: 2
#     Edge 68, Type (0, 0), BuildingBlock: MIFKUJ_clean_linker_0, # of connection points: 2
#     Edge 69, Type (0, 0), BuildingBlock: MIFKUJ_clean_linker_0, # of connection points: 2
#     Edge 70, Type (0, 0), BuildingBlock: MIFKUJ_clean_linker_0, # of connection points: 2
#     Edge 71, Type (0, 0), BuildingBlock: MIFKUJ_clean_linker_0, # of connection points: 2
# Relax obj value: 0.144
# Max RMSD: 0.161
# Mean RMSD: 0.161
data_MOF--net-umk--node1-AZAVOO_clean_sbu_0--edge1-MIFKUJ_clean_linker_0
_symmetry_space_group_name_H-M    P1
_symmetry_Int_Tables_number       1
_symmetry_cell_setting            triclinic
loop_
_symmetry_equiv_pos_as_xyz
'x, y, z'
_cell_length_a     84.538162
_cell_length_b     84.47322
_cell_length_c     55.761749
_cell_angle_alpha  90.03283
_cell_angle_beta   89.988902
_cell_angle_gamma 119.99231
loop_
_atom_site_label
_atom_site_type_symbol
_atom_site_fract_x
_atom_site_fract_y
_atom_site_fract_z
_atom_type_partial_charge
Mg0 Mg 0.32558 0.44606 0.06398 0.0
O1 O 0.35221 0.4688 0.04748 0.0
O2 O 0.37512 0.4647 0.05977 0.0
Mg3 Mg 0.3634 0.44053 0.08553 0.0
C4 C 0.36908 0.47337 0.04762 0.0
C5 C 0.29987 0.46254 0.06686 0.0
O6 O 0.29674 0.45491 0.08816 0.0
O7 O 0.33333 0.461 0.09962 0.0
O8 O 0.35635 0.45713 0.11177 0.0
O9 O 0.32198 0.42775 0.03305 0.0
O10 O 0.33729 0.42961 0.06616 0.0
C11 C 0.34563 0.46353 0.11482 0.0
C12 C 0.33251 0.42338 0.04467 0.0
O13 O 0.31102 0.46124 0.05286 0.0
Mg14 Mg 0.87697 0.33375 0.57937 0.0
O15 O 0.87299 0.35631 0.56252 0.0
O16 O 0.89406 0.38302 0.57826 0.0
Mg17 Mg 0.91211 0.3779 0.60368 0.0
C18 C 0.88043 0.37364 0.56453 0.0
C19 C 0.8492 0.30192 0.54859 0.0
O20 O 0.86489 0.3039 0.54144 0.0
O21 O 0.86472 0.33627 0.61475 0.0
O22 O 0.88739 0.36287 0.62853 0.0
O23 O 0.89648 0.33691 0.55015 0.0
O24 O 0.90459 0.35262 0.58401 0.0
C25 C 0.87157 0.34874 0.63077 0.0
C26 C 0.90905 0.34972 0.56308 0.0
O27 O 0.84914 0.31219 0.5652 0.0
Mg28 Mg 0.55756 0.87875 0.08256 0.0
O29 O 0.53259 0.88033 0.07028 0.0
O30 O 0.53333 0.90493 0.08655 0.0
Mg31 Mg 0.55992 0.91992 0.10788 0.0
C32 C 0.52569 0.89057 0.07358 0.0
C33 C 0.53795 0.84617 0.04838 0.0
O34 O 0.54043 0.85995 0.03483 0.0
O35 O 0.54519 0.86993 0.11997 0.0
O36 O 0.54811 0.89598 0.13421 0.0
O37 O 0.57297 0.89482 0.0505 0.0
O38 O 0.57184 0.90714 0.08504 0.0
C39 C 0.54326 0.87913 0.13672 0.0
C40 C 0.57669 0.90926 0.06279 0.0
O41 O 0.54371 0.84927 0.06988 0.0
Mg42 Mg 0.67253 0.54555 0.58667 0.0
O43 O 0.64476 0.52198 0.57425 0.0
O44 O 0.62291 0.52601 0.59074 0.0
Mg45 Mg 0.6365 0.55071 0.61547 0.0
C46 C 0.62795 0.51717 0.57718 0.0
C47 C 0.68507 0.52613 0.54994 0.0
O48 O 0.67436 0.52909 0.53586 0.0
O49 O 0.66892 0.53172 0.62285 0.0
O50 O 0.64686 0.5355 0.63905 0.0
O51 O 0.6719 0.56256 0.55638 0.0
O52 O 0.6609 0.56178 0.5926 0.0
C53 C 0.65805 0.52952 0.64005 0.0
C54 C 0.66289 0.56726 0.57069 0.0
O55 O 0.68675 0.53097 0.57179 0.0
Mg56 Mg 0.11741 0.67051 0.07205 0.0
O57 O 0.11626 0.64521 0.05461 0.0
O58 O 0.09159 0.62063 0.06949 0.0
Mg59 Mg 0.07794 0.62977 0.09705 0.0
C60 C 0.1055 0.62793 0.05569 0.0
C61 C 0.14755 0.70231 0.04523 0.0
O62 O 0.13332 0.70457 0.04319 0.0
O63 O 0.12852 0.66511 0.10642 0.0
O64 O 0.10357 0.64068 0.12073 0.0
O65 O 0.09915 0.671 0.0434 0.0
O66 O 0.08934 0.65555 0.07734 0.0
C67 C 0.12045 0.65283 0.12241 0.0
C68 C 0.0857 0.65938 0.05645 0.0
O69 O 0.14593 0.68881 0.05725 0.0
Mg70 Mg 0.45338 0.12733 0.5748 0.0
O71 O 0.47528 0.12018 0.5641 0.0
O72 O 0.46785 0.09316 0.58049 0.0
Mg73 Mg 0.44272 0.08426 0.60387 0.0
C74 C 0.47822 0.10692 0.56746 0.0
C75 C 0.47215 0.16959 0.57101 0.0
O76 O 0.46436 0.16701 0.59215 0.0
O77 O 0.46649 0.13625 0.61166 0.0
O78 O 0.45924 0.10929 0.62797 0.0
O79 O 0.43613 0.1107 0.54392 0.0
O80 O 0.43469 0.09991 0.58043 0.0
C81 C 0.4669 0.1267 0.62911 0.0
C82 C 0.42964 0.09684 0.55834 0.0
O83 O 0.4707 0.1559 0.55963 0.0
Mg84 Mg 0.54178 0.67152 0.92328 0.0
O85 O 0.51875 0.64264 0.93242 0.0
O86 O 0.52493 0.62261 0.91466 0.0
Mg87 Mg 0.55116 0.63862 0.89301 0.0
C88 C 0.51484 0.62625 0.92791 0.0
C89 C 0.52345 0.69563 0.92781 0.0
O90 O 0.53062 0.70072 0.90633 0.0
O91 O 0.52954 0.66883 0.88603 0.0
O92 O 0.53665 0.64934 0.86874 0.0
O93 O 0.55804 0.6706 0.9544 0.0
O94 O 0.55966 0.66177 0.91763 0.0
C95 C 0.52953 0.65959 0.86791 0.0
C96 C 0.56435 0.66314 0.93983 0.0
O97 O 0.52519 0.68344 0.93886 0.0
Mg98 Mg 0.86889 0.54233 0.40971 0.0
O99 O 0.86893 0.51672 0.42325 0.0
O100 O 0.89217 0.51534 0.40613 0.0
Mg101 Mg 0.90744 0.54052 0.38256 0.0
C102 C 0.87829 0.50885 0.41993 0.0
C103 C 0.83677 0.52551 0.44585 0.0
O104 O 0.84984 0.52587 0.459 0.0
O105 O 0.85775 0.52868 0.37342 0.0
O106 O 0.88227 0.52866 0.35838 0.0
O107 O 0.88741 0.55847 0.43983 0.0
O108 O 0.89688 0.55505 0.40428 0.0
C109 C 0.86569 0.52491 0.35675 0.0
C110 C 0.90079 0.56117 0.4259 0.0
O111 O 0.84025 0.5313 0.4244 0.0
Mg112 Mg 0.34113 0.876 0.92055 0.0
O113 O 0.36529 0.87449 0.93667 0.0
O114 O 0.39072 0.89763 0.92096 0.0
Mg115 Mg 0.38298 0.91453 0.89692 0.0
C116 C 0.38264 0.88355 0.93439 0.0
C117 C 0.30524 0.84041 0.92489 0.0
O118 O 0.30167 0.84995 0.90942 0.0
O119 O 0.34511 0.86578 0.8845 0.0
O120 O 0.36982 0.89052 0.87038 0.0
O121 O 0.34196 0.89341 0.95098 0.0
O122 O 0.35733 0.90419 0.9172 0.0
C123 C 0.35685 0.87403 0.86797 0.0
C124 C 0.35366 0.9073 0.93855 0.0
O125 O 0.32139 0.84718 0.9329 0.0
Mg126 Mg 0.45575 0.3352 0.42009 0.0
O127 O 0.479 0.36179 0.43611 0.0
O128 O 0.47612 0.38495 0.42158 0.0
Mg129 Mg 0.45247 0.37356 0.39507 0.0
C130 C 0.48415 0.3788 0.43486 0.0
C131 C 0.4572 0.30401 0.44364 0.0
O132 O 0.43983 0.29925 0.44356 0.0
O133 O 0.47121 0.34101 0.38471 0.0
O134 O 0.46791 0.36399 0.37073 0.0
O135 O 0.43679 0.33337 0.44954 0.0
O136 O 0.44043 0.3479 0.41522 0.0
C137 C 0.47388 0.35283 0.36861 0.0
C138 C 0.43326 0.34377 0.43627 0.0
O139 O 0.46866 0.31917 0.43431 0.0
Mg140 Mg 0.1272 0.45565 0.92432 0.0
O141 O 0.12228 0.47916 0.93427 0.0
O142 O 0.09689 0.47477 0.91593 0.0
Mg143 Mg 0.08668 0.44944 0.89242 0.0
C144 C 0.11045 0.48394 0.92987 0.0
C145 C 0.15675 0.47484 0.96346 0.0
O146 O 0.14194 0.47011 0.97611 0.0
O147 O 0.13845 0.46902 0.88814 0.0
O148 O 0.11293 0.46451 0.87003 0.0
O149 O 0.10868 0.43863 0.95399 0.0
O150 O 0.09962 0.43888 0.9169 0.0
C151 C 0.13017 0.47074 0.87007 0.0
C152 C 0.09545 0.43332 0.93871 0.0
O153 O 0.15527 0.47109 0.94122 0.0
Mg154 Mg 0.66724 0.11682 0.42924 0.0
O155 O 0.63985 0.1123 0.44407 0.0
O156 O 0.61797 0.0849 0.43125 0.0
Mg157 Mg 0.63075 0.07309 0.40642 0.0
C158 C 0.62316 0.09952 0.44332 0.0
C159 C 0.69629 0.15715 0.42993 0.0
O160 O 0.70077 0.15084 0.41112 0.0
O161 O 0.66074 0.12427 0.39268 0.0
O162 O 0.63846 0.09693 0.38045 0.0
O163 O 0.66955 0.10182 0.46071 0.0
O164 O 0.65633 0.08875 0.42643 0.0
C165 C 0.64889 0.11408 0.3772 0.0
C166 C 0.66003 0.08704 0.44836 0.0
O167 O 0.68184 0.14642 0.44133 0.0
Mg168 Mg 0.67009 0.54857 0.93167 0.0
O169 O 0.64103 0.52625 0.94094 0.0
O170 O 0.62115 0.5326 0.9232 0.0
Mg171 Mg 0.63775 0.55791 0.90007 0.0
C172 C 0.62471 0.52261 0.93676 0.0
C173 C 0.6785 0.52676 0.96964 0.0
O174 O 0.67006 0.53277 0.9835 0.0
O175 O 0.66743 0.5356 0.89509 0.0
O176 O 0.64739 0.54167 0.87719 0.0
O177 O 0.66917 0.56547 0.96202 0.0
O178 O 0.66097 0.56678 0.92477 0.0
C179 C 0.65767 0.53458 0.87706 0.0
C180 C 0.66205 0.57171 0.94683 0.0
O181 O 0.68064 0.53098 0.94755 0.0
Mg182 Mg 0.12107 0.66095 0.41181 0.0
O183 O 0.11978 0.63538 0.42842 0.0
O184 O 0.09537 0.61115 0.41254 0.0
Mg185 Mg 0.08231 0.62084 0.38491 0.0
C186 C 0.10902 0.61813 0.42678 0.0
C187 C 0.15166 0.69466 0.43356 0.0
O188 O 0.13817 0.69797 0.43039 0.0
O189 O 0.1328 0.65681 0.37713 0.0
O190 O 0.10819 0.63268 0.36164 0.0
O191 O 0.10225 0.66037 0.44033 0.0
O192 O 0.09312 0.64639 0.40535 0.0
C193 C 0.12502 0.64504 0.36048 0.0
C194 C 0.08898 0.6495 0.42639 0.0
O195 O 0.14934 0.67919 0.42726 0.0
Mg196 Mg 0.44322 0.12266 0.92219 0.0
O197 O 0.46619 0.11716 0.93273 0.0
O198 O 0.45984 0.09001 0.91789 0.0
Mg199 Mg 0.43419 0.07963 0.8949 0.0
C200 C 0.46993 0.10437 0.93013 0.0
C201 C 0.45378 0.1622 0.93089 0.0
O202 O 0.43891 0.15587 0.91779 0.0
O203 O 0.45558 0.13122 0.88505 0.0
O204 O 0.44981 0.10436 0.86986 0.0
O205 O 0.42752 0.10654 0.95406 0.0
O206 O 0.42536 0.0949 0.91781 0.0
C207 C 0.4566 0.12165 0.86805 0.0
C208 C 0.42123 0.09234 0.94024 0.0
O209 O 0.45996 0.15165 0.93583 0.0
Mg210 Mg 0.32731 0.45856 0.40607 0.0
O211 O 0.35446 0.48046 0.42245 0.0
O212 O 0.37716 0.47743 0.40675 0.0
Mg213 Mg 0.36479 0.45537 0.37805 0.0
C214 C 0.37132 0.48515 0.42106 0.0
C215 C 0.31487 0.47535 0.44555 0.0
O216 O 0.32501 0.47044 0.45775 0.0
O217 O 0.33324 0.47569 0.37213 0.0
O218 O 0.35632 0.47314 0.35693 0.0
O219 O 0.32517 0.43833 0.43361 0.0
O220 O 0.33912 0.4425 0.39871 0.0
C221 C 0.34541 0.47945 0.35616 0.0
C222 C 0.33512 0.43474 0.41948 0.0
O223 O 0.31304 0.47246 0.42309 0.0
Mg224 Mg 0.87376 0.32067 0.92663 0.0
O225 O 0.87832 0.34833 0.94034 0.0
O226 O 0.90404 0.37052 0.92398 0.0
Mg227 Mg 0.9142 0.35729 0.89723 0.0
C228 C 0.89034 0.36519 0.93794 0.0
C229 C 0.84139 0.29162 0.9544 0.0
O230 O 0.85307 0.28564 0.95446 0.0
O231 O 0.86243 0.32463 0.89144 0.0
O232 O 0.88787 0.3476 0.87547 0.0
O233 O 0.89239 0.321 0.95535 0.0
O234 O 0.90135 0.33226 0.91892 0.0
C235 C 0.87072 0.33627 0.87483 0.0
C236 C 0.90558 0.32996 0.9403 0.0
O237 O 0.84571 0.30649 0.9437 0.0
Mg238 Mg 0.54748 0.87441 0.43689 0.0
O239 O 0.52418 0.88012 0.44483 0.0
O240 O 0.5322 0.90791 0.43075 0.0
Mg241 Mg 0.55962 0.91897 0.41159 0.0
C242 C 0.521 0.89324 0.44168 0.0
C243 C 0.5299 0.83243 0.435 0.0
O244 O 0.54015 0.83728 0.41566 0.0
O245 O 0.53824 0.86807 0.39806 0.0
O246 O 0.54614 0.89578 0.38378 0.0
O247 O 0.56113 0.88895 0.47083 0.0
O248 O 0.56606 0.90215 0.43521 0.0
C249 C 0.53917 0.87853 0.38097 0.0
C250 C 0.56888 0.90368 0.45798 0.0
O251 O 0.52946 0.84472 0.44764 0.0
Mg252 Mg 0.44819 0.32883 0.06939 0.0
O253 O 0.47044 0.35685 0.05557 0.0
O254 O 0.46322 0.37769 0.06785 0.0
Mg255 Mg 0.43722 0.36332 0.09027 0.0
C256 C 0.4736 0.3733 0.05652 0.0
C257 C 0.46153 0.30111 0.06918 0.0
O258 O 0.44825 0.29396 0.08501 0.0
O259 O 0.46055 0.33598 0.1068 0.0
O260 O 0.45264 0.35639 0.1184 0.0
O261 O 0.4315 0.32499 0.03646 0.0
O262 O 0.42989 0.33841 0.06973 0.0
C263 C 0.46031 0.3469 0.12242 0.0
C264 C 0.42526 0.33416 0.04763 0.0
O265 O 0.46558 0.31633 0.05968 0.0
Mg266 Mg 0.12996 0.45348 0.57878 0.0
O267 O 0.12436 0.47655 0.56923 0.0
O268 O 0.09772 0.47059 0.58536 0.0
Mg269 Mg 0.08801 0.4452 0.60876 0.0
C270 C 0.11178 0.48048 0.57254 0.0
C271 C 0.17197 0.47076 0.57396 0.0
O272 O 0.16929 0.46204 0.5944 0.0
O273 O 0.13979 0.46609 0.61566 0.0
O274 O 0.11357 0.46087 0.63236 0.0
O275 O 0.11236 0.43753 0.54782 0.0
O276 O 0.10242 0.43586 0.585 0.0
C277 C 0.13086 0.46745 0.63322 0.0
C278 C 0.09885 0.43144 0.56277 0.0
O279 O 0.15842 0.47011 0.56321 0.0
Mg280 Mg 0.65892 0.12112 0.07663 0.0
O281 O 0.63161 0.11679 0.06197 0.0
O282 O 0.60958 0.08944 0.07471 0.0
Mg283 Mg 0.62242 0.07707 0.09866 0.0
C284 C 0.61487 0.10415 0.06281 0.0
C285 C 0.68643 0.16295 0.07729 0.0
O286 O 0.69103 0.15827 0.09746 0.0
O287 O 0.65244 0.12794 0.11365 0.0
O288 O 0.63064 0.10034 0.12565 0.0
O289 O 0.66184 0.10681 0.04464 0.0
O290 O 0.64778 0.09293 0.07818 0.0
C291 C 0.64099 0.11744 0.1293 0.0
C292 C 0.652 0.09176 0.05628 0.0
O293 O 0.67313 0.15082 0.06525 0.0
Mg294 Mg 0.54053 0.66631 0.57869 0.0
O295 O 0.51625 0.63906 0.56645 0.0
O296 O 0.51797 0.6164 0.58467 0.0
Mg297 Mg 0.54214 0.62927 0.61036 0.0
C298 C 0.51025 0.62208 0.5701 0.0
C299 C 0.52383 0.6799 0.53948 0.0
O300 O 0.52773 0.66949 0.52613 0.0
O301 O 0.52632 0.66438 0.61404 0.0
O302 O 0.52797 0.64172 0.63232 0.0
O303 O 0.55766 0.66402 0.54987 0.0
O304 O 0.55528 0.65331 0.58665 0.0
C305 C 0.52311 0.65383 0.63196 0.0
C306 C 0.56137 0.65477 0.56511 0.0
O307 O 0.52739 0.6813 0.56177 0.0
Mg308 Mg 0.86885 0.54295 0.05436 0.0
O309 O 0.87472 0.51974 0.0459 0.0
O310 O 0.90292 0.52827 0.05881 0.0
Mg311 Mg 0.91439 0.55601 0.07708 0.0
C312 C 0.88804 0.51678 0.04856 0.0
C313 C 0.827 0.52432 0.0596 0.0
O314 O 0.83247 0.53467 0.07885 0.0
O315 O 0.86402 0.53411 0.09338 0.0
O316 O 0.89222 0.5424 0.10604 0.0
O317 O 0.88212 0.55654 0.01968 0.0
O318 O 0.89644 0.56156 0.05454 0.0
C319 C 0.87507 0.53523 0.10974 0.0
C320 C 0.8972 0.56426 0.03179 0.0
O321 O 0.83888 0.52437 0.04559 0.0
Mg322 Mg 0.32751 0.87715 0.57622 0.0
O323 O 0.35464 0.88139 0.56065 0.0
O324 O 0.37695 0.90738 0.57644 0.0
Mg325 Mg 0.36471 0.91829 0.6036 0.0
C326 C 0.37149 0.89363 0.56251 0.0
C327 C 0.29553 0.84445 0.55556 0.0
O328 O 0.29014 0.85614 0.56116 0.0
O329 O 0.33285 0.86657 0.61114 0.0
O330 O 0.35545 0.89251 0.62649 0.0
O331 O 0.3264 0.89497 0.54743 0.0
O332 O 0.33934 0.90499 0.58281 0.0
C333 C 0.34445 0.87529 0.62767 0.0
C334 C 0.336 0.90861 0.56161 0.0
O335 O 0.31188 0.84869 0.56024 0.0
H336 H 0.31858 0.4663 0.13789 0.0
H337 H 0.31986 0.47816 0.1783 0.0
H338 H 0.37719 0.4952 0.18255 0.0
H339 H 0.37575 0.48265 0.14267 0.0
H340 H 0.36038 0.47476 0.21828 0.0
H341 H 0.36016 0.52608 0.18216 0.0
H342 H 0.34901 0.54172 0.15559 0.0
H343 H 0.29785 0.51684 0.19319 0.0
H344 H 0.30859 0.50084 0.21979 0.0
H345 H 0.3753 0.50467 0.33225 0.0
H346 H 0.37618 0.51245 0.28994 0.0
H347 H 0.31731 0.4832 0.28776 0.0
H348 H 0.31637 0.47585 0.33044 0.0
H349 H 0.33555 0.51256 0.25111 0.0
H350 H 0.33432 0.45795 0.28198 0.0
H351 H 0.34519 0.44232 0.30908 0.0
H352 H 0.39928 0.47374 0.28004 0.0
H353 H 0.38876 0.48979 0.25307 0.0
C354 C 0.33153 0.47291 0.14729 0.0
C355 C 0.347 0.47331 0.13735 0.0
C356 C 0.33228 0.47981 0.17033 0.0
C357 C 0.34864 0.48762 0.1835 0.0
C358 C 0.36439 0.48915 0.1728 0.0
C359 C 0.36355 0.48193 0.15005 0.0
C360 C 0.34882 0.49174 0.20941 0.0
C361 C 0.35532 0.48339 0.22526 0.0
C362 C 0.34161 0.50244 0.21874 0.0
C363 C 0.33514 0.51213 0.20286 0.0
C364 C 0.34648 0.52383 0.18466 0.0
C365 C 0.34024 0.53278 0.16961 0.0
C366 C 0.32272 0.53024 0.17266 0.0
C367 C 0.31141 0.51878 0.19083 0.0
C368 C 0.31758 0.50979 0.20592 0.0
C369 C 0.36256 0.50069 0.32304 0.0
C370 C 0.34577 0.4894 0.33435 0.0
C371 C 0.36308 0.5052 0.29891 0.0
C372 C 0.34682 0.49803 0.28568 0.0
C373 C 0.33 0.48884 0.29771 0.0
C374 C 0.32948 0.48459 0.32206 0.0
C375 C 0.34748 0.49591 0.25945 0.0
C376 C 0.34091 0.50429 0.24378 0.0
C377 C 0.35458 0.48519 0.25003 0.0
C378 C 0.3608 0.47518 0.26572 0.0
C379 C 0.34855 0.46158 0.28148 0.0
C380 C 0.35464 0.45265 0.29681 0.0
C381 C 0.37292 0.45706 0.29632 0.0
C382 C 0.38513 0.47036 0.28043 0.0
C383 C 0.37911 0.47937 0.26512 0.0
H384 H 0.37762 0.45015 0.30822 0.0
H385 H 0.31791 0.53718 0.16098 0.0
H386 H 0.84771 0.31669 0.65331 0.0
H387 H 0.83846 0.31336 0.69554 0.0
H388 H 0.86469 0.372 0.70227 0.0
H389 H 0.87422 0.37541 0.66044 0.0
H390 H 0.87914 0.35744 0.7316 0.0
H391 H 0.81893 0.34512 0.71058 0.0
H392 H 0.78932 0.32911 0.68961 0.0
H393 H 0.77767 0.27859 0.72294 0.0
H394 H 0.80734 0.29426 0.74385 0.0
H395 H 0.87295 0.36548 0.85184 0.0
H396 H 0.86342 0.36615 0.81068 0.0
H397 H 0.83807 0.30744 0.80667 0.0
H398 H 0.84689 0.30668 0.84843 0.0
H399 H 0.82109 0.32104 0.77615 0.0
H400 H 0.88145 0.33165 0.79309 0.0
H401 H 0.9112 0.3464 0.81384 0.0
H402 H 0.92286 0.39867 0.78655 0.0
H403 H 0.89302 0.38425 0.76595 0.0
C404 C 0.85096 0.32882 0.66362 0.0
C405 C 0.86197 0.34632 0.65377 0.0
C406 C 0.84562 0.3269 0.68772 0.0
C407 C 0.85102 0.34245 0.70208 0.0
C408 C 0.86049 0.35983 0.69154 0.0
C409 C 0.86597 0.36176 0.66766 0.0
C410 C 0.84987 0.34096 0.72857 0.0
C411 C 0.86637 0.34978 0.7413 0.0
C412 C 0.83331 0.33028 0.74116 0.0
C413 C 0.81545 0.32084 0.72861 0.0
C414 C 0.81014 0.33056 0.71327 0.0
C415 C 0.79332 0.32156 0.70143 0.0
C416 C 0.78164 0.30284 0.70489 0.0
C417 C 0.78674 0.29309 0.72025 0.0
C418 C 0.80355 0.30203 0.73213 0.0
C419 C 0.86473 0.35268 0.84246 0.0
C420 C 0.86083 0.33605 0.85304 0.0
C421 C 0.85928 0.35306 0.81899 0.0
C422 C 0.85046 0.33689 0.80546 0.0
C423 C 0.84491 0.32006 0.81679 0.0
C424 C 0.84999 0.31964 0.84058 0.0
C425 C 0.85031 0.338 0.77895 0.0
C426 C 0.83374 0.3289 0.76631 0.0
C427 C 0.86685 0.34823 0.76617 0.0
C428 C 0.88494 0.3569 0.77818 0.0
C429 C 0.89032 0.3463 0.79163 0.0
C430 C 0.90719 0.3546 0.80336 0.0
C431 C 0.9189 0.37347 0.80156 0.0
C432 C 0.91377 0.38406 0.78796 0.0
C433 C 0.89688 0.37584 0.77625 0.0
H434 H 0.93195 0.37987 0.81065 0.0
H435 H 0.76862 0.29589 0.69571 0.0
H436 H 0.53375 0.84589 0.36318 0.0
H437 H 0.52668 0.83507 0.3216 0.0
H438 H 0.52319 0.88275 0.30278 0.0
H439 H 0.5303 0.89367 0.344 0.0
H440 H 0.49624 0.85049 0.28049 0.0
H441 H 0.56245 0.88358 0.29561 0.0
H442 H 0.59007 0.88775 0.31633 0.0
H443 H 0.57813 0.83428 0.29373 0.0
H444 H 0.55031 0.82974 0.27312 0.0
H445 H 0.52956 0.8914 0.17149 0.0
H446 H 0.52087 0.87989 0.21203 0.0
H447 H 0.53125 0.83587 0.19632 0.0
H448 H 0.54027 0.84756 0.1553 0.0
H449 H 0.54869 0.85382 0.23608 0.0
H450 H 0.48778 0.82582 0.20991 0.0
H451 H 0.46081 0.82248 0.18842 0.0
H452 H 0.46205 0.8655 0.23087 0.0
H453 H 0.4892 0.86932 0.25238 0.0
C454 C 0.53117 0.8539 0.35025 0.0
C455 C 0.53279 0.87075 0.35679 0.0
C456 C 0.52714 0.84769 0.32654 0.0
C457 C 0.5245 0.85816 0.30916 0.0
C458 C 0.52512 0.87444 0.31597 0.0
C459 C 0.52933 0.88074 0.3395 0.0
C460 C 0.52296 0.85344 0.28338 0.0
C461 C 0.5076 0.85105 0.27069 0.0
C462 C 0.5375 0.85346 0.27082 0.0
C463 C 0.55421 0.85622 0.28314 0.0
C464 C 0.56565 0.87267 0.29524 0.0
C465 C 0.58135 0.87511 0.30693 0.0
C466 C 0.58582 0.86126 0.30642 0.0
C467 C 0.57463 0.84497 0.29417 0.0
C468 C 0.5589 0.84245 0.28249 0.0
C469 C 0.52977 0.87911 0.17645 0.0
C470 C 0.53578 0.8705 0.16022 0.0
C471 C 0.52458 0.87241 0.19963 0.0
C472 C 0.52518 0.85687 0.20716 0.0
C473 C 0.53056 0.8478 0.1908 0.0
C474 C 0.53568 0.85448 0.1674 0.0
C475 C 0.52233 0.85182 0.23291 0.0
C476 C 0.53691 0.85243 0.24572 0.0
C477 C 0.50702 0.8501 0.24554 0.0
C478 C 0.49058 0.84785 0.23277 0.0
C479 C 0.48238 0.83464 0.21459 0.0
C480 C 0.46704 0.83266 0.2024 0.0
C481 C 0.45972 0.84377 0.20827 0.0
C482 C 0.46771 0.85688 0.22637 0.0
C483 C 0.48306 0.85893 0.23861 0.0
H484 H 0.44785 0.84222 0.19881 0.0
H485 H 0.59798 0.86318 0.31547 0.0
H486 H 0.68458 0.52729 0.86318 0.0
H487 H 0.68788 0.51629 0.82378 0.0
H488 H 0.6365 0.51081 0.80153 0.0
H489 H 0.6331 0.52168 0.84054 0.0
H490 H 0.64163 0.48297 0.78354 0.0
H491 H 0.67589 0.55035 0.79183 0.0
H492 H 0.69986 0.57884 0.81038 0.0
H493 H 0.74021 0.564 0.79272 0.0
H494 H 0.71639 0.53532 0.77429 0.0
H495 H 0.6323 0.51495 0.67504 0.0
H496 H 0.63559 0.50536 0.71485 0.0
H497 H 0.68921 0.5148 0.69639 0.0
H498 H 0.68605 0.52467 0.65618 0.0
H499 H 0.69034 0.53307 0.73558 0.0
H500 H 0.65593 0.4716 0.71293 0.0
H501 H 0.63153 0.44405 0.69326 0.0
H502 H 0.59128 0.44717 0.73676 0.0
H503 H 0.61537 0.4749 0.75646 0.0
C504 C 0.67382 0.52338 0.85003 0.0
C505 C 0.65871 0.52563 0.8548 0.0
C506 C 0.67573 0.51709 0.82757 0.0
C507 C 0.66249 0.51286 0.80973 0.0
C508 C 0.64685 0.51394 0.81507 0.0
C509 C 0.64501 0.52034 0.83732 0.0
C510 C 0.66564 0.50964 0.78454 0.0
C511 C 0.65236 0.49377 0.77297 0.0
C512 C 0.68011 0.52343 0.77099 0.0
C513 C 0.69437 0.54063 0.78201 0.0
C514 C 0.68986 0.55313 0.79207 0.0
C515 C 0.70341 0.5693 0.80253 0.0
C516 C 0.72154 0.5732 0.80281 0.0
C517 C 0.72616 0.56094 0.79256 0.0
C518 C 0.71264 0.54473 0.78211 0.0
C519 C 0.64467 0.51465 0.67921 0.0
C520 C 0.65902 0.52081 0.66256 0.0
C521 C 0.64645 0.50894 0.70195 0.0
C522 C 0.66259 0.50918 0.70858 0.0
C523 C 0.67659 0.51438 0.69158 0.0
C524 C 0.67476 0.52002 0.66864 0.0
C525 C 0.66559 0.50687 0.73423 0.0
C526 C 0.68006 0.52175 0.74601 0.0
C527 C 0.65219 0.49215 0.74789 0.0
C528 C 0.63753 0.47538 0.73621 0.0
C529 C 0.64187 0.46648 0.71824 0.0
C530 C 0.62809 0.45081 0.70708 0.0
C531 C 0.60987 0.44386 0.71376 0.0
C532 C 0.6054 0.45255 0.73164 0.0
C533 C 0.61913 0.46822 0.74286 0.0
H534 H 0.59921 0.43173 0.70509 0.0
H535 H 0.73202 0.58573 0.8109 0.0
H536 H 0.11543 0.61949 0.32529 0.0
H537 H 0.12782 0.62414 0.28499 0.0
H538 H 0.16952 0.67892 0.30375 0.0
H539 H 0.15691 0.67443 0.34436 0.0
H540 H 0.15106 0.67935 0.26622 0.0
H541 H 0.18161 0.64729 0.28459 0.0
H542 H 0.1865 0.62326 0.30196 0.0
H543 H 0.14402 0.58302 0.25734 0.0
H544 H 0.13865 0.60673 0.23994 0.0
H545 H 0.15335 0.68052 0.13906 0.0
H546 H 0.16698 0.68237 0.17852 0.0
H547 H 0.12353 0.62788 0.19488 0.0
H548 H 0.11003 0.62583 0.15569 0.0
H549 H 0.15604 0.63439 0.2142 0.0
H550 H 0.11969 0.6652 0.20898 0.0
H551 H 0.11337 0.68862 0.19264 0.0
H552 H 0.16689 0.73087 0.21374 0.0
H553 H 0.17357 0.70763 0.22997 0.0
C554 C 0.12751 0.6324 0.32109 0.0
C555 C 0.135 0.64668 0.33795 0.0
C556 C 0.13473 0.63498 0.29803 0.0
C557 C 0.1497 0.65186 0.29131 0.0
C558 C 0.15801 0.66576 0.30857 0.0
C559 C 0.15079 0.66316 0.33178 0.0
C560 C 0.15437 0.65564 0.26549 0.0
C561 C 0.15284 0.66989 0.25492 0.0
C562 C 0.15654 0.64325 0.25065 0.0
C563 C 0.15972 0.62885 0.26095 0.0
C564 C 0.17323 0.63331 0.27856 0.0
C565 C 0.1761 0.61973 0.28841 0.0
C566 C 0.16558 0.60163 0.28076 0.0
C567 C 0.15218 0.59706 0.26322 0.0
C568 C 0.14925 0.61058 0.25331 0.0
C569 C 0.14694 0.66879 0.15087 0.0
C570 C 0.13041 0.65315 0.14441 0.0
C571 C 0.15475 0.66988 0.1734 0.0
C572 C 0.14614 0.65534 0.18973 0.0
C573 C 0.13042 0.63926 0.18258 0.0
C574 C 0.12261 0.63818 0.1602 0.0
C575 C 0.15174 0.65742 0.21525 0.0
C576 C 0.15514 0.64429 0.22566 0.0
C577 C 0.15125 0.67079 0.23003 0.0
C578 C 0.14721 0.68471 0.22037 0.0
C579 C 0.13014 0.67948 0.20998 0.0
C580 C 0.12648 0.69271 0.20076 0.0
C581 C 0.13974 0.71122 0.20207 0.0
C582 C 0.15665 0.71653 0.21267 0.0
C583 C 0.16038 0.70334 0.22188 0.0
H584 H 0.13689 0.72145 0.19493 0.0
H585 H 0.16782 0.59114 0.28841 0.0
H586 H 0.46593 0.15609 0.85237 0.0
H587 H 0.47784 0.16927 0.81272 0.0
H588 H 0.47915 0.12058 0.79279 0.0
H589 H 0.46744 0.10743 0.83207 0.0
H590 H 0.50895 0.15186 0.77529 0.0
H591 H 0.44198 0.12459 0.78047 0.0
H592 H 0.4142 0.12297 0.79728 0.0
H593 H 0.43432 0.17912 0.77833 0.0
H594 H 0.46232 0.18109 0.76164 0.0
H595 H 0.47804 0.1129 0.66511 0.0
H596 H 0.48693 0.12486 0.70546 0.0
H597 H 0.48375 0.17264 0.68604 0.0
H598 H 0.47457 0.16054 0.64525 0.0
H599 H 0.46323 0.15614 0.72415 0.0
H600 H 0.52475 0.1779 0.70515 0.0
H601 H 0.55149 0.17809 0.68721 0.0
H602 H 0.54209 0.13242 0.73105 0.0
H603 H 0.51513 0.13174 0.749 0.0
C604 C 0.46903 0.14833 0.83964 0.0
C605 C 0.46548 0.1306 0.84523 0.0
C606 C 0.47585 0.15589 0.81705 0.0
C607 C 0.47928 0.14585 0.79982 0.0
C608 C 0.47667 0.1286 0.80586 0.0
C609 C 0.46979 0.12102 0.82828 0.0
C610 C 0.48358 0.15201 0.77462 0.0
C611 C 0.49911 0.15301 0.76403 0.0
C612 C 0.47111 0.15428 0.76018 0.0
C613 C 0.4543 0.15306 0.77014 0.0
C614 C 0.44052 0.13662 0.78006 0.0
C615 C 0.42474 0.13563 0.78953 0.0
C616 C 0.42253 0.15095 0.78895 0.0
C617 C 0.43608 0.16728 0.77883 0.0
C618 C 0.4519 0.16834 0.76937 0.0
C619 C 0.47958 0.12614 0.6692 0.0
C620 C 0.47537 0.13566 0.65208 0.0
C621 C 0.4849 0.13309 0.69227 0.0
C622 C 0.48619 0.14976 0.69875 0.0
C623 C 0.48296 0.15982 0.68135 0.0
C624 C 0.47773 0.15289 0.65808 0.0
C625 C 0.48805 0.15481 0.72448 0.0
C626 C 0.47364 0.15592 0.73529 0.0
C627 C 0.50157 0.15445 0.73906 0.0
C628 C 0.51788 0.1548 0.72846 0.0
C629 C 0.52832 0.16783 0.7109 0.0
C630 C 0.54353 0.16803 0.70073 0.0
C631 C 0.54849 0.15528 0.708 0.0
C632 C 0.53826 0.14232 0.72547 0.0
C633 C 0.52303 0.14205 0.73571 0.0
H634 H 0.56027 0.15545 0.70009 0.0
H635 H 0.4103 0.15016 0.79628 0.0
H636 H 0.50625 0.62954 0.6682 0.0
H637 H 0.49792 0.63569 0.70744 0.0
H638 H 0.51338 0.69045 0.68515 0.0
H639 H 0.52181 0.68436 0.64556 0.0
H640 H 0.53156 0.69037 0.72442 0.0
H641 H 0.46966 0.66242 0.70323 0.0
H642 H 0.44047 0.63975 0.68491 0.0
H643 H 0.43782 0.5982 0.73179 0.0
H644 H 0.46713 0.62051 0.75016 0.0
H645 H 0.51468 0.68129 0.85692 0.0
H646 H 0.50472 0.68559 0.81722 0.0
H647 H 0.51747 0.64629 0.78714 0.0
H648 H 0.52712 0.64166 0.82628 0.0
H649 H 0.47899 0.64843 0.77529 0.0
H650 H 0.55414 0.68415 0.7531 0.0
H651 H 0.58391 0.70563 0.77135 0.0
H652 H 0.55922 0.73182 0.80974 0.0
H653 H 0.52938 0.71065 0.79143 0.0
C654 C 0.50748 0.64276 0.67141 0.0
C655 C 0.51492 0.65654 0.6539 0.0
C656 C 0.50252 0.64621 0.69381 0.0
C657 C 0.50491 0.6635 0.6992 0.0
C658 C 0.51131 0.67697 0.68129 0.0
C659 C 0.51613 0.67347 0.6587 0.0
C660 C 0.50372 0.6681 0.72455 0.0
C661 C 0.51979 0.68165 0.73543 0.0
C662 C 0.48836 0.65679 0.73897 0.0
C663 C 0.47064 0.6432 0.72811 0.0
C664 C 0.46291 0.64843 0.70957 0.0
C665 C 0.44633 0.63564 0.69917 0.0
C666 C 0.43729 0.61755 0.70719 0.0
C667 C 0.44482 0.61222 0.72564 0.0
C668 C 0.4614 0.62496 0.73609 0.0
C669 C 0.51513 0.67339 0.8419 0.0
C670 C 0.52188 0.66126 0.84477 0.0
C671 C 0.50941 0.67586 0.8193 0.0
C672 C 0.5105 0.66631 0.79939 0.0
C673 C 0.51654 0.65374 0.80239 0.0
C674 C 0.52213 0.65119 0.82481 0.0
C675 C 0.50697 0.67013 0.77479 0.0
C676 C 0.49024 0.6579 0.76406 0.0
C677 C 0.5216 0.68275 0.76042 0.0
C678 C 0.53955 0.69576 0.77106 0.0
C679 C 0.55511 0.69456 0.76535 0.0
C680 C 0.57198 0.70666 0.77571 0.0
C681 C 0.57344 0.72006 0.79174 0.0
C682 C 0.55805 0.72141 0.79738 0.0
C683 C 0.54116 0.70934 0.78705 0.0
H684 H 0.58651 0.7294 0.79977 0.0
H685 H 0.42446 0.60766 0.69911 0.0
H686 H 0.86995 0.50191 0.32723 0.0
H687 H 0.86239 0.49723 0.28468 0.0
H688 H 0.83363 0.52717 0.29109 0.0
H689 H 0.84099 0.53174 0.33405 0.0
H690 H 0.82114 0.49571 0.25148 0.0
H691 H 0.87199 0.55361 0.2808 0.0
H692 H 0.8987 0.57103 0.30707 0.0
H693 H 0.92477 0.54328 0.27639 0.0
H694 H 0.89804 0.52545 0.25025 0.0
H695 H 0.84512 0.53329 0.13148 0.0
H696 H 0.8362 0.52614 0.17364 0.0
H697 H 0.87996 0.51454 0.18454 0.0
H698 H 0.88935 0.52242 0.1429 0.0
H699 H 0.882 0.5375 0.21617 0.0
H700 H 0.83291 0.48085 0.18509 0.0
H701 H 0.80611 0.46176 0.15971 0.0
H702 H 0.77678 0.48531 0.1928 0.0
H703 H 0.8035 0.50473 0.21817 0.0
C704 C 0.8614 0.50688 0.3198 0.0
C705 C 0.85636 0.51751 0.33372 0.0
C706 C 0.85697 0.50407 0.29555 0.0
C707 C 0.84767 0.51206 0.28481 0.0
C708 C 0.84074 0.52084 0.29918 0.0
C709 C 0.84503 0.52351 0.32365 0.0
C710 C 0.84938 0.51504 0.25865 0.0
C711 C 0.83433 0.50501 0.2436 0.0
C712 C 0.86667 0.527 0.24859 0.0
C713 C 0.88297 0.53811 0.26375 0.0
C714 C 0.88337 0.55115 0.27978 0.0
C715 C 0.89851 0.56109 0.29463 0.0
C716 C 0.91341 0.55823 0.29344 0.0
C717 C 0.91322 0.54547 0.27731 0.0
C718 C 0.89808 0.53545 0.26247 0.0
C719 C 0.85263 0.52895 0.14285 0.0
C720 C 0.86807 0.52863 0.13407 0.0
C721 C 0.84747 0.52477 0.16689 0.0
C722 C 0.85741 0.5198 0.18228 0.0
C723 C 0.87218 0.51849 0.17307 0.0
C724 C 0.87755 0.52301 0.14928 0.0
C725 C 0.85385 0.51778 0.20846 0.0
C726 C 0.86868 0.52821 0.22373 0.0
C727 C 0.83637 0.50612 0.21849 0.0
C728 C 0.82027 0.49438 0.20334 0.0
C729 C 0.82079 0.48207 0.18682 0.0
C730 C 0.80561 0.47116 0.17246 0.0
C731 C 0.78977 0.47236 0.17459 0.0
C732 C 0.78906 0.48442 0.19115 0.0
C733 C 0.80422 0.49536 0.20553 0.0
H734 H 0.77803 0.46392 0.16346 0.0
H735 H 0.92511 0.56593 0.30497 0.0
H736 H 0.37222 0.88611 0.65963 0.0
H737 H 0.37106 0.87348 0.69918 0.0
H738 H 0.31585 0.83029 0.68585 0.0
H739 H 0.31691 0.84302 0.64592 0.0
H740 H 0.31837 0.84864 0.72633 0.0
H741 H 0.34889 0.8192 0.69574 0.0
H742 H 0.37145 0.81544 0.67214 0.0
H743 H 0.41501 0.85728 0.71381 0.0
H744 H 0.39276 0.86151 0.73745 0.0
H745 H 0.32765 0.84198 0.8517 0.0
H746 H 0.32248 0.83006 0.81064 0.0
H747 H 0.37577 0.8738 0.79018 0.0
H748 H 0.38116 0.88557 0.83095 0.0
H749 H 0.36748 0.84263 0.76644 0.0
H750 H 0.33757 0.87823 0.78536 0.0
H751 H 0.31582 0.88394 0.80797 0.0
H752 H 0.27175 0.83132 0.787 0.0
H753 H 0.29333 0.82524 0.76448 0.0
C754 C 0.35994 0.8737 0.66486 0.0
C755 C 0.34459 0.86567 0.64976 0.0
C756 C 0.35935 0.86637 0.68743 0.0
C757 C 0.34341 0.85084 0.69543 0.0
C758 C 0.32833 0.84222 0.67995 0.0
C759 C 0.32896 0.84949 0.65716 0.0
C760 C 0.34195 0.84557 0.72105 0.0
C761 C 0.32873 0.84666 0.73504 0.0
C762 C 0.35558 0.84319 0.73245 0.0
C763 C 0.3691 0.84067 0.71839 0.0
C764 C 0.36328 0.82768 0.69981 0.0
C765 C 0.37602 0.82545 0.68642 0.0
C766 C 0.39465 0.83611 0.69147 0.0
C767 C 0.40057 0.84901 0.70995 0.0
C768 C 0.38789 0.85129 0.72339 0.0
C769 C 0.33842 0.84882 0.83858 0.0
C770 C 0.35469 0.86493 0.84451 0.0
C771 C 0.33543 0.84199 0.81512 0.0
C772 C 0.34863 0.8512 0.79728 0.0
C773 C 0.36538 0.86646 0.80363 0.0
C774 C 0.36838 0.87328 0.82697 0.0
C775 C 0.3445 0.84666 0.77152 0.0
C776 C 0.35667 0.84377 0.7576 0.0
C777 C 0.32999 0.84752 0.7601 0.0
C778 C 0.31706 0.85119 0.77355 0.0
C779 C 0.32326 0.86784 0.78572 0.0
C780 C 0.31097 0.87115 0.79849 0.0
C781 C 0.29242 0.85797 0.79899 0.0
C782 C 0.28612 0.84149 0.78665 0.0
C783 C 0.29837 0.8381 0.77389 0.0
H784 H 0.28292 0.86055 0.80888 0.0
H785 H 0.40449 0.83438 0.68108 0.0
H786 H 0.49051 0.38054 0.33652 0.0
H787 H 0.49555 0.37755 0.29416 0.0
H788 H 0.48036 0.32121 0.30518 0.0
H789 H 0.47524 0.32405 0.34789 0.0
H790 H 0.51064 0.34777 0.26322 0.0
H791 H 0.44703 0.31797 0.2921 0.0
H792 H 0.42344 0.31745 0.31871 0.0
H793 H 0.43384 0.36898 0.29012 0.0
H794 H 0.4577 0.36991 0.26362 0.0
H795 H 0.47072 0.3238 0.14265 0.0
H796 H 0.47949 0.3236 0.18455 0.0
H797 H 0.47634 0.37221 0.19829 0.0
H798 H 0.46751 0.37246 0.15686 0.0
H799 H 0.45502 0.34446 0.22836 0.0
H800 H 0.51675 0.37374 0.19779 0.0
H801 H 0.54167 0.3762 0.17222 0.0
H802 H 0.53592 0.32711 0.20337 0.0
H803 H 0.51076 0.32423 0.22891 0.0
C804 C 0.48886 0.36768 0.33017 0.0
C805 C 0.48207 0.35241 0.34538 0.0
C806 C 0.49192 0.36605 0.30599 0.0
C807 C 0.48818 0.34914 0.29663 0.0
C808 C 0.48344 0.3344 0.31221 0.0
C809 C 0.48043 0.33604 0.33657 0.0
C810 C 0.48485 0.34606 0.27064 0.0
C811 C 0.49835 0.34662 0.25547 0.0
C812 C 0.46891 0.34486 0.26071 0.0
C813 C 0.45421 0.34407 0.27607 0.0
C814 C 0.44434 0.32923 0.29162 0.0
C815 C 0.43093 0.32886 0.30666 0.0
C816 C 0.42717 0.3432 0.30615 0.0
C817 C 0.43677 0.35789 0.29051 0.0
C818 C 0.45023 0.35834 0.27547 0.0
C819 C 0.47222 0.33462 0.15451 0.0
C820 C 0.46813 0.34799 0.14652 0.0
C821 C 0.47727 0.3345 0.17841 0.0
C822 C 0.47843 0.34782 0.19451 0.0
C823 C 0.47537 0.36172 0.18617 0.0
C824 C 0.47029 0.36182 0.16246 0.0
C825 C 0.48096 0.34648 0.22054 0.0
C826 C 0.46719 0.34514 0.23586 0.0
C827 C 0.49661 0.34691 0.23037 0.0
C828 C 0.51172 0.34864 0.21503 0.0
C829 C 0.52067 0.36337 0.19901 0.0
C830 C 0.53487 0.36487 0.18457 0.0
C831 C 0.54034 0.35179 0.18611 0.0
C832 C 0.53165 0.33721 0.20216 0.0
C833 C 0.51742 0.33565 0.21663 0.0
H834 H 0.55134 0.35297 0.17492 0.0
H835 H 0.4168 0.3429 0.31782 0.0
H836 H 0.16451 0.47395 0.64844 0.0
H837 H 0.17802 0.48451 0.68833 0.0
H838 H 0.13231 0.49099 0.70854 0.0
H839 H 0.11885 0.48059 0.66907 0.0
H840 H 0.16486 0.51815 0.72776 0.0
H841 H 0.13121 0.4508 0.71852 0.0
H842 H 0.12683 0.42237 0.6999 0.0
H843 H 0.18139 0.43641 0.71982 0.0
H844 H 0.18612 0.46503 0.73834 0.0
H845 H 0.12002 0.48527 0.83389 0.0
H846 H 0.13406 0.49493 0.79468 0.0
H847 H 0.17752 0.48522 0.81619 0.0
H848 H 0.16332 0.47532 0.85585 0.0
H849 H 0.16138 0.4672 0.77603 0.0
H850 H 0.1883 0.5285 0.79969 0.0
H851 H 0.19102 0.55588 0.81936 0.0
H852 H 0.14919 0.55367 0.77347 0.0
H853 H 0.14599 0.52611 0.75374 0.0
C854 C 0.15755 0.47799 0.66126 0.0
C855 C 0.14046 0.47615 0.65578 0.0
C856 C 0.1653 0.48403 0.68399 0.0
C857 C 0.1561 0.48841 0.70141 0.0
C858 C 0.13968 0.48774 0.69535 0.0
C859 C 0.1319 0.48161 0.67282 0.0
C860 C 0.16188 0.49134 0.72684 0.0
C861 C 0.16436 0.50717 0.73841 0.0
C862 C 0.16197 0.47729 0.74053 0.0
C863 C 0.15909 0.46011 0.72949 0.0
C864 C 0.14229 0.44786 0.71877 0.0
C865 C 0.13974 0.43172 0.70827 0.0
C866 C 0.15384 0.42762 0.7086 0.0
C867 C 0.1705 0.43963 0.71952 0.0
C868 C 0.17313 0.45581 0.73001 0.0
C869 C 0.13276 0.48551 0.83051 0.0
C870 C 0.14044 0.47932 0.84786 0.0
C871 C 0.14092 0.49126 0.80812 0.0
C872 C 0.15698 0.491 0.80254 0.0
C873 C 0.16522 0.48567 0.82021 0.0
C874 C 0.15709 0.48002 0.84282 0.0
C875 C 0.16313 0.49354 0.77723 0.0
C876 C 0.16288 0.4787 0.76557 0.0
C877 C 0.16505 0.5085 0.76353 0.0
C878 C 0.16693 0.5252 0.77519 0.0
C879 C 0.17961 0.53379 0.79384 0.0
C880 C 0.18124 0.54935 0.80501 0.0
C881 C 0.17029 0.55652 0.79766 0.0
C882 C 0.1577 0.54813 0.77911 0.0
C883 C 0.156 0.53256 0.76787 0.0
H884 H 0.17157 0.56856 0.80634 0.0
H885 H 0.15184 0.41511 0.70047 0.0
H886 H 0.61932 0.1015 0.34813 0.0
H887 H 0.6188 0.1098 0.30641 0.0
H888 H 0.6754 0.15187 0.31134 0.0
H889 H 0.67594 0.14383 0.35357 0.0
H890 H 0.653 0.16019 0.27869 0.0
H891 H 0.6695 0.11432 0.29342 0.0
H892 H 0.66628 0.08645 0.31223 0.0
H893 H 0.6133 0.05454 0.2802 0.0
H894 H 0.61609 0.0823 0.26152 0.0
H895 H 0.66841 0.14754 0.15199 0.0
H896 H 0.67008 0.15435 0.19503 0.0
H897 H 0.61484 0.11002 0.20399 0.0
H898 H 0.61311 0.10306 0.16135 0.0
H899 H 0.64037 0.10597 0.22983 0.0
H900 H 0.62462 0.15264 0.2142 0.0
H901 H 0.62863 0.18084 0.19545 0.0
H902 H 0.68157 0.21168 0.22793 0.0
H903 H 0.67798 0.1836 0.24662 0.0
C904 C 0.63154 0.11283 0.34055 0.0
C905 C 0.64777 0.12178 0.35391 0.0
C906 C 0.6312 0.11762 0.31676 0.0
C907 C 0.64715 0.13122 0.30575 0.0
C908 C 0.66296 0.14133 0.31957 0.0
C909 C 0.66326 0.13667 0.34362 0.0
C910 C 0.64783 0.13251 0.27929 0.0
C911 C 0.65048 0.14847 0.2679 0.0
C912 C 0.64457 0.11719 0.26532 0.0
C913 C 0.64294 0.10041 0.27625 0.0
C914 C 0.65711 0.10138 0.29053 0.0
C915 C 0.65537 0.0856 0.30116 0.0
C916 C 0.63958 0.06874 0.29746 0.0
C917 C 0.62552 0.06761 0.28307 0.0
C918 C 0.62718 0.08336 0.27245 0.0
C919 C 0.65644 0.13963 0.16303 0.0
C920 C 0.64075 0.12454 0.15343 0.0
C921 C 0.65742 0.14356 0.18759 0.0
C922 C 0.64264 0.13255 0.20267 0.0
C923 C 0.62643 0.11858 0.19265 0.0
C924 C 0.62549 0.1146 0.16829 0.0
C925 C 0.64481 0.13341 0.22904 0.0
C926 C 0.64292 0.11779 0.24048 0.0
C927 C 0.64897 0.14911 0.24279 0.0
C928 C 0.65112 0.16598 0.23158 0.0
C929 C 0.6372 0.1654 0.21715 0.0
C930 C 0.63937 0.18137 0.20658 0.0
C931 C 0.65537 0.19803 0.21044 0.0
C932 C 0.6692 0.19876 0.22493 0.0
C933 C 0.66709 0.18283 0.23553 0.0
H934 H 0.65702 0.21039 0.20224 0.0
H935 H 0.63825 0.05653 0.3057 0.0
H936 H 0.19049 0.49185 0.94271 0.0
H937 H 0.21935 0.4986 0.9614 0.0
H938 H 0.19206 0.47993 0.02956 0.0
H939 H 0.1633 0.47377 0.01118 0.0
H940 H 0.22681 0.50702 0.03598 0.0
H941 H 0.19562 0.45035 0.99147 0.0
H942 H 0.18123 0.4314 0.95564 0.0
H943 H 0.23163 0.46112 0.91686 0.0
H944 H 0.24625 0.48042 0.95241 0.0
H945 H 0.27141 0.4632 0.08924 0.0
H946 H 0.25165 0.47382 0.07255 0.0
H947 H 0.28497 0.49212 0.00877 0.0
H948 H 0.30461 0.48126 0.02514 0.0
H949 H 0.25024 0.46954 -0.00171 0.0
H950 H 0.28265 0.52268 0.04718 0.0
H951 H 0.29614 0.53984 0.0845 0.0
H952 H 0.24299 0.5152 0.11689 0.0
H953 H 0.22919 0.49767 0.07988 0.0
C954 C 0.19073 0.48957 0.96179 0.0
C955 C 0.1746 0.48194 0.97541 0.0
C956 C 0.20722 0.49345 0.97244 0.0
C957 C 0.20772 0.48934 0.99672 0.0
C958 C 0.19195 0.48313 0.01077 0.0
C959 C 0.1755 0.47953 0.0002 0.0
C960 C 0.22386 0.48913 0.00666 0.0
C961 C 0.23197 0.49883 0.02782 0.0
C962 C 0.23069 0.47861 0.9958 0.0
C963 C 0.22196 0.46696 0.97448 0.0
C964 C 0.20359 0.45292 0.97525 0.0
C965 C 0.1954 0.44211 0.95501 0.0
C966 C 0.20549 0.44509 0.93397 0.0
C967 C 0.22382 0.45886 0.93315 0.0
C968 C 0.23207 0.46973 0.95334 0.0
C969 C 0.27472 0.46977 0.07184 0.0
C970 C 0.28941 0.47115 0.05835 0.0
C971 C 0.26349 0.47597 0.0624 0.0
C972 C 0.26689 0.48383 0.03945 0.0
C973 C 0.28212 0.48609 0.02652 0.0
C974 C 0.29329 0.47983 0.03588 0.0
C975 C 0.25328 0.48741 0.02772 0.0
C976 C 0.24547 0.47814 0.00625 0.0
C977 C 0.24667 0.49814 0.03852 0.0
C978 C 0.2549 0.50876 0.06077 0.0
C979 C 0.27385 0.52081 0.06231 0.0
C980 C 0.28155 0.53062 0.08341 0.0
C981 C 0.27044 0.52858 0.10307 0.0
C982 C 0.25159 0.51676 0.10164 0.0
C983 C 0.24381 0.50691 0.08059 0.0
H984 H 0.27643 0.53618 0.11939 0.0
H985 H 0.19912 0.43671 0.91831 0.0
H986 H 0.73061 0.18083 0.4138 0.0
H987 H 0.75431 0.20761 0.43464 0.0
H988 H 0.71585 0.20121 0.48985 0.0
H989 H 0.69193 0.17417 0.46921 0.0
H990 H 0.74334 0.2399 0.47475 0.0
H991 H 0.73815 0.18354 0.5036 0.0
H992 H 0.7356 0.15335 0.49843 0.0
H993 H 0.78707 0.1783 0.46155 0.0
H994 H 0.78978 0.20861 0.46616 0.0
H995 H 0.81397 0.29186 0.56104 0.0
H996 H 0.78582 0.26886 0.54143 0.0
H997 H 0.81772 0.25857 0.48989 0.0
H998 H 0.84571 0.28108 0.50959 0.0
H999 H 0.79112 0.22766 0.50625 0.0
H1000 H 0.79664 0.28364 0.47605 0.0
H1001 H 0.79948 0.31407 0.47922 0.0
H1002 H 0.74835 0.29074 0.51678 0.0
H1003 H 0.74533 0.26018 0.51412 0.0
C1004 C 0.72702 0.1853 0.43009 0.0
C1005 C 0.70946 0.1752 0.44006 0.0
C1006 C 0.74059 0.20062 0.44195 0.0
C1007 C 0.73681 0.20619 0.46385 0.0
C1008 C 0.71897 0.19706 0.47294 0.0
C1009 C 0.70537 0.18159 0.46117 0.0
C1010 C 0.75202 0.22003 0.47846 0.0
C1011 C 0.75369 0.23723 0.482 0.0
C1012 C 0.76555 0.21649 0.48755 0.0
C1013 C 0.76408 0.19831 0.48503 0.0
C1014 C 0.74885 0.18256 0.49421 0.0
C1015 C 0.74739 0.16544 0.49142 0.0
C1016 C 0.76114 0.1639 0.47962 0.0
C1017 C 0.77642 0.1795 0.47066 0.0
C1018 C 0.77793 0.19666 0.47338 0.0
C1019 C 0.81495 0.28469 0.54551 0.0
C1020 C 0.83206 0.28824 0.53691 0.0
C1021 C 0.79887 0.27163 0.53426 0.0
C1022 C 0.79968 0.26209 0.51408 0.0
C1023 C 0.81676 0.26572 0.50547 0.0
C1024 C 0.83277 0.27862 0.51676 0.0
C1025 C 0.78285 0.24787 0.5022 0.0
C1026 C 0.78078 0.23045 0.49923 0.0
C1027 C 0.76909 0.25132 0.49355 0.0
C1028 C 0.77087 0.26966 0.49513 0.0
C1029 C 0.78608 0.28502 0.48516 0.0
C1030 C 0.78771 0.30229 0.48683 0.0
C1031 C 0.77413 0.30435 0.49826 0.0
C1032 C 0.75887 0.28913 0.50798 0.0
C1033 C 0.75719 0.27183 0.50638 0.0
H1034 H 0.77541 0.31773 0.49953 0.0
H1035 H 0.75999 0.15063 0.47747 0.0
H1036 H 0.52617 0.81394 0.07237 0.0
H1037 H 0.51503 0.78362 0.05487 0.0
H1038 H 0.52039 0.80626 0.98399 0.0
H1039 H 0.53085 0.83639 0.00135 0.0
H1040 H 0.49152 0.77319 0.98538 0.0
H1041 H 0.55481 0.80087 0.0102 0.0
H1042 H 0.58025 0.81477 0.03917 0.0
H1043 H 0.55422 0.76627 0.08243 0.0
H1044 H 0.52851 0.75217 0.05383 0.0
H1045 H 0.52034 0.72433 0.91097 0.0
H1046 H 0.51381 0.74481 0.93439 0.0
H1047 H 0.50362 0.71094 0.99687 0.0
H1048 H 0.51027 0.69045 0.97364 0.0
H1049 H 0.52982 0.74561 0.0046 0.0
H1050 H 0.46947 0.71595 0.97301 0.0
H1051 H 0.44565 0.70282 0.94182 0.0
H1052 H 0.46753 0.75554 0.90871 0.0
H1053 H 0.49166 0.76896 0.93949 0.0
C1054 C 0.52476 0.8124 0.05307 0.0
C1055 C 0.52968 0.82758 0.0382 0.0
C1056 C 0.51839 0.79507 0.04311 0.0
C1057 C 0.51723 0.79275 0.0181 0.0
C1058 C 0.5212 0.80773 0.00332 0.0
C1059 C 0.52731 0.82498 0.01328 0.0
C1060 C 0.51355 0.77525 0.00711 0.0
C1061 C 0.49988 0.76713 0.98952 0.0
C1062 C 0.5242 0.76713 0.0129 0.0
C1063 C 0.53965 0.77557 0.03006 0.0
C1064 C 0.55446 0.79323 0.02599 0.0
C1065 C 0.56893 0.80113 0.04232 0.0
C1066 C 0.56882 0.79143 0.06267 0.0
C1067 C 0.55426 0.77378 0.06669 0.0
C1068 C 0.53974 0.76583 0.05043 0.0
C1069 C 0.51629 0.72099 0.92954 0.0
C1070 C 0.51612 0.70594 0.94054 0.0
C1071 C 0.51243 0.73265 0.94288 0.0
C1072 C 0.50822 0.72938 0.96737 0.0
C1073 C 0.50685 0.71369 0.97799 0.0
C1074 C 0.51068 0.70202 0.96467 0.0
C1075 C 0.50803 0.7437 0.98248 0.0
C1076 C 0.52108 0.75131 0.00082 0.0
C1077 C 0.49699 0.75144 0.97707 0.0
C1078 C 0.48246 0.74344 0.95852 0.0
C1079 C 0.4693 0.72473 0.95899 0.0
C1080 C 0.45572 0.71724 0.94139 0.0
C1081 C 0.45509 0.72834 0.92328 0.0
C1082 C 0.46803 0.74696 0.92276 0.0
C1083 C 0.48165 0.75452 0.9403 0.0
H1084 H 0.44457 0.72251 0.90967 0.0
H1085 H 0.58003 0.79757 0.07529 0.0
H1086 H 0.68984 0.52047 0.50283 0.0
H1087 H 0.7127 0.51387 0.48636 0.0
H1088 H 0.72968 0.50989 0.558 0.0
H1089 H 0.70711 0.51682 0.5746 0.0
H1090 H 0.75776 0.53325 0.53207 0.0
H1091 H 0.70867 0.4723 0.52106 0.0
H1092 H 0.67827 0.44808 0.50782 0.0
H1093 H 0.69266 0.46474 0.43458 0.0
H1094 H 0.72307 0.48924 0.44739 0.0
H1095 H 0.82571 0.51471 0.49196 0.0
H1096 H 0.79701 0.50861 0.51051 0.0
H1097 H 0.77832 0.51747 0.44256 0.0
H1098 H 0.80693 0.52349 0.42378 0.0
H1099 H 0.75053 0.48885 0.4687 0.0
H1100 H 0.7976 0.55171 0.48027 0.0
H1101 H 0.82789 0.57645 0.49306 0.0
H1102 H 0.81669 0.55623 0.56532 0.0
H1103 H 0.78641 0.5312 0.55287 0.0
C1104 C 0.6982 0.51785 0.51509 0.0
C1105 C 0.69682 0.51939 0.54001 0.0
C1106 C 0.7112 0.51397 0.50565 0.0
C1107 C 0.72288 0.51135 0.52097 0.0
C1108 C 0.72084 0.51192 0.54587 0.0
C1109 C 0.70793 0.51588 0.55531 0.0
C1110 C 0.73851 0.51015 0.51108 0.0
C1111 C 0.75611 0.52324 0.51862 0.0
C1112 C 0.7364 0.49745 0.49302 0.0
C1113 C 0.71812 0.48271 0.48522 0.0
C1114 C 0.70531 0.4709 0.50214 0.0
C1115 C 0.68808 0.4571 0.49471 0.0
C1116 C 0.68352 0.45489 0.47038 0.0
C1117 C 0.6962 0.46647 0.45342 0.0
C1118 C 0.71345 0.4803 0.46076 0.0
C1119 C 0.81542 0.51513 0.48087 0.0
C1120 C 0.8187 0.51985 0.45648 0.0
C1121 C 0.79903 0.51162 0.4915 0.0
C1122 C 0.78568 0.51281 0.47793 0.0
C1123 C 0.78848 0.51649 0.45331 0.0
C1124 C 0.80488 0.52004 0.44266 0.0
C1125 C 0.7696 0.5119 0.48979 0.0
C1126 C 0.75203 0.49857 0.48249 0.0
C1127 C 0.77166 0.52441 0.50806 0.0
C1128 C 0.78984 0.53947 0.51558 0.0
C1129 C 0.80166 0.55245 0.49884 0.0
C1130 C 0.81881 0.56654 0.50604 0.0
C1131 C 0.82423 0.56788 0.52997 0.0
C1132 C 0.81249 0.55516 0.54678 0.0
C1133 C 0.79533 0.54102 0.53966 0.0
H1134 H 0.83751 0.5788 0.53551 0.0
H1135 H 0.67018 0.4442 0.46466 0.0
H1136 H 0.26877 0.82554 0.91672 0.0
H1137 H 0.24379 0.79998 0.93782 0.0
H1138 H 0.28246 0.79114 0.9775 0.0
H1139 H 0.30772 0.81692 0.95657 0.0
H1140 H 0.24886 0.75781 0.96067 0.0
H1141 H 0.26865 0.81329 0.00553 0.0
H1142 H 0.27746 0.84568 0.01048 0.0
H1143 H 0.22443 0.83383 0.98625 0.0
H1144 H 0.21541 0.8014 0.98078 0.0
H1145 H 0.18083 0.70418 0.04915 0.0
H1146 H 0.20944 0.72598 0.02932 0.0
H1147 H 0.18175 0.75074 0.99404 0.0
H1148 H 0.15342 0.72945 0.0141 0.0
H1149 H 0.21272 0.77605 0.01212 0.0
H1150 H 0.19318 0.72152 0.9647 0.0
H1151 H 0.18393 0.68918 0.95792 0.0
H1152 H 0.23548 0.69886 0.98534 0.0
H1153 H 0.24494 0.73123 0.99257 0.0
C1154 C 0.27201 0.81802 0.92965 0.0
C1155 C 0.29023 0.82339 0.93519 0.0
C1156 C 0.25771 0.80342 0.94167 0.0
C1157 C 0.26136 0.79387 0.95933 0.0
C1158 C 0.27945 0.79842 0.96392 0.0
C1159 C 0.29382 0.81317 0.95201 0.0
C1160 C 0.24626 0.78025 0.97427 0.0
C1161 C 0.24109 0.76174 0.97226 0.0
C1162 C 0.23609 0.78549 0.98907 0.0
C1163 C 0.24141 0.80495 0.99255 0.0
C1164 C 0.25892 0.81762 0.00107 0.0
C1165 C 0.26395 0.83598 0.004 0.0
C1166 C 0.25153 0.84182 -0.00137 0.0
C1167 C 0.23404 0.82929 0.99038 0.0
C1168 C 0.22896 0.81092 0.98738 0.0
C1169 C 0.18087 0.71427 0.03714 0.0
C1170 C 0.16489 0.71514 0.03324 0.0
C1171 C 0.1972 0.72665 0.02575 0.0
C1172 C 0.19769 0.73991 0.01008 0.0
C1173 C 0.18171 0.74068 0.00612 0.0
C1174 C 0.16549 0.72846 0.0176 0.0
C1175 C 0.21485 0.7534 0.9981 0.0
C1176 C 0.22052 0.772 0.00076 0.0
C1177 C 0.22534 0.74818 0.9838 0.0
C1178 C 0.21968 0.72874 0.97944 0.0
C1179 C 0.20248 0.71672 0.96947 0.0
C1180 C 0.19721 0.69839 0.96551 0.0
C1181 C 0.20908 0.69195 0.97128 0.0
C1182 C 0.22628 0.70386 0.98094 0.0
C1183 C 0.23161 0.72219 0.98496 0.0
H1184 H 0.20498 0.67776 0.96819 0.0
H1185 H 0.25544 0.85604 0.00092 0.0
H1186 H 0.47223 0.20014 0.58729 0.0
H1187 H 0.47786 0.22673 0.56362 0.0
H1188 H 0.49455 0.20626 0.50362 0.0
H1189 H 0.48862 0.17939 0.52702 0.0
H1190 H 0.5043 0.25482 0.53665 0.0
H1191 H 0.47195 0.20882 0.4549 0.0
H1192 H 0.4527 0.1761 0.44491 0.0
H1193 H 0.42743 0.16592 0.51431 0.0
H1194 H 0.44634 0.1986 0.52454 0.0
H1195 H 0.49183 0.30889 0.44599 0.0
H1196 H 0.50118 0.28884 0.46552 0.0
H1197 H 0.44537 0.25249 0.48687 0.0
H1198 H 0.43593 0.2721 0.46718 0.0
H1199 H 0.46008 0.23378 0.4692 0.0
H1200 H 0.47779 0.28379 0.52575 0.0
H1201 H 0.49478 0.31618 0.53807 0.0
H1202 H 0.54554 0.31811 0.52309 0.0
H1203 H 0.52883 0.28579 0.51038 0.0
C1204 C 0.47752 0.20148 0.56926 0.0
C1205 C 0.47953 0.18743 0.55881 0.0
C1206 C 0.48087 0.21678 0.5558 0.0
C1207 C 0.48629 0.21827 0.53175 0.0
C1208 C 0.49012 0.20521 0.52207 0.0
C1209 C 0.48668 0.18985 0.53546 0.0
C1210 C 0.48489 0.23162 0.51601 0.0
C1211 C 0.49485 0.2503 0.52167 0.0
C1212 C 0.47238 0.22567 0.49667 0.0
C1213 C 0.46071 0.20607 0.49056 0.0
C1214 C 0.46224 0.19958 0.46797 0.0
C1215 C 0.4514 0.18106 0.46228 0.0
C1216 C 0.4389 0.16893 0.479 0.0
C1217 C 0.43715 0.17532 0.5014 0.0
C1218 C 0.44794 0.19383 0.50716 0.0
C1219 C 0.48157 0.29658 0.45481 0.0
C1220 C 0.46313 0.29206 0.45504 0.0
C1221 C 0.48695 0.2852 0.46601 0.0
C1222 C 0.47398 0.26923 0.47773 0.0
C1223 C 0.4556 0.2647 0.47783 0.0
C1224 C 0.45022 0.27597 0.4666 0.0
C1225 C 0.47921 0.25701 0.49006 0.0
C1226 C 0.46995 0.23846 0.48372 0.0
C1227 C 0.49206 0.26309 0.50904 0.0
C1228 C 0.50206 0.28246 0.51685 0.0
C1229 C 0.49257 0.29117 0.52492 0.0
C1230 C 0.50215 0.3095 0.53199 0.0
C1231 C 0.52123 0.31921 0.53128 0.0
C1232 C 0.53077 0.31059 0.52358 0.0
C1233 C 0.52125 0.29227 0.51644 0.0
H1234 H 0.52863 0.3334 0.53677 0.0
H1235 H 0.43054 0.15459 0.47457 0.0
H1236 H 0.79878 0.52432 0.08335 0.0
H1237 H 0.76802 0.51348 0.06832 0.0
H1238 H 0.78016 0.4917 0.0054 0.0
H1239 H 0.81119 0.50288 0.02013 0.0
H1240 H 0.76949 0.515 0.99372 0.0
H1241 H 0.74618 0.46335 0.04495 0.0
H1242 H 0.7421 0.4465 0.08264 0.0
H1243 H 0.71882 0.476 0.11596 0.0
H1244 H 0.723 0.49324 0.07859 0.0
H1245 H 0.68907 0.50528 0.94616 0.0
H1246 H 0.70828 0.4936 0.96185 0.0
H1247 H 0.70777 0.51541 0.03167 0.0
H1248 H 0.68797 0.52646 0.01632 0.0
H1249 H 0.70991 0.48486 0.03609 0.0
H1250 H 0.7407 0.54114 0.98997 0.0
H1251 H 0.7462 0.5601 0.95389 0.0
H1252 H 0.75687 0.5234 0.91288 0.0
H1253 H 0.75121 0.5041 0.9487 0.0
C1254 C 0.79481 0.51687 0.06656 0.0
C1255 C 0.80752 0.51476 0.0527 0.0
C1256 C 0.77712 0.5105 0.0581 0.0
C1257 C 0.77175 0.50172 0.03576 0.0
C1258 C 0.78402 0.49844 0.02269 0.0
C1259 C 0.80176 0.50488 0.03111 0.0
C1260 C 0.7547 0.49891 0.02444 0.0
C1261 C 0.75633 0.50789 0.00265 0.0
C1262 C 0.73766 0.4901 0.03642 0.0
C1263 C 0.73498 0.47966 0.05894 0.0
C1264 C 0.7403 0.46634 0.06035 0.0
C1265 C 0.73795 0.4567 0.08166 0.0
C1266 C 0.73023 0.46019 0.10169 0.0
C1267 C 0.72479 0.4733 0.10043 0.0
C1268 C 0.72711 0.48299 0.07916 0.0
C1269 C 0.69274 0.50722 0.96499 0.0
C1270 C 0.68737 0.5171 0.97994 0.0
C1271 C 0.70367 0.50052 0.97392 0.0
C1272 C 0.7098 0.50404 0.99776 0.0
C1273 C 0.70324 0.5126 0.01319 0.0
C1274 C 0.69201 0.519 0.00437 0.0
C1275 C 0.72493 0.50124 0.00574 0.0
C1276 C 0.72296 0.49139 0.02687 0.0
C1277 C 0.74182 0.50945 0.99338 0.0
C1278 C 0.74531 0.52108 0.97189 0.0
C1279 C 0.7441 0.53706 0.97321 0.0
C1280 C 0.74726 0.54787 0.95282 0.0
C1281 C 0.75182 0.54292 0.93109 0.0
C1282 C 0.75329 0.52719 0.92972 0.0
C1283 C 0.75011 0.51631 0.95005 0.0
H1284 H 0.75426 0.55131 0.91532 0.0
H1285 H 0.72843 0.45272 0.11818 0.0
H1286 H 0.15966 0.72823 0.44956 0.0
H1287 H 0.188 0.75174 0.46728 0.0
H1288 H 0.21154 0.71696 0.45971 0.0
H1289 H 0.18284 0.693 0.44208 0.0
H1290 H 0.21894 0.73369 0.50363 0.0
H1291 H 0.22551 0.75254 0.42252 0.0
H1292 H 0.21634 0.75928 0.3836 0.0
H1293 H 0.20935 0.80137 0.41644 0.0
H1294 H 0.21821 0.79471 0.45564 0.0
H1295 H 0.3016 0.81669 0.54156 0.0
H1296 H 0.28087 0.78929 0.51838 0.0
H1297 H 0.24074 0.80658 0.51735 0.0
H1298 H 0.26111 0.83373 0.54033 0.0
H1299 H 0.2476 0.79708 0.47235 0.0
H1300 H 0.23577 0.77357 0.5544 0.0
H1301 H 0.24482 0.7665 0.5932 0.0
H1302 H 0.26266 0.73313 0.55741 0.0
H1303 H 0.25391 0.74022 0.51835 0.0
C1304 C 0.17083 0.72552 0.45156 0.0
C1305 C 0.16903 0.70877 0.44428 0.0
C1306 C 0.18708 0.73903 0.46161 0.0
C1307 C 0.20198 0.73622 0.46441 0.0
C1308 C 0.20022 0.71942 0.45753 0.0
C1309 C 0.18385 0.7058 0.44744 0.0
C1310 C 0.21914 0.75091 0.47499 0.0
C1311 C 0.22552 0.74748 0.4965 0.0
C1312 C 0.22771 0.76889 0.46566 0.0
C1313 C 0.22247 0.77307 0.44206 0.0
C1314 C 0.22192 0.76316 0.42148 0.0
C1315 C 0.21678 0.76698 0.39936 0.0
C1316 C 0.21225 0.78073 0.39755 0.0
C1317 C 0.21287 0.79072 0.41786 0.0
C1318 C 0.21799 0.78696 0.44003 0.0
C1319 C 0.28831 0.81456 0.53648 0.0
C1320 C 0.28301 0.8274 0.54271 0.0
C1321 C 0.27651 0.79893 0.52328 0.0
C1322 C 0.25934 0.796 0.51612 0.0
C1323 C 0.254 0.80868 0.52259 0.0
C1324 C 0.26566 0.82416 0.53582 0.0
C1325 C 0.24676 0.77998 0.50151 0.0
C1326 C 0.24132 0.7832 0.47915 0.0
C1327 C 0.2392 0.76185 0.50999 0.0
C1328 C 0.24442 0.75762 0.53345 0.0
C1329 C 0.24178 0.76487 0.55479 0.0
C1330 C 0.24682 0.76083 0.57683 0.0
C1331 C 0.25438 0.74943 0.57777 0.0
C1332 C 0.25685 0.742 0.55666 0.0
C1333 C 0.25185 0.74602 0.53457 0.0
H1334 H 0.25826 0.74631 0.59485 0.0
H1335 H 0.20827 0.78366 0.38041 0.0
H1336 H 0.48643 0.18115 0.95465 0.0
H1337 H 0.49762 0.20972 0.97712 0.0
H1338 H 0.44986 0.21228 0.95579 0.0
H1339 H 0.43907 0.18436 0.93264 0.0
H1340 H 0.4774 0.24497 0.95678 0.0
H1341 H 0.45311 0.19227 0.01074 0.0
H1342 H 0.45272 0.1653 0.02845 0.0
H1343 H 0.50818 0.19893 0.05186 0.0
H1344 H 0.50893 0.22607 0.03407 0.0
H1345 H 0.44878 0.26474 0.07543 0.0
H1346 H 0.45738 0.24562 0.05266 0.0
H1347 H 0.50076 0.29355 0.01849 0.0
H1348 H 0.49167 0.31277 0.04058 0.0
H1349 H 0.48444 0.24 0.04433 0.0
H1350 H 0.50235 0.28401 0.95994 0.0
H1351 H 0.49787 0.3083 0.94233 0.0
H1352 H 0.44724 0.28786 0.98052 0.0
H1353 H 0.45136 0.26335 0.99811 0.0
C1354 C 0.47849 0.18801 0.95446 0.0
C1355 C 0.46176 0.18042 0.94212 0.0
C1356 C 0.48488 0.20429 0.96736 0.0
C1357 C 0.47442 0.21297 0.96851 0.0
C1358 C 0.4582 0.20586 0.95517 0.0
C1359 C 0.45198 0.18981 0.94201 0.0
C1360 C 0.47927 0.22855 0.98496 0.0
C1361 C 0.47925 0.24402 0.97587 0.0
C1362 C 0.48168 0.22734 0.0099 0.0
C1363 C 0.48114 0.21112 0.02086 0.0
C1364 C 0.46523 0.19387 0.01959 0.0
C1365 C 0.46495 0.17857 0.02963 0.0
C1366 C 0.48044 0.18039 0.0412 0.0
C1367 C 0.49621 0.19754 0.04285 0.0
C1368 C 0.49657 0.21288 0.0328 0.0
C1369 C 0.46038 0.27128 0.06344 0.0
C1370 C 0.46928 0.29021 0.05937 0.0
C1371 C 0.46536 0.26032 0.05049 0.0
C1372 C 0.47946 0.26811 0.03346 0.0
C1373 C 0.48957 0.28721 0.03114 0.0
C1374 C 0.48438 0.29817 0.04379 0.0
C1375 C 0.48171 0.25598 0.01624 0.0
C1376 C 0.48321 0.24125 0.02515 0.0
C1377 C 0.48002 0.25752 0.99119 0.0
C1378 C 0.4773 0.27205 0.98055 0.0
C1379 C 0.49027 0.28471 0.96452 0.0
C1380 C 0.48778 0.2985 0.95455 0.0
C1381 C 0.47232 0.29967 0.96038 0.0
C1382 C 0.45925 0.28699 0.97609 0.0
C1383 C 0.46165 0.27315 0.98607 0.0
H1384 H 0.47043 0.31037 0.95267 0.0
H1385 H 0.48021 0.16853 0.04894 0.0
H1386 H 0.1822 0.49027 0.53214 0.0
H1387 H 0.21045 0.50017 0.50972 0.0
H1388 H 0.23062 0.48014 0.56628 0.0
H1389 H 0.20258 0.47049 0.58902 0.0
H1390 H 0.25822 0.51142 0.54544 0.0
H1391 H 0.20735 0.45266 0.52004 0.0
H1392 H 0.17612 0.43254 0.50489 0.0
H1393 H 0.18833 0.46586 0.44186 0.0
H1394 H 0.21959 0.4863 0.45681 0.0
H1395 H 0.31035 0.47661 0.49378 0.0
H1396 H 0.29 0.48474 0.51433 0.0
H1397 H 0.27564 0.49891 0.44659 0.0
H1398 H 0.29559 0.49017 0.42577 0.0
H1399 H 0.24643 0.47672 0.46943 0.0
H1400 H 0.29982 0.53172 0.49126 0.0
H1401 H 0.33113 0.55129 0.50641 0.0
H1402 H 0.31501 0.52573 0.57551 0.0
H1403 H 0.28366 0.5058 0.56071 0.0
C1404 C 0.19278 0.48828 0.54002 0.0
C1405 C 0.19002 0.47927 0.56215 0.0
C1406 C 0.20892 0.49398 0.5272 0.0
C1407 C 0.22246 0.4906 0.53617 0.0
C1408 C 0.22031 0.48284 0.55903 0.0
C1409 C 0.20422 0.47723 0.57193 0.0
C1410 C 0.23772 0.49295 0.52073 0.0
C1411 C 0.25573 0.50388 0.5288 0.0
C1412 C 0.23442 0.48347 0.49872 0.0
C1413 C 0.2157 0.47111 0.48966 0.0
C1414 C 0.20332 0.45575 0.50303 0.0
C1415 C 0.18563 0.44429 0.49447 0.0
C1416 C 0.18022 0.44795 0.47247 0.0
C1417 C 0.19252 0.46306 0.45893 0.0
C1418 C 0.21023 0.47458 0.46743 0.0
C1419 C 0.3031 0.48174 0.48327 0.0
C1420 C 0.30441 0.48256 0.45813 0.0
C1421 C 0.29158 0.48656 0.49509 0.0
C1422 C 0.2814 0.49263 0.48205 0.0
C1423 C 0.28337 0.49428 0.45702 0.0
C1424 C 0.29474 0.48926 0.44515 0.0
C1425 C 0.26711 0.49496 0.49426 0.0
C1426 C 0.24915 0.48476 0.48567 0.0
C1427 C 0.27054 0.50514 0.51573 0.0
C1428 C 0.28938 0.51718 0.52481 0.0
C1429 C 0.30297 0.53017 0.50965 0.0
C1430 C 0.32073 0.54135 0.51818 0.0
C1431 C 0.32506 0.53974 0.5419 0.0
C1432 C 0.31163 0.52697 0.55714 0.0
C1433 C 0.29385 0.51575 0.5487 0.0
H1434 H 0.33882 0.5484 0.54846 0.0
H1435 H 0.16652 0.43907 0.46587 0.0
H1436 H 0.82762 0.2585 0.97623 0.0
H1437 H 0.79806 0.24077 0.99581 0.0
H1438 H 0.78514 0.28299 0.97988 0.0
H1439 H 0.81489 0.30099 0.96022 0.0
H1440 H 0.77584 0.26947 0.02678 0.0
H1441 H 0.76564 0.24641 0.9468 0.0
H1442 H 0.77231 0.23465 0.90996 0.0
H1443 H 0.76721 0.18848 0.94888 0.0
H1444 H 0.76077 0.20009 0.98603 0.0
H1445 H 0.68124 0.17648 0.03536 0.0
H1446 H 0.70386 0.20344 0.01364 0.0
H1447 H 0.74167 0.217 0.07243 0.0
H1448 H 0.71907 0.19022 0.0944 0.0
H1449 H 0.73454 0.20603 -0.00114 0.0
H1450 H 0.77321 0.26202 0.07176 0.0
H1451 H 0.76591 0.27422 0.10764 0.0
H1452 H 0.71179 0.25542 0.08078 0.0
H1453 H 0.71883 0.24334 0.04458 0.0
C1454 C 0.81855 0.26407 0.97688 0.0
C1455 C 0.82355 0.2811 0.96654 0.0
C1456 C 0.80164 0.2539 0.98804 0.0
C1457 C 0.78938 0.26051 0.98904 0.0
C1458 C 0.79443 0.27767 0.97921 0.0
C1459 C 0.81137 0.28787 0.96792 0.0
C1460 C 0.77122 0.24917 9e-05 0.0
C1461 C 0.76668 0.25564 0.02064 0.0
C1462 C 0.75913 0.23134 0.99161 0.0
C1463 C 0.76281 0.22418 0.96923 0.0
C1464 C 0.76605 0.23381 0.94754 0.0
C1465 C 0.76978 0.22716 0.92659 0.0
C1466 C 0.77021 0.21084 0.92709 0.0
C1467 C 0.76687 0.20112 0.94852 0.0
C1468 C 0.76315 0.20771 0.96952 0.0
C1469 C 0.6942 0.18544 0.04394 0.0
C1470 C 0.69849 0.18105 0.06645 0.0
C1471 C 0.7071 0.20086 0.03149 0.0
C1472 C 0.72446 0.21219 0.04136 0.0
C1473 C 0.72829 0.20857 0.06456 0.0
C1474 C 0.71538 0.19318 0.07706 0.0
C1475 C 0.73938 0.226 0.02622 0.0
C1476 C 0.74341 0.21997 0.00484 0.0
C1477 C 0.75082 0.24426 0.03384 0.0
C1478 C 0.74653 0.25166 0.05549 0.0
C1479 C 0.75978 0.26057 0.07343 0.0
C1480 C 0.75568 0.26745 0.09385 0.0
C1481 C 0.73838 0.26556 0.09652 0.0
C1482 C 0.72516 0.25682 0.07874 0.0
C1483 C 0.72919 0.24993 0.05828 0.0
H1484 H 0.73523 0.27088 0.11234 0.0
H1485 H 0.7731 0.20572 0.91085 0.0
H1486 H 0.51001 0.81833 0.47607 0.0
H1487 H 0.50035 0.78834 0.49362 0.0
H1488 H 0.52068 0.77362 0.43156 0.0
H1489 H 0.53017 0.80344 0.41373 0.0
H1490 H 0.48935 0.74396 0.45045 0.0
H1491 H 0.54828 0.79285 0.47791 0.0
H1492 H 0.56878 0.82294 0.49611 0.0
H1493 H 0.5368 0.80635 0.56066 0.0
H1494 H 0.51597 0.77623 0.54268 0.0
H1495 H 0.52287 0.68708 0.49191 0.0
H1496 H 0.5155 0.70908 0.47443 0.0
H1497 H 0.50158 0.72005 0.54459 0.0
H1498 H 0.50949 0.69847 0.56228 0.0
H1499 H 0.52474 0.75032 0.52436 0.0
H1500 H 0.46894 0.69894 0.49915 0.0
H1501 H 0.44892 0.66883 0.48078 0.0
H1502 H 0.47451 0.68925 0.41248 0.0
H1503 H 0.49488 0.71942 0.43049 0.0
C1504 C 0.51208 0.80857 0.46592 0.0
C1505 C 0.52119 0.81338 0.44372 0.0
C1506 C 0.50652 0.79144 0.47596 0.0
C1507 C 0.51009 0.77892 0.46404 0.0
C1508 C 0.51784 0.78313 0.44105 0.0
C1509 C 0.52337 0.80023 0.43097 0.0
C1510 C 0.50808 0.76262 0.47665 0.0
C1511 C 0.49705 0.74525 0.46661 0.0
C1512 C 0.51787 0.76437 0.49799 0.0
C1513 C 0.53046 0.7824 0.50886 0.0
C1514 C 0.54555 0.79568 0.49592 0.0
C1515 C 0.55724 0.81272 0.5062 0.0
C1516 C 0.55406 0.81657 0.5295 0.0
C1517 C 0.53922 0.80336 0.54259 0.0
C1518 C 0.52748 0.78631 0.53237 0.0
C1519 C 0.51793 0.69394 0.50356 0.0
C1520 C 0.51697 0.69122 0.52849 0.0
C1521 C 0.51358 0.70642 0.49352 0.0
C1522 C 0.50786 0.71615 0.50818 0.0
C1523 C 0.50599 0.71272 0.53294 0.0
C1524 C 0.51054 0.70041 0.54302 0.0
C1525 C 0.50607 0.73144 0.49814 0.0
C1526 C 0.51658 0.74877 0.50857 0.0
C1527 C 0.49579 0.72956 0.4772 0.0
C1528 C 0.48353 0.71143 0.46623 0.0
C1529 C 0.4704 0.69698 0.48025 0.0
C1530 C 0.45897 0.6799 0.46989 0.0
C1531 C 0.46046 0.67712 0.44548 0.0
C1532 C 0.47337 0.69143 0.43138 0.0
C1533 C 0.48484 0.70853 0.44165 0.0
H1534 H 0.4516 0.66389 0.4375 0.0
H1535 H 0.56313 0.82977 0.53743 0.0
H1536 H 0.31535 0.39466 0.01357 0.0
H1537 H 0.32758 0.37589 0.997 0.0
H1538 H 0.37888 0.41038 0.03269 0.0
H1539 H 0.36691 0.429 0.04877 0.0
H1540 H 0.38369 0.40066 0.98721 0.0
H1541 H 0.34601 0.37161 0.0594 0.0
H1542 H 0.31661 0.35695 0.08104 0.0
H1543 H 0.29231 0.31702 0.02495 0.0
H1544 H 0.32157 0.33159 0.00288 0.0
H1545 H 0.42985 0.36817 0.05063 0.0
H1546 H 0.41106 0.37933 0.03292 0.0
H1547 H 0.37829 0.32746 0.99753 0.0
H1548 H 0.39735 0.31609 0.01564 0.0
H1549 H 0.35791 0.33918 0.02393 0.0
H1550 H 0.40153 0.36317 0.96217 0.0
H1551 H 0.43215 0.37805 0.94383 0.0
H1552 H 0.44634 0.42784 0.98126 0.0
H1553 H 0.41593 0.41322 0.00013 0.0
C1554 C 0.3293 0.39827 0.01757 0.0
C1555 C 0.34005 0.41295 0.033 0.0
C1556 C 0.33624 0.38759 0.00811 0.0
C1557 C 0.3541 0.39171 0.01375 0.0
C1558 C 0.36507 0.40696 0.02811 0.0
C1559 C 0.3581 0.41742 0.03768 0.0
C1560 C 0.36122 0.37949 0.007 0.0
C1561 C 0.37797 0.38709 0.99485 0.0
C1562 C 0.35335 0.36151 0.01615 0.0
C1563 C 0.33584 0.3528 0.02938 0.0
C1564 C 0.33435 0.35978 0.05163 0.0
C1565 C 0.31773 0.35148 0.06397 0.0
C1566 C 0.30258 0.3361 0.05433 0.0
C1567 C 0.30404 0.32896 0.03236 0.0
C1568 C 0.32062 0.33723 0.01993 0.0
C1569 C 0.41867 0.3591 0.03915 0.0
C1570 C 0.41478 0.34117 0.03492 0.0
C1571 C 0.4081 0.3656 0.02866 0.0
C1572 C 0.39339 0.35429 0.0137 0.0
C1573 C 0.38969 0.33644 0.00887 0.0
C1574 C 0.40053 0.32999 0.01919 0.0
C1575 C 0.38104 0.36091 0.00566 0.0
C1576 C 0.36326 0.35229 0.01502 0.0
C1577 C 0.38805 0.37802 0.99408 0.0
C1578 C 0.40636 0.38707 0.98254 0.0
C1579 C 0.41119 0.37728 0.96657 0.0
C1580 C 0.42852 0.38567 0.95607 0.0
C1581 C 0.44118 0.40388 0.96135 0.0
C1582 C 0.43651 0.41374 0.97713 0.0
C1583 C 0.41919 0.40542 0.98768 0.0
H1584 H 0.4546 0.41034 0.95323 0.0
H1585 H 0.28972 0.32969 0.06391 0.0
H1586 H 0.08505 0.43627 0.52066 0.0
H1587 H 0.05264 0.42511 0.51179 0.0
H1588 H 0.03752 0.39448 0.57792 0.0
H1589 H 0.06964 0.40605 0.58715 0.0
H1590 H 0.02051 0.39274 0.50688 0.0
H1591 H 0.00874 0.4015 0.60803 0.0
H1592 H 0.02637 0.42141 0.64179 0.0
H1593 H 0.06148 0.46332 0.59239 0.0
H1594 H 0.044 0.44374 0.55835 0.0
H1595 H 0.9291 0.33723 0.54083 0.0
H1596 H 0.96167 0.35446 0.53158 0.0
H1597 H 0.96353 0.40421 0.55474 0.0
H1598 H 0.9312 0.38662 0.56557 0.0
H1599 H 0.98903 0.40395 0.57428 0.0
H1600 H 0.97146 0.3951 0.49346 0.0
H1601 H 0.95491 0.37917 0.45675 0.0
H1602 H 0.97911 0.34502 0.45948 0.0
H1603 H 0.99561 0.36053 0.49642 0.0
C1604 C 0.07472 0.42683 0.53296 0.0
C1605 C 0.07974 0.42213 0.5547 0.0
C1606 C 0.05626 0.4205 0.52791 0.0
C1607 C 0.04275 0.40933 0.54448 0.0
C1608 C 0.04777 0.40344 0.56516 0.0
C1609 C 0.0661 0.40999 0.57038 0.0
C1610 C 0.02355 0.40492 0.54168 0.0
C1611 C 0.01354 0.39524 0.52145 0.0
C1612 C 0.01474 0.40908 0.56016 0.0
C1613 C 0.02508 0.42109 0.58063 0.0
C1614 C 0.02015 0.415 0.60437 0.0
C1615 C 0.03016 0.42622 0.62356 0.0
C1616 C 0.04508 0.44359 0.61923 0.0
C1617 C 0.04998 0.44982 0.59571 0.0
C1618 C 0.04004 0.43866 0.57647 0.0
C1619 C 0.93648 0.35189 0.54356 0.0
C1620 C 0.92785 0.36062 0.5542 0.0
C1621 C 0.95507 0.36181 0.53804 0.0
C1622 C 0.96519 0.38076 0.54223 0.0
C1623 C 0.95615 0.38961 0.55151 0.0
C1624 C 0.9377 0.37958 0.55775 0.0
C1625 C 0.98545 0.39078 0.53991 0.0
C1626 C 0.9958 0.40164 0.5593 0.0
C1627 C 0.99458 0.38836 0.5201 0.0
C1628 C 0.98472 0.37895 0.49782 0.0
C1629 C 0.97317 0.38411 0.48634 0.0
C1630 C 0.96381 0.37516 0.46546 0.0
C1631 C 0.96594 0.36108 0.4558 0.0
C1632 C 0.97747 0.35593 0.46698 0.0
C1633 C 0.98687 0.36483 0.48787 0.0
H1634 H 0.95867 0.35417 0.43964 0.0
H1635 H 0.05282 0.45224 0.63411 0.0
H1636 H 0.60165 0.92234 0.02641 0.0
H1637 H 0.6162 0.95312 0.0086 0.0
H1638 H 0.58395 0.96702 0.0547 0.0
H1639 H 0.56949 0.93663 0.07217 0.0
H1640 H 0.58657 0.97968 0.00746 0.0
H1641 H 0.62621 0.97741 0.07142 0.0
H1642 H 0.64551 0.96578 0.08807 0.0
H1643 H 0.67841 0.98258 0.02431 0.0
H1644 H 0.65915 0.99413 0.00721 0.0
H1645 H 0.61893 0.06138 0.0631 0.0
H1646 H 0.60832 0.03097 0.04749 0.0
H1647 H 0.65776 0.051 0.00593 0.0
H1648 H 0.66879 0.08184 0.02239 0.0
H1649 H 0.65089 0.02126 0.03155 0.0
H1650 H 0.61717 0.0343 0.97636 0.0
H1651 H 0.59825 0.04688 0.96155 0.0
H1652 H 0.55429 0.01043 0.00752 0.0
H1653 H 0.573 0.9978 0.02292 0.0
C1654 C 0.59763 0.93199 0.03254 0.0
C1655 C 0.5848 0.9273 0.05113 0.0
C1656 C 0.6059 0.94949 0.02235 0.0
C1657 C 0.60116 0.96232 0.03041 0.0
C1658 C 0.58778 0.95731 0.04821 0.0
C1659 C 0.57974 0.94001 0.05852 0.0
C1660 C 0.61095 0.98153 0.02222 0.0
C1661 C 0.6007 0.98883 0.01236 0.0
C1662 C 0.6296 0.99328 0.02762 0.0
C1663 C 0.64114 0.98639 0.03794 0.0
C1664 C 0.63749 0.97849 0.06091 0.0
C1665 C 0.64842 0.97194 0.07043 0.0
C1666 C 0.66314 0.97338 0.05722 0.0
C1667 C 0.66698 0.98143 0.03449 0.0
C1668 C 0.65606 0.98798 0.02488 0.0
C1669 C 0.62763 0.0594 0.0508 0.0
C1670 C 0.64488 0.07386 0.04449 0.0
C1671 C 0.62137 0.04202 0.04141 0.0
C1672 C 0.63214 0.03872 0.02528 0.0
C1673 C 0.64918 0.05329 0.01823 0.0
C1674 C 0.65544 0.07084 0.0276 0.0
C1675 C 0.62612 0.01959 0.01839 0.0
C1676 C 0.63705 0.01222 0.02538 0.0
C1677 C 0.60809 0.00778 0.01024 0.0
C1678 C 0.59653 0.01506 0.00076 0.0
C1679 C 0.60348 0.02899 0.98338 0.0
C1680 C 0.59279 0.03615 0.97488 0.0
C1681 C 0.57508 0.02946 0.98358 0.0
C1682 C 0.568 0.01557 0.00076 0.0
C1683 C 0.57864 0.00836 0.00932 0.0
H1684 H 0.56682 0.03503 0.97702 0.0
H1685 H 0.67159 0.96831 0.06462 0.0
H1686 H 0.64555 0.58088 0.59739 0.0
H1687 H 0.62719 0.59377 0.58331 0.0
H1688 H 0.6406 0.58896 0.51008 0.0
H1689 H 0.65875 0.5753 0.52408 0.0
H1690 H 0.64297 0.62524 0.52775 0.0
H1691 H 0.60274 0.56161 0.51818 0.0
H1692 H 0.58803 0.52901 0.52909 0.0
H1693 H 0.56437 0.53893 0.59132 0.0
H1694 H 0.57939 0.5717 0.58128 0.0
H1695 H 0.57382 0.65284 0.52026 0.0
H1696 H 0.58999 0.63655 0.50883 0.0
H1697 H 0.58691 0.61863 0.58195 0.0
H1698 H 0.57134 0.63504 0.59355 0.0
H1699 H 0.57696 0.5905 0.54777 0.0
H1700 H 0.62478 0.65417 0.56277 0.0
H1701 H 0.64064 0.68722 0.55408 0.0
H1702 H 0.64979 0.67676 0.48148 0.0
H1703 H 0.63378 0.6436 0.48972 0.0
C1704 C 0.64455 0.58238 0.57828 0.0
C1705 C 0.65331 0.57671 0.56184 0.0
C1706 C 0.63412 0.58986 0.57027 0.0
C1707 C 0.6324 0.59205 0.5457 0.0
C1708 C 0.64175 0.58723 0.52913 0.0
C1709 C 0.65208 0.57947 0.53716 0.0
C1710 C 0.62038 0.59912 0.53808 0.0
C1711 C 0.6284 0.61751 0.53125 0.0
C1712 C 0.60144 0.58897 0.54283 0.0
C1713 C 0.59226 0.56919 0.54897 0.0
C1714 C 0.59454 0.5569 0.53432 0.0
C1715 C 0.58612 0.53837 0.54032 0.0
C1716 C 0.57521 0.5319 0.5608 0.0
C1717 C 0.57279 0.54396 0.57541 0.0
C1718 C 0.58126 0.56252 0.56958 0.0
C1719 C 0.57658 0.64539 0.53386 0.0
C1720 C 0.57111 0.64507 0.55779 0.0
C1721 C 0.58576 0.63607 0.52728 0.0
C1722 C 0.58946 0.62626 0.54452 0.0
C1723 C 0.58394 0.62591 0.56831 0.0
C1724 C 0.57501 0.63532 0.57492 0.0
C1725 C 0.59972 0.61683 0.5386 0.0
C1726 C 0.59133 0.598 0.54307 0.0
C1727 C 0.61829 0.62656 0.53163 0.0
C1728 C 0.62788 0.64644 0.52675 0.0
C1729 C 0.63004 0.65892 0.5449 0.0
C1730 C 0.63908 0.67766 0.54008 0.0
C1731 C 0.64616 0.68408 0.51721 0.0
C1732 C 0.64426 0.67177 0.49916 0.0
C1733 C 0.63521 0.653 0.5039 0.0
H1734 H 0.65316 0.6986 0.51351 0.0
H1735 H 0.56862 0.51754 0.56535 0.0
H1736 H 0.91781 0.60031 0.02162 0.0
H1737 H 0.95097 0.6167 0.0148 0.0
H1738 H 0.95011 0.56526 0.01175 0.0
H1739 H 0.917 0.54893 0.01797 0.0
H1740 H 0.96947 0.59075 0.05191 0.0
H1741 H 0.96459 0.58804 0.96576 0.0
H1742 H 0.95429 0.59306 0.92661 0.0
H1743 H 0.98226 0.6509 0.93965 0.0
H1744 H 0.99251 0.6462 0.97907 0.0
H1745 H 0.06246 0.62281 0.05658 0.0
H1746 H 0.03086 0.60647 0.04284 0.0
H1747 H 0.03508 0.6576 0.02158 0.0
H1748 H 0.06727 0.67388 0.03408 0.0
H1749 H 0.01376 0.63241 0.99144 0.0
H1750 H 0.01643 0.63681 0.07685 0.0
H1751 H 0.02592 0.63394 0.11768 0.0
H1752 H 0.00066 0.57581 0.10871 0.0
H1753 H 0.99124 0.57836 0.06768 0.0
C1754 C 0.92464 0.59257 0.01824 0.0
C1755 C 0.91505 0.57346 0.02009 0.0
C1756 C 0.94351 0.60189 0.01441 0.0
C1757 C 0.95289 0.59214 0.01277 0.0
C1758 C 0.94304 0.57297 0.01276 0.0
C1759 C 0.92418 0.56367 0.0163 0.0
C1760 C 0.97285 0.60172 0.01626 0.0
C1761 C 0.97921 0.59959 0.03853 0.0
C1762 C 0.98532 0.6139 -0.00082 0.0
C1763 C 0.97916 0.61674 0.97549 0.0
C1764 C 0.96839 0.60181 0.96041 0.0
C1765 C 0.9626 0.60461 0.93813 0.0
C1766 C 0.96757 0.62229 0.93067 0.0
C1767 C 0.9784 0.63721 0.94546 0.0
C1768 C 0.98422 0.63449 0.96776 0.0
C1769 C 0.05665 0.63053 0.04891 0.0
C1770 C 0.06705 0.64959 0.04685 0.0
C1771 C 0.03861 0.62121 0.04103 0.0
C1772 C 0.0304 0.63085 0.03186 0.0
C1773 C 0.04106 0.64987 0.02876 0.0
C1774 C 0.05936 0.65916 0.03601 0.0
C1775 C 0.01047 0.62117 0.02703 0.0
C1776 C 0.00406 0.62343 0.00474 0.0
C1777 C -0.00223 0.60942 0.04436 0.0
C1778 C 0.00329 0.60781 0.06911 0.0
C1779 C 0.013 0.62343 0.08353 0.0
C1780 C 0.01836 0.62186 0.10671 0.0
C1781 C 0.01394 0.60471 0.11576 0.0
C1782 C 0.0041 0.58908 0.10166 0.0
C1783 C -0.00126 0.59058 0.07845 0.0
H1784 H 0.0181 0.60352 0.13371 0.0
H1785 H 0.96308 0.62442 0.91342 0.0
H1786 H 0.41174 0.06618 0.58536 0.0
H1787 H 0.39617 0.03459 0.57183 0.0
H1788 H 0.40582 0.05246 0.49819 0.0
H1789 H 0.42219 0.08454 0.51168 0.0
H1790 H 0.36573 0.0198 0.51888 0.0
H1791 H 0.42818 0.03799 0.50321 0.0
H1792 H 0.46138 0.0534 0.51051 0.0
H1793 H 0.45212 0.02334 0.57602 0.0
H1794 H 0.41886 0.00803 0.56941 0.0
H1795 H 0.33556 0.92108 0.51619 0.0
H1796 H 0.35094 0.95308 0.50264 0.0
H1797 H 0.37058 0.97095 0.57452 0.0
H1798 H 0.35502 0.93945 0.58824 0.0
H1799 H 0.39801 0.98573 0.53716 0.0
H1800 H 0.33641 0.97424 0.55706 0.0
H1801 H 0.30305 0.95841 0.55106 0.0
H1802 H 0.3109 0.97556 0.47742 0.0
H1803 H 0.34434 0.9913 0.48295 0.0
C1804 C 0.4107 0.06351 0.56627 0.0
C1805 C 0.41854 0.07787 0.5496 0.0
C1806 C 0.40167 0.04544 0.55858 0.0
C1807 C 0.40007 0.0413 0.53408 0.0
C1808 C 0.40705 0.05549 0.5172 0.0
C1809 C 0.41635 0.07374 0.52493 0.0
C1810 C 0.39164 0.02195 0.52702 0.0
C1811 C 0.37288 0.01231 0.52195 0.0
C1812 C 0.401 0.01229 0.5313 0.0
C1813 C 0.42099 0.0219 0.53583 0.0
C1814 C 0.4332 0.03483 0.51933 0.0
C1815 C 0.45204 0.04351 0.52331 0.0
C1816 C 0.45884 0.03928 0.54366 0.0
C1817 C 0.44683 0.02654 0.56022 0.0
C1818 C 0.42798 0.01786 0.55636 0.0
C1819 C 0.34309 0.93187 0.52909 0.0
C1820 C 0.34434 0.92771 0.55323 0.0
C1821 C 0.35186 0.95008 0.5213 0.0
C1822 C 0.36204 0.96427 0.53756 0.0
C1823 C 0.36298 0.96013 0.56166 0.0
C1824 C 0.35411 0.94208 0.56946 0.0
C1825 C 0.372 0.98361 0.53008 0.0
C1826 C 0.39103 0.99319 0.53275 0.0
C1827 C 0.36288 0.99315 0.52356 0.0
C1828 C 0.34283 0.9837 0.52031 0.0
C1829 C 0.33101 0.97447 0.53953 0.0
C1830 C 0.31209 0.96556 0.53623 0.0
C1831 C 0.30485 0.96591 0.51385 0.0
C1832 C 0.31652 0.97524 0.49473 0.0
C1833 C 0.33545 0.98416 0.49794 0.0
H1834 H 0.2902 0.95901 0.51133 0.0
H1835 H 0.47343 0.04584 0.54657 0.0
H1836 H 0.57211 0.65848 0.98638 0.0
H1837 H 0.58841 0.64272 -0.00023 0.0
H1838 H 0.59675 0.63326 0.92605 0.0
H1839 H 0.58117 0.64924 0.91263 0.0
H1840 H 0.58023 0.60122 0.95711 0.0
H1841 H 0.6306 0.6649 0.95323 0.0
H1842 H 0.64628 0.6971 0.96635 0.0
H1843 H 0.64743 0.68044 0.03878 0.0
H1844 H 0.63153 0.6481 0.02609 0.0
H1845 H 0.64998 0.58944 0.91832 0.0
H1846 H 0.63256 0.60398 0.92998 0.0
H1847 H 0.63728 0.59322 0.00442 0.0
H1848 H 0.65458 0.57805 0.99279 0.0
H1849 H 0.64354 0.63174 0.98888 0.0
H1850 H 0.59969 0.5681 0.98948 0.0
H1851 H 0.58426 0.5362 0.97525 0.0
H1852 H 0.57043 0.55248 0.90922 0.0
H1853 H 0.58601 0.58453 0.92289 0.0
C1854 C 0.57756 0.65315 0.97308 0.0
C1855 C 0.57505 0.65481 0.94843 0.0
C1856 C 0.58682 0.64416 0.98076 0.0
C1857 C 0.59353 0.63668 0.96385 0.0
C1858 C 0.59143 0.63875 0.93934 0.0
C1859 C 0.58243 0.64784 0.93171 0.0
C1860 C 0.60248 0.62624 0.97102 0.0
C1861 C 0.59397 0.60778 0.96439 0.0
C1862 C 0.62013 0.63471 0.98126 0.0
C1863 C 0.62965 0.6541 0.9888 0.0
C1864 C 0.63403 0.6681 0.972 0.0
C1865 C 0.64299 0.68637 0.97934 0.0
C1866 C 0.64778 0.69081 0.0034 0.0
C1867 C 0.64366 0.67698 0.02016 0.0
C1868 C 0.63468 0.65869 0.0129 0.0
C1869 C 0.64735 0.59009 0.93719 0.0
C1870 C 0.65335 0.58228 0.9546 0.0
C1871 C 0.63747 0.5985 0.94382 0.0
C1872 C 0.6335 0.59944 0.96798 0.0
C1873 C 0.64021 0.59252 0.98566 0.0
C1874 C 0.65005 0.5839 0.97899 0.0
C1875 C 0.62156 0.60698 0.97387 0.0
C1876 C 0.62948 0.62489 0.98274 0.0
C1877 C 0.60329 0.598 0.96572 0.0
C1878 C 0.59407 0.57875 0.95723 0.0
C1879 C 0.5935 0.56492 0.97184 0.0
C1880 C 0.5847 0.54679 0.96389 0.0
C1881 C 0.57635 0.54232 0.94136 0.0
C1882 C 0.57686 0.55597 0.92669 0.0
C1883 C 0.58565 0.57411 0.93456 0.0
H1884 H 0.56944 0.52827 0.93527 0.0
H1885 H 0.65473 0.70497 0.00905 0.0
H1886 H 0.93113 0.56893 0.40015 0.0
H1887 H 0.96236 0.58231 0.4143 0.0
H1888 H 0.94548 0.58775 0.48533 0.0
H1889 H 0.91363 0.57362 0.47138 0.0
H1890 H 0.97828 0.62058 0.46363 0.0
H1891 H 0.95685 0.55901 0.48478 0.0
H1892 H 0.93947 0.52554 0.47986 0.0
H1893 H 0.97173 0.52966 0.41819 0.0
H1894 H 0.9891 0.56319 0.42245 0.0
H1895 H 0.0758 0.65138 0.47071 0.0
H1896 H 0.04376 0.63549 0.48387 0.0
H1897 H 0.02714 0.6104 0.41415 0.0
H1898 H 0.05868 0.62641 0.40076 0.0
H1899 H 0.01077 0.58574 0.45301 0.0
H1900 H 0.02414 0.64669 0.42584 0.0
H1901 H 0.04068 0.68034 0.4286 0.0
H1902 H 0.02315 0.677 0.50164 0.0
H1903 H 0.00668 0.64328 0.49936 0.0
C1904 C 0.93386 0.57264 0.41887 0.0
C1905 C 0.9198 0.56986 0.43473 0.0
C1906 C 0.95178 0.58039 0.42691 0.0
C1907 C 0.95611 0.58576 0.45089 0.0
C1908 C 0.94229 0.58352 0.46678 0.0
C1909 C 0.92417 0.57547 0.45878 0.0
C1910 C 0.97534 0.59397 0.45849 0.0
C1911 C 0.98539 0.6129 0.46223 0.0
C1912 C 0.98451 0.58389 0.45652 0.0
C1913 C 0.97428 0.56367 0.45394 0.0
C1914 C 0.96018 0.5528 0.47007 0.0
C1915 C 0.95033 0.5338 0.46741 0.0
C1916 C 0.95449 0.52548 0.44872 0.0
C1917 C 0.96854 0.53613 0.43268 0.0
C1918 C 0.97842 0.55514 0.43524 0.0
C1919 C 0.06529 0.64243 0.45824 0.0
C1920 C 0.06982 0.64 0.43475 0.0
C1921 C 0.04705 0.63336 0.46581 0.0
C1922 C 0.03317 0.62166 0.45002 0.0
C1923 C 0.03771 0.61917 0.4267 0.0
C1924 C 0.05579 0.62835 0.41907 0.0
C1925 C 0.01369 0.61243 0.45686 0.0
C1926 C 0.00364 0.59329 0.45569 0.0
C1927 C 0.00454 0.62231 0.46122 0.0
C1928 C 0.01443 0.64252 0.46255 0.0
C1929 C 0.02397 0.65314 0.44255 0.0
C1930 C 0.03329 0.67222 0.44401 0.0
C1931 C 0.03303 0.6808 0.46532 0.0
C1932 C 0.02339 0.67033 0.48518 0.0
C1933 C 0.01406 0.65124 0.48381 0.0
H1934 H 0.04024 0.69557 0.46641 0.0
H1935 H 0.94684 0.51077 0.44669 0.0
H1936 H 0.39707 0.06147 0.91712 0.0
H1937 H 0.38446 0.03001 0.93086 0.0
H1938 H 0.41234 0.04937 -0.00148 0.0
H1939 H 0.42478 0.08112 0.98495 0.0
H1940 H 0.41935 0.02383 0.97393 0.0
H1941 H 0.36899 0.02816 0.0022 0.0
H1942 H 0.34478 0.03632 0.0011 0.0
H1943 H 0.31961 0.00012 0.94144 0.0
H1944 H 0.34382 0.99194 0.94192 0.0
H1945 H 0.34608 0.91835 0.981 0.0
H1946 H 0.35802 0.94978 0.99508 0.0
H1947 H 0.39231 0.96993 0.93236 0.0
H1948 H 0.38038 0.93877 0.9181 0.0
H1949 H 0.35398 0.97573 0.97113 0.0
H1950 H 0.43082 0.00819 0.94522 0.0
H1951 H 0.45509 0.00011 0.94679 0.0
H1952 H 0.42745 0.96296 0.00472 0.0
H1953 H 0.40306 0.97085 0.00363 0.0
C1954 C 0.40021 0.05904 0.9351 0.0
C1955 C 0.41186 0.07366 0.94999 0.0
C1956 C 0.39296 0.04108 0.94296 0.0
C1957 C 0.39741 0.03742 0.96573 0.0
C1958 C 0.40868 0.05199 0.98095 0.0
C1959 C 0.41569 0.07005 0.97323 0.0
C1960 C 0.39161 0.01832 0.97218 0.0
C1961 C 0.40506 0.01328 0.97377 0.0
C1962 C 0.37296 0.00469 0.97246 0.0
C1963 C 0.35828 0.00947 0.97208 0.0
C1964 C 0.35836 0.02202 0.98874 0.0
C1965 C 0.34462 0.02664 0.98824 0.0
C1966 C 0.33067 0.01875 0.97121 0.0
C1967 C 0.33042 0.00621 0.95464 0.0
C1968 C 0.34413 0.00155 0.95505 0.0
C1969 C 0.35639 0.92947 0.9704 0.0
C1970 C 0.36227 0.92605 0.94839 0.0
C1971 C 0.36318 0.9474 0.97849 0.0
C1972 C 0.37617 0.96215 0.96489 0.0
C1973 C 0.38253 0.95872 0.94336 0.0
C1974 C 0.37563 0.94086 0.93516 0.0
C1975 C 0.38175 0.9812 0.9715 0.0
C1976 C 0.36826 0.98624 0.97217 0.0
C1977 C 0.40036 0.99482 0.97342 0.0
C1978 C 0.41506 0.99008 0.97427 0.0
C1979 C 0.42996 0.99836 0.95839 0.0
C1980 C 0.44371 0.99377 0.95914 0.0
C1981 C 0.44277 0.98097 0.97579 0.0
C1982 C 0.42809 0.97277 0.99174 0.0
C1983 C 0.41428 0.97727 0.99102 0.0
H1984 H 0.45343 0.97743 0.97637 0.0
H1985 H 0.32005 0.02234 0.97085 0.0
H1986 H 0.32059 0.40688 0.45231 0.0
H1987 H 0.33232 0.3864 0.46324 0.0
H1988 H 0.3783 0.41644 0.41606 0.0
H1989 H 0.36679 0.4365 0.40525 0.0
H1990 H 0.36197 0.38045 0.4077 0.0
H1991 H 0.38183 0.42131 0.47717 0.0
H1992 H 0.3765 0.43501 0.51315 0.0
H1993 H 0.34415 0.38169 0.54411 0.0
H1994 H 0.34912 0.36766 0.50815 0.0
H1995 H 0.43939 0.37821 0.43049 0.0
H1996 H 0.41761 0.38871 0.43676 0.0
H1997 H 0.37944 0.33671 0.46809 0.0
H1998 H 0.40139 0.32598 0.46156 0.0
H1999 H 0.3834 0.37464 0.48834 0.0
H2000 H 0.36837 0.33481 0.41889 0.0
H2001 H 0.37696 0.32351 0.38323 0.0
H2002 H 0.40223 0.37715 0.35211 0.0
H2003 H 0.39403 0.38883 0.38778 0.0
C2004 C 0.33324 0.40909 0.44441 0.0
C2005 C 0.34253 0.42306 0.42742 0.0
C2006 C 0.33991 0.39742 0.45068 0.0
C2007 C 0.35607 0.39979 0.44023 0.0
C2008 C 0.36562 0.41415 0.424 0.0
C2009 C 0.35893 0.4256 0.41767 0.0
C2010 C 0.36319 0.38728 0.44517 0.0
C2011 C 0.36643 0.37901 0.4254 0.0
C2012 C 0.36859 0.38498 0.46834 0.0
C2013 C 0.36563 0.39343 0.48987 0.0
C2014 C 0.37344 0.4125 0.49156 0.0
C2015 C 0.37052 0.42033 0.51197 0.0
C2016 C 0.35993 0.40922 0.53087 0.0
C2017 C 0.3523 0.39027 0.52943 0.0
C2018 C 0.35517 0.38238 0.50906 0.0
C2019 C 0.42646 0.36906 0.4389 0.0
C2020 C 0.42179 0.35113 0.44487 0.0
C2021 C 0.41414 0.37516 0.4428 0.0
C2022 C 0.39691 0.36339 0.45263 0.0
C2023 C 0.39274 0.34596 0.46055 0.0
C2024 C 0.40521 0.33986 0.45675 0.0
C2025 C 0.38272 0.3686 0.45071 0.0
C2026 C 0.37821 0.37547 0.47087 0.0
C2027 C 0.37619 0.36979 0.42786 0.0
C2028 C 0.38064 0.36269 0.40604 0.0
C2029 C 0.37583 0.3442 0.40449 0.0
C2030 C 0.38063 0.33773 0.38428 0.0
C2031 C 0.39016 0.34961 0.36543 0.0
C2032 C 0.39484 0.36797 0.36672 0.0
C2033 C 0.39009 0.37451 0.38691 0.0
H2034 H 0.39388 0.34458 0.34981 0.0
H2035 H 0.35769 0.4153 0.54665 0.0
H2036 H 0.08163 0.42223 0.98414 0.0
H2037 H 0.04924 0.40481 0.99579 0.0
H2038 H 0.03358 0.4027 0.92176 0.0
H2039 H 0.06549 0.41943 0.90996 0.0
H2040 H 0.01572 0.41476 0.95471 0.0
H2041 H 0.03215 0.36695 0.94446 0.0
H2042 H 0.04963 0.35175 0.95512 0.0
H2043 H 0.03004 0.34498 0.02756 0.0
H2044 H 0.01262 0.36037 0.01736 0.0
H2045 H 0.93533 0.34596 0.91141 0.0
H2046 H 0.96721 0.36384 0.9232 0.0
H2047 H 0.95199 0.35237 0.99766 0.0
H2048 H 0.9196 0.33452 0.98596 0.0
H2049 H 0.98494 0.3497 0.97979 0.0
H2050 H 0.96266 0.39119 0.98682 0.0
H2051 H 0.94469 0.40565 0.97518 0.0
H2052 H 0.9751 0.42448 0.90957 0.0
H2053 H 0.99312 0.40995 0.92068 0.0
C2054 C 0.07125 0.41799 0.97038 0.0
C2055 C 0.07613 0.42247 0.94615 0.0
C2056 C 0.05281 0.40809 0.97708 0.0
C2057 C 0.03911 0.40269 0.95963 0.0
C2058 C 0.04399 0.40698 0.9355 0.0
C2059 C 0.06228 0.41661 0.92881 0.0
C2060 C 0.01952 0.39249 0.96586 0.0
C2061 C 0.00898 0.40061 0.96049 0.0
C2062 C 0.01085 0.37424 0.97419 0.0
C2063 C 0.02132 0.36503 0.98025 0.0
C2064 C 0.03173 0.36238 0.96271 0.0
C2065 C 0.04159 0.3537 0.96866 0.0
C2066 C 0.04101 0.34747 0.99203 0.0
C2067 C 0.03052 0.34986 0.00949 0.0
C2068 C 0.02065 0.35856 0.00364 0.0
C2069 C 0.93865 0.34721 0.93032 0.0
C2070 C 0.92491 0.33913 0.94778 0.0
C2071 C 0.9569 0.35737 0.93701 0.0
C2072 C 0.96184 0.35957 0.96127 0.0
C2073 C 0.94833 0.35083 0.97884 0.0
C2074 C 0.92991 0.34069 0.97213 0.0
C2075 C 0.9812 0.37179 0.96756 0.0
C2076 C 0.99169 0.36409 0.97511 0.0
C2077 C 0.98989 0.3905 0.96136 0.0
C2078 C 0.97922 0.39943 0.95459 0.0
C2079 C 0.96544 0.39832 0.96984 0.0
C2080 C 0.95526 0.40655 0.96334 0.0
C2081 C 0.95874 0.41597 0.94163 0.0
C2082 C 0.97243 0.4172 0.92639 0.0
C2083 C 0.98267 0.40901 0.93282 0.0
H2084 H 0.95085 0.42234 0.93663 0.0
H2085 H 0.04864 0.34074 0.99659 0.0
H2086 H 0.59711 0.93341 0.43792 0.0
H2087 H 0.6133 0.96451 0.45368 0.0
H2088 H 0.58028 0.94668 0.5177 0.0
H2089 H 0.56426 0.9151 0.50218 0.0
H2090 H 0.58179 0.97783 0.48973 0.0
H2091 H 0.62006 0.96107 0.53028 0.0
H2092 H 0.63837 0.94604 0.53601 0.0
H2093 H 0.67491 0.97897 0.48004 0.0
H2094 H 0.65667 0.99401 0.47369 0.0
H2095 H 0.66103 0.07866 0.49578 0.0
H2096 H 0.6458 0.04806 0.51409 0.0
H2097 H 0.62532 0.02396 0.44471 0.0
H2098 H 0.6409 0.05403 0.42626 0.0
H2099 H 0.64926 0.0148 0.49713 0.0
H2100 H 0.57857 0.99604 0.45636 0.0
H2101 H 0.56095 0.0115 0.44829 0.0
H2102 H 0.58943 0.04986 0.50481 0.0
H2103 H 0.60684 0.03432 0.51376 0.0
C2104 C 0.59349 0.93604 0.45552 0.0
C2105 C 0.57948 0.92193 0.46886 0.0
C2106 C 0.60279 0.95377 0.46455 0.0
C2107 C 0.59805 0.9578 0.4869 0.0
C2108 C 0.5842 0.94372 0.50051 0.0
C2109 C 0.57513 0.92577 0.49167 0.0
C2110 C 0.60671 0.97714 0.49434 0.0
C2111 C 0.59647 0.98596 0.49208 0.0
C2112 C 0.62581 0.98759 0.49781 0.0
C2113 C 0.63696 0.97868 0.50152 0.0
C2114 C 0.63194 0.96504 0.51909 0.0
C2115 C 0.64232 0.95653 0.52246 0.0
C2116 C 0.6578 0.96155 0.5084 0.0
C2117 C 0.66293 0.97511 0.49095 0.0
C2118 C 0.6526 0.98367 0.48749 0.0
C2119 C 0.65338 0.0668 0.48444 0.0
C2120 C 0.65189 0.06879 0.4596 0.0
C2121 C 0.64469 0.04941 0.49494 0.0
C2122 C 0.63423 0.03391 0.48074 0.0
C2123 C 0.6331 0.03586 0.45597 0.0
C2124 C 0.64195 0.05309 0.44547 0.0
C2125 C 0.62443 0.01537 0.49104 0.0
C2126 C 0.63448 0.00671 0.4962 0.0
C2127 C 0.60515 0.00507 0.49031 0.0
C2128 C 0.59408 0.01399 0.4857 0.0
C2129 C 0.58093 0.00762 0.4673 0.0
C2130 C 0.57098 0.01642 0.46256 0.0
C2131 C 0.57405 0.03164 0.47606 0.0
C2132 C 0.58703 0.03804 0.49442 0.0
C2133 C 0.59694 0.02924 0.49933 0.0
H2134 H 0.56638 0.03848 0.47231 0.0
H2135 H 0.66581 0.95494 0.51104 0.0
H2136 H 0.5064 0.59072 0.93242 0.0
H2137 H 0.47919 0.56553 0.95038 0.0
H2138 H 0.45799 0.60165 0.96476 0.0
H2139 H 0.48559 0.62717 0.94752 0.0
H2140 H 0.45259 0.58135 0.00187 0.0
H2141 H 0.44038 0.56891 0.91897 0.0
H2142 H 0.44618 0.56452 0.87684 0.0
H2143 H 0.45205 0.51869 0.89712 0.0
H2144 H 0.44653 0.52296 0.93945 0.0
H2145 H 0.36581 0.50244 0.03253 0.0
H2146 H 0.3883 0.52919 0.00986 0.0
H2147 H 0.42406 0.50656 0.00722 0.0
H2148 H 0.40191 0.48002 0.03017 0.0
H2149 H 0.41858 0.5209 0.96186 0.0
H2150 H 0.43367 0.53689 0.04611 0.0
H2151 H 0.42638 0.5415 0.08745 0.0
H2152 H 0.41269 0.58122 0.06238 0.0
H2153 H 0.41965 0.57664 0.02082 0.0
C2154 C 0.49592 0.59332 0.93928 0.0
C2155 C 0.49814 0.61094 0.93846 0.0
C2156 C 0.4803 0.57886 0.94943 0.0
C2157 C 0.46634 0.58159 0.9585 0.0
C2158 C 0.46853 0.59919 0.95779 0.0
C2159 C 0.48431 0.61375 0.94792 0.0
C2160 C 0.44985 0.56616 0.96951 0.0
C2161 C 0.44494 0.56826 0.99287 0.0
C2162 C 0.43986 0.549 0.95789 0.0
C2163 C 0.44317 0.54635 0.93243 0.0
C2164 C 0.44303 0.55798 0.91448 0.0
C2165 C 0.44625 0.5555 0.89056 0.0
C2166 C 0.44951 0.54136 0.88432 0.0
C2167 C 0.44953 0.52965 0.90199 0.0
C2168 C 0.44633 0.53207 0.92595 0.0
C2169 C 0.37843 0.50314 0.027 0.0
C2170 C 0.38216 0.4892 0.03321 0.0
C2171 C 0.39123 0.51841 0.01412 0.0
C2172 C 0.40778 0.51978 0.00696 0.0
C2173 C 0.41133 0.50568 0.0126 0.0
C2174 C 0.39871 0.49061 0.02581 0.0
C2175 C 0.42176 0.53611 0.99418 0.0
C2176 C 0.42612 0.53413 0.97055 0.0
C2177 C 0.43102 0.55343 0.00536 0.0
C2178 C 0.42696 0.55625 0.03034 0.0
C2179 C 0.42894 0.54648 0.04939 0.0
C2180 C 0.4249 0.54911 0.07286 0.0
C2181 C 0.41902 0.5616 0.07753 0.0
C2182 C 0.41721 0.57152 0.05873 0.0
C2183 C 0.42121 0.56892 0.03522 0.0
H2184 H 0.4159 0.56362 0.09571 0.0
H2185 H 0.452 0.53946 0.86578 0.0
H2186 H 0.86423 0.36393 0.52046 0.0
H2187 H 0.85716 0.38264 0.49373 0.0
H2188 H 0.87412 0.42399 0.54858 0.0
H2189 H 0.88164 0.40565 0.57512 0.0
H2190 H 0.8404 0.41558 0.51898 0.0
H2191 H 0.90485 0.43105 0.51394 0.0
H2192 H 0.92831 0.42227 0.50739 0.0
H2193 H 0.90586 0.40107 0.43785 0.0
H2194 H 0.88208 0.40947 0.44419 0.0
H2195 H 0.86835 0.50131 0.46665 0.0
H2196 H 0.86289 0.47425 0.48916 0.0
H2197 H 0.87012 0.45052 0.4243 0.0
H2198 H 0.87709 0.47832 0.40232 0.0
H2199 H 0.88738 0.44545 0.45559 0.0
H2200 H 0.82657 0.43443 0.45564 0.0
H2201 H 0.80165 0.44132 0.46068 0.0
H2202 H 0.8137 0.45092 0.53585 0.0
H2203 H 0.83887 0.44435 0.53121 0.0
C2204 C 0.86609 0.37684 0.52696 0.0
C2205 C 0.87366 0.38347 0.54972 0.0
C2206 C 0.86202 0.38746 0.51173 0.0
C2207 C 0.86514 0.40463 0.51929 0.0
C2208 C 0.87154 0.41071 0.54256 0.0
C2209 C 0.87597 0.4003 0.55758 0.0
C2210 C 0.8641 0.41735 0.50212 0.0
C2211 C 0.85059 0.42218 0.50505 0.0
C2212 C 0.8771 0.42541 0.48359 0.0
C2213 C 0.89159 0.42068 0.47965 0.0
C2214 C 0.90484 0.42438 0.49734 0.0
C2215 C 0.9182 0.4195 0.49366 0.0
C2216 C 0.91854 0.41106 0.47225 0.0
C2217 C 0.90556 0.40756 0.45444 0.0
C2218 C 0.89214 0.41239 0.45807 0.0
C2219 C 0.86858 0.4902 0.45725 0.0
C2220 C 0.87317 0.49181 0.43287 0.0
C2221 C 0.86527 0.47463 0.47004 0.0
C2222 C 0.86573 0.46007 0.45842 0.0
C2223 C 0.86971 0.46152 0.43376 0.0
C2224 C 0.87365 0.47736 0.42118 0.0
C2225 C 0.86368 0.44412 0.47234 0.0
C2226 C 0.87676 0.43869 0.46898 0.0
C2227 C 0.84997 0.43523 0.49007 0.0
C2228 C 0.8347 0.439 0.49303 0.0
C2229 C 0.82398 0.43811 0.47322 0.0
C2230 C 0.8098 0.44195 0.47601 0.0
C2231 C 0.80612 0.44659 0.49856 0.0
C2232 C 0.81657 0.44733 0.51839 0.0
C2233 C 0.83078 0.44352 0.5157 0.0
H2234 H 0.79515 0.44957 0.50068 0.0
H2235 H 0.92889 0.40728 0.46943 0.0
H2236 H 0.37499 0.86746 0.97854 0.0
H2237 H 0.39584 0.86296 0.00456 0.0
H2238 H 0.43646 0.88324 0.9486 0.0
H2239 H 0.41597 0.88826 0.92277 0.0
H2240 H 0.43018 0.84934 0.97878 0.0
H2241 H 0.44221 0.91316 0.98269 0.0
H2242 H 0.43133 0.93497 0.98977 0.0
H2243 H 0.41275 0.91242 0.06 0.0
H2244 H 0.42328 0.89029 0.05314 0.0
H2245 H 0.51722 0.88055 0.02717 0.0
H2246 H 0.48962 0.8746 0.00577 0.0
H2247 H 0.46745 0.88283 0.07141 0.0
H2248 H 0.49589 0.89041 0.09225 0.0
H2249 H 0.45997 0.89812 0.04009 0.0
H2250 H 0.45173 0.83849 0.04205 0.0
H2251 H 0.45981 0.81434 0.03772 0.0
H2252 H 0.46692 0.82418 0.9619 0.0
H2253 H 0.45916 0.84859 0.96579 0.0
C2254 C 0.38823 0.87061 0.97164 0.0
C2255 C 0.39396 0.87834 0.94874 0.0
C2256 C 0.40007 0.86802 0.98649 0.0
C2257 C 0.4176 0.87276 0.97839 0.0
C2258 C 0.42292 0.87942 0.95503 0.0
C2259 C 0.41127 0.88239 0.9404 0.0
C2260 C 0.43123 0.87292 0.99502 0.0
C2261 C 0.4368 0.85995 0.99222 0.0
C2262 C 0.43922 0.88636 0.01307 0.0
C2263 C 0.43333 0.89996 0.0173 0.0
C2264 C 0.43568 0.91278 -0.00044 0.0
C2265 C 0.4296 0.92521 0.00354 0.0
C2266 C 0.42129 0.92503 0.0253 0.0
C2267 C 0.41915 0.91251 0.04315 0.0
C2268 C 0.42518 0.90003 0.03922 0.0
C2269 C 0.50637 0.88099 0.03697 0.0
C2270 C 0.50856 0.88591 0.06126 0.0
C2271 C 0.49049 0.87738 0.02482 0.0
C2272 C 0.47612 0.87778 0.03702 0.0
C2273 C 0.47826 0.8824 0.06152 0.0
C2274 C 0.49446 0.88669 0.07345 0.0
C2275 C 0.45949 0.87465 0.02382 0.0
C2276 C 0.45329 0.88715 0.02714 0.0
C2277 C 0.45055 0.86035 0.00679 0.0
C2278 C 0.45496 0.84547 0.00425 0.0
C2279 C 0.45511 0.83557 0.02446 0.0
C2280 C 0.45963 0.82183 0.02208 0.0
C2281 C 0.46391 0.81775 -0.00044 0.0
C2282 C 0.46361 0.82736 0.97934 0.0
C2283 C 0.45912 0.84113 0.98162 0.0
H2284 H 0.46744 0.80713 0.99776 0.0
H2285 H 0.41653 0.9346 0.02836 0.0
H2286 H 0.51357 0.37623 0.44998 0.0
H2287 H 0.53963 0.39867 0.47356 0.0
H2288 H 0.51513 0.43285 0.47758 0.0
H2289 H 0.48972 0.41102 0.45296 0.0
H2290 H 0.54862 0.45334 0.4695 0.0
H2291 H 0.51538 0.40465 0.52584 0.0
H2292 H 0.50044 0.37289 0.54059 0.0
H2293 H 0.55142 0.37342 0.53649 0.0
H2294 H 0.56664 0.40516 0.52146 0.0
H2295 H 0.59234 0.50764 0.57065 0.0
H2296 H 0.56944 0.48272 0.54626 0.0
H2297 H 0.60838 0.46568 0.52885 0.0
H2298 H 0.63164 0.49087 0.55299 0.0
H2299 H 0.57039 0.4363 0.54236 0.0
H2300 H 0.60322 0.48761 0.48862 0.0
H2301 H 0.6164 0.51998 0.47717 0.0
H2302 H 0.5632 0.51466 0.48008 0.0
H2303 H 0.54974 0.48232 0.49194 0.0
C2304 C 0.5138 0.38854 0.45596 0.0
C2305 C 0.49967 0.39192 0.44964 0.0
C2306 C 0.52864 0.40132 0.46954 0.0
C2307 C 0.52928 0.4174 0.47767 0.0
C2308 C 0.51505 0.42064 0.47146 0.0
C2309 C 0.50049 0.40813 0.45743 0.0
C2310 C 0.54481 0.43108 0.49234 0.0
C2311 C 0.55321 0.44954 0.48552 0.0
C2312 C 0.55116 0.4262 0.51304 0.0
C2313 C 0.5421 0.4072 0.52229 0.0
C2314 C 0.52338 0.39796 0.52795 0.0
C2315 C 0.51486 0.37997 0.53638 0.0
C2316 C 0.52496 0.37113 0.53941 0.0
C2317 C 0.54361 0.38028 0.5341 0.0
C2318 C 0.55219 0.39828 0.52565 0.0
C2319 C 0.59605 0.49855 0.5618 0.0
C2320 C 0.61385 0.50131 0.56365 0.0
C2321 C 0.58294 0.48432 0.54789 0.0
C2322 C 0.5873 0.47246 0.53577 0.0
C2323 C 0.60482 0.47472 0.53816 0.0
C2324 C 0.61807 0.48915 0.55184 0.0
C2325 C 0.57371 0.45834 0.51965 0.0
C2326 C 0.56578 0.4399 0.52618 0.0
C2327 C 0.56748 0.46323 0.49898 0.0
C2328 C 0.57549 0.48257 0.49131 0.0
C2329 C 0.59435 0.49337 0.48695 0.0
C2330 C 0.60186 0.51171 0.48037 0.0
C2331 C 0.59064 0.51937 0.47789 0.0
C2332 C 0.57187 0.50869 0.48195 0.0
C2333 C 0.56429 0.49036 0.48859 0.0
H2334 H 0.59649 0.53358 0.47287 0.0
H2335 H 0.51833 0.3572 0.54593 0.0
H2336 H 0.08415 0.49319 0.93647 0.0
H2337 H 0.08748 0.52082 0.95494 0.0
H2338 H 0.14489 0.54067 0.96638 0.0
H2339 H 0.14145 0.51256 0.94878 0.0
H2340 H 0.13192 0.54739 0.00403 0.0
H2341 H 0.12903 0.55875 0.92155 0.0
H2342 H 0.11748 0.55256 0.88003 0.0
H2343 H 0.06684 0.54769 0.90342 0.0
H2344 H 0.07798 0.55359 0.94515 0.0
H2345 H 0.13816 0.63359 0.03783 0.0
H2346 H 0.14322 0.61228 0.01334 0.0
H2347 H 0.08533 0.57394 0.01359 0.0
H2348 H 0.08021 0.59481 0.03835 0.0
H2349 H 0.1044 0.58129 0.96664 0.0
H2350 H 0.10779 0.56571 0.05051 0.0
H2351 H 0.12103 0.57323 0.09117 0.0
H2352 H 0.17393 0.58862 0.06244 0.0
H2353 H 0.16102 0.58143 0.02154 0.0
C2354 C 0.09751 0.50345 0.94284 0.0
C2355 C 0.11255 0.50074 0.94107 0.0
C2356 C 0.09943 0.51933 0.95325 0.0
C2357 C 0.11654 0.53307 0.96154 0.0
C2358 C 0.13158 0.53033 0.95998 0.0
C2359 C 0.12959 0.51426 0.94993 0.0
C2360 C 0.11842 0.54992 0.97263 0.0
C2361 C 0.12627 0.55502 0.99555 0.0
C2362 C 0.11109 0.55998 0.96165 0.0
C2363 C 0.10432 0.55652 0.93653 0.0
C2364 C 0.11539 0.55625 0.91787 0.0
C2365 C 0.10892 0.5528 0.89429 0.0
C2366 C 0.09143 0.54971 0.88909 0.0
C2367 C 0.08039 0.55009 0.90747 0.0
C2368 C 0.08679 0.55352 0.93109 0.0
C2369 C 0.12654 0.62065 0.03252 0.0
C2370 C 0.10881 0.61577 0.0401 0.0
C2371 C 0.12945 0.60854 0.01861 0.0
C2372 C 0.11462 0.59161 0.01174 0.0
C2373 C 0.09691 0.58698 0.01871 0.0
C2374 C 0.09404 0.59886 0.03296 0.0
C2375 C 0.11736 0.57822 0.99806 0.0
C2376 C 0.1104 0.57382 0.97471 0.0
C2377 C 0.12581 0.56906 0.00841 0.0
C2378 C 0.1335 0.57328 0.03297 0.0
C2379 C 0.12228 0.57087 0.05285 0.0
C2380 C 0.12971 0.57503 0.07593 0.0
C2381 C 0.14832 0.58146 0.07938 0.0
C2382 C 0.15952 0.58368 0.05974 0.0
C2383 C 0.15216 0.57956 0.03661 0.0
H2384 H 0.15405 0.58467 0.09726 0.0
H2385 H 0.08644 0.54704 0.87082 0.0
H2386 H 0.50983 0.13674 0.55219 0.0
H2387 H 0.53588 0.13699 0.5327 0.0
H2388 H 0.5077 0.07801 0.53533 0.0
H2389 H 0.48219 0.07785 0.55602 0.0
H2390 H 0.54087 0.08968 0.54591 0.0
H2391 H 0.51147 0.10369 0.48261 0.0
H2392 H 0.49842 0.12054 0.46242 0.0
H2393 H 0.55066 0.16972 0.4646 0.0
H2394 H 0.56398 0.15321 0.48509 0.0
H2395 H 0.58868 0.07269 0.45471 0.0
H2396 H 0.56556 0.07566 0.47718 0.0
H2397 H 0.60277 0.13347 0.48563 0.0
H2398 H 0.62615 0.13065 0.46309 0.0
H2399 H 0.56694 0.12418 0.4705 0.0
H2400 H 0.59591 0.10729 0.53209 0.0
H2401 H 0.60744 0.08813 0.5494 0.0
H2402 H 0.55351 0.04127 0.54672 0.0
H2403 H 0.54168 0.06011 0.52913 0.0
C2404 C 0.50924 0.12385 0.54859 0.0
C2405 C 0.49397 0.10725 0.55551 0.0
C2406 C 0.52408 0.12399 0.53735 0.0
C2407 C 0.52367 0.1075 0.53214 0.0
C2408 C 0.50841 0.09092 0.53915 0.0
C2409 C 0.49379 0.09082 0.55089 0.0
C2410 C 0.5391 0.10741 0.51951 0.0
C2411 C 0.5464 0.0971 0.5293 0.0
C2412 C 0.54661 0.11731 0.49802 0.0
C2413 C 0.53866 0.12726 0.48561 0.0
C2414 C 0.52014 0.11813 0.47894 0.0
C2415 C 0.5127 0.12761 0.46742 0.0
C2416 C 0.52369 0.1462 0.4623 0.0
C2417 C 0.54216 0.15533 0.46862 0.0
C2418 C 0.54966 0.14591 0.48017 0.0
C2419 C 0.59199 0.08606 0.46129 0.0
C2420 C 0.60927 0.10145 0.45709 0.0
C2421 C 0.57877 0.08771 0.47422 0.0
C2422 C 0.58253 0.10475 0.48316 0.0
C2423 C 0.59967 0.12019 0.47887 0.0
C2424 C 0.613 0.11854 0.46609 0.0
C2425 C 0.56842 0.10636 0.49683 0.0
C2426 C 0.56141 0.11692 0.48722 0.0
C2427 C 0.5609 0.09637 0.51817 0.0
C2428 C 0.56793 0.0851 0.52918 0.0
C2429 C 0.58652 0.09288 0.53509 0.0
C2430 C 0.59311 0.08208 0.54499 0.0
C2431 C 0.58121 0.0635 0.54919 0.0
C2432 C 0.5627 0.05568 0.54352 0.0
C2433 C 0.55604 0.06642 0.53362 0.0
H2434 H 0.58634 0.05515 0.55678 0.0
H2435 H 0.51791 0.15352 0.45338 0.0
H2436 H 0.5041 0.37275 0.04109 0.0
H2437 H 0.53041 0.39702 0.01968 0.0
H2438 H 0.50518 0.43052 0.02094 0.0
H2439 H 0.47901 0.40654 0.04251 0.0
H2440 H 0.51938 0.42806 0.97521 0.0
H2441 H 0.53719 0.4401 0.05891 0.0
H2442 H 0.54308 0.43186 0.09902 0.0
H2443 H 0.58327 0.42061 0.06919 0.0
H2444 H 0.57742 0.42854 0.02882 0.0
H2445 H 0.58989 0.51556 0.94362 0.0
H2446 H 0.56481 0.48909 0.96316 0.0
H2447 H 0.59971 0.466 0.9742 0.0
H2448 H 0.62514 0.49299 0.95577 0.0
H2449 H 0.58094 0.461 0.01227 0.0
H2450 H 0.56533 0.45012 0.92943 0.0
H2451 H 0.55966 0.45715 0.88849 0.0
H2452 H 0.51576 0.46417 0.91457 0.0
H2453 H 0.52132 0.45742 0.95574 0.0
C2454 C 0.50417 0.38529 0.0368 0.0
C2455 C 0.48954 0.38778 0.04359 0.0
C2456 C 0.51919 0.39912 0.02463 0.0
C2457 C 0.51968 0.41552 0.01884 0.0
C2458 C 0.505 0.41793 0.02528 0.0
C2459 C 0.49013 0.40426 0.03772 0.0
C2460 C 0.53553 0.43032 0.00619 0.0
C2461 C 0.53284 0.4354 0.98331 0.0
C2462 C 0.55314 0.43938 0.01655 0.0
C2463 C 0.55671 0.4347 0.04082 0.0
C2464 C 0.54716 0.43571 0.06087 0.0
C2465 C 0.55051 0.43113 0.08366 0.0
C2466 C 0.56349 0.42566 0.08664 0.0
C2467 C 0.57319 0.42481 0.06684 0.0
C2468 C 0.56987 0.42936 0.04402 0.0
C2469 C 0.5922 0.50484 0.95021 0.0
C2470 C 0.60945 0.50634 0.94812 0.0
C2471 C 0.57782 0.48963 0.96122 0.0
C2472 C 0.58023 0.47532 0.96973 0.0
C2473 C 0.59748 0.47682 0.96773 0.0
C2474 C 0.612 0.49224 0.95715 0.0
C2475 C 0.56484 0.45903 0.9812 0.0
C2476 C 0.56758 0.45362 0.00391 0.0
C2477 C 0.54732 0.44944 0.97048 0.0
C2478 C 0.54384 0.4534 0.94571 0.0
C2479 C 0.55454 0.45327 0.92646 0.0
C2480 C 0.55134 0.4572 0.90321 0.0
C2481 C 0.53739 0.46114 0.89894 0.0
C2482 C 0.52657 0.46113 0.91791 0.0
C2483 C 0.52973 0.45723 0.9412 0.0
H2484 H 0.53493 0.46418 0.88093 0.0
H2485 H 0.56608 0.42212 0.10429 0.0
H2486 H 0.08392 0.58321 0.43885 0.0
H2487 H 0.08765 0.56289 0.46636 0.0
H2488 H 0.14376 0.60421 0.4784 0.0
H2489 H 0.1401 0.62496 0.45103 0.0
H2490 H 0.1354 0.56563 0.46765 0.0
H2491 H 0.11921 0.60035 0.52056 0.0
H2492 H 0.10068 0.61396 0.53329 0.0
H2493 H 0.05303 0.56058 0.53692 0.0
H2494 H 0.07123 0.54667 0.52384 0.0
H2495 H 0.14288 0.51129 0.55874 0.0
H2496 H 0.14529 0.53753 0.53699 0.0
H2497 H 0.08649 0.512 0.53608 0.0
H2498 H 0.08408 0.4862 0.55886 0.0
H2499 H 0.09978 0.54619 0.54333 0.0
H2500 H 0.11301 0.51132 0.48667 0.0
H2501 H 0.12929 0.49605 0.47113 0.0
H2502 H 0.17972 0.54723 0.47135 0.0
H2503 H 0.16376 0.56277 0.48719 0.0
C2504 C 0.09711 0.58801 0.44721 0.0
C2505 C 0.11173 0.60571 0.44275 0.0
C2506 C 0.09917 0.57639 0.46299 0.0
C2507 C 0.11593 0.58214 0.47442 0.0
C2508 C 0.13072 0.59962 0.4697 0.0
C2509 C 0.12859 0.61142 0.45416 0.0
C2510 C 0.11769 0.5697 0.49138 0.0
C2511 C 0.12797 0.56162 0.48448 0.0
C2512 C 0.10751 0.56417 0.51289 0.0
C2513 C 0.09657 0.57248 0.52104 0.0
C2514 C 0.10475 0.59152 0.52389 0.0
C2515 C 0.09431 0.59929 0.5312 0.0
C2516 C 0.07568 0.58815 0.53587 0.0
C2517 C 0.06746 0.5692 0.53329 0.0
C2518 C 0.07784 0.56137 0.52596 0.0
C2519 C 0.13049 0.51136 0.554 0.0
C2520 C 0.11329 0.49669 0.56037 0.0
C2521 C 0.13187 0.52631 0.54148 0.0
C2522 C 0.11607 0.5266 0.53443 0.0
C2523 C 0.09889 0.51212 0.54129 0.0
C2524 C 0.09752 0.49736 0.55428 0.0
C2525 C 0.11728 0.54173 0.5195 0.0
C2526 C 0.1075 0.55033 0.52673 0.0
C2527 C 0.12764 0.54746 0.49802 0.0
C2528 C 0.13723 0.53816 0.48837 0.0
C2529 C 0.12759 0.51929 0.48355 0.0
C2530 C 0.13676 0.51059 0.47467 0.0
C2531 C 0.15553 0.52065 0.47033 0.0
C2532 C 0.16518 0.53945 0.47477 0.0
C2533 C 0.15608 0.54821 0.48369 0.0
H2534 H 0.16261 0.51389 0.46346 0.0
H2535 H 0.06762 0.59419 0.54152 0.0
H2536 H 0.58123 0.07715 0.04873 0.0
H2537 H 0.55883 0.08011 0.02448 0.0
H2538 H 0.59475 0.13846 0.02083 0.0
H2539 H 0.6175 0.13563 0.04496 0.0
H2540 H 0.55664 0.12619 0.03259 0.0
H2541 H 0.59289 0.11693 0.97435 0.0
H2542 H 0.6083 0.10166 0.95609 0.0
H2543 H 0.55668 0.05237 0.94772 0.0
H2544 H 0.54099 0.06719 0.96649 0.0
H2545 H 0.49976 0.13551 0.94648 0.0
H2546 H 0.52641 0.1381 0.96724 0.0
H2547 H 0.50329 0.07961 0.96267 0.0
H2548 H 0.477 0.07704 0.94109 0.0
H2549 H 0.53782 0.09537 0.95346 0.0
H2550 H 0.5018 0.10241 0.01519 0.0
H2551 H 0.48541 0.11642 0.03423 0.0
H2552 H 0.53515 0.16817 0.03711 0.0
H2553 H 0.5518 0.15451 0.01781 0.0
C2554 C 0.58438 0.09065 0.0429 0.0
C2555 C 0.60115 0.10617 0.04876 0.0
C2556 C 0.57159 0.09229 0.02896 0.0
C2557 C 0.57523 0.10948 0.0208 0.0
C2558 C 0.59176 0.12508 0.02698 0.0
C2559 C 0.60473 0.12343 0.04067 0.0
C2560 C 0.56166 0.11094 0.0057 0.0
C2561 C 0.55271 0.11976 0.01508 0.0
C2562 C 0.55635 0.10216 0.98316 0.0
C2563 C 0.56578 0.09314 0.97205 0.0
C2564 C 0.58484 0.10277 0.9689 0.0
C2565 C 0.59363 0.09419 0.95842 0.0
C2566 C 0.58349 0.07604 0.95081 0.0
C2567 C 0.56453 0.06641 0.95368 0.0
C2568 C 0.55568 0.07489 0.96425 0.0
C2569 C 0.50039 0.12322 0.94986 0.0
C2570 C 0.48626 0.10606 0.94223 0.0
C2571 C 0.5156 0.1247 0.96182 0.0
C2572 C 0.51673 0.10902 0.96688 0.0
C2573 C 0.50274 0.09192 0.95897 0.0
C2574 C 0.48769 0.09046 0.94666 0.0
C2575 C 0.53239 0.11027 0.98052 0.0
C2576 C 0.5418 0.10197 0.97086 0.0
C2577 C 0.53794 0.11931 0.00296 0.0
C2578 C 0.528 0.12749 0.01482 0.0
C2579 C 0.50921 0.11681 0.01975 0.0
C2580 C 0.49988 0.12468 0.03061 0.0
C2581 C 0.50922 0.14319 0.03681 0.0
C2582 C 0.52793 0.15384 0.03226 0.0
C2583 C 0.53732 0.14604 0.02138 0.0
H2584 H 0.50197 0.14927 0.04518 0.0
H2585 H 0.5903 0.06946 0.9426 0.0
H2586 H 0.48424 0.62685 0.54727 0.0
H2587 H 0.45895 0.60453 0.52234 0.0
H2588 H 0.47569 0.56478 0.53565 0.0
H2589 H 0.50067 0.58672 0.56095 0.0
H2590 H 0.4707 0.57295 0.48436 0.0
H2591 H 0.44147 0.55731 0.56299 0.0
H2592 H 0.43111 0.56452 0.60065 0.0
H2593 H 0.39849 0.5812 0.56072 0.0
H2594 H 0.4089 0.57435 0.52278 0.0
H2595 H 0.40372 0.48991 0.43729 0.0
H2596 H 0.42592 0.51436 0.46282 0.0
H2597 H 0.39151 0.53864 0.46499 0.0
H2598 H 0.36872 0.51353 0.4404 0.0
H2599 H 0.40511 0.54145 0.50669 0.0
H2600 H 0.43125 0.55614 0.42892 0.0
H2601 H 0.44158 0.5512 0.38971 0.0
H2602 H 0.4801 0.53994 0.42479 0.0
H2603 H 0.46983 0.54457 0.46424 0.0
C2604 C 0.48243 0.6133 0.54504 0.0
C2605 C 0.49442 0.60852 0.55608 0.0
C2606 C 0.46799 0.60061 0.53086 0.0
C2607 C 0.46555 0.5831 0.52725 0.0
C2608 C 0.47741 0.57826 0.53832 0.0
C2609 C 0.49161 0.59079 0.55282 0.0
C2610 C 0.4511 0.56994 0.51117 0.0
C2611 C 0.45635 0.56591 0.48923 0.0
C2612 C 0.43241 0.56148 0.51725 0.0
C2613 C 0.42615 0.56555 0.54005 0.0
C2614 C 0.43225 0.56271 0.56223 0.0
C2615 C 0.42633 0.56669 0.58363 0.0
C2616 C 0.4142 0.57338 0.58308 0.0
C2617 C 0.40792 0.57606 0.56112 0.0
C2618 C 0.41382 0.57212 0.53967 0.0
C2619 C 0.4009 0.50047 0.44318 0.0
C2620 C 0.3846 0.49994 0.43668 0.0
C2621 C 0.41364 0.51451 0.45767 0.0
C2622 C 0.41065 0.52865 0.46532 0.0
C2623 C 0.3942 0.52796 0.45919 0.0
C2624 C 0.38121 0.51365 0.44511 0.0
C2625 C 0.42467 0.54396 0.4799 0.0
C2626 C 0.4194 0.54853 0.50154 0.0
C2627 C 0.44336 0.55329 0.47327 0.0
C2628 C 0.44966 0.55057 0.44956 0.0
C2629 C 0.44184 0.55249 0.42828 0.0
C2630 C 0.4477 0.54976 0.40601 0.0
C2631 C 0.46146 0.54523 0.40476 0.0
C2632 C 0.46943 0.54345 0.42579 0.0
C2633 C 0.46361 0.54615 0.44811 0.0
H2634 H 0.46598 0.54312 0.3875 0.0
H2635 H 0.40962 0.57644 0.59966 0.0
H2636 H 0.85936 0.36199 0.95831 0.0
H2637 H 0.85635 0.3857 0.97982 0.0
H2638 H 0.91394 0.42322 0.97053 0.0
H2639 H 0.91699 0.39986 0.94857 0.0
H2640 H 0.89905 0.42102 0.01906 0.0
H2641 H 0.88837 0.42839 0.93499 0.0
H2642 H 0.87235 0.41728 0.89637 0.0
H2643 H 0.82146 0.40376 0.93013 0.0
H2644 H 0.83717 0.41454 0.96906 0.0
H2645 H 0.91553 0.50954 0.0399 0.0
H2646 H 0.91307 0.48157 0.02395 0.0
H2647 H 0.85444 0.45701 0.02041 0.0
H2648 H 0.85686 0.48533 0.03568 0.0
H2649 H 0.86597 0.44934 0.98149 0.0
H2650 H 0.87577 0.4446 0.06422 0.0
H2651 H 0.89035 0.45441 0.10389 0.0
H2652 H 0.9404 0.46084 0.07533 0.0
H2653 H 0.92621 0.45133 0.03538 0.0
C2654 C 0.87139 0.37526 0.96095 0.0
C2655 C 0.88843 0.37909 0.95172 0.0
C2656 C 0.86963 0.38876 0.9732 0.0
C2657 C 0.88493 0.40614 0.9767 0.0
C2658 C 0.902 0.40985 0.96803 0.0
C2659 C 0.9037 0.39652 0.95542 0.0
C2660 C 0.88318 0.42076 0.98877 0.0
C2661 C 0.89192 0.42732 0.01088 0.0
C2662 C 0.8733 0.42843 0.97838 0.0
C2663 C 0.8639 0.42205 0.95497 0.0
C2664 C 0.87374 0.42288 0.93422 0.0
C2665 C 0.86472 0.41668 0.91227 0.0
C2666 C 0.84589 0.40976 0.91081 0.0
C2667 C 0.83604 0.40908 0.93129 0.0
C2668 C 0.84499 0.41524 0.9533 0.0
C2669 C 0.90208 0.49817 0.03587 0.0
C2670 C 0.88638 0.49963 0.03918 0.0
C2671 C 0.90068 0.48212 0.02686 0.0
C2672 C 0.88353 0.46702 0.02144 0.0
C2673 C 0.86781 0.46845 0.02458 0.0
C2674 C 0.86922 0.48463 0.03331 0.0
C2675 C 0.88222 0.45003 0.01172 0.0
C2676 C 0.8729 0.44295 0.99001 0.0
C2677 C 0.89132 0.44168 0.02272 0.0
C2678 C 0.89994 0.44737 0.04674 0.0
C2679 C 0.88992 0.44823 0.06635 0.0
C2680 C 0.89811 0.45372 0.0889 0.0
C2681 C 0.9163 0.45828 0.09212 0.0
C2682 C 0.92632 0.45732 0.0728 0.0
C2683 C 0.9182 0.45185 0.05021 0.0
H2684 H 0.92262 0.46252 0.10959 0.0
H2685 H 0.83894 0.40497 0.89379 0.0
H2686 H 0.49026 0.86235 0.45699 0.0
H2687 H 0.46316 0.86039 0.47589 0.0
H2688 H 0.48672 0.91872 0.46891 0.0
H2689 H 0.51371 0.92083 0.44979 0.0
H2690 H 0.47406 0.90429 0.51601 0.0
H2691 H 0.45385 0.89328 0.43325 0.0
H2692 H 0.44711 0.87696 0.39461 0.0
H2693 H 0.40854 0.827 0.42932 0.0
H2694 H 0.41524 0.84299 0.46825 0.0
H2695 H 0.40447 0.92123 0.54798 0.0
H2696 H 0.42815 0.91896 0.52603 0.0
H2697 H 0.39392 0.86028 0.52316 0.0
H2698 H 0.3697 0.86257 0.54438 0.0
H2699 H 0.41129 0.87197 0.48243 0.0
H2700 H 0.42962 0.88154 0.56426 0.0
H2701 H 0.4362 0.89624 0.60405 0.0
H2702 H 0.47823 0.94636 0.5734 0.0
H2703 H 0.47173 0.93203 0.53335 0.0
C2704 C 0.48962 0.87474 0.45932 0.0
C2705 C 0.50416 0.89176 0.45192 0.0
C2706 C 0.47411 0.87358 0.47004 0.0
C2707 C 0.47299 0.88941 0.47373 0.0
C2708 C 0.48737 0.90636 0.46618 0.0
C2709 C 0.50274 0.90752 0.45519 0.0
C2710 C 0.45721 0.88853 0.48641 0.0
C2711 C 0.46035 0.8974 0.50859 0.0
C2712 C 0.43927 0.87888 0.47711 0.0
C2713 C 0.4352 0.86929 0.4537 0.0
C2714 C 0.44406 0.87878 0.43268 0.0
C2715 C 0.44022 0.8696 0.41072 0.0
C2716 C 0.42745 0.85094 0.40952 0.0
C2717 C 0.41845 0.84144 0.43028 0.0
C2718 C 0.42226 0.85056 0.45229 0.0
C2719 C 0.40194 0.90783 0.54264 0.0
C2720 C 0.38532 0.89205 0.54815 0.0
C2721 C 0.41553 0.90654 0.53017 0.0
C2722 C 0.41303 0.88941 0.52351 0.0
C2723 C 0.3962 0.87363 0.52828 0.0
C2724 C 0.3824 0.87495 0.54042 0.0
C2725 C 0.42817 0.88814 0.5119 0.0
C2726 C 0.42494 0.87879 0.48999 0.0
C2727 C 0.44604 0.89708 0.52167 0.0
C2728 C 0.45009 0.90574 0.54576 0.0
C2729 C 0.44019 0.89573 0.56598 0.0
C2730 C 0.44391 0.90399 0.58858 0.0
C2731 C 0.4576 0.92223 0.59124 0.0
C2732 C 0.46763 0.93223 0.57131 0.0
C2733 C 0.46394 0.92404 0.54865 0.0
H2734 H 0.46046 0.9286 0.60875 0.0
H2735 H 0.42449 0.84385 0.3925 0.0
loop_
_geom_bond_atom_site_label_1
_geom_bond_atom_site_label_2
_geom_bond_distance
_geom_bond_site_symmetry_2
_ccdc_geom_bond_type
Mg0 O1 2.028 . S
Mg0 O7 1.986 . S
Mg0 O9 2.114 . S
Mg0 O10 2.251 . S
Mg0 O13 2.010 . S
O1 Mg0 2.028 . S
O1 C4 1.250 . S
O2 Mg3 2.028 . S
O2 C4 1.248 . S
Mg3 O2 2.028 . S
Mg3 O8 2.032 . S
Mg3 O10 2.079 . S
C4 O1 1.250 . S
C4 O2 1.248 . S
C5 O6 1.264 . S
C5 O13 1.249 . S
O6 C5 1.264 . S
O7 Mg0 1.986 . S
O7 C11 1.246 . S
O8 Mg3 2.032 . S
O8 C11 1.259 . S
O9 Mg0 2.114 . S
O9 C12 1.252 . S
O10 Mg0 2.251 . S
O10 Mg3 2.079 . S
O10 C12 1.273 . S
C11 O7 1.246 . S
C11 O8 1.259 . S
C12 O9 1.252 . S
C12 O10 1.273 . S
O13 Mg0 2.010 . S
O13 C5 1.249 . S
Mg14 O15 2.028 . S
Mg14 O21 1.986 . S
Mg14 O23 2.114 . S
Mg14 O24 2.251 . S
Mg14 O27 2.010 . S
O15 Mg14 2.028 . S
O15 C18 1.250 . S
O16 Mg17 2.028 . S
O16 C18 1.248 . S
Mg17 O16 2.028 . S
Mg17 O22 2.032 . S
Mg17 O24 2.079 . S
C18 O15 1.250 . S
C18 O16 1.248 . S
C19 O20 1.264 . S
C19 O27 1.249 . S
O20 C19 1.264 . S
O21 Mg14 1.986 . S
O21 C25 1.246 . S
O22 Mg17 2.032 . S
O22 C25 1.259 . S
O23 Mg14 2.114 . S
O23 C26 1.252 . S
O24 Mg14 2.251 . S
O24 Mg17 2.079 . S
O24 C26 1.273 . S
C25 O21 1.246 . S
C25 O22 1.259 . S
C26 O23 1.252 . S
C26 O24 1.273 . S
O27 Mg14 2.010 . S
O27 C19 1.249 . S
Mg28 O29 2.028 . S
Mg28 O35 1.986 . S
Mg28 O37 2.114 . S
Mg28 O38 2.251 . S
Mg28 O41 2.010 . S
O29 Mg28 2.028 . S
O29 C32 1.250 . S
O30 Mg31 2.028 . S
O30 C32 1.248 . S
Mg31 O30 2.028 . S
Mg31 O36 2.032 . S
Mg31 O38 2.079 . S
C32 O29 1.250 . S
C32 O30 1.248 . S
C33 O34 1.264 . S
C33 O41 1.249 . S
O34 C33 1.264 . S
O35 Mg28 1.986 . S
O35 C39 1.246 . S
O36 Mg31 2.032 . S
O36 C39 1.259 . S
O37 Mg28 2.114 . S
O37 C40 1.252 . S
O38 Mg28 2.251 . S
O38 Mg31 2.079 . S
O38 C40 1.273 . S
C39 O35 1.246 . S
C39 O36 1.259 . S
C40 O37 1.252 . S
C40 O38 1.273 . S
O41 Mg28 2.010 . S
O41 C33 1.249 . S
Mg42 O43 2.028 . S
Mg42 O49 1.986 . S
Mg42 O51 2.114 . S
Mg42 O52 2.251 . S
Mg42 O55 2.010 . S
O43 Mg42 2.028 . S
O43 C46 1.250 . S
O44 Mg45 2.028 . S
O44 C46 1.248 . S
Mg45 O44 2.028 . S
Mg45 O50 2.032 . S
Mg45 O52 2.079 . S
C46 O43 1.250 . S
C46 O44 1.248 . S
C47 O48 1.264 . S
C47 O55 1.249 . S
O48 C47 1.264 . S
O49 Mg42 1.986 . S
O49 C53 1.246 . S
O50 Mg45 2.032 . S
O50 C53 1.259 . S
O51 Mg42 2.114 . S
O51 C54 1.252 . S
O52 Mg42 2.251 . S
O52 Mg45 2.079 . S
O52 C54 1.273 . S
C53 O49 1.246 . S
C53 O50 1.259 . S
C54 O51 1.252 . S
C54 O52 1.273 . S
O55 Mg42 2.010 . S
O55 C47 1.249 . S
Mg56 O57 2.028 . S
Mg56 O63 1.986 . S
Mg56 O65 2.114 . S
Mg56 O66 2.251 . S
Mg56 O69 2.010 . S
O57 Mg56 2.028 . S
O57 C60 1.250 . S
O58 Mg59 2.028 . S
O58 C60 1.248 . S
Mg59 O58 2.028 . S
Mg59 O64 2.032 . S
Mg59 O66 2.079 . S
C60 O57 1.250 . S
C60 O58 1.248 . S
C61 O62 1.264 . S
C61 O69 1.249 . S
O62 C61 1.264 . S
O63 Mg56 1.986 . S
O63 C67 1.246 . S
O64 Mg59 2.032 . S
O64 C67 1.259 . S
O65 Mg56 2.114 . S
O65 C68 1.252 . S
O66 Mg56 2.251 . S
O66 Mg59 2.079 . S
O66 C68 1.273 . S
C67 O63 1.246 . S
C67 O64 1.259 . S
C68 O65 1.252 . S
C68 O66 1.273 . S
O69 Mg56 2.010 . S
O69 C61 1.249 . S
Mg70 O71 2.028 . S
Mg70 O77 1.986 . S
Mg70 O79 2.114 . S
Mg70 O80 2.251 . S
Mg70 O83 2.010 . S
O71 Mg70 2.028 . S
O71 C74 1.250 . S
O72 Mg73 2.028 . S
O72 C74 1.248 . S
Mg73 O72 2.028 . S
Mg73 O78 2.032 . S
Mg73 O80 2.079 . S
C74 O71 1.250 . S
C74 O72 1.248 . S
C75 O76 1.264 . S
C75 O83 1.249 . S
O76 C75 1.264 . S
O77 Mg70 1.986 . S
O77 C81 1.246 . S
O78 Mg73 2.032 . S
O78 C81 1.259 . S
O79 Mg70 2.114 . S
O79 C82 1.252 . S
O80 Mg70 2.251 . S
O80 Mg73 2.079 . S
O80 C82 1.273 . S
C81 O77 1.246 . S
C81 O78 1.259 . S
C82 O79 1.252 . S
C82 O80 1.273 . S
O83 Mg70 2.010 . S
O83 C75 1.249 . S
Mg84 O85 2.028 . S
Mg84 O91 1.986 . S
Mg84 O93 2.114 . S
Mg84 O94 2.251 . S
Mg84 O97 2.010 . S
O85 Mg84 2.028 . S
O85 C88 1.250 . S
O86 Mg87 2.028 . S
O86 C88 1.248 . S
Mg87 O86 2.028 . S
Mg87 O92 2.032 . S
Mg87 O94 2.079 . S
C88 O85 1.250 . S
C88 O86 1.248 . S
C89 O90 1.264 . S
C89 O97 1.249 . S
O90 C89 1.264 . S
O91 Mg84 1.986 . S
O91 C95 1.246 . S
O92 Mg87 2.032 . S
O92 C95 1.259 . S
O93 Mg84 2.114 . S
O93 C96 1.252 . S
O94 Mg84 2.251 . S
O94 Mg87 2.079 . S
O94 C96 1.273 . S
C95 O91 1.246 . S
C95 O92 1.259 . S
C96 O93 1.252 . S
C96 O94 1.273 . S
O97 Mg84 2.010 . S
O97 C89 1.249 . S
Mg98 O99 2.028 . S
Mg98 O105 1.986 . S
Mg98 O107 2.114 . S
Mg98 O108 2.251 . S
Mg98 O111 2.010 . S
O99 Mg98 2.028 . S
O99 C102 1.250 . S
O100 Mg101 2.028 . S
O100 C102 1.248 . S
Mg101 O100 2.028 . S
Mg101 O106 2.032 . S
Mg101 O108 2.079 . S
C102 O99 1.250 . S
C102 O100 1.248 . S
C103 O104 1.264 . S
C103 O111 1.249 . S
O104 C103 1.264 . S
O105 Mg98 1.986 . S
O105 C109 1.246 . S
O106 Mg101 2.032 . S
O106 C109 1.259 . S
O107 Mg98 2.114 . S
O107 C110 1.252 . S
O108 Mg98 2.251 . S
O108 Mg101 2.079 . S
O108 C110 1.273 . S
C109 O105 1.246 . S
C109 O106 1.259 . S
C110 O107 1.252 . S
C110 O108 1.273 . S
O111 Mg98 2.010 . S
O111 C103 1.249 . S
Mg112 O113 2.028 . S
Mg112 O119 1.986 . S
Mg112 O121 2.114 . S
Mg112 O122 2.251 . S
Mg112 O125 2.010 . S
O113 Mg112 2.028 . S
O113 C116 1.250 . S
O114 Mg115 2.028 . S
O114 C116 1.248 . S
Mg115 O114 2.028 . S
Mg115 O120 2.032 . S
Mg115 O122 2.079 . S
C116 O113 1.250 . S
C116 O114 1.248 . S
C117 O118 1.264 . S
C117 O125 1.249 . S
O118 C117 1.264 . S
O119 Mg112 1.986 . S
O119 C123 1.246 . S
O120 Mg115 2.032 . S
O120 C123 1.259 . S
O121 Mg112 2.114 . S
O121 C124 1.252 . S
O122 Mg112 2.251 . S
O122 Mg115 2.079 . S
O122 C124 1.273 . S
C123 O119 1.246 . S
C123 O120 1.259 . S
C124 O121 1.252 . S
C124 O122 1.273 . S
O125 Mg112 2.010 . S
O125 C117 1.249 . S
Mg126 O127 2.028 . S
Mg126 O133 1.986 . S
Mg126 O135 2.114 . S
Mg126 O136 2.251 . S
Mg126 O139 2.010 . S
O127 Mg126 2.028 . S
O127 C130 1.250 . S
O128 Mg129 2.028 . S
O128 C130 1.248 . S
Mg129 O128 2.028 . S
Mg129 O134 2.032 . S
Mg129 O136 2.079 . S
C130 O127 1.250 . S
C130 O128 1.248 . S
C131 O132 1.264 . S
C131 O139 1.249 . S
O132 C131 1.264 . S
O133 Mg126 1.986 . S
O133 C137 1.246 . S
O134 Mg129 2.032 . S
O134 C137 1.259 . S
O135 Mg126 2.114 . S
O135 C138 1.252 . S
O136 Mg126 2.251 . S
O136 Mg129 2.079 . S
O136 C138 1.273 . S
C137 O133 1.246 . S
C137 O134 1.259 . S
C138 O135 1.252 . S
C138 O136 1.273 . S
O139 Mg126 2.010 . S
O139 C131 1.249 . S
Mg140 O141 2.028 . S
Mg140 O147 1.986 . S
Mg140 O149 2.114 . S
Mg140 O150 2.251 . S
Mg140 O153 2.010 . S
O141 Mg140 2.028 . S
O141 C144 1.250 . S
O142 Mg143 2.028 . S
O142 C144 1.248 . S
Mg143 O142 2.028 . S
Mg143 O148 2.032 . S
Mg143 O150 2.079 . S
C144 O141 1.250 . S
C144 O142 1.248 . S
C145 O146 1.264 . S
C145 O153 1.249 . S
O146 C145 1.264 . S
O147 Mg140 1.986 . S
O147 C151 1.246 . S
O148 Mg143 2.032 . S
O148 C151 1.259 . S
O149 Mg140 2.114 . S
O149 C152 1.252 . S
O150 Mg140 2.251 . S
O150 Mg143 2.079 . S
O150 C152 1.273 . S
C151 O147 1.246 . S
C151 O148 1.259 . S
C152 O149 1.252 . S
C152 O150 1.273 . S
O153 Mg140 2.010 . S
O153 C145 1.249 . S
Mg154 O155 2.028 . S
Mg154 O161 1.986 . S
Mg154 O163 2.114 . S
Mg154 O164 2.251 . S
Mg154 O167 2.010 . S
O155 Mg154 2.028 . S
O155 C158 1.250 . S
O156 Mg157 2.028 . S
O156 C158 1.248 . S
Mg157 O156 2.028 . S
Mg157 O162 2.032 . S
Mg157 O164 2.079 . S
C158 O155 1.250 . S
C158 O156 1.248 . S
C159 O160 1.264 . S
C159 O167 1.249 . S
O160 C159 1.264 . S
O161 Mg154 1.986 . S
O161 C165 1.246 . S
O162 Mg157 2.032 . S
O162 C165 1.259 . S
O163 Mg154 2.114 . S
O163 C166 1.252 . S
O164 Mg154 2.251 . S
O164 Mg157 2.079 . S
O164 C166 1.273 . S
C165 O161 1.246 . S
C165 O162 1.259 . S
C166 O163 1.252 . S
C166 O164 1.273 . S
O167 Mg154 2.010 . S
O167 C159 1.249 . S
Mg168 O169 2.028 . S
Mg168 O175 1.986 . S
Mg168 O177 2.114 . S
Mg168 O178 2.251 . S
Mg168 O181 2.010 . S
O169 Mg168 2.028 . S
O169 C172 1.250 . S
O170 Mg171 2.028 . S
O170 C172 1.248 . S
Mg171 O170 2.028 . S
Mg171 O176 2.032 . S
Mg171 O178 2.079 . S
C172 O169 1.250 . S
C172 O170 1.248 . S
C173 O174 1.264 . S
C173 O181 1.249 . S
O174 C173 1.264 . S
O175 Mg168 1.986 . S
O175 C179 1.246 . S
O176 Mg171 2.032 . S
O176 C179 1.259 . S
O177 Mg168 2.114 . S
O177 C180 1.252 . S
O178 Mg168 2.251 . S
O178 Mg171 2.079 . S
O178 C180 1.273 . S
C179 O175 1.246 . S
C179 O176 1.259 . S
C180 O177 1.252 . S
C180 O178 1.273 . S
O181 Mg168 2.010 . S
O181 C173 1.249 . S
Mg182 O183 2.028 . S
Mg182 O189 1.986 . S
Mg182 O191 2.114 . S
Mg182 O192 2.251 . S
Mg182 O195 2.010 . S
O183 Mg182 2.028 . S
O183 C186 1.250 . S
O184 Mg185 2.028 . S
O184 C186 1.248 . S
Mg185 O184 2.028 . S
Mg185 O190 2.032 . S
Mg185 O192 2.079 . S
C186 O183 1.250 . S
C186 O184 1.248 . S
C187 O188 1.264 . S
C187 O195 1.249 . S
O188 C187 1.264 . S
O189 Mg182 1.986 . S
O189 C193 1.246 . S
O190 Mg185 2.032 . S
O190 C193 1.259 . S
O191 Mg182 2.114 . S
O191 C194 1.252 . S
O192 Mg182 2.251 . S
O192 Mg185 2.079 . S
O192 C194 1.273 . S
C193 O189 1.246 . S
C193 O190 1.259 . S
C194 O191 1.252 . S
C194 O192 1.273 . S
O195 Mg182 2.010 . S
O195 C187 1.249 . S
Mg196 O197 2.028 . S
Mg196 O203 1.986 . S
Mg196 O205 2.114 . S
Mg196 O206 2.251 . S
Mg196 O209 2.010 . S
O197 Mg196 2.028 . S
O197 C200 1.250 . S
O198 Mg199 2.028 . S
O198 C200 1.248 . S
Mg199 O198 2.028 . S
Mg199 O204 2.032 . S
Mg199 O206 2.079 . S
C200 O197 1.250 . S
C200 O198 1.248 . S
C201 O202 1.264 . S
C201 O209 1.249 . S
O202 C201 1.264 . S
O203 Mg196 1.986 . S
O203 C207 1.246 . S
O204 Mg199 2.032 . S
O204 C207 1.259 . S
O205 Mg196 2.114 . S
O205 C208 1.252 . S
O206 Mg196 2.251 . S
O206 Mg199 2.079 . S
O206 C208 1.273 . S
C207 O203 1.246 . S
C207 O204 1.259 . S
C208 O205 1.252 . S
C208 O206 1.273 . S
O209 Mg196 2.010 . S
O209 C201 1.249 . S
Mg210 O211 2.028 . S
Mg210 O217 1.986 . S
Mg210 O219 2.114 . S
Mg210 O220 2.251 . S
Mg210 O223 2.010 . S
O211 Mg210 2.028 . S
O211 C214 1.250 . S
O212 Mg213 2.028 . S
O212 C214 1.248 . S
Mg213 O212 2.028 . S
Mg213 O218 2.032 . S
Mg213 O220 2.079 . S
C214 O211 1.250 . S
C214 O212 1.248 . S
C215 O216 1.264 . S
C215 O223 1.249 . S
O216 C215 1.264 . S
O217 Mg210 1.986 . S
O217 C221 1.246 . S
O218 Mg213 2.032 . S
O218 C221 1.259 . S
O219 Mg210 2.114 . S
O219 C222 1.252 . S
O220 Mg210 2.251 . S
O220 Mg213 2.079 . S
O220 C222 1.273 . S
C221 O217 1.246 . S
C221 O218 1.259 . S
C222 O219 1.252 . S
C222 O220 1.273 . S
O223 Mg210 2.010 . S
O223 C215 1.249 . S
Mg224 O225 2.028 . S
Mg224 O231 1.986 . S
Mg224 O233 2.114 . S
Mg224 O234 2.251 . S
Mg224 O237 2.010 . S
O225 Mg224 2.028 . S
O225 C228 1.250 . S
O226 Mg227 2.028 . S
O226 C228 1.248 . S
Mg227 O226 2.028 . S
Mg227 O232 2.032 . S
Mg227 O234 2.079 . S
C228 O225 1.250 . S
C228 O226 1.248 . S
C229 O230 1.264 . S
C229 O237 1.249 . S
O230 C229 1.264 . S
O231 Mg224 1.986 . S
O231 C235 1.246 . S
O232 Mg227 2.032 . S
O232 C235 1.259 . S
O233 Mg224 2.114 . S
O233 C236 1.252 . S
O234 Mg224 2.251 . S
O234 Mg227 2.079 . S
O234 C236 1.273 . S
C235 O231 1.246 . S
C235 O232 1.259 . S
C236 O233 1.252 . S
C236 O234 1.273 . S
O237 Mg224 2.010 . S
O237 C229 1.249 . S
Mg238 O239 2.028 . S
Mg238 O245 1.986 . S
Mg238 O247 2.114 . S
Mg238 O248 2.251 . S
Mg238 O251 2.010 . S
O239 Mg238 2.028 . S
O239 C242 1.250 . S
O240 Mg241 2.028 . S
O240 C242 1.248 . S
Mg241 O240 2.028 . S
Mg241 O246 2.032 . S
Mg241 O248 2.079 . S
C242 O239 1.250 . S
C242 O240 1.248 . S
C243 O244 1.264 . S
C243 O251 1.249 . S
O244 C243 1.264 . S
O245 Mg238 1.986 . S
O245 C249 1.246 . S
O246 Mg241 2.032 . S
O246 C249 1.259 . S
O247 Mg238 2.114 . S
O247 C250 1.252 . S
O248 Mg238 2.251 . S
O248 Mg241 2.079 . S
O248 C250 1.273 . S
C249 O245 1.246 . S
C249 O246 1.259 . S
C250 O247 1.252 . S
C250 O248 1.273 . S
O251 Mg238 2.010 . S
O251 C243 1.249 . S
Mg252 O253 2.028 . S
Mg252 O259 1.986 . S
Mg252 O261 2.114 . S
Mg252 O262 2.251 . S
Mg252 O265 2.010 . S
O253 Mg252 2.028 . S
O253 C256 1.250 . S
O254 Mg255 2.028 . S
O254 C256 1.248 . S
Mg255 O254 2.028 . S
Mg255 O260 2.032 . S
Mg255 O262 2.079 . S
C256 O253 1.250 . S
C256 O254 1.248 . S
C257 O258 1.264 . S
C257 O265 1.249 . S
O258 C257 1.264 . S
O259 Mg252 1.986 . S
O259 C263 1.246 . S
O260 Mg255 2.032 . S
O260 C263 1.259 . S
O261 Mg252 2.114 . S
O261 C264 1.252 . S
O262 Mg252 2.251 . S
O262 Mg255 2.079 . S
O262 C264 1.273 . S
C263 O259 1.246 . S
C263 O260 1.259 . S
C264 O261 1.252 . S
C264 O262 1.273 . S
O265 Mg252 2.010 . S
O265 C257 1.249 . S
Mg266 O267 2.028 . S
Mg266 O273 1.986 . S
Mg266 O275 2.114 . S
Mg266 O276 2.251 . S
Mg266 O279 2.010 . S
O267 Mg266 2.028 . S
O267 C270 1.250 . S
O268 Mg269 2.028 . S
O268 C270 1.248 . S
Mg269 O268 2.028 . S
Mg269 O274 2.032 . S
Mg269 O276 2.079 . S
C270 O267 1.250 . S
C270 O268 1.248 . S
C271 O272 1.264 . S
C271 O279 1.249 . S
O272 C271 1.264 . S
O273 Mg266 1.986 . S
O273 C277 1.246 . S
O274 Mg269 2.032 . S
O274 C277 1.259 . S
O275 Mg266 2.114 . S
O275 C278 1.252 . S
O276 Mg266 2.251 . S
O276 Mg269 2.079 . S
O276 C278 1.273 . S
C277 O273 1.246 . S
C277 O274 1.259 . S
C278 O275 1.252 . S
C278 O276 1.273 . S
O279 Mg266 2.010 . S
O279 C271 1.249 . S
Mg280 O281 2.028 . S
Mg280 O287 1.986 . S
Mg280 O289 2.114 . S
Mg280 O290 2.251 . S
Mg280 O293 2.010 . S
O281 Mg280 2.028 . S
O281 C284 1.250 . S
O282 Mg283 2.028 . S
O282 C284 1.248 . S
Mg283 O282 2.028 . S
Mg283 O288 2.032 . S
Mg283 O290 2.079 . S
C284 O281 1.250 . S
C284 O282 1.248 . S
C285 O286 1.264 . S
C285 O293 1.249 . S
O286 C285 1.264 . S
O287 Mg280 1.986 . S
O287 C291 1.246 . S
O288 Mg283 2.032 . S
O288 C291 1.259 . S
O289 Mg280 2.114 . S
O289 C292 1.252 . S
O290 Mg280 2.251 . S
O290 Mg283 2.079 . S
O290 C292 1.273 . S
C291 O287 1.246 . S
C291 O288 1.259 . S
C292 O289 1.252 . S
C292 O290 1.273 . S
O293 Mg280 2.010 . S
O293 C285 1.249 . S
Mg294 O295 2.028 . S
Mg294 O301 1.986 . S
Mg294 O303 2.114 . S
Mg294 O304 2.251 . S
Mg294 O307 2.010 . S
O295 Mg294 2.028 . S
O295 C298 1.250 . S
O296 Mg297 2.028 . S
O296 C298 1.248 . S
Mg297 O296 2.028 . S
Mg297 O302 2.032 . S
Mg297 O304 2.079 . S
C298 O295 1.250 . S
C298 O296 1.248 . S
C299 O300 1.264 . S
C299 O307 1.249 . S
O300 C299 1.264 . S
O301 Mg294 1.986 . S
O301 C305 1.246 . S
O302 Mg297 2.032 . S
O302 C305 1.259 . S
O303 Mg294 2.114 . S
O303 C306 1.252 . S
O304 Mg294 2.251 . S
O304 Mg297 2.079 . S
O304 C306 1.273 . S
C305 O301 1.246 . S
C305 O302 1.259 . S
C306 O303 1.252 . S
C306 O304 1.273 . S
O307 Mg294 2.010 . S
O307 C299 1.249 . S
Mg308 O309 2.028 . S
Mg308 O315 1.986 . S
Mg308 O317 2.114 . S
Mg308 O318 2.251 . S
Mg308 O321 2.010 . S
O309 Mg308 2.028 . S
O309 C312 1.250 . S
O310 Mg311 2.028 . S
O310 C312 1.248 . S
Mg311 O310 2.028 . S
Mg311 O316 2.032 . S
Mg311 O318 2.079 . S
C312 O309 1.250 . S
C312 O310 1.248 . S
C313 O314 1.264 . S
C313 O321 1.249 . S
O314 C313 1.264 . S
O315 Mg308 1.986 . S
O315 C319 1.246 . S
O316 Mg311 2.032 . S
O316 C319 1.259 . S
O317 Mg308 2.114 . S
O317 C320 1.252 . S
O318 Mg308 2.251 . S
O318 Mg311 2.079 . S
O318 C320 1.273 . S
C319 O315 1.246 . S
C319 O316 1.259 . S
C320 O317 1.252 . S
C320 O318 1.273 . S
O321 Mg308 2.010 . S
O321 C313 1.249 . S
Mg322 O323 2.028 . S
Mg322 O329 1.986 . S
Mg322 O331 2.114 . S
Mg322 O332 2.251 . S
Mg322 O335 2.010 . S
O323 Mg322 2.028 . S
O323 C326 1.250 . S
O324 Mg325 2.028 . S
O324 C326 1.248 . S
Mg325 O324 2.028 . S
Mg325 O330 2.032 . S
Mg325 O332 2.079 . S
C326 O323 1.250 . S
C326 O324 1.248 . S
C327 O328 1.264 . S
C327 O335 1.249 . S
O328 C327 1.264 . S
O329 Mg322 1.986 . S
O329 C333 1.246 . S
O330 Mg325 2.032 . S
O330 C333 1.259 . S
O331 Mg322 2.114 . S
O331 C334 1.252 . S
O332 Mg322 2.251 . S
O332 Mg325 2.079 . S
O332 C334 1.273 . S
C333 O329 1.246 . S
C333 O330 1.259 . S
C334 O331 1.252 . S
C334 O332 1.273 . S
O335 Mg322 2.010 . S
O335 C327 1.249 . S
H336 C354 0.951 . S
H337 C356 0.951 . S
H338 C358 0.950 . S
H339 C359 0.950 . S
H340 C361 0.950 . S
H341 C364 0.950 . S
H342 C365 0.950 . S
H343 C367 0.950 . S
H344 C368 0.950 . S
H345 C369 0.951 . S
H346 C371 0.951 . S
H347 C373 0.950 . S
H348 C374 0.950 . S
H349 C376 0.950 . S
H350 C379 0.950 . S
H351 C380 0.950 . S
H352 C382 0.950 . S
H353 C383 0.950 . S
C354 H336 0.951 . S
C354 C355 1.366 . S
C354 C356 1.388 . S
C355 C354 1.366 . S
C355 C359 1.385 . S
C356 H337 0.951 . S
C356 C354 1.388 . S
C356 C357 1.366 . S
C357 C356 1.366 . S
C357 C358 1.414 . S
C357 C360 1.499 . S
C358 H338 0.950 . S
C358 C357 1.414 . S
C358 C359 1.374 . S
C359 H339 0.950 . S
C359 C355 1.385 . S
C359 C358 1.374 . S
C360 C357 1.499 . S
C360 C361 1.373 . S
C360 C362 1.389 . S
C361 H340 0.950 . S
C361 C360 1.373 . S
C361 C377 1.377 . S
C362 C360 1.389 . S
C362 C363 1.524 . S
C362 C376 1.377 . S
C363 C362 1.524 . S
C363 C364 1.397 . S
C363 C368 1.363 . S
C364 H341 0.950 . S
C364 C363 1.397 . S
C364 C365 1.334 . S
C365 H342 0.950 . S
C365 C364 1.334 . S
C365 C366 1.287 . S
C366 C365 1.287 . S
C366 C367 1.524 . S
C366 H385 0.913 . S
C367 H343 0.950 . S
C367 C366 1.524 . S
C367 C368 1.415 . S
C368 H344 0.950 . S
C368 C363 1.363 . S
C368 C367 1.415 . S
C369 H345 0.951 . S
C369 C370 1.366 . S
C369 C371 1.388 . S
C370 C369 1.366 . S
C370 C374 1.385 . S
C371 H346 0.951 . S
C371 C369 1.388 . S
C371 C372 1.366 . S
C372 C371 1.366 . S
C372 C373 1.414 . S
C372 C375 1.499 . S
C373 H347 0.950 . S
C373 C372 1.414 . S
C373 C374 1.374 . S
C374 H348 0.950 . S
C374 C370 1.385 . S
C374 C373 1.374 . S
C375 C372 1.499 . S
C375 C376 1.373 . S
C375 C377 1.389 . S
C376 H349 0.950 . S
C376 C362 1.377 . S
C376 C375 1.373 . S
C377 C361 1.377 . S
C377 C375 1.389 . S
C377 C378 1.524 . S
C378 C377 1.524 . S
C378 C379 1.397 . S
C378 C383 1.363 . S
C379 H350 0.950 . S
C379 C378 1.397 . S
C379 C380 1.334 . S
C380 H351 0.950 . S
C380 C379 1.334 . S
C380 C381 1.287 . S
C381 C380 1.287 . S
C381 C382 1.524 . S
C381 H384 0.999 . S
C382 H352 0.950 . S
C382 C381 1.524 . S
C382 C383 1.415 . S
C383 H353 0.950 . S
C383 C378 1.363 . S
C383 C382 1.415 . S
H384 C381 0.999 . S
H385 C366 0.913 . S
H386 C404 0.951 . S
H387 C406 0.951 . S
H388 C408 0.950 . S
H389 C409 0.950 . S
H390 C411 0.950 . S
H391 C414 0.950 . S
H392 C415 0.950 . S
H393 C417 0.950 . S
H394 C418 0.950 . S
H395 C419 0.951 . S
H396 C421 0.951 . S
H397 C423 0.950 . S
H398 C424 0.950 . S
H399 C426 0.950 . S
H400 C429 0.950 . S
H401 C430 0.950 . S
H402 C432 0.950 . S
H403 C433 0.950 . S
C404 H386 0.951 . S
C404 C405 1.366 . S
C404 C406 1.388 . S
C405 C404 1.366 . S
C405 C409 1.385 . S
C406 H387 0.951 . S
C406 C404 1.388 . S
C406 C407 1.366 . S
C407 C406 1.366 . S
C407 C408 1.414 . S
C407 C410 1.499 . S
C408 H388 0.950 . S
C408 C407 1.414 . S
C408 C409 1.374 . S
C409 H389 0.950 . S
C409 C405 1.385 . S
C409 C408 1.374 . S
C410 C407 1.499 . S
C410 C411 1.373 . S
C410 C412 1.389 . S
C411 H390 0.950 . S
C411 C410 1.373 . S
C411 C427 1.377 . S
C412 C410 1.389 . S
C412 C413 1.524 . S
C412 C426 1.377 . S
C413 C412 1.524 . S
C413 C414 1.397 . S
C413 C418 1.363 . S
C414 H391 0.950 . S
C414 C413 1.397 . S
C414 C415 1.334 . S
C415 H392 0.950 . S
C415 C414 1.334 . S
C415 C416 1.287 . S
C416 C415 1.287 . S
C416 C417 1.524 . S
C416 H435 0.913 . S
C417 H393 0.950 . S
C417 C416 1.524 . S
C417 C418 1.415 . S
C418 H394 0.950 . S
C418 C413 1.363 . S
C418 C417 1.415 . S
C419 H395 0.951 . S
C419 C420 1.366 . S
C419 C421 1.388 . S
C420 C419 1.366 . S
C420 C424 1.385 . S
C421 H396 0.951 . S
C421 C419 1.388 . S
C421 C422 1.366 . S
C422 C421 1.366 . S
C422 C423 1.414 . S
C422 C425 1.499 . S
C423 H397 0.950 . S
C423 C422 1.414 . S
C423 C424 1.374 . S
C424 H398 0.950 . S
C424 C420 1.385 . S
C424 C423 1.374 . S
C425 C422 1.499 . S
C425 C426 1.373 . S
C425 C427 1.389 . S
C426 H399 0.950 . S
C426 C412 1.377 . S
C426 C425 1.373 . S
C427 C411 1.377 . S
C427 C425 1.389 . S
C427 C428 1.524 . S
C428 C427 1.524 . S
C428 C429 1.397 . S
C428 C433 1.363 . S
C429 H400 0.950 . S
C429 C428 1.397 . S
C429 C430 1.334 . S
C430 H401 0.950 . S
C430 C429 1.334 . S
C430 C431 1.287 . S
C431 C430 1.287 . S
C431 C432 1.524 . S
C431 H434 0.999 . S
C432 H402 0.950 . S
C432 C431 1.524 . S
C432 C433 1.415 . S
C433 H403 0.950 . S
C433 C428 1.363 . S
C433 C432 1.415 . S
H434 C431 0.999 . S
H435 C416 0.913 . S
H436 C454 0.951 . S
H437 C456 0.951 . S
H438 C458 0.950 . S
H439 C459 0.950 . S
H440 C461 0.950 . S
H441 C464 0.950 . S
H442 C465 0.950 . S
H443 C467 0.950 . S
H444 C468 0.950 . S
H445 C469 0.951 . S
H446 C471 0.951 . S
H447 C473 0.950 . S
H448 C474 0.950 . S
H449 C476 0.950 . S
H450 C479 0.950 . S
H451 C480 0.950 . S
H452 C482 0.950 . S
H453 C483 0.950 . S
C454 H436 0.951 . S
C454 C455 1.366 . S
C454 C456 1.388 . S
C455 C454 1.366 . S
C455 C459 1.385 . S
C456 H437 0.951 . S
C456 C454 1.388 . S
C456 C457 1.366 . S
C457 C456 1.366 . S
C457 C458 1.414 . S
C457 C460 1.499 . S
C458 H438 0.950 . S
C458 C457 1.414 . S
C458 C459 1.374 . S
C459 H439 0.950 . S
C459 C455 1.385 . S
C459 C458 1.374 . S
C460 C457 1.499 . S
C460 C461 1.373 . S
C460 C462 1.389 . S
C461 H440 0.950 . S
C461 C460 1.373 . S
C461 C477 1.377 . S
C462 C460 1.389 . S
C462 C463 1.524 . S
C462 C476 1.377 . S
C463 C462 1.524 . S
C463 C464 1.397 . S
C463 C468 1.363 . S
C464 H441 0.950 . S
C464 C463 1.397 . S
C464 C465 1.334 . S
C465 H442 0.950 . S
C465 C464 1.334 . S
C465 C466 1.287 . S
C466 C465 1.287 . S
C466 C467 1.524 . S
C466 H485 0.913 . S
C467 H443 0.950 . S
C467 C466 1.524 . S
C467 C468 1.415 . S
C468 H444 0.950 . S
C468 C463 1.363 . S
C468 C467 1.415 . S
C469 H445 0.951 . S
C469 C470 1.366 . S
C469 C471 1.388 . S
C470 C469 1.366 . S
C470 C474 1.385 . S
C471 H446 0.951 . S
C471 C469 1.388 . S
C471 C472 1.366 . S
C472 C471 1.366 . S
C472 C473 1.414 . S
C472 C475 1.499 . S
C473 H447 0.950 . S
C473 C472 1.414 . S
C473 C474 1.374 . S
C474 H448 0.950 . S
C474 C470 1.385 . S
C474 C473 1.374 . S
C475 C472 1.499 . S
C475 C476 1.373 . S
C475 C477 1.389 . S
C476 H449 0.950 . S
C476 C462 1.377 . S
C476 C475 1.373 . S
C477 C461 1.377 . S
C477 C475 1.389 . S
C477 C478 1.524 . S
C478 C477 1.524 . S
C478 C479 1.397 . S
C478 C483 1.363 . S
C479 H450 0.950 . S
C479 C478 1.397 . S
C479 C480 1.334 . S
C480 H451 0.950 . S
C480 C479 1.334 . S
C480 C481 1.287 . S
C481 C480 1.287 . S
C481 C482 1.524 . S
C481 H484 0.999 . S
C482 H452 0.950 . S
C482 C481 1.524 . S
C482 C483 1.415 . S
C483 H453 0.950 . S
C483 C478 1.363 . S
C483 C482 1.415 . S
H484 C481 0.999 . S
H485 C466 0.913 . S
H486 C504 0.951 . S
H487 C506 0.951 . S
H488 C508 0.950 . S
H489 C509 0.950 . S
H490 C511 0.950 . S
H491 C514 0.950 . S
H492 C515 0.950 . S
H493 C517 0.950 . S
H494 C518 0.950 . S
H495 C519 0.951 . S
H496 C521 0.951 . S
H497 C523 0.950 . S
H498 C524 0.950 . S
H499 C526 0.950 . S
H500 C529 0.950 . S
H501 C530 0.950 . S
H502 C532 0.950 . S
H503 C533 0.950 . S
C504 H486 0.951 . S
C504 C505 1.366 . S
C504 C506 1.388 . S
C505 C504 1.366 . S
C505 C509 1.385 . S
C506 H487 0.951 . S
C506 C504 1.388 . S
C506 C507 1.366 . S
C507 C506 1.366 . S
C507 C508 1.414 . S
C507 C510 1.499 . S
C508 H488 0.950 . S
C508 C507 1.414 . S
C508 C509 1.374 . S
C509 H489 0.950 . S
C509 C505 1.385 . S
C509 C508 1.374 . S
C510 C507 1.499 . S
C510 C511 1.373 . S
C510 C512 1.389 . S
C511 H490 0.950 . S
C511 C510 1.373 . S
C511 C527 1.377 . S
C512 C510 1.389 . S
C512 C513 1.524 . S
C512 C526 1.377 . S
C513 C512 1.524 . S
C513 C514 1.397 . S
C513 C518 1.363 . S
C514 H491 0.950 . S
C514 C513 1.397 . S
C514 C515 1.334 . S
C515 H492 0.950 . S
C515 C514 1.334 . S
C515 C516 1.287 . S
C516 C515 1.287 . S
C516 C517 1.524 . S
C516 H535 0.913 . S
C517 H493 0.950 . S
C517 C516 1.524 . S
C517 C518 1.415 . S
C518 H494 0.950 . S
C518 C513 1.363 . S
C518 C517 1.415 . S
C519 H495 0.951 . S
C519 C520 1.366 . S
C519 C521 1.388 . S
C520 C519 1.366 . S
C520 C524 1.385 . S
C521 H496 0.951 . S
C521 C519 1.388 . S
C521 C522 1.366 . S
C522 C521 1.366 . S
C522 C523 1.414 . S
C522 C525 1.499 . S
C523 H497 0.950 . S
C523 C522 1.414 . S
C523 C524 1.374 . S
C524 H498 0.950 . S
C524 C520 1.385 . S
C524 C523 1.374 . S
C525 C522 1.499 . S
C525 C526 1.373 . S
C525 C527 1.389 . S
C526 H499 0.950 . S
C526 C512 1.377 . S
C526 C525 1.373 . S
C527 C511 1.377 . S
C527 C525 1.389 . S
C527 C528 1.524 . S
C528 C527 1.524 . S
C528 C529 1.397 . S
C528 C533 1.363 . S
C529 H500 0.950 . S
C529 C528 1.397 . S
C529 C530 1.334 . S
C530 H501 0.950 . S
C530 C529 1.334 . S
C530 C531 1.287 . S
C531 C530 1.287 . S
C531 C532 1.524 . S
C531 H534 0.999 . S
C532 H502 0.950 . S
C532 C531 1.524 . S
C532 C533 1.415 . S
C533 H503 0.950 . S
C533 C528 1.363 . S
C533 C532 1.415 . S
H534 C531 0.999 . S
H535 C516 0.913 . S
H536 C554 0.951 . S
H537 C556 0.951 . S
H538 C558 0.950 . S
H539 C559 0.950 . S
H540 C561 0.950 . S
H541 C564 0.950 . S
H542 C565 0.950 . S
H543 C567 0.950 . S
H544 C568 0.950 . S
H545 C569 0.951 . S
H546 C571 0.951 . S
H547 C573 0.950 . S
H548 C574 0.950 . S
H549 C576 0.950 . S
H550 C579 0.950 . S
H551 C580 0.950 . S
H552 C582 0.950 . S
H553 C583 0.950 . S
C554 H536 0.951 . S
C554 C555 1.366 . S
C554 C556 1.388 . S
C555 C554 1.366 . S
C555 C559 1.385 . S
C556 H537 0.951 . S
C556 C554 1.388 . S
C556 C557 1.366 . S
C557 C556 1.366 . S
C557 C558 1.414 . S
C557 C560 1.499 . S
C558 H538 0.950 . S
C558 C557 1.414 . S
C558 C559 1.374 . S
C559 H539 0.950 . S
C559 C555 1.385 . S
C559 C558 1.374 . S
C560 C557 1.499 . S
C560 C561 1.373 . S
C560 C562 1.389 . S
C561 H540 0.950 . S
C561 C560 1.373 . S
C561 C577 1.377 . S
C562 C560 1.389 . S
C562 C563 1.524 . S
C562 C576 1.377 . S
C563 C562 1.524 . S
C563 C564 1.397 . S
C563 C568 1.363 . S
C564 H541 0.950 . S
C564 C563 1.397 . S
C564 C565 1.334 . S
C565 H542 0.950 . S
C565 C564 1.334 . S
C565 C566 1.287 . S
C566 C565 1.287 . S
C566 C567 1.524 . S
C566 H585 0.913 . S
C567 H543 0.950 . S
C567 C566 1.524 . S
C567 C568 1.415 . S
C568 H544 0.950 . S
C568 C563 1.363 . S
C568 C567 1.415 . S
C569 H545 0.951 . S
C569 C570 1.366 . S
C569 C571 1.388 . S
C570 C569 1.366 . S
C570 C574 1.385 . S
C571 H546 0.951 . S
C571 C569 1.388 . S
C571 C572 1.366 . S
C572 C571 1.366 . S
C572 C573 1.414 . S
C572 C575 1.499 . S
C573 H547 0.950 . S
C573 C572 1.414 . S
C573 C574 1.374 . S
C574 H548 0.950 . S
C574 C570 1.385 . S
C574 C573 1.374 . S
C575 C572 1.499 . S
C575 C576 1.373 . S
C575 C577 1.389 . S
C576 H549 0.950 . S
C576 C562 1.377 . S
C576 C575 1.373 . S
C577 C561 1.377 . S
C577 C575 1.389 . S
C577 C578 1.524 . S
C578 C577 1.524 . S
C578 C579 1.397 . S
C578 C583 1.363 . S
C579 H550 0.950 . S
C579 C578 1.397 . S
C579 C580 1.334 . S
C580 H551 0.950 . S
C580 C579 1.334 . S
C580 C581 1.287 . S
C581 C580 1.287 . S
C581 C582 1.524 . S
C581 H584 0.999 . S
C582 H552 0.950 . S
C582 C581 1.524 . S
C582 C583 1.415 . S
C583 H553 0.950 . S
C583 C578 1.363 . S
C583 C582 1.415 . S
H584 C581 0.999 . S
H585 C566 0.913 . S
H586 C604 0.951 . S
H587 C606 0.951 . S
H588 C608 0.950 . S
H589 C609 0.950 . S
H590 C611 0.950 . S
H591 C614 0.950 . S
H592 C615 0.950 . S
H593 C617 0.950 . S
H594 C618 0.950 . S
H595 C619 0.951 . S
H596 C621 0.951 . S
H597 C623 0.950 . S
H598 C624 0.950 . S
H599 C626 0.950 . S
H600 C629 0.950 . S
H601 C630 0.950 . S
H602 C632 0.950 . S
H603 C633 0.950 . S
C604 H586 0.951 . S
C604 C605 1.366 . S
C604 C606 1.388 . S
C605 C604 1.366 . S
C605 C609 1.385 . S
C606 H587 0.951 . S
C606 C604 1.388 . S
C606 C607 1.366 . S
C607 C606 1.366 . S
C607 C608 1.414 . S
C607 C610 1.499 . S
C608 H588 0.950 . S
C608 C607 1.414 . S
C608 C609 1.374 . S
C609 H589 0.950 . S
C609 C605 1.385 . S
C609 C608 1.374 . S
C610 C607 1.499 . S
C610 C611 1.373 . S
C610 C612 1.389 . S
C611 H590 0.950 . S
C611 C610 1.373 . S
C611 C627 1.377 . S
C612 C610 1.389 . S
C612 C613 1.524 . S
C612 C626 1.377 . S
C613 C612 1.524 . S
C613 C614 1.397 . S
C613 C618 1.363 . S
C614 H591 0.950 . S
C614 C613 1.397 . S
C614 C615 1.334 . S
C615 H592 0.950 . S
C615 C614 1.334 . S
C615 C616 1.287 . S
C616 C615 1.287 . S
C616 C617 1.524 . S
C616 H635 0.913 . S
C617 H593 0.950 . S
C617 C616 1.524 . S
C617 C618 1.415 . S
C618 H594 0.950 . S
C618 C613 1.363 . S
C618 C617 1.415 . S
C619 H595 0.951 . S
C619 C620 1.366 . S
C619 C621 1.388 . S
C620 C619 1.366 . S
C620 C624 1.385 . S
C621 H596 0.951 . S
C621 C619 1.388 . S
C621 C622 1.366 . S
C622 C621 1.366 . S
C622 C623 1.414 . S
C622 C625 1.499 . S
C623 H597 0.950 . S
C623 C622 1.414 . S
C623 C624 1.374 . S
C624 H598 0.950 . S
C624 C620 1.385 . S
C624 C623 1.374 . S
C625 C622 1.499 . S
C625 C626 1.373 . S
C625 C627 1.389 . S
C626 H599 0.950 . S
C626 C612 1.377 . S
C626 C625 1.373 . S
C627 C611 1.377 . S
C627 C625 1.389 . S
C627 C628 1.524 . S
C628 C627 1.524 . S
C628 C629 1.397 . S
C628 C633 1.363 . S
C629 H600 0.950 . S
C629 C628 1.397 . S
C629 C630 1.334 . S
C630 H601 0.950 . S
C630 C629 1.334 . S
C630 C631 1.287 . S
C631 C630 1.287 . S
C631 C632 1.524 . S
C631 H634 0.999 . S
C632 H602 0.950 . S
C632 C631 1.524 . S
C632 C633 1.415 . S
C633 H603 0.950 . S
C633 C628 1.363 . S
C633 C632 1.415 . S
H634 C631 0.999 . S
H635 C616 0.913 . S
H636 C654 0.951 . S
H637 C656 0.951 . S
H638 C658 0.950 . S
H639 C659 0.950 . S
H640 C661 0.950 . S
H641 C664 0.950 . S
H642 C665 0.950 . S
H643 C667 0.950 . S
H644 C668 0.950 . S
H645 C669 0.951 . S
H646 C671 0.951 . S
H647 C673 0.950 . S
H648 C674 0.950 . S
H649 C676 0.950 . S
H650 C679 0.950 . S
H651 C680 0.950 . S
H652 C682 0.950 . S
H653 C683 0.950 . S
C654 H636 0.951 . S
C654 C655 1.366 . S
C654 C656 1.388 . S
C655 C654 1.366 . S
C655 C659 1.385 . S
C656 H637 0.951 . S
C656 C654 1.388 . S
C656 C657 1.366 . S
C657 C656 1.366 . S
C657 C658 1.414 . S
C657 C660 1.499 . S
C658 H638 0.950 . S
C658 C657 1.414 . S
C658 C659 1.374 . S
C659 H639 0.950 . S
C659 C655 1.385 . S
C659 C658 1.374 . S
C660 C657 1.499 . S
C660 C661 1.373 . S
C660 C662 1.389 . S
C661 H640 0.950 . S
C661 C660 1.373 . S
C661 C677 1.377 . S
C662 C660 1.389 . S
C662 C663 1.524 . S
C662 C676 1.377 . S
C663 C662 1.524 . S
C663 C664 1.397 . S
C663 C668 1.363 . S
C664 H641 0.950 . S
C664 C663 1.397 . S
C664 C665 1.334 . S
C665 H642 0.950 . S
C665 C664 1.334 . S
C665 C666 1.287 . S
C666 C665 1.287 . S
C666 C667 1.524 . S
C666 H685 0.913 . S
C667 H643 0.950 . S
C667 C666 1.524 . S
C667 C668 1.415 . S
C668 H644 0.950 . S
C668 C663 1.363 . S
C668 C667 1.415 . S
C669 H645 0.951 . S
C669 C670 1.366 . S
C669 C671 1.388 . S
C670 C669 1.366 . S
C670 C674 1.385 . S
C671 H646 0.951 . S
C671 C669 1.388 . S
C671 C672 1.366 . S
C672 C671 1.366 . S
C672 C673 1.414 . S
C672 C675 1.499 . S
C673 H647 0.950 . S
C673 C672 1.414 . S
C673 C674 1.374 . S
C674 H648 0.950 . S
C674 C670 1.385 . S
C674 C673 1.374 . S
C675 C672 1.499 . S
C675 C676 1.373 . S
C675 C677 1.389 . S
C676 H649 0.950 . S
C676 C662 1.377 . S
C676 C675 1.373 . S
C677 C661 1.377 . S
C677 C675 1.389 . S
C677 C678 1.524 . S
C678 C677 1.524 . S
C678 C679 1.397 . S
C678 C683 1.363 . S
C679 H650 0.950 . S
C679 C678 1.397 . S
C679 C680 1.334 . S
C680 H651 0.950 . S
C680 C679 1.334 . S
C680 C681 1.287 . S
C681 C680 1.287 . S
C681 C682 1.524 . S
C681 H684 0.999 . S
C682 H652 0.950 . S
C682 C681 1.524 . S
C682 C683 1.415 . S
C683 H653 0.950 . S
C683 C678 1.363 . S
C683 C682 1.415 . S
H684 C681 0.999 . S
H685 C666 0.913 . S
H686 C704 0.951 . S
H687 C706 0.951 . S
H688 C708 0.950 . S
H689 C709 0.950 . S
H690 C711 0.950 . S
H691 C714 0.950 . S
H692 C715 0.950 . S
H693 C717 0.950 . S
H694 C718 0.950 . S
H695 C719 0.951 . S
H696 C721 0.951 . S
H697 C723 0.950 . S
H698 C724 0.950 . S
H699 C726 0.950 . S
H700 C729 0.950 . S
H701 C730 0.950 . S
H702 C732 0.950 . S
H703 C733 0.950 . S
C704 H686 0.951 . S
C704 C705 1.366 . S
C704 C706 1.388 . S
C705 C704 1.366 . S
C705 C709 1.385 . S
C706 H687 0.951 . S
C706 C704 1.388 . S
C706 C707 1.366 . S
C707 C706 1.366 . S
C707 C708 1.414 . S
C707 C710 1.499 . S
C708 H688 0.950 . S
C708 C707 1.414 . S
C708 C709 1.374 . S
C709 H689 0.950 . S
C709 C705 1.385 . S
C709 C708 1.374 . S
C710 C707 1.499 . S
C710 C711 1.373 . S
C710 C712 1.389 . S
C711 H690 0.950 . S
C711 C710 1.373 . S
C711 C727 1.377 . S
C712 C710 1.389 . S
C712 C713 1.524 . S
C712 C726 1.377 . S
C713 C712 1.524 . S
C713 C714 1.397 . S
C713 C718 1.363 . S
C714 H691 0.950 . S
C714 C713 1.397 . S
C714 C715 1.334 . S
C715 H692 0.950 . S
C715 C714 1.334 . S
C715 C716 1.287 . S
C716 C715 1.287 . S
C716 C717 1.524 . S
C716 H735 0.913 . S
C717 H693 0.950 . S
C717 C716 1.524 . S
C717 C718 1.415 . S
C718 H694 0.950 . S
C718 C713 1.363 . S
C718 C717 1.415 . S
C719 H695 0.951 . S
C719 C720 1.366 . S
C719 C721 1.388 . S
C720 C719 1.366 . S
C720 C724 1.385 . S
C721 H696 0.951 . S
C721 C719 1.388 . S
C721 C722 1.366 . S
C722 C721 1.366 . S
C722 C723 1.414 . S
C722 C725 1.499 . S
C723 H697 0.950 . S
C723 C722 1.414 . S
C723 C724 1.374 . S
C724 H698 0.950 . S
C724 C720 1.385 . S
C724 C723 1.374 . S
C725 C722 1.499 . S
C725 C726 1.373 . S
C725 C727 1.389 . S
C726 H699 0.950 . S
C726 C712 1.377 . S
C726 C725 1.373 . S
C727 C711 1.377 . S
C727 C725 1.389 . S
C727 C728 1.524 . S
C728 C727 1.524 . S
C728 C729 1.397 . S
C728 C733 1.363 . S
C729 H700 0.950 . S
C729 C728 1.397 . S
C729 C730 1.334 . S
C730 H701 0.950 . S
C730 C729 1.334 . S
C730 C731 1.287 . S
C731 C730 1.287 . S
C731 C732 1.524 . S
C731 H734 0.999 . S
C732 H702 0.950 . S
C732 C731 1.524 . S
C732 C733 1.415 . S
C733 H703 0.950 . S
C733 C728 1.363 . S
C733 C732 1.415 . S
H734 C731 0.999 . S
H735 C716 0.913 . S
H736 C754 0.951 . S
H737 C756 0.951 . S
H738 C758 0.950 . S
H739 C759 0.950 . S
H740 C761 0.950 . S
H741 C764 0.950 . S
H742 C765 0.950 . S
H743 C767 0.950 . S
H744 C768 0.950 . S
H745 C769 0.951 . S
H746 C771 0.951 . S
H747 C773 0.950 . S
H748 C774 0.950 . S
H749 C776 0.950 . S
H750 C779 0.950 . S
H751 C780 0.950 . S
H752 C782 0.950 . S
H753 C783 0.950 . S
C754 H736 0.951 . S
C754 C755 1.366 . S
C754 C756 1.388 . S
C755 C754 1.366 . S
C755 C759 1.385 . S
C756 H737 0.951 . S
C756 C754 1.388 . S
C756 C757 1.366 . S
C757 C756 1.366 . S
C757 C758 1.414 . S
C757 C760 1.499 . S
C758 H738 0.950 . S
C758 C757 1.414 . S
C758 C759 1.374 . S
C759 H739 0.950 . S
C759 C755 1.385 . S
C759 C758 1.374 . S
C760 C757 1.499 . S
C760 C761 1.373 . S
C760 C762 1.389 . S
C761 H740 0.950 . S
C761 C760 1.373 . S
C761 C777 1.377 . S
C762 C760 1.389 . S
C762 C763 1.524 . S
C762 C776 1.377 . S
C763 C762 1.524 . S
C763 C764 1.397 . S
C763 C768 1.363 . S
C764 H741 0.950 . S
C764 C763 1.397 . S
C764 C765 1.334 . S
C765 H742 0.950 . S
C765 C764 1.334 . S
C765 C766 1.287 . S
C766 C765 1.287 . S
C766 C767 1.524 . S
C766 H785 0.913 . S
C767 H743 0.950 . S
C767 C766 1.524 . S
C767 C768 1.415 . S
C768 H744 0.950 . S
C768 C763 1.363 . S
C768 C767 1.415 . S
C769 H745 0.951 . S
C769 C770 1.366 . S
C769 C771 1.388 . S
C770 C769 1.366 . S
C770 C774 1.385 . S
C771 H746 0.951 . S
C771 C769 1.388 . S
C771 C772 1.366 . S
C772 C771 1.366 . S
C772 C773 1.414 . S
C772 C775 1.499 . S
C773 H747 0.950 . S
C773 C772 1.414 . S
C773 C774 1.374 . S
C774 H748 0.950 . S
C774 C770 1.385 . S
C774 C773 1.374 . S
C775 C772 1.499 . S
C775 C776 1.373 . S
C775 C777 1.389 . S
C776 H749 0.950 . S
C776 C762 1.377 . S
C776 C775 1.373 . S
C777 C761 1.377 . S
C777 C775 1.389 . S
C777 C778 1.524 . S
C778 C777 1.524 . S
C778 C779 1.397 . S
C778 C783 1.363 . S
C779 H750 0.950 . S
C779 C778 1.397 . S
C779 C780 1.334 . S
C780 H751 0.950 . S
C780 C779 1.334 . S
C780 C781 1.287 . S
C781 C780 1.287 . S
C781 C782 1.524 . S
C781 H784 0.999 . S
C782 H752 0.950 . S
C782 C781 1.524 . S
C782 C783 1.415 . S
C783 H753 0.950 . S
C783 C778 1.363 . S
C783 C782 1.415 . S
H784 C781 0.999 . S
H785 C766 0.913 . S
H786 C804 0.951 . S
H787 C806 0.951 . S
H788 C808 0.950 . S
H789 C809 0.950 . S
H790 C811 0.950 . S
H791 C814 0.950 . S
H792 C815 0.950 . S
H793 C817 0.950 . S
H794 C818 0.950 . S
H795 C819 0.951 . S
H796 C821 0.951 . S
H797 C823 0.950 . S
H798 C824 0.950 . S
H799 C826 0.950 . S
H800 C829 0.950 . S
H801 C830 0.950 . S
H802 C832 0.950 . S
H803 C833 0.950 . S
C804 H786 0.951 . S
C804 C805 1.366 . S
C804 C806 1.388 . S
C805 C804 1.366 . S
C805 C809 1.385 . S
C806 H787 0.951 . S
C806 C804 1.388 . S
C806 C807 1.366 . S
C807 C806 1.366 . S
C807 C808 1.414 . S
C807 C810 1.499 . S
C808 H788 0.950 . S
C808 C807 1.414 . S
C808 C809 1.374 . S
C809 H789 0.950 . S
C809 C805 1.385 . S
C809 C808 1.374 . S
C810 C807 1.499 . S
C810 C811 1.373 . S
C810 C812 1.389 . S
C811 H790 0.950 . S
C811 C810 1.373 . S
C811 C827 1.377 . S
C812 C810 1.389 . S
C812 C813 1.524 . S
C812 C826 1.377 . S
C813 C812 1.524 . S
C813 C814 1.397 . S
C813 C818 1.363 . S
C814 H791 0.950 . S
C814 C813 1.397 . S
C814 C815 1.334 . S
C815 H792 0.950 . S
C815 C814 1.334 . S
C815 C816 1.287 . S
C816 C815 1.287 . S
C816 C817 1.524 . S
C816 H835 0.913 . S
C817 H793 0.950 . S
C817 C816 1.524 . S
C817 C818 1.415 . S
C818 H794 0.950 . S
C818 C813 1.363 . S
C818 C817 1.415 . S
C819 H795 0.951 . S
C819 C820 1.366 . S
C819 C821 1.388 . S
C820 C819 1.366 . S
C820 C824 1.385 . S
C821 H796 0.951 . S
C821 C819 1.388 . S
C821 C822 1.366 . S
C822 C821 1.366 . S
C822 C823 1.414 . S
C822 C825 1.499 . S
C823 H797 0.950 . S
C823 C822 1.414 . S
C823 C824 1.374 . S
C824 H798 0.950 . S
C824 C820 1.385 . S
C824 C823 1.374 . S
C825 C822 1.499 . S
C825 C826 1.373 . S
C825 C827 1.389 . S
C826 H799 0.950 . S
C826 C812 1.377 . S
C826 C825 1.373 . S
C827 C811 1.377 . S
C827 C825 1.389 . S
C827 C828 1.524 . S
C828 C827 1.524 . S
C828 C829 1.397 . S
C828 C833 1.363 . S
C829 H800 0.950 . S
C829 C828 1.397 . S
C829 C830 1.334 . S
C830 H801 0.950 . S
C830 C829 1.334 . S
C830 C831 1.287 . S
C831 C830 1.287 . S
C831 C832 1.524 . S
C831 H834 0.999 . S
C832 H802 0.950 . S
C832 C831 1.524 . S
C832 C833 1.415 . S
C833 H803 0.950 . S
C833 C828 1.363 . S
C833 C832 1.415 . S
H834 C831 0.999 . S
H835 C816 0.913 . S
H836 C854 0.951 . S
H837 C856 0.951 . S
H838 C858 0.950 . S
H839 C859 0.950 . S
H840 C861 0.950 . S
H841 C864 0.950 . S
H842 C865 0.950 . S
H843 C867 0.950 . S
H844 C868 0.950 . S
H845 C869 0.951 . S
H846 C871 0.951 . S
H847 C873 0.950 . S
H848 C874 0.950 . S
H849 C876 0.950 . S
H850 C879 0.950 . S
H851 C880 0.950 . S
H852 C882 0.950 . S
H853 C883 0.950 . S
C854 H836 0.951 . S
C854 C855 1.366 . S
C854 C856 1.388 . S
C855 C854 1.366 . S
C855 C859 1.385 . S
C856 H837 0.951 . S
C856 C854 1.388 . S
C856 C857 1.366 . S
C857 C856 1.366 . S
C857 C858 1.414 . S
C857 C860 1.499 . S
C858 H838 0.950 . S
C858 C857 1.414 . S
C858 C859 1.374 . S
C859 H839 0.950 . S
C859 C855 1.385 . S
C859 C858 1.374 . S
C860 C857 1.499 . S
C860 C861 1.373 . S
C860 C862 1.389 . S
C861 H840 0.950 . S
C861 C860 1.373 . S
C861 C877 1.377 . S
C862 C860 1.389 . S
C862 C863 1.524 . S
C862 C876 1.377 . S
C863 C862 1.524 . S
C863 C864 1.397 . S
C863 C868 1.363 . S
C864 H841 0.950 . S
C864 C863 1.397 . S
C864 C865 1.334 . S
C865 H842 0.950 . S
C865 C864 1.334 . S
C865 C866 1.287 . S
C866 C865 1.287 . S
C866 C867 1.524 . S
C866 H885 0.913 . S
C867 H843 0.950 . S
C867 C866 1.524 . S
C867 C868 1.415 . S
C868 H844 0.950 . S
C868 C863 1.363 . S
C868 C867 1.415 . S
C869 H845 0.951 . S
C869 C870 1.366 . S
C869 C871 1.388 . S
C870 C869 1.366 . S
C870 C874 1.385 . S
C871 H846 0.951 . S
C871 C869 1.388 . S
C871 C872 1.366 . S
C872 C871 1.366 . S
C872 C873 1.414 . S
C872 C875 1.499 . S
C873 H847 0.950 . S
C873 C872 1.414 . S
C873 C874 1.374 . S
C874 H848 0.950 . S
C874 C870 1.385 . S
C874 C873 1.374 . S
C875 C872 1.499 . S
C875 C876 1.373 . S
C875 C877 1.389 . S
C876 H849 0.950 . S
C876 C862 1.377 . S
C876 C875 1.373 . S
C877 C861 1.377 . S
C877 C875 1.389 . S
C877 C878 1.524 . S
C878 C877 1.524 . S
C878 C879 1.397 . S
C878 C883 1.363 . S
C879 H850 0.950 . S
C879 C878 1.397 . S
C879 C880 1.334 . S
C880 H851 0.950 . S
C880 C879 1.334 . S
C880 C881 1.287 . S
C881 C880 1.287 . S
C881 C882 1.524 . S
C881 H884 0.999 . S
C882 H852 0.950 . S
C882 C881 1.524 . S
C882 C883 1.415 . S
C883 H853 0.950 . S
C883 C878 1.363 . S
C883 C882 1.415 . S
H884 C881 0.999 . S
H885 C866 0.913 . S
H886 C904 0.951 . S
H887 C906 0.951 . S
H888 C908 0.950 . S
H889 C909 0.950 . S
H890 C911 0.950 . S
H891 C914 0.950 . S
H892 C915 0.950 . S
H893 C917 0.950 . S
H894 C918 0.950 . S
H895 C919 0.951 . S
H896 C921 0.951 . S
H897 C923 0.950 . S
H898 C924 0.950 . S
H899 C926 0.950 . S
H900 C929 0.950 . S
H901 C930 0.950 . S
H902 C932 0.950 . S
H903 C933 0.950 . S
C904 H886 0.951 . S
C904 C905 1.366 . S
C904 C906 1.388 . S
C905 C904 1.366 . S
C905 C909 1.385 . S
C906 H887 0.951 . S
C906 C904 1.388 . S
C906 C907 1.366 . S
C907 C906 1.366 . S
C907 C908 1.414 . S
C907 C910 1.499 . S
C908 H888 0.950 . S
C908 C907 1.414 . S
C908 C909 1.374 . S
C909 H889 0.950 . S
C909 C905 1.385 . S
C909 C908 1.374 . S
C910 C907 1.499 . S
C910 C911 1.373 . S
C910 C912 1.389 . S
C911 H890 0.950 . S
C911 C910 1.373 . S
C911 C927 1.377 . S
C912 C910 1.389 . S
C912 C913 1.524 . S
C912 C926 1.377 . S
C913 C912 1.524 . S
C913 C914 1.397 . S
C913 C918 1.363 . S
C914 H891 0.950 . S
C914 C913 1.397 . S
C914 C915 1.334 . S
C915 H892 0.950 . S
C915 C914 1.334 . S
C915 C916 1.287 . S
C916 C915 1.287 . S
C916 C917 1.524 . S
C916 H935 0.913 . S
C917 H893 0.950 . S
C917 C916 1.524 . S
C917 C918 1.415 . S
C918 H894 0.950 . S
C918 C913 1.363 . S
C918 C917 1.415 . S
C919 H895 0.951 . S
C919 C920 1.366 . S
C919 C921 1.388 . S
C920 C919 1.366 . S
C920 C924 1.385 . S
C921 H896 0.951 . S
C921 C919 1.388 . S
C921 C922 1.366 . S
C922 C921 1.366 . S
C922 C923 1.414 . S
C922 C925 1.499 . S
C923 H897 0.950 . S
C923 C922 1.414 . S
C923 C924 1.374 . S
C924 H898 0.950 . S
C924 C920 1.385 . S
C924 C923 1.374 . S
C925 C922 1.499 . S
C925 C926 1.373 . S
C925 C927 1.389 . S
C926 H899 0.950 . S
C926 C912 1.377 . S
C926 C925 1.373 . S
C927 C911 1.377 . S
C927 C925 1.389 . S
C927 C928 1.524 . S
C928 C927 1.524 . S
C928 C929 1.397 . S
C928 C933 1.363 . S
C929 H900 0.950 . S
C929 C928 1.397 . S
C929 C930 1.334 . S
C930 H901 0.950 . S
C930 C929 1.334 . S
C930 C931 1.287 . S
C931 C930 1.287 . S
C931 C932 1.524 . S
C931 H934 0.999 . S
C932 H902 0.950 . S
C932 C931 1.524 . S
C932 C933 1.415 . S
C933 H903 0.950 . S
C933 C928 1.363 . S
C933 C932 1.415 . S
H934 C931 0.999 . S
H935 C916 0.913 . S
H936 C954 0.951 . S
H937 C956 0.951 . S
H938 C958 0.950 1_554 S
H939 C959 0.950 . S
H940 C961 0.950 . S
H941 C964 0.950 . S
H942 C965 0.950 . S
H943 C967 0.950 . S
H944 C968 0.950 . S
H945 C969 0.951 . S
H946 C971 0.951 . S
H947 C973 0.950 1_556 S
H948 C974 0.950 . S
H949 C976 0.950 . S
H950 C979 0.950 . S
H951 C980 0.950 . S
H952 C982 0.950 . S
H953 C983 0.950 . S
C954 H936 0.951 . S
C954 C955 1.366 . S
C954 C956 1.388 . S
C955 C954 1.366 . S
C955 C959 1.385 . S
C956 H937 0.951 . S
C956 C954 1.388 . S
C956 C957 1.366 . S
C957 C956 1.366 . S
C957 C958 1.414 . S
C957 C960 1.499 . S
C958 H938 0.950 1_556 S
C958 C957 1.414 . S
C958 C959 1.374 . S
C959 H939 0.950 . S
C959 C955 1.385 . S
C959 C958 1.374 . S
C960 C957 1.499 . S
C960 C961 1.373 1_556 S
C960 C962 1.389 . S
C961 H940 0.950 . S
C961 C960 1.373 1_554 S
C961 C977 1.377 . S
C962 C960 1.389 . S
C962 C963 1.524 . S
C962 C976 1.377 . S
C963 C962 1.524 . S
C963 C964 1.397 . S
C963 C968 1.363 . S
C964 H941 0.950 . S
C964 C963 1.397 . S
C964 C965 1.334 . S
C965 H942 0.950 . S
C965 C964 1.334 . S
C965 C966 1.287 . S
C966 C965 1.287 . S
C966 C967 1.524 . S
C966 H985 0.913 . S
C967 H943 0.950 . S
C967 C966 1.524 . S
C967 C968 1.415 . S
C968 H944 0.950 . S
C968 C963 1.363 . S
C968 C967 1.415 . S
C969 H945 0.951 . S
C969 C970 1.366 . S
C969 C971 1.388 . S
C970 C969 1.366 . S
C970 C974 1.385 . S
C971 H946 0.951 . S
C971 C969 1.388 . S
C971 C972 1.366 . S
C972 C971 1.366 . S
C972 C973 1.414 . S
C972 C975 1.499 . S
C973 H947 0.950 1_554 S
C973 C972 1.414 . S
C973 C974 1.374 . S
C974 H948 0.950 . S
C974 C970 1.385 . S
C974 C973 1.374 . S
C975 C972 1.499 . S
C975 C976 1.373 1_554 S
C975 C977 1.389 . S
C976 H949 0.950 . S
C976 C962 1.377 . S
C976 C975 1.373 1_556 S
C977 C961 1.377 . S
C977 C975 1.389 . S
C977 C978 1.524 . S
C978 C977 1.524 . S
C978 C979 1.397 . S
C978 C983 1.363 . S
C979 H950 0.950 . S
C979 C978 1.397 . S
C979 C980 1.334 . S
C980 H951 0.950 . S
C980 C979 1.334 . S
C980 C981 1.287 . S
C981 C980 1.287 . S
C981 C982 1.524 . S
C981 H984 0.999 . S
C982 H952 0.950 . S
C982 C981 1.524 . S
C982 C983 1.415 . S
C983 H953 0.950 . S
C983 C978 1.363 . S
C983 C982 1.415 . S
H984 C981 0.999 . S
H985 C966 0.913 . S
H986 C1004 0.951 . S
H987 C1006 0.951 . S
H988 C1008 0.950 . S
H989 C1009 0.950 . S
H990 C1011 0.950 . S
H991 C1014 0.950 . S
H992 C1015 0.950 . S
H993 C1017 0.950 . S
H994 C1018 0.950 . S
H995 C1019 0.951 . S
H996 C1021 0.951 . S
H997 C1023 0.950 . S
H998 C1024 0.950 . S
H999 C1026 0.950 . S
H1000 C1029 0.950 . S
H1001 C1030 0.950 . S
H1002 C1032 0.950 . S
H1003 C1033 0.950 . S
C1004 H986 0.951 . S
C1004 C1005 1.366 . S
C1004 C1006 1.388 . S
C1005 C1004 1.366 . S
C1005 C1009 1.385 . S
C1006 H987 0.951 . S
C1006 C1004 1.388 . S
C1006 C1007 1.366 . S
C1007 C1006 1.366 . S
C1007 C1008 1.414 . S
C1007 C1010 1.499 . S
C1008 H988 0.950 . S
C1008 C1007 1.414 . S
C1008 C1009 1.374 . S
C1009 H989 0.950 . S
C1009 C1005 1.385 . S
C1009 C1008 1.374 . S
C1010 C1007 1.499 . S
C1010 C1011 1.373 . S
C1010 C1012 1.389 . S
C1011 H990 0.950 . S
C1011 C1010 1.373 . S
C1011 C1027 1.377 . S
C1012 C1010 1.389 . S
C1012 C1013 1.524 . S
C1012 C1026 1.377 . S
C1013 C1012 1.524 . S
C1013 C1014 1.397 . S
C1013 C1018 1.363 . S
C1014 H991 0.950 . S
C1014 C1013 1.397 . S
C1014 C1015 1.334 . S
C1015 H992 0.950 . S
C1015 C1014 1.334 . S
C1015 C1016 1.287 . S
C1016 C1015 1.287 . S
C1016 C1017 1.524 . S
C1016 H1035 0.913 . S
C1017 H993 0.950 . S
C1017 C1016 1.524 . S
C1017 C1018 1.415 . S
C1018 H994 0.950 . S
C1018 C1013 1.363 . S
C1018 C1017 1.415 . S
C1019 H995 0.951 . S
C1019 C1020 1.366 . S
C1019 C1021 1.388 . S
C1020 C1019 1.366 . S
C1020 C1024 1.385 . S
C1021 H996 0.951 . S
C1021 C1019 1.388 . S
C1021 C1022 1.366 . S
C1022 C1021 1.366 . S
C1022 C1023 1.414 . S
C1022 C1025 1.499 . S
C1023 H997 0.950 . S
C1023 C1022 1.414 . S
C1023 C1024 1.374 . S
C1024 H998 0.950 . S
C1024 C1020 1.385 . S
C1024 C1023 1.374 . S
C1025 C1022 1.499 . S
C1025 C1026 1.373 . S
C1025 C1027 1.389 . S
C1026 H999 0.950 . S
C1026 C1012 1.377 . S
C1026 C1025 1.373 . S
C1027 C1011 1.377 . S
C1027 C1025 1.389 . S
C1027 C1028 1.524 . S
C1028 C1027 1.524 . S
C1028 C1029 1.397 . S
C1028 C1033 1.363 . S
C1029 H1000 0.950 . S
C1029 C1028 1.397 . S
C1029 C1030 1.334 . S
C1030 H1001 0.950 . S
C1030 C1029 1.334 . S
C1030 C1031 1.287 . S
C1031 C1030 1.287 . S
C1031 C1032 1.524 . S
C1031 H1034 0.999 . S
C1032 H1002 0.950 . S
C1032 C1031 1.524 . S
C1032 C1033 1.415 . S
C1033 H1003 0.950 . S
C1033 C1028 1.363 . S
C1033 C1032 1.415 . S
H1034 C1031 0.999 . S
H1035 C1016 0.913 . S
H1036 C1054 0.951 . S
H1037 C1056 0.951 . S
H1038 C1058 0.950 1_556 S
H1039 C1059 0.950 . S
H1040 C1061 0.950 . S
H1041 C1064 0.950 . S
H1042 C1065 0.950 . S
H1043 C1067 0.950 . S
H1044 C1068 0.950 . S
H1045 C1069 0.951 . S
H1046 C1071 0.951 . S
H1047 C1073 0.950 1_554 S
H1048 C1074 0.950 . S
H1049 C1076 0.950 . S
H1050 C1079 0.950 . S
H1051 C1080 0.950 . S
H1052 C1082 0.950 . S
H1053 C1083 0.950 . S
C1054 H1036 0.951 . S
C1054 C1055 1.366 . S
C1054 C1056 1.388 . S
C1055 C1054 1.366 . S
C1055 C1059 1.385 . S
C1056 H1037 0.951 . S
C1056 C1054 1.388 . S
C1056 C1057 1.366 . S
C1057 C1056 1.366 . S
C1057 C1058 1.414 . S
C1057 C1060 1.499 . S
C1058 H1038 0.950 1_554 S
C1058 C1057 1.414 . S
C1058 C1059 1.374 . S
C1059 H1039 0.950 . S
C1059 C1055 1.385 . S
C1059 C1058 1.374 . S
C1060 C1057 1.499 . S
C1060 C1061 1.373 1_554 S
C1060 C1062 1.389 . S
C1061 H1040 0.950 . S
C1061 C1060 1.373 1_556 S
C1061 C1077 1.377 . S
C1062 C1060 1.389 . S
C1062 C1063 1.524 . S
C1062 C1076 1.377 . S
C1063 C1062 1.524 . S
C1063 C1064 1.397 . S
C1063 C1068 1.363 . S
C1064 H1041 0.950 . S
C1064 C1063 1.397 . S
C1064 C1065 1.334 . S
C1065 H1042 0.950 . S
C1065 C1064 1.334 . S
C1065 C1066 1.287 . S
C1066 C1065 1.287 . S
C1066 C1067 1.524 . S
C1066 H1085 0.913 . S
C1067 H1043 0.950 . S
C1067 C1066 1.524 . S
C1067 C1068 1.415 . S
C1068 H1044 0.950 . S
C1068 C1063 1.363 . S
C1068 C1067 1.415 . S
C1069 H1045 0.951 . S
C1069 C1070 1.366 . S
C1069 C1071 1.388 . S
C1070 C1069 1.366 . S
C1070 C1074 1.385 . S
C1071 H1046 0.951 . S
C1071 C1069 1.388 . S
C1071 C1072 1.366 . S
C1072 C1071 1.366 . S
C1072 C1073 1.414 . S
C1072 C1075 1.499 . S
C1073 H1047 0.950 1_556 S
C1073 C1072 1.414 . S
C1073 C1074 1.374 . S
C1074 H1048 0.950 . S
C1074 C1070 1.385 . S
C1074 C1073 1.374 . S
C1075 C1072 1.499 . S
C1075 C1076 1.373 1_556 S
C1075 C1077 1.389 . S
C1076 H1049 0.950 . S
C1076 C1062 1.377 . S
C1076 C1075 1.373 1_554 S
C1077 C1061 1.377 . S
C1077 C1075 1.389 . S
C1077 C1078 1.524 . S
C1078 C1077 1.524 . S
C1078 C1079 1.397 . S
C1078 C1083 1.363 . S
C1079 H1050 0.950 . S
C1079 C1078 1.397 . S
C1079 C1080 1.334 . S
C1080 H1051 0.950 . S
C1080 C1079 1.334 . S
C1080 C1081 1.287 . S
C1081 C1080 1.287 . S
C1081 C1082 1.524 . S
C1081 H1084 0.999 . S
C1082 H1052 0.950 . S
C1082 C1081 1.524 . S
C1082 C1083 1.415 . S
C1083 H1053 0.950 . S
C1083 C1078 1.363 . S
C1083 C1082 1.415 . S
H1084 C1081 0.999 . S
H1085 C1066 0.913 . S
H1086 C1104 0.951 . S
H1087 C1106 0.951 . S
H1088 C1108 0.950 . S
H1089 C1109 0.950 . S
H1090 C1111 0.950 . S
H1091 C1114 0.950 . S
H1092 C1115 0.950 . S
H1093 C1117 0.950 . S
H1094 C1118 0.950 . S
H1095 C1119 0.951 . S
H1096 C1121 0.951 . S
H1097 C1123 0.950 . S
H1098 C1124 0.950 . S
H1099 C1126 0.950 . S
H1100 C1129 0.950 . S
H1101 C1130 0.950 . S
H1102 C1132 0.950 . S
H1103 C1133 0.950 . S
C1104 H1086 0.951 . S
C1104 C1105 1.366 . S
C1104 C1106 1.388 . S
C1105 C1104 1.366 . S
C1105 C1109 1.385 . S
C1106 H1087 0.951 . S
C1106 C1104 1.388 . S
C1106 C1107 1.366 . S
C1107 C1106 1.366 . S
C1107 C1108 1.414 . S
C1107 C1110 1.499 . S
C1108 H1088 0.950 . S
C1108 C1107 1.414 . S
C1108 C1109 1.374 . S
C1109 H1089 0.950 . S
C1109 C1105 1.385 . S
C1109 C1108 1.374 . S
C1110 C1107 1.499 . S
C1110 C1111 1.373 . S
C1110 C1112 1.389 . S
C1111 H1090 0.950 . S
C1111 C1110 1.373 . S
C1111 C1127 1.377 . S
C1112 C1110 1.389 . S
C1112 C1113 1.524 . S
C1112 C1126 1.377 . S
C1113 C1112 1.524 . S
C1113 C1114 1.397 . S
C1113 C1118 1.363 . S
C1114 H1091 0.950 . S
C1114 C1113 1.397 . S
C1114 C1115 1.334 . S
C1115 H1092 0.950 . S
C1115 C1114 1.334 . S
C1115 C1116 1.287 . S
C1116 C1115 1.287 . S
C1116 C1117 1.524 . S
C1116 H1135 0.913 . S
C1117 H1093 0.950 . S
C1117 C1116 1.524 . S
C1117 C1118 1.415 . S
C1118 H1094 0.950 . S
C1118 C1113 1.363 . S
C1118 C1117 1.415 . S
C1119 H1095 0.951 . S
C1119 C1120 1.366 . S
C1119 C1121 1.388 . S
C1120 C1119 1.366 . S
C1120 C1124 1.385 . S
C1121 H1096 0.951 . S
C1121 C1119 1.388 . S
C1121 C1122 1.366 . S
C1122 C1121 1.366 . S
C1122 C1123 1.414 . S
C1122 C1125 1.499 . S
C1123 H1097 0.950 . S
C1123 C1122 1.414 . S
C1123 C1124 1.374 . S
C1124 H1098 0.950 . S
C1124 C1120 1.385 . S
C1124 C1123 1.374 . S
C1125 C1122 1.499 . S
C1125 C1126 1.373 . S
C1125 C1127 1.389 . S
C1126 H1099 0.950 . S
C1126 C1112 1.377 . S
C1126 C1125 1.373 . S
C1127 C1111 1.377 . S
C1127 C1125 1.389 . S
C1127 C1128 1.524 . S
C1128 C1127 1.524 . S
C1128 C1129 1.397 . S
C1128 C1133 1.363 . S
C1129 H1100 0.950 . S
C1129 C1128 1.397 . S
C1129 C1130 1.334 . S
C1130 H1101 0.950 . S
C1130 C1129 1.334 . S
C1130 C1131 1.287 . S
C1131 C1130 1.287 . S
C1131 C1132 1.524 . S
C1131 H1134 0.999 . S
C1132 H1102 0.950 . S
C1132 C1131 1.524 . S
C1132 C1133 1.415 . S
C1133 H1103 0.950 . S
C1133 C1128 1.363 . S
C1133 C1132 1.415 . S
H1134 C1131 0.999 . S
H1135 C1116 0.913 . S
H1136 C1154 0.951 . S
H1137 C1156 0.951 . S
H1138 C1158 0.943 1_554 S
H1139 C1159 0.950 . S
H1140 C1161 0.950 . S
H1141 C1164 0.950 . S
H1142 C1165 0.950 . S
H1143 C1167 0.935 1_556 S
H1144 C1168 0.950 . S
H1145 C1169 0.951 . S
H1146 C1171 0.951 . S
H1147 C1173 0.943 1_556 S
H1148 C1174 0.950 . S
H1149 C1176 0.950 . S
H1150 C1179 0.950 . S
H1151 C1180 0.950 . S
H1152 C1182 0.935 1_554 S
H1153 C1183 0.950 . S
C1154 H1136 0.951 . S
C1154 C1155 1.366 . S
C1154 C1156 1.388 . S
C1155 C1154 1.366 . S
C1155 C1159 1.385 . S
C1156 H1137 0.951 . S
C1156 C1154 1.388 . S
C1156 C1157 1.366 . S
C1157 C1156 1.366 . S
C1157 C1158 1.414 . S
C1157 C1160 1.499 . S
C1158 H1138 0.943 1_556 S
C1158 C1157 1.414 . S
C1158 C1159 1.374 . S
C1159 H1139 0.950 . S
C1159 C1155 1.385 . S
C1159 C1158 1.374 . S
C1160 C1157 1.499 . S
C1160 C1161 1.373 . S
C1160 C1162 1.389 1_556 S
C1161 H1140 0.950 . S
C1161 C1160 1.373 . S
C1161 C1177 1.377 . S
C1162 C1160 1.389 1_554 S
C1162 C1163 1.524 . S
C1162 C1176 1.377 . S
C1163 C1162 1.524 . S
C1163 C1164 1.397 . S
C1163 C1168 1.363 1_554 S
C1164 H1141 0.950 . S
C1164 C1163 1.397 . S
C1164 C1165 1.334 . S
C1165 H1142 0.950 . S
C1165 C1164 1.334 . S
C1165 C1166 1.287 . S
C1166 C1165 1.287 . S
C1166 C1167 1.549 . S
C1166 H1185 0.913 . S
C1167 H1143 0.935 1_554 S
C1167 C1166 1.549 . S
C1167 C1168 1.408 1_554 S
C1168 H1144 0.950 . S
C1168 C1163 1.363 1_556 S
C1168 C1167 1.408 1_556 S
C1169 H1145 0.951 . S
C1169 C1170 1.366 . S
C1169 C1171 1.388 . S
C1170 C1169 1.366 . S
C1170 C1174 1.385 . S
C1171 H1146 0.951 . S
C1171 C1169 1.388 . S
C1171 C1172 1.366 . S
C1172 C1171 1.366 . S
C1172 C1173 1.414 . S
C1172 C1175 1.499 . S
C1173 H1147 0.943 1_554 S
C1173 C1172 1.414 . S
C1173 C1174 1.374 . S
C1174 H1148 0.950 . S
C1174 C1170 1.385 . S
C1174 C1173 1.374 . S
C1175 C1172 1.499 . S
C1175 C1176 1.373 . S
C1175 C1177 1.389 1_554 S
C1176 H1149 0.950 . S
C1176 C1162 1.377 . S
C1176 C1175 1.373 . S
C1177 C1161 1.377 . S
C1177 C1175 1.389 1_556 S
C1177 C1178 1.524 . S
C1178 C1177 1.524 . S
C1178 C1179 1.397 . S
C1178 C1183 1.363 1_556 S
C1179 H1150 0.950 . S
C1179 C1178 1.397 . S
C1179 C1180 1.334 . S
C1180 H1151 0.950 . S
C1180 C1179 1.334 . S
C1180 C1181 1.287 . S
C1181 C1180 1.287 . S
C1181 C1182 1.549 . S
C1181 H1184 0.999 . S
C1182 H1152 0.935 1_556 S
C1182 C1181 1.549 . S
C1182 C1183 1.408 1_556 S
C1183 H1153 0.950 . S
C1183 C1178 1.363 1_554 S
C1183 C1182 1.408 1_554 S
H1184 C1181 0.999 . S
H1185 C1166 0.913 . S
H1186 C1204 0.951 . S
H1187 C1206 0.951 . S
H1188 C1208 0.950 . S
H1189 C1209 0.950 . S
H1190 C1211 0.950 . S
H1191 C1214 0.950 . S
H1192 C1215 0.950 . S
H1193 C1217 0.950 . S
H1194 C1218 0.950 . S
H1195 C1219 0.951 . S
H1196 C1221 0.951 . S
H1197 C1223 0.950 . S
H1198 C1224 0.950 . S
H1199 C1226 0.950 . S
H1200 C1229 0.950 . S
H1201 C1230 0.950 . S
H1202 C1232 0.950 . S
H1203 C1233 0.950 . S
C1204 H1186 0.951 . S
C1204 C1205 1.366 . S
C1204 C1206 1.388 . S
C1205 C1204 1.366 . S
C1205 C1209 1.385 . S
C1206 H1187 0.951 . S
C1206 C1204 1.388 . S
C1206 C1207 1.366 . S
C1207 C1206 1.366 . S
C1207 C1208 1.414 . S
C1207 C1210 1.499 . S
C1208 H1188 0.950 . S
C1208 C1207 1.414 . S
C1208 C1209 1.374 . S
C1209 H1189 0.950 . S
C1209 C1205 1.385 . S
C1209 C1208 1.374 . S
C1210 C1207 1.499 . S
C1210 C1211 1.373 . S
C1210 C1212 1.389 . S
C1211 H1190 0.950 . S
C1211 C1210 1.373 . S
C1211 C1227 1.377 . S
C1212 C1210 1.389 . S
C1212 C1213 1.524 . S
C1212 C1226 1.377 . S
C1213 C1212 1.524 . S
C1213 C1214 1.397 . S
C1213 C1218 1.363 . S
C1214 H1191 0.950 . S
C1214 C1213 1.397 . S
C1214 C1215 1.334 . S
C1215 H1192 0.950 . S
C1215 C1214 1.334 . S
C1215 C1216 1.287 . S
C1216 C1215 1.287 . S
C1216 C1217 1.524 . S
C1216 H1235 0.913 . S
C1217 H1193 0.950 . S
C1217 C1216 1.524 . S
C1217 C1218 1.415 . S
C1218 H1194 0.950 . S
C1218 C1213 1.363 . S
C1218 C1217 1.415 . S
C1219 H1195 0.951 . S
C1219 C1220 1.366 . S
C1219 C1221 1.388 . S
C1220 C1219 1.366 . S
C1220 C1224 1.385 . S
C1221 H1196 0.951 . S
C1221 C1219 1.388 . S
C1221 C1222 1.366 . S
C1222 C1221 1.366 . S
C1222 C1223 1.414 . S
C1222 C1225 1.499 . S
C1223 H1197 0.950 . S
C1223 C1222 1.414 . S
C1223 C1224 1.374 . S
C1224 H1198 0.950 . S
C1224 C1220 1.385 . S
C1224 C1223 1.374 . S
C1225 C1222 1.499 . S
C1225 C1226 1.373 . S
C1225 C1227 1.389 . S
C1226 H1199 0.950 . S
C1226 C1212 1.377 . S
C1226 C1225 1.373 . S
C1227 C1211 1.377 . S
C1227 C1225 1.389 . S
C1227 C1228 1.524 . S
C1228 C1227 1.524 . S
C1228 C1229 1.397 . S
C1228 C1233 1.363 . S
C1229 H1200 0.950 . S
C1229 C1228 1.397 . S
C1229 C1230 1.334 . S
C1230 H1201 0.950 . S
C1230 C1229 1.334 . S
C1230 C1231 1.287 . S
C1231 C1230 1.287 . S
C1231 C1232 1.524 . S
C1231 H1234 0.999 . S
C1232 H1202 0.950 . S
C1232 C1231 1.524 . S
C1232 C1233 1.415 . S
C1233 H1203 0.950 . S
C1233 C1228 1.363 . S
C1233 C1232 1.415 . S
H1234 C1231 0.999 . S
H1235 C1216 0.913 . S
H1236 C1254 0.951 . S
H1237 C1256 0.951 . S
H1238 C1258 0.950 1_556 S
H1239 C1259 0.950 . S
H1240 C1261 0.950 . S
H1241 C1264 0.950 . S
H1242 C1265 0.950 . S
H1243 C1267 0.950 . S
H1244 C1268 0.950 . S
H1245 C1269 0.951 . S
H1246 C1271 0.951 . S
H1247 C1273 0.950 1_554 S
H1248 C1274 0.950 . S
H1249 C1276 0.950 . S
H1250 C1279 0.950 . S
H1251 C1280 0.950 . S
H1252 C1282 0.950 . S
H1253 C1283 0.950 . S
C1254 H1236 0.951 . S
C1254 C1255 1.366 . S
C1254 C1256 1.388 . S
C1255 C1254 1.366 . S
C1255 C1259 1.385 . S
C1256 H1237 0.951 . S
C1256 C1254 1.388 . S
C1256 C1257 1.366 . S
C1257 C1256 1.366 . S
C1257 C1258 1.414 . S
C1257 C1260 1.499 . S
C1258 H1238 0.950 1_554 S
C1258 C1257 1.414 . S
C1258 C1259 1.374 . S
C1259 H1239 0.950 . S
C1259 C1255 1.385 . S
C1259 C1258 1.374 . S
C1260 C1257 1.499 . S
C1260 C1261 1.373 1_554 S
C1260 C1262 1.389 . S
C1261 H1240 0.950 . S
C1261 C1260 1.373 1_556 S
C1261 C1277 1.377 . S
C1262 C1260 1.389 . S
C1262 C1263 1.524 . S
C1262 C1276 1.377 . S
C1263 C1262 1.524 . S
C1263 C1264 1.397 . S
C1263 C1268 1.363 . S
C1264 H1241 0.950 . S
C1264 C1263 1.397 . S
C1264 C1265 1.334 . S
C1265 H1242 0.950 . S
C1265 C1264 1.334 . S
C1265 C1266 1.287 . S
C1266 C1265 1.287 . S
C1266 C1267 1.524 . S
C1266 H1285 0.913 . S
C1267 H1243 0.950 . S
C1267 C1266 1.524 . S
C1267 C1268 1.415 . S
C1268 H1244 0.950 . S
C1268 C1263 1.363 . S
C1268 C1267 1.415 . S
C1269 H1245 0.951 . S
C1269 C1270 1.366 . S
C1269 C1271 1.388 . S
C1270 C1269 1.366 . S
C1270 C1274 1.385 . S
C1271 H1246 0.951 . S
C1271 C1269 1.388 . S
C1271 C1272 1.366 . S
C1272 C1271 1.366 . S
C1272 C1273 1.414 . S
C1272 C1275 1.499 . S
C1273 H1247 0.950 1_556 S
C1273 C1272 1.414 . S
C1273 C1274 1.374 . S
C1274 H1248 0.950 . S
C1274 C1270 1.385 . S
C1274 C1273 1.374 . S
C1275 C1272 1.499 . S
C1275 C1276 1.373 1_556 S
C1275 C1277 1.389 . S
C1276 H1249 0.950 . S
C1276 C1262 1.377 . S
C1276 C1275 1.373 1_554 S
C1277 C1261 1.377 . S
C1277 C1275 1.389 . S
C1277 C1278 1.524 . S
C1278 C1277 1.524 . S
C1278 C1279 1.397 . S
C1278 C1283 1.363 . S
C1279 H1250 0.950 . S
C1279 C1278 1.397 . S
C1279 C1280 1.334 . S
C1280 H1251 0.950 . S
C1280 C1279 1.334 . S
C1280 C1281 1.287 . S
C1281 C1280 1.287 . S
C1281 C1282 1.524 . S
C1281 H1284 0.999 . S
C1282 H1252 0.950 . S
C1282 C1281 1.524 . S
C1282 C1283 1.415 . S
C1283 H1253 0.950 . S
C1283 C1278 1.363 . S
C1283 C1282 1.415 . S
H1284 C1281 0.999 . S
H1285 C1266 0.913 . S
H1286 C1304 0.951 . S
H1287 C1306 0.951 . S
H1288 C1308 0.950 . S
H1289 C1309 0.950 . S
H1290 C1311 0.950 . S
H1291 C1314 0.950 . S
H1292 C1315 0.950 . S
H1293 C1317 0.950 . S
H1294 C1318 0.950 . S
H1295 C1319 0.951 . S
H1296 C1321 0.951 . S
H1297 C1323 0.950 . S
H1298 C1324 0.950 . S
H1299 C1326 0.950 . S
H1300 C1329 0.950 . S
H1301 C1330 0.950 . S
H1302 C1332 0.950 . S
H1303 C1333 0.950 . S
C1304 H1286 0.951 . S
C1304 C1305 1.366 . S
C1304 C1306 1.388 . S
C1305 C1304 1.366 . S
C1305 C1309 1.385 . S
C1306 H1287 0.951 . S
C1306 C1304 1.388 . S
C1306 C1307 1.366 . S
C1307 C1306 1.366 . S
C1307 C1308 1.414 . S
C1307 C1310 1.499 . S
C1308 H1288 0.950 . S
C1308 C1307 1.414 . S
C1308 C1309 1.374 . S
C1309 H1289 0.950 . S
C1309 C1305 1.385 . S
C1309 C1308 1.374 . S
C1310 C1307 1.499 . S
C1310 C1311 1.373 . S
C1310 C1312 1.389 . S
C1311 H1290 0.950 . S
C1311 C1310 1.373 . S
C1311 C1327 1.377 . S
C1312 C1310 1.389 . S
C1312 C1313 1.524 . S
C1312 C1326 1.377 . S
C1313 C1312 1.524 . S
C1313 C1314 1.397 . S
C1313 C1318 1.363 . S
C1314 H1291 0.950 . S
C1314 C1313 1.397 . S
C1314 C1315 1.334 . S
C1315 H1292 0.950 . S
C1315 C1314 1.334 . S
C1315 C1316 1.287 . S
C1316 C1315 1.287 . S
C1316 C1317 1.524 . S
C1316 H1335 0.913 . S
C1317 H1293 0.950 . S
C1317 C1316 1.524 . S
C1317 C1318 1.415 . S
C1318 H1294 0.950 . S
C1318 C1313 1.363 . S
C1318 C1317 1.415 . S
C1319 H1295 0.951 . S
C1319 C1320 1.366 . S
C1319 C1321 1.388 . S
C1320 C1319 1.366 . S
C1320 C1324 1.385 . S
C1321 H1296 0.951 . S
C1321 C1319 1.388 . S
C1321 C1322 1.366 . S
C1322 C1321 1.366 . S
C1322 C1323 1.414 . S
C1322 C1325 1.499 . S
C1323 H1297 0.950 . S
C1323 C1322 1.414 . S
C1323 C1324 1.374 . S
C1324 H1298 0.950 . S
C1324 C1320 1.385 . S
C1324 C1323 1.374 . S
C1325 C1322 1.499 . S
C1325 C1326 1.373 . S
C1325 C1327 1.389 . S
C1326 H1299 0.950 . S
C1326 C1312 1.377 . S
C1326 C1325 1.373 . S
C1327 C1311 1.377 . S
C1327 C1325 1.389 . S
C1327 C1328 1.524 . S
C1328 C1327 1.524 . S
C1328 C1329 1.397 . S
C1328 C1333 1.363 . S
C1329 H1300 0.950 . S
C1329 C1328 1.397 . S
C1329 C1330 1.334 . S
C1330 H1301 0.950 . S
C1330 C1329 1.334 . S
C1330 C1331 1.287 . S
C1331 C1330 1.287 . S
C1331 C1332 1.524 . S
C1331 H1334 0.999 . S
C1332 H1302 0.950 . S
C1332 C1331 1.524 . S
C1332 C1333 1.415 . S
C1333 H1303 0.950 . S
C1333 C1328 1.363 . S
C1333 C1332 1.415 . S
H1334 C1331 0.999 . S
H1335 C1316 0.913 . S
H1336 C1354 0.951 . S
H1337 C1356 0.951 1_554 S
H1338 C1358 0.950 . S
H1339 C1359 0.950 . S
H1340 C1361 0.950 . S
H1341 C1364 0.950 . S
H1342 C1365 0.950 . S
H1343 C1367 0.950 . S
H1344 C1368 0.950 . S
H1345 C1369 0.951 . S
H1346 C1371 0.951 1_556 S
H1347 C1373 0.950 . S
H1348 C1374 0.950 . S
H1349 C1376 0.950 . S
H1350 C1379 0.950 . S
H1351 C1380 0.950 . S
H1352 C1382 0.950 . S
H1353 C1383 0.950 . S
C1354 H1336 0.951 . S
C1354 C1355 1.366 . S
C1354 C1356 1.388 . S
C1355 C1354 1.366 . S
C1355 C1359 1.385 . S
C1356 H1337 0.951 1_556 S
C1356 C1354 1.388 . S
C1356 C1357 1.366 . S
C1357 C1356 1.366 . S
C1357 C1358 1.414 . S
C1357 C1360 1.499 . S
C1358 H1338 0.950 . S
C1358 C1357 1.414 . S
C1358 C1359 1.374 . S
C1359 H1339 0.950 . S
C1359 C1355 1.385 . S
C1359 C1358 1.374 . S
C1360 C1357 1.499 . S
C1360 C1361 1.373 . S
C1360 C1362 1.389 1_556 S
C1361 H1340 0.950 . S
C1361 C1360 1.373 . S
C1361 C1377 1.377 . S
C1362 C1360 1.389 1_554 S
C1362 C1363 1.524 . S
C1362 C1376 1.377 . S
C1363 C1362 1.524 . S
C1363 C1364 1.397 . S
C1363 C1368 1.363 . S
C1364 H1341 0.950 . S
C1364 C1363 1.397 . S
C1364 C1365 1.334 . S
C1365 H1342 0.950 . S
C1365 C1364 1.334 . S
C1365 C1366 1.287 . S
C1366 C1365 1.287 . S
C1366 C1367 1.524 . S
C1366 H1385 0.913 . S
C1367 H1343 0.950 . S
C1367 C1366 1.524 . S
C1367 C1368 1.415 . S
C1368 H1344 0.950 . S
C1368 C1363 1.363 . S
C1368 C1367 1.415 . S
C1369 H1345 0.951 . S
C1369 C1370 1.366 . S
C1369 C1371 1.388 . S
C1370 C1369 1.366 . S
C1370 C1374 1.385 . S
C1371 H1346 0.951 1_554 S
C1371 C1369 1.388 . S
C1371 C1372 1.366 . S
C1372 C1371 1.366 . S
C1372 C1373 1.414 . S
C1372 C1375 1.499 . S
C1373 H1347 0.950 . S
C1373 C1372 1.414 . S
C1373 C1374 1.374 . S
C1374 H1348 0.950 . S
C1374 C1370 1.385 . S
C1374 C1373 1.374 . S
C1375 C1372 1.499 . S
C1375 C1376 1.373 . S
C1375 C1377 1.389 1_554 S
C1376 H1349 0.950 . S
C1376 C1362 1.377 . S
C1376 C1375 1.373 . S
C1377 C1361 1.377 . S
C1377 C1375 1.389 1_556 S
C1377 C1378 1.524 . S
C1378 C1377 1.524 . S
C1378 C1379 1.397 . S
C1378 C1383 1.363 . S
C1379 H1350 0.950 . S
C1379 C1378 1.397 . S
C1379 C1380 1.334 . S
C1380 H1351 0.950 . S
C1380 C1379 1.334 . S
C1380 C1381 1.287 . S
C1381 C1380 1.287 . S
C1381 C1382 1.524 . S
C1381 H1384 0.999 . S
C1382 H1352 0.950 . S
C1382 C1381 1.524 . S
C1382 C1383 1.415 . S
C1383 H1353 0.950 . S
C1383 C1378 1.363 . S
C1383 C1382 1.415 . S
H1384 C1381 0.999 . S
H1385 C1366 0.913 . S
H1386 C1404 0.951 . S
H1387 C1406 0.951 . S
H1388 C1408 0.950 . S
H1389 C1409 0.950 . S
H1390 C1411 0.950 . S
H1391 C1414 0.950 . S
H1392 C1415 0.950 . S
H1393 C1417 0.950 . S
H1394 C1418 0.950 . S
H1395 C1419 0.951 . S
H1396 C1421 0.951 . S
H1397 C1423 0.950 . S
H1398 C1424 0.950 . S
H1399 C1426 0.950 . S
H1400 C1429 0.950 . S
H1401 C1430 0.950 . S
H1402 C1432 0.950 . S
H1403 C1433 0.950 . S
C1404 H1386 0.951 . S
C1404 C1405 1.366 . S
C1404 C1406 1.388 . S
C1405 C1404 1.366 . S
C1405 C1409 1.385 . S
C1406 H1387 0.951 . S
C1406 C1404 1.388 . S
C1406 C1407 1.366 . S
C1407 C1406 1.366 . S
C1407 C1408 1.414 . S
C1407 C1410 1.499 . S
C1408 H1388 0.950 . S
C1408 C1407 1.414 . S
C1408 C1409 1.374 . S
C1409 H1389 0.950 . S
C1409 C1405 1.385 . S
C1409 C1408 1.374 . S
C1410 C1407 1.499 . S
C1410 C1411 1.373 . S
C1410 C1412 1.389 . S
C1411 H1390 0.950 . S
C1411 C1410 1.373 . S
C1411 C1427 1.377 . S
C1412 C1410 1.389 . S
C1412 C1413 1.524 . S
C1412 C1426 1.377 . S
C1413 C1412 1.524 . S
C1413 C1414 1.397 . S
C1413 C1418 1.363 . S
C1414 H1391 0.950 . S
C1414 C1413 1.397 . S
C1414 C1415 1.334 . S
C1415 H1392 0.950 . S
C1415 C1414 1.334 . S
C1415 C1416 1.287 . S
C1416 C1415 1.287 . S
C1416 C1417 1.524 . S
C1416 H1435 0.913 . S
C1417 H1393 0.950 . S
C1417 C1416 1.524 . S
C1417 C1418 1.415 . S
C1418 H1394 0.950 . S
C1418 C1413 1.363 . S
C1418 C1417 1.415 . S
C1419 H1395 0.951 . S
C1419 C1420 1.366 . S
C1419 C1421 1.388 . S
C1420 C1419 1.366 . S
C1420 C1424 1.385 . S
C1421 H1396 0.951 . S
C1421 C1419 1.388 . S
C1421 C1422 1.366 . S
C1422 C1421 1.366 . S
C1422 C1423 1.414 . S
C1422 C1425 1.499 . S
C1423 H1397 0.950 . S
C1423 C1422 1.414 . S
C1423 C1424 1.374 . S
C1424 H1398 0.950 . S
C1424 C1420 1.385 . S
C1424 C1423 1.374 . S
C1425 C1422 1.499 . S
C1425 C1426 1.373 . S
C1425 C1427 1.389 . S
C1426 H1399 0.950 . S
C1426 C1412 1.377 . S
C1426 C1425 1.373 . S
C1427 C1411 1.377 . S
C1427 C1425 1.389 . S
C1427 C1428 1.524 . S
C1428 C1427 1.524 . S
C1428 C1429 1.397 . S
C1428 C1433 1.363 . S
C1429 H1400 0.950 . S
C1429 C1428 1.397 . S
C1429 C1430 1.334 . S
C1430 H1401 0.950 . S
C1430 C1429 1.334 . S
C1430 C1431 1.287 . S
C1431 C1430 1.287 . S
C1431 C1432 1.524 . S
C1431 H1434 0.999 . S
C1432 H1402 0.950 . S
C1432 C1431 1.524 . S
C1432 C1433 1.415 . S
C1433 H1403 0.950 . S
C1433 C1428 1.363 . S
C1433 C1432 1.415 . S
H1434 C1431 0.999 . S
H1435 C1416 0.913 . S
H1436 C1454 0.951 . S
H1437 C1456 0.951 . S
H1438 C1458 0.950 . S
H1439 C1459 0.950 . S
H1440 C1461 0.950 . S
H1441 C1464 0.950 . S
H1442 C1465 0.950 . S
H1443 C1467 0.950 . S
H1444 C1468 0.950 . S
H1445 C1469 0.951 . S
H1446 C1471 0.951 . S
H1447 C1473 0.950 . S
H1448 C1474 0.950 . S
H1449 C1476 0.950 . S
H1450 C1479 0.950 . S
H1451 C1480 0.950 . S
H1452 C1482 0.950 . S
H1453 C1483 0.950 . S
C1454 H1436 0.951 . S
C1454 C1455 1.366 . S
C1454 C1456 1.388 . S
C1455 C1454 1.366 . S
C1455 C1459 1.385 . S
C1456 H1437 0.951 . S
C1456 C1454 1.388 . S
C1456 C1457 1.366 . S
C1457 C1456 1.366 . S
C1457 C1458 1.414 . S
C1457 C1460 1.499 . S
C1458 H1438 0.950 . S
C1458 C1457 1.414 . S
C1458 C1459 1.374 . S
C1459 H1439 0.950 . S
C1459 C1455 1.385 . S
C1459 C1458 1.374 . S
C1460 C1457 1.499 . S
C1460 C1461 1.373 1_556 S
C1460 C1462 1.389 . S
C1461 H1440 0.950 . S
C1461 C1460 1.373 1_554 S
C1461 C1477 1.377 . S
C1462 C1460 1.389 . S
C1462 C1463 1.524 . S
C1462 C1476 1.377 . S
C1463 C1462 1.524 . S
C1463 C1464 1.397 . S
C1463 C1468 1.363 . S
C1464 H1441 0.950 . S
C1464 C1463 1.397 . S
C1464 C1465 1.334 . S
C1465 H1442 0.950 . S
C1465 C1464 1.334 . S
C1465 C1466 1.287 . S
C1466 C1465 1.287 . S
C1466 C1467 1.524 . S
C1466 H1485 0.913 . S
C1467 H1443 0.950 . S
C1467 C1466 1.524 . S
C1467 C1468 1.415 . S
C1468 H1444 0.950 . S
C1468 C1463 1.363 . S
C1468 C1467 1.415 . S
C1469 H1445 0.951 . S
C1469 C1470 1.366 . S
C1469 C1471 1.388 . S
C1470 C1469 1.366 . S
C1470 C1474 1.385 . S
C1471 H1446 0.951 . S
C1471 C1469 1.388 . S
C1471 C1472 1.366 . S
C1472 C1471 1.366 . S
C1472 C1473 1.414 . S
C1472 C1475 1.499 . S
C1473 H1447 0.950 . S
C1473 C1472 1.414 . S
C1473 C1474 1.374 . S
C1474 H1448 0.950 . S
C1474 C1470 1.385 . S
C1474 C1473 1.374 . S
C1475 C1472 1.499 . S
C1475 C1476 1.373 1_554 S
C1475 C1477 1.389 . S
C1476 H1449 0.950 . S
C1476 C1462 1.377 . S
C1476 C1475 1.373 1_556 S
C1477 C1461 1.377 . S
C1477 C1475 1.389 . S
C1477 C1478 1.524 . S
C1478 C1477 1.524 . S
C1478 C1479 1.397 . S
C1478 C1483 1.363 . S
C1479 H1450 0.950 . S
C1479 C1478 1.397 . S
C1479 C1480 1.334 . S
C1480 H1451 0.950 . S
C1480 C1479 1.334 . S
C1480 C1481 1.287 . S
C1481 C1480 1.287 . S
C1481 C1482 1.524 . S
C1481 H1484 0.999 . S
C1482 H1452 0.950 . S
C1482 C1481 1.524 . S
C1482 C1483 1.415 . S
C1483 H1453 0.950 . S
C1483 C1478 1.363 . S
C1483 C1482 1.415 . S
H1484 C1481 0.999 . S
H1485 C1466 0.913 . S
H1486 C1504 0.951 . S
H1487 C1506 0.951 . S
H1488 C1508 0.950 . S
H1489 C1509 0.950 . S
H1490 C1511 0.950 . S
H1491 C1514 0.950 . S
H1492 C1515 0.950 . S
H1493 C1517 0.950 . S
H1494 C1518 0.950 . S
H1495 C1519 0.951 . S
H1496 C1521 0.951 . S
H1497 C1523 0.950 . S
H1498 C1524 0.950 . S
H1499 C1526 0.950 . S
H1500 C1529 0.950 . S
H1501 C1530 0.950 . S
H1502 C1532 0.950 . S
H1503 C1533 0.950 . S
C1504 H1486 0.951 . S
C1504 C1505 1.366 . S
C1504 C1506 1.388 . S
C1505 C1504 1.366 . S
C1505 C1509 1.385 . S
C1506 H1487 0.951 . S
C1506 C1504 1.388 . S
C1506 C1507 1.366 . S
C1507 C1506 1.366 . S
C1507 C1508 1.414 . S
C1507 C1510 1.499 . S
C1508 H1488 0.950 . S
C1508 C1507 1.414 . S
C1508 C1509 1.374 . S
C1509 H1489 0.950 . S
C1509 C1505 1.385 . S
C1509 C1508 1.374 . S
C1510 C1507 1.499 . S
C1510 C1511 1.373 . S
C1510 C1512 1.389 . S
C1511 H1490 0.950 . S
C1511 C1510 1.373 . S
C1511 C1527 1.377 . S
C1512 C1510 1.389 . S
C1512 C1513 1.524 . S
C1512 C1526 1.377 . S
C1513 C1512 1.524 . S
C1513 C1514 1.397 . S
C1513 C1518 1.363 . S
C1514 H1491 0.950 . S
C1514 C1513 1.397 . S
C1514 C1515 1.334 . S
C1515 H1492 0.950 . S
C1515 C1514 1.334 . S
C1515 C1516 1.287 . S
C1516 C1515 1.287 . S
C1516 C1517 1.524 . S
C1516 H1535 0.913 . S
C1517 H1493 0.950 . S
C1517 C1516 1.524 . S
C1517 C1518 1.415 . S
C1518 H1494 0.950 . S
C1518 C1513 1.363 . S
C1518 C1517 1.415 . S
C1519 H1495 0.951 . S
C1519 C1520 1.366 . S
C1519 C1521 1.388 . S
C1520 C1519 1.366 . S
C1520 C1524 1.385 . S
C1521 H1496 0.951 . S
C1521 C1519 1.388 . S
C1521 C1522 1.366 . S
C1522 C1521 1.366 . S
C1522 C1523 1.414 . S
C1522 C1525 1.499 . S
C1523 H1497 0.950 . S
C1523 C1522 1.414 . S
C1523 C1524 1.374 . S
C1524 H1498 0.950 . S
C1524 C1520 1.385 . S
C1524 C1523 1.374 . S
C1525 C1522 1.499 . S
C1525 C1526 1.373 . S
C1525 C1527 1.389 . S
C1526 H1499 0.950 . S
C1526 C1512 1.377 . S
C1526 C1525 1.373 . S
C1527 C1511 1.377 . S
C1527 C1525 1.389 . S
C1527 C1528 1.524 . S
C1528 C1527 1.524 . S
C1528 C1529 1.397 . S
C1528 C1533 1.363 . S
C1529 H1500 0.950 . S
C1529 C1528 1.397 . S
C1529 C1530 1.334 . S
C1530 H1501 0.950 . S
C1530 C1529 1.334 . S
C1530 C1531 1.287 . S
C1531 C1530 1.287 . S
C1531 C1532 1.524 . S
C1531 H1534 0.999 . S
C1532 H1502 0.950 . S
C1532 C1531 1.524 . S
C1532 C1533 1.415 . S
C1533 H1503 0.950 . S
C1533 C1528 1.363 . S
C1533 C1532 1.415 . S
H1534 C1531 0.999 . S
H1535 C1516 0.913 . S
H1536 C1554 0.951 . S
H1537 C1556 0.951 . S
H1538 C1558 0.950 . S
H1539 C1559 0.950 . S
H1540 C1561 0.950 . S
H1541 C1564 0.950 . S
H1542 C1565 0.950 . S
H1543 C1567 0.950 . S
H1544 C1568 0.950 . S
H1545 C1569 0.951 . S
H1546 C1571 0.951 . S
H1547 C1573 0.950 . S
H1548 C1574 0.950 . S
H1549 C1576 0.950 . S
H1550 C1579 0.950 . S
H1551 C1580 0.950 . S
H1552 C1582 0.950 . S
H1553 C1583 0.934 1_554 S
C1554 H1536 0.951 . S
C1554 C1555 1.366 . S
C1554 C1556 1.388 . S
C1555 C1554 1.366 . S
C1555 C1559 1.385 . S
C1556 H1537 0.951 . S
C1556 C1554 1.388 . S
C1556 C1557 1.366 . S
C1557 C1556 1.366 . S
C1557 C1558 1.414 . S
C1557 C1560 1.499 . S
C1558 H1538 0.950 . S
C1558 C1557 1.414 . S
C1558 C1559 1.374 . S
C1559 H1539 0.950 . S
C1559 C1555 1.385 . S
C1559 C1558 1.374 . S
C1560 C1557 1.499 . S
C1560 C1561 1.373 . S
C1560 C1562 1.389 . S
C1561 H1540 0.950 . S
C1561 C1560 1.373 . S
C1561 C1577 1.377 . S
C1562 C1560 1.389 . S
C1562 C1563 1.524 . S
C1562 C1576 1.377 . S
C1563 C1562 1.524 . S
C1563 C1564 1.397 . S
C1563 C1568 1.363 . S
C1564 H1541 0.950 . S
C1564 C1563 1.397 . S
C1564 C1565 1.334 . S
C1565 H1542 0.950 . S
C1565 C1564 1.334 . S
C1565 C1566 1.287 . S
C1566 C1565 1.287 . S
C1566 C1567 1.524 . S
C1566 H1585 0.913 . S
C1567 H1543 0.950 . S
C1567 C1566 1.524 . S
C1567 C1568 1.415 . S
C1568 H1544 0.950 . S
C1568 C1563 1.363 . S
C1568 C1567 1.415 . S
C1569 H1545 0.951 . S
C1569 C1570 1.366 . S
C1569 C1571 1.388 . S
C1570 C1569 1.366 . S
C1570 C1574 1.385 . S
C1571 H1546 0.951 . S
C1571 C1569 1.388 . S
C1571 C1572 1.366 . S
C1572 C1571 1.366 . S
C1572 C1573 1.414 . S
C1572 C1575 1.499 . S
C1573 H1547 0.950 . S
C1573 C1572 1.414 . S
C1573 C1574 1.374 . S
C1574 H1548 0.950 . S
C1574 C1570 1.385 . S
C1574 C1573 1.374 . S
C1575 C1572 1.499 . S
C1575 C1576 1.373 . S
C1575 C1577 1.389 . S
C1576 H1549 0.950 . S
C1576 C1562 1.377 . S
C1576 C1575 1.373 . S
C1577 C1561 1.377 . S
C1577 C1575 1.389 . S
C1577 C1578 1.524 . S
C1578 C1577 1.524 . S
C1578 C1579 1.397 . S
C1578 C1583 1.335 1_554 S
C1579 H1550 0.950 . S
C1579 C1578 1.397 . S
C1579 C1580 1.334 1_554 S
C1580 H1551 0.950 . S
C1580 C1579 1.334 1_556 S
C1580 C1581 1.287 . S
C1581 C1580 1.287 . S
C1581 C1582 1.524 . S
C1581 H1584 0.999 . S
C1582 H1552 0.950 . S
C1582 C1581 1.524 . S
C1582 C1583 1.460 . S
C1583 H1553 0.934 1_556 S
C1583 C1578 1.335 1_556 S
C1583 C1582 1.460 . S
H1584 C1581 0.999 . S
H1585 C1566 0.913 . S
H1586 C1604 0.951 . S
H1587 C1606 0.951 . S
H1588 C1608 0.950 . S
H1589 C1609 0.950 . S
H1590 C1611 0.950 . S
H1591 C1614 0.950 . S
H1592 C1615 0.950 . S
H1593 C1617 0.950 . S
H1594 C1618 0.950 . S
H1595 C1619 0.951 . S
H1596 C1621 0.951 . S
H1597 C1623 0.950 . S
H1598 C1624 0.950 . S
H1599 C1626 0.950 . S
H1600 C1629 0.950 . S
H1601 C1630 0.950 . S
H1602 C1632 0.950 . S
H1603 C1633 0.950 . S
C1604 H1586 0.951 . S
C1604 C1605 1.366 . S
C1604 C1606 1.388 . S
C1605 C1604 1.366 . S
C1605 C1609 1.385 . S
C1606 H1587 0.951 . S
C1606 C1604 1.388 . S
C1606 C1607 1.366 . S
C1607 C1606 1.366 . S
C1607 C1608 1.414 . S
C1607 C1610 1.499 . S
C1608 H1588 0.950 . S
C1608 C1607 1.414 . S
C1608 C1609 1.374 . S
C1609 H1589 0.950 . S
C1609 C1605 1.385 . S
C1609 C1608 1.374 . S
C1610 C1607 1.499 . S
C1610 C1611 1.373 . S
C1610 C1612 1.389 . S
C1611 H1590 0.950 . S
C1611 C1610 1.373 . S
C1611 C1627 1.377 1_455 S
C1612 C1610 1.389 . S
C1612 C1613 1.524 . S
C1612 C1626 1.377 1_455 S
C1613 C1612 1.524 . S
C1613 C1614 1.397 . S
C1613 C1618 1.363 . S
C1614 H1591 0.950 . S
C1614 C1613 1.397 . S
C1614 C1615 1.334 . S
C1615 H1592 0.950 . S
C1615 C1614 1.334 . S
C1615 C1616 1.287 . S
C1616 C1615 1.287 . S
C1616 C1617 1.524 . S
C1616 H1635 0.913 . S
C1617 H1593 0.950 . S
C1617 C1616 1.524 . S
C1617 C1618 1.415 . S
C1618 H1594 0.950 . S
C1618 C1613 1.363 . S
C1618 C1617 1.415 . S
C1619 H1595 0.951 . S
C1619 C1620 1.366 . S
C1619 C1621 1.388 . S
C1620 C1619 1.366 . S
C1620 C1624 1.385 . S
C1621 H1596 0.951 . S
C1621 C1619 1.388 . S
C1621 C1622 1.366 . S
C1622 C1621 1.366 . S
C1622 C1623 1.414 . S
C1622 C1625 1.499 . S
C1623 H1597 0.950 . S
C1623 C1622 1.414 . S
C1623 C1624 1.374 . S
C1624 H1598 0.950 . S
C1624 C1620 1.385 . S
C1624 C1623 1.374 . S
C1625 C1622 1.499 . S
C1625 C1626 1.373 . S
C1625 C1627 1.389 . S
C1626 H1599 0.950 . S
C1626 C1612 1.377 1_655 S
C1626 C1625 1.373 . S
C1627 C1611 1.377 1_655 S
C1627 C1625 1.389 . S
C1627 C1628 1.524 . S
C1628 C1627 1.524 . S
C1628 C1629 1.397 . S
C1628 C1633 1.363 . S
C1629 H1600 0.950 . S
C1629 C1628 1.397 . S
C1629 C1630 1.334 . S
C1630 H1601 0.950 . S
C1630 C1629 1.334 . S
C1630 C1631 1.287 . S
C1631 C1630 1.287 . S
C1631 C1632 1.524 . S
C1631 H1634 0.999 . S
C1632 H1602 0.950 . S
C1632 C1631 1.524 . S
C1632 C1633 1.415 . S
C1633 H1603 0.950 . S
C1633 C1628 1.363 . S
C1633 C1632 1.415 . S
H1634 C1631 0.999 . S
H1635 C1616 0.913 . S
H1636 C1654 0.951 . S
H1637 C1656 0.951 . S
H1638 C1658 0.950 . S
H1639 C1659 0.950 . S
H1640 C1661 0.950 . S
H1641 C1664 0.950 . S
H1642 C1665 0.950 . S
H1643 C1667 0.950 . S
H1644 C1668 0.950 . S
H1645 C1669 0.951 . S
H1646 C1671 0.951 . S
H1647 C1673 0.950 . S
H1648 C1674 0.950 . S
H1649 C1676 0.950 . S
H1650 C1679 0.950 . S
H1651 C1680 0.950 . S
H1652 C1682 0.950 . S
H1653 C1683 0.950 . S
C1654 H1636 0.951 . S
C1654 C1655 1.366 . S
C1654 C1656 1.388 . S
C1655 C1654 1.366 . S
C1655 C1659 1.385 . S
C1656 H1637 0.951 . S
C1656 C1654 1.388 . S
C1656 C1657 1.366 . S
C1657 C1656 1.366 . S
C1657 C1658 1.414 . S
C1657 C1660 1.499 . S
C1658 H1638 0.950 . S
C1658 C1657 1.414 . S
C1658 C1659 1.374 . S
C1659 H1639 0.950 . S
C1659 C1655 1.385 . S
C1659 C1658 1.374 . S
C1660 C1657 1.499 . S
C1660 C1661 1.373 . S
C1660 C1662 1.389 . S
C1661 H1640 0.950 . S
C1661 C1660 1.373 . S
C1661 C1677 1.377 1_565 S
C1662 C1660 1.389 . S
C1662 C1663 1.524 . S
C1662 C1676 1.377 1_565 S
C1663 C1662 1.524 . S
C1663 C1664 1.397 . S
C1663 C1668 1.363 . S
C1664 H1641 0.950 . S
C1664 C1663 1.397 . S
C1664 C1665 1.334 . S
C1665 H1642 0.950 . S
C1665 C1664 1.334 . S
C1665 C1666 1.287 . S
C1666 C1665 1.287 . S
C1666 C1667 1.524 . S
C1666 H1685 0.913 . S
C1667 H1643 0.950 . S
C1667 C1666 1.524 . S
C1667 C1668 1.415 . S
C1668 H1644 0.950 . S
C1668 C1663 1.363 . S
C1668 C1667 1.415 . S
C1669 H1645 0.951 . S
C1669 C1670 1.366 . S
C1669 C1671 1.388 . S
C1670 C1669 1.366 . S
C1670 C1674 1.385 . S
C1671 H1646 0.951 . S
C1671 C1669 1.388 . S
C1671 C1672 1.366 . S
C1672 C1671 1.366 . S
C1672 C1673 1.414 . S
C1672 C1675 1.499 . S
C1673 H1647 0.950 . S
C1673 C1672 1.414 . S
C1673 C1674 1.374 . S
C1674 H1648 0.950 . S
C1674 C1670 1.385 . S
C1674 C1673 1.374 . S
C1675 C1672 1.499 . S
C1675 C1676 1.373 . S
C1675 C1677 1.389 . S
C1676 H1649 0.950 . S
C1676 C1662 1.377 1_545 S
C1676 C1675 1.373 . S
C1677 C1661 1.377 1_545 S
C1677 C1675 1.389 . S
C1677 C1678 1.524 . S
C1678 C1677 1.524 . S
C1678 C1679 1.397 . S
C1678 C1683 1.363 . S
C1679 H1650 0.950 . S
C1679 C1678 1.397 . S
C1679 C1680 1.334 1_554 S
C1680 H1651 0.950 . S
C1680 C1679 1.334 1_556 S
C1680 C1681 1.287 . S
C1681 C1680 1.287 . S
C1681 C1682 1.524 1_556 S
C1681 H1684 0.999 . S
C1682 H1652 0.950 . S
C1682 C1681 1.524 1_554 S
C1682 C1683 1.415 . S
C1683 H1653 0.950 . S
C1683 C1678 1.363 . S
C1683 C1682 1.415 . S
H1684 C1681 0.999 . S
H1685 C1666 0.913 . S
H1686 C1704 0.951 . S
H1687 C1706 0.951 . S
H1688 C1708 0.950 . S
H1689 C1709 0.950 . S
H1690 C1711 0.950 . S
H1691 C1714 0.950 . S
H1692 C1715 0.950 . S
H1693 C1717 0.950 . S
H1694 C1718 0.950 . S
H1695 C1719 0.951 . S
H1696 C1721 0.951 . S
H1697 C1723 0.950 . S
H1698 C1724 0.950 . S
H1699 C1726 0.950 . S
H1700 C1729 0.950 . S
H1701 C1730 0.950 . S
H1702 C1732 0.950 . S
H1703 C1733 0.950 . S
C1704 H1686 0.951 . S
C1704 C1705 1.366 . S
C1704 C1706 1.388 . S
C1705 C1704 1.366 . S
C1705 C1709 1.385 . S
C1706 H1687 0.951 . S
C1706 C1704 1.388 . S
C1706 C1707 1.366 . S
C1707 C1706 1.366 . S
C1707 C1708 1.414 . S
C1707 C1710 1.499 . S
C1708 H1688 0.950 . S
C1708 C1707 1.414 . S
C1708 C1709 1.374 . S
C1709 H1689 0.950 . S
C1709 C1705 1.385 . S
C1709 C1708 1.374 . S
C1710 C1707 1.499 . S
C1710 C1711 1.373 . S
C1710 C1712 1.389 . S
C1711 H1690 0.950 . S
C1711 C1710 1.373 . S
C1711 C1727 1.377 . S
C1712 C1710 1.389 . S
C1712 C1713 1.524 . S
C1712 C1726 1.377 . S
C1713 C1712 1.524 . S
C1713 C1714 1.397 . S
C1713 C1718 1.363 . S
C1714 H1691 0.950 . S
C1714 C1713 1.397 . S
C1714 C1715 1.334 . S
C1715 H1692 0.950 . S
C1715 C1714 1.334 . S
C1715 C1716 1.287 . S
C1716 C1715 1.287 . S
C1716 C1717 1.524 . S
C1716 H1735 0.913 . S
C1717 H1693 0.950 . S
C1717 C1716 1.524 . S
C1717 C1718 1.415 . S
C1718 H1694 0.950 . S
C1718 C1713 1.363 . S
C1718 C1717 1.415 . S
C1719 H1695 0.951 . S
C1719 C1720 1.366 . S
C1719 C1721 1.388 . S
C1720 C1719 1.366 . S
C1720 C1724 1.385 . S
C1721 H1696 0.951 . S
C1721 C1719 1.388 . S
C1721 C1722 1.366 . S
C1722 C1721 1.366 . S
C1722 C1723 1.414 . S
C1722 C1725 1.499 . S
C1723 H1697 0.950 . S
C1723 C1722 1.414 . S
C1723 C1724 1.374 . S
C1724 H1698 0.950 . S
C1724 C1720 1.385 . S
C1724 C1723 1.374 . S
C1725 C1722 1.499 . S
C1725 C1726 1.373 . S
C1725 C1727 1.389 . S
C1726 H1699 0.950 . S
C1726 C1712 1.377 . S
C1726 C1725 1.373 . S
C1727 C1711 1.377 . S
C1727 C1725 1.389 . S
C1727 C1728 1.524 . S
C1728 C1727 1.524 . S
C1728 C1729 1.397 . S
C1728 C1733 1.363 . S
C1729 H1700 0.950 . S
C1729 C1728 1.397 . S
C1729 C1730 1.334 . S
C1730 H1701 0.950 . S
C1730 C1729 1.334 . S
C1730 C1731 1.287 . S
C1731 C1730 1.287 . S
C1731 C1732 1.524 . S
C1731 H1734 0.999 . S
C1732 H1702 0.950 . S
C1732 C1731 1.524 . S
C1732 C1733 1.415 . S
C1733 H1703 0.950 . S
C1733 C1728 1.363 . S
C1733 C1732 1.415 . S
H1734 C1731 0.999 . S
H1735 C1716 0.913 . S
H1736 C1754 0.951 . S
H1737 C1756 0.951 . S
H1738 C1758 0.950 . S
H1739 C1759 0.950 . S
H1740 C1761 0.950 . S
H1741 C1764 0.950 . S
H1742 C1765 0.950 . S
H1743 C1767 0.950 . S
H1744 C1768 0.950 . S
H1745 C1769 0.951 . S
H1746 C1771 0.951 . S
H1747 C1773 0.950 . S
H1748 C1774 0.950 . S
H1749 C1776 0.950 . S
H1750 C1779 0.950 . S
H1751 C1780 0.950 . S
H1752 C1782 0.950 . S
H1753 C1783 0.950 . S
C1754 H1736 0.951 . S
C1754 C1755 1.366 . S
C1754 C1756 1.388 . S
C1755 C1754 1.366 . S
C1755 C1759 1.385 . S
C1756 H1737 0.951 . S
C1756 C1754 1.388 . S
C1756 C1757 1.366 . S
C1757 C1756 1.366 . S
C1757 C1758 1.414 . S
C1757 C1760 1.499 . S
C1758 H1738 0.950 . S
C1758 C1757 1.414 . S
C1758 C1759 1.374 . S
C1759 H1739 0.950 . S
C1759 C1755 1.385 . S
C1759 C1758 1.374 . S
C1760 C1757 1.499 . S
C1760 C1761 1.373 . S
C1760 C1762 1.389 . S
C1761 H1740 0.950 . S
C1761 C1760 1.373 . S
C1761 C1777 1.377 1_655 S
C1762 C1760 1.389 . S
C1762 C1763 1.524 . S
C1762 C1776 1.377 1_655 S
C1763 C1762 1.524 . S
C1763 C1764 1.397 . S
C1763 C1768 1.363 . S
C1764 H1741 0.950 . S
C1764 C1763 1.397 . S
C1764 C1765 1.334 1_554 S
C1765 H1742 0.950 . S
C1765 C1764 1.334 1_556 S
C1765 C1766 1.287 . S
C1766 C1765 1.287 . S
C1766 C1767 1.524 . S
C1766 H1785 0.913 . S
C1767 H1743 0.950 . S
C1767 C1766 1.524 . S
C1767 C1768 1.415 1_556 S
C1768 H1744 0.950 . S
C1768 C1763 1.363 . S
C1768 C1767 1.415 1_554 S
C1769 H1745 0.951 . S
C1769 C1770 1.366 . S
C1769 C1771 1.388 . S
C1770 C1769 1.366 . S
C1770 C1774 1.385 . S
C1771 H1746 0.951 . S
C1771 C1769 1.388 . S
C1771 C1772 1.366 . S
C1772 C1771 1.366 . S
C1772 C1773 1.414 . S
C1772 C1775 1.499 . S
C1773 H1747 0.950 . S
C1773 C1772 1.414 . S
C1773 C1774 1.374 . S
C1774 H1748 0.950 . S
C1774 C1770 1.385 . S
C1774 C1773 1.374 . S
C1775 C1772 1.499 . S
C1775 C1776 1.373 . S
C1775 C1777 1.389 . S
C1776 H1749 0.950 . S
C1776 C1762 1.377 1_455 S
C1776 C1775 1.373 . S
C1777 C1761 1.377 1_455 S
C1777 C1775 1.389 . S
C1777 C1778 1.524 . S
C1778 C1777 1.524 . S
C1778 C1779 1.397 . S
C1778 C1783 1.363 . S
C1779 H1750 0.950 . S
C1779 C1778 1.397 . S
C1779 C1780 1.334 . S
C1780 H1751 0.950 . S
C1780 C1779 1.334 . S
C1780 C1781 1.287 . S
C1781 C1780 1.287 . S
C1781 C1782 1.524 . S
C1781 H1784 0.999 . S
C1782 H1752 0.950 . S
C1782 C1781 1.524 . S
C1782 C1783 1.415 . S
C1783 H1753 0.950 . S
C1783 C1778 1.363 . S
C1783 C1782 1.415 . S
H1784 C1781 0.999 . S
H1785 C1766 0.913 . S
H1786 C1804 0.951 . S
H1787 C1806 0.951 . S
H1788 C1808 0.950 . S
H1789 C1809 0.950 . S
H1790 C1811 0.950 . S
H1791 C1814 0.950 . S
H1792 C1815 0.950 . S
H1793 C1817 0.950 . S
H1794 C1818 0.950 . S
H1795 C1819 0.951 . S
H1796 C1821 0.951 . S
H1797 C1823 0.950 . S
H1798 C1824 0.950 . S
H1799 C1826 0.950 . S
H1800 C1829 0.950 . S
H1801 C1830 0.950 . S
H1802 C1832 0.950 . S
H1803 C1833 0.950 . S
C1804 H1786 0.951 . S
C1804 C1805 1.366 . S
C1804 C1806 1.388 . S
C1805 C1804 1.366 . S
C1805 C1809 1.385 . S
C1806 H1787 0.951 . S
C1806 C1804 1.388 . S
C1806 C1807 1.366 . S
C1807 C1806 1.366 . S
C1807 C1808 1.414 . S
C1807 C1810 1.499 . S
C1808 H1788 0.950 . S
C1808 C1807 1.414 . S
C1808 C1809 1.374 . S
C1809 H1789 0.950 . S
C1809 C1805 1.385 . S
C1809 C1808 1.374 . S
C1810 C1807 1.499 . S
C1810 C1811 1.373 . S
C1810 C1812 1.389 . S
C1811 H1790 0.950 . S
C1811 C1810 1.373 . S
C1811 C1827 1.377 1_545 S
C1812 C1810 1.389 . S
C1812 C1813 1.524 . S
C1812 C1826 1.377 1_545 S
C1813 C1812 1.524 . S
C1813 C1814 1.397 . S
C1813 C1818 1.363 . S
C1814 H1791 0.950 . S
C1814 C1813 1.397 . S
C1814 C1815 1.334 . S
C1815 H1792 0.950 . S
C1815 C1814 1.334 . S
C1815 C1816 1.287 . S
C1816 C1815 1.287 . S
C1816 C1817 1.524 . S
C1816 H1835 0.913 . S
C1817 H1793 0.950 . S
C1817 C1816 1.524 . S
C1817 C1818 1.415 . S
C1818 H1794 0.950 . S
C1818 C1813 1.363 . S
C1818 C1817 1.415 . S
C1819 H1795 0.951 . S
C1819 C1820 1.366 . S
C1819 C1821 1.388 . S
C1820 C1819 1.366 . S
C1820 C1824 1.385 . S
C1821 H1796 0.951 . S
C1821 C1819 1.388 . S
C1821 C1822 1.366 . S
C1822 C1821 1.366 . S
C1822 C1823 1.414 . S
C1822 C1825 1.499 . S
C1823 H1797 0.950 . S
C1823 C1822 1.414 . S
C1823 C1824 1.374 . S
C1824 H1798 0.950 . S
C1824 C1820 1.385 . S
C1824 C1823 1.374 . S
C1825 C1822 1.499 . S
C1825 C1826 1.373 . S
C1825 C1827 1.389 . S
C1826 H1799 0.950 . S
C1826 C1812 1.377 1_565 S
C1826 C1825 1.373 . S
C1827 C1811 1.377 1_565 S
C1827 C1825 1.389 . S
C1827 C1828 1.524 . S
C1828 C1827 1.524 . S
C1828 C1829 1.397 . S
C1828 C1833 1.363 . S
C1829 H1800 0.950 . S
C1829 C1828 1.397 . S
C1829 C1830 1.334 . S
C1830 H1801 0.950 . S
C1830 C1829 1.334 . S
C1830 C1831 1.287 . S
C1831 C1830 1.287 . S
C1831 C1832 1.524 . S
C1831 H1834 0.999 . S
C1832 H1802 0.950 . S
C1832 C1831 1.524 . S
C1832 C1833 1.415 . S
C1833 H1803 0.950 . S
C1833 C1828 1.363 . S
C1833 C1832 1.415 . S
H1834 C1831 0.999 . S
H1835 C1816 0.913 . S
H1836 C1854 0.951 . S
H1837 C1856 0.951 . S
H1838 C1858 0.950 . S
H1839 C1859 0.950 . S
H1840 C1861 0.950 . S
H1841 C1864 0.950 . S
H1842 C1865 0.950 . S
H1843 C1867 0.950 . S
H1844 C1868 0.950 . S
H1845 C1869 0.951 . S
H1846 C1871 0.951 . S
H1847 C1873 0.950 . S
H1848 C1874 0.950 . S
H1849 C1876 0.950 . S
H1850 C1879 0.950 . S
H1851 C1880 0.950 . S
H1852 C1882 0.950 . S
H1853 C1883 0.950 . S
C1854 H1836 0.951 . S
C1854 C1855 1.366 . S
C1854 C1856 1.388 . S
C1855 C1854 1.366 . S
C1855 C1859 1.385 . S
C1856 H1837 0.951 . S
C1856 C1854 1.388 . S
C1856 C1857 1.366 . S
C1857 C1856 1.366 . S
C1857 C1858 1.414 . S
C1857 C1860 1.499 . S
C1858 H1838 0.950 . S
C1858 C1857 1.414 . S
C1858 C1859 1.374 . S
C1859 H1839 0.950 . S
C1859 C1855 1.385 . S
C1859 C1858 1.374 . S
C1860 C1857 1.499 . S
C1860 C1861 1.373 . S
C1860 C1862 1.389 . S
C1861 H1840 0.950 . S
C1861 C1860 1.373 . S
C1861 C1877 1.377 . S
C1862 C1860 1.389 . S
C1862 C1863 1.524 . S
C1862 C1876 1.377 . S
C1863 C1862 1.524 . S
C1863 C1864 1.397 . S
C1863 C1868 1.363 . S
C1864 H1841 0.950 . S
C1864 C1863 1.397 . S
C1864 C1865 1.334 . S
C1865 H1842 0.950 . S
C1865 C1864 1.334 . S
C1865 C1866 1.287 . S
C1866 C1865 1.287 . S
C1866 C1867 1.524 . S
C1866 H1885 0.913 . S
C1867 H1843 0.950 . S
C1867 C1866 1.524 . S
C1867 C1868 1.415 . S
C1868 H1844 0.950 . S
C1868 C1863 1.363 . S
C1868 C1867 1.415 . S
C1869 H1845 0.951 . S
C1869 C1870 1.366 . S
C1869 C1871 1.388 . S
C1870 C1869 1.366 . S
C1870 C1874 1.385 . S
C1871 H1846 0.951 . S
C1871 C1869 1.388 . S
C1871 C1872 1.366 . S
C1872 C1871 1.366 . S
C1872 C1873 1.414 . S
C1872 C1875 1.499 . S
C1873 H1847 0.950 . S
C1873 C1872 1.414 . S
C1873 C1874 1.374 . S
C1874 H1848 0.950 . S
C1874 C1870 1.385 . S
C1874 C1873 1.374 . S
C1875 C1872 1.499 . S
C1875 C1876 1.373 . S
C1875 C1877 1.389 . S
C1876 H1849 0.950 . S
C1876 C1862 1.377 . S
C1876 C1875 1.373 . S
C1877 C1861 1.377 . S
C1877 C1875 1.389 . S
C1877 C1878 1.524 . S
C1878 C1877 1.524 . S
C1878 C1879 1.397 . S
C1878 C1883 1.363 . S
C1879 H1850 0.950 . S
C1879 C1878 1.397 . S
C1879 C1880 1.334 . S
C1880 H1851 0.950 . S
C1880 C1879 1.334 . S
C1880 C1881 1.287 . S
C1881 C1880 1.287 . S
C1881 C1882 1.524 . S
C1881 H1884 0.999 . S
C1882 H1852 0.950 . S
C1882 C1881 1.524 . S
C1882 C1883 1.415 . S
C1883 H1853 0.950 . S
C1883 C1878 1.363 . S
C1883 C1882 1.415 . S
H1884 C1881 0.999 . S
H1885 C1866 0.913 . S
H1886 C1904 0.951 . S
H1887 C1906 0.951 . S
H1888 C1908 0.950 . S
H1889 C1909 0.950 . S
H1890 C1911 0.950 . S
H1891 C1914 0.950 . S
H1892 C1915 0.950 . S
H1893 C1917 0.950 . S
H1894 C1918 0.950 . S
H1895 C1919 0.951 . S
H1896 C1921 0.951 . S
H1897 C1923 0.950 . S
H1898 C1924 0.950 . S
H1899 C1926 0.950 . S
H1900 C1929 0.950 . S
H1901 C1930 0.950 . S
H1902 C1932 0.950 . S
H1903 C1933 0.950 . S
C1904 H1886 0.951 . S
C1904 C1905 1.366 . S
C1904 C1906 1.388 . S
C1905 C1904 1.366 . S
C1905 C1909 1.385 . S
C1906 H1887 0.951 . S
C1906 C1904 1.388 . S
C1906 C1907 1.366 . S
C1907 C1906 1.366 . S
C1907 C1908 1.414 . S
C1907 C1910 1.499 . S
C1908 H1888 0.950 . S
C1908 C1907 1.414 . S
C1908 C1909 1.374 . S
C1909 H1889 0.950 . S
C1909 C1905 1.385 . S
C1909 C1908 1.374 . S
C1910 C1907 1.499 . S
C1910 C1911 1.373 . S
C1910 C1912 1.389 . S
C1911 H1890 0.950 . S
C1911 C1910 1.373 . S
C1911 C1927 1.377 1_655 S
C1912 C1910 1.389 . S
C1912 C1913 1.524 . S
C1912 C1926 1.377 1_655 S
C1913 C1912 1.524 . S
C1913 C1914 1.397 . S
C1913 C1918 1.363 . S
C1914 H1891 0.950 . S
C1914 C1913 1.397 . S
C1914 C1915 1.334 . S
C1915 H1892 0.950 . S
C1915 C1914 1.334 . S
C1915 C1916 1.287 . S
C1916 C1915 1.287 . S
C1916 C1917 1.524 . S
C1916 H1935 0.913 . S
C1917 H1893 0.950 . S
C1917 C1916 1.524 . S
C1917 C1918 1.415 . S
C1918 H1894 0.950 . S
C1918 C1913 1.363 . S
C1918 C1917 1.415 . S
C1919 H1895 0.951 . S
C1919 C1920 1.366 . S
C1919 C1921 1.388 . S
C1920 C1919 1.366 . S
C1920 C1924 1.385 . S
C1921 H1896 0.951 . S
C1921 C1919 1.388 . S
C1921 C1922 1.366 . S
C1922 C1921 1.366 . S
C1922 C1923 1.414 . S
C1922 C1925 1.499 . S
C1923 H1897 0.950 . S
C1923 C1922 1.414 . S
C1923 C1924 1.374 . S
C1924 H1898 0.950 . S
C1924 C1920 1.385 . S
C1924 C1923 1.374 . S
C1925 C1922 1.499 . S
C1925 C1926 1.373 . S
C1925 C1927 1.389 . S
C1926 H1899 0.950 . S
C1926 C1912 1.377 1_455 S
C1926 C1925 1.373 . S
C1927 C1911 1.377 1_455 S
C1927 C1925 1.389 . S
C1927 C1928 1.524 . S
C1928 C1927 1.524 . S
C1928 C1929 1.397 . S
C1928 C1933 1.363 . S
C1929 H1900 0.950 . S
C1929 C1928 1.397 . S
C1929 C1930 1.334 . S
C1930 H1901 0.950 . S
C1930 C1929 1.334 . S
C1930 C1931 1.287 . S
C1931 C1930 1.287 . S
C1931 C1932 1.524 . S
C1931 H1934 0.999 . S
C1932 H1902 0.950 . S
C1932 C1931 1.524 . S
C1932 C1933 1.415 . S
C1933 H1903 0.950 . S
C1933 C1928 1.363 . S
C1933 C1932 1.415 . S
H1934 C1931 0.999 . S
H1935 C1916 0.913 . S
H1936 C1954 0.951 . S
H1937 C1956 0.951 . S
H1938 C1958 0.950 . S
H1939 C1959 0.950 . S
H1940 C1961 0.950 . S
H1941 C1964 0.950 . S
H1942 C1965 0.950 . S
H1943 C1967 0.950 . S
H1944 C1968 0.950 . S
H1945 C1969 0.951 . S
H1946 C1971 0.951 . S
H1947 C1973 0.950 . S
H1948 C1974 0.950 . S
H1949 C1976 0.950 . S
H1950 C1979 0.950 . S
H1951 C1980 0.950 . S
H1952 C1982 0.950 . S
H1953 C1983 0.950 . S
C1954 H1936 0.951 . S
C1954 C1955 1.366 . S
C1954 C1956 1.388 . S
C1955 C1954 1.366 . S
C1955 C1959 1.385 . S
C1956 H1937 0.951 . S
C1956 C1954 1.388 . S
C1956 C1957 1.366 . S
C1957 C1956 1.366 . S
C1957 C1958 1.414 . S
C1957 C1960 1.499 . S
C1958 H1938 0.950 . S
C1958 C1957 1.414 . S
C1958 C1959 1.374 . S
C1959 H1939 0.950 . S
C1959 C1955 1.385 . S
C1959 C1958 1.374 . S
C1960 C1957 1.499 . S
C1960 C1961 1.373 . S
C1960 C1962 1.389 . S
C1961 H1940 0.950 . S
C1961 C1960 1.373 . S
C1961 C1977 1.377 1_545 S
C1962 C1960 1.389 . S
C1962 C1963 1.524 . S
C1962 C1976 1.377 1_545 S
C1963 C1962 1.524 . S
C1963 C1964 1.397 . S
C1963 C1968 1.363 . S
C1964 H1941 0.950 . S
C1964 C1963 1.397 . S
C1964 C1965 1.334 . S
C1965 H1942 0.950 . S
C1965 C1964 1.334 . S
C1965 C1966 1.287 . S
C1966 C1965 1.287 . S
C1966 C1967 1.524 . S
C1966 H1985 0.913 . S
C1967 H1943 0.950 . S
C1967 C1966 1.524 . S
C1967 C1968 1.415 . S
C1968 H1944 0.950 . S
C1968 C1963 1.363 . S
C1968 C1967 1.415 . S
C1969 H1945 0.951 . S
C1969 C1970 1.366 . S
C1969 C1971 1.388 . S
C1970 C1969 1.366 . S
C1970 C1974 1.385 . S
C1971 H1946 0.951 . S
C1971 C1969 1.388 . S
C1971 C1972 1.366 . S
C1972 C1971 1.366 . S
C1972 C1973 1.414 . S
C1972 C1975 1.499 . S
C1973 H1947 0.950 . S
C1973 C1972 1.414 . S
C1973 C1974 1.374 . S
C1974 H1948 0.950 . S
C1974 C1970 1.385 . S
C1974 C1973 1.374 . S
C1975 C1972 1.499 . S
C1975 C1976 1.373 . S
C1975 C1977 1.389 . S
C1976 H1949 0.950 . S
C1976 C1962 1.377 1_565 S
C1976 C1975 1.373 . S
C1977 C1961 1.377 1_565 S
C1977 C1975 1.389 . S
C1977 C1978 1.524 . S
C1978 C1977 1.524 . S
C1978 C1979 1.397 . S
C1978 C1983 1.363 . S
C1979 H1950 0.950 . S
C1979 C1978 1.397 . S
C1979 C1980 1.334 . S
C1980 H1951 0.950 . S
C1980 C1979 1.334 . S
C1980 C1981 1.287 . S
C1981 C1980 1.287 . S
C1981 C1982 1.524 . S
C1981 H1984 0.999 . S
C1982 H1952 0.950 . S
C1982 C1981 1.524 . S
C1982 C1983 1.415 . S
C1983 H1953 0.950 . S
C1983 C1978 1.363 . S
C1983 C1982 1.415 . S
H1984 C1981 0.999 . S
H1985 C1966 0.913 . S
H1986 C2004 0.951 . S
H1987 C2006 0.951 . S
H1988 C2008 0.950 . S
H1989 C2009 0.950 . S
H1990 C2011 0.950 . S
H1991 C2014 0.950 . S
H1992 C2015 0.950 . S
H1993 C2017 0.950 . S
H1994 C2018 0.950 . S
H1995 C2019 0.951 . S
H1996 C2021 0.951 . S
H1997 C2023 0.950 . S
H1998 C2024 0.950 . S
H1999 C2026 0.950 . S
H2000 C2029 0.950 . S
H2001 C2030 0.950 . S
H2002 C2032 0.950 . S
H2003 C2033 0.950 . S
C2004 H1986 0.951 . S
C2004 C2005 1.366 . S
C2004 C2006 1.388 . S
C2005 C2004 1.366 . S
C2005 C2009 1.385 . S
C2006 H1987 0.951 . S
C2006 C2004 1.388 . S
C2006 C2007 1.366 . S
C2007 C2006 1.366 . S
C2007 C2008 1.414 . S
C2007 C2010 1.499 . S
C2008 H1988 0.950 . S
C2008 C2007 1.414 . S
C2008 C2009 1.374 . S
C2009 H1989 0.950 . S
C2009 C2005 1.385 . S
C2009 C2008 1.374 . S
C2010 C2007 1.499 . S
C2010 C2011 1.373 . S
C2010 C2012 1.389 . S
C2011 H1990 0.950 . S
C2011 C2010 1.373 . S
C2011 C2027 1.377 . S
C2012 C2010 1.389 . S
C2012 C2013 1.524 . S
C2012 C2026 1.377 . S
C2013 C2012 1.524 . S
C2013 C2014 1.397 . S
C2013 C2018 1.363 . S
C2014 H1991 0.950 . S
C2014 C2013 1.397 . S
C2014 C2015 1.334 . S
C2015 H1992 0.950 . S
C2015 C2014 1.334 . S
C2015 C2016 1.287 . S
C2016 C2015 1.287 . S
C2016 C2017 1.524 . S
C2016 H2035 0.913 . S
C2017 H1993 0.950 . S
C2017 C2016 1.524 . S
C2017 C2018 1.415 . S
C2018 H1994 0.950 . S
C2018 C2013 1.363 . S
C2018 C2017 1.415 . S
C2019 H1995 0.951 . S
C2019 C2020 1.366 . S
C2019 C2021 1.388 . S
C2020 C2019 1.366 . S
C2020 C2024 1.385 . S
C2021 H1996 0.951 . S
C2021 C2019 1.388 . S
C2021 C2022 1.366 . S
C2022 C2021 1.366 . S
C2022 C2023 1.414 . S
C2022 C2025 1.499 . S
C2023 H1997 0.950 . S
C2023 C2022 1.414 . S
C2023 C2024 1.374 . S
C2024 H1998 0.950 . S
C2024 C2020 1.385 . S
C2024 C2023 1.374 . S
C2025 C2022 1.499 . S
C2025 C2026 1.373 . S
C2025 C2027 1.389 . S
C2026 H1999 0.950 . S
C2026 C2012 1.377 . S
C2026 C2025 1.373 . S
C2027 C2011 1.377 . S
C2027 C2025 1.389 . S
C2027 C2028 1.524 . S
C2028 C2027 1.524 . S
C2028 C2029 1.397 . S
C2028 C2033 1.363 . S
C2029 H2000 0.950 . S
C2029 C2028 1.397 . S
C2029 C2030 1.334 . S
C2030 H2001 0.950 . S
C2030 C2029 1.334 . S
C2030 C2031 1.287 . S
C2031 C2030 1.287 . S
C2031 C2032 1.524 . S
C2031 H2034 0.999 . S
C2032 H2002 0.950 . S
C2032 C2031 1.524 . S
C2032 C2033 1.415 . S
C2033 H2003 0.950 . S
C2033 C2028 1.363 . S
C2033 C2032 1.415 . S
H2034 C2031 0.999 . S
H2035 C2016 0.913 . S
H2036 C2054 0.951 . S
H2037 C2056 0.951 . S
H2038 C2058 0.950 . S
H2039 C2059 0.950 . S
H2040 C2061 0.950 . S
H2041 C2064 0.950 . S
H2042 C2065 0.950 . S
H2043 C2067 0.950 . S
H2044 C2068 0.950 . S
H2045 C2069 0.951 . S
H2046 C2071 0.951 . S
H2047 C2073 0.950 . S
H2048 C2074 0.950 . S
H2049 C2076 0.950 . S
H2050 C2079 0.950 . S
H2051 C2080 0.950 . S
H2052 C2082 0.950 . S
H2053 C2083 0.950 . S
C2054 H2036 0.951 . S
C2054 C2055 1.366 . S
C2054 C2056 1.388 . S
C2055 C2054 1.366 . S
C2055 C2059 1.385 . S
C2056 H2037 0.951 . S
C2056 C2054 1.388 . S
C2056 C2057 1.366 . S
C2057 C2056 1.366 . S
C2057 C2058 1.414 . S
C2057 C2060 1.499 . S
C2058 H2038 0.950 . S
C2058 C2057 1.414 . S
C2058 C2059 1.374 . S
C2059 H2039 0.950 . S
C2059 C2055 1.385 . S
C2059 C2058 1.374 . S
C2060 C2057 1.499 . S
C2060 C2061 1.373 . S
C2060 C2062 1.389 . S
C2061 H2040 0.950 . S
C2061 C2060 1.373 . S
C2061 C2077 1.377 1_455 S
C2062 C2060 1.389 . S
C2062 C2063 1.524 . S
C2062 C2076 1.377 1_455 S
C2063 C2062 1.524 . S
C2063 C2064 1.397 . S
C2063 C2068 1.363 1_556 S
C2064 H2041 0.950 . S
C2064 C2063 1.397 . S
C2064 C2065 1.334 1_556 S
C2065 H2042 0.950 . S
C2065 C2064 1.334 1_554 S
C2065 C2066 1.287 . S
C2066 C2065 1.287 . S
C2066 C2067 1.524 . S
C2066 H2085 0.913 . S
C2067 H2043 0.950 . S
C2067 C2066 1.524 . S
C2067 C2068 1.415 . S
C2068 H2044 0.950 . S
C2068 C2063 1.363 1_554 S
C2068 C2067 1.415 . S
C2069 H2045 0.951 . S
C2069 C2070 1.366 . S
C2069 C2071 1.388 . S
C2070 C2069 1.366 . S
C2070 C2074 1.385 . S
C2071 H2046 0.951 . S
C2071 C2069 1.388 . S
C2071 C2072 1.366 . S
C2072 C2071 1.366 . S
C2072 C2073 1.414 . S
C2072 C2075 1.499 . S
C2073 H2047 0.950 . S
C2073 C2072 1.414 . S
C2073 C2074 1.374 . S
C2074 H2048 0.950 . S
C2074 C2070 1.385 . S
C2074 C2073 1.374 . S
C2075 C2072 1.499 . S
C2075 C2076 1.373 . S
C2075 C2077 1.389 . S
C2076 H2049 0.950 . S
C2076 C2062 1.377 1_655 S
C2076 C2075 1.373 . S
C2077 C2061 1.377 1_655 S
C2077 C2075 1.389 . S
C2077 C2078 1.524 . S
C2078 C2077 1.524 . S
C2078 C2079 1.397 . S
C2078 C2083 1.363 . S
C2079 H2050 0.950 . S
C2079 C2078 1.397 . S
C2079 C2080 1.334 . S
C2080 H2051 0.950 . S
C2080 C2079 1.334 . S
C2080 C2081 1.287 . S
C2081 C2080 1.287 . S
C2081 C2082 1.524 . S
C2081 H2084 0.999 . S
C2082 H2052 0.950 . S
C2082 C2081 1.524 . S
C2082 C2083 1.415 . S
C2083 H2053 0.950 . S
C2083 C2078 1.363 . S
C2083 C2082 1.415 . S
H2084 C2081 0.999 . S
H2085 C2066 0.913 . S
H2086 C2104 0.951 . S
H2087 C2106 0.951 . S
H2088 C2108 0.950 . S
H2089 C2109 0.950 . S
H2090 C2111 0.950 . S
H2091 C2114 0.950 . S
H2092 C2115 0.950 . S
H2093 C2117 0.950 . S
H2094 C2118 0.950 . S
H2095 C2119 0.951 . S
H2096 C2121 0.951 . S
H2097 C2123 0.950 . S
H2098 C2124 0.950 . S
H2099 C2126 0.950 . S
H2100 C2129 0.950 . S
H2101 C2130 0.950 . S
H2102 C2132 0.950 . S
H2103 C2133 0.950 . S
C2104 H2086 0.951 . S
C2104 C2105 1.366 . S
C2104 C2106 1.388 . S
C2105 C2104 1.366 . S
C2105 C2109 1.385 . S
C2106 H2087 0.951 . S
C2106 C2104 1.388 . S
C2106 C2107 1.366 . S
C2107 C2106 1.366 . S
C2107 C2108 1.414 . S
C2107 C2110 1.499 . S
C2108 H2088 0.950 . S
C2108 C2107 1.414 . S
C2108 C2109 1.374 . S
C2109 H2089 0.950 . S
C2109 C2105 1.385 . S
C2109 C2108 1.374 . S
C2110 C2107 1.499 . S
C2110 C2111 1.373 . S
C2110 C2112 1.389 . S
C2111 H2090 0.950 . S
C2111 C2110 1.373 . S
C2111 C2127 1.377 1_565 S
C2112 C2110 1.389 . S
C2112 C2113 1.524 . S
C2112 C2126 1.377 1_565 S
C2113 C2112 1.524 . S
C2113 C2114 1.397 . S
C2113 C2118 1.363 . S
C2114 H2091 0.950 . S
C2114 C2113 1.397 . S
C2114 C2115 1.334 . S
C2115 H2092 0.950 . S
C2115 C2114 1.334 . S
C2115 C2116 1.287 . S
C2116 C2115 1.287 . S
C2116 C2117 1.524 . S
C2116 H2135 0.913 . S
C2117 H2093 0.950 . S
C2117 C2116 1.524 . S
C2117 C2118 1.415 . S
C2118 H2094 0.950 . S
C2118 C2113 1.363 . S
C2118 C2117 1.415 . S
C2119 H2095 0.951 . S
C2119 C2120 1.366 . S
C2119 C2121 1.388 . S
C2120 C2119 1.366 . S
C2120 C2124 1.385 . S
C2121 H2096 0.951 . S
C2121 C2119 1.388 . S
C2121 C2122 1.366 . S
C2122 C2121 1.366 . S
C2122 C2123 1.414 . S
C2122 C2125 1.499 . S
C2123 H2097 0.950 . S
C2123 C2122 1.414 . S
C2123 C2124 1.374 . S
C2124 H2098 0.950 . S
C2124 C2120 1.385 . S
C2124 C2123 1.374 . S
C2125 C2122 1.499 . S
C2125 C2126 1.373 . S
C2125 C2127 1.389 . S
C2126 H2099 0.950 . S
C2126 C2112 1.377 1_545 S
C2126 C2125 1.373 . S
C2127 C2111 1.377 1_545 S
C2127 C2125 1.389 . S
C2127 C2128 1.524 . S
C2128 C2127 1.524 . S
C2128 C2129 1.397 . S
C2128 C2133 1.363 . S
C2129 H2100 0.950 . S
C2129 C2128 1.397 . S
C2129 C2130 1.334 . S
C2130 H2101 0.950 . S
C2130 C2129 1.334 . S
C2130 C2131 1.287 . S
C2131 C2130 1.287 . S
C2131 C2132 1.524 . S
C2131 H2134 0.999 . S
C2132 H2102 0.950 . S
C2132 C2131 1.524 . S
C2132 C2133 1.415 . S
C2133 H2103 0.950 . S
C2133 C2128 1.363 . S
C2133 C2132 1.415 . S
H2134 C2131 0.999 . S
H2135 C2116 0.913 . S
H2136 C2154 0.951 . S
H2137 C2156 0.951 . S
H2138 C2158 0.950 . S
H2139 C2159 0.950 . S
H2140 C2161 0.950 . S
H2141 C2164 0.950 . S
H2142 C2165 0.950 . S
H2143 C2167 0.950 . S
H2144 C2168 0.950 . S
H2145 C2169 0.951 . S
H2146 C2171 0.951 . S
H2147 C2173 0.950 . S
H2148 C2174 0.950 . S
H2149 C2176 0.950 . S
H2150 C2179 0.950 . S
H2151 C2180 0.950 . S
H2152 C2182 0.950 . S
H2153 C2183 0.950 . S
C2154 H2136 0.951 . S
C2154 C2155 1.366 . S
C2154 C2156 1.388 . S
C2155 C2154 1.366 . S
C2155 C2159 1.385 . S
C2156 H2137 0.951 . S
C2156 C2154 1.388 . S
C2156 C2157 1.366 . S
C2157 C2156 1.366 . S
C2157 C2158 1.414 . S
C2157 C2160 1.499 . S
C2158 H2138 0.950 . S
C2158 C2157 1.414 . S
C2158 C2159 1.374 . S
C2159 H2139 0.950 . S
C2159 C2155 1.385 . S
C2159 C2158 1.374 . S
C2160 C2157 1.499 . S
C2160 C2161 1.373 1_556 S
C2160 C2162 1.389 . S
C2161 H2140 0.950 . S
C2161 C2160 1.373 1_554 S
C2161 C2177 1.377 . S
C2162 C2160 1.389 . S
C2162 C2163 1.524 . S
C2162 C2176 1.377 . S
C2163 C2162 1.524 . S
C2163 C2164 1.397 . S
C2163 C2168 1.363 . S
C2164 H2141 0.950 . S
C2164 C2163 1.397 . S
C2164 C2165 1.334 . S
C2165 H2142 0.950 . S
C2165 C2164 1.334 . S
C2165 C2166 1.287 . S
C2166 C2165 1.287 . S
C2166 C2167 1.524 . S
C2166 H2185 0.913 . S
C2167 H2143 0.950 . S
C2167 C2166 1.524 . S
C2167 C2168 1.415 . S
C2168 H2144 0.950 . S
C2168 C2163 1.363 . S
C2168 C2167 1.415 . S
C2169 H2145 0.951 . S
C2169 C2170 1.366 . S
C2169 C2171 1.388 . S
C2170 C2169 1.366 . S
C2170 C2174 1.385 . S
C2171 H2146 0.951 . S
C2171 C2169 1.388 . S
C2171 C2172 1.366 . S
C2172 C2171 1.366 . S
C2172 C2173 1.414 . S
C2172 C2175 1.499 . S
C2173 H2147 0.950 . S
C2173 C2172 1.414 . S
C2173 C2174 1.374 . S
C2174 H2148 0.950 . S
C2174 C2170 1.385 . S
C2174 C2173 1.374 . S
C2175 C2172 1.499 . S
C2175 C2176 1.373 1_554 S
C2175 C2177 1.389 . S
C2176 H2149 0.950 . S
C2176 C2162 1.377 . S
C2176 C2175 1.373 1_556 S
C2177 C2161 1.377 . S
C2177 C2175 1.389 . S
C2177 C2178 1.524 . S
C2178 C2177 1.524 . S
C2178 C2179 1.397 . S
C2178 C2183 1.363 . S
C2179 H2150 0.950 . S
C2179 C2178 1.397 . S
C2179 C2180 1.334 . S
C2180 H2151 0.950 . S
C2180 C2179 1.334 . S
C2180 C2181 1.287 . S
C2181 C2180 1.287 . S
C2181 C2182 1.524 . S
C2181 H2184 0.999 . S
C2182 H2152 0.950 . S
C2182 C2181 1.524 . S
C2182 C2183 1.415 . S
C2183 H2153 0.950 . S
C2183 C2178 1.363 . S
C2183 C2182 1.415 . S
H2184 C2181 0.999 . S
H2185 C2166 0.913 . S
H2186 C2204 0.951 . S
H2187 C2206 0.951 . S
H2188 C2208 0.950 . S
H2189 C2209 0.950 . S
H2190 C2211 0.950 . S
H2191 C2214 0.950 . S
H2192 C2215 0.950 . S
H2193 C2217 0.950 . S
H2194 C2218 0.950 . S
H2195 C2219 0.951 . S
H2196 C2221 0.951 . S
H2197 C2223 0.950 . S
H2198 C2224 0.950 . S
H2199 C2226 0.950 . S
H2200 C2229 0.950 . S
H2201 C2230 0.950 . S
H2202 C2232 0.950 . S
H2203 C2233 0.950 . S
C2204 H2186 0.951 . S
C2204 C2205 1.366 . S
C2204 C2206 1.388 . S
C2205 C2204 1.366 . S
C2205 C2209 1.385 . S
C2206 H2187 0.951 . S
C2206 C2204 1.388 . S
C2206 C2207 1.366 . S
C2207 C2206 1.366 . S
C2207 C2208 1.414 . S
C2207 C2210 1.499 . S
C2208 H2188 0.950 . S
C2208 C2207 1.414 . S
C2208 C2209 1.374 . S
C2209 H2189 0.950 . S
C2209 C2205 1.385 . S
C2209 C2208 1.374 . S
C2210 C2207 1.499 . S
C2210 C2211 1.373 . S
C2210 C2212 1.389 . S
C2211 H2190 0.950 . S
C2211 C2210 1.373 . S
C2211 C2227 1.377 . S
C2212 C2210 1.389 . S
C2212 C2213 1.524 . S
C2212 C2226 1.377 . S
C2213 C2212 1.524 . S
C2213 C2214 1.397 . S
C2213 C2218 1.363 . S
C2214 H2191 0.950 . S
C2214 C2213 1.397 . S
C2214 C2215 1.334 . S
C2215 H2192 0.950 . S
C2215 C2214 1.334 . S
C2215 C2216 1.287 . S
C2216 C2215 1.287 . S
C2216 C2217 1.524 . S
C2216 H2235 0.913 . S
C2217 H2193 0.950 . S
C2217 C2216 1.524 . S
C2217 C2218 1.415 . S
C2218 H2194 0.950 . S
C2218 C2213 1.363 . S
C2218 C2217 1.415 . S
C2219 H2195 0.951 . S
C2219 C2220 1.366 . S
C2219 C2221 1.388 . S
C2220 C2219 1.366 . S
C2220 C2224 1.385 . S
C2221 H2196 0.951 . S
C2221 C2219 1.388 . S
C2221 C2222 1.366 . S
C2222 C2221 1.366 . S
C2222 C2223 1.414 . S
C2222 C2225 1.499 . S
C2223 H2197 0.950 . S
C2223 C2222 1.414 . S
C2223 C2224 1.374 . S
C2224 H2198 0.950 . S
C2224 C2220 1.385 . S
C2224 C2223 1.374 . S
C2225 C2222 1.499 . S
C2225 C2226 1.373 . S
C2225 C2227 1.389 . S
C2226 H2199 0.950 . S
C2226 C2212 1.377 . S
C2226 C2225 1.373 . S
C2227 C2211 1.377 . S
C2227 C2225 1.389 . S
C2227 C2228 1.524 . S
C2228 C2227 1.524 . S
C2228 C2229 1.397 . S
C2228 C2233 1.363 . S
C2229 H2200 0.950 . S
C2229 C2228 1.397 . S
C2229 C2230 1.334 . S
C2230 H2201 0.950 . S
C2230 C2229 1.334 . S
C2230 C2231 1.287 . S
C2231 C2230 1.287 . S
C2231 C2232 1.524 . S
C2231 H2234 0.999 . S
C2232 H2202 0.950 . S
C2232 C2231 1.524 . S
C2232 C2233 1.415 . S
C2233 H2203 0.950 . S
C2233 C2228 1.363 . S
C2233 C2232 1.415 . S
H2234 C2231 0.999 . S
H2235 C2216 0.913 . S
H2236 C2254 0.951 . S
H2237 C2256 0.951 1_554 S
H2238 C2258 0.950 . S
H2239 C2259 0.950 . S
H2240 C2261 0.950 . S
H2241 C2264 0.950 1_556 S
H2242 C2265 0.950 1_556 S
H2243 C2267 0.950 . S
H2244 C2268 0.950 . S
H2245 C2269 0.951 . S
H2246 C2271 0.951 1_556 S
H2247 C2273 0.950 . S
H2248 C2274 0.950 . S
H2249 C2276 0.950 . S
H2250 C2279 0.950 1_554 S
H2251 C2280 0.950 1_554 S
H2252 C2282 0.950 . S
H2253 C2283 0.950 . S
C2254 H2236 0.951 . S
C2254 C2255 1.366 . S
C2254 C2256 1.388 . S
C2255 C2254 1.366 . S
C2255 C2259 1.385 . S
C2256 H2237 0.951 1_556 S
C2256 C2254 1.388 . S
C2256 C2257 1.366 . S
C2257 C2256 1.366 . S
C2257 C2258 1.414 . S
C2257 C2260 1.499 . S
C2258 H2238 0.950 . S
C2258 C2257 1.414 . S
C2258 C2259 1.374 . S
C2259 H2239 0.950 . S
C2259 C2255 1.385 . S
C2259 C2258 1.374 . S
C2260 C2257 1.499 . S
C2260 C2261 1.373 . S
C2260 C2262 1.389 1_556 S
C2261 H2240 0.950 . S
C2261 C2260 1.373 . S
C2261 C2277 1.377 . S
C2262 C2260 1.389 1_554 S
C2262 C2263 1.524 . S
C2262 C2276 1.377 . S
C2263 C2262 1.524 . S
C2263 C2264 1.397 . S
C2263 C2268 1.363 . S
C2264 H2241 0.950 1_554 S
C2264 C2263 1.397 . S
C2264 C2265 1.334 . S
C2265 H2242 0.950 1_554 S
C2265 C2264 1.334 . S
C2265 C2266 1.287 . S
C2266 C2265 1.287 . S
C2266 C2267 1.524 . S
C2266 H2285 0.913 . S
C2267 H2243 0.950 . S
C2267 C2266 1.524 . S
C2267 C2268 1.415 . S
C2268 H2244 0.950 . S
C2268 C2263 1.363 . S
C2268 C2267 1.415 . S
C2269 H2245 0.951 . S
C2269 C2270 1.366 . S
C2269 C2271 1.388 . S
C2270 C2269 1.366 . S
C2270 C2274 1.385 . S
C2271 H2246 0.951 1_554 S
C2271 C2269 1.388 . S
C2271 C2272 1.366 . S
C2272 C2271 1.366 . S
C2272 C2273 1.414 . S
C2272 C2275 1.499 . S
C2273 H2247 0.950 . S
C2273 C2272 1.414 . S
C2273 C2274 1.374 . S
C2274 H2248 0.950 . S
C2274 C2270 1.385 . S
C2274 C2273 1.374 . S
C2275 C2272 1.499 . S
C2275 C2276 1.373 . S
C2275 C2277 1.389 1_554 S
C2276 H2249 0.950 . S
C2276 C2262 1.377 . S
C2276 C2275 1.373 . S
C2277 C2261 1.377 . S
C2277 C2275 1.389 1_556 S
C2277 C2278 1.524 . S
C2278 C2277 1.524 . S
C2278 C2279 1.397 . S
C2278 C2283 1.363 . S
C2279 H2250 0.950 1_556 S
C2279 C2278 1.397 . S
C2279 C2280 1.334 . S
C2280 H2251 0.950 1_556 S
C2280 C2279 1.334 . S
C2280 C2281 1.287 . S
C2281 C2280 1.287 . S
C2281 C2282 1.524 . S
C2281 H2284 0.999 . S
C2282 H2252 0.950 . S
C2282 C2281 1.524 . S
C2282 C2283 1.415 . S
C2283 H2253 0.950 . S
C2283 C2278 1.363 . S
C2283 C2282 1.415 . S
H2284 C2281 0.999 . S
H2285 C2266 0.913 . S
H2286 C2304 0.951 . S
H2287 C2306 0.951 . S
H2288 C2308 0.950 . S
H2289 C2309 0.950 . S
H2290 C2311 0.950 . S
H2291 C2314 0.950 . S
H2292 C2315 0.950 . S
H2293 C2317 0.950 . S
H2294 C2318 0.950 . S
H2295 C2319 0.951 . S
H2296 C2321 0.951 . S
H2297 C2323 0.950 . S
H2298 C2324 0.950 . S
H2299 C2326 0.950 . S
H2300 C2329 0.950 . S
H2301 C2330 0.950 . S
H2302 C2332 0.950 . S
H2303 C2333 0.950 . S
C2304 H2286 0.951 . S
C2304 C2305 1.366 . S
C2304 C2306 1.388 . S
C2305 C2304 1.366 . S
C2305 C2309 1.385 . S
C2306 H2287 0.951 . S
C2306 C2304 1.388 . S
C2306 C2307 1.366 . S
C2307 C2306 1.366 . S
C2307 C2308 1.414 . S
C2307 C2310 1.499 . S
C2308 H2288 0.950 . S
C2308 C2307 1.414 . S
C2308 C2309 1.374 . S
C2309 H2289 0.950 . S
C2309 C2305 1.385 . S
C2309 C2308 1.374 . S
C2310 C2307 1.499 . S
C2310 C2311 1.373 . S
C2310 C2312 1.389 . S
C2311 H2290 0.950 . S
C2311 C2310 1.373 . S
C2311 C2327 1.377 . S
C2312 C2310 1.389 . S
C2312 C2313 1.524 . S
C2312 C2326 1.377 . S
C2313 C2312 1.524 . S
C2313 C2314 1.397 . S
C2313 C2318 1.363 . S
C2314 H2291 0.950 . S
C2314 C2313 1.397 . S
C2314 C2315 1.334 . S
C2315 H2292 0.950 . S
C2315 C2314 1.334 . S
C2315 C2316 1.287 . S
C2316 C2315 1.287 . S
C2316 C2317 1.524 . S
C2316 H2335 0.913 . S
C2317 H2293 0.950 . S
C2317 C2316 1.524 . S
C2317 C2318 1.415 . S
C2318 H2294 0.950 . S
C2318 C2313 1.363 . S
C2318 C2317 1.415 . S
C2319 H2295 0.951 . S
C2319 C2320 1.366 . S
C2319 C2321 1.388 . S
C2320 C2319 1.366 . S
C2320 C2324 1.385 . S
C2321 H2296 0.951 . S
C2321 C2319 1.388 . S
C2321 C2322 1.366 . S
C2322 C2321 1.366 . S
C2322 C2323 1.414 . S
C2322 C2325 1.499 . S
C2323 H2297 0.950 . S
C2323 C2322 1.414 . S
C2323 C2324 1.374 . S
C2324 H2298 0.950 . S
C2324 C2320 1.385 . S
C2324 C2323 1.374 . S
C2325 C2322 1.499 . S
C2325 C2326 1.373 . S
C2325 C2327 1.389 . S
C2326 H2299 0.950 . S
C2326 C2312 1.377 . S
C2326 C2325 1.373 . S
C2327 C2311 1.377 . S
C2327 C2325 1.389 . S
C2327 C2328 1.524 . S
C2328 C2327 1.524 . S
C2328 C2329 1.397 . S
C2328 C2333 1.363 . S
C2329 H2300 0.950 . S
C2329 C2328 1.397 . S
C2329 C2330 1.334 . S
C2330 H2301 0.950 . S
C2330 C2329 1.334 . S
C2330 C2331 1.287 . S
C2331 C2330 1.287 . S
C2331 C2332 1.524 . S
C2331 H2334 0.999 . S
C2332 H2302 0.950 . S
C2332 C2331 1.524 . S
C2332 C2333 1.415 . S
C2333 H2303 0.950 . S
C2333 C2328 1.363 . S
C2333 C2332 1.415 . S
H2334 C2331 0.999 . S
H2335 C2316 0.913 . S
H2336 C2354 0.951 . S
H2337 C2356 0.951 . S
H2338 C2358 0.950 . S
H2339 C2359 0.950 . S
H2340 C2361 0.950 . S
H2341 C2364 0.950 . S
H2342 C2365 0.950 . S
H2343 C2367 0.950 . S
H2344 C2368 0.995 . S
H2345 C2369 0.951 . S
H2346 C2371 0.951 . S
H2347 C2373 0.950 . S
H2348 C2374 0.950 . S
H2349 C2376 0.950 . S
H2350 C2379 0.950 . S
H2351 C2380 0.950 . S
H2352 C2382 0.950 . S
H2353 C2383 0.996 . S
C2354 H2336 0.951 . S
C2354 C2355 1.366 . S
C2354 C2356 1.388 . S
C2355 C2354 1.366 . S
C2355 C2359 1.385 . S
C2356 H2337 0.951 . S
C2356 C2354 1.388 . S
C2356 C2357 1.366 . S
C2357 C2356 1.366 . S
C2357 C2358 1.414 . S
C2357 C2360 1.499 . S
C2358 H2338 0.950 . S
C2358 C2357 1.414 . S
C2358 C2359 1.374 . S
C2359 H2339 0.950 . S
C2359 C2355 1.385 . S
C2359 C2358 1.374 . S
C2360 C2357 1.499 . S
C2360 C2361 1.371 1_556 S
C2360 C2362 1.389 . S
C2361 H2340 0.950 . S
C2361 C2360 1.371 1_554 S
C2361 C2377 1.378 . S
C2362 C2360 1.389 . S
C2362 C2363 1.524 . S
C2362 C2376 1.378 . S
C2363 C2362 1.524 . S
C2363 C2364 1.397 . S
C2363 C2368 1.363 . S
C2364 H2341 0.950 . S
C2364 C2363 1.397 . S
C2364 C2365 1.334 . S
C2365 H2342 0.950 . S
C2365 C2364 1.334 . S
C2365 C2366 1.287 . S
C2366 C2365 1.287 . S
C2366 C2367 1.524 . S
C2366 H2385 0.913 . S
C2367 H2343 0.950 . S
C2367 C2366 1.524 . S
C2367 C2368 1.415 . S
C2368 H2344 0.995 . S
C2368 C2363 1.363 . S
C2368 C2367 1.415 . S
C2369 H2345 0.951 . S
C2369 C2370 1.366 . S
C2369 C2371 1.388 . S
C2370 C2369 1.366 . S
C2370 C2374 1.385 . S
C2371 H2346 0.951 . S
C2371 C2369 1.388 . S
C2371 C2372 1.366 . S
C2372 C2371 1.366 . S
C2372 C2373 1.414 . S
C2372 C2375 1.499 . S
C2373 H2347 0.950 . S
C2373 C2372 1.414 . S
C2373 C2374 1.374 . S
C2374 H2348 0.950 . S
C2374 C2370 1.385 . S
C2374 C2373 1.374 . S
C2375 C2372 1.499 . S
C2375 C2376 1.372 1_554 S
C2375 C2377 1.389 . S
C2376 H2349 0.950 . S
C2376 C2362 1.378 . S
C2376 C2375 1.372 1_556 S
C2377 C2361 1.378 . S
C2377 C2375 1.389 . S
C2377 C2378 1.524 . S
C2378 C2377 1.524 . S
C2378 C2379 1.397 . S
C2378 C2383 1.363 . S
C2379 H2350 0.950 . S
C2379 C2378 1.397 . S
C2379 C2380 1.334 . S
C2380 H2351 0.950 . S
C2380 C2379 1.334 . S
C2380 C2381 1.287 . S
C2381 C2380 1.287 . S
C2381 C2382 1.524 . S
C2381 H2384 0.999 . S
C2382 H2352 0.950 . S
C2382 C2381 1.524 . S
C2382 C2383 1.415 . S
C2383 H2353 0.996 . S
C2383 C2378 1.363 . S
C2383 C2382 1.415 . S
H2384 C2381 0.999 . S
H2385 C2366 0.913 . S
H2386 C2404 0.951 . S
H2387 C2406 0.951 . S
H2388 C2408 0.950 . S
H2389 C2409 0.950 . S
H2390 C2411 0.950 . S
H2391 C2414 0.950 . S
H2392 C2415 0.950 . S
H2393 C2417 0.950 . S
H2394 C2418 0.950 . S
H2395 C2419 0.951 . S
H2396 C2421 0.951 . S
H2397 C2423 0.950 . S
H2398 C2424 0.950 . S
H2399 C2426 0.950 . S
H2400 C2429 0.950 . S
H2401 C2430 0.950 . S
H2402 C2432 0.950 . S
H2403 C2433 0.950 . S
C2404 H2386 0.951 . S
C2404 C2405 1.366 . S
C2404 C2406 1.388 . S
C2405 C2404 1.366 . S
C2405 C2409 1.385 . S
C2406 H2387 0.951 . S
C2406 C2404 1.388 . S
C2406 C2407 1.366 . S
C2407 C2406 1.366 . S
C2407 C2408 1.414 . S
C2407 C2410 1.499 . S
C2408 H2388 0.950 . S
C2408 C2407 1.414 . S
C2408 C2409 1.374 . S
C2409 H2389 0.950 . S
C2409 C2405 1.385 . S
C2409 C2408 1.374 . S
C2410 C2407 1.499 . S
C2410 C2411 1.373 . S
C2410 C2412 1.389 . S
C2411 H2390 0.950 . S
C2411 C2410 1.373 . S
C2411 C2427 1.377 . S
C2412 C2410 1.389 . S
C2412 C2413 1.524 . S
C2412 C2426 1.377 . S
C2413 C2412 1.524 . S
C2413 C2414 1.397 . S
C2413 C2418 1.363 . S
C2414 H2391 0.950 . S
C2414 C2413 1.397 . S
C2414 C2415 1.334 . S
C2415 H2392 0.950 . S
C2415 C2414 1.334 . S
C2415 C2416 1.287 . S
C2416 C2415 1.287 . S
C2416 C2417 1.524 . S
C2416 H2435 0.913 . S
C2417 H2393 0.950 . S
C2417 C2416 1.524 . S
C2417 C2418 1.415 . S
C2418 H2394 0.950 . S
C2418 C2413 1.363 . S
C2418 C2417 1.415 . S
C2419 H2395 0.951 . S
C2419 C2420 1.366 . S
C2419 C2421 1.388 . S
C2420 C2419 1.366 . S
C2420 C2424 1.385 . S
C2421 H2396 0.951 . S
C2421 C2419 1.388 . S
C2421 C2422 1.366 . S
C2422 C2421 1.366 . S
C2422 C2423 1.414 . S
C2422 C2425 1.499 . S
C2423 H2397 0.950 . S
C2423 C2422 1.414 . S
C2423 C2424 1.374 . S
C2424 H2398 0.950 . S
C2424 C2420 1.385 . S
C2424 C2423 1.374 . S
C2425 C2422 1.499 . S
C2425 C2426 1.373 . S
C2425 C2427 1.389 . S
C2426 H2399 0.950 . S
C2426 C2412 1.377 . S
C2426 C2425 1.373 . S
C2427 C2411 1.377 . S
C2427 C2425 1.389 . S
C2427 C2428 1.524 . S
C2428 C2427 1.524 . S
C2428 C2429 1.397 . S
C2428 C2433 1.363 . S
C2429 H2400 0.950 . S
C2429 C2428 1.397 . S
C2429 C2430 1.334 . S
C2430 H2401 0.950 . S
C2430 C2429 1.334 . S
C2430 C2431 1.287 . S
C2431 C2430 1.287 . S
C2431 C2432 1.524 . S
C2431 H2434 0.999 . S
C2432 H2402 0.950 . S
C2432 C2431 1.524 . S
C2432 C2433 1.415 . S
C2433 H2403 0.950 . S
C2433 C2428 1.363 . S
C2433 C2432 1.415 . S
H2434 C2431 0.999 . S
H2435 C2416 0.913 . S
H2436 C2454 0.951 . S
H2437 C2456 0.951 . S
H2438 C2458 0.950 . S
H2439 C2459 0.950 . S
H2440 C2461 0.950 . S
H2441 C2464 0.950 . S
H2442 C2465 0.950 . S
H2443 C2467 0.950 . S
H2444 C2468 0.950 . S
H2445 C2469 0.951 . S
H2446 C2471 0.951 . S
H2447 C2473 0.950 . S
H2448 C2474 0.950 . S
H2449 C2476 0.950 . S
H2450 C2479 0.950 . S
H2451 C2480 0.950 . S
H2452 C2482 0.950 . S
H2453 C2483 0.950 . S
C2454 H2436 0.951 . S
C2454 C2455 1.366 . S
C2454 C2456 1.388 . S
C2455 C2454 1.366 . S
C2455 C2459 1.385 . S
C2456 H2437 0.951 . S
C2456 C2454 1.388 . S
C2456 C2457 1.366 . S
C2457 C2456 1.366 . S
C2457 C2458 1.414 . S
C2457 C2460 1.499 . S
C2458 H2438 0.950 . S
C2458 C2457 1.414 . S
C2458 C2459 1.374 . S
C2459 H2439 0.950 . S
C2459 C2455 1.385 . S
C2459 C2458 1.374 . S
C2460 C2457 1.499 . S
C2460 C2461 1.373 1_554 S
C2460 C2462 1.389 . S
C2461 H2440 0.950 . S
C2461 C2460 1.373 1_556 S
C2461 C2477 1.377 . S
C2462 C2460 1.389 . S
C2462 C2463 1.524 . S
C2462 C2476 1.377 . S
C2463 C2462 1.524 . S
C2463 C2464 1.397 . S
C2463 C2468 1.363 . S
C2464 H2441 0.950 . S
C2464 C2463 1.397 . S
C2464 C2465 1.334 . S
C2465 H2442 0.950 . S
C2465 C2464 1.334 . S
C2465 C2466 1.287 . S
C2466 C2465 1.287 . S
C2466 C2467 1.524 . S
C2466 H2485 0.913 . S
C2467 H2443 0.950 . S
C2467 C2466 1.524 . S
C2467 C2468 1.415 . S
C2468 H2444 0.950 . S
C2468 C2463 1.363 . S
C2468 C2467 1.415 . S
C2469 H2445 0.951 . S
C2469 C2470 1.366 . S
C2469 C2471 1.388 . S
C2470 C2469 1.366 . S
C2470 C2474 1.385 . S
C2471 H2446 0.951 . S
C2471 C2469 1.388 . S
C2471 C2472 1.366 . S
C2472 C2471 1.366 . S
C2472 C2473 1.414 . S
C2472 C2475 1.499 . S
C2473 H2447 0.950 . S
C2473 C2472 1.414 . S
C2473 C2474 1.374 . S
C2474 H2448 0.950 . S
C2474 C2470 1.385 . S
C2474 C2473 1.374 . S
C2475 C2472 1.499 . S
C2475 C2476 1.373 1_556 S
C2475 C2477 1.389 . S
C2476 H2449 0.950 . S
C2476 C2462 1.377 . S
C2476 C2475 1.373 1_554 S
C2477 C2461 1.377 . S
C2477 C2475 1.389 . S
C2477 C2478 1.524 . S
C2478 C2477 1.524 . S
C2478 C2479 1.397 . S
C2478 C2483 1.363 . S
C2479 H2450 0.950 . S
C2479 C2478 1.397 . S
C2479 C2480 1.334 . S
C2480 H2451 0.950 . S
C2480 C2479 1.334 . S
C2480 C2481 1.287 . S
C2481 C2480 1.287 . S
C2481 C2482 1.524 . S
C2481 H2484 0.999 . S
C2482 H2452 0.950 . S
C2482 C2481 1.524 . S
C2482 C2483 1.415 . S
C2483 H2453 0.950 . S
C2483 C2478 1.363 . S
C2483 C2482 1.415 . S
H2484 C2481 0.999 . S
H2485 C2466 0.913 . S
H2486 C2504 0.951 . S
H2487 C2506 0.951 . S
H2488 C2508 0.950 . S
H2489 C2509 0.950 . S
H2490 C2511 0.950 . S
H2491 C2514 0.950 . S
H2492 C2515 0.950 . S
H2493 C2517 0.950 . S
H2494 C2518 0.950 . S
H2495 C2519 0.951 . S
H2496 C2521 0.951 . S
H2497 C2523 0.950 . S
H2498 C2524 0.950 . S
H2499 C2526 0.950 . S
H2500 C2529 0.950 . S
H2501 C2530 0.950 . S
H2502 C2532 0.950 . S
H2503 C2533 0.950 . S
C2504 H2486 0.951 . S
C2504 C2505 1.366 . S
C2504 C2506 1.388 . S
C2505 C2504 1.366 . S
C2505 C2509 1.385 . S
C2506 H2487 0.951 . S
C2506 C2504 1.388 . S
C2506 C2507 1.366 . S
C2507 C2506 1.366 . S
C2507 C2508 1.414 . S
C2507 C2510 1.499 . S
C2508 H2488 0.950 . S
C2508 C2507 1.414 . S
C2508 C2509 1.374 . S
C2509 H2489 0.950 . S
C2509 C2505 1.385 . S
C2509 C2508 1.374 . S
C2510 C2507 1.499 . S
C2510 C2511 1.373 . S
C2510 C2512 1.389 . S
C2511 H2490 0.950 . S
C2511 C2510 1.373 . S
C2511 C2527 1.377 . S
C2512 C2510 1.389 . S
C2512 C2513 1.524 . S
C2512 C2526 1.377 . S
C2513 C2512 1.524 . S
C2513 C2514 1.397 . S
C2513 C2518 1.363 . S
C2514 H2491 0.950 . S
C2514 C2513 1.397 . S
C2514 C2515 1.334 . S
C2515 H2492 0.950 . S
C2515 C2514 1.334 . S
C2515 C2516 1.287 . S
C2516 C2515 1.287 . S
C2516 C2517 1.524 . S
C2516 H2535 0.913 . S
C2517 H2493 0.950 . S
C2517 C2516 1.524 . S
C2517 C2518 1.415 . S
C2518 H2494 0.950 . S
C2518 C2513 1.363 . S
C2518 C2517 1.415 . S
C2519 H2495 0.951 . S
C2519 C2520 1.366 . S
C2519 C2521 1.388 . S
C2520 C2519 1.366 . S
C2520 C2524 1.385 . S
C2521 H2496 0.951 . S
C2521 C2519 1.388 . S
C2521 C2522 1.366 . S
C2522 C2521 1.366 . S
C2522 C2523 1.414 . S
C2522 C2525 1.499 . S
C2523 H2497 0.950 . S
C2523 C2522 1.414 . S
C2523 C2524 1.374 . S
C2524 H2498 0.950 . S
C2524 C2520 1.385 . S
C2524 C2523 1.374 . S
C2525 C2522 1.499 . S
C2525 C2526 1.373 . S
C2525 C2527 1.389 . S
C2526 H2499 0.950 . S
C2526 C2512 1.377 . S
C2526 C2525 1.373 . S
C2527 C2511 1.377 . S
C2527 C2525 1.389 . S
C2527 C2528 1.524 . S
C2528 C2527 1.524 . S
C2528 C2529 1.397 . S
C2528 C2533 1.363 . S
C2529 H2500 0.950 . S
C2529 C2528 1.397 . S
C2529 C2530 1.334 . S
C2530 H2501 0.950 . S
C2530 C2529 1.334 . S
C2530 C2531 1.287 . S
C2531 C2530 1.287 . S
C2531 C2532 1.524 . S
C2531 H2534 0.999 . S
C2532 H2502 0.950 . S
C2532 C2531 1.524 . S
C2532 C2533 1.415 . S
C2533 H2503 0.950 . S
C2533 C2528 1.363 . S
C2533 C2532 1.415 . S
H2534 C2531 0.999 . S
H2535 C2516 0.913 . S
H2536 C2554 0.951 . S
H2537 C2556 0.960 . S
H2538 C2558 0.950 . S
H2539 C2559 0.950 . S
H2540 C2561 0.950 . S
H2541 C2564 0.950 . S
H2542 C2565 0.950 . S
H2543 C2567 0.950 . S
H2544 C2568 0.950 . S
H2545 C2569 0.951 . S
H2546 C2571 0.959 . S
H2547 C2573 0.950 . S
H2548 C2574 0.950 . S
H2549 C2576 0.950 . S
H2550 C2579 0.950 . S
H2551 C2580 0.950 . S
H2552 C2582 0.950 . S
H2553 C2583 0.950 . S
C2554 H2536 0.951 . S
C2554 C2555 1.366 . S
C2554 C2556 1.388 . S
C2555 C2554 1.366 . S
C2555 C2559 1.385 . S
C2556 H2537 0.960 . S
C2556 C2554 1.388 . S
C2556 C2557 1.366 . S
C2557 C2556 1.366 . S
C2557 C2558 1.414 . S
C2557 C2560 1.499 . S
C2558 H2538 0.950 . S
C2558 C2557 1.414 . S
C2558 C2559 1.374 . S
C2559 H2539 0.950 . S
C2559 C2555 1.385 . S
C2559 C2558 1.374 . S
C2560 C2557 1.499 . S
C2560 C2561 1.373 . S
C2560 C2562 1.389 1_554 S
C2561 H2540 0.950 . S
C2561 C2560 1.373 . S
C2561 C2577 1.377 . S
C2562 C2560 1.389 1_556 S
C2562 C2563 1.524 . S
C2562 C2576 1.377 . S
C2563 C2562 1.524 . S
C2563 C2564 1.397 . S
C2563 C2568 1.363 . S
C2564 H2541 0.950 . S
C2564 C2563 1.397 . S
C2564 C2565 1.334 . S
C2565 H2542 0.950 . S
C2565 C2564 1.334 . S
C2565 C2566 1.287 . S
C2566 C2565 1.287 . S
C2566 C2567 1.524 . S
C2566 H2585 0.913 . S
C2567 H2543 0.950 . S
C2567 C2566 1.524 . S
C2567 C2568 1.415 . S
C2568 H2544 0.950 . S
C2568 C2563 1.363 . S
C2568 C2567 1.415 . S
C2569 H2545 0.951 . S
C2569 C2570 1.366 . S
C2569 C2571 1.388 . S
C2570 C2569 1.366 . S
C2570 C2574 1.385 . S
C2571 H2546 0.959 . S
C2571 C2569 1.388 . S
C2571 C2572 1.366 . S
C2572 C2571 1.366 . S
C2572 C2573 1.414 . S
C2572 C2575 1.499 . S
C2573 H2547 0.950 . S
C2573 C2572 1.414 . S
C2573 C2574 1.374 . S
C2574 H2548 0.950 . S
C2574 C2570 1.385 . S
C2574 C2573 1.374 . S
C2575 C2572 1.499 . S
C2575 C2576 1.373 . S
C2575 C2577 1.389 1_556 S
C2576 H2549 0.950 . S
C2576 C2562 1.377 . S
C2576 C2575 1.373 . S
C2577 C2561 1.377 . S
C2577 C2575 1.389 1_554 S
C2577 C2578 1.524 . S
C2578 C2577 1.524 . S
C2578 C2579 1.397 . S
C2578 C2583 1.363 . S
C2579 H2550 0.950 . S
C2579 C2578 1.397 . S
C2579 C2580 1.334 . S
C2580 H2551 0.950 . S
C2580 C2579 1.334 . S
C2580 C2581 1.287 . S
C2581 C2580 1.287 . S
C2581 C2582 1.524 . S
C2581 H2584 0.999 . S
C2582 H2552 0.950 . S
C2582 C2581 1.524 . S
C2582 C2583 1.415 . S
C2583 H2553 0.950 . S
C2583 C2578 1.363 . S
C2583 C2582 1.415 . S
H2584 C2581 0.999 . S
H2585 C2566 0.913 . S
H2586 C2604 0.951 . S
H2587 C2606 0.951 . S
H2588 C2608 0.950 . S
H2589 C2609 0.950 . S
H2590 C2611 0.950 . S
H2591 C2614 0.950 . S
H2592 C2615 0.950 . S
H2593 C2617 0.950 . S
H2594 C2618 0.950 . S
H2595 C2619 0.951 . S
H2596 C2621 0.951 . S
H2597 C2623 0.950 . S
H2598 C2624 0.950 . S
H2599 C2626 0.950 . S
H2600 C2629 0.950 . S
H2601 C2630 0.950 . S
H2602 C2632 0.950 . S
H2603 C2633 0.950 . S
C2604 H2586 0.951 . S
C2604 C2605 1.366 . S
C2604 C2606 1.388 . S
C2605 C2604 1.366 . S
C2605 C2609 1.385 . S
C2606 H2587 0.951 . S
C2606 C2604 1.388 . S
C2606 C2607 1.366 . S
C2607 C2606 1.366 . S
C2607 C2608 1.414 . S
C2607 C2610 1.499 . S
C2608 H2588 0.950 . S
C2608 C2607 1.414 . S
C2608 C2609 1.374 . S
C2609 H2589 0.950 . S
C2609 C2605 1.385 . S
C2609 C2608 1.374 . S
C2610 C2607 1.499 . S
C2610 C2611 1.373 . S
C2610 C2612 1.389 . S
C2611 H2590 0.950 . S
C2611 C2610 1.373 . S
C2611 C2627 1.377 . S
C2612 C2610 1.389 . S
C2612 C2613 1.524 . S
C2612 C2626 1.377 . S
C2613 C2612 1.524 . S
C2613 C2614 1.397 . S
C2613 C2618 1.363 . S
C2614 H2591 0.950 . S
C2614 C2613 1.397 . S
C2614 C2615 1.334 . S
C2615 H2592 0.950 . S
C2615 C2614 1.334 . S
C2615 C2616 1.287 . S
C2616 C2615 1.287 . S
C2616 C2617 1.524 . S
C2616 H2635 0.913 . S
C2617 H2593 0.950 . S
C2617 C2616 1.524 . S
C2617 C2618 1.415 . S
C2618 H2594 0.950 . S
C2618 C2613 1.363 . S
C2618 C2617 1.415 . S
C2619 H2595 0.951 . S
C2619 C2620 1.366 . S
C2619 C2621 1.388 . S
C2620 C2619 1.366 . S
C2620 C2624 1.385 . S
C2621 H2596 0.951 . S
C2621 C2619 1.388 . S
C2621 C2622 1.366 . S
C2622 C2621 1.366 . S
C2622 C2623 1.414 . S
C2622 C2625 1.499 . S
C2623 H2597 0.950 . S
C2623 C2622 1.414 . S
C2623 C2624 1.374 . S
C2624 H2598 0.950 . S
C2624 C2620 1.385 . S
C2624 C2623 1.374 . S
C2625 C2622 1.499 . S
C2625 C2626 1.373 . S
C2625 C2627 1.389 . S
C2626 H2599 0.950 . S
C2626 C2612 1.377 . S
C2626 C2625 1.373 . S
C2627 C2611 1.377 . S
C2627 C2625 1.389 . S
C2627 C2628 1.524 . S
C2628 C2627 1.524 . S
C2628 C2629 1.397 . S
C2628 C2633 1.363 . S
C2629 H2600 0.950 . S
C2629 C2628 1.397 . S
C2629 C2630 1.334 . S
C2630 H2601 0.950 . S
C2630 C2629 1.334 . S
C2630 C2631 1.287 . S
C2631 C2630 1.287 . S
C2631 C2632 1.524 . S
C2631 H2634 0.999 . S
C2632 H2602 0.950 . S
C2632 C2631 1.524 . S
C2632 C2633 1.415 . S
C2633 H2603 0.950 . S
C2633 C2628 1.363 . S
C2633 C2632 1.415 . S
H2634 C2631 0.999 . S
H2635 C2616 0.913 . S
H2636 C2654 0.951 . S
H2637 C2656 0.951 . S
H2638 C2658 0.950 . S
H2639 C2659 0.950 . S
H2640 C2661 0.950 . S
H2641 C2664 0.950 . S
H2642 C2665 0.950 . S
H2643 C2667 0.950 . S
H2644 C2668 0.950 . S
H2645 C2669 0.951 . S
H2646 C2671 0.951 . S
H2647 C2673 0.950 . S
H2648 C2674 0.950 . S
H2649 C2676 0.950 . S
H2650 C2679 0.950 . S
H2651 C2680 0.950 . S
H2652 C2682 0.950 . S
H2653 C2683 0.950 . S
C2654 H2636 0.951 . S
C2654 C2655 1.366 . S
C2654 C2656 1.388 . S
C2655 C2654 1.366 . S
C2655 C2659 1.385 . S
C2656 H2637 0.951 . S
C2656 C2654 1.388 . S
C2656 C2657 1.366 . S
C2657 C2656 1.366 . S
C2657 C2658 1.414 . S
C2657 C2660 1.499 . S
C2658 H2638 0.950 . S
C2658 C2657 1.414 . S
C2658 C2659 1.374 . S
C2659 H2639 0.950 . S
C2659 C2655 1.385 . S
C2659 C2658 1.374 . S
C2660 C2657 1.499 . S
C2660 C2661 1.373 1_556 S
C2660 C2662 1.389 . S
C2661 H2640 0.950 . S
C2661 C2660 1.373 1_554 S
C2661 C2677 1.377 . S
C2662 C2660 1.389 . S
C2662 C2663 1.524 . S
C2662 C2676 1.377 . S
C2663 C2662 1.524 . S
C2663 C2664 1.397 . S
C2663 C2668 1.363 . S
C2664 H2641 0.950 . S
C2664 C2663 1.397 . S
C2664 C2665 1.334 . S
C2665 H2642 0.950 . S
C2665 C2664 1.334 . S
C2665 C2666 1.287 . S
C2666 C2665 1.287 . S
C2666 C2667 1.524 . S
C2666 H2685 0.913 . S
C2667 H2643 0.950 . S
C2667 C2666 1.524 . S
C2667 C2668 1.415 . S
C2668 H2644 0.950 . S
C2668 C2663 1.363 . S
C2668 C2667 1.415 . S
C2669 H2645 0.951 . S
C2669 C2670 1.366 . S
C2669 C2671 1.388 . S
C2670 C2669 1.366 . S
C2670 C2674 1.385 . S
C2671 H2646 0.951 . S
C2671 C2669 1.388 . S
C2671 C2672 1.366 . S
C2672 C2671 1.366 . S
C2672 C2673 1.414 . S
C2672 C2675 1.499 . S
C2673 H2647 0.950 . S
C2673 C2672 1.414 . S
C2673 C2674 1.374 . S
C2674 H2648 0.950 . S
C2674 C2670 1.385 . S
C2674 C2673 1.374 . S
C2675 C2672 1.499 . S
C2675 C2676 1.373 1_554 S
C2675 C2677 1.389 . S
C2676 H2649 0.950 . S
C2676 C2662 1.377 . S
C2676 C2675 1.373 1_556 S
C2677 C2661 1.377 . S
C2677 C2675 1.389 . S
C2677 C2678 1.524 . S
C2678 C2677 1.524 . S
C2678 C2679 1.397 . S
C2678 C2683 1.363 . S
C2679 H2650 0.950 . S
C2679 C2678 1.397 . S
C2679 C2680 1.334 . S
C2680 H2651 0.950 . S
C2680 C2679 1.334 . S
C2680 C2681 1.287 . S
C2681 C2680 1.287 . S
C2681 C2682 1.524 . S
C2681 H2684 0.999 . S
C2682 H2652 0.950 . S
C2682 C2681 1.524 . S
C2682 C2683 1.415 . S
C2683 H2653 0.950 . S
C2683 C2678 1.363 . S
C2683 C2682 1.415 . S
H2684 C2681 0.999 . S
H2685 C2666 0.913 . S
H2686 C2704 0.951 . S
H2687 C2706 0.951 . S
H2688 C2708 0.950 . S
H2689 C2709 0.950 . S
H2690 C2711 0.950 . S
H2691 C2714 0.950 . S
H2692 C2715 0.950 . S
H2693 C2717 0.950 . S
H2694 C2718 0.950 . S
H2695 C2719 0.951 . S
H2696 C2721 0.951 . S
H2697 C2723 0.950 . S
H2698 C2724 0.950 . S
H2699 C2726 0.950 . S
H2700 C2729 0.950 . S
H2701 C2730 0.950 . S
H2702 C2732 0.950 . S
H2703 C2733 0.950 . S
C2704 H2686 0.951 . S
C2704 C2705 1.366 . S
C2704 C2706 1.388 . S
C2705 C2704 1.366 . S
C2705 C2709 1.385 . S
C2706 H2687 0.951 . S
C2706 C2704 1.388 . S
C2706 C2707 1.366 . S
C2707 C2706 1.366 . S
C2707 C2708 1.414 . S
C2707 C2710 1.499 . S
C2708 H2688 0.950 . S
C2708 C2707 1.414 . S
C2708 C2709 1.374 . S
C2709 H2689 0.950 . S
C2709 C2705 1.385 . S
C2709 C2708 1.374 . S
C2710 C2707 1.499 . S
C2710 C2711 1.373 . S
C2710 C2712 1.389 . S
C2711 H2690 0.950 . S
C2711 C2710 1.373 . S
C2711 C2727 1.377 . S
C2712 C2710 1.389 . S
C2712 C2713 1.524 . S
C2712 C2726 1.377 . S
C2713 C2712 1.524 . S
C2713 C2714 1.397 . S
C2713 C2718 1.363 . S
C2714 H2691 0.950 . S
C2714 C2713 1.397 . S
C2714 C2715 1.334 . S
C2715 H2692 0.950 . S
C2715 C2714 1.334 . S
C2715 C2716 1.287 . S
C2716 C2715 1.287 . S
C2716 C2717 1.524 . S
C2716 H2735 0.913 . S
C2717 H2693 0.950 . S
C2717 C2716 1.524 . S
C2717 C2718 1.415 . S
C2718 H2694 0.950 . S
C2718 C2713 1.363 . S
C2718 C2717 1.415 . S
C2719 H2695 0.951 . S
C2719 C2720 1.366 . S
C2719 C2721 1.388 . S
C2720 C2719 1.366 . S
C2720 C2724 1.385 . S
C2721 H2696 0.951 . S
C2721 C2719 1.388 . S
C2721 C2722 1.366 . S
C2722 C2721 1.366 . S
C2722 C2723 1.414 . S
C2722 C2725 1.499 . S
C2723 H2697 0.950 . S
C2723 C2722 1.414 . S
C2723 C2724 1.374 . S
C2724 H2698 0.950 . S
C2724 C2720 1.385 . S
C2724 C2723 1.374 . S
C2725 C2722 1.499 . S
C2725 C2726 1.373 . S
C2725 C2727 1.389 . S
C2726 H2699 0.950 . S
C2726 C2712 1.377 . S
C2726 C2725 1.373 . S
C2727 C2711 1.377 . S
C2727 C2725 1.389 . S
C2727 C2728 1.524 . S
C2728 C2727 1.524 . S
C2728 C2729 1.397 . S
C2728 C2733 1.363 . S
C2729 H2700 0.950 . S
C2729 C2728 1.397 . S
C2729 C2730 1.334 . S
C2730 H2701 0.950 . S
C2730 C2729 1.334 . S
C2730 C2731 1.287 . S
C2731 C2730 1.287 . S
C2731 C2732 1.524 . S
C2731 H2734 0.999 . S
C2732 H2702 0.950 . S
C2732 C2731 1.524 . S
C2732 C2733 1.415 . S
C2733 H2703 0.950 . S
C2733 C2728 1.363 . S
C2733 C2732 1.415 . S
H2734 C2731 0.999 . S
H2735 C2716 0.913 . S
C355 C11 1.438 . S
C370 C221 1.439 . S
C405 C25 1.438 . S
C420 C235 1.439 . S
C455 C249 1.439 . S
C470 C39 1.438 . S
C505 C179 1.439 . S
C520 C53 1.438 . S
C555 C193 1.438 . S
C570 C67 1.438 . S
C605 C207 1.438 . S
C620 C81 1.438 . S
C655 C305 1.438 . S
C670 C95 1.439 . S
C705 C109 1.439 . S
C720 C319 1.438 . S
C755 C333 1.438 . S
C770 C123 1.439 . S
C805 C137 1.438 . S
C820 C263 1.438 . S
C855 C277 1.438 . S
C870 C151 1.438 . S
C905 C165 1.438 . S
C920 C291 1.438 . S
C955 C145 0.870 . S
C970 C5 0.867 . S
C1005 C159 0.869 . S
C1020 C19 0.866 . S
C1055 C33 0.870 . S
C1070 C89 0.867 . S
C1105 C47 0.866 . S
C1120 C103 0.869 . S
C1155 C117 0.868 . S
C1170 C61 0.866 . S
C1205 C75 0.869 . S
C1220 C131 0.867 . S
C1255 C313 0.867 . S
C1270 C173 0.870 . S
C1305 C187 0.869 . S
C1320 C327 0.868 . S
C1355 C201 0.867 . S
C1370 C257 0.866 . S
C1405 C271 0.869 . S
C1420 C215 0.866 . S
C1455 C229 0.869 . S
C1470 C285 0.868 . S
C1505 C243 0.869 . S
C1520 C299 0.866 . S
C1555 C12 1.050 . S
C1570 C264 1.049 . S
C1605 C278 1.050 . S
C1620 C26 1.049 . S
C1655 C40 1.050 . S
C1670 C292 1.050 . S
C1705 C54 1.050 . S
C1720 C306 1.050 . S
C1755 C320 1.049 . S
C1770 C68 1.050 . S
C1805 C82 1.050 . S
C1820 C334 1.049 . S
C1855 C96 1.049 . S
C1870 C180 1.050 . S
C1905 C110 1.049 . S
C1920 C194 1.050 . S
C1955 C208 1.049 . S
C1970 C124 1.050 . S
C2005 C222 1.049 . S
C2020 C138 1.049 . S
C2055 C152 1.049 . S
C2070 C236 1.050 . S
C2105 C250 1.049 . S
C2120 C166 1.050 . S
C2155 C88 1.516 . S
C2170 C4 1.516 . S
C2205 C18 1.516 . S
C2220 C102 1.515 . S
C2255 C116 1.516 . S
C2270 C32 1.516 . S
C2305 C130 1.516 . S
C2320 C46 1.516 . S
C2355 C144 1.517 . S
C2370 C60 1.516 . S
C2405 C74 1.515 . S
C2420 C158 1.516 . S
C2455 C256 1.516 . S
C2470 C172 1.517 . S
C2505 C186 1.516 . S
C2520 C270 1.515 . S
C2555 C284 1.516 . S
C2570 C200 1.516 . S
C2605 C298 1.516 . S
C2620 C214 1.517 . S
C2655 C228 1.516 . S
C2670 C312 1.517 . S
C2705 C242 1.516 . S
C2720 C326 1.517 . S
