# Generated by pormake.
# Topology wjc, (7)-cn, num edge types: 1
# Building blocks:
#     Node 0, Type 0, BuildingBlock: HICVOG_clean_sbu_0, # of connection points: 7
#     Node 1, Type 0, BuildingBlock: HICVOG_clean_sbu_0, # of connection points: 7
#     Node 2, Type 0, BuildingBlock: HICVOG_clean_sbu_0, # of connection points: 7
#     Node 3, Type 0, BuildingBlock: HICVOG_clean_sbu_0, # of connection points: 7
#     Node 4, Type 0, BuildingBlock: HICVOG_clean_sbu_0, # of connection points: 7
#     Node 5, Type 0, BuildingBlock: HICVOG_clean_sbu_0, # of connection points: 7
#     Node 6, Type 0, BuildingBlock: HICVOG_clean_sbu_0, # of connection points: 7
#     Node 7, Type 0, BuildingBlock: HICVOG_clean_sbu_0, # of connection points: 7
#     Node 8, Type 0, BuildingBlock: HICVOG_clean_sbu_0, # of connection points: 7
#     Node 9, Type 0, BuildingBlock: HICVOG_clean_sbu_0, # of connection points: 7
#     Node 10, Type 0, BuildingBlock: HICVOG_clean_sbu_0, # of connection points: 7
#     Node 11, Type 0, BuildingBlock: HICVOG_clean_sbu_0, # of connection points: 7
#     Node 12, Type 0, BuildingBlock: HICVOG_clean_sbu_0, # of connection points: 7
#     Node 13, Type 0, BuildingBlock: HICVOG_clean_sbu_0, # of connection points: 7
#     Node 14, Type 0, BuildingBlock: HICVOG_clean_sbu_0, # of connection points: 7
#     Node 15, Type 0, BuildingBlock: HICVOG_clean_sbu_0, # of connection points: 7
#     Node 16, Type 0, BuildingBlock: HICVOG_clean_sbu_0, # of connection points: 7
#     Node 17, Type 0, BuildingBlock: HICVOG_clean_sbu_0, # of connection points: 7
#     Node 18, Type 0, BuildingBlock: HICVOG_clean_sbu_0, # of connection points: 7
#     Node 19, Type 0, BuildingBlock: HICVOG_clean_sbu_0, # of connection points: 7
#     Node 20, Type 0, BuildingBlock: HICVOG_clean_sbu_0, # of connection points: 7
#     Node 21, Type 0, BuildingBlock: HICVOG_clean_sbu_0, # of connection points: 7
#     Node 22, Type 0, BuildingBlock: HICVOG_clean_sbu_0, # of connection points: 7
#     Node 23, Type 0, BuildingBlock: HICVOG_clean_sbu_0, # of connection points: 7
#     Edge 24, Type (0, 0), BuildingBlock: KIFKEQ_clean_linker_1, # of connection points: 2
#     Edge 25, Type (0, 0), BuildingBlock: KIFKEQ_clean_linker_1, # of connection points: 2
#     Edge 26, Type (0, 0), BuildingBlock: KIFKEQ_clean_linker_1, # of connection points: 2
#     Edge 27, Type (0, 0), BuildingBlock: KIFKEQ_clean_linker_1, # of connection points: 2
#     Edge 28, Type (0, 0), BuildingBlock: KIFKEQ_clean_linker_1, # of connection points: 2
#     Edge 29, Type (0, 0), BuildingBlock: KIFKEQ_clean_linker_1, # of connection points: 2
#     Edge 30, Type (0, 0), BuildingBlock: KIFKEQ_clean_linker_1, # of connection points: 2
#     Edge 31, Type (0, 0), BuildingBlock: KIFKEQ_clean_linker_1, # of connection points: 2
#     Edge 32, Type (0, 0), BuildingBlock: KIFKEQ_clean_linker_1, # of connection points: 2
#     Edge 33, Type (0, 0), BuildingBlock: KIFKEQ_clean_linker_1, # of connection points: 2
#     Edge 34, Type (0, 0), BuildingBlock: KIFKEQ_clean_linker_1, # of connection points: 2
#     Edge 35, Type (0, 0), BuildingBlock: KIFKEQ_clean_linker_1, # of connection points: 2
#     Edge 36, Type (0, 0), BuildingBlock: KIFKEQ_clean_linker_1, # of connection points: 2
#     Edge 37, Type (0, 0), BuildingBlock: KIFKEQ_clean_linker_1, # of connection points: 2
#     Edge 38, Type (0, 0), BuildingBlock: KIFKEQ_clean_linker_1, # of connection points: 2
#     Edge 39, Type (0, 0), BuildingBlock: KIFKEQ_clean_linker_1, # of connection points: 2
#     Edge 40, Type (0, 0), BuildingBlock: KIFKEQ_clean_linker_1, # of connection points: 2
#     Edge 41, Type (0, 0), BuildingBlock: KIFKEQ_clean_linker_1, # of connection points: 2
#     Edge 42, Type (0, 0), BuildingBlock: KIFKEQ_clean_linker_1, # of connection points: 2
#     Edge 43, Type (0, 0), BuildingBlock: KIFKEQ_clean_linker_1, # of connection points: 2
#     Edge 44, Type (0, 0), BuildingBlock: KIFKEQ_clean_linker_1, # of connection points: 2
#     Edge 45, Type (0, 0), BuildingBlock: KIFKEQ_clean_linker_1, # of connection points: 2
#     Edge 46, Type (0, 0), BuildingBlock: KIFKEQ_clean_linker_1, # of connection points: 2
#     Edge 47, Type (0, 0), BuildingBlock: KIFKEQ_clean_linker_1, # of connection points: 2
#     Edge 48, Type (0, 0), BuildingBlock: KIFKEQ_clean_linker_1, # of connection points: 2
#     Edge 49, Type (0, 0), BuildingBlock: KIFKEQ_clean_linker_1, # of connection points: 2
#     Edge 50, Type (0, 0), BuildingBlock: KIFKEQ_clean_linker_1, # of connection points: 2
#     Edge 51, Type (0, 0), BuildingBlock: KIFKEQ_clean_linker_1, # of connection points: 2
#     Edge 52, Type (0, 0), BuildingBlock: KIFKEQ_clean_linker_1, # of connection points: 2
#     Edge 53, Type (0, 0), BuildingBlock: KIFKEQ_clean_linker_1, # of connection points: 2
#     Edge 54, Type (0, 0), BuildingBlock: KIFKEQ_clean_linker_1, # of connection points: 2
#     Edge 55, Type (0, 0), BuildingBlock: KIFKEQ_clean_linker_1, # of connection points: 2
#     Edge 56, Type (0, 0), BuildingBlock: KIFKEQ_clean_linker_1, # of connection points: 2
#     Edge 57, Type (0, 0), BuildingBlock: KIFKEQ_clean_linker_1, # of connection points: 2
#     Edge 58, Type (0, 0), BuildingBlock: KIFKEQ_clean_linker_1, # of connection points: 2
#     Edge 59, Type (0, 0), BuildingBlock: KIFKEQ_clean_linker_1, # of connection points: 2
#     Edge 60, Type (0, 0), BuildingBlock: KIFKEQ_clean_linker_1, # of connection points: 2
#     Edge 61, Type (0, 0), BuildingBlock: KIFKEQ_clean_linker_1, # of connection points: 2
#     Edge 62, Type (0, 0), BuildingBlock: KIFKEQ_clean_linker_1, # of connection points: 2
#     Edge 63, Type (0, 0), BuildingBlock: KIFKEQ_clean_linker_1, # of connection points: 2
#     Edge 64, Type (0, 0), BuildingBlock: KIFKEQ_clean_linker_1, # of connection points: 2
#     Edge 65, Type (0, 0), BuildingBlock: KIFKEQ_clean_linker_1, # of connection points: 2
#     Edge 66, Type (0, 0), BuildingBlock: KIFKEQ_clean_linker_1, # of connection points: 2
#     Edge 67, Type (0, 0), BuildingBlock: KIFKEQ_clean_linker_1, # of connection points: 2
#     Edge 68, Type (0, 0), BuildingBlock: KIFKEQ_clean_linker_1, # of connection points: 2
#     Edge 69, Type (0, 0), BuildingBlock: KIFKEQ_clean_linker_1, # of connection points: 2
#     Edge 70, Type (0, 0), BuildingBlock: KIFKEQ_clean_linker_1, # of connection points: 2
#     Edge 71, Type (0, 0), BuildingBlock: KIFKEQ_clean_linker_1, # of connection points: 2
#     Edge 72, Type (0, 0), BuildingBlock: KIFKEQ_clean_linker_1, # of connection points: 2
#     Edge 73, Type (0, 0), BuildingBlock: KIFKEQ_clean_linker_1, # of connection points: 2
#     Edge 74, Type (0, 0), BuildingBlock: KIFKEQ_clean_linker_1, # of connection points: 2
#     Edge 75, Type (0, 0), BuildingBlock: KIFKEQ_clean_linker_1, # of connection points: 2
#     Edge 76, Type (0, 0), BuildingBlock: KIFKEQ_clean_linker_1, # of connection points: 2
#     Edge 77, Type (0, 0), BuildingBlock: KIFKEQ_clean_linker_1, # of connection points: 2
#     Edge 78, Type (0, 0), BuildingBlock: KIFKEQ_clean_linker_1, # of connection points: 2
#     Edge 79, Type (0, 0), BuildingBlock: KIFKEQ_clean_linker_1, # of connection points: 2
#     Edge 80, Type (0, 0), BuildingBlock: KIFKEQ_clean_linker_1, # of connection points: 2
#     Edge 81, Type (0, 0), BuildingBlock: KIFKEQ_clean_linker_1, # of connection points: 2
#     Edge 82, Type (0, 0), BuildingBlock: KIFKEQ_clean_linker_1, # of connection points: 2
#     Edge 83, Type (0, 0), BuildingBlock: KIFKEQ_clean_linker_1, # of connection points: 2
#     Edge 84, Type (0, 0), BuildingBlock: KIFKEQ_clean_linker_1, # of connection points: 2
#     Edge 85, Type (0, 0), BuildingBlock: KIFKEQ_clean_linker_1, # of connection points: 2
#     Edge 86, Type (0, 0), BuildingBlock: KIFKEQ_clean_linker_1, # of connection points: 2
#     Edge 87, Type (0, 0), BuildingBlock: KIFKEQ_clean_linker_1, # of connection points: 2
#     Edge 88, Type (0, 0), BuildingBlock: KIFKEQ_clean_linker_1, # of connection points: 2
#     Edge 89, Type (0, 0), BuildingBlock: KIFKEQ_clean_linker_1, # of connection points: 2
#     Edge 90, Type (0, 0), BuildingBlock: KIFKEQ_clean_linker_1, # of connection points: 2
#     Edge 91, Type (0, 0), BuildingBlock: KIFKEQ_clean_linker_1, # of connection points: 2
#     Edge 92, Type (0, 0), BuildingBlock: KIFKEQ_clean_linker_1, # of connection points: 2
#     Edge 93, Type (0, 0), BuildingBlock: KIFKEQ_clean_linker_1, # of connection points: 2
#     Edge 94, Type (0, 0), BuildingBlock: KIFKEQ_clean_linker_1, # of connection points: 2
#     Edge 95, Type (0, 0), BuildingBlock: KIFKEQ_clean_linker_1, # of connection points: 2
#     Edge 96, Type (0, 0), BuildingBlock: KIFKEQ_clean_linker_1, # of connection points: 2
#     Edge 97, Type (0, 0), BuildingBlock: KIFKEQ_clean_linker_1, # of connection points: 2
#     Edge 98, Type (0, 0), BuildingBlock: KIFKEQ_clean_linker_1, # of connection points: 2
#     Edge 99, Type (0, 0), BuildingBlock: KIFKEQ_clean_linker_1, # of connection points: 2
#     Edge 100, Type (0, 0), BuildingBlock: KIFKEQ_clean_linker_1, # of connection points: 2
#     Edge 101, Type (0, 0), BuildingBlock: KIFKEQ_clean_linker_1, # of connection points: 2
#     Edge 102, Type (0, 0), BuildingBlock: KIFKEQ_clean_linker_1, # of connection points: 2
#     Edge 103, Type (0, 0), BuildingBlock: KIFKEQ_clean_linker_1, # of connection points: 2
#     Edge 104, Type (0, 0), BuildingBlock: KIFKEQ_clean_linker_1, # of connection points: 2
#     Edge 105, Type (0, 0), BuildingBlock: KIFKEQ_clean_linker_1, # of connection points: 2
#     Edge 106, Type (0, 0), BuildingBlock: KIFKEQ_clean_linker_1, # of connection points: 2
#     Edge 107, Type (0, 0), BuildingBlock: KIFKEQ_clean_linker_1, # of connection points: 2
# Relax obj value: 0.233
# Max RMSD: 0.226
# Mean RMSD: 0.226
data_MOF--net-wjc--node1-HICVOG_clean_sbu_0--edge1-KIFKEQ_clean_linker_1
_symmetry_space_group_name_H-M    P1
_symmetry_Int_Tables_number       1
_symmetry_cell_setting            triclinic
loop_
_symmetry_equiv_pos_as_xyz
'x, y, z'
_cell_length_a     41.83103
_cell_length_b     41.806096
_cell_length_c     80.98782
_cell_angle_alpha  89.995384
_cell_angle_beta   90.069347
_cell_angle_gamma 120.03206
loop_
_atom_site_label
_atom_site_type_symbol
_atom_site_fract_x
_atom_site_fract_y
_atom_site_fract_z
_atom_type_partial_charge
Zn0 Zn 0.42715 0.11288 0.11819 0.0
C1 C 0.51146 0.1406 0.15063 0.0
N2 N 0.51466 0.11477 0.14225 0.0
C3 C 0.48534 0.1005 0.13212 0.0
N4 N 0.46481 0.11703 0.13398 0.0
N5 N 0.48121 0.14192 0.14588 0.0
C6 C 0.52137 0.24594 0.15295 0.0
O7 O 0.51083 0.2378 0.13749 0.0
O8 O 0.38463 0.05946 0.11705 0.0
Zn9 Zn 0.46422 0.17109 0.15746 0.0
N10 N 0.4522 0.12805 0.0971 0.0
C11 C 0.50655 0.17372 0.08364 0.0
C12 C 0.48678 0.15791 0.09803 0.0
C13 C 0.43647 0.11304 0.08223 0.0
N14 N 0.49074 0.1594 0.06883 0.0
C15 C 0.45623 0.12944 0.06765 0.0
O16 O 0.43029 0.18126 0.14434 0.0
C17 C 0.40978 0.17308 0.13168 0.0
O18 O 0.40641 0.14813 0.12157 0.0
H19 H 0.49861 0.16982 0.1099 0.0
H20 H 0.40864 0.08971 0.08174 0.0
C21 C 0.44262 0.16599 0.19134 0.0
C22 C 0.42359 0.14779 0.20582 0.0
C23 C 0.39869 0.09037 0.19166 0.0
C24 C 0.41768 0.1086 0.17739 0.0
N25 N 0.43915 0.14597 0.1775 0.0
N26 N 0.40196 0.11029 0.20545 0.0
H27 H 0.45931 0.19578 0.19086 0.0
C28 C 0.35738 0.04865 0.12687 0.0
O29 O 0.35757 0.07233 0.1376 0.0
O30 O 0.5062 0.22126 0.16397 0.0
H31 H 0.41515 0.0932 0.16625 0.0
H32 H 0.53401 0.1976 0.08422 0.0
H33 H 0.38133 0.06062 0.19176 0.0
Zn34 Zn 0.3067 0.46516 0.15754 0.0
C35 C 0.39484 0.49195 0.12831 0.0
N36 N 0.40907 0.5229 0.1374 0.0
C37 C 0.38075 0.51732 0.14699 0.0
N38 N 0.35041 0.48437 0.14396 0.0
N39 N 0.35894 0.46825 0.13198 0.0
C40 C 0.32108 0.35518 0.11196 0.0
O41 O 0.28934 0.34597 0.10489 0.0
O42 O 0.29541 0.50558 0.16238 0.0
Zn43 Zn 0.32479 0.4266 0.11811 0.0
N44 N 0.31511 0.44873 0.17855 0.0
C45 C 0.35017 0.43178 0.19585 0.0
C46 C 0.34292 0.44114 0.18031 0.0
C47 C 0.29391 0.44698 0.19163 0.0
N48 N 0.32935 0.43049 0.20897 0.0
C49 C 0.30111 0.43765 0.20734 0.0
O50 O 0.26927 0.40325 0.12356 0.0
C51 C 0.24819 0.40409 0.13473 0.0
O52 O 0.2609 0.42525 0.14718 0.0
H53 H 0.35962 0.44287 0.16979 0.0
H54 H 0.27246 0.45393 0.18984 0.0
C55 C 0.33067 0.43223 0.08177 0.0
C56 C 0.32884 0.44861 0.06687 0.0
C57 C 0.3247 0.49498 0.08202 0.0
C58 C 0.32593 0.47848 0.09672 0.0
N59 N 0.32865 0.44742 0.09637 0.0
N60 N 0.32583 0.47953 0.06749 0.0
H61 H 0.3323 0.40719 0.08175 0.0
C62 C 0.28047 0.51427 0.15092 0.0
O63 O 0.27422 0.49738 0.1366 0.0
O64 O 0.34024 0.38746 0.11805 0.0
H65 H 0.32392 0.48986 0.10841 0.0
H66 H 0.37239 0.42591 0.19751 0.0
H67 H 0.32226 0.51955 0.08214 0.0
Zn68 Zn 0.91178 0.32874 0.11706 0.0
C69 C 0.87951 0.3814 0.14926 0.0
N70 N 0.90437 0.41149 0.14115 0.0
C71 C 0.92105 0.39845 0.1313 0.0
N72 N 0.9067 0.36147 0.13306 0.0
N73 N 0.881 0.35117 0.14467 0.0
C74 C 0.77862 0.27611 0.14984 0.0
O75 O 0.78974 0.27027 0.13557 0.0
O76 O 0.96477 0.33816 0.11659 0.0
Zn77 Zn 0.85476 0.30515 0.15666 0.0
N78 N 0.89985 0.34172 0.09577 0.0
C79 C 0.86594 0.36565 0.08205 0.0
C80 C 0.87464 0.35319 0.09634 0.0
C81 C 0.91559 0.3406 0.08119 0.0
N82 N 0.88196 0.36515 0.0676 0.0
C83 C 0.90636 0.35267 0.06663 0.0
O84 O 0.84979 0.26116 0.14484 0.0
C85 C 0.85618 0.25002 0.13134 0.0
O86 O 0.87642 0.27244 0.12009 0.0
H87 H 0.86174 0.35319 0.10789 0.0
H88 H 0.93524 0.33095 0.08099 0.0
C89 C 0.85726 0.28895 0.19075 0.0
C90 C 0.87322 0.29416 0.20654 0.0
C91 C 0.93016 0.34126 0.19557 0.0
C92 C 0.9141 0.33608 0.17999 0.0
N93 N 0.87801 0.31015 0.1779 0.0
N94 N 0.90939 0.32045 0.20845 0.0
H95 H 0.82837 0.26914 0.18872 0.0
C96 C 0.98376 0.34501 0.12976 0.0
O97 O 0.96911 0.3469 0.1438 0.0
O98 O 0.80227 0.29242 0.1612 0.0
H99 H 0.93005 0.35298 0.1697 0.0
H100 H 0.84644 0.37548 0.0824 0.0
H101 H 0.95881 0.36194 0.19747 0.0
Zn102 Zn 0.56297 0.85501 0.15698 0.0
C103 C 0.54084 0.92504 0.13173 0.0
N104 N 0.51195 0.91069 0.14208 0.0
C105 C 0.51563 0.88498 0.1503 0.0
N106 N 0.5458 0.88388 0.1453 0.0
N107 N 0.56157 0.90857 0.1333 0.0
C108 C 0.65409 0.98384 0.12807 0.0
O109 O 0.63888 0.96973 0.1424 0.0
O110 O 0.52087 0.80371 0.16157 0.0
Zn111 Zn 0.59754 0.91105 0.11692 0.0
N112 N 0.58318 0.87765 0.17814 0.0
C113 C 0.61136 0.93085 0.19531 0.0
C114 C 0.59746 0.9146 0.18 0.0
C115 C 0.58204 0.8561 0.19099 0.0
N116 N 0.61006 0.90939 0.20817 0.0
C117 C 0.59559 0.8722 0.2066 0.0
O118 O 0.61799 0.87541 0.1204 0.0
C119 C 0.61833 0.85397 0.13156 0.0
O120 O 0.59996 0.84753 0.14481 0.0
H121 H 0.59792 0.93123 0.16968 0.0
H122 H 0.57099 0.8269 0.18888 0.0
C123 C 0.58638 0.91122 0.08115 0.0
C124 C 0.56386 0.90061 0.06695 0.0
C125 C 0.51179 0.86176 0.08346 0.0
C126 C 0.53414 0.87191 0.09741 0.0
N127 N 0.57076 0.89698 0.09612 0.0
N128 N 0.52707 0.87635 0.06862 0.0
H129 H 0.61566 0.93081 0.08037 0.0
C130 C 0.51062 0.78021 0.14995 0.0
O131 O 0.52665 0.79077 0.13546 0.0
O132 O 0.64107 0.96402 0.11518 0.0
H133 H 0.52223 0.86031 0.10929 0.0
H134 H 0.62293 0.96028 0.197 0.0
H135 H 0.4825 0.84235 0.08438 0.0
Zn136 Zn 0.6957 0.59331 0.11699 0.0
C137 C 0.64125 0.51046 0.15014 0.0
N138 N 0.61144 0.50651 0.14219 0.0
C139 C 0.6253 0.53582 0.13204 0.0
N140 N 0.66253 0.55696 0.13341 0.0
N141 N 0.67203 0.54101 0.14511 0.0
C142 C 0.7332 0.49907 0.14881 0.0
O143 O 0.7345 0.51181 0.13384 0.0
O144 O 0.68686 0.63725 0.11563 0.0
Zn145 Zn 0.71823 0.55688 0.15623 0.0
N146 N 0.68204 0.56693 0.09606 0.0
C147 C 0.65636 0.50805 0.0831 0.0
C148 C 0.66926 0.53002 0.09716 0.0
C149 C 0.68414 0.5832 0.08118 0.0
N150 N 0.65776 0.524 0.06836 0.0
C151 C 0.67161 0.56106 0.06687 0.0
O152 O 0.76228 0.59206 0.14335 0.0
C153 C 0.77402 0.61137 0.13032 0.0
O154 O 0.75189 0.6131 0.11993 0.0
H155 H 0.66855 0.51758 0.10894 0.0
H156 H 0.69492 0.61271 0.08054 0.0
C157 C 0.73766 0.57679 0.1903 0.0
C158 C 0.73402 0.58907 0.206 0.0
C159 C 0.69041 0.60385 0.19488 0.0
C160 C 0.69395 0.59143 0.1794 0.0
N161 N 0.71729 0.57797 0.17741 0.0
N162 N 0.71023 0.60214 0.2078 0.0
H163 H 0.75547 0.56524 0.18842 0.0
C164 C 0.67993 0.65005 0.12855 0.0
O165 O 0.67825 0.63436 0.14282 0.0
O166 O 0.72535 0.51345 0.16081 0.0
H167 H 0.67769 0.59182 0.1691 0.0
H168 H 0.64547 0.47855 0.08388 0.0
H169 H 0.67172 0.61437 0.19668 0.0
Zn170 Zn 0.17383 0.7207 0.15694 0.0
C171 C 0.10962 0.6309 0.12898 0.0
N172 N 0.12647 0.617 0.13818 0.0
C173 C 0.14999 0.64591 0.14733 0.0
N174 N 0.14783 0.67629 0.14391 0.0
N175 N 0.12248 0.66718 0.13218 0.0
C176 C 0.04561 0.70218 0.1111 0.0
O177 O 0.06774 0.73374 0.10379 0.0
O178 O 0.2261 0.73268 0.16137 0.0
Zn179 Zn 0.11438 0.70077 0.11811 0.0
N180 N 0.15001 0.71344 0.1781 0.0
C181 C 0.09699 0.68242 0.19517 0.0
C182 C 0.11363 0.68808 0.17973 0.0
C183 C 0.17055 0.73349 0.19125 0.0
N184 N 0.11749 0.70219 0.20834 0.0
C185 C 0.15409 0.72767 0.20696 0.0
O186 O 0.14519 0.75659 0.12357 0.0
C187 C 0.16836 0.77801 0.13434 0.0
O188 O 0.17842 0.76557 0.14633 0.0
H189 H 0.09779 0.67239 0.16913 0.0
H190 H 0.1992 0.75387 0.18926 0.0
C191 C 0.11599 0.69487 0.08177 0.0
C192 C 0.13525 0.69735 0.06714 0.0
C193 C 0.18572 0.70338 0.083 0.0
C194 C 0.16694 0.7015 0.09744 0.0
N195 N 0.13268 0.69754 0.0966 0.0
N196 N 0.16964 0.7016 0.06824 0.0
H197 H 0.08892 0.69226 0.08137 0.0
C198 C 0.24975 0.74816 0.14997 0.0
O199 O 0.23889 0.75418 0.13566 0.0
O200 O 0.05932 0.68394 0.11759 0.0
H201 H 0.17989 0.70403 0.10931 0.0
H202 H 0.06802 0.66237 0.19671 0.0
H203 H 0.2131 0.7068 0.0835 0.0
Zn204 Zn 0.91457 0.59497 0.39779 0.0
C205 C 0.88817 0.51365 0.36395 0.0
N206 N 0.91422 0.5102 0.37201 0.0
C207 C 0.92834 0.53888 0.38251 0.0
N208 N 0.91147 0.55923 0.38118 0.0
N209 N 0.88657 0.5434 0.36924 0.0
C210 C 0.78233 0.50449 0.36385 0.0
O211 O 0.79159 0.51518 0.37922 0.0
O212 O 0.96825 0.63718 0.39969 0.0
Zn213 Zn 0.85763 0.56087 0.35782 0.0
N214 N 0.90036 0.56762 0.41842 0.0
C215 C 0.86497 0.50842 0.43083 0.0
C216 C 0.8751 0.53106 0.41699 0.0
C217 C 0.91488 0.5829 0.43342 0.0
N218 N 0.8798 0.52338 0.4457 0.0
C219 C 0.90429 0.56011 0.44752 0.0
O220 O 0.85014 0.59723 0.37051 0.0
C221 C 0.85721 0.61593 0.38372 0.0
O222 O 0.87933 0.61606 0.39465 0.0
H223 H 0.86334 0.51941 0.40508 0.0
H224 H 0.93468 0.61213 0.43429 0.0
C225 C 0.85978 0.58028 0.32374 0.0
C226 C 0.87626 0.59269 0.30816 0.0
C227 C 0.93448 0.60872 0.3199 0.0
C228 C 0.91795 0.59624 0.33529 0.0
N229 N 0.88095 0.58203 0.33688 0.0
N230 N 0.91331 0.60642 0.30672 0.0
H231 H 0.83028 0.56823 0.32534 0.0
C232 C 0.97981 0.66738 0.39182 0.0
O233 O 0.95657 0.67129 0.38228 0.0
O234 O 0.80629 0.51926 0.35251 0.0
H235 H 0.93434 0.59727 0.34583 0.0
H236 H 0.8454 0.47918 0.4298 0.0
H237 H 0.96385 0.6198 0.31839 0.0
Zn238 Zn 0.30575 0.84842 0.35951 0.0
C239 C 0.40079 0.91958 0.38243 0.0
N240 N 0.41328 0.90336 0.37198 0.0
C241 C 0.38258 0.87781 0.36443 0.0
N242 N 0.35263 0.87837 0.37001 0.0
N243 N 0.36352 0.90423 0.3816 0.0
C244 C 0.32631 0.97458 0.39117 0.0
O245 O 0.29972 0.9511 0.38144 0.0
O246 O 0.2966 0.79662 0.35498 0.0
Zn247 Zn 0.33211 0.90915 0.39845 0.0
N248 N 0.30583 0.87139 0.33867 0.0
C249 C 0.32383 0.92615 0.32318 0.0
C250 C 0.32306 0.90885 0.33802 0.0
C251 C 0.28914 0.85046 0.32507 0.0
N252 N 0.30691 0.90526 0.30964 0.0
C253 C 0.28917 0.86766 0.31013 0.0
O254 O 0.27508 0.87454 0.39618 0.0
C255 C 0.25246 0.85098 0.3858 0.0
O256 O 0.26356 0.84239 0.37289 0.0
H257 H 0.3362 0.92509 0.34894 0.0
H258 H 0.27649 0.82082 0.32581 0.0
C259 C 0.34382 0.91028 0.4341 0.0
C260 C 0.35664 0.90099 0.44839 0.0
C261 C 0.37266 0.86387 0.43216 0.0
C262 C 0.35946 0.87261 0.41811 0.0
N263 N 0.34615 0.89629 0.41922 0.0
N264 N 0.37103 0.87826 0.44691 0.0
H265 H 0.33263 0.92865 0.43475 0.0
C266 C 0.26376 0.77171 0.3515 0.0
O267 O 0.23778 0.78064 0.35105 0.0
O268 O 0.3443 0.96315 0.39963 0.0
H269 H 0.36034 0.86095 0.40633 0.0
H270 H 0.33762 0.95596 0.32244 0.0
H271 H 0.38397 0.84563 0.43137 0.0
Zn272 Zn 0.46872 0.3028 0.3588 0.0
C273 C 0.4921 0.39554 0.38367 0.0
N274 N 0.5219 0.40917 0.37387 0.0
C275 C 0.5175 0.37942 0.3657 0.0
N276 N 0.48609 0.34887 0.37024 0.0
N277 N 0.47017 0.35848 0.38189 0.0
C278 C 0.35849 0.31946 0.40342 0.0
O279 O 0.35065 0.28948 0.41178 0.0
O280 O 0.51131 0.29495 0.35353 0.0
Zn281 Zn 0.43172 0.32568 0.39765 0.0
N282 N 0.44554 0.30361 0.33824 0.0
C283 C 0.40896 0.32238 0.32315 0.0
C284 C 0.42683 0.32236 0.33767 0.0
C285 C 0.44733 0.28492 0.32482 0.0
N286 N 0.41049 0.30357 0.30978 0.0
C287 C 0.42932 0.28479 0.31008 0.0
O288 O 0.41059 0.26898 0.39476 0.0
C289 C 0.41287 0.24709 0.38441 0.0
O290 O 0.43312 0.25905 0.37167 0.0
H291 H 0.42558 0.3369 0.34848 0.0
H292 H 0.46185 0.26967 0.32582 0.0
C293 C 0.43876 0.33747 0.43374 0.0
C294 C 0.45986 0.34934 0.44838 0.0
C295 C 0.51341 0.36217 0.43314 0.0
C296 C 0.49245 0.34988 0.41878 0.0
N297 N 0.45581 0.33864 0.4192 0.0
N298 N 0.49672 0.36168 0.44753 0.0
H299 H 0.40948 0.3279 0.43389 0.0
C300 C 0.52639 0.28793 0.36552 0.0
O301 O 0.51427 0.28726 0.38056 0.0
O302 O 0.39021 0.33803 0.39676 0.0
H303 H 0.5055 0.34981 0.40729 0.0
H304 H 0.3938 0.33705 0.32251 0.0
H305 H 0.54271 0.37185 0.43288 0.0
Zn306 Zn 0.17361 0.46139 0.35824 0.0
C307 C 0.1077 0.48746 0.38427 0.0
N308 N 0.12266 0.51652 0.374 0.0
C309 C 0.1463 0.51083 0.36513 0.0
N310 N 0.14603 0.47976 0.3698 0.0
N311 N 0.12188 0.46487 0.38204 0.0
C312 C 0.05269 0.35698 0.38852 0.0
O313 O 0.07662 0.3568 0.37808 0.0
O314 O 0.22465 0.50307 0.35344 0.0
Zn315 Zn 0.11685 0.42692 0.39787 0.0
N316 N 0.15018 0.44043 0.33734 0.0
C317 C 0.09675 0.41344 0.32025 0.0
C318 C 0.11322 0.42634 0.33564 0.0
C319 C 0.17139 0.44176 0.32433 0.0
N320 N 0.11794 0.41519 0.3072 0.0
C321 C 0.15497 0.42885 0.30877 0.0
O322 O 0.1521 0.40594 0.39482 0.0
C323 C 0.17471 0.40646 0.38408 0.0
O324 O 0.1817 0.4253 0.37092 0.0
H325 H 0.09683 0.42564 0.3461 0.0
H326 H 0.20085 0.45378 0.32605 0.0
C327 C 0.1131 0.43545 0.43369 0.0
C328 C 0.1228 0.45698 0.44818 0.0
C329 C 0.16475 0.50968 0.43274 0.0
C330 C 0.15553 0.48829 0.4185 0.0
N331 N 0.12933 0.45189 0.41911 0.0
N332 N 0.14817 0.49362 0.44718 0.0
H333 H 0.09268 0.40633 0.43394 0.0
C334 C 0.24648 0.51542 0.36568 0.0
O335 O 0.2338 0.50201 0.38044 0.0
O336 O 0.06334 0.38437 0.39828 0.0
H337 H 0.16875 0.50082 0.40694 0.0
H338 H 0.06739 0.40239 0.31865 0.0
H339 H 0.18502 0.53882 0.43235 0.0
Zn340 Zn 0.70487 0.11384 0.39698 0.0
C341 C 0.64976 0.14833 0.36747 0.0
N342 N 0.62081 0.12472 0.37654 0.0
C343 C 0.63457 0.10764 0.38568 0.0
N344 N 0.67084 0.12047 0.38254 0.0
N345 N 0.68002 0.14587 0.37084 0.0
C346 C 0.75379 0.24703 0.36422 0.0
O347 O 0.76051 0.23603 0.37835 0.0
O348 O 0.69056 0.05943 0.39838 0.0
Zn349 Zn 0.72426 0.17097 0.35758 0.0
N350 N 0.70084 0.13234 0.41833 0.0
C351 C 0.7047 0.18468 0.43184 0.0
C352 C 0.70358 0.16609 0.41743 0.0
C353 C 0.6987 0.11598 0.43318 0.0
N354 N 0.70339 0.16892 0.44663 0.0
C355 C 0.70035 0.13502 0.4478 0.0
O356 O 0.7695 0.17595 0.36805 0.0
C357 C 0.782 0.16737 0.38052 0.0
O358 O 0.76062 0.14559 0.39167 0.0
H359 H 0.70572 0.1788 0.40554 0.0
H360 H 0.69712 0.08935 0.43361 0.0
C361 C 0.73697 0.16699 0.32334 0.0
C362 C 0.73028 0.15073 0.30758 0.0
C363 C 0.68283 0.09458 0.31902 0.0
C364 C 0.68961 0.1109 0.33461 0.0
N365 N 0.71636 0.14679 0.33643 0.0
N366 N 0.70308 0.11483 0.3059 0.0
H367 H 0.75757 0.1957 0.3252 0.0
C368 C 0.7056 0.04732 0.38842 0.0
O369 O 0.72918 0.07017 0.3775 0.0
O370 O 0.73679 0.22328 0.35299 0.0
H371 H 0.6734 0.0953 0.34513 0.0
H372 H 0.70715 0.21167 0.4313 0.0
H373 H 0.66144 0.0661 0.31732 0.0
Zn374 Zn 0.56131 0.71687 0.35793 0.0
C375 C 0.54095 0.62673 0.38445 0.0
N376 N 0.51091 0.61144 0.37474 0.0
C377 C 0.51403 0.64019 0.36617 0.0
N378 N 0.54482 0.67179 0.37039 0.0
N379 N 0.56186 0.66372 0.38214 0.0
C380 C 0.65538 0.6803 0.38677 0.0
O381 O 0.64092 0.68029 0.37236 0.0
O382 O 0.51962 0.72628 0.35266 0.0
Zn383 Zn 0.60035 0.69857 0.39736 0.0
N384 N 0.58111 0.71284 0.33695 0.0
C385 C 0.60739 0.68558 0.32001 0.0
C386 C 0.59447 0.68936 0.33533 0.0
C387 C 0.58024 0.73291 0.32389 0.0
N388 N 0.60637 0.70544 0.30694 0.0
C389 C 0.59326 0.7293 0.30837 0.0
O390 O 0.62273 0.75432 0.39241 0.0
C391 C 0.62024 0.77526 0.38163 0.0
O392 O 0.59874 0.76217 0.36932 0.0
H393 H 0.59471 0.67344 0.3458 0.0
H394 H 0.56866 0.75072 0.3256 0.0
C395 C 0.59015 0.69168 0.43332 0.0
C396 C 0.57106 0.69116 0.44772 0.0
C397 C 0.52365 0.69019 0.43123 0.0
C398 C 0.54278 0.69124 0.41702 0.0
N399 N 0.57565 0.6922 0.4183 0.0
N400 N 0.53834 0.69052 0.44619 0.0
H401 H 0.61664 0.69303 0.43405 0.0
C402 C 0.506 0.73728 0.36378 0.0
O403 O 0.51768 0.74051 0.37908 0.0
O404 O 0.64229 0.687 0.39964 0.0
H405 H 0.53194 0.69212 0.405 0.0
H406 H 0.61797 0.66687 0.31847 0.0
H407 H 0.4976 0.6897 0.43039 0.0
Zn408 Zn 0.59931 0.90676 0.89663 0.0
C409 C 0.51171 0.87596 0.86611 0.0
N410 N 0.50706 0.89999 0.87522 0.0
C411 C 0.53736 0.9156 0.88476 0.0
N412 N 0.55982 0.90158 0.88182 0.0
N413 N 0.54356 0.87685 0.86986 0.0
C414 C 0.51188 0.77474 0.86395 0.0
O415 O 0.52896 0.78547 0.87823 0.0
O416 O 0.64089 0.96071 0.89798 0.0
Zn417 Zn 0.56152 0.85023 0.85694 0.0
N418 N 0.57581 0.88906 0.91787 0.0
C419 C 0.52479 0.83866 0.93119 0.0
C420 C 0.5433 0.85664 0.91685 0.0
C421 C 0.59058 0.90466 0.93279 0.0
N422 N 0.53974 0.85362 0.94604 0.0
C423 C 0.57211 0.88617 0.94733 0.0
O424 O 0.60085 0.84403 0.86767 0.0
C425 C 0.62116 0.85183 0.88039 0.0
O426 O 0.62153 0.87344 0.89161 0.0
H427 H 0.53227 0.84444 0.90492 0.0
H428 H 0.6168 0.93017 0.93334 0.0
C429 C 0.57873 0.85308 0.82277 0.0
C430 C 0.58867 0.86898 0.80696 0.0
C431 C 0.59824 0.92573 0.81807 0.0
C432 C 0.5883 0.90977 0.83371 0.0
N433 N 0.57854 0.87376 0.83571 0.0
N434 N 0.59798 0.905 0.80509 0.0
H435 H 0.57014 0.8243 0.82476 0.0
C436 C 0.66832 0.97176 0.88824 0.0
O437 O 0.66849 0.94817 0.87757 0.0
O438 O 0.52043 0.79837 0.85249 0.0
H439 H 0.58787 0.92575 0.84412 0.0
H440 H 0.49903 0.81272 0.93054 0.0
H441 H 0.60582 0.95429 0.81622 0.0
Zn442 Zn 0.71806 0.55233 0.85798 0.0
C443 C 0.63014 0.53365 0.88559 0.0
N444 N 0.61487 0.50234 0.87672 0.0
C445 C 0.64307 0.50564 0.86767 0.0
N446 N 0.67425 0.53763 0.87085 0.0
N447 N 0.66667 0.55539 0.8824 0.0
C448 C 0.68434 0.64931 0.88528 0.0
O449 O 0.6827 0.63299 0.87119 0.0
O450 O 0.72485 0.50861 0.85391 0.0
Zn451 Zn 0.70259 0.59502 0.89679 0.0
N452 N 0.71262 0.56975 0.83665 0.0
C453 C 0.68189 0.59111 0.81893 0.0
C454 C 0.68718 0.58055 0.83456 0.0
C455 C 0.73332 0.56941 0.82377 0.0
N456 N 0.70223 0.59039 0.80602 0.0
C457 C 0.7281 0.57998 0.80795 0.0
O458 O 0.7578 0.61625 0.89116 0.0
C459 C 0.77822 0.61283 0.88042 0.0
O460 O 0.76457 0.5904 0.86843 0.0
H461 H 0.67083 0.58049 0.84491 0.0
H462 H 0.75283 0.55997 0.82582 0.0
C463 C 0.69692 0.587 0.93298 0.0
C464 C 0.69716 0.56874 0.94756 0.0
C465 C 0.6969 0.5211 0.93153 0.0
C466 C 0.69716 0.53938 0.91715 0.0
N467 N 0.69743 0.57197 0.9181 0.0
N468 N 0.69724 0.53631 0.94634 0.0
H469 H 0.69764 0.61322 0.93346 0.0
C470 C 0.73262 0.49452 0.86605 0.0
O471 O 0.73477 0.50823 0.88088 0.0
O472 O 0.69194 0.63756 0.89836 0.0
H473 H 0.6979 0.52808 0.90524 0.0
H474 H 0.66158 0.59955 0.81703 0.0
H475 H 0.69696 0.49528 0.93094 0.0
Zn476 Zn 0.1136 0.69078 0.89812 0.0
C477 C 0.14432 0.63852 0.86484 0.0
N478 N 0.11885 0.6083 0.87267 0.0
C479 C 0.10316 0.62156 0.88298 0.0
N480 N 0.11864 0.65877 0.88175 0.0
N481 N 0.14417 0.66905 0.87007 0.0
C482 C 0.2476 0.74043 0.86515 0.0
O483 O 0.23727 0.74545 0.87979 0.0
O484 O 0.06025 0.67974 0.89852 0.0
Zn485 Zn 0.172 0.71584 0.85888 0.0
N486 N 0.12541 0.67694 0.9192 0.0
C487 C 0.15827 0.6516 0.93271 0.0
C488 C 0.14987 0.66454 0.91849 0.0
C489 C 0.11021 0.67856 0.93385 0.0
N490 N 0.14276 0.65261 0.94724 0.0
C491 C 0.11917 0.66605 0.94834 0.0
O492 O 0.17884 0.75904 0.87191 0.0
C493 C 0.17129 0.77014 0.88514 0.0
O494 O 0.14864 0.74741 0.8957 0.0
H495 H 0.1624 0.66418 0.90688 0.0
H496 H 0.09119 0.689 0.93415 0.0
C497 C 0.16886 0.73342 0.82496 0.0
C498 C 0.15186 0.72953 0.80952 0.0
C499 C 0.0941 0.68678 0.82141 0.0
C500 C 0.11113 0.69067 0.83667 0.0
N501 N 0.14815 0.71364 0.83811 0.0
N502 N 0.1148 0.70601 0.80821 0.0
H503 H 0.19838 0.75106 0.82644 0.0
C504 C 0.0492 0.69493 0.88811 0.0
O505 O 0.07269 0.71746 0.87707 0.0
O506 O 0.22368 0.7266 0.8537 0.0
H507 H 0.09512 0.67509 0.84724 0.0
H508 H 0.17714 0.64102 0.93225 0.0
H509 H 0.06469 0.66836 0.82002 0.0
Zn510 Zn 0.42859 0.1077 0.89793 0.0
C511 C 0.50997 0.13555 0.86369 0.0
N512 N 0.5136 0.10932 0.87148 0.0
C513 C 0.4855 0.09524 0.88225 0.0
N514 N 0.46525 0.11232 0.88134 0.0
N515 N 0.48051 0.13718 0.86937 0.0
C516 C 0.52027 0.24144 0.86362 0.0
O517 O 0.51019 0.23266 0.87908 0.0
O518 O 0.3866 0.05393 0.89756 0.0
Zn519 Zn 0.46296 0.16683 0.85875 0.0
N520 N 0.45456 0.11907 0.91901 0.0
C521 C 0.51335 0.1521 0.93207 0.0
C522 C 0.49143 0.14341 0.91802 0.0
C523 C 0.43827 0.10447 0.93383 0.0
N524 N 0.49738 0.13709 0.94675 0.0
C525 C 0.46035 0.11376 0.94815 0.0
O526 O 0.42988 0.1761 0.87285 0.0
C527 C 0.4105 0.16839 0.88584 0.0
O528 O 0.4079 0.14366 0.89592 0.0
H529 H 0.50391 0.15563 0.9063 0.0
H530 H 0.40879 0.08575 0.93445 0.0
C531 C 0.44022 0.16319 0.82508 0.0
C532 C 0.42018 0.14564 0.81068 0.0
C533 C 0.39426 0.08785 0.82454 0.0
C534 C 0.41423 0.10542 0.83874 0.0
N535 N 0.43668 0.14267 0.83874 0.0
N536 N 0.39756 0.10828 0.81093 0.0
H537 H 0.45776 0.19288 0.82563 0.0
C538 C 0.3554 0.04076 0.9047 0.0
O539 O 0.34819 0.0629 0.91342 0.0
O540 O 0.50466 0.21725 0.85241 0.0
H541 H 0.41168 0.08962 0.84974 0.0
H542 H 0.54282 0.17082 0.93136 0.0
H543 H 0.3761 0.05821 0.82435 0.0
Zn544 Zn 0.30625 0.46102 0.85859 0.0
C545 C 0.39976 0.48639 0.88343 0.0
N546 N 0.41326 0.51551 0.87321 0.0
C547 C 0.38334 0.51055 0.86503 0.0
N548 N 0.35274 0.47959 0.86998 0.0
N549 N 0.36269 0.46434 0.88182 0.0
C550 C 0.32533 0.35381 0.90452 0.0
O551 O 0.29518 0.34609 0.91268 0.0
O552 O 0.29572 0.50217 0.85377 0.0
Zn553 Zn 0.33063 0.42629 0.89783 0.0
N554 N 0.30874 0.44049 0.83753 0.0
C555 C 0.33629 0.41485 0.82034 0.0
C556 C 0.33206 0.42695 0.8358 0.0
C557 C 0.28902 0.442 0.82445 0.0
N558 N 0.31709 0.41687 0.80723 0.0
C559 C 0.29327 0.42997 0.8088 0.0
O560 O 0.27396 0.40417 0.89502 0.0
C561 C 0.25152 0.40483 0.88447 0.0
O562 O 0.26297 0.42425 0.87146 0.0
H563 H 0.34767 0.42616 0.84629 0.0
H564 H 0.27118 0.45357 0.82616 0.0
C565 C 0.3431 0.43521 0.93376 0.0
C566 C 0.35499 0.45696 0.9482 0.0
C567 C 0.36653 0.5096 0.93249 0.0
C568 C 0.35418 0.48798 0.91833 0.0
N569 N 0.34356 0.45148 0.91908 0.0
N570 N 0.36669 0.49367 0.94703 0.0
H571 H 0.33405 0.40604 0.93417 0.0
C572 C 0.28194 0.51211 0.86526 0.0
O573 O 0.27681 0.49647 0.87983 0.0
O574 O 0.34375 0.38526 0.89758 0.0
H575 H 0.35362 0.50041 0.90671 0.0
H576 H 0.35499 0.40428 0.81873 0.0
H577 H 0.37572 0.5388 0.93197 0.0
Zn578 Zn 0.9122 0.31959 0.89664 0.0
C579 C 0.87328 0.37273 0.86828 0.0
N580 N 0.89628 0.4017 0.87753 0.0
C581 C 0.91455 0.38864 0.88627 0.0
N582 N 0.90302 0.35277 0.88271 0.0
N583 N 0.87722 0.34314 0.87115 0.0
C584 C 0.77643 0.26863 0.86443 0.0
O585 O 0.78744 0.2617 0.8785 0.0
O586 O 0.96732 0.33622 0.89674 0.0
Zn587 Zn 0.85259 0.29892 0.85784 0.0
N588 N 0.89461 0.32291 0.91835 0.0
C589 C 0.84172 0.3168 0.93222 0.0
C590 C 0.86023 0.3187 0.91769 0.0
C591 C 0.91165 0.32574 0.93311 0.0
N592 N 0.85814 0.31874 0.9469 0.0
C593 C 0.89263 0.32319 0.94784 0.0
O594 O 0.8485 0.25423 0.86842 0.0
C595 C 0.85842 0.24205 0.88056 0.0
O596 O 0.88123 0.26369 0.89138 0.0
H597 H 0.84696 0.316 0.90589 0.0
H598 H 0.93879 0.32854 0.93338 0.0
C599 C 0.85605 0.28636 0.82356 0.0
C600 C 0.87241 0.29203 0.80784 0.0
C601 C 0.92946 0.33769 0.8195 0.0
C602 C 0.9129 0.33218 0.83496 0.0
N603 N 0.8766 0.30665 0.83667 0.0
N604 N 0.90895 0.31762 0.80638 0.0
H605 H 0.82745 0.26582 0.82558 0.0
C606 C 0.98077 0.31799 0.90351 0.0
O607 O 0.95847 0.28711 0.91126 0.0
O608 O 0.80016 0.28594 0.85326 0.0
H609 H 0.92876 0.34806 0.84552 0.0
H610 H 0.81426 0.3132 0.93185 0.0
H611 H 0.95838 0.35784 0.81791 0.0
Zn612 Zn 0.16992 0.4598 0.65654 0.0
C613 C 0.09988 0.48097 0.63072 0.0
N614 N 0.11651 0.51159 0.64005 0.0
C615 C 0.14157 0.50739 0.64857 0.0
N616 N 0.14029 0.4755 0.64464 0.0
N617 N 0.11443 0.45873 0.63316 0.0
C618 C 0.04415 0.34882 0.62459 0.0
O619 O 0.06768 0.34566 0.63425 0.0
O620 O 0.22089 0.50305 0.66074 0.0
Zn621 Zn 0.1095 0.41982 0.61796 0.0
N622 N 0.14769 0.44075 0.67789 0.0
C623 C 0.0951 0.41667 0.6954 0.0
C624 C 0.11099 0.42789 0.67982 0.0
C625 C 0.16918 0.44236 0.69088 0.0
N626 N 0.11657 0.41877 0.70841 0.0
C627 C 0.15331 0.43115 0.70665 0.0
O628 O 0.14366 0.39788 0.62227 0.0
C629 C 0.1684 0.40098 0.63246 0.0
O630 O 0.17779 0.42272 0.64473 0.0
H631 H 0.09435 0.42691 0.66939 0.0
H632 H 0.19845 0.45331 0.68899 0.0
C633 C 0.11165 0.42892 0.58194 0.0
C634 C 0.12938 0.44807 0.56743 0.0
C635 C 0.17487 0.49717 0.58357 0.0
C636 C 0.15767 0.47799 0.5979 0.0
N637 N 0.12659 0.4443 0.59687 0.0
N638 N 0.16057 0.48167 0.56871 0.0
H639 H 0.08726 0.40177 0.58139 0.0
C640 C 0.24304 0.51695 0.64869 0.0
O641 O 0.23144 0.50375 0.63379 0.0
O642 O 0.05548 0.37843 0.61629 0.0
H643 H 0.16948 0.48951 0.60982 0.0
H644 H 0.06598 0.40666 0.69717 0.0
H645 H 0.19974 0.5239 0.58422 0.0
Zn646 Zn 0.7166 0.16168 0.65678 0.0
C647 C 0.62384 0.0909 0.63204 0.0
N648 N 0.60942 0.10536 0.64241 0.0
C649 C 0.63891 0.13113 0.65057 0.0
N650 N 0.67014 0.13219 0.64552 0.0
N651 N 0.66104 0.10731 0.63357 0.0
C652 C 0.70098 0.03925 0.62399 0.0
O653 O 0.72735 0.06291 0.63376 0.0
O654 O 0.7257 0.21295 0.66127 0.0
Zn655 Zn 0.69401 0.10402 0.61715 0.0
N656 N 0.7155 0.13959 0.6779 0.0
C657 C 0.69344 0.08648 0.69497 0.0
C658 C 0.69505 0.10235 0.67963 0.0
C659 C 0.73473 0.16174 0.69083 0.0
N660 N 0.71246 0.10852 0.70792 0.0
C661 C 0.73339 0.14592 0.70636 0.0
O662 O 0.75046 0.13896 0.62039 0.0
C663 C 0.77238 0.16146 0.63125 0.0
O664 O 0.76045 0.16883 0.64425 0.0
H665 H 0.67996 0.08522 0.66921 0.0
H666 H 0.75018 0.19132 0.68902 0.0
C667 C 0.68311 0.10428 0.58136 0.0
C668 C 0.6715 0.11515 0.56714 0.0
C669 C 0.65805 0.15378 0.58369 0.0
C670 C 0.67001 0.14342 0.59766 0.0
N671 N 0.68148 0.1183 0.59635 0.0
N672 N 0.65899 0.13941 0.56883 0.0
H673 H 0.69282 0.0847 0.58056 0.0
C674 C 0.73866 0.23628 0.64959 0.0
O675 O 0.74388 0.22557 0.63509 0.0
O676 O 0.68262 0.05033 0.61557 0.0
H677 H 0.66958 0.15493 0.60955 0.0
H678 H 0.67713 0.05687 0.6966 0.0
H679 H 0.6482 0.17321 0.58463 0.0
Zn680 Zn 0.59311 0.68835 0.61747 0.0
C681 C 0.50768 0.63625 0.64949 0.0
N682 N 0.50274 0.60607 0.64154 0.0
C683 C 0.53264 0.61905 0.63183 0.0
N684 N 0.55515 0.65607 0.63351 0.0
N685 N 0.53942 0.66647 0.64492 0.0
C686 C 0.51119 0.74068 0.64985 0.0
O687 O 0.52792 0.74623 0.63553 0.0
O688 O 0.63512 0.67651 0.61701 0.0
Zn689 Zn 0.559 0.71272 0.65666 0.0
N690 N 0.5678 0.67584 0.59625 0.0
C691 C 0.50964 0.65163 0.58275 0.0
C692 C 0.53102 0.66385 0.59699 0.0
C693 C 0.58455 0.67788 0.58152 0.0
N694 N 0.52605 0.65293 0.56816 0.0
C695 C 0.56301 0.66605 0.56702 0.0
O696 O 0.59747 0.75629 0.64451 0.0
C697 C 0.61637 0.76754 0.63137 0.0
O698 O 0.61549 0.74505 0.62044 0.0
H699 H 0.51817 0.66329 0.60864 0.0
H700 H 0.61396 0.68808 0.58114 0.0
C701 C 0.57794 0.7294 0.69066 0.0
C702 C 0.58974 0.72508 0.70636 0.0
C703 C 0.60219 0.67986 0.6952 0.0
C704 C 0.59041 0.68426 0.67969 0.0
N705 N 0.57831 0.70872 0.67776 0.0
N706 N 0.60138 0.70012 0.70815 0.0
H707 H 0.56754 0.74818 0.68875 0.0
C708 C 0.66238 0.69281 0.62688 0.0
O709 O 0.66266 0.71681 0.63743 0.0
O710 O 0.51899 0.72495 0.66129 0.0
H711 H 0.59042 0.66799 0.6693 0.0
H712 H 0.48024 0.64136 0.58325 0.0
H713 H 0.61165 0.6603 0.69699 0.0
Zn714 Zn 0.84958 0.55057 0.65718 0.0
C715 C 0.91276 0.52489 0.62863 0.0
N716 N 0.89618 0.49411 0.63782 0.0
C717 C 0.8729 0.4994 0.64715 0.0
N718 N 0.87504 0.53201 0.64387 0.0
N719 N 0.89992 0.54825 0.63199 0.0
C720 C 0.97458 0.66163 0.61227 0.0
O721 O 0.95184 0.67073 0.60533 0.0
O722 O 0.79799 0.50974 0.66199 0.0
Zn723 Zn 0.90715 0.58984 0.61807 0.0
N724 N 0.87409 0.56761 0.67823 0.0
C725 C 0.92647 0.58678 0.69557 0.0
C726 C 0.90997 0.57679 0.68002 0.0
C727 C 0.85405 0.56836 0.69129 0.0
N728 N 0.90637 0.58712 0.70867 0.0
C729 C 0.87047 0.57836 0.70701 0.0
O730 O 0.87499 0.61344 0.62347 0.0
C731 C 0.85224 0.61179 0.63442 0.0
O732 O 0.84338 0.59003 0.64665 0.0
H733 H 0.92543 0.57586 0.66952 0.0
H734 H 0.82532 0.56016 0.68946 0.0
C735 C 0.90689 0.58405 0.58168 0.0
C736 C 0.88852 0.56728 0.56685 0.0
C737 C 0.83875 0.5205 0.58218 0.0
C738 C 0.85663 0.53735 0.59681 0.0
N739 N 0.89011 0.56878 0.59634 0.0
N740 N 0.8549 0.53598 0.56759 0.0
H741 H 0.93329 0.60938 0.58157 0.0
C742 C 0.77403 0.50088 0.65066 0.0
O743 O 0.78422 0.5178 0.63634 0.0
O744 O 0.96172 0.62917 0.61809 0.0
H745 H 0.84355 0.52593 0.60855 0.0
H746 H 0.95494 0.59393 0.69726 0.0
H747 H 0.81198 0.49562 0.58238 0.0
Zn748 Zn 0.32221 0.90345 0.61812 0.0
C749 C 0.37944 0.87565 0.64995 0.0
N750 N 0.4083 0.90116 0.6414 0.0
C751 C 0.39313 0.91555 0.63142 0.0
N752 N 0.35617 0.89941 0.63356 0.0
N753 N 0.34785 0.87455 0.64543 0.0
C754 C 0.28373 0.77146 0.65197 0.0
O755 O 0.28137 0.78047 0.63666 0.0
O756 O 0.33384 0.95702 0.61654 0.0
Zn757 Zn 0.30227 0.84623 0.65751 0.0
N758 N 0.33034 0.88661 0.59714 0.0
C759 C 0.33532 0.83843 0.58396 0.0
C760 C 0.3329 0.85552 0.59825 0.0
C761 C 0.33044 0.9017 0.58219 0.0
N762 N 0.33461 0.85285 0.56907 0.0
C763 C 0.33229 0.88408 0.56772 0.0
O764 O 0.25726 0.83699 0.64528 0.0
C765 C 0.24483 0.84512 0.63264 0.0
O766 O 0.2664 0.86911 0.62221 0.0
H767 H 0.33225 0.84365 0.6102 0.0
H768 H 0.32773 0.9261 0.58158 0.0
C769 C 0.28569 0.85061 0.69136 0.0
C770 C 0.29021 0.86787 0.70677 0.0
C771 C 0.33358 0.9252 0.69471 0.0
C772 C 0.32908 0.9079 0.67947 0.0
N773 N 0.30549 0.87096 0.67813 0.0
N774 N 0.31433 0.90483 0.70799 0.0
H775 H 0.26758 0.82113 0.68995 0.0
C776 C 0.31675 0.96796 0.62588 0.0
O777 O 0.29235 0.94437 0.63635 0.0
O778 O 0.29345 0.79557 0.66329 0.0
H779 H 0.34469 0.92364 0.66885 0.0
H780 H 0.33714 0.81355 0.58467 0.0
H781 H 0.3525 0.95454 0.69603 0.0
Zn782 Zn 0.46063 0.29472 0.65744 0.0
C783 C 0.48747 0.38591 0.63026 0.0
N784 N 0.51781 0.39939 0.63972 0.0
C785 C 0.51207 0.3701 0.64865 0.0
N786 N 0.47963 0.33988 0.64485 0.0
N787 N 0.46392 0.34949 0.63306 0.0
C788 C 0.35136 0.3133 0.61261 0.0
O789 O 0.3423 0.28177 0.60535 0.0
O790 O 0.50086 0.28276 0.66235 0.0
Zn791 Zn 0.42276 0.31669 0.61847 0.0
N792 N 0.44118 0.29998 0.67827 0.0
C793 C 0.41027 0.32455 0.69383 0.0
C794 C 0.42544 0.32154 0.679 0.0
C795 C 0.44261 0.28138 0.6918 0.0
N796 N 0.41141 0.30581 0.70731 0.0
C797 C 0.42734 0.28428 0.70683 0.0
O798 O 0.39837 0.26055 0.62303 0.0
C799 C 0.3998 0.23868 0.63363 0.0
O800 O 0.4215 0.2506 0.64592 0.0
H801 H 0.42444 0.33599 0.6681 0.0
H802 H 0.45469 0.26387 0.69067 0.0
C803 C 0.42949 0.32375 0.58207 0.0
C804 C 0.44706 0.32343 0.56728 0.0
C805 C 0.49443 0.32186 0.58278 0.0
C806 C 0.4768 0.32156 0.59735 0.0
N807 N 0.44471 0.32234 0.59679 0.0
N808 N 0.47904 0.32243 0.56814 0.0
H809 H 0.40363 0.32374 0.58186 0.0
C810 C 0.50943 0.26767 0.6509 0.0
O811 O 0.49301 0.26217 0.63649 0.0
O812 O 0.3837 0.33248 0.61865 0.0
H813 H 0.48817 0.31988 0.60911 0.0
H814 H 0.39746 0.34147 0.69461 0.0
H815 H 0.51985 0.32101 0.58307 0.0
H816 H 0.34727 0.99148 0.10653 0.0
H817 H 0.29617 0.0179 0.14652 0.0
H818 H 0.29675 0.92727 0.10719 0.0
H819 H 0.24579 0.95417 0.14703 0.0
H820 H 0.19738 0.82984 0.15849 0.0
H821 H 0.24007 0.89566 0.15551 0.0
H822 H 0.22896 0.88491 0.10248 0.0
H823 H 0.18592 0.8183 0.10552 0.0
C824 C 0.32516 0.98373 0.11536 0.0
C825 C 0.32603 0.00989 0.12656 0.0
C826 C 0.29603 0.94696 0.11565 0.0
C827 C 0.2672 0.93546 0.1272 0.0
C828 C 0.26771 0.96189 0.1381 0.0
C829 C 0.29666 0.99855 0.13778 0.0
C830 C 0.20337 0.84157 0.14619 0.0
C831 C 0.18812 0.81879 0.13225 0.0
C832 C 0.22787 0.87942 0.14447 0.0
C833 C 0.23818 0.89567 0.12875 0.0
C834 C 0.22187 0.8732 0.11477 0.0
C835 C 0.19685 0.83516 0.1165 0.0
H836 H 0.38412 0.36459 0.1267 0.0
H837 H 0.28663 0.28351 0.10079 0.0
H838 H 0.40333 0.31893 0.13059 0.0
H839 H 0.30578 0.23754 0.10488 0.0
H840 H 0.37563 0.17744 0.10315 0.0
H841 H 0.35359 0.22084 0.09741 0.0
H842 H 0.38218 0.26326 0.14711 0.0
H843 H 0.40422 0.22071 0.15278 0.0
C844 C 0.36677 0.33705 0.1218 0.0
C845 C 0.33365 0.32773 0.11355 0.0
C846 C 0.3777 0.31074 0.12411 0.0
C847 C 0.35588 0.27437 0.11822 0.0
C848 C 0.3233 0.26529 0.10952 0.0
C849 C 0.31226 0.29164 0.10725 0.0
C850 C 0.37675 0.19574 0.11288 0.0
C851 C 0.39204 0.1957 0.12837 0.0
C852 C 0.36416 0.22063 0.1096 0.0
C853 C 0.36674 0.24603 0.12172 0.0
C854 C 0.38063 0.24481 0.13735 0.0
C855 C 0.39306 0.22009 0.14063 0.0
H856 H 0.0354 0.37338 0.1542 0.0
H857 H 0.01834 0.32926 0.10474 0.0
H858 H 0.09722 0.38213 0.15434 0.0
H859 H 0.08014 0.33652 0.10508 0.0
H860 H 0.20934 0.39607 0.10629 0.0
H861 H 0.14437 0.37914 0.10433 0.0
H862 H 0.13057 0.35161 0.15627 0.0
H863 H 0.19567 0.37045 0.15827 0.0
C864 C 0.04474 0.36516 0.14338 0.0
C865 C 0.02177 0.35052 0.12948 0.0
C866 C 0.08025 0.36984 0.1435 0.0
C867 C 0.09386 0.35951 0.12982 0.0
C868 C 0.07091 0.34505 0.11583 0.0
C869 C 0.03537 0.34076 0.11564 0.0
C870 C 0.19206 0.38543 0.11715 0.0
C871 C 0.20758 0.38463 0.13244 0.0
C872 C 0.15475 0.37583 0.11607 0.0
C873 C 0.1321 0.3648 0.13023 0.0
C874 C 0.14721 0.36119 0.1452 0.0
C875 C 0.18448 0.37142 0.14632 0.0
H876 H 0.81948 0.21289 0.10325 0.0
H877 H 0.84346 0.19607 0.15324 0.0
H878 H 0.77207 0.14741 0.10139 0.0
H879 H 0.7977 0.13077 0.15126 0.0
H880 H 0.68097 0.03515 0.15266 0.0
H881 H 0.733 0.09758 0.15188 0.0
H882 H 0.75274 0.08254 0.10087 0.0
H883 H 0.69931 0.01982 0.10154 0.0
C884 C 0.81557 0.19489 0.11361 0.0
C885 C 0.83509 0.20958 0.12841 0.0
C886 C 0.78827 0.15735 0.11259 0.0
C887 C 0.78024 0.13375 0.12632 0.0
C888 C 0.80208 0.14814 0.14061 0.0
C889 C 0.82877 0.18555 0.14169 0.0
C890 C 0.69634 0.04499 0.14125 0.0
C891 C 0.68596 0.02226 0.12719 0.0
C892 C 0.72657 0.08088 0.14083 0.0
C893 C 0.74776 0.09522 0.12638 0.0
C894 C 0.73712 0.07263 0.11221 0.0
C895 C 0.70654 0.03658 0.1126 0.0
H896 H 0.69101 0.69651 0.10228 0.0
H897 H 0.65432 0.67606 0.15297 0.0
H898 H 0.68216 0.75017 0.10167 0.0
H899 H 0.64428 0.72831 0.15224 0.0
H900 H 0.657 0.83913 0.15403 0.0
H901 H 0.67588 0.79291 0.1522 0.0
H902 H 0.6373 0.77011 0.1017 0.0
H903 H 0.61998 0.81805 0.10343 0.0
C904 C 0.68089 0.70332 0.11326 0.0
C905 C 0.67368 0.68209 0.12772 0.0
C906 C 0.67568 0.73405 0.1129 0.0
C907 C 0.66298 0.74416 0.12697 0.0
C908 C 0.65515 0.7223 0.14128 0.0
C909 C 0.66061 0.69196 0.14167 0.0
C910 C 0.65347 0.82493 0.14239 0.0
C911 C 0.63705 0.83223 0.12888 0.0
C912 C 0.6638 0.79797 0.14139 0.0
C913 C 0.65722 0.77681 0.12695 0.0
C914 C 0.64288 0.78576 0.11303 0.0
C915 C 0.63306 0.81336 0.11397 0.0
H916 H 1.00719 0.7343 0.0987 0.0
H917 H 0.99269 0.64 0.1267 0.0
H918 H 0.94187 0.71445 0.10256 0.0
H919 H 0.92758 0.62007 0.13038 0.0
H920 H 0.82801 0.61986 0.15169 0.0
H921 H 0.89259 0.64199 0.14606 0.0
H922 H 0.87738 0.66522 0.09564 0.0
H923 H 0.81189 0.643 0.10132 0.0
C924 C 0.99007 0.70921 0.10558 0.0
C925 C 1.00539 0.68895 0.11252 0.0
C926 C 0.95255 0.69774 0.10771 0.0
C927 C 0.92949 0.66588 0.11693 0.0
C928 C 0.94465 0.64514 0.12347 0.0
C929 C 0.98203 0.65648 0.12129 0.0
C930 C 0.83822 0.62984 0.13938 0.0
C931 C 0.81442 0.62929 0.12692 0.0
C932 C 0.87539 0.64232 0.13613 0.0
C933 C 0.89015 0.65476 0.12032 0.0
C934 C 0.86689 0.65578 0.10796 0.0
C935 C 0.82937 0.6431 0.11122 0.0
H936 H 0.19928 0.82821 0.36248 0.0
H937 H 0.21396 0.82686 0.41517 0.0
H938 H 0.13337 0.78658 0.36554 0.0
H939 H 0.14705 0.7846 0.41831 0.0
H940 H 0.03644 0.66934 0.41011 0.0
H941 H 0.10153 0.71801 0.41047 0.0
H942 H 0.07695 0.78245 0.37654 0.0
H943 H 0.01237 0.73407 0.37606 0.0
C944 C 0.18824 0.81952 0.3748 0.0
C945 C 0.21189 0.83099 0.38859 0.0
C946 C 0.15032 0.79564 0.37656 0.0
C947 C 0.13478 0.78209 0.39217 0.0
C948 C 0.1582 0.79434 0.4061 0.0
C949 C 0.1964 0.81887 0.40434 0.0
C950 C 0.0449 0.69403 0.40283 0.0
C951 C 0.0191 0.69754 0.39294 0.0
C952 C 0.08218 0.72206 0.40314 0.0
C953 C 0.09458 0.75413 0.39348 0.0
C954 C 0.06852 0.75798 0.38398 0.0
C955 C 0.03137 0.73016 0.38373 0.0
H956 H 0.38613 0.19421 0.36081 0.0
H957 H 0.39642 0.20803 0.41372 0.0
H958 H 0.3626 0.12839 0.36389 0.0
H959 H 0.37255 0.14123 0.41687 0.0
H960 H 0.37907 0.03142 0.4101 0.0
H961 H 0.39509 0.09642 0.41008 0.0
H962 H 0.30955 0.07142 0.37408 0.0
H963 H 0.29377 1.00694 0.37398 0.0
C964 C 0.38276 0.18301 0.37317 0.0
C965 C 0.39309 0.20641 0.38702 0.0
C966 C 0.36913 0.14514 0.37493 0.0
C967 C 0.36571 0.12939 0.39062 0.0
C968 C 0.37509 0.15254 0.40459 0.0
C969 C 0.38834 0.19068 0.40282 0.0
C970 C 0.36354 0.03977 0.40226 0.0
C971 C 0.33533 0.01388 0.39193 0.0
C972 C 0.37254 0.07699 0.40235 0.0
C973 C 0.35372 0.08924 0.39203 0.0
C974 C 0.32493 0.0631 0.38204 0.0
C975 C 0.31584 0.02601 0.38201 0.0
H976 H 0.21684 0.39458 0.36206 0.0
H977 H 0.18351 0.37719 0.41328 0.0
H978 H 0.25952 0.37249 0.36735 0.0
H979 H 0.22698 0.35508 0.41861 0.0
H980 H 0.28865 0.28738 0.4166 0.0
H981 H 0.24192 0.30549 0.41245 0.0
H982 H 0.31815 0.39633 0.38182 0.0
H983 H 0.36456 0.37813 0.38579 0.0
C984 C 0.21838 0.38581 0.37448 0.0
C985 C 0.1968 0.38804 0.38728 0.0
C986 C 0.24319 0.37335 0.37753 0.0
C987 C 0.24729 0.36265 0.39347 0.0
C988 C 0.22453 0.36314 0.40617 0.0
C989 C 0.19956 0.37577 0.40312 0.0
C990 C 0.29547 0.31127 0.40899 0.0
C991 C 0.33037 0.33112 0.40143 0.0
C992 C 0.26869 0.32174 0.4067 0.0
C993 C 0.27607 0.35217 0.39668 0.0
C994 C 0.31121 0.37234 0.38937 0.0
C995 C 0.33797 0.36201 0.39172 0.0
H996 H 0.02204 0.29545 0.36895 0.0
H997 H 0.99521 0.3475 0.40841 0.0
H998 H 0.95827 0.24517 0.36829 0.0
H999 H 0.93099 0.29712 0.40759 0.0
H1000 H 0.82212 0.18644 0.40945 0.0
H1001 H 0.88861 0.2297 0.41254 0.0
H1002 H 0.89979 0.23877 0.35949 0.0
H1003 H 0.83407 0.19578 0.35645 0.0
C1004 C 1.00258 0.29619 0.37754 0.0
C1005 C 0.01384 0.32577 0.38866 0.0
C1006 C 0.9659 0.2673 0.37712 0.0
C1007 C 0.93935 0.26706 0.38784 0.0
C1008 C 0.95075 0.29616 0.39928 0.0
C1009 C 0.98753 0.32522 0.39966 0.0
C1010 C 0.83903 0.19698 0.39848 0.0
C1011 C 0.82278 0.18757 0.38271 0.0
C1012 C 0.87702 0.22214 0.40024 0.0
C1013 C 0.89959 0.23795 0.38627 0.0
C1014 C 0.88347 0.22699 0.37054 0.0
C1015 C 0.84566 0.20232 0.36879 0.0
H1016 H 0.64262 0.81599 0.41043 0.0
H1017 H 0.64114 0.82672 0.35745 0.0
H1018 H 0.66635 0.88271 0.41334 0.0
H1019 H 0.66438 0.89254 0.36031 0.0
H1020 H 0.73401 0.01456 0.36884 0.0
H1021 H 0.71874 0.95028 0.36857 0.0
H1022 H 0.64195 0.92637 0.40859 0.0
H1023 H 0.65757 0.99125 0.40901 0.0
C1024 C 0.64808 0.83265 0.39942 0.0
C1025 C 0.64008 0.81606 0.38371 0.0
C1026 C 0.66122 0.87074 0.40108 0.0
C1027 C 0.66717 0.893 0.38706 0.0
C1028 C 0.66053 0.87645 0.37138 0.0
C1029 C 0.64707 0.83859 0.36974 0.0
C1030 C 0.71396 0.99576 0.37766 0.0
C1031 C 0.69681 1.00813 0.38886 0.0
C1032 C 0.70517 0.95879 0.37748 0.0
C1033 C 0.67897 0.93304 0.38849 0.0
C1034 C 0.6625 0.94553 0.40003 0.0
C1035 C 0.67125 0.98266 0.40019 0.0
H1036 H 0.7008 0.6897 0.41328 0.0
H1037 H 0.68079 0.65399 0.36242 0.0
H1038 H 0.7539 0.67996 0.41397 0.0
H1039 H 0.73244 0.64307 0.36323 0.0
H1040 H 0.84301 0.65546 0.36152 0.0
H1041 H 0.79703 0.67463 0.36346 0.0
H1042 H 0.77354 0.63476 0.41372 0.0
H1043 H 0.82126 0.61715 0.41189 0.0
C1044 C 0.70756 0.67955 0.40229 0.0
C1045 C 0.68669 0.67296 0.38775 0.0
C1046 C 0.73796 0.67385 0.4027 0.0
C1047 C 0.74808 0.66127 0.38858 0.0
C1048 C 0.72646 0.65387 0.37422 0.0
C1049 C 0.69645 0.65984 0.37378 0.0
C1050 C 0.82872 0.65173 0.37313 0.0
C1051 C 0.83575 0.63487 0.38655 0.0
C1052 C 0.80189 0.66221 0.3742 0.0
C1053 C 0.78059 0.65532 0.3886 0.0
C1054 C 0.7893 0.64056 0.40243 0.0
C1055 C 0.81677 0.63058 0.40143 0.0
H1056 H 0.83043 0.18975 0.85659 0.0
H1057 H 0.83946 0.20238 0.90957 0.0
H1058 H 0.78725 0.12407 0.8597 0.0
H1059 H 0.79592 0.13591 0.91274 0.0
H1060 H 0.67754 0.02934 0.90813 0.0
H1061 H 0.72825 0.09354 0.90752 0.0
H1062 H 0.78091 0.06573 0.86876 0.0
H1063 H 0.73041 1.00212 0.8692 0.0
C1064 C 0.82382 0.17828 0.86894 0.0
C1065 C 0.83854 0.20132 0.88283 0.0
C1066 C 0.79902 0.14051 0.87073 0.0
C1067 C 0.78787 0.12461 0.88647 0.0
C1068 C 0.80366 0.14734 0.90043 0.0
C1069 C 0.82898 0.1853 0.89862 0.0
C1070 C 0.70006 0.03692 0.89955 0.0
C1071 C 0.69963 0.01054 0.88861 0.0
C1072 C 0.72928 0.07367 0.89929 0.0
C1073 C 0.75865 0.0849 0.88805 0.0
C1074 C 0.75856 0.05824 0.87744 0.0
C1075 C 0.72953 0.02164 0.87772 0.0
H1076 H 0.62857 0.82066 0.90886 0.0
H1077 H 0.6555 0.83351 0.85701 0.0
H1078 H 0.64627 0.77314 0.91089 0.0
H1079 H 0.67497 0.78774 0.85909 0.0
H1080 H 0.65453 0.67133 0.86102 0.0
H1081 H 0.64443 0.72357 0.86099 0.0
H1082 H 0.69033 0.75295 0.91018 0.0
H1083 H 0.69906 0.69926 0.91041 0.0
C1084 C 0.63958 0.81429 0.89805 0.0
C1085 C 0.64055 0.83068 0.88277 0.0
C1086 C 0.64964 0.78692 0.89917 0.0
C1087 C 0.66126 0.77574 0.88506 0.0
C1088 C 0.66496 0.79451 0.87011 0.0
C1089 C 0.65433 0.82123 0.86895 0.0
C1090 C 0.66252 0.68889 0.87185 0.0
C1091 C 0.67776 0.68112 0.88569 0.0
C1092 C 0.65705 0.71923 0.87179 0.0
C1093 C 0.66713 0.74318 0.88548 0.0
C1094 C 0.68204 0.73517 0.89943 0.0
C1095 C 0.68717 0.70441 0.89956 0.0
H1096 H 0.9929 0.65036 0.90929 0.0
H1097 H 0.01743 0.72204 0.86705 0.0
H1098 H 0.92855 0.63597 0.90837 0.0
H1099 H 0.95349 0.70796 0.86626 0.0
H1100 H 0.82905 0.63043 0.85614 0.0
H1101 H 0.89482 0.65349 0.85901 0.0
H1102 H 0.88629 0.66197 0.91178 0.0
H1103 H 0.8197 0.63846 0.90888 0.0
C1104 C 0.98469 0.66328 0.89989 0.0
C1105 C 1.01036 0.68714 0.88816 0.0
C1106 C 0.94785 0.65525 0.89945 0.0
C1107 C 0.93577 0.67072 0.88721 0.0
C1108 C 0.9617 0.69521 0.87574 0.0
C1109 C 0.99845 0.70334 0.87622 0.0
C1110 C 0.8412 0.63775 0.86836 0.0
C1111 C 0.81905 0.63259 0.88229 0.0
C1112 C 0.87904 0.65113 0.87 0.0
C1113 C 0.89592 0.65949 0.88564 0.0
C1114 C 0.87407 0.65547 0.89957 0.0
C1115 C 0.83604 0.64241 0.8979 0.0
H1116 H 0.36003 0.98843 0.88623 0.0
H1117 H 0.28661 1.00269 0.91894 0.0
H1118 H 0.31328 0.92386 0.88234 0.0
H1119 H 0.2395 0.93782 0.9149 0.0
H1120 H 0.18162 0.80709 0.91482 0.0
H1121 H 0.22508 0.87273 0.92032 0.0
H1122 H 0.25342 0.88989 0.86859 0.0
H1123 H 0.21076 0.82514 0.86313 0.0
C1124 C 0.33392 0.97784 0.89261 0.0
C1125 C 0.3271 1.00097 0.90281 0.0
C1126 C 0.30696 0.94078 0.89031 0.0
C1127 C 0.27239 0.92565 0.89817 0.0
C1128 C 0.26582 0.94849 0.9087 0.0
C1129 C 0.29281 0.98575 0.91095 0.0
C1130 C 0.1967 0.82506 0.90461 0.0
C1131 C 0.19287 0.8106 0.88857 0.0
C1132 C 0.22167 0.86266 0.90776 0.0
C1133 C 0.24334 0.88647 0.89494 0.0
C1134 C 0.23799 0.87225 0.87883 0.0
C1135 C 0.2132 0.835 0.8757 0.0
H1136 H 0.2928 0.28402 0.91788 0.0
H1137 H 0.38505 0.36005 0.88783 0.0
H1138 H 0.31099 0.23719 0.91424 0.0
H1139 H 0.40334 0.31358 0.88439 0.0
H1140 H 0.40012 0.212 0.86418 0.0
H1141 H 0.37894 0.25525 0.86963 0.0
H1142 H 0.36015 0.22125 0.9207 0.0
H1143 H 0.38143 0.17706 0.91519 0.0
C1144 C 0.31706 0.29086 0.91057 0.0
C1145 C 0.33724 0.32578 0.90301 0.0
C1146 C 0.32759 0.26404 0.90858 0.0
C1147 C 0.3584 0.27141 0.89889 0.0
C1148 C 0.37903 0.30665 0.89168 0.0
C1149 C 0.36863 0.33343 0.89372 0.0
C1150 C 0.39134 0.21338 0.87661 0.0
C1151 C 0.39291 0.19115 0.88929 0.0
C1152 C 0.37938 0.23851 0.87974 0.0
C1153 C 0.36854 0.24238 0.89567 0.0
C1154 C 0.36839 0.21902 0.90828 0.0
C1155 C 0.38052 0.19366 0.90513 0.0
H1156 H 0.03383 0.37768 0.88651 0.0
H1157 H 0.01863 0.2864 0.91705 0.0
H1158 H 0.0986 0.39603 0.88278 0.0
H1159 H 0.08356 0.30469 0.91318 0.0
H1160 H 0.21397 0.37581 0.91381 0.0
H1161 H 0.14855 0.3543 0.91935 0.0
H1162 H 0.13258 0.37125 0.86812 0.0
H1163 H 0.19708 0.39259 0.86261 0.0
C1164 C 0.04427 0.36154 0.89247 0.0
C1165 C 0.02081 0.33037 0.90198 0.0
C1166 C 0.08143 0.37195 0.89026 0.0
C1167 C 0.09629 0.3516 0.89753 0.0
C1168 C 0.07313 0.32107 0.90745 0.0
C1169 C 0.03582 0.3105 0.90959 0.0
C1170 C 0.19631 0.37434 0.9037 0.0
C1171 C 0.21105 0.38629 0.8878 0.0
C1172 C 0.15883 0.36211 0.90688 0.0
C1173 C 0.13543 0.36175 0.89424 0.0
C1174 C 0.14991 0.37206 0.87824 0.0
C1175 C 0.18702 0.38406 0.87508 0.0
H1176 H 0.81112 0.18533 0.60198 0.0
H1177 H 0.82544 0.18661 0.65481 0.0
H1178 H 0.87772 0.22866 0.59885 0.0
H1179 H 0.89114 0.2294 0.65175 0.0
H1180 H 0.01244 0.28331 0.64126 0.0
H1181 H 0.94814 0.2343 0.64113 0.0
H1182 H 0.92211 0.29573 0.60608 0.0
H1183 H 0.98696 0.34505 0.60608 0.0
C1184 C 0.82855 0.19418 0.61286 0.0
C1185 C 0.813 0.18243 0.62864 0.0
C1186 C 0.86658 0.21931 0.6111 0.0
C1187 C 0.88982 0.23263 0.62506 0.0
C1188 C 0.87429 0.21953 0.64071 0.0
C1189 C 0.8365 0.195 0.64247 0.0
C1190 C 0.99317 0.28644 0.63343 0.0
C1191 C 1.00497 0.31839 0.62378 0.0
C1192 C 0.95619 0.25826 0.63339 0.0
C1193 C 0.92983 0.26108 0.62367 0.0
C1194 C 0.94173 0.29249 0.6136 0.0
C1195 C 0.97886 0.32089 0.6137 0.0
H1196 H 0.63028 0.80571 0.60197 0.0
H1197 H 0.64659 0.82118 0.65463 0.0
H1198 H 0.6539 0.87234 0.59863 0.0
H1199 H 0.66977 0.88691 0.65138 0.0
H1200 H 0.73559 1.00814 0.64051 0.0
H1201 H 0.72065 0.94393 0.6405 0.0
H1202 H 0.63211 0.91684 0.60589 0.0
H1203 H 0.64736 0.98158 0.60574 0.0
C1204 C 0.63971 0.8234 0.61276 0.0
C1205 C 0.63667 0.80815 0.62856 0.0
C1206 C 0.65279 0.86146 0.61089 0.0
C1207 C 0.66363 0.88505 0.62474 0.0
C1208 C 0.66208 0.86982 0.6404 0.0
C1209 C 0.64868 0.832 0.64228 0.0
C1210 C 0.71304 0.98866 0.6328 0.0
C1211 C 0.69251 1.00013 0.62323 0.0
C1212 C 0.70442 0.95171 0.63282 0.0
C1213 C 0.67503 0.92505 0.62327 0.0
C1214 C 0.65515 0.93666 0.61328 0.0
C1215 C 0.66372 0.97375 0.61329 0.0
H1216 H 0.67207 0.64536 0.60661 0.0
H1217 H 0.72338 0.72264 0.64675 0.0
H1218 H 0.72233 0.63133 0.60733 0.0
H1219 H 0.77347 0.70895 0.64733 0.0
H1220 H 0.82257 0.63376 0.65861 0.0
H1221 H 0.77939 0.65625 0.6557 0.0
H1222 H 0.79009 0.65672 0.60266 0.0
H1223 H 0.83362 0.63379 0.60562 0.0
C1224 C 0.69415 0.65956 0.6155 0.0
C1225 C 0.69343 0.68493 0.62671 0.0
C1226 C 0.72313 0.65173 0.61583 0.0
C1227 C 0.75197 0.66891 0.62743 0.0
C1228 C 0.75155 0.69484 0.63837 0.0
C1229 C 0.72276 0.70275 0.638 0.0
C1230 C 0.81634 0.63932 0.64631 0.0
C1231 C 0.83168 0.63204 0.63235 0.0
C1232 C 0.79155 0.65232 0.64463 0.0
C1233 C 0.78102 0.65817 0.62894 0.0
C1234 C 0.79732 0.65216 0.61493 0.0
C1235 C 0.82263 0.6395 0.61662 0.0
H1236 H 0.02827 0.6531 0.62753 0.0
H1237 H 1.01137 0.73335 0.60121 0.0
H1238 H 0.09284 0.69944 0.63182 0.0
H1239 H 0.07615 0.77995 0.60569 0.0
H1240 H 0.20617 0.84054 0.60417 0.0
H1241 H 0.1408 0.79699 0.59845 0.0
H1242 H 0.12691 0.75553 0.6483 0.0
H1243 H 0.19154 0.79835 0.65397 0.0
C1244 C 0.0383 0.6806 0.62262 0.0
C1245 C 0.01445 0.68948 0.61412 0.0
C1246 C 0.07534 0.7073 0.62517 0.0
C1247 C 0.08965 0.74361 0.61926 0.0
C1248 C 0.0661 0.75226 0.61035 0.0
C1249 C 0.0289 0.72554 0.60786 0.0
C1250 C 0.189 0.8225 0.61396 0.0
C1251 C 0.20435 0.82284 0.62948 0.0
C1252 C 0.15155 0.79749 0.61068 0.0
C1253 C 0.12874 0.77227 0.62284 0.0
C1254 C 0.14381 0.77387 0.63853 0.0
C1255 C 0.18096 0.79874 0.6418 0.0
H1256 H 0.28444 0.99866 0.64433 0.0
H1257 H 0.36621 0.02528 0.60625 0.0
H1258 H 0.29831 0.06254 0.64466 0.0
H1259 H 0.3804 0.08967 0.60674 0.0
H1260 H 0.37972 0.19944 0.60446 0.0
H1261 H 0.35586 0.1328 0.60115 0.0
H1262 H 0.35106 0.1203 0.65417 0.0
H1263 H 0.37452 0.18612 0.65741 0.0
C1264 C 0.30532 0.01809 0.63597 0.0
C1265 C 0.32442 1.00678 0.62536 0.0
C1266 C 0.31331 0.05482 0.63618 0.0
C1267 C 0.34059 0.08135 0.62579 0.0
C1268 C 0.35896 0.06989 0.61479 0.0
C1269 C 0.35102 0.03303 0.61461 0.0
C1270 C 0.37262 0.18219 0.61536 0.0
C1271 C 0.3789 0.19802 0.6312 0.0
C1272 C 0.35942 0.14414 0.61348 0.0
C1273 C 0.3517 0.12118 0.6274 0.0
C1274 C 0.35633 0.13695 0.64317 0.0
C1275 C 0.36988 0.17478 0.64504 0.0
H1276 H 0.17311 0.36695 0.60399 0.0
H1277 H 0.21413 0.39332 0.65402 0.0
H1278 H 0.21657 0.34498 0.59843 0.0
H1279 H 0.25684 0.37135 0.64853 0.0
H1280 H 0.35955 0.37494 0.6284 0.0
H1281 H 0.31327 0.39326 0.63259 0.0
H1282 H 0.23355 0.2974 0.60538 0.0
H1283 H 0.28008 0.27919 0.60101 0.0
C1284 C 0.19083 0.36747 0.61387 0.0
C1285 C 0.19022 0.38223 0.62941 0.0
C1286 C 0.21582 0.35496 0.61068 0.0
C1287 C 0.24076 0.35705 0.62294 0.0
C1288 C 0.2388 0.3702 0.63865 0.0
C1289 C 0.21397 0.38256 0.64183 0.0
C1290 C 0.33224 0.35778 0.62324 0.0
C1291 C 0.32358 0.32543 0.61446 0.0
C1292 C 0.30556 0.36818 0.62573 0.0
C1293 C 0.26946 0.34659 0.61948 0.0
C1294 C 0.26105 0.31475 0.61031 0.0
C1295 C 0.28774 0.30424 0.60788 0.0
H1296 H 0.4451 0.16833 0.04407 0.0
H1297 H 0.43505 0.06224 0.05361 0.0
H1298 H 0.43325 0.15319 0.01478 0.0
H1299 H 0.42385 0.0471 0.02405 0.0
H1300 H 0.48549 0.0852 0.97136 0.0
H1301 H 0.4715 0.07878 1.00081 0.0
H1302 H 0.38871 0.10987 0.99252 0.0
H1303 H 0.40243 0.11572 0.96285 0.0
C1304 C 0.43919 0.14127 0.03991 0.0
C1305 C 0.44075 0.11634 0.05102 0.0
C1306 C 0.43227 0.13251 0.02316 0.0
C1307 C 0.42763 0.09895 0.0171 0.0
C1308 C 0.42726 0.07313 0.02839 0.0
C1309 C 0.43346 0.08166 0.04527 0.0
C1310 C 0.46339 0.08936 0.97576 0.0
C1311 C 0.44502 0.1009 0.96486 0.0
C1312 C 0.45526 0.08554 0.99262 0.0
C1313 C 0.42912 0.09398 0.99899 0.0
C1314 C 0.40901 0.10322 0.98793 0.0
C1315 C 0.41666 0.10633 0.97096 0.0
H1316 H 0.38147 0.43538 0.05379 0.0
H1317 H 0.27791 0.42981 0.04285 0.0
H1318 H 0.38851 0.42511 0.02445 0.0
H1319 H 0.28443 0.41904 0.01379 0.0
H1320 H 0.29838 0.39458 0.96219 0.0
H1321 H 0.29057 0.37939 0.9917 0.0
H1322 H 0.40014 0.47065 1.00118 0.0
H1323 H 0.40769 0.48587 0.97187 0.0
C1324 C 0.35962 0.43055 0.04521 0.0
C1325 C 0.32915 0.43334 0.05048 0.0
C1326 C 0.36369 0.42488 0.02844 0.0
C1327 C 0.33704 0.42132 0.0168 0.0
C1328 C 0.30521 0.42119 0.02243 0.0
C1329 C 0.30153 0.42753 0.03905 0.0
C1330 C 0.32124 0.41046 0.97052 0.0
C1331 C 0.35359 0.44149 0.96479 0.0
C1332 C 0.31671 0.40193 0.98741 0.0
C1333 C 0.34467 0.42395 0.99877 0.0
C1334 C 0.37822 0.45292 0.99276 0.0
C1335 C 0.38249 0.46178 0.97598 0.0
H1336 H 0.91287 0.29593 0.05316 0.0
H1337 H 0.92988 0.40453 0.04259 0.0
H1338 H 0.92139 0.28762 0.02385 0.0
H1339 H 0.93854 0.39641 0.01347 0.0
H1340 H 0.95739 0.37736 0.9613 0.0
H1341 H 0.9735 0.38536 0.9908 0.0
H1342 H 0.87683 0.27987 1.0011 0.0
H1343 H 0.86079 0.27235 0.97188 0.0
C1344 C 0.9198 0.31853 0.04469 0.0
C1345 C 0.92056 0.35082 0.05012 0.0
C1346 C 0.92443 0.31369 0.0279 0.0
C1347 C 0.93044 0.34128 0.01632 0.0
C1348 C 0.93434 0.37477 0.02205 0.0
C1349 C 0.92914 0.37935 0.03873 0.0
C1350 C 0.94046 0.35542 0.96985 0.0
C1351 C 0.9079 0.32424 0.96441 0.0
C1352 C 0.94949 0.36005 0.98671 0.0
C1353 C 0.92637 0.33328 0.99829 0.0
C1354 C 0.89548 0.30079 0.99253 0.0
C1355 C 0.88616 0.29652 0.97581 0.0
H1356 H 0.58719 0.85028 0.97097 0.0
H1357 H 0.58738 0.95182 0.96142 0.0
H1358 H 0.59727 0.86539 1.00031 0.0
H1359 H 0.59682 0.96687 0.99102 0.0
H1360 H 0.53499 0.92464 0.04338 0.0
H1361 H 0.54954 0.93198 0.01398 0.0
H1362 H 0.63873 0.91029 0.02281 0.0
H1363 H 0.62437 0.90343 0.05241 0.0
C1364 C 0.59056 0.87642 0.97515 0.0
C1365 C 0.5867 0.89998 0.96401 0.0
C1366 C 0.59647 0.88517 0.99192 0.0
C1367 C 0.59779 0.9173 0.99798 0.0
C1368 C 0.59595 0.94194 0.98668 0.0
C1369 C 0.59077 0.93349 0.96977 0.0
C1370 C 0.55846 0.92263 0.0391 0.0
C1371 C 0.57853 0.91345 0.05014 0.0
C1372 C 0.56693 0.92704 0.02228 0.0
C1373 C 0.5952 0.92158 0.01607 0.0
C1374 C 0.61679 0.91463 0.02726 0.0
C1375 C 0.60873 0.91092 0.0442 0.0
H1376 H 0.73109 0.62048 0.05264 0.0
H1377 H 0.61898 0.53462 0.04313 0.0
H1378 H 0.73979 0.63505 0.02307 0.0
H1379 H 0.62741 0.54938 0.01375 0.0
H1380 H 0.64848 0.58696 0.96115 0.0
H1381 H 0.64267 0.59709 0.99064 0.0
H1382 H 0.74149 0.59224 1.00085 0.0
H1383 H 0.74671 0.5815 0.97163 0.0
C1384 C 0.70792 0.60573 0.04433 0.0
C1385 C 0.67437 0.57638 0.05013 0.0
C1386 C 0.71295 0.6139 0.02741 0.0
C1387 C 0.68431 0.59327 0.01609 0.0
C1388 C 0.64986 0.56603 0.02215 0.0
C1389 C 0.64508 0.55744 0.03896 0.0
C1390 C 0.66951 0.58931 0.96968 0.0
C1391 C 0.69806 0.58352 0.96421 0.0
C1392 C 0.66612 0.5949 0.98652 0.0
C1393 C 0.69164 0.59547 0.99805 0.0
C1394 C 0.72168 0.59244 0.99229 0.0
C1395 C 0.7246 0.58612 0.97558 0.0
H1396 H 0.06969 0.64421 0.05385 0.0
H1397 H 0.16834 0.74723 0.04282 0.0
H1398 H 0.05326 0.63608 0.02438 0.0
H1399 H 0.15195 0.73959 0.01364 0.0
H1400 H 0.11466 0.72392 0.96177 0.0
H1401 H 0.10705 0.73297 0.9911 0.0
H1402 H 0.08729 0.62331 1.00166 0.0
H1403 H 0.09507 0.61445 0.97251 0.0
C1404 C 0.08706 0.6657 0.0452 0.0
C1405 C 0.12025 0.69632 0.05051 0.0
C1406 C 0.07783 0.661 0.02837 0.0
C1407 C 0.10136 0.68718 0.01669 0.0
C1408 C 0.133 0.71916 0.0223 0.0
C1409 C 0.14251 0.72347 0.039 0.0
C1410 C 0.10735 0.70132 0.97028 0.0
C1411 C 0.10561 0.66853 0.9649 0.0
C1412 C 0.10323 0.70657 0.98708 0.0
C1413 C 0.09676 0.67892 0.9987 0.0
C1414 C 0.09188 0.645 0.99303 0.0
C1415 C 0.09658 0.64 0.97634 0.0
H1416 H 0.856 0.58679 0.5433 0.0
H1417 H 0.95344 0.57948 0.55315 0.0
H1418 H 0.87202 0.59711 0.51409 0.0
H1419 H 0.96945 0.58926 0.52367 0.0
H1420 H 0.92617 0.52931 0.47113 0.0
H1421 H 0.93392 0.54376 0.50053 0.0
H1422 H 0.91748 0.63638 0.49174 0.0
H1423 H 0.91001 0.62199 0.46214 0.0
C1424 C 0.88154 0.58863 0.53923 0.0
C1425 C 0.90358 0.5825 0.5504 0.0
C1426 C 0.89082 0.59467 0.52252 0.0
C1427 C 0.92195 0.59389 0.51656 0.0
C1428 C 0.94528 0.58998 0.52793 0.0
C1429 C 0.93631 0.58462 0.54477 0.0
C1430 C 0.92535 0.55345 0.47541 0.0
C1431 C 0.9174 0.57445 0.46437 0.0
C1432 C 0.93003 0.56188 0.49224 0.0
C1433 C 0.92616 0.59113 0.49847 0.0
C1434 C 0.92054 0.61364 0.48728 0.0
C1435 C 0.9165 0.60555 0.47034 0.0
H1436 H 0.37931 0.95135 0.55398 0.0
H1437 H 0.28316 0.84567 0.54374 0.0
H1438 H 0.38448 0.96687 0.52444 0.0
H1439 H 0.28769 0.86122 0.51448 0.0
H1440 H 0.29655 0.89947 0.46264 0.0
H1441 H 0.28777 0.90529 0.49221 0.0
H1442 H 0.40092 0.93475 0.50144 0.0
H1443 H 0.40942 0.92839 0.47206 0.0
C1444 C 0.35856 0.9321 0.54549 0.0
C1445 C 0.33081 0.89738 0.55103 0.0
C1446 C 0.36159 0.94085 0.52863 0.0
C1447 C 0.33646 0.91526 0.51717 0.0
C1448 C 0.30715 0.88171 0.523 0.0
C1449 C 0.30463 0.87271 0.53973 0.0
C1450 C 0.31984 0.90846 0.47094 0.0
C1451 C 0.35365 0.91342 0.46512 0.0
C1452 C 0.31477 0.91158 0.48785 0.0
C1453 C 0.34364 0.92037 0.49913 0.0
C1454 C 0.37829 0.92833 0.49305 0.0
C1455 C 0.38311 0.92451 0.47625 0.0
H1456 H 0.43339 0.37527 0.55358 0.0
H1457 H 0.42948 0.27211 0.54354 0.0
H1458 H 0.42431 0.38187 0.52404 0.0
H1459 H 0.41994 0.2782 0.51427 0.0
H1460 H 0.39774 0.29169 0.46207 0.0
H1461 H 0.38146 0.28353 0.49147 0.0
H1462 H 0.47063 0.39406 0.50131 0.0
H1463 H 0.48692 0.40195 0.47212 0.0
C1464 C 0.42912 0.35337 0.54514 0.0
C1465 C 0.43199 0.32314 0.55075 0.0
C1466 C 0.42418 0.35721 0.52826 0.0
C1467 C 0.42149 0.33058 0.51681 0.0
C1468 C 0.42142 0.29896 0.52274 0.0
C1469 C 0.42701 0.2955 0.5395 0.0
C1470 C 0.41292 0.31465 0.47044 0.0
C1471 C 0.44365 0.34743 0.46485 0.0
C1472 C 0.40379 0.30991 0.48728 0.0
C1473 C 0.42488 0.33808 0.49873 0.0
C1474 C 0.45357 0.37196 0.49283 0.0
C1475 C 0.46305 0.37643 0.47611 0.0
H1476 H 0.16656 0.43285 0.54455 0.0
H1477 H 0.06415 0.43166 0.55267 0.0
H1478 H 0.15271 0.42215 0.51511 0.0
H1479 H 0.05035 0.42159 0.52297 0.0
H1480 H 0.09587 0.48452 0.47098 0.0
H1481 H 0.08614 0.46911 0.50027 0.0
H1482 H 0.10925 0.38058 0.49224 0.0
H1483 H 0.11847 0.39581 0.46272 0.0
C1484 C 0.14048 0.42906 0.54004 0.0
C1485 C 0.11631 0.43285 0.55078 0.0
C1486 C 0.13245 0.42279 0.52321 0.0
C1487 C 0.10045 0.42107 0.51672 0.0
C1488 C 0.07518 0.42276 0.52765 0.0
C1489 C 0.08293 0.42831 0.54461 0.0
C1490 C 0.09757 0.46093 0.47539 0.0
C1491 C 0.10791 0.44136 0.46463 0.0
C1492 C 0.09183 0.45198 0.49214 0.0
C1493 C 0.0971 0.42374 0.49857 0.0
C1494 C 0.10504 0.40251 0.48761 0.0
C1495 C 0.11009 0.41105 0.47073 0.0
H1496 H 0.64827 0.06903 0.46109 0.0
H1497 H 0.75007 0.16909 0.47214 0.0
H1498 H 0.64086 0.0524 0.49053 0.0
H1499 H 0.74321 0.15241 0.5013 0.0
H1500 H 0.72935 0.11201 0.55295 0.0
H1501 H 0.738 0.10624 0.52337 0.0
H1502 H 0.62796 0.08625 0.51374 0.0
H1503 H 0.61959 0.09243 0.54313 0.0
C1504 C 0.66966 0.08671 0.46974 0.0
C1505 C 0.69974 0.12029 0.46444 0.0
C1506 C 0.66537 0.07735 0.48655 0.0
C1507 C 0.69147 0.10111 0.49822 0.0
C1508 C 0.72289 0.13329 0.49263 0.0
C1509 C 0.72675 0.14295 0.47595 0.0
C1510 C 0.70662 0.10509 0.54456 0.0
C1511 C 0.67382 0.10274 0.55029 0.0
C1512 C 0.71163 0.10202 0.52764 0.0
C1513 C 0.6837 0.09592 0.51623 0.0
C1514 C 0.64985 0.09056 0.5222 0.0
C1515 C 0.64511 0.0943 0.53902 0.0
H1516 H 0.59105 0.64382 0.46145 0.0
H1517 H 0.58124 0.73968 0.47191 0.0
H1518 H 0.6013 0.63832 0.49097 0.0
H1519 H 0.59217 0.73481 0.50116 0.0
H1520 H 0.62189 0.72604 0.55289 0.0
H1521 H 0.63646 0.73488 0.52331 0.0
H1522 H 0.55292 0.62156 0.51411 0.0
H1523 H 0.53808 0.61304 0.54349 0.0
C1524 C 0.59241 0.66442 0.46999 0.0
C1525 C 0.5854 0.69218 0.4645 0.0
C1526 C 0.5981 0.66121 0.48684 0.0
C1527 C 0.5976 0.68619 0.49836 0.0
C1528 C 0.59323 0.71546 0.49259 0.0
C1529 C 0.58677 0.71816 0.47587 0.0
C1530 C 0.60768 0.70272 0.5446 0.0
C1531 C 0.57886 0.66886 0.55042 0.0
C1532 C 0.61583 0.70782 0.52769 0.0
C1533 C 0.59572 0.67894 0.5164 0.0
C1534 C 0.56915 0.64421 0.52249 0.0
C1535 C 0.56054 0.63935 0.5393 0.0
H1536 H 0.36993 0.12842 0.22899 0.0
H1537 H 0.48192 0.21285 0.21785 0.0
H1538 H 0.37206 0.1609 0.25433 0.0
H1539 H 0.48373 0.24559 0.24312 0.0
H1540 H 0.48394 0.27129 0.29889 0.0
H1541 H 0.48306 0.23801 0.27393 0.0
H1542 H 0.37457 0.21971 0.26198 0.0
H1543 H 0.37511 0.25242 0.28697 0.0
C1544 C 0.395 0.15394 0.23192 0.0
C1545 C 0.42554 0.16819 0.22122 0.0
C1546 C 0.39612 0.17267 0.2464 0.0
C1547 C 0.42799 0.20594 0.25071 0.0
C1548 C 0.45881 0.21995 0.24019 0.0
C1549 C 0.45757 0.20138 0.22558 0.0
C1550 C 0.45968 0.25977 0.29108 0.0
C1551 C 0.42937 0.26419 0.29509 0.0
C1552 C 0.45939 0.24107 0.27666 0.0
C1553 C 0.42869 0.2261 0.26599 0.0
C1554 C 0.39846 0.23052 0.27002 0.0
C1555 C 0.39889 0.2495 0.28431 0.0
H1556 H 0.32649 0.4584 0.2387 0.0
H1557 H 0.22688 0.41361 0.20949 0.0
H1558 H 0.292 0.45736 0.26309 0.0
H1559 H 0.19195 0.41109 0.23394 0.0
H1560 H 0.14491 0.4434 0.27706 0.0
H1561 H 0.18039 0.44648 0.2527 0.0
H1562 H 0.2489 0.41908 0.28272 0.0
H1563 H 0.21424 0.41752 0.30712 0.0
C1564 C 0.29712 0.44806 0.23753 0.0
C1565 C 0.27955 0.4365 0.22212 0.0
C1566 C 0.27722 0.44724 0.25155 0.0
C1567 C 0.23902 0.43417 0.25061 0.0
C1568 C 0.22141 0.42215 0.23517 0.0
C1569 C 0.24145 0.4235 0.2211 0.0
C1570 C 0.16763 0.43812 0.27843 0.0
C1571 C 0.17696 0.43061 0.29405 0.0
C1572 C 0.18789 0.43964 0.26443 0.0
C1573 C 0.21767 0.43301 0.26562 0.0
C1574 C 0.22675 0.42515 0.28129 0.0
C1575 C 0.20679 0.42417 0.29533 0.0
H1576 H 0.81743 0.22149 0.20801 0.0
H1577 H 0.88057 0.31834 0.23823 0.0
H1578 H 0.78345 0.18689 0.23229 0.0
H1579 H 0.84583 0.28427 0.26244 0.0
H1580 H 0.80358 0.20424 0.30553 0.0
H1581 H 0.83764 0.238 0.28115 0.0
H1582 H 0.73846 0.17903 0.25175 0.0
H1583 H 0.7048 0.1444 0.27611 0.0
C1584 C 0.82366 0.2356 0.21979 0.0
C1585 C 0.85158 0.27281 0.22115 0.0
C1586 C 0.8041 0.21574 0.23377 0.0
C1587 C 0.81171 0.23265 0.24943 0.0
C1588 C 0.83955 0.26997 0.2507 0.0
C1589 C 0.85938 0.28965 0.23678 0.0
C1590 C 0.78896 0.19871 0.2939 0.0
C1591 C 0.75133 0.17186 0.29281 0.0
C1592 C 0.80851 0.21815 0.27986 0.0
C1593 C 0.79089 0.21154 0.26438 0.0
C1594 C 0.75322 0.18458 0.26335 0.0
C1595 C 0.7338 0.16482 0.27735 0.0
H1596 H 0.63906 0.89729 0.23408 0.0
H1597 H 0.54951 0.79734 0.21302 0.0
H1598 H 0.63785 0.86292 0.25853 0.0
H1599 H 0.5488 0.76316 0.23742 0.0
H1600 H 0.58674 0.70803 0.27615 0.0
H1601 H 0.58701 0.74192 0.2516 0.0
H1602 H 0.59836 0.83144 0.28232 0.0
H1603 H 0.59911 0.79814 0.30685 0.0
C1604 C 0.61912 0.86803 0.23459 0.0
C1605 C 0.5948 0.85024 0.22132 0.0
C1606 C 0.61837 0.84834 0.24868 0.0
C1607 C 0.59328 0.81026 0.24994 0.0
C1608 C 0.56891 0.79236 0.23673 0.0
C1609 C 0.56951 0.81208 0.22264 0.0
C1610 C 0.58931 0.73495 0.2777 0.0
C1611 C 0.5925 0.75005 0.29355 0.0
C1612 C 0.58917 0.75426 0.2636 0.0
C1613 C 0.59261 0.78936 0.26498 0.0
C1614 C 0.5959 0.80455 0.28081 0.0
C1615 C 0.59583 0.78516 0.29492 0.0
H1616 H 0.70824 0.57027 0.23731 0.0
H1617 H 0.80599 0.60454 0.20788 0.0
H1618 H 0.74122 0.56876 0.26178 0.0
H1619 H 0.83987 0.60509 0.23247 0.0
H1620 H 0.88483 0.57452 0.27688 0.0
H1621 H 0.84981 0.57114 0.25225 0.0
H1622 H 0.78493 0.60512 0.28111 0.0
H1623 H 0.81879 0.60648 0.30579 0.0
C1624 C 0.73694 0.5777 0.23612 0.0
C1625 C 0.75442 0.58729 0.22066 0.0
C1626 C 0.75605 0.57715 0.2502 0.0
C1627 C 0.79351 0.58703 0.24929 0.0
C1628 C 0.81094 0.59658 0.23373 0.0
C1629 C 0.79155 0.59641 0.21958 0.0
C1630 C 0.86292 0.58107 0.27793 0.0
C1631 C 0.85436 0.59042 0.2933 0.0
C1632 C 0.84294 0.57941 0.26376 0.0
C1633 C 0.81433 0.58788 0.26452 0.0
C1634 C 0.80605 0.59752 0.27997 0.0
C1635 C 0.82559 0.59847 0.29419 0.0
H1636 H 0.22979 0.76323 0.21296 0.0
H1637 H 0.12607 0.73834 0.23549 0.0
H1638 H 0.26243 0.79655 0.23767 0.0
H1639 H 0.15901 0.7712 0.26028 0.0
H1640 H 0.22635 0.79912 0.30798 0.0
H1641 H 0.19507 0.76513 0.28309 0.0
H1642 H 0.27663 0.85383 0.25311 0.0
H1643 H 0.30852 0.88769 0.27804 0.0
C1644 C 0.2138 0.76521 0.22298 0.0
C1645 C 0.17504 0.74841 0.22196 0.0
C1646 C 0.23268 0.78423 0.23724 0.0
C1647 C 0.21335 0.78658 0.25093 0.0
C1648 C 0.17471 0.76956 0.25002 0.0
C1649 C 0.15584 0.75078 0.23574 0.0
C1650 C 0.23809 0.8112 0.29612 0.0
C1651 C 0.27032 0.84605 0.29505 0.0
C1652 C 0.21981 0.79186 0.28183 0.0
C1653 C 0.23334 0.80678 0.26612 0.0
C1654 C 0.26571 0.84142 0.26503 0.0
C1655 C 0.28383 0.86092 0.27932 0.0
H1656 H 0.57345 0.70098 0.73808 0.0
H1657 H 0.60504 0.79714 0.70774 0.0
H1658 H 0.57201 0.73485 0.76226 0.0
H1659 H 0.60509 0.83161 0.73196 0.0
H1660 H 0.56899 0.87428 0.77549 0.0
H1661 H 0.56802 0.8392 0.7513 0.0
H1662 H 0.60888 0.78129 0.78101 0.0
H1663 H 0.60837 0.81541 0.80526 0.0
C1664 C 0.58033 0.72948 0.73661 0.0
C1665 C 0.58896 0.7462 0.72096 0.0
C1666 C 0.57974 0.74905 0.7505 0.0
C1667 C 0.58845 0.78615 0.74918 0.0
C1668 C 0.59742 0.80292 0.73349 0.0
C1669 C 0.59747 0.78315 0.71955 0.0
C1670 C 0.57768 0.85397 0.77683 0.0
C1671 C 0.58835 0.84737 0.79233 0.0
C1672 C 0.57736 0.83395 0.76293 0.0
C1673 C 0.58836 0.80723 0.76409 0.0
C1674 C 0.59941 0.80096 0.77962 0.0
C1675 C 0.59921 0.82062 0.79358 0.0
H1676 H 0.70357 0.56251 0.77632 0.0
H1677 H 0.80055 0.5965 0.80646 0.0
H1678 H 0.73738 0.5613 0.75212 0.0
H1679 H 0.83489 0.5966 0.78219 0.0
H1680 H 0.87693 0.55965 0.73853 0.0
H1681 H 0.84247 0.55906 0.76286 0.0
H1682 H 0.78355 0.59905 0.73333 0.0
H1683 H 0.81714 0.59834 0.70896 0.0
C1684 C 0.73223 0.56994 0.77775 0.0
C1685 C 0.7492 0.57921 0.79336 0.0
C1686 C 0.75175 0.56948 0.76384 0.0
C1687 C 0.78903 0.5789 0.76509 0.0
C1688 C 0.80606 0.58843 0.78073 0.0
C1689 C 0.78636 0.58842 0.7947 0.0
C1690 C 0.85657 0.56827 0.73725 0.0
C1691 C 0.84948 0.57857 0.72176 0.0
C1692 C 0.8369 0.56815 0.75124 0.0
C1693 C 0.81001 0.57892 0.75015 0.0
C1694 C 0.80335 0.58973 0.73464 0.0
C1695 C 0.8227 0.58939 0.72062 0.0
H1696 H 0.317 0.87657 0.73805 0.0
H1697 H 0.21818 0.81206 0.70927 0.0
H1698 H 0.28492 0.84253 0.76276 0.0
H1699 H 0.18527 0.77922 0.73405 0.0
H1700 H 0.14282 0.70315 0.77818 0.0
H1701 H 0.17692 0.73535 0.75351 0.0
H1702 H 0.24158 0.83432 0.78248 0.0
H1703 H 0.20863 0.80123 0.80723 0.0
C1704 C 0.28826 0.85524 0.73706 0.0
C1705 C 0.27023 0.84677 0.7217 0.0
C1706 C 0.26969 0.83582 0.75127 0.0
C1707 C 0.23227 0.80794 0.75057 0.0
C1708 C 0.21422 0.7998 0.73514 0.0
C1709 C 0.23304 0.81875 0.72087 0.0
C1710 C 0.16447 0.73176 0.77924 0.0
C1711 C 0.17324 0.74954 0.79465 0.0
C1712 C 0.18392 0.75041 0.76506 0.0
C1713 C 0.21215 0.78769 0.76583 0.0
C1714 C 0.22069 0.80548 0.78133 0.0
C1715 C 0.20169 0.78655 0.79557 0.0
H1716 H 0.47973 0.20908 0.7983 0.0
H1717 H 0.36542 0.12918 0.78836 0.0
H1718 H 0.48188 0.24261 0.77322 0.0
H1719 H 0.36781 0.16252 0.76324 0.0
H1720 H 0.37507 0.25653 0.73089 0.0
H1721 H 0.37409 0.22364 0.75594 0.0
H1722 H 0.4783 0.23337 0.74227 0.0
H1723 H 0.47958 0.26667 0.71725 0.0
C1724 C 0.45496 0.19882 0.79088 0.0
C1725 C 0.42221 0.16663 0.79549 0.0
C1726 C 0.45636 0.21782 0.7764 0.0
C1727 C 0.42498 0.2053 0.76628 0.0
C1728 C 0.39234 0.17311 0.77087 0.0
C1729 C 0.39105 0.15389 0.78521 0.0
C1730 C 0.39781 0.25169 0.73321 0.0
C1731 C 0.42716 0.2639 0.72193 0.0
C1732 C 0.39712 0.23264 0.74752 0.0
C1733 C 0.42603 0.22575 0.75105 0.0
C1734 C 0.45568 0.23836 0.73991 0.0
C1735 C 0.45617 0.25707 0.72547 0.0
H1736 H 0.22179 0.41583 0.80659 0.0
H1737 H 0.31954 0.44791 0.77746 0.0
H1738 H 0.18886 0.41664 0.78195 0.0
H1739 H 0.28742 0.45061 0.75288 0.0
H1740 H 0.20955 0.41534 0.70875 0.0
H1741 H 0.24311 0.41548 0.73336 0.0
H1742 H 0.18115 0.45263 0.76242 0.0
H1743 H 0.14648 0.45059 0.73791 0.0
C1744 C 0.23646 0.42375 0.79495 0.0
C1745 C 0.27335 0.43199 0.794 0.0
C1746 C 0.21761 0.42436 0.78076 0.0
C1747 C 0.23531 0.43377 0.76526 0.0
C1748 C 0.27244 0.44247 0.76444 0.0
C1749 C 0.29104 0.44121 0.77857 0.0
C1750 C 0.20337 0.42383 0.72038 0.0
C1751 C 0.17545 0.4331 0.72137 0.0
C1752 C 0.22272 0.42404 0.73455 0.0
C1753 C 0.21505 0.43408 0.75004 0.0
C1754 C 0.18746 0.44395 0.75088 0.0
C1755 C 0.16769 0.44308 0.73677 0.0
H1756 H 0.89988 0.27879 0.77974 0.0
H1757 H 0.79704 0.2582 0.80168 0.0
H1758 H 0.86647 0.24463 0.75522 0.0
H1759 H 0.7639 0.22381 0.77726 0.0
H1760 H 0.71418 0.13012 0.73871 0.0
H1761 H 0.74735 0.16556 0.76304 0.0
H1762 H 0.83147 0.24856 0.73175 0.0
H1763 H 0.79892 0.21274 0.70742 0.0
C1764 C 0.8702 0.26704 0.7794 0.0
C1765 C 0.85133 0.27088 0.79295 0.0
C1766 C 0.85106 0.24753 0.76528 0.0
C1767 C 0.81247 0.23131 0.76429 0.0
C1768 C 0.79355 0.23537 0.77774 0.0
C1769 C 0.81269 0.25501 0.79184 0.0
C1770 C 0.73975 0.15594 0.73699 0.0
C1771 C 0.75354 0.16863 0.72103 0.0
C1772 C 0.75862 0.17641 0.75096 0.0
C1773 C 0.79202 0.20998 0.74937 0.0
C1774 C 0.80592 0.2227 0.73343 0.0
C1775 C 0.78692 0.20233 0.71943 0.0
H1776 H 0.53256 0.11615 0.10691 0.0
H1777 H 0.43536 0.02729 0.12938 0.0
H1778 H 0.55079 0.07237 0.09714 0.0
H1779 H 0.45298 0.98322 0.11936 0.0
H1780 H 0.59037 0.99832 0.12874 0.0
H1781 H 0.57237 0.04218 0.11888 0.0
H1782 H 0.47344 0.95261 0.0975 0.0
H1783 H 0.49188 0.90902 0.10719 0.0
C1784 C 0.51375 0.08689 0.10876 0.0
C1785 C 0.4826 0.07504 0.11894 0.0
C1786 C 0.52451 0.0619 0.10336 0.0
C1787 C 0.50382 0.02449 0.10778 0.0
C1788 C 0.46957 0.01189 0.11572 0.0
C1789 C 0.45911 0.03707 0.12133 0.0
C1790 C 0.56631 0.98836 0.12086 0.0
C1791 C 0.54273 0.95033 0.11863 0.0
C1792 C 0.55561 0.01344 0.11535 0.0
C1793 C 0.521 1.00071 0.1077 0.0
C1794 C 0.50004 0.96321 0.10348 0.0
C1795 C 0.51097 0.9383 0.1088 0.0
H1796 H 0.58932 0.48531 0.10838 0.0
H1797 H 0.6036 0.58698 0.12856 0.0
H1798 H 0.52832 0.46952 0.09813 0.0
H1799 H 0.54285 0.57169 0.11806 0.0
H1800 H 0.41425 0.43888 0.12742 0.0
H1801 H 0.47583 0.45255 0.11903 0.0
H1802 H 0.49347 0.55242 0.09518 0.0
H1803 H 0.43151 0.53807 0.10328 0.0
C1804 C 0.58043 0.50549 0.10964 0.0
C1805 C 0.60136 0.53758 0.11915 0.0
C1806 C 0.54523 0.49614 0.10397 0.0
C1807 C 0.53048 0.51899 0.10751 0.0
C1808 C 0.5535 0.55354 0.11503 0.0
C1809 C 0.58864 0.56267 0.1209 0.0
C1810 C 0.43014 0.46218 0.11933 0.0
C1811 C 0.41818 0.48742 0.11603 0.0
C1812 C 0.46577 0.47042 0.11468 0.0
C1813 C 0.48986 0.50413 0.10679 0.0
C1814 C 0.47576 0.52655 0.10143 0.0
C1815 C 0.44005 0.51801 0.10587 0.0
H1816 H 0.90799 0.43557 0.10768 0.0
H1817 H 0.99413 0.42031 0.12862 0.0
H1818 H 0.95387 0.49714 0.09824 0.0
H1819 H 0.04027 0.48157 0.11885 0.0
H1820 H 0.0369 0.61077 0.12826 0.0
H1821 H 0.98899 0.54905 0.11982 0.0
H1822 H 0.07127 0.53159 0.09605 0.0
H1823 H 0.11886 0.5937 0.10413 0.0
C1824 C 0.93698 0.44445 0.10931 0.0
C1825 C 0.94754 0.42305 0.1188 0.0
C1826 C 0.96319 0.47995 0.10409 0.0
C1827 C 1.00059 0.49449 0.10803 0.0
C1828 C 1.01163 0.47108 0.11553 0.0
C1829 C 0.98524 0.43566 0.12097 0.0
C1830 C 0.04431 0.59488 0.12018 0.0
C1831 C 0.08153 0.60703 0.11683 0.0
C1832 C 0.01694 0.55918 0.11552 0.0
C1833 C 0.02656 0.53513 0.10759 0.0
C1834 C 0.0631 0.54928 0.10231 0.0
C1835 C 0.09026 0.58507 0.10674 0.0
H1836 H 0.03504 0.43607 0.38748 0.0
H1837 H 0.12204 0.53713 0.40834 0.0
H1838 H 0.98961 0.45242 0.39678 0.0
H1839 H 0.07687 0.55376 0.41766 0.0
H1840 H 0.91264 0.48888 0.40652 0.0
H1841 H 0.95707 0.47217 0.41685 0.0
H1842 H 0.04579 0.57327 0.39661 0.0
H1843 H 1.00108 0.58975 0.38631 0.0
C1844 C 0.04419 0.46049 0.39506 0.0
C1845 C 0.08196 0.48534 0.39716 0.0
C1846 C 0.0182 0.4702 0.40028 0.0
C1847 C 0.02978 0.50496 0.4076 0.0
C1848 C 0.06714 0.52712 0.41184 0.0
C1849 C 0.09296 0.51728 0.40672 0.0
C1850 C 0.94182 0.50869 0.40526 0.0
C1851 C 0.9535 0.54068 0.39566 0.0
C1852 C 0.96723 0.49878 0.41096 0.0
C1853 C 1.00486 0.52088 0.40723 0.0
C1854 C 0.01698 0.55557 0.39974 0.0
C1855 C 0.9914 0.56534 0.39395 0.0
H1856 H 0.61475 0.03493 0.38625 0.0
H1857 H 0.59686 0.11639 0.41044 0.0
H1858 H 0.55277 0.98682 0.39417 0.0
H1859 H 0.53463 0.06857 0.41814 0.0
H1860 H 0.43913 0.9053 0.40495 0.0
H1861 H 0.5007 0.95066 0.41458 0.0
H1862 H 0.48437 0.03828 0.3961 0.0
H1863 H 0.42275 0.99259 0.38634 0.0
C1864 C 0.59855 0.04218 0.39423 0.0
C1865 C 0.61056 0.07934 0.39771 0.0
C1866 C 0.56271 0.01468 0.39859 0.0
C1867 C 0.5384 0.02409 0.40643 0.0
C1868 C 0.55243 0.06054 0.4119 0.0
C1869 C 0.58832 0.08782 0.40771 0.0
C1870 C 0.44788 0.93438 0.40383 0.0
C1871 C 0.42612 0.94548 0.39496 0.0
C1872 C 0.48339 0.96032 0.40915 0.0
C1873 C 0.49776 0.99799 0.40583 0.0
C1874 C 0.47409 0.00942 0.39891 0.0
C1875 C 0.43854 0.9833 0.39345 0.0
H1876 H 0.44137 0.41799 0.3864 0.0
H1877 H 0.5413 0.43063 0.40789 0.0
H1878 H 0.45776 0.47967 0.39621 0.0
H1879 H 0.55809 0.49237 0.41748 0.0
H1880 H 0.59197 0.60479 0.38573 0.0
H1881 H 0.57628 0.54322 0.39507 0.0
H1882 H 0.47863 0.53114 0.41888 0.0
H1883 H 0.4953 0.59343 0.41001 0.0
C1884 C 0.46551 0.43288 0.39418 0.0
C1885 C 0.48997 0.41952 0.39643 0.0
C1886 C 0.47522 0.46847 0.39967 0.0
C1887 C 0.50967 0.49117 0.40733 0.0
C1888 C 0.5316 0.47571 0.4115 0.0
C1889 C 0.52167 0.4401 0.4062 0.0
C1890 C 0.56887 0.59027 0.39407 0.0
C1891 C 0.54502 0.60399 0.39722 0.0
C1892 C 0.55942 0.55459 0.39923 0.0
C1893 C 0.52571 0.53201 0.40742 0.0
C1894 C 0.50454 0.54773 0.41248 0.0
C1895 C 0.51444 0.58364 0.4076 0.0
H1896 H 0.53698 0.11194 0.90562 0.0
H1897 H 0.43559 0.02217 0.8864 0.0
H1898 H 0.55472 0.06828 0.91592 0.0
H1899 H 0.4531 0.97817 0.89675 0.0
H1900 H 0.49102 0.90323 0.91004 0.0
H1901 H 0.47449 0.94899 0.9187 0.0
H1902 H 0.57312 0.03451 0.89536 0.0
H1903 H 0.58907 0.98847 0.8865 0.0
C1904 C 0.51729 0.08266 0.9046 0.0
C1905 C 0.48472 0.07039 0.89533 0.0
C1906 C 0.52779 0.05768 0.91028 0.0
C1907 C 0.50575 0.01986 0.90688 0.0
C1908 C 0.47071 1.00717 0.89964 0.0
C1909 C 0.46035 0.03232 0.89384 0.0
C1910 C 0.51037 0.93218 0.9077 0.0
C1911 C 0.54121 0.94236 0.89751 0.0
C1912 C 0.50055 0.95829 0.91245 0.0
C1913 C 0.52193 0.99518 0.90736 0.0
C1914 C 0.55597 1.00626 0.89948 0.0
C1915 C 0.56551 0.97996 0.89456 0.0
H1916 H 0.42219 0.43581 0.88715 0.0
H1917 H 0.43511 0.53716 0.90706 0.0
H1918 H 0.48366 0.45249 0.89734 0.0
H1919 H 0.49669 0.55428 0.917 0.0
H1920 H 0.59673 0.48983 0.9117 0.0
H1921 H 0.53465 0.47429 0.92025 0.0
H1922 H 0.54784 0.571 0.89496 0.0
H1923 H 0.60924 0.58557 0.88595 0.0
C1924 C 0.4371 0.46039 0.89467 0.0
C1925 C 0.42387 0.48509 0.89637 0.0
C1926 C 0.47256 0.47026 0.90038 0.0
C1927 C 0.4953 0.50513 0.9077 0.0
C1928 C 0.47999 0.52745 0.91131 0.0
C1929 C 0.4445 0.51736 0.90579 0.0
C1930 C 0.58724 0.50906 0.90888 0.0
C1931 C 0.6078 0.53893 0.89815 0.0
C1932 C 0.55144 0.4998 0.91358 0.0
C1933 C 0.53607 0.52094 0.908 0.0
C1934 C 0.55894 0.55416 0.8995 0.0
C1935 C 0.59453 0.56298 0.89453 0.0
H1936 H 0.03043 0.60039 0.88668 0.0
H1937 H 0.11716 0.58401 0.90602 0.0
H1938 H 0.98448 0.53901 0.89653 0.0
H1939 H 0.07153 0.52261 0.9157 0.0
H1940 H 0.98738 0.40892 0.88656 0.0
H1941 H 0.03556 0.47075 0.89471 0.0
H1942 H 0.95403 0.4888 0.91887 0.0
H1943 H 0.90615 0.42664 0.91102 0.0
C1944 C 0.03952 0.58469 0.89398 0.0
C1945 C 0.07726 0.59697 0.89565 0.0
C1946 C 0.01326 0.54927 0.89949 0.0
C1947 C 0.02449 0.52563 0.9066 0.0
C1948 C 0.06205 0.53994 0.91012 0.0
C1949 C 0.08814 0.57535 0.90478 0.0
C1950 C 0.98019 0.42502 0.89464 0.0
C1951 C 0.94309 0.41302 0.89815 0.0
C1952 C 1.00772 0.46078 0.89914 0.0
C1953 C 0.99839 0.48501 0.9071 0.0
C1954 C 0.96198 0.47101 0.91256 0.0
C1955 C 0.93467 0.43519 0.90826 0.0
H1956 H 0.98561 0.57733 0.62752 0.0
H1957 H 0.90235 0.47831 0.60367 0.0
H1958 H 0.03283 0.56272 0.61893 0.0
H1959 H 0.94923 0.46296 0.5955 0.0
H1960 H 0.11253 0.52877 0.60604 0.0
H1961 H 0.06661 0.54455 0.59672 0.0
H1962 H 0.98062 0.44425 0.61871 0.0
H1963 H 0.02688 0.42913 0.62843 0.0
C1964 C 0.97775 0.55384 0.61947 0.0
C1965 C 0.94036 0.52899 0.61626 0.0
C1966 C 1.00472 0.54505 0.61474 0.0
C1967 C 0.99455 0.51116 0.60686 0.0
C1968 C 0.95783 0.48899 0.6017 0.0
C1969 C 0.93109 0.49812 0.60618 0.0
C1970 C 0.08356 0.50899 0.60802 0.0
C1971 C 0.07321 0.47774 0.618 0.0
C1972 C 0.05735 0.51835 0.60286 0.0
C1973 C 0.02015 0.49608 0.60726 0.0
C1974 C 1.00914 0.46198 0.6151 0.0
C1975 C 0.03555 0.45295 0.62051 0.0
H1976 H 0.60033 0.01773 0.62838 0.0
H1977 H 0.59091 0.10764 0.60778 0.0
H1978 H 0.53849 0.97408 0.61826 0.0
H1979 H 0.52911 0.06431 0.59773 0.0
H1980 H 0.42468 0.90043 0.60602 0.0
H1981 H 0.48685 0.94448 0.59651 0.0
H1982 H 0.47779 0.03302 0.6192 0.0
H1983 H 0.41599 0.98868 0.62895 0.0
C1984 C 0.58613 0.02791 0.62068 0.0
C1985 C 0.60044 0.06599 0.61882 0.0
C1986 C 0.55043 1.00296 0.615 0.0
C1987 C 0.52857 0.01589 0.6075 0.0
C1988 C 0.54507 0.05355 0.6036 0.0
C1989 C 0.58078 0.07832 0.60913 0.0
C1990 C 0.4351 0.92964 0.60802 0.0
C1991 C 0.41567 0.94121 0.61828 0.0
C1992 C 0.47095 0.95478 0.60279 0.0
C1993 C 0.48759 0.99206 0.60743 0.0
C1994 C 0.46579 1.00445 0.6154 0.0
C1995 C 0.43007 0.97912 0.62085 0.0
H1996 H 0.4353 0.40658 0.6289 0.0
H1997 H 0.53526 0.42327 0.60587 0.0
H1998 H 0.4498 0.46841 0.62033 0.0
H1999 H 0.55042 0.48546 0.59762 0.0
H2000 H 0.48265 0.58157 0.60816 0.0
H2001 H 0.46715 0.51994 0.59892 0.0
H2002 H 0.56918 0.53611 0.61978 0.0
H2003 H 0.5843 0.5977 0.62923 0.0
C2004 C 0.45903 0.42245 0.62103 0.0
C2005 C 0.48409 0.41014 0.61803 0.0
C2006 C 0.46775 0.45821 0.6163 0.0
C2007 C 0.50179 0.48217 0.60862 0.0
C2008 C 0.52429 0.46788 0.60369 0.0
C2009 C 0.51529 0.43203 0.60821 0.0
C2010 C 0.50282 0.5728 0.60989 0.0
C2011 C 0.53473 0.5944 0.6194 0.0
C2012 C 0.49363 0.53726 0.60479 0.0
C2013 C 0.5165 0.52284 0.60891 0.0
C2014 C 0.55097 0.54646 0.61638 0.0
C2015 C 0.55996 0.582 0.62165 0.0
H2016 H 0.725 0.25205 0.1265 0.0
H2017 H 0.74321 0.27308 0.17889 0.0
H2018 H 0.65955 0.22823 0.1304 0.0
H2019 H 0.67684 0.24916 0.18281 0.0
H2020 H 0.55206 0.14425 0.17766 0.0
H2021 H 0.61896 0.1857 0.17991 0.0
H2022 H 0.61541 0.24731 0.13788 0.0
H2023 H 0.54953 0.2052 0.13532 0.0
C2024 C 0.71506 0.25196 0.13886 0.0
C2025 C 0.73926 0.26425 0.15239 0.0
C2026 C 0.67749 0.23863 0.14109 0.0
C2027 C 0.66303 0.23716 0.15691 0.0
C2028 C 0.68724 0.25001 0.17048 0.0
C2029 C 0.72515 0.26374 0.16822 0.0
C2030 C 0.5654 0.16805 0.16959 0.0
C2031 C 0.5454 0.1726 0.15677 0.0
C2032 C 0.6037 0.19164 0.17078 0.0
C2033 C 0.62242 0.21961 0.15897 0.0
C2034 C 0.60174 0.22607 0.14716 0.0
C2035 C 0.56376 0.20251 0.14594 0.0
H2036 H 0.34767 0.55289 0.13501 0.0
H2037 H 0.41955 0.55611 0.17385 0.0
H2038 H 0.36777 0.61768 0.1396 0.0
H2039 H 0.44211 0.62199 0.17774 0.0
H2040 H 0.48189 0.74429 0.17926 0.0
H2041 H 0.43735 0.6784 0.18309 0.0
H2042 H 0.42865 0.66391 0.13012 0.0
H2043 H 0.47244 0.72901 0.12636 0.0
C2044 C 0.36586 0.56688 0.14533 0.0
C2045 C 0.38087 0.54919 0.15456 0.0
C2046 C 0.37821 0.60431 0.14767 0.0
C2047 C 0.40714 0.62517 0.15877 0.0
C2048 C 0.4196 0.60668 0.16917 0.0
C2049 C 0.40664 0.56891 0.16701 0.0
C2050 C 0.46988 0.72701 0.16848 0.0
C2051 C 0.48098 0.74164 0.15251 0.0
C2052 C 0.44445 0.68936 0.17067 0.0
C2053 C 0.42931 0.66594 0.15693 0.0
C2054 C 0.43917 0.68119 0.141 0.0
C2055 C 0.46472 0.71852 0.13882 0.0
H2056 H 0.74559 0.45938 0.12568 0.0
H2057 H 0.7438 0.47374 0.17843 0.0
H2058 H 0.7709 0.41907 0.12989 0.0
H2059 H 0.76874 0.43245 0.18273 0.0
H2060 H 0.81159 0.34566 0.13622 0.0
H2061 H 0.76399 0.3622 0.13971 0.0
H2062 H 0.82972 0.44002 0.17778 0.0
H2063 H 0.87584 0.42085 0.17506 0.0
C2064 C 0.74994 0.45334 0.13822 0.0
C2065 C 0.74328 0.47028 0.15169 0.0
C2066 C 0.7641 0.42978 0.14067 0.0
C2067 C 0.77196 0.42247 0.15668 0.0
C2068 C 0.76332 0.43777 0.17024 0.0
C2069 C 0.74897 0.46134 0.16777 0.0
C2070 C 0.8143 0.36391 0.14628 0.0
C2071 C 0.84653 0.3807 0.15589 0.0
C2072 C 0.78756 0.37432 0.14796 0.0
C2073 C 0.79336 0.40304 0.15877 0.0
C2074 C 0.82412 0.41758 0.16942 0.0
C2075 C 0.85057 0.40657 0.16793 0.0
H2076 H 0.2853 0.75376 0.17927 0.0
H2077 H 0.30258 0.7671 0.12656 0.0
H2078 H 0.35148 0.77704 0.18336 0.0
H2079 H 0.36798 0.79023 0.13059 0.0
H2080 H 0.47913 0.81828 0.13634 0.0
H2081 H 0.41385 0.77406 0.13956 0.0
H2082 H 0.40801 0.83987 0.17928 0.0
H2083 H 0.47442 0.8828 0.17669 0.0
C2084 C 0.30311 0.76118 0.16857 0.0
C2085 C 0.28886 0.75898 0.15259 0.0
C2086 C 0.34092 0.77451 0.17092 0.0
C2087 C 0.36493 0.78524 0.15731 0.0
C2088 C 0.35022 0.78157 0.14134 0.0
C2089 C 0.31271 0.7687 0.13902 0.0
C2090 C 0.46463 0.82155 0.14668 0.0
C2091 C 0.48218 0.85295 0.15679 0.0
C2092 C 0.42692 0.7968 0.14823 0.0
C2093 C 0.40563 0.80384 0.15946 0.0
C2094 C 0.4237 0.83349 0.17059 0.0
C2095 C 0.46174 0.85802 0.16919 0.0
H2096 H 0.62335 0.47657 0.18049 0.0
H2097 H 0.6554 0.46781 0.13096 0.0
H2098 H 0.60546 0.41194 0.18559 0.0
H2099 H 0.6357 0.40381 0.13521 0.0
H2100 H 0.58909 0.28736 0.13939 0.0
H2101 H 0.63255 0.35236 0.14417 0.0
H2102 H 0.55654 0.35599 0.17943 0.0
H2103 H 0.51605 0.28977 0.17615 0.0
C2104 C 0.62767 0.46103 0.17092 0.0
C2105 C 0.64131 0.47702 0.15547 0.0
C2106 C 0.61683 0.4238 0.17366 0.0
C2107 C 0.61818 0.40175 0.16075 0.0
C2108 C 0.6345 0.41917 0.1457 0.0
C2109 C 0.64588 0.45621 0.14315 0.0
C2110 C 0.5826 0.30197 0.14861 0.0
C2111 C 0.5494 0.28386 0.15738 0.0
C2112 C 0.60715 0.33951 0.15119 0.0
C2113 C 0.5978 0.36041 0.16175 0.0
C2114 C 0.56531 0.3414 0.17126 0.0
C2115 C 0.54169 0.30336 0.16928 0.0
H2116 H 0.21878 0.67889 0.13548 0.0
H2117 H 0.14975 0.60755 0.17434 0.0
H2118 H 0.26296 0.65818 0.14014 0.0
H2119 H 0.19277 0.58476 0.17842 0.0
H2120 H 0.27506 0.54464 0.18007 0.0
H2121 H 0.2547 0.58997 0.18374 0.0
H2122 H 0.24586 0.59575 0.13079 0.0
H2123 H 0.266 0.551 0.12717 0.0
C2124 C 0.21442 0.66073 0.14583 0.0
C2125 C 0.18166 0.64585 0.15498 0.0
C2126 C 0.23925 0.64811 0.14823 0.0
C2127 C 0.23094 0.61928 0.1594 0.0
C2128 C 0.20009 0.60717 0.1698 0.0
C2129 C 0.17548 0.62027 0.16752 0.0
C2130 C 0.26924 0.5561 0.16924 0.0
C2131 C 0.27156 0.54393 0.15333 0.0
C2132 C 0.25767 0.58202 0.17136 0.0
C2133 C 0.24892 0.59661 0.15757 0.0
C2134 C 0.25303 0.58562 0.14167 0.0
C2135 C 0.2641 0.55953 0.13959 0.0
H2136 H 0.82335 0.4755 0.37901 0.0
H2137 H 0.88475 0.4735 0.3368 0.0
H2138 H 0.78089 0.40978 0.37611 0.0
H2139 H 0.84315 0.40664 0.33432 0.0
H2140 H 0.75607 0.28228 0.33524 0.0
H2141 H 0.7794 0.34859 0.33132 0.0
H2142 H 0.80077 0.36598 0.3837 0.0
H2143 H 0.77762 0.30057 0.38759 0.0
C2144 C 0.82605 0.46148 0.36832 0.0
C2145 C 0.85619 0.47993 0.35763 0.0
C2146 C 0.80231 0.42356 0.36693 0.0
C2147 C 0.80894 0.403 0.35513 0.0
C2148 C 0.83711 0.42183 0.34344 0.0
C2149 C 0.86081 0.4601 0.34477 0.0
C2150 C 0.76539 0.30035 0.3459 0.0
C2151 C 0.76526 0.28631 0.36172 0.0
C2152 C 0.77876 0.33821 0.34364 0.0
C2153 C 0.79157 0.36242 0.3572 0.0
C2154 C 0.79041 0.34801 0.37302 0.0
C2155 C 0.77747 0.31049 0.37525 0.0
H2156 H 0.51114 0.78595 0.34047 0.0
H2157 H 0.43877 0.71192 0.37776 0.0
H2158 H 0.47013 0.81035 0.33641 0.0
H2159 H 0.39413 0.73111 0.372 0.0
H2160 H 0.35889 0.81565 0.38144 0.0
H2161 H 0.38049 0.77281 0.37812 0.0
H2162 H 0.42514 0.82023 0.33009 0.0
H2163 H 0.40672 0.86628 0.33483 0.0
C2164 C 0.48551 0.77397 0.34735 0.0
C2165 C 0.47812 0.74743 0.35952 0.0
C2166 C 0.46139 0.78757 0.3449 0.0
C2167 C 0.42839 0.77375 0.35413 0.0
C2168 C 0.41972 0.74433 0.36517 0.0
C2169 C 0.44496 0.73244 0.36829 0.0
C2170 C 0.37225 0.81597 0.36993 0.0
C2171 C 0.3813 0.84416 0.35842 0.0
C2172 C 0.38496 0.79116 0.36791 0.0
C2173 C 0.40637 0.79328 0.35404 0.0
C2174 C 0.41073 0.81855 0.34141 0.0
C2175 C 0.39929 0.8445 0.34383 0.0
H2176 H 0.74176 0.43759 0.37838 0.0
H2177 H 0.73749 0.50762 0.3405 0.0
H2178 H 0.67713 0.39266 0.37368 0.0
H2179 H 0.67162 0.46568 0.3372 0.0
H2180 H 0.55183 0.39663 0.33548 0.0
H2181 H 0.61688 0.41592 0.33099 0.0
H2182 H 0.62396 0.38637 0.38165 0.0
H2183 H 0.5595 0.36507 0.38527 0.0
C2184 C 0.72676 0.4432 0.369 0.0
C2185 C 0.74428 0.47595 0.35986 0.0
C2186 C 0.68943 0.41775 0.36644 0.0
C2187 C 0.66807 0.42567 0.35545 0.0
C2188 C 0.68651 0.45788 0.34569 0.0
C2189 C 0.72436 0.48239 0.34769 0.0
C2190 C 0.56723 0.39264 0.34523 0.0
C2191 C 0.55078 0.37882 0.36059 0.0
C2192 C 0.60475 0.4044 0.34286 0.0
C2193 C 0.62668 0.40394 0.35606 0.0
C2194 C 0.60882 0.3871 0.37097 0.0
C2195 C 0.57146 0.37471 0.37315 0.0
H2196 H 0.21332 0.5579 0.37719 0.0
H2197 H 0.14392 0.53593 0.3345 0.0
H2198 H 0.25042 0.62215 0.36907 0.0
H2199 H 0.1814 0.60051 0.326 0.0
H2200 H 0.19764 0.715 0.34131 0.0
H2201 H 0.17879 0.65022 0.33921 0.0
H2202 H 0.2892 0.67513 0.35214 0.0
H2203 H 0.30802 0.74062 0.35459 0.0
C2204 C 0.20765 0.56635 0.36541 0.0
C2205 C 0.17634 0.54188 0.35626 0.0
C2206 C 0.22871 0.60341 0.3608 0.0
C2207 C 0.21844 0.61682 0.34706 0.0
C2208 C 0.18962 0.59125 0.33685 0.0
C2209 C 0.16848 0.55413 0.34153 0.0
C2210 C 0.21813 0.70687 0.34352 0.0
C2211 C 0.25417 0.73295 0.34841 0.0
C2212 C 0.20741 0.66959 0.34208 0.0
C2213 C 0.23244 0.65724 0.34547 0.0
C2214 C 0.26913 0.68362 0.34956 0.0
C2215 C 0.27992 0.72114 0.35096 0.0
H2216 H 0.60913 0.14865 0.34148 0.0
H2217 H 0.68562 0.21768 0.37898 0.0
H2218 H 0.58862 0.19351 0.3378 0.0
H2219 H 0.66767 0.26404 0.3745 0.0
H2220 H 0.56869 0.27942 0.38863 0.0
H2221 H 0.61071 0.25612 0.38463 0.0
H2222 H 0.59382 0.25311 0.33186 0.0
H2223 H 0.55079 0.27599 0.33596 0.0
C2224 C 0.62339 0.17468 0.34807 0.0
C2225 C 0.64992 0.1804 0.36007 0.0
C2226 C 0.61162 0.20042 0.34602 0.0
C2227 C 0.62608 0.23215 0.35607 0.0
C2228 C 0.65559 0.23967 0.36673 0.0
C2229 C 0.66674 0.21361 0.36898 0.0
C2230 C 0.57428 0.27433 0.37614 0.0
C2231 C 0.55587 0.27887 0.36265 0.0
C2232 C 0.59884 0.26137 0.3738 0.0
C2233 C 0.6057 0.25265 0.35789 0.0
C2234 C 0.5889 0.25925 0.34427 0.0
C2235 C 0.56431 0.2724 0.34663 0.0
H2236 H 0.47727 0.66857 0.38109 0.0
H2237 H 0.47246 0.60207 0.33956 0.0
H2238 H 0.41188 0.64696 0.37826 0.0
H2239 H 0.406 0.57868 0.33707 0.0
H2240 H 0.28381 0.54417 0.33662 0.0
H2241 H 0.3505 0.58483 0.33313 0.0
H2242 H 0.36442 0.58751 0.38611 0.0
H2243 H 0.29855 0.54809 0.38955 0.0
C2244 C 0.46267 0.65131 0.3706 0.0
C2245 C 0.48023 0.63843 0.36003 0.0
C2246 C 0.42493 0.63813 0.36923 0.0
C2247 C 0.40363 0.61086 0.35756 0.0
C2248 C 0.42168 0.60004 0.34608 0.0
C2249 C 0.45974 0.61354 0.34741 0.0
C2250 C 0.30119 0.55402 0.3475 0.0
C2251 C 0.28598 0.54276 0.36337 0.0
C2252 C 0.33934 0.57715 0.34548 0.0
C2253 C 0.36281 0.58961 0.35931 0.0
C2254 C 0.34721 0.57919 0.37516 0.0
C2255 C 0.30933 0.55619 0.37716 0.0
H2256 H 0.47615 0.80756 0.87842 0.0
H2257 H 0.47137 0.87576 0.83979 0.0
H2258 H 0.41118 0.76289 0.87438 0.0
H2259 H 0.4053 0.83244 0.83646 0.0
H2260 H 0.28293 0.74846 0.83557 0.0
H2261 H 0.3489 0.77094 0.83134 0.0
H2262 H 0.36497 0.77712 0.88421 0.0
H2263 H 0.29984 0.75473 0.88837 0.0
C2264 C 0.46175 0.81164 0.86824 0.0
C2265 C 0.47912 0.8442 0.8589 0.0
C2266 C 0.42421 0.78659 0.86623 0.0
C2267 C 0.4029 0.7945 0.85534 0.0
C2268 C 0.42096 0.82536 0.84487 0.0
C2269 C 0.45883 0.85014 0.8467 0.0
C2270 C 0.30059 0.7541 0.84624 0.0
C2271 C 0.28635 0.75029 0.86231 0.0
C2272 C 0.33829 0.76697 0.84382 0.0
C2273 C 0.36217 0.77563 0.85742 0.0
C2274 C 0.34736 0.77009 0.87343 0.0
C2275 C 0.30999 0.75766 0.87584 0.0
H2276 H 0.62738 0.47288 0.83704 0.0
H2277 H 0.65476 0.46178 0.88718 0.0
H2278 H 0.60904 0.40816 0.83172 0.0
H2279 H 0.6347 0.39772 0.88263 0.0
H2280 H 0.58756 0.28156 0.8778 0.0
H2281 H 0.6321 0.34646 0.87344 0.0
H2282 H 0.55859 0.35244 0.8374 0.0
H2283 H 0.51692 0.2863 0.84032 0.0
C2284 C 0.63054 0.45677 0.84672 0.0
C2285 C 0.64276 0.47201 0.86243 0.0
C2286 C 0.6195 0.41955 0.84383 0.0
C2287 C 0.61943 0.39688 0.8568 0.0
C2288 C 0.63457 0.4136 0.87213 0.0
C2289 C 0.64606 0.4506 0.87485 0.0
C2290 C 0.58182 0.29666 0.86853 0.0
C2291 C 0.54894 0.27927 0.85945 0.0
C2292 C 0.60702 0.3341 0.86617 0.0
C2293 C 0.59865 0.35561 0.85552 0.0
C2294 C 0.56655 0.33731 0.84567 0.0
C2295 C 0.54227 0.29934 0.84744 0.0
H2296 H 0.2114 0.67075 0.87853 0.0
H2297 H 0.14745 0.60052 0.83827 0.0
H2298 H 0.25693 0.65152 0.87503 0.0
H2299 H 0.1915 0.57859 0.83551 0.0
H2300 H 0.27603 0.54115 0.83575 0.0
H2301 H 0.25341 0.58449 0.83144 0.0
H2302 H 0.24268 0.59078 0.88424 0.0
H2303 H 0.2653 0.54823 0.88849 0.0
C2304 C 0.2085 0.65318 0.86814 0.0
C2305 C 0.17686 0.63846 0.85817 0.0
C2306 C 0.23401 0.64124 0.86644 0.0
C2307 C 0.22742 0.61293 0.85524 0.0
C2308 C 0.19757 0.60065 0.84418 0.0
C2309 C 0.17236 0.61325 0.8457 0.0
C2310 C 0.26936 0.55235 0.84641 0.0
C2311 C 0.27199 0.54097 0.86246 0.0
C2312 C 0.25641 0.5771 0.84393 0.0
C2313 C 0.24643 0.59125 0.85747 0.0
C2314 C 0.25077 0.58104 0.87351 0.0
C2315 C 0.26332 0.55621 0.87597 0.0
H2316 H 0.72267 0.24333 0.88767 0.0
H2317 H 0.74142 0.26783 0.83556 0.0
H2318 H 0.65738 0.22058 0.88376 0.0
H2319 H 0.67522 0.24495 0.83163 0.0
H2320 H 0.54978 0.14008 0.83627 0.0
H2321 H 0.61671 0.18129 0.83399 0.0
H2322 H 0.61424 0.2416 0.87674 0.0
H2323 H 0.54844 0.19958 0.87939 0.0
C2324 C 0.71288 0.24419 0.87538 0.0
C2325 C 0.73716 0.25715 0.86192 0.0
C2326 C 0.67543 0.2315 0.87315 0.0
C2327 C 0.66119 0.23135 0.85739 0.0
C2328 C 0.68548 0.24482 0.8439 0.0
C2329 C 0.72327 0.25793 0.84617 0.0
C2330 C 0.56335 0.16359 0.84451 0.0
C2331 C 0.54368 0.16775 0.85756 0.0
C2332 C 0.60166 0.18704 0.84329 0.0
C2333 C 0.62068 0.21448 0.8553 0.0
C2334 C 0.60031 0.22074 0.86732 0.0
C2335 C 0.56235 0.19727 0.86858 0.0
H2336 H 0.35193 0.54618 0.87862 0.0
H2337 H 0.42062 0.55067 0.83813 0.0
H2338 H 0.37197 0.61116 0.87491 0.0
H2339 H 0.44311 0.61677 0.83506 0.0
H2340 H 0.47724 0.72248 0.88753 0.0
H2341 H 0.434 0.65722 0.8837 0.0
H2342 H 0.43702 0.67315 0.83088 0.0
H2343 H 0.48093 0.7392 0.83477 0.0
C2344 C 0.36931 0.56051 0.86815 0.0
C2345 C 0.38343 0.54306 0.85818 0.0
C2346 C 0.38167 0.59805 0.86631 0.0
C2347 C 0.40969 0.61927 0.85492 0.0
C2348 C 0.42129 0.60115 0.84386 0.0
C2349 C 0.40835 0.56327 0.84555 0.0
C2350 C 0.46841 0.71226 0.8751 0.0
C2351 C 0.48283 0.73587 0.86145 0.0
C2352 C 0.4432 0.67484 0.87289 0.0
C2353 C 0.43185 0.65999 0.85696 0.0
C2354 C 0.44528 0.68382 0.84329 0.0
C2355 C 0.47035 0.72155 0.84553 0.0
H2356 H 0.7429 0.45412 0.88959 0.0
H2357 H 0.74192 0.46737 0.83672 0.0
H2358 H 0.76602 0.41181 0.88584 0.0
H2359 H 0.76471 0.4242 0.8329 0.0
H2360 H 0.87101 0.41153 0.84199 0.0
H2361 H 0.8254 0.43109 0.83844 0.0
H2362 H 0.75755 0.35381 0.87618 0.0
H2363 H 0.80451 0.33649 0.88037 0.0
C2364 C 0.74698 0.44744 0.87713 0.0
C2365 C 0.74129 0.46466 0.86348 0.0
C2366 C 0.75983 0.42273 0.87494 0.0
C2367 C 0.76735 0.4146 0.85903 0.0
C2368 C 0.75951 0.43013 0.84531 0.0
C2369 C 0.74643 0.45481 0.84751 0.0
C2370 C 0.84537 0.39737 0.84883 0.0
C2371 C 0.8406 0.3716 0.86104 0.0
C2372 C 0.81921 0.40862 0.84687 0.0
C2373 C 0.78807 0.39444 0.85723 0.0
C2374 C 0.78147 0.36564 0.86816 0.0
C2375 C 0.80788 0.35491 0.87027 0.0
H2376 H 0.19734 0.54996 0.62891 0.0
H2377 H 0.15973 0.54062 0.67907 0.0
H2378 H 0.24158 0.61401 0.63305 0.0
H2379 H 0.20662 0.60524 0.68405 0.0
H2380 H 0.23683 0.72677 0.67562 0.0
H2381 H 0.21247 0.66073 0.67857 0.0
H2382 H 0.28947 0.66619 0.64135 0.0
H2383 H 0.30932 0.7309 0.63694 0.0
C2384 C 0.20014 0.56148 0.64118 0.0
C2385 C 0.1755 0.54058 0.6537 0.0
C2386 C 0.22581 0.59855 0.64367 0.0
C2387 C 0.22769 0.61583 0.65888 0.0
C2388 C 0.20537 0.59355 0.67199 0.0
C2389 C 0.17892 0.55631 0.66932 0.0
C2390 C 0.24854 0.71359 0.66821 0.0
C2391 C 0.27444 0.7335 0.6559 0.0
C2392 C 0.23495 0.67566 0.67 0.0
C2393 C 0.24807 0.65718 0.65989 0.0
C2394 C 0.27714 0.67855 0.64885 0.0
C2395 C 0.28916 0.71594 0.64646 0.0
H2396 H 0.54376 0.2495 0.62741 0.0
H2397 H 0.53907 0.26138 0.6802 0.0
H2398 H 0.58602 0.22638 0.63129 0.0
H2399 H 0.58206 0.23814 0.68413 0.0
H2400 H 0.6687 0.19781 0.63665 0.0
H2401 H 0.64764 0.24197 0.6401 0.0
H2402 H 0.57652 0.17594 0.67988 0.0
H2403 H 0.60015 0.13319 0.67711 0.0
C2404 C 0.55214 0.24759 0.63987 0.0
C2405 C 0.53777 0.25689 0.6535 0.0
C2406 C 0.57679 0.23472 0.6421 0.0
C2407 C 0.58767 0.23064 0.65804 0.0
C2408 C 0.57417 0.24096 0.67171 0.0
C2409 C 0.54963 0.25428 0.66945 0.0
C2410 C 0.65109 0.19451 0.64706 0.0
C2411 C 0.63749 0.16312 0.65714 0.0
C2412 C 0.63809 0.2192 0.64873 0.0
C2413 C 0.60986 0.21208 0.66005 0.0
C2414 C 0.5985 0.18241 0.67114 0.0
C2415 C 0.61211 0.15798 0.66962 0.0
H2416 H 0.47505 0.67104 0.63591 0.0
H2417 H 0.46451 0.59741 0.67536 0.0
H2418 H 0.4106 0.65377 0.63906 0.0
H2419 H 0.39903 0.57765 0.67782 0.0
H2420 H 0.27913 0.54348 0.67821 0.0
H2421 H 0.34535 0.58504 0.68241 0.0
H2422 H 0.36082 0.59621 0.62953 0.0
H2423 H 0.29515 0.55557 0.6254 0.0
C2424 C 0.4595 0.65298 0.64601 0.0
C2425 C 0.47515 0.63683 0.65589 0.0
C2426 C 0.42221 0.64217 0.64751 0.0
C2427 C 0.39937 0.61372 0.65845 0.0
C2428 C 0.41578 0.59986 0.66936 0.0
C2429 C 0.45336 0.61123 0.66802 0.0
C2430 C 0.29667 0.55541 0.66751 0.0
C2431 C 0.282 0.54578 0.65146 0.0
C2432 C 0.3346 0.57915 0.66993 0.0
C2433 C 0.35852 0.59394 0.65633 0.0
C2434 C 0.34331 0.58589 0.64033 0.0
C2435 C 0.30558 0.56215 0.63793 0.0
H2436 H 0.7522 0.28756 0.62599 0.0
H2437 H 0.74548 0.27219 0.67889 0.0
H2438 H 0.77377 0.3527 0.62976 0.0
H2439 H 0.76706 0.33811 0.68272 0.0
H2440 H 0.80462 0.46401 0.63473 0.0
H2441 H 0.75955 0.39925 0.63911 0.0
H2442 H 0.82844 0.39419 0.67761 0.0
H2443 H 0.87214 0.46005 0.67393 0.0
C2444 C 0.75481 0.29804 0.63845 0.0
C2445 C 0.74766 0.27488 0.65213 0.0
C2446 C 0.76674 0.33539 0.64063 0.0
C2447 C 0.77197 0.35063 0.65657 0.0
C2448 C 0.76334 0.32716 0.67031 0.0
C2449 C 0.751 0.2895 0.6681 0.0
C2450 C 0.8085 0.44984 0.64506 0.0
C2451 C 0.84096 0.46732 0.65447 0.0
C2452 C 0.78319 0.41244 0.64729 0.0
C2453 C 0.79082 0.3914 0.65845 0.0
C2454 C 0.82157 0.40966 0.669 0.0
C2455 C 0.84659 0.4474 0.66695 0.0
H2456 H 0.47927 0.74436 0.67891 0.0
H2457 H 0.48077 0.76353 0.62641 0.0
H2458 H 0.43662 0.76805 0.68277 0.0
H2459 H 0.439 0.78716 0.63024 0.0
H2460 H 0.35265 0.81067 0.63497 0.0
H2461 H 0.37608 0.76837 0.63787 0.0
H2462 H 0.44187 0.83118 0.67957 0.0
H2463 H 0.41654 0.87267 0.67706 0.0
C2464 C 0.47021 0.75323 0.66821 0.0
C2465 C 0.48351 0.75229 0.65236 0.0
C2466 C 0.44592 0.76683 0.67043 0.0
C2467 C 0.43416 0.77913 0.65681 0.0
C2468 C 0.44684 0.77719 0.64097 0.0
C2469 C 0.47116 0.76397 0.63878 0.0
C2470 C 0.36958 0.81357 0.64562 0.0
C2471 C 0.38132 0.84379 0.65629 0.0
C2472 C 0.38383 0.78991 0.64702 0.0
C2473 C 0.41111 0.79668 0.65881 0.0
C2474 C 0.42057 0.82501 0.67046 0.0
C2475 C 0.40594 0.84863 0.66911 0.0
H2476 H 0.55094 0.40786 0.67565 0.0
H2477 H 0.5471 0.33677 0.63631 0.0
H2478 H 0.61682 0.43038 0.67927 0.0
H2479 H 0.61205 0.35712 0.64053 0.0
H2480 H 0.72204 0.46411 0.62717 0.0
H2481 H 0.65724 0.41942 0.63114 0.0
H2482 H 0.67363 0.42514 0.68398 0.0
H2483 H 0.73921 0.47042 0.67996 0.0
C2484 C 0.56362 0.39508 0.66864 0.0
C2485 C 0.54375 0.36967 0.65609 0.0
C2486 C 0.60138 0.40803 0.67064 0.0
C2487 C 0.6197 0.39593 0.65998 0.0
C2488 C 0.59873 0.3672 0.64882 0.0
C2489 C 0.56124 0.35475 0.64668 0.0
C2490 C 0.71202 0.45557 0.63964 0.0
C2491 C 0.73555 0.47116 0.65325 0.0
C2492 C 0.67491 0.42951 0.64192 0.0
C2493 C 0.66032 0.41853 0.6579 0.0
C2494 C 0.68414 0.43308 0.67155 0.0
C2495 C 0.72157 0.45897 0.66923 0.0
loop_
_geom_bond_atom_site_label_1
_geom_bond_atom_site_label_2
_geom_bond_distance
_geom_bond_site_symmetry_2
_ccdc_geom_bond_type
Zn0 N4 2.020 . S
Zn0 O8 2.019 . S
Zn0 N10 2.119 . S
Zn0 O18 1.975 . S
C1 N2 1.334 . S
C1 N5 1.336 . S
N2 C1 1.334 . S
N2 C3 1.334 . S
C3 N2 1.334 . S
C3 N4 1.336 . S
N4 Zn0 2.020 . S
N4 C3 1.336 . S
N4 N5 1.354 . S
N5 C1 1.336 . S
N5 N4 1.354 . S
N5 Zn9 2.020 . S
C6 O7 1.244 . S
C6 O30 1.257 . S
O7 C6 1.244 . S
O8 Zn0 2.019 . S
O8 C28 1.257 . S
Zn9 N5 2.020 . S
Zn9 O16 1.975 . S
Zn9 N25 2.119 . S
Zn9 O30 2.019 . S
N10 Zn0 2.119 . S
N10 C12 1.334 . S
N10 C13 1.328 . S
C11 C12 1.391 . S
C11 N14 1.329 . S
C11 H32 0.930 . S
C12 N10 1.334 . S
C12 C11 1.391 . S
C12 H19 0.930 . S
C13 N10 1.328 . S
C13 C15 1.392 . S
C13 H20 0.930 . S
N14 C11 1.329 . S
N14 C15 1.331 . S
C15 C13 1.392 . S
C15 N14 1.331 . S
O16 Zn9 1.975 . S
O16 C17 1.252 . S
C17 O16 1.252 . S
C17 O18 1.252 . S
O18 Zn0 1.975 . S
O18 C17 1.252 . S
H19 C12 0.930 . S
H20 C13 0.930 . S
C21 C22 1.392 . S
C21 N25 1.328 . S
C21 H27 0.930 . S
C22 C21 1.392 . S
C22 N26 1.331 . S
C23 C24 1.391 . S
C23 N26 1.329 . S
C23 H33 0.930 . S
C24 C23 1.391 . S
C24 N25 1.334 . S
C24 H31 0.930 . S
N25 Zn9 2.119 . S
N25 C21 1.328 . S
N25 C24 1.334 . S
N26 C22 1.331 . S
N26 C23 1.329 . S
H27 C21 0.930 . S
C28 O8 1.257 . S
C28 O29 1.244 . S
O29 C28 1.244 . S
O30 C6 1.257 . S
O30 Zn9 2.019 . S
H31 C24 0.930 . S
H32 C11 0.930 . S
H33 C23 0.930 . S
Zn34 N38 2.020 . S
Zn34 O42 2.019 . S
Zn34 N44 2.119 . S
Zn34 O52 1.975 . S
C35 N36 1.334 . S
C35 N39 1.336 . S
N36 C35 1.334 . S
N36 C37 1.334 . S
C37 N36 1.334 . S
C37 N38 1.336 . S
N38 Zn34 2.020 . S
N38 C37 1.336 . S
N38 N39 1.354 . S
N39 C35 1.336 . S
N39 N38 1.354 . S
N39 Zn43 2.020 . S
C40 O41 1.244 . S
C40 O64 1.257 . S
O41 C40 1.244 . S
O42 Zn34 2.019 . S
O42 C62 1.257 . S
Zn43 N39 2.020 . S
Zn43 O50 1.975 . S
Zn43 N59 2.119 . S
Zn43 O64 2.019 . S
N44 Zn34 2.119 . S
N44 C46 1.334 . S
N44 C47 1.328 . S
C45 C46 1.391 . S
C45 N48 1.329 . S
C45 H66 0.930 . S
C46 N44 1.334 . S
C46 C45 1.391 . S
C46 H53 0.930 . S
C47 N44 1.328 . S
C47 C49 1.392 . S
C47 H54 0.930 . S
N48 C45 1.329 . S
N48 C49 1.331 . S
C49 C47 1.392 . S
C49 N48 1.331 . S
O50 Zn43 1.975 . S
O50 C51 1.252 . S
C51 O50 1.252 . S
C51 O52 1.252 . S
O52 Zn34 1.975 . S
O52 C51 1.252 . S
H53 C46 0.930 . S
H54 C47 0.930 . S
C55 C56 1.392 . S
C55 N59 1.328 . S
C55 H61 0.930 . S
C56 C55 1.392 . S
C56 N60 1.331 . S
C57 C58 1.391 . S
C57 N60 1.329 . S
C57 H67 0.930 . S
C58 C57 1.391 . S
C58 N59 1.334 . S
C58 H65 0.930 . S
N59 Zn43 2.119 . S
N59 C55 1.328 . S
N59 C58 1.334 . S
N60 C56 1.331 . S
N60 C57 1.329 . S
H61 C55 0.930 . S
C62 O42 1.257 . S
C62 O63 1.244 . S
O63 C62 1.244 . S
O64 C40 1.257 . S
O64 Zn43 2.019 . S
H65 C58 0.930 . S
H66 C45 0.930 . S
H67 C57 0.930 . S
Zn68 N72 2.020 . S
Zn68 O76 2.019 . S
Zn68 N78 2.119 . S
Zn68 O86 1.975 . S
C69 N70 1.334 . S
C69 N73 1.336 . S
N70 C69 1.334 . S
N70 C71 1.334 . S
C71 N70 1.334 . S
C71 N72 1.336 . S
N72 Zn68 2.020 . S
N72 C71 1.336 . S
N72 N73 1.354 . S
N73 C69 1.336 . S
N73 N72 1.354 . S
N73 Zn77 2.020 . S
C74 O75 1.244 . S
C74 O98 1.257 . S
O75 C74 1.244 . S
O76 Zn68 2.019 . S
O76 C96 1.257 . S
Zn77 N73 2.020 . S
Zn77 O84 1.975 . S
Zn77 N93 2.119 . S
Zn77 O98 2.019 . S
N78 Zn68 2.119 . S
N78 C80 1.334 . S
N78 C81 1.328 . S
C79 C80 1.391 . S
C79 N82 1.329 . S
C79 H100 0.930 . S
C80 N78 1.334 . S
C80 C79 1.391 . S
C80 H87 0.930 . S
C81 N78 1.328 . S
C81 C83 1.392 . S
C81 H88 0.930 . S
N82 C79 1.329 . S
N82 C83 1.331 . S
C83 C81 1.392 . S
C83 N82 1.331 . S
O84 Zn77 1.975 . S
O84 C85 1.252 . S
C85 O84 1.252 . S
C85 O86 1.252 . S
O86 Zn68 1.975 . S
O86 C85 1.252 . S
H87 C80 0.930 . S
H88 C81 0.930 . S
C89 C90 1.392 . S
C89 N93 1.328 . S
C89 H95 0.930 . S
C90 C89 1.392 . S
C90 N94 1.331 . S
C91 C92 1.391 . S
C91 N94 1.329 . S
C91 H101 0.930 . S
C92 C91 1.391 . S
C92 N93 1.334 . S
C92 H99 0.930 . S
N93 Zn77 2.119 . S
N93 C89 1.328 . S
N93 C92 1.334 . S
N94 C90 1.331 . S
N94 C91 1.329 . S
H95 C89 0.930 . S
C96 O76 1.257 . S
C96 O97 1.244 . S
O97 C96 1.244 . S
O98 C74 1.257 . S
O98 Zn77 2.019 . S
H99 C92 0.930 . S
H100 C79 0.930 . S
H101 C91 0.930 . S
Zn102 N106 2.020 . S
Zn102 O110 2.019 . S
Zn102 N112 2.119 . S
Zn102 O120 1.975 . S
C103 N104 1.334 . S
C103 N107 1.336 . S
N104 C103 1.334 . S
N104 C105 1.334 . S
C105 N104 1.334 . S
C105 N106 1.336 . S
N106 Zn102 2.020 . S
N106 C105 1.336 . S
N106 N107 1.354 . S
N107 C103 1.336 . S
N107 N106 1.354 . S
N107 Zn111 2.020 . S
C108 O109 1.244 . S
C108 O132 1.257 . S
O109 C108 1.244 . S
O110 Zn102 2.019 . S
O110 C130 1.257 . S
Zn111 N107 2.020 . S
Zn111 O118 1.975 . S
Zn111 N127 2.119 . S
Zn111 O132 2.019 . S
N112 Zn102 2.119 . S
N112 C114 1.334 . S
N112 C115 1.328 . S
C113 C114 1.391 . S
C113 N116 1.329 . S
C113 H134 0.930 . S
C114 N112 1.334 . S
C114 C113 1.391 . S
C114 H121 0.930 . S
C115 N112 1.328 . S
C115 C117 1.392 . S
C115 H122 0.930 . S
N116 C113 1.329 . S
N116 C117 1.331 . S
C117 C115 1.392 . S
C117 N116 1.331 . S
O118 Zn111 1.975 . S
O118 C119 1.252 . S
C119 O118 1.252 . S
C119 O120 1.252 . S
O120 Zn102 1.975 . S
O120 C119 1.252 . S
H121 C114 0.930 . S
H122 C115 0.930 . S
C123 C124 1.392 . S
C123 N127 1.328 . S
C123 H129 0.930 . S
C124 C123 1.392 . S
C124 N128 1.331 . S
C125 C126 1.391 . S
C125 N128 1.329 . S
C125 H135 0.930 . S
C126 C125 1.391 . S
C126 N127 1.334 . S
C126 H133 0.930 . S
N127 Zn111 2.119 . S
N127 C123 1.328 . S
N127 C126 1.334 . S
N128 C124 1.331 . S
N128 C125 1.329 . S
H129 C123 0.930 . S
C130 O110 1.257 . S
C130 O131 1.244 . S
O131 C130 1.244 . S
O132 C108 1.257 . S
O132 Zn111 2.019 . S
H133 C126 0.930 . S
H134 C113 0.930 . S
H135 C125 0.930 . S
Zn136 N140 2.020 . S
Zn136 O144 2.019 . S
Zn136 N146 2.119 . S
Zn136 O154 1.975 . S
C137 N138 1.334 . S
C137 N141 1.336 . S
N138 C137 1.334 . S
N138 C139 1.334 . S
C139 N138 1.334 . S
C139 N140 1.336 . S
N140 Zn136 2.020 . S
N140 C139 1.336 . S
N140 N141 1.354 . S
N141 C137 1.336 . S
N141 N140 1.354 . S
N141 Zn145 2.020 . S
C142 O143 1.244 . S
C142 O166 1.257 . S
O143 C142 1.244 . S
O144 Zn136 2.019 . S
O144 C164 1.257 . S
Zn145 N141 2.020 . S
Zn145 O152 1.975 . S
Zn145 N161 2.119 . S
Zn145 O166 2.019 . S
N146 Zn136 2.119 . S
N146 C148 1.334 . S
N146 C149 1.328 . S
C147 C148 1.391 . S
C147 N150 1.329 . S
C147 H168 0.930 . S
C148 N146 1.334 . S
C148 C147 1.391 . S
C148 H155 0.930 . S
C149 N146 1.328 . S
C149 C151 1.392 . S
C149 H156 0.930 . S
N150 C147 1.329 . S
N150 C151 1.331 . S
C151 C149 1.392 . S
C151 N150 1.331 . S
O152 Zn145 1.975 . S
O152 C153 1.252 . S
C153 O152 1.252 . S
C153 O154 1.252 . S
O154 Zn136 1.975 . S
O154 C153 1.252 . S
H155 C148 0.930 . S
H156 C149 0.930 . S
C157 C158 1.392 . S
C157 N161 1.328 . S
C157 H163 0.930 . S
C158 C157 1.392 . S
C158 N162 1.331 . S
C159 C160 1.391 . S
C159 N162 1.329 . S
C159 H169 0.930 . S
C160 C159 1.391 . S
C160 N161 1.334 . S
C160 H167 0.930 . S
N161 Zn145 2.119 . S
N161 C157 1.328 . S
N161 C160 1.334 . S
N162 C158 1.331 . S
N162 C159 1.329 . S
H163 C157 0.930 . S
C164 O144 1.257 . S
C164 O165 1.244 . S
O165 C164 1.244 . S
O166 C142 1.257 . S
O166 Zn145 2.019 . S
H167 C160 0.930 . S
H168 C147 0.930 . S
H169 C159 0.930 . S
Zn170 N174 2.020 . S
Zn170 O178 2.019 . S
Zn170 N180 2.119 . S
Zn170 O188 1.975 . S
C171 N172 1.334 . S
C171 N175 1.336 . S
N172 C171 1.334 . S
N172 C173 1.334 . S
C173 N172 1.334 . S
C173 N174 1.336 . S
N174 Zn170 2.020 . S
N174 C173 1.336 . S
N174 N175 1.354 . S
N175 C171 1.336 . S
N175 N174 1.354 . S
N175 Zn179 2.020 . S
C176 O177 1.244 . S
C176 O200 1.257 . S
O177 C176 1.244 . S
O178 Zn170 2.019 . S
O178 C198 1.257 . S
Zn179 N175 2.020 . S
Zn179 O186 1.975 . S
Zn179 N195 2.119 . S
Zn179 O200 2.019 . S
N180 Zn170 2.119 . S
N180 C182 1.334 . S
N180 C183 1.328 . S
C181 C182 1.391 . S
C181 N184 1.329 . S
C181 H202 0.930 . S
C182 N180 1.334 . S
C182 C181 1.391 . S
C182 H189 0.930 . S
C183 N180 1.328 . S
C183 C185 1.392 . S
C183 H190 0.930 . S
N184 C181 1.329 . S
N184 C185 1.331 . S
C185 C183 1.392 . S
C185 N184 1.331 . S
O186 Zn179 1.975 . S
O186 C187 1.252 . S
C187 O186 1.252 . S
C187 O188 1.252 . S
O188 Zn170 1.975 . S
O188 C187 1.252 . S
H189 C182 0.930 . S
H190 C183 0.930 . S
C191 C192 1.392 . S
C191 N195 1.328 . S
C191 H197 0.930 . S
C192 C191 1.392 . S
C192 N196 1.331 . S
C193 C194 1.391 . S
C193 N196 1.329 . S
C193 H203 0.930 . S
C194 C193 1.391 . S
C194 N195 1.334 . S
C194 H201 0.930 . S
N195 Zn179 2.119 . S
N195 C191 1.328 . S
N195 C194 1.334 . S
N196 C192 1.331 . S
N196 C193 1.329 . S
H197 C191 0.930 . S
C198 O178 1.257 . S
C198 O199 1.244 . S
O199 C198 1.244 . S
O200 C176 1.257 . S
O200 Zn179 2.019 . S
H201 C194 0.930 . S
H202 C181 0.930 . S
H203 C193 0.930 . S
Zn204 N208 2.020 . S
Zn204 O212 2.019 . S
Zn204 N214 2.119 . S
Zn204 O222 1.975 . S
C205 N206 1.334 . S
C205 N209 1.336 . S
N206 C205 1.334 . S
N206 C207 1.334 . S
C207 N206 1.334 . S
C207 N208 1.336 . S
N208 Zn204 2.020 . S
N208 C207 1.336 . S
N208 N209 1.354 . S
N209 C205 1.336 . S
N209 N208 1.354 . S
N209 Zn213 2.020 . S
C210 O211 1.244 . S
C210 O234 1.257 . S
O211 C210 1.244 . S
O212 Zn204 2.019 . S
O212 C232 1.257 . S
Zn213 N209 2.020 . S
Zn213 O220 1.975 . S
Zn213 N229 2.119 . S
Zn213 O234 2.019 . S
N214 Zn204 2.119 . S
N214 C216 1.334 . S
N214 C217 1.328 . S
C215 C216 1.391 . S
C215 N218 1.329 . S
C215 H236 0.930 . S
C216 N214 1.334 . S
C216 C215 1.391 . S
C216 H223 0.930 . S
C217 N214 1.328 . S
C217 C219 1.392 . S
C217 H224 0.930 . S
N218 C215 1.329 . S
N218 C219 1.331 . S
C219 C217 1.392 . S
C219 N218 1.331 . S
O220 Zn213 1.975 . S
O220 C221 1.252 . S
C221 O220 1.252 . S
C221 O222 1.252 . S
O222 Zn204 1.975 . S
O222 C221 1.252 . S
H223 C216 0.930 . S
H224 C217 0.930 . S
C225 C226 1.392 . S
C225 N229 1.328 . S
C225 H231 0.930 . S
C226 C225 1.392 . S
C226 N230 1.331 . S
C227 C228 1.391 . S
C227 N230 1.329 . S
C227 H237 0.930 . S
C228 C227 1.391 . S
C228 N229 1.334 . S
C228 H235 0.930 . S
N229 Zn213 2.119 . S
N229 C225 1.328 . S
N229 C228 1.334 . S
N230 C226 1.331 . S
N230 C227 1.329 . S
H231 C225 0.930 . S
C232 O212 1.257 . S
C232 O233 1.244 . S
O233 C232 1.244 . S
O234 C210 1.257 . S
O234 Zn213 2.019 . S
H235 C228 0.930 . S
H236 C215 0.930 . S
H237 C227 0.930 . S
Zn238 N242 2.020 . S
Zn238 O246 2.019 . S
Zn238 N248 2.119 . S
Zn238 O256 1.975 . S
C239 N240 1.334 . S
C239 N243 1.336 . S
N240 C239 1.334 . S
N240 C241 1.334 . S
C241 N240 1.334 . S
C241 N242 1.336 . S
N242 Zn238 2.020 . S
N242 C241 1.336 . S
N242 N243 1.354 . S
N243 C239 1.336 . S
N243 N242 1.354 . S
N243 Zn247 2.020 . S
C244 O245 1.244 . S
C244 O268 1.257 . S
O245 C244 1.244 . S
O246 Zn238 2.019 . S
O246 C266 1.257 . S
Zn247 N243 2.020 . S
Zn247 O254 1.975 . S
Zn247 N263 2.119 . S
Zn247 O268 2.019 . S
N248 Zn238 2.119 . S
N248 C250 1.334 . S
N248 C251 1.328 . S
C249 C250 1.391 . S
C249 N252 1.329 . S
C249 H270 0.930 . S
C250 N248 1.334 . S
C250 C249 1.391 . S
C250 H257 0.930 . S
C251 N248 1.328 . S
C251 C253 1.392 . S
C251 H258 0.930 . S
N252 C249 1.329 . S
N252 C253 1.331 . S
C253 C251 1.392 . S
C253 N252 1.331 . S
O254 Zn247 1.975 . S
O254 C255 1.252 . S
C255 O254 1.252 . S
C255 O256 1.252 . S
O256 Zn238 1.975 . S
O256 C255 1.252 . S
H257 C250 0.930 . S
H258 C251 0.930 . S
C259 C260 1.392 . S
C259 N263 1.328 . S
C259 H265 0.930 . S
C260 C259 1.392 . S
C260 N264 1.331 . S
C261 C262 1.391 . S
C261 N264 1.329 . S
C261 H271 0.930 . S
C262 C261 1.391 . S
C262 N263 1.334 . S
C262 H269 0.930 . S
N263 Zn247 2.119 . S
N263 C259 1.328 . S
N263 C262 1.334 . S
N264 C260 1.331 . S
N264 C261 1.329 . S
H265 C259 0.930 . S
C266 O246 1.257 . S
C266 O267 1.244 . S
O267 C266 1.244 . S
O268 C244 1.257 . S
O268 Zn247 2.019 . S
H269 C262 0.930 . S
H270 C249 0.930 . S
H271 C261 0.930 . S
Zn272 N276 2.020 . S
Zn272 O280 2.019 . S
Zn272 N282 2.119 . S
Zn272 O290 1.975 . S
C273 N274 1.334 . S
C273 N277 1.336 . S
N274 C273 1.334 . S
N274 C275 1.334 . S
C275 N274 1.334 . S
C275 N276 1.336 . S
N276 Zn272 2.020 . S
N276 C275 1.336 . S
N276 N277 1.354 . S
N277 C273 1.336 . S
N277 N276 1.354 . S
N277 Zn281 2.020 . S
C278 O279 1.244 . S
C278 O302 1.257 . S
O279 C278 1.244 . S
O280 Zn272 2.019 . S
O280 C300 1.257 . S
Zn281 N277 2.020 . S
Zn281 O288 1.975 . S
Zn281 N297 2.119 . S
Zn281 O302 2.019 . S
N282 Zn272 2.119 . S
N282 C284 1.334 . S
N282 C285 1.328 . S
C283 C284 1.391 . S
C283 N286 1.329 . S
C283 H304 0.930 . S
C284 N282 1.334 . S
C284 C283 1.391 . S
C284 H291 0.930 . S
C285 N282 1.328 . S
C285 C287 1.392 . S
C285 H292 0.930 . S
N286 C283 1.329 . S
N286 C287 1.331 . S
C287 C285 1.392 . S
C287 N286 1.331 . S
O288 Zn281 1.975 . S
O288 C289 1.252 . S
C289 O288 1.252 . S
C289 O290 1.252 . S
O290 Zn272 1.975 . S
O290 C289 1.252 . S
H291 C284 0.930 . S
H292 C285 0.930 . S
C293 C294 1.392 . S
C293 N297 1.328 . S
C293 H299 0.930 . S
C294 C293 1.392 . S
C294 N298 1.331 . S
C295 C296 1.391 . S
C295 N298 1.329 . S
C295 H305 0.930 . S
C296 C295 1.391 . S
C296 N297 1.334 . S
C296 H303 0.930 . S
N297 Zn281 2.119 . S
N297 C293 1.328 . S
N297 C296 1.334 . S
N298 C294 1.331 . S
N298 C295 1.329 . S
H299 C293 0.930 . S
C300 O280 1.257 . S
C300 O301 1.244 . S
O301 C300 1.244 . S
O302 C278 1.257 . S
O302 Zn281 2.019 . S
H303 C296 0.930 . S
H304 C283 0.930 . S
H305 C295 0.930 . S
Zn306 N310 2.020 . S
Zn306 O314 2.019 . S
Zn306 N316 2.119 . S
Zn306 O324 1.975 . S
C307 N308 1.334 . S
C307 N311 1.336 . S
N308 C307 1.334 . S
N308 C309 1.334 . S
C309 N308 1.334 . S
C309 N310 1.336 . S
N310 Zn306 2.020 . S
N310 C309 1.336 . S
N310 N311 1.354 . S
N311 C307 1.336 . S
N311 N310 1.354 . S
N311 Zn315 2.020 . S
C312 O313 1.244 . S
C312 O336 1.257 . S
O313 C312 1.244 . S
O314 Zn306 2.019 . S
O314 C334 1.257 . S
Zn315 N311 2.020 . S
Zn315 O322 1.975 . S
Zn315 N331 2.119 . S
Zn315 O336 2.019 . S
N316 Zn306 2.119 . S
N316 C318 1.334 . S
N316 C319 1.328 . S
C317 C318 1.391 . S
C317 N320 1.329 . S
C317 H338 0.930 . S
C318 N316 1.334 . S
C318 C317 1.391 . S
C318 H325 0.930 . S
C319 N316 1.328 . S
C319 C321 1.392 . S
C319 H326 0.930 . S
N320 C317 1.329 . S
N320 C321 1.331 . S
C321 C319 1.392 . S
C321 N320 1.331 . S
O322 Zn315 1.975 . S
O322 C323 1.252 . S
C323 O322 1.252 . S
C323 O324 1.252 . S
O324 Zn306 1.975 . S
O324 C323 1.252 . S
H325 C318 0.930 . S
H326 C319 0.930 . S
C327 C328 1.392 . S
C327 N331 1.328 . S
C327 H333 0.930 . S
C328 C327 1.392 . S
C328 N332 1.331 . S
C329 C330 1.391 . S
C329 N332 1.329 . S
C329 H339 0.930 . S
C330 C329 1.391 . S
C330 N331 1.334 . S
C330 H337 0.930 . S
N331 Zn315 2.119 . S
N331 C327 1.328 . S
N331 C330 1.334 . S
N332 C328 1.331 . S
N332 C329 1.329 . S
H333 C327 0.930 . S
C334 O314 1.257 . S
C334 O335 1.244 . S
O335 C334 1.244 . S
O336 C312 1.257 . S
O336 Zn315 2.019 . S
H337 C330 0.930 . S
H338 C317 0.930 . S
H339 C329 0.930 . S
Zn340 N344 2.020 . S
Zn340 O348 2.019 . S
Zn340 N350 2.119 . S
Zn340 O358 1.975 . S
C341 N342 1.334 . S
C341 N345 1.336 . S
N342 C341 1.334 . S
N342 C343 1.334 . S
C343 N342 1.334 . S
C343 N344 1.336 . S
N344 Zn340 2.020 . S
N344 C343 1.336 . S
N344 N345 1.354 . S
N345 C341 1.336 . S
N345 N344 1.354 . S
N345 Zn349 2.020 . S
C346 O347 1.244 . S
C346 O370 1.257 . S
O347 C346 1.244 . S
O348 Zn340 2.019 . S
O348 C368 1.257 . S
Zn349 N345 2.020 . S
Zn349 O356 1.975 . S
Zn349 N365 2.119 . S
Zn349 O370 2.019 . S
N350 Zn340 2.119 . S
N350 C352 1.334 . S
N350 C353 1.328 . S
C351 C352 1.391 . S
C351 N354 1.329 . S
C351 H372 0.930 . S
C352 N350 1.334 . S
C352 C351 1.391 . S
C352 H359 0.930 . S
C353 N350 1.328 . S
C353 C355 1.392 . S
C353 H360 0.930 . S
N354 C351 1.329 . S
N354 C355 1.331 . S
C355 C353 1.392 . S
C355 N354 1.331 . S
O356 Zn349 1.975 . S
O356 C357 1.252 . S
C357 O356 1.252 . S
C357 O358 1.252 . S
O358 Zn340 1.975 . S
O358 C357 1.252 . S
H359 C352 0.930 . S
H360 C353 0.930 . S
C361 C362 1.392 . S
C361 N365 1.328 . S
C361 H367 0.930 . S
C362 C361 1.392 . S
C362 N366 1.331 . S
C363 C364 1.391 . S
C363 N366 1.329 . S
C363 H373 0.930 . S
C364 C363 1.391 . S
C364 N365 1.334 . S
C364 H371 0.930 . S
N365 Zn349 2.119 . S
N365 C361 1.328 . S
N365 C364 1.334 . S
N366 C362 1.331 . S
N366 C363 1.329 . S
H367 C361 0.930 . S
C368 O348 1.257 . S
C368 O369 1.244 . S
O369 C368 1.244 . S
O370 C346 1.257 . S
O370 Zn349 2.019 . S
H371 C364 0.930 . S
H372 C351 0.930 . S
H373 C363 0.930 . S
Zn374 N378 2.020 . S
Zn374 O382 2.019 . S
Zn374 N384 2.119 . S
Zn374 O392 1.975 . S
C375 N376 1.334 . S
C375 N379 1.336 . S
N376 C375 1.334 . S
N376 C377 1.334 . S
C377 N376 1.334 . S
C377 N378 1.336 . S
N378 Zn374 2.020 . S
N378 C377 1.336 . S
N378 N379 1.354 . S
N379 C375 1.336 . S
N379 N378 1.354 . S
N379 Zn383 2.020 . S
C380 O381 1.244 . S
C380 O404 1.257 . S
O381 C380 1.244 . S
O382 Zn374 2.019 . S
O382 C402 1.257 . S
Zn383 N379 2.020 . S
Zn383 O390 1.975 . S
Zn383 N399 2.119 . S
Zn383 O404 2.019 . S
N384 Zn374 2.119 . S
N384 C386 1.334 . S
N384 C387 1.328 . S
C385 C386 1.391 . S
C385 N388 1.329 . S
C385 H406 0.930 . S
C386 N384 1.334 . S
C386 C385 1.391 . S
C386 H393 0.930 . S
C387 N384 1.328 . S
C387 C389 1.392 . S
C387 H394 0.930 . S
N388 C385 1.329 . S
N388 C389 1.331 . S
C389 C387 1.392 . S
C389 N388 1.331 . S
O390 Zn383 1.975 . S
O390 C391 1.252 . S
C391 O390 1.252 . S
C391 O392 1.252 . S
O392 Zn374 1.975 . S
O392 C391 1.252 . S
H393 C386 0.930 . S
H394 C387 0.930 . S
C395 C396 1.392 . S
C395 N399 1.328 . S
C395 H401 0.930 . S
C396 C395 1.392 . S
C396 N400 1.331 . S
C397 C398 1.391 . S
C397 N400 1.329 . S
C397 H407 0.930 . S
C398 C397 1.391 . S
C398 N399 1.334 . S
C398 H405 0.930 . S
N399 Zn383 2.119 . S
N399 C395 1.328 . S
N399 C398 1.334 . S
N400 C396 1.331 . S
N400 C397 1.329 . S
H401 C395 0.930 . S
C402 O382 1.257 . S
C402 O403 1.244 . S
O403 C402 1.244 . S
O404 C380 1.257 . S
O404 Zn383 2.019 . S
H405 C398 0.930 . S
H406 C385 0.930 . S
H407 C397 0.930 . S
Zn408 N412 2.020 . S
Zn408 O416 2.019 . S
Zn408 N418 2.119 . S
Zn408 O426 1.975 . S
C409 N410 1.334 . S
C409 N413 1.336 . S
N410 C409 1.334 . S
N410 C411 1.334 . S
C411 N410 1.334 . S
C411 N412 1.336 . S
N412 Zn408 2.020 . S
N412 C411 1.336 . S
N412 N413 1.354 . S
N413 C409 1.336 . S
N413 N412 1.354 . S
N413 Zn417 2.020 . S
C414 O415 1.244 . S
C414 O438 1.257 . S
O415 C414 1.244 . S
O416 Zn408 2.019 . S
O416 C436 1.257 . S
Zn417 N413 2.020 . S
Zn417 O424 1.975 . S
Zn417 N433 2.119 . S
Zn417 O438 2.019 . S
N418 Zn408 2.119 . S
N418 C420 1.334 . S
N418 C421 1.328 . S
C419 C420 1.391 . S
C419 N422 1.329 . S
C419 H440 0.930 . S
C420 N418 1.334 . S
C420 C419 1.391 . S
C420 H427 0.930 . S
C421 N418 1.328 . S
C421 C423 1.392 . S
C421 H428 0.930 . S
N422 C419 1.329 . S
N422 C423 1.331 . S
C423 C421 1.392 . S
C423 N422 1.331 . S
O424 Zn417 1.975 . S
O424 C425 1.252 . S
C425 O424 1.252 . S
C425 O426 1.252 . S
O426 Zn408 1.975 . S
O426 C425 1.252 . S
H427 C420 0.930 . S
H428 C421 0.930 . S
C429 C430 1.392 . S
C429 N433 1.328 . S
C429 H435 0.930 . S
C430 C429 1.392 . S
C430 N434 1.331 . S
C431 C432 1.391 . S
C431 N434 1.329 . S
C431 H441 0.930 . S
C432 C431 1.391 . S
C432 N433 1.334 . S
C432 H439 0.930 . S
N433 Zn417 2.119 . S
N433 C429 1.328 . S
N433 C432 1.334 . S
N434 C430 1.331 . S
N434 C431 1.329 . S
H435 C429 0.930 . S
C436 O416 1.257 . S
C436 O437 1.244 . S
O437 C436 1.244 . S
O438 C414 1.257 . S
O438 Zn417 2.019 . S
H439 C432 0.930 . S
H440 C419 0.930 . S
H441 C431 0.930 . S
Zn442 N446 2.020 . S
Zn442 O450 2.019 . S
Zn442 N452 2.119 . S
Zn442 O460 1.975 . S
C443 N444 1.334 . S
C443 N447 1.336 . S
N444 C443 1.334 . S
N444 C445 1.334 . S
C445 N444 1.334 . S
C445 N446 1.336 . S
N446 Zn442 2.020 . S
N446 C445 1.336 . S
N446 N447 1.354 . S
N447 C443 1.336 . S
N447 N446 1.354 . S
N447 Zn451 2.020 . S
C448 O449 1.244 . S
C448 O472 1.257 . S
O449 C448 1.244 . S
O450 Zn442 2.019 . S
O450 C470 1.257 . S
Zn451 N447 2.020 . S
Zn451 O458 1.975 . S
Zn451 N467 2.119 . S
Zn451 O472 2.019 . S
N452 Zn442 2.119 . S
N452 C454 1.334 . S
N452 C455 1.328 . S
C453 C454 1.391 . S
C453 N456 1.329 . S
C453 H474 0.930 . S
C454 N452 1.334 . S
C454 C453 1.391 . S
C454 H461 0.930 . S
C455 N452 1.328 . S
C455 C457 1.392 . S
C455 H462 0.930 . S
N456 C453 1.329 . S
N456 C457 1.331 . S
C457 C455 1.392 . S
C457 N456 1.331 . S
O458 Zn451 1.975 . S
O458 C459 1.252 . S
C459 O458 1.252 . S
C459 O460 1.252 . S
O460 Zn442 1.975 . S
O460 C459 1.252 . S
H461 C454 0.930 . S
H462 C455 0.930 . S
C463 C464 1.392 . S
C463 N467 1.328 . S
C463 H469 0.930 . S
C464 C463 1.392 . S
C464 N468 1.331 . S
C465 C466 1.391 . S
C465 N468 1.329 . S
C465 H475 0.930 . S
C466 C465 1.391 . S
C466 N467 1.334 . S
C466 H473 0.930 . S
N467 Zn451 2.119 . S
N467 C463 1.328 . S
N467 C466 1.334 . S
N468 C464 1.331 . S
N468 C465 1.329 . S
H469 C463 0.930 . S
C470 O450 1.257 . S
C470 O471 1.244 . S
O471 C470 1.244 . S
O472 C448 1.257 . S
O472 Zn451 2.019 . S
H473 C466 0.930 . S
H474 C453 0.930 . S
H475 C465 0.930 . S
Zn476 N480 2.020 . S
Zn476 O484 2.019 . S
Zn476 N486 2.119 . S
Zn476 O494 1.975 . S
C477 N478 1.334 . S
C477 N481 1.336 . S
N478 C477 1.334 . S
N478 C479 1.334 . S
C479 N478 1.334 . S
C479 N480 1.336 . S
N480 Zn476 2.020 . S
N480 C479 1.336 . S
N480 N481 1.354 . S
N481 C477 1.336 . S
N481 N480 1.354 . S
N481 Zn485 2.020 . S
C482 O483 1.244 . S
C482 O506 1.257 . S
O483 C482 1.244 . S
O484 Zn476 2.019 . S
O484 C504 1.257 . S
Zn485 N481 2.020 . S
Zn485 O492 1.975 . S
Zn485 N501 2.119 . S
Zn485 O506 2.019 . S
N486 Zn476 2.119 . S
N486 C488 1.334 . S
N486 C489 1.328 . S
C487 C488 1.391 . S
C487 N490 1.329 . S
C487 H508 0.930 . S
C488 N486 1.334 . S
C488 C487 1.391 . S
C488 H495 0.930 . S
C489 N486 1.328 . S
C489 C491 1.392 . S
C489 H496 0.930 . S
N490 C487 1.329 . S
N490 C491 1.331 . S
C491 C489 1.392 . S
C491 N490 1.331 . S
O492 Zn485 1.975 . S
O492 C493 1.252 . S
C493 O492 1.252 . S
C493 O494 1.252 . S
O494 Zn476 1.975 . S
O494 C493 1.252 . S
H495 C488 0.930 . S
H496 C489 0.930 . S
C497 C498 1.392 . S
C497 N501 1.328 . S
C497 H503 0.930 . S
C498 C497 1.392 . S
C498 N502 1.331 . S
C499 C500 1.391 . S
C499 N502 1.329 . S
C499 H509 0.930 . S
C500 C499 1.391 . S
C500 N501 1.334 . S
C500 H507 0.930 . S
N501 Zn485 2.119 . S
N501 C497 1.328 . S
N501 C500 1.334 . S
N502 C498 1.331 . S
N502 C499 1.329 . S
H503 C497 0.930 . S
C504 O484 1.257 . S
C504 O505 1.244 . S
O505 C504 1.244 . S
O506 C482 1.257 . S
O506 Zn485 2.019 . S
H507 C500 0.930 . S
H508 C487 0.930 . S
H509 C499 0.930 . S
Zn510 N514 2.020 . S
Zn510 O518 2.019 . S
Zn510 N520 2.119 . S
Zn510 O528 1.975 . S
C511 N512 1.334 . S
C511 N515 1.336 . S
N512 C511 1.334 . S
N512 C513 1.334 . S
C513 N512 1.334 . S
C513 N514 1.336 . S
N514 Zn510 2.020 . S
N514 C513 1.336 . S
N514 N515 1.354 . S
N515 C511 1.336 . S
N515 N514 1.354 . S
N515 Zn519 2.020 . S
C516 O517 1.244 . S
C516 O540 1.257 . S
O517 C516 1.244 . S
O518 Zn510 2.019 . S
O518 C538 1.257 . S
Zn519 N515 2.020 . S
Zn519 O526 1.975 . S
Zn519 N535 2.119 . S
Zn519 O540 2.019 . S
N520 Zn510 2.119 . S
N520 C522 1.334 . S
N520 C523 1.328 . S
C521 C522 1.391 . S
C521 N524 1.329 . S
C521 H542 0.930 . S
C522 N520 1.334 . S
C522 C521 1.391 . S
C522 H529 0.930 . S
C523 N520 1.328 . S
C523 C525 1.392 . S
C523 H530 0.930 . S
N524 C521 1.329 . S
N524 C525 1.331 . S
C525 C523 1.392 . S
C525 N524 1.331 . S
O526 Zn519 1.975 . S
O526 C527 1.252 . S
C527 O526 1.252 . S
C527 O528 1.252 . S
O528 Zn510 1.975 . S
O528 C527 1.252 . S
H529 C522 0.930 . S
H530 C523 0.930 . S
C531 C532 1.392 . S
C531 N535 1.328 . S
C531 H537 0.930 . S
C532 C531 1.392 . S
C532 N536 1.331 . S
C533 C534 1.391 . S
C533 N536 1.329 . S
C533 H543 0.930 . S
C534 C533 1.391 . S
C534 N535 1.334 . S
C534 H541 0.930 . S
N535 Zn519 2.119 . S
N535 C531 1.328 . S
N535 C534 1.334 . S
N536 C532 1.331 . S
N536 C533 1.329 . S
H537 C531 0.930 . S
C538 O518 1.257 . S
C538 O539 1.244 . S
O539 C538 1.244 . S
O540 C516 1.257 . S
O540 Zn519 2.019 . S
H541 C534 0.930 . S
H542 C521 0.930 . S
H543 C533 0.930 . S
Zn544 N548 2.020 . S
Zn544 O552 2.019 . S
Zn544 N554 2.119 . S
Zn544 O562 1.975 . S
C545 N546 1.334 . S
C545 N549 1.336 . S
N546 C545 1.334 . S
N546 C547 1.334 . S
C547 N546 1.334 . S
C547 N548 1.336 . S
N548 Zn544 2.020 . S
N548 C547 1.336 . S
N548 N549 1.354 . S
N549 C545 1.336 . S
N549 N548 1.354 . S
N549 Zn553 2.020 . S
C550 O551 1.244 . S
C550 O574 1.257 . S
O551 C550 1.244 . S
O552 Zn544 2.019 . S
O552 C572 1.257 . S
Zn553 N549 2.020 . S
Zn553 O560 1.975 . S
Zn553 N569 2.119 . S
Zn553 O574 2.019 . S
N554 Zn544 2.119 . S
N554 C556 1.334 . S
N554 C557 1.328 . S
C555 C556 1.391 . S
C555 N558 1.329 . S
C555 H576 0.930 . S
C556 N554 1.334 . S
C556 C555 1.391 . S
C556 H563 0.930 . S
C557 N554 1.328 . S
C557 C559 1.392 . S
C557 H564 0.930 . S
N558 C555 1.329 . S
N558 C559 1.331 . S
C559 C557 1.392 . S
C559 N558 1.331 . S
O560 Zn553 1.975 . S
O560 C561 1.252 . S
C561 O560 1.252 . S
C561 O562 1.252 . S
O562 Zn544 1.975 . S
O562 C561 1.252 . S
H563 C556 0.930 . S
H564 C557 0.930 . S
C565 C566 1.392 . S
C565 N569 1.328 . S
C565 H571 0.930 . S
C566 C565 1.392 . S
C566 N570 1.331 . S
C567 C568 1.391 . S
C567 N570 1.329 . S
C567 H577 0.930 . S
C568 C567 1.391 . S
C568 N569 1.334 . S
C568 H575 0.930 . S
N569 Zn553 2.119 . S
N569 C565 1.328 . S
N569 C568 1.334 . S
N570 C566 1.331 . S
N570 C567 1.329 . S
H571 C565 0.930 . S
C572 O552 1.257 . S
C572 O573 1.244 . S
O573 C572 1.244 . S
O574 C550 1.257 . S
O574 Zn553 2.019 . S
H575 C568 0.930 . S
H576 C555 0.930 . S
H577 C567 0.930 . S
Zn578 N582 2.020 . S
Zn578 O586 2.019 . S
Zn578 N588 2.119 . S
Zn578 O596 1.975 . S
C579 N580 1.334 . S
C579 N583 1.336 . S
N580 C579 1.334 . S
N580 C581 1.334 . S
C581 N580 1.334 . S
C581 N582 1.336 . S
N582 Zn578 2.020 . S
N582 C581 1.336 . S
N582 N583 1.354 . S
N583 C579 1.336 . S
N583 N582 1.354 . S
N583 Zn587 2.020 . S
C584 O585 1.244 . S
C584 O608 1.257 . S
O585 C584 1.244 . S
O586 Zn578 2.019 . S
O586 C606 1.257 . S
Zn587 N583 2.020 . S
Zn587 O594 1.975 . S
Zn587 N603 2.119 . S
Zn587 O608 2.019 . S
N588 Zn578 2.119 . S
N588 C590 1.334 . S
N588 C591 1.328 . S
C589 C590 1.391 . S
C589 N592 1.329 . S
C589 H610 0.930 . S
C590 N588 1.334 . S
C590 C589 1.391 . S
C590 H597 0.930 . S
C591 N588 1.328 . S
C591 C593 1.392 . S
C591 H598 0.930 . S
N592 C589 1.329 . S
N592 C593 1.331 . S
C593 C591 1.392 . S
C593 N592 1.331 . S
O594 Zn587 1.975 . S
O594 C595 1.252 . S
C595 O594 1.252 . S
C595 O596 1.252 . S
O596 Zn578 1.975 . S
O596 C595 1.252 . S
H597 C590 0.930 . S
H598 C591 0.930 . S
C599 C600 1.392 . S
C599 N603 1.328 . S
C599 H605 0.930 . S
C600 C599 1.392 . S
C600 N604 1.331 . S
C601 C602 1.391 . S
C601 N604 1.329 . S
C601 H611 0.930 . S
C602 C601 1.391 . S
C602 N603 1.334 . S
C602 H609 0.930 . S
N603 Zn587 2.119 . S
N603 C599 1.328 . S
N603 C602 1.334 . S
N604 C600 1.331 . S
N604 C601 1.329 . S
H605 C599 0.930 . S
C606 O586 1.257 . S
C606 O607 1.244 . S
O607 C606 1.244 . S
O608 C584 1.257 . S
O608 Zn587 2.019 . S
H609 C602 0.930 . S
H610 C589 0.930 . S
H611 C601 0.930 . S
Zn612 N616 2.020 . S
Zn612 O620 2.019 . S
Zn612 N622 2.119 . S
Zn612 O630 1.975 . S
C613 N614 1.334 . S
C613 N617 1.336 . S
N614 C613 1.334 . S
N614 C615 1.334 . S
C615 N614 1.334 . S
C615 N616 1.336 . S
N616 Zn612 2.020 . S
N616 C615 1.336 . S
N616 N617 1.354 . S
N617 C613 1.336 . S
N617 N616 1.354 . S
N617 Zn621 2.020 . S
C618 O619 1.244 . S
C618 O642 1.257 . S
O619 C618 1.244 . S
O620 Zn612 2.019 . S
O620 C640 1.257 . S
Zn621 N617 2.020 . S
Zn621 O628 1.975 . S
Zn621 N637 2.119 . S
Zn621 O642 2.019 . S
N622 Zn612 2.119 . S
N622 C624 1.334 . S
N622 C625 1.328 . S
C623 C624 1.391 . S
C623 N626 1.329 . S
C623 H644 0.930 . S
C624 N622 1.334 . S
C624 C623 1.391 . S
C624 H631 0.930 . S
C625 N622 1.328 . S
C625 C627 1.392 . S
C625 H632 0.930 . S
N626 C623 1.329 . S
N626 C627 1.331 . S
C627 C625 1.392 . S
C627 N626 1.331 . S
O628 Zn621 1.975 . S
O628 C629 1.252 . S
C629 O628 1.252 . S
C629 O630 1.252 . S
O630 Zn612 1.975 . S
O630 C629 1.252 . S
H631 C624 0.930 . S
H632 C625 0.930 . S
C633 C634 1.392 . S
C633 N637 1.328 . S
C633 H639 0.930 . S
C634 C633 1.392 . S
C634 N638 1.331 . S
C635 C636 1.391 . S
C635 N638 1.329 . S
C635 H645 0.930 . S
C636 C635 1.391 . S
C636 N637 1.334 . S
C636 H643 0.930 . S
N637 Zn621 2.119 . S
N637 C633 1.328 . S
N637 C636 1.334 . S
N638 C634 1.331 . S
N638 C635 1.329 . S
H639 C633 0.930 . S
C640 O620 1.257 . S
C640 O641 1.244 . S
O641 C640 1.244 . S
O642 C618 1.257 . S
O642 Zn621 2.019 . S
H643 C636 0.930 . S
H644 C623 0.930 . S
H645 C635 0.930 . S
Zn646 N650 2.020 . S
Zn646 O654 2.019 . S
Zn646 N656 2.119 . S
Zn646 O664 1.975 . S
C647 N648 1.334 . S
C647 N651 1.336 . S
N648 C647 1.334 . S
N648 C649 1.334 . S
C649 N648 1.334 . S
C649 N650 1.336 . S
N650 Zn646 2.020 . S
N650 C649 1.336 . S
N650 N651 1.354 . S
N651 C647 1.336 . S
N651 N650 1.354 . S
N651 Zn655 2.020 . S
C652 O653 1.244 . S
C652 O676 1.257 . S
O653 C652 1.244 . S
O654 Zn646 2.019 . S
O654 C674 1.257 . S
Zn655 N651 2.020 . S
Zn655 O662 1.975 . S
Zn655 N671 2.119 . S
Zn655 O676 2.019 . S
N656 Zn646 2.119 . S
N656 C658 1.334 . S
N656 C659 1.328 . S
C657 C658 1.391 . S
C657 N660 1.329 . S
C657 H678 0.930 . S
C658 N656 1.334 . S
C658 C657 1.391 . S
C658 H665 0.930 . S
C659 N656 1.328 . S
C659 C661 1.392 . S
C659 H666 0.930 . S
N660 C657 1.329 . S
N660 C661 1.331 . S
C661 C659 1.392 . S
C661 N660 1.331 . S
O662 Zn655 1.975 . S
O662 C663 1.252 . S
C663 O662 1.252 . S
C663 O664 1.252 . S
O664 Zn646 1.975 . S
O664 C663 1.252 . S
H665 C658 0.930 . S
H666 C659 0.930 . S
C667 C668 1.392 . S
C667 N671 1.328 . S
C667 H673 0.930 . S
C668 C667 1.392 . S
C668 N672 1.331 . S
C669 C670 1.391 . S
C669 N672 1.329 . S
C669 H679 0.930 . S
C670 C669 1.391 . S
C670 N671 1.334 . S
C670 H677 0.930 . S
N671 Zn655 2.119 . S
N671 C667 1.328 . S
N671 C670 1.334 . S
N672 C668 1.331 . S
N672 C669 1.329 . S
H673 C667 0.930 . S
C674 O654 1.257 . S
C674 O675 1.244 . S
O675 C674 1.244 . S
O676 C652 1.257 . S
O676 Zn655 2.019 . S
H677 C670 0.930 . S
H678 C657 0.930 . S
H679 C669 0.930 . S
Zn680 N684 2.020 . S
Zn680 O688 2.019 . S
Zn680 N690 2.119 . S
Zn680 O698 1.975 . S
C681 N682 1.334 . S
C681 N685 1.336 . S
N682 C681 1.334 . S
N682 C683 1.334 . S
C683 N682 1.334 . S
C683 N684 1.336 . S
N684 Zn680 2.020 . S
N684 C683 1.336 . S
N684 N685 1.354 . S
N685 C681 1.336 . S
N685 N684 1.354 . S
N685 Zn689 2.020 . S
C686 O687 1.244 . S
C686 O710 1.257 . S
O687 C686 1.244 . S
O688 Zn680 2.019 . S
O688 C708 1.257 . S
Zn689 N685 2.020 . S
Zn689 O696 1.975 . S
Zn689 N705 2.119 . S
Zn689 O710 2.019 . S
N690 Zn680 2.119 . S
N690 C692 1.334 . S
N690 C693 1.328 . S
C691 C692 1.391 . S
C691 N694 1.329 . S
C691 H712 0.930 . S
C692 N690 1.334 . S
C692 C691 1.391 . S
C692 H699 0.930 . S
C693 N690 1.328 . S
C693 C695 1.392 . S
C693 H700 0.930 . S
N694 C691 1.329 . S
N694 C695 1.331 . S
C695 C693 1.392 . S
C695 N694 1.331 . S
O696 Zn689 1.975 . S
O696 C697 1.252 . S
C697 O696 1.252 . S
C697 O698 1.252 . S
O698 Zn680 1.975 . S
O698 C697 1.252 . S
H699 C692 0.930 . S
H700 C693 0.930 . S
C701 C702 1.392 . S
C701 N705 1.328 . S
C701 H707 0.930 . S
C702 C701 1.392 . S
C702 N706 1.331 . S
C703 C704 1.391 . S
C703 N706 1.329 . S
C703 H713 0.930 . S
C704 C703 1.391 . S
C704 N705 1.334 . S
C704 H711 0.930 . S
N705 Zn689 2.119 . S
N705 C701 1.328 . S
N705 C704 1.334 . S
N706 C702 1.331 . S
N706 C703 1.329 . S
H707 C701 0.930 . S
C708 O688 1.257 . S
C708 O709 1.244 . S
O709 C708 1.244 . S
O710 C686 1.257 . S
O710 Zn689 2.019 . S
H711 C704 0.930 . S
H712 C691 0.930 . S
H713 C703 0.930 . S
Zn714 N718 2.020 . S
Zn714 O722 2.019 . S
Zn714 N724 2.119 . S
Zn714 O732 1.975 . S
C715 N716 1.334 . S
C715 N719 1.336 . S
N716 C715 1.334 . S
N716 C717 1.334 . S
C717 N716 1.334 . S
C717 N718 1.336 . S
N718 Zn714 2.020 . S
N718 C717 1.336 . S
N718 N719 1.354 . S
N719 C715 1.336 . S
N719 N718 1.354 . S
N719 Zn723 2.020 . S
C720 O721 1.244 . S
C720 O744 1.257 . S
O721 C720 1.244 . S
O722 Zn714 2.019 . S
O722 C742 1.257 . S
Zn723 N719 2.020 . S
Zn723 O730 1.975 . S
Zn723 N739 2.119 . S
Zn723 O744 2.019 . S
N724 Zn714 2.119 . S
N724 C726 1.334 . S
N724 C727 1.328 . S
C725 C726 1.391 . S
C725 N728 1.329 . S
C725 H746 0.930 . S
C726 N724 1.334 . S
C726 C725 1.391 . S
C726 H733 0.930 . S
C727 N724 1.328 . S
C727 C729 1.392 . S
C727 H734 0.930 . S
N728 C725 1.329 . S
N728 C729 1.331 . S
C729 C727 1.392 . S
C729 N728 1.331 . S
O730 Zn723 1.975 . S
O730 C731 1.252 . S
C731 O730 1.252 . S
C731 O732 1.252 . S
O732 Zn714 1.975 . S
O732 C731 1.252 . S
H733 C726 0.930 . S
H734 C727 0.930 . S
C735 C736 1.392 . S
C735 N739 1.328 . S
C735 H741 0.930 . S
C736 C735 1.392 . S
C736 N740 1.331 . S
C737 C738 1.391 . S
C737 N740 1.329 . S
C737 H747 0.930 . S
C738 C737 1.391 . S
C738 N739 1.334 . S
C738 H745 0.930 . S
N739 Zn723 2.119 . S
N739 C735 1.328 . S
N739 C738 1.334 . S
N740 C736 1.331 . S
N740 C737 1.329 . S
H741 C735 0.930 . S
C742 O722 1.257 . S
C742 O743 1.244 . S
O743 C742 1.244 . S
O744 C720 1.257 . S
O744 Zn723 2.019 . S
H745 C738 0.930 . S
H746 C725 0.930 . S
H747 C737 0.930 . S
Zn748 N752 2.020 . S
Zn748 O756 2.019 . S
Zn748 N758 2.119 . S
Zn748 O766 1.975 . S
C749 N750 1.334 . S
C749 N753 1.336 . S
N750 C749 1.334 . S
N750 C751 1.334 . S
C751 N750 1.334 . S
C751 N752 1.336 . S
N752 Zn748 2.020 . S
N752 C751 1.336 . S
N752 N753 1.354 . S
N753 C749 1.336 . S
N753 N752 1.354 . S
N753 Zn757 2.020 . S
C754 O755 1.244 . S
C754 O778 1.257 . S
O755 C754 1.244 . S
O756 Zn748 2.019 . S
O756 C776 1.257 . S
Zn757 N753 2.020 . S
Zn757 O764 1.975 . S
Zn757 N773 2.119 . S
Zn757 O778 2.019 . S
N758 Zn748 2.119 . S
N758 C760 1.334 . S
N758 C761 1.328 . S
C759 C760 1.391 . S
C759 N762 1.329 . S
C759 H780 0.930 . S
C760 N758 1.334 . S
C760 C759 1.391 . S
C760 H767 0.930 . S
C761 N758 1.328 . S
C761 C763 1.392 . S
C761 H768 0.930 . S
N762 C759 1.329 . S
N762 C763 1.331 . S
C763 C761 1.392 . S
C763 N762 1.331 . S
O764 Zn757 1.975 . S
O764 C765 1.252 . S
C765 O764 1.252 . S
C765 O766 1.252 . S
O766 Zn748 1.975 . S
O766 C765 1.252 . S
H767 C760 0.930 . S
H768 C761 0.930 . S
C769 C770 1.392 . S
C769 N773 1.328 . S
C769 H775 0.930 . S
C770 C769 1.392 . S
C770 N774 1.331 . S
C771 C772 1.391 . S
C771 N774 1.329 . S
C771 H781 0.930 . S
C772 C771 1.391 . S
C772 N773 1.334 . S
C772 H779 0.930 . S
N773 Zn757 2.119 . S
N773 C769 1.328 . S
N773 C772 1.334 . S
N774 C770 1.331 . S
N774 C771 1.329 . S
H775 C769 0.930 . S
C776 O756 1.257 . S
C776 O777 1.244 . S
O777 C776 1.244 . S
O778 C754 1.257 . S
O778 Zn757 2.019 . S
H779 C772 0.930 . S
H780 C759 0.930 . S
H781 C771 0.930 . S
Zn782 N786 2.020 . S
Zn782 O790 2.019 . S
Zn782 N792 2.119 . S
Zn782 O800 1.975 . S
C783 N784 1.334 . S
C783 N787 1.336 . S
N784 C783 1.334 . S
N784 C785 1.334 . S
C785 N784 1.334 . S
C785 N786 1.336 . S
N786 Zn782 2.020 . S
N786 C785 1.336 . S
N786 N787 1.354 . S
N787 C783 1.336 . S
N787 N786 1.354 . S
N787 Zn791 2.020 . S
C788 O789 1.244 . S
C788 O812 1.257 . S
O789 C788 1.244 . S
O790 Zn782 2.019 . S
O790 C810 1.257 . S
Zn791 N787 2.020 . S
Zn791 O798 1.975 . S
Zn791 N807 2.119 . S
Zn791 O812 2.019 . S
N792 Zn782 2.119 . S
N792 C794 1.334 . S
N792 C795 1.328 . S
C793 C794 1.391 . S
C793 N796 1.329 . S
C793 H814 0.930 . S
C794 N792 1.334 . S
C794 C793 1.391 . S
C794 H801 0.930 . S
C795 N792 1.328 . S
C795 C797 1.392 . S
C795 H802 0.930 . S
N796 C793 1.329 . S
N796 C797 1.331 . S
C797 C795 1.392 . S
C797 N796 1.331 . S
O798 Zn791 1.975 . S
O798 C799 1.252 . S
C799 O798 1.252 . S
C799 O800 1.252 . S
O800 Zn782 1.975 . S
O800 C799 1.252 . S
H801 C794 0.930 . S
H802 C795 0.930 . S
C803 C804 1.392 . S
C803 N807 1.328 . S
C803 H809 0.930 . S
C804 C803 1.392 . S
C804 N808 1.331 . S
C805 C806 1.391 . S
C805 N808 1.329 . S
C805 H815 0.930 . S
C806 C805 1.391 . S
C806 N807 1.334 . S
C806 H813 0.930 . S
N807 Zn791 2.119 . S
N807 C803 1.328 . S
N807 C806 1.334 . S
N808 C804 1.331 . S
N808 C805 1.329 . S
H809 C803 0.930 . S
C810 O790 1.257 . S
C810 O811 1.244 . S
O811 C810 1.244 . S
O812 C788 1.257 . S
O812 Zn791 2.019 . S
H813 C806 0.930 . S
H814 C793 0.930 . S
H815 C805 0.930 . S
H816 C824 0.950 . S
H817 C829 0.950 . S
H818 C826 0.950 . S
H819 C828 0.950 . S
H820 C830 0.950 . S
H821 C832 0.950 . S
H822 C834 0.950 . S
H823 C835 0.950 . S
C824 H816 0.950 . S
C824 C825 1.386 . S
C824 C826 1.391 . S
C825 C824 1.386 . S
C825 C829 1.393 . S
C826 H818 0.950 . S
C826 C824 1.391 . S
C826 C827 1.400 . S
C827 C826 1.400 . S
C827 C828 1.398 . S
C827 C833 1.491 . S
C828 H819 0.950 . S
C828 C827 1.398 . S
C828 C829 1.391 . S
C829 H817 0.950 . S
C829 C825 1.393 . S
C829 C828 1.391 . S
C830 H820 0.950 . S
C830 C831 1.386 . S
C830 C832 1.391 . S
C831 C830 1.386 . S
C831 C835 1.393 . S
C832 H821 0.950 . S
C832 C830 1.391 . S
C832 C833 1.400 . S
C833 C827 1.491 . S
C833 C832 1.400 . S
C833 C834 1.398 . S
C834 H822 0.950 . S
C834 C833 1.398 . S
C834 C835 1.391 . S
C835 H823 0.950 . S
C835 C831 1.393 . S
C835 C834 1.391 . S
H836 C844 0.950 . S
H837 C849 0.950 . S
H838 C846 0.950 . S
H839 C848 0.950 . S
H840 C850 0.950 . S
H841 C852 0.950 . S
H842 C854 0.950 . S
H843 C855 0.950 . S
C844 H836 0.950 . S
C844 C845 1.386 . S
C844 C846 1.391 . S
C845 C844 1.386 . S
C845 C849 1.393 . S
C846 H838 0.950 . S
C846 C844 1.391 . S
C846 C847 1.400 . S
C847 C846 1.400 . S
C847 C848 1.398 . S
C847 C853 1.491 . S
C848 H839 0.950 . S
C848 C847 1.398 . S
C848 C849 1.391 . S
C849 H837 0.950 . S
C849 C845 1.393 . S
C849 C848 1.391 . S
C850 H840 0.950 . S
C850 C851 1.386 . S
C850 C852 1.391 . S
C851 C850 1.386 . S
C851 C855 1.393 . S
C852 H841 0.950 . S
C852 C850 1.391 . S
C852 C853 1.400 . S
C853 C847 1.491 . S
C853 C852 1.400 . S
C853 C854 1.398 . S
C854 H842 0.950 . S
C854 C853 1.398 . S
C854 C855 1.391 . S
C855 H843 0.950 . S
C855 C851 1.393 . S
C855 C854 1.391 . S
H856 C864 0.950 . S
H857 C869 0.942 1_655 S
H858 C866 0.950 . S
H859 C868 0.950 . S
H860 C870 0.950 . S
H861 C872 0.950 . S
H862 C874 0.950 . S
H863 C875 0.950 . S
C864 H856 0.950 . S
C864 C865 1.386 . S
C864 C866 1.391 . S
C865 C864 1.386 . S
C865 C869 1.393 . S
C866 H858 0.950 . S
C866 C864 1.391 . S
C866 C867 1.400 . S
C867 C866 1.400 . S
C867 C868 1.398 . S
C867 C873 1.491 . S
C868 H859 0.950 . S
C868 C867 1.398 . S
C868 C869 1.391 . S
C869 H857 0.942 1_455 S
C869 C865 1.393 . S
C869 C868 1.391 . S
C870 H860 0.950 . S
C870 C871 1.386 . S
C870 C872 1.391 . S
C871 C870 1.386 . S
C871 C875 1.393 . S
C872 H861 0.950 . S
C872 C870 1.391 . S
C872 C873 1.400 . S
C873 C867 1.491 . S
C873 C872 1.400 . S
C873 C874 1.398 . S
C874 H862 0.950 . S
C874 C873 1.398 . S
C874 C875 1.391 . S
C875 H863 0.950 . S
C875 C871 1.393 . S
C875 C874 1.391 . S
H876 C884 0.950 . S
H877 C889 0.950 . S
H878 C886 0.950 . S
H879 C888 0.950 . S
H880 C890 0.950 . S
H881 C892 0.950 . S
H882 C894 0.950 . S
H883 C895 0.950 . S
C884 H876 0.950 . S
C884 C885 1.386 . S
C884 C886 1.391 . S
C885 C884 1.386 . S
C885 C889 1.393 . S
C886 H878 0.950 . S
C886 C884 1.391 . S
C886 C887 1.400 . S
C887 C886 1.400 . S
C887 C888 1.398 . S
C887 C893 1.491 . S
C888 H879 0.950 . S
C888 C887 1.398 . S
C888 C889 1.391 . S
C889 H877 0.950 . S
C889 C885 1.393 . S
C889 C888 1.391 . S
C890 H880 0.950 . S
C890 C891 1.386 . S
C890 C892 1.391 . S
C891 C890 1.386 . S
C891 C895 1.393 . S
C892 H881 0.950 . S
C892 C890 1.391 . S
C892 C893 1.400 . S
C893 C887 1.491 . S
C893 C892 1.400 . S
C893 C894 1.398 . S
C894 H882 0.950 . S
C894 C893 1.398 . S
C894 C895 1.391 . S
C895 H883 0.950 . S
C895 C891 1.393 . S
C895 C894 1.391 . S
H896 C904 0.950 . S
H897 C909 0.950 . S
H898 C906 0.950 . S
H899 C908 0.950 . S
H900 C910 0.950 . S
H901 C912 0.950 . S
H902 C914 0.950 . S
H903 C915 0.950 . S
C904 H896 0.950 . S
C904 C905 1.386 . S
C904 C906 1.391 . S
C905 C904 1.386 . S
C905 C909 1.393 . S
C906 H898 0.950 . S
C906 C904 1.391 . S
C906 C907 1.400 . S
C907 C906 1.400 . S
C907 C908 1.398 . S
C907 C913 1.491 . S
C908 H899 0.950 . S
C908 C907 1.398 . S
C908 C909 1.391 . S
C909 H897 0.950 . S
C909 C905 1.393 . S
C909 C908 1.391 . S
C910 H900 0.950 . S
C910 C911 1.386 . S
C910 C912 1.391 . S
C911 C910 1.386 . S
C911 C915 1.393 . S
C912 H901 0.950 . S
C912 C910 1.391 . S
C912 C913 1.400 . S
C913 C907 1.491 . S
C913 C912 1.400 . S
C913 C914 1.398 . S
C914 H902 0.950 . S
C914 C913 1.398 . S
C914 C915 1.391 . S
C915 H903 0.950 . S
C915 C911 1.393 . S
C915 C914 1.391 . S
H916 C924 0.948 . S
H917 C929 0.950 . S
H918 C926 0.950 . S
H919 C928 0.950 . S
H920 C930 0.950 . S
H921 C932 0.950 . S
H922 C934 0.950 . S
H923 C935 0.950 . S
C924 H916 0.948 . S
C924 C925 1.386 . S
C924 C926 1.391 . S
C925 C924 1.386 . S
C925 C929 1.393 . S
C926 H918 0.950 . S
C926 C924 1.391 . S
C926 C927 1.400 . S
C927 C926 1.400 . S
C927 C928 1.398 . S
C927 C933 1.491 . S
C928 H919 0.950 . S
C928 C927 1.398 . S
C928 C929 1.391 . S
C929 H917 0.950 . S
C929 C925 1.393 . S
C929 C928 1.391 . S
C930 H920 0.950 . S
C930 C931 1.386 . S
C930 C932 1.391 . S
C931 C930 1.386 . S
C931 C935 1.393 . S
C932 H921 0.950 . S
C932 C930 1.391 . S
C932 C933 1.400 . S
C933 C927 1.491 . S
C933 C932 1.400 . S
C933 C934 1.398 . S
C934 H922 0.950 . S
C934 C933 1.398 . S
C934 C935 1.391 . S
C935 H923 0.950 . S
C935 C931 1.393 . S
C935 C934 1.391 . S
H936 C944 0.950 . S
H937 C949 0.950 . S
H938 C946 0.950 . S
H939 C948 0.950 . S
H940 C950 0.950 . S
H941 C952 0.950 . S
H942 C954 0.950 . S
H943 C955 0.950 . S
C944 H936 0.950 . S
C944 C945 1.386 . S
C944 C946 1.391 . S
C945 C944 1.386 . S
C945 C949 1.393 . S
C946 H938 0.950 . S
C946 C944 1.391 . S
C946 C947 1.400 . S
C947 C946 1.400 . S
C947 C948 1.398 . S
C947 C953 1.491 . S
C948 H939 0.950 . S
C948 C947 1.398 . S
C948 C949 1.391 . S
C949 H937 0.950 . S
C949 C945 1.393 . S
C949 C948 1.391 . S
C950 H940 0.950 . S
C950 C951 1.386 . S
C950 C952 1.391 . S
C951 C950 1.386 . S
C951 C955 1.393 . S
C952 H941 0.950 . S
C952 C950 1.391 . S
C952 C953 1.400 . S
C953 C947 1.491 . S
C953 C952 1.400 . S
C953 C954 1.398 . S
C954 H942 0.950 . S
C954 C953 1.398 . S
C954 C955 1.391 . S
C955 H943 0.950 . S
C955 C951 1.393 . S
C955 C954 1.391 . S
H956 C964 0.950 . S
H957 C969 0.950 . S
H958 C966 0.950 . S
H959 C968 0.950 . S
H960 C970 0.950 . S
H961 C972 0.950 . S
H962 C974 0.950 . S
H963 C975 0.950 1_565 S
C964 H956 0.950 . S
C964 C965 1.386 . S
C964 C966 1.391 . S
C965 C964 1.386 . S
C965 C969 1.393 . S
C966 H958 0.950 . S
C966 C964 1.391 . S
C966 C967 1.400 . S
C967 C966 1.400 . S
C967 C968 1.398 . S
C967 C973 1.491 . S
C968 H959 0.950 . S
C968 C967 1.398 . S
C968 C969 1.391 . S
C969 H957 0.950 . S
C969 C965 1.393 . S
C969 C968 1.391 . S
C970 H960 0.950 . S
C970 C971 1.386 . S
C970 C972 1.391 . S
C971 C970 1.386 . S
C971 C975 1.393 . S
C972 H961 0.950 . S
C972 C970 1.391 . S
C972 C973 1.400 . S
C973 C967 1.491 . S
C973 C972 1.400 . S
C973 C974 1.398 . S
C974 H962 0.950 . S
C974 C973 1.398 . S
C974 C975 1.391 . S
C975 H963 0.950 1_545 S
C975 C971 1.393 . S
C975 C974 1.391 . S
H976 C984 0.950 . S
H977 C989 0.950 . S
H978 C986 0.950 . S
H979 C988 0.950 . S
H980 C990 0.950 . S
H981 C992 0.950 . S
H982 C994 0.950 . S
H983 C995 0.950 . S
C984 H976 0.950 . S
C984 C985 1.386 . S
C984 C986 1.391 . S
C985 C984 1.386 . S
C985 C989 1.393 . S
C986 H978 0.950 . S
C986 C984 1.391 . S
C986 C987 1.400 . S
C987 C986 1.400 . S
C987 C988 1.398 . S
C987 C993 1.491 . S
C988 H979 0.950 . S
C988 C987 1.398 . S
C988 C989 1.391 . S
C989 H977 0.950 . S
C989 C985 1.393 . S
C989 C988 1.391 . S
C990 H980 0.950 . S
C990 C991 1.386 . S
C990 C992 1.391 . S
C991 C990 1.386 . S
C991 C995 1.393 . S
C992 H981 0.950 . S
C992 C990 1.391 . S
C992 C993 1.400 . S
C993 C987 1.491 . S
C993 C992 1.400 . S
C993 C994 1.398 . S
C994 H982 0.950 . S
C994 C993 1.398 . S
C994 C995 1.391 . S
C995 H983 0.950 . S
C995 C991 1.393 . S
C995 C994 1.391 . S
H996 C1004 0.968 . S
H997 C1009 0.950 . S
H998 C1006 0.950 . S
H999 C1008 0.950 . S
H1000 C1010 0.950 . S
H1001 C1012 0.950 . S
H1002 C1014 0.950 . S
H1003 C1015 0.950 . S
C1004 H996 0.968 . S
C1004 C1005 1.386 . S
C1004 C1006 1.391 . S
C1005 C1004 1.386 . S
C1005 C1009 1.393 . S
C1006 H998 0.950 . S
C1006 C1004 1.391 . S
C1006 C1007 1.400 . S
C1007 C1006 1.400 . S
C1007 C1008 1.398 . S
C1007 C1013 1.491 . S
C1008 H999 0.950 . S
C1008 C1007 1.398 . S
C1008 C1009 1.391 . S
C1009 H997 0.950 . S
C1009 C1005 1.393 . S
C1009 C1008 1.391 . S
C1010 H1000 0.950 . S
C1010 C1011 1.386 . S
C1010 C1012 1.391 . S
C1011 C1010 1.386 . S
C1011 C1015 1.393 . S
C1012 H1001 0.950 . S
C1012 C1010 1.391 . S
C1012 C1013 1.400 . S
C1013 C1007 1.491 . S
C1013 C1012 1.400 . S
C1013 C1014 1.398 . S
C1014 H1002 0.950 . S
C1014 C1013 1.398 . S
C1014 C1015 1.391 . S
C1015 H1003 0.950 . S
C1015 C1011 1.393 . S
C1015 C1014 1.391 . S
H1016 C1024 0.950 . S
H1017 C1029 0.950 . S
H1018 C1026 0.950 . S
H1019 C1028 0.950 . S
H1020 C1030 0.950 1_545 S
H1021 C1032 0.950 . S
H1022 C1034 0.950 . S
H1023 C1035 0.950 . S
C1024 H1016 0.950 . S
C1024 C1025 1.386 . S
C1024 C1026 1.391 . S
C1025 C1024 1.386 . S
C1025 C1029 1.393 . S
C1026 H1018 0.950 . S
C1026 C1024 1.391 . S
C1026 C1027 1.400 . S
C1027 C1026 1.400 . S
C1027 C1028 1.398 . S
C1027 C1033 1.491 . S
C1028 H1019 0.950 . S
C1028 C1027 1.398 . S
C1028 C1029 1.391 . S
C1029 H1017 0.950 . S
C1029 C1025 1.393 . S
C1029 C1028 1.391 . S
C1030 H1020 0.950 1_565 S
C1030 C1031 1.386 . S
C1030 C1032 1.391 . S
C1031 C1030 1.386 . S
C1031 C1035 1.393 . S
C1032 H1021 0.950 . S
C1032 C1030 1.391 . S
C1032 C1033 1.400 . S
C1033 C1027 1.491 . S
C1033 C1032 1.400 . S
C1033 C1034 1.398 . S
C1034 H1022 0.950 . S
C1034 C1033 1.398 . S
C1034 C1035 1.391 . S
C1035 H1023 0.950 . S
C1035 C1031 1.393 . S
C1035 C1034 1.391 . S
H1036 C1044 0.950 . S
H1037 C1049 0.950 . S
H1038 C1046 0.950 . S
H1039 C1048 0.950 . S
H1040 C1050 0.950 . S
H1041 C1052 0.950 . S
H1042 C1054 0.950 . S
H1043 C1055 0.950 . S
C1044 H1036 0.950 . S
C1044 C1045 1.386 . S
C1044 C1046 1.391 . S
C1045 C1044 1.386 . S
C1045 C1049 1.393 . S
C1046 H1038 0.950 . S
C1046 C1044 1.391 . S
C1046 C1047 1.400 . S
C1047 C1046 1.400 . S
C1047 C1048 1.398 . S
C1047 C1053 1.491 . S
C1048 H1039 0.950 . S
C1048 C1047 1.398 . S
C1048 C1049 1.391 . S
C1049 H1037 0.950 . S
C1049 C1045 1.393 . S
C1049 C1048 1.391 . S
C1050 H1040 0.950 . S
C1050 C1051 1.386 . S
C1050 C1052 1.391 . S
C1051 C1050 1.386 . S
C1051 C1055 1.393 . S
C1052 H1041 0.950 . S
C1052 C1050 1.391 . S
C1052 C1053 1.400 . S
C1053 C1047 1.491 . S
C1053 C1052 1.400 . S
C1053 C1054 1.398 . S
C1054 H1042 0.950 . S
C1054 C1053 1.398 . S
C1054 C1055 1.391 . S
C1055 H1043 0.950 . S
C1055 C1051 1.393 . S
C1055 C1054 1.391 . S
H1056 C1064 0.950 . S
H1057 C1069 0.950 . S
H1058 C1066 0.950 . S
H1059 C1068 0.950 . S
H1060 C1070 0.950 . S
H1061 C1072 0.950 . S
H1062 C1074 0.950 . S
H1063 C1075 0.950 1_565 S
C1064 H1056 0.950 . S
C1064 C1065 1.386 . S
C1064 C1066 1.391 . S
C1065 C1064 1.386 . S
C1065 C1069 1.393 . S
C1066 H1058 0.950 . S
C1066 C1064 1.391 . S
C1066 C1067 1.400 . S
C1067 C1066 1.400 . S
C1067 C1068 1.398 . S
C1067 C1073 1.491 . S
C1068 H1059 0.950 . S
C1068 C1067 1.398 . S
C1068 C1069 1.391 . S
C1069 H1057 0.950 . S
C1069 C1065 1.393 . S
C1069 C1068 1.391 . S
C1070 H1060 0.950 . S
C1070 C1071 1.386 . S
C1070 C1072 1.391 . S
C1071 C1070 1.386 . S
C1071 C1075 1.393 . S
C1072 H1061 0.950 . S
C1072 C1070 1.391 . S
C1072 C1073 1.400 . S
C1073 C1067 1.491 . S
C1073 C1072 1.400 . S
C1073 C1074 1.398 . S
C1074 H1062 0.950 . S
C1074 C1073 1.398 . S
C1074 C1075 1.391 . S
C1075 H1063 0.950 1_545 S
C1075 C1071 1.393 . S
C1075 C1074 1.391 . S
H1076 C1084 0.950 . S
H1077 C1089 0.950 . S
H1078 C1086 0.950 . S
H1079 C1088 0.950 . S
H1080 C1090 0.950 . S
H1081 C1092 0.950 . S
H1082 C1094 0.950 . S
H1083 C1095 0.950 . S
C1084 H1076 0.950 . S
C1084 C1085 1.386 . S
C1084 C1086 1.391 . S
C1085 C1084 1.386 . S
C1085 C1089 1.393 . S
C1086 H1078 0.950 . S
C1086 C1084 1.391 . S
C1086 C1087 1.400 . S
C1087 C1086 1.400 . S
C1087 C1088 1.398 . S
C1087 C1093 1.491 . S
C1088 H1079 0.950 . S
C1088 C1087 1.398 . S
C1088 C1089 1.391 . S
C1089 H1077 0.950 . S
C1089 C1085 1.393 . S
C1089 C1088 1.391 . S
C1090 H1080 0.950 . S
C1090 C1091 1.386 . S
C1090 C1092 1.391 . S
C1091 C1090 1.386 . S
C1091 C1095 1.393 . S
C1092 H1081 0.950 . S
C1092 C1090 1.391 . S
C1092 C1093 1.400 . S
C1093 C1087 1.491 . S
C1093 C1092 1.400 . S
C1093 C1094 1.398 . S
C1094 H1082 0.950 . S
C1094 C1093 1.398 . S
C1094 C1095 1.391 . S
C1095 H1083 0.950 . S
C1095 C1091 1.393 . S
C1095 C1094 1.391 . S
H1096 C1104 0.950 . S
H1097 C1109 0.950 . S
H1098 C1106 0.950 . S
H1099 C1108 0.950 . S
H1100 C1110 0.950 . S
H1101 C1112 0.950 . S
H1102 C1114 0.950 . S
H1103 C1115 0.950 . S
C1104 H1096 0.950 . S
C1104 C1105 1.386 . S
C1104 C1106 1.391 . S
C1105 C1104 1.386 . S
C1105 C1109 1.393 . S
C1106 H1098 0.950 . S
C1106 C1104 1.391 . S
C1106 C1107 1.400 . S
C1107 C1106 1.400 . S
C1107 C1108 1.398 . S
C1107 C1113 1.491 . S
C1108 H1099 0.950 . S
C1108 C1107 1.398 . S
C1108 C1109 1.391 . S
C1109 H1097 0.950 . S
C1109 C1105 1.393 . S
C1109 C1108 1.391 . S
C1110 H1100 0.950 . S
C1110 C1111 1.386 . S
C1110 C1112 1.391 . S
C1111 C1110 1.386 . S
C1111 C1115 1.393 . S
C1112 H1101 0.950 . S
C1112 C1110 1.391 . S
C1112 C1113 1.400 . S
C1113 C1107 1.491 . S
C1113 C1112 1.400 . S
C1113 C1114 1.398 . S
C1114 H1102 0.950 . S
C1114 C1113 1.398 . S
C1114 C1115 1.391 . S
C1115 H1103 0.950 . S
C1115 C1111 1.393 . S
C1115 C1114 1.391 . S
H1116 C1124 0.950 . S
H1117 C1129 0.950 1_545 S
H1118 C1126 0.950 . S
H1119 C1128 0.950 . S
H1120 C1130 0.950 . S
H1121 C1132 0.950 . S
H1122 C1134 0.950 . S
H1123 C1135 0.950 . S
C1124 H1116 0.950 . S
C1124 C1125 1.386 . S
C1124 C1126 1.391 . S
C1125 C1124 1.386 . S
C1125 C1129 1.393 . S
C1126 H1118 0.950 . S
C1126 C1124 1.391 . S
C1126 C1127 1.400 . S
C1127 C1126 1.400 . S
C1127 C1128 1.398 . S
C1127 C1133 1.491 . S
C1128 H1119 0.950 . S
C1128 C1127 1.398 . S
C1128 C1129 1.391 . S
C1129 H1117 0.950 1_565 S
C1129 C1125 1.393 . S
C1129 C1128 1.391 . S
C1130 H1120 0.950 . S
C1130 C1131 1.386 . S
C1130 C1132 1.391 . S
C1131 C1130 1.386 . S
C1131 C1135 1.393 . S
C1132 H1121 0.950 . S
C1132 C1130 1.391 . S
C1132 C1133 1.400 . S
C1133 C1127 1.491 . S
C1133 C1132 1.400 . S
C1133 C1134 1.398 . S
C1134 H1122 0.950 . S
C1134 C1133 1.398 . S
C1134 C1135 1.391 . S
C1135 H1123 0.950 . S
C1135 C1131 1.393 . S
C1135 C1134 1.391 . S
H1136 C1144 0.950 . S
H1137 C1149 0.950 . S
H1138 C1146 0.950 . S
H1139 C1148 0.950 . S
H1140 C1150 0.950 . S
H1141 C1152 0.950 . S
H1142 C1154 0.950 . S
H1143 C1155 0.950 . S
C1144 H1136 0.950 . S
C1144 C1145 1.386 . S
C1144 C1146 1.391 . S
C1145 C1144 1.386 . S
C1145 C1149 1.393 . S
C1146 H1138 0.950 . S
C1146 C1144 1.391 . S
C1146 C1147 1.400 . S
C1147 C1146 1.400 . S
C1147 C1148 1.398 . S
C1147 C1153 1.491 . S
C1148 H1139 0.950 . S
C1148 C1147 1.398 . S
C1148 C1149 1.391 . S
C1149 H1137 0.950 . S
C1149 C1145 1.393 . S
C1149 C1148 1.391 . S
C1150 H1140 0.950 . S
C1150 C1151 1.386 . S
C1150 C1152 1.391 . S
C1151 C1150 1.386 . S
C1151 C1155 1.393 . S
C1152 H1141 0.950 . S
C1152 C1150 1.391 . S
C1152 C1153 1.400 . S
C1153 C1147 1.491 . S
C1153 C1152 1.400 . S
C1153 C1154 1.398 . S
C1154 H1142 0.950 . S
C1154 C1153 1.398 . S
C1154 C1155 1.391 . S
C1155 H1143 0.950 . S
C1155 C1151 1.393 . S
C1155 C1154 1.391 . S
H1156 C1164 0.950 . S
H1157 C1169 0.950 1_655 S
H1158 C1166 0.950 . S
H1159 C1168 0.950 . S
H1160 C1170 0.950 . S
H1161 C1172 0.950 . S
H1162 C1174 0.950 . S
H1163 C1175 0.950 . S
C1164 H1156 0.950 . S
C1164 C1165 1.386 . S
C1164 C1166 1.391 . S
C1165 C1164 1.386 . S
C1165 C1169 1.393 . S
C1166 H1158 0.950 . S
C1166 C1164 1.391 . S
C1166 C1167 1.400 . S
C1167 C1166 1.400 . S
C1167 C1168 1.398 . S
C1167 C1173 1.491 . S
C1168 H1159 0.950 . S
C1168 C1167 1.398 . S
C1168 C1169 1.391 . S
C1169 H1157 0.950 1_455 S
C1169 C1165 1.393 . S
C1169 C1168 1.391 . S
C1170 H1160 0.950 . S
C1170 C1171 1.386 . S
C1170 C1172 1.391 . S
C1171 C1170 1.386 . S
C1171 C1175 1.393 . S
C1172 H1161 0.950 . S
C1172 C1170 1.391 . S
C1172 C1173 1.400 . S
C1173 C1167 1.491 . S
C1173 C1172 1.400 . S
C1173 C1174 1.398 . S
C1174 H1162 0.950 . S
C1174 C1173 1.398 . S
C1174 C1175 1.391 . S
C1175 H1163 0.950 . S
C1175 C1171 1.393 . S
C1175 C1174 1.391 . S
H1176 C1184 0.950 . S
H1177 C1189 0.950 . S
H1178 C1186 0.950 . S
H1179 C1188 0.950 . S
H1180 C1190 0.950 . S
H1181 C1192 0.950 . S
H1182 C1194 0.950 . S
H1183 C1195 0.950 . S
C1184 H1176 0.950 . S
C1184 C1185 1.386 . S
C1184 C1186 1.391 . S
C1185 C1184 1.386 . S
C1185 C1189 1.393 . S
C1186 H1178 0.950 . S
C1186 C1184 1.391 . S
C1186 C1187 1.400 . S
C1187 C1186 1.400 . S
C1187 C1188 1.398 . S
C1187 C1193 1.491 . S
C1188 H1179 0.950 . S
C1188 C1187 1.398 . S
C1188 C1189 1.391 . S
C1189 H1177 0.950 . S
C1189 C1185 1.393 . S
C1189 C1188 1.391 . S
C1190 H1180 0.950 . S
C1190 C1191 1.386 . S
C1190 C1192 1.391 . S
C1191 C1190 1.386 . S
C1191 C1195 1.393 . S
C1192 H1181 0.950 . S
C1192 C1190 1.391 . S
C1192 C1193 1.400 . S
C1193 C1187 1.491 . S
C1193 C1192 1.400 . S
C1193 C1194 1.398 . S
C1194 H1182 0.950 . S
C1194 C1193 1.398 . S
C1194 C1195 1.391 . S
C1195 H1183 0.950 . S
C1195 C1191 1.393 . S
C1195 C1194 1.391 . S
H1196 C1204 0.950 . S
H1197 C1209 0.950 . S
H1198 C1206 0.950 . S
H1199 C1208 0.950 . S
H1200 C1210 0.950 1_545 S
H1201 C1212 0.950 . S
H1202 C1214 0.950 . S
H1203 C1215 0.950 . S
C1204 H1196 0.950 . S
C1204 C1205 1.386 . S
C1204 C1206 1.391 . S
C1205 C1204 1.386 . S
C1205 C1209 1.393 . S
C1206 H1198 0.950 . S
C1206 C1204 1.391 . S
C1206 C1207 1.400 . S
C1207 C1206 1.400 . S
C1207 C1208 1.398 . S
C1207 C1213 1.491 . S
C1208 H1199 0.950 . S
C1208 C1207 1.398 . S
C1208 C1209 1.391 . S
C1209 H1197 0.950 . S
C1209 C1205 1.393 . S
C1209 C1208 1.391 . S
C1210 H1200 0.950 1_565 S
C1210 C1211 1.386 . S
C1210 C1212 1.391 . S
C1211 C1210 1.386 . S
C1211 C1215 1.393 . S
C1212 H1201 0.950 . S
C1212 C1210 1.391 . S
C1212 C1213 1.400 . S
C1213 C1207 1.491 . S
C1213 C1212 1.400 . S
C1213 C1214 1.398 . S
C1214 H1202 0.950 . S
C1214 C1213 1.398 . S
C1214 C1215 1.391 . S
C1215 H1203 0.950 . S
C1215 C1211 1.393 . S
C1215 C1214 1.391 . S
H1216 C1224 0.950 . S
H1217 C1229 0.950 . S
H1218 C1226 0.950 . S
H1219 C1228 0.950 . S
H1220 C1230 0.950 . S
H1221 C1232 0.950 . S
H1222 C1234 0.950 . S
H1223 C1235 0.950 . S
C1224 H1216 0.950 . S
C1224 C1225 1.386 . S
C1224 C1226 1.391 . S
C1225 C1224 1.386 . S
C1225 C1229 1.393 . S
C1226 H1218 0.950 . S
C1226 C1224 1.391 . S
C1226 C1227 1.400 . S
C1227 C1226 1.400 . S
C1227 C1228 1.398 . S
C1227 C1233 1.491 . S
C1228 H1219 0.950 . S
C1228 C1227 1.398 . S
C1228 C1229 1.391 . S
C1229 H1217 0.950 . S
C1229 C1225 1.393 . S
C1229 C1228 1.391 . S
C1230 H1220 0.950 . S
C1230 C1231 1.386 . S
C1230 C1232 1.391 . S
C1231 C1230 1.386 . S
C1231 C1235 1.393 . S
C1232 H1221 0.950 . S
C1232 C1230 1.391 . S
C1232 C1233 1.400 . S
C1233 C1227 1.491 . S
C1233 C1232 1.400 . S
C1233 C1234 1.398 . S
C1234 H1222 0.950 . S
C1234 C1233 1.398 . S
C1234 C1235 1.391 . S
C1235 H1223 0.950 . S
C1235 C1231 1.393 . S
C1235 C1234 1.391 . S
H1236 C1244 0.950 . S
H1237 C1249 0.950 1_655 S
H1238 C1246 0.950 . S
H1239 C1248 0.950 . S
H1240 C1250 0.950 . S
H1241 C1252 0.950 . S
H1242 C1254 0.950 . S
H1243 C1255 0.950 . S
C1244 H1236 0.950 . S
C1244 C1245 1.386 . S
C1244 C1246 1.391 . S
C1245 C1244 1.386 . S
C1245 C1249 1.393 . S
C1246 H1238 0.950 . S
C1246 C1244 1.391 . S
C1246 C1247 1.400 . S
C1247 C1246 1.400 . S
C1247 C1248 1.398 . S
C1247 C1253 1.491 . S
C1248 H1239 0.950 . S
C1248 C1247 1.398 . S
C1248 C1249 1.391 . S
C1249 H1237 0.950 1_455 S
C1249 C1245 1.393 . S
C1249 C1248 1.391 . S
C1250 H1240 0.950 . S
C1250 C1251 1.386 . S
C1250 C1252 1.391 . S
C1251 C1250 1.386 . S
C1251 C1255 1.393 . S
C1252 H1241 0.950 . S
C1252 C1250 1.391 . S
C1252 C1253 1.400 . S
C1253 C1247 1.491 . S
C1253 C1252 1.400 . S
C1253 C1254 1.398 . S
C1254 H1242 0.950 . S
C1254 C1253 1.398 . S
C1254 C1255 1.391 . S
C1255 H1243 0.950 . S
C1255 C1251 1.393 . S
C1255 C1254 1.391 . S
H1256 C1264 0.958 . S
H1257 C1269 0.950 . S
H1258 C1266 0.950 . S
H1259 C1268 0.950 . S
H1260 C1270 0.950 . S
H1261 C1272 0.950 . S
H1262 C1274 0.950 . S
H1263 C1275 0.950 . S
C1264 H1256 0.958 . S
C1264 C1265 1.386 . S
C1264 C1266 1.391 . S
C1265 C1264 1.386 . S
C1265 C1269 1.393 . S
C1266 H1258 0.950 . S
C1266 C1264 1.391 . S
C1266 C1267 1.400 . S
C1267 C1266 1.400 . S
C1267 C1268 1.398 . S
C1267 C1273 1.491 . S
C1268 H1259 0.950 . S
C1268 C1267 1.398 . S
C1268 C1269 1.391 . S
C1269 H1257 0.950 . S
C1269 C1265 1.393 . S
C1269 C1268 1.391 . S
C1270 H1260 0.950 . S
C1270 C1271 1.386 . S
C1270 C1272 1.391 . S
C1271 C1270 1.386 . S
C1271 C1275 1.393 . S
C1272 H1261 0.950 . S
C1272 C1270 1.391 . S
C1272 C1273 1.400 . S
C1273 C1267 1.491 . S
C1273 C1272 1.400 . S
C1273 C1274 1.398 . S
C1274 H1262 0.950 . S
C1274 C1273 1.398 . S
C1274 C1275 1.391 . S
C1275 H1263 0.950 . S
C1275 C1271 1.393 . S
C1275 C1274 1.391 . S
H1276 C1284 0.950 . S
H1277 C1289 0.950 . S
H1278 C1286 0.950 . S
H1279 C1288 0.950 . S
H1280 C1290 0.950 . S
H1281 C1292 0.950 . S
H1282 C1294 0.950 . S
H1283 C1295 0.950 . S
C1284 H1276 0.950 . S
C1284 C1285 1.386 . S
C1284 C1286 1.391 . S
C1285 C1284 1.386 . S
C1285 C1289 1.393 . S
C1286 H1278 0.950 . S
C1286 C1284 1.391 . S
C1286 C1287 1.400 . S
C1287 C1286 1.400 . S
C1287 C1288 1.398 . S
C1287 C1293 1.491 . S
C1288 H1279 0.950 . S
C1288 C1287 1.398 . S
C1288 C1289 1.391 . S
C1289 H1277 0.950 . S
C1289 C1285 1.393 . S
C1289 C1288 1.391 . S
C1290 H1280 0.950 . S
C1290 C1291 1.386 . S
C1290 C1292 1.391 . S
C1291 C1290 1.386 . S
C1291 C1295 1.393 . S
C1292 H1281 0.950 . S
C1292 C1290 1.391 . S
C1292 C1293 1.400 . S
C1293 C1287 1.491 . S
C1293 C1292 1.400 . S
C1293 C1294 1.398 . S
C1294 H1282 0.950 . S
C1294 C1293 1.398 . S
C1294 C1295 1.391 . S
C1295 H1283 0.950 . S
C1295 C1291 1.393 . S
C1295 C1294 1.391 . S
H1296 C1304 0.950 . S
H1297 C1309 0.950 . S
H1298 C1306 0.950 . S
H1299 C1308 0.950 . S
H1300 C1310 0.950 . S
H1301 C1312 0.950 . S
H1302 C1314 0.950 . S
H1303 C1315 0.950 . S
C1304 H1296 0.950 . S
C1304 C1305 1.386 . S
C1304 C1306 1.391 . S
C1305 C1304 1.386 . S
C1305 C1309 1.393 . S
C1306 H1298 0.950 . S
C1306 C1304 1.391 . S
C1306 C1307 1.400 . S
C1307 C1306 1.400 . S
C1307 C1308 1.398 . S
C1307 C1313 1.491 1_554 S
C1308 H1299 0.950 . S
C1308 C1307 1.398 . S
C1308 C1309 1.391 . S
C1309 H1297 0.950 . S
C1309 C1305 1.393 . S
C1309 C1308 1.391 . S
C1310 H1300 0.950 . S
C1310 C1311 1.386 . S
C1310 C1312 1.391 . S
C1311 C1310 1.386 . S
C1311 C1315 1.393 . S
C1312 H1301 0.950 . S
C1312 C1310 1.391 . S
C1312 C1313 1.400 . S
C1313 C1307 1.491 1_556 S
C1313 C1312 1.400 . S
C1313 C1314 1.398 . S
C1314 H1302 0.950 . S
C1314 C1313 1.398 . S
C1314 C1315 1.391 . S
C1315 H1303 0.950 . S
C1315 C1311 1.393 . S
C1315 C1314 1.391 . S
H1316 C1324 0.950 . S
H1317 C1329 0.950 . S
H1318 C1326 0.950 . S
H1319 C1328 0.950 . S
H1320 C1330 0.950 . S
H1321 C1332 0.950 . S
H1322 C1334 0.950 . S
H1323 C1335 0.950 . S
C1324 H1316 0.950 . S
C1324 C1325 1.386 . S
C1324 C1326 1.391 . S
C1325 C1324 1.386 . S
C1325 C1329 1.393 . S
C1326 H1318 0.950 . S
C1326 C1324 1.391 . S
C1326 C1327 1.400 . S
C1327 C1326 1.400 . S
C1327 C1328 1.398 . S
C1327 C1333 1.491 1_554 S
C1328 H1319 0.950 . S
C1328 C1327 1.398 . S
C1328 C1329 1.391 . S
C1329 H1317 0.950 . S
C1329 C1325 1.393 . S
C1329 C1328 1.391 . S
C1330 H1320 0.950 . S
C1330 C1331 1.386 . S
C1330 C1332 1.391 . S
C1331 C1330 1.386 . S
C1331 C1335 1.393 . S
C1332 H1321 0.950 . S
C1332 C1330 1.391 . S
C1332 C1333 1.400 . S
C1333 C1327 1.491 1_556 S
C1333 C1332 1.400 . S
C1333 C1334 1.398 . S
C1334 H1322 0.950 . S
C1334 C1333 1.398 . S
C1334 C1335 1.391 . S
C1335 H1323 0.950 . S
C1335 C1331 1.393 . S
C1335 C1334 1.391 . S
H1336 C1344 0.950 . S
H1337 C1349 0.950 . S
H1338 C1346 0.950 . S
H1339 C1348 0.950 . S
H1340 C1350 0.950 . S
H1341 C1352 0.950 . S
H1342 C1354 0.950 . S
H1343 C1355 0.950 . S
C1344 H1336 0.950 . S
C1344 C1345 1.386 . S
C1344 C1346 1.391 . S
C1345 C1344 1.386 . S
C1345 C1349 1.393 . S
C1346 H1338 0.950 . S
C1346 C1344 1.391 . S
C1346 C1347 1.400 . S
C1347 C1346 1.400 . S
C1347 C1348 1.398 . S
C1347 C1353 1.491 1_554 S
C1348 H1339 0.950 . S
C1348 C1347 1.398 . S
C1348 C1349 1.391 . S
C1349 H1337 0.950 . S
C1349 C1345 1.393 . S
C1349 C1348 1.391 . S
C1350 H1340 0.950 . S
C1350 C1351 1.386 . S
C1350 C1352 1.391 . S
C1351 C1350 1.386 . S
C1351 C1355 1.393 . S
C1352 H1341 0.950 . S
C1352 C1350 1.391 . S
C1352 C1353 1.400 . S
C1353 C1347 1.491 1_556 S
C1353 C1352 1.400 . S
C1353 C1354 1.398 . S
C1354 H1342 0.950 . S
C1354 C1353 1.398 . S
C1354 C1355 1.391 . S
C1355 H1343 0.950 . S
C1355 C1351 1.393 . S
C1355 C1354 1.391 . S
H1356 C1364 0.950 . S
H1357 C1369 0.950 . S
H1358 C1366 0.950 . S
H1359 C1368 0.950 . S
H1360 C1370 0.950 . S
H1361 C1372 0.950 . S
H1362 C1374 0.950 . S
H1363 C1375 0.950 . S
C1364 H1356 0.950 . S
C1364 C1365 1.386 . S
C1364 C1366 1.391 . S
C1365 C1364 1.386 . S
C1365 C1369 1.393 . S
C1366 H1358 0.950 . S
C1366 C1364 1.391 . S
C1366 C1367 1.400 . S
C1367 C1366 1.400 . S
C1367 C1368 1.398 . S
C1367 C1373 1.491 1_556 S
C1368 H1359 0.950 . S
C1368 C1367 1.398 . S
C1368 C1369 1.391 . S
C1369 H1357 0.950 . S
C1369 C1365 1.393 . S
C1369 C1368 1.391 . S
C1370 H1360 0.950 . S
C1370 C1371 1.386 . S
C1370 C1372 1.391 . S
C1371 C1370 1.386 . S
C1371 C1375 1.393 . S
C1372 H1361 0.950 . S
C1372 C1370 1.391 . S
C1372 C1373 1.400 . S
C1373 C1367 1.491 1_554 S
C1373 C1372 1.400 . S
C1373 C1374 1.398 . S
C1374 H1362 0.950 . S
C1374 C1373 1.398 . S
C1374 C1375 1.391 . S
C1375 H1363 0.950 . S
C1375 C1371 1.393 . S
C1375 C1374 1.391 . S
H1376 C1384 0.950 . S
H1377 C1389 0.950 . S
H1378 C1386 0.950 . S
H1379 C1388 0.950 . S
H1380 C1390 0.950 . S
H1381 C1392 0.950 . S
H1382 C1394 0.950 . S
H1383 C1395 0.950 . S
C1384 H1376 0.950 . S
C1384 C1385 1.386 . S
C1384 C1386 1.391 . S
C1385 C1384 1.386 . S
C1385 C1389 1.393 . S
C1386 H1378 0.950 . S
C1386 C1384 1.391 . S
C1386 C1387 1.400 . S
C1387 C1386 1.400 . S
C1387 C1388 1.398 . S
C1387 C1393 1.491 1_554 S
C1388 H1379 0.950 . S
C1388 C1387 1.398 . S
C1388 C1389 1.391 . S
C1389 H1377 0.950 . S
C1389 C1385 1.393 . S
C1389 C1388 1.391 . S
C1390 H1380 0.950 . S
C1390 C1391 1.386 . S
C1390 C1392 1.391 . S
C1391 C1390 1.386 . S
C1391 C1395 1.393 . S
C1392 H1381 0.950 . S
C1392 C1390 1.391 . S
C1392 C1393 1.400 . S
C1393 C1387 1.491 1_556 S
C1393 C1392 1.400 . S
C1393 C1394 1.398 . S
C1394 H1382 0.950 . S
C1394 C1393 1.398 . S
C1394 C1395 1.391 . S
C1395 H1383 0.950 . S
C1395 C1391 1.393 . S
C1395 C1394 1.391 . S
H1396 C1404 0.950 . S
H1397 C1409 0.950 . S
H1398 C1406 0.950 . S
H1399 C1408 0.950 . S
H1400 C1410 0.950 . S
H1401 C1412 0.950 . S
H1402 C1414 0.950 . S
H1403 C1415 0.950 . S
C1404 H1396 0.950 . S
C1404 C1405 1.386 . S
C1404 C1406 1.391 . S
C1405 C1404 1.386 . S
C1405 C1409 1.393 . S
C1406 H1398 0.950 . S
C1406 C1404 1.391 . S
C1406 C1407 1.400 . S
C1407 C1406 1.400 . S
C1407 C1408 1.398 . S
C1407 C1413 1.491 1_554 S
C1408 H1399 0.950 . S
C1408 C1407 1.398 . S
C1408 C1409 1.391 . S
C1409 H1397 0.950 . S
C1409 C1405 1.393 . S
C1409 C1408 1.391 . S
C1410 H1400 0.950 . S
C1410 C1411 1.386 . S
C1410 C1412 1.391 . S
C1411 C1410 1.386 . S
C1411 C1415 1.393 . S
C1412 H1401 0.950 . S
C1412 C1410 1.391 . S
C1412 C1413 1.400 . S
C1413 C1407 1.491 1_556 S
C1413 C1412 1.400 . S
C1413 C1414 1.398 . S
C1414 H1402 0.950 . S
C1414 C1413 1.398 . S
C1414 C1415 1.391 . S
C1415 H1403 0.950 . S
C1415 C1411 1.393 . S
C1415 C1414 1.391 . S
H1416 C1424 0.950 . S
H1417 C1429 0.950 . S
H1418 C1426 0.950 . S
H1419 C1428 0.950 . S
H1420 C1430 0.950 . S
H1421 C1432 0.950 . S
H1422 C1434 0.950 . S
H1423 C1435 0.950 . S
C1424 H1416 0.950 . S
C1424 C1425 1.386 . S
C1424 C1426 1.391 . S
C1425 C1424 1.386 . S
C1425 C1429 1.393 . S
C1426 H1418 0.950 . S
C1426 C1424 1.391 . S
C1426 C1427 1.400 . S
C1427 C1426 1.400 . S
C1427 C1428 1.398 . S
C1427 C1433 1.491 . S
C1428 H1419 0.950 . S
C1428 C1427 1.398 . S
C1428 C1429 1.391 . S
C1429 H1417 0.950 . S
C1429 C1425 1.393 . S
C1429 C1428 1.391 . S
C1430 H1420 0.950 . S
C1430 C1431 1.386 . S
C1430 C1432 1.391 . S
C1431 C1430 1.386 . S
C1431 C1435 1.393 . S
C1432 H1421 0.950 . S
C1432 C1430 1.391 . S
C1432 C1433 1.400 . S
C1433 C1427 1.491 . S
C1433 C1432 1.400 . S
C1433 C1434 1.398 . S
C1434 H1422 0.950 . S
C1434 C1433 1.398 . S
C1434 C1435 1.391 . S
C1435 H1423 0.950 . S
C1435 C1431 1.393 . S
C1435 C1434 1.391 . S
H1436 C1444 0.950 . S
H1437 C1449 0.950 . S
H1438 C1446 0.950 . S
H1439 C1448 0.950 . S
H1440 C1450 0.950 . S
H1441 C1452 0.950 . S
H1442 C1454 0.950 . S
H1443 C1455 0.950 . S
C1444 H1436 0.950 . S
C1444 C1445 1.386 . S
C1444 C1446 1.391 . S
C1445 C1444 1.386 . S
C1445 C1449 1.393 . S
C1446 H1438 0.950 . S
C1446 C1444 1.391 . S
C1446 C1447 1.400 . S
C1447 C1446 1.400 . S
C1447 C1448 1.398 . S
C1447 C1453 1.491 . S
C1448 H1439 0.950 . S
C1448 C1447 1.398 . S
C1448 C1449 1.391 . S
C1449 H1437 0.950 . S
C1449 C1445 1.393 . S
C1449 C1448 1.391 . S
C1450 H1440 0.950 . S
C1450 C1451 1.386 . S
C1450 C1452 1.391 . S
C1451 C1450 1.386 . S
C1451 C1455 1.393 . S
C1452 H1441 0.950 . S
C1452 C1450 1.391 . S
C1452 C1453 1.400 . S
C1453 C1447 1.491 . S
C1453 C1452 1.400 . S
C1453 C1454 1.398 . S
C1454 H1442 0.950 . S
C1454 C1453 1.398 . S
C1454 C1455 1.391 . S
C1455 H1443 0.950 . S
C1455 C1451 1.393 . S
C1455 C1454 1.391 . S
H1456 C1464 0.950 . S
H1457 C1469 0.950 . S
H1458 C1466 0.950 . S
H1459 C1468 0.950 . S
H1460 C1470 0.950 . S
H1461 C1472 0.950 . S
H1462 C1474 0.950 . S
H1463 C1475 0.950 . S
C1464 H1456 0.950 . S
C1464 C1465 1.386 . S
C1464 C1466 1.391 . S
C1465 C1464 1.386 . S
C1465 C1469 1.393 . S
C1466 H1458 0.950 . S
C1466 C1464 1.391 . S
C1466 C1467 1.400 . S
C1467 C1466 1.400 . S
C1467 C1468 1.398 . S
C1467 C1473 1.491 . S
C1468 H1459 0.950 . S
C1468 C1467 1.398 . S
C1468 C1469 1.391 . S
C1469 H1457 0.950 . S
C1469 C1465 1.393 . S
C1469 C1468 1.391 . S
C1470 H1460 0.950 . S
C1470 C1471 1.386 . S
C1470 C1472 1.391 . S
C1471 C1470 1.386 . S
C1471 C1475 1.393 . S
C1472 H1461 0.950 . S
C1472 C1470 1.391 . S
C1472 C1473 1.400 . S
C1473 C1467 1.491 . S
C1473 C1472 1.400 . S
C1473 C1474 1.398 . S
C1474 H1462 0.950 . S
C1474 C1473 1.398 . S
C1474 C1475 1.391 . S
C1475 H1463 0.950 . S
C1475 C1471 1.393 . S
C1475 C1474 1.391 . S
H1476 C1484 0.950 . S
H1477 C1489 0.950 . S
H1478 C1486 0.950 . S
H1479 C1488 0.950 . S
H1480 C1490 0.950 . S
H1481 C1492 0.950 . S
H1482 C1494 0.950 . S
H1483 C1495 0.950 . S
C1484 H1476 0.950 . S
C1484 C1485 1.386 . S
C1484 C1486 1.391 . S
C1485 C1484 1.386 . S
C1485 C1489 1.393 . S
C1486 H1478 0.950 . S
C1486 C1484 1.391 . S
C1486 C1487 1.400 . S
C1487 C1486 1.400 . S
C1487 C1488 1.398 . S
C1487 C1493 1.491 . S
C1488 H1479 0.950 . S
C1488 C1487 1.398 . S
C1488 C1489 1.391 . S
C1489 H1477 0.950 . S
C1489 C1485 1.393 . S
C1489 C1488 1.391 . S
C1490 H1480 0.950 . S
C1490 C1491 1.386 . S
C1490 C1492 1.391 . S
C1491 C1490 1.386 . S
C1491 C1495 1.393 . S
C1492 H1481 0.950 . S
C1492 C1490 1.391 . S
C1492 C1493 1.400 . S
C1493 C1487 1.491 . S
C1493 C1492 1.400 . S
C1493 C1494 1.398 . S
C1494 H1482 0.950 . S
C1494 C1493 1.398 . S
C1494 C1495 1.391 . S
C1495 H1483 0.950 . S
C1495 C1491 1.393 . S
C1495 C1494 1.391 . S
H1496 C1504 0.950 . S
H1497 C1509 0.950 . S
H1498 C1506 0.950 . S
H1499 C1508 0.950 . S
H1500 C1510 0.950 . S
H1501 C1512 0.950 . S
H1502 C1514 0.950 . S
H1503 C1515 0.950 . S
C1504 H1496 0.950 . S
C1504 C1505 1.386 . S
C1504 C1506 1.391 . S
C1505 C1504 1.386 . S
C1505 C1509 1.393 . S
C1506 H1498 0.950 . S
C1506 C1504 1.391 . S
C1506 C1507 1.400 . S
C1507 C1506 1.400 . S
C1507 C1508 1.398 . S
C1507 C1513 1.491 . S
C1508 H1499 0.950 . S
C1508 C1507 1.398 . S
C1508 C1509 1.391 . S
C1509 H1497 0.950 . S
C1509 C1505 1.393 . S
C1509 C1508 1.391 . S
C1510 H1500 0.950 . S
C1510 C1511 1.386 . S
C1510 C1512 1.391 . S
C1511 C1510 1.386 . S
C1511 C1515 1.393 . S
C1512 H1501 0.950 . S
C1512 C1510 1.391 . S
C1512 C1513 1.400 . S
C1513 C1507 1.491 . S
C1513 C1512 1.400 . S
C1513 C1514 1.398 . S
C1514 H1502 0.950 . S
C1514 C1513 1.398 . S
C1514 C1515 1.391 . S
C1515 H1503 0.950 . S
C1515 C1511 1.393 . S
C1515 C1514 1.391 . S
H1516 C1524 0.950 . S
H1517 C1529 0.950 . S
H1518 C1526 0.950 . S
H1519 C1528 0.950 . S
H1520 C1530 0.950 . S
H1521 C1532 0.950 . S
H1522 C1534 0.950 . S
H1523 C1535 0.950 . S
C1524 H1516 0.950 . S
C1524 C1525 1.386 . S
C1524 C1526 1.391 . S
C1525 C1524 1.386 . S
C1525 C1529 1.393 . S
C1526 H1518 0.950 . S
C1526 C1524 1.391 . S
C1526 C1527 1.400 . S
C1527 C1526 1.400 . S
C1527 C1528 1.398 . S
C1527 C1533 1.491 . S
C1528 H1519 0.950 . S
C1528 C1527 1.398 . S
C1528 C1529 1.391 . S
C1529 H1517 0.950 . S
C1529 C1525 1.393 . S
C1529 C1528 1.391 . S
C1530 H1520 0.950 . S
C1530 C1531 1.386 . S
C1530 C1532 1.391 . S
C1531 C1530 1.386 . S
C1531 C1535 1.393 . S
C1532 H1521 0.950 . S
C1532 C1530 1.391 . S
C1532 C1533 1.400 . S
C1533 C1527 1.491 . S
C1533 C1532 1.400 . S
C1533 C1534 1.398 . S
C1534 H1522 0.950 . S
C1534 C1533 1.398 . S
C1534 C1535 1.391 . S
C1535 H1523 0.950 . S
C1535 C1531 1.393 . S
C1535 C1534 1.391 . S
H1536 C1544 0.950 . S
H1537 C1549 0.950 . S
H1538 C1546 0.950 . S
H1539 C1548 0.950 . S
H1540 C1550 0.950 . S
H1541 C1552 0.950 . S
H1542 C1554 0.950 . S
H1543 C1555 0.950 . S
C1544 H1536 0.950 . S
C1544 C1545 1.386 . S
C1544 C1546 1.391 . S
C1545 C1544 1.386 . S
C1545 C1549 1.393 . S
C1546 H1538 0.950 . S
C1546 C1544 1.391 . S
C1546 C1547 1.400 . S
C1547 C1546 1.400 . S
C1547 C1548 1.398 . S
C1547 C1553 1.491 . S
C1548 H1539 0.950 . S
C1548 C1547 1.398 . S
C1548 C1549 1.391 . S
C1549 H1537 0.950 . S
C1549 C1545 1.393 . S
C1549 C1548 1.391 . S
C1550 H1540 0.950 . S
C1550 C1551 1.386 . S
C1550 C1552 1.391 . S
C1551 C1550 1.386 . S
C1551 C1555 1.393 . S
C1552 H1541 0.950 . S
C1552 C1550 1.391 . S
C1552 C1553 1.400 . S
C1553 C1547 1.491 . S
C1553 C1552 1.400 . S
C1553 C1554 1.398 . S
C1554 H1542 0.950 . S
C1554 C1553 1.398 . S
C1554 C1555 1.391 . S
C1555 H1543 0.950 . S
C1555 C1551 1.393 . S
C1555 C1554 1.391 . S
H1556 C1564 0.950 . S
H1557 C1569 0.950 . S
H1558 C1566 0.950 . S
H1559 C1568 0.950 . S
H1560 C1570 0.950 . S
H1561 C1572 0.950 . S
H1562 C1574 0.950 . S
H1563 C1575 0.950 . S
C1564 H1556 0.950 . S
C1564 C1565 1.386 . S
C1564 C1566 1.391 . S
C1565 C1564 1.386 . S
C1565 C1569 1.393 . S
C1566 H1558 0.950 . S
C1566 C1564 1.391 . S
C1566 C1567 1.400 . S
C1567 C1566 1.400 . S
C1567 C1568 1.398 . S
C1567 C1573 1.491 . S
C1568 H1559 0.950 . S
C1568 C1567 1.398 . S
C1568 C1569 1.391 . S
C1569 H1557 0.950 . S
C1569 C1565 1.393 . S
C1569 C1568 1.391 . S
C1570 H1560 0.950 . S
C1570 C1571 1.386 . S
C1570 C1572 1.391 . S
C1571 C1570 1.386 . S
C1571 C1575 1.393 . S
C1572 H1561 0.950 . S
C1572 C1570 1.391 . S
C1572 C1573 1.400 . S
C1573 C1567 1.491 . S
C1573 C1572 1.400 . S
C1573 C1574 1.398 . S
C1574 H1562 0.950 . S
C1574 C1573 1.398 . S
C1574 C1575 1.391 . S
C1575 H1563 0.950 . S
C1575 C1571 1.393 . S
C1575 C1574 1.391 . S
H1576 C1584 0.950 . S
H1577 C1589 0.950 . S
H1578 C1586 0.950 . S
H1579 C1588 0.950 . S
H1580 C1590 0.950 . S
H1581 C1592 0.950 . S
H1582 C1594 0.950 . S
H1583 C1595 0.950 . S
C1584 H1576 0.950 . S
C1584 C1585 1.386 . S
C1584 C1586 1.391 . S
C1585 C1584 1.386 . S
C1585 C1589 1.393 . S
C1586 H1578 0.950 . S
C1586 C1584 1.391 . S
C1586 C1587 1.400 . S
C1587 C1586 1.400 . S
C1587 C1588 1.398 . S
C1587 C1593 1.491 . S
C1588 H1579 0.950 . S
C1588 C1587 1.398 . S
C1588 C1589 1.391 . S
C1589 H1577 0.950 . S
C1589 C1585 1.393 . S
C1589 C1588 1.391 . S
C1590 H1580 0.950 . S
C1590 C1591 1.386 . S
C1590 C1592 1.391 . S
C1591 C1590 1.386 . S
C1591 C1595 1.393 . S
C1592 H1581 0.950 . S
C1592 C1590 1.391 . S
C1592 C1593 1.400 . S
C1593 C1587 1.491 . S
C1593 C1592 1.400 . S
C1593 C1594 1.398 . S
C1594 H1582 0.950 . S
C1594 C1593 1.398 . S
C1594 C1595 1.391 . S
C1595 H1583 0.950 . S
C1595 C1591 1.393 . S
C1595 C1594 1.391 . S
H1596 C1604 0.950 . S
H1597 C1609 0.950 . S
H1598 C1606 0.950 . S
H1599 C1608 0.950 . S
H1600 C1610 0.950 . S
H1601 C1612 0.950 . S
H1602 C1614 0.950 . S
H1603 C1615 0.950 . S
C1604 H1596 0.950 . S
C1604 C1605 1.386 . S
C1604 C1606 1.391 . S
C1605 C1604 1.386 . S
C1605 C1609 1.393 . S
C1606 H1598 0.950 . S
C1606 C1604 1.391 . S
C1606 C1607 1.400 . S
C1607 C1606 1.400 . S
C1607 C1608 1.398 . S
C1607 C1613 1.491 . S
C1608 H1599 0.950 . S
C1608 C1607 1.398 . S
C1608 C1609 1.391 . S
C1609 H1597 0.950 . S
C1609 C1605 1.393 . S
C1609 C1608 1.391 . S
C1610 H1600 0.950 . S
C1610 C1611 1.386 . S
C1610 C1612 1.391 . S
C1611 C1610 1.386 . S
C1611 C1615 1.393 . S
C1612 H1601 0.950 . S
C1612 C1610 1.391 . S
C1612 C1613 1.400 . S
C1613 C1607 1.491 . S
C1613 C1612 1.400 . S
C1613 C1614 1.398 . S
C1614 H1602 0.950 . S
C1614 C1613 1.398 . S
C1614 C1615 1.391 . S
C1615 H1603 0.950 . S
C1615 C1611 1.393 . S
C1615 C1614 1.391 . S
H1616 C1624 0.950 . S
H1617 C1629 0.950 . S
H1618 C1626 0.950 . S
H1619 C1628 0.950 . S
H1620 C1630 0.950 . S
H1621 C1632 0.950 . S
H1622 C1634 0.950 . S
H1623 C1635 0.950 . S
C1624 H1616 0.950 . S
C1624 C1625 1.386 . S
C1624 C1626 1.391 . S
C1625 C1624 1.386 . S
C1625 C1629 1.393 . S
C1626 H1618 0.950 . S
C1626 C1624 1.391 . S
C1626 C1627 1.400 . S
C1627 C1626 1.400 . S
C1627 C1628 1.398 . S
C1627 C1633 1.491 . S
C1628 H1619 0.950 . S
C1628 C1627 1.398 . S
C1628 C1629 1.391 . S
C1629 H1617 0.950 . S
C1629 C1625 1.393 . S
C1629 C1628 1.391 . S
C1630 H1620 0.950 . S
C1630 C1631 1.386 . S
C1630 C1632 1.391 . S
C1631 C1630 1.386 . S
C1631 C1635 1.393 . S
C1632 H1621 0.950 . S
C1632 C1630 1.391 . S
C1632 C1633 1.400 . S
C1633 C1627 1.491 . S
C1633 C1632 1.400 . S
C1633 C1634 1.398 . S
C1634 H1622 0.950 . S
C1634 C1633 1.398 . S
C1634 C1635 1.391 . S
C1635 H1623 0.950 . S
C1635 C1631 1.393 . S
C1635 C1634 1.391 . S
H1636 C1644 0.950 . S
H1637 C1649 0.950 . S
H1638 C1646 0.950 . S
H1639 C1648 0.950 . S
H1640 C1650 0.950 . S
H1641 C1652 0.950 . S
H1642 C1654 0.950 . S
H1643 C1655 0.950 . S
C1644 H1636 0.950 . S
C1644 C1645 1.386 . S
C1644 C1646 1.391 . S
C1645 C1644 1.386 . S
C1645 C1649 1.393 . S
C1646 H1638 0.950 . S
C1646 C1644 1.391 . S
C1646 C1647 1.400 . S
C1647 C1646 1.400 . S
C1647 C1648 1.398 . S
C1647 C1653 1.491 . S
C1648 H1639 0.950 . S
C1648 C1647 1.398 . S
C1648 C1649 1.391 . S
C1649 H1637 0.950 . S
C1649 C1645 1.393 . S
C1649 C1648 1.391 . S
C1650 H1640 0.950 . S
C1650 C1651 1.386 . S
C1650 C1652 1.391 . S
C1651 C1650 1.386 . S
C1651 C1655 1.393 . S
C1652 H1641 0.950 . S
C1652 C1650 1.391 . S
C1652 C1653 1.400 . S
C1653 C1647 1.491 . S
C1653 C1652 1.400 . S
C1653 C1654 1.398 . S
C1654 H1642 0.950 . S
C1654 C1653 1.398 . S
C1654 C1655 1.391 . S
C1655 H1643 0.950 . S
C1655 C1651 1.393 . S
C1655 C1654 1.391 . S
H1656 C1664 0.950 . S
H1657 C1669 0.950 . S
H1658 C1666 0.950 . S
H1659 C1668 0.950 . S
H1660 C1670 0.950 . S
H1661 C1672 0.950 . S
H1662 C1674 0.950 . S
H1663 C1675 0.950 . S
C1664 H1656 0.950 . S
C1664 C1665 1.386 . S
C1664 C1666 1.391 . S
C1665 C1664 1.386 . S
C1665 C1669 1.393 . S
C1666 H1658 0.950 . S
C1666 C1664 1.391 . S
C1666 C1667 1.400 . S
C1667 C1666 1.400 . S
C1667 C1668 1.398 . S
C1667 C1673 1.491 . S
C1668 H1659 0.950 . S
C1668 C1667 1.398 . S
C1668 C1669 1.391 . S
C1669 H1657 0.950 . S
C1669 C1665 1.393 . S
C1669 C1668 1.391 . S
C1670 H1660 0.950 . S
C1670 C1671 1.386 . S
C1670 C1672 1.391 . S
C1671 C1670 1.386 . S
C1671 C1675 1.393 . S
C1672 H1661 0.950 . S
C1672 C1670 1.391 . S
C1672 C1673 1.400 . S
C1673 C1667 1.491 . S
C1673 C1672 1.400 . S
C1673 C1674 1.398 . S
C1674 H1662 0.950 . S
C1674 C1673 1.398 . S
C1674 C1675 1.391 . S
C1675 H1663 0.950 . S
C1675 C1671 1.393 . S
C1675 C1674 1.391 . S
H1676 C1684 0.950 . S
H1677 C1689 0.950 . S
H1678 C1686 0.950 . S
H1679 C1688 0.950 . S
H1680 C1690 0.950 . S
H1681 C1692 0.950 . S
H1682 C1694 0.950 . S
H1683 C1695 0.950 . S
C1684 H1676 0.950 . S
C1684 C1685 1.386 . S
C1684 C1686 1.391 . S
C1685 C1684 1.386 . S
C1685 C1689 1.393 . S
C1686 H1678 0.950 . S
C1686 C1684 1.391 . S
C1686 C1687 1.400 . S
C1687 C1686 1.400 . S
C1687 C1688 1.398 . S
C1687 C1693 1.491 . S
C1688 H1679 0.950 . S
C1688 C1687 1.398 . S
C1688 C1689 1.391 . S
C1689 H1677 0.950 . S
C1689 C1685 1.393 . S
C1689 C1688 1.391 . S
C1690 H1680 0.950 . S
C1690 C1691 1.386 . S
C1690 C1692 1.391 . S
C1691 C1690 1.386 . S
C1691 C1695 1.393 . S
C1692 H1681 0.950 . S
C1692 C1690 1.391 . S
C1692 C1693 1.400 . S
C1693 C1687 1.491 . S
C1693 C1692 1.400 . S
C1693 C1694 1.398 . S
C1694 H1682 0.950 . S
C1694 C1693 1.398 . S
C1694 C1695 1.391 . S
C1695 H1683 0.950 . S
C1695 C1691 1.393 . S
C1695 C1694 1.391 . S
H1696 C1704 0.950 . S
H1697 C1709 0.950 . S
H1698 C1706 0.950 . S
H1699 C1708 0.950 . S
H1700 C1710 0.950 . S
H1701 C1712 0.950 . S
H1702 C1714 0.950 . S
H1703 C1715 0.950 . S
C1704 H1696 0.950 . S
C1704 C1705 1.386 . S
C1704 C1706 1.391 . S
C1705 C1704 1.386 . S
C1705 C1709 1.393 . S
C1706 H1698 0.950 . S
C1706 C1704 1.391 . S
C1706 C1707 1.400 . S
C1707 C1706 1.400 . S
C1707 C1708 1.398 . S
C1707 C1713 1.491 . S
C1708 H1699 0.950 . S
C1708 C1707 1.398 . S
C1708 C1709 1.391 . S
C1709 H1697 0.950 . S
C1709 C1705 1.393 . S
C1709 C1708 1.391 . S
C1710 H1700 0.950 . S
C1710 C1711 1.386 . S
C1710 C1712 1.391 . S
C1711 C1710 1.386 . S
C1711 C1715 1.393 . S
C1712 H1701 0.950 . S
C1712 C1710 1.391 . S
C1712 C1713 1.400 . S
C1713 C1707 1.491 . S
C1713 C1712 1.400 . S
C1713 C1714 1.398 . S
C1714 H1702 0.950 . S
C1714 C1713 1.398 . S
C1714 C1715 1.391 . S
C1715 H1703 0.950 . S
C1715 C1711 1.393 . S
C1715 C1714 1.391 . S
H1716 C1724 0.950 . S
H1717 C1729 0.950 . S
H1718 C1726 0.950 . S
H1719 C1728 0.950 . S
H1720 C1730 0.950 . S
H1721 C1732 0.950 . S
H1722 C1734 0.950 . S
H1723 C1735 0.950 . S
C1724 H1716 0.950 . S
C1724 C1725 1.386 . S
C1724 C1726 1.391 . S
C1725 C1724 1.386 . S
C1725 C1729 1.393 . S
C1726 H1718 0.950 . S
C1726 C1724 1.391 . S
C1726 C1727 1.400 . S
C1727 C1726 1.400 . S
C1727 C1728 1.398 . S
C1727 C1733 1.491 . S
C1728 H1719 0.950 . S
C1728 C1727 1.398 . S
C1728 C1729 1.391 . S
C1729 H1717 0.950 . S
C1729 C1725 1.393 . S
C1729 C1728 1.391 . S
C1730 H1720 0.950 . S
C1730 C1731 1.386 . S
C1730 C1732 1.391 . S
C1731 C1730 1.386 . S
C1731 C1735 1.393 . S
C1732 H1721 0.950 . S
C1732 C1730 1.391 . S
C1732 C1733 1.400 . S
C1733 C1727 1.491 . S
C1733 C1732 1.400 . S
C1733 C1734 1.398 . S
C1734 H1722 0.950 . S
C1734 C1733 1.398 . S
C1734 C1735 1.391 . S
C1735 H1723 0.950 . S
C1735 C1731 1.393 . S
C1735 C1734 1.391 . S
H1736 C1744 0.950 . S
H1737 C1749 0.950 . S
H1738 C1746 0.950 . S
H1739 C1748 0.950 . S
H1740 C1750 0.950 . S
H1741 C1752 0.950 . S
H1742 C1754 0.950 . S
H1743 C1755 0.950 . S
C1744 H1736 0.950 . S
C1744 C1745 1.386 . S
C1744 C1746 1.391 . S
C1745 C1744 1.386 . S
C1745 C1749 1.393 . S
C1746 H1738 0.950 . S
C1746 C1744 1.391 . S
C1746 C1747 1.400 . S
C1747 C1746 1.400 . S
C1747 C1748 1.398 . S
C1747 C1753 1.491 . S
C1748 H1739 0.950 . S
C1748 C1747 1.398 . S
C1748 C1749 1.391 . S
C1749 H1737 0.950 . S
C1749 C1745 1.393 . S
C1749 C1748 1.391 . S
C1750 H1740 0.950 . S
C1750 C1751 1.386 . S
C1750 C1752 1.391 . S
C1751 C1750 1.386 . S
C1751 C1755 1.393 . S
C1752 H1741 0.950 . S
C1752 C1750 1.391 . S
C1752 C1753 1.400 . S
C1753 C1747 1.491 . S
C1753 C1752 1.400 . S
C1753 C1754 1.398 . S
C1754 H1742 0.950 . S
C1754 C1753 1.398 . S
C1754 C1755 1.391 . S
C1755 H1743 0.950 . S
C1755 C1751 1.393 . S
C1755 C1754 1.391 . S
H1756 C1764 0.950 . S
H1757 C1769 0.950 . S
H1758 C1766 0.950 . S
H1759 C1768 0.950 . S
H1760 C1770 0.950 . S
H1761 C1772 0.950 . S
H1762 C1774 0.950 . S
H1763 C1775 0.950 . S
C1764 H1756 0.950 . S
C1764 C1765 1.386 . S
C1764 C1766 1.391 . S
C1765 C1764 1.386 . S
C1765 C1769 1.393 . S
C1766 H1758 0.950 . S
C1766 C1764 1.391 . S
C1766 C1767 1.400 . S
C1767 C1766 1.400 . S
C1767 C1768 1.398 . S
C1767 C1773 1.491 . S
C1768 H1759 0.950 . S
C1768 C1767 1.398 . S
C1768 C1769 1.391 . S
C1769 H1757 0.950 . S
C1769 C1765 1.393 . S
C1769 C1768 1.391 . S
C1770 H1760 0.950 . S
C1770 C1771 1.386 . S
C1770 C1772 1.391 . S
C1771 C1770 1.386 . S
C1771 C1775 1.393 . S
C1772 H1761 0.950 . S
C1772 C1770 1.391 . S
C1772 C1773 1.400 . S
C1773 C1767 1.491 . S
C1773 C1772 1.400 . S
C1773 C1774 1.398 . S
C1774 H1762 0.950 . S
C1774 C1773 1.398 . S
C1774 C1775 1.391 . S
C1775 H1763 0.950 . S
C1775 C1771 1.393 . S
C1775 C1774 1.391 . S
H1776 C1784 0.950 . S
H1777 C1789 0.950 . S
H1778 C1786 0.950 . S
H1779 C1788 0.950 . S
H1780 C1790 0.950 . S
H1781 C1792 0.950 . S
H1782 C1794 0.950 . S
H1783 C1795 0.950 . S
C1784 H1776 0.950 . S
C1784 C1785 1.386 . S
C1784 C1786 1.391 . S
C1785 C1784 1.386 . S
C1785 C1789 1.393 . S
C1786 H1778 0.950 . S
C1786 C1784 1.391 . S
C1786 C1787 1.400 . S
C1787 C1786 1.400 . S
C1787 C1788 1.398 . S
C1787 C1793 1.491 1_545 S
C1788 H1779 0.950 . S
C1788 C1787 1.398 . S
C1788 C1789 1.391 . S
C1789 H1777 0.950 . S
C1789 C1785 1.393 . S
C1789 C1788 1.391 . S
C1790 H1780 0.950 . S
C1790 C1791 1.386 . S
C1790 C1792 1.391 . S
C1791 C1790 1.386 . S
C1791 C1795 1.393 . S
C1792 H1781 0.950 . S
C1792 C1790 1.391 . S
C1792 C1793 1.400 . S
C1793 C1787 1.491 1_565 S
C1793 C1792 1.400 . S
C1793 C1794 1.398 . S
C1794 H1782 0.950 . S
C1794 C1793 1.398 . S
C1794 C1795 1.391 . S
C1795 H1783 0.950 . S
C1795 C1791 1.393 . S
C1795 C1794 1.391 . S
H1796 C1804 0.950 . S
H1797 C1809 0.950 . S
H1798 C1806 0.950 . S
H1799 C1808 0.950 . S
H1800 C1810 0.950 . S
H1801 C1812 0.950 . S
H1802 C1814 0.950 . S
H1803 C1815 0.950 . S
C1804 H1796 0.950 . S
C1804 C1805 1.386 . S
C1804 C1806 1.391 . S
C1805 C1804 1.386 . S
C1805 C1809 1.393 . S
C1806 H1798 0.950 . S
C1806 C1804 1.391 . S
C1806 C1807 1.400 . S
C1807 C1806 1.400 . S
C1807 C1808 1.398 . S
C1807 C1813 1.491 . S
C1808 H1799 0.950 . S
C1808 C1807 1.398 . S
C1808 C1809 1.391 . S
C1809 H1797 0.950 . S
C1809 C1805 1.393 . S
C1809 C1808 1.391 . S
C1810 H1800 0.950 . S
C1810 C1811 1.386 . S
C1810 C1812 1.391 . S
C1811 C1810 1.386 . S
C1811 C1815 1.393 . S
C1812 H1801 0.950 . S
C1812 C1810 1.391 . S
C1812 C1813 1.400 . S
C1813 C1807 1.491 . S
C1813 C1812 1.400 . S
C1813 C1814 1.398 . S
C1814 H1802 0.950 . S
C1814 C1813 1.398 . S
C1814 C1815 1.391 . S
C1815 H1803 0.950 . S
C1815 C1811 1.393 . S
C1815 C1814 1.391 . S
H1816 C1824 0.950 . S
H1817 C1829 0.950 . S
H1818 C1826 0.950 . S
H1819 C1828 0.950 1_455 S
H1820 C1830 0.950 . S
H1821 C1832 0.950 . S
H1822 C1834 0.950 1_655 S
H1823 C1835 0.950 . S
C1824 H1816 0.950 . S
C1824 C1825 1.386 . S
C1824 C1826 1.391 . S
C1825 C1824 1.386 . S
C1825 C1829 1.393 . S
C1826 H1818 0.950 . S
C1826 C1824 1.391 . S
C1826 C1827 1.400 . S
C1827 C1826 1.400 . S
C1827 C1828 1.398 . S
C1827 C1833 1.491 1_655 S
C1828 H1819 0.950 1_655 S
C1828 C1827 1.398 . S
C1828 C1829 1.391 . S
C1829 H1817 0.950 . S
C1829 C1825 1.393 . S
C1829 C1828 1.391 . S
C1830 H1820 0.950 . S
C1830 C1831 1.386 . S
C1830 C1832 1.391 . S
C1831 C1830 1.386 . S
C1831 C1835 1.393 . S
C1832 H1821 0.950 . S
C1832 C1830 1.391 . S
C1832 C1833 1.400 . S
C1833 C1827 1.491 1_455 S
C1833 C1832 1.400 . S
C1833 C1834 1.398 . S
C1834 H1822 0.950 1_455 S
C1834 C1833 1.398 . S
C1834 C1835 1.391 . S
C1835 H1823 0.950 . S
C1835 C1831 1.393 . S
C1835 C1834 1.391 . S
H1836 C1844 0.950 . S
H1837 C1849 0.950 . S
H1838 C1846 0.950 . S
H1839 C1848 0.950 . S
H1840 C1850 0.950 . S
H1841 C1852 0.950 . S
H1842 C1854 0.950 . S
H1843 C1855 0.950 . S
C1844 H1836 0.950 . S
C1844 C1845 1.386 . S
C1844 C1846 1.391 . S
C1845 C1844 1.386 . S
C1845 C1849 1.393 . S
C1846 H1838 0.950 . S
C1846 C1844 1.391 . S
C1846 C1847 1.400 . S
C1847 C1846 1.400 . S
C1847 C1848 1.398 1_455 S
C1847 C1853 1.491 1_455 S
C1848 H1839 0.950 . S
C1848 C1847 1.398 1_655 S
C1848 C1849 1.391 1_655 S
C1849 H1837 0.950 . S
C1849 C1845 1.393 . S
C1849 C1848 1.391 1_455 S
C1850 H1840 0.950 . S
C1850 C1851 1.386 . S
C1850 C1852 1.391 . S
C1851 C1850 1.386 . S
C1851 C1855 1.393 . S
C1852 H1841 0.950 . S
C1852 C1850 1.391 . S
C1852 C1853 1.400 . S
C1853 C1847 1.491 1_655 S
C1853 C1852 1.400 . S
C1853 C1854 1.398 1_655 S
C1854 H1842 0.950 . S
C1854 C1853 1.398 1_455 S
C1854 C1855 1.391 1_455 S
C1855 H1843 0.950 . S
C1855 C1851 1.393 . S
C1855 C1854 1.391 1_655 S
H1856 C1864 0.950 . S
H1857 C1869 0.950 . S
H1858 C1866 0.950 . S
H1859 C1868 0.950 1_565 S
H1860 C1870 0.950 . S
H1861 C1872 0.950 . S
H1862 C1874 0.950 1_545 S
H1863 C1875 0.950 . S
C1864 H1856 0.950 . S
C1864 C1865 1.386 . S
C1864 C1866 1.391 . S
C1865 C1864 1.386 . S
C1865 C1869 1.393 . S
C1866 H1858 0.950 . S
C1866 C1864 1.391 . S
C1866 C1867 1.400 . S
C1867 C1866 1.400 . S
C1867 C1868 1.398 . S
C1867 C1873 1.491 1_545 S
C1868 H1859 0.950 1_545 S
C1868 C1867 1.398 . S
C1868 C1869 1.391 . S
C1869 H1857 0.950 . S
C1869 C1865 1.393 . S
C1869 C1868 1.391 . S
C1870 H1860 0.950 . S
C1870 C1871 1.386 . S
C1870 C1872 1.391 . S
C1871 C1870 1.386 . S
C1871 C1875 1.393 . S
C1872 H1861 0.950 . S
C1872 C1870 1.391 . S
C1872 C1873 1.400 . S
C1873 C1867 1.491 1_565 S
C1873 C1872 1.400 . S
C1873 C1874 1.398 . S
C1874 H1862 0.950 1_565 S
C1874 C1873 1.398 . S
C1874 C1875 1.391 . S
C1875 H1863 0.950 . S
C1875 C1871 1.393 . S
C1875 C1874 1.391 . S
H1876 C1884 0.950 . S
H1877 C1889 0.950 . S
H1878 C1886 0.950 . S
H1879 C1888 0.950 . S
H1880 C1890 0.950 . S
H1881 C1892 0.950 . S
H1882 C1894 0.950 . S
H1883 C1895 0.950 . S
C1884 H1876 0.950 . S
C1884 C1885 1.386 . S
C1884 C1886 1.391 . S
C1885 C1884 1.386 . S
C1885 C1889 1.393 . S
C1886 H1878 0.950 . S
C1886 C1884 1.391 . S
C1886 C1887 1.400 . S
C1887 C1886 1.400 . S
C1887 C1888 1.398 . S
C1887 C1893 1.491 . S
C1888 H1879 0.950 . S
C1888 C1887 1.398 . S
C1888 C1889 1.391 . S
C1889 H1877 0.950 . S
C1889 C1885 1.393 . S
C1889 C1888 1.391 . S
C1890 H1880 0.950 . S
C1890 C1891 1.386 . S
C1890 C1892 1.391 . S
C1891 C1890 1.386 . S
C1891 C1895 1.393 . S
C1892 H1881 0.950 . S
C1892 C1890 1.391 . S
C1892 C1893 1.400 . S
C1893 C1887 1.491 . S
C1893 C1892 1.400 . S
C1893 C1894 1.398 . S
C1894 H1882 0.950 . S
C1894 C1893 1.398 . S
C1894 C1895 1.391 . S
C1895 H1883 0.950 . S
C1895 C1891 1.393 . S
C1895 C1894 1.391 . S
H1896 C1904 0.950 . S
H1897 C1909 0.950 . S
H1898 C1906 0.950 . S
H1899 C1908 0.957 . S
H1900 C1910 0.950 . S
H1901 C1912 0.950 . S
H1902 C1914 0.957 . S
H1903 C1915 0.950 . S
C1904 H1896 0.950 . S
C1904 C1905 1.386 . S
C1904 C1906 1.391 . S
C1905 C1904 1.386 . S
C1905 C1909 1.393 . S
C1906 H1898 0.950 . S
C1906 C1904 1.391 . S
C1906 C1907 1.400 . S
C1907 C1906 1.400 . S
C1907 C1908 1.400 1_545 S
C1907 C1913 1.491 1_545 S
C1908 H1899 0.957 . S
C1908 C1907 1.400 1_565 S
C1908 C1909 1.383 1_565 S
C1909 H1897 0.950 . S
C1909 C1905 1.393 . S
C1909 C1908 1.383 1_545 S
C1910 H1900 0.950 . S
C1910 C1911 1.386 . S
C1910 C1912 1.391 . S
C1911 C1910 1.386 . S
C1911 C1915 1.393 . S
C1912 H1901 0.950 . S
C1912 C1910 1.391 . S
C1912 C1913 1.400 . S
C1913 C1907 1.491 1_565 S
C1913 C1912 1.400 . S
C1913 C1914 1.400 1_565 S
C1914 H1902 0.957 . S
C1914 C1913 1.400 1_545 S
C1914 C1915 1.383 1_545 S
C1915 H1903 0.950 . S
C1915 C1911 1.393 . S
C1915 C1914 1.383 1_565 S
H1916 C1924 0.950 . S
H1917 C1929 0.950 . S
H1918 C1926 0.950 . S
H1919 C1928 0.950 . S
H1920 C1930 0.950 . S
H1921 C1932 0.950 . S
H1922 C1934 0.950 . S
H1923 C1935 0.950 . S
C1924 H1916 0.950 . S
C1924 C1925 1.386 . S
C1924 C1926 1.391 . S
C1925 C1924 1.386 . S
C1925 C1929 1.393 . S
C1926 H1918 0.950 . S
C1926 C1924 1.391 . S
C1926 C1927 1.400 . S
C1927 C1926 1.400 . S
C1927 C1928 1.398 . S
C1927 C1933 1.491 . S
C1928 H1919 0.950 . S
C1928 C1927 1.398 . S
C1928 C1929 1.391 . S
C1929 H1917 0.950 . S
C1929 C1925 1.393 . S
C1929 C1928 1.391 . S
C1930 H1920 0.950 . S
C1930 C1931 1.386 . S
C1930 C1932 1.391 . S
C1931 C1930 1.386 . S
C1931 C1935 1.393 . S
C1932 H1921 0.950 . S
C1932 C1930 1.391 . S
C1932 C1933 1.400 . S
C1933 C1927 1.491 . S
C1933 C1932 1.400 . S
C1933 C1934 1.398 . S
C1934 H1922 0.950 . S
C1934 C1933 1.398 . S
C1934 C1935 1.391 . S
C1935 H1923 0.950 . S
C1935 C1931 1.393 . S
C1935 C1934 1.391 . S
H1936 C1944 0.950 . S
H1937 C1949 0.950 . S
H1938 C1946 0.950 . S
H1939 C1948 0.950 . S
H1940 C1950 0.950 . S
H1941 C1952 0.950 . S
H1942 C1954 0.950 . S
H1943 C1955 0.950 . S
C1944 H1936 0.950 . S
C1944 C1945 1.386 . S
C1944 C1946 1.391 1_455 S
C1945 C1944 1.386 . S
C1945 C1949 1.393 . S
C1946 H1938 0.950 . S
C1946 C1944 1.391 1_655 S
C1946 C1947 1.400 1_655 S
C1947 C1946 1.400 1_455 S
C1947 C1948 1.398 . S
C1947 C1953 1.491 1_455 S
C1948 H1939 0.950 . S
C1948 C1947 1.398 . S
C1948 C1949 1.391 . S
C1949 H1937 0.950 . S
C1949 C1945 1.393 . S
C1949 C1948 1.391 . S
C1950 H1940 0.950 . S
C1950 C1951 1.386 . S
C1950 C1952 1.391 1_655 S
C1951 C1950 1.386 . S
C1951 C1955 1.393 . S
C1952 H1941 0.950 . S
C1952 C1950 1.391 1_455 S
C1952 C1953 1.400 1_455 S
C1953 C1947 1.491 1_655 S
C1953 C1952 1.400 1_655 S
C1953 C1954 1.398 . S
C1954 H1942 0.950 . S
C1954 C1953 1.398 . S
C1954 C1955 1.391 . S
C1955 H1943 0.950 . S
C1955 C1951 1.393 . S
C1955 C1954 1.391 . S
H1956 C1964 0.950 . S
H1957 C1969 0.950 . S
H1958 C1966 0.950 . S
H1959 C1968 0.950 1_455 S
H1960 C1970 0.950 . S
H1961 C1972 0.950 . S
H1962 C1974 0.950 1_655 S
H1963 C1975 0.950 . S
C1964 H1956 0.950 . S
C1964 C1965 1.386 . S
C1964 C1966 1.391 . S
C1965 C1964 1.386 . S
C1965 C1969 1.393 . S
C1966 H1958 0.950 . S
C1966 C1964 1.391 . S
C1966 C1967 1.400 . S
C1967 C1966 1.400 . S
C1967 C1968 1.398 . S
C1967 C1973 1.491 1_655 S
C1968 H1959 0.950 1_655 S
C1968 C1967 1.398 . S
C1968 C1969 1.391 . S
C1969 H1957 0.950 . S
C1969 C1965 1.393 . S
C1969 C1968 1.391 . S
C1970 H1960 0.950 . S
C1970 C1971 1.386 . S
C1970 C1972 1.391 . S
C1971 C1970 1.386 . S
C1971 C1975 1.393 . S
C1972 H1961 0.950 . S
C1972 C1970 1.391 . S
C1972 C1973 1.400 . S
C1973 C1967 1.491 1_455 S
C1973 C1972 1.400 . S
C1973 C1974 1.398 . S
C1974 H1962 0.950 1_455 S
C1974 C1973 1.398 . S
C1974 C1975 1.391 . S
C1975 H1963 0.950 . S
C1975 C1971 1.393 . S
C1975 C1974 1.391 . S
H1976 C1984 0.950 . S
H1977 C1989 0.950 . S
H1978 C1986 0.950 . S
H1979 C1988 0.950 . S
H1980 C1990 0.950 . S
H1981 C1992 0.950 . S
H1982 C1994 0.950 . S
H1983 C1995 0.950 . S
C1984 H1976 0.950 . S
C1984 C1985 1.386 . S
C1984 C1986 1.391 . S
C1985 C1984 1.386 . S
C1985 C1989 1.393 . S
C1986 H1978 0.950 . S
C1986 C1984 1.391 . S
C1986 C1987 1.400 . S
C1987 C1986 1.400 . S
C1987 C1988 1.398 . S
C1987 C1993 1.491 1_545 S
C1988 H1979 0.950 . S
C1988 C1987 1.398 . S
C1988 C1989 1.391 . S
C1989 H1977 0.950 . S
C1989 C1985 1.393 . S
C1989 C1988 1.391 . S
C1990 H1980 0.950 . S
C1990 C1991 1.386 . S
C1990 C1992 1.391 . S
C1991 C1990 1.386 . S
C1991 C1995 1.393 . S
C1992 H1981 0.950 . S
C1992 C1990 1.391 . S
C1992 C1993 1.400 . S
C1993 C1987 1.491 1_565 S
C1993 C1992 1.400 . S
C1993 C1994 1.398 . S
C1994 H1982 0.950 . S
C1994 C1993 1.398 . S
C1994 C1995 1.391 . S
C1995 H1983 0.950 . S
C1995 C1991 1.393 . S
C1995 C1994 1.391 . S
H1996 C2004 0.950 . S
H1997 C2009 0.950 . S
H1998 C2006 0.950 . S
H1999 C2008 0.950 . S
H2000 C2010 0.950 . S
H2001 C2012 0.950 . S
H2002 C2014 0.950 . S
H2003 C2015 0.950 . S
C2004 H1996 0.950 . S
C2004 C2005 1.386 . S
C2004 C2006 1.391 . S
C2005 C2004 1.386 . S
C2005 C2009 1.393 . S
C2006 H1998 0.950 . S
C2006 C2004 1.391 . S
C2006 C2007 1.400 . S
C2007 C2006 1.400 . S
C2007 C2008 1.398 . S
C2007 C2013 1.491 . S
C2008 H1999 0.950 . S
C2008 C2007 1.398 . S
C2008 C2009 1.391 . S
C2009 H1997 0.950 . S
C2009 C2005 1.393 . S
C2009 C2008 1.391 . S
C2010 H2000 0.950 . S
C2010 C2011 1.386 . S
C2010 C2012 1.391 . S
C2011 C2010 1.386 . S
C2011 C2015 1.393 . S
C2012 H2001 0.950 . S
C2012 C2010 1.391 . S
C2012 C2013 1.400 . S
C2013 C2007 1.491 . S
C2013 C2012 1.400 . S
C2013 C2014 1.398 . S
C2014 H2002 0.950 . S
C2014 C2013 1.398 . S
C2014 C2015 1.391 . S
C2015 H2003 0.950 . S
C2015 C2011 1.393 . S
C2015 C2014 1.391 . S
H2016 C2024 0.950 . S
H2017 C2029 0.950 . S
H2018 C2026 0.950 . S
H2019 C2028 0.950 . S
H2020 C2030 0.950 . S
H2021 C2032 0.950 . S
H2022 C2034 0.950 . S
H2023 C2035 0.950 . S
C2024 H2016 0.950 . S
C2024 C2025 1.386 . S
C2024 C2026 1.391 . S
C2025 C2024 1.386 . S
C2025 C2029 1.393 . S
C2026 H2018 0.950 . S
C2026 C2024 1.391 . S
C2026 C2027 1.400 . S
C2027 C2026 1.400 . S
C2027 C2028 1.398 . S
C2027 C2033 1.491 . S
C2028 H2019 0.950 . S
C2028 C2027 1.398 . S
C2028 C2029 1.391 . S
C2029 H2017 0.950 . S
C2029 C2025 1.393 . S
C2029 C2028 1.391 . S
C2030 H2020 0.950 . S
C2030 C2031 1.386 . S
C2030 C2032 1.391 . S
C2031 C2030 1.386 . S
C2031 C2035 1.393 . S
C2032 H2021 0.950 . S
C2032 C2030 1.391 . S
C2032 C2033 1.400 . S
C2033 C2027 1.491 . S
C2033 C2032 1.400 . S
C2033 C2034 1.398 . S
C2034 H2022 0.950 . S
C2034 C2033 1.398 . S
C2034 C2035 1.391 . S
C2035 H2023 0.950 . S
C2035 C2031 1.393 . S
C2035 C2034 1.391 . S
H2036 C2044 0.950 . S
H2037 C2049 0.950 . S
H2038 C2046 0.950 . S
H2039 C2048 0.950 . S
H2040 C2050 0.950 . S
H2041 C2052 0.950 . S
H2042 C2054 0.950 . S
H2043 C2055 0.950 . S
C2044 H2036 0.950 . S
C2044 C2045 1.386 . S
C2044 C2046 1.391 . S
C2045 C2044 1.386 . S
C2045 C2049 1.393 . S
C2046 H2038 0.950 . S
C2046 C2044 1.391 . S
C2046 C2047 1.400 . S
C2047 C2046 1.400 . S
C2047 C2048 1.398 . S
C2047 C2053 1.491 . S
C2048 H2039 0.950 . S
C2048 C2047 1.398 . S
C2048 C2049 1.391 . S
C2049 H2037 0.950 . S
C2049 C2045 1.393 . S
C2049 C2048 1.391 . S
C2050 H2040 0.950 . S
C2050 C2051 1.386 . S
C2050 C2052 1.391 . S
C2051 C2050 1.386 . S
C2051 C2055 1.393 . S
C2052 H2041 0.950 . S
C2052 C2050 1.391 . S
C2052 C2053 1.400 . S
C2053 C2047 1.491 . S
C2053 C2052 1.400 . S
C2053 C2054 1.398 . S
C2054 H2042 0.950 . S
C2054 C2053 1.398 . S
C2054 C2055 1.391 . S
C2055 H2043 0.950 . S
C2055 C2051 1.393 . S
C2055 C2054 1.391 . S
H2056 C2064 0.950 . S
H2057 C2069 0.950 . S
H2058 C2066 0.950 . S
H2059 C2068 0.950 . S
H2060 C2070 0.950 . S
H2061 C2072 0.950 . S
H2062 C2074 0.950 . S
H2063 C2075 0.950 . S
C2064 H2056 0.950 . S
C2064 C2065 1.386 . S
C2064 C2066 1.391 . S
C2065 C2064 1.386 . S
C2065 C2069 1.393 . S
C2066 H2058 0.950 . S
C2066 C2064 1.391 . S
C2066 C2067 1.400 . S
C2067 C2066 1.400 . S
C2067 C2068 1.398 . S
C2067 C2073 1.491 . S
C2068 H2059 0.950 . S
C2068 C2067 1.398 . S
C2068 C2069 1.391 . S
C2069 H2057 0.950 . S
C2069 C2065 1.393 . S
C2069 C2068 1.391 . S
C2070 H2060 0.950 . S
C2070 C2071 1.386 . S
C2070 C2072 1.391 . S
C2071 C2070 1.386 . S
C2071 C2075 1.393 . S
C2072 H2061 0.950 . S
C2072 C2070 1.391 . S
C2072 C2073 1.400 . S
C2073 C2067 1.491 . S
C2073 C2072 1.400 . S
C2073 C2074 1.398 . S
C2074 H2062 0.950 . S
C2074 C2073 1.398 . S
C2074 C2075 1.391 . S
C2075 H2063 0.950 . S
C2075 C2071 1.393 . S
C2075 C2074 1.391 . S
H2076 C2084 0.950 . S
H2077 C2089 0.950 . S
H2078 C2086 0.950 . S
H2079 C2088 0.950 . S
H2080 C2090 0.950 . S
H2081 C2092 0.950 . S
H2082 C2094 0.950 . S
H2083 C2095 0.950 . S
C2084 H2076 0.950 . S
C2084 C2085 1.386 . S
C2084 C2086 1.391 . S
C2085 C2084 1.386 . S
C2085 C2089 1.393 . S
C2086 H2078 0.950 . S
C2086 C2084 1.391 . S
C2086 C2087 1.400 . S
C2087 C2086 1.400 . S
C2087 C2088 1.398 . S
C2087 C2093 1.491 . S
C2088 H2079 0.950 . S
C2088 C2087 1.398 . S
C2088 C2089 1.391 . S
C2089 H2077 0.950 . S
C2089 C2085 1.393 . S
C2089 C2088 1.391 . S
C2090 H2080 0.950 . S
C2090 C2091 1.386 . S
C2090 C2092 1.391 . S
C2091 C2090 1.386 . S
C2091 C2095 1.393 . S
C2092 H2081 0.950 . S
C2092 C2090 1.391 . S
C2092 C2093 1.400 . S
C2093 C2087 1.491 . S
C2093 C2092 1.400 . S
C2093 C2094 1.398 . S
C2094 H2082 0.950 . S
C2094 C2093 1.398 . S
C2094 C2095 1.391 . S
C2095 H2083 0.950 . S
C2095 C2091 1.393 . S
C2095 C2094 1.391 . S
H2096 C2104 0.950 . S
H2097 C2109 0.950 . S
H2098 C2106 0.950 . S
H2099 C2108 0.950 . S
H2100 C2110 0.950 . S
H2101 C2112 0.950 . S
H2102 C2114 0.950 . S
H2103 C2115 0.950 . S
C2104 H2096 0.950 . S
C2104 C2105 1.386 . S
C2104 C2106 1.391 . S
C2105 C2104 1.386 . S
C2105 C2109 1.393 . S
C2106 H2098 0.950 . S
C2106 C2104 1.391 . S
C2106 C2107 1.400 . S
C2107 C2106 1.400 . S
C2107 C2108 1.398 . S
C2107 C2113 1.491 . S
C2108 H2099 0.950 . S
C2108 C2107 1.398 . S
C2108 C2109 1.391 . S
C2109 H2097 0.950 . S
C2109 C2105 1.393 . S
C2109 C2108 1.391 . S
C2110 H2100 0.950 . S
C2110 C2111 1.386 . S
C2110 C2112 1.391 . S
C2111 C2110 1.386 . S
C2111 C2115 1.393 . S
C2112 H2101 0.950 . S
C2112 C2110 1.391 . S
C2112 C2113 1.400 . S
C2113 C2107 1.491 . S
C2113 C2112 1.400 . S
C2113 C2114 1.398 . S
C2114 H2102 0.950 . S
C2114 C2113 1.398 . S
C2114 C2115 1.391 . S
C2115 H2103 0.950 . S
C2115 C2111 1.393 . S
C2115 C2114 1.391 . S
H2116 C2124 0.950 . S
H2117 C2129 0.950 . S
H2118 C2126 0.950 . S
H2119 C2128 0.950 . S
H2120 C2130 0.950 . S
H2121 C2132 0.950 . S
H2122 C2134 0.950 . S
H2123 C2135 0.950 . S
C2124 H2116 0.950 . S
C2124 C2125 1.386 . S
C2124 C2126 1.391 . S
C2125 C2124 1.386 . S
C2125 C2129 1.393 . S
C2126 H2118 0.950 . S
C2126 C2124 1.391 . S
C2126 C2127 1.400 . S
C2127 C2126 1.400 . S
C2127 C2128 1.398 . S
C2127 C2133 1.491 . S
C2128 H2119 0.950 . S
C2128 C2127 1.398 . S
C2128 C2129 1.391 . S
C2129 H2117 0.950 . S
C2129 C2125 1.393 . S
C2129 C2128 1.391 . S
C2130 H2120 0.950 . S
C2130 C2131 1.386 . S
C2130 C2132 1.391 . S
C2131 C2130 1.386 . S
C2131 C2135 1.393 . S
C2132 H2121 0.950 . S
C2132 C2130 1.391 . S
C2132 C2133 1.400 . S
C2133 C2127 1.491 . S
C2133 C2132 1.400 . S
C2133 C2134 1.398 . S
C2134 H2122 0.950 . S
C2134 C2133 1.398 . S
C2134 C2135 1.391 . S
C2135 H2123 0.950 . S
C2135 C2131 1.393 . S
C2135 C2134 1.391 . S
H2136 C2144 0.950 . S
H2137 C2149 0.950 . S
H2138 C2146 0.950 . S
H2139 C2148 0.950 . S
H2140 C2150 0.950 . S
H2141 C2152 0.950 . S
H2142 C2154 0.950 . S
H2143 C2155 0.950 . S
C2144 H2136 0.950 . S
C2144 C2145 1.386 . S
C2144 C2146 1.391 . S
C2145 C2144 1.386 . S
C2145 C2149 1.393 . S
C2146 H2138 0.950 . S
C2146 C2144 1.391 . S
C2146 C2147 1.400 . S
C2147 C2146 1.400 . S
C2147 C2148 1.398 . S
C2147 C2153 1.491 . S
C2148 H2139 0.950 . S
C2148 C2147 1.398 . S
C2148 C2149 1.391 . S
C2149 H2137 0.950 . S
C2149 C2145 1.393 . S
C2149 C2148 1.391 . S
C2150 H2140 0.950 . S
C2150 C2151 1.386 . S
C2150 C2152 1.391 . S
C2151 C2150 1.386 . S
C2151 C2155 1.393 . S
C2152 H2141 0.950 . S
C2152 C2150 1.391 . S
C2152 C2153 1.400 . S
C2153 C2147 1.491 . S
C2153 C2152 1.400 . S
C2153 C2154 1.398 . S
C2154 H2142 0.950 . S
C2154 C2153 1.398 . S
C2154 C2155 1.391 . S
C2155 H2143 0.950 . S
C2155 C2151 1.393 . S
C2155 C2154 1.391 . S
H2156 C2164 0.950 . S
H2157 C2169 0.950 . S
H2158 C2166 0.950 . S
H2159 C2168 0.950 . S
H2160 C2170 0.950 . S
H2161 C2172 0.950 . S
H2162 C2174 0.950 . S
H2163 C2175 0.950 . S
C2164 H2156 0.950 . S
C2164 C2165 1.386 . S
C2164 C2166 1.391 . S
C2165 C2164 1.386 . S
C2165 C2169 1.393 . S
C2166 H2158 0.950 . S
C2166 C2164 1.391 . S
C2166 C2167 1.400 . S
C2167 C2166 1.400 . S
C2167 C2168 1.398 . S
C2167 C2173 1.491 . S
C2168 H2159 0.950 . S
C2168 C2167 1.398 . S
C2168 C2169 1.391 . S
C2169 H2157 0.950 . S
C2169 C2165 1.393 . S
C2169 C2168 1.391 . S
C2170 H2160 0.950 . S
C2170 C2171 1.386 . S
C2170 C2172 1.391 . S
C2171 C2170 1.386 . S
C2171 C2175 1.393 . S
C2172 H2161 0.950 . S
C2172 C2170 1.391 . S
C2172 C2173 1.400 . S
C2173 C2167 1.491 . S
C2173 C2172 1.400 . S
C2173 C2174 1.398 . S
C2174 H2162 0.950 . S
C2174 C2173 1.398 . S
C2174 C2175 1.391 . S
C2175 H2163 0.950 . S
C2175 C2171 1.393 . S
C2175 C2174 1.391 . S
H2176 C2184 0.950 . S
H2177 C2189 0.950 . S
H2178 C2186 0.950 . S
H2179 C2188 0.950 . S
H2180 C2190 0.950 . S
H2181 C2192 0.950 . S
H2182 C2194 0.950 . S
H2183 C2195 0.950 . S
C2184 H2176 0.950 . S
C2184 C2185 1.386 . S
C2184 C2186 1.391 . S
C2185 C2184 1.386 . S
C2185 C2189 1.393 . S
C2186 H2178 0.950 . S
C2186 C2184 1.391 . S
C2186 C2187 1.400 . S
C2187 C2186 1.400 . S
C2187 C2188 1.398 . S
C2187 C2193 1.491 . S
C2188 H2179 0.950 . S
C2188 C2187 1.398 . S
C2188 C2189 1.391 . S
C2189 H2177 0.950 . S
C2189 C2185 1.393 . S
C2189 C2188 1.391 . S
C2190 H2180 0.950 . S
C2190 C2191 1.386 . S
C2190 C2192 1.391 . S
C2191 C2190 1.386 . S
C2191 C2195 1.393 . S
C2192 H2181 0.950 . S
C2192 C2190 1.391 . S
C2192 C2193 1.400 . S
C2193 C2187 1.491 . S
C2193 C2192 1.400 . S
C2193 C2194 1.398 . S
C2194 H2182 0.950 . S
C2194 C2193 1.398 . S
C2194 C2195 1.391 . S
C2195 H2183 0.950 . S
C2195 C2191 1.393 . S
C2195 C2194 1.391 . S
H2196 C2204 0.950 . S
H2197 C2209 0.950 . S
H2198 C2206 0.950 . S
H2199 C2208 0.950 . S
H2200 C2210 0.950 . S
H2201 C2212 0.950 . S
H2202 C2214 0.950 . S
H2203 C2215 0.950 . S
C2204 H2196 0.950 . S
C2204 C2205 1.386 . S
C2204 C2206 1.391 . S
C2205 C2204 1.386 . S
C2205 C2209 1.393 . S
C2206 H2198 0.950 . S
C2206 C2204 1.391 . S
C2206 C2207 1.400 . S
C2207 C2206 1.400 . S
C2207 C2208 1.398 . S
C2207 C2213 1.491 . S
C2208 H2199 0.950 . S
C2208 C2207 1.398 . S
C2208 C2209 1.391 . S
C2209 H2197 0.950 . S
C2209 C2205 1.393 . S
C2209 C2208 1.391 . S
C2210 H2200 0.950 . S
C2210 C2211 1.386 . S
C2210 C2212 1.391 . S
C2211 C2210 1.386 . S
C2211 C2215 1.393 . S
C2212 H2201 0.950 . S
C2212 C2210 1.391 . S
C2212 C2213 1.400 . S
C2213 C2207 1.491 . S
C2213 C2212 1.400 . S
C2213 C2214 1.398 . S
C2214 H2202 0.950 . S
C2214 C2213 1.398 . S
C2214 C2215 1.391 . S
C2215 H2203 0.950 . S
C2215 C2211 1.393 . S
C2215 C2214 1.391 . S
H2216 C2224 0.950 . S
H2217 C2229 0.950 . S
H2218 C2226 0.950 . S
H2219 C2228 0.950 . S
H2220 C2230 0.950 . S
H2221 C2232 0.950 . S
H2222 C2234 0.950 . S
H2223 C2235 0.950 . S
C2224 H2216 0.950 . S
C2224 C2225 1.386 . S
C2224 C2226 1.391 . S
C2225 C2224 1.386 . S
C2225 C2229 1.393 . S
C2226 H2218 0.950 . S
C2226 C2224 1.391 . S
C2226 C2227 1.400 . S
C2227 C2226 1.400 . S
C2227 C2228 1.398 . S
C2227 C2233 1.491 . S
C2228 H2219 0.950 . S
C2228 C2227 1.398 . S
C2228 C2229 1.391 . S
C2229 H2217 0.950 . S
C2229 C2225 1.393 . S
C2229 C2228 1.391 . S
C2230 H2220 0.950 . S
C2230 C2231 1.386 . S
C2230 C2232 1.391 . S
C2231 C2230 1.386 . S
C2231 C2235 1.393 . S
C2232 H2221 0.950 . S
C2232 C2230 1.391 . S
C2232 C2233 1.400 . S
C2233 C2227 1.491 . S
C2233 C2232 1.400 . S
C2233 C2234 1.398 . S
C2234 H2222 0.950 . S
C2234 C2233 1.398 . S
C2234 C2235 1.391 . S
C2235 H2223 0.950 . S
C2235 C2231 1.393 . S
C2235 C2234 1.391 . S
H2236 C2244 0.950 . S
H2237 C2249 0.950 . S
H2238 C2246 0.950 . S
H2239 C2248 0.950 . S
H2240 C2250 0.950 . S
H2241 C2252 0.950 . S
H2242 C2254 0.950 . S
H2243 C2255 0.950 . S
C2244 H2236 0.950 . S
C2244 C2245 1.386 . S
C2244 C2246 1.391 . S
C2245 C2244 1.386 . S
C2245 C2249 1.393 . S
C2246 H2238 0.950 . S
C2246 C2244 1.391 . S
C2246 C2247 1.400 . S
C2247 C2246 1.400 . S
C2247 C2248 1.398 . S
C2247 C2253 1.491 . S
C2248 H2239 0.950 . S
C2248 C2247 1.398 . S
C2248 C2249 1.391 . S
C2249 H2237 0.950 . S
C2249 C2245 1.393 . S
C2249 C2248 1.391 . S
C2250 H2240 0.950 . S
C2250 C2251 1.386 . S
C2250 C2252 1.391 . S
C2251 C2250 1.386 . S
C2251 C2255 1.393 . S
C2252 H2241 0.950 . S
C2252 C2250 1.391 . S
C2252 C2253 1.400 . S
C2253 C2247 1.491 . S
C2253 C2252 1.400 . S
C2253 C2254 1.398 . S
C2254 H2242 0.950 . S
C2254 C2253 1.398 . S
C2254 C2255 1.391 . S
C2255 H2243 0.950 . S
C2255 C2251 1.393 . S
C2255 C2254 1.391 . S
H2256 C2264 0.950 . S
H2257 C2269 0.950 . S
H2258 C2266 0.950 . S
H2259 C2268 0.950 . S
H2260 C2270 0.950 . S
H2261 C2272 0.950 . S
H2262 C2274 0.950 . S
H2263 C2275 0.950 . S
C2264 H2256 0.950 . S
C2264 C2265 1.386 . S
C2264 C2266 1.391 . S
C2265 C2264 1.386 . S
C2265 C2269 1.393 . S
C2266 H2258 0.950 . S
C2266 C2264 1.391 . S
C2266 C2267 1.400 . S
C2267 C2266 1.400 . S
C2267 C2268 1.398 . S
C2267 C2273 1.491 . S
C2268 H2259 0.950 . S
C2268 C2267 1.398 . S
C2268 C2269 1.391 . S
C2269 H2257 0.950 . S
C2269 C2265 1.393 . S
C2269 C2268 1.391 . S
C2270 H2260 0.950 . S
C2270 C2271 1.386 . S
C2270 C2272 1.391 . S
C2271 C2270 1.386 . S
C2271 C2275 1.393 . S
C2272 H2261 0.950 . S
C2272 C2270 1.391 . S
C2272 C2273 1.400 . S
C2273 C2267 1.491 . S
C2273 C2272 1.400 . S
C2273 C2274 1.398 . S
C2274 H2262 0.950 . S
C2274 C2273 1.398 . S
C2274 C2275 1.391 . S
C2275 H2263 0.950 . S
C2275 C2271 1.393 . S
C2275 C2274 1.391 . S
H2276 C2284 0.950 . S
H2277 C2289 0.950 . S
H2278 C2286 0.950 . S
H2279 C2288 0.950 . S
H2280 C2290 0.950 . S
H2281 C2292 0.950 . S
H2282 C2294 0.950 . S
H2283 C2295 0.950 . S
C2284 H2276 0.950 . S
C2284 C2285 1.386 . S
C2284 C2286 1.391 . S
C2285 C2284 1.386 . S
C2285 C2289 1.393 . S
C2286 H2278 0.950 . S
C2286 C2284 1.391 . S
C2286 C2287 1.400 . S
C2287 C2286 1.400 . S
C2287 C2288 1.398 . S
C2287 C2293 1.491 . S
C2288 H2279 0.950 . S
C2288 C2287 1.398 . S
C2288 C2289 1.391 . S
C2289 H2277 0.950 . S
C2289 C2285 1.393 . S
C2289 C2288 1.391 . S
C2290 H2280 0.950 . S
C2290 C2291 1.386 . S
C2290 C2292 1.391 . S
C2291 C2290 1.386 . S
C2291 C2295 1.393 . S
C2292 H2281 0.950 . S
C2292 C2290 1.391 . S
C2292 C2293 1.400 . S
C2293 C2287 1.491 . S
C2293 C2292 1.400 . S
C2293 C2294 1.398 . S
C2294 H2282 0.950 . S
C2294 C2293 1.398 . S
C2294 C2295 1.391 . S
C2295 H2283 0.950 . S
C2295 C2291 1.393 . S
C2295 C2294 1.391 . S
H2296 C2304 0.950 . S
H2297 C2309 0.950 . S
H2298 C2306 0.950 . S
H2299 C2308 0.950 . S
H2300 C2310 0.950 . S
H2301 C2312 0.950 . S
H2302 C2314 0.950 . S
H2303 C2315 0.950 . S
C2304 H2296 0.950 . S
C2304 C2305 1.386 . S
C2304 C2306 1.391 . S
C2305 C2304 1.386 . S
C2305 C2309 1.393 . S
C2306 H2298 0.950 . S
C2306 C2304 1.391 . S
C2306 C2307 1.400 . S
C2307 C2306 1.400 . S
C2307 C2308 1.398 . S
C2307 C2313 1.491 . S
C2308 H2299 0.950 . S
C2308 C2307 1.398 . S
C2308 C2309 1.391 . S
C2309 H2297 0.950 . S
C2309 C2305 1.393 . S
C2309 C2308 1.391 . S
C2310 H2300 0.950 . S
C2310 C2311 1.386 . S
C2310 C2312 1.391 . S
C2311 C2310 1.386 . S
C2311 C2315 1.393 . S
C2312 H2301 0.950 . S
C2312 C2310 1.391 . S
C2312 C2313 1.400 . S
C2313 C2307 1.491 . S
C2313 C2312 1.400 . S
C2313 C2314 1.398 . S
C2314 H2302 0.950 . S
C2314 C2313 1.398 . S
C2314 C2315 1.391 . S
C2315 H2303 0.950 . S
C2315 C2311 1.393 . S
C2315 C2314 1.391 . S
H2316 C2324 0.950 . S
H2317 C2329 0.950 . S
H2318 C2326 0.950 . S
H2319 C2328 0.950 . S
H2320 C2330 0.950 . S
H2321 C2332 0.950 . S
H2322 C2334 0.950 . S
H2323 C2335 0.950 . S
C2324 H2316 0.950 . S
C2324 C2325 1.386 . S
C2324 C2326 1.391 . S
C2325 C2324 1.386 . S
C2325 C2329 1.393 . S
C2326 H2318 0.950 . S
C2326 C2324 1.391 . S
C2326 C2327 1.400 . S
C2327 C2326 1.400 . S
C2327 C2328 1.398 . S
C2327 C2333 1.491 . S
C2328 H2319 0.950 . S
C2328 C2327 1.398 . S
C2328 C2329 1.391 . S
C2329 H2317 0.950 . S
C2329 C2325 1.393 . S
C2329 C2328 1.391 . S
C2330 H2320 0.950 . S
C2330 C2331 1.386 . S
C2330 C2332 1.391 . S
C2331 C2330 1.386 . S
C2331 C2335 1.393 . S
C2332 H2321 0.950 . S
C2332 C2330 1.391 . S
C2332 C2333 1.400 . S
C2333 C2327 1.491 . S
C2333 C2332 1.400 . S
C2333 C2334 1.398 . S
C2334 H2322 0.950 . S
C2334 C2333 1.398 . S
C2334 C2335 1.391 . S
C2335 H2323 0.950 . S
C2335 C2331 1.393 . S
C2335 C2334 1.391 . S
H2336 C2344 0.950 . S
H2337 C2349 0.950 . S
H2338 C2346 0.950 . S
H2339 C2348 0.950 . S
H2340 C2350 0.950 . S
H2341 C2352 0.950 . S
H2342 C2354 0.950 . S
H2343 C2355 0.950 . S
C2344 H2336 0.950 . S
C2344 C2345 1.386 . S
C2344 C2346 1.391 . S
C2345 C2344 1.386 . S
C2345 C2349 1.393 . S
C2346 H2338 0.950 . S
C2346 C2344 1.391 . S
C2346 C2347 1.400 . S
C2347 C2346 1.400 . S
C2347 C2348 1.398 . S
C2347 C2353 1.491 . S
C2348 H2339 0.950 . S
C2348 C2347 1.398 . S
C2348 C2349 1.391 . S
C2349 H2337 0.950 . S
C2349 C2345 1.393 . S
C2349 C2348 1.391 . S
C2350 H2340 0.950 . S
C2350 C2351 1.386 . S
C2350 C2352 1.391 . S
C2351 C2350 1.386 . S
C2351 C2355 1.393 . S
C2352 H2341 0.950 . S
C2352 C2350 1.391 . S
C2352 C2353 1.400 . S
C2353 C2347 1.491 . S
C2353 C2352 1.400 . S
C2353 C2354 1.398 . S
C2354 H2342 0.950 . S
C2354 C2353 1.398 . S
C2354 C2355 1.391 . S
C2355 H2343 0.950 . S
C2355 C2351 1.393 . S
C2355 C2354 1.391 . S
H2356 C2364 0.950 . S
H2357 C2369 0.950 . S
H2358 C2366 0.950 . S
H2359 C2368 0.950 . S
H2360 C2370 0.950 . S
H2361 C2372 0.950 . S
H2362 C2374 0.950 . S
H2363 C2375 0.950 . S
C2364 H2356 0.950 . S
C2364 C2365 1.386 . S
C2364 C2366 1.391 . S
C2365 C2364 1.386 . S
C2365 C2369 1.393 . S
C2366 H2358 0.950 . S
C2366 C2364 1.391 . S
C2366 C2367 1.400 . S
C2367 C2366 1.400 . S
C2367 C2368 1.398 . S
C2367 C2373 1.491 . S
C2368 H2359 0.950 . S
C2368 C2367 1.398 . S
C2368 C2369 1.391 . S
C2369 H2357 0.950 . S
C2369 C2365 1.393 . S
C2369 C2368 1.391 . S
C2370 H2360 0.950 . S
C2370 C2371 1.386 . S
C2370 C2372 1.391 . S
C2371 C2370 1.386 . S
C2371 C2375 1.393 . S
C2372 H2361 0.950 . S
C2372 C2370 1.391 . S
C2372 C2373 1.400 . S
C2373 C2367 1.491 . S
C2373 C2372 1.400 . S
C2373 C2374 1.398 . S
C2374 H2362 0.950 . S
C2374 C2373 1.398 . S
C2374 C2375 1.391 . S
C2375 H2363 0.950 . S
C2375 C2371 1.393 . S
C2375 C2374 1.391 . S
H2376 C2384 0.950 . S
H2377 C2389 0.950 . S
H2378 C2386 0.950 . S
H2379 C2388 0.950 . S
H2380 C2390 0.950 . S
H2381 C2392 0.950 . S
H2382 C2394 0.950 . S
H2383 C2395 0.950 . S
C2384 H2376 0.950 . S
C2384 C2385 1.386 . S
C2384 C2386 1.391 . S
C2385 C2384 1.386 . S
C2385 C2389 1.393 . S
C2386 H2378 0.950 . S
C2386 C2384 1.391 . S
C2386 C2387 1.400 . S
C2387 C2386 1.400 . S
C2387 C2388 1.398 . S
C2387 C2393 1.491 . S
C2388 H2379 0.950 . S
C2388 C2387 1.398 . S
C2388 C2389 1.391 . S
C2389 H2377 0.950 . S
C2389 C2385 1.393 . S
C2389 C2388 1.391 . S
C2390 H2380 0.950 . S
C2390 C2391 1.386 . S
C2390 C2392 1.391 . S
C2391 C2390 1.386 . S
C2391 C2395 1.393 . S
C2392 H2381 0.950 . S
C2392 C2390 1.391 . S
C2392 C2393 1.400 . S
C2393 C2387 1.491 . S
C2393 C2392 1.400 . S
C2393 C2394 1.398 . S
C2394 H2382 0.950 . S
C2394 C2393 1.398 . S
C2394 C2395 1.391 . S
C2395 H2383 0.950 . S
C2395 C2391 1.393 . S
C2395 C2394 1.391 . S
H2396 C2404 0.950 . S
H2397 C2409 0.950 . S
H2398 C2406 0.950 . S
H2399 C2408 0.950 . S
H2400 C2410 0.950 . S
H2401 C2412 0.950 . S
H2402 C2414 0.950 . S
H2403 C2415 0.950 . S
C2404 H2396 0.950 . S
C2404 C2405 1.386 . S
C2404 C2406 1.391 . S
C2405 C2404 1.386 . S
C2405 C2409 1.393 . S
C2406 H2398 0.950 . S
C2406 C2404 1.391 . S
C2406 C2407 1.400 . S
C2407 C2406 1.400 . S
C2407 C2408 1.398 . S
C2407 C2413 1.491 . S
C2408 H2399 0.950 . S
C2408 C2407 1.398 . S
C2408 C2409 1.391 . S
C2409 H2397 0.950 . S
C2409 C2405 1.393 . S
C2409 C2408 1.391 . S
C2410 H2400 0.950 . S
C2410 C2411 1.386 . S
C2410 C2412 1.391 . S
C2411 C2410 1.386 . S
C2411 C2415 1.393 . S
C2412 H2401 0.950 . S
C2412 C2410 1.391 . S
C2412 C2413 1.400 . S
C2413 C2407 1.491 . S
C2413 C2412 1.400 . S
C2413 C2414 1.398 . S
C2414 H2402 0.950 . S
C2414 C2413 1.398 . S
C2414 C2415 1.391 . S
C2415 H2403 0.950 . S
C2415 C2411 1.393 . S
C2415 C2414 1.391 . S
H2416 C2424 0.950 . S
H2417 C2429 0.950 . S
H2418 C2426 0.950 . S
H2419 C2428 0.950 . S
H2420 C2430 0.950 . S
H2421 C2432 0.950 . S
H2422 C2434 0.950 . S
H2423 C2435 0.950 . S
C2424 H2416 0.950 . S
C2424 C2425 1.386 . S
C2424 C2426 1.391 . S
C2425 C2424 1.386 . S
C2425 C2429 1.393 . S
C2426 H2418 0.950 . S
C2426 C2424 1.391 . S
C2426 C2427 1.400 . S
C2427 C2426 1.400 . S
C2427 C2428 1.398 . S
C2427 C2433 1.491 . S
C2428 H2419 0.950 . S
C2428 C2427 1.398 . S
C2428 C2429 1.391 . S
C2429 H2417 0.950 . S
C2429 C2425 1.393 . S
C2429 C2428 1.391 . S
C2430 H2420 0.950 . S
C2430 C2431 1.386 . S
C2430 C2432 1.391 . S
C2431 C2430 1.386 . S
C2431 C2435 1.393 . S
C2432 H2421 0.950 . S
C2432 C2430 1.391 . S
C2432 C2433 1.400 . S
C2433 C2427 1.491 . S
C2433 C2432 1.400 . S
C2433 C2434 1.398 . S
C2434 H2422 0.950 . S
C2434 C2433 1.398 . S
C2434 C2435 1.391 . S
C2435 H2423 0.950 . S
C2435 C2431 1.393 . S
C2435 C2434 1.391 . S
H2436 C2444 0.950 . S
H2437 C2449 0.950 . S
H2438 C2446 0.950 . S
H2439 C2448 0.950 . S
H2440 C2450 0.950 . S
H2441 C2452 0.950 . S
H2442 C2454 0.950 . S
H2443 C2455 0.950 . S
C2444 H2436 0.950 . S
C2444 C2445 1.386 . S
C2444 C2446 1.391 . S
C2445 C2444 1.386 . S
C2445 C2449 1.393 . S
C2446 H2438 0.950 . S
C2446 C2444 1.391 . S
C2446 C2447 1.400 . S
C2447 C2446 1.400 . S
C2447 C2448 1.398 . S
C2447 C2453 1.491 . S
C2448 H2439 0.950 . S
C2448 C2447 1.398 . S
C2448 C2449 1.391 . S
C2449 H2437 0.950 . S
C2449 C2445 1.393 . S
C2449 C2448 1.391 . S
C2450 H2440 0.950 . S
C2450 C2451 1.386 . S
C2450 C2452 1.391 . S
C2451 C2450 1.386 . S
C2451 C2455 1.393 . S
C2452 H2441 0.950 . S
C2452 C2450 1.391 . S
C2452 C2453 1.400 . S
C2453 C2447 1.491 . S
C2453 C2452 1.400 . S
C2453 C2454 1.398 . S
C2454 H2442 0.950 . S
C2454 C2453 1.398 . S
C2454 C2455 1.391 . S
C2455 H2443 0.950 . S
C2455 C2451 1.393 . S
C2455 C2454 1.391 . S
H2456 C2464 0.950 . S
H2457 C2469 0.950 . S
H2458 C2466 0.950 . S
H2459 C2468 0.950 . S
H2460 C2470 0.950 . S
H2461 C2472 0.950 . S
H2462 C2474 0.950 . S
H2463 C2475 0.950 . S
C2464 H2456 0.950 . S
C2464 C2465 1.386 . S
C2464 C2466 1.391 . S
C2465 C2464 1.386 . S
C2465 C2469 1.393 . S
C2466 H2458 0.950 . S
C2466 C2464 1.391 . S
C2466 C2467 1.400 . S
C2467 C2466 1.400 . S
C2467 C2468 1.398 . S
C2467 C2473 1.491 . S
C2468 H2459 0.950 . S
C2468 C2467 1.398 . S
C2468 C2469 1.391 . S
C2469 H2457 0.950 . S
C2469 C2465 1.393 . S
C2469 C2468 1.391 . S
C2470 H2460 0.950 . S
C2470 C2471 1.386 . S
C2470 C2472 1.391 . S
C2471 C2470 1.386 . S
C2471 C2475 1.393 . S
C2472 H2461 0.950 . S
C2472 C2470 1.391 . S
C2472 C2473 1.400 . S
C2473 C2467 1.491 . S
C2473 C2472 1.400 . S
C2473 C2474 1.398 . S
C2474 H2462 0.950 . S
C2474 C2473 1.398 . S
C2474 C2475 1.391 . S
C2475 H2463 0.950 . S
C2475 C2471 1.393 . S
C2475 C2474 1.391 . S
H2476 C2484 0.950 . S
H2477 C2489 0.950 . S
H2478 C2486 0.950 . S
H2479 C2488 0.950 . S
H2480 C2490 0.950 . S
H2481 C2492 0.950 . S
H2482 C2494 0.950 . S
H2483 C2495 0.950 . S
C2484 H2476 0.950 . S
C2484 C2485 1.386 . S
C2484 C2486 1.391 . S
C2485 C2484 1.386 . S
C2485 C2489 1.393 . S
C2486 H2478 0.950 . S
C2486 C2484 1.391 . S
C2486 C2487 1.400 . S
C2487 C2486 1.400 . S
C2487 C2488 1.398 . S
C2487 C2493 1.491 . S
C2488 H2479 0.950 . S
C2488 C2487 1.398 . S
C2488 C2489 1.391 . S
C2489 H2477 0.950 . S
C2489 C2485 1.393 . S
C2489 C2488 1.391 . S
C2490 H2480 0.950 . S
C2490 C2491 1.386 . S
C2490 C2492 1.391 . S
C2491 C2490 1.386 . S
C2491 C2495 1.393 . S
C2492 H2481 0.950 . S
C2492 C2490 1.391 . S
C2492 C2493 1.400 . S
C2493 C2487 1.491 . S
C2493 C2492 1.400 . S
C2493 C2494 1.398 . S
C2494 H2482 0.950 . S
C2494 C2493 1.398 . S
C2494 C2495 1.391 . S
C2495 H2483 0.950 . S
C2495 C2491 1.393 . S
C2495 C2494 1.391 . S
C825 C28 1.204 1_565 S
C831 C187 1.194 . S
C845 C40 1.208 . S
C851 C17 1.175 . S
C865 C96 1.211 1_455 S
C871 C51 1.169 . S
C885 C85 1.188 . S
C891 C108 1.207 1_545 S
C905 C164 1.204 . S
C911 C119 1.193 . S
C925 C176 1.205 1_655 S
C931 C153 1.190 . S
C945 C255 1.167 . S
C951 C232 1.212 1_455 S
C965 C289 1.168 . S
C971 C244 1.213 1_545 S
C985 C323 1.179 . S
C991 C278 1.207 . S
C1005 C312 1.213 1_655 S
C1011 C357 1.167 . S
C1025 C391 1.190 . S
C1031 C368 1.204 1_565 S
C1045 C380 1.204 . S
C1051 C221 1.193 . S
C1065 C595 1.180 . S
C1071 C436 1.207 1_545 S
C1085 C425 1.169 . S
C1091 C448 1.211 . S
C1105 C504 1.211 1_655 S
C1111 C459 1.169 . S
C1125 C538 1.210 1_565 S
C1131 C493 1.179 . S
C1145 C550 1.206 . S
C1151 C527 1.181 . S
C1165 C606 1.209 1_455 S
C1171 C561 1.182 . S
C1185 C663 1.167 . S
C1191 C618 1.212 1_655 S
C1205 C697 1.176 . S
C1211 C652 1.210 1_565 S
C1225 C708 1.211 . S
C1231 C731 1.168 . S
C1245 C720 1.209 1_455 S
C1251 C765 1.180 . S
C1265 C776 1.203 1_545 S
C1271 C799 1.193 . S
C1285 C629 1.169 . S
C1291 C788 1.210 . S
C1305 C15 1.735 . S
C1311 C525 1.757 . S
C1325 C56 1.753 . S
C1331 C566 1.738 . S
C1345 C83 1.731 . S
C1351 C593 1.760 . S
C1365 C423 1.758 . S
C1371 C124 1.733 . S
C1385 C151 1.731 . S
C1391 C464 1.760 . S
C1405 C192 1.760 . S
C1411 C491 1.731 . S
C1425 C736 1.755 . S
C1431 C219 1.736 . S
C1445 C763 1.736 . S
C1451 C260 1.755 . S
C1465 C804 1.732 . S
C1471 C294 1.760 . S
C1485 C634 1.760 . S
C1491 C328 1.732 . S
C1505 C355 1.756 . S
C1511 C668 1.735 . S
C1525 C396 1.756 . S
C1531 C695 1.735 . S
C1545 C22 1.511 . S
C1551 C287 1.523 . S
C1565 C49 1.537 . S
C1571 C321 1.518 . S
C1585 C90 1.514 . S
C1591 C362 1.536 . S
C1605 C117 1.519 . S
C1611 C389 1.513 . S
C1625 C158 1.535 . S
C1631 C226 1.514 . S
C1645 C185 1.524 . S
C1651 C253 1.536 . S
C1665 C702 1.512 . S
C1671 C430 1.533 . S
C1685 C457 1.520 . S
C1691 C729 1.537 . S
C1705 C770 1.511 . S
C1711 C498 1.532 . S
C1725 C532 1.510 . S
C1731 C797 1.529 . S
C1745 C559 1.523 . S
C1751 C627 1.511 . S
C1765 C600 1.533 . S
C1771 C661 1.530 . S
C1785 C3 1.698 . S
C1791 C103 1.698 . S
C1805 C139 1.697 . S
C1811 C35 1.699 . S
C1825 C71 1.696 . S
C1831 C171 1.712 . S
C1845 C307 1.713 . S
C1851 C207 1.729 . S
C1865 C343 1.725 . S
C1871 C239 1.731 . S
C1885 C273 1.723 . S
C1891 C375 1.704 . S
C1905 C513 1.716 . S
C1911 C411 1.699 . S
C1925 C545 1.711 . S
C1931 C443 1.696 . S
C1945 C479 1.701 . S
C1951 C581 1.720 . S
C1965 C715 1.707 . S
C1971 C613 1.696 . S
C1985 C647 1.698 . S
C1991 C751 1.697 . S
C2005 C783 1.714 . S
C2011 C683 1.697 . S
C2025 C74 1.453 . S
C2031 C1 1.353 . S
C2045 C37 1.336 . S
C2051 C130 1.452 . S
C2065 C142 1.453 . S
C2071 C69 1.325 . S
C2085 C198 1.455 . S
C2091 C105 1.323 . S
C2105 C137 1.323 . S
C2111 C6 1.453 . S
C2125 C173 1.354 . S
C2131 C62 1.453 . S
C2145 C205 1.344 . S
C2151 C346 1.452 . S
C2165 C402 1.454 . S
C2171 C241 1.321 . S
C2185 C210 1.455 . S
C2191 C275 1.360 . S
C2205 C309 1.357 . S
C2211 C266 1.456 . S
C2225 C341 1.321 . S
C2231 C300 1.453 . S
C2245 C377 1.347 . S
C2251 C334 1.452 . S
C2265 C409 1.324 . S
C2271 C482 1.455 . S
C2285 C445 1.360 . S
C2291 C516 1.454 . S
C2305 C477 1.324 . S
C2311 C572 1.455 . S
C2325 C584 1.456 . S
C2331 C511 1.337 . S
C2345 C547 1.324 . S
C2351 C414 1.453 . S
C2365 C470 1.455 . S
C2371 C579 1.323 . S
C2385 C615 1.321 . S
C2391 C754 1.454 . S
C2405 C810 1.456 . S
C2411 C649 1.350 . S
C2425 C681 1.324 . S
C2431 C640 1.455 . S
C2445 C674 1.456 . S
C2451 C717 1.352 . S
C2465 C686 1.452 . S
C2471 C749 1.345 . S
C2485 C785 1.359 . S
C2491 C742 1.454 . S
