# Generated by pormake.
# Topology vby, (6)-cn, num edge types: 1
# Building blocks:
#     Node 0, Type 0, BuildingBlock: NUHQIS_clean_sbu_0, # of connection points: 6
#     Node 1, Type 0, BuildingBlock: NUHQIS_clean_sbu_0, # of connection points: 6
#     Node 2, Type 0, BuildingBlock: NUHQIS_clean_sbu_0, # of connection points: 6
#     Node 3, Type 0, BuildingBlock: NUHQIS_clean_sbu_0, # of connection points: 6
#     Node 4, Type 0, BuildingBlock: NUHQIS_clean_sbu_0, # of connection points: 6
#     Node 5, Type 0, BuildingBlock: NUHQIS_clean_sbu_0, # of connection points: 6
#     Node 6, Type 0, BuildingBlock: NUHQIS_clean_sbu_0, # of connection points: 6
#     Node 7, Type 0, BuildingBlock: NUHQIS_clean_sbu_0, # of connection points: 6
#     Edge 8, Type (0, 0), BuildingBlock: AJUNOK_clean_linker_0, # of connection points: 2
#     Edge 9, Type (0, 0), BuildingBlock: AJUNOK_clean_linker_0, # of connection points: 2
#     Edge 10, Type (0, 0), BuildingBlock: AJUNOK_clean_linker_0, # of connection points: 2
#     Edge 11, Type (0, 0), BuildingBlock: AJUNOK_clean_linker_0, # of connection points: 2
#     Edge 12, Type (0, 0), BuildingBlock: AJUNOK_clean_linker_0, # of connection points: 2
#     Edge 13, Type (0, 0), BuildingBlock: AJUNOK_clean_linker_0, # of connection points: 2
#     Edge 14, Type (0, 0), BuildingBlock: AJUNOK_clean_linker_0, # of connection points: 2
#     Edge 15, Type (0, 0), BuildingBlock: AJUNOK_clean_linker_0, # of connection points: 2
#     Edge 16, Type (0, 0), BuildingBlock: AJUNOK_clean_linker_0, # of connection points: 2
#     Edge 17, Type (0, 0), BuildingBlock: AJUNOK_clean_linker_0, # of connection points: 2
#     Edge 18, Type (0, 0), BuildingBlock: AJUNOK_clean_linker_0, # of connection points: 2
#     Edge 19, Type (0, 0), BuildingBlock: AJUNOK_clean_linker_0, # of connection points: 2
#     Edge 20, Type (0, 0), BuildingBlock: AJUNOK_clean_linker_0, # of connection points: 2
#     Edge 21, Type (0, 0), BuildingBlock: AJUNOK_clean_linker_0, # of connection points: 2
#     Edge 22, Type (0, 0), BuildingBlock: AJUNOK_clean_linker_0, # of connection points: 2
#     Edge 23, Type (0, 0), BuildingBlock: AJUNOK_clean_linker_0, # of connection points: 2
#     Edge 24, Type (0, 0), BuildingBlock: AJUNOK_clean_linker_0, # of connection points: 2
#     Edge 25, Type (0, 0), BuildingBlock: AJUNOK_clean_linker_0, # of connection points: 2
#     Edge 26, Type (0, 0), BuildingBlock: AJUNOK_clean_linker_0, # of connection points: 2
#     Edge 27, Type (0, 0), BuildingBlock: AJUNOK_clean_linker_0, # of connection points: 2
#     Edge 28, Type (0, 0), BuildingBlock: AJUNOK_clean_linker_0, # of connection points: 2
#     Edge 29, Type (0, 0), BuildingBlock: AJUNOK_clean_linker_0, # of connection points: 2
#     Edge 30, Type (0, 0), BuildingBlock: AJUNOK_clean_linker_0, # of connection points: 2
#     Edge 31, Type (0, 0), BuildingBlock: AJUNOK_clean_linker_0, # of connection points: 2
# Relax obj value: 0.200
# Max RMSD: 0.236
# Mean RMSD: 0.224
data_MOF--net-vby--node1-NUHQIS_clean_sbu_0--edge1-AJUNOK_clean_linker_0
_symmetry_space_group_name_H-M    P1
_symmetry_Int_Tables_number       1
_symmetry_cell_setting            triclinic
loop_
_symmetry_equiv_pos_as_xyz
'x, y, z'
_cell_length_a     11.323907
_cell_length_b     89.317843
_cell_length_c     22.170156
_cell_angle_alpha  86.659639
_cell_angle_beta   89.623182
_cell_angle_gamma 90.255691
loop_
_atom_site_label
_atom_site_type_symbol
_atom_site_fract_x
_atom_site_fract_y
_atom_site_fract_z
_atom_type_partial_charge
Tb0 Tb 0.10382 0.40643 0.02403 0.0
Eu1 Eu 0.09881 0.36904 0.02754 0.0
C2 C 0.07433 0.38713 0.14446 0.0
C3 C 0.34141 0.38777 0.02729 0.0
C4 C 0.08687 0.45031 0.01371 0.0
C5 C 1.01432 0.47361 0.05231 0.0
C6 C 1.0259 0.45799 0.05788 0.0
C7 C 0.13093 0.45858 0.9624 0.0
C8 C 0.11931 0.4742 0.95685 0.0
C9 C 0.06451 0.48195 0.00277 0.0
C10 C 0.12561 0.43462 0.02712 0.0
O11 O 1.05119 0.40024 0.93405 0.0
O12 O 0.15038 0.37794 0.93439 0.0
O13 O 0.91078 0.37618 0.01129 0.0
O14 O 0.91572 0.4013 0.03182 0.0
C15 C 0.09868 0.38926 0.90505 0.0
O16 O 1.05357 0.34817 0.98602 0.0
O17 O 0.13129 0.34746 0.07554 0.0
O18 O 1.02632 0.37649 0.11475 0.0
O19 O 0.14027 0.39743 0.11585 0.0
O20 O 0.28326 0.3995 0.00532 0.0
O21 O 0.28681 0.37546 0.04774 0.0
C22 C 0.85764 0.38891 0.02093 0.0
O23 O 0.06982 0.42621 0.06823 0.0
O24 O 0.16658 0.42687 0.98359 0.0
C25 C 0.15388 0.32555 0.01881 0.0
C26 C 0.23992 0.29624 0.00439 0.0
C27 C 0.16101 0.30295 0.96237 0.0
C28 C 0.11837 0.31742 0.96956 0.0
C29 C 0.23539 0.319 0.05994 0.0
C30 C 0.27792 0.30451 0.05276 0.0
C31 C 0.09269 0.33969 0.03151 0.0
H32 H 0.97151 0.47925 0.08843 0.0
H33 H 0.99269 0.45203 0.09849 0.0
H34 H 0.17971 0.45308 0.92787 0.0
H35 H 0.15651 0.48028 0.91744 0.0
H36 H 0.12822 0.29676 0.9253 0.0
H37 H 1.05381 0.32201 0.93781 0.0
H38 H 0.26343 0.32484 0.09888 0.0
H39 H 0.33896 0.29965 0.08575 0.0
Tb40 Tb 1.0067 0.62277 0.98164 0.0
Eu41 Eu 1.01355 0.66017 0.97692 0.0
C42 C 1.02817 0.64006 0.10013 0.0
C43 C 0.77034 0.6414 0.98228 0.0
C44 C 1.02621 0.57902 0.99005 0.0
C45 C 0.999 0.55479 0.04517 0.0
C46 C 0.98296 0.57035 0.04052 0.0
C47 C 0.08988 0.5718 0.94552 0.0
C48 C 0.10595 0.55623 0.9502 0.0
C49 C 1.05842 0.5475 -0.00058 0.0
C50 C 0.98416 0.59462 0.97801 0.0
O51 O 0.96087 0.63198 0.89182 0.0
O52 O 0.07944 0.6525 0.88828 0.0
O53 O 0.20189 0.65303 0.99037 0.0
O54 O 0.19517 0.62779 0.97176 0.0
C55 C 1.02703 0.64178 0.86082 0.0
O56 O 0.98098 0.68154 0.9273 0.0
O57 O 1.05854 0.68129 0.0167 0.0
O58 O 0.97517 0.65161 0.07267 0.0
O59 O 0.06783 0.62887 0.06975 0.0
O60 O 0.82938 0.62979 0.00471 0.0
O61 O 0.82432 0.65363 0.96046 0.0
C62 C 0.25409 0.6402 0.98156 0.0
O63 O 0.94744 0.60224 0.02289 0.0
O64 O 1.03541 0.60315 0.93572 0.0
C65 C 0.95962 0.70388 0.9814 0.0
C66 C 0.88015 0.73362 0.99226 0.0
C67 C 0.84916 0.72563 0.94189 0.0
C68 C 0.88891 0.71096 0.93635 0.0
C69 C 0.9863 0.71165 0.033 0.0
C70 C 0.94649 0.72633 0.03851 0.0
C71 C 1.01982 0.68955 0.97049 0.0
H72 H 0.96181 0.54838 0.08377 0.0
H73 H 0.93148 0.57548 0.07505 0.0
H74 H 0.12196 0.57804 0.90532 0.0
H75 H 0.15026 0.55095 0.91363 0.0
H76 H 0.7983 0.73096 0.90548 0.0
H77 H 0.86805 0.7054 0.89558 0.0
H78 H 1.0416 0.7066 0.06823 0.0
H79 H 0.96969 0.7321 0.07845 0.0
Tb80 Tb 0.10743 0.6591 0.47725 0.0
Eu81 Eu 0.1125 0.6218 0.48057 0.0
C82 C 0.10402 0.64166 0.36022 0.0
C83 C 0.86646 0.64037 0.48004 0.0
C84 C 0.16196 0.70176 0.48073 0.0
C85 C 0.20955 0.72716 0.4423 0.0
C86 C 0.16799 0.71274 0.43291 0.0
C87 C 0.20204 0.70534 0.53807 0.0
C88 C 0.2441 0.71982 0.54749 0.0
C89 C 0.24586 0.731 0.49992 0.0
C90 C 0.10058 0.68749 0.4703 0.0
O91 O 0.14425 0.65106 0.57024 0.0
O92 O 1.04936 0.62832 0.57124 0.0
O93 O 0.29573 0.62921 0.50319 0.0
O94 O 0.29261 0.65353 0.46326 0.0
C95 C 0.09047 0.63969 0.59971 0.0
O96 O 0.16806 0.6002 0.52212 0.0
O97 O 0.08289 0.60124 0.43408 0.0
O98 O 0.16801 0.63153 0.38938 0.0
O99 O 1.04836 0.65173 0.39026 0.0
O100 O 0.92449 0.65256 0.49282 0.0
O101 O 0.92003 0.62781 0.46773 0.0
C102 C 0.35039 0.64157 0.48389 0.0
O103 O 0.14052 0.67949 0.42735 0.0
O104 O 0.06298 0.67916 0.51683 0.0
C105 C 0.09452 0.57687 0.48681 0.0
C106 C 0.06991 0.54529 0.49293 0.0
C107 C 0.12529 0.55254 0.53977 0.0
C108 C 0.13797 0.56815 0.53661 0.0
C109 C 1.03341 0.56967 0.44159 0.0
C110 C 1.02074 0.55405 0.44479 0.0
C111 C 0.13214 0.59273 0.47668 0.0
H112 H 0.20919 0.73549 0.40477 0.0
H113 H 0.13639 0.71032 0.38846 0.0
H114 H 0.19825 0.69709 0.57585 0.0
H115 H 0.27391 0.72233 0.59212 0.0
H116 H 0.164 0.54608 0.57744 0.0
H117 H 0.18712 0.57331 0.57172 0.0
H118 H 0.99993 0.57601 0.40228 0.0
H119 H 0.97525 0.54878 0.40871 0.0
Tb120 Tb 1.00365 0.40486 0.5247 0.0
Eu121 Eu 1.00678 0.36755 0.52941 0.0
C122 C 1.01078 0.38763 0.40621 0.0
C123 C 0.76472 0.38599 0.52959 0.0
C124 C 1.02995 0.44846 0.51241 0.0
C125 C 1.00714 0.47228 0.45433 0.0
C126 C 0.98929 0.45675 0.46086 0.0
C127 C 0.09352 0.45596 0.55594 0.0
C128 C 0.11125 0.47148 0.54942 0.0
C129 C 0.06566 0.47986 0.49931 0.0
C130 C 0.98506 0.43305 0.52674 0.0
O131 O 0.96314 0.39607 0.61632 0.0
O132 O 0.07777 0.37531 0.61646 0.0
O133 O 0.19362 0.37476 0.51086 0.0
O134 O 0.19207 0.39968 0.53397 0.0
C135 C 1.02968 0.38611 0.6454 0.0
O136 O 0.97268 0.34604 0.57862 0.0
O137 O 1.05145 0.34657 0.48888 0.0
O138 O 0.95803 0.37627 0.43575 0.0
O139 O 1.05812 0.39861 0.43511 0.0
O140 O 0.82226 0.39796 0.50794 0.0
O141 O 0.82014 0.37392 0.55048 0.0
C142 C 0.2486 0.38722 0.52273 0.0
O143 O 0.94515 0.42525 0.48323 0.0
O144 O 1.0368 0.42465 0.56872 0.0
C145 C 0.95232 0.32377 0.5238 0.0
C146 C 0.87631 0.29392 0.50964 0.0
C147 C 0.86088 0.30057 0.56503 0.0
C148 C 0.899 0.31529 0.57211 0.0
C149 C 0.96295 0.31733 0.46759 0.0
C150 C 0.92486 0.3026 0.46054 0.0
C151 C 1.01204 0.33817 0.53495 0.0
H152 H 0.96921 0.47845 0.41572 0.0
H153 H 0.93765 0.4514 0.42716 0.0
H154 H 0.1242 0.44998 0.59673 0.0
H155 H 0.15715 0.47702 0.58465 0.0
H156 H 0.82391 0.29416 0.6037 0.0
H157 H 0.89108 0.3198 0.61625 0.0
H158 H 1.00447 0.32348 0.42951 0.0
H159 H 0.9356 0.29788 0.41693 0.0
Tb160 Tb 0.60045 0.9068 0.01329 0.0
Eu161 Eu 0.59503 0.86935 0.01247 0.0
C162 C 0.57635 0.88657 0.13176 0.0
C163 C 0.83836 0.88781 0.01512 0.0
C164 C 0.58092 0.95059 0.00607 0.0
C165 C 0.51502 0.97398 0.04652 0.0
C166 C 0.52637 0.95836 0.05202 0.0
C167 C 0.61844 0.95875 0.95314 0.0
C168 C 0.60712 0.97438 0.94769 0.0
C169 C 0.55907 0.98221 -0.00477 0.0
C170 C 0.6203 0.93492 0.01898 0.0
O171 O 0.55022 0.9014 0.92231 0.0
O172 O 0.64457 0.87874 0.91952 0.0
O173 O 0.40968 0.87673 -0.00604 0.0
O174 O 0.41174 0.90129 0.02171 0.0
C175 C 0.595 0.89051 0.89197 0.0
O176 O 0.55948 0.84854 0.96791 0.0
O177 O 0.61665 0.84769 0.06133 0.0
O178 O 0.52588 0.87623 0.10135 0.0
O179 O 0.63811 0.8974 0.10404 0.0
O180 O 0.78225 0.90006 -0.00361 0.0
O181 O 0.78192 0.8755 0.03346 0.0
C182 C 0.35494 0.88899 0.00801 0.0
O183 O 0.56308 0.9263 0.05881 0.0
O184 O 0.66391 0.92742 0.97534 0.0
C185 C 0.65272 0.82585 0.00639 0.0
C186 C 0.74259 0.79649 -0.00166 0.0
C187 C 0.67159 0.803 0.95222 0.0
C188 C 0.62699 0.8175 0.95625 0.0
C189 C 0.7267 0.8195 0.05169 0.0
C190 C 0.77108 0.80499 0.04769 0.0
C191 C 0.58837 0.83999 0.01527 0.0
H192 H 0.47753 0.97968 0.08391 0.0
H193 H 0.49843 0.95247 0.09382 0.0
H194 H 0.66203 0.95318 0.91711 0.0
H195 H 0.63943 0.9804 0.90701 0.0
H196 H 0.6485 0.79675 0.91352 0.0
H197 H 0.56877 0.82197 0.92111 0.0
H198 H 0.7467 0.82549 0.0915 0.0
H199 H 0.8236 0.8002 0.08456 0.0
Tb200 Tb 0.50572 0.12295 0.97843 0.0
Eu201 Eu 0.51248 0.16029 0.97541 0.0
C202 C 0.52149 0.13991 0.0978 0.0
C203 C 0.26862 0.14179 0.97805 0.0
C204 C 0.5276 0.07922 0.98465 0.0
C205 C 0.50593 0.05502 0.04051 0.0
C206 C 0.49039 0.07059 0.03645 0.0
C207 C 0.585 0.07197 0.93811 0.0
C208 C 0.60058 0.05641 0.9422 0.0
C209 C 0.55879 0.04771 0.99285 0.0
C210 C 0.48502 0.09482 0.97366 0.0
O211 O 0.45942 0.13239 0.88924 0.0
O212 O 0.57888 0.15282 0.88631 0.0
O213 O 0.69805 0.15296 0.99266 0.0
O214 O 0.69462 0.12822 0.9673 0.0
C215 C 0.52619 0.14216 0.85852 0.0
O216 O 0.48386 0.18181 0.92632 0.0
O217 O 0.55564 0.18125 0.01702 0.0
O218 O 0.46868 0.15145 0.07025 0.0
O219 O 0.56365 0.1289 0.06723 0.0
O220 O 0.32534 0.12974 -0.00151 0.0
O221 O 0.32471 0.15393 0.95736 0.0
C222 C 0.75217 0.14057 0.97968 0.0
O223 O 0.44848 0.10227 0.01908 0.0
O224 O 0.53537 0.10351 0.93156 0.0
C225 C 0.45864 0.2039 0.98153 0.0
C226 C 0.37508 0.23348 0.99114 0.0
C227 C 0.3337 0.22463 0.94525 0.0
C228 C 0.37525 0.21001 0.94036 0.0
C229 C 0.49595 0.21254 0.02893 0.0
C230 C 0.45411 0.22714 0.03389 0.0
C231 C 0.51988 0.18966 0.9706 0.0
H232 H 0.47328 0.04862 0.08022 0.0
H233 H 0.44382 0.07575 0.07263 0.0
H234 H 0.61214 0.0782 0.89692 0.0
H235 H 0.63967 0.0511 0.90422 0.0
H236 H 0.27094 0.22913 0.91237 0.0
H237 H 0.34503 0.20371 0.90308 0.0
H238 H 0.56133 0.20824 0.06084 0.0
H239 H 0.48756 0.2337 0.06971 0.0
Tb240 Tb 0.60195 0.15891 0.47439 0.0
Eu241 Eu 0.6063 0.12154 0.47905 0.0
C242 C 0.59599 0.14124 0.35804 0.0
C243 C 0.36063 0.14021 0.47806 0.0
C244 C 0.66283 0.20138 0.47798 0.0
C245 C 0.76341 0.22392 0.43644 0.0
C246 C 0.72021 0.20942 0.42974 0.0
C247 C 0.65253 0.20808 0.53366 0.0
C248 C 0.69587 0.2226 0.54036 0.0
C249 C 0.75016 0.23078 0.49154 0.0
C250 C 0.59803 0.18733 0.46682 0.0
O251 O 0.6401 0.15108 0.56742 0.0
O252 O 0.54435 0.12838 0.56946 0.0
O253 O 0.79001 0.12894 0.50081 0.0
O254 O 0.7867 0.15318 0.46004 0.0
C255 C 0.58661 0.13978 0.59743 0.0
O256 O 0.65855 0.09997 0.52182 0.0
O257 O 0.57712 0.10084 0.43265 0.0
O258 O 0.65996 0.1311 0.38722 0.0
O259 O 0.54161 0.15145 0.38787 0.0
O260 O 0.41877 0.15245 0.49015 0.0
O261 O 0.41401 0.12759 0.46636 0.0
C262 C 0.84456 0.14127 0.48108 0.0
O263 O 0.63717 0.17914 0.42424 0.0
O264 O 0.55729 0.17912 0.51299 0.0
C265 C 0.59344 0.07639 0.4848 0.0
C266 C 0.58061 0.04476 0.49717 0.0
C267 C 0.58245 0.05324 0.54862 0.0
C268 C 0.58975 0.06895 0.54251 0.0
C269 C 0.58493 0.0679 0.43367 0.0
C270 C 0.57848 0.05226 0.43976 0.0
C271 C 0.62517 0.09246 0.47599 0.0
H272 H 0.80244 0.23002 0.39756 0.0
H273 H 0.7272 0.20475 0.38584 0.0
H274 H 0.60712 0.20233 0.5715 0.0
H275 H 0.68463 0.22757 0.58343 0.0
H276 H 0.58375 0.0477 0.59339 0.0
H277 H 0.59722 0.07519 0.58277 0.0
H278 H 0.58883 0.07331 0.38866 0.0
H279 H 0.57513 0.04599 0.39941 0.0
Tb280 Tb 0.50779 0.90501 0.50299 0.0
Eu281 Eu 0.51144 0.86753 0.52126 0.0
C282 C 0.51823 0.8851 0.39257 0.0
C283 C 0.27 0.88591 0.51117 0.0
C284 C 0.53433 0.94842 0.49358 0.0
C285 C 0.58195 0.97303 0.44664 0.0
C286 C 0.5611 0.95772 0.44206 0.0
C287 C 0.53289 0.95468 0.55038 0.0
C288 C 0.55414 0.97006 0.55501 0.0
C289 C 0.57708 0.97945 0.50301 0.0
C290 C 0.48875 0.93314 0.48504 0.0
O291 O 0.56801 0.90046 0.59496 0.0
O292 O 0.48476 0.87706 0.6122 0.0
O293 O 0.69864 0.87493 0.53587 0.0
O294 O 0.69471 0.89925 0.49383 0.0
C295 C 0.53207 0.88931 0.63191 0.0
O296 O 0.49246 0.84682 0.57901 0.0
O297 O 0.54424 0.84572 0.4852 0.0
O298 O 0.56595 0.87424 0.42605 0.0
O299 O 0.46231 0.89609 0.41693 0.0
O300 O 0.32936 0.89762 0.528 0.0
O301 O 0.32381 0.87358 0.49673 0.0
C302 C 0.75262 0.88725 0.51481 0.0
O303 O 0.54579 0.92466 0.4489 0.0
O304 O 0.44278 0.92545 0.53122 0.0
C305 C 0.4578 0.82355 0.53314 0.0
C306 C 0.3749 0.79374 0.5265 0.0
C307 C 0.41806 0.79877 0.58108 0.0
C308 C 0.45908 0.81351 0.5843 0.0
C309 C 0.41132 0.81868 0.47892 0.0
C310 C 0.3704 0.80392 0.47568 0.0
C311 C 0.5195 0.83815 0.53574 0.0
H312 H 0.59621 0.97997 0.40551 0.0
H313 H 0.56004 0.95327 0.3976 0.0
H314 H 0.51098 0.94785 0.59091 0.0
H315 H 0.54988 0.97468 0.59907 0.0
H316 H 0.42474 0.79115 0.62072 0.0
H317 H 0.49627 0.81689 0.62634 0.0
H318 H 0.40988 0.82611 0.43854 0.0
H319 H 0.33709 0.80037 0.43307 0.0
C320 C 0.539 0.37508 0.03171 0.0
C321 C 0.47285 0.38838 0.0262 0.0
C322 C 0.66289 0.37539 0.02923 0.0
C323 C 0.72618 0.38902 0.02177 0.0
H324 H 0.4949 0.3643 0.0374 0.0
H325 H 0.70926 0.36481 0.03387 0.0
S326 S 0.59532 0.42708 0.0059 0.0
N327 N 0.48057 0.41566 0.01344 0.0
N328 N 0.71265 0.41618 0.00888 0.0
C329 C 0.66121 0.40241 0.01653 0.0
C330 C 0.53498 0.40211 0.01866 0.0
C331 C 0.44899 0.6536 0.97331 0.0
C332 C 0.3855 0.64002 0.98188 0.0
C333 C 0.57282 0.65393 0.97332 0.0
C334 C 0.63889 0.64071 0.98257 0.0
H335 H 0.40284 0.66414 0.96596 0.0
H336 H 0.61688 0.66469 0.96639 0.0
S337 S 0.51579 0.60214 0.00763 0.0
N338 N 0.39849 0.61297 0.0001 0.0
N339 N 0.63084 0.61353 0.00034 0.0
C340 C 0.57659 0.62701 0.9914 0.0
C341 C 0.45024 0.62668 0.99091 0.0
C342 C 0.668 0.62766 0.48576 0.0
C343 C 0.73508 0.64096 0.48051 0.0
C344 C 0.5441 0.628 0.48748 0.0
C345 C 0.48182 0.64166 0.4833 0.0
H346 H 0.71134 0.61686 0.48919 0.0
H347 H 0.49689 0.61741 0.4915 0.0
S348 S 0.61529 0.67974 0.46817 0.0
N349 N 0.72925 0.66828 0.47058 0.0
N350 N 0.49718 0.66886 0.47374 0.0
C351 C 0.54771 0.65506 0.47773 0.0
C352 C 0.67391 0.65472 0.47641 0.0
C353 C 0.57141 0.39964 0.51762 0.0
C354 C 0.6331 0.38608 0.5289 0.0
C355 C 0.4473 0.40001 0.51626 0.0
C356 C 0.37983 0.3868 0.52531 0.0
H357 H 0.61919 0.41012 0.50995 0.0
H358 H 0.40413 0.41069 0.50726 0.0
S359 S 0.49728 0.34838 0.5583 0.0
N360 N 0.61589 0.35912 0.55042 0.0
N361 N 0.38414 0.35979 0.54796 0.0
C362 C 0.44031 0.37318 0.5371 0.0
C363 C 0.56634 0.37282 0.5389 0.0
C364 C 1.03317 0.90152 0.00737 0.0
C365 C 0.96998 0.88787 0.01396 0.0
C366 C 0.15735 0.90186 0.00589 0.0
C367 C 0.22346 0.88854 0.0101 0.0
H368 H 0.98652 0.91209 0.00365 0.0
H369 H 0.20165 0.91263 0.00075 0.0
S370 S 0.10129 0.84978 0.02876 0.0
N371 N 0.98399 0.86067 0.02524 0.0
N372 N 0.2158 0.86126 0.0225 0.0
C373 C 0.16131 0.87481 0.01688 0.0
C374 C 1.0352 0.87447 0.01883 0.0
C375 C 0.07391 0.12802 0.98546 0.0
C376 C 0.13708 0.14167 0.97848 0.0
C377 C 0.94967 0.12766 0.98505 0.0
C378 C 0.88365 0.14095 0.97839 0.0
H379 H 0.12066 0.11747 0.99084 0.0
H380 H 0.90522 0.1169 0.99074 0.0
S381 S 1.00606 0.17968 0.95794 0.0
N382 N 0.12323 0.16883 0.96443 0.0
N383 N 0.89155 0.1682 0.96337 0.0
C384 C 0.9459 0.15468 0.97119 0.0
C385 C 0.07194 0.15503 0.97129 0.0
C386 C 0.16241 0.12746 0.48433 0.0
C387 C 0.22927 0.14079 0.47842 0.0
C388 C 1.03851 0.12777 0.48575 0.0
C389 C 0.97598 0.1414 0.48062 0.0
H390 H 0.20592 0.11669 0.48849 0.0
H391 H 0.99151 0.11717 0.49033 0.0
S392 S 0.10884 0.17951 0.46348 0.0
N393 N 0.22302 0.16808 0.46686 0.0
N394 N 0.9909 0.16859 0.46944 0.0
C395 C 1.04166 0.15482 0.4744 0.0
C396 C 0.16788 0.15452 0.47339 0.0
C397 C 0.94661 0.87366 0.51561 0.0
C398 C 0.88442 0.88733 0.51361 0.0
C399 C 0.07068 0.87328 0.51399 0.0
C400 C 0.13829 0.88656 0.5112 0.0
H401 H 0.89917 0.86308 0.5179 0.0
H402 H 0.11378 0.86246 0.51573 0.0
S403 S 1.01923 0.92537 0.50462 0.0
N404 N 0.9007 0.91452 0.50813 0.0
N405 N 0.13302 0.91387 0.50559 0.0
C406 C 0.07728 0.90034 0.5091 0.0
C407 C 0.95085 0.9007 0.51011 0.0
C408 C 0.95969 0.52225 0.01279 0.0
C409 C 0.0631 0.53079 0.00093 0.0
C410 C 0.96057 0.50653 0.01284 0.0
C411 C 0.06482 0.49868 0.00084 0.0
H412 H 0.87679 0.52779 0.02125 0.0
H413 H 0.87865 0.50046 0.02178 0.0
S414 S 0.36135 0.51564 0.97208 0.0
N415 N 0.27383 0.53014 0.98008 0.0
N416 N 0.27573 0.50063 0.98023 0.0
C417 C 0.16918 0.50706 0.98969 0.0
C418 C 0.16825 0.52308 0.9897 0.0
C419 C 1.03441 0.50429 0.54718 0.0
C420 C 0.07024 0.49654 0.49668 0.0
C421 C 1.03376 0.52001 0.5455 0.0
C422 C 0.06859 0.52862 0.49319 0.0
H423 H 1.00476 0.49814 0.58811 0.0
H424 H 1.00457 0.52548 0.58528 0.0
S425 S 0.17914 0.51379 0.35047 0.0
N426 N 0.14712 0.49866 0.39397 0.0
N427 N 0.14634 0.52821 0.39076 0.0
C428 C 0.10614 0.52101 0.44263 0.0
C429 C 0.1068 0.50499 0.44438 0.0
C430 C 0.45871 1.00686 0.00856 0.0
C431 C 0.56059 0.99893 0.99318 0.0
C432 C 0.45938 0.02258 0.00885 0.0
C433 C 0.56207 0.03101 -0.00603 0.0
H434 H 0.37743 1.00088 0.01998 0.0
H435 H 0.37819 0.0282 0.01999 0.0
S436 S 0.85481 0.01558 0.95544 0.0
N437 N 0.76883 1.00066 0.96597 0.0
N438 N 0.76986 0.03016 0.96647 0.0
C439 C 0.66492 0.0232 0.97926 0.0
C440 C 0.66425 1.0072 0.9789 0.0
C441 C 0.50238 0.01969 0.53711 0.0
C442 C 0.58659 0.02811 0.50263 0.0
C443 C 0.50235 1.00392 0.53879 0.0
C444 C 0.58706 0.99603 0.5064 0.0
H445 H 0.43375 0.02532 0.56126 0.0
H446 H 0.43287 0.9979 0.56387 0.0
S447 S 0.83665 1.01294 0.41658 0.0
N448 N 0.76335 0.02745 0.44018 0.0
N449 N 0.76455 0.99791 0.44406 0.0
C450 C 0.67514 1.00437 0.47428 0.0
C451 C 0.67461 0.02037 0.47224 0.0
C452 C 0.26865 0.27023 0.05092 0.0
C453 C 0.27684 0.28036 -8e-05 0.0
C454 C 0.2998 0.2551 0.04767 0.0
C455 C 0.33997 0.24949 0.99324 0.0
H456 H 0.23623 0.27397 0.09355 0.0
H457 H 0.29124 0.24769 0.08795 0.0
S458 S 0.38694 0.27161 0.84805 0.0
N459 N 0.33438 0.28386 0.89423 0.0
N460 N 0.39269 0.25545 0.88806 0.0
C461 C 0.35008 0.25953 0.94212 0.0
C462 C 0.31858 0.27494 0.94546 0.0
C463 C 0.69786 0.7694 0.98364 0.0
C464 C 0.78058 0.78057 -0.00334 0.0
C465 C 0.73043 0.75427 0.98278 0.0
C466 C 0.84693 0.74968 -0.00489 0.0
H467 H 0.60666 0.77234 0.97479 0.0
H468 H 0.66355 0.74607 0.9729 0.0
S469 S 0.09915 0.77461 0.02728 0.0
N470 N 0.98546 0.78605 0.01921 0.0
N471 N 1.04666 0.75764 0.01769 0.0
C472 C 0.93082 0.76074 0.00761 0.0
C473 C 0.89768 0.77616 0.00839 0.0
C474 C 0.35792 0.75452 0.46818 0.0
C475 C 0.28178 0.74676 0.50978 0.0
C476 C 0.387 0.76966 0.4739 0.0
C477 C 0.34141 0.77769 0.52154 0.0
H478 H 0.39549 0.74884 0.43075 0.0
H479 H 0.44661 0.77509 0.44096 0.0
S480 S 0.13396 0.76288 0.64101 0.0
N481 N 0.15835 0.74847 0.59929 0.0
N482 N 0.21389 0.77687 0.61027 0.0
C483 C 0.26556 0.77009 0.56363 0.0
C484 C 0.23564 0.75466 0.55773 0.0
C485 C 0.73625 0.2721 0.52537 0.0
C486 C 0.84587 0.2778 0.50411 0.0
C487 C 0.70674 0.25689 0.52172 0.0
C488 C 0.78579 0.24675 0.49685 0.0
H489 H 0.67214 0.27949 0.54438 0.0
H490 H 0.6204 0.25309 0.53763 0.0
S491 S 0.08819 0.25571 0.43981 0.0
N492 N 1.03651 0.2719 0.46056 0.0
N493 N 0.98111 0.24336 0.45381 0.0
C494 C 0.89643 0.25225 0.47634 0.0
C495 C 0.92641 0.26774 0.47995 0.0
C496 C 0.11468 0.39773 0.24498 0.0
C497 C 1.05486 0.38728 0.21091 0.0
C498 C 0.09847 0.39792 0.30781 0.0
C499 C 1.02184 0.38769 0.33925 0.0
H500 H 0.17542 0.40575 0.22316 0.0
H501 H 0.14799 0.40606 0.33193 0.0
S502 S 0.83826 0.35861 0.27084 0.0
N503 N 0.91157 0.36681 0.21338 0.0
N504 N 0.88149 0.3672 0.33081 0.0
C505 C 0.95973 0.37736 0.30556 0.0
C506 C 0.97615 0.37716 0.24167 0.0
C507 C 1.00071 0.65157 0.19989 0.0
C508 C 1.04793 0.64003 0.16648 0.0
C509 C 1.0201 0.65206 0.26217 0.0
C510 C 0.08794 0.64107 0.29384 0.0
H511 H 0.94801 0.66036 0.17789 0.0
H512 H 0.98124 0.66116 0.28557 0.0
S513 S 0.23241 0.60842 0.2278 0.0
N514 N 0.16635 0.6173 0.17016 0.0
N515 N 0.20281 0.61823 0.28679 0.0
C516 C 0.13605 0.62946 0.26104 0.0
C517 C 0.116 0.62893 0.1976 0.0
C518 C 0.09611 0.6528 0.76005 0.0
C519 C 1.04124 0.64094 0.79441 0.0
C520 C 0.11225 0.65226 0.69744 0.0
C521 C 0.07467 0.63979 0.66643 0.0
H522 H 0.12663 0.66268 0.78153 0.0
H523 H 0.15419 0.66176 0.67326 0.0
S524 S 0.92951 0.60545 0.73581 0.0
N525 N 0.95152 0.61616 0.79288 0.0
N526 N 0.98182 0.61507 0.67562 0.0
C527 C 1.02043 0.62776 0.70039 0.0
C528 C 1.00369 0.62835 0.76417 0.0
C529 C 0.98462 0.39696 0.74505 0.0
C530 C 1.05113 0.38708 0.71117 0.0
C531 C 1.00252 0.3979 0.80737 0.0
C532 C 0.08757 0.38901 0.83833 0.0
H533 H 0.91702 0.40389 0.72356 0.0
H534 H 0.94722 0.40543 0.83163 0.0
S535 S 0.29302 0.36237 0.76955 0.0
N536 N 0.21109 0.36893 0.71282 0.0
N537 N 0.24456 0.37071 0.82934 0.0
C538 C 0.15708 0.3794 0.80462 0.0
C539 C 0.1388 0.37844 0.74129 0.0
C540 C 0.55637 0.89926 0.22882 0.0
C541 C 0.56312 0.88594 0.1982 0.0
C542 C 0.53901 0.8989 0.29163 0.0
C543 C 0.53069 0.88519 0.32612 0.0
H544 H 0.56256 0.91005 0.20397 0.0
H545 H 0.5342 0.90942 0.31343 0.0
S546 S 0.54547 0.84716 0.26757 0.0
N547 N 0.5606 0.85867 0.20696 0.0
N548 N 0.53107 0.85798 0.32504 0.0
C549 C 0.53862 0.8718 0.29607 0.0
C550 C 0.55392 0.87217 0.23208 0.0
C551 C 0.4974 0.15164 0.19731 0.0
C552 C 0.53969 0.13974 0.1643 0.0
C553 C 0.5166 0.15206 0.25964 0.0
C554 C 0.5793 0.14063 0.29173 0.0
H555 H 0.44924 0.1608 0.17494 0.0
H556 H 0.48204 0.16148 0.2827 0.0
S557 S 0.70733 0.10675 0.22714 0.0
N558 N 0.64632 0.11607 0.16904 0.0
N559 N 0.68249 0.11689 0.28573 0.0
C560 C 0.62183 0.12861 0.25942 0.0
C561 C 0.60195 0.12816 0.19595 0.0
C562 C 0.59326 0.1532 0.75734 0.0
C563 C 0.54055 0.14127 0.79217 0.0
C564 C 0.60853 0.15258 0.69467 0.0
C565 C 0.57226 0.13997 0.66418 0.0
H566 H 0.62243 0.1632 0.77848 0.0
H567 H 0.64856 0.16215 0.67002 0.0
S568 S 0.43432 0.10533 0.73513 0.0
N569 N 0.4552 0.11622 0.79173 0.0
N570 N 0.48402 0.11499 0.67448 0.0
C571 C 0.52064 0.12785 0.6987 0.0
C572 C 0.50473 0.12851 0.76245 0.0
C573 C 0.56144 0.87684 0.73426 0.0
C574 C 0.54894 0.89016 0.69783 0.0
C575 C 0.57846 0.87715 0.79665 0.0
C576 C 0.5816 0.89077 0.82546 0.0
H577 H 0.55925 0.86605 0.71441 0.0
H578 H 0.58715 0.86655 0.82262 0.0
S579 S 0.55255 0.92883 0.75064 0.0
N580 N 0.54142 0.91741 0.69499 0.0
N581 N 0.57123 0.91797 0.81269 0.0
C582 C 0.56879 0.9042 0.78968 0.0
C583 C 0.55327 0.9039 0.72579 0.0
loop_
_geom_bond_atom_site_label_1
_geom_bond_atom_site_label_2
_geom_bond_distance
_geom_bond_site_symmetry_2
_ccdc_geom_bond_type
Tb0 C10 2.825 1_454 S
Tb0 O11 2.347 1_554 S
Tb0 O14 2.366 1_455 S
Tb0 O19 2.418 . S
Tb0 O20 2.384 . S
Tb0 O23 2.479 . S
Tb0 O24 2.471 1_554 S
Eu1 O12 2.418 . S
Eu1 O13 2.384 1_455 S
Eu1 O16 2.479 . S
Eu1 O17 2.471 1_556 S
Eu1 O18 2.347 1_556 S
Eu1 O21 2.366 . S
Eu1 C31 2.825 1_556 S
C2 O18 1.259 . S
C2 O19 1.265 . S
C3 O20 1.255 . S
C3 O21 1.265 1_554 S
C4 C6 1.380 1_556 S
C4 C7 1.374 . S
C4 C10 1.507 . S
C5 C6 1.384 . S
C5 C9 1.387 1_554 S
C5 H32 0.930 . S
C6 C4 1.380 1_554 S
C6 C5 1.384 . S
C6 H33 0.931 . S
C7 C4 1.374 . S
C7 C8 1.390 . S
C7 H34 0.930 . S
C8 C7 1.390 . S
C8 C9 1.391 . S
C8 H35 0.930 . S
C9 C5 1.387 1_556 S
C9 C8 1.391 . S
C10 Tb0 2.825 1_656 S
C10 C4 1.507 . S
C10 O23 1.238 1_656 S
C10 O24 1.247 1_655 S
O11 Tb0 2.347 1_556 S
O11 C15 1.259 . S
O12 Eu1 2.418 . S
O12 C15 1.265 . S
O13 Eu1 2.384 1_655 S
O13 C22 1.255 1_556 S
O14 Tb0 2.366 1_655 S
O14 C22 1.265 . S
C15 O11 1.259 . S
C15 O12 1.265 . S
O16 Eu1 2.479 . S
O16 C31 1.238 1_556 S
O17 Eu1 2.471 1_554 S
O17 C31 1.247 . S
O18 Eu1 2.347 1_554 S
O18 C2 1.259 . S
O19 Tb0 2.418 . S
O19 C2 1.265 . S
O20 Tb0 2.384 . S
O20 C3 1.255 . S
O21 Eu1 2.366 . S
O21 C3 1.265 1_556 S
C22 O13 1.255 1_554 S
C22 O14 1.265 . S
O23 Tb0 2.479 . S
O23 C10 1.238 1_454 S
O24 Tb0 2.471 1_556 S
O24 C10 1.247 1_455 S
C25 C28 1.380 1_554 S
C25 C29 1.374 . S
C25 C31 1.507 . S
C26 C27 1.387 1_554 S
C26 C30 1.391 . S
C27 C26 1.387 1_556 S
C27 C28 1.384 . S
C27 H36 0.930 . S
C28 C25 1.380 1_556 S
C28 C27 1.384 . S
C28 H37 0.931 . S
C29 C25 1.374 . S
C29 C30 1.390 . S
C29 H38 0.930 . S
C30 C26 1.391 . S
C30 C29 1.390 . S
C30 H39 0.930 . S
C31 Eu1 2.825 1_554 S
C31 O16 1.238 1_554 S
C31 O17 1.247 . S
C31 C25 1.507 . S
H32 C5 0.930 . S
H33 C6 0.931 . S
H34 C7 0.930 . S
H35 C8 0.930 . S
H36 C27 0.930 . S
H37 C28 0.931 . S
H38 C29 0.930 . S
H39 C30 0.930 . S
Tb40 C50 2.825 1_655 S
Tb40 O51 2.347 1_554 S
Tb40 O54 2.366 1_655 S
Tb40 O59 2.418 . S
Tb40 O60 2.384 . S
Tb40 O63 2.479 . S
Tb40 O64 2.471 1_554 S
Eu41 O52 2.418 . S
Eu41 O53 2.384 1_655 S
Eu41 O56 2.479 . S
Eu41 O57 2.471 1_556 S
Eu41 O58 2.347 1_556 S
Eu41 O61 2.366 . S
Eu41 C71 2.826 1_556 S
C42 O58 1.259 . S
C42 O59 1.265 . S
C43 O60 1.255 . S
C43 O61 1.265 1_554 S
C44 C46 1.380 . S
C44 C47 1.374 1_554 S
C44 C50 1.507 . S
C45 C46 1.384 . S
C45 C49 1.387 1_554 S
C45 H72 0.930 . S
C46 C44 1.380 . S
C46 C45 1.384 . S
C46 H73 0.931 . S
C47 C44 1.374 1_556 S
C47 C48 1.390 . S
C47 H74 0.930 . S
C48 C47 1.390 . S
C48 C49 1.391 . S
C48 H75 0.930 . S
C49 C45 1.387 1_556 S
C49 C48 1.391 . S
C50 Tb40 2.825 1_455 S
C50 C44 1.507 . S
C50 O63 1.238 1_455 S
C50 O64 1.247 1_454 S
O51 Tb40 2.347 1_556 S
O51 C55 1.259 . S
O52 Eu41 2.418 . S
O52 C55 1.265 . S
O53 Eu41 2.384 1_455 S
O53 C62 1.255 1_556 S
O54 Tb40 2.366 1_455 S
O54 C62 1.265 . S
C55 O51 1.259 . S
C55 O52 1.265 . S
O56 Eu41 2.479 . S
O56 C71 1.239 1_556 S
O57 Eu41 2.471 1_554 S
O57 C71 1.246 . S
O58 Eu41 2.347 1_554 S
O58 C42 1.259 . S
O59 Tb40 2.418 . S
O59 C42 1.265 . S
O60 Tb40 2.384 . S
O60 C43 1.255 . S
O61 Eu41 2.366 . S
O61 C43 1.265 1_556 S
C62 O53 1.255 1_554 S
C62 O54 1.265 . S
O63 Tb40 2.479 . S
O63 C50 1.238 1_655 S
O64 Tb40 2.471 1_556 S
O64 C50 1.247 1_656 S
C65 C68 1.380 1_554 S
C65 C69 1.374 . S
C65 C71 1.506 . S
C66 C67 1.387 1_554 S
C66 C70 1.391 . S
C67 C66 1.387 1_556 S
C67 C68 1.384 . S
C67 H76 0.930 . S
C68 C65 1.380 1_556 S
C68 C67 1.384 . S
C68 H77 0.931 . S
C69 C65 1.374 . S
C69 C70 1.390 . S
C69 H78 0.930 . S
C70 C66 1.391 . S
C70 C69 1.390 . S
C70 H79 0.930 . S
C71 Eu41 2.826 1_554 S
C71 O56 1.239 1_554 S
C71 O57 1.246 . S
C71 C65 1.506 . S
H72 C45 0.930 . S
H73 C46 0.931 . S
H74 C47 0.930 . S
H75 C48 0.930 . S
H76 C67 0.930 . S
H77 C68 0.931 . S
H78 C69 0.930 . S
H79 C70 0.930 . S
Tb80 C90 2.825 . S
Tb80 O91 2.347 . S
Tb80 O94 2.366 . S
Tb80 O99 2.418 . S
Tb80 O100 2.384 1_455 S
Tb80 O103 2.479 . S
Tb80 O104 2.471 . S
Eu81 O92 2.418 . S
Eu81 O93 2.384 . S
Eu81 O96 2.479 . S
Eu81 O97 2.471 . S
Eu81 O98 2.347 . S
Eu81 O101 2.366 1_455 S
Eu81 C111 2.825 1_455 S
C82 O98 1.259 . S
C82 O99 1.265 . S
C83 O100 1.255 . S
C83 O101 1.265 . S
C84 C86 1.380 . S
C84 C87 1.374 . S
C84 C90 1.507 . S
C85 C86 1.384 . S
C85 C89 1.387 . S
C85 H112 0.930 . S
C86 C84 1.380 . S
C86 C85 1.384 . S
C86 H113 0.931 . S
C87 C84 1.374 . S
C87 C88 1.390 . S
C87 H114 0.930 . S
C88 C87 1.390 . S
C88 C89 1.391 . S
C88 H115 0.930 . S
C89 C85 1.387 . S
C89 C88 1.391 . S
C90 Tb80 2.825 . S
C90 C84 1.507 . S
C90 O103 1.238 . S
C90 O104 1.247 . S
O91 Tb80 2.347 . S
O91 C95 1.259 . S
O92 Eu81 2.418 . S
O92 C95 1.265 . S
O93 Eu81 2.384 . S
O93 C102 1.255 . S
O94 Tb80 2.366 . S
O94 C102 1.265 . S
C95 O91 1.259 . S
C95 O92 1.265 . S
O96 Eu81 2.479 . S
O96 C111 1.238 1_455 S
O97 Eu81 2.471 . S
O97 C111 1.247 1_455 S
O98 Eu81 2.347 . S
O98 C82 1.259 . S
O99 Tb80 2.418 . S
O99 C82 1.265 . S
O100 Tb80 2.384 1_655 S
O100 C83 1.255 . S
O101 Eu81 2.366 1_655 S
O101 C83 1.265 . S
C102 O93 1.255 . S
C102 O94 1.265 . S
O103 Tb80 2.479 . S
O103 C90 1.238 . S
O104 Tb80 2.471 . S
O104 C90 1.247 . S
C105 C108 1.380 . S
C105 C109 1.374 . S
C105 C111 1.507 . S
C106 C107 1.387 . S
C106 C110 1.391 . S
C107 C106 1.387 . S
C107 C108 1.384 . S
C107 H116 0.930 . S
C108 C105 1.380 . S
C108 C107 1.384 . S
C108 H117 0.931 . S
C109 C105 1.374 . S
C109 C110 1.390 . S
C109 H118 0.930 . S
C110 C106 1.391 . S
C110 C109 1.390 . S
C110 H119 0.930 . S
C111 Eu81 2.825 1_655 S
C111 O96 1.238 1_655 S
C111 O97 1.247 1_655 S
C111 C105 1.507 . S
H112 C85 0.930 . S
H113 C86 0.931 . S
H114 C87 0.930 . S
H115 C88 0.930 . S
H116 C107 0.930 . S
H117 C108 0.931 . S
H118 C109 0.930 . S
H119 C110 0.930 . S
Tb120 C130 2.825 1_655 S
Tb120 O131 2.347 . S
Tb120 O134 2.366 1_655 S
Tb120 O139 2.418 . S
Tb120 O140 2.384 . S
Tb120 O143 2.479 . S
Tb120 O144 2.471 . S
Eu121 O132 2.418 . S
Eu121 O133 2.384 1_655 S
Eu121 O136 2.479 . S
Eu121 O137 2.471 . S
Eu121 O138 2.347 . S
Eu121 O141 2.366 . S
Eu121 C151 2.825 . S
C122 O138 1.259 . S
C122 O139 1.265 . S
C123 O140 1.255 . S
C123 O141 1.265 . S
C124 C126 1.380 . S
C124 C127 1.374 . S
C124 C130 1.507 . S
C125 C126 1.384 . S
C125 C129 1.387 . S
C125 H152 0.930 . S
C126 C124 1.380 . S
C126 C125 1.384 . S
C126 H153 0.931 . S
C127 C124 1.374 . S
C127 C128 1.390 . S
C127 H154 0.930 . S
C128 C127 1.390 . S
C128 C129 1.391 . S
C128 H155 0.930 . S
C129 C125 1.387 . S
C129 C128 1.391 . S
C130 Tb120 2.825 1_455 S
C130 C124 1.507 . S
C130 O143 1.238 1_455 S
C130 O144 1.247 1_455 S
O131 Tb120 2.347 . S
O131 C135 1.259 . S
O132 Eu121 2.418 . S
O132 C135 1.265 . S
O133 Eu121 2.384 1_455 S
O133 C142 1.255 . S
O134 Tb120 2.366 1_455 S
O134 C142 1.265 . S
C135 O131 1.259 . S
C135 O132 1.265 . S
O136 Eu121 2.479 . S
O136 C151 1.238 . S
O137 Eu121 2.471 . S
O137 C151 1.247 . S
O138 Eu121 2.347 . S
O138 C122 1.259 . S
O139 Tb120 2.418 . S
O139 C122 1.265 . S
O140 Tb120 2.384 . S
O140 C123 1.255 . S
O141 Eu121 2.366 . S
O141 C123 1.265 . S
C142 O133 1.255 . S
C142 O134 1.265 . S
O143 Tb120 2.479 . S
O143 C130 1.238 1_655 S
O144 Tb120 2.471 . S
O144 C130 1.247 1_655 S
C145 C148 1.380 . S
C145 C149 1.374 . S
C145 C151 1.507 . S
C146 C147 1.387 . S
C146 C150 1.391 . S
C147 C146 1.387 . S
C147 C148 1.384 . S
C147 H156 0.930 . S
C148 C145 1.380 . S
C148 C147 1.384 . S
C148 H157 0.931 . S
C149 C145 1.374 . S
C149 C150 1.390 . S
C149 H158 0.930 . S
C150 C146 1.391 . S
C150 C149 1.390 . S
C150 H159 0.930 . S
C151 Eu121 2.825 . S
C151 O136 1.238 . S
C151 O137 1.247 . S
C151 C145 1.507 . S
H152 C125 0.930 . S
H153 C126 0.931 . S
H154 C127 0.930 . S
H155 C128 0.930 . S
H156 C147 0.930 . S
H157 C148 0.931 . S
H158 C149 0.930 . S
H159 C150 0.930 . S
Tb160 C170 2.825 1_554 S
Tb160 O171 2.347 1_554 S
Tb160 O174 2.366 . S
Tb160 O179 2.418 . S
Tb160 O180 2.384 . S
Tb160 O183 2.479 . S
Tb160 O184 2.471 1_554 S
Eu161 O172 2.418 . S
Eu161 O173 2.384 . S
Eu161 O176 2.479 . S
Eu161 O177 2.471 1_556 S
Eu161 O178 2.347 1_556 S
Eu161 O181 2.366 . S
Eu161 C191 2.825 1_556 S
C162 O178 1.259 . S
C162 O179 1.265 . S
C163 O180 1.255 . S
C163 O181 1.265 1_554 S
C164 C166 1.380 1_556 S
C164 C167 1.374 . S
C164 C170 1.507 . S
C165 C166 1.384 . S
C165 C169 1.387 1_554 S
C165 H192 0.930 . S
C166 C164 1.380 1_554 S
C166 C165 1.384 . S
C166 H193 0.931 . S
C167 C164 1.374 . S
C167 C168 1.390 . S
C167 H194 0.930 . S
C168 C167 1.390 . S
C168 C169 1.391 . S
C168 H195 0.930 . S
C169 C165 1.387 1_556 S
C169 C168 1.391 . S
C170 Tb160 2.825 1_556 S
C170 C164 1.507 . S
C170 O183 1.238 1_556 S
C170 O184 1.247 . S
O171 Tb160 2.347 1_556 S
O171 C175 1.259 . S
O172 Eu161 2.418 . S
O172 C175 1.265 . S
O173 Eu161 2.384 . S
O173 C182 1.255 1_556 S
O174 Tb160 2.366 . S
O174 C182 1.265 . S
C175 O171 1.259 . S
C175 O172 1.265 . S
O176 Eu161 2.479 . S
O176 C191 1.238 1_556 S
O177 Eu161 2.471 1_554 S
O177 C191 1.247 . S
O178 Eu161 2.347 1_554 S
O178 C162 1.259 . S
O179 Tb160 2.418 . S
O179 C162 1.265 . S
O180 Tb160 2.384 . S
O180 C163 1.255 . S
O181 Eu161 2.366 . S
O181 C163 1.265 1_556 S
C182 O173 1.255 1_554 S
C182 O174 1.265 . S
O183 Tb160 2.479 . S
O183 C170 1.238 1_554 S
O184 Tb160 2.471 1_556 S
O184 C170 1.247 . S
C185 C188 1.380 1_554 S
C185 C189 1.374 . S
C185 C191 1.507 . S
C186 C187 1.387 1_554 S
C186 C190 1.391 . S
C187 C186 1.387 1_556 S
C187 C188 1.384 . S
C187 H196 0.930 . S
C188 C185 1.380 1_556 S
C188 C187 1.384 . S
C188 H197 0.931 . S
C189 C185 1.374 . S
C189 C190 1.390 . S
C189 H198 0.930 . S
C190 C186 1.391 . S
C190 C189 1.390 . S
C190 H199 0.930 . S
C191 Eu161 2.825 1_554 S
C191 O176 1.238 1_554 S
C191 O177 1.247 . S
C191 C185 1.507 . S
H192 C165 0.930 . S
H193 C166 0.931 . S
H194 C167 0.930 . S
H195 C168 0.930 . S
H196 C187 0.930 . S
H197 C188 0.931 . S
H198 C189 0.930 . S
H199 C190 0.930 . S
Tb200 C210 2.825 . S
Tb200 O211 2.347 1_554 S
Tb200 O214 2.366 . S
Tb200 O219 2.418 . S
Tb200 O220 2.384 . S
Tb200 O223 2.479 . S
Tb200 O224 2.471 1_554 S
Eu201 O212 2.418 . S
Eu201 O213 2.384 . S
Eu201 O216 2.479 . S
Eu201 O217 2.471 1_556 S
Eu201 O218 2.347 1_556 S
Eu201 O221 2.366 . S
Eu201 C231 2.825 . S
C202 O218 1.259 . S
C202 O219 1.265 . S
C203 O220 1.255 . S
C203 O221 1.265 1_554 S
C204 C206 1.380 . S
C204 C207 1.374 1_554 S
C204 C210 1.507 . S
C205 C206 1.384 . S
C205 C209 1.387 1_554 S
C205 H232 0.930 . S
C206 C204 1.380 . S
C206 C205 1.384 . S
C206 H233 0.931 . S
C207 C204 1.374 1_556 S
C207 C208 1.390 . S
C207 H234 0.930 . S
C208 C207 1.390 . S
C208 C209 1.391 . S
C208 H235 0.930 . S
C209 C205 1.387 1_556 S
C209 C208 1.391 . S
C210 Tb200 2.825 . S
C210 C204 1.507 . S
C210 O223 1.238 . S
C210 O224 1.247 1_554 S
O211 Tb200 2.347 1_556 S
O211 C215 1.259 . S
O212 Eu201 2.418 . S
O212 C215 1.265 . S
O213 Eu201 2.384 . S
O213 C222 1.255 1_556 S
O214 Tb200 2.366 . S
O214 C222 1.265 . S
C215 O211 1.259 . S
C215 O212 1.265 . S
O216 Eu201 2.479 . S
O216 C231 1.237 . S
O217 Eu201 2.471 1_554 S
O217 C231 1.248 1_554 S
O218 Eu201 2.347 1_554 S
O218 C202 1.259 . S
O219 Tb200 2.418 . S
O219 C202 1.265 . S
O220 Tb200 2.384 . S
O220 C203 1.255 . S
O221 Eu201 2.366 . S
O221 C203 1.265 1_556 S
C222 O213 1.255 1_554 S
C222 O214 1.265 . S
O223 Tb200 2.479 . S
O223 C210 1.238 . S
O224 Tb200 2.471 1_556 S
O224 C210 1.247 1_556 S
C225 C228 1.380 1_554 S
C225 C229 1.374 . S
C225 C231 1.507 1_554 S
C226 C227 1.387 1_554 S
C226 C230 1.391 . S
C227 C226 1.387 1_556 S
C227 C228 1.384 . S
C227 H236 0.930 . S
C228 C225 1.380 1_556 S
C228 C227 1.384 . S
C228 H237 0.931 . S
C229 C225 1.374 . S
C229 C230 1.390 . S
C229 H238 0.930 . S
C230 C226 1.391 . S
C230 C229 1.390 . S
C230 H239 0.930 . S
C231 Eu201 2.825 . S
C231 O216 1.237 . S
C231 O217 1.248 1_556 S
C231 C225 1.507 1_556 S
H232 C205 0.930 . S
H233 C206 0.931 . S
H234 C207 0.930 . S
H235 C208 0.930 . S
H236 C227 0.930 . S
H237 C228 0.931 . S
H238 C229 0.930 . S
H239 C230 0.930 . S
Tb240 C250 2.825 . S
Tb240 O251 2.347 . S
Tb240 O254 2.366 . S
Tb240 O259 2.418 . S
Tb240 O260 2.384 . S
Tb240 O263 2.479 . S
Tb240 O264 2.471 . S
Eu241 O252 2.418 . S
Eu241 O253 2.384 . S
Eu241 O256 2.479 . S
Eu241 O257 2.471 . S
Eu241 O258 2.347 . S
Eu241 O261 2.366 . S
Eu241 C271 2.825 . S
C242 O258 1.259 . S
C242 O259 1.265 . S
C243 O260 1.255 . S
C243 O261 1.265 . S
C244 C246 1.380 . S
C244 C247 1.374 . S
C244 C250 1.507 . S
C245 C246 1.384 . S
C245 C249 1.387 . S
C245 H272 0.930 . S
C246 C244 1.380 . S
C246 C245 1.384 . S
C246 H273 0.931 . S
C247 C244 1.374 . S
C247 C248 1.390 . S
C247 H274 0.930 . S
C248 C247 1.390 . S
C248 C249 1.391 . S
C248 H275 0.930 . S
C249 C245 1.387 . S
C249 C248 1.391 . S
C250 Tb240 2.825 . S
C250 C244 1.507 . S
C250 O263 1.238 . S
C250 O264 1.247 . S
O251 Tb240 2.347 . S
O251 C255 1.259 . S
O252 Eu241 2.418 . S
O252 C255 1.265 . S
O253 Eu241 2.384 . S
O253 C262 1.255 . S
O254 Tb240 2.366 . S
O254 C262 1.265 . S
C255 O251 1.259 . S
C255 O252 1.265 . S
O256 Eu241 2.479 . S
O256 C271 1.238 . S
O257 Eu241 2.471 . S
O257 C271 1.247 . S
O258 Eu241 2.347 . S
O258 C242 1.259 . S
O259 Tb240 2.418 . S
O259 C242 1.265 . S
O260 Tb240 2.384 . S
O260 C243 1.255 . S
O261 Eu241 2.366 . S
O261 C243 1.265 . S
C262 O253 1.255 . S
C262 O254 1.265 . S
O263 Tb240 2.479 . S
O263 C250 1.238 . S
O264 Tb240 2.471 . S
O264 C250 1.247 . S
C265 C268 1.380 . S
C265 C269 1.374 . S
C265 C271 1.507 . S
C266 C267 1.387 . S
C266 C270 1.391 . S
C267 C266 1.387 . S
C267 C268 1.384 . S
C267 H276 0.930 . S
C268 C265 1.380 . S
C268 C267 1.384 . S
C268 H277 0.931 . S
C269 C265 1.374 . S
C269 C270 1.390 . S
C269 H278 0.930 . S
C270 C266 1.391 . S
C270 C269 1.390 . S
C270 H279 0.930 . S
C271 Eu241 2.825 . S
C271 O256 1.238 . S
C271 O257 1.247 . S
C271 C265 1.507 . S
H272 C245 0.930 . S
H273 C246 0.931 . S
H274 C247 0.930 . S
H275 C248 0.930 . S
H276 C267 0.930 . S
H277 C268 0.931 . S
H278 C269 0.930 . S
H279 C270 0.930 . S
Tb280 C290 2.825 . S
Tb280 O291 2.347 . S
Tb280 O294 2.366 . S
Tb280 O299 2.418 . S
Tb280 O300 2.384 . S
Tb280 O303 2.479 . S
Tb280 O304 2.471 . S
Eu281 O292 2.418 . S
Eu281 O293 2.384 . S
Eu281 O296 2.479 . S
Eu281 O297 2.471 . S
Eu281 O298 2.347 . S
Eu281 O301 2.366 . S
Eu281 C311 2.825 . S
C282 O298 1.259 . S
C282 O299 1.265 . S
C283 O300 1.255 . S
C283 O301 1.265 . S
C284 C286 1.380 . S
C284 C287 1.374 . S
C284 C290 1.507 . S
C285 C286 1.384 . S
C285 C289 1.387 . S
C285 H312 0.930 . S
C286 C284 1.380 . S
C286 C285 1.384 . S
C286 H313 0.931 . S
C287 C284 1.374 . S
C287 C288 1.390 . S
C287 H314 0.930 . S
C288 C287 1.390 . S
C288 C289 1.391 . S
C288 H315 0.930 . S
C289 C285 1.387 . S
C289 C288 1.391 . S
C290 Tb280 2.825 . S
C290 C284 1.507 . S
C290 O303 1.238 . S
C290 O304 1.247 . S
O291 Tb280 2.347 . S
O291 C295 1.259 . S
O292 Eu281 2.418 . S
O292 C295 1.265 . S
O293 Eu281 2.384 . S
O293 C302 1.255 . S
O294 Tb280 2.366 . S
O294 C302 1.265 . S
C295 O291 1.259 . S
C295 O292 1.265 . S
O296 Eu281 2.479 . S
O296 C311 1.238 . S
O297 Eu281 2.471 . S
O297 C311 1.247 . S
O298 Eu281 2.347 . S
O298 C282 1.259 . S
O299 Tb280 2.418 . S
O299 C282 1.265 . S
O300 Tb280 2.384 . S
O300 C283 1.255 . S
O301 Eu281 2.366 . S
O301 C283 1.265 . S
C302 O293 1.255 . S
C302 O294 1.265 . S
O303 Tb280 2.479 . S
O303 C290 1.238 . S
O304 Tb280 2.471 . S
O304 C290 1.247 . S
C305 C308 1.380 . S
C305 C309 1.374 . S
C305 C311 1.507 . S
C306 C307 1.387 . S
C306 C310 1.391 . S
C307 C306 1.387 . S
C307 C308 1.384 . S
C307 H316 0.930 . S
C308 C305 1.380 . S
C308 C307 1.384 . S
C308 H317 0.931 . S
C309 C305 1.374 . S
C309 C310 1.390 . S
C309 H318 0.930 . S
C310 C306 1.391 . S
C310 C309 1.390 . S
C310 H319 0.930 . S
C311 Eu281 2.825 . S
C311 O296 1.238 . S
C311 O297 1.247 . S
C311 C305 1.507 . S
H312 C285 0.930 . S
H313 C286 0.931 . S
H314 C287 0.930 . S
H315 C288 0.930 . S
H316 C307 0.930 . S
H317 C308 0.931 . S
H318 C309 0.930 . S
H319 C310 0.930 . S
C320 C321 1.369 1_556 S
C320 C322 1.419 . S
C320 H324 0.930 . S
C321 C320 1.369 1_554 S
C321 C330 1.429 . S
C322 C320 1.419 . S
C322 C323 1.363 1_556 S
C322 H325 0.929 . S
C323 C322 1.363 1_554 S
C323 C329 1.428 . S
H324 C320 0.930 . S
H325 C322 0.929 . S
S326 N327 1.613 . S
S326 N328 1.610 . S
N327 S326 1.613 . S
N327 C330 1.350 . S
N328 S326 1.610 . S
N328 C329 1.351 . S
C329 C323 1.428 . S
C329 N328 1.351 . S
C329 C330 1.434 . S
C330 C321 1.429 . S
C330 N327 1.350 . S
C330 C329 1.434 . S
C331 C332 1.369 1_556 S
C331 C333 1.419 . S
C331 H335 0.930 . S
C332 C331 1.369 1_554 S
C332 C341 1.429 . S
C333 C331 1.419 . S
C333 C334 1.363 1_556 S
C333 H336 0.929 . S
C334 C333 1.363 1_554 S
C334 C340 1.428 . S
H335 C331 0.930 . S
H336 C333 0.929 . S
S337 N338 1.613 . S
S337 N339 1.610 . S
N338 S337 1.613 . S
N338 C341 1.350 . S
N339 S337 1.610 . S
N339 C340 1.351 . S
C340 C334 1.428 . S
C340 N339 1.351 . S
C340 C341 1.434 . S
C341 C332 1.429 . S
C341 N338 1.350 . S
C341 C340 1.434 . S
C342 C343 1.369 . S
C342 C344 1.419 . S
C342 H346 0.930 . S
C343 C342 1.369 . S
C343 C352 1.429 . S
C344 C342 1.419 . S
C344 C345 1.363 . S
C344 H347 0.929 . S
C345 C344 1.363 . S
C345 C351 1.428 . S
H346 C342 0.930 . S
H347 C344 0.929 . S
S348 N349 1.613 . S
S348 N350 1.610 . S
N349 S348 1.613 . S
N349 C352 1.350 . S
N350 S348 1.610 . S
N350 C351 1.351 . S
C351 C345 1.428 . S
C351 N350 1.351 . S
C351 C352 1.434 . S
C352 C343 1.429 . S
C352 N349 1.350 . S
C352 C351 1.434 . S
C353 C354 1.369 . S
C353 C355 1.419 . S
C353 H357 0.930 . S
C354 C353 1.369 . S
C354 C363 1.429 . S
C355 C353 1.419 . S
C355 C356 1.363 . S
C355 H358 0.929 . S
C356 C355 1.363 . S
C356 C362 1.428 . S
H357 C353 0.930 . S
H358 C355 0.929 . S
S359 N360 1.613 . S
S359 N361 1.610 . S
N360 S359 1.613 . S
N360 C363 1.350 . S
N361 S359 1.610 . S
N361 C362 1.351 . S
C362 C356 1.428 . S
C362 N361 1.351 . S
C362 C363 1.434 . S
C363 C354 1.429 . S
C363 N360 1.350 . S
C363 C362 1.434 . S
C364 C365 1.369 1_556 S
C364 C366 1.419 1_655 S
C364 H368 0.930 . S
C365 C364 1.369 1_554 S
C365 C374 1.429 1_655 S
C366 C364 1.419 1_455 S
C366 C367 1.363 1_556 S
C366 H369 0.929 . S
C367 C366 1.363 1_554 S
C367 C373 1.428 . S
H368 C364 0.930 . S
H369 C366 0.929 . S
S370 N371 1.616 . S
S370 N372 1.610 . S
N371 S370 1.616 . S
N371 C374 1.351 . S
N372 S370 1.610 . S
N372 C373 1.351 . S
C373 C367 1.428 . S
C373 N372 1.351 . S
C373 C374 1.434 . S
C374 C365 1.429 1_455 S
C374 N371 1.351 . S
C374 C373 1.434 . S
C375 C376 1.369 . S
C375 C377 1.419 1_455 S
C375 H379 0.930 . S
C376 C375 1.369 . S
C376 C385 1.429 1_454 S
C377 C375 1.419 1_655 S
C377 C378 1.363 . S
C377 H380 0.929 . S
C378 C377 1.363 . S
C378 C384 1.428 1_554 S
H379 C375 0.930 . S
H380 C377 0.929 . S
S381 N382 1.613 1_655 S
S381 N383 1.610 . S
N382 S381 1.613 1_455 S
N382 C385 1.350 1_455 S
N383 S381 1.610 . S
N383 C384 1.351 . S
C384 C378 1.428 1_556 S
C384 N383 1.351 . S
C384 C385 1.434 . S
C385 C376 1.429 1_656 S
C385 N382 1.350 1_655 S
C385 C384 1.434 . S
C386 C387 1.369 . S
C386 C388 1.419 . S
C386 H390 0.930 . S
C387 C386 1.369 . S
C387 C396 1.429 . S
C388 C386 1.419 . S
C388 C389 1.363 1_455 S
C388 H391 0.929 1_455 S
C389 C388 1.363 1_655 S
C389 C395 1.428 1_655 S
H390 C386 0.930 . S
H391 C388 0.929 1_655 S
S392 N393 1.613 . S
S392 N394 1.610 1_455 S
N393 S392 1.613 . S
N393 C396 1.350 . S
N394 S392 1.610 1_655 S
N394 C395 1.351 1_655 S
C395 C389 1.428 1_455 S
C395 N394 1.351 1_455 S
C395 C396 1.434 . S
C396 C387 1.429 . S
C396 N393 1.350 . S
C396 C395 1.434 . S
C397 C398 1.369 . S
C397 C399 1.419 . S
C397 H401 0.930 . S
C398 C397 1.369 . S
C398 C407 1.429 . S
C399 C397 1.419 . S
C399 C400 1.363 1_655 S
C399 H402 0.929 1_655 S
C400 C399 1.363 1_455 S
C400 C406 1.428 1_455 S
H401 C397 0.930 . S
H402 C399 0.929 1_455 S
S403 N404 1.613 . S
S403 N405 1.610 1_655 S
N404 S403 1.613 . S
N404 C407 1.350 . S
N405 S403 1.610 1_455 S
N405 C406 1.351 1_455 S
C406 C400 1.428 1_655 S
C406 N405 1.351 1_655 S
C406 C407 1.434 . S
C407 C398 1.429 . S
C407 N404 1.350 . S
C407 C406 1.434 . S
C408 C409 1.369 1_655 S
C408 C410 1.419 . S
C408 H412 0.932 . S
C409 C408 1.369 1_455 S
C409 C418 1.429 . S
C410 C408 1.419 . S
C410 C411 1.363 . S
C410 H413 0.929 . S
C411 C410 1.363 . S
C411 C417 1.428 1_655 S
H412 C408 0.932 . S
H413 C410 0.929 . S
S414 N415 1.613 . S
S414 N416 1.610 . S
N415 S414 1.613 . S
N415 C418 1.350 . S
N416 S414 1.610 . S
N416 C417 1.351 . S
C417 C411 1.428 1_455 S
C417 N416 1.351 . S
C417 C418 1.434 . S
C418 C409 1.429 . S
C418 N415 1.350 . S
C418 C417 1.434 . S
C419 C420 1.369 1_655 S
C419 C421 1.419 . S
C419 H423 0.930 . S
C420 C419 1.369 1_455 S
C420 C429 1.429 . S
C421 C419 1.419 . S
C421 C422 1.363 . S
C421 H424 0.929 . S
C422 C421 1.363 . S
C422 C428 1.428 1_655 S
H423 C419 0.930 . S
H424 C421 0.929 . S
S425 N426 1.613 . S
S425 N427 1.610 . S
N426 S425 1.613 . S
N426 C429 1.350 . S
N427 S425 1.610 . S
N427 C428 1.351 . S
C428 C422 1.428 1_455 S
C428 N427 1.351 . S
C428 C429 1.434 . S
C429 C420 1.429 . S
C429 N426 1.350 . S
C429 C428 1.434 . S
C430 C431 1.322 1_545 S
C430 C432 1.462 1_556 S
C430 H434 0.936 1_556 S
C431 C430 1.322 1_565 S
C431 C440 1.429 . S
C432 C430 1.462 1_554 S
C432 C433 1.363 1_554 S
C432 H435 0.929 . S
C433 C432 1.363 1_556 S
C433 C439 1.368 1_545 S
H434 C430 0.936 1_554 S
H435 C432 0.929 . S
S436 N437 1.613 . S
S436 N438 1.610 . S
N437 S436 1.613 . S
N437 C440 1.350 . S
N438 S436 1.610 . S
N438 C439 1.370 . S
C439 C433 1.368 1_565 S
C439 N438 1.370 . S
C439 C440 1.488 . S
C440 C431 1.429 . S
C440 N437 1.350 . S
C440 C439 1.488 . S
C441 C442 1.375 1_565 S
C441 C443 1.413 . S
C441 H445 0.931 . S
C442 C441 1.375 1_545 S
C442 C451 1.429 . S
C443 C441 1.413 . S
C443 C444 1.363 . S
C443 H446 0.929 . S
C444 C443 1.363 . S
C444 C450 1.413 1_565 S
H445 C441 0.931 . S
H446 C443 0.929 . S
S447 N448 1.613 . S
S447 N449 1.610 . S
N448 S447 1.613 . S
N448 C451 1.350 . S
N449 S447 1.610 . S
N449 C450 1.353 . S
C450 C444 1.413 1_545 S
C450 N449 1.353 . S
C450 C451 1.450 . S
C451 C442 1.429 . S
C451 N448 1.350 . S
C451 C450 1.450 . S
C452 C453 1.369 . S
C452 C454 1.419 . S
C452 H456 0.930 . S
C453 C452 1.369 . S
C453 C462 1.429 1_554 S
C454 C452 1.419 . S
C454 C455 1.363 . S
C454 H457 0.929 . S
C455 C454 1.363 . S
C455 C461 1.428 1_554 S
H456 C452 0.930 . S
H457 C454 0.929 . S
S458 N459 1.613 . S
S458 N460 1.610 . S
N459 S458 1.613 . S
N459 C462 1.350 . S
N460 S458 1.610 . S
N460 C461 1.351 . S
C461 C455 1.428 1_556 S
C461 N460 1.351 . S
C461 C462 1.434 . S
C462 C453 1.429 1_556 S
C462 N459 1.350 . S
C462 C461 1.434 . S
C463 C464 1.369 . S
C463 C465 1.419 . S
C463 H467 0.930 . S
C464 C463 1.369 . S
C464 C473 1.429 . S
C465 C463 1.419 . S
C465 C466 1.363 . S
C465 H468 0.929 1_554 S
C466 C465 1.363 . S
C466 C472 1.428 . S
H467 C463 0.930 . S
H468 C465 0.929 1_556 S
S469 N470 1.613 . S
S469 N471 1.610 . S
N470 S469 1.613 . S
N470 C473 1.350 . S
N471 S469 1.610 . S
N471 C472 1.351 . S
C472 C466 1.428 . S
C472 N471 1.351 . S
C472 C473 1.434 . S
C473 C464 1.429 . S
C473 N470 1.350 . S
C473 C472 1.434 . S
C474 C475 1.369 . S
C474 C476 1.419 . S
C474 H478 0.930 . S
C475 C474 1.369 . S
C475 C484 1.429 . S
C476 C474 1.419 . S
C476 C477 1.363 . S
C476 H479 0.929 . S
C477 C476 1.363 . S
C477 C483 1.428 . S
H478 C474 0.930 . S
H479 C476 0.929 . S
S480 N481 1.613 . S
S480 N482 1.610 . S
N481 S480 1.613 . S
N481 C484 1.350 . S
N482 S480 1.610 . S
N482 C483 1.351 . S
C483 C477 1.428 . S
C483 N482 1.351 . S
C483 C484 1.434 . S
C484 C475 1.429 . S
C484 N481 1.350 . S
C484 C483 1.434 . S
C485 C486 1.369 . S
C485 C487 1.419 . S
C485 H489 0.930 . S
C486 C485 1.369 . S
C486 C495 1.429 . S
C487 C485 1.419 . S
C487 C488 1.363 . S
C487 H490 0.929 . S
C488 C487 1.363 . S
C488 C494 1.428 . S
H489 C485 0.930 . S
H490 C487 0.929 . S
S491 N492 1.613 . S
S491 N493 1.610 . S
N492 S491 1.613 . S
N492 C495 1.350 . S
N493 S491 1.610 . S
N493 C494 1.351 . S
C494 C488 1.428 . S
C494 N493 1.351 . S
C494 C495 1.434 . S
C495 C486 1.429 . S
C495 N492 1.350 . S
C495 C494 1.434 . S
C496 C497 1.369 . S
C496 C498 1.419 . S
C496 H500 0.930 . S
C497 C496 1.369 . S
C497 C506 1.429 1_455 S
C498 C496 1.419 . S
C498 C499 1.363 1_455 S
C498 H501 0.929 . S
C499 C498 1.363 1_655 S
C499 C505 1.428 . S
H500 C496 0.930 . S
H501 C498 0.929 . S
S502 N503 1.613 . S
S502 N504 1.610 . S
N503 S502 1.613 . S
N503 C506 1.350 . S
N504 S502 1.610 . S
N504 C505 1.351 . S
C505 C499 1.428 . S
C505 N504 1.351 . S
C505 C506 1.434 . S
C506 C497 1.429 1_655 S
C506 N503 1.350 . S
C506 C505 1.434 . S
C507 C508 1.369 . S
C507 C509 1.419 . S
C507 H511 0.930 . S
C508 C507 1.369 . S
C508 C517 1.429 1_655 S
C509 C507 1.419 . S
C509 C510 1.363 1_655 S
C509 H512 0.929 . S
C510 C509 1.363 1_455 S
C510 C516 1.428 . S
H511 C507 0.930 . S
H512 C509 0.929 . S
S513 N514 1.613 . S
S513 N515 1.610 . S
N514 S513 1.613 . S
N514 C517 1.350 . S
N515 S513 1.610 . S
N515 C516 1.351 . S
C516 C510 1.428 . S
C516 N515 1.351 . S
C516 C517 1.434 . S
C517 C508 1.429 1_455 S
C517 N514 1.350 . S
C517 C516 1.434 . S
C518 C519 1.369 1_455 S
C518 C520 1.419 . S
C518 H522 0.930 . S
C519 C518 1.369 1_655 S
C519 C528 1.429 . S
C520 C518 1.419 . S
C520 C521 1.363 . S
C520 H523 0.929 . S
C521 C520 1.363 . S
C521 C527 1.428 1_455 S
H522 C518 0.930 . S
H523 C520 0.929 . S
S524 N525 1.613 . S
S524 N526 1.610 . S
N525 S524 1.613 . S
N525 C528 1.350 . S
N526 S524 1.610 . S
N526 C527 1.351 . S
C527 C521 1.428 1_655 S
C527 N526 1.351 . S
C527 C528 1.434 . S
C528 C519 1.429 . S
C528 N525 1.350 . S
C528 C527 1.434 . S
C529 C530 1.369 . S
C529 C531 1.419 . S
C529 H533 0.930 . S
C530 C529 1.369 . S
C530 C539 1.429 1_655 S
C531 C529 1.419 . S
C531 C532 1.363 1_655 S
C531 H534 0.929 . S
C532 C531 1.363 1_455 S
C532 C538 1.428 . S
H533 C529 0.930 . S
H534 C531 0.929 . S
S535 N536 1.613 . S
S535 N537 1.610 . S
N536 S535 1.613 . S
N536 C539 1.350 . S
N537 S535 1.610 . S
N537 C538 1.351 . S
C538 C532 1.428 . S
C538 N537 1.351 . S
C538 C539 1.434 . S
C539 C530 1.429 1_455 S
C539 N536 1.350 . S
C539 C538 1.434 . S
C540 C541 1.369 . S
C540 C542 1.419 . S
C540 H544 0.930 . S
C541 C540 1.369 . S
C541 C550 1.429 . S
C542 C540 1.419 . S
C542 C543 1.363 . S
C542 H545 0.929 . S
C543 C542 1.363 . S
C543 C549 1.428 . S
H544 C540 0.930 . S
H545 C542 0.929 . S
S546 N547 1.613 . S
S546 N548 1.610 . S
N547 S546 1.613 . S
N547 C550 1.350 . S
N548 S546 1.610 . S
N548 C549 1.351 . S
C549 C543 1.428 . S
C549 N548 1.351 . S
C549 C550 1.434 . S
C550 C541 1.429 . S
C550 N547 1.350 . S
C550 C549 1.434 . S
C551 C552 1.369 . S
C551 C553 1.419 . S
C551 H555 0.930 . S
C552 C551 1.369 . S
C552 C561 1.429 . S
C553 C551 1.419 . S
C553 C554 1.363 . S
C553 H556 0.929 . S
C554 C553 1.363 . S
C554 C560 1.428 . S
H555 C551 0.930 . S
H556 C553 0.929 . S
S557 N558 1.613 . S
S557 N559 1.610 . S
N558 S557 1.613 . S
N558 C561 1.350 . S
N559 S557 1.610 . S
N559 C560 1.351 . S
C560 C554 1.428 . S
C560 N559 1.351 . S
C560 C561 1.434 . S
C561 C552 1.429 . S
C561 N558 1.350 . S
C561 C560 1.434 . S
C562 C563 1.369 . S
C562 C564 1.419 . S
C562 H566 0.930 . S
C563 C562 1.369 . S
C563 C572 1.429 . S
C564 C562 1.419 . S
C564 C565 1.363 . S
C564 H567 0.929 . S
C565 C564 1.363 . S
C565 C571 1.428 . S
H566 C562 0.930 . S
H567 C564 0.929 . S
S568 N569 1.613 . S
S568 N570 1.610 . S
N569 S568 1.613 . S
N569 C572 1.350 . S
N570 S568 1.610 . S
N570 C571 1.351 . S
C571 C565 1.428 . S
C571 N570 1.351 . S
C571 C572 1.434 . S
C572 C563 1.429 . S
C572 N569 1.350 . S
C572 C571 1.434 . S
C573 C574 1.369 . S
C573 C575 1.419 . S
C573 H577 0.930 . S
C574 C573 1.369 . S
C574 C583 1.429 . S
C575 C573 1.419 . S
C575 C576 1.363 . S
C575 H578 0.929 . S
C576 C575 1.363 . S
C576 C582 1.428 . S
H577 C573 0.930 . S
H578 C575 0.929 . S
S579 N580 1.613 . S
S579 N581 1.610 . S
N580 S579 1.613 . S
N580 C583 1.350 . S
N581 S579 1.610 . S
N581 C582 1.351 . S
C582 C576 1.428 . S
C582 N581 1.351 . S
C582 C583 1.434 . S
C583 C574 1.429 . S
C583 N580 1.350 . S
C583 C582 1.434 . S
C321 C3 2.274 . S
C323 C22 2.280 . S
C332 C62 2.274 . S
C334 C43 2.272 . S
C343 C83 2.271 . S
C345 C102 2.277 . S
C354 C123 2.277 . S
C356 C142 2.272 . S
C365 C163 2.279 . S
C367 C182 2.276 . S
C376 C203 2.275 . S
C378 C222 2.271 . S
C387 C243 2.275 . S
C389 C262 2.274 . S
C398 C302 2.276 . S
C400 C283 2.274 . S
C409 C49 2.821 . S
C411 C9 2.794 . S
C420 C129 2.801 . S
C422 C106 2.793 . S
C431 C169 2.792 . S
C433 C209 2.820 . S
C442 C266 2.797 . S
C444 C289 2.799 . S
C453 C26 1.961 . S
C455 C226 1.983 . S
C464 C186 1.968 . S
C466 C66 1.980 . S
C475 C89 1.957 . S
C477 C306 1.958 . S
C486 C146 1.959 . S
C488 C249 1.957 . S
C497 C2 1.520 . S
C499 C122 1.553 . S
C508 C42 1.574 . S
C510 C82 1.560 . S
C519 C55 1.523 . S
C521 C95 1.535 . S
C530 C135 1.588 . S
C532 C15 1.567 . S
C541 C162 1.526 . S
C543 C282 1.554 . S
C552 C202 1.575 . S
C554 C242 1.559 . S
C563 C215 1.522 . S
C565 C255 1.534 . S
C574 C295 1.596 . S
C576 C175 1.562 . S
