# Generated by pormake.
# Topology snz, (6)-cn, num edge types: 1
# Building blocks:
#     Node 0, Type 0, BuildingBlock: KUMBOL_clean_sbu_1, # of connection points: 6
#     Node 1, Type 0, BuildingBlock: KUMBOL_clean_sbu_1, # of connection points: 6
#     Node 2, Type 0, BuildingBlock: KUMBOL_clean_sbu_1, # of connection points: 6
#     Node 3, Type 0, BuildingBlock: KUMBOL_clean_sbu_1, # of connection points: 6
#     Node 4, Type 0, BuildingBlock: KUMBOL_clean_sbu_1, # of connection points: 6
#     Node 5, Type 0, BuildingBlock: KUMBOL_clean_sbu_1, # of connection points: 6
#     Node 6, Type 0, BuildingBlock: KUMBOL_clean_sbu_1, # of connection points: 6
#     Node 7, Type 0, BuildingBlock: KUMBOL_clean_sbu_1, # of connection points: 6
#     Node 8, Type 0, BuildingBlock: KUMBOL_clean_sbu_1, # of connection points: 6
#     Edge 9, Type (0, 0), BuildingBlock: EZIPEK_clean_linker_0, # of connection points: 2
#     Edge 10, Type (0, 0), BuildingBlock: EZIPEK_clean_linker_0, # of connection points: 2
#     Edge 11, Type (0, 0), BuildingBlock: EZIPEK_clean_linker_0, # of connection points: 2
#     Edge 12, Type (0, 0), BuildingBlock: EZIPEK_clean_linker_0, # of connection points: 2
#     Edge 13, Type (0, 0), BuildingBlock: EZIPEK_clean_linker_0, # of connection points: 2
#     Edge 14, Type (0, 0), BuildingBlock: EZIPEK_clean_linker_0, # of connection points: 2
#     Edge 15, Type (0, 0), BuildingBlock: EZIPEK_clean_linker_0, # of connection points: 2
#     Edge 16, Type (0, 0), BuildingBlock: EZIPEK_clean_linker_0, # of connection points: 2
#     Edge 17, Type (0, 0), BuildingBlock: EZIPEK_clean_linker_0, # of connection points: 2
#     Edge 18, Type (0, 0), BuildingBlock: EZIPEK_clean_linker_0, # of connection points: 2
#     Edge 19, Type (0, 0), BuildingBlock: EZIPEK_clean_linker_0, # of connection points: 2
#     Edge 20, Type (0, 0), BuildingBlock: EZIPEK_clean_linker_0, # of connection points: 2
#     Edge 21, Type (0, 0), BuildingBlock: EZIPEK_clean_linker_0, # of connection points: 2
#     Edge 22, Type (0, 0), BuildingBlock: EZIPEK_clean_linker_0, # of connection points: 2
#     Edge 23, Type (0, 0), BuildingBlock: EZIPEK_clean_linker_0, # of connection points: 2
#     Edge 24, Type (0, 0), BuildingBlock: EZIPEK_clean_linker_0, # of connection points: 2
#     Edge 25, Type (0, 0), BuildingBlock: EZIPEK_clean_linker_0, # of connection points: 2
#     Edge 26, Type (0, 0), BuildingBlock: EZIPEK_clean_linker_0, # of connection points: 2
#     Edge 27, Type (0, 0), BuildingBlock: EZIPEK_clean_linker_0, # of connection points: 2
#     Edge 28, Type (0, 0), BuildingBlock: EZIPEK_clean_linker_0, # of connection points: 2
#     Edge 29, Type (0, 0), BuildingBlock: EZIPEK_clean_linker_0, # of connection points: 2
#     Edge 30, Type (0, 0), BuildingBlock: EZIPEK_clean_linker_0, # of connection points: 2
#     Edge 31, Type (0, 0), BuildingBlock: EZIPEK_clean_linker_0, # of connection points: 2
#     Edge 32, Type (0, 0), BuildingBlock: EZIPEK_clean_linker_0, # of connection points: 2
#     Edge 33, Type (0, 0), BuildingBlock: EZIPEK_clean_linker_0, # of connection points: 2
#     Edge 34, Type (0, 0), BuildingBlock: EZIPEK_clean_linker_0, # of connection points: 2
#     Edge 35, Type (0, 0), BuildingBlock: EZIPEK_clean_linker_0, # of connection points: 2
# Relax obj value: 0.380
# Max RMSD: 0.186
# Mean RMSD: 0.127
data_MOF--net-snz--node1-KUMBOL_clean_sbu_1--edge1-EZIPEK_clean_linker_0
_symmetry_space_group_name_H-M    P1
_symmetry_Int_Tables_number       1
_symmetry_cell_setting            triclinic
loop_
_symmetry_equiv_pos_as_xyz
'x, y, z'
_cell_length_a     53.272488
_cell_length_b     40.319087
_cell_length_c     12.988917
_cell_angle_alpha  96.952169
_cell_angle_beta   95.989889
_cell_angle_gamma 121.97031
loop_
_atom_site_label
_atom_site_type_symbol
_atom_site_fract_x
_atom_site_fract_y
_atom_site_fract_z
_atom_type_partial_charge
C0 C 0.16418 0.54113 0.1831 0.0
C1 C 0.20008 0.59556 0.32897 0.0
C2 C 0.17022 0.56388 0.28199 0.0
C3 C 0.22316 0.60565 0.27138 0.0
C4 C 0.1876 0.54978 0.12746 0.0
C5 C 0.21684 0.58325 0.17005 0.0
N6 N 0.1364 0.50714 0.14871 0.0
C7 C 0.13143 0.47848 1.06683 0.0
C8 C 0.18152 0.52257 1.0355 0.0
C9 C 0.1535 0.48622 1.00659 0.0
Gd10 Gd 0.03305 0.50198 0.21604 0.0
Gd11 Gd 0.09955 0.49589 0.2484 0.0
N12 N 0.14776 0.55139 0.33784 0.0
C13 C 0.20624 0.61405 0.43504 0.0
C14 C 0.15442 0.56708 0.44418 0.0
C15 C 0.18336 0.59945 0.49314 0.0
H16 H 0.13716 0.55558 0.49094 0.0
H17 H 0.18813 0.61257 0.57624 0.0
H18 H 1.00694 0.45129 0.95373 0.0
H19 H 0.11022 0.44966 1.04831 0.0
H20 H 0.96023 0.39569 0.84229 0.0
H21 H 0.22887 0.63809 0.47466 0.0
H22 H 0.24628 0.62949 0.30624 0.0
H23 H 0.01149 0.51279 0.45339 0.0
H24 H 0.19889 0.52814 0.99044 0.0
H25 H 0.1491 0.46389 0.93939 0.0
H26 H 0.88965 0.34981 1.07049 0.0
H27 H 0.23513 0.59049 0.12842 0.0
H28 H 0.92174 0.41525 0.4328 0.0
H29 H 0.96857 0.47622 0.53595 0.0
N30 N 0.99235 0.46965 0.30657 0.0
C31 C 0.96589 0.43802 0.24605 0.0
C32 C 0.99259 0.48452 0.40799 0.0
C33 C 0.94125 0.43037 0.39652 0.0
C34 C 0.96765 0.46451 0.45513 0.0
C35 C 0.93974 0.41752 0.29006 0.0
H36 H 0.89238 0.36967 0.25898 0.0
N37 N 0.98934 0.44755 0.09607 0.0
C38 C 0.96423 0.4271 0.13849 0.0
C39 C 0.93539 0.38381 0.96789 0.0
C40 C 0.9366 0.39504 0.07469 0.0
C41 C 0.98778 0.43662 0.99017 0.0
C42 C 0.96102 0.40452 0.92527 0.0
O43 O 0.11005 0.5601 0.31449 0.0
O44 O 0.07513 0.56197 0.20689 0.0
O45 O 1.00278 0.5165 0.13887 0.0
O46 O 0.02787 0.54635 0.30006 0.0
O47 O 0.08681 0.4959 0.4233 0.0
O48 O 0.05021 0.50865 0.40661 0.0
O49 O 0.02198 0.43813 0.1978 0.0
O50 O 0.05952 0.44371 0.12165 0.0
O51 O 0.08235 0.44118 0.31008 0.0
O52 O 0.12848 0.47409 0.28893 0.0
O53 O 0.04967 0.50887 1.04493 0.0
O54 O 0.08812 0.49843 1.05896 0.0
C55 C 0.101 0.58179 0.27485 0.0
C56 C 0.06839 0.50273 0.47288 0.0
C57 C 0.01211 0.58051 0.20526 0.0
C58 C 0.99232 0.61388 0.11593 0.0
C59 C 0.03184 0.65013 0.27433 0.0
C60 C 0.03177 0.61607 0.28128 0.0
C61 C 0.01222 0.64897 0.19232 0.0
C62 C 0.99279 0.57973 0.12112 0.0
C63 C 1.00889 0.54327 0.22158 0.0
C64 C 0.9109 0.37456 0.11885 0.0
C65 C 0.91248 0.3857 0.22617 0.0
H66 H 0.91468 0.35875 0.91899 0.0
C67 C 0.03116 0.42119 0.13201 0.0
C68 C 0.06916 0.5041 0.99392 0.0
C69 C 0.10589 0.40421 0.28403 0.0
C70 C 0.12325 0.35872 0.30918 0.0
C71 C 0.08125 0.33904 0.16667 0.0
C72 C 0.08386 0.37533 0.19708 0.0
C73 C 0.10055 0.33075 0.22204 0.0
C74 C 0.12586 0.39585 0.33986 0.0
C75 C 0.10762 0.44248 0.3171 0.0
H76 H 0.04697 0.67723 0.33335 0.0
H77 H 0.04671 0.61751 0.34752 0.0
H78 H 0.01256 0.67553 0.18633 0.0
H79 H 0.97771 0.55257 1.06167 0.0
H80 H 0.0641 0.31711 0.09934 0.0
H81 H 0.06852 0.38077 0.15254 0.0
H82 H 0.09789 0.30229 0.19613 0.0
H83 H 0.14321 0.41794 0.4066 0.0
C84 C 0.62271 0.43832 0.18114 0.0
C85 C 0.60637 0.38513 1.02965 0.0
C86 C 0.61337 0.42362 1.0731 0.0
C87 C 0.60649 0.36053 0.09718 0.0
C88 C 0.62569 0.41502 0.24845 0.0
C89 C 0.61631 0.37553 0.20647 0.0
N90 N 0.63205 0.47684 0.21878 0.0
C91 C 0.64844 0.49517 0.32058 0.0
C92 C 0.63961 0.43274 0.35477 0.0
C93 C 0.65176 0.47331 0.39023 0.0
Gd94 Gd 0.5591 0.52115 0.07438 0.0
Gd95 Gd 0.62208 0.50989 0.0944 0.0
N96 N 0.61404 0.44843 1.00982 0.0
C97 C 0.60109 0.37335 0.9197 0.0
C98 C 0.61234 0.43865 0.90328 0.0
C99 C 0.60496 0.40068 0.85651 0.0
H100 H 0.61573 0.45952 0.85329 0.0
H101 H 0.60243 0.39262 0.77176 0.0
H102 H 0.60591 0.58114 0.31372 0.0
H103 H 0.65858 0.52686 0.34885 0.0
H104 H 0.61409 0.63705 0.44306 0.0
H105 H 0.59561 0.34405 0.88334 0.0
H106 H 0.60046 0.33057 1.0654 0.0
H107 H 0.53061 0.52735 0.83954 0.0
H108 H 0.64248 0.41594 0.40864 0.0
H109 H 0.66393 0.48787 0.47103 0.0
H110 H 0.55742 0.67997 0.26007 0.0
H111 H 0.61789 0.35699 0.25722 0.0
H112 H 0.5154 0.62131 0.89156 0.0
H113 H 0.51207 0.56616 0.77079 0.0
N114 N 0.54646 0.56166 0.99756 0.0
C115 C 0.54903 0.59234 1.06446 0.0
C116 C 0.53361 0.55242 0.89284 0.0
C117 C 0.52434 0.60495 0.92195 0.0
C118 C 0.52255 0.574 0.8535 0.0
C119 C 0.53774 0.61452 1.02877 0.0
H120 H 0.53016 0.66137 0.07598 0.0
N121 N 0.57409 0.57994 0.19992 0.0
C122 C 0.56324 0.60175 0.16882 0.0
C123 C 0.5854 0.64681 0.3402 0.0
C124 C 0.56781 0.63493 0.23904 0.0
C125 C 0.59328 0.59371 0.29546 0.0
C126 C 0.59886 0.62667 0.36752 0.0
O127 O 0.57644 0.45261 1.00159 0.0
O128 O 0.54635 0.45881 0.09789 0.0
O129 O 0.51705 0.51195 0.10752 0.0
O130 O 0.51711 0.47797 0.9647 0.0
O131 O 0.6116 0.51444 0.90872 0.0
O132 O 0.56811 0.51326 0.89235 0.0
O133 O 0.6025 0.57824 1.05458 0.0
O134 O 0.63423 0.5734 0.16899 0.0
O135 O 0.65846 0.54724 1.01385 0.0
O136 O 0.66804 0.52806 0.1508 0.0
O137 O 0.56571 0.51144 0.25801 0.0
O138 O 0.60951 0.51342 0.27306 0.0
C139 C 0.55049 0.43527 1.0333 0.0
C140 C 0.58937 0.51313 0.8424 0.0
C141 C 0.4725 0.44778 1.0337 0.0
C142 C 0.43422 0.41233 0.13587 0.0
C143 C 0.42473 0.38649 0.94794 0.0
C144 C 0.45323 0.41856 0.94247 0.0
C145 C 0.41502 0.38373 1.04394 0.0
C146 C 0.463 0.44417 0.13089 0.0
C147 C 0.50078 0.48366 1.02336 0.0
C148 C 0.55522 0.65568 0.2055 0.0
C149 C 0.53994 0.64525 0.1008 0.0
H150 H 0.58983 0.6725 0.39579 0.0
C151 C 0.62861 0.59678 0.12173 0.0
C152 C 0.58753 0.51127 0.32317 0.0
C153 C 0.69839 0.53622 1.02619 0.0
C154 C 0.74485 0.55814 0.96066 0.0
C155 C 0.71286 0.48932 0.97791 0.0
C156 C 0.69274 0.49757 1.01556 0.0
C157 C 0.73885 0.51945 0.95073 0.0
C158 C 0.72465 0.56655 0.99895 0.0
C159 C 0.67872 0.54598 0.0752 0.0
H160 H 0.40977 0.36446 0.87702 0.0
H161 H 0.45985 0.42121 0.86631 0.0
H162 H 0.39225 0.36016 1.04583 0.0
H163 H 0.47729 0.46677 0.20187 0.0
H164 H 0.70846 0.45959 0.97096 0.0
H165 H 0.67322 0.47396 1.03885 0.0
H166 H 0.75445 0.51277 0.9228 0.0
H167 H 0.72959 0.59666 1.0087 0.0
C168 C 0.53607 0.96654 0.81439 0.0
C169 C 0.53911 0.93403 0.95621 0.0
C170 C 0.54042 0.96675 0.92163 0.0
C171 C 0.53607 0.90303 0.8825 0.0
C172 C 0.53039 0.93361 0.73968 0.0
C173 C 0.53187 0.90293 0.77439 0.0
N174 N 0.53363 0.99592 0.78317 0.0
C175 C 0.52157 0.99098 0.67963 0.0
C176 C 0.52118 0.93092 0.63259 0.0
C177 C 0.5157 0.95894 0.60299 0.0
Gd178 Gd 0.61749 0.15078 0.99126 0.0
Gd179 Gd 0.54649 0.05043 0.91985 0.0
N180 N 0.54252 0.99666 0.99092 0.0
C181 C 0.53901 0.93214 1.06287 0.0
C182 C 0.53792 0.99155 0.09107 0.0
C183 C 0.53731 0.96029 0.1297 0.0
H184 H 0.53359 1.01035 0.14161 0.0
H185 H 0.53465 0.95731 0.21023 0.0
H186 H 0.58981 0.18366 0.81076 0.0
H187 H 0.51595 1.01141 0.65574 0.0
H188 H 0.593 0.24531 0.7895 0.0
H189 H 0.53806 0.90759 0.0925 0.0
H190 H 0.53556 0.8781 0.90796 0.0
H191 H 0.66053 0.17388 0.23109 0.0
H192 H 0.51639 0.90597 0.57303 0.0
H193 H 0.50673 0.95575 0.52113 0.0
H194 H 0.65389 0.33763 0.11671 0.0
H195 H 0.52811 0.87784 0.71806 0.0
H196 H 0.69395 0.29422 0.37644 0.0
H197 H 0.6906 0.23093 0.38146 0.0
N198 N 0.64662 0.20395 0.14016 0.0
C199 C 0.64837 0.23855 0.13571 0.0
C200 C 0.66175 0.2012 0.22711 0.0
C201 C 0.68061 0.26913 0.30989 0.0
C202 C 0.67881 0.23352 0.31299 0.0
C203 C 0.6654 0.27208 0.22054 0.0
H204 H 0.67995 0.33358 0.27757 0.0
N205 N 0.61797 0.20822 0.9641 0.0
C206 C 0.63373 0.24082 1.04495 0.0
C207 C 0.62095 0.27826 0.94366 0.0
C208 C 0.63562 0.27668 1.03689 0.0
C209 C 0.60372 0.20989 0.87274 0.0
C210 C 0.60485 0.24464 0.8614 0.0
O211 O 0.58871 0.04841 0.93623 0.0
O212 O 0.61685 0.10202 1.06717 0.0
O213 O 0.64479 0.13187 0.91449 0.0
O214 O 0.66486 0.19333 0.98713 0.0
O215 O 0.56059 0.07413 0.11726 0.0
O216 O 0.60513 0.13544 0.16398 0.0
O217 O 0.57313 0.15208 0.97935 0.0
O218 O 0.53859 0.09553 0.85998 0.0
O219 O 0.50924 0.04818 0.98867 0.0
O220 O 0.50107 1.00144 0.85842 0.0
O221 O 0.60334 0.13446 0.79629 0.0
O222 O 0.56048 0.07157 0.75127 0.0
C223 C 0.61202 0.06853 1.01494 0.0
C224 C 0.58231 0.10484 0.19827 0.0
C225 C 0.70032 0.17288 0.98026 0.0
C226 C 0.74691 0.17255 0.95977 0.0
C227 C 0.74224 0.19903 0.13012 0.0
C228 C 0.71438 0.19189 0.0866 0.0
C229 C 0.75816 0.18945 1.06811 0.0
C230 C 0.71732 0.16366 0.91537 0.0
C231 C 0.66987 0.16748 0.93966 0.0
C232 C 0.6522 0.3099 0.12158 0.0
C233 C 0.66705 0.3076 0.21318 0.0
H234 H 0.62189 0.30521 0.93442 0.0
C235 C 0.54603 0.1302 0.91439 0.0
C236 C 0.58224 0.10346 0.71614 0.0
C237 C 0.45655 0.99169 0.91133 0.0
C238 C 0.4128 0.96107 0.99452 0.0
C239 C 0.40765 0.93695 0.80825 0.0
C240 C 0.4382 0.9654 0.81463 0.0
C241 C 0.39518 0.93394 0.89844 0.0
C242 C 0.44343 0.99071 0.99999 0.0
C243 C 0.48959 0.01435 0.92222 0.0
H244 H 0.75193 0.21295 0.21304 0.0
H245 H 0.70375 0.20141 0.13784 0.0
H246 H 0.78008 0.19637 0.1049 0.0
H247 H 0.7081 0.15079 0.83181 0.0
H248 H 0.39388 0.91626 0.73409 0.0
H249 H 0.44775 0.96572 0.74479 0.0
H250 H 0.37174 0.91054 0.89349 0.0
H251 H 0.45741 1.01056 0.07515 0.0
C252 C 0.83239 0.91072 0.24673 0.0
C253 C 0.86538 0.95071 0.41577 0.0
C254 C 0.8365 0.92065 0.35535 0.0
C255 C 0.88922 0.97297 0.36479 0.0
C256 C 0.85724 0.93006 0.19633 0.0
C257 C 0.88517 0.96254 0.25502 0.0
N258 N 0.80521 0.87876 0.19252 0.0
C259 C 0.80311 0.86108 0.09224 0.0
C260 C 0.85402 0.91426 0.09047 0.0
C261 C 0.82723 0.87865 1.03969 0.0
Gd262 Gd 0.69991 0.86263 0.25785 0.0
Gd263 Gd 0.76531 0.85238 0.2883 0.0
N264 N 0.81316 0.89788 0.40249 0.0
C265 C 0.87009 0.9557 0.52559 0.0
C266 C 0.81847 0.90089 0.50965 0.0
C267 C 0.84668 0.93024 0.57276 0.0
H268 H 0.80165 0.87975 0.5474 0.0
H269 H 0.85055 0.93245 0.65752 0.0
H270 H 0.66058 0.79539 1.02586 0.0
H271 H 0.78256 0.83358 1.05074 0.0
H272 H 0.60868 0.7411 0.94451 0.0
H273 H 0.89232 0.97724 0.57347 0.0
H274 H 0.9113 0.99681 0.41004 0.0
H275 H 0.69418 0.906 0.48237 0.0
H276 H 0.87264 0.92792 1.04941 0.0
H277 H 0.82498 0.86486 0.95949 0.0
H278 H 0.55268 0.73373 0.21552 0.0
H279 H 0.90424 0.97835 0.21713 0.0
H280 H 0.60436 0.83343 0.53503 0.0
H281 H 0.65624 0.89363 0.59215 0.0
N282 N 0.6648 0.85213 0.36753 0.0
C283 C 0.63615 0.81975 0.33281 0.0
C284 C 0.6717 0.87941 0.45714 0.0
C285 C 0.62111 0.83836 0.4875 0.0
C286 C 0.65029 0.87246 0.51974 0.0
C287 C 0.61347 0.81211 0.39162 0.0
H288 H 0.5659 0.77368 0.39423 0.0
N289 N 0.65085 0.80657 0.17628 0.0
C290 C 0.62886 0.79647 0.23354 0.0
C291 C 0.59138 0.74527 0.0845 0.0
C292 C 0.59854 0.76551 0.18922 0.0
C293 C 0.64347 0.7876 1.07238 0.0
C294 C 0.61399 0.75629 1.02597 0.0
O295 O 0.78165 0.91801 0.33052 0.0
O296 O 0.74105 0.91586 0.37926 0.0
O297 O 0.71783 0.92042 0.21082 0.0
O298 O 0.67015 0.88158 0.20601 0.0
O299 O 0.75301 0.85601 0.46583 0.0
O300 O 0.71045 0.85775 0.44474 0.0
O301 O 0.693 0.80193 0.18416 0.0
O302 O 0.72115 0.80078 0.31757 0.0
O303 O 0.7859 0.82418 0.35698 0.0
O304 O 0.75675 0.79656 0.20062 0.0
O305 O 0.71107 0.86098 0.08066 0.0
O306 O 0.75123 0.85502 0.09996 0.0
C307 C 0.77052 0.93576 0.38226 0.0
C308 C 0.73162 0.85713 0.5128 0.0
C309 C 0.68941 0.95062 0.23477 0.0
C310 C 0.6704 0.9944 0.21287 0.0
C311 C 0.6921 0.99416 0.3879 0.0
C312 C 0.69816 0.96648 0.34379 0.0
C313 C 0.67779 1.00721 0.32384 0.0
C314 C 0.67631 0.9656 0.16865 0.0
C315 C 0.69151 0.91618 0.19251 0.0
C316 C 0.57608 0.75714 0.2486 0.0
C317 C 0.5836 0.77998 0.35023 0.0
H318 H 0.56836 0.72211 1.04668 0.0
C319 C 0.69791 0.77994 0.23939 0.0
C320 C 0.73137 0.85824 1.03216 0.0
C321 C 0.79298 0.78008 0.24776 0.0
C322 C 0.82123 0.7518 0.30415 0.0
C323 C 0.81978 0.76584 0.12811 0.0
C324 C 0.80086 0.77902 0.1481 0.0
C325 C 0.83012 0.75248 0.20601 0.0
C326 C 0.80271 0.76559 0.3244 0.0
C327 C 0.77397 0.79459 0.27569 0.0
H328 H 0.69843 1.00546 0.47266 0.0
H329 H 0.70929 0.95695 0.39526 0.0
H330 H 0.6733 0.02856 0.36112 0.0
H331 H 0.67051 0.95463 0.08375 0.0
H332 H 0.82608 0.76545 1.05162 0.0
H333 H 0.79221 0.78762 0.08525 0.0
H334 H 0.84442 0.74181 0.189 0.0
H335 H 0.79573 0.76478 0.40014 0.0
C336 C 0.25052 0.76627 0.43909 0.0
C337 C 0.22908 0.72573 0.26156 0.0
C338 C 0.23561 0.75901 0.33686 0.0
C339 C 0.24033 0.70266 0.28765 0.0
C340 C 0.26043 0.74181 0.46734 0.0
C341 C 0.25625 0.71096 0.39009 0.0
N342 N 0.25497 0.79697 0.51157 0.0
C343 C 0.26818 0.80401 0.61457 0.0
C344 C 0.27437 0.74916 0.5724 0.0
C345 C 0.27797 0.78019 0.64659 0.0
Gd346 Gd 0.18519 0.85757 0.44086 0.0
Gd347 Gd 0.24382 0.84067 0.44932 0.0
N348 N 0.22577 0.78276 0.31332 0.0
C349 C 0.21079 0.71589 0.16317 0.0
C350 C 0.20557 0.77066 0.22041 0.0
C351 C 0.19837 0.7379 0.14362 0.0
H352 H 0.19334 0.78433 0.2062 0.0
H353 H 0.18261 0.7291 1.07036 0.0
H354 H 0.20506 0.92762 0.66087 0.0
H355 H 0.27222 0.8289 0.6718 0.0
H356 H 0.21963 0.99752 0.70571 0.0
H357 H 0.20498 0.69028 0.10388 0.0
H358 H 0.23648 0.67809 0.2292 0.0
H359 H 0.13764 0.81904 0.2025 0.0
H360 H 0.28224 0.73095 0.5971 0.0
H361 H 0.28876 0.78622 0.72804 0.0
H362 H 0.19775 0.0259 0.37278 0.0
H363 H 0.26499 0.69314 0.40947 0.0
H364 H 0.13931 0.91403 0.08173 0.0
H365 H 0.12017 0.84228 1.06168 0.0
N366 N 0.16632 0.87667 0.3019 0.0
C367 C 0.17544 0.9157 0.31717 0.0
C368 C 0.14547 0.85013 0.21356 0.0
C369 C 0.14691 0.90389 0.14411 0.0
C370 C 0.1359 0.86335 0.13281 0.0
C371 C 0.16641 0.93052 0.23802 0.0
H372 H 0.16945 0.98293 0.19694 0.0
N373 N 0.19576 0.92288 0.49416 0.0
C374 C 0.1909 0.93969 0.41649 0.0
C375 C 0.21001 1.00089 0.54354 0.0
C376 C 0.19818 0.97932 0.43886 0.0
C377 C 0.20372 0.9422 0.59795 0.0
C378 C 0.21197 0.98183 0.62382 0.0
O379 O 0.2 0.78384 0.46713 0.0
O380 O 0.16804 0.79144 0.36188 0.0
O381 O 0.14964 0.81008 0.50222 0.0
O382 O 0.14533 0.85754 0.46283 0.0
O383 O 0.23857 0.85232 0.2698 0.0
O384 O 0.19702 0.85586 0.25909 0.0
O385 O 0.23238 0.90949 0.5369 0.0
O386 O 0.25788 0.90326 0.42216 0.0
O387 O 0.28578 0.84862 0.41978 0.0
O388 O 0.28568 0.88341 0.56085 0.0
O389 O 0.19826 0.85956 0.62776 0.0
O390 O 0.23437 0.84566 0.6326 0.0
C391 C 0.17356 0.76656 0.40266 0.0
C392 C 0.21815 0.85555 0.20721 0.0
C393 C 0.10062 0.79546 0.44946 0.0
C394 C 0.04756 0.75993 0.46153 0.0
C395 C 0.06214 0.75157 0.2942 0.0
C396 C 0.09233 0.77665 0.34271 0.0
C397 C 0.04005 0.74268 0.35428 0.0
C398 C 0.07815 0.78714 0.50978 0.0
C399 C 0.13261 0.82425 0.4963 0.0
C400 C 0.19179 0.99531 0.35751 0.0
C401 C 0.17572 0.97085 0.25735 0.0
H402 H 0.21614 0.03148 0.56384 0.0
C403 C 0.25601 0.92743 0.493 0.0
C404 C 0.21671 0.85285 0.6884 0.0
C405 C 0.32979 0.91363 0.48839 0.0
C406 C 0.36635 0.94941 0.38054 0.0
C407 C 0.3765 0.97745 0.56722 0.0
C408 C 0.34903 0.94438 0.57698 0.0
C409 C 0.38528 0.9798 0.46962 0.0
C410 C 0.33851 0.91653 0.38965 0.0
C411 C 0.30207 0.87763 0.50243 0.0
H412 H 0.05601 0.73784 0.21106 0.0
H413 H 0.1092 0.78077 0.29755 0.0
H414 H 0.01693 0.72062 0.31994 0.0
H415 H 0.08435 0.80106 0.59298 0.0
H416 H 0.39142 1.00078 0.63599 0.0
H417 H 0.34312 0.94237 0.65428 0.0
H418 H 0.40719 1.00464 0.46416 0.0
H419 H 0.32433 0.89282 0.32058 0.0
C420 C 0.15129 0.12049 0.37304 0.0
C421 C 0.16582 0.08364 0.46977 0.0
C422 C 0.16693 0.11901 0.46211 0.0
C423 C 0.14939 0.05035 0.38512 0.0
C424 C 0.13387 0.08672 0.28924 0.0
C425 C 0.13344 0.05188 0.295 0.0
N426 N 0.15192 0.15437 0.37056 0.0
C427 C 0.13454 0.15597 0.28888 0.0
C428 C 0.11686 0.0887 0.20334 0.0
C429 C 0.11695 0.1234 0.20378 0.0
Gd430 Gd 0.254 0.30828 0.5783 0.0
Gd431 Gd 0.18382 0.20945 0.51098 0.0
N432 N 0.1822 0.1516 0.54293 0.0
C433 C 0.18072 0.08248 0.56307 0.0
C434 C 0.19567 0.14982 0.6361 0.0
C435 C 0.19552 0.11562 0.64683 0.0
H436 H 0.20797 0.1753 0.70106 0.0
H437 H 0.20697 0.11495 0.71968 0.0
H438 H 0.27365 0.34518 0.35388 0.0
H439 H 0.13442 0.18256 0.28929 0.0
H440 H 0.26833 0.39028 0.25716 0.0
H441 H 0.18049 0.05595 0.57186 0.0
H442 H 0.14834 0.02299 0.38952 0.0
H443 H 0.26724 0.35046 0.84245 0.0
H444 H 0.10315 0.06341 0.13753 0.0
H445 H 0.10349 0.12509 0.13875 0.0
H446 H 0.24046 0.45815 0.50108 0.0
H447 H 0.12037 0.02572 0.23119 0.0
H448 H 0.24727 0.43987 0.85728 0.0
H449 H 0.26047 0.39873 0.94593 0.0
N450 N 0.25475 0.35994 0.69205 0.0
C451 C 0.25041 0.3851 0.64329 0.0
C452 C 0.25985 0.36614 0.80035 0.0
C453 C 0.24953 0.41784 0.81028 0.0
C454 C 0.25682 0.39454 0.86052 0.0
C455 C 0.24697 0.41403 0.70071 0.0
H456 H 0.23897 0.46104 0.69032 0.0
N457 N 0.25609 0.35662 0.48478 0.0
C458 C 0.25102 0.38329 0.53638 0.0
C459 C 0.25342 0.41169 0.38126 0.0
C460 C 0.24862 0.4107 0.48492 0.0
C461 C 0.26469 0.3613 0.38904 0.0
C462 C 0.26257 0.38788 0.33461 0.0
O463 O 0.22753 0.20611 0.52451 0.0
O464 O 0.26406 0.26456 0.63415 0.0
O465 O 0.29424 0.32021 0.52025 0.0
O466 O 0.29786 0.35942 0.66229 0.0
O467 O 0.19886 0.22684 0.7054 0.0
O468 O 0.24408 0.28675 0.74749 0.0
O469 O 0.20972 0.30513 0.56453 0.0
O470 O 0.18268 0.25511 0.42427 0.0
O471 O 0.16174 0.23275 0.60274 0.0
O472 O 0.13552 0.17213 0.51509 0.0
O473 O 0.24221 0.28188 0.38344 0.0
O474 O 0.19566 0.22382 0.33652 0.0
C475 C 0.25533 0.22861 0.58534 0.0
C476 C 0.22158 0.25657 0.78436 0.0
C477 C 0.34463 0.37667 0.60611 0.0
C478 C 0.38809 0.40456 0.52149 0.0
C479 C 0.39392 0.43099 0.70659 0.0
C480 C 0.36314 0.40377 0.7013 0.0
C481 C 0.40629 0.43198 0.61651 0.0
C482 C 0.35745 0.3762 0.51747 0.0
C483 C 0.31171 0.35181 0.59589 0.0
C484 C 0.24298 0.43748 0.53999 0.0
C485 C 0.24218 0.43916 0.64776 0.0
H486 H 0.25183 0.43231 0.33906 0.0
C487 C 0.18989 0.28998 0.47582 0.0
C488 C 0.21985 0.25247 0.30184 0.0
C489 C 0.10821 0.2045 0.53566 0.0
C490 C 0.05965 0.20041 0.55077 0.0
C491 C 0.08057 0.21289 0.39041 0.0
C492 C 0.10542 0.21259 0.43472 0.0
C493 C 0.05792 0.20621 0.44634 0.0
C494 C 0.08526 0.19927 0.59551 0.0
C495 C 0.13448 0.20027 0.57248 0.0
H496 H 0.40804 0.45205 0.77987 0.0
H497 H 0.35371 0.40448 0.7709 0.0
H498 H 0.42996 0.45419 0.62052 0.0
H499 H 0.34333 0.35567 0.44322 0.0
H500 H 0.07886 0.21845 0.31129 0.0
H501 H 0.12256 0.21858 0.38892 0.0
H502 H 0.03904 0.20669 0.40824 0.0
H503 H 0.08726 0.1943 0.67515 0.0
C504 C 0.47126 0.19287 0.58237 0.0
C505 C 0.45279 0.12699 0.48342 0.0
C506 C 0.44729 0.15572 0.52709 0.0
C507 C 0.4826 0.13761 0.48575 0.0
C508 C 0.50131 0.2038 0.58587 0.0
C509 C 0.50684 0.17613 0.53586 0.0
N510 N 0.46508 0.21753 0.63774 0.0
C511 C 0.4879 0.25561 0.68648 0.0
C512 C 0.52484 0.24199 0.64109 0.0
C513 C 0.51807 0.26828 0.69002 0.0
Gd514 Gd 0.39027 0.17293 0.87006 0.0
Gd515 Gd 0.4139 0.19238 0.64019 0.0
N516 N 0.4186 0.14685 0.52212 0.0
C517 C 0.42817 0.08796 0.44225 0.0
C518 C 0.39478 0.11011 0.46762 0.0
C519 C 0.39906 0.07967 0.43224 0.0
H520 H 0.37216 0.10333 0.45064 0.0
H521 H 0.37989 0.05006 0.39455 0.0
H522 H 0.43229 0.25987 1.0634 0.0
H523 H 0.48313 0.2767 0.72142 0.0
H524 H 0.4264 0.31405 0.12888 0.0
H525 H 0.43155 0.06475 0.41147 0.0
H526 H 0.48714 0.11603 0.45053 0.0
H527 H 0.32012 0.09155 0.77803 0.0
H528 H 0.54822 0.25158 0.64549 0.0
H529 H 0.53605 0.29828 0.73065 0.0
H530 H 0.31984 0.25546 1.04841 0.0
H531 H 0.52973 0.18381 0.53802 0.0
H532 H 0.25671 0.1208 0.84768 0.0
H533 H 0.26764 0.07262 0.76338 0.0
N534 N 0.3392 0.1505 0.86518 0.0
C535 C 0.33354 0.17602 0.91913 0.0
C536 C 0.3159 0.11316 0.81327 0.0
C537 C 0.27988 0.12918 0.8547 0.0
C538 C 0.28597 0.10205 0.80634 0.0
C539 C 0.30382 0.16672 0.91215 0.0
H540 H 0.2764 0.18887 0.95656 0.0
N541 N 0.3861 0.21957 0.98506 0.0
C542 C 0.35788 0.21259 0.9758 0.0
C543 C 0.37848 0.27989 1.06964 0.0
C544 C 0.3533 0.24237 1.01831 0.0
C545 C 0.41024 0.25487 1.04492 0.0
C546 C 0.40697 0.28589 0.08447 0.0
O547 O 0.43787 0.16649 0.73163 0.0
O548 O 0.43868 0.18506 0.90141 0.0
O549 O 0.38239 0.15161 1.01395 0.0
O550 O 0.37647 0.11194 0.8694 0.0
O551 O 0.3655 0.13351 0.59436 0.0
O552 O 0.37265 0.11602 0.7444 0.0
O553 O 0.36797 0.20035 0.77489 0.0
O554 O 0.36412 0.17563 0.60801 0.0
O555 O 0.42481 0.21818 0.50396 0.0
O556 O 0.41974 0.24979 0.64122 0.0
O557 O 0.43941 0.22993 0.91837 0.0
O558 O 0.43357 0.24899 0.76951 0.0
C559 C 0.44942 0.17157 0.83184 0.0
C560 C 0.35723 0.10451 0.64749 0.0
C561 C 0.40346 0.11298 1.02179 0.0
C562 C 0.43113 0.13833 0.19326 0.0
C563 C 0.41425 0.07113 0.10777 0.0
C564 C 0.39792 0.07491 1.02302 0.0
C565 C 0.4299 0.10279 0.19679 0.0
C566 C 0.42799 0.14557 0.09323 0.0
C567 C 0.38069 0.11883 0.972 0.0
C568 C 0.32378 0.23331 1.0128 0.0
C569 C 0.29904 0.19537 0.96086 0.0
H570 H 0.37577 0.30314 0.10557 0.0
C571 C 0.35422 0.19128 0.67511 0.0
C572 C 0.44872 0.25928 0.86635 0.0
C573 C 0.39634 0.24574 0.47628 0.0
C574 C 0.36941 0.20917 0.30671 0.0
C575 C 0.38228 0.27712 0.35762 0.0
C576 C 0.39921 0.28052 0.45329 0.0
C577 C 0.36812 0.24113 0.28179 0.0
C578 C 0.37403 0.20897 0.41237 0.0
C579 C 0.42051 0.24631 0.54083 0.0
H580 H 0.41236 0.0433 0.11018 0.0
H581 H 0.38058 0.04891 0.96401 0.0
H582 H 0.44023 0.09934 0.26599 0.0
H583 H 0.43342 0.17523 0.08796 0.0
H584 H 0.38289 0.30282 0.33782 0.0
H585 H 0.41523 0.30935 0.50464 0.0
H586 H 0.35658 0.23784 0.20604 0.0
H587 H 0.37165 0.18212 0.43142 0.0
C588 C 0.94578 0.11983 0.87044 0.0
C589 C 0.9934 0.16841 0.99243 0.0
C590 C 0.96455 0.15694 0.93992 0.0
C591 C 1.00303 0.14221 0.97558 0.0
C592 C 0.95502 0.09283 0.85782 0.0
C593 C 0.98382 0.10444 0.90928 0.0
N594 N 0.91816 0.1095 0.81849 0.0
C595 C 0.89801 0.07144 0.76149 0.0
C596 C 0.93466 0.05434 0.79669 0.0
C597 C 0.90583 0.04345 0.75083 0.0
Gd598 Gd 0.89669 0.19941 0.64202 0.0
Gd599 Gd 0.90485 0.15538 0.86827 0.0
N600 N 0.95457 0.18174 0.95631 0.0
C601 C 0.01161 0.20565 1.06197 0.0
C602 C 0.97178 0.21728 1.02812 0.0
C603 C 1.00064 0.23001 0.08043 0.0
H604 H 0.96311 0.23534 1.04963 0.0
H605 H 0.01411 0.25821 0.13699 0.0
H606 H 0.84587 0.11841 0.44272 0.0
H607 H 0.87502 0.06127 0.73109 0.0
H608 H 0.7946 0.08779 0.3442 0.0
H609 H 0.03387 0.21546 0.10376 0.0
H610 H 0.02511 0.15056 1.01531 0.0
H611 H 0.91807 0.29136 0.76152 0.0
H612 H 0.9406 0.03242 0.78753 0.0
H613 H 0.88908 0.01309 0.71059 0.0
H614 H 0.76984 0.18344 0.44399 0.0
H615 H 0.99131 0.08417 0.89943 0.0
H616 H 0.84779 0.30928 0.66252 0.0
H617 H 0.89992 0.33611 0.74997 0.0
N618 N 0.87759 0.24022 0.66693 0.0
C619 C 0.84983 0.22599 0.60807 0.0
C620 C 0.89538 0.27924 0.71989 0.0
C621 C 0.85581 0.28958 0.66348 0.0
C622 C 0.8851 0.30466 0.71565 0.0
C623 C 0.8377 0.24976 0.60908 0.0
H624 H 0.79876 0.25151 0.55282 0.0
N625 N 0.84754 0.16727 0.53574 0.0
C626 C 0.83394 0.18793 0.54386 0.0
C627 C 0.79027 0.13522 0.41394 0.0
C628 C 0.80498 0.17239 0.4831 0.0
C629 C 0.83416 0.13267 0.46084 0.0
C630 C 0.80514 0.11561 0.40158 0.0
O631 O 0.9463 0.18283 0.78629 0.0
O632 O 0.92744 0.17672 0.61481 0.0
O633 O 0.90103 0.20344 0.48244 0.0
O634 O 0.9272 0.25766 0.6043 0.0
O635 O 0.92174 0.22187 0.92353 0.0
O636 O 0.93764 0.24443 0.77566 0.0
O637 O 0.8595 0.18561 0.73874 0.0
O638 O 0.86726 0.16574 0.89043 0.0
O639 O 0.90359 0.15666 1.03253 0.0
O640 O 0.8814 0.09941 0.92361 0.0
O641 O 0.88059 0.13329 0.59224 0.0
O642 O 0.86266 0.1122 0.73747 0.0
C643 C 0.94881 0.18054 0.686 0.0
C644 C 0.93979 0.25163 0.87899 0.0
C645 C 0.90161 0.25946 0.44638 0.0
C646 C 0.88257 0.23747 0.26505 0.0
C647 C 0.91359 0.3087 0.33973 0.0
C648 C 0.91887 0.29953 0.4372 0.0
C649 C 0.89616 0.27694 0.25079 0.0
C650 C 0.87654 0.23287 0.36536 0.0
C651 C 0.91565 0.24234 0.50434 0.0
C652 C 0.79208 0.19504 0.48973 0.0
C653 C 0.80853 0.23379 0.55173 0.0
H654 H 0.76802 0.12228 0.36627 0.0
C655 C 0.8515 0.17453 0.82761 0.0
C656 C 0.86109 0.1043 0.63487 0.0
C657 C 0.90904 0.10673 0.0887 0.0
C658 C 0.92246 0.13409 0.26794 0.0
C659 C 0.89766 0.06259 0.21123 0.0
C660 C 0.8942 0.06758 0.10651 0.0
C661 C 0.91047 0.09648 0.29405 0.0
C662 C 0.93148 0.13691 0.17128 0.0
C663 C 0.89232 0.1184 1.0212 0.0
H664 H 0.9257 0.33939 0.33126 0.0
H665 H 0.93743 0.32229 0.49985 0.0
H666 H 0.89516 0.28248 0.17249 0.0
H667 H 0.86144 0.20264 0.37451 0.0
H668 H 0.88706 0.03297 0.22759 0.0
H669 H 0.87799 0.04214 1.04383 0.0
H670 H 0.90783 0.09338 0.37368 0.0
H671 H 0.94526 0.16654 0.15591 0.0
C672 C 0.82953 0.54041 0.73331 0.0
C673 C 0.77825 0.52094 0.66765 0.0
C674 C 0.8097 0.5468 0.6747 0.0
C675 C 0.76722 0.48974 0.72298 0.0
C676 C 0.81833 0.50771 0.78432 0.0
C677 C 0.7872 0.48308 0.78096 0.0
N678 N 0.85952 0.56433 0.73424 0.0
C679 C 0.87902 0.55491 0.77569 0.0
C680 C 0.8386 0.49956 0.83305 0.0
C681 C 0.86898 0.52278 0.82676 0.0
Gd682 Gd 0.91928 0.73162 0.81693 0.0
Gd683 Gd 0.87414 0.61592 0.64078 0.0
N684 N 0.82093 0.57643 0.61901 0.0
C685 C 0.75865 0.52607 0.60162 0.0
C686 C 0.80164 0.57984 0.54977 0.0
C687 C 0.77041 0.5553 0.54134 0.0
H688 H 0.80986 0.60102 0.4995 0.0
H689 H 0.7554 0.55875 0.4875 0.0
H690 H 0.96406 0.72945 1.02567 0.0
H691 H 0.90236 0.57172 0.76815 0.0
H692 H 0.01878 0.7602 0.08767 0.0
H693 H 0.7344 0.50685 0.59415 0.0
H694 H 0.74318 0.46981 0.7188 0.0
H695 H 0.91609 0.79286 0.66435 0.0
H696 H 0.83084 0.4745 0.87205 0.0
H697 H 0.88464 0.51575 0.86032 0.0
H698 H 0.06674 0.8547 0.87444 0.0
H699 H 0.77825 0.45803 0.82029 0.0
H700 H 1.00629 0.88012 0.64233 0.0
H701 H 0.95147 0.85101 0.59576 0.0
N702 N 0.9501 0.78749 0.74606 0.0
C703 C 0.98037 0.80482 0.779 0.0
C704 C 0.93976 0.80454 0.68394 0.0
C705 C 0.99078 0.85438 0.67267 0.0
C706 C 0.95986 0.838 0.646 0.0
C707 C 1.00143 0.83814 0.74052 0.0
H708 H 0.04884 0.88013 0.74259 0.0
N709 N 0.97008 0.76097 0.90001 0.0
C710 C 0.99055 0.79104 0.85666 0.0
C711 C 0.03174 0.79713 0.97442 0.0
C712 C 0.02191 0.80953 0.8926 0.0
C713 C 0.97979 0.75092 0.98538 0.0
C714 C 1.01071 0.76838 1.02215 0.0
O715 O 0.8633 0.629 0.79658 0.0
O716 O 0.86856 0.68926 0.79716 0.0
O717 O 0.93256 0.79136 0.89382 0.0
O718 O 0.8965 0.7398 0.93662 0.0
O719 O 0.85792 0.65439 0.59092 0.0
O720 O 0.89569 0.72206 0.65127 0.0
O721 O 0.94582 0.71524 0.72627 0.0
O722 O 0.9108 0.66836 0.58001 0.0
O723 O 0.85537 0.58043 0.48004 0.0
O724 O 0.89012 0.57961 0.57886 0.0
O725 O 0.92067 0.68431 0.8947 0.0
O726 O 0.91796 0.64089 0.75227 0.0
C727 C 0.85361 0.65261 0.81325 0.0
C728 C 0.86989 0.6926 0.59079 0.0
C729 C 0.92898 0.796 1.07127 0.0
C730 C 0.94564 0.78534 0.23663 0.0
C731 C 0.94664 0.84585 0.23292 0.0
C732 C 0.93483 0.83269 0.12338 0.0
C733 C 0.95152 0.82175 0.29052 0.0
C734 C 0.93591 0.77392 0.12755 0.0
C735 C 0.91461 0.77862 0.95968 0.0
C736 C 0.04265 0.84065 0.84832 0.0
C737 C 0.03246 0.8551 0.77315 0.0
H738 H 0.05561 0.81055 1.00389 0.0
C739 C 0.93886 0.69602 0.62857 0.0
C740 C 0.92553 0.65687 0.85355 0.0
C741 C 0.89511 0.58413 0.4058 0.0
C742 C 0.92418 0.6375 0.31152 0.0
C743 C 0.93637 0.58781 0.33507 0.0
C744 C 0.91205 0.56789 0.38495 0.0
C745 C 0.94313 0.62303 0.30251 0.0
C746 C 0.90167 0.61869 0.3706 0.0
C747 C 0.87548 0.57118 0.48324 0.0
H748 H 0.95094 0.87396 0.27361 0.0
H749 H 0.92991 0.8506 0.08023 0.0
H750 H 0.95873 0.83065 0.37581 0.0
H751 H 0.93101 0.74529 0.08753 0.0
H752 H 0.95084 0.57685 0.32531 0.0
H753 H 0.90796 0.54177 0.41428 0.0
H754 H 0.96388 0.63862 0.27525 0.0
H755 H 0.88986 0.63223 0.39499 0.0
C756 C 0.07858 0.48352 0.78693 0.0
C757 C 0.06902 0.50423 0.85879 0.0
C758 C 0.0611 0.52683 0.67892 0.0
C759 C 0.0683 0.5034 0.60674 0.0
N760 N 0.07763 0.45142 0.61009 0.0
N761 N 0.04615 0.54208 0.8436 0.0
C762 C 0.07551 0.48017 0.66767 0.0
C763 C 0.05876 0.52434 0.79455 0.0
N764 N 0.09115 0.46572 0.83217 0.0
N765 N 0.05817 0.55466 0.63923 0.0
H766 H 0.04652 0.5456 0.9244 0.0
H767 H 0.0336 0.551 0.80273 0.0
H768 H 0.0608 0.55899 0.56264 0.0
H769 H 0.05664 0.57633 0.68503 0.0
H770 H 0.10362 0.45669 0.79523 0.0
H771 H 0.09045 0.46222 0.90922 0.0
H772 H 0.07864 0.42952 0.64167 0.0
H773 H 0.0746 0.44624 0.52796 0.0
C774 C 0.57628 0.47621 0.62389 0.0
C775 C 0.58846 0.51189 0.70794 0.0
C776 C 0.60418 0.54661 0.54444 0.0
C777 C 0.5884 0.5112 0.45754 0.0
N778 N 0.55751 0.43988 0.43483 0.0
N779 N 0.60724 0.58126 0.72049 0.0
C780 C 0.57405 0.47567 0.50493 0.0
C781 C 0.60022 0.54667 0.65849 0.0
N782 N 0.56683 0.44147 0.65767 0.0
N783 N 0.62575 0.58144 0.52141 0.0
H784 H 0.60291 0.582 0.79681 0.0
H785 H 0.6133 0.60698 0.6915 0.0
H786 H 0.63275 0.58188 0.44948 0.0
H787 H 0.63978 0.60774 0.57841 0.0
H788 H 0.56132 0.41513 0.60894 0.0
H789 H 0.56676 0.44013 0.7374 0.0
H790 H 0.54351 0.41273 0.45615 0.0
H791 H 0.55632 0.43799 0.35338 0.0
C792 C 0.59183 0.13903 0.53216 0.0
C793 C 0.58295 0.10441 0.58235 0.0
C794 C 0.57845 0.07221 0.38372 0.0
C795 C 0.58231 0.10451 0.3317 0.0
N796 N 0.59067 0.16946 0.37775 0.0
N797 N 0.5694 0.03681 0.53274 0.0
C798 C 0.58844 0.13775 0.41341 0.0
C799 C 0.57627 0.07087 0.49963 0.0
N800 N 0.60587 0.17537 0.59861 0.0
N801 N 0.58018 0.04353 0.3242 0.0
H802 H 0.57295 0.03631 0.61274 0.0
H803 H 0.5597 1.00932 0.48134 0.0
H804 H 0.58486 0.04553 0.2484 0.0
H805 H 0.58104 0.02115 0.35338 0.0
H806 H 0.6161 0.20233 0.57325 0.0
H807 H 0.6111 0.17888 0.67984 0.0
H808 H 0.59105 0.19248 0.4255 0.0
H809 H 0.58917 0.17064 0.2977 0.0
C810 C 0.70488 0.83631 0.69321 0.0
C811 C 0.73157 0.85795 0.64661 0.0
C812 C 0.75837 0.87955 0.85023 0.0
C813 C 0.73147 0.8587 0.89759 0.0
N814 N 0.67803 0.82967 0.84057 0.0
N815 N 0.78375 0.91042 0.70586 0.0
C816 C 0.70472 0.84069 0.81125 0.0
C817 C 0.75815 0.8817 0.73335 0.0
N818 N 0.67836 0.80973 0.62361 0.0
N819 N 0.78536 0.90051 0.91934 0.0
H820 H 0.7838 0.91577 0.62933 0.0
H821 H 0.80349 0.93203 0.75961 0.0
H822 H 0.78675 0.9057 1.0009 0.0
H823 H 0.80603 0.91165 0.8961 0.0
H824 H 0.6587 0.78909 0.64693 0.0
H825 H 0.67689 0.80565 0.54188 0.0
H826 H 0.65842 0.82046 0.78723 0.0
H827 H 0.67669 0.8359 0.91871 0.0
C828 C 0.19082 0.83923 0.87314 0.0
C829 C 0.21727 0.85367 0.82256 0.0
C830 C 0.24458 0.87284 1.02437 0.0
C831 C 0.21784 0.85531 0.07335 0.0
N832 N 0.1641 0.81144 1.01686 0.0
N833 N 0.2704 0.88092 0.87186 0.0
C834 C 0.19089 0.83631 0.98894 0.0
C835 C 0.24408 0.86907 0.90563 0.0
N836 N 0.16415 0.8271 0.80982 0.0
N837 N 0.2718 0.89596 0.09271 0.0
H838 H 0.2723 0.88258 0.79348 0.0
H839 H 0.2897 0.88644 0.91972 0.0
H840 H 0.27369 0.90052 0.17458 0.0
H841 H 0.29212 0.91394 1.06919 0.0
H842 H 0.14537 0.8225 0.83951 0.0
H843 H 0.16136 0.82412 0.72811 0.0
H844 H 0.1437 0.79305 0.9629 0.0
H845 H 0.16313 0.80522 0.09232 0.0
C846 C 0.19441 0.23603 0.96442 0.0
C847 C 0.2216 0.25554 0.91809 0.0
C848 C 0.2478 0.27341 0.12176 0.0
C849 C 0.22062 0.25387 0.16815 0.0
N850 N 0.16678 0.21442 0.11018 0.0
N851 N 0.27546 0.30032 0.97893 0.0
C852 C 0.19401 0.23466 0.08126 0.0
C853 C 0.24827 0.27611 1.00543 0.0
N854 N 0.16769 0.22146 0.8972 0.0
N855 N 0.27447 0.28771 0.1887 0.0
H856 H 0.27819 0.30111 0.90111 0.0
H857 H 0.29495 0.32188 1.03394 0.0
H858 H 0.27576 0.28589 0.26809 0.0
H859 H 0.29479 0.29729 0.1641 0.0
H860 H 0.14719 0.21136 0.92071 0.0
H861 H 0.16622 0.22325 0.81794 0.0
H862 H 0.14685 0.19176 1.05889 0.0
H863 H 0.16448 0.22036 0.18732 0.0
C864 C 0.36786 0.14997 0.22395 0.0
C865 C 0.38443 0.19207 0.25032 0.0
C866 C 0.43165 0.19416 0.29029 0.0
C867 C 0.41549 0.15231 0.258 0.0
N868 N 0.36704 0.08915 0.21946 0.0
N869 N 0.43314 0.25476 0.28431 0.0
C870 C 0.3831 0.1298 0.23373 0.0
C871 C 0.41672 0.21429 0.27486 0.0
N872 N 0.33742 0.12971 0.18699 0.0
N873 N 0.46176 0.21445 0.33299 0.0
H874 H 0.42322 0.27052 0.27116 0.0
H875 H 0.45655 0.27221 0.29386 0.0
H876 H 0.47262 0.19942 0.34292 0.0
H877 H 0.47496 0.2448 0.36765 0.0
H878 H 0.32343 0.09904 0.15762 0.0
H879 H 0.32659 0.14477 0.17704 0.0
H880 H 0.34365 0.07095 0.20822 0.0
H881 H 0.37724 0.07354 0.2296 0.0
C882 C 0.92405 0.2255 0.26184 0.0
C883 C 0.89319 0.21115 0.22555 0.0
C884 C 0.87926 0.14406 0.24755 0.0
C885 C 0.91018 0.15959 0.29175 0.0
N886 N 0.95987 0.2167 0.36595 0.0
N887 N 0.84306 0.15542 0.15382 0.0
C888 C 0.93172 0.20107 0.30792 0.0
C889 C 0.87145 0.1696 0.2072 0.0
N890 N 0.9461 0.26182 0.24746 0.0
N891 N 0.85729 0.10559 0.24867 0.0
H892 H 0.83773 0.17458 0.12537 0.0
H893 H 0.8259 0.12529 0.12992 0.0
H894 H 0.86127 0.08812 0.29148 0.0
H895 H 0.83439 0.09256 0.2202 0.0
H896 H 0.96905 0.27294 0.26599 0.0
H897 H 0.94101 0.27771 0.20201 0.0
H898 H 0.97612 0.24729 0.38861 0.0
H899 H 0.96555 0.1988 0.40032 0.0
C900 C 0.9059 0.68251 0.27162 0.0
C901 C 0.9289 0.67459 0.27549 0.0
C902 C 0.96543 0.74471 0.2756 0.0
C903 C 0.9434 0.75354 0.28757 0.0
N904 N 0.89142 0.72972 0.28941 0.0
N905 N 0.97127 0.69428 0.19286 0.0
C906 C 0.9135 0.72218 0.28761 0.0
C907 C 0.95673 0.70459 0.25539 0.0
N908 N 0.8763 0.65248 0.23987 0.0
N909 N 0.99405 0.77367 0.27002 0.0
H910 H 0.96123 0.66533 0.15233 0.0
H911 H 0.99054 0.71509 0.16867 0.0
H912 H 1.002 0.804 0.28226 0.0
H913 H 1.002 0.804 0.28226 0.0
H914 H 0.86879 0.62268 0.21176 0.0
H915 H 0.86879 0.62268 0.21176 0.0
H916 H 0.86863 0.70691 0.27298 0.0
H917 H 0.8961 0.75866 0.30598 0.0
C918 C 0.17647 0.32181 0.33698 0.0
C919 C 0.17461 0.31102 0.43813 0.0
C920 C 0.1418 0.33708 0.46273 0.0
C921 C 0.14416 0.34796 0.36228 0.0
N922 N 0.17067 0.36076 0.21863 0.0
N923 N 0.15948 0.3159 0.60559 0.0
C924 C 0.16355 0.3432 0.30405 0.0
C925 C 0.15874 0.32139 0.50385 0.0
N926 N 0.19073 0.31173 0.27109 0.0
N927 N 0.12229 0.34019 0.51721 0.0
H928 H 0.16948 0.30216 0.6371 0.0
H929 H 0.15187 0.32723 0.66173 0.0
H930 H 0.10966 0.35131 0.48991 0.0
H931 H 0.11741 0.33019 0.58702 0.0
H932 H 0.1891 0.31304 0.19127 0.0
H933 H 0.20338 0.30062 0.2958 0.0
H934 H 0.18731 0.3627 0.17928 0.0
H935 H 0.16216 0.37723 0.19389 0.0
C936 C 0.66289 0.66683 0.25945 0.0
C937 C 0.64909 0.64428 0.1524 0.0
C938 C 0.67146 0.71161 0.1002 0.0
C939 C 0.68049 0.73299 0.20781 0.0
N940 N 0.67754 0.72618 0.38868 0.0
N941 N 0.64269 0.6488 0.96971 0.0
C942 C 0.67421 0.70912 0.28657 0.0
C943 C 0.6538 0.66797 0.07323 0.0
N944 N 0.66655 0.64889 0.33699 0.0
N945 N 0.68177 0.73281 1.02287 0.0
H946 H 0.63582 0.61918 0.94538 0.0
H947 H 0.64024 0.66219 0.90906 0.0
H948 H 0.69617 0.76381 1.03835 0.0
H949 H 0.67891 0.71971 0.9448 0.0
H950 H 0.6791 0.66478 0.41295 0.0
H951 H 0.6604 0.61943 0.32357 0.0
H952 H 0.67026 0.70967 0.44741 0.0
H953 H 0.68407 0.75576 0.41193 0.0
C954 C 0.37657 0.96356 0.10011 0.0
C955 C 0.39971 0.95626 0.09145 0.0
C956 C 0.39737 0.93869 0.26624 0.0
C957 C 0.37688 0.95042 0.27931 0.0
N958 N 0.34849 0.97699 0.21498 0.0
N959 N 0.43247 0.93685 0.1652 0.0
C960 C 0.36665 0.9633 0.19756 0.0
C961 C 0.41024 0.94386 0.17438 0.0
N962 N 0.36426 0.97114 1.01558 0.0
N963 N 0.40352 0.92107 0.33997 0.0
H964 H 0.44013 0.93561 0.09511 0.0
H965 H 0.44429 0.93374 0.22827 0.0
H966 H 0.39455 0.91683 0.40845 0.0
H967 H 0.41556 0.90774 0.33006 0.0
H968 H 0.34465 0.97114 1.01187 0.0
H969 H 0.37293 0.97606 0.94669 0.0
H970 H 0.34325 0.99145 0.16401 0.0
H971 H 0.34017 0.97633 0.28444 0.0
C972 C 0.51999 0.16907 0.97756 0.0
C973 C 0.52289 0.14388 0.89742 0.0
C974 C 0.47585 0.13279 0.78831 0.0
C975 C 0.4744 0.16132 0.86133 0.0
N976 N 0.49403 0.20026 1.041 0.0
N977 N 0.50709 0.1135 0.71147 0.0
C978 C 0.49651 0.17801 0.95974 0.0
C979 C 0.50176 0.12926 0.79911 0.0
N980 N 0.54013 0.18546 1.07182 0.0
N981 N 0.451 0.10558 0.71208 0.0
H982 H 0.52741 0.11569 0.70953 0.0
H983 H 0.49327 0.10332 0.637 0.0
H984 H 0.43049 0.10324 0.70698 0.0
H985 H 0.44933 0.08147 0.66445 0.0
H986 H 0.54418 0.20978 0.12602 0.0
H987 H 0.5539 0.17571 0.09583 0.0
H988 H 0.50547 0.20838 0.11877 0.0
H989 H 0.4788 0.20867 1.03427 0.0
C990 C 0.99419 0.31703 0.93007 0.0
C991 C 0.96387 0.29438 0.94605 0.0
C992 C 0.97993 0.35109 0.09501 0.0
C993 C 1.00861 0.37681 1.06802 0.0
N994 N 0.03642 0.3831 0.92719 0.0
N995 N 0.92723 0.29901 1.02701 0.0
C996 C 0.01396 0.3594 0.97642 0.0
C997 C 0.95663 0.3142 1.02337 0.0
N998 N 1.00485 0.29813 0.87353 0.0
N999 N 0.97487 0.35993 0.19203 0.0
H1000 H 0.90957 0.27166 0.98129 0.0
H1001 H 0.92087 0.31644 1.06678 0.0
H1002 H 0.99202 0.38086 0.25536 0.0
H1003 H 0.95424 0.34225 0.21333 0.0
H1004 H 0.02738 0.31249 0.86594 0.0
H1005 H 0.99209 0.2672 0.84674 0.0
H1006 H 0.03983 0.37209 0.8568 0.0
H1007 H 0.04809 0.41399 0.94649 0.0
C1008 C 0.79849 0.62664 0.79846 0.0
C1009 C 0.82648 0.63827 0.86047 0.0
C1010 C 0.80105 0.60648 0.99886 0.0
C1011 C 0.77267 0.58964 0.93125 0.0
N1012 N 0.74376 0.58269 0.76502 0.0
N1013 N 0.85447 0.64732 1.03162 0.0
C1014 C 0.77117 0.60006 0.83115 0.0
C1015 C 0.82773 0.63082 0.96352 0.0
N1016 N 0.79814 0.64148 0.70969 0.0
N1017 N 0.80355 0.59924 0.09783 0.0
H1018 H 0.87547 0.66748 1.01486 0.0
H1019 H 0.87547 0.66748 1.01486 0.0
H1020 H 0.78514 0.58187 0.13207 0.0
H1021 H 0.78514 0.58187 0.13207 0.0
H1022 H 0.77879 0.63705 0.66541 0.0
H1023 H 0.81783 0.66128 0.68525 0.0
H1024 H 0.74115 0.58538 0.6866 0.0
H1025 H 0.72334 0.56336 0.7865 0.0
C1026 C 0.92748 0.61601 0.98129 0.0
C1027 C 0.94268 0.64508 0.92005 0.0
C1028 C 0.98791 0.64333 0.96373 0.0
C1029 C 0.97307 0.61563 1.02817 0.0
N1030 N 0.92654 0.56685 0.07457 0.0
N1031 N 0.98572 0.68177 0.83887 0.0
C1032 C 0.94197 0.59868 1.028 0.0
C1033 C 0.97233 0.65709 0.90648 0.0
N1034 N 0.89986 0.60656 0.99959 0.0
N1035 N 0.01756 0.65776 0.96156 0.0
H1036 H 0.97676 0.69611 0.80466 0.0
H1037 H 1.00521 0.68718 0.81357 0.0
H1038 H 0.02865 0.64542 0.99454 0.0
H1039 H 0.03151 0.68257 0.93089 0.0
H1040 H 0.88921 0.58954 1.05412 0.0
H1041 H 0.8883 0.61787 0.96467 0.0
H1042 H 0.90323 0.55089 1.06879 0.0
H1043 H 0.93664 0.5542 0.11206 0.0
C1044 C 0.50133 0.37709 0.90215 0.0
C1045 C 0.52497 0.38988 0.99062 0.0
C1046 C 0.50158 0.31678 0.98823 0.0
C1047 C 0.47478 0.3046 0.91423 0.0
N1048 N 0.44844 0.32939 0.82113 0.0
N1049 N 0.54368 0.36875 0.12781 0.0
C1050 C 0.47458 0.33667 0.87715 0.0
C1051 C 0.5237 0.3587 1.03693 0.0
N1052 N 0.5048 0.40296 0.83798 0.0
N1053 N 0.50769 0.28891 1.00499 0.0
H1054 H 0.55949 0.39844 0.16569 0.0
H1055 H 0.54254 0.34765 0.16968 0.0
H1056 H 0.49483 0.26015 0.95867 0.0
H1057 H 0.52778 0.29602 1.05123 0.0
H1058 H 0.48974 0.39453 0.76715 0.0
H1059 H 0.52467 0.43112 0.84897 0.0
H1060 H 0.44668 0.35154 0.7944 0.0
H1061 H 0.42771 0.30265 0.81375 0.0
C1062 C 0.82025 0.20543 0.86009 0.0
C1063 C 0.82312 0.17207 0.85688 0.0
C1064 C 0.77237 0.1353 0.9068 0.0
C1065 C 0.76875 0.16773 0.90039 0.0
N1066 N 0.78779 0.23085 0.84946 0.0
N1067 N 0.79899 0.10273 0.86778 0.0
C1068 C 0.79214 0.20157 0.869 0.0
C1069 C 0.79826 0.13627 0.87747 0.0
N1070 N 0.84539 0.24224 0.86568 0.0
N1071 N 0.75146 0.10394 0.94513 0.0
H1072 H 0.8176 0.1024 0.85154 0.0
H1073 H 0.78043 0.07456 0.86858 0.0
H1074 H 0.73177 0.1013 0.96144 0.0
H1075 H 0.75431 0.08182 0.96584 0.0
H1076 H 0.84593 0.26861 0.88073 0.0
H1077 H 0.86651 0.2466 0.86869 0.0
H1078 H 0.80262 0.25447 0.81654 0.0
H1079 H 0.7678 0.22913 0.8562 0.0
C1080 C 0.65804 0.0741 0.13064 0.0
C1081 C 0.63085 0.05143 1.05093 0.0
C1082 C 0.63113 0.99096 1.06859 0.0
C1083 C 0.658 0.01354 0.14757 0.0
N1084 N 0.7029 0.07905 0.21725 0.0
N1085 N 0.60589 0.99325 0.90702 0.0
C1086 C 0.67314 0.05586 0.16795 0.0
C1087 C 0.62141 1.01118 1.0086 0.0
N1088 N 0.67064 0.11363 0.16909 0.0
N1089 N 0.61428 0.95025 1.0512 0.0
H1090 H 0.60294 1.00882 0.85378 0.0
H1091 H 0.60064 0.96514 0.87133 0.0
H1092 H 0.61928 0.93424 0.09708 0.0
H1093 H 0.59374 0.93282 0.99763 0.0
H1094 H 0.68666 0.12936 0.23934 0.0
H1095 H 0.666 0.13086 0.12848 0.0
H1096 H 0.71618 0.10999 0.22508 0.0
H1097 H 0.71532 0.06695 0.23858 0.0
C1098 C 0.14958 0.69442 0.44682 0.0
C1099 C 0.15224 0.71874 0.37035 0.0
C1100 C 0.12275 0.65375 0.23294 0.0
C1101 C 0.11943 0.6293 0.3089 0.0
N1102 N 0.12732 0.62842 0.49387 0.0
N1103 N 0.1311 0.71577 0.19227 0.0
C1104 C 0.13257 0.65051 0.41729 0.0
C1105 C 0.1357 0.69663 0.26446 0.0
N1106 N 0.16178 0.71337 0.55071 0.0
N1107 N 0.11526 0.63658 0.12786 0.0
H1108 H 0.13941 0.74603 0.20774 0.0
H1109 H 0.11615 0.70066 0.11964 0.0
H1110 H 0.10732 0.60665 0.10048 0.0
H1111 H 0.12037 0.65298 1.06837 0.0
H1112 H 0.16448 0.70017 0.6111 0.0
H1113 H 0.16904 0.74304 0.5781 0.0
H1114 H 0.13537 0.64007 0.57457 0.0
H1115 H 0.11297 0.59741 0.47762 0.0
C1116 C 0.43117 0.39533 0.31541 0.0
C1117 C 0.42314 0.41114 0.23594 0.0
C1118 C 0.39188 0.42204 0.34249 0.0
C1119 C 0.40054 0.40726 0.42369 0.0
N1120 N 0.431 0.38435 0.49482 0.0
N1121 N 0.40082 0.44625 0.17951 0.0
C1122 C 0.421 0.39528 0.41234 0.0
C1123 C 0.40478 0.42625 0.25088 0.0
N1124 N 0.44783 0.3794 0.2968 0.0
N1125 N 0.37123 0.43197 0.35278 0.0
H1126 H 0.40978 0.44981 0.11098 0.0
H1127 H 0.39072 0.46214 0.19169 0.0
H1128 H 0.36331 0.43313 0.42232 0.0
H1129 H 0.36069 0.43722 0.29064 0.0
H1130 H 0.45114 0.36265 0.34493 0.0
H1131 H 0.45707 0.38097 0.2292 0.0
H1132 H 0.44908 0.38093 0.49759 0.0
H1133 H 0.42224 0.38057 0.56372 0.0
C1134 C 0.85414 0.7397 0.5594 0.0
C1135 C 0.85266 0.70395 0.52266 0.0
C1136 C 0.82013 0.69385 0.3588 0.0
C1137 C 0.82989 0.73454 0.38379 0.0
N1138 N 0.859 0.79805 0.50898 0.0
N1139 N 0.83526 0.64807 0.37721 0.0
C1140 C 0.84757 0.75809 0.48478 0.0
C1141 C 0.83528 0.68061 0.4205 0.0
N1142 N 0.86019 0.755 0.66514 0.0
N1143 N 0.79685 0.66814 0.27577 0.0
H1144 H 0.84943 0.64023 0.41084 0.0
H1145 H 0.82377 0.63152 0.30106 0.0
H1146 H 0.78522 0.67703 0.22914 0.0
H1147 H 0.78698 0.63733 0.26166 0.0
H1148 H 0.85919 0.77944 0.69449 0.0
H1149 H 0.86286 0.74067 0.72279 0.0
H1150 H 0.87418 0.81656 0.5794 0.0
H1151 H 0.85563 0.81322 0.45524 0.0
C1152 C 0.33147 0.0275 0.64586 0.0
C1153 C 0.33145 0.0587 0.60243 0.0
C1154 C 0.28326 1.00294 0.47891 0.0
C1155 C 0.28173 0.97288 0.5314 0.0
N1156 N 0.30113 0.96223 0.69081 0.0
N1157 N 0.29869 0.07234 0.50118 0.0
C1158 C 0.30482 0.987 0.62285 0.0
C1159 C 0.30503 0.04525 0.52439 0.0
N1160 N 0.35738 0.03555 0.70598 0.0
N1161 N 0.26348 0.99147 0.38624 0.0
H1162 H 0.31081 0.10125 0.54625 0.0
H1163 H 0.27887 0.06447 0.45144 0.0
H1164 H 0.24733 0.96148 0.35188 0.0
H1165 H 0.2649 1.0116 0.34005 0.0
H1166 H 0.35899 0.01399 0.73717 0.0
H1167 H 0.37818 0.06207 0.71242 0.0
H1168 H 0.3157 0.97175 0.7636 0.0
H1169 H 0.28162 0.93374 0.67994 0.0
C1170 C 0.9823 0.15389 0.64039 0.0
C1171 C 0.97802 0.18617 0.65465 0.0
C1172 C 0.02967 0.22951 0.61631 0.0
C1173 C 0.0342 0.19728 0.60613 0.0
N1174 N 0.01577 0.13024 0.62725 0.0
N1175 N 0.99723 0.25439 0.6452 0.0
C1176 C 1.01085 0.16011 0.62468 0.0
C1177 C 1.00176 0.22394 0.63968 0.0
N1178 N 0.95796 0.1161 0.63152 0.0
N1179 N 0.05247 0.26576 0.60287 0.0
H1180 H 0.97669 0.25048 0.65442 0.0
H1181 H 0.01327 0.28353 0.64077 0.0
H1182 H 0.07361 0.27139 0.59557 0.0
H1183 H 0.05119 0.29047 0.60028 0.0
H1184 H 0.95786 0.09041 0.60791 0.0
H1185 H 0.93686 0.11057 0.63702 0.0
H1186 H 1.00151 0.10431 0.65348 0.0
H1187 H 0.03551 0.13288 0.61216 0.0
C1188 C 0.3272 0.22987 0.71218 0.0
C1189 C 0.3285 0.20023 0.64337 0.0
C1190 C 0.28089 0.18814 0.5286 0.0
C1191 C 0.27851 0.21499 0.6047 0.0
N1192 N 0.29609 0.25002 0.78658 0.0
N1193 N 0.30802 0.15864 0.46672 0.0
C1194 C 0.30081 0.23241 0.70094 0.0
C1195 C 0.30543 0.18114 0.54682 0.0
N1196 N 0.35253 0.2589 0.78407 0.0
N1197 N 0.25916 0.16805 0.43831 0.0
H1198 H 0.32442 0.15226 0.4729 0.0
H1199 H 0.29579 0.14903 0.38962 0.0
H1200 H 0.24346 0.17486 0.41498 0.0
H1201 H 0.25534 0.14292 0.38856 0.0
H1202 H 0.3542 0.28351 0.82878 0.0
H1203 H 0.37329 0.26203 0.78742 0.0
H1204 H 0.31103 0.26351 0.85918 0.0
H1205 H 0.27526 0.24619 0.78954 0.0
C1206 C 0.78637 0.99747 0.53386 0.0
C1207 C 0.79258 0.97977 0.44555 0.0
C1208 C 0.84463 0.0414 0.49205 0.0
C1209 C 0.83714 0.06162 0.56771 0.0
N1210 N 0.79591 0.05938 0.63465 0.0
N1211 N 0.82682 0.99614 0.32327 0.0
C1212 C 0.8065 0.03973 0.58087 0.0
C1213 C 0.82148 1.00493 0.41993 0.0
N1214 N 0.76244 0.97424 0.57841 0.0
N1215 N 0.87404 0.05549 0.49108 0.0
H1216 H 0.80995 0.9739 0.26105 0.0
H1217 H 0.84696 0.01526 0.30051 0.0
H1218 H 0.89162 0.08191 0.54062 0.0
H1219 H 0.88041 0.03857 0.44779 0.0
H1220 H 0.75853 0.98547 0.64716 0.0
H1221 H 0.74914 0.94324 0.55634 0.0
H1222 H 0.77322 0.04573 0.63946 0.0
H1223 H 0.80903 0.0903 0.66213 0.0
C1224 C 0.97993 0.68923 0.57188 0.0
C1225 C 0.96451 0.70909 0.5726 0.0
C1226 C 1.00707 0.76644 0.52257 0.0
C1227 C 0.02228 0.74638 0.51968 0.0
N1228 N 0.02544 0.6909 0.54908 0.0
N1229 N 0.95969 0.76134 0.52593 0.0
C1230 C 1.00927 0.70829 0.54668 0.0
C1231 C 0.97717 0.74638 0.54203 0.0
N1232 N 0.96605 0.65178 0.5931 0.0
N1233 N 0.02142 0.80473 0.50689 0.0
H1234 H 0.93694 0.74538 0.53096 0.0
H1235 H 0.96651 0.78721 0.49735 0.0
H1236 H 0.04333 0.81997 0.49258 0.0
H1237 H 0.01268 0.82243 0.51468 0.0
H1238 H 0.97506 0.63439 0.59236 0.0
H1239 H 0.94422 0.63694 0.60722 0.0
H1240 H 0.01825 0.6636 0.56986 0.0
H1241 H 0.04731 0.705 0.53437 0.0
loop_
_geom_bond_atom_site_label_1
_geom_bond_atom_site_label_2
_geom_bond_distance
_geom_bond_site_symmetry_2
_ccdc_geom_bond_type
C0 C2 1.422 . S
C0 C4 1.415 . S
C0 N6 1.369 . S
C1 C2 1.421 . S
C1 C3 1.417 . S
C1 C13 1.422 . S
C2 C0 1.422 . S
C2 C1 1.421 . S
C2 N12 1.359 . S
C3 C1 1.417 . S
C3 C5 1.329 . S
C3 H22 0.930 . S
C4 C0 1.415 . S
C4 C5 1.437 . S
C4 C8 1.413 . S
C5 C3 1.329 . S
C5 C4 1.437 . S
C5 H27 0.929 . S
N6 C0 1.369 . S
N6 C7 1.338 . S
N6 Gd11 2.622 . S
C7 N6 1.338 . S
C7 C9 1.378 1_554 S
C7 H19 0.929 1_554 S
C8 C4 1.413 . S
C8 C9 1.348 1_554 S
C8 H24 0.931 . S
C9 C7 1.378 1_556 S
C9 C8 1.348 1_556 S
C9 H25 0.930 . S
Gd10 N30 2.622 . S
Gd10 N37 2.570 . S
Gd10 O44 2.353 1_655 S
Gd10 O45 2.468 . S
Gd10 O46 2.427 . S
Gd10 O48 2.388 1_655 S
Gd10 O49 2.386 . S
Gd10 O53 2.307 1_655 S
Gd10 C63 2.805 . S
Gd11 N6 2.622 . S
Gd11 N12 2.570 . S
Gd11 O43 2.386 . S
Gd11 O47 2.307 . S
Gd11 O50 2.353 . S
Gd11 O51 2.468 . S
Gd11 O52 2.427 . S
Gd11 O54 2.388 1_554 S
Gd11 C75 2.805 . S
N12 C2 1.359 . S
N12 Gd11 2.570 . S
N12 C14 1.343 . S
C13 C1 1.422 . S
C13 C15 1.321 . S
C13 H21 0.931 . S
C14 N12 1.343 . S
C14 C15 1.390 . S
C14 H16 0.931 . S
C15 C13 1.321 . S
C15 C14 1.390 . S
C15 H17 0.930 . S
H16 C14 0.931 . S
H17 C15 0.930 . S
H18 C41 0.931 . S
H19 C7 0.929 1_556 S
H20 C42 0.930 . S
H21 C13 0.931 . S
H22 C3 0.930 . S
H23 C32 0.929 . S
H24 C8 0.931 . S
H25 C9 0.930 . S
H26 C64 0.930 . S
H27 C5 0.929 . S
H28 C33 0.931 . S
H29 C34 0.930 . S
N30 Gd10 2.622 . S
N30 C31 1.369 . S
N30 C32 1.338 . S
C31 N30 1.369 . S
C31 C35 1.415 . S
C31 C38 1.422 . S
C32 H23 0.929 . S
C32 N30 1.338 . S
C32 C34 1.378 . S
C33 H28 0.931 . S
C33 C34 1.348 . S
C33 C35 1.413 . S
C34 H29 0.930 . S
C34 C32 1.378 . S
C34 C33 1.348 . S
C35 C31 1.415 . S
C35 C33 1.413 . S
C35 C65 1.437 . S
H36 C65 0.929 . S
N37 Gd10 2.570 . S
N37 C38 1.359 . S
N37 C41 1.343 1_554 S
C38 C31 1.422 . S
C38 N37 1.359 . S
C38 C40 1.421 1_554 S
C39 C40 1.422 . S
C39 C42 1.321 . S
C39 H66 0.931 . S
C40 C38 1.421 1_556 S
C40 C39 1.422 . S
C40 C64 1.417 . S
C41 H18 0.931 . S
C41 N37 1.343 1_556 S
C41 C42 1.390 . S
C42 H20 0.930 . S
C42 C39 1.321 . S
C42 C41 1.390 . S
O43 Gd11 2.386 . S
O43 C55 1.265 . S
O44 Gd10 2.353 1_455 S
O44 C55 1.242 . S
O45 Gd10 2.468 . S
O45 C63 1.263 . S
O46 Gd10 2.427 . S
O46 C63 1.252 . S
O47 Gd11 2.307 . S
O47 C56 1.261 . S
O48 Gd10 2.388 1_455 S
O48 C56 1.252 . S
O49 Gd10 2.386 . S
O49 C67 1.265 . S
O50 Gd11 2.353 . S
O50 C67 1.242 1_455 S
O51 Gd11 2.468 . S
O51 C75 1.263 . S
O52 Gd11 2.427 . S
O52 C75 1.252 . S
O53 Gd10 2.307 1_455 S
O53 C68 1.261 1_554 S
O54 Gd11 2.388 1_556 S
O54 C68 1.252 . S
C55 O43 1.265 . S
C55 O44 1.242 . S
C56 O47 1.261 . S
C56 O48 1.252 . S
C57 C60 1.394 . S
C57 C62 1.370 . S
C57 C63 1.500 . S
C58 C61 1.383 1_556 S
C58 C62 1.395 1_556 S
C59 C60 1.396 . S
C59 C61 1.365 . S
C59 H76 0.929 . S
C60 C57 1.394 . S
C60 C59 1.396 . S
C60 H77 0.930 . S
C61 C58 1.383 1_554 S
C61 C59 1.365 . S
C61 H78 0.931 . S
C62 C57 1.370 . S
C62 C58 1.395 1_554 S
C62 H79 0.930 1_554 S
C63 Gd10 2.805 . S
C63 O45 1.263 . S
C63 O46 1.252 . S
C63 C57 1.500 . S
C64 H26 0.930 . S
C64 C40 1.417 . S
C64 C65 1.329 1_556 S
C65 C35 1.437 . S
C65 H36 0.929 . S
C65 C64 1.329 1_554 S
H66 C39 0.931 . S
C67 O49 1.265 . S
C67 O50 1.242 1_655 S
C68 O53 1.261 1_556 S
C68 O54 1.252 . S
C69 C72 1.394 . S
C69 C74 1.370 . S
C69 C75 1.500 . S
C70 C73 1.383 . S
C70 C74 1.395 . S
C71 C72 1.396 . S
C71 C73 1.365 . S
C71 H80 0.929 . S
C72 C69 1.394 . S
C72 C71 1.396 . S
C72 H81 0.930 . S
C73 C70 1.383 . S
C73 C71 1.365 . S
C73 H82 0.931 . S
C74 C69 1.370 . S
C74 C70 1.395 . S
C74 H83 0.930 . S
C75 Gd11 2.805 . S
C75 O51 1.263 . S
C75 O52 1.252 . S
C75 C69 1.500 . S
H76 C59 0.929 . S
H77 C60 0.930 . S
H78 C61 0.931 . S
H79 C62 0.930 1_556 S
H80 C71 0.929 . S
H81 C72 0.930 . S
H82 C73 0.931 . S
H83 C74 0.930 . S
C84 C86 1.422 . S
C84 C88 1.415 . S
C84 N90 1.369 . S
C85 C86 1.421 1_556 S
C85 C87 1.417 . S
C85 C97 1.422 . S
C86 C84 1.422 . S
C86 C85 1.421 1_554 S
C86 N96 1.359 1_554 S
C87 C85 1.417 . S
C87 C89 1.329 1_556 S
C87 H106 0.930 . S
C88 C84 1.415 . S
C88 C89 1.437 . S
C88 C92 1.413 . S
C89 C87 1.329 1_554 S
C89 C88 1.437 . S
C89 H111 0.929 . S
N90 C84 1.369 . S
N90 C91 1.338 . S
N90 Gd95 2.622 . S
C91 N90 1.338 . S
C91 C93 1.378 . S
C91 H103 0.929 . S
C92 C88 1.413 . S
C92 C93 1.348 . S
C92 H108 0.931 . S
C93 C91 1.378 . S
C93 C92 1.348 . S
C93 H109 0.930 . S
Gd94 N114 2.622 1_554 S
Gd94 N121 2.570 . S
Gd94 O128 2.353 . S
Gd94 O129 2.468 . S
Gd94 O130 2.427 1_554 S
Gd94 O132 2.388 1_554 S
Gd94 O133 2.386 . S
Gd94 O137 2.307 . S
Gd94 C147 2.805 . S
Gd95 N90 2.622 . S
Gd95 N96 2.570 1_554 S
Gd95 O127 2.386 . S
Gd95 O131 2.307 1_554 S
Gd95 O134 2.353 . S
Gd95 O135 2.468 1_554 S
Gd95 O136 2.427 . S
Gd95 O138 2.388 . S
Gd95 C159 2.805 . S
N96 C86 1.359 1_556 S
N96 Gd95 2.570 1_556 S
N96 C98 1.343 . S
C97 C85 1.422 . S
C97 C99 1.321 . S
C97 H105 0.931 . S
C98 N96 1.343 . S
C98 C99 1.390 . S
C98 H100 0.931 . S
C99 C97 1.321 . S
C99 C98 1.390 . S
C99 H101 0.930 . S
H100 C98 0.931 . S
H101 C99 0.930 . S
H102 C125 0.931 . S
H103 C91 0.929 . S
H104 C126 0.930 . S
H105 C97 0.931 . S
H106 C87 0.930 . S
H107 C116 0.929 . S
H108 C92 0.931 . S
H109 C93 0.930 . S
H110 C148 0.930 . S
H111 C89 0.929 . S
H112 C117 0.931 . S
H113 C118 0.930 . S
N114 Gd94 2.622 1_556 S
N114 C115 1.369 1_556 S
N114 C116 1.338 . S
C115 N114 1.369 1_554 S
C115 C119 1.415 1_554 S
C115 C122 1.422 . S
C116 H107 0.929 . S
C116 N114 1.338 . S
C116 C118 1.378 . S
C117 H112 0.931 . S
C117 C118 1.348 . S
C117 C119 1.413 . S
C118 H113 0.930 . S
C118 C116 1.378 . S
C118 C117 1.348 . S
C119 C115 1.415 1_556 S
C119 C117 1.413 . S
C119 C149 1.437 1_556 S
H120 C149 0.929 . S
N121 Gd94 2.570 . S
N121 C122 1.359 . S
N121 C125 1.343 . S
C122 C115 1.422 . S
C122 N121 1.359 . S
C122 C124 1.421 . S
C123 C124 1.422 . S
C123 C126 1.321 . S
C123 H150 0.931 . S
C124 C122 1.421 . S
C124 C123 1.422 . S
C124 C148 1.417 . S
C125 H102 0.931 . S
C125 N121 1.343 . S
C125 C126 1.390 . S
C126 H104 0.930 . S
C126 C123 1.321 . S
C126 C125 1.390 . S
O127 Gd95 2.386 . S
O127 C139 1.265 . S
O128 Gd94 2.353 . S
O128 C139 1.242 . S
O129 Gd94 2.468 . S
O129 C147 1.263 . S
O130 Gd94 2.427 1_556 S
O130 C147 1.252 1_556 S
O131 Gd95 2.307 1_556 S
O131 C140 1.261 . S
O132 Gd94 2.388 1_556 S
O132 C140 1.252 . S
O133 Gd94 2.386 . S
O133 C151 1.265 . S
O134 Gd95 2.353 . S
O134 C151 1.242 . S
O135 Gd95 2.468 1_556 S
O135 C159 1.263 1_556 S
O136 Gd95 2.427 . S
O136 C159 1.252 . S
O137 Gd94 2.307 . S
O137 C152 1.261 . S
O138 Gd95 2.388 . S
O138 C152 1.252 . S
C139 O127 1.265 . S
C139 O128 1.242 . S
C140 O131 1.261 . S
C140 O132 1.252 . S
C141 C144 1.394 1_554 S
C141 C146 1.370 . S
C141 C147 1.500 . S
C142 C145 1.383 . S
C142 C146 1.395 . S
C143 C144 1.396 1_554 S
C143 C145 1.365 . S
C143 H160 0.929 1_554 S
C144 C141 1.394 1_556 S
C144 C143 1.396 1_556 S
C144 H161 0.930 . S
C145 C142 1.383 . S
C145 C143 1.365 . S
C145 H162 0.931 . S
C146 C141 1.370 . S
C146 C142 1.395 . S
C146 H163 0.930 . S
C147 Gd94 2.805 . S
C147 O129 1.263 . S
C147 O130 1.252 1_554 S
C147 C141 1.500 . S
C148 H110 0.930 . S
C148 C124 1.417 . S
C148 C149 1.329 . S
C149 C119 1.437 1_554 S
C149 H120 0.929 . S
C149 C148 1.329 . S
H150 C123 0.931 . S
C151 O133 1.265 . S
C151 O134 1.242 . S
C152 O137 1.261 . S
C152 O138 1.252 . S
C153 C156 1.394 . S
C153 C158 1.370 1_554 S
C153 C159 1.500 . S
C154 C157 1.383 1_556 S
C154 C158 1.395 . S
C155 C156 1.396 . S
C155 C157 1.365 . S
C155 H164 0.929 . S
C156 C153 1.394 . S
C156 C155 1.396 . S
C156 H165 0.930 . S
C157 C154 1.383 1_554 S
C157 C155 1.365 . S
C157 H166 0.931 . S
C158 C153 1.370 1_556 S
C158 C154 1.395 . S
C158 H167 0.930 . S
C159 Gd95 2.805 . S
C159 O135 1.263 1_554 S
C159 O136 1.252 . S
C159 C153 1.500 . S
H160 C143 0.929 1_556 S
H161 C144 0.930 . S
H162 C145 0.931 . S
H163 C146 0.930 . S
H164 C155 0.929 . S
H165 C156 0.930 . S
H166 C157 0.931 . S
H167 C158 0.930 . S
C168 C170 1.422 . S
C168 C172 1.415 . S
C168 N174 1.369 . S
C169 C170 1.421 1_554 S
C169 C171 1.417 1_554 S
C169 C181 1.422 . S
C170 C168 1.422 . S
C170 C169 1.421 1_556 S
C170 N180 1.359 1_556 S
C171 C169 1.417 1_556 S
C171 C173 1.329 . S
C171 H190 0.926 1_556 S
C172 C168 1.415 . S
C172 C173 1.437 . S
C172 C176 1.413 . S
C173 C171 1.329 . S
C173 C172 1.437 . S
C173 H195 0.929 . S
N174 C168 1.369 . S
N174 C175 1.338 . S
N174 Gd179 2.622 1_565 S
C175 N174 1.338 . S
C175 C177 1.378 . S
C175 H187 0.929 . S
C176 C172 1.413 . S
C176 C177 1.348 . S
C176 H192 0.931 . S
C177 C175 1.378 . S
C177 C176 1.348 . S
C177 H193 0.930 . S
Gd178 N198 2.622 . S
Gd178 N205 2.570 1_554 S
Gd178 O212 2.353 . S
Gd178 O213 2.468 1_554 S
Gd178 O214 2.427 . S
Gd178 O216 2.388 . S
Gd178 O217 2.386 . S
Gd178 O221 2.307 1_554 S
Gd178 C231 2.805 . S
Gd179 N174 2.622 1_545 S
Gd179 N180 2.570 1_546 S
Gd179 O211 2.386 . S
Gd179 O215 2.307 1_556 S
Gd179 O218 2.353 . S
Gd179 O219 2.468 1_556 S
Gd179 O220 2.427 . S
Gd179 O222 2.388 . S
Gd179 C243 2.805 . S
N180 C170 1.359 1_554 S
N180 Gd179 2.570 1_564 S
N180 C182 1.343 . S
C181 C169 1.422 . S
C181 C183 1.321 . S
C181 H189 0.931 . S
C182 N180 1.343 . S
C182 C183 1.390 . S
C182 H184 0.931 1_565 S
C183 C181 1.321 . S
C183 C182 1.390 . S
C183 H185 0.930 . S
H184 C182 0.931 1_545 S
H185 C183 0.930 . S
H186 C209 0.931 . S
H187 C175 0.929 . S
H188 C210 0.930 . S
H189 C181 0.931 . S
H190 C171 0.926 1_554 S
H191 C200 0.929 . S
H192 C176 0.931 . S
H193 C177 0.930 . S
H194 C232 0.930 . S
H195 C173 0.929 . S
H196 C201 0.931 . S
H197 C202 0.930 . S
N198 Gd178 2.622 . S
N198 C199 1.369 . S
N198 C200 1.338 . S
C199 N198 1.369 . S
C199 C203 1.415 . S
C199 C206 1.422 . S
C200 H191 0.929 . S
C200 N198 1.338 . S
C200 C202 1.378 . S
C201 H196 0.931 . S
C201 C202 1.348 . S
C201 C203 1.413 . S
C202 H197 0.930 . S
C202 C200 1.378 . S
C202 C201 1.348 . S
C203 C199 1.415 . S
C203 C201 1.413 . S
C203 C233 1.437 . S
H204 C233 0.929 . S
N205 Gd178 2.570 1_556 S
N205 C206 1.359 1_556 S
N205 C209 1.343 . S
C206 C199 1.422 . S
C206 N205 1.359 1_554 S
C206 C208 1.421 1_554 S
C207 C208 1.422 . S
C207 C210 1.321 . S
C207 H234 0.931 . S
C208 C206 1.421 1_556 S
C208 C207 1.422 . S
C208 C232 1.417 1_556 S
C209 H186 0.931 . S
C209 N205 1.343 . S
C209 C210 1.390 . S
C210 H188 0.930 . S
C210 C207 1.321 . S
C210 C209 1.390 . S
O211 Gd179 2.386 . S
O211 C223 1.265 1_556 S
O212 Gd178 2.353 . S
O212 C223 1.242 . S
O213 Gd178 2.468 1_556 S
O213 C231 1.263 1_556 S
O214 Gd178 2.427 . S
O214 C231 1.252 . S
O215 Gd179 2.307 1_554 S
O215 C224 1.261 . S
O216 Gd178 2.388 . S
O216 C224 1.252 . S
O217 Gd178 2.386 . S
O217 C235 1.267 . S
O218 Gd179 2.353 . S
O218 C235 1.242 1_556 S
O219 Gd179 2.468 1_554 S
O219 C243 1.263 1_554 S
O220 Gd179 2.427 . S
O220 C243 1.252 . S
O221 Gd178 2.307 1_556 S
O221 C236 1.261 . S
O222 Gd179 2.388 . S
O222 C236 1.252 . S
C223 O211 1.265 1_554 S
C223 O212 1.242 . S
C224 O215 1.261 . S
C224 O216 1.252 . S
C225 C228 1.394 . S
C225 C230 1.370 1_554 S
C225 C231 1.500 . S
C226 C229 1.383 1_556 S
C226 C230 1.395 . S
C227 C228 1.396 . S
C227 C229 1.365 . S
C227 H244 0.929 . S
C228 C225 1.394 . S
C228 C227 1.396 . S
C228 H245 0.930 . S
C229 C226 1.383 1_554 S
C229 C227 1.365 . S
C229 H246 0.931 . S
C230 C225 1.370 1_556 S
C230 C226 1.395 . S
C230 H247 0.930 . S
C231 Gd178 2.805 . S
C231 O213 1.263 1_554 S
C231 O214 1.252 . S
C231 C225 1.500 . S
C232 H194 0.930 . S
C232 C208 1.417 1_554 S
C232 C233 1.329 . S
C233 C203 1.437 . S
C233 H204 0.929 . S
C233 C232 1.329 . S
H234 C207 0.931 . S
C235 O217 1.267 . S
C235 O218 1.242 1_554 S
C236 O221 1.261 . S
C236 O222 1.252 . S
C237 C240 1.394 . S
C237 C242 1.369 1_566 S
C237 C243 1.501 1_565 S
C238 C241 1.383 1_554 S
C238 C242 1.395 1_565 S
C239 C240 1.396 . S
C239 C241 1.365 . S
C239 H248 0.929 . S
C240 C237 1.394 . S
C240 C239 1.396 . S
C240 H249 0.930 . S
C241 C238 1.383 1_556 S
C241 C239 1.365 . S
C241 H250 0.931 . S
C242 C237 1.369 1_544 S
C242 C238 1.395 1_545 S
C242 H251 0.930 . S
C243 Gd179 2.805 . S
C243 O219 1.263 1_556 S
C243 O220 1.252 . S
C243 C237 1.501 1_545 S
H244 C227 0.929 . S
H245 C228 0.930 . S
H246 C229 0.931 . S
H247 C230 0.930 . S
H248 C239 0.929 . S
H249 C240 0.930 . S
H250 C241 0.931 . S
H251 C242 0.930 . S
C252 C254 1.422 . S
C252 C256 1.415 . S
C252 N258 1.369 . S
C253 C254 1.421 . S
C253 C255 1.417 . S
C253 C265 1.422 . S
C254 C252 1.422 . S
C254 C253 1.421 . S
C254 N264 1.359 . S
C255 C253 1.417 . S
C255 C257 1.329 . S
C255 H274 0.930 1_565 S
C256 C252 1.415 . S
C256 C257 1.437 . S
C256 C260 1.413 . S
C257 C255 1.329 . S
C257 C256 1.437 . S
C257 H279 0.929 1_565 S
N258 C252 1.369 . S
N258 C259 1.338 . S
N258 Gd263 2.622 . S
C259 N258 1.338 . S
C259 C261 1.378 . S
C259 H271 0.929 . S
C260 C256 1.413 . S
C260 C261 1.348 . S
C260 H276 0.931 . S
C261 C259 1.378 . S
C261 C260 1.348 . S
C261 H277 0.930 1_554 S
Gd262 N282 2.622 . S
Gd262 N289 2.570 . S
Gd262 O296 2.353 . S
Gd262 O297 2.468 . S
Gd262 O298 2.427 . S
Gd262 O300 2.388 . S
Gd262 O301 2.386 . S
Gd262 O305 2.307 . S
Gd262 C315 2.805 . S
Gd263 N258 2.622 . S
Gd263 N264 2.570 . S
Gd263 O295 2.386 . S
Gd263 O299 2.307 . S
Gd263 O302 2.353 . S
Gd263 O303 2.468 . S
Gd263 O304 2.427 . S
Gd263 O306 2.388 . S
Gd263 C327 2.805 . S
N264 C254 1.359 . S
N264 Gd263 2.570 . S
N264 C266 1.343 . S
C265 C253 1.422 . S
C265 C267 1.321 . S
C265 H273 0.931 . S
C266 N264 1.343 . S
C266 C267 1.390 . S
C266 H268 0.931 . S
C267 C265 1.321 . S
C267 C266 1.390 . S
C267 H269 0.930 . S
H268 C266 0.931 . S
H269 C267 0.930 . S
H270 C293 0.931 . S
H271 C259 0.929 . S
H272 C294 0.930 . S
H273 C265 0.931 . S
H274 C255 0.930 1_545 S
H275 C284 0.929 . S
H276 C260 0.931 . S
H277 C261 0.930 1_556 S
H278 C316 0.930 . S
H279 C257 0.929 1_545 S
H280 C285 0.931 . S
H281 C286 0.930 . S
N282 Gd262 2.622 . S
N282 C283 1.369 . S
N282 C284 1.338 . S
C283 N282 1.369 . S
C283 C287 1.415 . S
C283 C290 1.422 . S
C284 H275 0.929 . S
C284 N282 1.338 . S
C284 C286 1.378 . S
C285 H280 0.931 . S
C285 C286 1.348 . S
C285 C287 1.413 . S
C286 H281 0.930 . S
C286 C284 1.378 . S
C286 C285 1.348 . S
C287 C283 1.415 . S
C287 C285 1.413 . S
C287 C317 1.437 . S
H288 C317 0.929 . S
N289 Gd262 2.570 . S
N289 C290 1.359 . S
N289 C293 1.343 1_554 S
C290 C283 1.422 . S
C290 N289 1.359 . S
C290 C292 1.421 . S
C291 C292 1.422 1_556 S
C291 C294 1.321 . S
C291 H318 0.931 . S
C292 C290 1.421 . S
C292 C291 1.422 1_554 S
C292 C316 1.417 . S
C293 H270 0.931 . S
C293 N289 1.343 1_556 S
C293 C294 1.390 . S
C294 H272 0.930 . S
C294 C291 1.321 . S
C294 C293 1.390 . S
O295 Gd263 2.386 . S
O295 C307 1.265 . S
O296 Gd262 2.353 . S
O296 C307 1.242 . S
O297 Gd262 2.468 . S
O297 C315 1.263 . S
O298 Gd262 2.427 . S
O298 C315 1.252 . S
O299 Gd263 2.307 . S
O299 C308 1.261 . S
O300 Gd262 2.388 . S
O300 C308 1.252 . S
O301 Gd262 2.386 . S
O301 C319 1.265 . S
O302 Gd263 2.353 . S
O302 C319 1.242 . S
O303 Gd263 2.468 . S
O303 C327 1.263 . S
O304 Gd263 2.427 . S
O304 C327 1.252 . S
O305 Gd262 2.307 . S
O305 C320 1.261 . S
O306 Gd263 2.388 . S
O306 C320 1.252 . S
C307 O295 1.265 . S
C307 O296 1.242 . S
C308 O299 1.261 . S
C308 O300 1.252 . S
C309 C312 1.394 . S
C309 C314 1.370 . S
C309 C315 1.500 . S
C310 C313 1.383 . S
C310 C314 1.395 . S
C311 C312 1.396 . S
C311 C313 1.365 . S
C311 H328 0.929 . S
C312 C309 1.394 . S
C312 C311 1.396 . S
C312 H329 0.930 . S
C313 C310 1.383 . S
C313 C311 1.365 . S
C313 H330 0.902 1_565 S
C314 C309 1.370 . S
C314 C310 1.395 . S
C314 H331 0.930 . S
C315 Gd262 2.805 . S
C315 O297 1.263 . S
C315 O298 1.252 . S
C315 C309 1.500 . S
C316 H278 0.930 . S
C316 C292 1.417 . S
C316 C317 1.329 . S
C317 C287 1.437 . S
C317 H288 0.929 . S
C317 C316 1.329 . S
H318 C291 0.931 . S
C319 O301 1.265 . S
C319 O302 1.242 . S
C320 O305 1.261 . S
C320 O306 1.252 . S
C321 C324 1.394 . S
C321 C326 1.370 . S
C321 C327 1.500 . S
C322 C325 1.383 . S
C322 C326 1.395 . S
C323 C324 1.396 . S
C323 C325 1.365 . S
C323 H332 0.929 . S
C324 C321 1.394 . S
C324 C323 1.396 . S
C324 H333 0.930 . S
C325 C322 1.383 . S
C325 C323 1.365 . S
C325 H334 0.931 . S
C326 C321 1.370 . S
C326 C322 1.395 . S
C326 H335 0.930 . S
C327 Gd263 2.805 . S
C327 O303 1.263 . S
C327 O304 1.252 . S
C327 C321 1.500 . S
H328 C311 0.929 . S
H329 C312 0.930 . S
H330 C313 0.902 1_545 S
H331 C314 0.930 . S
H332 C323 0.929 . S
H333 C324 0.930 . S
H334 C325 0.931 . S
H335 C326 0.930 . S
C336 C338 1.422 . S
C336 C340 1.415 . S
C336 N342 1.369 . S
C337 C338 1.421 . S
C337 C339 1.417 . S
C337 C349 1.422 . S
C338 C336 1.422 . S
C338 C337 1.421 . S
C338 N348 1.359 . S
C339 C337 1.417 . S
C339 C341 1.329 . S
C339 H358 0.930 . S
C340 C336 1.415 . S
C340 C341 1.437 . S
C340 C344 1.413 . S
C341 C339 1.329 . S
C341 C340 1.437 . S
C341 H363 0.929 . S
N342 C336 1.369 . S
N342 C343 1.338 . S
N342 Gd347 2.622 . S
C343 N342 1.338 . S
C343 C345 1.378 . S
C343 H355 0.929 . S
C344 C340 1.413 . S
C344 C345 1.348 . S
C344 H360 0.931 . S
C345 C343 1.378 . S
C345 C344 1.348 . S
C345 H361 0.930 . S
Gd346 N366 2.622 . S
Gd346 N373 2.570 . S
Gd346 O380 2.353 . S
Gd346 O381 2.468 . S
Gd346 O382 2.427 . S
Gd346 O384 2.388 . S
Gd346 O385 2.386 . S
Gd346 O389 2.307 . S
Gd346 C399 2.805 . S
Gd347 N342 2.622 . S
Gd347 N348 2.570 . S
Gd347 O379 2.386 . S
Gd347 O383 2.307 . S
Gd347 O386 2.353 . S
Gd347 O387 2.468 . S
Gd347 O388 2.427 . S
Gd347 O390 2.388 . S
Gd347 C411 2.805 . S
N348 C338 1.359 . S
N348 Gd347 2.570 . S
N348 C350 1.343 . S
C349 C337 1.422 . S
C349 C351 1.321 . S
C349 H357 0.931 . S
C350 N348 1.343 . S
C350 C351 1.390 . S
C350 H352 0.931 . S
C351 C349 1.321 . S
C351 C350 1.390 . S
C351 H353 0.930 1_554 S
H352 C350 0.931 . S
H353 C351 0.930 1_556 S
H354 C377 0.931 . S
H355 C343 0.929 . S
H356 C378 0.930 . S
H357 C349 0.931 . S
H358 C339 0.930 . S
H359 C368 0.929 . S
H360 C344 0.931 . S
H361 C345 0.930 . S
H362 C400 0.930 1_545 S
H363 C341 0.929 . S
H364 C369 0.931 . S
H365 C370 0.921 1_556 S
N366 Gd346 2.622 . S
N366 C367 1.369 . S
N366 C368 1.338 . S
C367 N366 1.369 . S
C367 C371 1.415 . S
C367 C374 1.422 . S
C368 H359 0.929 . S
C368 N366 1.338 . S
C368 C370 1.378 . S
C369 H364 0.931 . S
C369 C370 1.348 . S
C369 C371 1.413 . S
C370 H365 0.921 1_554 S
C370 C368 1.378 . S
C370 C369 1.348 . S
C371 C367 1.415 . S
C371 C369 1.413 . S
C371 C401 1.437 . S
H372 C401 0.929 1_545 S
N373 Gd346 2.570 . S
N373 C374 1.359 . S
N373 C377 1.343 . S
C374 C367 1.422 . S
C374 N373 1.359 . S
C374 C376 1.421 . S
C375 C376 1.422 . S
C375 C378 1.321 . S
C375 H402 0.931 . S
C376 C374 1.421 . S
C376 C375 1.422 . S
C376 C400 1.417 . S
C377 H354 0.931 . S
C377 N373 1.343 . S
C377 C378 1.390 . S
C378 H356 0.930 . S
C378 C375 1.321 . S
C378 C377 1.390 . S
O379 Gd347 2.386 . S
O379 C391 1.265 . S
O380 Gd346 2.353 . S
O380 C391 1.242 . S
O381 Gd346 2.468 . S
O381 C399 1.263 . S
O382 Gd346 2.427 . S
O382 C399 1.252 . S
O383 Gd347 2.307 . S
O383 C392 1.261 . S
O384 Gd346 2.388 . S
O384 C392 1.252 . S
O385 Gd346 2.386 . S
O385 C403 1.265 . S
O386 Gd347 2.353 . S
O386 C403 1.242 . S
O387 Gd347 2.468 . S
O387 C411 1.263 . S
O388 Gd347 2.427 . S
O388 C411 1.252 . S
O389 Gd346 2.307 . S
O389 C404 1.261 . S
O390 Gd347 2.388 . S
O390 C404 1.252 . S
C391 O379 1.265 . S
C391 O380 1.242 . S
C392 O383 1.261 . S
C392 O384 1.252 . S
C393 C396 1.394 . S
C393 C398 1.370 . S
C393 C399 1.500 . S
C394 C397 1.383 1_455 S
C394 C398 1.395 . S
C395 C396 1.396 1_655 S
C395 C397 1.365 . S
C395 H412 0.929 . S
C396 C393 1.394 . S
C396 C395 1.396 1_455 S
C396 H413 0.930 . S
C397 C394 1.383 1_655 S
C397 C395 1.365 . S
C397 H414 0.931 . S
C398 C393 1.370 . S
C398 C394 1.395 . S
C398 H415 0.930 . S
C399 Gd346 2.805 . S
C399 O381 1.263 . S
C399 O382 1.252 . S
C399 C393 1.500 . S
C400 H362 0.930 1_565 S
C400 C376 1.417 . S
C400 C401 1.329 . S
C401 C371 1.437 . S
C401 H372 0.929 1_565 S
C401 C400 1.329 . S
H402 C375 0.931 . S
C403 O385 1.265 . S
C403 O386 1.242 . S
C404 O389 1.261 . S
C404 O390 1.252 . S
C405 C408 1.394 . S
C405 C410 1.370 . S
C405 C411 1.500 . S
C406 C409 1.383 . S
C406 C410 1.395 . S
C407 C408 1.396 . S
C407 C409 1.365 . S
C407 H416 0.929 . S
C408 C405 1.394 . S
C408 C407 1.396 . S
C408 H417 0.930 . S
C409 C406 1.383 . S
C409 C407 1.365 . S
C409 H418 0.931 . S
C410 C405 1.370 . S
C410 C406 1.395 . S
C410 H419 0.930 . S
C411 Gd347 2.805 . S
C411 O387 1.263 . S
C411 O388 1.252 . S
C411 C405 1.500 . S
H412 C395 0.929 . S
H413 C396 0.930 . S
H414 C397 0.931 . S
H415 C398 0.930 . S
H416 C407 0.929 . S
H417 C408 0.930 . S
H418 C409 0.931 . S
H419 C410 0.930 . S
C420 C422 1.422 . S
C420 C424 1.415 . S
C420 N426 1.369 . S
C421 C422 1.421 . S
C421 C423 1.417 . S
C421 C433 1.422 . S
C422 C420 1.422 . S
C422 C421 1.421 . S
C422 N432 1.359 . S
C423 C421 1.417 . S
C423 C425 1.329 . S
C423 H442 0.916 1_545 S
C424 C420 1.415 . S
C424 C425 1.437 . S
C424 C428 1.413 . S
C425 C423 1.329 . S
C425 C424 1.437 . S
C425 H447 0.929 1_545 S
N426 C420 1.369 . S
N426 C427 1.338 . S
N426 Gd431 2.622 . S
C427 N426 1.338 . S
C427 C429 1.378 . S
C427 H439 0.929 . S
C428 C424 1.413 . S
C428 C429 1.348 . S
C428 H444 0.931 . S
C429 C427 1.378 . S
C429 C428 1.348 . S
C429 H445 0.930 1_554 S
Gd430 N450 2.622 . S
Gd430 N457 2.570 . S
Gd430 O464 2.353 . S
Gd430 O465 2.468 . S
Gd430 O466 2.427 . S
Gd430 O468 2.388 . S
Gd430 O469 2.386 . S
Gd430 O473 2.307 . S
Gd430 C483 2.805 . S
Gd431 N426 2.622 . S
Gd431 N432 2.570 . S
Gd431 O463 2.386 . S
Gd431 O467 2.307 . S
Gd431 O470 2.353 . S
Gd431 O471 2.468 . S
Gd431 O472 2.427 . S
Gd431 O474 2.388 . S
Gd431 C495 2.805 . S
N432 C422 1.359 . S
N432 Gd431 2.570 . S
N432 C434 1.343 . S
C433 C421 1.422 . S
C433 C435 1.321 . S
C433 H441 0.931 . S
C434 N432 1.343 . S
C434 C435 1.390 . S
C434 H436 0.931 . S
C435 C433 1.321 . S
C435 C434 1.390 . S
C435 H437 0.930 . S
H436 C434 0.931 . S
H437 C435 0.930 . S
H438 C461 0.931 . S
H439 C427 0.929 . S
H440 C462 0.930 . S
H441 C433 0.931 . S
H442 C423 0.916 1_565 S
H443 C452 0.929 . S
H444 C428 0.931 . S
H445 C429 0.930 1_556 S
H446 C484 0.930 . S
H447 C425 0.929 1_565 S
H448 C453 0.931 . S
H449 C454 0.930 . S
N450 Gd430 2.622 . S
N450 C451 1.369 . S
N450 C452 1.338 . S
C451 N450 1.369 . S
C451 C455 1.415 . S
C451 C458 1.422 . S
C452 H443 0.929 . S
C452 N450 1.338 . S
C452 C454 1.378 . S
C453 H448 0.931 . S
C453 C454 1.348 . S
C453 C455 1.413 . S
C454 H449 0.930 . S
C454 C452 1.378 . S
C454 C453 1.348 . S
C455 C451 1.415 . S
C455 C453 1.413 . S
C455 C485 1.437 . S
H456 C485 0.929 . S
N457 Gd430 2.570 . S
N457 C458 1.359 . S
N457 C461 1.343 . S
C458 C451 1.422 . S
C458 N457 1.359 . S
C458 C460 1.421 . S
C459 C460 1.422 . S
C459 C462 1.321 . S
C459 H486 0.931 . S
C460 C458 1.421 . S
C460 C459 1.422 . S
C460 C484 1.417 . S
C461 H438 0.931 . S
C461 N457 1.343 . S
C461 C462 1.390 . S
C462 H440 0.930 . S
C462 C459 1.321 . S
C462 C461 1.390 . S
O463 Gd431 2.386 . S
O463 C475 1.265 . S
O464 Gd430 2.353 . S
O464 C475 1.242 . S
O465 Gd430 2.468 . S
O465 C483 1.263 . S
O466 Gd430 2.427 . S
O466 C483 1.252 . S
O467 Gd431 2.307 . S
O467 C476 1.261 . S
O468 Gd430 2.388 . S
O468 C476 1.252 . S
O469 Gd430 2.386 . S
O469 C487 1.265 . S
O470 Gd431 2.353 . S
O470 C487 1.242 . S
O471 Gd431 2.468 . S
O471 C495 1.263 . S
O472 Gd431 2.427 . S
O472 C495 1.252 . S
O473 Gd430 2.307 . S
O473 C488 1.261 . S
O474 Gd431 2.388 . S
O474 C488 1.252 . S
C475 O463 1.265 . S
C475 O464 1.242 . S
C476 O467 1.261 . S
C476 O468 1.252 . S
C477 C480 1.394 . S
C477 C482 1.370 . S
C477 C483 1.500 . S
C478 C481 1.383 . S
C478 C482 1.395 . S
C479 C480 1.396 . S
C479 C481 1.365 . S
C479 H496 0.929 . S
C480 C477 1.394 . S
C480 C479 1.396 . S
C480 H497 0.930 . S
C481 C478 1.383 . S
C481 C479 1.365 . S
C481 H498 0.931 . S
C482 C477 1.370 . S
C482 C478 1.395 . S
C482 H499 0.930 . S
C483 Gd430 2.805 . S
C483 O465 1.263 . S
C483 O466 1.252 . S
C483 C477 1.500 . S
C484 H446 0.930 . S
C484 C460 1.417 . S
C484 C485 1.329 . S
C485 C455 1.437 . S
C485 H456 0.929 . S
C485 C484 1.329 . S
H486 C459 0.931 . S
C487 O469 1.265 . S
C487 O470 1.242 . S
C488 O473 1.261 . S
C488 O474 1.252 . S
C489 C492 1.394 . S
C489 C494 1.370 . S
C489 C495 1.500 . S
C490 C493 1.383 1_455 S
C490 C494 1.395 . S
C491 C492 1.396 . S
C491 C493 1.365 1_455 S
C491 H500 0.929 1_455 S
C492 C489 1.394 . S
C492 C491 1.396 . S
C492 H501 0.930 . S
C493 C490 1.383 1_655 S
C493 C491 1.365 1_655 S
C493 H502 0.931 . S
C494 C489 1.370 . S
C494 C490 1.395 . S
C494 H503 0.930 . S
C495 Gd431 2.805 . S
C495 O471 1.263 . S
C495 O472 1.252 . S
C495 C489 1.500 . S
H496 C479 0.929 . S
H497 C480 0.930 . S
H498 C481 0.931 . S
H499 C482 0.930 . S
H500 C491 0.929 1_655 S
H501 C492 0.930 . S
H502 C493 0.931 . S
H503 C494 0.930 . S
C504 C506 1.422 . S
C504 C508 1.415 . S
C504 N510 1.369 . S
C505 C506 1.421 . S
C505 C507 1.417 . S
C505 C517 1.422 . S
C506 C504 1.422 . S
C506 C505 1.421 . S
C506 N516 1.359 . S
C507 C505 1.417 . S
C507 C509 1.329 . S
C507 H526 0.930 . S
C508 C504 1.415 . S
C508 C509 1.437 . S
C508 C512 1.413 . S
C509 C507 1.329 . S
C509 C508 1.437 . S
C509 H531 0.929 . S
N510 C504 1.369 . S
N510 C511 1.338 . S
N510 Gd515 2.622 . S
C511 N510 1.338 . S
C511 C513 1.378 . S
C511 H523 0.929 . S
C512 C508 1.413 . S
C512 C513 1.348 . S
C512 H528 0.931 . S
C513 C511 1.378 . S
C513 C512 1.348 . S
C513 H529 0.930 . S
Gd514 N534 2.622 . S
Gd514 N541 2.570 . S
Gd514 O548 2.353 . S
Gd514 O549 2.468 . S
Gd514 O550 2.427 . S
Gd514 O552 2.388 . S
Gd514 O553 2.386 . S
Gd514 O557 2.307 . S
Gd514 C567 2.805 . S
Gd515 N510 2.622 . S
Gd515 N516 2.570 . S
Gd515 O547 2.386 . S
Gd515 O551 2.307 . S
Gd515 O554 2.353 . S
Gd515 O555 2.468 . S
Gd515 O556 2.427 . S
Gd515 O558 2.388 . S
Gd515 C579 2.805 . S
N516 C506 1.359 . S
N516 Gd515 2.570 . S
N516 C518 1.343 . S
C517 C505 1.422 . S
C517 C519 1.321 . S
C517 H525 0.931 . S
C518 N516 1.343 . S
C518 C519 1.390 . S
C518 H520 0.931 . S
C519 C517 1.321 . S
C519 C518 1.390 . S
C519 H521 0.930 . S
H520 C518 0.931 . S
H521 C519 0.930 . S
H522 C545 0.931 . S
H523 C511 0.929 . S
H524 C546 0.930 . S
H525 C517 0.931 . S
H526 C507 0.930 . S
H527 C536 0.929 . S
H528 C512 0.931 . S
H529 C513 0.930 . S
H530 C568 0.930 . S
H531 C509 0.929 . S
H532 C537 0.931 . S
H533 C538 0.930 . S
N534 Gd514 2.622 . S
N534 C535 1.369 . S
N534 C536 1.338 . S
C535 N534 1.369 . S
C535 C539 1.415 . S
C535 C542 1.422 . S
C536 H527 0.929 . S
C536 N534 1.338 . S
C536 C538 1.378 . S
C537 H532 0.931 . S
C537 C538 1.348 . S
C537 C539 1.413 . S
C538 H533 0.930 . S
C538 C536 1.378 . S
C538 C537 1.348 . S
C539 C535 1.415 . S
C539 C537 1.413 . S
C539 C569 1.437 . S
H540 C569 0.929 . S
N541 Gd514 2.570 . S
N541 C542 1.359 . S
N541 C545 1.343 . S
C542 C535 1.422 . S
C542 N541 1.359 . S
C542 C544 1.421 . S
C543 C544 1.422 . S
C543 C546 1.321 . S
C543 H570 0.931 . S
C544 C542 1.421 . S
C544 C543 1.422 . S
C544 C568 1.417 . S
C545 H522 0.931 . S
C545 N541 1.343 . S
C545 C546 1.390 . S
C546 H524 0.930 . S
C546 C543 1.321 . S
C546 C545 1.390 . S
O547 Gd515 2.386 . S
O547 C559 1.265 . S
O548 Gd514 2.353 . S
O548 C559 1.242 . S
O549 Gd514 2.468 . S
O549 C567 1.263 . S
O550 Gd514 2.427 . S
O550 C567 1.252 . S
O551 Gd515 2.307 . S
O551 C560 1.261 . S
O552 Gd514 2.388 . S
O552 C560 1.252 . S
O553 Gd514 2.386 . S
O553 C571 1.265 . S
O554 Gd515 2.353 . S
O554 C571 1.242 . S
O555 Gd515 2.468 . S
O555 C579 1.263 . S
O556 Gd515 2.427 . S
O556 C579 1.252 . S
O557 Gd514 2.307 . S
O557 C572 1.261 . S
O558 Gd515 2.388 . S
O558 C572 1.252 . S
C559 O547 1.265 . S
C559 O548 1.242 . S
C560 O551 1.261 . S
C560 O552 1.252 . S
C561 C564 1.394 . S
C561 C566 1.370 . S
C561 C567 1.500 1_554 S
C562 C565 1.383 . S
C562 C566 1.395 . S
C563 C564 1.396 . S
C563 C565 1.365 . S
C563 H580 0.929 . S
C564 C561 1.394 . S
C564 C563 1.396 . S
C564 H581 0.930 . S
C565 C562 1.383 . S
C565 C563 1.365 . S
C565 H582 0.931 . S
C566 C561 1.370 . S
C566 C562 1.395 . S
C566 H583 0.930 . S
C567 Gd514 2.805 . S
C567 O549 1.263 . S
C567 O550 1.252 . S
C567 C561 1.500 1_556 S
C568 H530 0.930 . S
C568 C544 1.417 . S
C568 C569 1.329 . S
C569 C539 1.437 . S
C569 H540 0.929 . S
C569 C568 1.329 . S
H570 C543 0.931 . S
C571 O553 1.265 . S
C571 O554 1.242 . S
C572 O557 1.261 . S
C572 O558 1.252 . S
C573 C576 1.394 . S
C573 C578 1.370 . S
C573 C579 1.500 . S
C574 C577 1.383 . S
C574 C578 1.395 . S
C575 C576 1.396 . S
C575 C577 1.365 . S
C575 H584 0.929 . S
C576 C573 1.394 . S
C576 C575 1.396 . S
C576 H585 0.930 . S
C577 C574 1.383 . S
C577 C575 1.365 . S
C577 H586 0.931 . S
C578 C573 1.370 . S
C578 C574 1.395 . S
C578 H587 0.930 . S
C579 Gd515 2.805 . S
C579 O555 1.263 . S
C579 O556 1.252 . S
C579 C573 1.500 . S
H580 C563 0.929 . S
H581 C564 0.930 . S
H582 C565 0.931 . S
H583 C566 0.930 . S
H584 C575 0.929 . S
H585 C576 0.930 . S
H586 C577 0.931 . S
H587 C578 0.930 . S
C588 C590 1.422 . S
C588 C592 1.415 . S
C588 N594 1.369 . S
C589 C590 1.421 . S
C589 C591 1.419 1_655 S
C589 C601 1.422 1_655 S
C590 C588 1.422 . S
C590 C589 1.421 . S
C590 N600 1.359 . S
C591 C589 1.419 1_455 S
C591 C593 1.329 1_455 S
C591 H610 0.927 . S
C592 C588 1.415 . S
C592 C593 1.437 . S
C592 C596 1.413 . S
C593 C591 1.329 1_655 S
C593 C592 1.437 . S
C593 H615 0.929 . S
N594 C588 1.369 . S
N594 C595 1.338 . S
N594 Gd599 2.622 . S
C595 N594 1.338 . S
C595 C597 1.378 . S
C595 H607 0.929 . S
C596 C592 1.413 . S
C596 C597 1.348 . S
C596 H612 0.931 . S
C597 C595 1.378 . S
C597 C596 1.348 . S
C597 H613 0.930 1_545 S
Gd598 N618 2.622 . S
Gd598 N625 2.570 . S
Gd598 O632 2.353 . S
Gd598 O633 2.468 . S
Gd598 O634 2.427 . S
Gd598 O636 2.388 . S
Gd598 O637 2.386 . S
Gd598 O641 2.307 . S
Gd598 C651 2.805 . S
Gd599 N594 2.622 . S
Gd599 N600 2.570 . S
Gd599 O631 2.386 . S
Gd599 O635 2.307 . S
Gd599 O638 2.353 . S
Gd599 O639 2.468 . S
Gd599 O640 2.427 . S
Gd599 O642 2.388 . S
Gd599 C663 2.805 . S
N600 C590 1.359 . S
N600 Gd599 2.570 . S
N600 C602 1.343 . S
C601 C589 1.422 1_455 S
C601 C603 1.321 . S
C601 H609 0.931 . S
C602 N600 1.343 . S
C602 C603 1.390 1_655 S
C602 H604 0.931 . S
C603 C601 1.321 . S
C603 C602 1.390 1_455 S
C603 H605 0.930 . S
H604 C602 0.931 . S
H605 C603 0.930 . S
H606 C629 0.931 . S
H607 C595 0.929 . S
H608 C630 0.930 . S
H609 C601 0.931 . S
H610 C591 0.927 . S
H611 C620 0.929 . S
H612 C596 0.931 . S
H613 C597 0.930 1_565 S
H614 C652 0.930 . S
H615 C593 0.929 . S
H616 C621 0.931 . S
H617 C622 0.930 . S
N618 Gd598 2.622 . S
N618 C619 1.369 . S
N618 C620 1.338 . S
C619 N618 1.369 . S
C619 C623 1.415 . S
C619 C626 1.422 . S
C620 H611 0.929 . S
C620 N618 1.338 . S
C620 C622 1.378 . S
C621 H616 0.931 . S
C621 C622 1.348 . S
C621 C623 1.413 . S
C622 H617 0.930 . S
C622 C620 1.378 . S
C622 C621 1.348 . S
C623 C619 1.415 . S
C623 C621 1.413 . S
C623 C653 1.437 . S
H624 C653 0.929 . S
N625 Gd598 2.570 . S
N625 C626 1.359 . S
N625 C629 1.343 . S
C626 C619 1.422 . S
C626 N625 1.359 . S
C626 C628 1.421 . S
C627 C628 1.422 . S
C627 C630 1.321 . S
C627 H654 0.931 . S
C628 C626 1.421 . S
C628 C627 1.422 . S
C628 C652 1.417 . S
C629 H606 0.931 . S
C629 N625 1.343 . S
C629 C630 1.390 . S
C630 H608 0.930 . S
C630 C627 1.321 . S
C630 C629 1.390 . S
O631 Gd599 2.386 . S
O631 C643 1.265 . S
O632 Gd598 2.353 . S
O632 C643 1.242 . S
O633 Gd598 2.468 . S
O633 C651 1.263 . S
O634 Gd598 2.427 . S
O634 C651 1.252 . S
O635 Gd599 2.307 . S
O635 C644 1.261 . S
O636 Gd598 2.388 . S
O636 C644 1.252 . S
O637 Gd598 2.386 . S
O637 C655 1.265 . S
O638 Gd599 2.353 . S
O638 C655 1.242 . S
O639 Gd599 2.468 . S
O639 C663 1.263 . S
O640 Gd599 2.427 . S
O640 C663 1.252 . S
O641 Gd598 2.307 . S
O641 C656 1.261 . S
O642 Gd599 2.388 . S
O642 C656 1.252 . S
C643 O631 1.265 . S
C643 O632 1.242 . S
C644 O635 1.261 . S
C644 O636 1.252 . S
C645 C648 1.394 . S
C645 C650 1.370 . S
C645 C651 1.500 . S
C646 C649 1.383 . S
C646 C650 1.395 . S
C647 C648 1.396 . S
C647 C649 1.365 . S
C647 H664 0.929 . S
C648 C645 1.394 . S
C648 C647 1.396 . S
C648 H665 0.930 . S
C649 C646 1.383 . S
C649 C647 1.365 . S
C649 H666 0.931 . S
C650 C645 1.370 . S
C650 C646 1.395 . S
C650 H667 0.930 . S
C651 Gd598 2.805 . S
C651 O633 1.263 . S
C651 O634 1.252 . S
C651 C645 1.500 . S
C652 H614 0.930 . S
C652 C628 1.417 . S
C652 C653 1.329 . S
C653 C623 1.437 . S
C653 H624 0.929 . S
C653 C652 1.329 . S
H654 C627 0.931 . S
C655 O637 1.265 . S
C655 O638 1.242 . S
C656 O641 1.261 . S
C656 O642 1.252 . S
C657 C660 1.394 . S
C657 C662 1.370 . S
C657 C663 1.500 1_554 S
C658 C661 1.383 . S
C658 C662 1.395 . S
C659 C660 1.396 . S
C659 C661 1.365 . S
C659 H668 0.929 . S
C660 C657 1.394 . S
C660 C659 1.396 . S
C660 H669 0.930 . S
C661 C658 1.383 . S
C661 C659 1.365 . S
C661 H670 0.931 . S
C662 C657 1.370 . S
C662 C658 1.395 . S
C662 H671 0.930 . S
C663 Gd599 2.805 . S
C663 O639 1.263 . S
C663 O640 1.252 . S
C663 C657 1.500 1_556 S
H664 C647 0.929 . S
H665 C648 0.930 . S
H666 C649 0.931 . S
H667 C650 0.930 . S
H668 C659 0.929 . S
H669 C660 0.930 . S
H670 C661 0.931 . S
H671 C662 0.930 . S
C672 C674 1.422 . S
C672 C676 1.415 . S
C672 N678 1.369 . S
C673 C674 1.421 . S
C673 C675 1.417 . S
C673 C685 1.422 . S
C674 C672 1.422 . S
C674 C673 1.421 . S
C674 N684 1.359 . S
C675 C673 1.417 . S
C675 C677 1.329 . S
C675 H694 0.930 . S
C676 C672 1.415 . S
C676 C677 1.437 . S
C676 C680 1.413 . S
C677 C675 1.329 . S
C677 C676 1.437 . S
C677 H699 0.929 . S
N678 C672 1.369 . S
N678 C679 1.338 . S
N678 Gd683 2.622 . S
C679 N678 1.338 . S
C679 C681 1.378 . S
C679 H691 0.929 . S
C680 C676 1.413 . S
C680 C681 1.348 . S
C680 H696 0.931 . S
C681 C679 1.378 . S
C681 C680 1.348 . S
C681 H697 0.930 . S
Gd682 N702 2.622 . S
Gd682 N709 2.570 . S
Gd682 O716 2.353 . S
Gd682 O717 2.468 . S
Gd682 O718 2.427 . S
Gd682 O720 2.388 . S
Gd682 O721 2.386 . S
Gd682 O725 2.307 . S
Gd682 C735 2.805 . S
Gd683 N678 2.622 . S
Gd683 N684 2.570 . S
Gd683 O715 2.386 . S
Gd683 O719 2.307 . S
Gd683 O722 2.353 . S
Gd683 O723 2.468 . S
Gd683 O724 2.427 . S
Gd683 O726 2.388 . S
Gd683 C747 2.805 . S
N684 C674 1.359 . S
N684 Gd683 2.570 . S
N684 C686 1.343 . S
C685 C673 1.422 . S
C685 C687 1.321 . S
C685 H693 0.931 . S
C686 N684 1.343 . S
C686 C687 1.390 . S
C686 H688 0.931 . S
C687 C685 1.321 . S
C687 C686 1.390 . S
C687 H689 0.930 . S
H688 C686 0.931 . S
H689 C687 0.930 . S
H690 C713 0.931 . S
H691 C679 0.929 . S
H692 C714 0.930 . S
H693 C685 0.931 . S
H694 C675 0.930 . S
H695 C704 0.929 . S
H696 C680 0.931 . S
H697 C681 0.930 . S
H698 C736 0.930 . S
H699 C677 0.929 . S
H700 C705 0.931 . S
H701 C706 0.930 . S
N702 Gd682 2.622 . S
N702 C703 1.369 . S
N702 C704 1.338 . S
C703 N702 1.369 . S
C703 C707 1.415 . S
C703 C710 1.422 . S
C704 H695 0.929 . S
C704 N702 1.338 . S
C704 C706 1.378 . S
C705 H700 0.931 . S
C705 C706 1.348 . S
C705 C707 1.413 . S
C706 H701 0.930 . S
C706 C704 1.378 . S
C706 C705 1.348 . S
C707 C703 1.415 . S
C707 C705 1.413 . S
C707 C737 1.437 1_655 S
H708 C737 0.929 . S
N709 Gd682 2.570 . S
N709 C710 1.359 . S
N709 C713 1.343 . S
C710 C703 1.422 . S
C710 N709 1.359 . S
C710 C712 1.421 1_655 S
C711 C712 1.422 . S
C711 C714 1.321 . S
C711 H738 0.931 . S
C712 C710 1.421 1_455 S
C712 C711 1.422 . S
C712 C736 1.417 . S
C713 H690 0.931 . S
C713 N709 1.343 . S
C713 C714 1.390 1_655 S
C714 H692 0.930 . S
C714 C711 1.321 . S
C714 C713 1.390 1_455 S
O715 Gd683 2.386 . S
O715 C727 1.265 . S
O716 Gd682 2.353 . S
O716 C727 1.242 . S
O717 Gd682 2.468 . S
O717 C735 1.263 . S
O718 Gd682 2.427 . S
O718 C735 1.252 . S
O719 Gd683 2.307 . S
O719 C728 1.261 . S
O720 Gd682 2.388 . S
O720 C728 1.252 . S
O721 Gd682 2.386 . S
O721 C739 1.265 . S
O722 Gd683 2.353 . S
O722 C739 1.242 . S
O723 Gd683 2.468 . S
O723 C747 1.263 . S
O724 Gd683 2.427 . S
O724 C747 1.252 . S
O725 Gd682 2.307 . S
O725 C740 1.261 . S
O726 Gd683 2.388 . S
O726 C740 1.252 . S
C727 O715 1.265 . S
C727 O716 1.242 . S
C728 O719 1.261 . S
C728 O720 1.252 . S
C729 C732 1.394 . S
C729 C734 1.370 . S
C729 C735 1.500 1_554 S
C730 C733 1.383 . S
C730 C734 1.395 . S
C731 C732 1.396 . S
C731 C733 1.365 . S
C731 H748 0.929 . S
C732 C729 1.394 . S
C732 C731 1.396 . S
C732 H749 0.930 . S
C733 C730 1.383 . S
C733 C731 1.365 . S
C733 H750 0.931 . S
C734 C729 1.370 . S
C734 C730 1.395 . S
C734 H751 0.930 . S
C735 Gd682 2.805 . S
C735 O717 1.263 . S
C735 O718 1.252 . S
C735 C729 1.500 1_556 S
C736 H698 0.930 . S
C736 C712 1.417 . S
C736 C737 1.329 . S
C737 C707 1.437 1_455 S
C737 H708 0.929 . S
C737 C736 1.329 . S
H738 C711 0.931 . S
C739 O721 1.265 . S
C739 O722 1.242 . S
C740 O725 1.261 . S
C740 O726 1.252 . S
C741 C744 1.394 . S
C741 C746 1.370 . S
C741 C747 1.500 . S
C742 C745 1.383 . S
C742 C746 1.395 . S
C743 C744 1.396 . S
C743 C745 1.365 . S
C743 H752 0.929 . S
C744 C741 1.394 . S
C744 C743 1.396 . S
C744 H753 0.930 . S
C745 C742 1.383 . S
C745 C743 1.365 . S
C745 H754 0.931 . S
C746 C741 1.370 . S
C746 C742 1.395 . S
C746 H755 0.930 . S
C747 Gd683 2.805 . S
C747 O723 1.263 . S
C747 O724 1.252 . S
C747 C741 1.500 . S
H748 C731 0.929 . S
H749 C732 0.930 . S
H750 C733 0.931 . S
H751 C734 0.930 . S
H752 C743 0.929 . S
H753 C744 0.930 . S
H754 C745 0.931 . S
H755 C746 0.930 . S
C756 C757 1.363 . S
C756 C762 1.379 . S
C756 N764 1.356 . S
C757 C756 1.363 . S
C757 C763 1.363 . S
C758 C759 1.363 . S
C758 C763 1.379 . S
C758 N765 1.356 . S
C759 C758 1.363 . S
C759 C762 1.363 . S
N760 C762 1.356 . S
N760 H772 0.984 . S
N760 H773 0.985 . S
N761 C763 1.356 . S
N761 H766 0.984 . S
N761 H767 0.985 . S
C762 C756 1.379 . S
C762 C759 1.363 . S
C762 N760 1.356 . S
C763 C757 1.363 . S
C763 C758 1.379 . S
C763 N761 1.356 . S
N764 C756 1.356 . S
N764 H770 0.984 . S
N764 H771 0.984 . S
N765 C758 1.356 . S
N765 H768 0.984 . S
N765 H769 0.985 . S
H766 N761 0.984 . S
H767 N761 0.985 . S
H768 N765 0.984 . S
H769 N765 0.985 . S
H770 N764 0.984 . S
H771 N764 0.984 . S
H772 N760 0.984 . S
H773 N760 0.985 . S
C774 C775 1.363 . S
C774 C780 1.379 . S
C774 N782 1.356 . S
C775 C774 1.363 . S
C775 C781 1.363 . S
C776 C777 1.363 . S
C776 C781 1.379 . S
C776 N783 1.356 . S
C777 C776 1.363 . S
C777 C780 1.363 . S
N778 C780 1.356 . S
N778 H790 0.984 . S
N778 H791 0.985 . S
N779 C781 1.356 . S
N779 H784 0.984 . S
N779 H785 0.985 . S
C780 C774 1.379 . S
C780 C777 1.363 . S
C780 N778 1.356 . S
C781 C775 1.363 . S
C781 C776 1.379 . S
C781 N779 1.356 . S
N782 C774 1.356 . S
N782 H788 0.984 . S
N782 H789 0.984 . S
N783 C776 1.356 . S
N783 H786 0.984 . S
N783 H787 0.985 . S
H784 N779 0.984 . S
H785 N779 0.985 . S
H786 N783 0.984 . S
H787 N783 0.985 . S
H788 N782 0.984 . S
H789 N782 0.984 . S
H790 N778 0.984 . S
H791 N778 0.985 . S
C792 C793 1.363 . S
C792 C798 1.379 . S
C792 N800 1.356 . S
C793 C792 1.363 . S
C793 C799 1.363 . S
C794 C795 1.363 . S
C794 C799 1.379 . S
C794 N801 1.356 . S
C795 C794 1.363 . S
C795 C798 1.363 . S
N796 C798 1.356 . S
N796 H808 0.984 . S
N796 H809 0.985 . S
N797 C799 1.356 . S
N797 H802 0.984 . S
N797 H803 0.985 . S
C798 C792 1.379 . S
C798 C795 1.363 . S
C798 N796 1.356 . S
C799 C793 1.363 . S
C799 C794 1.379 . S
C799 N797 1.356 . S
N800 C792 1.356 . S
N800 H806 0.984 . S
N800 H807 0.984 . S
N801 C794 1.356 . S
N801 H804 0.984 . S
N801 H805 0.985 . S
H802 N797 0.984 . S
H803 N797 0.985 . S
H804 N801 0.984 . S
H805 N801 0.985 . S
H806 N800 0.984 . S
H807 N800 0.984 . S
H808 N796 0.984 . S
H809 N796 0.985 . S
C810 C811 1.363 . S
C810 C816 1.379 . S
C810 N818 1.356 . S
C811 C810 1.363 . S
C811 C817 1.363 . S
C812 C813 1.363 . S
C812 C817 1.379 . S
C812 N819 1.356 . S
C813 C812 1.363 . S
C813 C816 1.363 . S
N814 C816 1.356 . S
N814 H826 0.984 . S
N814 H827 0.985 . S
N815 C817 1.356 . S
N815 H820 0.984 . S
N815 H821 0.985 . S
C816 C810 1.379 . S
C816 C813 1.363 . S
C816 N814 1.356 . S
C817 C811 1.363 . S
C817 C812 1.379 . S
C817 N815 1.356 . S
N818 C810 1.356 . S
N818 H824 0.984 . S
N818 H825 0.984 . S
N819 C812 1.356 . S
N819 H822 0.984 . S
N819 H823 0.985 . S
H820 N815 0.984 . S
H821 N815 0.985 . S
H822 N819 0.984 . S
H823 N819 0.985 . S
H824 N818 0.984 . S
H825 N818 0.984 . S
H826 N814 0.984 . S
H827 N814 0.985 . S
C828 C829 1.363 . S
C828 C834 1.379 . S
C828 N836 1.356 . S
C829 C828 1.363 . S
C829 C835 1.363 . S
C830 C831 1.363 . S
C830 C835 1.379 . S
C830 N837 1.356 . S
C831 C830 1.363 . S
C831 C834 1.363 . S
N832 C834 1.356 . S
N832 H844 0.984 . S
N832 H845 0.985 . S
N833 C835 1.356 . S
N833 H838 0.984 . S
N833 H839 0.985 . S
C834 C828 1.379 . S
C834 C831 1.363 . S
C834 N832 1.356 . S
C835 C829 1.363 . S
C835 C830 1.379 . S
C835 N833 1.356 . S
N836 C828 1.356 . S
N836 H842 0.984 . S
N836 H843 0.984 . S
N837 C830 1.356 . S
N837 H840 0.984 . S
N837 H841 0.985 . S
H838 N833 0.984 . S
H839 N833 0.985 . S
H840 N837 0.984 . S
H841 N837 0.985 . S
H842 N836 0.984 . S
H843 N836 0.984 . S
H844 N832 0.984 . S
H845 N832 0.985 . S
C846 C847 1.363 . S
C846 C852 1.379 . S
C846 N854 1.356 . S
C847 C846 1.363 . S
C847 C853 1.363 . S
C848 C849 1.363 . S
C848 C853 1.379 . S
C848 N855 1.356 . S
C849 C848 1.363 . S
C849 C852 1.363 . S
N850 C852 1.356 . S
N850 H862 0.984 . S
N850 H863 0.985 . S
N851 C853 1.356 . S
N851 H856 0.984 . S
N851 H857 0.985 . S
C852 C846 1.379 . S
C852 C849 1.363 . S
C852 N850 1.356 . S
C853 C847 1.363 . S
C853 C848 1.379 . S
C853 N851 1.356 . S
N854 C846 1.356 . S
N854 H860 0.984 . S
N854 H861 0.984 . S
N855 C848 1.356 . S
N855 H858 0.984 1_556 S
N855 H859 0.985 1_556 S
H856 N851 0.984 . S
H857 N851 0.985 . S
H858 N855 0.984 1_554 S
H859 N855 0.985 1_554 S
H860 N854 0.984 . S
H861 N854 0.984 . S
H862 N850 0.984 . S
H863 N850 0.985 . S
C864 C865 1.363 . S
C864 C870 1.379 . S
C864 N872 1.356 . S
C865 C864 1.363 . S
C865 C871 1.363 . S
C866 C867 1.363 . S
C866 C871 1.379 . S
C866 N873 1.356 . S
C867 C866 1.363 . S
C867 C870 1.363 . S
N868 C870 1.356 . S
N868 H880 0.984 . S
N868 H881 0.985 . S
N869 C871 1.356 1_556 S
N869 H874 0.984 . S
N869 H875 0.985 . S
C870 C864 1.379 . S
C870 C867 1.363 . S
C870 N868 1.356 . S
C871 C865 1.363 . S
C871 C866 1.379 . S
C871 N869 1.356 1_554 S
N872 C864 1.356 . S
N872 H878 0.984 . S
N872 H879 0.984 . S
N873 C866 1.356 . S
N873 H876 0.984 . S
N873 H877 0.985 . S
H874 N869 0.984 . S
H875 N869 0.985 . S
H876 N873 0.984 . S
H877 N873 0.985 . S
H878 N872 0.984 . S
H879 N872 0.984 . S
H880 N868 0.984 . S
H881 N868 0.985 . S
C882 C883 1.363 . S
C882 C888 1.379 . S
C882 N890 1.356 . S
C883 C882 1.363 . S
C883 C889 1.363 . S
C884 C885 1.363 . S
C884 C889 1.379 . S
C884 N891 1.356 . S
C885 C884 1.363 . S
C885 C888 1.363 . S
N886 C888 1.356 . S
N886 H898 0.984 . S
N886 H899 0.985 . S
N887 C889 1.356 . S
N887 H892 0.984 1_554 S
N887 H893 0.985 . S
C888 C882 1.379 . S
C888 C885 1.363 . S
C888 N886 1.356 . S
C889 C883 1.363 . S
C889 C884 1.379 . S
C889 N887 1.356 . S
N890 C882 1.356 . S
N890 H896 0.984 . S
N890 H897 0.984 . S
N891 C884 1.356 . S
N891 H894 0.984 . S
N891 H895 0.985 . S
H892 N887 0.984 1_556 S
H893 N887 0.985 . S
H894 N891 0.984 . S
H895 N891 0.985 . S
H896 N890 0.984 . S
H897 N890 0.984 . S
H898 N886 0.984 . S
H899 N886 0.985 . S
C900 C901 1.363 . S
C900 C906 1.379 . S
C900 N908 1.356 . S
C901 C900 1.363 . S
C901 C907 1.363 . S
C902 C903 1.363 . S
C902 C907 1.379 . S
C902 N909 1.356 . S
C903 C902 1.363 . S
C903 C906 1.363 . S
N904 C906 1.356 . S
N904 H916 0.984 . S
N904 H917 0.985 . S
N905 C907 1.356 1_556 S
N905 H910 0.985 . S
N905 H911 0.985 . S
C906 C900 1.379 . S
C906 C903 1.363 . S
C906 N904 1.356 . S
C907 C901 1.363 . S
C907 C902 1.379 . S
C907 N905 1.356 1_554 S
N908 C900 1.356 . S
N908 H914 0.984 . S
N908 H915 0.984 . S
N909 C902 1.356 . S
N909 H912 0.984 . S
N909 H913 0.985 . S
H910 N905 0.985 . S
H911 N905 0.985 . S
H912 N909 0.984 . S
H913 N909 0.985 . S
H914 N908 0.984 . S
H915 N908 0.984 . S
H916 N904 0.984 . S
H917 N904 0.985 . S
C918 C919 1.363 . S
C918 C924 1.379 . S
C918 N926 1.356 . S
C919 C918 1.363 . S
C919 C925 1.363 . S
C920 C921 1.363 . S
C920 C925 1.379 . S
C920 N927 1.356 . S
C921 C920 1.363 . S
C921 C924 1.363 . S
N922 C924 1.356 . S
N922 H934 0.984 . S
N922 H935 0.985 . S
N923 C925 1.356 . S
N923 H928 0.984 . S
N923 H929 0.985 . S
C924 C918 1.379 . S
C924 C921 1.363 . S
C924 N922 1.356 . S
C925 C919 1.363 . S
C925 C920 1.379 . S
C925 N923 1.356 . S
N926 C918 1.356 . S
N926 H932 0.984 . S
N926 H933 0.984 . S
N927 C920 1.356 . S
N927 H930 0.984 . S
N927 H931 0.985 . S
H928 N923 0.984 . S
H929 N923 0.985 . S
H930 N927 0.984 . S
H931 N927 0.985 . S
H932 N926 0.984 . S
H933 N926 0.984 . S
H934 N922 0.984 . S
H935 N922 0.985 . S
C936 C937 1.363 . S
C936 C942 1.379 . S
C936 N944 1.356 . S
C937 C936 1.363 . S
C937 C943 1.363 . S
C938 C939 1.363 . S
C938 C943 1.379 . S
C938 N945 1.356 . S
C939 C938 1.363 . S
C939 C942 1.363 . S
N940 C942 1.356 . S
N940 H952 0.984 . S
N940 H953 0.985 . S
N941 C943 1.356 . S
N941 H946 0.984 . S
N941 H947 0.985 1_554 S
C942 C936 1.379 . S
C942 C939 1.363 . S
C942 N940 1.356 . S
C943 C937 1.363 . S
C943 C938 1.379 . S
C943 N941 1.356 . S
N944 C936 1.356 . S
N944 H950 0.984 . S
N944 H951 0.984 . S
N945 C938 1.356 . S
N945 H948 0.984 . S
N945 H949 0.985 1_554 S
H946 N941 0.984 . S
H947 N941 0.985 1_556 S
H948 N945 0.984 . S
H949 N945 0.985 1_556 S
H950 N944 0.984 . S
H951 N944 0.984 . S
H952 N940 0.984 . S
H953 N940 0.985 . S
C954 C955 1.363 . S
C954 C960 1.379 . S
C954 N962 1.356 1_565 S
C955 C954 1.363 . S
C955 C961 1.363 . S
C956 C957 1.363 . S
C956 C961 1.379 . S
C956 N963 1.356 . S
C957 C956 1.363 . S
C957 C960 1.363 . S
N958 C960 1.356 . S
N958 H970 0.984 . S
N958 H971 0.985 . S
N959 C961 1.356 . S
N959 H964 0.984 . S
N959 H965 0.985 . S
C960 C954 1.379 . S
C960 C957 1.363 . S
C960 N958 1.356 . S
C961 C955 1.363 . S
C961 C956 1.379 . S
C961 N959 1.356 . S
N962 C954 1.356 1_545 S
N962 H968 0.984 1_554 S
N962 H969 0.984 . S
N963 C956 1.356 . S
N963 H966 0.984 . S
N963 H967 0.985 . S
H964 N959 0.984 . S
H965 N959 0.985 . S
H966 N963 0.984 . S
H967 N963 0.985 . S
H968 N962 0.984 1_556 S
H969 N962 0.984 . S
H970 N958 0.984 . S
H971 N958 0.985 . S
C972 C973 1.363 . S
C972 C978 1.379 . S
C972 N980 1.356 1_556 S
C973 C972 1.363 . S
C973 C979 1.363 . S
C974 C975 1.363 . S
C974 C979 1.379 . S
C974 N981 1.356 . S
C975 C974 1.363 . S
C975 C978 1.363 . S
N976 C978 1.356 . S
N976 H988 0.984 . S
N976 H989 0.985 . S
N977 C979 1.356 . S
N977 H982 0.984 . S
N977 H983 0.985 . S
C978 C972 1.379 . S
C978 C975 1.363 . S
C978 N976 1.356 . S
C979 C973 1.363 . S
C979 C974 1.379 . S
C979 N977 1.356 . S
N980 C972 1.356 1_554 S
N980 H986 0.984 . S
N980 H987 0.984 . S
N981 C974 1.356 . S
N981 H984 0.984 . S
N981 H985 0.985 . S
H982 N977 0.984 . S
H983 N977 0.985 . S
H984 N981 0.984 . S
H985 N981 0.985 . S
H986 N980 0.984 . S
H987 N980 0.984 . S
H988 N976 0.984 . S
H989 N976 0.985 . S
C990 C991 1.363 . S
C990 C996 1.379 . S
C990 N998 1.356 . S
C991 C990 1.363 . S
C991 C997 1.363 . S
C992 C993 1.363 . S
C992 C997 1.379 1_554 S
C992 N999 1.356 . S
C993 C992 1.363 . S
C993 C996 1.363 1_554 S
N994 C996 1.358 . S
N994 H1006 0.982 1_655 S
N994 H1007 0.985 1_656 S
N995 C997 1.356 . S
N995 H1000 0.984 . S
N995 H1001 0.985 . S
C996 C990 1.379 . S
C996 C993 1.363 1_556 S
C996 N994 1.358 . S
C997 C991 1.363 . S
C997 C992 1.379 1_556 S
C997 N995 1.356 . S
N998 C990 1.356 . S
N998 H1004 0.984 . S
N998 H1005 0.984 . S
N999 C992 1.356 . S
N999 H1002 0.984 . S
N999 H1003 0.985 . S
H1000 N995 0.984 . S
H1001 N995 0.985 . S
H1002 N999 0.984 . S
H1003 N999 0.985 . S
H1004 N998 0.984 . S
H1005 N998 0.984 . S
H1006 N994 0.982 1_455 S
H1007 N994 0.985 1_454 S
C1008 C1009 1.363 . S
C1008 C1014 1.379 . S
C1008 N1016 1.356 . S
C1009 C1008 1.363 . S
C1009 C1015 1.363 . S
C1010 C1011 1.363 . S
C1010 C1015 1.379 . S
C1010 N1017 1.356 1_556 S
C1011 C1010 1.363 . S
C1011 C1014 1.363 . S
N1012 C1014 1.356 . S
N1012 H1024 0.984 . S
N1012 H1025 0.985 . S
N1013 C1015 1.356 . S
N1013 H1018 0.984 . S
N1013 H1019 0.985 . S
C1014 C1008 1.379 . S
C1014 C1011 1.363 . S
C1014 N1012 1.356 . S
C1015 C1009 1.363 . S
C1015 C1010 1.379 . S
C1015 N1013 1.356 . S
N1016 C1008 1.356 . S
N1016 H1022 0.984 . S
N1016 H1023 0.984 . S
N1017 C1010 1.356 1_554 S
N1017 H1020 0.984 . S
N1017 H1021 0.985 . S
H1018 N1013 0.984 . S
H1019 N1013 0.985 . S
H1020 N1017 0.984 . S
H1021 N1017 0.985 . S
H1022 N1016 0.984 . S
H1023 N1016 0.984 . S
H1024 N1012 0.984 . S
H1025 N1012 0.985 . S
C1026 C1027 1.363 . S
C1026 C1032 1.379 . S
C1026 N1034 1.356 . S
C1027 C1026 1.363 . S
C1027 C1033 1.363 . S
C1028 C1029 1.363 . S
C1028 C1033 1.379 . S
C1028 N1035 1.356 . S
C1029 C1028 1.363 . S
C1029 C1032 1.363 . S
N1030 C1032 1.356 . S
N1030 H1042 0.984 . S
N1030 H1043 0.985 1_556 S
N1031 C1033 1.356 . S
N1031 H1036 0.984 . S
N1031 H1037 0.985 . S
C1032 C1026 1.379 . S
C1032 C1029 1.363 . S
C1032 N1030 1.356 . S
C1033 C1027 1.363 . S
C1033 C1028 1.379 . S
C1033 N1031 1.356 . S
N1034 C1026 1.356 . S
N1034 H1040 0.984 . S
N1034 H1041 0.984 . S
N1035 C1028 1.356 . S
N1035 H1038 0.984 . S
N1035 H1039 0.985 1_655 S
H1036 N1031 0.984 . S
H1037 N1031 0.985 . S
H1038 N1035 0.984 . S
H1039 N1035 0.985 1_455 S
H1040 N1034 0.984 . S
H1041 N1034 0.984 . S
H1042 N1030 0.984 . S
H1043 N1030 0.985 1_554 S
C1044 C1045 1.363 . S
C1044 C1050 1.379 . S
C1044 N1052 1.356 . S
C1045 C1044 1.363 . S
C1045 C1051 1.363 . S
C1046 C1047 1.363 . S
C1046 C1051 1.379 . S
C1046 N1053 1.356 . S
C1047 C1046 1.363 . S
C1047 C1050 1.363 . S
N1048 C1050 1.356 . S
N1048 H1060 0.984 . S
N1048 H1061 0.985 . S
N1049 C1051 1.356 1_554 S
N1049 H1054 0.984 . S
N1049 H1055 0.985 . S
C1050 C1044 1.379 . S
C1050 C1047 1.363 . S
C1050 N1048 1.356 . S
C1051 C1045 1.363 . S
C1051 C1046 1.379 . S
C1051 N1049 1.356 1_556 S
N1052 C1044 1.356 . S
N1052 H1058 0.984 . S
N1052 H1059 0.984 . S
N1053 C1046 1.356 . S
N1053 H1056 0.984 . S
N1053 H1057 0.985 . S
H1054 N1049 0.984 . S
H1055 N1049 0.985 . S
H1056 N1053 0.984 . S
H1057 N1053 0.985 . S
H1058 N1052 0.984 . S
H1059 N1052 0.984 . S
H1060 N1048 0.984 . S
H1061 N1048 0.985 . S
C1062 C1063 1.363 . S
C1062 C1068 1.379 . S
C1062 N1070 1.356 . S
C1063 C1062 1.363 . S
C1063 C1069 1.363 . S
C1064 C1065 1.363 . S
C1064 C1069 1.379 . S
C1064 N1071 1.356 . S
C1065 C1064 1.363 . S
C1065 C1068 1.363 . S
N1066 C1068 1.356 . S
N1066 H1078 0.984 . S
N1066 H1079 0.985 . S
N1067 C1069 1.356 . S
N1067 H1072 0.984 . S
N1067 H1073 0.985 . S
C1068 C1062 1.379 . S
C1068 C1065 1.363 . S
C1068 N1066 1.356 . S
C1069 C1063 1.363 . S
C1069 C1064 1.379 . S
C1069 N1067 1.356 . S
N1070 C1062 1.356 . S
N1070 H1076 0.984 . S
N1070 H1077 0.984 . S
N1071 C1064 1.356 . S
N1071 H1074 0.984 . S
N1071 H1075 0.985 . S
H1072 N1067 0.984 . S
H1073 N1067 0.985 . S
H1074 N1071 0.984 . S
H1075 N1071 0.985 . S
H1076 N1070 0.984 . S
H1077 N1070 0.984 . S
H1078 N1066 0.984 . S
H1079 N1066 0.985 . S
C1080 C1081 1.363 . S
C1080 C1086 1.379 . S
C1080 N1088 1.356 . S
C1081 C1080 1.363 . S
C1081 C1087 1.346 1_544 S
C1082 C1083 1.363 1_556 S
C1082 C1087 1.398 . S
C1082 N1089 1.356 . S
C1083 C1082 1.363 1_554 S
C1083 C1086 1.363 1_565 S
N1084 C1086 1.356 . S
N1084 H1096 0.984 . S
N1084 H1097 0.985 . S
N1085 C1087 1.348 . S
N1085 H1090 0.984 1_565 S
N1085 H1091 0.985 . S
C1086 C1080 1.379 . S
C1086 C1083 1.363 1_545 S
C1086 N1084 1.356 . S
C1087 C1081 1.346 1_566 S
C1087 C1082 1.398 . S
C1087 N1085 1.348 . S
N1088 C1080 1.356 . S
N1088 H1094 0.984 . S
N1088 H1095 0.984 . S
N1089 C1082 1.356 . S
N1089 H1092 0.984 . S
N1089 H1093 0.985 . S
H1090 N1085 0.984 1_545 S
H1091 N1085 0.985 . S
H1092 N1089 0.984 . S
H1093 N1089 0.985 . S
H1094 N1088 0.984 . S
H1095 N1088 0.984 . S
H1096 N1084 0.984 . S
H1097 N1084 0.985 . S
C1098 C1099 1.363 . S
C1098 C1104 1.379 . S
C1098 N1106 1.356 . S
C1099 C1098 1.363 . S
C1099 C1105 1.363 . S
C1100 C1101 1.363 . S
C1100 C1105 1.379 . S
C1100 N1107 1.356 . S
C1101 C1100 1.363 . S
C1101 C1104 1.363 . S
N1102 C1104 1.356 . S
N1102 H1114 0.984 . S
N1102 H1115 0.985 . S
N1103 C1105 1.356 . S
N1103 H1108 0.984 . S
N1103 H1109 0.985 . S
C1104 C1098 1.379 . S
C1104 C1101 1.363 . S
C1104 N1102 1.356 . S
C1105 C1099 1.363 . S
C1105 C1100 1.379 . S
C1105 N1103 1.356 . S
N1106 C1098 1.356 . S
N1106 H1112 0.984 . S
N1106 H1113 0.984 . S
N1107 C1100 1.356 . S
N1107 H1110 0.984 . S
N1107 H1111 0.985 . S
H1108 N1103 0.984 . S
H1109 N1103 0.985 . S
H1110 N1107 0.984 . S
H1111 N1107 0.985 . S
H1112 N1106 0.984 . S
H1113 N1106 0.984 . S
H1114 N1102 0.984 . S
H1115 N1102 0.985 . S
C1116 C1117 1.363 . S
C1116 C1122 1.379 . S
C1116 N1124 1.356 . S
C1117 C1116 1.363 . S
C1117 C1123 1.363 . S
C1118 C1119 1.363 . S
C1118 C1123 1.379 . S
C1118 N1125 1.356 . S
C1119 C1118 1.363 . S
C1119 C1122 1.363 . S
N1120 C1122 1.356 . S
N1120 H1132 0.984 . S
N1120 H1133 0.985 . S
N1121 C1123 1.356 . S
N1121 H1126 0.984 . S
N1121 H1127 0.985 . S
C1122 C1116 1.379 . S
C1122 C1119 1.363 . S
C1122 N1120 1.356 . S
C1123 C1117 1.363 . S
C1123 C1118 1.379 . S
C1123 N1121 1.356 . S
N1124 C1116 1.356 . S
N1124 H1130 0.984 . S
N1124 H1131 0.984 . S
N1125 C1118 1.356 . S
N1125 H1128 0.984 . S
N1125 H1129 0.985 . S
H1126 N1121 0.984 . S
H1127 N1121 0.985 . S
H1128 N1125 0.984 . S
H1129 N1125 0.985 . S
H1130 N1124 0.984 . S
H1131 N1124 0.984 . S
H1132 N1120 0.984 . S
H1133 N1120 0.985 . S
C1134 C1135 1.363 . S
C1134 C1140 1.379 . S
C1134 N1142 1.356 . S
C1135 C1134 1.363 . S
C1135 C1141 1.363 . S
C1136 C1137 1.363 . S
C1136 C1141 1.379 . S
C1136 N1143 1.356 . S
C1137 C1136 1.363 . S
C1137 C1140 1.363 . S
N1138 C1140 1.356 . S
N1138 H1150 0.984 . S
N1138 H1151 0.985 . S
N1139 C1141 1.356 . S
N1139 H1144 0.984 . S
N1139 H1145 0.985 . S
C1140 C1134 1.379 . S
C1140 C1137 1.363 . S
C1140 N1138 1.356 . S
C1141 C1135 1.363 . S
C1141 C1136 1.379 . S
C1141 N1139 1.356 . S
N1142 C1134 1.356 . S
N1142 H1148 0.984 . S
N1142 H1149 0.984 . S
N1143 C1136 1.356 . S
N1143 H1146 0.984 . S
N1143 H1147 0.985 . S
H1144 N1139 0.984 . S
H1145 N1139 0.985 . S
H1146 N1143 0.984 . S
H1147 N1143 0.985 . S
H1148 N1142 0.984 . S
H1149 N1142 0.984 . S
H1150 N1138 0.984 . S
H1151 N1138 0.985 . S
C1152 C1153 1.363 . S
C1152 C1158 1.379 1_545 S
C1152 N1160 1.356 . S
C1153 C1152 1.363 . S
C1153 C1159 1.363 . S
C1154 C1155 1.363 1_545 S
C1154 C1159 1.379 . S
C1154 N1161 1.356 . S
C1155 C1154 1.363 1_565 S
C1155 C1158 1.363 . S
N1156 C1158 1.356 . S
N1156 H1168 0.984 . S
N1156 H1169 0.985 . S
N1157 C1159 1.356 . S
N1157 H1162 0.984 . S
N1157 H1163 0.985 . S
C1158 C1152 1.379 1_565 S
C1158 C1155 1.363 . S
C1158 N1156 1.356 . S
C1159 C1153 1.363 . S
C1159 C1154 1.379 . S
C1159 N1157 1.356 . S
N1160 C1152 1.356 . S
N1160 H1166 0.984 1_545 S
N1160 H1167 0.984 . S
N1161 C1154 1.356 . S
N1161 H1164 0.984 1_545 S
N1161 H1165 0.985 . S
H1162 N1157 0.984 . S
H1163 N1157 0.985 . S
H1164 N1161 0.984 1_565 S
H1165 N1161 0.985 . S
H1166 N1160 0.984 1_565 S
H1167 N1160 0.984 . S
H1168 N1156 0.984 . S
H1169 N1156 0.985 . S
C1170 C1171 1.363 . S
C1170 C1176 1.379 . S
C1170 N1178 1.356 . S
C1171 C1170 1.363 . S
C1171 C1177 1.363 . S
C1172 C1173 1.374 . S
C1172 C1177 1.379 . S
C1172 N1179 1.356 1_655 S
C1173 C1172 1.374 . S
C1173 C1176 1.372 . S
N1174 C1176 1.356 . S
N1174 H1186 0.984 . S
N1174 H1187 0.985 1_655 S
N1175 C1177 1.356 . S
N1175 H1180 0.984 . S
N1175 H1181 0.985 . S
C1176 C1170 1.379 . S
C1176 C1173 1.372 . S
C1176 N1174 1.356 . S
C1177 C1171 1.363 . S
C1177 C1172 1.379 . S
C1177 N1175 1.356 . S
N1178 C1170 1.356 . S
N1178 H1184 0.984 . S
N1178 H1185 0.984 . S
N1179 C1172 1.356 1_455 S
N1179 H1182 0.984 . S
N1179 H1183 0.985 . S
H1180 N1175 0.984 . S
H1181 N1175 0.985 . S
H1182 N1179 0.984 . S
H1183 N1179 0.985 . S
H1184 N1178 0.984 . S
H1185 N1178 0.984 . S
H1186 N1174 0.984 . S
H1187 N1174 0.985 1_455 S
C1188 C1189 1.363 . S
C1188 C1194 1.379 . S
C1188 N1196 1.356 . S
C1189 C1188 1.363 . S
C1189 C1195 1.363 . S
C1190 C1191 1.363 . S
C1190 C1195 1.379 . S
C1190 N1197 1.356 . S
C1191 C1190 1.363 . S
C1191 C1194 1.363 . S
N1192 C1194 1.356 . S
N1192 H1204 0.984 . S
N1192 H1205 0.985 . S
N1193 C1195 1.356 . S
N1193 H1198 0.984 . S
N1193 H1199 0.985 . S
C1194 C1188 1.379 . S
C1194 C1191 1.363 . S
C1194 N1192 1.356 . S
C1195 C1189 1.363 . S
C1195 C1190 1.379 . S
C1195 N1193 1.356 . S
N1196 C1188 1.356 . S
N1196 H1202 0.984 . S
N1196 H1203 0.984 . S
N1197 C1190 1.356 . S
N1197 H1200 0.984 . S
N1197 H1201 0.985 . S
H1198 N1193 0.984 . S
H1199 N1193 0.985 . S
H1200 N1197 0.984 . S
H1201 N1197 0.985 . S
H1202 N1196 0.984 . S
H1203 N1196 0.984 . S
H1204 N1192 0.984 . S
H1205 N1192 0.985 . S
C1206 C1207 1.363 . S
C1206 C1212 1.379 1_565 S
C1206 N1214 1.356 . S
C1207 C1206 1.363 . S
C1207 C1213 1.363 1_565 S
C1208 C1209 1.363 . S
C1208 C1213 1.379 . S
C1208 N1215 1.356 . S
C1209 C1208 1.363 . S
C1209 C1212 1.363 . S
N1210 C1212 1.356 . S
N1210 H1222 0.984 . S
N1210 H1223 0.985 . S
N1211 C1213 1.356 . S
N1211 H1216 0.984 1_545 S
N1211 H1217 0.985 . S
C1212 C1206 1.379 1_545 S
C1212 C1209 1.363 . S
C1212 N1210 1.356 . S
C1213 C1207 1.363 1_545 S
C1213 C1208 1.379 . S
C1213 N1211 1.356 . S
N1214 C1206 1.356 . S
N1214 H1220 0.984 . S
N1214 H1221 0.984 . S
N1215 C1208 1.356 . S
N1215 H1218 0.984 . S
N1215 H1219 0.985 . S
H1216 N1211 0.984 1_565 S
H1217 N1211 0.985 . S
H1218 N1215 0.984 . S
H1219 N1215 0.985 . S
H1220 N1214 0.984 . S
H1221 N1214 0.984 . S
H1222 N1210 0.984 . S
H1223 N1210 0.985 . S
C1224 C1225 1.363 . S
C1224 C1230 1.379 . S
C1224 N1232 1.356 . S
C1225 C1224 1.363 . S
C1225 C1231 1.363 . S
C1226 C1227 1.363 . S
C1226 C1231 1.379 . S
C1226 N1233 1.356 1_655 S
C1227 C1226 1.363 . S
C1227 C1230 1.363 . S
N1228 C1230 1.356 . S
N1228 H1240 0.984 . S
N1228 H1241 0.985 . S
N1229 C1231 1.356 . S
N1229 H1234 0.984 . S
N1229 H1235 0.985 . S
C1230 C1224 1.379 . S
C1230 C1227 1.363 . S
C1230 N1228 1.356 . S
C1231 C1225 1.363 . S
C1231 C1226 1.379 . S
C1231 N1229 1.356 . S
N1232 C1224 1.356 . S
N1232 H1238 0.984 . S
N1232 H1239 0.984 . S
N1233 C1226 1.356 1_455 S
N1233 H1236 0.984 . S
N1233 H1237 0.985 . S
H1234 N1229 0.984 . S
H1235 N1229 0.985 . S
H1236 N1233 0.984 . S
H1237 N1233 0.985 . S
H1238 N1232 0.984 . S
H1239 N1232 0.984 . S
H1240 N1228 0.984 . S
H1241 N1228 0.985 . S
C757 C68 3.550 . S
C759 C56 3.550 . S
C775 C140 3.576 . S
C777 C152 3.576 . S
C793 C236 3.605 . S
C795 C224 3.605 . S
C811 C308 3.550 . S
C813 C320 3.550 1_556 S
C829 C404 3.576 . S
C831 C392 3.576 1_556 S
C847 C476 3.605 . S
C849 C488 3.605 1_556 S
C865 C574 0.459 . S
C867 C562 0.459 . S
C883 C646 1.039 . S
C885 C658 1.039 . S
C901 C742 0.741 . S
C903 C730 0.741 . S
C919 C487 1.590 . S
C921 C70 1.276 . S
C937 C151 2.142 . S
C939 C319 2.141 . S
C955 C238 0.959 . S
C957 C406 0.974 . S
C973 C235 2.529 1_556 S
C975 C559 2.537 . S
C991 C644 1.669 . S
C993 C67 1.643 . S
C1009 C727 1.346 . S
C1011 C154 1.369 . S
C1027 C740 1.087 . S
C1029 C58 1.063 . S
C1045 C139 2.090 1_556 S
C1047 C572 2.108 . S
C1063 C655 2.051 . S
C1065 C226 2.030 . S
C1081 C223 1.590 . S
C1083 C310 1.276 . S
C1099 C391 2.142 . S
C1101 C55 2.141 . S
C1117 C142 0.975 . S
C1119 C478 0.959 . S
C1135 C728 1.088 . S
C1137 C322 1.063 . S
C1153 C560 2.108 . S
C1155 C403 2.089 . S
C1171 C643 2.050 . S
C1173 C490 2.012 1_655 S
C1189 C571 2.537 . S
C1191 C475 2.532 . S
C1207 C307 1.643 . S
C1209 C656 1.669 . S
C1225 C739 1.346 . S
C1227 C394 1.369 1_655 S
