# Generated by pormake.
# Topology rhr, (4)-cn, num edge types: 1
# Building blocks:
#     Node 0, Type 0, BuildingBlock: ESEHIV_clean_sbu_0, # of connection points: 4
#     Node 1, Type 0, BuildingBlock: ESEHIV_clean_sbu_0, # of connection points: 4
#     Node 2, Type 0, BuildingBlock: ESEHIV_clean_sbu_0, # of connection points: 4
#     Node 3, Type 0, BuildingBlock: ESEHIV_clean_sbu_0, # of connection points: 4
#     Node 4, Type 0, BuildingBlock: ESEHIV_clean_sbu_0, # of connection points: 4
#     Node 5, Type 0, BuildingBlock: ESEHIV_clean_sbu_0, # of connection points: 4
#     Node 6, Type 0, BuildingBlock: ESEHIV_clean_sbu_0, # of connection points: 4
#     Node 7, Type 0, BuildingBlock: ESEHIV_clean_sbu_0, # of connection points: 4
#     Node 8, Type 0, BuildingBlock: ESEHIV_clean_sbu_0, # of connection points: 4
#     Node 9, Type 0, BuildingBlock: ESEHIV_clean_sbu_0, # of connection points: 4
#     Node 10, Type 0, BuildingBlock: ESEHIV_clean_sbu_0, # of connection points: 4
#     Node 11, Type 0, BuildingBlock: ESEHIV_clean_sbu_0, # of connection points: 4
#     Node 12, Type 0, BuildingBlock: ESEHIV_clean_sbu_0, # of connection points: 4
#     Node 13, Type 0, BuildingBlock: ESEHIV_clean_sbu_0, # of connection points: 4
#     Node 14, Type 0, BuildingBlock: ESEHIV_clean_sbu_0, # of connection points: 4
#     Node 15, Type 0, BuildingBlock: ESEHIV_clean_sbu_0, # of connection points: 4
#     Node 16, Type 0, BuildingBlock: ESEHIV_clean_sbu_0, # of connection points: 4
#     Node 17, Type 0, BuildingBlock: ESEHIV_clean_sbu_0, # of connection points: 4
#     Node 18, Type 0, BuildingBlock: ESEHIV_clean_sbu_0, # of connection points: 4
#     Node 19, Type 0, BuildingBlock: ESEHIV_clean_sbu_0, # of connection points: 4
#     Node 20, Type 0, BuildingBlock: ESEHIV_clean_sbu_0, # of connection points: 4
#     Node 21, Type 0, BuildingBlock: ESEHIV_clean_sbu_0, # of connection points: 4
#     Node 22, Type 0, BuildingBlock: ESEHIV_clean_sbu_0, # of connection points: 4
#     Node 23, Type 0, BuildingBlock: ESEHIV_clean_sbu_0, # of connection points: 4
#     Edge 24, Type (0, 0), BuildingBlock: OJICUG_clean_linker_0, # of connection points: 2
#     Edge 25, Type (0, 0), BuildingBlock: OJICUG_clean_linker_0, # of connection points: 2
#     Edge 26, Type (0, 0), BuildingBlock: OJICUG_clean_linker_0, # of connection points: 2
#     Edge 27, Type (0, 0), BuildingBlock: OJICUG_clean_linker_0, # of connection points: 2
#     Edge 28, Type (0, 0), BuildingBlock: OJICUG_clean_linker_0, # of connection points: 2
#     Edge 29, Type (0, 0), BuildingBlock: OJICUG_clean_linker_0, # of connection points: 2
#     Edge 30, Type (0, 0), BuildingBlock: OJICUG_clean_linker_0, # of connection points: 2
#     Edge 31, Type (0, 0), BuildingBlock: OJICUG_clean_linker_0, # of connection points: 2
#     Edge 32, Type (0, 0), BuildingBlock: OJICUG_clean_linker_0, # of connection points: 2
#     Edge 33, Type (0, 0), BuildingBlock: OJICUG_clean_linker_0, # of connection points: 2
#     Edge 34, Type (0, 0), BuildingBlock: OJICUG_clean_linker_0, # of connection points: 2
#     Edge 35, Type (0, 0), BuildingBlock: OJICUG_clean_linker_0, # of connection points: 2
#     Edge 36, Type (0, 0), BuildingBlock: OJICUG_clean_linker_0, # of connection points: 2
#     Edge 37, Type (0, 0), BuildingBlock: OJICUG_clean_linker_0, # of connection points: 2
#     Edge 38, Type (0, 0), BuildingBlock: OJICUG_clean_linker_0, # of connection points: 2
#     Edge 39, Type (0, 0), BuildingBlock: OJICUG_clean_linker_0, # of connection points: 2
#     Edge 40, Type (0, 0), BuildingBlock: OJICUG_clean_linker_0, # of connection points: 2
#     Edge 41, Type (0, 0), BuildingBlock: OJICUG_clean_linker_0, # of connection points: 2
#     Edge 42, Type (0, 0), BuildingBlock: OJICUG_clean_linker_0, # of connection points: 2
#     Edge 43, Type (0, 0), BuildingBlock: OJICUG_clean_linker_0, # of connection points: 2
#     Edge 44, Type (0, 0), BuildingBlock: OJICUG_clean_linker_0, # of connection points: 2
#     Edge 45, Type (0, 0), BuildingBlock: OJICUG_clean_linker_0, # of connection points: 2
#     Edge 46, Type (0, 0), BuildingBlock: OJICUG_clean_linker_0, # of connection points: 2
#     Edge 47, Type (0, 0), BuildingBlock: OJICUG_clean_linker_0, # of connection points: 2
#     Edge 48, Type (0, 0), BuildingBlock: OJICUG_clean_linker_0, # of connection points: 2
#     Edge 49, Type (0, 0), BuildingBlock: OJICUG_clean_linker_0, # of connection points: 2
#     Edge 50, Type (0, 0), BuildingBlock: OJICUG_clean_linker_0, # of connection points: 2
#     Edge 51, Type (0, 0), BuildingBlock: OJICUG_clean_linker_0, # of connection points: 2
#     Edge 52, Type (0, 0), BuildingBlock: OJICUG_clean_linker_0, # of connection points: 2
#     Edge 53, Type (0, 0), BuildingBlock: OJICUG_clean_linker_0, # of connection points: 2
#     Edge 54, Type (0, 0), BuildingBlock: OJICUG_clean_linker_0, # of connection points: 2
#     Edge 55, Type (0, 0), BuildingBlock: OJICUG_clean_linker_0, # of connection points: 2
#     Edge 56, Type (0, 0), BuildingBlock: OJICUG_clean_linker_0, # of connection points: 2
#     Edge 57, Type (0, 0), BuildingBlock: OJICUG_clean_linker_0, # of connection points: 2
#     Edge 58, Type (0, 0), BuildingBlock: OJICUG_clean_linker_0, # of connection points: 2
#     Edge 59, Type (0, 0), BuildingBlock: OJICUG_clean_linker_0, # of connection points: 2
#     Edge 60, Type (0, 0), BuildingBlock: OJICUG_clean_linker_0, # of connection points: 2
#     Edge 61, Type (0, 0), BuildingBlock: OJICUG_clean_linker_0, # of connection points: 2
#     Edge 62, Type (0, 0), BuildingBlock: OJICUG_clean_linker_0, # of connection points: 2
#     Edge 63, Type (0, 0), BuildingBlock: OJICUG_clean_linker_0, # of connection points: 2
#     Edge 64, Type (0, 0), BuildingBlock: OJICUG_clean_linker_0, # of connection points: 2
#     Edge 65, Type (0, 0), BuildingBlock: OJICUG_clean_linker_0, # of connection points: 2
#     Edge 66, Type (0, 0), BuildingBlock: OJICUG_clean_linker_0, # of connection points: 2
#     Edge 67, Type (0, 0), BuildingBlock: OJICUG_clean_linker_0, # of connection points: 2
#     Edge 68, Type (0, 0), BuildingBlock: OJICUG_clean_linker_0, # of connection points: 2
#     Edge 69, Type (0, 0), BuildingBlock: OJICUG_clean_linker_0, # of connection points: 2
#     Edge 70, Type (0, 0), BuildingBlock: OJICUG_clean_linker_0, # of connection points: 2
#     Edge 71, Type (0, 0), BuildingBlock: OJICUG_clean_linker_0, # of connection points: 2
# Relax obj value: 0.017
# Max RMSD: 0.151
# Mean RMSD: 0.096
data_MOF--net-rhr--node1-ESEHIV_clean_sbu_0--edge1-OJICUG_clean_linker_0
_symmetry_space_group_name_H-M    P1
_symmetry_Int_Tables_number       1
_symmetry_cell_setting            triclinic
loop_
_symmetry_equiv_pos_as_xyz
'x, y, z'
_cell_length_a     40.303743
_cell_length_b     40.216902
_cell_length_c     40.355147
_cell_angle_alpha  90.29121
_cell_angle_beta   94.192759
_cell_angle_gamma 93.308025
loop_
_atom_site_label
_atom_site_type_symbol
_atom_site_fract_x
_atom_site_fract_y
_atom_site_fract_z
_atom_type_partial_charge
Cu0 Cu 0.38473 0.04677 0.32787 0.0
N1 N 0.37341 1.01658 0.29352 0.0
N2 N 0.37899 0.96799 0.26811 0.0
C3 C 0.38219 0.98511 0.29698 0.0
C4 C 0.36682 0.98973 0.24544 0.0
C5 C 0.36331 1.01983 0.26128 0.0
O6 O 0.42608 0.0728 0.31911 0.0
C7 C 0.35367 1.00729 0.37299 0.0
O8 O 0.32846 1.01861 0.35485 0.0
H9 H 0.39489 0.97637 0.31955 0.0
H10 H 0.35678 0.04297 0.24967 0.0
N11 N 0.35364 0.0786 0.33191 0.0
N12 N 0.32869 0.11841 0.35758 0.0
C13 C 0.35509 0.09934 0.35816 0.0
C14 C 0.32545 0.08477 0.31361 0.0
C15 C 0.30979 0.10932 0.3296 0.0
C16 C 0.44716 0.06512 0.29859 0.0
O17 O 0.44551 1.0349 0.28586 0.0
H18 H 0.37432 0.09898 0.37832 0.0
H19 H 0.31633 0.07154 0.29106 0.0
O20 O 0.38325 1.01802 0.36733 0.0
H21 H 0.36351 0.98525 0.21891 0.0
H22 H 0.28603 0.11906 0.32172 0.0
Cu23 Cu 0.05493 0.34729 0.37217 0.0
N24 N 0.07846 0.30805 0.37634 0.0
N25 N 0.10995 0.27208 0.40509 0.0
C26 C 0.09845 0.30299 0.40388 0.0
C27 C 0.09658 0.25691 0.37683 0.0
C28 C 0.07716 0.27917 0.35911 0.0
O29 O 1.03065 0.34699 0.41203 0.0
C30 C 0.10488 0.38005 0.34206 0.0
O31 O 0.09725 0.3538 0.32286 0.0
H32 H 0.10314 0.32147 0.42351 0.0
H33 H 0.06233 0.27422 0.336 0.0
N34 N 1.02217 0.35101 0.33666 0.0
N35 N 0.98055 0.37518 0.3073 0.0
C36 C 1.00794 0.37987 0.32865 0.0
C37 C 1.00321 0.32719 0.31954 0.0
C38 C 0.97759 0.34198 0.30147 0.0
C39 C 1.01401 0.31939 0.41555 0.0
O40 O 1.0139 0.29636 0.39236 0.0
H41 H 1.0162 0.40358 0.34015 0.0
H42 H 1.00655 0.30077 0.32152 0.0
O43 O 0.08852 0.38355 0.36762 0.0
H44 H 0.10036 0.23156 0.36953 0.0
H45 H 0.95769 0.32914 0.28608 0.0
Cu46 Cu 0.66408 0.07644 0.42047 0.0
N47 N 0.63058 0.10322 0.43234 0.0
N48 N 0.59672 0.14468 0.42317 0.0
C49 C 0.61096 0.11879 0.40985 0.0
C50 C 0.60783 0.14563 0.45551 0.0
C51 C 0.6286 0.11975 0.46119 0.0
O52 O 0.65222 0.0605 0.37474 0.0
C53 C 0.71796 0.10908 0.45739 0.0
O54 O 0.70629 0.08991 0.48063 0.0
H55 H 0.61063 0.11407 0.38338 0.0
H56 H 0.64387 0.11558 0.48378 0.0
N57 N 0.66614 0.03856 0.44687 0.0
N58 N 0.68063 0.98849 0.46466 0.0
C59 C 0.68619 1.01342 0.44306 0.0
C60 C 0.64707 1.02935 0.47161 0.0
C61 C 0.656 0.99849 0.48271 0.0
C62 C 0.62315 0.04605 0.37006 0.0
O63 O 0.60455 0.04312 0.39542 0.0
H64 H 0.70401 1.01324 0.42427 0.0
H65 H 0.62787 0.04392 0.48072 0.0
O66 O 0.70493 0.10548 0.42767 0.0
H67 H 0.60359 0.16522 0.47293 0.0
H68 H 0.64542 0.98473 0.50276 0.0
Cu69 Cu 1.02116 0.71668 0.34451 0.0
N70 N 0.04312 0.67631 0.34369 0.0
N71 N 0.076 0.64007 0.32111 0.0
C72 C 0.07167 0.67237 0.32869 0.0
C73 C 0.04942 0.62297 0.33257 0.0
C74 C 1.02924 0.64526 0.34625 0.0
O75 O 0.99019 0.7127 0.3045 0.0
C76 C 0.05649 0.78282 0.35375 0.0
O77 O 1.0278 0.79659 0.3545 0.0
H78 H 0.08704 0.69316 0.32028 0.0
H79 H 1.00477 0.63944 0.35475 0.0
N80 N 0.99351 0.72079 0.38071 0.0
N81 N 0.96165 0.74391 0.41756 0.0
C82 C 0.99024 0.74693 0.40162 0.0
C83 C 0.96632 0.70049 0.38434 0.0
C84 C 0.94686 0.71447 0.4068 0.0
C85 C 0.99602 0.69604 0.27867 0.0
O86 O 1.02701 0.69102 0.27304 0.0
H87 H 1.00729 0.76865 0.40379 0.0
H88 H 0.95984 0.67807 0.36981 0.0
O89 O 0.05713 0.75185 0.347 0.0
H90 H 0.04402 0.59638 0.3299 0.0
H91 H 0.92292 0.70426 0.4137 0.0
Cu92 Cu 0.38456 1.00816 0.69438 0.0
N93 N 0.4217 0.03782 0.70198 0.0
N94 N 0.45631 0.07225 0.73392 0.0
C95 C 0.42506 0.05835 0.72859 0.0
C96 C 0.47331 0.05996 0.70938 0.0
C97 C 0.45195 0.03851 0.68987 0.0
O98 O 0.39116 0.97578 0.73051 0.0
C99 C 0.34496 0.05347 0.66445 0.0
O100 O 0.37208 0.05573 0.64824 0.0
H101 H 0.40537 0.06103 0.74507 0.0
H102 H 0.45862 1.02303 0.6697 0.0
N103 N 0.38094 0.98545 0.65362 0.0
N104 N 0.34983 0.96128 0.61097 0.0
C105 C 0.35285 0.96718 0.64399 0.0
C106 C 0.39664 0.9911 0.62567 0.0
C107 C 0.37749 0.97608 0.59927 0.0
C108 C 0.41519 0.95664 0.72761 0.0
O109 O 0.42978 0.95706 0.69954 0.0
H110 H 0.33349 0.96106 0.66055 0.0
H111 H 0.41874 1.00736 0.62401 0.0
O112 O 0.34471 1.03478 0.69009 0.0
H113 H 0.49952 0.06523 0.70624 0.0
H114 H 0.38283 0.97717 0.57339 0.0
Cu115 Cu 0.09278 0.38997 0.73943 0.0
N116 N 0.11456 0.35118 0.7315 0.0
N117 N 0.14736 0.31547 0.70945 0.0
C118 C 0.13082 0.3435 0.70472 0.0
C119 C 0.14112 0.305 0.74017 0.0
C120 C 0.12091 0.32704 0.75368 0.0
O121 O 0.05106 0.38998 0.71162 0.0
C122 C 0.15401 0.42751 0.74403 0.0
O123 O 0.16542 0.3979 0.74905 0.0
H124 H 0.13223 0.35917 0.6831 0.0
H125 H 0.11265 0.32621 0.77855 0.0
N126 N 0.08112 0.38922 0.78313 0.0
N127 N 0.07273 0.40714 0.83415 0.0
C128 C 0.08706 0.41409 0.80556 0.0
C129 C 0.06247 0.36565 0.79787 0.0
C130 C 0.05737 0.37654 0.8294 0.0
C131 C 0.04866 0.3869 0.68014 0.0
O132 O 0.07597 0.38673 0.66429 0.0
H133 H 0.10061 0.43728 0.80044 0.0
H134 H 0.05222 0.34276 0.786 0.0
O135 O 0.12291 0.42969 0.73642 0.0
H136 H 0.15101 0.28332 0.75224 0.0
H137 H 0.04175 0.36381 0.84661 0.0
Cu138 Cu 0.75247 0.04455 0.70957 0.0
N139 N 0.74919 1.01894 0.74795 0.0
N140 N 0.72455 0.99346 0.78966 0.0
C141 C 0.72115 1.0147 0.76404 0.0
C142 C 0.75603 0.98364 0.78955 0.0
C143 C 0.77121 0.99947 0.76379 0.0
O144 O 0.71454 0.07459 0.71009 0.0
C145 C 0.78541 1.00135 0.6682 0.0
O146 O 0.81015 1.01052 0.68984 0.0
H147 H 0.69822 1.02611 0.75629 0.0
H148 H 0.79624 0.99644 0.75672 0.0
N149 N 0.79068 0.07332 0.71157 0.0
N150 N 0.82452 0.11467 0.69472 0.0
C151 C 0.79391 0.09927 0.69104 0.0
C152 C 0.82031 0.07238 0.72927 0.0
C153 C 0.84146 0.09786 0.71862 0.0
C154 C 0.71636 0.09403 0.73566 0.0
O155 O 0.74255 0.09253 0.75688 0.0
H156 H 0.77435 0.10613 0.67296 0.0
H157 H 0.82641 0.05397 0.74783 0.0
O158 O 0.75678 1.01321 0.67147 0.0
H159 H 0.76721 0.96617 0.8067 0.0
H160 H 0.8671 0.10361 0.72769 0.0
Cu161 Cu 1.02941 0.69046 0.69059 0.0
N162 N 0.06017 0.72307 0.67519 0.0
N163 N 0.09605 0.75075 0.64344 0.0
C164 C 0.0773 0.72216 0.64757 0.0
C165 C 0.08999 0.7704 0.66934 0.0
C166 C 0.06782 0.75349 0.68852 0.0
O167 O 0.98675 0.69528 0.66525 0.0
C168 C 0.07648 0.64288 0.6973 0.0
O169 O 0.09769 0.66748 0.69056 0.0
H170 H 0.07556 0.70109 0.63063 0.0
H171 H 0.05748 0.7631 0.71034 0.0
N172 N 1.02418 0.69415 0.73621 0.0
N173 N 1.01083 0.67521 0.78605 0.0
C174 C 1.00413 0.67304 0.75276 0.0
C175 C 0.04454 0.71001 0.75982 0.0
C176 C 1.03616 0.6987 0.79047 0.0
C177 C 0.96436 0.712 0.67717 0.0
O178 O 0.96941 0.72413 0.7075 0.0
H179 H 0.98634 0.65508 0.74035 0.0
H180 H 0.06581 0.72645 0.75518 0.0
O181 O 0.04561 0.64596 0.68961 0.0
H182 H 0.10078 0.79533 0.67433 0.0
H183 H 0.04946 0.70554 0.81401 0.0
Cu184 Cu 0.36477 0.38429 1.02714 0.0
N185 N 0.32349 0.38378 0.04678 0.0
N186 N 0.28784 0.40623 0.08018 0.0
C187 C 0.31986 0.39922 0.07611 0.0
C188 C 0.27059 0.39448 0.05218 0.0
C189 C 0.29253 0.38102 0.03165 0.0
O190 O 0.36715 0.42972 1.01108 0.0
C191 C 0.39886 0.34484 0.07156 0.0
O192 O 0.37673 0.323 0.0573 0.0
H193 H 0.3409 0.40815 0.0926 0.0
H194 H 0.28664 0.37278 1.00627 0.0
N195 N 0.36882 0.35356 0.99171 0.0
N196 N 0.392 0.32562 0.9514 0.0
C197 C 0.39739 0.34692 0.97771 0.0
C198 C 0.34464 0.33543 0.97386 0.0
C199 C 0.35874 0.31839 0.94911 0.0
C200 C 0.36055 0.43613 0.98053 0.0
O201 O 0.3646 0.4133 0.95806 0.0
H202 H 0.42153 0.35843 0.986 0.0
H203 H 0.31847 0.33494 0.97813 0.0
O204 O 0.39869 0.37503 0.06212 0.0
H205 H 0.24426 0.39697 0.04608 0.0
H206 H 0.3454 0.30192 0.93078 0.0
Cu207 Cu 0.74234 0.34266 0.03068 0.0
N208 N 0.78015 0.34366 1.00605 0.0
N209 N 0.8205 0.37241 0.98113 0.0
C210 C 0.78959 0.37248 0.99169 0.0
C211 C 0.8309 0.34179 0.98844 0.0
C212 C 0.80588 0.32401 1.00396 0.0
O213 O 0.74822 0.38544 0.05452 0.0
C214 C 0.70113 0.30538 0.98638 0.0
O215 O 0.72399 0.28465 0.9956 0.0
H216 H 0.77511 0.39433 0.9918 0.0
H217 H 0.80755 0.2998 1.01529 0.0
N218 N 0.73669 0.31032 0.06365 0.0
N219 N 0.70777 0.28445 0.10258 0.0
C220 C 0.71228 0.31235 0.08455 0.0
C221 C 0.74841 0.27991 0.06864 0.0
C222 C 0.73054 0.26386 0.09265 0.0
C223 C 0.77693 0.38979 0.07026 0.0
O224 O 0.79719 0.36532 0.07075 0.0
H225 H 0.69667 0.33335 0.08491 0.0
H226 H 0.76728 0.26946 0.05469 0.0
O227 O 0.70387 0.33491 0.99857 0.0
H228 H 0.8558 0.33395 0.98562 0.0
H229 H 0.7336 0.23879 0.1015 0.0
Cu230 Cu 0.7222 0.73273 1.03008 0.0
N231 N 0.73066 0.77146 0.05516 0.0
N232 N 0.72134 0.80946 0.09324 0.0
C233 C 0.70749 0.78702 0.07064 0.0
C234 C 0.75458 0.8081 0.09182 0.0
C235 C 0.76027 0.78457 0.0682 0.0
O236 O 0.68188 0.73999 1.00096 0.0
C237 C 0.71777 0.66697 0.06104 0.0
O238 O 0.71315 0.65363 0.03115 0.0
H239 H 0.68113 0.77984 0.06754 0.0
H240 H 0.7842 0.77592 0.06271 0.0
N241 N 0.75973 0.72644 1.00672 0.0
N242 N 0.80582 0.70417 0.99153 0.0
C243 C 0.77723 0.69894 1.00655 0.0
C244 C 0.77803 0.74993 0.99134 0.0
C245 C 0.80657 0.73625 0.98194 0.0
C246 C 0.68146 0.74524 0.96969 0.0
O247 O 0.70831 0.74048 0.95414 0.0
H248 H 0.77037 0.6761 1.01889 0.0
H249 H 0.77168 0.77557 0.9884 0.0
O250 O 0.71886 0.69852 0.06434 0.0
H251 H 0.77333 0.82183 0.10786 0.0
H252 H 0.82655 0.74898 0.96961 0.0
Cu253 Cu 0.36135 0.74996 0.06077 0.0
N254 N 0.32395 0.75054 1.03021 0.0
N255 N 0.28651 0.73155 0.98985 0.0
C256 C 0.31016 0.72353 1.01339 0.0
C257 C 0.28474 0.76484 0.9924 0.0
C258 C 0.30808 0.77655 1.01716 0.0
O259 O 0.35309 0.71553 0.09371 0.0
C260 C 0.40091 0.74526 1.00538 0.0
O261 O 0.37313 0.73825 0.98706 0.0
H262 H 0.31846 0.69864 1.01733 0.0
H263 H 0.31408 0.80233 1.02395 0.0
N264 N 0.3732 0.7911 0.08177 0.0
N265 N 0.41 0.83216 0.10077 0.0
C266 C 0.40526 0.7999 0.09111 0.0
C267 C 0.35656 0.81866 0.08623 0.0
C268 C 0.3792 0.844 0.09811 0.0
C269 C 0.32529 0.71455 0.10698 0.0
O270 O 0.30407 0.73721 0.09862 0.0
H271 H 0.42482 0.78271 0.09024 0.0
H272 H 0.33016 0.82061 0.08029 0.0
O273 O 0.40083 0.74361 0.03689 0.0
H274 H 0.26898 0.7798 0.97636 0.0
H275 H 0.37346 0.86937 0.10332 0.0
Cu276 Cu 0.94362 0.53901 0.92906 0.0
N277 N 0.98483 0.52203 0.94001 0.0
N278 N 1.02891 0.49373 0.92944 0.0
C279 C 1.00484 0.51293 0.91685 0.0
C280 C 1.02402 0.49084 0.96206 0.0
C281 C 0.99678 0.50853 0.96858 0.0
O282 O 0.94799 0.56366 0.88754 0.0
C283 C 0.90241 0.49037 0.9563 0.0
O284 O 0.91491 0.50635 0.98325 0.0
H285 H 0.99949 0.51716 0.89057 0.0
H286 H 0.9849 0.50909 0.99174 0.0
N287 N 0.93293 0.57002 0.96048 0.0
N288 N 0.90538 0.61053 0.98184 0.0
C289 C 0.90452 0.58604 0.95885 0.0
C290 C 0.95242 0.58465 0.98558 0.0
C291 C 0.93547 0.60988 0.99875 0.0
C292 C 0.96841 0.5892 0.89062 0.0
O293 O 0.98403 0.59563 0.91986 0.0
H294 H 0.88435 0.58101 0.93994 0.0
H295 H 0.9777 0.57846 0.99272 0.0
O296 O 0.91074 0.50087 0.92808 0.0
H297 H 1.03755 0.47512 0.97934 0.0
H298 H 0.94476 0.62687 1.01863 0.0
Cu299 Cu 0.54513 0.8752 0.87711 0.0
N300 N 0.51951 0.87077 0.91369 0.0
N301 N 0.48927 0.84222 0.94931 0.0
C302 C 0.50051 0.84295 0.91869 0.0
C303 C 0.50151 0.87096 0.96418 0.0
C304 C 0.52028 0.88856 0.94211 0.0
O305 O 0.57291 0.83633 0.8814 0.0
C306 C 0.49105 0.90067 0.83996 0.0
O307 O 0.48884 0.91531 0.86882 0.0
H308 H 0.4968 0.82267 0.90081 0.0
H309 H 0.53488 0.91166 0.94714 0.0
N310 N 0.57437 0.91307 0.87916 0.0
N311 N 0.61699 0.94716 0.86544 0.0
C312 C 0.60314 0.91574 0.86411 0.0
C313 C 0.56976 0.94384 0.89054 0.0
C314 C 0.59605 0.96492 0.88217 0.0
C315 C 0.5887 0.83532 0.9101 0.0
O316 O 0.58682 0.86037 0.93075 0.0
H317 H 0.61259 0.8954 0.85063 0.0
H318 H 0.54808 0.95082 0.90259 0.0
O319 O 0.51403 0.88023 0.83736 0.0
H320 H 0.49778 0.87841 0.98939 0.0
H321 H 0.59895 0.99143 0.88715 0.0
Cu322 Cu 0.20848 0.57434 0.86843 0.0
N323 N 0.1627 0.57715 0.85963 0.0
N324 N 0.12306 0.58502 0.81906 0.0
C325 C 0.15237 0.59655 0.83435 0.0
C326 C 0.11378 0.55774 0.83612 0.0
C327 C 0.13854 0.55264 0.8609 0.0
O328 O 0.2195 0.55703 0.82554 0.0
C329 C 0.21553 0.63718 0.89969 0.0
O330 O 0.18434 0.63002 0.90566 0.0
H331 H 0.16843 0.61598 0.82443 0.0
H332 H 0.14089 0.53013 0.87519 0.0
N333 N 0.22081 0.54597 0.90317 0.0
N334 N 0.25516 0.51826 0.9376 0.0
C335 C 0.25259 0.53898 0.91152 0.0
C336 C 0.2026 0.53004 0.92553 0.0
C337 C 0.22377 0.51274 0.94674 0.0
C338 C 0.22893 0.52777 0.82115 0.0
O339 O 0.24336 0.51219 0.84625 0.0
H340 H 0.27343 0.54856 0.89823 0.0
H341 H 0.17591 0.5308 0.92634 0.0
O342 O 0.23007 0.61756 0.88131 0.0
H343 H 0.09296 0.54048 0.82859 0.0
H344 H 0.21649 0.49646 0.96656 0.0
Cu345 Cu 0.55901 0.2163 0.84249 0.0
N346 N 0.52587 0.24829 0.84273 0.0
N347 N 0.48543 0.27754 0.86292 0.0
C348 C 0.51121 0.25792 0.8702 0.0
C349 C 0.48416 0.28062 0.82951 0.0
C350 C 0.50896 0.26272 0.81722 0.0
O351 O 0.59067 0.22766 0.88048 0.0
C352 C 0.50596 0.16656 0.83579 0.0
O353 O 0.48625 0.19065 0.84081 0.0
H354 H 0.51823 0.24916 0.8949 0.0
H355 H 0.51336 0.25947 0.79136 0.0
N356 N 0.58372 0.21251 0.80442 0.0
N357 N 0.61713 0.18514 0.77214 0.0
C358 C 0.60932 0.19213 0.80352 0.0
C359 C 0.57493 0.21859 0.77227 0.0
C360 C 0.59551 0.20206 0.75246 0.0
C361 C 0.60058 0.25833 0.88407 0.0
O362 O 0.58959 0.27982 0.86207 0.0
H363 H 0.62013 0.18042 0.82551 0.0
H364 H 0.55358 0.23201 0.76357 0.0
O365 O 0.53725 0.17166 0.8425 0.0
H366 H 0.46616 0.29436 0.81479 0.0
H367 H 0.59378 0.20162 0.72557 0.0
Cu368 Cu 0.8578 0.54347 0.1999 0.0
N369 N 0.81863 0.56719 0.19693 0.0
N370 N 0.77827 0.59539 0.17055 0.0
C371 C 0.80613 0.5789 0.16764 0.0
C372 C 0.77304 0.59433 0.20322 0.0
C373 C 0.79784 0.57663 0.21944 0.0
O374 O 0.8515 0.51441 0.16044 0.0
C375 C 0.89357 0.59781 0.22839 0.0
O376 O 0.86893 0.59306 0.24773 0.0
H377 H 0.8177 0.57572 0.14454 0.0
H378 H 0.80059 0.57126 0.2457 0.0
N379 N 0.86403 0.51395 0.23576 0.0
N380 N 0.88792 0.47304 0.26508 0.0
C381 C 0.892 0.49733 0.24238 0.0
C382 C 0.84149 0.49982 0.25516 0.0
C383 C 0.85611 0.47463 0.2732 0.0
C384 C 0.82306 0.49824 0.15834 0.0
O385 O 0.8031 0.50171 0.18228 0.0
H386 H 0.91426 0.50156 0.22915 0.0
H387 H 0.81575 0.50614 0.25491 0.0
O388 O 0.89505 0.57762 0.20398 0.0
H389 H 0.75265 0.6053 0.2145 0.0
H390 H 0.84394 0.45816 0.29029 0.0
Cu391 Cu 0.56685 0.90944 0.22068 0.0
N392 N 0.60341 0.88415 0.2159 0.0
N393 N 0.64535 0.86178 0.1924 0.0
C394 C 0.62073 0.88305 0.18875 0.0
C395 C 0.64389 0.84951 0.22336 0.0
C396 C 0.61791 0.86342 0.23785 0.0
O397 O 0.53929 0.91132 0.17849 0.0
C398 C 0.56609 0.9714 0.25509 0.0
O399 O 0.53358 0.96558 0.25197 0.0
H400 H 0.61484 0.89707 0.16647 0.0
H401 H 0.60972 0.85833 0.26235 0.0
N402 N 0.53796 0.88949 0.2498 0.0
N403 N 0.48573 0.88711 0.26551 0.0
C404 C 0.50546 0.88389 0.24026 0.0
C405 C 0.53929 0.89388 0.28292 0.0
C406 C 0.50711 0.89229 0.2927 0.0
C407 C 0.53444 0.88431 0.16155 0.0
O408 O 0.55216 0.85897 0.17028 0.0
H409 H 0.49617 0.88279 0.21454 0.0
H410 H 0.56129 0.90308 0.2979 0.0
O411 O 0.58429 0.95197 0.2405 0.0
H412 H 0.65955 0.83083 0.23421 0.0
H413 H 0.50007 0.89981 0.31689 0.0
Cu414 Cu 0.21889 0.53849 0.22266 0.0
N415 N 0.22234 0.5136 0.26162 0.0
N416 N 0.2018 0.47771 0.29821 0.0
C417 C 0.20277 0.48594 0.26589 0.0
C418 C 0.2218 0.50109 0.31505 0.0
C419 C 0.23443 0.52326 0.29238 0.0
O420 O 0.17816 0.56267 0.22867 0.0
C421 C 0.24643 0.4897 0.18612 0.0
O422 O 0.26743 0.49336 0.21254 0.0
H423 H 0.18696 0.47401 0.2459 0.0
H424 H 0.24903 0.54623 0.29817 0.0
N425 N 0.25499 0.56959 0.21885 0.0
N426 N 0.28644 0.6101 0.19642 0.0
C427 C 0.25596 0.59414 0.19626 0.0
C428 C 0.28592 0.56998 0.23392 0.0
C429 C 0.30538 0.59494 0.22014 0.0
C430 C 0.18143 0.5862 0.25047 0.0
O431 O 0.21154 0.59495 0.2634 0.0
H432 H 0.23502 0.5992 0.17905 0.0
H433 H 0.29405 0.55264 0.25281 0.0
O434 O 0.22061 0.50702 0.18469 0.0
H435 H 0.22566 0.503 0.34183 0.0
H436 H 0.3315 0.60118 0.22683 0.0
Cu437 Cu 0.54853 0.23534 0.22407 0.0
N438 N 0.52055 0.26897 0.21035 0.0
N439 N 0.48734 0.30056 0.17866 0.0
C440 C 0.50309 0.27174 0.18082 0.0
C441 C 0.4952 0.31638 0.20799 0.0
C442 C 0.51562 0.29684 0.22746 0.0
O443 O 0.58547 0.23503 0.19454 0.0
C444 C 0.5333 0.16709 0.24078 0.0
O445 O 0.56571 0.16579 0.2464 0.0
H446 H 0.50264 0.25338 0.16107 0.0
H447 H 0.52655 0.30274 0.25222 0.0
N448 N 0.56567 0.24504 0.26735 0.0
N449 N 0.5732 0.23592 0.32191 0.0
C450 C 0.55237 0.2319 0.29426 0.0
C451 C 0.59559 0.25901 0.27832 0.0
C452 C 0.60026 0.25351 0.31201 0.0
C453 C 0.60012 0.2633 0.18901 0.0
O454 O 0.58939 0.28986 0.20293 0.0
H455 H 0.52894 0.21727 0.2929 0.0
H456 H 0.61393 0.26975 0.26264 0.0
O457 O 0.52154 0.19335 0.22802 0.0
H458 H 0.48658 0.34024 0.21501 0.0
H459 H 0.62324 0.25893 0.32715 0.0
Cu460 Cu 0.83748 0.84539 0.53759 0.0
N461 N 0.83763 0.80901 0.56651 0.0
N462 N 0.85823 0.7694 0.59947 0.0
C463 C 0.86467 0.79233 0.57618 0.0
C464 C 0.82575 0.7716 0.6047 0.0
C465 C 0.81304 0.7959 0.58417 0.0
O466 O 0.87012 0.83601 0.50438 0.0
C467 C 0.81141 0.89227 0.57896 0.0
O468 O 0.78702 0.86917 0.57562 0.0
H469 H 0.88911 0.79802 0.56767 0.0
H470 H 0.7879 0.80406 0.58301 0.0
N471 N 0.79689 0.8467 0.51233 0.0
N472 N 0.75382 0.8726 0.48851 0.0
C473 C 0.78638 0.87518 0.49906 0.0
C474 C 0.77025 0.82483 0.50946 0.0
C475 C 0.74351 0.84084 0.49483 0.0
C476 C 0.90165 0.83284 0.50723 0.0
O477 O 0.91886 0.84292 0.5347 0.0
H478 H 0.80161 0.89828 0.50022 0.0
H479 H 0.76966 0.79989 0.51936 0.0
O480 O 0.83854 0.88726 0.56507 0.0
H481 H 0.81238 0.75724 0.62261 0.0
H482 H 0.71817 0.83042 0.49075 0.0
Cu483 Cu 0.21825 0.85589 0.47845 0.0
N484 N 0.25766 0.85972 0.45621 0.0
N485 N 0.29885 0.89195 0.43599 0.0
C486 C 0.26618 0.88875 0.44165 0.0
C487 C 0.3114 0.8632 0.44688 0.0
C488 C 0.28602 0.84355 0.45978 0.0
O489 O 0.22767 0.89179 0.51108 0.0
C490 C 0.17872 0.83644 0.42287 0.0
O491 O 0.20449 0.81808 0.42116 0.0
H492 H 0.24892 0.90819 0.4375 0.0
H493 H 0.28881 0.82062 0.47332 0.0
N494 N 0.20881 0.81695 0.5026 0.0
N495 N 0.18257 0.78582 0.53995 0.0
C496 C 0.18594 0.81591 0.52538 0.0
C497 C 0.22034 0.78623 0.50226 0.0
C498 C 0.20421 0.76697 0.52531 0.0
C499 C 0.24873 0.88416 0.53464 0.0
O500 O 0.25802 0.85345 0.53654 0.0
H501 H 0.17182 0.83709 0.53079 0.0
H502 H 0.2391 0.7784 0.48652 0.0
O503 O 0.17974 0.85826 0.44611 0.0
H504 H 0.33745 0.85781 0.4478 0.0
H505 H 0.20852 0.74127 0.53108 0.0
Cu506 Cu 0.24031 0.18653 0.55072 0.0
N507 N 0.24542 0.21925 0.58385 0.0
N508 N 0.23162 0.25397 0.62314 0.0
C509 C 0.22066 0.23531 0.59628 0.0
C510 C 0.26456 0.24953 0.62777 0.0
C511 C 0.27302 0.22807 0.60343 0.0
O512 O 0.19958 0.19397 0.52207 0.0
C513 C 0.24703 0.13801 0.60326 0.0
O514 O 0.23516 0.1604 0.62225 0.0
H515 H 0.19479 0.23171 0.58704 0.0
H516 H 0.29717 0.21823 0.6012 0.0
N517 N 0.27391 0.19211 0.52169 0.0
N518 N 0.29889 0.18584 0.4747 0.0
C519 C 0.27312 0.1759 0.49246 0.0
C520 C 0.30111 0.21322 0.52265 0.0
C521 C 0.31678 0.20921 0.49369 0.0
C522 C 0.2003 0.22311 0.5094 0.0
O523 O 0.22585 0.24381 0.51834 0.0
H524 H 0.25391 0.15703 0.48451 0.0
H525 H 0.30868 0.23074 0.54255 0.0
O526 O 0.24676 0.14297 0.5719 0.0
H527 H 0.2811 0.26017 0.6479 0.0
H528 H 0.33918 0.22284 0.48691 0.0
Cu529 Cu 0.88446 0.25927 0.5606 0.0
N530 N 0.84388 0.25236 0.53481 0.0
N531 N 0.80344 0.22195 0.50526 0.0
C532 C 0.83038 0.22157 0.5272 0.0
C533 C 0.79985 0.25453 0.4987 0.0
C534 C 0.82487 0.27324 0.51696 0.0
O535 O 0.88547 0.22282 0.59211 0.0
C536 C 0.92189 0.28944 0.51472 0.0
O537 O 0.90011 0.3118 0.51928 0.0
H538 H 0.84105 0.19914 0.53675 0.0
H539 H 0.82934 0.30001 0.51654 0.0
N540 N 0.8919 0.29866 0.58585 0.0
N541 N 0.9242 0.33745 0.61473 0.0
C542 C 0.92321 0.31011 0.59523 0.0
C543 C 0.87201 0.31951 0.60007 0.0
C544 C 0.892 0.34344 0.61821 0.0
C545 C 0.8615 0.22325 0.61101 0.0
O546 O 0.84114 0.24758 0.60761 0.0
H547 H 0.94503 0.29783 0.58859 0.0
H548 H 0.84506 0.31714 0.59799 0.0
O549 O 0.91948 0.2618 0.53003 0.0
H550 H 0.78061 0.26418 0.48192 0.0
H551 H 0.88356 0.3635 0.63284 0.0
C552 C 0.33914 0.17193 0.4342 0.0
C553 C 0.3061 0.17281 0.44286 0.0
H554 H 0.37216 0.15434 0.39974 0.0
C555 C 0.28031 0.1588 0.42082 0.0
H556 H 0.35955 0.18251 0.45057 0.0
C557 C 0.28753 0.1425 0.39177 0.0
C558 C 0.32072 0.13978 0.38424 0.0
H559 H 0.25452 0.15973 0.42641 0.0
H560 H 0.26725 0.13061 0.37615 0.0
C561 C 0.34636 0.15556 0.40523 0.0
C562 C 0.97969 0.33818 0.46059 0.0
C563 C 0.99407 0.31251 0.44416 0.0
H564 H 0.94516 0.35078 0.49581 0.0
C565 C 0.9868 0.27925 0.4532 0.0
H566 H 0.98486 0.36395 0.45406 0.0
C567 C 0.96442 0.27165 0.47724 0.0
C568 C 0.94846 0.29717 0.49223 0.0
H569 H 0.99786 0.25896 0.44106 0.0
H570 H 0.95858 0.2458 0.48304 0.0
C571 C 0.95682 0.33054 0.48425 0.0
C572 C 0.70083 0.90102 0.48799 0.0
C573 C 0.73385 0.90014 0.4791 0.0
H574 H 0.65793 0.92973 0.49026 0.0
C575 C 0.74822 0.92807 0.46357 0.0
H576 H 0.6891 0.88005 0.50023 0.0
C577 C 0.73056 0.95667 0.45822 0.0
C578 C 0.698 0.95813 0.46828 0.0
H579 H 0.77349 0.92805 0.45615 0.0
H580 H 0.74295 0.97801 0.44721 0.0
C581 C 0.68313 0.92972 0.4827 0.0
C582 C 0.14827 0.80197 0.37726 0.0
C583 C 0.14783 0.82746 0.40127 0.0
H584 H 0.12006 0.76821 0.34338 0.0
C585 C 0.11723 0.84116 0.40629 0.0
H586 H 0.17133 0.79092 0.37238 0.0
C587 C 0.08758 0.82822 0.38912 0.0
C588 C 0.08794 0.80113 0.36686 0.0
H589 H 0.11593 0.86079 0.42454 0.0
H590 H 0.0642 0.83816 0.39475 0.0
C591 C 0.11879 0.78888 0.36048 0.0
C592 C 0.28586 0.93604 0.54117 0.0
C593 C 0.26846 0.90925 0.55562 0.0
H594 H 0.32604 0.97355 0.54748 0.0
C595 C 0.27665 0.90153 0.58897 0.0
H596 H 0.2806 0.94185 0.51519 0.0
C597 C 0.30264 0.91928 0.60725 0.0
C598 C 0.32148 0.94484 0.59244 0.0
H599 H 0.26405 0.8805 0.60041 0.0
H600 H 0.30908 0.91181 0.63252 0.0
C601 C 0.31233 0.95362 0.55941 0.0
C602 C 0.19804 0.28617 0.70042 0.0
C603 C 0.16927 0.30112 0.68749 0.0
H604 H 0.24066 0.25969 0.68995 0.0
C605 C 0.16205 0.30153 0.65294 0.0
H606 H 0.20439 0.2859 0.72695 0.0
C607 C 0.18276 0.28641 0.63176 0.0
C608 C 0.21135 0.27115 0.64474 0.0
H609 H 0.13997 0.31282 0.64241 0.0
H610 H 0.17645 0.28658 0.60522 0.0
C611 C 0.21899 0.27154 0.67925 0.0
C612 C 0.82322 0.1948 0.64882 0.0
C613 C 0.85398 0.19602 0.63436 0.0
H614 H 0.79005 0.16796 0.67942 0.0
C615 C 0.8761 0.17085 0.64187 0.0
H616 H 0.80553 0.21373 0.64374 0.0
C617 C 0.86716 0.14464 0.66295 0.0
C618 C 0.83581 0.14305 0.67623 0.0
H619 H 0.89999 0.1712 0.63118 0.0
H620 H 0.88409 0.12502 0.66788 0.0
C621 C 0.81421 0.16856 0.66926 0.0
C622 C 0.93575 0.72437 0.62161 0.0
C623 C 0.93484 0.72172 0.65624 0.0
H624 H 0.91183 0.74195 0.57629 0.0
C625 C 0.90671 0.73201 0.67128 0.0
H626 H 0.95715 0.71679 0.60934 0.0
C627 C 0.88069 0.746 0.65235 0.0
C628 C 0.88252 0.75057 0.61806 0.0
H629 H 0.90526 0.73021 0.69792 0.0
H630 H 0.86 0.75489 0.66485 0.0
C631 C 0.90997 0.73896 0.60275 0.0
C632 C 0.42592 0.29972 0.10412 0.0
C633 C 0.42283 0.33393 0.09839 0.0
H634 H 0.44875 0.26237 0.13404 0.0
C635 C 0.44207 0.35706 0.119 0.0
H636 H 0.41155 0.28119 0.08866 0.0
C637 C 0.46339 0.34615 0.14522 0.0
C638 C 0.46618 0.3119 0.1511 0.0
H639 H 0.44027 0.38356 0.11524 0.0
H640 H 0.47781 0.36453 0.16078 0.0
C641 C 0.44743 0.28886 0.13003 0.0
C642 C 0.77743 0.46779 0.12324 0.0
C643 C 0.81187 0.47462 0.13096 0.0
H644 H 0.73919 0.43598 0.09748 0.0
C645 C 0.8345 0.45585 0.11529 0.0
H646 H 0.75935 0.48211 0.13477 0.0
C647 C 0.82285 0.42915 0.09433 0.0
C648 C 0.78839 0.42109 0.08819 0.0
H649 H 0.86108 0.46049 0.12076 0.0
H650 H 0.84092 0.41409 0.08373 0.0
C651 C 0.76579 0.44148 0.10183 0.0
C652 C 0.71711 0.82872 0.15091 0.0
C653 C 0.70391 0.82605 0.11773 0.0
H654 H 0.70849 0.84214 0.20095 0.0
C655 C 0.67206 0.83715 0.10928 0.0
H656 H 0.74147 0.81998 0.15813 0.0
C657 C 0.65331 0.84981 0.13364 0.0
C658 C 0.6659 0.8513 0.16706 0.0
H659 H 0.66143 0.83539 0.08386 0.0
H660 H 0.62842 0.85721 0.12647 0.0
C661 C 0.69814 0.84102 0.17542 0.0
C662 C 0.32966 0.64023 0.16517 0.0
C663 C 0.2967 0.63663 0.17465 0.0
H664 H 0.36459 0.66733 0.13615 0.0
C665 C 0.27365 0.65912 0.16203 0.0
H666 H 0.34797 0.62314 0.17419 0.0
C667 C 0.28317 0.68445 0.14044 0.0
C668 C 0.31596 0.68785 0.13057 0.0
H669 H 0.24822 0.65733 0.16909 0.0
H670 H 0.26459 0.70122 0.13126 0.0
C671 C 0.33914 0.66543 0.14322 0.0
C672 C 0.45186 0.78435 1.01107 0.0
C673 C 0.42789 0.7655 0.99064 0.0
H674 H 0.48994 0.82394 1.01399 0.0
C675 C 0.42654 0.77049 0.95614 0.0
H676 H 0.45377 0.781 0.0377 0.0
C677 C 0.44722 0.79511 0.94261 0.0
C678 C 0.46965 0.81541 0.96325 0.0
H679 H 0.40841 0.75643 0.93966 0.0
H680 H 0.44457 0.79919 0.91609 0.0
C681 C 0.47234 0.80925 0.99755 0.0
C682 C 0.33441 0.4737 0.93842 0.0
C683 C 0.33794 0.46289 0.97144 0.0
H684 H 0.30531 0.49987 0.90181 0.0
C685 C 0.31554 0.47337 0.99402 0.0
H686 H 0.35109 0.4658 0.92042 0.0
C687 C 0.28889 0.49243 0.9832 0.0
C688 C 0.28448 0.50189 0.94978 0.0
H689 H 0.31728 0.4651 1.01956 0.0
H690 H 0.27121 0.49903 1.00073 0.0
C691 C 0.30815 0.49321 0.92777 0.0
C692 C 0.63022 0.30457 0.91876 0.0
C693 C 0.62467 0.27019 0.91184 0.0
H694 H 0.65832 0.34278 0.94798 0.0
C695 C 0.64316 0.2477 0.9309 0.0
H696 H 0.6162 0.32261 0.90468 0.0
C697 C 0.66744 0.25935 0.95545 0.0
C698 C 0.67356 0.29374 0.96187 0.0
H699 H 0.6395 0.22114 0.9263 0.0
H700 H 0.6817 0.24127 0.96922 0.0
C701 C 0.65425 0.31621 0.94366 0.0
C702 C 0.82208 0.64686 0.98295 0.0
C703 C 0.83112 0.68074 0.98883 0.0
H704 H 0.83892 0.59791 0.97599 0.0
C705 C 0.86505 0.69114 0.99295 0.0
H706 H 0.79608 0.63828 0.97961 0.0
C707 C 0.8895 0.66798 0.99145 0.0
C708 C 0.8804 0.63417 0.98514 0.0
H709 H 0.8726 0.71707 0.99785 0.0
H710 H 0.91551 0.67654 0.99454 0.0
C711 C 0.84649 0.62386 0.98079 0.0
C712 C 0.14045 0.43371 0.35173 0.0
C713 C 0.13135 0.40478 0.3327 0.0
H714 H 0.17036 0.47978 0.35572 0.0
C715 C 0.14747 0.39953 0.3035 0.0
H716 H 0.1286 0.43845 0.37438 0.0
C717 C 0.1712 0.42298 0.29295 0.0
C718 C 0.17971 0.45232 0.3113 0.0
H719 H 0.14142 0.37745 0.28828 0.0
H720 H 0.18272 0.41831 0.27009 0.0
C721 C 0.16453 0.45724 0.34117 0.0
C722 C 0.13253 0.60325 0.76214 0.0
C723 C 0.11031 0.59424 0.78628 0.0
H724 H 0.139 0.62463 0.71452 0.0
C725 C 0.07594 0.59562 0.77821 0.0
H726 H 0.15909 0.60127 0.76717 0.0
C727 C 0.06426 0.60858 0.74756 0.0
C728 C 0.08688 0.62036 0.72463 0.0
H729 H 0.05832 0.58842 0.79626 0.0
H730 H 1.03779 0.61141 0.74285 0.0
C731 C 0.12097 0.61616 0.73174 0.0
C732 C 0.5031 0.09697 0.77153 0.0
C733 C 0.46886 0.09382 0.76142 0.0
H734 H 0.54174 0.12177 0.8035 0.0
C735 C 0.4469 0.11231 0.77865 0.0
H736 H 0.52073 0.08274 0.75935 0.0
C737 C 0.45886 0.13422 0.80433 0.0
C738 C 0.49317 0.13846 0.81349 0.0
H739 H 0.42044 0.11083 0.77159 0.0
H740 H 0.44122 0.14887 0.81611 0.0
C741 C 0.51511 0.119 0.79728 0.0
C742 C 0.05949 0.48586 0.87986 0.0
C743 C 0.04795 0.47329 0.90956 0.0
H744 H 0.07637 0.47481 0.83245 0.0
C745 C 0.04997 0.43922 0.91628 0.0
H746 H 0.05839 0.51211 0.87432 0.0
C747 C 0.06027 0.41766 0.89227 0.0
C748 C 0.0688 0.42982 0.8612 0.0
H749 H 0.04115 0.42884 0.93894 0.0
H750 H 0.05995 0.39127 0.89741 0.0
C751 C 0.06987 0.4644 0.85593 0.0
C752 C 0.69782 0.95012 0.82404 0.0
C753 C 0.69892 0.98248 0.81101 0.0
H754 H 0.67089 0.91354 0.8517 0.0
C755 C 0.6736 1.00359 0.81791 0.0
H756 H 0.71683 0.93321 0.81907 0.0
C757 C 0.64734 0.99237 0.83656 0.0
C758 C 0.64555 0.95962 0.8486 0.0
H759 H 0.67395 1.0288 0.80861 0.0
H760 H 0.62786 1.00905 0.84056 0.0
C761 C 0.67134 0.93877 0.84248 0.0
C762 C 0.93601 0.6749 0.27109 0.0
C763 C 0.96858 0.67484 0.2609 0.0
H764 H 0.88717 0.65101 0.26869 0.0
C765 C 0.97544 0.65102 0.23684 0.0
H766 H 0.92964 0.69272 0.28947 0.0
C767 C 0.95085 0.62677 0.2248 0.0
C768 C 0.91892 0.62569 0.23671 0.0
H769 H 1.00027 0.6501 0.22839 0.0
H770 H 0.9573 0.608 0.20742 0.0
C771 C 0.91163 0.65069 0.25924 0.0
C772 C 0.41506 0.93713 0.23394 0.0
C773 C 0.39742 0.93908 0.26245 0.0
H774 H 0.45728 0.9197 0.21272 0.0
C775 C 0.40454 0.91703 0.28874 0.0
H776 H 0.41036 0.9536 0.21323 0.0
C777 C 0.43203 0.89732 0.2886 0.0
C778 C 0.45246 0.89888 0.26191 0.0
H779 H 0.39075 0.91737 0.31077 0.0
H780 H 0.43877 0.88286 0.31037 0.0
C781 C 0.44231 0.91738 0.23372 0.0
C782 C 0.59735 0.20341 0.40642 0.0
C783 C 0.58285 0.17084 0.4036 0.0
H784 H 0.60521 0.25025 0.38228 0.0
C785 C 0.56012 0.16243 0.37654 0.0
H786 H 0.6152 0.21032 0.42701 0.0
C787 C 0.55459 0.18496 0.35092 0.0
C788 C 0.57196 0.21641 0.35175 0.0
H789 H 0.54881 0.13737 0.37395 0.0
H790 H 0.539 0.17636 0.32928 0.0
C791 C 0.59198 0.22604 0.38062 0.0
C792 C 0.76566 0.95714 0.62482 0.0
C793 C 0.79172 0.9761 0.64211 0.0
H794 H 0.75156 0.91628 0.5915 0.0
C795 C 0.82481 0.96902 0.63611 0.0
H796 H 0.73999 0.9617 0.62864 0.0
C797 C 0.83163 0.94301 0.61451 0.0
C798 C 0.80553 0.92297 0.59858 0.0
H799 H 0.84569 0.9832 0.64876 0.0
H800 H 0.85728 0.93778 0.61137 0.0
C801 C 0.77247 0.93091 0.60358 0.0
C802 C 0.15154 0.74298 0.57227 0.0
C803 C 0.1608 0.77657 0.56599 0.0
H804 H 0.12398 0.70835 0.60164 0.0
C805 C 0.14813 0.80121 0.58565 0.0
H806 H 0.1605 0.72323 0.55763 0.0
C807 C 0.12686 0.79272 0.61055 0.0
C808 C 0.11759 0.75922 0.61699 0.0
H809 H 0.15484 0.82731 0.58218 0.0
H810 H 0.11755 0.8127 0.62458 0.0
C811 C 0.13021 0.73443 0.59739 0.0
C812 C 0.27006 0.10733 0.6539 0.0
C813 C 0.26715 0.11138 0.61902 0.0
H814 H 0.29657 0.08539 0.69597 0.0
C815 C 0.28711 0.09268 0.59977 0.0
H816 H 0.25506 0.12128 0.66959 0.0
C817 C 0.31092 0.07256 0.61493 0.0
C818 C 0.31531 0.0701 0.64977 0.0
H819 H 0.28568 0.09491 0.57297 0.0
H820 H 0.32687 0.05974 0.59924 0.0
C821 C 0.29377 0.08671 0.66913 0.0
C822 C 0.95553 0.36638 0.66274 0.0
C823 C 0.95408 0.35445 0.62986 0.0
H824 H 0.98661 0.38595 0.7046 0.0
C825 C 0.98329 0.35655 0.61277 0.0
H826 H 0.93345 0.36493 0.67654 0.0
C827 C 1.01361 0.3687 0.62861 0.0
C828 C 1.0156 0.37878 0.66213 0.0
H829 H 0.98281 0.34797 0.58725 0.0
H830 H 1.03573 0.3689 0.61489 0.0
C831 C 0.98603 0.37826 0.6788 0.0
C832 C 0.74569 0.16607 0.44823 0.0
C833 C 0.7425 0.13709 0.46741 0.0
H834 H 0.76736 0.21601 0.44532 0.0
C835 C 0.76056 0.13631 0.49854 0.0
H836 H 0.73188 0.16764 0.42429 0.0
C837 C 0.78067 0.16387 0.51056 0.0
C838 C 0.78323 0.19327 0.49197 0.0
H839 H 0.75864 0.11449 0.51408 0.0
H840 H 0.79347 0.16241 0.53499 0.0
C841 C 0.76568 0.19395 0.46047 0.0
C842 C 0.96724 0.78875 0.46122 0.0
C843 C 0.94729 0.76823 0.43838 0.0
H844 H 0.96875 0.82495 0.5009 0.0
C845 C 0.91252 0.77115 0.43691 0.0
H846 H 0.99404 0.7872 0.4631 0.0
C847 C 0.89805 0.79313 0.45808 0.0
C848 C 0.91775 0.81271 0.4819 0.0
H849 H 0.89632 0.75625 0.41935 0.0
H850 H 0.87116 0.79393 0.45641 0.0
C851 C 0.95266 0.81041 0.48291 0.0
C852 C 0.31849 0.98158 0.41484 0.0
C853 C 0.34611 0.97954 0.39582 0.0
H854 H 0.28258 0.95599 0.44321 0.0
C855 C 0.36036 0.94861 0.39309 0.0
H856 H 0.30684 1.00502 0.41718 0.0
C857 C 0.34576 0.9199 0.4074 0.0
C858 C 0.31665 0.92168 0.42459 0.0
H859 H 0.38119 0.94614 0.37792 0.0
H860 H 0.35613 0.8961 0.40344 0.0
C861 C 0.30417 0.95322 0.42923 0.0
C862 C 0.15317 0.21233 0.46422 0.0
C863 C 0.17477 0.23445 0.4839 0.0
H864 H 0.11565 0.20685 0.42338 0.0
C865 C 0.17404 0.26874 0.47733 0.0
H866 H 0.15327 0.18576 0.4684 0.0
C867 C 0.15296 0.28069 0.45171 0.0
C868 C 0.13165 0.25886 0.43156 0.0
H869 H 0.19026 0.28666 0.49182 0.0
H870 H 0.15399 0.30723 0.44731 0.0
C871 C 0.13191 0.22442 0.43818 0.0
C872 C 0.6532 0.76985 0.91805 0.0
C873 C 0.65352 0.76272 0.95233 0.0
H874 H 0.63187 0.798 0.87724 0.0
C875 C 0.62906 0.77604 0.9707 0.0
H876 H 0.67162 0.75996 0.90306 0.0
C877 C 0.60668 0.79787 0.95596 0.0
C878 C 0.6077 0.80668 0.92231 0.0
H879 H 0.62833 0.77117 0.99702 0.0
H880 H 0.58936 0.80907 0.97138 0.0
C881 C 0.63034 0.79149 0.90311 0.0
C882 C 0.28598 0.68393 0.95081 0.0
C883 C 0.26932 0.70956 0.96511 0.0
H884 H 0.28229 0.64152 0.91806 0.0
C885 C 0.23556 0.71301 0.95531 0.0
H886 H 0.31214 0.68105 0.95756 0.0
C887 C 0.21835 0.69021 0.93296 0.0
C888 C 0.23478 0.664 0.91932 0.0
H889 H 0.22222 0.73259 0.96593 0.0
H890 H 0.19198 0.69266 0.92688 0.0
C891 C 0.26898 0.66158 0.92789 0.0
C892 C 0.44942 0.30984 0.94048 0.0
C893 C 0.41598 0.31405 0.92924 0.0
H894 H 0.49756 0.29466 0.92849 0.0
C895 C 0.40617 0.30626 0.89574 0.0
H896 H 0.45789 0.31537 0.96609 0.0
C897 C 0.42889 0.29468 0.87419 0.0
C898 C 0.46222 0.29004 0.8854 0.0
H899 H 0.38084 0.30942 0.88596 0.0
H900 H 0.4201 0.28881 0.84874 0.0
C901 C 0.47213 0.29771 0.91895 0.0
C902 C 0.84008 0.43051 0.99354 0.0
C903 C 0.84065 0.40187 0.97358 0.0
H904 H 0.85896 0.48057 1.00353 0.0
C905 C 0.86072 0.40285 0.94647 0.0
H906 H 0.82507 0.43039 1.01473 0.0
C907 C 0.87977 0.43215 0.93948 0.0
C908 C 0.87962 0.4605 0.96008 0.0
H909 H 0.86146 0.38108 0.93071 0.0
H910 H 0.89542 0.43226 0.91877 0.0
C911 C 0.8595 0.45926 0.98709 0.0
C912 C 0.66809 0.24568 0.13058 0.0
C913 C 0.68215 0.27806 0.12558 0.0
H914 H 0.63095 0.21536 0.15424 0.0
C915 C 0.66965 0.30472 0.14246 0.0
H916 H 0.67695 0.22456 0.11783 0.0
C917 C 0.64347 0.29951 0.16303 0.0
C918 C 0.62873 0.26741 0.16754 0.0
H919 H 0.68013 0.32986 0.13977 0.0
H920 H 0.63465 0.32099 0.17527 0.0
C921 C 0.64158 0.24042 0.15128 0.0
C922 C 0.74536 0.64213 0.14934 0.0
C923 C 0.75935 0.61151 0.14401 0.0
H924 H 0.72127 0.68374 0.12735 0.0
C925 C 0.75639 0.59781 0.1117 0.0
H926 H 0.74734 0.65336 0.17389 0.0
C927 C 0.74104 0.61488 0.08511 0.0
C928 C 0.7287 0.6464 0.09004 0.0
H929 H 0.76654 0.57406 0.10688 0.0
H930 H 0.74027 0.60402 0.06044 0.0
C931 C 0.73048 0.65952 0.12262 0.0
C932 C 0.47179 0.83614 0.1037 0.0
C933 C 0.44165 0.84955 0.11114 0.0
H934 H 0.5247 0.83714 0.1132 0.0
C935 C 0.44338 0.87916 0.13022 0.0
H936 H 0.47199 0.81435 0.08798 0.0
C937 C 0.47425 0.89308 0.14384 0.0
C938 C 0.50381 0.87725 0.13928 0.0
H939 H 0.4209 0.89065 0.13612 0.0
H940 H 0.4747 0.91483 0.15976 0.0
C941 C 0.50232 0.8496 0.11776 0.0
C942 C 0.29339 0.42778 0.13822 0.0
C943 C 0.27582 0.42587 0.10683 0.0
H944 H 0.29782 0.44854 0.18721 0.0
C945 C 0.247 0.44427 0.10199 0.0
H946 H 0.31527 0.41373 0.14326 0.0
C947 C 0.23669 0.46454 0.1276 0.0
C948 C 0.25487 0.46686 0.15875 0.0
H949 H 0.23284 0.44377 0.07815 0.0
H950 H 0.21492 0.47884 0.12279 0.0
C951 C 0.28312 0.44781 0.16363 0.0
C952 C 0.97157 0.60113 0.8293 0.0
C953 C 0.97573 0.61171 0.86266 0.0
H954 H 0.98002 0.61272 0.77867 0.0
C955 C 0.9895 0.64409 0.8699 0.0
H956 H 0.96123 0.57627 0.82296 0.0
C957 C 0.9999 0.66503 0.84472 0.0
C958 C 0.9972 0.65422 0.81144 0.0
H959 H 0.9927 0.65326 0.89529 0.0
H960 H 1.01043 0.68969 0.8515 0.0
C961 C 0.98234 0.62213 0.80393 0.0
C962 C 0.94588 0.45677 0.27954 0.0
C963 C 0.91138 0.44844 0.27574 0.0
H964 H 0.99484 0.44017 0.29295 0.0
C965 C 0.90021 0.41547 0.28226 0.0
H966 H 0.95531 0.48193 0.27485 0.0
C967 C 0.92285 0.39146 0.29207 0.0
C968 C 0.95731 0.39985 0.29629 0.0
H969 H 0.87391 0.40806 0.2793 0.0
H970 H 0.91328 0.3664 0.29693 0.0
C971 C 0.9685 0.4329 0.29006 0.0
C972 C 0.63026 1.0188 0.3146 0.0
C973 C 0.60964 1.03193 0.33741 0.0
H974 H 0.63272 0.9892 0.27044 0.0
C975 C 0.5749 1.02848 0.33047 0.0
H976 H 0.6571 1.02103 0.3193 0.0
C977 C 0.56096 1.01068 0.30254 0.0
C978 C 0.58135 0.99546 0.28085 0.0
H979 H 0.55829 0.03865 0.34734 0.0
H980 H 0.53407 1.00743 0.29898 0.0
C981 C 0.61624 1.00052 0.28667 0.0
C982 C 0.12084 0.58476 0.26451 0.0
C983 C 0.15256 0.60136 0.26495 0.0
H984 H 0.07171 0.5838 0.28202 0.0
C985 C 0.15797 0.63149 0.28309 0.0
H986 H 0.11582 0.5614 0.25112 0.0
C987 C 0.13287 0.64426 0.30092 0.0
C988 C 0.10149 0.62722 0.30154 0.0
H989 H 0.18206 0.64502 0.28416 0.0
H990 H 0.13845 0.66709 0.31506 0.0
C991 C 0.09568 0.59744 0.28269 0.0
C992 C 0.52031 0.10764 0.25731 0.0
C993 C 0.51083 0.14071 0.25457 0.0
H994 H 0.50746 0.05778 0.27281 0.0
C995 C 0.48086 0.14888 0.26759 0.0
H996 H 0.54341 0.1006 0.24786 0.0
C997 C 0.46096 0.12464 0.28307 0.0
C998 C 0.47004 0.0914 0.28516 0.0
H999 H 0.47312 0.17422 0.26645 0.0
H1000 H 0.43798 0.13181 0.29269 0.0
C1001 C 0.49986 0.08316 0.27185 0.0
C1002 C 0.20936 0.4532 0.7654 0.0
C1003 C 0.17571 0.45719 0.75511 0.0
H1004 H 0.25288 0.47286 0.79419 0.0
C1005 C 0.1623 0.48807 0.76077 0.0
H1006 H 0.22071 0.42995 0.76104 0.0
C1007 C 0.18114 0.51302 0.77938 0.0
C1008 C 0.21353 0.50731 0.79287 0.0
H1009 H 0.13652 0.49204 0.75311 0.0
H1010 H 0.16923 0.53542 0.7857 0.0
C1011 C 0.22795 0.47786 0.7843 0.0
C1012 C 0.66909 0.15557 0.78395 0.0
C1013 C 0.6416 0.16236 0.76213 0.0
H1014 H 0.71338 0.12946 0.79284 0.0
C1015 C 0.63861 0.14614 0.73072 0.0
H1016 H 0.67271 0.16762 0.80808 0.0
C1017 C 0.66236 0.12373 0.72171 0.0
C1018 C 0.68991 0.1172 0.74373 0.0
H1019 H 0.61768 0.15035 0.71322 0.0
H1020 H 0.65921 0.11169 0.69753 0.0
C1021 C 0.69272 0.13359 0.77494 0.0
C1022 C 0.47478 0.90277 0.77818 0.0
C1023 C 0.46871 0.91091 0.81098 0.0
H1024 H 0.46244 0.91044 0.72635 0.0
C1025 C 0.44223 0.93149 0.81602 0.0
H1026 H 0.49482 0.88704 0.77326 0.0
C1027 C 0.42348 0.9449 0.78911 0.0
C1028 C 0.43075 0.93823 0.75633 0.0
H1029 H 0.43656 0.93818 0.84092 0.0
H1030 H 0.40429 0.96165 0.79406 0.0
C1031 C 0.45612 0.91631 0.75126 0.0
loop_
_geom_bond_atom_site_label_1
_geom_bond_atom_site_label_2
_geom_bond_distance
_geom_bond_site_symmetry_2
_ccdc_geom_bond_type
Cu0 N1 1.999 1_545 S
Cu0 O6 1.974 . S
Cu0 N11 1.985 . S
Cu0 O20 1.959 1_545 S
N1 Cu0 1.999 1_565 S
N1 C3 1.263 . S
N1 C5 1.389 . S
N2 C3 1.358 . S
N2 C4 1.400 . S
C3 N1 1.263 . S
C3 N2 1.358 . S
C3 H9 0.930 1_565 S
C4 N2 1.400 . S
C4 C5 1.351 . S
C4 H21 0.930 . S
C5 N1 1.389 . S
C5 C4 1.351 . S
C5 H10 0.930 . S
O6 Cu0 1.974 . S
O6 C16 1.282 . S
C7 O8 1.261 . S
C7 O20 1.251 . S
O8 C7 1.261 . S
H9 C3 0.930 1_545 S
H10 C5 0.930 . S
N11 Cu0 1.985 . S
N11 C13 1.335 . S
N11 C14 1.390 . S
N12 C13 1.345 . S
N12 C15 1.336 . S
C13 N11 1.335 . S
C13 N12 1.345 . S
C13 H18 0.930 . S
C14 N11 1.390 . S
C14 C15 1.346 . S
C14 H19 0.930 . S
C15 N12 1.336 . S
C15 C14 1.346 . S
C15 H22 0.929 . S
C16 O6 1.282 . S
C16 O17 1.216 . S
O17 C16 1.216 . S
H18 C13 0.930 . S
H19 C14 0.930 . S
O20 Cu0 1.959 1_565 S
O20 C7 1.251 . S
H21 C4 0.930 . S
H22 C15 0.929 . S
Cu23 N24 1.999 . S
Cu23 O29 1.974 1_455 S
Cu23 N34 1.985 1_455 S
Cu23 O43 1.959 . S
N24 Cu23 1.999 . S
N24 C26 1.263 . S
N24 C28 1.389 . S
N25 C26 1.358 . S
N25 C27 1.400 . S
C26 N24 1.263 . S
C26 N25 1.358 . S
C26 H32 0.930 . S
C27 N25 1.400 . S
C27 C28 1.351 . S
C27 H44 0.930 . S
C28 N24 1.389 . S
C28 C27 1.351 . S
C28 H33 0.930 . S
O29 Cu23 1.974 1_655 S
O29 C39 1.282 . S
C30 O31 1.261 . S
C30 O43 1.251 . S
O31 C30 1.261 . S
H32 C26 0.930 . S
H33 C28 0.930 . S
N34 Cu23 1.985 1_655 S
N34 C36 1.335 . S
N34 C37 1.390 . S
N35 C36 1.345 . S
N35 C38 1.336 . S
C36 N34 1.335 . S
C36 N35 1.345 . S
C36 H41 0.921 1_655 S
C37 N34 1.390 . S
C37 C38 1.346 . S
C37 H42 0.930 . S
C38 N35 1.336 . S
C38 C37 1.346 . S
C38 H45 0.929 . S
C39 O29 1.282 . S
C39 O40 1.216 . S
O40 C39 1.216 . S
H41 C36 0.921 1_455 S
H42 C37 0.930 . S
O43 Cu23 1.959 . S
O43 C30 1.251 . S
H44 C27 0.930 . S
H45 C38 0.929 . S
Cu46 N47 1.999 . S
Cu46 O52 1.974 1_545 S
Cu46 N57 1.985 1_545 S
Cu46 O66 1.959 . S
N47 Cu46 1.999 . S
N47 C49 1.263 . S
N47 C51 1.389 . S
N48 C49 1.358 . S
N48 C50 1.400 . S
C49 N47 1.263 . S
C49 N48 1.358 . S
C49 H55 0.930 . S
C50 N48 1.400 . S
C50 C51 1.351 . S
C50 H67 0.930 . S
C51 N47 1.389 . S
C51 C50 1.351 . S
C51 H56 0.930 . S
O52 Cu46 1.974 1_565 S
O52 C62 1.282 . S
C53 O54 1.261 . S
C53 O66 1.251 . S
O54 C53 1.261 . S
H55 C49 0.930 . S
H56 C51 0.930 . S
N57 Cu46 1.985 1_565 S
N57 C59 1.335 . S
N57 C60 1.390 . S
N58 C59 1.345 . S
N58 C61 1.336 . S
C59 N57 1.335 . S
C59 N58 1.345 . S
C59 H64 0.930 . S
C60 N57 1.390 . S
C60 C61 1.346 . S
C60 H65 0.930 . S
C61 N58 1.336 . S
C61 C60 1.346 . S
C61 H68 0.929 . S
C62 O52 1.282 . S
C62 O63 1.216 . S
O63 C62 1.216 . S
H64 C59 0.930 . S
H65 C60 0.930 . S
O66 Cu46 1.959 . S
O66 C53 1.251 . S
H67 C50 0.930 . S
H68 C61 0.929 . S
Cu69 N70 1.999 . S
Cu69 O75 1.974 1_455 S
Cu69 N80 1.985 1_455 S
Cu69 O89 1.959 . S
N70 Cu69 1.999 . S
N70 C72 1.263 . S
N70 C74 1.389 . S
N71 C72 1.358 . S
N71 C73 1.400 . S
C72 N70 1.263 . S
C72 N71 1.358 . S
C72 H78 0.930 . S
C73 N71 1.400 . S
C73 C74 1.351 . S
C73 H90 0.930 . S
C74 N70 1.389 . S
C74 C73 1.351 . S
C74 H79 0.930 . S
O75 Cu69 1.974 1_655 S
O75 C85 1.282 . S
C76 O77 1.261 . S
C76 O89 1.251 . S
O77 C76 1.261 . S
H78 C72 0.930 . S
H79 C74 0.930 . S
N80 Cu69 1.985 1_655 S
N80 C82 1.335 . S
N80 C83 1.390 . S
N81 C82 1.345 . S
N81 C84 1.336 . S
C82 N80 1.335 . S
C82 N81 1.345 . S
C82 H87 0.930 . S
C83 N80 1.390 . S
C83 C84 1.346 . S
C83 H88 0.930 . S
C84 N81 1.336 . S
C84 C83 1.346 . S
C84 H91 0.929 . S
C85 O75 1.282 . S
C85 O86 1.216 . S
O86 C85 1.216 . S
H87 C82 0.930 . S
H88 C83 0.930 . S
O89 Cu69 1.959 . S
O89 C76 1.251 . S
H90 C73 0.930 . S
H91 C84 0.929 . S
Cu92 N93 1.999 . S
Cu92 O98 1.974 1_545 S
Cu92 N103 1.985 1_545 S
Cu92 O112 1.959 . S
N93 Cu92 1.999 . S
N93 C95 1.263 . S
N93 C97 1.389 . S
N94 C95 1.358 . S
N94 C96 1.400 . S
C95 N93 1.263 . S
C95 N94 1.358 . S
C95 H101 0.930 . S
C96 N94 1.400 . S
C96 C97 1.351 . S
C96 H113 0.930 . S
C97 N93 1.389 . S
C97 C96 1.351 . S
C97 H102 0.930 . S
O98 Cu92 1.974 1_565 S
O98 C108 1.282 . S
C99 O100 1.261 . S
C99 O112 1.251 . S
O100 C99 1.261 . S
H101 C95 0.930 . S
H102 C97 0.930 . S
N103 Cu92 1.985 1_565 S
N103 C105 1.335 . S
N103 C106 1.390 . S
N104 C105 1.345 . S
N104 C107 1.336 . S
C105 N103 1.335 . S
C105 N104 1.345 . S
C105 H110 0.930 . S
C106 N103 1.390 . S
C106 C107 1.346 . S
C106 H111 0.930 . S
C107 N104 1.336 . S
C107 C106 1.346 . S
C107 H114 0.929 . S
C108 O98 1.282 . S
C108 O109 1.216 . S
O109 C108 1.216 . S
H110 C105 0.930 . S
H111 C106 0.930 . S
O112 Cu92 1.959 . S
O112 C99 1.251 . S
H113 C96 0.930 . S
H114 C107 0.929 . S
Cu115 N116 1.999 . S
Cu115 O121 1.974 1_455 S
Cu115 N126 1.985 1_455 S
Cu115 O135 1.959 . S
N116 Cu115 1.999 . S
N116 C118 1.263 . S
N116 C120 1.389 . S
N117 C118 1.358 . S
N117 C119 1.400 . S
C118 N116 1.263 . S
C118 N117 1.358 . S
C118 H124 0.930 . S
C119 N117 1.400 . S
C119 C120 1.351 . S
C119 H136 0.930 . S
C120 N116 1.389 . S
C120 C119 1.351 . S
C120 H125 0.930 . S
O121 Cu115 1.974 1_655 S
O121 C131 1.282 . S
C122 O123 1.261 . S
C122 O135 1.251 . S
O123 C122 1.261 . S
H124 C118 0.930 . S
H125 C120 0.930 . S
N126 Cu115 1.985 1_655 S
N126 C128 1.335 . S
N126 C129 1.390 . S
N127 C128 1.345 . S
N127 C130 1.336 . S
C128 N126 1.335 . S
C128 N127 1.345 . S
C128 H133 0.930 1_655 S
C129 N126 1.390 . S
C129 C130 1.346 . S
C129 H134 0.930 . S
C130 N127 1.336 . S
C130 C129 1.346 . S
C130 H137 0.929 . S
C131 O121 1.282 . S
C131 O132 1.216 . S
O132 C131 1.216 . S
H133 C128 0.930 1_455 S
H134 C129 0.930 . S
O135 Cu115 1.959 . S
O135 C122 1.251 . S
H136 C119 0.930 . S
H137 C130 0.929 . S
Cu138 N139 1.999 1_545 S
Cu138 O144 1.974 . S
Cu138 N149 1.985 . S
Cu138 O158 1.959 1_545 S
N139 Cu138 1.999 1_565 S
N139 C141 1.263 . S
N139 C143 1.389 . S
N140 C141 1.358 . S
N140 C142 1.400 . S
C141 N139 1.263 . S
C141 N140 1.358 . S
C141 H147 0.930 . S
C142 N140 1.400 . S
C142 C143 1.351 . S
C142 H159 0.930 . S
C143 N139 1.389 . S
C143 C142 1.351 . S
C143 H148 0.930 . S
O144 Cu138 1.974 . S
O144 C154 1.282 . S
C145 O146 1.261 . S
C145 O158 1.251 . S
O146 C145 1.261 . S
H147 C141 0.930 . S
H148 C143 0.930 . S
N149 Cu138 1.985 . S
N149 C151 1.335 . S
N149 C152 1.390 . S
N150 C151 1.345 . S
N150 C153 1.336 . S
C151 N149 1.335 . S
C151 N150 1.345 . S
C151 H156 0.930 . S
C152 N149 1.390 . S
C152 C153 1.346 . S
C152 H157 0.930 . S
C153 N150 1.336 . S
C153 C152 1.346 . S
C153 H160 0.929 . S
C154 O144 1.282 . S
C154 O155 1.216 . S
O155 C154 1.216 . S
H156 C151 0.930 . S
H157 C152 0.930 . S
O158 Cu138 1.959 1_565 S
O158 C145 1.251 . S
H159 C142 0.930 . S
H160 C153 0.929 . S
Cu161 N162 1.999 1_655 S
Cu161 O167 1.974 . S
Cu161 N172 1.985 . S
Cu161 O181 1.959 1_655 S
N162 Cu161 1.999 1_455 S
N162 C164 1.263 . S
N162 C166 1.389 . S
N163 C164 1.358 . S
N163 C165 1.400 . S
C164 N162 1.263 . S
C164 N163 1.358 . S
C164 H170 0.930 . S
C165 N163 1.400 . S
C165 C166 1.351 . S
C165 H182 0.930 . S
C166 N162 1.389 . S
C166 C165 1.351 . S
C166 H171 0.930 . S
O167 Cu161 1.974 . S
O167 C177 1.282 . S
C168 O169 1.261 . S
C168 O181 1.251 . S
O169 C168 1.261 . S
H170 C164 0.930 . S
H171 C166 0.930 . S
N172 Cu161 1.985 . S
N172 C174 1.335 . S
N172 C175 1.390 . S
N173 C174 1.345 . S
N173 C176 1.336 . S
C174 N172 1.335 . S
C174 N173 1.345 . S
C174 H179 0.930 . S
C175 N172 1.390 . S
C175 C176 1.346 . S
C175 H180 0.930 . S
C176 N173 1.336 . S
C176 C175 1.346 . S
C176 H183 0.929 . S
C177 O167 1.282 . S
C177 O178 1.216 . S
O178 C177 1.216 . S
H179 C174 0.930 . S
H180 C175 0.930 . S
O181 Cu161 1.959 1_455 S
O181 C168 1.251 . S
H182 C165 0.930 . S
H183 C176 0.929 . S
Cu184 N185 1.999 . S
Cu184 O190 1.974 1_554 S
Cu184 N195 1.985 1_554 S
Cu184 O204 1.959 . S
N185 Cu184 1.999 . S
N185 C187 1.263 . S
N185 C189 1.389 . S
N186 C187 1.358 . S
N186 C188 1.400 . S
C187 N185 1.263 . S
C187 N186 1.358 . S
C187 H193 0.930 . S
C188 N186 1.400 . S
C188 C189 1.351 . S
C188 H205 0.930 . S
C189 N185 1.389 . S
C189 C188 1.351 . S
C189 H194 0.930 . S
O190 Cu184 1.974 1_556 S
O190 C200 1.282 . S
C191 O192 1.261 . S
C191 O204 1.251 . S
O192 C191 1.261 . S
H193 C187 0.930 . S
H194 C189 0.930 . S
N195 Cu184 1.985 1_556 S
N195 C197 1.335 . S
N195 C198 1.390 . S
N196 C197 1.345 . S
N196 C199 1.336 . S
C197 N195 1.335 . S
C197 N196 1.345 . S
C197 H202 0.930 1_556 S
C198 N195 1.390 . S
C198 C199 1.346 . S
C198 H203 0.930 . S
C199 N196 1.336 . S
C199 C198 1.346 . S
C199 H206 0.929 . S
C200 O190 1.282 . S
C200 O201 1.216 . S
O201 C200 1.216 . S
H202 C197 0.930 1_554 S
H203 C198 0.930 . S
O204 Cu184 1.959 . S
O204 C191 1.251 . S
H205 C188 0.930 . S
H206 C199 0.929 . S
Cu207 N208 1.999 1_554 S
Cu207 O213 1.974 . S
Cu207 N218 1.985 . S
Cu207 O227 1.959 1_554 S
N208 Cu207 1.999 1_556 S
N208 C210 1.263 . S
N208 C212 1.389 . S
N209 C210 1.358 . S
N209 C211 1.400 . S
C210 N208 1.263 . S
C210 N209 1.358 . S
C210 H216 0.930 . S
C211 N209 1.400 . S
C211 C212 1.351 . S
C211 H228 0.930 . S
C212 N208 1.389 . S
C212 C211 1.351 . S
C212 H217 0.930 . S
O213 Cu207 1.974 . S
O213 C223 1.282 . S
C214 O215 1.261 . S
C214 O227 1.251 . S
O215 C214 1.261 . S
H216 C210 0.930 . S
H217 C212 0.930 . S
N218 Cu207 1.985 . S
N218 C220 1.335 . S
N218 C221 1.390 . S
N219 C220 1.345 . S
N219 C222 1.336 . S
C220 N218 1.335 . S
C220 N219 1.345 . S
C220 H225 0.930 . S
C221 N218 1.390 . S
C221 C222 1.346 . S
C221 H226 0.930 . S
C222 N219 1.336 . S
C222 C221 1.346 . S
C222 H229 0.929 . S
C223 O213 1.282 . S
C223 O224 1.216 . S
O224 C223 1.216 . S
H225 C220 0.930 . S
H226 C221 0.930 . S
O227 Cu207 1.959 1_556 S
O227 C214 1.251 . S
H228 C211 0.930 . S
H229 C222 0.929 . S
Cu230 N231 1.982 1_556 S
Cu230 O236 1.988 . S
Cu230 N241 2.002 . S
Cu230 O250 1.945 1_556 S
N231 Cu230 1.982 1_554 S
N231 C233 1.263 . S
N231 C235 1.389 . S
N232 C233 1.358 . S
N232 C234 1.400 . S
C233 N231 1.263 . S
C233 N232 1.358 . S
C233 H239 0.930 . S
C234 N232 1.400 . S
C234 C235 1.351 . S
C234 H251 0.930 . S
C235 N231 1.389 . S
C235 C234 1.351 . S
C235 H240 0.930 . S
O236 Cu230 1.988 . S
O236 C246 1.282 . S
C237 O238 1.261 . S
C237 O250 1.251 . S
O238 C237 1.261 . S
H239 C233 0.930 . S
H240 C235 0.930 . S
N241 Cu230 2.002 . S
N241 C243 1.335 . S
N241 C244 1.390 . S
N242 C243 1.345 . S
N242 C245 1.336 . S
C243 N241 1.335 . S
C243 N242 1.345 . S
C243 H248 0.930 . S
C244 N241 1.390 . S
C244 C245 1.346 . S
C244 H249 0.930 . S
C245 N242 1.336 . S
C245 C244 1.346 . S
C245 H252 0.929 . S
C246 O236 1.282 . S
C246 O247 1.216 . S
O247 C246 1.216 . S
H248 C243 0.930 . S
H249 C244 0.930 . S
O250 Cu230 1.945 1_554 S
O250 C237 1.251 . S
H251 C234 0.930 . S
H252 C245 0.929 . S
Cu253 N254 1.999 1_554 S
Cu253 O259 1.974 . S
Cu253 N264 1.985 . S
Cu253 O273 1.959 1_554 S
N254 Cu253 1.999 1_556 S
N254 C256 1.263 . S
N254 C258 1.389 . S
N255 C256 1.358 . S
N255 C257 1.400 . S
C256 N254 1.263 . S
C256 N255 1.358 . S
C256 H262 0.930 . S
C257 N255 1.400 . S
C257 C258 1.351 . S
C257 H274 0.930 . S
C258 N254 1.389 . S
C258 C257 1.351 . S
C258 H263 0.930 . S
O259 Cu253 1.974 . S
O259 C269 1.282 . S
C260 O261 1.261 . S
C260 O273 1.251 . S
O261 C260 1.261 . S
H262 C256 0.930 . S
H263 C258 0.930 . S
N264 Cu253 1.985 . S
N264 C266 1.335 . S
N264 C267 1.390 . S
N265 C266 1.345 . S
N265 C268 1.336 . S
C266 N264 1.335 . S
C266 N265 1.345 . S
C266 H271 0.930 . S
C267 N264 1.390 . S
C267 C268 1.346 . S
C267 H272 0.930 . S
C268 N265 1.336 . S
C268 C267 1.346 . S
C268 H275 0.929 . S
C269 O259 1.282 . S
C269 O270 1.216 . S
O270 C269 1.216 . S
H271 C266 0.930 . S
H272 C267 0.930 . S
O273 Cu253 1.959 1_556 S
O273 C260 1.251 . S
H274 C257 0.930 . S
H275 C268 0.929 . S
Cu276 N277 1.999 . S
Cu276 O282 1.974 . S
Cu276 N287 1.985 . S
Cu276 O296 1.959 . S
N277 Cu276 1.999 . S
N277 C279 1.263 . S
N277 C281 1.389 . S
N278 C279 1.358 . S
N278 C280 1.400 . S
C279 N277 1.263 . S
C279 N278 1.358 . S
C279 H285 0.930 . S
C280 N278 1.400 . S
C280 C281 1.351 . S
C280 H297 0.930 . S
C281 N277 1.389 . S
C281 C280 1.351 . S
C281 H286 0.930 . S
O282 Cu276 1.974 . S
O282 C292 1.282 . S
C283 O284 1.261 . S
C283 O296 1.251 . S
O284 C283 1.261 . S
H285 C279 0.930 . S
H286 C281 0.930 . S
N287 Cu276 1.985 . S
N287 C289 1.335 . S
N287 C290 1.390 . S
N288 C289 1.345 . S
N288 C291 1.336 . S
C289 N287 1.335 . S
C289 N288 1.345 . S
C289 H294 0.930 . S
C290 N287 1.390 . S
C290 C291 1.346 . S
C290 H295 0.930 . S
C291 N288 1.336 . S
C291 C290 1.346 . S
C291 H298 0.929 . S
C292 O282 1.282 . S
C292 O293 1.216 . S
O293 C292 1.216 . S
H294 C289 0.930 . S
H295 C290 0.930 . S
O296 Cu276 1.959 . S
O296 C283 1.251 . S
H297 C280 0.930 . S
H298 C291 0.929 . S
Cu299 N300 1.999 . S
Cu299 O305 1.974 . S
Cu299 N310 1.985 . S
Cu299 O319 1.959 . S
N300 Cu299 1.999 . S
N300 C302 1.263 . S
N300 C304 1.389 . S
N301 C302 1.358 . S
N301 C303 1.400 . S
C302 N300 1.263 . S
C302 N301 1.358 . S
C302 H308 0.930 . S
C303 N301 1.400 . S
C303 C304 1.351 . S
C303 H320 0.930 . S
C304 N300 1.389 . S
C304 C303 1.351 . S
C304 H309 0.930 . S
O305 Cu299 1.974 . S
O305 C315 1.282 . S
C306 O307 1.261 . S
C306 O319 1.251 . S
O307 C306 1.261 . S
H308 C302 0.930 . S
H309 C304 0.930 . S
N310 Cu299 1.985 . S
N310 C312 1.335 . S
N310 C313 1.390 . S
N311 C312 1.345 . S
N311 C314 1.336 . S
C312 N310 1.335 . S
C312 N311 1.345 . S
C312 H317 0.930 . S
C313 N310 1.390 . S
C313 C314 1.346 . S
C313 H318 0.930 . S
C314 N311 1.336 . S
C314 C313 1.346 . S
C314 H321 0.929 . S
C315 O305 1.282 . S
C315 O316 1.216 . S
O316 C315 1.216 . S
H317 C312 0.930 . S
H318 C313 0.930 . S
O319 Cu299 1.959 . S
O319 C306 1.251 . S
H320 C303 0.930 . S
H321 C314 0.929 . S
Cu322 N323 1.999 . S
Cu322 O328 1.974 . S
Cu322 N333 1.985 . S
Cu322 O342 1.959 . S
N323 Cu322 1.999 . S
N323 C325 1.263 . S
N323 C327 1.389 . S
N324 C325 1.358 . S
N324 C326 1.400 . S
C325 N323 1.263 . S
C325 N324 1.358 . S
C325 H331 0.930 . S
C326 N324 1.400 . S
C326 C327 1.351 . S
C326 H343 0.930 . S
C327 N323 1.389 . S
C327 C326 1.351 . S
C327 H332 0.930 . S
O328 Cu322 1.974 . S
O328 C338 1.282 . S
C329 O330 1.261 . S
C329 O342 1.251 . S
O330 C329 1.261 . S
H331 C325 0.930 . S
H332 C327 0.930 . S
N333 Cu322 1.985 . S
N333 C335 1.335 . S
N333 C336 1.390 . S
N334 C335 1.345 . S
N334 C337 1.336 . S
C335 N333 1.335 . S
C335 N334 1.345 . S
C335 H340 0.930 . S
C336 N333 1.390 . S
C336 C337 1.346 . S
C336 H341 0.930 . S
C337 N334 1.336 . S
C337 C336 1.346 . S
C337 H344 0.929 . S
C338 O328 1.282 . S
C338 O339 1.216 . S
O339 C338 1.216 . S
H340 C335 0.930 . S
H341 C336 0.930 . S
O342 Cu322 1.959 . S
O342 C329 1.251 . S
H343 C326 0.930 . S
H344 C337 0.929 . S
Cu345 N346 1.999 . S
Cu345 O351 1.974 . S
Cu345 N356 1.985 . S
Cu345 O365 1.959 . S
N346 Cu345 1.999 . S
N346 C348 1.263 . S
N346 C350 1.389 . S
N347 C348 1.358 . S
N347 C349 1.400 . S
C348 N346 1.263 . S
C348 N347 1.358 . S
C348 H354 0.930 . S
C349 N347 1.400 . S
C349 C350 1.351 . S
C349 H366 0.930 . S
C350 N346 1.389 . S
C350 C349 1.351 . S
C350 H355 0.930 . S
O351 Cu345 1.974 . S
O351 C361 1.282 . S
C352 O353 1.261 . S
C352 O365 1.251 . S
O353 C352 1.261 . S
H354 C348 0.930 . S
H355 C350 0.930 . S
N356 Cu345 1.985 . S
N356 C358 1.335 . S
N356 C359 1.390 . S
N357 C358 1.345 . S
N357 C360 1.336 . S
C358 N356 1.335 . S
C358 N357 1.345 . S
C358 H363 0.930 . S
C359 N356 1.390 . S
C359 C360 1.346 . S
C359 H364 0.930 . S
C360 N357 1.336 . S
C360 C359 1.346 . S
C360 H367 0.929 . S
C361 O351 1.282 . S
C361 O362 1.216 . S
O362 C361 1.216 . S
H363 C358 0.930 . S
H364 C359 0.930 . S
O365 Cu345 1.959 . S
O365 C352 1.251 . S
H366 C349 0.930 . S
H367 C360 0.929 . S
Cu368 N369 1.999 . S
Cu368 O374 1.974 . S
Cu368 N379 1.985 . S
Cu368 O388 1.959 . S
N369 Cu368 1.999 . S
N369 C371 1.263 . S
N369 C373 1.389 . S
N370 C371 1.358 . S
N370 C372 1.400 . S
C371 N369 1.263 . S
C371 N370 1.358 . S
C371 H377 0.930 . S
C372 N370 1.400 . S
C372 C373 1.351 . S
C372 H389 0.930 . S
C373 N369 1.389 . S
C373 C372 1.351 . S
C373 H378 0.930 . S
O374 Cu368 1.974 . S
O374 C384 1.282 . S
C375 O376 1.261 . S
C375 O388 1.251 . S
O376 C375 1.261 . S
H377 C371 0.930 . S
H378 C373 0.930 . S
N379 Cu368 1.985 . S
N379 C381 1.335 . S
N379 C382 1.390 . S
N380 C381 1.345 . S
N380 C383 1.336 . S
C381 N379 1.335 . S
C381 N380 1.345 . S
C381 H386 0.930 . S
C382 N379 1.390 . S
C382 C383 1.346 . S
C382 H387 0.930 . S
C383 N380 1.336 . S
C383 C382 1.346 . S
C383 H390 0.929 . S
C384 O374 1.282 . S
C384 O385 1.216 . S
O385 C384 1.216 . S
H386 C381 0.930 . S
H387 C382 0.930 . S
O388 Cu368 1.959 . S
O388 C375 1.251 . S
H389 C372 0.930 . S
H390 C383 0.929 . S
Cu391 N392 1.999 . S
Cu391 O397 1.974 . S
Cu391 N402 1.985 . S
Cu391 O411 1.959 . S
N392 Cu391 1.999 . S
N392 C394 1.263 . S
N392 C396 1.389 . S
N393 C394 1.358 . S
N393 C395 1.400 . S
C394 N392 1.263 . S
C394 N393 1.358 . S
C394 H400 0.930 . S
C395 N393 1.400 . S
C395 C396 1.351 . S
C395 H412 0.930 . S
C396 N392 1.389 . S
C396 C395 1.351 . S
C396 H401 0.930 . S
O397 Cu391 1.974 . S
O397 C407 1.282 . S
C398 O399 1.261 . S
C398 O411 1.251 . S
O399 C398 1.261 . S
H400 C394 0.930 . S
H401 C396 0.930 . S
N402 Cu391 1.985 . S
N402 C404 1.335 . S
N402 C405 1.390 . S
N403 C404 1.345 . S
N403 C406 1.336 . S
C404 N402 1.335 . S
C404 N403 1.345 . S
C404 H409 0.930 . S
C405 N402 1.390 . S
C405 C406 1.346 . S
C405 H410 0.930 . S
C406 N403 1.336 . S
C406 C405 1.346 . S
C406 H413 0.929 . S
C407 O397 1.282 . S
C407 O408 1.216 . S
O408 C407 1.216 . S
H409 C404 0.930 . S
H410 C405 0.930 . S
O411 Cu391 1.959 . S
O411 C398 1.251 . S
H412 C395 0.930 . S
H413 C406 0.929 . S
Cu414 N415 1.999 . S
Cu414 O420 1.974 . S
Cu414 N425 1.985 . S
Cu414 O434 1.959 . S
N415 Cu414 1.999 . S
N415 C417 1.263 . S
N415 C419 1.389 . S
N416 C417 1.358 . S
N416 C418 1.400 . S
C417 N415 1.263 . S
C417 N416 1.358 . S
C417 H423 0.930 . S
C418 N416 1.400 . S
C418 C419 1.351 . S
C418 H435 0.930 . S
C419 N415 1.389 . S
C419 C418 1.351 . S
C419 H424 0.930 . S
O420 Cu414 1.974 . S
O420 C430 1.282 . S
C421 O422 1.261 . S
C421 O434 1.251 . S
O422 C421 1.261 . S
H423 C417 0.930 . S
H424 C419 0.930 . S
N425 Cu414 1.985 . S
N425 C427 1.335 . S
N425 C428 1.390 . S
N426 C427 1.345 . S
N426 C429 1.336 . S
C427 N425 1.335 . S
C427 N426 1.345 . S
C427 H432 0.930 . S
C428 N425 1.390 . S
C428 C429 1.346 . S
C428 H433 0.930 . S
C429 N426 1.336 . S
C429 C428 1.346 . S
C429 H436 0.929 . S
C430 O420 1.282 . S
C430 O431 1.216 . S
O431 C430 1.216 . S
H432 C427 0.930 . S
H433 C428 0.930 . S
O434 Cu414 1.959 . S
O434 C421 1.251 . S
H435 C418 0.930 . S
H436 C429 0.929 . S
Cu437 N438 1.999 . S
Cu437 O443 1.974 . S
Cu437 N448 1.985 . S
Cu437 O457 1.959 . S
N438 Cu437 1.999 . S
N438 C440 1.263 . S
N438 C442 1.389 . S
N439 C440 1.358 . S
N439 C441 1.400 . S
C440 N438 1.263 . S
C440 N439 1.358 . S
C440 H446 0.930 . S
C441 N439 1.400 . S
C441 C442 1.351 . S
C441 H458 0.930 . S
C442 N438 1.389 . S
C442 C441 1.351 . S
C442 H447 0.930 . S
O443 Cu437 1.974 . S
O443 C453 1.282 . S
C444 O445 1.261 . S
C444 O457 1.251 . S
O445 C444 1.261 . S
H446 C440 0.930 . S
H447 C442 0.930 . S
N448 Cu437 1.985 . S
N448 C450 1.335 . S
N448 C451 1.390 . S
N449 C450 1.345 . S
N449 C452 1.336 . S
C450 N448 1.335 . S
C450 N449 1.345 . S
C450 H455 0.930 . S
C451 N448 1.390 . S
C451 C452 1.346 . S
C451 H456 0.930 . S
C452 N449 1.336 . S
C452 C451 1.346 . S
C452 H459 0.929 . S
C453 O443 1.282 . S
C453 O454 1.216 . S
O454 C453 1.216 . S
H455 C450 0.930 . S
H456 C451 0.930 . S
O457 Cu437 1.959 . S
O457 C444 1.251 . S
H458 C441 0.930 . S
H459 C452 0.929 . S
Cu460 N461 1.999 . S
Cu460 O466 1.974 . S
Cu460 N471 1.985 . S
Cu460 O480 1.959 . S
N461 Cu460 1.999 . S
N461 C463 1.263 . S
N461 C465 1.389 . S
N462 C463 1.358 . S
N462 C464 1.400 . S
C463 N461 1.263 . S
C463 N462 1.358 . S
C463 H469 0.930 . S
C464 N462 1.400 . S
C464 C465 1.351 . S
C464 H481 0.930 . S
C465 N461 1.389 . S
C465 C464 1.351 . S
C465 H470 0.930 . S
O466 Cu460 1.974 . S
O466 C476 1.282 . S
C467 O468 1.261 . S
C467 O480 1.251 . S
O468 C467 1.261 . S
H469 C463 0.930 . S
H470 C465 0.930 . S
N471 Cu460 1.985 . S
N471 C473 1.335 . S
N471 C474 1.390 . S
N472 C473 1.345 . S
N472 C475 1.336 . S
C473 N471 1.335 . S
C473 N472 1.345 . S
C473 H478 0.930 . S
C474 N471 1.390 . S
C474 C475 1.346 . S
C474 H479 0.930 . S
C475 N472 1.336 . S
C475 C474 1.346 . S
C475 H482 0.929 . S
C476 O466 1.282 . S
C476 O477 1.216 . S
O477 C476 1.216 . S
H478 C473 0.930 . S
H479 C474 0.930 . S
O480 Cu460 1.959 . S
O480 C467 1.251 . S
H481 C464 0.930 . S
H482 C475 0.929 . S
Cu483 N484 1.999 . S
Cu483 O489 1.974 . S
Cu483 N494 1.985 . S
Cu483 O503 1.959 . S
N484 Cu483 1.999 . S
N484 C486 1.263 . S
N484 C488 1.389 . S
N485 C486 1.358 . S
N485 C487 1.400 . S
C486 N484 1.263 . S
C486 N485 1.358 . S
C486 H492 0.930 . S
C487 N485 1.400 . S
C487 C488 1.351 . S
C487 H504 0.930 . S
C488 N484 1.389 . S
C488 C487 1.351 . S
C488 H493 0.930 . S
O489 Cu483 1.974 . S
O489 C499 1.282 . S
C490 O491 1.261 . S
C490 O503 1.251 . S
O491 C490 1.261 . S
H492 C486 0.930 . S
H493 C488 0.930 . S
N494 Cu483 1.985 . S
N494 C496 1.335 . S
N494 C497 1.390 . S
N495 C496 1.345 . S
N495 C498 1.336 . S
C496 N494 1.335 . S
C496 N495 1.345 . S
C496 H501 0.930 . S
C497 N494 1.390 . S
C497 C498 1.346 . S
C497 H502 0.930 . S
C498 N495 1.336 . S
C498 C497 1.346 . S
C498 H505 0.929 . S
C499 O489 1.282 . S
C499 O500 1.216 . S
O500 C499 1.216 . S
H501 C496 0.930 . S
H502 C497 0.930 . S
O503 Cu483 1.959 . S
O503 C490 1.251 . S
H504 C487 0.930 . S
H505 C498 0.929 . S
Cu506 N507 1.999 . S
Cu506 O512 1.974 . S
Cu506 N517 1.985 . S
Cu506 O526 1.959 . S
N507 Cu506 1.999 . S
N507 C509 1.263 . S
N507 C511 1.389 . S
N508 C509 1.358 . S
N508 C510 1.400 . S
C509 N507 1.263 . S
C509 N508 1.358 . S
C509 H515 0.930 . S
C510 N508 1.400 . S
C510 C511 1.351 . S
C510 H527 0.930 . S
C511 N507 1.389 . S
C511 C510 1.351 . S
C511 H516 0.930 . S
O512 Cu506 1.974 . S
O512 C522 1.282 . S
C513 O514 1.261 . S
C513 O526 1.251 . S
O514 C513 1.261 . S
H515 C509 0.930 . S
H516 C511 0.930 . S
N517 Cu506 1.985 . S
N517 C519 1.335 . S
N517 C520 1.390 . S
N518 C519 1.345 . S
N518 C521 1.336 . S
C519 N517 1.335 . S
C519 N518 1.345 . S
C519 H524 0.930 . S
C520 N517 1.390 . S
C520 C521 1.346 . S
C520 H525 0.930 . S
C521 N518 1.336 . S
C521 C520 1.346 . S
C521 H528 0.929 . S
C522 O512 1.282 . S
C522 O523 1.216 . S
O523 C522 1.216 . S
H524 C519 0.930 . S
H525 C520 0.930 . S
O526 Cu506 1.959 . S
O526 C513 1.251 . S
H527 C510 0.930 . S
H528 C521 0.929 . S
Cu529 N530 1.999 . S
Cu529 O535 1.974 . S
Cu529 N540 1.985 . S
Cu529 O549 1.959 . S
N530 Cu529 1.999 . S
N530 C532 1.263 . S
N530 C534 1.389 . S
N531 C532 1.358 . S
N531 C533 1.400 . S
C532 N530 1.263 . S
C532 N531 1.358 . S
C532 H538 0.930 . S
C533 N531 1.400 . S
C533 C534 1.351 . S
C533 H550 0.930 . S
C534 N530 1.389 . S
C534 C533 1.351 . S
C534 H539 0.930 . S
O535 Cu529 1.974 . S
O535 C545 1.282 . S
C536 O537 1.261 . S
C536 O549 1.251 . S
O537 C536 1.261 . S
H538 C532 0.930 . S
H539 C534 0.930 . S
N540 Cu529 1.985 . S
N540 C542 1.335 . S
N540 C543 1.390 . S
N541 C542 1.345 . S
N541 C544 1.336 . S
C542 N540 1.335 . S
C542 N541 1.345 . S
C542 H547 0.930 . S
C543 N540 1.390 . S
C543 C544 1.346 . S
C543 H548 0.930 . S
C544 N541 1.336 . S
C544 C543 1.346 . S
C544 H551 0.929 . S
C545 O535 1.282 . S
C545 O546 1.216 . S
O546 C545 1.216 . S
H547 C542 0.930 . S
H548 C543 0.930 . S
O549 Cu529 1.959 . S
O549 C536 1.251 . S
H550 C533 0.930 . S
H551 C544 0.929 . S
C552 C553 1.387 . S
C552 H556 0.950 . S
C552 C561 1.390 . S
C553 C552 1.387 . S
C553 C555 1.387 . S
H554 C561 0.950 . S
C555 C553 1.387 . S
C555 C557 1.390 . S
C555 H559 0.950 . S
H556 C552 0.950 . S
C557 C555 1.390 . S
C557 C558 1.387 . S
C557 H560 0.950 . S
C558 C557 1.387 . S
C558 C561 1.387 . S
H559 C555 0.950 . S
H560 C557 0.950 . S
C561 C552 1.390 . S
C561 H554 0.950 . S
C561 C558 1.387 . S
C562 C563 1.387 . S
C562 H566 0.950 . S
C562 C571 1.390 . S
C563 C562 1.387 . S
C563 C565 1.387 . S
H564 C571 0.950 . S
C565 C563 1.387 . S
C565 C567 1.390 . S
C565 H569 0.950 . S
H566 C562 0.950 . S
C567 C565 1.390 . S
C567 C568 1.387 . S
C567 H570 0.950 . S
C568 C567 1.387 . S
C568 C571 1.387 . S
H569 C565 0.950 . S
H570 C567 0.950 . S
C571 C562 1.390 . S
C571 H564 0.950 . S
C571 C568 1.387 . S
C572 C573 1.387 . S
C572 H576 0.950 . S
C572 C581 1.390 . S
C573 C572 1.387 . S
C573 C575 1.387 . S
H574 C581 0.950 . S
C575 C573 1.387 . S
C575 C577 1.390 . S
C575 H579 0.950 . S
H576 C572 0.950 . S
C577 C575 1.390 . S
C577 C578 1.387 . S
C577 H580 0.950 . S
C578 C577 1.387 . S
C578 C581 1.387 . S
H579 C575 0.950 . S
H580 C577 0.950 . S
C581 C572 1.390 . S
C581 H574 0.950 . S
C581 C578 1.387 . S
C582 C583 1.387 . S
C582 H586 0.950 . S
C582 C591 1.390 . S
C583 C582 1.387 . S
C583 C585 1.387 . S
H584 C591 0.950 . S
C585 C583 1.387 . S
C585 C587 1.390 . S
C585 H589 0.950 . S
H586 C582 0.950 . S
C587 C585 1.390 . S
C587 C588 1.387 . S
C587 H590 0.950 . S
C588 C587 1.387 . S
C588 C591 1.387 . S
H589 C585 0.950 . S
H590 C587 0.950 . S
C591 C582 1.390 . S
C591 H584 0.950 . S
C591 C588 1.387 . S
C592 C593 1.387 . S
C592 H596 0.950 . S
C592 C601 1.390 . S
C593 C592 1.387 . S
C593 C595 1.387 . S
H594 C601 0.950 . S
C595 C593 1.387 . S
C595 C597 1.390 . S
C595 H599 0.950 . S
H596 C592 0.950 . S
C597 C595 1.390 . S
C597 C598 1.387 . S
C597 H600 0.950 . S
C598 C597 1.387 . S
C598 C601 1.387 . S
H599 C595 0.950 . S
H600 C597 0.950 . S
C601 C592 1.390 . S
C601 H594 0.950 . S
C601 C598 1.387 . S
C602 C603 1.387 . S
C602 H606 0.950 . S
C602 C611 1.390 . S
C603 C602 1.387 . S
C603 C605 1.387 . S
H604 C611 0.950 . S
C605 C603 1.387 . S
C605 C607 1.390 . S
C605 H609 0.950 . S
H606 C602 0.950 . S
C607 C605 1.390 . S
C607 C608 1.387 . S
C607 H610 0.950 . S
C608 C607 1.387 . S
C608 C611 1.387 . S
H609 C605 0.950 . S
H610 C607 0.950 . S
C611 C602 1.390 . S
C611 H604 0.950 . S
C611 C608 1.387 . S
C612 C613 1.387 . S
C612 H616 0.950 . S
C612 C621 1.390 . S
C613 C612 1.387 . S
C613 C615 1.387 . S
H614 C621 0.950 . S
C615 C613 1.387 . S
C615 C617 1.390 . S
C615 H619 0.950 . S
H616 C612 0.950 . S
C617 C615 1.390 . S
C617 C618 1.387 . S
C617 H620 0.950 . S
C618 C617 1.387 . S
C618 C621 1.387 . S
H619 C615 0.950 . S
H620 C617 0.950 . S
C621 C612 1.390 . S
C621 H614 0.950 . S
C621 C618 1.387 . S
C622 C623 1.387 . S
C622 H626 0.950 . S
C622 C631 1.390 . S
C623 C622 1.387 . S
C623 C625 1.387 . S
H624 C631 0.950 . S
C625 C623 1.387 . S
C625 C627 1.390 . S
C625 H629 0.950 . S
H626 C622 0.950 . S
C627 C625 1.390 . S
C627 C628 1.387 . S
C627 H630 0.950 . S
C628 C627 1.387 . S
C628 C631 1.387 . S
H629 C625 0.950 . S
H630 C627 0.950 . S
C631 C622 1.390 . S
C631 H624 0.950 . S
C631 C628 1.387 . S
C632 C633 1.387 . S
C632 H636 0.950 . S
C632 C641 1.390 . S
C633 C632 1.387 . S
C633 C635 1.387 . S
H634 C641 0.950 . S
C635 C633 1.387 . S
C635 C637 1.390 . S
C635 H639 0.950 . S
H636 C632 0.950 . S
C637 C635 1.390 . S
C637 C638 1.387 . S
C637 H640 0.950 . S
C638 C637 1.387 . S
C638 C641 1.387 . S
H639 C635 0.950 . S
H640 C637 0.950 . S
C641 C632 1.390 . S
C641 H634 0.950 . S
C641 C638 1.387 . S
C642 C643 1.387 . S
C642 H646 0.950 . S
C642 C651 1.390 . S
C643 C642 1.387 . S
C643 C645 1.387 . S
H644 C651 0.950 . S
C645 C643 1.387 . S
C645 C647 1.390 . S
C645 H649 0.950 . S
H646 C642 0.950 . S
C647 C645 1.390 . S
C647 C648 1.387 . S
C647 H650 0.950 . S
C648 C647 1.387 . S
C648 C651 1.387 . S
H649 C645 0.950 . S
H650 C647 0.950 . S
C651 C642 1.390 . S
C651 H644 0.950 . S
C651 C648 1.387 . S
C652 C653 1.387 . S
C652 H656 0.950 . S
C652 C661 1.390 . S
C653 C652 1.387 . S
C653 C655 1.387 . S
H654 C661 0.950 . S
C655 C653 1.387 . S
C655 C657 1.390 . S
C655 H659 0.950 . S
H656 C652 0.950 . S
C657 C655 1.390 . S
C657 C658 1.387 . S
C657 H660 0.950 . S
C658 C657 1.387 . S
C658 C661 1.387 . S
H659 C655 0.950 . S
H660 C657 0.950 . S
C661 C652 1.390 . S
C661 H654 0.950 . S
C661 C658 1.387 . S
C662 C663 1.387 . S
C662 H666 0.950 . S
C662 C671 1.390 . S
C663 C662 1.387 . S
C663 C665 1.387 . S
H664 C671 0.950 . S
C665 C663 1.387 . S
C665 C667 1.390 . S
C665 H669 0.950 . S
H666 C662 0.950 . S
C667 C665 1.390 . S
C667 C668 1.387 . S
C667 H670 0.950 . S
C668 C667 1.387 . S
C668 C671 1.387 . S
H669 C665 0.950 . S
H670 C667 0.950 . S
C671 C662 1.390 . S
C671 H664 0.950 . S
C671 C668 1.387 . S
C672 C673 1.387 . S
C672 H676 0.950 . S
C672 C681 1.390 . S
C673 C672 1.387 . S
C673 C675 1.387 . S
H674 C681 0.950 . S
C675 C673 1.387 . S
C675 C677 1.390 . S
C675 H679 0.950 . S
H676 C672 0.950 . S
C677 C675 1.390 . S
C677 C678 1.387 . S
C677 H680 0.950 . S
C678 C677 1.387 . S
C678 C681 1.387 . S
H679 C675 0.950 . S
H680 C677 0.950 . S
C681 C672 1.390 . S
C681 H674 0.950 . S
C681 C678 1.387 . S
C682 C683 1.387 . S
C682 H686 0.950 . S
C682 C691 1.390 . S
C683 C682 1.387 . S
C683 C685 1.387 . S
H684 C691 0.950 . S
C685 C683 1.387 . S
C685 C687 1.390 . S
C685 H689 0.950 . S
H686 C682 0.950 . S
C687 C685 1.390 . S
C687 C688 1.387 . S
C687 H690 0.950 . S
C688 C687 1.387 . S
C688 C691 1.387 . S
H689 C685 0.950 . S
H690 C687 0.950 . S
C691 C682 1.390 . S
C691 H684 0.950 . S
C691 C688 1.387 . S
C692 C693 1.387 . S
C692 H696 0.950 . S
C692 C701 1.390 . S
C693 C692 1.387 . S
C693 C695 1.387 . S
H694 C701 0.950 . S
C695 C693 1.387 . S
C695 C697 1.390 . S
C695 H699 0.950 . S
H696 C692 0.950 . S
C697 C695 1.390 . S
C697 C698 1.387 . S
C697 H700 0.950 . S
C698 C697 1.387 . S
C698 C701 1.387 . S
H699 C695 0.950 . S
H700 C697 0.950 . S
C701 C692 1.390 . S
C701 H694 0.950 . S
C701 C698 1.387 . S
C702 C703 1.387 . S
C702 H706 0.950 . S
C702 C711 1.390 . S
C703 C702 1.387 . S
C703 C705 1.387 . S
H704 C711 0.950 . S
C705 C703 1.387 . S
C705 C707 1.390 . S
C705 H709 0.950 . S
H706 C702 0.950 . S
C707 C705 1.390 . S
C707 C708 1.387 . S
C707 H710 0.950 . S
C708 C707 1.387 . S
C708 C711 1.387 . S
H709 C705 0.950 . S
H710 C707 0.950 . S
C711 C702 1.390 . S
C711 H704 0.950 . S
C711 C708 1.387 . S
C712 C713 1.387 . S
C712 H716 0.950 . S
C712 C721 1.390 . S
C713 C712 1.387 . S
C713 C715 1.387 . S
H714 C721 0.950 . S
C715 C713 1.387 . S
C715 C717 1.390 . S
C715 H719 0.950 . S
H716 C712 0.950 . S
C717 C715 1.390 . S
C717 C718 1.387 . S
C717 H720 0.950 . S
C718 C717 1.387 . S
C718 C721 1.387 . S
H719 C715 0.950 . S
H720 C717 0.950 . S
C721 C712 1.390 . S
C721 H714 0.950 . S
C721 C718 1.387 . S
C722 C723 1.387 . S
C722 H726 0.950 . S
C722 C731 1.390 . S
C723 C722 1.387 . S
C723 C725 1.387 . S
H724 C731 0.950 . S
C725 C723 1.387 . S
C725 C727 1.390 . S
C725 H729 0.950 . S
H726 C722 0.950 . S
C727 C725 1.390 . S
C727 C728 1.387 . S
C727 H730 0.950 . S
C728 C727 1.387 . S
C728 C731 1.387 . S
H729 C725 0.950 . S
H730 C727 0.950 . S
C731 C722 1.390 . S
C731 H724 0.950 . S
C731 C728 1.387 . S
C732 C733 1.387 . S
C732 H736 0.950 . S
C732 C741 1.390 . S
C733 C732 1.387 . S
C733 C735 1.387 . S
H734 C741 0.950 . S
C735 C733 1.387 . S
C735 C737 1.390 . S
C735 H739 0.950 . S
H736 C732 0.950 . S
C737 C735 1.390 . S
C737 C738 1.387 . S
C737 H740 0.950 . S
C738 C737 1.387 . S
C738 C741 1.387 . S
H739 C735 0.950 . S
H740 C737 0.950 . S
C741 C732 1.390 . S
C741 H734 0.950 . S
C741 C738 1.387 . S
C742 C743 1.387 . S
C742 H746 0.950 . S
C742 C751 1.390 . S
C743 C742 1.387 . S
C743 C745 1.387 . S
H744 C751 0.950 . S
C745 C743 1.387 . S
C745 C747 1.390 . S
C745 H749 0.950 . S
H746 C742 0.950 . S
C747 C745 1.390 . S
C747 C748 1.387 . S
C747 H750 0.950 . S
C748 C747 1.387 . S
C748 C751 1.387 . S
H749 C745 0.950 . S
H750 C747 0.950 . S
C751 C742 1.390 . S
C751 H744 0.950 . S
C751 C748 1.387 . S
C752 C753 1.387 . S
C752 H756 0.950 . S
C752 C761 1.390 . S
C753 C752 1.387 . S
C753 C755 1.387 . S
H754 C761 0.950 . S
C755 C753 1.387 . S
C755 C757 1.390 . S
C755 H759 0.950 . S
H756 C752 0.950 . S
C757 C755 1.390 . S
C757 C758 1.387 . S
C757 H760 0.950 . S
C758 C757 1.387 . S
C758 C761 1.387 . S
H759 C755 0.950 . S
H760 C757 0.950 . S
C761 C752 1.390 . S
C761 H754 0.950 . S
C761 C758 1.387 . S
C762 C763 1.387 . S
C762 H766 0.950 . S
C762 C771 1.390 . S
C763 C762 1.387 . S
C763 C765 1.387 . S
H764 C771 0.950 . S
C765 C763 1.387 . S
C765 C767 1.390 . S
C765 H769 0.950 . S
H766 C762 0.950 . S
C767 C765 1.390 . S
C767 C768 1.387 . S
C767 H770 0.950 . S
C768 C767 1.387 . S
C768 C771 1.387 . S
H769 C765 0.950 . S
H770 C767 0.950 . S
C771 C762 1.390 . S
C771 H764 0.950 . S
C771 C768 1.387 . S
C772 C773 1.387 . S
C772 H776 0.950 . S
C772 C781 1.390 . S
C773 C772 1.387 . S
C773 C775 1.387 . S
H774 C781 0.950 . S
C775 C773 1.387 . S
C775 C777 1.390 . S
C775 H779 0.950 . S
H776 C772 0.950 . S
C777 C775 1.390 . S
C777 C778 1.387 . S
C777 H780 0.950 . S
C778 C777 1.387 . S
C778 C781 1.387 . S
H779 C775 0.950 . S
H780 C777 0.950 . S
C781 C772 1.390 . S
C781 H774 0.950 . S
C781 C778 1.387 . S
C782 C783 1.387 . S
C782 H786 0.950 . S
C782 C791 1.390 . S
C783 C782 1.387 . S
C783 C785 1.387 . S
H784 C791 0.950 . S
C785 C783 1.387 . S
C785 C787 1.390 . S
C785 H789 0.950 . S
H786 C782 0.950 . S
C787 C785 1.390 . S
C787 C788 1.387 . S
C787 H790 0.950 . S
C788 C787 1.387 . S
C788 C791 1.387 . S
H789 C785 0.950 . S
H790 C787 0.950 . S
C791 C782 1.390 . S
C791 H784 0.950 . S
C791 C788 1.387 . S
C792 C793 1.387 . S
C792 H796 0.950 . S
C792 C801 1.390 . S
C793 C792 1.387 . S
C793 C795 1.387 . S
H794 C801 0.950 . S
C795 C793 1.387 . S
C795 C797 1.390 . S
C795 H799 0.950 . S
H796 C792 0.950 . S
C797 C795 1.390 . S
C797 C798 1.387 . S
C797 H800 0.950 . S
C798 C797 1.387 . S
C798 C801 1.387 . S
H799 C795 0.950 . S
H800 C797 0.950 . S
C801 C792 1.390 . S
C801 H794 0.950 . S
C801 C798 1.387 . S
C802 C803 1.387 . S
C802 H806 0.950 . S
C802 C811 1.390 . S
C803 C802 1.387 . S
C803 C805 1.387 . S
H804 C811 0.950 . S
C805 C803 1.387 . S
C805 C807 1.390 . S
C805 H809 0.950 . S
H806 C802 0.950 . S
C807 C805 1.390 . S
C807 C808 1.387 . S
C807 H810 0.950 . S
C808 C807 1.387 . S
C808 C811 1.387 . S
H809 C805 0.950 . S
H810 C807 0.950 . S
C811 C802 1.390 . S
C811 H804 0.950 . S
C811 C808 1.387 . S
C812 C813 1.387 . S
C812 H816 0.950 . S
C812 C821 1.390 . S
C813 C812 1.387 . S
C813 C815 1.387 . S
H814 C821 0.950 . S
C815 C813 1.387 . S
C815 C817 1.390 . S
C815 H819 0.950 . S
H816 C812 0.950 . S
C817 C815 1.390 . S
C817 C818 1.387 . S
C817 H820 0.950 . S
C818 C817 1.387 . S
C818 C821 1.387 . S
H819 C815 0.950 . S
H820 C817 0.950 . S
C821 C812 1.390 . S
C821 H814 0.950 . S
C821 C818 1.387 . S
C822 C823 1.387 . S
C822 H826 0.950 . S
C822 C831 1.390 . S
C823 C822 1.387 . S
C823 C825 1.387 . S
H824 C831 0.950 . S
C825 C823 1.387 . S
C825 C827 1.390 . S
C825 H829 0.950 . S
H826 C822 0.950 . S
C827 C825 1.390 . S
C827 C828 1.387 . S
C827 H830 0.950 1_655 S
C828 C827 1.387 . S
C828 C831 1.387 . S
H829 C825 0.950 . S
H830 C827 0.950 1_455 S
C831 C822 1.390 . S
C831 H824 0.950 . S
C831 C828 1.387 . S
C832 C833 1.387 . S
C832 H836 0.950 . S
C832 C841 1.390 . S
C833 C832 1.387 . S
C833 C835 1.387 . S
H834 C841 0.950 . S
C835 C833 1.387 . S
C835 C837 1.390 . S
C835 H839 0.950 . S
H836 C832 0.950 . S
C837 C835 1.390 . S
C837 C838 1.387 . S
C837 H840 0.950 . S
C838 C837 1.387 . S
C838 C841 1.387 . S
H839 C835 0.950 . S
H840 C837 0.950 . S
C841 C832 1.390 . S
C841 H834 0.950 . S
C841 C838 1.387 . S
C842 C843 1.387 . S
C842 H846 0.950 . S
C842 C851 1.390 . S
C843 C842 1.387 . S
C843 C845 1.387 . S
H844 C851 0.950 . S
C845 C843 1.387 . S
C845 C847 1.390 . S
C845 H849 0.950 . S
H846 C842 0.950 . S
C847 C845 1.390 . S
C847 C848 1.387 . S
C847 H850 0.950 . S
C848 C847 1.387 . S
C848 C851 1.387 . S
H849 C845 0.950 . S
H850 C847 0.950 . S
C851 C842 1.390 . S
C851 H844 0.950 . S
C851 C848 1.387 . S
C852 C853 1.387 . S
C852 H856 0.950 . S
C852 C861 1.390 . S
C853 C852 1.387 . S
C853 C855 1.387 . S
H854 C861 0.950 . S
C855 C853 1.387 . S
C855 C857 1.390 . S
C855 H859 0.950 . S
H856 C852 0.950 . S
C857 C855 1.390 . S
C857 C858 1.387 . S
C857 H860 0.950 . S
C858 C857 1.387 . S
C858 C861 1.387 . S
H859 C855 0.950 . S
H860 C857 0.950 . S
C861 C852 1.390 . S
C861 H854 0.950 . S
C861 C858 1.387 . S
C862 C863 1.387 . S
C862 H866 0.950 . S
C862 C871 1.390 . S
C863 C862 1.387 . S
C863 C865 1.387 . S
H864 C871 0.950 . S
C865 C863 1.387 . S
C865 C867 1.390 . S
C865 H869 0.950 . S
H866 C862 0.950 . S
C867 C865 1.390 . S
C867 C868 1.387 . S
C867 H870 0.950 . S
C868 C867 1.387 . S
C868 C871 1.387 . S
H869 C865 0.950 . S
H870 C867 0.950 . S
C871 C862 1.390 . S
C871 H864 0.950 . S
C871 C868 1.387 . S
C872 C873 1.387 . S
C872 H876 0.950 . S
C872 C881 1.390 . S
C873 C872 1.387 . S
C873 C875 1.387 . S
H874 C881 0.950 . S
C875 C873 1.387 . S
C875 C877 1.390 . S
C875 H879 0.950 . S
H876 C872 0.950 . S
C877 C875 1.390 . S
C877 C878 1.387 . S
C877 H880 0.950 . S
C878 C877 1.387 . S
C878 C881 1.387 . S
H879 C875 0.950 . S
H880 C877 0.950 . S
C881 C872 1.390 . S
C881 H874 0.950 . S
C881 C878 1.387 . S
C882 C883 1.387 . S
C882 H886 0.950 . S
C882 C891 1.390 . S
C883 C882 1.387 . S
C883 C885 1.387 . S
H884 C891 0.950 . S
C885 C883 1.387 . S
C885 C887 1.390 . S
C885 H889 0.950 . S
H886 C882 0.950 . S
C887 C885 1.390 . S
C887 C888 1.387 . S
C887 H890 0.950 . S
C888 C887 1.387 . S
C888 C891 1.387 . S
H889 C885 0.950 . S
H890 C887 0.950 . S
C891 C882 1.390 . S
C891 H884 0.950 . S
C891 C888 1.387 . S
C892 C893 1.387 . S
C892 H896 0.950 . S
C892 C901 1.390 . S
C893 C892 1.387 . S
C893 C895 1.387 . S
H894 C901 0.950 . S
C895 C893 1.387 . S
C895 C897 1.390 . S
C895 H899 0.950 . S
H896 C892 0.950 . S
C897 C895 1.390 . S
C897 C898 1.387 . S
C897 H900 0.950 . S
C898 C897 1.387 . S
C898 C901 1.387 . S
H899 C895 0.950 . S
H900 C897 0.950 . S
C901 C892 1.390 . S
C901 H894 0.950 . S
C901 C898 1.387 . S
C902 C903 1.387 . S
C902 H906 0.950 . S
C902 C911 1.390 . S
C903 C902 1.387 . S
C903 C905 1.387 . S
H904 C911 0.950 . S
C905 C903 1.387 . S
C905 C907 1.390 . S
C905 H909 0.950 . S
H906 C902 0.950 . S
C907 C905 1.390 . S
C907 C908 1.387 . S
C907 H910 0.950 . S
C908 C907 1.387 . S
C908 C911 1.387 . S
H909 C905 0.950 . S
H910 C907 0.950 . S
C911 C902 1.390 . S
C911 H904 0.950 . S
C911 C908 1.387 . S
C912 C913 1.387 . S
C912 H916 0.950 . S
C912 C921 1.390 . S
C913 C912 1.387 . S
C913 C915 1.387 . S
H914 C921 0.950 . S
C915 C913 1.387 . S
C915 C917 1.390 . S
C915 H919 0.950 . S
H916 C912 0.950 . S
C917 C915 1.390 . S
C917 C918 1.387 . S
C917 H920 0.950 . S
C918 C917 1.387 . S
C918 C921 1.387 . S
H919 C915 0.950 . S
H920 C917 0.950 . S
C921 C912 1.390 . S
C921 H914 0.950 . S
C921 C918 1.387 . S
C922 C923 1.387 . S
C922 H926 0.950 . S
C922 C931 1.390 . S
C923 C922 1.387 . S
C923 C925 1.387 . S
H924 C931 0.950 . S
C925 C923 1.387 . S
C925 C927 1.390 . S
C925 H929 0.950 . S
H926 C922 0.950 . S
C927 C925 1.390 . S
C927 C928 1.387 . S
C927 H930 0.950 . S
C928 C927 1.387 . S
C928 C931 1.387 . S
H929 C925 0.950 . S
H930 C927 0.950 . S
C931 C922 1.390 . S
C931 H924 0.950 . S
C931 C928 1.387 . S
C932 C933 1.387 . S
C932 H936 0.950 . S
C932 C941 1.390 . S
C933 C932 1.387 . S
C933 C935 1.387 . S
H934 C941 0.950 . S
C935 C933 1.387 . S
C935 C937 1.390 . S
C935 H939 0.950 . S
H936 C932 0.950 . S
C937 C935 1.390 . S
C937 C938 1.387 . S
C937 H940 0.950 . S
C938 C937 1.387 . S
C938 C941 1.387 . S
H939 C935 0.950 . S
H940 C937 0.950 . S
C941 C932 1.390 . S
C941 H934 0.950 . S
C941 C938 1.387 . S
C942 C943 1.387 . S
C942 H946 0.950 . S
C942 C951 1.390 . S
C943 C942 1.387 . S
C943 C945 1.387 . S
H944 C951 0.950 . S
C945 C943 1.387 . S
C945 C947 1.390 . S
C945 H949 0.950 . S
H946 C942 0.950 . S
C947 C945 1.390 . S
C947 C948 1.387 . S
C947 H950 0.950 . S
C948 C947 1.387 . S
C948 C951 1.387 . S
H949 C945 0.950 . S
H950 C947 0.950 . S
C951 C942 1.390 . S
C951 H944 0.950 . S
C951 C948 1.387 . S
C952 C953 1.387 . S
C952 H956 0.950 . S
C952 C961 1.390 . S
C953 C952 1.387 . S
C953 C955 1.387 . S
H954 C961 0.950 . S
C955 C953 1.387 . S
C955 C957 1.390 . S
C955 H959 0.950 . S
H956 C952 0.950 . S
C957 C955 1.390 . S
C957 C958 1.387 . S
C957 H960 0.950 . S
C958 C957 1.387 . S
C958 C961 1.387 . S
H959 C955 0.950 . S
H960 C957 0.950 . S
C961 C952 1.390 . S
C961 H954 0.950 . S
C961 C958 1.387 . S
C962 C963 1.387 . S
C962 H966 0.950 . S
C962 C971 1.390 . S
C963 C962 1.387 . S
C963 C965 1.387 . S
H964 C971 0.950 . S
C965 C963 1.387 . S
C965 C967 1.390 . S
C965 H969 0.950 . S
H966 C962 0.950 . S
C967 C965 1.390 . S
C967 C968 1.387 . S
C967 H970 0.950 . S
C968 C967 1.387 . S
C968 C971 1.387 . S
H969 C965 0.950 . S
H970 C967 0.950 . S
C971 C962 1.390 . S
C971 H964 0.950 . S
C971 C968 1.387 . S
C972 C973 1.387 . S
C972 H976 0.950 . S
C972 C981 1.390 . S
C973 C972 1.387 . S
C973 C975 1.387 . S
H974 C981 0.950 . S
C975 C973 1.387 . S
C975 C977 1.390 . S
C975 H979 0.950 . S
H976 C972 0.950 . S
C977 C975 1.390 . S
C977 C978 1.387 . S
C977 H980 0.950 . S
C978 C977 1.387 . S
C978 C981 1.387 . S
H979 C975 0.950 . S
H980 C977 0.950 . S
C981 C972 1.390 . S
C981 H974 0.950 . S
C981 C978 1.387 . S
C982 C983 1.387 . S
C982 H986 0.950 . S
C982 C991 1.390 . S
C983 C982 1.387 . S
C983 C985 1.387 . S
H984 C991 0.950 . S
C985 C983 1.387 . S
C985 C987 1.390 . S
C985 H989 0.950 . S
H986 C982 0.950 . S
C987 C985 1.390 . S
C987 C988 1.387 . S
C987 H990 0.950 . S
C988 C987 1.387 . S
C988 C991 1.387 . S
H989 C985 0.950 . S
H990 C987 0.950 . S
C991 C982 1.390 . S
C991 H984 0.950 . S
C991 C988 1.387 . S
C992 C993 1.387 . S
C992 H996 0.950 . S
C992 C1001 1.390 . S
C993 C992 1.387 . S
C993 C995 1.387 . S
H994 C1001 0.950 . S
C995 C993 1.387 . S
C995 C997 1.390 . S
C995 H999 0.950 . S
H996 C992 0.950 . S
C997 C995 1.390 . S
C997 C998 1.387 . S
C997 H1000 0.950 . S
C998 C997 1.387 . S
C998 C1001 1.387 . S
H999 C995 0.950 . S
H1000 C997 0.950 . S
C1001 C992 1.390 . S
C1001 H994 0.950 . S
C1001 C998 1.387 . S
C1002 C1003 1.387 . S
C1002 H1006 0.950 . S
C1002 C1011 1.390 . S
C1003 C1002 1.387 . S
C1003 C1005 1.387 . S
H1004 C1011 0.950 . S
C1005 C1003 1.387 . S
C1005 C1007 1.390 . S
C1005 H1009 0.950 . S
H1006 C1002 0.950 . S
C1007 C1005 1.390 . S
C1007 C1008 1.387 . S
C1007 H1010 0.950 . S
C1008 C1007 1.387 . S
C1008 C1011 1.387 . S
H1009 C1005 0.950 . S
H1010 C1007 0.950 . S
C1011 C1002 1.390 . S
C1011 H1004 0.950 . S
C1011 C1008 1.387 . S
C1012 C1013 1.387 . S
C1012 H1016 0.950 . S
C1012 C1021 1.390 . S
C1013 C1012 1.387 . S
C1013 C1015 1.387 . S
H1014 C1021 0.950 . S
C1015 C1013 1.387 . S
C1015 C1017 1.390 . S
C1015 H1019 0.950 . S
H1016 C1012 0.950 . S
C1017 C1015 1.390 . S
C1017 C1018 1.387 . S
C1017 H1020 0.950 . S
C1018 C1017 1.387 . S
C1018 C1021 1.387 . S
H1019 C1015 0.950 . S
H1020 C1017 0.950 . S
C1021 C1012 1.390 . S
C1021 H1014 0.950 . S
C1021 C1018 1.387 . S
C1022 C1023 1.387 . S
C1022 H1026 0.950 . S
C1022 C1031 1.390 . S
C1023 C1022 1.387 . S
C1023 C1025 1.387 . S
H1024 C1031 0.950 . S
C1025 C1023 1.387 . S
C1025 C1027 1.390 . S
C1025 H1029 0.950 . S
H1026 C1022 0.950 . S
C1027 C1025 1.390 . S
C1027 C1028 1.387 . S
C1027 H1030 0.950 . S
C1028 C1027 1.387 . S
C1028 C1031 1.387 . S
H1029 C1025 0.950 . S
H1030 C1027 0.950 . S
C1031 C1022 1.390 . S
C1031 H1024 0.950 . S
C1031 C1028 1.387 . S
C553 N518 1.247 . S
C558 N12 1.287 . S
C563 C39 1.682 . S
C568 C536 1.683 . S
C573 N472 1.221 . S
C578 N58 1.242 . S
C583 C490 1.763 . S
C588 C76 1.757 . S
C593 C499 1.646 . S
C598 N104 1.573 . S
C603 N117 1.334 . S
C608 N508 1.356 . S
C613 C545 1.572 . S
C618 N150 1.496 . S
C623 C177 1.314 . S
C628 N462 1.310 . S
C633 C191 1.328 . S
C638 N439 1.331 . S
C643 C384 1.855 . S
C648 C223 1.859 . S
C653 N232 1.159 . S
C658 N393 1.187 . S
C663 N426 1.577 . S
C668 C269 1.655 . S
C673 C260 1.657 . S
C678 N301 1.663 . S
C683 C200 1.458 . S
C688 N334 1.379 . S
C693 C361 1.689 . S
C698 C214 1.669 . S
C703 N242 1.221 . S
C708 N288 1.203 . S
C713 C30 1.618 . S
C718 N416 1.595 . S
C723 N324 1.499 . S
C728 C168 1.525 . S
C733 N94 1.582 . S
C738 C352 1.595 . S
C743 N278 1.415 . S
C748 N127 1.325 . S
C753 N140 1.502 . S
C758 N311 1.394 . S
C763 C85 1.876 . S
C768 C375 1.869 . S
C773 N2 1.303 . S
C778 N403 1.213 . S
C783 N48 1.394 . S
C788 N449 1.297 . S
C793 C145 2.028 . S
C798 C467 2.030 . S
C803 N495 1.395 . S
C808 N163 1.407 . S
C813 C513 1.909 . S
C818 C99 1.906 . S
C823 N541 1.329 . S
C828 C131 1.380 . S
C833 C53 1.530 . S
C838 N531 1.527 . S
C843 N81 1.798 . S
C848 C476 1.801 . S
C853 C7 1.618 . S
C858 N485 1.586 . S
C863 C522 1.614 . S
C868 N25 1.584 . S
C873 C246 1.755 . S
C878 C315 1.750 . S
C883 N255 1.352 . S
C888 C329 1.395 . S
C893 N196 1.725 . S
C898 N347 1.690 . S
C903 N209 1.360 . S
C908 C283 1.410 . S
C913 N219 1.572 . S
C918 C453 1.583 . S
C923 N370 1.600 . S
C928 C237 1.645 . S
C933 N265 1.393 . S
C938 C407 1.405 . S
C943 N186 1.672 . S
C948 C421 1.732 . S
C953 C292 1.294 . S
C958 N173 1.269 . S
C963 N380 1.507 . S
C968 N35 1.523 . S
C973 C62 1.530 . S
C978 C398 1.527 . S
C983 C430 1.758 . S
C988 N71 1.701 . S
C993 C444 1.661 . S
C998 C16 1.655 . S
C1003 C122 1.366 . S
C1008 C338 1.354 . S
C1013 N357 1.903 . S
C1018 C154 1.924 . S
C1023 C306 1.990 . S
C1028 C108 1.983 . S
