# Generated by pormake.
# Topology sml, (6)-cn, num edge types: 1
# Building blocks:
#     Node 0, Type 0, BuildingBlock: KUMBOL_clean_sbu_1, # of connection points: 6
#     Node 1, Type 0, BuildingBlock: KUMBOL_clean_sbu_1, # of connection points: 6
#     Node 2, Type 0, BuildingBlock: KUMBOL_clean_sbu_1, # of connection points: 6
#     Node 3, Type 0, BuildingBlock: KUMBOL_clean_sbu_1, # of connection points: 6
#     Node 4, Type 0, BuildingBlock: KUMBOL_clean_sbu_1, # of connection points: 6
#     Node 5, Type 0, BuildingBlock: KUMBOL_clean_sbu_1, # of connection points: 6
#     Edge 6, Type (0, 0), BuildingBlock: ZUJKAS_clean_linker_0, # of connection points: 2
#     Edge 7, Type (0, 0), BuildingBlock: ZUJKAS_clean_linker_0, # of connection points: 2
#     Edge 8, Type (0, 0), BuildingBlock: ZUJKAS_clean_linker_0, # of connection points: 2
#     Edge 9, Type (0, 0), BuildingBlock: ZUJKAS_clean_linker_0, # of connection points: 2
#     Edge 10, Type (0, 0), BuildingBlock: ZUJKAS_clean_linker_0, # of connection points: 2
#     Edge 11, Type (0, 0), BuildingBlock: ZUJKAS_clean_linker_0, # of connection points: 2
#     Edge 12, Type (0, 0), BuildingBlock: ZUJKAS_clean_linker_0, # of connection points: 2
#     Edge 13, Type (0, 0), BuildingBlock: ZUJKAS_clean_linker_0, # of connection points: 2
#     Edge 14, Type (0, 0), BuildingBlock: ZUJKAS_clean_linker_0, # of connection points: 2
#     Edge 15, Type (0, 0), BuildingBlock: ZUJKAS_clean_linker_0, # of connection points: 2
#     Edge 16, Type (0, 0), BuildingBlock: ZUJKAS_clean_linker_0, # of connection points: 2
#     Edge 17, Type (0, 0), BuildingBlock: ZUJKAS_clean_linker_0, # of connection points: 2
#     Edge 18, Type (0, 0), BuildingBlock: ZUJKAS_clean_linker_0, # of connection points: 2
#     Edge 19, Type (0, 0), BuildingBlock: ZUJKAS_clean_linker_0, # of connection points: 2
#     Edge 20, Type (0, 0), BuildingBlock: ZUJKAS_clean_linker_0, # of connection points: 2
#     Edge 21, Type (0, 0), BuildingBlock: ZUJKAS_clean_linker_0, # of connection points: 2
#     Edge 22, Type (0, 0), BuildingBlock: ZUJKAS_clean_linker_0, # of connection points: 2
#     Edge 23, Type (0, 0), BuildingBlock: ZUJKAS_clean_linker_0, # of connection points: 2
# Relax obj value: 0.052
# Max RMSD: 0.160
# Mean RMSD: 0.160
data_MOF--net-sml--node1-KUMBOL_clean_sbu_1--edge1-ZUJKAS_clean_linker_0
_symmetry_space_group_name_H-M    P1
_symmetry_Int_Tables_number       1
_symmetry_cell_setting            triclinic
loop_
_symmetry_equiv_pos_as_xyz
'x, y, z'
_cell_length_a     44.909515
_cell_length_b     44.852543
_cell_length_c     29.280222
_cell_angle_alpha  90.016884
_cell_angle_beta   89.848405
_cell_angle_gamma 119.97232
loop_
_atom_site_label
_atom_site_type_symbol
_atom_site_fract_x
_atom_site_fract_y
_atom_site_fract_z
_atom_type_partial_charge
C0 C 0.31014 0.4339 0.05453 0.0
C1 C 0.34483 0.49258 0.08162 0.0
C2 C 0.3125 0.46393 0.07131 0.0
C3 C 0.37483 0.49118 0.07254 0.0
C4 C 0.34013 0.43195 0.04691 0.0
C5 C 0.37249 0.46097 0.05511 0.0
N6 N 0.27843 0.40619 0.04748 0.0
C7 C 0.27489 0.37506 0.03629 0.0
C8 C 0.33665 0.40062 0.03246 0.0
C9 C 0.30386 0.37192 0.02778 0.0
Gd10 Gd 0.17944 0.42141 0.94947 0.0
Gd11 Gd 0.23159 0.41486 0.06051 0.0
N12 N 0.28304 0.46472 0.07891 0.0
C13 C 0.34591 0.52143 0.10173 0.0
C14 C 0.2838 0.49132 0.10223 0.0
C15 C 0.31519 0.52048 0.113 0.0
H16 H 0.26022 0.48946 0.11403 0.0
H17 H 0.31566 0.54187 0.13077 0.0
H18 H 0.16141 0.34001 0.92458 0.0
H19 H 0.24972 0.35243 0.03486 0.0
H20 H 0.11072 0.28274 0.91675 0.0
H21 H 0.37021 0.54394 0.11032 0.0
H22 H 0.39993 0.51307 0.07975 0.0
H23 H 0.14967 0.47549 0.96575 0.0
H24 H 0.35905 0.39804 0.02624 0.0
H25 H 0.30089 0.34726 0.01829 0.0
H26 H 0.01562 0.3018 0.93692 0.0
H27 H 0.39583 0.46003 0.04913 0.0
H28 H 0.03972 0.41717 0.9631 0.0
H29 H 0.09355 0.47298 0.9711 0.0
N30 N 0.12768 0.42158 0.95603 0.0
C31 C 0.0985 0.39065 0.95139 0.0
C32 C 0.12628 0.45093 0.96297 0.0
C33 C 0.06425 0.41808 0.96112 0.0
C34 C 0.09457 0.44963 0.9657 0.0
C35 C 0.06593 0.38809 0.95383 0.0
H36 H 0.01092 0.35338 0.9505 0.0
N37 N 0.13312 0.36472 0.94246 0.0
C38 C 0.10126 0.36143 0.94443 0.0
C39 C 0.0749 0.30041 0.92974 0.0
C40 C 0.07133 0.32909 0.93872 0.0
C41 C 0.13662 0.33712 0.93111 0.0
C42 C 0.10769 0.30454 0.92541 0.0
O43 O 0.26453 0.44739 1.00069 0.0
O44 O 0.23147 0.46638 0.96448 0.0
O45 O 0.18517 0.41209 0.87728 0.0
O46 O 0.17476 0.45304 0.89739 0.0
O47 O 0.2092 0.45044 0.06801 0.0
O48 O 0.19728 0.46685 0.99712 0.0
O49 O 0.15014 0.4001 0.01519 0.0
O50 O 0.17757 0.37314 0.0441 0.0
O51 O 0.21741 0.41723 0.13187 0.0
O52 O 0.23818 0.38411 0.11155 0.0
O53 O 0.214 0.39853 0.94192 0.0
O54 O 0.20769 0.37118 0.01032 0.0
C55 C 0.26051 0.46658 0.96996 0.0
C56 C 0.20113 0.46954 0.04203 0.0
C57 C 0.17956 0.44621 0.81596 0.0
C58 C 0.1867 0.43992 0.73453 0.0
C59 C 0.17135 0.48183 0.7606 0.0
C60 C 0.17172 0.47215 0.80567 0.0
C61 C 0.17884 0.4659 0.72524 0.0
C62 C 0.18694 0.42986 0.78 0.0
C63 C 0.1797 0.43671 0.86422 0.0
C64 C 0.03885 0.32644 0.94121 0.0
C65 C 0.03616 0.35584 0.94883 0.0
H66 H 0.05255 0.27518 0.92488 0.0
C67 C 0.15145 0.3785 0.04408 0.0
C68 C 0.21702 0.3761 0.96729 0.0
C69 C 0.22549 0.38352 0.19188 0.0
C70 C 0.21624 0.38625 0.27346 0.0
C71 C 0.23399 0.34674 0.24493 0.0
C72 C 0.23423 0.35799 0.20056 0.0
C73 C 0.22501 0.36073 0.28118 0.0
C74 C 0.21656 0.39783 0.22872 0.0
C75 C 0.22733 0.39566 0.14456 0.0
H76 H 0.16522 0.50177 0.75305 0.0
H77 H 0.16578 0.485 0.83249 0.0
H78 H 0.17839 0.47377 0.69037 0.0
H79 H 0.19295 0.40975 0.78718 0.0
H80 H 0.24093 0.32722 0.25126 0.0
H81 H 0.24152 0.34676 0.17304 0.0
H82 H 0.22517 0.35182 0.31555 0.0
H83 H 0.21015 0.41783 0.22281 0.0
C84 C 0.68699 0.12283 0.2986 0.0
C85 C 0.65256 0.14903 0.27911 0.0
C86 C 0.68481 0.15199 0.28788 0.0
C87 C 0.62264 0.11664 0.28172 0.0
C88 C 0.65691 0.09034 0.30154 0.0
C89 C 0.62478 0.08743 0.2931 0.0
N90 N 0.71847 0.12624 0.30607 0.0
C91 C 0.72172 0.0982 0.31549 0.0
C92 C 0.66 0.06163 0.31262 0.0
C93 C 0.69255 0.06559 0.31955 0.0
Gd94 Gd 0.81699 0.24034 0.40651 0.0
Gd95 Gd 0.76515 0.18185 0.29559 0.0
N96 N 0.71409 0.18334 0.28739 0.0
C97 C 0.65131 0.17886 0.26869 0.0
C98 C 0.71307 0.21238 0.27661 0.0
C99 C 0.6817 0.21065 0.26747 0.0
H100 H 0.73631 0.23686 0.27452 0.0
H101 H 0.68099 0.2338 0.25922 0.0
H102 H 0.83592 0.17904 0.438 0.0
H103 H 0.74683 0.10075 0.31874 0.0
H104 H 0.88687 0.1725 0.44478 0.0
H105 H 0.62705 0.17766 0.26177 0.0
H106 H 0.59765 0.11393 0.27528 0.0
H107 H 0.84605 0.32447 0.39861 0.0
H108 H 0.63748 0.03626 0.31535 0.0
H109 H 0.69521 0.04344 0.32733 0.0
H110 H 0.98149 0.28624 0.41804 0.0
H111 H 0.60142 0.06266 0.29512 0.0
H112 H 0.95607 0.37707 0.39554 0.0
H113 H 0.90178 0.37859 0.39212 0.0
N114 N 0.86861 0.29293 0.40395 0.0
C115 C 0.89805 0.29156 0.4071 0.0
C116 C 0.86961 0.32362 0.39919 0.0
C117 C 0.93169 0.3533 0.39802 0.0
C118 C 0.90111 0.35426 0.39599 0.0
C119 C 0.93045 0.32173 0.40397 0.0
H120 H 0.98559 0.34233 0.40472 0.0
N121 N 0.86395 0.23138 0.41737 0.0
C122 C 0.89569 0.25987 0.4141 0.0
C123 C 0.92241 0.22559 0.42876 0.0
C124 C 0.92577 0.25764 0.4189 0.0
C125 C 0.86067 0.20065 0.43014 0.0
C126 C 0.88972 0.1971 0.4352 0.0
O127 O 0.73302 0.18121 0.35652 0.0
O128 O 0.76647 0.23473 0.38692 0.0
O129 O 0.80751 0.22352 0.4778 0.0
O130 O 0.8152 0.27355 0.45857 0.0
O131 O 0.79349 0.23963 0.2862 0.0
O132 O 0.80164 0.26844 0.35566 0.0
O133 O 0.8475 0.24569 0.34249 0.0
O134 O 0.81924 0.19206 0.30865 0.0
O135 O 0.77568 0.19956 0.22462 0.0
O136 O 0.753 0.14544 0.24072 0.0
O137 O 0.78332 0.1824 0.41135 0.0
O138 O 0.78919 0.16045 0.34296 0.0
C139 C 0.73771 0.2055 0.38561 0.0
C140 C 0.80025 0.26712 0.31041 0.0
C141 C 0.82722 0.26688 0.53582 0.0
C142 C 0.82687 0.26256 0.61902 0.0
C143 C 0.86549 0.31668 0.58149 0.0
C144 C 0.85309 0.30162 0.53893 0.0
C145 C 0.85231 0.29738 0.62132 0.0
C146 C 0.81446 0.24724 0.57615 0.0
C147 C 0.81004 0.25228 0.49187 0.0
C148 C 0.95812 0.2875 0.41478 0.0
C149 C 0.96046 0.31946 0.40728 0.0
H150 H 0.94487 0.22281 0.43294 0.0
C151 C 0.84657 0.22272 0.31375 0.0
C152 C 0.78281 0.15756 0.38698 0.0
C153 C 0.78163 0.16343 0.16956 0.0
C154 C 0.7901 0.16486 0.08689 0.0
C155 C 0.80949 0.13418 0.1359 0.0
C156 C 0.7976 0.14351 0.17431 0.0
C157 C 0.80553 0.14448 0.09246 0.0
C158 C 0.77853 0.17465 0.12576 0.0
C159 C 0.76392 0.16856 0.20863 0.0
H160 H 0.88492 0.3436 0.58366 0.0
H161 H 0.86309 0.31745 0.50862 0.0
H162 H 0.8618 0.30969 0.6541 0.0
H163 H 0.79403 0.22062 0.57433 0.0
H164 H 0.82125 0.11834 0.13971 0.0
H165 H 0.8 0.13432 0.20755 0.0
H166 H 0.81454 0.13653 0.06307 0.0
H167 H 0.76567 0.1895 0.12172 0.0
C168 C 0.5632 0.87276 0.72319 0.0
C169 C 0.5022 0.84394 0.74104 0.0
C170 C 0.53265 0.84276 0.73371 0.0
C171 C 0.50284 0.87549 0.73765 0.0
C172 C 0.56385 0.90444 0.7196 0.0
C173 C 0.53355 0.90563 0.72694 0.0
N174 N 0.59217 0.8709 0.71612 0.0
C175 C 0.62274 0.89974 0.70646 0.0
C176 C 0.595 0.93403 0.70882 0.0
C177 C 0.62457 0.93166 0.70229 0.0
Gd178 Gd 0.57919 0.75917 0.61488 0.0
Gd179 Gd 0.58643 0.81643 0.72565 0.0
N180 N 0.53265 0.81241 0.73612 0.0
C181 C 0.47201 0.81337 0.7518 0.0
C182 C 0.50357 0.78282 0.74824 0.0
C183 C 0.47276 0.78274 0.75566 0.0
H184 H 0.50397 0.75932 0.7532 0.0
H185 H 0.4497 0.75911 0.76492 0.0
H186 H 0.66044 0.82016 0.58626 0.0
H187 H 0.64592 0.89828 0.70292 0.0
H188 H 0.71655 0.82439 0.57506 0.0
H189 H 0.44811 0.81322 0.75777 0.0
H190 H 0.4797 0.87687 0.74329 0.0
H191 H 0.5238 0.67642 0.63729 0.0
H192 H 0.59655 0.95884 0.70578 0.0
H193 H 0.64885 0.95446 0.69447 0.0
H194 H 0.69384 0.70878 0.59502 0.0
H195 H 0.5336 0.92976 0.72447 0.0
H196 H 0.57862 0.62118 0.63062 0.0
H197 H 0.52448 0.62185 0.64361 0.0
N198 N 0.5771 0.70628 0.62197 0.0
C199 C 0.6071 0.70656 0.61441 0.0
C200 C 0.54765 0.67646 0.63229 0.0
C201 C 0.5785 0.64522 0.628 0.0
C202 C 0.5479 0.64549 0.63551 0.0
C203 C 0.60861 0.67596 0.61738 0.0
H204 H 0.64171 0.6538 0.61239 0.0
N205 N 0.63463 0.76712 0.60408 0.0
C206 C 0.63669 0.73781 0.60529 0.0
C207 C 0.69738 0.77055 0.58786 0.0
C208 C 0.66827 0.73888 0.59794 0.0
C209 C 0.66256 0.79767 0.59184 0.0
C210 C 0.69441 0.79998 0.58432 0.0
O211 O 0.55763 0.81972 0.66354 0.0
O212 O 0.53414 0.76544 0.63327 0.0
O213 O 0.58581 0.77523 0.54305 0.0
O214 O 0.5482 0.72244 0.56304 0.0
O215 O 0.55816 0.75836 0.73448 0.0
O216 O 0.53442 0.73442 0.66418 0.0
O217 O 0.6044 0.75264 0.67759 0.0
O218 O 0.62968 0.80601 0.71057 0.0
O219 O 0.57936 0.80144 0.79813 0.0
O220 O 0.61796 0.85347 0.77653 0.0
O221 O 0.60444 0.81709 0.60804 0.0
O222 O 0.63122 0.8381 0.67704 0.0
C223 C 0.53498 0.79487 0.63754 0.0
C224 C 0.53605 0.73247 0.70903 0.0
C225 C 0.55228 0.73496 0.48198 0.0
C226 C 0.55887 0.74788 0.40045 0.0
C227 C 0.51556 0.6914 0.42713 0.0
C228 C 0.52552 0.70153 0.47207 0.0
C229 C 0.53209 0.7144 0.39151 0.0
C230 C 0.56911 0.75828 0.44578 0.0
C231 C 0.56261 0.74448 0.53 0.0
C232 C 0.66978 0.7084 0.60052 0.0
C233 C 0.64007 0.67705 0.61028 0.0
H234 H 0.72208 0.77243 0.58184 0.0
C235 C 0.62598 0.7752 0.70678 0.0
C236 C 0.62742 0.84211 0.63352 0.0
C237 C 0.6141 0.84283 0.85783 0.0
C238 C 0.6107 0.8309 0.93944 0.0
C239 C 0.65043 0.8881 0.91103 0.0
C240 C 0.63954 0.87709 0.86659 0.0
C241 C 0.63618 0.86516 0.94726 0.0
C242 C 0.59947 0.81962 0.89465 0.0
C243 C 0.60331 0.83217 0.81022 0.0
H244 H 0.49502 0.66558 0.41985 0.0
H245 H 0.51227 0.68303 0.49909 0.0
H246 H 0.52408 0.70601 0.35672 0.0
H247 H 0.58995 0.78409 0.45266 0.0
H248 H 0.66999 0.91452 0.91741 0.0
H249 H 0.6511 0.89555 0.83907 0.0
H250 H 0.64491 0.87418 0.98166 0.0
H251 H 0.57972 0.79316 0.88865 0.0
C252 C 0.87476 0.5645 0.96622 0.0
C253 C 0.84766 0.50354 0.94881 0.0
C254 C 0.8454 0.53343 0.95616 0.0
C255 C 0.87974 0.50534 0.95151 0.0
C256 C 0.90698 0.56633 0.96928 0.0
C257 C 0.90931 0.53663 0.96176 0.0
N258 N 0.87182 0.59289 0.97301 0.0
C259 C 0.90007 0.62398 0.98223 0.0
C260 C 0.93597 0.59803 0.97964 0.0
C261 C 0.93248 0.62699 0.98611 0.0
Gd262 Gd 0.75557 0.57803 0.07221 0.0
Gd263 Gd 0.81669 0.58548 0.96369 0.0
N264 N 0.81459 0.53238 0.95422 0.0
C265 C 0.8176 0.4727 0.93881 0.0
C266 C 0.78538 0.50255 0.94341 0.0
C267 C 0.78636 0.47225 0.93599 0.0
H268 H 0.7613 0.50189 0.94005 0.0
H269 H 0.76302 0.44861 0.92776 0.0
H270 H 0.81853 0.6595 0.09844 0.0
H271 H 0.89777 0.6467 0.98501 0.0
H272 H 0.82504 0.71673 0.10596 0.0
H273 H 0.81826 0.44919 0.93288 0.0
H274 H 0.88197 0.48267 0.94575 0.0
H275 H 0.67193 0.52418 0.05695 0.0
H276 H 0.96117 0.60049 0.9823 0.0
H277 H 0.95481 0.65172 0.99345 0.0
H278 H 0.71103 0.69773 0.08598 0.0
H279 H 0.93387 0.5376 0.96374 0.0
H280 H 0.62004 0.58236 0.0599 0.0
H281 H 0.61821 0.52655 0.0518 0.0
N282 N 0.70362 0.57795 0.06631 0.0
C283 C 0.70527 0.60885 0.07123 0.0
C284 C 0.67296 0.54865 0.05938 0.0
C285 C 0.64367 0.58146 0.06168 0.0
C286 C 0.64253 0.54992 0.05697 0.0
C287 C 0.67526 0.61143 0.06893 0.0
H288 H 0.65488 0.64615 0.07249 0.0
N289 N 0.76563 0.63468 0.0806 0.0
C290 C 0.73711 0.63802 0.07854 0.0
C291 C 0.77164 0.69908 0.09305 0.0
C292 C 0.73946 0.67039 0.0842 0.0
C293 C 0.79663 0.6623 0.09194 0.0
C294 C 0.80025 0.69492 0.09745 0.0
O295 O 0.81679 0.55455 0.02495 0.0
O296 O 0.7622 0.5329 0.05438 0.0
O297 O 0.77083 0.58534 0.14422 0.0
O298 O 0.71883 0.54615 0.12394 0.0
O299 O 0.759 0.55617 0.95258 0.0
O300 O 0.73003 0.53405 0.02167 0.0
O301 O 0.75093 0.60307 0.00796 0.0
O302 O 0.80628 0.6281 0.98239 0.0
O303 O 0.80136 0.57978 0.89133 0.0
O304 O 0.85361 0.61737 0.91278 0.0
O305 O 0.81283 0.60129 0.08196 0.0
O306 O 0.83743 0.62882 0.01436 0.0
C307 C 0.79159 0.53349 0.05195 0.0
C308 C 0.73155 0.53461 0.97642 0.0
C309 C 0.73093 0.55082 0.2053 0.0
C310 C 0.74398 0.55687 0.28685 0.0
C311 C 0.6876 0.51356 0.26031 0.0
C312 C 0.69761 0.52389 0.21535 0.0
C313 C 0.71058 0.52991 0.29584 0.0
C314 C 0.7543 0.56741 0.24144 0.0
C315 C 0.74046 0.56115 0.15713 0.0
C316 C 0.70965 0.67307 0.08169 0.0
C317 C 0.67766 0.64368 0.07409 0.0
H318 H 0.7745 0.72435 0.09773 0.0
C319 C 0.77545 0.62413 0.98045 0.0
C320 C 0.83945 0.62382 0.05815 0.0
C321 C 0.84284 0.61543 0.83171 0.0
C322 C 0.83234 0.61149 0.74962 0.0
C323 C 0.88743 0.65491 0.77958 0.0
C324 C 0.87619 0.64315 0.82376 0.0
C325 C 0.86567 0.63922 0.74272 0.0
C326 C 0.82077 0.59948 0.79424 0.0
C327 C 0.83217 0.60362 0.87918 0.0
H328 H 0.66188 0.49281 0.26765 0.0
H329 H 0.67913 0.51072 0.18842 0.0
H330 H 0.70229 0.52155 0.33062 0.0
H331 H 0.78009 0.58828 0.23447 0.0
H332 H 0.91314 0.67623 0.77389 0.0
H333 H 0.89378 0.65586 0.85174 0.0
H334 H 0.87491 0.64866 0.70854 0.0
H335 H 0.79505 0.57797 0.79959 0.0
C336 C 0.12339 0.68564 0.39531 0.0
C337 C 0.14985 0.65066 0.40784 0.0
C338 C 0.15251 0.68323 0.40325 0.0
C339 C 0.11801 0.62073 0.40076 0.0
C340 C 0.09088 0.65564 0.39221 0.0
C341 C 0.08853 0.62321 0.39304 0.0
N342 N 0.12646 0.7173 0.39521 0.0
C343 C 0.09805 0.72078 0.39819 0.0
C344 C 0.0616 0.65912 0.39099 0.0
C345 C 0.06516 0.69178 0.39533 0.0
Gd346 Gd 0.23945 0.82266 0.2841 0.0
Gd347 Gd 0.18243 0.76434 0.39718 0.0
N348 N 0.18265 0.71267 0.41132 0.0
C349 C 0.17874 0.64914 0.42222 0.0
C350 C 0.2095 0.711 0.43028 0.0
C351 C 0.20839 0.67942 0.43479 0.0
H352 H 0.23123 0.73368 0.44386 0.0
H353 H 0.23008 0.6784 0.44901 0.0
H354 H 0.18361 0.84879 0.25827 0.0
H355 H 0.10071 0.74604 0.4006 0.0
H356 H 0.18343 0.90245 0.24069 0.0
H357 H 0.17773 0.62465 0.42646 0.0
H358 H 0.11559 0.59552 0.40348 0.0
H359 H 0.3235 0.84628 0.29805 0.0
H360 H 0.03614 0.63672 0.38872 0.0
H361 H 0.04265 0.69469 0.39591 0.0
H362 H 0.30072 0.99051 0.26205 0.0
H363 H 0.06385 0.59987 0.38989 0.0
H364 H 0.38293 0.95596 0.29755 0.0
H365 H 0.37918 0.89932 0.30503 0.0
N366 N 0.29457 0.87211 0.29202 0.0
C367 C 0.29641 0.90303 0.28565 0.0
C368 C 0.32413 0.87067 0.29728 0.0
C369 C 0.35807 0.93268 0.2959 0.0
C370 C 0.35605 0.90078 0.30026 0.0
C371 C 0.32819 0.93412 0.28758 0.0
H372 H 0.35354 0.98966 0.28113 0.0
N373 N 0.2367 0.87326 0.27212 0.0
C374 C 0.26672 0.90358 0.27475 0.0
C375 C 0.23761 0.93461 0.25335 0.0
C376 C 0.26794 0.93513 0.2657 0.0
C377 C 0.20724 0.8727 0.25915 0.0
C378 C 0.2071 0.9032 0.25001 0.0
O379 O 0.17678 0.73587 0.33133 0.0
O380 O 0.23121 0.77003 0.30306 0.0
O381 O 0.22021 0.80853 0.21334 0.0
O382 O 0.27443 0.82919 0.22972 0.0
O383 O 0.23916 0.78156 0.40122 0.0
O384 O 0.27057 0.81257 0.33661 0.0
O385 O 0.21811 0.84551 0.33422 0.0
O386 O 0.22377 0.81977 0.39706 0.0
O387 O 0.18128 0.7557 0.47047 0.0
O388 O 0.158 0.7847 0.44182 0.0
O389 O 0.18258 0.78909 0.27429 0.0
O390 O 0.15529 0.78079 0.34528 0.0
C391 C 0.20158 0.74116 0.30284 0.0
C392 C 0.26781 0.79831 0.37707 0.0
C393 C 0.25984 0.8148 0.15077 0.0
C394 C 0.2503 0.81328 0.06869 0.0
C395 C 0.3002 0.81208 0.09783 0.0
C396 C 0.29003 0.81353 0.14231 0.0
C397 C 0.28057 0.8121 0.06122 0.0
C398 C 0.23959 0.81425 0.11365 0.0
C399 C 0.25095 0.8178 0.19842 0.0
C400 C 0.29933 0.96609 0.26873 0.0
C401 C 0.32938 0.96559 0.27971 0.0
H402 H 0.2375 0.95826 0.2462 0.0
C403 C 0.21966 0.84392 0.37867 0.0
C404 C 0.15538 0.78068 0.29985 0.0
C405 C 0.15459 0.77658 0.52431 0.0
C406 C 0.16252 0.77996 0.60686 0.0
C407 C 0.11346 0.78086 0.5738 0.0
C408 C 0.12458 0.77853 0.53014 0.0
C409 C 0.13224 0.78149 0.61196 0.0
C410 C 0.17375 0.77747 0.56291 0.0
C411 C 0.16469 0.77213 0.4781 0.0
H412 H 0.32349 0.81114 0.09171 0.0
H413 H 0.30594 0.81373 0.17019 0.0
H414 H 0.28901 0.81117 0.02679 0.0
H415 H 0.21633 0.81537 0.11954 0.0
H416 H 0.09011 0.78202 0.57811 0.0
H417 H 0.10934 0.77757 0.50096 0.0
H418 H 0.12322 0.78334 0.64564 0.0
H419 H 0.19702 0.77606 0.55888 0.0
C420 C 0.43759 0.31128 0.63614 0.0
C421 C 0.49894 0.34407 0.62014 0.0
C422 C 0.46863 0.31226 0.62717 0.0
C423 C 0.49787 0.37477 0.62297 0.0
C424 C 0.43652 0.34213 0.63886 0.0
C425 C 0.46681 0.37381 0.63241 0.0
N426 N 0.40839 0.28022 0.64103 0.0
C427 C 0.37733 0.27818 0.64787 0.0
C428 C 0.40489 0.34023 0.6472 0.0
C429 C 0.3752 0.30812 0.65168 0.0
Gd430 Gd 0.41623 0.17671 0.73883 0.0
Gd431 Gd 0.41523 0.23227 0.63007 0.0
N432 N 0.46905 0.28212 0.62465 0.0
C433 C 0.52933 0.34404 0.60944 0.0
C434 C 0.49818 0.2819 0.61219 0.0
C435 C 0.52886 0.31281 0.60505 0.0
H436 H 0.4977 0.25804 0.60654 0.0
H437 H 0.552 0.3125 0.59547 0.0
H438 H 0.33545 0.15498 0.76567 0.0
H439 H 0.354 0.2535 0.6492 0.0
H440 H 0.28088 0.10223 0.78336 0.0
H441 H 0.5531 0.36794 0.6035 0.0
H442 H 0.5209 0.39942 0.61747 0.0
H443 H 0.47394 0.15166 0.71352 0.0
H444 H 0.40304 0.36336 0.64951 0.0
H445 H 0.35055 0.30641 0.65729 0.0
H446 H 0.30729 0.01155 0.76563 0.0
H447 H 0.4664 0.39774 0.63411 0.0
H448 H 0.42165 0.04187 0.72068 0.0
H449 H 0.47461 0.09736 0.70605 0.0
N450 N 0.42042 0.12723 0.72828 0.0
C451 C 0.3911 0.09706 0.73721 0.0
C452 C 0.45028 0.12767 0.71785 0.0
C453 C 0.42097 0.06564 0.7229 0.0
C454 C 0.4509 0.0969 0.71444 0.0
C455 C 0.39067 0.06544 0.73492 0.0
H456 H 0.35947 0.0102 0.74358 0.0
N457 N 0.36198 0.12845 0.74885 0.0
C458 C 0.36137 0.09778 0.74901 0.0
C459 C 0.30158 0.06866 0.77167 0.0
C460 C 0.3309 0.06695 0.75974 0.0
C461 C 0.33392 0.13042 0.76204 0.0
C462 C 0.30317 0.10056 0.77306 0.0
O463 O 0.44449 0.26127 0.69367 0.0
O464 O 0.46389 0.22808 0.72931 0.0
O465 O 0.40694 0.18612 0.80929 0.0
O466 O 0.43823 0.16286 0.79473 0.0
O467 O 0.43974 0.19889 0.62372 0.0
O468 O 0.46315 0.19782 0.69344 0.0
O469 O 0.38596 0.14686 0.67646 0.0
O470 O 0.36819 0.17987 0.63635 0.0
O471 O 0.42505 0.22337 0.55944 0.0
O472 O 0.39525 0.24811 0.57406 0.0
O473 O 0.39282 0.21097 0.74478 0.0
O474 O 0.36827 0.2099 0.67521 0.0
C475 C 0.46501 0.25747 0.72205 0.0
C476 C 0.46348 0.19761 0.64843 0.0
C477 C 0.44525 0.18856 0.86767 0.0
C478 C 0.44677 0.193 0.9508 0.0
C479 C 0.49977 0.21359 0.90761 0.0
C480 C 0.48123 0.20397 0.86689 0.0
C481 C 0.48267 0.20784 0.94934 0.0
C482 C 0.42813 0.18374 0.90976 0.0
C483 C 0.42486 0.17314 0.82616 0.0
C484 C 0.33051 0.03548 0.75771 0.0
C485 C 0.36023 0.03471 0.74509 0.0
H486 H 0.27771 0.04558 0.78027 0.0
C487 C 0.36729 0.15061 0.64471 0.0
C488 C 0.36977 0.21323 0.71985 0.0
C489 C 0.38554 0.22057 0.50253 0.0
C490 C 0.3805 0.21342 0.41978 0.0
C491 C 0.32959 0.19616 0.46635 0.0
C492 C 0.34974 0.20642 0.50567 0.0
C493 C 0.34487 0.19994 0.42362 0.0
C494 C 0.40079 0.22339 0.45945 0.0
C495 C 0.4076 0.23687 0.54256 0.0
H496 H 0.52744 0.22499 0.90692 0.0
H497 H 0.49491 0.2077 0.83496 0.0
H498 H 0.49748 0.21508 0.98063 0.0
H499 H 0.40032 0.17146 0.91074 0.0
H500 H 0.30211 0.18582 0.4689 0.0
H501 H 0.33743 0.20419 0.53836 0.0
H502 H 0.32883 0.19224 0.39342 0.0
H503 H 0.42844 0.23472 0.45659 0.0
H504 H 0.30063 0.17959 0.73517 0.0
H505 H 0.26847 0.20098 0.77972 0.0
H506 H 0.36171 0.29813 0.79838 0.0
H507 H 0.39401 0.27643 0.75548 0.0
H508 H 0.3055 0.24784 0.88292 0.0
H509 H 0.26474 0.29782 0.73583 0.0
H510 H 0.26892 0.25992 0.73071 0.0
H511 H 0.30664 0.3015 0.73507 0.0
C512 C 0.31403 0.20553 0.74866 0.0
C513 C 0.34958 0.22652 0.74223 0.0
C514 C 0.29578 0.21762 0.77408 0.0
C515 C 0.3129 0.25098 0.79235 0.0
C516 C 0.34826 0.2722 0.78484 0.0
H517 H 0.26977 0.39834 0.90786 0.0
H518 H 0.29095 0.36434 0.86887 0.0
C519 C 0.36656 0.25991 0.76033 0.0
C520 C 0.2942 0.26412 0.81941 0.0
H521 H 0.25455 0.31166 0.80966 0.0
C522 C 0.29386 0.26141 0.86714 0.0
C523 C 0.27941 0.28187 0.79836 0.0
C524 C 0.2797 0.28556 0.74714 0.0
C525 C 0.28003 0.27721 0.89468 0.0
C526 C 0.26592 0.29577 0.87361 0.0
C527 C 0.26536 0.29741 0.82572 0.0
C528 C 0.25402 0.31601 0.90015 0.0
C529 C 0.28215 0.27535 0.94592 0.0
C530 C 0.22644 0.30017 0.9311 0.0
C531 C 0.21462 0.31974 0.95392 0.0
C532 C 0.22987 0.3552 0.94533 0.0
C533 C 0.25744 0.37094 0.91458 0.0
C534 C 0.26956 0.35158 0.89245 0.0
H535 H 0.29971 0.26585 0.95644 0.0
H536 H 0.2912 0.30102 0.96148 0.0
H537 H 0.25623 0.25744 0.95986 0.0
H538 H 0.21361 0.27266 0.93684 0.0
H539 H 0.19311 0.30711 0.97731 0.0
H540 H 0.13451 0.31874 0.0907 0.0
H541 H 0.08218 0.28334 0.13586 0.0
H542 H 0.04788 0.35582 0.10846 0.0
H543 H 0.09917 0.39058 0.06279 0.0
H544 H 0.05618 0.29897 0.2131 0.0
H545 H 0.96552 0.26605 0.06908 0.0
H546 H 0.01114 0.28376 0.06054 0.0
H547 H 0.99408 0.31155 0.07368 0.0
C548 C 0.11572 0.32701 0.09429 0.0
C549 C 0.12078 0.35724 0.07273 0.0
C550 C 0.08588 0.30678 0.12006 0.0
C551 C 0.06073 0.31651 0.12464 0.0
C552 C 0.06637 0.34722 0.10426 0.0
H553 H 0.89207 0.28619 0.28239 0.0
H554 H 0.94397 0.30349 0.23702 0.0
C555 C 0.09586 0.36718 0.07831 0.0
C556 C 0.02869 0.29526 0.1512 0.0
H557 H 0.9415 0.25963 0.14459 0.0
C558 C 0.03105 0.28972 0.19797 0.0
C559 C 0.99586 0.28289 0.13134 0.0
C560 C 0.99142 0.28603 0.0808 0.0
C561 C 0.00155 0.27415 0.22587 0.0
C562 C 0.96909 0.26385 0.20641 0.0
C563 C 0.96653 0.26771 0.15935 0.0
C564 C 0.93807 0.25264 0.235 0.0
C565 C 0.00516 0.27013 0.27634 0.0
C566 C 0.91746 0.21817 0.2485 0.0
C567 C 0.88733 0.20803 0.27389 0.0
C568 C 0.87786 0.23241 0.28656 0.0
C569 C 0.89888 0.26691 0.27336 0.0
C570 C 0.9285 0.27684 0.24748 0.0
H571 H 0.03222 0.27921 0.28629 0.0
H572 H 0.9956 0.28488 0.29593 0.0
H573 H 0.9891 0.24264 0.28614 0.0
H574 H 0.92456 0.19918 0.23912 0.0
H575 H 0.87173 0.18135 0.28408 0.0
H576 H 0.81555 0.12031 0.3935 0.0
H577 H 0.79564 0.06622 0.43641 0.0
H578 H 0.70228 0.06598 0.47207 0.0
H579 H 0.72258 0.12039 0.43084 0.0
H580 H 0.76508 0.05635 0.54245 0.0
H581 H 0.68268 0.96867 0.40457 0.0
H582 H 0.72018 0.00996 0.39264 0.0
H583 H 0.68163 0.00788 0.41357 0.0
C584 C 0.79074 0.10843 0.41038 0.0
C585 C 0.77047 0.12417 0.40928 0.0
C586 C 0.77954 0.07784 0.43492 0.0
C587 C 0.74763 0.06243 0.45736 0.0
C588 C 0.72709 0.07778 0.45519 0.0
H589 H 0.60338 0.87857 0.59034 0.0
H590 H 0.63648 0.9338 0.55115 0.0
C591 C 0.73861 0.10866 0.43172 0.0
C592 C 0.7352 0.03016 0.48322 0.0
H593 H 0.67595 0.94479 0.47839 0.0
C594 C 0.74595 0.03175 0.52851 0.0
C595 C 0.71017 0.99847 0.46468 0.0
C596 C 0.69797 0.99582 0.4161 0.0
C597 C 0.73102 0.0024 0.55664 0.0
C598 C 0.70524 0.9707 0.53838 0.0
C599 C 0.69561 0.9691 0.49242 0.0
C600 C 0.6861 0.93921 0.56656 0.0
C601 C 0.74169 0.006 0.60608 0.0
C602 C 0.703 0.92426 0.58926 0.0
C603 C 0.684 0.89311 0.61281 0.0
C604 C 0.64797 0.87613 0.61254 0.0
C605 C 0.63117 0.8912 0.59039 0.0
C606 C 0.65006 0.92266 0.5681 0.0
H607 H 0.75567 0.03335 0.61713 0.0
H608 H 0.71898 0.99151 0.62864 0.0
H609 H 0.75909 0.99537 0.61081 0.0
H610 H 0.7307 0.93608 0.58766 0.0
H611 H 0.69731 0.88161 0.62954 0.0
H612 H 0.62463 0.7138 0.70672 0.0
H613 H 0.65831 0.69662 0.75289 0.0
H614 H 0.70796 0.79592 0.81851 0.0
H615 H 0.67442 0.81382 0.77144 0.0
H616 H 0.73135 0.72823 0.75945 0.0
H617 H 0.66789 0.72455 0.92476 0.0
H618 H 0.64947 0.72515 0.87028 0.0
H619 H 0.68507 0.76384 0.89239 0.0
C620 C 0.64301 0.73234 0.73032 0.0
C621 C 0.64715 0.76543 0.73478 0.0
C622 C 0.66216 0.72233 0.75692 0.0
C623 C 0.68549 0.74494 0.78913 0.0
C624 C 0.68985 0.77804 0.79394 0.0
H625 H 0.80104 0.69315 0.98436 0.0
H626 H 0.784 0.72718 0.93622 0.0
C627 C 0.6708 0.78824 0.76692 0.0
C628 C 0.70476 0.73321 0.81769 0.0
H629 H 0.7102 0.70828 0.92602 0.0
C630 C 0.7271 0.72426 0.79598 0.0
C631 C 0.69885 0.72784 0.86522 0.0
C632 C 0.67386 0.73556 0.88972 0.0
C633 C 0.74324 0.70944 0.82047 0.0
C634 C 0.73671 0.70338 0.86773 0.0
C635 C 0.71527 0.71331 0.88977 0.0
C636 C 0.74938 0.68399 0.89417 0.0
C637 C 0.76665 0.69976 0.79562 0.0
C638 C 0.73541 0.64864 0.8863 0.0
C639 C 0.74465 0.6293 0.914 0.0
C640 C 0.76835 0.64522 0.94937 0.0
C641 C 0.78305 0.68069 0.95667 0.0
C642 C 0.77332 0.69998 0.92943 0.0
H643 H 0.77506 0.71296 0.76205 0.0
H644 H 0.78972 0.7062 0.81647 0.0
H645 H 0.75273 0.67157 0.78953 0.0
H646 H 0.71655 0.63583 0.85963 0.0
H647 H 0.73298 0.60184 0.90825 0.0
H648 H 0.09367 0.72308 0.31395 0.0
H649 H 0.0395 0.70455 0.27459 0.0
H650 H 0.09162 0.78941 0.18092 0.0
H651 H 0.14522 0.80752 0.22072 0.0
H652 H 0.0037 0.74331 0.25454 0.0
H653 H 0.04729 0.70182 0.10132 0.0
H654 H 0.0686 0.7097 0.15583 0.0
H655 H 0.07533 0.74517 0.12028 0.0
C656 C 0.09289 0.73931 0.28783 0.0
C657 C 0.12286 0.76939 0.27492 0.0
C658 C 0.06224 0.72811 0.26409 0.0
C659 C 0.06144 0.74632 0.22575 0.0
C660 C 0.0916 0.7755 0.21116 0.0
H661 H 0.89225 0.6874 0.03341 0.0
H662 H 0.94654 0.72215 0.07425 0.0
C663 C 0.1222 0.7864 0.23487 0.0
C664 C 0.02947 0.73345 0.19944 0.0
H665 H 0.9922 0.6958 0.09832 0.0
C666 C 0.00116 0.73312 0.22028 0.0
C667 C 0.02651 0.7203 0.15479 0.0
C668 C 0.0559 0.71893 0.1317 0.0
C669 C 0.96958 0.71944 0.19764 0.0
C670 C 0.96643 0.70554 0.15346 0.0
C671 C 0.99499 0.70679 0.13213 0.0
C672 C 0.93297 0.68641 0.13056 0.0
C673 C 0.93972 0.71955 0.22118 0.0
C674 C 0.90778 0.65493 0.14882 0.0
C675 C 0.87725 0.63485 0.12532 0.0
C676 C 0.87151 0.64589 0.08305 0.0
C677 C 0.89641 0.67792 0.06539 0.0
C678 C 0.92717 0.6979 0.0888 0.0
H679 H 0.94844 0.73875 0.24924 0.0
H680 H 0.92444 0.72521 0.19651 0.0
H681 H 0.9226 0.69374 0.23612 0.0
H682 H 0.91215 0.64545 0.18067 0.0
H683 H 0.85846 0.61033 0.13984 0.0
H684 H 0.32933 0.0838 0.67161 0.0
H685 H 0.2995 0.03293 0.62402 0.0
H686 H 0.32382 0.09766 0.50489 0.0
H687 H 0.35485 0.14902 0.55319 0.0
H688 H 0.24425 0.0112 0.56365 0.0
H689 H 0.36398 0.03445 0.4758 0.0
H690 H 0.3644 0.05645 0.52761 0.0
H691 H 0.35552 0.06961 0.47384 0.0
C692 C 0.32856 0.08728 0.63552 0.0
C693 C 0.34498 0.12034 0.6163 0.0
C694 C 0.31116 0.05815 0.60822 0.0
C695 C 0.30992 0.06147 0.56084 0.0
C696 C 0.32494 0.09453 0.54141 0.0
H697 H 0.2275 0.90548 0.349 0.0
H698 H 0.2471 0.95811 0.3931 0.0
C699 C 0.34231 0.12382 0.56902 0.0
C700 C 0.29389 0.03009 0.53215 0.0
H701 H 0.31216 0.98619 0.45197 0.0
C702 C 0.25901 0.0058 0.53902 0.0
C703 C 0.31341 0.02289 0.50066 0.0
C704 C 0.35147 0.047 0.49415 0.0
C705 C 0.24307 0.9746 0.51484 0.0
C706 C 0.26256 0.96761 0.48321 0.0
C707 C 0.29732 0.99191 0.4761 0.0
C708 C 0.24764 0.93491 0.45756 0.0
C709 C 0.20556 0.94926 0.52309 0.0
C710 C 0.24109 0.90438 0.47937 0.0
C711 C 0.23073 0.87437 0.45394 0.0
C712 C 0.22663 0.87444 0.4063 0.0
C713 C 0.23134 0.90467 0.3852 0.0
C714 C 0.24228 0.93476 0.41045 0.0
H715 H 0.19283 0.96064 0.54352 0.0
H716 H 0.19185 0.93996 0.49008 0.0
H717 H 0.20312 0.92662 0.5418 0.0
H718 H 0.24512 0.90407 0.51579 0.0
H719 H 0.22682 0.85141 0.47145 0.0
H720 H 0.14253 0.38068 0.69109 0.0
H721 H 0.14782 0.36784 0.611 0.0
H722 H 0.25166 0.4535 0.60772 0.0
H723 H 0.24644 0.4659 0.68767 0.0
H724 H 0.1568 0.41743 0.54927 0.0
H725 H 0.25998 0.38528 0.52571 0.0
H726 H 0.23941 0.38135 0.58023 0.0
H727 H 0.27298 0.42264 0.56062 0.0
C728 C 0.16704 0.39548 0.67386 0.0
C729 C 0.19418 0.4241 0.6953 0.0
C730 C 0.16996 0.38839 0.62805 0.0
C731 C 0.20007 0.40982 0.60328 0.0
C732 C 0.22837 0.43629 0.62619 0.0
H733 H 0.25833 0.44547 0.31837 0.0
H734 H 0.25198 0.45662 0.39888 0.0
C735 C 0.22544 0.44335 0.67193 0.0
C736 C 0.19984 0.40876 0.55263 0.0
H737 H 0.24359 0.40474 0.45964 0.0
C738 C 0.17554 0.41426 0.52962 0.0
C739 C 0.22462 0.40519 0.5271 0.0
C740 C 0.25052 0.39797 0.54965 0.0
C741 C 0.17567 0.41679 0.48183 0.0
C742 C 0.20057 0.41342 0.45638 0.0
C743 C 0.22481 0.40783 0.47932 0.0
C744 C 0.20063 0.41287 0.40579 0.0
C745 C 0.14964 0.42373 0.45906 0.0
C746 C 0.17314 0.38582 0.38248 0.0
C747 C 0.1767 0.37964 0.3366 0.0
C748 C 0.20775 0.40044 0.31351 0.0
C749 C 0.23398 0.42948 0.33545 0.0
C750 C 0.23047 0.43563 0.38144 0.0
H751 H 0.13874 0.43485 0.48332 0.0
H752 H 0.1613 0.44161 0.42973 0.0
H753 H 0.12816 0.39917 0.44596 0.0
H754 H 0.15013 0.36764 0.4007 0.0
H755 H 0.15644 0.35678 0.32041 0.0
H756 H 0.81194 0.2293 0.05214 0.0
H757 H 0.81037 0.24454 0.97178 0.0
H758 H 0.75665 0.13681 0.93621 0.0
H759 H 0.75789 0.1217 0.01605 0.0
H760 H 0.84095 0.23139 0.90154 0.0
H761 H 0.702 0.17007 0.86574 0.0
H762 H 0.71869 0.17629 0.9231 0.0
H763 H 0.71269 0.13989 0.88988 0.0
C764 C 0.79911 0.20897 0.0272 0.0
C765 C 0.78516 0.17435 0.04011 0.0
C766 C 0.79833 0.21765 0.98134 0.0
C767 C 0.78308 0.1918 0.94789 0.0
C768 C 0.76797 0.1572 0.96132 0.0
H769 H 0.84228 0.21757 0.66055 0.0
H770 H 0.8286 0.19678 0.73982 0.0
C771 C 0.76896 0.14858 0.0069 0.0
C772 C 0.78577 0.20071 0.89849 0.0
H773 H 0.73905 0.18346 0.80016 0.0
C774 C 0.81862 0.22115 0.87948 0.0
C775 C 0.75665 0.18764 0.86964 0.0
C776 C 0.72052 0.16757 0.88824 0.0
C777 C 0.82323 0.22811 0.83242 0.0
C778 C 0.79425 0.21356 0.80325 0.0
C779 C 0.76131 0.19391 0.82236 0.0
C780 C 0.7977 0.22055 0.75331 0.0
C781 C 0.85909 0.25154 0.81447 0.0
C782 C 0.78311 0.23885 0.73377 0.0
C783 C 0.79069 0.25042 0.68861 0.0
C784 C 0.81262 0.24351 0.66212 0.0
C785 C 0.82517 0.22302 0.68042 0.0
C786 C 0.81765 0.21149 0.72572 0.0
H787 H 0.87713 0.2669 0.84218 0.0
H788 H 0.86894 0.23578 0.79826 0.0
H789 H 0.85912 0.26949 0.78834 0.0
H790 H 0.76744 0.24588 0.75425 0.0
H791 H 0.78086 0.2663 0.67509 0.0
H792 H 0.6163 0.75857 0.35574 0.0
H793 H 0.62951 0.77637 0.27557 0.0
H794 H 0.54905 0.80231 0.27447 0.0
H795 H 0.53623 0.78491 0.35451 0.0
H796 H 0.57774 0.73817 0.21436 0.0
H797 H 0.62091 0.87664 0.19226 0.0
H798 H 0.62407 0.8588 0.24613 0.0
H799 H 0.58381 0.8546 0.22844 0.0
C800 C 0.6028 0.76985 0.33894 0.0
C801 C 0.57546 0.77068 0.36103 0.0
C802 C 0.61009 0.77968 0.29311 0.0
C803 C 0.59016 0.79051 0.26898 0.0
C804 C 0.56511 0.79455 0.29249 0.0
H805 H 0.55331 0.81665 0.98703 0.0
H806 H 0.54306 0.79913 0.06754 0.0
C807 C 0.55783 0.7847 0.33826 0.0
C808 C 0.59099 0.7914 0.21836 0.0
H809 H 0.59876 0.84123 0.12614 0.0
C810 C 0.58275 0.76083 0.195 0.0
C811 C 0.59703 0.8208 0.19326 0.0
C812 C 0.60726 0.85467 0.21625 0.0
C813 C 0.57978 0.75871 0.14724 0.0
C814 C 0.58545 0.788 0.12225 0.0
C815 C 0.59392 0.81862 0.14553 0.0
C816 C 0.58502 0.78856 0.07171 0.0
C817 C 0.56985 0.72502 0.12397 0.0
C818 C 0.61069 0.78646 0.0469 0.0
C819 C 0.61637 0.79626 1.00098 0.0
C820 C 0.59642 0.80817 0.97942 0.0
C821 C 0.5686 0.80699 0.00291 0.0
C822 C 0.56296 0.7973 0.0489 0.0
H823 H 0.55847 0.70309 0.14836 0.0
H824 H 0.55116 0.7199 0.09613 0.0
H825 H 0.5931 0.72635 0.10862 0.0
H826 H 0.62828 0.78027 0.06397 0.0
H827 H 0.63834 0.79761 0.98358 0.0
H828 H 0.82753 0.55852 0.69946 0.0
H829 H 0.81146 0.54833 0.61855 0.0
H830 H 0.77574 0.62137 0.62566 0.0
H831 H 0.79228 0.63189 0.7064 0.0
H832 H 0.75325 0.53179 0.56162 0.0
H833 H 0.85973 0.6663 0.53879 0.0
H834 H 0.85252 0.64297 0.59166 0.0
H835 H 0.82627 0.66138 0.57714 0.0
C836 C 0.81482 0.57117 0.68414 0.0
C837 C 0.81098 0.59587 0.70885 0.0
C838 C 0.80593 0.56559 0.63791 0.0
C839 C 0.79337 0.58486 0.61589 0.0
C840 C 0.78607 0.60678 0.64187 0.0
H841 H 0.7494 0.60963 0.33807 0.0
H842 H 0.76788 0.62031 0.41804 0.0
C843 C 0.79505 0.61243 0.68804 0.0
C844 C 0.79203 0.58525 0.56528 0.0
H845 H 0.82831 0.63757 0.47247 0.0
C846 C 0.76968 0.55484 0.54209 0.0
C847 C 0.81385 0.61534 0.53991 0.0
C848 C 0.8397 0.64831 0.563 0.0
C849 C 0.76786 0.55395 0.49417 0.0
C850 C 0.78947 0.58412 0.4688 0.0
C851 C 0.81197 0.61448 0.49199 0.0
C852 C 0.78722 0.58477 0.4183 0.0
C853 C 0.74213 0.52094 0.47107 0.0
C854 C 0.79443 0.56331 0.39114 0.0
C855 C 0.78407 0.55738 0.34543 0.0
C856 C 0.76677 0.57316 0.32631 0.0
C857 C 0.76309 0.59755 0.35203 0.0
C858 C 0.7734 0.60343 0.39775 0.0
H859 H 0.72269 0.50244 0.49547 0.0
H860 H 0.72857 0.52615 0.44326 0.0
H861 H 0.75582 0.50852 0.45571 0.0
H862 H 0.80566 0.54915 0.40621 0.0
H863 H 0.78677 0.53818 0.32631 0.0
H864 H 0.21933 0.83518 0.64159 0.0
H865 H 0.23849 0.84185 0.72131 0.0
H866 H 0.16509 0.73482 0.74627 0.0
H867 H 0.14645 0.72821 0.66673 0.0
H868 H 0.193 0.83369 0.78711 0.0
H869 H 0.2439 0.7467 0.82417 0.0
H870 H 0.23966 0.75851 0.76662 0.0
H871 H 0.20314 0.72453 0.79592 0.0
C872 C 0.20855 0.81281 0.66371 0.0
C873 C 0.18158 0.78117 0.64838 0.0
C874 C 0.21927 0.81665 0.70924 0.0
C875 C 0.20318 0.78885 0.73987 0.0
C876 C 0.17831 0.7565 0.72329 0.0
H877 H 0.19273 0.75977 0.03254 0.0
H878 H 0.17541 0.75515 0.95222 0.0
C879 C 0.16759 0.7527 0.67786 0.0
C880 C 0.20776 0.79479 0.78989 0.0
H881 H 0.22357 0.76464 0.88847 0.0
C882 C 0.20009 0.81887 0.80925 0.0
C883 C 0.21656 0.77517 0.81883 0.0
C884 C 0.22661 0.75004 0.80025 0.0
C885 C 0.20016 0.82328 0.85673 0.0
C886 C 0.20854 0.80335 0.88568 0.0
C887 C 0.21654 0.77951 0.86631 0.0
C888 C 0.21183 0.80832 0.93592 0.0
C889 C 0.19052 0.8487 0.87535 0.0
C890 C 0.23654 0.84017 0.95397 0.0
C891 C 0.24606 0.84285 0.9998 0.0
C892 C 0.23113 0.81372 0.02818 0.0
C893 C 0.20414 0.78267 0.01138 0.0
C894 C 0.19456 0.77998 0.96546 0.0
H895 H 0.17426 0.85316 0.85089 0.0
H896 H 0.17652 0.83977 0.90831 0.0
H897 H 0.21426 0.87374 0.88114 0.0
H898 H 0.25065 0.86225 0.93185 0.0
H899 H 0.26734 0.86687 0.01199 0.0
H900 H 0.41408 0.18171 0.38533 0.0
H901 H 0.42762 0.17899 0.30451 0.0
H902 H 0.39303 0.25029 0.27024 0.0
H903 H 0.37981 0.25313 0.35061 0.0
H904 H 0.3776 0.15369 0.23963 0.0
H905 H 0.47735 0.28549 0.19088 0.0
H906 H 0.46728 0.27224 0.24976 0.0
H907 H 0.44127 0.28507 0.21787 0.0
C908 C 0.41048 0.19758 0.36058 0.0
C909 C 0.39578 0.21748 0.37383 0.0
C910 C 0.41802 0.19591 0.3145 0.0
C911 C 0.41139 0.21448 0.28127 0.0
C912 C 0.39885 0.23613 0.29518 0.0
H913 H 0.41109 0.22264 0.98478 0.0
H914 H 0.39536 0.22308 0.06516 0.0
C915 C 0.39111 0.2376 0.34104 0.0
C916 C 0.41313 0.20798 0.23186 0.0
H917 H 0.44526 0.24783 0.12962 0.0
C918 C 0.39268 0.17423 0.21559 0.0
C919 C 0.43242 0.23482 0.20044 0.0
C920 C 0.45606 0.27136 0.21571 0.0
C921 C 0.39045 0.16668 0.16874 0.0
C922 C 0.40964 0.19356 0.1373 0.0
C923 C 0.43014 0.22728 0.15362 0.0
C924 C 0.4114 0.1873 0.0878 0.0
C925 C 0.36702 0.1301 0.15345 0.0
C926 C 0.42431 0.16604 0.07355 0.0
C927 C 0.43332 0.16589 0.0279 0.0
C928 C 0.42954 0.18694 0.9957 0.0
C929 C 0.41409 0.20612 0.00906 0.0
C930 C 0.40526 0.20646 0.05492 0.0
H931 H 0.34579 0.11583 0.1783 0.0
H932 H 0.35575 0.12915 0.11941 0.0
H933 H 0.382 0.11659 0.15122 0.0
H934 H 0.42974 0.15141 0.09821 0.0
H935 H 0.44513 0.15085 0.0182 0.0
H936 H 0.14378 0.47458 0.0564 0.0
H937 H 0.14011 0.52085 0.09641 0.0
H938 H 0.24917 0.57144 0.12291 0.0
H939 H 0.25335 0.52864 0.0768 0.0
H940 H 0.14923 0.54123 0.17859 0.0
H941 H 0.24735 0.652 0.08056 0.0
H942 H 0.23237 0.60841 0.06247 0.0
H943 H 0.26618 0.62862 0.10438 0.0
C944 C 0.16699 0.49619 0.06979 0.0
C945 C 0.19878 0.49767 0.0646 0.0
C946 C 0.16488 0.5224 0.09313 0.0
C947 C 0.19448 0.55022 0.11228 0.0
C948 C 0.22607 0.55114 0.10741 0.0
H949 H 0.25016 0.72281 0.28971 0.0
H950 H 0.24496 0.67427 0.24502 0.0
C951 C 0.22834 0.52585 0.08244 0.0
C952 C 0.19246 0.57778 0.13839 0.0
H953 H 0.23343 0.66484 0.15442 0.0
C954 C 0.16738 0.56828 0.17284 0.0
C955 C 0.21588 0.61326 0.13088 0.0
C956 C 0.24164 0.62609 0.0922 0.0
C957 C 0.16609 0.59302 0.2011 0.0
C958 C 0.1906 0.62826 0.19483 0.0
C959 C 0.21499 0.63779 0.1597 0.0
C960 C 0.19228 0.65591 0.22466 0.0
C961 C 0.13919 0.5811 0.23827 0.0
C962 C 0.16434 0.66167 0.22841 0.0
C963 C 0.16712 0.68904 0.2547 0.0
C964 C 0.19819 0.71165 0.27647 0.0
C965 C 0.22609 0.70595 0.27271 0.0
C966 C 0.22307 0.67819 0.24734 0.0
H967 H 0.12795 0.55322 0.24573 0.0
H968 H 0.1501 0.59583 0.27026 0.0
H969 H 0.118 0.58534 0.22706 0.0
H970 H 0.14066 0.64551 0.21023 0.0
H971 H 0.14535 0.69317 0.25691 0.0
H972 H 0.74032 0.22144 0.47534 0.0
H973 H 0.69368 0.21698 0.52362 0.0
H974 H 0.62479 0.17873 0.40847 0.0
H975 H 0.67089 0.18136 0.36157 0.0
H976 H 0.65864 0.24903 0.51797 0.0
H977 H 0.56618 0.10964 0.50066 0.0
H978 H 0.61016 0.12865 0.48155 0.0
H979 H 0.57841 0.13075 0.44632 0.0
C980 C 0.71509 0.21169 0.46063 0.0
C981 C 0.70908 0.20142 0.41472 0.0
C982 C 0.68846 0.20916 0.48818 0.0
C983 C 0.65543 0.19684 0.47003 0.0
C984 C 0.64961 0.18708 0.42388 0.0
H985 H 0.46738 0.18623 0.5576 0.0
H986 H 0.51499 0.18677 0.51658 0.0
C987 C 0.67605 0.18877 0.39681 0.0
C988 C 0.62757 0.19575 0.49872 0.0
H989 H 0.54407 0.14399 0.53167 0.0
C990 C 0.63373 0.22593 0.5214 0.0
C991 C 0.595 0.16562 0.50316 0.0
C992 C 0.58715 0.13177 0.48199 0.0
C993 C 0.60797 0.22705 0.54733 0.0
C994 C 0.57529 0.19713 0.55094 0.0
C995 C 0.56919 0.16689 0.5287 0.0
C996 C 0.54668 0.19685 0.57648 0.0
C997 C 0.61554 0.2605 0.56951 0.0
C998 C 0.54862 0.20199 0.62391 0.0
C999 C 0.52143 0.2018 0.64758 0.0
C1000 C 0.49172 0.19613 0.62421 0.0
C1001 C 0.4898 0.19057 0.57675 0.0
C1002 C 0.51698 0.19086 0.55318 0.0
H1003 H 0.63947 0.28272 0.55591 0.0
H1004 H 0.5939 0.26545 0.56432 0.0
H1005 H 0.61879 0.25885 0.60681 0.0
H1006 H 0.57116 0.20615 0.64259 0.0
H1007 H 0.52391 0.20653 0.68402 0.0
H1008 H 0.32972 0.49568 0.98797 0.0
H1009 H 0.37757 0.53935 0.94277 0.0
H1010 H 0.30595 0.53461 0.84114 0.0
H1011 H 0.25817 0.49246 0.88723 0.0
H1012 H 0.40125 0.54024 0.8589 0.0
H1013 H 0.3572 0.63555 0.86544 0.0
H1014 H 0.3383 0.59738 0.90051 0.0
H1015 H 0.32518 0.59531 0.84195 0.0
C1016 C 0.32418 0.50414 0.9563 0.0
C1017 C 0.2901 0.49128 0.94193 0.0
C1018 C 0.35156 0.52904 0.93032 0.0
C1019 C 0.34532 0.54109 0.88916 0.0
C1020 C 0.31139 0.52681 0.8736 0.0
H1021 H 0.47241 0.68461 0.67771 0.0
H1022 H 0.42676 0.63631 0.72052 0.0
C1023 C 0.28408 0.50253 0.89994 0.0
C1024 C 0.37413 0.56852 0.86236 0.0
H1025 H 0.40189 0.6469 0.81222 0.0
C1026 C 0.40148 0.56364 0.84896 0.0
C1027 C 0.37458 0.59923 0.84958 0.0
C1028 C 0.34743 0.60738 0.86553 0.0
C1029 C 0.4288 0.58829 0.82234 0.0
C1030 C 0.42867 0.61842 0.80875 0.0
C1031 C 0.40156 0.62346 0.82228 0.0
C1032 C 0.45704 0.64575 0.78174 0.0
C1033 C 0.45748 0.58189 0.80838 0.0
C1034 C 0.48906 0.66686 0.80209 0.0
C1035 C 0.51502 0.69454 0.77795 0.0
C1036 C 0.50944 0.70148 0.73293 0.0
C1037 C 0.47757 0.67974 0.7122 0.0
C1038 C 0.45147 0.65224 0.7366 0.0
H1039 H 0.45106 0.55496 0.81525 0.0
H1040 H 0.4634 0.5875 0.77148 0.0
H1041 H 0.48104 0.59941 0.82778 0.0
H1042 H 0.49366 0.66245 0.83709 0.0
H1043 H 0.53932 0.71079 0.7948 0.0
H1044 H 0.79189 0.27138 0.21857 0.0
H1045 H 0.79363 0.31898 0.17633 0.0
H1046 H 0.81789 0.3787 0.29989 0.0
H1047 H 0.81479 0.33064 0.34325 0.0
H1048 H 0.7511 0.35865 0.22208 0.0
H1049 H 0.88965 0.43017 0.17285 0.0
H1050 H 0.86681 0.38385 0.17843 0.0
H1051 H 0.87647 0.41011 0.22837 0.0
C1052 C 0.79792 0.29464 0.23704 0.0
C1053 C 0.80354 0.29712 0.2846 0.0
C1054 C 0.7989 0.32182 0.21265 0.0
C1055 C 0.80611 0.35222 0.23508 0.0
C1056 C 0.81244 0.35532 0.28214 0.0
H1057 H 0.8333 0.54398 0.12372 0.0
H1058 H 0.83652 0.4999 0.16985 0.0
C1059 C 0.81091 0.32788 0.3068 0.0
C1060 C 0.80517 0.37999 0.20945 0.0
H1061 H 0.85473 0.45176 0.1457 0.0
C1062 C 0.77369 0.37913 0.20544 0.0
C1063 C 0.83479 0.40648 0.18813 0.0
C1064 C 0.869 0.40802 0.19188 0.0
C1065 C 0.77099 0.40429 0.18031 0.0
C1066 C 0.8005 0.4305 0.15798 0.0
C1067 C 0.83213 0.43154 0.16264 0.0
C1068 C 0.79905 0.45705 0.12961 0.0
C1069 C 0.73672 0.40287 0.17852 0.0
C1070 C 0.77734 0.44756 0.09141 0.0
C1071 C 0.77508 0.47258 0.06574 0.0
C1072 C 0.79523 0.50742 0.0772 0.0
C1073 C 0.81778 0.51713 0.11434 0.0
C1074 C 0.81956 0.49205 0.14057 0.0
H1075 H 0.71941 0.38693 0.20663 0.0
H1076 H 0.74004 0.42908 0.18063 0.0
H1077 H 0.72389 0.39116 0.14571 0.0
H1078 H 0.762 0.42079 0.08162 0.0
H1079 H 0.75766 0.46479 0.03696 0.0
H1080 H 0.27805 0.74612 0.40307 0.0
H1081 H 0.32557 0.75036 0.44793 0.0
H1082 H 0.37899 0.86094 0.43272 0.0
H1083 H 0.32888 0.85664 0.39318 0.0
H1084 H 0.38748 0.77022 0.43174 0.0
H1085 H 0.3879 0.85795 0.56576 0.0
H1086 H 0.35456 0.83902 0.52336 0.0
H1087 H 0.39537 0.87629 0.50969 0.0
C1088 C 0.29924 0.77133 0.41114 0.0
C1089 C 0.29907 0.80107 0.39705 0.0
C1090 C 0.32686 0.77379 0.43579 0.0
C1091 C 0.35554 0.8061 0.44534 0.0
C1092 C 0.3566 0.83582 0.42776 0.0
H1093 H 0.54105 0.85338 0.59979 0.0
H1094 H 0.49864 0.8576 0.55145 0.0
C1095 C 0.3283 0.83335 0.40436 0.0
C1096 C 0.38406 0.80807 0.47333 0.0
H1097 H 0.43221 0.84417 0.56912 0.0
C1098 C 0.39717 0.78641 0.46179 0.0
C1099 C 0.39686 0.8292 0.51266 0.0
C1100 C 0.38272 0.85166 0.52889 0.0
C1101 C 0.42221 0.78489 0.48855 0.0
C1102 C 0.43477 0.80583 0.5279 0.0
C1103 C 0.42253 0.82823 0.53884 0.0
C1104 C 0.45976 0.80394 0.55894 0.0
C1105 C 0.43491 0.76079 0.47435 0.0
C1106 C 0.45147 0.77275 0.58031 0.0
C1107 C 0.47575 0.77019 0.60704 0.0
C1108 C 0.50843 0.79902 0.61383 0.0
C1109 C 0.51605 0.8308 0.59487 0.0
C1110 C 0.49191 0.83319 0.56727 0.0
H1111 H 0.42997 0.7539 0.43761 0.0
H1112 H 0.46287 0.77233 0.48089 0.0
H1113 H 0.42109 0.73661 0.49439 0.0
H1114 H 0.42639 0.75018 0.5757 0.0
H1115 H 0.46906 0.74554 0.62206 0.0
H1116 H 0.72694 0.52416 0.88395 0.0
H1117 H 0.67988 0.47818 0.84118 0.0
H1118 H 0.62196 0.43812 0.96561 0.0
H1119 H 0.66952 0.48304 0.00936 0.0
H1120 H 0.64193 0.39418 0.8848 0.0
H1121 H 0.5686 0.46045 0.84134 0.0
H1122 H 0.61489 0.48426 0.84611 0.0
H1123 H 0.58908 0.46688 0.89636 0.0
C1124 C 0.70417 0.50584 0.90247 0.0
C1125 C 0.70198 0.50774 0.95033 0.0
C1126 C 0.6773 0.4796 0.87781 0.0
C1127 C 0.64753 0.45514 0.90033 0.0
C1128 C 0.64482 0.45705 0.94778 0.0
H1129 H 0.45561 0.28734 0.79656 0.0
H1130 H 0.50016 0.33577 0.84059 0.0
C1131 C 0.67194 0.48297 0.97265 0.0
C1132 C 0.61992 0.42661 0.87437 0.0
H1133 H 0.54692 0.40394 0.81373 0.0
C1134 C 0.62109 0.39617 0.86923 0.0
C1135 C 0.59293 0.42955 0.85448 0.0
C1136 C 0.59099 0.46198 0.85959 0.0
C1137 C 0.59573 0.36831 0.84443 0.0
C1138 C 0.56893 0.37137 0.82373 0.0
C1139 C 0.56762 0.40178 0.82942 0.0
C1140 C 0.54197 0.34316 0.79623 0.0
C1141 C 0.59748 0.33562 0.84131 0.0
C1142 C 0.55074 0.33173 0.75645 0.0
C1143 C 0.5255 0.30389 0.73191 0.0
C1144 C 0.49114 0.28779 0.74618 0.0
C1145 C 0.48209 0.29978 0.78501 0.0
C1146 C 0.50741 0.3273 0.81001 0.0
H1147 H 0.61469 0.33461 0.8677 0.0
H1148 H 0.57152 0.31263 0.84519 0.0
H1149 H 0.60772 0.33429 0.80731 0.0
H1150 H 0.57715 0.34409 0.74472 0.0
H1151 H 0.53283 0.29476 0.70207 0.0
loop_
_geom_bond_atom_site_label_1
_geom_bond_atom_site_label_2
_geom_bond_distance
_geom_bond_site_symmetry_2
_ccdc_geom_bond_type
C0 C2 1.422 . S
C0 C4 1.415 . S
C0 N6 1.369 . S
C1 C2 1.421 . S
C1 C3 1.417 . S
C1 C13 1.422 . S
C2 C0 1.422 . S
C2 C1 1.421 . S
C2 N12 1.359 . S
C3 C1 1.417 . S
C3 C5 1.329 . S
C3 H22 0.930 . S
C4 C0 1.415 . S
C4 C5 1.437 . S
C4 C8 1.413 . S
C5 C3 1.329 . S
C5 C4 1.437 . S
C5 H27 0.929 . S
N6 C0 1.369 . S
N6 C7 1.338 . S
N6 Gd11 2.622 . S
C7 N6 1.338 . S
C7 C9 1.378 . S
C7 H19 0.929 . S
C8 C4 1.413 . S
C8 C9 1.348 . S
C8 H24 0.931 . S
C9 C7 1.378 . S
C9 C8 1.348 . S
C9 H25 0.930 . S
Gd10 N30 2.622 . S
Gd10 N37 2.570 . S
Gd10 O44 2.353 . S
Gd10 O45 2.468 . S
Gd10 O46 2.427 . S
Gd10 O48 2.388 . S
Gd10 O49 2.386 1_556 S
Gd10 O53 2.307 . S
Gd10 C63 2.805 . S
Gd11 N6 2.622 . S
Gd11 N12 2.570 . S
Gd11 O43 2.386 1_554 S
Gd11 O47 2.307 . S
Gd11 O50 2.353 . S
Gd11 O51 2.468 . S
Gd11 O52 2.427 . S
Gd11 O54 2.388 . S
Gd11 C75 2.805 . S
N12 C2 1.359 . S
N12 Gd11 2.570 . S
N12 C14 1.343 . S
C13 C1 1.422 . S
C13 C15 1.321 . S
C13 H21 0.931 . S
C14 N12 1.343 . S
C14 C15 1.390 . S
C14 H16 0.931 . S
C15 C13 1.321 . S
C15 C14 1.390 . S
C15 H17 0.930 . S
H16 C14 0.931 . S
H17 C15 0.930 . S
H18 C41 0.931 . S
H19 C7 0.929 . S
H20 C42 0.930 . S
H21 C13 0.931 . S
H22 C3 0.930 . S
H23 C32 0.929 . S
H24 C8 0.931 . S
H25 C9 0.930 . S
H26 C64 0.930 . S
H27 C5 0.929 . S
H28 C33 0.931 . S
H29 C34 0.930 . S
N30 Gd10 2.622 . S
N30 C31 1.369 . S
N30 C32 1.338 . S
C31 N30 1.369 . S
C31 C35 1.415 . S
C31 C38 1.422 . S
C32 H23 0.929 . S
C32 N30 1.338 . S
C32 C34 1.378 . S
C33 H28 0.931 . S
C33 C34 1.348 . S
C33 C35 1.413 . S
C34 H29 0.930 . S
C34 C32 1.378 . S
C34 C33 1.348 . S
C35 C31 1.415 . S
C35 C33 1.413 . S
C35 C65 1.437 . S
H36 C65 0.929 . S
N37 Gd10 2.570 . S
N37 C38 1.359 . S
N37 C41 1.343 . S
C38 C31 1.422 . S
C38 N37 1.359 . S
C38 C40 1.421 . S
C39 C40 1.422 . S
C39 C42 1.321 . S
C39 H66 0.931 . S
C40 C38 1.421 . S
C40 C39 1.422 . S
C40 C64 1.417 . S
C41 H18 0.931 . S
C41 N37 1.343 . S
C41 C42 1.390 . S
C42 H20 0.930 . S
C42 C39 1.321 . S
C42 C41 1.390 . S
O43 Gd11 2.386 1_556 S
O43 C55 1.265 . S
O44 Gd10 2.353 . S
O44 C55 1.242 . S
O45 Gd10 2.468 . S
O45 C63 1.263 . S
O46 Gd10 2.427 . S
O46 C63 1.252 . S
O47 Gd11 2.307 . S
O47 C56 1.261 . S
O48 Gd10 2.388 . S
O48 C56 1.252 1_556 S
O49 Gd10 2.386 1_554 S
O49 C67 1.265 . S
O50 Gd11 2.353 . S
O50 C67 1.242 . S
O51 Gd11 2.468 . S
O51 C75 1.263 . S
O52 Gd11 2.427 . S
O52 C75 1.252 . S
O53 Gd10 2.307 . S
O53 C68 1.261 . S
O54 Gd11 2.388 . S
O54 C68 1.252 1_554 S
C55 O43 1.265 . S
C55 O44 1.242 . S
C56 O47 1.261 . S
C56 O48 1.252 1_554 S
C57 C60 1.394 . S
C57 C62 1.370 . S
C57 C63 1.500 . S
C58 C61 1.383 . S
C58 C62 1.395 . S
C59 C60 1.396 . S
C59 C61 1.365 . S
C59 H76 0.929 . S
C60 C57 1.394 . S
C60 C59 1.396 . S
C60 H77 0.930 . S
C61 C58 1.383 . S
C61 C59 1.365 . S
C61 H78 0.931 . S
C62 C57 1.370 . S
C62 C58 1.395 . S
C62 H79 0.930 . S
C63 Gd10 2.805 . S
C63 O45 1.263 . S
C63 O46 1.252 . S
C63 C57 1.500 . S
C64 H26 0.930 . S
C64 C40 1.417 . S
C64 C65 1.329 . S
C65 C35 1.437 . S
C65 H36 0.929 . S
C65 C64 1.329 . S
H66 C39 0.931 . S
C67 O49 1.265 . S
C67 O50 1.242 . S
C68 O53 1.261 . S
C68 O54 1.252 1_556 S
C69 C72 1.394 . S
C69 C74 1.370 . S
C69 C75 1.500 . S
C70 C73 1.383 . S
C70 C74 1.395 . S
C71 C72 1.396 . S
C71 C73 1.365 . S
C71 H80 0.929 . S
C72 C69 1.394 . S
C72 C71 1.396 . S
C72 H81 0.930 . S
C73 C70 1.383 . S
C73 C71 1.365 . S
C73 H82 0.931 . S
C74 C69 1.370 . S
C74 C70 1.395 . S
C74 H83 0.930 . S
C75 Gd11 2.805 . S
C75 O51 1.263 . S
C75 O52 1.252 . S
C75 C69 1.500 . S
H76 C59 0.929 . S
H77 C60 0.930 . S
H78 C61 0.931 . S
H79 C62 0.930 . S
H80 C71 0.929 . S
H81 C72 0.930 . S
H82 C73 0.931 . S
H83 C74 0.930 . S
C84 C86 1.422 . S
C84 C88 1.415 . S
C84 N90 1.369 . S
C85 C86 1.421 . S
C85 C87 1.417 . S
C85 C97 1.422 . S
C86 C84 1.422 . S
C86 C85 1.421 . S
C86 N96 1.359 . S
C87 C85 1.417 . S
C87 C89 1.329 . S
C87 H106 0.930 . S
C88 C84 1.415 . S
C88 C89 1.437 . S
C88 C92 1.413 . S
C89 C87 1.329 . S
C89 C88 1.437 . S
C89 H111 0.929 . S
N90 C84 1.369 . S
N90 C91 1.338 . S
N90 Gd95 2.622 . S
C91 N90 1.338 . S
C91 C93 1.378 . S
C91 H103 0.929 . S
C92 C88 1.413 . S
C92 C93 1.348 . S
C92 H108 0.931 . S
C93 C91 1.378 . S
C93 C92 1.348 . S
C93 H109 0.930 . S
Gd94 N114 2.622 . S
Gd94 N121 2.570 . S
Gd94 O128 2.353 . S
Gd94 O129 2.468 . S
Gd94 O130 2.427 . S
Gd94 O132 2.388 . S
Gd94 O133 2.386 . S
Gd94 O137 2.307 . S
Gd94 C147 2.805 . S
Gd95 N90 2.622 . S
Gd95 N96 2.570 . S
Gd95 O127 2.386 . S
Gd95 O131 2.307 . S
Gd95 O134 2.353 . S
Gd95 O135 2.468 . S
Gd95 O136 2.427 . S
Gd95 O138 2.388 . S
Gd95 C159 2.805 . S
N96 C86 1.359 . S
N96 Gd95 2.570 . S
N96 C98 1.343 . S
C97 C85 1.422 . S
C97 C99 1.321 . S
C97 H105 0.931 . S
C98 N96 1.343 . S
C98 C99 1.390 . S
C98 H100 0.931 . S
C99 C97 1.321 . S
C99 C98 1.390 . S
C99 H101 0.930 . S
H100 C98 0.931 . S
H101 C99 0.930 . S
H102 C125 0.931 . S
H103 C91 0.929 . S
H104 C126 0.930 . S
H105 C97 0.931 . S
H106 C87 0.930 . S
H107 C116 0.929 . S
H108 C92 0.931 . S
H109 C93 0.930 . S
H110 C148 0.930 . S
H111 C89 0.929 . S
H112 C117 0.931 . S
H113 C118 0.930 . S
N114 Gd94 2.622 . S
N114 C115 1.369 . S
N114 C116 1.338 . S
C115 N114 1.369 . S
C115 C119 1.415 . S
C115 C122 1.422 . S
C116 H107 0.929 . S
C116 N114 1.338 . S
C116 C118 1.378 . S
C117 H112 0.931 . S
C117 C118 1.348 . S
C117 C119 1.413 . S
C118 H113 0.930 . S
C118 C116 1.378 . S
C118 C117 1.348 . S
C119 C115 1.415 . S
C119 C117 1.413 . S
C119 C149 1.437 . S
H120 C149 0.929 . S
N121 Gd94 2.570 . S
N121 C122 1.359 . S
N121 C125 1.343 . S
C122 C115 1.422 . S
C122 N121 1.359 . S
C122 C124 1.421 . S
C123 C124 1.422 . S
C123 C126 1.321 . S
C123 H150 0.931 . S
C124 C122 1.421 . S
C124 C123 1.422 . S
C124 C148 1.417 . S
C125 H102 0.931 . S
C125 N121 1.343 . S
C125 C126 1.390 . S
C126 H104 0.930 . S
C126 C123 1.321 . S
C126 C125 1.390 . S
O127 Gd95 2.386 . S
O127 C139 1.265 . S
O128 Gd94 2.353 . S
O128 C139 1.242 . S
O129 Gd94 2.468 . S
O129 C147 1.263 . S
O130 Gd94 2.427 . S
O130 C147 1.252 . S
O131 Gd95 2.307 . S
O131 C140 1.261 . S
O132 Gd94 2.388 . S
O132 C140 1.252 . S
O133 Gd94 2.386 . S
O133 C151 1.265 . S
O134 Gd95 2.353 . S
O134 C151 1.242 . S
O135 Gd95 2.468 . S
O135 C159 1.263 . S
O136 Gd95 2.427 . S
O136 C159 1.252 . S
O137 Gd94 2.307 . S
O137 C152 1.261 . S
O138 Gd95 2.388 . S
O138 C152 1.252 . S
C139 O127 1.265 . S
C139 O128 1.242 . S
C140 O131 1.261 . S
C140 O132 1.252 . S
C141 C144 1.394 . S
C141 C146 1.370 . S
C141 C147 1.500 . S
C142 C145 1.383 . S
C142 C146 1.395 . S
C143 C144 1.396 . S
C143 C145 1.365 . S
C143 H160 0.929 . S
C144 C141 1.394 . S
C144 C143 1.396 . S
C144 H161 0.930 . S
C145 C142 1.383 . S
C145 C143 1.365 . S
C145 H162 0.931 . S
C146 C141 1.370 . S
C146 C142 1.395 . S
C146 H163 0.930 . S
C147 Gd94 2.805 . S
C147 O129 1.263 . S
C147 O130 1.252 . S
C147 C141 1.500 . S
C148 H110 0.930 . S
C148 C124 1.417 . S
C148 C149 1.329 . S
C149 C119 1.437 . S
C149 H120 0.929 . S
C149 C148 1.329 . S
H150 C123 0.931 . S
C151 O133 1.265 . S
C151 O134 1.242 . S
C152 O137 1.261 . S
C152 O138 1.252 . S
C153 C156 1.394 . S
C153 C158 1.370 . S
C153 C159 1.500 . S
C154 C157 1.383 . S
C154 C158 1.395 . S
C155 C156 1.396 . S
C155 C157 1.365 . S
C155 H164 0.929 . S
C156 C153 1.394 . S
C156 C155 1.396 . S
C156 H165 0.930 . S
C157 C154 1.383 . S
C157 C155 1.365 . S
C157 H166 0.931 . S
C158 C153 1.370 . S
C158 C154 1.395 . S
C158 H167 0.930 . S
C159 Gd95 2.805 . S
C159 O135 1.263 . S
C159 O136 1.252 . S
C159 C153 1.500 . S
H160 C143 0.929 . S
H161 C144 0.930 . S
H162 C145 0.931 . S
H163 C146 0.930 . S
H164 C155 0.929 . S
H165 C156 0.930 . S
H166 C157 0.931 . S
H167 C158 0.930 . S
C168 C170 1.422 . S
C168 C172 1.415 . S
C168 N174 1.369 . S
C169 C170 1.421 . S
C169 C171 1.417 . S
C169 C181 1.422 . S
C170 C168 1.422 . S
C170 C169 1.421 . S
C170 N180 1.359 . S
C171 C169 1.417 . S
C171 C173 1.329 . S
C171 H190 0.930 . S
C172 C168 1.415 . S
C172 C173 1.437 . S
C172 C176 1.413 . S
C173 C171 1.329 . S
C173 C172 1.437 . S
C173 H195 0.929 . S
N174 C168 1.369 . S
N174 C175 1.338 . S
N174 Gd179 2.622 . S
C175 N174 1.338 . S
C175 C177 1.378 . S
C175 H187 0.929 . S
C176 C172 1.413 . S
C176 C177 1.348 . S
C176 H192 0.931 . S
C177 C175 1.378 . S
C177 C176 1.348 . S
C177 H193 0.930 . S
Gd178 N198 2.622 . S
Gd178 N205 2.570 . S
Gd178 O212 2.353 . S
Gd178 O213 2.468 . S
Gd178 O214 2.427 . S
Gd178 O216 2.388 . S
Gd178 O217 2.386 . S
Gd178 O221 2.307 . S
Gd178 C231 2.805 . S
Gd179 N174 2.622 . S
Gd179 N180 2.570 . S
Gd179 O211 2.386 . S
Gd179 O215 2.307 . S
Gd179 O218 2.353 . S
Gd179 O219 2.468 . S
Gd179 O220 2.427 . S
Gd179 O222 2.388 . S
Gd179 C243 2.805 . S
N180 C170 1.359 . S
N180 Gd179 2.570 . S
N180 C182 1.343 . S
C181 C169 1.422 . S
C181 C183 1.321 . S
C181 H189 0.931 . S
C182 N180 1.343 . S
C182 C183 1.390 . S
C182 H184 0.931 . S
C183 C181 1.321 . S
C183 C182 1.390 . S
C183 H185 0.930 . S
H184 C182 0.931 . S
H185 C183 0.930 . S
H186 C209 0.931 . S
H187 C175 0.929 . S
H188 C210 0.930 . S
H189 C181 0.931 . S
H190 C171 0.930 . S
H191 C200 0.929 . S
H192 C176 0.931 . S
H193 C177 0.930 . S
H194 C232 0.930 . S
H195 C173 0.929 . S
H196 C201 0.931 . S
H197 C202 0.930 . S
N198 Gd178 2.622 . S
N198 C199 1.369 . S
N198 C200 1.338 . S
C199 N198 1.369 . S
C199 C203 1.415 . S
C199 C206 1.422 . S
C200 H191 0.929 . S
C200 N198 1.338 . S
C200 C202 1.378 . S
C201 H196 0.931 . S
C201 C202 1.348 . S
C201 C203 1.413 . S
C202 H197 0.930 . S
C202 C200 1.378 . S
C202 C201 1.348 . S
C203 C199 1.415 . S
C203 C201 1.413 . S
C203 C233 1.437 . S
H204 C233 0.929 . S
N205 Gd178 2.570 . S
N205 C206 1.359 . S
N205 C209 1.343 . S
C206 C199 1.422 . S
C206 N205 1.359 . S
C206 C208 1.421 . S
C207 C208 1.422 . S
C207 C210 1.321 . S
C207 H234 0.931 . S
C208 C206 1.421 . S
C208 C207 1.422 . S
C208 C232 1.417 . S
C209 H186 0.931 . S
C209 N205 1.343 . S
C209 C210 1.390 . S
C210 H188 0.930 . S
C210 C207 1.321 . S
C210 C209 1.390 . S
O211 Gd179 2.386 . S
O211 C223 1.265 . S
O212 Gd178 2.353 . S
O212 C223 1.242 . S
O213 Gd178 2.468 . S
O213 C231 1.263 . S
O214 Gd178 2.427 . S
O214 C231 1.252 . S
O215 Gd179 2.307 . S
O215 C224 1.261 . S
O216 Gd178 2.388 . S
O216 C224 1.252 . S
O217 Gd178 2.386 . S
O217 C235 1.265 . S
O218 Gd179 2.353 . S
O218 C235 1.242 . S
O219 Gd179 2.468 . S
O219 C243 1.263 . S
O220 Gd179 2.427 . S
O220 C243 1.252 . S
O221 Gd178 2.307 . S
O221 C236 1.261 . S
O222 Gd179 2.388 . S
O222 C236 1.252 . S
C223 O211 1.265 . S
C223 O212 1.242 . S
C224 O215 1.261 . S
C224 O216 1.252 . S
C225 C228 1.394 . S
C225 C230 1.370 . S
C225 C231 1.500 . S
C226 C229 1.383 . S
C226 C230 1.395 . S
C227 C228 1.396 . S
C227 C229 1.365 . S
C227 H244 0.929 . S
C228 C225 1.394 . S
C228 C227 1.396 . S
C228 H245 0.930 . S
C229 C226 1.383 . S
C229 C227 1.365 . S
C229 H246 0.931 . S
C230 C225 1.370 . S
C230 C226 1.395 . S
C230 H247 0.930 . S
C231 Gd178 2.805 . S
C231 O213 1.263 . S
C231 O214 1.252 . S
C231 C225 1.500 . S
C232 H194 0.930 . S
C232 C208 1.417 . S
C232 C233 1.329 . S
C233 C203 1.437 . S
C233 H204 0.929 . S
C233 C232 1.329 . S
H234 C207 0.931 . S
C235 O217 1.265 . S
C235 O218 1.242 . S
C236 O221 1.261 . S
C236 O222 1.252 . S
C237 C240 1.394 . S
C237 C242 1.370 . S
C237 C243 1.500 . S
C238 C241 1.383 . S
C238 C242 1.395 . S
C239 C240 1.396 . S
C239 C241 1.365 . S
C239 H248 0.929 . S
C240 C237 1.394 . S
C240 C239 1.396 . S
C240 H249 0.930 . S
C241 C238 1.383 . S
C241 C239 1.365 . S
C241 H250 0.931 . S
C242 C237 1.370 . S
C242 C238 1.395 . S
C242 H251 0.930 . S
C243 Gd179 2.805 . S
C243 O219 1.263 . S
C243 O220 1.252 . S
C243 C237 1.500 . S
H244 C227 0.929 . S
H245 C228 0.930 . S
H246 C229 0.931 . S
H247 C230 0.930 . S
H248 C239 0.929 . S
H249 C240 0.930 . S
H250 C241 0.931 . S
H251 C242 0.930 . S
C252 C254 1.422 . S
C252 C256 1.415 . S
C252 N258 1.369 . S
C253 C254 1.421 . S
C253 C255 1.417 . S
C253 C265 1.422 . S
C254 C252 1.422 . S
C254 C253 1.421 . S
C254 N264 1.359 . S
C255 C253 1.417 . S
C255 C257 1.329 . S
C255 H274 0.930 . S
C256 C252 1.415 . S
C256 C257 1.437 . S
C256 C260 1.413 . S
C257 C255 1.329 . S
C257 C256 1.437 . S
C257 H279 0.929 . S
N258 C252 1.369 . S
N258 C259 1.338 . S
N258 Gd263 2.622 . S
C259 N258 1.338 . S
C259 C261 1.378 . S
C259 H271 0.929 . S
C260 C256 1.413 . S
C260 C261 1.348 . S
C260 H276 0.931 . S
C261 C259 1.378 . S
C261 C260 1.348 . S
C261 H277 0.930 . S
Gd262 N282 2.622 . S
Gd262 N289 2.570 . S
Gd262 O296 2.353 . S
Gd262 O297 2.468 . S
Gd262 O298 2.427 . S
Gd262 O300 2.388 . S
Gd262 O301 2.386 . S
Gd262 O305 2.307 . S
Gd262 C315 2.805 . S
Gd263 N258 2.622 . S
Gd263 N264 2.570 . S
Gd263 O295 2.386 1_556 S
Gd263 O299 2.307 . S
Gd263 O302 2.353 . S
Gd263 O303 2.468 . S
Gd263 O304 2.427 . S
Gd263 O306 2.388 1_556 S
Gd263 C327 2.805 . S
N264 C254 1.359 . S
N264 Gd263 2.570 . S
N264 C266 1.343 . S
C265 C253 1.422 . S
C265 C267 1.321 . S
C265 H273 0.931 . S
C266 N264 1.343 . S
C266 C267 1.390 . S
C266 H268 0.931 . S
C267 C265 1.321 . S
C267 C266 1.390 . S
C267 H269 0.930 . S
H268 C266 0.931 . S
H269 C267 0.930 . S
H270 C293 0.931 . S
H271 C259 0.929 . S
H272 C294 0.930 . S
H273 C265 0.931 . S
H274 C255 0.930 . S
H275 C284 0.929 . S
H276 C260 0.931 . S
H277 C261 0.930 . S
H278 C316 0.930 . S
H279 C257 0.929 . S
H280 C285 0.931 . S
H281 C286 0.930 . S
N282 Gd262 2.622 . S
N282 C283 1.369 . S
N282 C284 1.338 . S
C283 N282 1.369 . S
C283 C287 1.415 . S
C283 C290 1.422 . S
C284 H275 0.929 . S
C284 N282 1.338 . S
C284 C286 1.378 . S
C285 H280 0.931 . S
C285 C286 1.348 . S
C285 C287 1.413 . S
C286 H281 0.930 . S
C286 C284 1.378 . S
C286 C285 1.348 . S
C287 C283 1.415 . S
C287 C285 1.413 . S
C287 C317 1.437 . S
H288 C317 0.929 . S
N289 Gd262 2.570 . S
N289 C290 1.359 . S
N289 C293 1.343 . S
C290 C283 1.422 . S
C290 N289 1.359 . S
C290 C292 1.421 . S
C291 C292 1.422 . S
C291 C294 1.321 . S
C291 H318 0.931 . S
C292 C290 1.421 . S
C292 C291 1.422 . S
C292 C316 1.417 . S
C293 H270 0.931 . S
C293 N289 1.343 . S
C293 C294 1.390 . S
C294 H272 0.930 . S
C294 C291 1.321 . S
C294 C293 1.390 . S
O295 Gd263 2.386 1_554 S
O295 C307 1.265 . S
O296 Gd262 2.353 . S
O296 C307 1.242 . S
O297 Gd262 2.468 . S
O297 C315 1.263 . S
O298 Gd262 2.427 . S
O298 C315 1.252 . S
O299 Gd263 2.307 . S
O299 C308 1.261 . S
O300 Gd262 2.388 . S
O300 C308 1.252 1_554 S
O301 Gd262 2.386 . S
O301 C319 1.265 1_554 S
O302 Gd263 2.353 . S
O302 C319 1.242 . S
O303 Gd263 2.468 . S
O303 C327 1.263 . S
O304 Gd263 2.427 . S
O304 C327 1.252 . S
O305 Gd262 2.307 . S
O305 C320 1.261 . S
O306 Gd263 2.388 1_554 S
O306 C320 1.252 . S
C307 O295 1.265 . S
C307 O296 1.242 . S
C308 O299 1.261 . S
C308 O300 1.252 1_556 S
C309 C312 1.394 . S
C309 C314 1.370 . S
C309 C315 1.500 . S
C310 C313 1.383 . S
C310 C314 1.395 . S
C311 C312 1.396 . S
C311 C313 1.365 . S
C311 H328 0.929 . S
C312 C309 1.394 . S
C312 C311 1.396 . S
C312 H329 0.930 . S
C313 C310 1.383 . S
C313 C311 1.365 . S
C313 H330 0.931 . S
C314 C309 1.370 . S
C314 C310 1.395 . S
C314 H331 0.930 . S
C315 Gd262 2.805 . S
C315 O297 1.263 . S
C315 O298 1.252 . S
C315 C309 1.500 . S
C316 H278 0.930 . S
C316 C292 1.417 . S
C316 C317 1.329 . S
C317 C287 1.437 . S
C317 H288 0.929 . S
C317 C316 1.329 . S
H318 C291 0.931 . S
C319 O301 1.265 1_556 S
C319 O302 1.242 . S
C320 O305 1.261 . S
C320 O306 1.252 . S
C321 C324 1.394 . S
C321 C326 1.370 . S
C321 C327 1.500 . S
C322 C325 1.383 . S
C322 C326 1.395 . S
C323 C324 1.396 . S
C323 C325 1.365 . S
C323 H332 0.929 . S
C324 C321 1.394 . S
C324 C323 1.396 . S
C324 H333 0.930 . S
C325 C322 1.383 . S
C325 C323 1.365 . S
C325 H334 0.931 . S
C326 C321 1.370 . S
C326 C322 1.395 . S
C326 H335 0.930 . S
C327 Gd263 2.805 . S
C327 O303 1.263 . S
C327 O304 1.252 . S
C327 C321 1.500 . S
H328 C311 0.929 . S
H329 C312 0.930 . S
H330 C313 0.931 . S
H331 C314 0.930 . S
H332 C323 0.929 . S
H333 C324 0.930 . S
H334 C325 0.931 . S
H335 C326 0.930 . S
C336 C338 1.422 . S
C336 C340 1.415 . S
C336 N342 1.369 . S
C337 C338 1.421 . S
C337 C339 1.417 . S
C337 C349 1.422 . S
C338 C336 1.422 . S
C338 C337 1.421 . S
C338 N348 1.359 . S
C339 C337 1.417 . S
C339 C341 1.329 . S
C339 H358 0.930 . S
C340 C336 1.415 . S
C340 C341 1.437 . S
C340 C344 1.413 . S
C341 C339 1.329 . S
C341 C340 1.437 . S
C341 H363 0.929 . S
N342 C336 1.369 . S
N342 C343 1.338 . S
N342 Gd347 2.622 . S
C343 N342 1.338 . S
C343 C345 1.378 . S
C343 H355 0.929 . S
C344 C340 1.413 . S
C344 C345 1.348 . S
C344 H360 0.931 . S
C345 C343 1.378 . S
C345 C344 1.348 . S
C345 H361 0.930 . S
Gd346 N366 2.622 . S
Gd346 N373 2.570 . S
Gd346 O380 2.353 . S
Gd346 O381 2.468 . S
Gd346 O382 2.427 . S
Gd346 O384 2.388 . S
Gd346 O385 2.386 . S
Gd346 O389 2.307 . S
Gd346 C399 2.805 . S
Gd347 N342 2.622 . S
Gd347 N348 2.570 . S
Gd347 O379 2.386 . S
Gd347 O383 2.307 . S
Gd347 O386 2.353 . S
Gd347 O387 2.468 . S
Gd347 O388 2.427 . S
Gd347 O390 2.388 . S
Gd347 C411 2.805 . S
N348 C338 1.359 . S
N348 Gd347 2.570 . S
N348 C350 1.343 . S
C349 C337 1.422 . S
C349 C351 1.321 . S
C349 H357 0.931 . S
C350 N348 1.343 . S
C350 C351 1.390 . S
C350 H352 0.931 . S
C351 C349 1.321 . S
C351 C350 1.390 . S
C351 H353 0.930 . S
H352 C350 0.931 . S
H353 C351 0.930 . S
H354 C377 0.931 . S
H355 C343 0.929 . S
H356 C378 0.930 . S
H357 C349 0.931 . S
H358 C339 0.930 . S
H359 C368 0.929 . S
H360 C344 0.931 . S
H361 C345 0.930 . S
H362 C400 0.930 . S
H363 C341 0.929 . S
H364 C369 0.931 . S
H365 C370 0.930 . S
N366 Gd346 2.622 . S
N366 C367 1.369 . S
N366 C368 1.338 . S
C367 N366 1.369 . S
C367 C371 1.415 . S
C367 C374 1.422 . S
C368 H359 0.929 . S
C368 N366 1.338 . S
C368 C370 1.378 . S
C369 H364 0.931 . S
C369 C370 1.348 . S
C369 C371 1.413 . S
C370 H365 0.930 . S
C370 C368 1.378 . S
C370 C369 1.348 . S
C371 C367 1.415 . S
C371 C369 1.413 . S
C371 C401 1.437 . S
H372 C401 0.929 . S
N373 Gd346 2.570 . S
N373 C374 1.359 . S
N373 C377 1.343 . S
C374 C367 1.422 . S
C374 N373 1.359 . S
C374 C376 1.421 . S
C375 C376 1.422 . S
C375 C378 1.321 . S
C375 H402 0.931 . S
C376 C374 1.421 . S
C376 C375 1.422 . S
C376 C400 1.417 . S
C377 H354 0.931 . S
C377 N373 1.343 . S
C377 C378 1.390 . S
C378 H356 0.930 . S
C378 C375 1.321 . S
C378 C377 1.390 . S
O379 Gd347 2.386 . S
O379 C391 1.265 . S
O380 Gd346 2.353 . S
O380 C391 1.242 . S
O381 Gd346 2.468 . S
O381 C399 1.263 . S
O382 Gd346 2.427 . S
O382 C399 1.252 . S
O383 Gd347 2.307 . S
O383 C392 1.261 . S
O384 Gd346 2.388 . S
O384 C392 1.252 . S
O385 Gd346 2.386 . S
O385 C403 1.265 . S
O386 Gd347 2.353 . S
O386 C403 1.242 . S
O387 Gd347 2.468 . S
O387 C411 1.263 . S
O388 Gd347 2.427 . S
O388 C411 1.252 . S
O389 Gd346 2.307 . S
O389 C404 1.261 . S
O390 Gd347 2.388 . S
O390 C404 1.252 . S
C391 O379 1.265 . S
C391 O380 1.242 . S
C392 O383 1.261 . S
C392 O384 1.252 . S
C393 C396 1.394 . S
C393 C398 1.370 . S
C393 C399 1.500 . S
C394 C397 1.383 . S
C394 C398 1.395 . S
C395 C396 1.396 . S
C395 C397 1.365 . S
C395 H412 0.929 . S
C396 C393 1.394 . S
C396 C395 1.396 . S
C396 H413 0.930 . S
C397 C394 1.383 . S
C397 C395 1.365 . S
C397 H414 0.931 . S
C398 C393 1.370 . S
C398 C394 1.395 . S
C398 H415 0.930 . S
C399 Gd346 2.805 . S
C399 O381 1.263 . S
C399 O382 1.252 . S
C399 C393 1.500 . S
C400 H362 0.930 . S
C400 C376 1.417 . S
C400 C401 1.329 . S
C401 C371 1.437 . S
C401 H372 0.929 . S
C401 C400 1.329 . S
H402 C375 0.931 . S
C403 O385 1.265 . S
C403 O386 1.242 . S
C404 O389 1.261 . S
C404 O390 1.252 . S
C405 C408 1.394 . S
C405 C410 1.370 . S
C405 C411 1.500 . S
C406 C409 1.383 . S
C406 C410 1.395 . S
C407 C408 1.396 . S
C407 C409 1.365 . S
C407 H416 0.929 . S
C408 C405 1.394 . S
C408 C407 1.396 . S
C408 H417 0.930 . S
C409 C406 1.383 . S
C409 C407 1.365 . S
C409 H418 0.931 . S
C410 C405 1.370 . S
C410 C406 1.395 . S
C410 H419 0.930 . S
C411 Gd347 2.805 . S
C411 O387 1.263 . S
C411 O388 1.252 . S
C411 C405 1.500 . S
H412 C395 0.929 . S
H413 C396 0.930 . S
H414 C397 0.931 . S
H415 C398 0.930 . S
H416 C407 0.929 . S
H417 C408 0.930 . S
H418 C409 0.931 . S
H419 C410 0.930 . S
C420 C422 1.422 . S
C420 C424 1.415 . S
C420 N426 1.369 . S
C421 C422 1.421 . S
C421 C423 1.417 . S
C421 C433 1.422 . S
C422 C420 1.422 . S
C422 C421 1.421 . S
C422 N432 1.359 . S
C423 C421 1.417 . S
C423 C425 1.329 . S
C423 H442 0.930 . S
C424 C420 1.415 . S
C424 C425 1.437 . S
C424 C428 1.413 . S
C425 C423 1.329 . S
C425 C424 1.437 . S
C425 H447 0.929 . S
N426 C420 1.369 . S
N426 C427 1.338 . S
N426 Gd431 2.622 . S
C427 N426 1.338 . S
C427 C429 1.378 . S
C427 H439 0.929 . S
C428 C424 1.413 . S
C428 C429 1.348 . S
C428 H444 0.931 . S
C429 C427 1.378 . S
C429 C428 1.348 . S
C429 H445 0.930 . S
Gd430 N450 2.622 . S
Gd430 N457 2.570 . S
Gd430 O464 2.353 . S
Gd430 O465 2.468 . S
Gd430 O466 2.427 . S
Gd430 O468 2.388 . S
Gd430 O469 2.386 . S
Gd430 O473 2.307 . S
Gd430 C483 2.805 . S
Gd431 N426 2.622 . S
Gd431 N432 2.570 . S
Gd431 O463 2.386 . S
Gd431 O467 2.307 . S
Gd431 O470 2.353 . S
Gd431 O471 2.468 . S
Gd431 O472 2.427 . S
Gd431 O474 2.388 . S
Gd431 C495 2.805 . S
N432 C422 1.359 . S
N432 Gd431 2.570 . S
N432 C434 1.343 . S
C433 C421 1.422 . S
C433 C435 1.321 . S
C433 H441 0.931 . S
C434 N432 1.343 . S
C434 C435 1.390 . S
C434 H436 0.931 . S
C435 C433 1.321 . S
C435 C434 1.390 . S
C435 H437 0.930 . S
H436 C434 0.931 . S
H437 C435 0.930 . S
H438 C461 0.931 . S
H439 C427 0.929 . S
H440 C462 0.930 . S
H441 C433 0.931 . S
H442 C423 0.930 . S
H443 C452 0.929 . S
H444 C428 0.931 . S
H445 C429 0.930 . S
H446 C484 0.930 . S
H447 C425 0.929 . S
H448 C453 0.931 . S
H449 C454 0.930 . S
N450 Gd430 2.622 . S
N450 C451 1.369 . S
N450 C452 1.338 . S
C451 N450 1.369 . S
C451 C455 1.415 . S
C451 C458 1.422 . S
C452 H443 0.929 . S
C452 N450 1.338 . S
C452 C454 1.378 . S
C453 H448 0.931 . S
C453 C454 1.348 . S
C453 C455 1.413 . S
C454 H449 0.930 . S
C454 C452 1.378 . S
C454 C453 1.348 . S
C455 C451 1.415 . S
C455 C453 1.413 . S
C455 C485 1.437 . S
H456 C485 0.929 . S
N457 Gd430 2.570 . S
N457 C458 1.359 . S
N457 C461 1.343 . S
C458 C451 1.422 . S
C458 N457 1.359 . S
C458 C460 1.421 . S
C459 C460 1.422 . S
C459 C462 1.321 . S
C459 H486 0.931 . S
C460 C458 1.421 . S
C460 C459 1.422 . S
C460 C484 1.417 . S
C461 H438 0.931 . S
C461 N457 1.343 . S
C461 C462 1.390 . S
C462 H440 0.930 . S
C462 C459 1.321 . S
C462 C461 1.390 . S
O463 Gd431 2.386 . S
O463 C475 1.265 . S
O464 Gd430 2.353 . S
O464 C475 1.242 . S
O465 Gd430 2.468 . S
O465 C483 1.263 . S
O466 Gd430 2.427 . S
O466 C483 1.252 . S
O467 Gd431 2.307 . S
O467 C476 1.261 . S
O468 Gd430 2.388 . S
O468 C476 1.252 . S
O469 Gd430 2.386 . S
O469 C487 1.265 . S
O470 Gd431 2.353 . S
O470 C487 1.242 . S
O471 Gd431 2.468 . S
O471 C495 1.263 . S
O472 Gd431 2.427 . S
O472 C495 1.252 . S
O473 Gd430 2.307 . S
O473 C488 1.261 . S
O474 Gd431 2.388 . S
O474 C488 1.252 . S
C475 O463 1.265 . S
C475 O464 1.242 . S
C476 O467 1.261 . S
C476 O468 1.252 . S
C477 C480 1.394 . S
C477 C482 1.370 . S
C477 C483 1.500 . S
C478 C481 1.383 . S
C478 C482 1.395 . S
C479 C480 1.396 . S
C479 C481 1.365 . S
C479 H496 0.929 . S
C480 C477 1.394 . S
C480 C479 1.396 . S
C480 H497 0.930 . S
C481 C478 1.383 . S
C481 C479 1.365 . S
C481 H498 0.931 1_556 S
C482 C477 1.370 . S
C482 C478 1.395 . S
C482 H499 0.930 . S
C483 Gd430 2.805 . S
C483 O465 1.263 . S
C483 O466 1.252 . S
C483 C477 1.500 . S
C484 H446 0.930 . S
C484 C460 1.417 . S
C484 C485 1.329 . S
C485 C455 1.437 . S
C485 H456 0.929 . S
C485 C484 1.329 . S
H486 C459 0.931 . S
C487 O469 1.265 . S
C487 O470 1.242 . S
C488 O473 1.261 . S
C488 O474 1.252 . S
C489 C492 1.394 . S
C489 C494 1.370 . S
C489 C495 1.500 . S
C490 C493 1.383 . S
C490 C494 1.395 . S
C491 C492 1.396 . S
C491 C493 1.365 . S
C491 H500 0.929 . S
C492 C489 1.394 . S
C492 C491 1.396 . S
C492 H501 0.930 . S
C493 C490 1.383 . S
C493 C491 1.365 . S
C493 H502 0.931 . S
C494 C489 1.370 . S
C494 C490 1.395 . S
C494 H503 0.930 . S
C495 Gd431 2.805 . S
C495 O471 1.263 . S
C495 O472 1.252 . S
C495 C489 1.500 . S
H496 C479 0.929 . S
H497 C480 0.930 . S
H498 C481 0.931 1_554 S
H499 C482 0.930 . S
H500 C491 0.929 . S
H501 C492 0.930 . S
H502 C493 0.931 . S
H503 C494 0.930 . S
H504 C512 0.929 . S
H505 C514 0.930 . S
H506 C516 0.930 . S
H507 C519 0.929 . S
H508 C522 0.930 . S
H509 C524 0.960 . S
H510 C524 0.960 . S
H511 C524 0.960 . S
C512 H504 0.929 . S
C512 C513 1.377 . S
C512 C514 1.384 . S
C513 C512 1.377 . S
C513 C519 1.390 . S
C514 H505 0.930 . S
C514 C512 1.384 . S
C514 C515 1.372 . S
C515 C514 1.372 . S
C515 C516 1.400 . S
C515 C520 1.490 . S
C516 H506 0.930 . S
C516 C515 1.400 . S
C516 C519 1.386 . S
H517 C533 0.930 . S
H518 C534 0.931 . S
C519 H507 0.929 . S
C519 C513 1.390 . S
C519 C516 1.386 . S
C520 C515 1.490 . S
C520 C522 1.395 . S
C520 C523 1.403 . S
H521 C527 0.930 . S
C522 H508 0.930 . S
C522 C520 1.395 . S
C522 C525 1.403 . S
C523 C520 1.403 . S
C523 C524 1.524 . S
C523 C527 1.400 . S
C524 H509 0.960 . S
C524 H510 0.960 . S
C524 H511 0.960 . S
C524 C523 1.524 . S
C525 C522 1.403 . S
C525 C526 1.392 . S
C525 C529 1.495 . S
C526 C525 1.392 . S
C526 C527 1.385 . S
C526 C528 1.478 . S
C527 H521 0.930 . S
C527 C523 1.400 . S
C527 C526 1.385 . S
C528 C526 1.478 . S
C528 C530 1.381 . S
C528 C534 1.383 . S
C529 C525 1.495 . S
C529 H535 0.959 . S
C529 H536 0.961 . S
C529 H537 0.960 . S
C530 C528 1.381 . S
C530 C531 1.394 . S
C530 H538 0.930 . S
C531 C530 1.394 . S
C531 C532 1.383 . S
C531 H539 0.929 . S
C532 C531 1.383 . S
C532 C533 1.377 . S
C533 H517 0.930 . S
C533 C532 1.377 . S
C533 C534 1.379 . S
C534 H518 0.931 . S
C534 C528 1.383 . S
C534 C533 1.379 . S
H535 C529 0.959 . S
H536 C529 0.961 . S
H537 C529 0.960 . S
H538 C530 0.930 . S
H539 C531 0.929 . S
H540 C548 0.929 . S
H541 C550 0.930 . S
H542 C552 0.930 . S
H543 C555 0.929 . S
H544 C558 0.930 . S
H545 C560 0.960 . S
H546 C560 0.960 . S
H547 C560 0.960 1_455 S
C548 H540 0.929 . S
C548 C549 1.377 . S
C548 C550 1.384 . S
C549 C548 1.377 . S
C549 C555 1.390 . S
C550 H541 0.930 . S
C550 C548 1.384 . S
C550 C551 1.372 . S
C551 C550 1.372 . S
C551 C552 1.400 . S
C551 C556 1.490 . S
C552 H542 0.930 . S
C552 C551 1.400 . S
C552 C555 1.386 . S
H553 C569 0.930 . S
H554 C570 0.931 . S
C555 H543 0.929 . S
C555 C549 1.390 . S
C555 C552 1.386 . S
C556 C551 1.490 . S
C556 C558 1.395 . S
C556 C559 1.403 1_455 S
H557 C563 0.930 . S
C558 H544 0.930 . S
C558 C556 1.395 . S
C558 C561 1.403 . S
C559 C556 1.403 1_655 S
C559 C560 1.524 . S
C559 C563 1.400 . S
C560 H545 0.960 . S
C560 H546 0.960 . S
C560 H547 0.960 1_655 S
C560 C559 1.524 . S
C561 C558 1.403 . S
C561 C562 1.392 1_455 S
C561 C565 1.495 . S
C562 C561 1.392 1_655 S
C562 C563 1.385 . S
C562 C564 1.478 . S
C563 H557 0.930 . S
C563 C559 1.400 . S
C563 C562 1.385 . S
C564 C562 1.478 . S
C564 C566 1.381 . S
C564 C570 1.383 . S
C565 C561 1.495 . S
C565 H571 0.959 . S
C565 H572 0.961 . S
C565 H573 0.960 1_455 S
C566 C564 1.381 . S
C566 C567 1.394 . S
C566 H574 0.930 . S
C567 C566 1.394 . S
C567 C568 1.383 . S
C567 H575 0.929 . S
C568 C567 1.383 . S
C568 C569 1.377 . S
C569 H553 0.930 . S
C569 C568 1.377 . S
C569 C570 1.379 . S
C570 H554 0.931 . S
C570 C564 1.383 . S
C570 C569 1.379 . S
H571 C565 0.959 . S
H572 C565 0.961 . S
H573 C565 0.960 1_655 S
H574 C566 0.930 . S
H575 C567 0.929 . S
H576 C584 0.929 . S
H577 C586 0.930 . S
H578 C588 0.930 . S
H579 C591 0.929 . S
H580 C594 0.930 . S
H581 C596 0.960 . S
H582 C596 0.960 1_545 S
H583 C596 0.960 1_545 S
C584 H576 0.929 . S
C584 C585 1.377 . S
C584 C586 1.384 . S
C585 C584 1.377 . S
C585 C591 1.390 . S
C586 H577 0.930 . S
C586 C584 1.384 . S
C586 C587 1.372 . S
C587 C586 1.372 . S
C587 C588 1.400 . S
C587 C592 1.490 . S
C588 H578 0.930 . S
C588 C587 1.400 . S
C588 C591 1.386 . S
H589 C605 0.930 . S
H590 C606 0.931 . S
C591 H579 0.929 . S
C591 C585 1.390 . S
C591 C588 1.386 . S
C592 C587 1.490 . S
C592 C594 1.395 . S
C592 C595 1.390 1_545 S
H593 C599 0.930 . S
C594 H580 0.930 . S
C594 C592 1.395 . S
C594 C597 1.403 . S
C595 C592 1.390 1_565 S
C595 C596 1.523 . S
C595 C599 1.415 . S
C596 H581 0.960 . S
C596 H582 0.960 1_565 S
C596 H583 0.960 1_565 S
C596 C595 1.523 . S
C597 C594 1.403 . S
C597 C598 1.392 1_545 S
C597 C601 1.495 . S
C598 C597 1.392 1_565 S
C598 C599 1.385 . S
C598 C600 1.478 . S
C599 H593 0.930 . S
C599 C595 1.415 . S
C599 C598 1.385 . S
C600 C598 1.478 . S
C600 C602 1.381 . S
C600 C606 1.383 . S
C601 C597 1.495 . S
C601 H607 0.959 . S
C601 H608 0.960 . S
C601 H609 0.960 1_545 S
C602 C600 1.381 . S
C602 C603 1.394 . S
C602 H610 0.930 . S
C603 C602 1.394 . S
C603 C604 1.383 . S
C603 H611 0.929 . S
C604 C603 1.383 . S
C604 C605 1.377 . S
C605 H589 0.930 . S
C605 C604 1.377 . S
C605 C606 1.379 . S
C606 H590 0.931 . S
C606 C600 1.383 . S
C606 C605 1.379 . S
H607 C601 0.959 . S
H608 C601 0.960 . S
H609 C601 0.960 1_565 S
H610 C602 0.930 . S
H611 C603 0.929 . S
H612 C620 0.929 . S
H613 C622 0.930 . S
H614 C624 0.930 . S
H615 C627 0.929 . S
H616 C630 0.930 . S
H617 C632 0.960 . S
H618 C632 0.960 . S
H619 C632 0.960 . S
C620 H612 0.929 . S
C620 C621 1.377 . S
C620 C622 1.384 . S
C621 C620 1.377 . S
C621 C627 1.390 . S
C622 H613 0.930 . S
C622 C620 1.384 . S
C622 C623 1.372 . S
C623 C622 1.372 . S
C623 C624 1.400 . S
C623 C628 1.490 . S
C624 H614 0.930 . S
C624 C623 1.400 . S
C624 C627 1.386 . S
H625 C641 0.930 . S
H626 C642 0.931 . S
C627 H615 0.929 . S
C627 C621 1.390 . S
C627 C624 1.386 . S
C628 C623 1.490 . S
C628 C630 1.395 . S
C628 C631 1.403 . S
H629 C635 0.930 . S
C630 H616 0.930 . S
C630 C628 1.395 . S
C630 C633 1.403 . S
C631 C628 1.403 . S
C631 C632 1.524 . S
C631 C635 1.400 . S
C632 H617 0.960 . S
C632 H618 0.960 . S
C632 H619 0.960 . S
C632 C631 1.524 . S
C633 C630 1.403 . S
C633 C634 1.392 . S
C633 C637 1.495 . S
C634 C633 1.392 . S
C634 C635 1.385 . S
C634 C636 1.478 . S
C635 H629 0.930 . S
C635 C631 1.400 . S
C635 C634 1.385 . S
C636 C634 1.478 . S
C636 C638 1.381 . S
C636 C642 1.383 . S
C637 C633 1.495 . S
C637 H643 0.959 . S
C637 H644 0.961 . S
C637 H645 0.960 . S
C638 C636 1.381 . S
C638 C639 1.394 . S
C638 H646 0.930 . S
C639 C638 1.394 . S
C639 C640 1.383 . S
C639 H647 0.929 . S
C640 C639 1.383 . S
C640 C641 1.377 . S
C641 H625 0.930 . S
C641 C640 1.377 . S
C641 C642 1.379 . S
C642 H626 0.931 . S
C642 C636 1.383 . S
C642 C641 1.379 . S
H643 C637 0.959 . S
H644 C637 0.961 . S
H645 C637 0.960 . S
H646 C638 0.930 . S
H647 C639 0.929 . S
H648 C656 0.929 . S
H649 C658 0.930 . S
H650 C660 0.930 . S
H651 C663 0.929 . S
H652 C666 0.929 . S
H653 C668 0.960 . S
H654 C668 0.960 . S
H655 C668 0.960 . S
C656 H648 0.929 . S
C656 C657 1.377 . S
C656 C658 1.384 . S
C657 C656 1.377 . S
C657 C663 1.390 . S
C658 H649 0.930 . S
C658 C656 1.384 . S
C658 C659 1.372 . S
C659 C658 1.372 . S
C659 C660 1.400 . S
C659 C664 1.490 . S
C660 H650 0.930 . S
C660 C659 1.400 . S
C660 C663 1.386 . S
H661 C677 0.930 . S
H662 C678 0.931 . S
C663 H651 0.929 . S
C663 C657 1.390 . S
C663 C660 1.386 . S
C664 C659 1.490 . S
C664 C666 1.406 . S
C664 C667 1.403 . S
H665 C671 0.930 . S
C666 H652 0.929 . S
C666 C664 1.406 . S
C666 C669 1.393 1_455 S
C667 C664 1.403 . S
C667 C668 1.524 . S
C667 C671 1.400 1_455 S
C668 H653 0.960 . S
C668 H654 0.960 . S
C668 H655 0.960 . S
C668 C667 1.524 . S
C669 C666 1.393 1_655 S
C669 C670 1.392 . S
C669 C673 1.495 . S
C670 C669 1.392 . S
C670 C671 1.385 . S
C670 C672 1.478 . S
C671 H665 0.930 . S
C671 C667 1.400 1_655 S
C671 C670 1.385 . S
C672 C670 1.478 . S
C672 C674 1.381 . S
C672 C678 1.383 . S
C673 C669 1.495 . S
C673 H679 0.959 . S
C673 H680 0.961 . S
C673 H681 0.960 . S
C674 C672 1.381 . S
C674 C675 1.394 . S
C674 H682 0.930 . S
C675 C674 1.394 . S
C675 C676 1.383 . S
C675 H683 0.929 . S
C676 C675 1.383 . S
C676 C677 1.377 . S
C677 H661 0.930 . S
C677 C676 1.377 . S
C677 C678 1.379 . S
C678 H662 0.931 . S
C678 C672 1.383 . S
C678 C677 1.379 . S
H679 C673 0.959 . S
H680 C673 0.961 . S
H681 C673 0.960 . S
H682 C674 0.930 . S
H683 C675 0.929 . S
H684 C692 0.929 . S
H685 C694 0.930 . S
H686 C696 0.930 . S
H687 C699 0.929 . S
H688 C702 0.930 . S
H689 C704 0.960 . S
H690 C704 0.960 . S
H691 C704 0.960 . S
C692 H684 0.929 . S
C692 C693 1.377 . S
C692 C694 1.384 . S
C693 C692 1.377 . S
C693 C699 1.390 . S
C694 H685 0.930 . S
C694 C692 1.384 . S
C694 C695 1.372 . S
C695 C694 1.372 . S
C695 C696 1.400 . S
C695 C700 1.490 . S
C696 H686 0.930 . S
C696 C695 1.400 . S
C696 C699 1.386 . S
H697 C713 0.930 . S
H698 C714 0.931 . S
C699 H687 0.929 . S
C699 C693 1.390 . S
C699 C696 1.386 . S
C700 C695 1.490 . S
C700 C702 1.395 . S
C700 C703 1.403 . S
H701 C707 0.930 . S
C702 H688 0.930 . S
C702 C700 1.395 . S
C702 C705 1.403 1_545 S
C703 C700 1.403 . S
C703 C704 1.524 . S
C703 C707 1.400 1_545 S
C704 H689 0.960 . S
C704 H690 0.960 . S
C704 H691 0.960 . S
C704 C703 1.524 . S
C705 C702 1.403 1_565 S
C705 C706 1.392 . S
C705 C709 1.495 . S
C706 C705 1.392 . S
C706 C707 1.385 . S
C706 C708 1.478 . S
C707 H701 0.930 . S
C707 C703 1.400 1_565 S
C707 C706 1.385 . S
C708 C706 1.478 . S
C708 C710 1.381 . S
C708 C714 1.383 . S
C709 C705 1.495 . S
C709 H715 0.959 . S
C709 H716 0.961 . S
C709 H717 0.960 . S
C710 C708 1.381 . S
C710 C711 1.394 . S
C710 H718 0.930 . S
C711 C710 1.394 . S
C711 C712 1.383 . S
C711 H719 0.929 . S
C712 C711 1.383 . S
C712 C713 1.377 . S
C713 H697 0.930 . S
C713 C712 1.377 . S
C713 C714 1.379 . S
C714 H698 0.931 . S
C714 C708 1.383 . S
C714 C713 1.379 . S
H715 C709 0.959 . S
H716 C709 0.961 . S
H717 C709 0.960 . S
H718 C710 0.930 . S
H719 C711 0.929 . S
H720 C728 0.929 . S
H721 C730 0.930 . S
H722 C732 0.930 . S
H723 C735 0.929 . S
H724 C738 0.930 . S
H725 C740 0.960 . S
H726 C740 0.960 . S
H727 C740 0.960 . S
C728 H720 0.929 . S
C728 C729 1.377 . S
C728 C730 1.384 . S
C729 C728 1.377 . S
C729 C735 1.390 . S
C730 H721 0.930 . S
C730 C728 1.384 . S
C730 C731 1.372 . S
C731 C730 1.372 . S
C731 C732 1.400 . S
C731 C736 1.490 . S
C732 H722 0.930 . S
C732 C731 1.400 . S
C732 C735 1.386 . S
H733 C749 0.930 . S
H734 C750 0.931 . S
C735 H723 0.929 . S
C735 C729 1.390 . S
C735 C732 1.386 . S
C736 C731 1.490 . S
C736 C738 1.395 . S
C736 C739 1.403 . S
H737 C743 0.930 . S
C738 H724 0.930 . S
C738 C736 1.395 . S
C738 C741 1.403 . S
C739 C736 1.403 . S
C739 C740 1.524 . S
C739 C743 1.400 . S
C740 H725 0.960 . S
C740 H726 0.960 . S
C740 H727 0.960 . S
C740 C739 1.524 . S
C741 C738 1.403 . S
C741 C742 1.392 . S
C741 C745 1.495 . S
C742 C741 1.392 . S
C742 C743 1.385 . S
C742 C744 1.478 . S
C743 H737 0.930 . S
C743 C739 1.400 . S
C743 C742 1.385 . S
C744 C742 1.478 . S
C744 C746 1.381 . S
C744 C750 1.383 . S
C745 C741 1.495 . S
C745 H751 0.959 . S
C745 H752 0.961 . S
C745 H753 0.960 . S
C746 C744 1.381 . S
C746 C747 1.394 . S
C746 H754 0.930 . S
C747 C746 1.394 . S
C747 C748 1.383 . S
C747 H755 0.929 . S
C748 C747 1.383 . S
C748 C749 1.377 . S
C749 H733 0.930 . S
C749 C748 1.377 . S
C749 C750 1.379 . S
C750 H734 0.931 . S
C750 C744 1.383 . S
C750 C749 1.379 . S
H751 C745 0.959 . S
H752 C745 0.961 . S
H753 C745 0.960 . S
H754 C746 0.930 . S
H755 C747 0.929 . S
H756 C764 0.929 . S
H757 C766 0.930 . S
H758 C768 0.930 . S
H759 C771 0.929 . S
H760 C774 0.930 . S
H761 C776 0.960 . S
H762 C776 0.960 . S
H763 C776 0.960 . S
C764 H756 0.929 . S
C764 C765 1.377 . S
C764 C766 1.384 1_554 S
C765 C764 1.377 . S
C765 C771 1.390 . S
C766 H757 0.930 . S
C766 C764 1.384 1_556 S
C766 C767 1.372 . S
C767 C766 1.372 . S
C767 C768 1.400 . S
C767 C772 1.490 . S
C768 H758 0.930 . S
C768 C767 1.400 . S
C768 C771 1.386 1_556 S
H769 C785 0.930 . S
H770 C786 0.931 . S
C771 H759 0.929 . S
C771 C765 1.390 . S
C771 C768 1.386 1_554 S
C772 C767 1.490 . S
C772 C774 1.395 . S
C772 C775 1.403 . S
H773 C779 0.930 . S
C774 H760 0.930 . S
C774 C772 1.395 . S
C774 C777 1.403 . S
C775 C772 1.403 . S
C775 C776 1.524 . S
C775 C779 1.400 . S
C776 H761 0.960 . S
C776 H762 0.960 . S
C776 H763 0.960 . S
C776 C775 1.524 . S
C777 C774 1.403 . S
C777 C778 1.392 . S
C777 C781 1.495 . S
C778 C777 1.392 . S
C778 C779 1.385 . S
C778 C780 1.478 . S
C779 H773 0.930 . S
C779 C775 1.400 . S
C779 C778 1.385 . S
C780 C778 1.478 . S
C780 C782 1.381 . S
C780 C786 1.383 . S
C781 C777 1.495 . S
C781 H787 0.959 . S
C781 H788 0.961 . S
C781 H789 0.960 . S
C782 C780 1.381 . S
C782 C783 1.394 . S
C782 H790 0.930 . S
C783 C782 1.394 . S
C783 C784 1.383 . S
C783 H791 0.929 . S
C784 C783 1.383 . S
C784 C785 1.377 . S
C785 H769 0.930 . S
C785 C784 1.377 . S
C785 C786 1.379 . S
C786 H770 0.931 . S
C786 C780 1.383 . S
C786 C785 1.379 . S
H787 C781 0.959 . S
H788 C781 0.961 . S
H789 C781 0.960 . S
H790 C782 0.930 . S
H791 C783 0.929 . S
H792 C800 0.929 . S
H793 C802 0.930 . S
H794 C804 0.930 . S
H795 C807 0.929 . S
H796 C810 0.930 . S
H797 C812 0.960 . S
H798 C812 0.960 . S
H799 C812 0.960 . S
C800 H792 0.929 . S
C800 C801 1.377 . S
C800 C802 1.384 . S
C801 C800 1.377 . S
C801 C807 1.390 . S
C802 H793 0.930 . S
C802 C800 1.384 . S
C802 C803 1.372 . S
C803 C802 1.372 . S
C803 C804 1.400 . S
C803 C808 1.490 . S
C804 H794 0.930 . S
C804 C803 1.400 . S
C804 C807 1.386 . S
H805 C821 0.930 1_556 S
H806 C822 0.931 . S
C807 H795 0.929 . S
C807 C801 1.390 . S
C807 C804 1.386 . S
C808 C803 1.490 . S
C808 C810 1.395 . S
C808 C811 1.403 . S
H809 C815 0.930 . S
C810 H796 0.930 . S
C810 C808 1.395 . S
C810 C813 1.403 . S
C811 C808 1.403 . S
C811 C812 1.524 . S
C811 C815 1.400 . S
C812 H797 0.960 . S
C812 H798 0.960 . S
C812 H799 0.960 . S
C812 C811 1.524 . S
C813 C810 1.403 . S
C813 C814 1.392 . S
C813 C817 1.495 . S
C814 C813 1.392 . S
C814 C815 1.385 . S
C814 C816 1.478 . S
C815 H809 0.930 . S
C815 C811 1.400 . S
C815 C814 1.385 . S
C816 C814 1.478 . S
C816 C818 1.381 . S
C816 C822 1.383 . S
C817 C813 1.495 . S
C817 H823 0.959 . S
C817 H824 0.961 . S
C817 H825 0.960 . S
C818 C816 1.381 . S
C818 C819 1.394 1_554 S
C818 H826 0.930 . S
C819 C818 1.394 1_556 S
C819 C820 1.383 . S
C819 H827 0.929 . S
C820 C819 1.383 . S
C820 C821 1.377 1_556 S
C821 H805 0.930 1_554 S
C821 C820 1.377 1_554 S
C821 C822 1.379 . S
C822 H806 0.931 . S
C822 C816 1.383 . S
C822 C821 1.379 . S
H823 C817 0.959 . S
H824 C817 0.961 . S
H825 C817 0.960 . S
H826 C818 0.930 . S
H827 C819 0.929 . S
H828 C836 0.929 . S
H829 C838 0.930 . S
H830 C840 0.930 . S
H831 C843 0.929 . S
H832 C846 0.930 . S
H833 C848 0.960 . S
H834 C848 0.960 . S
H835 C848 0.960 . S
C836 H828 0.929 . S
C836 C837 1.377 . S
C836 C838 1.384 . S
C837 C836 1.377 . S
C837 C843 1.390 . S
C838 H829 0.930 . S
C838 C836 1.384 . S
C838 C839 1.372 . S
C839 C838 1.372 . S
C839 C840 1.400 . S
C839 C844 1.490 . S
C840 H830 0.930 . S
C840 C839 1.400 . S
C840 C843 1.386 . S
H841 C857 0.930 . S
H842 C858 0.931 . S
C843 H831 0.929 . S
C843 C837 1.390 . S
C843 C840 1.386 . S
C844 C839 1.490 . S
C844 C846 1.395 . S
C844 C847 1.403 . S
H845 C851 0.930 . S
C846 H832 0.930 . S
C846 C844 1.395 . S
C846 C849 1.403 . S
C847 C844 1.403 . S
C847 C848 1.524 . S
C847 C851 1.400 . S
C848 H833 0.960 . S
C848 H834 0.960 . S
C848 H835 0.960 . S
C848 C847 1.524 . S
C849 C846 1.403 . S
C849 C850 1.392 . S
C849 C853 1.495 . S
C850 C849 1.392 . S
C850 C851 1.385 . S
C850 C852 1.478 . S
C851 H845 0.930 . S
C851 C847 1.400 . S
C851 C850 1.385 . S
C852 C850 1.478 . S
C852 C854 1.381 . S
C852 C858 1.383 . S
C853 C849 1.495 . S
C853 H859 0.959 . S
C853 H860 0.961 . S
C853 H861 0.960 . S
C854 C852 1.381 . S
C854 C855 1.394 . S
C854 H862 0.930 . S
C855 C854 1.394 . S
C855 C856 1.383 . S
C855 H863 0.929 . S
C856 C855 1.383 . S
C856 C857 1.377 . S
C857 H841 0.930 . S
C857 C856 1.377 . S
C857 C858 1.379 . S
C858 H842 0.931 . S
C858 C852 1.383 . S
C858 C857 1.379 . S
H859 C853 0.959 . S
H860 C853 0.961 . S
H861 C853 0.960 . S
H862 C854 0.930 . S
H863 C855 0.929 . S
H864 C872 0.929 . S
H865 C874 0.930 . S
H866 C876 0.930 . S
H867 C879 0.929 . S
H868 C882 0.930 . S
H869 C884 0.960 . S
H870 C884 0.960 . S
H871 C884 0.960 . S
C872 H864 0.929 . S
C872 C873 1.377 . S
C872 C874 1.384 . S
C873 C872 1.377 . S
C873 C879 1.390 . S
C874 H865 0.930 . S
C874 C872 1.384 . S
C874 C875 1.372 . S
C875 C874 1.372 . S
C875 C876 1.400 . S
C875 C880 1.490 . S
C876 H866 0.930 . S
C876 C875 1.400 . S
C876 C879 1.386 . S
H877 C893 0.930 . S
H878 C894 0.931 . S
C879 H867 0.929 . S
C879 C873 1.390 . S
C879 C876 1.386 . S
C880 C875 1.490 . S
C880 C882 1.395 . S
C880 C883 1.403 . S
H881 C887 0.930 . S
C882 H868 0.930 . S
C882 C880 1.395 . S
C882 C885 1.403 . S
C883 C880 1.403 . S
C883 C884 1.524 . S
C883 C887 1.400 . S
C884 H869 0.960 . S
C884 H870 0.960 . S
C884 H871 0.960 . S
C884 C883 1.524 . S
C885 C882 1.403 . S
C885 C886 1.392 . S
C885 C889 1.495 . S
C886 C885 1.392 . S
C886 C887 1.385 . S
C886 C888 1.478 . S
C887 H881 0.930 . S
C887 C883 1.400 . S
C887 C886 1.385 . S
C888 C886 1.478 . S
C888 C890 1.381 . S
C888 C894 1.383 . S
C889 C885 1.495 . S
C889 H895 0.959 . S
C889 H896 0.961 . S
C889 H897 0.960 . S
C890 C888 1.381 . S
C890 C891 1.394 1_556 S
C890 H898 0.930 . S
C891 C890 1.394 1_554 S
C891 C892 1.383 . S
C891 H899 0.929 . S
C892 C891 1.383 . S
C892 C893 1.377 . S
C893 H877 0.930 . S
C893 C892 1.377 . S
C893 C894 1.379 1_554 S
C894 H878 0.931 . S
C894 C888 1.383 . S
C894 C893 1.379 1_556 S
H895 C889 0.959 . S
H896 C889 0.961 . S
H897 C889 0.960 . S
H898 C890 0.930 . S
H899 C891 0.929 . S
H900 C908 0.929 . S
H901 C910 0.930 . S
H902 C912 0.930 . S
H903 C915 0.929 . S
H904 C918 0.930 . S
H905 C920 0.960 . S
H906 C920 0.960 . S
H907 C920 0.960 . S
C908 H900 0.929 . S
C908 C909 1.377 . S
C908 C910 1.384 . S
C909 C908 1.377 . S
C909 C915 1.390 . S
C910 H901 0.930 . S
C910 C908 1.384 . S
C910 C911 1.372 . S
C911 C910 1.372 . S
C911 C912 1.400 . S
C911 C916 1.490 . S
C912 H902 0.930 . S
C912 C911 1.400 . S
C912 C915 1.386 . S
H913 C929 0.930 1_556 S
H914 C930 0.931 . S
C915 H903 0.929 . S
C915 C909 1.390 . S
C915 C912 1.386 . S
C916 C911 1.490 . S
C916 C918 1.395 . S
C916 C919 1.403 . S
H917 C923 0.930 . S
C918 H904 0.930 . S
C918 C916 1.395 . S
C918 C921 1.403 . S
C919 C916 1.403 . S
C919 C920 1.524 . S
C919 C923 1.400 . S
C920 H905 0.960 . S
C920 H906 0.960 . S
C920 H907 0.960 . S
C920 C919 1.524 . S
C921 C918 1.403 . S
C921 C922 1.392 . S
C921 C925 1.495 . S
C922 C921 1.392 . S
C922 C923 1.385 . S
C922 C924 1.478 . S
C923 H917 0.930 . S
C923 C919 1.400 . S
C923 C922 1.385 . S
C924 C922 1.478 . S
C924 C926 1.381 . S
C924 C930 1.383 . S
C925 C921 1.495 . S
C925 H931 0.959 . S
C925 H932 0.961 . S
C925 H933 0.960 . S
C926 C924 1.381 . S
C926 C927 1.394 . S
C926 H934 0.930 . S
C927 C926 1.394 . S
C927 C928 1.383 1_554 S
C927 H935 0.929 1_554 S
C928 C927 1.383 1_556 S
C928 C929 1.377 1_556 S
C929 H913 0.930 1_554 S
C929 C928 1.377 1_554 S
C929 C930 1.379 . S
C930 H914 0.931 . S
C930 C924 1.383 . S
C930 C929 1.379 . S
H931 C925 0.959 . S
H932 C925 0.961 . S
H933 C925 0.960 . S
H934 C926 0.930 . S
H935 C927 0.929 1_556 S
H936 C944 0.929 . S
H937 C946 0.930 . S
H938 C948 0.930 . S
H939 C951 0.929 . S
H940 C954 0.930 . S
H941 C956 0.960 . S
H942 C956 0.960 . S
H943 C956 0.960 . S
C944 H936 0.929 . S
C944 C945 1.377 . S
C944 C946 1.384 . S
C945 C944 1.377 . S
C945 C951 1.390 . S
C946 H937 0.930 . S
C946 C944 1.384 . S
C946 C947 1.372 . S
C947 C946 1.372 . S
C947 C948 1.400 . S
C947 C952 1.490 . S
C948 H938 0.930 . S
C948 C947 1.400 . S
C948 C951 1.386 . S
H949 C965 0.930 . S
H950 C966 0.931 . S
C951 H939 0.929 . S
C951 C945 1.390 . S
C951 C948 1.386 . S
C952 C947 1.490 . S
C952 C954 1.395 . S
C952 C955 1.403 . S
H953 C959 0.930 . S
C954 H940 0.930 . S
C954 C952 1.395 . S
C954 C957 1.403 . S
C955 C952 1.403 . S
C955 C956 1.524 . S
C955 C959 1.400 . S
C956 H941 0.960 . S
C956 H942 0.960 . S
C956 H943 0.960 . S
C956 C955 1.524 . S
C957 C954 1.403 . S
C957 C958 1.392 . S
C957 C961 1.495 . S
C958 C957 1.392 . S
C958 C959 1.385 . S
C958 C960 1.478 . S
C959 H953 0.930 . S
C959 C955 1.400 . S
C959 C958 1.385 . S
C960 C958 1.478 . S
C960 C962 1.381 . S
C960 C966 1.383 . S
C961 C957 1.495 . S
C961 H967 0.959 . S
C961 H968 0.961 . S
C961 H969 0.960 . S
C962 C960 1.381 . S
C962 C963 1.394 . S
C962 H970 0.930 . S
C963 C962 1.394 . S
C963 C964 1.383 . S
C963 H971 0.929 . S
C964 C963 1.383 . S
C964 C965 1.377 . S
C965 H949 0.930 . S
C965 C964 1.377 . S
C965 C966 1.379 . S
C966 H950 0.931 . S
C966 C960 1.383 . S
C966 C965 1.379 . S
H967 C961 0.959 . S
H968 C961 0.961 . S
H969 C961 0.960 . S
H970 C962 0.930 . S
H971 C963 0.929 . S
H972 C980 0.929 . S
H973 C982 0.930 . S
H974 C984 0.930 . S
H975 C987 0.929 . S
H976 C990 0.930 . S
H977 C992 0.960 . S
H978 C992 0.960 . S
H979 C992 0.960 . S
C980 H972 0.929 . S
C980 C981 1.377 . S
C980 C982 1.384 . S
C981 C980 1.377 . S
C981 C987 1.390 . S
C982 H973 0.930 . S
C982 C980 1.384 . S
C982 C983 1.372 . S
C983 C982 1.372 . S
C983 C984 1.400 . S
C983 C988 1.490 . S
C984 H974 0.930 . S
C984 C983 1.400 . S
C984 C987 1.386 . S
H985 C1001 0.930 . S
H986 C1002 0.931 . S
C987 H975 0.929 . S
C987 C981 1.390 . S
C987 C984 1.386 . S
C988 C983 1.490 . S
C988 C990 1.395 . S
C988 C991 1.403 . S
H989 C995 0.930 . S
C990 H976 0.930 . S
C990 C988 1.395 . S
C990 C993 1.403 . S
C991 C988 1.403 . S
C991 C992 1.524 . S
C991 C995 1.400 . S
C992 H977 0.960 . S
C992 H978 0.960 . S
C992 H979 0.960 . S
C992 C991 1.524 . S
C993 C990 1.403 . S
C993 C994 1.392 . S
C993 C997 1.495 . S
C994 C993 1.392 . S
C994 C995 1.385 . S
C994 C996 1.478 . S
C995 H989 0.930 . S
C995 C991 1.400 . S
C995 C994 1.385 . S
C996 C994 1.478 . S
C996 C998 1.381 . S
C996 C1002 1.383 . S
C997 C993 1.495 . S
C997 H1003 0.959 . S
C997 H1004 0.961 . S
C997 H1005 0.960 . S
C998 C996 1.381 . S
C998 C999 1.394 . S
C998 H1006 0.930 . S
C999 C998 1.394 . S
C999 C1000 1.383 . S
C999 H1007 0.929 . S
C1000 C999 1.383 . S
C1000 C1001 1.377 . S
C1001 H985 0.930 . S
C1001 C1000 1.377 . S
C1001 C1002 1.379 . S
C1002 H986 0.931 . S
C1002 C996 1.383 . S
C1002 C1001 1.379 . S
H1003 C997 0.959 . S
H1004 C997 0.961 . S
H1005 C997 0.960 . S
H1006 C998 0.930 . S
H1007 C999 0.929 . S
H1008 C1016 0.929 . S
H1009 C1018 0.930 . S
H1010 C1020 0.930 . S
H1011 C1023 0.929 . S
H1012 C1026 0.930 . S
H1013 C1028 0.960 . S
H1014 C1028 0.960 . S
H1015 C1028 0.960 . S
C1016 H1008 0.929 . S
C1016 C1017 1.377 . S
C1016 C1018 1.384 . S
C1017 C1016 1.377 . S
C1017 C1023 1.390 . S
C1018 H1009 0.930 . S
C1018 C1016 1.384 . S
C1018 C1019 1.372 . S
C1019 C1018 1.372 . S
C1019 C1020 1.400 . S
C1019 C1024 1.490 . S
C1020 H1010 0.930 . S
C1020 C1019 1.400 . S
C1020 C1023 1.386 . S
H1021 C1037 0.930 . S
H1022 C1038 0.931 . S
C1023 H1011 0.929 . S
C1023 C1017 1.390 . S
C1023 C1020 1.386 . S
C1024 C1019 1.490 . S
C1024 C1026 1.395 . S
C1024 C1027 1.403 . S
H1025 C1031 0.930 . S
C1026 H1012 0.930 . S
C1026 C1024 1.395 . S
C1026 C1029 1.403 . S
C1027 C1024 1.403 . S
C1027 C1028 1.524 . S
C1027 C1031 1.400 . S
C1028 H1013 0.960 . S
C1028 H1014 0.960 . S
C1028 H1015 0.960 . S
C1028 C1027 1.524 . S
C1029 C1026 1.403 . S
C1029 C1030 1.392 . S
C1029 C1033 1.495 . S
C1030 C1029 1.392 . S
C1030 C1031 1.385 . S
C1030 C1032 1.478 . S
C1031 H1025 0.930 . S
C1031 C1027 1.400 . S
C1031 C1030 1.385 . S
C1032 C1030 1.478 . S
C1032 C1034 1.381 . S
C1032 C1038 1.383 . S
C1033 C1029 1.495 . S
C1033 H1039 0.959 . S
C1033 H1040 0.961 . S
C1033 H1041 0.960 . S
C1034 C1032 1.381 . S
C1034 C1035 1.394 . S
C1034 H1042 0.930 . S
C1035 C1034 1.394 . S
C1035 C1036 1.383 . S
C1035 H1043 0.929 . S
C1036 C1035 1.383 . S
C1036 C1037 1.377 . S
C1037 H1021 0.930 . S
C1037 C1036 1.377 . S
C1037 C1038 1.379 . S
C1038 H1022 0.931 . S
C1038 C1032 1.383 . S
C1038 C1037 1.379 . S
H1039 C1033 0.959 . S
H1040 C1033 0.961 . S
H1041 C1033 0.960 . S
H1042 C1034 0.930 . S
H1043 C1035 0.929 . S
H1044 C1052 0.929 . S
H1045 C1054 0.930 . S
H1046 C1056 0.930 . S
H1047 C1059 0.929 . S
H1048 C1062 0.930 . S
H1049 C1064 0.960 . S
H1050 C1064 0.960 . S
H1051 C1064 0.960 . S
C1052 H1044 0.929 . S
C1052 C1053 1.377 . S
C1052 C1054 1.384 . S
C1053 C1052 1.377 . S
C1053 C1059 1.390 . S
C1054 H1045 0.930 . S
C1054 C1052 1.384 . S
C1054 C1055 1.372 . S
C1055 C1054 1.372 . S
C1055 C1056 1.400 . S
C1055 C1060 1.490 . S
C1056 H1046 0.930 . S
C1056 C1055 1.400 . S
C1056 C1059 1.386 . S
H1057 C1073 0.930 . S
H1058 C1074 0.931 . S
C1059 H1047 0.929 . S
C1059 C1053 1.390 . S
C1059 C1056 1.386 . S
C1060 C1055 1.490 . S
C1060 C1062 1.395 . S
C1060 C1063 1.403 . S
H1061 C1067 0.930 . S
C1062 H1048 0.930 . S
C1062 C1060 1.395 . S
C1062 C1065 1.403 . S
C1063 C1060 1.403 . S
C1063 C1064 1.524 . S
C1063 C1067 1.400 . S
C1064 H1049 0.960 . S
C1064 H1050 0.960 . S
C1064 H1051 0.960 . S
C1064 C1063 1.524 . S
C1065 C1062 1.403 . S
C1065 C1066 1.392 . S
C1065 C1069 1.495 . S
C1066 C1065 1.392 . S
C1066 C1067 1.385 . S
C1066 C1068 1.478 . S
C1067 H1061 0.930 . S
C1067 C1063 1.400 . S
C1067 C1066 1.385 . S
C1068 C1066 1.478 . S
C1068 C1070 1.381 . S
C1068 C1074 1.383 . S
C1069 C1065 1.495 . S
C1069 H1075 0.959 . S
C1069 H1076 0.961 . S
C1069 H1077 0.960 . S
C1070 C1068 1.381 . S
C1070 C1071 1.394 . S
C1070 H1078 0.930 . S
C1071 C1070 1.394 . S
C1071 C1072 1.383 . S
C1071 H1079 0.929 . S
C1072 C1071 1.383 . S
C1072 C1073 1.377 . S
C1073 H1057 0.930 . S
C1073 C1072 1.377 . S
C1073 C1074 1.379 . S
C1074 H1058 0.931 . S
C1074 C1068 1.383 . S
C1074 C1073 1.379 . S
H1075 C1069 0.959 . S
H1076 C1069 0.961 . S
H1077 C1069 0.960 . S
H1078 C1070 0.930 . S
H1079 C1071 0.929 . S
H1080 C1088 0.929 . S
H1081 C1090 0.930 . S
H1082 C1092 0.930 . S
H1083 C1095 0.929 . S
H1084 C1098 0.930 . S
H1085 C1100 0.960 . S
H1086 C1100 0.960 . S
H1087 C1100 0.960 . S
C1088 H1080 0.929 . S
C1088 C1089 1.377 . S
C1088 C1090 1.384 . S
C1089 C1088 1.377 . S
C1089 C1095 1.390 . S
C1090 H1081 0.930 . S
C1090 C1088 1.384 . S
C1090 C1091 1.372 . S
C1091 C1090 1.372 . S
C1091 C1092 1.400 . S
C1091 C1096 1.490 . S
C1092 H1082 0.930 . S
C1092 C1091 1.400 . S
C1092 C1095 1.386 . S
H1093 C1109 0.930 . S
H1094 C1110 0.931 . S
C1095 H1083 0.929 . S
C1095 C1089 1.390 . S
C1095 C1092 1.386 . S
C1096 C1091 1.490 . S
C1096 C1098 1.395 . S
C1096 C1099 1.403 . S
H1097 C1103 0.930 . S
C1098 H1084 0.930 . S
C1098 C1096 1.395 . S
C1098 C1101 1.403 . S
C1099 C1096 1.403 . S
C1099 C1100 1.524 . S
C1099 C1103 1.400 . S
C1100 H1085 0.960 . S
C1100 H1086 0.960 . S
C1100 H1087 0.960 . S
C1100 C1099 1.524 . S
C1101 C1098 1.403 . S
C1101 C1102 1.392 . S
C1101 C1105 1.495 . S
C1102 C1101 1.392 . S
C1102 C1103 1.385 . S
C1102 C1104 1.478 . S
C1103 H1097 0.930 . S
C1103 C1099 1.400 . S
C1103 C1102 1.385 . S
C1104 C1102 1.478 . S
C1104 C1106 1.381 . S
C1104 C1110 1.383 . S
C1105 C1101 1.495 . S
C1105 H1111 0.959 . S
C1105 H1112 0.961 . S
C1105 H1113 0.960 . S
C1106 C1104 1.381 . S
C1106 C1107 1.394 . S
C1106 H1114 0.930 . S
C1107 C1106 1.394 . S
C1107 C1108 1.383 . S
C1107 H1115 0.929 . S
C1108 C1107 1.383 . S
C1108 C1109 1.377 . S
C1109 H1093 0.930 . S
C1109 C1108 1.377 . S
C1109 C1110 1.379 . S
C1110 H1094 0.931 . S
C1110 C1104 1.383 . S
C1110 C1109 1.379 . S
H1111 C1105 0.959 . S
H1112 C1105 0.961 . S
H1113 C1105 0.960 . S
H1114 C1106 0.930 . S
H1115 C1107 0.929 . S
H1116 C1124 0.929 . S
H1117 C1126 0.930 . S
H1118 C1128 0.930 . S
H1119 C1131 0.929 . S
H1120 C1134 0.930 . S
H1121 C1136 0.960 . S
H1122 C1136 0.960 . S
H1123 C1136 0.960 . S
C1124 H1116 0.929 . S
C1124 C1125 1.377 . S
C1124 C1126 1.384 . S
C1125 C1124 1.377 . S
C1125 C1131 1.390 . S
C1126 H1117 0.930 . S
C1126 C1124 1.384 . S
C1126 C1127 1.372 . S
C1127 C1126 1.372 . S
C1127 C1128 1.400 . S
C1127 C1132 1.490 . S
C1128 H1118 0.930 . S
C1128 C1127 1.400 . S
C1128 C1131 1.386 . S
H1129 C1145 0.930 . S
H1130 C1146 0.931 . S
C1131 H1119 0.929 . S
C1131 C1125 1.390 . S
C1131 C1128 1.386 . S
C1132 C1127 1.490 . S
C1132 C1134 1.395 . S
C1132 C1135 1.403 . S
H1133 C1139 0.930 . S
C1134 H1120 0.930 . S
C1134 C1132 1.395 . S
C1134 C1137 1.403 . S
C1135 C1132 1.403 . S
C1135 C1136 1.524 . S
C1135 C1139 1.400 . S
C1136 H1121 0.960 . S
C1136 H1122 0.960 . S
C1136 H1123 0.960 . S
C1136 C1135 1.524 . S
C1137 C1134 1.403 . S
C1137 C1138 1.392 . S
C1137 C1141 1.495 . S
C1138 C1137 1.392 . S
C1138 C1139 1.385 . S
C1138 C1140 1.478 . S
C1139 H1133 0.930 . S
C1139 C1135 1.400 . S
C1139 C1138 1.385 . S
C1140 C1138 1.478 . S
C1140 C1142 1.381 . S
C1140 C1146 1.383 . S
C1141 C1137 1.495 . S
C1141 H1147 0.959 . S
C1141 H1148 0.961 . S
C1141 H1149 0.960 . S
C1142 C1140 1.381 . S
C1142 C1143 1.394 . S
C1142 H1150 0.930 . S
C1143 C1142 1.394 . S
C1143 C1144 1.383 . S
C1143 H1151 0.929 . S
C1144 C1143 1.383 . S
C1144 C1145 1.377 . S
C1145 H1129 0.930 . S
C1145 C1144 1.377 . S
C1145 C1146 1.379 . S
C1146 H1130 0.931 . S
C1146 C1140 1.383 . S
C1146 C1145 1.379 . S
H1147 C1141 0.959 . S
H1148 C1141 0.961 . S
H1149 C1141 0.960 . S
H1150 C1142 0.930 . S
H1151 C1143 0.929 . S
C513 C488 1.286 . S
C532 C68 1.269 . S
C549 C67 1.256 . S
C568 C151 1.260 . S
C585 C152 1.285 . S
C604 C236 1.273 . S
C621 C235 1.244 . S
C640 C319 1.249 . S
C657 C404 1.283 . S
C676 C320 1.300 . S
C693 C487 1.246 . S
C712 C403 1.269 . S
C729 C58 1.125 . S
C748 C70 1.156 . S
C765 C154 1.122 . S
C784 C142 1.094 . S
C801 C226 1.124 . S
C820 C238 1.158 . S
C837 C322 1.108 . S
C856 C310 1.070 . S
C873 C406 1.126 . S
C892 C394 1.139 . S
C909 C490 1.124 . S
C928 C478 1.103 . S
C945 C56 1.580 . S
C964 C391 1.598 . S
C981 C139 1.596 . S
C1000 C476 1.566 . S
C1017 C55 1.598 . S
C1036 C224 1.586 . S
C1053 C140 1.584 . S
C1072 C307 1.592 . S
C1089 C392 1.583 . S
C1108 C223 1.589 . S
C1125 C308 1.584 . S
C1144 C475 1.592 . S
