# Generated by pormake.
# Topology wjv, (5)-cn, num edge types: 1
# Building blocks:
#     Node 0, Type 0, BuildingBlock: XOMCOT_clean_sbu_1, # of connection points: 5
#     Node 1, Type 0, BuildingBlock: XOMCOT_clean_sbu_1, # of connection points: 5
#     Node 2, Type 0, BuildingBlock: XOMCOT_clean_sbu_1, # of connection points: 5
#     Node 3, Type 0, BuildingBlock: XOMCOT_clean_sbu_1, # of connection points: 5
#     Node 4, Type 0, BuildingBlock: XOMCOT_clean_sbu_1, # of connection points: 5
#     Node 5, Type 0, BuildingBlock: XOMCOT_clean_sbu_1, # of connection points: 5
#     Node 6, Type 0, BuildingBlock: XOMCOT_clean_sbu_1, # of connection points: 5
#     Node 7, Type 0, BuildingBlock: XOMCOT_clean_sbu_1, # of connection points: 5
#     Node 8, Type 0, BuildingBlock: XOMCOT_clean_sbu_1, # of connection points: 5
#     Node 9, Type 0, BuildingBlock: XOMCOT_clean_sbu_1, # of connection points: 5
#     Node 10, Type 0, BuildingBlock: XOMCOT_clean_sbu_1, # of connection points: 5
#     Node 11, Type 0, BuildingBlock: XOMCOT_clean_sbu_1, # of connection points: 5
#     Edge 12, Type (0, 0), BuildingBlock: OJICUG_clean_linker_0, # of connection points: 2
#     Edge 13, Type (0, 0), BuildingBlock: OJICUG_clean_linker_0, # of connection points: 2
#     Edge 14, Type (0, 0), BuildingBlock: OJICUG_clean_linker_0, # of connection points: 2
#     Edge 15, Type (0, 0), BuildingBlock: OJICUG_clean_linker_0, # of connection points: 2
#     Edge 16, Type (0, 0), BuildingBlock: OJICUG_clean_linker_0, # of connection points: 2
#     Edge 17, Type (0, 0), BuildingBlock: OJICUG_clean_linker_0, # of connection points: 2
#     Edge 18, Type (0, 0), BuildingBlock: OJICUG_clean_linker_0, # of connection points: 2
#     Edge 19, Type (0, 0), BuildingBlock: OJICUG_clean_linker_0, # of connection points: 2
#     Edge 20, Type (0, 0), BuildingBlock: OJICUG_clean_linker_0, # of connection points: 2
#     Edge 21, Type (0, 0), BuildingBlock: OJICUG_clean_linker_0, # of connection points: 2
#     Edge 22, Type (0, 0), BuildingBlock: OJICUG_clean_linker_0, # of connection points: 2
#     Edge 23, Type (0, 0), BuildingBlock: OJICUG_clean_linker_0, # of connection points: 2
#     Edge 24, Type (0, 0), BuildingBlock: OJICUG_clean_linker_0, # of connection points: 2
#     Edge 25, Type (0, 0), BuildingBlock: OJICUG_clean_linker_0, # of connection points: 2
#     Edge 26, Type (0, 0), BuildingBlock: OJICUG_clean_linker_0, # of connection points: 2
#     Edge 27, Type (0, 0), BuildingBlock: OJICUG_clean_linker_0, # of connection points: 2
#     Edge 28, Type (0, 0), BuildingBlock: OJICUG_clean_linker_0, # of connection points: 2
#     Edge 29, Type (0, 0), BuildingBlock: OJICUG_clean_linker_0, # of connection points: 2
#     Edge 30, Type (0, 0), BuildingBlock: OJICUG_clean_linker_0, # of connection points: 2
#     Edge 31, Type (0, 0), BuildingBlock: OJICUG_clean_linker_0, # of connection points: 2
#     Edge 32, Type (0, 0), BuildingBlock: OJICUG_clean_linker_0, # of connection points: 2
#     Edge 33, Type (0, 0), BuildingBlock: OJICUG_clean_linker_0, # of connection points: 2
#     Edge 34, Type (0, 0), BuildingBlock: OJICUG_clean_linker_0, # of connection points: 2
#     Edge 35, Type (0, 0), BuildingBlock: OJICUG_clean_linker_0, # of connection points: 2
#     Edge 36, Type (0, 0), BuildingBlock: OJICUG_clean_linker_0, # of connection points: 2
#     Edge 37, Type (0, 0), BuildingBlock: OJICUG_clean_linker_0, # of connection points: 2
#     Edge 38, Type (0, 0), BuildingBlock: OJICUG_clean_linker_0, # of connection points: 2
#     Edge 39, Type (0, 0), BuildingBlock: OJICUG_clean_linker_0, # of connection points: 2
#     Edge 40, Type (0, 0), BuildingBlock: OJICUG_clean_linker_0, # of connection points: 2
#     Edge 41, Type (0, 0), BuildingBlock: OJICUG_clean_linker_0, # of connection points: 2
# Relax obj value: 0.266
# Max RMSD: 0.167
# Mean RMSD: 0.167
data_MOF--net-wjv--node1-XOMCOT_clean_sbu_1--edge1-OJICUG_clean_linker_0
_symmetry_space_group_name_H-M    P1
_symmetry_Int_Tables_number       1
_symmetry_cell_setting            triclinic
loop_
_symmetry_equiv_pos_as_xyz
'x, y, z'
_cell_length_a     25.939466
_cell_length_b     25.919033
_cell_length_c     37.657337
_cell_angle_alpha  90.21061
_cell_angle_beta   89.799308
_cell_angle_gamma 120.21155
loop_
_atom_site_label
_atom_site_type_symbol
_atom_site_fract_x
_atom_site_fract_y
_atom_site_fract_z
_atom_type_partial_charge
C0 C 0.21711 0.39479 0.29329 0.0
C1 C 0.23134 0.38125 0.32577 0.0
N2 N 0.2768 0.37088 0.32118 0.0
N3 N 0.25131 0.39049 0.26761 0.0
C4 C 0.28938 0.37907 0.28607 0.0
H5 H 0.18392 0.40761 0.28884 0.0
Co6 Co 0.24998 0.4109 0.21906 0.0
C7 C 0.36869 0.4429 0.18991 0.0
O8 O 0.34027 0.41505 0.16088 0.0
N9 N 0.2502 0.43816 0.1731 0.0
C10 C 0.26774 0.51335 0.13746 0.0
C11 C 0.27011 0.49709 0.17165 0.0
C12 C 0.23561 0.41919 0.13897 0.0
N13 N 0.24567 0.46437 0.11671 0.0
O14 O 0.16107 0.37812 0.22087 0.0
H15 H 0.28582 0.52659 0.19442 0.0
H16 H 0.21868 0.37375 0.13032 0.0
O17 O 0.33864 0.44548 0.21636 0.0
C18 C 0.11903 0.3293 0.2342 0.0
O19 O 0.13302 0.29557 0.25311 0.0
N20 N 0.23586 0.33389 0.20268 0.0
C21 C 0.19613 0.21239 0.20211 0.0
C22 C 0.2528 0.25295 0.21482 0.0
C23 C 0.27229 0.31343 0.21409 0.0
C24 C 0.1851 0.29541 0.18436 0.0
C25 C 0.16373 0.2339 0.18427 0.0
H26 H 0.31588 0.34273 0.22438 0.0
H27 H 0.15734 0.31078 0.17264 0.0
H28 H 0.32842 0.3808 0.27486 0.0
H29 H 0.20962 0.37921 0.35073 0.0
H30 H 0.28237 0.55833 0.12863 0.0
H31 H 0.28112 0.23789 0.22642 0.0
H32 H 0.12086 0.20357 0.17246 0.0
C33 C 0.85423 0.22726 0.62655 0.0
C34 C 0.88368 0.24352 0.65851 0.0
N35 N 0.9388 0.29014 0.65298 0.0
N36 N 0.89088 0.26139 0.60016 0.0
C37 C 0.94117 0.3013 0.61774 0.0
H38 H 0.80816 0.19289 0.623 0.0
Co39 Co 0.864 0.25649 0.55228 0.0
C40 C 0.94802 0.37565 0.52151 0.0
O41 O 0.94791 0.34753 0.49246 0.0
N42 N 0.83149 0.25211 0.50721 0.0
C43 C 0.75913 0.2489 0.4742 0.0
C44 C 0.78061 0.254 0.50794 0.0
C45 C 0.83994 0.24524 0.47222 0.0
N46 N 0.79654 0.24375 0.45151 0.0
O47 O 0.81026 0.16744 0.55595 0.0
H48 H 0.76016 0.25846 0.53196 0.0
H49 H 0.87769 0.24298 0.46188 0.0
O50 O 0.91606 0.34526 0.54803 0.0
C51 C 0.82077 0.1275 0.56834 0.0
O52 O 0.87113 0.14447 0.58522 0.0
N53 N 0.92603 0.24387 0.53355 0.0
C54 C 1.00762 0.20506 0.52848 0.0
C55 C 0.02476 0.26125 0.54247 0.0
C56 C 0.98367 0.28035 0.54401 0.0
C57 C 0.9124 0.19385 0.51395 0.0
C58 C 0.95249 0.17281 0.51165 0.0
H59 H 0.99838 0.32358 0.55509 0.0
H60 H 0.86831 0.16641 0.50299 0.0
H61 H 0.97748 0.3406 0.60587 0.0
H62 H 0.86554 0.22245 0.68383 0.0
H63 H 0.71858 0.24854 0.46704 0.0
H64 H 0.06891 0.28919 0.55351 0.0
H65 H 0.93913 0.13027 0.49906 0.0
C66 C 0.70967 0.89939 0.94325 0.0
C67 C 0.72425 0.92917 0.97515 0.0
N68 N 0.68909 0.95291 0.98006 0.0
N69 N 0.66494 0.90364 0.92783 0.0
C70 C 0.65323 0.93647 0.95119 0.0
H71 H 0.73257 0.87832 0.9316 0.0
Co72 Co 0.63298 0.87472 0.88193 0.0
C73 C 0.59325 0.9562 0.85504 0.0
O74 O 0.62017 0.95667 0.82536 0.0
N75 N 0.59854 0.84215 0.83786 0.0
C76 C 0.52376 0.77477 0.8051 0.0
C77 C 0.54201 0.79635 0.83875 0.0
C78 C 0.61392 0.84783 0.80297 0.0
N79 N 0.56887 0.80723 0.78238 0.0
O80 O 0.66975 0.82476 0.88144 0.0
H81 H 0.516 0.77902 0.86279 0.0
H82 H 0.65641 0.88176 0.79258 0.0
O83 O 0.59417 0.92517 0.88132 0.0
C84 C 0.65143 0.76894 0.88122 0.0
O85 O 0.59412 0.7305 0.8843 0.0
N86 N 0.70468 0.93773 0.86204 0.0
C87 C 0.82501 0.02234 0.85799 0.0
C88 C 0.78517 0.03637 0.87418 0.0
C89 C 0.72519 0.99367 0.87575 0.0
C90 C 0.74227 0.92612 0.84239 0.0
C91 C 0.80308 0.96809 0.84006 0.0
H92 H 0.69679 1.00418 0.89137 0.0
H93 H 0.72675 0.88264 0.83078 0.0
H94 H 0.62032 0.94968 0.94671 0.0
H95 H 0.76009 0.93542 0.99256 0.0
H96 H 0.48072 0.73714 0.79818 0.0
H97 H 0.80082 0.07891 0.88739 0.0
H98 H 0.83298 0.95673 0.82655 0.0
C99 C 0.72423 0.56904 0.2895 0.0
C100 C 0.71874 0.58877 0.32244 0.0
N101 N 0.73387 0.64646 0.3197 0.0
N102 N 0.74242 0.61374 0.26584 0.0
C103 C 0.7495 0.66102 0.28531 0.0
H104 H 0.71313 0.524 0.28275 0.0
Co105 Co 0.7481 0.59827 0.21771 0.0
C106 C 0.62525 0.5398 0.18929 0.0
O107 O 0.64936 0.56943 0.15992 0.0
N108 N 0.7553 0.57743 0.17114 0.0
C109 C 0.75758 0.51065 0.13513 0.0
C110 C 0.75057 0.52337 0.1694 0.0
C111 C 0.76585 0.59738 0.13704 0.0
N112 N 0.76662 0.55678 0.11449 0.0
O113 O 0.83438 0.64949 0.21941 0.0
H114 H 0.74266 0.49492 0.19213 0.0
H115 H 0.7708 0.63944 0.12859 0.0
O116 O 0.65908 0.54501 0.21555 0.0
C117 C 0.87407 0.63416 0.21993 0.0
O118 O 0.85752 0.57754 0.22369 0.0
N119 N 0.74042 0.66504 0.20404 0.0
C120 C 0.73854 0.77185 0.19949 0.0
C121 C 0.69238 0.72174 0.21636 0.0
C122 C 0.69368 0.66902 0.21787 0.0
C123 C 0.78419 0.71227 0.18566 0.0
C124 C 0.78391 0.76597 0.18288 0.0
H125 H 0.65987 0.63356 0.23382 0.0
H126 H 0.82106 0.70975 0.17422 0.0
H127 H 0.76377 0.70479 0.27448 0.0
H128 H 0.70109 0.56164 0.34606 0.0
H129 H 0.75647 0.47037 0.12621 0.0
H130 H 0.65713 0.72376 0.2306 0.0
H131 H 0.81984 0.80287 0.16871 0.0
C132 C 0.18887 0.72657 0.62209 0.0
C133 C 0.16417 0.71652 0.65551 0.0
N134 N 0.12151 0.73163 0.65566 0.0
N135 N 0.16213 0.7477 0.60079 0.0
C136 C 0.12214 0.7516 0.62238 0.0
H137 H 0.22225 0.71607 0.61323 0.0
Co138 Co 0.18042 0.75523 0.55166 0.0
C139 C 0.10837 0.63295 0.52184 0.0
O140 O 0.10157 0.65843 0.49362 0.0
N141 N 0.20546 0.76337 0.50438 0.0
C142 C 0.27477 0.77164 0.46632 0.0
C143 C 0.25748 0.76412 0.50112 0.0
C144 C 0.19207 0.77144 0.47069 0.0
N145 N 0.23348 0.77573 0.44692 0.0
O146 O 0.22324 0.84371 0.55426 0.0
H147 H 0.28157 0.75965 0.52316 0.0
H148 H 0.1521 0.77202 0.46342 0.0
O149 O 0.14005 0.66573 0.54784 0.0
C150 C 0.21254 0.88278 0.56767 0.0
O151 O 0.1644 0.86546 0.58694 0.0
N152 N 0.10657 0.7514 0.54028 0.0
C153 C 0.99819 0.7503 0.5373 0.0
C154 C 1.00234 0.70468 0.55433 0.0
C155 C 0.05595 0.70535 0.55483 0.0
C156 C 0.10289 0.79459 0.52161 0.0
C157 C 0.04907 0.79492 0.51981 0.0
H158 H 0.0574 0.67118 0.57032 0.0
H159 H 0.1421 0.8306 0.50924 0.0
H160 H 0.09208 0.76635 0.61366 0.0
H161 H 0.17444 0.69604 0.67727 0.0
H162 H 0.31511 0.77429 0.45616 0.0
H163 H 0.96548 0.66997 0.56919 0.0
H164 H 0.04785 0.83043 0.50551 0.0
C165 C 0.47163 0.18077 0.95635 0.0
C166 C 0.45385 0.15496 0.98926 0.0
N167 N 0.39462 0.11661 0.9884 0.0
N168 N 0.42419 0.15887 0.93451 0.0
C169 C 0.37742 0.121 0.95516 0.0
H170 H 0.51703 0.21139 0.94817 0.0
Co171 Co 0.43643 0.1789 0.88616 0.0
C172 C 0.48462 0.10577 0.85574 0.0
O173 O 0.45206 0.09901 0.8276 0.0
N174 N 0.45442 0.2049 0.83917 0.0
C175 C 0.51918 0.27104 0.8011 0.0
C176 C 0.50861 0.25391 0.83583 0.0
C177 C 0.43227 0.19291 0.80557 0.0
N178 N 0.4716 0.23243 0.78176 0.0
O179 O 0.39079 0.22032 0.89017 0.0
H180 H 0.53881 0.27582 0.85774 0.0
H181 H 0.38966 0.15492 0.7984 0.0
O182 O 0.484 0.13752 0.88181 0.0
C183 C 0.40882 0.27618 0.88921 0.0
O184 O 0.46633 0.31466 0.89046 0.0
N185 N 0.36468 0.10679 0.87403 0.0
C186 C 0.25003 1.00742 0.87699 0.0
C187 C 0.29927 1.00358 0.88842 0.0
C188 C 0.35601 0.05363 0.88684 0.0
C189 C 0.31815 0.10885 0.85853 0.0
C190 C 0.26023 0.05985 0.86013 0.0
H191 H 0.39151 0.05082 0.89985 0.0
H192 H 0.32468 0.14957 0.84674 0.0
H193 H 0.33197 0.09525 0.94578 0.0
H194 H 0.48296 0.16093 1.01135 0.0
H195 H 0.55922 0.30923 0.79091 0.0
H196 H 0.29377 0.96323 0.90047 0.0
H197 H 0.22361 0.06436 0.85013 0.0
C198 C 0.57342 0.73952 0.45554 0.0
C199 C 0.59168 0.73249 0.42242 0.0
N200 N 0.64677 0.74013 0.42538 0.0
N201 N 0.6164 0.75137 0.47957 0.0
C202 C 0.66116 0.75262 0.46003 0.0
H203 H 0.53021 0.73378 0.4621 0.0
Co204 Co 0.59994 0.75603 0.52814 0.0
C205 C 0.54488 0.63255 0.55647 0.0
O206 O 0.57348 0.6573 0.58601 0.0
N207 N 0.57787 0.76181 0.57459 0.0
C208 C 0.51271 0.76615 0.61103 0.0
C209 C 0.5246 0.7587 0.5766 0.0
C210 C 0.59818 0.77192 0.60859 0.0
N211 N 0.55872 0.77407 0.63141 0.0
O212 O 0.64613 0.84455 0.52719 0.0
H213 H 0.49637 0.75209 0.55395 0.0
H214 H 0.63993 0.77597 0.61676 0.0
O215 O 0.54976 0.66608 0.53006 0.0
C216 C 0.69652 0.88369 0.51435 0.0
O217 O 0.72768 0.86642 0.49539 0.0
N218 N 0.6687 0.75172 0.54249 0.0
C219 C 0.77526 0.75011 0.54975 0.0
C220 C 0.72618 0.7039 0.53228 0.0
C221 C 0.67364 0.70503 0.52948 0.0
C222 C 0.71472 0.79536 0.56177 0.0
C223 C 0.76854 0.79552 0.56562 0.0
H224 H 0.6393 0.67094 0.5131 0.0
H225 H 0.71128 0.83188 0.57304 0.0
H226 H 0.70343 0.76145 0.47071 0.0
H227 H 0.56499 0.71905 0.39849 0.0
H228 H 0.47337 0.76668 0.62013 0.0
H229 H 0.72893 0.66861 0.51853 0.0
H230 H 0.80481 0.83158 0.58013 0.0
C231 C 0.85408 0.61189 0.78995 0.0
C232 C 0.88287 0.62964 0.75779 0.0
N233 N 0.94208 0.66012 0.76371 0.0
N234 N 0.89433 0.63131 0.81651 0.0
C235 C 0.94776 0.66028 0.79946 0.0
H236 H 0.80637 0.58498 0.79382 0.0
Co237 Co 0.86644 0.60716 0.86344 0.0
C238 C 0.93639 0.55434 0.89345 0.0
O239 O 0.93 0.57216 0.92496 0.0
N240 N 0.83281 0.57857 0.90799 0.0
C241 C 0.76088 0.51032 0.94183 0.0
C242 C 0.78371 0.5241 0.90815 0.0
C243 C 0.83883 0.59766 0.9422 0.0
N244 N 0.7957 0.55629 0.96354 0.0
O245 O 0.8149 0.64293 0.86007 0.0
H246 H 0.76505 0.49655 0.88477 0.0
H247 H 0.87461 0.64014 0.95148 0.0
O248 O 0.91394 0.56563 0.86629 0.0
C249 C 0.81976 0.68987 0.84575 0.0
O250 O 0.86831 0.72584 0.82783 0.0
N251 N 0.93144 0.67992 0.88327 0.0
C252 C 0.02694 0.79392 0.89685 0.0
C253 C 0.0371 0.74858 0.88575 0.0
C254 C 0.98899 0.69205 0.87926 0.0
C255 C 0.92176 0.72218 0.89897 0.0
C256 C 0.9689 0.7803 0.9049 0.0
H257 H 0.99942 0.66025 0.86805 0.0
H258 H 0.87734 0.71228 0.90592 0.0
H259 H 0.99035 0.68024 0.81237 0.0
H260 H 0.8616 0.61861 0.73203 0.0
H261 H 0.72086 0.46963 0.94941 0.0
H262 H 0.08185 0.75777 0.87975 0.0
H263 H 0.95994 0.81442 0.9146 0.0
C264 C 0.21548 0.84911 0.12058 0.0
C265 C 0.22824 0.87887 0.0888 0.0
N266 N 0.27496 0.93432 0.09351 0.0
N267 N 0.25179 0.88575 0.14628 0.0
C268 C 0.2897 0.93623 0.12821 0.0
H269 H 0.18214 0.80272 0.12433 0.0
Co270 Co 0.25093 0.8606 0.1942 0.0
C271 C 0.3692 0.94958 0.22392 0.0
O272 O 0.34066 0.94884 0.25291 0.0
N273 N 0.2503 0.83014 0.23933 0.0
C274 C 0.25252 0.76114 0.273 0.0
C275 C 0.25618 0.78147 0.23907 0.0
C276 C 0.24261 0.8385 0.2742 0.0
N277 N 0.24432 0.79714 0.29532 0.0
O278 O 0.16327 0.80224 0.19165 0.0
H279 H 0.2621 0.76154 0.21526 0.0
H280 H 0.23731 0.87473 0.28414 0.0
O281 O 0.33935 0.91676 0.19749 0.0
C282 C 0.11901 0.80698 0.18067 0.0
O283 O 0.12914 0.85653 0.16505 0.0
N284 N 0.23435 0.92015 0.21283 0.0
C285 C 0.19277 0.99951 0.22003 0.0
C286 C 0.24838 0.01799 0.20485 0.0
C287 C 0.26877 0.97804 0.2021 0.0
C288 C 0.18437 0.90477 0.23288 0.0
C289 C 0.16199 0.9437 0.23629 0.0
H290 H 0.31152 0.994 0.19007 0.0
H291 H 0.15844 0.86045 0.24385 0.0
H292 H 0.3298 0.97235 0.13947 0.0
H293 H 0.205 0.86016 0.06413 0.0
H294 H 0.25495 0.72216 0.28049 0.0
H295 H 0.27502 0.06251 0.19397 0.0
H296 H 0.11987 0.92923 0.24965 0.0
C297 C 0.39755 0.22382 0.45415 0.0
C298 C 0.38294 0.23726 0.4218 0.0
N299 N 0.37201 0.28236 0.42641 0.0
N300 N 0.39352 0.2582 0.47983 0.0
C301 C 0.38098 0.29559 0.46144 0.0
H302 H 0.41067 0.19083 0.45855 0.0
Co303 Co 0.41434 0.25536 0.52811 0.0
C304 C 0.44887 0.37541 0.55757 0.0
O305 O 0.42053 0.34775 0.58661 0.0
N306 N 0.44106 0.25256 0.57374 0.0
C307 C 0.50838 0.24894 0.60819 0.0
C308 C 0.49377 0.25436 0.5741 0.0
C309 C 0.42399 0.24553 0.6084 0.0
N310 N 0.46478 0.2438 0.63002 0.0
O311 O 0.37969 0.1664 0.52538 0.0
H312 H 0.51963 0.25852 0.55058 0.0
H313 H 0.38332 0.24294 0.61779 0.0
O314 O 0.45087 0.34448 0.53143 0.0
C315 C 0.32992 0.12533 0.51254 0.0
O316 O 0.29631 0.14067 0.49461 0.0
N317 N 0.33871 0.24258 0.54545 0.0
C318 C 0.21792 0.20402 0.54845 0.0
C319 C 0.258 0.26025 0.53495 0.0
C320 C 0.31829 0.27923 0.53449 0.0
C321 C 0.30114 0.19254 0.56464 0.0
C322 C 0.23983 0.17162 0.56589 0.0
H323 H 0.3475 0.32259 0.52384 0.0
H324 H 0.31715 0.16519 0.57628 0.0
H325 H 0.38212 0.33443 0.47259 0.0
H326 H 0.38031 0.21505 0.39693 0.0
H327 H 0.54797 0.24801 0.61607 0.0
H328 H 0.24259 0.28847 0.52359 0.0
H329 H 0.20985 0.12917 0.57828 0.0
C330 C 0.20801 0.41727 0.78607 0.0
C331 C 0.1804 0.40267 0.75344 0.0
N332 N 0.12467 0.39299 0.75744 0.0
N333 N 0.1695 0.41455 0.81129 0.0
C334 C 0.12032 0.40301 0.79231 0.0
H335 H 0.25377 0.42929 0.79089 0.0
Co336 Co 0.18846 0.43245 0.86062 0.0
C337 C 0.0986 0.46035 0.88962 0.0
O338 O 0.09657 0.4292 0.91753 0.0
N339 N 0.21199 0.45602 0.90772 0.0
C340 C 0.26308 0.52607 0.94816 0.0
C341 C 0.251 0.51456 0.91267 0.0
C342 C 0.20165 0.43236 0.94091 0.0
N343 N 0.232 0.47437 0.96591 0.0
O344 O 0.24696 0.40323 0.85885 0.0
H345 H 0.26882 0.54712 0.89152 0.0
H346 H 0.17013 0.38642 0.94727 0.0
O347 O 0.13283 0.46523 0.86352 0.0
C348 C 0.24469 0.35622 0.84586 0.0
O349 O 0.19815 0.31884 0.82691 0.0
N350 N 0.12564 0.35356 0.87432 0.0
C351 C 0.04194 0.23228 0.87482 0.0
C352 C 0.02703 0.2732 0.86172 0.0
C353 C 0.06891 0.33344 0.86242 0.0
C354 C 0.13752 0.31443 0.89196 0.0
C355 C 0.09635 0.25312 0.89213 0.0
H356 H 0.05505 0.36295 0.85225 0.0
H357 H 0.18045 0.32947 0.90404 0.0
H358 H 0.08286 0.40499 0.80306 0.0
H359 H 0.19987 0.39873 0.72885 0.0
H360 H 0.29222 0.56923 0.96009 0.0
H361 H 0.98351 0.25856 0.85026 0.0
H362 H 0.10798 0.2224 0.9041 0.0
C363 C 0.71703 0.1856 0.12508 0.0
C364 C 0.70624 0.15979 0.09195 0.0
N365 N 0.72301 0.11827 0.09179 0.0
N366 N 0.74031 0.16081 0.14628 0.0
C367 C 0.74459 0.12078 0.12491 0.0
H368 H 0.70574 0.2185 0.13384 0.0
Co369 Co 0.74886 0.17996 0.19533 0.0
C370 C 0.62648 0.10924 0.22536 0.0
O371 O 0.65139 0.10286 0.25398 0.0
N372 N 0.75772 0.20546 0.24263 0.0
C373 C 0.76718 0.27492 0.28104 0.0
C374 C 0.75879 0.25765 0.2462 0.0
C375 C 0.7664 0.19194 0.27616 0.0
N376 N 0.77156 0.23348 0.30013 0.0
O377 O 0.83741 0.22251 0.1924 0.0
H378 H 0.75401 0.28191 0.22436 0.0
H379 H 0.76687 0.15181 0.28324 0.0
O380 O 0.65965 0.14023 0.19934 0.0
C381 C 0.87652 0.21194 0.17894 0.0
O382 O 0.85923 0.16367 0.15975 0.0
N383 N 0.74464 0.10592 0.20691 0.0
C384 C 0.74176 0.99669 0.21156 0.0
C385 C 0.69639 1.00093 0.19432 0.0
C386 C 0.69807 0.05507 0.19288 0.0
C387 C 0.78792 0.1023 0.22548 0.0
C388 C 0.78733 0.04807 0.22814 0.0
H389 H 0.66396 0.05652 0.17734 0.0
H390 H 0.8245 0.14172 0.23729 0.0
H391 H 0.76068 0.09199 0.13392 0.0
H392 H 0.6849 0.16925 0.07036 0.0
H393 H 0.77025 0.31534 0.29146 0.0
H394 H 0.66103 0.96356 0.18011 0.0
H395 H 0.82282 0.04686 0.24245 0.0
C396 C 0.3218 0.33897 0.40988 0.0
C397 C 0.35211 0.30885 0.39989 0.0
H398 H 0.27523 0.38311 0.39308 0.0
C399 C 0.35974 0.3024 0.36344 0.0
H400 H 0.31437 0.34441 0.43758 0.0
C401 C 0.33627 0.32379 0.33779 0.0
C402 C 0.30469 0.35263 0.34776 0.0
H403 H 0.38333 0.28019 0.35456 0.0
H404 H 0.34157 0.31608 0.31011 0.0
C405 C 0.29855 0.36063 0.38421 0.0
C406 C 0.97207 0.31663 0.71557 0.0
C407 C 0.98565 0.32047 0.6791 0.0
H408 H 1.00482 0.33584 0.76877 0.0
C409 C 0.04608 0.35189 0.66885 0.0
H410 H 0.92626 0.29361 0.72463 0.0
C411 C 0.09153 0.37712 0.69436 0.0
C412 C 0.07792 0.37165 0.73088 0.0
H413 H 0.0585 0.35552 0.64112 0.0
H414 H 0.13738 0.40028 0.68535 0.0
C415 C 0.01744 0.34172 0.74103 0.0
C416 C 0.71146 0.98557 0.04262 0.0
C417 C 0.69442 0.99284 1.00849 0.0
H418 H 0.73287 0.01803 0.09566 0.0
C419 C 0.68645 0.04169 1.00215 0.0
H420 H 0.71748 0.94803 0.04836 0.0
C421 C 0.6964 0.08299 1.0292 0.0
C422 C 0.71382 0.0761 0.06354 0.0
H423 H 0.67428 0.04902 0.97596 0.0
H424 H 0.69106 0.12063 1.0228 0.0
C425 C 0.72068 0.02629 0.0698 0.0
C426 C 0.69459 0.71256 0.33645 0.0
C427 C 0.72181 0.6795 0.34609 0.0
H428 H 0.64906 0.7578 0.35441 0.0
C429 C 0.72977 0.6727 0.38231 0.0
H430 H 0.6873 0.71799 0.30875 0.0
C431 C 0.70836 0.69582 0.40838 0.0
C432 C 0.67758 0.72544 0.39878 0.0
H433 H 0.75064 0.64748 0.39041 0.0
H434 H 0.71278 0.68736 0.43601 0.0
C435 C 0.67225 0.73485 0.36254 0.0
C436 C 0.0902 0.71096 0.71885 0.0
C437 C 0.07818 0.71927 0.68356 0.0
H438 H 0.05701 0.68512 0.77164 0.0
C439 C 0.02157 0.71126 0.67574 0.0
H440 H 0.13339 0.71746 0.72611 0.0
C441 C 0.97776 0.69354 0.70214 0.0
C442 C 0.98902 0.68295 0.73714 0.0
H443 H 1.01006 0.71666 0.64898 0.0
H444 H 0.93474 0.68747 0.69489 0.0
C445 C 0.04629 0.69293 0.74521 0.0
C446 C 0.31589 0.01464 1.00526 0.0
C447 C 0.36068 0.0723 1.01507 0.0
H448 H 0.25478 0.92575 1.02169 0.0
C449 C 0.3755 0.08438 0.05119 0.0
H450 H 0.30405 1.00355 0.97762 0.0
C451 C 0.34713 0.03966 0.07681 0.0
C452 C 0.3035 0.98115 0.06703 0.0
H453 H 0.4095 0.12854 0.05961 0.0
H454 H 0.35986 0.0514 0.10424 0.0
C455 C 0.28787 0.96968 1.03079 0.0
C456 C 0.23072 0.41954 1.02007 0.0
C457 C 0.22937 0.46764 1.00391 0.0
H458 H 0.23817 0.3811 0.06882 0.0
C459 C 0.22871 0.5115 1.02544 0.0
H460 H 0.23131 0.38519 1.00391 0.0
C461 C 0.23162 0.50884 0.06227 0.0
C462 C 0.23641 0.46276 0.07873 0.0
H463 H 0.22637 0.54831 1.01366 0.0
H464 H 0.23075 0.54361 0.07775 0.0
C465 C 0.23457 0.41726 0.0572 0.0
C466 C 0.80718 0.20802 0.35521 0.0
C467 C 0.77727 0.23385 0.33833 0.0
H468 H 0.83742 0.19134 0.40476 0.0
C469 C 0.75423 0.26244 0.35939 0.0
H470 H 0.82573 0.18598 0.3397 0.0
C471 C 0.76133 0.26599 0.39609 0.0
C472 C 0.79132 0.24066 0.41323 0.0
H473 H 0.7302 0.28208 0.34752 0.0
H474 H 0.74364 0.28939 0.41102 0.0
C475 C 0.81444 0.21169 0.39237 0.0
C476 C 0.62032 0.82009 0.72421 0.0
C477 C 0.56757 0.79958 0.74423 0.0
H478 H 0.65909 0.8281 0.67252 0.0
C479 C 0.51264 0.77016 0.72635 0.0
H480 H 0.66344 0.84245 0.73706 0.0
C481 C 0.51018 0.76109 0.68979 0.0
C482 C 0.56257 0.78183 0.66957 0.0
H483 H 0.47102 0.75436 0.74047 0.0
H484 H 0.4667 0.73732 0.67748 0.0
C485 C 0.61783 0.81123 0.68724 0.0
C486 C 0.7546 0.5046 1.02044 0.0
C487 C 0.78829 0.55812 1.00159 0.0
H488 H 0.71957 0.46243 0.07004 0.0
C489 C 0.81374 0.61239 1.02065 0.0
H490 H 0.7349 0.46176 1.00723 0.0
C491 C 0.80578 0.61261 0.05767 0.0
C492 C 0.77251 0.55859 0.07625 0.0
H493 H 0.83953 0.65455 1.00704 0.0
H494 H 0.82658 0.65476 0.07178 0.0
C495 C 0.74648 0.50488 0.05694 0.0
C496 C 0.20708 0.80879 0.39116 0.0
C497 C 0.23383 0.78031 0.40865 0.0
H498 H 0.18963 0.83692 0.34114 0.0
C499 C 0.26323 0.75752 0.38811 0.0
H500 H 0.18433 0.82707 0.40623 0.0
C501 C 0.26691 0.76375 0.35137 0.0
C502 C 0.24074 0.79241 0.33363 0.0
H503 H 0.28349 0.73442 0.40042 0.0
H504 H 0.29113 0.74647 0.33693 0.0
C505 C 0.21072 0.81502 0.35396 0.0
C506 C 0.5206 0.2578 0.72321 0.0
C507 C 0.46792 0.23267 0.74346 0.0
H508 H 0.56117 0.28288 0.67237 0.0
C509 C 0.4131 0.21025 0.72564 0.0
H510 H 0.56361 0.27452 0.73573 0.0
C511 C 0.41154 0.21406 0.68838 0.0
C512 C 0.46478 0.23997 0.66836 0.0
H513 H 0.37174 0.19082 0.74049 0.0
H514 H 0.36884 0.19636 0.6753 0.0
C515 C 0.51911 0.26179 0.68647 0.0
C516 C 0.52912 0.50674 0.22379 0.0
C517 C 0.55904 0.50849 0.1921 0.0
H518 H 0.44528 0.48555 0.24819 0.0
C519 C 0.52556 0.48699 0.1608 0.0
H520 H 0.55388 0.52383 0.24826 0.0
C521 C 0.46438 0.4658 0.16067 0.0
C522 C 0.4342 0.4656 0.19183 0.0
H523 H 0.54706 0.48775 0.13592 0.0
H524 H 0.44094 0.45049 0.13565 0.0
C525 C 0.46716 0.48565 0.22363 0.0
C526 C 0.01574 0.47267 0.49177 0.0
C527 C 0.98986 0.44152 0.5234 0.0
H528 H 0.07363 0.55615 0.46685 0.0
C529 C 1.00662 0.47369 0.55565 0.0
H530 H 1.00441 0.44979 0.46639 0.0
C531 C 0.04773 0.53576 0.5559 0.0
C532 C 0.07219 0.56662 0.52388 0.0
H533 H 0.98807 0.45102 0.58055 0.0
H534 H 0.05875 0.55982 0.58088 0.0
C535 C 0.05589 0.53397 0.49201 0.0
C536 C 0.52922 0.05196 0.82539 0.0
C537 C 0.51594 0.07081 0.85739 0.0
H538 H 0.56282 1.00149 0.79978 0.0
C539 C 0.52824 0.05146 0.88957 0.0
H540 H 0.52038 0.06575 0.8001 0.0
C541 C 0.5524 0.01321 0.88942 0.0
C542 C 0.5653 0.99439 0.85709 0.0
H543 H 0.51787 0.06463 0.91471 0.0
H544 H 0.56135 0.99883 0.91445 0.0
C545 C 0.55361 0.01476 0.82524 0.0
C546 C 0.47283 0.47202 0.58613 0.0
C547 C 0.47218 0.44115 0.55517 0.0
H548 H 0.49449 0.55506 0.61031 0.0
C549 C 0.49179 0.47357 0.52314 0.0
H550 H 0.45791 0.4491 0.61132 0.0
C551 C 0.51265 0.53561 0.52255 0.0
C552 C 0.51455 0.56616 0.55402 0.0
H553 H 0.49134 0.45118 0.49871 0.0
H554 H 0.52922 0.5599 0.49789 0.0
C555 C 0.49368 0.53319 0.58556 0.0
C556 C 0.98827 0.50581 0.92103 0.0
C557 C 0.97573 0.52791 0.89026 0.0
H558 H 0.03629 0.46845 0.94488 0.0
C559 C 1.00414 0.52768 0.85829 0.0
H560 H 0.96738 0.50506 0.94614 0.0
C561 C 0.04486 0.50653 0.85755 0.0
C562 C 0.05739 0.48486 0.88871 0.0
H563 H 0.99587 0.5449 0.83414 0.0
H564 H 0.06624 0.50692 0.83272 0.0
C565 C 0.02815 0.48468 0.92027 0.0
C566 C 0.52685 0.0576 0.25442 0.0
C567 C 0.56021 0.07335 0.22284 0.0
H568 H 0.44207 1.00687 0.27939 0.0
C569 C 0.53003 0.04878 0.19064 0.0
H570 H 0.54849 0.07545 0.2797 0.0
C571 C 0.46792 1.00802 0.19044 0.0
C572 C 0.43501 0.99176 0.2224 0.0
H573 H 0.55464 0.05941 0.16589 0.0
H574 H 0.44581 0.98923 0.16542 0.0
C575 C 0.46549 0.01786 0.2542 0.0
C576 C 0.0251 0.23974 0.21387 0.0
C577 C 0.05692 0.30165 0.22023 0.0
H578 H 0.94482 0.16399 0.19526 0.0
C579 C 0.02912 0.33494 0.2123 0.0
H580 H 0.0451 0.21263 0.21932 0.0
C581 C 0.97013 0.3063 0.19916 0.0
C582 C 0.93904 0.24438 0.19236 0.0
H583 H 0.05252 0.3827 0.21681 0.0
H584 H 0.94917 0.33257 0.19387 0.0
C585 C 0.96757 0.21178 0.19972 0.0
C586 C 0.78793 0.97595 0.53469 0.0
C587 C 0.72643 0.94629 0.52777 0.0
H588 H 0.86478 0.05479 0.55358 0.0
C589 C 0.69496 0.97641 0.53492 0.0
H590 H 0.81346 0.95394 0.52993 0.0
C591 C 0.72503 0.03561 0.54789 0.0
C592 C 0.78655 0.06467 0.55526 0.0
H593 H 0.64744 0.95456 0.52998 0.0
H594 H 0.70017 0.0583 0.55255 0.0
C595 C 0.8173 0.03378 0.54864 0.0
C596 C 0.75429 0.78938 0.86483 0.0
C597 C 0.69461 0.74805 0.87363 0.0
H598 H 0.83956 0.80353 0.84838 0.0
C599 C 0.67656 0.68689 0.87354 0.0
H600 H 0.7705 0.83682 0.8652 0.0
C601 C 0.71702 0.66776 0.86463 0.0
C602 C 0.77608 0.70922 0.85479 0.0
H603 H 0.63112 0.6537 0.88027 0.0
H604 H 0.70185 0.62045 0.86497 0.0
C605 C 0.79412 0.77023 0.85509 0.0
C606 C 0.98256 0.66359 0.21312 0.0
C607 C 0.93755 0.67885 0.21166 0.0
H608 H 0.07513 0.69181 0.20467 0.0
C609 C 0.95322 0.73647 0.20012 0.0
H610 H 0.97222 0.61964 0.22187 0.0
C611 C 0.01168 0.77714 0.18958 0.0
C612 C 0.05665 0.76193 0.19079 0.0
H613 H 0.92017 0.75016 0.19874 0.0
H614 H 0.02167 0.82098 0.18081 0.0
C615 C 0.04154 0.70483 0.2031 0.0
C616 C 0.21225 0.97387 0.54695 0.0
C617 C 0.2448 0.94521 0.55414 0.0
H618 H 0.2132 0.05161 0.5275 0.0
C619 C 0.30653 0.97604 0.54701 0.0
H620 H 0.16457 0.95126 0.55166 0.0
C621 C 0.33512 0.03495 0.53377 0.0
C622 C 0.30194 0.06296 0.52608 0.0
H623 H 0.33271 0.95494 0.55215 0.0
H624 H 0.38279 0.05822 0.5291 0.0
C625 C 0.24017 0.03138 0.53271 0.0
C626 C 0.26812 0.27573 0.85996 0.0
C627 C 0.28714 0.33699 0.85803 0.0
H628 H 0.28985 0.20866 0.87277 0.0
C629 C 0.34562 0.37826 0.86877 0.0
H630 H 0.22295 0.24252 0.85271 0.0
C631 C 0.3848 0.35865 0.8797 0.0
C632 C 0.36597 0.29723 0.88099 0.0
H633 H 0.36149 0.4257 0.86797 0.0
H634 H 0.43009 0.39172 0.88675 0.0
C635 C 0.30661 0.25617 0.87167 0.0
C636 C 0.17494 0.12872 0.24246 0.0
C637 C 0.17289 0.14846 0.20802 0.0
H638 H 0.18131 0.06304 0.2735 0.0
C639 C 0.1607 0.11008 0.17906 0.0
H640 H 0.18384 0.15784 0.26515 0.0
C641 C 0.15887 0.05588 0.18394 0.0
C642 C 0.16891 0.03992 0.21776 0.0
H643 H 0.15905 0.12462 0.15236 0.0
H644 H 0.15607 0.02955 0.16082 0.0
C645 C 0.17298 0.07451 0.24733 0.0
C646 C 0.11846 0.17614 0.57266 0.0
C647 C 0.15407 0.18115 0.54345 0.0
H648 H 0.04132 0.17881 0.59025 0.0
C649 C 0.13265 0.17841 0.50883 0.0
H650 H 0.13454 0.17849 0.59948 0.0
C651 C 0.07961 0.17858 0.50351 0.0
C652 C 0.04807 0.18161 0.53284 0.0
H653 H 0.1599 0.18219 0.486 0.0
H654 H 0.06683 0.18281 0.47679 0.0
C655 C 0.06551 0.17649 0.56735 0.0
C656 C 0.92333 0.09387 0.83189 0.0
C657 C 0.88908 0.06427 0.86174 0.0
H658 H 1.00145 0.17199 0.81309 0.0
C659 C 0.91307 0.08291 0.89593 0.0
H660 H 0.90535 0.08002 0.80539 0.0
C661 C 0.9679 0.13496 0.90036 0.0
C662 C 0.99865 0.16863 0.87059 0.0
H663 H 0.88702 0.06004 0.91924 0.0
H664 H 0.98306 0.15196 0.92692 0.0
C665 C 0.97801 0.14615 0.83632 0.0
C666 C 0.79563 0.93849 0.20772 0.0
C667 C 0.74199 0.93943 0.21023 0.0
H668 H 0.83695 0.88524 0.20296 0.0
C669 C 0.68774 0.88496 0.20876 0.0
H670 H 0.83832 0.9795 0.20822 0.0
C671 C 0.68692 0.83147 0.20354 0.0
C672 C 0.74032 0.8301 0.20146 0.0
H673 H 0.64537 0.88329 0.2114 0.0
H674 H 0.64393 0.79112 0.2012 0.0
C675 C 0.79481 0.88437 0.20376 0.0
C676 C 0.88769 0.80569 0.54583 0.0
C677 C 0.83329 0.75156 0.54893 0.0
H678 H 0.98257 0.84811 0.54021 0.0
C679 C 0.83404 0.69776 0.54795 0.0
H680 H 0.88888 0.84804 0.54597 0.0
C681 C 0.88689 0.69768 0.54231 0.0
C682 C 0.94153 0.75151 0.53959 0.0
H683 H 0.79352 0.6551 0.55106 0.0
H684 H 0.88444 0.65486 0.54011 0.0
C685 C 0.94136 0.80568 0.54158 0.0
C686 C 0.14336 0.93968 0.85893 0.0
C687 C 0.18879 0.95778 0.88436 0.0
H688 H 0.05471 0.87306 0.84379 0.0
C689 C 0.17608 0.92646 0.9167 0.0
H690 H 0.15171 0.96274 0.8338 0.0
C691 C 0.12085 0.87527 0.92224 0.0
C692 C 0.07705 0.85541 0.89591 0.0
H693 H 0.20955 0.94029 0.93729 0.0
H694 H 0.11342 0.84948 0.94624 0.0
C695 C 0.08782 0.88875 0.8647 0.0
loop_
_geom_bond_atom_site_label_1
_geom_bond_atom_site_label_2
_geom_bond_distance
_geom_bond_site_symmetry_2
_ccdc_geom_bond_type
C0 C1 1.351 . S
C0 N3 1.368 . S
C0 H5 0.931 . S
C1 C0 1.351 . S
C1 N2 1.373 . S
C1 H29 0.930 . S
N2 C1 1.373 . S
N2 C4 1.340 . S
N3 C0 1.368 . S
N3 C4 1.321 . S
N3 Co6 2.135 . S
C4 N2 1.340 . S
C4 N3 1.321 . S
C4 H28 0.930 . S
H5 C0 0.931 . S
Co6 N3 2.135 . S
Co6 N9 2.121 . S
Co6 O14 2.055 . S
Co6 O17 2.039 . S
Co6 N20 2.140 . S
C7 O8 1.227 . S
C7 O17 1.265 . S
O8 C7 1.227 . S
N9 Co6 2.121 . S
N9 C11 1.375 . S
N9 C12 1.313 . S
C10 C11 1.338 . S
C10 N13 1.377 . S
C10 H30 0.930 . S
C11 N9 1.375 . S
C11 C10 1.338 . S
C11 H15 0.931 . S
C12 N9 1.313 . S
C12 N13 1.344 . S
C12 H16 0.930 . S
N13 C10 1.377 . S
N13 C12 1.344 . S
O14 Co6 2.055 . S
O14 C18 1.253 . S
H15 C11 0.931 . S
H16 C12 0.930 . S
O17 Co6 2.039 . S
O17 C7 1.265 . S
C18 O14 1.253 . S
C18 O19 1.227 . S
O19 C18 1.227 . S
N20 Co6 2.140 . S
N20 C23 1.346 . S
N20 C24 1.345 . S
C21 C22 1.387 . S
C21 C25 1.391 . S
C22 C21 1.387 . S
C22 C23 1.369 . S
C22 H31 0.929 . S
C23 N20 1.346 . S
C23 C22 1.369 . S
C23 H26 0.928 . S
C24 N20 1.345 . S
C24 C25 1.371 . S
C24 H27 0.931 . S
C25 C21 1.391 . S
C25 C24 1.371 . S
C25 H32 0.930 . S
H26 C23 0.928 . S
H27 C24 0.931 . S
H28 C4 0.930 . S
H29 C1 0.930 . S
H30 C10 0.930 . S
H31 C22 0.929 . S
H32 C25 0.930 . S
C33 C34 1.351 . S
C33 N36 1.368 . S
C33 H38 0.931 . S
C34 C33 1.351 . S
C34 N35 1.373 . S
C34 H62 0.930 . S
N35 C34 1.373 . S
N35 C37 1.340 . S
N36 C33 1.368 . S
N36 C37 1.321 . S
N36 Co39 2.135 . S
C37 N35 1.340 . S
C37 N36 1.321 . S
C37 H61 0.930 . S
H38 C33 0.931 . S
Co39 N36 2.135 . S
Co39 N42 2.121 . S
Co39 O47 2.055 . S
Co39 O50 2.039 . S
Co39 N53 2.140 . S
C40 O41 1.227 . S
C40 O50 1.265 . S
O41 C40 1.227 . S
N42 Co39 2.121 . S
N42 C44 1.375 . S
N42 C45 1.313 . S
C43 C44 1.338 . S
C43 N46 1.377 . S
C43 H63 0.930 . S
C44 N42 1.375 . S
C44 C43 1.338 . S
C44 H48 0.931 . S
C45 N42 1.313 . S
C45 N46 1.344 . S
C45 H49 0.930 . S
N46 C43 1.377 . S
N46 C45 1.344 . S
O47 Co39 2.055 . S
O47 C51 1.253 . S
H48 C44 0.931 . S
H49 C45 0.930 . S
O50 Co39 2.039 . S
O50 C40 1.265 . S
C51 O47 1.253 . S
C51 O52 1.227 . S
O52 C51 1.227 . S
N53 Co39 2.140 . S
N53 C56 1.346 1_655 S
N53 C57 1.345 . S
C54 C55 1.387 . S
C54 C58 1.391 . S
C55 C54 1.387 . S
C55 C56 1.370 . S
C55 H64 0.929 . S
C56 N53 1.346 1_455 S
C56 C55 1.370 . S
C56 H59 0.928 1_455 S
C57 N53 1.345 . S
C57 C58 1.371 1_655 S
C57 H60 0.931 . S
C58 C54 1.391 . S
C58 C57 1.371 1_455 S
C58 H65 0.930 . S
H59 C56 0.928 1_655 S
H60 C57 0.931 . S
H61 C37 0.930 . S
H62 C34 0.930 . S
H63 C43 0.930 . S
H64 C55 0.929 . S
H65 C58 0.930 . S
C66 C67 1.351 . S
C66 N69 1.368 . S
C66 H71 0.931 . S
C67 C66 1.351 . S
C67 N68 1.373 . S
C67 H95 0.930 . S
N68 C67 1.373 . S
N68 C70 1.340 . S
N69 C66 1.368 . S
N69 C70 1.321 . S
N69 Co72 2.135 . S
C70 N68 1.340 . S
C70 N69 1.321 . S
C70 H94 0.930 . S
H71 C66 0.931 . S
Co72 N69 2.135 . S
Co72 N75 2.121 . S
Co72 O80 2.055 . S
Co72 O83 2.039 . S
Co72 N86 2.140 . S
C73 O74 1.227 . S
C73 O83 1.265 . S
O74 C73 1.227 . S
N75 Co72 2.121 . S
N75 C77 1.375 . S
N75 C78 1.313 . S
C76 C77 1.338 . S
C76 N79 1.377 . S
C76 H96 0.930 . S
C77 N75 1.375 . S
C77 C76 1.338 . S
C77 H81 0.931 . S
C78 N75 1.313 . S
C78 N79 1.344 . S
C78 H82 0.930 . S
N79 C76 1.377 . S
N79 C78 1.344 . S
O80 Co72 2.055 . S
O80 C84 1.253 . S
H81 C77 0.931 . S
H82 C78 0.930 . S
O83 Co72 2.039 . S
O83 C73 1.265 . S
C84 O80 1.253 . S
C84 O85 1.227 . S
O85 C84 1.227 . S
N86 Co72 2.140 . S
N86 C89 1.345 1_565 S
N86 C90 1.345 . S
C87 C88 1.387 . S
C87 C91 1.391 . S
C88 C87 1.387 . S
C88 C89 1.370 . S
C88 H97 0.929 . S
C89 N86 1.345 1_545 S
C89 C88 1.370 . S
C89 H92 0.929 1_545 S
C90 N86 1.345 . S
C90 C91 1.371 1_565 S
C90 H93 0.931 . S
C91 C87 1.391 . S
C91 C90 1.371 1_545 S
C91 H98 0.930 . S
H92 C89 0.929 1_565 S
H93 C90 0.931 . S
H94 C70 0.930 . S
H95 C67 0.930 . S
H96 C76 0.930 . S
H97 C88 0.929 . S
H98 C91 0.930 . S
C99 C100 1.351 . S
C99 N102 1.368 . S
C99 H104 0.931 . S
C100 C99 1.351 . S
C100 N101 1.373 . S
C100 H128 0.930 . S
N101 C100 1.373 . S
N101 C103 1.340 . S
N102 C99 1.368 . S
N102 C103 1.321 . S
N102 Co105 2.135 . S
C103 N101 1.340 . S
C103 N102 1.321 . S
C103 H127 0.930 . S
H104 C99 0.931 . S
Co105 N102 2.135 . S
Co105 N108 2.121 . S
Co105 O113 2.055 . S
Co105 O116 2.039 . S
Co105 N119 2.140 . S
C106 O107 1.227 . S
C106 O116 1.265 . S
O107 C106 1.227 . S
N108 Co105 2.121 . S
N108 C110 1.375 . S
N108 C111 1.313 . S
C109 C110 1.338 . S
C109 N112 1.377 . S
C109 H129 0.930 . S
C110 N108 1.375 . S
C110 C109 1.338 . S
C110 H114 0.931 . S
C111 N108 1.313 . S
C111 N112 1.344 . S
C111 H115 0.930 . S
N112 C109 1.377 . S
N112 C111 1.344 . S
O113 Co105 2.055 . S
O113 C117 1.253 . S
H114 C110 0.931 . S
H115 C111 0.930 . S
O116 Co105 2.039 . S
O116 C106 1.265 . S
C117 O113 1.253 . S
C117 O118 1.227 . S
O118 C117 1.227 . S
N119 Co105 2.140 . S
N119 C122 1.346 . S
N119 C123 1.345 . S
C120 C121 1.387 . S
C120 C124 1.391 . S
C121 C120 1.387 . S
C121 C122 1.369 . S
C121 H130 0.929 . S
C122 N119 1.346 . S
C122 C121 1.369 . S
C122 H125 0.928 . S
C123 N119 1.345 . S
C123 C124 1.371 . S
C123 H126 0.931 . S
C124 C120 1.391 . S
C124 C123 1.371 . S
C124 H131 0.930 . S
H125 C122 0.928 . S
H126 C123 0.931 . S
H127 C103 0.930 . S
H128 C100 0.930 . S
H129 C109 0.930 . S
H130 C121 0.929 . S
H131 C124 0.930 . S
C132 C133 1.351 . S
C132 N135 1.368 . S
C132 H137 0.931 . S
C133 C132 1.351 . S
C133 N134 1.373 . S
C133 H161 0.930 . S
N134 C133 1.373 . S
N134 C136 1.340 . S
N135 C132 1.368 . S
N135 C136 1.321 . S
N135 Co138 2.135 . S
C136 N134 1.340 . S
C136 N135 1.321 . S
C136 H160 0.930 . S
H137 C132 0.931 . S
Co138 N135 2.135 . S
Co138 N141 2.121 . S
Co138 O146 2.055 . S
Co138 O149 2.039 . S
Co138 N152 2.140 . S
C139 O140 1.227 . S
C139 O149 1.265 . S
O140 C139 1.227 . S
N141 Co138 2.121 . S
N141 C143 1.375 . S
N141 C144 1.313 . S
C142 C143 1.338 . S
C142 N145 1.377 . S
C142 H162 0.930 . S
C143 N141 1.375 . S
C143 C142 1.338 . S
C143 H147 0.931 . S
C144 N141 1.313 . S
C144 N145 1.344 . S
C144 H148 0.930 . S
N145 C142 1.377 . S
N145 C144 1.344 . S
O146 Co138 2.055 . S
O146 C150 1.253 . S
H147 C143 0.931 . S
H148 C144 0.930 . S
O149 Co138 2.039 . S
O149 C139 1.265 . S
C150 O146 1.253 . S
C150 O151 1.227 . S
O151 C150 1.227 . S
N152 Co138 2.140 . S
N152 C155 1.346 1_455 S
N152 C156 1.345 . S
C153 C154 1.387 . S
C153 C157 1.391 . S
C154 C153 1.387 . S
C154 C155 1.370 . S
C154 H163 0.929 . S
C155 N152 1.346 1_655 S
C155 C154 1.370 . S
C155 H158 0.928 1_655 S
C156 N152 1.345 . S
C156 C157 1.371 1_455 S
C156 H159 0.931 . S
C157 C153 1.391 . S
C157 C156 1.371 1_655 S
C157 H164 0.930 . S
H158 C155 0.928 1_455 S
H159 C156 0.931 . S
H160 C136 0.930 . S
H161 C133 0.930 . S
H162 C142 0.930 . S
H163 C154 0.929 . S
H164 C157 0.930 . S
C165 C166 1.351 . S
C165 N168 1.368 . S
C165 H170 0.931 . S
C166 C165 1.351 . S
C166 N167 1.373 . S
C166 H194 0.930 . S
N167 C166 1.373 . S
N167 C169 1.340 . S
N168 C165 1.368 . S
N168 C169 1.321 . S
N168 Co171 2.135 . S
C169 N167 1.340 . S
C169 N168 1.321 . S
C169 H193 0.930 . S
H170 C165 0.931 . S
Co171 N168 2.135 . S
Co171 N174 2.121 . S
Co171 O179 2.055 . S
Co171 O182 2.039 . S
Co171 N185 2.140 . S
C172 O173 1.227 . S
C172 O182 1.265 . S
O173 C172 1.227 . S
N174 Co171 2.121 . S
N174 C176 1.375 . S
N174 C177 1.313 . S
C175 C176 1.338 . S
C175 N178 1.377 . S
C175 H195 0.930 . S
C176 N174 1.375 . S
C176 C175 1.338 . S
C176 H180 0.931 . S
C177 N174 1.313 . S
C177 N178 1.344 . S
C177 H181 0.930 . S
N178 C175 1.377 . S
N178 C177 1.344 . S
O179 Co171 2.055 . S
O179 C183 1.253 . S
H180 C176 0.931 . S
H181 C177 0.930 . S
O182 Co171 2.039 . S
O182 C172 1.265 . S
C183 O179 1.253 . S
C183 O184 1.227 . S
O184 C183 1.227 . S
N185 Co171 2.140 . S
N185 C188 1.345 1_545 S
N185 C189 1.345 . S
C186 C187 1.387 . S
C186 C190 1.391 . S
C187 C186 1.387 . S
C187 C188 1.370 . S
C187 H196 0.929 . S
C188 N185 1.345 1_565 S
C188 C187 1.370 . S
C188 H191 0.929 1_565 S
C189 N185 1.345 . S
C189 C190 1.371 1_545 S
C189 H192 0.931 . S
C190 C186 1.391 . S
C190 C189 1.371 1_565 S
C190 H197 0.930 . S
H191 C188 0.929 1_545 S
H192 C189 0.931 . S
H193 C169 0.930 . S
H194 C166 0.930 . S
H195 C175 0.930 . S
H196 C187 0.929 . S
H197 C190 0.930 . S
C198 C199 1.351 . S
C198 N201 1.368 . S
C198 H203 0.931 . S
C199 C198 1.351 . S
C199 N200 1.373 . S
C199 H227 0.930 . S
N200 C199 1.373 . S
N200 C202 1.340 . S
N201 C198 1.368 . S
N201 C202 1.321 . S
N201 Co204 2.135 . S
C202 N200 1.340 . S
C202 N201 1.321 . S
C202 H226 0.930 . S
H203 C198 0.931 . S
Co204 N201 2.135 . S
Co204 N207 2.121 . S
Co204 O212 2.055 . S
Co204 O215 2.039 . S
Co204 N218 2.140 . S
C205 O206 1.227 . S
C205 O215 1.265 . S
O206 C205 1.227 . S
N207 Co204 2.121 . S
N207 C209 1.375 . S
N207 C210 1.313 . S
C208 C209 1.338 . S
C208 N211 1.377 . S
C208 H228 0.930 . S
C209 N207 1.375 . S
C209 C208 1.338 . S
C209 H213 0.931 . S
C210 N207 1.313 . S
C210 N211 1.344 . S
C210 H214 0.930 . S
N211 C208 1.377 . S
N211 C210 1.344 . S
O212 Co204 2.055 . S
O212 C216 1.253 . S
H213 C209 0.931 . S
H214 C210 0.930 . S
O215 Co204 2.039 . S
O215 C205 1.265 . S
C216 O212 1.253 . S
C216 O217 1.227 . S
O217 C216 1.227 . S
N218 Co204 2.140 . S
N218 C221 1.346 . S
N218 C222 1.345 . S
C219 C220 1.387 . S
C219 C223 1.391 . S
C220 C219 1.387 . S
C220 C221 1.369 . S
C220 H229 0.929 . S
C221 N218 1.346 . S
C221 C220 1.369 . S
C221 H224 0.928 . S
C222 N218 1.345 . S
C222 C223 1.371 . S
C222 H225 0.931 . S
C223 C219 1.391 . S
C223 C222 1.371 . S
C223 H230 0.930 . S
H224 C221 0.928 . S
H225 C222 0.931 . S
H226 C202 0.930 . S
H227 C199 0.930 . S
H228 C208 0.930 . S
H229 C220 0.929 . S
H230 C223 0.930 . S
C231 C232 1.351 . S
C231 N234 1.368 . S
C231 H236 0.931 . S
C232 C231 1.351 . S
C232 N233 1.373 . S
C232 H260 0.930 . S
N233 C232 1.373 . S
N233 C235 1.340 . S
N234 C231 1.368 . S
N234 C235 1.321 . S
N234 Co237 2.135 . S
C235 N233 1.340 . S
C235 N234 1.321 . S
C235 H259 0.930 . S
H236 C231 0.931 . S
Co237 N234 2.135 . S
Co237 N240 2.121 . S
Co237 O245 2.055 . S
Co237 O248 2.039 . S
Co237 N251 2.140 . S
C238 O239 1.227 . S
C238 O248 1.265 . S
O239 C238 1.227 . S
N240 Co237 2.121 . S
N240 C242 1.375 . S
N240 C243 1.313 . S
C241 C242 1.338 . S
C241 N244 1.377 . S
C241 H261 0.930 . S
C242 N240 1.375 . S
C242 C241 1.338 . S
C242 H246 0.931 . S
C243 N240 1.313 . S
C243 N244 1.344 . S
C243 H247 0.930 . S
N244 C241 1.377 . S
N244 C243 1.344 . S
O245 Co237 2.055 . S
O245 C249 1.253 . S
H246 C242 0.931 . S
H247 C243 0.930 . S
O248 Co237 2.039 . S
O248 C238 1.265 . S
C249 O245 1.253 . S
C249 O250 1.227 . S
O250 C249 1.227 . S
N251 Co237 2.140 . S
N251 C254 1.345 1_655 S
N251 C255 1.345 . S
C252 C253 1.387 . S
C252 C256 1.391 . S
C253 C252 1.387 . S
C253 C254 1.370 . S
C253 H262 0.929 . S
C254 N251 1.345 1_455 S
C254 C253 1.370 . S
C254 H257 0.929 1_455 S
C255 N251 1.345 . S
C255 C256 1.371 1_655 S
C255 H258 0.931 . S
C256 C252 1.391 . S
C256 C255 1.371 1_455 S
C256 H263 0.930 . S
H257 C254 0.929 1_655 S
H258 C255 0.931 . S
H259 C235 0.930 . S
H260 C232 0.930 . S
H261 C241 0.930 . S
H262 C253 0.929 . S
H263 C256 0.930 . S
C264 C265 1.351 . S
C264 N267 1.368 . S
C264 H269 0.931 . S
C265 C264 1.351 . S
C265 N266 1.373 . S
C265 H293 0.930 . S
N266 C265 1.373 . S
N266 C268 1.340 . S
N267 C264 1.368 . S
N267 C268 1.321 . S
N267 Co270 2.135 . S
C268 N266 1.340 . S
C268 N267 1.321 . S
C268 H292 0.930 . S
H269 C264 0.931 . S
Co270 N267 2.135 . S
Co270 N273 2.121 . S
Co270 O278 2.055 . S
Co270 O281 2.039 . S
Co270 N284 2.140 . S
C271 O272 1.227 . S
C271 O281 1.265 . S
O272 C271 1.227 . S
N273 Co270 2.121 . S
N273 C275 1.375 . S
N273 C276 1.313 . S
C274 C275 1.338 . S
C274 N277 1.377 . S
C274 H294 0.930 . S
C275 N273 1.375 . S
C275 C274 1.338 . S
C275 H279 0.931 . S
C276 N273 1.313 . S
C276 N277 1.344 . S
C276 H280 0.930 . S
N277 C274 1.377 . S
N277 C276 1.344 . S
O278 Co270 2.055 . S
O278 C282 1.253 . S
H279 C275 0.931 . S
H280 C276 0.930 . S
O281 Co270 2.039 . S
O281 C271 1.265 . S
C282 O278 1.253 . S
C282 O283 1.227 . S
O283 C282 1.227 . S
N284 Co270 2.140 . S
N284 C287 1.346 1_565 S
N284 C288 1.345 . S
C285 C286 1.387 . S
C285 C289 1.391 . S
C286 C285 1.387 . S
C286 C287 1.370 . S
C286 H295 0.929 . S
C287 N284 1.346 1_545 S
C287 C286 1.370 . S
C287 H290 0.928 1_545 S
C288 N284 1.345 . S
C288 C289 1.371 1_565 S
C288 H291 0.931 . S
C289 C285 1.391 . S
C289 C288 1.371 1_545 S
C289 H296 0.930 . S
H290 C287 0.928 1_565 S
H291 C288 0.931 . S
H292 C268 0.930 . S
H293 C265 0.930 . S
H294 C274 0.930 . S
H295 C286 0.929 . S
H296 C289 0.930 . S
C297 C298 1.351 . S
C297 N300 1.368 . S
C297 H302 0.931 . S
C298 C297 1.351 . S
C298 N299 1.373 . S
C298 H326 0.930 . S
N299 C298 1.373 . S
N299 C301 1.340 . S
N300 C297 1.368 . S
N300 C301 1.321 . S
N300 Co303 2.135 . S
C301 N299 1.340 . S
C301 N300 1.321 . S
C301 H325 0.930 . S
H302 C297 0.931 . S
Co303 N300 2.135 . S
Co303 N306 2.121 . S
Co303 O311 2.055 . S
Co303 O314 2.039 . S
Co303 N317 2.140 . S
C304 O305 1.227 . S
C304 O314 1.265 . S
O305 C304 1.227 . S
N306 Co303 2.121 . S
N306 C308 1.375 . S
N306 C309 1.313 . S
C307 C308 1.338 . S
C307 N310 1.377 . S
C307 H327 0.930 . S
C308 N306 1.375 . S
C308 C307 1.338 . S
C308 H312 0.931 . S
C309 N306 1.313 . S
C309 N310 1.344 . S
C309 H313 0.930 . S
N310 C307 1.377 . S
N310 C309 1.344 . S
O311 Co303 2.055 . S
O311 C315 1.253 . S
H312 C308 0.931 . S
H313 C309 0.930 . S
O314 Co303 2.039 . S
O314 C304 1.265 . S
C315 O311 1.253 . S
C315 O316 1.227 . S
O316 C315 1.227 . S
N317 Co303 2.140 . S
N317 C320 1.346 . S
N317 C321 1.345 . S
C318 C319 1.387 . S
C318 C322 1.391 . S
C319 C318 1.387 . S
C319 C320 1.369 . S
C319 H328 0.929 . S
C320 N317 1.346 . S
C320 C319 1.369 . S
C320 H323 0.928 . S
C321 N317 1.345 . S
C321 C322 1.371 . S
C321 H324 0.931 . S
C322 C318 1.391 . S
C322 C321 1.371 . S
C322 H329 0.930 . S
H323 C320 0.928 . S
H324 C321 0.931 . S
H325 C301 0.930 . S
H326 C298 0.930 . S
H327 C307 0.930 . S
H328 C319 0.929 . S
H329 C322 0.930 . S
C330 C331 1.351 . S
C330 N333 1.368 . S
C330 H335 0.931 . S
C331 C330 1.351 . S
C331 N332 1.373 . S
C331 H359 0.930 . S
N332 C331 1.373 . S
N332 C334 1.340 . S
N333 C330 1.368 . S
N333 C334 1.321 . S
N333 Co336 2.135 . S
C334 N332 1.340 . S
C334 N333 1.321 . S
C334 H358 0.930 . S
H335 C330 0.931 . S
Co336 N333 2.135 . S
Co336 N339 2.121 . S
Co336 O344 2.055 . S
Co336 O347 2.039 . S
Co336 N350 2.140 . S
C337 O338 1.227 . S
C337 O347 1.265 . S
O338 C337 1.227 . S
N339 Co336 2.121 . S
N339 C341 1.375 . S
N339 C342 1.313 . S
C340 C341 1.338 . S
C340 N343 1.377 . S
C340 H360 0.930 . S
C341 N339 1.375 . S
C341 C340 1.338 . S
C341 H345 0.931 . S
C342 N339 1.313 . S
C342 N343 1.344 . S
C342 H346 0.930 . S
N343 C340 1.377 . S
N343 C342 1.344 . S
O344 Co336 2.055 . S
O344 C348 1.253 . S
H345 C341 0.931 . S
H346 C342 0.930 . S
O347 Co336 2.039 . S
O347 C337 1.265 . S
C348 O344 1.253 . S
C348 O349 1.227 . S
O349 C348 1.227 . S
N350 Co336 2.140 . S
N350 C353 1.345 1_455 S
N350 C354 1.345 . S
C351 C352 1.387 . S
C351 C355 1.391 . S
C352 C351 1.387 . S
C352 C353 1.370 . S
C352 H361 0.929 . S
C353 N350 1.345 1_655 S
C353 C352 1.370 . S
C353 H356 0.929 1_655 S
C354 N350 1.345 . S
C354 C355 1.371 1_455 S
C354 H357 0.931 . S
C355 C351 1.391 . S
C355 C354 1.371 1_655 S
C355 H362 0.930 . S
H356 C353 0.929 1_455 S
H357 C354 0.931 . S
H358 C334 0.930 . S
H359 C331 0.930 . S
H360 C340 0.930 . S
H361 C352 0.929 . S
H362 C355 0.930 . S
C363 C364 1.351 . S
C363 N366 1.368 . S
C363 H368 0.931 . S
C364 C363 1.351 . S
C364 N365 1.373 . S
C364 H392 0.930 . S
N365 C364 1.373 . S
N365 C367 1.340 . S
N366 C363 1.368 . S
N366 C367 1.321 . S
N366 Co369 2.135 . S
C367 N365 1.340 . S
C367 N366 1.321 . S
C367 H391 0.930 . S
H368 C363 0.931 . S
Co369 N366 2.135 . S
Co369 N372 2.121 . S
Co369 O377 2.055 . S
Co369 O380 2.039 . S
Co369 N383 2.140 . S
C370 O371 1.227 . S
C370 O380 1.265 . S
O371 C370 1.227 . S
N372 Co369 2.121 . S
N372 C374 1.375 . S
N372 C375 1.313 . S
C373 C374 1.338 . S
C373 N376 1.377 . S
C373 H393 0.930 . S
C374 N372 1.375 . S
C374 C373 1.338 . S
C374 H378 0.931 . S
C375 N372 1.313 . S
C375 N376 1.344 . S
C375 H379 0.930 . S
N376 C373 1.377 . S
N376 C375 1.344 . S
O377 Co369 2.055 . S
O377 C381 1.253 . S
H378 C374 0.931 . S
H379 C375 0.930 . S
O380 Co369 2.039 . S
O380 C370 1.265 . S
C381 O377 1.253 . S
C381 O382 1.227 . S
O382 C381 1.227 . S
N383 Co369 2.140 . S
N383 C386 1.346 1_545 S
N383 C387 1.345 . S
C384 C385 1.387 . S
C384 C388 1.391 . S
C385 C384 1.387 . S
C385 C386 1.370 . S
C385 H394 0.929 . S
C386 N383 1.346 1_565 S
C386 C385 1.370 . S
C386 H389 0.928 1_565 S
C387 N383 1.345 . S
C387 C388 1.371 1_545 S
C387 H390 0.931 . S
C388 C384 1.391 . S
C388 C387 1.371 1_565 S
C388 H395 0.930 . S
H389 C386 0.928 1_545 S
H390 C387 0.931 . S
H391 C367 0.930 . S
H392 C364 0.930 . S
H393 C373 0.930 . S
H394 C385 0.929 . S
H395 C388 0.930 . S
C396 C397 1.387 . S
C396 H400 0.950 . S
C396 C405 1.390 . S
C397 C396 1.387 . S
C397 C399 1.387 . S
H398 C405 0.950 . S
C399 C397 1.387 . S
C399 C401 1.390 . S
C399 H403 0.950 . S
H400 C396 0.950 . S
C401 C399 1.390 . S
C401 C402 1.387 . S
C401 H404 0.950 . S
C402 C401 1.387 . S
C402 C405 1.387 . S
H403 C399 0.950 . S
H404 C401 0.950 . S
C405 C396 1.390 . S
C405 H398 0.950 . S
C405 C402 1.387 . S
C406 C407 1.387 . S
C406 H410 0.950 . S
C406 C415 1.390 1_655 S
C407 C406 1.387 . S
C407 C409 1.387 . S
H408 C415 0.950 . S
C409 C407 1.387 . S
C409 C411 1.390 1_655 S
C409 H413 0.950 . S
H410 C406 0.950 . S
C411 C409 1.390 1_455 S
C411 C412 1.387 . S
C411 H414 0.950 . S
C412 C411 1.387 . S
C412 C415 1.387 . S
H413 C409 0.950 . S
H414 C411 0.950 . S
C415 C406 1.390 1_455 S
C415 H408 0.950 . S
C415 C412 1.387 . S
C416 C417 1.387 . S
C416 H420 0.950 . S
C416 C425 1.390 1_566 S
C417 C416 1.387 . S
C417 C419 1.387 . S
H418 C425 0.950 . S
C419 C417 1.387 . S
C419 C421 1.390 1_566 S
C419 H423 0.950 . S
H420 C416 0.950 . S
C421 C419 1.390 1_544 S
C421 C422 1.387 . S
C421 H424 0.950 . S
C422 C421 1.387 . S
C422 C425 1.387 . S
H423 C419 0.950 . S
H424 C421 0.950 . S
C425 C416 1.390 1_544 S
C425 H418 0.950 . S
C425 C422 1.387 . S
C426 C427 1.387 . S
C426 H430 0.950 . S
C426 C435 1.390 . S
C427 C426 1.387 . S
C427 C429 1.387 . S
H428 C435 0.950 . S
C429 C427 1.387 . S
C429 C431 1.390 . S
C429 H433 0.950 . S
H430 C426 0.950 . S
C431 C429 1.390 . S
C431 C432 1.387 . S
C431 H434 0.950 . S
C432 C431 1.387 . S
C432 C435 1.387 . S
H433 C429 0.950 . S
H434 C431 0.950 . S
C435 C426 1.390 . S
C435 H428 0.950 . S
C435 C432 1.387 . S
C436 C437 1.387 . S
C436 H440 0.950 . S
C436 C445 1.390 . S
C437 C436 1.387 . S
C437 C439 1.387 1_455 S
H438 C445 0.950 . S
C439 C437 1.387 1_655 S
C439 C441 1.390 . S
C439 H443 0.950 . S
H440 C436 0.950 . S
C441 C439 1.390 . S
C441 C442 1.387 . S
C441 H444 0.950 . S
C442 C441 1.387 . S
C442 C445 1.387 1_655 S
H443 C439 0.950 . S
H444 C441 0.950 . S
C445 C436 1.390 . S
C445 H438 0.950 . S
C445 C442 1.387 1_455 S
C446 C447 1.387 . S
C446 H450 0.950 . S
C446 C455 1.390 1_546 S
C447 C446 1.387 . S
C447 C449 1.387 . S
H448 C455 0.950 . S
C449 C447 1.387 . S
C449 C451 1.390 1_546 S
C449 H453 0.950 . S
H450 C446 0.950 . S
C451 C449 1.390 1_564 S
C451 C452 1.387 . S
C451 H454 0.950 . S
C452 C451 1.387 . S
C452 C455 1.387 . S
H453 C449 0.950 . S
H454 C451 0.950 . S
C455 C446 1.390 1_564 S
C455 H448 0.950 . S
C455 C452 1.387 . S
C456 C457 1.387 . S
C456 H460 0.950 . S
C456 C465 1.390 1_556 S
C457 C456 1.387 . S
C457 C459 1.387 . S
H458 C465 0.950 . S
C459 C457 1.387 . S
C459 C461 1.390 1_556 S
C459 H463 0.950 . S
H460 C456 0.950 . S
C461 C459 1.390 1_554 S
C461 C462 1.387 . S
C461 H464 0.950 . S
C462 C461 1.387 . S
C462 C465 1.387 . S
H463 C459 0.950 . S
H464 C461 0.950 . S
C465 C456 1.390 1_554 S
C465 H458 0.950 . S
C465 C462 1.387 . S
C466 C467 1.387 . S
C466 H470 0.950 . S
C466 C475 1.390 . S
C467 C466 1.387 . S
C467 C469 1.387 . S
H468 C475 0.950 . S
C469 C467 1.387 . S
C469 C471 1.390 . S
C469 H473 0.950 . S
H470 C466 0.950 . S
C471 C469 1.390 . S
C471 C472 1.387 . S
C471 H474 0.950 . S
C472 C471 1.387 . S
C472 C475 1.387 . S
H473 C469 0.950 . S
H474 C471 0.950 . S
C475 C466 1.390 . S
C475 H468 0.950 . S
C475 C472 1.387 . S
C476 C477 1.387 . S
C476 H480 0.950 . S
C476 C485 1.390 . S
C477 C476 1.387 . S
C477 C479 1.387 . S
H478 C485 0.950 . S
C479 C477 1.387 . S
C479 C481 1.390 . S
C479 H483 0.950 . S
H480 C476 0.950 . S
C481 C479 1.390 . S
C481 C482 1.387 . S
C481 H484 0.950 . S
C482 C481 1.387 . S
C482 C485 1.387 . S
H483 C479 0.950 . S
H484 C481 0.950 . S
C485 C476 1.390 . S
C485 H478 0.950 . S
C485 C482 1.387 . S
C486 C487 1.387 . S
C486 H490 0.950 . S
C486 C495 1.390 1_556 S
C487 C486 1.387 . S
C487 C489 1.387 . S
H488 C495 0.950 . S
C489 C487 1.387 . S
C489 C491 1.390 1_556 S
C489 H493 0.950 . S
H490 C486 0.950 . S
C491 C489 1.390 1_554 S
C491 C492 1.387 . S
C491 H494 0.950 . S
C492 C491 1.387 . S
C492 C495 1.387 . S
H493 C489 0.950 . S
H494 C491 0.950 . S
C495 C486 1.390 1_554 S
C495 H488 0.950 . S
C495 C492 1.387 . S
C496 C497 1.387 . S
C496 H500 0.950 . S
C496 C505 1.390 . S
C497 C496 1.387 . S
C497 C499 1.387 . S
H498 C505 0.950 . S
C499 C497 1.387 . S
C499 C501 1.390 . S
C499 H503 0.950 . S
H500 C496 0.950 . S
C501 C499 1.390 . S
C501 C502 1.387 . S
C501 H504 0.950 . S
C502 C501 1.387 . S
C502 C505 1.387 . S
H503 C499 0.950 . S
H504 C501 0.950 . S
C505 C496 1.390 . S
C505 H498 0.950 . S
C505 C502 1.387 . S
C506 C507 1.387 . S
C506 H510 0.950 . S
C506 C515 1.390 . S
C507 C506 1.387 . S
C507 C509 1.387 . S
H508 C515 0.950 . S
C509 C507 1.387 . S
C509 C511 1.390 . S
C509 H513 0.950 . S
H510 C506 0.950 . S
C511 C509 1.390 . S
C511 C512 1.387 . S
C511 H514 0.950 . S
C512 C511 1.387 . S
C512 C515 1.387 . S
H513 C509 0.950 . S
H514 C511 0.950 . S
C515 C506 1.390 . S
C515 H508 0.950 . S
C515 C512 1.387 . S
C516 C517 1.387 . S
C516 H520 0.950 . S
C516 C525 1.390 . S
C517 C516 1.387 . S
C517 C519 1.387 . S
H518 C525 0.950 . S
C519 C517 1.387 . S
C519 C521 1.390 . S
C519 H523 0.950 . S
H520 C516 0.950 . S
C521 C519 1.390 . S
C521 C522 1.387 . S
C521 H524 0.950 . S
C522 C521 1.387 . S
C522 C525 1.387 . S
H523 C519 0.950 . S
H524 C521 0.950 . S
C525 C516 1.390 . S
C525 H518 0.950 . S
C525 C522 1.387 . S
C526 C527 1.387 . S
C526 H530 0.950 . S
C526 C535 1.390 1_655 S
C527 C526 1.387 . S
C527 C529 1.387 . S
H528 C535 0.950 . S
C529 C527 1.387 . S
C529 C531 1.390 1_655 S
C529 H533 0.950 . S
H530 C526 0.950 . S
C531 C529 1.390 1_455 S
C531 C532 1.387 . S
C531 H534 0.950 . S
C532 C531 1.387 . S
C532 C535 1.387 . S
H533 C529 0.950 . S
H534 C531 0.950 . S
C535 C526 1.390 1_455 S
C535 H528 0.950 . S
C535 C532 1.387 . S
C536 C537 1.387 . S
C536 H540 0.950 . S
C536 C545 1.390 1_545 S
C537 C536 1.387 . S
C537 C539 1.387 . S
H538 C545 0.950 . S
C539 C537 1.387 . S
C539 C541 1.390 1_545 S
C539 H543 0.950 . S
H540 C536 0.950 . S
C541 C539 1.390 1_565 S
C541 C542 1.387 . S
C541 H544 0.950 . S
C542 C541 1.387 . S
C542 C545 1.387 . S
H543 C539 0.950 . S
H544 C541 0.950 . S
C545 C536 1.390 1_565 S
C545 H538 0.950 . S
C545 C542 1.387 . S
C546 C547 1.387 . S
C546 H550 0.950 . S
C546 C555 1.390 . S
C547 C546 1.387 . S
C547 C549 1.387 . S
H548 C555 0.950 . S
C549 C547 1.387 . S
C549 C551 1.390 . S
C549 H553 0.950 . S
H550 C546 0.950 . S
C551 C549 1.390 . S
C551 C552 1.387 . S
C551 H554 0.950 . S
C552 C551 1.387 . S
C552 C555 1.387 . S
H553 C549 0.950 . S
H554 C551 0.950 . S
C555 C546 1.390 . S
C555 H548 0.950 . S
C555 C552 1.387 . S
C556 C557 1.387 . S
C556 H560 0.950 . S
C556 C565 1.390 1_655 S
C557 C556 1.387 . S
C557 C559 1.387 . S
H558 C565 0.950 . S
C559 C557 1.387 . S
C559 C561 1.390 1_655 S
C559 H563 0.950 . S
H560 C556 0.950 . S
C561 C559 1.390 1_455 S
C561 C562 1.387 . S
C561 H564 0.950 . S
C562 C561 1.387 . S
C562 C565 1.387 . S
H563 C559 0.950 . S
H564 C561 0.950 . S
C565 C556 1.390 1_455 S
C565 H558 0.950 . S
C565 C562 1.387 . S
C566 C567 1.387 . S
C566 H570 0.950 . S
C566 C575 1.390 1_545 S
C567 C566 1.387 . S
C567 C569 1.387 . S
H568 C575 0.950 . S
C569 C567 1.387 . S
C569 C571 1.390 1_545 S
C569 H573 0.950 . S
H570 C566 0.950 . S
C571 C569 1.390 1_565 S
C571 C572 1.387 . S
C571 H574 0.950 . S
C572 C571 1.387 . S
C572 C575 1.387 . S
H573 C569 0.950 . S
H574 C571 0.950 . S
C575 C566 1.390 1_565 S
C575 H568 0.950 . S
C575 C572 1.387 . S
C576 C577 1.387 . S
C576 H580 0.950 . S
C576 C585 1.390 1_455 S
C577 C576 1.387 . S
C577 C579 1.387 . S
H578 C585 0.950 . S
C579 C577 1.387 . S
C579 C581 1.390 1_455 S
C579 H583 0.950 . S
H580 C576 0.950 . S
C581 C579 1.390 1_655 S
C581 C582 1.387 . S
C581 H584 0.950 . S
C582 C581 1.387 . S
C582 C585 1.387 . S
H583 C579 0.950 . S
H584 C581 0.950 . S
C585 C576 1.390 1_655 S
C585 H578 0.950 . S
C585 C582 1.387 . S
C586 C587 1.387 . S
C586 H590 0.950 . S
C586 C595 1.390 1_565 S
C587 C586 1.387 . S
C587 C589 1.387 . S
H588 C595 0.950 . S
C589 C587 1.387 . S
C589 C591 1.390 1_565 S
C589 H593 0.950 . S
H590 C586 0.950 . S
C591 C589 1.390 1_545 S
C591 C592 1.387 . S
C591 H594 0.950 . S
C592 C591 1.387 . S
C592 C595 1.387 . S
H593 C589 0.950 . S
H594 C591 0.950 . S
C595 C586 1.390 1_545 S
C595 H588 0.950 . S
C595 C592 1.387 . S
C596 C597 1.387 . S
C596 H600 0.950 . S
C596 C605 1.390 . S
C597 C596 1.387 . S
C597 C599 1.387 . S
H598 C605 0.950 . S
C599 C597 1.387 . S
C599 C601 1.390 . S
C599 H603 0.950 . S
H600 C596 0.950 . S
C601 C599 1.390 . S
C601 C602 1.387 . S
C601 H604 0.950 . S
C602 C601 1.387 . S
C602 C605 1.387 . S
H603 C599 0.950 . S
H604 C601 0.950 . S
C605 C596 1.390 . S
C605 H598 0.950 . S
C605 C602 1.387 . S
C606 C607 1.387 . S
C606 H610 0.950 . S
C606 C615 1.390 1_655 S
C607 C606 1.387 . S
C607 C609 1.387 . S
H608 C615 0.950 . S
C609 C607 1.387 . S
C609 C611 1.390 1_655 S
C609 H613 0.950 . S
H610 C606 0.950 . S
C611 C609 1.390 1_455 S
C611 C612 1.387 . S
C611 H614 0.950 . S
C612 C611 1.387 . S
C612 C615 1.387 . S
H613 C609 0.950 . S
H614 C611 0.950 . S
C615 C606 1.390 1_455 S
C615 H608 0.950 . S
C615 C612 1.387 . S
C616 C617 1.387 . S
C616 H620 0.950 . S
C616 C625 1.390 1_565 S
C617 C616 1.387 . S
C617 C619 1.387 . S
H618 C625 0.950 . S
C619 C617 1.387 . S
C619 C621 1.390 1_565 S
C619 H623 0.950 . S
H620 C616 0.950 . S
C621 C619 1.390 1_545 S
C621 C622 1.387 . S
C621 H624 0.950 . S
C622 C621 1.387 . S
C622 C625 1.387 . S
H623 C619 0.950 . S
H624 C621 0.950 . S
C625 C616 1.390 1_545 S
C625 H618 0.950 . S
C625 C622 1.387 . S
C626 C627 1.387 . S
C626 H630 0.950 . S
C626 C635 1.390 . S
C627 C626 1.387 . S
C627 C629 1.387 . S
H628 C635 0.950 . S
C629 C627 1.387 . S
C629 C631 1.390 . S
C629 H633 0.950 . S
H630 C626 0.950 . S
C631 C629 1.390 . S
C631 C632 1.387 . S
C631 H634 0.950 . S
C632 C631 1.387 . S
C632 C635 1.387 . S
H633 C629 0.950 . S
H634 C631 0.950 . S
C635 C626 1.390 . S
C635 H628 0.950 . S
C635 C632 1.387 . S
C636 C637 1.387 . S
C636 H640 0.950 . S
C636 C645 1.390 . S
C637 C636 1.387 . S
C637 C639 1.387 . S
H638 C645 0.950 . S
C639 C637 1.387 . S
C639 C641 1.390 . S
C639 H643 0.950 . S
H640 C636 0.950 . S
C641 C639 1.390 . S
C641 C642 1.387 . S
C641 H644 0.950 . S
C642 C641 1.387 . S
C642 C645 1.387 . S
H643 C639 0.950 . S
H644 C641 0.950 . S
C645 C636 1.390 . S
C645 H638 0.950 . S
C645 C642 1.387 . S
C646 C647 1.387 . S
C646 H650 0.950 . S
C646 C655 1.390 . S
C647 C646 1.387 . S
C647 C649 1.387 . S
H648 C655 0.950 . S
C649 C647 1.387 . S
C649 C651 1.390 . S
C649 H653 0.950 . S
H650 C646 0.950 . S
C651 C649 1.390 . S
C651 C652 1.387 . S
C651 H654 0.950 . S
C652 C651 1.387 . S
C652 C655 1.387 . S
H653 C649 0.950 . S
H654 C651 0.950 . S
C655 C646 1.390 . S
C655 H648 0.950 . S
C655 C652 1.387 . S
C656 C657 1.387 . S
C656 H660 0.950 . S
C656 C665 1.390 . S
C657 C656 1.387 . S
C657 C659 1.387 . S
H658 C665 0.950 . S
C659 C657 1.387 . S
C659 C661 1.390 . S
C659 H663 0.950 . S
H660 C656 0.950 . S
C661 C659 1.390 . S
C661 C662 1.387 . S
C661 H664 0.950 . S
C662 C661 1.387 . S
C662 C665 1.387 . S
H663 C659 0.950 . S
H664 C661 0.950 . S
C665 C656 1.390 . S
C665 H658 0.950 . S
C665 C662 1.387 . S
C666 C667 1.387 . S
C666 H670 0.950 . S
C666 C675 1.390 . S
C667 C666 1.387 . S
C667 C669 1.387 . S
H668 C675 0.950 . S
C669 C667 1.387 . S
C669 C671 1.390 . S
C669 H673 0.950 . S
H670 C666 0.950 . S
C671 C669 1.390 . S
C671 C672 1.387 . S
C671 H674 0.950 . S
C672 C671 1.387 . S
C672 C675 1.387 . S
H673 C669 0.950 . S
H674 C671 0.950 . S
C675 C666 1.390 . S
C675 H668 0.950 . S
C675 C672 1.387 . S
C676 C677 1.387 . S
C676 H680 0.950 . S
C676 C685 1.390 . S
C677 C676 1.387 . S
C677 C679 1.387 . S
H678 C685 0.950 . S
C679 C677 1.387 . S
C679 C681 1.390 . S
C679 H683 0.950 . S
H680 C676 0.950 . S
C681 C679 1.390 . S
C681 C682 1.387 . S
C681 H684 0.950 . S
C682 C681 1.387 . S
C682 C685 1.387 . S
H683 C679 0.950 . S
H684 C681 0.950 . S
C685 C676 1.390 . S
C685 H678 0.950 . S
C685 C682 1.387 . S
C686 C687 1.387 . S
C686 H690 0.950 . S
C686 C695 1.390 . S
C687 C686 1.387 . S
C687 C689 1.387 . S
H688 C695 0.950 . S
C689 C687 1.387 . S
C689 C691 1.390 . S
C689 H693 0.950 . S
H690 C686 0.950 . S
C691 C689 1.390 . S
C691 C692 1.387 . S
C691 H694 0.950 . S
C692 C691 1.387 . S
C692 C695 1.387 . S
H693 C689 0.950 . S
H694 C691 0.950 . S
C695 C686 1.390 . S
C695 H688 0.950 . S
C695 C692 1.387 . S
C397 N299 1.782 . S
C402 N2 1.784 . S
C407 N35 1.784 . S
C412 N332 1.783 . S
C417 N68 1.783 . S
C422 N365 1.783 . S
C427 N101 1.783 . S
C432 N200 1.785 . S
C437 N134 1.785 . S
C442 N233 1.783 . S
C447 N167 1.784 . S
C452 N266 1.784 . S
C457 N343 1.600 . S
C462 N13 1.600 . S
C467 N376 1.601 . S
C472 N46 1.601 . S
C477 N79 1.600 . S
C482 N211 1.600 . S
C487 N244 1.602 . S
C492 N112 1.602 . S
C497 N145 1.601 . S
C502 N277 1.600 . S
C507 N178 1.602 . S
C512 N310 1.601 . S
C517 C106 1.724 . S
C522 C7 1.724 . S
C527 C40 1.719 . S
C532 C139 1.719 . S
C537 C172 1.719 . S
C542 C73 1.719 . S
C547 C304 1.719 . S
C552 C205 1.719 . S
C557 C238 1.719 . S
C562 C337 1.719 . S
C567 C370 1.719 . S
C572 C271 1.719 . S
C577 C18 1.807 . S
C582 C381 1.808 . S
C587 C216 1.807 . S
C592 C51 1.807 . S
C597 C84 1.808 . S
C602 C249 1.807 . S
C607 C117 1.807 . S
C612 C282 1.809 . S
C617 C150 1.807 . S
C622 C315 1.807 . S
C627 C348 1.807 . S
C632 C183 1.809 . S
C637 C21 0.599 . S
C642 C285 0.599 . S
C647 C318 0.599 . S
C652 C54 0.599 . S
C657 C87 0.596 . S
C662 C351 0.597 . S
C667 C384 0.593 . S
C672 C120 0.593 . S
C677 C219 0.592 . S
C682 C153 0.592 . S
C687 C186 0.595 . S
C692 C252 0.596 . S
