# Generated by pormake.
# Topology uov, (4)-cn, num edge types: 1
# Building blocks:
#     Node 0, Type 0, BuildingBlock: CEKHIL_clean_sbu_0, # of connection points: 4
#     Node 1, Type 0, BuildingBlock: CEKHIL_clean_sbu_0, # of connection points: 4
#     Node 2, Type 0, BuildingBlock: CEKHIL_clean_sbu_0, # of connection points: 4
#     Node 3, Type 0, BuildingBlock: CEKHIL_clean_sbu_0, # of connection points: 4
#     Node 4, Type 0, BuildingBlock: CEKHIL_clean_sbu_0, # of connection points: 4
#     Node 5, Type 0, BuildingBlock: CEKHIL_clean_sbu_0, # of connection points: 4
#     Node 6, Type 0, BuildingBlock: CEKHIL_clean_sbu_0, # of connection points: 4
#     Node 7, Type 0, BuildingBlock: CEKHIL_clean_sbu_0, # of connection points: 4
#     Edge 8, Type (0, 0), BuildingBlock: ZUJKAS_clean_linker_0, # of connection points: 2
#     Edge 9, Type (0, 0), BuildingBlock: ZUJKAS_clean_linker_0, # of connection points: 2
#     Edge 10, Type (0, 0), BuildingBlock: ZUJKAS_clean_linker_0, # of connection points: 2
#     Edge 11, Type (0, 0), BuildingBlock: ZUJKAS_clean_linker_0, # of connection points: 2
#     Edge 12, Type (0, 0), BuildingBlock: ZUJKAS_clean_linker_0, # of connection points: 2
#     Edge 13, Type (0, 0), BuildingBlock: ZUJKAS_clean_linker_0, # of connection points: 2
#     Edge 14, Type (0, 0), BuildingBlock: ZUJKAS_clean_linker_0, # of connection points: 2
#     Edge 15, Type (0, 0), BuildingBlock: ZUJKAS_clean_linker_0, # of connection points: 2
#     Edge 16, Type (0, 0), BuildingBlock: ZUJKAS_clean_linker_0, # of connection points: 2
#     Edge 17, Type (0, 0), BuildingBlock: ZUJKAS_clean_linker_0, # of connection points: 2
#     Edge 18, Type (0, 0), BuildingBlock: ZUJKAS_clean_linker_0, # of connection points: 2
#     Edge 19, Type (0, 0), BuildingBlock: ZUJKAS_clean_linker_0, # of connection points: 2
#     Edge 20, Type (0, 0), BuildingBlock: ZUJKAS_clean_linker_0, # of connection points: 2
#     Edge 21, Type (0, 0), BuildingBlock: ZUJKAS_clean_linker_0, # of connection points: 2
#     Edge 22, Type (0, 0), BuildingBlock: ZUJKAS_clean_linker_0, # of connection points: 2
#     Edge 23, Type (0, 0), BuildingBlock: ZUJKAS_clean_linker_0, # of connection points: 2
# Relax obj value: 0.153
# Max RMSD: 0.151
# Mean RMSD: 0.151
data_MOF--net-uov--node1-CEKHIL_clean_sbu_0--edge1-ZUJKAS_clean_linker_0
_symmetry_space_group_name_H-M    P1
_symmetry_Int_Tables_number       1
_symmetry_cell_setting            triclinic
loop_
_symmetry_equiv_pos_as_xyz
'x, y, z'
_cell_length_a     38.552574
_cell_length_b     38.546616
_cell_length_c     54.283395
_cell_angle_alpha  89.995324
_cell_angle_beta   90.032244
_cell_angle_gamma 89.991447
loop_
_atom_site_label
_atom_site_type_symbol
_atom_site_fract_x
_atom_site_fract_y
_atom_site_fract_z
_atom_type_partial_charge
Co0 Co 0.02332 0.26454 0.61647 0.0
O1 O 0.00242 0.30019 0.63623 0.0
O2 O 0.05072 0.30647 0.61456 0.0
C3 C 0.97478 0.24718 0.59683 0.0
O4 O 0.0514 0.23399 0.59317 0.0
Co5 Co 0.00152 0.18765 0.62469 0.0
O6 O 0.02992 0.17967 0.59478 0.0
C7 C 0.04745 0.22177 0.66053 0.0
C8 C 0.02736 0.32023 0.62884 0.0
C9 C 0.05029 0.20232 0.5856 0.0
O10 O 0.05103 0.24772 0.64581 0.0
O11 O 0.02612 0.19693 0.65658 0.0
O12 O 0.99145 0.27455 0.58951 0.0
O13 O 0.98544 0.234 0.61739 0.0
Co14 Co 0.26254 0.97941 0.38465 0.0
O15 O 0.29801 0.99701 0.36315 0.0
O16 O 0.30347 0.95072 0.38705 0.0
C17 C 0.24835 0.03063 0.40203 0.0
O18 O 0.23247 0.95459 0.41006 0.0
Co19 Co 0.18588 0.00335 0.3794 0.0
O20 O 0.18107 0.98192 0.41241 0.0
C21 C 0.2138 0.9497 0.34567 0.0
C22 C 0.31758 0.97234 0.37162 0.0
C23 C 0.20289 0.95981 0.42047 0.0
O24 O 0.24296 0.9496 0.35728 0.0
O25 O 0.18902 0.97065 0.35077 0.0
O26 O 0.27517 0.01336 0.40968 0.0
O27 O 0.23341 0.0184 0.38256 0.0
Co28 Co 0.97554 0.73838 0.6123 0.0
O29 O 0.9924 0.70447 0.63537 0.0
O30 O 0.94849 0.69641 0.60964 0.0
C31 C 0.0276 0.75381 0.59681 0.0
O32 O 0.95204 0.76644 0.58509 0.0
Co33 Co 0.99611 0.81611 0.6173 0.0
O34 O 0.9763 0.81946 0.58374 0.0
C35 C 0.94091 0.78729 0.64912 0.0
C36 C 0.96907 0.68375 0.62638 0.0
C37 C 0.95632 0.79629 0.57484 0.0
O38 O 0.94274 0.75789 0.63791 0.0
O39 O 0.96136 0.81268 0.64459 0.0
O40 O 0.01212 0.72592 0.58917 0.0
O41 O 0.01316 0.76908 0.61536 0.0
Co42 Co 0.73965 0.02168 0.38264 0.0
O43 O 0.70265 0.00332 0.36289 0.0
O44 O 0.6985 0.04982 0.38672 0.0
C45 C 0.75605 0.97076 0.39938 0.0
O46 O 0.77186 0.04716 0.40637 0.0
Co47 Co 0.81573 0.99868 0.37324 0.0
O48 O 0.82407 0.02116 0.40559 0.0
C49 C 0.78232 0.04899 0.33964 0.0
C50 C 0.68352 0.02794 0.37187 0.0
C51 C 0.80272 0.04271 0.41495 0.0
O52 O 0.75596 0.05118 0.35411 0.0
O53 O 0.80725 0.02753 0.34305 0.0
O54 O 0.73003 0.98788 0.40844 0.0
O55 O 0.7689 0.98304 0.37921 0.0
Co56 Co 0.9766 0.26358 0.11267 0.0
O57 O 0.99359 0.29725 0.13589 0.0
O58 O 0.94908 0.30533 0.11069 0.0
C59 C 0.0287 0.24912 0.09667 0.0
O60 O 0.95262 0.23582 0.08551 0.0
Co61 Co 0.99813 0.18596 0.11596 0.0
O62 O 0.97895 0.18401 0.08213 0.0
C63 C 0.9433 0.21323 0.149 0.0
C64 C 0.96991 0.31792 0.12729 0.0
C65 C 0.9578 0.20686 0.07423 0.0
O66 O 0.94458 0.24311 0.13839 0.0
O67 O 0.96385 0.18822 0.14365 0.0
O68 O 0.01269 0.27687 0.08931 0.0
O69 O 0.01457 0.23322 0.11506 0.0
Co70 Co 0.26473 0.02067 0.88618 0.0
O71 O 0.29899 0.00152 0.86438 0.0
O72 O 0.30665 0.0481 0.88767 0.0
C73 C 0.2492 0.97026 0.9042 0.0
O74 O 0.23591 0.04688 0.91161 0.0
Co75 Co 0.18731 0.99905 0.88098 0.0
O76 O 0.18322 0.02194 0.91359 0.0
C77 C 0.21776 0.04849 0.84556 0.0
C78 C 0.31951 0.02587 0.87211 0.0
C79 C 0.20594 0.04307 0.92176 0.0
O80 O 0.24555 0.05045 0.85867 0.0
O81 O 0.19305 0.02726 0.85018 0.0
O82 O 0.27682 0.98666 0.91139 0.0
O83 O 0.23434 0.98274 0.88478 0.0
Co84 Co 0.01998 0.73733 0.11599 0.0
O85 O 0.00191 0.70245 0.13781 0.0
O86 O 0.04792 0.69583 0.11382 0.0
C87 C 0.9688 0.75223 0.09879 0.0
O88 O 0.04529 0.76665 0.09036 0.0
Co89 Co 0.99746 0.81449 0.12069 0.0
O90 O 0.01908 0.8186 0.08771 0.0
C91 C 0.05092 0.78609 0.15443 0.0
C92 C 0.02628 0.68238 0.12953 0.0
C93 C 0.04079 0.79627 0.07983 0.0
O94 O 0.0503 0.75667 0.14316 0.0
O95 O 0.03048 0.81121 0.14913 0.0
O96 O 0.98557 0.72513 0.0911 0.0
O97 O 0.98154 0.76717 0.11808 0.0
Co98 Co 0.73795 0.97542 0.88362 0.0
O99 O 0.7029 0.99358 0.86196 0.0
O100 O 0.69633 0.94772 0.88614 0.0
C101 C 0.7535 0.02655 0.9006 0.0
O102 O 0.76756 0.95021 0.9092 0.0
Co103 Co 0.81511 0.9974 0.87737 0.0
O104 O 0.82103 0.97362 0.90942 0.0
C105 C 0.7847 0.94559 0.84351 0.0
C106 C 0.68283 0.9693 0.87039 0.0
C107 C 0.79828 0.95319 0.91835 0.0
O108 O 0.75655 0.94494 0.85628 0.0
O109 O 0.80967 0.96661 0.84791 0.0
O110 O 0.72625 0.01014 0.90841 0.0
O111 O 0.76804 0.01357 0.88124 0.0
H112 H 0.93916 0.63063 0.60086 0.0
H113 H 0.94845 0.5686 0.6072 0.0
H114 H 0.00861 0.59056 0.67242 0.0
H115 H 0.00051 0.65274 0.6656 0.0
H116 H 0.04276 0.54824 0.64349 0.0
H117 H 0.90924 0.49801 0.65304 0.0
H118 H 0.91407 0.52238 0.62514 0.0
H119 H 0.91898 0.54374 0.65447 0.0
C120 C 0.95367 0.62221 0.61688 0.0
C121 C 0.96913 0.64651 0.63273 0.0
C122 C 0.95886 0.58669 0.62055 0.0
C123 C 0.97894 0.57481 0.64046 0.0
C124 C 0.99303 0.59908 0.65695 0.0
H125 H 0.99325 0.35211 0.66636 0.0
H126 H 0.98507 0.41441 0.67239 0.0
C127 C 0.98827 0.6346 0.65308 0.0
C128 C 0.98788 0.53748 0.64274 0.0
H129 H 0.95303 0.45617 0.64242 0.0
C130 C 0.0231 0.52811 0.64362 0.0
C131 C 0.96232 0.51117 0.64324 0.0
C132 C 0.92406 0.51936 0.6442 0.0
C133 C 0.03346 0.49321 0.64418 0.0
C134 C 0.00793 0.4669 0.64307 0.0
C135 C 0.97269 0.47628 0.643 0.0
C136 C 0.01689 0.42949 0.64133 0.0
C137 C 0.07164 0.48503 0.64614 0.0
C138 C 0.0382 0.41718 0.62223 0.0
C139 C 0.04348 0.38155 0.61906 0.0
C140 C 0.02682 0.35764 0.63457 0.0
C141 C 0.00636 0.36999 0.6541 0.0
C142 C 0.00159 0.40557 0.65752 0.0
H143 H 0.08602 0.50646 0.65526 0.0
H144 H 0.07621 0.46074 0.65664 0.0
H145 H 0.08255 0.48185 0.62737 0.0
H146 H 0.04957 0.43498 0.60909 0.0
H147 H 0.05901 0.37272 0.60366 0.0
H148 H 0.63299 0.05715 0.40039 0.0
H149 H 0.57035 0.04749 0.39699 0.0
H150 H 0.58632 0.98994 0.32978 0.0
H151 H 0.64893 0.99831 0.33364 0.0
H152 H 0.52065 0.06154 0.36427 0.0
H153 H 0.53687 0.91903 0.37099 0.0
H154 H 0.57212 0.94884 0.37626 0.0
H155 H 0.55977 0.93729 0.34533 0.0
C156 C 0.62305 0.04291 0.3847 0.0
C157 C 0.64578 0.0281 0.36744 0.0
C158 C 0.58729 0.03728 0.38282 0.0
C159 C 0.57376 0.01705 0.36353 0.0
C160 C 0.59627 0.00457 0.34527 0.0
H161 H 0.35154 0.00492 0.33418 0.0
H162 H 0.41413 0.01368 0.33028 0.0
C163 C 0.632 0.00967 0.34737 0.0
C164 C 0.53635 0.00799 0.36303 0.0
H165 H 0.4803 0.93937 0.36152 0.0
C166 C 0.51181 0.03484 0.36367 0.0
C167 C 0.52483 0.97307 0.36279 0.0
C168 C 0.54976 0.9429 0.36407 0.0
C169 C 0.47608 0.0278 0.36387 0.0
C170 C 0.46458 0.99292 0.36253 0.0
C171 C 0.48913 0.96607 0.36211 0.0
C172 C 0.42718 0.98377 0.36275 0.0
C173 C 0.45114 0.05779 0.36634 0.0
C174 C 0.41393 0.96191 0.38119 0.0
C175 C 0.37823 0.9561 0.38306 0.0
C176 C 0.35521 0.97233 0.36663 0.0
C177 C 0.36868 0.99239 0.34726 0.0
C178 C 0.4044 0.99773 0.34517 0.0
H179 H 0.464 0.08111 0.37418 0.0
H180 H 0.44107 0.06485 0.34785 0.0
H181 H 0.42881 0.05087 0.37828 0.0
H182 H 0.43107 0.95056 0.39481 0.0
H183 H 0.36859 0.94057 0.39821 0.0
H184 H 0.93991 0.37108 0.10188 0.0
H185 H 0.94991 0.43311 0.1079 0.0
H186 H 0.00972 0.4111 0.17326 0.0
H187 H 0.00103 0.34889 0.16672 0.0
H188 H 0.93719 0.47987 0.1425 0.0
H189 H 0.07958 0.46363 0.13329 0.0
H190 H 0.04951 0.42887 0.12725 0.0
H191 H 0.06143 0.4395 0.15842 0.0
C192 C 0.95474 0.37947 0.11775 0.0
C193 C 0.97007 0.35516 0.13365 0.0
C194 C 0.96053 0.41495 0.12114 0.0
C195 C 0.98146 0.42672 0.14062 0.0
C196 C 0.99451 0.40257 0.15762 0.0
H197 H 0.99528 0.65031 0.16847 0.0
H198 H 0.98685 0.58793 0.17426 0.0
C199 C 0.98922 0.36706 0.15401 0.0
C200 C 0.99071 0.46404 0.14235 0.0
H201 H 0.05945 0.52001 0.14261 0.0
C202 C 0.96392 0.48867 0.14262 0.0
C203 C 0.02564 0.4755 0.14205 0.0
C204 C 0.0557 0.45055 0.13998 0.0
C205 C 0.97099 0.52439 0.14234 0.0
C206 C 0.00592 0.53585 0.1427 0.0
C207 C 0.03272 0.51121 0.14267 0.0
C208 C 0.01514 0.57322 0.14143 0.0
C209 C 0.9409 0.54936 0.14056 0.0
C210 C 0.03602 0.58555 0.12212 0.0
C211 C 0.04169 0.62113 0.11917 0.0
C212 C 0.02625 0.64498 0.13536 0.0
C213 C 0.00715 0.6325 0.15555 0.0
C214 C 0.00202 0.59689 0.15873 0.0
H215 H 0.91704 0.53641 0.13367 0.0
H216 H 0.93514 0.55991 0.15912 0.0
H217 H 0.94706 0.57137 0.12811 0.0
H218 H 0.0467 0.56775 0.10866 0.0
H219 H 0.05649 0.63001 0.10343 0.0
H220 H 0.37291 0.05787 0.8961 0.0
H221 H 0.43491 0.04852 0.8895 0.0
H222 H 0.41206 0.98362 0.82678 0.0
H223 H 0.35 0.99183 0.8339 0.0
H224 H 0.45502 0.95177 0.85639 0.0
H225 H 0.50452 0.08461 0.84162 0.0
H226 H 0.4807 0.08171 0.86988 0.0
H227 H 0.45881 0.07463 0.84096 0.0
C228 C 0.38114 0.04228 0.88056 0.0
C229 C 0.35665 0.02554 0.86553 0.0
C230 C 0.41662 0.03705 0.87673 0.0
C231 C 0.42824 0.01563 0.85746 0.0
C232 C 0.40375 0.00023 0.84175 0.0
H233 H 0.65106 0.00034 0.83138 0.0
H234 H 0.58875 0.00777 0.82486 0.0
C235 C 0.3683 0.00504 0.8458 0.0
C236 C 0.46557 0.00668 0.85513 0.0
H237 H 0.54673 0.04178 0.85351 0.0
C238 C 0.47506 0.97147 0.8554 0.0
C239 C 0.49176 0.03227 0.85346 0.0
C240 C 0.48339 0.07038 0.85119 0.0
C241 C 0.50998 0.9612 0.8549 0.0
C242 C 0.53621 0.98686 0.85493 0.0
C243 C 0.52669 0.02203 0.85377 0.0
C244 C 0.57364 0.97813 0.85699 0.0
C245 C 0.51826 0.92295 0.85421 0.0
C246 C 0.58595 0.95827 0.87688 0.0
C247 C 0.62157 0.95341 0.88035 0.0
C248 C 0.64551 0.96905 0.86434 0.0
C249 C 0.63317 0.988 0.84403 0.0
C250 C 0.59758 0.99236 0.84033 0.0
H251 H 0.49685 0.90795 0.84557 0.0
H252 H 0.54254 0.91775 0.84386 0.0
H253 H 0.52146 0.91326 0.87332 0.0
H254 H 0.56814 0.94779 0.89037 0.0
H255 H 0.63035 0.93906 0.89634 0.0
H256 H 0.26462 0.04805 0.44928 0.0
H257 H 0.23231 0.08646 0.47668 0.0
H258 H 0.16327 0.11319 0.41705 0.0
H259 H 0.1948 0.07369 0.38969 0.0
H260 H 0.2152 0.15482 0.47774 0.0
H261 H 0.09703 0.07352 0.46714 0.0
H262 H 0.13867 0.06037 0.45533 0.0
H263 H 0.11299 0.09177 0.43893 0.0
C264 C 0.24279 0.06239 0.4419 0.0
C265 C 0.2319 0.05752 0.41745 0.0
C266 C 0.2244 0.08441 0.45758 0.0
C267 C 0.19495 0.10213 0.44905 0.0
C268 C 0.1854 0.09908 0.42418 0.0
H269 H 0.08212 0.24247 0.55034 0.0
H270 H 0.11748 0.2222 0.5156 0.0
C271 C 0.20352 0.07667 0.40854 0.0
C272 C 0.17306 0.12158 0.46676 0.0
H273 H 0.09282 0.12185 0.49323 0.0
C274 C 0.18834 0.14785 0.48105 0.0
C275 C 0.13815 0.11211 0.4712 0.0
C276 C 0.12076 0.08272 0.45753 0.0
C277 C 0.16994 0.16426 0.50012 0.0
C278 C 0.13509 0.15466 0.50458 0.0
C279 C 0.11952 0.12924 0.48972 0.0
C280 C 0.11505 0.16797 0.52591 0.0
C281 C 0.18848 0.19047 0.51603 0.0
C282 C 0.10162 0.14428 0.54303 0.0
C283 C 0.08104 0.15564 0.5625 0.0
C284 C 0.07359 0.19109 0.56547 0.0
C285 C 0.08763 0.21502 0.54863 0.0
C286 C 0.10796 0.2035 0.52885 0.0
H287 H 0.21709 0.18908 0.51373 0.0
H288 H 0.17997 0.21695 0.51078 0.0
H289 H 0.18219 0.18648 0.53579 0.0
H290 H 0.10684 0.11677 0.5412 0.0
H291 H 0.0709 0.13653 0.57523 0.0
H292 H 0.23607 0.90241 0.4393 0.0
H293 H 0.21472 0.86321 0.47154 0.0
H294 H 0.12504 0.92842 0.48169 0.0
H295 H 0.14585 0.96757 0.44972 0.0
H296 H 0.19228 0.87698 0.52361 0.0
H297 H 0.08779 0.8297 0.4617 0.0
H298 H 0.12572 0.85216 0.45043 0.0
H299 H 0.09067 0.87612 0.4641 0.0
C300 C 0.21201 0.90863 0.44859 0.0
C301 C 0.19244 0.9379 0.44164 0.0
C302 C 0.19991 0.88623 0.467 0.0
C303 C 0.16811 0.89276 0.47864 0.0
C304 C 0.14942 0.92275 0.47262 0.0
H305 H 0.05693 0.81767 0.60372 0.0
H306 H 0.09648 0.84795 0.57588 0.0
C307 C 0.16141 0.94508 0.45431 0.0
C308 C 0.15312 0.86751 0.49614 0.0
H309 H 0.0828 0.81513 0.50408 0.0
C310 C 0.16858 0.86309 0.51933 0.0
C311 C 0.12253 0.84908 0.49028 0.0
C312 C 0.1058 0.85166 0.4652 0.0
C313 C 0.15324 0.84173 0.53728 0.0
C314 C 0.12154 0.82486 0.53187 0.0
C315 C 0.107 0.82822 0.50828 0.0
C316 C 0.10182 0.80491 0.55053 0.0
C317 C 0.17103 0.83752 0.56185 0.0
C318 C 0.09166 0.77066 0.54556 0.0
C319 C 0.06868 0.75349 0.56126 0.0
C320 C 0.05537 0.7703 0.58219 0.0
C321 C 0.06677 0.80403 0.58775 0.0
C322 C 0.08963 0.82128 0.57196 0.0
H323 H 0.19931 0.8427 0.56042 0.0
H324 H 0.15993 0.8564 0.57511 0.0
H325 H 0.16718 0.811 0.56935 0.0
H326 H 0.10063 0.75762 0.52908 0.0
H327 H 0.06046 0.72746 0.55652 0.0
H328 H 0.80168 0.92265 0.38181 0.0
H329 H 0.83268 0.87822 0.40544 0.0
H330 H 0.78128 0.91262 0.47172 0.0
H331 H 0.74907 0.95555 0.44802 0.0
H332 H 0.87804 0.88703 0.43859 0.0
H333 H 0.77398 0.81172 0.48243 0.0
H334 H 0.76533 0.84163 0.45759 0.0
H335 H 0.76712 0.85667 0.48907 0.0
C336 C 0.79654 0.92014 0.40135 0.0
C337 C 0.77291 0.94237 0.41309 0.0
C338 C 0.81422 0.89476 0.41483 0.0
C339 C 0.80887 0.89148 0.44034 0.0
C340 C 0.78498 0.9136 0.45197 0.0
H341 H 0.95162 0.85943 0.55257 0.0
H342 H 0.91725 0.87546 0.51695 0.0
C343 C 0.76682 0.93846 0.43843 0.0
C344 C 0.83099 0.86798 0.45533 0.0
H345 H 0.82878 0.81455 0.50546 0.0
C346 C 0.86715 0.87053 0.45281 0.0
C347 C 0.8171 0.84556 0.47351 0.0
C348 C 0.77873 0.83846 0.47556 0.0
C349 C 0.88962 0.85366 0.46919 0.0
C350 C 0.87558 0.83479 0.4892 0.0
C351 C 0.83958 0.82972 0.49049 0.0
C352 C 0.89739 0.82377 0.51031 0.0
C353 C 0.92821 0.85702 0.46521 0.0
C354 C 0.8968 0.78948 0.51909 0.0
C355 C 0.91617 0.7802 0.53994 0.0
C356 C 0.93635 0.80513 0.55235 0.0
C357 C 0.93676 0.83938 0.5434 0.0
C358 C 0.91728 0.8486 0.52282 0.0
H359 H 0.93433 0.85948 0.44528 0.0
H360 H 0.93766 0.8809 0.47445 0.0
H361 H 0.94253 0.83439 0.47275 0.0
H362 H 0.88128 0.76998 0.50987 0.0
H363 H 0.91521 0.75362 0.54637 0.0
H364 H 0.77067 0.09931 0.43588 0.0
H365 H 0.79377 0.13729 0.46823 0.0
H366 H 0.88483 0.07284 0.47378 0.0
H367 H 0.8624 0.0351 0.44151 0.0
H368 H 0.816 0.12363 0.51769 0.0
H369 H 0.92356 0.17004 0.4585 0.0
H370 H 0.88643 0.14722 0.44633 0.0
H371 H 0.92126 0.12362 0.46067 0.0
C372 C 0.79552 0.0931 0.44409 0.0
C373 C 0.81488 0.0644 0.43582 0.0
C374 C 0.80864 0.11481 0.46257 0.0
C375 C 0.84128 0.10819 0.47302 0.0
C376 C 0.85991 0.0788 0.46557 0.0
H377 H 0.94584 0.18287 0.60278 0.0
H378 H 0.90936 0.15155 0.57335 0.0
C379 C 0.84696 0.05721 0.44712 0.0
C380 C 0.85664 0.13235 0.49122 0.0
H381 H 0.92795 0.18273 0.50131 0.0
C382 C 0.8403 0.13686 0.5141 0.0
C383 C 0.88802 0.15001 0.48629 0.0
C384 C 0.90571 0.14781 0.46153 0.0
C385 C 0.85529 0.15762 0.53255 0.0
C386 C 0.88766 0.17373 0.52806 0.0
C387 C 0.90328 0.17014 0.50485 0.0
C388 C 0.90646 0.19384 0.54716 0.0
C389 C 0.83626 0.1622 0.5566 0.0
C390 C 0.91718 0.22792 0.54219 0.0
C391 C 0.93844 0.24564 0.55879 0.0
C392 C 0.94939 0.22962 0.58071 0.0
C393 C 0.9377 0.19594 0.5861 0.0
C394 C 0.91662 0.1781 0.56937 0.0
H395 H 0.808 0.15749 0.55442 0.0
H396 H 0.84633 0.1432 0.5702 0.0
H397 H 0.84014 0.18869 0.56416 0.0
H398 H 0.90978 0.24053 0.52514 0.0
H399 H 0.94696 0.2716 0.55414 0.0
H400 H 0.72738 0.05852 0.94136 0.0
H401 H 0.7567 0.10042 0.96801 0.0
H402 H 0.84589 0.09863 0.92006 0.0
H403 H 0.81637 0.05749 0.89299 0.0
H404 H 0.81475 0.0865 0.99271 0.0
H405 H 0.8377 0.20127 0.93375 0.0
H406 H 0.8073 0.16754 0.92553 0.0
H407 H 0.85293 0.16202 0.91969 0.0
C408 C 0.75298 0.06758 0.93624 0.0
C409 C 0.76967 0.0546 0.91515 0.0
C410 C 0.76967 0.09155 0.95146 0.0
C411 C 0.80333 0.10302 0.94589 0.0
C412 C 0.81961 0.09088 0.92442 0.0
H413 H 0.96863 0.15428 0.04154 0.0
H414 H 0.92929 0.13382 0.00951 0.0
C415 C 0.80282 0.06707 0.90908 0.0
C416 C 0.82293 0.1242 0.96397 0.0
H417 H 0.87366 0.19644 0.9701 0.0
C418 C 0.82711 0.11083 0.98784 0.0
C419 C 0.8389 0.15608 0.9577 0.0
C420 C 0.8337 0.17276 0.93284 0.0
C421 C 0.84805 0.12761 0.00522 0.0
C422 C 0.86565 0.1583 0.99848 0.0
C423 C 0.86036 0.17265 0.97504 0.0
C424 C 0.89125 0.17419 0.01529 0.0
C425 C 0.85191 0.11196 0.03057 0.0
C426 C 0.88332 0.20445 0.02848 0.0
C427 C 0.90581 0.21631 0.04694 0.0
C428 C 0.93642 0.19793 0.05243 0.0
C429 C 0.94507 0.1688 0.03807 0.0
C430 C 0.92269 0.15708 0.01969 0.0
H431 H 0.83128 0.09262 0.03451 0.0
H432 H 0.8774 0.0987 0.03188 0.0
H433 H 0.85112 0.13246 0.04493 0.0
H434 H 0.8591 0.21795 0.02524 0.0
H435 H 0.89842 0.23887 0.05761 0.0
H436 H 0.2394 0.10107 0.93951 0.0
H437 H 0.21878 0.14074 0.97172 0.0
H438 H 0.13002 0.07498 0.98397 0.0
H439 H 0.15007 0.03548 0.95202 0.0
H440 H 0.11566 0.14703 0.97273 0.0
H441 H 0.21082 0.12959 0.04902 0.0
H442 H 0.22723 0.13541 0.01822 0.0
H443 H 0.20379 0.09671 0.02582 0.0
C444 C 0.21579 0.09478 0.94934 0.0
C445 C 0.1962 0.06527 0.94297 0.0
C446 C 0.20413 0.11742 0.96777 0.0
C447 C 0.17293 0.11068 0.98018 0.0
C448 C 0.15415 0.08061 0.97454 0.0
H449 H 0.05825 0.18527 0.10278 0.0
H450 H 0.09802 0.15584 0.07464 0.0
C451 C 0.16565 0.05811 0.9562 0.0
C452 C 0.1578 0.13612 0.99752 0.0
H453 H 0.16477 0.1687 0.0558 0.0
C454 C 0.12655 0.15213 0.99081 0.0
C455 C 0.1721 0.1424 0.02106 0.0
C456 C 0.20525 0.12509 0.02919 0.0
C457 C 0.10851 0.17349 0.00728 0.0
C458 C 0.12254 0.17959 0.03099 0.0
C459 C 0.15429 0.16421 0.03754 0.0
C460 C 0.10295 0.19942 0.04976 0.0
C461 C 0.07375 0.18796 -0.00047 0.0
C462 C 0.09356 0.2341 0.04557 0.0
C463 C 0.07044 0.25083 0.06143 0.0
C464 C 0.05672 0.23326 0.08192 0.0
C465 C 0.06811 0.19938 0.08702 0.0
C466 C 0.09096 0.18257 0.07102 0.0
H467 H 0.06341 0.17476 0.98288 0.0
H468 H 0.05444 0.18537 0.01459 0.0
H469 H 0.07661 0.21594 0.99516 0.0
H470 H 0.1031 0.24779 0.02952 0.0
H471 H 0.06247 0.27711 0.05721 0.0
H472 H 0.09864 0.76264 0.06214 0.0
H473 H 0.13909 0.78367 0.03058 0.0
H474 H 0.07432 0.87326 0.01864 0.0
H475 H 0.03397 0.85279 0.04995 0.0
H476 H 0.12807 0.80531 0.97837 0.0
H477 H 0.1717 0.91126 0.04026 0.0
H478 H 0.14881 0.87348 0.05133 0.0
H479 H 0.12543 0.90832 0.03688 0.0
C480 C 0.09277 0.78659 0.05258 0.0
C481 C 0.06329 0.80627 0.05886 0.0
C482 C 0.11591 0.79853 0.03457 0.0
C483 C 0.10988 0.83025 0.02266 0.0
C484 C 0.07964 0.84897 0.02796 0.0
H485 H 0.18625 0.93916 0.89739 0.0
H486 H 0.15642 0.8999 0.92565 0.0
C487 C 0.05661 0.83717 0.04588 0.0
C488 C 0.1358 0.84515 0.00561 0.0
H489 H 0.18716 0.9163 0.99796 0.0
C490 C 0.14139 0.82934 0.98268 0.0
C491 C 0.15357 0.87612 0.01154 0.0
C492 C 0.14991 0.89318 0.03643 0.0
C493 C 0.16311 0.84474 0.96499 0.0
C494 C 0.17908 0.87695 0.97035 0.0
C495 C 0.17472 0.89176 0.99376 0.0
C496 C 0.19885 0.89694 0.95172 0.0
C497 C 0.16858 0.8265 0.94072 0.0
C498 C 0.23255 0.90855 0.95701 0.0
C499 C 0.24945 0.93143 0.94107 0.0
C500 C 0.2329 0.94316 0.91955 0.0
C501 C 0.19969 0.93051 0.9138 0.0
C502 C 0.18272 0.9078 0.92984 0.0
H503 H 0.16449 0.79808 0.94251 0.0
H504 H 0.14956 0.83646 0.9271 0.0
H505 H 0.19509 0.83119 0.93346 0.0
H506 H 0.24541 0.90066 0.97386 0.0
H507 H 0.27507 0.94066 0.94597 0.0
H508 H 0.75634 0.91514 0.94936 0.0
H509 H 0.77449 0.88029 0.98501 0.0
H510 H 0.8813 0.90634 0.9704 0.0
H511 H 0.86361 0.94158 0.93552 0.0
H512 H 0.81634 0.82394 0.98865 0.0
H513 H 0.87375 0.93118 0.04208 0.0
H514 H 0.84625 0.93868 0.0157 0.0
H515 H 0.89187 0.93002 0.01171 0.0
C516 C 0.78366 0.91356 0.95386 0.0
C517 C 0.80846 0.93153 0.93974 0.0
C518 C 0.79397 0.89366 0.97423 0.0
C519 C 0.82918 0.89145 0.98074 0.0
C520 C 0.85391 0.90859 0.96625 0.0
H521 H 0.95295 0.73969 0.05071 0.0
H522 H 0.91253 0.7718 0.02474 0.0
C523 C 0.84369 0.92862 0.94617 0.0
C524 C 0.8408 0.87048 0.00213 0.0
H525 H 0.89546 0.87374 0.05144 0.0
C526 C 0.8331 0.8349 0.00269 0.0
C527 C 0.86188 0.88487 0.02086 0.0
C528 C 0.86856 0.92337 0.02272 0.0
C529 C 0.84795 0.81294 0.02048 0.0
C530 C 0.87189 0.82684 0.03765 0.0
C531 C 0.87761 0.86282 0.03808 0.0
C532 C 0.8933 0.80465 0.05412 0.0
C533 C 0.83798 0.77511 0.02049 0.0
C534 C 0.89661 0.81271 0.07926 0.0
C535 C 0.92047 0.79495 0.09401 0.0
C536 C 0.9412 0.76857 0.08394 0.0
C537 C 0.93702 0.75964 0.05904 0.0
C538 C 0.91362 0.7778 0.0442 0.0
H539 H 0.81104 0.77155 0.01365 0.0
H540 H 0.85545 0.76069 0.00788 0.0
H541 H 0.83998 0.76358 0.03918 0.0
H542 H 0.8814 0.83342 0.08734 0.0
H543 H 0.92318 0.80233 0.11317 0.0
H544 H 0.03475 0.18757 0.70339 0.0
H545 H 0.07605 0.17396 0.73605 0.0
H546 H 0.15484 0.23344 0.69876 0.0
H547 H 0.11327 0.24764 0.66593 0.0
H548 H 0.17201 0.16189 0.70936 0.0
H549 H 0.12357 0.23019 0.79212 0.0
H550 H 0.08966 0.20906 0.77509 0.0
H551 H 0.11338 0.24411 0.76113 0.0
C552 C 0.06062 0.19844 0.70239 0.0
C553 C 0.0708 0.21856 0.68205 0.0
C554 C 0.08414 0.19083 0.72116 0.0
C555 C 0.11839 0.20295 0.71993 0.0
C556 C 0.1284 0.22415 0.70014 0.0
H557 H 0.24562 0.11358 0.83998 0.0
H558 H 0.23033 0.15676 0.80841 0.0
C559 C 0.10462 0.23228 0.68146 0.0
C560 C 0.14422 0.18941 0.7377 0.0
H561 H 0.15618 0.17733 0.79939 0.0
C562 C 0.1693 0.16602 0.72903 0.0
C563 C 0.1409 0.19507 0.76332 0.0
C564 C 0.11564 0.22126 0.77349 0.0
C565 C 0.18886 0.14576 0.74543 0.0
C566 C 0.18306 0.14902 0.77102 0.0
C567 C 0.16036 0.17469 0.77972 0.0
C568 C 0.19574 0.12254 0.78858 0.0
C569 C 0.21419 0.11962 0.73529 0.0
C570 C 0.18149 0.08911 0.78771 0.0
C571 C 0.18974 0.06471 0.80574 0.0
C572 C 0.21268 0.07314 0.82496 0.0
C573 C 0.22807 0.10626 0.82529 0.0
C574 C 0.21932 0.13096 0.80736 0.0
H575 H 0.22276 0.12667 0.7164 0.0
H576 H 0.23733 0.11734 0.74739 0.0
H577 H 0.20145 0.09383 0.73439 0.0
H578 H 0.1629 0.08228 0.77353 0.0
H579 H 0.1775 0.03944 0.80494 0.0
H580 H 0.0708 0.84841 0.17312 0.0
H581 H 0.11411 0.86013 0.20446 0.0
H582 H 0.13542 0.75073 0.21109 0.0
H583 H 0.09164 0.73845 0.17919 0.0
H584 H 0.12287 0.78652 0.25674 0.0
H585 H 0.22105 0.855 0.2011 0.0
H586 H 0.17815 0.87027 0.19421 0.0
H587 H 0.18947 0.82586 0.1877 0.0
C588 C 0.08463 0.82665 0.18108 0.0
C589 C 0.07755 0.79241 0.17366 0.0
C590 C 0.10976 0.83351 0.19883 0.0
C591 C 0.12849 0.80639 0.20971 0.0
C592 C 0.12155 0.77205 0.2026 0.0
H593 H 0.2606 0.90571 0.32302 0.0
H594 H 0.24795 0.86167 0.29141 0.0
C595 C 0.09649 0.76511 0.18448 0.0
C596 C 0.15288 0.81475 0.22995 0.0
H597 H 0.21558 0.874 0.24399 0.0
C598 C 0.14397 0.80471 0.25395 0.0
C599 C 0.18087 0.83792 0.22633 0.0
C600 C 0.1932 0.84758 0.20088 0.0
C601 C 0.15961 0.82045 0.27445 0.0
C602 C 0.18434 0.84705 0.27073 0.0
C603 C 0.19618 0.85401 0.24682 0.0
C604 C 0.19283 0.87208 0.29053 0.0
C605 C 0.14785 0.81019 0.29991 0.0
C606 C 0.1662 0.8929 0.3 0.0
C607 C 0.17329 0.91815 0.31761 0.0
C608 C 0.2073 0.92328 0.3263 0.0
C609 C 0.23413 0.90241 0.31676 0.0
C610 C 0.22697 0.87719 0.29879 0.0
H611 H 0.13879 0.78283 0.30028 0.0
H612 H 0.16902 0.81342 0.31361 0.0
H613 H 0.12577 0.82692 0.30549 0.0
H614 H 0.1398 0.88993 0.29346 0.0
H615 H 0.15188 0.93353 0.3245 0.0
H616 H 0.9019 0.73868 0.67416 0.0
H617 H 0.85786 0.7499 0.70602 0.0
H618 H 0.87361 0.85997 0.69732 0.0
H619 H 0.91711 0.84924 0.66594 0.0
H620 H 0.87055 0.78581 0.75036 0.0
H621 H 0.76765 0.85196 0.69778 0.0
H622 H 0.79959 0.82432 0.68329 0.0
H623 H 0.80943 0.86908 0.68986 0.0
C624 C 0.89563 0.76525 0.67889 0.0
C625 C 0.91323 0.79305 0.66763 0.0
C626 C 0.87042 0.77159 0.697 0.0
C627 C 0.86196 0.80579 0.70364 0.0
C628 C 0.87906 0.83341 0.69206 0.0
H629 H 0.84374 0.93375 0.81733 0.0
H630 H 0.85361 0.89109 0.78525 0.0
C631 C 0.90434 0.82716 0.67431 0.0
C632 C 0.83845 0.81354 0.72451 0.0
H633 H 0.77562 0.87167 0.74054 0.0
C634 C 0.84893 0.80357 0.74822 0.0
C635 C 0.80982 0.83621 0.72176 0.0
C636 C 0.79574 0.84568 0.69674 0.0
C637 C 0.83431 0.81902 0.76918 0.0
C638 C 0.80891 0.84515 0.76624 0.0
C639 C 0.79549 0.85199 0.74273 0.0
C640 C 0.80163 0.87011 0.78627 0.0
C641 C 0.84799 0.80925 0.79426 0.0
C642 C 0.76871 0.87301 0.79711 0.0
C643 C 0.76284 0.89761 0.81573 0.0
C644 C 0.7897 0.91995 0.8234 0.0
C645 C 0.82237 0.91712 0.81202 0.0
C646 C 0.82821 0.89251 0.79374 0.0
H647 H 0.85871 0.78249 0.79429 0.0
H648 H 0.86921 0.82732 0.79941 0.0
H649 H 0.82733 0.81112 0.80845 0.0
H650 H 0.74777 0.85614 0.79132 0.0
H651 H 0.73736 0.89914 0.82405 0.0
H652 H 0.8237 0.04231 0.29934 0.0
H653 H 0.8336 0.08449 0.2667 0.0
H654 H 0.75862 0.15346 0.29937 0.0
H655 H 0.7482 0.11099 0.33242 0.0
H656 H 0.77587 0.1222 0.23389 0.0
H657 H 0.86119 0.20377 0.29329 0.0
H658 H 0.85654 0.15816 0.30008 0.0
H659 H 0.82044 0.18679 0.30443 0.0
C660 C 0.80899 0.06626 0.29958 0.0
C661 C 0.78531 0.07335 0.31861 0.0
C662 C 0.81463 0.09029 0.28084 0.0
C663 C 0.79697 0.12203 0.28076 0.0
C664 C 0.7725 0.12903 0.29922 0.0
H665 H 0.90214 0.26007 0.17415 0.0
H666 H 0.85748 0.24672 0.20519 0.0
C667 C 0.76655 0.10472 0.31799 0.0
C668 C 0.80619 0.14787 0.26176 0.0
H669 H 0.86866 0.20838 0.25023 0.0
C670 C 0.79529 0.14193 0.23749 0.0
C671 C 0.83119 0.1738 0.26658 0.0
C672 C 0.84315 0.18132 0.29248 0.0
C673 C 0.81114 0.15907 0.21768 0.0
C674 C 0.83905 0.18197 0.22232 0.0
C675 C 0.8474 0.19062 0.24671 0.0
C676 C 0.86406 0.19109 0.20265 0.0
C677 C 0.79944 0.15078 0.19183 0.0
C678 C 0.88282 0.16433 0.19138 0.0
C679 C 0.90839 0.17177 0.17409 0.0
C680 C 0.91593 0.20627 0.16757 0.0
C681 C 0.89694 0.23323 0.17875 0.0
C682 C 0.8714 0.22568 0.1964 0.0
H683 H 0.77153 0.14362 0.19146 0.0
H684 H 0.80371 0.1731 0.17925 0.0
H685 H 0.81445 0.12828 0.18482 0.0
H686 H 0.87813 0.1375 0.19633 0.0
H687 H 0.92223 0.15028 0.16582 0.0
loop_
_geom_bond_atom_site_label_1
_geom_bond_atom_site_label_2
_geom_bond_distance
_geom_bond_site_symmetry_2
_ccdc_geom_bond_type
Co0 O1 2.216 . S
Co0 O2 2.091 . S
Co0 O4 2.004 . S
Co0 O10 2.021 . S
Co0 O12 2.137 . S
Co0 O13 2.244 . S
O1 Co0 2.216 . S
O1 C8 1.247 . S
O2 Co0 2.091 . S
O2 C8 1.261 . S
C3 O12 1.247 . S
C3 O13 1.272 . S
O4 Co0 2.004 . S
O4 C9 1.259 . S
Co5 O6 2.061 . S
Co5 O11 2.052 . S
Co5 O13 2.135 . S
O6 Co5 2.061 . S
O6 C9 1.235 . S
C7 O10 1.238 . S
C7 O11 1.241 . S
C8 O1 1.247 . S
C8 O2 1.261 . S
C9 O4 1.259 . S
C9 O6 1.235 . S
O10 Co0 2.021 . S
O10 C7 1.238 . S
O11 Co5 2.052 . S
O11 C7 1.241 . S
O12 Co0 2.137 . S
O12 C3 1.247 . S
O13 Co0 2.244 . S
O13 C3 1.272 . S
O13 Co5 2.135 . S
Co14 O15 2.216 . S
Co14 O16 2.091 . S
Co14 O18 2.004 . S
Co14 O24 2.021 . S
Co14 O26 2.137 . S
Co14 O27 2.244 . S
O15 Co14 2.216 . S
O15 C22 1.247 . S
O16 Co14 2.091 . S
O16 C22 1.261 . S
C17 O26 1.247 . S
C17 O27 1.272 . S
O18 Co14 2.004 . S
O18 C23 1.259 . S
Co19 O20 2.061 . S
Co19 O25 2.052 . S
Co19 O27 2.135 . S
O20 Co19 2.061 . S
O20 C23 1.235 . S
C21 O24 1.238 . S
C21 O25 1.241 . S
C22 O15 1.247 . S
C22 O16 1.261 . S
C23 O18 1.259 . S
C23 O20 1.235 . S
O24 Co14 2.021 . S
O24 C21 1.238 . S
O25 Co19 2.052 . S
O25 C21 1.241 . S
O26 Co14 2.137 . S
O26 C17 1.247 . S
O27 Co14 2.244 . S
O27 C17 1.272 . S
O27 Co19 2.135 . S
Co28 O29 2.216 . S
Co28 O30 2.091 . S
Co28 O32 2.004 . S
Co28 O38 2.021 . S
Co28 O40 2.137 . S
Co28 O41 2.244 . S
O29 Co28 2.216 . S
O29 C36 1.247 . S
O30 Co28 2.091 . S
O30 C36 1.261 . S
C31 O40 1.247 . S
C31 O41 1.272 . S
O32 Co28 2.004 . S
O32 C37 1.259 . S
Co33 O34 2.061 . S
Co33 O39 2.052 . S
Co33 O41 2.135 . S
O34 Co33 2.061 . S
O34 C37 1.235 . S
C35 O38 1.238 . S
C35 O39 1.241 . S
C36 O29 1.247 . S
C36 O30 1.261 . S
C37 O32 1.259 . S
C37 O34 1.235 . S
O38 Co28 2.021 . S
O38 C35 1.238 . S
O39 Co33 2.052 . S
O39 C35 1.241 . S
O40 Co28 2.137 . S
O40 C31 1.247 . S
O41 Co28 2.244 . S
O41 C31 1.272 . S
O41 Co33 2.135 . S
Co42 O43 2.216 . S
Co42 O44 2.091 . S
Co42 O46 2.004 . S
Co42 O52 2.021 . S
Co42 O54 2.137 . S
Co42 O55 2.244 . S
O43 Co42 2.216 . S
O43 C50 1.247 . S
O44 Co42 2.091 . S
O44 C50 1.261 . S
C45 O54 1.247 . S
C45 O55 1.272 . S
O46 Co42 2.004 . S
O46 C51 1.259 . S
Co47 O48 2.061 . S
Co47 O53 2.052 . S
Co47 O55 2.135 . S
O48 Co47 2.061 . S
O48 C51 1.235 . S
C49 O52 1.238 . S
C49 O53 1.241 . S
C50 O43 1.247 . S
C50 O44 1.261 . S
C51 O46 1.259 . S
C51 O48 1.235 . S
O52 Co42 2.021 . S
O52 C49 1.238 . S
O53 Co47 2.052 . S
O53 C49 1.241 . S
O54 Co42 2.137 . S
O54 C45 1.247 . S
O55 Co42 2.244 . S
O55 C45 1.272 . S
O55 Co47 2.135 . S
Co56 O57 2.216 . S
Co56 O58 2.091 . S
Co56 O60 2.004 . S
Co56 O66 2.021 . S
Co56 O68 2.137 . S
Co56 O69 2.244 . S
O57 Co56 2.216 . S
O57 C64 1.247 . S
O58 Co56 2.091 . S
O58 C64 1.261 . S
C59 O68 1.247 . S
C59 O69 1.272 . S
O60 Co56 2.004 . S
O60 C65 1.259 . S
Co61 O62 2.061 . S
Co61 O67 2.052 . S
Co61 O69 2.135 . S
O62 Co61 2.061 . S
O62 C65 1.235 . S
C63 O66 1.238 . S
C63 O67 1.241 . S
C64 O57 1.247 . S
C64 O58 1.261 . S
C65 O60 1.259 . S
C65 O62 1.235 . S
O66 Co56 2.021 . S
O66 C63 1.238 . S
O67 Co61 2.052 . S
O67 C63 1.241 . S
O68 Co56 2.137 . S
O68 C59 1.247 . S
O69 Co56 2.244 . S
O69 C59 1.272 . S
O69 Co61 2.135 . S
Co70 O71 2.216 . S
Co70 O72 2.091 . S
Co70 O74 2.004 . S
Co70 O80 2.021 . S
Co70 O82 2.137 . S
Co70 O83 2.244 . S
O71 Co70 2.216 . S
O71 C78 1.247 . S
O72 Co70 2.091 . S
O72 C78 1.261 . S
C73 O82 1.247 . S
C73 O83 1.272 . S
O74 Co70 2.004 . S
O74 C79 1.259 . S
Co75 O76 2.061 . S
Co75 O81 2.052 . S
Co75 O83 2.135 . S
O76 Co75 2.061 . S
O76 C79 1.235 . S
C77 O80 1.238 . S
C77 O81 1.241 . S
C78 O71 1.247 . S
C78 O72 1.261 . S
C79 O74 1.259 . S
C79 O76 1.235 . S
O80 Co70 2.021 . S
O80 C77 1.238 . S
O81 Co75 2.052 . S
O81 C77 1.241 . S
O82 Co70 2.137 . S
O82 C73 1.247 . S
O83 Co70 2.244 . S
O83 C73 1.272 . S
O83 Co75 2.135 . S
Co84 O85 2.216 . S
Co84 O86 2.091 . S
Co84 O88 2.004 . S
Co84 O94 2.021 . S
Co84 O96 2.137 . S
Co84 O97 2.244 . S
O85 Co84 2.216 . S
O85 C92 1.247 . S
O86 Co84 2.091 . S
O86 C92 1.261 . S
C87 O96 1.247 . S
C87 O97 1.272 . S
O88 Co84 2.004 . S
O88 C93 1.259 . S
Co89 O90 2.061 . S
Co89 O95 2.052 . S
Co89 O97 2.135 . S
O90 Co89 2.061 . S
O90 C93 1.235 . S
C91 O94 1.238 . S
C91 O95 1.241 . S
C92 O85 1.247 . S
C92 O86 1.261 . S
C93 O88 1.259 . S
C93 O90 1.235 . S
O94 Co84 2.021 . S
O94 C91 1.238 . S
O95 Co89 2.052 . S
O95 C91 1.241 . S
O96 Co84 2.137 . S
O96 C87 1.247 . S
O97 Co84 2.244 . S
O97 C87 1.272 . S
O97 Co89 2.135 . S
Co98 O99 2.216 . S
Co98 O100 2.091 . S
Co98 O102 2.004 . S
Co98 O108 2.021 . S
Co98 O110 2.137 . S
Co98 O111 2.244 . S
O99 Co98 2.216 . S
O99 C106 1.247 . S
O100 Co98 2.091 . S
O100 C106 1.261 . S
C101 O110 1.247 . S
C101 O111 1.272 . S
O102 Co98 2.004 . S
O102 C107 1.259 . S
Co103 O104 2.061 . S
Co103 O109 2.052 . S
Co103 O111 2.135 . S
O104 Co103 2.061 . S
O104 C107 1.235 . S
C105 O108 1.238 . S
C105 O109 1.241 . S
C106 O99 1.247 . S
C106 O100 1.261 . S
C107 O102 1.259 . S
C107 O104 1.235 . S
O108 Co98 2.021 . S
O108 C105 1.238 . S
O109 Co103 2.052 . S
O109 C105 1.241 . S
O110 Co98 2.137 . S
O110 C101 1.247 . S
O111 Co98 2.244 . S
O111 C101 1.272 . S
O111 Co103 2.135 . S
H112 C120 0.929 . S
H113 C122 0.930 . S
H114 C124 0.930 . S
H115 C127 0.929 . S
H116 C130 0.930 . S
H117 C132 0.960 . S
H118 C132 0.960 . S
H119 C132 0.960 . S
C120 H112 0.929 . S
C120 C121 1.377 . S
C120 C122 1.384 . S
C121 C120 1.377 . S
C121 C127 1.390 . S
C122 H113 0.930 . S
C122 C120 1.384 . S
C122 C123 1.372 . S
C123 C122 1.372 . S
C123 C124 1.400 . S
C123 C128 1.490 . S
C124 H114 0.930 . S
C124 C123 1.400 . S
C124 C127 1.386 . S
H125 C141 0.930 . S
H126 C142 0.931 . S
C127 H115 0.929 . S
C127 C121 1.390 . S
C127 C124 1.386 . S
C128 C123 1.490 . S
C128 C130 1.395 1_655 S
C128 C131 1.403 . S
H129 C135 0.930 . S
C130 H116 0.930 . S
C130 C128 1.395 1_455 S
C130 C133 1.403 . S
C131 C128 1.403 . S
C131 C132 1.524 . S
C131 C135 1.400 . S
C132 H117 0.960 . S
C132 H118 0.960 . S
C132 H119 0.960 . S
C132 C131 1.524 . S
C133 C130 1.403 . S
C133 C134 1.392 . S
C133 C137 1.495 . S
C134 C133 1.392 . S
C134 C135 1.385 1_455 S
C134 C136 1.478 . S
C135 H129 0.930 . S
C135 C131 1.400 . S
C135 C134 1.385 1_655 S
C136 C134 1.478 . S
C136 C138 1.381 . S
C136 C142 1.383 . S
C137 C133 1.495 . S
C137 H143 0.959 . S
C137 H144 0.961 . S
C137 H145 0.960 . S
C138 C136 1.381 . S
C138 C139 1.394 . S
C138 H146 0.930 . S
C139 C138 1.394 . S
C139 C140 1.383 . S
C139 H147 0.929 . S
C140 C139 1.383 . S
C140 C141 1.377 . S
C141 H125 0.930 . S
C141 C140 1.377 . S
C141 C142 1.379 . S
C142 H126 0.931 . S
C142 C136 1.383 . S
C142 C141 1.379 . S
H143 C137 0.959 . S
H144 C137 0.961 . S
H145 C137 0.960 . S
H146 C138 0.930 . S
H147 C139 0.929 . S
H148 C156 0.929 . S
H149 C158 0.930 . S
H150 C160 0.930 . S
H151 C163 0.929 . S
H152 C166 0.930 . S
H153 C168 0.960 . S
H154 C168 0.960 . S
H155 C168 0.960 1_545 S
C156 H148 0.929 . S
C156 C157 1.377 . S
C156 C158 1.384 . S
C157 C156 1.377 . S
C157 C163 1.390 . S
C158 H149 0.930 . S
C158 C156 1.384 . S
C158 C159 1.372 . S
C159 C158 1.372 . S
C159 C160 1.400 . S
C159 C164 1.490 . S
C160 H150 0.930 . S
C160 C159 1.400 . S
C160 C163 1.386 . S
H161 C177 0.930 . S
H162 C178 0.931 . S
C163 H151 0.929 . S
C163 C157 1.390 . S
C163 C160 1.386 . S
C164 C159 1.490 . S
C164 C166 1.395 . S
C164 C167 1.403 1_545 S
H165 C171 0.930 . S
C166 H152 0.930 . S
C166 C164 1.395 . S
C166 C169 1.403 . S
C167 C164 1.403 1_565 S
C167 C168 1.524 . S
C167 C171 1.400 . S
C168 H153 0.960 . S
C168 H154 0.960 . S
C168 H155 0.960 1_565 S
C168 C167 1.524 . S
C169 C166 1.403 . S
C169 C170 1.392 1_545 S
C169 C173 1.495 . S
C170 C169 1.392 1_565 S
C170 C171 1.385 . S
C170 C172 1.478 . S
C171 H165 0.930 . S
C171 C167 1.400 . S
C171 C170 1.385 . S
C172 C170 1.478 . S
C172 C174 1.381 . S
C172 C178 1.383 . S
C173 C169 1.495 . S
C173 H179 0.959 . S
C173 H180 0.961 . S
C173 H181 0.960 1_545 S
C174 C172 1.381 . S
C174 C175 1.394 . S
C174 H182 0.930 . S
C175 C174 1.394 . S
C175 C176 1.383 . S
C175 H183 0.929 . S
C176 C175 1.383 . S
C176 C177 1.377 . S
C177 H161 0.930 . S
C177 C176 1.377 . S
C177 C178 1.379 . S
C178 H162 0.931 . S
C178 C172 1.383 . S
C178 C177 1.379 . S
H179 C173 0.959 . S
H180 C173 0.961 . S
H181 C173 0.960 1_565 S
H182 C174 0.930 . S
H183 C175 0.929 . S
H184 C192 0.929 . S
H185 C194 0.930 . S
H186 C196 0.930 . S
H187 C199 0.929 . S
H188 C202 0.930 . S
H189 C204 0.960 . S
H190 C204 0.960 . S
H191 C204 0.960 . S
C192 H184 0.929 . S
C192 C193 1.377 . S
C192 C194 1.384 . S
C193 C192 1.377 . S
C193 C199 1.390 . S
C194 H185 0.930 . S
C194 C192 1.384 . S
C194 C195 1.372 . S
C195 C194 1.372 . S
C195 C196 1.400 . S
C195 C200 1.490 . S
C196 H186 0.930 . S
C196 C195 1.400 . S
C196 C199 1.386 . S
H197 C213 0.930 . S
H198 C214 0.931 . S
C199 H187 0.929 . S
C199 C193 1.390 . S
C199 C196 1.386 . S
C200 C195 1.490 . S
C200 C202 1.395 . S
C200 C203 1.403 1_655 S
H201 C207 0.930 . S
C202 H188 0.930 . S
C202 C200 1.395 . S
C202 C205 1.403 . S
C203 C200 1.403 1_455 S
C203 C204 1.524 . S
C203 C207 1.400 . S
C204 H189 0.960 . S
C204 H190 0.960 . S
C204 H191 0.960 . S
C204 C203 1.524 . S
C205 C202 1.403 . S
C205 C206 1.392 1_655 S
C205 C209 1.495 . S
C206 C205 1.392 1_455 S
C206 C207 1.385 . S
C206 C208 1.478 . S
C207 H201 0.930 . S
C207 C203 1.400 . S
C207 C206 1.385 . S
C208 C206 1.478 . S
C208 C210 1.381 . S
C208 C214 1.383 . S
C209 C205 1.495 . S
C209 H215 0.959 . S
C209 H216 0.961 . S
C209 H217 0.960 . S
C210 C208 1.381 . S
C210 C211 1.394 . S
C210 H218 0.930 . S
C211 C210 1.394 . S
C211 C212 1.383 . S
C211 H219 0.929 . S
C212 C211 1.383 . S
C212 C213 1.377 . S
C213 H197 0.930 . S
C213 C212 1.377 . S
C213 C214 1.379 . S
C214 H198 0.931 . S
C214 C208 1.383 . S
C214 C213 1.379 . S
H215 C209 0.959 . S
H216 C209 0.961 . S
H217 C209 0.960 . S
H218 C210 0.930 . S
H219 C211 0.929 . S
H220 C228 0.929 . S
H221 C230 0.930 . S
H222 C232 0.930 . S
H223 C235 0.929 . S
H224 C238 0.930 . S
H225 C240 0.960 . S
H226 C240 0.960 . S
H227 C240 0.960 . S
C228 H220 0.929 . S
C228 C229 1.377 . S
C228 C230 1.384 . S
C229 C228 1.377 . S
C229 C235 1.390 . S
C230 H221 0.930 . S
C230 C228 1.384 . S
C230 C231 1.372 . S
C231 C230 1.372 . S
C231 C232 1.400 . S
C231 C236 1.490 . S
C232 H222 0.930 . S
C232 C231 1.400 . S
C232 C235 1.386 . S
H233 C249 0.930 . S
H234 C250 0.931 . S
C235 H223 0.929 . S
C235 C229 1.390 . S
C235 C232 1.386 . S
C236 C231 1.490 . S
C236 C238 1.395 1_545 S
C236 C239 1.403 . S
H237 C243 0.930 . S
C238 H224 0.930 . S
C238 C236 1.395 1_565 S
C238 C241 1.403 . S
C239 C236 1.403 . S
C239 C240 1.524 . S
C239 C243 1.400 . S
C240 H225 0.960 . S
C240 H226 0.960 . S
C240 H227 0.960 . S
C240 C239 1.524 . S
C241 C238 1.403 . S
C241 C242 1.392 . S
C241 C245 1.495 . S
C242 C241 1.392 . S
C242 C243 1.385 1_565 S
C242 C244 1.478 . S
C243 H237 0.930 . S
C243 C239 1.400 . S
C243 C242 1.385 1_545 S
C244 C242 1.478 . S
C244 C246 1.381 . S
C244 C250 1.383 . S
C245 C241 1.495 . S
C245 H251 0.959 . S
C245 H252 0.961 . S
C245 H253 0.960 . S
C246 C244 1.381 . S
C246 C247 1.394 . S
C246 H254 0.930 . S
C247 C246 1.394 . S
C247 C248 1.383 . S
C247 H255 0.929 . S
C248 C247 1.383 . S
C248 C249 1.377 . S
C249 H233 0.930 . S
C249 C248 1.377 . S
C249 C250 1.379 . S
C250 H234 0.931 . S
C250 C244 1.383 . S
C250 C249 1.379 . S
H251 C245 0.959 . S
H252 C245 0.961 . S
H253 C245 0.960 . S
H254 C246 0.930 . S
H255 C247 0.929 . S
H256 C264 0.929 . S
H257 C266 0.930 . S
H258 C268 0.930 . S
H259 C271 0.925 1_565 S
H260 C274 0.930 . S
H261 C276 0.960 . S
H262 C276 0.960 . S
H263 C276 0.960 . S
C264 H256 0.929 . S
C264 C265 1.377 . S
C264 C266 1.384 1_565 S
C265 C264 1.377 . S
C265 C271 1.372 1_565 S
C266 H257 0.930 . S
C266 C264 1.384 1_545 S
C266 C267 1.372 . S
C267 C266 1.372 . S
C267 C268 1.400 . S
C267 C272 1.490 . S
C268 H258 0.930 . S
C268 C267 1.400 . S
C268 C271 1.408 . S
H269 C285 0.930 . S
H270 C286 0.931 . S
C271 H259 0.925 1_545 S
C271 C265 1.372 1_545 S
C271 C268 1.408 . S
C272 C267 1.490 . S
C272 C274 1.395 . S
C272 C275 1.403 . S
H273 C279 0.930 . S
C274 H260 0.930 . S
C274 C272 1.395 . S
C274 C277 1.403 . S
C275 C272 1.403 . S
C275 C276 1.524 . S
C275 C279 1.400 . S
C276 H261 0.960 . S
C276 H262 0.960 . S
C276 H263 0.960 . S
C276 C275 1.524 . S
C277 C274 1.403 . S
C277 C278 1.392 . S
C277 C281 1.495 . S
C278 C277 1.392 . S
C278 C279 1.385 . S
C278 C280 1.478 . S
C279 H273 0.930 . S
C279 C275 1.400 . S
C279 C278 1.385 . S
C280 C278 1.478 . S
C280 C282 1.381 . S
C280 C286 1.383 . S
C281 C277 1.495 . S
C281 H287 0.959 . S
C281 H288 0.961 . S
C281 H289 0.960 . S
C282 C280 1.381 . S
C282 C283 1.394 . S
C282 H290 0.930 . S
C283 C282 1.394 . S
C283 C284 1.383 . S
C283 H291 0.929 . S
C284 C283 1.383 . S
C284 C285 1.377 . S
C285 H269 0.930 . S
C285 C284 1.377 . S
C285 C286 1.379 . S
C286 H270 0.931 . S
C286 C280 1.383 . S
C286 C285 1.379 . S
H287 C281 0.959 . S
H288 C281 0.961 . S
H289 C281 0.960 . S
H290 C282 0.930 . S
H291 C283 0.929 . S
H292 C300 0.929 . S
H293 C302 0.930 . S
H294 C304 0.930 . S
H295 C307 0.929 . S
H296 C310 0.930 . S
H297 C312 0.960 . S
H298 C312 0.960 . S
H299 C312 0.960 . S
C300 H292 0.929 . S
C300 C301 1.377 . S
C300 C302 1.384 . S
C301 C300 1.377 . S
C301 C307 1.390 . S
C302 H293 0.930 . S
C302 C300 1.384 . S
C302 C303 1.372 . S
C303 C302 1.372 . S
C303 C304 1.400 . S
C303 C308 1.490 . S
C304 H294 0.930 . S
C304 C303 1.400 . S
C304 C307 1.386 . S
H305 C321 0.930 . S
H306 C322 0.931 . S
C307 H295 0.929 . S
C307 C301 1.390 . S
C307 C304 1.386 . S
C308 C303 1.490 . S
C308 C310 1.395 . S
C308 C311 1.403 . S
H309 C315 0.930 . S
C310 H296 0.930 . S
C310 C308 1.395 . S
C310 C313 1.403 . S
C311 C308 1.403 . S
C311 C312 1.524 . S
C311 C315 1.400 . S
C312 H297 0.960 . S
C312 H298 0.960 . S
C312 H299 0.960 . S
C312 C311 1.524 . S
C313 C310 1.403 . S
C313 C314 1.392 . S
C313 C317 1.495 . S
C314 C313 1.392 . S
C314 C315 1.385 . S
C314 C316 1.478 . S
C315 H309 0.930 . S
C315 C311 1.400 . S
C315 C314 1.385 . S
C316 C314 1.478 . S
C316 C318 1.381 . S
C316 C322 1.383 . S
C317 C313 1.495 . S
C317 H323 0.959 . S
C317 H324 0.961 . S
C317 H325 0.960 . S
C318 C316 1.381 . S
C318 C319 1.394 1_455 S
C318 H326 0.930 . S
C319 C318 1.394 1_655 S
C319 C320 1.383 . S
C319 H327 0.929 . S
C320 C319 1.383 . S
C320 C321 1.377 . S
C321 H305 0.930 . S
C321 C320 1.377 . S
C321 C322 1.379 1_655 S
C322 H306 0.931 . S
C322 C316 1.383 . S
C322 C321 1.379 1_455 S
H323 C317 0.959 . S
H324 C317 0.961 . S
H325 C317 0.960 . S
H326 C318 0.930 . S
H327 C319 0.929 . S
H328 C336 0.929 . S
H329 C338 0.930 . S
H330 C340 0.932 . S
H331 C343 0.929 . S
H332 C346 0.930 . S
H333 C348 0.960 . S
H334 C348 0.960 . S
H335 C348 0.960 . S
C336 H328 0.929 . S
C336 C337 1.377 1_565 S
C336 C338 1.384 . S
C337 C336 1.377 1_545 S
C337 C343 1.390 . S
C338 H329 0.930 . S
C338 C336 1.384 . S
C338 C339 1.372 . S
C339 C338 1.372 . S
C339 C340 1.400 . S
C339 C344 1.490 . S
C340 H330 0.932 . S
C340 C339 1.400 . S
C340 C343 1.386 1_565 S
H341 C357 0.930 . S
H342 C358 0.931 . S
C343 H331 0.929 . S
C343 C337 1.390 . S
C343 C340 1.386 1_545 S
C344 C339 1.490 . S
C344 C346 1.395 . S
C344 C347 1.403 . S
H345 C351 0.930 . S
C346 H332 0.930 . S
C346 C344 1.395 . S
C346 C349 1.403 . S
C347 C344 1.403 . S
C347 C348 1.524 . S
C347 C351 1.400 . S
C348 H333 0.960 . S
C348 H334 0.960 . S
C348 H335 0.960 . S
C348 C347 1.524 . S
C349 C346 1.403 . S
C349 C350 1.392 . S
C349 C353 1.495 . S
C350 C349 1.392 . S
C350 C351 1.385 . S
C350 C352 1.478 . S
C351 H345 0.930 . S
C351 C347 1.400 . S
C351 C350 1.385 . S
C352 C350 1.478 . S
C352 C354 1.381 . S
C352 C358 1.383 . S
C353 C349 1.495 . S
C353 H359 0.959 . S
C353 H360 0.961 . S
C353 H361 0.960 . S
C354 C352 1.381 . S
C354 C355 1.394 . S
C354 H362 0.930 . S
C355 C354 1.394 . S
C355 C356 1.383 . S
C355 H363 0.929 . S
C356 C355 1.383 . S
C356 C357 1.377 . S
C357 H341 0.930 . S
C357 C356 1.377 . S
C357 C358 1.379 . S
C358 H342 0.931 . S
C358 C352 1.383 . S
C358 C357 1.379 . S
H359 C353 0.959 . S
H360 C353 0.961 . S
H361 C353 0.960 . S
H362 C354 0.930 . S
H363 C355 0.929 . S
H364 C372 0.929 . S
H365 C374 0.930 . S
H366 C376 0.930 . S
H367 C379 0.929 . S
H368 C382 0.930 . S
H369 C384 0.960 . S
H370 C384 0.960 . S
H371 C384 0.960 . S
C372 H364 0.929 . S
C372 C373 1.377 . S
C372 C374 1.384 . S
C373 C372 1.377 . S
C373 C379 1.390 . S
C374 H365 0.930 . S
C374 C372 1.384 . S
C374 C375 1.372 . S
C375 C374 1.372 . S
C375 C376 1.400 . S
C375 C380 1.490 . S
C376 H366 0.930 . S
C376 C375 1.400 . S
C376 C379 1.386 . S
H377 C393 0.930 . S
H378 C394 0.931 . S
C379 H367 0.929 . S
C379 C373 1.390 . S
C379 C376 1.386 . S
C380 C375 1.490 . S
C380 C382 1.395 . S
C380 C383 1.403 . S
H381 C387 0.930 . S
C382 H368 0.930 . S
C382 C380 1.395 . S
C382 C385 1.403 . S
C383 C380 1.403 . S
C383 C384 1.524 . S
C383 C387 1.400 . S
C384 H369 0.960 . S
C384 H370 0.960 . S
C384 H371 0.960 . S
C384 C383 1.524 . S
C385 C382 1.403 . S
C385 C386 1.392 . S
C385 C389 1.495 . S
C386 C385 1.392 . S
C386 C387 1.385 . S
C386 C388 1.478 . S
C387 H381 0.930 . S
C387 C383 1.400 . S
C387 C386 1.385 . S
C388 C386 1.478 . S
C388 C390 1.381 . S
C388 C394 1.383 . S
C389 C385 1.495 . S
C389 H395 0.959 . S
C389 H396 0.961 . S
C389 H397 0.960 . S
C390 C388 1.381 . S
C390 C391 1.394 . S
C390 H398 0.930 . S
C391 C390 1.394 . S
C391 C392 1.383 1_655 S
C391 H399 0.929 1_655 S
C392 C391 1.383 1_455 S
C392 C393 1.377 . S
C393 H377 0.930 . S
C393 C392 1.377 . S
C393 C394 1.379 1_455 S
C394 H378 0.931 . S
C394 C388 1.383 . S
C394 C393 1.379 1_655 S
H395 C389 0.959 . S
H396 C389 0.961 . S
H397 C389 0.960 . S
H398 C390 0.930 . S
H399 C391 0.929 1_455 S
H400 C408 0.929 . S
H401 C410 0.930 . S
H402 C412 0.930 . S
H403 C415 0.929 . S
H404 C418 0.930 . S
H405 C420 0.960 . S
H406 C420 0.960 . S
H407 C420 0.960 . S
C408 H400 0.929 . S
C408 C409 1.377 . S
C408 C410 1.384 1_565 S
C409 C408 1.377 . S
C409 C415 1.390 1_565 S
C410 H401 0.930 . S
C410 C408 1.384 1_545 S
C410 C411 1.372 . S
C411 C410 1.372 . S
C411 C412 1.400 . S
C411 C416 1.490 . S
C412 H402 0.930 . S
C412 C411 1.400 . S
C412 C415 1.386 . S
H413 C429 0.930 . S
H414 C430 0.931 . S
C415 H403 0.929 . S
C415 C409 1.390 1_545 S
C415 C412 1.386 . S
C416 C411 1.490 . S
C416 C418 1.395 1_556 S
C416 C419 1.403 . S
H417 C423 0.930 . S
C418 H404 0.930 . S
C418 C416 1.395 1_554 S
C418 C421 1.403 . S
C419 C416 1.403 . S
C419 C420 1.524 . S
C419 C423 1.400 . S
C420 H405 0.960 . S
C420 H406 0.960 . S
C420 H407 0.960 . S
C420 C419 1.524 . S
C421 C418 1.403 . S
C421 C422 1.392 . S
C421 C425 1.495 . S
C422 C421 1.392 . S
C422 C423 1.385 1_554 S
C422 C424 1.478 . S
C423 H417 0.930 . S
C423 C419 1.400 . S
C423 C422 1.385 1_556 S
C424 C422 1.478 . S
C424 C426 1.381 . S
C424 C430 1.383 . S
C425 C421 1.495 . S
C425 H431 0.959 . S
C425 H432 0.961 . S
C425 H433 0.960 . S
C426 C424 1.381 . S
C426 C427 1.394 . S
C426 H434 0.930 . S
C427 C426 1.394 . S
C427 C428 1.383 . S
C427 H435 0.929 . S
C428 C427 1.383 . S
C428 C429 1.377 . S
C429 H413 0.930 . S
C429 C428 1.377 . S
C429 C430 1.379 . S
C430 H414 0.931 . S
C430 C424 1.383 . S
C430 C429 1.379 . S
H431 C425 0.959 . S
H432 C425 0.961 . S
H433 C425 0.960 . S
H434 C426 0.930 . S
H435 C427 0.929 . S
H436 C444 0.929 . S
H437 C446 0.930 . S
H438 C448 0.930 . S
H439 C451 0.929 . S
H440 C454 0.930 . S
H441 C456 0.960 . S
H442 C456 0.960 . S
H443 C456 0.960 . S
C444 H436 0.929 . S
C444 C445 1.377 . S
C444 C446 1.384 . S
C445 C444 1.377 . S
C445 C451 1.390 . S
C446 H437 0.930 . S
C446 C444 1.384 . S
C446 C447 1.372 . S
C447 C446 1.372 . S
C447 C448 1.400 . S
C447 C452 1.490 . S
C448 H438 0.930 . S
C448 C447 1.400 . S
C448 C451 1.386 . S
H449 C465 0.930 . S
H450 C466 0.931 . S
C451 H439 0.929 . S
C451 C445 1.390 . S
C451 C448 1.386 . S
C452 C447 1.490 . S
C452 C454 1.395 . S
C452 C455 1.403 1_556 S
H453 C459 0.930 . S
C454 H440 0.930 . S
C454 C452 1.395 . S
C454 C457 1.403 . S
C455 C452 1.403 1_554 S
C455 C456 1.524 . S
C455 C459 1.400 . S
C456 H441 0.960 . S
C456 H442 0.960 . S
C456 H443 0.960 . S
C456 C455 1.524 . S
C457 C454 1.403 . S
C457 C458 1.392 1_556 S
C457 C461 1.495 . S
C458 C457 1.392 1_554 S
C458 C459 1.385 . S
C458 C460 1.478 . S
C459 H453 0.930 . S
C459 C455 1.400 . S
C459 C458 1.385 . S
C460 C458 1.478 . S
C460 C462 1.381 . S
C460 C466 1.383 . S
C461 C457 1.495 . S
C461 H467 0.959 . S
C461 H468 0.961 . S
C461 H469 0.960 . S
C462 C460 1.381 . S
C462 C463 1.394 . S
C462 H470 0.930 . S
C463 C462 1.394 . S
C463 C464 1.383 1_455 S
C463 H471 0.929 . S
C464 C463 1.383 1_655 S
C464 C465 1.377 . S
C465 H449 0.930 . S
C465 C464 1.377 . S
C465 C466 1.379 1_655 S
C466 H450 0.931 . S
C466 C460 1.383 . S
C466 C465 1.379 1_455 S
H467 C461 0.959 . S
H468 C461 0.961 . S
H469 C461 0.960 . S
H470 C462 0.930 . S
H471 C463 0.929 . S
H472 C480 0.929 . S
H473 C482 0.930 . S
H474 C484 0.930 . S
H475 C487 0.929 . S
H476 C490 0.930 . S
H477 C492 0.960 . S
H478 C492 0.960 . S
H479 C492 0.960 . S
C480 H472 0.929 . S
C480 C481 1.377 . S
C480 C482 1.384 . S
C481 C480 1.377 . S
C481 C487 1.390 . S
C482 H473 0.930 . S
C482 C480 1.384 . S
C482 C483 1.372 . S
C483 C482 1.372 . S
C483 C484 1.400 . S
C483 C488 1.490 . S
C484 H474 0.930 . S
C484 C483 1.400 . S
C484 C487 1.386 . S
H485 C501 0.930 . S
H486 C502 0.931 . S
C487 H475 0.929 . S
C487 C481 1.390 . S
C487 C484 1.386 . S
C488 C483 1.490 . S
C488 C490 1.395 1_554 S
C488 C491 1.403 . S
H489 C495 0.933 . S
C490 H476 0.930 . S
C490 C488 1.395 1_556 S
C490 C493 1.403 . S
C491 C488 1.403 . S
C491 C492 1.524 . S
C491 C495 1.400 1_554 S
C492 H477 0.960 . S
C492 H478 0.960 . S
C492 H479 0.960 . S
C492 C491 1.524 . S
C493 C490 1.403 . S
C493 C494 1.392 . S
C493 C497 1.495 . S
C494 C493 1.392 . S
C494 C495 1.385 . S
C494 C496 1.478 . S
C495 H489 0.933 . S
C495 C491 1.400 1_556 S
C495 C494 1.385 . S
C496 C494 1.478 . S
C496 C498 1.381 . S
C496 C502 1.383 . S
C497 C493 1.495 . S
C497 H503 0.959 . S
C497 H504 0.961 . S
C497 H505 0.960 . S
C498 C496 1.381 . S
C498 C499 1.394 1_565 S
C498 H506 0.930 . S
C499 C498 1.394 1_545 S
C499 C500 1.383 . S
C499 H507 0.929 . S
C500 C499 1.383 . S
C500 C501 1.377 . S
C501 H485 0.930 . S
C501 C500 1.377 . S
C501 C502 1.379 1_545 S
C502 H486 0.931 . S
C502 C496 1.383 . S
C502 C501 1.379 1_565 S
H503 C497 0.959 . S
H504 C497 0.961 . S
H505 C497 0.960 . S
H506 C498 0.930 . S
H507 C499 0.929 . S
H508 C516 0.929 . S
H509 C518 0.930 1_554 S
H510 C520 0.930 . S
H511 C523 0.929 . S
H512 C526 0.924 1_556 S
H513 C528 0.960 . S
H514 C528 0.960 . S
H515 C528 0.960 . S
C516 H508 0.929 . S
C516 C517 1.377 . S
C516 C518 1.384 . S
C517 C516 1.377 . S
C517 C523 1.390 . S
C518 H509 0.930 1_556 S
C518 C516 1.384 . S
C518 C519 1.372 . S
C519 C518 1.372 . S
C519 C520 1.400 . S
C519 C524 1.490 . S
C520 H510 0.930 . S
C520 C519 1.400 . S
C520 C523 1.386 . S
H521 C537 0.930 . S
H522 C538 0.931 . S
C523 H511 0.929 . S
C523 C517 1.390 . S
C523 C520 1.386 . S
C524 C519 1.490 . S
C524 C526 1.380 1_556 S
C524 C527 1.403 . S
H525 C531 0.930 . S
C526 H512 0.924 1_554 S
C526 C524 1.380 1_554 S
C526 C529 1.425 . S
C527 C524 1.403 . S
C527 C528 1.524 . S
C527 C531 1.400 1_556 S
C528 H513 0.960 . S
C528 H514 0.960 . S
C528 H515 0.960 . S
C528 C527 1.524 . S
C529 C526 1.425 . S
C529 C530 1.392 . S
C529 C533 1.495 . S
C530 C529 1.392 . S
C530 C531 1.385 . S
C530 C532 1.478 . S
C531 H525 0.930 . S
C531 C527 1.400 1_554 S
C531 C530 1.385 . S
C532 C530 1.478 . S
C532 C534 1.381 . S
C532 C538 1.383 . S
C533 C529 1.495 . S
C533 H539 0.959 . S
C533 H540 0.961 . S
C533 H541 0.960 . S
C534 C532 1.381 . S
C534 C535 1.394 . S
C534 H542 0.930 . S
C535 C534 1.394 . S
C535 C536 1.383 1_655 S
C535 H543 0.929 . S
C536 C535 1.383 1_455 S
C536 C537 1.377 . S
C537 H521 0.930 . S
C537 C536 1.377 . S
C537 C538 1.379 1_455 S
C538 H522 0.931 . S
C538 C532 1.383 . S
C538 C537 1.379 1_655 S
H539 C533 0.959 . S
H540 C533 0.961 . S
H541 C533 0.960 . S
H542 C534 0.930 . S
H543 C535 0.929 . S
H544 C552 0.929 . S
H545 C554 0.930 . S
H546 C556 0.930 . S
H547 C559 0.929 . S
H548 C562 0.930 . S
H549 C564 0.960 . S
H550 C564 0.960 . S
H551 C564 0.960 . S
C552 H544 0.929 . S
C552 C553 1.377 . S
C552 C554 1.384 . S
C553 C552 1.377 . S
C553 C559 1.390 . S
C554 H545 0.930 . S
C554 C552 1.384 . S
C554 C555 1.372 . S
C555 C554 1.372 . S
C555 C556 1.400 . S
C555 C560 1.490 . S
C556 H546 0.930 . S
C556 C555 1.400 . S
C556 C559 1.386 . S
H557 C573 0.930 . S
H558 C574 0.931 . S
C559 H547 0.929 . S
C559 C553 1.390 . S
C559 C556 1.386 . S
C560 C555 1.490 . S
C560 C562 1.395 . S
C560 C563 1.403 . S
H561 C567 0.930 . S
C562 H548 0.930 . S
C562 C560 1.395 . S
C562 C565 1.403 . S
C563 C560 1.403 . S
C563 C564 1.524 . S
C563 C567 1.400 . S
C564 H549 0.960 . S
C564 H550 0.960 . S
C564 H551 0.960 . S
C564 C563 1.524 . S
C565 C562 1.403 . S
C565 C566 1.392 . S
C565 C569 1.495 . S
C566 C565 1.392 . S
C566 C567 1.385 . S
C566 C568 1.478 . S
C567 H561 0.930 . S
C567 C563 1.400 . S
C567 C566 1.385 . S
C568 C566 1.478 . S
C568 C570 1.381 . S
C568 C574 1.383 . S
C569 C565 1.495 . S
C569 H575 0.959 . S
C569 H576 0.961 . S
C569 H577 0.960 . S
C570 C568 1.381 . S
C570 C571 1.394 . S
C570 H578 0.930 . S
C571 C570 1.394 . S
C571 C572 1.383 . S
C571 H579 0.929 . S
C572 C571 1.383 . S
C572 C573 1.377 . S
C573 H557 0.930 . S
C573 C572 1.377 . S
C573 C574 1.379 . S
C574 H558 0.931 . S
C574 C568 1.383 . S
C574 C573 1.379 . S
H575 C569 0.959 . S
H576 C569 0.961 . S
H577 C569 0.960 . S
H578 C570 0.930 . S
H579 C571 0.929 . S
H580 C588 0.929 . S
H581 C590 0.930 . S
H582 C592 0.930 . S
H583 C595 0.929 . S
H584 C598 0.930 . S
H585 C600 0.960 . S
H586 C600 0.960 . S
H587 C600 0.960 . S
C588 H580 0.929 . S
C588 C589 1.377 . S
C588 C590 1.384 . S
C589 C588 1.377 . S
C589 C595 1.390 . S
C590 H581 0.930 . S
C590 C588 1.384 . S
C590 C591 1.372 . S
C591 C590 1.372 . S
C591 C592 1.400 . S
C591 C596 1.490 . S
C592 H582 0.930 . S
C592 C591 1.400 . S
C592 C595 1.386 . S
H593 C609 0.930 . S
H594 C610 0.931 . S
C595 H583 0.929 . S
C595 C589 1.390 . S
C595 C592 1.386 . S
C596 C591 1.490 . S
C596 C598 1.395 . S
C596 C599 1.403 . S
H597 C603 0.930 . S
C598 H584 0.930 . S
C598 C596 1.395 . S
C598 C601 1.403 . S
C599 C596 1.403 . S
C599 C600 1.524 . S
C599 C603 1.400 . S
C600 H585 0.960 . S
C600 H586 0.960 . S
C600 H587 0.960 . S
C600 C599 1.524 . S
C601 C598 1.403 . S
C601 C602 1.392 . S
C601 C605 1.495 . S
C602 C601 1.392 . S
C602 C603 1.385 . S
C602 C604 1.478 . S
C603 H597 0.930 . S
C603 C599 1.400 . S
C603 C602 1.385 . S
C604 C602 1.478 . S
C604 C606 1.381 . S
C604 C610 1.383 . S
C605 C601 1.495 . S
C605 H611 0.959 . S
C605 H612 0.961 . S
C605 H613 0.960 . S
C606 C604 1.381 . S
C606 C607 1.394 . S
C606 H614 0.930 . S
C607 C606 1.394 . S
C607 C608 1.383 . S
C607 H615 0.929 . S
C608 C607 1.383 . S
C608 C609 1.377 . S
C609 H593 0.930 . S
C609 C608 1.377 . S
C609 C610 1.379 . S
C610 H594 0.931 . S
C610 C604 1.383 . S
C610 C609 1.379 . S
H611 C605 0.959 . S
H612 C605 0.961 . S
H613 C605 0.960 . S
H614 C606 0.930 . S
H615 C607 0.929 . S
H616 C624 0.929 . S
H617 C626 0.930 . S
H618 C628 0.930 . S
H619 C631 0.929 . S
H620 C634 0.930 . S
H621 C636 0.960 . S
H622 C636 0.960 . S
H623 C636 0.960 . S
C624 H616 0.929 . S
C624 C625 1.377 . S
C624 C626 1.384 . S
C625 C624 1.377 . S
C625 C631 1.390 . S
C626 H617 0.930 . S
C626 C624 1.384 . S
C626 C627 1.372 . S
C627 C626 1.372 . S
C627 C628 1.400 . S
C627 C632 1.490 . S
C628 H618 0.930 . S
C628 C627 1.400 . S
C628 C631 1.386 . S
H629 C645 0.930 . S
H630 C646 0.931 . S
C631 H619 0.929 . S
C631 C625 1.390 . S
C631 C628 1.386 . S
C632 C627 1.490 . S
C632 C634 1.395 . S
C632 C635 1.403 . S
H633 C639 0.930 . S
C634 H620 0.930 . S
C634 C632 1.395 . S
C634 C637 1.403 . S
C635 C632 1.403 . S
C635 C636 1.524 . S
C635 C639 1.400 . S
C636 H621 0.960 . S
C636 H622 0.960 . S
C636 H623 0.960 . S
C636 C635 1.524 . S
C637 C634 1.403 . S
C637 C638 1.392 . S
C637 C641 1.495 . S
C638 C637 1.392 . S
C638 C639 1.385 . S
C638 C640 1.478 . S
C639 H633 0.930 . S
C639 C635 1.400 . S
C639 C638 1.385 . S
C640 C638 1.478 . S
C640 C642 1.381 . S
C640 C646 1.383 . S
C641 C637 1.495 . S
C641 H647 0.959 . S
C641 H648 0.961 . S
C641 H649 0.960 . S
C642 C640 1.381 . S
C642 C643 1.394 . S
C642 H650 0.930 . S
C643 C642 1.394 . S
C643 C644 1.383 . S
C643 H651 0.929 . S
C644 C643 1.383 . S
C644 C645 1.377 . S
C645 H629 0.930 . S
C645 C644 1.377 . S
C645 C646 1.379 . S
C646 H630 0.931 . S
C646 C640 1.383 . S
C646 C645 1.379 . S
H647 C641 0.959 . S
H648 C641 0.961 . S
H649 C641 0.960 . S
H650 C642 0.930 . S
H651 C643 0.929 . S
H652 C660 0.929 . S
H653 C662 0.930 . S
H654 C664 0.930 . S
H655 C667 0.929 . S
H656 C670 0.930 . S
H657 C672 0.960 . S
H658 C672 0.960 . S
H659 C672 0.960 . S
C660 H652 0.929 . S
C660 C661 1.377 . S
C660 C662 1.384 . S
C661 C660 1.377 . S
C661 C667 1.390 . S
C662 H653 0.930 . S
C662 C660 1.384 . S
C662 C663 1.372 . S
C663 C662 1.372 . S
C663 C664 1.400 . S
C663 C668 1.490 . S
C664 H654 0.930 . S
C664 C663 1.400 . S
C664 C667 1.386 . S
H665 C681 0.930 . S
H666 C682 0.931 . S
C667 H655 0.929 . S
C667 C661 1.390 . S
C667 C664 1.386 . S
C668 C663 1.490 . S
C668 C670 1.395 . S
C668 C671 1.403 . S
H669 C675 0.930 . S
C670 H656 0.930 . S
C670 C668 1.395 . S
C670 C673 1.403 . S
C671 C668 1.403 . S
C671 C672 1.524 . S
C671 C675 1.400 . S
C672 H657 0.960 . S
C672 H658 0.960 . S
C672 H659 0.960 . S
C672 C671 1.524 . S
C673 C670 1.403 . S
C673 C674 1.392 . S
C673 C677 1.495 . S
C674 C673 1.392 . S
C674 C675 1.385 . S
C674 C676 1.478 . S
C675 H669 0.930 . S
C675 C671 1.400 . S
C675 C674 1.385 . S
C676 C674 1.478 . S
C676 C678 1.381 . S
C676 C682 1.383 . S
C677 C673 1.495 . S
C677 H683 0.959 . S
C677 H684 0.961 . S
C677 H685 0.960 . S
C678 C676 1.381 . S
C678 C679 1.394 . S
C678 H686 0.930 . S
C679 C678 1.394 . S
C679 C680 1.383 . S
C679 H687 0.929 . S
C680 C679 1.383 . S
C680 C681 1.377 . S
C681 H665 0.930 . S
C681 C680 1.377 . S
C681 C682 1.379 . S
C682 H666 0.931 . S
C682 C676 1.383 . S
C682 C681 1.379 . S
H683 C677 0.959 . S
H684 C677 0.961 . S
H685 C677 0.960 . S
H686 C678 0.930 . S
H687 C679 0.929 . S
C121 C36 1.424 . S
C140 C8 1.433 . S
C157 C50 1.417 . S
C176 C22 1.400 . S
C193 C64 1.419 . S
C212 C92 1.403 . S
C229 C78 1.421 . S
C248 C106 1.439 . S
C265 C17 0.962 . S
C284 C9 0.981 . S
C301 C23 0.933 . S
C320 C31 0.974 . S
C337 C45 0.964 . S
C356 C37 0.917 . S
C373 C51 0.935 . S
C392 C3 0.976 . S
C409 C101 0.963 . S
C428 C65 0.888 . S
C445 C79 0.941 . S
C464 C59 0.946 . S
C481 C93 0.932 . S
C500 C73 0.972 . S
C517 C107 0.929 . S
C536 C87 0.961 . S
C553 C7 1.672 . S
C572 C77 1.644 . S
C589 C91 1.665 . S
C608 C21 1.643 . S
C625 C35 1.672 . S
C644 C105 1.639 . S
C661 C49 1.664 . S
C680 C63 1.666 . S
