# Generated by pormake.
# Topology sin, (3)-cn, num edge types: 1
# Building blocks:
#     Node 0, Type 0, BuildingBlock: OLANEW_clean_sbu_2, # of connection points: 3
#     Node 1, Type 0, BuildingBlock: OLANEW_clean_sbu_2, # of connection points: 3
#     Node 2, Type 0, BuildingBlock: OLANEW_clean_sbu_2, # of connection points: 3
#     Node 3, Type 0, BuildingBlock: OLANEW_clean_sbu_2, # of connection points: 3
#     Node 4, Type 0, BuildingBlock: OLANEW_clean_sbu_2, # of connection points: 3
#     Node 5, Type 0, BuildingBlock: OLANEW_clean_sbu_2, # of connection points: 3
#     Node 6, Type 0, BuildingBlock: OLANEW_clean_sbu_2, # of connection points: 3
#     Node 7, Type 0, BuildingBlock: OLANEW_clean_sbu_2, # of connection points: 3
#     Node 8, Type 0, BuildingBlock: OLANEW_clean_sbu_2, # of connection points: 3
#     Node 9, Type 0, BuildingBlock: OLANEW_clean_sbu_2, # of connection points: 3
#     Node 10, Type 0, BuildingBlock: OLANEW_clean_sbu_2, # of connection points: 3
#     Node 11, Type 0, BuildingBlock: OLANEW_clean_sbu_2, # of connection points: 3
#     Node 12, Type 0, BuildingBlock: OLANEW_clean_sbu_2, # of connection points: 3
#     Node 13, Type 0, BuildingBlock: OLANEW_clean_sbu_2, # of connection points: 3
#     Node 14, Type 0, BuildingBlock: OLANEW_clean_sbu_2, # of connection points: 3
#     Node 15, Type 0, BuildingBlock: OLANEW_clean_sbu_2, # of connection points: 3
#     Node 16, Type 0, BuildingBlock: OLANEW_clean_sbu_2, # of connection points: 3
#     Node 17, Type 0, BuildingBlock: OLANEW_clean_sbu_2, # of connection points: 3
#     Node 18, Type 0, BuildingBlock: OLANEW_clean_sbu_2, # of connection points: 3
#     Node 19, Type 0, BuildingBlock: OLANEW_clean_sbu_2, # of connection points: 3
#     Node 20, Type 0, BuildingBlock: OLANEW_clean_sbu_2, # of connection points: 3
#     Node 21, Type 0, BuildingBlock: OLANEW_clean_sbu_2, # of connection points: 3
#     Node 22, Type 0, BuildingBlock: OLANEW_clean_sbu_2, # of connection points: 3
#     Node 23, Type 0, BuildingBlock: OLANEW_clean_sbu_2, # of connection points: 3
#     Node 24, Type 0, BuildingBlock: OLANEW_clean_sbu_2, # of connection points: 3
#     Node 25, Type 0, BuildingBlock: OLANEW_clean_sbu_2, # of connection points: 3
#     Node 26, Type 0, BuildingBlock: OLANEW_clean_sbu_2, # of connection points: 3
#     Node 27, Type 0, BuildingBlock: OLANEW_clean_sbu_2, # of connection points: 3
#     Node 28, Type 0, BuildingBlock: OLANEW_clean_sbu_2, # of connection points: 3
#     Node 29, Type 0, BuildingBlock: OLANEW_clean_sbu_2, # of connection points: 3
#     Node 30, Type 0, BuildingBlock: OLANEW_clean_sbu_2, # of connection points: 3
#     Node 31, Type 0, BuildingBlock: OLANEW_clean_sbu_2, # of connection points: 3
#     Node 32, Type 0, BuildingBlock: OLANEW_clean_sbu_2, # of connection points: 3
#     Node 33, Type 0, BuildingBlock: OLANEW_clean_sbu_2, # of connection points: 3
#     Node 34, Type 0, BuildingBlock: OLANEW_clean_sbu_2, # of connection points: 3
#     Node 35, Type 0, BuildingBlock: OLANEW_clean_sbu_2, # of connection points: 3
#     Node 36, Type 0, BuildingBlock: OLANEW_clean_sbu_2, # of connection points: 3
#     Node 37, Type 0, BuildingBlock: OLANEW_clean_sbu_2, # of connection points: 3
#     Node 38, Type 0, BuildingBlock: OLANEW_clean_sbu_2, # of connection points: 3
#     Node 39, Type 0, BuildingBlock: OLANEW_clean_sbu_2, # of connection points: 3
#     Node 40, Type 0, BuildingBlock: OLANEW_clean_sbu_2, # of connection points: 3
#     Node 41, Type 0, BuildingBlock: OLANEW_clean_sbu_2, # of connection points: 3
#     Node 42, Type 0, BuildingBlock: OLANEW_clean_sbu_2, # of connection points: 3
#     Node 43, Type 0, BuildingBlock: OLANEW_clean_sbu_2, # of connection points: 3
#     Node 44, Type 0, BuildingBlock: OLANEW_clean_sbu_2, # of connection points: 3
#     Node 45, Type 0, BuildingBlock: OLANEW_clean_sbu_2, # of connection points: 3
#     Node 46, Type 0, BuildingBlock: OLANEW_clean_sbu_2, # of connection points: 3
#     Node 47, Type 0, BuildingBlock: OLANEW_clean_sbu_2, # of connection points: 3
#     Edge 48, Type (0, 0), BuildingBlock: ZUJKAS_clean_linker_0, # of connection points: 2
#     Edge 49, Type (0, 0), BuildingBlock: ZUJKAS_clean_linker_0, # of connection points: 2
#     Edge 50, Type (0, 0), BuildingBlock: ZUJKAS_clean_linker_0, # of connection points: 2
#     Edge 51, Type (0, 0), BuildingBlock: ZUJKAS_clean_linker_0, # of connection points: 2
#     Edge 52, Type (0, 0), BuildingBlock: ZUJKAS_clean_linker_0, # of connection points: 2
#     Edge 53, Type (0, 0), BuildingBlock: ZUJKAS_clean_linker_0, # of connection points: 2
#     Edge 54, Type (0, 0), BuildingBlock: ZUJKAS_clean_linker_0, # of connection points: 2
#     Edge 55, Type (0, 0), BuildingBlock: ZUJKAS_clean_linker_0, # of connection points: 2
#     Edge 56, Type (0, 0), BuildingBlock: ZUJKAS_clean_linker_0, # of connection points: 2
#     Edge 57, Type (0, 0), BuildingBlock: ZUJKAS_clean_linker_0, # of connection points: 2
#     Edge 58, Type (0, 0), BuildingBlock: ZUJKAS_clean_linker_0, # of connection points: 2
#     Edge 59, Type (0, 0), BuildingBlock: ZUJKAS_clean_linker_0, # of connection points: 2
#     Edge 60, Type (0, 0), BuildingBlock: ZUJKAS_clean_linker_0, # of connection points: 2
#     Edge 61, Type (0, 0), BuildingBlock: ZUJKAS_clean_linker_0, # of connection points: 2
#     Edge 62, Type (0, 0), BuildingBlock: ZUJKAS_clean_linker_0, # of connection points: 2
#     Edge 63, Type (0, 0), BuildingBlock: ZUJKAS_clean_linker_0, # of connection points: 2
#     Edge 64, Type (0, 0), BuildingBlock: ZUJKAS_clean_linker_0, # of connection points: 2
#     Edge 65, Type (0, 0), BuildingBlock: ZUJKAS_clean_linker_0, # of connection points: 2
#     Edge 66, Type (0, 0), BuildingBlock: ZUJKAS_clean_linker_0, # of connection points: 2
#     Edge 67, Type (0, 0), BuildingBlock: ZUJKAS_clean_linker_0, # of connection points: 2
#     Edge 68, Type (0, 0), BuildingBlock: ZUJKAS_clean_linker_0, # of connection points: 2
#     Edge 69, Type (0, 0), BuildingBlock: ZUJKAS_clean_linker_0, # of connection points: 2
#     Edge 70, Type (0, 0), BuildingBlock: ZUJKAS_clean_linker_0, # of connection points: 2
#     Edge 71, Type (0, 0), BuildingBlock: ZUJKAS_clean_linker_0, # of connection points: 2
#     Edge 72, Type (0, 0), BuildingBlock: ZUJKAS_clean_linker_0, # of connection points: 2
#     Edge 73, Type (0, 0), BuildingBlock: ZUJKAS_clean_linker_0, # of connection points: 2
#     Edge 74, Type (0, 0), BuildingBlock: ZUJKAS_clean_linker_0, # of connection points: 2
#     Edge 75, Type (0, 0), BuildingBlock: ZUJKAS_clean_linker_0, # of connection points: 2
#     Edge 76, Type (0, 0), BuildingBlock: ZUJKAS_clean_linker_0, # of connection points: 2
#     Edge 77, Type (0, 0), BuildingBlock: ZUJKAS_clean_linker_0, # of connection points: 2
#     Edge 78, Type (0, 0), BuildingBlock: ZUJKAS_clean_linker_0, # of connection points: 2
#     Edge 79, Type (0, 0), BuildingBlock: ZUJKAS_clean_linker_0, # of connection points: 2
#     Edge 80, Type (0, 0), BuildingBlock: ZUJKAS_clean_linker_0, # of connection points: 2
#     Edge 81, Type (0, 0), BuildingBlock: ZUJKAS_clean_linker_0, # of connection points: 2
#     Edge 82, Type (0, 0), BuildingBlock: ZUJKAS_clean_linker_0, # of connection points: 2
#     Edge 83, Type (0, 0), BuildingBlock: ZUJKAS_clean_linker_0, # of connection points: 2
#     Edge 84, Type (0, 0), BuildingBlock: ZUJKAS_clean_linker_0, # of connection points: 2
#     Edge 85, Type (0, 0), BuildingBlock: ZUJKAS_clean_linker_0, # of connection points: 2
#     Edge 86, Type (0, 0), BuildingBlock: ZUJKAS_clean_linker_0, # of connection points: 2
#     Edge 87, Type (0, 0), BuildingBlock: ZUJKAS_clean_linker_0, # of connection points: 2
#     Edge 88, Type (0, 0), BuildingBlock: ZUJKAS_clean_linker_0, # of connection points: 2
#     Edge 89, Type (0, 0), BuildingBlock: ZUJKAS_clean_linker_0, # of connection points: 2
#     Edge 90, Type (0, 0), BuildingBlock: ZUJKAS_clean_linker_0, # of connection points: 2
#     Edge 91, Type (0, 0), BuildingBlock: ZUJKAS_clean_linker_0, # of connection points: 2
#     Edge 92, Type (0, 0), BuildingBlock: ZUJKAS_clean_linker_0, # of connection points: 2
#     Edge 93, Type (0, 0), BuildingBlock: ZUJKAS_clean_linker_0, # of connection points: 2
#     Edge 94, Type (0, 0), BuildingBlock: ZUJKAS_clean_linker_0, # of connection points: 2
#     Edge 95, Type (0, 0), BuildingBlock: ZUJKAS_clean_linker_0, # of connection points: 2
#     Edge 96, Type (0, 0), BuildingBlock: ZUJKAS_clean_linker_0, # of connection points: 2
#     Edge 97, Type (0, 0), BuildingBlock: ZUJKAS_clean_linker_0, # of connection points: 2
#     Edge 98, Type (0, 0), BuildingBlock: ZUJKAS_clean_linker_0, # of connection points: 2
#     Edge 99, Type (0, 0), BuildingBlock: ZUJKAS_clean_linker_0, # of connection points: 2
#     Edge 100, Type (0, 0), BuildingBlock: ZUJKAS_clean_linker_0, # of connection points: 2
#     Edge 101, Type (0, 0), BuildingBlock: ZUJKAS_clean_linker_0, # of connection points: 2
#     Edge 102, Type (0, 0), BuildingBlock: ZUJKAS_clean_linker_0, # of connection points: 2
#     Edge 103, Type (0, 0), BuildingBlock: ZUJKAS_clean_linker_0, # of connection points: 2
#     Edge 104, Type (0, 0), BuildingBlock: ZUJKAS_clean_linker_0, # of connection points: 2
#     Edge 105, Type (0, 0), BuildingBlock: ZUJKAS_clean_linker_0, # of connection points: 2
#     Edge 106, Type (0, 0), BuildingBlock: ZUJKAS_clean_linker_0, # of connection points: 2
#     Edge 107, Type (0, 0), BuildingBlock: ZUJKAS_clean_linker_0, # of connection points: 2
#     Edge 108, Type (0, 0), BuildingBlock: ZUJKAS_clean_linker_0, # of connection points: 2
#     Edge 109, Type (0, 0), BuildingBlock: ZUJKAS_clean_linker_0, # of connection points: 2
#     Edge 110, Type (0, 0), BuildingBlock: ZUJKAS_clean_linker_0, # of connection points: 2
#     Edge 111, Type (0, 0), BuildingBlock: ZUJKAS_clean_linker_0, # of connection points: 2
#     Edge 112, Type (0, 0), BuildingBlock: ZUJKAS_clean_linker_0, # of connection points: 2
#     Edge 113, Type (0, 0), BuildingBlock: ZUJKAS_clean_linker_0, # of connection points: 2
#     Edge 114, Type (0, 0), BuildingBlock: ZUJKAS_clean_linker_0, # of connection points: 2
#     Edge 115, Type (0, 0), BuildingBlock: ZUJKAS_clean_linker_0, # of connection points: 2
#     Edge 116, Type (0, 0), BuildingBlock: ZUJKAS_clean_linker_0, # of connection points: 2
#     Edge 117, Type (0, 0), BuildingBlock: ZUJKAS_clean_linker_0, # of connection points: 2
#     Edge 118, Type (0, 0), BuildingBlock: ZUJKAS_clean_linker_0, # of connection points: 2
#     Edge 119, Type (0, 0), BuildingBlock: ZUJKAS_clean_linker_0, # of connection points: 2
# Relax obj value: 0.037
# Max RMSD: 0.037
# Mean RMSD: 0.021
data_MOF--net-sin--node1-OLANEW_clean_sbu_2--edge1-ZUJKAS_clean_linker_0
_symmetry_space_group_name_H-M    P1
_symmetry_Int_Tables_number       1
_symmetry_cell_setting            triclinic
loop_
_symmetry_equiv_pos_as_xyz
'x, y, z'
_cell_length_a     103.72636
_cell_length_b     103.72933
_cell_length_c     103.72051
_cell_angle_alpha  89.53588
_cell_angle_beta   89.533971
_cell_angle_gamma 89.543668
loop_
_atom_site_label
_atom_site_type_symbol
_atom_site_fract_x
_atom_site_fract_y
_atom_site_fract_z
_atom_type_partial_charge
O0 O 0.99119 0.39803 0.43885 0.0
Cd1 Cd 0.99321 0.42103 0.44325 0.0
O2 O 0.01029 0.39609 0.42965 0.0
Cd3 Cd 0.01604 0.41621 0.43145 0.0
O4 O 0.02982 0.43169 0.42783 0.0
C5 C 0.0393 0.43293 0.43539 0.0
O6 O 0.03993 0.42552 0.44571 0.0
C7 C 0.99972 0.39109 0.43335 0.0
C8 C 0.96889 0.43136 0.4488 0.0
O9 O 0.97341 0.43146 0.43726 0.0
O10 O 0.97597 0.42658 0.45774 0.0
O11 O 0.96686 0.94733 0.29353 0.0
Cd12 Cd 0.96472 0.9683 0.30393 0.0
O13 O 0.98727 0.95133 0.2899 0.0
Cd14 Cd 0.00723 0.94676 0.28445 0.0
O15 O 0.02753 0.94267 0.28023 0.0
C16 C 0.0328 0.94663 0.26984 0.0
O17 O 0.02584 0.95319 0.26149 0.0
C18 C 0.97772 0.94376 0.28901 0.0
C19 C 0.95643 0.96578 0.32949 0.0
O20 O 0.94833 0.96733 0.32033 0.0
O21 O 0.96846 0.96546 0.32657 0.0
O22 O 0.69946 0.79748 0.93452 0.0
Cd23 Cd 0.69803 0.77418 0.93795 0.0
O24 O 0.6942 0.80248 0.95445 0.0
Cd25 Cd 0.68705 0.78304 0.95812 0.0
O26 O 0.671 0.76959 0.95704 0.0
C27 C 0.66029 0.77356 0.96162 0.0
O28 O 0.65985 0.78486 0.96726 0.0
C29 C 0.698 0.80591 0.94327 0.0
C30 C 0.72274 0.76416 0.94205 0.0
O31 O 0.71823 0.76544 0.93064 0.0
O32 O 0.71547 0.7674 0.95156 0.0
O33 O 0.72558 0.24036 0.8011 0.0
Cd34 Cd 0.72588 0.22006 0.81322 0.0
O35 O 0.70548 0.23665 0.79615 0.0
Cd36 Cd 0.68628 0.24132 0.78873 0.0
O37 O 0.66643 0.24526 0.7829 0.0
C38 C 0.6628 0.24345 0.77138 0.0
O39 O 0.67121 0.23924 0.76283 0.0
C40 C 0.71532 0.24389 0.79543 0.0
C41 C 0.73166 0.22393 0.83913 0.0
O42 O 0.74058 0.22161 0.83083 0.0
O43 O 0.71999 0.2244 0.83518 0.0
O44 O 0.99308 0.80567 0.24787 0.0
Cd45 Cd 0.99691 0.78301 0.24263 0.0
O46 O 0.0095 0.81293 0.23647 0.0
Cd47 Cd 0.01795 0.79387 0.23323 0.0
O48 O 0.03429 0.78065 0.2355 0.0
C49 C 0.03817 0.77865 0.24694 0.0
O50 O 0.03168 0.78385 0.25654 0.0
C51 C 0.99958 0.81507 0.24342 0.0
C52 C 0.97326 0.77092 0.23904 0.0
O53 O 0.97862 0.77099 0.25013 0.0
O54 O 0.97921 0.77636 0.2296 0.0
O55 O 0.71718 0.94159 0.89644 0.0
Cd56 Cd 0.71753 0.9626 0.88561 0.0
O57 O 0.69677 0.94467 0.90113 0.0
Cd58 Cd 0.67738 0.93942 0.90776 0.0
O59 O 0.65782 0.93458 0.91398 0.0
C60 C 0.65126 0.94236 0.92086 0.0
O61 O 0.65644 0.95333 0.92425 0.0
C62 C 0.70681 0.93754 0.9016 0.0
C63 C 0.72469 0.96032 0.85972 0.0
O64 O 0.73314 0.96218 0.86845 0.0
O65 O 0.71284 0.95957 0.86324 0.0
O66 O 0.71029 0.37989 0.74573 0.0
Cd67 Cd 0.70764 0.40265 0.73984 0.0
O68 O 0.69624 0.37317 0.73156 0.0
Cd69 Cd 0.68909 0.39254 0.72714 0.0
O70 O 0.67375 0.40702 0.72845 0.0
C71 C 0.66982 0.40987 0.73972 0.0
O72 O 0.67573 0.40469 0.74968 0.0
C73 C 0.70459 0.37069 0.74016 0.0
C74 C 0.7316 0.4141 0.73562 0.0
O75 O 0.72623 0.41423 0.7468 0.0
O76 O 0.72558 0.40865 0.72642 0.0
O77 O 0.96828 0.25678 0.39272 0.0
Cd78 Cd 0.96511 0.23555 0.38325 0.0
O79 O 0.98842 0.25142 0.39619 0.0
Cd80 Cd 0.00805 0.25382 0.40339 0.0
O81 O 0.02839 0.25516 0.40849 0.0
C82 C 0.03246 0.25136 0.41942 0.0
O83 O 0.02419 0.24668 0.42788 0.0
C84 C 0.97936 0.25974 0.39684 0.0
C85 C 0.95725 0.23729 0.3576 0.0
O86 O 0.94898 0.23674 0.36684 0.0
O87 O 0.96924 0.23702 0.3605 0.0
O88 O 0.43086 0.99331 0.39366 0.0
Cd89 Cd 0.43646 0.99705 0.41618 0.0
O90 O 0.45027 0.99782 0.38632 0.0
Cd91 Cd 0.45515 0.00722 0.40436 0.0
O92 O 0.45341 0.02442 0.41629 0.0
C93 C 0.44242 0.02993 0.41619 0.0
O94 O 0.43308 0.02464 0.40965 0.0
C95 C 0.43892 0.99376 0.38436 0.0
C96 C 0.4417 0.97343 0.42819 0.0
O97 O 0.43032 0.97835 0.42842 0.0
O98 O 0.45064 0.9798 0.42249 0.0
O99 O 0.24001 0.80343 0.72308 0.0
Cd100 Cd 0.2198 0.81572 0.72305 0.0
O101 O 0.23667 0.79833 0.70293 0.0
Cd102 Cd 0.2421 0.79073 0.68399 0.0
O103 O 0.24784 0.78494 0.66454 0.0
C104 C 0.2448 0.77403 0.66002 0.0
O105 O 0.23813 0.766 0.66727 0.0
C106 C 0.24369 0.79765 0.71292 0.0
C107 C 0.22366 0.84144 0.72963 0.0
O108 O 0.22103 0.83293 0.73826 0.0
O109 O 0.22444 0.83779 0.71787 0.0
O110 O 0.25975 0.19696 0.88155 0.0
Cd111 Cd 0.25454 0.19367 0.90438 0.0
O112 O 0.24065 0.19094 0.87494 0.0
Cd113 Cd 0.2361 0.18209 0.89358 0.0
O114 O 0.23665 0.16538 0.90653 0.0
C115 C 0.24757 0.15994 0.908 0.0
O116 O 0.25772 0.16507 0.90237 0.0
C117 C 0.2517 0.19563 0.87249 0.0
C118 C 0.25111 0.21763 0.91605 0.0
O119 O 0.26215 0.21198 0.91596 0.0
O120 O 0.24165 0.21182 0.91082 0.0
O121 O 0.44653 0.38136 0.22757 0.0
Cd122 Cd 0.46684 0.36927 0.22832 0.0
O123 O 0.4521 0.38916 0.20865 0.0
Cd124 Cd 0.44986 0.40118 0.19132 0.0
O125 O 0.44593 0.41151 0.17331 0.0
C126 C 0.45236 0.40885 0.16318 0.0
O127 O 0.46149 0.40001 0.1638 0.0
C128 C 0.44387 0.38831 0.21779 0.0
C129 C 0.46269 0.34338 0.2345 0.0
O130 O 0.46484 0.35167 0.2433 0.0
O131 O 0.46256 0.34732 0.22275 0.0
O132 O 0.43131 0.19265 0.30928 0.0
Cd133 Cd 0.4356 0.18879 0.28641 0.0
O134 O 0.45102 0.18746 0.31514 0.0
Cd135 Cd 0.45466 0.17789 0.29679 0.0
O136 O 0.45204 0.16022 0.28583 0.0
C137 C 0.44985 0.15036 0.29283 0.0
O138 O 0.44976 0.15168 0.30542 0.0
C139 C 0.43989 0.19191 0.31795 0.0
C140 C 0.44038 0.21238 0.27421 0.0
O141 O 0.42899 0.20768 0.27467 0.0
O142 O 0.44955 0.20578 0.27929 0.0
O143 O 0.4522 0.80467 0.4763 0.0
Cd144 Cd 0.47197 0.81733 0.47551 0.0
O145 O 0.45435 0.80296 0.49725 0.0
Cd146 Cd 0.44926 0.79589 0.51656 0.0
O147 O 0.44512 0.78954 0.53629 0.0
C148 C 0.44689 0.77786 0.53968 0.0
O149 O 0.45114 0.76957 0.5311 0.0
C150 C 0.44797 0.80062 0.48711 0.0
C151 C 0.46687 0.84304 0.46906 0.0
O152 O 0.46947 0.8347 0.46035 0.0
O153 O 0.46672 0.83922 0.48085 0.0
O154 O 0.24872 0.99232 0.80551 0.0
Cd155 Cd 0.24376 0.99589 0.78275 0.0
O156 O 0.23551 0.00743 0.81258 0.0
Cd157 Cd 0.23232 0.01575 0.79347 0.0
O158 O 0.23458 0.03208 0.78024 0.0
C159 C 0.24601 0.03596 0.77821 0.0
O160 O 0.25563 0.02946 0.78337 0.0
C161 C 0.24334 0.99821 0.81485 0.0
C162 C 0.24041 0.97213 0.7708 0.0
O163 O 0.25148 0.97753 0.77098 0.0
O164 O 0.23088 0.97808 0.77608 0.0
O165 O 0.25226 0.38642 0.96312 0.0
Cd166 Cd 0.23167 0.37524 0.96178 0.0
O167 O 0.24759 0.39139 0.9831 0.0
Cd168 Cd 0.25139 0.39845 0.00255 0.0
O169 O 0.25492 0.4047 0.02227 0.0
C170 C 0.24983 0.41501 0.02657 0.0
O171 O 0.24243 0.42198 0.01895 0.0
C172 C 0.25539 0.39183 0.97357 0.0
C173 C 0.23515 0.34932 0.9555 0.0
O174 O 0.23349 0.35792 0.94671 0.0
O175 O 0.23513 0.35299 0.96727 0.0
O176 O 0.39182 0.43771 0.98777 0.0
Cd177 Cd 0.41415 0.44369 0.9919 0.0
O178 O 0.38375 0.44852 0.00417 0.0
Cd179 Cd 0.40239 0.4523 0.01295 0.0
O180 O 0.41462 0.45086 0.02997 0.0
C181 C 0.4102 0.45583 0.04027 0.0
O182 O 0.39918 0.46216 0.03982 0.0
C183 C 0.3821 0.4417 0.99419 0.0
C184 C 0.42685 0.44821 0.96847 0.0
O185 O 0.42697 0.437 0.97376 0.0
O186 O 0.42091 0.45733 0.97438 0.0
O187 O 0.87938 0.25535 0.20479 0.0
Cd188 Cd 0.90196 0.24883 0.20227 0.0
O189 O 0.8725 0.24415 0.18832 0.0
Cd190 Cd 0.89171 0.2395 0.18085 0.0
O191 O 0.90522 0.23965 0.16457 0.0
C192 C 0.90783 0.25058 0.15964 0.0
O193 O 0.90305 0.26099 0.16509 0.0
C194 C 0.87015 0.25135 0.19794 0.0
C195 C 0.91317 0.24639 0.22657 0.0
O196 O 0.91371 0.25703 0.22024 0.0
O197 O 0.90753 0.23684 0.22131 0.0
O198 O 0.80461 0.72518 0.23919 0.0
Cd199 Cd 0.8163 0.72512 0.21864 0.0
O200 O 0.79941 0.70504 0.23603 0.0
Cd201 Cd 0.79201 0.68596 0.24122 0.0
O202 O 0.78577 0.66634 0.24567 0.0
C203 C 0.77421 0.66289 0.24379 0.0
O204 O 0.7659 0.67135 0.23919 0.0
C205 C 0.79897 0.71502 0.24308 0.0
C206 C 0.84222 0.73118 0.222 0.0
O207 O 0.83381 0.73999 0.21964 0.0
O208 O 0.83837 0.71948 0.22272 0.0
O209 O 0.80152 0.94242 0.70537 0.0
Cd210 Cd 0.77873 0.94831 0.70348 0.0
O211 O 0.80775 0.95487 0.68926 0.0
Cd212 Cd 0.78832 0.95879 0.68223 0.0
O213 O 0.7762 0.95691 0.66522 0.0
C214 C 0.78259 0.95421 0.65507 0.0
O215 O 0.7952 0.95319 0.65585 0.0
C216 C 0.8105 0.94722 0.69849 0.0
C217 C 0.76747 0.95038 0.72793 0.0
O218 O 0.76735 0.9397 0.7218 0.0
O219 O 0.77277 0.96011 0.72243 0.0
O220 O 0.38922 0.95948 0.25325 0.0
Cd221 Cd 0.37937 0.95538 0.23238 0.0
O222 O 0.39182 0.97989 0.24821 0.0
Cd223 Cd 0.39897 0.99933 0.25185 0.0
O224 O 0.40608 0.01837 0.25699 0.0
C225 C 0.40961 0.02643 0.24839 0.0
O226 O 0.40896 0.02318 0.23619 0.0
C227 C 0.39297 0.97067 0.2563 0.0
C228 C 0.35307 0.95038 0.23499 0.0
O229 O 0.36148 0.94132 0.23605 0.0
O230 O 0.35709 0.96182 0.23266 0.0
O231 O 0.31144 0.75836 0.49464 0.0
Cd232 Cd 0.28841 0.754 0.49713 0.0
O233 O 0.31776 0.73876 0.49997 0.0
Cd234 Cd 0.29882 0.73459 0.50825 0.0
O235 O 0.28646 0.73678 0.52525 0.0
C236 C 0.28736 0.74758 0.53088 0.0
O237 O 0.29484 0.75643 0.52573 0.0
C238 C 0.32041 0.75001 0.49583 0.0
C239 C 0.27802 0.74886 0.47298 0.0
O240 O 0.27878 0.76043 0.47714 0.0
O241 O 0.28196 0.73968 0.48033 0.0
O242 O 0.80027 0.47689 0.45664 0.0
Cd243 Cd 0.81156 0.47622 0.47721 0.0
O244 O 0.79379 0.49653 0.461 0.0
Cd245 Cd 0.78523 0.51543 0.45665 0.0
O246 O 0.77774 0.53481 0.45278 0.0
C247 C 0.76761 0.53651 0.44615 0.0
O248 O 0.76162 0.52641 0.44162 0.0
C249 C 0.79409 0.487 0.45335 0.0
C250 C 0.83747 0.4696 0.47369 0.0
O251 O 0.82897 0.46096 0.476 0.0
O252 O 0.83371 0.48139 0.47312 0.0
O253 O 0.89283 0.72049 0.94328 0.0
Cd254 Cd 0.88215 0.72406 0.96404 0.0
O255 O 0.89471 0.6998 0.94743 0.0
Cd256 Cd 0.90137 0.68013 0.94351 0.0
O257 O 0.90809 0.6604 0.94029 0.0
C258 C 0.91831 0.65826 0.93378 0.0
O259 O 0.92471 0.66809 0.92896 0.0
C260 C 0.89645 0.70931 0.9398 0.0
C261 C 0.856 0.72966 0.96084 0.0
O262 O 0.86448 0.73857 0.96031 0.0
O263 O 0.85987 0.71807 0.96295 0.0
O264 O 0.48032 0.8724 0.94867 0.0
Cd265 Cd 0.48267 0.89545 0.95269 0.0
O266 O 0.49592 0.86612 0.96159 0.0
Cd267 Cd 0.50299 0.8856 0.9647 0.0
O268 O 0.51895 0.89908 0.96262 0.0
C269 C 0.52299 0.90129 0.95122 0.0
O270 O 0.51682 0.89617 0.94153 0.0
C271 C 0.4868 0.86338 0.95399 0.0
C272 C 0.45831 0.90687 0.95513 0.0
O273 O 0.46375 0.90562 0.94407 0.0
O274 O 0.46448 0.90291 0.96508 0.0
O275 O 0.47986 0.4532 0.80138 0.0
Cd276 Cd 0.47957 0.4735 0.81318 0.0
O277 O 0.50003 0.4565 0.79596 0.0
Cd278 Cd 0.51838 0.45222 0.78621 0.0
O279 O 0.53727 0.44728 0.77808 0.0
C280 C 0.54383 0.45554 0.77178 0.0
O281 O 0.53904 0.46718 0.77004 0.0
C282 C 0.49009 0.44938 0.79573 0.0
C283 C 0.47223 0.46956 0.83885 0.0
O284 O 0.46385 0.47218 0.83019 0.0
O285 O 0.48411 0.46887 0.83538 0.0
O286 O 0.20361 0.29162 0.42783 0.0
Cd287 Cd 0.20047 0.26896 0.43355 0.0
O288 O 0.20002 0.29864 0.44749 0.0
Cd289 Cd 0.19089 0.2805 0.45293 0.0
O290 O 0.17267 0.27018 0.4518 0.0
C291 C 0.1667 0.27178 0.44124 0.0
O292 O 0.17219 0.27862 0.43203 0.0
C293 C 0.2035 0.3008 0.4359 0.0
C294 C 0.22424 0.25854 0.44076 0.0
O295 O 0.2207 0.25867 0.42894 0.0
O296 O 0.21638 0.26305 0.44922 0.0
O297 O 0.23038 0.74143 0.30499 0.0
Cd298 Cd 0.23473 0.72102 0.31611 0.0
O299 O 0.2099 0.73672 0.30312 0.0
Cd300 Cd 0.19017 0.74009 0.29645 0.0
O301 O 0.1703 0.74336 0.29028 0.0
C302 C 0.16711 0.74168 0.27861 0.0
O303 O 0.17594 0.73797 0.27025 0.0
C304 C 0.21913 0.74455 0.30129 0.0
C305 C 0.24091 0.72509 0.3419 0.0
O306 O 0.24958 0.72546 0.33303 0.0
O307 O 0.2293 0.72272 0.33858 0.0
O308 O 0.49074 0.31279 0.74939 0.0
Cd309 Cd 0.49333 0.2898 0.74497 0.0
O310 O 0.50624 0.31918 0.73628 0.0
Cd311 Cd 0.51346 0.29971 0.73271 0.0
O312 O 0.52931 0.2858 0.73411 0.0
C313 C 0.53367 0.28359 0.74534 0.0
O314 O 0.52788 0.289 0.75525 0.0
C315 C 0.49711 0.32185 0.74408 0.0
C316 C 0.46912 0.27895 0.74119 0.0
O317 O 0.47388 0.27985 0.75251 0.0
O318 O 0.47591 0.28298 0.73162 0.0
O319 O 0.21 0.43891 0.3901 0.0
Cd320 Cd 0.20744 0.46086 0.38172 0.0
O321 O 0.19277 0.43223 0.38 0.0
Cd322 Cd 0.18469 0.45142 0.37656 0.0
O323 O 0.16666 0.46134 0.38139 0.0
C324 C 0.16371 0.4616 0.39331 0.0
O325 O 0.17212 0.45715 0.40169 0.0
C326 C 0.20273 0.42977 0.38667 0.0
C327 C 0.21679 0.46189 0.35641 0.0
O328 O 0.22432 0.46331 0.36601 0.0
O329 O 0.20476 0.46021 0.35875 0.0
O330 O 0.19892 0.88291 0.26393 0.0
Cd331 Cd 0.1961 0.90595 0.25949 0.0
O332 O 0.19609 0.87692 0.24387 0.0
Cd333 Cd 0.18766 0.89569 0.23914 0.0
O334 O 0.17059 0.90809 0.24041 0.0
C335 C 0.16379 0.90644 0.25053 0.0
O336 O 0.16781 0.89814 0.25929 0.0
C337 C 0.19903 0.87412 0.25545 0.0
C338 C 0.2202 0.91682 0.25458 0.0
O339 O 0.21573 0.91587 0.2661 0.0
O340 O 0.21317 0.91285 0.24534 0.0
O341 O 0.47227 0.73256 0.89624 0.0
Cd342 Cd 0.47217 0.7125 0.88404 0.0
O343 O 0.49213 0.72862 0.90224 0.0
Cd344 Cd 0.51004 0.73219 0.91267 0.0
O345 O 0.5286 0.73601 0.92167 0.0
C346 C 0.53809 0.72842 0.91973 0.0
O347 O 0.53648 0.71829 0.91241 0.0
C348 C 0.48226 0.73599 0.90228 0.0
C349 C 0.46355 0.71674 0.85892 0.0
O350 O 0.45566 0.71376 0.86802 0.0
O351 O 0.47552 0.71765 0.86168 0.0
O352 O 0.94372 0.4799 0.87324 0.0
Cd353 Cd 0.94664 0.48242 0.89644 0.0
O354 O 0.95332 0.49799 0.86771 0.0
Cd355 Cd 0.95512 0.50525 0.88731 0.0
O356 O 0.9526 0.52156 0.90032 0.0
C357 C 0.95953 0.53142 0.89827 0.0
O358 O 0.96842 0.53093 0.88918 0.0
C359 C 0.94778 0.48761 0.86455 0.0
C360 C 0.95036 0.45828 0.90801 0.0
O361 O 0.93901 0.46293 0.90635 0.0
O362 O 0.95998 0.46512 0.90437 0.0
O363 O 0.74044 0.30904 0.2276 0.0
Cd364 Cd 0.71996 0.32049 0.23046 0.0
O365 O 0.73443 0.30406 0.20808 0.0
Cd366 Cd 0.73625 0.29457 0.18937 0.0
O367 O 0.73855 0.2861 0.17028 0.0
C368 C 0.7459 0.27638 0.16862 0.0
O369 O 0.75203 0.27146 0.17857 0.0
C370 C 0.74289 0.30364 0.21689 0.0
C371 C 0.72365 0.34592 0.23809 0.0
O372 O 0.7221 0.33687 0.24644 0.0
O373 O 0.72343 0.34294 0.22613 0.0
O374 O 0.7487 0.71169 0.37945 0.0
Cd375 Cd 0.74244 0.70868 0.40205 0.0
O376 O 0.73673 0.69581 0.37251 0.0
Cd377 Cd 0.73261 0.68811 0.39174 0.0
O378 O 0.73411 0.67193 0.40528 0.0
C379 C 0.72794 0.66176 0.40266 0.0
O380 O 0.72033 0.66183 0.39259 0.0
C381 C 0.74422 0.7052 0.37017 0.0
C382 C 0.73766 0.73253 0.41353 0.0
O383 O 0.7489 0.72731 0.41385 0.0
O384 O 0.72865 0.72639 0.40791 0.0
O385 O 0.94122 0.88705 0.71457 0.0
Cd386 Cd 0.96164 0.87511 0.71506 0.0
O387 O 0.94572 0.89311 0.69477 0.0
Cd388 Cd 0.94281 0.90358 0.67659 0.0
O389 O 0.94015 0.91238 0.65757 0.0
C390 C 0.93296 0.92225 0.65608 0.0
O391 O 0.92713 0.92722 0.6662 0.0
C392 C 0.93803 0.89315 0.7044 0.0
C393 C 0.95835 0.84954 0.72296 0.0
O394 O 0.96073 0.8584 0.73113 0.0
O395 O 0.9575 0.85279 0.71104 0.0
O396 O 0.93298 0.69602 0.80031 0.0
Cd397 Cd 0.938 0.69409 0.77732 0.0
O398 O 0.9526 0.69083 0.80647 0.0
Cd399 Cd 0.95727 0.68316 0.78744 0.0
O400 O 0.95621 0.66701 0.77412 0.0
C401 C 0.96426 0.65777 0.77526 0.0
O402 O 0.97355 0.65873 0.78373 0.0
C403 C 0.94125 0.69472 0.80923 0.0
C404 C 0.94165 0.71859 0.76659 0.0
O405 O 0.93053 0.71329 0.7666 0.0
O406 O 0.95108 0.71222 0.77148 0.0
O407 O 0.94679 0.29175 0.96248 0.0
Cd408 Cd 0.96799 0.30102 0.95814 0.0
O409 O 0.95144 0.28905 0.98292 0.0
Cd410 Cd 0.9478 0.2824 0.00273 0.0
O411 O 0.94304 0.2772 0.02266 0.0
C412 C 0.95066 0.27041 0.02949 0.0
O413 O 0.9616 0.26637 0.0244 0.0
C414 C 0.94345 0.2881 0.97374 0.0
C415 C 0.96599 0.32695 0.95093 0.0
O416 O 0.96521 0.31797 0.94256 0.0
O417 O 0.96776 0.32367 0.96273 0.0
O418 O 0.75228 0.49672 0.31581 0.0
Cd419 Cd 0.74728 0.49958 0.29295 0.0
O420 O 0.7356 0.50814 0.3225 0.0
Cd421 Cd 0.73165 0.51573 0.30324 0.0
O422 O 0.73347 0.53136 0.28914 0.0
C423 C 0.74481 0.53544 0.287 0.0
O424 O 0.75453 0.52953 0.29263 0.0
C425 C 0.7453 0.50099 0.32499 0.0
C426 C 0.74317 0.47559 0.28177 0.0
O427 O 0.73388 0.48191 0.28704 0.0
O428 O 0.75437 0.48071 0.28162 0.0
O429 O 0.73174 0.89891 0.46508 0.0
Cd430 Cd 0.71122 0.88751 0.46488 0.0
O431 O 0.72834 0.90423 0.48523 0.0
Cd432 Cd 0.73363 0.91154 0.50422 0.0
O433 O 0.73965 0.91814 0.52319 0.0
C434 C 0.73146 0.92234 0.53136 0.0
O435 O 0.71921 0.92278 0.52824 0.0
C436 C 0.73553 0.90446 0.47523 0.0
C437 C 0.71494 0.8619 0.45753 0.0
O438 O 0.7125 0.87073 0.44915 0.0
O439 O 0.71551 0.86518 0.4694 0.0
O440 O 0.8731 0.94846 0.48039 0.0
Cd441 Cd 0.89583 0.95357 0.48347 0.0
O442 O 0.86615 0.96041 0.49648 0.0
Cd443 Cd 0.88528 0.96353 0.50446 0.0
O444 O 0.89814 0.96141 0.52094 0.0
C445 C 0.89479 0.96704 0.5313 0.0
O446 O 0.88444 0.97443 0.53123 0.0
C447 C 0.86381 0.95322 0.48692 0.0
C448 C 0.90822 0.95564 0.45954 0.0
O449 O 0.90795 0.94489 0.46571 0.0
O450 O 0.90278 0.96545 0.46477 0.0
O451 O 0.37959 0.74796 0.7105 0.0
Cd452 Cd 0.40243 0.74261 0.70748 0.0
O453 O 0.37304 0.73412 0.69605 0.0
Cd454 Cd 0.39237 0.7305 0.68838 0.0
O455 O 0.40569 0.73311 0.67218 0.0
C456 C 0.40657 0.74454 0.66777 0.0
O457 O 0.40023 0.75382 0.67367 0.0
C458 C 0.37046 0.74238 0.70471 0.0
C459 C 0.41429 0.7384 0.73124 0.0
O460 O 0.41409 0.74963 0.72599 0.0
O461 O 0.40898 0.72914 0.7252 0.0
O462 O 0.30105 0.22896 0.74026 0.0
Cd463 Cd 0.31187 0.23349 0.71972 0.0
O464 O 0.30034 0.20834 0.73582 0.0
Cd465 Cd 0.2945 0.18839 0.73946 0.0
O466 O 0.28862 0.16847 0.74291 0.0
C467 C 0.27692 0.16523 0.74156 0.0
O468 O 0.26842 0.17403 0.73812 0.0
C469 C 0.29795 0.21756 0.74352 0.0
C470 C 0.33766 0.23991 0.72331 0.0
O471 O 0.32872 0.24849 0.72389 0.0
O472 O 0.33441 0.22826 0.72099 0.0
O473 O 0.30803 0.43943 0.21012 0.0
Cd474 Cd 0.28497 0.44283 0.20654 0.0
O475 O 0.31288 0.43883 0.18942 0.0
Cd476 Cd 0.2935 0.4415 0.18174 0.0
O477 O 0.28119 0.44024 0.16482 0.0
C478 C 0.28243 0.4487 0.15597 0.0
O479 O 0.29028 0.45838 0.15782 0.0
C480 C 0.31636 0.43822 0.20114 0.0
C481 C 0.27198 0.44705 0.22984 0.0
O482 O 0.27419 0.43561 0.22577 0.0
O483 O 0.27583 0.45653 0.22284 0.0
O484 O 0.89719 0.46971 0.73119 0.0
Cd485 Cd 0.88563 0.46911 0.71077 0.0
O486 O 0.90122 0.49021 0.72804 0.0
Cd487 Cd 0.90961 0.50895 0.73257 0.0
O488 O 0.91656 0.52816 0.73734 0.0
C489 C 0.92718 0.53234 0.73284 0.0
O490 O 0.93411 0.52491 0.72523 0.0
C491 C 0.90205 0.48016 0.73512 0.0
C492 C 0.86028 0.46099 0.71459 0.0
O493 O 0.86934 0.45288 0.71211 0.0
O494 O 0.8632 0.47295 0.71518 0.0
O495 O 0.80494 0.24882 0.99037 0.0
Cd496 Cd 0.78219 0.24407 0.99423 0.0
O497 O 0.81187 0.23913 0.00798 0.0
Cd498 Cd 0.79274 0.23634 0.01642 0.0
O499 O 0.77989 0.23837 0.03309 0.0
C500 C 0.78325 0.23265 0.04343 0.0
O501 O 0.79359 0.22525 0.04322 0.0
C502 C 0.81421 0.24508 0.99746 0.0
C503 C 0.77009 0.2407 0.97056 0.0
O504 O 0.77035 0.25179 0.97592 0.0
O505 O 0.77533 0.23117 0.97652 0.0
O506 O 0.29201 0.96379 0.94683 0.0
Cd507 Cd 0.3011 0.9591 0.96803 0.0
O508 O 0.28794 0.98381 0.95223 0.0
Cd509 Cd 0.28244 0.00396 0.94866 0.0
O510 O 0.27793 0.02427 0.94504 0.0
C511 C 0.26654 0.02865 0.94655 0.0
O512 O 0.25737 0.02075 0.9503 0.0
C513 C 0.28762 0.97489 0.94388 0.0
C514 C 0.32687 0.95138 0.96603 0.0
O515 O 0.31773 0.94322 0.96506 0.0
O516 O 0.32384 0.96321 0.96799 0.0
O517 O 0.3945 0.22602 0.45097 0.0
Cd518 Cd 0.38382 0.2303 0.47159 0.0
O519 O 0.39499 0.20532 0.45541 0.0
Cd520 Cd 0.40042 0.18523 0.45177 0.0
O521 O 0.4056 0.16509 0.44831 0.0
C522 C 0.41687 0.16092 0.45079 0.0
O523 O 0.4254 0.16891 0.45543 0.0
C524 C 0.3974 0.21458 0.44767 0.0
C525 C 0.35729 0.23343 0.46842 0.0
O526 O 0.36497 0.24297 0.4671 0.0
O527 O 0.36214 0.22239 0.47133 0.0
H528 H 0.95589 0.43055 0.47184 0.0
H529 H 0.9337 0.43747 0.4762 0.0
H530 H 0.92999 0.45033 0.43675 0.0
H531 H 0.95209 0.44321 0.43222 0.0
H532 H 0.92185 0.46123 0.47418 0.0
H533 H 0.89943 0.42625 0.44113 0.0
H534 H 0.91613 0.42514 0.44578 0.0
H535 H 0.9112 0.43641 0.43347 0.0
C536 C 0.95037 0.43487 0.46408 0.0
C537 C 0.95572 0.43623 0.45165 0.0
C538 C 0.93769 0.43883 0.4666 0.0
C539 C 0.93012 0.4442 0.45674 0.0
C540 C 0.93556 0.44593 0.44442 0.0
H541 H 0.85734 0.48545 0.46672 0.0
H542 H 0.87988 0.47944 0.46287 0.0
C543 C 0.94822 0.44193 0.44188 0.0
C544 C 0.91653 0.44791 0.45936 0.0
H545 H 0.88557 0.44211 0.45023 0.0
C546 C 0.9139 0.45705 0.46897 0.0
C547 C 0.90618 0.44228 0.45268 0.0
C548 C 0.90832 0.43189 0.44278 0.0
C549 C 0.90121 0.46083 0.47196 0.0
C550 C 0.89089 0.45551 0.46498 0.0
C551 C 0.89351 0.44626 0.45549 0.0
C552 C 0.87727 0.45924 0.46748 0.0
C553 C 0.89895 0.47029 0.48274 0.0
C554 C 0.86824 0.44982 0.47104 0.0
C555 C 0.85532 0.4532 0.47312 0.0
C556 C 0.85118 0.46606 0.47164 0.0
C557 C 0.86024 0.47547 0.46803 0.0
C558 C 0.87315 0.47207 0.4659 0.0
H559 H 0.90733 0.47068 0.48933 0.0
H560 H 0.89749 0.48008 0.47857 0.0
H561 H 0.89023 0.46775 0.48846 0.0
H562 H 0.8712 0.43985 0.47225 0.0
H563 H 0.84859 0.44571 0.47587 0.0
H564 H 0.92145 0.9369 0.44641 0.0
H565 H 0.93093 0.93838 0.42478 0.0
H566 H 0.91794 0.97787 0.42163 0.0
H567 H 0.90867 0.97656 0.44333 0.0
H568 H 0.91878 0.94324 0.40208 0.0
H569 H 0.95546 0.98067 0.4107 0.0
H570 H 0.94724 0.97234 0.42367 0.0
H571 H 0.9395 0.9856 0.41545 0.0
C572 C 0.92072 0.94594 0.44117 0.0
C573 C 0.91435 0.95663 0.44662 0.0
C574 C 0.92613 0.94677 0.4288 0.0
C575 C 0.92531 0.95829 0.42166 0.0
C576 C 0.91896 0.96898 0.42707 0.0
H577 H 0.93177 0.96756 0.33886 0.0
H578 H 0.92453 0.96537 0.36125 0.0
C579 C 0.91359 0.96818 0.43946 0.0
C580 C 0.93058 0.95896 0.40833 0.0
H581 H 0.95109 0.97583 0.38871 0.0
C582 C 0.92591 0.9503 0.39917 0.0
C583 C 0.94001 0.96807 0.40459 0.0
C584 C 0.94595 0.97711 0.41415 0.0
C585 C 0.93019 0.95071 0.3863 0.0
C586 C 0.93917 0.96021 0.38243 0.0
C587 C 0.94408 0.96865 0.39166 0.0
C588 C 0.94357 0.96158 0.36885 0.0
C589 C 0.92515 0.94087 0.37701 0.0
C590 C 0.95673 0.96053 0.36572 0.0
C591 C 0.96092 0.96191 0.35294 0.0
C592 C 0.95202 0.96439 0.34305 0.0
C593 C 0.93886 0.96556 0.34623 0.0
C594 C 0.93469 0.96423 0.35902 0.0
H595 H 0.92141 0.93221 0.38214 0.0
H596 H 0.91709 0.94519 0.37144 0.0
H597 H 0.93277 0.93777 0.3701 0.0
H598 H 0.96375 0.95856 0.37317 0.0
H599 H 0.97112 0.96098 0.35082 0.0
H600 H 0.73408 0.75743 0.96489 0.0
H601 H 0.75643 0.75063 0.96835 0.0
H602 H 0.76403 0.75391 0.92751 0.0
H603 H 0.74161 0.76033 0.92393 0.0
H604 H 0.77487 0.73244 0.93745 0.0
H605 H 0.78702 0.77435 0.96776 0.0
H606 H 0.77376 0.76516 0.97403 0.0
H607 H 0.7722 0.77351 0.95884 0.0
C608 C 0.7405 0.75667 0.95664 0.0
C609 C 0.73609 0.7595 0.94414 0.0
C610 C 0.7533 0.75286 0.95865 0.0
C611 C 0.76198 0.75203 0.94822 0.0
C612 C 0.75752 0.75455 0.93571 0.0
H613 H 0.84527 0.7524 0.95268 0.0
H614 H 0.82245 0.75731 0.94941 0.0
C615 C 0.7447 0.75823 0.93368 0.0
C616 C 0.77573 0.74859 0.95031 0.0
H617 H 0.80281 0.75776 0.96624 0.0
C618 C 0.78099 0.73798 0.94373 0.0
C619 C 0.78377 0.75596 0.95836 0.0
C620 C 0.77895 0.76796 0.96505 0.0
C621 C 0.79402 0.73447 0.94502 0.0
C622 C 0.80194 0.74159 0.9534 0.0
C623 C 0.7967 0.75224 0.95992 0.0
C624 C 0.81579 0.73841 0.95526 0.0
C625 C 0.79924 0.72342 0.93713 0.0
C626 C 0.81965 0.72618 0.95976 0.0
C627 C 0.83272 0.72329 0.9615 0.0
C628 C 0.84216 0.73266 0.959 0.0
C629 C 0.83825 0.74496 0.9547 0.0
C630 C 0.8252 0.74779 0.95284 0.0
H631 H 0.79308 0.72148 0.92866 0.0
H632 H 0.8092 0.72537 0.93365 0.0
H633 H 0.79947 0.71456 0.94319 0.0
H634 H 0.81255 0.71889 0.96202 0.0
H635 H 0.83541 0.71377 0.96494 0.0
H636 H 0.71504 0.23016 0.85879 0.0
H637 H 0.72028 0.23381 0.88143 0.0
H638 H 0.76036 0.22581 0.87324 0.0
H639 H 0.75527 0.22236 0.85057 0.0
H640 H 0.73123 0.21733 0.89923 0.0
H641 H 0.76193 0.26025 0.89166 0.0
H642 H 0.7516 0.25407 0.87926 0.0
H643 H 0.76704 0.24666 0.88226 0.0
C644 C 0.72498 0.22923 0.86179 0.0
C645 C 0.73475 0.22604 0.85286 0.0
C646 C 0.72795 0.23131 0.87474 0.0
C647 C 0.74073 0.23029 0.87897 0.0
C648 C 0.75048 0.22693 0.87012 0.0
H649 H 0.76981 0.2189 0.95594 0.0
H650 H 0.76162 0.21659 0.93407 0.0
C651 C 0.74753 0.22489 0.85718 0.0
C652 C 0.74387 0.23245 0.89271 0.0
H653 H 0.7628 0.25028 0.91244 0.0
C654 C 0.73806 0.22459 0.90214 0.0
C655 C 0.75261 0.24208 0.8965 0.0
C656 C 0.75856 0.25134 0.88691 0.0
C657 C 0.74107 0.22584 0.91525 0.0
C658 C 0.75031 0.23503 0.91897 0.0
C659 C 0.75581 0.24315 0.90957 0.0
C660 C 0.75463 0.23625 0.9325 0.0
C661 C 0.73424 0.21738 0.92499 0.0
C662 C 0.75361 0.24813 0.93883 0.0
C663 C 0.7584 0.24952 0.9513 0.0
C664 C 0.76434 0.23905 0.95766 0.0
C665 C 0.76521 0.22712 0.95135 0.0
C666 C 0.76046 0.22576 0.93887 0.0
H667 H 0.72494 0.21382 0.92122 0.0
H668 H 0.7404 0.20886 0.92719 0.0
H669 H 0.73235 0.22262 0.93411 0.0
H670 H 0.7492 0.25637 0.93406 0.0
H671 H 0.7576 0.25884 0.95587 0.0
H672 H 0.86212 0.71482 0.22816 0.0
H673 H 0.88471 0.72036 0.23168 0.0
H674 H 0.87601 0.76029 0.22346 0.0
H675 H 0.85339 0.7549 0.22013 0.0
H676 H 0.9024 0.73158 0.21507 0.0
H677 H 0.8943 0.76214 0.25803 0.0
H678 H 0.8821 0.75158 0.25186 0.0
H679 H 0.88484 0.76705 0.24441 0.0
C680 C 0.865 0.72479 0.22714 0.0
C681 C 0.85594 0.73444 0.22394 0.0
C682 C 0.87791 0.72793 0.22914 0.0
C683 C 0.88199 0.74076 0.22804 0.0
C684 C 0.87301 0.75037 0.22464 0.0
H685 H 0.95873 0.77078 0.21716 0.0
H686 H 0.93694 0.76245 0.21466 0.0
C687 C 0.8601 0.74726 0.22267 0.0
C688 C 0.89567 0.74409 0.23022 0.0
H689 H 0.91511 0.76319 0.24819 0.0
C690 C 0.9052 0.73842 0.22237 0.0
C691 C 0.89933 0.75286 0.23988 0.0
C692 C 0.88963 0.75866 0.24912 0.0
C693 C 0.91827 0.74159 0.22367 0.0
C694 C 0.92184 0.75083 0.23292 0.0
C695 C 0.91235 0.7562 0.24101 0.0
C696 C 0.93533 0.75525 0.23425 0.0
C697 C 0.92812 0.73492 0.21521 0.0
C698 C 0.9416 0.75417 0.24615 0.0
C699 C 0.95403 0.75903 0.24765 0.0
C700 C 0.9604 0.76513 0.23727 0.0
C701 C 0.95414 0.76607 0.22532 0.0
C702 C 0.9417 0.76124 0.22385 0.0
H703 H 0.92445 0.72561 0.21155 0.0
H704 H 0.93033 0.74117 0.20677 0.0
H705 H 0.93721 0.73305 0.22051 0.0
H706 H 0.93683 0.74964 0.25432 0.0
H707 H 0.95857 0.75816 0.25699 0.0
H708 H 0.70918 0.95534 0.83916 0.0
H709 H 0.71561 0.95302 0.81654 0.0
H710 H 0.75513 0.96033 0.82656 0.0
H711 H 0.74885 0.96246 0.84921 0.0
H712 H 0.72726 0.97054 0.80016 0.0
H713 H 0.75804 0.927 0.80618 0.0
H714 H 0.74701 0.93248 0.81855 0.0
H715 H 0.76247 0.94001 0.81652 0.0
C716 C 0.71925 0.95641 0.83656 0.0
C717 C 0.72852 0.95902 0.846 0.0
C718 C 0.7229 0.95509 0.82363 0.0
C719 C 0.73587 0.95629 0.8199 0.0
C720 C 0.74511 0.95907 0.82927 0.0
H721 H 0.76754 0.97124 0.74388 0.0
H722 H 0.75914 0.97256 0.76592 0.0
C723 C 0.74148 0.96036 0.8422 0.0
C724 C 0.73971 0.95494 0.80617 0.0
H725 H 0.75954 0.93797 0.78596 0.0
C726 C 0.73426 0.96337 0.79703 0.0
C727 C 0.74869 0.94545 0.80208 0.0
C728 C 0.7543 0.93563 0.81132 0.0
C729 C 0.73781 0.9628 0.78395 0.0
C730 C 0.74723 0.95369 0.77997 0.0
C731 C 0.75242 0.94504 0.78905 0.0
C732 C 0.75194 0.95303 0.76644 0.0
C733 C 0.73134 0.97185 0.77452 0.0
C734 C 0.75092 0.94153 0.75949 0.0
C735 C 0.75582 0.94071 0.74693 0.0
C736 C 0.76189 0.95137 0.74108 0.0
C737 C 0.76285 0.96289 0.74806 0.0
C738 C 0.75798 0.96368 0.76064 0.0
H739 H 0.72195 0.97547 0.77831 0.0
H740 H 0.73763 0.9803 0.77277 0.0
H741 H 0.72968 0.96706 0.76515 0.0
H742 H 0.74636 0.93317 0.76382 0.0
H743 H 0.75494 0.93169 0.74183 0.0
H744 H 0.83923 0.47569 0.72111 0.0
H745 H 0.81718 0.46838 0.72516 0.0
H746 H 0.82886 0.4293 0.7169 0.0
H747 H 0.85096 0.43647 0.71304 0.0
H748 H 0.80034 0.45607 0.70899 0.0
H749 H 0.81096 0.42563 0.75186 0.0
H750 H 0.8223 0.43714 0.74538 0.0
H751 H 0.82061 0.42162 0.73799 0.0
C752 C 0.83712 0.46553 0.72019 0.0
C753 C 0.84687 0.45664 0.71682 0.0
C754 C 0.82451 0.46138 0.72249 0.0
C755 C 0.82143 0.44828 0.72154 0.0
C756 C 0.83109 0.43942 0.71798 0.0
H757 H 0.74603 0.41412 0.71343 0.0
H758 H 0.76756 0.42302 0.71011 0.0
C759 C 0.8437 0.44354 0.7157 0.0
C760 C 0.80805 0.4439 0.72403 0.0
H761 H 0.79012 0.42345 0.74272 0.0
C762 C 0.79808 0.44898 0.71641 0.0
C763 C 0.80511 0.43481 0.73384 0.0
C764 C 0.81528 0.42957 0.74283 0.0
C765 C 0.78527 0.44499 0.71813 0.0
C766 C 0.78242 0.43549 0.72757 0.0
C767 C 0.79234 0.43064 0.7354 0.0
C768 C 0.76921 0.43039 0.72948 0.0
C769 C 0.77491 0.4511 0.70993 0.0
C770 C 0.76309 0.43133 0.74156 0.0
C771 C 0.75082 0.42615 0.74353 0.0
C772 C 0.74446 0.41988 0.73346 0.0
C773 C 0.75062 0.41896 0.72136 0.0
C774 C 0.7629 0.42412 0.71942 0.0
H775 H 0.77799 0.46056 0.70592 0.0
H776 H 0.77282 0.44468 0.70171 0.0
H777 H 0.76586 0.45252 0.71555 0.0
H778 H 0.76782 0.43607 0.74948 0.0
H779 H 0.74636 0.427 0.75296 0.0
H780 H 0.91169 0.22581 0.24315 0.0
H781 H 0.9196 0.22439 0.26527 0.0
H782 H 0.93496 0.26279 0.26179 0.0
H783 H 0.92686 0.2644 0.23975 0.0
H784 H 0.94402 0.22613 0.27504 0.0
H785 H 0.91278 0.26532 0.2942 0.0
H786 H 0.91033 0.25829 0.27856 0.0
H787 H 0.92266 0.27015 0.28075 0.0
C788 C 0.91676 0.23396 0.24707 0.0
C789 C 0.91856 0.24526 0.23972 0.0
C790 C 0.92128 0.23312 0.25972 0.0
C791 C 0.92766 0.24357 0.26525 0.0
C792 C 0.9298 0.25472 0.25782 0.0
H793 H 0.97236 0.24035 0.33606 0.0
H794 H 0.96538 0.24183 0.31363 0.0
C795 C 0.92523 0.25559 0.24519 0.0
C796 C 0.93206 0.24275 0.27882 0.0
H797 H 0.92877 0.25696 0.30826 0.0
C798 C 0.94068 0.23285 0.28232 0.0
C799 C 0.92754 0.25143 0.28833 0.0
C800 C 0.91772 0.26182 0.28533 0.0
C801 C 0.94502 0.23147 0.29505 0.0
C802 C 0.9408 0.24039 0.30447 0.0
C803 C 0.93208 0.25021 0.30099 0.0
C804 C 0.94509 0.23955 0.31807 0.0
C805 C 0.95383 0.2203 0.29834 0.0
C806 C 0.93598 0.23815 0.32805 0.0
C807 C 0.93993 0.23744 0.34089 0.0
C808 C 0.95307 0.23814 0.344 0.0
C809 C 0.96217 0.23967 0.33399 0.0
C810 C 0.95821 0.24044 0.32115 0.0
H811 H 0.95332 0.21253 0.29105 0.0
H812 H 0.96393 0.22373 0.29859 0.0
H813 H 0.9514 0.21615 0.30795 0.0
H814 H 0.92581 0.2375 0.32589 0.0
H815 H 0.93267 0.23628 0.34837 0.0
H816 H 0.46007 0.86273 0.48523 0.0
H817 H 0.45521 0.88515 0.47941 0.0
H818 H 0.46276 0.87664 0.43941 0.0
H819 H 0.46743 0.85419 0.4451 0.0
H820 H 0.47059 0.90335 0.46744 0.0
H821 H 0.42726 0.89373 0.43821 0.0
H822 H 0.43433 0.88177 0.44879 0.0
H823 H 0.44122 0.88476 0.43308 0.0
C824 C 0.46066 0.86561 0.47519 0.0
C825 C 0.46407 0.85665 0.46561 0.0
C826 C 0.45788 0.87843 0.47188 0.0
C827 C 0.45842 0.88251 0.45896 0.0
C828 C 0.462 0.87363 0.44941 0.0
H829 H 0.46433 0.95973 0.42772 0.0
H830 H 0.46826 0.93799 0.43612 0.0
C831 C 0.46475 0.86082 0.45269 0.0
C832 C 0.45546 0.8961 0.45547 0.0
H833 H 0.43596 0.91489 0.43662 0.0
C834 C 0.46296 0.9059 0.46077 0.0
C835 C 0.44538 0.8994 0.44692 0.0
C836 C 0.43649 0.88938 0.44151 0.0
C837 C 0.46089 0.9189 0.45747 0.0
C838 C 0.4512 0.92215 0.44845 0.0
C839 C 0.44347 0.91237 0.44343 0.0
C840 C 0.44901 0.93559 0.44393 0.0
C841 C 0.46901 0.92905 0.46376 0.0
C842 C 0.43681 0.94139 0.44533 0.0
C843 C 0.4345 0.95378 0.44043 0.0
C844 C 0.44433 0.96059 0.43398 0.0
C845 C 0.45657 0.95479 0.43271 0.0
C846 C 0.45886 0.94238 0.43757 0.0
H847 H 0.47317 0.9255 0.47298 0.0
H848 H 0.47713 0.93161 0.45722 0.0
H849 H 0.46329 0.93792 0.46569 0.0
H850 H 0.42905 0.93629 0.45015 0.0
H851 H 0.42495 0.95796 0.44156 0.0
H852 H 0.25856 0.95744 0.75834 0.0
H853 H 0.25603 0.93571 0.74975 0.0
H854 H 0.2162 0.93576 0.76202 0.0
H855 H 0.21857 0.95755 0.77042 0.0
H856 H 0.24967 0.91387 0.76307 0.0
H857 H 0.21362 0.9236 0.72501 0.0
H858 H 0.2225 0.93628 0.73268 0.0
H859 H 0.20864 0.92936 0.74055 0.0
C860 C 0.24922 0.95288 0.75909 0.0
C861 C 0.23875 0.95924 0.76503 0.0
C862 C 0.2478 0.94046 0.75418 0.0
C863 C 0.23589 0.93418 0.75508 0.0
C864 C 0.22541 0.94053 0.76095 0.0
H865 H 0.22165 0.85224 0.75353 0.0
H866 H 0.22504 0.87475 0.75931 0.0
C867 C 0.2268 0.95296 0.76582 0.0
C868 C 0.23461 0.92073 0.75053 0.0
H869 H 0.21708 0.9015 0.73078 0.0
C870 C 0.24261 0.91118 0.75594 0.0
C871 C 0.22551 0.91726 0.7411 0.0
C872 C 0.21716 0.92718 0.73439 0.0
C873 C 0.24153 0.8982 0.75244 0.0
C874 C 0.23202 0.89464 0.74347 0.0
C875 C 0.22426 0.90423 0.73778 0.0
C876 C 0.22991 0.881 0.73992 0.0
C877 C 0.25066 0.88843 0.75829 0.0
C878 C 0.23117 0.87711 0.72705 0.0
C879 C 0.22914 0.86426 0.72369 0.0
C880 C 0.22574 0.85507 0.73315 0.0
C881 C 0.22435 0.85905 0.74602 0.0
C882 C 0.22635 0.8719 0.74936 0.0
H883 H 0.25951 0.89307 0.76197 0.0
H884 H 0.24582 0.88355 0.76654 0.0
H885 H 0.25352 0.88098 0.75117 0.0
H886 H 0.23383 0.884 0.71961 0.0
H887 H 0.23026 0.86152 0.71368 0.0
H888 H 0.269 0.23189 0.92876 0.0
H889 H 0.26649 0.25379 0.93705 0.0
H890 H 0.22717 0.25487 0.92385 0.0
H891 H 0.22951 0.2329 0.91577 0.0
H892 H 0.26114 0.27563 0.9235 0.0
H893 H 0.22318 0.26761 0.96051 0.0
H894 H 0.23209 0.25452 0.95319 0.0
H895 H 0.21874 0.26191 0.94489 0.0
C896 C 0.25977 0.23673 0.92775 0.0
C897 C 0.24944 0.23063 0.92164 0.0
C898 C 0.25836 0.24925 0.93248 0.0
C899 C 0.24659 0.2559 0.93124 0.0
C900 C 0.23624 0.24982 0.92519 0.0
H901 H 0.23425 0.33844 0.93161 0.0
H902 H 0.23738 0.31576 0.92611 0.0
C903 C 0.23762 0.23728 0.92051 0.0
C904 C 0.24536 0.26944 0.93561 0.0
H905 H 0.22729 0.28951 0.95458 0.0
C906 C 0.2538 0.27865 0.93037 0.0
C907 C 0.23589 0.27335 0.9447 0.0
C908 C 0.22704 0.26381 0.95125 0.0
C909 C 0.25283 0.2917 0.93372 0.0
C910 C 0.24297 0.2957 0.94234 0.0
C911 C 0.23474 0.28645 0.94785 0.0
C912 C 0.24098 0.30945 0.9457 0.0
C913 C 0.26246 0.30106 0.92809 0.0
C914 C 0.24159 0.31339 0.9586 0.0
C915 C 0.23967 0.32634 0.96179 0.0
C916 C 0.23707 0.33559 0.95215 0.0
C917 C 0.23633 0.33158 0.93926 0.0
C918 C 0.2382 0.31863 0.93608 0.0
H919 H 0.2714 0.29606 0.92481 0.0
H920 H 0.25816 0.30599 0.91961 0.0
H921 H 0.26509 0.3085 0.93522 0.0
H922 H 0.24365 0.30645 0.96618 0.0
H923 H 0.24028 0.3291 0.97182 0.0
H924 H 0.45644 0.32383 0.21818 0.0
H925 H 0.45216 0.30129 0.22379 0.0
H926 H 0.45966 0.30932 0.26376 0.0
H927 H 0.46372 0.3319 0.25829 0.0
H928 H 0.46782 0.28298 0.23509 0.0
H929 H 0.42461 0.29206 0.26556 0.0
H930 H 0.43141 0.30423 0.25506 0.0
H931 H 0.43845 0.30095 0.27055 0.0
C932 C 0.45714 0.32081 0.22818 0.0
C933 C 0.46033 0.32968 0.23781 0.0
C934 C 0.45471 0.30792 0.23136 0.0
C935 C 0.45538 0.30368 0.24422 0.0
C936 C 0.45879 0.31245 0.25381 0.0
H937 H 0.46291 0.2259 0.27391 0.0
H938 H 0.46644 0.24773 0.26568 0.0
C939 C 0.46118 0.32534 0.25065 0.0
C940 C 0.4527 0.29003 0.24759 0.0
H941 H 0.43372 0.27092 0.26665 0.0
C942 C 0.46031 0.28033 0.24192 0.0
C943 C 0.44276 0.28657 0.25634 0.0
C944 C 0.43375 0.29649 0.26213 0.0
C945 C 0.45848 0.26726 0.24505 0.0
C946 C 0.44894 0.26386 0.25428 0.0
C947 C 0.44111 0.27355 0.25967 0.0
C948 C 0.447 0.25035 0.25864 0.0
C949 C 0.46668 0.25724 0.23835 0.0
C950 C 0.43484 0.24462 0.25762 0.0
C951 C 0.43275 0.23219 0.26244 0.0
C952 C 0.44278 0.22524 0.26842 0.0
C953 C 0.455 0.23094 0.26928 0.0
C954 C 0.45706 0.2434 0.26451 0.0
H955 H 0.4706 0.26094 0.22904 0.0
H956 H 0.47496 0.25463 0.24458 0.0
H957 H 0.4611 0.24837 0.23648 0.0
H958 H 0.42692 0.24984 0.25318 0.0
H959 H 0.42322 0.22808 0.26163 0.0
H960 H 0.48761 0.463 0.85924 0.0
H961 H 0.48097 0.45886 0.88158 0.0
H962 H 0.44145 0.46706 0.8716 0.0
H963 H 0.44796 0.47103 0.84923 0.0
H964 H 0.46866 0.47498 0.89904 0.0
H965 H 0.43905 0.4319 0.8894 0.0
H966 H 0.45019 0.43849 0.87767 0.0
H967 H 0.43453 0.44574 0.87992 0.0
C968 C 0.4775 0.46389 0.86179 0.0
C969 C 0.4683 0.46727 0.85243 0.0
C970 C 0.47373 0.46153 0.87456 0.0
C971 C 0.4607 0.46245 0.8782 0.0
C972 C 0.45153 0.46602 0.86894 0.0
H973 H 0.42698 0.47049 0.95419 0.0
H974 H 0.4361 0.47382 0.93263 0.0
C975 C 0.45528 0.46836 0.85617 0.0
C976 C 0.45671 0.45986 0.89173 0.0
H977 H 0.43697 0.44105 0.91031 0.0
C978 C 0.46179 0.46751 0.90153 0.0
C979 C 0.4479 0.44998 0.89497 0.0
C980 C 0.44269 0.44096 0.88496 0.0
C981 C 0.45803 0.46578 0.91447 0.0
C982 C 0.44878 0.45628 0.91762 0.0
C983 C 0.44397 0.44841 0.90786 0.0
C984 C 0.4438 0.45445 0.93095 0.0
C985 C 0.4641 0.47404 0.92463 0.0
C986 C 0.44491 0.44239 0.9371 0.0
C987 C 0.43961 0.44042 0.94938 0.0
C988 C 0.43304 0.45047 0.95574 0.0
C989 C 0.43204 0.46257 0.9496 0.0
C990 C 0.43732 0.46452 0.9373 0.0
H991 H 0.47347 0.47803 0.92129 0.0
H992 H 0.45756 0.48227 0.92683 0.0
H993 H 0.46569 0.46848 0.93368 0.0
H994 H 0.44982 0.43446 0.93234 0.0
H995 H 0.44053 0.43097 0.95383 0.0
H996 H 0.23881 0.92213 0.2722 0.0
H997 H 0.26084 0.92923 0.26799 0.0
H998 H 0.25323 0.93033 0.22717 0.0
H999 H 0.23126 0.92283 0.23128 0.0
H1000 H 0.27534 0.91826 0.23191 0.0
H1001 H 0.2746 0.96416 0.2587 0.0
H1002 H 0.26994 0.9508 0.26872 0.0
H1003 H 0.26009 0.9554 0.25519 0.0
C1004 C 0.24177 0.92401 0.26233 0.0
C1005 C 0.23328 0.92194 0.25208 0.0
C1006 C 0.25436 0.92817 0.25995 0.0
C1007 C 0.25864 0.93055 0.24728 0.0
C1008 C 0.25013 0.92862 0.23703 0.0
H1009 H 0.33277 0.96665 0.23007 0.0
H1010 H 0.30975 0.96202 0.23224 0.0
C1011 C 0.23757 0.92434 0.2394 0.0
C1012 C 0.27222 0.93429 0.24468 0.0
H1013 H 0.29546 0.95575 0.25299 0.0
C1014 C 0.2797 0.92654 0.23642 0.0
C1015 C 0.27788 0.94519 0.25041 0.0
C1016 C 0.27017 0.95444 0.25863 0.0
C1017 C 0.29276 0.92917 0.23403 0.0
C1018 C 0.2986 0.93963 0.24035 0.0
C1019 C 0.29103 0.94762 0.24829 0.0
C1020 C 0.31257 0.94239 0.23894 0.0
C1021 C 0.3001 0.92079 0.22463 0.0
C1022 C 0.32181 0.93296 0.24215 0.0
C1023 C 0.33496 0.93554 0.2408 0.0
C1024 C 0.33913 0.94768 0.23642 0.0
C1025 C 0.32987 0.9572 0.23345 0.0
C1026 C 0.31671 0.95457 0.23469 0.0
H1027 H 0.29351 0.91607 0.21774 0.0
H1028 H 0.3073 0.92645 0.21905 0.0
H1029 H 0.30525 0.91307 0.23002 0.0
H1030 H 0.31886 0.92362 0.2458 0.0
H1031 H 0.34185 0.92804 0.2433 0.0
H1032 H 0.22574 0.72129 0.36328 0.0
H1033 H 0.23135 0.72504 0.3858 0.0
H1034 H 0.269 0.73815 0.37385 0.0
H1035 H 0.26361 0.73405 0.35137 0.0
H1036 H 0.27066 0.72207 0.39396 0.0
H1037 H 0.23311 0.75901 0.40412 0.0
H1038 H 0.2266 0.74411 0.39851 0.0
H1039 H 0.23675 0.75357 0.38801 0.0
C1040 C 0.2352 0.72501 0.36545 0.0
C1041 C 0.24422 0.72741 0.35554 0.0
C1042 C 0.23836 0.72723 0.37832 0.0
C1043 C 0.25051 0.73211 0.38151 0.0
C1044 C 0.25955 0.73444 0.37162 0.0
H1045 H 0.27287 0.7663 0.45378 0.0
H1046 H 0.26607 0.76187 0.43176 0.0
C1047 C 0.25645 0.73209 0.35877 0.0
C1048 C 0.25398 0.7345 0.39514 0.0
H1049 H 0.24487 0.75103 0.42211 0.0
C1050 C 0.26503 0.72842 0.40011 0.0
C1051 C 0.24673 0.74293 0.40311 0.0
C1052 C 0.23521 0.75038 0.39815 0.0
C1053 C 0.26902 0.73049 0.41282 0.0
C1054 C 0.26154 0.73858 0.42092 0.0
C1055 C 0.25051 0.74472 0.41594 0.0
C1056 C 0.26523 0.74117 0.43445 0.0
C1057 C 0.28143 0.72427 0.41729 0.0
C1058 C 0.26677 0.73104 0.44339 0.0
C1059 C 0.2708 0.73353 0.45595 0.0
C1060 C 0.27315 0.74624 0.45989 0.0
C1061 C 0.27116 0.7564 0.45105 0.0
C1062 C 0.26727 0.75389 0.43846 0.0
H1063 H 0.28774 0.72152 0.40903 0.0
H1064 H 0.28688 0.73083 0.42363 0.0
H1065 H 0.27917 0.71537 0.42283 0.0
H1066 H 0.26492 0.72119 0.44063 0.0
H1067 H 0.27211 0.72551 0.46256 0.0
H1068 H 0.44549 0.91382 0.97719 0.0
H1069 H 0.42343 0.92214 0.97915 0.0
H1070 H 0.41919 0.92031 0.93787 0.0
H1071 H 0.44136 0.91238 0.93579 0.0
H1072 H 0.40914 0.94229 0.94724 0.0
H1073 H 0.39127 0.90088 0.9762 0.0
H1074 H 0.40461 0.90887 0.98349 0.0
H1075 H 0.40684 0.90076 0.96835 0.0
C1076 C 0.43987 0.91522 0.96852 0.0
C1077 C 0.44514 0.91236 0.95634 0.0
C1078 C 0.42723 0.91989 0.96967 0.0
C1079 C 0.41955 0.92158 0.95869 0.0
C1080 C 0.4249 0.91901 0.94649 0.0
H1081 H 0.33621 0.92799 0.95822 0.0
H1082 H 0.35874 0.92123 0.95613 0.0
C1083 C 0.43758 0.91447 0.94532 0.0
C1084 C 0.40595 0.92602 0.95986 0.0
H1085 H 0.37701 0.91877 0.97395 0.0
C1086 C 0.4021 0.93714 0.95306 0.0
C1087 C 0.39673 0.91916 0.96729 0.0
C1088 C 0.40001 0.90669 0.97414 0.0
C1089 C 0.38931 0.94166 0.95356 0.0
C1090 C 0.38019 0.93507 0.96136 0.0
C1091 C 0.38403 0.92389 0.96808 0.0
C1092 C 0.36655 0.93938 0.96247 0.0
C1093 C 0.38563 0.95325 0.94547 0.0
C1094 C 0.36342 0.9518 0.96685 0.0
C1095 C 0.35053 0.95574 0.96792 0.0
C1096 C 0.34052 0.94726 0.96486 0.0
C1097 C 0.34368 0.93476 0.96067 0.0
C1098 C 0.35656 0.93088 0.95947 0.0
H1099 H 0.39255 0.95479 0.93738 0.0
H1100 H 0.37582 0.95222 0.94143 0.0
H1101 H 0.38572 0.96199 0.95157 0.0
H1102 H 0.37093 0.95841 0.96955 0.0
H1103 H 0.34841 0.96539 0.97129 0.0
H1104 H 0.2444 0.25255 0.42476 0.0
H1105 H 0.26633 0.24653 0.43081 0.0
H1106 H 0.25544 0.24776 0.47102 0.0
H1107 H 0.23354 0.25421 0.46503 0.0
H1108 H 0.27708 0.26047 0.46694 0.0
H1109 H 0.28147 0.21308 0.44324 0.0
H1110 H 0.27681 0.22547 0.43202 0.0
H1111 H 0.26618 0.22129 0.4452 0.0
C1112 C 0.24662 0.25138 0.43489 0.0
C1113 C 0.23722 0.25384 0.44442 0.0
C1114 C 0.25916 0.24784 0.43834 0.0
C1115 C 0.2625 0.24646 0.45137 0.0
C1116 C 0.25307 0.2487 0.4609 0.0
H1117 H 0.33817 0.21609 0.47373 0.0
H1118 H 0.31495 0.21901 0.47068 0.0
C1119 C 0.24055 0.25238 0.45747 0.0
C1120 C 0.27604 0.24358 0.45504 0.0
H1121 H 0.30133 0.22312 0.44923 0.0
C1122 C 0.28233 0.25221 0.46318 0.0
C1123 C 0.28286 0.2327 0.45032 0.0
C1124 C 0.27643 0.22254 0.44233 0.0
C1125 C 0.29536 0.25052 0.46637 0.0
C1126 C 0.3024 0.24011 0.46097 0.0
C1127 C 0.29599 0.23121 0.45321 0.0
C1128 C 0.31646 0.23843 0.46303 0.0
C1129 C 0.3014 0.25986 0.47558 0.0
C1130 C 0.32504 0.2483 0.45961 0.0
C1131 C 0.33828 0.24671 0.46147 0.0
C1132 C 0.34324 0.23512 0.46658 0.0
C1133 C 0.33465 0.22515 0.4698 0.0
C1134 C 0.32138 0.2268 0.46805 0.0
H1135 H 0.29402 0.26443 0.48193 0.0
H1136 H 0.30872 0.25502 0.48172 0.0
H1137 H 0.30618 0.26766 0.46998 0.0
H1138 H 0.32151 0.25722 0.45537 0.0
H1139 H 0.34465 0.25452 0.45875 0.0
H1140 H 0.45764 0.2727 0.71845 0.0
H1141 H 0.43561 0.26515 0.71531 0.0
H1142 H 0.4288 0.26643 0.75636 0.0
H1143 H 0.45092 0.27359 0.75962 0.0
H1144 H 0.41886 0.24502 0.74611 0.0
H1145 H 0.40382 0.28763 0.71716 0.0
H1146 H 0.41741 0.27923 0.71036 0.0
H1147 H 0.41887 0.28699 0.72574 0.0
C1148 C 0.45146 0.27133 0.72681 0.0
C1149 C 0.456 0.27383 0.73928 0.0
C1150 C 0.43884 0.2671 0.72499 0.0
C1151 C 0.43046 0.2655 0.73557 0.0
C1152 C 0.43507 0.26767 0.74805 0.0
H1153 H 0.34713 0.26269 0.73205 0.0
H1154 H 0.36967 0.26838 0.73536 0.0
C1155 C 0.44772 0.27177 0.74989 0.0
C1156 C 0.41686 0.26163 0.73368 0.0
H1157 H 0.38903 0.27033 0.71844 0.0
C1158 C 0.41232 0.25056 0.74008 0.0
C1159 C 0.40828 0.26899 0.72598 0.0
C1160 C 0.41228 0.28144 0.71952 0.0
C1161 C 0.39947 0.24659 0.73891 0.0
C1162 C 0.39102 0.2537 0.73084 0.0
C1163 C 0.39554 0.26481 0.72452 0.0
C1164 C 0.37735 0.25 0.72905 0.0
C1165 C 0.39502 0.23502 0.74661 0.0
C1166 C 0.37416 0.2378 0.72431 0.0
C1167 C 0.36126 0.23447 0.72254 0.0
C1168 C 0.35132 0.24336 0.72527 0.0
C1169 C 0.35455 0.25562 0.72985 0.0
C1170 C 0.36744 0.2589 0.73174 0.0
H1171 H 0.40139 0.23304 0.75497 0.0
H1172 H 0.385 0.2364 0.75023 0.0
H1173 H 0.39526 0.22639 0.74035 0.0
H1174 H 0.38165 0.2309 0.72184 0.0
H1175 H 0.35909 0.22498 0.71889 0.0
H1176 H 0.2419 0.45975 0.34861 0.0
H1177 H 0.25023 0.45849 0.32657 0.0
H1178 H 0.21162 0.46286 0.3119 0.0
H1179 H 0.20316 0.46362 0.33398 0.0
H1180 H 0.22371 0.44422 0.29978 0.0
H1181 H 0.25596 0.48635 0.30047 0.0
H1182 H 0.25977 0.47516 0.31316 0.0
H1183 H 0.24433 0.48324 0.31312 0.0
C1184 C 0.23519 0.46057 0.34069 0.0
C1185 C 0.22187 0.46184 0.34303 0.0
C1186 C 0.23998 0.45994 0.32808 0.0
C1187 C 0.23159 0.46086 0.31754 0.0
C1188 C 0.21829 0.4622 0.31987 0.0
H1189 H 0.2617 0.46961 0.23895 0.0
H1190 H 0.25087 0.47316 0.25969 0.0
C1191 C 0.21347 0.46265 0.33249 0.0
C1192 C 0.23663 0.45972 0.30414 0.0
H1193 H 0.25955 0.47129 0.28334 0.0
C1194 C 0.23146 0.45024 0.29615 0.0
C1195 C 0.24658 0.46772 0.29927 0.0
C1196 C 0.25188 0.47878 0.30691 0.0
C1197 C 0.2362 0.44826 0.2836 0.0
C1198 C 0.24672 0.45569 0.27905 0.0
C1199 C 0.25162 0.46545 0.28688 0.0
C1200 C 0.2529 0.4534 0.26628 0.0
C1201 C 0.22976 0.43833 0.27532 0.0
C1202 C 0.25775 0.44114 0.26311 0.0
C1203 C 0.26377 0.43904 0.25119 0.0
C1204 C 0.26533 0.44924 0.24232 0.0
C1205 C 0.26064 0.46155 0.24558 0.0
C1206 C 0.25446 0.4636 0.25743 0.0
H1207 H 0.2196 0.43678 0.27839 0.0
H1208 H 0.22987 0.44123 0.26499 0.0
H1209 H 0.23495 0.42899 0.27633 0.0
H1210 H 0.25705 0.4332 0.26991 0.0
H1211 H 0.26742 0.42948 0.24904 0.0
H1212 H 0.47774 0.72413 0.8378 0.0
H1213 H 0.47001 0.72837 0.81593 0.0
H1214 H 0.43136 0.71873 0.82799 0.0
H1215 H 0.43895 0.71468 0.84992 0.0
H1216 H 0.45795 0.71207 0.79901 0.0
H1217 H 0.42641 0.75385 0.8107 0.0
H1218 H 0.43827 0.74756 0.82178 0.0
H1219 H 0.42296 0.73973 0.82019 0.0
C1220 C 0.46758 0.72295 0.83582 0.0
C1221 C 0.45894 0.71914 0.84562 0.0
C1222 C 0.46319 0.72537 0.82331 0.0
C1223 C 0.45008 0.72406 0.82039 0.0
C1224 C 0.44147 0.72007 0.8301 0.0
H1225 H 0.41511 0.71604 0.74537 0.0
H1226 H 0.42439 0.71268 0.76674 0.0
C1227 C 0.44584 0.71769 0.84261 0.0
C1228 C 0.44546 0.72663 0.80711 0.0
H1229 H 0.42422 0.74497 0.78974 0.0
C1230 C 0.45062 0.71931 0.79696 0.0
C1231 C 0.43605 0.73621 0.80444 0.0
C1232 C 0.43068 0.74488 0.81482 0.0
C1233 C 0.4464 0.72109 0.78423 0.0
C1234 C 0.43659 0.73029 0.78165 0.0
C1235 C 0.43165 0.73783 0.79176 0.0
C1236 C 0.43125 0.73223 0.76855 0.0
C1237 C 0.45259 0.71322 0.77366 0.0
C1238 C 0.43177 0.74441 0.76258 0.0
C1239 C 0.42637 0.74639 0.75041 0.0
C1240 C 0.4203 0.73623 0.74399 0.0
C1241 C 0.41979 0.72404 0.75001 0.0
C1242 C 0.42516 0.72208 0.76219 0.0
H1243 H 0.4622 0.70944 0.77655 0.0
H1244 H 0.44638 0.70486 0.77153 0.0
H1245 H 0.45373 0.71901 0.76468 0.0
H1246 H 0.43636 0.75239 0.76735 0.0
H1247 H 0.42691 0.7559 0.74606 0.0
H1248 H 0.95898 0.33678 0.92747 0.0
H1249 H 0.95696 0.35944 0.92116 0.0
H1250 H 0.96863 0.37087 0.95919 0.0
H1251 H 0.97032 0.34819 0.9657 0.0
H1252 H 0.94828 0.38479 0.95109 0.0
H1253 H 0.98564 0.38412 0.91267 0.0
H1254 H 0.9734 0.37231 0.91019 0.0
H1255 H 0.98367 0.37103 0.92405 0.0
C1256 C 0.96117 0.34411 0.93449 0.0
C1257 C 0.96488 0.34068 0.94707 0.0
C1258 C 0.96009 0.35707 0.93083 0.0
C1259 C 0.96291 0.36686 0.93962 0.0
C1260 C 0.96649 0.36347 0.95223 0.0
H1261 H 0.97304 0.44694 0.91546 0.0
H1262 H 0.97624 0.42517 0.92417 0.0
C1263 C 0.96746 0.35051 0.95593 0.0
C1264 C 0.96177 0.38063 0.93575 0.0
H1265 H 0.97171 0.40256 0.91313 0.0
C1266 C 0.95348 0.38871 0.94285 0.0
C1267 C 0.96872 0.3858 0.92513 0.0
C1268 C 0.97846 0.3779 0.91766 0.0
C1269 C 0.95169 0.40172 0.93942 0.0
C1270 C 0.95811 0.4067 0.92838 0.0
C1271 C 0.96667 0.39871 0.9215 0.0
C1272 C 0.95604 0.42013 0.92371 0.0
C1273 C 0.94306 0.41002 0.94776 0.0
C1274 C 0.94363 0.42453 0.9205 0.0
C1275 C 0.94176 0.43701 0.91564 0.0
C1276 C 0.95229 0.44526 0.91368 0.0
C1277 C 0.96472 0.44082 0.91686 0.0
C1278 C 0.96657 0.42838 0.92183 0.0
H1279 H 0.94227 0.40607 0.95772 0.0
H1280 H 0.94668 0.42005 0.94826 0.0
H1281 H 0.93323 0.41029 0.94362 0.0
H1282 H 0.9354 0.41824 0.92152 0.0
H1283 H 0.93208 0.44009 0.91317 0.0
H1284 H 0.72114 0.46131 0.28271 0.0
H1285 H 0.71805 0.43943 0.27476 0.0
H1286 H 0.75719 0.43873 0.26042 0.0
H1287 H 0.76046 0.46051 0.26858 0.0
H1288 H 0.71987 0.42943 0.25044 0.0
H1289 H 0.75589 0.4063 0.28263 0.0
H1290 H 0.75025 0.42263 0.28488 0.0
H1291 H 0.76231 0.41911 0.27283 0.0
C1292 C 0.7291 0.45651 0.27785 0.0
C1293 C 0.74108 0.46261 0.27637 0.0
C1294 C 0.72731 0.44401 0.27331 0.0
C1295 C 0.73746 0.43736 0.2672 0.0
C1296 C 0.74932 0.44356 0.26537 0.0
H1297 H 0.7292 0.36684 0.22285 0.0
H1298 H 0.73256 0.38907 0.22965 0.0
C1299 C 0.75115 0.45604 0.26997 0.0
C1300 C 0.7356 0.42394 0.2628 0.0
H1301 H 0.74685 0.39312 0.26653 0.0
C1302 C 0.72576 0.42148 0.25396 0.0
C1303 C 0.74317 0.41356 0.26754 0.0
C1304 C 0.75342 0.41547 0.27759 0.0
C1305 C 0.72335 0.40894 0.24965 0.0
C1306 C 0.73117 0.39862 0.25411 0.0
C1307 C 0.74094 0.40107 0.26303 0.0
C1308 C 0.72919 0.38514 0.24992 0.0
C1309 C 0.71226 0.40682 0.2406 0.0
C1310 C 0.72653 0.37548 0.25909 0.0
C1311 C 0.72475 0.36274 0.25525 0.0
C1312 C 0.7256 0.35941 0.24216 0.0
C1313 C 0.72837 0.3691 0.233 0.0
C1314 C 0.73022 0.38183 0.23686 0.0
H1315 H 0.70521 0.41494 0.24089 0.0
H1316 H 0.71603 0.4061 0.23059 0.0
H1317 H 0.70713 0.39775 0.243 0.0
H1318 H 0.72575 0.37782 0.26923 0.0
H1319 H 0.72265 0.35551 0.26255 0.0
H1320 H 0.72133 0.84127 0.47286 0.0
H1321 H 0.72555 0.81904 0.46619 0.0
H1322 H 0.71762 0.82964 0.42674 0.0
H1323 H 0.71358 0.8519 0.43327 0.0
H1324 H 0.70964 0.80171 0.45404 0.0
H1325 H 0.75288 0.81206 0.42402 0.0
H1326 H 0.74613 0.82359 0.43519 0.0
H1327 H 0.73898 0.82149 0.41961 0.0
C1328 C 0.7205 0.83888 0.46276 0.0
C1329 C 0.71719 0.84838 0.45358 0.0
C1330 C 0.72291 0.82617 0.45897 0.0
C1331 C 0.72211 0.82274 0.44595 0.0
C1332 C 0.71858 0.83214 0.4368 0.0
H1333 H 0.71527 0.74665 0.41315 0.0
H1334 H 0.71158 0.76825 0.42174 0.0
C1335 C 0.7162 0.84485 0.44057 0.0
C1336 C 0.7248 0.80929 0.44194 0.0
H1337 H 0.74398 0.79108 0.4222 0.0
C1338 C 0.71719 0.79936 0.44713 0.0
C1339 C 0.73478 0.80623 0.43308 0.0
C1340 C 0.74375 0.81638 0.42774 0.0
C1341 C 0.71909 0.78648 0.44345 0.0
C1342 C 0.72872 0.7835 0.43417 0.0
C1343 C 0.73652 0.7934 0.42922 0.0
C1344 C 0.73081 0.77021 0.42937 0.0
C1345 C 0.71089 0.77617 0.44965 0.0
C1346 C 0.74293 0.76423 0.43059 0.0
C1347 C 0.74512 0.75192 0.42559 0.0
C1348 C 0.73522 0.74538 0.41922 0.0
C1349 C 0.72308 0.75138 0.41807 0.0
C1350 C 0.72092 0.7637 0.42304 0.0
H1351 H 0.70671 0.77942 0.45899 0.0
H1352 H 0.70279 0.77387 0.44316 0.0
H1353 H 0.71656 0.7672 0.45135 0.0
H1354 H 0.75072 0.76912 0.43538 0.0
H1355 H 0.75459 0.74758 0.42662 0.0
H1356 H 0.96363 0.73298 0.76669 0.0
H1357 H 0.96633 0.75515 0.75899 0.0
H1358 H 0.92669 0.75617 0.7468 0.0
H1359 H 0.92381 0.73408 0.75469 0.0
H1360 H 0.96339 0.76585 0.73475 0.0
H1361 H 0.92896 0.78794 0.76951 0.0
H1362 H 0.9348 0.77159 0.77122 0.0
H1363 H 0.92214 0.77533 0.76003 0.0
C1364 C 0.95548 0.73791 0.76237 0.0
C1365 C 0.94347 0.7318 0.76139 0.0
C1366 C 0.95705 0.75058 0.75796 0.0
C1367 C 0.94665 0.75738 0.75252 0.0
C1368 C 0.93476 0.7512 0.75123 0.0
H1369 H 0.95187 0.82889 0.70817 0.0
H1370 H 0.94909 0.8065 0.71517 0.0
C1371 C 0.93316 0.73854 0.75567 0.0
C1372 C 0.9483 0.77094 0.74819 0.0
H1373 H 0.93711 0.8016 0.75294 0.0
C1374 C 0.95766 0.77368 0.73873 0.0
C1375 C 0.94094 0.78115 0.75354 0.0
C1376 C 0.93123 0.77891 0.76422 0.0
C1377 C 0.95976 0.78634 0.73436 0.0
C1378 C 0.95212 0.7965 0.73942 0.0
C1379 C 0.94286 0.79378 0.74899 0.0
C1380 C 0.95374 0.81007 0.73513 0.0
C1381 C 0.97032 0.78875 0.72455 0.0
C1382 C 0.95693 0.81958 0.74408 0.0
C1383 C 0.9584 0.8324 0.74014 0.0
C1384 C 0.95668 0.83597 0.72715 0.0
C1385 C 0.95336 0.82644 0.71822 0.0
C1386 C 0.95184 0.81363 0.72219 0.0
H1387 H 0.97741 0.78068 0.72427 0.0
H1388 H 0.966 0.78971 0.71484 0.0
H1389 H 0.97551 0.7978 0.72666 0.0
H1390 H 0.95838 0.81705 0.75412 0.0
H1391 H 0.96094 0.8395 0.74726 0.0
H1392 H 0.01604 0.37356 0.42214 0.0
H1393 H 0.01188 0.35092 0.41758 0.0
H1394 H 0.97406 0.35444 0.43479 0.0
H1395 H 0.97805 0.37719 0.4393 0.0
H1396 H 0.00535 0.33049 0.43473 0.0
H1397 H 0.96701 0.34003 0.39862 0.0
H1398 H 0.9778 0.35241 0.404 0.0
H1399 H 0.96455 0.34742 0.41407 0.0
C1400 C 0.00682 0.36955 0.42497 0.0
C1401 C 0.99734 0.37723 0.43101 0.0
C1402 C 0.00448 0.35659 0.42238 0.0
C1403 C 0.99261 0.35107 0.42569 0.0
C1404 C 0.98321 0.3586 0.43196 0.0
H1405 H 0.96203 0.27478 0.40973 0.0
H1406 H 0.96518 0.29663 0.41789 0.0
C1407 C 0.98553 0.37158 0.43457 0.0
C1408 C 0.9901 0.33743 0.42247 0.0
H1409 H 0.97148 0.31826 0.40372 0.0
C1410 C 0.99793 0.32779 0.42798 0.0
C1411 C 0.9804 0.33397 0.41368 0.0
C1412 C 0.97201 0.34398 0.40715 0.0
C1413 C 0.9963 0.31475 0.42493 0.0
C1414 C 0.98675 0.31131 0.41595 0.0
C1415 C 0.97879 0.32093 0.41061 0.0
C1416 C 0.98509 0.29783 0.41164 0.0
C1417 C 0.00472 0.30476 0.43144 0.0
C1418 C 0.99519 0.29133 0.40531 0.0
C1419 C 0.99342 0.27886 0.40066 0.0
C1420 C 0.9815 0.27268 0.40225 0.0
C1421 C 0.97136 0.27927 0.40848 0.0
C1422 C 0.97314 0.29172 0.41315 0.0
H1423 H 0.00881 0.30843 0.44056 0.0
H1424 H 0.99925 0.29583 0.4336 0.0
H1425 H 0.01288 0.30224 0.42493 0.0
H1426 H 0.00435 0.29602 0.40365 0.0
H1427 H 0.00122 0.27429 0.39538 0.0
H1428 H 0.01136 0.83737 0.23562 0.0
H1429 H 0.00647 0.85933 0.24263 0.0
H1430 H 0.97488 0.84521 0.26588 0.0
H1431 H 0.97973 0.82318 0.25903 0.0
H1432 H 0.98319 0.87432 0.2409 0.0
H1433 H 0.99778 0.86474 0.29156 0.0
H1434 H 0.00197 0.85404 0.27852 0.0
H1435 H 0.98598 0.85392 0.28529 0.0
C1436 C 0.00332 0.83891 0.24218 0.0
C1437 C 0.996 0.82848 0.24686 0.0
C1438 C 0.00054 0.85148 0.24615 0.0
C1439 C 0.99045 0.85384 0.25492 0.0
C1440 C 0.98285 0.84354 0.25927 0.0
H1441 H 0.96435 0.9222 0.29546 0.0
H1442 H 0.96686 0.90054 0.28654 0.0
C1443 C 0.98561 0.83096 0.2553 0.0
C1444 C 0.98811 0.86706 0.25974 0.0
H1445 H 0.98883 0.88526 0.28698 0.0
C1446 C 0.98442 0.87674 0.25097 0.0
C1447 C 0.98976 0.87015 0.27288 0.0
C1448 C 0.9942 0.86022 0.28262 0.0
C1449 C 0.98214 0.88945 0.25503 0.0
C1450 C 0.98385 0.89255 0.26816 0.0
C1451 C 0.98751 0.88284 0.27693 0.0
C1452 C 0.98199 0.90583 0.27307 0.0
C1453 C 0.97769 0.89937 0.24529 0.0
C1454 C 0.98966 0.91598 0.26844 0.0
C1455 C 0.98821 0.92837 0.27349 0.0
C1456 C 0.9792 0.93077 0.28339 0.0
C1457 C 0.97142 0.92062 0.28788 0.0
C1458 C 0.97286 0.90825 0.28282 0.0
H1459 H 0.9735 0.89479 0.23664 0.0
H1460 H 0.97038 0.90599 0.24956 0.0
H1461 H 0.98606 0.9052 0.24207 0.0
H1462 H 0.99687 0.91429 0.26102 0.0
H1463 H 0.994 0.93607 0.26949 0.0
H1464 H 0.69764 0.82634 0.95989 0.0
H1465 H 0.69967 0.84928 0.95441 0.0
H1466 H 0.70485 0.83968 0.91435 0.0
H1467 H 0.70295 0.81677 0.91967 0.0
H1468 H 0.72186 0.86212 0.93814 0.0
H1469 H 0.67213 0.86569 0.91853 0.0
H1470 H 0.6768 0.85349 0.93015 0.0
H1471 H 0.68182 0.85207 0.91363 0.0
C1472 C 0.69931 0.8291 0.94992 0.0
C1473 C 0.70008 0.81972 0.94021 0.0
C1474 C 0.70047 0.84219 0.94683 0.0
C1475 C 0.7023 0.8461 0.93399 0.0
C1476 C 0.70336 0.8368 0.92431 0.0
H1477 H 0.72158 0.91681 0.89505 0.0
H1478 H 0.72077 0.89498 0.90412 0.0
C1479 C 0.7023 0.82372 0.92739 0.0
C1480 C 0.70276 0.85994 0.93056 0.0
H1481 H 0.68557 0.88381 0.91555 0.0
C1482 C 0.71392 0.86692 0.93327 0.0
C1483 C 0.69232 0.86612 0.92433 0.0
C1484 C 0.68002 0.85904 0.92152 0.0
C1485 C 0.71505 0.87991 0.92956 0.0
C1486 C 0.70476 0.88598 0.92294 0.0
C1487 C 0.69345 0.87909 0.92058 0.0
C1488 C 0.70568 0.89935 0.91797 0.0
C1489 C 0.72721 0.88706 0.93271 0.0
C1490 C 0.69743 0.90901 0.92273 0.0
C1491 C 0.69791 0.92151 0.91759 0.0
C1492 C 0.70646 0.92447 0.90743 0.0
C1493 C 0.71485 0.91481 0.90284 0.0
C1494 C 0.71443 0.90235 0.90803 0.0
H1495 H 0.73284 0.88206 0.94036 0.0
H1496 H 0.73336 0.88772 0.92393 0.0
H1497 H 0.72494 0.89703 0.9359 0.0
H1498 H 0.69067 0.90688 0.93046 0.0
H1499 H 0.69174 0.92886 0.92174 0.0
H1500 H 0.70135 0.25052 0.77399 0.0
H1501 H 0.7003 0.2716 0.76326 0.0
H1502 H 0.72766 0.28653 0.79032 0.0
H1503 H 0.72861 0.26553 0.8012 0.0
H1504 H 0.69284 0.29514 0.77398 0.0
H1505 H 0.74313 0.29718 0.75552 0.0
H1506 H 0.73587 0.28242 0.76125 0.0
H1507 H 0.74195 0.29393 0.77251 0.0
C1508 C 0.70695 0.25835 0.7778 0.0
C1509 C 0.71483 0.25646 0.78863 0.0
C1510 C 0.70648 0.27034 0.77155 0.0
C1511 C 0.714 0.28059 0.77591 0.0
C1512 C 0.72196 0.27869 0.78664 0.0
H1513 H 0.72064 0.36192 0.75922 0.0
H1514 H 0.72306 0.33976 0.76716 0.0
C1515 C 0.72244 0.26671 0.79288 0.0
C1516 C 0.7131 0.29343 0.7696 0.0
H1517 H 0.73092 0.31673 0.75451 0.0
C1518 C 0.70113 0.29982 0.76961 0.0
C1519 C 0.72395 0.2995 0.76395 0.0
C1520 C 0.73693 0.29287 0.76318 0.0
C1521 C 0.69979 0.31229 0.76443 0.0
C1522 C 0.71066 0.31843 0.7589 0.0
C1523 C 0.72261 0.31199 0.75877 0.0
C1524 C 0.70984 0.33165 0.75345 0.0
C1525 C 0.68682 0.31895 0.76528 0.0
C1526 C 0.70188 0.33435 0.74288 0.0
C1527 C 0.70046 0.34699 0.73833 0.0
C1528 C 0.70703 0.35716 0.74422 0.0
C1529 C 0.7154 0.35433 0.75449 0.0
C1530 C 0.71681 0.34167 0.75904 0.0
H1531 H 0.68034 0.31421 0.77243 0.0
H1532 H 0.6879 0.32923 0.76797 0.0
H1533 H 0.68209 0.31863 0.75573 0.0
H1534 H 0.69663 0.32669 0.73828 0.0
H1535 H 0.69401 0.3488 0.73035 0.0
H1536 H 0.45419 0.9906 0.36292 0.0
H1537 H 0.4473 0.98579 0.34099 0.0
H1538 H 0.40773 0.98439 0.35402 0.0
H1539 H 0.41456 0.98881 0.37601 0.0
H1540 H 0.41323 0.96507 0.3377 0.0
H1541 H 0.43034 0.01135 0.31684 0.0
H1542 H 0.4428 0.0021 0.32457 0.0
H1543 H 0.42956 0.00839 0.33398 0.0
C1544 C 0.44403 0.98922 0.36113 0.0
C1545 C 0.43492 0.99018 0.3712 0.0
C1546 C 0.4401 0.98656 0.34857 0.0
C1547 C 0.42697 0.98502 0.34581 0.0
C1548 C 0.4179 0.98563 0.35591 0.0
H1549 H 0.38951 0.99149 0.2719 0.0
H1550 H 0.3982 0.99463 0.29349 0.0
C1551 C 0.42183 0.98816 0.36848 0.0
C1552 C 0.42261 0.98281 0.33243 0.0
H1553 H 0.42262 0.99592 0.30212 0.0
C1554 C 0.41528 0.97181 0.32991 0.0
C1555 C 0.42514 0.99172 0.32232 0.0
C1556 C 0.43228 0.00412 0.32455 0.0
C1557 C 0.41041 0.96945 0.31757 0.0
C1558 C 0.41325 0.97817 0.30738 0.0
C1559 C 0.42057 0.98918 0.30991 0.0
C1560 C 0.40833 0.97631 0.29414 0.0
C1561 C 0.40195 0.95785 0.31569 0.0
C1562 C 0.41128 0.96505 0.28725 0.0
C1563 C 0.40631 0.96325 0.27491 0.0
C1564 C 0.39856 0.97281 0.26914 0.0
C1565 C 0.39578 0.98415 0.27596 0.0
C1566 C 0.40064 0.98589 0.28834 0.0
H1567 H 0.39782 0.95432 0.32497 0.0
H1568 H 0.39391 0.9601 0.30902 0.0
H1569 H 0.40781 0.94991 0.31148 0.0
H1570 H 0.41743 0.95766 0.29141 0.0
H1571 H 0.40861 0.95443 0.26984 0.0
H1572 H 0.26527 0.80364 0.72625 0.0
H1573 H 0.28626 0.79268 0.7256 0.0
H1574 H 0.27126 0.76495 0.69896 0.0
H1575 H 0.25023 0.77578 0.69968 0.0
H1576 H 0.29301 0.76718 0.73163 0.0
H1577 H 0.30329 0.77859 0.68014 0.0
H1578 H 0.29061 0.78653 0.68915 0.0
H1579 H 0.28826 0.77056 0.68306 0.0
C1580 C 0.26646 0.79521 0.72025 0.0
C1581 C 0.25623 0.7908 0.7127 0.0
C1582 C 0.27844 0.78897 0.71989 0.0
C1583 C 0.28039 0.77818 0.71202 0.0
C1584 C 0.27007 0.77348 0.70481 0.0
H1585 H 0.34871 0.73254 0.69388 0.0
H1586 H 0.32652 0.74019 0.6966 0.0
C1587 C 0.25808 0.77975 0.70514 0.0
C1588 C 0.29325 0.77188 0.71137 0.0
H1589 H 0.31818 0.76497 0.69082 0.0
C1590 C 0.29853 0.76668 0.72272 0.0
C1591 C 0.3004 0.77125 0.69972 0.0
C1592 C 0.29544 0.77712 0.68733 0.0
C1593 C 0.31077 0.76078 0.72271 0.0
C1594 C 0.31796 0.76026 0.71108 0.0
C1595 C 0.31261 0.76534 0.69972 0.0
C1596 C 0.33121 0.75485 0.71048 0.0
C1597 C 0.31582 0.75502 0.7351 0.0
C1598 C 0.34119 0.76049 0.71747 0.0
C1599 C 0.3539 0.75613 0.71597 0.0
C1600 C 0.35687 0.74611 0.70734 0.0
C1601 C 0.34678 0.74028 0.7006 0.0
C1602 C 0.33409 0.74463 0.70213 0.0
H1603 H 0.3079 0.753 0.74209 0.0
H1604 H 0.32123 0.74593 0.73326 0.0
H1605 H 0.32248 0.76194 0.73962 0.0
H1606 H 0.33923 0.76855 0.72378 0.0
H1607 H 0.36144 0.76088 0.72126 0.0
H1608 H 0.30152 0.1971 0.75987 0.0
H1609 H 0.29186 0.19385 0.78121 0.0
H1610 H 0.271 0.2298 0.77725 0.0
H1611 H 0.28079 0.23315 0.75592 0.0
H1612 H 0.2824 0.22813 0.80003 0.0
H1613 H 0.25614 0.18279 0.79154 0.0
H1614 H 0.27293 0.18138 0.7875 0.0
H1615 H 0.26282 0.19236 0.77854 0.0
C1616 C 0.2946 0.20412 0.76339 0.0
C1617 C 0.29165 0.21521 0.75612 0.0
C1618 C 0.2891 0.20227 0.77561 0.0
C1619 C 0.28046 0.21143 0.78072 0.0
C1620 C 0.27755 0.22255 0.77346 0.0
H1621 H 0.23619 0.19658 0.85125 0.0
H1622 H 0.24251 0.20142 0.82897 0.0
C1623 C 0.28314 0.22445 0.7613 0.0
C1624 C 0.27508 0.2098 0.79393 0.0
H1625 H 0.25907 0.18867 0.8136 0.0
C1626 C 0.27719 0.21956 0.80297 0.0
C1627 C 0.26811 0.1987 0.79771 0.0
C1628 C 0.26474 0.18828 0.78827 0.0
C1629 C 0.27284 0.21836 0.81576 0.0
C1630 C 0.26652 0.20694 0.81973 0.0
C1631 C 0.26406 0.19736 0.8106 0.0
C1632 C 0.2626 0.20461 0.83333 0.0
C1633 C 0.27497 0.22941 0.82486 0.0
C1634 C 0.27179 0.20476 0.84318 0.0
C1635 C 0.26819 0.20213 0.85593 0.0
C1636 C 0.25535 0.19908 0.85907 0.0
C1637 C 0.24616 0.19891 0.84917 0.0
C1638 C 0.24975 0.20165 0.83643 0.0
H1639 H 0.27604 0.23869 0.81955 0.0
H1640 H 0.26688 0.23038 0.83187 0.0
H1641 H 0.28398 0.22765 0.83031 0.0
H1642 H 0.28182 0.20669 0.84098 0.0
H1643 H 0.27554 0.20222 0.86329 0.0
H1644 H 0.32748 0.43555 0.22497 0.0
H1645 H 0.34986 0.4296 0.22972 0.0
H1646 H 0.3584 0.42827 0.18898 0.0
H1647 H 0.33625 0.43441 0.18416 0.0
H1648 H 0.36222 0.40735 0.22272 0.0
H1649 H 0.38826 0.44914 0.2021 0.0
H1650 H 0.37111 0.44948 0.20523 0.0
H1651 H 0.37741 0.44222 0.19075 0.0
C1652 C 0.33417 0.43418 0.21704 0.0
C1653 C 0.33006 0.43549 0.20419 0.0
C1654 C 0.34695 0.43077 0.21976 0.0
C1655 C 0.35586 0.4287 0.20971 0.0
C1656 C 0.3518 0.43014 0.1969 0.0
H1657 H 0.4292 0.3933 0.19648 0.0
H1658 H 0.40823 0.40416 0.19565 0.0
C1659 C 0.33907 0.43356 0.19418 0.0
C1660 C 0.36913 0.42409 0.21246 0.0
H1661 H 0.40081 0.42981 0.20546 0.0
C1662 C 0.37068 0.41236 0.21915 0.0
C1663 C 0.38015 0.43065 0.20778 0.0
C1664 C 0.37917 0.44363 0.20118 0.0
C1665 C 0.38292 0.40672 0.22075 0.0
C1666 C 0.39387 0.41305 0.21564 0.0
C1667 C 0.39237 0.42496 0.2093 0.0
C1668 C 0.40688 0.40714 0.21623 0.0
C1669 C 0.38401 0.39379 0.22743 0.0
C1670 C 0.41311 0.40537 0.22807 0.0
C1671 C 0.42522 0.39936 0.22854 0.0
C1672 C 0.43133 0.39514 0.21716 0.0
C1673 C 0.42504 0.39695 0.20533 0.0
C1674 C 0.41297 0.403 0.20486 0.0
H1675 H 0.37446 0.38917 0.22883 0.0
H1676 H 0.39033 0.38718 0.22181 0.0
H1677 H 0.38841 0.39506 0.23704 0.0
H1678 H 0.40859 0.40859 0.23694 0.0
H1679 H 0.42981 0.39802 0.2378 0.0
H1680 H 0.41636 0.19882 0.32787 0.0
H1681 H 0.41091 0.20363 0.35025 0.0
H1682 H 0.45075 0.19842 0.36086 0.0
H1683 H 0.45626 0.19326 0.33849 0.0
H1684 H 0.43478 0.18567 0.37706 0.0
H1685 H 0.41718 0.23581 0.37078 0.0
H1686 H 0.40903 0.22479 0.36047 0.0
H1687 H 0.42606 0.22742 0.35834 0.0
C1688 C 0.42401 0.19882 0.33492 0.0
C1689 C 0.43676 0.19568 0.33137 0.0
C1690 C 0.42088 0.20166 0.34771 0.0
C1691 C 0.43046 0.2016 0.35719 0.0
C1692 C 0.44322 0.19858 0.35368 0.0
H1693 H 0.41437 0.22998 0.43482 0.0
H1694 H 0.42367 0.22668 0.41329 0.0
C1695 C 0.44635 0.19566 0.34089 0.0
C1696 C 0.42701 0.204 0.37088 0.0
H1697 H 0.41155 0.22532 0.39068 0.0
C1698 C 0.42982 0.1944 0.38007 0.0
C1699 C 0.42071 0.21547 0.37484 0.0
C1700 C 0.41819 0.22652 0.36561 0.0
C1701 C 0.42612 0.19577 0.39304 0.0
C1702 C 0.41916 0.20691 0.39685 0.0
C1703 C 0.41674 0.21671 0.38774 0.0
C1704 C 0.41408 0.20853 0.41015 0.0
C1705 C 0.42979 0.18529 0.40254 0.0
C1706 C 0.40553 0.19948 0.41549 0.0
C1707 C 0.4003 0.2013 0.42781 0.0
C1708 C 0.40345 0.21225 0.43496 0.0
C1709 C 0.41188 0.22139 0.42955 0.0
C1710 C 0.41719 0.21952 0.41727 0.0
H1711 H 0.43831 0.17969 0.39912 0.0
H1712 H 0.43198 0.18935 0.41214 0.0
H1713 H 0.42164 0.1785 0.40366 0.0
H1714 H 0.40263 0.19116 0.41001 0.0
H1715 H 0.3934 0.19439 0.4315 0.0
H1716 H 0.42938 0.80169 0.50585 0.0
H1717 H 0.4087 0.7906 0.50631 0.0
H1718 H 0.41798 0.77269 0.46996 0.0
H1719 H 0.43868 0.78392 0.46942 0.0
H1720 H 0.39434 0.78262 0.46972 0.0
H1721 H 0.39996 0.75372 0.51437 0.0
H1722 H 0.40267 0.77051 0.51715 0.0
H1723 H 0.41336 0.7617 0.5066 0.0
C1724 C 0.42719 0.79509 0.49816 0.0
C1725 C 0.43577 0.7934 0.48776 0.0
C1726 C 0.41534 0.78878 0.4984 0.0
C1727 C 0.4119 0.78056 0.48832 0.0
C1728 C 0.42047 0.77889 0.47791 0.0
H1729 H 0.34181 0.73432 0.49557 0.0
H1730 H 0.36429 0.74071 0.49232 0.0
C1731 C 0.43228 0.7853 0.4776 0.0
C1732 C 0.39903 0.77441 0.48827 0.0
H1733 H 0.37831 0.75657 0.50672 0.0
C1734 C 0.39089 0.77679 0.47774 0.0
C1735 C 0.3946 0.76659 0.49861 0.0
C1736 C 0.40317 0.76286 0.50975 0.0
C1737 C 0.37827 0.77202 0.47753 0.0
C1738 C 0.37355 0.76497 0.48828 0.0
C1739 C 0.38186 0.76212 0.49855 0.0
C1740 C 0.35989 0.76094 0.48934 0.0
C1741 C 0.37015 0.77459 0.46576 0.0
C1742 C 0.34995 0.77018 0.48874 0.0
C1743 C 0.33711 0.76655 0.49048 0.0
C1744 C 0.33395 0.75362 0.49306 0.0
C1745 C 0.34391 0.74436 0.49358 0.0
C1746 C 0.35676 0.74799 0.49175 0.0
H1747 H 0.37626 0.77608 0.45703 0.0
H1748 H 0.36345 0.76653 0.46395 0.0
H1749 H 0.36438 0.78352 0.46726 0.0
H1750 H 0.35213 0.78028 0.48725 0.0
H1751 H 0.3297 0.77396 0.49013 0.0
H1752 H 0.26069 0.98001 0.8232 0.0
H1753 H 0.26723 0.97549 0.8454 0.0
H1754 H 0.24041 0.00433 0.85915 0.0
H1755 H 0.23371 0.00885 0.83703 0.0
H1756 H 0.278 0.99363 0.86222 0.0
H1757 H 0.23286 0.97301 0.88252 0.0
H1758 H 0.23588 0.97431 0.86539 0.0
H1759 H 0.2309 0.98825 0.87438 0.0
C1760 C 0.25605 0.98529 0.83095 0.0
C1761 C 0.24667 0.99479 0.82833 0.0
C1762 C 0.25982 0.9827 0.84362 0.0
C1763 C 0.25421 0.98948 0.85391 0.0
C1764 C 0.2447 0.99882 0.85136 0.0
H1765 H 0.26807 0.99126 0.93646 0.0
H1766 H 0.26028 0.99525 0.91456 0.0
C1767 C 0.24093 0.00144 0.8387 0.0
C1768 C 0.25886 0.98733 0.86722 0.0
H1769 H 0.24944 0.97768 0.89738 0.0
C1770 C 0.27178 0.99008 0.8699 0.0
C1771 C 0.25069 0.98279 0.87721 0.0
C1772 C 0.23683 0.9793 0.87476 0.0
C1773 C 0.27673 0.98856 0.88237 0.0
C1774 C 0.26859 0.98393 0.89236 0.0
C1775 C 0.25565 0.98123 0.8897 0.0
C1776 C 0.27341 0.98164 0.90559 0.0
C1777 C 0.29056 0.99217 0.8848 0.0
C1778 C 0.28323 0.97254 0.90783 0.0
C1779 C 0.28783 0.9704 0.92029 0.0
C1780 C 0.28268 0.97732 0.93075 0.0
C1781 C 0.27262 0.9862 0.92854 0.0
C1782 C 0.26802 0.98834 0.91606 0.0
H1783 H 0.29438 0.9987 0.87716 0.0
H1784 H 0.29155 0.99695 0.89428 0.0
H1785 H 0.29662 0.9833 0.88489 0.0
H1786 H 0.28731 0.96704 0.89993 0.0
H1787 H 0.29548 0.96338 0.92172 0.0
H1788 H 0.35924 0.44906 0.00536 0.0
H1789 H 0.33764 0.44136 0.00038 0.0
H1790 H 0.35339 0.41803 0.96976 0.0
H1791 H 0.37507 0.42561 0.97469 0.0
H1792 H 0.3234 0.44212 0.97639 0.0
H1793 H 0.33393 0.39231 0.99382 0.0
H1794 H 0.34397 0.40585 0.99772 0.0
H1795 H 0.34502 0.39869 0.98204 0.0
C1796 C 0.35813 0.44236 0.99751 0.0
C1797 C 0.36891 0.43787 0.99049 0.0
C1798 C 0.34577 0.43799 0.99467 0.0
C1799 C 0.34397 0.429 0.98483 0.0
C1800 C 0.35463 0.42483 0.97752 0.0
H1801 H 0.27746 0.38517 0.9609 0.0
H1802 H 0.2988 0.39483 0.96286 0.0
C1803 C 0.36699 0.42921 0.98032 0.0
C1804 C 0.331 0.42372 0.98251 0.0
H1805 H 0.31351 0.39605 0.98463 0.0
C1806 C 0.32121 0.43205 0.97817 0.0
C1807 C 0.32821 0.41058 0.98487 0.0
C1808 C 0.33828 0.40132 0.98997 0.0
C1809 C 0.30869 0.42754 0.97597 0.0
C1810 C 0.30587 0.41442 0.97845 0.0
C1811 C 0.3157 0.40609 0.98273 0.0
C1812 C 0.29276 0.40909 0.97682 0.0
C1813 C 0.29867 0.43681 0.97079 0.0
C1814 C 0.28229 0.41392 0.984 0.0
C1815 C 0.27007 0.40846 0.98284 0.0
C1816 C 0.26817 0.39793 0.97465 0.0
C1817 C 0.27864 0.39324 0.96734 0.0
C1818 C 0.29084 0.39872 0.96847 0.0
H1819 H 0.30318 0.44528 0.96598 0.0
H1820 H 0.29228 0.43201 0.96379 0.0
H1821 H 0.29263 0.44039 0.97889 0.0
H1822 H 0.28358 0.42182 0.99062 0.0
H1823 H 0.26211 0.41261 0.98822 0.0
H1824 H 0.7571 0.30213 0.19461 0.0
H1825 H 0.77811 0.29169 0.19155 0.0
H1826 H 0.7786 0.28093 0.23179 0.0
H1827 H 0.75735 0.29099 0.23482 0.0
H1828 H 0.80086 0.29823 0.20441 0.0
H1829 H 0.78795 0.24701 0.21317 0.0
H1830 H 0.77607 0.25931 0.20953 0.0
H1831 H 0.78264 0.25799 0.22547 0.0
C1832 C 0.76146 0.29716 0.2027 0.0
C1833 C 0.75541 0.29703 0.21487 0.0
C1834 C 0.77355 0.29136 0.20098 0.0
C1835 C 0.7798 0.28535 0.21139 0.0
C1836 C 0.77382 0.28528 0.22357 0.0
H1837 H 0.86169 0.2678 0.21679 0.0
H1838 H 0.83969 0.27573 0.22041 0.0
C1839 C 0.76173 0.2911 0.2253 0.0
C1840 C 0.79289 0.2798 0.20966 0.0
H1841 H 0.81028 0.25176 0.2116 0.0
C1842 C 0.80292 0.28807 0.20595 0.0
C1843 C 0.79551 0.26652 0.21158 0.0
C1844 C 0.78497 0.25714 0.21505 0.0
C1845 C 0.81557 0.28344 0.20426 0.0
C1846 C 0.81825 0.27023 0.20651 0.0
C1847 C 0.80819 0.26191 0.21003 0.0
C1848 C 0.83141 0.26483 0.20487 0.0
C1849 C 0.8259 0.29269 0.19988 0.0
C1850 C 0.83395 0.25577 0.19521 0.0
C1851 C 0.84649 0.25118 0.19313 0.0
C1852 C 0.85673 0.25553 0.20074 0.0
C1853 C 0.85406 0.2643 0.2107 0.0
C1854 C 0.84151 0.26889 0.21276 0.0
H1855 H 0.82175 0.30172 0.19578 0.0
H1856 H 0.83192 0.29528 0.20825 0.0
H1857 H 0.83228 0.28818 0.19251 0.0
H1858 H 0.82626 0.25247 0.18907 0.0
H1859 H 0.84818 0.24439 0.18541 0.0
H1860 H 0.76192 0.72292 0.36179 0.0
H1861 H 0.77008 0.72607 0.3398 0.0
H1862 H 0.74432 0.69682 0.32622 0.0
H1863 H 0.73603 0.69364 0.34811 0.0
H1864 H 0.78206 0.70645 0.32508 0.0
H1865 H 0.73909 0.72662 0.30024 0.0
H1866 H 0.74066 0.72656 0.31757 0.0
H1867 H 0.73618 0.71211 0.30935 0.0
C1868 C 0.75784 0.71728 0.35411 0.0
C1869 C 0.74833 0.70801 0.35673 0.0
C1870 C 0.76253 0.71909 0.34155 0.0
C1871 C 0.75771 0.71177 0.33138 0.0
C1872 C 0.748 0.70273 0.33389 0.0
H1873 H 0.77784 0.7011 0.25086 0.0
H1874 H 0.76808 0.7003 0.27242 0.0
C1875 C 0.74334 0.70088 0.34644 0.0
C1876 C 0.7635 0.71286 0.31832 0.0
H1877 H 0.75666 0.72 0.2869 0.0
C1878 C 0.77655 0.70951 0.31674 0.0
C1879 C 0.75624 0.71675 0.30747 0.0
C1880 C 0.74229 0.72083 0.3087 0.0
C1881 C 0.78248 0.7097 0.30455 0.0
C1882 C 0.77523 0.71361 0.29368 0.0
C1883 C 0.76219 0.717 0.29526 0.0
C1884 C 0.78105 0.71422 0.2806 0.0
C1885 C 0.79637 0.70538 0.30336 0.0
C1886 C 0.79142 0.72248 0.27799 0.0
C1887 C 0.79715 0.72277 0.26576 0.0
C1888 C 0.79261 0.71481 0.2559 0.0
C1889 C 0.78194 0.70689 0.2584 0.0
C1890 C 0.77622 0.70658 0.27066 0.0
H1891 H 0.79945 0.69954 0.31184 0.0
H1892 H 0.79794 0.69959 0.29451 0.0
H1893 H 0.80264 0.71398 0.30274 0.0
H1894 H 0.79509 0.72869 0.28543 0.0
H1895 H 0.80525 0.7291 0.26407 0.0
H1896 H 0.9222 0.89665 0.68365 0.0
H1897 H 0.90124 0.90759 0.6832 0.0
H1898 H 0.90402 0.91509 0.72392 0.0
H1899 H 0.92524 0.90456 0.72432 0.0
H1900 H 0.87952 0.9003 0.69748 0.0
H1901 H 0.89371 0.95047 0.70869 0.0
H1902 H 0.90515 0.93841 0.70327 0.0
H1903 H 0.89966 0.93844 0.71975 0.0
C1904 C 0.91858 0.90102 0.6924 0.0
C1905 C 0.92554 0.90009 0.70393 0.0
C1906 C 0.90651 0.90711 0.69217 0.0
C1907 C 0.90119 0.91235 0.70348 0.0
C1908 C 0.90808 0.91137 0.71503 0.0
H1909 H 0.81983 0.92975 0.71613 0.0
H1910 H 0.84198 0.92171 0.71803 0.0
C1911 C 0.92015 0.90528 0.71526 0.0
C1912 C 0.88809 0.91814 0.70332 0.0
H1913 H 0.87127 0.94605 0.70872 0.0
C1914 C 0.87771 0.9103 0.69992 0.0
C1915 C 0.88579 0.93121 0.70642 0.0
C1916 C 0.89666 0.94019 0.70963 0.0
C1917 C 0.86506 0.91516 0.69963 0.0
C1918 C 0.86271 0.92816 0.70302 0.0
C1919 C 0.8731 0.93605 0.70629 0.0
C1920 C 0.84957 0.93381 0.70272 0.0
C1921 C 0.85433 0.90642 0.69546 0.0
C1922 C 0.84662 0.94362 0.69382 0.0
C1923 C 0.834 0.94827 0.69273 0.0
C1924 C 0.82409 0.94323 0.70058 0.0
C1925 C 0.8272 0.93379 0.70988 0.0
C1926 C 0.83984 0.92914 0.71095 0.0
H1927 H 0.85808 0.89772 0.69045 0.0
H1928 H 0.84879 0.90319 0.70408 0.0
H1929 H 0.84759 0.9116 0.68892 0.0
H1930 H 0.85402 0.9474 0.68743 0.0
H1931 H 0.83196 0.95559 0.6855 0.0
H1932 H 0.77187 0.49979 0.44669 0.0
H1933 H 0.76217 0.50134 0.42528 0.0
H1934 H 0.7923 0.47687 0.40994 0.0
H1935 H 0.80211 0.4754 0.43128 0.0
H1936 H 0.77316 0.51094 0.40276 0.0
H1937 H 0.7598 0.45969 0.3969 0.0
H1938 H 0.76415 0.46634 0.41228 0.0
H1939 H 0.77646 0.46187 0.4008 0.0
C1940 C 0.77654 0.49493 0.43871 0.0
C1941 C 0.7879 0.48772 0.44058 0.0
C1942 C 0.7709 0.49568 0.42653 0.0
C1943 C 0.77643 0.48911 0.41605 0.0
C1944 C 0.78772 0.48181 0.41793 0.0
H1945 H 0.76565 0.48655 0.33383 0.0
H1946 H 0.77242 0.48352 0.35619 0.0
C1947 C 0.79334 0.48103 0.43011 0.0
C1948 C 0.77076 0.49034 0.40303 0.0
H1949 H 0.75893 0.47294 0.378 0.0
C1950 C 0.76992 0.50265 0.39738 0.0
C1951 C 0.76656 0.4795 0.39605 0.0
C1952 C 0.76666 0.46612 0.40185 0.0
C1953 C 0.76537 0.50439 0.38478 0.0
C1954 C 0.76136 0.49353 0.37774 0.0
C1955 C 0.76204 0.48124 0.38343 0.0
C1956 C 0.75673 0.49475 0.36431 0.0
C1957 C 0.76526 0.51777 0.37896 0.0
C1958 C 0.74549 0.5018 0.36153 0.0
C1959 C 0.74158 0.50355 0.34876 0.0
C1960 C 0.74884 0.49825 0.33856 0.0
C1961 C 0.75987 0.49081 0.34144 0.0
C1962 C 0.76375 0.48906 0.35421 0.0
H1963 H 0.77128 0.52454 0.38452 0.0
H1964 H 0.76881 0.5176 0.36883 0.0
H1965 H 0.75523 0.52157 0.37894 0.0
H1966 H 0.73981 0.50607 0.36922 0.0
H1967 H 0.733 0.50927 0.3469 0.0
H1968 H 0.95695 0.6959 0.8303 0.0
H1969 H 0.9505 0.69885 0.85283 0.0
H1970 H 0.91065 0.70149 0.84146 0.0
H1971 H 0.91703 0.69894 0.81891 0.0
H1972 H 0.91628 0.71942 0.85888 0.0
H1973 H 0.93435 0.67179 0.87581 0.0
H1974 H 0.94655 0.68153 0.86831 0.0
H1975 H 0.93321 0.67596 0.85894 0.0
C1976 C 0.94682 0.69715 0.83259 0.0
C1977 C 0.9375 0.69711 0.82281 0.0
C1978 C 0.94314 0.69873 0.84549 0.0
C1979 C 0.93006 0.7001 0.84887 0.0
C1980 C 0.92079 0.70037 0.83909 0.0
H1981 H 0.8936 0.68909 0.92336 0.0
H1982 H 0.90246 0.68699 0.90155 0.0
C1983 C 0.92446 0.69892 0.8262 0.0
C1984 C 0.92597 0.70135 0.86255 0.0
H1985 H 0.92677 0.68617 0.89189 0.0
C1986 C 0.91858 0.71215 0.8661 0.0
C1987 C 0.92882 0.69176 0.87192 0.0
C1988 C 0.93606 0.67954 0.86856 0.0
C1989 C 0.91394 0.71365 0.87875 0.0
C1990 C 0.9171 0.70426 0.88821 0.0
C1991 C 0.92448 0.69343 0.88466 0.0
C1992 C 0.91243 0.70525 0.90173 0.0
C1993 C 0.90536 0.72509 0.88173 0.0
C1994 C 0.91534 0.71606 0.9092 0.0
C1995 C 0.91027 0.71727 0.92166 0.0
C1996 C 0.90247 0.70755 0.92699 0.0
C1997 C 0.89988 0.69656 0.91965 0.0
C1998 C 0.90485 0.69541 0.90714 0.0
H1999 H 0.90099 0.72924 0.87286 0.0
H2000 H 0.89748 0.72239 0.88852 0.0
H2001 H 0.91118 0.73272 0.88626 0.0
H2002 H 0.92142 0.72362 0.90534 0.0
H2003 H 0.91244 0.72582 0.92713 0.0
H2004 H 0.46195 0.74791 0.91405 0.0
H2005 H 0.46152 0.76925 0.92405 0.0
H2006 H 0.50202 0.77365 0.91553 0.0
H2007 H 0.5024 0.75257 0.90516 0.0
H2008 H 0.47635 0.77929 0.94489 0.0
H2009 H 0.48466 0.80551 0.89871 0.0
H2010 H 0.47988 0.78882 0.89937 0.0
H2011 H 0.49637 0.79313 0.90217 0.0
C2012 C 0.47077 0.75341 0.91439 0.0
C2013 C 0.48227 0.74847 0.90905 0.0
C2014 C 0.47052 0.76556 0.92013 0.0
C2015 C 0.48172 0.77303 0.92046 0.0
C2016 C 0.49326 0.76805 0.91531 0.0
H2017 H 0.49943 0.84183 0.96283 0.0
H2018 H 0.49699 0.81969 0.95545 0.0
C2019 C 0.49352 0.75589 0.90959 0.0
C2020 C 0.48126 0.7862 0.92586 0.0
H2021 H 0.48557 0.81784 0.91784 0.0
C2022 C 0.47832 0.78774 0.93899 0.0
C2023 C 0.48362 0.79719 0.91807 0.0
C2024 C 0.48619 0.79615 0.90377 0.0
C2025 C 0.478 0.80001 0.94462 0.0
C2026 C 0.48084 0.81096 0.93693 0.0
C2027 C 0.48347 0.80942 0.92373 0.0
C2028 C 0.48142 0.82412 0.94234 0.0
C2029 C 0.47454 0.80117 0.95872 0.0
C2030 C 0.4735 0.83397 0.93739 0.0
C2031 C 0.47491 0.84667 0.94153 0.0
C2032 C 0.48435 0.84976 0.95064 0.0
C2033 C 0.49203 0.83979 0.95583 0.0
C2034 C 0.49061 0.8271 0.95168 0.0
H2035 H 0.46926 0.79256 0.96231 0.0
H2036 H 0.4835 0.80202 0.9644 0.0
H2037 H 0.46852 0.80989 0.9605 0.0
H2038 H 0.46638 0.83187 0.93013 0.0
H2039 H 0.46883 0.8541 0.93732 0.0
H2040 H 0.47023 0.43774 0.78356 0.0
H2041 H 0.47012 0.41629 0.7738 0.0
H2042 H 0.51016 0.41108 0.7836 0.0
H2043 H 0.51019 0.43224 0.79378 0.0
H2044 H 0.4855 0.40587 0.75357 0.0
H2045 H 0.49231 0.37955 0.79985 0.0
H2046 H 0.48771 0.39636 0.7991 0.0
H2047 H 0.50425 0.39163 0.79663 0.0
C2048 C 0.47902 0.43203 0.78357 0.0
C2049 C 0.4903 0.43678 0.78919 0.0
C2050 C 0.47895 0.41982 0.77797 0.0
C2051 C 0.4901 0.41208 0.77806 0.0
C2052 C 0.50142 0.41687 0.78352 0.0
H2053 H 0.50968 0.34344 0.73557 0.0
H2054 H 0.50678 0.36552 0.74312 0.0
C2055 C 0.5015 0.42907 0.78911 0.0
C2056 C 0.48985 0.39891 0.77267 0.0
H2057 H 0.49421 0.36723 0.78071 0.0
C2058 C 0.48734 0.3974 0.75949 0.0
C2059 C 0.49204 0.38789 0.78048 0.0
C2060 C 0.49411 0.38888 0.79482 0.0
C2061 C 0.48732 0.38514 0.75384 0.0
C2062 C 0.49004 0.37416 0.76156 0.0
C2063 C 0.49221 0.37567 0.7748 0.0
C2064 C 0.49099 0.36102 0.75612 0.0
C2065 C 0.48429 0.38404 0.73969 0.0
C2066 C 0.48313 0.35113 0.76097 0.0
C2067 C 0.48481 0.33847 0.75674 0.0
C2068 C 0.49447 0.33544 0.74763 0.0
C2069 C 0.50212 0.34544 0.74256 0.0
C2070 C 0.50043 0.35809 0.7468 0.0
H2071 H 0.47892 0.39263 0.73609 0.0
H2072 H 0.49344 0.38329 0.73412 0.0
H2073 H 0.47851 0.3753 0.73779 0.0
H2074 H 0.47582 0.35319 0.76821 0.0
H2075 H 0.47875 0.33101 0.76085 0.0
H2076 H 0.20415 0.32272 0.45044 0.0
H2077 H 0.20678 0.34491 0.44274 0.0
H2078 H 0.21198 0.33122 0.40389 0.0
H2079 H 0.20957 0.30901 0.41149 0.0
H2080 H 0.22871 0.35157 0.41039 0.0
H2081 H 0.17751 0.36256 0.42257 0.0
H2082 H 0.18703 0.35661 0.43576 0.0
H2083 H 0.18385 0.34632 0.42231 0.0
C2084 C 0.206 0.32441 0.44028 0.0
C2085 C 0.20649 0.31409 0.43155 0.0
C2086 C 0.20746 0.3371 0.4359 0.0
C2087 C 0.20934 0.3397 0.42272 0.0
C2088 C 0.21048 0.32941 0.41409 0.0
H2089 H 0.18991 0.40803 0.37985 0.0
H2090 H 0.19278 0.38625 0.38845 0.0
C2091 C 0.20907 0.31672 0.41846 0.0
C2092 C 0.20931 0.35312 0.41777 0.0
H2093 H 0.18995 0.37965 0.41424 0.0
C2094 C 0.22028 0.35776 0.41127 0.0
C2095 C 0.19821 0.36107 0.41879 0.0
C2096 C 0.18593 0.3564 0.42513 0.0
C2097 C 0.22043 0.37017 0.40573 0.0
C2098 C 0.20936 0.37814 0.40687 0.0
C2099 C 0.19844 0.37351 0.41343 0.0
C2100 C 0.2086 0.39115 0.40091 0.0
C2101 C 0.23226 0.37451 0.3984 0.0
C2102 C 0.21666 0.40111 0.40497 0.0
C2103 C 0.21507 0.41362 0.40003 0.0
C2104 C 0.20532 0.41637 0.39104 0.0
C2105 C 0.19749 0.40627 0.38679 0.0
C2106 C 0.19911 0.3938 0.39169 0.0
H2107 H 0.23874 0.36629 0.39596 0.0
H2108 H 0.22953 0.3796 0.38935 0.0
H2109 H 0.23773 0.38133 0.40441 0.0
H2110 H 0.2239 0.39931 0.41224 0.0
H2111 H 0.22123 0.42118 0.40354 0.0
H2112 H 0.20231 0.85323 0.23967 0.0
H2113 H 0.20635 0.83082 0.24613 0.0
H2114 H 0.20622 0.84202 0.28609 0.0
H2115 H 0.20252 0.86443 0.27974 0.0
H2116 H 0.22577 0.82553 0.28068 0.0
H2117 H 0.17989 0.80655 0.26157 0.0
H2118 H 0.18967 0.81467 0.24973 0.0
H2119 H 0.18292 0.82358 0.263 0.0
C2120 C 0.20317 0.85093 0.24984 0.0
C2121 C 0.20202 0.86062 0.2592 0.0
C2122 C 0.20539 0.8381 0.25351 0.0
C2123 C 0.20633 0.83471 0.2666 0.0
C2124 C 0.20546 0.8444 0.27593 0.0
H2125 H 0.1982 0.76052 0.30387 0.0
H2126 H 0.19532 0.78211 0.29462 0.0
C2127 C 0.20335 0.85722 0.27228 0.0
C2128 C 0.20827 0.8211 0.27068 0.0
H2129 H 0.19476 0.7912 0.26983 0.0
C2130 C 0.219 0.81802 0.27829 0.0
C2131 C 0.19933 0.81134 0.26769 0.0
C2132 C 0.18724 0.81419 0.26016 0.0
C2133 C 0.22104 0.80547 0.28304 0.0
C2134 C 0.21227 0.79564 0.27981 0.0
C2135 C 0.20154 0.79871 0.27218 0.0
C2136 C 0.21376 0.78225 0.2847 0.0
C2137 C 0.23235 0.80296 0.29181 0.0
C2138 C 0.22496 0.77505 0.28197 0.0
C2139 C 0.2266 0.7627 0.28723 0.0
C2140 C 0.21695 0.75723 0.29508 0.0
C2141 C 0.20561 0.76431 0.29753 0.0
C2142 C 0.20402 0.7767 0.29236 0.0
H2143 H 0.236 0.81202 0.29606 0.0
H2144 H 0.22969 0.79626 0.29978 0.0
H2145 H 0.24033 0.79851 0.28618 0.0
H2146 H 0.23248 0.77902 0.27586 0.0
H2147 H 0.23543 0.75743 0.28518 0.0
H2148 H 0.91559 0.46087 0.74686 0.0
H2149 H 0.92476 0.46083 0.76859 0.0
H2150 H 0.91152 0.49995 0.77391 0.0
H2151 H 0.90203 0.49992 0.75241 0.0
H2152 H 0.94338 0.47803 0.77995 0.0
H2153 H 0.89557 0.47922 0.80446 0.0
H2154 H 0.89755 0.47502 0.78769 0.0
H2155 H 0.89793 0.49162 0.79248 0.0
C2156 C 0.91472 0.46949 0.75265 0.0
C2157 C 0.90832 0.48049 0.74785 0.0
C2158 C 0.91998 0.46946 0.76502 0.0
C2159 C 0.91875 0.48036 0.77285 0.0
C2160 C 0.91252 0.49142 0.76802 0.0
H2161 H 0.95524 0.50196 0.84357 0.0
H2162 H 0.94913 0.49893 0.82112 0.0
C2163 C 0.90729 0.49147 0.75564 0.0
C2164 C 0.92364 0.48007 0.78621 0.0
H2165 H 0.91389 0.4822 0.81762 0.0
C2166 C 0.93696 0.47888 0.78821 0.0
C2167 C 0.91519 0.48097 0.79694 0.0
C2168 C 0.90075 0.48166 0.79535 0.0
C2169 C 0.94209 0.47894 0.8007 0.0
C2170 C 0.93367 0.48036 0.8114 0.0
C2171 C 0.92033 0.48118 0.80939 0.0
C2172 C 0.93845 0.48142 0.82477 0.0
C2173 C 0.95646 0.47744 0.80236 0.0
C2174 C 0.93445 0.4726 0.83428 0.0
C2175 C 0.93788 0.47432 0.84716 0.0
C2176 C 0.94528 0.48499 0.85077 0.0
C2177 C 0.94956 0.49362 0.84114 0.0
C2178 C 0.94614 0.49187 0.82827 0.0
H2179 H 0.96108 0.47298 0.79377 0.0
H2180 H 0.96078 0.48709 0.80368 0.0
H2181 H 0.95873 0.47146 0.81099 0.0
H2182 H 0.92845 0.46451 0.83177 0.0
H2183 H 0.93441 0.4675 0.85432 0.0
H2184 H 0.92932 0.27398 0.95709 0.0
H2185 H 0.90733 0.26597 0.9602 0.0
H2186 H 0.90614 0.28246 0.99823 0.0
H2187 H 0.9279 0.29087 0.995 0.0
H2188 H 0.89738 0.24919 0.97954 0.0
H2189 H 0.87391 0.29746 0.98051 0.0
H2190 H 0.8902 0.29499 0.97474 0.0
H2191 H 0.88686 0.29547 0.99176 0.0
C2192 C 0.92436 0.27587 0.96612 0.0
C2193 C 0.93042 0.28282 0.97591 0.0
C2194 C 0.91184 0.27126 0.96789 0.0
C2195 C 0.9051 0.27369 0.97941 0.0
C2196 C 0.91116 0.28056 0.98924 0.0
H2197 H 0.83622 0.23865 0.01047 0.0
H2198 H 0.85829 0.24496 0.00522 0.0
C2199 C 0.92368 0.28515 0.98747 0.0
C2200 C 0.8917 0.26913 0.98111 0.0
H2201 H 0.86084 0.2796 0.98634 0.0
C2202 C 0.88937 0.25582 0.98097 0.0
C2203 C 0.88126 0.27783 0.98277 0.0
C2204 C 0.88311 0.29224 0.98234 0.0
C2205 C 0.87689 0.25096 0.98279 0.0
C2206 C 0.86653 0.25965 0.98495 0.0
C2207 C 0.86882 0.27296 0.98477 0.0
C2208 C 0.85325 0.25516 0.98768 0.0
C2209 C 0.87487 0.23659 0.98228 0.0
C2210 C 0.84307 0.25893 0.97962 0.0
C2211 C 0.83041 0.2554 0.98262 0.0
C2212 C 0.82769 0.24812 0.9938 0.0
C2213 C 0.83796 0.24422 0.00176 0.0
C2214 C 0.85061 0.24775 0.99874 0.0
H2215 H 0.88291 0.23163 0.97714 0.0
H2216 H 0.87441 0.23266 0.99226 0.0
H2217 H 0.86568 0.23428 0.97743 0.0
H2218 H 0.84492 0.26472 0.97107 0.0
H2219 H 0.82274 0.25858 0.97629 0.0
H2220 H 0.85536 0.93621 0.46885 0.0
H2221 H 0.83321 0.92919 0.46532 0.0
H2222 H 0.81966 0.95517 0.4948 0.0
H2223 H 0.84172 0.96231 0.49838 0.0
H2224 H 0.81756 0.91772 0.48479 0.0
H2225 H 0.79475 0.96201 0.46459 0.0
H2226 H 0.81201 0.95953 0.46476 0.0
H2227 H 0.80362 0.96432 0.47919 0.0
C2228 C 0.84765 0.94058 0.47446 0.0
C2229 C 0.85033 0.94981 0.48392 0.0
C2230 C 0.83501 0.93654 0.47243 0.0
C2231 C 0.8248 0.94176 0.47971 0.0
C2232 C 0.82738 0.95119 0.48893 0.0
H2233 H 0.7434 0.92548 0.48895 0.0
H2234 H 0.76518 0.93432 0.48998 0.0
C2235 C 0.84001 0.9552 0.491 0.0
C2236 C 0.81161 0.93661 0.47838 0.0
H2237 H 0.78069 0.945 0.47073 0.0
C2238 C 0.80951 0.92364 0.48162 0.0
C2239 C 0.80113 0.94442 0.47435 0.0
C2240 C 0.80295 0.95832 0.47041 0.0
C2241 C 0.79714 0.9183 0.48118 0.0
C2242 C 0.78665 0.92608 0.47712 0.0
C2243 C 0.78875 0.93906 0.47384 0.0
C2244 C 0.77341 0.9209 0.47627 0.0
C2245 C 0.79537 0.90447 0.48544 0.0
C2246 C 0.77076 0.91062 0.46802 0.0
C2247 C 0.7584 0.9054 0.46762 0.0
C2248 C 0.74845 0.91039 0.47544 0.0
C2249 C 0.75099 0.92103 0.48329 0.0
C2250 C 0.76338 0.92623 0.48372 0.0
H2251 H 0.80353 0.90099 0.49145 0.0
H2252 H 0.78627 0.9033 0.49103 0.0
H2253 H 0.7949 0.89825 0.47681 0.0
H2254 H 0.77828 0.90658 0.46194 0.0
H2255 H 0.75669 0.89731 0.46133 0.0
H2256 H 0.14321 0.46906 0.37838 0.0
H2257 H 0.12055 0.47035 0.38502 0.0
H2258 H 0.1313 0.46168 0.42425 0.0
H2259 H 0.1539 0.46066 0.41778 0.0
H2260 H 0.10807 0.44984 0.39438 0.0
H2261 H 0.10408 0.48886 0.43013 0.0
H2262 H 0.11776 0.48731 0.41935 0.0
H2263 H 0.11694 0.47789 0.434 0.0
C2264 C 0.14078 0.46777 0.38848 0.0
C2265 C 0.15036 0.46465 0.39753 0.0
C2266 C 0.12782 0.46852 0.39226 0.0
C2267 C 0.12421 0.46623 0.40516 0.0
C2268 C 0.13383 0.46379 0.41431 0.0
H2269 H 0.06185 0.43612 0.44839 0.0
H2270 H 0.08141 0.44663 0.44049 0.0
C2271 C 0.14678 0.46309 0.41056 0.0
C2272 C 0.11044 0.46451 0.40873 0.0
H2273 H 0.08769 0.47234 0.43142 0.0
C2274 C 0.10351 0.45497 0.40229 0.0
C2275 C 0.10452 0.47115 0.4191 0.0
C2276 C 0.11118 0.48196 0.42595 0.0
C2277 C 0.09112 0.45139 0.40637 0.0
C2278 C 0.08541 0.45766 0.41707 0.0
C2279 C 0.09211 0.46754 0.42323 0.0
C2280 C 0.07298 0.45325 0.4226 0.0
C2281 C 0.08453 0.44043 0.39963 0.0
C2282 C 0.06162 0.45394 0.41536 0.0
C2283 C 0.05042 0.44788 0.41982 0.0
C2284 C 0.05039 0.44108 0.43162 0.0
C2285 C 0.06156 0.44118 0.43922 0.0
C2286 C 0.07274 0.44722 0.43474 0.0
H2287 H 0.09122 0.43509 0.39313 0.0
H2288 H 0.08043 0.43352 0.40677 0.0
H2289 H 0.07649 0.44432 0.39374 0.0
H2290 H 0.06156 0.45873 0.40604 0.0
H2291 H 0.04195 0.4481 0.41378 0.0
H2292 H 0.14719 0.90449 0.27094 0.0
H2293 H 0.12555 0.91367 0.27295 0.0
H2294 H 0.12989 0.93224 0.23584 0.0
H2295 H 0.15158 0.92292 0.23364 0.0
H2296 H 0.11697 0.93945 0.27245 0.0
H2297 H 0.0967 0.91121 0.23207 0.0
H2298 H 0.11211 0.90738 0.23916 0.0
H2299 H 0.11058 0.9208 0.22821 0.0
C2300 C 0.14359 0.91057 0.26321 0.0
C2301 C 0.15108 0.91288 0.25207 0.0
C2302 C 0.13122 0.91582 0.26439 0.0
C2303 C 0.12605 0.92347 0.25446 0.0
C2304 C 0.13362 0.92616 0.2435 0.0
H2305 H 0.04706 0.95357 0.24859 0.0
H2306 H 0.06997 0.9492 0.24448 0.0
C2307 C 0.14604 0.92089 0.2423 0.0
C2308 C 0.11262 0.92834 0.25562 0.0
H2309 H 0.08249 0.92521 0.24304 0.0
C2310 C 0.10944 0.93641 0.26597 0.0
C2311 C 0.10283 0.92437 0.24712 0.0
C2312 C 0.10564 0.91539 0.23606 0.0
C2313 C 0.09668 0.94049 0.26819 0.0
C2314 C 0.08684 0.93619 0.25994 0.0
C2315 C 0.09007 0.92845 0.24935 0.0
C2316 C 0.07305 0.93909 0.26253 0.0
C2317 C 0.09386 0.94936 0.27934 0.0
C2318 C 0.06716 0.93468 0.27394 0.0
C2319 C 0.0541 0.93713 0.27632 0.0
C2320 C 0.04664 0.94399 0.26727 0.0
C2321 C 0.05254 0.94829 0.25577 0.0
C2322 C 0.06562 0.94582 0.2534 0.0
H2323 H 0.10261 0.95467 0.28228 0.0
H2324 H 0.08618 0.95645 0.27687 0.0
H2325 H 0.09052 0.94356 0.28773 0.0
H2326 H 0.07265 0.92921 0.28098 0.0
H2327 H 0.04986 0.93361 0.28524 0.0
H2328 H 0.54463 0.74837 0.93545 0.0
H2329 H 0.566 0.75342 0.94375 0.0
H2330 H 0.58184 0.71983 0.925 0.0
H2331 H 0.56053 0.71473 0.91657 0.0
H2332 H 0.58324 0.73787 0.95934 0.0
H2333 H 0.60388 0.75018 0.91113 0.0
H2334 H 0.58673 0.74908 0.91402 0.0
H2335 H 0.59634 0.73468 0.91254 0.0
C2336 C 0.55264 0.74203 0.93311 0.0
C2337 C 0.55089 0.7312 0.92526 0.0
C2338 C 0.56484 0.74492 0.93789 0.0
C2339 C 0.5755 0.73708 0.93485 0.0
C2340 C 0.57375 0.7261 0.92729 0.0
H2341 H 0.65731 0.75086 0.94863 0.0
H2342 H 0.63703 0.7403 0.94324 0.0
C2343 C 0.56155 0.72318 0.92252 0.0
C2344 C 0.5885 0.74062 0.93939 0.0
H2345 H 0.61782 0.75127 0.92885 0.0
C2346 C 0.59084 0.74074 0.95269 0.0
C2347 C 0.59838 0.74429 0.93067 0.0
C2348 C 0.59625 0.74467 0.91629 0.0
C2349 C 0.60282 0.74455 0.95753 0.0
C2350 C 0.61259 0.74858 0.94882 0.0
C2351 C 0.61033 0.74814 0.93551 0.0
C2352 C 0.62491 0.7541 0.95327 0.0
C2353 C 0.60491 0.74417 0.9719 0.0
C2354 C 0.62484 0.7653 0.96076 0.0
C2355 C 0.63638 0.77132 0.96388 0.0
C2356 C 0.64825 0.76634 0.95944 0.0
C2357 C 0.64833 0.75493 0.95221 0.0
C2358 C 0.63676 0.74889 0.94911 0.0
H2359 H 0.5984 0.73714 0.97673 0.0
H2360 H 0.61504 0.74158 0.97424 0.0
H2361 H 0.60277 0.75383 0.97595 0.0
H2362 H 0.61581 0.76966 0.96383 0.0
H2363 H 0.63595 0.78011 0.96943 0.0
H2364 H 0.54933 0.27291 0.72678 0.0
H2365 H 0.57067 0.26311 0.72979 0.0
H2366 H 0.56721 0.26862 0.77084 0.0
H2367 H 0.54588 0.27821 0.76797 0.0
H2368 H 0.59147 0.27544 0.74001 0.0
H2369 H 0.58051 0.23181 0.769 0.0
H2370 H 0.56827 0.24066 0.76027 0.0
H2371 H 0.57352 0.24612 0.77578 0.0
C2372 C 0.55301 0.27182 0.73647 0.0
C2373 C 0.54591 0.27636 0.74714 0.0
C2374 C 0.56521 0.26623 0.73816 0.0
C2375 C 0.57047 0.26499 0.75055 0.0
C2376 C 0.56324 0.26921 0.76123 0.0
H2377 H 0.64299 0.25166 0.78689 0.0
H2378 H 0.62067 0.25609 0.78078 0.0
C2379 C 0.55106 0.27477 0.75955 0.0
C2380 C 0.58392 0.26039 0.75228 0.0
H2381 H 0.60246 0.23905 0.76935 0.0
C2382 C 0.59388 0.26735 0.74626 0.0
C2383 C 0.58703 0.24985 0.76044 0.0
C2384 C 0.57676 0.2416 0.76664 0.0
C2385 C 0.60688 0.26442 0.74865 0.0
C2386 C 0.60998 0.25416 0.75715 0.0
C2387 C 0.60003 0.24696 0.76288 0.0
C2388 C 0.62347 0.25115 0.76073 0.0
C2389 C 0.61719 0.27267 0.74249 0.0
C2390 C 0.6324 0.24679 0.75148 0.0
C2391 C 0.64519 0.24426 0.75493 0.0
C2392 C 0.64925 0.24602 0.7677 0.0
C2393 C 0.64021 0.25024 0.77696 0.0
C2394 C 0.62744 0.25275 0.7735 0.0
H2395 H 0.61316 0.2817 0.73827 0.0
H2396 H 0.62464 0.27522 0.74965 0.0
H2397 H 0.62199 0.26718 0.73464 0.0
H2398 H 0.62947 0.24532 0.7416 0.0
H2399 H 0.65188 0.24095 0.74758 0.0
H2400 H 0.05513 0.76854 0.22922 0.0
H2401 H 0.07658 0.75943 0.23334 0.0
H2402 H 0.07081 0.76481 0.27417 0.0
H2403 H 0.04937 0.77371 0.27019 0.0
H2404 H 0.09643 0.7724 0.24471 0.0
H2405 H 0.08523 0.72833 0.27296 0.0
H2406 H 0.07324 0.73685 0.26358 0.0
H2407 H 0.07749 0.74245 0.27936 0.0
C2408 C 0.05834 0.76756 0.2391 0.0
C2409 C 0.05054 0.77187 0.24938 0.0
C2410 C 0.0706 0.76237 0.24143 0.0
C2411 C 0.07523 0.76129 0.25407 0.0
C2412 C 0.06734 0.76528 0.26436 0.0
H2413 H 0.14652 0.7491 0.29353 0.0
H2414 H 0.12436 0.75314 0.28665 0.0
C2415 C 0.0551 0.77045 0.26205 0.0
C2416 C 0.0887 0.75708 0.2565 0.0
H2417 H 0.10693 0.73605 0.27429 0.0
C2418 C 0.09875 0.76433 0.25102 0.0
C2419 C 0.09168 0.74657 0.26476 0.0
C2420 C 0.08134 0.73802 0.2704 0.0
C2421 C 0.11168 0.7617 0.25401 0.0
C2422 C 0.11463 0.75143 0.26256 0.0
C2423 C 0.10462 0.74396 0.26778 0.0
C2424 C 0.12803 0.74863 0.26662 0.0
C2425 C 0.12205 0.77025 0.2484 0.0
C2426 C 0.13739 0.74461 0.25766 0.0
C2427 C 0.15009 0.7423 0.26155 0.0
C2428 C 0.15363 0.74394 0.2745 0.0
C2429 C 0.14415 0.74779 0.28348 0.0
C2430 C 0.13147 0.75007 0.27958 0.0
H2431 H 0.118 0.77929 0.2442 0.0
H2432 H 0.12917 0.77281 0.25588 0.0
H2433 H 0.12725 0.76501 0.24063 0.0
H2434 H 0.13488 0.74324 0.24765 0.0
H2435 H 0.15713 0.73928 0.2544 0.0
H2436 H 0.63776 0.92053 0.9155 0.0
H2437 H 0.6156 0.91547 0.92176 0.0
H2438 H 0.61237 0.95173 0.94162 0.0
H2439 H 0.63451 0.95697 0.93528 0.0
H2440 H 0.6049 0.91344 0.94664 0.0
H2441 H 0.58085 0.95192 0.91773 0.0
H2442 H 0.59744 0.94718 0.91508 0.0
H2443 H 0.59319 0.95731 0.92844 0.0
C2444 C 0.63235 0.92746 0.92117 0.0
C2445 C 0.63789 0.93919 0.92483 0.0
C2446 C 0.61969 0.92453 0.92476 0.0
C2447 C 0.6123 0.93329 0.93201 0.0
C2448 C 0.61784 0.94494 0.93582 0.0
H2449 H 0.53941 0.91118 0.96916 0.0
H2450 H 0.56086 0.92021 0.96527 0.0
C2451 C 0.63051 0.94788 0.93224 0.0
C2452 C 0.59886 0.93009 0.93567 0.0
H2453 H 0.56747 0.9391 0.93111 0.0
C2454 C 0.59671 0.91908 0.94331 0.0
C2455 C 0.58822 0.93742 0.93121 0.0
C2456 C 0.58996 0.94906 0.92257 0.0
C2457 C 0.58417 0.91512 0.94653 0.0
C2458 C 0.57352 0.92249 0.94213 0.0
C2459 C 0.57567 0.93356 0.93457 0.0
C2460 C 0.56008 0.91832 0.94453 0.0
C2461 C 0.58243 0.90284 0.95422 0.0
C2462 C 0.55235 0.9148 0.93413 0.0
C2463 C 0.54009 0.90972 0.9363 0.0
C2464 C 0.53531 0.9081 0.94893 0.0
C2465 C 0.54284 0.91222 0.95932 0.0
C2466 C 0.55512 0.91731 0.95713 0.0
H2467 H 0.59141 0.89693 0.95451 0.0
H2468 H 0.57969 0.90527 0.96428 0.0
H2469 H 0.57461 0.89691 0.95012 0.0
H2470 H 0.55598 0.91557 0.92433 0.0
H2471 H 0.53452 0.90672 0.92808 0.0
H2472 H 0.65413 0.42053 0.72126 0.0
H2473 H 0.63328 0.43128 0.7246 0.0
H2474 H 0.63752 0.42702 0.76575 0.0
H2475 H 0.65839 0.4165 0.76254 0.0
H2476 H 0.61227 0.42035 0.73596 0.0
H2477 H 0.62554 0.46417 0.76264 0.0
H2478 H 0.63726 0.45457 0.75394 0.0
H2479 H 0.63211 0.44983 0.7699 0.0
C2480 C 0.65073 0.42209 0.73103 0.0
C2481 C 0.65792 0.41763 0.74163 0.0
C2482 C 0.63881 0.42822 0.73291 0.0
C2483 C 0.63391 0.43009 0.74543 0.0
C2484 C 0.64123 0.42595 0.75602 0.0
H2485 H 0.5566 0.43249 0.77408 0.0
H2486 H 0.57825 0.42709 0.76634 0.0
C2487 C 0.65314 0.41985 0.75415 0.0
C2488 C 0.62069 0.43526 0.74745 0.0
H2489 H 0.60338 0.45759 0.76448 0.0
C2490 C 0.61034 0.42861 0.74204 0.0
C2491 C 0.61816 0.44614 0.75524 0.0
C2492 C 0.62887 0.45417 0.76065 0.0
C2493 C 0.59752 0.43217 0.74472 0.0
C2494 C 0.59499 0.4425 0.75321 0.0
C2495 C 0.60533 0.44955 0.75811 0.0
C2496 C 0.58173 0.44577 0.75758 0.0
C2497 C 0.5868 0.42476 0.73849 0.0
C2498 C 0.5766 0.45816 0.75548 0.0
C2499 C 0.56423 0.46131 0.75998 0.0
C2500 C 0.55681 0.45215 0.76674 0.0
C2501 C 0.56201 0.43975 0.76885 0.0
C2502 C 0.57437 0.43662 0.76436 0.0
H2503 H 0.59014 0.42002 0.72948 0.0
H2504 H 0.58344 0.41711 0.74523 0.0
H2505 H 0.57848 0.43116 0.7362 0.0
H2506 H 0.58217 0.46538 0.75035 0.0
H2507 H 0.56053 0.47095 0.75823 0.0
H2508 H 0.15165 0.27394 0.4199 0.0
H2509 H 0.12904 0.26809 0.41776 0.0
H2510 H 0.12879 0.25318 0.45669 0.0
H2511 H 0.15147 0.25917 0.45901 0.0
H2512 H 0.11662 0.24421 0.42047 0.0
H2513 H 0.0991 0.27972 0.45669 0.0
H2514 H 0.11521 0.28018 0.44999 0.0
H2515 H 0.11115 0.26844 0.46215 0.0
C2516 C 0.14684 0.26936 0.42801 0.0
C2517 C 0.15334 0.26713 0.43967 0.0
C2518 C 0.13391 0.266 0.42675 0.0
C2519 C 0.12719 0.2604 0.43713 0.0
C2520 C 0.13375 0.25772 0.44864 0.0
H2521 H 0.04437 0.2444 0.44194 0.0
H2522 H 0.06742 0.24536 0.44679 0.0
C2523 C 0.14672 0.26108 0.44992 0.0
C2524 C 0.11326 0.25769 0.43583 0.0
H2525 H 0.08344 0.26714 0.44651 0.0
C2526 C 0.10936 0.24915 0.42622 0.0
C2527 C 0.10382 0.26414 0.44338 0.0
C2528 C 0.10746 0.27371 0.45358 0.0
C2529 C 0.09626 0.24702 0.42381 0.0
C2530 C 0.08683 0.25378 0.43106 0.0
C2531 C 0.09071 0.262 0.44096 0.0
C2532 C 0.07291 0.25298 0.42808 0.0
C2533 C 0.09262 0.23758 0.41349 0.0
C2534 C 0.06836 0.25713 0.41603 0.0
C2535 C 0.05523 0.25663 0.41324 0.0
C2536 C 0.04637 0.25201 0.42247 0.0
C2537 C 0.05094 0.24797 0.4346 0.0
C2538 C 0.0641 0.24851 0.43739 0.0
H2539 H 0.10056 0.2306 0.4115 0.0
H2540 H 0.08384 0.23214 0.41629 0.0
H2541 H 0.09058 0.24293 0.40442 0.0
H2542 H 0.07497 0.26089 0.40881 0.0
H2543 H 0.05204 0.25988 0.40383 0.0
H2544 H 0.46023 0.04497 0.42829 0.0
H2545 H 0.45697 0.06676 0.43677 0.0
H2546 H 0.41692 0.0655 0.42606 0.0
H2547 H 0.42002 0.04377 0.41774 0.0
H2548 H 0.44889 0.08811 0.42249 0.0
H2549 H 0.41494 0.07875 0.46292 0.0
H2550 H 0.4244 0.06612 0.45546 0.0
H2551 H 0.4098 0.07185 0.44803 0.0
C2552 C 0.45069 0.04926 0.42792 0.0
C2553 C 0.44038 0.04263 0.42234 0.0
C2554 C 0.44885 0.06171 0.43275 0.0
C2555 C 0.43667 0.06767 0.4322 0.0
C2556 C 0.42634 0.06098 0.42684 0.0
H2557 H 0.40149 0.14195 0.44136 0.0
H2558 H 0.40722 0.11939 0.43753 0.0
C2559 C 0.42815 0.04857 0.42201 0.0
C2560 C 0.43488 0.08123 0.4363 0.0
H2561 H 0.41629 0.10063 0.45545 0.0
C2562 C 0.44191 0.09086 0.42983 0.0
C2563 C 0.42575 0.08477 0.44586 0.0
C2564 C 0.41838 0.07482 0.45356 0.0
C2565 C 0.43963 0.10398 0.43227 0.0
C2566 C 0.43022 0.10752 0.44156 0.0
C2567 C 0.42346 0.09788 0.44828 0.0
C2568 C 0.42687 0.12118 0.44407 0.0
C2569 C 0.44693 0.11395 0.42452 0.0
C2570 C 0.436 0.12963 0.44914 0.0
C2571 C 0.43276 0.14255 0.45133 0.0
C2572 C 0.42031 0.14723 0.44853 0.0
C2573 C 0.41116 0.13868 0.44359 0.0
C2574 C 0.41441 0.12578 0.44141 0.0
H2575 H 0.45175 0.1097 0.41593 0.0
H2576 H 0.44037 0.12182 0.42127 0.0
H2577 H 0.45445 0.11825 0.43065 0.0
H2578 H 0.4456 0.12622 0.45146 0.0
H2579 H 0.44001 0.14885 0.45521 0.0
H2580 H 0.23987 0.75157 0.64729 0.0
H2581 H 0.24641 0.74583 0.62531 0.0
H2582 H 0.26473 0.78275 0.62065 0.0
H2583 H 0.25841 0.78853 0.64259 0.0
H2584 H 0.24064 0.75837 0.60182 0.0
H2585 H 0.29328 0.75716 0.61063 0.0
H2586 H 0.28152 0.75705 0.62355 0.0
H2587 H 0.28566 0.77193 0.61557 0.0
C2588 C 0.24533 0.75845 0.64161 0.0
C2589 C 0.24868 0.77048 0.64673 0.0
C2590 C 0.24904 0.75516 0.62905 0.0
C2591 C 0.25621 0.76378 0.62144 0.0
C2592 C 0.25942 0.77585 0.62646 0.0
H2593 H 0.28804 0.76944 0.54524 0.0
H2594 H 0.27953 0.77265 0.56699 0.0
C2595 C 0.25574 0.77915 0.63899 0.0
C2596 C 0.26024 0.76032 0.60816 0.0
H2597 H 0.28672 0.75722 0.58866 0.0
C2598 C 0.25071 0.75798 0.59894 0.0
C2599 C 0.27339 0.75976 0.60448 0.0
C2600 C 0.28407 0.76148 0.6141 0.0
C2601 C 0.25399 0.75561 0.586 0.0
C2602 C 0.26712 0.75544 0.58226 0.0
C2603 C 0.27664 0.75746 0.59155 0.0
C2604 C 0.27128 0.75363 0.5687 0.0
C2605 C 0.24339 0.75374 0.57633 0.0
C2606 C 0.26935 0.74188 0.56241 0.0
C2607 C 0.27422 0.73999 0.54993 0.0
C2608 C 0.28115 0.74981 0.54358 0.0
C2609 C 0.28277 0.76166 0.54984 0.0
C2610 C 0.27793 0.76352 0.56228 0.0
H2611 H 0.2338 0.75664 0.58024 0.0
H2612 H 0.24535 0.7594 0.5674 0.0
H2613 H 0.24298 0.74341 0.57368 0.0
H2614 H 0.2644 0.73405 0.56728 0.0
H2615 H 0.27284 0.73074 0.5454 0.0
H2616 H 0.22822 0.14531 0.91861 0.0
H2617 H 0.2301 0.12359 0.9279 0.0
H2618 H 0.27124 0.12429 0.9216 0.0
H2619 H 0.26949 0.14597 0.91249 0.0
H2620 H 0.23944 0.1022 0.91496 0.0
H2621 H 0.26855 0.11086 0.95851 0.0
H2622 H 0.26034 0.12369 0.94993 0.0
H2623 H 0.27562 0.11764 0.94416 0.0
C2624 C 0.23769 0.14092 0.9194 0.0
C2625 C 0.2487 0.14737 0.91479 0.0
C2626 C 0.23874 0.12851 0.9247 0.0
C2627 C 0.25082 0.12239 0.92559 0.0
C2628 C 0.26185 0.12893 0.92127 0.0
H2629 H 0.28329 0.04745 0.93877 0.0
H2630 H 0.27846 0.07016 0.9344 0.0
C2631 C 0.26081 0.14131 0.91597 0.0
C2632 C 0.25187 0.1088 0.93003 0.0
H2633 H 0.26771 0.08901 0.95118 0.0
C2634 C 0.24545 0.09932 0.92301 0.0
C2635 C 0.25974 0.10508 0.9405 0.0
C2636 C 0.26636 0.11487 0.94879 0.0
C2637 C 0.24716 0.08615 0.92582 0.0
C2638 C 0.25535 0.08242 0.93605 0.0
C2639 C 0.26148 0.09192 0.9433 0.0
C2640 C 0.25815 0.06869 0.939 0.0
C2641 C 0.24063 0.07634 0.91748 0.0
C2642 C 0.24834 0.06037 0.94317 0.0
C2643 C 0.25105 0.04735 0.94565 0.0
C2644 C 0.26365 0.04245 0.94407 0.0
C2645 C 0.27348 0.05088 0.94006 0.0
C2646 C 0.27075 0.06388 0.93758 0.0
H2647 H 0.2369 0.0807 0.90841 0.0
H2648 H 0.24738 0.06837 0.91498 0.0
H2649 H 0.23236 0.07215 0.92287 0.0
H2650 H 0.23858 0.06394 0.94452 0.0
H2651 H 0.24327 0.04114 0.9488 0.0
H2652 H 0.40253 0.46438 0.06396 0.0
H2653 H 0.41131 0.45821 0.08492 0.0
H2654 H 0.44051 0.43508 0.06613 0.0
H2655 H 0.43186 0.44128 0.04507 0.0
H2656 H 0.41251 0.43263 0.09365 0.0
H2657 H 0.46101 0.45493 0.09327 0.0
H2658 H 0.44839 0.45997 0.0824 0.0
H2659 H 0.45745 0.44547 0.07933 0.0
C2660 C 0.41095 0.45815 0.06425 0.0
C2661 C 0.41646 0.45328 0.05283 0.0
C2662 C 0.41595 0.45463 0.07625 0.0
C2663 C 0.42661 0.44628 0.07707 0.0
C2664 C 0.43241 0.44172 0.0657 0.0
H2665 H 0.4635 0.40456 0.13958 0.0
H2666 H 0.45741 0.41411 0.11884 0.0
C2667 C 0.42741 0.44523 0.05367 0.0
C2668 C 0.43088 0.44144 0.08984 0.0
H2669 H 0.45652 0.44006 0.11026 0.0
C2670 C 0.4221 0.43433 0.09734 0.0
C2671 C 0.44343 0.4436 0.09454 0.0
C2672 C 0.45311 0.4515 0.08704 0.0
C2673 C 0.42558 0.42913 0.10935 0.0
C2674 C 0.43811 0.43133 0.1141 0.0
C2675 C 0.44691 0.43843 0.1066 0.0
C2676 C 0.44225 0.42616 0.12678 0.0
C2677 C 0.41591 0.42105 0.11668 0.0
C2678 C 0.43591 0.42998 0.13814 0.0
C2679 C 0.43932 0.42451 0.15 0.0
C2680 C 0.44921 0.41517 0.15072 0.0
C2681 C 0.45581 0.41168 0.13936 0.0
C2682 C 0.45237 0.41714 0.1275 0.0
H2683 H 0.40808 0.41761 0.11035 0.0
H2684 H 0.42065 0.41255 0.12125 0.0
H2685 H 0.41143 0.42694 0.12442 0.0
H2686 H 0.42823 0.43711 0.13782 0.0
H2687 H 0.43411 0.4275 0.15858 0.0
H2688 H 0.44443 0.12794 0.30553 0.0
H2689 H 0.43826 0.10735 0.29632 0.0
H2690 H 0.44185 0.12347 0.25803 0.0
H2691 H 0.44815 0.14421 0.26717 0.0
H2692 H 0.41654 0.10361 0.28012 0.0
H2693 H 0.46268 0.08911 0.25638 0.0
H2694 H 0.46189 0.10124 0.26876 0.0
H2695 H 0.45668 0.10502 0.2527 0.0
C2696 C 0.44402 0.12712 0.29514 0.0
C2697 C 0.44678 0.13774 0.28708 0.0
C2698 C 0.44048 0.11533 0.2899 0.0
C2699 C 0.4397 0.11387 0.27651 0.0
C2700 C 0.44259 0.12437 0.26839 0.0
H2701 H 0.417 0.04626 0.23244 0.0
H2702 H 0.42405 0.0678 0.23866 0.0
C2703 C 0.44613 0.13621 0.27363 0.0
C2704 C 0.43524 0.10148 0.2712 0.0
H2705 H 0.44495 0.07524 0.25387 0.0
C2706 C 0.42273 0.09741 0.27435 0.0
C2707 C 0.44332 0.0935 0.26361 0.0
C2708 C 0.45693 0.09734 0.2602 0.0
C2709 C 0.4181 0.08549 0.2702 0.0
C2710 C 0.42631 0.07731 0.26293 0.0
C2711 C 0.43871 0.08152 0.2595 0.0
C2712 C 0.42228 0.06421 0.25916 0.0
C2713 C 0.40443 0.08181 0.27357 0.0
C2714 C 0.41918 0.05499 0.26865 0.0
C2715 C 0.41512 0.04271 0.26515 0.0
C2716 C 0.41418 0.03937 0.25208 0.0
C2717 C 0.41757 0.04854 0.24259 0.0
C2718 C 0.42161 0.06084 0.24612 0.0
H2719 H 0.39839 0.09041 0.27583 0.0
H2720 H 0.39989 0.0765 0.26556 0.0
H2721 H 0.40448 0.07545 0.28222 0.0
H2722 H 0.41991 0.0573 0.27878 0.0
H2723 H 0.4127 0.03585 0.2727 0.0
H2724 H 0.4093 0.76776 0.65556 0.0
H2725 H 0.41844 0.77191 0.63418 0.0
H2726 H 0.42848 0.73167 0.63061 0.0
H2727 H 0.41916 0.72735 0.65198 0.0
H2728 H 0.44318 0.7676 0.62371 0.0
H2729 H 0.40589 0.73877 0.59895 0.0
H2730 H 0.40434 0.74346 0.61561 0.0
H2731 H 0.41488 0.73038 0.61119 0.0
C2732 C 0.41353 0.75978 0.65029 0.0
C2733 C 0.41337 0.74719 0.65543 0.0
C2734 C 0.41877 0.76219 0.63807 0.0
C2735 C 0.42392 0.75206 0.63073 0.0
C2736 C 0.42431 0.73957 0.63603 0.0
H2737 H 0.4494 0.75362 0.55005 0.0
H2738 H 0.44502 0.74683 0.57232 0.0
C2739 C 0.41904 0.73714 0.64827 0.0
C2740 C 0.42846 0.75463 0.61738 0.0
H2741 H 0.42168 0.74861 0.58584 0.0
C2742 C 0.43854 0.7634 0.61542 0.0
C2743 C 0.42238 0.74912 0.6066 0.0
C2744 C 0.4112 0.73998 0.60812 0.0
C2745 C 0.44263 0.76689 0.60295 0.0
C2746 C 0.43632 0.76165 0.59218 0.0
C2747 C 0.42648 0.75262 0.59413 0.0
C2748 C 0.43936 0.76583 0.57881 0.0
C2749 C 0.45369 0.77616 0.60142 0.0
C2750 C 0.43747 0.77873 0.57506 0.0
C2751 C 0.43993 0.78264 0.56236 0.0
C2752 C 0.44428 0.7737 0.55314 0.0
C2753 C 0.44609 0.76076 0.55692 0.0
C2754 C 0.44361 0.75685 0.56963 0.0
H2755 H 0.45977 0.77634 0.61019 0.0
H2756 H 0.45986 0.77359 0.59301 0.0
H2757 H 0.44979 0.78603 0.59981 0.0
H2758 H 0.43391 0.78575 0.58192 0.0
H2759 H 0.43837 0.79266 0.55977 0.0
H2760 H 0.22826 0.05294 0.7682 0.0
H2761 H 0.23233 0.07444 0.7592 0.0
H2762 H 0.27318 0.06871 0.76446 0.0
H2763 H 0.26925 0.04721 0.77325 0.0
H2764 H 0.24373 0.0942 0.77235 0.0
H2765 H 0.27182 0.0834 0.72806 0.0
H2766 H 0.26247 0.07133 0.73652 0.0
H2767 H 0.27825 0.07556 0.74212 0.0
C2768 C 0.23812 0.05616 0.76722 0.0
C2769 C 0.24843 0.04836 0.77146 0.0
C2770 C 0.24043 0.06846 0.7621 0.0
C2771 C 0.25306 0.07312 0.76102 0.0
C2772 C 0.26337 0.06521 0.76493 0.0
H2773 H 0.29209 0.14473 0.7487 0.0
H2774 H 0.28542 0.1225 0.75277 0.0
C2775 C 0.26109 0.05294 0.77004 0.0
C2776 C 0.25545 0.08662 0.7569 0.0
H2777 H 0.27303 0.10505 0.73588 0.0
C2778 C 0.24998 0.09659 0.76426 0.0
C2779 C 0.26364 0.0897 0.74637 0.0
C2780 C 0.26928 0.07943 0.73773 0.0
C2781 C 0.2529 0.10956 0.76169 0.0
C2782 C 0.26136 0.11261 0.75137 0.0
C2783 C 0.26658 0.10266 0.74382 0.0
C2784 C 0.2653 0.12605 0.74859 0.0
C2785 C 0.24731 0.11984 0.77035 0.0
C2786 C 0.25621 0.13537 0.74474 0.0
C2787 C 0.25998 0.1481 0.74243 0.0
C2788 C 0.27293 0.15172 0.74387 0.0
C2789 C 0.28204 0.14229 0.74754 0.0
C2790 C 0.27825 0.12957 0.74984 0.0
H2791 H 0.24327 0.11571 0.77943 0.0
H2792 H 0.25475 0.12703 0.77284 0.0
H2793 H 0.23941 0.12497 0.76523 0.0
H2794 H 0.2462 0.13279 0.74351 0.0
H2795 H 0.25274 0.1551 0.73954 0.0
H2796 H 0.26825 0.42815 0.14788 0.0
H2797 H 0.26126 0.42368 0.12591 0.0
H2798 H 0.27635 0.46024 0.11307 0.0
H2799 H 0.28354 0.46474 0.13495 0.0
H2800 H 0.24517 0.43693 0.1082 0.0
H2801 H 0.29594 0.43372 0.09089 0.0
H2802 H 0.29169 0.43383 0.10779 0.0
H2803 H 0.29169 0.44861 0.09862 0.0
C2804 C 0.26995 0.43532 0.14042 0.0
C2805 C 0.27661 0.44674 0.14314 0.0
C2806 C 0.26594 0.43275 0.12787 0.0
C2807 C 0.26852 0.44152 0.11783 0.0
C2808 C 0.27451 0.45323 0.12064 0.0
H2809 H 0.24063 0.43659 0.03874 0.0
H2810 H 0.2447 0.44328 0.0609 0.0
C2811 C 0.27856 0.45581 0.13317 0.0
C2812 C 0.26555 0.43809 0.10435 0.0
H2813 H 0.2797 0.43186 0.0752 0.0
C2814 C 0.2527 0.43585 0.10096 0.0
C2815 C 0.27543 0.43651 0.09499 0.0
C2816 C 0.28948 0.43817 0.09823 0.0
C2817 C 0.24944 0.43214 0.0884 0.0
C2818 C 0.25931 0.4308 0.07899 0.0
C2819 C 0.27216 0.43299 0.08241 0.0
C2820 C 0.25661 0.42671 0.06563 0.0
C2821 C 0.23553 0.42937 0.0854 0.0
C2822 C 0.26218 0.41532 0.06086 0.0
C2823 C 0.25996 0.41151 0.04819 0.0
C2824 C 0.25216 0.41906 0.04001 0.0
C2825 C 0.24664 0.43052 0.0448 0.0
C2826 C 0.24888 0.43432 0.05749 0.0
H2827 H 0.22969 0.42786 0.0943 0.0
H2828 H 0.23134 0.43769 0.08005 0.0
H2829 H 0.23474 0.4207 0.07925 0.0
H2830 H 0.26823 0.40935 0.06697 0.0
H2831 H 0.26437 0.40265 0.04481 0.0
H2832 H 0.92889 0.27732 0.04286 0.0
H2833 H 0.92359 0.27253 0.06538 0.0
H2834 H 0.95938 0.25151 0.06939 0.0
H2835 H 0.96487 0.25637 0.04688 0.0
H2836 H 0.92094 0.24845 0.07757 0.0
H2837 H 0.96003 0.27723 0.09941 0.0
H2838 H 0.95543 0.27905 0.08274 0.0
H2839 H 0.96517 0.26553 0.08771 0.0
C2840 C 0.93567 0.2717 0.04852 0.0
C2841 C 0.94734 0.26729 0.04308 0.0
C2842 C 0.93261 0.26895 0.06138 0.0
C2843 C 0.94117 0.26181 0.06909 0.0
C2844 C 0.95275 0.25723 0.06367 0.0
H2845 H 0.91722 0.23095 0.14458 0.0
H2846 H 0.9266 0.23274 0.12289 0.0
C2847 C 0.95583 0.25997 0.05078 0.0
C2848 C 0.93782 0.2591 0.08276 0.0
H2849 H 0.94668 0.26543 0.1137 0.0
C2850 C 0.9266 0.25209 0.08549 0.0
C2851 C 0.94519 0.26395 0.09303 0.0
C2852 C 0.95707 0.27195 0.09064 0.0
C2853 C 0.92244 0.24992 0.09822 0.0
C2854 C 0.92983 0.25474 0.10851 0.0
C2855 C 0.94113 0.26164 0.10579 0.0
C2856 C 0.92542 0.25357 0.12209 0.0
C2857 C 0.90993 0.24291 0.10055 0.0
C2858 C 0.92216 0.2647 0.12901 0.0
C2859 C 0.91689 0.26372 0.14141 0.0
C2860 C 0.91479 0.25158 0.14714 0.0
C2861 C 0.91863 0.24044 0.14041 0.0
C2862 C 0.92392 0.24144 0.12799 0.0
H2863 H 0.90413 0.24221 0.09163 0.0
H2864 H 0.91205 0.23298 0.10401 0.0
H2865 H 0.90404 0.24784 0.10805 0.0
H2866 H 0.9233 0.27415 0.12465 0.0
H2867 H 0.91412 0.27249 0.14634 0.0
H2868 H 0.72674 0.55119 0.27563 0.0
H2869 H 0.73034 0.57221 0.26534 0.0
H2870 H 0.77122 0.56812 0.2717 0.0
H2871 H 0.76776 0.54711 0.28176 0.0
H2872 H 0.74074 0.59316 0.27724 0.0
H2873 H 0.77032 0.58039 0.23451 0.0
H2874 H 0.7612 0.56858 0.24354 0.0
H2875 H 0.77671 0.57369 0.24914 0.0
C2876 C 0.73652 0.55467 0.27463 0.0
C2877 C 0.74697 0.54747 0.27954 0.0
C2878 C 0.73856 0.56668 0.26876 0.0
C2879 C 0.75106 0.57166 0.26761 0.0
C2880 C 0.76152 0.56435 0.27221 0.0
H2881 H 0.78913 0.64303 0.2529 0.0
H2882 H 0.78247 0.62099 0.25788 0.0
C2883 C 0.7595 0.55236 0.27805 0.0
C2884 C 0.75314 0.58494 0.26266 0.0
H2885 H 0.771 0.60252 0.24114 0.0
C2886 C 0.74719 0.59521 0.26921 0.0
C2887 C 0.76157 0.58759 0.2522 0.0
C2888 C 0.76771 0.57697 0.24436 0.0
C2889 C 0.7499 0.60808 0.26596 0.0
C2890 C 0.75867 0.61071 0.25579 0.0
C2891 C 0.76433 0.60046 0.24899 0.0
C2892 C 0.76258 0.62404 0.25247 0.0
C2893 C 0.74379 0.61874 0.27379 0.0
C2894 C 0.75361 0.63302 0.24766 0.0
C2895 C 0.75737 0.64565 0.24482 0.0
C2896 C 0.77019 0.6495 0.2467 0.0
C2897 C 0.77918 0.64041 0.25138 0.0
C2898 C 0.7754 0.6278 0.2542 0.0
H2899 H 0.73932 0.61505 0.28284 0.0
H2900 H 0.75104 0.62612 0.27627 0.0
H2901 H 0.73615 0.62353 0.26801 0.0
H2902 H 0.7437 0.63024 0.24609 0.0
H2903 H 0.75023 0.65239 0.24117 0.0
H2904 H 0.75665 0.95515 0.64979 0.0
H2905 H 0.74621 0.95006 0.6293 0.0
H2906 H 0.78342 0.94267 0.61196 0.0
H2907 H 0.79389 0.94765 0.63225 0.0
H2908 H 0.75048 0.96147 0.60377 0.0
H2909 H 0.76257 0.90929 0.60579 0.0
H2910 H 0.76305 0.91951 0.6198 0.0
H2911 H 0.77608 0.91969 0.60826 0.0
C2912 C 0.7626 0.95246 0.6416 0.0
C2913 C 0.7761 0.95172 0.64268 0.0
C2914 C 0.75662 0.94957 0.62992 0.0
C2915 C 0.76405 0.9458 0.61921 0.0
C2916 C 0.77751 0.94534 0.62019 0.0
H2917 H 0.75602 0.92279 0.5407 0.0
H2918 H 0.76291 0.92897 0.56223 0.0
C2919 C 0.78348 0.94825 0.6318 0.0
C2920 C 0.75787 0.94227 0.60693 0.0
H2921 H 0.75528 0.91756 0.58562 0.0
C2922 C 0.75136 0.95184 0.59984 0.0
C2923 C 0.75906 0.9297 0.60189 0.0
C2924 C 0.76546 0.91891 0.60936 0.0
C2925 C 0.74649 0.94929 0.58752 0.0
C2926 C 0.74802 0.9368 0.58232 0.0
C2927 C 0.7542 0.92715 0.5896 0.0
C2928 C 0.7437 0.93357 0.56916 0.0
C2929 C 0.74022 0.9601 0.57996 0.0
C2930 C 0.7306 0.93407 0.56592 0.0
C2931 C 0.72661 0.93055 0.55359 0.0
C2932 C 0.73567 0.9264 0.54431 0.0
C2933 C 0.74879 0.92595 0.5476 0.0
C2934 C 0.75275 0.92947 0.55991 0.0
H2935 H 0.74234 0.96969 0.5841 0.0
H2936 H 0.74349 0.96 0.56974 0.0
H2937 H 0.72961 0.95879 0.58013 0.0
H2938 H 0.72343 0.93698 0.573 0.0
H2939 H 0.71643 0.93096 0.5514 0.0
H2940 H 0.77764 0.55937 0.45421 0.0
H2941 H 0.76989 0.58116 0.44922 0.0
H2942 H 0.7391 0.56538 0.42671 0.0
H2943 H 0.74666 0.54355 0.43178 0.0
H2944 H 0.7678 0.59229 0.42505 0.0
H2945 H 0.7201 0.59132 0.44955 0.0
H2946 H 0.73256 0.5795 0.45276 0.0
H2947 H 0.72271 0.57818 0.43866 0.0
C2948 C 0.76915 0.56052 0.44828 0.0
C2949 C 0.76275 0.54971 0.44341 0.0
C2950 C 0.76474 0.57298 0.44545 0.0
C2951 C 0.75381 0.57488 0.43777 0.0
C2952 C 0.74738 0.56413 0.43291 0.0
H2953 H 0.7168 0.63832 0.39896 0.0
H2954 H 0.72294 0.61768 0.40874 0.0
C2955 C 0.75178 0.55165 0.43574 0.0
C2956 C 0.74959 0.58812 0.43421 0.0
H2957 H 0.72385 0.60886 0.43497 0.0
C2958 C 0.75824 0.59597 0.42734 0.0
C2959 C 0.73711 0.59288 0.4372 0.0
C2960 C 0.72761 0.58509 0.44505 0.0
C2961 C 0.75462 0.60832 0.42302 0.0
C2962 C 0.74207 0.613 0.42583 0.0
C2963 C 0.73347 0.60523 0.43285 0.0
C2964 C 0.73756 0.62572 0.42099 0.0
C2965 C 0.7641 0.61607 0.41508 0.0
C2966 C 0.74347 0.63712 0.42495 0.0
C2967 C 0.74 0.64896 0.41937 0.0
C2968 C 0.73053 0.64957 0.40975 0.0
C2969 C 0.72419 0.63818 0.40628 0.0
C2970 C 0.72766 0.62637 0.41187 0.0
H2971 H 0.77225 0.61004 0.41149 0.0
H2972 H 0.75926 0.62067 0.40669 0.0
H2973 H 0.76813 0.62382 0.42111 0.0
H2974 H 0.75098 0.63683 0.43215 0.0
H2975 H 0.74501 0.65755 0.42232 0.0
H2976 H 0.93963 0.65036 0.92019 0.0
H2977 H 0.94691 0.62823 0.91628 0.0
H2978 H 0.91487 0.61379 0.93869 0.0
H2979 H 0.90742 0.63586 0.94254 0.0
H2980 H 0.95357 0.6084 0.93422 0.0
H2981 H 0.91175 0.59507 0.90404 0.0
H2982 H 0.91546 0.61159 0.9078 0.0
H2983 H 0.90768 0.60147 0.9196 0.0
C2984 C 0.93412 0.64249 0.92428 0.0
C2985 C 0.92289 0.64488 0.9316 0.0
C2986 C 0.93831 0.62985 0.92206 0.0
C2987 C 0.93134 0.61939 0.92706 0.0
C2988 C 0.92027 0.62173 0.93456 0.0
H2989 H 0.94008 0.53659 0.91556 0.0
H2990 H 0.93381 0.55763 0.92421 0.0
C2991 C 0.91605 0.63436 0.93679 0.0
C2992 C 0.9356 0.60602 0.9243 0.0
H2993 H 0.92671 0.57854 0.90896 0.0
C2994 C 0.94771 0.60185 0.92871 0.0
C2995 C 0.9279 0.5975 0.91715 0.0
C2996 C 0.91502 0.60162 0.91176 0.0
C2997 C 0.95231 0.58935 0.92617 0.0
C2998 C 0.94469 0.5809 0.91886 0.0
C2999 C 0.93251 0.58502 0.91462 0.0
C3000 C 0.94937 0.56798 0.91488 0.0
C3001 C 0.96525 0.58526 0.93143 0.0
C3002 C 0.96028 0.56681 0.90688 0.0
C3003 C 0.96389 0.55481 0.90192 0.0
C3004 C 0.9566 0.54376 0.9048 0.0
C3005 C 0.94591 0.5449 0.91316 0.0
C3006 C 0.9423 0.55691 0.9181 0.0
H3007 H 0.96805 0.59122 0.93979 0.0
H3008 H 0.9652 0.57496 0.93445 0.0
H3009 H 0.97271 0.58648 0.9238 0.0
H3010 H 0.96573 0.57525 0.90405 0.0
H3011 H 0.97216 0.5543 0.8955 0.0
H3012 H 0.735 0.28457 0.14601 0.0
H3013 H 0.7387 0.27595 0.1244 0.0
H3014 H 0.76483 0.24742 0.14003 0.0
H3015 H 0.7611 0.25587 0.16169 0.0
H3016 H 0.76222 0.27474 0.11153 0.0
H3017 H 0.74144 0.22591 0.11715 0.0
H3018 H 0.73812 0.23875 0.1284 0.0
H3019 H 0.75301 0.22979 0.12927 0.0
C3020 C 0.74145 0.27638 0.14488 0.0
C3021 C 0.74775 0.2709 0.15559 0.0
C3022 C 0.74354 0.27147 0.13252 0.0
C3023 C 0.75188 0.26093 0.13064 0.0
C3024 C 0.75812 0.25538 0.1413 0.0
H3025 H 0.78882 0.22276 0.06723 0.0
H3026 H 0.77982 0.22943 0.08799 0.0
C3027 C 0.75605 0.26028 0.15367 0.0
C3028 C 0.75473 0.2563 0.11743 0.0
H3029 H 0.75443 0.2296 0.09838 0.0
C3030 C 0.76038 0.26492 0.10859 0.0
C3031 C 0.75233 0.24348 0.11366 0.0
C3032 C 0.74578 0.23397 0.12257 0.0
C3033 C 0.76412 0.26094 0.09621 0.0
C3034 C 0.76192 0.24805 0.0925 0.0
C3035 C 0.75607 0.23948 0.10126 0.0
C3036 C 0.76631 0.24315 0.07981 0.0
C3037 C 0.77084 0.27043 0.08739 0.0
C3038 C 0.76139 0.24837 0.06831 0.0
C3039 C 0.76654 0.2446 0.05641 0.0
C3040 C 0.77667 0.23551 0.05582 0.0
C3041 C 0.7811 0.22984 0.06734 0.0
C3042 C 0.77595 0.23362 0.07922 0.0
H3043 H 0.77428 0.279 0.09268 0.0
H3044 H 0.77922 0.26582 0.08248 0.0
H3045 H 0.76402 0.27381 0.07988 0.0
H3046 H 0.75378 0.25557 0.06857 0.0
H3047 H 0.76285 0.24909 0.04771 0.0
H3048 H 0.94337 0.9141 0.6332 0.0
H3049 H 0.93943 0.92291 0.61164 0.0
H3050 H 0.91392 0.95166 0.62783 0.0
H3051 H 0.91791 0.94302 0.64945 0.0
H3052 H 0.91581 0.92447 0.59948 0.0
H3053 H 0.93711 0.97308 0.60401 0.0
H3054 H 0.94043 0.96015 0.6153 0.0
H3055 H 0.92564 0.96924 0.61649 0.0
C3056 C 0.93701 0.92238 0.6322 0.0
C3057 C 0.93095 0.92786 0.64306 0.0
C3058 C 0.93478 0.9274 0.61987 0.0
C3059 C 0.92654 0.93805 0.61815 0.0
C3060 C 0.92054 0.94361 0.62896 0.0
H3061 H 0.88935 0.97685 0.55511 0.0
H3062 H 0.89838 0.97002 0.57577 0.0
C3063 C 0.92276 0.93859 0.64131 0.0
C3064 C 0.92354 0.9428 0.60499 0.0
H3065 H 0.9239 0.96961 0.58563 0.0
C3066 C 0.91771 0.9343 0.59639 0.0
C3067 C 0.92601 0.95563 0.60101 0.0
C3068 C 0.93275 0.96503 0.60963 0.0
C3069 C 0.91389 0.93838 0.58406 0.0
C3070 C 0.91618 0.95126 0.58015 0.0
C3071 C 0.92219 0.95973 0.58866 0.0
C3072 C 0.91177 0.95625 0.56749 0.0
C3073 C 0.907 0.929 0.57551 0.0
C3074 C 0.91661 0.95105 0.55595 0.0
C3075 C 0.91145 0.95491 0.5441 0.0
C3076 C 0.90138 0.96407 0.5436 0.0
C3077 C 0.89703 0.96971 0.55515 0.0
C3078 C 0.90219 0.96585 0.56697 0.0
H3079 H 0.90353 0.92043 0.58098 0.0
H3080 H 0.89863 0.93371 0.57075 0.0
H3081 H 0.91373 0.92559 0.56788 0.0
H3082 H 0.92418 0.9438 0.55614 0.0
H3083 H 0.91509 0.95044 0.53539 0.0
H3084 H 0.94426 0.65147 0.75947 0.0
H3085 H 0.93935 0.63021 0.75083 0.0
H3086 H 0.9745 0.61492 0.76702 0.0
H3087 H 0.97941 0.63608 0.77587 0.0
H3088 H 0.9527 0.613 0.73436 0.0
H3089 H 0.94615 0.59274 0.78373 0.0
H3090 H 0.94718 0.60984 0.78059 0.0
H3091 H 0.96155 0.60004 0.78075 0.0
C3092 C 0.95103 0.64363 0.76108 0.0
C3093 C 0.96215 0.64543 0.76852 0.0
C3094 C 0.94821 0.63149 0.75611 0.0
C3095 C 0.95644 0.62095 0.75851 0.0
C3096 C 0.9679 0.62288 0.7653 0.0
H3097 H 0.9496 0.5441 0.72532 0.0
H3098 H 0.95701 0.56563 0.73106 0.0
C3099 C 0.97071 0.635 0.7703 0.0
C3100 C 0.95265 0.60784 0.7545 0.0
H3101 H 0.94451 0.57821 0.76643 0.0
C3102 C 0.95094 0.60537 0.74135 0.0
C3103 C 0.95018 0.59798 0.76368 0.0
C3104 C 0.95123 0.60026 0.77798 0.0
C3105 C 0.94688 0.59324 0.7371 0.0
C3106 C 0.94464 0.58331 0.74627 0.0
C3107 C 0.94632 0.58581 0.75942 0.0
C3108 C 0.94013 0.57035 0.74252 0.0
C3109 C 0.9447 0.59124 0.7229 0.0
C3110 C 0.92831 0.56577 0.74728 0.0
C3111 C 0.92409 0.55345 0.74411 0.0
C3112 C 0.93165 0.54543 0.73614 0.0
C3113 C 0.94352 0.55004 0.73142 0.0
C3114 C 0.94774 0.56238 0.73462 0.0
H3115 H 0.94384 0.60055 0.71758 0.0
H3116 H 0.953 0.58582 0.71877 0.0
H3117 H 0.93585 0.58555 0.72128 0.0
H3118 H 0.92232 0.57175 0.75345 0.0
H3119 H 0.91491 0.55021 0.74792 0.0
loop_
_geom_bond_atom_site_label_1
_geom_bond_atom_site_label_2
_geom_bond_distance
_geom_bond_site_symmetry_2
_ccdc_geom_bond_type
O0 Cd1 2.300 . S
O0 C7 1.275 . S
Cd1 O0 2.300 . S
Cd1 O9 2.381 . S
Cd1 O10 2.378 . S
O2 Cd3 2.385 . S
O2 C7 1.255 1_455 S
Cd3 O2 2.385 . S
Cd3 O4 2.317 . S
O4 Cd3 2.317 . S
O4 C5 1.232 . S
C5 O4 1.232 . S
C5 O6 1.218 . S
O6 C5 1.218 . S
C7 O0 1.275 . S
C7 O2 1.255 1_655 S
C8 O9 1.258 . S
C8 O10 1.256 . S
O9 Cd1 2.381 . S
O9 C8 1.258 . S
O10 Cd1 2.378 . S
O10 C8 1.256 . S
O11 Cd12 2.300 . S
O11 C18 1.275 . S
Cd12 O11 2.300 . S
Cd12 O20 2.381 . S
Cd12 O21 2.378 . S
O13 Cd14 2.385 . S
O13 C18 1.255 1_455 S
Cd14 O13 2.385 . S
Cd14 O15 2.317 . S
O15 Cd14 2.317 . S
O15 C16 1.232 . S
C16 O15 1.232 . S
C16 O17 1.218 . S
O17 C16 1.218 . S
C18 O11 1.275 . S
C18 O13 1.255 1_655 S
C19 O20 1.258 . S
C19 O21 1.256 . S
O20 Cd12 2.381 . S
O20 C19 1.258 . S
O21 Cd12 2.378 . S
O21 C19 1.256 . S
O22 Cd23 2.300 . S
O22 C29 1.275 . S
Cd23 O22 2.300 . S
Cd23 O31 2.381 . S
Cd23 O32 2.378 . S
O24 Cd25 2.385 . S
O24 C29 1.255 . S
Cd25 O24 2.385 . S
Cd25 O26 2.317 . S
O26 Cd25 2.317 . S
O26 C27 1.232 . S
C27 O26 1.232 . S
C27 O28 1.218 . S
O28 C27 1.218 . S
C29 O22 1.275 . S
C29 O24 1.255 . S
C30 O31 1.258 . S
C30 O32 1.256 . S
O31 Cd23 2.381 . S
O31 C30 1.258 . S
O32 Cd23 2.378 . S
O32 C30 1.256 . S
O33 Cd34 2.300 . S
O33 C40 1.275 . S
Cd34 O33 2.300 . S
Cd34 O42 2.381 . S
Cd34 O43 2.378 . S
O35 Cd36 2.385 . S
O35 C40 1.255 . S
Cd36 O35 2.385 . S
Cd36 O37 2.317 . S
O37 Cd36 2.317 . S
O37 C38 1.232 . S
C38 O37 1.232 . S
C38 O39 1.218 . S
O39 C38 1.218 . S
C40 O33 1.275 . S
C40 O35 1.255 . S
C41 O42 1.258 . S
C41 O43 1.256 . S
O42 Cd34 2.381 . S
O42 C41 1.258 . S
O43 Cd34 2.378 . S
O43 C41 1.256 . S
O44 Cd45 2.300 . S
O44 C51 1.275 . S
Cd45 O44 2.300 . S
Cd45 O53 2.381 . S
Cd45 O54 2.378 . S
O46 Cd47 2.385 . S
O46 C51 1.255 1_455 S
Cd47 O46 2.385 . S
Cd47 O48 2.317 . S
O48 Cd47 2.317 . S
O48 C49 1.232 . S
C49 O48 1.232 . S
C49 O50 1.218 . S
O50 C49 1.218 . S
C51 O44 1.275 . S
C51 O46 1.255 1_655 S
C52 O53 1.258 . S
C52 O54 1.256 . S
O53 Cd45 2.381 . S
O53 C52 1.258 . S
O54 Cd45 2.378 . S
O54 C52 1.256 . S
O55 Cd56 2.300 . S
O55 C62 1.275 . S
Cd56 O55 2.300 . S
Cd56 O64 2.381 . S
Cd56 O65 2.378 . S
O57 Cd58 2.385 . S
O57 C62 1.255 . S
Cd58 O57 2.385 . S
Cd58 O59 2.317 . S
O59 Cd58 2.317 . S
O59 C60 1.232 . S
C60 O59 1.232 . S
C60 O61 1.218 . S
O61 C60 1.218 . S
C62 O55 1.275 . S
C62 O57 1.255 . S
C63 O64 1.258 . S
C63 O65 1.256 . S
O64 Cd56 2.381 . S
O64 C63 1.258 . S
O65 Cd56 2.378 . S
O65 C63 1.256 . S
O66 Cd67 2.300 . S
O66 C73 1.275 . S
Cd67 O66 2.300 . S
Cd67 O75 2.381 . S
Cd67 O76 2.378 . S
O68 Cd69 2.385 . S
O68 C73 1.255 . S
Cd69 O68 2.385 . S
Cd69 O70 2.317 . S
O70 Cd69 2.317 . S
O70 C71 1.232 . S
C71 O70 1.232 . S
C71 O72 1.218 . S
O72 C71 1.218 . S
C73 O66 1.275 . S
C73 O68 1.255 . S
C74 O75 1.258 . S
C74 O76 1.256 . S
O75 Cd67 2.381 . S
O75 C74 1.258 . S
O76 Cd67 2.378 . S
O76 C74 1.256 . S
O77 Cd78 2.300 . S
O77 C84 1.275 . S
Cd78 O77 2.300 . S
Cd78 O86 2.381 . S
Cd78 O87 2.378 . S
O79 Cd80 2.385 . S
O79 C84 1.255 1_455 S
Cd80 O79 2.385 . S
Cd80 O81 2.317 . S
O81 Cd80 2.317 . S
O81 C82 1.232 . S
C82 O81 1.232 . S
C82 O83 1.218 . S
O83 C82 1.218 . S
C84 O77 1.275 . S
C84 O79 1.255 1_655 S
C85 O86 1.258 . S
C85 O87 1.256 . S
O86 Cd78 2.381 . S
O86 C85 1.258 . S
O87 Cd78 2.378 . S
O87 C85 1.256 . S
O88 Cd89 2.300 . S
O88 C95 1.275 . S
Cd89 O88 2.300 . S
Cd89 O97 2.381 . S
Cd89 O98 2.378 . S
O90 Cd91 2.385 . S
O90 C95 1.255 1_545 S
Cd91 O90 2.385 . S
Cd91 O92 2.317 . S
O92 Cd91 2.317 . S
O92 C93 1.232 . S
C93 O92 1.232 . S
C93 O94 1.218 . S
O94 C93 1.218 . S
C95 O88 1.275 . S
C95 O90 1.255 1_565 S
C96 O97 1.258 . S
C96 O98 1.256 . S
O97 Cd89 2.381 . S
O97 C96 1.258 . S
O98 Cd89 2.378 . S
O98 C96 1.256 . S
O99 Cd100 2.300 . S
O99 C106 1.275 . S
Cd100 O99 2.300 . S
Cd100 O108 2.381 . S
Cd100 O109 2.378 . S
O101 Cd102 2.385 . S
O101 C106 1.255 . S
Cd102 O101 2.385 . S
Cd102 O103 2.317 . S
O103 Cd102 2.317 . S
O103 C104 1.232 . S
C104 O103 1.232 . S
C104 O105 1.218 . S
O105 C104 1.218 . S
C106 O99 1.275 . S
C106 O101 1.255 . S
C107 O108 1.258 . S
C107 O109 1.256 . S
O108 Cd100 2.381 . S
O108 C107 1.258 . S
O109 Cd100 2.378 . S
O109 C107 1.256 . S
O110 Cd111 2.300 . S
O110 C117 1.275 . S
Cd111 O110 2.300 . S
Cd111 O119 2.381 . S
Cd111 O120 2.378 . S
O112 Cd113 2.385 . S
O112 C117 1.255 . S
Cd113 O112 2.385 . S
Cd113 O114 2.317 . S
O114 Cd113 2.317 . S
O114 C115 1.232 . S
C115 O114 1.232 . S
C115 O116 1.218 . S
O116 C115 1.218 . S
C117 O110 1.275 . S
C117 O112 1.255 . S
C118 O119 1.258 . S
C118 O120 1.256 . S
O119 Cd111 2.381 . S
O119 C118 1.258 . S
O120 Cd111 2.378 . S
O120 C118 1.256 . S
O121 Cd122 2.300 . S
O121 C128 1.275 . S
Cd122 O121 2.300 . S
Cd122 O130 2.381 . S
Cd122 O131 2.378 . S
O123 Cd124 2.385 . S
O123 C128 1.255 . S
Cd124 O123 2.385 . S
Cd124 O125 2.317 . S
O125 Cd124 2.317 . S
O125 C126 1.232 . S
C126 O125 1.232 . S
C126 O127 1.218 . S
O127 C126 1.218 . S
C128 O121 1.275 . S
C128 O123 1.255 . S
C129 O130 1.258 . S
C129 O131 1.256 . S
O130 Cd122 2.381 . S
O130 C129 1.258 . S
O131 Cd122 2.378 . S
O131 C129 1.256 . S
O132 Cd133 2.300 . S
O132 C139 1.275 . S
Cd133 O132 2.300 . S
Cd133 O141 2.381 . S
Cd133 O142 2.378 . S
O134 Cd135 2.385 . S
O134 C139 1.255 . S
Cd135 O134 2.385 . S
Cd135 O136 2.317 . S
O136 Cd135 2.317 . S
O136 C137 1.232 . S
C137 O136 1.232 . S
C137 O138 1.218 . S
O138 C137 1.218 . S
C139 O132 1.275 . S
C139 O134 1.255 . S
C140 O141 1.258 . S
C140 O142 1.256 . S
O141 Cd133 2.381 . S
O141 C140 1.258 . S
O142 Cd133 2.378 . S
O142 C140 1.256 . S
O143 Cd144 2.300 . S
O143 C150 1.275 . S
Cd144 O143 2.300 . S
Cd144 O152 2.381 . S
Cd144 O153 2.378 . S
O145 Cd146 2.385 . S
O145 C150 1.255 . S
Cd146 O145 2.385 . S
Cd146 O147 2.317 . S
O147 Cd146 2.317 . S
O147 C148 1.232 . S
C148 O147 1.232 . S
C148 O149 1.218 . S
O149 C148 1.218 . S
C150 O143 1.275 . S
C150 O145 1.255 . S
C151 O152 1.258 . S
C151 O153 1.256 . S
O152 Cd144 2.381 . S
O152 C151 1.258 . S
O153 Cd144 2.378 . S
O153 C151 1.256 . S
O154 Cd155 2.300 . S
O154 C161 1.275 . S
Cd155 O154 2.300 . S
Cd155 O163 2.381 . S
Cd155 O164 2.378 . S
O156 Cd157 2.385 . S
O156 C161 1.255 1_545 S
Cd157 O156 2.385 . S
Cd157 O158 2.317 . S
O158 Cd157 2.317 . S
O158 C159 1.232 . S
C159 O158 1.232 . S
C159 O160 1.218 . S
O160 C159 1.218 . S
C161 O154 1.275 . S
C161 O156 1.255 1_565 S
C162 O163 1.258 . S
C162 O164 1.256 . S
O163 Cd155 2.381 . S
O163 C162 1.258 . S
O164 Cd155 2.378 . S
O164 C162 1.256 . S
O165 Cd166 2.300 . S
O165 C172 1.275 . S
Cd166 O165 2.300 . S
Cd166 O174 2.381 . S
Cd166 O175 2.378 . S
O167 Cd168 2.385 . S
O167 C172 1.255 1_554 S
Cd168 O167 2.385 . S
Cd168 O169 2.317 . S
O169 Cd168 2.317 . S
O169 C170 1.232 . S
C170 O169 1.232 . S
C170 O171 1.218 . S
O171 C170 1.218 . S
C172 O165 1.275 . S
C172 O167 1.255 1_556 S
C173 O174 1.258 . S
C173 O175 1.256 . S
O174 Cd166 2.381 . S
O174 C173 1.258 . S
O175 Cd166 2.378 . S
O175 C173 1.256 . S
O176 Cd177 2.300 . S
O176 C183 1.275 . S
Cd177 O176 2.300 . S
Cd177 O185 2.381 . S
Cd177 O186 2.378 . S
O178 Cd179 2.385 . S
O178 C183 1.255 1_554 S
Cd179 O178 2.385 . S
Cd179 O180 2.317 . S
O180 Cd179 2.317 . S
O180 C181 1.232 . S
C181 O180 1.232 . S
C181 O182 1.218 . S
O182 C181 1.218 . S
C183 O176 1.275 . S
C183 O178 1.255 1_556 S
C184 O185 1.258 . S
C184 O186 1.256 . S
O185 Cd177 2.381 . S
O185 C184 1.258 . S
O186 Cd177 2.378 . S
O186 C184 1.256 . S
O187 Cd188 2.300 . S
O187 C194 1.275 . S
Cd188 O187 2.300 . S
Cd188 O196 2.381 . S
Cd188 O197 2.378 . S
O189 Cd190 2.385 . S
O189 C194 1.255 . S
Cd190 O189 2.385 . S
Cd190 O191 2.317 . S
O191 Cd190 2.317 . S
O191 C192 1.232 . S
C192 O191 1.232 . S
C192 O193 1.218 . S
O193 C192 1.218 . S
C194 O187 1.275 . S
C194 O189 1.255 . S
C195 O196 1.258 . S
C195 O197 1.256 . S
O196 Cd188 2.381 . S
O196 C195 1.258 . S
O197 Cd188 2.378 . S
O197 C195 1.256 . S
O198 Cd199 2.300 . S
O198 C205 1.275 . S
Cd199 O198 2.300 . S
Cd199 O207 2.381 . S
Cd199 O208 2.378 . S
O200 Cd201 2.385 . S
O200 C205 1.255 . S
Cd201 O200 2.385 . S
Cd201 O202 2.317 . S
O202 Cd201 2.317 . S
O202 C203 1.232 . S
C203 O202 1.232 . S
C203 O204 1.218 . S
O204 C203 1.218 . S
C205 O198 1.275 . S
C205 O200 1.255 . S
C206 O207 1.258 . S
C206 O208 1.256 . S
O207 Cd199 2.381 . S
O207 C206 1.258 . S
O208 Cd199 2.378 . S
O208 C206 1.256 . S
O209 Cd210 2.300 . S
O209 C216 1.275 . S
Cd210 O209 2.300 . S
Cd210 O218 2.381 . S
Cd210 O219 2.378 . S
O211 Cd212 2.385 . S
O211 C216 1.255 . S
Cd212 O211 2.385 . S
Cd212 O213 2.317 . S
O213 Cd212 2.317 . S
O213 C214 1.232 . S
C214 O213 1.232 . S
C214 O215 1.218 . S
O215 C214 1.218 . S
C216 O209 1.275 . S
C216 O211 1.255 . S
C217 O218 1.258 . S
C217 O219 1.256 . S
O218 Cd210 2.381 . S
O218 C217 1.258 . S
O219 Cd210 2.378 . S
O219 C217 1.256 . S
O220 Cd221 2.300 . S
O220 C227 1.275 . S
Cd221 O220 2.300 . S
Cd221 O229 2.381 . S
Cd221 O230 2.378 . S
O222 Cd223 2.385 . S
O222 C227 1.255 1_545 S
Cd223 O222 2.385 . S
Cd223 O224 2.317 . S
O224 Cd223 2.317 . S
O224 C225 1.232 . S
C225 O224 1.232 . S
C225 O226 1.218 . S
O226 C225 1.218 . S
C227 O220 1.275 . S
C227 O222 1.255 1_565 S
C228 O229 1.258 . S
C228 O230 1.256 . S
O229 Cd221 2.381 . S
O229 C228 1.258 . S
O230 Cd221 2.378 . S
O230 C228 1.256 . S
O231 Cd232 2.300 . S
O231 C238 1.275 . S
Cd232 O231 2.300 . S
Cd232 O240 2.381 . S
Cd232 O241 2.378 . S
O233 Cd234 2.385 . S
O233 C238 1.255 . S
Cd234 O233 2.385 . S
Cd234 O235 2.317 . S
O235 Cd234 2.317 . S
O235 C236 1.232 . S
C236 O235 1.232 . S
C236 O237 1.218 . S
O237 C236 1.218 . S
C238 O231 1.275 . S
C238 O233 1.255 . S
C239 O240 1.258 . S
C239 O241 1.256 . S
O240 Cd232 2.381 . S
O240 C239 1.258 . S
O241 Cd232 2.378 . S
O241 C239 1.256 . S
O242 Cd243 2.300 . S
O242 C249 1.275 . S
Cd243 O242 2.300 . S
Cd243 O251 2.381 . S
Cd243 O252 2.378 . S
O244 Cd245 2.385 . S
O244 C249 1.255 . S
Cd245 O244 2.385 . S
Cd245 O246 2.317 . S
O246 Cd245 2.317 . S
O246 C247 1.232 . S
C247 O246 1.232 . S
C247 O248 1.218 . S
O248 C247 1.218 . S
C249 O242 1.275 . S
C249 O244 1.255 . S
C250 O251 1.258 . S
C250 O252 1.256 . S
O251 Cd243 2.381 . S
O251 C250 1.258 . S
O252 Cd243 2.378 . S
O252 C250 1.256 . S
O253 Cd254 2.300 . S
O253 C260 1.275 . S
Cd254 O253 2.300 . S
Cd254 O262 2.381 . S
Cd254 O263 2.378 . S
O255 Cd256 2.385 . S
O255 C260 1.255 . S
Cd256 O255 2.385 . S
Cd256 O257 2.317 . S
O257 Cd256 2.317 . S
O257 C258 1.232 . S
C258 O257 1.232 . S
C258 O259 1.218 . S
O259 C258 1.218 . S
C260 O253 1.275 . S
C260 O255 1.255 . S
C261 O262 1.258 . S
C261 O263 1.256 . S
O262 Cd254 2.381 . S
O262 C261 1.258 . S
O263 Cd254 2.378 . S
O263 C261 1.256 . S
O264 Cd265 2.300 . S
O264 C271 1.275 . S
Cd265 O264 2.300 . S
Cd265 O273 2.381 . S
Cd265 O274 2.378 . S
O266 Cd267 2.385 . S
O266 C271 1.255 . S
Cd267 O266 2.385 . S
Cd267 O268 2.317 . S
O268 Cd267 2.317 . S
O268 C269 1.232 . S
C269 O268 1.232 . S
C269 O270 1.218 . S
O270 C269 1.218 . S
C271 O264 1.275 . S
C271 O266 1.255 . S
C272 O273 1.258 . S
C272 O274 1.256 . S
O273 Cd265 2.381 . S
O273 C272 1.258 . S
O274 Cd265 2.378 . S
O274 C272 1.256 . S
O275 Cd276 2.300 . S
O275 C282 1.275 . S
Cd276 O275 2.300 . S
Cd276 O284 2.381 . S
Cd276 O285 2.378 . S
O277 Cd278 2.385 . S
O277 C282 1.255 . S
Cd278 O277 2.385 . S
Cd278 O279 2.317 . S
O279 Cd278 2.317 . S
O279 C280 1.232 . S
C280 O279 1.232 . S
C280 O281 1.218 . S
O281 C280 1.218 . S
C282 O275 1.275 . S
C282 O277 1.255 . S
C283 O284 1.258 . S
C283 O285 1.256 . S
O284 Cd276 2.381 . S
O284 C283 1.258 . S
O285 Cd276 2.378 . S
O285 C283 1.256 . S
O286 Cd287 2.300 . S
O286 C293 1.275 . S
Cd287 O286 2.300 . S
Cd287 O295 2.381 . S
Cd287 O296 2.378 . S
O288 Cd289 2.385 . S
O288 C293 1.255 . S
Cd289 O288 2.385 . S
Cd289 O290 2.317 . S
O290 Cd289 2.317 . S
O290 C291 1.232 . S
C291 O290 1.232 . S
C291 O292 1.218 . S
O292 C291 1.218 . S
C293 O286 1.275 . S
C293 O288 1.255 . S
C294 O295 1.258 . S
C294 O296 1.256 . S
O295 Cd287 2.381 . S
O295 C294 1.258 . S
O296 Cd287 2.378 . S
O296 C294 1.256 . S
O297 Cd298 2.300 . S
O297 C304 1.275 . S
Cd298 O297 2.300 . S
Cd298 O306 2.381 . S
Cd298 O307 2.378 . S
O299 Cd300 2.385 . S
O299 C304 1.255 . S
Cd300 O299 2.385 . S
Cd300 O301 2.317 . S
O301 Cd300 2.317 . S
O301 C302 1.232 . S
C302 O301 1.232 . S
C302 O303 1.218 . S
O303 C302 1.218 . S
C304 O297 1.275 . S
C304 O299 1.255 . S
C305 O306 1.258 . S
C305 O307 1.256 . S
O306 Cd298 2.381 . S
O306 C305 1.258 . S
O307 Cd298 2.378 . S
O307 C305 1.256 . S
O308 Cd309 2.300 . S
O308 C315 1.275 . S
Cd309 O308 2.300 . S
Cd309 O317 2.381 . S
Cd309 O318 2.378 . S
O310 Cd311 2.385 . S
O310 C315 1.255 . S
Cd311 O310 2.385 . S
Cd311 O312 2.317 . S
O312 Cd311 2.317 . S
O312 C313 1.232 . S
C313 O312 1.232 . S
C313 O314 1.218 . S
O314 C313 1.218 . S
C315 O308 1.275 . S
C315 O310 1.255 . S
C316 O317 1.258 . S
C316 O318 1.256 . S
O317 Cd309 2.381 . S
O317 C316 1.258 . S
O318 Cd309 2.378 . S
O318 C316 1.256 . S
O319 Cd320 2.300 . S
O319 C326 1.275 . S
Cd320 O319 2.300 . S
Cd320 O328 2.381 . S
Cd320 O329 2.378 . S
O321 Cd322 2.385 . S
O321 C326 1.255 . S
Cd322 O321 2.385 . S
Cd322 O323 2.317 . S
O323 Cd322 2.317 . S
O323 C324 1.232 . S
C324 O323 1.232 . S
C324 O325 1.218 . S
O325 C324 1.218 . S
C326 O319 1.275 . S
C326 O321 1.255 . S
C327 O328 1.258 . S
C327 O329 1.256 . S
O328 Cd320 2.381 . S
O328 C327 1.258 . S
O329 Cd320 2.378 . S
O329 C327 1.256 . S
O330 Cd331 2.300 . S
O330 C337 1.275 . S
Cd331 O330 2.300 . S
Cd331 O339 2.381 . S
Cd331 O340 2.378 . S
O332 Cd333 2.385 . S
O332 C337 1.255 . S
Cd333 O332 2.385 . S
Cd333 O334 2.317 . S
O334 Cd333 2.317 . S
O334 C335 1.232 . S
C335 O334 1.232 . S
C335 O336 1.218 . S
O336 C335 1.218 . S
C337 O330 1.275 . S
C337 O332 1.255 . S
C338 O339 1.258 . S
C338 O340 1.256 . S
O339 Cd331 2.381 . S
O339 C338 1.258 . S
O340 Cd331 2.378 . S
O340 C338 1.256 . S
O341 Cd342 2.300 . S
O341 C348 1.275 . S
Cd342 O341 2.300 . S
Cd342 O350 2.381 . S
Cd342 O351 2.378 . S
O343 Cd344 2.385 . S
O343 C348 1.255 . S
Cd344 O343 2.385 . S
Cd344 O345 2.317 . S
O345 Cd344 2.317 . S
O345 C346 1.232 . S
C346 O345 1.232 . S
C346 O347 1.218 . S
O347 C346 1.218 . S
C348 O341 1.275 . S
C348 O343 1.255 . S
C349 O350 1.258 . S
C349 O351 1.256 . S
O350 Cd342 2.381 . S
O350 C349 1.258 . S
O351 Cd342 2.378 . S
O351 C349 1.256 . S
O352 Cd353 2.300 . S
O352 C359 1.275 . S
Cd353 O352 2.300 . S
Cd353 O361 2.381 . S
Cd353 O362 2.378 . S
O354 Cd355 2.385 . S
O354 C359 1.255 . S
Cd355 O354 2.385 . S
Cd355 O356 2.317 . S
O356 Cd355 2.317 . S
O356 C357 1.232 . S
C357 O356 1.232 . S
C357 O358 1.218 . S
O358 C357 1.218 . S
C359 O352 1.275 . S
C359 O354 1.255 . S
C360 O361 1.258 . S
C360 O362 1.256 . S
O361 Cd353 2.381 . S
O361 C360 1.258 . S
O362 Cd353 2.378 . S
O362 C360 1.256 . S
O363 Cd364 2.300 . S
O363 C370 1.275 . S
Cd364 O363 2.300 . S
Cd364 O372 2.381 . S
Cd364 O373 2.378 . S
O365 Cd366 2.385 . S
O365 C370 1.255 . S
Cd366 O365 2.385 . S
Cd366 O367 2.317 . S
O367 Cd366 2.317 . S
O367 C368 1.232 . S
C368 O367 1.232 . S
C368 O369 1.218 . S
O369 C368 1.218 . S
C370 O363 1.275 . S
C370 O365 1.255 . S
C371 O372 1.258 . S
C371 O373 1.256 . S
O372 Cd364 2.381 . S
O372 C371 1.258 . S
O373 Cd364 2.378 . S
O373 C371 1.256 . S
O374 Cd375 2.300 . S
O374 C381 1.275 . S
Cd375 O374 2.300 . S
Cd375 O383 2.381 . S
Cd375 O384 2.378 . S
O376 Cd377 2.385 . S
O376 C381 1.255 . S
Cd377 O376 2.385 . S
Cd377 O378 2.317 . S
O378 Cd377 2.317 . S
O378 C379 1.232 . S
C379 O378 1.232 . S
C379 O380 1.218 . S
O380 C379 1.218 . S
C381 O374 1.275 . S
C381 O376 1.255 . S
C382 O383 1.258 . S
C382 O384 1.256 . S
O383 Cd375 2.381 . S
O383 C382 1.258 . S
O384 Cd375 2.378 . S
O384 C382 1.256 . S
O385 Cd386 2.300 . S
O385 C392 1.275 . S
Cd386 O385 2.300 . S
Cd386 O394 2.381 . S
Cd386 O395 2.378 . S
O387 Cd388 2.385 . S
O387 C392 1.255 . S
Cd388 O387 2.385 . S
Cd388 O389 2.317 . S
O389 Cd388 2.317 . S
O389 C390 1.232 . S
C390 O389 1.232 . S
C390 O391 1.218 . S
O391 C390 1.218 . S
C392 O385 1.275 . S
C392 O387 1.255 . S
C393 O394 1.258 . S
C393 O395 1.256 . S
O394 Cd386 2.381 . S
O394 C393 1.258 . S
O395 Cd386 2.378 . S
O395 C393 1.256 . S
O396 Cd397 2.300 . S
O396 C403 1.275 . S
Cd397 O396 2.300 . S
Cd397 O405 2.381 . S
Cd397 O406 2.378 . S
O398 Cd399 2.385 . S
O398 C403 1.255 . S
Cd399 O398 2.385 . S
Cd399 O400 2.317 . S
O400 Cd399 2.317 . S
O400 C401 1.232 . S
C401 O400 1.232 . S
C401 O402 1.218 . S
O402 C401 1.218 . S
C403 O396 1.275 . S
C403 O398 1.255 . S
C404 O405 1.258 . S
C404 O406 1.256 . S
O405 Cd397 2.381 . S
O405 C404 1.258 . S
O406 Cd397 2.378 . S
O406 C404 1.256 . S
O407 Cd408 2.300 . S
O407 C414 1.275 . S
Cd408 O407 2.300 . S
Cd408 O416 2.381 . S
Cd408 O417 2.378 . S
O409 Cd410 2.385 . S
O409 C414 1.255 1_554 S
Cd410 O409 2.385 . S
Cd410 O411 2.317 . S
O411 Cd410 2.317 . S
O411 C412 1.232 . S
C412 O411 1.232 . S
C412 O413 1.218 . S
O413 C412 1.218 . S
C414 O407 1.275 . S
C414 O409 1.255 1_556 S
C415 O416 1.258 . S
C415 O417 1.256 . S
O416 Cd408 2.381 . S
O416 C415 1.258 . S
O417 Cd408 2.378 . S
O417 C415 1.256 . S
O418 Cd419 2.300 . S
O418 C425 1.275 . S
Cd419 O418 2.300 . S
Cd419 O427 2.381 . S
Cd419 O428 2.378 . S
O420 Cd421 2.385 . S
O420 C425 1.255 . S
Cd421 O420 2.385 . S
Cd421 O422 2.317 . S
O422 Cd421 2.317 . S
O422 C423 1.232 . S
C423 O422 1.232 . S
C423 O424 1.218 . S
O424 C423 1.218 . S
C425 O418 1.275 . S
C425 O420 1.255 . S
C426 O427 1.258 . S
C426 O428 1.256 . S
O427 Cd419 2.381 . S
O427 C426 1.258 . S
O428 Cd419 2.378 . S
O428 C426 1.256 . S
O429 Cd430 2.300 . S
O429 C436 1.275 . S
Cd430 O429 2.300 . S
Cd430 O438 2.381 . S
Cd430 O439 2.378 . S
O431 Cd432 2.385 . S
O431 C436 1.255 . S
Cd432 O431 2.385 . S
Cd432 O433 2.317 . S
O433 Cd432 2.317 . S
O433 C434 1.232 . S
C434 O433 1.232 . S
C434 O435 1.218 . S
O435 C434 1.218 . S
C436 O429 1.275 . S
C436 O431 1.255 . S
C437 O438 1.258 . S
C437 O439 1.256 . S
O438 Cd430 2.381 . S
O438 C437 1.258 . S
O439 Cd430 2.378 . S
O439 C437 1.256 . S
O440 Cd441 2.300 . S
O440 C447 1.275 . S
Cd441 O440 2.300 . S
Cd441 O449 2.381 . S
Cd441 O450 2.378 . S
O442 Cd443 2.385 . S
O442 C447 1.255 . S
Cd443 O442 2.385 . S
Cd443 O444 2.317 . S
O444 Cd443 2.317 . S
O444 C445 1.232 . S
C445 O444 1.232 . S
C445 O446 1.218 . S
O446 C445 1.218 . S
C447 O440 1.275 . S
C447 O442 1.255 . S
C448 O449 1.258 . S
C448 O450 1.256 . S
O449 Cd441 2.381 . S
O449 C448 1.258 . S
O450 Cd441 2.378 . S
O450 C448 1.256 . S
O451 Cd452 2.300 . S
O451 C458 1.275 . S
Cd452 O451 2.300 . S
Cd452 O460 2.381 . S
Cd452 O461 2.378 . S
O453 Cd454 2.385 . S
O453 C458 1.255 . S
Cd454 O453 2.385 . S
Cd454 O455 2.317 . S
O455 Cd454 2.317 . S
O455 C456 1.232 . S
C456 O455 1.232 . S
C456 O457 1.218 . S
O457 C456 1.218 . S
C458 O451 1.275 . S
C458 O453 1.255 . S
C459 O460 1.258 . S
C459 O461 1.256 . S
O460 Cd452 2.381 . S
O460 C459 1.258 . S
O461 Cd452 2.378 . S
O461 C459 1.256 . S
O462 Cd463 2.300 . S
O462 C469 1.275 . S
Cd463 O462 2.300 . S
Cd463 O471 2.381 . S
Cd463 O472 2.378 . S
O464 Cd465 2.385 . S
O464 C469 1.255 . S
Cd465 O464 2.385 . S
Cd465 O466 2.317 . S
O466 Cd465 2.317 . S
O466 C467 1.232 . S
C467 O466 1.232 . S
C467 O468 1.218 . S
O468 C467 1.218 . S
C469 O462 1.275 . S
C469 O464 1.255 . S
C470 O471 1.258 . S
C470 O472 1.256 . S
O471 Cd463 2.381 . S
O471 C470 1.258 . S
O472 Cd463 2.378 . S
O472 C470 1.256 . S
O473 Cd474 2.300 . S
O473 C480 1.275 . S
Cd474 O473 2.300 . S
Cd474 O482 2.381 . S
Cd474 O483 2.378 . S
O475 Cd476 2.385 . S
O475 C480 1.255 . S
Cd476 O475 2.385 . S
Cd476 O477 2.317 . S
O477 Cd476 2.317 . S
O477 C478 1.232 . S
C478 O477 1.232 . S
C478 O479 1.218 . S
O479 C478 1.218 . S
C480 O473 1.275 . S
C480 O475 1.255 . S
C481 O482 1.258 . S
C481 O483 1.256 . S
O482 Cd474 2.381 . S
O482 C481 1.258 . S
O483 Cd474 2.378 . S
O483 C481 1.256 . S
O484 Cd485 2.300 . S
O484 C491 1.275 . S
Cd485 O484 2.300 . S
Cd485 O493 2.381 . S
Cd485 O494 2.378 . S
O486 Cd487 2.385 . S
O486 C491 1.255 . S
Cd487 O486 2.385 . S
Cd487 O488 2.317 . S
O488 Cd487 2.317 . S
O488 C489 1.232 . S
C489 O488 1.232 . S
C489 O490 1.218 . S
O490 C489 1.218 . S
C491 O484 1.275 . S
C491 O486 1.255 . S
C492 O493 1.258 . S
C492 O494 1.256 . S
O493 Cd485 2.381 . S
O493 C492 1.258 . S
O494 Cd485 2.378 . S
O494 C492 1.256 . S
O495 Cd496 2.300 . S
O495 C502 1.275 . S
Cd496 O495 2.300 . S
Cd496 O504 2.381 . S
Cd496 O505 2.378 . S
O497 Cd498 2.385 . S
O497 C502 1.255 1_554 S
Cd498 O497 2.385 . S
Cd498 O499 2.317 . S
O499 Cd498 2.317 . S
O499 C500 1.232 . S
C500 O499 1.232 . S
C500 O501 1.218 . S
O501 C500 1.218 . S
C502 O495 1.275 . S
C502 O497 1.255 1_556 S
C503 O504 1.258 . S
C503 O505 1.256 . S
O504 Cd496 2.381 . S
O504 C503 1.258 . S
O505 Cd496 2.378 . S
O505 C503 1.256 . S
O506 Cd507 2.300 . S
O506 C513 1.275 . S
Cd507 O506 2.300 . S
Cd507 O515 2.381 . S
Cd507 O516 2.378 . S
O508 Cd509 2.385 . S
O508 C513 1.255 1_545 S
Cd509 O508 2.385 . S
Cd509 O510 2.317 . S
O510 Cd509 2.317 . S
O510 C511 1.232 . S
C511 O510 1.232 . S
C511 O512 1.218 . S
O512 C511 1.218 . S
C513 O506 1.275 . S
C513 O508 1.255 1_565 S
C514 O515 1.258 . S
C514 O516 1.256 . S
O515 Cd507 2.381 . S
O515 C514 1.258 . S
O516 Cd507 2.378 . S
O516 C514 1.256 . S
O517 Cd518 2.300 . S
O517 C524 1.275 . S
Cd518 O517 2.300 . S
Cd518 O526 2.381 . S
Cd518 O527 2.378 . S
O519 Cd520 2.385 . S
O519 C524 1.255 . S
Cd520 O519 2.385 . S
Cd520 O521 2.317 . S
O521 Cd520 2.317 . S
O521 C522 1.232 . S
C522 O521 1.232 . S
C522 O523 1.218 . S
O523 C522 1.218 . S
C524 O517 1.275 . S
C524 O519 1.255 . S
C525 O526 1.258 . S
C525 O527 1.256 . S
O526 Cd518 2.381 . S
O526 C525 1.258 . S
O527 Cd518 2.378 . S
O527 C525 1.256 . S
H528 C536 0.929 . S
H529 C538 0.930 . S
H530 C540 0.930 . S
H531 C543 0.929 . S
H532 C546 0.930 . S
H533 C548 0.960 . S
H534 C548 0.960 . S
H535 C548 0.960 . S
C536 H528 0.929 . S
C536 C537 1.377 . S
C536 C538 1.384 . S
C537 C536 1.377 . S
C537 C543 1.390 . S
C538 H529 0.930 . S
C538 C536 1.384 . S
C538 C539 1.372 . S
C539 C538 1.372 . S
C539 C540 1.400 . S
C539 C544 1.490 . S
C540 H530 0.930 . S
C540 C539 1.400 . S
C540 C543 1.386 . S
H541 C557 0.930 . S
H542 C558 0.931 . S
C543 H531 0.929 . S
C543 C537 1.390 . S
C543 C540 1.386 . S
C544 C539 1.490 . S
C544 C546 1.395 . S
C544 C547 1.403 . S
H545 C551 0.930 . S
C546 H532 0.930 . S
C546 C544 1.395 . S
C546 C549 1.403 . S
C547 C544 1.403 . S
C547 C548 1.524 . S
C547 C551 1.400 . S
C548 H533 0.960 . S
C548 H534 0.960 . S
C548 H535 0.960 . S
C548 C547 1.524 . S
C549 C546 1.403 . S
C549 C550 1.392 . S
C549 C553 1.495 . S
C550 C549 1.392 . S
C550 C551 1.385 . S
C550 C552 1.478 . S
C551 H545 0.930 . S
C551 C547 1.400 . S
C551 C550 1.385 . S
C552 C550 1.478 . S
C552 C554 1.381 . S
C552 C558 1.383 . S
C553 C549 1.495 . S
C553 H559 0.959 . S
C553 H560 0.961 . S
C553 H561 0.960 . S
C554 C552 1.381 . S
C554 C555 1.394 . S
C554 H562 0.930 . S
C555 C554 1.394 . S
C555 C556 1.383 . S
C555 H563 0.929 . S
C556 C555 1.383 . S
C556 C557 1.377 . S
C557 H541 0.930 . S
C557 C556 1.377 . S
C557 C558 1.379 . S
C558 H542 0.931 . S
C558 C552 1.383 . S
C558 C557 1.379 . S
H559 C553 0.959 . S
H560 C553 0.961 . S
H561 C553 0.960 . S
H562 C554 0.930 . S
H563 C555 0.929 . S
H564 C572 0.929 . S
H565 C574 0.930 . S
H566 C576 0.930 . S
H567 C579 0.929 . S
H568 C582 0.930 . S
H569 C584 0.960 . S
H570 C584 0.960 . S
H571 C584 0.960 . S
C572 H564 0.929 . S
C572 C573 1.377 . S
C572 C574 1.384 . S
C573 C572 1.377 . S
C573 C579 1.390 . S
C574 H565 0.930 . S
C574 C572 1.384 . S
C574 C575 1.372 . S
C575 C574 1.372 . S
C575 C576 1.400 . S
C575 C580 1.490 . S
C576 H566 0.930 . S
C576 C575 1.400 . S
C576 C579 1.386 . S
H577 C593 0.930 . S
H578 C594 0.931 . S
C579 H567 0.929 . S
C579 C573 1.390 . S
C579 C576 1.386 . S
C580 C575 1.490 . S
C580 C582 1.395 . S
C580 C583 1.403 . S
H581 C587 0.930 . S
C582 H568 0.930 . S
C582 C580 1.395 . S
C582 C585 1.403 . S
C583 C580 1.403 . S
C583 C584 1.524 . S
C583 C587 1.400 . S
C584 H569 0.960 . S
C584 H570 0.960 . S
C584 H571 0.960 . S
C584 C583 1.524 . S
C585 C582 1.403 . S
C585 C586 1.392 . S
C585 C589 1.495 . S
C586 C585 1.392 . S
C586 C587 1.385 . S
C586 C588 1.478 . S
C587 H581 0.930 . S
C587 C583 1.400 . S
C587 C586 1.385 . S
C588 C586 1.478 . S
C588 C590 1.381 . S
C588 C594 1.383 . S
C589 C585 1.495 . S
C589 H595 0.959 . S
C589 H596 0.961 . S
C589 H597 0.960 . S
C590 C588 1.381 . S
C590 C591 1.394 . S
C590 H598 0.930 . S
C591 C590 1.394 . S
C591 C592 1.383 . S
C591 H599 0.929 . S
C592 C591 1.383 . S
C592 C593 1.377 . S
C593 H577 0.930 . S
C593 C592 1.377 . S
C593 C594 1.379 . S
C594 H578 0.931 . S
C594 C588 1.383 . S
C594 C593 1.379 . S
H595 C589 0.959 . S
H596 C589 0.961 . S
H597 C589 0.960 . S
H598 C590 0.930 . S
H599 C591 0.929 . S
H600 C608 0.929 . S
H601 C610 0.930 . S
H602 C612 0.930 . S
H603 C615 0.929 . S
H604 C618 0.930 . S
H605 C620 0.960 . S
H606 C620 0.960 . S
H607 C620 0.960 . S
C608 H600 0.929 . S
C608 C609 1.377 . S
C608 C610 1.384 . S
C609 C608 1.377 . S
C609 C615 1.390 . S
C610 H601 0.930 . S
C610 C608 1.384 . S
C610 C611 1.372 . S
C611 C610 1.372 . S
C611 C612 1.400 . S
C611 C616 1.490 . S
C612 H602 0.930 . S
C612 C611 1.400 . S
C612 C615 1.386 . S
H613 C629 0.930 . S
H614 C630 0.931 . S
C615 H603 0.929 . S
C615 C609 1.390 . S
C615 C612 1.386 . S
C616 C611 1.490 . S
C616 C618 1.395 . S
C616 C619 1.403 . S
H617 C623 0.930 . S
C618 H604 0.930 . S
C618 C616 1.395 . S
C618 C621 1.403 . S
C619 C616 1.403 . S
C619 C620 1.524 . S
C619 C623 1.400 . S
C620 H605 0.960 . S
C620 H606 0.960 . S
C620 H607 0.960 . S
C620 C619 1.524 . S
C621 C618 1.403 . S
C621 C622 1.392 . S
C621 C625 1.495 . S
C622 C621 1.392 . S
C622 C623 1.385 . S
C622 C624 1.478 . S
C623 H617 0.930 . S
C623 C619 1.400 . S
C623 C622 1.385 . S
C624 C622 1.478 . S
C624 C626 1.381 . S
C624 C630 1.383 . S
C625 C621 1.495 . S
C625 H631 0.959 . S
C625 H632 0.961 . S
C625 H633 0.960 . S
C626 C624 1.381 . S
C626 C627 1.394 . S
C626 H634 0.930 . S
C627 C626 1.394 . S
C627 C628 1.383 . S
C627 H635 0.929 . S
C628 C627 1.383 . S
C628 C629 1.377 . S
C629 H613 0.930 . S
C629 C628 1.377 . S
C629 C630 1.379 . S
C630 H614 0.931 . S
C630 C624 1.383 . S
C630 C629 1.379 . S
H631 C625 0.959 . S
H632 C625 0.961 . S
H633 C625 0.960 . S
H634 C626 0.930 . S
H635 C627 0.929 . S
H636 C644 0.929 . S
H637 C646 0.930 . S
H638 C648 0.930 . S
H639 C651 0.929 . S
H640 C654 0.930 . S
H641 C656 0.960 . S
H642 C656 0.960 . S
H643 C656 0.960 . S
C644 H636 0.929 . S
C644 C645 1.377 . S
C644 C646 1.384 . S
C645 C644 1.377 . S
C645 C651 1.390 . S
C646 H637 0.930 . S
C646 C644 1.384 . S
C646 C647 1.372 . S
C647 C646 1.372 . S
C647 C648 1.400 . S
C647 C652 1.490 . S
C648 H638 0.930 . S
C648 C647 1.400 . S
C648 C651 1.386 . S
H649 C665 0.930 . S
H650 C666 0.931 . S
C651 H639 0.929 . S
C651 C645 1.390 . S
C651 C648 1.386 . S
C652 C647 1.490 . S
C652 C654 1.395 . S
C652 C655 1.403 . S
H653 C659 0.930 . S
C654 H640 0.930 . S
C654 C652 1.395 . S
C654 C657 1.403 . S
C655 C652 1.403 . S
C655 C656 1.524 . S
C655 C659 1.400 . S
C656 H641 0.960 . S
C656 H642 0.960 . S
C656 H643 0.960 . S
C656 C655 1.524 . S
C657 C654 1.403 . S
C657 C658 1.392 . S
C657 C661 1.495 . S
C658 C657 1.392 . S
C658 C659 1.385 . S
C658 C660 1.478 . S
C659 H653 0.930 . S
C659 C655 1.400 . S
C659 C658 1.385 . S
C660 C658 1.478 . S
C660 C662 1.381 . S
C660 C666 1.383 . S
C661 C657 1.495 . S
C661 H667 0.959 . S
C661 H668 0.961 . S
C661 H669 0.960 . S
C662 C660 1.381 . S
C662 C663 1.394 . S
C662 H670 0.930 . S
C663 C662 1.394 . S
C663 C664 1.383 . S
C663 H671 0.929 . S
C664 C663 1.383 . S
C664 C665 1.377 . S
C665 H649 0.930 . S
C665 C664 1.377 . S
C665 C666 1.379 . S
C666 H650 0.931 . S
C666 C660 1.383 . S
C666 C665 1.379 . S
H667 C661 0.959 . S
H668 C661 0.961 . S
H669 C661 0.960 . S
H670 C662 0.930 . S
H671 C663 0.929 . S
H672 C680 0.929 . S
H673 C682 0.930 . S
H674 C684 0.930 . S
H675 C687 0.929 . S
H676 C690 0.930 . S
H677 C692 0.960 . S
H678 C692 0.960 . S
H679 C692 0.960 . S
C680 H672 0.929 . S
C680 C681 1.377 . S
C680 C682 1.384 . S
C681 C680 1.377 . S
C681 C687 1.390 . S
C682 H673 0.930 . S
C682 C680 1.384 . S
C682 C683 1.372 . S
C683 C682 1.372 . S
C683 C684 1.400 . S
C683 C688 1.490 . S
C684 H674 0.930 . S
C684 C683 1.400 . S
C684 C687 1.386 . S
H685 C701 0.930 . S
H686 C702 0.931 . S
C687 H675 0.929 . S
C687 C681 1.390 . S
C687 C684 1.386 . S
C688 C683 1.490 . S
C688 C690 1.395 . S
C688 C691 1.403 . S
H689 C695 0.930 . S
C690 H676 0.930 . S
C690 C688 1.395 . S
C690 C693 1.403 . S
C691 C688 1.403 . S
C691 C692 1.524 . S
C691 C695 1.400 . S
C692 H677 0.960 . S
C692 H678 0.960 . S
C692 H679 0.960 . S
C692 C691 1.524 . S
C693 C690 1.403 . S
C693 C694 1.392 . S
C693 C697 1.495 . S
C694 C693 1.392 . S
C694 C695 1.385 . S
C694 C696 1.478 . S
C695 H689 0.930 . S
C695 C691 1.400 . S
C695 C694 1.385 . S
C696 C694 1.478 . S
C696 C698 1.381 . S
C696 C702 1.383 . S
C697 C693 1.495 . S
C697 H703 0.959 . S
C697 H704 0.961 . S
C697 H705 0.960 . S
C698 C696 1.381 . S
C698 C699 1.394 . S
C698 H706 0.930 . S
C699 C698 1.394 . S
C699 C700 1.383 . S
C699 H707 0.929 . S
C700 C699 1.383 . S
C700 C701 1.377 . S
C701 H685 0.930 . S
C701 C700 1.377 . S
C701 C702 1.379 . S
C702 H686 0.931 . S
C702 C696 1.383 . S
C702 C701 1.379 . S
H703 C697 0.959 . S
H704 C697 0.961 . S
H705 C697 0.960 . S
H706 C698 0.930 . S
H707 C699 0.929 . S
H708 C716 0.929 . S
H709 C718 0.930 . S
H710 C720 0.930 . S
H711 C723 0.929 . S
H712 C726 0.930 . S
H713 C728 0.960 . S
H714 C728 0.960 . S
H715 C728 0.960 . S
C716 H708 0.929 . S
C716 C717 1.377 . S
C716 C718 1.384 . S
C717 C716 1.377 . S
C717 C723 1.390 . S
C718 H709 0.930 . S
C718 C716 1.384 . S
C718 C719 1.372 . S
C719 C718 1.372 . S
C719 C720 1.400 . S
C719 C724 1.490 . S
C720 H710 0.930 . S
C720 C719 1.400 . S
C720 C723 1.386 . S
H721 C737 0.930 . S
H722 C738 0.931 . S
C723 H711 0.929 . S
C723 C717 1.390 . S
C723 C720 1.386 . S
C724 C719 1.490 . S
C724 C726 1.395 . S
C724 C727 1.403 . S
H725 C731 0.930 . S
C726 H712 0.930 . S
C726 C724 1.395 . S
C726 C729 1.403 . S
C727 C724 1.403 . S
C727 C728 1.524 . S
C727 C731 1.400 . S
C728 H713 0.960 . S
C728 H714 0.960 . S
C728 H715 0.960 . S
C728 C727 1.524 . S
C729 C726 1.403 . S
C729 C730 1.392 . S
C729 C733 1.495 . S
C730 C729 1.392 . S
C730 C731 1.385 . S
C730 C732 1.478 . S
C731 H725 0.930 . S
C731 C727 1.400 . S
C731 C730 1.385 . S
C732 C730 1.478 . S
C732 C734 1.381 . S
C732 C738 1.383 . S
C733 C729 1.495 . S
C733 H739 0.959 . S
C733 H740 0.961 . S
C733 H741 0.960 . S
C734 C732 1.381 . S
C734 C735 1.394 . S
C734 H742 0.930 . S
C735 C734 1.394 . S
C735 C736 1.383 . S
C735 H743 0.929 . S
C736 C735 1.383 . S
C736 C737 1.377 . S
C737 H721 0.930 . S
C737 C736 1.377 . S
C737 C738 1.379 . S
C738 H722 0.931 . S
C738 C732 1.383 . S
C738 C737 1.379 . S
H739 C733 0.959 . S
H740 C733 0.961 . S
H741 C733 0.960 . S
H742 C734 0.930 . S
H743 C735 0.929 . S
H744 C752 0.929 . S
H745 C754 0.930 . S
H746 C756 0.930 . S
H747 C759 0.929 . S
H748 C762 0.930 . S
H749 C764 0.960 . S
H750 C764 0.960 . S
H751 C764 0.960 . S
C752 H744 0.929 . S
C752 C753 1.377 . S
C752 C754 1.384 . S
C753 C752 1.377 . S
C753 C759 1.390 . S
C754 H745 0.930 . S
C754 C752 1.384 . S
C754 C755 1.372 . S
C755 C754 1.372 . S
C755 C756 1.400 . S
C755 C760 1.490 . S
C756 H746 0.930 . S
C756 C755 1.400 . S
C756 C759 1.386 . S
H757 C773 0.930 . S
H758 C774 0.931 . S
C759 H747 0.929 . S
C759 C753 1.390 . S
C759 C756 1.386 . S
C760 C755 1.490 . S
C760 C762 1.395 . S
C760 C763 1.403 . S
H761 C767 0.930 . S
C762 H748 0.930 . S
C762 C760 1.395 . S
C762 C765 1.403 . S
C763 C760 1.403 . S
C763 C764 1.524 . S
C763 C767 1.400 . S
C764 H749 0.960 . S
C764 H750 0.960 . S
C764 H751 0.960 . S
C764 C763 1.524 . S
C765 C762 1.403 . S
C765 C766 1.392 . S
C765 C769 1.495 . S
C766 C765 1.392 . S
C766 C767 1.385 . S
C766 C768 1.478 . S
C767 H761 0.930 . S
C767 C763 1.400 . S
C767 C766 1.385 . S
C768 C766 1.478 . S
C768 C770 1.381 . S
C768 C774 1.383 . S
C769 C765 1.495 . S
C769 H775 0.959 . S
C769 H776 0.961 . S
C769 H777 0.960 . S
C770 C768 1.381 . S
C770 C771 1.394 . S
C770 H778 0.930 . S
C771 C770 1.394 . S
C771 C772 1.383 . S
C771 H779 0.929 . S
C772 C771 1.383 . S
C772 C773 1.377 . S
C773 H757 0.930 . S
C773 C772 1.377 . S
C773 C774 1.379 . S
C774 H758 0.931 . S
C774 C768 1.383 . S
C774 C773 1.379 . S
H775 C769 0.959 . S
H776 C769 0.961 . S
H777 C769 0.960 . S
H778 C770 0.930 . S
H779 C771 0.929 . S
H780 C788 0.929 . S
H781 C790 0.930 . S
H782 C792 0.930 . S
H783 C795 0.929 . S
H784 C798 0.930 . S
H785 C800 0.960 . S
H786 C800 0.960 . S
H787 C800 0.960 . S
C788 H780 0.929 . S
C788 C789 1.377 . S
C788 C790 1.384 . S
C789 C788 1.377 . S
C789 C795 1.390 . S
C790 H781 0.930 . S
C790 C788 1.384 . S
C790 C791 1.372 . S
C791 C790 1.372 . S
C791 C792 1.400 . S
C791 C796 1.490 . S
C792 H782 0.930 . S
C792 C791 1.400 . S
C792 C795 1.386 . S
H793 C809 0.930 . S
H794 C810 0.931 . S
C795 H783 0.929 . S
C795 C789 1.390 . S
C795 C792 1.386 . S
C796 C791 1.490 . S
C796 C798 1.395 . S
C796 C799 1.403 . S
H797 C803 0.930 . S
C798 H784 0.930 . S
C798 C796 1.395 . S
C798 C801 1.403 . S
C799 C796 1.403 . S
C799 C800 1.524 . S
C799 C803 1.400 . S
C800 H785 0.960 . S
C800 H786 0.960 . S
C800 H787 0.960 . S
C800 C799 1.524 . S
C801 C798 1.403 . S
C801 C802 1.392 . S
C801 C805 1.495 . S
C802 C801 1.392 . S
C802 C803 1.385 . S
C802 C804 1.478 . S
C803 H797 0.930 . S
C803 C799 1.400 . S
C803 C802 1.385 . S
C804 C802 1.478 . S
C804 C806 1.381 . S
C804 C810 1.383 . S
C805 C801 1.495 . S
C805 H811 0.959 . S
C805 H812 0.961 . S
C805 H813 0.960 . S
C806 C804 1.381 . S
C806 C807 1.394 . S
C806 H814 0.930 . S
C807 C806 1.394 . S
C807 C808 1.383 . S
C807 H815 0.929 . S
C808 C807 1.383 . S
C808 C809 1.377 . S
C809 H793 0.930 . S
C809 C808 1.377 . S
C809 C810 1.379 . S
C810 H794 0.931 . S
C810 C804 1.383 . S
C810 C809 1.379 . S
H811 C805 0.959 . S
H812 C805 0.961 . S
H813 C805 0.960 . S
H814 C806 0.930 . S
H815 C807 0.929 . S
H816 C824 0.929 . S
H817 C826 0.930 . S
H818 C828 0.930 . S
H819 C831 0.929 . S
H820 C834 0.930 . S
H821 C836 0.960 . S
H822 C836 0.960 . S
H823 C836 0.960 . S
C824 H816 0.929 . S
C824 C825 1.377 . S
C824 C826 1.384 . S
C825 C824 1.377 . S
C825 C831 1.390 . S
C826 H817 0.930 . S
C826 C824 1.384 . S
C826 C827 1.372 . S
C827 C826 1.372 . S
C827 C828 1.400 . S
C827 C832 1.490 . S
C828 H818 0.930 . S
C828 C827 1.400 . S
C828 C831 1.386 . S
H829 C845 0.930 . S
H830 C846 0.931 . S
C831 H819 0.929 . S
C831 C825 1.390 . S
C831 C828 1.386 . S
C832 C827 1.490 . S
C832 C834 1.395 . S
C832 C835 1.403 . S
H833 C839 0.930 . S
C834 H820 0.930 . S
C834 C832 1.395 . S
C834 C837 1.403 . S
C835 C832 1.403 . S
C835 C836 1.524 . S
C835 C839 1.400 . S
C836 H821 0.960 . S
C836 H822 0.960 . S
C836 H823 0.960 . S
C836 C835 1.524 . S
C837 C834 1.403 . S
C837 C838 1.392 . S
C837 C841 1.495 . S
C838 C837 1.392 . S
C838 C839 1.385 . S
C838 C840 1.478 . S
C839 H833 0.930 . S
C839 C835 1.400 . S
C839 C838 1.385 . S
C840 C838 1.478 . S
C840 C842 1.381 . S
C840 C846 1.383 . S
C841 C837 1.495 . S
C841 H847 0.959 . S
C841 H848 0.961 . S
C841 H849 0.960 . S
C842 C840 1.381 . S
C842 C843 1.394 . S
C842 H850 0.930 . S
C843 C842 1.394 . S
C843 C844 1.383 . S
C843 H851 0.929 . S
C844 C843 1.383 . S
C844 C845 1.377 . S
C845 H829 0.930 . S
C845 C844 1.377 . S
C845 C846 1.379 . S
C846 H830 0.931 . S
C846 C840 1.383 . S
C846 C845 1.379 . S
H847 C841 0.959 . S
H848 C841 0.961 . S
H849 C841 0.960 . S
H850 C842 0.930 . S
H851 C843 0.929 . S
H852 C860 0.929 . S
H853 C862 0.930 . S
H854 C864 0.930 . S
H855 C867 0.929 . S
H856 C870 0.930 . S
H857 C872 0.960 . S
H858 C872 0.960 . S
H859 C872 0.960 . S
C860 H852 0.929 . S
C860 C861 1.377 . S
C860 C862 1.384 . S
C861 C860 1.377 . S
C861 C867 1.390 . S
C862 H853 0.930 . S
C862 C860 1.384 . S
C862 C863 1.372 . S
C863 C862 1.372 . S
C863 C864 1.400 . S
C863 C868 1.490 . S
C864 H854 0.930 . S
C864 C863 1.400 . S
C864 C867 1.386 . S
H865 C881 0.930 . S
H866 C882 0.931 . S
C867 H855 0.929 . S
C867 C861 1.390 . S
C867 C864 1.386 . S
C868 C863 1.490 . S
C868 C870 1.395 . S
C868 C871 1.403 . S
H869 C875 0.930 . S
C870 H856 0.930 . S
C870 C868 1.395 . S
C870 C873 1.403 . S
C871 C868 1.403 . S
C871 C872 1.524 . S
C871 C875 1.400 . S
C872 H857 0.960 . S
C872 H858 0.960 . S
C872 H859 0.960 . S
C872 C871 1.524 . S
C873 C870 1.403 . S
C873 C874 1.392 . S
C873 C877 1.495 . S
C874 C873 1.392 . S
C874 C875 1.385 . S
C874 C876 1.478 . S
C875 H869 0.930 . S
C875 C871 1.400 . S
C875 C874 1.385 . S
C876 C874 1.478 . S
C876 C878 1.381 . S
C876 C882 1.383 . S
C877 C873 1.495 . S
C877 H883 0.959 . S
C877 H884 0.961 . S
C877 H885 0.960 . S
C878 C876 1.381 . S
C878 C879 1.394 . S
C878 H886 0.930 . S
C879 C878 1.394 . S
C879 C880 1.383 . S
C879 H887 0.929 . S
C880 C879 1.383 . S
C880 C881 1.377 . S
C881 H865 0.930 . S
C881 C880 1.377 . S
C881 C882 1.379 . S
C882 H866 0.931 . S
C882 C876 1.383 . S
C882 C881 1.379 . S
H883 C877 0.959 . S
H884 C877 0.961 . S
H885 C877 0.960 . S
H886 C878 0.930 . S
H887 C879 0.929 . S
H888 C896 0.929 . S
H889 C898 0.930 . S
H890 C900 0.930 . S
H891 C903 0.929 . S
H892 C906 0.930 . S
H893 C908 0.960 . S
H894 C908 0.960 . S
H895 C908 0.960 . S
C896 H888 0.929 . S
C896 C897 1.377 . S
C896 C898 1.384 . S
C897 C896 1.377 . S
C897 C903 1.390 . S
C898 H889 0.930 . S
C898 C896 1.384 . S
C898 C899 1.372 . S
C899 C898 1.372 . S
C899 C900 1.400 . S
C899 C904 1.490 . S
C900 H890 0.930 . S
C900 C899 1.400 . S
C900 C903 1.386 . S
H901 C917 0.930 . S
H902 C918 0.931 . S
C903 H891 0.929 . S
C903 C897 1.390 . S
C903 C900 1.386 . S
C904 C899 1.490 . S
C904 C906 1.395 . S
C904 C907 1.403 . S
H905 C911 0.930 . S
C906 H892 0.930 . S
C906 C904 1.395 . S
C906 C909 1.403 . S
C907 C904 1.403 . S
C907 C908 1.524 . S
C907 C911 1.400 . S
C908 H893 0.960 . S
C908 H894 0.960 . S
C908 H895 0.960 . S
C908 C907 1.524 . S
C909 C906 1.403 . S
C909 C910 1.392 . S
C909 C913 1.495 . S
C910 C909 1.392 . S
C910 C911 1.385 . S
C910 C912 1.478 . S
C911 H905 0.930 . S
C911 C907 1.400 . S
C911 C910 1.385 . S
C912 C910 1.478 . S
C912 C914 1.381 . S
C912 C918 1.383 . S
C913 C909 1.495 . S
C913 H919 0.959 . S
C913 H920 0.961 . S
C913 H921 0.960 . S
C914 C912 1.381 . S
C914 C915 1.394 . S
C914 H922 0.930 . S
C915 C914 1.394 . S
C915 C916 1.383 . S
C915 H923 0.929 . S
C916 C915 1.383 . S
C916 C917 1.377 . S
C917 H901 0.930 . S
C917 C916 1.377 . S
C917 C918 1.379 . S
C918 H902 0.931 . S
C918 C912 1.383 . S
C918 C917 1.379 . S
H919 C913 0.959 . S
H920 C913 0.961 . S
H921 C913 0.960 . S
H922 C914 0.930 . S
H923 C915 0.929 . S
H924 C932 0.929 . S
H925 C934 0.930 . S
H926 C936 0.930 . S
H927 C939 0.929 . S
H928 C942 0.930 . S
H929 C944 0.960 . S
H930 C944 0.960 . S
H931 C944 0.960 . S
C932 H924 0.929 . S
C932 C933 1.377 . S
C932 C934 1.384 . S
C933 C932 1.377 . S
C933 C939 1.390 . S
C934 H925 0.930 . S
C934 C932 1.384 . S
C934 C935 1.372 . S
C935 C934 1.372 . S
C935 C936 1.400 . S
C935 C940 1.490 . S
C936 H926 0.930 . S
C936 C935 1.400 . S
C936 C939 1.386 . S
H937 C953 0.930 . S
H938 C954 0.931 . S
C939 H927 0.929 . S
C939 C933 1.390 . S
C939 C936 1.386 . S
C940 C935 1.490 . S
C940 C942 1.395 . S
C940 C943 1.403 . S
H941 C947 0.930 . S
C942 H928 0.930 . S
C942 C940 1.395 . S
C942 C945 1.403 . S
C943 C940 1.403 . S
C943 C944 1.524 . S
C943 C947 1.400 . S
C944 H929 0.960 . S
C944 H930 0.960 . S
C944 H931 0.960 . S
C944 C943 1.524 . S
C945 C942 1.403 . S
C945 C946 1.392 . S
C945 C949 1.495 . S
C946 C945 1.392 . S
C946 C947 1.385 . S
C946 C948 1.478 . S
C947 H941 0.930 . S
C947 C943 1.400 . S
C947 C946 1.385 . S
C948 C946 1.478 . S
C948 C950 1.381 . S
C948 C954 1.383 . S
C949 C945 1.495 . S
C949 H955 0.959 . S
C949 H956 0.961 . S
C949 H957 0.960 . S
C950 C948 1.381 . S
C950 C951 1.394 . S
C950 H958 0.930 . S
C951 C950 1.394 . S
C951 C952 1.383 . S
C951 H959 0.929 . S
C952 C951 1.383 . S
C952 C953 1.377 . S
C953 H937 0.930 . S
C953 C952 1.377 . S
C953 C954 1.379 . S
C954 H938 0.931 . S
C954 C948 1.383 . S
C954 C953 1.379 . S
H955 C949 0.959 . S
H956 C949 0.961 . S
H957 C949 0.960 . S
H958 C950 0.930 . S
H959 C951 0.929 . S
H960 C968 0.929 . S
H961 C970 0.930 . S
H962 C972 0.930 . S
H963 C975 0.929 . S
H964 C978 0.930 . S
H965 C980 0.960 . S
H966 C980 0.960 . S
H967 C980 0.960 . S
C968 H960 0.929 . S
C968 C969 1.377 . S
C968 C970 1.384 . S
C969 C968 1.377 . S
C969 C975 1.390 . S
C970 H961 0.930 . S
C970 C968 1.384 . S
C970 C971 1.372 . S
C971 C970 1.372 . S
C971 C972 1.400 . S
C971 C976 1.490 . S
C972 H962 0.930 . S
C972 C971 1.400 . S
C972 C975 1.386 . S
H973 C989 0.930 . S
H974 C990 0.931 . S
C975 H963 0.929 . S
C975 C969 1.390 . S
C975 C972 1.386 . S
C976 C971 1.490 . S
C976 C978 1.395 . S
C976 C979 1.403 . S
H977 C983 0.930 . S
C978 H964 0.930 . S
C978 C976 1.395 . S
C978 C981 1.403 . S
C979 C976 1.403 . S
C979 C980 1.524 . S
C979 C983 1.400 . S
C980 H965 0.960 . S
C980 H966 0.960 . S
C980 H967 0.960 . S
C980 C979 1.524 . S
C981 C978 1.403 . S
C981 C982 1.392 . S
C981 C985 1.495 . S
C982 C981 1.392 . S
C982 C983 1.385 . S
C982 C984 1.478 . S
C983 H977 0.930 . S
C983 C979 1.400 . S
C983 C982 1.385 . S
C984 C982 1.478 . S
C984 C986 1.381 . S
C984 C990 1.383 . S
C985 C981 1.495 . S
C985 H991 0.959 . S
C985 H992 0.961 . S
C985 H993 0.960 . S
C986 C984 1.381 . S
C986 C987 1.394 . S
C986 H994 0.930 . S
C987 C986 1.394 . S
C987 C988 1.383 . S
C987 H995 0.929 . S
C988 C987 1.383 . S
C988 C989 1.377 . S
C989 H973 0.930 . S
C989 C988 1.377 . S
C989 C990 1.379 . S
C990 H974 0.931 . S
C990 C984 1.383 . S
C990 C989 1.379 . S
H991 C985 0.959 . S
H992 C985 0.961 . S
H993 C985 0.960 . S
H994 C986 0.930 . S
H995 C987 0.929 . S
H996 C1004 0.929 . S
H997 C1006 0.930 . S
H998 C1008 0.930 . S
H999 C1011 0.929 . S
H1000 C1014 0.930 . S
H1001 C1016 0.960 . S
H1002 C1016 0.960 . S
H1003 C1016 0.960 . S
C1004 H996 0.929 . S
C1004 C1005 1.377 . S
C1004 C1006 1.384 . S
C1005 C1004 1.377 . S
C1005 C1011 1.390 . S
C1006 H997 0.930 . S
C1006 C1004 1.384 . S
C1006 C1007 1.372 . S
C1007 C1006 1.372 . S
C1007 C1008 1.400 . S
C1007 C1012 1.490 . S
C1008 H998 0.930 . S
C1008 C1007 1.400 . S
C1008 C1011 1.386 . S
H1009 C1025 0.930 . S
H1010 C1026 0.931 . S
C1011 H999 0.929 . S
C1011 C1005 1.390 . S
C1011 C1008 1.386 . S
C1012 C1007 1.490 . S
C1012 C1014 1.395 . S
C1012 C1015 1.403 . S
H1013 C1019 0.930 . S
C1014 H1000 0.930 . S
C1014 C1012 1.395 . S
C1014 C1017 1.403 . S
C1015 C1012 1.403 . S
C1015 C1016 1.524 . S
C1015 C1019 1.400 . S
C1016 H1001 0.960 . S
C1016 H1002 0.960 . S
C1016 H1003 0.960 . S
C1016 C1015 1.524 . S
C1017 C1014 1.403 . S
C1017 C1018 1.392 . S
C1017 C1021 1.495 . S
C1018 C1017 1.392 . S
C1018 C1019 1.385 . S
C1018 C1020 1.478 . S
C1019 H1013 0.930 . S
C1019 C1015 1.400 . S
C1019 C1018 1.385 . S
C1020 C1018 1.478 . S
C1020 C1022 1.381 . S
C1020 C1026 1.383 . S
C1021 C1017 1.495 . S
C1021 H1027 0.959 . S
C1021 H1028 0.961 . S
C1021 H1029 0.960 . S
C1022 C1020 1.381 . S
C1022 C1023 1.394 . S
C1022 H1030 0.930 . S
C1023 C1022 1.394 . S
C1023 C1024 1.383 . S
C1023 H1031 0.929 . S
C1024 C1023 1.383 . S
C1024 C1025 1.377 . S
C1025 H1009 0.930 . S
C1025 C1024 1.377 . S
C1025 C1026 1.379 . S
C1026 H1010 0.931 . S
C1026 C1020 1.383 . S
C1026 C1025 1.379 . S
H1027 C1021 0.959 . S
H1028 C1021 0.961 . S
H1029 C1021 0.960 . S
H1030 C1022 0.930 . S
H1031 C1023 0.929 . S
H1032 C1040 0.929 . S
H1033 C1042 0.930 . S
H1034 C1044 0.930 . S
H1035 C1047 0.929 . S
H1036 C1050 0.930 . S
H1037 C1052 0.960 . S
H1038 C1052 0.960 . S
H1039 C1052 0.960 . S
C1040 H1032 0.929 . S
C1040 C1041 1.377 . S
C1040 C1042 1.384 . S
C1041 C1040 1.377 . S
C1041 C1047 1.390 . S
C1042 H1033 0.930 . S
C1042 C1040 1.384 . S
C1042 C1043 1.372 . S
C1043 C1042 1.372 . S
C1043 C1044 1.400 . S
C1043 C1048 1.490 . S
C1044 H1034 0.930 . S
C1044 C1043 1.400 . S
C1044 C1047 1.386 . S
H1045 C1061 0.930 . S
H1046 C1062 0.931 . S
C1047 H1035 0.929 . S
C1047 C1041 1.390 . S
C1047 C1044 1.386 . S
C1048 C1043 1.490 . S
C1048 C1050 1.395 . S
C1048 C1051 1.403 . S
H1049 C1055 0.930 . S
C1050 H1036 0.930 . S
C1050 C1048 1.395 . S
C1050 C1053 1.403 . S
C1051 C1048 1.403 . S
C1051 C1052 1.524 . S
C1051 C1055 1.400 . S
C1052 H1037 0.960 . S
C1052 H1038 0.960 . S
C1052 H1039 0.960 . S
C1052 C1051 1.524 . S
C1053 C1050 1.403 . S
C1053 C1054 1.392 . S
C1053 C1057 1.495 . S
C1054 C1053 1.392 . S
C1054 C1055 1.385 . S
C1054 C1056 1.478 . S
C1055 H1049 0.930 . S
C1055 C1051 1.400 . S
C1055 C1054 1.385 . S
C1056 C1054 1.478 . S
C1056 C1058 1.381 . S
C1056 C1062 1.383 . S
C1057 C1053 1.495 . S
C1057 H1063 0.959 . S
C1057 H1064 0.961 . S
C1057 H1065 0.960 . S
C1058 C1056 1.381 . S
C1058 C1059 1.394 . S
C1058 H1066 0.930 . S
C1059 C1058 1.394 . S
C1059 C1060 1.383 . S
C1059 H1067 0.929 . S
C1060 C1059 1.383 . S
C1060 C1061 1.377 . S
C1061 H1045 0.930 . S
C1061 C1060 1.377 . S
C1061 C1062 1.379 . S
C1062 H1046 0.931 . S
C1062 C1056 1.383 . S
C1062 C1061 1.379 . S
H1063 C1057 0.959 . S
H1064 C1057 0.961 . S
H1065 C1057 0.960 . S
H1066 C1058 0.930 . S
H1067 C1059 0.929 . S
H1068 C1076 0.929 . S
H1069 C1078 0.930 . S
H1070 C1080 0.930 . S
H1071 C1083 0.929 . S
H1072 C1086 0.930 . S
H1073 C1088 0.960 . S
H1074 C1088 0.960 . S
H1075 C1088 0.960 . S
C1076 H1068 0.929 . S
C1076 C1077 1.377 . S
C1076 C1078 1.384 . S
C1077 C1076 1.377 . S
C1077 C1083 1.390 . S
C1078 H1069 0.930 . S
C1078 C1076 1.384 . S
C1078 C1079 1.372 . S
C1079 C1078 1.372 . S
C1079 C1080 1.400 . S
C1079 C1084 1.490 . S
C1080 H1070 0.930 . S
C1080 C1079 1.400 . S
C1080 C1083 1.386 . S
H1081 C1097 0.930 . S
H1082 C1098 0.931 . S
C1083 H1071 0.929 . S
C1083 C1077 1.390 . S
C1083 C1080 1.386 . S
C1084 C1079 1.490 . S
C1084 C1086 1.395 . S
C1084 C1087 1.403 . S
H1085 C1091 0.930 . S
C1086 H1072 0.930 . S
C1086 C1084 1.395 . S
C1086 C1089 1.403 . S
C1087 C1084 1.403 . S
C1087 C1088 1.524 . S
C1087 C1091 1.400 . S
C1088 H1073 0.960 . S
C1088 H1074 0.960 . S
C1088 H1075 0.960 . S
C1088 C1087 1.524 . S
C1089 C1086 1.403 . S
C1089 C1090 1.392 . S
C1089 C1093 1.495 . S
C1090 C1089 1.392 . S
C1090 C1091 1.385 . S
C1090 C1092 1.478 . S
C1091 H1085 0.930 . S
C1091 C1087 1.400 . S
C1091 C1090 1.385 . S
C1092 C1090 1.478 . S
C1092 C1094 1.381 . S
C1092 C1098 1.383 . S
C1093 C1089 1.495 . S
C1093 H1099 0.959 . S
C1093 H1100 0.961 . S
C1093 H1101 0.960 . S
C1094 C1092 1.381 . S
C1094 C1095 1.394 . S
C1094 H1102 0.930 . S
C1095 C1094 1.394 . S
C1095 C1096 1.383 . S
C1095 H1103 0.929 . S
C1096 C1095 1.383 . S
C1096 C1097 1.377 . S
C1097 H1081 0.930 . S
C1097 C1096 1.377 . S
C1097 C1098 1.379 . S
C1098 H1082 0.931 . S
C1098 C1092 1.383 . S
C1098 C1097 1.379 . S
H1099 C1093 0.959 . S
H1100 C1093 0.961 . S
H1101 C1093 0.960 . S
H1102 C1094 0.930 . S
H1103 C1095 0.929 . S
H1104 C1112 0.929 . S
H1105 C1114 0.930 . S
H1106 C1116 0.930 . S
H1107 C1119 0.929 . S
H1108 C1122 0.930 . S
H1109 C1124 0.960 . S
H1110 C1124 0.960 . S
H1111 C1124 0.960 . S
C1112 H1104 0.929 . S
C1112 C1113 1.377 . S
C1112 C1114 1.384 . S
C1113 C1112 1.377 . S
C1113 C1119 1.390 . S
C1114 H1105 0.930 . S
C1114 C1112 1.384 . S
C1114 C1115 1.372 . S
C1115 C1114 1.372 . S
C1115 C1116 1.400 . S
C1115 C1120 1.490 . S
C1116 H1106 0.930 . S
C1116 C1115 1.400 . S
C1116 C1119 1.386 . S
H1117 C1133 0.930 . S
H1118 C1134 0.931 . S
C1119 H1107 0.929 . S
C1119 C1113 1.390 . S
C1119 C1116 1.386 . S
C1120 C1115 1.490 . S
C1120 C1122 1.395 . S
C1120 C1123 1.403 . S
H1121 C1127 0.930 . S
C1122 H1108 0.930 . S
C1122 C1120 1.395 . S
C1122 C1125 1.403 . S
C1123 C1120 1.403 . S
C1123 C1124 1.524 . S
C1123 C1127 1.400 . S
C1124 H1109 0.960 . S
C1124 H1110 0.960 . S
C1124 H1111 0.960 . S
C1124 C1123 1.524 . S
C1125 C1122 1.403 . S
C1125 C1126 1.392 . S
C1125 C1129 1.495 . S
C1126 C1125 1.392 . S
C1126 C1127 1.385 . S
C1126 C1128 1.478 . S
C1127 H1121 0.930 . S
C1127 C1123 1.400 . S
C1127 C1126 1.385 . S
C1128 C1126 1.478 . S
C1128 C1130 1.381 . S
C1128 C1134 1.383 . S
C1129 C1125 1.495 . S
C1129 H1135 0.959 . S
C1129 H1136 0.961 . S
C1129 H1137 0.960 . S
C1130 C1128 1.381 . S
C1130 C1131 1.394 . S
C1130 H1138 0.930 . S
C1131 C1130 1.394 . S
C1131 C1132 1.383 . S
C1131 H1139 0.929 . S
C1132 C1131 1.383 . S
C1132 C1133 1.377 . S
C1133 H1117 0.930 . S
C1133 C1132 1.377 . S
C1133 C1134 1.379 . S
C1134 H1118 0.931 . S
C1134 C1128 1.383 . S
C1134 C1133 1.379 . S
H1135 C1129 0.959 . S
H1136 C1129 0.961 . S
H1137 C1129 0.960 . S
H1138 C1130 0.930 . S
H1139 C1131 0.929 . S
H1140 C1148 0.929 . S
H1141 C1150 0.930 . S
H1142 C1152 0.930 . S
H1143 C1155 0.929 . S
H1144 C1158 0.930 . S
H1145 C1160 0.960 . S
H1146 C1160 0.960 . S
H1147 C1160 0.960 . S
C1148 H1140 0.929 . S
C1148 C1149 1.377 . S
C1148 C1150 1.384 . S
C1149 C1148 1.377 . S
C1149 C1155 1.390 . S
C1150 H1141 0.930 . S
C1150 C1148 1.384 . S
C1150 C1151 1.372 . S
C1151 C1150 1.372 . S
C1151 C1152 1.400 . S
C1151 C1156 1.490 . S
C1152 H1142 0.930 . S
C1152 C1151 1.400 . S
C1152 C1155 1.386 . S
H1153 C1169 0.930 . S
H1154 C1170 0.931 . S
C1155 H1143 0.929 . S
C1155 C1149 1.390 . S
C1155 C1152 1.386 . S
C1156 C1151 1.490 . S
C1156 C1158 1.395 . S
C1156 C1159 1.403 . S
H1157 C1163 0.930 . S
C1158 H1144 0.930 . S
C1158 C1156 1.395 . S
C1158 C1161 1.403 . S
C1159 C1156 1.403 . S
C1159 C1160 1.524 . S
C1159 C1163 1.400 . S
C1160 H1145 0.960 . S
C1160 H1146 0.960 . S
C1160 H1147 0.960 . S
C1160 C1159 1.524 . S
C1161 C1158 1.403 . S
C1161 C1162 1.392 . S
C1161 C1165 1.495 . S
C1162 C1161 1.392 . S
C1162 C1163 1.385 . S
C1162 C1164 1.478 . S
C1163 H1157 0.930 . S
C1163 C1159 1.400 . S
C1163 C1162 1.385 . S
C1164 C1162 1.478 . S
C1164 C1166 1.381 . S
C1164 C1170 1.383 . S
C1165 C1161 1.495 . S
C1165 H1171 0.959 . S
C1165 H1172 0.961 . S
C1165 H1173 0.960 . S
C1166 C1164 1.381 . S
C1166 C1167 1.394 . S
C1166 H1174 0.930 . S
C1167 C1166 1.394 . S
C1167 C1168 1.383 . S
C1167 H1175 0.929 . S
C1168 C1167 1.383 . S
C1168 C1169 1.377 . S
C1169 H1153 0.930 . S
C1169 C1168 1.377 . S
C1169 C1170 1.379 . S
C1170 H1154 0.931 . S
C1170 C1164 1.383 . S
C1170 C1169 1.379 . S
H1171 C1165 0.959 . S
H1172 C1165 0.961 . S
H1173 C1165 0.960 . S
H1174 C1166 0.930 . S
H1175 C1167 0.929 . S
H1176 C1184 0.929 . S
H1177 C1186 0.930 . S
H1178 C1188 0.930 . S
H1179 C1191 0.929 . S
H1180 C1194 0.930 . S
H1181 C1196 0.960 . S
H1182 C1196 0.960 . S
H1183 C1196 0.960 . S
C1184 H1176 0.929 . S
C1184 C1185 1.377 . S
C1184 C1186 1.384 . S
C1185 C1184 1.377 . S
C1185 C1191 1.390 . S
C1186 H1177 0.930 . S
C1186 C1184 1.384 . S
C1186 C1187 1.372 . S
C1187 C1186 1.372 . S
C1187 C1188 1.400 . S
C1187 C1192 1.490 . S
C1188 H1178 0.930 . S
C1188 C1187 1.400 . S
C1188 C1191 1.386 . S
H1189 C1205 0.930 . S
H1190 C1206 0.931 . S
C1191 H1179 0.929 . S
C1191 C1185 1.390 . S
C1191 C1188 1.386 . S
C1192 C1187 1.490 . S
C1192 C1194 1.395 . S
C1192 C1195 1.403 . S
H1193 C1199 0.930 . S
C1194 H1180 0.930 . S
C1194 C1192 1.395 . S
C1194 C1197 1.403 . S
C1195 C1192 1.403 . S
C1195 C1196 1.524 . S
C1195 C1199 1.400 . S
C1196 H1181 0.960 . S
C1196 H1182 0.960 . S
C1196 H1183 0.960 . S
C1196 C1195 1.524 . S
C1197 C1194 1.403 . S
C1197 C1198 1.392 . S
C1197 C1201 1.495 . S
C1198 C1197 1.392 . S
C1198 C1199 1.385 . S
C1198 C1200 1.478 . S
C1199 H1193 0.930 . S
C1199 C1195 1.400 . S
C1199 C1198 1.385 . S
C1200 C1198 1.478 . S
C1200 C1202 1.381 . S
C1200 C1206 1.383 . S
C1201 C1197 1.495 . S
C1201 H1207 0.959 . S
C1201 H1208 0.961 . S
C1201 H1209 0.960 . S
C1202 C1200 1.381 . S
C1202 C1203 1.394 . S
C1202 H1210 0.930 . S
C1203 C1202 1.394 . S
C1203 C1204 1.383 . S
C1203 H1211 0.929 . S
C1204 C1203 1.383 . S
C1204 C1205 1.377 . S
C1205 H1189 0.930 . S
C1205 C1204 1.377 . S
C1205 C1206 1.379 . S
C1206 H1190 0.931 . S
C1206 C1200 1.383 . S
C1206 C1205 1.379 . S
H1207 C1201 0.959 . S
H1208 C1201 0.961 . S
H1209 C1201 0.960 . S
H1210 C1202 0.930 . S
H1211 C1203 0.929 . S
H1212 C1220 0.929 . S
H1213 C1222 0.930 . S
H1214 C1224 0.930 . S
H1215 C1227 0.929 . S
H1216 C1230 0.930 . S
H1217 C1232 0.960 . S
H1218 C1232 0.960 . S
H1219 C1232 0.960 . S
C1220 H1212 0.929 . S
C1220 C1221 1.377 . S
C1220 C1222 1.384 . S
C1221 C1220 1.377 . S
C1221 C1227 1.390 . S
C1222 H1213 0.930 . S
C1222 C1220 1.384 . S
C1222 C1223 1.372 . S
C1223 C1222 1.372 . S
C1223 C1224 1.400 . S
C1223 C1228 1.490 . S
C1224 H1214 0.930 . S
C1224 C1223 1.400 . S
C1224 C1227 1.386 . S
H1225 C1241 0.930 . S
H1226 C1242 0.931 . S
C1227 H1215 0.929 . S
C1227 C1221 1.390 . S
C1227 C1224 1.386 . S
C1228 C1223 1.490 . S
C1228 C1230 1.395 . S
C1228 C1231 1.403 . S
H1229 C1235 0.930 . S
C1230 H1216 0.930 . S
C1230 C1228 1.395 . S
C1230 C1233 1.403 . S
C1231 C1228 1.403 . S
C1231 C1232 1.524 . S
C1231 C1235 1.400 . S
C1232 H1217 0.960 . S
C1232 H1218 0.960 . S
C1232 H1219 0.960 . S
C1232 C1231 1.524 . S
C1233 C1230 1.403 . S
C1233 C1234 1.392 . S
C1233 C1237 1.495 . S
C1234 C1233 1.392 . S
C1234 C1235 1.385 . S
C1234 C1236 1.478 . S
C1235 H1229 0.930 . S
C1235 C1231 1.400 . S
C1235 C1234 1.385 . S
C1236 C1234 1.478 . S
C1236 C1238 1.381 . S
C1236 C1242 1.383 . S
C1237 C1233 1.495 . S
C1237 H1243 0.959 . S
C1237 H1244 0.961 . S
C1237 H1245 0.960 . S
C1238 C1236 1.381 . S
C1238 C1239 1.394 . S
C1238 H1246 0.930 . S
C1239 C1238 1.394 . S
C1239 C1240 1.383 . S
C1239 H1247 0.929 . S
C1240 C1239 1.383 . S
C1240 C1241 1.377 . S
C1241 H1225 0.930 . S
C1241 C1240 1.377 . S
C1241 C1242 1.379 . S
C1242 H1226 0.931 . S
C1242 C1236 1.383 . S
C1242 C1241 1.379 . S
H1243 C1237 0.959 . S
H1244 C1237 0.961 . S
H1245 C1237 0.960 . S
H1246 C1238 0.930 . S
H1247 C1239 0.929 . S
H1248 C1256 0.929 . S
H1249 C1258 0.930 . S
H1250 C1260 0.930 . S
H1251 C1263 0.929 . S
H1252 C1266 0.930 . S
H1253 C1268 0.960 . S
H1254 C1268 0.960 . S
H1255 C1268 0.960 . S
C1256 H1248 0.929 . S
C1256 C1257 1.377 . S
C1256 C1258 1.384 . S
C1257 C1256 1.377 . S
C1257 C1263 1.390 . S
C1258 H1249 0.930 . S
C1258 C1256 1.384 . S
C1258 C1259 1.372 . S
C1259 C1258 1.372 . S
C1259 C1260 1.400 . S
C1259 C1264 1.490 . S
C1260 H1250 0.930 . S
C1260 C1259 1.400 . S
C1260 C1263 1.386 . S
H1261 C1277 0.930 . S
H1262 C1278 0.931 . S
C1263 H1251 0.929 . S
C1263 C1257 1.390 . S
C1263 C1260 1.386 . S
C1264 C1259 1.490 . S
C1264 C1266 1.395 . S
C1264 C1267 1.403 . S
H1265 C1271 0.930 . S
C1266 H1252 0.930 . S
C1266 C1264 1.395 . S
C1266 C1269 1.403 . S
C1267 C1264 1.403 . S
C1267 C1268 1.524 . S
C1267 C1271 1.400 . S
C1268 H1253 0.960 . S
C1268 H1254 0.960 . S
C1268 H1255 0.960 . S
C1268 C1267 1.524 . S
C1269 C1266 1.403 . S
C1269 C1270 1.392 . S
C1269 C1273 1.495 . S
C1270 C1269 1.392 . S
C1270 C1271 1.385 . S
C1270 C1272 1.478 . S
C1271 H1265 0.930 . S
C1271 C1267 1.400 . S
C1271 C1270 1.385 . S
C1272 C1270 1.478 . S
C1272 C1274 1.381 . S
C1272 C1278 1.383 . S
C1273 C1269 1.495 . S
C1273 H1279 0.959 . S
C1273 H1280 0.961 . S
C1273 H1281 0.960 . S
C1274 C1272 1.381 . S
C1274 C1275 1.394 . S
C1274 H1282 0.930 . S
C1275 C1274 1.394 . S
C1275 C1276 1.383 . S
C1275 H1283 0.929 . S
C1276 C1275 1.383 . S
C1276 C1277 1.377 . S
C1277 H1261 0.930 . S
C1277 C1276 1.377 . S
C1277 C1278 1.379 . S
C1278 H1262 0.931 . S
C1278 C1272 1.383 . S
C1278 C1277 1.379 . S
H1279 C1273 0.959 . S
H1280 C1273 0.961 . S
H1281 C1273 0.960 . S
H1282 C1274 0.930 . S
H1283 C1275 0.929 . S
H1284 C1292 0.929 . S
H1285 C1294 0.930 . S
H1286 C1296 0.930 . S
H1287 C1299 0.929 . S
H1288 C1302 0.930 . S
H1289 C1304 0.960 . S
H1290 C1304 0.960 . S
H1291 C1304 0.960 . S
C1292 H1284 0.929 . S
C1292 C1293 1.377 . S
C1292 C1294 1.384 . S
C1293 C1292 1.377 . S
C1293 C1299 1.390 . S
C1294 H1285 0.930 . S
C1294 C1292 1.384 . S
C1294 C1295 1.372 . S
C1295 C1294 1.372 . S
C1295 C1296 1.400 . S
C1295 C1300 1.490 . S
C1296 H1286 0.930 . S
C1296 C1295 1.400 . S
C1296 C1299 1.386 . S
H1297 C1313 0.930 . S
H1298 C1314 0.931 . S
C1299 H1287 0.929 . S
C1299 C1293 1.390 . S
C1299 C1296 1.386 . S
C1300 C1295 1.490 . S
C1300 C1302 1.395 . S
C1300 C1303 1.403 . S
H1301 C1307 0.930 . S
C1302 H1288 0.930 . S
C1302 C1300 1.395 . S
C1302 C1305 1.403 . S
C1303 C1300 1.403 . S
C1303 C1304 1.524 . S
C1303 C1307 1.400 . S
C1304 H1289 0.960 . S
C1304 H1290 0.960 . S
C1304 H1291 0.960 . S
C1304 C1303 1.524 . S
C1305 C1302 1.403 . S
C1305 C1306 1.392 . S
C1305 C1309 1.495 . S
C1306 C1305 1.392 . S
C1306 C1307 1.385 . S
C1306 C1308 1.478 . S
C1307 H1301 0.930 . S
C1307 C1303 1.400 . S
C1307 C1306 1.385 . S
C1308 C1306 1.478 . S
C1308 C1310 1.381 . S
C1308 C1314 1.383 . S
C1309 C1305 1.495 . S
C1309 H1315 0.959 . S
C1309 H1316 0.961 . S
C1309 H1317 0.960 . S
C1310 C1308 1.381 . S
C1310 C1311 1.394 . S
C1310 H1318 0.930 . S
C1311 C1310 1.394 . S
C1311 C1312 1.383 . S
C1311 H1319 0.929 . S
C1312 C1311 1.383 . S
C1312 C1313 1.377 . S
C1313 H1297 0.930 . S
C1313 C1312 1.377 . S
C1313 C1314 1.379 . S
C1314 H1298 0.931 . S
C1314 C1308 1.383 . S
C1314 C1313 1.379 . S
H1315 C1309 0.959 . S
H1316 C1309 0.961 . S
H1317 C1309 0.960 . S
H1318 C1310 0.930 . S
H1319 C1311 0.929 . S
H1320 C1328 0.929 . S
H1321 C1330 0.930 . S
H1322 C1332 0.930 . S
H1323 C1335 0.929 . S
H1324 C1338 0.930 . S
H1325 C1340 0.960 . S
H1326 C1340 0.960 . S
H1327 C1340 0.960 . S
C1328 H1320 0.929 . S
C1328 C1329 1.377 . S
C1328 C1330 1.384 . S
C1329 C1328 1.377 . S
C1329 C1335 1.390 . S
C1330 H1321 0.930 . S
C1330 C1328 1.384 . S
C1330 C1331 1.372 . S
C1331 C1330 1.372 . S
C1331 C1332 1.400 . S
C1331 C1336 1.490 . S
C1332 H1322 0.930 . S
C1332 C1331 1.400 . S
C1332 C1335 1.386 . S
H1333 C1349 0.930 . S
H1334 C1350 0.931 . S
C1335 H1323 0.929 . S
C1335 C1329 1.390 . S
C1335 C1332 1.386 . S
C1336 C1331 1.490 . S
C1336 C1338 1.395 . S
C1336 C1339 1.403 . S
H1337 C1343 0.930 . S
C1338 H1324 0.930 . S
C1338 C1336 1.395 . S
C1338 C1341 1.403 . S
C1339 C1336 1.403 . S
C1339 C1340 1.524 . S
C1339 C1343 1.400 . S
C1340 H1325 0.960 . S
C1340 H1326 0.960 . S
C1340 H1327 0.960 . S
C1340 C1339 1.524 . S
C1341 C1338 1.403 . S
C1341 C1342 1.392 . S
C1341 C1345 1.495 . S
C1342 C1341 1.392 . S
C1342 C1343 1.385 . S
C1342 C1344 1.478 . S
C1343 H1337 0.930 . S
C1343 C1339 1.400 . S
C1343 C1342 1.385 . S
C1344 C1342 1.478 . S
C1344 C1346 1.381 . S
C1344 C1350 1.383 . S
C1345 C1341 1.495 . S
C1345 H1351 0.959 . S
C1345 H1352 0.961 . S
C1345 H1353 0.960 . S
C1346 C1344 1.381 . S
C1346 C1347 1.394 . S
C1346 H1354 0.930 . S
C1347 C1346 1.394 . S
C1347 C1348 1.383 . S
C1347 H1355 0.929 . S
C1348 C1347 1.383 . S
C1348 C1349 1.377 . S
C1349 H1333 0.930 . S
C1349 C1348 1.377 . S
C1349 C1350 1.379 . S
C1350 H1334 0.931 . S
C1350 C1344 1.383 . S
C1350 C1349 1.379 . S
H1351 C1345 0.959 . S
H1352 C1345 0.961 . S
H1353 C1345 0.960 . S
H1354 C1346 0.930 . S
H1355 C1347 0.929 . S
H1356 C1364 0.929 . S
H1357 C1366 0.930 . S
H1358 C1368 0.930 . S
H1359 C1371 0.929 . S
H1360 C1374 0.930 . S
H1361 C1376 0.960 . S
H1362 C1376 0.960 . S
H1363 C1376 0.960 . S
C1364 H1356 0.929 . S
C1364 C1365 1.377 . S
C1364 C1366 1.384 . S
C1365 C1364 1.377 . S
C1365 C1371 1.390 . S
C1366 H1357 0.930 . S
C1366 C1364 1.384 . S
C1366 C1367 1.372 . S
C1367 C1366 1.372 . S
C1367 C1368 1.400 . S
C1367 C1372 1.490 . S
C1368 H1358 0.930 . S
C1368 C1367 1.400 . S
C1368 C1371 1.386 . S
H1369 C1385 0.930 . S
H1370 C1386 0.931 . S
C1371 H1359 0.929 . S
C1371 C1365 1.390 . S
C1371 C1368 1.386 . S
C1372 C1367 1.490 . S
C1372 C1374 1.395 . S
C1372 C1375 1.403 . S
H1373 C1379 0.930 . S
C1374 H1360 0.930 . S
C1374 C1372 1.395 . S
C1374 C1377 1.403 . S
C1375 C1372 1.403 . S
C1375 C1376 1.524 . S
C1375 C1379 1.400 . S
C1376 H1361 0.960 . S
C1376 H1362 0.960 . S
C1376 H1363 0.960 . S
C1376 C1375 1.524 . S
C1377 C1374 1.403 . S
C1377 C1378 1.392 . S
C1377 C1381 1.495 . S
C1378 C1377 1.392 . S
C1378 C1379 1.385 . S
C1378 C1380 1.478 . S
C1379 H1373 0.930 . S
C1379 C1375 1.400 . S
C1379 C1378 1.385 . S
C1380 C1378 1.478 . S
C1380 C1382 1.381 . S
C1380 C1386 1.383 . S
C1381 C1377 1.495 . S
C1381 H1387 0.959 . S
C1381 H1388 0.961 . S
C1381 H1389 0.960 . S
C1382 C1380 1.381 . S
C1382 C1383 1.394 . S
C1382 H1390 0.930 . S
C1383 C1382 1.394 . S
C1383 C1384 1.383 . S
C1383 H1391 0.929 . S
C1384 C1383 1.383 . S
C1384 C1385 1.377 . S
C1385 H1369 0.930 . S
C1385 C1384 1.377 . S
C1385 C1386 1.379 . S
C1386 H1370 0.931 . S
C1386 C1380 1.383 . S
C1386 C1385 1.379 . S
H1387 C1381 0.959 . S
H1388 C1381 0.961 . S
H1389 C1381 0.960 . S
H1390 C1382 0.930 . S
H1391 C1383 0.929 . S
H1392 C1400 0.929 . S
H1393 C1402 0.930 . S
H1394 C1404 0.930 . S
H1395 C1407 0.929 . S
H1396 C1410 0.930 . S
H1397 C1412 0.960 . S
H1398 C1412 0.960 . S
H1399 C1412 0.960 . S
C1400 H1392 0.929 . S
C1400 C1401 1.392 . S
C1400 C1402 1.384 . S
C1401 C1400 1.392 . S
C1401 C1407 1.373 1_455 S
C1402 H1393 0.930 . S
C1402 C1400 1.384 . S
C1402 C1403 1.372 1_455 S
C1403 C1402 1.372 1_655 S
C1403 C1404 1.400 . S
C1403 C1408 1.490 . S
C1404 H1394 0.930 . S
C1404 C1403 1.400 . S
C1404 C1407 1.386 . S
H1405 C1421 0.930 . S
H1406 C1422 0.931 . S
C1407 H1395 0.929 . S
C1407 C1401 1.373 1_655 S
C1407 C1404 1.386 . S
C1408 C1403 1.490 . S
C1408 C1410 1.395 1_655 S
C1408 C1411 1.403 . S
H1409 C1415 0.930 . S
C1410 H1396 0.930 . S
C1410 C1408 1.395 1_455 S
C1410 C1413 1.403 . S
C1411 C1408 1.403 . S
C1411 C1412 1.524 . S
C1411 C1415 1.400 . S
C1412 H1397 0.960 . S
C1412 H1398 0.960 . S
C1412 H1399 0.960 . S
C1412 C1411 1.524 . S
C1413 C1410 1.403 . S
C1413 C1414 1.392 1_455 S
C1413 C1417 1.495 . S
C1414 C1413 1.392 1_655 S
C1414 C1415 1.385 . S
C1414 C1416 1.478 . S
C1415 H1409 0.930 . S
C1415 C1411 1.400 . S
C1415 C1414 1.385 . S
C1416 C1414 1.478 . S
C1416 C1418 1.381 1_655 S
C1416 C1422 1.383 . S
C1417 C1413 1.495 . S
C1417 H1423 0.959 . S
C1417 H1424 0.961 . S
C1417 H1425 0.960 . S
C1418 C1416 1.381 1_455 S
C1418 C1419 1.394 . S
C1418 H1426 0.930 . S
C1419 C1418 1.394 . S
C1419 C1420 1.383 1_455 S
C1419 H1427 0.929 . S
C1420 C1419 1.383 1_655 S
C1420 C1421 1.377 . S
C1421 H1405 0.930 . S
C1421 C1420 1.377 . S
C1421 C1422 1.379 . S
C1422 H1406 0.931 . S
C1422 C1416 1.383 . S
C1422 C1421 1.379 . S
H1423 C1417 0.959 . S
H1424 C1417 0.961 . S
H1425 C1417 0.960 . S
H1426 C1418 0.930 . S
H1427 C1419 0.929 . S
H1428 C1436 0.929 . S
H1429 C1438 0.930 . S
H1430 C1440 0.930 . S
H1431 C1443 0.929 . S
H1432 C1446 0.930 . S
H1433 C1448 0.960 . S
H1434 C1448 0.960 . S
H1435 C1448 0.960 . S
C1436 H1428 0.929 . S
C1436 C1437 1.429 . S
C1436 C1438 1.384 . S
C1437 C1436 1.429 . S
C1437 C1443 1.336 1_455 S
C1438 H1429 0.930 . S
C1438 C1436 1.384 . S
C1438 C1439 1.337 1_455 S
C1439 C1438 1.337 1_655 S
C1439 C1440 1.433 . S
C1439 C1444 1.492 . S
C1440 H1430 0.930 . S
C1440 C1439 1.433 . S
C1440 C1443 1.386 . S
H1441 C1457 0.930 . S
H1442 C1458 0.931 . S
C1443 H1431 0.929 . S
C1443 C1437 1.336 1_655 S
C1443 C1440 1.386 . S
C1444 C1439 1.492 . S
C1444 C1446 1.395 1_655 S
C1444 C1447 1.403 . S
H1445 C1451 0.930 . S
C1446 H1432 0.930 . S
C1446 C1444 1.395 1_455 S
C1446 C1449 1.403 . S
C1447 C1444 1.403 . S
C1447 C1448 1.524 . S
C1447 C1451 1.400 . S
C1448 H1433 0.960 . S
C1448 H1434 0.960 . S
C1448 H1435 0.960 . S
C1448 C1447 1.524 . S
C1449 C1446 1.403 . S
C1449 C1450 1.392 1_455 S
C1449 C1453 1.495 . S
C1450 C1449 1.392 1_655 S
C1450 C1451 1.385 . S
C1450 C1452 1.478 . S
C1451 H1445 0.930 . S
C1451 C1447 1.400 . S
C1451 C1450 1.385 . S
C1452 C1450 1.478 . S
C1452 C1454 1.381 1_655 S
C1452 C1458 1.383 . S
C1453 C1449 1.495 . S
C1453 H1459 0.959 . S
C1453 H1460 0.896 1_455 S
C1453 H1461 0.960 . S
C1454 C1452 1.381 1_455 S
C1454 C1455 1.394 . S
C1454 H1462 0.930 . S
C1455 C1454 1.394 . S
C1455 C1456 1.383 1_455 S
C1455 H1463 0.929 . S
C1456 C1455 1.383 1_655 S
C1456 C1457 1.377 . S
C1457 H1441 0.930 . S
C1457 C1456 1.377 . S
C1457 C1458 1.379 . S
C1458 H1442 0.931 . S
C1458 C1452 1.383 . S
C1458 C1457 1.379 . S
H1459 C1453 0.959 . S
H1460 C1453 0.896 1_655 S
H1461 C1453 0.960 . S
H1462 C1454 0.930 . S
H1463 C1455 0.929 . S
H1464 C1472 0.929 . S
H1465 C1474 0.930 . S
H1466 C1476 0.930 . S
H1467 C1479 0.929 . S
H1468 C1482 0.930 . S
H1469 C1484 0.960 . S
H1470 C1484 0.960 . S
H1471 C1484 0.960 . S
C1472 H1464 0.929 . S
C1472 C1473 1.377 . S
C1472 C1474 1.384 . S
C1473 C1472 1.377 . S
C1473 C1479 1.390 . S
C1474 H1465 0.930 . S
C1474 C1472 1.384 . S
C1474 C1475 1.372 . S
C1475 C1474 1.372 . S
C1475 C1476 1.400 . S
C1475 C1480 1.490 . S
C1476 H1466 0.930 . S
C1476 C1475 1.400 . S
C1476 C1479 1.386 . S
H1477 C1493 0.930 . S
H1478 C1494 0.931 . S
C1479 H1467 0.929 . S
C1479 C1473 1.390 . S
C1479 C1476 1.386 . S
C1480 C1475 1.490 . S
C1480 C1482 1.395 . S
C1480 C1483 1.403 . S
H1481 C1487 0.930 . S
C1482 H1468 0.930 . S
C1482 C1480 1.395 . S
C1482 C1485 1.403 . S
C1483 C1480 1.403 . S
C1483 C1484 1.524 . S
C1483 C1487 1.400 . S
C1484 H1469 0.960 . S
C1484 H1470 0.960 . S
C1484 H1471 0.960 . S
C1484 C1483 1.524 . S
C1485 C1482 1.403 . S
C1485 C1486 1.392 . S
C1485 C1489 1.495 . S
C1486 C1485 1.392 . S
C1486 C1487 1.385 . S
C1486 C1488 1.478 . S
C1487 H1481 0.930 . S
C1487 C1483 1.400 . S
C1487 C1486 1.385 . S
C1488 C1486 1.478 . S
C1488 C1490 1.381 . S
C1488 C1494 1.383 . S
C1489 C1485 1.495 . S
C1489 H1495 0.959 . S
C1489 H1496 0.961 . S
C1489 H1497 0.960 . S
C1490 C1488 1.381 . S
C1490 C1491 1.394 . S
C1490 H1498 0.930 . S
C1491 C1490 1.394 . S
C1491 C1492 1.383 . S
C1491 H1499 0.929 . S
C1492 C1491 1.383 . S
C1492 C1493 1.377 . S
C1493 H1477 0.930 . S
C1493 C1492 1.377 . S
C1493 C1494 1.379 . S
C1494 H1478 0.931 . S
C1494 C1488 1.383 . S
C1494 C1493 1.379 . S
H1495 C1489 0.959 . S
H1496 C1489 0.961 . S
H1497 C1489 0.960 . S
H1498 C1490 0.930 . S
H1499 C1491 0.929 . S
H1500 C1508 0.929 . S
H1501 C1510 0.930 . S
H1502 C1512 0.930 . S
H1503 C1515 0.929 . S
H1504 C1518 0.930 . S
H1505 C1520 0.960 . S
H1506 C1520 0.960 . S
H1507 C1520 0.960 . S
C1508 H1500 0.929 . S
C1508 C1509 1.377 . S
C1508 C1510 1.384 . S
C1509 C1508 1.377 . S
C1509 C1515 1.390 . S
C1510 H1501 0.930 . S
C1510 C1508 1.384 . S
C1510 C1511 1.372 . S
C1511 C1510 1.372 . S
C1511 C1512 1.400 . S
C1511 C1516 1.490 . S
C1512 H1502 0.930 . S
C1512 C1511 1.400 . S
C1512 C1515 1.386 . S
H1513 C1529 0.930 . S
H1514 C1530 0.931 . S
C1515 H1503 0.929 . S
C1515 C1509 1.390 . S
C1515 C1512 1.386 . S
C1516 C1511 1.490 . S
C1516 C1518 1.395 . S
C1516 C1519 1.403 . S
H1517 C1523 0.930 . S
C1518 H1504 0.930 . S
C1518 C1516 1.395 . S
C1518 C1521 1.403 . S
C1519 C1516 1.403 . S
C1519 C1520 1.524 . S
C1519 C1523 1.400 . S
C1520 H1505 0.960 . S
C1520 H1506 0.960 . S
C1520 H1507 0.960 . S
C1520 C1519 1.524 . S
C1521 C1518 1.403 . S
C1521 C1522 1.392 . S
C1521 C1525 1.495 . S
C1522 C1521 1.392 . S
C1522 C1523 1.385 . S
C1522 C1524 1.478 . S
C1523 H1517 0.930 . S
C1523 C1519 1.400 . S
C1523 C1522 1.385 . S
C1524 C1522 1.478 . S
C1524 C1526 1.381 . S
C1524 C1530 1.383 . S
C1525 C1521 1.495 . S
C1525 H1531 0.959 . S
C1525 H1532 0.961 . S
C1525 H1533 0.960 . S
C1526 C1524 1.381 . S
C1526 C1527 1.394 . S
C1526 H1534 0.930 . S
C1527 C1526 1.394 . S
C1527 C1528 1.383 . S
C1527 H1535 0.929 . S
C1528 C1527 1.383 . S
C1528 C1529 1.377 . S
C1529 H1513 0.930 . S
C1529 C1528 1.377 . S
C1529 C1530 1.379 . S
C1530 H1514 0.931 . S
C1530 C1524 1.383 . S
C1530 C1529 1.379 . S
H1531 C1525 0.959 . S
H1532 C1525 0.961 . S
H1533 C1525 0.960 . S
H1534 C1526 0.930 . S
H1535 C1527 0.929 . S
H1536 C1544 0.929 . S
H1537 C1546 0.930 . S
H1538 C1548 0.930 . S
H1539 C1551 0.929 . S
H1540 C1554 0.930 . S
H1541 C1556 0.960 . S
H1542 C1556 0.960 . S
H1543 C1556 0.960 . S
C1544 H1536 0.929 . S
C1544 C1545 1.363 1_565 S
C1544 C1546 1.384 . S
C1545 C1544 1.363 1_545 S
C1545 C1551 1.402 . S
C1546 H1537 0.930 . S
C1546 C1544 1.384 . S
C1546 C1547 1.372 . S
C1547 C1546 1.372 . S
C1547 C1548 1.400 1_565 S
C1547 C1552 1.490 . S
C1548 H1538 0.930 . S
C1548 C1547 1.400 1_545 S
C1548 C1551 1.386 . S
H1549 C1565 0.930 . S
H1550 C1566 0.931 . S
C1551 H1539 0.929 . S
C1551 C1545 1.402 . S
C1551 C1548 1.386 . S
C1552 C1547 1.490 . S
C1552 C1554 1.395 . S
C1552 C1555 1.403 1_565 S
H1553 C1559 0.930 . S
C1554 H1540 0.930 . S
C1554 C1552 1.395 . S
C1554 C1557 1.403 . S
C1555 C1552 1.403 1_545 S
C1555 C1556 1.524 . S
C1555 C1559 1.400 . S
C1556 H1541 0.960 . S
C1556 H1542 0.960 . S
C1556 H1543 0.960 . S
C1556 C1555 1.524 . S
C1557 C1554 1.403 . S
C1557 C1558 1.392 . S
C1557 C1561 1.495 . S
C1558 C1557 1.392 . S
C1558 C1559 1.385 1_565 S
C1558 C1560 1.478 . S
C1559 H1553 0.930 . S
C1559 C1555 1.400 . S
C1559 C1558 1.385 1_545 S
C1560 C1558 1.478 . S
C1560 C1562 1.381 . S
C1560 C1566 1.383 . S
C1561 C1557 1.495 . S
C1561 H1567 0.959 . S
C1561 H1568 0.961 . S
C1561 H1569 0.960 . S
C1562 C1560 1.381 . S
C1562 C1563 1.394 . S
C1562 H1570 0.930 . S
C1563 C1562 1.394 . S
C1563 C1564 1.383 . S
C1563 H1571 0.929 . S
C1564 C1563 1.383 . S
C1564 C1565 1.377 . S
C1565 H1549 0.930 . S
C1565 C1564 1.377 . S
C1565 C1566 1.379 . S
C1566 H1550 0.931 . S
C1566 C1560 1.383 . S
C1566 C1565 1.379 . S
H1567 C1561 0.959 . S
H1568 C1561 0.961 . S
H1569 C1561 0.960 . S
H1570 C1562 0.930 . S
H1571 C1563 0.929 . S
H1572 C1580 0.929 . S
H1573 C1582 0.930 . S
H1574 C1584 0.930 . S
H1575 C1587 0.929 . S
H1576 C1590 0.930 . S
H1577 C1592 0.960 . S
H1578 C1592 0.960 . S
H1579 C1592 0.960 . S
C1580 H1572 0.929 . S
C1580 C1581 1.377 . S
C1580 C1582 1.384 . S
C1581 C1580 1.377 . S
C1581 C1587 1.390 . S
C1582 H1573 0.930 . S
C1582 C1580 1.384 . S
C1582 C1583 1.372 . S
C1583 C1582 1.372 . S
C1583 C1584 1.400 . S
C1583 C1588 1.490 . S
C1584 H1574 0.930 . S
C1584 C1583 1.400 . S
C1584 C1587 1.386 . S
H1585 C1601 0.930 . S
H1586 C1602 0.931 . S
C1587 H1575 0.929 . S
C1587 C1581 1.390 . S
C1587 C1584 1.386 . S
C1588 C1583 1.490 . S
C1588 C1590 1.395 . S
C1588 C1591 1.403 . S
H1589 C1595 0.930 . S
C1590 H1576 0.930 . S
C1590 C1588 1.395 . S
C1590 C1593 1.403 . S
C1591 C1588 1.403 . S
C1591 C1592 1.524 . S
C1591 C1595 1.400 . S
C1592 H1577 0.960 . S
C1592 H1578 0.960 . S
C1592 H1579 0.960 . S
C1592 C1591 1.524 . S
C1593 C1590 1.403 . S
C1593 C1594 1.392 . S
C1593 C1597 1.495 . S
C1594 C1593 1.392 . S
C1594 C1595 1.385 . S
C1594 C1596 1.478 . S
C1595 H1589 0.930 . S
C1595 C1591 1.400 . S
C1595 C1594 1.385 . S
C1596 C1594 1.478 . S
C1596 C1598 1.381 . S
C1596 C1602 1.383 . S
C1597 C1593 1.495 . S
C1597 H1603 0.959 . S
C1597 H1604 0.961 . S
C1597 H1605 0.960 . S
C1598 C1596 1.381 . S
C1598 C1599 1.394 . S
C1598 H1606 0.930 . S
C1599 C1598 1.394 . S
C1599 C1600 1.383 . S
C1599 H1607 0.929 . S
C1600 C1599 1.383 . S
C1600 C1601 1.377 . S
C1601 H1585 0.930 . S
C1601 C1600 1.377 . S
C1601 C1602 1.379 . S
C1602 H1586 0.931 . S
C1602 C1596 1.383 . S
C1602 C1601 1.379 . S
H1603 C1597 0.959 . S
H1604 C1597 0.961 . S
H1605 C1597 0.960 . S
H1606 C1598 0.930 . S
H1607 C1599 0.929 . S
H1608 C1616 0.929 . S
H1609 C1618 0.930 . S
H1610 C1620 0.930 . S
H1611 C1623 0.929 . S
H1612 C1626 0.930 . S
H1613 C1628 0.960 . S
H1614 C1628 0.960 . S
H1615 C1628 0.960 . S
C1616 H1608 0.929 . S
C1616 C1617 1.377 . S
C1616 C1618 1.384 . S
C1617 C1616 1.377 . S
C1617 C1623 1.390 . S
C1618 H1609 0.930 . S
C1618 C1616 1.384 . S
C1618 C1619 1.372 . S
C1619 C1618 1.372 . S
C1619 C1620 1.400 . S
C1619 C1624 1.490 . S
C1620 H1610 0.930 . S
C1620 C1619 1.400 . S
C1620 C1623 1.386 . S
H1621 C1637 0.930 . S
H1622 C1638 0.931 . S
C1623 H1611 0.929 . S
C1623 C1617 1.390 . S
C1623 C1620 1.386 . S
C1624 C1619 1.490 . S
C1624 C1626 1.395 . S
C1624 C1627 1.403 . S
H1625 C1631 0.930 . S
C1626 H1612 0.930 . S
C1626 C1624 1.395 . S
C1626 C1629 1.403 . S
C1627 C1624 1.403 . S
C1627 C1628 1.524 . S
C1627 C1631 1.400 . S
C1628 H1613 0.960 . S
C1628 H1614 0.960 . S
C1628 H1615 0.960 . S
C1628 C1627 1.524 . S
C1629 C1626 1.403 . S
C1629 C1630 1.392 . S
C1629 C1633 1.495 . S
C1630 C1629 1.392 . S
C1630 C1631 1.385 . S
C1630 C1632 1.478 . S
C1631 H1625 0.930 . S
C1631 C1627 1.400 . S
C1631 C1630 1.385 . S
C1632 C1630 1.478 . S
C1632 C1634 1.381 . S
C1632 C1638 1.383 . S
C1633 C1629 1.495 . S
C1633 H1639 0.959 . S
C1633 H1640 0.961 . S
C1633 H1641 0.960 . S
C1634 C1632 1.381 . S
C1634 C1635 1.394 . S
C1634 H1642 0.930 . S
C1635 C1634 1.394 . S
C1635 C1636 1.383 . S
C1635 H1643 0.929 . S
C1636 C1635 1.383 . S
C1636 C1637 1.377 . S
C1637 H1621 0.930 . S
C1637 C1636 1.377 . S
C1637 C1638 1.379 . S
C1638 H1622 0.931 . S
C1638 C1632 1.383 . S
C1638 C1637 1.379 . S
H1639 C1633 0.959 . S
H1640 C1633 0.961 . S
H1641 C1633 0.960 . S
H1642 C1634 0.930 . S
H1643 C1635 0.929 . S
H1644 C1652 0.929 . S
H1645 C1654 0.930 . S
H1646 C1656 0.930 . S
H1647 C1659 0.929 . S
H1648 C1662 0.930 . S
H1649 C1664 0.960 . S
H1650 C1664 0.960 . S
H1651 C1664 0.960 . S
C1652 H1644 0.929 . S
C1652 C1653 1.377 . S
C1652 C1654 1.384 . S
C1653 C1652 1.377 . S
C1653 C1659 1.390 . S
C1654 H1645 0.930 . S
C1654 C1652 1.384 . S
C1654 C1655 1.372 . S
C1655 C1654 1.372 . S
C1655 C1656 1.400 . S
C1655 C1660 1.490 . S
C1656 H1646 0.930 . S
C1656 C1655 1.400 . S
C1656 C1659 1.386 . S
H1657 C1673 0.930 . S
H1658 C1674 0.931 . S
C1659 H1647 0.929 . S
C1659 C1653 1.390 . S
C1659 C1656 1.386 . S
C1660 C1655 1.490 . S
C1660 C1662 1.395 . S
C1660 C1663 1.403 . S
H1661 C1667 0.930 . S
C1662 H1648 0.930 . S
C1662 C1660 1.395 . S
C1662 C1665 1.403 . S
C1663 C1660 1.403 . S
C1663 C1664 1.524 . S
C1663 C1667 1.400 . S
C1664 H1649 0.960 . S
C1664 H1650 0.960 . S
C1664 H1651 0.960 . S
C1664 C1663 1.524 . S
C1665 C1662 1.403 . S
C1665 C1666 1.392 . S
C1665 C1669 1.495 . S
C1666 C1665 1.392 . S
C1666 C1667 1.385 . S
C1666 C1668 1.478 . S
C1667 H1661 0.930 . S
C1667 C1663 1.400 . S
C1667 C1666 1.385 . S
C1668 C1666 1.478 . S
C1668 C1670 1.381 . S
C1668 C1674 1.383 . S
C1669 C1665 1.495 . S
C1669 H1675 0.959 . S
C1669 H1676 0.961 . S
C1669 H1677 0.960 . S
C1670 C1668 1.381 . S
C1670 C1671 1.394 . S
C1670 H1678 0.930 . S
C1671 C1670 1.394 . S
C1671 C1672 1.383 . S
C1671 H1679 0.929 . S
C1672 C1671 1.383 . S
C1672 C1673 1.377 . S
C1673 H1657 0.930 . S
C1673 C1672 1.377 . S
C1673 C1674 1.379 . S
C1674 H1658 0.931 . S
C1674 C1668 1.383 . S
C1674 C1673 1.379 . S
H1675 C1669 0.959 . S
H1676 C1669 0.961 . S
H1677 C1669 0.960 . S
H1678 C1670 0.930 . S
H1679 C1671 0.929 . S
H1680 C1688 0.929 . S
H1681 C1690 0.930 . S
H1682 C1692 0.930 . S
H1683 C1695 0.929 . S
H1684 C1698 0.930 . S
H1685 C1700 0.960 . S
H1686 C1700 0.960 . S
H1687 C1700 0.960 . S
C1688 H1680 0.929 . S
C1688 C1689 1.377 . S
C1688 C1690 1.384 . S
C1689 C1688 1.377 . S
C1689 C1695 1.390 . S
C1690 H1681 0.930 . S
C1690 C1688 1.384 . S
C1690 C1691 1.372 . S
C1691 C1690 1.372 . S
C1691 C1692 1.400 . S
C1691 C1696 1.490 . S
C1692 H1682 0.930 . S
C1692 C1691 1.400 . S
C1692 C1695 1.386 . S
H1693 C1709 0.930 . S
H1694 C1710 0.931 . S
C1695 H1683 0.929 . S
C1695 C1689 1.390 . S
C1695 C1692 1.386 . S
C1696 C1691 1.490 . S
C1696 C1698 1.395 . S
C1696 C1699 1.403 . S
H1697 C1703 0.930 . S
C1698 H1684 0.930 . S
C1698 C1696 1.395 . S
C1698 C1701 1.403 . S
C1699 C1696 1.403 . S
C1699 C1700 1.524 . S
C1699 C1703 1.400 . S
C1700 H1685 0.960 . S
C1700 H1686 0.960 . S
C1700 H1687 0.960 . S
C1700 C1699 1.524 . S
C1701 C1698 1.403 . S
C1701 C1702 1.392 . S
C1701 C1705 1.495 . S
C1702 C1701 1.392 . S
C1702 C1703 1.385 . S
C1702 C1704 1.478 . S
C1703 H1697 0.930 . S
C1703 C1699 1.400 . S
C1703 C1702 1.385 . S
C1704 C1702 1.478 . S
C1704 C1706 1.381 . S
C1704 C1710 1.383 . S
C1705 C1701 1.495 . S
C1705 H1711 0.959 . S
C1705 H1712 0.961 . S
C1705 H1713 0.960 . S
C1706 C1704 1.381 . S
C1706 C1707 1.394 . S
C1706 H1714 0.930 . S
C1707 C1706 1.394 . S
C1707 C1708 1.383 . S
C1707 H1715 0.929 . S
C1708 C1707 1.383 . S
C1708 C1709 1.377 . S
C1709 H1693 0.930 . S
C1709 C1708 1.377 . S
C1709 C1710 1.379 . S
C1710 H1694 0.931 . S
C1710 C1704 1.383 . S
C1710 C1709 1.379 . S
H1711 C1705 0.959 . S
H1712 C1705 0.961 . S
H1713 C1705 0.960 . S
H1714 C1706 0.930 . S
H1715 C1707 0.929 . S
H1716 C1724 0.929 . S
H1717 C1726 0.930 . S
H1718 C1728 0.930 . S
H1719 C1731 0.929 . S
H1720 C1734 0.930 . S
H1721 C1736 0.960 . S
H1722 C1736 0.960 . S
H1723 C1736 0.960 . S
C1724 H1716 0.929 . S
C1724 C1725 1.377 . S
C1724 C1726 1.384 . S
C1725 C1724 1.377 . S
C1725 C1731 1.390 . S
C1726 H1717 0.930 . S
C1726 C1724 1.384 . S
C1726 C1727 1.372 . S
C1727 C1726 1.372 . S
C1727 C1728 1.400 . S
C1727 C1732 1.490 . S
C1728 H1718 0.930 . S
C1728 C1727 1.400 . S
C1728 C1731 1.386 . S
H1729 C1745 0.930 . S
H1730 C1746 0.931 . S
C1731 H1719 0.929 . S
C1731 C1725 1.390 . S
C1731 C1728 1.386 . S
C1732 C1727 1.490 . S
C1732 C1734 1.395 . S
C1732 C1735 1.403 . S
H1733 C1739 0.930 . S
C1734 H1720 0.930 . S
C1734 C1732 1.395 . S
C1734 C1737 1.403 . S
C1735 C1732 1.403 . S
C1735 C1736 1.524 . S
C1735 C1739 1.400 . S
C1736 H1721 0.960 . S
C1736 H1722 0.960 . S
C1736 H1723 0.960 . S
C1736 C1735 1.524 . S
C1737 C1734 1.403 . S
C1737 C1738 1.392 . S
C1737 C1741 1.495 . S
C1738 C1737 1.392 . S
C1738 C1739 1.385 . S
C1738 C1740 1.478 . S
C1739 H1733 0.930 . S
C1739 C1735 1.400 . S
C1739 C1738 1.385 . S
C1740 C1738 1.478 . S
C1740 C1742 1.381 . S
C1740 C1746 1.383 . S
C1741 C1737 1.495 . S
C1741 H1747 0.959 . S
C1741 H1748 0.961 . S
C1741 H1749 0.960 . S
C1742 C1740 1.381 . S
C1742 C1743 1.394 . S
C1742 H1750 0.930 . S
C1743 C1742 1.394 . S
C1743 C1744 1.383 . S
C1743 H1751 0.929 . S
C1744 C1743 1.383 . S
C1744 C1745 1.377 . S
C1745 H1729 0.930 . S
C1745 C1744 1.377 . S
C1745 C1746 1.379 . S
C1746 H1730 0.931 . S
C1746 C1740 1.383 . S
C1746 C1745 1.379 . S
H1747 C1741 0.959 . S
H1748 C1741 0.961 . S
H1749 C1741 0.960 . S
H1750 C1742 0.930 . S
H1751 C1743 0.929 . S
H1752 C1760 0.929 . S
H1753 C1762 0.930 . S
H1754 C1764 0.930 . S
H1755 C1767 0.929 . S
H1756 C1770 0.930 . S
H1757 C1772 0.960 . S
H1758 C1772 0.960 1_565 S
H1759 C1772 0.960 . S
C1760 H1752 0.929 . S
C1760 C1761 1.349 1_565 S
C1760 C1762 1.384 . S
C1761 C1760 1.349 1_545 S
C1761 C1767 1.416 . S
C1762 H1753 0.930 . S
C1762 C1760 1.384 . S
C1762 C1763 1.372 . S
C1763 C1762 1.372 . S
C1763 C1764 1.400 1_565 S
C1763 C1768 1.490 . S
C1764 H1754 0.930 . S
C1764 C1763 1.400 1_545 S
C1764 C1767 1.386 . S
H1765 C1781 0.930 . S
H1766 C1782 0.931 . S
C1767 H1755 0.929 . S
C1767 C1761 1.416 . S
C1767 C1764 1.386 . S
C1768 C1763 1.490 . S
C1768 C1770 1.395 . S
C1768 C1771 1.387 1_565 S
H1769 C1775 0.921 1_545 S
C1770 H1756 0.930 . S
C1770 C1768 1.395 . S
C1770 C1773 1.403 . S
C1771 C1768 1.387 1_545 S
C1771 C1772 1.545 . S
C1771 C1775 1.396 1_545 S
C1772 H1757 0.960 . S
C1772 H1758 0.960 1_545 S
C1772 H1759 0.960 . S
C1772 C1771 1.545 . S
C1773 C1770 1.403 . S
C1773 C1774 1.392 . S
C1773 C1777 1.495 . S
C1774 C1773 1.392 . S
C1774 C1775 1.397 . S
C1774 C1776 1.478 . S
C1775 H1769 0.921 1_565 S
C1775 C1771 1.396 1_565 S
C1775 C1774 1.397 . S
C1776 C1774 1.478 . S
C1776 C1778 1.381 . S
C1776 C1782 1.383 1_565 S
C1777 C1773 1.495 . S
C1777 H1783 0.959 . S
C1777 H1784 0.961 . S
C1777 H1785 0.960 . S
C1778 C1776 1.381 . S
C1778 C1779 1.394 . S
C1778 H1786 0.930 . S
C1779 C1778 1.394 . S
C1779 C1780 1.383 . S
C1779 H1787 0.929 . S
C1780 C1779 1.383 . S
C1780 C1781 1.377 1_565 S
C1781 H1765 0.930 . S
C1781 C1780 1.377 1_545 S
C1781 C1782 1.379 . S
C1782 H1766 0.931 . S
C1782 C1776 1.383 1_545 S
C1782 C1781 1.379 . S
H1783 C1777 0.959 . S
H1784 C1777 0.961 . S
H1785 C1777 0.960 . S
H1786 C1778 0.930 . S
H1787 C1779 0.929 . S
H1788 C1796 0.929 . S
H1789 C1798 0.930 . S
H1790 C1800 0.930 . S
H1791 C1803 0.929 . S
H1792 C1806 0.930 . S
H1793 C1808 0.960 . S
H1794 C1808 0.960 . S
H1795 C1808 0.960 . S
C1796 H1788 0.929 . S
C1796 C1797 1.410 . S
C1796 C1798 1.384 . S
C1797 C1796 1.410 . S
C1797 C1803 1.355 1_554 S
C1798 H1789 0.930 . S
C1798 C1796 1.384 . S
C1798 C1799 1.312 1_554 S
C1799 C1798 1.312 1_556 S
C1799 C1800 1.457 . S
C1799 C1804 1.496 . S
C1800 H1790 0.930 . S
C1800 C1799 1.457 . S
C1800 C1803 1.386 . S
H1801 C1817 0.930 . S
H1802 C1818 0.931 . S
C1803 H1791 0.929 . S
C1803 C1797 1.355 1_556 S
C1803 C1800 1.386 . S
C1804 C1799 1.496 . S
C1804 C1806 1.395 1_556 S
C1804 C1807 1.403 . S
H1805 C1811 0.930 . S
C1806 H1792 0.930 . S
C1806 C1804 1.395 1_554 S
C1806 C1809 1.403 . S
C1807 C1804 1.403 . S
C1807 C1808 1.524 . S
C1807 C1811 1.400 . S
C1808 H1793 0.960 . S
C1808 H1794 0.960 . S
C1808 H1795 0.960 . S
C1808 C1807 1.524 . S
C1809 C1806 1.403 . S
C1809 C1810 1.392 1_554 S
C1809 C1813 1.495 . S
C1810 C1809 1.392 1_556 S
C1810 C1811 1.385 . S
C1810 C1812 1.478 . S
C1811 H1805 0.930 . S
C1811 C1807 1.400 . S
C1811 C1810 1.385 . S
C1812 C1810 1.478 . S
C1812 C1814 1.381 1_556 S
C1812 C1818 1.383 . S
C1813 C1809 1.495 . S
C1813 H1819 0.959 . S
C1813 H1820 0.993 . S
C1813 H1821 0.960 . S
C1814 C1812 1.381 1_554 S
C1814 C1815 1.394 . S
C1814 H1822 0.930 . S
C1815 C1814 1.394 . S
C1815 C1816 1.383 1_554 S
C1815 H1823 0.929 . S
C1816 C1815 1.383 1_556 S
C1816 C1817 1.377 . S
C1817 H1801 0.930 . S
C1817 C1816 1.377 . S
C1817 C1818 1.379 . S
C1818 H1802 0.931 . S
C1818 C1812 1.383 . S
C1818 C1817 1.379 . S
H1819 C1813 0.959 . S
H1820 C1813 0.993 . S
H1821 C1813 0.960 . S
H1822 C1814 0.930 . S
H1823 C1815 0.929 . S
H1824 C1832 0.929 . S
H1825 C1834 0.930 . S
H1826 C1836 0.930 . S
H1827 C1839 0.929 . S
H1828 C1842 0.930 . S
H1829 C1844 0.960 . S
H1830 C1844 0.960 . S
H1831 C1844 0.960 . S
C1832 H1824 0.929 . S
C1832 C1833 1.377 . S
C1832 C1834 1.384 . S
C1833 C1832 1.377 . S
C1833 C1839 1.390 . S
C1834 H1825 0.930 . S
C1834 C1832 1.384 . S
C1834 C1835 1.372 . S
C1835 C1834 1.372 . S
C1835 C1836 1.400 . S
C1835 C1840 1.490 . S
C1836 H1826 0.930 . S
C1836 C1835 1.400 . S
C1836 C1839 1.386 . S
H1837 C1853 0.930 . S
H1838 C1854 0.931 . S
C1839 H1827 0.929 . S
C1839 C1833 1.390 . S
C1839 C1836 1.386 . S
C1840 C1835 1.490 . S
C1840 C1842 1.395 . S
C1840 C1843 1.403 . S
H1841 C1847 0.930 . S
C1842 H1828 0.930 . S
C1842 C1840 1.395 . S
C1842 C1845 1.403 . S
C1843 C1840 1.403 . S
C1843 C1844 1.524 . S
C1843 C1847 1.400 . S
C1844 H1829 0.960 . S
C1844 H1830 0.960 . S
C1844 H1831 0.960 . S
C1844 C1843 1.524 . S
C1845 C1842 1.403 . S
C1845 C1846 1.392 . S
C1845 C1849 1.495 . S
C1846 C1845 1.392 . S
C1846 C1847 1.385 . S
C1846 C1848 1.478 . S
C1847 H1841 0.930 . S
C1847 C1843 1.400 . S
C1847 C1846 1.385 . S
C1848 C1846 1.478 . S
C1848 C1850 1.381 . S
C1848 C1854 1.383 . S
C1849 C1845 1.495 . S
C1849 H1855 0.959 . S
C1849 H1856 0.961 . S
C1849 H1857 0.960 . S
C1850 C1848 1.381 . S
C1850 C1851 1.394 . S
C1850 H1858 0.930 . S
C1851 C1850 1.394 . S
C1851 C1852 1.383 . S
C1851 H1859 0.929 . S
C1852 C1851 1.383 . S
C1852 C1853 1.377 . S
C1853 H1837 0.930 . S
C1853 C1852 1.377 . S
C1853 C1854 1.379 . S
C1854 H1838 0.931 . S
C1854 C1848 1.383 . S
C1854 C1853 1.379 . S
H1855 C1849 0.959 . S
H1856 C1849 0.961 . S
H1857 C1849 0.960 . S
H1858 C1850 0.930 . S
H1859 C1851 0.929 . S
H1860 C1868 0.929 . S
H1861 C1870 0.930 . S
H1862 C1872 0.930 . S
H1863 C1875 0.929 . S
H1864 C1878 0.930 . S
H1865 C1880 0.960 . S
H1866 C1880 0.960 . S
H1867 C1880 0.960 . S
C1868 H1860 0.929 . S
C1868 C1869 1.377 . S
C1868 C1870 1.384 . S
C1869 C1868 1.377 . S
C1869 C1875 1.390 . S
C1870 H1861 0.930 . S
C1870 C1868 1.384 . S
C1870 C1871 1.372 . S
C1871 C1870 1.372 . S
C1871 C1872 1.400 . S
C1871 C1876 1.490 . S
C1872 H1862 0.930 . S
C1872 C1871 1.400 . S
C1872 C1875 1.386 . S
H1873 C1889 0.930 . S
H1874 C1890 0.931 . S
C1875 H1863 0.929 . S
C1875 C1869 1.390 . S
C1875 C1872 1.386 . S
C1876 C1871 1.490 . S
C1876 C1878 1.395 . S
C1876 C1879 1.403 . S
H1877 C1883 0.930 . S
C1878 H1864 0.930 . S
C1878 C1876 1.395 . S
C1878 C1881 1.403 . S
C1879 C1876 1.403 . S
C1879 C1880 1.524 . S
C1879 C1883 1.400 . S
C1880 H1865 0.960 . S
C1880 H1866 0.960 . S
C1880 H1867 0.960 . S
C1880 C1879 1.524 . S
C1881 C1878 1.403 . S
C1881 C1882 1.392 . S
C1881 C1885 1.495 . S
C1882 C1881 1.392 . S
C1882 C1883 1.385 . S
C1882 C1884 1.478 . S
C1883 H1877 0.930 . S
C1883 C1879 1.400 . S
C1883 C1882 1.385 . S
C1884 C1882 1.478 . S
C1884 C1886 1.381 . S
C1884 C1890 1.383 . S
C1885 C1881 1.495 . S
C1885 H1891 0.959 . S
C1885 H1892 0.961 . S
C1885 H1893 0.960 . S
C1886 C1884 1.381 . S
C1886 C1887 1.394 . S
C1886 H1894 0.930 . S
C1887 C1886 1.394 . S
C1887 C1888 1.383 . S
C1887 H1895 0.929 . S
C1888 C1887 1.383 . S
C1888 C1889 1.377 . S
C1889 H1873 0.930 . S
C1889 C1888 1.377 . S
C1889 C1890 1.379 . S
C1890 H1874 0.931 . S
C1890 C1884 1.383 . S
C1890 C1889 1.379 . S
H1891 C1885 0.959 . S
H1892 C1885 0.961 . S
H1893 C1885 0.960 . S
H1894 C1886 0.930 . S
H1895 C1887 0.929 . S
H1896 C1904 0.929 . S
H1897 C1906 0.930 . S
H1898 C1908 0.930 . S
H1899 C1911 0.929 . S
H1900 C1914 0.930 . S
H1901 C1916 0.960 . S
H1902 C1916 0.960 . S
H1903 C1916 0.960 . S
C1904 H1896 0.929 . S
C1904 C1905 1.377 . S
C1904 C1906 1.384 . S
C1905 C1904 1.377 . S
C1905 C1911 1.390 . S
C1906 H1897 0.930 . S
C1906 C1904 1.384 . S
C1906 C1907 1.372 . S
C1907 C1906 1.372 . S
C1907 C1908 1.400 . S
C1907 C1912 1.490 . S
C1908 H1898 0.930 . S
C1908 C1907 1.400 . S
C1908 C1911 1.386 . S
H1909 C1925 0.930 . S
H1910 C1926 0.931 . S
C1911 H1899 0.929 . S
C1911 C1905 1.390 . S
C1911 C1908 1.386 . S
C1912 C1907 1.490 . S
C1912 C1914 1.395 . S
C1912 C1915 1.403 . S
H1913 C1919 0.930 . S
C1914 H1900 0.930 . S
C1914 C1912 1.395 . S
C1914 C1917 1.403 . S
C1915 C1912 1.403 . S
C1915 C1916 1.524 . S
C1915 C1919 1.400 . S
C1916 H1901 0.960 . S
C1916 H1902 0.960 . S
C1916 H1903 0.960 . S
C1916 C1915 1.524 . S
C1917 C1914 1.403 . S
C1917 C1918 1.392 . S
C1917 C1921 1.495 . S
C1918 C1917 1.392 . S
C1918 C1919 1.385 . S
C1918 C1920 1.478 . S
C1919 H1913 0.930 . S
C1919 C1915 1.400 . S
C1919 C1918 1.385 . S
C1920 C1918 1.478 . S
C1920 C1922 1.381 . S
C1920 C1926 1.383 . S
C1921 C1917 1.495 . S
C1921 H1927 0.959 . S
C1921 H1928 0.961 . S
C1921 H1929 0.960 . S
C1922 C1920 1.381 . S
C1922 C1923 1.394 . S
C1922 H1930 0.930 . S
C1923 C1922 1.394 . S
C1923 C1924 1.383 . S
C1923 H1931 0.929 . S
C1924 C1923 1.383 . S
C1924 C1925 1.377 . S
C1925 H1909 0.930 . S
C1925 C1924 1.377 . S
C1925 C1926 1.379 . S
C1926 H1910 0.931 . S
C1926 C1920 1.383 . S
C1926 C1925 1.379 . S
H1927 C1921 0.959 . S
H1928 C1921 0.961 . S
H1929 C1921 0.960 . S
H1930 C1922 0.930 . S
H1931 C1923 0.929 . S
H1932 C1940 0.929 . S
H1933 C1942 0.930 . S
H1934 C1944 0.930 . S
H1935 C1947 0.929 . S
H1936 C1950 0.930 . S
H1937 C1952 0.960 . S
H1938 C1952 0.960 . S
H1939 C1952 0.960 . S
C1940 H1932 0.929 . S
C1940 C1941 1.377 . S
C1940 C1942 1.384 . S
C1941 C1940 1.377 . S
C1941 C1947 1.390 . S
C1942 H1933 0.930 . S
C1942 C1940 1.384 . S
C1942 C1943 1.372 . S
C1943 C1942 1.372 . S
C1943 C1944 1.400 . S
C1943 C1948 1.490 . S
C1944 H1934 0.930 . S
C1944 C1943 1.400 . S
C1944 C1947 1.386 . S
H1945 C1961 0.930 . S
H1946 C1962 0.931 . S
C1947 H1935 0.929 . S
C1947 C1941 1.390 . S
C1947 C1944 1.386 . S
C1948 C1943 1.490 . S
C1948 C1950 1.395 . S
C1948 C1951 1.403 . S
H1949 C1955 0.930 . S
C1950 H1936 0.930 . S
C1950 C1948 1.395 . S
C1950 C1953 1.403 . S
C1951 C1948 1.403 . S
C1951 C1952 1.524 . S
C1951 C1955 1.400 . S
C1952 H1937 0.960 . S
C1952 H1938 0.960 . S
C1952 H1939 0.960 . S
C1952 C1951 1.524 . S
C1953 C1950 1.403 . S
C1953 C1954 1.392 . S
C1953 C1957 1.495 . S
C1954 C1953 1.392 . S
C1954 C1955 1.385 . S
C1954 C1956 1.478 . S
C1955 H1949 0.930 . S
C1955 C1951 1.400 . S
C1955 C1954 1.385 . S
C1956 C1954 1.478 . S
C1956 C1958 1.381 . S
C1956 C1962 1.383 . S
C1957 C1953 1.495 . S
C1957 H1963 0.959 . S
C1957 H1964 0.961 . S
C1957 H1965 0.960 . S
C1958 C1956 1.381 . S
C1958 C1959 1.394 . S
C1958 H1966 0.930 . S
C1959 C1958 1.394 . S
C1959 C1960 1.383 . S
C1959 H1967 0.929 . S
C1960 C1959 1.383 . S
C1960 C1961 1.377 . S
C1961 H1945 0.930 . S
C1961 C1960 1.377 . S
C1961 C1962 1.379 . S
C1962 H1946 0.931 . S
C1962 C1956 1.383 . S
C1962 C1961 1.379 . S
H1963 C1957 0.959 . S
H1964 C1957 0.961 . S
H1965 C1957 0.960 . S
H1966 C1958 0.930 . S
H1967 C1959 0.929 . S
H1968 C1976 0.929 . S
H1969 C1978 0.930 . S
H1970 C1980 0.930 . S
H1971 C1983 0.929 . S
H1972 C1986 0.930 . S
H1973 C1988 0.960 . S
H1974 C1988 0.960 . S
H1975 C1988 0.960 . S
C1976 H1968 0.929 . S
C1976 C1977 1.377 . S
C1976 C1978 1.384 . S
C1977 C1976 1.377 . S
C1977 C1983 1.390 . S
C1978 H1969 0.930 . S
C1978 C1976 1.384 . S
C1978 C1979 1.372 . S
C1979 C1978 1.372 . S
C1979 C1980 1.400 . S
C1979 C1984 1.490 . S
C1980 H1970 0.930 . S
C1980 C1979 1.400 . S
C1980 C1983 1.386 . S
H1981 C1997 0.930 . S
H1982 C1998 0.931 . S
C1983 H1971 0.929 . S
C1983 C1977 1.390 . S
C1983 C1980 1.386 . S
C1984 C1979 1.490 . S
C1984 C1986 1.395 . S
C1984 C1987 1.403 . S
H1985 C1991 0.930 . S
C1986 H1972 0.930 . S
C1986 C1984 1.395 . S
C1986 C1989 1.403 . S
C1987 C1984 1.403 . S
C1987 C1988 1.524 . S
C1987 C1991 1.400 . S
C1988 H1973 0.960 . S
C1988 H1974 0.960 . S
C1988 H1975 0.960 . S
C1988 C1987 1.524 . S
C1989 C1986 1.403 . S
C1989 C1990 1.392 . S
C1989 C1993 1.495 . S
C1990 C1989 1.392 . S
C1990 C1991 1.385 . S
C1990 C1992 1.478 . S
C1991 H1985 0.930 . S
C1991 C1987 1.400 . S
C1991 C1990 1.385 . S
C1992 C1990 1.478 . S
C1992 C1994 1.381 . S
C1992 C1998 1.383 . S
C1993 C1989 1.495 . S
C1993 H1999 0.959 . S
C1993 H2000 0.961 . S
C1993 H2001 0.960 . S
C1994 C1992 1.381 . S
C1994 C1995 1.394 . S
C1994 H2002 0.930 . S
C1995 C1994 1.394 . S
C1995 C1996 1.383 . S
C1995 H2003 0.929 . S
C1996 C1995 1.383 . S
C1996 C1997 1.377 . S
C1997 H1981 0.930 . S
C1997 C1996 1.377 . S
C1997 C1998 1.379 . S
C1998 H1982 0.931 . S
C1998 C1992 1.383 . S
C1998 C1997 1.379 . S
H1999 C1993 0.959 . S
H2000 C1993 0.961 . S
H2001 C1993 0.960 . S
H2002 C1994 0.930 . S
H2003 C1995 0.929 . S
H2004 C2012 0.929 . S
H2005 C2014 0.930 . S
H2006 C2016 0.930 . S
H2007 C2019 0.929 . S
H2008 C2022 0.930 . S
H2009 C2024 0.960 . S
H2010 C2024 0.960 . S
H2011 C2024 0.960 . S
C2012 H2004 0.929 . S
C2012 C2013 1.377 . S
C2012 C2014 1.384 . S
C2013 C2012 1.377 . S
C2013 C2019 1.390 . S
C2014 H2005 0.930 . S
C2014 C2012 1.384 . S
C2014 C2015 1.372 . S
C2015 C2014 1.372 . S
C2015 C2016 1.400 . S
C2015 C2020 1.490 . S
C2016 H2006 0.930 . S
C2016 C2015 1.400 . S
C2016 C2019 1.386 . S
H2017 C2033 0.930 . S
H2018 C2034 0.931 . S
C2019 H2007 0.929 . S
C2019 C2013 1.390 . S
C2019 C2016 1.386 . S
C2020 C2015 1.490 . S
C2020 C2022 1.395 . S
C2020 C2023 1.403 . S
H2021 C2027 0.930 . S
C2022 H2008 0.930 . S
C2022 C2020 1.395 . S
C2022 C2025 1.403 . S
C2023 C2020 1.403 . S
C2023 C2024 1.524 . S
C2023 C2027 1.400 . S
C2024 H2009 0.960 . S
C2024 H2010 0.960 . S
C2024 H2011 0.960 . S
C2024 C2023 1.524 . S
C2025 C2022 1.403 . S
C2025 C2026 1.392 . S
C2025 C2029 1.495 . S
C2026 C2025 1.392 . S
C2026 C2027 1.385 . S
C2026 C2028 1.478 . S
C2027 H2021 0.930 . S
C2027 C2023 1.400 . S
C2027 C2026 1.385 . S
C2028 C2026 1.478 . S
C2028 C2030 1.381 . S
C2028 C2034 1.383 . S
C2029 C2025 1.495 . S
C2029 H2035 0.959 . S
C2029 H2036 0.961 . S
C2029 H2037 0.960 . S
C2030 C2028 1.381 . S
C2030 C2031 1.394 . S
C2030 H2038 0.930 . S
C2031 C2030 1.394 . S
C2031 C2032 1.383 . S
C2031 H2039 0.929 . S
C2032 C2031 1.383 . S
C2032 C2033 1.377 . S
C2033 H2017 0.930 . S
C2033 C2032 1.377 . S
C2033 C2034 1.379 . S
C2034 H2018 0.931 . S
C2034 C2028 1.383 . S
C2034 C2033 1.379 . S
H2035 C2029 0.959 . S
H2036 C2029 0.961 . S
H2037 C2029 0.960 . S
H2038 C2030 0.930 . S
H2039 C2031 0.929 . S
H2040 C2048 0.929 . S
H2041 C2050 0.930 . S
H2042 C2052 0.930 . S
H2043 C2055 0.929 . S
H2044 C2058 0.930 . S
H2045 C2060 0.960 . S
H2046 C2060 0.960 . S
H2047 C2060 0.960 . S
C2048 H2040 0.929 . S
C2048 C2049 1.377 . S
C2048 C2050 1.384 . S
C2049 C2048 1.377 . S
C2049 C2055 1.390 . S
C2050 H2041 0.930 . S
C2050 C2048 1.384 . S
C2050 C2051 1.372 . S
C2051 C2050 1.372 . S
C2051 C2052 1.400 . S
C2051 C2056 1.490 . S
C2052 H2042 0.930 . S
C2052 C2051 1.400 . S
C2052 C2055 1.386 . S
H2053 C2069 0.930 . S
H2054 C2070 0.931 . S
C2055 H2043 0.929 . S
C2055 C2049 1.390 . S
C2055 C2052 1.386 . S
C2056 C2051 1.490 . S
C2056 C2058 1.395 . S
C2056 C2059 1.403 . S
H2057 C2063 0.930 . S
C2058 H2044 0.930 . S
C2058 C2056 1.395 . S
C2058 C2061 1.403 . S
C2059 C2056 1.403 . S
C2059 C2060 1.524 . S
C2059 C2063 1.400 . S
C2060 H2045 0.960 . S
C2060 H2046 0.960 . S
C2060 H2047 0.960 . S
C2060 C2059 1.524 . S
C2061 C2058 1.403 . S
C2061 C2062 1.392 . S
C2061 C2065 1.495 . S
C2062 C2061 1.392 . S
C2062 C2063 1.385 . S
C2062 C2064 1.478 . S
C2063 H2057 0.930 . S
C2063 C2059 1.400 . S
C2063 C2062 1.385 . S
C2064 C2062 1.478 . S
C2064 C2066 1.381 . S
C2064 C2070 1.383 . S
C2065 C2061 1.495 . S
C2065 H2071 0.959 . S
C2065 H2072 0.961 . S
C2065 H2073 0.960 . S
C2066 C2064 1.381 . S
C2066 C2067 1.394 . S
C2066 H2074 0.930 . S
C2067 C2066 1.394 . S
C2067 C2068 1.383 . S
C2067 H2075 0.929 . S
C2068 C2067 1.383 . S
C2068 C2069 1.377 . S
C2069 H2053 0.930 . S
C2069 C2068 1.377 . S
C2069 C2070 1.379 . S
C2070 H2054 0.931 . S
C2070 C2064 1.383 . S
C2070 C2069 1.379 . S
H2071 C2065 0.959 . S
H2072 C2065 0.961 . S
H2073 C2065 0.960 . S
H2074 C2066 0.930 . S
H2075 C2067 0.929 . S
H2076 C2084 0.929 . S
H2077 C2086 0.930 . S
H2078 C2088 0.930 . S
H2079 C2091 0.929 . S
H2080 C2094 0.930 . S
H2081 C2096 0.960 . S
H2082 C2096 0.960 . S
H2083 C2096 0.960 . S
C2084 H2076 0.929 . S
C2084 C2085 1.377 . S
C2084 C2086 1.384 . S
C2085 C2084 1.377 . S
C2085 C2091 1.390 . S
C2086 H2077 0.930 . S
C2086 C2084 1.384 . S
C2086 C2087 1.372 . S
C2087 C2086 1.372 . S
C2087 C2088 1.400 . S
C2087 C2092 1.490 . S
C2088 H2078 0.930 . S
C2088 C2087 1.400 . S
C2088 C2091 1.386 . S
H2089 C2105 0.930 . S
H2090 C2106 0.931 . S
C2091 H2079 0.929 . S
C2091 C2085 1.390 . S
C2091 C2088 1.386 . S
C2092 C2087 1.490 . S
C2092 C2094 1.395 . S
C2092 C2095 1.403 . S
H2093 C2099 0.930 . S
C2094 H2080 0.930 . S
C2094 C2092 1.395 . S
C2094 C2097 1.403 . S
C2095 C2092 1.403 . S
C2095 C2096 1.524 . S
C2095 C2099 1.400 . S
C2096 H2081 0.960 . S
C2096 H2082 0.960 . S
C2096 H2083 0.960 . S
C2096 C2095 1.524 . S
C2097 C2094 1.403 . S
C2097 C2098 1.392 . S
C2097 C2101 1.495 . S
C2098 C2097 1.392 . S
C2098 C2099 1.385 . S
C2098 C2100 1.478 . S
C2099 H2093 0.930 . S
C2099 C2095 1.400 . S
C2099 C2098 1.385 . S
C2100 C2098 1.478 . S
C2100 C2102 1.381 . S
C2100 C2106 1.383 . S
C2101 C2097 1.495 . S
C2101 H2107 0.959 . S
C2101 H2108 0.961 . S
C2101 H2109 0.960 . S
C2102 C2100 1.381 . S
C2102 C2103 1.394 . S
C2102 H2110 0.930 . S
C2103 C2102 1.394 . S
C2103 C2104 1.383 . S
C2103 H2111 0.929 . S
C2104 C2103 1.383 . S
C2104 C2105 1.377 . S
C2105 H2089 0.930 . S
C2105 C2104 1.377 . S
C2105 C2106 1.379 . S
C2106 H2090 0.931 . S
C2106 C2100 1.383 . S
C2106 C2105 1.379 . S
H2107 C2101 0.959 . S
H2108 C2101 0.961 . S
H2109 C2101 0.960 . S
H2110 C2102 0.930 . S
H2111 C2103 0.929 . S
H2112 C2120 0.929 . S
H2113 C2122 0.930 . S
H2114 C2124 0.930 . S
H2115 C2127 0.929 . S
H2116 C2130 0.930 . S
H2117 C2132 0.960 . S
H2118 C2132 0.960 . S
H2119 C2132 0.960 . S
C2120 H2112 0.929 . S
C2120 C2121 1.377 . S
C2120 C2122 1.384 . S
C2121 C2120 1.377 . S
C2121 C2127 1.390 . S
C2122 H2113 0.930 . S
C2122 C2120 1.384 . S
C2122 C2123 1.372 . S
C2123 C2122 1.372 . S
C2123 C2124 1.400 . S
C2123 C2128 1.490 . S
C2124 H2114 0.930 . S
C2124 C2123 1.400 . S
C2124 C2127 1.386 . S
H2125 C2141 0.930 . S
H2126 C2142 0.931 . S
C2127 H2115 0.929 . S
C2127 C2121 1.390 . S
C2127 C2124 1.386 . S
C2128 C2123 1.490 . S
C2128 C2130 1.395 . S
C2128 C2131 1.403 . S
H2129 C2135 0.930 . S
C2130 H2116 0.930 . S
C2130 C2128 1.395 . S
C2130 C2133 1.403 . S
C2131 C2128 1.403 . S
C2131 C2132 1.524 . S
C2131 C2135 1.400 . S
C2132 H2117 0.960 . S
C2132 H2118 0.960 . S
C2132 H2119 0.960 . S
C2132 C2131 1.524 . S
C2133 C2130 1.403 . S
C2133 C2134 1.392 . S
C2133 C2137 1.495 . S
C2134 C2133 1.392 . S
C2134 C2135 1.385 . S
C2134 C2136 1.478 . S
C2135 H2129 0.930 . S
C2135 C2131 1.400 . S
C2135 C2134 1.385 . S
C2136 C2134 1.478 . S
C2136 C2138 1.381 . S
C2136 C2142 1.383 . S
C2137 C2133 1.495 . S
C2137 H2143 0.959 . S
C2137 H2144 0.961 . S
C2137 H2145 0.960 . S
C2138 C2136 1.381 . S
C2138 C2139 1.394 . S
C2138 H2146 0.930 . S
C2139 C2138 1.394 . S
C2139 C2140 1.383 . S
C2139 H2147 0.929 . S
C2140 C2139 1.383 . S
C2140 C2141 1.377 . S
C2141 H2125 0.930 . S
C2141 C2140 1.377 . S
C2141 C2142 1.379 . S
C2142 H2126 0.931 . S
C2142 C2136 1.383 . S
C2142 C2141 1.379 . S
H2143 C2137 0.959 . S
H2144 C2137 0.961 . S
H2145 C2137 0.960 . S
H2146 C2138 0.930 . S
H2147 C2139 0.929 . S
H2148 C2156 0.929 . S
H2149 C2158 0.930 . S
H2150 C2160 0.930 . S
H2151 C2163 0.929 . S
H2152 C2166 0.930 . S
H2153 C2168 0.960 . S
H2154 C2168 0.960 . S
H2155 C2168 0.960 . S
C2156 H2148 0.929 . S
C2156 C2157 1.377 . S
C2156 C2158 1.384 . S
C2157 C2156 1.377 . S
C2157 C2163 1.390 . S
C2158 H2149 0.930 . S
C2158 C2156 1.384 . S
C2158 C2159 1.372 . S
C2159 C2158 1.372 . S
C2159 C2160 1.400 . S
C2159 C2164 1.490 . S
C2160 H2150 0.930 . S
C2160 C2159 1.400 . S
C2160 C2163 1.386 . S
H2161 C2177 0.930 . S
H2162 C2178 0.931 . S
C2163 H2151 0.929 . S
C2163 C2157 1.390 . S
C2163 C2160 1.386 . S
C2164 C2159 1.490 . S
C2164 C2166 1.395 . S
C2164 C2167 1.403 . S
H2165 C2171 0.930 . S
C2166 H2152 0.930 . S
C2166 C2164 1.395 . S
C2166 C2169 1.403 . S
C2167 C2164 1.403 . S
C2167 C2168 1.524 . S
C2167 C2171 1.400 . S
C2168 H2153 0.960 . S
C2168 H2154 0.960 . S
C2168 H2155 0.960 . S
C2168 C2167 1.524 . S
C2169 C2166 1.403 . S
C2169 C2170 1.392 . S
C2169 C2173 1.495 . S
C2170 C2169 1.392 . S
C2170 C2171 1.385 . S
C2170 C2172 1.478 . S
C2171 H2165 0.930 . S
C2171 C2167 1.400 . S
C2171 C2170 1.385 . S
C2172 C2170 1.478 . S
C2172 C2174 1.381 . S
C2172 C2178 1.383 . S
C2173 C2169 1.495 . S
C2173 H2179 0.959 . S
C2173 H2180 0.961 . S
C2173 H2181 0.960 . S
C2174 C2172 1.381 . S
C2174 C2175 1.394 . S
C2174 H2182 0.930 . S
C2175 C2174 1.394 . S
C2175 C2176 1.383 . S
C2175 H2183 0.929 . S
C2176 C2175 1.383 . S
C2176 C2177 1.377 . S
C2177 H2161 0.930 . S
C2177 C2176 1.377 . S
C2177 C2178 1.379 . S
C2178 H2162 0.931 . S
C2178 C2172 1.383 . S
C2178 C2177 1.379 . S
H2179 C2173 0.959 . S
H2180 C2173 0.961 . S
H2181 C2173 0.960 . S
H2182 C2174 0.930 . S
H2183 C2175 0.929 . S
H2184 C2192 0.929 . S
H2185 C2194 0.930 . S
H2186 C2196 0.930 . S
H2187 C2199 0.929 . S
H2188 C2202 0.930 . S
H2189 C2204 0.960 . S
H2190 C2204 0.960 . S
H2191 C2204 0.960 . S
C2192 H2184 0.929 . S
C2192 C2193 1.377 . S
C2192 C2194 1.384 . S
C2193 C2192 1.377 . S
C2193 C2199 1.390 1_556 S
C2194 H2185 0.930 . S
C2194 C2192 1.384 . S
C2194 C2195 1.372 . S
C2195 C2194 1.372 . S
C2195 C2196 1.400 1_556 S
C2195 C2200 1.490 . S
C2196 H2186 0.930 . S
C2196 C2195 1.400 1_554 S
C2196 C2199 1.386 . S
H2197 C2213 0.930 . S
H2198 C2214 0.931 . S
C2199 H2187 0.929 . S
C2199 C2193 1.390 1_554 S
C2199 C2196 1.386 . S
C2200 C2195 1.490 . S
C2200 C2202 1.395 . S
C2200 C2203 1.403 . S
H2201 C2207 0.930 . S
C2202 H2188 0.930 . S
C2202 C2200 1.395 . S
C2202 C2205 1.403 . S
C2203 C2200 1.403 . S
C2203 C2204 1.524 . S
C2203 C2207 1.400 . S
C2204 H2189 0.960 . S
C2204 H2190 0.960 . S
C2204 H2191 0.960 . S
C2204 C2203 1.524 . S
C2205 C2202 1.403 . S
C2205 C2206 1.392 . S
C2205 C2209 1.491 1_556 S
C2206 C2205 1.392 . S
C2206 C2207 1.385 . S
C2206 C2208 1.478 . S
C2207 H2201 0.930 . S
C2207 C2203 1.400 . S
C2207 C2206 1.385 . S
C2208 C2206 1.478 . S
C2208 C2210 1.381 . S
C2208 C2214 1.383 1_556 S
C2209 C2205 1.491 1_554 S
C2209 H2215 0.959 . S
C2209 H2216 0.993 . S
C2209 H2217 0.932 1_554 S
C2210 C2208 1.381 . S
C2210 C2211 1.394 . S
C2210 H2218 0.930 . S
C2211 C2210 1.394 . S
C2211 C2212 1.347 1_556 S
C2211 H2219 0.929 . S
C2212 C2211 1.347 1_554 S
C2212 C2213 1.411 . S
C2213 H2197 0.930 . S
C2213 C2212 1.411 . S
C2213 C2214 1.379 . S
C2214 H2198 0.931 . S
C2214 C2208 1.383 1_554 S
C2214 C2213 1.379 . S
H2215 C2209 0.959 . S
H2216 C2209 0.993 . S
H2217 C2209 0.932 1_556 S
H2218 C2210 0.930 . S
H2219 C2211 0.929 . S
H2220 C2228 0.929 . S
H2221 C2230 0.930 . S
H2222 C2232 0.930 . S
H2223 C2235 0.929 . S
H2224 C2238 0.930 . S
H2225 C2240 0.960 . S
H2226 C2240 0.960 . S
H2227 C2240 0.960 . S
C2228 H2220 0.929 . S
C2228 C2229 1.377 . S
C2228 C2230 1.384 . S
C2229 C2228 1.377 . S
C2229 C2235 1.390 . S
C2230 H2221 0.930 . S
C2230 C2228 1.384 . S
C2230 C2231 1.372 . S
C2231 C2230 1.372 . S
C2231 C2232 1.400 . S
C2231 C2236 1.490 . S
C2232 H2222 0.930 . S
C2232 C2231 1.400 . S
C2232 C2235 1.386 . S
H2233 C2249 0.930 . S
H2234 C2250 0.931 . S
C2235 H2223 0.929 . S
C2235 C2229 1.390 . S
C2235 C2232 1.386 . S
C2236 C2231 1.490 . S
C2236 C2238 1.395 . S
C2236 C2239 1.403 . S
H2237 C2243 0.930 . S
C2238 H2224 0.930 . S
C2238 C2236 1.395 . S
C2238 C2241 1.403 . S
C2239 C2236 1.403 . S
C2239 C2240 1.524 . S
C2239 C2243 1.400 . S
C2240 H2225 0.960 . S
C2240 H2226 0.960 . S
C2240 H2227 0.960 . S
C2240 C2239 1.524 . S
C2241 C2238 1.403 . S
C2241 C2242 1.392 . S
C2241 C2245 1.495 . S
C2242 C2241 1.392 . S
C2242 C2243 1.385 . S
C2242 C2244 1.478 . S
C2243 H2237 0.930 . S
C2243 C2239 1.400 . S
C2243 C2242 1.385 . S
C2244 C2242 1.478 . S
C2244 C2246 1.381 . S
C2244 C2250 1.383 . S
C2245 C2241 1.495 . S
C2245 H2251 0.959 . S
C2245 H2252 0.961 . S
C2245 H2253 0.960 . S
C2246 C2244 1.381 . S
C2246 C2247 1.394 . S
C2246 H2254 0.930 . S
C2247 C2246 1.394 . S
C2247 C2248 1.383 . S
C2247 H2255 0.929 . S
C2248 C2247 1.383 . S
C2248 C2249 1.377 . S
C2249 H2233 0.930 . S
C2249 C2248 1.377 . S
C2249 C2250 1.379 . S
C2250 H2234 0.931 . S
C2250 C2244 1.383 . S
C2250 C2249 1.379 . S
H2251 C2245 0.959 . S
H2252 C2245 0.961 . S
H2253 C2245 0.960 . S
H2254 C2246 0.930 . S
H2255 C2247 0.929 . S
H2256 C2264 0.929 . S
H2257 C2266 0.930 . S
H2258 C2268 0.930 . S
H2259 C2271 0.929 . S
H2260 C2274 0.930 . S
H2261 C2276 0.960 . S
H2262 C2276 0.960 . S
H2263 C2276 0.960 . S
C2264 H2256 0.929 . S
C2264 C2265 1.377 . S
C2264 C2266 1.384 . S
C2265 C2264 1.377 . S
C2265 C2271 1.390 . S
C2266 H2257 0.930 . S
C2266 C2264 1.384 . S
C2266 C2267 1.372 . S
C2267 C2266 1.372 . S
C2267 C2268 1.400 . S
C2267 C2272 1.490 . S
C2268 H2258 0.930 . S
C2268 C2267 1.400 . S
C2268 C2271 1.386 . S
H2269 C2285 0.930 . S
H2270 C2286 0.931 . S
C2271 H2259 0.929 . S
C2271 C2265 1.390 . S
C2271 C2268 1.386 . S
C2272 C2267 1.490 . S
C2272 C2274 1.395 . S
C2272 C2275 1.403 . S
H2273 C2279 0.930 . S
C2274 H2260 0.930 . S
C2274 C2272 1.395 . S
C2274 C2277 1.403 . S
C2275 C2272 1.403 . S
C2275 C2276 1.524 . S
C2275 C2279 1.400 . S
C2276 H2261 0.960 . S
C2276 H2262 0.960 . S
C2276 H2263 0.960 . S
C2276 C2275 1.524 . S
C2277 C2274 1.403 . S
C2277 C2278 1.392 . S
C2277 C2281 1.495 . S
C2278 C2277 1.392 . S
C2278 C2279 1.385 . S
C2278 C2280 1.478 . S
C2279 H2273 0.930 . S
C2279 C2275 1.400 . S
C2279 C2278 1.385 . S
C2280 C2278 1.478 . S
C2280 C2282 1.381 . S
C2280 C2286 1.383 . S
C2281 C2277 1.495 . S
C2281 H2287 0.959 . S
C2281 H2288 0.961 . S
C2281 H2289 0.960 . S
C2282 C2280 1.381 . S
C2282 C2283 1.394 . S
C2282 H2290 0.930 . S
C2283 C2282 1.394 . S
C2283 C2284 1.383 . S
C2283 H2291 0.929 . S
C2284 C2283 1.383 . S
C2284 C2285 1.377 . S
C2285 H2269 0.930 . S
C2285 C2284 1.377 . S
C2285 C2286 1.379 . S
C2286 H2270 0.931 . S
C2286 C2280 1.383 . S
C2286 C2285 1.379 . S
H2287 C2281 0.959 . S
H2288 C2281 0.961 . S
H2289 C2281 0.960 . S
H2290 C2282 0.930 . S
H2291 C2283 0.929 . S
H2292 C2300 0.929 . S
H2293 C2302 0.930 . S
H2294 C2304 0.930 . S
H2295 C2307 0.929 . S
H2296 C2310 0.930 . S
H2297 C2312 0.960 . S
H2298 C2312 0.960 . S
H2299 C2312 0.960 . S
C2300 H2292 0.929 . S
C2300 C2301 1.377 . S
C2300 C2302 1.384 . S
C2301 C2300 1.377 . S
C2301 C2307 1.390 . S
C2302 H2293 0.930 . S
C2302 C2300 1.384 . S
C2302 C2303 1.372 . S
C2303 C2302 1.372 . S
C2303 C2304 1.400 . S
C2303 C2308 1.490 . S
C2304 H2294 0.930 . S
C2304 C2303 1.400 . S
C2304 C2307 1.386 . S
H2305 C2321 0.930 . S
H2306 C2322 0.931 . S
C2307 H2295 0.929 . S
C2307 C2301 1.390 . S
C2307 C2304 1.386 . S
C2308 C2303 1.490 . S
C2308 C2310 1.395 . S
C2308 C2311 1.403 . S
H2309 C2315 0.930 . S
C2310 H2296 0.930 . S
C2310 C2308 1.395 . S
C2310 C2313 1.403 . S
C2311 C2308 1.403 . S
C2311 C2312 1.524 . S
C2311 C2315 1.400 . S
C2312 H2297 0.960 . S
C2312 H2298 0.960 . S
C2312 H2299 0.960 . S
C2312 C2311 1.524 . S
C2313 C2310 1.403 . S
C2313 C2314 1.392 . S
C2313 C2317 1.495 . S
C2314 C2313 1.392 . S
C2314 C2315 1.385 . S
C2314 C2316 1.478 . S
C2315 H2309 0.930 . S
C2315 C2311 1.400 . S
C2315 C2314 1.385 . S
C2316 C2314 1.478 . S
C2316 C2318 1.381 . S
C2316 C2322 1.383 . S
C2317 C2313 1.495 . S
C2317 H2323 0.959 . S
C2317 H2324 0.961 . S
C2317 H2325 0.960 . S
C2318 C2316 1.381 . S
C2318 C2319 1.394 . S
C2318 H2326 0.930 . S
C2319 C2318 1.394 . S
C2319 C2320 1.383 . S
C2319 H2327 0.929 . S
C2320 C2319 1.383 . S
C2320 C2321 1.377 . S
C2321 H2305 0.930 . S
C2321 C2320 1.377 . S
C2321 C2322 1.379 . S
C2322 H2306 0.931 . S
C2322 C2316 1.383 . S
C2322 C2321 1.379 . S
H2323 C2317 0.959 . S
H2324 C2317 0.961 . S
H2325 C2317 0.960 . S
H2326 C2318 0.930 . S
H2327 C2319 0.929 . S
H2328 C2336 0.929 . S
H2329 C2338 0.930 . S
H2330 C2340 0.930 . S
H2331 C2343 0.929 . S
H2332 C2346 0.930 . S
H2333 C2348 0.960 . S
H2334 C2348 0.960 . S
H2335 C2348 0.960 . S
C2336 H2328 0.929 . S
C2336 C2337 1.377 . S
C2336 C2338 1.384 . S
C2337 C2336 1.377 . S
C2337 C2343 1.390 . S
C2338 H2329 0.930 . S
C2338 C2336 1.384 . S
C2338 C2339 1.372 . S
C2339 C2338 1.372 . S
C2339 C2340 1.400 . S
C2339 C2344 1.490 . S
C2340 H2330 0.930 . S
C2340 C2339 1.400 . S
C2340 C2343 1.386 . S
H2341 C2357 0.930 . S
H2342 C2358 0.931 . S
C2343 H2331 0.929 . S
C2343 C2337 1.390 . S
C2343 C2340 1.386 . S
C2344 C2339 1.490 . S
C2344 C2346 1.395 . S
C2344 C2347 1.403 . S
H2345 C2351 0.930 . S
C2346 H2332 0.930 . S
C2346 C2344 1.395 . S
C2346 C2349 1.403 . S
C2347 C2344 1.403 . S
C2347 C2348 1.524 . S
C2347 C2351 1.400 . S
C2348 H2333 0.960 . S
C2348 H2334 0.960 . S
C2348 H2335 0.960 . S
C2348 C2347 1.524 . S
C2349 C2346 1.403 . S
C2349 C2350 1.392 . S
C2349 C2353 1.495 . S
C2350 C2349 1.392 . S
C2350 C2351 1.385 . S
C2350 C2352 1.478 . S
C2351 H2345 0.930 . S
C2351 C2347 1.400 . S
C2351 C2350 1.385 . S
C2352 C2350 1.478 . S
C2352 C2354 1.381 . S
C2352 C2358 1.383 . S
C2353 C2349 1.495 . S
C2353 H2359 0.959 . S
C2353 H2360 0.961 . S
C2353 H2361 0.960 . S
C2354 C2352 1.381 . S
C2354 C2355 1.394 . S
C2354 H2362 0.930 . S
C2355 C2354 1.394 . S
C2355 C2356 1.383 . S
C2355 H2363 0.929 . S
C2356 C2355 1.383 . S
C2356 C2357 1.377 . S
C2357 H2341 0.930 . S
C2357 C2356 1.377 . S
C2357 C2358 1.379 . S
C2358 H2342 0.931 . S
C2358 C2352 1.383 . S
C2358 C2357 1.379 . S
H2359 C2353 0.959 . S
H2360 C2353 0.961 . S
H2361 C2353 0.960 . S
H2362 C2354 0.930 . S
H2363 C2355 0.929 . S
H2364 C2372 0.929 . S
H2365 C2374 0.930 . S
H2366 C2376 0.930 . S
H2367 C2379 0.929 . S
H2368 C2382 0.930 . S
H2369 C2384 0.960 . S
H2370 C2384 0.960 . S
H2371 C2384 0.960 . S
C2372 H2364 0.929 . S
C2372 C2373 1.377 . S
C2372 C2374 1.384 . S
C2373 C2372 1.377 . S
C2373 C2379 1.390 . S
C2374 H2365 0.930 . S
C2374 C2372 1.384 . S
C2374 C2375 1.372 . S
C2375 C2374 1.372 . S
C2375 C2376 1.400 . S
C2375 C2380 1.490 . S
C2376 H2366 0.930 . S
C2376 C2375 1.400 . S
C2376 C2379 1.386 . S
H2377 C2393 0.930 . S
H2378 C2394 0.931 . S
C2379 H2367 0.929 . S
C2379 C2373 1.390 . S
C2379 C2376 1.386 . S
C2380 C2375 1.490 . S
C2380 C2382 1.395 . S
C2380 C2383 1.403 . S
H2381 C2387 0.930 . S
C2382 H2368 0.930 . S
C2382 C2380 1.395 . S
C2382 C2385 1.403 . S
C2383 C2380 1.403 . S
C2383 C2384 1.524 . S
C2383 C2387 1.400 . S
C2384 H2369 0.960 . S
C2384 H2370 0.960 . S
C2384 H2371 0.960 . S
C2384 C2383 1.524 . S
C2385 C2382 1.403 . S
C2385 C2386 1.392 . S
C2385 C2389 1.495 . S
C2386 C2385 1.392 . S
C2386 C2387 1.385 . S
C2386 C2388 1.478 . S
C2387 H2381 0.930 . S
C2387 C2383 1.400 . S
C2387 C2386 1.385 . S
C2388 C2386 1.478 . S
C2388 C2390 1.381 . S
C2388 C2394 1.383 . S
C2389 C2385 1.495 . S
C2389 H2395 0.959 . S
C2389 H2396 0.961 . S
C2389 H2397 0.960 . S
C2390 C2388 1.381 . S
C2390 C2391 1.394 . S
C2390 H2398 0.930 . S
C2391 C2390 1.394 . S
C2391 C2392 1.383 . S
C2391 H2399 0.929 . S
C2392 C2391 1.383 . S
C2392 C2393 1.377 . S
C2393 H2377 0.930 . S
C2393 C2392 1.377 . S
C2393 C2394 1.379 . S
C2394 H2378 0.931 . S
C2394 C2388 1.383 . S
C2394 C2393 1.379 . S
H2395 C2389 0.959 . S
H2396 C2389 0.961 . S
H2397 C2389 0.960 . S
H2398 C2390 0.930 . S
H2399 C2391 0.929 . S
H2400 C2408 0.929 . S
H2401 C2410 0.930 . S
H2402 C2412 0.930 . S
H2403 C2415 0.929 . S
H2404 C2418 0.930 . S
H2405 C2420 0.960 . S
H2406 C2420 0.960 . S
H2407 C2420 0.960 . S
C2408 H2400 0.929 . S
C2408 C2409 1.377 . S
C2408 C2410 1.384 . S
C2409 C2408 1.377 . S
C2409 C2415 1.390 . S
C2410 H2401 0.930 . S
C2410 C2408 1.384 . S
C2410 C2411 1.372 . S
C2411 C2410 1.372 . S
C2411 C2412 1.400 . S
C2411 C2416 1.490 . S
C2412 H2402 0.930 . S
C2412 C2411 1.400 . S
C2412 C2415 1.386 . S
H2413 C2429 0.930 . S
H2414 C2430 0.931 . S
C2415 H2403 0.929 . S
C2415 C2409 1.390 . S
C2415 C2412 1.386 . S
C2416 C2411 1.490 . S
C2416 C2418 1.395 . S
C2416 C2419 1.403 . S
H2417 C2423 0.930 . S
C2418 H2404 0.930 . S
C2418 C2416 1.395 . S
C2418 C2421 1.403 . S
C2419 C2416 1.403 . S
C2419 C2420 1.524 . S
C2419 C2423 1.400 . S
C2420 H2405 0.960 . S
C2420 H2406 0.960 . S
C2420 H2407 0.960 . S
C2420 C2419 1.524 . S
C2421 C2418 1.403 . S
C2421 C2422 1.392 . S
C2421 C2425 1.495 . S
C2422 C2421 1.392 . S
C2422 C2423 1.385 . S
C2422 C2424 1.478 . S
C2423 H2417 0.930 . S
C2423 C2419 1.400 . S
C2423 C2422 1.385 . S
C2424 C2422 1.478 . S
C2424 C2426 1.381 . S
C2424 C2430 1.383 . S
C2425 C2421 1.495 . S
C2425 H2431 0.959 . S
C2425 H2432 0.961 . S
C2425 H2433 0.960 . S
C2426 C2424 1.381 . S
C2426 C2427 1.394 . S
C2426 H2434 0.930 . S
C2427 C2426 1.394 . S
C2427 C2428 1.383 . S
C2427 H2435 0.929 . S
C2428 C2427 1.383 . S
C2428 C2429 1.377 . S
C2429 H2413 0.930 . S
C2429 C2428 1.377 . S
C2429 C2430 1.379 . S
C2430 H2414 0.931 . S
C2430 C2424 1.383 . S
C2430 C2429 1.379 . S
H2431 C2425 0.959 . S
H2432 C2425 0.961 . S
H2433 C2425 0.960 . S
H2434 C2426 0.930 . S
H2435 C2427 0.929 . S
H2436 C2444 0.929 . S
H2437 C2446 0.930 . S
H2438 C2448 0.930 . S
H2439 C2451 0.929 . S
H2440 C2454 0.930 . S
H2441 C2456 0.960 . S
H2442 C2456 0.960 . S
H2443 C2456 0.960 . S
C2444 H2436 0.929 . S
C2444 C2445 1.377 . S
C2444 C2446 1.384 . S
C2445 C2444 1.377 . S
C2445 C2451 1.390 . S
C2446 H2437 0.930 . S
C2446 C2444 1.384 . S
C2446 C2447 1.372 . S
C2447 C2446 1.372 . S
C2447 C2448 1.400 . S
C2447 C2452 1.490 . S
C2448 H2438 0.930 . S
C2448 C2447 1.400 . S
C2448 C2451 1.386 . S
H2449 C2465 0.930 . S
H2450 C2466 0.931 . S
C2451 H2439 0.929 . S
C2451 C2445 1.390 . S
C2451 C2448 1.386 . S
C2452 C2447 1.490 . S
C2452 C2454 1.395 . S
C2452 C2455 1.403 . S
H2453 C2459 0.930 . S
C2454 H2440 0.930 . S
C2454 C2452 1.395 . S
C2454 C2457 1.403 . S
C2455 C2452 1.403 . S
C2455 C2456 1.524 . S
C2455 C2459 1.400 . S
C2456 H2441 0.960 . S
C2456 H2442 0.960 . S
C2456 H2443 0.960 . S
C2456 C2455 1.524 . S
C2457 C2454 1.403 . S
C2457 C2458 1.392 . S
C2457 C2461 1.495 . S
C2458 C2457 1.392 . S
C2458 C2459 1.385 . S
C2458 C2460 1.478 . S
C2459 H2453 0.930 . S
C2459 C2455 1.400 . S
C2459 C2458 1.385 . S
C2460 C2458 1.478 . S
C2460 C2462 1.381 . S
C2460 C2466 1.383 . S
C2461 C2457 1.495 . S
C2461 H2467 0.959 . S
C2461 H2468 0.961 . S
C2461 H2469 0.960 . S
C2462 C2460 1.381 . S
C2462 C2463 1.394 . S
C2462 H2470 0.930 . S
C2463 C2462 1.394 . S
C2463 C2464 1.383 . S
C2463 H2471 0.929 . S
C2464 C2463 1.383 . S
C2464 C2465 1.377 . S
C2465 H2449 0.930 . S
C2465 C2464 1.377 . S
C2465 C2466 1.379 . S
C2466 H2450 0.931 . S
C2466 C2460 1.383 . S
C2466 C2465 1.379 . S
H2467 C2461 0.959 . S
H2468 C2461 0.961 . S
H2469 C2461 0.960 . S
H2470 C2462 0.930 . S
H2471 C2463 0.929 . S
H2472 C2480 0.929 . S
H2473 C2482 0.930 . S
H2474 C2484 0.930 . S
H2475 C2487 0.929 . S
H2476 C2490 0.930 . S
H2477 C2492 0.960 . S
H2478 C2492 0.960 . S
H2479 C2492 0.960 . S
C2480 H2472 0.929 . S
C2480 C2481 1.377 . S
C2480 C2482 1.384 . S
C2481 C2480 1.377 . S
C2481 C2487 1.390 . S
C2482 H2473 0.930 . S
C2482 C2480 1.384 . S
C2482 C2483 1.372 . S
C2483 C2482 1.372 . S
C2483 C2484 1.400 . S
C2483 C2488 1.490 . S
C2484 H2474 0.930 . S
C2484 C2483 1.400 . S
C2484 C2487 1.386 . S
H2485 C2501 0.930 . S
H2486 C2502 0.931 . S
C2487 H2475 0.929 . S
C2487 C2481 1.390 . S
C2487 C2484 1.386 . S
C2488 C2483 1.490 . S
C2488 C2490 1.395 . S
C2488 C2491 1.403 . S
H2489 C2495 0.930 . S
C2490 H2476 0.930 . S
C2490 C2488 1.395 . S
C2490 C2493 1.403 . S
C2491 C2488 1.403 . S
C2491 C2492 1.524 . S
C2491 C2495 1.400 . S
C2492 H2477 0.960 . S
C2492 H2478 0.960 . S
C2492 H2479 0.960 . S
C2492 C2491 1.524 . S
C2493 C2490 1.403 . S
C2493 C2494 1.392 . S
C2493 C2497 1.495 . S
C2494 C2493 1.392 . S
C2494 C2495 1.385 . S
C2494 C2496 1.478 . S
C2495 H2489 0.930 . S
C2495 C2491 1.400 . S
C2495 C2494 1.385 . S
C2496 C2494 1.478 . S
C2496 C2498 1.381 . S
C2496 C2502 1.383 . S
C2497 C2493 1.495 . S
C2497 H2503 0.959 . S
C2497 H2504 0.961 . S
C2497 H2505 0.960 . S
C2498 C2496 1.381 . S
C2498 C2499 1.394 . S
C2498 H2506 0.930 . S
C2499 C2498 1.394 . S
C2499 C2500 1.383 . S
C2499 H2507 0.929 . S
C2500 C2499 1.383 . S
C2500 C2501 1.377 . S
C2501 H2485 0.930 . S
C2501 C2500 1.377 . S
C2501 C2502 1.379 . S
C2502 H2486 0.931 . S
C2502 C2496 1.383 . S
C2502 C2501 1.379 . S
H2503 C2497 0.959 . S
H2504 C2497 0.961 . S
H2505 C2497 0.960 . S
H2506 C2498 0.930 . S
H2507 C2499 0.929 . S
H2508 C2516 0.929 . S
H2509 C2518 0.930 . S
H2510 C2520 0.930 . S
H2511 C2523 0.929 . S
H2512 C2526 0.930 . S
H2513 C2528 0.960 . S
H2514 C2528 0.960 . S
H2515 C2528 0.960 . S
C2516 H2508 0.929 . S
C2516 C2517 1.377 . S
C2516 C2518 1.384 . S
C2517 C2516 1.377 . S
C2517 C2523 1.390 . S
C2518 H2509 0.930 . S
C2518 C2516 1.384 . S
C2518 C2519 1.372 . S
C2519 C2518 1.372 . S
C2519 C2520 1.400 . S
C2519 C2524 1.490 . S
C2520 H2510 0.930 . S
C2520 C2519 1.400 . S
C2520 C2523 1.386 . S
H2521 C2537 0.930 . S
H2522 C2538 0.931 . S
C2523 H2511 0.929 . S
C2523 C2517 1.390 . S
C2523 C2520 1.386 . S
C2524 C2519 1.490 . S
C2524 C2526 1.395 . S
C2524 C2527 1.403 . S
H2525 C2531 0.930 . S
C2526 H2512 0.930 . S
C2526 C2524 1.395 . S
C2526 C2529 1.403 . S
C2527 C2524 1.403 . S
C2527 C2528 1.524 . S
C2527 C2531 1.400 . S
C2528 H2513 0.960 . S
C2528 H2514 0.960 . S
C2528 H2515 0.960 . S
C2528 C2527 1.524 . S
C2529 C2526 1.403 . S
C2529 C2530 1.392 . S
C2529 C2533 1.495 . S
C2530 C2529 1.392 . S
C2530 C2531 1.385 . S
C2530 C2532 1.478 . S
C2531 H2525 0.930 . S
C2531 C2527 1.400 . S
C2531 C2530 1.385 . S
C2532 C2530 1.478 . S
C2532 C2534 1.381 . S
C2532 C2538 1.383 . S
C2533 C2529 1.495 . S
C2533 H2539 0.959 . S
C2533 H2540 0.961 . S
C2533 H2541 0.960 . S
C2534 C2532 1.381 . S
C2534 C2535 1.394 . S
C2534 H2542 0.930 . S
C2535 C2534 1.394 . S
C2535 C2536 1.383 . S
C2535 H2543 0.929 . S
C2536 C2535 1.383 . S
C2536 C2537 1.377 . S
C2537 H2521 0.930 . S
C2537 C2536 1.377 . S
C2537 C2538 1.379 . S
C2538 H2522 0.931 . S
C2538 C2532 1.383 . S
C2538 C2537 1.379 . S
H2539 C2533 0.959 . S
H2540 C2533 0.961 . S
H2541 C2533 0.960 . S
H2542 C2534 0.930 . S
H2543 C2535 0.929 . S
H2544 C2552 0.929 . S
H2545 C2554 0.930 . S
H2546 C2556 0.930 . S
H2547 C2559 0.929 . S
H2548 C2562 0.930 . S
H2549 C2564 0.960 . S
H2550 C2564 0.960 . S
H2551 C2564 0.960 . S
C2552 H2544 0.929 . S
C2552 C2553 1.377 . S
C2552 C2554 1.384 . S
C2553 C2552 1.377 . S
C2553 C2559 1.390 . S
C2554 H2545 0.930 . S
C2554 C2552 1.384 . S
C2554 C2555 1.372 . S
C2555 C2554 1.372 . S
C2555 C2556 1.400 . S
C2555 C2560 1.490 . S
C2556 H2546 0.930 . S
C2556 C2555 1.400 . S
C2556 C2559 1.386 . S
H2557 C2573 0.930 . S
H2558 C2574 0.931 . S
C2559 H2547 0.929 . S
C2559 C2553 1.390 . S
C2559 C2556 1.386 . S
C2560 C2555 1.490 . S
C2560 C2562 1.395 . S
C2560 C2563 1.403 . S
H2561 C2567 0.930 . S
C2562 H2548 0.930 . S
C2562 C2560 1.395 . S
C2562 C2565 1.403 . S
C2563 C2560 1.403 . S
C2563 C2564 1.524 . S
C2563 C2567 1.400 . S
C2564 H2549 0.960 . S
C2564 H2550 0.960 . S
C2564 H2551 0.960 . S
C2564 C2563 1.524 . S
C2565 C2562 1.403 . S
C2565 C2566 1.392 . S
C2565 C2569 1.495 . S
C2566 C2565 1.392 . S
C2566 C2567 1.385 . S
C2566 C2568 1.478 . S
C2567 H2561 0.930 . S
C2567 C2563 1.400 . S
C2567 C2566 1.385 . S
C2568 C2566 1.478 . S
C2568 C2570 1.381 . S
C2568 C2574 1.383 . S
C2569 C2565 1.495 . S
C2569 H2575 0.959 . S
C2569 H2576 0.961 . S
C2569 H2577 0.960 . S
C2570 C2568 1.381 . S
C2570 C2571 1.394 . S
C2570 H2578 0.930 . S
C2571 C2570 1.394 . S
C2571 C2572 1.383 . S
C2571 H2579 0.929 . S
C2572 C2571 1.383 . S
C2572 C2573 1.377 . S
C2573 H2557 0.930 . S
C2573 C2572 1.377 . S
C2573 C2574 1.379 . S
C2574 H2558 0.931 . S
C2574 C2568 1.383 . S
C2574 C2573 1.379 . S
H2575 C2569 0.959 . S
H2576 C2569 0.961 . S
H2577 C2569 0.960 . S
H2578 C2570 0.930 . S
H2579 C2571 0.929 . S
H2580 C2588 0.929 . S
H2581 C2590 0.930 . S
H2582 C2592 0.930 . S
H2583 C2595 0.929 . S
H2584 C2598 0.930 . S
H2585 C2600 0.960 . S
H2586 C2600 0.960 . S
H2587 C2600 0.960 . S
C2588 H2580 0.929 . S
C2588 C2589 1.377 . S
C2588 C2590 1.384 . S
C2589 C2588 1.377 . S
C2589 C2595 1.390 . S
C2590 H2581 0.930 . S
C2590 C2588 1.384 . S
C2590 C2591 1.372 . S
C2591 C2590 1.372 . S
C2591 C2592 1.400 . S
C2591 C2596 1.490 . S
C2592 H2582 0.930 . S
C2592 C2591 1.400 . S
C2592 C2595 1.386 . S
H2593 C2609 0.930 . S
H2594 C2610 0.931 . S
C2595 H2583 0.929 . S
C2595 C2589 1.390 . S
C2595 C2592 1.386 . S
C2596 C2591 1.490 . S
C2596 C2598 1.395 . S
C2596 C2599 1.403 . S
H2597 C2603 0.930 . S
C2598 H2584 0.930 . S
C2598 C2596 1.395 . S
C2598 C2601 1.403 . S
C2599 C2596 1.403 . S
C2599 C2600 1.524 . S
C2599 C2603 1.400 . S
C2600 H2585 0.960 . S
C2600 H2586 0.960 . S
C2600 H2587 0.960 . S
C2600 C2599 1.524 . S
C2601 C2598 1.403 . S
C2601 C2602 1.392 . S
C2601 C2605 1.495 . S
C2602 C2601 1.392 . S
C2602 C2603 1.385 . S
C2602 C2604 1.478 . S
C2603 H2597 0.930 . S
C2603 C2599 1.400 . S
C2603 C2602 1.385 . S
C2604 C2602 1.478 . S
C2604 C2606 1.381 . S
C2604 C2610 1.383 . S
C2605 C2601 1.495 . S
C2605 H2611 0.959 . S
C2605 H2612 0.961 . S
C2605 H2613 0.960 . S
C2606 C2604 1.381 . S
C2606 C2607 1.394 . S
C2606 H2614 0.930 . S
C2607 C2606 1.394 . S
C2607 C2608 1.383 . S
C2607 H2615 0.929 . S
C2608 C2607 1.383 . S
C2608 C2609 1.377 . S
C2609 H2593 0.930 . S
C2609 C2608 1.377 . S
C2609 C2610 1.379 . S
C2610 H2594 0.931 . S
C2610 C2604 1.383 . S
C2610 C2609 1.379 . S
H2611 C2605 0.959 . S
H2612 C2605 0.961 . S
H2613 C2605 0.960 . S
H2614 C2606 0.930 . S
H2615 C2607 0.929 . S
H2616 C2624 0.929 . S
H2617 C2626 0.930 . S
H2618 C2628 0.930 . S
H2619 C2631 0.929 . S
H2620 C2634 0.930 . S
H2621 C2636 0.960 . S
H2622 C2636 0.960 . S
H2623 C2636 0.960 . S
C2624 H2616 0.929 . S
C2624 C2625 1.377 . S
C2624 C2626 1.384 . S
C2625 C2624 1.377 . S
C2625 C2631 1.390 . S
C2626 H2617 0.930 . S
C2626 C2624 1.384 . S
C2626 C2627 1.372 . S
C2627 C2626 1.372 . S
C2627 C2628 1.400 . S
C2627 C2632 1.490 . S
C2628 H2618 0.930 . S
C2628 C2627 1.400 . S
C2628 C2631 1.386 . S
H2629 C2645 0.930 . S
H2630 C2646 0.931 . S
C2631 H2619 0.929 . S
C2631 C2625 1.390 . S
C2631 C2628 1.386 . S
C2632 C2627 1.490 . S
C2632 C2634 1.395 . S
C2632 C2635 1.403 . S
H2633 C2639 0.930 . S
C2634 H2620 0.930 . S
C2634 C2632 1.395 . S
C2634 C2637 1.403 . S
C2635 C2632 1.403 . S
C2635 C2636 1.524 . S
C2635 C2639 1.400 . S
C2636 H2621 0.960 . S
C2636 H2622 0.960 . S
C2636 H2623 0.960 . S
C2636 C2635 1.524 . S
C2637 C2634 1.403 . S
C2637 C2638 1.392 . S
C2637 C2641 1.495 . S
C2638 C2637 1.392 . S
C2638 C2639 1.385 . S
C2638 C2640 1.478 . S
C2639 H2633 0.930 . S
C2639 C2635 1.400 . S
C2639 C2638 1.385 . S
C2640 C2638 1.478 . S
C2640 C2642 1.381 . S
C2640 C2646 1.383 . S
C2641 C2637 1.495 . S
C2641 H2647 0.959 . S
C2641 H2648 0.961 . S
C2641 H2649 0.960 . S
C2642 C2640 1.381 . S
C2642 C2643 1.394 . S
C2642 H2650 0.930 . S
C2643 C2642 1.394 . S
C2643 C2644 1.383 . S
C2643 H2651 0.929 . S
C2644 C2643 1.383 . S
C2644 C2645 1.377 . S
C2645 H2629 0.930 . S
C2645 C2644 1.377 . S
C2645 C2646 1.379 . S
C2646 H2630 0.931 . S
C2646 C2640 1.383 . S
C2646 C2645 1.379 . S
H2647 C2641 0.959 . S
H2648 C2641 0.961 . S
H2649 C2641 0.960 . S
H2650 C2642 0.930 . S
H2651 C2643 0.929 . S
H2652 C2660 0.929 . S
H2653 C2662 0.930 . S
H2654 C2664 0.930 . S
H2655 C2667 0.929 . S
H2656 C2670 0.930 . S
H2657 C2672 0.960 . S
H2658 C2672 0.960 . S
H2659 C2672 0.960 . S
C2660 H2652 0.929 . S
C2660 C2661 1.377 . S
C2660 C2662 1.384 . S
C2661 C2660 1.377 . S
C2661 C2667 1.390 . S
C2662 H2653 0.930 . S
C2662 C2660 1.384 . S
C2662 C2663 1.372 . S
C2663 C2662 1.372 . S
C2663 C2664 1.400 . S
C2663 C2668 1.490 . S
C2664 H2654 0.930 . S
C2664 C2663 1.400 . S
C2664 C2667 1.386 . S
H2665 C2681 0.930 . S
H2666 C2682 0.931 . S
C2667 H2655 0.929 . S
C2667 C2661 1.390 . S
C2667 C2664 1.386 . S
C2668 C2663 1.490 . S
C2668 C2670 1.395 . S
C2668 C2671 1.403 . S
H2669 C2675 0.930 . S
C2670 H2656 0.930 . S
C2670 C2668 1.395 . S
C2670 C2673 1.403 . S
C2671 C2668 1.403 . S
C2671 C2672 1.524 . S
C2671 C2675 1.400 . S
C2672 H2657 0.960 . S
C2672 H2658 0.960 . S
C2672 H2659 0.960 . S
C2672 C2671 1.524 . S
C2673 C2670 1.403 . S
C2673 C2674 1.392 . S
C2673 C2677 1.495 . S
C2674 C2673 1.392 . S
C2674 C2675 1.385 . S
C2674 C2676 1.478 . S
C2675 H2669 0.930 . S
C2675 C2671 1.400 . S
C2675 C2674 1.385 . S
C2676 C2674 1.478 . S
C2676 C2678 1.381 . S
C2676 C2682 1.383 . S
C2677 C2673 1.495 . S
C2677 H2683 0.959 . S
C2677 H2684 0.961 . S
C2677 H2685 0.960 . S
C2678 C2676 1.381 . S
C2678 C2679 1.394 . S
C2678 H2686 0.930 . S
C2679 C2678 1.394 . S
C2679 C2680 1.383 . S
C2679 H2687 0.929 . S
C2680 C2679 1.383 . S
C2680 C2681 1.377 . S
C2681 H2665 0.930 . S
C2681 C2680 1.377 . S
C2681 C2682 1.379 . S
C2682 H2666 0.931 . S
C2682 C2676 1.383 . S
C2682 C2681 1.379 . S
H2683 C2677 0.959 . S
H2684 C2677 0.961 . S
H2685 C2677 0.960 . S
H2686 C2678 0.930 . S
H2687 C2679 0.929 . S
H2688 C2696 0.929 . S
H2689 C2698 0.930 . S
H2690 C2700 0.930 . S
H2691 C2703 0.929 . S
H2692 C2706 0.930 . S
H2693 C2708 0.960 . S
H2694 C2708 0.960 . S
H2695 C2708 0.960 . S
C2696 H2688 0.929 . S
C2696 C2697 1.377 . S
C2696 C2698 1.384 . S
C2697 C2696 1.377 . S
C2697 C2703 1.390 . S
C2698 H2689 0.930 . S
C2698 C2696 1.384 . S
C2698 C2699 1.372 . S
C2699 C2698 1.372 . S
C2699 C2700 1.400 . S
C2699 C2704 1.490 . S
C2700 H2690 0.930 . S
C2700 C2699 1.400 . S
C2700 C2703 1.386 . S
H2701 C2717 0.930 . S
H2702 C2718 0.931 . S
C2703 H2691 0.929 . S
C2703 C2697 1.390 . S
C2703 C2700 1.386 . S
C2704 C2699 1.490 . S
C2704 C2706 1.395 . S
C2704 C2707 1.403 . S
H2705 C2711 0.930 . S
C2706 H2692 0.930 . S
C2706 C2704 1.395 . S
C2706 C2709 1.403 . S
C2707 C2704 1.403 . S
C2707 C2708 1.524 . S
C2707 C2711 1.400 . S
C2708 H2693 0.960 . S
C2708 H2694 0.960 . S
C2708 H2695 0.960 . S
C2708 C2707 1.524 . S
C2709 C2706 1.403 . S
C2709 C2710 1.392 . S
C2709 C2713 1.495 . S
C2710 C2709 1.392 . S
C2710 C2711 1.385 . S
C2710 C2712 1.478 . S
C2711 H2705 0.930 . S
C2711 C2707 1.400 . S
C2711 C2710 1.385 . S
C2712 C2710 1.478 . S
C2712 C2714 1.381 . S
C2712 C2718 1.383 . S
C2713 C2709 1.495 . S
C2713 H2719 0.959 . S
C2713 H2720 0.961 . S
C2713 H2721 0.960 . S
C2714 C2712 1.381 . S
C2714 C2715 1.394 . S
C2714 H2722 0.930 . S
C2715 C2714 1.394 . S
C2715 C2716 1.383 . S
C2715 H2723 0.929 . S
C2716 C2715 1.383 . S
C2716 C2717 1.377 . S
C2717 H2701 0.930 . S
C2717 C2716 1.377 . S
C2717 C2718 1.379 . S
C2718 H2702 0.931 . S
C2718 C2712 1.383 . S
C2718 C2717 1.379 . S
H2719 C2713 0.959 . S
H2720 C2713 0.961 . S
H2721 C2713 0.960 . S
H2722 C2714 0.930 . S
H2723 C2715 0.929 . S
H2724 C2732 0.929 . S
H2725 C2734 0.930 . S
H2726 C2736 0.930 . S
H2727 C2739 0.929 . S
H2728 C2742 0.930 . S
H2729 C2744 0.960 . S
H2730 C2744 0.960 . S
H2731 C2744 0.960 . S
C2732 H2724 0.929 . S
C2732 C2733 1.377 . S
C2732 C2734 1.384 . S
C2733 C2732 1.377 . S
C2733 C2739 1.390 . S
C2734 H2725 0.930 . S
C2734 C2732 1.384 . S
C2734 C2735 1.372 . S
C2735 C2734 1.372 . S
C2735 C2736 1.400 . S
C2735 C2740 1.490 . S
C2736 H2726 0.930 . S
C2736 C2735 1.400 . S
C2736 C2739 1.386 . S
H2737 C2753 0.930 . S
H2738 C2754 0.931 . S
C2739 H2727 0.929 . S
C2739 C2733 1.390 . S
C2739 C2736 1.386 . S
C2740 C2735 1.490 . S
C2740 C2742 1.395 . S
C2740 C2743 1.403 . S
H2741 C2747 0.930 . S
C2742 H2728 0.930 . S
C2742 C2740 1.395 . S
C2742 C2745 1.403 . S
C2743 C2740 1.403 . S
C2743 C2744 1.524 . S
C2743 C2747 1.400 . S
C2744 H2729 0.960 . S
C2744 H2730 0.960 . S
C2744 H2731 0.960 . S
C2744 C2743 1.524 . S
C2745 C2742 1.403 . S
C2745 C2746 1.392 . S
C2745 C2749 1.495 . S
C2746 C2745 1.392 . S
C2746 C2747 1.385 . S
C2746 C2748 1.478 . S
C2747 H2741 0.930 . S
C2747 C2743 1.400 . S
C2747 C2746 1.385 . S
C2748 C2746 1.478 . S
C2748 C2750 1.381 . S
C2748 C2754 1.383 . S
C2749 C2745 1.495 . S
C2749 H2755 0.959 . S
C2749 H2756 0.961 . S
C2749 H2757 0.960 . S
C2750 C2748 1.381 . S
C2750 C2751 1.394 . S
C2750 H2758 0.930 . S
C2751 C2750 1.394 . S
C2751 C2752 1.383 . S
C2751 H2759 0.929 . S
C2752 C2751 1.383 . S
C2752 C2753 1.377 . S
C2753 H2737 0.930 . S
C2753 C2752 1.377 . S
C2753 C2754 1.379 . S
C2754 H2738 0.931 . S
C2754 C2748 1.383 . S
C2754 C2753 1.379 . S
H2755 C2749 0.959 . S
H2756 C2749 0.961 . S
H2757 C2749 0.960 . S
H2758 C2750 0.930 . S
H2759 C2751 0.929 . S
H2760 C2768 0.929 . S
H2761 C2770 0.930 . S
H2762 C2772 0.930 . S
H2763 C2775 0.929 . S
H2764 C2778 0.930 . S
H2765 C2780 0.960 . S
H2766 C2780 0.960 . S
H2767 C2780 0.960 . S
C2768 H2760 0.929 . S
C2768 C2769 1.377 . S
C2768 C2770 1.384 . S
C2769 C2768 1.377 . S
C2769 C2775 1.390 . S
C2770 H2761 0.930 . S
C2770 C2768 1.384 . S
C2770 C2771 1.372 . S
C2771 C2770 1.372 . S
C2771 C2772 1.400 . S
C2771 C2776 1.490 . S
C2772 H2762 0.930 . S
C2772 C2771 1.400 . S
C2772 C2775 1.386 . S
H2773 C2789 0.930 . S
H2774 C2790 0.931 . S
C2775 H2763 0.929 . S
C2775 C2769 1.390 . S
C2775 C2772 1.386 . S
C2776 C2771 1.490 . S
C2776 C2778 1.395 . S
C2776 C2779 1.403 . S
H2777 C2783 0.930 . S
C2778 H2764 0.930 . S
C2778 C2776 1.395 . S
C2778 C2781 1.403 . S
C2779 C2776 1.403 . S
C2779 C2780 1.524 . S
C2779 C2783 1.400 . S
C2780 H2765 0.960 . S
C2780 H2766 0.960 . S
C2780 H2767 0.960 . S
C2780 C2779 1.524 . S
C2781 C2778 1.403 . S
C2781 C2782 1.392 . S
C2781 C2785 1.495 . S
C2782 C2781 1.392 . S
C2782 C2783 1.385 . S
C2782 C2784 1.478 . S
C2783 H2777 0.930 . S
C2783 C2779 1.400 . S
C2783 C2782 1.385 . S
C2784 C2782 1.478 . S
C2784 C2786 1.381 . S
C2784 C2790 1.383 . S
C2785 C2781 1.495 . S
C2785 H2791 0.959 . S
C2785 H2792 0.961 . S
C2785 H2793 0.960 . S
C2786 C2784 1.381 . S
C2786 C2787 1.394 . S
C2786 H2794 0.930 . S
C2787 C2786 1.394 . S
C2787 C2788 1.383 . S
C2787 H2795 0.929 . S
C2788 C2787 1.383 . S
C2788 C2789 1.377 . S
C2789 H2773 0.930 . S
C2789 C2788 1.377 . S
C2789 C2790 1.379 . S
C2790 H2774 0.931 . S
C2790 C2784 1.383 . S
C2790 C2789 1.379 . S
H2791 C2785 0.959 . S
H2792 C2785 0.961 . S
H2793 C2785 0.960 . S
H2794 C2786 0.930 . S
H2795 C2787 0.929 . S
H2796 C2804 0.929 . S
H2797 C2806 0.930 . S
H2798 C2808 0.930 . S
H2799 C2811 0.929 . S
H2800 C2814 0.930 . S
H2801 C2816 0.960 . S
H2802 C2816 0.960 . S
H2803 C2816 0.960 . S
C2804 H2796 0.929 . S
C2804 C2805 1.377 . S
C2804 C2806 1.384 . S
C2805 C2804 1.377 . S
C2805 C2811 1.390 . S
C2806 H2797 0.930 . S
C2806 C2804 1.384 . S
C2806 C2807 1.372 . S
C2807 C2806 1.372 . S
C2807 C2808 1.400 . S
C2807 C2812 1.490 . S
C2808 H2798 0.930 . S
C2808 C2807 1.400 . S
C2808 C2811 1.386 . S
H2809 C2825 0.930 . S
H2810 C2826 0.931 . S
C2811 H2799 0.929 . S
C2811 C2805 1.390 . S
C2811 C2808 1.386 . S
C2812 C2807 1.490 . S
C2812 C2814 1.395 . S
C2812 C2815 1.403 . S
H2813 C2819 0.930 . S
C2814 H2800 0.930 . S
C2814 C2812 1.395 . S
C2814 C2817 1.403 . S
C2815 C2812 1.403 . S
C2815 C2816 1.524 . S
C2815 C2819 1.400 . S
C2816 H2801 0.960 . S
C2816 H2802 0.960 . S
C2816 H2803 0.960 . S
C2816 C2815 1.524 . S
C2817 C2814 1.403 . S
C2817 C2818 1.392 . S
C2817 C2821 1.495 . S
C2818 C2817 1.392 . S
C2818 C2819 1.385 . S
C2818 C2820 1.478 . S
C2819 H2813 0.930 . S
C2819 C2815 1.400 . S
C2819 C2818 1.385 . S
C2820 C2818 1.478 . S
C2820 C2822 1.381 . S
C2820 C2826 1.383 . S
C2821 C2817 1.495 . S
C2821 H2827 0.959 . S
C2821 H2828 0.961 . S
C2821 H2829 0.960 . S
C2822 C2820 1.381 . S
C2822 C2823 1.394 . S
C2822 H2830 0.930 . S
C2823 C2822 1.394 . S
C2823 C2824 1.383 . S
C2823 H2831 0.929 . S
C2824 C2823 1.383 . S
C2824 C2825 1.377 . S
C2825 H2809 0.930 . S
C2825 C2824 1.377 . S
C2825 C2826 1.379 . S
C2826 H2810 0.931 . S
C2826 C2820 1.383 . S
C2826 C2825 1.379 . S
H2827 C2821 0.959 . S
H2828 C2821 0.961 . S
H2829 C2821 0.960 . S
H2830 C2822 0.930 . S
H2831 C2823 0.929 . S
H2832 C2840 0.929 . S
H2833 C2842 0.930 . S
H2834 C2844 0.930 . S
H2835 C2847 0.929 . S
H2836 C2850 0.930 . S
H2837 C2852 0.960 . S
H2838 C2852 0.960 . S
H2839 C2852 0.960 . S
C2840 H2832 0.929 . S
C2840 C2841 1.377 . S
C2840 C2842 1.384 . S
C2841 C2840 1.377 . S
C2841 C2847 1.390 . S
C2842 H2833 0.930 . S
C2842 C2840 1.384 . S
C2842 C2843 1.372 . S
C2843 C2842 1.372 . S
C2843 C2844 1.400 . S
C2843 C2848 1.490 . S
C2844 H2834 0.930 . S
C2844 C2843 1.400 . S
C2844 C2847 1.386 . S
H2845 C2861 0.930 . S
H2846 C2862 0.931 . S
C2847 H2835 0.929 . S
C2847 C2841 1.390 . S
C2847 C2844 1.386 . S
C2848 C2843 1.490 . S
C2848 C2850 1.395 . S
C2848 C2851 1.403 . S
H2849 C2855 0.930 . S
C2850 H2836 0.930 . S
C2850 C2848 1.395 . S
C2850 C2853 1.403 . S
C2851 C2848 1.403 . S
C2851 C2852 1.524 . S
C2851 C2855 1.400 . S
C2852 H2837 0.960 . S
C2852 H2838 0.960 . S
C2852 H2839 0.960 . S
C2852 C2851 1.524 . S
C2853 C2850 1.403 . S
C2853 C2854 1.392 . S
C2853 C2857 1.495 . S
C2854 C2853 1.392 . S
C2854 C2855 1.385 . S
C2854 C2856 1.478 . S
C2855 H2849 0.930 . S
C2855 C2851 1.400 . S
C2855 C2854 1.385 . S
C2856 C2854 1.478 . S
C2856 C2858 1.381 . S
C2856 C2862 1.383 . S
C2857 C2853 1.495 . S
C2857 H2863 0.959 . S
C2857 H2864 0.961 . S
C2857 H2865 0.960 . S
C2858 C2856 1.381 . S
C2858 C2859 1.394 . S
C2858 H2866 0.930 . S
C2859 C2858 1.394 . S
C2859 C2860 1.383 . S
C2859 H2867 0.929 . S
C2860 C2859 1.383 . S
C2860 C2861 1.377 . S
C2861 H2845 0.930 . S
C2861 C2860 1.377 . S
C2861 C2862 1.379 . S
C2862 H2846 0.931 . S
C2862 C2856 1.383 . S
C2862 C2861 1.379 . S
H2863 C2857 0.959 . S
H2864 C2857 0.961 . S
H2865 C2857 0.960 . S
H2866 C2858 0.930 . S
H2867 C2859 0.929 . S
H2868 C2876 0.929 . S
H2869 C2878 0.930 . S
H2870 C2880 0.930 . S
H2871 C2883 0.929 . S
H2872 C2886 0.930 . S
H2873 C2888 0.960 . S
H2874 C2888 0.960 . S
H2875 C2888 0.960 . S
C2876 H2868 0.929 . S
C2876 C2877 1.377 . S
C2876 C2878 1.384 . S
C2877 C2876 1.377 . S
C2877 C2883 1.390 . S
C2878 H2869 0.930 . S
C2878 C2876 1.384 . S
C2878 C2879 1.372 . S
C2879 C2878 1.372 . S
C2879 C2880 1.400 . S
C2879 C2884 1.490 . S
C2880 H2870 0.930 . S
C2880 C2879 1.400 . S
C2880 C2883 1.386 . S
H2881 C2897 0.930 . S
H2882 C2898 0.931 . S
C2883 H2871 0.929 . S
C2883 C2877 1.390 . S
C2883 C2880 1.386 . S
C2884 C2879 1.490 . S
C2884 C2886 1.395 . S
C2884 C2887 1.403 . S
H2885 C2891 0.930 . S
C2886 H2872 0.930 . S
C2886 C2884 1.395 . S
C2886 C2889 1.403 . S
C2887 C2884 1.403 . S
C2887 C2888 1.524 . S
C2887 C2891 1.400 . S
C2888 H2873 0.960 . S
C2888 H2874 0.960 . S
C2888 H2875 0.960 . S
C2888 C2887 1.524 . S
C2889 C2886 1.403 . S
C2889 C2890 1.392 . S
C2889 C2893 1.495 . S
C2890 C2889 1.392 . S
C2890 C2891 1.385 . S
C2890 C2892 1.478 . S
C2891 H2885 0.930 . S
C2891 C2887 1.400 . S
C2891 C2890 1.385 . S
C2892 C2890 1.478 . S
C2892 C2894 1.381 . S
C2892 C2898 1.383 . S
C2893 C2889 1.495 . S
C2893 H2899 0.959 . S
C2893 H2900 0.961 . S
C2893 H2901 0.960 . S
C2894 C2892 1.381 . S
C2894 C2895 1.394 . S
C2894 H2902 0.930 . S
C2895 C2894 1.394 . S
C2895 C2896 1.383 . S
C2895 H2903 0.929 . S
C2896 C2895 1.383 . S
C2896 C2897 1.377 . S
C2897 H2881 0.930 . S
C2897 C2896 1.377 . S
C2897 C2898 1.379 . S
C2898 H2882 0.931 . S
C2898 C2892 1.383 . S
C2898 C2897 1.379 . S
H2899 C2893 0.959 . S
H2900 C2893 0.961 . S
H2901 C2893 0.960 . S
H2902 C2894 0.930 . S
H2903 C2895 0.929 . S
H2904 C2912 0.929 . S
H2905 C2914 0.930 . S
H2906 C2916 0.930 . S
H2907 C2919 0.929 . S
H2908 C2922 0.930 . S
H2909 C2924 0.960 . S
H2910 C2924 0.960 . S
H2911 C2924 0.960 . S
C2912 H2904 0.929 . S
C2912 C2913 1.377 . S
C2912 C2914 1.384 . S
C2913 C2912 1.377 . S
C2913 C2919 1.390 . S
C2914 H2905 0.930 . S
C2914 C2912 1.384 . S
C2914 C2915 1.372 . S
C2915 C2914 1.372 . S
C2915 C2916 1.400 . S
C2915 C2920 1.490 . S
C2916 H2906 0.930 . S
C2916 C2915 1.400 . S
C2916 C2919 1.386 . S
H2917 C2933 0.930 . S
H2918 C2934 0.931 . S
C2919 H2907 0.929 . S
C2919 C2913 1.390 . S
C2919 C2916 1.386 . S
C2920 C2915 1.490 . S
C2920 C2922 1.395 . S
C2920 C2923 1.403 . S
H2921 C2927 0.930 . S
C2922 H2908 0.930 . S
C2922 C2920 1.395 . S
C2922 C2925 1.403 . S
C2923 C2920 1.403 . S
C2923 C2924 1.524 . S
C2923 C2927 1.400 . S
C2924 H2909 0.960 . S
C2924 H2910 0.960 . S
C2924 H2911 0.960 . S
C2924 C2923 1.524 . S
C2925 C2922 1.403 . S
C2925 C2926 1.392 . S
C2925 C2929 1.495 . S
C2926 C2925 1.392 . S
C2926 C2927 1.385 . S
C2926 C2928 1.478 . S
C2927 H2921 0.930 . S
C2927 C2923 1.400 . S
C2927 C2926 1.385 . S
C2928 C2926 1.478 . S
C2928 C2930 1.381 . S
C2928 C2934 1.383 . S
C2929 C2925 1.495 . S
C2929 H2935 0.959 . S
C2929 H2936 0.961 . S
C2929 H2937 0.960 . S
C2930 C2928 1.381 . S
C2930 C2931 1.394 . S
C2930 H2938 0.930 . S
C2931 C2930 1.394 . S
C2931 C2932 1.383 . S
C2931 H2939 0.929 . S
C2932 C2931 1.383 . S
C2932 C2933 1.377 . S
C2933 H2917 0.930 . S
C2933 C2932 1.377 . S
C2933 C2934 1.379 . S
C2934 H2918 0.931 . S
C2934 C2928 1.383 . S
C2934 C2933 1.379 . S
H2935 C2929 0.959 . S
H2936 C2929 0.961 . S
H2937 C2929 0.960 . S
H2938 C2930 0.930 . S
H2939 C2931 0.929 . S
H2940 C2948 0.929 . S
H2941 C2950 0.930 . S
H2942 C2952 0.930 . S
H2943 C2955 0.929 . S
H2944 C2958 0.930 . S
H2945 C2960 0.960 . S
H2946 C2960 0.960 . S
H2947 C2960 0.960 . S
C2948 H2940 0.929 . S
C2948 C2949 1.377 . S
C2948 C2950 1.384 . S
C2949 C2948 1.377 . S
C2949 C2955 1.390 . S
C2950 H2941 0.930 . S
C2950 C2948 1.384 . S
C2950 C2951 1.372 . S
C2951 C2950 1.372 . S
C2951 C2952 1.400 . S
C2951 C2956 1.490 . S
C2952 H2942 0.930 . S
C2952 C2951 1.400 . S
C2952 C2955 1.386 . S
H2953 C2969 0.930 . S
H2954 C2970 0.931 . S
C2955 H2943 0.929 . S
C2955 C2949 1.390 . S
C2955 C2952 1.386 . S
C2956 C2951 1.490 . S
C2956 C2958 1.395 . S
C2956 C2959 1.403 . S
H2957 C2963 0.930 . S
C2958 H2944 0.930 . S
C2958 C2956 1.395 . S
C2958 C2961 1.403 . S
C2959 C2956 1.403 . S
C2959 C2960 1.524 . S
C2959 C2963 1.400 . S
C2960 H2945 0.960 . S
C2960 H2946 0.960 . S
C2960 H2947 0.960 . S
C2960 C2959 1.524 . S
C2961 C2958 1.403 . S
C2961 C2962 1.392 . S
C2961 C2965 1.495 . S
C2962 C2961 1.392 . S
C2962 C2963 1.385 . S
C2962 C2964 1.478 . S
C2963 H2957 0.930 . S
C2963 C2959 1.400 . S
C2963 C2962 1.385 . S
C2964 C2962 1.478 . S
C2964 C2966 1.381 . S
C2964 C2970 1.383 . S
C2965 C2961 1.495 . S
C2965 H2971 0.959 . S
C2965 H2972 0.961 . S
C2965 H2973 0.960 . S
C2966 C2964 1.381 . S
C2966 C2967 1.394 . S
C2966 H2974 0.930 . S
C2967 C2966 1.394 . S
C2967 C2968 1.383 . S
C2967 H2975 0.929 . S
C2968 C2967 1.383 . S
C2968 C2969 1.377 . S
C2969 H2953 0.930 . S
C2969 C2968 1.377 . S
C2969 C2970 1.379 . S
C2970 H2954 0.931 . S
C2970 C2964 1.383 . S
C2970 C2969 1.379 . S
H2971 C2965 0.959 . S
H2972 C2965 0.961 . S
H2973 C2965 0.960 . S
H2974 C2966 0.930 . S
H2975 C2967 0.929 . S
H2976 C2984 0.929 . S
H2977 C2986 0.930 . S
H2978 C2988 0.930 . S
H2979 C2991 0.929 . S
H2980 C2994 0.930 . S
H2981 C2996 0.960 . S
H2982 C2996 0.960 . S
H2983 C2996 0.960 . S
C2984 H2976 0.929 . S
C2984 C2985 1.377 . S
C2984 C2986 1.384 . S
C2985 C2984 1.377 . S
C2985 C2991 1.390 . S
C2986 H2977 0.930 . S
C2986 C2984 1.384 . S
C2986 C2987 1.372 . S
C2987 C2986 1.372 . S
C2987 C2988 1.400 . S
C2987 C2992 1.490 . S
C2988 H2978 0.930 . S
C2988 C2987 1.400 . S
C2988 C2991 1.386 . S
H2989 C3005 0.930 . S
H2990 C3006 0.931 . S
C2991 H2979 0.929 . S
C2991 C2985 1.390 . S
C2991 C2988 1.386 . S
C2992 C2987 1.490 . S
C2992 C2994 1.395 . S
C2992 C2995 1.403 . S
H2993 C2999 0.930 . S
C2994 H2980 0.930 . S
C2994 C2992 1.395 . S
C2994 C2997 1.403 . S
C2995 C2992 1.403 . S
C2995 C2996 1.524 . S
C2995 C2999 1.400 . S
C2996 H2981 0.960 . S
C2996 H2982 0.960 . S
C2996 H2983 0.960 . S
C2996 C2995 1.524 . S
C2997 C2994 1.403 . S
C2997 C2998 1.392 . S
C2997 C3001 1.495 . S
C2998 C2997 1.392 . S
C2998 C2999 1.385 . S
C2998 C3000 1.478 . S
C2999 H2993 0.930 . S
C2999 C2995 1.400 . S
C2999 C2998 1.385 . S
C3000 C2998 1.478 . S
C3000 C3002 1.381 . S
C3000 C3006 1.383 . S
C3001 C2997 1.495 . S
C3001 H3007 0.959 . S
C3001 H3008 0.961 . S
C3001 H3009 0.960 . S
C3002 C3000 1.381 . S
C3002 C3003 1.394 . S
C3002 H3010 0.930 . S
C3003 C3002 1.394 . S
C3003 C3004 1.383 . S
C3003 H3011 0.929 . S
C3004 C3003 1.383 . S
C3004 C3005 1.377 . S
C3005 H2989 0.930 . S
C3005 C3004 1.377 . S
C3005 C3006 1.379 . S
C3006 H2990 0.931 . S
C3006 C3000 1.383 . S
C3006 C3005 1.379 . S
H3007 C3001 0.959 . S
H3008 C3001 0.961 . S
H3009 C3001 0.960 . S
H3010 C3002 0.930 . S
H3011 C3003 0.929 . S
H3012 C3020 0.929 . S
H3013 C3022 0.930 . S
H3014 C3024 0.930 . S
H3015 C3027 0.929 . S
H3016 C3030 0.930 . S
H3017 C3032 0.960 . S
H3018 C3032 0.960 . S
H3019 C3032 0.960 . S
C3020 H3012 0.929 . S
C3020 C3021 1.377 . S
C3020 C3022 1.384 . S
C3021 C3020 1.377 . S
C3021 C3027 1.390 . S
C3022 H3013 0.930 . S
C3022 C3020 1.384 . S
C3022 C3023 1.372 . S
C3023 C3022 1.372 . S
C3023 C3024 1.400 . S
C3023 C3028 1.490 . S
C3024 H3014 0.930 . S
C3024 C3023 1.400 . S
C3024 C3027 1.386 . S
H3025 C3041 0.930 . S
H3026 C3042 0.931 . S
C3027 H3015 0.929 . S
C3027 C3021 1.390 . S
C3027 C3024 1.386 . S
C3028 C3023 1.490 . S
C3028 C3030 1.395 . S
C3028 C3031 1.403 . S
H3029 C3035 0.930 . S
C3030 H3016 0.930 . S
C3030 C3028 1.395 . S
C3030 C3033 1.403 . S
C3031 C3028 1.403 . S
C3031 C3032 1.524 . S
C3031 C3035 1.400 . S
C3032 H3017 0.960 . S
C3032 H3018 0.960 . S
C3032 H3019 0.960 . S
C3032 C3031 1.524 . S
C3033 C3030 1.403 . S
C3033 C3034 1.392 . S
C3033 C3037 1.495 . S
C3034 C3033 1.392 . S
C3034 C3035 1.385 . S
C3034 C3036 1.478 . S
C3035 H3029 0.930 . S
C3035 C3031 1.400 . S
C3035 C3034 1.385 . S
C3036 C3034 1.478 . S
C3036 C3038 1.381 . S
C3036 C3042 1.383 . S
C3037 C3033 1.495 . S
C3037 H3043 0.959 . S
C3037 H3044 0.961 . S
C3037 H3045 0.960 . S
C3038 C3036 1.381 . S
C3038 C3039 1.394 . S
C3038 H3046 0.930 . S
C3039 C3038 1.394 . S
C3039 C3040 1.383 . S
C3039 H3047 0.929 . S
C3040 C3039 1.383 . S
C3040 C3041 1.377 . S
C3041 H3025 0.930 . S
C3041 C3040 1.377 . S
C3041 C3042 1.379 . S
C3042 H3026 0.931 . S
C3042 C3036 1.383 . S
C3042 C3041 1.379 . S
H3043 C3037 0.959 . S
H3044 C3037 0.961 . S
H3045 C3037 0.960 . S
H3046 C3038 0.930 . S
H3047 C3039 0.929 . S
H3048 C3056 0.929 . S
H3049 C3058 0.930 . S
H3050 C3060 0.930 . S
H3051 C3063 0.929 . S
H3052 C3066 0.930 . S
H3053 C3068 0.960 . S
H3054 C3068 0.960 . S
H3055 C3068 0.960 . S
C3056 H3048 0.929 . S
C3056 C3057 1.377 . S
C3056 C3058 1.384 . S
C3057 C3056 1.377 . S
C3057 C3063 1.390 . S
C3058 H3049 0.930 . S
C3058 C3056 1.384 . S
C3058 C3059 1.372 . S
C3059 C3058 1.372 . S
C3059 C3060 1.400 . S
C3059 C3064 1.490 . S
C3060 H3050 0.930 . S
C3060 C3059 1.400 . S
C3060 C3063 1.386 . S
H3061 C3077 0.930 . S
H3062 C3078 0.931 . S
C3063 H3051 0.929 . S
C3063 C3057 1.390 . S
C3063 C3060 1.386 . S
C3064 C3059 1.490 . S
C3064 C3066 1.395 . S
C3064 C3067 1.403 . S
H3065 C3071 0.930 . S
C3066 H3052 0.930 . S
C3066 C3064 1.395 . S
C3066 C3069 1.403 . S
C3067 C3064 1.403 . S
C3067 C3068 1.524 . S
C3067 C3071 1.400 . S
C3068 H3053 0.960 . S
C3068 H3054 0.960 . S
C3068 H3055 0.960 . S
C3068 C3067 1.524 . S
C3069 C3066 1.403 . S
C3069 C3070 1.392 . S
C3069 C3073 1.495 . S
C3070 C3069 1.392 . S
C3070 C3071 1.385 . S
C3070 C3072 1.478 . S
C3071 H3065 0.930 . S
C3071 C3067 1.400 . S
C3071 C3070 1.385 . S
C3072 C3070 1.478 . S
C3072 C3074 1.381 . S
C3072 C3078 1.383 . S
C3073 C3069 1.495 . S
C3073 H3079 0.959 . S
C3073 H3080 0.961 . S
C3073 H3081 0.960 . S
C3074 C3072 1.381 . S
C3074 C3075 1.394 . S
C3074 H3082 0.930 . S
C3075 C3074 1.394 . S
C3075 C3076 1.383 . S
C3075 H3083 0.929 . S
C3076 C3075 1.383 . S
C3076 C3077 1.377 . S
C3077 H3061 0.930 . S
C3077 C3076 1.377 . S
C3077 C3078 1.379 . S
C3078 H3062 0.931 . S
C3078 C3072 1.383 . S
C3078 C3077 1.379 . S
H3079 C3073 0.959 . S
H3080 C3073 0.961 . S
H3081 C3073 0.960 . S
H3082 C3074 0.930 . S
H3083 C3075 0.929 . S
H3084 C3092 0.929 . S
H3085 C3094 0.930 . S
H3086 C3096 0.930 . S
H3087 C3099 0.929 . S
H3088 C3102 0.930 . S
H3089 C3104 0.960 . S
H3090 C3104 0.960 . S
H3091 C3104 0.960 . S
C3092 H3084 0.929 . S
C3092 C3093 1.377 . S
C3092 C3094 1.384 . S
C3093 C3092 1.377 . S
C3093 C3099 1.390 . S
C3094 H3085 0.930 . S
C3094 C3092 1.384 . S
C3094 C3095 1.372 . S
C3095 C3094 1.372 . S
C3095 C3096 1.400 . S
C3095 C3100 1.490 . S
C3096 H3086 0.930 . S
C3096 C3095 1.400 . S
C3096 C3099 1.386 . S
H3097 C3113 0.930 . S
H3098 C3114 0.931 . S
C3099 H3087 0.929 . S
C3099 C3093 1.390 . S
C3099 C3096 1.386 . S
C3100 C3095 1.490 . S
C3100 C3102 1.395 . S
C3100 C3103 1.403 . S
H3101 C3107 0.930 . S
C3102 H3088 0.930 . S
C3102 C3100 1.395 . S
C3102 C3105 1.403 . S
C3103 C3100 1.403 . S
C3103 C3104 1.524 . S
C3103 C3107 1.400 . S
C3104 H3089 0.960 . S
C3104 H3090 0.960 . S
C3104 H3091 0.960 . S
C3104 C3103 1.524 . S
C3105 C3102 1.403 . S
C3105 C3106 1.392 . S
C3105 C3109 1.495 . S
C3106 C3105 1.392 . S
C3106 C3107 1.385 . S
C3106 C3108 1.478 . S
C3107 H3101 0.930 . S
C3107 C3103 1.400 . S
C3107 C3106 1.385 . S
C3108 C3106 1.478 . S
C3108 C3110 1.381 . S
C3108 C3114 1.383 . S
C3109 C3105 1.495 . S
C3109 H3115 0.959 . S
C3109 H3116 0.961 . S
C3109 H3117 0.960 . S
C3110 C3108 1.381 . S
C3110 C3111 1.394 . S
C3110 H3118 0.930 . S
C3111 C3110 1.394 . S
C3111 C3112 1.383 . S
C3111 H3119 0.929 . S
C3112 C3111 1.383 . S
C3112 C3113 1.377 . S
C3113 H3097 0.930 . S
C3113 C3112 1.377 . S
C3113 C3114 1.379 . S
C3114 H3098 0.931 . S
C3114 C3108 1.383 . S
C3114 C3113 1.379 . S
H3115 C3109 0.959 . S
H3116 C3109 0.961 . S
H3117 C3109 0.960 . S
H3118 C3110 0.930 . S
H3119 C3111 0.929 . S
C537 C8 1.882 . S
C556 C250 1.842 . S
C573 C448 1.909 . S
C592 C19 1.810 . S
C609 C30 1.858 . S
C628 C261 1.776 . S
C645 C41 1.819 . S
C664 C503 1.893 . S
C681 C206 1.818 . S
C700 C52 1.893 . S
C717 C63 1.795 . S
C736 C217 1.859 . S
C753 C492 1.756 . S
C772 C74 1.827 . S
C789 C195 1.844 . S
C808 C85 1.799 . S
C825 C151 1.824 . S
C844 C96 1.898 . S
C861 C162 1.878 . S
C880 C107 1.805 . S
C897 C118 1.847 . S
C916 C173 1.774 . S
C933 C129 1.661 . S
C952 C140 1.722 . S
C969 C283 1.825 . S
C988 C184 1.899 . S
C1005 C338 1.846 . S
C1024 C228 1.796 . S
C1041 C305 1.716 . S
C1060 C239 1.767 . S
C1077 C272 1.907 . S
C1096 C514 1.818 . S
C1113 C294 1.718 . S
C1132 C525 1.683 . S
C1149 C316 1.775 . S
C1168 C470 1.691 . S
C1185 C327 1.670 . S
C1204 C481 1.714 . S
C1221 C349 1.760 . S
C1240 C459 1.827 . S
C1257 C415 1.844 . S
C1276 C360 1.900 . S
C1293 C426 1.773 . S
C1312 C371 1.734 . S
C1329 C437 1.757 . S
C1348 C382 1.827 . S
C1365 C404 1.856 . S
C1384 C393 1.812 . S
C1401 C7 1.626 1_455 S
C1420 C84 1.544 . S
C1437 C51 1.604 1_455 S
C1456 C18 1.546 . S
C1473 C29 1.596 . S
C1492 C62 1.529 . S
C1509 C40 1.527 . S
C1528 C73 1.625 . S
C1545 C95 1.625 1_545 S
C1564 C227 1.544 . S
C1581 C106 1.514 . S
C1600 C458 1.601 . S
C1617 C469 1.413 . S
C1636 C117 1.480 . S
C1653 C480 1.545 . S
C1672 C128 1.459 . S
C1689 C139 1.544 . S
C1708 C524 1.442 . S
C1725 C150 1.513 . S
C1744 C238 1.604 . S
C1761 C161 1.600 1_545 S
C1780 C513 1.484 . S
C1797 C183 1.627 1_554 S
C1816 C172 1.566 . S
C1833 C370 1.422 . S
C1852 C194 1.501 . S
C1869 C381 1.614 . S
C1888 C205 1.491 . S
C1905 C392 1.505 . S
C1924 C216 1.598 . S
C1941 C249 1.519 . S
C1960 C425 1.615 . S
C1977 C403 1.596 . S
C1996 C260 1.518 . S
C2013 C348 1.463 . S
C2032 C271 1.559 . S
C2049 C282 1.514 . S
C2068 C315 1.604 . S
C2085 C293 1.548 . S
C2104 C326 1.487 . S
C2121 C337 1.500 . S
C2140 C304 1.433 . S
C2157 C491 1.460 . S
C2176 C359 1.553 . S
C2193 C414 1.518 . S
C2212 C502 1.594 1_554 S
C2229 C447 1.559 . S
C2248 C436 1.428 . S
C2265 C324 1.123 . S
C2284 C5 1.357 . S
C2301 C335 1.740 . S
C2320 C16 1.451 . S
C2337 C346 1.356 . S
C2356 C27 1.597 . S
C2373 C313 1.544 . S
C2392 C38 1.277 . S
C2409 C49 1.438 . S
C2428 C302 1.162 . S
C2445 C60 1.374 . S
C2464 C269 1.607 . S
C2481 C71 1.554 . S
C2500 C280 1.277 . S
C2517 C291 1.630 . S
C2536 C82 1.371 . S
C2553 C93 1.334 . S
C2572 C522 1.104 . S
C2589 C104 1.281 . S
C2608 C236 1.551 . S
C2625 C115 1.747 . S
C2644 C511 1.457 . S
C2661 C181 1.320 . S
C2680 C126 1.044 . S
C2697 C137 1.627 . S
C2716 C225 1.328 . S
C2733 C456 1.546 . S
C2752 C148 1.288 . S
C2769 C159 1.443 . S
C2788 C467 1.197 . S
C2805 C478 1.639 . S
C2824 C170 1.425 . S
C2841 C412 1.470 . S
C2860 C192 1.721 . S
C2877 C423 1.544 . S
C2896 C203 1.273 . S
C2913 C214 1.636 . S
C2932 C434 1.411 . S
C2949 C247 1.303 . S
C2968 C379 1.564 . S
C2985 C258 1.373 . S
C3004 C357 1.633 . S
C3021 C368 1.212 . S
C3040 C500 1.449 . S
C3057 C390 1.388 . S
C3076 C445 1.644 . S
C3093 C401 1.633 . S
C3112 C489 1.417 . S
