# Generated by pormake.
# Topology gsi, (4)-cn, num edge types: 1
# Building blocks:
#     Node 0, Type 0, BuildingBlock: QUQFOY_clean_sbu_3, # of connection points: 4
#     Node 1, Type 0, BuildingBlock: QUQFOY_clean_sbu_3, # of connection points: 4
#     Node 2, Type 0, BuildingBlock: QUQFOY_clean_sbu_3, # of connection points: 4
#     Node 3, Type 0, BuildingBlock: QUQFOY_clean_sbu_3, # of connection points: 4
#     Node 4, Type 0, BuildingBlock: QUQFOY_clean_sbu_3, # of connection points: 4
#     Node 5, Type 0, BuildingBlock: QUQFOY_clean_sbu_3, # of connection points: 4
#     Node 6, Type 0, BuildingBlock: QUQFOY_clean_sbu_3, # of connection points: 4
#     Node 7, Type 0, BuildingBlock: QUQFOY_clean_sbu_3, # of connection points: 4
#     Node 8, Type 0, BuildingBlock: QUQFOY_clean_sbu_3, # of connection points: 4
#     Node 9, Type 0, BuildingBlock: QUQFOY_clean_sbu_3, # of connection points: 4
#     Node 10, Type 0, BuildingBlock: QUQFOY_clean_sbu_3, # of connection points: 4
#     Node 11, Type 0, BuildingBlock: QUQFOY_clean_sbu_3, # of connection points: 4
#     Node 12, Type 0, BuildingBlock: QUQFOY_clean_sbu_3, # of connection points: 4
#     Node 13, Type 0, BuildingBlock: QUQFOY_clean_sbu_3, # of connection points: 4
#     Node 14, Type 0, BuildingBlock: QUQFOY_clean_sbu_3, # of connection points: 4
#     Node 15, Type 0, BuildingBlock: QUQFOY_clean_sbu_3, # of connection points: 4
#     Edge 16, Type (0, 0), BuildingBlock: UVAHIK_clean_linker_0, # of connection points: 2
#     Edge 17, Type (0, 0), BuildingBlock: UVAHIK_clean_linker_0, # of connection points: 2
#     Edge 18, Type (0, 0), BuildingBlock: UVAHIK_clean_linker_0, # of connection points: 2
#     Edge 19, Type (0, 0), BuildingBlock: UVAHIK_clean_linker_0, # of connection points: 2
#     Edge 20, Type (0, 0), BuildingBlock: UVAHIK_clean_linker_0, # of connection points: 2
#     Edge 21, Type (0, 0), BuildingBlock: UVAHIK_clean_linker_0, # of connection points: 2
#     Edge 22, Type (0, 0), BuildingBlock: UVAHIK_clean_linker_0, # of connection points: 2
#     Edge 23, Type (0, 0), BuildingBlock: UVAHIK_clean_linker_0, # of connection points: 2
#     Edge 24, Type (0, 0), BuildingBlock: UVAHIK_clean_linker_0, # of connection points: 2
#     Edge 25, Type (0, 0), BuildingBlock: UVAHIK_clean_linker_0, # of connection points: 2
#     Edge 26, Type (0, 0), BuildingBlock: UVAHIK_clean_linker_0, # of connection points: 2
#     Edge 27, Type (0, 0), BuildingBlock: UVAHIK_clean_linker_0, # of connection points: 2
#     Edge 28, Type (0, 0), BuildingBlock: UVAHIK_clean_linker_0, # of connection points: 2
#     Edge 29, Type (0, 0), BuildingBlock: UVAHIK_clean_linker_0, # of connection points: 2
#     Edge 30, Type (0, 0), BuildingBlock: UVAHIK_clean_linker_0, # of connection points: 2
#     Edge 31, Type (0, 0), BuildingBlock: UVAHIK_clean_linker_0, # of connection points: 2
#     Edge 32, Type (0, 0), BuildingBlock: UVAHIK_clean_linker_0, # of connection points: 2
#     Edge 33, Type (0, 0), BuildingBlock: UVAHIK_clean_linker_0, # of connection points: 2
#     Edge 34, Type (0, 0), BuildingBlock: UVAHIK_clean_linker_0, # of connection points: 2
#     Edge 35, Type (0, 0), BuildingBlock: UVAHIK_clean_linker_0, # of connection points: 2
#     Edge 36, Type (0, 0), BuildingBlock: UVAHIK_clean_linker_0, # of connection points: 2
#     Edge 37, Type (0, 0), BuildingBlock: UVAHIK_clean_linker_0, # of connection points: 2
#     Edge 38, Type (0, 0), BuildingBlock: UVAHIK_clean_linker_0, # of connection points: 2
#     Edge 39, Type (0, 0), BuildingBlock: UVAHIK_clean_linker_0, # of connection points: 2
#     Edge 40, Type (0, 0), BuildingBlock: UVAHIK_clean_linker_0, # of connection points: 2
#     Edge 41, Type (0, 0), BuildingBlock: UVAHIK_clean_linker_0, # of connection points: 2
#     Edge 42, Type (0, 0), BuildingBlock: UVAHIK_clean_linker_0, # of connection points: 2
#     Edge 43, Type (0, 0), BuildingBlock: UVAHIK_clean_linker_0, # of connection points: 2
#     Edge 44, Type (0, 0), BuildingBlock: UVAHIK_clean_linker_0, # of connection points: 2
#     Edge 45, Type (0, 0), BuildingBlock: UVAHIK_clean_linker_0, # of connection points: 2
#     Edge 46, Type (0, 0), BuildingBlock: UVAHIK_clean_linker_0, # of connection points: 2
#     Edge 47, Type (0, 0), BuildingBlock: UVAHIK_clean_linker_0, # of connection points: 2
# Relax obj value: 0.141
# Max RMSD: 0.123
# Mean RMSD: 0.120
data_MOF--net-gsi--node1-QUQFOY_clean_sbu_3--edge1-UVAHIK_clean_linker_0
_symmetry_space_group_name_H-M    P1
_symmetry_Int_Tables_number       1
_symmetry_cell_setting            triclinic
loop_
_symmetry_equiv_pos_as_xyz
'x, y, z'
_cell_length_a     58.994302
_cell_length_b     47.95093
_cell_length_c     57.984602
_cell_angle_alpha  90.08673
_cell_angle_beta   90.015671
_cell_angle_gamma 89.97386
loop_
_atom_site_label
_atom_site_type_symbol
_atom_site_fract_x
_atom_site_fract_y
_atom_site_fract_z
_atom_type_partial_charge
C0 C 0.09676 0.18307 0.11612 0.0
O1 O 0.09908 0.19415 0.13589 0.0
Cd2 Cd 0.13168 0.19258 0.16035 0.0
O3 O 0.11215 0.16761 0.10749 0.0
Cd4 Cd 0.14892 0.149 0.12189 0.0
C5 C 0.12888 0.12346 0.17291 0.0
O6 O 0.16347 0.19397 0.13508 0.0
O7 O 0.18434 0.15827 0.14241 0.0
O8 O 0.16067 0.14621 0.08165 0.0
C9 C 0.18181 0.18447 0.14323 0.0
O10 O 0.12901 0.14842 0.18038 0.0
C11 C 0.1695 0.12214 0.08328 0.0
O12 O 0.1334 0.11809 0.15186 0.0
O13 O 0.16785 0.11001 0.10266 0.0
C14 C 0.90117 0.30864 0.12125 0.0
O15 O 0.90052 0.30039 0.14204 0.0
Cd16 Cd 0.86911 0.3037 0.16798 0.0
O17 O 0.88462 0.32183 0.11232 0.0
Cd18 Cd 0.84813 0.34027 0.12746 0.0
C19 C 0.86936 0.37399 0.17456 0.0
O20 O 0.83584 0.29652 0.1453 0.0
O21 O 0.81441 0.33224 0.15089 0.0
O22 O 0.83384 0.33719 0.08802 0.0
C23 C 0.81765 0.30636 0.15359 0.0
O24 O 0.87071 0.35021 0.18417 0.0
C25 C 0.82461 0.36112 0.08808 0.0
O26 O 0.86369 0.37613 0.15342 0.0
O27 O 0.82707 0.37577 0.10616 0.0
C28 C 0.08266 0.82087 0.37759 0.0
O29 O 0.08028 0.81421 0.35655 0.0
Cd30 Cd 0.10874 0.81748 0.32751 0.0
O31 O 0.1009 0.83212 0.38475 0.0
Cd32 Cd 0.1357 0.84885 0.36479 0.0
C33 C 0.11203 0.88764 0.32241 0.0
O34 O 0.14476 0.80582 0.34394 0.0
O35 O 0.16337 0.84256 0.33387 0.0
O36 O 0.15949 0.83788 0.39763 0.0
C37 C 0.16101 0.81634 0.33264 0.0
O38 O 0.108 0.86446 0.31256 0.0
C39 C 0.16673 0.86245 0.40093 0.0
O40 O 0.12009 0.88833 0.3428 0.0
O41 O 0.1588 0.88137 0.38792 0.0
C42 C 0.90283 0.6801 0.37508 0.0
O43 O 0.90287 0.68921 0.35453 0.0
Cd44 Cd 0.87254 0.68671 0.3272 0.0
O45 O 0.88602 0.66646 0.38298 0.0
Cd46 Cd 0.85006 0.64861 0.36618 0.0
C47 C 0.87265 0.6165 0.31901 0.0
O48 O 0.83834 0.69284 0.34856 0.0
O49 O 0.81715 0.65722 0.34186 0.0
O50 O 0.83486 0.65085 0.40522 0.0
C51 C 0.82052 0.6831 0.33941 0.0
O52 O 0.87461 0.64067 0.31021 0.0
C53 C 0.82539 0.62709 0.40453 0.0
O54 O 0.86616 0.6135 0.33983 0.0
O55 O 0.82808 0.61286 0.38625 0.0
C56 C 0.38944 0.80196 0.62945 0.0
O57 O 0.38371 0.79392 0.64947 0.0
Cd58 Cd 0.35173 0.80981 0.67066 0.0
O59 O 0.37765 0.82005 0.61865 0.0
Cd60 Cd 0.34156 0.84604 0.62562 0.0
C61 C 0.36183 0.88045 0.6724 0.0
O62 O 0.32196 0.80714 0.64312 0.0
O63 O 0.30421 0.84617 0.64521 0.0
O64 O 0.33278 0.83788 0.58531 0.0
C65 C 0.3042 0.82013 0.64886 0.0
O66 O 0.35977 0.85744 0.68314 0.0
C67 C 0.32662 0.86266 0.58089 0.0
O68 O 0.35768 0.8819 0.65087 0.0
O69 O 0.32829 0.88031 0.59716 0.0
C70 C 0.88112 0.79313 0.88488 0.0
O71 O 0.86614 0.77443 0.88207 0.0
Cd72 Cd 0.83113 0.7811 0.86228 0.0
O73 O 0.8781 0.8177 0.87703 0.0
Cd74 Cd 0.8482 0.84269 0.8549 0.0
C75 C 0.80709 0.83313 0.89467 0.0
O76 O 0.84133 0.80483 0.82769 0.0
O77 O 0.81766 0.83898 0.8262 0.0
O78 O 0.87719 0.86799 0.83315 0.0
C79 C 0.82503 0.81656 0.81737 0.0
O80 O 0.80637 0.80811 0.88733 0.0
C81 C 0.86828 0.89183 0.83604 0.0
O82 O 0.82193 0.85006 0.88709 0.0
O83 O 0.85095 0.89296 0.84898 0.0
C84 C 0.10607 0.70739 0.8817 0.0
O85 O 0.12092 0.72638 0.87963 0.0
Cd86 Cd 0.15692 0.72155 0.8618 0.0
O87 O 0.10967 0.68289 0.87382 0.0
Cd88 Cd 0.14143 0.65862 0.85332 0.0
C89 C 0.17835 0.67052 0.89705 0.0
O90 O 0.1491 0.69691 0.82703 0.0
O91 O 0.17359 0.66361 0.82661 0.0
O92 O 0.11408 0.63246 0.83 0.0
C93 C 0.1663 0.68597 0.81766 0.0
O94 O 0.17886 0.69556 0.88983 0.0
C95 C 0.12353 0.60894 0.83292 0.0
O96 O 0.16538 0.65257 0.88765 0.0
O97 O 0.14038 0.6083 0.84654 0.0
C98 C 0.87478 0.201 0.61915 0.0
O99 O 0.85932 0.21912 0.622 0.0
Cd100 Cd 0.82366 0.21031 0.63985 0.0
O101 O 0.87199 0.17598 0.62605 0.0
Cd102 Cd 0.84216 0.14866 0.64638 0.0
C103 C 0.8028 0.15819 0.60495 0.0
O104 O 0.83274 0.1851 0.67396 0.0
O105 O 0.80984 0.15017 0.67324 0.0
O106 O 0.87148 0.12485 0.66873 0.0
C107 C 0.81602 0.17264 0.68289 0.0
O108 O 0.80123 0.18288 0.6129 0.0
C109 C 0.86371 0.10051 0.66537 0.0
O110 O 0.81765 0.14138 0.61275 0.0
O111 O 0.84674 0.09846 0.65199 0.0
C112 C 0.10016 0.29188 0.62039 0.0
O113 O 0.11473 0.27264 0.62286 0.0
Cd114 Cd 0.15135 0.27816 0.63884 0.0
O115 O 0.10448 0.31676 0.62695 0.0
Cd116 Cd 0.13754 0.34114 0.6453 0.0
C117 C 0.17161 0.32634 0.60019 0.0
O118 O 0.14567 0.30478 0.67313 0.0
O119 O 0.17212 0.33522 0.66883 0.0
O120 O 0.11153 0.36853 0.66915 0.0
C121 C 0.16417 0.31493 0.68022 0.0
O122 O 0.17218 0.3018 0.60851 0.0
C123 C 0.12122 0.39175 0.66563 0.0
O124 O 0.15939 0.34518 0.60945 0.0
O125 O 0.13767 0.3917 0.6515 0.0
C126 C 0.60904 0.20655 0.37725 0.0
O127 O 0.62487 0.22446 0.37751 0.0
Cd128 Cd 0.66297 0.21413 0.36717 0.0
O129 O 0.61279 0.18167 0.3704 0.0
Cd130 Cd 0.64495 0.15375 0.35454 0.0
C131 C 0.67383 0.15979 0.40444 0.0
O132 O 0.66059 0.19073 0.33084 0.0
O133 O 0.68148 0.15401 0.33413 0.0
O134 O 0.61963 0.13502 0.3253 0.0
C135 C 0.67795 0.17728 0.32442 0.0
O136 O 0.67652 0.18514 0.39859 0.0
C137 C 0.62395 0.10956 0.32924 0.0
O138 O 0.66248 0.14308 0.39186 0.0
O139 O 0.63732 0.10439 0.34588 0.0
C140 C 0.60533 0.70127 0.62647 0.0
O141 O 0.61177 0.71125 0.64569 0.0
Cd142 Cd 0.64449 0.69809 0.66707 0.0
O143 O 0.61668 0.68207 0.6165 0.0
Cd144 Cd 0.65279 0.65677 0.62471 0.0
C145 C 0.63441 0.62837 0.67495 0.0
O146 O 0.67345 0.69731 0.63857 0.0
O147 O 0.69059 0.65821 0.64301 0.0
O148 O 0.66071 0.65739 0.58344 0.0
C149 C 0.69114 0.68452 0.6448 0.0
O150 O 0.63733 0.6523 0.68402 0.0
C151 C 0.66705 0.63211 0.58234 0.0
O152 O 0.63719 0.62474 0.65336 0.0
O153 O 0.66563 0.61792 0.60075 0.0
C154 C 0.58891 0.31995 0.86869 0.0
O155 O 0.59149 0.31168 0.84805 0.0
Cd156 Cd 0.62494 0.31559 0.82514 0.0
O157 O 0.60449 0.3333 0.87918 0.0
Cd158 Cd 0.64245 0.35156 0.86795 0.0
C159 C 0.62537 0.38632 0.81967 0.0
O160 O 0.65594 0.30793 0.85082 0.0
O161 O 0.67806 0.34338 0.84755 0.0
O162 O 0.65337 0.34704 0.90838 0.0
C163 C 0.67488 0.31756 0.84439 0.0
O164 O 0.62429 0.3626 0.80987 0.0
C165 C 0.66284 0.37076 0.90968 0.0
O166 O 0.62981 0.38825 0.84114 0.0
O167 O 0.66187 0.38608 0.89187 0.0
C168 C 0.38525 0.1971 0.86531 0.0
O169 O 0.37855 0.20642 0.84599 0.0
Cd170 Cd 0.34787 0.18972 0.82354 0.0
O171 O 0.37532 0.17641 0.87475 0.0
Cd172 Cd 0.34144 0.14711 0.86478 0.0
C173 C 0.36344 0.12124 0.81543 0.0
O174 O 0.31818 0.18549 0.85102 0.0
O175 O 0.30549 0.14466 0.843 0.0
O176 O 0.33193 0.14721 0.90567 0.0
C177 C 0.30228 0.17076 0.84299 0.0
O178 O 0.359 0.14499 0.80672 0.0
C179 C 0.32642 0.12165 0.90655 0.0
O180 O 0.36042 0.11681 0.83687 0.0
O181 O 0.32901 0.10749 0.88823 0.0
C182 C 0.37875 0.28823 0.37636 0.0
O183 O 0.36437 0.26885 0.37347 0.0
Cd184 Cd 0.32716 0.27611 0.3585 0.0
O185 O 0.37389 0.31329 0.37094 0.0
Cd186 Cd 0.34139 0.3389 0.35371 0.0
C187 C 0.30586 0.32361 0.39736 0.0
O188 O 0.33191 0.30383 0.32466 0.0
O189 O 0.30782 0.33728 0.32886 0.0
O190 O 0.36889 0.36528 0.33122 0.0
C191 C 0.31432 0.3162 0.31745 0.0
O192 O 0.30538 0.29932 0.38848 0.0
C193 C 0.36015 0.38897 0.3352 0.0
O194 O 0.31882 0.34236 0.38914 0.0
O195 O 0.34348 0.38958 0.34905 0.0
C196 C 0.3796 0.70404 0.12743 0.0
O197 O 0.36477 0.72292 0.13023 0.0
Cd198 Cd 0.32689 0.71377 0.14215 0.0
O199 O 0.3749 0.67861 0.1317 0.0
Cd200 Cd 0.34208 0.65148 0.1466 0.0
C201 C 0.30994 0.66636 0.10068 0.0
O202 O 0.32895 0.68481 0.17548 0.0
O203 O 0.30522 0.65256 0.16611 0.0
O204 O 0.36818 0.62649 0.17167 0.0
C205 C 0.31035 0.67255 0.17943 0.0
O206 O 0.30821 0.69025 0.11014 0.0
C207 C 0.36071 0.60235 0.16696 0.0
O208 O 0.32281 0.64775 0.10929 0.0
O209 O 0.34533 0.60085 0.15167 0.0
C210 C 0.60975 0.79094 0.12254 0.0
O211 O 0.62556 0.77299 0.12185 0.0
Cd212 Cd 0.66399 0.78284 0.13089 0.0
O213 O 0.61374 0.81593 0.12897 0.0
Cd214 Cd 0.64658 0.8441 0.14307 0.0
C215 C 0.67443 0.83609 0.09256 0.0
O216 O 0.66251 0.80746 0.16663 0.0
O217 O 0.68367 0.84379 0.163 0.0
O218 O 0.62297 0.86452 0.17302 0.0
C219 C 0.68029 0.82037 0.17252 0.0
O220 O 0.677 0.81083 0.09871 0.0
C221 C 0.6265 0.8897 0.16743 0.0
O222 O 0.66357 0.85328 0.10516 0.0
O223 O 0.63875 0.89388 0.14975 0.0
C224 C 0.21775 0.19101 0.16533 0.0
C225 C 0.19752 0.20221 0.15654 0.0
C226 C 0.23158 0.20688 0.1798 0.0
C227 C 0.22784 0.26373 0.22137 0.0
H228 H 0.2935 0.26102 0.21934 0.0
C229 C 0.28306 0.32097 0.28855 0.0
C230 C 0.30166 0.30596 0.29719 0.0
C231 C 0.27109 0.31116 0.26939 0.0
C232 C 0.27517 0.26183 0.22021 0.0
H233 H 0.17634 0.23918 0.15522 0.0
H234 H 0.20055 0.26692 0.1806 0.0
H235 H 0.2715 0.23905 0.18864 0.0
H236 H 0.32241 0.26902 0.29252 0.0
H237 H 0.30127 0.25162 0.25945 0.0
H238 H 0.2314 0.28569 0.25327 0.0
C239 C 0.20558 0.24578 0.17641 0.0
C240 C 0.2626 0.24934 0.20261 0.0
C241 C 0.1918 0.22995 0.1618 0.0
C242 C 0.30817 0.28108 0.28623 0.0
C243 C 0.29616 0.27123 0.26715 0.0
C244 C 0.24039 0.27611 0.23903 0.0
C245 C 0.2254 0.23423 0.18585 0.0
C246 C 0.23881 0.2498 0.2032 0.0
C247 C 0.27745 0.2861 0.25854 0.0
C248 C 0.2642 0.27492 0.23884 0.0
H249 H 0.22263 0.16971 0.16151 0.0
H250 H 0.24664 0.19733 0.18699 0.0
H251 H 0.20951 0.26409 0.22246 0.0
H252 H 0.27775 0.34032 0.29655 0.0
H253 H 0.25692 0.32327 0.26302 0.0
C254 C 0.78237 0.3011 0.17688 0.0
C255 C 0.8025 0.28948 0.16823 0.0
C256 C 0.76868 0.28594 0.19192 0.0
C257 C 0.77123 0.22957 0.23428 0.0
H258 H 0.70569 0.23349 0.23037 0.0
C259 C 0.71157 0.17253 0.29825 0.0
C260 C 0.69296 0.18814 0.30617 0.0
C261 C 0.7251 0.18258 0.28028 0.0
C262 C 0.72397 0.23234 0.23177 0.0
H263 H 0.82384 0.25262 0.16808 0.0
H264 H 0.79979 0.22604 0.19441 0.0
H265 H 0.72872 0.25474 0.20027 0.0
H266 H 0.67416 0.22668 0.30178 0.0
H267 H 0.69785 0.24428 0.27076 0.0
H268 H 0.76645 0.20762 0.26605 0.0
C269 C 0.79475 0.24698 0.18967 0.0
C270 C 0.73715 0.24447 0.21452 0.0
C271 C 0.80842 0.26214 0.17451 0.0
C272 C 0.68831 0.21408 0.296 0.0
C273 C 0.70178 0.22408 0.27809 0.0
C274 C 0.75803 0.21744 0.25158 0.0
C275 C 0.77483 0.25884 0.19867 0.0
C276 C 0.76091 0.24364 0.2158 0.0
C277 C 0.72021 0.20837 0.26991 0.0
C278 C 0.73427 0.21917 0.25071 0.0
H279 H 0.77736 0.32213 0.17235 0.0
H280 H 0.75358 0.29578 0.19879 0.0
H281 H 0.78952 0.22885 0.23585 0.0
H282 H 0.71553 0.15242 0.30573 0.0
H283 H 0.73913 0.16995 0.27425 0.0
C284 C 0.27104 0.6771 0.195 0.0
C285 C 0.29423 0.68343 0.19662 0.0
C286 C 0.25561 0.68892 0.21046 0.0
C287 C 0.24965 0.71924 0.26757 0.0
H288 H 0.20106 0.7636 0.2413 0.0
C289 C 0.177 0.77032 0.3206 0.0
C290 C 0.17528 0.79926 0.31729 0.0
C291 C 0.19083 0.75424 0.30622 0.0
C292 C 0.21448 0.75114 0.2488 0.0
H293 H 0.31965 0.70613 0.21607 0.0
H294 H 0.29267 0.72622 0.24349 0.0
H295 H 0.22669 0.73776 0.21579 0.0
H296 H 0.18629 0.83407 0.29625 0.0
H297 H 0.20997 0.80577 0.27072 0.0
H298 H 0.23739 0.73264 0.30061 0.0
C299 C 0.28647 0.71237 0.23013 0.0
C300 C 0.22901 0.7363 0.23428 0.0
C301 C 0.30184 0.70101 0.2144 0.0
C302 C 0.18737 0.81181 0.29922 0.0
C303 C 0.2008 0.79566 0.28457 0.0
C304 C 0.23483 0.73364 0.28212 0.0
C305 C 0.26322 0.70673 0.22806 0.0
C306 C 0.24689 0.72058 0.24355 0.0
C307 C 0.20272 0.76681 0.28804 0.0
C308 C 0.21737 0.75002 0.27281 0.0
H309 H 0.26473 0.66364 0.18143 0.0
H310 H 0.23773 0.68427 0.20863 0.0
H311 H 0.26333 0.70718 0.27504 0.0
H312 H 0.1679 0.76017 0.33447 0.0
H313 H 0.19208 0.73198 0.30913 0.0
C314 C 0.78697 0.68792 0.31358 0.0
C315 C 0.80626 0.69988 0.32377 0.0
C316 C 0.77442 0.70271 0.29732 0.0
C317 C 0.76246 0.77285 0.27468 0.0
H318 H 0.74323 0.73123 0.22069 0.0
C319 C 0.7153 0.8231 0.19703 0.0
C320 C 0.69639 0.80805 0.18911 0.0
C321 C 0.73014 0.81123 0.2131 0.0
C322 C 0.74837 0.7431 0.23572 0.0
H323 H 0.82711 0.73707 0.32549 0.0
H324 H 0.80513 0.76296 0.29685 0.0
H325 H 0.76605 0.70832 0.25005 0.0
H326 H 0.67819 0.76887 0.19177 0.0
H327 H 0.70393 0.74831 0.21967 0.0
H328 H 0.74451 0.80761 0.26028 0.0
C329 C 0.79972 0.74216 0.30158 0.0
C330 C 0.76139 0.72997 0.25256 0.0
C331 C 0.81232 0.72732 0.31791 0.0
C332 C 0.69265 0.78097 0.19746 0.0
C333 C 0.70748 0.76912 0.21336 0.0
C334 C 0.74939 0.78604 0.25776 0.0
C335 C 0.78088 0.72978 0.29082 0.0
C336 C 0.76823 0.74453 0.27242 0.0
C337 C 0.72639 0.78406 0.22133 0.0
C338 C 0.74189 0.77111 0.23833 0.0
H339 H 0.78174 0.66691 0.31788 0.0
H340 H 0.7597 0.69284 0.28969 0.0
H341 H 0.76742 0.78455 0.28985 0.0
H342 H 0.71857 0.84406 0.19091 0.0
H343 H 0.74467 0.82315 0.21888 0.0
C344 C 0.26763 0.82145 0.67082 0.0
C345 C 0.28629 0.80633 0.66244 0.0
C346 C 0.25174 0.80863 0.68521 0.0
C347 C 0.23194 0.73939 0.7057 0.0
H348 H 0.21442 0.78055 0.76049 0.0
C349 C 0.1963 0.68659 0.78719 0.0
C350 C 0.17803 0.69971 0.7983 0.0
C351 C 0.20739 0.69977 0.76893 0.0
C352 C 0.21891 0.76892 0.74513 0.0
H353 H 0.30257 0.76574 0.66188 0.0
H354 H 0.27521 0.7436 0.68719 0.0
H355 H 0.237 0.80345 0.73089 0.0
H356 H 0.15689 0.73676 0.79894 0.0
H357 H 0.17634 0.75977 0.76712 0.0
H358 H 0.21437 0.7046 0.72036 0.0
C359 C 0.27257 0.7652 0.68247 0.0
C360 C 0.23178 0.78206 0.72812 0.0
C361 C 0.28837 0.77797 0.66808 0.0
C362 C 0.17098 0.72616 0.79075 0.0
C363 C 0.18214 0.73939 0.7726 0.0
C364 C 0.21918 0.72621 0.72277 0.0
C365 C 0.25426 0.78046 0.69147 0.0
C366 C 0.23872 0.76732 0.70838 0.0
C367 C 0.20048 0.72635 0.76154 0.0
C368 C 0.2128 0.74075 0.74278 0.0
H369 H 0.26552 0.84331 0.66664 0.0
H370 H 0.23764 0.82084 0.69163 0.0
H371 H 0.2367 0.7276 0.6905 0.0
H372 H 0.20208 0.66619 0.79262 0.0
H373 H 0.22165 0.68937 0.76088 0.0
C374 C 0.72807 0.68403 0.66603 0.0
C375 C 0.70928 0.6989 0.65767 0.0
C376 C 0.7439 0.69709 0.68033 0.0
C377 C 0.76302 0.76631 0.70188 0.0
H378 H 0.77958 0.72422 0.75641 0.0
C379 C 0.79659 0.81729 0.78536 0.0
C380 C 0.81431 0.80369 0.79699 0.0
C381 C 0.78624 0.80476 0.76631 0.0
C382 C 0.7754 0.73612 0.74112 0.0
H383 H 0.69287 0.73939 0.65683 0.0
H384 H 0.72018 0.76198 0.68207 0.0
H385 H 0.7577 0.70179 0.72605 0.0
H386 H 0.83538 0.76659 0.79757 0.0
H387 H 0.81726 0.74473 0.76437 0.0
H388 H 0.78019 0.80091 0.71744 0.0
C389 C 0.72292 0.74037 0.6774 0.0
C390 C 0.76292 0.72325 0.72367 0.0
C391 C 0.70716 0.72735 0.66303 0.0
C392 C 0.82168 0.77752 0.78903 0.0
C393 C 0.81128 0.76496 0.77008 0.0
C394 C 0.77543 0.77923 0.71941 0.0
C395 C 0.7412 0.72524 0.6866 0.0
C396 C 0.75632 0.73828 0.70399 0.0
C397 C 0.79336 0.77836 0.75862 0.0
C398 C 0.78149 0.76434 0.73932 0.0
H399 H 0.73024 0.66212 0.66201 0.0
H400 H 0.75803 0.68499 0.68683 0.0
H401 H 0.75849 0.77834 0.68678 0.0
H402 H 0.79059 0.8375 0.79107 0.0
H403 H 0.7723 0.81543 0.75797 0.0
C404 C 0.68558 0.27327 0.82424 0.0
C405 C 0.69114 0.30054 0.83109 0.0
C406 C 0.70028 0.25805 0.81013 0.0
C407 C 0.74556 0.26906 0.76765 0.0
H408 H 0.75587 0.18962 0.77458 0.0
C409 C 0.81003 0.21092 0.7114 0.0
C410 C 0.803 0.18539 0.7019 0.0
C411 C 0.79727 0.22382 0.72862 0.0
C412 C 0.753 0.21176 0.77236 0.0
H413 H 0.71684 0.33281 0.82944 0.0
H414 H 0.7426 0.30614 0.80511 0.0
H415 H 0.73214 0.21429 0.80254 0.0
H416 H 0.77746 0.15293 0.70341 0.0
H417 H 0.75498 0.17569 0.73343 0.0
H418 H 0.76619 0.26662 0.73745 0.0
C419 C 0.7267 0.29671 0.81022 0.0
C420 C 0.73943 0.22587 0.78834 0.0
C421 C 0.71199 0.31193 0.82425 0.0
C422 C 0.78325 0.17265 0.71038 0.0
C423 C 0.77047 0.18558 0.72765 0.0
C424 C 0.7591 0.255 0.75174 0.0
C425 C 0.72083 0.2698 0.80266 0.0
C426 C 0.73559 0.25469 0.78614 0.0
C427 C 0.77721 0.21149 0.73671 0.0
C428 C 0.76298 0.22622 0.75391 0.0
H429 H 0.66961 0.26394 0.82926 0.0
H430 H 0.6952 0.23746 0.80444 0.0
H431 H 0.74254 0.29113 0.76517 0.0
H432 H 0.82527 0.22116 0.70537 0.0
H433 H 0.80309 0.24356 0.73554 0.0
C434 C 0.16585 0.28359 0.71441 0.0
C435 C 0.17702 0.30131 0.69885 0.0
C436 C 0.178 0.26965 0.73152 0.0
C437 C 0.23289 0.24014 0.74322 0.0
H438 H 0.21639 0.24376 0.80796 0.0
C439 C 0.27315 0.1688 0.81173 0.0
C440 C 0.28393 0.1837 0.82949 0.0
C441 C 0.2581 0.18234 0.79689 0.0
C442 C 0.22105 0.24252 0.78992 0.0
H443 H 0.20956 0.31861 0.68903 0.0
H444 H 0.23096 0.29351 0.71869 0.0
H445 H 0.19448 0.27035 0.77946 0.0
H446 H 0.2865 0.22382 0.84658 0.0
H447 H 0.25966 0.24727 0.82096 0.0
H448 H 0.25929 0.21213 0.75357 0.0
C449 C 0.21277 0.2907 0.71768 0.0
C450 C 0.20857 0.25762 0.77369 0.0
C451 C 0.20054 0.30509 0.70083 0.0
C452 C 0.27846 0.21191 0.83296 0.0
C453 C 0.26308 0.22528 0.8184 0.0
C454 C 0.24507 0.22463 0.75936 0.0
C455 C 0.20158 0.2728 0.73307 0.0
C456 C 0.21456 0.25674 0.75027 0.0
C457 C 0.25325 0.21078 0.7999 0.0
C458 C 0.23935 0.22586 0.78284 0.0
H459 H 0.1477 0.28041 0.7133 0.0
H460 H 0.16907 0.25584 0.74317 0.0
H461 H 0.23767 0.239 0.72521 0.0
H462 H 0.27712 0.14706 0.80864 0.0
H463 H 0.25058 0.17076 0.78278 0.0
C464 C 0.10304 0.91254 0.28572 0.0
C465 C 0.10879 0.91377 0.30923 0.0
C466 C 0.10213 0.93675 0.27247 0.0
C467 C 0.12471 0.00836 0.27125 0.0
H468 H 0.08347 0.01594 0.21951 0.0
C469 C 0.12315 0.10576 0.21305 0.0
C470 C 0.12387 0.10052 0.18918 0.0
C471 C 0.11919 0.08413 0.2286 0.0
C472 C 0.09512 0.01401 0.23386 0.0
H473 H 0.11705 0.94162 0.33752 0.0
H474 H 0.11489 0.98409 0.31445 0.0
H475 H 0.07922 0.97675 0.24597 0.0
H476 H 0.12052 0.0685 0.16292 0.0
H477 H 0.11341 0.03067 0.1902 0.0
H478 H 0.14052 0.04573 0.2591 0.0
C479 C 0.11163 0.96425 0.30615 0.0
C480 C 0.09274 0.99158 0.24901 0.0
C481 C 0.11272 0.93993 0.31941 0.0
C482 C 0.12012 0.07322 0.18119 0.0
C483 C 0.11591 0.05161 0.19678 0.0
C484 C 0.12692 0.03094 0.25625 0.0
C485 C 0.10674 0.96288 0.28241 0.0
C486 C 0.10775 0.9882 0.26767 0.0
C487 C 0.11563 0.05684 0.22064 0.0
C488 C 0.11237 0.03375 0.23722 0.0
H489 H 0.09996 0.89275 0.27726 0.0
H490 H 0.09865 0.93477 0.2542 0.0
H491 H 0.13683 0.00622 0.28517 0.0
H492 H 0.12596 0.12654 0.21981 0.0
H493 H 0.11888 0.08876 0.24689 0.0
C494 C 0.87589 0.3973 0.21258 0.0
C495 C 0.87359 0.39933 0.18851 0.0
C496 C 0.87862 0.42117 0.22607 0.0
C497 C 0.8682 0.49704 0.22487 0.0
H498 H 0.9048 0.49627 0.28047 0.0
C499 C 0.8808 0.59507 0.28055 0.0
C500 C 0.87675 0.59174 0.3043 0.0
C501 C 0.88285 0.57189 0.26615 0.0
C502 C 0.89446 0.4967 0.26503 0.0
H503 H 0.87312 0.42804 0.15965 0.0
H504 H 0.87844 0.46975 0.18317 0.0
H505 H 0.90449 0.45551 0.25517 0.0
H506 H 0.87252 0.56135 0.33164 0.0
H507 H 0.87627 0.52074 0.30638 0.0
H508 H 0.85827 0.53828 0.23473 0.0
C509 C 0.8776 0.44969 0.19167 0.0
C510 C 0.89422 0.47337 0.25056 0.0
C511 C 0.87467 0.42577 0.17816 0.0
C512 C 0.87559 0.56464 0.31344 0.0
C513 C 0.87783 0.5414 0.299 0.0
C514 C 0.86861 0.52043 0.23922 0.0
C515 C 0.87933 0.44769 0.21582 0.0
C516 C 0.88087 0.47314 0.23042 0.0
C517 C 0.88109 0.54484 0.27517 0.0
C518 C 0.88157 0.52039 0.25954 0.0
H519 H 0.87504 0.37727 0.22116 0.0
H520 H 0.87951 0.41883 0.24462 0.0
H521 H 0.8574 0.49745 0.20977 0.0
H522 H 0.88188 0.61562 0.27291 0.0
H523 H 0.88563 0.57513 0.24788 0.0
C524 C 0.31463 0.12513 0.9478 0.0
C525 C 0.31494 0.11005 0.92703 0.0
C526 C 0.30048 0.11696 0.96585 0.0
C527 C 0.24558 0.08536 0.97356 0.0
H528 H 0.25966 0.09244 0.03864 0.0
C529 C 0.1987 0.08868 0.06864 0.0
C530 C 0.18312 0.11024 0.0643 0.0
C531 C 0.21428 0.08065 0.05171 0.0
C532 C 0.2555 0.08987 0.02056 0.0
H533 H 0.30175 0.07359 0.90936 0.0
H534 H 0.27671 0.05956 0.94088 0.0
H535 H 0.29036 0.09232 0.01034 0.0
H536 H 0.17056 0.13893 0.03842 0.0
H537 H 0.1975 0.12464 0.00879 0.0
H538 H 0.21066 0.08437 0.9837 0.0
C539 C 0.28746 0.07767 0.94314 0.0
C540 C 0.27305 0.09 0.00438 0.0
C541 C 0.30187 0.08564 0.92517 0.0
C542 C 0.18241 0.12232 0.04227 0.0
C543 C 0.19776 0.11403 0.02527 0.0
C544 C 0.22802 0.08555 0.98971 0.0
C545 C 0.28617 0.09372 0.96338 0.0
C546 C 0.26821 0.08851 0.9807 0.0
C547 C 0.21429 0.09372 0.03005 0.0
C548 C 0.23279 0.08858 0.01331 0.0
H549 H 0.32457 0.14398 0.94975 0.0
H550 H 0.29971 0.12986 0.98118 0.0
H551 H 0.24133 0.08442 0.9554 0.0
H552 H 0.19965 0.07899 0.08548 0.0
H553 H 0.22677 0.06483 0.05577 0.0
C554 C 0.79484 0.39267 0.07187 0.0
C555 C 0.81011 0.37045 0.06881 0.0
C556 C 0.77907 0.39918 0.0547 0.0
C557 C 0.7656 0.39015 0.99323 0.0
H558 H 0.70281 0.39027 0.01316 0.0
C559 C 0.6755 0.36281 0.95029 0.0
C560 C 0.67639 0.37882 0.93005 0.0
C561 C 0.69072 0.36782 0.96828 0.0
C562 C 0.72027 0.39053 0.0074 0.0
H563 H 0.82165 0.33859 0.04497 0.0
H564 H 0.79436 0.35031 0.01484 0.0
H565 H 0.73315 0.38815 0.04188 0.0
H566 H 0.69315 0.41353 0.91321 0.0
H567 H 0.71996 0.42201 0.94459 0.0
H568 H 0.75274 0.39171 0.95873 0.0
C569 C 0.79453 0.36257 0.03054 0.0
C570 C 0.73761 0.38951 0.02379 0.0
C571 C 0.81007 0.35579 0.04782 0.0
C572 C 0.69206 0.40083 0.9286 0.0
C573 C 0.70747 0.40561 0.94648 0.0
C574 C 0.74827 0.39155 0.97685 0.0
C575 C 0.77855 0.3839 0.03404 0.0
C576 C 0.76042 0.38865 0.01683 0.0
C577 C 0.70727 0.38874 0.96625 0.0
C578 C 0.72544 0.3911 0.98376 0.0
H579 H 0.79445 0.40431 0.08789 0.0
H580 H 0.76702 0.41584 0.05774 0.0
H581 H 0.78305 0.38965 0.98744 0.0
H582 H 0.66359 0.34574 0.95191 0.0
H583 H 0.69029 0.35438 0.98327 0.0
C584 C 0.30658 0.89626 0.55473 0.0
C585 C 0.31597 0.86972 0.55857 0.0
C586 C 0.29367 0.90144 0.53493 0.0
C587 C 0.27765 0.87101 0.47785 0.0
H588 H 0.22 0.90745 0.48928 0.0
C589 C 0.19727 0.84589 0.42718 0.0
C590 C 0.18464 0.86814 0.41809 0.0
C591 C 0.21519 0.85089 0.44228 0.0
C592 C 0.23618 0.89767 0.48574 0.0
H593 H 0.32021 0.82829 0.54414 0.0
H594 H 0.29754 0.83705 0.51008 0.0
H595 H 0.24931 0.90811 0.51903 0.0
H596 H 0.18056 0.91309 0.41804 0.0
H597 H 0.2117 0.92178 0.44528 0.0
H598 H 0.26386 0.85911 0.44512 0.0
C599 C 0.30029 0.85409 0.52203 0.0
C600 C 0.25304 0.89811 0.50271 0.0
C601 C 0.31321 0.84896 0.54171 0.0
C602 C 0.19002 0.89555 0.42479 0.0
C603 C 0.20778 0.90053 0.44031 0.0
C604 C 0.26072 0.87028 0.46106 0.0
C605 C 0.28991 0.88018 0.51863 0.0
C606 C 0.27371 0.88401 0.49924 0.0
C607 C 0.22067 0.87822 0.44891 0.0
C608 C 0.23963 0.88289 0.46513 0.0
H609 H 0.3085 0.91272 0.56739 0.0
H610 H 0.28618 0.92188 0.53268 0.0
H611 H 0.29355 0.86053 0.47437 0.0
H612 H 0.19361 0.82455 0.4223 0.0
H613 H 0.22469 0.83332 0.44895 0.0
C614 C 0.69134 0.59647 0.56283 0.0
C615 C 0.67824 0.62092 0.56151 0.0
C616 C 0.70553 0.58883 0.54458 0.0
C617 C 0.71947 0.60206 0.48344 0.0
H618 H 0.78195 0.59562 0.5037 0.0
C619 C 0.81085 0.63107 0.44483 0.0
C620 C 0.81045 0.61756 0.42334 0.0
C621 C 0.79495 0.62435 0.46175 0.0
C622 C 0.76456 0.59706 0.49781 0.0
H623 H 0.6683 0.65525 0.53941 0.0
H624 H 0.69284 0.64171 0.50746 0.0
H625 H 0.75147 0.59602 0.5322 0.0
H626 H 0.7936 0.58577 0.40293 0.0
H627 H 0.76545 0.57443 0.43247 0.0
H628 H 0.7327 0.60419 0.44908 0.0
C629 C 0.69224 0.62854 0.52261 0.0
C630 C 0.74711 0.59707 0.51407 0.0
C631 C 0.67827 0.63637 0.54095 0.0
C632 C 0.79434 0.59648 0.41937 0.0
C633 C 0.77819 0.59007 0.43619 0.0
C634 C 0.73692 0.60168 0.46715 0.0
C635 C 0.70661 0.60528 0.52459 0.0
C636 C 0.72445 0.60039 0.50709 0.0
C637 C 0.77815 0.60426 0.45739 0.0
C638 C 0.75965 0.60002 0.47426 0.0
H639 H 0.69165 0.58411 0.57844 0.0
H640 H 0.7163 0.57067 0.54644 0.0
H641 H 0.70213 0.60454 0.47762 0.0
H642 H 0.82309 0.64736 0.44837 0.0
H643 H 0.79517 0.63579 0.47787 0.0
C644 C 0.9428 0.30417 0.11713 0.0
C645 C 0.92119 0.30159 0.10734 0.0
C646 C 0.96169 0.29328 0.10586 0.0
C647 C 0.97606 0.23295 0.07506 0.0
H648 H 0.03584 0.26656 0.07422 0.0
C649 C 0.07717 0.20145 0.08117 0.0
C650 C 0.07603 0.18915 0.1031 0.0
C651 C 0.05762 0.21271 0.0711 0.0
C652 C 0.01925 0.2569 0.07365 0.0
H653 H 0.90221 0.28675 0.07781 0.0
H654 H 0.93541 0.26629 0.05842 0.0
H655 H 0.00222 0.29634 0.07542 0.0
H656 H 0.05381 0.17693 0.13097 0.0
H657 H 0.01958 0.19553 0.11308 0.0
H658 H 0.99317 0.19352 0.07587 0.0
C659 C 0.93771 0.27746 0.0745 0.0
C660 C 6e-05 0.27393 0.07443 0.0
C661 C 0.91882 0.28913 0.08554 0.0
C662 C 0.05498 0.18626 0.114 0.0
C663 C 0.03543 0.19674 0.10369 0.0
C664 C -0.00473 0.21591 0.07467 0.0
C665 C 0.9592 0.27896 0.08486 0.0
C666 C 0.97839 0.26206 0.07632 0.0
C667 C 0.0367 0.21099 0.08258 0.0
C668 C 0.01701 0.2278 0.07517 0.0
H669 H 0.94497 0.31369 0.13395 0.0
H670 H 0.97802 0.29435 0.11437 0.0
H671 H 0.95953 0.22331 0.07669 0.0
H672 H 0.09336 0.2041 0.07263 0.0
H673 H 0.05899 0.22383 0.05491 0.0
C674 C 0.91877 0.69702 0.41254 0.0
C675 C 0.92218 0.68697 0.39003 0.0
C676 C 0.93681 0.70898 0.42478 0.0
C677 C -0.0009 0.71902 0.42485 0.0
H678 H 0.98557 0.7979 0.43025 0.0
C679 C 0.04188 0.81659 0.38698 0.0
C680 C 0.06452 0.8133 0.39378 0.0
C681 C 0.02456 0.80378 0.39935 0.0
C682 C 0.9896 0.77586 0.42952 0.0
H683 H 0.9471 0.67916 0.36341 0.0
H684 H 0.97861 0.69912 0.3849 0.0
H685 H 0.95461 0.76422 0.42856 0.0
H686 H 0.08689 0.7958 0.41958 0.0
H687 H 0.05643 0.77227 0.44091 0.0
H688 H 0.034 0.73085 0.42359 0.0
C689 C 0.96214 0.69807 0.39313 0.0
C690 C 0.97189 0.75656 0.42867 0.0
C691 C 0.9441 0.68685 0.38072 0.0
C692 C 0.06948 0.79872 0.41415 0.0
C693 C 0.05212 0.78526 0.42628 0.0
C694 C 0.01681 0.73829 0.42592 0.0
C695 C 0.95853 0.71023 0.41488 0.0
C696 C 0.9765 0.72821 0.4247 0.0
C697 C 0.02959 0.78687 0.41846 0.0
C698 C 0.01213 0.76702 0.42662 0.0
H699 H 0.90193 0.69745 0.41997 0.0
H700 H 0.9336 0.71838 0.44146 0.0
H701 H 0.00306 0.69723 0.42196 0.0
H702 H 0.03771 0.82776 0.3713 0.0
H703 H 0.00743 0.80512 0.39269 0.0
C704 C 0.57296 0.69767 0.59835 0.0
C705 C 0.58437 0.7123 0.61589 0.0
C706 C 0.55214 0.70742 0.58997 0.0
C707 C 0.50155 0.72104 0.59322 0.0
H708 H 0.48759 0.80006 0.59104 0.0
C709 C 0.41997 0.76606 0.6286 0.0
C710 C 0.40997 0.78984 0.61878 0.0
C711 C 0.44001 0.75519 0.61968 0.0
C712 C 0.49114 0.77789 0.59099 0.0
H713 H 0.58359 0.74939 0.63739 0.0
H714 H 0.54754 0.76611 0.623 0.0
H715 H 0.52696 0.78475 0.58972 0.0
H716 H 0.41274 0.82026 0.59128 0.0
H717 H 0.44824 0.80135 0.5758 0.0
H718 H 0.46577 0.71426 0.59549 0.0
C719 C 0.55457 0.74727 0.61555 0.0
C720 C 0.51371 0.76914 0.59046 0.0
C721 C 0.57515 0.73746 0.62404 0.0
C722 C 0.42011 0.80199 0.59928 0.0
C723 C 0.44039 0.79119 0.59043 0.0
C724 C 0.47898 0.72979 0.59371 0.0
C725 C 0.54259 0.73213 0.59876 0.0
C726 C 0.51916 0.74073 0.59281 0.0
C727 C 0.45068 0.76787 0.60076 0.0
C728 C 0.47363 0.75837 0.59385 0.0
H729 H 0.57971 0.67827 0.59167 0.0
H730 H 0.54328 0.69535 0.57699 0.0
H731 H 0.50517 0.69901 0.59504 0.0
H732 H 0.41253 0.75603 0.64352 0.0
H733 H 0.44768 0.73753 0.62832 0.0
C734 C 0.86072 0.05059 0.67726 0.0
C735 C 0.87183 0.07641 0.67897 0.0
C736 C 0.8649 0.02964 0.6934 0.0
C737 C 0.86108 0.00437 0.74085 0.0
H738 H 0.91874 0.98158 0.76693 0.0
C739 C 0.86343 0.9414 0.82385 0.0
C740 C 0.87551 0.91622 0.82229 0.0
C741 C 0.86668 0.96235 0.8075 0.0
C742 C 0.90255 0.98783 0.75978 0.0
H743 H 0.8975 0.09963 0.6977 0.0
H744 H 0.90479 0.06292 0.7259 0.0
H745 H 0.91798 0.01317 0.73359 0.0
H746 H 0.90193 0.89426 0.80359 0.0
H747 H 0.90761 0.931 0.77502 0.0
H748 H 0.84556 0.97931 0.76681 0.0
C749 C 0.89282 0.05895 0.71211 0.0
C750 C 0.90212 0.00588 0.74079 0.0
C751 C 0.88859 0.07999 0.69599 0.0
C752 C 0.89229 0.91339 0.8052 0.0
C753 C 0.89559 0.93444 0.78886 0.0
C754 C 0.86151 0.9867 0.75987 0.0
C755 C 0.88032 0.03404 0.71153 0.0
C756 C 0.88134 0.01418 0.73108 0.0
C757 C 0.88212 0.9586 0.78931 0.0
C758 C 0.8822 0.97825 0.76959 0.0
H759 H 0.84786 0.04708 0.66424 0.0
H760 H 0.85533 0.01041 0.6923 0.0
H761 H 0.8448 0.01075 0.734 0.0
H762 H 0.85052 0.94434 0.83691 0.0
H763 H 0.85637 0.98102 0.8085 0.0
C764 C 0.1298 0.55956 0.82054 0.0
C765 C 0.11723 0.58437 0.81883 0.0
C766 C 0.12683 0.53819 0.80443 0.0
C767 C 0.13098 0.5103 0.75788 0.0
H768 H 0.07363 0.48487 0.7328 0.0
C769 C 0.12865 0.44109 0.6775 0.0
C770 C 0.11556 0.41674 0.67949 0.0
C771 C 0.12612 0.46284 0.69335 0.0
C772 C 0.08976 0.49179 0.73967 0.0
H773 H 0.09056 0.6054 0.79982 0.0
H774 H 0.08538 0.56799 0.77169 0.0
H775 H 0.07396 0.51837 0.7648 0.0
H776 H 0.08845 0.39694 0.69872 0.0
H777 H 0.08405 0.43496 0.72639 0.0
H778 H 0.14685 0.48376 0.73305 0.0
C779 C 0.09753 0.5651 0.78549 0.0
C780 C 0.08994 0.51102 0.75789 0.0
C781 C 0.10054 0.58655 0.80159 0.0
C782 C 0.09883 0.4154 0.69674 0.0
C783 C 0.09626 0.43722 0.71257 0.0
C784 C 0.1308 0.49134 0.73963 0.0
C785 C 0.1112 0.54111 0.78629 0.0
C786 C 0.11059 0.52033 0.76727 0.0
C787 C 0.11041 0.46075 0.7115 0.0
C788 C 0.11021 0.48183 0.7303 0.0
H789 H 0.14269 0.55713 0.83369 0.0
H790 H 0.1373 0.5197 0.80575 0.0
H791 H 0.14717 0.5174 0.76446 0.0
H792 H 0.14158 0.44285 0.66433 0.0
H793 H 0.13697 0.48096 0.69183 0.0
C794 C 0.68601 0.82513 0.0524 0.0
C795 C 0.68383 0.84488 0.07015 0.0
C796 C 0.69593 0.8324 0.03149 0.0
C797 C 0.73915 0.87532 0.00734 0.0
H798 H 0.71369 0.84976 0.94936 0.0
C799 C 0.79245 0.86823 0.9234 0.0
C800 C 0.79051 0.84221 0.91232 0.0
C801 C 0.77712 0.8759 0.94074 0.0
C802 C 0.72101 0.85715 0.96538 0.0
H803 H 0.69001 0.88786 0.07992 0.0
H804 H 0.70828 0.90042 0.04319 0.0
H805 H 0.69016 0.8503 0.98396 0.0
H806 H 0.77057 0.80422 0.91037 0.0
H807 H 0.74422 0.8174 0.94049 0.0
H808 H 0.77046 0.88034 0.98912 0.0
C809 C 0.7019 0.87944 0.04555 0.0
C810 C 0.70751 0.85759 0.98511 0.0
C811 C 0.69145 0.87229 0.06644 0.0
C812 C 0.77264 0.82439 0.91855 0.0
C813 C 0.75734 0.83209 0.93569 0.0
C814 C 0.75275 0.87469 0.98758 0.0
C815 C 0.70424 0.85947 0.02795 0.0
C816 C 0.71672 0.86557 0.00644 0.0
C817 C 0.75946 0.85782 0.94712 0.0
C818 C 0.74406 0.86441 0.96663 0.0
H819 H 0.68017 0.8039 0.05473 0.0
H820 H 0.6978 0.81651 0.01832 0.0
H821 H 0.74665 0.88142 0.02364 0.0
H822 H 0.80601 0.88246 0.91896 0.0
H823 H 0.77914 0.89589 0.94922 0.0
C824 C 0.20058 0.68448 0.93169 0.0
C825 C 0.19197 0.66311 0.91758 0.0
C826 C 0.21231 0.67815 0.95183 0.0
C827 C 0.24914 0.63189 0.98045 0.0
H828 H 0.22426 0.66451 0.03624 0.0
C829 C 0.29679 0.63413 0.06894 0.0
C830 C 0.29625 0.66039 0.07982 0.0
C831 C 0.28307 0.62879 0.04967 0.0
C832 C 0.23142 0.6552 0.02085 0.0
H833 H 0.18954 0.61825 0.91321 0.0
H834 H 0.21086 0.6072 0.94857 0.0
H835 H 0.20208 0.6651 0.00077 0.0
H836 H 0.28114 0.70169 0.07869 0.0
H837 H 0.25767 0.6925 0.04534 0.0
H838 H 0.27915 0.62361 0.00025 0.0
C839 C 0.2081 0.6288 0.9439 0.0
C840 C 0.21867 0.65539 0.00065 0.0
C841 C 0.19592 0.63515 0.9238 0.0
C842 C 0.28194 0.68117 0.0709 0.0
C843 C 0.26829 0.67583 0.05184 0.0
C844 C 0.26208 0.63191 0.00073 0.0
C845 C 0.21602 0.65034 0.95819 0.0
C846 C 0.22771 0.6446 0.98014 0.0
C847 C 0.26848 0.64954 0.04113 0.0
C848 C 0.25363 0.64458 0.02088 0.0
H849 H 0.19783 0.70622 0.9275 0.0
H850 H 0.21845 0.69506 0.96256 0.0
H851 H 0.25643 0.62359 0.96473 0.0
H852 H 0.30765 0.61767 0.07538 0.0
H853 H 0.28359 0.60835 0.04171 0.0
C854 C 0.69094 0.1228 0.42975 0.0
C855 C 0.68349 0.15039 0.42656 0.0
C856 C 0.70138 0.11498 0.4505 0.0
C857 C 0.70616 0.13425 0.51132 0.0
H858 H 0.76965 0.11362 0.50801 0.0
C859 C 0.76902 0.16683 0.58011 0.0
C860 C 0.78707 0.14932 0.58644 0.0
C861 C 0.75437 0.15932 0.56234 0.0
C862 C 0.7518 0.11864 0.50933 0.0
H863 H 0.6802 0.19102 0.44269 0.0
H864 H 0.69775 0.17721 0.47888 0.0
H865 H 0.74653 0.11339 0.47294 0.0
H866 H 0.80365 0.10986 0.57923 0.0
H867 H 0.7779 0.09676 0.54783 0.0
H868 H 0.71146 0.14063 0.5474 0.0
C869 C 0.69578 0.16172 0.46539 0.0
C870 C 0.7386 0.1185 0.48926 0.0
C871 C 0.68591 0.16967 0.44462 0.0
C872 C 0.78991 0.12383 0.57474 0.0
C873 C 0.77523 0.11634 0.55675 0.0
C874 C 0.71925 0.13418 0.53134 0.0
C875 C 0.70384 0.13445 0.46845 0.0
C876 C 0.71597 0.12754 0.48998 0.0
C877 C 0.75732 0.13409 0.55036 0.0
C878 C 0.74248 0.12772 0.53037 0.0
H879 H 0.68932 0.10759 0.41602 0.0
H880 H 0.70759 0.09385 0.4525 0.0
H881 H 0.68866 0.14103 0.51229 0.0
H882 H 0.76626 0.1866 0.58873 0.0
H883 H 0.74106 0.17376 0.55755 0.0
C884 C 0.18956 0.35958 0.57196 0.0
C885 C 0.18441 0.33216 0.57882 0.0
C886 C 0.20146 0.36445 0.55143 0.0
C887 C 0.21173 0.33372 0.49512 0.0
H888 H 0.27083 0.36911 0.49503 0.0
C889 C 0.27695 0.30865 0.42619 0.0
C890 C 0.29098 0.32973 0.41732 0.0
C891 C 0.26262 0.31395 0.44474 0.0
C892 C 0.25415 0.35972 0.49465 0.0
H893 H 0.18757 0.28846 0.56946 0.0
H894 H 0.20777 0.29705 0.53366 0.0
H895 H 0.24759 0.37005 0.5301 0.0
H896 H 0.30098 0.37304 0.42118 0.0
H897 H 0.27567 0.38234 0.45383 0.0
H898 H 0.2182 0.32281 0.46002 0.0
C899 C 0.20276 0.31471 0.54418 0.0
C900 C 0.2409 0.36026 0.51469 0.0
C901 C 0.19131 0.30982 0.56476 0.0
C902 C 0.29038 0.35633 0.4276 0.0
C903 C 0.27595 0.36165 0.44631 0.0
C904 C 0.2248 0.33339 0.47512 0.0
C905 C 0.20788 0.342 0.53728 0.0
C906 C 0.21997 0.34636 0.51527 0.0
C907 C 0.2618 0.34051 0.45496 0.0
C908 C 0.24653 0.34539 0.47491 0.0
H909 H 0.1845 0.37718 0.5825 0.0
H910 H 0.20531 0.38568 0.5464 0.0
H911 H 0.19548 0.32318 0.49511 0.0
H912 H 0.27702 0.28786 0.41884 0.0
H913 H 0.25237 0.29699 0.45131 0.0
C914 C 0.08062 0.74139 0.90158 0.0
C915 C 0.08391 0.71472 0.89201 0.0
C916 C 0.0591 0.75006 0.90846 0.0
C917 C 0.00053 0.72753 0.92073 0.0
H918 H 0.98458 0.79714 0.89088 0.0
C919 C 0.9091 0.75717 0.89753 0.0
C920 C 0.90316 0.78541 0.89521 0.0
C921 C 0.93109 0.74958 0.90376 0.0
C922 C 0.98874 0.77807 0.89992 0.0
H923 H 0.06744 0.67552 0.88371 0.0
H924 H 0.02968 0.69084 0.89562 0.0
H925 H 0.02351 0.78118 0.89009 0.0
H926 H 0.91503 0.82787 0.89961 0.0
H927 H 0.95325 0.81466 0.91127 0.0
H928 H 0.96558 0.72425 0.93026 0.0
C929 C 0.04386 0.70495 0.89784 0.0
C930 C 0.01112 0.76885 0.89936 0.0
C931 C 0.06545 0.69624 0.89089 0.0
C932 C 0.91919 0.80593 0.90091 0.0
C933 C 0.94113 0.79833 0.90747 0.0
C934 C 0.97809 0.73694 0.92154 0.0
C935 C 0.0404 0.73226 0.90597 0.0
C936 C 0.01716 0.74321 0.90929 0.0
C937 C 0.94759 0.77007 0.90811 0.0
C938 C 0.97182 0.762 0.91061 0.0
H939 H 0.09452 0.75604 0.90302 0.0
H940 H 0.05696 0.77107 0.915 0.0
H941 H 0.00481 0.70781 0.92872 0.0
H942 H 0.89714 0.74081 0.8933 0.0
H943 H 0.93541 0.72763 0.9038 0.0
C944 C 0.074 0.25771 0.60184 0.0
C945 C 0.0776 0.28448 0.61108 0.0
C946 C 0.05227 0.24895 0.59587 0.0
C947 C 0.99329 0.27115 0.58544 0.0
H948 H 0.97873 0.20098 0.6151 0.0
C949 C 0.90229 0.2383 0.60819 0.0
C950 C 0.89693 0.2098 0.60974 0.0
C951 C 0.92419 0.24681 0.60253 0.0
C952 C 0.9825 0.22023 0.60616 0.0
H953 H 0.06141 0.32372 0.6198 0.0
H954 H 0.02321 0.3082 0.6095 0.0
H955 H 0.01745 0.21772 0.61545 0.0
H956 H 0.90986 0.1679 0.60468 0.0
H957 H 0.94795 0.18275 0.59403 0.0
H958 H 0.95817 0.27378 0.5764 0.0
C959 C 0.03732 0.29411 0.60683 0.0
C960 C 0.00475 0.2299 0.60646 0.0
C961 C 0.05916 0.30294 0.61283 0.0
C962 C 0.91355 0.19001 0.60396 0.0
C963 C 0.93541 0.19854 0.59798 0.0
C964 C 0.97098 0.26131 0.58491 0.0
C965 C 0.03362 0.26672 0.599 0.0
C966 C 0.01032 0.25566 0.59647 0.0
C967 C 0.94121 0.22702 0.59798 0.0
C968 C 0.96524 0.23596 0.59569 0.0
H969 H 0.08787 0.24309 0.59989 0.0
H970 H 0.04994 0.22789 0.5895 0.0
H971 H -0.0028 0.29097 0.57743 0.0
H972 H 0.88987 0.25412 0.61251 0.0
H973 H 0.92802 0.26889 0.60296 0.0
C974 C 0.58147 0.24301 0.39022 0.0
C975 C 0.58587 0.21517 0.38399 0.0
C976 C 0.55939 0.25184 0.39478 0.0
C977 C 0.50143 0.22774 0.40802 0.0
H978 H 0.48334 0.29405 0.37452 0.0
C979 C 0.4086 0.25318 0.38628 0.0
C980 C 0.40187 0.28121 0.38435 0.0
C981 C 0.4311 0.24637 0.39109 0.0
C982 C 0.48814 0.27587 0.38445 0.0
H983 H 0.5706 0.1745 0.37867 0.0
H984 H 0.53196 0.19004 0.38653 0.0
H985 H 0.52278 0.27954 0.37415 0.0
H986 H 0.41319 0.32409 0.38751 0.0
H987 H 0.4524 0.31219 0.39642 0.0
H988 H 0.46665 0.22385 0.41803 0.0
C989 C 0.54567 0.20495 0.38799 0.0
C990 C 0.51077 0.2675 0.38416 0.0
C991 C 0.56779 0.19611 0.38333 0.0
C992 C 0.41788 0.30229 0.38861 0.0
C993 C 0.44038 0.29546 0.39361 0.0
C994 C 0.47876 0.23623 0.40845 0.0
C995 C 0.54122 0.23303 0.3933 0.0
C996 C 0.51758 0.24309 0.39559 0.0
C997 C 0.44738 0.26742 0.39428 0.0
C998 C 0.47177 0.26011 0.39628 0.0
H999 H 0.59501 0.25822 0.39108 0.0
H1000 H 0.55648 0.27353 0.39912 0.0
H1001 H 0.50628 0.20902 0.41722 0.0
H1002 H 0.3967 0.2364 0.38313 0.0
H1003 H 0.4359 0.22457 0.39121 0.0
C1004 C 0.62474 0.57784 0.68018 0.0
C1005 C 0.62901 0.60421 0.68986 0.0
C1006 C 0.62145 0.55462 0.69432 0.0
C1007 C 0.60939 0.53297 0.75463 0.0
H1008 H 0.6401 0.46519 0.73572 0.0
C1009 C 0.62491 0.43851 0.81524 0.0
C1010 C 0.62232 0.41179 0.80556 0.0
C1011 C 0.62349 0.46231 0.80135 0.0
C1012 C 0.63118 0.48383 0.74112 0.0
H1013 H 0.63247 0.62696 0.72207 0.0
H1014 H 0.62714 0.58641 0.74666 0.0
H1015 H 0.64133 0.50597 0.71091 0.0
H1016 H 0.61533 0.38926 0.77381 0.0
H1017 H 0.61278 0.43061 0.74979 0.0
H1018 H 0.59966 0.51075 0.78513 0.0
C1019 C 0.62602 0.58371 0.72815 0.0
C1020 C 0.63183 0.50722 0.72686 0.0
C1021 C 0.6292 0.60696 0.71402 0.0
C1022 C 0.61761 0.40947 0.78185 0.0
C1023 C 0.61625 0.43317 0.76802 0.0
C1024 C 0.60882 0.50954 0.76897 0.0
C1025 C 0.62247 0.55718 0.71846 0.0
C1026 C 0.62097 0.53209 0.73343 0.0
C1027 C 0.61951 0.45982 0.77752 0.0
C1028 C 0.61972 0.48472 0.76235 0.0
H1029 H 0.62428 0.575 0.66165 0.0
H1030 H 0.61832 0.53458 0.68629 0.0
H1031 H 0.60064 0.5517 0.76009 0.0
H1032 H 0.62853 0.44105 0.83344 0.0
H1033 H 0.62622 0.48257 0.80914 0.0
C1034 C 0.3729 0.10249 0.77624 0.0
C1035 C 0.37039 0.09803 0.80007 0.0
C1036 C 0.37673 0.08011 0.7613 0.0
C1037 C 0.39324 0.00553 0.75871 0.0
H1038 H 0.35395 0.00429 0.70509 0.0
C1039 C 0.37133 0.90472 0.70944 0.0
C1040 C 0.36804 0.90593 0.68544 0.0
C1041 C 0.37544 0.92896 0.72213 0.0
C1042 C 0.36538 0.00448 0.7197 0.0
H1043 H 0.3711 0.06663 0.82699 0.0
H1044 H 0.37762 0.02758 0.80087 0.0
H1045 H 0.3547 0.04532 0.72975 0.0
H1046 H 0.36745 0.93356 0.65584 0.0
H1047 H 0.3749 0.97587 0.678 0.0
H1048 H 0.40356 0.96438 0.74885 0.0
C1049 C 0.37677 0.04843 0.79376 0.0
C1050 C 0.3658 0.02803 0.73388 0.0
C1051 C 0.37291 0.07083 0.80873 0.0
C1052 C 0.36975 0.93188 0.67432 0.0
C1053 C 0.37391 0.95616 0.68703 0.0
C1054 C 0.39287 0.98196 0.74447 0.0
C1055 C 0.37818 0.05276 0.76982 0.0
C1056 C 0.37946 0.02867 0.75374 0.0
C1057 C 0.37643 0.95503 0.71114 0.0
C1058 C 0.37864 0.98099 0.72501 0.0
H1059 H 0.37124 0.12318 0.76898 0.0
H1060 H 0.37813 0.08417 0.74298 0.0
H1061 H 0.40418 0.00555 0.77372 0.0
H1062 H 0.37015 0.8851 0.7186 0.0
H1063 H 0.377 0.92734 0.74069 0.0
C1064 C 0.41637 0.19896 0.89516 0.0
C1065 C 0.40439 0.21134 0.87686 0.0
C1066 C 0.43517 0.21251 0.90489 0.0
C1067 C 0.48348 0.23689 0.90587 0.0
H1068 H 0.48548 0.31776 0.90691 0.0
C1069 C 0.54702 0.31808 0.86871 0.0
C1070 C 0.56748 0.31351 0.88038 0.0
C1071 C 0.52667 0.30864 0.87801 0.0
C1072 C 0.48513 0.29518 0.90726 0.0
H1073 H 0.40213 0.24813 0.85517 0.0
H1074 H 0.43457 0.2713 0.87179 0.0
H1075 H 0.44892 0.29395 0.90641 0.0
H1076 H 0.58297 0.29617 0.91103 0.0
H1077 H 0.54708 0.27828 0.92696 0.0
H1078 H 0.51981 0.23836 0.90543 0.0
C1079 C 0.42952 0.25137 0.87889 0.0
C1080 C 0.46426 0.28153 0.90682 0.0
C1081 C 0.41104 0.23784 0.86911 0.0
C1082 C 0.56727 0.30011 0.9019 0.0
C1083 C 0.54688 0.28988 0.91095 0.0
C1084 C 0.50441 0.25059 0.90659 0.0
C1085 C 0.442 0.23881 0.8967 0.0
C1086 C 0.46326 0.25233 0.90461 0.0
C1087 C 0.52649 0.29381 0.89887 0.0
C1088 C 0.50533 0.27984 0.90595 0.0
H1089 H 0.41158 0.17858 0.90154 0.0
H1090 H 0.44451 0.20231 0.91857 0.0
H1091 H 0.48329 0.2144 0.90414 0.0
H1092 H 0.54686 0.32829 0.85205 0.0
H1093 H 0.5112 0.31157 0.86823 0.0
C1094 C 0.35567 0.55255 0.17858 0.0
C1095 C 0.36742 0.57787 0.18085 0.0
C1096 C 0.35878 0.53126 0.19469 0.0
C1097 C 0.35361 0.50441 0.24152 0.0
H1098 H 0.41053 0.48074 0.2687 0.0
C1099 C 0.35421 0.43853 0.32336 0.0
C1100 C 0.36691 0.41381 0.32178 0.0
C1101 C 0.3574 0.45992 0.30737 0.0
C1102 C 0.39454 0.48721 0.26125 0.0
H1103 H 0.39299 0.59989 0.20068 0.0
H1104 H 0.39844 0.56264 0.22876 0.0
H1105 H 0.41071 0.51311 0.23597 0.0
H1106 H 0.39419 0.39309 0.30342 0.0
H1107 H 0.39977 0.43053 0.27554 0.0
H1108 H 0.33737 0.47865 0.26657 0.0
C1109 C 0.38679 0.55929 0.21458 0.0
C1110 C 0.39463 0.50573 0.24259 0.0
C1111 C 0.3836 0.58065 0.19853 0.0
C1112 C 0.38407 0.41184 0.30503 0.0
C1113 C 0.38732 0.43332 0.28909 0.0
C1114 C 0.3535 0.48619 0.26022 0.0
C1115 C 0.37378 0.53481 0.21331 0.0
C1116 C 0.37414 0.51439 0.23249 0.0
C1117 C 0.37341 0.45708 0.28956 0.0
C1118 C 0.37393 0.4774 0.27032 0.0
H1119 H 0.34318 0.54969 0.16509 0.0
H1120 H 0.34882 0.51238 0.19307 0.0
H1121 H 0.33753 0.51105 0.23435 0.0
H1122 H 0.34096 0.44078 0.33615 0.0
H1123 H 0.34672 0.47827 0.3084 0.0
C1124 C 0.60729 0.09447 0.29168 0.0
C1125 C 0.61582 0.0874 0.31355 0.0
C1126 C 0.60293 0.07379 0.2753 0.0
C1127 C 0.59228 -9e-05 0.26547 0.0
H1128 H 0.6295 0.00873 0.21087 0.0
C1129 C 0.61283 0.90785 0.20527 0.0
C1130 C 0.6185 0.91288 0.18213 0.0
C1131 C 0.60811 0.92996 0.22019 0.0
C1132 C 0.61848 0.00609 0.22562 0.0
H1133 H 0.62506 0.05305 0.33593 0.0
H1134 H 0.61684 0.01674 0.30735 0.0
H1135 H 0.62818 0.04575 0.23945 0.0
H1136 H 0.62218 0.9448 0.15603 0.0
H1137 H 0.61272 0.98341 0.1817 0.0
H1138 H 0.58219 0.9605 0.25162 0.0
C1139 C 0.61378 0.03836 0.30292 0.0
C1140 C 0.61788 0.02732 0.2421 0.0
C1141 C 0.61855 0.05911 0.31921 0.0
C1142 C 0.6181 0.94035 0.17386 0.0
C1143 C 0.61286 0.96249 0.18868 0.0
C1144 C 0.59245 0.97887 0.24873 0.0
C1145 C 0.60659 0.04562 0.28063 0.0
C1146 C 0.60515 0.02418 0.26235 0.0
C1147 C 0.60846 0.95768 0.21224 0.0
C1148 C 0.60599 0.98137 0.22879 0.0
H1149 H 0.60502 0.11609 0.28678 0.0
H1150 H 0.59732 0.07983 0.25823 0.0
H1151 H 0.5822 0.99717 0.28092 0.0
H1152 H 0.61313 0.88687 0.21218 0.0
H1153 H 0.6052 0.92525 0.2382 0.0
C1154 C 0.56818 0.80107 0.11843 0.0
C1155 C 0.58635 0.78218 0.11687 0.0
C1156 C 0.54594 0.79202 0.11483 0.0
C1157 C 0.5117 0.72901 0.11993 0.0
H1158 H 0.46599 0.77189 0.08755 0.0
C1159 C 0.41935 0.6915 0.11609 0.0
C1160 C 0.40284 0.71197 0.12046 0.0
C1161 C 0.44173 0.69915 0.11143 0.0
C1162 C 0.47854 0.75975 0.09676 0.0
H1163 H 0.59545 0.73923 0.10926 0.0
H1164 H 0.55671 0.72358 0.10304 0.0
H1165 H 0.50539 0.78759 0.0873 0.0
H1166 H 0.39673 0.75656 0.12252 0.0
H1167 H 0.43573 0.76981 0.11499 0.0
H1168 H 0.48496 0.70174 0.13016 0.0
C1169 C 0.55966 0.74528 0.1073 0.0
C1170 C 0.50108 0.76874 0.09657 0.0
C1171 C 0.58186 0.75431 0.1108 0.0
C1172 C 0.40902 0.74024 0.11925 0.0
C1173 C 0.4314 0.74787 0.11475 0.0
C1174 C 0.4892 0.72013 0.12025 0.0
C1175 C 0.54145 0.7639 0.10969 0.0
C1176 C 0.51782 0.7536 0.10838 0.0
C1177 C 0.44811 0.72742 0.11119 0.0
C1178 C 0.47229 0.73557 0.10892 0.0
H1179 H 0.57107 0.82269 0.123 0.0
H1180 H 0.5322 0.80679 0.11695 0.0
H1181 H 0.52418 0.71713 0.12949 0.0
H1182 H 0.41509 0.66954 0.11668 0.0
H1183 H 0.45411 0.68289 0.10836 0.0
loop_
_geom_bond_atom_site_label_1
_geom_bond_atom_site_label_2
_geom_bond_distance
_geom_bond_site_symmetry_2
_ccdc_geom_bond_type
C0 O1 1.306 . S
C0 O3 1.160 . S
O1 C0 1.306 . S
O1 Cd2 2.228 . S
Cd2 O1 2.228 . S
Cd2 O6 2.273 . S
Cd2 O10 2.277 . S
O3 C0 1.160 . S
O3 Cd4 2.203 . S
Cd4 O3 2.203 . S
Cd4 O6 2.411 . S
Cd4 O7 2.333 . S
Cd4 O8 2.352 . S
Cd4 O12 2.277 . S
Cd4 O13 2.356 . S
C5 O10 1.209 . S
C5 O12 1.226 . S
O6 Cd2 2.273 . S
O6 Cd4 2.411 . S
O6 C9 1.320 . S
O7 Cd4 2.333 . S
O7 C9 1.214 . S
O8 Cd4 2.352 . S
O8 C11 1.258 . S
C9 O6 1.320 . S
C9 O7 1.214 . S
O10 Cd2 2.277 . S
O10 C5 1.209 . S
C11 O8 1.258 . S
C11 O13 1.282 . S
O12 Cd4 2.277 . S
O12 C5 1.226 . S
O13 Cd4 2.356 . S
O13 C11 1.282 . S
C14 O15 1.306 . S
C14 O17 1.160 . S
O15 C14 1.306 . S
O15 Cd16 2.228 . S
Cd16 O15 2.228 . S
Cd16 O20 2.273 . S
Cd16 O24 2.277 . S
O17 C14 1.160 . S
O17 Cd18 2.203 . S
Cd18 O17 2.203 . S
Cd18 O20 2.411 . S
Cd18 O21 2.333 . S
Cd18 O22 2.352 . S
Cd18 O26 2.277 . S
Cd18 O27 2.356 . S
C19 O24 1.209 . S
C19 O26 1.226 . S
O20 Cd16 2.273 . S
O20 Cd18 2.411 . S
O20 C23 1.320 . S
O21 Cd18 2.333 . S
O21 C23 1.214 . S
O22 Cd18 2.352 . S
O22 C25 1.258 . S
C23 O20 1.320 . S
C23 O21 1.214 . S
O24 Cd16 2.277 . S
O24 C19 1.209 . S
C25 O22 1.258 . S
C25 O27 1.282 . S
O26 Cd18 2.277 . S
O26 C19 1.226 . S
O27 Cd18 2.356 . S
O27 C25 1.282 . S
C28 O29 1.306 . S
C28 O31 1.160 . S
O29 C28 1.306 . S
O29 Cd30 2.228 . S
Cd30 O29 2.228 . S
Cd30 O34 2.273 . S
Cd30 O38 2.277 . S
O31 C28 1.160 . S
O31 Cd32 2.203 . S
Cd32 O31 2.203 . S
Cd32 O34 2.411 . S
Cd32 O35 2.333 . S
Cd32 O36 2.352 . S
Cd32 O40 2.277 . S
Cd32 O41 2.356 . S
C33 O38 1.209 . S
C33 O40 1.226 . S
O34 Cd30 2.273 . S
O34 Cd32 2.411 . S
O34 C37 1.320 . S
O35 Cd32 2.333 . S
O35 C37 1.214 . S
O36 Cd32 2.352 . S
O36 C39 1.258 . S
C37 O34 1.320 . S
C37 O35 1.214 . S
O38 Cd30 2.277 . S
O38 C33 1.209 . S
C39 O36 1.258 . S
C39 O41 1.282 . S
O40 Cd32 2.277 . S
O40 C33 1.226 . S
O41 Cd32 2.356 . S
O41 C39 1.282 . S
C42 O43 1.306 . S
C42 O45 1.160 . S
O43 C42 1.306 . S
O43 Cd44 2.228 . S
Cd44 O43 2.228 . S
Cd44 O48 2.273 . S
Cd44 O52 2.277 . S
O45 C42 1.160 . S
O45 Cd46 2.203 . S
Cd46 O45 2.203 . S
Cd46 O48 2.411 . S
Cd46 O49 2.333 . S
Cd46 O50 2.352 . S
Cd46 O54 2.277 . S
Cd46 O55 2.356 . S
C47 O52 1.209 . S
C47 O54 1.226 . S
O48 Cd44 2.273 . S
O48 Cd46 2.411 . S
O48 C51 1.320 . S
O49 Cd46 2.333 . S
O49 C51 1.214 . S
O50 Cd46 2.352 . S
O50 C53 1.258 . S
C51 O48 1.320 . S
C51 O49 1.214 . S
O52 Cd44 2.277 . S
O52 C47 1.209 . S
C53 O50 1.258 . S
C53 O55 1.282 . S
O54 Cd46 2.277 . S
O54 C47 1.226 . S
O55 Cd46 2.356 . S
O55 C53 1.282 . S
C56 O57 1.306 . S
C56 O59 1.160 . S
O57 C56 1.306 . S
O57 Cd58 2.228 . S
Cd58 O57 2.228 . S
Cd58 O62 2.273 . S
Cd58 O66 2.277 . S
O59 C56 1.160 . S
O59 Cd60 2.203 . S
Cd60 O59 2.203 . S
Cd60 O62 2.411 . S
Cd60 O63 2.333 . S
Cd60 O64 2.352 . S
Cd60 O68 2.277 . S
Cd60 O69 2.356 . S
C61 O66 1.209 . S
C61 O68 1.226 . S
O62 Cd58 2.273 . S
O62 Cd60 2.411 . S
O62 C65 1.320 . S
O63 Cd60 2.333 . S
O63 C65 1.214 . S
O64 Cd60 2.352 . S
O64 C67 1.258 . S
C65 O62 1.320 . S
C65 O63 1.214 . S
O66 Cd58 2.277 . S
O66 C61 1.209 . S
C67 O64 1.258 . S
C67 O69 1.282 . S
O68 Cd60 2.277 . S
O68 C61 1.226 . S
O69 Cd60 2.356 . S
O69 C67 1.282 . S
C70 O71 1.306 . S
C70 O73 1.160 . S
O71 C70 1.306 . S
O71 Cd72 2.228 . S
Cd72 O71 2.228 . S
Cd72 O76 2.273 . S
Cd72 O80 2.277 . S
O73 C70 1.160 . S
O73 Cd74 2.203 . S
Cd74 O73 2.203 . S
Cd74 O76 2.411 . S
Cd74 O77 2.333 . S
Cd74 O78 2.352 . S
Cd74 O82 2.277 . S
Cd74 O83 2.356 . S
C75 O80 1.209 . S
C75 O82 1.226 . S
O76 Cd72 2.273 . S
O76 Cd74 2.411 . S
O76 C79 1.320 . S
O77 Cd74 2.333 . S
O77 C79 1.214 . S
O78 Cd74 2.352 . S
O78 C81 1.258 . S
C79 O76 1.320 . S
C79 O77 1.214 . S
O80 Cd72 2.277 . S
O80 C75 1.209 . S
C81 O78 1.258 . S
C81 O83 1.282 . S
O82 Cd74 2.277 . S
O82 C75 1.226 . S
O83 Cd74 2.356 . S
O83 C81 1.282 . S
C84 O85 1.306 . S
C84 O87 1.160 . S
O85 C84 1.306 . S
O85 Cd86 2.228 . S
Cd86 O85 2.228 . S
Cd86 O90 2.273 . S
Cd86 O94 2.277 . S
O87 C84 1.160 . S
O87 Cd88 2.203 . S
Cd88 O87 2.203 . S
Cd88 O90 2.411 . S
Cd88 O91 2.333 . S
Cd88 O92 2.352 . S
Cd88 O96 2.277 . S
Cd88 O97 2.356 . S
C89 O94 1.209 . S
C89 O96 1.226 . S
O90 Cd86 2.273 . S
O90 Cd88 2.411 . S
O90 C93 1.320 . S
O91 Cd88 2.333 . S
O91 C93 1.214 . S
O92 Cd88 2.352 . S
O92 C95 1.258 . S
C93 O90 1.320 . S
C93 O91 1.214 . S
O94 Cd86 2.277 . S
O94 C89 1.209 . S
C95 O92 1.258 . S
C95 O97 1.282 . S
O96 Cd88 2.277 . S
O96 C89 1.226 . S
O97 Cd88 2.356 . S
O97 C95 1.282 . S
C98 O99 1.306 . S
C98 O101 1.160 . S
O99 C98 1.306 . S
O99 Cd100 2.228 . S
Cd100 O99 2.228 . S
Cd100 O104 2.273 . S
Cd100 O108 2.277 . S
O101 C98 1.160 . S
O101 Cd102 2.203 . S
Cd102 O101 2.203 . S
Cd102 O104 2.411 . S
Cd102 O105 2.333 . S
Cd102 O106 2.352 . S
Cd102 O110 2.277 . S
Cd102 O111 2.356 . S
C103 O108 1.209 . S
C103 O110 1.226 . S
O104 Cd100 2.273 . S
O104 Cd102 2.411 . S
O104 C107 1.320 . S
O105 Cd102 2.333 . S
O105 C107 1.214 . S
O106 Cd102 2.352 . S
O106 C109 1.258 . S
C107 O104 1.320 . S
C107 O105 1.214 . S
O108 Cd100 2.277 . S
O108 C103 1.209 . S
C109 O106 1.258 . S
C109 O111 1.282 . S
O110 Cd102 2.277 . S
O110 C103 1.226 . S
O111 Cd102 2.356 . S
O111 C109 1.282 . S
C112 O113 1.306 . S
C112 O115 1.160 . S
O113 C112 1.306 . S
O113 Cd114 2.228 . S
Cd114 O113 2.228 . S
Cd114 O118 2.273 . S
Cd114 O122 2.277 . S
O115 C112 1.160 . S
O115 Cd116 2.203 . S
Cd116 O115 2.203 . S
Cd116 O118 2.411 . S
Cd116 O119 2.333 . S
Cd116 O120 2.352 . S
Cd116 O124 2.277 . S
Cd116 O125 2.356 . S
C117 O122 1.209 . S
C117 O124 1.226 . S
O118 Cd114 2.273 . S
O118 Cd116 2.411 . S
O118 C121 1.320 . S
O119 Cd116 2.333 . S
O119 C121 1.214 . S
O120 Cd116 2.352 . S
O120 C123 1.258 . S
C121 O118 1.320 . S
C121 O119 1.214 . S
O122 Cd114 2.277 . S
O122 C117 1.209 . S
C123 O120 1.258 . S
C123 O125 1.282 . S
O124 Cd116 2.277 . S
O124 C117 1.226 . S
O125 Cd116 2.356 . S
O125 C123 1.282 . S
C126 O127 1.306 . S
C126 O129 1.160 . S
O127 C126 1.306 . S
O127 Cd128 2.228 . S
Cd128 O127 2.228 . S
Cd128 O132 2.273 . S
Cd128 O136 2.277 . S
O129 C126 1.160 . S
O129 Cd130 2.203 . S
Cd130 O129 2.203 . S
Cd130 O132 2.411 . S
Cd130 O133 2.333 . S
Cd130 O134 2.352 . S
Cd130 O138 2.277 . S
Cd130 O139 2.356 . S
C131 O136 1.209 . S
C131 O138 1.226 . S
O132 Cd128 2.273 . S
O132 Cd130 2.411 . S
O132 C135 1.320 . S
O133 Cd130 2.333 . S
O133 C135 1.214 . S
O134 Cd130 2.352 . S
O134 C137 1.258 . S
C135 O132 1.320 . S
C135 O133 1.214 . S
O136 Cd128 2.277 . S
O136 C131 1.209 . S
C137 O134 1.258 . S
C137 O139 1.282 . S
O138 Cd130 2.277 . S
O138 C131 1.226 . S
O139 Cd130 2.356 . S
O139 C137 1.282 . S
C140 O141 1.306 . S
C140 O143 1.160 . S
O141 C140 1.306 . S
O141 Cd142 2.228 . S
Cd142 O141 2.228 . S
Cd142 O146 2.273 . S
Cd142 O150 2.277 . S
O143 C140 1.160 . S
O143 Cd144 2.203 . S
Cd144 O143 2.203 . S
Cd144 O146 2.411 . S
Cd144 O147 2.333 . S
Cd144 O148 2.352 . S
Cd144 O152 2.277 . S
Cd144 O153 2.356 . S
C145 O150 1.209 . S
C145 O152 1.226 . S
O146 Cd142 2.273 . S
O146 Cd144 2.411 . S
O146 C149 1.320 . S
O147 Cd144 2.333 . S
O147 C149 1.214 . S
O148 Cd144 2.352 . S
O148 C151 1.258 . S
C149 O146 1.320 . S
C149 O147 1.214 . S
O150 Cd142 2.277 . S
O150 C145 1.209 . S
C151 O148 1.258 . S
C151 O153 1.282 . S
O152 Cd144 2.277 . S
O152 C145 1.226 . S
O153 Cd144 2.356 . S
O153 C151 1.282 . S
C154 O155 1.306 . S
C154 O157 1.160 . S
O155 C154 1.306 . S
O155 Cd156 2.228 . S
Cd156 O155 2.228 . S
Cd156 O160 2.273 . S
Cd156 O164 2.277 . S
O157 C154 1.160 . S
O157 Cd158 2.203 . S
Cd158 O157 2.203 . S
Cd158 O160 2.411 . S
Cd158 O161 2.333 . S
Cd158 O162 2.352 . S
Cd158 O166 2.277 . S
Cd158 O167 2.356 . S
C159 O164 1.209 . S
C159 O166 1.226 . S
O160 Cd156 2.273 . S
O160 Cd158 2.411 . S
O160 C163 1.320 . S
O161 Cd158 2.333 . S
O161 C163 1.214 . S
O162 Cd158 2.352 . S
O162 C165 1.258 . S
C163 O160 1.320 . S
C163 O161 1.214 . S
O164 Cd156 2.277 . S
O164 C159 1.209 . S
C165 O162 1.258 . S
C165 O167 1.282 . S
O166 Cd158 2.277 . S
O166 C159 1.226 . S
O167 Cd158 2.356 . S
O167 C165 1.282 . S
C168 O169 1.306 . S
C168 O171 1.160 . S
O169 C168 1.306 . S
O169 Cd170 2.228 . S
Cd170 O169 2.228 . S
Cd170 O174 2.273 . S
Cd170 O178 2.277 . S
O171 C168 1.160 . S
O171 Cd172 2.203 . S
Cd172 O171 2.203 . S
Cd172 O174 2.411 . S
Cd172 O175 2.333 . S
Cd172 O176 2.352 . S
Cd172 O180 2.277 . S
Cd172 O181 2.356 . S
C173 O178 1.209 . S
C173 O180 1.226 . S
O174 Cd170 2.273 . S
O174 Cd172 2.411 . S
O174 C177 1.320 . S
O175 Cd172 2.333 . S
O175 C177 1.214 . S
O176 Cd172 2.352 . S
O176 C179 1.258 . S
C177 O174 1.320 . S
C177 O175 1.214 . S
O178 Cd170 2.277 . S
O178 C173 1.209 . S
C179 O176 1.258 . S
C179 O181 1.282 . S
O180 Cd172 2.277 . S
O180 C173 1.226 . S
O181 Cd172 2.356 . S
O181 C179 1.282 . S
C182 O183 1.306 . S
C182 O185 1.160 . S
O183 C182 1.306 . S
O183 Cd184 2.228 . S
Cd184 O183 2.228 . S
Cd184 O188 2.273 . S
Cd184 O192 2.277 . S
O185 C182 1.160 . S
O185 Cd186 2.203 . S
Cd186 O185 2.203 . S
Cd186 O188 2.411 . S
Cd186 O189 2.333 . S
Cd186 O190 2.352 . S
Cd186 O194 2.277 . S
Cd186 O195 2.356 . S
C187 O192 1.209 . S
C187 O194 1.226 . S
O188 Cd184 2.273 . S
O188 Cd186 2.411 . S
O188 C191 1.320 . S
O189 Cd186 2.333 . S
O189 C191 1.214 . S
O190 Cd186 2.352 . S
O190 C193 1.258 . S
C191 O188 1.320 . S
C191 O189 1.214 . S
O192 Cd184 2.277 . S
O192 C187 1.209 . S
C193 O190 1.258 . S
C193 O195 1.282 . S
O194 Cd186 2.277 . S
O194 C187 1.226 . S
O195 Cd186 2.356 . S
O195 C193 1.282 . S
C196 O197 1.306 . S
C196 O199 1.160 . S
O197 C196 1.306 . S
O197 Cd198 2.228 . S
Cd198 O197 2.228 . S
Cd198 O202 2.273 . S
Cd198 O206 2.277 . S
O199 C196 1.160 . S
O199 Cd200 2.203 . S
Cd200 O199 2.203 . S
Cd200 O202 2.411 . S
Cd200 O203 2.333 . S
Cd200 O204 2.352 . S
Cd200 O208 2.277 . S
Cd200 O209 2.356 . S
C201 O206 1.209 . S
C201 O208 1.226 . S
O202 Cd198 2.273 . S
O202 Cd200 2.411 . S
O202 C205 1.320 . S
O203 Cd200 2.333 . S
O203 C205 1.214 . S
O204 Cd200 2.352 . S
O204 C207 1.258 . S
C205 O202 1.320 . S
C205 O203 1.214 . S
O206 Cd198 2.277 . S
O206 C201 1.209 . S
C207 O204 1.258 . S
C207 O209 1.282 . S
O208 Cd200 2.277 . S
O208 C201 1.226 . S
O209 Cd200 2.356 . S
O209 C207 1.282 . S
C210 O211 1.306 . S
C210 O213 1.160 . S
O211 C210 1.306 . S
O211 Cd212 2.228 . S
Cd212 O211 2.228 . S
Cd212 O216 2.273 . S
Cd212 O220 2.277 . S
O213 C210 1.160 . S
O213 Cd214 2.203 . S
Cd214 O213 2.203 . S
Cd214 O216 2.411 . S
Cd214 O217 2.333 . S
Cd214 O218 2.352 . S
Cd214 O222 2.277 . S
Cd214 O223 2.356 . S
C215 O220 1.209 . S
C215 O222 1.226 . S
O216 Cd212 2.273 . S
O216 Cd214 2.411 . S
O216 C219 1.320 . S
O217 Cd214 2.333 . S
O217 C219 1.214 . S
O218 Cd214 2.352 . S
O218 C221 1.258 . S
C219 O216 1.320 . S
C219 O217 1.214 . S
O220 Cd212 2.277 . S
O220 C215 1.209 . S
C221 O218 1.258 . S
C221 O223 1.282 . S
O222 Cd214 2.277 . S
O222 C215 1.226 . S
O223 Cd214 2.356 . S
O223 C221 1.282 . S
C224 C225 1.349 . S
C224 C226 1.327 . S
C224 H249 0.950 . S
C225 C224 1.349 . S
C225 C241 1.349 . S
C226 C224 1.327 . S
C226 C245 1.429 . S
C226 H250 0.950 . S
C227 C244 1.574 . S
C227 C246 1.368 . S
C227 H251 0.949 . S
H228 C232 0.949 . S
C229 C230 1.349 . S
C229 C231 1.327 . S
C229 H252 0.950 . S
C230 C229 1.349 . S
C230 C242 1.349 . S
C231 C229 1.327 . S
C231 C247 1.429 . S
C231 H253 0.950 . S
C232 H228 0.949 . S
C232 C240 1.574 . S
C232 C248 1.368 . S
H233 C241 0.950 . S
H234 C239 0.950 . S
H235 C240 0.949 . S
H236 C242 0.950 . S
H237 C243 0.950 . S
H238 C244 0.949 . S
C239 H234 0.950 . S
C239 C241 1.327 . S
C239 C245 1.429 . S
C240 C232 1.574 . S
C240 H235 0.949 . S
C240 C246 1.368 . S
C241 C225 1.349 . S
C241 H233 0.950 . S
C241 C239 1.327 . S
C242 C230 1.349 . S
C242 H236 0.950 . S
C242 C243 1.327 . S
C243 H237 0.950 . S
C243 C242 1.327 . S
C243 C247 1.429 . S
C244 C227 1.574 . S
C244 H238 0.949 . S
C244 C248 1.368 . S
C245 C226 1.429 . S
C245 C239 1.429 . S
C245 C246 1.523 . S
C246 C227 1.368 . S
C246 C240 1.368 . S
C246 C245 1.523 . S
C247 C231 1.429 . S
C247 C243 1.429 . S
C247 C248 1.523 . S
C248 C232 1.368 . S
C248 C244 1.368 . S
C248 C247 1.523 . S
H249 C224 0.950 . S
H250 C226 0.950 . S
H251 C227 0.949 . S
H252 C229 0.950 . S
H253 C231 0.950 . S
C254 C255 1.349 . S
C254 C256 1.327 . S
C254 H279 0.950 . S
C255 C254 1.349 . S
C255 C271 1.349 . S
C256 C254 1.327 . S
C256 C275 1.429 . S
C256 H280 0.950 . S
C257 C274 1.574 . S
C257 C276 1.368 . S
C257 H281 0.949 . S
H258 C262 0.949 . S
C259 C260 1.349 . S
C259 C261 1.327 . S
C259 H282 0.950 . S
C260 C259 1.349 . S
C260 C272 1.349 . S
C261 C259 1.327 . S
C261 C277 1.429 . S
C261 H283 0.950 . S
C262 H258 0.949 . S
C262 C270 1.574 . S
C262 C278 1.368 . S
H263 C271 0.950 . S
H264 C269 0.950 . S
H265 C270 0.949 . S
H266 C272 0.950 . S
H267 C273 0.950 . S
H268 C274 0.949 . S
C269 H264 0.950 . S
C269 C271 1.327 . S
C269 C275 1.429 . S
C270 C262 1.574 . S
C270 H265 0.949 . S
C270 C276 1.368 . S
C271 C255 1.349 . S
C271 H263 0.950 . S
C271 C269 1.327 . S
C272 C260 1.349 . S
C272 H266 0.950 . S
C272 C273 1.327 . S
C273 H267 0.950 . S
C273 C272 1.327 . S
C273 C277 1.429 . S
C274 C257 1.574 . S
C274 H268 0.949 . S
C274 C278 1.368 . S
C275 C256 1.429 . S
C275 C269 1.429 . S
C275 C276 1.523 . S
C276 C257 1.368 . S
C276 C270 1.368 . S
C276 C275 1.523 . S
C277 C261 1.429 . S
C277 C273 1.429 . S
C277 C278 1.523 . S
C278 C262 1.368 . S
C278 C274 1.368 . S
C278 C277 1.523 . S
H279 C254 0.950 . S
H280 C256 0.950 . S
H281 C257 0.949 . S
H282 C259 0.950 . S
H283 C261 0.950 . S
C284 C285 1.349 . S
C284 C286 1.327 . S
C284 H309 0.950 . S
C285 C284 1.349 . S
C285 C301 1.349 . S
C286 C284 1.327 . S
C286 C305 1.429 . S
C286 H310 0.950 . S
C287 C304 1.574 . S
C287 C306 1.368 . S
C287 H311 0.949 . S
H288 C292 0.949 . S
C289 C290 1.349 . S
C289 C291 1.327 . S
C289 H312 0.950 . S
C290 C289 1.349 . S
C290 C302 1.349 . S
C291 C289 1.327 . S
C291 C307 1.429 . S
C291 H313 0.950 . S
C292 H288 0.949 . S
C292 C300 1.574 . S
C292 C308 1.368 . S
H293 C301 0.950 . S
H294 C299 0.950 . S
H295 C300 0.949 . S
H296 C302 0.950 . S
H297 C303 0.950 . S
H298 C304 0.949 . S
C299 H294 0.950 . S
C299 C301 1.327 . S
C299 C305 1.429 . S
C300 C292 1.574 . S
C300 H295 0.949 . S
C300 C306 1.368 . S
C301 C285 1.349 . S
C301 H293 0.950 . S
C301 C299 1.327 . S
C302 C290 1.349 . S
C302 H296 0.950 . S
C302 C303 1.327 . S
C303 H297 0.950 . S
C303 C302 1.327 . S
C303 C307 1.429 . S
C304 C287 1.574 . S
C304 H298 0.949 . S
C304 C308 1.368 . S
C305 C286 1.429 . S
C305 C299 1.429 . S
C305 C306 1.523 . S
C306 C287 1.368 . S
C306 C300 1.368 . S
C306 C305 1.523 . S
C307 C291 1.429 . S
C307 C303 1.429 . S
C307 C308 1.523 . S
C308 C292 1.368 . S
C308 C304 1.368 . S
C308 C307 1.523 . S
H309 C284 0.950 . S
H310 C286 0.950 . S
H311 C287 0.949 . S
H312 C289 0.950 . S
H313 C291 0.950 . S
C314 C315 1.349 . S
C314 C316 1.327 . S
C314 H339 0.950 . S
C315 C314 1.349 . S
C315 C331 1.349 . S
C316 C314 1.327 . S
C316 C335 1.429 . S
C316 H340 0.950 . S
C317 C334 1.574 . S
C317 C336 1.368 . S
C317 H341 0.949 . S
H318 C322 0.949 . S
C319 C320 1.349 . S
C319 C321 1.327 . S
C319 H342 0.950 . S
C320 C319 1.349 . S
C320 C332 1.349 . S
C321 C319 1.327 . S
C321 C337 1.429 . S
C321 H343 0.950 . S
C322 H318 0.949 . S
C322 C330 1.574 . S
C322 C338 1.368 . S
H323 C331 0.950 . S
H324 C329 0.950 . S
H325 C330 0.949 . S
H326 C332 0.950 . S
H327 C333 0.950 . S
H328 C334 0.949 . S
C329 H324 0.950 . S
C329 C331 1.327 . S
C329 C335 1.429 . S
C330 C322 1.574 . S
C330 H325 0.949 . S
C330 C336 1.368 . S
C331 C315 1.349 . S
C331 H323 0.950 . S
C331 C329 1.327 . S
C332 C320 1.349 . S
C332 H326 0.950 . S
C332 C333 1.327 . S
C333 H327 0.950 . S
C333 C332 1.327 . S
C333 C337 1.429 . S
C334 C317 1.574 . S
C334 H328 0.949 . S
C334 C338 1.368 . S
C335 C316 1.429 . S
C335 C329 1.429 . S
C335 C336 1.523 . S
C336 C317 1.368 . S
C336 C330 1.368 . S
C336 C335 1.523 . S
C337 C321 1.429 . S
C337 C333 1.429 . S
C337 C338 1.523 . S
C338 C322 1.368 . S
C338 C334 1.368 . S
C338 C337 1.523 . S
H339 C314 0.950 . S
H340 C316 0.950 . S
H341 C317 0.949 . S
H342 C319 0.950 . S
H343 C321 0.950 . S
C344 C345 1.349 . S
C344 C346 1.327 . S
C344 H369 0.950 . S
C345 C344 1.349 . S
C345 C361 1.349 . S
C346 C344 1.327 . S
C346 C365 1.429 . S
C346 H370 0.950 . S
C347 C364 1.574 . S
C347 C366 1.368 . S
C347 H371 0.949 . S
H348 C352 0.949 . S
C349 C350 1.349 . S
C349 C351 1.327 . S
C349 H372 0.950 . S
C350 C349 1.349 . S
C350 C362 1.349 . S
C351 C349 1.327 . S
C351 C367 1.429 . S
C351 H373 0.950 . S
C352 H348 0.949 . S
C352 C360 1.574 . S
C352 C368 1.368 . S
H353 C361 0.950 . S
H354 C359 0.950 . S
H355 C360 0.949 . S
H356 C362 0.950 . S
H357 C363 0.950 . S
H358 C364 0.949 . S
C359 H354 0.950 . S
C359 C361 1.327 . S
C359 C365 1.429 . S
C360 C352 1.574 . S
C360 H355 0.949 . S
C360 C366 1.368 . S
C361 C345 1.349 . S
C361 H353 0.950 . S
C361 C359 1.327 . S
C362 C350 1.349 . S
C362 H356 0.950 . S
C362 C363 1.327 . S
C363 H357 0.950 . S
C363 C362 1.327 . S
C363 C367 1.429 . S
C364 C347 1.574 . S
C364 H358 0.949 . S
C364 C368 1.368 . S
C365 C346 1.429 . S
C365 C359 1.429 . S
C365 C366 1.523 . S
C366 C347 1.368 . S
C366 C360 1.368 . S
C366 C365 1.523 . S
C367 C351 1.429 . S
C367 C363 1.429 . S
C367 C368 1.523 . S
C368 C352 1.368 . S
C368 C364 1.368 . S
C368 C367 1.523 . S
H369 C344 0.950 . S
H370 C346 0.950 . S
H371 C347 0.949 . S
H372 C349 0.950 . S
H373 C351 0.950 . S
C374 C375 1.349 . S
C374 C376 1.327 . S
C374 H399 0.950 . S
C375 C374 1.349 . S
C375 C391 1.349 . S
C376 C374 1.327 . S
C376 C395 1.429 . S
C376 H400 0.950 . S
C377 C394 1.574 . S
C377 C396 1.368 . S
C377 H401 0.949 . S
H378 C382 0.949 . S
C379 C380 1.349 . S
C379 C381 1.327 . S
C379 H402 0.950 . S
C380 C379 1.349 . S
C380 C392 1.349 . S
C381 C379 1.327 . S
C381 C397 1.429 . S
C381 H403 0.950 . S
C382 H378 0.949 . S
C382 C390 1.574 . S
C382 C398 1.368 . S
H383 C391 0.950 . S
H384 C389 0.950 . S
H385 C390 0.949 . S
H386 C392 0.950 . S
H387 C393 0.950 . S
H388 C394 0.949 . S
C389 H384 0.950 . S
C389 C391 1.327 . S
C389 C395 1.429 . S
C390 C382 1.574 . S
C390 H385 0.949 . S
C390 C396 1.368 . S
C391 C375 1.349 . S
C391 H383 0.950 . S
C391 C389 1.327 . S
C392 C380 1.349 . S
C392 H386 0.950 . S
C392 C393 1.327 . S
C393 H387 0.950 . S
C393 C392 1.327 . S
C393 C397 1.429 . S
C394 C377 1.574 . S
C394 H388 0.949 . S
C394 C398 1.368 . S
C395 C376 1.429 . S
C395 C389 1.429 . S
C395 C396 1.523 . S
C396 C377 1.368 . S
C396 C390 1.368 . S
C396 C395 1.523 . S
C397 C381 1.429 . S
C397 C393 1.429 . S
C397 C398 1.523 . S
C398 C382 1.368 . S
C398 C394 1.368 . S
C398 C397 1.523 . S
H399 C374 0.950 . S
H400 C376 0.950 . S
H401 C377 0.949 . S
H402 C379 0.950 . S
H403 C381 0.950 . S
C404 C405 1.349 . S
C404 C406 1.327 . S
C404 H429 0.950 . S
C405 C404 1.349 . S
C405 C421 1.349 . S
C406 C404 1.327 . S
C406 C425 1.429 . S
C406 H430 0.950 . S
C407 C424 1.574 . S
C407 C426 1.368 . S
C407 H431 0.949 . S
H408 C412 0.949 . S
C409 C410 1.349 . S
C409 C411 1.327 . S
C409 H432 0.950 . S
C410 C409 1.349 . S
C410 C422 1.349 . S
C411 C409 1.327 . S
C411 C427 1.429 . S
C411 H433 0.950 . S
C412 H408 0.949 . S
C412 C420 1.574 . S
C412 C428 1.368 . S
H413 C421 0.950 . S
H414 C419 0.950 . S
H415 C420 0.949 . S
H416 C422 0.950 . S
H417 C423 0.950 . S
H418 C424 0.949 . S
C419 H414 0.950 . S
C419 C421 1.327 . S
C419 C425 1.429 . S
C420 C412 1.574 . S
C420 H415 0.949 . S
C420 C426 1.368 . S
C421 C405 1.349 . S
C421 H413 0.950 . S
C421 C419 1.327 . S
C422 C410 1.349 . S
C422 H416 0.950 . S
C422 C423 1.327 . S
C423 H417 0.950 . S
C423 C422 1.327 . S
C423 C427 1.429 . S
C424 C407 1.574 . S
C424 H418 0.949 . S
C424 C428 1.368 . S
C425 C406 1.429 . S
C425 C419 1.429 . S
C425 C426 1.523 . S
C426 C407 1.368 . S
C426 C420 1.368 . S
C426 C425 1.523 . S
C427 C411 1.429 . S
C427 C423 1.429 . S
C427 C428 1.523 . S
C428 C412 1.368 . S
C428 C424 1.368 . S
C428 C427 1.523 . S
H429 C404 0.950 . S
H430 C406 0.950 . S
H431 C407 0.949 . S
H432 C409 0.950 . S
H433 C411 0.950 . S
C434 C435 1.349 . S
C434 C436 1.327 . S
C434 H459 0.950 . S
C435 C434 1.349 . S
C435 C451 1.349 . S
C436 C434 1.327 . S
C436 C455 1.429 . S
C436 H460 0.950 . S
C437 C454 1.574 . S
C437 C456 1.368 . S
C437 H461 0.949 . S
H438 C442 0.949 . S
C439 C440 1.349 . S
C439 C441 1.327 . S
C439 H462 0.950 . S
C440 C439 1.349 . S
C440 C452 1.349 . S
C441 C439 1.327 . S
C441 C457 1.429 . S
C441 H463 0.950 . S
C442 H438 0.949 . S
C442 C450 1.574 . S
C442 C458 1.368 . S
H443 C451 0.950 . S
H444 C449 0.950 . S
H445 C450 0.949 . S
H446 C452 0.950 . S
H447 C453 0.950 . S
H448 C454 0.949 . S
C449 H444 0.950 . S
C449 C451 1.327 . S
C449 C455 1.429 . S
C450 C442 1.574 . S
C450 H445 0.949 . S
C450 C456 1.368 . S
C451 C435 1.349 . S
C451 H443 0.950 . S
C451 C449 1.327 . S
C452 C440 1.349 . S
C452 H446 0.950 . S
C452 C453 1.327 . S
C453 H447 0.950 . S
C453 C452 1.327 . S
C453 C457 1.429 . S
C454 C437 1.574 . S
C454 H448 0.949 . S
C454 C458 1.368 . S
C455 C436 1.429 . S
C455 C449 1.429 . S
C455 C456 1.523 . S
C456 C437 1.368 . S
C456 C450 1.368 . S
C456 C455 1.523 . S
C457 C441 1.429 . S
C457 C453 1.429 . S
C457 C458 1.523 . S
C458 C442 1.368 . S
C458 C454 1.368 . S
C458 C457 1.523 . S
H459 C434 0.950 . S
H460 C436 0.950 . S
H461 C437 0.949 . S
H462 C439 0.950 . S
H463 C441 0.950 . S
C464 C465 1.349 . S
C464 C466 1.327 . S
C464 H489 0.950 . S
C465 C464 1.349 . S
C465 C481 1.349 . S
C466 C464 1.327 . S
C466 C485 1.429 . S
C466 H490 0.950 . S
C467 C484 1.574 1_565 S
C467 C486 1.368 . S
C467 H491 0.949 . S
H468 C472 0.949 . S
C469 C470 1.349 . S
C469 C471 1.327 . S
C469 H492 0.950 . S
C470 C469 1.349 . S
C470 C482 1.349 . S
C471 C469 1.327 . S
C471 C487 1.429 . S
C471 H493 0.950 . S
C472 H468 0.949 . S
C472 C480 1.574 1_545 S
C472 C488 1.368 . S
H473 C481 0.950 . S
H474 C479 0.950 . S
H475 C480 0.949 . S
H476 C482 0.950 . S
H477 C483 0.950 . S
H478 C484 0.949 . S
C479 H474 0.950 . S
C479 C481 1.327 . S
C479 C485 1.429 . S
C480 C472 1.574 1_565 S
C480 H475 0.949 . S
C480 C486 1.368 . S
C481 C465 1.349 . S
C481 H473 0.950 . S
C481 C479 1.327 . S
C482 C470 1.349 . S
C482 H476 0.950 . S
C482 C483 1.327 . S
C483 H477 0.950 . S
C483 C482 1.327 . S
C483 C487 1.429 . S
C484 C467 1.574 1_545 S
C484 H478 0.949 . S
C484 C488 1.368 . S
C485 C466 1.429 . S
C485 C479 1.429 . S
C485 C486 1.523 . S
C486 C467 1.368 . S
C486 C480 1.368 . S
C486 C485 1.523 . S
C487 C471 1.429 . S
C487 C483 1.429 . S
C487 C488 1.523 . S
C488 C472 1.368 . S
C488 C484 1.368 . S
C488 C487 1.523 . S
H489 C464 0.950 . S
H490 C466 0.950 . S
H491 C467 0.949 . S
H492 C469 0.950 . S
H493 C471 0.950 . S
C494 C495 1.349 . S
C494 C496 1.327 . S
C494 H519 0.950 . S
C495 C494 1.349 . S
C495 C511 1.349 . S
C496 C494 1.327 . S
C496 C515 1.429 . S
C496 H520 0.950 . S
C497 C514 1.574 . S
C497 C516 1.368 . S
C497 H521 0.949 . S
H498 C502 0.949 . S
C499 C500 1.349 . S
C499 C501 1.327 . S
C499 H522 0.950 . S
C500 C499 1.349 . S
C500 C512 1.349 . S
C501 C499 1.327 . S
C501 C517 1.429 . S
C501 H523 0.950 . S
C502 H498 0.949 . S
C502 C510 1.574 . S
C502 C518 1.368 . S
H503 C511 0.950 . S
H504 C509 0.950 . S
H505 C510 0.949 . S
H506 C512 0.950 . S
H507 C513 0.950 . S
H508 C514 0.949 . S
C509 H504 0.950 . S
C509 C511 1.327 . S
C509 C515 1.429 . S
C510 C502 1.574 . S
C510 H505 0.949 . S
C510 C516 1.368 . S
C511 C495 1.349 . S
C511 H503 0.950 . S
C511 C509 1.327 . S
C512 C500 1.349 . S
C512 H506 0.950 . S
C512 C513 1.327 . S
C513 H507 0.950 . S
C513 C512 1.327 . S
C513 C517 1.429 . S
C514 C497 1.574 . S
C514 H508 0.949 . S
C514 C518 1.368 . S
C515 C496 1.429 . S
C515 C509 1.429 . S
C515 C516 1.523 . S
C516 C497 1.368 . S
C516 C510 1.368 . S
C516 C515 1.523 . S
C517 C501 1.429 . S
C517 C513 1.429 . S
C517 C518 1.523 . S
C518 C502 1.368 . S
C518 C514 1.368 . S
C518 C517 1.523 . S
H519 C494 0.950 . S
H520 C496 0.950 . S
H521 C497 0.949 . S
H522 C499 0.950 . S
H523 C501 0.950 . S
C524 C525 1.349 . S
C524 C526 1.327 . S
C524 H549 0.950 . S
C525 C524 1.349 . S
C525 C541 1.349 . S
C526 C524 1.327 . S
C526 C545 1.429 . S
C526 H550 0.950 . S
C527 C544 1.574 1_556 S
C527 C546 1.368 . S
C527 H551 0.949 . S
H528 C532 0.949 . S
C529 C530 1.349 . S
C529 C531 1.327 . S
C529 H552 0.950 . S
C530 C529 1.349 . S
C530 C542 1.349 . S
C531 C529 1.327 . S
C531 C547 1.429 . S
C531 H553 0.950 . S
C532 H528 0.949 . S
C532 C540 1.574 1_554 S
C532 C548 1.368 . S
H533 C541 0.950 . S
H534 C539 0.950 . S
H535 C540 0.949 . S
H536 C542 0.950 . S
H537 C543 0.950 . S
H538 C544 0.949 . S
C539 H534 0.950 . S
C539 C541 1.327 . S
C539 C545 1.429 . S
C540 C532 1.574 1_556 S
C540 H535 0.949 . S
C540 C546 1.368 . S
C541 C525 1.349 . S
C541 H533 0.950 . S
C541 C539 1.327 . S
C542 C530 1.349 . S
C542 H536 0.950 . S
C542 C543 1.327 . S
C543 H537 0.950 . S
C543 C542 1.327 . S
C543 C547 1.429 . S
C544 C527 1.574 1_554 S
C544 H538 0.949 . S
C544 C548 1.368 . S
C545 C526 1.429 . S
C545 C539 1.429 . S
C545 C546 1.523 . S
C546 C527 1.368 . S
C546 C540 1.368 . S
C546 C545 1.523 . S
C547 C531 1.429 . S
C547 C543 1.429 . S
C547 C548 1.523 . S
C548 C532 1.368 . S
C548 C544 1.368 . S
C548 C547 1.523 . S
H549 C524 0.950 . S
H550 C526 0.950 . S
H551 C527 0.949 . S
H552 C529 0.950 . S
H553 C531 0.950 . S
C554 C555 1.349 . S
C554 C556 1.327 . S
C554 H579 0.950 . S
C555 C554 1.349 . S
C555 C571 1.349 . S
C556 C554 1.327 . S
C556 C575 1.429 . S
C556 H580 0.950 . S
C557 C574 1.574 1_554 S
C557 C576 1.368 . S
C557 H581 0.949 . S
H558 C562 0.949 . S
C559 C560 1.349 . S
C559 C561 1.327 . S
C559 H582 0.950 . S
C560 C559 1.349 . S
C560 C572 1.349 . S
C561 C559 1.327 . S
C561 C577 1.429 . S
C561 H583 0.950 . S
C562 H558 0.949 . S
C562 C570 1.574 1_556 S
C562 C578 1.368 . S
H563 C571 0.950 . S
H564 C569 0.950 . S
H565 C570 0.949 . S
H566 C572 0.950 . S
H567 C573 0.950 . S
H568 C574 0.949 . S
C569 H564 0.950 . S
C569 C571 1.327 . S
C569 C575 1.429 . S
C570 C562 1.574 1_554 S
C570 H565 0.949 . S
C570 C576 1.368 . S
C571 C555 1.349 . S
C571 H563 0.950 . S
C571 C569 1.327 . S
C572 C560 1.349 . S
C572 H566 0.950 . S
C572 C573 1.327 . S
C573 H567 0.950 . S
C573 C572 1.327 . S
C573 C577 1.429 . S
C574 C557 1.574 1_556 S
C574 H568 0.949 . S
C574 C578 1.368 . S
C575 C556 1.429 . S
C575 C569 1.429 . S
C575 C576 1.523 . S
C576 C557 1.368 . S
C576 C570 1.368 . S
C576 C575 1.523 . S
C577 C561 1.429 . S
C577 C573 1.429 . S
C577 C578 1.523 . S
C578 C562 1.368 . S
C578 C574 1.368 . S
C578 C577 1.523 . S
H579 C554 0.950 . S
H580 C556 0.950 . S
H581 C557 0.949 . S
H582 C559 0.950 . S
H583 C561 0.950 . S
C584 C585 1.349 . S
C584 C586 1.327 . S
C584 H609 0.950 . S
C585 C584 1.349 . S
C585 C601 1.349 . S
C586 C584 1.327 . S
C586 C605 1.429 . S
C586 H610 0.950 . S
C587 C604 1.574 . S
C587 C606 1.368 . S
C587 H611 0.949 . S
H588 C592 0.949 . S
C589 C590 1.349 . S
C589 C591 1.327 . S
C589 H612 0.950 . S
C590 C589 1.349 . S
C590 C602 1.349 . S
C591 C589 1.327 . S
C591 C607 1.429 . S
C591 H613 0.950 . S
C592 H588 0.949 . S
C592 C600 1.574 . S
C592 C608 1.368 . S
H593 C601 0.950 . S
H594 C599 0.950 . S
H595 C600 0.949 . S
H596 C602 0.950 . S
H597 C603 0.950 . S
H598 C604 0.949 . S
C599 H594 0.950 . S
C599 C601 1.327 . S
C599 C605 1.429 . S
C600 C592 1.574 . S
C600 H595 0.949 . S
C600 C606 1.368 . S
C601 C585 1.349 . S
C601 H593 0.950 . S
C601 C599 1.327 . S
C602 C590 1.349 . S
C602 H596 0.950 . S
C602 C603 1.327 . S
C603 H597 0.950 . S
C603 C602 1.327 . S
C603 C607 1.429 . S
C604 C587 1.574 . S
C604 H598 0.949 . S
C604 C608 1.368 . S
C605 C586 1.429 . S
C605 C599 1.429 . S
C605 C606 1.523 . S
C606 C587 1.368 . S
C606 C600 1.368 . S
C606 C605 1.523 . S
C607 C591 1.429 . S
C607 C603 1.429 . S
C607 C608 1.523 . S
C608 C592 1.368 . S
C608 C604 1.368 . S
C608 C607 1.523 . S
H609 C584 0.950 . S
H610 C586 0.950 . S
H611 C587 0.949 . S
H612 C589 0.950 . S
H613 C591 0.950 . S
C614 C615 1.349 . S
C614 C616 1.327 . S
C614 H639 0.950 . S
C615 C614 1.349 . S
C615 C631 1.349 . S
C616 C614 1.327 . S
C616 C635 1.429 . S
C616 H640 0.950 . S
C617 C634 1.574 . S
C617 C636 1.368 . S
C617 H641 0.949 . S
H618 C622 0.949 . S
C619 C620 1.349 . S
C619 C621 1.327 . S
C619 H642 0.950 . S
C620 C619 1.349 . S
C620 C632 1.349 . S
C621 C619 1.327 . S
C621 C637 1.429 . S
C621 H643 0.950 . S
C622 H618 0.949 . S
C622 C630 1.574 . S
C622 C638 1.368 . S
H623 C631 0.950 . S
H624 C629 0.950 . S
H625 C630 0.949 . S
H626 C632 0.950 . S
H627 C633 0.950 . S
H628 C634 0.949 . S
C629 H624 0.950 . S
C629 C631 1.327 . S
C629 C635 1.429 . S
C630 C622 1.574 . S
C630 H625 0.949 . S
C630 C636 1.368 . S
C631 C615 1.349 . S
C631 H623 0.950 . S
C631 C629 1.327 . S
C632 C620 1.349 . S
C632 H626 0.950 . S
C632 C633 1.327 . S
C633 H627 0.950 . S
C633 C632 1.327 . S
C633 C637 1.429 . S
C634 C617 1.574 . S
C634 H628 0.949 . S
C634 C638 1.368 . S
C635 C616 1.429 . S
C635 C629 1.429 . S
C635 C636 1.523 . S
C636 C617 1.368 . S
C636 C630 1.368 . S
C636 C635 1.523 . S
C637 C621 1.429 . S
C637 C633 1.429 . S
C637 C638 1.523 . S
C638 C622 1.368 . S
C638 C634 1.368 . S
C638 C637 1.523 . S
H639 C614 0.950 . S
H640 C616 0.950 . S
H641 C617 0.949 . S
H642 C619 0.950 . S
H643 C621 0.950 . S
C644 C645 1.349 . S
C644 C646 1.327 . S
C644 H669 0.950 . S
C645 C644 1.349 . S
C645 C661 1.349 . S
C646 C644 1.327 . S
C646 C665 1.429 . S
C646 H670 0.950 . S
C647 C664 1.574 1_655 S
C647 C666 1.368 . S
C647 H671 0.949 . S
H648 C652 0.949 . S
C649 C650 1.349 . S
C649 C651 1.327 . S
C649 H672 0.950 . S
C650 C649 1.349 . S
C650 C662 1.349 . S
C651 C649 1.327 . S
C651 C667 1.429 . S
C651 H673 0.950 . S
C652 H648 0.949 . S
C652 C660 1.574 1_455 S
C652 C668 1.368 . S
H653 C661 0.950 . S
H654 C659 0.950 . S
H655 C660 0.949 . S
H656 C662 0.950 . S
H657 C663 0.950 . S
H658 C664 0.949 . S
C659 H654 0.950 . S
C659 C661 1.327 . S
C659 C665 1.429 . S
C660 C652 1.574 1_655 S
C660 H655 0.949 . S
C660 C666 1.368 . S
C661 C645 1.349 . S
C661 H653 0.950 . S
C661 C659 1.327 . S
C662 C650 1.349 . S
C662 H656 0.950 . S
C662 C663 1.327 . S
C663 H657 0.950 . S
C663 C662 1.327 . S
C663 C667 1.429 . S
C664 C647 1.574 1_455 S
C664 H658 0.949 . S
C664 C668 1.368 . S
C665 C646 1.429 . S
C665 C659 1.429 . S
C665 C666 1.523 . S
C666 C647 1.368 . S
C666 C660 1.368 . S
C666 C665 1.523 . S
C667 C651 1.429 . S
C667 C663 1.429 . S
C667 C668 1.523 . S
C668 C652 1.368 . S
C668 C664 1.368 . S
C668 C667 1.523 . S
H669 C644 0.950 . S
H670 C646 0.950 . S
H671 C647 0.949 . S
H672 C649 0.950 . S
H673 C651 0.950 . S
C674 C675 1.349 . S
C674 C676 1.327 . S
C674 H699 0.950 . S
C675 C674 1.349 . S
C675 C691 1.349 . S
C676 C674 1.327 . S
C676 C695 1.429 . S
C676 H700 0.950 . S
C677 C694 1.574 1_655 S
C677 C696 1.368 . S
C677 H701 0.949 . S
H678 C682 0.949 . S
C679 C680 1.349 . S
C679 C681 1.327 . S
C679 H702 0.950 . S
C680 C679 1.349 . S
C680 C692 1.349 . S
C681 C679 1.327 . S
C681 C697 1.429 . S
C681 H703 0.950 . S
C682 H678 0.949 . S
C682 C690 1.574 1_455 S
C682 C698 1.368 . S
H683 C691 0.950 . S
H684 C689 0.950 . S
H685 C690 0.949 . S
H686 C692 0.950 . S
H687 C693 0.950 . S
H688 C694 0.949 . S
C689 H684 0.950 . S
C689 C691 1.327 . S
C689 C695 1.429 . S
C690 C682 1.574 1_655 S
C690 H685 0.949 . S
C690 C696 1.368 . S
C691 C675 1.349 . S
C691 H683 0.950 . S
C691 C689 1.327 . S
C692 C680 1.349 . S
C692 H686 0.950 . S
C692 C693 1.327 . S
C693 H687 0.950 . S
C693 C692 1.327 . S
C693 C697 1.429 . S
C694 C677 1.574 1_455 S
C694 H688 0.949 . S
C694 C698 1.368 . S
C695 C676 1.429 . S
C695 C689 1.429 . S
C695 C696 1.523 . S
C696 C677 1.368 . S
C696 C690 1.368 . S
C696 C695 1.523 . S
C697 C681 1.429 . S
C697 C693 1.429 . S
C697 C698 1.523 . S
C698 C682 1.368 . S
C698 C694 1.368 . S
C698 C697 1.523 . S
H699 C674 0.950 . S
H700 C676 0.950 . S
H701 C677 0.949 . S
H702 C679 0.950 . S
H703 C681 0.950 . S
C704 C705 1.349 . S
C704 C706 1.327 . S
C704 H729 0.950 . S
C705 C704 1.349 . S
C705 C721 1.349 . S
C706 C704 1.327 . S
C706 C725 1.429 . S
C706 H730 0.950 . S
C707 C724 1.574 . S
C707 C726 1.368 . S
C707 H731 0.949 . S
H708 C712 0.949 . S
C709 C710 1.349 . S
C709 C711 1.327 . S
C709 H732 0.950 . S
C710 C709 1.349 . S
C710 C722 1.349 . S
C711 C709 1.327 . S
C711 C727 1.429 . S
C711 H733 0.950 . S
C712 H708 0.949 . S
C712 C720 1.574 . S
C712 C728 1.368 . S
H713 C721 0.950 . S
H714 C719 0.950 . S
H715 C720 0.949 . S
H716 C722 0.950 . S
H717 C723 0.950 . S
H718 C724 0.949 . S
C719 H714 0.950 . S
C719 C721 1.327 . S
C719 C725 1.429 . S
C720 C712 1.574 . S
C720 H715 0.949 . S
C720 C726 1.368 . S
C721 C705 1.349 . S
C721 H713 0.950 . S
C721 C719 1.327 . S
C722 C710 1.349 . S
C722 H716 0.950 . S
C722 C723 1.327 . S
C723 H717 0.950 . S
C723 C722 1.327 . S
C723 C727 1.429 . S
C724 C707 1.574 . S
C724 H718 0.949 . S
C724 C728 1.368 . S
C725 C706 1.429 . S
C725 C719 1.429 . S
C725 C726 1.523 . S
C726 C707 1.368 . S
C726 C720 1.368 . S
C726 C725 1.523 . S
C727 C711 1.429 . S
C727 C723 1.429 . S
C727 C728 1.523 . S
C728 C712 1.368 . S
C728 C724 1.368 . S
C728 C727 1.523 . S
H729 C704 0.950 . S
H730 C706 0.950 . S
H731 C707 0.949 . S
H732 C709 0.950 . S
H733 C711 0.950 . S
C734 C735 1.349 . S
C734 C736 1.327 . S
C734 H759 0.950 . S
C735 C734 1.349 . S
C735 C751 1.349 . S
C736 C734 1.327 . S
C736 C755 1.429 . S
C736 H760 0.950 . S
C737 C754 1.590 . S
C737 C756 1.368 . S
C737 H761 0.949 . S
H738 C742 0.949 . S
C739 C740 1.349 . S
C739 C741 1.327 . S
C739 H762 0.950 . S
C740 C739 1.349 . S
C740 C752 1.349 . S
C741 C739 1.327 . S
C741 C757 1.429 . S
C741 H763 0.950 . S
C742 H738 0.949 . S
C742 C750 1.590 . S
C742 C758 1.368 . S
H743 C751 0.950 . S
H744 C749 0.950 . S
H745 C750 0.949 . S
H746 C752 0.950 . S
H747 C753 0.950 . S
H748 C754 0.949 . S
C749 H744 0.950 . S
C749 C751 1.327 . S
C749 C755 1.429 . S
C750 C742 1.590 . S
C750 H745 0.949 . S
C750 C756 1.353 1_565 S
C751 C735 1.349 . S
C751 H743 0.950 . S
C751 C749 1.327 . S
C752 C740 1.349 . S
C752 H746 0.950 . S
C752 C753 1.327 . S
C753 H747 0.950 . S
C753 C752 1.327 . S
C753 C757 1.429 . S
C754 C737 1.590 . S
C754 H748 0.949 . S
C754 C758 1.353 1_545 S
C755 C736 1.429 . S
C755 C749 1.429 . S
C755 C756 1.523 . S
C756 C737 1.368 . S
C756 C750 1.353 1_545 S
C756 C755 1.523 . S
C757 C741 1.429 . S
C757 C753 1.429 . S
C757 C758 1.523 . S
C758 C742 1.368 . S
C758 C754 1.353 1_565 S
C758 C757 1.523 . S
H759 C734 0.950 . S
H760 C736 0.950 . S
H761 C737 0.949 . S
H762 C739 0.950 . S
H763 C741 0.950 . S
C764 C765 1.349 . S
C764 C766 1.327 . S
C764 H789 0.950 . S
C765 C764 1.349 . S
C765 C781 1.349 . S
C766 C764 1.327 . S
C766 C785 1.429 . S
C766 H790 0.950 . S
C767 C784 1.574 . S
C767 C786 1.368 . S
C767 H791 0.949 . S
H768 C772 0.949 . S
C769 C770 1.349 . S
C769 C771 1.327 . S
C769 H792 0.950 . S
C770 C769 1.349 . S
C770 C782 1.349 . S
C771 C769 1.327 . S
C771 C787 1.429 . S
C771 H793 0.950 . S
C772 H768 0.949 . S
C772 C780 1.574 . S
C772 C788 1.368 . S
H773 C781 0.950 . S
H774 C779 0.950 . S
H775 C780 0.949 . S
H776 C782 0.950 . S
H777 C783 0.950 . S
H778 C784 0.949 . S
C779 H774 0.950 . S
C779 C781 1.327 . S
C779 C785 1.429 . S
C780 C772 1.574 . S
C780 H775 0.949 . S
C780 C786 1.368 . S
C781 C765 1.349 . S
C781 H773 0.950 . S
C781 C779 1.327 . S
C782 C770 1.349 . S
C782 H776 0.950 . S
C782 C783 1.327 . S
C783 H777 0.950 . S
C783 C782 1.327 . S
C783 C787 1.429 . S
C784 C767 1.574 . S
C784 H778 0.949 . S
C784 C788 1.368 . S
C785 C766 1.429 . S
C785 C779 1.429 . S
C785 C786 1.523 . S
C786 C767 1.368 . S
C786 C780 1.368 . S
C786 C785 1.523 . S
C787 C771 1.429 . S
C787 C783 1.429 . S
C787 C788 1.523 . S
C788 C772 1.368 . S
C788 C784 1.368 . S
C788 C787 1.523 . S
H789 C764 0.950 . S
H790 C766 0.950 . S
H791 C767 0.949 . S
H792 C769 0.950 . S
H793 C771 0.950 . S
C794 C795 1.349 . S
C794 C796 1.327 . S
C794 H819 0.950 . S
C795 C794 1.349 . S
C795 C811 1.349 . S
C796 C794 1.327 . S
C796 C815 1.429 . S
C796 H820 0.950 . S
C797 C814 1.574 1_554 S
C797 C816 1.368 . S
C797 H821 0.949 . S
H798 C802 0.949 . S
C799 C800 1.349 . S
C799 C801 1.327 . S
C799 H822 0.950 . S
C800 C799 1.349 . S
C800 C812 1.349 . S
C801 C799 1.327 . S
C801 C817 1.429 . S
C801 H823 0.950 . S
C802 H798 0.949 . S
C802 C810 1.574 1_556 S
C802 C818 1.368 . S
H803 C811 0.950 . S
H804 C809 0.950 . S
H805 C810 0.949 . S
H806 C812 0.950 . S
H807 C813 0.950 . S
H808 C814 0.949 . S
C809 H804 0.950 . S
C809 C811 1.327 . S
C809 C815 1.429 . S
C810 C802 1.574 1_554 S
C810 H805 0.949 . S
C810 C816 1.368 . S
C811 C795 1.349 . S
C811 H803 0.950 . S
C811 C809 1.327 . S
C812 C800 1.349 . S
C812 H806 0.950 . S
C812 C813 1.327 . S
C813 H807 0.950 . S
C813 C812 1.327 . S
C813 C817 1.429 . S
C814 C797 1.574 1_556 S
C814 H808 0.949 . S
C814 C818 1.368 . S
C815 C796 1.429 . S
C815 C809 1.429 . S
C815 C816 1.523 . S
C816 C797 1.368 . S
C816 C810 1.368 . S
C816 C815 1.523 . S
C817 C801 1.429 . S
C817 C813 1.429 . S
C817 C818 1.523 . S
C818 C802 1.368 . S
C818 C814 1.368 . S
C818 C817 1.523 . S
H819 C794 0.950 . S
H820 C796 0.950 . S
H821 C797 0.949 . S
H822 C799 0.950 . S
H823 C801 0.950 . S
C824 C825 1.349 . S
C824 C826 1.327 . S
C824 H849 0.950 . S
C825 C824 1.349 . S
C825 C841 1.349 . S
C826 C824 1.327 . S
C826 C845 1.429 . S
C826 H850 0.950 . S
C827 C844 1.574 1_556 S
C827 C846 1.368 . S
C827 H851 0.949 . S
H828 C832 0.949 . S
C829 C830 1.349 . S
C829 C831 1.327 . S
C829 H852 0.950 . S
C830 C829 1.349 . S
C830 C842 1.349 . S
C831 C829 1.327 . S
C831 C847 1.429 . S
C831 H853 0.950 . S
C832 H828 0.949 . S
C832 C840 1.574 1_554 S
C832 C848 1.368 . S
H833 C841 0.950 . S
H834 C839 0.950 . S
H835 C840 0.949 . S
H836 C842 0.950 . S
H837 C843 0.950 . S
H838 C844 0.949 . S
C839 H834 0.950 . S
C839 C841 1.327 . S
C839 C845 1.429 . S
C840 C832 1.574 1_556 S
C840 H835 0.949 . S
C840 C846 1.368 . S
C841 C825 1.349 . S
C841 H833 0.950 . S
C841 C839 1.327 . S
C842 C830 1.349 . S
C842 H836 0.950 . S
C842 C843 1.327 . S
C843 H837 0.950 . S
C843 C842 1.327 . S
C843 C847 1.429 . S
C844 C827 1.574 1_554 S
C844 H838 0.949 . S
C844 C848 1.368 . S
C845 C826 1.429 . S
C845 C839 1.429 . S
C845 C846 1.523 . S
C846 C827 1.368 . S
C846 C840 1.368 . S
C846 C845 1.523 . S
C847 C831 1.429 . S
C847 C843 1.429 . S
C847 C848 1.523 . S
C848 C832 1.368 . S
C848 C844 1.368 . S
C848 C847 1.523 . S
H849 C824 0.950 . S
H850 C826 0.950 . S
H851 C827 0.949 . S
H852 C829 0.950 . S
H853 C831 0.950 . S
C854 C855 1.349 . S
C854 C856 1.327 . S
C854 H879 0.950 . S
C855 C854 1.349 . S
C855 C871 1.349 . S
C856 C854 1.327 . S
C856 C875 1.429 . S
C856 H880 0.950 . S
C857 C874 1.574 . S
C857 C876 1.368 . S
C857 H881 0.949 . S
H858 C862 0.949 . S
C859 C860 1.349 . S
C859 C861 1.327 . S
C859 H882 0.950 . S
C860 C859 1.349 . S
C860 C872 1.349 . S
C861 C859 1.327 . S
C861 C877 1.429 . S
C861 H883 0.950 . S
C862 H858 0.949 . S
C862 C870 1.574 . S
C862 C878 1.368 . S
H863 C871 0.950 . S
H864 C869 0.950 . S
H865 C870 0.949 . S
H866 C872 0.950 . S
H867 C873 0.950 . S
H868 C874 0.949 . S
C869 H864 0.950 . S
C869 C871 1.327 . S
C869 C875 1.429 . S
C870 C862 1.574 . S
C870 H865 0.949 . S
C870 C876 1.368 . S
C871 C855 1.349 . S
C871 H863 0.950 . S
C871 C869 1.327 . S
C872 C860 1.349 . S
C872 H866 0.950 . S
C872 C873 1.327 . S
C873 H867 0.950 . S
C873 C872 1.327 . S
C873 C877 1.429 . S
C874 C857 1.574 . S
C874 H868 0.949 . S
C874 C878 1.368 . S
C875 C856 1.429 . S
C875 C869 1.429 . S
C875 C876 1.523 . S
C876 C857 1.368 . S
C876 C870 1.368 . S
C876 C875 1.523 . S
C877 C861 1.429 . S
C877 C873 1.429 . S
C877 C878 1.523 . S
C878 C862 1.368 . S
C878 C874 1.368 . S
C878 C877 1.523 . S
H879 C854 0.950 . S
H880 C856 0.950 . S
H881 C857 0.949 . S
H882 C859 0.950 . S
H883 C861 0.950 . S
C884 C885 1.349 . S
C884 C886 1.327 . S
C884 H909 0.950 . S
C885 C884 1.349 . S
C885 C901 1.349 . S
C886 C884 1.327 . S
C886 C905 1.429 . S
C886 H910 0.950 . S
C887 C904 1.574 . S
C887 C906 1.368 . S
C887 H911 0.949 . S
H888 C892 0.949 . S
C889 C890 1.349 . S
C889 C891 1.327 . S
C889 H912 0.950 . S
C890 C889 1.349 . S
C890 C902 1.349 . S
C891 C889 1.327 . S
C891 C907 1.429 . S
C891 H913 0.950 . S
C892 H888 0.949 . S
C892 C900 1.574 . S
C892 C908 1.368 . S
H893 C901 0.950 . S
H894 C899 0.950 . S
H895 C900 0.949 . S
H896 C902 0.950 . S
H897 C903 0.950 . S
H898 C904 0.949 . S
C899 H894 0.950 . S
C899 C901 1.327 . S
C899 C905 1.429 . S
C900 C892 1.574 . S
C900 H895 0.949 . S
C900 C906 1.368 . S
C901 C885 1.349 . S
C901 H893 0.950 . S
C901 C899 1.327 . S
C902 C890 1.349 . S
C902 H896 0.950 . S
C902 C903 1.327 . S
C903 H897 0.950 . S
C903 C902 1.327 . S
C903 C907 1.429 . S
C904 C887 1.574 . S
C904 H898 0.949 . S
C904 C908 1.368 . S
C905 C886 1.429 . S
C905 C899 1.429 . S
C905 C906 1.523 . S
C906 C887 1.368 . S
C906 C900 1.368 . S
C906 C905 1.523 . S
C907 C891 1.429 . S
C907 C903 1.429 . S
C907 C908 1.523 . S
C908 C892 1.368 . S
C908 C904 1.368 . S
C908 C907 1.523 . S
H909 C884 0.950 . S
H910 C886 0.950 . S
H911 C887 0.949 . S
H912 C889 0.950 . S
H913 C891 0.950 . S
C914 C915 1.349 . S
C914 C916 1.327 . S
C914 H939 0.950 . S
C915 C914 1.349 . S
C915 C931 1.349 . S
C916 C914 1.327 . S
C916 C935 1.429 . S
C916 H940 0.950 . S
C917 C934 1.574 1_455 S
C917 C936 1.368 . S
C917 H941 0.949 . S
H918 C922 0.949 . S
C919 C920 1.349 . S
C919 C921 1.327 . S
C919 H942 0.950 . S
C920 C919 1.349 . S
C920 C932 1.349 . S
C921 C919 1.327 . S
C921 C937 1.429 . S
C921 H943 0.950 . S
C922 H918 0.949 . S
C922 C930 1.574 1_655 S
C922 C938 1.368 . S
H923 C931 0.950 . S
H924 C929 0.950 . S
H925 C930 0.949 . S
H926 C932 0.950 . S
H927 C933 0.950 . S
H928 C934 0.949 . S
C929 H924 0.950 . S
C929 C931 1.327 . S
C929 C935 1.429 . S
C930 C922 1.574 1_455 S
C930 H925 0.949 . S
C930 C936 1.368 . S
C931 C915 1.349 . S
C931 H923 0.950 . S
C931 C929 1.327 . S
C932 C920 1.349 . S
C932 H926 0.950 . S
C932 C933 1.327 . S
C933 H927 0.950 . S
C933 C932 1.327 . S
C933 C937 1.429 . S
C934 C917 1.574 1_655 S
C934 H928 0.949 . S
C934 C938 1.368 . S
C935 C916 1.429 . S
C935 C929 1.429 . S
C935 C936 1.523 . S
C936 C917 1.368 . S
C936 C930 1.368 . S
C936 C935 1.523 . S
C937 C921 1.429 . S
C937 C933 1.429 . S
C937 C938 1.523 . S
C938 C922 1.368 . S
C938 C934 1.368 . S
C938 C937 1.523 . S
H939 C914 0.950 . S
H940 C916 0.950 . S
H941 C917 0.949 . S
H942 C919 0.950 . S
H943 C921 0.950 . S
C944 C945 1.349 . S
C944 C946 1.327 . S
C944 H969 0.950 . S
C945 C944 1.349 . S
C945 C961 1.349 . S
C946 C944 1.327 . S
C946 C965 1.429 . S
C946 H970 0.950 . S
C947 C964 1.574 1_455 S
C947 C966 1.368 . S
C947 H971 0.949 . S
H948 C952 0.949 . S
C949 C950 1.349 . S
C949 C951 1.327 . S
C949 H972 0.950 . S
C950 C949 1.349 . S
C950 C962 1.349 . S
C951 C949 1.327 . S
C951 C967 1.429 . S
C951 H973 0.950 . S
C952 H948 0.949 . S
C952 C960 1.574 1_655 S
C952 C968 1.368 . S
H953 C961 0.950 . S
H954 C959 0.950 . S
H955 C960 0.949 . S
H956 C962 0.950 . S
H957 C963 0.950 . S
H958 C964 0.949 . S
C959 H954 0.950 . S
C959 C961 1.327 . S
C959 C965 1.429 . S
C960 C952 1.574 1_455 S
C960 H955 0.949 . S
C960 C966 1.368 . S
C961 C945 1.349 . S
C961 H953 0.950 . S
C961 C959 1.327 . S
C962 C950 1.349 . S
C962 H956 0.950 . S
C962 C963 1.327 . S
C963 H957 0.950 . S
C963 C962 1.327 . S
C963 C967 1.429 . S
C964 C947 1.574 1_655 S
C964 H958 0.949 . S
C964 C968 1.368 . S
C965 C946 1.429 . S
C965 C959 1.429 . S
C965 C966 1.523 . S
C966 C947 1.368 . S
C966 C960 1.368 . S
C966 C965 1.523 . S
C967 C951 1.429 . S
C967 C963 1.429 . S
C967 C968 1.523 . S
C968 C952 1.368 . S
C968 C964 1.368 . S
C968 C967 1.523 . S
H969 C944 0.950 . S
H970 C946 0.950 . S
H971 C947 0.949 . S
H972 C949 0.950 . S
H973 C951 0.950 . S
C974 C975 1.349 . S
C974 C976 1.327 . S
C974 H999 0.950 . S
C975 C974 1.349 . S
C975 C991 1.349 . S
C976 C974 1.327 . S
C976 C995 1.429 . S
C976 H1000 0.950 . S
C977 C994 1.574 . S
C977 C996 1.368 . S
C977 H1001 0.949 . S
H978 C982 0.949 . S
C979 C980 1.349 . S
C979 C981 1.327 . S
C979 H1002 0.950 . S
C980 C979 1.349 . S
C980 C992 1.349 . S
C981 C979 1.327 . S
C981 C997 1.429 . S
C981 H1003 0.950 . S
C982 H978 0.949 . S
C982 C990 1.574 . S
C982 C998 1.368 . S
H983 C991 0.950 . S
H984 C989 0.950 . S
H985 C990 0.949 . S
H986 C992 0.950 . S
H987 C993 0.950 . S
H988 C994 0.949 . S
C989 H984 0.950 . S
C989 C991 1.327 . S
C989 C995 1.429 . S
C990 C982 1.574 . S
C990 H985 0.949 . S
C990 C996 1.368 . S
C991 C975 1.349 . S
C991 H983 0.950 . S
C991 C989 1.327 . S
C992 C980 1.349 . S
C992 H986 0.950 . S
C992 C993 1.327 . S
C993 H987 0.950 . S
C993 C992 1.327 . S
C993 C997 1.429 . S
C994 C977 1.574 . S
C994 H988 0.949 . S
C994 C998 1.368 . S
C995 C976 1.429 . S
C995 C989 1.429 . S
C995 C996 1.523 . S
C996 C977 1.368 . S
C996 C990 1.368 . S
C996 C995 1.523 . S
C997 C981 1.429 . S
C997 C993 1.429 . S
C997 C998 1.523 . S
C998 C982 1.368 . S
C998 C994 1.368 . S
C998 C997 1.523 . S
H999 C974 0.950 . S
H1000 C976 0.950 . S
H1001 C977 0.949 . S
H1002 C979 0.950 . S
H1003 C981 0.950 . S
C1004 C1005 1.349 . S
C1004 C1006 1.327 . S
C1004 H1029 0.950 . S
C1005 C1004 1.349 . S
C1005 C1021 1.349 . S
C1006 C1004 1.327 . S
C1006 C1025 1.429 . S
C1006 H1030 0.950 . S
C1007 C1024 1.574 . S
C1007 C1026 1.368 . S
C1007 H1031 0.949 . S
H1008 C1012 0.949 . S
C1009 C1010 1.349 . S
C1009 C1011 1.327 . S
C1009 H1032 0.950 . S
C1010 C1009 1.349 . S
C1010 C1022 1.349 . S
C1011 C1009 1.327 . S
C1011 C1027 1.429 . S
C1011 H1033 0.950 . S
C1012 H1008 0.949 . S
C1012 C1020 1.574 . S
C1012 C1028 1.368 . S
H1013 C1021 0.950 . S
H1014 C1019 0.950 . S
H1015 C1020 0.949 . S
H1016 C1022 0.950 . S
H1017 C1023 0.950 . S
H1018 C1024 0.949 . S
C1019 H1014 0.950 . S
C1019 C1021 1.327 . S
C1019 C1025 1.429 . S
C1020 C1012 1.574 . S
C1020 H1015 0.949 . S
C1020 C1026 1.368 . S
C1021 C1005 1.349 . S
C1021 H1013 0.950 . S
C1021 C1019 1.327 . S
C1022 C1010 1.349 . S
C1022 H1016 0.950 . S
C1022 C1023 1.327 . S
C1023 H1017 0.950 . S
C1023 C1022 1.327 . S
C1023 C1027 1.429 . S
C1024 C1007 1.574 . S
C1024 H1018 0.949 . S
C1024 C1028 1.368 . S
C1025 C1006 1.429 . S
C1025 C1019 1.429 . S
C1025 C1026 1.523 . S
C1026 C1007 1.368 . S
C1026 C1020 1.368 . S
C1026 C1025 1.523 . S
C1027 C1011 1.429 . S
C1027 C1023 1.429 . S
C1027 C1028 1.523 . S
C1028 C1012 1.368 . S
C1028 C1024 1.368 . S
C1028 C1027 1.523 . S
H1029 C1004 0.950 . S
H1030 C1006 0.950 . S
H1031 C1007 0.949 . S
H1032 C1009 0.950 . S
H1033 C1011 0.950 . S
C1034 C1035 1.349 . S
C1034 C1036 1.327 . S
C1034 H1059 0.950 . S
C1035 C1034 1.349 . S
C1035 C1051 1.349 . S
C1036 C1034 1.327 . S
C1036 C1055 1.429 . S
C1036 H1060 0.950 . S
C1037 C1054 1.574 . S
C1037 C1056 1.368 1_565 S
C1037 H1061 0.949 . S
H1038 C1042 0.949 . S
C1039 C1040 1.349 . S
C1039 C1041 1.327 . S
C1039 H1062 0.950 . S
C1040 C1039 1.349 . S
C1040 C1052 1.349 . S
C1041 C1039 1.327 . S
C1041 C1057 1.429 . S
C1041 H1063 0.950 . S
C1042 H1038 0.949 . S
C1042 C1050 1.574 . S
C1042 C1058 1.368 1_545 S
H1043 C1051 0.950 . S
H1044 C1049 0.950 . S
H1045 C1050 0.949 . S
H1046 C1052 0.950 . S
H1047 C1053 0.950 . S
H1048 C1054 0.949 . S
C1049 H1044 0.950 . S
C1049 C1051 1.327 . S
C1049 C1055 1.429 . S
C1050 C1042 1.574 . S
C1050 H1045 0.949 . S
C1050 C1056 1.368 . S
C1051 C1035 1.349 . S
C1051 H1043 0.950 . S
C1051 C1049 1.327 . S
C1052 C1040 1.349 . S
C1052 H1046 0.950 . S
C1052 C1053 1.327 . S
C1053 H1047 0.950 . S
C1053 C1052 1.327 . S
C1053 C1057 1.429 . S
C1054 C1037 1.574 . S
C1054 H1048 0.949 . S
C1054 C1058 1.368 . S
C1055 C1036 1.429 . S
C1055 C1049 1.429 . S
C1055 C1056 1.523 . S
C1056 C1037 1.368 1_545 S
C1056 C1050 1.368 . S
C1056 C1055 1.523 . S
C1057 C1041 1.429 . S
C1057 C1053 1.429 . S
C1057 C1058 1.523 . S
C1058 C1042 1.368 1_565 S
C1058 C1054 1.368 . S
C1058 C1057 1.523 . S
H1059 C1034 0.950 . S
H1060 C1036 0.950 . S
H1061 C1037 0.949 . S
H1062 C1039 0.950 . S
H1063 C1041 0.950 . S
C1064 C1065 1.349 . S
C1064 C1066 1.327 . S
C1064 H1089 0.950 . S
C1065 C1064 1.349 . S
C1065 C1081 1.349 . S
C1066 C1064 1.327 . S
C1066 C1085 1.429 . S
C1066 H1090 0.950 . S
C1067 C1084 1.574 . S
C1067 C1086 1.368 . S
C1067 H1091 0.949 . S
H1068 C1072 0.949 . S
C1069 C1070 1.349 . S
C1069 C1071 1.327 . S
C1069 H1092 0.950 . S
C1070 C1069 1.349 . S
C1070 C1082 1.349 . S
C1071 C1069 1.327 . S
C1071 C1087 1.429 . S
C1071 H1093 0.950 . S
C1072 H1068 0.949 . S
C1072 C1080 1.574 . S
C1072 C1088 1.368 . S
H1073 C1081 0.950 . S
H1074 C1079 0.950 . S
H1075 C1080 0.949 . S
H1076 C1082 0.950 . S
H1077 C1083 0.950 . S
H1078 C1084 0.949 . S
C1079 H1074 0.950 . S
C1079 C1081 1.327 . S
C1079 C1085 1.429 . S
C1080 C1072 1.574 . S
C1080 H1075 0.949 . S
C1080 C1086 1.368 . S
C1081 C1065 1.349 . S
C1081 H1073 0.950 . S
C1081 C1079 1.327 . S
C1082 C1070 1.349 . S
C1082 H1076 0.950 . S
C1082 C1083 1.327 . S
C1083 H1077 0.950 . S
C1083 C1082 1.327 . S
C1083 C1087 1.429 . S
C1084 C1067 1.574 . S
C1084 H1078 0.949 . S
C1084 C1088 1.368 . S
C1085 C1066 1.429 . S
C1085 C1079 1.429 . S
C1085 C1086 1.523 . S
C1086 C1067 1.368 . S
C1086 C1080 1.368 . S
C1086 C1085 1.523 . S
C1087 C1071 1.429 . S
C1087 C1083 1.429 . S
C1087 C1088 1.523 . S
C1088 C1072 1.368 . S
C1088 C1084 1.368 . S
C1088 C1087 1.523 . S
H1089 C1064 0.950 . S
H1090 C1066 0.950 . S
H1091 C1067 0.949 . S
H1092 C1069 0.950 . S
H1093 C1071 0.950 . S
C1094 C1095 1.349 . S
C1094 C1096 1.327 . S
C1094 H1119 0.950 . S
C1095 C1094 1.349 . S
C1095 C1111 1.349 . S
C1096 C1094 1.327 . S
C1096 C1115 1.429 . S
C1096 H1120 0.950 . S
C1097 C1114 1.574 . S
C1097 C1116 1.368 . S
C1097 H1121 0.949 . S
H1098 C1102 0.949 . S
C1099 C1100 1.349 . S
C1099 C1101 1.327 . S
C1099 H1122 0.950 . S
C1100 C1099 1.349 . S
C1100 C1112 1.349 . S
C1101 C1099 1.327 . S
C1101 C1117 1.429 . S
C1101 H1123 0.950 . S
C1102 H1098 0.949 . S
C1102 C1110 1.574 . S
C1102 C1118 1.368 . S
H1103 C1111 0.950 . S
H1104 C1109 0.950 . S
H1105 C1110 0.949 . S
H1106 C1112 0.950 . S
H1107 C1113 0.950 . S
H1108 C1114 0.949 . S
C1109 H1104 0.950 . S
C1109 C1111 1.327 . S
C1109 C1115 1.429 . S
C1110 C1102 1.574 . S
C1110 H1105 0.949 . S
C1110 C1116 1.368 . S
C1111 C1095 1.349 . S
C1111 H1103 0.950 . S
C1111 C1109 1.327 . S
C1112 C1100 1.349 . S
C1112 H1106 0.950 . S
C1112 C1113 1.327 . S
C1113 H1107 0.950 . S
C1113 C1112 1.327 . S
C1113 C1117 1.429 . S
C1114 C1097 1.574 . S
C1114 H1108 0.949 . S
C1114 C1118 1.368 . S
C1115 C1096 1.429 . S
C1115 C1109 1.429 . S
C1115 C1116 1.523 . S
C1116 C1097 1.368 . S
C1116 C1110 1.368 . S
C1116 C1115 1.523 . S
C1117 C1101 1.429 . S
C1117 C1113 1.429 . S
C1117 C1118 1.523 . S
C1118 C1102 1.368 . S
C1118 C1114 1.368 . S
C1118 C1117 1.523 . S
H1119 C1094 0.950 . S
H1120 C1096 0.950 . S
H1121 C1097 0.949 . S
H1122 C1099 0.950 . S
H1123 C1101 0.950 . S
C1124 C1125 1.349 . S
C1124 C1126 1.327 . S
C1124 H1149 0.950 . S
C1125 C1124 1.349 . S
C1125 C1141 1.349 . S
C1126 C1124 1.327 . S
C1126 C1145 1.429 . S
C1126 H1150 0.950 . S
C1127 C1144 1.574 . S
C1127 C1146 1.368 1_565 S
C1127 H1151 0.949 . S
H1128 C1132 0.949 . S
C1129 C1130 1.349 . S
C1129 C1131 1.327 . S
C1129 H1152 0.950 . S
C1130 C1129 1.349 . S
C1130 C1142 1.349 . S
C1131 C1129 1.327 . S
C1131 C1147 1.429 . S
C1131 H1153 0.950 . S
C1132 H1128 0.949 . S
C1132 C1140 1.574 . S
C1132 C1148 1.368 1_545 S
H1133 C1141 0.950 . S
H1134 C1139 0.950 . S
H1135 C1140 0.949 . S
H1136 C1142 0.950 . S
H1137 C1143 0.950 . S
H1138 C1144 0.949 . S
C1139 H1134 0.950 . S
C1139 C1141 1.327 . S
C1139 C1145 1.429 . S
C1140 C1132 1.574 . S
C1140 H1135 0.949 . S
C1140 C1146 1.368 . S
C1141 C1125 1.349 . S
C1141 H1133 0.950 . S
C1141 C1139 1.327 . S
C1142 C1130 1.349 . S
C1142 H1136 0.950 . S
C1142 C1143 1.327 . S
C1143 H1137 0.950 . S
C1143 C1142 1.327 . S
C1143 C1147 1.429 . S
C1144 C1127 1.574 . S
C1144 H1138 0.949 . S
C1144 C1148 1.368 . S
C1145 C1126 1.429 . S
C1145 C1139 1.429 . S
C1145 C1146 1.523 . S
C1146 C1127 1.368 1_545 S
C1146 C1140 1.368 . S
C1146 C1145 1.523 . S
C1147 C1131 1.429 . S
C1147 C1143 1.429 . S
C1147 C1148 1.523 . S
C1148 C1132 1.368 1_565 S
C1148 C1144 1.368 . S
C1148 C1147 1.523 . S
H1149 C1124 0.950 . S
H1150 C1126 0.950 . S
H1151 C1127 0.949 . S
H1152 C1129 0.950 . S
H1153 C1131 0.950 . S
C1154 C1155 1.349 . S
C1154 C1156 1.327 . S
C1154 H1179 0.950 . S
C1155 C1154 1.349 . S
C1155 C1171 1.349 . S
C1156 C1154 1.327 . S
C1156 C1175 1.429 . S
C1156 H1180 0.950 . S
C1157 C1174 1.574 . S
C1157 C1176 1.368 . S
C1157 H1181 0.949 . S
H1158 C1162 0.949 . S
C1159 C1160 1.349 . S
C1159 C1161 1.327 . S
C1159 H1182 0.950 . S
C1160 C1159 1.349 . S
C1160 C1172 1.349 . S
C1161 C1159 1.327 . S
C1161 C1177 1.429 . S
C1161 H1183 0.950 . S
C1162 H1158 0.949 . S
C1162 C1170 1.574 . S
C1162 C1178 1.368 . S
H1163 C1171 0.950 . S
H1164 C1169 0.950 . S
H1165 C1170 0.949 . S
H1166 C1172 0.950 . S
H1167 C1173 0.950 . S
H1168 C1174 0.949 . S
C1169 H1164 0.950 . S
C1169 C1171 1.327 . S
C1169 C1175 1.429 . S
C1170 C1162 1.574 . S
C1170 H1165 0.949 . S
C1170 C1176 1.368 . S
C1171 C1155 1.349 . S
C1171 H1163 0.950 . S
C1171 C1169 1.327 . S
C1172 C1160 1.349 . S
C1172 H1166 0.950 . S
C1172 C1173 1.327 . S
C1173 H1167 0.950 . S
C1173 C1172 1.327 . S
C1173 C1177 1.429 . S
C1174 C1157 1.574 . S
C1174 H1168 0.949 . S
C1174 C1178 1.368 . S
C1175 C1156 1.429 . S
C1175 C1169 1.429 . S
C1175 C1176 1.523 . S
C1176 C1157 1.368 . S
C1176 C1170 1.368 . S
C1176 C1175 1.523 . S
C1177 C1161 1.429 . S
C1177 C1173 1.429 . S
C1177 C1178 1.523 . S
C1178 C1162 1.368 . S
C1178 C1174 1.368 . S
C1178 C1177 1.523 . S
H1179 C1154 0.950 . S
H1180 C1156 0.950 . S
H1181 C1157 0.949 . S
H1182 C1159 0.950 . S
H1183 C1161 0.950 . S
C225 C9 0.920 . S
C230 C191 0.915 . S
C255 C23 0.920 . S
C260 C135 0.915 . S
C285 C205 0.915 . S
C290 C37 0.920 . S
C315 C51 0.920 . S
C320 C219 0.915 . S
C345 C65 0.920 . S
C350 C93 0.915 . S
C375 C149 0.920 . S
C380 C79 0.915 . S
C405 C163 0.920 . S
C410 C107 0.915 . S
C435 C121 0.915 . S
C440 C177 0.920 . S
C465 C33 1.676 . S
C470 C5 1.676 . S
C495 C19 1.676 . S
C500 C47 1.676 . S
C525 C179 1.807 . S
C530 C11 1.807 . S
C555 C25 1.807 . S
C560 C165 1.807 . S
C585 C67 1.807 . S
C590 C39 1.807 . S
C615 C151 1.807 . S
C620 C53 1.807 . S
C645 C14 1.368 . S
C650 C0 1.368 . S
C675 C42 1.368 . S
C680 C28 1.368 . S
C705 C140 1.368 . S
C710 C56 1.368 . S
C735 C109 1.593 . S
C740 C81 1.593 . S
C765 C95 1.593 . S
C770 C123 1.593 . S
C795 C215 1.865 . S
C800 C75 1.865 . S
C825 C89 1.865 . S
C830 C201 1.865 . S
C855 C131 1.865 . S
C860 C103 1.865 . S
C885 C117 1.865 . S
C890 C187 1.865 . S
C915 C84 1.448 . S
C920 C70 1.448 . S
C945 C112 1.448 . S
C950 C98 1.448 . S
C975 C126 1.448 . S
C980 C182 1.448 . S
C1005 C145 1.676 . S
C1010 C159 1.676 . S
C1035 C173 1.676 . S
C1040 C61 1.676 . S
C1065 C168 1.368 . S
C1070 C154 1.368 . S
C1095 C207 1.593 . S
C1100 C193 1.593 . S
C1125 C137 1.593 . S
C1130 C221 1.593 . S
C1155 C210 1.448 . S
C1160 C196 1.448 . S
