# Generated by pormake.
# Topology und, (4)-cn, num edge types: 1
# Building blocks:
#     Node 0, Type 0, BuildingBlock: NAHDIM_clean_sbu_0, # of connection points: 4
#     Node 1, Type 0, BuildingBlock: NAHDIM_clean_sbu_0, # of connection points: 4
#     Node 2, Type 0, BuildingBlock: NAHDIM_clean_sbu_0, # of connection points: 4
#     Node 3, Type 0, BuildingBlock: NAHDIM_clean_sbu_0, # of connection points: 4
#     Node 4, Type 0, BuildingBlock: NAHDIM_clean_sbu_0, # of connection points: 4
#     Node 5, Type 0, BuildingBlock: NAHDIM_clean_sbu_0, # of connection points: 4
#     Node 6, Type 0, BuildingBlock: NAHDIM_clean_sbu_0, # of connection points: 4
#     Node 7, Type 0, BuildingBlock: NAHDIM_clean_sbu_0, # of connection points: 4
#     Node 8, Type 0, BuildingBlock: NAHDIM_clean_sbu_0, # of connection points: 4
#     Node 9, Type 0, BuildingBlock: NAHDIM_clean_sbu_0, # of connection points: 4
#     Node 10, Type 0, BuildingBlock: NAHDIM_clean_sbu_0, # of connection points: 4
#     Node 11, Type 0, BuildingBlock: NAHDIM_clean_sbu_0, # of connection points: 4
#     Node 12, Type 0, BuildingBlock: NAHDIM_clean_sbu_0, # of connection points: 4
#     Node 13, Type 0, BuildingBlock: NAHDIM_clean_sbu_0, # of connection points: 4
#     Node 14, Type 0, BuildingBlock: NAHDIM_clean_sbu_0, # of connection points: 4
#     Node 15, Type 0, BuildingBlock: NAHDIM_clean_sbu_0, # of connection points: 4
#     Edge 16, Type (0, 0), BuildingBlock: UVAHIK_clean_linker_0, # of connection points: 2
#     Edge 17, Type (0, 0), BuildingBlock: UVAHIK_clean_linker_0, # of connection points: 2
#     Edge 18, Type (0, 0), BuildingBlock: UVAHIK_clean_linker_0, # of connection points: 2
#     Edge 19, Type (0, 0), BuildingBlock: UVAHIK_clean_linker_0, # of connection points: 2
#     Edge 20, Type (0, 0), BuildingBlock: UVAHIK_clean_linker_0, # of connection points: 2
#     Edge 21, Type (0, 0), BuildingBlock: UVAHIK_clean_linker_0, # of connection points: 2
#     Edge 22, Type (0, 0), BuildingBlock: UVAHIK_clean_linker_0, # of connection points: 2
#     Edge 23, Type (0, 0), BuildingBlock: UVAHIK_clean_linker_0, # of connection points: 2
#     Edge 24, Type (0, 0), BuildingBlock: UVAHIK_clean_linker_0, # of connection points: 2
#     Edge 25, Type (0, 0), BuildingBlock: UVAHIK_clean_linker_0, # of connection points: 2
#     Edge 26, Type (0, 0), BuildingBlock: UVAHIK_clean_linker_0, # of connection points: 2
#     Edge 27, Type (0, 0), BuildingBlock: UVAHIK_clean_linker_0, # of connection points: 2
#     Edge 28, Type (0, 0), BuildingBlock: UVAHIK_clean_linker_0, # of connection points: 2
#     Edge 29, Type (0, 0), BuildingBlock: UVAHIK_clean_linker_0, # of connection points: 2
#     Edge 30, Type (0, 0), BuildingBlock: UVAHIK_clean_linker_0, # of connection points: 2
#     Edge 31, Type (0, 0), BuildingBlock: UVAHIK_clean_linker_0, # of connection points: 2
#     Edge 32, Type (0, 0), BuildingBlock: UVAHIK_clean_linker_0, # of connection points: 2
#     Edge 33, Type (0, 0), BuildingBlock: UVAHIK_clean_linker_0, # of connection points: 2
#     Edge 34, Type (0, 0), BuildingBlock: UVAHIK_clean_linker_0, # of connection points: 2
#     Edge 35, Type (0, 0), BuildingBlock: UVAHIK_clean_linker_0, # of connection points: 2
#     Edge 36, Type (0, 0), BuildingBlock: UVAHIK_clean_linker_0, # of connection points: 2
#     Edge 37, Type (0, 0), BuildingBlock: UVAHIK_clean_linker_0, # of connection points: 2
#     Edge 38, Type (0, 0), BuildingBlock: UVAHIK_clean_linker_0, # of connection points: 2
#     Edge 39, Type (0, 0), BuildingBlock: UVAHIK_clean_linker_0, # of connection points: 2
#     Edge 40, Type (0, 0), BuildingBlock: UVAHIK_clean_linker_0, # of connection points: 2
#     Edge 41, Type (0, 0), BuildingBlock: UVAHIK_clean_linker_0, # of connection points: 2
#     Edge 42, Type (0, 0), BuildingBlock: UVAHIK_clean_linker_0, # of connection points: 2
#     Edge 43, Type (0, 0), BuildingBlock: UVAHIK_clean_linker_0, # of connection points: 2
#     Edge 44, Type (0, 0), BuildingBlock: UVAHIK_clean_linker_0, # of connection points: 2
#     Edge 45, Type (0, 0), BuildingBlock: UVAHIK_clean_linker_0, # of connection points: 2
#     Edge 46, Type (0, 0), BuildingBlock: UVAHIK_clean_linker_0, # of connection points: 2
#     Edge 47, Type (0, 0), BuildingBlock: UVAHIK_clean_linker_0, # of connection points: 2
# Relax obj value: 0.114
# Max RMSD: 0.175
# Mean RMSD: 0.175
data_MOF--net-und--node1-NAHDIM_clean_sbu_0--edge1-UVAHIK_clean_linker_0
_symmetry_space_group_name_H-M    P1
_symmetry_Int_Tables_number       1
_symmetry_cell_setting            triclinic
loop_
_symmetry_equiv_pos_as_xyz
'x, y, z'
_cell_length_a     77.404526
_cell_length_b     77.340499
_cell_length_c     27.69388
_cell_angle_alpha  90.004909
_cell_angle_beta   90.003017
_cell_angle_gamma 96.441785
loop_
_atom_site_label
_atom_site_type_symbol
_atom_site_fract_x
_atom_site_fract_y
_atom_site_fract_z
_atom_type_partial_charge
C0 C 0.24517 0.38152 0.05212 0.0
O1 O 0.26031 0.38178 0.07375 0.0
O2 O 0.25772 0.33719 0.05783 0.0
Zn3 Zn 0.25878 0.35413 0.00296 0.0
O4 O 0.28245 0.36728 -0.00393 0.0
C5 C 0.23918 0.3304 0.9381 0.0
O6 O 0.22861 0.32806 0.97522 0.0
O7 O 0.24147 0.37077 0.01795 0.0
C8 C 0.29476 0.3609 0.97443 0.0
O9 O 0.29221 0.34487 0.95809 0.0
C10 C 0.26113 0.32157 0.05374 0.0
O11 O 0.26689 0.31623 0.01233 0.0
O12 O 0.25266 0.34132 0.94139 0.0
C13 C 0.91016 0.06036 0.26328 0.0
O14 O 0.92573 0.0594 0.24533 0.0
O15 O 0.92556 0.0224 0.22054 0.0
Zn16 Zn 0.91201 0.02418 0.28164 0.0
O17 O 0.89283 0.00464 0.28737 0.0
C18 C 0.94446 0.0248 0.33253 0.0
O19 O 0.95093 0.0312 0.2916 0.0
O20 O 0.902 0.04694 0.28254 0.0
C21 C 0.89661 0.9891 0.29022 0.0
O22 O 0.91295 0.98618 0.2863 0.0
C23 C 0.92068 0.01415 0.18239 0.0
O24 O 0.90506 0.00558 0.18028 0.0
O25 O 0.92808 0.0218 0.33731 0.0
C26 C 0.23822 0.64449 0.56381 0.0
O27 O 0.22585 0.64842 0.59297 0.0
O28 O 0.22375 0.68578 0.56057 0.0
Zn29 Zn 0.22342 0.669 0.5054 0.0
O30 O 0.19955 0.65694 0.49242 0.0
C31 C 0.24511 0.69328 0.4462 0.0
O32 O 0.25399 0.6962 0.48638 0.0
O33 O 0.23961 0.65152 0.52234 0.0
C34 C 0.18957 0.6635 0.46276 0.0
O35 O 0.19466 0.67874 0.44342 0.0
C36 C 0.21975 0.70119 0.55658 0.0
O37 O 0.21386 0.70635 0.51511 0.0
O38 O 0.23193 0.68192 0.44585 0.0
C39 C 0.60092 0.98884 0.7371 0.0
O40 O 0.60241 0.0037 0.71362 0.0
O41 O 0.56517 0.01298 0.72717 0.0
Zn42 Zn 0.57883 0.00823 0.78616 0.0
O43 O 0.59684 0.02833 0.79958 0.0
C44 C 0.54674 0.00135 0.83999 0.0
O45 O 0.54023 -0.004 0.79806 0.0
O46 O 0.5908 0.98701 0.77331 0.0
C47 C 0.60775 0.0263 0.83277 0.0
O48 O 0.60694 0.01126 0.85519 0.0
C49 C 0.5559 0.0255 0.72497 0.0
O50 O 0.55555 0.03606 0.76205 0.0
O51 O 0.56297 0.00594 0.84357 0.0
C52 C 0.79019 0.66857 0.98428 0.0
O53 O 0.79016 0.68432 0.96657 0.0
O54 O 0.75404 0.68955 0.95465 0.0
Zn55 Zn 0.75524 0.6736 0.0112 0.0
O56 O 0.73445 0.65576 0.01526 0.0
C57 C 0.76196 0.70402 0.06987 0.0
O58 O 0.77029 0.71004 0.03097 0.0
O59 O 0.77679 0.66156 0.00631 0.0
C60 C 0.71921 0.66028 0.01834 0.0
O61 O 0.71705 0.67685 0.01527 0.0
C62 C 0.74608 0.68681 0.91486 0.0
O63 O 0.7369 0.67173 0.907 0.0
O64 O 0.75524 0.68826 0.07075 0.0
C65 C 0.09988 0.96471 0.83235 0.0
O66 O 0.101 0.98046 0.85072 0.0
O67 O 0.05762 0.98413 0.81739 0.0
Zn68 Zn 0.07636 0.97955 0.77061 0.0
O69 O 0.09202 0.00143 0.7568 0.0
C70 C 0.04933 0.96538 0.7061 0.0
O71 O 0.04129 0.96064 0.74656 0.0
O72 O 0.08993 0.96104 0.79645 0.0
C73 C 0.08503 0.01456 0.74199 0.0
O74 O 0.06799 0.01353 0.73919 0.0
C75 C 0.05895 -0.00402 0.84935 0.0
O76 O 0.0737 0.00603 0.85417 0.0
O77 O 0.0649 0.97254 0.70779 0.0
C78 C 0.70158 0.37402 0.53509 0.0
O79 O 0.71388 0.38156 0.56315 0.0
O80 O 0.72754 0.33277 0.46504 0.0
Zn81 Zn 0.72593 0.34891 0.52092 0.0
O82 O 0.7462 0.36744 0.52271 0.0
C83 C 0.72191 0.31877 0.58184 0.0
O84 O 0.71414 0.31159 0.54343 0.0
O85 O 0.70374 0.35968 0.51493 0.0
C86 C 0.76145 0.36301 0.52684 0.0
O87 O 0.76358 0.34639 0.5265 0.0
C88 C 0.73535 0.33627 0.42536 0.0
O89 O 0.74354 0.35188 0.41826 0.0
O90 O 0.72702 0.33496 0.58149 0.0
C91 C 0.38331 0.05334 0.33116 0.0
O92 O 0.38591 0.03883 0.35331 0.0
O93 O 0.42479 0.0386 0.32894 0.0
Zn94 Zn 0.40881 0.04116 0.27291 0.0
O95 O 0.39591 0.01785 0.25552 0.0
C96 C 0.43864 0.05565 0.21664 0.0
O97 O 0.44589 0.05902 0.259 0.0
O98 O 0.39183 0.05753 0.29289 0.0
C99 C 0.4021 0.00867 0.22305 0.0
O100 O 0.41698 0.01435 0.20269 0.0
C101 C 0.4357 0.0275 0.32991 0.0
O102 O 0.43657 0.01689 0.29318 0.0
O103 O 0.42269 0.04967 0.2146 0.0
C104 C 0.71417 0.86804 0.56702 0.0
O105 O 0.72915 0.868 0.5893 0.0
O106 O 0.73609 0.82896 0.55114 0.0
Zn107 Zn 0.7314 0.84736 0.5035 0.0
O108 O 0.75238 0.86449 0.49197 0.0
C109 C 0.71746 0.82013 0.44017 0.0
O110 O 0.71102 0.81335 0.48072 0.0
O111 O 0.71174 0.85978 0.52749 0.0
C112 C 0.7661 0.85933 0.47458 0.0
O113 O 0.76665 0.8426 0.46749 0.0
C114 C 0.74787 0.82989 0.58322 0.0
O115 O 0.75853 0.84425 0.58784 0.0
O116 O 0.72573 0.83526 0.44077 0.0
C117 C 0.37306 0.54388 0.72024 0.0
O118 O 0.37321 0.52782 0.70494 0.0
O119 O 0.42031 0.53676 0.6957 0.0
Zn120 Zn 0.40527 0.536 0.75473 0.0
O121 O 0.39491 0.51173 0.77002 0.0
C122 C 0.43637 0.54718 0.80873 0.0
O123 O 0.44322 0.54987 0.76562 0.0
O124 O 0.38596 0.5509 0.74435 0.0
C125 C 0.4036 0.49874 0.77121 0.0
O126 O 0.42001 0.50068 0.75809 0.0
C127 C 0.41809 0.52675 0.65939 0.0
O128 O 0.40475 0.51465 0.65835 0.0
O129 O 0.42008 0.54298 0.81253 0.0
C130 C 0.78739 0.16456 0.07911 0.0
O131 O 0.7721 0.16305 0.10027 0.0
O132 O 0.76108 0.19963 0.05791 0.0
Zn133 Zn 0.76809 0.18168 0.01198 0.0
O134 O 0.74861 0.16262 0.00226 0.0
C135 C 0.78054 0.20911 0.94816 0.0
O136 O 0.78693 0.21601 0.98863 0.0
O137 O 0.78913 0.17214 0.03845 0.0
C138 C 0.73547 0.16608 0.97813 0.0
O139 O 0.73497 0.18198 0.9619 0.0
C140 C 0.74868 0.19751 0.08808 0.0
O141 O 0.73925 0.18233 0.09114 0.0
O142 O 0.77291 0.1937 0.94874 0.0
C143 C 0.11229 0.476 0.25178 0.0
O144 O 0.11608 0.48942 0.2805 0.0
O145 O 0.06038 0.48552 0.19846 0.0
Zn146 Zn 0.07862 0.48841 0.24984 0.0
O147 O 0.08915 0.51329 0.25171 0.0
C148 C 0.05191 0.47606 0.31757 0.0
O149 O 0.04446 0.46876 0.27888 0.0
O150 O 0.09691 0.47278 0.23569 0.0
C151 C 0.07963 0.52456 0.26652 0.0
O152 O 0.06326 0.51961 0.27687 0.0
C153 C 0.06293 0.49164 0.15624 0.0
O154 O 0.0781 0.50012 0.14543 0.0
O155 O 0.06723 0.48378 0.31433 0.0
C156 C 0.25256 0.15322 0.51474 0.0
O157 O 0.24225 0.14663 0.54937 0.0
O158 O 0.22057 0.18783 0.43786 0.0
Zn159 Zn 0.22534 0.17529 0.49898 0.0
O160 O 0.20704 0.1556 0.51348 0.0
C161 C 0.23746 0.20575 0.55392 0.0
O162 O 0.2482 0.2086 0.51731 0.0
O163 O 0.24812 0.16577 0.48981 0.0
C164 C 0.19189 0.15811 0.52738 0.0
O165 O 0.18767 0.17408 0.52958 0.0
C166 C 0.21288 0.2015 0.43743 0.0
O167 O 0.20634 0.20687 0.47779 0.0
O168 O 0.22674 0.19206 0.5543 0.0
C169 C 0.5917 0.48563 0.30948 0.0
O170 O 0.5924 0.50168 0.32557 0.0
O171 O 0.55424 0.50814 0.28801 0.0
Zn172 Zn 0.57197 0.50111 0.24133 0.0
O173 O 0.58992 0.52106 0.22599 0.0
C174 C 0.54342 0.48868 0.18072 0.0
O175 O 0.53614 0.48432 0.22248 0.0
O176 O 0.58336 0.48163 0.27079 0.0
C177 C 0.58532 0.53449 0.20536 0.0
O178 O 0.56875 0.53534 0.19677 0.0
C179 C 0.55549 0.52138 0.3154 0.0
O180 O 0.56983 0.53222 0.31528 0.0
O181 O 0.55939 0.49461 0.17969 0.0
C182 C 0.22365 0.85188 0.98028 0.0
O183 O 0.22433 0.83661 0.96005 0.0
O184 O 0.26104 0.83493 0.94232 0.0
Zn185 Zn 0.25875 0.8473 0.00525 0.0
O186 O 0.27901 0.86537 0.01672 0.0
C187 C 0.24878 0.8151 0.05698 0.0
O188 O 0.23967 0.81081 0.01791 0.0
O189 O 0.23689 0.859 0.00281 0.0
C190 C 0.29199 0.86177 0.04137 0.0
O191 O 0.29242 0.84581 0.05714 0.0
C192 C 0.26976 0.82205 0.93811 0.0
O193 O 0.27876 0.81738 0.97519 0.0
O194 O 0.25745 0.83002 0.05963 0.0
C195 C 0.89227 0.54139 0.80461 0.0
O196 O 0.88952 0.52592 0.82458 0.0
O197 O 0.92696 0.51362 0.79181 0.0
Zn198 Zn 0.91101 0.52186 0.742 0.0
O199 O 0.89181 0.50321 0.72561 0.0
C200 C 0.94128 0.53214 0.68537 0.0
O201 O 0.94772 0.53718 0.72764 0.0
O202 O 0.90138 0.54322 0.76642 0.0
C203 C 0.89599 0.48891 0.70921 0.0
O204 O 0.91254 0.48667 0.70609 0.0
C205 C 0.92359 0.50172 0.82309 0.0
O206 O 0.90786 0.49341 0.82579 0.0
O207 O 0.92529 0.52641 0.68225 0.0
C208 C 0.2593 0.29155 0.08887 0.0
C209 C 0.25674 0.30916 0.09364 0.0
C210 C 0.25386 0.27964 0.12526 0.0
C211 C 0.24131 0.27691 0.25423 0.0
H212 H 0.21864 0.23146 0.21819 0.0
C213 C 0.20932 0.2297 0.3964 0.0
C214 C 0.21404 0.2127 0.39406 0.0
C215 C 0.21293 0.24119 0.35786 0.0
C216 C 0.22501 0.24408 0.22874 0.0
H217 H 0.24671 0.32815 0.14074 0.0
H218 H 0.23709 0.30741 0.20368 0.0
H219 H 0.22918 0.25216 0.15535 0.0
H220 H 0.22525 0.19408 0.3483 0.0
H221 H 0.23152 0.21414 0.28115 0.0
H222 H 0.23715 0.26885 0.32755 0.0
C223 C 0.24349 0.30279 0.17219 0.0
C224 C 0.23113 0.2559 0.19281 0.0
C225 C 0.24896 0.31468 0.13595 0.0
C226 C 0.22151 0.20712 0.35133 0.0
C227 C 0.22505 0.21859 0.31274 0.0
C228 C 0.23514 0.26514 0.29008 0.0
C229 C 0.24573 0.28511 0.16712 0.0
C230 C 0.23938 0.27244 0.20517 0.0
C231 C 0.22123 0.23588 0.31614 0.0
C232 C 0.22696 0.24859 0.27774 0.0
H233 H 0.26529 0.28689 0.05675 0.0
H234 H 0.25603 0.26614 0.12061 0.0
H235 H 0.24785 0.28943 0.265 0.0
H236 H 0.20348 0.23439 0.42871 0.0
H237 H 0.20959 0.25437 0.36114 0.0
C238 C 0.9741 0.02037 0.3629 0.0
C239 C 0.95602 0.01884 0.37 0.0
C240 C 0.98485 0.01315 0.39607 0.0
C241 C 0.9837 0.97947 0.4905 0.0
H242 H 0.02716 0.00495 0.53181 0.0
C243 C 0.0212 0.96264 0.66084 0.0
C244 C 0.03942 0.96602 0.66067 0.0
C245 C 0.01157 0.96667 0.62055 0.0
C246 C 0.01523 -0.0025 0.51996 0.0
H247 H 0.93508 0.00902 0.41826 0.0
H248 H 0.95386 -0.00334 0.47636 0.0
H249 H 0.00928 0.01778 0.47232 0.0
H250 H 0.0619 0.97479 0.61662 0.0
H251 H 0.04509 0.98154 0.5461 0.0
H252 H 0.98954 0.95929 0.53879 0.0
C253 C 0.95969 0.00315 0.4447 0.0
C254 C 0.00496 0.0049 0.486 0.0
C255 C 0.94896 0.01038 0.41163 0.0
C256 C 0.04787 0.97222 0.61811 0.0
C257 C 0.03824 0.9762 0.57781 0.0
C258 C -0.00601 0.97205 0.52445 0.0
C259 C 0.97771 0.00425 0.43695 0.0
C260 C 0.98898 -0.00394 0.47138 0.0
C261 C 0.01999 0.97408 0.57926 0.0
C262 C 0.00977 0.98108 0.53995 0.0
H263 H 0.97994 0.02676 0.33113 0.0
H264 H -0.00132 0.01413 0.38902 0.0
H265 H 0.97159 0.97221 0.47922 0.0
H266 H 0.0143 0.95783 0.69302 0.0
H267 H -0.00248 0.96494 0.62289 0.0
C268 C 0.21999 0.73098 0.59255 0.0
C269 C 0.22373 0.71368 0.59654 0.0
C270 C 0.22507 0.74304 0.6289 0.0
C271 C 0.23947 0.74623 0.75669 0.0
H272 H 0.25871 0.79282 0.71971 0.0
C273 C 0.27315 0.79428 0.89456 0.0
C274 C 0.26742 0.81089 0.89477 0.0
C275 C 0.2688 0.78281 0.85637 0.0
C276 C 0.25329 0.77988 0.73052 0.0
H277 H 0.2355 0.6954 0.64218 0.0
H278 H 0.24457 0.7164 0.70485 0.0
H279 H 0.24815 0.77189 0.65747 0.0
H280 H 0.25344 0.82883 0.85393 0.0
H281 H 0.24598 0.80883 0.7872 0.0
H282 H 0.24477 0.75418 0.82968 0.0
C283 C 0.23747 0.72065 0.67416 0.0
C284 C 0.24715 0.76792 0.69495 0.0
C285 C 0.23232 0.70861 0.63803 0.0
C286 C 0.25802 0.8161 0.8549 0.0
C287 C 0.25379 0.80468 0.81657 0.0
C288 C 0.24572 0.75814 0.79216 0.0
C289 C 0.23405 0.73805 0.66987 0.0
C290 C 0.24018 0.75094 0.70764 0.0
C291 C 0.25878 0.78778 0.8175 0.0
C292 C 0.2527 0.77507 0.77945 0.0
H293 H 0.21335 0.73528 0.56108 0.0
H294 H 0.22199 0.75628 0.62485 0.0
H295 H 0.2339 0.73338 0.76782 0.0
H296 H 0.28043 0.78988 0.92468 0.0
H297 H 0.27302 0.76993 0.85764 0.0
C298 C 0.46781 0.05686 0.177 0.0
C299 C 0.44959 0.05467 0.17318 0.0
C300 C 0.47812 0.05249 0.13844 0.0
C301 C 0.47542 0.02307 0.03418 0.0
H302 H 0.52032 0.04757 0.00123 0.0
C303 C 0.51702 0.00365 0.87345 0.0
C304 C 0.53512 0.00507 0.88015 0.0
C305 C 0.50627 0.00955 0.90898 0.0
C306 C 0.50788 0.04048 0.01042 0.0
H307 H 0.42796 0.04751 0.12456 0.0
H308 H 0.44597 0.04017 0.05716 0.0
H309 H 0.50213 0.05993 0.06115 0.0
H310 H 0.55604 0.01291 0.93048 0.0
H311 H 0.53727 0.02292 0.99263 0.0
H312 H 0.48122 0.00356 0.98376 0.0
C313 C 0.45226 0.04485 0.09035 0.0
C314 C 0.49745 0.0476 0.0446 0.0
C315 C 0.44196 0.04921 0.12887 0.0
C316 C 0.54216 0.01174 0.92402 0.0
C317 C 0.53143 0.01763 0.95949 0.0
C318 C 0.48585 0.01595 1e-05 0.0
C319 C 0.47041 0.04589 0.09527 0.0
C320 C 0.48114 0.03893 0.05701 0.0
C321 C 0.51342 0.01697 0.95191 0.0
C322 C 0.50224 0.02453 0.98799 0.0
H323 H 0.47411 0.06104 0.21062 0.0
H324 H 0.49207 0.05338 0.14344 0.0
H325 H 0.46305 0.0159 0.04362 0.0
H326 H 0.51119 -0.00139 0.84003 0.0
H327 H 0.49245 0.00893 0.90198 0.0
C328 C 0.26084 0.80648 0.13608 0.0
C329 C 0.24983 0.80238 0.09636 0.0
C330 C 0.26223 0.79432 0.17272 0.0
C331 C 0.25427 0.74726 0.19923 0.0
H332 H 0.25465 0.7627 0.3325 0.0
C333 C 0.23968 0.70089 0.36029 0.0
C334 C 0.24907 0.70437 0.40331 0.0
C335 C 0.24203 0.71231 0.32127 0.0
C336 C 0.25486 0.75823 0.29547 0.0
H337 H 0.23159 0.78234 0.06402 0.0
H338 H 0.23379 0.76123 0.12844 0.0
H339 H 0.25387 0.78389 0.26773 0.0
H340 H 0.26882 0.72218 0.43842 0.0
H341 H 0.27294 0.74214 0.37001 0.0
H342 H 0.25488 0.72153 0.22717 0.0
C343 C 0.24157 0.77374 0.13084 0.0
C344 C 0.25438 0.77036 0.25834 0.0
C345 C 0.24021 0.78589 0.09411 0.0
C346 C 0.26135 0.71917 0.40583 0.0
C347 C 0.26364 0.73065 0.36679 0.0
C348 C 0.25471 0.73512 0.23639 0.0
C349 C 0.25262 0.77782 0.17051 0.0
C350 C 0.25389 0.765 0.20982 0.0
C351 C 0.25377 0.72748 0.32446 0.0
C352 C 0.25482 0.74046 0.2849 0.0
H353 H 0.26853 0.81904 0.13875 0.0
H354 H 0.27101 0.79779 0.2025 0.0
H355 H 0.25423 0.74277 0.16219 0.0
H356 H 0.23015 0.68957 0.35714 0.0
H357 H 0.23412 0.70959 0.28932 0.0
C358 C 0.46052 0.01555 0.37154 0.0
C359 C 0.4479 0.02727 0.37086 0.0
C360 C 0.4724 0.01578 0.40957 0.0
C361 C 0.47939 0.03027 0.53572 0.0
H362 H 0.52777 0.02588 0.5074 0.0
C363 C 0.5327 0.03962 0.68194 0.0
C364 C 0.5446 0.02718 0.68263 0.0
C365 C 0.52128 0.04039 0.64309 0.0
C366 C 0.51428 0.02699 0.5159 0.0
H367 H 0.43777 0.04833 0.40975 0.0
H368 H 0.45857 0.0488 0.47576 0.0
H369 H 0.50679 0.02526 0.44153 0.0
H370 H 0.55413 0.00605 0.6426 0.0
H371 H 0.53418 0.00734 0.57517 0.0
H372 H 0.48687 0.03194 0.6101 0.0
C373 C 0.45917 0.03931 0.4472 0.0
C374 C 0.50226 0.02659 0.47821 0.0
C375 C 0.4473 0.03909 0.40922 0.0
C376 C 0.54512 0.0158 0.64321 0.0
C377 C 0.53375 0.0166 0.60439 0.0
C378 C 0.49141 0.03068 0.57341 0.0
C379 C 0.4719 0.02771 0.4477 0.0
C380 C 0.48467 0.02817 0.48773 0.0
C381 C 0.52159 0.02878 0.60412 0.0
C382 C 0.50897 0.02898 0.56391 0.0
H383 H 0.4613 0.00625 0.34259 0.0
H384 H 0.48191 0.00652 0.40928 0.0
H385 H 0.46588 0.03128 0.54429 0.0
H386 H 0.532 0.04859 0.71172 0.0
H387 H 0.51219 0.05006 0.64359 0.0
C388 C 0.22462 0.21623 0.62992 0.0
C389 C 0.23704 0.21878 0.59284 0.0
C390 C 0.22381 0.22874 0.66593 0.0
C391 C 0.23669 0.27516 0.69294 0.0
H392 H 0.2294 0.26029 0.82582 0.0
C393 C 0.24814 0.32156 0.85577 0.0
C394 C 0.23661 0.31912 0.89503 0.0
C395 C 0.24679 0.30995 0.81703 0.0
C396 C 0.23118 0.26465 0.7888 0.0
H397 H 0.25844 0.23641 0.56464 0.0
H398 H 0.25721 0.25814 0.62802 0.0
H399 H 0.2303 0.23858 0.76244 0.0
H400 H 0.21421 0.30296 0.92355 0.0
H401 H 0.21181 0.28271 0.85564 0.0
H402 H 0.23782 0.30126 0.71958 0.0
C403 C 0.24791 0.24658 0.62878 0.0
C404 C 0.23172 0.25221 0.75248 0.0
C405 C 0.24871 0.23407 0.59268 0.0
C406 C 0.22333 0.30516 0.89394 0.0
C407 C 0.22202 0.29351 0.85522 0.0
C408 C 0.23618 0.28761 0.72931 0.0
C409 C 0.23543 0.24407 0.66574 0.0
C410 C 0.23457 0.25732 0.70417 0.0
C411 C 0.23392 0.29562 0.81674 0.0
C412 C 0.23351 0.28248 0.77766 0.0
H413 H 0.21537 0.20464 0.63096 0.0
H414 H 0.2139 0.22651 0.69353 0.0
H415 H 0.23861 0.27951 0.65596 0.0
H416 H 0.25851 0.3322 0.85546 0.0
H417 H 0.25624 0.31184 0.78813 0.0
C418 C 0.04509 0.01117 0.91656 0.0
C419 C 0.04379 -0.00143 0.87982 0.0
C420 C 0.03067 0.01354 0.94518 0.0
C421 C 0.98872 0.99094 0.98554 0.0
H422 H 0.97959 0.0372 0.02456 0.0
C423 C 0.92929 0.00251 0.10237 0.0
C424 C 0.93305 0.01369 0.14189 0.0
C425 C 0.94163 0.00139 0.06592 0.0
C426 C 0.98202 0.0242 0.01405 0.0
H427 H 0.02627 0.97874 0.84384 0.0
H428 H 0.00116 0.98301 0.89341 0.0
H429 H 0.00369 0.03376 0.96987 0.0
H430 H 0.95244 0.03289 0.17338 0.0
H431 H 0.97387 0.03085 0.11021 0.0
H432 H 0.96721 0.98136 0.03023 0.0
C433 C 0.01336 0.99088 0.9006 0.0
C434 C -0.00416 0.02223 0.98288 0.0
C435 C 0.02776 0.98849 0.87208 0.0
C436 C 0.94914 0.02409 0.1435 0.0
C437 C 0.9614 0.02303 0.10708 0.0
C438 C 0.97489 0.99291 0.01664 0.0
C439 C 0.01466 0.00338 0.93758 0.0
C440 C -0.00052 0.00556 0.96877 0.0
C441 C 0.95788 0.01152 0.06821 0.0
C442 C 0.97154 0.00955 0.03174 0.0
H443 H 0.05726 0.01914 0.92345 0.0
H444 H 0.03216 0.02313 0.97382 0.0
H445 H 0.99131 0.97791 0.97583 0.0
H446 H 0.91699 0.99437 0.10005 0.0
H447 H 0.93851 0.99252 0.03611 0.0
C448 C 0.75827 0.71625 0.88624 0.0
C449 C 0.74719 0.70082 0.87833 0.0
C450 C 0.75916 0.72981 0.85292 0.0
C451 C 0.74954 0.74026 0.72647 0.0
H452 H 0.75089 0.78729 0.77628 0.0
C453 C 0.73861 0.79911 0.60715 0.0
C454 C 0.74918 0.81484 0.61536 0.0
C455 C 0.73933 0.78496 0.63799 0.0
C456 C 0.75076 0.77426 0.76183 0.0
H457 H 0.72852 0.68745 0.82884 0.0
H458 H 0.7299 0.71135 0.77065 0.0
H459 H 0.74988 0.76292 0.83225 0.0
H460 H 0.76902 0.82795 0.66197 0.0
H461 H 0.77028 0.80314 0.71604 0.0
H462 H 0.7502 0.75167 0.65596 0.0
C463 C 0.73805 0.71282 0.80252 0.0
C464 C 0.75016 0.76029 0.79386 0.0
C465 C 0.73718 0.69917 0.83593 0.0
C466 C 0.76068 0.81603 0.65477 0.0
C467 C 0.76133 0.80186 0.68583 0.0
C468 C 0.75009 0.75426 0.69439 0.0
C469 C 0.74895 0.72834 0.81091 0.0
C470 C 0.74954 0.74313 0.77657 0.0
C471 C 0.75059 0.78622 0.67787 0.0
C472 C 0.75068 0.7714 0.71176 0.0
H473 H 0.76629 0.71792 0.91833 0.0
H474 H 0.76793 0.74146 0.86003 0.0
H475 H 0.74932 0.72723 0.71203 0.0
H476 H 0.72962 0.79773 0.57704 0.0
H477 H 0.73074 0.77316 0.63123 0.0
C478 C 0.72522 0.30648 0.39486 0.0
C479 C 0.7353 0.32258 0.38811 0.0
C480 C 0.7254 0.29327 0.36073 0.0
C481 C 0.73669 0.28462 0.23407 0.0
H482 H 0.73871 0.23768 0.2814 0.0
C483 C 0.75464 0.22856 0.1137 0.0
C484 C 0.74535 0.21204 0.12014 0.0
C485 C 0.75209 0.24222 0.14483 0.0
C486 C 0.73789 0.25067 0.26762 0.0
H487 H 0.75333 0.33751 0.3399 0.0
H488 H 0.75388 0.31425 0.28044 0.0
H489 H 0.73713 0.26134 0.33864 0.0
H490 H 0.72583 0.19696 0.16373 0.0
H491 H 0.72137 0.2209 0.2183 0.0
H492 H 0.73777 0.2739 0.16298 0.0
C493 C 0.74564 0.31197 0.31192 0.0
C494 C 0.737 0.26424 0.30038 0.0
C495 C 0.7454 0.32526 0.34608 0.0
C496 C 0.73322 0.20953 0.15793 0.0
C497 C 0.73073 0.2232 0.18927 0.0
C498 C 0.73765 0.27104 0.20127 0.0
C499 C 0.73574 0.29578 0.31911 0.0
C500 C 0.73644 0.28138 0.28401 0.0
C501 C 0.74023 0.23965 0.1832 0.0
C502 C 0.73834 0.25394 0.21774 0.0
H503 H 0.71717 0.30402 0.42666 0.0
H504 H 0.71739 0.28107 0.36693 0.0
H505 H 0.73601 0.29763 0.22031 0.0
H506 H 0.76406 0.23095 0.08485 0.0
H507 H 0.75975 0.25468 0.13957 0.0
C508 C 0.78456 0.23806 0.90698 0.0
C509 C 0.779 0.22014 0.90517 0.0
C510 C 0.78028 0.24902 0.86984 0.0
C511 C 0.76329 0.24989 0.74486 0.0
H512 H 0.74374 0.29108 0.78957 0.0
C513 C 0.7234 0.28961 0.61974 0.0
C514 C 0.72713 0.3078 0.62177 0.0
C515 C 0.73013 0.27912 0.65446 0.0
C516 C 0.74933 0.27974 0.77645 0.0
H517 H 0.76568 0.1995 0.86138 0.0
H518 H 0.75817 0.21862 0.79685 0.0
H519 H 0.75658 0.27258 0.84754 0.0
H520 H 0.74034 0.32927 0.6628 0.0
H521 H 0.75211 0.31095 0.7232 0.0
H522 H 0.75586 0.25699 0.67377 0.0
C523 C 0.76585 0.22422 0.82686 0.0
C524 C 0.75675 0.26918 0.80962 0.0
C525 C 0.77011 0.21326 0.86398 0.0
C526 C 0.73719 0.3153 0.66023 0.0
C527 C 0.74391 0.3048 0.69493 0.0
C528 C 0.75586 0.26047 0.71166 0.0
C529 C 0.77042 0.24228 0.83013 0.0
C530 C 0.76372 0.25409 0.79423 0.0
C531 C 0.7407 0.28659 0.69194 0.0
C532 C 0.74869 0.27544 0.72716 0.0
H533 H 0.79154 0.24376 0.93806 0.0
H534 H 0.78427 0.26286 0.87287 0.0
H535 H 0.76871 0.23844 0.73187 0.0
H536 H 0.71564 0.28343 0.59065 0.0
H537 H 0.72717 0.26513 0.65173 0.0
C538 C 0.74828 0.70977 0.14927 0.0
C539 C 0.75832 0.71596 0.10929 0.0
C540 C 0.74327 0.72131 0.18396 0.0
C541 C 0.75346 0.76584 0.23155 0.0
H542 H 0.70591 0.75895 0.27817 0.0
C543 C 0.72671 0.81597 0.35488 0.0
C544 C 0.71817 0.80917 0.39667 0.0
C545 C 0.73008 0.80502 0.31683 0.0
C546 C 0.71924 0.76098 0.26565 0.0
H547 H 0.77142 0.73906 0.07514 0.0
H548 H 0.7626 0.7592 0.13555 0.0
H549 H 0.71582 0.7387 0.21937 0.0
H550 H 0.70544 0.78571 0.42994 0.0
H551 H 0.7114 0.76658 0.36354 0.0
H552 H 0.75694 0.78804 0.27795 0.0
C553 C 0.7587 0.74541 0.14025 0.0
C554 C 0.72494 0.74936 0.23215 0.0
C555 C 0.76372 0.73387 0.10556 0.0
C556 C 0.71209 0.79136 0.3983 0.0
C557 C 0.71546 0.78039 0.36018 0.0
C558 C 0.74776 0.77746 0.26495 0.0
C559 C 0.7482 0.73929 0.17942 0.0
C560 C 0.74214 0.75163 0.21491 0.0
C561 C 0.72497 0.78704 0.31974 0.0
C562 C 0.73061 0.77513 0.28246 0.0
H563 H 0.74396 0.69603 0.1533 0.0
H564 H 0.73545 0.71617 0.21422 0.0
H565 H 0.76685 0.76781 0.21947 0.0
H566 H 0.73143 0.82967 0.35229 0.0
H567 H 0.73712 0.81055 0.28565 0.0
C568 C 0.51427 0.48858 0.14178 0.0
C569 C 0.53248 0.49076 0.13782 0.0
C570 C 0.50395 0.49395 0.10452 0.0
C571 C 0.50677 0.52568 0.00539 0.0
H572 H 0.4616 0.50232 0.97012 0.0
C573 C 0.46588 0.54635 0.84485 0.0
C574 C 0.44773 0.54478 0.85056 0.0
C575 C 0.47644 0.54072 0.8812 0.0
C576 C 0.4741 0.5091 0.98009 0.0
H577 H 0.5541 0.49894 0.09006 0.0
H578 H 0.53606 0.50798 0.0247 0.0
H579 H 0.47967 0.48863 0.02761 0.0
H580 H 0.42655 0.53731 0.90039 0.0
H581 H 0.44502 0.5277 0.96394 0.0
H582 H 0.50119 0.54613 0.95773 0.0
C583 C 0.52978 0.50257 0.05715 0.0
C584 C 0.48447 0.50122 0.01285 0.0
C585 C 0.5401 0.49724 0.09444 0.0
C586 C 0.44048 0.53858 0.89466 0.0
C587 C 0.45103 0.53292 0.93092 0.0
C588 C 0.49641 0.53354 0.97255 0.0
C589 C 0.51164 0.50154 0.06247 0.0
C590 C 0.50091 0.50943 0.02594 0.0
C591 C 0.46905 0.53342 0.92393 0.0
C592 C 0.47994 0.52536 0.95969 0.0
H593 H 0.50798 0.48362 0.1747 0.0
H594 H 0.49002 0.49302 0.10982 0.0
H595 H 0.51923 0.53251 0.01547 0.0
H596 H 0.4719 0.5511 0.81137 0.0
H597 H 0.49029 0.54125 0.87474 0.0
C598 C 0.04888 0.48827 0.40045 0.0
C599 C 0.04137 0.47884 0.3608 0.0
C600 C 0.03842 0.49376 0.43722 0.0
C601 C -0.00554 0.50548 0.45443 0.0
H602 H 0.00536 0.50468 0.59097 0.0
C603 C 0.94641 0.52155 0.60192 0.0
C604 C 0.95302 0.52975 0.6444 0.0
C605 C 0.95765 0.51661 0.5664 0.0
C606 C 0.0023 0.50527 0.55289 0.0
H607 H 0.01712 0.46678 0.33039 0.0
H608 H -0.00109 0.47631 0.39475 0.0
H609 H 0.02402 0.49186 0.53309 0.0
H610 H 0.97659 0.54021 0.68151 0.0
H611 H -0.00378 0.5319 0.61888 0.0
H612 H 0.97287 0.519 0.47391 0.0
C613 C 0.01285 0.47968 0.39688 0.0
C614 C 0.01293 0.49783 0.51984 0.0
C615 C 0.02331 0.4741 0.36026 0.0
C616 C 0.97108 0.53381 0.64932 0.0
C617 C 0.98234 0.52891 0.61366 0.0
C618 C 0.98391 0.51301 0.48738 0.0
C619 C 0.02026 0.49 0.43494 0.0
C620 C 0.00901 0.49772 0.47033 0.0
C621 C 0.97575 0.51984 0.5724 0.0
C622 C 0.98762 0.51288 0.53704 0.0
H623 H 0.06276 0.4921 0.40202 0.0
H624 H 0.04447 0.50171 0.46611 0.0
H625 H 0.99135 0.50593 0.41634 0.0
H626 H 0.93255 0.51822 0.59697 0.0
H627 H 0.95212 0.50953 0.53529 0.0
C628 C 0.05083 0.49749 0.07476 0.0
C629 C 0.0487 0.48965 0.12042 0.0
C630 C 0.03709 0.49616 0.04178 0.0
C631 C 0.98935 0.48851 0.03662 0.0
H632 H -0.00261 0.48373 0.89932 0.0
C633 C 0.93388 0.48635 0.89575 0.0
C634 C 0.93752 0.49748 0.85605 0.0
C635 C 0.94716 0.48299 0.92751 0.0
C636 C -0.00504 0.48509 0.93758 0.0
H637 H 0.03064 0.47389 0.16689 0.0
H638 H 0.00677 0.47142 0.10914 0.0
H639 H 0.02136 0.4823 0.95584 0.0
H640 H 0.95799 0.51347 0.81789 0.0
H641 H 0.98099 0.50765 0.87313 0.0
H642 H 0.96301 0.49159 0.01822 0.0
C643 C 0.01896 0.47882 0.0991 0.0
C644 C 0.00869 0.48432 0.9699 0.0
C645 C 0.03267 0.48018 0.13208 0.0
C646 C 0.95472 0.50487 0.84821 0.0
C647 C 0.96795 0.50143 0.87964 0.0
C648 C 0.97561 0.48923 0.00428 0.0
C649 C 0.02096 0.48693 0.05375 0.0
C650 C 0.00611 0.48634 0.01971 0.0
C651 C 0.96432 0.49056 0.91979 0.0
C652 C 0.97837 0.48786 0.95437 0.0
H653 H 0.063 0.50491 0.06472 0.0
H654 H 0.03898 0.50276 0.00737 0.0
H655 H 0.98698 0.49031 0.07474 0.0
H656 H 0.92075 0.48045 0.90268 0.0
H657 H 0.94402 0.47447 0.95807 0.0
C658 C 0.44509 0.5415 0.62151 0.0
C659 C 0.43107 0.52828 0.62007 0.0
C660 C 0.45795 0.5425 0.58605 0.0
C661 C 0.46773 0.5277 0.46333 0.0
H662 H 0.51558 0.53538 0.50718 0.0
C663 C 0.52538 0.51277 0.34568 0.0
C664 C 0.54085 0.52418 0.34761 0.0
C665 C 0.51164 0.51492 0.37679 0.0
C666 C 0.5023 0.53351 0.49424 0.0
H667 H 0.41932 0.50598 0.57962 0.0
H668 H 0.44194 0.50762 0.51782 0.0
H669 H 0.49203 0.53594 0.56525 0.0
H670 H 0.55388 0.547 0.38316 0.0
H671 H 0.52974 0.55081 0.43762 0.0
H672 H 0.47805 0.52499 0.39238 0.0
C673 C 0.44286 0.51732 0.5462 0.0
C674 C 0.4888 0.53381 0.5275 0.0
C675 C 0.42996 0.51632 0.58172 0.0
C676 C 0.54216 0.53796 0.38091 0.0
C677 C 0.52838 0.5401 0.4122 0.0
C678 C 0.48125 0.5274 0.43004 0.0
C679 C 0.45711 0.5303 0.54835 0.0
C680 C 0.47137 0.53075 0.51249 0.0
C681 C 0.51301 0.52852 0.41062 0.0
C682 C 0.49867 0.53011 0.44524 0.0
H683 H 0.44629 0.55102 0.65037 0.0
H684 H 0.46861 0.55282 0.58827 0.0
H685 H 0.45444 0.52556 0.45058 0.0
H686 H 0.52392 0.502 0.32042 0.0
H687 H 0.50009 0.50563 0.37513 0.0
C688 C 0.14321 0.46921 0.25162 0.0
C689 C 0.12603 0.46561 0.23498 0.0
C690 C 0.15635 0.46006 0.23327 0.0
C691 C 0.16362 0.42004 0.16621 0.0
H692 H 0.2082 0.44573 0.13532 0.0
C693 C 0.21497 0.3902 0.05254 0.0
C694 C 0.23209 0.39245 0.07025 0.0
C695 C 0.20227 0.39953 0.07248 0.0
C696 C 0.19586 0.43837 0.14413 0.0
H697 H 0.10913 0.4494 0.18656 0.0
H698 H 0.13202 0.43369 0.15418 0.0
H699 H 0.18552 0.4608 0.17243 0.0
H700 H 0.24944 0.40666 0.1217 0.0
H701 H 0.22725 0.42297 0.15636 0.0
H702 H 0.17391 0.39766 0.13739 0.0
C703 C 0.13534 0.44338 0.18189 0.0
C704 C 0.18289 0.44698 0.16554 0.0
C705 C 0.12221 0.45246 0.20031 0.0
C706 C 0.23636 0.40461 0.10729 0.0
C707 C 0.22368 0.41401 0.12703 0.0
C708 C 0.17655 0.41147 0.1446 0.0
C709 C 0.15258 0.44716 0.19784 0.0
C710 C 0.1666 0.43792 0.17666 0.0
C711 C 0.20645 0.41137 0.11032 0.0
C712 C 0.19277 0.42056 0.13317 0.0
H713 H 0.14656 0.47922 0.27844 0.0
H714 H 0.16946 0.46311 0.24684 0.0
H715 H 0.15133 0.41262 0.17506 0.0
H716 H 0.21126 0.38096 0.02395 0.0
H717 H 0.18915 0.39742 0.05841 0.0
C718 C 0.7785 0.88996 0.45722 0.0
C719 C 0.78049 0.87212 0.45786 0.0
C720 C 0.7914 0.90193 0.43746 0.0
C721 C 0.83761 0.90897 0.40596 0.0
H722 H 0.82278 0.94312 0.31697 0.0
C723 C 0.88705 0.95753 0.30516 0.0
C724 C 0.88304 0.97479 0.30255 0.0
C725 C 0.87456 0.94423 0.32067 0.0
C726 C 0.82714 0.93379 0.34209 0.0
H727 H 0.79787 0.85293 0.43983 0.0
H728 H 0.82053 0.87397 0.40573 0.0
H729 H 0.80123 0.92162 0.35332 0.0
H730 H 0.86269 0.99155 0.31312 0.0
H731 H 0.84109 0.9685 0.34097 0.0
H732 H 0.86346 0.92136 0.39573 0.0
C733 C 0.80892 0.87861 0.42038 0.0
C734 C 0.81479 0.92148 0.36285 0.0
C735 C 0.79593 0.86659 0.43979 0.0
C736 C 0.86618 0.97839 0.31456 0.0
C737 C 0.85375 0.96512 0.33031 0.0
C738 C 0.84997 0.92139 0.38549 0.0
C739 C 0.80663 0.89636 0.41831 0.0
C740 C 0.81988 0.90905 0.39532 0.0
C741 C 0.85784 0.94791 0.33409 0.0
C742 C 0.84485 0.93406 0.35363 0.0
H743 H 0.76678 0.89467 0.47095 0.0
H744 H 0.78942 0.91558 0.43698 0.0
H745 H 0.84186 0.8996 0.43114 0.0
H746 H 0.8999 0.95432 0.2959 0.0
H747 H 0.87805 0.93107 0.32238 0.0
C748 C 0.24995 0.62577 0.62688 0.0
C749 C 0.251 0.63291 0.58016 0.0
C750 C 0.26252 0.61553 0.64317 0.0
C751 C 0.29659 0.58945 0.6005 0.0
H752 H 0.31492 0.59684 0.73014 0.0
C753 C 0.35862 0.57133 0.72005 0.0
C754 C 0.35834 0.55367 0.70786 0.0
C755 C 0.34495 0.58065 0.70625 0.0
C756 C 0.30999 0.5947 0.69378 0.0
H757 H 0.26593 0.63472 0.51368 0.0
H758 H 0.28791 0.61697 0.54225 0.0
H759 H 0.29216 0.61375 0.70162 0.0
H760 H 0.34331 0.5318 0.67284 0.0
H761 H 0.31946 0.54797 0.64937 0.0
H762 H 0.31469 0.57073 0.59215 0.0
C763 C 0.27728 0.61913 0.56612 0.0
C764 C 0.29682 0.60423 0.67763 0.0
C765 C 0.26472 0.62937 0.54983 0.0
C766 C 0.34399 0.54543 0.68249 0.0
C767 C 0.33035 0.55472 0.66879 0.0
C768 C 0.30973 0.57992 0.61663 0.0
C769 C 0.27638 0.6122 0.61308 0.0
C770 C 0.29003 0.60175 0.63074 0.0
C771 C 0.33076 0.57247 0.68005 0.0
C772 C 0.31661 0.58246 0.6634 0.0
H773 H 0.23951 0.62821 0.6511 0.0
H774 H 0.26135 0.61017 0.67931 0.0
H775 H 0.29151 0.58712 0.56435 0.0
H776 H 0.36951 0.57805 0.73954 0.0
H777 H 0.34572 0.59435 0.71507 0.0
C778 C 0.7079 0.15561 0.93483 0.0
C779 C 0.72138 0.15222 0.96626 0.0
C780 C 0.69508 0.14231 0.92153 0.0
C781 C 0.67449 0.09899 0.95745 0.0
H782 H 0.66233 0.09439 0.82183 0.0
C783 C 0.63335 0.03825 0.88234 0.0
C784 C 0.62077 0.04082 0.8473 0.0
C785 C 0.64537 0.05205 0.8971 0.0
C786 C 0.6654 0.09562 0.85991 0.0
H787 H 0.73173 0.13232 0.0093 0.0
H788 H 0.70932 0.10911 0.98601 0.0
H789 H 0.68341 0.11831 0.84821 0.0
H790 H 0.61093 0.05988 0.80016 0.0
H791 H 0.63177 0.08402 0.82642 0.0
H792 H 0.65646 0.07634 0.96925 0.0
C793 C 0.70866 0.12207 0.97184 0.0
C794 C 0.67749 0.10932 0.87501 0.0
C795 C 0.72154 0.13535 0.98496 0.0
C796 C 0.62052 0.05746 0.82709 0.0
C797 C 0.63251 0.07128 0.84199 0.0
C798 C 0.66235 0.08533 0.9424 0.0
C799 C 0.6954 0.12537 0.93959 0.0
C800 C 0.68221 0.1111 0.9239 0.0
C801 C 0.64504 0.06874 0.87729 0.0
C802 C 0.65773 0.08344 0.89341 0.0
H803 H 0.70737 0.16848 0.9199 0.0
H804 H 0.68489 0.14528 0.89709 0.0
H805 H 0.67772 0.10017 -0.00454 0.0
H806 H 0.63394 0.02557 0.89845 0.0
H807 H 0.65504 0.04959 0.92376 0.0
C808 C 0.10484 0.54783 0.26634 0.0
C809 C 0.08741 0.54242 0.27796 0.0
C810 C 0.11281 0.56391 0.28229 0.0
C811 C 0.11045 0.59415 0.38199 0.0
H812 H 0.14495 0.62311 0.30775 0.0
C813 C 0.16795 0.63696 0.46671 0.0
C814 C 0.17366 0.65304 0.4452 0.0
C815 C 0.15433 0.62601 0.44629 0.0
C816 C 0.13515 0.61534 0.32878 0.0
H817 H 0.0644 0.55001 0.31338 0.0
H818 H 0.07839 0.57807 0.3414 0.0
H819 H 0.12678 0.59948 0.26791 0.0
H820 H 0.16894 0.67066 0.38688 0.0
H821 H 0.14517 0.65144 0.35112 0.0
H822 H 0.11918 0.60968 0.44317 0.0
C823 C 0.08589 0.5698 0.32023 0.0
C824 C 0.12488 0.60172 0.30605 0.0
C825 C 0.07788 0.55376 0.30398 0.0
C826 C 0.16489 0.65832 0.40422 0.0
C827 C 0.15134 0.6473 0.38358 0.0
C828 C 0.1208 0.60769 0.40478 0.0
C829 C 0.10354 0.57486 0.3104 0.0
C830 C 0.11271 0.59074 0.33267 0.0
C831 C 0.1462 0.63087 0.40381 0.0
C832 C 0.13353 0.61817 0.37864 0.0
H833 H 0.11252 0.53942 0.24623 0.0
H834 H 0.12648 0.56738 0.27452 0.0
H835 H 0.10127 0.58582 0.40353 0.0
H836 H 0.17439 0.63255 0.4984 0.0
H837 H 0.15075 0.61337 0.46247 0.0
C838 C 0.622 0.97715 0.68108 0.0
C839 C 0.61085 0.97464 0.72109 0.0
C840 C 0.63146 0.9639 0.66545 0.0
C841 C 0.64892 0.92418 0.70617 0.0
H842 H 0.65528 0.91749 0.56877 0.0
C843 C 0.68432 0.87761 0.56436 0.0
C844 C 0.70059 0.87796 0.58706 0.0
C845 C 0.67177 0.88755 0.58239 0.0
C846 C 0.65345 0.91899 0.60726 0.0
H847 H 0.60083 0.95621 0.77609 0.0
H848 H 0.61735 0.93292 0.74845 0.0
H849 H 0.63589 0.93809 0.59654 0.0
H850 H 0.71633 0.88873 0.64704 0.0
H851 H 0.69459 0.90628 0.6779 0.0
H852 H 0.66646 0.905 0.71681 0.0
C853 C 0.61885 0.94524 0.72948 0.0
C854 C 0.64251 0.93096 0.62317 0.0
C855 C 0.60935 0.95854 0.74518 0.0
C856 C 0.70392 0.88816 0.6287 0.0
C857 C 0.6914 0.89813 0.64664 0.0
C858 C 0.65987 0.91216 0.69023 0.0
C859 C 0.62998 0.94779 0.68936 0.0
C860 C 0.64037 0.93393 0.67277 0.0
C861 C 0.67524 0.89807 0.62343 0.0
C862 C 0.66248 0.90965 0.64058 0.0
H863 H 0.62352 0.98941 0.6618 0.0
H864 H 0.64016 0.9664 0.635 0.0
H865 H 0.64761 0.92623 0.74462 0.0
H866 H 0.68131 0.86977 0.53239 0.0
H867 H 0.65936 0.88704 0.56407 0.0
C868 C 0.40332 0.46669 0.78651 0.0
C869 C 0.39576 0.48225 0.79278 0.0
C870 C 0.39612 0.45136 0.80921 0.0
C871 C 0.37066 0.43604 0.91398 0.0
H872 H 0.35168 0.39635 0.83773 0.0
C873 C 0.3129 0.38966 0.97765 0.0
C874 C 0.3109 0.3722 0.96271 0.0
C875 C 0.32701 0.40102 0.96181 0.0
C876 C 0.35728 0.40709 0.85986 0.0
H877 H 0.37482 0.49397 0.82773 0.0
H878 H 0.36258 0.4674 0.86782 0.0
H879 H 0.36978 0.42031 0.79893 0.0
H880 H 0.3227 0.3527 0.92169 0.0
H881 H 0.34756 0.37257 0.89448 0.0
H882 H 0.35801 0.42316 0.97473 0.0
C883 C 0.37398 0.46704 0.84528 0.0
C884 C 0.36759 0.42081 0.83752 0.0
C885 C 0.38091 0.4822 0.82197 0.0
C886 C 0.32382 0.36612 0.93358 0.0
C887 C 0.33801 0.37751 0.91778 0.0
C888 C 0.36058 0.42226 0.93643 0.0
C889 C 0.38155 0.45153 0.83931 0.0
C890 C 0.37376 0.43566 0.86411 0.0
C891 C 0.33955 0.39519 0.93087 0.0
C892 C 0.35315 0.40796 0.90925 0.0
H893 H 0.41476 0.46637 0.76416 0.0
H894 H 0.40208 0.43948 0.80398 0.0
H895 H 0.3755 0.44731 0.93525 0.0
H896 H 0.30322 0.39477 0.00016 0.0
H897 H 0.32758 0.41458 0.97207 0.0
C898 C 0.79981 0.14766 0.14496 0.0
C899 C 0.80227 0.15751 0.10241 0.0
C900 C 0.81374 0.14063 0.16655 0.0
C901 C 0.85656 0.12715 0.13747 0.0
H902 H 0.85968 0.12223 0.27649 0.0
C903 C 0.90818 0.08906 0.22312 0.0
C904 C 0.90114 0.07595 0.25489 0.0
C905 C 0.89842 0.10239 0.20939 0.0
C906 C 0.859 0.12357 0.23763 0.0
H907 H 0.82136 0.16813 0.04983 0.0
H908 H 0.84575 0.15603 0.08793 0.0
H909 H 0.83806 0.13936 0.24206 0.0
H910 H 0.87891 0.06721 0.29987 0.0
H911 H 0.86194 0.09043 0.27588 0.0
H912 H 0.87721 0.11104 0.13297 0.0
C913 C 0.83299 0.15351 0.10415 0.0
C914 C 0.84659 0.13331 0.21789 0.0
C915 C 0.81902 0.16047 0.08239 0.0
C916 C 0.88465 0.07706 0.27507 0.0
C917 C 0.87496 0.09044 0.26158 0.0
C918 C 0.86902 0.1175 0.15721 0.0
C919 C 0.83047 0.14337 0.14625 0.0
C920 C 0.84495 0.13484 0.16753 0.0
C921 C 0.88154 0.10293 0.22749 0.0
C922 C 0.87009 0.11527 0.20742 0.0
H923 H 0.78706 0.14512 0.16126 0.0
H924 H 0.81127 0.13263 0.19845 0.0
H925 H 0.85552 0.12786 0.09854 0.0
H926 H 0.92089 0.08862 0.20714 0.0
H927 H 0.90388 0.11198 0.18348 0.0
C928 C 0.81792 0.66453 0.94134 0.0
C929 C 0.80473 0.65829 0.97385 0.0
C930 C 0.83048 0.65394 0.92706 0.0
C931 C 0.84979 0.6136 0.95701 0.0
H932 H 0.85549 0.60998 0.81837 0.0
C933 C 0.87411 0.55393 0.86732 0.0
C934 C 0.88484 0.55635 0.82642 0.0
C935 C 0.8668 0.56792 0.88767 0.0
C936 C 0.85434 0.61104 0.8572 0.0
H937 H 0.79493 0.6364 0.0189 0.0
H938 H 0.8168 0.61795 0.99393 0.0
H939 H 0.8388 0.63213 0.85122 0.0
H940 H 0.89661 0.57542 0.77532 0.0
H941 H 0.88393 0.59992 0.81121 0.0
H942 H 0.86504 0.59227 0.96293 0.0
C943 C 0.81748 0.63103 0.97956 0.0
C944 C 0.84477 0.62374 0.87603 0.0
C945 C 0.80487 0.64157 0.99363 0.0
C946 C 0.8883 0.57312 0.80667 0.0
C947 C 0.881 0.58714 0.82714 0.0
C948 C 0.85942 0.60093 0.93819 0.0
C949 C 0.83017 0.63695 0.9453 0.0
C950 C 0.8421 0.62492 0.92606 0.0
C951 C 0.87008 0.58467 0.86771 0.0
C952 C 0.86147 0.59927 0.88801 0.0
H953 H 0.81821 0.67738 0.9256 0.0
H954 H 0.84024 0.65891 0.90101 0.0
H955 H 0.84815 0.61437 -0.00424 0.0
H956 H 0.87116 0.54117 0.88339 0.0
H957 H 0.85821 0.56549 0.91839 0.0
C958 C 0.1857 0.12695 0.55189 0.0
C959 C 0.17984 0.14334 0.54535 0.0
C960 C 0.17483 0.11326 0.57219 0.0
C961 C 0.13549 0.1044 0.648 0.0
H962 H 0.13792 0.05696 0.6054 0.0
C963 C 0.08825 0.04522 0.7116 0.0
C964 C 0.09587 0.03015 0.72388 0.0
C965 C 0.09825 0.05947 0.69087 0.0
C966 C 0.13722 0.07014 0.6179 0.0
H967 H 0.15779 0.15808 0.55365 0.0
H968 H 0.1386 0.134 0.58795 0.0
H969 H 0.15516 0.08082 0.56424 0.0
H970 H 0.12002 0.01836 0.72518 0.0
H971 H 0.13742 0.04322 0.68864 0.0
H972 H 0.11727 0.09358 0.70122 0.0
C973 C 0.15176 0.13186 0.57843 0.0
C974 C 0.1471 0.08381 0.59439 0.0
C975 C 0.16271 0.14562 0.55844 0.0
C976 C 0.11376 0.02977 0.71608 0.0
C977 C 0.1237 0.04394 0.69489 0.0
C978 C 0.12546 0.0907 0.67121 0.0
C979 C 0.15776 0.11556 0.58604 0.0
C980 C 0.14651 0.10111 0.60945 0.0
C981 C 0.116 0.05884 0.68156 0.0
C982 C 0.12637 0.07344 0.65666 0.0
H983 H 0.19887 0.12477 0.54249 0.0
H984 H 0.18 0.101 0.5782 0.0
H985 H 0.1349 0.11752 0.66105 0.0
H986 H 0.0745 0.04592 0.71727 0.0
H987 H 0.09198 0.07078 0.68076 0.0
C988 C 0.67399 0.37539 0.48904 0.0
C989 C 0.68651 0.38314 0.5215 0.0
C990 C 0.66108 0.38482 0.47088 0.0
C991 C 0.63938 0.42465 0.48724 0.0
H992 H 0.63512 0.4227 0.34772 0.0
C993 C 0.61054 0.47757 0.37717 0.0
C994 C 0.60045 0.47258 0.33629 0.0
C995 C 0.61904 0.46541 0.40241 0.0
C996 C 0.63588 0.42319 0.38676 0.0
H997 H 0.69468 0.40653 0.56257 0.0
H998 H 0.67217 0.42303 0.5306 0.0
H999 H 0.65304 0.4034 0.38884 0.0
H1000 H 0.59105 0.45082 0.29033 0.0
H1001 H 0.60576 0.42949 0.33481 0.0
H1002 H 0.6224 0.44466 0.48501 0.0
C1003 C 0.67231 0.40963 0.51936 0.0
C1004 C 0.64616 0.41212 0.41034 0.0
C1005 C 0.68526 0.4002 0.53751 0.0
C1006 C 0.59884 0.45509 0.32151 0.0
C1007 C 0.60731 0.44289 0.3469 0.0
C1008 C 0.62902 0.43569 0.46364 0.0
C1009 C 0.66039 0.40218 0.48487 0.0
C1010 C 0.64821 0.4129 0.46075 0.0
C1011 C 0.61759 0.44794 0.38748 0.0
C1012 C 0.62738 0.43527 0.41305 0.0
H1013 H 0.67448 0.36221 0.47632 0.0
H1014 H 0.65188 0.37865 0.44497 0.0
H1015 H 0.64056 0.42539 0.52618 0.0
H1016 H 0.61208 0.49095 0.38947 0.0
H1017 H 0.62709 0.4698 0.43299 0.0
C1018 C 0.39855 0.98314 0.16723 0.0
C1019 C 0.39233 0.99225 0.20631 0.0
C1020 C 0.38895 0.96814 0.14946 0.0
C1021 C 0.35421 0.93348 0.18043 0.0
H1022 H 0.34807 0.92972 0.04163 0.0
C1023 C 0.30539 0.89273 0.03813 0.0
C1024 C 0.30554 0.87576 0.05613 0.0
C1025 C 0.3173 0.90626 0.05507 0.0
C1026 C 0.34967 0.9306 0.08044 0.0
H1027 H 0.37135 0.99253 0.25817 0.0
H1028 H 0.35457 0.96627 0.22702 0.0
H1029 H 0.36615 0.95467 0.07553 0.0
H1030 H 0.31864 0.85958 0.10499 0.0
H1031 H 0.33945 0.88326 0.13453 0.0
H1032 H 0.33743 0.90958 0.18536 0.0
C1033 C 0.36692 0.97073 0.21032 0.0
C1034 C 0.36013 0.94479 0.09983 0.0
C1035 C 0.37649 0.98581 0.22799 0.0
C1036 C 0.31816 0.87252 0.09046 0.0
C1037 C 0.33 0.88608 0.10762 0.0
C1038 C 0.34384 0.91923 0.16101 0.0
C1039 C 0.37297 0.96187 0.17052 0.0
C1040 C 0.3624 0.94645 0.15004 0.0
C1041 C 0.32955 0.90312 0.09052 0.0
C1042 C 0.34134 0.91773 0.11085 0.0
H1043 H 0.41073 0.98771 0.1498 0.0
H1044 H 0.39403 0.96145 0.11913 0.0
H1045 H 0.35585 0.93435 0.21924 0.0
H1046 H 0.29584 0.89566 0.01163 0.0
H1047 H 0.31655 0.9193 0.04151 0.0
C1048 C 0.79317 0.37147 0.54179 0.0
C1049 C 0.77626 0.37625 0.5374 0.0
C1050 C 0.80688 0.38365 0.55637 0.0
C1051 C 0.81958 0.43108 0.57273 0.0
H1052 H 0.85153 0.41571 0.6673 0.0
C1053 C 0.86517 0.47901 0.68648 0.0
C1054 C 0.88253 0.47549 0.69063 0.0
C1055 C 0.85266 0.46673 0.66617 0.0
C1056 C 0.84282 0.42015 0.64056 0.0
H1057 H 0.76056 0.3977 0.54343 0.0
H1058 H 0.78434 0.41882 0.56965 0.0
H1059 H 0.82911 0.39474 0.63243 0.0
H1060 H 0.90031 0.4562 0.67768 0.0
H1061 H 0.87838 0.43471 0.64253 0.0
H1062 H 0.8331 0.45658 0.58181 0.0
C1063 C 0.78712 0.40575 0.56117 0.0
C1064 C 0.83001 0.40813 0.6204 0.0
C1065 C 0.77345 0.3936 0.54635 0.0
C1066 C 0.88704 0.4593 0.67498 0.0
C1067 C 0.87449 0.44697 0.655 0.0
C1068 C 0.83231 0.44311 0.59314 0.0
C1069 C 0.80396 0.40086 0.5671 0.0
C1070 C 0.81816 0.41348 0.58647 0.0
C1071 C 0.85721 0.45064 0.64993 0.0
C1072 C 0.84398 0.43778 0.62749 0.0
H1073 H 0.79579 0.35823 0.53483 0.0
H1074 H 0.81975 0.37954 0.5597 0.0
H1075 H 0.81087 0.43559 0.54611 0.0
H1076 H 0.86127 0.49135 0.69823 0.0
H1077 H 0.83938 0.4698 0.66331 0.0
C1078 C 0.27221 0.12981 0.5244 0.0
C1079 C 0.26828 0.14508 0.50138 0.0
C1080 C 0.2861 0.12122 0.50841 0.0
C1081 C 0.31171 0.11587 0.39901 0.0
H1082 H 0.3419 0.09378 0.48567 0.0
C1083 C 0.36872 0.08068 0.32928 0.0
C1084 C 0.37097 0.06471 0.35126 0.0
C1085 C 0.35714 0.09143 0.34877 0.0
C1086 C 0.33347 0.09977 0.46103 0.0
H1087 H 0.27637 0.16377 0.44502 0.0
H1088 H 0.30064 0.14887 0.41752 0.0
H1089 H 0.32027 0.11118 0.51882 0.0
H1090 H 0.36282 0.04749 0.41089 0.0
H1091 H 0.34247 0.0661 0.44438 0.0
H1092 H 0.32468 0.10427 0.34126 0.0
C1093 C 0.2928 0.14337 0.44734 0.0
C1094 C 0.32111 0.10974 0.48002 0.0
C1095 C 0.27894 0.15195 0.46331 0.0
C1096 C 0.36142 0.05973 0.39312 0.0
C1097 C 0.34985 0.07046 0.41256 0.0
C1098 C 0.32404 0.10589 0.38004 0.0
C1099 C 0.29633 0.12773 0.46909 0.0
C1100 C 0.31003 0.11781 0.44921 0.0
C1101 C 0.34757 0.08643 0.39061 0.0
C1102 C 0.33498 0.09762 0.41082 0.0
H1103 H 0.26426 0.12419 0.55385 0.0
H1104 H 0.28841 0.10913 0.52569 0.0
H1105 H 0.30317 0.12168 0.37433 0.0
H1106 H 0.37595 0.08492 0.29711 0.0
H1107 H 0.35582 0.10374 0.33131 0.0
C1108 C 0.61628 0.54599 0.18964 0.0
C1109 C 0.59857 0.54839 0.18831 0.0
C1110 C 0.62877 0.55864 0.17102 0.0
C1111 C 0.63391 0.59626 0.08754 0.0
H1112 H 0.67904 0.6048 0.1492 0.0
C1113 C 0.68748 0.65195 0.03452 0.0
C1114 C 0.70448 0.64726 0.03138 0.0
C1115 C 0.67392 0.64005 0.05166 0.0
C1116 C 0.66653 0.60245 0.13142 0.0
H1117 H 0.58009 0.56614 0.16746 0.0
H1118 H 0.60197 0.58847 0.13608 0.0
H1119 H 0.65655 0.58436 0.18556 0.0
H1120 H 0.72044 0.62621 0.04202 0.0
H1121 H 0.69682 0.60558 0.07213 0.0
H1122 H 0.64398 0.61468 0.03378 0.0
C1123 C 0.60617 0.57662 0.15051 0.0
C1124 C 0.65365 0.59072 0.15216 0.0
C1125 C 0.59364 0.56387 0.16881 0.0
C1126 C 0.70752 0.63027 0.04415 0.0
C1127 C 0.69403 0.61848 0.06168 0.0
C1128 C 0.64678 0.60816 0.06704 0.0
C1129 C 0.62388 0.57409 0.15104 0.0
C1130 C 0.63724 0.5873 0.13019 0.0
C1131 C 0.67718 0.62334 0.06639 0.0
C1132 C 0.66327 0.61119 0.0885 0.0
H1133 H 0.62051 0.53415 0.20413 0.0
H1134 H 0.64225 0.5561 0.17132 0.0
H1135 H 0.6215 0.59379 0.0693 0.0
H1136 H 0.68472 0.66492 0.02483 0.0
H1137 H 0.66103 0.64412 0.05502 0.0
C1138 C 0.20778 0.878 0.99301 0.0
C1139 C 0.20828 0.86133 0.9732 0.0
C1140 C 0.19397 0.88756 0.98264 0.0
C1141 C 0.16173 0.89193 0.88835 0.0
H1142 H 0.14192 0.92149 0.98165 0.0
C1143 C 0.10833 0.93442 0.83499 0.0
C1144 C 0.1103 0.95157 0.8526 0.0
C1145 C 0.11857 0.92215 0.85313 0.0
C1146 C 0.14741 0.91338 0.95514 0.0
H1147 H 0.19427 0.8413 0.92879 0.0
H1148 H 0.17015 0.85799 0.91086 0.0
H1149 H 0.1628 0.90202 0.00827 0.0
H1150 H 0.12433 0.96923 0.90362 0.0
H1151 H 0.14243 0.94793 0.93456 0.0
H1152 H 0.14677 0.90354 0.83499 0.0
C1153 C 0.18056 0.86374 0.93388 0.0
C1154 C 0.15933 0.90222 0.9704 0.0
C1155 C 0.19435 0.85415 0.94435 0.0
C1156 C 0.1225 0.95611 0.8893 0.0
C1157 C 0.13278 0.94386 0.90731 0.0
C1158 C 0.14987 0.9031 0.87307 0.0
C1159 C 0.18039 0.88066 0.95218 0.0
C1160 C 0.16675 0.89152 0.93705 0.0
C1161 C 0.13104 0.92679 0.88913 0.0
C1162 C 0.14273 0.9141 0.90618 0.0
H1163 H 0.2183 0.88388 0.01549 0.0
H1164 H 0.19428 0.90063 -0.00306 0.0
H1165 H 0.16743 0.88405 0.86165 0.0
H1166 H 0.09895 0.93047 0.80698 0.0
H1167 H 0.11674 0.90904 0.83886 0.0
loop_
_geom_bond_atom_site_label_1
_geom_bond_atom_site_label_2
_geom_bond_distance
_geom_bond_site_symmetry_2
_ccdc_geom_bond_type
C0 O1 1.160 . S
C0 O7 1.185 . S
O1 C0 1.160 . S
O2 Zn3 1.899 . S
O2 C10 1.284 . S
Zn3 O2 1.899 . S
Zn3 O4 2.032 . S
Zn3 O7 2.086 . S
Zn3 O12 1.977 1_554 S
O4 Zn3 2.032 . S
O4 C8 1.278 1_554 S
C5 O6 1.203 . S
C5 O12 1.267 . S
O6 C5 1.203 . S
O7 C0 1.185 . S
O7 Zn3 2.086 . S
C8 O4 1.278 1_556 S
C8 O9 1.211 . S
O9 C8 1.211 . S
C10 O2 1.284 . S
C10 O11 1.273 . S
O11 C10 1.273 . S
O12 Zn3 1.977 1_556 S
O12 C5 1.267 . S
C13 O14 1.160 . S
C13 O20 1.185 . S
O14 C13 1.160 . S
O15 Zn16 1.899 . S
O15 C23 1.284 . S
Zn16 O15 1.899 . S
Zn16 O17 2.032 . S
Zn16 O20 2.086 . S
Zn16 O25 1.977 . S
O17 Zn16 2.032 . S
O17 C21 1.278 1_545 S
C18 O19 1.203 . S
C18 O25 1.267 . S
O19 C18 1.203 . S
O20 C13 1.185 . S
O20 Zn16 2.086 . S
C21 O17 1.278 1_565 S
C21 O22 1.211 . S
O22 C21 1.211 . S
C23 O15 1.284 . S
C23 O24 1.273 1_545 S
O24 C23 1.273 1_565 S
O25 Zn16 1.977 . S
O25 C18 1.267 . S
C26 O27 1.160 . S
C26 O33 1.185 . S
O27 C26 1.160 . S
O28 Zn29 1.899 . S
O28 C36 1.284 . S
Zn29 O28 1.899 . S
Zn29 O30 2.032 . S
Zn29 O33 2.086 . S
Zn29 O38 1.977 . S
O30 Zn29 2.032 . S
O30 C34 1.278 . S
C31 O32 1.203 . S
C31 O38 1.267 . S
O32 C31 1.203 . S
O33 C26 1.185 . S
O33 Zn29 2.086 . S
C34 O30 1.278 . S
C34 O35 1.211 . S
O35 C34 1.211 . S
C36 O28 1.284 . S
C36 O37 1.273 . S
O37 C36 1.273 . S
O38 Zn29 1.977 . S
O38 C31 1.267 . S
C39 O40 1.160 . S
C39 O46 1.185 . S
O40 C39 1.160 . S
O41 Zn42 1.899 . S
O41 C49 1.284 . S
Zn42 O41 1.899 . S
Zn42 O43 2.032 . S
Zn42 O46 2.086 1_545 S
Zn42 O51 1.977 . S
O43 Zn42 2.032 . S
O43 C47 1.278 . S
C44 O45 1.203 . S
C44 O51 1.267 . S
O45 C44 1.203 . S
O46 C39 1.185 . S
O46 Zn42 2.086 1_565 S
C47 O43 1.278 . S
C47 O48 1.211 . S
O48 C47 1.211 . S
C49 O41 1.284 . S
C49 O50 1.273 . S
O50 C49 1.273 . S
O51 Zn42 1.977 . S
O51 C44 1.267 . S
C52 O53 1.160 . S
C52 O59 1.185 1_556 S
O53 C52 1.160 . S
O54 Zn55 1.899 1_556 S
O54 C62 1.284 . S
Zn55 O54 1.899 1_554 S
Zn55 O56 2.032 . S
Zn55 O59 2.086 . S
Zn55 O64 1.977 . S
O56 Zn55 2.032 . S
O56 C60 1.278 . S
C57 O58 1.203 . S
C57 O64 1.267 . S
O58 C57 1.203 . S
O59 C52 1.185 1_554 S
O59 Zn55 2.086 . S
C60 O56 1.278 . S
C60 O61 1.211 . S
O61 C60 1.211 . S
C62 O54 1.284 . S
C62 O63 1.273 . S
O63 C62 1.273 . S
O64 Zn55 1.977 . S
O64 C57 1.267 . S
C65 O66 1.160 . S
C65 O72 1.185 . S
O66 C65 1.160 . S
O67 Zn68 1.899 . S
O67 C75 1.284 . S
Zn68 O67 1.899 . S
Zn68 O69 2.032 . S
Zn68 O72 2.086 1_545 S
Zn68 O77 1.977 . S
O69 Zn68 2.032 . S
O69 C73 1.278 . S
C70 O71 1.203 . S
C70 O77 1.267 . S
O71 C70 1.203 . S
O72 C65 1.185 . S
O72 Zn68 2.086 1_565 S
C73 O69 1.278 . S
C73 O74 1.211 . S
O74 C73 1.211 . S
C75 O67 1.284 . S
C75 O76 1.273 . S
O76 C75 1.273 . S
O77 Zn68 1.977 . S
O77 C70 1.267 . S
C78 O79 1.160 . S
C78 O85 1.185 . S
O79 C78 1.160 . S
O80 Zn81 1.899 . S
O80 C88 1.284 . S
Zn81 O80 1.899 . S
Zn81 O82 2.032 . S
Zn81 O85 2.086 . S
Zn81 O90 1.977 . S
O82 Zn81 2.032 . S
O82 C86 1.278 . S
C83 O84 1.203 . S
C83 O90 1.267 . S
O84 C83 1.203 . S
O85 C78 1.185 . S
O85 Zn81 2.086 . S
C86 O82 1.278 . S
C86 O87 1.211 . S
O87 C86 1.211 . S
C88 O80 1.284 . S
C88 O89 1.273 . S
O89 C88 1.273 . S
O90 Zn81 1.977 . S
O90 C83 1.267 . S
C91 O92 1.160 . S
C91 O98 1.185 . S
O92 C91 1.160 . S
O93 Zn94 1.899 . S
O93 C101 1.284 . S
Zn94 O93 1.899 . S
Zn94 O95 2.032 . S
Zn94 O98 2.086 . S
Zn94 O103 1.977 . S
O95 Zn94 2.032 . S
O95 C99 1.278 1_545 S
C96 O97 1.203 . S
C96 O103 1.267 . S
O97 C96 1.203 . S
O98 C91 1.185 . S
O98 Zn94 2.086 . S
C99 O95 1.278 1_565 S
C99 O100 1.211 . S
O100 C99 1.211 . S
C101 O93 1.284 . S
C101 O102 1.273 1_545 S
O102 C101 1.273 1_565 S
O103 Zn94 1.977 . S
O103 C96 1.267 . S
C104 O105 1.160 . S
C104 O111 1.185 . S
O105 C104 1.160 . S
O106 Zn107 1.899 . S
O106 C114 1.284 . S
Zn107 O106 1.899 . S
Zn107 O108 2.032 . S
Zn107 O111 2.086 . S
Zn107 O116 1.977 . S
O108 Zn107 2.032 . S
O108 C112 1.278 . S
C109 O110 1.203 . S
C109 O116 1.267 . S
O110 C109 1.203 . S
O111 C104 1.185 . S
O111 Zn107 2.086 . S
C112 O108 1.278 . S
C112 O113 1.211 . S
O113 C112 1.211 . S
C114 O106 1.284 . S
C114 O115 1.273 . S
O115 C114 1.273 . S
O116 Zn107 1.977 . S
O116 C109 1.267 . S
C117 O118 1.160 . S
C117 O124 1.185 . S
O118 C117 1.160 . S
O119 Zn120 1.899 . S
O119 C127 1.284 . S
Zn120 O119 1.899 . S
Zn120 O121 2.032 . S
Zn120 O124 2.086 . S
Zn120 O129 1.977 . S
O121 Zn120 2.032 . S
O121 C125 1.278 . S
C122 O123 1.203 . S
C122 O129 1.267 . S
O123 C122 1.203 . S
O124 C117 1.185 . S
O124 Zn120 2.086 . S
C125 O121 1.278 . S
C125 O126 1.211 . S
O126 C125 1.211 . S
C127 O119 1.284 . S
C127 O128 1.273 . S
O128 C127 1.273 . S
O129 Zn120 1.977 . S
O129 C122 1.267 . S
C130 O131 1.160 . S
C130 O137 1.185 . S
O131 C130 1.160 . S
O132 Zn133 1.899 . S
O132 C140 1.284 . S
Zn133 O132 1.899 . S
Zn133 O134 2.032 . S
Zn133 O137 2.086 . S
Zn133 O142 1.977 1_554 S
O134 Zn133 2.032 . S
O134 C138 1.278 1_554 S
C135 O136 1.203 . S
C135 O142 1.267 . S
O136 C135 1.203 . S
O137 C130 1.185 . S
O137 Zn133 2.086 . S
C138 O134 1.278 1_556 S
C138 O139 1.211 . S
O139 C138 1.211 . S
C140 O132 1.284 . S
C140 O141 1.273 . S
O141 C140 1.273 . S
O142 Zn133 1.977 1_556 S
O142 C135 1.267 . S
C143 O144 1.160 . S
C143 O150 1.185 . S
O144 C143 1.160 . S
O145 Zn146 1.899 . S
O145 C153 1.284 . S
Zn146 O145 1.899 . S
Zn146 O147 2.032 . S
Zn146 O150 2.086 . S
Zn146 O155 1.977 . S
O147 Zn146 2.032 . S
O147 C151 1.278 . S
C148 O149 1.203 . S
C148 O155 1.267 . S
O149 C148 1.203 . S
O150 C143 1.185 . S
O150 Zn146 2.086 . S
C151 O147 1.278 . S
C151 O152 1.211 . S
O152 C151 1.211 . S
C153 O145 1.284 . S
C153 O154 1.273 . S
O154 C153 1.273 . S
O155 Zn146 1.977 . S
O155 C148 1.267 . S
C156 O157 1.160 . S
C156 O163 1.185 . S
O157 C156 1.160 . S
O158 Zn159 1.899 . S
O158 C166 1.284 . S
Zn159 O158 1.899 . S
Zn159 O160 2.032 . S
Zn159 O163 2.086 . S
Zn159 O168 1.977 . S
O160 Zn159 2.032 . S
O160 C164 1.278 . S
C161 O162 1.203 . S
C161 O168 1.267 . S
O162 C161 1.203 . S
O163 C156 1.185 . S
O163 Zn159 2.086 . S
C164 O160 1.278 . S
C164 O165 1.211 . S
O165 C164 1.211 . S
C166 O158 1.284 . S
C166 O167 1.273 . S
O167 C166 1.273 . S
O168 Zn159 1.977 . S
O168 C161 1.267 . S
C169 O170 1.160 . S
C169 O176 1.185 . S
O170 C169 1.160 . S
O171 Zn172 1.899 . S
O171 C179 1.284 . S
Zn172 O171 1.899 . S
Zn172 O173 2.032 . S
Zn172 O176 2.086 . S
Zn172 O181 1.977 . S
O173 Zn172 2.032 . S
O173 C177 1.278 . S
C174 O175 1.203 . S
C174 O181 1.267 . S
O175 C174 1.203 . S
O176 C169 1.185 . S
O176 Zn172 2.086 . S
C177 O173 1.278 . S
C177 O178 1.211 . S
O178 C177 1.211 . S
C179 O171 1.284 . S
C179 O180 1.273 . S
O180 C179 1.273 . S
O181 Zn172 1.977 . S
O181 C174 1.267 . S
C182 O183 1.160 . S
C182 O189 1.185 1_556 S
O183 C182 1.160 . S
O184 Zn185 1.899 1_556 S
O184 C192 1.284 . S
Zn185 O184 1.899 1_554 S
Zn185 O186 2.032 . S
Zn185 O189 2.086 . S
Zn185 O194 1.977 . S
O186 Zn185 2.032 . S
O186 C190 1.278 . S
C187 O188 1.203 . S
C187 O194 1.267 . S
O188 C187 1.203 . S
O189 C182 1.185 1_554 S
O189 Zn185 2.086 . S
C190 O186 1.278 . S
C190 O191 1.211 . S
O191 C190 1.211 . S
C192 O184 1.284 . S
C192 O193 1.273 . S
O193 C192 1.273 . S
O194 Zn185 1.977 . S
O194 C187 1.267 . S
C195 O196 1.160 . S
C195 O202 1.185 . S
O196 C195 1.160 . S
O197 Zn198 1.899 . S
O197 C205 1.284 . S
Zn198 O197 1.899 . S
Zn198 O199 2.032 . S
Zn198 O202 2.086 . S
Zn198 O207 1.977 . S
O199 Zn198 2.032 . S
O199 C203 1.278 . S
C200 O201 1.203 . S
C200 O207 1.267 . S
O201 C200 1.203 . S
O202 C195 1.185 . S
O202 Zn198 2.086 . S
C203 O199 1.278 . S
C203 O204 1.211 . S
O204 C203 1.211 . S
C205 O197 1.284 . S
C205 O206 1.273 . S
O206 C205 1.273 . S
O207 Zn198 1.977 . S
O207 C200 1.267 . S
C208 C209 1.349 . S
C208 C210 1.327 . S
C208 H233 0.950 . S
C209 C208 1.349 . S
C209 C225 1.349 . S
C210 C208 1.327 . S
C210 C229 1.429 . S
C210 H234 0.950 . S
C211 C228 1.574 . S
C211 C230 1.368 . S
C211 H235 0.949 . S
H212 C216 0.949 . S
C213 C214 1.349 . S
C213 C215 1.327 . S
C213 H236 0.950 . S
C214 C213 1.349 . S
C214 C226 1.349 . S
C215 C213 1.327 . S
C215 C231 1.429 . S
C215 H237 0.950 . S
C216 H212 0.949 . S
C216 C224 1.574 . S
C216 C232 1.368 . S
H217 C225 0.950 . S
H218 C223 0.950 . S
H219 C224 0.949 . S
H220 C226 0.950 . S
H221 C227 0.950 . S
H222 C228 0.949 . S
C223 H218 0.950 . S
C223 C225 1.327 . S
C223 C229 1.429 . S
C224 C216 1.574 . S
C224 H219 0.949 . S
C224 C230 1.368 . S
C225 C209 1.349 . S
C225 H217 0.950 . S
C225 C223 1.327 . S
C226 C214 1.349 . S
C226 H220 0.950 . S
C226 C227 1.327 . S
C227 H221 0.950 . S
C227 C226 1.327 . S
C227 C231 1.429 . S
C228 C211 1.574 . S
C228 H222 0.949 . S
C228 C232 1.368 . S
C229 C210 1.429 . S
C229 C223 1.429 . S
C229 C230 1.523 . S
C230 C211 1.368 . S
C230 C224 1.368 . S
C230 C229 1.523 . S
C231 C215 1.429 . S
C231 C227 1.429 . S
C231 C232 1.523 . S
C232 C216 1.368 . S
C232 C228 1.368 . S
C232 C231 1.523 . S
H233 C208 0.950 . S
H234 C210 0.950 . S
H235 C211 0.949 . S
H236 C213 0.950 . S
H237 C215 0.950 . S
C238 C239 1.349 . S
C238 C240 1.327 . S
C238 H263 0.950 . S
C239 C238 1.349 . S
C239 C255 1.349 . S
C240 C238 1.327 . S
C240 C259 1.429 . S
C240 H264 0.950 . S
C241 C258 1.540 1_655 S
C241 C260 1.368 . S
C241 H265 0.949 . S
H242 C246 0.949 1_565 S
C243 C244 1.349 . S
C243 C245 1.327 . S
C243 H266 0.950 . S
C244 C243 1.349 . S
C244 C256 1.349 1_545 S
C245 C243 1.327 . S
C245 C261 1.429 . S
C245 H267 0.950 . S
C246 H242 0.949 1_545 S
C246 C254 1.539 1_455 S
C246 C262 1.368 . S
H247 C255 0.950 . S
H248 C253 0.950 . S
H249 C254 0.951 . S
H250 C256 0.950 . S
H251 C257 0.960 . S
H252 C258 0.951 . S
C253 H248 0.950 . S
C253 C255 1.327 . S
C253 C259 1.429 . S
C254 C246 1.539 1_655 S
C254 H249 0.951 . S
C254 C260 1.403 . S
C255 C239 1.349 . S
C255 H247 0.950 . S
C255 C253 1.327 . S
C256 C244 1.349 1_565 S
C256 H250 0.950 . S
C256 C257 1.331 . S
C257 H251 0.960 . S
C257 C256 1.331 . S
C257 C261 1.414 1_565 S
C258 C241 1.540 1_455 S
C258 H252 0.951 . S
C258 C262 1.403 . S
C259 C240 1.429 . S
C259 C253 1.429 . S
C259 C260 1.523 . S
C260 C241 1.368 . S
C260 C254 1.403 . S
C260 C259 1.523 . S
C261 C245 1.429 . S
C261 C257 1.414 1_545 S
C261 C262 1.523 . S
C262 C246 1.368 . S
C262 C258 1.403 . S
C262 C261 1.523 . S
H263 C238 0.950 . S
H264 C240 0.950 . S
H265 C241 0.949 . S
H266 C243 0.950 . S
H267 C245 0.950 . S
C268 C269 1.349 . S
C268 C270 1.327 . S
C268 H293 0.950 . S
C269 C268 1.349 . S
C269 C285 1.349 . S
C270 C268 1.327 . S
C270 C289 1.429 . S
C270 H294 0.950 . S
C271 C288 1.574 . S
C271 C290 1.368 . S
C271 H295 0.949 . S
H272 C276 0.949 . S
C273 C274 1.349 . S
C273 C275 1.327 . S
C273 H296 0.950 . S
C274 C273 1.349 . S
C274 C286 1.349 . S
C275 C273 1.327 . S
C275 C291 1.429 . S
C275 H297 0.950 . S
C276 H272 0.949 . S
C276 C284 1.574 . S
C276 C292 1.368 . S
H277 C285 0.950 . S
H278 C283 0.950 . S
H279 C284 0.949 . S
H280 C286 0.950 . S
H281 C287 0.950 . S
H282 C288 0.949 . S
C283 H278 0.950 . S
C283 C285 1.327 . S
C283 C289 1.429 . S
C284 C276 1.574 . S
C284 H279 0.949 . S
C284 C290 1.368 . S
C285 C269 1.349 . S
C285 H277 0.950 . S
C285 C283 1.327 . S
C286 C274 1.349 . S
C286 H280 0.950 . S
C286 C287 1.327 . S
C287 H281 0.950 . S
C287 C286 1.327 . S
C287 C291 1.429 . S
C288 C271 1.574 . S
C288 H282 0.949 . S
C288 C292 1.368 . S
C289 C270 1.429 . S
C289 C283 1.429 . S
C289 C290 1.523 . S
C290 C271 1.368 . S
C290 C284 1.368 . S
C290 C289 1.523 . S
C291 C275 1.429 . S
C291 C287 1.429 . S
C291 C292 1.523 . S
C292 C276 1.368 . S
C292 C288 1.368 . S
C292 C291 1.523 . S
H293 C268 0.950 . S
H294 C270 0.950 . S
H295 C271 0.949 . S
H296 C273 0.950 . S
H297 C275 0.950 . S
C298 C299 1.349 . S
C298 C300 1.327 . S
C298 H323 0.950 . S
C299 C298 1.349 . S
C299 C315 1.349 . S
C300 C298 1.327 . S
C300 C319 1.429 . S
C300 H324 0.950 . S
C301 C318 1.574 1_554 S
C301 C320 1.368 . S
C301 H325 0.949 1_545 S
H302 C306 0.949 . S
C303 C304 1.349 1_565 S
C303 C305 1.327 . S
C303 H326 0.950 . S
C304 C303 1.349 1_545 S
C304 C316 1.349 . S
C305 C303 1.327 . S
C305 C321 1.429 1_565 S
C305 H327 0.950 . S
C306 H302 0.949 . S
C306 C314 1.574 . S
C306 C322 1.368 1_554 S
H307 C315 0.950 . S
H308 C313 0.950 . S
H309 C314 0.949 . S
H310 C316 0.950 . S
H311 C317 0.950 . S
H312 C318 0.949 1_565 S
C313 H308 0.950 . S
C313 C315 1.327 . S
C313 C319 1.429 . S
C314 C306 1.574 . S
C314 H309 0.949 . S
C314 C320 1.368 . S
C315 C299 1.349 . S
C315 H307 0.950 . S
C315 C313 1.327 . S
C316 C304 1.349 . S
C316 H310 0.950 . S
C316 C317 1.327 . S
C317 H311 0.950 . S
C317 C316 1.327 . S
C317 C321 1.429 . S
C318 C301 1.574 1_556 S
C318 H312 0.949 1_545 S
C318 C322 1.368 . S
C319 C300 1.429 . S
C319 C313 1.429 . S
C319 C320 1.523 . S
C320 C301 1.368 . S
C320 C314 1.368 . S
C320 C319 1.523 . S
C321 C305 1.429 1_545 S
C321 C317 1.429 . S
C321 C322 1.523 . S
C322 C306 1.368 1_556 S
C322 C318 1.368 . S
C322 C321 1.523 . S
H323 C298 0.950 . S
H324 C300 0.950 . S
H325 C301 0.949 1_565 S
H326 C303 0.950 . S
H327 C305 0.950 . S
C328 C329 1.349 . S
C328 C330 1.327 . S
C328 H353 0.950 . S
C329 C328 1.349 . S
C329 C345 1.349 . S
C330 C328 1.327 . S
C330 C349 1.429 . S
C330 H354 0.950 . S
C331 C348 1.574 . S
C331 C350 1.368 . S
C331 H355 0.949 . S
H332 C336 0.949 . S
C333 C334 1.349 . S
C333 C335 1.327 . S
C333 H356 0.950 . S
C334 C333 1.349 . S
C334 C346 1.349 . S
C335 C333 1.327 . S
C335 C351 1.429 . S
C335 H357 0.950 . S
C336 H332 0.949 . S
C336 C344 1.574 . S
C336 C352 1.368 . S
H337 C345 0.950 . S
H338 C343 0.950 . S
H339 C344 0.949 . S
H340 C346 0.950 . S
H341 C347 0.950 . S
H342 C348 0.949 . S
C343 H338 0.950 . S
C343 C345 1.327 . S
C343 C349 1.429 . S
C344 C336 1.574 . S
C344 H339 0.949 . S
C344 C350 1.368 . S
C345 C329 1.349 . S
C345 H337 0.950 . S
C345 C343 1.327 . S
C346 C334 1.349 . S
C346 H340 0.950 . S
C346 C347 1.327 . S
C347 H341 0.950 . S
C347 C346 1.327 . S
C347 C351 1.429 . S
C348 C331 1.574 . S
C348 H342 0.949 . S
C348 C352 1.368 . S
C349 C330 1.429 . S
C349 C343 1.429 . S
C349 C350 1.523 . S
C350 C331 1.368 . S
C350 C344 1.368 . S
C350 C349 1.523 . S
C351 C335 1.429 . S
C351 C347 1.429 . S
C351 C352 1.523 . S
C352 C336 1.368 . S
C352 C348 1.368 . S
C352 C351 1.523 . S
H353 C328 0.950 . S
H354 C330 0.950 . S
H355 C331 0.949 . S
H356 C333 0.950 . S
H357 C335 0.950 . S
C358 C359 1.349 . S
C358 C360 1.327 . S
C358 H383 0.950 1_545 S
C359 C358 1.349 . S
C359 C375 1.349 . S
C360 C358 1.327 . S
C360 C379 1.429 . S
C360 H384 0.910 1_545 S
C361 C378 1.574 . S
C361 C380 1.368 . S
C361 H385 0.949 . S
H362 C366 0.949 . S
C363 C364 1.349 . S
C363 C365 1.327 . S
C363 H386 0.950 . S
C364 C363 1.349 . S
C364 C376 1.349 . S
C365 C363 1.327 . S
C365 C381 1.429 . S
C365 H387 0.950 . S
C366 H362 0.949 . S
C366 C374 1.574 . S
C366 C382 1.368 . S
H367 C375 0.950 . S
H368 C373 0.950 . S
H369 C374 0.948 . S
H370 C376 0.950 . S
H371 C377 0.950 . S
H372 C378 0.949 . S
C373 H368 0.950 . S
C373 C375 1.327 . S
C373 C379 1.429 . S
C374 C366 1.574 . S
C374 H369 0.948 . S
C374 C380 1.368 . S
C375 C359 1.349 . S
C375 H367 0.950 . S
C375 C373 1.327 . S
C376 C364 1.349 . S
C376 H370 0.950 . S
C376 C377 1.327 . S
C377 H371 0.950 . S
C377 C376 1.327 . S
C377 C381 1.429 . S
C378 C361 1.574 . S
C378 H372 0.949 . S
C378 C382 1.368 . S
C379 C360 1.429 . S
C379 C373 1.429 . S
C379 C380 1.523 . S
C380 C361 1.368 . S
C380 C374 1.368 . S
C380 C379 1.523 . S
C381 C365 1.429 . S
C381 C377 1.429 . S
C381 C382 1.523 . S
C382 C366 1.368 . S
C382 C378 1.368 . S
C382 C381 1.523 . S
H383 C358 0.950 1_565 S
H384 C360 0.910 1_565 S
H385 C361 0.949 . S
H386 C363 0.950 . S
H387 C365 0.950 . S
C388 C389 1.349 . S
C388 C390 1.327 . S
C388 H413 0.950 . S
C389 C388 1.349 . S
C389 C405 1.349 . S
C390 C388 1.327 . S
C390 C409 1.429 . S
C390 H414 0.950 . S
C391 C408 1.574 . S
C391 C410 1.368 . S
C391 H415 0.949 . S
H392 C396 0.949 . S
C393 C394 1.349 . S
C393 C395 1.327 . S
C393 H416 0.950 . S
C394 C393 1.349 . S
C394 C406 1.349 . S
C395 C393 1.327 . S
C395 C411 1.429 . S
C395 H417 0.950 . S
C396 H392 0.949 . S
C396 C404 1.574 . S
C396 C412 1.368 . S
H397 C405 0.950 . S
H398 C403 0.950 . S
H399 C404 0.949 . S
H400 C406 0.950 . S
H401 C407 0.950 . S
H402 C408 0.949 . S
C403 H398 0.950 . S
C403 C405 1.327 . S
C403 C409 1.429 . S
C404 C396 1.574 . S
C404 H399 0.949 . S
C404 C410 1.368 . S
C405 C389 1.349 . S
C405 H397 0.950 . S
C405 C403 1.327 . S
C406 C394 1.349 . S
C406 H400 0.950 . S
C406 C407 1.327 . S
C407 H401 0.950 . S
C407 C406 1.327 . S
C407 C411 1.429 . S
C408 C391 1.574 . S
C408 H402 0.949 . S
C408 C412 1.368 . S
C409 C390 1.429 . S
C409 C403 1.429 . S
C409 C410 1.523 . S
C410 C391 1.368 . S
C410 C404 1.368 . S
C410 C409 1.523 . S
C411 C395 1.429 . S
C411 C407 1.429 . S
C411 C412 1.523 . S
C412 C396 1.368 . S
C412 C408 1.368 . S
C412 C411 1.523 . S
H413 C388 0.950 . S
H414 C390 0.950 . S
H415 C391 0.949 . S
H416 C393 0.950 . S
H417 C395 0.950 . S
C418 C419 1.349 . S
C418 C420 1.327 . S
C418 H443 0.950 . S
C419 C418 1.349 . S
C419 C435 1.349 . S
C420 C418 1.327 . S
C420 C439 1.429 . S
C420 H444 0.950 . S
C421 C438 1.537 1_455 S
C421 C440 1.368 1_554 S
C421 H445 0.949 1_545 S
H422 C426 0.949 . S
C423 C424 1.349 . S
C423 C425 1.327 . S
C423 H446 0.950 1_545 S
C424 C423 1.349 . S
C424 C436 1.349 . S
C425 C423 1.327 . S
C425 C441 1.429 . S
C425 H447 0.950 1_545 S
C426 H422 0.949 . S
C426 C434 1.538 1_654 S
C426 C442 1.368 . S
H427 C435 0.969 . S
H428 C433 0.950 1_565 S
H429 C434 0.950 . S
H430 C436 0.950 . S
H431 C437 0.950 . S
H432 C438 0.950 1_565 S
C433 H428 0.950 1_545 S
C433 C435 1.327 . S
C433 C439 1.429 . S
C434 C426 1.538 1_456 S
C434 H429 0.950 . S
C434 C440 1.406 . S
C435 C419 1.349 . S
C435 H427 0.969 . S
C435 C433 1.327 . S
C436 C424 1.349 . S
C436 H430 0.950 . S
C436 C437 1.327 . S
C437 H431 0.950 . S
C437 C436 1.327 . S
C437 C441 1.429 . S
C438 C421 1.537 1_655 S
C438 H432 0.950 1_545 S
C438 C442 1.406 . S
C439 C420 1.429 . S
C439 C433 1.429 . S
C439 C440 1.523 . S
C440 C421 1.368 1_556 S
C440 C434 1.406 . S
C440 C439 1.523 . S
C441 C425 1.429 . S
C441 C437 1.429 . S
C441 C442 1.523 . S
C442 C426 1.368 . S
C442 C438 1.406 . S
C442 C441 1.523 . S
H443 C418 0.950 . S
H444 C420 0.950 . S
H445 C421 0.949 1_565 S
H446 C423 0.950 1_565 S
H447 C425 0.950 1_565 S
C448 C449 1.349 . S
C448 C450 1.327 . S
C448 H473 0.950 . S
C449 C448 1.349 . S
C449 C465 1.349 . S
C450 C448 1.327 . S
C450 C469 1.429 . S
C450 H474 0.950 . S
C451 C468 1.574 . S
C451 C470 1.368 . S
C451 H475 0.949 . S
H452 C456 0.949 . S
C453 C454 1.349 . S
C453 C455 1.327 . S
C453 H476 0.950 . S
C454 C453 1.349 . S
C454 C466 1.349 . S
C455 C453 1.327 . S
C455 C471 1.429 . S
C455 H477 0.950 . S
C456 H452 0.949 . S
C456 C464 1.574 . S
C456 C472 1.368 . S
H457 C465 0.950 . S
H458 C463 0.950 . S
H459 C464 0.949 . S
H460 C466 0.950 . S
H461 C467 0.950 . S
H462 C468 0.949 . S
C463 H458 0.950 . S
C463 C465 1.327 . S
C463 C469 1.429 . S
C464 C456 1.574 . S
C464 H459 0.949 . S
C464 C470 1.368 . S
C465 C449 1.349 . S
C465 H457 0.950 . S
C465 C463 1.327 . S
C466 C454 1.349 . S
C466 H460 0.950 . S
C466 C467 1.327 . S
C467 H461 0.950 . S
C467 C466 1.327 . S
C467 C471 1.429 . S
C468 C451 1.574 . S
C468 H462 0.949 . S
C468 C472 1.368 . S
C469 C450 1.429 . S
C469 C463 1.429 . S
C469 C470 1.523 . S
C470 C451 1.368 . S
C470 C464 1.368 . S
C470 C469 1.523 . S
C471 C455 1.429 . S
C471 C467 1.429 . S
C471 C472 1.523 . S
C472 C456 1.368 . S
C472 C468 1.368 . S
C472 C471 1.523 . S
H473 C448 0.950 . S
H474 C450 0.950 . S
H475 C451 0.949 . S
H476 C453 0.950 . S
H477 C455 0.950 . S
C478 C479 1.349 . S
C478 C480 1.327 . S
C478 H503 0.950 . S
C479 C478 1.349 . S
C479 C495 1.349 . S
C480 C478 1.327 . S
C480 C499 1.429 . S
C480 H504 0.950 . S
C481 C498 1.574 . S
C481 C500 1.368 . S
C481 H505 0.949 . S
H482 C486 0.949 . S
C483 C484 1.349 . S
C483 C485 1.327 . S
C483 H506 0.950 . S
C484 C483 1.349 . S
C484 C496 1.349 . S
C485 C483 1.327 . S
C485 C501 1.429 . S
C485 H507 0.950 . S
C486 H482 0.949 . S
C486 C494 1.574 . S
C486 C502 1.368 . S
H487 C495 0.950 . S
H488 C493 0.950 . S
H489 C494 0.949 . S
H490 C496 0.950 . S
H491 C497 0.950 . S
H492 C498 0.949 . S
C493 H488 0.950 . S
C493 C495 1.327 . S
C493 C499 1.429 . S
C494 C486 1.574 . S
C494 H489 0.949 . S
C494 C500 1.368 . S
C495 C479 1.349 . S
C495 H487 0.950 . S
C495 C493 1.327 . S
C496 C484 1.349 . S
C496 H490 0.950 . S
C496 C497 1.327 . S
C497 H491 0.950 . S
C497 C496 1.327 . S
C497 C501 1.429 . S
C498 C481 1.574 . S
C498 H492 0.949 . S
C498 C502 1.368 . S
C499 C480 1.429 . S
C499 C493 1.429 . S
C499 C500 1.523 . S
C500 C481 1.368 . S
C500 C494 1.368 . S
C500 C499 1.523 . S
C501 C485 1.429 . S
C501 C497 1.429 . S
C501 C502 1.523 . S
C502 C486 1.368 . S
C502 C498 1.368 . S
C502 C501 1.523 . S
H503 C478 0.950 . S
H504 C480 0.950 . S
H505 C481 0.949 . S
H506 C483 0.950 . S
H507 C485 0.950 . S
C508 C509 1.349 . S
C508 C510 1.327 . S
C508 H533 0.950 . S
C509 C508 1.349 . S
C509 C525 1.349 . S
C510 C508 1.327 . S
C510 C529 1.429 . S
C510 H534 0.950 . S
C511 C528 1.574 . S
C511 C530 1.368 . S
C511 H535 0.949 . S
H512 C516 0.949 . S
C513 C514 1.349 . S
C513 C515 1.327 . S
C513 H536 0.950 . S
C514 C513 1.349 . S
C514 C526 1.349 . S
C515 C513 1.327 . S
C515 C531 1.429 . S
C515 H537 0.950 . S
C516 H512 0.949 . S
C516 C524 1.574 . S
C516 C532 1.368 . S
H517 C525 0.950 . S
H518 C523 0.950 . S
H519 C524 0.949 . S
H520 C526 0.950 . S
H521 C527 0.950 . S
H522 C528 0.949 . S
C523 H518 0.950 . S
C523 C525 1.327 . S
C523 C529 1.429 . S
C524 C516 1.574 . S
C524 H519 0.949 . S
C524 C530 1.368 . S
C525 C509 1.349 . S
C525 H517 0.950 . S
C525 C523 1.327 . S
C526 C514 1.349 . S
C526 H520 0.950 . S
C526 C527 1.327 . S
C527 H521 0.950 . S
C527 C526 1.327 . S
C527 C531 1.429 . S
C528 C511 1.574 . S
C528 H522 0.949 . S
C528 C532 1.368 . S
C529 C510 1.429 . S
C529 C523 1.429 . S
C529 C530 1.523 . S
C530 C511 1.368 . S
C530 C524 1.368 . S
C530 C529 1.523 . S
C531 C515 1.429 . S
C531 C527 1.429 . S
C531 C532 1.523 . S
C532 C516 1.368 . S
C532 C528 1.368 . S
C532 C531 1.523 . S
H533 C508 0.950 . S
H534 C510 0.950 . S
H535 C511 0.949 . S
H536 C513 0.950 . S
H537 C515 0.950 . S
C538 C539 1.349 . S
C538 C540 1.327 . S
C538 H563 0.950 . S
C539 C538 1.349 . S
C539 C555 1.349 . S
C540 C538 1.327 . S
C540 C559 1.429 . S
C540 H564 0.950 . S
C541 C558 1.574 . S
C541 C560 1.368 . S
C541 H565 0.949 . S
H542 C546 0.949 . S
C543 C544 1.349 . S
C543 C545 1.327 . S
C543 H566 0.950 . S
C544 C543 1.349 . S
C544 C556 1.349 . S
C545 C543 1.327 . S
C545 C561 1.429 . S
C545 H567 0.950 . S
C546 H542 0.949 . S
C546 C554 1.574 . S
C546 C562 1.368 . S
H547 C555 0.950 . S
H548 C553 0.950 . S
H549 C554 0.949 . S
H550 C556 0.950 . S
H551 C557 0.950 . S
H552 C558 0.949 . S
C553 H548 0.950 . S
C553 C555 1.327 . S
C553 C559 1.429 . S
C554 C546 1.574 . S
C554 H549 0.949 . S
C554 C560 1.368 . S
C555 C539 1.349 . S
C555 H547 0.950 . S
C555 C553 1.327 . S
C556 C544 1.349 . S
C556 H550 0.950 . S
C556 C557 1.327 . S
C557 H551 0.950 . S
C557 C556 1.327 . S
C557 C561 1.429 . S
C558 C541 1.574 . S
C558 H552 0.949 . S
C558 C562 1.368 . S
C559 C540 1.429 . S
C559 C553 1.429 . S
C559 C560 1.523 . S
C560 C541 1.368 . S
C560 C554 1.368 . S
C560 C559 1.523 . S
C561 C545 1.429 . S
C561 C557 1.429 . S
C561 C562 1.523 . S
C562 C546 1.368 . S
C562 C558 1.368 . S
C562 C561 1.523 . S
H563 C538 0.950 . S
H564 C540 0.950 . S
H565 C541 0.949 . S
H566 C543 0.950 . S
H567 C545 0.950 . S
C568 C569 1.349 . S
C568 C570 1.327 . S
C568 H593 0.950 . S
C569 C568 1.349 . S
C569 C585 1.349 . S
C570 C568 1.327 . S
C570 C589 1.429 . S
C570 H594 0.950 . S
C571 C588 1.574 1_554 S
C571 C590 1.368 . S
C571 H595 0.949 . S
H572 C576 0.949 1_556 S
C573 C574 1.349 . S
C573 C575 1.327 . S
C573 H596 0.950 . S
C574 C573 1.349 . S
C574 C586 1.349 . S
C575 C573 1.327 . S
C575 C591 1.429 . S
C575 H597 0.950 . S
C576 H572 0.949 1_554 S
C576 C584 1.574 . S
C576 C592 1.368 1_554 S
H577 C585 0.950 . S
H578 C583 0.950 . S
H579 C584 0.949 . S
H580 C586 0.950 . S
H581 C587 0.950 . S
H582 C588 0.949 . S
C583 H578 0.950 . S
C583 C585 1.327 . S
C583 C589 1.429 . S
C584 C576 1.574 . S
C584 H579 0.949 . S
C584 C590 1.368 . S
C585 C569 1.349 . S
C585 H577 0.950 . S
C585 C583 1.327 . S
C586 C574 1.349 . S
C586 H580 0.950 . S
C586 C587 1.327 . S
C587 H581 0.950 . S
C587 C586 1.327 . S
C587 C591 1.429 . S
C588 C571 1.574 1_556 S
C588 H582 0.949 . S
C588 C592 1.368 . S
C589 C570 1.429 . S
C589 C583 1.429 . S
C589 C590 1.523 . S
C590 C571 1.368 . S
C590 C584 1.368 . S
C590 C589 1.523 . S
C591 C575 1.429 . S
C591 C587 1.429 . S
C591 C592 1.523 . S
C592 C576 1.368 1_556 S
C592 C588 1.368 . S
C592 C591 1.523 . S
H593 C568 0.950 . S
H594 C570 0.950 . S
H595 C571 0.949 . S
H596 C573 0.950 . S
H597 C575 0.950 . S
C598 C599 1.349 . S
C598 C600 1.327 . S
C598 H623 0.950 . S
C599 C598 1.349 . S
C599 C615 1.349 . S
C600 C598 1.327 . S
C600 C619 1.429 . S
C600 H624 0.950 . S
C601 C618 1.574 . S
C601 C620 1.368 1_655 S
C601 H625 0.949 . S
H602 C606 0.949 . S
C603 C604 1.349 . S
C603 C605 1.327 . S
C603 H626 0.950 . S
C604 C603 1.349 . S
C604 C616 1.349 . S
C605 C603 1.327 . S
C605 C621 1.429 . S
C605 H627 0.950 . S
C606 H602 0.949 . S
C606 C614 1.574 . S
C606 C622 1.368 1_455 S
H607 C615 0.950 . S
H608 C613 0.950 . S
H609 C614 0.949 . S
H610 C616 0.950 . S
H611 C617 0.950 . S
H612 C618 0.949 . S
C613 H608 0.950 . S
C613 C615 1.327 . S
C613 C619 1.429 . S
C614 C606 1.574 . S
C614 H609 0.949 . S
C614 C620 1.368 . S
C615 C599 1.349 . S
C615 H607 0.950 . S
C615 C613 1.327 . S
C616 C604 1.349 . S
C616 H610 0.950 . S
C616 C617 1.327 . S
C617 H611 0.950 . S
C617 C616 1.327 . S
C617 C621 1.429 . S
C618 C601 1.574 . S
C618 H612 0.949 . S
C618 C622 1.368 . S
C619 C600 1.429 . S
C619 C613 1.429 . S
C619 C620 1.523 . S
C620 C601 1.368 1_455 S
C620 C614 1.368 . S
C620 C619 1.523 . S
C621 C605 1.429 . S
C621 C617 1.429 . S
C621 C622 1.523 . S
C622 C606 1.368 1_655 S
C622 C618 1.368 . S
C622 C621 1.523 . S
H623 C598 0.950 . S
H624 C600 0.950 . S
H625 C601 0.949 . S
H626 C603 0.950 . S
H627 C605 0.950 . S
C628 C629 1.349 . S
C628 C630 1.327 . S
C628 H653 0.950 . S
C629 C628 1.349 . S
C629 C645 1.349 . S
C630 C628 1.327 . S
C630 C649 1.429 . S
C630 H654 0.950 . S
C631 C648 1.581 . S
C631 C650 1.362 1_655 S
C631 H655 0.948 . S
H632 C636 0.948 . S
C633 C634 1.349 . S
C633 C635 1.327 . S
C633 H656 0.950 . S
C634 C633 1.349 . S
C634 C646 1.349 . S
C635 C633 1.327 . S
C635 C651 1.429 . S
C635 H657 0.950 . S
C636 H632 0.948 . S
C636 C644 1.582 1_556 S
C636 C652 1.361 1_455 S
H637 C645 0.950 . S
H638 C643 0.950 . S
H639 C644 0.949 . S
H640 C646 0.950 . S
H641 C647 0.950 . S
H642 C648 0.949 . S
C643 H638 0.950 . S
C643 C645 1.327 . S
C643 C649 1.429 . S
C644 C636 1.582 1_554 S
C644 H639 0.949 . S
C644 C650 1.368 . S
C645 C629 1.349 . S
C645 H637 0.950 . S
C645 C643 1.327 . S
C646 C634 1.349 . S
C646 H640 0.950 . S
C646 C647 1.327 . S
C647 H641 0.950 . S
C647 C646 1.327 . S
C647 C651 1.429 . S
C648 C631 1.581 . S
C648 H642 0.949 . S
C648 C652 1.368 1_554 S
C649 C630 1.429 . S
C649 C643 1.429 . S
C649 C650 1.523 . S
C650 C631 1.362 1_455 S
C650 C644 1.368 . S
C650 C649 1.523 . S
C651 C635 1.429 . S
C651 C647 1.429 . S
C651 C652 1.523 . S
C652 C636 1.361 1_655 S
C652 C648 1.368 1_556 S
C652 C651 1.523 . S
H653 C628 0.950 . S
H654 C630 0.950 . S
H655 C631 0.948 . S
H656 C633 0.950 . S
H657 C635 0.950 . S
C658 C659 1.349 . S
C658 C660 1.327 . S
C658 H683 0.950 . S
C659 C658 1.349 . S
C659 C675 1.349 . S
C660 C658 1.327 . S
C660 C679 1.429 . S
C660 H684 0.950 . S
C661 C678 1.574 . S
C661 C680 1.368 . S
C661 H685 0.949 . S
H662 C666 0.949 . S
C663 C664 1.349 . S
C663 C665 1.327 . S
C663 H686 0.950 . S
C664 C663 1.349 . S
C664 C676 1.349 . S
C665 C663 1.327 . S
C665 C681 1.429 . S
C665 H687 0.950 . S
C666 H662 0.949 . S
C666 C674 1.574 . S
C666 C682 1.368 . S
H667 C675 0.950 . S
H668 C673 0.950 . S
H669 C674 0.949 . S
H670 C676 0.950 . S
H671 C677 0.950 . S
H672 C678 0.949 . S
C673 H668 0.950 . S
C673 C675 1.327 . S
C673 C679 1.429 . S
C674 C666 1.574 . S
C674 H669 0.949 . S
C674 C680 1.368 . S
C675 C659 1.349 . S
C675 H667 0.950 . S
C675 C673 1.327 . S
C676 C664 1.349 . S
C676 H670 0.950 . S
C676 C677 1.327 . S
C677 H671 0.950 . S
C677 C676 1.327 . S
C677 C681 1.429 . S
C678 C661 1.574 . S
C678 H672 0.949 . S
C678 C682 1.368 . S
C679 C660 1.429 . S
C679 C673 1.429 . S
C679 C680 1.523 . S
C680 C661 1.368 . S
C680 C674 1.368 . S
C680 C679 1.523 . S
C681 C665 1.429 . S
C681 C677 1.429 . S
C681 C682 1.523 . S
C682 C666 1.368 . S
C682 C678 1.368 . S
C682 C681 1.523 . S
H683 C658 0.950 . S
H684 C660 0.950 . S
H685 C661 0.949 . S
H686 C663 0.950 . S
H687 C665 0.950 . S
C688 C689 1.349 . S
C688 C690 1.327 . S
C688 H713 0.950 . S
C689 C688 1.349 . S
C689 C705 1.349 . S
C690 C688 1.327 . S
C690 C709 1.429 . S
C690 H714 0.950 . S
C691 C708 1.574 . S
C691 C710 1.368 . S
C691 H715 0.949 . S
H692 C696 0.949 . S
C693 C694 1.349 . S
C693 C695 1.327 . S
C693 H716 0.950 . S
C694 C693 1.349 . S
C694 C706 1.349 . S
C695 C693 1.327 . S
C695 C711 1.429 . S
C695 H717 0.950 . S
C696 H692 0.949 . S
C696 C704 1.574 . S
C696 C712 1.368 . S
H697 C705 0.950 . S
H698 C703 0.950 . S
H699 C704 0.949 . S
H700 C706 0.950 . S
H701 C707 0.950 . S
H702 C708 0.949 . S
C703 H698 0.950 . S
C703 C705 1.327 . S
C703 C709 1.429 . S
C704 C696 1.574 . S
C704 H699 0.949 . S
C704 C710 1.368 . S
C705 C689 1.349 . S
C705 H697 0.950 . S
C705 C703 1.327 . S
C706 C694 1.349 . S
C706 H700 0.950 . S
C706 C707 1.327 . S
C707 H701 0.950 . S
C707 C706 1.327 . S
C707 C711 1.429 . S
C708 C691 1.574 . S
C708 H702 0.949 . S
C708 C712 1.368 . S
C709 C690 1.429 . S
C709 C703 1.429 . S
C709 C710 1.523 . S
C710 C691 1.368 . S
C710 C704 1.368 . S
C710 C709 1.523 . S
C711 C695 1.429 . S
C711 C707 1.429 . S
C711 C712 1.523 . S
C712 C696 1.368 . S
C712 C708 1.368 . S
C712 C711 1.523 . S
H713 C688 0.950 . S
H714 C690 0.950 . S
H715 C691 0.949 . S
H716 C693 0.950 . S
H717 C695 0.950 . S
C718 C719 1.349 . S
C718 C720 1.327 . S
C718 H743 0.950 . S
C719 C718 1.349 . S
C719 C735 1.349 . S
C720 C718 1.327 . S
C720 C739 1.429 . S
C720 H744 0.950 . S
C721 C738 1.574 . S
C721 C740 1.368 . S
C721 H745 0.949 . S
H722 C726 0.949 . S
C723 C724 1.349 . S
C723 C725 1.327 . S
C723 H746 0.950 . S
C724 C723 1.349 . S
C724 C736 1.349 . S
C725 C723 1.327 . S
C725 C741 1.429 . S
C725 H747 0.950 . S
C726 H722 0.949 . S
C726 C734 1.574 . S
C726 C742 1.368 . S
H727 C735 0.950 . S
H728 C733 0.950 . S
H729 C734 0.949 . S
H730 C736 0.950 . S
H731 C737 0.950 . S
H732 C738 0.949 . S
C733 H728 0.950 . S
C733 C735 1.327 . S
C733 C739 1.429 . S
C734 C726 1.574 . S
C734 H729 0.949 . S
C734 C740 1.368 . S
C735 C719 1.349 . S
C735 H727 0.950 . S
C735 C733 1.327 . S
C736 C724 1.349 . S
C736 H730 0.950 . S
C736 C737 1.327 . S
C737 H731 0.950 . S
C737 C736 1.327 . S
C737 C741 1.429 . S
C738 C721 1.574 . S
C738 H732 0.949 . S
C738 C742 1.368 . S
C739 C720 1.429 . S
C739 C733 1.429 . S
C739 C740 1.523 . S
C740 C721 1.368 . S
C740 C734 1.368 . S
C740 C739 1.523 . S
C741 C725 1.429 . S
C741 C737 1.429 . S
C741 C742 1.523 . S
C742 C726 1.368 . S
C742 C738 1.368 . S
C742 C741 1.523 . S
H743 C718 0.950 . S
H744 C720 0.950 . S
H745 C721 0.949 . S
H746 C723 0.950 . S
H747 C725 0.950 . S
C748 C749 1.349 . S
C748 C750 1.327 . S
C748 H773 0.950 . S
C749 C748 1.349 . S
C749 C765 1.349 . S
C750 C748 1.327 . S
C750 C769 1.429 . S
C750 H774 0.950 . S
C751 C768 1.574 . S
C751 C770 1.368 . S
C751 H775 0.949 . S
H752 C756 0.949 . S
C753 C754 1.349 . S
C753 C755 1.327 . S
C753 H776 0.950 . S
C754 C753 1.349 . S
C754 C766 1.349 . S
C755 C753 1.327 . S
C755 C771 1.429 . S
C755 H777 0.950 . S
C756 H752 0.949 . S
C756 C764 1.574 . S
C756 C772 1.368 . S
H757 C765 0.950 . S
H758 C763 0.950 . S
H759 C764 0.949 . S
H760 C766 0.950 . S
H761 C767 0.950 . S
H762 C768 0.949 . S
C763 H758 0.950 . S
C763 C765 1.327 . S
C763 C769 1.429 . S
C764 C756 1.574 . S
C764 H759 0.949 . S
C764 C770 1.368 . S
C765 C749 1.349 . S
C765 H757 0.950 . S
C765 C763 1.327 . S
C766 C754 1.349 . S
C766 H760 0.950 . S
C766 C767 1.327 . S
C767 H761 0.950 . S
C767 C766 1.327 . S
C767 C771 1.429 . S
C768 C751 1.574 . S
C768 H762 0.949 . S
C768 C772 1.368 . S
C769 C750 1.429 . S
C769 C763 1.429 . S
C769 C770 1.523 . S
C770 C751 1.368 . S
C770 C764 1.368 . S
C770 C769 1.523 . S
C771 C755 1.429 . S
C771 C767 1.429 . S
C771 C772 1.523 . S
C772 C756 1.368 . S
C772 C768 1.368 . S
C772 C771 1.523 . S
H773 C748 0.950 . S
H774 C750 0.950 . S
H775 C751 0.949 . S
H776 C753 0.950 . S
H777 C755 0.950 . S
C778 C779 1.349 . S
C778 C780 1.327 . S
C778 H803 0.950 . S
C779 C778 1.349 . S
C779 C795 1.349 1_556 S
C780 C778 1.327 . S
C780 C799 1.429 . S
C780 H804 0.950 . S
C781 C798 1.574 . S
C781 C800 1.368 . S
C781 H805 0.949 . S
H782 C786 0.949 . S
C783 C784 1.349 . S
C783 C785 1.327 . S
C783 H806 0.950 . S
C784 C783 1.349 . S
C784 C796 1.349 . S
C785 C783 1.327 . S
C785 C801 1.429 . S
C785 H807 0.950 . S
C786 H782 0.949 . S
C786 C794 1.574 . S
C786 C802 1.368 . S
H787 C795 0.950 . S
H788 C793 0.950 1_554 S
H789 C794 0.949 . S
H790 C796 0.950 . S
H791 C797 0.950 . S
H792 C798 0.949 . S
C793 H788 0.950 1_556 S
C793 C795 1.327 1_556 S
C793 C799 1.429 . S
C794 C786 1.574 . S
C794 H789 0.949 . S
C794 C800 1.368 . S
C795 C779 1.349 1_554 S
C795 H787 0.950 . S
C795 C793 1.327 1_554 S
C796 C784 1.349 . S
C796 H790 0.950 . S
C796 C797 1.327 . S
C797 H791 0.950 . S
C797 C796 1.327 . S
C797 C801 1.429 . S
C798 C781 1.574 . S
C798 H792 0.949 . S
C798 C802 1.368 . S
C799 C780 1.429 . S
C799 C793 1.429 . S
C799 C800 1.523 . S
C800 C781 1.368 . S
C800 C794 1.368 . S
C800 C799 1.523 . S
C801 C785 1.429 . S
C801 C797 1.429 . S
C801 C802 1.523 . S
C802 C786 1.368 . S
C802 C798 1.368 . S
C802 C801 1.523 . S
H803 C778 0.950 . S
H804 C780 0.950 . S
H805 C781 0.949 . S
H806 C783 0.950 . S
H807 C785 0.950 . S
C808 C809 1.349 . S
C808 C810 1.327 . S
C808 H833 0.950 . S
C809 C808 1.349 . S
C809 C825 1.349 . S
C810 C808 1.327 . S
C810 C829 1.429 . S
C810 H834 0.950 . S
C811 C828 1.574 . S
C811 C830 1.368 . S
C811 H835 0.949 . S
H812 C816 0.949 . S
C813 C814 1.349 . S
C813 C815 1.327 . S
C813 H836 0.950 . S
C814 C813 1.349 . S
C814 C826 1.349 . S
C815 C813 1.327 . S
C815 C831 1.429 . S
C815 H837 0.950 . S
C816 H812 0.949 . S
C816 C824 1.574 . S
C816 C832 1.368 . S
H817 C825 0.950 . S
H818 C823 0.950 . S
H819 C824 0.949 . S
H820 C826 0.950 . S
H821 C827 0.950 . S
H822 C828 0.949 . S
C823 H818 0.950 . S
C823 C825 1.327 . S
C823 C829 1.429 . S
C824 C816 1.574 . S
C824 H819 0.949 . S
C824 C830 1.368 . S
C825 C809 1.349 . S
C825 H817 0.950 . S
C825 C823 1.327 . S
C826 C814 1.349 . S
C826 H820 0.950 . S
C826 C827 1.327 . S
C827 H821 0.950 . S
C827 C826 1.327 . S
C827 C831 1.429 . S
C828 C811 1.574 . S
C828 H822 0.949 . S
C828 C832 1.368 . S
C829 C810 1.429 . S
C829 C823 1.429 . S
C829 C830 1.523 . S
C830 C811 1.368 . S
C830 C824 1.368 . S
C830 C829 1.523 . S
C831 C815 1.429 . S
C831 C827 1.429 . S
C831 C832 1.523 . S
C832 C816 1.368 . S
C832 C828 1.368 . S
C832 C831 1.523 . S
H833 C808 0.950 . S
H834 C810 0.950 . S
H835 C811 0.949 . S
H836 C813 0.950 . S
H837 C815 0.950 . S
C838 C839 1.349 . S
C838 C840 1.327 . S
C838 H863 0.950 . S
C839 C838 1.349 . S
C839 C855 1.349 . S
C840 C838 1.327 . S
C840 C859 1.429 . S
C840 H864 0.950 . S
C841 C858 1.574 . S
C841 C860 1.368 . S
C841 H865 0.949 . S
H842 C846 0.949 . S
C843 C844 1.349 . S
C843 C845 1.327 . S
C843 H866 0.950 . S
C844 C843 1.349 . S
C844 C856 1.349 . S
C845 C843 1.327 . S
C845 C861 1.429 . S
C845 H867 0.950 . S
C846 H842 0.949 . S
C846 C854 1.574 . S
C846 C862 1.368 . S
H847 C855 0.950 . S
H848 C853 0.950 . S
H849 C854 0.949 . S
H850 C856 0.950 . S
H851 C857 0.950 . S
H852 C858 0.949 . S
C853 H848 0.950 . S
C853 C855 1.327 . S
C853 C859 1.429 . S
C854 C846 1.574 . S
C854 H849 0.949 . S
C854 C860 1.368 . S
C855 C839 1.349 . S
C855 H847 0.950 . S
C855 C853 1.327 . S
C856 C844 1.349 . S
C856 H850 0.950 . S
C856 C857 1.327 . S
C857 H851 0.950 . S
C857 C856 1.327 . S
C857 C861 1.429 . S
C858 C841 1.574 . S
C858 H852 0.949 . S
C858 C862 1.368 . S
C859 C840 1.429 . S
C859 C853 1.429 . S
C859 C860 1.523 . S
C860 C841 1.368 . S
C860 C854 1.368 . S
C860 C859 1.523 . S
C861 C845 1.429 . S
C861 C857 1.429 . S
C861 C862 1.523 . S
C862 C846 1.368 . S
C862 C858 1.368 . S
C862 C861 1.523 . S
H863 C838 0.950 . S
H864 C840 0.950 . S
H865 C841 0.949 . S
H866 C843 0.950 . S
H867 C845 0.950 . S
C868 C869 1.349 . S
C868 C870 1.327 . S
C868 H893 0.950 . S
C869 C868 1.349 . S
C869 C885 1.349 . S
C870 C868 1.327 . S
C870 C889 1.429 . S
C870 H894 0.950 . S
C871 C888 1.574 . S
C871 C890 1.368 . S
C871 H895 0.949 . S
H872 C876 0.949 . S
C873 C874 1.349 . S
C873 C875 1.327 . S
C873 H896 0.939 1_556 S
C874 C873 1.349 . S
C874 C886 1.349 . S
C875 C873 1.327 . S
C875 C891 1.429 . S
C875 H897 0.950 . S
C876 H872 0.949 . S
C876 C884 1.574 . S
C876 C892 1.368 . S
H877 C885 0.950 . S
H878 C883 0.950 . S
H879 C884 0.949 . S
H880 C886 0.950 . S
H881 C887 0.950 . S
H882 C888 0.949 . S
C883 H878 0.950 . S
C883 C885 1.327 . S
C883 C889 1.429 . S
C884 C876 1.574 . S
C884 H879 0.949 . S
C884 C890 1.368 . S
C885 C869 1.349 . S
C885 H877 0.950 . S
C885 C883 1.327 . S
C886 C874 1.349 . S
C886 H880 0.950 . S
C886 C887 1.327 . S
C887 H881 0.950 . S
C887 C886 1.327 . S
C887 C891 1.429 . S
C888 C871 1.574 . S
C888 H882 0.949 . S
C888 C892 1.368 . S
C889 C870 1.429 . S
C889 C883 1.429 . S
C889 C890 1.523 . S
C890 C871 1.368 . S
C890 C884 1.368 . S
C890 C889 1.523 . S
C891 C875 1.429 . S
C891 C887 1.429 . S
C891 C892 1.523 . S
C892 C876 1.368 . S
C892 C888 1.368 . S
C892 C891 1.523 . S
H893 C868 0.950 . S
H894 C870 0.950 . S
H895 C871 0.949 . S
H896 C873 0.939 1_554 S
H897 C875 0.950 . S
C898 C899 1.349 . S
C898 C900 1.327 . S
C898 H923 0.950 . S
C899 C898 1.349 . S
C899 C915 1.349 . S
C900 C898 1.327 . S
C900 C919 1.429 . S
C900 H924 0.950 . S
C901 C918 1.574 . S
C901 C920 1.368 . S
C901 H925 0.949 . S
H902 C906 0.949 . S
C903 C904 1.349 . S
C903 C905 1.327 . S
C903 H926 0.950 . S
C904 C903 1.349 . S
C904 C916 1.349 . S
C905 C903 1.327 . S
C905 C921 1.429 . S
C905 H927 0.950 . S
C906 H902 0.949 . S
C906 C914 1.574 . S
C906 C922 1.368 . S
H907 C915 0.938 1_556 S
H908 C913 0.950 . S
H909 C914 0.949 . S
H910 C916 0.950 . S
H911 C917 0.950 . S
H912 C918 0.949 . S
C913 H908 0.950 . S
C913 C915 1.327 . S
C913 C919 1.429 . S
C914 C906 1.574 . S
C914 H909 0.949 . S
C914 C920 1.368 . S
C915 C899 1.349 . S
C915 H907 0.938 1_554 S
C915 C913 1.327 . S
C916 C904 1.349 . S
C916 H910 0.950 . S
C916 C917 1.327 . S
C917 H911 0.950 . S
C917 C916 1.327 . S
C917 C921 1.429 . S
C918 C901 1.574 . S
C918 H912 0.949 . S
C918 C922 1.368 . S
C919 C900 1.429 . S
C919 C913 1.429 . S
C919 C920 1.523 . S
C920 C901 1.368 . S
C920 C914 1.368 . S
C920 C919 1.523 . S
C921 C905 1.429 . S
C921 C917 1.429 . S
C921 C922 1.523 . S
C922 C906 1.368 . S
C922 C918 1.368 . S
C922 C921 1.523 . S
H923 C898 0.950 . S
H924 C900 0.950 . S
H925 C901 0.949 . S
H926 C903 0.950 . S
H927 C905 0.950 . S
C928 C929 1.349 . S
C928 C930 1.327 . S
C928 H953 0.950 . S
C929 C928 1.349 . S
C929 C945 1.349 1_556 S
C930 C928 1.327 . S
C930 C949 1.429 . S
C930 H954 0.950 . S
C931 C948 1.574 . S
C931 C950 1.368 . S
C931 H955 0.949 . S
H932 C936 0.949 . S
C933 C934 1.349 . S
C933 C935 1.327 . S
C933 H956 0.950 . S
C934 C933 1.349 . S
C934 C946 1.349 . S
C935 C933 1.327 . S
C935 C951 1.429 . S
C935 H957 0.950 . S
C936 H932 0.949 . S
C936 C944 1.574 . S
C936 C952 1.368 . S
H937 C945 0.950 . S
H938 C943 0.950 1_554 S
H939 C944 0.949 . S
H940 C946 0.950 . S
H941 C947 0.950 . S
H942 C948 0.949 . S
C943 H938 0.950 1_556 S
C943 C945 1.327 1_556 S
C943 C949 1.429 . S
C944 C936 1.574 . S
C944 H939 0.949 . S
C944 C950 1.368 . S
C945 C929 1.349 1_554 S
C945 H937 0.950 . S
C945 C943 1.327 1_554 S
C946 C934 1.349 . S
C946 H940 0.950 . S
C946 C947 1.327 . S
C947 H941 0.950 . S
C947 C946 1.327 . S
C947 C951 1.429 . S
C948 C931 1.574 . S
C948 H942 0.949 . S
C948 C952 1.368 . S
C949 C930 1.429 . S
C949 C943 1.429 . S
C949 C950 1.523 . S
C950 C931 1.368 . S
C950 C944 1.368 . S
C950 C949 1.523 . S
C951 C935 1.429 . S
C951 C947 1.429 . S
C951 C952 1.523 . S
C952 C936 1.368 . S
C952 C948 1.368 . S
C952 C951 1.523 . S
H953 C928 0.950 . S
H954 C930 0.950 . S
H955 C931 0.949 . S
H956 C933 0.950 . S
H957 C935 0.950 . S
C958 C959 1.349 . S
C958 C960 1.327 . S
C958 H983 0.950 . S
C959 C958 1.349 . S
C959 C975 1.349 . S
C960 C958 1.327 . S
C960 C979 1.429 . S
C960 H984 0.950 . S
C961 C978 1.574 . S
C961 C980 1.368 . S
C961 H985 0.949 . S
H962 C966 0.949 . S
C963 C964 1.349 . S
C963 C965 1.327 . S
C963 H986 0.950 . S
C964 C963 1.349 . S
C964 C976 1.349 . S
C965 C963 1.327 . S
C965 C981 1.429 . S
C965 H987 0.950 . S
C966 H962 0.949 . S
C966 C974 1.574 . S
C966 C982 1.368 . S
H967 C975 0.950 . S
H968 C973 0.950 . S
H969 C974 0.949 . S
H970 C976 0.950 . S
H971 C977 0.950 . S
H972 C978 0.949 . S
C973 H968 0.950 . S
C973 C975 1.327 . S
C973 C979 1.429 . S
C974 C966 1.574 . S
C974 H969 0.949 . S
C974 C980 1.368 . S
C975 C959 1.349 . S
C975 H967 0.950 . S
C975 C973 1.327 . S
C976 C964 1.349 . S
C976 H970 0.950 . S
C976 C977 1.327 . S
C977 H971 0.950 . S
C977 C976 1.327 . S
C977 C981 1.429 . S
C978 C961 1.574 . S
C978 H972 0.949 . S
C978 C982 1.368 . S
C979 C960 1.429 . S
C979 C973 1.429 . S
C979 C980 1.523 . S
C980 C961 1.368 . S
C980 C974 1.368 . S
C980 C979 1.523 . S
C981 C965 1.429 . S
C981 C977 1.429 . S
C981 C982 1.523 . S
C982 C966 1.368 . S
C982 C978 1.368 . S
C982 C981 1.523 . S
H983 C958 0.950 . S
H984 C960 0.950 . S
H985 C961 0.949 . S
H986 C963 0.950 . S
H987 C965 0.950 . S
C988 C989 1.349 . S
C988 C990 1.327 . S
C988 H1013 0.950 . S
C989 C988 1.349 . S
C989 C1005 1.349 . S
C990 C988 1.327 . S
C990 C1009 1.429 . S
C990 H1014 0.950 . S
C991 C1008 1.574 . S
C991 C1010 1.368 . S
C991 H1015 0.949 . S
H992 C996 0.949 . S
C993 C994 1.349 . S
C993 C995 1.327 . S
C993 H1016 0.950 . S
C994 C993 1.349 . S
C994 C1006 1.349 . S
C995 C993 1.327 . S
C995 C1011 1.429 . S
C995 H1017 0.950 . S
C996 H992 0.949 . S
C996 C1004 1.574 . S
C996 C1012 1.368 . S
H997 C1005 0.950 . S
H998 C1003 0.950 . S
H999 C1004 0.949 . S
H1000 C1006 0.950 . S
H1001 C1007 0.950 . S
H1002 C1008 0.949 . S
C1003 H998 0.950 . S
C1003 C1005 1.327 . S
C1003 C1009 1.429 . S
C1004 C996 1.574 . S
C1004 H999 0.949 . S
C1004 C1010 1.368 . S
C1005 C989 1.349 . S
C1005 H997 0.950 . S
C1005 C1003 1.327 . S
C1006 C994 1.349 . S
C1006 H1000 0.950 . S
C1006 C1007 1.327 . S
C1007 H1001 0.950 . S
C1007 C1006 1.327 . S
C1007 C1011 1.429 . S
C1008 C991 1.574 . S
C1008 H1002 0.949 . S
C1008 C1012 1.368 . S
C1009 C990 1.429 . S
C1009 C1003 1.429 . S
C1009 C1010 1.523 . S
C1010 C991 1.368 . S
C1010 C1004 1.368 . S
C1010 C1009 1.523 . S
C1011 C995 1.429 . S
C1011 C1007 1.429 . S
C1011 C1012 1.523 . S
C1012 C996 1.368 . S
C1012 C1008 1.368 . S
C1012 C1011 1.523 . S
H1013 C988 0.950 . S
H1014 C990 0.950 . S
H1015 C991 0.949 . S
H1016 C993 0.950 . S
H1017 C995 0.950 . S
C1018 C1019 1.349 . S
C1018 C1020 1.327 . S
C1018 H1043 0.950 . S
C1019 C1018 1.349 . S
C1019 C1035 1.349 . S
C1020 C1018 1.327 . S
C1020 C1039 1.429 . S
C1020 H1044 0.950 . S
C1021 C1038 1.574 . S
C1021 C1040 1.368 . S
C1021 H1045 0.949 . S
H1022 C1026 0.949 . S
C1023 C1024 1.349 . S
C1023 C1025 1.327 . S
C1023 H1046 0.950 . S
C1024 C1023 1.349 . S
C1024 C1036 1.349 . S
C1025 C1023 1.327 . S
C1025 C1041 1.429 . S
C1025 H1047 0.950 . S
C1026 H1022 0.949 . S
C1026 C1034 1.574 . S
C1026 C1042 1.368 . S
H1027 C1035 0.950 . S
H1028 C1033 0.950 . S
H1029 C1034 0.949 . S
H1030 C1036 0.950 . S
H1031 C1037 0.950 . S
H1032 C1038 0.949 . S
C1033 H1028 0.950 . S
C1033 C1035 1.327 . S
C1033 C1039 1.429 . S
C1034 C1026 1.574 . S
C1034 H1029 0.949 . S
C1034 C1040 1.368 . S
C1035 C1019 1.349 . S
C1035 H1027 0.950 . S
C1035 C1033 1.327 . S
C1036 C1024 1.349 . S
C1036 H1030 0.950 . S
C1036 C1037 1.327 . S
C1037 H1031 0.950 . S
C1037 C1036 1.327 . S
C1037 C1041 1.429 . S
C1038 C1021 1.574 . S
C1038 H1032 0.949 . S
C1038 C1042 1.368 . S
C1039 C1020 1.429 . S
C1039 C1033 1.429 . S
C1039 C1040 1.523 . S
C1040 C1021 1.368 . S
C1040 C1034 1.368 . S
C1040 C1039 1.523 . S
C1041 C1025 1.429 . S
C1041 C1037 1.429 . S
C1041 C1042 1.523 . S
C1042 C1026 1.368 . S
C1042 C1038 1.368 . S
C1042 C1041 1.523 . S
H1043 C1018 0.950 . S
H1044 C1020 0.950 . S
H1045 C1021 0.949 . S
H1046 C1023 0.950 . S
H1047 C1025 0.950 . S
C1048 C1049 1.349 . S
C1048 C1050 1.327 . S
C1048 H1073 0.950 . S
C1049 C1048 1.349 . S
C1049 C1065 1.349 . S
C1050 C1048 1.327 . S
C1050 C1069 1.429 . S
C1050 H1074 0.950 . S
C1051 C1068 1.574 . S
C1051 C1070 1.368 . S
C1051 H1075 0.949 . S
H1052 C1056 0.949 . S
C1053 C1054 1.349 . S
C1053 C1055 1.327 . S
C1053 H1076 0.950 . S
C1054 C1053 1.349 . S
C1054 C1066 1.349 . S
C1055 C1053 1.327 . S
C1055 C1071 1.429 . S
C1055 H1077 0.950 . S
C1056 H1052 0.949 . S
C1056 C1064 1.574 . S
C1056 C1072 1.368 . S
H1057 C1065 0.950 . S
H1058 C1063 0.950 . S
H1059 C1064 0.949 . S
H1060 C1066 0.950 . S
H1061 C1067 0.950 . S
H1062 C1068 0.949 . S
C1063 H1058 0.950 . S
C1063 C1065 1.327 . S
C1063 C1069 1.429 . S
C1064 C1056 1.574 . S
C1064 H1059 0.949 . S
C1064 C1070 1.368 . S
C1065 C1049 1.349 . S
C1065 H1057 0.950 . S
C1065 C1063 1.327 . S
C1066 C1054 1.349 . S
C1066 H1060 0.950 . S
C1066 C1067 1.327 . S
C1067 H1061 0.950 . S
C1067 C1066 1.327 . S
C1067 C1071 1.429 . S
C1068 C1051 1.574 . S
C1068 H1062 0.949 . S
C1068 C1072 1.368 . S
C1069 C1050 1.429 . S
C1069 C1063 1.429 . S
C1069 C1070 1.523 . S
C1070 C1051 1.368 . S
C1070 C1064 1.368 . S
C1070 C1069 1.523 . S
C1071 C1055 1.429 . S
C1071 C1067 1.429 . S
C1071 C1072 1.523 . S
C1072 C1056 1.368 . S
C1072 C1068 1.368 . S
C1072 C1071 1.523 . S
H1073 C1048 0.950 . S
H1074 C1050 0.950 . S
H1075 C1051 0.949 . S
H1076 C1053 0.950 . S
H1077 C1055 0.950 . S
C1078 C1079 1.349 . S
C1078 C1080 1.327 . S
C1078 H1103 0.950 . S
C1079 C1078 1.349 . S
C1079 C1095 1.349 . S
C1080 C1078 1.327 . S
C1080 C1099 1.429 . S
C1080 H1104 0.950 . S
C1081 C1098 1.574 . S
C1081 C1100 1.368 . S
C1081 H1105 0.949 . S
H1082 C1086 0.949 . S
C1083 C1084 1.349 . S
C1083 C1085 1.327 . S
C1083 H1106 0.950 . S
C1084 C1083 1.349 . S
C1084 C1096 1.349 . S
C1085 C1083 1.327 . S
C1085 C1101 1.429 . S
C1085 H1107 0.950 . S
C1086 H1082 0.949 . S
C1086 C1094 1.574 . S
C1086 C1102 1.368 . S
H1087 C1095 0.950 . S
H1088 C1093 0.950 . S
H1089 C1094 0.949 . S
H1090 C1096 0.950 . S
H1091 C1097 0.950 . S
H1092 C1098 0.949 . S
C1093 H1088 0.950 . S
C1093 C1095 1.327 . S
C1093 C1099 1.429 . S
C1094 C1086 1.574 . S
C1094 H1089 0.949 . S
C1094 C1100 1.368 . S
C1095 C1079 1.349 . S
C1095 H1087 0.950 . S
C1095 C1093 1.327 . S
C1096 C1084 1.349 . S
C1096 H1090 0.950 . S
C1096 C1097 1.327 . S
C1097 H1091 0.950 . S
C1097 C1096 1.327 . S
C1097 C1101 1.429 . S
C1098 C1081 1.574 . S
C1098 H1092 0.949 . S
C1098 C1102 1.368 . S
C1099 C1080 1.429 . S
C1099 C1093 1.429 . S
C1099 C1100 1.523 . S
C1100 C1081 1.368 . S
C1100 C1094 1.368 . S
C1100 C1099 1.523 . S
C1101 C1085 1.429 . S
C1101 C1097 1.429 . S
C1101 C1102 1.523 . S
C1102 C1086 1.368 . S
C1102 C1098 1.368 . S
C1102 C1101 1.523 . S
H1103 C1078 0.950 . S
H1104 C1080 0.950 . S
H1105 C1081 0.949 . S
H1106 C1083 0.950 . S
H1107 C1085 0.950 . S
C1108 C1109 1.349 . S
C1108 C1110 1.327 . S
C1108 H1133 0.950 . S
C1109 C1108 1.349 . S
C1109 C1125 1.349 . S
C1110 C1108 1.327 . S
C1110 C1129 1.429 . S
C1110 H1134 0.950 . S
C1111 C1128 1.574 . S
C1111 C1130 1.368 . S
C1111 H1135 0.949 . S
H1112 C1116 0.949 . S
C1113 C1114 1.349 . S
C1113 C1115 1.327 . S
C1113 H1136 0.950 1_554 S
C1114 C1113 1.349 . S
C1114 C1126 1.349 . S
C1115 C1113 1.327 . S
C1115 C1131 1.429 . S
C1115 H1137 0.950 . S
C1116 H1112 0.949 . S
C1116 C1124 1.574 . S
C1116 C1132 1.368 . S
H1117 C1125 0.950 . S
H1118 C1123 0.950 . S
H1119 C1124 0.949 . S
H1120 C1126 0.950 . S
H1121 C1127 0.950 . S
H1122 C1128 0.949 . S
C1123 H1118 0.950 . S
C1123 C1125 1.327 . S
C1123 C1129 1.429 . S
C1124 C1116 1.574 . S
C1124 H1119 0.949 . S
C1124 C1130 1.368 . S
C1125 C1109 1.349 . S
C1125 H1117 0.950 . S
C1125 C1123 1.327 . S
C1126 C1114 1.349 . S
C1126 H1120 0.950 . S
C1126 C1127 1.327 . S
C1127 H1121 0.950 . S
C1127 C1126 1.327 . S
C1127 C1131 1.429 . S
C1128 C1111 1.574 . S
C1128 H1122 0.949 . S
C1128 C1132 1.368 . S
C1129 C1110 1.429 . S
C1129 C1123 1.429 . S
C1129 C1130 1.523 . S
C1130 C1111 1.368 . S
C1130 C1124 1.368 . S
C1130 C1129 1.523 . S
C1131 C1115 1.429 . S
C1131 C1127 1.429 . S
C1131 C1132 1.523 . S
C1132 C1116 1.368 . S
C1132 C1128 1.368 . S
C1132 C1131 1.523 . S
H1133 C1108 0.950 . S
H1134 C1110 0.950 . S
H1135 C1111 0.949 . S
H1136 C1113 0.950 1_556 S
H1137 C1115 0.950 . S
C1138 C1139 1.349 . S
C1138 C1140 1.327 . S
C1138 H1163 0.950 1_556 S
C1139 C1138 1.349 . S
C1139 C1155 1.349 . S
C1140 C1138 1.327 . S
C1140 C1159 1.429 . S
C1140 H1164 0.950 . S
C1141 C1158 1.574 . S
C1141 C1160 1.368 . S
C1141 H1165 0.949 . S
H1142 C1146 0.949 . S
C1143 C1144 1.349 . S
C1143 C1145 1.327 . S
C1143 H1166 0.950 . S
C1144 C1143 1.349 . S
C1144 C1156 1.349 . S
C1145 C1143 1.327 . S
C1145 C1161 1.429 . S
C1145 H1167 0.950 . S
C1146 H1142 0.949 . S
C1146 C1154 1.574 . S
C1146 C1162 1.368 . S
H1147 C1155 0.950 . S
H1148 C1153 0.950 . S
H1149 C1154 0.949 . S
H1150 C1156 0.950 . S
H1151 C1157 0.950 . S
H1152 C1158 0.949 . S
C1153 H1148 0.950 . S
C1153 C1155 1.327 . S
C1153 C1159 1.429 . S
C1154 C1146 1.574 . S
C1154 H1149 0.949 . S
C1154 C1160 1.368 . S
C1155 C1139 1.349 . S
C1155 H1147 0.950 . S
C1155 C1153 1.327 . S
C1156 C1144 1.349 . S
C1156 H1150 0.950 . S
C1156 C1157 1.327 . S
C1157 H1151 0.950 . S
C1157 C1156 1.327 . S
C1157 C1161 1.429 . S
C1158 C1141 1.574 . S
C1158 H1152 0.949 . S
C1158 C1162 1.368 . S
C1159 C1140 1.429 . S
C1159 C1153 1.429 . S
C1159 C1160 1.523 . S
C1160 C1141 1.368 . S
C1160 C1154 1.368 . S
C1160 C1159 1.523 . S
C1161 C1145 1.429 . S
C1161 C1157 1.429 . S
C1161 C1162 1.523 . S
C1162 C1146 1.368 . S
C1162 C1158 1.368 . S
C1162 C1161 1.523 . S
H1163 C1138 0.950 1_554 S
H1164 C1140 0.950 . S
H1165 C1141 0.949 . S
H1166 C1143 0.950 . S
H1167 C1145 0.950 . S
C209 C10 1.153 . S
C214 C166 1.153 . S
C239 C18 0.898 . S
C244 C70 0.898 . S
C269 C36 1.153 . S
C274 C192 1.153 . S
C299 C96 0.898 . S
C304 C44 0.898 . S
C329 C187 0.898 . S
C334 C31 0.898 . S
C359 C101 1.153 . S
C364 C49 1.153 . S
C389 C161 0.898 . S
C394 C5 0.898 . S
C419 C75 1.153 . S
C424 C23 1.153 . S
C449 C62 1.153 . S
C454 C114 1.153 . S
C479 C88 1.153 . S
C484 C140 1.153 . S
C509 C135 0.898 . S
C514 C83 0.898 . S
C539 C57 0.898 . S
C544 C109 0.898 . S
C569 C174 0.898 . S
C574 C122 0.898 . S
C599 C148 0.897 . S
C604 C200 0.897 . S
C629 C153 1.153 . S
C634 C205 1.153 . S
C659 C127 1.154 . S
C664 C179 1.154 . S
C689 C143 1.411 . S
C694 C0 1.411 . S
C719 C112 1.441 . S
C724 C21 1.441 . S
C749 C26 1.410 . S
C754 C117 1.410 . S
C779 C138 1.442 . S
C784 C47 1.442 . S
C809 C151 1.441 . S
C814 C34 1.441 . S
C839 C39 1.410 . S
C844 C104 1.410 . S
C869 C125 1.441 . S
C874 C8 1.441 . S
C899 C130 1.410 . S
C904 C13 1.410 . S
C929 C52 1.410 . S
C934 C195 1.410 . S
C959 C164 1.441 . S
C964 C73 1.441 . S
C989 C78 1.410 . S
C994 C169 1.410 . S
C1019 C99 1.441 . S
C1024 C190 1.441 . S
C1049 C86 1.442 . S
C1054 C203 1.442 . S
C1079 C156 1.411 . S
C1084 C91 1.411 . S
C1109 C177 1.441 . S
C1114 C60 1.441 . S
C1139 C182 1.410 . S
C1144 C65 1.410 . S
