# Generated by pormake.
# Topology smu, (6)-cn, num edge types: 1
# Building blocks:
#     Node 0, Type 0, BuildingBlock: BETDEL_clean_sbu_0, # of connection points: 6
#     Node 1, Type 0, BuildingBlock: BETDEL_clean_sbu_0, # of connection points: 6
#     Node 2, Type 0, BuildingBlock: BETDEL_clean_sbu_0, # of connection points: 6
#     Node 3, Type 0, BuildingBlock: BETDEL_clean_sbu_0, # of connection points: 6
#     Node 4, Type 0, BuildingBlock: BETDEL_clean_sbu_0, # of connection points: 6
#     Node 5, Type 0, BuildingBlock: BETDEL_clean_sbu_0, # of connection points: 6
#     Edge 6, Type (0, 0), BuildingBlock: FUNLAD_clean_linker_0, # of connection points: 2
#     Edge 7, Type (0, 0), BuildingBlock: FUNLAD_clean_linker_0, # of connection points: 2
#     Edge 8, Type (0, 0), BuildingBlock: FUNLAD_clean_linker_0, # of connection points: 2
#     Edge 9, Type (0, 0), BuildingBlock: FUNLAD_clean_linker_0, # of connection points: 2
#     Edge 10, Type (0, 0), BuildingBlock: FUNLAD_clean_linker_0, # of connection points: 2
#     Edge 11, Type (0, 0), BuildingBlock: FUNLAD_clean_linker_0, # of connection points: 2
#     Edge 12, Type (0, 0), BuildingBlock: FUNLAD_clean_linker_0, # of connection points: 2
#     Edge 13, Type (0, 0), BuildingBlock: FUNLAD_clean_linker_0, # of connection points: 2
#     Edge 14, Type (0, 0), BuildingBlock: FUNLAD_clean_linker_0, # of connection points: 2
#     Edge 15, Type (0, 0), BuildingBlock: FUNLAD_clean_linker_0, # of connection points: 2
#     Edge 16, Type (0, 0), BuildingBlock: FUNLAD_clean_linker_0, # of connection points: 2
#     Edge 17, Type (0, 0), BuildingBlock: FUNLAD_clean_linker_0, # of connection points: 2
#     Edge 18, Type (0, 0), BuildingBlock: FUNLAD_clean_linker_0, # of connection points: 2
#     Edge 19, Type (0, 0), BuildingBlock: FUNLAD_clean_linker_0, # of connection points: 2
#     Edge 20, Type (0, 0), BuildingBlock: FUNLAD_clean_linker_0, # of connection points: 2
#     Edge 21, Type (0, 0), BuildingBlock: FUNLAD_clean_linker_0, # of connection points: 2
#     Edge 22, Type (0, 0), BuildingBlock: FUNLAD_clean_linker_0, # of connection points: 2
#     Edge 23, Type (0, 0), BuildingBlock: FUNLAD_clean_linker_0, # of connection points: 2
# Relax obj value: 0.188
# Max RMSD: 0.262
# Mean RMSD: 0.262
data_MOF--net-smu--node1-BETDEL_clean_sbu_0--edge1-FUNLAD_clean_linker_0
_symmetry_space_group_name_H-M    P1
_symmetry_Int_Tables_number       1
_symmetry_cell_setting            triclinic
loop_
_symmetry_equiv_pos_as_xyz
'x, y, z'
_cell_length_a     36.261423
_cell_length_b     36.533847
_cell_length_c     31.297794
_cell_angle_alpha  90.192129
_cell_angle_beta   89.6999
_cell_angle_gamma 119.85481
loop_
_atom_site_label
_atom_site_type_symbol
_atom_site_fract_x
_atom_site_fract_y
_atom_site_fract_z
_atom_type_partial_charge
Dy0 Dy 0.36892 0.08897 0.27928 0.0
C1 C 0.23956 0.13343 0.29797 0.0
C2 C 0.43411 0.07312 0.26316 0.0
Dy3 Dy 0.29539 0.10524 0.283 0.0
O4 O 0.41069 0.06192 0.29742 0.0
O5 O 0.42028 0.09089 0.23684 0.0
O6 O 0.39046 0.12004 0.34384 0.0
O7 O 0.32627 0.08665 0.33054 0.0
C8 C 0.35271 0.10827 0.35877 0.0
C9 C 0.30295 0.07518 0.20759 0.0
O10 O 0.34932 0.17123 0.27845 0.0
O11 O 0.40453 0.15845 0.26451 0.0
O12 O 0.23379 0.10389 0.2712 0.0
O13 O 0.27538 0.14674 0.3178 0.0
O14 O 0.26729 0.0691 0.22344 0.0
O15 O 0.33387 0.1015 0.2302 0.0
O16 O 0.31147 0.02276 0.27689 0.0
O17 O 0.26631 0.0412 0.31148 0.0
C18 C 0.38959 0.1847 0.26923 0.0
C19 C 0.27516 0.01223 0.29724 0.0
Dy20 Dy 0.73115 0.63878 0.28667 0.0
C21 C 0.90577 0.75835 0.32054 0.0
C22 C 0.65931 0.56436 0.26821 0.0
Dy23 Dy 0.82131 0.70975 0.30377 0.0
O24 O 0.67942 0.57425 0.30422 0.0
O25 O 0.67798 0.59588 0.24152 0.0
O26 O 0.70663 0.65236 0.34579 0.0
O27 O 0.76988 0.66428 0.34529 0.0
C28 C 0.742 0.66813 0.36678 0.0
C29 C 0.795 0.70748 0.22312 0.0
O30 O 0.83026 0.6545 0.31358 0.0
O31 O 0.76746 0.60346 0.28379 0.0
O32 O 0.88934 0.73096 0.28997 0.0
O33 O 0.87584 0.76 0.34239 0.0
O34 O 0.822 0.74155 0.24278 0.0
O35 O 0.78637 0.67558 0.24599 0.0
O36 O 0.72603 0.69752 0.2754 0.0
O37 O 0.78447 0.74202 0.31759 0.0
C38 C 0.80585 0.61591 0.29915 0.0
C39 C 0.74928 0.73354 0.29684 0.0
Dy40 Dy 0.91845 0.27754 0.27854 0.0
C41 C 0.86595 0.10112 0.27463 0.0
C42 C 0.93382 0.35838 0.26672 0.0
Dy43 Dy 0.89807 0.18638 0.27458 0.0
O44 O 0.94012 0.34364 0.30194 0.0
O45 O 0.92182 0.32963 0.23726 0.0
O46 O 0.88934 0.26571 0.34463 0.0
O47 O 0.91936 0.23333 0.32503 0.0
C48 C 0.90006 0.23812 0.35601 0.0
C49 C 0.93352 0.22973 0.20345 0.0
O50 O 0.833 0.17826 0.28046 0.0
O51 O 0.84886 0.24597 0.26384 0.0
O52 O 0.87237 0.12429 0.24116 0.0
O53 O 0.87797 0.12468 0.30879 0.0
O54 O 0.93871 0.19928 0.21752 0.0
O55 O 0.90602 0.23327 0.22589 0.0
O56 O 0.98462 0.28562 0.27625 0.0
O57 O 0.96484 0.21709 0.29815 0.0
C58 C 0.82097 0.20579 0.27064 0.0
C59 C 0.99421 0.25683 0.28989 0.0
Dy60 Dy 0.05214 0.30766 0.77718 0.0
C61 C 0.23056 0.42338 0.77916 0.0
C62 C 0.97431 0.23781 0.7631 0.0
Dy63 Dy 0.14557 0.36525 0.77263 0.0
O64 O 0.98692 0.25812 0.79903 0.0
O65 O 1.00328 0.25757 0.73413 0.0
O66 O 0.0469 0.33163 0.83978 0.0
O67 O 0.10236 0.32777 0.82612 0.0
C68 C 0.08403 0.33977 0.85325 0.0
C69 C 0.10377 0.33741 0.69671 0.0
O70 O 0.14687 0.30946 0.79698 0.0
O71 O 0.08051 0.26428 0.77053 0.0
O72 O 0.21393 0.39307 0.75136 0.0
O73 O 0.20066 0.4224 0.803 0.0
O74 O 0.14092 0.34157 0.70334 0.0
O75 O 0.09312 0.34957 0.72918 0.0
O76 O 0.05226 0.36903 0.76607 0.0
O77 O 0.12324 0.41128 0.78516 0.0
C78 C 0.1177 0.27143 0.78536 0.0
C79 C 0.08515 0.4063 0.77724 0.0
Dy80 Dy 0.26689 0.96244 0.77824 0.0
C81 C 0.20635 0.78517 0.7777 0.0
C82 C 0.273 0.03959 0.76672 0.0
Dy83 Dy 0.23286 0.8697 0.77326 0.0
O84 O 0.27615 0.02438 0.80305 0.0
O85 O 0.26906 0.01361 0.73636 0.0
O86 O 0.29955 0.96715 0.83856 0.0
O87 O 0.23984 0.91242 0.82746 0.0
C88 C 0.27112 0.93058 0.85323 0.0
C89 C 0.23924 0.90946 0.69803 0.0
O90 O 0.17631 0.86842 0.80095 0.0
O91 O 0.19504 0.93321 0.77298 0.0
O92 O 0.19171 0.80243 0.75179 0.0
O93 O 0.23611 0.81424 0.80114 0.0
O94 O 0.20809 0.87211 0.70677 0.0
O95 O 0.26499 0.92162 0.72817 0.0
O96 O 0.32899 0.96446 0.76388 0.0
O97 O 0.30256 0.89265 0.77619 0.0
C98 C 0.16588 0.89639 0.78879 0.0
C99 C 0.33456 0.93134 0.76918 0.0
Dy100 Dy 0.71109 0.75225 0.79335 0.0
C101 C 0.59376 0.81179 0.79258 0.0
C102 C 0.77853 0.74083 0.77477 0.0
Dy103 Dy 0.65493 0.78841 0.79154 0.0
O104 O 0.75473 0.72664 0.80865 0.0
O105 O 0.76402 0.75929 0.75034 0.0
O106 O 0.68802 0.7222 0.85582 0.0
O107 O 0.692 0.78131 0.8448 0.0
C108 C 0.68077 0.751 0.87136 0.0
C109 C 0.68656 0.78114 0.71493 0.0
O110 O 0.71152 0.84773 0.80971 0.0
O111 O 0.75714 0.82346 0.79111 0.0
O112 O 0.59335 0.78251 0.76877 0.0
O113 O 0.62721 0.82782 0.81667 0.0
O114 O 0.68387 0.81403 0.72556 0.0
O115 O 0.67176 0.75489 0.74451 0.0
O116 O 0.64805 0.69387 0.77885 0.0
O117 O 0.61056 0.72217 0.81124 0.0
C118 C 0.75 0.85457 0.80192 0.0
C119 C 0.61225 0.6893 0.79587 0.0
C120 C 0.30689 0.94197 0.92298 0.0
C121 C 0.2686 0.92503 0.90007 0.0
C122 C 0.30791 0.95014 0.96672 0.0
C123 C 0.27055 0.94179 0.98855 0.0
C124 C 0.23162 0.92092 0.96647 0.0
C125 C 0.23061 0.91274 0.92249 0.0
C126 C 0.27126 0.95652 1.03327 0.0
C127 C 0.30497 0.99114 0.05025 0.0
C128 C 0.30423 0.01059 0.0922 0.0
C129 C 0.34285 0.041 0.11088 0.0
C130 C 0.34318 0.06209 0.14868 0.0
C131 C 0.30478 0.05337 0.16829 0.0
H132 H 0.23538 0.97986 0.09897 0.0
C133 C 0.26633 0.02282 0.14984 0.0
C134 C 0.26596 1.00186 0.11237 0.0
H135 H 0.23609 0.01527 0.16414 0.0
H136 H 0.33664 0.95152 0.9064 0.0
H137 H 0.33826 0.96439 0.98284 0.0
H138 H 0.2022 0.91345 0.98264 0.0
H139 H 0.20072 0.90002 0.90558 0.0
H140 H 0.24179 0.93994 0.05118 0.0
H141 H 0.33423 0.00757 1.0319 0.0
H142 H 0.37289 0.04878 0.09595 0.0
H143 H 0.37327 0.08549 0.16214 0.0
C144 C 0.7222 0.80451 0.64256 0.0
C145 C 0.70538 0.77445 0.67547 0.0
C146 C 0.73902 0.79645 0.60538 0.0
C147 C 0.73949 0.7582 0.60067 0.0
C148 C 0.72376 0.72897 0.63424 0.0
C149 C 0.70652 0.73672 0.67082 0.0
C150 C 0.75406 0.74636 0.56086 0.0
C151 C 0.75008 0.75917 0.52175 0.0
C152 C 0.75185 0.73784 0.48178 0.0
C153 C 0.72146 0.7302 0.4505 0.0
C154 C 0.71908 0.70769 0.41372 0.0
C155 C 0.74814 0.69349 0.406 0.0
H156 H 0.80553 0.72979 0.49799 0.0
C157 C 0.77992 0.70237 0.43641 0.0
C158 C 0.7814 0.72394 0.47447 0.0
H159 H 0.80264 0.69171 0.43135 0.0
H160 H 0.72206 0.834 0.6454 0.0
H161 H 0.75166 0.82019 0.58056 0.0
H162 H 0.72366 0.69933 0.6317 0.0
H163 H 0.69387 0.71283 0.69556 0.0
H164 H 0.76235 0.72165 0.56326 0.0
H165 H 0.73788 0.78084 0.51898 0.0
H166 H 0.6984 0.74053 0.45513 0.0
H167 H 0.69425 0.70166 0.39097 0.0
C168 C 0.99204 0.25072 0.15106 0.0
C169 C 0.95819 0.2556 0.16634 0.0
C170 C 0.01471 0.27164 0.11448 0.0
C171 C 1.00436 0.29846 0.09182 0.0
C172 C 0.97116 0.30434 0.10783 0.0
C173 C 0.94836 0.28326 0.14487 0.0
C174 C 0.02503 0.31807 0.05001 0.0
C175 C 0.05934 0.31754 1.03318 0.0
C176 C 0.07449 0.33059 0.98841 0.0
C177 C 0.09339 0.31048 0.96611 0.0
C178 C 0.10144 0.31678 0.92202 0.0
C179 C 0.09104 0.34366 0.89981 0.0
H180 H 0.05558 0.3782 0.98304 0.0
C181 C 0.07636 0.36699 0.92291 0.0
C182 C 0.06827 0.36068 0.96673 0.0
H183 H 0.06825 0.38807 0.90642 0.0
H184 H 1.00074 0.22984 0.16702 0.0
H185 H 0.03927 0.26522 0.10379 0.0
H186 H 0.96223 0.32467 0.09113 0.0
H187 H 0.92249 0.28768 0.15591 0.0
H188 H 0.00938 0.33128 1.03124 0.0
H189 H 0.07509 0.30392 0.05096 0.0
H190 H 0.0992 0.28762 0.98219 0.0
H191 H 0.11229 0.29804 0.90491 0.0
C192 C 0.29922 0.07425 0.41751 0.0
C193 C 0.34205 0.09786 0.40461 0.0
C194 C 0.28836 0.05629 0.45834 0.0
C195 C 0.3202 0.06158 0.48733 0.0
C196 C 0.36302 0.08775 0.47541 0.0
C197 C 0.37386 0.10557 0.4345 0.0
C198 C 0.3105 0.04023 0.52991 0.0
C199 C 0.2736 0.00474 0.53979 0.0
C200 C 0.26494 0.98124 0.58125 0.0
C201 C 0.2273 0.94194 0.58571 0.0
C202 C 0.21836 0.91836 0.62357 0.0
C203 C 0.24699 0.93357 0.65779 0.0
H204 H 0.32206 0.02661 0.61527 0.0
C205 C 0.28435 0.97282 0.65354 0.0
C206 C 0.29309 0.9965 0.61612 0.0
H207 H 0.30719 0.98544 0.67931 0.0
H208 H 0.27391 0.06816 0.39539 0.0
H209 H 0.25502 0.0379 0.46665 0.0
H210 H 0.38831 0.09307 0.49723 0.0
H211 H 0.40714 0.12365 0.42567 0.0
H212 H 0.33634 0.05322 0.55262 0.0
H213 H 0.24892 0.99079 0.51575 0.0
H214 H 0.20478 0.92923 0.55967 0.0
H215 H 0.18928 0.88823 0.62593 0.0
C216 C 0.65867 0.71727 0.94222 0.0
C217 C 0.68083 0.75465 0.91838 0.0
C218 C 0.66815 0.71601 0.98523 0.0
C219 C 0.70046 0.75218 1.00538 0.0
C220 C 0.71974 0.79056 0.9826 0.0
C221 C 0.71017 0.79181 0.93935 0.0
C222 C 0.71618 0.75059 0.04905 0.0
C223 C 0.71444 0.71549 0.06566 0.0
C224 C 0.73438 0.71402 0.10698 0.0
C225 C 0.7237 0.67453 0.12489 0.0
C226 C 0.74316 0.67176 0.16254 0.0
C227 C 0.77396 0.70852 0.18294 0.0
H228 H 0.77579 0.78178 0.1149 0.0
C229 C 0.78474 0.74789 0.16502 0.0
C230 C 0.7654 0.75069 0.12765 0.0
H231 H 0.80843 0.77692 0.1799 0.0
H232 H 0.63581 0.68817 0.92675 0.0
H233 H 0.6511 0.68627 1.00201 0.0
H234 H 0.74424 0.81913 0.99749 0.0
H235 H 0.72813 0.82092 0.92163 0.0
H236 H 0.73204 0.78014 0.06646 0.0
H237 H 0.69886 0.68628 0.04758 0.0
H238 H 0.70025 0.64563 0.1096 0.0
H239 H 0.73429 0.64101 0.17549 0.0
C240 C 0.91662 0.26653 0.43105 0.0
C241 C 0.91513 0.23789 0.40009 0.0
C242 C 0.9404 0.27385 0.46852 0.0
C243 C 0.96297 0.25224 0.47631 0.0
C244 C 0.95939 0.22194 0.44628 0.0
C245 C 0.93575 0.21477 0.4088 0.0
C246 C 0.99251 0.26204 0.51352 0.0
C247 C 0.99289 0.28445 0.54809 0.0
C248 C 0.02253 0.29606 0.5853 0.0
C249 C 0.01259 0.31169 0.62191 0.0
C250 C 0.03922 0.32479 0.65736 0.0
C251 C 0.07698 0.32285 0.65765 0.0
H252 H 0.06986 0.28284 0.55746 0.0
C253 C 0.08744 0.30725 0.6212 0.0
C254 C 0.06046 0.29395 0.58523 0.0
H255 H 0.11637 0.30548 0.62043 0.0
H256 H 0.90164 0.28532 0.42517 0.0
H257 H 0.94247 0.29804 0.48993 0.0
H258 H 0.97615 0.20467 0.45109 0.0
H259 H 0.93549 0.19263 0.38551 0.0
H260 H 0.01428 0.24977 0.5123 0.0
H261 H 0.96921 0.29422 0.5504 0.0
H262 H 0.98395 0.31401 0.6232 0.0
H263 H 0.03001 0.33669 0.68471 0.0
C264 C 0.50448 0.09983 0.22687 0.0
C265 C 0.47637 0.07639 0.26002 0.0
C266 C 0.54711 0.10987 0.22802 0.0
C267 C 0.56248 0.0966 0.26241 0.0
C268 C 0.53361 0.07085 0.29404 0.0
C269 C 0.49107 0.0611 0.29306 0.0
C270 C 0.60827 0.10928 0.26662 0.0
C271 C 0.64024 0.14581 0.25085 0.0
C272 C 0.68635 0.16034 0.25692 0.0
C273 C 0.71624 0.20333 0.25118 0.0
C274 C 0.75985 0.21829 0.256 0.0
C275 C 0.7747 0.19051 0.26645 0.0
H276 H 0.67972 0.09899 0.27065 0.0
C277 C 0.74482 0.14744 0.27199 0.0
C278 C 0.70127 0.1325 0.26714 0.0
H279 H 0.75501 0.12496 0.27965 0.0
H280 H 0.494 0.11192 0.2009 0.0
H281 H 0.56795 0.12842 0.2022 0.0
H282 H 0.54437 0.05963 0.32056 0.0
H283 H 0.47013 0.04298 0.31906 0.0
H284 H 0.61559 0.08931 0.28622 0.0
H285 H 0.63254 0.16738 0.23463 0.0
H286 H 0.70583 0.22554 0.24301 0.0
H287 H 0.78188 0.25161 0.25132 0.0
C288 C 0.60285 0.49448 0.29377 0.0
C289 C 0.62375 0.52148 0.25922 0.0
C290 C 0.57303 0.4521 0.28703 0.0
C291 C 0.56329 0.43543 0.24541 0.0
C292 C 0.58376 0.46257 0.21067 0.0
C293 C 0.61346 0.50542 0.21747 0.0
C294 C 0.53391 0.38944 0.23823 0.0
C295 C 0.501 0.36624 0.26475 0.0
C296 C 0.47257 0.31974 0.26166 0.0
C297 C 0.43146 0.30226 0.27881 0.0
C298 C 0.40463 0.25864 0.28031 0.0
C299 C 0.41839 0.23104 0.26538 0.0
H300 H 0.51826 0.30479 0.23326 0.0
C301 C 0.45956 0.24839 0.2479 0.0
C302 C 0.48638 0.29239 0.24584 0.0
H303 H 0.47117 0.22804 0.23616 0.0
H304 H 0.61043 0.50586 0.32634 0.0
H305 H 0.559 0.43214 0.31472 0.0
H306 H 0.57712 0.45049 0.17829 0.0
H307 H 0.62958 0.52546 0.19031 0.0
H308 H 0.53921 0.37472 0.21047 0.0
H309 H 0.4936 0.38223 0.28986 0.0
H310 H 0.42011 0.32249 0.29161 0.0
H311 H 0.37327 0.24662 0.2942 0.0
C312 C 0.92979 0.41791 0.30176 0.0
C313 C 0.92733 0.39527 0.26452 0.0
C314 C 0.91505 0.44681 0.30208 0.0
C315 C 0.89781 0.45407 0.26488 0.0
C316 C 0.89736 0.43279 0.22717 0.0
C317 C 0.91197 0.40378 0.22694 0.0
C318 C 0.87746 0.48107 0.26456 0.0
C319 C 0.88232 0.50877 0.2957 0.0
C320 C 0.86125 0.53498 0.29579 0.0
C321 C 0.87985 0.5725 0.31962 0.0
C322 C 0.86144 0.59817 0.32106 0.0
C323 C 0.82344 0.5868 0.29913 0.0
H324 H 0.80668 0.4937 0.25667 0.0
C325 C 0.80404 0.54866 0.27609 0.0
C326 C 0.82275 0.52301 0.27435 0.0
H327 H 0.77472 0.53887 0.25893 0.0
H328 H 0.94099 0.41164 0.33136 0.0
H329 H 0.91552 0.46162 0.33216 0.0
H330 H 0.88439 0.4376 0.19799 0.0
H331 H 0.90936 0.38658 0.1978 0.0
H332 H 0.85819 0.47832 0.23698 0.0
H333 H 0.90421 0.5143 0.32164 0.0
H334 H 0.90916 0.58235 0.33687 0.0
H335 H 0.87729 0.62716 0.33935 0.0
C336 C 0.10239 0.47277 0.81417 0.0
C337 C 0.08165 0.44475 0.78032 0.0
C338 C 0.10886 0.51371 0.81348 0.0
C339 C 0.09553 0.52802 0.77832 0.0
C340 C 0.07175 0.49888 0.74603 0.0
C341 C 0.06488 0.45747 0.74695 0.0
C342 C 0.10723 0.57325 0.77405 0.0
C343 C 0.14319 0.60507 0.79122 0.0
C344 C 0.15791 0.65107 0.78711 0.0
C345 C 0.19189 0.67965 0.81289 0.0
C346 C 0.20775 0.72318 0.80987 0.0
C347 C 0.19014 0.73924 0.78076 0.0
H348 H 0.11482 0.64692 0.73669 0.0
C349 C 0.15635 0.71093 0.75476 0.0
C350 C 0.14037 0.66734 0.75781 0.0
H351 H 0.1422 0.72248 0.73192 0.0
H352 H 0.11518 0.46346 0.84055 0.0
H353 H 0.12529 0.53429 0.84012 0.0
H354 H 0.0604 0.50879 0.71893 0.0
H355 H 0.04905 0.43649 0.72034 0.0
H356 H 0.08666 0.58008 0.75476 0.0
H357 H 0.1639 0.59731 0.80918 0.0
H358 H 0.20628 0.66826 0.83562 0.0
H359 H 0.2338 0.74425 0.83032 0.0
C360 C 0.3819 0.90875 0.73631 0.0
C361 C 0.37682 0.93535 0.76515 0.0
C362 C 0.41687 0.90272 0.73919 0.0
C363 C 0.44703 0.92237 0.77184 0.0
C364 C 0.44372 0.9517 0.79854 0.0
C365 C 0.40869 0.95806 0.79533 0.0
C366 C 0.48075 0.91117 0.77971 0.0
C367 C 0.47435 0.87207 0.77155 0.0
C368 C 0.50592 0.85789 0.7785 0.0
C369 C 0.49901 0.82078 0.75788 0.0
C370 C 0.52725 0.80562 0.76306 0.0
C371 C 0.56293 0.82694 0.78942 0.0
H372 H 0.54751 0.90716 0.82275 0.0
C373 C 0.56968 0.86362 0.81087 0.0
C374 C 0.54148 0.87906 0.80545 0.0
H375 H 0.59701 0.88065 0.83144 0.0
H376 H 0.35763 0.89094 0.71276 0.0
H377 H 0.41932 0.88151 0.71663 0.0
H378 H 0.46687 0.9678 0.82351 0.0
H379 H 0.405 0.97828 0.8183 0.0
H380 H 0.51027 0.93496 0.79396 0.0
H381 H 0.44394 0.84851 0.75857 0.0
H382 H 0.4718 0.80357 0.73719 0.0
H383 H 0.52124 0.77727 0.74613 0.0
C384 C 0.30655 0.45036 0.75764 0.0
C385 C 0.27668 0.45239 0.78491 0.0
C386 C 0.3503 0.47668 0.76432 0.0
C387 C 0.36499 0.50556 0.79858 0.0
C388 C 0.33487 0.50732 0.82572 0.0
C389 C 0.29128 0.48125 0.81888 0.0
C390 C 0.41101 0.53414 0.80794 0.0
C391 C 0.44313 0.54549 0.7795 0.0
C392 C 0.48816 0.57897 0.788 0.0
C393 C 0.52075 0.58372 0.75984 0.0
C394 C 0.56233 0.61801 0.7638 0.0
C395 C 0.57192 0.64841 0.79582 0.0
H396 H 0.47526 0.60736 0.84342 0.0
C397 C 0.53997 0.64248 0.82518 0.0
C398 C 0.49876 0.60853 0.8213 0.0
H399 H 0.54633 0.6653 0.85034 0.0
H400 H 0.29612 0.42809 0.73137 0.0
H401 H 0.37221 0.47355 0.74312 0.0
H402 H 0.34508 0.52914 0.8524 0.0
H403 H 0.26903 0.48337 0.84055 0.0
H404 H 0.41801 0.54762 0.83975 0.0
H405 H 0.43626 0.53144 0.74789 0.0
H406 H 0.51371 0.56165 0.73377 0.0
H407 H 0.58619 0.62195 0.74046 0.0
C408 C 0.22657 0.19136 0.32233 0.0
C409 C 0.21355 0.15406 0.29894 0.0
C410 C 0.20463 0.21371 0.31852 0.0
C411 C 0.16926 0.19891 0.29125 0.0
C412 C 0.15597 0.16115 0.26867 0.0
C413 C 0.17773 0.13886 0.2726 0.0
C414 C 0.14557 0.22182 0.28458 0.0
C415 C 0.14386 0.24859 0.31311 0.0
C416 C 0.11203 0.26241 0.30841 0.0
C417 C 0.08683 0.25933 0.34382 0.0
C418 C 0.04982 0.26151 0.33828 0.0
C419 C 0.03837 0.26817 0.29752 0.0
H420 H 0.12202 0.2762 0.24055 0.0
C421 C 0.06588 0.27589 0.26287 0.0
C422 C 0.10255 0.27289 0.26823 0.0
H423 H 0.0572 0.28058 0.23112 0.0
H424 H 0.25447 0.20399 0.34245 0.0
H425 H 0.21629 0.24305 0.33588 0.0
H426 H 0.12878 0.14895 0.24757 0.0
H427 H 0.16715 0.11029 0.25403 0.0
H428 H 0.12517 0.21292 0.25663 0.0
H429 H 0.16053 0.25471 0.3433 0.0
H430 H 0.09366 0.25149 0.37506 0.0
H431 H 0.02863 0.25513 0.36529 0.0
C432 C 0.97899 0.77202 0.30664 0.0
C433 C 0.95194 0.78327 0.32805 0.0
C434 C 0.02302 0.79626 0.31097 0.0
C435 C 0.04115 0.83292 0.33638 0.0
C436 C 0.01384 0.84325 0.35898 0.0
C437 C 0.9696 0.8186 0.35496 0.0
C438 C 0.08799 0.86197 0.33924 0.0
C439 C 0.1171 0.86071 0.31296 0.0
C440 C 0.16248 0.89464 0.31214 0.0
C441 C 0.1854 0.90382 0.27347 0.0
C442 C 0.22518 0.94042 0.26945 0.0
C443 C 0.2424 0.96809 0.30415 0.0
H444 H 0.16665 0.913 0.3789 0.0
C445 C 0.22159 0.95675 0.34386 0.0
C446 C 0.18224 0.9201 0.34803 0.0
H447 H 0.23459 0.97766 0.37113 0.0
H448 H 0.96611 0.74445 0.28616 0.0
H449 H 0.04227 0.78598 0.29401 0.0
H450 H 0.02676 0.87106 0.37912 0.0
H451 H 0.94938 0.82778 0.37197 0.0
H452 H 0.09835 0.88776 0.36191 0.0
H453 H 0.1071 0.83712 0.28798 0.0
H454 H 0.17122 0.88434 0.2455 0.0
H455 H 0.24053 0.94888 0.2384 0.0
C456 C 0.83249 0.03051 0.31069 0.0
C457 C 0.84493 0.05469 0.27319 0.0
C458 C 0.81084 0.98635 0.3084 0.0
C459 C 0.80128 0.96569 0.26844 0.0
C460 C 0.81439 0.99012 0.23113 0.0
C461 C 0.83569 0.03409 0.23344 0.0
C462 C 0.7809 0.91908 0.26441 0.0
C463 C 0.75552 0.89198 0.29462 0.0
C464 C 0.74394 0.84693 0.29452 0.0
C465 C 0.74489 0.82878 0.33351 0.0
C466 C 0.74314 0.78986 0.33435 0.0
C467 C 0.73864 0.76745 0.2964 0.0
H468 H 0.73455 0.83617 0.22613 0.0
C469 C 0.73334 0.78347 0.25767 0.0
C470 C 0.73636 0.82327 0.25664 0.0
H471 H 0.73037 0.76696 0.22795 0.0
H472 H 0.83935 0.04567 0.34171 0.0
H473 H 0.80267 0.96872 0.33796 0.0
H474 H 0.80804 0.97512 0.20002 0.0
H475 H 0.84495 0.05198 0.20395 0.0
H476 H 0.78885 0.90692 0.23622 0.0
H477 H 0.74761 0.90392 0.32297 0.0
H478 H 0.75052 0.84625 0.3631 0.0
H479 H 0.74818 0.77866 0.36446 0.0
C480 C 0.1207 0.2094 0.75476 0.0
C481 C 0.12832 0.23749 0.7887 0.0
C482 C 0.13819 0.18268 0.75533 0.0
C483 C 0.16284 0.18326 0.79027 0.0
C484 C 0.16809 0.20959 0.82514 0.0
C485 C 0.15162 0.23688 0.82409 0.0
C486 C 0.18369 0.15709 0.79183 0.0
C487 C 0.20055 0.1486 0.75725 0.0
C488 C 0.22377 0.12448 0.75941 0.0
C489 C 0.22687 0.10421 0.72244 0.0
C490 C 0.24561 0.07872 0.724 0.0
C491 C 0.26186 0.07321 0.76259 0.0
H492 H 0.24304 0.13779 0.82606 0.0
C493 C 0.26135 0.09562 0.79887 0.0
C494 C 0.24277 0.12118 0.79731 0.0
H495 H 0.27393 0.09219 0.82898 0.0
H496 H 0.10309 0.20959 0.72699 0.0
H497 H 0.13266 0.1619 0.72841 0.0
H498 H 0.18649 0.21029 0.85263 0.0
H499 H 0.15792 0.2583 0.85065 0.0
H500 H 0.18712 0.14663 0.82319 0.0
H501 H 0.19683 0.15922 0.72601 0.0
H502 H 0.21329 0.10677 0.69261 0.0
H503 H 0.2455 0.06175 0.6955 0.0
C504 C 0.09134 0.84821 0.81259 0.0
C505 C 0.12028 0.88373 0.78896 0.0
C506 C 0.04762 0.83177 0.80835 0.0
C507 C 0.03166 0.85019 0.77986 0.0
C508 C 0.06066 0.88713 0.75804 0.0
C509 C 0.10458 0.90378 0.76248 0.0
C510 C 0.98524 0.83208 0.77242 0.0
C511 C 0.95584 0.79162 0.78106 0.0
C512 C 0.90954 0.77477 0.77536 0.0
C513 C 0.88092 0.74426 0.80408 0.0
C514 C 0.83749 0.73091 0.80233 0.0
C515 C 0.82192 0.74727 0.77122 0.0
H516 H 0.91453 0.81138 0.71891 0.0
C517 C 0.85005 0.77526 0.74041 0.0
C518 C 0.89352 0.78904 0.74253 0.0
H519 H 0.83885 0.78823 0.71592 0.0
H520 H 0.10245 0.83243 0.83386 0.0
H521 H 0.02672 0.80457 0.82744 0.0
H522 H 0.04931 0.90247 0.73646 0.0
H523 H 0.12609 0.9312 0.74385 0.0
H524 H 0.97507 0.853 0.75902 0.0
H525 H 0.96531 0.77031 0.79469 0.0
H526 H 0.89243 0.73228 0.82925 0.0
H527 H 0.81646 0.70929 0.82644 0.0
C528 C 0.91697 0.17175 0.79628 0.0
C529 C 0.94103 0.1929 0.76002 0.0
C530 C 0.8926 0.12768 0.79686 0.0
C531 C 0.89204 0.10375 0.7612 0.0
C532 C 0.91361 0.12518 0.72389 0.0
C533 C 0.93803 0.16931 0.72333 0.0
C534 C 0.86954 0.05667 0.76191 0.0
C535 C 0.86215 0.03413 0.79818 0.0
C536 C 0.83744 0.98725 0.79977 0.0
C537 C 0.81237 0.96802 0.83605 0.0
C538 C 0.78577 0.92434 0.83765 0.0
C539 C 0.78467 0.89876 0.80359 0.0
H540 H 0.85766 0.97528 0.73838 0.0
C541 C 0.81179 0.91745 0.76841 0.0
C542 C 0.83782 0.9615 0.76632 0.0
H543 H 0.81103 0.89832 0.74154 0.0
H544 H 0.91845 0.18913 0.82494 0.0
H545 H 0.87483 0.11263 0.82558 0.0
H546 H 0.91309 0.10767 0.69567 0.0
H547 H 0.95629 0.18477 0.6949 0.0
H548 H 0.85939 0.04026 0.73151 0.0
H549 H 0.87244 0.0504 0.82859 0.0
H550 H 0.81184 0.98702 0.86245 0.0
H551 H 0.76489 0.91059 0.86499 0.0
loop_
_geom_bond_atom_site_label_1
_geom_bond_atom_site_label_2
_geom_bond_distance
_geom_bond_site_symmetry_2
_ccdc_geom_bond_type
Dy0 O4 2.398 . S
Dy0 O5 2.491 . S
Dy0 O6 2.403 . S
Dy0 O7 2.664 . S
Dy0 O11 2.326 . S
Dy0 O15 2.310 . S
Dy0 O16 2.351 . S
C1 O12 1.185 . S
C1 O13 1.355 . S
C2 O4 1.185 . S
C2 O5 1.355 . S
Dy3 O7 2.310 . S
Dy3 O10 2.351 . S
Dy3 O12 2.398 . S
Dy3 O13 2.491 . S
Dy3 O14 2.403 . S
Dy3 O15 2.664 . S
Dy3 O17 2.326 . S
O4 Dy0 2.398 . S
O4 C2 1.185 . S
O5 Dy0 2.491 . S
O5 C2 1.355 . S
O6 Dy0 2.403 . S
O6 C8 1.254 . S
O7 Dy0 2.664 . S
O7 Dy3 2.310 . S
O7 C8 1.268 . S
C8 O6 1.254 . S
C8 O7 1.268 . S
C9 O14 1.254 . S
C9 O15 1.268 . S
O10 Dy3 2.351 . S
O10 C18 1.249 . S
O11 Dy0 2.326 . S
O11 C18 1.267 . S
O12 C1 1.185 . S
O12 Dy3 2.398 . S
O13 C1 1.355 . S
O13 Dy3 2.491 . S
O14 Dy3 2.403 . S
O14 C9 1.254 . S
O15 Dy0 2.310 . S
O15 Dy3 2.664 . S
O15 C9 1.268 . S
O16 Dy0 2.351 . S
O16 C19 1.249 . S
O17 Dy3 2.326 . S
O17 C19 1.267 . S
C18 O10 1.249 . S
C18 O11 1.267 . S
C19 O16 1.249 . S
C19 O17 1.267 . S
Dy20 O24 2.398 . S
Dy20 O25 2.491 . S
Dy20 O26 2.403 . S
Dy20 O27 2.664 . S
Dy20 O31 2.326 . S
Dy20 O35 2.310 . S
Dy20 O36 2.351 . S
C21 O32 1.185 . S
C21 O33 1.355 . S
C22 O24 1.185 . S
C22 O25 1.355 . S
Dy23 O27 2.310 . S
Dy23 O30 2.351 . S
Dy23 O32 2.398 . S
Dy23 O33 2.491 . S
Dy23 O34 2.403 . S
Dy23 O35 2.664 . S
Dy23 O37 2.326 . S
O24 Dy20 2.398 . S
O24 C22 1.185 . S
O25 Dy20 2.491 . S
O25 C22 1.355 . S
O26 Dy20 2.403 . S
O26 C28 1.254 . S
O27 Dy20 2.664 . S
O27 Dy23 2.310 . S
O27 C28 1.268 . S
C28 O26 1.254 . S
C28 O27 1.268 . S
C29 O34 1.254 . S
C29 O35 1.268 . S
O30 Dy23 2.351 . S
O30 C38 1.249 . S
O31 Dy20 2.326 . S
O31 C38 1.267 . S
O32 C21 1.185 . S
O32 Dy23 2.398 . S
O33 C21 1.355 . S
O33 Dy23 2.491 . S
O34 Dy23 2.403 . S
O34 C29 1.254 . S
O35 Dy20 2.310 . S
O35 Dy23 2.664 . S
O35 C29 1.268 . S
O36 Dy20 2.351 . S
O36 C39 1.249 . S
O37 Dy23 2.326 . S
O37 C39 1.267 . S
C38 O30 1.249 . S
C38 O31 1.267 . S
C39 O36 1.249 . S
C39 O37 1.267 . S
Dy40 O44 2.398 . S
Dy40 O45 2.491 . S
Dy40 O46 2.403 . S
Dy40 O47 2.664 . S
Dy40 O51 2.326 . S
Dy40 O55 2.310 . S
Dy40 O56 2.351 . S
C41 O52 1.185 . S
C41 O53 1.355 . S
C42 O44 1.185 . S
C42 O45 1.355 . S
Dy43 O47 2.310 . S
Dy43 O50 2.351 . S
Dy43 O52 2.398 . S
Dy43 O53 2.491 . S
Dy43 O54 2.403 . S
Dy43 O55 2.664 . S
Dy43 O57 2.326 . S
O44 Dy40 2.398 . S
O44 C42 1.185 . S
O45 Dy40 2.491 . S
O45 C42 1.355 . S
O46 Dy40 2.403 . S
O46 C48 1.254 . S
O47 Dy40 2.664 . S
O47 Dy43 2.310 . S
O47 C48 1.268 . S
C48 O46 1.254 . S
C48 O47 1.268 . S
C49 O54 1.254 . S
C49 O55 1.268 . S
O50 Dy43 2.351 . S
O50 C58 1.249 . S
O51 Dy40 2.326 . S
O51 C58 1.267 . S
O52 C41 1.185 . S
O52 Dy43 2.398 . S
O53 C41 1.355 . S
O53 Dy43 2.491 . S
O54 Dy43 2.403 . S
O54 C49 1.254 . S
O55 Dy40 2.310 . S
O55 Dy43 2.664 . S
O55 C49 1.268 . S
O56 Dy40 2.351 . S
O56 C59 1.249 . S
O57 Dy43 2.326 . S
O57 C59 1.267 . S
C58 O50 1.249 . S
C58 O51 1.267 . S
C59 O56 1.249 . S
C59 O57 1.267 . S
Dy60 O64 2.398 1_455 S
Dy60 O65 2.491 . S
Dy60 O66 2.403 . S
Dy60 O67 2.664 . S
Dy60 O71 2.326 . S
Dy60 O75 2.310 . S
Dy60 O76 2.351 . S
C61 O72 1.185 . S
C61 O73 1.355 . S
C62 O64 1.185 . S
C62 O65 1.355 1_655 S
Dy63 O67 2.310 . S
Dy63 O70 2.351 . S
Dy63 O72 2.398 . S
Dy63 O73 2.491 . S
Dy63 O74 2.403 . S
Dy63 O75 2.664 . S
Dy63 O77 2.326 . S
O64 Dy60 2.398 1_655 S
O64 C62 1.185 . S
O65 Dy60 2.491 . S
O65 C62 1.355 1_455 S
O66 Dy60 2.403 . S
O66 C68 1.254 . S
O67 Dy60 2.664 . S
O67 Dy63 2.310 . S
O67 C68 1.268 . S
C68 O66 1.254 . S
C68 O67 1.268 . S
C69 O74 1.254 . S
C69 O75 1.268 . S
O70 Dy63 2.351 . S
O70 C78 1.249 . S
O71 Dy60 2.326 . S
O71 C78 1.267 . S
O72 C61 1.185 . S
O72 Dy63 2.398 . S
O73 C61 1.355 . S
O73 Dy63 2.491 . S
O74 Dy63 2.403 . S
O74 C69 1.254 . S
O75 Dy60 2.310 . S
O75 Dy63 2.664 . S
O75 C69 1.268 . S
O76 Dy60 2.351 . S
O76 C79 1.249 . S
O77 Dy63 2.326 . S
O77 C79 1.267 . S
C78 O70 1.249 . S
C78 O71 1.267 . S
C79 O76 1.249 . S
C79 O77 1.267 . S
Dy80 O84 2.398 1_565 S
Dy80 O85 2.491 . S
Dy80 O86 2.403 . S
Dy80 O87 2.664 . S
Dy80 O91 2.326 . S
Dy80 O95 2.310 . S
Dy80 O96 2.351 . S
C81 O92 1.185 . S
C81 O93 1.355 . S
C82 O84 1.185 . S
C82 O85 1.355 1_545 S
Dy83 O87 2.310 . S
Dy83 O90 2.351 . S
Dy83 O92 2.398 . S
Dy83 O93 2.491 . S
Dy83 O94 2.403 . S
Dy83 O95 2.664 . S
Dy83 O97 2.326 . S
O84 Dy80 2.398 1_545 S
O84 C82 1.185 . S
O85 Dy80 2.491 . S
O85 C82 1.355 1_565 S
O86 Dy80 2.403 . S
O86 C88 1.254 . S
O87 Dy80 2.664 . S
O87 Dy83 2.310 . S
O87 C88 1.268 . S
C88 O86 1.254 . S
C88 O87 1.268 . S
C89 O94 1.254 . S
C89 O95 1.268 . S
O90 Dy83 2.351 . S
O90 C98 1.249 . S
O91 Dy80 2.326 . S
O91 C98 1.267 . S
O92 C81 1.185 . S
O92 Dy83 2.398 . S
O93 C81 1.355 . S
O93 Dy83 2.491 . S
O94 Dy83 2.403 . S
O94 C89 1.254 . S
O95 Dy80 2.310 . S
O95 Dy83 2.664 . S
O95 C89 1.268 . S
O96 Dy80 2.351 . S
O96 C99 1.249 . S
O97 Dy83 2.326 . S
O97 C99 1.267 . S
C98 O90 1.249 . S
C98 O91 1.267 . S
C99 O96 1.249 . S
C99 O97 1.267 . S
Dy100 O104 2.398 . S
Dy100 O105 2.491 . S
Dy100 O106 2.403 . S
Dy100 O107 2.664 . S
Dy100 O111 2.326 . S
Dy100 O115 2.310 . S
Dy100 O116 2.351 . S
C101 O112 1.185 . S
C101 O113 1.355 . S
C102 O104 1.185 . S
C102 O105 1.355 . S
Dy103 O107 2.310 . S
Dy103 O110 2.351 . S
Dy103 O112 2.398 . S
Dy103 O113 2.491 . S
Dy103 O114 2.403 . S
Dy103 O115 2.664 . S
Dy103 O117 2.326 . S
O104 Dy100 2.398 . S
O104 C102 1.185 . S
O105 Dy100 2.491 . S
O105 C102 1.355 . S
O106 Dy100 2.403 . S
O106 C108 1.254 . S
O107 Dy100 2.664 . S
O107 Dy103 2.310 . S
O107 C108 1.268 . S
C108 O106 1.254 . S
C108 O107 1.268 . S
C109 O114 1.254 . S
C109 O115 1.268 . S
O110 Dy103 2.351 . S
O110 C118 1.249 . S
O111 Dy100 2.326 . S
O111 C118 1.267 . S
O112 C101 1.185 . S
O112 Dy103 2.398 . S
O113 C101 1.355 . S
O113 Dy103 2.491 . S
O114 Dy103 2.403 . S
O114 C109 1.254 . S
O115 Dy100 2.310 . S
O115 Dy103 2.664 . S
O115 C109 1.268 . S
O116 Dy100 2.351 . S
O116 C119 1.249 . S
O117 Dy103 2.326 . S
O117 C119 1.267 . S
C118 O110 1.249 . S
C118 O111 1.267 . S
C119 O116 1.249 . S
C119 O117 1.267 . S
C120 C121 1.386 . S
C120 C122 1.383 . S
C120 H136 0.951 . S
C121 C120 1.386 . S
C121 C125 1.383 . S
C122 C120 1.383 . S
C122 C123 1.402 . S
C122 H137 0.951 . S
C123 C122 1.402 . S
C123 C124 1.375 . S
C123 C126 1.481 1_565 S
C124 C123 1.375 . S
C124 C125 1.367 . S
C124 H138 0.951 1_565 S
C125 C121 1.383 . S
C125 C124 1.367 . S
C125 H139 0.950 . S
C126 C123 1.481 1_545 S
C126 C127 1.297 1_556 S
C126 H140 0.950 . S
C127 C126 1.297 1_554 S
C127 C128 1.479 . S
C127 H141 0.950 1_545 S
C128 C127 1.479 . S
C128 C129 1.375 . S
C128 C134 1.404 . S
C129 C128 1.375 . S
C129 C130 1.369 . S
C129 H142 0.971 . S
C130 C129 1.369 . S
C130 C131 1.392 . S
C130 H143 0.951 . S
C131 C130 1.392 . S
C131 C133 1.384 . S
H132 C134 0.949 . S
C133 C131 1.384 . S
C133 C134 1.385 . S
C133 H135 0.950 . S
C134 C128 1.404 . S
C134 H132 0.949 . S
C134 C133 1.385 . S
H135 C133 0.950 . S
H136 C120 0.951 . S
H137 C122 0.951 . S
H138 C124 0.951 1_545 S
H139 C125 0.950 . S
H140 C126 0.950 . S
H141 C127 0.950 1_565 S
H142 C129 0.971 . S
H143 C130 0.951 . S
C144 C145 1.386 . S
C144 C146 1.383 . S
C144 H160 0.951 . S
C145 C144 1.386 . S
C145 C149 1.383 . S
C146 C144 1.383 . S
C146 C147 1.402 . S
C146 H161 0.951 . S
C147 C146 1.402 . S
C147 C148 1.375 . S
C147 C150 1.481 . S
C148 C147 1.375 . S
C148 C149 1.367 . S
C148 H162 0.951 . S
C149 C145 1.383 . S
C149 C148 1.367 . S
C149 H163 0.950 . S
C150 C147 1.481 . S
C150 C151 1.297 . S
C150 H164 0.950 . S
C151 C150 1.297 . S
C151 C152 1.479 . S
C151 H165 0.950 . S
C152 C151 1.479 . S
C152 C153 1.375 . S
C152 C158 1.404 . S
C153 C152 1.375 . S
C153 C154 1.369 . S
C153 H166 0.950 . S
C154 C153 1.369 . S
C154 C155 1.392 . S
C154 H167 0.951 . S
C155 C154 1.392 . S
C155 C157 1.384 . S
H156 C158 0.949 . S
C157 C155 1.384 . S
C157 C158 1.385 . S
C157 H159 0.950 . S
C158 C152 1.404 . S
C158 H156 0.949 . S
C158 C157 1.385 . S
H159 C157 0.950 . S
H160 C144 0.951 . S
H161 C146 0.951 . S
H162 C148 0.951 . S
H163 C149 0.950 . S
H164 C150 0.950 . S
H165 C151 0.950 . S
H166 C153 0.950 . S
H167 C154 0.951 . S
C168 C169 1.386 . S
C168 C170 1.383 . S
C168 H184 0.951 . S
C169 C168 1.386 . S
C169 C173 1.383 . S
C170 C168 1.383 . S
C170 C171 1.402 . S
C170 H185 0.951 . S
C171 C170 1.402 . S
C171 C172 1.375 . S
C171 C174 1.481 1_655 S
C172 C171 1.375 . S
C172 C173 1.367 . S
C172 H186 0.951 1_655 S
C173 C169 1.383 . S
C173 C172 1.367 . S
C173 H187 0.950 . S
C174 C171 1.481 1_455 S
C174 C175 1.297 1_454 S
C174 H188 0.950 . S
C175 C174 1.297 1_656 S
C175 C176 1.479 1_655 S
C175 H189 0.950 . S
C176 C175 1.479 1_455 S
C176 C177 1.375 . S
C176 C182 1.404 . S
C177 C176 1.375 . S
C177 C178 1.369 . S
C177 H190 0.950 1_455 S
C178 C177 1.369 . S
C178 C179 1.392 . S
C178 H191 0.951 . S
C179 C178 1.392 . S
C179 C181 1.384 . S
H180 C182 0.949 . S
C181 C179 1.384 . S
C181 C182 1.385 . S
C181 H183 0.950 . S
C182 C176 1.404 . S
C182 H180 0.949 . S
C182 C181 1.385 . S
H183 C181 0.950 . S
H184 C168 0.951 . S
H185 C170 0.951 . S
H186 C172 0.951 1_455 S
H187 C173 0.950 . S
H188 C174 0.950 . S
H189 C175 0.950 . S
H190 C177 0.950 1_655 S
H191 C178 0.951 . S
C192 C193 1.386 . S
C192 C194 1.383 . S
C192 H208 0.951 . S
C193 C192 1.386 . S
C193 C197 1.383 . S
C194 C192 1.383 . S
C194 C195 1.402 . S
C194 H209 0.951 . S
C195 C194 1.402 . S
C195 C196 1.375 . S
C195 C198 1.481 1_545 S
C196 C195 1.375 . S
C196 C197 1.367 . S
C196 H210 0.951 . S
C197 C193 1.383 . S
C197 C196 1.367 . S
C197 H211 0.950 . S
C198 C195 1.481 1_565 S
C198 C199 1.297 . S
C198 H212 0.950 . S
C199 C198 1.297 . S
C199 C200 1.479 . S
C199 H213 0.950 . S
C200 C199 1.479 . S
C200 C201 1.375 . S
C200 C206 1.404 . S
C201 C200 1.375 . S
C201 C202 1.369 . S
C201 H214 0.950 . S
C202 C201 1.369 . S
C202 C203 1.392 . S
C202 H215 0.951 . S
C203 C202 1.392 . S
C203 C205 1.384 . S
H204 C206 0.949 . S
C205 C203 1.384 . S
C205 C206 1.385 . S
C205 H207 0.950 . S
C206 C200 1.404 . S
C206 H204 0.949 . S
C206 C205 1.385 . S
H207 C205 0.950 . S
H208 C192 0.951 . S
H209 C194 0.951 . S
H210 C196 0.951 . S
H211 C197 0.950 . S
H212 C198 0.950 . S
H213 C199 0.950 . S
H214 C201 0.950 . S
H215 C202 0.951 . S
C216 C217 1.386 . S
C216 C218 1.383 . S
C216 H232 0.951 . S
C217 C216 1.386 . S
C217 C221 1.383 . S
C218 C216 1.383 . S
C218 C219 1.402 . S
C218 H233 0.951 . S
C219 C218 1.402 . S
C219 C220 1.375 . S
C219 C222 1.481 . S
C220 C219 1.375 . S
C220 C221 1.367 . S
C220 H234 0.951 . S
C221 C217 1.383 . S
C221 C220 1.367 . S
C221 H235 0.950 . S
C222 C219 1.481 . S
C222 C223 1.297 1_556 S
C222 H236 0.950 1_556 S
C223 C222 1.297 1_554 S
C223 C224 1.479 . S
C223 H237 0.950 1_554 S
C224 C223 1.479 . S
C224 C225 1.375 . S
C224 C230 1.404 . S
C225 C224 1.375 . S
C225 C226 1.369 . S
C225 H238 0.950 . S
C226 C225 1.369 . S
C226 C227 1.392 . S
C226 H239 0.951 . S
C227 C226 1.392 . S
C227 C229 1.384 . S
H228 C230 0.949 . S
C229 C227 1.384 . S
C229 C230 1.385 . S
C229 H231 0.950 . S
C230 C224 1.404 . S
C230 H228 0.949 . S
C230 C229 1.385 . S
H231 C229 0.950 . S
H232 C216 0.951 . S
H233 C218 0.951 . S
H234 C220 0.951 . S
H235 C221 0.950 . S
H236 C222 0.950 1_554 S
H237 C223 0.950 1_556 S
H238 C225 0.950 . S
H239 C226 0.951 . S
C240 C241 1.386 . S
C240 C242 1.383 . S
C240 H256 0.951 . S
C241 C240 1.386 . S
C241 C245 1.383 . S
C242 C240 1.383 . S
C242 C243 1.402 . S
C242 H257 0.951 . S
C243 C242 1.402 . S
C243 C244 1.375 . S
C243 C246 1.481 1_655 S
C244 C243 1.375 . S
C244 C245 1.367 . S
C244 H258 0.951 1_655 S
C245 C241 1.383 . S
C245 C244 1.367 . S
C245 H259 0.950 . S
C246 C243 1.481 1_455 S
C246 C247 1.297 1_455 S
C246 H260 0.950 . S
C247 C246 1.297 1_655 S
C247 C248 1.479 1_655 S
C247 H261 0.950 . S
C248 C247 1.479 1_455 S
C248 C249 1.375 . S
C248 C254 1.404 . S
C249 C248 1.375 . S
C249 C250 1.369 . S
C249 H262 0.950 1_455 S
C250 C249 1.369 . S
C250 C251 1.392 . S
C250 H263 0.951 . S
C251 C250 1.392 . S
C251 C253 1.384 . S
H252 C254 0.949 . S
C253 C251 1.384 . S
C253 C254 1.385 . S
C253 H255 0.950 . S
C254 C248 1.404 . S
C254 H252 0.949 . S
C254 C253 1.385 . S
H255 C253 0.950 . S
H256 C240 0.951 . S
H257 C242 0.951 . S
H258 C244 0.951 1_455 S
H259 C245 0.950 . S
H260 C246 0.950 . S
H261 C247 0.950 . S
H262 C249 0.950 1_655 S
H263 C250 0.951 . S
C264 C265 1.386 . S
C264 C266 1.383 . S
C264 H280 0.951 . S
C265 C264 1.386 . S
C265 C269 1.383 . S
C266 C264 1.383 . S
C266 C267 1.402 . S
C266 H281 0.951 . S
C267 C266 1.402 . S
C267 C268 1.375 . S
C267 C270 1.481 . S
C268 C267 1.375 . S
C268 C269 1.367 . S
C268 H282 0.951 . S
C269 C265 1.383 . S
C269 C268 1.367 . S
C269 H283 0.950 . S
C270 C267 1.481 . S
C270 C271 1.297 . S
C270 H284 0.950 . S
C271 C270 1.297 . S
C271 C272 1.479 . S
C271 H285 0.950 . S
C272 C271 1.479 . S
C272 C273 1.375 . S
C272 C278 1.404 . S
C273 C272 1.375 . S
C273 C274 1.369 . S
C273 H286 0.950 . S
C274 C273 1.369 . S
C274 C275 1.392 . S
C274 H287 0.951 . S
C275 C274 1.392 . S
C275 C277 1.384 . S
H276 C278 0.949 . S
C277 C275 1.384 . S
C277 C278 1.385 . S
C277 H279 0.950 . S
C278 C272 1.404 . S
C278 H276 0.949 . S
C278 C277 1.385 . S
H279 C277 0.950 . S
H280 C264 0.951 . S
H281 C266 0.951 . S
H282 C268 0.951 . S
H283 C269 0.950 . S
H284 C270 0.950 . S
H285 C271 0.950 . S
H286 C273 0.950 . S
H287 C274 0.951 . S
C288 C289 1.386 . S
C288 C290 1.383 . S
C288 H304 0.951 . S
C289 C288 1.386 . S
C289 C293 1.383 . S
C290 C288 1.383 . S
C290 C291 1.402 . S
C290 H305 0.951 . S
C291 C290 1.402 . S
C291 C292 1.375 . S
C291 C294 1.481 . S
C292 C291 1.375 . S
C292 C293 1.367 . S
C292 H306 0.951 . S
C293 C289 1.383 . S
C293 C292 1.367 . S
C293 H307 0.950 . S
C294 C291 1.481 . S
C294 C295 1.297 . S
C294 H308 0.950 . S
C295 C294 1.297 . S
C295 C296 1.479 . S
C295 H309 0.950 . S
C296 C295 1.479 . S
C296 C297 1.375 . S
C296 C302 1.404 . S
C297 C296 1.375 . S
C297 C298 1.369 . S
C297 H310 0.950 . S
C298 C297 1.369 . S
C298 C299 1.392 . S
C298 H311 0.951 . S
C299 C298 1.392 . S
C299 C301 1.384 . S
H300 C302 0.949 . S
C301 C299 1.384 . S
C301 C302 1.385 . S
C301 H303 0.950 . S
C302 C296 1.404 . S
C302 H300 0.949 . S
C302 C301 1.385 . S
H303 C301 0.950 . S
H304 C288 0.951 . S
H305 C290 0.951 . S
H306 C292 0.951 . S
H307 C293 0.950 . S
H308 C294 0.950 . S
H309 C295 0.950 . S
H310 C297 0.950 . S
H311 C298 0.951 . S
C312 C313 1.386 . S
C312 C314 1.383 . S
C312 H328 0.951 . S
C313 C312 1.386 . S
C313 C317 1.383 . S
C314 C312 1.383 . S
C314 C315 1.402 . S
C314 H329 0.951 . S
C315 C314 1.402 . S
C315 C316 1.375 . S
C315 C318 1.481 . S
C316 C315 1.375 . S
C316 C317 1.367 . S
C316 H330 0.951 . S
C317 C313 1.383 . S
C317 C316 1.367 . S
C317 H331 0.950 . S
C318 C315 1.481 . S
C318 C319 1.297 . S
C318 H332 0.950 . S
C319 C318 1.297 . S
C319 C320 1.479 . S
C319 H333 0.950 . S
C320 C319 1.479 . S
C320 C321 1.375 . S
C320 C326 1.404 . S
C321 C320 1.375 . S
C321 C322 1.369 . S
C321 H334 0.950 . S
C322 C321 1.369 . S
C322 C323 1.392 . S
C322 H335 0.951 . S
C323 C322 1.392 . S
C323 C325 1.384 . S
H324 C326 0.949 . S
C325 C323 1.384 . S
C325 C326 1.385 . S
C325 H327 0.950 . S
C326 C320 1.404 . S
C326 H324 0.949 . S
C326 C325 1.385 . S
H327 C325 0.950 . S
H328 C312 0.951 . S
H329 C314 0.951 . S
H330 C316 0.951 . S
H331 C317 0.950 . S
H332 C318 0.950 . S
H333 C319 0.950 . S
H334 C321 0.950 . S
H335 C322 0.951 . S
C336 C337 1.386 . S
C336 C338 1.383 . S
C336 H352 0.951 . S
C337 C336 1.386 . S
C337 C341 1.383 . S
C338 C336 1.383 . S
C338 C339 1.402 . S
C338 H353 0.951 . S
C339 C338 1.402 . S
C339 C340 1.375 . S
C339 C342 1.481 . S
C340 C339 1.375 . S
C340 C341 1.367 . S
C340 H354 0.951 . S
C341 C337 1.383 . S
C341 C340 1.367 . S
C341 H355 0.950 . S
C342 C339 1.481 . S
C342 C343 1.297 . S
C342 H356 0.950 . S
C343 C342 1.297 . S
C343 C344 1.479 . S
C343 H357 0.950 . S
C344 C343 1.479 . S
C344 C345 1.375 . S
C344 C350 1.404 . S
C345 C344 1.375 . S
C345 C346 1.369 . S
C345 H358 0.950 . S
C346 C345 1.369 . S
C346 C347 1.392 . S
C346 H359 0.951 . S
C347 C346 1.392 . S
C347 C349 1.384 . S
H348 C350 0.949 . S
C349 C347 1.384 . S
C349 C350 1.385 . S
C349 H351 0.950 . S
C350 C344 1.404 . S
C350 H348 0.949 . S
C350 C349 1.385 . S
H351 C349 0.950 . S
H352 C336 0.951 . S
H353 C338 0.951 . S
H354 C340 0.951 . S
H355 C341 0.950 . S
H356 C342 0.950 . S
H357 C343 0.950 . S
H358 C345 0.950 . S
H359 C346 0.951 . S
C360 C361 1.386 . S
C360 C362 1.383 . S
C360 H376 0.951 . S
C361 C360 1.386 . S
C361 C365 1.383 . S
C362 C360 1.383 . S
C362 C363 1.402 . S
C362 H377 0.951 . S
C363 C362 1.402 . S
C363 C364 1.375 . S
C363 C366 1.481 . S
C364 C363 1.375 . S
C364 C365 1.367 . S
C364 H378 0.951 . S
C365 C361 1.383 . S
C365 C364 1.367 . S
C365 H379 0.950 . S
C366 C363 1.481 . S
C366 C367 1.297 . S
C366 H380 0.950 . S
C367 C366 1.297 . S
C367 C368 1.479 . S
C367 H381 0.950 . S
C368 C367 1.479 . S
C368 C369 1.375 . S
C368 C374 1.404 . S
C369 C368 1.375 . S
C369 C370 1.369 . S
C369 H382 0.950 . S
C370 C369 1.369 . S
C370 C371 1.392 . S
C370 H383 0.951 . S
C371 C370 1.392 . S
C371 C373 1.384 . S
H372 C374 0.949 . S
C373 C371 1.384 . S
C373 C374 1.385 . S
C373 H375 0.950 . S
C374 C368 1.404 . S
C374 H372 0.949 . S
C374 C373 1.385 . S
H375 C373 0.950 . S
H376 C360 0.951 . S
H377 C362 0.951 . S
H378 C364 0.951 . S
H379 C365 0.950 . S
H380 C366 0.950 . S
H381 C367 0.950 . S
H382 C369 0.950 . S
H383 C370 0.951 . S
C384 C385 1.386 . S
C384 C386 1.383 . S
C384 H400 0.951 . S
C385 C384 1.386 . S
C385 C389 1.383 . S
C386 C384 1.383 . S
C386 C387 1.402 . S
C386 H401 0.951 . S
C387 C386 1.402 . S
C387 C388 1.375 . S
C387 C390 1.481 . S
C388 C387 1.375 . S
C388 C389 1.367 . S
C388 H402 0.951 . S
C389 C385 1.383 . S
C389 C388 1.367 . S
C389 H403 0.950 . S
C390 C387 1.481 . S
C390 C391 1.297 . S
C390 H404 0.950 . S
C391 C390 1.297 . S
C391 C392 1.479 . S
C391 H405 0.950 . S
C392 C391 1.479 . S
C392 C393 1.375 . S
C392 C398 1.404 . S
C393 C392 1.375 . S
C393 C394 1.369 . S
C393 H406 0.950 . S
C394 C393 1.369 . S
C394 C395 1.392 . S
C394 H407 0.951 . S
C395 C394 1.392 . S
C395 C397 1.384 . S
H396 C398 0.949 . S
C397 C395 1.384 . S
C397 C398 1.385 . S
C397 H399 0.950 . S
C398 C392 1.404 . S
C398 H396 0.949 . S
C398 C397 1.385 . S
H399 C397 0.950 . S
H400 C384 0.951 . S
H401 C386 0.951 . S
H402 C388 0.951 . S
H403 C389 0.950 . S
H404 C390 0.950 . S
H405 C391 0.950 . S
H406 C393 0.950 . S
H407 C394 0.951 . S
C408 C409 1.386 . S
C408 C410 1.383 . S
C408 H424 0.951 . S
C409 C408 1.386 . S
C409 C413 1.383 . S
C410 C408 1.383 . S
C410 C411 1.402 . S
C410 H425 0.951 . S
C411 C410 1.402 . S
C411 C412 1.375 . S
C411 C414 1.481 . S
C412 C411 1.375 . S
C412 C413 1.367 . S
C412 H426 0.951 . S
C413 C409 1.383 . S
C413 C412 1.367 . S
C413 H427 0.950 . S
C414 C411 1.481 . S
C414 C415 1.297 . S
C414 H428 0.950 . S
C415 C414 1.297 . S
C415 C416 1.479 . S
C415 H429 0.950 . S
C416 C415 1.479 . S
C416 C417 1.375 . S
C416 C422 1.404 . S
C417 C416 1.375 . S
C417 C418 1.369 . S
C417 H430 0.950 . S
C418 C417 1.369 . S
C418 C419 1.392 1_455 S
C418 H431 0.951 . S
C419 C418 1.392 1_655 S
C419 C421 1.384 . S
H420 C422 0.949 . S
C421 C419 1.384 . S
C421 C422 1.385 1_655 S
C421 H423 0.950 . S
C422 C416 1.404 . S
C422 H420 0.949 . S
C422 C421 1.385 1_455 S
H423 C421 0.950 . S
H424 C408 0.951 . S
H425 C410 0.951 . S
H426 C412 0.951 . S
H427 C413 0.950 . S
H428 C414 0.950 . S
H429 C415 0.950 . S
H430 C417 0.950 . S
H431 C418 0.951 . S
C432 C433 1.386 . S
C432 C434 1.399 . S
C432 H448 0.951 . S
C433 C432 1.386 . S
C433 C437 1.383 . S
C434 C432 1.399 . S
C434 C435 1.402 1_655 S
C434 H449 0.935 1_655 S
C435 C434 1.402 1_455 S
C435 C436 1.375 1_455 S
C435 C438 1.481 . S
C436 C435 1.375 1_655 S
C436 C437 1.367 . S
C436 H450 0.951 . S
C437 C433 1.383 . S
C437 C436 1.367 . S
C437 H451 0.950 . S
C438 C435 1.481 . S
C438 C439 1.297 . S
C438 H452 0.950 . S
C439 C438 1.297 . S
C439 C440 1.479 . S
C439 H453 0.950 . S
C440 C439 1.479 . S
C440 C441 1.375 . S
C440 C446 1.404 . S
C441 C440 1.375 . S
C441 C442 1.369 . S
C441 H454 0.950 . S
C442 C441 1.369 . S
C442 C443 1.392 1_565 S
C442 H455 0.951 . S
C443 C442 1.392 1_545 S
C443 C445 1.384 . S
H444 C446 0.949 . S
C445 C443 1.384 . S
C445 C446 1.385 1_545 S
C445 H447 0.950 . S
C446 C440 1.404 . S
C446 H444 0.949 . S
C446 C445 1.385 1_565 S
H447 C445 0.950 . S
H448 C432 0.951 . S
H449 C434 0.935 1_455 S
H450 C436 0.951 . S
H451 C437 0.950 . S
H452 C438 0.950 . S
H453 C439 0.950 . S
H454 C441 0.950 . S
H455 C442 0.951 . S
C456 C457 1.386 . S
C456 C458 1.383 . S
C456 H472 0.951 . S
C457 C456 1.386 . S
C457 C461 1.383 . S
C458 C456 1.383 . S
C458 C459 1.402 1_545 S
C458 H473 0.951 1_545 S
C459 C458 1.402 1_565 S
C459 C460 1.375 1_565 S
C459 C462 1.481 . S
C460 C459 1.375 1_545 S
C460 C461 1.367 . S
C460 H474 0.951 1_545 S
C461 C457 1.383 . S
C461 C460 1.367 . S
C461 H475 0.950 . S
C462 C459 1.481 . S
C462 C463 1.297 . S
C462 H476 0.950 . S
C463 C462 1.297 . S
C463 C464 1.479 . S
C463 H477 0.950 . S
C464 C463 1.479 . S
C464 C465 1.375 . S
C464 C470 1.404 . S
C465 C464 1.375 . S
C465 C466 1.369 . S
C465 H478 0.950 . S
C466 C465 1.369 . S
C466 C467 1.392 . S
C466 H479 0.951 . S
C467 C466 1.392 . S
C467 C469 1.384 . S
H468 C470 0.949 . S
C469 C467 1.384 . S
C469 C470 1.385 . S
C469 H471 0.950 . S
C470 C464 1.404 . S
C470 H468 0.949 . S
C470 C469 1.385 . S
H471 C469 0.950 . S
H472 C456 0.951 . S
H473 C458 0.951 1_565 S
H474 C460 0.951 1_565 S
H475 C461 0.950 . S
H476 C462 0.950 . S
H477 C463 0.950 . S
H478 C465 0.950 . S
H479 C466 0.951 . S
C480 C481 1.386 . S
C480 C482 1.383 . S
C480 H496 0.951 . S
C481 C480 1.386 . S
C481 C485 1.383 . S
C482 C480 1.383 . S
C482 C483 1.402 . S
C482 H497 0.951 . S
C483 C482 1.402 . S
C483 C484 1.375 . S
C483 C486 1.481 . S
C484 C483 1.375 . S
C484 C485 1.367 . S
C484 H498 0.951 . S
C485 C481 1.383 . S
C485 C484 1.367 . S
C485 H499 0.950 . S
C486 C483 1.481 . S
C486 C487 1.297 . S
C486 H500 0.950 . S
C487 C486 1.297 . S
C487 C488 1.479 . S
C487 H501 0.950 . S
C488 C487 1.479 . S
C488 C489 1.375 . S
C488 C494 1.404 . S
C489 C488 1.375 . S
C489 C490 1.369 . S
C489 H502 0.950 . S
C490 C489 1.369 . S
C490 C491 1.392 . S
C490 H503 0.951 . S
C491 C490 1.392 . S
C491 C493 1.384 . S
H492 C494 0.949 . S
C493 C491 1.384 . S
C493 C494 1.385 . S
C493 H495 0.950 . S
C494 C488 1.404 . S
C494 H492 0.949 . S
C494 C493 1.385 . S
H495 C493 0.950 . S
H496 C480 0.951 . S
H497 C482 0.951 . S
H498 C484 0.951 . S
H499 C485 0.950 . S
H500 C486 0.950 . S
H501 C487 0.950 . S
H502 C489 0.950 . S
H503 C490 0.951 . S
C504 C505 1.386 . S
C504 C506 1.383 . S
C504 H520 0.951 . S
C505 C504 1.386 . S
C505 C509 1.383 . S
C506 C504 1.383 . S
C506 C507 1.402 . S
C506 H521 0.951 . S
C507 C506 1.402 . S
C507 C508 1.375 . S
C507 C510 1.481 1_455 S
C508 C507 1.375 . S
C508 C509 1.367 . S
C508 H522 0.951 . S
C509 C505 1.383 . S
C509 C508 1.367 . S
C509 H523 0.950 . S
C510 C507 1.481 1_655 S
C510 C511 1.297 . S
C510 H524 0.950 . S
C511 C510 1.297 . S
C511 C512 1.479 . S
C511 H525 0.950 . S
C512 C511 1.479 . S
C512 C513 1.375 . S
C512 C518 1.404 . S
C513 C512 1.375 . S
C513 C514 1.369 . S
C513 H526 0.950 . S
C514 C513 1.369 . S
C514 C515 1.392 . S
C514 H527 0.951 . S
C515 C514 1.392 . S
C515 C517 1.384 . S
H516 C518 0.949 . S
C517 C515 1.384 . S
C517 C518 1.385 . S
C517 H519 0.950 . S
C518 C512 1.404 . S
C518 H516 0.949 . S
C518 C517 1.385 . S
H519 C517 0.950 . S
H520 C504 0.951 . S
H521 C506 0.951 . S
H522 C508 0.951 . S
H523 C509 0.950 . S
H524 C510 0.950 . S
H525 C511 0.950 . S
H526 C513 0.950 . S
H527 C514 0.951 . S
C528 C529 1.386 . S
C528 C530 1.383 . S
C528 H544 0.951 . S
C529 C528 1.386 . S
C529 C533 1.383 . S
C530 C528 1.383 . S
C530 C531 1.402 . S
C530 H545 0.951 . S
C531 C530 1.402 . S
C531 C532 1.375 . S
C531 C534 1.481 . S
C532 C531 1.375 . S
C532 C533 1.367 . S
C532 H546 0.951 . S
C533 C529 1.383 . S
C533 C532 1.367 . S
C533 H547 0.950 . S
C534 C531 1.481 . S
C534 C535 1.297 . S
C534 H548 0.950 . S
C535 C534 1.297 . S
C535 C536 1.479 1_545 S
C535 H549 0.950 . S
C536 C535 1.479 1_565 S
C536 C537 1.375 . S
C536 C542 1.404 . S
C537 C536 1.375 . S
C537 C538 1.369 . S
C537 H550 0.950 . S
C538 C537 1.369 . S
C538 C539 1.392 . S
C538 H551 0.951 . S
C539 C538 1.392 . S
C539 C541 1.384 . S
H540 C542 0.949 . S
C541 C539 1.384 . S
C541 C542 1.385 . S
C541 H543 0.950 . S
C542 C536 1.404 . S
C542 H540 0.949 . S
C542 C541 1.385 . S
H543 C541 0.950 . S
H544 C528 0.951 . S
H545 C530 0.951 . S
H546 C532 0.951 . S
H547 C533 0.950 . S
H548 C534 0.950 . S
H549 C535 0.950 . S
H550 C537 0.950 . S
H551 C538 0.951 . S
C121 C88 1.939 . S
C131 C9 2.209 . S
C145 C109 2.178 . S
C155 C28 2.010 . S
C169 C49 2.196 . S
C179 C68 1.942 . S
C193 C8 1.950 . S
C203 C89 2.171 . S
C217 C108 1.983 . S
C227 C29 2.171 . S
C241 C48 1.980 . S
C251 C69 2.168 . S
C265 C2 1.683 . S
C275 C58 1.669 . S
C289 C22 1.696 . S
C299 C18 1.607 . S
C313 C42 1.696 . S
C323 C38 1.602 . S
C337 C79 1.665 . S
C347 C81 1.609 . S
C361 C99 1.684 . S
C371 C101 1.539 . S
C385 C61 1.628 . S
C395 C119 1.636 . S
C409 C1 0.932 . S
C419 C59 0.950 . S
C433 C21 0.979 . S
C443 C19 0.896 . S
C457 C41 0.869 . S
C467 C39 0.998 . S
C481 C78 0.900 . S
C491 C82 0.974 . S
C505 C98 0.981 . S
C515 C102 0.937 . S
C529 C62 0.971 . S
C539 C118 0.888 . S
