# Generated by pormake.
# Topology uob, (4)-cn, num edge types: 1
# Building blocks:
#     Node 0, Type 0, BuildingBlock: ICAMEG_clean_sbu_1, # of connection points: 4
#     Node 1, Type 0, BuildingBlock: ICAMEG_clean_sbu_1, # of connection points: 4
#     Node 2, Type 0, BuildingBlock: ICAMEG_clean_sbu_1, # of connection points: 4
#     Node 3, Type 0, BuildingBlock: ICAMEG_clean_sbu_1, # of connection points: 4
#     Node 4, Type 0, BuildingBlock: ICAMEG_clean_sbu_1, # of connection points: 4
#     Node 5, Type 0, BuildingBlock: ICAMEG_clean_sbu_1, # of connection points: 4
#     Node 6, Type 0, BuildingBlock: ICAMEG_clean_sbu_1, # of connection points: 4
#     Node 7, Type 0, BuildingBlock: ICAMEG_clean_sbu_1, # of connection points: 4
#     Node 8, Type 0, BuildingBlock: ICAMEG_clean_sbu_1, # of connection points: 4
#     Node 9, Type 0, BuildingBlock: ICAMEG_clean_sbu_1, # of connection points: 4
#     Node 10, Type 0, BuildingBlock: ICAMEG_clean_sbu_1, # of connection points: 4
#     Node 11, Type 0, BuildingBlock: ICAMEG_clean_sbu_1, # of connection points: 4
#     Node 12, Type 0, BuildingBlock: ICAMEG_clean_sbu_1, # of connection points: 4
#     Node 13, Type 0, BuildingBlock: ICAMEG_clean_sbu_1, # of connection points: 4
#     Node 14, Type 0, BuildingBlock: ICAMEG_clean_sbu_1, # of connection points: 4
#     Node 15, Type 0, BuildingBlock: ICAMEG_clean_sbu_1, # of connection points: 4
#     Edge 16, Type (0, 0), BuildingBlock: UVAHIK_clean_linker_0, # of connection points: 2
#     Edge 17, Type (0, 0), BuildingBlock: UVAHIK_clean_linker_0, # of connection points: 2
#     Edge 18, Type (0, 0), BuildingBlock: UVAHIK_clean_linker_0, # of connection points: 2
#     Edge 19, Type (0, 0), BuildingBlock: UVAHIK_clean_linker_0, # of connection points: 2
#     Edge 20, Type (0, 0), BuildingBlock: UVAHIK_clean_linker_0, # of connection points: 2
#     Edge 21, Type (0, 0), BuildingBlock: UVAHIK_clean_linker_0, # of connection points: 2
#     Edge 22, Type (0, 0), BuildingBlock: UVAHIK_clean_linker_0, # of connection points: 2
#     Edge 23, Type (0, 0), BuildingBlock: UVAHIK_clean_linker_0, # of connection points: 2
#     Edge 24, Type (0, 0), BuildingBlock: UVAHIK_clean_linker_0, # of connection points: 2
#     Edge 25, Type (0, 0), BuildingBlock: UVAHIK_clean_linker_0, # of connection points: 2
#     Edge 26, Type (0, 0), BuildingBlock: UVAHIK_clean_linker_0, # of connection points: 2
#     Edge 27, Type (0, 0), BuildingBlock: UVAHIK_clean_linker_0, # of connection points: 2
#     Edge 28, Type (0, 0), BuildingBlock: UVAHIK_clean_linker_0, # of connection points: 2
#     Edge 29, Type (0, 0), BuildingBlock: UVAHIK_clean_linker_0, # of connection points: 2
#     Edge 30, Type (0, 0), BuildingBlock: UVAHIK_clean_linker_0, # of connection points: 2
#     Edge 31, Type (0, 0), BuildingBlock: UVAHIK_clean_linker_0, # of connection points: 2
#     Edge 32, Type (0, 0), BuildingBlock: UVAHIK_clean_linker_0, # of connection points: 2
#     Edge 33, Type (0, 0), BuildingBlock: UVAHIK_clean_linker_0, # of connection points: 2
#     Edge 34, Type (0, 0), BuildingBlock: UVAHIK_clean_linker_0, # of connection points: 2
#     Edge 35, Type (0, 0), BuildingBlock: UVAHIK_clean_linker_0, # of connection points: 2
#     Edge 36, Type (0, 0), BuildingBlock: UVAHIK_clean_linker_0, # of connection points: 2
#     Edge 37, Type (0, 0), BuildingBlock: UVAHIK_clean_linker_0, # of connection points: 2
#     Edge 38, Type (0, 0), BuildingBlock: UVAHIK_clean_linker_0, # of connection points: 2
#     Edge 39, Type (0, 0), BuildingBlock: UVAHIK_clean_linker_0, # of connection points: 2
#     Edge 40, Type (0, 0), BuildingBlock: UVAHIK_clean_linker_0, # of connection points: 2
#     Edge 41, Type (0, 0), BuildingBlock: UVAHIK_clean_linker_0, # of connection points: 2
#     Edge 42, Type (0, 0), BuildingBlock: UVAHIK_clean_linker_0, # of connection points: 2
#     Edge 43, Type (0, 0), BuildingBlock: UVAHIK_clean_linker_0, # of connection points: 2
#     Edge 44, Type (0, 0), BuildingBlock: UVAHIK_clean_linker_0, # of connection points: 2
#     Edge 45, Type (0, 0), BuildingBlock: UVAHIK_clean_linker_0, # of connection points: 2
#     Edge 46, Type (0, 0), BuildingBlock: UVAHIK_clean_linker_0, # of connection points: 2
#     Edge 47, Type (0, 0), BuildingBlock: UVAHIK_clean_linker_0, # of connection points: 2
# Relax obj value: 0.108
# Max RMSD: 0.131
# Mean RMSD: 0.131
data_MOF--net-uob--node1-ICAMEG_clean_sbu_1--edge1-UVAHIK_clean_linker_0
_symmetry_space_group_name_H-M    P1
_symmetry_Int_Tables_number       1
_symmetry_cell_setting            triclinic
loop_
_symmetry_equiv_pos_as_xyz
'x, y, z'
_cell_length_a     73.598116
_cell_length_b     73.577501
_cell_length_c     37.473174
_cell_angle_alpha  90.011929
_cell_angle_beta   89.938846
_cell_angle_gamma 89.999258
loop_
_atom_site_label
_atom_site_type_symbol
_atom_site_fract_x
_atom_site_fract_y
_atom_site_fract_z
_atom_type_partial_charge
Co0 Co 0.10243 0.07357 0.27097 0.0
Co1 Co 0.1223 0.0332 0.29689 0.0
O2 O 0.12313 0.05702 0.27402 0.0
C3 C 0.11467 0.06874 0.19706 0.0
O4 O 0.11618 0.05135 0.20417 0.0
C5 C 0.15211 0.05211 0.33328 0.0
O6 O 0.14117 0.06613 0.33596 0.0
O7 O 0.11104 0.04373 0.34042 0.0
O8 O 0.09488 0.06765 0.32068 0.0
H9 H 0.09335 0.98238 0.36613 0.0
H10 H 0.1393 0.0869 0.25253 0.0
O11 O 0.10937 0.07978 0.22103 0.0
H12 H 0.11897 0.12523 0.35288 0.0
H13 H 0.07147 0.1318 0.23532 0.0
H14 H 0.06368 0.07196 0.29255 0.0
H15 H 0.09897 0.10137 0.32855 0.0
H16 H 0.09737 0.1107 0.24072 0.0
O17 O 0.14683 0.03765 0.31777 0.0
H18 H 0.09435 0.01231 0.33655 0.0
H19 H 0.1494 0.00355 0.30706 0.0
H20 H 0.03745 0.09269 0.28798 0.0
H21 H 0.15968 0.11071 0.27584 0.0
H22 H 0.04126 0.12286 0.25919 0.0
H23 H 0.14957 0.13003 0.32646 0.0
O24 O 0.08643 0.05391 0.25275 0.0
H25 H 0.16814 0.03034 0.19759 0.0
H26 H 0.11385 0.0015 0.2501 0.0
H27 H 0.12728 0.98872 0.19522 0.0
H28 H 0.15463 0.00316 0.16863 0.0
H29 H 0.15417 0.04279 0.25226 0.0
H30 H 0.14905 0.97359 0.33661 0.0
H31 H 0.12085 0.96279 0.36627 0.0
O32 O 0.09767 0.02835 0.27694 0.0
C33 C 0.09966 0.05657 0.34504 0.0
C34 C 0.1057 0.9869 0.35318 0.0
C35 C 0.13697 0.98197 0.33665 0.0
N36 N 0.12186 0.00958 0.31981 0.0
C37 C 0.10633 0.00381 0.33629 0.0
C38 C 0.13709 -0.00104 0.32002 0.0
C39 C 0.12114 0.97593 0.35328 0.0
C40 C 0.13473 0.09538 0.2743 0.0
N41 N 0.11793 0.09281 0.28902 0.0
C42 C 0.14636 0.10879 0.2875 0.0
C43 C 0.14069 0.1196 0.31594 0.0
C44 C 0.12353 0.11691 0.33079 0.0
C45 C 0.11227 0.10335 0.31695 0.0
C46 C 0.06965 0.11872 0.24802 0.0
C47 C 0.06548 0.08512 0.28025 0.0
C48 C 0.08425 0.10671 0.25112 0.0
N49 N 0.08207 0.0902 0.26729 0.0
C50 C 0.05056 0.09678 0.27762 0.0
C51 C 0.0527 0.11369 0.26142 0.0
C52 C 0.08551 0.03696 0.25957 0.0
C53 C 0.15625 0.0239 0.20898 0.0
C54 C 0.12572 0.00789 0.23862 0.0
C55 C 0.13329 0.00057 0.2076 0.0
C56 C 0.14865 0.00866 0.19272 0.0
N57 N 0.13326 0.02284 0.25442 0.0
C58 C 0.14834 0.03083 0.24002 0.0
Co59 Co 0.92599 0.606 0.53795 0.0
Co60 Co 0.97017 0.62101 0.54957 0.0
O61 O 0.94563 0.62338 0.53005 0.0
C62 C 0.93074 0.60592 0.45994 0.0
O63 O 0.94836 0.60609 0.46535 0.0
C64 C 0.95546 0.6543 0.58159 0.0
O65 O 0.94034 0.6451 0.58564 0.0
O66 O 0.96094 0.61283 0.59703 0.0
O67 O 0.93167 0.60503 0.58959 0.0
H68 H 0.02107 0.58952 0.61398 0.0
H69 H 0.91874 0.64073 0.50061 0.0
O70 O 0.91981 0.60649 0.48621 0.0
H71 H 0.87865 0.64123 0.60612 0.0
H72 H 0.86312 0.58061 0.51992 0.0
H73 H 0.92202 0.57223 0.58037 0.0
H74 H 0.89846 0.61492 0.5938 0.0
H75 H 0.88797 0.60267 0.51113 0.0
O76 O 0.96918 0.64684 0.56682 0.0
H77 H 0.9901 0.59252 0.58958 0.0
H78 H 0.00263 0.64521 0.55036 0.0
H79 H 0.89748 0.54993 0.59015 0.0
H80 H 0.89902 0.66726 0.51167 0.0
H81 H 0.86778 0.55406 0.55979 0.0
H82 H 0.87885 0.66765 0.56486 0.0
O83 O 0.94256 0.58503 0.52901 0.0
H84 H 0.97268 0.66161 0.44188 0.0
H85 H -0.00141 0.60727 0.49965 0.0
H86 H 0.01001 0.61677 0.44062 0.0
H87 H 0.99705 0.64414 0.41137 0.0
H88 H 0.96156 0.65153 0.50078 0.0
H89 H 0.0337 0.64285 0.5746 0.0
H90 H 0.04311 0.61481 0.60655 0.0
O91 O 0.9713 0.59525 0.53327 0.0
C92 C 0.94568 0.60731 0.60896 0.0
C93 C 0.01715 0.60178 0.60002 0.0
C94 C 0.02423 0.63172 0.57796 0.0
N95 N 0.99462 0.61896 0.56836 0.0
C96 C -0.00035 0.60353 0.58606 0.0
C97 C 0.00661 0.633 0.56437 0.0
C98 C 0.0295 0.61599 0.59587 0.0
C99 C 0.90989 0.64075 0.52364 0.0
N100 N 0.90976 0.62631 0.54656 0.0
C101 C 0.8988 0.65583 0.52983 0.0
C102 C 0.8875 0.65605 0.55971 0.0
C103 C 0.88739 0.64124 0.58289 0.0
C104 C 0.89868 0.6264 0.57586 0.0
C105 C 0.87599 0.57869 0.53335 0.0
C106 C 0.90908 0.57418 0.56726 0.0
C107 C 0.89012 0.59111 0.52842 0.0
N108 N 0.90638 0.58881 0.54544 0.0
C109 C 0.89526 0.56148 0.57281 0.0
C110 C 0.87861 0.56379 0.55574 0.0
C111 C 0.95974 0.58268 0.52739 0.0
C112 C 0.97847 0.64969 0.45439 0.0
C113 C 0.99285 0.61917 0.48704 0.0
C114 C -0.00061 0.6245 0.45365 0.0
C115 C 0.99213 0.63987 0.43727 0.0
N116 N 0.97948 0.6289 0.50369 0.0
C117 C 0.97227 0.64396 0.48779 0.0
Co118 Co 0.38316 0.42697 0.77956 0.0
Co119 Co 0.36575 0.46504 0.82124 0.0
O120 O 0.36516 0.44625 0.78453 0.0
C121 C 0.38465 0.44502 0.7096 0.0
O122 O 0.38669 0.46051 0.72649 0.0
C123 C 0.33077 0.4467 0.83161 0.0
O124 O 0.33985 0.43144 0.82842 0.0
O125 O 0.37032 0.4468 0.85929 0.0
O126 O 0.38432 0.42337 0.83214 0.0
H127 H 0.39101 0.49777 0.92791 0.0
H128 H 0.34893 0.425 0.73806 0.0
O129 O 0.38257 0.43025 0.72681 0.0
H130 H 0.34941 0.36991 0.813 0.0
H131 H 0.41015 0.37169 0.7207 0.0
H132 H 0.41744 0.41713 0.81637 0.0
H133 H 0.3749 0.39165 0.8152 0.0
H134 H 0.3874 0.39595 0.72907 0.0
O135 O 0.339 0.46188 0.8289 0.0
H136 H 0.3904 0.47414 0.88118 0.0
H137 H 0.34135 0.49596 0.83971 0.0
H138 H 0.44044 0.39301 0.80917 0.0
H139 H 0.32324 0.40353 0.73479 0.0
H140 H 0.43686 0.37007 0.76104 0.0
H141 H 0.32335 0.37579 0.77256 0.0
O142 O 0.40341 0.44472 0.78286 0.0
H143 H 0.33379 0.49015 0.71362 0.0
H144 H 0.38267 0.50044 0.80124 0.0
H145 H 0.37755 0.52293 0.75349 0.0
H146 H 0.35294 0.51786 0.7093 0.0
H147 H 0.33947 0.46794 0.76165 0.0
H148 H 0.34133 0.51973 0.88618 0.0
H149 H 0.36634 0.52077 0.93061 0.0
O150 O 0.39253 0.46833 0.81453 0.0
C151 C 0.37843 0.43151 0.85981 0.0
C152 C 0.38007 0.49749 0.90863 0.0
C153 C 0.35218 0.5098 0.88524 0.0
N154 N 0.36595 0.48379 0.85758 0.0
C155 C 0.37969 0.48419 0.88205 0.0
C156 C 0.35224 0.4963 0.85903 0.0
C157 C 0.36622 0.51038 0.91015 0.0
C158 C 0.34917 0.41286 0.75428 0.0
N159 N 0.36343 0.40954 0.77666 0.0
C160 C 0.33454 0.40079 0.75244 0.0
C161 C 0.3346 0.38525 0.77368 0.0
C162 C 0.34921 0.38195 0.7964 0.0
C163 C 0.36359 0.39433 0.79758 0.0
C164 C 0.41182 0.38157 0.74186 0.0
C165 C 0.41571 0.40709 0.7956 0.0
C166 C 0.39899 0.39534 0.74671 0.0
N167 N 0.40097 0.40779 0.7735 0.0
C168 C 0.42881 0.39352 0.79154 0.0
C169 C 0.42681 0.38066 0.7645 0.0
C170 C 0.4054 0.45997 0.79859 0.0
C171 C 0.34452 0.49254 0.73277 0.0
C172 C 0.37196 0.49812 0.78205 0.0
C173 C 0.36911 0.51092 0.75512 0.0
C174 C 0.35529 0.50807 0.73034 0.0
N175 N 0.3613 0.48294 0.78432 0.0
C176 C 0.34775 0.48004 0.76009 0.0
Co177 Co 0.56606 0.88745 0.02896 0.0
Co178 Co 0.52558 0.87094 0.06279 0.0
O179 O 0.5476 0.86861 0.03405 0.0
C180 C 0.55414 0.88141 0.95514 0.0
O181 O 0.53735 0.88265 0.96673 0.0
C182 C 0.54507 0.84026 0.09441 0.0
O183 O 0.55965 0.85045 0.09206 0.0
O184 O 0.53925 0.88156 0.10354 0.0
O185 O 0.56506 0.89305 0.08079 0.0
H186 H 0.48125 0.90295 0.1432 0.0
H187 H 0.57322 0.85048 0.00072 0.0
O188 O 0.5674 0.8824 0.97678 0.0
H189 H 0.62111 0.86144 0.09011 0.0
H190 H 0.62406 0.91369 0.97969 0.0
H191 H 0.57089 0.92487 0.05684 0.0
H192 H 0.59825 0.88503 0.07703 0.0
H193 H 0.60065 0.89004 0.98782 0.0
O194 O 0.52987 0.84615 0.08301 0.0
H195 H 0.50902 0.90012 0.10671 0.0
H196 H 0.49524 0.84569 0.08048 0.0
H197 H 0.59404 0.94884 0.04969 0.0
H198 H 0.5959 0.82658 0.01277 0.0
H199 H 0.62086 0.94332 0.01088 0.0
H200 H 0.62002 0.83197 0.05785 0.0
O201 O 0.54725 0.90636 0.02 0.0
H202 H 0.51389 0.82552 0.96534 0.0
H203 H 0.4918 0.88133 0.02399 0.0
H204 H 0.47488 0.86874 0.97285 0.0
H205 H 0.4859 0.84062 0.94322 0.0
H206 H 0.53048 0.83867 0.01639 0.0
H207 H 0.46739 0.84786 0.11695 0.0
H208 H 0.46021 0.87668 0.14848 0.0
O209 O 0.5212 0.89581 0.0437 0.0
C210 C 0.55422 0.89013 0.10666 0.0
C211 C 0.48419 0.89034 0.12947 0.0
C212 C 0.47642 0.85942 0.11477 0.0
N213 N 0.50363 0.87283 0.09118 0.0
C214 C 0.49986 0.88868 0.10867 0.0
C215 C 0.49222 0.85826 0.09421 0.0
C216 C 0.4724 0.87559 0.13245 0.0
C217 C 0.58379 0.85299 0.0201 0.0
N218 N 0.58447 0.86916 0.03801 0.0
C219 C 0.59655 0.83938 0.02693 0.0
C220 C 0.61006 0.84241 0.05226 0.0
C221 C 0.61068 0.85894 0.07039 0.0
C222 C 0.59768 0.87223 0.06291 0.0
C223 C 0.61246 0.91624 -0.00324 0.0
C224 C 0.5826 0.92232 0.04013 0.0
C225 C 0.59916 0.90291 0.00143 0.0
N226 N 0.58453 0.90601 0.0231 0.0
C227 C 0.59563 0.93596 0.03608 0.0
C228 C 0.61066 0.93286 0.01427 0.0
C229 C 0.53047 0.90807 0.02792 0.0
C230 C 0.50893 0.83776 0.9781 0.0
C231 C 0.49671 0.86912 0.01116 0.0
C232 C 0.48705 0.86203 0.98227 0.0
C233 C 0.49323 0.84625 0.96567 0.0
N234 N 0.51205 0.86067 0.02326 0.0
C235 C 0.51823 0.84522 0.00708 0.0
Co236 Co 0.10187 0.42331 0.03877 0.0
Co237 Co 0.1212 0.46439 0.01525 0.0
O238 O 0.12245 0.44002 0.03577 0.0
C239 C 0.11519 0.42665 0.11225 0.0
O240 O 0.11676 0.44414 0.1062 0.0
C241 C 0.15006 0.44618 0.97459 0.0
O242 O 0.13888 0.43235 0.97175 0.0
O243 O 0.109 0.45497 0.97181 0.0
O244 O 0.09355 0.43025 0.98999 0.0
H245 H 0.09104 0.51689 0.95334 0.0
H246 H 0.13901 0.40976 0.05373 0.0
O247 O 0.10955 0.41606 0.0878 0.0
H248 H 0.11725 0.37352 0.95164 0.0
H249 H 0.07151 0.36431 0.07159 0.0
H250 H 0.06283 0.42527 0.01963 0.0
H251 H 0.09756 0.39674 0.97922 0.0
H252 H 0.0973 0.38558 0.06633 0.0
O253 O 0.14528 0.46035 -0.00825 0.0
H254 H 0.09255 0.48625 0.97992 0.0
H255 H 0.14818 0.49419 0.00557 0.0
H256 H 0.0367 0.40439 0.02411 0.0
H257 H 0.15911 0.38657 0.02714 0.0
H258 H 0.04097 0.37366 0.05024 0.0
H259 H 0.14827 0.36831 0.97563 0.0
O260 O 0.08619 0.44249 0.05974 0.0
H261 H 0.16915 0.4647 0.11057 0.0
H262 H 0.1139 0.49492 0.06569 0.0
H263 H 0.12854 0.50629 0.12051 0.0
H264 H 0.15638 0.49115 0.14326 0.0
H265 H 0.15397 0.45366 0.05605 0.0
H266 H 0.14733 0.52485 0.97898 0.0
H267 H 0.11858 0.53641 0.95277 0.0
O268 O 0.09699 0.46883 0.03792 0.0
C269 C 0.0978 0.44205 0.96652 0.0
C270 C 0.10363 0.51204 0.96481 0.0
C271 C 0.13523 0.5165 0.97916 0.0
N272 N 0.12037 0.48854 -0.00536 0.0
C273 C 0.10455 0.49473 0.98001 0.0
C274 C 0.13563 0.49912 -0.00587 0.0
C275 C 0.11909 0.52298 0.96447 0.0
C276 C 0.13414 0.40173 0.03157 0.0
N277 N 0.11711 0.40453 0.01817 0.0
C278 C 0.1456 0.38868 0.01652 0.0
C279 C 0.13952 0.37845 0.98758 0.0
C280 C 0.12212 0.38138 0.9741 0.0
C281 C 0.11105 0.39457 0.98978 0.0
C282 C 0.06949 0.37765 0.06005 0.0
C283 C 0.06482 0.41187 0.03078 0.0
C284 C 0.08404 0.38975 0.05705 0.0
N285 N 0.0816 0.40657 0.04235 0.0
C286 C 0.04996 0.40013 0.03336 0.0
C287 C 0.05236 0.3829 0.04807 0.0
C288 C 0.08522 0.45964 0.05529 0.0
C289 C 0.15706 0.47144 0.10086 0.0
C290 C 0.12598 0.48822 0.07549 0.0
C291 C 0.13424 0.49475 0.10649 0.0
C292 C 0.14987 0.48626 0.11923 0.0
N293 N 0.13312 0.47368 0.05763 0.0
C294 C 0.14846 0.4653 0.06992 0.0
Co295 Co 0.57334 0.61038 0.29348 0.0
Co296 Co 0.53284 0.62794 0.26198 0.0
O297 O 0.55333 0.62774 0.29511 0.0
C298 C 0.5581 0.60459 0.36519 0.0
O299 O 0.542 0.60342 0.35035 0.0
C300 C 0.55028 0.66337 0.25253 0.0
O301 O 0.56573 0.65448 0.2531 0.0
O302 O 0.54908 0.62466 0.21999 0.0
O303 O 0.57491 0.61235 0.24072 0.0
H304 H 0.49533 0.60534 0.15919 0.0
H305 H 0.57572 0.64221 0.34175 0.0
O306 O 0.57212 0.60789 0.34636 0.0
H307 H 0.62781 0.64805 0.25965 0.0
H308 H 0.6316 0.58256 0.33774 0.0
H309 H 0.58293 0.57893 0.24766 0.0
H310 H 0.6069 0.62196 0.25497 0.0
H311 H 0.60631 0.60457 0.33819 0.0
O312 O 0.53535 0.65487 0.25663 0.0
H313 H 0.5211 0.60494 0.20123 0.0
H314 H 0.50089 0.65232 0.25243 0.0
H315 H 0.60804 0.55673 0.24604 0.0
H316 H 0.5964 0.66843 0.34759 0.0
H317 H 0.63261 0.55848 0.29131 0.0
H318 H 0.62262 0.67151 0.30624 0.0
O319 O 0.5562 0.58963 0.28852 0.0
H320 H 0.51287 0.65651 0.37732 0.0
H321 H 0.49881 0.60994 0.28681 0.0
H322 H 0.47877 0.61335 0.33918 0.0
H323 H 0.48574 0.6368 0.38485 0.0
H324 H 0.53264 0.65253 0.32466 0.0
H325 H 0.47497 0.65332 0.21076 0.0
H326 H 0.47204 0.62966 0.16382 0.0
O327 O 0.53021 0.60107 0.26626 0.0
C328 C 0.56494 0.6181 0.21539 0.0
C329 C 0.49642 0.61568 0.17961 0.0
C330 C 0.485 0.64263 0.20853 0.0
N331 N 0.51238 0.62848 0.22945 0.0
C332 C 0.51094 0.61549 0.20356 0.0
C333 C 0.49972 0.64201 0.23201 0.0
C334 C 0.48336 0.62934 0.1822 0.0
C335 C 0.58722 0.64336 0.32391 0.0
N336 N 0.59015 0.63053 0.29817 0.0
C337 C 0.59883 0.65828 0.32724 0.0
C338 C 0.61352 0.66001 0.304 0.0
C339 C 0.61644 0.64686 0.27784 0.0
C340 C 0.60453 0.63213 0.27527 0.0
C341 C 0.62101 0.58169 0.3178 0.0
C342 C 0.59365 0.57985 0.26729 0.0
C343 C 0.60664 0.5941 0.31795 0.0
N344 N 0.59328 0.59315 0.29273 0.0
C345 C 0.6078 0.56721 0.26631 0.0
C346 C 0.62157 0.56819 0.29174 0.0
C347 C 0.53999 0.58784 0.27696 0.0
C348 C 0.50967 0.64628 0.35755 0.0
C349 C 0.50196 0.62014 0.30662 0.0
C350 C 0.49054 0.62204 0.33618 0.0
C351 C 0.49445 0.6352 0.36178 0.0
N352 N 0.51682 0.6311 0.30261 0.0
C353 C 0.52077 0.64401 0.32762 0.0
Co354 Co 0.3821 0.06915 0.53291 0.0
Co355 Co 0.36679 0.02965 0.49319 0.0
O356 O 0.36439 0.04972 0.52687 0.0
C357 C 0.37983 0.05282 0.60424 0.0
O358 O 0.38171 0.0369 0.58888 0.0
C359 C 0.33344 0.04857 0.47267 0.0
O360 O 0.34296 0.06356 0.47568 0.0
O361 O 0.37443 0.04625 0.45415 0.0
O362 O 0.38559 0.07132 0.48041 0.0
H363 H 0.39757 0.99253 0.39818 0.0
H364 H 0.34607 0.07208 0.56789 0.0
O365 O 0.37915 0.06727 0.58563 0.0
H366 H 0.35016 0.12513 0.48789 0.0
H367 H 0.40656 0.12592 0.59041 0.0
H368 H 0.41784 0.07813 0.50078 0.0
H369 H 0.37564 0.10348 0.49253 0.0
H370 H 0.38419 0.10143 0.58076 0.0
O371 O 0.34085 0.03322 0.47874 0.0
H372 H 0.39476 0.0178 0.44111 0.0
H373 H 0.34277 -0.00126 0.47305 0.0
H374 H 0.4405 0.10244 0.50933 0.0
H375 H 0.32032 0.09346 0.56426 0.0
H376 H 0.43492 0.12656 0.55443 0.0
H377 H 0.32225 0.12017 0.52392 0.0
O378 O 0.40239 0.05135 0.53512 0.0
H379 H 0.32732 0.00918 0.59502 0.0
H380 H 0.38119 0.99475 0.52195 0.0
H381 H 0.37233 0.97413 0.57087 0.0
H382 H 0.34519 0.98128 0.60774 0.0
H383 H 0.33676 0.0295 0.54603 0.0
H384 H 0.34493 0.97334 0.43023 0.0
H385 H 0.37253 0.97008 0.39255 0.0
O386 O 0.39278 0.0261 0.50688 0.0
C387 C 0.38199 0.06182 0.4529 0.0
C388 C 0.38551 0.99376 0.41456 0.0
C389 C 0.35596 0.983 0.43251 0.0
N390 N 0.36871 0.00961 0.45981 0.0
C391 C 0.38388 0.008 0.439 0.0
C392 C 0.35479 0.99742 0.45666 0.0
C393 C 0.37145 0.98118 0.41138 0.0
C394 C 0.34708 0.08378 0.55057 0.0
N395 N 0.36236 0.08658 0.53059 0.0
C396 C 0.33243 0.09579 0.5485 0.0
C397 C 0.33351 0.11076 0.52582 0.0
C398 C 0.34916 0.11355 0.50558 0.0
C399 C 0.36353 0.10123 0.50828 0.0
C400 C 0.40912 0.11552 0.5706 0.0
C401 C 0.41525 0.08866 0.52024 0.0
C402 C 0.39652 0.10161 0.56505 0.0
N403 N 0.39962 0.0885 0.53994 0.0
C404 C 0.42816 0.10236 0.52506 0.0
C405 C 0.42503 0.11587 0.5504 0.0
C406 C 0.4049 0.03529 0.52325 0.0
C407 C 0.33914 0.00589 0.57908 0.0
C408 C 0.3694 0.99798 0.53795 0.0
C409 C 0.36442 0.98623 0.56556 0.0
C410 C 0.34919 0.99025 0.58623 0.0
N411 N 0.35944 0.01325 0.53104 0.0
C412 C 0.34451 0.0173 0.55122 0.0
Co413 Co 0.93017 0.88398 0.77776 0.0
Co414 Co 0.97185 0.87088 0.74388 0.0
O415 O 0.95088 0.86748 0.77516 0.0
C416 C 0.94313 0.88365 0.85187 0.0
O417 O 0.95953 0.88666 0.83937 0.0
C418 C 0.95675 0.83563 0.72321 0.0
O419 O 0.94092 0.84382 0.72378 0.0
O420 O 0.95605 0.87614 0.70214 0.0
O421 O 0.93008 0.88733 0.72506 0.0
H422 H 0.0095 0.90289 0.65128 0.0
H423 H 0.9279 0.84798 0.81291 0.0
O424 O 0.92983 0.88132 0.83069 0.0
H425 H 0.87853 0.84842 0.72404 0.0
H426 H 0.86964 0.90487 0.82515 0.0
H427 H 0.92043 0.9191 0.74388 0.0
H428 H 0.89828 0.87522 0.73173 0.0
H429 H 0.89581 0.88408 0.81992 0.0
O430 O 0.9711 0.84443 0.73114 0.0
H431 H 0.98307 0.89869 0.691 0.0
H432 H 0.00538 0.84931 0.72995 0.0
H433 H 0.89446 0.9402 0.74804 0.0
H434 H 0.90837 0.82094 0.80631 0.0
H435 H 0.86883 0.93313 0.78892 0.0
H436 H 0.88353 0.82102 0.7615 0.0
O437 O 0.9465 0.90533 0.78254 0.0
H438 H 0.99188 0.83551 0.85154 0.0
H439 H 0.00429 0.88889 0.77579 0.0
H440 H 0.02374 0.88291 0.82804 0.0
H441 H 0.0176 0.85602 0.86628 0.0
H442 H 0.97267 0.8421 0.79918 0.0
H443 H 0.03197 0.85287 0.69041 0.0
H444 H 0.03418 0.87986 0.65083 0.0
O445 O 0.97274 0.89741 0.75572 0.0
C446 C 0.94041 0.88335 0.69894 0.0
C447 C 0.00873 0.8911 0.66851 0.0
C448 C 0.02133 0.86302 0.69043 0.0
N449 N 0.99279 0.87388 0.71301 0.0
C450 C 0.99383 0.88869 0.69114 0.0
C451 C 0.00623 0.86106 0.71271 0.0
C452 C 0.02256 0.87817 0.66824 0.0
C453 C 0.91699 0.84819 0.79363 0.0
N454 N 0.91418 0.86318 0.77285 0.0
C455 C 0.90603 0.83281 0.7899 0.0
C456 C 0.89211 0.83286 0.76471 0.0
C457 C 0.88931 0.84822 0.74367 0.0
C458 C 0.90055 0.86334 0.74809 0.0
C459 C 0.8807 0.90807 0.80715 0.0
C460 C 0.90925 0.91585 0.76148 0.0
C461 C 0.89556 0.89636 0.8041 0.0
N462 N 0.90952 0.90027 0.78128 0.0
C463 C 0.89462 0.92788 0.76384 0.0
C464 C 0.88025 0.92392 0.78681 0.0
C465 C 0.96249 0.90893 0.77145 0.0
C466 C 0.99472 0.84724 0.83502 0.0
C467 C 0.0015 0.8772 0.79236 0.0
C468 C 0.01258 0.87386 0.82187 0.0
C469 C 0.00914 0.85876 0.84331 0.0
N470 N 0.98742 0.86579 0.78436 0.0
C471 C 0.98393 0.851 0.80528 0.0
Co472 Co 0.61054 0.56627 0.7856 0.0
Co473 Co 0.62506 0.52706 0.82746 0.0
O474 O 0.62704 0.54572 0.79064 0.0
C475 C 0.60716 0.54845 0.71532 0.0
O476 O 0.60361 0.5331 0.73174 0.0
C477 C 0.66077 0.54364 0.83867 0.0
O478 O 0.65236 0.55926 0.83527 0.0
O479 O 0.62097 0.54548 0.86553 0.0
O480 O 0.60995 0.57022 0.838 0.0
H481 H 0.59695 0.49574 0.9331 0.0
H482 H 0.64472 0.56541 0.74367 0.0
O483 O 0.6107 0.56281 0.73292 0.0
H484 H 0.6485 0.62089 0.81715 0.0
H485 H 0.58735 0.62307 0.72622 0.0
H486 H 0.57736 0.57887 0.82319 0.0
H487 H 0.62147 0.60113 0.82021 0.0
H488 H 0.60831 0.59726 0.73454 0.0
O489 O 0.65189 0.52883 0.83604 0.0
H490 H 0.59929 0.51926 0.8864 0.0
H491 H 0.64761 0.49493 0.84685 0.0
H492 H 0.55615 0.60457 0.81603 0.0
H493 H 0.67193 0.58488 0.73958 0.0
H494 H 0.56109 0.62689 0.76725 0.0
H495 H 0.67397 0.6128 0.77661 0.0
O496 O 0.58901 0.55005 0.78955 0.0
H497 H 0.65679 0.50018 0.72104 0.0
H498 H 0.60648 0.49263 0.80681 0.0
H499 H 0.61089 0.46985 0.75927 0.0
H500 H 0.63622 0.47353 0.71602 0.0
H501 H 0.65179 0.52271 0.76882 0.0
H502 H 0.6459 0.47123 0.89332 0.0
H503 H 0.62038 0.47151 0.93676 0.0
O504 O 0.59825 0.52526 0.8197 0.0
C505 C 0.61449 0.56154 0.86597 0.0
C506 C 0.6081 0.49544 0.91425 0.0
C507 C 0.63558 0.48169 0.89195 0.0
N508 N 0.62347 0.50836 0.86376 0.0
C509 C 0.60946 0.50868 0.88768 0.0
C510 C 0.6365 0.49516 0.86575 0.0
C511 C 0.62126 0.48185 0.91631 0.0
C512 C 0.64542 0.57765 0.75959 0.0
N513 N 0.63149 0.58217 0.78202 0.0
C514 C 0.6609 0.58857 0.75728 0.0
C515 C 0.66204 0.60422 0.7781 0.0
C516 C 0.64776 0.60876 0.80087 0.0
C517 C 0.63251 0.5975 0.80253 0.0
C518 C 0.58508 0.61347 0.74764 0.0
C519 C 0.57967 0.58861 0.80208 0.0
C520 C 0.59689 0.59882 0.75246 0.0
N521 N 0.59417 0.58669 0.77958 0.0
C522 C 0.56759 0.6031 0.79807 0.0
C523 C 0.57035 0.61561 0.77067 0.0
C524 C 0.58598 0.53473 0.8044 0.0
C525 C 0.64573 0.4984 0.73979 0.0
C526 C 0.61751 0.49435 0.78802 0.0
C527 C 0.61996 0.48139 0.76121 0.0
C528 C 0.63418 0.48346 0.73696 0.0
N529 N 0.62894 0.50893 0.79068 0.0
C530 C 0.64288 0.51108 0.76697 0.0
Co531 Co 0.42423 0.1112 0.02299 0.0
Co532 Co 0.46619 0.12677 0.05114 0.0
O533 O 0.44421 0.12863 0.0221 0.0
C534 C 0.4362 0.10977 0.94825 0.0
O535 O 0.45294 0.10843 0.96001 0.0
C536 C 0.44906 0.16072 0.0738 0.0
O537 O 0.43373 0.15164 0.07287 0.0
O538 O 0.45208 0.12025 0.09465 0.0
O539 O 0.42501 0.10998 0.07587 0.0
H540 H 0.50861 0.09758 0.13911 0.0
H541 H 0.41992 0.1457 0.9831 0.0
O542 O 0.42305 0.11185 0.96991 0.0
H543 H 0.37168 0.14633 0.07453 0.0
H544 H 0.36408 0.08596 0.98269 0.0
H545 H 0.41654 0.07717 0.06261 0.0
H546 H 0.39256 0.12023 0.0695 0.0
H547 H 0.38935 0.10798 0.98309 0.0
O548 O 0.46384 0.15299 0.06463 0.0
H549 H 0.48087 0.09985 0.10247 0.0
H550 H 0.4984 0.15071 0.06144 0.0
H551 H 0.39149 0.05489 0.0633 0.0
H552 H 0.39923 0.17202 0.98698 0.0
H553 H 0.36501 0.05923 0.02312 0.0
H554 H 0.37495 0.17247 0.03306 0.0
O555 O 0.44141 0.09036 0.02008 0.0
H556 H 0.48047 0.16385 0.94211 0.0
H557 H 0.49886 0.11125 0.0152 0.0
H558 H 0.51627 0.11879 0.9609 0.0
H559 H 0.50711 0.14529 0.92398 0.0
H560 H 0.46335 0.15573 -0.00353 0.0
H561 H 0.52627 0.14909 0.09786 0.0
H562 H 0.53154 0.12233 0.13692 0.0
O563 O 0.46864 0.10051 0.0389 0.0
C564 C 0.43633 0.1137 0.10047 0.0
C565 C 0.50651 0.10927 0.12208 0.0
C566 C 0.5164 0.13819 0.09896 0.0
N567 N 0.48813 0.12529 0.07956 0.0
C568 C 0.49086 0.11059 0.10118 0.0
C569 C 0.50059 0.13905 0.07844 0.0
C570 C 0.51936 0.12318 0.12087 0.0
C571 C 0.40927 0.14573 0.00297 0.0
N572 N 0.40739 0.13142 0.02592 0.0
C573 C 0.39764 0.16069 0.00515 0.0
C574 C 0.38404 0.16095 0.03104 0.0
C575 C 0.3822 0.14629 0.05433 0.0
C576 C 0.39408 0.13157 0.05139 0.0
C577 C 0.37551 0.08395 0.00039 0.0
C578 C 0.405 0.07921 0.04525 0.0
C579 C 0.38987 0.09636 0.0007 0.0
N580 N 0.4043 0.09396 0.02314 0.0
C581 C 0.39088 0.06653 0.04566 0.0
C582 C 0.37604 0.06896 0.02309 0.0
C583 C 0.45818 0.08799 0.02736 0.0
C584 C 0.48462 0.15231 0.95803 0.0
C585 C 0.49476 0.12277 -0.00079 0.0
C586 C 0.5047 0.127 0.96854 0.0
C587 C 0.49956 0.14187 0.94785 0.0
N588 N 0.48016 0.13311 0.00906 0.0
C589 C 0.47502 0.14769 0.98889 0.0
Co590 Co 0.88446 0.92731 0.26893 0.0
Co591 Co 0.87007 0.96844 0.30347 0.0
O592 O 0.86716 0.94735 0.27234 0.0
C593 C 0.88284 0.94068 0.19521 0.0
O594 O 0.88494 0.95713 0.20815 0.0
C595 C 0.83581 0.95189 0.3262 0.0
O596 O 0.84451 0.93634 0.32474 0.0
O597 O 0.87656 0.95285 0.34485 0.0
O598 O 0.88816 0.92716 0.32154 0.0
H599 H 0.90166 0.00733 0.39453 0.0
H600 H 0.84833 0.92375 0.23481 0.0
O601 O 0.88144 0.9271 0.21606 0.0
H602 H 0.85136 0.8741 0.32297 0.0
H603 H 0.90734 0.8678 0.22018 0.0
H604 H 0.92016 0.91885 0.30163 0.0
H605 H 0.8773 0.89492 0.31476 0.0
H606 H 0.88559 0.89313 0.2263 0.0
O607 O 0.84392 0.96656 0.31772 0.0
H608 H 0.89807 0.98078 0.35491 0.0
H609 H 0.8473 0.00103 0.31866 0.0
H610 H 0.94221 0.89373 0.29658 0.0
H611 H 0.82213 0.90314 0.24193 0.0
H612 H 0.93585 0.86796 0.25561 0.0
H613 H 0.82353 0.87815 0.28638 0.0
O614 O 0.90511 0.94448 0.26367 0.0
H615 H 0.83236 0.98703 0.19795 0.0
H616 H 0.8862 0.00167 0.2707 0.0
H617 H 0.87864 0.0209 0.21889 0.0
H618 H 0.85152 0.01363 0.18216 0.0
H619 H 0.84052 0.96807 0.24983 0.0
H620 H 0.85025 0.02772 0.35814 0.0
H621 H 0.87763 0.03102 0.39631 0.0
O622 O 0.8963 0.9705 0.29019 0.0
C623 C 0.88418 0.93739 0.3478 0.0
C624 C 0.8897 0.00608 0.37792 0.0
C625 C 0.86084 0.01751 0.35753 0.0
N626 N 0.87259 0.98948 0.33424 0.0
C627 C 0.88763 0.99112 0.35534 0.0
C628 C 0.85923 0.00236 0.33528 0.0
C629 C 0.87621 0.01936 0.37893 0.0
C630 C 0.8491 0.91278 0.25393 0.0
N631 N 0.86434 0.91049 0.27422 0.0
C632 C 0.8342 0.90121 0.25796 0.0
C633 C 0.83499 0.8872 0.28295 0.0
C634 C 0.85059 0.88493 0.3035 0.0
C635 C 0.86522 0.89679 0.29879 0.0
C636 C 0.91024 0.87892 0.23822 0.0
C637 C 0.91723 0.90761 0.28399 0.0
C638 C 0.89799 0.8933 0.24177 0.0
N639 N 0.90151 0.90734 0.26464 0.0
C640 C 0.9298 0.89346 0.28113 0.0
C641 C 0.92623 0.87902 0.2581 0.0
C642 C 0.90809 0.96068 0.27426 0.0
C643 C 0.84418 0.99036 0.2138 0.0
C644 C 0.87441 -0.00161 0.25477 0.0
C645 C 0.87017 0.00935 0.22552 0.0
C646 C 0.85495 0.00527 0.20493 0.0
N647 N 0.86375 0.98382 0.26335 0.0
C648 C 0.84882 0.97971 0.24327 0.0
Co649 Co 0.07823 0.39302 0.54432 0.0
Co650 Co 0.03756 0.36981 0.55249 0.0
O651 O 0.06307 0.37143 0.53825 0.0
C652 C 0.0802 0.38472 0.4679 0.0
O653 O 0.06265 0.38169 0.46942 0.0
C654 C 0.05561 0.34 0.5906 0.0
O655 O 0.06856 0.35165 0.59805 0.0
O656 O 0.04301 0.38004 0.60042 0.0
O657 O 0.06778 0.39758 0.5925 0.0
H658 H 0.97904 0.3928 0.6049 0.0
H659 H 0.09546 0.35818 0.52351 0.0
O660 O 0.08888 0.38919 0.49589 0.0
H661 H 0.12349 0.37483 0.63843 0.0
H662 H 0.13628 0.4288 0.53361 0.0
H663 H 0.07227 0.43022 0.57258 0.0
H664 H 0.1006 0.39478 0.61057 0.0
H665 H 0.11685 0.40167 0.52733 0.0
O666 O 0.042 0.34488 0.57194 0.0
H667 H 0.01119 0.39487 0.58662 0.0
H668 H 0.00977 0.3404 0.54919 0.0
H669 H 0.09125 0.45762 0.57961 0.0
H670 H 0.11842 0.33791 0.55027 0.0
H671 H 0.1235 0.45701 0.56004 0.0
H672 H 0.13254 0.34617 0.60821 0.0
O673 O 0.05927 0.40884 0.5231 0.0
H674 H 0.04749 0.32779 0.4486 0.0
H675 H 0.01 0.37776 0.49631 0.0
H676 H 0.00354 0.36563 0.43628 0.0
H677 H 0.02236 0.34044 0.41208 0.0
H678 H 0.05358 0.34045 0.50837 0.0
H679 H 0.97766 0.33768 0.56737 0.0
H680 H 0.96206 0.36404 0.59529 0.0
O681 O 0.03268 0.39482 0.53387 0.0
C682 C 0.05473 0.3915 0.61135 0.0
C683 C 0.98567 0.38124 0.59265 0.0
C684 C 0.9849 0.35029 0.57163 0.0
N685 N 0.01229 0.36783 0.56659 0.0
C686 C 0.00385 0.38235 0.58215 0.0
C687 C 0.00309 0.3519 0.56146 0.0
C688 C 0.97616 0.36509 0.58728 0.0
C689 C 0.10171 0.36196 0.54852 0.0
N690 N 0.09678 0.37768 0.56535 0.0
C691 C 0.11463 0.35039 0.56363 0.0
C692 C 0.12253 0.35502 0.59617 0.0
C693 C 0.11744 0.3711 0.61315 0.0
C694 C 0.10445 0.38232 0.59728 0.0
C695 C 0.12226 0.42922 0.54232 0.0
C696 C 0.08633 0.42981 0.56425 0.0
C697 C 0.11119 0.41391 0.53878 0.0
N698 N 0.09349 0.41432 0.54988 0.0
C699 C 0.09699 0.44539 0.56818 0.0
C700 C 0.11508 0.44504 0.55716 0.0
C701 C 0.04195 0.40835 0.52271 0.0
C702 C 0.03917 0.33873 0.4589 0.0
C703 C 0.01827 0.36684 0.48592 0.0
C704 C 0.01453 0.35999 0.45195 0.0
C705 C 0.02508 0.34585 0.4384 0.0
N706 N 0.03212 0.35977 0.50586 0.0
C707 C 0.0425 0.34589 0.49278 0.0
Co708 Co 0.60807 0.93004 0.53483 0.0
Co709 Co 0.6244 0.97206 0.50881 0.0
O710 O 0.62619 0.94936 0.53558 0.0
C711 C 0.60963 0.93979 0.61075 0.0
O712 O 0.60805 0.95685 0.601 0.0
C713 C 0.6575 0.95469 0.48222 0.0
O714 O 0.64784 0.93972 0.48092 0.0
O715 O 0.61668 0.95919 0.46462 0.0
O716 O 0.60504 0.93247 0.48241 0.0
H717 H 0.59488 0.01737 0.427 0.0
H718 H 0.64369 0.92343 0.56935 0.0
O719 O 0.61052 0.92724 0.58748 0.0
H720 H 0.63949 0.87809 0.47277 0.0
H721 H 0.58215 0.86958 0.57179 0.0
H722 H 0.57244 0.92469 0.4994 0.0
H723 H 0.61435 0.89955 0.4838 0.0
H724 H 0.60501 0.8941 0.57106 0.0
O725 O 0.65035 0.96937 0.49355 0.0
H726 H 0.59701 0.9887 0.46084 0.0
H727 H 0.64902 0.00386 0.49976 0.0
H728 H 0.54929 0.90044 0.49914 0.0
H729 H 0.66909 0.90213 0.55944 0.0
H730 H 0.55409 0.87264 0.53552 0.0
H731 H 0.6671 0.8793 0.51076 0.0
O732 O 0.58799 0.94779 0.54214 0.0
H733 H 0.66362 0.98274 0.61646 0.0
H734 H 0.61037 0.0042 0.54868 0.0
H735 H 0.61927 0.0201 0.60393 0.0
H736 H 0.64609 0.0094 0.63817 0.0
H737 H 0.65415 0.96715 0.56122 0.0
H738 H 0.64754 0.03264 0.46609 0.0
H739 H 0.62028 0.03958 0.42951 0.0
O740 O 0.59842 0.97485 0.52296 0.0
C741 C 0.60884 0.94408 0.45835 0.0
C742 C 0.6068 0.01454 0.44295 0.0
C743 C 0.63636 0.0231 0.46486 0.0
N744 N 0.62303 0.99471 0.48254 0.0
C745 C 0.60805 -0.00164 0.46226 0.0
C746 C 0.63714 0.00677 0.48381 0.0
C747 C 0.62106 0.02698 0.44434 0.0
C748 C 0.64265 0.91341 0.54837 0.0
N749 N 0.62753 0.91267 0.52731 0.0
C750 C 0.6571 0.90143 0.54278 0.0
C751 C 0.65599 0.88865 0.51542 0.0
C752 C 0.64051 0.88797 0.49409 0.0
C753 C 0.62633 0.90017 0.50042 0.0
C754 C 0.57994 0.8816 0.55574 0.0
C755 C 0.57469 0.91256 0.51509 0.0
C756 C 0.59282 0.89553 0.55525 0.0
N757 N 0.59015 0.91071 0.53487 0.0
C758 C 0.5615 0.89891 0.51493 0.0
C759 C 0.56419 0.88332 0.53538 0.0
C760 C 0.58588 0.96467 0.53541 0.0
C761 C 0.65193 0.98756 0.60171 0.0
C762 C 0.62203 -0.00056 0.5635 0.0
C763 C 0.62702 0.00852 0.59472 0.0
C764 C 0.64208 0.00251 0.61391 0.0
N765 N 0.6318 0.98483 0.55166 0.0
C766 C 0.64655 0.97883 0.57036 0.0
Co767 Co 0.07371 0.10212 0.76658 0.0
Co768 Co 0.034 0.1266 0.75819 0.0
O769 O 0.05923 0.12408 0.77366 0.0
C770 C 0.07645 0.10968 0.84315 0.0
O771 O 0.05892 0.11293 0.84253 0.0
C772 C 0.05298 0.15746 0.72543 0.0
O773 O 0.06566 0.1458 0.71629 0.0
O774 O 0.04025 0.11815 0.70936 0.0
O775 O 0.06289 0.09814 0.71854 0.0
H776 H 0.97632 0.10684 0.69798 0.0
H777 H 0.09222 0.13624 0.78772 0.0
O778 O 0.08478 0.10534 0.81467 0.0
H779 H 0.119 0.11938 0.67166 0.0
H780 H 0.13065 0.06443 0.77474 0.0
H781 H 0.06634 0.06527 0.73792 0.0
H782 H 0.09561 0.10005 0.69965 0.0
H783 H 0.11216 0.09215 0.78214 0.0
O784 O 0.03911 0.15216 0.74295 0.0
H785 H 0.00807 0.10354 0.718 0.0
H786 H 0.00648 0.15613 0.76459 0.0
H787 H 0.08436 0.0373 0.7298 0.0
H788 H 0.11571 0.15587 0.76085 0.0
H789 H 0.11676 0.03677 0.74828 0.0
H790 H 0.12921 0.14751 0.70234 0.0
O791 O 0.05435 0.08688 0.788 0.0
H792 H 0.04236 0.16444 0.86859 0.0
H793 H 0.00541 0.11676 0.81128 0.0
H794 H 0.99796 0.12665 0.87247 0.0
H795 H 0.01649 0.15066 0.90151 0.0
H796 H 0.04945 0.15402 0.80756 0.0
H797 H 0.97477 0.16009 0.74478 0.0
H798 H 0.95945 0.13529 0.71137 0.0
O799 O 0.02842 0.10095 0.77254 0.0
C800 C 0.051 0.10569 0.69884 0.0
C801 C 0.98281 0.11771 0.71265 0.0
C802 C 0.98195 0.14761 0.73888 0.0
N803 N 0.00903 0.12954 0.74279 0.0
C804 C 0.00077 0.11589 0.72416 0.0
C805 C -8e-05 0.14531 0.74997 0.0
C806 C 0.97337 0.13369 0.72014 0.0
C807 C 0.09819 0.1324 0.76246 0.0
N808 N 0.09262 0.11698 0.74537 0.0
C809 C 0.11142 0.14362 0.74729 0.0
C810 C 0.11896 0.13894 0.71442 0.0
C811 C 0.11323 0.12316 0.69718 0.0
C812 C 0.09995 0.11229 0.71312 0.0
C813 C 0.11656 0.06451 0.7665 0.0
C814 C 0.08047 0.06518 0.74579 0.0
C815 C 0.10602 0.08015 0.77067 0.0
N816 N 0.08824 0.08037 0.76016 0.0
C817 C 0.09059 0.04929 0.74123 0.0
C818 C 0.10876 0.049 0.75164 0.0
C819 C 0.0371 0.08737 0.78519 0.0
C820 C 0.03415 0.154 0.85619 0.0
C821 C 0.01358 0.12718 0.82378 0.0
C822 C 0.00926 0.13275 0.8584 0.0
C823 C 0.01966 0.14624 0.87466 0.0
N824 N 0.02782 0.13486 0.80584 0.0
C825 C 0.03805 0.14811 0.82158 0.0
Co826 Co 0.88746 0.5684 0.03677 0.0
Co827 Co 0.87564 0.52655 0.00189 0.0
O828 O 0.87025 0.54869 0.02863 0.0
C829 C 0.8772 0.55708 0.10918 0.0
O830 O 0.87891 0.54022 0.09819 0.0
C831 C 0.84518 0.54334 0.96371 0.0
O832 O 0.85452 0.55851 0.96527 0.0
O833 O 0.88747 0.54046 0.96263 0.0
O834 O 0.89614 0.56702 0.98669 0.0
H835 H 0.91471 0.48362 0.93116 0.0
H836 H 0.84869 0.57338 0.05576 0.0
O837 O 0.87937 0.57017 0.08741 0.0
H838 H 0.86192 0.6208 0.96644 0.0
H839 H 0.90706 0.62865 0.08749 0.0
H840 H 0.92585 0.57531 0.01681 0.0
H841 H 0.88596 0.59981 0.98647 0.0
H842 H 0.88552 0.60366 0.07582 0.0
O843 O 0.85167 0.52879 0.97701 0.0
H844 H 0.90808 0.51154 0.96524 0.0
H845 H 0.85359 0.49431 0.98099 0.0
H846 H 0.94778 0.60005 0.02758 0.0
H847 H 0.82425 0.59417 0.03666 0.0
H848 H 0.93842 0.62697 0.06316 0.0
H849 H 0.8308 0.61804 -0.00842 0.0
O850 O 0.90676 0.55098 0.05145 0.0
H851 H 0.82636 0.51273 0.09077 0.0
H852 H 0.88626 0.49403 0.04448 0.0
H853 H 0.87233 0.47685 0.09396 0.0
H854 H 0.84214 0.48616 0.11738 0.0
H855 H 0.84086 0.52963 0.04154 0.0
H856 H 0.85958 0.46626 0.94682 0.0
H857 H 0.89035 0.46075 0.92177 0.0
O858 O 0.89962 0.52417 0.02616 0.0
C859 C 0.8954 0.55584 0.96081 0.0
C860 C 0.90127 0.48584 0.94205 0.0
C861 C 0.87032 0.47611 0.95081 0.0
N862 N 0.88052 0.50445 0.97536 0.0
C863 C 0.89745 0.50159 0.96147 0.0
C864 C 0.867 0.49202 0.97007 0.0
C865 C 0.88759 0.47302 0.93676 0.0
C866 C 0.85167 0.58386 0.0364 0.0
N867 N 0.86874 0.58544 0.02237 0.0
C868 C 0.83777 0.59554 0.02558 0.0
C869 C 0.84145 0.60891 0.00025 0.0
C870 C 0.8589 0.61046 0.98611 0.0
C871 C 0.87246 0.59852 -0.00249 0.0
C872 C 0.91129 0.61701 0.07188 0.0
C873 C 0.92165 0.58703 0.03212 0.0
C874 C 0.89916 0.60281 0.06524 0.0
N875 N 0.90438 0.58812 0.0454 0.0
C876 C 0.93414 0.60097 0.03822 0.0
C877 C 0.92888 0.61606 0.05822 0.0
C878 C 0.91008 0.53431 0.04462 0.0
C879 C 0.83949 0.50851 0.08072 0.0
C880 C 0.87314 0.49819 0.05459 0.0
C881 C 0.8653 0.48839 0.08256 0.0
C882 C 0.84836 0.49362 0.09568 0.0
N883 N 0.86433 0.51276 0.04002 0.0
C884 C 0.84773 0.51798 0.05276 0.0
Co885 Co 0.42558 0.38806 0.28868 0.0
Co886 Co 0.46585 0.37035 0.25638 0.0
O887 O 0.44513 0.37014 0.28903 0.0
C888 C 0.43941 0.39142 0.36203 0.0
O889 O 0.45581 0.3931 0.34861 0.0
C890 C 0.44845 0.33523 0.24339 0.0
O891 O 0.43302 0.34417 0.24384 0.0
O892 O 0.44984 0.37425 0.21431 0.0
O893 O 0.42491 0.38821 0.23569 0.0
H894 H 0.50413 0.39437 0.1558 0.0
H895 H 0.42149 0.35463 0.3321 0.0
O896 O 0.42584 0.38855 0.3418 0.0
H897 H 0.37093 0.35314 0.2459 0.0
H898 H 0.36715 0.41552 0.33324 0.0
H899 H 0.41767 0.42158 0.24754 0.0
H900 H 0.39253 0.37877 0.24635 0.0
H901 H 0.39187 0.39289 0.33185 0.0
O902 O 0.46331 0.34355 0.24934 0.0
H903 H 0.47805 0.39419 0.19724 0.0
H904 H 0.4978 0.34602 0.2461 0.0
H905 H 0.39315 0.44443 0.24777 0.0
H906 H 0.40009 0.32883 0.33281 0.0
H907 H 0.36765 0.44147 0.29086 0.0
H908 H 0.37464 0.32794 0.28938 0.0
O909 O 0.44329 0.40844 0.2877 0.0
H910 H 0.48497 0.33994 0.37033 0.0
H911 H 0.49979 0.38784 0.28298 0.0
H912 H 0.51949 0.38353 0.33553 0.0
H913 H 0.51213 0.35941 0.3796 0.0
H914 H 0.46556 0.34483 0.31753 0.0
H915 H 0.52401 0.34558 0.20498 0.0
H916 H 0.52733 0.36993 0.15953 0.0
O917 O 0.4686 0.39716 0.26226 0.0
C918 C 0.43457 0.38211 0.21019 0.0
C919 C 0.50287 0.38373 0.17558 0.0
C920 C 0.51401 0.35633 0.20315 0.0
N921 N 0.48652 0.37022 0.22427 0.0
C922 C 0.48817 0.38359 0.19918 0.0
C923 C 0.49914 0.35663 0.22631 0.0
C924 C 0.51587 0.37 0.17766 0.0
C925 C 0.41033 0.35443 0.31337 0.0
N926 N 0.40821 0.36823 0.28933 0.0
C927 C 0.39831 0.33975 0.31379 0.0
C928 C 0.38404 0.33925 0.28938 0.0
C929 C 0.38196 0.35338 0.26496 0.0
C930 C 0.39426 0.36783 0.26529 0.0
C931 C 0.37815 0.41692 0.31424 0.0
C932 C 0.40653 0.42011 0.26612 0.0
C933 C 0.39219 0.40416 0.31335 0.0
N934 N 0.40607 0.40579 0.28929 0.0
C935 C 0.39273 0.43313 0.26624 0.0
C936 C 0.37844 0.43148 0.29046 0.0
C937 C 0.45933 0.41023 0.27531 0.0
C938 C 0.48834 0.35047 0.35126 0.0
C939 C 0.49648 0.37736 0.3021 0.0
C940 C 0.5077 0.37495 0.33176 0.0
C941 C 0.50357 0.36141 0.35647 0.0
N942 N 0.4816 0.36653 0.29714 0.0
C943 C 0.47744 0.35325 0.32127 0.0
C944 C 0.30465 0.03368 0.45277 0.0
C945 C 0.31423 0.04954 0.4617 0.0
C946 C 0.28665 0.03471 0.44129 0.0
C947 C 0.25366 0.06662 0.40181 0.0
H948 H 0.21886 0.0296 0.42935 0.0
C949 C 0.17754 0.06909 0.36262 0.0
C950 C 0.17042 0.05274 0.3492 0.0
C951 C 0.1948 0.06946 0.37812 0.0
C952 C 0.22847 0.03998 0.42134 0.0
H953 H 0.31235 0.07888 0.46653 0.0
H954 H 0.28083 0.08063 0.44707 0.0
H955 H 0.24948 0.02885 0.45403 0.0
H956 H 0.17579 0.02399 0.34144 0.0
H957 H 0.20581 0.02468 0.36849 0.0
H958 H 0.23255 0.07772 0.3691 0.0
C959 C 0.28734 0.06744 0.44822 0.0
C960 C 0.24601 0.03953 0.43538 0.0
C961 C 0.30537 0.06642 0.45951 0.0
C962 C 0.18088 0.03681 0.35153 0.0
C963 C 0.19802 0.03716 0.36726 0.0
C964 C 0.23607 0.06713 0.38794 0.0
C965 C 0.27782 0.05161 0.43873 0.0
C966 C 0.25888 0.0527 0.42541 0.0
C967 C 0.20514 0.05346 0.38076 0.0
C968 C 0.2234 0.05367 0.39721 0.0
H969 H 0.31114 0.02048 0.45406 0.0
H970 H 0.27979 0.02228 0.43368 0.0
H971 H 0.26332 0.07683 0.39323 0.0
H972 H 0.16981 0.0816 0.36113 0.0
H973 H 0.19997 0.0822 0.38848 0.0
C974 C 0.94198 0.80611 0.70779 0.0
C975 C 0.9579 0.81644 0.71192 0.0
C976 C 0.94289 0.78822 0.69559 0.0
C977 C 0.97124 0.75747 0.64277 0.0
H978 H 0.94122 0.72003 0.68557 0.0
C979 C 0.97342 0.68215 0.59731 0.0
C980 C 0.95666 0.67303 0.59559 0.0
C981 C 0.97451 0.69952 0.61233 0.0
C982 C 0.94955 0.73037 0.67308 0.0
H983 H 0.98728 0.81603 0.70699 0.0
H984 H 0.98881 0.78469 0.6855 0.0
H985 H 0.94153 0.75044 0.7113 0.0
H986 H 0.92784 0.67517 0.60722 0.0
H987 H 0.92971 0.70549 0.63268 0.0
H988 H 0.97899 0.73749 0.6041 0.0
C989 C 0.97566 0.79053 0.69158 0.0
C990 C 0.94976 0.74776 0.6879 0.0
C991 C 0.97477 0.80841 0.70407 0.0
C992 C 0.941 0.68175 0.60846 0.0
C993 C 0.94208 0.6991 0.62329 0.0
C994 C 0.97097 0.74006 0.62781 0.0
C995 C 0.95971 0.78029 0.68706 0.0
C996 C 0.96044 0.76154 0.67267 0.0
C997 C 0.95887 0.70811 0.62579 0.0
C998 C 0.95994 0.72638 0.64255 0.0
H999 H 0.92878 0.81189 0.7137 0.0
H1000 H 0.93035 0.78072 0.69203 0.0
H1001 H 0.97946 0.76788 0.63026 0.0
H1002 H 0.98574 0.67575 0.58769 0.0
H1003 H 0.98767 0.70604 0.61408 0.0
C1004 C 0.30212 0.46228 0.85043 0.0
C1005 C 0.31124 0.44627 0.84061 0.0
C1006 C 0.28399 0.46168 0.86134 0.0
C1007 C 0.25007 0.4301 0.89874 0.0
H1008 H 0.21653 0.46913 0.87651 0.0
C1009 C 0.17455 0.42932 0.94205 0.0
C1010 C 0.16807 0.44553 0.95725 0.0
C1011 C 0.19155 0.42883 0.92541 0.0
C1012 C 0.22579 0.45818 0.88305 0.0
H1013 H 0.30831 0.41716 0.83317 0.0
H1014 H 0.27655 0.41619 0.85161 0.0
H1015 H 0.24691 0.46927 0.85043 0.0
H1016 H 0.17428 0.47396 0.96687 0.0
H1017 H 0.2039 0.47306 0.93787 0.0
H1018 H 0.2289 0.41906 0.93144 0.0
C1019 C 0.28353 0.42914 0.85164 0.0
C1020 C 0.24319 0.45827 0.86818 0.0
C1021 C 0.3017 0.42972 0.8409 0.0
C1022 C 0.17889 0.46124 0.95543 0.0
C1023 C 0.1958 0.46078 0.93858 0.0
C1024 C 0.23262 0.42996 0.91344 0.0
C1025 C 0.27454 0.44508 0.86245 0.0
C1026 C 0.25562 0.44435 0.87622 0.0
C1027 C 0.2023 0.44458 0.92342 0.0
C1028 C 0.2204 0.44413 0.90612 0.0
H1029 H 0.3091 0.47524 0.8506 0.0
H1030 H 0.27757 0.47418 0.86994 0.0
H1031 H 0.25938 0.41931 0.90594 0.0
H1032 H 0.16653 0.41698 0.94306 0.0
H1033 H 0.1962 0.41618 0.91376 0.0
C1034 C 0.53026 0.81231 0.11878 0.0
C1035 C 0.54612 0.82237 0.11204 0.0
C1036 C 0.53119 0.79575 0.13684 0.0
C1037 C 0.5624 0.75854 0.15865 0.0
H1038 H 0.52697 0.74741 0.23218 0.0
C1039 C 0.56653 0.69245 0.23963 0.0
C1040 C 0.55013 0.68288 0.24348 0.0
C1041 C 0.5665 0.71037 0.22741 0.0
C1042 C 0.53689 0.75029 0.21156 0.0
H1043 H 0.57542 0.82287 0.11852 0.0
H1044 H 0.57701 0.79395 0.15006 0.0
H1045 H 0.52597 0.77682 0.20207 0.0
H1046 H 0.52079 0.6848 0.239 0.0
H1047 H 0.52077 0.71594 0.2172 0.0
H1048 H 0.57313 0.73194 0.16755 0.0
C1049 C 0.56388 0.79885 0.14125 0.0
C1050 C 0.5363 0.76709 0.19432 0.0
C1051 C 0.56295 0.81544 0.12331 0.0
C1052 C 0.53366 0.69181 0.2363 0.0
C1053 C 0.53364 0.7097 0.22397 0.0
C1054 C 0.56296 0.74173 0.17579 0.0
C1055 C 0.548 0.78889 0.14837 0.0
C1056 C 0.54897 0.77132 0.1675 0.0
C1057 C 0.55008 0.71905 0.21872 0.0
C1058 C 0.55013 0.73736 0.20225 0.0
H1059 H 0.51708 0.81728 0.11042 0.0
H1060 H 0.51876 0.78823 0.14151 0.0
H1061 H 0.5722 0.76134 0.13777 0.0
H1062 H 0.57944 0.686 0.2453 0.0
H1063 H 0.57937 0.71734 0.22426 0.0
C1064 C 0.68915 0.52698 0.85574 0.0
C1065 C 0.68037 0.54335 0.84705 0.0
C1066 C 0.70746 0.52695 0.86562 0.0
C1067 C 0.74262 0.55722 0.90242 0.0
H1068 H 0.77569 0.51906 0.87275 0.0
C1069 C 0.819 0.55952 0.93541 0.0
C1070 C 0.82687 0.54326 0.94759 0.0
C1071 C 0.80149 0.55955 0.92111 0.0
C1072 C 0.76656 0.52973 0.88146 0.0
H1073 H 0.68407 0.57244 0.84063 0.0
H1074 H 0.71601 0.57233 0.85744 0.0
H1075 H 0.74445 0.51905 0.85087 0.0
H1076 H 0.8226 0.51425 0.95399 0.0
H1077 H 0.79199 0.51436 0.92924 0.0
H1078 H 0.76466 0.56785 0.93315 0.0
C1079 C 0.70867 0.55957 0.85732 0.0
C1080 C 0.74868 0.52972 0.86895 0.0
C1081 C 0.69038 0.55961 0.84753 0.0
C1082 C 0.81694 0.52701 0.94479 0.0
C1083 C 0.79944 0.52704 0.93041 0.0
C1084 C 0.76048 0.55724 0.91486 0.0
C1085 C 0.71736 0.54328 0.86693 0.0
C1086 C 0.7365 0.54344 0.87938 0.0
C1087 C 0.79148 0.54333 0.91863 0.0
C1088 C 0.77264 0.54347 0.90462 0.0
H1089 H 0.6818 0.51422 0.85565 0.0
H1090 H 0.7137 0.5142 0.8732 0.0
H1091 H 0.73349 0.56781 0.91149 0.0
H1092 H 0.82629 0.57228 0.93716 0.0
H1093 H 0.7958 0.57228 0.91186 0.0
C1094 C 0.43256 0.30696 0.22369 0.0
C1095 C 0.44881 0.3161 0.23163 0.0
C1096 C 0.43297 0.2896 0.20868 0.0
C1097 C 0.46229 0.26063 0.15404 0.0
H1098 H 0.42852 0.22255 0.18087 0.0
C1099 C 0.46592 0.18786 0.09653 0.0
C1100 C 0.44935 0.17921 0.08894 0.0
C1101 C 0.46613 0.20463 0.11397 0.0
C1102 C 0.43789 0.23314 0.17281 0.0
H1103 H 0.47824 0.3139 0.23163 0.0
H1104 H 0.4789 0.28355 0.20564 0.0
H1105 H 0.42851 0.2512 0.21365 0.0
H1106 H 0.42 0.18167 0.09226 0.0
H1107 H 0.42039 0.21105 0.12213 0.0
H1108 H 0.47154 0.24267 0.11296 0.0
C1109 C 0.46587 0.28993 0.21054 0.0
C1110 C 0.43792 0.24949 0.19166 0.0
C1111 C 0.46547 0.30725 0.22565 0.0
C1112 C 0.433 0.18792 0.09802 0.0
C1113 C 0.43322 0.20469 0.11536 0.0
C1114 C 0.46223 0.24429 0.13514 0.0
C1115 C 0.44963 0.28108 0.20128 0.0
C1116 C 0.45008 0.26342 0.18238 0.0
C1117 C 0.44978 0.21309 0.12404 0.0
C1118 C 0.44997 0.2304 0.14421 0.0
H1119 H 0.41951 0.31339 0.22808 0.0
H1120 H 0.42024 0.28315 0.20162 0.0
H1121 H 0.47161 0.27125 0.14592 0.0
H1122 H 0.47875 0.18146 0.08995 0.0
H1123 H 0.47911 0.2107 0.12052 0.0
C1124 C 0.80865 0.96918 0.34764 0.0
C1125 C 0.81704 0.95247 0.33999 0.0
C1126 C 0.79134 0.96966 0.36293 0.0
C1127 C 0.75976 0.94135 0.41544 0.0
H1128 H 0.72407 0.97723 0.38664 0.0
C1129 C 0.68469 0.93825 0.45882 0.0
C1130 C 0.67632 0.95466 0.46865 0.0
C1131 C 0.70213 0.93823 0.44417 0.0
C1132 C 0.73399 0.96727 0.39523 0.0
H1133 H 0.81365 0.92318 0.34121 0.0
H1134 H 0.78335 0.92403 0.36728 0.0
H1135 H 0.75373 0.9766 0.35749 0.0
H1136 H 0.67977 0.98393 0.47147 0.0
H1137 H 0.7103 0.98386 0.44591 0.0
H1138 H 0.73994 0.93192 0.45292 0.0
C1139 C 0.79029 0.93676 0.36222 0.0
C1140 C 0.75096 0.9669 0.37854 0.0
C1141 C 0.80761 0.93627 0.34707 0.0
C1142 C 0.68586 0.97105 0.46411 0.0
C1143 C 0.70327 0.97104 0.44927 0.0
C1144 C 0.74278 0.94168 0.43201 0.0
C1145 C 0.78206 0.95344 0.37075 0.0
C1146 C 0.76401 0.9539 0.38839 0.0
C1147 C 0.71152 0.95464 0.43893 0.0
C1148 C 0.72971 0.95461 0.42202 0.0
H1149 H 0.81559 0.98191 0.34259 0.0
H1150 H 0.78545 0.98273 0.36949 0.0
H1151 H 0.76965 0.93139 0.42414 0.0
H1152 H 0.67771 0.92539 0.46204 0.0
H1153 H 0.70808 0.9254 0.43616 0.0
C1154 C 0.04054 0.31096 0.60808 0.0
C1155 C 0.05646 0.32136 0.60492 0.0
C1156 C 0.04116 0.29355 0.62279 0.0
C1157 C 0.06997 0.25441 0.63581 0.0
H1158 H 0.03751 0.24271 0.71409 0.0
C1159 C 0.07118 0.18393 0.70363 0.0
C1160 C 0.05441 0.17662 0.71425 0.0
C1161 C 0.07238 0.20199 0.69229 0.0
C1162 C 0.0465 0.24563 0.69192 0.0
H1163 H 0.08558 0.32162 0.61388 0.0
H1164 H 0.08669 0.29084 0.6388 0.0
H1165 H 0.03762 0.27333 0.68931 0.0
H1166 H 0.02572 0.18234 0.72115 0.0
H1167 H 0.02761 0.21349 0.70009 0.0
H1168 H 0.07834 0.22661 0.63713 0.0
C1169 C 0.07375 0.29633 0.63025 0.0
C1170 C 0.04661 0.2632 0.67794 0.0
C1171 C 0.07309 0.31391 0.61615 0.0
C1172 C 0.03887 0.18767 0.71342 0.0
C1173 C 0.04 0.2056 0.70155 0.0
C1174 C 0.06965 0.23672 0.64937 0.0
C1175 C 0.05776 0.28611 0.63399 0.0
C1176 C 0.05826 0.2677 0.64965 0.0
C1177 C 0.05677 0.21303 0.69081 0.0
C1178 C 0.05779 0.23206 0.67744 0.0
H1179 H 0.02753 0.31637 0.59974 0.0
H1180 H 0.02868 0.28583 0.62519 0.0
H1181 H 0.07898 0.25757 0.61379 0.0
H1182 H 0.08341 0.17575 0.70429 0.0
H1183 H 0.08557 0.2073 0.68487 0.0
C1184 C 0.05421 0.03605 0.23298 0.0
C1185 C 0.06863 0.0271 0.2503 0.0
C1186 C 0.03725 0.02764 0.2298 0.0
C1187 C 0.00925 0.99673 0.27971 0.0
H1188 H 0.97824 0.9945 0.19616 0.0
C1189 C 0.9325 0.98318 0.28833 0.0
C1190 C 0.92625 0.96853 0.26765 0.0
C1191 C 0.94996 0.99008 0.28321 0.0
C1192 C 0.98682 0.99503 0.2196 0.0
H1193 H 0.07682 0.00176 0.27541 0.0
H1194 H 0.04719 0.98736 0.27028 0.0
H1195 H 0.00937 0.0063 0.19064 0.0
H1196 H 0.93312 0.95008 0.22447 0.0
H1197 H 0.96361 0.96248 0.21515 0.0
H1198 H 0.98669 0.98592 0.30889 0.0
C1199 C 0.04905 0.00088 0.25942 0.0
C1200 C 0.00452 0.0018 0.21647 0.0
C1201 C 0.06602 0.00916 0.26225 0.0
C1202 C 0.93762 0.96128 0.24102 0.0
C1203 C 0.95499 0.96842 0.23549 0.0
C1204 C 0.99152 0.9903 0.28295 0.0
C1205 C 0.0344 0.01025 0.24413 0.0
C1206 C 0.01587 0.00263 0.24653 0.0
C1207 C 0.96137 0.98269 0.25691 0.0
C1208 C 0.98016 0.98942 0.25297 0.0
H1209 H 0.05575 0.04983 0.22332 0.0
H1210 H 0.02611 0.03514 0.21796 0.0
H1211 H 0.01768 0.99744 0.30335 0.0
H1212 H 0.92406 0.98907 0.30901 0.0
H1213 H 0.95459 0.00118 0.29989 0.0
C1214 C 0.9547 0.54949 0.51536 0.0
C1215 C 0.96666 0.56432 0.51846 0.0
C1216 C 0.96136 0.53202 0.50877 0.0
C1217 C 0.98079 0.49613 0.52211 0.0
H1218 H 0.02071 0.48726 0.45673 0.0
C1219 C 0.01297 0.42522 0.51054 0.0
C1220 C 0.03208 0.42492 0.5114 0.0
C1221 C 0.00366 0.44149 0.50451 0.0
C1222 C 0.0096 0.48953 0.47518 0.0
H1223 H 0.99503 0.57239 0.51609 0.0
H1224 H 0.00658 0.54196 0.50474 0.0
H1225 H 0.00685 0.51739 0.45947 0.0
H1226 H 0.05634 0.4414 0.50472 0.0
H1227 H 0.04014 0.46967 0.49489 0.0
H1228 H 0.9839 0.46856 0.53885 0.0
C1229 C 0.99203 0.54388 0.50713 0.0
C1230 C 0.00166 0.50677 0.47672 0.0
C1231 C 0.9854 0.56132 0.51391 0.0
C1232 C 0.04163 0.44108 0.50429 0.0
C1233 C 0.03231 0.45733 0.49842 0.0
C1234 C 0.98877 0.47893 0.52071 0.0
C1235 C 0.98012 0.52901 0.50492 0.0
C1236 C 0.98739 0.51033 0.50064 0.0
C1237 C 0.01322 0.45782 0.4993 0.0
C1238 C 0.00348 0.4755 0.49769 0.0
H1239 H 0.94018 0.55128 0.51862 0.0
H1240 H 0.95184 0.52083 0.50689 0.0
H1241 H 0.96997 0.49851 0.54115 0.0
H1242 H 0.00516 0.41302 0.51561 0.0
H1243 H 0.98894 0.44133 0.50471 0.0
C1244 C 0.4374 0.46162 0.77586 0.0
C1245 C 0.42365 0.46844 0.79825 0.0
C1246 C 0.45471 0.4694 0.77594 0.0
C1247 C 0.48587 0.49536 0.83213 0.0
H1248 H 0.51084 0.50585 0.74326 0.0
C1249 C 0.56235 0.5125 0.82482 0.0
C1250 C 0.56725 0.52743 0.80343 0.0
C1251 C 0.54463 0.50572 0.82415 0.0
C1252 C 0.50399 0.50306 0.76826 0.0
H1253 H 0.41733 0.48888 0.8382 0.0
H1254 H 0.44764 0.50232 0.8385 0.0
H1255 H 0.48001 0.49347 0.74192 0.0
H1256 H 0.55736 0.5468 0.76427 0.0
H1257 H 0.52647 0.53479 0.76294 0.0
H1258 H 0.50987 0.50486 0.85848 0.0
C1259 C 0.44497 0.49093 0.82095 0.0
C1260 C 0.48643 0.49586 0.7675 0.0
C1261 C 0.42759 0.48328 0.82062 0.0
C1262 C 0.55405 0.53532 0.78116 0.0
C1263 C 0.53638 0.52839 0.78022 0.0
C1264 C 0.5035 0.50237 0.8329 0.0
C1265 C 0.45869 0.48405 0.79865 0.0
C1266 C 0.4772 0.49194 0.79942 0.0
C1267 C 0.53149 0.51358 0.8018 0.0
C1268 C 0.51273 0.50628 0.80097 0.0
H1269 H 0.43483 0.45024 0.75822 0.0
H1270 H 0.46508 0.46374 0.75869 0.0
H1271 H 0.47912 0.49233 0.85713 0.0
H1272 H 0.57215 0.50609 0.84229 0.0
H1273 H 0.54126 0.49417 0.8408 0.0
C1274 C 0.50457 0.92967 0.03592 0.0
C1275 C 0.52146 0.9256 0.02023 0.0
C1276 C 0.49703 0.94696 0.03248 0.0
C1277 C 0.49648 0.98878 0.98087 0.0
H1278 H 0.4865 0.01212 0.07172 0.0
C1279 C 0.45721 0.05687 0.00028 0.0
C1280 C 0.46595 0.06967 0.02226 0.0
C1281 C 0.46423 0.03932 -0.00331 0.0
C1282 C 0.48924 0.00575 0.0462 0.0
H1283 H 0.54309 0.93618 0.98668 0.0
H1284 H 0.52962 0.9664 0.98022 0.0
H1285 H 0.49746 0.98078 0.07055 0.0
H1286 H 0.48906 0.0742 0.05709 0.0
H1287 H 0.50097 0.0434 0.05148 0.0
H1288 H 0.48798 0.01382 0.9566 0.0
C1289 C 0.52241 0.95616 -0.00456 0.0
C1290 C 0.49537 0.98784 0.04551 0.0
C1291 C 0.53012 0.93891 -0.00069 0.0
C1292 C 0.48199 0.06466 0.04004 0.0
C1293 C 0.48879 0.04705 0.03693 0.0
C1294 C 0.49 0.00666 0.98153 0.0
C1295 C 0.50606 0.96043 0.01281 0.0
C1296 C 0.4991 0.97923 0.01289 0.0
C1297 C 0.47989 0.03421 0.01548 0.0
C1298 C 0.48648 0.01529 0.01426 0.0
H1299 H 0.49744 0.91974 0.05204 0.0
H1300 H 0.48431 0.94993 0.04584 0.0
H1301 H 0.49927 0.98237 0.95543 0.0
H1302 H 0.44491 0.06038 0.986 0.0
H1303 H 0.45712 0.02958 0.9801 0.0
C1304 C 0.05681 0.46048 0.09225 0.0
C1305 C 0.06882 0.46913 0.06853 0.0
C1306 C 0.04015 0.46845 0.10089 0.0
C1307 C 0.01266 0.51101 0.08978 0.0
H1308 H 0.97248 0.47698 0.08827 0.0
C1309 C 0.9332 0.50941 0.04505 0.0
C1310 C 0.92732 0.52639 0.05773 0.0
C1311 C 0.95008 0.50248 0.05499 0.0
C1312 C 0.98353 0.4867 0.08863 0.0
H1313 H 0.07315 0.49344 0.03684 0.0
H1314 H 0.04396 0.50693 0.0506 0.0
H1315 H 0.00335 0.46559 0.08986 0.0
H1316 H 0.93427 0.54903 0.09227 0.0
H1317 H 0.96358 0.53668 0.11041 0.0
H1318 H 0.99281 0.53209 0.08561 0.0
C1319 C 0.04746 0.4942 0.06334 0.0
C1320 C 0.00131 0.48016 0.09017 0.0
C1321 C 0.06422 0.48636 0.05515 0.0
C1322 C 0.93845 0.53598 0.08173 0.0
C1323 C 0.95531 0.52893 0.092 0.0
C1324 C 0.99487 0.51756 0.08768 0.0
C1325 C 0.03499 0.48513 0.08558 0.0
C1326 C 0.01614 0.49221 0.08973 0.0
C1327 C 0.96146 0.51223 0.07827 0.0
C1328 C 0.9801 0.50545 0.08599 0.0
H1329 H 0.06006 0.44729 0.10343 0.0
H1330 H 0.0311 0.46127 0.11882 0.0
H1331 H 0.02371 0.52073 0.09022 0.0
H1332 H 0.92503 0.50164 0.02647 0.0
H1333 H 0.95444 0.48976 0.04326 0.0
C1334 C 0.48311 0.43222 0.25511 0.0
C1335 C 0.46776 0.42844 0.27621 0.0
C1336 C 0.49092 0.4495 0.2554 0.0
C1337 C 0.49621 0.49018 0.30957 0.0
H1338 H 0.50621 0.51431 0.21958 0.0
C1339 C 0.53959 0.55542 0.29721 0.0
C1340 C 0.53188 0.56949 0.27682 0.0
C1341 C 0.53169 0.53817 0.29753 0.0
C1342 C 0.50345 0.50772 0.24486 0.0
H1343 H 0.44877 0.43972 0.31465 0.0
H1344 H 0.46266 0.46989 0.31548 0.0
H1345 H 0.4924 0.48406 0.21963 0.0
H1346 H 0.50996 0.57642 0.24055 0.0
H1347 H 0.49641 0.54617 0.24071 0.0
H1348 H 0.50739 0.51381 0.33479 0.0
C1349 C 0.46852 0.45945 0.29862 0.0
C1350 C 0.49568 0.49042 0.24489 0.0
C1351 C 0.46053 0.44223 0.29797 0.0
C1352 C 0.51622 0.56589 0.25655 0.0
C1353 C 0.5085 0.54858 0.2565 0.0
C1354 C 0.50422 0.50739 0.30953 0.0
C1355 C 0.4837 0.46324 0.27716 0.0
C1356 C 0.49195 0.48154 0.27723 0.0
C1357 C 0.51613 0.5346 0.27709 0.0
C1358 C 0.50784 0.51632 0.27718 0.0
H1359 H 0.48901 0.42191 0.23804 0.0
H1360 H 0.50271 0.45207 0.23884 0.0
H1361 H 0.49355 0.48354 0.33483 0.0
H1362 H 0.5516 0.55778 0.31324 0.0
H1363 H 0.53788 0.52755 0.31344 0.0
C1364 C 0.42848 0.01213 0.50754 0.0
C1365 C 0.42293 0.02691 0.52867 0.0
C1366 C 0.44592 0.00491 0.51121 0.0
C1367 C 0.48445 0.00036 0.5717 0.0
H1368 H 0.51323 0.99698 0.48514 0.0
C1369 C 0.55391 0.963 0.55856 0.0
C1370 C 0.56764 0.97269 0.54061 0.0
C1371 C 0.53625 0.96991 0.56038 0.0
C1372 C 0.50534 0.9979 0.50951 0.0
H1373 H 0.43102 0.0452 0.57128 0.0
H1374 H 0.46142 0.03231 0.57799 0.0
H1375 H 0.48185 0.0077 0.48194 0.0
H1376 H 0.57368 0.99758 0.51172 0.0
H1377 H 0.54279 0.00937 0.51442 0.0
H1378 H 0.50799 0.99034 0.59916 0.0
C1379 C 0.45229 0.02647 0.55844 0.0
C1380 C 0.4874 0.00387 0.50764 0.0
C1381 C 0.43495 0.0339 0.55439 0.0
C1382 C 0.56345 0.9897 0.52561 0.0
C1383 C 0.54576 0.99645 0.52701 0.0
C1384 C 0.50236 0.99407 0.5735 0.0
C1385 C 0.458 0.01211 0.53649 0.0
C1386 C 0.47682 0.00524 0.53871 0.0
C1387 C 0.53196 0.98649 0.54389 0.0
C1388 C 0.51298 0.99294 0.54242 0.0
H1389 H 0.41954 0.00641 0.48753 0.0
H1390 H 0.45001 0.99374 0.49416 0.0
H1391 H 0.4765 0.00126 0.59599 0.0
H1392 H 0.55671 0.9499 0.57057 0.0
H1393 H 0.52579 0.96198 0.57348 0.0
C1394 C 0.03542 0.0559 0.81061 0.0
C1395 C 0.02684 0.0706 0.79352 0.0
C1396 C 0.02669 0.03909 0.81339 0.0
C1397 C 0.99524 0.01159 0.76349 0.0
H1398 H 0.99373 0.98045 0.847 0.0
C1399 C 0.9836 0.93433 0.75562 0.0
C1400 C 0.96952 0.92751 0.77715 0.0
C1401 C 0.98973 0.95214 0.76003 0.0
C1402 C 0.99402 0.98907 0.82357 0.0
H1403 H 0.00189 0.0794 0.76788 0.0
H1404 H 0.98686 0.04996 0.77222 0.0
H1405 H 0.00528 0.01165 0.85234 0.0
H1406 H 0.95123 0.9338 0.82094 0.0
H1407 H 0.96232 0.96488 0.82908 0.0
H1408 H 0.98453 0.98892 0.73448 0.0
C1409 C 0.00034 0.05151 0.78339 0.0
C1410 C 0.00064 0.00683 0.8266 0.0
C1411 C 0.00895 0.06838 0.78105 0.0
C1412 C 0.96201 0.93872 0.80377 0.0
C1413 C 0.9684 0.95644 0.80859 0.0
C1414 C 0.98894 0.99378 0.76035 0.0
C1415 C 0.00932 0.03662 0.79877 0.0
C1416 C 0.00133 0.01821 0.79654 0.0
C1417 C 0.98215 0.96335 0.78646 0.0
C1418 C 0.98836 0.98235 0.7903 0.0
H1419 H 0.04916 0.05715 0.82067 0.0
H1420 H 0.03391 0.02778 0.82526 0.0
H1421 H 0.99582 0.02004 0.73984 0.0
H1422 H 0.98965 0.92604 0.73489 0.0
H1423 H 0.00045 0.95716 0.74283 0.0
C1424 C 0.05025 0.08114 0.65379 0.0
C1425 C 0.0502 0.09975 0.66164 0.0
C1426 C 0.0519 0.07523 0.61862 0.0
C1427 C 0.05326 0.09145 0.5239 0.0
H1428 H 0.08323 0.04853 0.51234 0.0
C1429 C 0.102 0.05523 0.41133 0.0
C1430 C 0.0918 0.05919 0.38074 0.0
C1431 C 0.09495 0.05895 0.44513 0.0
C1432 C 0.07502 0.06066 0.515 0.0
H1433 H 0.05132 0.12688 0.63962 0.0
H1434 H 0.05531 0.1167 0.57818 0.0
H1435 H 0.07435 0.05805 0.57153 0.0
H1436 H 0.06601 0.0693 0.36121 0.0
H1437 H 0.05328 0.07488 0.42011 0.0
H1438 H 0.05524 0.09489 0.46753 0.0
C1439 C 0.05337 0.10655 0.59872 0.0
C1440 C 0.06956 0.06594 0.54907 0.0
C1441 C 0.05118 0.11244 0.6339 0.0
C1442 C 0.07422 0.06633 0.38445 0.0
C1443 C 0.067 0.06965 0.41824 0.0
C1444 C 0.05908 0.0864 0.48985 0.0
C1445 C 0.05417 0.08784 0.59071 0.0
C1446 C 0.05874 0.08151 0.55407 0.0
C1447 C 0.07738 0.0663 0.44905 0.0
C1448 C 0.07021 0.07104 0.48499 0.0
H1449 H 0.04933 0.07116 0.67498 0.0
H1450 H 0.05185 0.06075 0.6135 0.0
H1451 H 0.04467 0.10332 0.52652 0.0
H1452 H 0.11567 0.04988 0.40909 0.0
H1453 H 0.10354 0.05653 0.46807 0.0
C1454 C 0.95884 0.59887 0.66842 0.0
C1455 C 0.94377 0.60373 0.64747 0.0
C1456 C 0.95655 0.59457 0.70453 0.0
C1457 C 0.92594 0.60179 0.7801 0.0
H1458 H 0.94177 0.55462 0.8143 0.0
C1459 C 0.90437 0.54947 0.89736 0.0
C1460 C 0.90405 0.5613 0.92683 0.0
C1461 C 0.91219 0.55498 0.86514 0.0
C1462 C 0.93736 0.56785 0.80509 0.0
H1463 H 0.91467 0.60848 0.64809 0.0
H1464 H 0.91078 0.60131 0.71085 0.0
H1465 H 0.95028 0.56461 0.75414 0.0
H1466 H 0.9123 0.588 0.94579 0.0
H1467 H 0.92574 0.59753 0.88961 0.0
H1468 H 0.91256 0.60491 0.83034 0.0
C1469 C 0.9243 0.6007 0.69943 0.0
C1470 C 0.94236 0.57362 0.77092 0.0
C1471 C 0.92652 0.60468 0.66342 0.0
C1472 C 0.91211 0.57857 0.92359 0.0
C1473 C 0.91982 0.58408 0.89141 0.0
C1474 C 0.9211 0.59613 0.81427 0.0
C1475 C 0.93924 0.59548 0.72024 0.0
C1476 C 0.93632 0.59046 0.75791 0.0
C1477 C 0.91976 0.57244 0.86177 0.0
C1478 C 0.92644 0.57896 0.82682 0.0
H1479 H 0.97228 0.59797 0.65674 0.0
H1480 H 0.96826 0.59058 0.72019 0.0
H1481 H 0.92119 0.61487 0.77064 0.0
H1482 H 0.8984 0.53604 0.899 0.0
H1483 H 0.91181 0.54581 0.84255 0.0
C1484 C 0.41989 0.40134 0.16441 0.0
C1485 C 0.42761 0.38465 0.17392 0.0
C1486 C 0.41295 0.40397 0.13027 0.0
C1487 C 0.4133 0.38418 0.03877 0.0
H1488 H 0.37537 0.42011 0.02609 0.0
C1489 C 0.36833 0.42268 0.92086 0.0
C1490 C 0.38183 0.42297 0.8945 0.0
C1491 C 0.37191 0.415 0.9542 0.0
C1492 C 0.38566 0.40971 0.02887 0.0
H1493 H 0.43395 0.35742 0.156 0.0
H1494 H 0.42082 0.36153 0.09668 0.0
H1495 H 0.38446 0.41158 0.08552 0.0
H1496 H 0.40955 0.41564 0.88175 0.0
H1497 H 0.41636 0.40352 0.94037 0.0
H1498 H 0.41363 0.38141 0.98214 0.0
C1499 C 0.42072 0.37292 0.11496 0.0
C1500 C 0.39122 0.4051 0.06324 0.0
C1501 C 0.42818 0.37049 0.14894 0.0
C1502 C 0.39889 0.41539 0.90169 0.0
C1503 C 0.40268 0.40827 0.93531 0.0
C1504 C 0.40733 0.38837 0.00438 0.0
C1505 C 0.41303 0.38974 0.10513 0.0
C1506 C 0.40558 0.39279 0.06867 0.0
C1507 C 0.38929 0.40804 0.96219 0.0
C1508 C 0.39387 0.40167 -0.00114 0.0
H1509 H 0.41953 0.41252 0.18321 0.0
H1510 H 0.40777 0.4173 0.1236 0.0
H1511 H 0.42441 0.37466 0.04162 0.0
H1512 H 0.35498 0.42828 0.91557 0.0
H1513 H 0.36106 0.41468 0.97368 0.0
C1514 C 0.59149 0.92531 0.41461 0.0
C1515 C 0.60355 0.93974 0.42132 0.0
C1516 C 0.58598 0.92138 0.37994 0.0
C1517 C 0.59965 0.92465 0.28744 0.0
H1518 H 0.54839 0.91762 0.26771 0.0
C1519 C 0.57362 0.90967 0.14565 0.0
C1520 C 0.55949 0.89693 0.14223 0.0
C1521 C 0.5787 0.91612 0.17917 0.0
C1522 C 0.56277 0.91932 0.27285 0.0
H1523 H 0.61947 0.9612 0.39674 0.0
H1524 H 0.61001 0.954 0.33574 0.0
H1525 H 0.55804 0.92668 0.32735 0.0
H1526 H 0.53969 0.88087 0.17136 0.0
H1527 H 0.54895 0.89168 0.22997 0.0
H1528 H 0.60453 0.91669 0.23345 0.0
C1529 C 0.6048 0.9459 0.3576 0.0
C1530 C 0.56825 0.9246 0.30691 0.0
C1531 C 0.61015 0.95002 0.39245 0.0
C1532 C 0.55056 0.89077 0.17307 0.0
C1533 C 0.55579 0.89706 0.20666 0.0
C1534 C 0.59419 0.91915 0.25345 0.0
C1535 C 0.59256 0.93163 0.35116 0.0
C1536 C 0.58674 0.92716 0.31454 0.0
C1537 C 0.56993 0.90981 0.2101 0.0
C1538 C 0.57569 0.91629 0.24584 0.0
H1539 H 0.58613 0.9171 0.43617 0.0
H1540 H 0.5767 0.91017 0.37556 0.0
H1541 H 0.614 0.92637 0.29285 0.0
H1542 H 0.5807 0.91482 0.12241 0.0
H1543 H 0.58943 0.92616 0.18077 0.0
C1544 C 0.05376 0.41668 0.6551 0.0
C1545 C 0.05355 0.39798 0.64817 0.0
C1546 C 0.05461 0.42302 0.69011 0.0
C1547 C 0.05339 0.40773 0.78569 0.0
H1548 H 0.08264 0.45101 0.79862 0.0
C1549 C 0.10024 0.44438 0.90044 0.0
C1550 C 0.08995 0.43994 0.9307 0.0
C1551 C 0.09347 0.44086 0.86638 0.0
C1552 C 0.07462 0.43878 0.79563 0.0
H1553 H 0.05375 0.37114 0.67156 0.0
H1554 H 0.05647 0.38202 0.73275 0.0
H1555 H 0.07524 0.44104 0.73905 0.0
H1556 H 0.06424 0.42922 0.94941 0.0
H1557 H 0.05191 0.42407 0.88999 0.0
H1558 H 0.05421 0.40458 0.84222 0.0
C1559 C 0.05517 0.39196 0.71162 0.0
C1560 C 0.06999 0.43323 0.76125 0.0
C1561 C 0.05373 0.38564 0.67658 0.0
C1562 C 0.0725 0.43259 0.92639 0.0
C1563 C 0.06552 0.42951 0.89231 0.0
C1564 C 0.05843 0.41302 0.82007 0.0
C1565 C 0.05596 0.41076 0.71885 0.0
C1566 C 0.0595 0.41748 0.75571 0.0
C1567 C 0.07605 0.43326 0.8618 0.0
C1568 C 0.06936 0.42848 0.82549 0.0
H1569 H 0.05346 0.42638 0.63335 0.0
H1570 H 0.05459 0.43756 0.69447 0.0
H1571 H 0.04495 0.39578 0.78272 0.0
H1572 H 0.11383 0.44987 0.9031 0.0
H1573 H 0.10222 0.44357 0.84376 0.0
C1574 C 0.58756 0.60593 0.1718 0.0
C1575 C 0.57205 0.61652 0.17864 0.0
C1576 C 0.59356 0.60317 0.13695 0.0
C1577 C 0.60822 0.60416 0.06202 0.0
H1578 H 0.57092 0.59529 0.99111 0.0
C1579 C 0.60125 0.58656 0.90288 0.0
C1580 C 0.61175 0.57061 0.90072 0.0
C1581 C 0.59768 0.5946 0.93582 0.0
C1582 C 0.58148 0.59796 0.01054 0.0
H1583 H 0.55121 0.6333 0.15433 0.0
H1584 H 0.56202 0.62891 0.09345 0.0
H1585 H 0.56221 0.60531 0.05059 0.0
H1586 H 0.62732 0.55103 0.93139 0.0
H1587 H 0.6212 0.5653 0.98904 0.0
H1588 H 0.62738 0.59585 0.02208 0.0
C1589 C 0.56924 0.62231 0.11502 0.0
C1590 C 0.57652 0.6038 0.04458 0.0
C1591 C 0.56309 0.6249 0.14993 0.0
C1592 C 0.61911 0.56324 0.93215 0.0
C1593 C 0.61572 0.57145 0.96509 0.0
C1594 C 0.61315 0.59807 0.02809 0.0
C1595 C 0.58434 0.61112 0.10808 0.0
C1596 C 0.58981 0.60672 0.07092 0.0
C1597 C 0.60474 0.58703 0.9672 0.0
C1598 C 0.59979 0.59472 0.00225 0.0
H1599 H 0.59481 0.59926 0.19326 0.0
H1600 H 0.60504 0.59423 0.13267 0.0
H1601 H 0.61883 0.60663 0.08142 0.0
H1602 H 0.59541 0.59265 0.87921 0.0
H1603 H 0.58927 0.60668 0.93682 0.0
C1604 C 0.3795 0.0618 0.38635 0.0
C1605 C 0.38688 0.0693 0.41764 0.0
C1606 C 0.38444 0.06863 0.353 0.0
C1607 C 0.42134 0.09102 0.30658 0.0
H1608 H 0.38491 0.10208 0.23514 0.0
C1609 C 0.44064 0.11749 0.16644 0.0
C1610 C 0.43065 0.11038 0.1377 0.0
C1611 C 0.43509 0.11427 0.20155 0.0
C1612 C 0.39526 0.09887 0.25465 0.0
H1613 H 0.40518 0.08989 0.43846 0.0
H1614 H 0.41404 0.10153 0.37999 0.0
H1615 H 0.37544 0.09283 0.29481 0.0
H1616 H 0.40708 0.09419 0.12333 0.0
H1617 H 0.39782 0.08813 0.1842 0.0
H1618 H 0.4412 0.09632 0.26624 0.0
C1619 C 0.40438 0.09045 0.38148 0.0
C1620 C 0.38981 0.09367 0.2888 0.0
C1621 C 0.39924 0.08381 0.41487 0.0
C1622 C 0.41505 0.09998 0.1448 0.0
C1623 C 0.40963 0.09662 0.17979 0.0
C1624 C 0.42681 0.096 0.27227 0.0
C1625 C 0.39703 0.08289 0.3503 0.0
C1626 C 0.4028 0.08951 0.3149 0.0
C1627 C 0.41954 0.10375 0.20861 0.0
C1628 C 0.41382 0.09976 0.24577 0.0
H1629 H 0.3699 0.05065 0.38758 0.0
H1630 H 0.37871 0.06249 0.32926 0.0
H1631 H 0.4316 0.08773 0.32626 0.0
H1632 H 0.45266 0.12566 0.16185 0.0
H1633 H 0.44291 0.12015 0.22312 0.0
C1634 C 0.93434 0.87466 0.63587 0.0
C1635 C 0.93389 0.8877 0.66306 0.0
C1636 C 0.92763 0.87886 0.60199 0.0
C1637 C 0.90064 0.91439 0.55331 0.0
H1638 H 0.92214 0.89116 0.47076 0.0
C1639 C 0.90611 0.9237 0.39013 0.0
C1640 C 0.88883 0.9309 0.3836 0.0
C1641 C 0.91077 0.91769 0.42419 0.0
C1642 C 0.91615 0.89806 0.49339 0.0
H1643 H 0.9267 0.91535 0.67663 0.0
H1644 H 0.91631 0.92324 0.61716 0.0
H1645 H 0.93253 0.88297 0.52964 0.0
H1646 H 0.86259 0.93708 0.40658 0.0
H1647 H 0.87013 0.92542 0.46563 0.0
H1648 H 0.88545 0.93066 0.51704 0.0
C1649 C 0.92083 0.90945 0.62189 0.0
C1650 C 0.92186 0.89303 0.52748 0.0
C1651 C 0.92697 0.90505 0.65597 0.0
C1652 C 0.87609 0.93172 0.41132 0.0
C1653 C 0.88052 0.92515 0.44519 0.0
C1654 C 0.89536 0.91985 0.51922 0.0
C1655 C 0.92089 0.89638 0.5944 0.0
C1656 C 0.91428 0.90119 0.55799 0.0
C1657 C 0.89801 0.91819 0.45224 0.0
C1658 C 0.9031 0.91185 0.48869 0.0
H1659 H 0.93949 0.86112 0.64107 0.0
H1660 H 0.92758 0.86825 0.58198 0.0
H1661 H 0.89404 0.9207 0.57596 0.0
H1662 H 0.91619 0.92313 0.36906 0.0
H1663 H 0.92452 0.91297 0.42847 0.0
C1664 C 0.07879 0.11751 0.90783 0.0
C1665 C 0.08628 0.10934 0.87733 0.0
C1666 C 0.08736 0.11567 0.94085 0.0
C1667 C 0.11255 0.08273 0.98951 0.0
H1668 H 0.1205 0.1211 0.05863 0.0
C1669 C 0.12718 0.065 0.13545 0.0
C1670 C 0.1176 0.07544 0.16051 0.0
C1671 C 0.12858 0.07082 0.10006 0.0
C1672 C 0.11827 0.11021 0.03972 0.0
H1673 H 0.10893 0.09344 0.85706 0.0
H1674 H 0.12354 0.08981 0.91508 0.0
H1675 H 0.11263 0.12889 -0.00282 0.0
H1676 H 0.10252 0.10044 0.16872 0.0
H1677 H 0.10413 0.11012 0.10711 0.0
H1678 H 0.11666 0.06397 0.03203 0.0
C1679 C 0.1112 0.09778 0.91324 0.0
C1680 C 0.1139 0.11471 0.00457 0.0
C1681 C 0.10283 0.09989 0.88014 0.0
C1682 C 0.11003 0.0921 0.14997 0.0
C1683 C 0.11113 0.09775 0.11458 0.0
C1684 C 0.11654 0.07821 0.02475 0.0
C1685 C 0.10336 0.1054 0.94389 0.0
C1686 C 0.11061 0.10098 0.97946 0.0
C1687 C 0.12011 0.08703 0.08898 0.0
C1688 C 0.11896 0.09189 0.05055 0.0
H1689 H 0.06612 0.12497 0.90633 0.0
H1690 H 0.08101 0.12152 0.96428 0.0
H1691 H 0.10988 0.07191 0.97059 0.0
H1692 H 0.13338 0.05221 0.14305 0.0
H1693 H 0.13594 0.06241 0.08127 0.0
C1694 C 0.90447 0.60214 0.41856 0.0
C1695 C 0.92337 0.60298 0.42381 0.0
C1696 C 0.89736 0.5974 0.38538 0.0
C1697 C 0.88595 0.59536 0.30761 0.0
H1698 H 0.90972 0.55585 0.25745 0.0
C1699 C 0.87489 0.57934 0.15911 0.0
C1700 C 0.87617 0.56119 0.14764 0.0
C1701 C 0.87754 0.58377 0.19488 0.0
C1702 C 0.90274 0.5667 0.27138 0.0
H1703 H 0.94962 0.6003 0.39798 0.0
H1704 H 0.93716 0.59225 0.33976 0.0
H1705 H 0.92144 0.56576 0.31495 0.0
H1706 H 0.87963 0.5333 0.16512 0.0
H1707 H 0.88405 0.54106 0.22785 0.0
H1708 H 0.8672 0.59622 0.26401 0.0
C1709 C 0.92788 0.59492 0.36158 0.0
C1710 C 0.90965 0.57259 0.30402 0.0
C1711 C 0.93501 0.59968 0.39482 0.0
C1712 C 0.87872 0.54742 0.17309 0.0
C1713 C 0.88138 0.55187 0.20894 0.0
C1714 C 0.87903 0.58947 0.27491 0.0
C1715 C 0.90899 0.59341 0.35673 0.0
C1716 C 0.90146 0.5871 0.32228 0.0
C1717 C 0.88147 0.57014 0.21993 0.0
C1718 C 0.88748 0.5752 0.2563 0.0
H1719 H 0.89511 0.60464 0.44034 0.0
H1720 H 0.88276 0.59624 0.38253 0.0
H1721 H 0.87938 0.60663 0.32104 0.0
H1722 H 0.87279 0.59027 0.14019 0.0
H1723 H 0.8776 0.59798 0.20244 0.0
C1724 C 0.39967 0.45577 0.65379 0.0
C1725 C 0.38748 0.44394 0.67087 0.0
C1726 C 0.40496 0.45249 0.61854 0.0
C1727 C 0.39299 0.42852 0.53643 0.0
H1728 H 0.44475 0.42028 0.52507 0.0
C1729 C 0.41994 0.38962 0.41602 0.0
C1730 C 0.43585 0.39597 0.39958 0.0
C1731 C 0.41468 0.39632 0.4492 0.0
C1732 C 0.43031 0.4228 0.52755 0.0
H1733 H 0.37028 0.42027 0.66421 0.0
H1734 H 0.3791 0.41489 0.60232 0.0
H1735 H 0.43313 0.43277 0.581 0.0
H1736 H 0.45917 0.4137 0.40537 0.0
H1737 H 0.44978 0.42579 0.46317 0.0
H1738 H 0.39002 0.41873 0.48317 0.0
C1739 C 0.38472 0.42652 0.61621 0.0
C1740 C 0.42368 0.42998 0.55953 0.0
C1741 C 0.37973 0.42956 0.65156 0.0
C1742 C 0.44691 0.40847 0.41766 0.0
C1743 C 0.4415 0.41541 0.45073 0.0
C1744 C 0.39961 0.42159 0.50434 0.0
C1745 C 0.39779 0.43761 0.59979 0.0
C1746 C 0.40494 0.43253 0.56442 0.0
C1747 C 0.42505 0.40976 0.4664 0.0
C1748 C 0.4183 0.41823 0.49982 0.0
H1749 H 0.40593 0.46687 0.66826 0.0
H1750 H 0.41502 0.46124 0.60625 0.0
H1751 H 0.37849 0.43052 0.53959 0.0
H1752 H 0.41126 0.37984 0.40271 0.0
H1753 H 0.40225 0.39122 0.46102 0.0
C1754 C 0.59583 0.94494 0.67057 0.0
C1755 C 0.60712 0.93456 0.64825 0.0
C1756 C 0.59064 0.93821 0.70389 0.0
C1757 C 0.60202 0.90926 0.77688 0.0
H1758 H 0.55054 0.89871 0.78554 0.0
C1759 C 0.57454 0.8757 0.90348 0.0
C1760 C 0.55808 0.88253 0.91679 0.0
C1761 C 0.58006 0.8798 0.8688 0.0
C1762 C 0.5649 0.90177 0.78384 0.0
H1763 H 0.62278 0.9097 0.6438 0.0
H1764 H 0.61425 0.89832 0.70293 0.0
H1765 H 0.56225 0.91236 0.7308 0.0
H1766 H 0.53407 0.89826 0.90414 0.0
H1767 H 0.54397 0.90612 0.84423 0.0
H1768 H 0.60478 0.89963 0.83025 0.0
C1769 C 0.60921 0.91143 0.69426 0.0
C1770 C 0.57156 0.90952 0.75247 0.0
C1771 C 0.61406 0.91793 0.66062 0.0
C1772 C 0.54675 0.89268 0.89432 0.0
C1773 C 0.55246 0.89715 0.8599 0.0
C1774 C 0.59533 0.90188 0.80857 0.0
C1775 C 0.59705 0.92128 0.71558 0.0
C1776 C 0.59013 0.91334 0.74889 0.0
C1777 C 0.56945 0.89122 0.84708 0.0
C1778 C 0.57666 0.89806 0.81251 0.0
H1779 H 0.59017 0.95772 0.66149 0.0
H1780 H 0.58128 0.946 0.72018 0.0
H1781 H 0.6164 0.91215 0.77448 0.0
H1782 H 0.58343 0.8677 0.92033 0.0
H1783 H 0.59294 0.87449 0.8595 0.0
C1784 C 0.10626 0.39387 0.42923 0.0
C1785 C 0.0896 0.38473 0.43317 0.0
C1786 C 0.11412 0.39583 0.39556 0.0
C1787 C 0.11462 0.37914 0.30363 0.0
H1788 H 0.11886 0.42991 0.27721 0.0
C1789 C 0.11019 0.40294 0.15862 0.0
C1790 C 0.11827 0.41941 0.14836 0.0
C1791 C 0.11132 0.39697 0.19384 0.0
C1792 C 0.1183 0.41564 0.28413 0.0
H1793 H 0.06873 0.36943 0.40553 0.0
H1794 H 0.08267 0.37266 0.34661 0.0
H1795 H 0.11278 0.42182 0.33885 0.0
H1796 H 0.13499 0.4419 0.16603 0.0
H1797 H 0.13766 0.43111 0.22735 0.0
H1798 H 0.1201 0.37286 0.24898 0.0
C1799 C 0.08953 0.37838 0.36959 0.0
C1800 C 0.11471 0.41103 0.31952 0.0
C1801 C 0.0815 0.37666 0.40319 0.0
C1802 C 0.1284 0.42928 0.17343 0.0
C1803 C 0.12984 0.42312 0.20857 0.0
C1804 C 0.11857 0.38371 0.26829 0.0
C1805 C 0.10563 0.3884 0.36541 0.0
C1806 C 0.11231 0.3928 0.32932 0.0
C1807 C 0.12085 0.40716 0.21949 0.0
C1808 C 0.11984 0.40206 0.25785 0.0
H1809 H 0.11284 0.40021 0.45189 0.0
H1810 H 0.12656 0.40359 0.39289 0.0
H1811 H 0.11297 0.36496 0.31076 0.0
H1812 H 0.10223 0.39506 0.13986 0.0
H1813 H 0.10394 0.3848 0.20117 0.0
C1814 C 0.61331 0.56403 0.65802 0.0
C1815 C 0.60417 0.5503 0.67677 0.0
C1816 C 0.60798 0.56863 0.62357 0.0
C1817 C 0.57953 0.55495 0.5466 0.0
H1818 H 0.57839 0.60709 0.53097 0.0
C1819 C 0.54833 0.58849 0.42069 0.0
C1820 C 0.56058 0.60007 0.40307 0.0
C1821 C 0.55214 0.58231 0.45515 0.0
C1822 C 0.57863 0.59251 0.53503 0.0
H1823 H 0.58307 0.52983 0.67378 0.0
H1824 H 0.5734 0.53815 0.61354 0.0
H1825 H 0.58905 0.59523 0.58781 0.0
H1826 H 0.5859 0.61495 0.40795 0.0
H1827 H 0.5923 0.6045 0.46833 0.0
H1828 H 0.56888 0.55243 0.49357 0.0
C1829 C 0.58485 0.5452 0.62526 0.0
C1830 C 0.58488 0.58568 0.56739 0.0
C1831 C 0.59039 0.5404 0.65969 0.0
C1832 C 0.57625 0.60601 0.42095 0.0
C1833 C 0.57988 0.60008 0.45548 0.0
C1834 C 0.57309 0.56183 0.51422 0.0
C1835 C 0.59317 0.55982 0.60742 0.0
C1836 C 0.58578 0.56682 0.5733 0.0
C1837 C 0.56806 0.58792 0.47261 0.0
C1838 C 0.5729 0.58065 0.50801 0.0
H1839 H 0.62411 0.57172 0.67056 0.0
H1840 H 0.61506 0.57956 0.61009 0.0
H1841 H 0.58009 0.54036 0.55031 0.0
H1842 H 0.53622 0.58363 0.40734 0.0
H1843 H 0.5428 0.573 0.46801 0.0
C1844 C 0.37434 0.06978 0.66049 0.0
C1845 C 0.38178 0.05462 0.64304 0.0
C1846 C 0.379 0.07355 0.69575 0.0
C1847 C 0.41754 0.07079 0.75251 0.0
H1848 H 0.38455 0.08355 0.82921 0.0
C1849 C 0.44266 0.09297 0.89199 0.0
C1850 C 0.43192 0.10542 0.91097 0.0
C1851 C 0.43666 0.0861 0.85933 0.0
C1852 C 0.39395 0.08032 0.80789 0.0
H1853 H 0.39916 0.03102 0.64892 0.0
H1854 H 0.40771 0.03795 0.71062 0.0
H1855 H 0.37248 0.07117 0.7737 0.0
H1856 H 0.40725 0.12146 0.90996 0.0
H1857 H 0.39725 0.11031 0.85207 0.0
H1858 H 0.43896 0.08076 0.78558 0.0
C1859 C 0.39813 0.04672 0.69702 0.0
C1860 C 0.38702 0.07303 0.77637 0.0
C1861 C 0.39316 0.04272 0.66194 0.0
C1862 C 0.4157 0.11176 0.89585 0.0
C1863 C 0.40988 0.10518 0.86293 0.0
C1864 C 0.42447 0.07838 0.78378 0.0
C1865 C 0.39143 0.06241 0.71378 0.0
C1866 C 0.39876 0.06832 0.74842 0.0
C1867 C 0.41997 0.0918 0.84484 0.0
C1868 C 0.41274 0.08341 0.81174 0.0
H1869 H 0.36553 0.07913 0.64638 0.0
H1870 H 0.37375 0.08577 0.70818 0.0
H1871 H 0.4268 0.0675 0.73096 0.0
H1872 H 0.45512 0.08771 0.90334 0.0
H1873 H 0.44472 0.07572 0.84633 0.0
C1874 C 0.89721 0.94854 0.13701 0.0
C1875 C 0.88573 0.93719 0.157 0.0
C1876 C 0.90293 0.94327 0.10301 0.0
C1877 C 0.89308 0.91431 0.02686 0.0
H1878 H 0.94536 0.9096 0.01718 0.0
C1879 C 0.92356 0.87874 0.90509 0.0
C1880 C 0.93911 0.88659 0.88986 0.0
C1881 C 0.91767 0.88413 0.93884 0.0
C1882 C 0.93076 0.91106 0.01916 0.0
H1883 H 0.87021 0.91214 0.15652 0.0
H1884 H 0.87973 0.90326 0.09648 0.0
H1885 H 0.93254 0.92263 0.07151 0.0
H1886 H 0.96116 0.90562 0.89828 0.0
H1887 H 0.95059 0.91552 0.95668 0.0
H1888 H 0.89113 0.90331 0.97434 0.0
C1889 C 0.88449 0.91605 0.10733 0.0
C1890 C 0.92345 0.91851 0.05027 0.0
C1891 C 0.87907 0.92112 0.14158 0.0
C1892 C 0.94922 0.89922 0.90963 0.0
C1893 C 0.94313 0.90489 0.94314 0.0
C1894 C 0.90037 0.90716 -0.00451 0.0
C1895 C 0.89691 0.92679 0.08829 0.0
C1896 C 0.90456 0.92008 0.05441 0.0
C1897 C 0.92698 0.89778 0.95772 0.0
C1898 C 0.91931 0.90528 0.99135 0.0
H1899 H 0.90266 0.96092 0.14843 0.0
H1900 H 0.91244 0.95179 0.08859 0.0
H1901 H 0.87846 0.91548 0.02952 0.0
H1902 H 0.91561 0.86886 0.89039 0.0
H1903 H 0.90552 0.87793 0.94967 0.0
loop_
_geom_bond_atom_site_label_1
_geom_bond_atom_site_label_2
_geom_bond_distance
_geom_bond_site_symmetry_2
_ccdc_geom_bond_type
Co0 O2 2.143 . S
Co0 O8 2.074 . S
Co0 O11 2.093 . S
Co0 O24 2.097 . S
Co0 N41 2.151 . S
Co0 N49 2.214 . S
Co1 O2 2.160 . S
Co1 O7 2.058 . S
Co1 O17 2.057 . S
Co1 O32 2.037 . S
Co1 N36 2.145 . S
Co1 N57 2.257 . S
O2 Co0 2.143 . S
O2 Co1 2.160 . S
C3 O4 1.278 . S
C3 O11 1.224 . S
O4 C3 1.278 . S
C5 O6 1.245 . S
C5 O17 1.232 . S
O6 C5 1.245 . S
O7 Co1 2.058 . S
O7 C33 1.269 . S
O8 Co0 2.074 . S
O8 C33 1.257 . S
H9 C34 0.930 . S
H10 C40 0.930 . S
O11 Co0 2.093 . S
O11 C3 1.224 . S
H12 C44 0.929 . S
H13 C46 0.930 . S
H14 C47 0.930 . S
H15 C45 0.929 . S
H16 C48 0.928 . S
O17 Co1 2.057 . S
O17 C5 1.232 . S
H18 C37 0.929 . S
H19 C38 0.929 . S
H20 C50 0.931 . S
H21 C42 0.929 . S
H22 C51 0.930 . S
H23 C43 0.931 . S
O24 Co0 2.097 . S
O24 C52 1.214 . S
H25 C53 0.929 . S
H26 C54 0.929 . S
H27 C55 0.930 1_565 S
H28 C56 0.929 1_565 S
H29 C58 0.930 . S
H30 C35 0.930 . S
H31 C39 0.930 . S
O32 Co1 2.037 . S
O32 C52 1.234 . S
C33 O7 1.269 . S
C33 O8 1.257 . S
C34 H9 0.930 . S
C34 C37 1.388 . S
C34 C39 1.418 1_545 S
C35 H30 0.930 . S
C35 C38 1.404 . S
C35 C39 1.353 1_545 S
N36 Co1 2.145 . S
N36 C37 1.397 . S
N36 C38 1.334 . S
C37 H18 0.929 . S
C37 C34 1.388 . S
C37 N36 1.397 . S
C38 H19 0.929 . S
C38 C35 1.404 . S
C38 N36 1.334 . S
C39 H31 0.930 . S
C39 C34 1.418 1_565 S
C39 C35 1.353 1_565 S
C40 H10 0.930 . S
C40 N41 1.330 . S
C40 C42 1.446 . S
N41 Co0 2.151 . S
N41 C40 1.330 . S
N41 C45 1.418 . S
C42 H21 0.929 . S
C42 C40 1.446 . S
C42 C43 1.332 . S
C43 H23 0.931 . S
C43 C42 1.332 . S
C43 C44 1.267 . S
C44 H12 0.929 . S
C44 C43 1.267 . S
C44 C45 1.251 . S
C45 H15 0.929 . S
C45 N41 1.418 . S
C45 C44 1.251 . S
C46 H13 0.930 . S
C46 C48 1.406 . S
C46 C51 1.261 . S
C47 H14 0.930 . S
C47 N49 1.325 . S
C47 C50 1.357 . S
C48 H16 0.928 . S
C48 C46 1.406 . S
C48 N49 1.261 . S
N49 Co0 2.214 . S
N49 C47 1.325 . S
N49 C48 1.261 . S
C50 H20 0.931 . S
C50 C47 1.357 . S
C50 C51 1.312 . S
C51 H22 0.930 . S
C51 C46 1.261 . S
C51 C50 1.312 . S
C52 O24 1.214 . S
C52 O32 1.234 . S
C53 H25 0.929 . S
C53 C56 1.391 . S
C53 C58 1.391 . S
C54 H26 0.929 . S
C54 C55 1.390 . S
C54 N57 1.391 . S
C55 H27 0.930 1_545 S
C55 C54 1.390 . S
C55 C56 1.392 . S
C56 H28 0.929 1_545 S
C56 C53 1.391 . S
C56 C55 1.392 . S
N57 Co1 2.257 . S
N57 C54 1.391 . S
N57 C58 1.388 . S
C58 H29 0.930 . S
C58 C53 1.391 . S
C58 N57 1.388 . S
Co59 O61 2.143 . S
Co59 O67 2.074 . S
Co59 O70 2.093 . S
Co59 O83 2.097 . S
Co59 N100 2.151 . S
Co59 N108 2.214 . S
Co60 O61 2.160 . S
Co60 O66 2.058 . S
Co60 O76 2.057 . S
Co60 O91 2.037 . S
Co60 N95 2.145 . S
Co60 N116 2.257 . S
O61 Co59 2.143 . S
O61 Co60 2.160 . S
C62 O63 1.278 . S
C62 O70 1.224 . S
O63 C62 1.278 . S
C64 O65 1.245 . S
C64 O76 1.232 . S
O65 C64 1.245 . S
O66 Co60 2.058 . S
O66 C92 1.269 . S
O67 Co59 2.074 . S
O67 C92 1.257 . S
H68 C93 0.930 . S
H69 C99 0.930 . S
O70 Co59 2.093 . S
O70 C62 1.224 . S
H71 C103 0.929 . S
H72 C105 0.930 . S
H73 C106 0.930 . S
H74 C104 0.929 . S
H75 C107 0.928 . S
O76 Co60 2.057 . S
O76 C64 1.232 . S
H77 C96 0.929 . S
H78 C97 0.929 . S
H79 C109 0.931 . S
H80 C101 0.929 . S
H81 C110 0.930 . S
H82 C102 0.931 . S
O83 Co59 2.097 . S
O83 C111 1.214 . S
H84 C112 0.929 . S
H85 C113 0.929 . S
H86 C114 0.930 1_455 S
H87 C115 0.929 1_455 S
H88 C117 0.930 . S
H89 C94 0.930 . S
H90 C98 0.930 . S
O91 Co60 2.037 . S
O91 C111 1.234 . S
C92 O66 1.269 . S
C92 O67 1.257 . S
C93 H68 0.930 . S
C93 C96 1.388 . S
C93 C98 1.418 1_655 S
C94 H89 0.930 . S
C94 C97 1.404 . S
C94 C98 1.353 1_655 S
N95 Co60 2.145 . S
N95 C96 1.397 . S
N95 C97 1.334 . S
C96 H77 0.929 . S
C96 C93 1.388 . S
C96 N95 1.397 . S
C97 H78 0.929 . S
C97 C94 1.404 . S
C97 N95 1.334 . S
C98 H90 0.930 . S
C98 C93 1.418 1_455 S
C98 C94 1.353 1_455 S
C99 H69 0.930 . S
C99 N100 1.330 . S
C99 C101 1.446 . S
N100 Co59 2.151 . S
N100 C99 1.330 . S
N100 C104 1.418 . S
C101 H80 0.929 . S
C101 C99 1.446 . S
C101 C102 1.332 . S
C102 H82 0.931 . S
C102 C101 1.332 . S
C102 C103 1.267 . S
C103 H71 0.929 . S
C103 C102 1.267 . S
C103 C104 1.251 . S
C104 H74 0.929 . S
C104 N100 1.418 . S
C104 C103 1.251 . S
C105 H72 0.930 . S
C105 C107 1.406 . S
C105 C110 1.261 . S
C106 H73 0.930 . S
C106 N108 1.325 . S
C106 C109 1.357 . S
C107 H75 0.928 . S
C107 C105 1.406 . S
C107 N108 1.261 . S
N108 Co59 2.214 . S
N108 C106 1.325 . S
N108 C107 1.261 . S
C109 H79 0.931 . S
C109 C106 1.357 . S
C109 C110 1.312 . S
C110 H81 0.930 . S
C110 C105 1.261 . S
C110 C109 1.312 . S
C111 O83 1.214 . S
C111 O91 1.234 . S
C112 H84 0.929 . S
C112 C115 1.391 . S
C112 C117 1.391 . S
C113 H85 0.929 . S
C113 C114 1.390 . S
C113 N116 1.391 . S
C114 H86 0.930 1_655 S
C114 C113 1.390 . S
C114 C115 1.392 . S
C115 H87 0.929 1_655 S
C115 C112 1.391 . S
C115 C114 1.392 . S
N116 Co60 2.257 . S
N116 C113 1.391 . S
N116 C117 1.388 . S
C117 H88 0.930 . S
C117 C112 1.391 . S
C117 N116 1.388 . S
Co118 O120 2.143 . S
Co118 O126 2.074 . S
Co118 O129 2.093 . S
Co118 O142 2.097 . S
Co118 N159 2.151 . S
Co118 N167 2.214 . S
Co119 O120 2.160 . S
Co119 O125 2.058 . S
Co119 O135 2.057 . S
Co119 O150 2.037 . S
Co119 N154 2.145 . S
Co119 N175 2.257 . S
O120 Co118 2.143 . S
O120 Co119 2.160 . S
C121 O122 1.278 . S
C121 O129 1.224 . S
O122 C121 1.278 . S
C123 O124 1.245 . S
C123 O135 1.232 . S
O124 C123 1.245 . S
O125 Co119 2.058 . S
O125 C151 1.269 . S
O126 Co118 2.074 . S
O126 C151 1.257 . S
H127 C152 0.930 . S
H128 C158 0.930 . S
O129 Co118 2.093 . S
O129 C121 1.224 . S
H130 C162 0.929 . S
H131 C164 0.930 . S
H132 C165 0.930 . S
H133 C163 0.929 . S
H134 C166 0.928 . S
O135 Co119 2.057 . S
O135 C123 1.232 . S
H136 C155 0.929 . S
H137 C156 0.929 . S
H138 C168 0.931 . S
H139 C160 0.929 . S
H140 C169 0.930 . S
H141 C161 0.931 . S
O142 Co118 2.097 . S
O142 C170 1.214 . S
H143 C171 0.929 . S
H144 C172 0.929 . S
H145 C173 0.930 . S
H146 C174 0.929 . S
H147 C176 0.930 . S
H148 C153 0.930 . S
H149 C157 0.930 . S
O150 Co119 2.037 . S
O150 C170 1.234 . S
C151 O125 1.269 . S
C151 O126 1.257 . S
C152 H127 0.930 . S
C152 C155 1.388 . S
C152 C157 1.418 . S
C153 H148 0.930 . S
C153 C156 1.404 . S
C153 C157 1.353 . S
N154 Co119 2.145 . S
N154 C155 1.397 . S
N154 C156 1.334 . S
C155 H136 0.929 . S
C155 C152 1.388 . S
C155 N154 1.397 . S
C156 H137 0.929 . S
C156 C153 1.404 . S
C156 N154 1.334 . S
C157 H149 0.930 . S
C157 C152 1.418 . S
C157 C153 1.353 . S
C158 H128 0.930 . S
C158 N159 1.330 . S
C158 C160 1.446 . S
N159 Co118 2.151 . S
N159 C158 1.330 . S
N159 C163 1.418 . S
C160 H139 0.929 . S
C160 C158 1.446 . S
C160 C161 1.332 . S
C161 H141 0.931 . S
C161 C160 1.332 . S
C161 C162 1.267 . S
C162 H130 0.929 . S
C162 C161 1.267 . S
C162 C163 1.251 . S
C163 H133 0.929 . S
C163 N159 1.418 . S
C163 C162 1.251 . S
C164 H131 0.930 . S
C164 C166 1.406 . S
C164 C169 1.261 . S
C165 H132 0.930 . S
C165 N167 1.325 . S
C165 C168 1.357 . S
C166 H134 0.928 . S
C166 C164 1.406 . S
C166 N167 1.261 . S
N167 Co118 2.214 . S
N167 C165 1.325 . S
N167 C166 1.261 . S
C168 H138 0.931 . S
C168 C165 1.357 . S
C168 C169 1.312 . S
C169 H140 0.930 . S
C169 C164 1.261 . S
C169 C168 1.312 . S
C170 O142 1.214 . S
C170 O150 1.234 . S
C171 H143 0.929 . S
C171 C174 1.391 . S
C171 C176 1.391 . S
C172 H144 0.929 . S
C172 C173 1.390 . S
C172 N175 1.391 . S
C173 H145 0.930 . S
C173 C172 1.390 . S
C173 C174 1.392 . S
C174 H146 0.929 . S
C174 C171 1.391 . S
C174 C173 1.392 . S
N175 Co119 2.257 . S
N175 C172 1.391 . S
N175 C176 1.388 . S
C176 H147 0.930 . S
C176 C171 1.391 . S
C176 N175 1.388 . S
Co177 O179 2.143 . S
Co177 O185 2.074 . S
Co177 O188 2.098 . S
Co177 O201 2.097 . S
Co177 N218 2.151 . S
Co177 N226 2.214 . S
Co178 O179 2.160 . S
Co178 O184 2.058 . S
Co178 O194 2.057 . S
Co178 O209 2.037 . S
Co178 N213 2.145 . S
Co178 N234 2.257 . S
O179 Co177 2.143 . S
O179 Co178 2.160 . S
C180 O181 1.278 . S
C180 O188 1.221 1_556 S
O181 C180 1.278 . S
C182 O183 1.245 . S
C182 O194 1.232 . S
O183 C182 1.245 . S
O184 Co178 2.058 . S
O184 C210 1.269 . S
O185 Co177 2.074 . S
O185 C210 1.257 . S
H186 C211 0.930 . S
H187 C217 0.930 . S
O188 Co177 2.098 . S
O188 C180 1.221 1_554 S
H189 C221 0.929 . S
H190 C223 0.930 . S
H191 C224 0.930 . S
H192 C222 0.929 . S
H193 C225 0.928 . S
O194 Co178 2.057 . S
O194 C182 1.232 . S
H195 C214 0.929 . S
H196 C215 0.929 . S
H197 C227 0.931 . S
H198 C219 0.929 . S
H199 C228 0.930 . S
H200 C220 0.931 . S
O201 Co177 2.097 . S
O201 C229 1.214 . S
H202 C230 0.929 . S
H203 C231 0.929 . S
H204 C232 0.930 . S
H205 C233 0.929 . S
H206 C235 0.930 . S
H207 C212 0.930 . S
H208 C216 0.930 . S
O209 Co178 2.037 . S
O209 C229 1.234 . S
C210 O184 1.269 . S
C210 O185 1.257 . S
C211 H186 0.930 . S
C211 C214 1.388 . S
C211 C216 1.418 . S
C212 H207 0.930 . S
C212 C215 1.404 . S
C212 C216 1.353 . S
N213 Co178 2.145 . S
N213 C214 1.397 . S
N213 C215 1.334 . S
C214 H195 0.929 . S
C214 C211 1.388 . S
C214 N213 1.397 . S
C215 H196 0.929 . S
C215 C212 1.404 . S
C215 N213 1.334 . S
C216 H208 0.930 . S
C216 C211 1.418 . S
C216 C212 1.353 . S
C217 H187 0.930 . S
C217 N218 1.330 . S
C217 C219 1.446 . S
N218 Co177 2.151 . S
N218 C217 1.330 . S
N218 C222 1.418 . S
C219 H198 0.929 . S
C219 C217 1.446 . S
C219 C220 1.332 . S
C220 H200 0.931 . S
C220 C219 1.332 . S
C220 C221 1.267 . S
C221 H189 0.929 . S
C221 C220 1.267 . S
C221 C222 1.251 . S
C222 H192 0.929 . S
C222 N218 1.418 . S
C222 C221 1.251 . S
C223 H190 0.930 . S
C223 C225 1.406 . S
C223 C228 1.261 . S
C224 H191 0.930 . S
C224 N226 1.325 . S
C224 C227 1.357 . S
C225 H193 0.928 . S
C225 C223 1.406 . S
C225 N226 1.261 . S
N226 Co177 2.214 . S
N226 C224 1.325 . S
N226 C225 1.261 . S
C227 H197 0.931 . S
C227 C224 1.357 . S
C227 C228 1.312 . S
C228 H199 0.930 . S
C228 C223 1.261 . S
C228 C227 1.312 . S
C229 O201 1.214 . S
C229 O209 1.234 . S
C230 H202 0.929 . S
C230 C233 1.391 . S
C230 C235 1.391 1_556 S
C231 H203 0.929 . S
C231 C232 1.390 . S
C231 N234 1.391 . S
C232 H204 0.930 . S
C232 C231 1.390 . S
C232 C233 1.392 1_554 S
C233 H205 0.929 . S
C233 C230 1.391 . S
C233 C232 1.392 1_556 S
N234 Co178 2.257 . S
N234 C231 1.391 . S
N234 C235 1.388 . S
C235 H206 0.930 . S
C235 C230 1.391 1_554 S
C235 N234 1.388 . S
Co236 O238 2.143 . S
Co236 O244 2.074 1_554 S
Co236 O247 2.093 . S
Co236 O260 2.097 . S
Co236 N277 2.151 . S
Co236 N285 2.214 . S
Co237 O238 2.160 1_556 S
Co237 O243 2.058 . S
Co237 O253 2.057 . S
Co237 O268 2.037 . S
Co237 N272 2.145 . S
Co237 N293 2.257 1_556 S
O238 Co236 2.143 . S
O238 Co237 2.160 1_554 S
C239 O240 1.278 . S
C239 O247 1.224 . S
O240 C239 1.278 . S
C241 O242 1.245 1_556 S
C241 O253 1.232 . S
O242 C241 1.245 1_554 S
O243 Co237 2.058 . S
O243 C269 1.269 . S
O244 Co236 2.074 1_556 S
O244 C269 1.257 . S
H245 C270 0.930 . S
H246 C276 0.930 . S
O247 Co236 2.093 . S
O247 C239 1.224 . S
H248 C280 0.943 . S
H249 C282 0.930 . S
H250 C283 0.930 1_556 S
H251 C281 0.949 . S
H252 C284 0.928 . S
O253 Co237 2.057 . S
O253 C241 1.232 . S
H254 C273 0.929 . S
H255 C274 0.929 . S
H256 C286 0.931 . S
H257 C278 0.929 . S
H258 C287 0.930 . S
H259 C279 0.931 . S
O260 Co236 2.097 . S
O260 C288 1.214 . S
H261 C289 0.929 . S
H262 C290 0.929 . S
H263 C291 0.930 . S
H264 C292 0.929 . S
H265 C294 0.930 . S
H266 C271 0.930 . S
H267 C275 0.930 . S
O268 Co237 2.037 . S
O268 C288 1.234 1_556 S
C269 O243 1.269 . S
C269 O244 1.257 . S
C270 H245 0.930 . S
C270 C273 1.388 . S
C270 C275 1.418 . S
C271 H266 0.930 . S
C271 C274 1.404 . S
C271 C275 1.353 . S
N272 Co237 2.145 . S
N272 C273 1.397 . S
N272 C274 1.334 . S
C273 H254 0.929 . S
C273 C270 1.388 . S
C273 N272 1.397 . S
C274 H255 0.929 . S
C274 C271 1.404 . S
C274 N272 1.334 . S
C275 H267 0.930 . S
C275 C270 1.418 . S
C275 C271 1.353 . S
C276 H246 0.930 . S
C276 N277 1.330 . S
C276 C278 1.446 . S
N277 Co236 2.151 . S
N277 C276 1.330 . S
N277 C281 1.399 1_554 S
C278 H257 0.929 . S
C278 C276 1.446 . S
C278 C279 1.332 . S
C279 H259 0.931 . S
C279 C278 1.332 . S
C279 C280 1.254 1_554 S
C280 H248 0.943 . S
C280 C279 1.254 1_556 S
C280 C281 1.251 . S
C281 H251 0.949 . S
C281 N277 1.399 1_556 S
C281 C280 1.251 . S
C282 H249 0.930 . S
C282 C284 1.406 . S
C282 C287 1.261 . S
C283 H250 0.930 1_554 S
C283 N285 1.325 . S
C283 C286 1.357 1_554 S
C284 H252 0.928 . S
C284 C282 1.406 . S
C284 N285 1.261 . S
N285 Co236 2.214 . S
N285 C283 1.325 . S
N285 C284 1.261 . S
C286 H256 0.931 . S
C286 C283 1.357 1_556 S
C286 C287 1.312 1_556 S
C287 H258 0.930 . S
C287 C282 1.261 . S
C287 C286 1.312 1_554 S
C288 O260 1.214 . S
C288 O268 1.234 1_554 S
C289 H261 0.929 . S
C289 C292 1.391 . S
C289 C294 1.391 . S
C290 H262 0.929 . S
C290 C291 1.390 . S
C290 N293 1.391 . S
C291 H263 0.930 . S
C291 C290 1.390 . S
C291 C292 1.392 . S
C292 H264 0.929 . S
C292 C289 1.391 . S
C292 C291 1.392 . S
N293 Co237 2.257 1_554 S
N293 C290 1.391 . S
N293 C294 1.388 . S
C294 H265 0.930 . S
C294 C289 1.391 . S
C294 N293 1.388 . S
Co295 O297 2.143 . S
Co295 O303 2.074 . S
Co295 O306 2.093 . S
Co295 O319 2.097 . S
Co295 N336 2.151 . S
Co295 N344 2.214 . S
Co296 O297 2.160 . S
Co296 O302 2.058 . S
Co296 O312 2.057 . S
Co296 O327 2.037 . S
Co296 N331 2.145 . S
Co296 N352 2.257 . S
O297 Co295 2.143 . S
O297 Co296 2.160 . S
C298 O299 1.278 . S
C298 O306 1.224 . S
O299 C298 1.278 . S
C300 O301 1.245 . S
C300 O312 1.232 . S
O301 C300 1.245 . S
O302 Co296 2.058 . S
O302 C328 1.269 . S
O303 Co295 2.074 . S
O303 C328 1.257 . S
H304 C329 0.930 . S
H305 C335 0.930 . S
O306 Co295 2.093 . S
O306 C298 1.224 . S
H307 C339 0.929 . S
H308 C341 0.930 . S
H309 C342 0.930 . S
H310 C340 0.929 . S
H311 C343 0.928 . S
O312 Co296 2.057 . S
O312 C300 1.232 . S
H313 C332 0.929 . S
H314 C333 0.929 . S
H315 C345 0.931 . S
H316 C337 0.929 . S
H317 C346 0.930 . S
H318 C338 0.931 . S
O319 Co295 2.097 . S
O319 C347 1.214 . S
H320 C348 0.929 . S
H321 C349 0.929 . S
H322 C350 0.930 . S
H323 C351 0.929 . S
H324 C353 0.930 . S
H325 C330 0.930 . S
H326 C334 0.930 . S
O327 Co296 2.037 . S
O327 C347 1.234 . S
C328 O302 1.269 . S
C328 O303 1.257 . S
C329 H304 0.930 . S
C329 C332 1.388 . S
C329 C334 1.418 . S
C330 H325 0.930 . S
C330 C333 1.404 . S
C330 C334 1.353 . S
N331 Co296 2.145 . S
N331 C332 1.397 . S
N331 C333 1.334 . S
C332 H313 0.929 . S
C332 C329 1.388 . S
C332 N331 1.397 . S
C333 H314 0.929 . S
C333 C330 1.404 . S
C333 N331 1.334 . S
C334 H326 0.930 . S
C334 C329 1.418 . S
C334 C330 1.353 . S
C335 H305 0.930 . S
C335 N336 1.330 . S
C335 C337 1.446 . S
N336 Co295 2.151 . S
N336 C335 1.330 . S
N336 C340 1.418 . S
C337 H316 0.929 . S
C337 C335 1.446 . S
C337 C338 1.332 . S
C338 H318 0.931 . S
C338 C337 1.332 . S
C338 C339 1.267 . S
C339 H307 0.929 . S
C339 C338 1.267 . S
C339 C340 1.251 . S
C340 H310 0.929 . S
C340 N336 1.418 . S
C340 C339 1.251 . S
C341 H308 0.930 . S
C341 C343 1.406 . S
C341 C346 1.261 . S
C342 H309 0.930 . S
C342 N344 1.325 . S
C342 C345 1.357 . S
C343 H311 0.928 . S
C343 C341 1.406 . S
C343 N344 1.261 . S
N344 Co295 2.214 . S
N344 C342 1.325 . S
N344 C343 1.261 . S
C345 H315 0.931 . S
C345 C342 1.357 . S
C345 C346 1.312 . S
C346 H317 0.930 . S
C346 C341 1.261 . S
C346 C345 1.312 . S
C347 O319 1.214 . S
C347 O327 1.234 . S
C348 H320 0.929 . S
C348 C351 1.391 . S
C348 C353 1.391 . S
C349 H321 0.929 . S
C349 C350 1.390 . S
C349 N352 1.391 . S
C350 H322 0.930 . S
C350 C349 1.390 . S
C350 C351 1.392 . S
C351 H323 0.929 . S
C351 C348 1.391 . S
C351 C350 1.392 . S
N352 Co296 2.257 . S
N352 C349 1.391 . S
N352 C353 1.388 . S
C353 H324 0.930 . S
C353 C348 1.391 . S
C353 N352 1.388 . S
Co354 O356 2.143 . S
Co354 O362 2.074 . S
Co354 O365 2.093 . S
Co354 O378 2.097 . S
Co354 N395 2.151 . S
Co354 N403 2.214 . S
Co355 O356 2.160 . S
Co355 O361 2.058 . S
Co355 O371 2.057 . S
Co355 O386 2.037 . S
Co355 N390 2.145 . S
Co355 N411 2.257 . S
O356 Co354 2.143 . S
O356 Co355 2.160 . S
C357 O358 1.278 . S
C357 O365 1.224 . S
O358 C357 1.278 . S
C359 O360 1.245 . S
C359 O371 1.232 . S
O360 C359 1.245 . S
O361 Co355 2.058 . S
O361 C387 1.269 . S
O362 Co354 2.074 . S
O362 C387 1.257 . S
H363 C388 0.930 . S
H364 C394 0.930 . S
O365 Co354 2.093 . S
O365 C357 1.224 . S
H366 C398 0.929 . S
H367 C400 0.930 . S
H368 C401 0.930 . S
H369 C399 0.929 . S
H370 C402 0.928 . S
O371 Co355 2.057 . S
O371 C359 1.232 . S
H372 C391 0.929 . S
H373 C392 0.929 . S
H374 C404 0.931 . S
H375 C396 0.929 . S
H376 C405 0.930 . S
H377 C397 0.931 . S
O378 Co354 2.097 . S
O378 C406 1.214 . S
H379 C407 0.929 . S
H380 C408 0.929 . S
H381 C409 0.930 1_565 S
H382 C410 0.929 1_565 S
H383 C412 0.930 . S
H384 C389 0.930 . S
H385 C393 0.930 . S
O386 Co355 2.037 . S
O386 C406 1.234 . S
C387 O361 1.269 . S
C387 O362 1.257 . S
C388 H363 0.930 . S
C388 C391 1.388 . S
C388 C393 1.418 1_545 S
C389 H384 0.930 . S
C389 C392 1.404 . S
C389 C393 1.353 1_545 S
N390 Co355 2.145 . S
N390 C391 1.397 . S
N390 C392 1.334 . S
C391 H372 0.929 . S
C391 C388 1.388 . S
C391 N390 1.397 . S
C392 H373 0.929 . S
C392 C389 1.404 . S
C392 N390 1.334 . S
C393 H385 0.930 . S
C393 C388 1.418 1_565 S
C393 C389 1.353 1_565 S
C394 H364 0.930 . S
C394 N395 1.330 . S
C394 C396 1.446 . S
N395 Co354 2.151 . S
N395 C394 1.330 . S
N395 C399 1.418 . S
C396 H375 0.929 . S
C396 C394 1.446 . S
C396 C397 1.332 . S
C397 H377 0.931 . S
C397 C396 1.332 . S
C397 C398 1.267 . S
C398 H366 0.929 . S
C398 C397 1.267 . S
C398 C399 1.251 . S
C399 H369 0.929 . S
C399 N395 1.418 . S
C399 C398 1.251 . S
C400 H367 0.930 . S
C400 C402 1.406 . S
C400 C405 1.261 . S
C401 H368 0.930 . S
C401 N403 1.325 . S
C401 C404 1.357 . S
C402 H370 0.928 . S
C402 C400 1.406 . S
C402 N403 1.261 . S
N403 Co354 2.214 . S
N403 C401 1.325 . S
N403 C402 1.261 . S
C404 H374 0.931 . S
C404 C401 1.357 . S
C404 C405 1.312 . S
C405 H376 0.930 . S
C405 C400 1.261 . S
C405 C404 1.312 . S
C406 O378 1.214 . S
C406 O386 1.234 . S
C407 H379 0.929 . S
C407 C410 1.391 . S
C407 C412 1.391 . S
C408 H380 0.929 . S
C408 C409 1.390 . S
C408 N411 1.391 . S
C409 H381 0.930 1_545 S
C409 C408 1.390 . S
C409 C410 1.392 . S
C410 H382 0.929 1_545 S
C410 C407 1.391 . S
C410 C409 1.392 . S
N411 Co355 2.257 . S
N411 C408 1.391 . S
N411 C412 1.388 . S
C412 H383 0.930 . S
C412 C407 1.391 . S
C412 N411 1.388 . S
Co413 O415 2.143 . S
Co413 O421 2.074 . S
Co413 O424 2.093 . S
Co413 O437 2.097 . S
Co413 N454 2.151 . S
Co413 N462 2.214 . S
Co414 O415 2.160 . S
Co414 O420 2.058 . S
Co414 O430 2.057 . S
Co414 O445 2.037 . S
Co414 N449 2.145 . S
Co414 N470 2.257 . S
O415 Co413 2.143 . S
O415 Co414 2.160 . S
C416 O417 1.278 . S
C416 O424 1.224 . S
O417 C416 1.278 . S
C418 O419 1.245 . S
C418 O430 1.232 . S
O419 C418 1.245 . S
O420 Co414 2.058 . S
O420 C446 1.269 . S
O421 Co413 2.074 . S
O421 C446 1.257 . S
H422 C447 0.930 . S
H423 C453 0.930 . S
O424 Co413 2.093 . S
O424 C416 1.224 . S
H425 C457 0.929 . S
H426 C459 0.930 . S
H427 C460 0.930 . S
H428 C458 0.929 . S
H429 C461 0.928 . S
O430 Co414 2.057 . S
O430 C418 1.232 . S
H431 C450 0.929 . S
H432 C451 0.929 . S
H433 C463 0.931 . S
H434 C455 0.929 . S
H435 C464 0.930 . S
H436 C456 0.931 . S
O437 Co413 2.097 . S
O437 C465 1.214 . S
H438 C466 0.929 . S
H439 C467 0.929 . S
H440 C468 0.930 1_455 S
H441 C469 0.929 1_455 S
H442 C471 0.930 . S
H443 C448 0.930 . S
H444 C452 0.930 . S
O445 Co414 2.037 . S
O445 C465 1.234 . S
C446 O420 1.269 . S
C446 O421 1.257 . S
C447 H422 0.930 . S
C447 C450 1.388 . S
C447 C452 1.418 1_655 S
C448 H443 0.930 . S
C448 C451 1.404 . S
C448 C452 1.353 1_655 S
N449 Co414 2.145 . S
N449 C450 1.397 . S
N449 C451 1.334 . S
C450 H431 0.929 . S
C450 C447 1.388 . S
C450 N449 1.397 . S
C451 H432 0.929 . S
C451 C448 1.404 . S
C451 N449 1.334 . S
C452 H444 0.930 . S
C452 C447 1.418 1_455 S
C452 C448 1.353 1_455 S
C453 H423 0.930 . S
C453 N454 1.330 . S
C453 C455 1.446 . S
N454 Co413 2.151 . S
N454 C453 1.330 . S
N454 C458 1.418 . S
C455 H434 0.929 . S
C455 C453 1.446 . S
C455 C456 1.332 . S
C456 H436 0.931 . S
C456 C455 1.332 . S
C456 C457 1.267 . S
C457 H425 0.929 . S
C457 C456 1.267 . S
C457 C458 1.251 . S
C458 H428 0.929 . S
C458 N454 1.418 . S
C458 C457 1.251 . S
C459 H426 0.930 . S
C459 C461 1.406 . S
C459 C464 1.261 . S
C460 H427 0.930 . S
C460 N462 1.325 . S
C460 C463 1.357 . S
C461 H429 0.928 . S
C461 C459 1.406 . S
C461 N462 1.261 . S
N462 Co413 2.214 . S
N462 C460 1.325 . S
N462 C461 1.261 . S
C463 H433 0.931 . S
C463 C460 1.357 . S
C463 C464 1.312 . S
C464 H435 0.930 . S
C464 C459 1.261 . S
C464 C463 1.312 . S
C465 O437 1.214 . S
C465 O445 1.234 . S
C466 H438 0.929 . S
C466 C469 1.391 . S
C466 C471 1.391 . S
C467 H439 0.929 . S
C467 C468 1.390 . S
C467 N470 1.391 . S
C468 H440 0.930 1_655 S
C468 C467 1.390 . S
C468 C469 1.392 . S
C469 H441 0.929 1_655 S
C469 C466 1.391 . S
C469 C468 1.392 . S
N470 Co414 2.257 . S
N470 C467 1.391 . S
N470 C471 1.388 . S
C471 H442 0.930 . S
C471 C466 1.391 . S
C471 N470 1.388 . S
Co472 O474 2.143 . S
Co472 O480 2.074 . S
Co472 O483 2.093 . S
Co472 O496 2.097 . S
Co472 N513 2.151 . S
Co472 N521 2.214 . S
Co473 O474 2.160 . S
Co473 O479 2.058 . S
Co473 O489 2.057 . S
Co473 O504 2.037 . S
Co473 N508 2.145 . S
Co473 N529 2.257 . S
O474 Co472 2.143 . S
O474 Co473 2.160 . S
C475 O476 1.278 . S
C475 O483 1.224 . S
O476 C475 1.278 . S
C477 O478 1.245 . S
C477 O489 1.232 . S
O478 C477 1.245 . S
O479 Co473 2.058 . S
O479 C505 1.269 . S
O480 Co472 2.074 . S
O480 C505 1.257 . S
H481 C506 0.930 . S
H482 C512 0.930 . S
O483 Co472 2.093 . S
O483 C475 1.224 . S
H484 C516 0.929 . S
H485 C518 0.930 . S
H486 C519 0.930 . S
H487 C517 0.929 . S
H488 C520 0.928 . S
O489 Co473 2.057 . S
O489 C477 1.232 . S
H490 C509 0.929 . S
H491 C510 0.929 . S
H492 C522 0.931 . S
H493 C514 0.929 . S
H494 C523 0.930 . S
H495 C515 0.931 . S
O496 Co472 2.097 . S
O496 C524 1.214 . S
H497 C525 0.929 . S
H498 C526 0.929 . S
H499 C527 0.930 . S
H500 C528 0.929 . S
H501 C530 0.930 . S
H502 C507 0.930 . S
H503 C511 0.930 . S
O504 Co473 2.037 . S
O504 C524 1.234 . S
C505 O479 1.269 . S
C505 O480 1.257 . S
C506 H481 0.930 . S
C506 C509 1.388 . S
C506 C511 1.418 . S
C507 H502 0.930 . S
C507 C510 1.404 . S
C507 C511 1.353 . S
N508 Co473 2.145 . S
N508 C509 1.397 . S
N508 C510 1.334 . S
C509 H490 0.929 . S
C509 C506 1.388 . S
C509 N508 1.397 . S
C510 H491 0.929 . S
C510 C507 1.404 . S
C510 N508 1.334 . S
C511 H503 0.930 . S
C511 C506 1.418 . S
C511 C507 1.353 . S
C512 H482 0.930 . S
C512 N513 1.330 . S
C512 C514 1.446 . S
N513 Co472 2.151 . S
N513 C512 1.330 . S
N513 C517 1.418 . S
C514 H493 0.929 . S
C514 C512 1.446 . S
C514 C515 1.332 . S
C515 H495 0.931 . S
C515 C514 1.332 . S
C515 C516 1.267 . S
C516 H484 0.929 . S
C516 C515 1.267 . S
C516 C517 1.251 . S
C517 H487 0.929 . S
C517 N513 1.418 . S
C517 C516 1.251 . S
C518 H485 0.930 . S
C518 C520 1.406 . S
C518 C523 1.261 . S
C519 H486 0.930 . S
C519 N521 1.325 . S
C519 C522 1.357 . S
C520 H488 0.928 . S
C520 C518 1.406 . S
C520 N521 1.261 . S
N521 Co472 2.214 . S
N521 C519 1.325 . S
N521 C520 1.261 . S
C522 H492 0.931 . S
C522 C519 1.357 . S
C522 C523 1.312 . S
C523 H494 0.930 . S
C523 C518 1.261 . S
C523 C522 1.312 . S
C524 O496 1.214 . S
C524 O504 1.234 . S
C525 H497 0.929 . S
C525 C528 1.391 . S
C525 C530 1.391 . S
C526 H498 0.929 . S
C526 C527 1.390 . S
C526 N529 1.391 . S
C527 H499 0.930 . S
C527 C526 1.390 . S
C527 C528 1.392 . S
C528 H500 0.929 . S
C528 C525 1.391 . S
C528 C527 1.392 . S
N529 Co473 2.257 . S
N529 C526 1.391 . S
N529 C530 1.388 . S
C530 H501 0.930 . S
C530 C525 1.391 . S
C530 N529 1.388 . S
Co531 O533 2.143 . S
Co531 O539 2.074 . S
Co531 O542 2.098 . S
Co531 O555 2.097 . S
Co531 N572 2.151 . S
Co531 N580 2.214 . S
Co532 O533 2.160 . S
Co532 O538 2.058 . S
Co532 O548 2.057 . S
Co532 O563 2.037 . S
Co532 N567 2.145 . S
Co532 N588 2.257 . S
O533 Co531 2.143 . S
O533 Co532 2.160 . S
C534 O535 1.278 . S
C534 O542 1.221 1_556 S
O535 C534 1.278 . S
C536 O537 1.245 . S
C536 O548 1.232 . S
O537 C536 1.245 . S
O538 Co532 2.058 . S
O538 C564 1.269 . S
O539 Co531 2.074 . S
O539 C564 1.257 . S
H540 C565 0.930 . S
H541 C571 0.930 . S
O542 Co531 2.098 . S
O542 C534 1.221 1_554 S
H543 C575 0.929 . S
H544 C577 0.930 . S
H545 C578 0.930 . S
H546 C576 0.929 . S
H547 C579 0.928 . S
O548 Co532 2.057 . S
O548 C536 1.232 . S
H549 C568 0.929 . S
H550 C569 0.929 . S
H551 C581 0.931 . S
H552 C573 0.929 . S
H553 C582 0.930 . S
H554 C574 0.931 . S
O555 Co531 2.097 . S
O555 C583 1.214 . S
H556 C584 0.929 . S
H557 C585 0.929 . S
H558 C586 0.930 . S
H559 C587 0.929 . S
H560 C589 0.930 . S
H561 C566 0.930 . S
H562 C570 0.930 . S
O563 Co532 2.037 . S
O563 C583 1.234 . S
C564 O538 1.269 . S
C564 O539 1.257 . S
C565 H540 0.930 . S
C565 C568 1.388 . S
C565 C570 1.418 . S
C566 H561 0.930 . S
C566 C569 1.404 . S
C566 C570 1.353 . S
N567 Co532 2.145 . S
N567 C568 1.397 . S
N567 C569 1.334 . S
C568 H549 0.929 . S
C568 C565 1.388 . S
C568 N567 1.397 . S
C569 H550 0.929 . S
C569 C566 1.404 . S
C569 N567 1.334 . S
C570 H562 0.930 . S
C570 C565 1.418 . S
C570 C566 1.353 . S
C571 H541 0.930 . S
C571 N572 1.330 . S
C571 C573 1.446 . S
N572 Co531 2.151 . S
N572 C571 1.330 . S
N572 C576 1.418 . S
C573 H552 0.929 . S
C573 C571 1.446 . S
C573 C574 1.332 . S
C574 H554 0.931 . S
C574 C573 1.332 . S
C574 C575 1.267 . S
C575 H543 0.929 . S
C575 C574 1.267 . S
C575 C576 1.251 . S
C576 H546 0.929 . S
C576 N572 1.418 . S
C576 C575 1.251 . S
C577 H544 0.930 . S
C577 C579 1.406 . S
C577 C582 1.261 . S
C578 H545 0.930 . S
C578 N580 1.325 . S
C578 C581 1.357 . S
C579 H547 0.928 . S
C579 C577 1.406 . S
C579 N580 1.261 . S
N580 Co531 2.214 . S
N580 C578 1.325 . S
N580 C579 1.261 . S
C581 H551 0.931 . S
C581 C578 1.357 . S
C581 C582 1.312 . S
C582 H553 0.930 . S
C582 C577 1.261 . S
C582 C581 1.312 . S
C583 O555 1.214 . S
C583 O563 1.234 . S
C584 H556 0.929 . S
C584 C587 1.391 . S
C584 C589 1.391 1_556 S
C585 H557 0.929 . S
C585 C586 1.390 . S
C585 N588 1.391 . S
C586 H558 0.930 . S
C586 C585 1.390 . S
C586 C587 1.392 1_554 S
C587 H559 0.929 . S
C587 C584 1.391 . S
C587 C586 1.392 1_556 S
N588 Co532 2.257 . S
N588 C585 1.391 . S
N588 C589 1.388 . S
C589 H560 0.930 . S
C589 C584 1.391 1_554 S
C589 N588 1.388 . S
Co590 O592 2.143 . S
Co590 O598 2.074 . S
Co590 O601 2.093 . S
Co590 O614 2.097 . S
Co590 N631 2.151 . S
Co590 N639 2.214 . S
Co591 O592 2.160 . S
Co591 O597 2.058 . S
Co591 O607 2.057 . S
Co591 O622 2.037 . S
Co591 N626 2.145 . S
Co591 N647 2.257 . S
O592 Co590 2.143 . S
O592 Co591 2.160 . S
C593 O594 1.278 . S
C593 O601 1.224 . S
O594 C593 1.278 . S
C595 O596 1.245 . S
C595 O607 1.232 . S
O596 C595 1.245 . S
O597 Co591 2.058 . S
O597 C623 1.269 . S
O598 Co590 2.074 . S
O598 C623 1.257 . S
H599 C624 0.930 . S
H600 C630 0.930 . S
O601 Co590 2.093 . S
O601 C593 1.224 . S
H602 C634 0.929 . S
H603 C636 0.930 . S
H604 C637 0.930 . S
H605 C635 0.929 . S
H606 C638 0.928 . S
O607 Co591 2.057 . S
O607 C595 1.232 . S
H608 C627 0.929 . S
H609 C628 0.929 . S
H610 C640 0.931 . S
H611 C632 0.929 . S
H612 C641 0.930 . S
H613 C633 0.931 . S
O614 Co590 2.097 . S
O614 C642 1.214 . S
H615 C643 0.929 . S
H616 C644 0.929 . S
H617 C645 0.930 1_545 S
H618 C646 0.929 1_545 S
H619 C648 0.930 . S
H620 C625 0.930 . S
H621 C629 0.930 . S
O622 Co591 2.037 . S
O622 C642 1.234 . S
C623 O597 1.269 . S
C623 O598 1.257 . S
C624 H599 0.930 . S
C624 C627 1.388 . S
C624 C629 1.418 1_565 S
C625 H620 0.930 . S
C625 C628 1.404 . S
C625 C629 1.353 1_565 S
N626 Co591 2.145 . S
N626 C627 1.397 . S
N626 C628 1.334 . S
C627 H608 0.929 . S
C627 C624 1.388 . S
C627 N626 1.397 . S
C628 H609 0.929 . S
C628 C625 1.404 . S
C628 N626 1.334 . S
C629 H621 0.930 . S
C629 C624 1.418 1_545 S
C629 C625 1.353 1_545 S
C630 H600 0.930 . S
C630 N631 1.330 . S
C630 C632 1.446 . S
N631 Co590 2.151 . S
N631 C630 1.330 . S
N631 C635 1.418 . S
C632 H611 0.929 . S
C632 C630 1.446 . S
C632 C633 1.332 . S
C633 H613 0.931 . S
C633 C632 1.332 . S
C633 C634 1.267 . S
C634 H602 0.929 . S
C634 C633 1.267 . S
C634 C635 1.251 . S
C635 H605 0.929 . S
C635 N631 1.418 . S
C635 C634 1.251 . S
C636 H603 0.930 . S
C636 C638 1.406 . S
C636 C641 1.261 . S
C637 H604 0.930 . S
C637 N639 1.325 . S
C637 C640 1.357 . S
C638 H606 0.928 . S
C638 C636 1.406 . S
C638 N639 1.261 . S
N639 Co590 2.214 . S
N639 C637 1.325 . S
N639 C638 1.261 . S
C640 H610 0.931 . S
C640 C637 1.357 . S
C640 C641 1.312 . S
C641 H612 0.930 . S
C641 C636 1.261 . S
C641 C640 1.312 . S
C642 O614 1.214 . S
C642 O622 1.234 . S
C643 H615 0.929 . S
C643 C646 1.391 . S
C643 C648 1.391 . S
C644 H616 0.929 . S
C644 C645 1.390 . S
C644 N647 1.391 . S
C645 H617 0.930 1_565 S
C645 C644 1.390 . S
C645 C646 1.392 . S
C646 H618 0.929 1_565 S
C646 C643 1.391 . S
C646 C645 1.392 . S
N647 Co591 2.257 . S
N647 C644 1.391 . S
N647 C648 1.388 . S
C648 H619 0.930 . S
C648 C643 1.391 . S
C648 N647 1.388 . S
Co649 O651 2.143 . S
Co649 O657 2.074 . S
Co649 O660 2.093 . S
Co649 O673 2.097 . S
Co649 N690 2.151 . S
Co649 N698 2.214 . S
Co650 O651 2.160 . S
Co650 O656 2.058 . S
Co650 O666 2.057 . S
Co650 O681 2.037 . S
Co650 N685 2.145 . S
Co650 N706 2.257 . S
O651 Co649 2.143 . S
O651 Co650 2.160 . S
C652 O653 1.278 . S
C652 O660 1.224 . S
O653 C652 1.278 . S
C654 O655 1.245 . S
C654 O666 1.232 . S
O655 C654 1.245 . S
O656 Co650 2.058 . S
O656 C682 1.269 . S
O657 Co649 2.074 . S
O657 C682 1.257 . S
H658 C683 0.930 . S
H659 C689 0.930 . S
O660 Co649 2.093 . S
O660 C652 1.224 . S
H661 C693 0.929 . S
H662 C695 0.930 . S
H663 C696 0.930 . S
H664 C694 0.929 . S
H665 C697 0.928 . S
O666 Co650 2.057 . S
O666 C654 1.232 . S
H667 C686 0.929 . S
H668 C687 0.929 . S
H669 C699 0.931 . S
H670 C691 0.929 . S
H671 C700 0.930 . S
H672 C692 0.931 . S
O673 Co649 2.097 . S
O673 C701 1.214 . S
H674 C702 0.929 . S
H675 C703 0.929 . S
H676 C704 0.930 1_655 S
H677 C705 0.929 1_655 S
H678 C707 0.930 . S
H679 C684 0.930 . S
H680 C688 0.930 . S
O681 Co650 2.037 . S
O681 C701 1.234 . S
C682 O656 1.269 . S
C682 O657 1.257 . S
C683 H658 0.930 . S
C683 C686 1.388 . S
C683 C688 1.418 1_455 S
C684 H679 0.930 . S
C684 C687 1.404 . S
C684 C688 1.353 1_455 S
N685 Co650 2.145 . S
N685 C686 1.397 . S
N685 C687 1.334 . S
C686 H667 0.929 . S
C686 C683 1.388 . S
C686 N685 1.397 . S
C687 H668 0.929 . S
C687 C684 1.404 . S
C687 N685 1.334 . S
C688 H680 0.930 . S
C688 C683 1.418 1_655 S
C688 C684 1.353 1_655 S
C689 H659 0.930 . S
C689 N690 1.330 . S
C689 C691 1.446 . S
N690 Co649 2.151 . S
N690 C689 1.330 . S
N690 C694 1.418 . S
C691 H670 0.929 . S
C691 C689 1.446 . S
C691 C692 1.332 . S
C692 H672 0.931 . S
C692 C691 1.332 . S
C692 C693 1.267 . S
C693 H661 0.929 . S
C693 C692 1.267 . S
C693 C694 1.251 . S
C694 H664 0.929 . S
C694 N690 1.418 . S
C694 C693 1.251 . S
C695 H662 0.930 . S
C695 C697 1.406 . S
C695 C700 1.261 . S
C696 H663 0.930 . S
C696 N698 1.325 . S
C696 C699 1.357 . S
C697 H665 0.928 . S
C697 C695 1.406 . S
C697 N698 1.261 . S
N698 Co649 2.214 . S
N698 C696 1.325 . S
N698 C697 1.261 . S
C699 H669 0.931 . S
C699 C696 1.357 . S
C699 C700 1.312 . S
C700 H671 0.930 . S
C700 C695 1.261 . S
C700 C699 1.312 . S
C701 O673 1.214 . S
C701 O681 1.234 . S
C702 H674 0.929 . S
C702 C705 1.391 . S
C702 C707 1.391 . S
C703 H675 0.929 . S
C703 C704 1.390 . S
C703 N706 1.391 . S
C704 H676 0.930 1_455 S
C704 C703 1.390 . S
C704 C705 1.392 . S
C705 H677 0.929 1_455 S
C705 C702 1.391 . S
C705 C704 1.392 . S
N706 Co650 2.257 . S
N706 C703 1.391 . S
N706 C707 1.388 . S
C707 H678 0.930 . S
C707 C702 1.391 . S
C707 N706 1.388 . S
Co708 O710 2.143 . S
Co708 O716 2.074 . S
Co708 O719 2.093 . S
Co708 O732 2.097 . S
Co708 N749 2.151 . S
Co708 N757 2.214 . S
Co709 O710 2.160 . S
Co709 O715 2.058 . S
Co709 O725 2.057 . S
Co709 O740 2.037 . S
Co709 N744 2.145 . S
Co709 N765 2.257 . S
O710 Co708 2.143 . S
O710 Co709 2.160 . S
C711 O712 1.278 . S
C711 O719 1.224 . S
O712 C711 1.278 . S
C713 O714 1.245 . S
C713 O725 1.232 . S
O714 C713 1.245 . S
O715 Co709 2.058 . S
O715 C741 1.269 . S
O716 Co708 2.074 . S
O716 C741 1.257 . S
H717 C742 0.930 . S
H718 C748 0.930 . S
O719 Co708 2.093 . S
O719 C711 1.224 . S
H720 C752 0.929 . S
H721 C754 0.930 . S
H722 C755 0.930 . S
H723 C753 0.929 . S
H724 C756 0.928 . S
O725 Co709 2.057 . S
O725 C713 1.232 . S
H726 C745 0.929 . S
H727 C746 0.929 . S
H728 C758 0.931 . S
H729 C750 0.929 . S
H730 C759 0.930 . S
H731 C751 0.931 . S
O732 Co708 2.097 . S
O732 C760 1.214 . S
H733 C761 0.929 . S
H734 C762 0.929 . S
H735 C763 0.930 1_545 S
H736 C764 0.929 1_545 S
H737 C766 0.930 . S
H738 C743 0.930 . S
H739 C747 0.930 . S
O740 Co709 2.037 . S
O740 C760 1.234 . S
C741 O715 1.269 . S
C741 O716 1.257 . S
C742 H717 0.930 . S
C742 C745 1.388 . S
C742 C747 1.418 1_565 S
C743 H738 0.930 . S
C743 C746 1.404 . S
C743 C747 1.353 1_565 S
N744 Co709 2.145 . S
N744 C745 1.397 . S
N744 C746 1.334 . S
C745 H726 0.929 . S
C745 C742 1.388 . S
C745 N744 1.397 . S
C746 H727 0.929 . S
C746 C743 1.404 . S
C746 N744 1.334 . S
C747 H739 0.930 . S
C747 C742 1.418 1_545 S
C747 C743 1.353 1_545 S
C748 H718 0.930 . S
C748 N749 1.330 . S
C748 C750 1.446 . S
N749 Co708 2.151 . S
N749 C748 1.330 . S
N749 C753 1.418 . S
C750 H729 0.929 . S
C750 C748 1.446 . S
C750 C751 1.332 . S
C751 H731 0.931 . S
C751 C750 1.332 . S
C751 C752 1.267 . S
C752 H720 0.929 . S
C752 C751 1.267 . S
C752 C753 1.251 . S
C753 H723 0.929 . S
C753 N749 1.418 . S
C753 C752 1.251 . S
C754 H721 0.930 . S
C754 C756 1.406 . S
C754 C759 1.261 . S
C755 H722 0.930 . S
C755 N757 1.325 . S
C755 C758 1.357 . S
C756 H724 0.928 . S
C756 C754 1.406 . S
C756 N757 1.261 . S
N757 Co708 2.214 . S
N757 C755 1.325 . S
N757 C756 1.261 . S
C758 H728 0.931 . S
C758 C755 1.357 . S
C758 C759 1.312 . S
C759 H730 0.930 . S
C759 C754 1.261 . S
C759 C758 1.312 . S
C760 O732 1.214 . S
C760 O740 1.234 . S
C761 H733 0.929 . S
C761 C764 1.391 . S
C761 C766 1.391 . S
C762 H734 0.929 . S
C762 C763 1.390 . S
C762 N765 1.391 . S
C763 H735 0.930 1_565 S
C763 C762 1.390 . S
C763 C764 1.392 . S
C764 H736 0.929 1_565 S
C764 C761 1.391 . S
C764 C763 1.392 . S
N765 Co709 2.257 . S
N765 C762 1.391 . S
N765 C766 1.388 . S
C766 H737 0.930 . S
C766 C761 1.391 . S
C766 N765 1.388 . S
Co767 O769 2.143 . S
Co767 O775 2.074 . S
Co767 O778 2.093 . S
Co767 O791 2.097 . S
Co767 N808 2.151 . S
Co767 N816 2.214 . S
Co768 O769 2.160 . S
Co768 O774 2.058 . S
Co768 O784 2.057 . S
Co768 O799 2.037 . S
Co768 N803 2.145 . S
Co768 N824 2.257 . S
O769 Co767 2.143 . S
O769 Co768 2.160 . S
C770 O771 1.278 . S
C770 O778 1.224 . S
O771 C770 1.278 . S
C772 O773 1.245 . S
C772 O784 1.232 . S
O773 C772 1.245 . S
O774 Co768 2.058 . S
O774 C800 1.269 . S
O775 Co767 2.074 . S
O775 C800 1.257 . S
H776 C801 0.930 . S
H777 C807 0.930 . S
O778 Co767 2.093 . S
O778 C770 1.224 . S
H779 C811 0.929 . S
H780 C813 0.930 . S
H781 C814 0.930 . S
H782 C812 0.929 . S
H783 C815 0.928 . S
O784 Co768 2.057 . S
O784 C772 1.232 . S
H785 C804 0.929 . S
H786 C805 0.929 . S
H787 C817 0.931 . S
H788 C809 0.929 . S
H789 C818 0.930 . S
H790 C810 0.931 . S
O791 Co767 2.097 . S
O791 C819 1.214 . S
H792 C820 0.929 . S
H793 C821 0.929 . S
H794 C822 0.930 1_655 S
H795 C823 0.929 1_655 S
H796 C825 0.930 . S
H797 C802 0.930 . S
H798 C806 0.930 . S
O799 Co768 2.037 . S
O799 C819 1.234 . S
C800 O774 1.269 . S
C800 O775 1.257 . S
C801 H776 0.930 . S
C801 C804 1.388 . S
C801 C806 1.418 1_455 S
C802 H797 0.930 . S
C802 C805 1.404 . S
C802 C806 1.353 1_455 S
N803 Co768 2.145 . S
N803 C804 1.397 . S
N803 C805 1.334 . S
C804 H785 0.929 . S
C804 C801 1.388 . S
C804 N803 1.397 . S
C805 H786 0.929 . S
C805 C802 1.404 . S
C805 N803 1.334 . S
C806 H798 0.930 . S
C806 C801 1.418 1_655 S
C806 C802 1.353 1_655 S
C807 H777 0.930 . S
C807 N808 1.330 . S
C807 C809 1.446 . S
N808 Co767 2.151 . S
N808 C807 1.330 . S
N808 C812 1.418 . S
C809 H788 0.929 . S
C809 C807 1.446 . S
C809 C810 1.332 . S
C810 H790 0.931 . S
C810 C809 1.332 . S
C810 C811 1.267 . S
C811 H779 0.929 . S
C811 C810 1.267 . S
C811 C812 1.251 . S
C812 H782 0.929 . S
C812 N808 1.418 . S
C812 C811 1.251 . S
C813 H780 0.930 . S
C813 C815 1.406 . S
C813 C818 1.261 . S
C814 H781 0.930 . S
C814 N816 1.325 . S
C814 C817 1.357 . S
C815 H783 0.928 . S
C815 C813 1.406 . S
C815 N816 1.261 . S
N816 Co767 2.214 . S
N816 C814 1.325 . S
N816 C815 1.261 . S
C817 H787 0.931 . S
C817 C814 1.357 . S
C817 C818 1.312 . S
C818 H789 0.930 . S
C818 C813 1.261 . S
C818 C817 1.312 . S
C819 O791 1.214 . S
C819 O799 1.234 . S
C820 H792 0.929 . S
C820 C823 1.391 . S
C820 C825 1.391 . S
C821 H793 0.929 . S
C821 C822 1.390 . S
C821 N824 1.391 . S
C822 H794 0.930 1_455 S
C822 C821 1.390 . S
C822 C823 1.392 . S
C823 H795 0.929 1_455 S
C823 C820 1.391 . S
C823 C822 1.392 . S
N824 Co768 2.257 . S
N824 C821 1.391 . S
N824 C825 1.388 . S
C825 H796 0.930 . S
C825 C820 1.391 . S
C825 N824 1.388 . S
Co826 O828 2.143 . S
Co826 O834 2.074 1_554 S
Co826 O837 2.093 . S
Co826 O850 2.097 . S
Co826 N867 2.151 . S
Co826 N875 2.214 . S
Co827 O828 2.160 1_556 S
Co827 O833 2.058 . S
Co827 O843 2.057 . S
Co827 O858 2.037 . S
Co827 N862 2.145 . S
Co827 N883 2.257 1_556 S
O828 Co826 2.143 . S
O828 Co827 2.160 1_554 S
C829 O830 1.278 . S
C829 O837 1.224 . S
O830 C829 1.278 . S
C831 O832 1.245 1_556 S
C831 O843 1.232 . S
O832 C831 1.245 1_554 S
O833 Co827 2.058 . S
O833 C859 1.269 . S
O834 Co826 2.074 1_556 S
O834 C859 1.257 . S
H835 C860 0.930 . S
H836 C866 0.930 . S
O837 Co826 2.093 . S
O837 C829 1.224 . S
H838 C870 0.943 . S
H839 C872 0.930 . S
H840 C873 0.930 1_556 S
H841 C871 0.949 . S
H842 C874 0.928 . S
O843 Co827 2.057 . S
O843 C831 1.232 . S
H844 C863 0.929 . S
H845 C864 0.929 . S
H846 C876 0.931 . S
H847 C868 0.929 . S
H848 C877 0.930 . S
H849 C869 0.931 . S
O850 Co826 2.097 . S
O850 C878 1.214 . S
H851 C879 0.929 . S
H852 C880 0.929 . S
H853 C881 0.930 . S
H854 C882 0.929 . S
H855 C884 0.930 . S
H856 C861 0.930 . S
H857 C865 0.930 . S
O858 Co827 2.037 . S
O858 C878 1.234 1_556 S
C859 O833 1.269 . S
C859 O834 1.257 . S
C860 H835 0.930 . S
C860 C863 1.388 . S
C860 C865 1.418 . S
C861 H856 0.930 . S
C861 C864 1.404 . S
C861 C865 1.353 . S
N862 Co827 2.145 . S
N862 C863 1.397 . S
N862 C864 1.334 . S
C863 H844 0.929 . S
C863 C860 1.388 . S
C863 N862 1.397 . S
C864 H845 0.929 . S
C864 C861 1.404 . S
C864 N862 1.334 . S
C865 H857 0.930 . S
C865 C860 1.418 . S
C865 C861 1.353 . S
C866 H836 0.930 . S
C866 N867 1.330 . S
C866 C868 1.446 . S
N867 Co826 2.151 . S
N867 C866 1.330 . S
N867 C871 1.399 1_554 S
C868 H847 0.929 . S
C868 C866 1.446 . S
C868 C869 1.332 . S
C869 H849 0.931 . S
C869 C868 1.332 . S
C869 C870 1.254 1_554 S
C870 H838 0.943 . S
C870 C869 1.254 1_556 S
C870 C871 1.251 . S
C871 H841 0.949 . S
C871 N867 1.399 1_556 S
C871 C870 1.251 . S
C872 H839 0.930 . S
C872 C874 1.406 . S
C872 C877 1.261 . S
C873 H840 0.930 1_554 S
C873 N875 1.325 . S
C873 C876 1.357 1_554 S
C874 H842 0.928 . S
C874 C872 1.406 . S
C874 N875 1.261 . S
N875 Co826 2.214 . S
N875 C873 1.325 . S
N875 C874 1.261 . S
C876 H846 0.931 . S
C876 C873 1.357 1_556 S
C876 C877 1.312 1_556 S
C877 H848 0.930 . S
C877 C872 1.261 . S
C877 C876 1.312 1_554 S
C878 O850 1.214 . S
C878 O858 1.234 1_554 S
C879 H851 0.929 . S
C879 C882 1.391 . S
C879 C884 1.391 . S
C880 H852 0.929 . S
C880 C881 1.390 . S
C880 N883 1.391 . S
C881 H853 0.930 . S
C881 C880 1.390 . S
C881 C882 1.392 . S
C882 H854 0.929 . S
C882 C879 1.391 . S
C882 C881 1.392 . S
N883 Co827 2.257 1_554 S
N883 C880 1.391 . S
N883 C884 1.388 . S
C884 H855 0.930 . S
C884 C879 1.391 . S
C884 N883 1.388 . S
Co885 O887 2.143 . S
Co885 O893 2.074 . S
Co885 O896 2.093 . S
Co885 O909 2.097 . S
Co885 N926 2.151 . S
Co885 N934 2.214 . S
Co886 O887 2.160 . S
Co886 O892 2.058 . S
Co886 O902 2.057 . S
Co886 O917 2.037 . S
Co886 N921 2.145 . S
Co886 N942 2.257 . S
O887 Co885 2.143 . S
O887 Co886 2.160 . S
C888 O889 1.278 . S
C888 O896 1.224 . S
O889 C888 1.278 . S
C890 O891 1.245 . S
C890 O902 1.232 . S
O891 C890 1.245 . S
O892 Co886 2.058 . S
O892 C918 1.269 . S
O893 Co885 2.074 . S
O893 C918 1.257 . S
H894 C919 0.930 . S
H895 C925 0.930 . S
O896 Co885 2.093 . S
O896 C888 1.224 . S
H897 C929 0.929 . S
H898 C931 0.930 . S
H899 C932 0.930 . S
H900 C930 0.929 . S
H901 C933 0.928 . S
O902 Co886 2.057 . S
O902 C890 1.232 . S
H903 C922 0.929 . S
H904 C923 0.929 . S
H905 C935 0.931 . S
H906 C927 0.929 . S
H907 C936 0.930 . S
H908 C928 0.931 . S
O909 Co885 2.097 . S
O909 C937 1.214 . S
H910 C938 0.929 . S
H911 C939 0.929 . S
H912 C940 0.930 . S
H913 C941 0.929 . S
H914 C943 0.930 . S
H915 C920 0.930 . S
H916 C924 0.930 . S
O917 Co886 2.037 . S
O917 C937 1.234 . S
C918 O892 1.269 . S
C918 O893 1.257 . S
C919 H894 0.930 . S
C919 C922 1.388 . S
C919 C924 1.418 . S
C920 H915 0.930 . S
C920 C923 1.404 . S
C920 C924 1.353 . S
N921 Co886 2.145 . S
N921 C922 1.397 . S
N921 C923 1.334 . S
C922 H903 0.929 . S
C922 C919 1.388 . S
C922 N921 1.397 . S
C923 H904 0.929 . S
C923 C920 1.404 . S
C923 N921 1.334 . S
C924 H916 0.930 . S
C924 C919 1.418 . S
C924 C920 1.353 . S
C925 H895 0.930 . S
C925 N926 1.330 . S
C925 C927 1.446 . S
N926 Co885 2.151 . S
N926 C925 1.330 . S
N926 C930 1.418 . S
C927 H906 0.929 . S
C927 C925 1.446 . S
C927 C928 1.332 . S
C928 H908 0.931 . S
C928 C927 1.332 . S
C928 C929 1.267 . S
C929 H897 0.929 . S
C929 C928 1.267 . S
C929 C930 1.251 . S
C930 H900 0.929 . S
C930 N926 1.418 . S
C930 C929 1.251 . S
C931 H898 0.930 . S
C931 C933 1.406 . S
C931 C936 1.261 . S
C932 H899 0.930 . S
C932 N934 1.325 . S
C932 C935 1.357 . S
C933 H901 0.928 . S
C933 C931 1.406 . S
C933 N934 1.261 . S
N934 Co885 2.214 . S
N934 C932 1.325 . S
N934 C933 1.261 . S
C935 H905 0.931 . S
C935 C932 1.357 . S
C935 C936 1.312 . S
C936 H907 0.930 . S
C936 C931 1.261 . S
C936 C935 1.312 . S
C937 O909 1.214 . S
C937 O917 1.234 . S
C938 H910 0.929 . S
C938 C941 1.391 . S
C938 C943 1.391 . S
C939 H911 0.929 . S
C939 C940 1.390 . S
C939 N942 1.391 . S
C940 H912 0.930 . S
C940 C939 1.390 . S
C940 C941 1.392 . S
C941 H913 0.929 . S
C941 C938 1.391 . S
C941 C940 1.392 . S
N942 Co886 2.257 . S
N942 C939 1.391 . S
N942 C943 1.388 . S
C943 H914 0.930 . S
C943 C938 1.391 . S
C943 N942 1.388 . S
C944 C945 1.349 . S
C944 C946 1.327 . S
C944 H969 0.950 . S
C945 C944 1.349 . S
C945 C961 1.349 . S
C946 C944 1.327 . S
C946 C965 1.429 . S
C946 H970 0.950 . S
C947 C964 1.574 . S
C947 C966 1.368 . S
C947 H971 0.949 . S
H948 C952 0.949 . S
C949 C950 1.349 . S
C949 C951 1.327 . S
C949 H972 0.950 . S
C950 C949 1.349 . S
C950 C962 1.349 . S
C951 C949 1.327 . S
C951 C967 1.429 . S
C951 H973 0.950 . S
C952 H948 0.949 . S
C952 C960 1.574 . S
C952 C968 1.368 . S
H953 C961 0.950 . S
H954 C959 0.950 . S
H955 C960 0.949 . S
H956 C962 0.950 . S
H957 C963 0.950 . S
H958 C964 0.949 . S
C959 H954 0.950 . S
C959 C961 1.327 . S
C959 C965 1.429 . S
C960 C952 1.574 . S
C960 H955 0.949 . S
C960 C966 1.368 . S
C961 C945 1.349 . S
C961 H953 0.950 . S
C961 C959 1.327 . S
C962 C950 1.349 . S
C962 H956 0.950 . S
C962 C963 1.327 . S
C963 H957 0.950 . S
C963 C962 1.327 . S
C963 C967 1.429 . S
C964 C947 1.574 . S
C964 H958 0.949 . S
C964 C968 1.368 . S
C965 C946 1.429 . S
C965 C959 1.429 . S
C965 C966 1.523 . S
C966 C947 1.368 . S
C966 C960 1.368 . S
C966 C965 1.523 . S
C967 C951 1.429 . S
C967 C963 1.429 . S
C967 C968 1.523 . S
C968 C952 1.368 . S
C968 C964 1.368 . S
C968 C967 1.523 . S
H969 C944 0.950 . S
H970 C946 0.950 . S
H971 C947 0.949 . S
H972 C949 0.950 . S
H973 C951 0.950 . S
C974 C975 1.349 . S
C974 C976 1.327 . S
C974 H999 0.950 . S
C975 C974 1.349 . S
C975 C991 1.349 . S
C976 C974 1.327 . S
C976 C995 1.429 . S
C976 H1000 0.950 . S
C977 C994 1.574 . S
C977 C996 1.368 . S
C977 H1001 0.949 . S
H978 C982 0.949 . S
C979 C980 1.349 . S
C979 C981 1.327 . S
C979 H1002 0.950 . S
C980 C979 1.349 . S
C980 C992 1.349 . S
C981 C979 1.327 . S
C981 C997 1.429 . S
C981 H1003 0.950 . S
C982 H978 0.949 . S
C982 C990 1.574 . S
C982 C998 1.368 . S
H983 C991 0.950 . S
H984 C989 0.950 . S
H985 C990 0.949 . S
H986 C992 0.950 . S
H987 C993 0.950 . S
H988 C994 0.949 . S
C989 H984 0.950 . S
C989 C991 1.327 . S
C989 C995 1.429 . S
C990 C982 1.574 . S
C990 H985 0.949 . S
C990 C996 1.368 . S
C991 C975 1.349 . S
C991 H983 0.950 . S
C991 C989 1.327 . S
C992 C980 1.349 . S
C992 H986 0.950 . S
C992 C993 1.327 . S
C993 H987 0.950 . S
C993 C992 1.327 . S
C993 C997 1.429 . S
C994 C977 1.574 . S
C994 H988 0.949 . S
C994 C998 1.368 . S
C995 C976 1.429 . S
C995 C989 1.429 . S
C995 C996 1.523 . S
C996 C977 1.368 . S
C996 C990 1.368 . S
C996 C995 1.523 . S
C997 C981 1.429 . S
C997 C993 1.429 . S
C997 C998 1.523 . S
C998 C982 1.368 . S
C998 C994 1.368 . S
C998 C997 1.523 . S
H999 C974 0.950 . S
H1000 C976 0.950 . S
H1001 C977 0.949 . S
H1002 C979 0.950 . S
H1003 C981 0.950 . S
C1004 C1005 1.349 . S
C1004 C1006 1.327 . S
C1004 H1029 0.950 . S
C1005 C1004 1.349 . S
C1005 C1021 1.349 . S
C1006 C1004 1.327 . S
C1006 C1025 1.429 . S
C1006 H1030 0.950 . S
C1007 C1024 1.574 . S
C1007 C1026 1.368 . S
C1007 H1031 0.949 . S
H1008 C1012 0.949 . S
C1009 C1010 1.349 . S
C1009 C1011 1.327 . S
C1009 H1032 0.950 1_556 S
C1010 C1009 1.349 . S
C1010 C1022 1.349 . S
C1011 C1009 1.327 . S
C1011 C1027 1.429 . S
C1011 H1033 0.950 . S
C1012 H1008 0.949 . S
C1012 C1020 1.574 . S
C1012 C1028 1.368 . S
H1013 C1021 0.950 . S
H1014 C1019 0.950 . S
H1015 C1020 0.949 . S
H1016 C1022 0.950 . S
H1017 C1023 0.950 . S
H1018 C1024 0.949 . S
C1019 H1014 0.950 . S
C1019 C1021 1.327 . S
C1019 C1025 1.429 . S
C1020 C1012 1.574 . S
C1020 H1015 0.949 . S
C1020 C1026 1.368 . S
C1021 C1005 1.349 . S
C1021 H1013 0.950 . S
C1021 C1019 1.327 . S
C1022 C1010 1.349 . S
C1022 H1016 0.950 . S
C1022 C1023 1.327 . S
C1023 H1017 0.950 . S
C1023 C1022 1.327 . S
C1023 C1027 1.429 . S
C1024 C1007 1.574 . S
C1024 H1018 0.949 . S
C1024 C1028 1.368 . S
C1025 C1006 1.429 . S
C1025 C1019 1.429 . S
C1025 C1026 1.523 . S
C1026 C1007 1.368 . S
C1026 C1020 1.368 . S
C1026 C1025 1.523 . S
C1027 C1011 1.429 . S
C1027 C1023 1.429 . S
C1027 C1028 1.523 . S
C1028 C1012 1.368 . S
C1028 C1024 1.368 . S
C1028 C1027 1.523 . S
H1029 C1004 0.950 . S
H1030 C1006 0.950 . S
H1031 C1007 0.949 . S
H1032 C1009 0.950 1_554 S
H1033 C1011 0.950 . S
C1034 C1035 1.349 . S
C1034 C1036 1.327 . S
C1034 H1059 0.950 . S
C1035 C1034 1.349 . S
C1035 C1051 1.349 . S
C1036 C1034 1.327 . S
C1036 C1055 1.429 . S
C1036 H1060 0.950 . S
C1037 C1054 1.574 . S
C1037 C1056 1.368 . S
C1037 H1061 0.949 . S
H1038 C1042 0.949 . S
C1039 C1040 1.349 . S
C1039 C1041 1.327 . S
C1039 H1062 0.950 . S
C1040 C1039 1.349 . S
C1040 C1052 1.349 . S
C1041 C1039 1.327 . S
C1041 C1057 1.429 . S
C1041 H1063 0.950 . S
C1042 H1038 0.949 . S
C1042 C1050 1.574 . S
C1042 C1058 1.368 . S
H1043 C1051 0.950 . S
H1044 C1049 0.950 . S
H1045 C1050 0.949 . S
H1046 C1052 0.950 . S
H1047 C1053 0.950 . S
H1048 C1054 0.949 . S
C1049 H1044 0.950 . S
C1049 C1051 1.327 . S
C1049 C1055 1.429 . S
C1050 C1042 1.574 . S
C1050 H1045 0.949 . S
C1050 C1056 1.368 . S
C1051 C1035 1.349 . S
C1051 H1043 0.950 . S
C1051 C1049 1.327 . S
C1052 C1040 1.349 . S
C1052 H1046 0.950 . S
C1052 C1053 1.327 . S
C1053 H1047 0.950 . S
C1053 C1052 1.327 . S
C1053 C1057 1.429 . S
C1054 C1037 1.574 . S
C1054 H1048 0.949 . S
C1054 C1058 1.368 . S
C1055 C1036 1.429 . S
C1055 C1049 1.429 . S
C1055 C1056 1.523 . S
C1056 C1037 1.368 . S
C1056 C1050 1.368 . S
C1056 C1055 1.523 . S
C1057 C1041 1.429 . S
C1057 C1053 1.429 . S
C1057 C1058 1.523 . S
C1058 C1042 1.368 . S
C1058 C1054 1.368 . S
C1058 C1057 1.523 . S
H1059 C1034 0.950 . S
H1060 C1036 0.950 . S
H1061 C1037 0.949 . S
H1062 C1039 0.950 . S
H1063 C1041 0.950 . S
C1064 C1065 1.349 . S
C1064 C1066 1.327 . S
C1064 H1089 0.950 . S
C1065 C1064 1.349 . S
C1065 C1081 1.349 . S
C1066 C1064 1.327 . S
C1066 C1085 1.429 . S
C1066 H1090 0.950 . S
C1067 C1084 1.574 . S
C1067 C1086 1.368 . S
C1067 H1091 0.949 . S
H1068 C1072 0.949 . S
C1069 C1070 1.349 . S
C1069 C1071 1.327 . S
C1069 H1092 0.950 1_556 S
C1070 C1069 1.349 . S
C1070 C1082 1.349 . S
C1071 C1069 1.327 . S
C1071 C1087 1.429 . S
C1071 H1093 0.950 . S
C1072 H1068 0.949 . S
C1072 C1080 1.574 . S
C1072 C1088 1.368 . S
H1073 C1081 0.950 . S
H1074 C1079 0.950 . S
H1075 C1080 0.949 . S
H1076 C1082 0.950 . S
H1077 C1083 0.950 . S
H1078 C1084 0.949 . S
C1079 H1074 0.950 . S
C1079 C1081 1.327 . S
C1079 C1085 1.429 . S
C1080 C1072 1.574 . S
C1080 H1075 0.949 . S
C1080 C1086 1.368 . S
C1081 C1065 1.349 . S
C1081 H1073 0.950 . S
C1081 C1079 1.327 . S
C1082 C1070 1.349 . S
C1082 H1076 0.950 . S
C1082 C1083 1.327 . S
C1083 H1077 0.950 . S
C1083 C1082 1.327 . S
C1083 C1087 1.429 . S
C1084 C1067 1.574 . S
C1084 H1078 0.949 . S
C1084 C1088 1.368 . S
C1085 C1066 1.429 . S
C1085 C1079 1.429 . S
C1085 C1086 1.523 . S
C1086 C1067 1.368 . S
C1086 C1080 1.368 . S
C1086 C1085 1.523 . S
C1087 C1071 1.429 . S
C1087 C1083 1.429 . S
C1087 C1088 1.523 . S
C1088 C1072 1.368 . S
C1088 C1084 1.368 . S
C1088 C1087 1.523 . S
H1089 C1064 0.950 . S
H1090 C1066 0.950 . S
H1091 C1067 0.949 . S
H1092 C1069 0.950 1_554 S
H1093 C1071 0.950 . S
C1094 C1095 1.349 . S
C1094 C1096 1.327 . S
C1094 H1119 0.950 . S
C1095 C1094 1.349 . S
C1095 C1111 1.349 . S
C1096 C1094 1.327 . S
C1096 C1115 1.429 . S
C1096 H1120 0.950 . S
C1097 C1114 1.574 . S
C1097 C1116 1.368 . S
C1097 H1121 0.949 . S
H1098 C1102 0.949 . S
C1099 C1100 1.349 . S
C1099 C1101 1.327 . S
C1099 H1122 0.950 . S
C1100 C1099 1.349 . S
C1100 C1112 1.349 . S
C1101 C1099 1.327 . S
C1101 C1117 1.429 . S
C1101 H1123 0.950 . S
C1102 H1098 0.949 . S
C1102 C1110 1.574 . S
C1102 C1118 1.368 . S
H1103 C1111 0.950 . S
H1104 C1109 0.950 . S
H1105 C1110 0.949 . S
H1106 C1112 0.950 . S
H1107 C1113 0.950 . S
H1108 C1114 0.949 . S
C1109 H1104 0.950 . S
C1109 C1111 1.327 . S
C1109 C1115 1.429 . S
C1110 C1102 1.574 . S
C1110 H1105 0.949 . S
C1110 C1116 1.368 . S
C1111 C1095 1.349 . S
C1111 H1103 0.950 . S
C1111 C1109 1.327 . S
C1112 C1100 1.349 . S
C1112 H1106 0.950 . S
C1112 C1113 1.327 . S
C1113 H1107 0.950 . S
C1113 C1112 1.327 . S
C1113 C1117 1.429 . S
C1114 C1097 1.574 . S
C1114 H1108 0.949 . S
C1114 C1118 1.368 . S
C1115 C1096 1.429 . S
C1115 C1109 1.429 . S
C1115 C1116 1.523 . S
C1116 C1097 1.368 . S
C1116 C1110 1.368 . S
C1116 C1115 1.523 . S
C1117 C1101 1.429 . S
C1117 C1113 1.429 . S
C1117 C1118 1.523 . S
C1118 C1102 1.368 . S
C1118 C1114 1.368 . S
C1118 C1117 1.523 . S
H1119 C1094 0.950 . S
H1120 C1096 0.950 . S
H1121 C1097 0.949 . S
H1122 C1099 0.950 . S
H1123 C1101 0.950 . S
C1124 C1125 1.349 . S
C1124 C1126 1.327 . S
C1124 H1149 0.950 . S
C1125 C1124 1.349 . S
C1125 C1141 1.349 . S
C1126 C1124 1.327 . S
C1126 C1145 1.429 . S
C1126 H1150 0.950 . S
C1127 C1144 1.574 . S
C1127 C1146 1.368 . S
C1127 H1151 0.949 . S
H1128 C1132 0.949 . S
C1129 C1130 1.349 . S
C1129 C1131 1.327 . S
C1129 H1152 0.950 . S
C1130 C1129 1.349 . S
C1130 C1142 1.349 . S
C1131 C1129 1.327 . S
C1131 C1147 1.429 . S
C1131 H1153 0.950 . S
C1132 H1128 0.949 . S
C1132 C1140 1.574 . S
C1132 C1148 1.368 . S
H1133 C1141 0.950 . S
H1134 C1139 0.950 . S
H1135 C1140 0.949 . S
H1136 C1142 0.950 . S
H1137 C1143 0.950 . S
H1138 C1144 0.949 . S
C1139 H1134 0.950 . S
C1139 C1141 1.327 . S
C1139 C1145 1.429 . S
C1140 C1132 1.574 . S
C1140 H1135 0.949 . S
C1140 C1146 1.368 . S
C1141 C1125 1.349 . S
C1141 H1133 0.950 . S
C1141 C1139 1.327 . S
C1142 C1130 1.349 . S
C1142 H1136 0.950 . S
C1142 C1143 1.327 . S
C1143 H1137 0.950 . S
C1143 C1142 1.327 . S
C1143 C1147 1.429 . S
C1144 C1127 1.574 . S
C1144 H1138 0.949 . S
C1144 C1148 1.368 . S
C1145 C1126 1.429 . S
C1145 C1139 1.429 . S
C1145 C1146 1.523 . S
C1146 C1127 1.368 . S
C1146 C1140 1.368 . S
C1146 C1145 1.523 . S
C1147 C1131 1.429 . S
C1147 C1143 1.429 . S
C1147 C1148 1.523 . S
C1148 C1132 1.368 . S
C1148 C1144 1.368 . S
C1148 C1147 1.523 . S
H1149 C1124 0.950 . S
H1150 C1126 0.950 . S
H1151 C1127 0.949 . S
H1152 C1129 0.950 . S
H1153 C1131 0.950 . S
C1154 C1155 1.349 . S
C1154 C1156 1.327 . S
C1154 H1179 0.950 . S
C1155 C1154 1.349 . S
C1155 C1171 1.349 . S
C1156 C1154 1.327 . S
C1156 C1175 1.429 . S
C1156 H1180 0.950 . S
C1157 C1174 1.574 . S
C1157 C1176 1.368 . S
C1157 H1181 0.949 . S
H1158 C1162 0.949 . S
C1159 C1160 1.349 . S
C1159 C1161 1.327 . S
C1159 H1182 0.950 . S
C1160 C1159 1.349 . S
C1160 C1172 1.349 . S
C1161 C1159 1.327 . S
C1161 C1177 1.429 . S
C1161 H1183 0.950 . S
C1162 H1158 0.949 . S
C1162 C1170 1.574 . S
C1162 C1178 1.368 . S
H1163 C1171 0.950 . S
H1164 C1169 0.950 . S
H1165 C1170 0.949 . S
H1166 C1172 0.950 . S
H1167 C1173 0.950 . S
H1168 C1174 0.949 . S
C1169 H1164 0.950 . S
C1169 C1171 1.327 . S
C1169 C1175 1.429 . S
C1170 C1162 1.574 . S
C1170 H1165 0.949 . S
C1170 C1176 1.368 . S
C1171 C1155 1.349 . S
C1171 H1163 0.950 . S
C1171 C1169 1.327 . S
C1172 C1160 1.349 . S
C1172 H1166 0.950 . S
C1172 C1173 1.327 . S
C1173 H1167 0.950 . S
C1173 C1172 1.327 . S
C1173 C1177 1.429 . S
C1174 C1157 1.574 . S
C1174 H1168 0.949 . S
C1174 C1178 1.368 . S
C1175 C1156 1.429 . S
C1175 C1169 1.429 . S
C1175 C1176 1.523 . S
C1176 C1157 1.368 . S
C1176 C1170 1.368 . S
C1176 C1175 1.523 . S
C1177 C1161 1.429 . S
C1177 C1173 1.429 . S
C1177 C1178 1.523 . S
C1178 C1162 1.368 . S
C1178 C1174 1.368 . S
C1178 C1177 1.523 . S
H1179 C1154 0.950 . S
H1180 C1156 0.950 . S
H1181 C1157 0.949 . S
H1182 C1159 0.950 . S
H1183 C1161 0.950 . S
C1184 C1185 1.349 . S
C1184 C1186 1.327 . S
C1184 H1209 0.950 . S
C1185 C1184 1.349 . S
C1185 C1201 1.349 . S
C1186 C1184 1.327 . S
C1186 C1205 1.429 . S
C1186 H1210 0.950 . S
C1187 C1204 1.574 1_455 S
C1187 C1206 1.368 . S
C1187 H1211 0.949 . S
H1188 C1192 0.949 . S
C1189 C1190 1.349 . S
C1189 C1191 1.327 . S
C1189 H1212 0.950 . S
C1190 C1189 1.349 . S
C1190 C1202 1.349 . S
C1191 C1189 1.327 . S
C1191 C1207 1.429 . S
C1191 H1213 0.950 . S
C1192 H1188 0.949 . S
C1192 C1200 1.574 1_655 S
C1192 C1208 1.368 . S
H1193 C1201 0.950 . S
H1194 C1199 0.950 . S
H1195 C1200 0.949 . S
H1196 C1202 0.950 . S
H1197 C1203 0.950 . S
H1198 C1204 0.949 . S
C1199 H1194 0.950 . S
C1199 C1201 1.327 . S
C1199 C1205 1.429 . S
C1200 C1192 1.574 1_455 S
C1200 H1195 0.949 . S
C1200 C1206 1.368 1_565 S
C1201 C1185 1.349 . S
C1201 H1193 0.950 . S
C1201 C1199 1.327 . S
C1202 C1190 1.349 . S
C1202 H1196 0.950 . S
C1202 C1203 1.327 . S
C1203 H1197 0.950 . S
C1203 C1202 1.327 . S
C1203 C1207 1.429 . S
C1204 C1187 1.574 1_655 S
C1204 H1198 0.949 . S
C1204 C1208 1.368 1_545 S
C1205 C1186 1.429 . S
C1205 C1199 1.429 . S
C1205 C1206 1.523 . S
C1206 C1187 1.368 . S
C1206 C1200 1.368 1_545 S
C1206 C1205 1.523 . S
C1207 C1191 1.429 . S
C1207 C1203 1.429 . S
C1207 C1208 1.523 . S
C1208 C1192 1.368 . S
C1208 C1204 1.368 1_565 S
C1208 C1207 1.523 . S
H1209 C1184 0.950 . S
H1210 C1186 0.950 . S
H1211 C1187 0.949 . S
H1212 C1189 0.950 . S
H1213 C1191 0.950 . S
C1214 C1215 1.349 . S
C1214 C1216 1.327 . S
C1214 H1239 0.950 . S
C1215 C1214 1.349 . S
C1215 C1231 1.349 . S
C1216 C1214 1.327 . S
C1216 C1235 1.429 . S
C1216 H1240 0.950 . S
C1217 C1234 1.574 . S
C1217 C1236 1.368 . S
C1217 H1241 0.949 . S
H1218 C1222 0.949 . S
C1219 C1220 1.349 . S
C1219 C1221 1.327 . S
C1219 H1242 0.950 . S
C1220 C1219 1.349 . S
C1220 C1232 1.349 . S
C1221 C1219 1.327 . S
C1221 C1237 1.429 . S
C1221 H1243 0.950 . S
C1222 H1218 0.949 . S
C1222 C1230 1.574 . S
C1222 C1238 1.368 . S
H1223 C1231 0.950 . S
H1224 C1229 0.950 . S
H1225 C1230 0.949 . S
H1226 C1232 0.950 . S
H1227 C1233 0.950 . S
H1228 C1234 0.949 . S
C1229 H1224 0.950 . S
C1229 C1231 1.327 . S
C1229 C1235 1.429 . S
C1230 C1222 1.574 . S
C1230 H1225 0.949 . S
C1230 C1236 1.368 1_455 S
C1231 C1215 1.349 . S
C1231 H1223 0.950 . S
C1231 C1229 1.327 . S
C1232 C1220 1.349 . S
C1232 H1226 0.950 . S
C1232 C1233 1.327 . S
C1233 H1227 0.950 . S
C1233 C1232 1.327 . S
C1233 C1237 1.429 . S
C1234 C1217 1.574 . S
C1234 H1228 0.949 . S
C1234 C1238 1.368 1_655 S
C1235 C1216 1.429 . S
C1235 C1229 1.429 . S
C1235 C1236 1.523 . S
C1236 C1217 1.368 . S
C1236 C1230 1.368 1_655 S
C1236 C1235 1.523 . S
C1237 C1221 1.429 . S
C1237 C1233 1.429 . S
C1237 C1238 1.523 . S
C1238 C1222 1.368 . S
C1238 C1234 1.368 1_455 S
C1238 C1237 1.523 . S
H1239 C1214 0.950 . S
H1240 C1216 0.950 . S
H1241 C1217 0.949 . S
H1242 C1219 0.950 . S
H1243 C1221 0.950 . S
C1244 C1245 1.349 . S
C1244 C1246 1.327 . S
C1244 H1269 0.950 . S
C1245 C1244 1.349 . S
C1245 C1261 1.349 . S
C1246 C1244 1.327 . S
C1246 C1265 1.429 . S
C1246 H1270 0.950 . S
C1247 C1264 1.574 . S
C1247 C1266 1.368 . S
C1247 H1271 0.949 . S
H1248 C1252 0.949 . S
C1249 C1250 1.349 . S
C1249 C1251 1.327 . S
C1249 H1272 0.950 . S
C1250 C1249 1.349 . S
C1250 C1262 1.349 . S
C1251 C1249 1.327 . S
C1251 C1267 1.429 . S
C1251 H1273 0.950 . S
C1252 H1248 0.949 . S
C1252 C1260 1.574 . S
C1252 C1268 1.368 . S
H1253 C1261 0.950 . S
H1254 C1259 0.950 . S
H1255 C1260 0.949 . S
H1256 C1262 0.950 . S
H1257 C1263 0.950 . S
H1258 C1264 0.949 . S
C1259 H1254 0.950 . S
C1259 C1261 1.327 . S
C1259 C1265 1.429 . S
C1260 C1252 1.574 . S
C1260 H1255 0.949 . S
C1260 C1266 1.368 . S
C1261 C1245 1.349 . S
C1261 H1253 0.950 . S
C1261 C1259 1.327 . S
C1262 C1250 1.349 . S
C1262 H1256 0.950 . S
C1262 C1263 1.327 . S
C1263 H1257 0.950 . S
C1263 C1262 1.327 . S
C1263 C1267 1.429 . S
C1264 C1247 1.574 . S
C1264 H1258 0.949 . S
C1264 C1268 1.368 . S
C1265 C1246 1.429 . S
C1265 C1259 1.429 . S
C1265 C1266 1.523 . S
C1266 C1247 1.368 . S
C1266 C1260 1.368 . S
C1266 C1265 1.523 . S
C1267 C1251 1.429 . S
C1267 C1263 1.429 . S
C1267 C1268 1.523 . S
C1268 C1252 1.368 . S
C1268 C1264 1.368 . S
C1268 C1267 1.523 . S
H1269 C1244 0.950 . S
H1270 C1246 0.950 . S
H1271 C1247 0.949 . S
H1272 C1249 0.950 . S
H1273 C1251 0.950 . S
C1274 C1275 1.349 . S
C1274 C1276 1.327 . S
C1274 H1299 0.950 . S
C1275 C1274 1.349 . S
C1275 C1291 1.349 . S
C1276 C1274 1.327 . S
C1276 C1295 1.429 . S
C1276 H1300 0.950 . S
C1277 C1294 1.574 1_565 S
C1277 C1296 1.368 . S
C1277 H1301 0.949 . S
H1278 C1282 0.949 . S
C1279 C1280 1.349 . S
C1279 C1281 1.327 . S
C1279 H1302 0.950 . S
C1280 C1279 1.349 . S
C1280 C1292 1.349 . S
C1281 C1279 1.327 . S
C1281 C1297 1.429 . S
C1281 H1303 0.950 . S
C1282 H1278 0.949 . S
C1282 C1290 1.574 1_545 S
C1282 C1298 1.368 . S
H1283 C1291 0.950 . S
H1284 C1289 0.950 . S
H1285 C1290 0.949 . S
H1286 C1292 0.950 . S
H1287 C1293 0.950 . S
H1288 C1294 0.949 . S
C1289 H1284 0.950 . S
C1289 C1291 1.327 . S
C1289 C1295 1.429 . S
C1290 C1282 1.574 1_565 S
C1290 H1285 0.949 . S
C1290 C1296 1.368 . S
C1291 C1275 1.349 . S
C1291 H1283 0.950 . S
C1291 C1289 1.327 . S
C1292 C1280 1.349 . S
C1292 H1286 0.950 . S
C1292 C1293 1.327 . S
C1293 H1287 0.950 . S
C1293 C1292 1.327 . S
C1293 C1297 1.429 . S
C1294 C1277 1.574 1_545 S
C1294 H1288 0.949 . S
C1294 C1298 1.368 . S
C1295 C1276 1.429 . S
C1295 C1289 1.429 . S
C1295 C1296 1.523 . S
C1296 C1277 1.368 . S
C1296 C1290 1.368 . S
C1296 C1295 1.523 . S
C1297 C1281 1.429 . S
C1297 C1293 1.429 . S
C1297 C1298 1.523 . S
C1298 C1282 1.368 . S
C1298 C1294 1.368 . S
C1298 C1297 1.523 . S
H1299 C1274 0.950 . S
H1300 C1276 0.950 . S
H1301 C1277 0.949 . S
H1302 C1279 0.950 . S
H1303 C1281 0.950 . S
C1304 C1305 1.349 . S
C1304 C1306 1.327 . S
C1304 H1329 0.950 . S
C1305 C1304 1.349 . S
C1305 C1321 1.349 1_554 S
C1306 C1304 1.327 . S
C1306 C1325 1.429 . S
C1306 H1330 0.950 . S
C1307 C1324 1.574 1_455 S
C1307 C1326 1.368 1_556 S
C1307 H1331 0.949 . S
H1308 C1312 0.949 . S
C1309 C1310 1.349 1_556 S
C1309 C1311 1.327 . S
C1309 H1332 0.950 . S
C1310 C1309 1.349 1_554 S
C1310 C1322 1.349 . S
C1311 C1309 1.327 . S
C1311 C1327 1.429 1_556 S
C1311 H1333 0.950 . S
C1312 H1308 0.949 . S
C1312 C1320 1.574 1_655 S
C1312 C1328 1.368 . S
H1313 C1321 0.950 . S
H1314 C1319 0.950 . S
H1315 C1320 0.949 . S
H1316 C1322 0.950 . S
H1317 C1323 0.950 . S
H1318 C1324 0.949 . S
C1319 H1314 0.950 . S
C1319 C1321 1.327 . S
C1319 C1325 1.429 1_556 S
C1320 C1312 1.574 1_455 S
C1320 H1315 0.949 . S
C1320 C1326 1.368 . S
C1321 C1305 1.349 1_556 S
C1321 H1313 0.950 . S
C1321 C1319 1.327 . S
C1322 C1310 1.349 . S
C1322 H1316 0.950 . S
C1322 C1323 1.327 . S
C1323 H1317 0.950 . S
C1323 C1322 1.327 . S
C1323 C1327 1.429 . S
C1324 C1307 1.574 1_655 S
C1324 H1318 0.949 . S
C1324 C1328 1.368 1_556 S
C1325 C1306 1.429 . S
C1325 C1319 1.429 1_554 S
C1325 C1326 1.523 . S
C1326 C1307 1.368 1_554 S
C1326 C1320 1.368 . S
C1326 C1325 1.523 . S
C1327 C1311 1.429 1_554 S
C1327 C1323 1.429 . S
C1327 C1328 1.523 . S
C1328 C1312 1.368 . S
C1328 C1324 1.368 1_554 S
C1328 C1327 1.523 . S
H1329 C1304 0.950 . S
H1330 C1306 0.950 . S
H1331 C1307 0.949 . S
H1332 C1309 0.950 . S
H1333 C1311 0.950 . S
C1334 C1335 1.349 . S
C1334 C1336 1.327 . S
C1334 H1359 0.950 . S
C1335 C1334 1.349 . S
C1335 C1351 1.349 . S
C1336 C1334 1.327 . S
C1336 C1355 1.429 . S
C1336 H1360 0.950 . S
C1337 C1354 1.574 . S
C1337 C1356 1.368 . S
C1337 H1361 0.949 . S
H1338 C1342 0.949 . S
C1339 C1340 1.349 . S
C1339 C1341 1.327 . S
C1339 H1362 0.950 . S
C1340 C1339 1.349 . S
C1340 C1352 1.349 . S
C1341 C1339 1.327 . S
C1341 C1357 1.429 . S
C1341 H1363 0.950 . S
C1342 H1338 0.949 . S
C1342 C1350 1.574 . S
C1342 C1358 1.368 . S
H1343 C1351 0.950 . S
H1344 C1349 0.950 . S
H1345 C1350 0.949 . S
H1346 C1352 0.950 . S
H1347 C1353 0.950 . S
H1348 C1354 0.949 . S
C1349 H1344 0.950 . S
C1349 C1351 1.327 . S
C1349 C1355 1.429 . S
C1350 C1342 1.574 . S
C1350 H1345 0.949 . S
C1350 C1356 1.368 . S
C1351 C1335 1.349 . S
C1351 H1343 0.950 . S
C1351 C1349 1.327 . S
C1352 C1340 1.349 . S
C1352 H1346 0.950 . S
C1352 C1353 1.327 . S
C1353 H1347 0.950 . S
C1353 C1352 1.327 . S
C1353 C1357 1.429 . S
C1354 C1337 1.574 . S
C1354 H1348 0.949 . S
C1354 C1358 1.368 . S
C1355 C1336 1.429 . S
C1355 C1349 1.429 . S
C1355 C1356 1.523 . S
C1356 C1337 1.368 . S
C1356 C1350 1.368 . S
C1356 C1355 1.523 . S
C1357 C1341 1.429 . S
C1357 C1353 1.429 . S
C1357 C1358 1.523 . S
C1358 C1342 1.368 . S
C1358 C1354 1.368 . S
C1358 C1357 1.523 . S
H1359 C1334 0.950 . S
H1360 C1336 0.950 . S
H1361 C1337 0.949 . S
H1362 C1339 0.950 . S
H1363 C1341 0.950 . S
C1364 C1365 1.349 . S
C1364 C1366 1.327 . S
C1364 H1389 0.950 . S
C1365 C1364 1.349 . S
C1365 C1381 1.349 . S
C1366 C1364 1.327 . S
C1366 C1385 1.429 . S
C1366 H1390 0.950 . S
C1367 C1384 1.574 . S
C1367 C1386 1.368 1_565 S
C1367 H1391 0.949 . S
H1368 C1372 0.949 . S
C1369 C1370 1.349 . S
C1369 C1371 1.327 . S
C1369 H1392 0.950 . S
C1370 C1369 1.349 . S
C1370 C1382 1.349 . S
C1371 C1369 1.327 . S
C1371 C1387 1.429 . S
C1371 H1393 0.950 . S
C1372 H1368 0.949 . S
C1372 C1380 1.574 . S
C1372 C1388 1.368 1_545 S
H1373 C1381 0.950 . S
H1374 C1379 0.950 . S
H1375 C1380 0.949 . S
H1376 C1382 0.950 . S
H1377 C1383 0.950 . S
H1378 C1384 0.949 . S
C1379 H1374 0.950 . S
C1379 C1381 1.327 . S
C1379 C1385 1.429 . S
C1380 C1372 1.574 . S
C1380 H1375 0.949 . S
C1380 C1386 1.368 . S
C1381 C1365 1.349 . S
C1381 H1373 0.950 . S
C1381 C1379 1.327 . S
C1382 C1370 1.349 . S
C1382 H1376 0.950 . S
C1382 C1383 1.327 . S
C1383 H1377 0.950 . S
C1383 C1382 1.327 . S
C1383 C1387 1.429 . S
C1384 C1367 1.574 . S
C1384 H1378 0.949 . S
C1384 C1388 1.368 . S
C1385 C1366 1.429 . S
C1385 C1379 1.429 . S
C1385 C1386 1.523 . S
C1386 C1367 1.368 1_545 S
C1386 C1380 1.368 . S
C1386 C1385 1.523 . S
C1387 C1371 1.429 . S
C1387 C1383 1.429 . S
C1387 C1388 1.523 . S
C1388 C1372 1.368 1_565 S
C1388 C1384 1.368 . S
C1388 C1387 1.523 . S
H1389 C1364 0.950 . S
H1390 C1366 0.950 . S
H1391 C1367 0.949 . S
H1392 C1369 0.950 . S
H1393 C1371 0.950 . S
C1394 C1395 1.349 . S
C1394 C1396 1.327 . S
C1394 H1419 0.950 . S
C1395 C1394 1.349 . S
C1395 C1411 1.349 . S
C1396 C1394 1.327 . S
C1396 C1415 1.429 . S
C1396 H1420 0.950 . S
C1397 C1414 1.574 1_545 S
C1397 C1416 1.368 . S
C1397 H1421 0.949 . S
H1398 C1402 0.949 . S
C1399 C1400 1.349 . S
C1399 C1401 1.327 . S
C1399 H1422 0.950 . S
C1400 C1399 1.349 . S
C1400 C1412 1.349 . S
C1401 C1399 1.327 . S
C1401 C1417 1.429 . S
C1401 H1423 0.950 . S
C1402 H1398 0.949 . S
C1402 C1410 1.574 1_565 S
C1402 C1418 1.368 . S
H1403 C1411 0.950 . S
H1404 C1409 0.950 . S
H1405 C1410 0.949 . S
H1406 C1412 0.950 . S
H1407 C1413 0.950 . S
H1408 C1414 0.949 . S
C1409 H1404 0.950 . S
C1409 C1411 1.327 . S
C1409 C1415 1.429 . S
C1410 C1402 1.574 1_545 S
C1410 H1405 0.949 . S
C1410 C1416 1.368 1_655 S
C1411 C1395 1.349 . S
C1411 H1403 0.950 . S
C1411 C1409 1.327 . S
C1412 C1400 1.349 . S
C1412 H1406 0.950 . S
C1412 C1413 1.327 . S
C1413 H1407 0.950 . S
C1413 C1412 1.327 . S
C1413 C1417 1.429 . S
C1414 C1397 1.574 1_565 S
C1414 H1408 0.949 . S
C1414 C1418 1.368 1_455 S
C1415 C1396 1.429 . S
C1415 C1409 1.429 . S
C1415 C1416 1.523 . S
C1416 C1397 1.368 . S
C1416 C1410 1.368 1_455 S
C1416 C1415 1.523 . S
C1417 C1401 1.429 . S
C1417 C1413 1.429 . S
C1417 C1418 1.523 . S
C1418 C1402 1.368 . S
C1418 C1414 1.368 1_655 S
C1418 C1417 1.523 . S
H1419 C1394 0.950 . S
H1420 C1396 0.950 . S
H1421 C1397 0.949 . S
H1422 C1399 0.950 . S
H1423 C1401 0.950 . S
C1424 C1425 1.349 . S
C1424 C1426 1.327 . S
C1424 H1449 0.950 . S
C1425 C1424 1.349 . S
C1425 C1441 1.349 . S
C1426 C1424 1.327 . S
C1426 C1445 1.429 . S
C1426 H1450 0.950 . S
C1427 C1444 1.574 . S
C1427 C1446 1.368 . S
C1427 H1451 0.949 . S
H1428 C1432 0.949 . S
C1429 C1430 1.349 . S
C1429 C1431 1.327 . S
C1429 H1452 0.950 . S
C1430 C1429 1.349 . S
C1430 C1442 1.349 . S
C1431 C1429 1.327 . S
C1431 C1447 1.429 . S
C1431 H1453 0.950 . S
C1432 H1428 0.949 . S
C1432 C1440 1.574 . S
C1432 C1448 1.368 . S
H1433 C1441 0.950 . S
H1434 C1439 0.950 . S
H1435 C1440 0.949 . S
H1436 C1442 0.950 . S
H1437 C1443 0.950 . S
H1438 C1444 0.949 . S
C1439 H1434 0.950 . S
C1439 C1441 1.327 . S
C1439 C1445 1.429 . S
C1440 C1432 1.574 . S
C1440 H1435 0.949 . S
C1440 C1446 1.368 . S
C1441 C1425 1.349 . S
C1441 H1433 0.950 . S
C1441 C1439 1.327 . S
C1442 C1430 1.349 . S
C1442 H1436 0.950 . S
C1442 C1443 1.327 . S
C1443 H1437 0.950 . S
C1443 C1442 1.327 . S
C1443 C1447 1.429 . S
C1444 C1427 1.574 . S
C1444 H1438 0.949 . S
C1444 C1448 1.368 . S
C1445 C1426 1.429 . S
C1445 C1439 1.429 . S
C1445 C1446 1.523 . S
C1446 C1427 1.368 . S
C1446 C1440 1.368 . S
C1446 C1445 1.523 . S
C1447 C1431 1.429 . S
C1447 C1443 1.429 . S
C1447 C1448 1.523 . S
C1448 C1432 1.368 . S
C1448 C1444 1.368 . S
C1448 C1447 1.523 . S
H1449 C1424 0.950 . S
H1450 C1426 0.950 . S
H1451 C1427 0.949 . S
H1452 C1429 0.950 . S
H1453 C1431 0.950 . S
C1454 C1455 1.349 . S
C1454 C1456 1.327 . S
C1454 H1479 0.950 . S
C1455 C1454 1.349 . S
C1455 C1471 1.349 . S
C1456 C1454 1.327 . S
C1456 C1475 1.429 . S
C1456 H1480 0.950 . S
C1457 C1474 1.574 . S
C1457 C1476 1.368 . S
C1457 H1481 0.949 . S
H1458 C1462 0.949 . S
C1459 C1460 1.349 . S
C1459 C1461 1.327 . S
C1459 H1482 0.950 . S
C1460 C1459 1.349 . S
C1460 C1472 1.349 . S
C1461 C1459 1.327 . S
C1461 C1477 1.429 . S
C1461 H1483 0.950 . S
C1462 H1458 0.949 . S
C1462 C1470 1.574 . S
C1462 C1478 1.368 . S
H1463 C1471 0.950 . S
H1464 C1469 0.950 . S
H1465 C1470 0.949 . S
H1466 C1472 0.950 . S
H1467 C1473 0.950 . S
H1468 C1474 0.949 . S
C1469 H1464 0.950 . S
C1469 C1471 1.327 . S
C1469 C1475 1.429 . S
C1470 C1462 1.574 . S
C1470 H1465 0.949 . S
C1470 C1476 1.368 . S
C1471 C1455 1.349 . S
C1471 H1463 0.950 . S
C1471 C1469 1.327 . S
C1472 C1460 1.349 . S
C1472 H1466 0.950 . S
C1472 C1473 1.327 . S
C1473 H1467 0.950 . S
C1473 C1472 1.327 . S
C1473 C1477 1.429 . S
C1474 C1457 1.574 . S
C1474 H1468 0.949 . S
C1474 C1478 1.368 . S
C1475 C1456 1.429 . S
C1475 C1469 1.429 . S
C1475 C1476 1.523 . S
C1476 C1457 1.368 . S
C1476 C1470 1.368 . S
C1476 C1475 1.523 . S
C1477 C1461 1.429 . S
C1477 C1473 1.429 . S
C1477 C1478 1.523 . S
C1478 C1462 1.368 . S
C1478 C1474 1.368 . S
C1478 C1477 1.523 . S
H1479 C1454 0.950 . S
H1480 C1456 0.950 . S
H1481 C1457 0.949 . S
H1482 C1459 0.950 . S
H1483 C1461 0.950 . S
C1484 C1485 1.349 . S
C1484 C1486 1.327 . S
C1484 H1509 0.950 . S
C1485 C1484 1.349 . S
C1485 C1501 1.349 . S
C1486 C1484 1.327 . S
C1486 C1505 1.429 . S
C1486 H1510 0.950 . S
C1487 C1504 1.574 . S
C1487 C1506 1.368 . S
C1487 H1511 0.949 . S
H1488 C1492 0.949 . S
C1489 C1490 1.349 . S
C1489 C1491 1.327 . S
C1489 H1512 0.950 . S
C1490 C1489 1.349 . S
C1490 C1502 1.349 . S
C1491 C1489 1.327 . S
C1491 C1507 1.429 . S
C1491 H1513 0.950 . S
C1492 H1488 0.949 . S
C1492 C1500 1.574 . S
C1492 C1508 1.368 . S
H1493 C1501 0.950 . S
H1494 C1499 0.950 . S
H1495 C1500 0.949 . S
H1496 C1502 0.950 . S
H1497 C1503 0.950 . S
H1498 C1504 0.949 . S
C1499 H1494 0.950 . S
C1499 C1501 1.327 . S
C1499 C1505 1.429 . S
C1500 C1492 1.574 . S
C1500 H1495 0.949 . S
C1500 C1506 1.368 . S
C1501 C1485 1.349 . S
C1501 H1493 0.950 . S
C1501 C1499 1.327 . S
C1502 C1490 1.349 . S
C1502 H1496 0.950 . S
C1502 C1503 1.327 . S
C1503 H1497 0.950 . S
C1503 C1502 1.327 . S
C1503 C1507 1.429 . S
C1504 C1487 1.574 . S
C1504 H1498 0.949 . S
C1504 C1508 1.368 . S
C1505 C1486 1.429 . S
C1505 C1499 1.429 . S
C1505 C1506 1.523 . S
C1506 C1487 1.368 . S
C1506 C1500 1.368 . S
C1506 C1505 1.523 . S
C1507 C1491 1.429 . S
C1507 C1503 1.429 . S
C1507 C1508 1.523 1_556 S
C1508 C1492 1.368 . S
C1508 C1504 1.368 . S
C1508 C1507 1.523 1_554 S
H1509 C1484 0.950 . S
H1510 C1486 0.950 . S
H1511 C1487 0.949 . S
H1512 C1489 0.950 . S
H1513 C1491 0.950 . S
C1514 C1515 1.349 . S
C1514 C1516 1.327 . S
C1514 H1539 0.950 . S
C1515 C1514 1.349 . S
C1515 C1531 1.349 . S
C1516 C1514 1.327 . S
C1516 C1535 1.429 . S
C1516 H1540 0.950 . S
C1517 C1534 1.574 . S
C1517 C1536 1.368 . S
C1517 H1541 0.949 . S
H1518 C1522 0.949 . S
C1519 C1520 1.349 . S
C1519 C1521 1.327 . S
C1519 H1542 0.950 . S
C1520 C1519 1.349 . S
C1520 C1532 1.349 . S
C1521 C1519 1.327 . S
C1521 C1537 1.429 . S
C1521 H1543 0.950 . S
C1522 H1518 0.949 . S
C1522 C1530 1.574 . S
C1522 C1538 1.368 . S
H1523 C1531 0.950 . S
H1524 C1529 0.950 . S
H1525 C1530 0.949 . S
H1526 C1532 0.950 . S
H1527 C1533 0.950 . S
H1528 C1534 0.949 . S
C1529 H1524 0.950 . S
C1529 C1531 1.327 . S
C1529 C1535 1.429 . S
C1530 C1522 1.574 . S
C1530 H1525 0.949 . S
C1530 C1536 1.368 . S
C1531 C1515 1.349 . S
C1531 H1523 0.950 . S
C1531 C1529 1.327 . S
C1532 C1520 1.349 . S
C1532 H1526 0.950 . S
C1532 C1533 1.327 . S
C1533 H1527 0.950 . S
C1533 C1532 1.327 . S
C1533 C1537 1.429 . S
C1534 C1517 1.574 . S
C1534 H1528 0.949 . S
C1534 C1538 1.368 . S
C1535 C1516 1.429 . S
C1535 C1529 1.429 . S
C1535 C1536 1.523 . S
C1536 C1517 1.368 . S
C1536 C1530 1.368 . S
C1536 C1535 1.523 . S
C1537 C1521 1.429 . S
C1537 C1533 1.429 . S
C1537 C1538 1.523 . S
C1538 C1522 1.368 . S
C1538 C1534 1.368 . S
C1538 C1537 1.523 . S
H1539 C1514 0.950 . S
H1540 C1516 0.950 . S
H1541 C1517 0.949 . S
H1542 C1519 0.950 . S
H1543 C1521 0.950 . S
C1544 C1545 1.349 . S
C1544 C1546 1.327 . S
C1544 H1569 0.950 . S
C1545 C1544 1.349 . S
C1545 C1561 1.349 . S
C1546 C1544 1.327 . S
C1546 C1565 1.429 . S
C1546 H1570 0.950 . S
C1547 C1564 1.574 . S
C1547 C1566 1.368 . S
C1547 H1571 0.949 . S
H1548 C1552 0.949 . S
C1549 C1550 1.349 . S
C1549 C1551 1.327 . S
C1549 H1572 0.950 . S
C1550 C1549 1.349 . S
C1550 C1562 1.349 . S
C1551 C1549 1.327 . S
C1551 C1567 1.429 . S
C1551 H1573 0.950 . S
C1552 H1548 0.949 . S
C1552 C1560 1.574 . S
C1552 C1568 1.368 . S
H1553 C1561 0.950 . S
H1554 C1559 0.950 . S
H1555 C1560 0.949 . S
H1556 C1562 0.950 . S
H1557 C1563 0.950 . S
H1558 C1564 0.949 . S
C1559 H1554 0.950 . S
C1559 C1561 1.327 . S
C1559 C1565 1.429 . S
C1560 C1552 1.574 . S
C1560 H1555 0.949 . S
C1560 C1566 1.368 . S
C1561 C1545 1.349 . S
C1561 H1553 0.950 . S
C1561 C1559 1.327 . S
C1562 C1550 1.349 . S
C1562 H1556 0.950 . S
C1562 C1563 1.327 . S
C1563 H1557 0.950 . S
C1563 C1562 1.327 . S
C1563 C1567 1.429 . S
C1564 C1547 1.574 . S
C1564 H1558 0.949 . S
C1564 C1568 1.368 . S
C1565 C1546 1.429 . S
C1565 C1559 1.429 . S
C1565 C1566 1.523 . S
C1566 C1547 1.368 . S
C1566 C1560 1.368 . S
C1566 C1565 1.523 . S
C1567 C1551 1.429 . S
C1567 C1563 1.429 . S
C1567 C1568 1.523 . S
C1568 C1552 1.368 . S
C1568 C1564 1.368 . S
C1568 C1567 1.523 . S
H1569 C1544 0.950 . S
H1570 C1546 0.950 . S
H1571 C1547 0.949 . S
H1572 C1549 0.950 . S
H1573 C1551 0.950 . S
C1574 C1575 1.349 . S
C1574 C1576 1.327 . S
C1574 H1599 0.950 . S
C1575 C1574 1.349 . S
C1575 C1591 1.349 . S
C1576 C1574 1.327 . S
C1576 C1595 1.429 . S
C1576 H1600 0.950 . S
C1577 C1594 1.574 . S
C1577 C1596 1.368 . S
C1577 H1601 0.949 . S
H1578 C1582 0.949 . S
C1579 C1580 1.349 . S
C1579 C1581 1.327 . S
C1579 H1602 0.950 . S
C1580 C1579 1.349 . S
C1580 C1592 1.349 . S
C1581 C1579 1.327 . S
C1581 C1597 1.429 . S
C1581 H1603 0.950 . S
C1582 H1578 0.949 . S
C1582 C1590 1.574 . S
C1582 C1598 1.368 . S
H1583 C1591 0.950 . S
H1584 C1589 0.950 . S
H1585 C1590 0.949 . S
H1586 C1592 0.950 . S
H1587 C1593 0.950 . S
H1588 C1594 0.949 . S
C1589 H1584 0.950 . S
C1589 C1591 1.327 . S
C1589 C1595 1.429 . S
C1590 C1582 1.574 . S
C1590 H1585 0.949 . S
C1590 C1596 1.368 . S
C1591 C1575 1.349 . S
C1591 H1583 0.950 . S
C1591 C1589 1.327 . S
C1592 C1580 1.349 . S
C1592 H1586 0.950 . S
C1592 C1593 1.327 . S
C1593 H1587 0.950 . S
C1593 C1592 1.327 . S
C1593 C1597 1.429 . S
C1594 C1577 1.574 . S
C1594 H1588 0.949 . S
C1594 C1598 1.368 . S
C1595 C1576 1.429 . S
C1595 C1589 1.429 . S
C1595 C1596 1.523 . S
C1596 C1577 1.368 . S
C1596 C1590 1.368 . S
C1596 C1595 1.523 . S
C1597 C1581 1.429 . S
C1597 C1593 1.429 . S
C1597 C1598 1.523 1_556 S
C1598 C1582 1.368 . S
C1598 C1594 1.368 . S
C1598 C1597 1.523 1_554 S
H1599 C1574 0.950 . S
H1600 C1576 0.950 . S
H1601 C1577 0.949 . S
H1602 C1579 0.950 . S
H1603 C1581 0.950 . S
C1604 C1605 1.349 . S
C1604 C1606 1.327 . S
C1604 H1629 0.950 . S
C1605 C1604 1.349 . S
C1605 C1621 1.349 . S
C1606 C1604 1.327 . S
C1606 C1625 1.429 . S
C1606 H1630 0.950 . S
C1607 C1624 1.574 . S
C1607 C1626 1.368 . S
C1607 H1631 0.949 . S
H1608 C1612 0.949 . S
C1609 C1610 1.349 . S
C1609 C1611 1.327 . S
C1609 H1632 0.950 . S
C1610 C1609 1.349 . S
C1610 C1622 1.349 . S
C1611 C1609 1.327 . S
C1611 C1627 1.429 . S
C1611 H1633 0.950 . S
C1612 H1608 0.949 . S
C1612 C1620 1.574 . S
C1612 C1628 1.368 . S
H1613 C1621 0.950 . S
H1614 C1619 0.950 . S
H1615 C1620 0.949 . S
H1616 C1622 0.950 . S
H1617 C1623 0.950 . S
H1618 C1624 0.949 . S
C1619 H1614 0.950 . S
C1619 C1621 1.327 . S
C1619 C1625 1.429 . S
C1620 C1612 1.574 . S
C1620 H1615 0.949 . S
C1620 C1626 1.368 . S
C1621 C1605 1.349 . S
C1621 H1613 0.950 . S
C1621 C1619 1.327 . S
C1622 C1610 1.349 . S
C1622 H1616 0.950 . S
C1622 C1623 1.327 . S
C1623 H1617 0.950 . S
C1623 C1622 1.327 . S
C1623 C1627 1.429 . S
C1624 C1607 1.574 . S
C1624 H1618 0.949 . S
C1624 C1628 1.368 . S
C1625 C1606 1.429 . S
C1625 C1619 1.429 . S
C1625 C1626 1.523 . S
C1626 C1607 1.368 . S
C1626 C1620 1.368 . S
C1626 C1625 1.523 . S
C1627 C1611 1.429 . S
C1627 C1623 1.429 . S
C1627 C1628 1.523 . S
C1628 C1612 1.368 . S
C1628 C1624 1.368 . S
C1628 C1627 1.523 . S
H1629 C1604 0.950 . S
H1630 C1606 0.950 . S
H1631 C1607 0.949 . S
H1632 C1609 0.950 . S
H1633 C1611 0.950 . S
C1634 C1635 1.349 . S
C1634 C1636 1.327 . S
C1634 H1659 0.950 . S
C1635 C1634 1.349 . S
C1635 C1651 1.349 . S
C1636 C1634 1.327 . S
C1636 C1655 1.429 . S
C1636 H1660 0.950 . S
C1637 C1654 1.574 . S
C1637 C1656 1.368 . S
C1637 H1661 0.949 . S
H1638 C1642 0.949 . S
C1639 C1640 1.349 . S
C1639 C1641 1.327 . S
C1639 H1662 0.950 . S
C1640 C1639 1.349 . S
C1640 C1652 1.349 . S
C1641 C1639 1.327 . S
C1641 C1657 1.429 . S
C1641 H1663 0.950 . S
C1642 H1638 0.949 . S
C1642 C1650 1.574 . S
C1642 C1658 1.368 . S
H1643 C1651 0.950 . S
H1644 C1649 0.950 . S
H1645 C1650 0.949 . S
H1646 C1652 0.950 . S
H1647 C1653 0.950 . S
H1648 C1654 0.949 . S
C1649 H1644 0.950 . S
C1649 C1651 1.327 . S
C1649 C1655 1.429 . S
C1650 C1642 1.574 . S
C1650 H1645 0.949 . S
C1650 C1656 1.368 . S
C1651 C1635 1.349 . S
C1651 H1643 0.950 . S
C1651 C1649 1.327 . S
C1652 C1640 1.349 . S
C1652 H1646 0.950 . S
C1652 C1653 1.327 . S
C1653 H1647 0.950 . S
C1653 C1652 1.327 . S
C1653 C1657 1.429 . S
C1654 C1637 1.574 . S
C1654 H1648 0.949 . S
C1654 C1658 1.368 . S
C1655 C1636 1.429 . S
C1655 C1649 1.429 . S
C1655 C1656 1.523 . S
C1656 C1637 1.368 . S
C1656 C1650 1.368 . S
C1656 C1655 1.523 . S
C1657 C1641 1.429 . S
C1657 C1653 1.429 . S
C1657 C1658 1.523 . S
C1658 C1642 1.368 . S
C1658 C1654 1.368 . S
C1658 C1657 1.523 . S
H1659 C1634 0.950 . S
H1660 C1636 0.950 . S
H1661 C1637 0.949 . S
H1662 C1639 0.950 . S
H1663 C1641 0.950 . S
C1664 C1665 1.349 . S
C1664 C1666 1.327 . S
C1664 H1689 0.950 . S
C1665 C1664 1.349 . S
C1665 C1681 1.349 . S
C1666 C1664 1.327 . S
C1666 C1685 1.429 . S
C1666 H1690 0.950 . S
C1667 C1684 1.574 . S
C1667 C1686 1.368 . S
C1667 H1691 0.949 1_554 S
H1668 C1672 0.949 . S
C1669 C1670 1.349 . S
C1669 C1671 1.327 . S
C1669 H1692 0.950 . S
C1670 C1669 1.349 . S
C1670 C1682 1.349 . S
C1671 C1669 1.327 . S
C1671 C1687 1.429 . S
C1671 H1693 0.950 . S
C1672 H1668 0.949 . S
C1672 C1680 1.574 . S
C1672 C1688 1.368 . S
H1673 C1681 0.950 . S
H1674 C1679 0.950 . S
H1675 C1680 0.949 . S
H1676 C1682 0.950 . S
H1677 C1683 0.950 . S
H1678 C1684 0.949 . S
C1679 H1674 0.950 . S
C1679 C1681 1.327 . S
C1679 C1685 1.429 . S
C1680 C1672 1.574 . S
C1680 H1675 0.949 . S
C1680 C1686 1.368 . S
C1681 C1665 1.349 . S
C1681 H1673 0.950 . S
C1681 C1679 1.327 . S
C1682 C1670 1.349 . S
C1682 H1676 0.950 . S
C1682 C1683 1.327 . S
C1683 H1677 0.950 . S
C1683 C1682 1.327 . S
C1683 C1687 1.429 . S
C1684 C1667 1.574 . S
C1684 H1678 0.949 . S
C1684 C1688 1.368 . S
C1685 C1666 1.429 . S
C1685 C1679 1.429 . S
C1685 C1686 1.523 1_556 S
C1686 C1667 1.368 . S
C1686 C1680 1.368 . S
C1686 C1685 1.523 1_554 S
C1687 C1671 1.429 . S
C1687 C1683 1.429 . S
C1687 C1688 1.523 . S
C1688 C1672 1.368 . S
C1688 C1684 1.368 . S
C1688 C1687 1.523 . S
H1689 C1664 0.950 . S
H1690 C1666 0.950 . S
H1691 C1667 0.949 1_556 S
H1692 C1669 0.950 . S
H1693 C1671 0.950 . S
C1694 C1695 1.349 . S
C1694 C1696 1.327 . S
C1694 H1719 0.950 . S
C1695 C1694 1.349 . S
C1695 C1711 1.349 . S
C1696 C1694 1.327 . S
C1696 C1715 1.429 . S
C1696 H1720 0.950 . S
C1697 C1714 1.574 . S
C1697 C1716 1.368 . S
C1697 H1721 0.949 . S
H1698 C1702 0.949 . S
C1699 C1700 1.349 . S
C1699 C1701 1.327 . S
C1699 H1722 0.950 . S
C1700 C1699 1.349 . S
C1700 C1712 1.349 . S
C1701 C1699 1.327 . S
C1701 C1717 1.429 . S
C1701 H1723 0.950 . S
C1702 H1698 0.949 . S
C1702 C1710 1.574 . S
C1702 C1718 1.368 . S
H1703 C1711 0.950 . S
H1704 C1709 0.950 . S
H1705 C1710 0.949 . S
H1706 C1712 0.950 . S
H1707 C1713 0.950 . S
H1708 C1714 0.949 . S
C1709 H1704 0.950 . S
C1709 C1711 1.327 . S
C1709 C1715 1.429 . S
C1710 C1702 1.574 . S
C1710 H1705 0.949 . S
C1710 C1716 1.368 . S
C1711 C1695 1.349 . S
C1711 H1703 0.950 . S
C1711 C1709 1.327 . S
C1712 C1700 1.349 . S
C1712 H1706 0.950 . S
C1712 C1713 1.327 . S
C1713 H1707 0.950 . S
C1713 C1712 1.327 . S
C1713 C1717 1.429 . S
C1714 C1697 1.574 . S
C1714 H1708 0.949 . S
C1714 C1718 1.368 . S
C1715 C1696 1.429 . S
C1715 C1709 1.429 . S
C1715 C1716 1.523 . S
C1716 C1697 1.368 . S
C1716 C1710 1.368 . S
C1716 C1715 1.523 . S
C1717 C1701 1.429 . S
C1717 C1713 1.429 . S
C1717 C1718 1.523 . S
C1718 C1702 1.368 . S
C1718 C1714 1.368 . S
C1718 C1717 1.523 . S
H1719 C1694 0.950 . S
H1720 C1696 0.950 . S
H1721 C1697 0.949 . S
H1722 C1699 0.950 . S
H1723 C1701 0.950 . S
C1724 C1725 1.349 . S
C1724 C1726 1.327 . S
C1724 H1749 0.950 . S
C1725 C1724 1.349 . S
C1725 C1741 1.349 . S
C1726 C1724 1.327 . S
C1726 C1745 1.429 . S
C1726 H1750 0.950 . S
C1727 C1744 1.574 . S
C1727 C1746 1.368 . S
C1727 H1751 0.949 . S
H1728 C1732 0.949 . S
C1729 C1730 1.349 . S
C1729 C1731 1.327 . S
C1729 H1752 0.950 . S
C1730 C1729 1.349 . S
C1730 C1742 1.349 . S
C1731 C1729 1.327 . S
C1731 C1747 1.429 . S
C1731 H1753 0.950 . S
C1732 H1728 0.949 . S
C1732 C1740 1.574 . S
C1732 C1748 1.368 . S
H1733 C1741 0.950 . S
H1734 C1739 0.950 . S
H1735 C1740 0.949 . S
H1736 C1742 0.950 . S
H1737 C1743 0.950 . S
H1738 C1744 0.949 . S
C1739 H1734 0.950 . S
C1739 C1741 1.327 . S
C1739 C1745 1.429 . S
C1740 C1732 1.574 . S
C1740 H1735 0.949 . S
C1740 C1746 1.368 . S
C1741 C1725 1.349 . S
C1741 H1733 0.950 . S
C1741 C1739 1.327 . S
C1742 C1730 1.349 . S
C1742 H1736 0.950 . S
C1742 C1743 1.327 . S
C1743 H1737 0.950 . S
C1743 C1742 1.327 . S
C1743 C1747 1.429 . S
C1744 C1727 1.574 . S
C1744 H1738 0.949 . S
C1744 C1748 1.368 . S
C1745 C1726 1.429 . S
C1745 C1739 1.429 . S
C1745 C1746 1.523 . S
C1746 C1727 1.368 . S
C1746 C1740 1.368 . S
C1746 C1745 1.523 . S
C1747 C1731 1.429 . S
C1747 C1743 1.429 . S
C1747 C1748 1.523 . S
C1748 C1732 1.368 . S
C1748 C1744 1.368 . S
C1748 C1747 1.523 . S
H1749 C1724 0.950 . S
H1750 C1726 0.950 . S
H1751 C1727 0.949 . S
H1752 C1729 0.950 . S
H1753 C1731 0.950 . S
C1754 C1755 1.349 . S
C1754 C1756 1.327 . S
C1754 H1779 0.950 . S
C1755 C1754 1.349 . S
C1755 C1771 1.349 . S
C1756 C1754 1.327 . S
C1756 C1775 1.429 . S
C1756 H1780 0.950 . S
C1757 C1774 1.574 . S
C1757 C1776 1.368 . S
C1757 H1781 0.949 . S
H1758 C1762 0.949 . S
C1759 C1760 1.349 . S
C1759 C1761 1.327 . S
C1759 H1782 0.950 . S
C1760 C1759 1.349 . S
C1760 C1772 1.349 . S
C1761 C1759 1.327 . S
C1761 C1777 1.429 . S
C1761 H1783 0.950 . S
C1762 H1758 0.949 . S
C1762 C1770 1.574 . S
C1762 C1778 1.368 . S
H1763 C1771 0.950 . S
H1764 C1769 0.950 . S
H1765 C1770 0.949 . S
H1766 C1772 0.950 . S
H1767 C1773 0.950 . S
H1768 C1774 0.949 . S
C1769 H1764 0.950 . S
C1769 C1771 1.327 . S
C1769 C1775 1.429 . S
C1770 C1762 1.574 . S
C1770 H1765 0.949 . S
C1770 C1776 1.368 . S
C1771 C1755 1.349 . S
C1771 H1763 0.950 . S
C1771 C1769 1.327 . S
C1772 C1760 1.349 . S
C1772 H1766 0.950 . S
C1772 C1773 1.327 . S
C1773 H1767 0.950 . S
C1773 C1772 1.327 . S
C1773 C1777 1.429 . S
C1774 C1757 1.574 . S
C1774 H1768 0.949 . S
C1774 C1778 1.368 . S
C1775 C1756 1.429 . S
C1775 C1769 1.429 . S
C1775 C1776 1.523 . S
C1776 C1757 1.368 . S
C1776 C1770 1.368 . S
C1776 C1775 1.523 . S
C1777 C1761 1.429 . S
C1777 C1773 1.429 . S
C1777 C1778 1.523 . S
C1778 C1762 1.368 . S
C1778 C1774 1.368 . S
C1778 C1777 1.523 . S
H1779 C1754 0.950 . S
H1780 C1756 0.950 . S
H1781 C1757 0.949 . S
H1782 C1759 0.950 . S
H1783 C1761 0.950 . S
C1784 C1785 1.349 . S
C1784 C1786 1.327 . S
C1784 H1809 0.950 . S
C1785 C1784 1.349 . S
C1785 C1801 1.349 . S
C1786 C1784 1.327 . S
C1786 C1805 1.429 . S
C1786 H1810 0.950 . S
C1787 C1804 1.574 . S
C1787 C1806 1.368 . S
C1787 H1811 0.949 . S
H1788 C1792 0.949 . S
C1789 C1790 1.349 . S
C1789 C1791 1.327 . S
C1789 H1812 0.950 . S
C1790 C1789 1.349 . S
C1790 C1802 1.349 . S
C1791 C1789 1.327 . S
C1791 C1807 1.429 . S
C1791 H1813 0.950 . S
C1792 H1788 0.949 . S
C1792 C1800 1.574 . S
C1792 C1808 1.368 . S
H1793 C1801 0.950 . S
H1794 C1799 0.950 . S
H1795 C1800 0.949 . S
H1796 C1802 0.950 . S
H1797 C1803 0.950 . S
H1798 C1804 0.949 . S
C1799 H1794 0.950 . S
C1799 C1801 1.327 . S
C1799 C1805 1.429 . S
C1800 C1792 1.574 . S
C1800 H1795 0.949 . S
C1800 C1806 1.368 . S
C1801 C1785 1.349 . S
C1801 H1793 0.950 . S
C1801 C1799 1.327 . S
C1802 C1790 1.349 . S
C1802 H1796 0.950 . S
C1802 C1803 1.327 . S
C1803 H1797 0.950 . S
C1803 C1802 1.327 . S
C1803 C1807 1.429 . S
C1804 C1787 1.574 . S
C1804 H1798 0.949 . S
C1804 C1808 1.368 . S
C1805 C1786 1.429 . S
C1805 C1799 1.429 . S
C1805 C1806 1.523 . S
C1806 C1787 1.368 . S
C1806 C1800 1.368 . S
C1806 C1805 1.523 . S
C1807 C1791 1.429 . S
C1807 C1803 1.429 . S
C1807 C1808 1.523 . S
C1808 C1792 1.368 . S
C1808 C1804 1.368 . S
C1808 C1807 1.523 . S
H1809 C1784 0.950 . S
H1810 C1786 0.950 . S
H1811 C1787 0.949 . S
H1812 C1789 0.950 . S
H1813 C1791 0.950 . S
C1814 C1815 1.349 . S
C1814 C1816 1.327 . S
C1814 H1839 0.950 . S
C1815 C1814 1.349 . S
C1815 C1831 1.349 . S
C1816 C1814 1.327 . S
C1816 C1835 1.429 . S
C1816 H1840 0.950 . S
C1817 C1834 1.574 . S
C1817 C1836 1.368 . S
C1817 H1841 0.949 . S
H1818 C1822 0.949 . S
C1819 C1820 1.349 . S
C1819 C1821 1.327 . S
C1819 H1842 0.950 . S
C1820 C1819 1.349 . S
C1820 C1832 1.349 . S
C1821 C1819 1.327 . S
C1821 C1837 1.429 . S
C1821 H1843 0.950 . S
C1822 H1818 0.949 . S
C1822 C1830 1.574 . S
C1822 C1838 1.368 . S
H1823 C1831 0.950 . S
H1824 C1829 0.950 . S
H1825 C1830 0.949 . S
H1826 C1832 0.950 . S
H1827 C1833 0.950 . S
H1828 C1834 0.949 . S
C1829 H1824 0.950 . S
C1829 C1831 1.327 . S
C1829 C1835 1.429 . S
C1830 C1822 1.574 . S
C1830 H1825 0.949 . S
C1830 C1836 1.368 . S
C1831 C1815 1.349 . S
C1831 H1823 0.950 . S
C1831 C1829 1.327 . S
C1832 C1820 1.349 . S
C1832 H1826 0.950 . S
C1832 C1833 1.327 . S
C1833 H1827 0.950 . S
C1833 C1832 1.327 . S
C1833 C1837 1.429 . S
C1834 C1817 1.574 . S
C1834 H1828 0.949 . S
C1834 C1838 1.368 . S
C1835 C1816 1.429 . S
C1835 C1829 1.429 . S
C1835 C1836 1.523 . S
C1836 C1817 1.368 . S
C1836 C1830 1.368 . S
C1836 C1835 1.523 . S
C1837 C1821 1.429 . S
C1837 C1833 1.429 . S
C1837 C1838 1.523 . S
C1838 C1822 1.368 . S
C1838 C1834 1.368 . S
C1838 C1837 1.523 . S
H1839 C1814 0.950 . S
H1840 C1816 0.950 . S
H1841 C1817 0.949 . S
H1842 C1819 0.950 . S
H1843 C1821 0.950 . S
C1844 C1845 1.349 . S
C1844 C1846 1.327 . S
C1844 H1869 0.950 . S
C1845 C1844 1.349 . S
C1845 C1861 1.349 . S
C1846 C1844 1.327 . S
C1846 C1865 1.429 . S
C1846 H1870 0.950 . S
C1847 C1864 1.574 . S
C1847 C1866 1.368 . S
C1847 H1871 0.949 . S
H1848 C1852 0.949 . S
C1849 C1850 1.349 . S
C1849 C1851 1.327 . S
C1849 H1872 0.950 . S
C1850 C1849 1.349 . S
C1850 C1862 1.349 . S
C1851 C1849 1.327 . S
C1851 C1867 1.429 . S
C1851 H1873 0.950 . S
C1852 H1848 0.949 . S
C1852 C1860 1.574 . S
C1852 C1868 1.368 . S
H1853 C1861 0.950 . S
H1854 C1859 0.950 . S
H1855 C1860 0.949 . S
H1856 C1862 0.950 . S
H1857 C1863 0.950 . S
H1858 C1864 0.949 . S
C1859 H1854 0.950 . S
C1859 C1861 1.327 . S
C1859 C1865 1.429 . S
C1860 C1852 1.574 . S
C1860 H1855 0.949 . S
C1860 C1866 1.368 . S
C1861 C1845 1.349 . S
C1861 H1853 0.950 . S
C1861 C1859 1.327 . S
C1862 C1850 1.349 . S
C1862 H1856 0.950 . S
C1862 C1863 1.327 . S
C1863 H1857 0.950 . S
C1863 C1862 1.327 . S
C1863 C1867 1.429 . S
C1864 C1847 1.574 . S
C1864 H1858 0.949 . S
C1864 C1868 1.368 . S
C1865 C1846 1.429 . S
C1865 C1859 1.429 . S
C1865 C1866 1.523 . S
C1866 C1847 1.368 . S
C1866 C1860 1.368 . S
C1866 C1865 1.523 . S
C1867 C1851 1.429 . S
C1867 C1863 1.429 . S
C1867 C1868 1.523 . S
C1868 C1852 1.368 . S
C1868 C1864 1.368 . S
C1868 C1867 1.523 . S
H1869 C1844 0.950 . S
H1870 C1846 0.950 . S
H1871 C1847 0.949 . S
H1872 C1849 0.950 . S
H1873 C1851 0.950 . S
C1874 C1875 1.349 . S
C1874 C1876 1.327 . S
C1874 H1899 0.950 . S
C1875 C1874 1.349 . S
C1875 C1891 1.349 . S
C1876 C1874 1.327 . S
C1876 C1895 1.429 . S
C1876 H1900 0.950 . S
C1877 C1894 1.574 . S
C1877 C1896 1.368 . S
C1877 H1901 0.949 . S
H1878 C1882 0.949 . S
C1879 C1880 1.349 . S
C1879 C1881 1.327 . S
C1879 H1902 0.950 . S
C1880 C1879 1.349 . S
C1880 C1892 1.349 . S
C1881 C1879 1.327 . S
C1881 C1897 1.429 . S
C1881 H1903 0.950 . S
C1882 H1878 0.949 . S
C1882 C1890 1.574 . S
C1882 C1898 1.368 . S
H1883 C1891 0.950 . S
H1884 C1889 0.950 . S
H1885 C1890 0.949 . S
H1886 C1892 0.950 . S
H1887 C1893 0.950 . S
H1888 C1894 0.949 . S
C1889 H1884 0.950 . S
C1889 C1891 1.327 . S
C1889 C1895 1.429 . S
C1890 C1882 1.574 . S
C1890 H1885 0.949 . S
C1890 C1896 1.368 . S
C1891 C1875 1.349 . S
C1891 H1883 0.950 . S
C1891 C1889 1.327 . S
C1892 C1880 1.349 . S
C1892 H1886 0.950 . S
C1892 C1893 1.327 . S
C1893 H1887 0.950 . S
C1893 C1892 1.327 . S
C1893 C1897 1.429 . S
C1894 C1877 1.574 . S
C1894 H1888 0.949 . S
C1894 C1898 1.368 . S
C1895 C1876 1.429 . S
C1895 C1889 1.429 . S
C1895 C1896 1.523 . S
C1896 C1877 1.368 . S
C1896 C1890 1.368 . S
C1896 C1895 1.523 . S
C1897 C1881 1.429 . S
C1897 C1893 1.429 . S
C1897 C1898 1.523 1_556 S
C1898 C1882 1.368 . S
C1898 C1894 1.368 . S
C1898 C1897 1.523 1_554 S
H1899 C1874 0.950 . S
H1900 C1876 0.950 . S
H1901 C1877 0.949 . S
H1902 C1879 0.950 . S
H1903 C1881 0.950 . S
C945 C359 1.508 . S
C950 C5 1.508 . S
C975 C418 1.508 . S
C980 C64 1.508 . S
C1005 C123 1.508 . S
C1010 C241 1.508 . S
C1035 C182 1.508 . S
C1040 C300 1.508 . S
C1065 C477 1.508 . S
C1070 C831 1.508 . S
C1095 C890 1.508 . S
C1100 C536 1.508 . S
C1125 C595 1.508 . S
C1130 C713 1.508 . S
C1155 C654 1.508 . S
C1160 C772 1.508 . S
C1185 C52 1.451 . S
C1190 C642 1.451 . S
C1215 C111 1.451 . S
C1220 C701 1.451 . S
C1245 C170 1.451 . S
C1250 C524 1.451 . S
C1275 C229 1.451 . S
C1280 C583 1.451 . S
C1305 C288 1.451 . S
C1310 C878 1.451 . S
C1335 C937 1.451 . S
C1340 C347 1.451 . S
C1365 C406 1.451 . S
C1370 C760 1.451 . S
C1395 C819 1.451 . S
C1400 C465 1.451 . S
C1425 C800 0.236 . S
C1430 C33 0.236 . S
C1455 C92 0.236 . S
C1460 C859 0.236 . S
C1485 C918 0.236 . S
C1490 C151 0.236 . S
C1515 C741 0.236 . S
C1520 C210 0.236 . S
C1545 C682 0.236 . S
C1550 C269 0.236 . S
C1575 C328 0.236 . S
C1580 C505 0.236 . S
C1605 C387 0.236 . S
C1610 C564 0.236 . S
C1635 C446 0.236 . S
C1640 C623 0.236 . S
C1665 C770 1.617 . S
C1670 C3 1.617 . S
C1695 C62 1.618 . S
C1700 C829 1.618 . S
C1725 C121 1.618 . S
C1730 C888 1.618 . S
C1755 C711 1.617 . S
C1760 C180 1.617 . S
C1785 C652 1.618 . S
C1790 C239 1.618 . S
C1815 C475 1.618 . S
C1820 C298 1.618 . S
C1845 C357 1.617 . S
C1850 C534 1.617 . S
C1875 C593 1.617 . S
C1880 C416 1.617 . S
