# Generated by pormake.
# Topology sxa, (6)-cn, num edge types: 1
# Building blocks:
#     Node 0, Type 0, BuildingBlock: IZENUY_clean_sbu_0, # of connection points: 6
#     Node 1, Type 0, BuildingBlock: IZENUY_clean_sbu_0, # of connection points: 6
#     Node 2, Type 0, BuildingBlock: IZENUY_clean_sbu_0, # of connection points: 6
#     Node 3, Type 0, BuildingBlock: IZENUY_clean_sbu_0, # of connection points: 6
#     Edge 4, Type (0, 0), BuildingBlock: EZIPEK_clean_linker_0, # of connection points: 2
#     Edge 5, Type (0, 0), BuildingBlock: EZIPEK_clean_linker_0, # of connection points: 2
#     Edge 6, Type (0, 0), BuildingBlock: EZIPEK_clean_linker_0, # of connection points: 2
#     Edge 7, Type (0, 0), BuildingBlock: EZIPEK_clean_linker_0, # of connection points: 2
#     Edge 8, Type (0, 0), BuildingBlock: EZIPEK_clean_linker_0, # of connection points: 2
#     Edge 9, Type (0, 0), BuildingBlock: EZIPEK_clean_linker_0, # of connection points: 2
#     Edge 10, Type (0, 0), BuildingBlock: EZIPEK_clean_linker_0, # of connection points: 2
#     Edge 11, Type (0, 0), BuildingBlock: EZIPEK_clean_linker_0, # of connection points: 2
#     Edge 12, Type (0, 0), BuildingBlock: EZIPEK_clean_linker_0, # of connection points: 2
#     Edge 13, Type (0, 0), BuildingBlock: EZIPEK_clean_linker_0, # of connection points: 2
#     Edge 14, Type (0, 0), BuildingBlock: EZIPEK_clean_linker_0, # of connection points: 2
#     Edge 15, Type (0, 0), BuildingBlock: EZIPEK_clean_linker_0, # of connection points: 2
# Relax obj value: 0.274
# Max RMSD: 0.267
# Mean RMSD: 0.267
data_MOF--net-sxa--node1-IZENUY_clean_sbu_0--edge1-EZIPEK_clean_linker_0
_symmetry_space_group_name_H-M    P1
_symmetry_Int_Tables_number       1
_symmetry_cell_setting            triclinic
loop_
_symmetry_equiv_pos_as_xyz
'x, y, z'
_cell_length_a     17.531192
_cell_length_b     20.66338
_cell_length_c     13.108601
_cell_angle_alpha  89.859774
_cell_angle_beta   89.663965
_cell_angle_gamma 89.937951
loop_
_atom_site_label
_atom_site_type_symbol
_atom_site_fract_x
_atom_site_fract_y
_atom_site_fract_z
_atom_type_partial_charge
Fe0 Fe 0.04726 0.84463 0.32597 0.0
Fe1 Fe 0.01198 0.69596 0.33722 0.0
O2 O 0.03472 0.76746 0.26692 0.0
Fe3 Fe 0.04875 0.76147 0.13275 0.0
O4 O 0.14666 0.77333 0.15206 0.0
O5 O 0.13682 0.85875 0.25367 0.0
O6 O 0.10852 0.81362 0.42643 0.0
C7 C 0.12571 0.7581 0.45911 0.0
C8 C 1.00094 0.89249 0.14079 0.0
O9 O 0.08719 0.70849 0.43419 0.0
C10 C 0.9121 0.70548 0.16269 0.0
O11 O 0.95915 0.83929 0.4025 0.0
O12 O 0.93755 0.73475 0.4148 0.0
O13 O 0.036 0.8467 0.09891 0.0
O14 O 0.98864 0.88927 0.23489 0.0
C15 C 0.08876 0.63344 0.18049 0.0
O16 O 0.93475 0.67587 0.24368 0.0
O17 O 0.95136 0.74805 0.11661 0.0
C18 C 0.91744 0.79255 0.43153 0.0
O19 O 0.08336 0.64457 0.27406 0.0
O20 O 0.06414 0.67492 0.12012 0.0
C21 C 0.17688 0.81928 0.20087 0.0
Fe22 Fe 0.52178 0.31909 0.12629 0.0
Fe23 Fe 0.53577 0.38099 0.33962 0.0
O24 O 0.51612 0.31288 0.26097 0.0
Fe25 Fe 0.49061 0.23787 0.31908 0.0
O26 O 0.52971 0.18566 0.21722 0.0
O27 O 0.59014 0.25214 0.11538 0.0
O28 O 0.60072 0.37399 0.12623 0.0
C29 C 0.64576 0.39474 0.19289 0.0
C30 C 0.39004 0.2443 0.16235 0.0
O31 O 0.63162 0.38915 0.28725 0.0
C32 C 0.40793 0.3289 0.43505 0.0
O33 O 0.45542 0.38709 0.12161 0.0
O34 O 0.50113 0.44249 0.2489 0.0
O35 O 0.398 0.23851 0.25767 0.0
O36 O 0.44236 0.26528 0.10482 0.0
C37 C 0.61293 0.27745 0.43535 0.0
O38 O 0.43865 0.37846 0.39523 0.0
O39 O 0.44356 0.27533 0.43108 0.0
C40 C 0.4644 0.44076 0.16598 0.0
O41 O 0.5788 0.33175 0.44316 0.0
O42 O 0.58367 0.2331 0.38173 0.0
C43 C 0.57511 0.19498 0.143 0.0
Fe44 Fe 0.99657 0.26412 0.96958 0.0
Fe45 Fe 0.98945 0.3495 0.78048 0.0
O46 O 0.00531 0.27161 0.83515 0.0
Fe47 Fe 0.02598 0.20135 0.76113 0.0
O48 O 0.95748 0.14879 0.82685 0.0
O49 O 0.98243 0.177 0.98062 0.0
O50 O 0.89564 0.27585 0.95727 0.0
C51 C 0.87238 0.3317 0.93623 0.0
C52 C 0.13286 0.21141 0.92635 0.0
O53 O 0.90977 0.36732 0.87275 0.0
C54 C 0.11324 0.29761 0.65725 0.0
O55 O 0.01482 0.35009 1.00141 0.0
O56 O 0.05918 0.3908 0.86151 0.0
O57 O 0.10634 0.18086 0.84883 0.0
O58 O 0.09471 0.25127 0.97854 0.0
C59 C 0.90467 0.26422 0.65319 0.0
O60 O 0.06908 0.34351 0.68518 0.0
O61 O 0.09756 0.24028 0.68137 0.0
C62 C 0.05217 0.39417 0.95696 0.0
O63 O 0.91689 0.31866 0.69402 0.0
O64 O 0.94839 0.21588 0.66846 0.0
C65 C 0.96046 0.13484 0.91964 0.0
Fe66 Fe 0.51139 0.88458 0.77447 0.0
Fe67 Fe 0.55137 0.73581 0.76929 0.0
O68 O 0.5429 0.81158 0.83464 0.0
Fe69 Fe 0.57196 0.81229 0.96306 0.0
O70 O 0.478 0.82774 1.0029 0.0
O71 O 0.43796 0.89399 0.87556 0.0
O72 O 0.43772 0.84695 0.69605 0.0
C73 C 0.41883 0.79006 0.67391 0.0
C74 C 0.59234 0.94723 0.92979 0.0
O75 O 0.46236 0.7436 0.69665 0.0
C76 C 0.68909 0.74882 0.88343 0.0
O77 O 0.58608 0.87779 0.67355 0.0
O78 O 0.6105 0.77147 0.67026 0.0
O79 O 0.59396 0.89664 0.98069 0.0
O80 O 0.57343 0.9435 0.83785 0.0
C81 C 0.51153 0.68476 0.95245 0.0
O82 O 0.64274 0.71252 0.83535 0.0
O83 O 0.66535 0.80155 0.91786 0.0
C84 C 0.62528 0.82902 0.64279 0.0
O85 O 0.49174 0.69333 0.86178 0.0
O86 O 0.55757 0.72464 0.99101 0.0
C87 C 0.42991 0.86579 0.96261 0.0
C88 C 0.13322 0.49822 0.98799 0.0
C89 C 0.07366 0.45474 1.01679 0.0
C90 C 0.0615 0.51461 0.17799 0.0
C91 C 0.10452 0.56672 0.1391 0.0
N92 N 0.18123 0.60812 0.99982 0.0
N93 N 0.95968 0.44981 0.11947 0.0
C94 C 0.1411 0.55826 1.04212 0.0
C95 C 0.03285 0.4693 0.10807 0.0
N96 N 0.18221 0.48319 0.91043 0.0
N97 N 0.04151 0.51064 0.27845 0.0
H98 H 0.92982 0.43625 0.05506 0.0
H99 H 0.92624 0.46206 0.1827 0.0
H100 H 0.06523 0.54018 0.33409 0.0
H101 H 0.00982 0.47176 0.30696 0.0
H102 H 0.23086 0.51034 0.89411 0.0
H103 H 0.1784 0.44078 0.86842 0.0
H104 H 0.20173 0.6076 0.92504 0.0
H105 H 0.18976 0.65154 1.03803 0.0
C106 C 0.45097 0.56387 0.16446 0.0
C107 C 0.45097 0.5043 0.10973 0.0
C108 C 0.48895 0.56302 0.95447 0.0
C109 C 0.48974 0.62304 1.0078 0.0
N110 N 0.45678 0.68161 0.16123 0.0
N111 N 0.43082 0.45756 0.94304 0.0
C112 C 0.46663 0.62375 0.11245 0.0
C113 C 0.45731 0.50703 1.00175 0.0
N114 N 0.43423 0.56308 0.26629 0.0
N115 N 0.52329 0.55752 0.86103 0.0
H116 H 0.39823 0.41986 0.97283 0.0
H117 H 0.43015 0.45973 0.86357 0.0
H118 H 0.55445 0.59471 0.82696 0.0
H119 H 0.5298 0.5132 0.82406 0.0
H120 H 0.44525 0.6014 0.31523 0.0
H121 H 0.40966 0.5229 0.30194 0.0
H122 H 0.43466 0.6863 0.23464 0.0
H123 H 0.46384 0.72614 0.12523 0.0
C124 C 0.61693 0.07044 0.92747 0.0
C125 C 0.60476 1.01202 0.98383 0.0
C126 C 0.61483 0.07859 0.13971 0.0
C127 C 0.60251 0.13622 0.08402 0.0
N128 N 0.58717 0.18458 0.91598 0.0
N129 N 0.574 0.96889 0.15475 0.0
C130 C 0.60305 0.13188 0.97516 0.0
C131 C 0.59985 1.01789 0.09327 0.0
N132 N 0.64422 0.06811 0.82986 0.0
N133 N 0.63845 0.08166 0.2386 0.0
H134 H 0.54822 0.92674 0.1298 0.0
H135 H 0.56605 0.97489 0.23308 0.0
H136 H 0.65157 0.12552 0.27372 0.0
H137 H 0.65367 1.04053 0.28014 0.0
H138 H 0.65909 0.10958 0.78886 0.0
H139 H 0.66227 1.02521 0.79573 0.0
H140 H 0.57907 0.18116 0.83742 0.0
H141 H 0.57648 0.23052 0.94469 0.0
C142 C 0.03557 0.97264 1.00055 0.0
C143 C 0.98425 0.95344 0.08 0.0
C144 C 0.90713 0.05106 1.04183 0.0
C145 C 0.95572 0.06631 0.95797 0.0
N146 N 0.05092 1.02744 0.8388 0.0
N147 N 0.86143 0.97024 0.16177 0.0
C148 C 0.01403 1.02194 0.93043 0.0
C149 C 0.91704 0.99142 0.09649 0.0
N150 N 0.10817 0.94841 0.99678 0.0
N151 N 0.85175 0.09416 0.07003 0.0
H152 H 0.86581 0.92785 0.2041 0.0
H153 H 0.80788 0.99185 0.16755 0.0
H154 H 0.83928 0.13541 1.02707 0.0
H155 H 0.82068 0.09051 0.13779 0.0
H156 H 0.14913 0.96433 0.94456 0.0
H157 H 0.13143 0.91999 0.05443 0.0
H158 H 0.08926 0.99262 0.81232 0.0
H159 H 0.03714 0.06215 0.78434 0.0
C160 C 0.33635 0.73347 0.5385 0.0
C161 C 0.34181 0.77739 0.62232 0.0
C162 C 0.20051 0.79198 0.61443 0.0
C163 C 0.19651 0.75352 0.52539 0.0
N164 N 0.25993 0.68424 0.40456 0.0
N165 N 0.27547 0.85138 0.73647 0.0
C166 C 0.2641 0.72227 0.48942 0.0
C167 C 0.27283 0.80727 0.65917 0.0
N168 N 0.40105 0.70397 0.5029 0.0
N169 N 0.13376 0.81158 0.65941 0.0
H170 H 0.32318 0.85977 0.78052 0.0
H171 H 0.23066 0.88244 0.75472 0.0
H172 H 0.0804 0.79983 0.62978 0.0
H173 H 0.13034 0.83324 0.73088 0.0
H174 H 0.40119 0.66383 0.45542 0.0
H175 H 0.45584 0.71899 0.52178 0.0
H176 H 0.30668 0.66472 0.36644 0.0
H177 H 0.20865 0.67281 0.36959 0.0
C178 C 0.25924 0.28115 0.63369 0.0
C179 C 0.18896 0.31017 0.59984 0.0
C180 C 0.26431 0.35837 0.45591 0.0
C181 C 0.33372 0.33299 0.49652 0.0
N182 N 0.3959 0.29372 0.64645 0.0
N183 N 0.12895 0.38221 0.47884 0.0
C184 C 0.33039 0.30179 0.59213 0.0
C185 C 0.19318 0.35131 0.51178 0.0
N186 N 0.26035 0.23176 0.70297 0.0
N187 N 0.26525 0.38668 0.36173 0.0
H188 H 0.07482 0.37287 0.50845 0.0
H189 H 0.12971 0.41911 0.42461 0.0
H190 H 0.31546 0.39565 0.32149 0.0
H191 H 0.21627 0.39839 0.32109 0.0
H192 H 0.30962 0.20534 0.71893 0.0
H193 H 0.21294 0.21235 0.73826 0.0
H194 H 0.39647 0.27691 0.72155 0.0
H195 H 0.44776 0.31254 0.62114 0.0
C196 C 0.82734 0.24518 0.49027 0.0
C197 C 0.83 0.25612 0.59712 0.0
C198 C 0.69013 0.27243 0.59995 0.0
C199 C 0.68706 0.26535 0.49206 0.0
N200 N 0.75169 0.23775 0.33477 0.0
N201 N 0.76161 0.257 0.75635 0.0
C202 C 0.75535 0.24841 0.43758 0.0
C203 C 0.76059 0.26335 0.65254 0.0
N204 N 0.89416 0.23328 0.43932 0.0
N205 N 0.62526 0.28748 0.65288 0.0
H206 H 0.81114 0.24519 0.79585 0.0
H207 H 0.71299 0.25593 0.80223 0.0
H208 H 0.57161 0.28691 0.61958 0.0
H209 H 0.6248 0.30274 0.72852 0.0
H210 H 0.89869 0.22371 0.36189 0.0
H211 H 0.94689 0.23211 0.47568 0.0
H212 H 0.79605 0.21921 0.29085 0.0
H213 H 0.70294 0.24627 0.29178 0.0
C214 C 0.83522 0.85335 0.56387 0.0
C215 C 0.84097 0.80622 0.48414 0.0
C216 C 0.69982 0.79666 0.48857 0.0
C217 C 0.6952 0.83617 0.576 0.0
N218 N 0.75932 0.90154 0.70056 0.0
N219 N 0.77406 0.72322 0.387 0.0
C220 C 0.76301 0.8654 0.61349 0.0
C221 C 0.77207 0.77519 0.45116 0.0
N222 N 0.89939 0.88462 0.59596 0.0
N223 N 0.63394 0.77995 0.43998 0.0
H224 H 0.82282 0.70538 0.35245 0.0
H225 H 0.72669 0.69418 0.37322 0.0
H226 H 0.58047 0.79574 0.46523 0.0
H227 H 0.633 0.75715 0.36916 0.0
H228 H 0.89837 0.92595 0.64118 0.0
H229 H 0.95439 0.87018 0.57593 0.0
H230 H 0.80674 0.91892 0.73908 0.0
H231 H 0.70824 0.91217 0.73775 0.0
C232 C 0.32533 0.80264 1.02018 0.0
C233 C 0.35749 0.86508 1.01521 0.0
C234 C 0.28812 0.89544 0.17035 0.0
C235 C 0.2566 0.83246 0.17149 0.0
N236 N 0.28531 0.72058 0.13847 0.0
N237 N 0.39052 0.96268 0.10464 0.0
C238 C 0.29027 0.78404 0.11086 0.0
C239 C 0.34458 0.90991 0.09542 0.0
N240 N 0.33379 0.75966 0.94192 0.0
N241 N 0.26656 0.93999 0.24137 0.0
H242 H 0.42823 0.97698 1.04693 0.0
H243 H 0.39493 0.98848 0.17257 0.0
H244 H 0.23489 0.92751 0.30601 0.0
H245 H 0.28257 0.98843 0.23755 0.0
H246 H 0.30713 0.71455 0.94157 0.0
H247 H 0.36272 0.77134 0.87476 0.0
H248 H 0.31219 0.68356 0.09802 0.0
H249 H 0.25887 0.70655 0.20633 0.0
C250 C 0.23527 0.15572 1.02108 0.0
C251 C 0.21213 0.20752 0.95774 0.0
C252 C 0.28847 0.28239 0.05438 0.0
C253 C 0.31817 0.23079 0.11167 0.0
N254 N 0.32854 0.11635 0.14179 0.0
N255 N 0.23411 0.31598 0.89589 0.0
C256 C 0.29429 0.16658 0.09295 0.0
C257 C 0.2471 0.26878 0.96642 0.0
N258 N 0.19849 0.09774 1.01562 0.0
N259 N 0.29636 0.3445 0.08763 0.0
H260 H 0.19616 0.30987 0.83593 0.0
H261 H 0.26606 0.35851 0.89373 0.0
H262 H 0.32127 0.35477 0.15768 0.0
H263 H 0.27009 0.38391 0.05241 0.0
H264 H 0.20581 0.06049 0.06839 0.0
H265 H 0.15812 0.08849 0.9595 0.0
H266 H 0.31727 0.06877 0.12245 0.0
H267 H 0.37041 0.12267 0.19711 0.0
C268 C 0.71816 0.43958 1.05121 0.0
C269 C 0.71935 0.41719 0.15285 0.0
C270 C 0.83079 0.3522 0.12005 0.0
C271 C 0.82016 0.36262 1.01166 0.0
N272 N 0.75375 0.41821 0.87543 0.0
N273 N 0.79762 0.38796 0.29204 0.0
C274 C 0.76511 0.40848 0.9775 0.0
C275 C 0.78299 0.38518 0.18995 0.0
N276 N 0.6651 0.4852 1.02605 0.0
N277 N 0.88662 0.31263 0.15772 0.0
H278 H 0.76272 0.41458 0.34134 0.0
H279 H 0.84741 0.37097 0.32575 0.0
H280 H 0.93157 0.29296 0.11692 0.0
H281 H 0.88904 0.29853 0.23364 0.0
H282 H 0.65652 0.50342 0.95311 0.0
H283 H 0.6309 0.50653 0.0823 0.0
H284 H 0.7128 0.4492 0.84552 0.0
H285 H 0.78207 0.39199 0.81894 0.0
C286 C 0.82104 0.64702 1.04999 0.0
C287 C 0.8355 0.6982 0.12001 0.0
C288 C 0.79179 0.77423 0.99851 0.0
C289 C 0.75915 0.72606 0.93681 0.0
N290 N 0.75343 0.61244 0.89648 0.0
N291 N 0.80294 0.80654 0.17216 0.0
C292 C 0.77585 0.66032 0.96073 0.0
C293 C 0.80413 0.7593 0.10014 0.0
N294 N 0.85301 0.58788 0.06709 0.0
N295 N 0.80627 0.83468 0.96134 0.0
H296 H 0.82368 0.79896 0.24544 0.0
H297 H 0.77672 0.85106 0.15827 0.0
H298 H 0.79877 0.84544 0.88423 0.0
H299 H 0.83167 0.87064 1.00541 0.0
H300 H 0.8506 0.54963 1.01569 0.0
H301 H 0.88373 0.57844 0.1335 0.0
H302 H 0.76309 0.56363 0.91064 0.0
H303 H 0.72786 0.62234 0.82656 0.0
loop_
_geom_bond_atom_site_label_1
_geom_bond_atom_site_label_2
_geom_bond_distance
_geom_bond_site_symmetry_2
_ccdc_geom_bond_type
Fe0 O2 1.918 . S
Fe0 O5 1.997 . S
Fe0 O6 2.002 . S
Fe0 O11 1.976 1_455 S
Fe0 O14 1.996 . S
Fe1 O2 1.918 1_655 S
Fe1 O9 1.997 1_655 S
Fe1 O12 1.996 . S
Fe1 O16 1.976 . S
Fe1 O19 2.002 1_655 S
O2 Fe0 1.918 . S
O2 Fe1 1.918 1_455 S
O2 Fe3 1.918 . S
Fe3 O2 1.918 . S
Fe3 O4 2.002 . S
Fe3 O13 1.976 . S
Fe3 O17 1.996 1_455 S
Fe3 O20 1.997 . S
O4 Fe3 2.002 . S
O4 C21 1.295 . S
O5 Fe0 1.997 . S
O5 C21 1.235 . S
O6 Fe0 2.002 . S
O6 C7 1.295 . S
C7 O6 1.295 . S
C7 O9 1.235 . S
C8 O13 1.287 . S
C8 O14 1.255 . S
O9 Fe1 1.997 1_455 S
O9 C7 1.235 . S
C10 O16 1.287 . S
C10 O17 1.255 . S
O11 Fe0 1.976 1_655 S
O11 C18 1.287 . S
O12 Fe1 1.996 . S
O12 C18 1.255 . S
O13 Fe3 1.976 . S
O13 C8 1.287 . S
O14 Fe0 1.996 . S
O14 C8 1.255 . S
C15 O19 1.295 . S
C15 O20 1.235 . S
O16 Fe1 1.976 . S
O16 C10 1.287 . S
O17 Fe3 1.996 1_655 S
O17 C10 1.255 . S
C18 O11 1.287 . S
C18 O12 1.255 . S
O19 Fe1 2.002 1_455 S
O19 C15 1.295 . S
O20 Fe3 1.997 . S
O20 C15 1.235 . S
C21 O4 1.295 . S
C21 O5 1.235 . S
Fe22 O24 1.918 . S
Fe22 O27 1.997 . S
Fe22 O28 2.002 . S
Fe22 O33 1.976 . S
Fe22 O36 1.996 . S
Fe23 O24 1.918 . S
Fe23 O31 1.997 . S
Fe23 O34 1.996 . S
Fe23 O38 1.976 . S
Fe23 O41 2.002 . S
O24 Fe22 1.918 . S
O24 Fe23 1.918 . S
O24 Fe25 1.918 . S
Fe25 O24 1.918 . S
Fe25 O26 2.002 . S
Fe25 O35 1.976 . S
Fe25 O39 1.996 . S
Fe25 O42 1.997 . S
O26 Fe25 2.002 . S
O26 C43 1.295 . S
O27 Fe22 1.997 . S
O27 C43 1.235 . S
O28 Fe22 2.002 . S
O28 C29 1.295 . S
C29 O28 1.295 . S
C29 O31 1.235 . S
C30 O35 1.287 . S
C30 O36 1.255 . S
O31 Fe23 1.997 . S
O31 C29 1.235 . S
C32 O38 1.287 . S
C32 O39 1.255 . S
O33 Fe22 1.976 . S
O33 C40 1.287 . S
O34 Fe23 1.996 . S
O34 C40 1.255 . S
O35 Fe25 1.976 . S
O35 C30 1.287 . S
O36 Fe22 1.996 . S
O36 C30 1.255 . S
C37 O41 1.295 . S
C37 O42 1.235 . S
O38 Fe23 1.976 . S
O38 C32 1.287 . S
O39 Fe25 1.996 . S
O39 C32 1.255 . S
C40 O33 1.287 . S
C40 O34 1.255 . S
O41 Fe23 2.002 . S
O41 C37 1.295 . S
O42 Fe25 1.997 . S
O42 C37 1.235 . S
C43 O26 1.295 . S
C43 O27 1.235 . S
Fe44 O46 1.918 . S
Fe44 O49 1.997 . S
Fe44 O50 2.002 1_455 S
Fe44 O55 1.976 . S
Fe44 O58 1.996 . S
Fe45 O46 1.918 1_655 S
Fe45 O53 1.997 . S
Fe45 O56 1.996 1_655 S
Fe45 O60 1.976 1_655 S
Fe45 O63 2.002 . S
O46 Fe44 1.918 . S
O46 Fe45 1.918 1_455 S
O46 Fe47 1.918 . S
Fe47 O46 1.918 . S
Fe47 O48 2.002 . S
Fe47 O57 1.976 . S
Fe47 O61 1.996 . S
Fe47 O64 1.994 1_455 S
O48 Fe47 2.002 . S
O48 C65 1.295 . S
O49 Fe44 1.997 . S
O49 C65 1.235 . S
O50 Fe44 2.002 1_655 S
O50 C51 1.295 . S
C51 O50 1.295 . S
C51 O53 1.235 . S
C52 O57 1.287 . S
C52 O58 1.255 . S
O53 Fe45 1.997 . S
O53 C51 1.235 . S
C54 O60 1.287 . S
C54 O61 1.255 . S
O55 Fe44 1.976 . S
O55 C62 1.287 . S
O56 Fe45 1.996 1_455 S
O56 C62 1.255 . S
O57 Fe47 1.976 . S
O57 C52 1.287 . S
O58 Fe44 1.996 . S
O58 C52 1.255 . S
C59 O63 1.295 . S
C59 O64 1.238 . S
O60 Fe45 1.976 1_455 S
O60 C54 1.287 . S
O61 Fe47 1.996 . S
O61 C54 1.255 . S
C62 O55 1.287 . S
C62 O56 1.255 . S
O63 Fe45 2.002 . S
O63 C59 1.295 . S
O64 Fe47 1.994 1_655 S
O64 C59 1.238 . S
C65 O48 1.295 . S
C65 O49 1.235 . S
Fe66 O68 1.918 . S
Fe66 O71 1.997 . S
Fe66 O72 2.002 . S
Fe66 O77 1.976 . S
Fe66 O80 1.996 . S
Fe67 O68 1.918 . S
Fe67 O75 1.997 . S
Fe67 O78 1.996 . S
Fe67 O82 1.976 . S
Fe67 O85 2.002 . S
O68 Fe66 1.918 . S
O68 Fe67 1.918 . S
O68 Fe69 1.918 . S
Fe69 O68 1.918 . S
Fe69 O70 2.002 . S
Fe69 O79 1.976 . S
Fe69 O83 1.996 . S
Fe69 O86 1.997 . S
O70 Fe69 2.002 . S
O70 C87 1.295 . S
O71 Fe66 1.997 . S
O71 C87 1.235 . S
O72 Fe66 2.002 . S
O72 C73 1.295 . S
C73 O72 1.295 . S
C73 O75 1.235 . S
C74 O79 1.287 . S
C74 O80 1.255 . S
O75 Fe67 1.997 . S
O75 C73 1.235 . S
C76 O82 1.287 . S
C76 O83 1.255 . S
O77 Fe66 1.976 . S
O77 C84 1.287 . S
O78 Fe67 1.996 . S
O78 C84 1.255 . S
O79 Fe69 1.976 . S
O79 C74 1.287 . S
O80 Fe66 1.996 . S
O80 C74 1.255 . S
C81 O85 1.295 . S
C81 O86 1.235 . S
O82 Fe67 1.976 . S
O82 C76 1.287 . S
O83 Fe69 1.996 . S
O83 C76 1.255 . S
C84 O77 1.287 . S
C84 O78 1.255 . S
O85 Fe67 2.002 . S
O85 C81 1.295 . S
O86 Fe69 1.997 . S
O86 C81 1.235 . S
C87 O70 1.295 . S
C87 O71 1.235 . S
C88 C89 1.363 . S
C88 C94 1.379 . S
C88 N96 1.356 . S
C89 C88 1.363 . S
C89 C95 1.363 1_556 S
C90 C91 1.363 . S
C90 C95 1.379 . S
C90 N97 1.356 1_455 S
C91 C90 1.363 . S
C91 C94 1.363 1_554 S
N92 C94 1.356 . S
N92 H104 0.984 . S
N92 H105 0.984 . S
N93 C95 1.356 1_655 S
N93 H98 0.984 . S
N93 H99 0.985 . S
C94 C88 1.379 . S
C94 C91 1.363 1_556 S
C94 N92 1.356 . S
C95 C89 1.363 1_554 S
C95 C90 1.379 . S
C95 N93 1.356 1_455 S
N96 C88 1.356 . S
N96 H102 0.984 . S
N96 H103 0.984 . S
N97 C90 1.356 1_655 S
N97 H100 0.984 . S
N97 H101 0.985 . S
H98 N93 0.984 . S
H99 N93 0.985 . S
H100 N97 0.984 . S
H101 N97 0.985 . S
H102 N96 0.984 . S
H103 N96 0.984 . S
H104 N92 0.984 . S
H105 N92 0.984 . S
C106 C107 1.363 . S
C106 C112 1.379 . S
C106 N114 1.356 . S
C107 C106 1.363 . S
C107 C113 1.363 1_554 S
C108 C109 1.363 . S
C108 C113 1.379 . S
C108 N115 1.356 . S
C109 C108 1.363 . S
C109 C112 1.363 1_556 S
N110 C112 1.356 . S
N110 H122 0.984 . S
N110 H123 0.985 . S
N111 C113 1.356 . S
N111 H116 0.984 . S
N111 H117 0.985 . S
C112 C106 1.379 . S
C112 C109 1.363 1_554 S
C112 N110 1.356 . S
C113 C107 1.363 1_556 S
C113 C108 1.379 . S
C113 N111 1.356 . S
N114 C106 1.356 . S
N114 H120 0.984 . S
N114 H121 0.984 . S
N115 C108 1.356 . S
N115 H118 0.984 . S
N115 H119 0.985 . S
H116 N111 0.984 . S
H117 N111 0.985 . S
H118 N115 0.984 . S
H119 N115 0.985 . S
H120 N114 0.984 . S
H121 N114 0.984 . S
H122 N110 0.984 . S
H123 N110 0.985 . S
C124 C125 1.363 . S
C124 C130 1.379 1_565 S
C124 N132 1.356 . S
C125 C124 1.363 . S
C125 C131 1.363 1_556 S
C126 C127 1.363 . S
C126 C131 1.379 1_545 S
C126 N133 1.356 . S
C127 C126 1.363 . S
C127 C130 1.363 1_554 S
N128 C130 1.356 . S
N128 H140 0.984 . S
N128 H141 0.985 . S
N129 C131 1.356 . S
N129 H134 0.984 . S
N129 H135 0.985 . S
C130 C124 1.379 1_545 S
C130 C127 1.363 1_556 S
C130 N128 1.356 . S
C131 C125 1.363 1_554 S
C131 C126 1.379 1_565 S
C131 N129 1.356 . S
N132 C124 1.356 . S
N132 H138 0.984 1_565 S
N132 H139 0.984 . S
N133 C126 1.356 . S
N133 H136 0.984 . S
N133 H137 0.985 . S
H134 N129 0.984 . S
H135 N129 0.985 . S
H136 N133 0.984 . S
H137 N133 0.985 . S
H138 N132 0.984 1_545 S
H139 N132 0.984 . S
H140 N128 0.984 . S
H141 N128 0.985 . S
C142 C143 1.363 1_556 S
C142 C148 1.379 1_565 S
C142 N150 1.356 . S
C143 C142 1.363 1_554 S
C143 C149 1.363 1_455 S
C144 C145 1.363 1_654 S
C144 C149 1.379 1_545 S
C144 N151 1.356 . S
C145 C144 1.363 1_456 S
C145 C148 1.363 . S
N146 C148 1.356 . S
N146 H158 0.984 . S
N146 H159 0.985 . S
N147 C149 1.356 . S
N147 H152 0.984 . S
N147 H153 0.985 . S
C148 C142 1.379 1_545 S
C148 C145 1.363 . S
C148 N146 1.356 . S
C149 C143 1.363 1_655 S
C149 C144 1.379 1_565 S
C149 N147 1.356 . S
N150 C142 1.356 . S
N150 H156 0.984 . S
N150 H157 0.984 1_556 S
N151 C144 1.356 . S
N151 H154 0.984 1_554 S
N151 H155 0.985 . S
H152 N147 0.984 . S
H153 N147 0.985 . S
H154 N151 0.984 1_556 S
H155 N151 0.985 . S
H156 N150 0.984 . S
H157 N150 0.984 1_554 S
H158 N146 0.984 . S
H159 N146 0.985 . S
C160 C161 1.363 . S
C160 C166 1.379 . S
C160 N168 1.356 . S
C161 C160 1.363 . S
C161 C167 1.363 . S
C162 C163 1.363 . S
C162 C167 1.379 . S
C162 N169 1.356 . S
C163 C162 1.363 . S
C163 C166 1.363 . S
N164 C166 1.356 . S
N164 H176 0.984 . S
N164 H177 0.985 . S
N165 C167 1.356 . S
N165 H170 0.984 . S
N165 H171 0.985 . S
C166 C160 1.379 . S
C166 C163 1.363 . S
C166 N164 1.356 . S
C167 C161 1.363 . S
C167 C162 1.379 . S
C167 N165 1.356 . S
N168 C160 1.356 . S
N168 H174 0.984 . S
N168 H175 0.984 . S
N169 C162 1.356 . S
N169 H172 0.984 . S
N169 H173 0.985 . S
H170 N165 0.984 . S
H171 N165 0.985 . S
H172 N169 0.984 . S
H173 N169 0.985 . S
H174 N168 0.984 . S
H175 N168 0.984 . S
H176 N164 0.984 . S
H177 N164 0.985 . S
C178 C179 1.363 . S
C178 C184 1.379 . S
C178 N186 1.356 . S
C179 C178 1.363 . S
C179 C185 1.363 . S
C180 C181 1.363 . S
C180 C185 1.379 . S
C180 N187 1.356 . S
C181 C180 1.363 . S
C181 C184 1.363 . S
N182 C184 1.356 . S
N182 H194 0.984 . S
N182 H195 0.985 . S
N183 C185 1.356 . S
N183 H188 0.984 . S
N183 H189 0.985 . S
C184 C178 1.379 . S
C184 C181 1.363 . S
C184 N182 1.356 . S
C185 C179 1.363 . S
C185 C180 1.379 . S
C185 N183 1.356 . S
N186 C178 1.356 . S
N186 H192 0.984 . S
N186 H193 0.984 . S
N187 C180 1.356 . S
N187 H190 0.984 . S
N187 H191 0.985 . S
H188 N183 0.984 . S
H189 N183 0.985 . S
H190 N187 0.984 . S
H191 N187 0.985 . S
H192 N186 0.984 . S
H193 N186 0.984 . S
H194 N182 0.984 . S
H195 N182 0.985 . S
C196 C197 1.363 . S
C196 C202 1.379 . S
C196 N204 1.356 . S
C197 C196 1.363 . S
C197 C203 1.363 . S
C198 C199 1.363 . S
C198 C203 1.379 . S
C198 N205 1.356 . S
C199 C198 1.363 . S
C199 C202 1.363 . S
N200 C202 1.356 . S
N200 H212 0.984 . S
N200 H213 0.985 . S
N201 C203 1.356 . S
N201 H206 0.984 . S
N201 H207 0.985 . S
C202 C196 1.379 . S
C202 C199 1.363 . S
C202 N200 1.356 . S
C203 C197 1.363 . S
C203 C198 1.379 . S
C203 N201 1.356 . S
N204 C196 1.356 . S
N204 H210 0.984 . S
N204 H211 0.984 . S
N205 C198 1.356 . S
N205 H208 0.984 . S
N205 H209 0.985 . S
H206 N201 0.984 . S
H207 N201 0.985 . S
H208 N205 0.984 . S
H209 N205 0.985 . S
H210 N204 0.984 . S
H211 N204 0.984 . S
H212 N200 0.984 . S
H213 N200 0.985 . S
C214 C215 1.363 . S
C214 C220 1.379 . S
C214 N222 1.356 . S
C215 C214 1.363 . S
C215 C221 1.363 . S
C216 C217 1.363 . S
C216 C221 1.379 . S
C216 N223 1.356 . S
C217 C216 1.363 . S
C217 C220 1.363 . S
N218 C220 1.356 . S
N218 H230 0.984 . S
N218 H231 0.985 . S
N219 C221 1.356 . S
N219 H224 0.984 . S
N219 H225 0.985 . S
C220 C214 1.379 . S
C220 C217 1.363 . S
C220 N218 1.356 . S
C221 C215 1.363 . S
C221 C216 1.379 . S
C221 N219 1.356 . S
N222 C214 1.356 . S
N222 H228 0.984 . S
N222 H229 0.984 . S
N223 C216 1.356 . S
N223 H226 0.984 . S
N223 H227 0.985 . S
H224 N219 0.984 . S
H225 N219 0.985 . S
H226 N223 0.984 . S
H227 N223 0.985 . S
H228 N222 0.984 . S
H229 N222 0.984 . S
H230 N218 0.984 . S
H231 N218 0.985 . S
C232 C233 1.363 . S
C232 C238 1.379 1_556 S
C232 N240 1.356 . S
C233 C232 1.363 . S
C233 C239 1.363 . S
C234 C235 1.363 . S
C234 C239 1.379 1_554 S
C234 N241 1.356 . S
C235 C234 1.363 . S
C235 C238 1.363 . S
N236 C238 1.356 . S
N236 H248 0.984 . S
N236 H249 0.985 . S
N237 C239 1.356 . S
N237 H242 0.984 . S
N237 H243 0.985 . S
C238 C232 1.379 1_554 S
C238 C235 1.363 . S
C238 N236 1.356 . S
C239 C233 1.363 . S
C239 C234 1.379 1_556 S
C239 N237 1.356 . S
N240 C232 1.356 . S
N240 H246 0.984 . S
N240 H247 0.984 . S
N241 C234 1.356 . S
N241 H244 0.984 . S
N241 H245 0.985 . S
H242 N237 0.984 . S
H243 N237 0.985 . S
H244 N241 0.984 . S
H245 N241 0.985 . S
H246 N240 0.984 . S
H247 N240 0.984 . S
H248 N236 0.984 . S
H249 N236 0.985 . S
C250 C251 1.363 . S
C250 C256 1.379 1_556 S
C250 N258 1.356 . S
C251 C250 1.363 . S
C251 C257 1.363 . S
C252 C253 1.363 . S
C252 C257 1.379 1_554 S
C252 N259 1.356 . S
C253 C252 1.363 . S
C253 C256 1.363 . S
N254 C256 1.356 . S
N254 H266 0.984 . S
N254 H267 0.985 . S
N255 C257 1.356 . S
N255 H260 0.984 . S
N255 H261 0.985 . S
C256 C250 1.379 1_554 S
C256 C253 1.363 . S
C256 N254 1.356 . S
C257 C251 1.363 . S
C257 C252 1.379 1_556 S
C257 N255 1.356 . S
N258 C250 1.356 . S
N258 H264 0.984 . S
N258 H265 0.984 . S
N259 C252 1.356 . S
N259 H262 0.984 . S
N259 H263 0.985 . S
H260 N255 0.984 . S
H261 N255 0.985 . S
H262 N259 0.984 . S
H263 N259 0.985 . S
H264 N258 0.984 . S
H265 N258 0.984 . S
H266 N254 0.984 . S
H267 N254 0.985 . S
C268 C269 1.363 . S
C268 C274 1.379 1_554 S
C268 N276 1.356 . S
C269 C268 1.363 . S
C269 C275 1.363 . S
C270 C271 1.363 . S
C270 C275 1.379 1_556 S
C270 N277 1.356 . S
C271 C270 1.363 . S
C271 C274 1.363 . S
N272 C274 1.356 . S
N272 H284 0.984 . S
N272 H285 0.985 . S
N273 C275 1.356 . S
N273 H278 0.984 . S
N273 H279 0.985 . S
C274 C268 1.379 1_556 S
C274 C271 1.363 . S
C274 N272 1.356 . S
C275 C269 1.363 . S
C275 C270 1.379 1_554 S
C275 N273 1.356 . S
N276 C268 1.356 . S
N276 H282 0.984 . S
N276 H283 0.984 . S
N277 C270 1.356 . S
N277 H280 0.984 . S
N277 H281 0.985 . S
H278 N273 0.984 . S
H279 N273 0.985 . S
H280 N277 0.984 . S
H281 N277 0.985 . S
H282 N276 0.984 . S
H283 N276 0.984 . S
H284 N272 0.984 . S
H285 N272 0.985 . S
C286 C287 1.363 . S
C286 C292 1.379 1_554 S
C286 N294 1.356 . S
C287 C286 1.363 . S
C287 C293 1.363 . S
C288 C289 1.363 . S
C288 C293 1.379 1_556 S
C288 N295 1.356 . S
C289 C288 1.363 . S
C289 C292 1.363 . S
N290 C292 1.356 . S
N290 H302 0.984 . S
N290 H303 0.985 . S
N291 C293 1.356 . S
N291 H296 0.984 . S
N291 H297 0.985 . S
C292 C286 1.379 1_556 S
C292 C289 1.363 . S
C292 N290 1.356 . S
C293 C287 1.363 . S
C293 C288 1.379 1_554 S
C293 N291 1.356 . S
N294 C286 1.356 . S
N294 H300 0.984 . S
N294 H301 0.984 . S
N295 C288 1.356 . S
N295 H298 0.984 . S
N295 H299 0.985 . S
H296 N291 0.984 . S
H297 N291 0.985 . S
H298 N295 0.984 . S
H299 N295 0.985 . S
H300 N294 0.984 . S
H301 N294 0.984 . S
H302 N290 0.984 . S
H303 N290 0.985 . S
C89 C62 1.571 . S
C91 C15 1.551 . S
C107 C40 1.571 . S
C109 C81 1.551 . S
C125 C74 1.571 . S
C127 C43 1.551 . S
C143 C8 1.571 . S
C145 C65 1.551 . S
C161 C73 2.147 . S
C163 C7 2.147 . S
C179 C54 2.100 . S
C181 C32 2.100 . S
C197 C59 2.147 . S
C199 C37 2.147 . S
C215 C18 2.100 . S
C217 C84 2.100 . S
C233 C87 0.748 . S
C235 C21 0.748 . S
C251 C52 0.641 . S
C253 C30 0.641 . S
C269 C29 0.748 . S
C271 C51 0.748 . S
C287 C10 0.641 . S
C289 C76 0.641 . S
