# Generated by pormake.
# Topology pyr-e, (6)-cn, num edge types: 1
# Building blocks:
#     Node 0, Type 0, BuildingBlock: IZENUY_clean_sbu_0, # of connection points: 6
#     Node 1, Type 0, BuildingBlock: IZENUY_clean_sbu_0, # of connection points: 6
#     Node 2, Type 0, BuildingBlock: IZENUY_clean_sbu_0, # of connection points: 6
#     Node 3, Type 0, BuildingBlock: IZENUY_clean_sbu_0, # of connection points: 6
#     Node 4, Type 0, BuildingBlock: IZENUY_clean_sbu_0, # of connection points: 6
#     Node 5, Type 0, BuildingBlock: IZENUY_clean_sbu_0, # of connection points: 6
#     Node 6, Type 0, BuildingBlock: IZENUY_clean_sbu_0, # of connection points: 6
#     Node 7, Type 0, BuildingBlock: IZENUY_clean_sbu_0, # of connection points: 6
#     Node 8, Type 0, BuildingBlock: IZENUY_clean_sbu_0, # of connection points: 6
#     Node 9, Type 0, BuildingBlock: IZENUY_clean_sbu_0, # of connection points: 6
#     Node 10, Type 0, BuildingBlock: IZENUY_clean_sbu_0, # of connection points: 6
#     Node 11, Type 0, BuildingBlock: IZENUY_clean_sbu_0, # of connection points: 6
#     Node 12, Type 0, BuildingBlock: IZENUY_clean_sbu_0, # of connection points: 6
#     Node 13, Type 0, BuildingBlock: IZENUY_clean_sbu_0, # of connection points: 6
#     Node 14, Type 0, BuildingBlock: IZENUY_clean_sbu_0, # of connection points: 6
#     Node 15, Type 0, BuildingBlock: IZENUY_clean_sbu_0, # of connection points: 6
#     Node 16, Type 0, BuildingBlock: IZENUY_clean_sbu_0, # of connection points: 6
#     Node 17, Type 0, BuildingBlock: IZENUY_clean_sbu_0, # of connection points: 6
#     Node 18, Type 0, BuildingBlock: IZENUY_clean_sbu_0, # of connection points: 6
#     Node 19, Type 0, BuildingBlock: IZENUY_clean_sbu_0, # of connection points: 6
#     Node 20, Type 0, BuildingBlock: IZENUY_clean_sbu_0, # of connection points: 6
#     Node 21, Type 0, BuildingBlock: IZENUY_clean_sbu_0, # of connection points: 6
#     Node 22, Type 0, BuildingBlock: IZENUY_clean_sbu_0, # of connection points: 6
#     Node 23, Type 0, BuildingBlock: IZENUY_clean_sbu_0, # of connection points: 6
#     Edge 24, Type (0, 0), None
#     Edge 25, Type (0, 0), None
#     Edge 26, Type (0, 0), None
#     Edge 27, Type (0, 0), None
#     Edge 28, Type (0, 0), None
#     Edge 29, Type (0, 0), None
#     Edge 30, Type (0, 0), None
#     Edge 31, Type (0, 0), None
#     Edge 32, Type (0, 0), None
#     Edge 33, Type (0, 0), None
#     Edge 34, Type (0, 0), None
#     Edge 35, Type (0, 0), None
#     Edge 36, Type (0, 0), None
#     Edge 37, Type (0, 0), None
#     Edge 38, Type (0, 0), None
#     Edge 39, Type (0, 0), None
#     Edge 40, Type (0, 0), None
#     Edge 41, Type (0, 0), None
#     Edge 42, Type (0, 0), None
#     Edge 43, Type (0, 0), None
#     Edge 44, Type (0, 0), None
#     Edge 45, Type (0, 0), None
#     Edge 46, Type (0, 0), None
#     Edge 47, Type (0, 0), None
#     Edge 48, Type (0, 0), None
#     Edge 49, Type (0, 0), None
#     Edge 50, Type (0, 0), None
#     Edge 51, Type (0, 0), None
#     Edge 52, Type (0, 0), None
#     Edge 53, Type (0, 0), None
#     Edge 54, Type (0, 0), None
#     Edge 55, Type (0, 0), None
#     Edge 56, Type (0, 0), None
#     Edge 57, Type (0, 0), None
#     Edge 58, Type (0, 0), None
#     Edge 59, Type (0, 0), None
#     Edge 60, Type (0, 0), None
#     Edge 61, Type (0, 0), None
#     Edge 62, Type (0, 0), None
#     Edge 63, Type (0, 0), None
#     Edge 64, Type (0, 0), None
#     Edge 65, Type (0, 0), None
#     Edge 66, Type (0, 0), None
#     Edge 67, Type (0, 0), None
#     Edge 68, Type (0, 0), None
#     Edge 69, Type (0, 0), None
#     Edge 70, Type (0, 0), None
#     Edge 71, Type (0, 0), None
#     Edge 72, Type (0, 0), None
#     Edge 73, Type (0, 0), None
#     Edge 74, Type (0, 0), None
#     Edge 75, Type (0, 0), None
#     Edge 76, Type (0, 0), None
#     Edge 77, Type (0, 0), None
#     Edge 78, Type (0, 0), None
#     Edge 79, Type (0, 0), None
#     Edge 80, Type (0, 0), None
#     Edge 81, Type (0, 0), None
#     Edge 82, Type (0, 0), None
#     Edge 83, Type (0, 0), None
#     Edge 84, Type (0, 0), None
#     Edge 85, Type (0, 0), None
#     Edge 86, Type (0, 0), None
#     Edge 87, Type (0, 0), None
#     Edge 88, Type (0, 0), None
#     Edge 89, Type (0, 0), None
#     Edge 90, Type (0, 0), None
#     Edge 91, Type (0, 0), None
#     Edge 92, Type (0, 0), None
#     Edge 93, Type (0, 0), None
#     Edge 94, Type (0, 0), None
#     Edge 95, Type (0, 0), None
# Relax obj value: 0.537
# Max RMSD: 0.235
# Mean RMSD: 0.235
data_MOF--net-pyr-e--node1-IZENUY_clean_sbu_0--edge1-none
_symmetry_space_group_name_H-M    P1
_symmetry_Int_Tables_number       1
_symmetry_cell_setting            triclinic
loop_
_symmetry_equiv_pos_as_xyz
'x, y, z'
_cell_length_a     21.734597
_cell_length_b     21.897629
_cell_length_c     21.411308
_cell_angle_alpha  90.000101
_cell_angle_beta   90.000194
_cell_angle_gamma 90.000023
loop_
_atom_site_label
_atom_site_type_symbol
_atom_site_fract_x
_atom_site_fract_y
_atom_site_fract_z
_atom_type_partial_charge
Fe0 Fe 0.10667 0.27459 0.11326 0.0
Fe1 Fe 0.01902 0.21847 0.01076 0.0
O2 O 0.0446 0.27873 0.06036 0.0
Fe3 Fe 0.00161 0.34356 0.06177 0.0
O4 O 0.07056 0.39284 0.07056 0.0
O5 O 0.15109 0.33227 0.07431 0.0
O6 O 0.14875 0.22056 0.0644 0.0
C7 C 0.13676 0.17461 0.03044 0.0
C8 C 0.02136 0.34824 0.18405 0.0
O9 O 0.08351 0.16596 0.0123 0.0
C10 C 0.90761 0.2851 0.01007 0.0
O11 O 0.06595 0.21515 0.15247 0.0
O12 O 0.99214 0.17849 0.08505 0.0
O13 O 0.98516 0.33304 0.1428 0.0
O14 O 0.07735 0.33356 0.17396 0.0
C15 C 0.04691 0.32059 0.93976 0.0
O16 O 0.94222 0.24912 0.98154 0.0
O17 O 0.92931 0.30468 0.05902 0.0
C18 C 0.02094 0.18 0.13965 0.0
O19 O 0.05365 0.26212 0.94514 0.0
O20 O 0.01319 0.35173 0.9774 0.0
C21 C 0.12879 0.38404 0.06595 0.0
Fe22 Fe 0.48325 0.77634 0.51077 0.0
Fe23 Fe 0.50067 0.65125 0.56177 0.0
O24 O 0.45767 0.71608 0.56036 0.0
Fe25 Fe 0.3956 0.72023 0.61326 0.0
O26 O 0.35352 0.77425 0.5644 0.0
O27 O 0.41876 0.82885 0.5123 0.0
O28 O 0.44862 0.73269 0.44514 0.0
C29 C 0.45536 0.67423 0.43976 0.0
C30 C 0.48133 0.81481 0.63965 0.0
O31 O 0.48908 0.64308 0.4774 0.0
C32 C 0.48091 0.64657 0.68405 0.0
O33 O 0.56005 0.74569 0.48154 0.0
O34 O 0.57296 0.69013 0.55902 0.0
O35 O 0.43632 0.77966 0.65247 0.0
O36 O 0.51013 0.81632 0.58505 0.0
C37 C 0.37348 0.61077 0.56595 0.0
O38 O 0.51711 0.66177 0.6428 0.0
O39 O 0.42492 0.66125 0.67396 0.0
C40 C 0.59466 0.70971 0.51007 0.0
O41 O 0.43171 0.60197 0.57056 0.0
O42 O 0.35118 0.66254 0.57431 0.0
C43 C 0.36551 0.8202 0.53044 0.0
Fe44 Fe 0.60668 0.22023 0.90414 0.0
Fe45 Fe 0.51902 0.27634 1.00664 0.0
O46 O 0.5446 0.21608 0.95704 0.0
Fe47 Fe 0.50161 0.15125 0.95564 0.0
O48 O 0.57056 0.10197 0.94684 0.0
O49 O 0.65109 0.16254 0.9431 0.0
O50 O 0.64875 0.27425 0.95301 0.0
C51 C 0.63676 0.3202 0.98697 0.0
C52 C 0.52136 0.14657 0.83335 0.0
O53 O 0.58352 0.32885 1.0051 0.0
C54 C 0.40762 0.20971 1.00734 0.0
O55 O 0.56595 0.27967 0.86494 0.0
O56 O 0.49214 0.31632 0.93236 0.0
O57 O 0.48516 0.16177 0.8746 0.0
O58 O 0.57735 0.16125 0.84345 0.0
C59 C 0.54691 0.17423 0.07765 0.0
O60 O 0.44222 0.24569 0.03587 0.0
O61 O 0.42931 0.19013 0.95839 0.0
C62 C 0.52095 0.31482 0.87775 0.0
O63 O 0.55365 0.23269 0.07226 0.0
O64 O 0.51319 0.14308 0.04 0.0
C65 C 0.62879 0.11077 0.95146 0.0
Fe66 Fe 0.98326 0.71847 0.50664 0.0
Fe67 Fe 1.00067 0.84356 0.45564 0.0
O68 O 0.95767 0.77873 0.45705 0.0
Fe69 Fe 0.8956 0.77459 0.40414 0.0
O70 O 0.85353 0.72056 0.45301 0.0
O71 O 0.91876 0.66596 0.5051 0.0
O72 O 0.94862 0.76212 0.57226 0.0
C73 C 0.95536 0.82059 0.57765 0.0
C74 C 0.98133 0.68 0.37775 0.0
O75 O 0.98908 0.85173 0.54 0.0
C76 C 0.98092 0.84824 0.33335 0.0
O77 O 0.06006 0.74912 0.53587 0.0
O78 O 0.07296 0.80468 0.45839 0.0
O79 O 0.93633 0.71515 0.36494 0.0
O80 O 0.01014 0.67849 0.43236 0.0
C81 C 0.87348 0.88404 0.45146 0.0
O82 O 0.01712 0.83304 0.37461 0.0
O83 O 0.92493 0.83356 0.34345 0.0
C84 C 0.09466 0.7851 0.50734 0.0
O85 O 0.93171 0.89284 0.44685 0.0
O86 O 0.85119 0.83227 0.4431 0.0
C87 C 0.86551 0.67461 0.48697 0.0
Fe88 Fe 0.02795 0.00174 0.36223 0.0
Fe89 Fe 0.09559 0.10034 0.28776 0.0
O90 O 0.04357 0.03861 0.29175 0.0
Fe91 Fe 0.00322 0.01122 0.22327 0.0
O92 O 0.93165 0.04664 0.25578 0.0
O93 O 0.94605 -0.00216 0.3431 0.0
O94 O 0.01233 0.07074 0.40413 0.0
C95 C 0.03283 0.12452 0.39989 0.0
C96 C 0.00547 0.9027 0.29753 0.0
O97 O 0.06983 0.14017 0.35778 0.0
C98 C 0.12733 0.02002 0.18873 0.0
O99 O 0.10454 -0.00018 0.39154 0.0
O100 O 0.15959 0.06012 0.33182 0.0
O101 O 0.97856 0.933 0.2552 0.0
O102 O 0.04701 0.93063 0.3254 0.0
C103 C 0.01517 0.13337 0.19005 0.0
O104 O 0.12817 0.07029 0.21775 0.0
O105 O 0.07946 0.98375 0.19034 0.0
C106 C 0.15578 0.02052 0.37566 0.0
O107 O 0.03813 0.14611 0.24349 0.0
O108 O 0.01247 0.07859 0.17413 0.0
C109 C 0.91581 0.03686 0.31229 0.0
Fe110 Fe 0.49906 0.98359 0.72327 0.0
Fe111 Fe 0.47432 0.99307 0.86224 0.0
O112 O 0.4587 0.9562 0.79175 0.0
Fe113 Fe 0.40668 0.89447 0.78775 0.0
O114 O 0.46414 0.8487 0.74349 0.0
O115 O 0.4898 0.91622 0.67413 0.0
O116 O 0.57062 0.94817 0.75578 0.0
C117 C 0.58646 0.95795 0.81229 0.0
C118 C 0.37494 0.97479 0.68873 0.0
O119 O 0.55623 0.99697 0.8431 0.0
C120 C 0.34649 0.97429 0.87566 0.0
O121 O 0.52372 0.06181 0.7552 0.0
O122 O 0.45526 0.06418 0.82541 0.0
O123 O 0.37411 0.92453 0.71774 0.0
O124 O 0.42281 0.01106 0.69034 0.0
C125 C 0.46944 0.87029 0.89989 0.0
O126 O 0.39773 0.99499 0.89154 0.0
O127 O 0.34269 0.9347 0.83182 0.0
C128 C 0.4968 0.09211 0.79754 0.0
O129 O 0.48995 0.92407 0.90413 0.0
O130 O 0.43244 0.85464 0.85778 0.0
C131 C 0.4871 0.86145 0.69005 0.0
Fe132 Fe 0.50322 0.48359 0.79413 0.0
Fe133 Fe 0.52795 0.49307 0.65517 0.0
O134 O 0.54357 0.4562 0.72565 0.0
Fe135 Fe 0.59559 0.39447 0.72965 0.0
O136 O 0.53813 0.3487 0.77391 0.0
O137 O 0.51248 0.41622 0.84327 0.0
O138 O 0.43165 0.44817 0.76162 0.0
C139 C 0.41581 0.45795 0.70511 0.0
C140 C 0.62733 0.47479 0.82867 0.0
O141 O 0.44605 0.49697 0.67431 0.0
C142 C 0.65578 0.47429 0.64174 0.0
O143 O 0.47855 0.56181 0.76221 0.0
O144 O 0.54701 0.56418 0.692 0.0
O145 O 0.62817 0.42453 0.79966 0.0
O146 O 0.57946 0.51106 0.82707 0.0
C147 C 0.53283 0.37029 0.61752 0.0
O148 O 0.60454 0.49499 0.62587 0.0
O149 O 0.65959 0.4347 0.68559 0.0
C150 C 0.50547 0.59211 0.71987 0.0
O151 O 0.51233 0.42407 0.61328 0.0
O152 O 0.56983 0.35464 0.65963 0.0
C153 C 0.51517 0.36145 0.82736 0.0
Fe154 Fe 0.90668 0.60034 0.22965 0.0
Fe155 Fe 0.99906 0.51122 0.29413 0.0
O156 O 0.9587 0.53861 0.22565 0.0
Fe157 Fe 0.97432 0.50174 0.15517 0.0
O158 O 0.98995 0.57074 0.11328 0.0
O159 O 0.93244 0.64017 0.15963 0.0
O160 O 0.96415 0.64611 0.27391 0.0
C161 C 0.98711 0.63337 0.32736 0.0
C162 C 0.84649 0.52052 0.14174 0.0
O163 O 0.9898 0.57859 0.34327 0.0
C164 C 0.9968 0.4027 0.21987 0.0
O165 O 0.87411 0.57029 0.29966 0.0
O166 O 0.92281 0.48376 0.32707 0.0
O167 O 0.89773 0.49982 0.12587 0.0
O168 O 0.84269 0.56012 0.18558 0.0
C169 C 0.08646 0.53686 0.20511 0.0
O170 O 0.02372 0.433 0.26221 0.0
O171 O 0.95526 0.43063 0.192 0.0
C172 C 0.87494 0.52002 0.32867 0.0
O173 O 0.07062 0.54664 0.26162 0.0
O174 O 0.05623 0.49784 0.17431 0.0
C175 C 0.96944 0.62452 0.11752 0.0
Fe176 Fe 0.28049 0.10169 0.11477 0.0
Fe177 Fe 0.22845 -3e-05 0.02462 0.0
O178 O 0.286 0.05133 0.05035 0.0
Fe179 Fe 0.34892 0.05987 1.00382 0.0
O180 O 0.39798 0.06805 0.07302 0.0
O181 O 0.33864 0.06272 0.15708 0.0
O182 O 0.22446 0.05536 0.1575 0.0
C183 C 0.18181 0.01772 0.14557 0.0
C184 C 0.35106 0.17662 0.03096 0.0
O185 O 0.17854 0.99402 0.09296 0.0
C186 C 0.29362 0.00537 0.90938 0.0
O187 O 0.22164 0.13883 0.07396 0.0
O188 O 0.18137 0.07105 1.00248 0.0
O189 O 0.33153 0.13934 0.99267 0.0
O190 O 0.33921 0.16274 0.08745 0.0
C191 C 0.33891 0.93644 0.04309 0.0
O192 O 0.25843 0.97627 0.94472 0.0
O193 O 0.30621 0.05573 0.93165 0.0
C194 C 0.18334 0.12466 0.03153 0.0
O195 O 0.27985 0.93773 0.05328 0.0
O196 O 0.36651 0.97823 0.01211 0.0
C197 C 0.38988 0.05749 0.13154 0.0
Fe198 Fe 0.78049 0.39312 0.90263 0.0
Fe199 Fe 0.72845 0.49484 0.99278 0.0
O200 O 0.786 0.44348 0.96705 0.0
Fe201 Fe 0.84892 0.43494 0.01358 0.0
O202 O 0.89798 0.42676 0.94439 0.0
O203 O 0.83865 0.43209 0.86033 0.0
O204 O 0.72447 0.43946 0.8599 0.0
C205 C 0.68181 0.4771 0.87183 0.0
C206 C 0.85106 0.31819 0.98644 0.0
O207 O 0.67854 0.50079 0.92444 0.0
C208 C 0.79362 0.48944 0.10803 0.0
O209 O 0.72163 0.35599 0.94344 0.0
O210 O 0.68137 0.42377 0.01493 0.0
O211 O 0.83153 0.35547 0.02474 0.0
O212 O 0.83921 0.33207 0.92995 0.0
C213 C 0.83891 0.55837 0.97431 0.0
O214 O 0.75843 0.51854 0.07268 0.0
O215 O 0.80621 0.43908 0.08575 0.0
C216 C 0.68334 0.37016 0.98588 0.0
O217 O 0.77985 0.55709 0.96412 0.0
O218 O 0.86651 0.51659 1.00529 0.0
C219 C 0.88988 0.43732 0.88586 0.0
Fe220 Fe 0.65335 0.55987 0.51358 0.0
Fe221 Fe 0.72179 0.60169 0.40263 0.0
O222 O 0.71628 0.55133 0.46705 0.0
Fe223 Fe 0.77382 0.49998 0.49278 0.0
O224 O 0.72242 0.43773 0.46412 0.0
O225 O 0.63576 0.47823 0.50529 0.0
O226 O 0.60429 0.56805 0.44439 0.0
C227 C 0.61239 0.55749 0.38586 0.0
C228 C 0.70866 0.50537 0.60803 0.0
O229 O 0.66363 0.56272 0.36033 0.0
C230 C 0.81893 0.62466 0.48588 0.0
O231 O 0.67074 0.63934 0.52474 0.0
O232 O 0.66306 0.66274 0.42995 0.0
O233 O 0.74384 0.47627 0.57268 0.0
O234 O 0.69607 0.55573 0.58575 0.0
C235 C 0.82046 0.51772 0.37183 0.0
O236 O 0.78063 0.63883 0.44345 0.0
O237 O 0.8209 0.57105 0.51493 0.0
C238 C 0.65121 0.67662 0.48644 0.0
O239 O 0.77781 0.55536 0.3599 0.0
O240 O 0.82373 0.49402 0.42444 0.0
C241 C 0.66336 0.43644 0.47431 0.0
Fe242 Fe 0.22179 0.89312 0.61478 0.0
Fe243 Fe 0.27382 0.99484 0.52462 0.0
O244 O 0.21628 0.94348 0.55036 0.0
Fe245 Fe 0.15335 0.93494 0.50382 0.0
O246 O 0.10429 0.92676 0.57302 0.0
O247 O 0.16363 0.9321 0.65708 0.0
O248 O 0.27781 0.93946 0.65751 0.0
C249 C 0.32046 0.9771 0.64557 0.0
C250 C 0.15121 0.81819 0.53097 0.0
O251 O 0.32373 0.00079 0.59296 0.0
C252 C 0.20866 0.98944 0.40938 0.0
O253 O 0.28064 0.85599 0.57397 0.0
O254 O 0.3209 0.92376 0.50248 0.0
O255 O 0.17074 0.85547 0.49267 0.0
O256 O 0.16306 0.83207 0.58745 0.0
C257 C 0.16336 0.05837 0.54309 0.0
O258 O 0.24384 0.01854 0.44472 0.0
O259 O 0.19607 0.93908 0.43165 0.0
C260 C 0.31893 0.87016 0.53153 0.0
O261 O 0.22242 0.05709 0.55329 0.0
O262 O 0.13576 0.01659 0.51211 0.0
C263 C 0.11239 0.93732 0.63154 0.0
Fe264 Fe 0.89849 0.71236 0.89001 0.0
Fe265 Fe 0.00738 0.64987 0.93635 0.0
O266 O 0.96015 0.71092 0.94446 0.0
Fe267 Fe 0.98358 0.77145 0.99429 0.0
O268 O 0.91101 0.80775 1.007 0.0
O269 O 0.85758 0.77497 0.92771 0.0
O270 O 0.85531 0.65874 0.936 0.0
C271 C 0.87919 0.60797 0.95002 0.0
C272 C 0.97281 0.81134 0.86395 0.0
O273 O 0.93719 0.59745 0.93928 0.0
C274 C 0.09919 0.71517 0.9822 0.0
O275 O 0.92427 0.6474 0.83679 0.0
O276 O 0.01433 0.66602 0.8538 0.0
O277 O 0.99497 0.81949 0.92076 0.0
O278 O 0.94165 0.76547 0.84605 0.0
C279 C 0.98302 0.66459 0.06463 0.0
O280 O 0.07596 0.69576 0.93339 0.0
O281 O 0.0663 0.75319 0.00967 0.0
C282 C 0.97912 0.63913 0.8193 0.0
O283 O 0.00821 0.63669 0.01937 0.0
O284 O 0.9672 0.72122 0.06191 0.0
C285 C 0.86486 0.81046 0.97359 0.0
Fe286 Fe 0.60378 0.28245 0.39001 0.0
Fe287 Fe 0.4949 0.34494 0.43635 0.0
O288 O 0.54213 0.28389 0.44446 0.0
Fe289 Fe 0.51869 0.22336 0.49428 0.0
O290 O 0.59126 0.18706 0.507 0.0
O291 O 0.6447 0.21984 0.42771 0.0
O292 O 0.64696 0.33607 0.436 0.0
C293 C 0.62309 0.38684 0.45002 0.0
C294 C 0.52947 0.18347 0.36395 0.0
O295 O 0.56508 0.39736 0.43928 0.0
C296 C 0.40308 0.27964 0.4822 0.0
O297 O 0.57801 0.34741 0.33679 0.0
O298 O 0.48795 0.32879 0.3538 0.0
O299 O 0.50731 0.17532 0.42076 0.0
O300 O 0.56063 0.22934 0.34605 0.0
C301 C 0.51925 0.33022 0.56464 0.0
O302 O 0.42632 0.29905 0.43339 0.0
O303 O 0.43597 0.24162 0.50967 0.0
C304 C 0.52316 0.35568 0.3193 0.0
O305 O 0.49406 0.35812 0.51938 0.0
O306 O 0.53507 0.27359 0.56191 0.0
C307 C 0.63742 0.18435 0.47359 0.0
Fe308 Fe 0.50738 0.84494 0.08106 0.0
Fe309 Fe 0.48358 0.72336 0.02312 0.0
O310 O 0.46015 0.78389 0.07295 0.0
Fe311 Fe 0.39849 0.78245 0.1274 0.0
O312 O 0.35531 0.83607 0.0814 0.0
O313 O 0.43719 0.89736 0.07812 0.0
O314 O 0.50821 0.85812 0.99803 0.0
C315 C 0.48302 0.83022 0.95277 0.0
C316 C 0.47911 0.85568 0.1981 0.0
O317 O 0.4672 0.77359 0.9555 0.0
C318 C 0.4728 0.68347 0.15346 0.0
O319 O 0.57596 0.79905 0.08401 0.0
O320 O 0.5663 0.74162 1.00773 0.0
O321 O 0.42427 0.84741 0.18061 0.0
O322 O 0.51433 0.82879 0.1636 0.0
C323 C 0.36486 0.68435 0.04381 0.0
O324 O 0.49497 0.67532 0.09665 0.0
O325 O 0.44164 0.72934 0.17136 0.0
C326 C 0.59919 0.77964 0.0352 0.0
O327 O 0.41101 0.68706 0.01041 0.0
O328 O 0.35758 0.71984 0.08969 0.0
C329 C 0.37919 0.88684 0.06739 0.0
Fe330 Fe 0.10378 0.21236 0.6274 0.0
Fe331 Fe 0.9949 0.14987 0.58106 0.0
O332 O 0.04213 0.21092 0.57295 0.0
Fe333 Fe 0.01869 0.27145 0.52312 0.0
O334 O 0.09126 0.30775 0.51041 0.0
O335 O 0.14469 0.27497 0.5897 0.0
O336 O 0.14696 0.15874 0.58141 0.0
C337 C 0.12309 0.10797 0.56739 0.0
C338 C 0.02947 0.31134 0.65346 0.0
O339 O 0.06508 0.09745 0.57812 0.0
C340 C 0.90308 0.21517 0.5352 0.0
O341 O 0.07801 0.1474 0.68061 0.0
O342 O 0.98795 0.16602 0.6636 0.0
O343 O 0.00731 0.31949 0.59665 0.0
O344 O 0.06063 0.26547 0.67136 0.0
C345 C 0.01925 0.16459 0.45277 0.0
O346 O 0.92632 0.19576 0.58402 0.0
O347 O 0.93597 0.25319 0.50773 0.0
C348 C 0.02316 0.13913 0.6981 0.0
O349 O 0.99406 0.13669 0.49803 0.0
O350 O 0.03507 0.22122 0.4555 0.0
C351 C 0.13742 0.31046 0.54381 0.0
Fe352 Fe 0.87312 0.9037 0.72791 0.0
Fe353 Fe 0.94486 0.98074 0.64342 0.0
O354 O 0.93754 0.95129 0.71742 0.0
Fe355 Fe 0.98733 0.97428 0.77833 0.0
O356 O 0.00333 0.89757 0.80408 0.0
O357 O 0.90854 0.86363 0.79471 0.0
O358 O 0.90724 0.84439 0.67726 0.0
C359 C 0.91924 0.85877 0.62161 0.0
C360 C 0.86146 0.97434 0.82699 0.0
O361 O 0.90966 0.91361 0.60545 0.0
C362 C 1.00106 0.07676 0.71006 0.0
O363 O 0.82443 0.93937 0.66446 0.0
O364 O 0.8754 0.0227 0.65986 0.0
O365 O 0.92032 0.97961 0.83577 0.0
O366 O 0.83993 0.96036 0.77532 0.0
C367 C 0.05802 0.94543 0.66801 0.0
O368 O 0.98809 0.04822 0.6615 0.0
O369 O 0.98169 0.05661 0.76167 0.0
C370 C 0.8268 0.99539 0.64746 0.0
O371 O 0.01217 0.94153 0.63339 0.0
O372 O 0.056 0.96608 0.72462 0.0
C373 C 0.96194 0.86114 0.81951 0.0
Fe374 Fe 0.51494 0.02054 0.27833 0.0
Fe375 Fe 0.62915 0.09111 0.22791 0.0
O376 O 0.56473 0.04352 0.21742 0.0
Fe377 Fe 0.55741 0.01407 0.14342 0.0
O378 O 0.4901 0.05329 0.13339 0.0
O379 O 0.44627 0.02873 0.22462 0.0
O380 O 0.49894 0.09724 0.30408 0.0
C381 C 0.54033 0.13367 0.31951 0.0
C382 C 0.50121 0.91805 0.21006 0.0
O383 O 0.59373 0.13118 0.29471 0.0
C384 C 0.67547 -0.00058 0.14746 0.0
O385 O 0.58195 0.0152 0.33577 0.0
O386 O 0.66234 0.03445 0.27532 0.0
O387 O 0.51418 0.94659 0.1615 0.0
O388 O 0.52058 0.9382 0.26167 0.0
C389 C 0.58303 0.13604 0.12161 0.0
O390 O 0.67784 0.05544 0.16446 0.0
O391 O 0.62687 0.97211 0.15986 0.0
C392 C 0.64081 0.02047 0.32699 0.0
O393 O 0.59503 0.15042 0.17726 0.0
O394 O 0.59261 0.0812 0.10545 0.0
C395 C 0.44425 0.04938 0.16801 0.0
Fe396 Fe 0.37312 0.59111 0.2895 0.0
Fe397 Fe 0.44486 0.51407 0.37398 0.0
O398 O 0.43755 0.54352 0.29998 0.0
Fe399 Fe 0.48733 0.52054 0.23908 0.0
O400 O 0.50333 0.59724 0.21333 0.0
O401 O 0.40854 0.63118 0.22269 0.0
O402 O 0.40724 0.65042 0.34015 0.0
C403 C 0.41924 0.63604 0.39579 0.0
C404 C 0.36146 0.52047 0.19042 0.0
O405 O 0.40966 0.5812 0.41196 0.0
C406 C 0.50106 0.41805 0.30735 0.0
O407 O 0.32443 0.55544 0.35295 0.0
O408 O 0.3754 0.47211 0.35754 0.0
O409 O 0.42032 0.5152 0.18164 0.0
O410 O 0.33993 0.53445 0.24209 0.0
C411 C 0.55803 0.54938 0.3494 0.0
O412 O 0.4881 0.44659 0.3559 0.0
O413 O 0.48169 0.4382 0.25574 0.0
C414 C 0.3268 0.49942 0.36995 0.0
O415 O 0.51217 0.55329 0.38402 0.0
O416 O 0.556 0.52873 0.29279 0.0
C417 C 0.46194 0.63367 0.1979 0.0
Fe418 Fe 0.01494 0.47428 0.73908 0.0
Fe419 Fe 0.12915 0.4037 0.7895 0.0
O420 O 0.06473 0.45129 0.79998 0.0
Fe421 Fe 0.05741 0.48074 0.87398 0.0
O422 O 0.99011 0.44153 0.88402 0.0
O423 O 0.94627 0.46608 0.79279 0.0
O424 O 0.99894 0.39757 0.71333 0.0
C425 C 0.04033 0.36114 0.6979 0.0
C426 C 0.00121 0.57676 0.80735 0.0
O427 O 0.09373 0.36363 0.72269 0.0
C428 C 0.17547 0.49539 0.86995 0.0
O429 O 0.08195 0.47961 0.68164 0.0
O430 O 0.16234 0.46036 0.74209 0.0
O431 O 0.01418 0.54822 0.8559 0.0
O432 O 0.02058 0.55661 0.75574 0.0
C433 C 0.08303 0.35877 0.89579 0.0
O434 O 0.17784 0.43937 0.85295 0.0
O435 O 0.12687 0.5227 0.85754 0.0
C436 C 0.14081 0.47434 0.69042 0.0
O437 O 0.09503 0.34439 0.84015 0.0
O438 O 0.09261 0.41361 0.91196 0.0
C439 C 0.94425 0.44543 0.8494 0.0
Fe440 Fe 0.72294 0.86764 0.90891 0.0
Fe441 Fe 0.63383 0.94565 0.97444 0.0
O442 O 0.70962 0.93072 0.95704 0.0
Fe443 Fe 0.7686 0.97797 0.98775 0.0
O444 O 0.79926 0.99663 0.91291 0.0
O445 O 0.79278 0.90384 0.87314 0.0
O446 O 0.67886 0.90232 0.84295 0.0
C447 C 0.62285 0.91424 0.85121 0.0
C448 C 0.81518 0.85335 0.98839 0.0
O449 O 0.6036 0.9063 0.90582 0.0
C450 C 0.69265 0.98513 0.08408 0.0
O451 O 0.65751 0.81938 0.94341 0.0
O452 O 0.63063 0.87872 0.02136 0.0
O453 O 0.82422 0.91125 0.99478 0.0
O454 O 0.76475 0.83351 0.9704 0.0
C455 C 0.66869 0.05705 0.9481 0.0
O456 O 0.64898 0.98755 0.0456 0.0
O457 O 0.7443 0.96506 0.06791 0.0
C458 C 0.63513 0.82592 0.99899 0.0
O459 O 0.63953 0.01199 0.92872 0.0
O460 O 0.71878 0.04981 0.98003 0.0
C461 C 0.81849 0.95671 0.87628 0.0
Fe462 Fe 0.13383 0.54916 0.04296 0.0
Fe463 Fe 0.2686 0.51684 0.02965 0.0
O464 O 0.20962 0.56409 0.06036 0.0
Fe465 Fe 0.22294 0.62717 0.10849 0.0
O466 O 0.17886 0.59249 0.17446 0.0
O467 O 0.1036 0.5885 0.11159 0.0
O468 O 0.13953 0.48282 0.08869 0.0
C469 C 0.16869 0.43776 0.06931 0.0
C470 C 0.13513 0.66889 0.01842 0.0
O471 O 0.21878 0.445 0.03738 0.0
C472 C 0.31518 0.64146 0.02902 0.0
O473 O 0.14898 0.50726 0.97181 0.0
O474 O 0.2443 0.52975 0.9495 0.0
O475 O 0.15751 0.67543 0.07399 0.0
O476 O 0.13063 0.61609 0.99605 0.0
C477 C 0.31849 0.5381 0.14113 0.0
O478 O 0.32422 0.58356 0.02263 0.0
O479 O 0.26475 0.6613 0.04701 0.0
C480 C 0.19265 0.50968 0.93332 0.0
O481 O 0.29926 0.49818 0.1045 0.0
O482 O 0.29278 0.59096 0.14427 0.0
C483 C 0.12285 0.58057 0.1662 0.0
Fe484 Fe 0.27933 0.36764 0.60849 0.0
Fe485 Fe 0.36844 0.44565 0.54296 0.0
O486 O 0.29265 0.43072 0.56036 0.0
Fe487 Fe 0.23367 0.47797 0.52965 0.0
O488 O 0.20301 0.49663 0.6045 0.0
O489 O 0.20949 0.40384 0.64427 0.0
O490 O 0.32341 0.40232 0.67446 0.0
C491 C 0.37942 0.41424 0.6662 0.0
C492 C 0.18709 0.35334 0.52902 0.0
O493 O 0.39867 0.4063 0.61159 0.0
C494 C 0.30962 0.48513 0.43332 0.0
O495 O 0.34476 0.31938 0.57399 0.0
O496 O 0.37164 0.37872 0.49604 0.0
O497 O 0.17805 0.41125 0.52263 0.0
O498 O 0.23752 0.33351 0.54701 0.0
C499 C 0.33358 0.55705 0.56931 0.0
O500 O 0.35329 0.48755 0.47181 0.0
O501 O 0.25797 0.46506 0.4495 0.0
C502 C 0.36714 0.32592 0.51842 0.0
O503 O 0.36274 0.51199 0.58869 0.0
O504 O 0.28349 0.54981 0.53738 0.0
C505 C 0.18378 0.45671 0.64113 0.0
Fe506 Fe 0.73367 0.01684 0.48775 0.0
Fe507 Fe 0.77933 0.12717 0.40891 0.0
O508 O 0.79265 0.06409 0.45704 0.0
Fe509 Fe 0.86844 0.04916 0.47444 0.0
O510 O 0.86274 0.98282 0.42872 0.0
O511 O 0.78349 0.945 0.48003 0.0
O512 O 0.70301 -0.00182 0.41291 0.0
C513 C 0.68378 0.0381 0.37628 0.0
C514 C 0.80962 0.00968 0.58408 0.0
O515 O 0.70949 0.09096 0.37314 0.0
C516 C 0.86714 0.16889 0.49899 0.0
O517 O 0.67805 0.08356 0.49477 0.0
O518 O 0.73752 0.1613 0.47039 0.0
O519 O 0.85329 0.00726 0.5456 0.0
O520 O 0.75797 0.02975 0.5679 0.0
C521 C 0.87942 0.08057 0.35121 0.0
O522 O 0.84476 0.17543 0.44341 0.0
O523 O 0.87164 0.11609 0.52136 0.0
C524 C 0.68709 0.14146 0.48839 0.0
O525 O 0.82341 0.09249 0.34295 0.0
O526 O 0.89867 0.0885 0.40582 0.0
C527 C 0.83358 0.93776 0.4481 0.0
loop_
_geom_bond_atom_site_label_1
_geom_bond_atom_site_label_2
_geom_bond_distance
_geom_bond_site_symmetry_2
_ccdc_geom_bond_type
Fe0 O2 1.918 . S
Fe0 O5 1.997 . S
Fe0 O6 2.002 . S
Fe0 O11 1.976 . S
Fe0 O14 1.996 . S
Fe1 O2 1.918 . S
Fe1 O9 1.997 . S
Fe1 O12 1.996 1_455 S
Fe1 O16 1.976 1_455 S
Fe1 O19 2.002 1_554 S
O2 Fe0 1.918 . S
O2 Fe1 1.918 . S
O2 Fe3 1.918 . S
Fe3 O2 1.918 . S
Fe3 O4 2.002 . S
Fe3 O13 1.976 1_455 S
Fe3 O17 1.996 1_455 S
Fe3 O20 1.997 1_554 S
O4 Fe3 2.002 . S
O4 C21 1.295 . S
O5 Fe0 1.997 . S
O5 C21 1.235 . S
O6 Fe0 2.002 . S
O6 C7 1.295 . S
C7 O6 1.295 . S
C7 O9 1.235 . S
C8 O13 1.287 1_455 S
C8 O14 1.255 . S
O9 Fe1 1.997 . S
O9 C7 1.235 . S
C10 O16 1.287 . S
C10 O17 1.255 . S
O11 Fe0 1.976 . S
O11 C18 1.287 . S
O12 Fe1 1.996 1_655 S
O12 C18 1.255 1_655 S
O13 Fe3 1.976 1_655 S
O13 C8 1.287 1_655 S
O14 Fe0 1.996 . S
O14 C8 1.255 . S
C15 O19 1.295 . S
C15 O20 1.235 . S
O16 Fe1 1.976 1_655 S
O16 C10 1.287 . S
O17 Fe3 1.996 1_655 S
O17 C10 1.255 . S
C18 O11 1.287 . S
C18 O12 1.255 1_455 S
O19 Fe1 2.002 1_556 S
O19 C15 1.295 . S
O20 Fe3 1.997 1_556 S
O20 C15 1.235 . S
C21 O4 1.295 . S
C21 O5 1.235 . S
Fe22 O24 1.918 . S
Fe22 O27 1.997 . S
Fe22 O28 2.002 . S
Fe22 O33 1.976 . S
Fe22 O36 1.996 . S
Fe23 O24 1.918 . S
Fe23 O31 1.997 . S
Fe23 O34 1.996 . S
Fe23 O38 1.976 . S
Fe23 O41 2.002 . S
O24 Fe22 1.918 . S
O24 Fe23 1.918 . S
O24 Fe25 1.918 . S
Fe25 O24 1.918 . S
Fe25 O26 2.002 . S
Fe25 O35 1.976 . S
Fe25 O39 1.996 . S
Fe25 O42 1.997 . S
O26 Fe25 2.002 . S
O26 C43 1.295 . S
O27 Fe22 1.997 . S
O27 C43 1.235 . S
O28 Fe22 2.002 . S
O28 C29 1.295 . S
C29 O28 1.295 . S
C29 O31 1.235 . S
C30 O35 1.287 . S
C30 O36 1.255 . S
O31 Fe23 1.997 . S
O31 C29 1.235 . S
C32 O38 1.287 . S
C32 O39 1.255 . S
O33 Fe22 1.976 . S
O33 C40 1.287 . S
O34 Fe23 1.996 . S
O34 C40 1.255 . S
O35 Fe25 1.976 . S
O35 C30 1.287 . S
O36 Fe22 1.996 . S
O36 C30 1.255 . S
C37 O41 1.295 . S
C37 O42 1.235 . S
O38 Fe23 1.976 . S
O38 C32 1.287 . S
O39 Fe25 1.996 . S
O39 C32 1.255 . S
C40 O33 1.287 . S
C40 O34 1.255 . S
O41 Fe23 2.002 . S
O41 C37 1.295 . S
O42 Fe25 1.997 . S
O42 C37 1.235 . S
C43 O26 1.295 . S
C43 O27 1.235 . S
Fe44 O46 1.918 . S
Fe44 O49 1.997 . S
Fe44 O50 2.002 . S
Fe44 O55 1.976 . S
Fe44 O58 1.996 . S
Fe45 O46 1.918 . S
Fe45 O53 1.997 . S
Fe45 O56 1.996 . S
Fe45 O60 1.976 . S
Fe45 O63 2.002 1_556 S
O46 Fe44 1.918 . S
O46 Fe45 1.918 . S
O46 Fe47 1.918 . S
Fe47 O46 1.918 . S
Fe47 O48 2.002 . S
Fe47 O57 1.976 . S
Fe47 O61 1.996 . S
Fe47 O64 1.997 1_556 S
O48 Fe47 2.002 . S
O48 C65 1.295 . S
O49 Fe44 1.997 . S
O49 C65 1.235 . S
O50 Fe44 2.002 . S
O50 C51 1.295 . S
C51 O50 1.295 . S
C51 O53 1.235 . S
C52 O57 1.287 . S
C52 O58 1.255 . S
O53 Fe45 1.997 . S
O53 C51 1.235 . S
C54 O60 1.287 . S
C54 O61 1.255 . S
O55 Fe44 1.976 . S
O55 C62 1.287 . S
O56 Fe45 1.996 . S
O56 C62 1.255 . S
O57 Fe47 1.976 . S
O57 C52 1.287 . S
O58 Fe44 1.996 . S
O58 C52 1.255 . S
C59 O63 1.295 . S
C59 O64 1.235 . S
O60 Fe45 1.976 . S
O60 C54 1.287 . S
O61 Fe47 1.996 . S
O61 C54 1.255 . S
C62 O55 1.287 . S
C62 O56 1.255 . S
O63 Fe45 2.002 1_554 S
O63 C59 1.295 . S
O64 Fe47 1.997 1_554 S
O64 C59 1.235 . S
C65 O48 1.295 . S
C65 O49 1.235 . S
Fe66 O68 1.918 . S
Fe66 O71 1.997 . S
Fe66 O72 2.002 . S
Fe66 O77 1.976 1_655 S
Fe66 O80 1.996 1_655 S
Fe67 O68 1.918 . S
Fe67 O75 1.997 . S
Fe67 O78 1.996 1_655 S
Fe67 O82 1.976 1_655 S
Fe67 O85 2.002 . S
O68 Fe66 1.918 . S
O68 Fe67 1.918 . S
O68 Fe69 1.918 . S
Fe69 O68 1.918 . S
Fe69 O70 2.002 . S
Fe69 O79 1.976 . S
Fe69 O83 1.996 . S
Fe69 O86 1.997 . S
O70 Fe69 2.002 . S
O70 C87 1.295 . S
O71 Fe66 1.997 . S
O71 C87 1.235 . S
O72 Fe66 2.002 . S
O72 C73 1.295 . S
C73 O72 1.295 . S
C73 O75 1.235 . S
C74 O79 1.287 . S
C74 O80 1.255 1_655 S
O75 Fe67 1.997 . S
O75 C73 1.235 . S
C76 O82 1.287 1_655 S
C76 O83 1.255 . S
O77 Fe66 1.976 1_455 S
O77 C84 1.287 . S
O78 Fe67 1.996 1_455 S
O78 C84 1.255 . S
O79 Fe69 1.976 . S
O79 C74 1.287 . S
O80 Fe66 1.996 1_455 S
O80 C74 1.255 1_455 S
C81 O85 1.295 . S
C81 O86 1.235 . S
O82 Fe67 1.976 1_455 S
O82 C76 1.287 1_455 S
O83 Fe69 1.996 . S
O83 C76 1.255 . S
C84 O77 1.287 . S
C84 O78 1.255 . S
O85 Fe67 2.002 . S
O85 C81 1.295 . S
O86 Fe69 1.997 . S
O86 C81 1.235 . S
C87 O70 1.295 . S
C87 O71 1.235 . S
Fe88 O90 1.918 . S
Fe88 O93 1.997 1_455 S
Fe88 O94 2.002 . S
Fe88 O99 1.976 1_545 S
Fe88 O102 1.996 1_545 S
Fe89 O90 1.918 . S
Fe89 O97 1.997 . S
Fe89 O100 1.996 . S
Fe89 O104 1.976 . S
Fe89 O107 2.002 . S
O90 Fe88 1.918 . S
O90 Fe89 1.918 . S
O90 Fe91 1.918 . S
Fe91 O90 1.918 . S
Fe91 O92 2.002 1_455 S
Fe91 O101 1.976 1_545 S
Fe91 O105 1.996 1_545 S
Fe91 O108 1.997 . S
O92 Fe91 2.002 1_655 S
O92 C109 1.295 . S
O93 Fe88 1.997 1_655 S
O93 C109 1.235 . S
O94 Fe88 2.002 . S
O94 C95 1.295 . S
C95 O94 1.295 . S
C95 O97 1.235 . S
C96 O101 1.287 . S
C96 O102 1.255 . S
O97 Fe89 1.997 . S
O97 C95 1.235 . S
C98 O104 1.287 . S
C98 O105 1.255 1_545 S
O99 Fe88 1.976 1_565 S
O99 C106 1.287 1_565 S
O100 Fe89 1.996 . S
O100 C106 1.255 . S
O101 Fe91 1.976 1_565 S
O101 C96 1.287 . S
O102 Fe88 1.996 1_565 S
O102 C96 1.255 . S
C103 O107 1.295 . S
C103 O108 1.235 . S
O104 Fe89 1.976 . S
O104 C98 1.287 . S
O105 Fe91 1.996 1_565 S
O105 C98 1.255 1_565 S
C106 O99 1.287 1_545 S
C106 O100 1.255 . S
O107 Fe89 2.002 . S
O107 C103 1.295 . S
O108 Fe91 1.997 . S
O108 C103 1.235 . S
C109 O92 1.295 . S
C109 O93 1.235 . S
Fe110 O112 1.918 . S
Fe110 O115 1.997 . S
Fe110 O116 2.002 . S
Fe110 O121 1.976 1_565 S
Fe110 O124 1.996 1_565 S
Fe111 O112 1.918 . S
Fe111 O119 1.997 . S
Fe111 O122 1.996 1_565 S
Fe111 O126 1.976 1_565 S
Fe111 O129 2.002 . S
O112 Fe110 1.918 . S
O112 Fe111 1.918 . S
O112 Fe113 1.918 . S
Fe113 O112 1.918 . S
Fe113 O114 2.002 . S
Fe113 O123 1.976 . S
Fe113 O127 1.996 . S
Fe113 O130 1.997 . S
O114 Fe113 2.002 . S
O114 C131 1.295 . S
O115 Fe110 1.997 . S
O115 C131 1.235 . S
O116 Fe110 2.002 . S
O116 C117 1.295 . S
C117 O116 1.295 . S
C117 O119 1.235 . S
C118 O123 1.287 . S
C118 O124 1.255 1_565 S
O119 Fe111 1.997 . S
O119 C117 1.235 . S
C120 O126 1.287 1_565 S
C120 O127 1.255 . S
O121 Fe110 1.976 1_545 S
O121 C128 1.287 . S
O122 Fe111 1.996 1_545 S
O122 C128 1.255 . S
O123 Fe113 1.976 . S
O123 C118 1.287 . S
O124 Fe110 1.996 1_545 S
O124 C118 1.255 1_545 S
C125 O129 1.295 . S
C125 O130 1.235 . S
O126 Fe111 1.976 1_545 S
O126 C120 1.287 1_545 S
O127 Fe113 1.996 . S
O127 C120 1.255 . S
C128 O121 1.287 . S
C128 O122 1.255 . S
O129 Fe111 2.002 . S
O129 C125 1.295 . S
O130 Fe113 1.997 . S
O130 C125 1.235 . S
C131 O114 1.295 . S
C131 O115 1.235 . S
Fe132 O134 1.918 . S
Fe132 O137 1.997 . S
Fe132 O138 2.002 . S
Fe132 O143 1.976 . S
Fe132 O146 1.996 . S
Fe133 O134 1.918 . S
Fe133 O141 1.997 . S
Fe133 O144 1.996 . S
Fe133 O148 1.976 . S
Fe133 O151 2.002 . S
O134 Fe132 1.918 . S
O134 Fe133 1.918 . S
O134 Fe135 1.918 . S
Fe135 O134 1.918 . S
Fe135 O136 2.002 . S
Fe135 O145 1.976 . S
Fe135 O149 1.996 . S
Fe135 O152 1.997 . S
O136 Fe135 2.002 . S
O136 C153 1.295 . S
O137 Fe132 1.997 . S
O137 C153 1.235 . S
O138 Fe132 2.002 . S
O138 C139 1.295 . S
C139 O138 1.295 . S
C139 O141 1.235 . S
C140 O145 1.287 . S
C140 O146 1.255 . S
O141 Fe133 1.997 . S
O141 C139 1.235 . S
C142 O148 1.287 . S
C142 O149 1.255 . S
O143 Fe132 1.976 . S
O143 C150 1.287 . S
O144 Fe133 1.996 . S
O144 C150 1.255 . S
O145 Fe135 1.976 . S
O145 C140 1.287 . S
O146 Fe132 1.996 . S
O146 C140 1.255 . S
C147 O151 1.295 . S
C147 O152 1.235 . S
O148 Fe133 1.976 . S
O148 C142 1.287 . S
O149 Fe135 1.996 . S
O149 C142 1.255 . S
C150 O143 1.287 . S
C150 O144 1.255 . S
O151 Fe133 2.002 . S
O151 C147 1.295 . S
O152 Fe135 1.997 . S
O152 C147 1.235 . S
C153 O136 1.295 . S
C153 O137 1.235 . S
Fe154 O156 1.918 . S
Fe154 O159 1.997 . S
Fe154 O160 2.002 . S
Fe154 O165 1.976 . S
Fe154 O168 1.996 . S
Fe155 O156 1.918 . S
Fe155 O163 1.997 . S
Fe155 O166 1.996 . S
Fe155 O170 1.976 . S
Fe155 O173 2.002 1_655 S
O156 Fe154 1.918 . S
O156 Fe155 1.918 . S
O156 Fe157 1.918 . S
Fe157 O156 1.918 . S
Fe157 O158 2.002 . S
Fe157 O167 1.976 . S
Fe157 O171 1.996 . S
Fe157 O174 1.997 1_655 S
O158 Fe157 2.002 . S
O158 C175 1.295 . S
O159 Fe154 1.997 . S
O159 C175 1.235 . S
O160 Fe154 2.002 . S
O160 C161 1.295 . S
C161 O160 1.295 . S
C161 O163 1.235 . S
C162 O167 1.287 . S
C162 O168 1.255 . S
O163 Fe155 1.997 . S
O163 C161 1.235 . S
C164 O170 1.287 . S
C164 O171 1.255 . S
O165 Fe154 1.976 . S
O165 C172 1.287 . S
O166 Fe155 1.996 . S
O166 C172 1.255 . S
O167 Fe157 1.976 . S
O167 C162 1.287 . S
O168 Fe154 1.996 . S
O168 C162 1.255 . S
C169 O173 1.295 . S
C169 O174 1.235 . S
O170 Fe155 1.976 . S
O170 C164 1.287 . S
O171 Fe157 1.996 . S
O171 C164 1.255 . S
C172 O165 1.287 . S
C172 O166 1.255 . S
O173 Fe155 2.002 1_455 S
O173 C169 1.295 . S
O174 Fe157 1.997 1_455 S
O174 C169 1.235 . S
C175 O158 1.295 . S
C175 O159 1.235 . S
Fe176 O178 1.918 . S
Fe176 O181 1.997 . S
Fe176 O182 2.002 . S
Fe176 O187 1.976 . S
Fe176 O190 1.996 . S
Fe177 O178 1.918 . S
Fe177 O185 1.997 . S
Fe177 O188 1.996 1_554 S
Fe177 O192 1.976 1_554 S
Fe177 O195 2.002 1_545 S
O178 Fe176 1.918 . S
O178 Fe177 1.918 . S
O178 Fe179 1.918 . S
Fe179 O178 1.918 . S
Fe179 O180 2.002 . S
Fe179 O189 1.976 1_554 S
Fe179 O193 1.996 1_554 S
Fe179 O196 1.997 1_545 S
O180 Fe179 2.002 . S
O180 C197 1.295 . S
O181 Fe176 1.997 . S
O181 C197 1.235 . S
O182 Fe176 2.002 . S
O182 C183 1.295 . S
C183 O182 1.295 . S
C183 O185 1.235 . S
C184 O189 1.287 1_554 S
C184 O190 1.255 . S
O185 Fe177 1.997 . S
O185 C183 1.235 . S
C186 O192 1.287 . S
C186 O193 1.255 . S
O187 Fe176 1.976 . S
O187 C194 1.287 . S
O188 Fe177 1.996 1_556 S
O188 C194 1.255 1_556 S
O189 Fe179 1.976 1_556 S
O189 C184 1.287 1_556 S
O190 Fe176 1.996 . S
O190 C184 1.255 . S
C191 O195 1.295 . S
C191 O196 1.235 . S
O192 Fe177 1.976 1_556 S
O192 C186 1.287 . S
O193 Fe179 1.996 1_556 S
O193 C186 1.255 . S
C194 O187 1.287 . S
C194 O188 1.255 1_554 S
O195 Fe177 2.002 1_565 S
O195 C191 1.295 . S
O196 Fe179 1.997 1_565 S
O196 C191 1.235 . S
C197 O180 1.295 . S
C197 O181 1.235 . S
Fe198 O200 1.918 . S
Fe198 O203 1.997 . S
Fe198 O204 2.002 . S
Fe198 O209 1.976 . S
Fe198 O212 1.996 . S
Fe199 O200 1.918 . S
Fe199 O207 1.997 . S
Fe199 O210 1.996 1_556 S
Fe199 O214 1.976 1_556 S
Fe199 O217 2.002 . S
O200 Fe198 1.918 . S
O200 Fe199 1.918 . S
O200 Fe201 1.918 . S
Fe201 O200 1.918 . S
Fe201 O202 2.002 . S
Fe201 O211 1.976 1_556 S
Fe201 O215 1.996 1_556 S
Fe201 O218 1.997 . S
O202 Fe201 2.002 . S
O202 C219 1.295 . S
O203 Fe198 1.997 . S
O203 C219 1.235 . S
O204 Fe198 2.002 . S
O204 C205 1.295 . S
C205 O204 1.295 . S
C205 O207 1.235 . S
C206 O211 1.287 1_556 S
C206 O212 1.255 . S
O207 Fe199 1.997 . S
O207 C205 1.235 . S
C208 O214 1.287 . S
C208 O215 1.255 . S
O209 Fe198 1.976 . S
O209 C216 1.287 . S
O210 Fe199 1.996 1_554 S
O210 C216 1.255 1_554 S
O211 Fe201 1.976 1_554 S
O211 C206 1.287 1_554 S
O212 Fe198 1.996 . S
O212 C206 1.255 . S
C213 O217 1.295 . S
C213 O218 1.235 . S
O214 Fe199 1.976 1_554 S
O214 C208 1.287 . S
O215 Fe201 1.996 1_554 S
O215 C208 1.255 . S
C216 O209 1.287 . S
C216 O210 1.255 1_556 S
O217 Fe199 2.002 . S
O217 C213 1.295 . S
O218 Fe201 1.997 . S
O218 C213 1.235 . S
C219 O202 1.295 . S
C219 O203 1.235 . S
Fe220 O222 1.918 . S
Fe220 O225 1.997 . S
Fe220 O226 2.002 . S
Fe220 O231 1.976 . S
Fe220 O234 1.996 . S
Fe221 O222 1.918 . S
Fe221 O229 1.997 . S
Fe221 O232 1.996 . S
Fe221 O236 1.976 . S
Fe221 O239 2.002 . S
O222 Fe220 1.918 . S
O222 Fe221 1.918 . S
O222 Fe223 1.918 . S
Fe223 O222 1.918 . S
Fe223 O224 2.002 . S
Fe223 O233 1.976 . S
Fe223 O237 1.996 . S
Fe223 O240 1.997 . S
O224 Fe223 2.002 . S
O224 C241 1.295 . S
O225 Fe220 1.997 . S
O225 C241 1.235 . S
O226 Fe220 2.002 . S
O226 C227 1.295 . S
C227 O226 1.295 . S
C227 O229 1.235 . S
C228 O233 1.287 . S
C228 O234 1.255 . S
O229 Fe221 1.997 . S
O229 C227 1.235 . S
C230 O236 1.287 . S
C230 O237 1.255 . S
O231 Fe220 1.976 . S
O231 C238 1.287 . S
O232 Fe221 1.996 . S
O232 C238 1.255 . S
O233 Fe223 1.976 . S
O233 C228 1.287 . S
O234 Fe220 1.996 . S
O234 C228 1.255 . S
C235 O239 1.295 . S
C235 O240 1.235 . S
O236 Fe221 1.976 . S
O236 C230 1.287 . S
O237 Fe223 1.996 . S
O237 C230 1.255 . S
C238 O231 1.287 . S
C238 O232 1.255 . S
O239 Fe221 2.002 . S
O239 C235 1.295 . S
O240 Fe223 1.997 . S
O240 C235 1.235 . S
C241 O224 1.295 . S
C241 O225 1.235 . S
Fe242 O244 1.918 . S
Fe242 O247 1.997 . S
Fe242 O248 2.002 . S
Fe242 O253 1.976 . S
Fe242 O256 1.996 . S
Fe243 O244 1.918 . S
Fe243 O251 1.997 . S
Fe243 O254 1.996 . S
Fe243 O258 1.976 . S
Fe243 O261 2.002 1_565 S
O244 Fe242 1.918 . S
O244 Fe243 1.918 . S
O244 Fe245 1.918 . S
Fe245 O244 1.918 . S
Fe245 O246 2.002 . S
Fe245 O255 1.976 . S
Fe245 O259 1.996 . S
Fe245 O262 1.997 1_565 S
O246 Fe245 2.002 . S
O246 C263 1.295 . S
O247 Fe242 1.997 . S
O247 C263 1.235 . S
O248 Fe242 2.002 . S
O248 C249 1.295 . S
C249 O248 1.295 . S
C249 O251 1.235 . S
C250 O255 1.287 . S
C250 O256 1.255 . S
O251 Fe243 1.997 . S
O251 C249 1.235 . S
C252 O258 1.287 . S
C252 O259 1.255 . S
O253 Fe242 1.976 . S
O253 C260 1.287 . S
O254 Fe243 1.996 . S
O254 C260 1.255 . S
O255 Fe245 1.976 . S
O255 C250 1.287 . S
O256 Fe242 1.996 . S
O256 C250 1.255 . S
C257 O261 1.295 . S
C257 O262 1.235 . S
O258 Fe243 1.976 . S
O258 C252 1.287 . S
O259 Fe245 1.996 . S
O259 C252 1.255 . S
C260 O253 1.287 . S
C260 O254 1.255 . S
O261 Fe243 2.002 1_545 S
O261 C257 1.295 . S
O262 Fe245 1.997 1_545 S
O262 C257 1.235 . S
C263 O246 1.295 . S
C263 O247 1.235 . S
Fe264 O266 1.918 . S
Fe264 O269 1.997 . S
Fe264 O270 2.002 . S
Fe264 O275 1.976 . S
Fe264 O278 1.996 . S
Fe265 O266 1.918 . S
Fe265 O273 1.997 . S
Fe265 O276 1.996 1_655 S
Fe265 O280 1.976 1_655 S
Fe265 O283 2.002 1_556 S
O266 Fe264 1.918 . S
O266 Fe265 1.918 . S
O266 Fe267 1.918 . S
Fe267 O266 1.918 . S
Fe267 O268 2.001 1_556 S
Fe267 O277 1.976 1_655 S
Fe267 O281 1.996 1_656 S
Fe267 O284 1.997 1_556 S
O268 Fe267 2.001 1_554 S
O268 C285 1.285 1_554 S
O269 Fe264 1.997 . S
O269 C285 1.235 . S
O270 Fe264 2.002 . S
O270 C271 1.295 . S
C271 O270 1.295 . S
C271 O273 1.235 . S
C272 O277 1.287 1_655 S
C272 O278 1.255 . S
O273 Fe265 1.997 . S
O273 C271 1.235 . S
C274 O280 1.287 . S
C274 O281 1.255 1_556 S
O275 Fe264 1.976 . S
O275 C282 1.287 . S
O276 Fe265 1.996 1_455 S
O276 C282 1.255 1_455 S
O277 Fe267 1.976 1_455 S
O277 C272 1.287 1_455 S
O278 Fe264 1.996 . S
O278 C272 1.255 . S
C279 O283 1.295 . S
C279 O284 1.235 . S
O280 Fe265 1.976 1_455 S
O280 C274 1.287 . S
O281 Fe267 1.996 1_454 S
O281 C274 1.255 1_554 S
C282 O275 1.287 . S
C282 O276 1.255 1_655 S
O283 Fe265 2.002 1_554 S
O283 C279 1.295 . S
O284 Fe267 1.997 1_554 S
O284 C279 1.235 . S
C285 O268 1.285 1_556 S
C285 O269 1.235 . S
Fe286 O288 1.918 . S
Fe286 O291 1.997 . S
Fe286 O292 2.002 . S
Fe286 O297 1.976 . S
Fe286 O300 1.996 . S
Fe287 O288 1.918 . S
Fe287 O295 1.997 . S
Fe287 O298 1.996 . S
Fe287 O302 1.976 . S
Fe287 O305 2.002 . S
O288 Fe286 1.918 . S
O288 Fe287 1.918 . S
O288 Fe289 1.918 . S
Fe289 O288 1.918 . S
Fe289 O290 2.002 . S
Fe289 O299 1.976 . S
Fe289 O303 1.996 . S
Fe289 O306 1.997 . S
O290 Fe289 2.002 . S
O290 C307 1.295 . S
O291 Fe286 1.997 . S
O291 C307 1.235 . S
O292 Fe286 2.002 . S
O292 C293 1.295 . S
C293 O292 1.295 . S
C293 O295 1.235 . S
C294 O299 1.287 . S
C294 O300 1.255 . S
O295 Fe287 1.997 . S
O295 C293 1.235 . S
C296 O302 1.287 . S
C296 O303 1.255 . S
O297 Fe286 1.976 . S
O297 C304 1.287 . S
O298 Fe287 1.996 . S
O298 C304 1.255 . S
O299 Fe289 1.976 . S
O299 C294 1.287 . S
O300 Fe286 1.996 . S
O300 C294 1.255 . S
C301 O305 1.295 . S
C301 O306 1.235 . S
O302 Fe287 1.976 . S
O302 C296 1.287 . S
O303 Fe289 1.996 . S
O303 C296 1.255 . S
C304 O297 1.287 . S
C304 O298 1.255 . S
O305 Fe287 2.002 . S
O305 C301 1.295 . S
O306 Fe289 1.997 . S
O306 C301 1.235 . S
C307 O290 1.295 . S
C307 O291 1.235 . S
Fe308 O310 1.918 . S
Fe308 O313 1.997 . S
Fe308 O314 2.002 1_554 S
Fe308 O319 1.976 . S
Fe308 O322 1.996 . S
Fe309 O310 1.918 . S
Fe309 O317 1.997 1_554 S
Fe309 O320 1.996 1_554 S
Fe309 O324 1.976 . S
Fe309 O327 2.001 1_554 S
O310 Fe308 1.918 . S
O310 Fe309 1.918 . S
O310 Fe311 1.918 . S
Fe311 O310 1.918 . S
Fe311 O312 2.002 . S
Fe311 O321 1.976 . S
Fe311 O325 1.996 . S
Fe311 O328 1.997 . S
O312 Fe311 2.002 . S
O312 C329 1.295 . S
O313 Fe308 1.997 . S
O313 C329 1.235 . S
O314 Fe308 2.002 1_556 S
O314 C315 1.295 . S
C315 O314 1.295 . S
C315 O317 1.235 . S
C316 O321 1.287 . S
C316 O322 1.255 . S
O317 Fe309 1.997 1_556 S
O317 C315 1.235 . S
C318 O324 1.287 . S
C318 O325 1.255 . S
O319 Fe308 1.976 . S
O319 C326 1.287 . S
O320 Fe309 1.996 1_556 S
O320 C326 1.255 1_556 S
O321 Fe311 1.976 . S
O321 C316 1.287 . S
O322 Fe308 1.996 . S
O322 C316 1.255 . S
C323 O327 1.285 1_554 S
C323 O328 1.235 . S
O324 Fe309 1.976 . S
O324 C318 1.287 . S
O325 Fe311 1.996 . S
O325 C318 1.255 . S
C326 O319 1.287 . S
C326 O320 1.255 1_554 S
O327 Fe309 2.001 1_556 S
O327 C323 1.285 1_556 S
O328 Fe311 1.997 . S
O328 C323 1.235 . S
C329 O312 1.295 . S
C329 O313 1.235 . S
Fe330 O332 1.918 . S
Fe330 O335 1.997 . S
Fe330 O336 2.002 . S
Fe330 O341 1.976 . S
Fe330 O344 1.996 . S
Fe331 O332 1.918 . S
Fe331 O339 1.997 . S
Fe331 O342 1.996 1_455 S
Fe331 O346 1.976 1_455 S
Fe331 O349 2.002 . S
O332 Fe330 1.918 . S
O332 Fe331 1.918 . S
O332 Fe333 1.918 . S
Fe333 O332 1.918 . S
Fe333 O334 2.002 . S
Fe333 O343 1.976 1_455 S
Fe333 O347 1.996 1_455 S
Fe333 O350 1.997 . S
O334 Fe333 2.002 . S
O334 C351 1.295 . S
O335 Fe330 1.997 . S
O335 C351 1.235 . S
O336 Fe330 2.002 . S
O336 C337 1.295 . S
C337 O336 1.295 . S
C337 O339 1.235 . S
C338 O343 1.287 1_455 S
C338 O344 1.255 . S
O339 Fe331 1.997 . S
O339 C337 1.235 . S
C340 O346 1.287 . S
C340 O347 1.255 . S
O341 Fe330 1.976 . S
O341 C348 1.287 . S
O342 Fe331 1.996 1_655 S
O342 C348 1.255 1_655 S
O343 Fe333 1.976 1_655 S
O343 C338 1.287 1_655 S
O344 Fe330 1.996 . S
O344 C338 1.255 . S
C345 O349 1.295 . S
C345 O350 1.235 . S
O346 Fe331 1.976 1_655 S
O346 C340 1.287 . S
O347 Fe333 1.996 1_655 S
O347 C340 1.255 . S
C348 O341 1.287 . S
C348 O342 1.255 1_455 S
O349 Fe331 2.002 . S
O349 C345 1.295 . S
O350 Fe333 1.997 . S
O350 C345 1.235 . S
C351 O334 1.295 . S
C351 O335 1.235 . S
Fe352 O354 1.918 . S
Fe352 O357 1.997 . S
Fe352 O358 2.002 . S
Fe352 O363 1.976 . S
Fe352 O366 1.996 . S
Fe353 O354 1.918 . S
Fe353 O361 1.997 . S
Fe353 O364 1.996 1_565 S
Fe353 O368 1.976 1_565 S
Fe353 O371 2.002 1_655 S
O354 Fe352 1.918 . S
O354 Fe353 1.918 . S
O354 Fe355 1.918 . S
Fe355 O354 1.918 . S
Fe355 O356 2.001 1_655 S
Fe355 O365 1.976 1_565 S
Fe355 O369 1.996 1_665 S
Fe355 O372 1.997 1_655 S
O356 Fe355 2.001 1_455 S
O356 C373 1.285 1_455 S
O357 Fe352 1.997 . S
O357 C373 1.235 . S
O358 Fe352 2.002 . S
O358 C359 1.295 . S
C359 O358 1.295 . S
C359 O361 1.235 . S
C360 O365 1.287 1_565 S
C360 O366 1.255 . S
O361 Fe353 1.997 . S
O361 C359 1.235 . S
C362 O368 1.287 . S
C362 O369 1.255 1_655 S
O363 Fe352 1.976 . S
O363 C370 1.287 . S
O364 Fe353 1.996 1_545 S
O364 C370 1.255 1_545 S
O365 Fe355 1.976 1_545 S
O365 C360 1.287 1_545 S
O366 Fe352 1.996 . S
O366 C360 1.255 . S
C367 O371 1.295 . S
C367 O372 1.235 . S
O368 Fe353 1.976 1_545 S
O368 C362 1.287 . S
O369 Fe355 1.996 1_445 S
O369 C362 1.255 1_455 S
C370 O363 1.287 . S
C370 O364 1.255 1_565 S
O371 Fe353 2.002 1_455 S
O371 C367 1.295 . S
O372 Fe355 1.997 1_455 S
O372 C367 1.235 . S
C373 O356 1.285 1_655 S
C373 O357 1.235 . S
Fe374 O376 1.918 . S
Fe374 O379 1.997 . S
Fe374 O380 2.002 . S
Fe374 O385 1.976 1_545 S
Fe374 O388 1.996 1_545 S
Fe375 O376 1.918 . S
Fe375 O383 1.997 . S
Fe375 O386 1.996 . S
Fe375 O390 1.976 . S
Fe375 O393 2.002 . S
O376 Fe374 1.918 . S
O376 Fe375 1.918 . S
O376 Fe377 1.918 . S
Fe377 O376 1.918 . S
Fe377 O378 2.002 . S
Fe377 O387 1.976 1_545 S
Fe377 O391 1.996 1_545 S
Fe377 O394 1.997 . S
O378 Fe377 2.002 . S
O378 C395 1.295 . S
O379 Fe374 1.997 . S
O379 C395 1.235 . S
O380 Fe374 2.002 . S
O380 C381 1.295 . S
C381 O380 1.295 . S
C381 O383 1.235 . S
C382 O387 1.287 . S
C382 O388 1.255 . S
O383 Fe375 1.997 . S
O383 C381 1.235 . S
C384 O390 1.287 . S
C384 O391 1.255 1_545 S
O385 Fe374 1.976 1_565 S
O385 C392 1.287 1_565 S
O386 Fe375 1.996 . S
O386 C392 1.255 . S
O387 Fe377 1.976 1_565 S
O387 C382 1.287 . S
O388 Fe374 1.996 1_565 S
O388 C382 1.255 . S
C389 O393 1.295 . S
C389 O394 1.235 . S
O390 Fe375 1.976 . S
O390 C384 1.287 . S
O391 Fe377 1.996 1_565 S
O391 C384 1.255 1_565 S
C392 O385 1.287 1_545 S
C392 O386 1.255 . S
O393 Fe375 2.002 . S
O393 C389 1.295 . S
O394 Fe377 1.997 . S
O394 C389 1.235 . S
C395 O378 1.295 . S
C395 O379 1.235 . S
Fe396 O398 1.918 . S
Fe396 O401 1.997 . S
Fe396 O402 2.002 . S
Fe396 O407 1.976 . S
Fe396 O410 1.996 . S
Fe397 O398 1.918 . S
Fe397 O405 1.997 . S
Fe397 O408 1.996 . S
Fe397 O412 1.976 . S
Fe397 O415 2.002 . S
O398 Fe396 1.918 . S
O398 Fe397 1.918 . S
O398 Fe399 1.918 . S
Fe399 O398 1.918 . S
Fe399 O400 2.002 . S
Fe399 O409 1.976 . S
Fe399 O413 1.996 . S
Fe399 O416 1.997 . S
O400 Fe399 2.002 . S
O400 C417 1.295 . S
O401 Fe396 1.997 . S
O401 C417 1.235 . S
O402 Fe396 2.002 . S
O402 C403 1.295 . S
C403 O402 1.295 . S
C403 O405 1.235 . S
C404 O409 1.287 . S
C404 O410 1.255 . S
O405 Fe397 1.997 . S
O405 C403 1.235 . S
C406 O412 1.287 . S
C406 O413 1.255 . S
O407 Fe396 1.976 . S
O407 C414 1.287 . S
O408 Fe397 1.996 . S
O408 C414 1.255 . S
O409 Fe399 1.976 . S
O409 C404 1.287 . S
O410 Fe396 1.996 . S
O410 C404 1.255 . S
C411 O415 1.295 . S
C411 O416 1.235 . S
O412 Fe397 1.976 . S
O412 C406 1.287 . S
O413 Fe399 1.996 . S
O413 C406 1.255 . S
C414 O407 1.287 . S
C414 O408 1.255 . S
O415 Fe397 2.002 . S
O415 C411 1.295 . S
O416 Fe399 1.997 . S
O416 C411 1.235 . S
C417 O400 1.295 . S
C417 O401 1.235 . S
Fe418 O420 1.918 . S
Fe418 O423 1.997 1_455 S
Fe418 O424 2.001 1_455 S
Fe418 O429 1.976 . S
Fe418 O432 1.996 1_455 S
Fe419 O420 1.918 . S
Fe419 O427 1.997 . S
Fe419 O430 1.996 . S
Fe419 O434 1.976 . S
Fe419 O437 2.002 . S
O420 Fe418 1.918 . S
O420 Fe419 1.918 . S
O420 Fe421 1.918 . S
Fe421 O420 1.918 . S
Fe421 O422 2.002 1_455 S
Fe421 O431 1.976 . S
Fe421 O435 1.996 . S
Fe421 O438 1.997 . S
O422 Fe421 2.002 1_655 S
O422 C439 1.295 . S
O423 Fe418 1.997 1_655 S
O423 C439 1.235 . S
O424 Fe418 2.001 1_655 S
O424 C425 1.285 1_655 S
C425 O424 1.285 1_455 S
C425 O427 1.235 . S
C426 O431 1.287 . S
C426 O432 1.255 1_455 S
O427 Fe419 1.997 . S
O427 C425 1.235 . S
C428 O434 1.287 . S
C428 O435 1.255 . S
O429 Fe418 1.976 . S
O429 C436 1.287 . S
O430 Fe419 1.996 . S
O430 C436 1.255 . S
O431 Fe421 1.976 . S
O431 C426 1.287 . S
O432 Fe418 1.996 1_655 S
O432 C426 1.255 1_655 S
C433 O437 1.295 . S
C433 O438 1.235 . S
O434 Fe419 1.976 . S
O434 C428 1.287 . S
O435 Fe421 1.996 . S
O435 C428 1.255 . S
C436 O429 1.287 . S
C436 O430 1.255 . S
O437 Fe419 2.002 . S
O437 C433 1.295 . S
O438 Fe421 1.997 . S
O438 C433 1.235 . S
C439 O422 1.295 . S
C439 O423 1.235 . S
Fe440 O442 1.918 . S
Fe440 O445 1.997 . S
Fe440 O446 2.002 . S
Fe440 O451 1.976 . S
Fe440 O454 1.996 . S
Fe441 O442 1.918 . S
Fe441 O449 1.997 . S
Fe441 O452 1.996 1_556 S
Fe441 O456 1.976 1_556 S
Fe441 O459 2.002 1_565 S
O442 Fe440 1.918 . S
O442 Fe441 1.918 . S
O442 Fe443 1.918 . S
Fe443 O442 1.918 . S
Fe443 O444 2.001 1_565 S
Fe443 O453 1.976 1_556 S
Fe443 O457 1.996 1_566 S
Fe443 O460 1.997 1_565 S
O444 Fe443 2.001 1_545 S
O444 C461 1.285 1_545 S
O445 Fe440 1.997 . S
O445 C461 1.235 . S
O446 Fe440 2.002 . S
O446 C447 1.295 . S
C447 O446 1.295 . S
C447 O449 1.235 . S
C448 O453 1.287 1_556 S
C448 O454 1.255 . S
O449 Fe441 1.997 . S
O449 C447 1.235 . S
C450 O456 1.287 . S
C450 O457 1.255 1_565 S
O451 Fe440 1.976 . S
O451 C458 1.287 . S
O452 Fe441 1.996 1_554 S
O452 C458 1.255 1_554 S
O453 Fe443 1.976 1_554 S
O453 C448 1.287 1_554 S
O454 Fe440 1.996 . S
O454 C448 1.255 . S
C455 O459 1.295 . S
C455 O460 1.235 . S
O456 Fe441 1.976 1_554 S
O456 C450 1.287 . S
O457 Fe443 1.996 1_544 S
O457 C450 1.255 1_545 S
C458 O451 1.287 . S
C458 O452 1.255 1_556 S
O459 Fe441 2.002 1_545 S
O459 C455 1.295 . S
O460 Fe443 1.997 1_545 S
O460 C455 1.235 . S
C461 O444 1.285 1_565 S
C461 O445 1.235 . S
Fe462 O464 1.918 . S
Fe462 O467 1.997 . S
Fe462 O468 2.002 . S
Fe462 O473 1.976 1_554 S
Fe462 O476 1.996 1_554 S
Fe463 O464 1.918 . S
Fe463 O471 1.997 . S
Fe463 O474 1.996 1_554 S
Fe463 O478 1.976 1_554 S
Fe463 O481 2.002 . S
O464 Fe462 1.918 . S
O464 Fe463 1.918 . S
O464 Fe465 1.918 . S
Fe465 O464 1.918 . S
Fe465 O466 2.002 . S
Fe465 O475 1.976 . S
Fe465 O479 1.996 . S
Fe465 O482 1.997 . S
O466 Fe465 2.002 . S
O466 C483 1.295 . S
O467 Fe462 1.997 . S
O467 C483 1.235 . S
O468 Fe462 2.002 . S
O468 C469 1.295 . S
C469 O468 1.295 . S
C469 O471 1.235 . S
C470 O475 1.287 . S
C470 O476 1.255 1_554 S
O471 Fe463 1.997 . S
O471 C469 1.235 . S
C472 O478 1.287 1_554 S
C472 O479 1.255 . S
O473 Fe462 1.976 1_556 S
O473 C480 1.287 . S
O474 Fe463 1.996 1_556 S
O474 C480 1.255 . S
O475 Fe465 1.976 . S
O475 C470 1.287 . S
O476 Fe462 1.996 1_556 S
O476 C470 1.255 1_556 S
C477 O481 1.295 . S
C477 O482 1.235 . S
O478 Fe463 1.976 1_556 S
O478 C472 1.287 1_556 S
O479 Fe465 1.996 . S
O479 C472 1.255 . S
C480 O473 1.287 . S
C480 O474 1.255 . S
O481 Fe463 2.002 . S
O481 C477 1.295 . S
O482 Fe465 1.997 . S
O482 C477 1.235 . S
C483 O466 1.295 . S
C483 O467 1.235 . S
Fe484 O486 1.918 . S
Fe484 O489 1.997 . S
Fe484 O490 2.002 . S
Fe484 O495 1.976 . S
Fe484 O498 1.996 . S
Fe485 O486 1.918 . S
Fe485 O493 1.997 . S
Fe485 O496 1.996 . S
Fe485 O500 1.976 . S
Fe485 O503 2.002 . S
O486 Fe484 1.918 . S
O486 Fe485 1.918 . S
O486 Fe487 1.918 . S
Fe487 O486 1.918 . S
Fe487 O488 2.002 . S
Fe487 O497 1.976 . S
Fe487 O501 1.996 . S
Fe487 O504 1.997 . S
O488 Fe487 2.002 . S
O488 C505 1.295 . S
O489 Fe484 1.997 . S
O489 C505 1.235 . S
O490 Fe484 2.002 . S
O490 C491 1.295 . S
C491 O490 1.295 . S
C491 O493 1.235 . S
C492 O497 1.287 . S
C492 O498 1.255 . S
O493 Fe485 1.997 . S
O493 C491 1.235 . S
C494 O500 1.287 . S
C494 O501 1.255 . S
O495 Fe484 1.976 . S
O495 C502 1.287 . S
O496 Fe485 1.996 . S
O496 C502 1.255 . S
O497 Fe487 1.976 . S
O497 C492 1.287 . S
O498 Fe484 1.996 . S
O498 C492 1.255 . S
C499 O503 1.295 . S
C499 O504 1.235 . S
O500 Fe485 1.976 . S
O500 C494 1.287 . S
O501 Fe487 1.996 . S
O501 C494 1.255 . S
C502 O495 1.287 . S
C502 O496 1.255 . S
O503 Fe485 2.002 . S
O503 C499 1.295 . S
O504 Fe487 1.997 . S
O504 C499 1.235 . S
C505 O488 1.295 . S
C505 O489 1.235 . S
Fe506 O508 1.918 . S
Fe506 O511 1.997 1_545 S
Fe506 O512 2.001 1_545 S
Fe506 O517 1.976 . S
Fe506 O520 1.996 1_545 S
Fe507 O508 1.918 . S
Fe507 O515 1.997 . S
Fe507 O518 1.996 . S
Fe507 O522 1.976 . S
Fe507 O525 2.002 . S
O508 Fe506 1.918 . S
O508 Fe507 1.918 . S
O508 Fe509 1.918 . S
Fe509 O508 1.918 . S
Fe509 O510 2.002 1_545 S
Fe509 O519 1.976 . S
Fe509 O523 1.996 . S
Fe509 O526 1.997 . S
O510 Fe509 2.002 1_565 S
O510 C527 1.295 . S
O511 Fe506 1.997 1_565 S
O511 C527 1.235 . S
O512 Fe506 2.001 1_565 S
O512 C513 1.285 1_565 S
C513 O512 1.285 1_545 S
C513 O515 1.235 . S
C514 O519 1.287 . S
C514 O520 1.255 1_545 S
O515 Fe507 1.997 . S
O515 C513 1.235 . S
C516 O522 1.287 . S
C516 O523 1.255 . S
O517 Fe506 1.976 . S
O517 C524 1.287 . S
O518 Fe507 1.996 . S
O518 C524 1.255 . S
O519 Fe509 1.976 . S
O519 C514 1.287 . S
O520 Fe506 1.996 1_565 S
O520 C514 1.255 1_565 S
C521 O525 1.295 . S
C521 O526 1.235 . S
O522 Fe507 1.976 . S
O522 C516 1.287 . S
O523 Fe509 1.996 . S
O523 C516 1.255 . S
C524 O517 1.287 . S
C524 O518 1.255 . S
O525 Fe507 2.002 . S
O525 C521 1.295 . S
O526 Fe509 1.997 . S
O526 C521 1.235 . S
C527 O510 1.295 . S
C527 O511 1.235 . S
C18 C103 1.186 . S
C30 C131 1.186 . S
C153 C62 1.186 . S
C74 C161 1.186 . S
C98 C183 1.186 . S
C118 C249 1.186 . S
C140 C205 1.186 . S
C172 C235 1.186 . S
C194 C7 1.186 . S
C51 C216 1.186 . S
C87 C230 1.186 . S
C260 C43 1.186 . S
C373 C272 1.093 . S
C294 C381 1.093 . S
C318 C417 1.093 . S
C425 C338 1.093 . S
C360 C461 1.093 . S
C392 C513 1.093 . S
C477 C404 1.093 . S
C505 C436 1.093 . S
C448 C285 1.093 . S
C323 C472 1.093 . S
C492 C351 1.093 . S
C307 C524 1.093 . S
C206 C10 1.215 1_556 S
C40 C238 1.215 . S
C184 C54 1.215 1_554 S
C84 C250 1.215 . S
C96 C76 1.215 1_455 S
C128 C52 1.215 . S
C32 C150 1.215 . S
C8 C164 1.215 1_455 S
C120 C186 1.215 1_565 S
C208 C162 1.215 . S
C142 C228 1.215 . S
C106 C252 1.215 1_545 S
C470 C274 1.279 1_554 S
C296 C502 1.279 . S
C326 C458 1.279 1_554 S
C340 C516 1.279 . S
C348 C362 1.279 1_455 S
C316 C382 1.279 . S
C406 C304 1.279 . S
C426 C282 1.279 1_455 S
C384 C450 1.279 1_545 S
C480 C428 1.279 . S
C414 C494 1.279 . S
C514 C370 1.279 1_545 S
C15 C433 1.491 . S
C29 C403 1.491 . S
C389 C59 1.491 . S
C359 C73 1.491 . S
C521 C109 1.491 . S
C117 C447 1.491 . S
C139 C491 1.491 . S
C169 C483 1.491 . S
C329 C191 1.491 . S
C271 C213 1.491 . S
C293 C241 1.491 . S
C337 C257 1.491 . S
C175 C279 1.436 . S
C147 C301 1.436 . S
C125 C315 1.436 . S
C95 C345 1.436 . S
C367 C263 1.436 . S
C395 C197 1.436 . S
C411 C227 1.436 . S
C439 C219 1.436 . S
C455 C65 1.436 . S
C21 C469 1.436 . S
C37 C499 1.436 . S
C81 C527 1.436 . S
