# Generated by pormake.
# Topology umc, (4)-cn, num edge types: 1
# Building blocks:
#     Node 0, Type 0, BuildingBlock: QUQFOY_clean_sbu_1, # of connection points: 4
#     Node 1, Type 0, BuildingBlock: QUQFOY_clean_sbu_1, # of connection points: 4
#     Node 2, Type 0, BuildingBlock: QUQFOY_clean_sbu_1, # of connection points: 4
#     Node 3, Type 0, BuildingBlock: QUQFOY_clean_sbu_1, # of connection points: 4
#     Node 4, Type 0, BuildingBlock: QUQFOY_clean_sbu_1, # of connection points: 4
#     Node 5, Type 0, BuildingBlock: QUQFOY_clean_sbu_1, # of connection points: 4
#     Node 6, Type 0, BuildingBlock: QUQFOY_clean_sbu_1, # of connection points: 4
#     Node 7, Type 0, BuildingBlock: QUQFOY_clean_sbu_1, # of connection points: 4
#     Node 8, Type 0, BuildingBlock: QUQFOY_clean_sbu_1, # of connection points: 4
#     Node 9, Type 0, BuildingBlock: QUQFOY_clean_sbu_1, # of connection points: 4
#     Node 10, Type 0, BuildingBlock: QUQFOY_clean_sbu_1, # of connection points: 4
#     Node 11, Type 0, BuildingBlock: QUQFOY_clean_sbu_1, # of connection points: 4
#     Node 12, Type 0, BuildingBlock: QUQFOY_clean_sbu_1, # of connection points: 4
#     Node 13, Type 0, BuildingBlock: QUQFOY_clean_sbu_1, # of connection points: 4
#     Node 14, Type 0, BuildingBlock: QUQFOY_clean_sbu_1, # of connection points: 4
#     Node 15, Type 0, BuildingBlock: QUQFOY_clean_sbu_1, # of connection points: 4
#     Edge 16, Type (0, 0), BuildingBlock: ZUJKAS_clean_linker_0, # of connection points: 2
#     Edge 17, Type (0, 0), BuildingBlock: ZUJKAS_clean_linker_0, # of connection points: 2
#     Edge 18, Type (0, 0), BuildingBlock: ZUJKAS_clean_linker_0, # of connection points: 2
#     Edge 19, Type (0, 0), BuildingBlock: ZUJKAS_clean_linker_0, # of connection points: 2
#     Edge 20, Type (0, 0), BuildingBlock: ZUJKAS_clean_linker_0, # of connection points: 2
#     Edge 21, Type (0, 0), BuildingBlock: ZUJKAS_clean_linker_0, # of connection points: 2
#     Edge 22, Type (0, 0), BuildingBlock: ZUJKAS_clean_linker_0, # of connection points: 2
#     Edge 23, Type (0, 0), BuildingBlock: ZUJKAS_clean_linker_0, # of connection points: 2
#     Edge 24, Type (0, 0), BuildingBlock: ZUJKAS_clean_linker_0, # of connection points: 2
#     Edge 25, Type (0, 0), BuildingBlock: ZUJKAS_clean_linker_0, # of connection points: 2
#     Edge 26, Type (0, 0), BuildingBlock: ZUJKAS_clean_linker_0, # of connection points: 2
#     Edge 27, Type (0, 0), BuildingBlock: ZUJKAS_clean_linker_0, # of connection points: 2
#     Edge 28, Type (0, 0), BuildingBlock: ZUJKAS_clean_linker_0, # of connection points: 2
#     Edge 29, Type (0, 0), BuildingBlock: ZUJKAS_clean_linker_0, # of connection points: 2
#     Edge 30, Type (0, 0), BuildingBlock: ZUJKAS_clean_linker_0, # of connection points: 2
#     Edge 31, Type (0, 0), BuildingBlock: ZUJKAS_clean_linker_0, # of connection points: 2
#     Edge 32, Type (0, 0), BuildingBlock: ZUJKAS_clean_linker_0, # of connection points: 2
#     Edge 33, Type (0, 0), BuildingBlock: ZUJKAS_clean_linker_0, # of connection points: 2
#     Edge 34, Type (0, 0), BuildingBlock: ZUJKAS_clean_linker_0, # of connection points: 2
#     Edge 35, Type (0, 0), BuildingBlock: ZUJKAS_clean_linker_0, # of connection points: 2
#     Edge 36, Type (0, 0), BuildingBlock: ZUJKAS_clean_linker_0, # of connection points: 2
#     Edge 37, Type (0, 0), BuildingBlock: ZUJKAS_clean_linker_0, # of connection points: 2
#     Edge 38, Type (0, 0), BuildingBlock: ZUJKAS_clean_linker_0, # of connection points: 2
#     Edge 39, Type (0, 0), BuildingBlock: ZUJKAS_clean_linker_0, # of connection points: 2
#     Edge 40, Type (0, 0), BuildingBlock: ZUJKAS_clean_linker_0, # of connection points: 2
#     Edge 41, Type (0, 0), BuildingBlock: ZUJKAS_clean_linker_0, # of connection points: 2
#     Edge 42, Type (0, 0), BuildingBlock: ZUJKAS_clean_linker_0, # of connection points: 2
#     Edge 43, Type (0, 0), BuildingBlock: ZUJKAS_clean_linker_0, # of connection points: 2
#     Edge 44, Type (0, 0), BuildingBlock: ZUJKAS_clean_linker_0, # of connection points: 2
#     Edge 45, Type (0, 0), BuildingBlock: ZUJKAS_clean_linker_0, # of connection points: 2
#     Edge 46, Type (0, 0), BuildingBlock: ZUJKAS_clean_linker_0, # of connection points: 2
#     Edge 47, Type (0, 0), BuildingBlock: ZUJKAS_clean_linker_0, # of connection points: 2
# Relax obj value: 0.041
# Max RMSD: 0.117
# Mean RMSD: 0.117
data_MOF--net-umc--node1-QUQFOY_clean_sbu_1--edge1-ZUJKAS_clean_linker_0
_symmetry_space_group_name_H-M    P1
_symmetry_Int_Tables_number       1
_symmetry_cell_setting            triclinic
loop_
_symmetry_equiv_pos_as_xyz
'x, y, z'
_cell_length_a     52.658013
_cell_length_b     51.988597
_cell_length_c     74.142649
_cell_angle_alpha  89.959635
_cell_angle_beta   89.961559
_cell_angle_gamma 90.085195
loop_
_atom_site_label
_atom_site_type_symbol
_atom_site_fract_x
_atom_site_fract_y
_atom_site_fract_z
_atom_type_partial_charge
O0 O 0.32497 0.09662 0.40913 0.0
Cd1 Cd 0.33828 0.1056 0.38367 0.0
Cd2 Cd 0.31994 0.05846 0.37725 0.0
O3 O 0.30365 0.06127 0.40262 0.0
O4 O 0.34144 0.14399 0.38346 0.0
O5 O 0.31364 0.12284 0.36676 0.0
C6 C 0.32264 0.14456 0.37231 0.0
C7 C 0.29809 0.04936 0.35068 0.0
C8 C 0.31025 0.07842 0.41393 0.0
C9 C 0.37661 0.06532 0.37498 0.0
O10 O 0.35805 0.04977 0.3763 0.0
O11 O 0.37282 0.08947 0.37604 0.0
O12 O 0.30274 0.03157 0.36237 0.0
O13 O 0.30441 0.07269 0.3547 0.0
O14 O 0.68182 0.9295 0.40985 0.0
Cd15 Cd 0.6682 0.92035 0.38453 0.0
Cd16 Cd 0.68603 0.96764 0.37799 0.0
O17 O 0.7025 0.96519 0.40328 0.0
O18 O 0.66541 0.88201 0.38513 0.0
O19 O 0.69203 0.90273 0.36718 0.0
C20 C 0.68357 0.88117 0.37346 0.0
C21 C 0.70795 0.97779 0.3516 0.0
C22 C 0.69629 0.94789 0.41461 0.0
C23 C 0.62938 0.96015 0.3759 0.0
O24 O 0.6478 0.97591 0.37704 0.0
O25 O 0.63339 0.93606 0.37713 0.0
O26 O 0.70297 0.99513 0.36354 0.0
O27 O 0.70184 0.95426 0.35522 0.0
O28 O 0.32288 0.92821 0.10846 0.0
Cd29 Cd 0.33698 0.91876 0.13361 0.0
Cd30 Cd 0.31904 0.96578 0.1406 0.0
O31 O 0.30209 0.96358 0.11546 0.0
O32 O 0.34004 0.88045 0.13267 0.0
O33 O 0.31353 0.90052 0.15098 0.0
C34 C 0.32205 0.87917 0.14446 0.0
C35 C 0.29757 0.97562 0.16723 0.0
C36 C 0.30823 0.94654 0.10396 0.0
C37 C 0.37578 0.95879 0.14196 0.0
O38 O 0.35724 0.97439 0.14108 0.0
O39 O 0.37186 0.93466 0.14076 0.0
O40 O 0.3023 0.99306 0.15528 0.0
O41 O 0.3037 0.95215 0.1635 0.0
O42 O 0.68196 0.0954 0.10843 0.0
Cd43 Cd 0.66732 0.10568 0.13327 0.0
Cd44 Cd 0.68505 0.05865 0.14115 0.0
O45 O 0.70199 0.05978 0.11597 0.0
O46 O 0.66464 0.14402 0.13186 0.0
O47 O 0.69051 0.12408 0.15069 0.0
C48 C 0.68233 0.14538 0.14385 0.0
C49 C 0.70647 0.05018 0.168 0.0
C50 C 0.69632 0.07669 0.10424 0.0
C51 C 0.62827 0.06608 0.14223 0.0
O52 O 0.64679 0.05044 0.14192 0.0
O53 O 0.63222 0.09012 0.14035 0.0
O54 O 0.7015 0.03205 0.15664 0.0
O55 O 0.70062 0.07346 0.16354 0.0
O56 O 0.6817 0.92841 0.60932 0.0
Cd57 Cd 0.66814 0.91968 0.63476 0.0
Cd58 Cd 0.68654 0.9667 0.64128 0.0
O59 O 0.70287 0.96379 0.61595 0.0
O60 O 0.66481 0.88133 0.6351 0.0
O61 O 0.6926 0.90248 0.65181 0.0
C62 C 0.68352 0.88076 0.64632 0.0
C63 C 0.70866 0.97657 0.66762 0.0
C64 C 0.69645 0.94662 0.60461 0.0
C65 C 0.62988 0.96009 0.64347 0.0
O66 O 0.64847 0.97562 0.64225 0.0
O67 O 0.63363 0.93595 0.6423 0.0
O68 O 0.70397 0.99396 0.65564 0.0
O69 O 0.70214 0.95314 0.66405 0.0
O70 O 0.32504 0.09733 0.60882 0.0
Cd71 Cd 0.33852 0.106 0.63428 0.0
Cd72 Cd 0.32075 0.05868 0.64059 0.0
O73 O 0.30419 0.0617 0.61536 0.0
O74 O 0.34172 0.14436 0.63459 0.0
O75 O 0.31402 0.12312 0.65136 0.0
C76 C 0.32303 0.14488 0.64584 0.0
C77 C 0.29899 0.04874 0.66709 0.0
C78 C 0.31044 0.07904 0.60406 0.0
C79 C 0.37727 0.06587 0.64268 0.0
O80 O 0.35891 0.0501 0.6413 0.0
O81 O 0.37317 0.08998 0.64177 0.0
O82 O 0.30355 0.03137 0.65509 0.0
O83 O 0.30543 0.07219 0.66347 0.0
O84 O 0.68392 0.09335 0.9104 0.0
Cd85 Cd 0.66912 0.10306 0.88551 0.0
Cd86 Cd 0.68645 0.05564 0.87824 0.0
O87 O 0.70333 0.05715 0.90342 0.0
O88 O 0.66624 0.14139 0.88662 0.0
O89 O 0.69211 0.1213 0.86786 0.0
C90 C 0.68385 0.14265 0.87455 0.0
C91 C 0.70791 0.04734 0.85138 0.0
C92 C 0.69801 0.07454 0.91486 0.0
C93 C 0.6298 0.06348 0.877 0.0
O94 O 0.64816 0.04765 0.87749 0.0
O95 O 0.63397 0.08751 0.87867 0.0
O96 O 0.70298 0.02913 0.86272 0.0
O97 O 0.702 0.07059 0.85588 0.0
O98 O 0.32292 0.93005 0.90945 0.0
Cd99 Cd 0.33668 0.92104 0.88413 0.0
Cd100 Cd 0.31907 0.96848 0.8776 0.0
O101 O 0.30242 0.96579 0.90284 0.0
O102 O 0.33996 0.88267 0.8842 0.0
O103 O 0.31236 0.90345 0.86715 0.0
C104 C 0.32134 0.88185 0.87292 0.0
C105 C 0.29745 0.97691 0.85083 0.0
C106 C 0.30844 0.94843 0.91416 0.0
C107 C 0.37557 0.96115 0.87558 0.0
O108 O 0.35726 0.97696 0.8768 0.0
O109 O 0.37139 0.93705 0.87665 0.0
O110 O 0.30193 0.99497 0.86235 0.0
O111 O 0.30388 0.95371 0.85511 0.0
O112 O 0.82471 0.59744 0.40962 0.0
Cd113 Cd 0.83845 0.60659 0.38432 0.0
Cd114 Cd 0.82031 0.55946 0.37771 0.0
O115 O 0.80381 0.56193 0.40301 0.0
O116 O 0.8414 0.64493 0.38492 0.0
O117 O 0.81473 0.62435 0.36698 0.0
C118 C 0.82326 0.64587 0.37326 0.0
C119 C 0.79837 0.54966 0.3513 0.0
C120 C 0.81012 0.57913 0.41436 0.0
C121 C 0.87702 0.56655 0.37568 0.0
O122 O 0.85849 0.55092 0.37677 0.0
O123 O 0.87317 0.59067 0.37694 0.0
O124 O 0.80312 0.53222 0.36322 0.0
O125 O 0.80473 0.57311 0.35495 0.0
O126 O 0.18056 0.42734 0.40959 0.0
Cd127 Cd 0.16695 0.41859 0.38419 0.0
Cd128 Cd 0.18569 0.46568 0.37773 0.0
O129 O 0.20201 0.46262 0.40304 0.0
O130 O 0.16366 0.38019 0.38392 0.0
O131 O 0.19142 0.40137 0.36717 0.0
C132 C 0.18243 0.37964 0.37272 0.0
C133 C 0.20765 0.47424 0.35108 0.0
C134 C 0.19542 0.44542 0.41435 0.0
C135 C 0.12897 0.45932 0.37557 0.0
O136 O 0.14766 0.47471 0.37683 0.0
O137 O 0.13254 0.43513 0.37665 0.0
O138 O 0.20331 0.4922 0.3627 0.0
O139 O 0.2009 0.45106 0.3552 0.0
O140 O 0.82198 0.4324 0.10886 0.0
Cd141 Cd 0.8359 0.42216 0.13391 0.0
Cd142 Cd 0.81897 0.4697 0.14107 0.0
O143 O 0.80267 0.46871 0.11569 0.0
O144 O 0.83842 0.38381 0.1325 0.0
O145 O 0.81231 0.40378 0.15113 0.0
C146 C 0.82052 0.38248 0.14435 0.0
C147 C 0.79716 0.47814 0.16775 0.0
C148 C 0.80826 0.45141 0.10424 0.0
C149 C 0.87553 0.46127 0.14275 0.0
O150 O 0.85733 0.47729 0.14211 0.0
O151 O 0.87113 0.43727 0.14112 0.0
O152 O 0.80241 0.49632 0.15647 0.0
O153 O 0.80295 0.45485 0.16328 0.0
O154 O 0.18502 0.5921 0.10781 0.0
Cd155 Cd 0.17016 0.60203 0.13266 0.0
Cd156 Cd 0.18683 0.55452 0.14015 0.0
O157 O 0.2041 0.55584 0.11509 0.0
O158 O 0.16755 0.64036 0.13135 0.0
O159 O 0.19315 0.62029 0.15029 0.0
C160 C 0.18508 0.64163 0.14346 0.0
C161 C 0.20784 0.545 0.167 0.0
C162 C 0.19902 0.57315 0.10351 0.0
C163 C 0.1303 0.56281 0.14099 0.0
O164 O 0.14848 0.54676 0.14054 0.0
O165 O 0.13478 0.5868 0.13943 0.0
O166 O 0.20297 0.52734 0.15526 0.0
O167 O 0.20209 0.56847 0.16294 0.0
O168 O 0.18006 0.42752 0.60941 0.0
Cd169 Cd 0.16719 0.4188 0.63503 0.0
Cd170 Cd 0.18537 0.46592 0.64116 0.0
O171 O 0.20161 0.46273 0.61581 0.0
O172 O 0.16421 0.38042 0.63546 0.0
O173 O 0.19216 0.40189 0.65183 0.0
C174 C 0.18319 0.38006 0.64646 0.0
C175 C 0.2075 0.47621 0.66743 0.0
C176 C 0.19485 0.4456 0.60453 0.0
C177 C 0.12879 0.459 0.64368 0.0
O178 O 0.14724 0.47464 0.6421 0.0
O179 O 0.13272 0.43486 0.64285 0.0
O180 O 0.20273 0.49343 0.65534 0.0
O181 O 0.20105 0.45272 0.66402 0.0
O182 O 0.82525 0.59787 0.60904 0.0
Cd183 Cd 0.83864 0.6066 0.6345 0.0
Cd184 Cd 0.8201 0.5596 0.64107 0.0
O185 O 0.80393 0.56258 0.61571 0.0
O186 O 0.84171 0.64497 0.63489 0.0
O187 O 0.81396 0.62353 0.65152 0.0
C188 C 0.82289 0.64535 0.64605 0.0
C189 C 0.79775 0.54938 0.66728 0.0
C190 C 0.81045 0.57971 0.60434 0.0
C191 C 0.87678 0.56619 0.64339 0.0
O192 O 0.85817 0.5507 0.64215 0.0
O193 O 0.8731 0.59034 0.64217 0.0
O194 O 0.8026 0.53214 0.65524 0.0
O195 O 0.80426 0.57286 0.66386 0.0
O196 O 0.18262 0.59547 0.91061 0.0
Cd197 Cd 0.16754 0.6062 0.88615 0.0
Cd198 Cd 0.18442 0.5589 0.87689 0.0
O199 O 0.20029 0.55876 0.90258 0.0
O200 O 0.16523 0.64456 0.88701 0.0
O201 O 0.19097 0.62379 0.86851 0.0
C202 C 0.1829 0.64538 0.87495 0.0
C203 C 0.20686 0.54992 0.85051 0.0
C204 C 0.19586 0.57581 0.9145 0.0
C205 C 0.12778 0.56787 0.87598 0.0
O206 O 0.14597 0.55194 0.87471 0.0
O207 O 0.13204 0.59134 0.8798 0.0
O208 O 0.2007 0.53189 0.86167 0.0
O209 O 0.20174 0.57337 0.85498 0.0
O210 O 0.82166 0.42987 0.90993 0.0
Cd211 Cd 0.8371 0.41867 0.88569 0.0
Cd212 Cd 0.82128 0.46645 0.87648 0.0
O213 O 0.80568 0.46749 0.90223 0.0
O214 O 0.83878 0.38038 0.88762 0.0
O215 O 0.81455 0.40046 0.86777 0.0
C216 C 0.82185 0.37915 0.87508 0.0
C217 C 0.79875 0.47561 0.8502 0.0
C218 C 0.80931 0.45003 0.91399 0.0
C219 C 0.87777 0.4561 0.87561 0.0
O220 O 0.85988 0.47233 0.87408 0.0
O221 O 0.87305 0.43279 0.8797 0.0
O222 O 0.80554 0.49363 0.86115 0.0
O223 O 0.80335 0.45209 0.85482 0.0
H224 H 0.31759 0.11408 0.44038 0.0
H225 H 0.30832 0.10997 0.47245 0.0
H226 H 0.27532 0.03518 0.46327 0.0
H227 H 0.28481 0.03897 0.43096 0.0
H228 H 0.2621 0.10126 0.4914 0.0
H229 H 0.33167 0.02172 0.50089 0.0
H230 H 0.33126 0.04133 0.4808 0.0
H231 H 0.30742 0.01708 0.48414 0.0
C232 C 0.3082 0.09677 0.44509 0.0
C233 C 0.30217 0.07673 0.43308 0.0
C234 C 0.30285 0.09451 0.46345 0.0
C235 C 0.29146 0.07214 0.47028 0.0
C236 C 0.28448 0.05245 0.4583 0.0
H237 H 0.28678 0.03874 0.58686 0.0
H238 H 0.27686 0.03521 0.55462 0.0
C239 C 0.28979 0.05471 0.43983 0.0
C240 C 0.2881 0.06939 0.49006 0.0
H241 H 0.31246 0.0385 0.52684 0.0
C242 C 0.27281 0.08729 0.49915 0.0
C243 C 0.302 0.05108 0.50014 0.0
C244 C 0.31917 0.03176 0.49109 0.0
C245 C 0.27178 0.08798 0.51807 0.0
C246 C 0.28679 0.07061 0.52815 0.0
C247 C 0.30099 0.05181 0.51907 0.0
C248 C 0.29026 0.0734 0.54792 0.0
C249 C 0.25502 0.10765 0.52709 0.0
C250 C 0.30104 0.09601 0.55484 0.0
C251 C 0.3068 0.09806 0.57316 0.0
C252 C 0.302 0.07746 0.585 0.0
C253 C 0.29062 0.055 0.57814 0.0
C254 C 0.28497 0.05293 0.55972 0.0
H255 H 0.23895 0.11328 0.51823 0.0
H256 H 0.24728 0.10026 0.54004 0.0
H257 H 0.26634 0.1252 0.52995 0.0
H258 H 0.30582 0.11184 0.54595 0.0
H259 H 0.31558 0.11563 0.57794 0.0
H260 H 0.69114 0.91026 0.57839 0.0
H261 H 0.70097 0.91424 0.54641 0.0
H262 H 0.73032 0.99065 0.55528 0.0
H263 H 0.72034 0.98693 0.58751 0.0
H264 H 0.69462 0.98766 0.5275 0.0
H265 H 0.76798 0.91276 0.51869 0.0
H266 H 0.74057 0.90088 0.53043 0.0
H267 H 0.7597 0.92572 0.54052 0.0
C268 C 0.70001 0.92782 0.57365 0.0
C269 C 0.70491 0.9483 0.58555 0.0
C270 C 0.70582 0.92997 0.55534 0.0
C271 C 0.71673 0.95258 0.54848 0.0
C272 C 0.72211 0.97294 0.56033 0.0
H273 H 0.72163 0.98748 0.43152 0.0
H274 H 0.73133 0.99125 0.46379 0.0
C275 C 0.71643 0.97075 0.57874 0.0
C276 C 0.72024 0.9555 0.52872 0.0
H277 H 0.74486 0.92499 0.4919 0.0
C278 C 0.70606 0.97437 0.51969 0.0
C279 C 0.73522 0.93816 0.5186 0.0
C280 C 0.75193 0.91841 0.52758 0.0
C281 C 0.70503 0.97519 0.50076 0.0
C282 C 0.71889 0.9569 0.49064 0.0
C283 C 0.73418 0.93895 0.49968 0.0
C284 C 0.71544 0.95417 0.47087 0.0
C285 C 0.68785 0.99456 0.49177 0.0
C286 C 0.70415 0.93175 0.46409 0.0
C287 C 0.69869 0.92949 0.44575 0.0
C288 C 0.7045 0.94961 0.43371 0.0
C289 C 0.7168 0.97168 0.44041 0.0
C290 C 0.72223 0.97393 0.45886 0.0
H291 H 0.67535 1.00453 0.50161 0.0
H292 H 0.6996 1.00929 0.48484 0.0
H293 H 0.67576 0.98505 0.48147 0.0
H294 H 0.69882 0.91624 0.4731 0.0
H295 H 0.68937 0.91214 0.44108 0.0
H296 H 0.31461 0.9112 0.07719 0.0
H297 H 0.30505 0.91596 0.04522 0.0
H298 H 0.27316 0.99094 0.05526 0.0
H299 H 0.28297 0.98649 0.08748 0.0
H300 H 0.25892 0.92554 0.02651 0.0
H301 H 0.32947 1.00457 0.0176 0.0
H302 H 0.32887 0.9846 0.03752 0.0
H303 H 0.3053 1.00912 0.03444 0.0
C304 C 0.30539 0.92867 0.0727 0.0
C305 C 0.2998 0.94858 0.08491 0.0
C306 C 0.29987 0.93132 0.05439 0.0
C307 C 0.28873 0.95394 0.04783 0.0
C308 C 0.28213 0.97348 0.06002 0.0
H309 H 0.28516 0.98889 0.9314 0.0
H310 H 0.27492 0.99226 0.96363 0.0
C311 C 0.28762 0.97084 0.07843 0.0
C312 C 0.28533 0.95712 0.02809 0.0
H313 H 0.31015 0.98833 0.99154 0.0
C314 C 0.26981 0.93953 0.01887 0.0
C315 C 0.29947 0.97547 0.01815 0.0
C316 C 0.31687 0.99446 0.02733 0.0
C317 C 0.26882 0.93914 0.99994 0.0
C318 C 0.28408 0.9565 0.98999 0.0
C319 C 0.29848 0.97503 0.99921 0.0
C320 C 0.2877 0.95386 0.97022 0.0
C321 C 0.25184 0.91977 0.99077 0.0
C322 C 0.29825 0.93118 0.96326 0.0
C323 C 0.3042 0.92924 0.94497 0.0
C324 C 0.29982 0.94998 0.93319 0.0
C325 C 0.28867 0.97252 0.94009 0.0
C326 C 0.28283 0.97449 0.95849 0.0
H327 H 0.23561 0.91425 0.99956 0.0
H328 H 0.24432 0.92736 0.97784 0.0
H329 H 0.26292 0.9021 0.98788 0.0
H330 H 0.30272 0.91523 0.9721 0.0
H331 H 0.31278 0.9116 0.94015 0.0
H332 H 0.69586 0.1115 0.94085 0.0
H333 H 0.70582 0.10723 0.97276 0.0
H334 H 0.72972 0.02891 0.96414 0.0
H335 H 0.71955 0.03294 0.93194 0.0
H336 H 0.69467 0.03442 0.99199 0.0
H337 H 0.77261 0.10464 1.00039 0.0
H338 H 0.74607 0.11829 0.98865 0.0
H339 H 0.76343 0.09214 0.97861 0.0
C340 C 0.70359 0.09344 0.94562 0.0
C341 C 0.70685 0.07253 0.93381 0.0
C342 C 0.70949 0.09111 0.96389 0.0
C343 C 0.71889 0.06789 0.9708 0.0
C344 C 0.72271 0.04709 0.95903 0.0
H345 H 0.72042 0.03563 0.08823 0.0
H346 H 0.73069 0.03047 0.05613 0.0
C347 C 0.71693 0.04944 0.94065 0.0
C348 C 0.72224 0.06495 0.99058 0.0
H349 H 0.74826 0.09472 0.02722 0.0
C350 C 0.70685 0.04713 0.99972 0.0
C351 C 0.73817 0.08154 1.00061 0.0
C352 C 0.7562 0.10005 0.99153 0.0
C353 C 0.70556 0.04678 0.01865 0.0
C354 C 0.72035 0.06447 0.02866 0.0
C355 C 0.73685 0.08124 0.01952 0.0
C356 C 0.71666 0.06797 0.04834 0.0
C357 C 0.68715 0.02866 0.02776 0.0
C358 C 0.70621 0.09105 0.05466 0.0
C359 C 0.7004 0.09408 0.0729 0.0
C360 C 0.70503 0.07411 0.08528 0.0
C361 C 0.71653 0.05135 0.07905 0.0
C362 C 0.72229 0.04831 0.06071 0.0
H363 H 0.67441 0.01894 0.01795 0.0
H364 H 0.6979 0.01366 0.03515 0.0
H365 H 0.6753 0.03919 0.0377 0.0
H366 H 0.70178 0.10648 0.04536 0.0
H367 H 0.69173 0.11193 0.07721 0.0
H368 H 0.81585 0.6161 0.57811 0.0
H369 H 0.80592 0.61223 0.54614 0.0
H370 H 0.77645 0.53585 0.55506 0.0
H371 H 0.78651 0.53947 0.58728 0.0
H372 H 0.81212 0.53893 0.52716 0.0
H373 H 0.7387 0.61386 0.51867 0.0
H374 H 0.76617 0.62565 0.53037 0.0
H375 H 0.74705 0.60076 0.54045 0.0
C376 C 0.80694 0.59857 0.57338 0.0
C377 C 0.80202 0.57807 0.58529 0.0
C378 C 0.80108 0.59648 0.55509 0.0
C379 C 0.79009 0.57391 0.54825 0.0
C380 C 0.78471 0.55353 0.5601 0.0
H381 H 0.78474 0.53951 0.43126 0.0
H382 H 0.7751 0.53561 0.46355 0.0
C383 C 0.79044 0.55566 0.5785 0.0
C384 C 0.78649 0.57107 0.5285 0.0
H385 H 0.76167 0.60171 0.4918 0.0
C386 C 0.80063 0.55224 0.5194 0.0
C387 C 0.77145 0.58844 0.51845 0.0
C388 C 0.75478 0.60815 0.5275 0.0
C389 C 0.80157 0.5515 0.50047 0.0
C390 C 0.78765 0.56983 0.49041 0.0
C391 C 0.77239 0.58773 0.49953 0.0
C392 C 0.79101 0.57264 0.47064 0.0
C393 C 0.81871 0.53218 0.4914 0.0
C394 C 0.8023 0.59509 0.46386 0.0
C395 C 0.80772 0.59742 0.44551 0.0
C396 C 0.80189 0.57736 0.43347 0.0
C397 C 0.78959 0.55527 0.44017 0.0
C398 C 0.78419 0.55294 0.45862 0.0
H399 H 0.83126 0.52216 0.50118 0.0
H400 H 0.80695 0.51748 0.48448 0.0
H401 H 0.83076 0.54174 0.48108 0.0
H402 H 0.80766 0.61056 0.47288 0.0
H403 H 0.81704 0.61479 0.44084 0.0
H404 H 0.22095 0.48463 0.58754 0.0
H405 H 0.23053 0.48832 0.55524 0.0
H406 H 0.19615 0.41419 0.54595 0.0
H407 H 0.18677 0.41018 0.57802 0.0
H408 H 0.24268 0.4221 0.52711 0.0
H409 H 0.17457 0.5029 0.51752 0.0
H410 H 0.1988 0.50706 0.53436 0.0
H411 H 0.17452 0.48323 0.53758 0.0
C412 C 0.21566 0.46901 0.57864 0.0
C413 C 0.20288 0.44721 0.58537 0.0
C414 C 0.22104 0.47122 0.56018 0.0
C415 C 0.21372 0.45169 0.54818 0.0
C416 C 0.20189 0.42953 0.55497 0.0
H417 H 0.18965 0.40888 0.44042 0.0
H418 H 0.19928 0.41245 0.47243 0.0
C419 C 0.19648 0.42732 0.57333 0.0
C420 C 0.21722 0.45441 0.52841 0.0
H421 H 0.19369 0.4859 0.4916 0.0
C422 C 0.23227 0.43628 0.51935 0.0
C423 C 0.20372 0.47302 0.51832 0.0
C424 C 0.18684 0.49261 0.52734 0.0
C425 C 0.23344 0.43566 0.50043 0.0
C426 C 0.21882 0.45334 0.49032 0.0
C427 C 0.20487 0.47235 0.49939 0.0
C428 C 0.21541 0.45067 0.47054 0.0
C429 C 0.24994 0.41574 0.49144 0.0
C430 C 0.22105 0.47109 0.45878 0.0
C431 C 0.21546 0.46915 0.44034 0.0
C432 C 0.20379 0.44687 0.43343 0.0
C433 C 0.19865 0.42631 0.44524 0.0
C434 C 0.20434 0.42823 0.46357 0.0
H435 H 0.26588 0.40985 0.50033 0.0
H436 H 0.23837 0.39837 0.48856 0.0
H437 H 0.25785 0.42301 0.47851 0.0
H438 H 0.22938 0.48868 0.46392 0.0
H439 H 0.21956 0.48537 0.43164 0.0
H440 H 0.80793 0.41377 0.94046 0.0
H441 H 0.80047 0.42025 0.97256 0.0
H442 H 0.78481 0.50045 0.96306 0.0
H443 H 0.79231 0.49421 0.9306 0.0
H444 H 0.83236 0.46422 0.99134 0.0
H445 H 0.72719 0.46659 0.99993 0.0
H446 H 0.74149 0.44777 0.98214 0.0
H447 H 0.74222 0.48216 0.9809 0.0
C448 C 0.80251 0.43276 0.94506 0.0
C449 C 0.80096 0.45354 0.93294 0.0
C450 C 0.79818 0.43637 0.96344 0.0
C451 C 0.79208 0.46078 0.97012 0.0
C452 C 0.78931 0.48141 0.95807 0.0
H453 H 0.78755 0.49347 0.0871 0.0
H454 H 0.78113 0.499 0.05448 0.0
C455 C 0.79362 0.47781 0.93956 0.0
C456 C 0.79157 0.46474 0.98987 0.0
H457 H 0.7521 0.46533 0.02646 0.0
C458 C 0.81483 0.46491 0.99903 0.0
C459 C 0.76866 0.46571 0.99976 0.0
C460 C 0.74334 0.46557 0.99031 0.0
C461 C 0.81582 0.465 0.01791 0.0
C462 C 0.79292 0.4645 0.02787 0.0
C463 C 0.76959 0.46561 0.01874 0.0
C464 C 0.79327 0.46052 0.04764 0.0
C465 C 0.84138 0.46484 0.0271 0.0
C466 C 0.80141 0.43682 0.05453 0.0
C467 C 0.80513 0.4336 0.07302 0.0
C468 C 0.80071 0.45403 0.08505 0.0
C469 C 0.79116 0.47737 0.0782 0.0
C470 C 0.78747 0.48058 0.05959 0.0
H471 H 0.85675 0.47143 0.01791 0.0
H472 H 0.84122 0.47731 0.03925 0.0
H473 H 0.84587 0.44494 0.03147 0.0
H474 H 0.80576 0.42104 0.04551 0.0
H475 H 0.81225 0.41529 0.0778 0.0
H476 H 0.21934 0.53078 0.08667 0.0
H477 H 0.22933 0.52612 0.05448 0.0
H478 H 0.20804 0.60514 0.04547 0.0
H479 H 0.1982 0.61001 0.07738 0.0
H480 H 0.19396 0.5329 0.02668 0.0
H481 H 0.27485 0.59953 0.01768 0.0
H482 H 0.26541 0.58737 0.03952 0.0
H483 H 0.24902 0.61425 0.02959 0.0
C484 C 0.21728 0.54729 0.07788 0.0
C485 C 0.20793 0.57076 0.0846 0.0
C486 C 0.22294 0.54458 0.0595 0.0
C487 C 0.21976 0.56538 0.04762 0.0
C488 C 0.21117 0.58898 0.05443 0.0
H489 H 0.19402 0.61101 0.94166 0.0
H490 H 0.20437 0.60471 0.97335 0.0
C491 C 0.20535 0.59167 0.07269 0.0
C492 C 0.2229 0.56212 0.02786 0.0
H493 H 0.24999 0.59045 0.991 0.0
C494 C 0.20665 0.54499 0.01885 0.0
C495 C 0.23951 0.57788 0.0177 0.0
C496 C 0.25837 0.5956 0.02664 0.0
C497 C 0.20518 0.54462 0.99992 0.0
C498 C 0.22069 0.56156 0.98978 0.0
C499 C 0.23805 0.57754 0.99879 0.0
C500 C 0.21683 0.56536 0.97013 0.0
C501 C 0.18584 0.52739 0.99098 0.0
C502 C 0.22099 0.54547 0.95766 0.0
C503 C 0.21502 0.549 0.93938 0.0
C504 C 0.20479 0.57247 0.93334 0.0
C505 C 0.20167 0.5926 0.94582 0.0
C506 C 0.20766 0.58908 0.96397 0.0
H507 H 0.17275 0.51835 1.00089 0.0
H508 H 0.17441 0.53845 0.98107 0.0
H509 H 0.19579 0.51184 0.98358 0.0
H510 H 0.22842 0.52712 0.9621 0.0
H511 H 0.21775 0.53314 0.93012 0.0
H512 H 0.58446 0.93312 0.3743 0.0
H513 H 0.54138 0.95066 0.37193 0.0
H514 H 0.572 0.0276 0.37068 0.0
H515 H 0.6149 1.01039 0.37276 0.0
H516 H 0.51762 0.98382 0.39582 0.0
H517 H 0.52347 0.02861 0.32806 0.0
H518 H 0.54646 1.0055 0.33598 0.0
H519 H 0.54843 0.03856 0.34298 0.0
C520 C 0.58204 0.95376 0.37332 0.0
C521 C 0.6032 0.97031 0.37367 0.0
C522 C 0.55741 0.96375 0.37198 0.0
C523 C 0.55348 0.99043 0.37083 0.0
C524 C 0.57456 1.00694 0.37111 0.0
H525 H 0.42195 0.09175 0.37397 0.0
H526 H 0.46488 0.07353 0.37261 0.0
C527 C 0.59912 0.99702 0.37244 0.0
C528 C 0.52736 1.00118 0.37036 0.0
H529 H 0.48781 0.04022 0.34615 0.0
C530 C 0.51102 0.99596 0.38488 0.0
C531 C 0.51884 0.01718 0.35614 0.0
C532 C 0.53511 0.02263 0.33982 0.0
C533 C 0.48659 1.0067 0.38575 0.0
C534 C 0.47811 0.02278 0.37157 0.0
C535 C 0.4944 0.02798 0.35703 0.0
C536 C 0.45219 0.03396 0.37152 0.0
C537 C 0.47026 1.00122 0.40204 0.0
C538 C 0.43088 0.0178 0.37091 0.0
C539 C 0.40643 0.02809 0.37167 0.0
C540 C 0.4027 0.05485 0.37298 0.0
C541 C 0.42411 0.07109 0.37302 0.0
C542 C 0.44865 0.06071 0.37225 0.0
H543 H 0.48168 0.99408 0.4136 0.0
H544 H 0.45983 0.01872 0.40634 0.0
H545 H 0.45609 0.9862 0.39857 0.0
H546 H 0.43318 0.99714 0.36999 0.0
H547 H 0.39044 0.01497 0.37146 0.0
H548 H 0.39021 1.00924 0.14348 0.0
H549 H 0.43313 0.02677 0.14478 0.0
H550 H 0.46379 0.94993 0.14616 0.0
H551 H 0.42074 0.93208 0.1445 0.0
H552 H 0.47088 0.02172 0.17 0.0
H553 H 0.50205 0.98207 0.10411 0.0
H554 H 0.46921 0.98227 0.11105 0.0
H555 H 0.49057 0.95829 0.11968 0.0
C556 C 0.40602 0.99597 0.14407 0.0
C557 C 0.40197 0.96919 0.14374 0.0
C558 C 0.43059 1.00608 0.14484 0.0
C559 C 0.45171 0.98971 0.14526 0.0
C560 C 0.44779 0.96295 0.14544 0.0
H561 H 0.61406 0.01593 0.14657 0.0
H562 H 0.57122 0.99828 0.14822 0.0
C563 C 0.42315 0.95277 0.1446 0.0
C564 C 0.47775 1.00082 0.14542 0.0
H565 H 0.53338 1.00295 0.12172 0.0
C566 C 0.48454 0.01766 0.15943 0.0
C567 C 0.49552 0.99562 0.13156 0.0
C568 C 0.48897 0.97878 0.11565 0.0
C569 C 0.50874 0.02909 0.16012 0.0
C570 C 0.5265 0.02379 0.14631 0.0
C571 C 0.51973 1.00695 0.13231 0.0
C572 C 0.55242 0.03511 0.14621 0.0
C573 C 0.51529 0.04634 0.1758 0.0
C574 C 0.55613 0.06178 0.14454 0.0
C575 C 0.58074 0.07204 0.14358 0.0
C576 C 0.60206 0.05577 0.14419 0.0
C577 C 0.59816 0.02909 0.14605 0.0
C578 C 0.57364 0.01891 0.14698 0.0
H579 H 0.50189 0.04377 0.18724 0.0
H580 H 0.53488 0.04255 0.18064 0.0
H581 H 0.51431 0.06671 0.17137 0.0
H582 H 0.54 0.07461 0.14362 0.0
H583 H 0.58303 0.09264 0.14206 0.0
H584 H 0.61603 1.01045 0.64696 0.0
H585 H 0.57328 0.02822 0.64883 0.0
H586 H 0.54169 0.95176 0.64625 0.0
H587 H 0.58458 0.93364 0.64454 0.0
H588 H 0.53504 0.02296 0.62312 0.0
H589 H 0.50433 0.98387 0.68937 0.0
H590 H 0.5372 0.98456 0.68241 0.0
H591 H 0.51614 0.96028 0.67379 0.0
C592 C 0.60006 0.9973 0.64696 0.0
C593 C 0.60381 0.97056 0.64561 0.0
C594 C 0.5756 1.00755 0.64801 0.0
C595 C 0.5543 0.99134 0.64786 0.0
C596 C 0.55788 0.96461 0.64672 0.0
H597 H 0.39209 0.01559 0.6445 0.0
H598 H 0.43516 0.99859 0.64615 0.0
C599 C 0.58242 0.95429 0.64565 0.0
C600 C 0.52841 1.00264 0.64799 0.0
H601 H 0.47286 1.00475 0.67178 0.0
C602 C 0.52148 0.0191 0.6338 0.0
C603 C 0.51075 0.99755 0.66193 0.0
C604 C 0.51746 0.98079 0.67784 0.0
C605 C 0.4972 0.0302 0.63297 0.0
C606 C 0.47952 0.02512 0.64691 0.0
C607 C 0.48647 1.00871 0.66114 0.0
C608 C 0.45339 0.03588 0.64662 0.0
C609 C 0.49048 0.04665 0.61689 0.0
C610 C 0.44924 0.06258 0.64668 0.0
C611 C 0.42453 0.07245 0.64566 0.0
C612 C 0.4035 0.05578 0.6447 0.0
C613 C 0.40778 0.02905 0.64515 0.0
C614 C 0.43243 0.01924 0.64613 0.0
H615 H 0.50368 0.04344 0.60542 0.0
H616 H 0.4708 0.04268 0.61228 0.0
H617 H 0.49169 0.06723 0.62075 0.0
H618 H 0.46512 0.07579 0.64743 0.0
H619 H 0.42194 0.09311 0.64546 0.0
H620 H 0.58491 0.0906 0.87671 0.0
H621 H 0.54166 0.07308 0.87509 0.0
H622 H 0.572 0.99632 0.87119 0.0
H623 H 0.61505 0.01345 0.8729 0.0
H624 H 0.5185 0.04092 0.84785 0.0
H625 H 0.52295 0.99262 0.91462 0.0
H626 H 0.54525 0.01724 0.90788 0.0
H627 H 0.54864 0.98494 0.89962 0.0
C628 C 0.58238 0.07 0.87546 0.0
C629 C 0.6035 0.05345 0.87508 0.0
C630 C 0.55766 0.06003 0.87452 0.0
C631 C 0.55365 0.03337 0.87332 0.0
C632 C 0.57466 0.01691 0.87246 0.0
H633 H 0.42023 0.93388 0.87381 0.0
H634 H 0.46349 0.95117 0.87194 0.0
C635 C 0.5993 0.0268 0.87337 0.0
C636 C 0.52754 0.0226 0.87307 0.0
H637 H 0.48712 0.98337 0.89645 0.0
C638 C 0.51156 0.02843 0.8585 0.0
C639 C 0.51861 1.0062 0.88694 0.0
C640 C 0.53463 1.0 0.90324 0.0
C641 C 0.48699 0.01795 0.85728 0.0
C642 C 0.47803 1.00161 0.87119 0.0
C643 C 0.49405 0.99577 0.88575 0.0
C644 C 0.45179 0.99105 0.87128 0.0
C645 C 0.47106 0.02406 0.84092 0.0
C646 C 0.43086 1.0077 0.87161 0.0
C647 C 0.40619 0.99791 0.87264 0.0
C648 C 0.40184 0.9712 0.87353 0.0
C649 C 0.42285 0.95452 0.8731 0.0
C650 C 0.44759 0.96437 0.87205 0.0
H651 H 0.48299 0.03029 0.82934 0.0
H652 H 0.45958 1.00716 0.83674 0.0
H653 H 0.45789 0.04002 0.84422 0.0
H654 H 0.43363 0.02834 0.87147 0.0
H655 H 0.39052 1.01137 0.87304 0.0
H656 H 0.92216 0.59324 0.3745 0.0
H657 H 0.96514 0.57538 0.37229 0.0
H658 H 0.93393 0.49872 0.37029 0.0
H659 H 0.89113 0.51625 0.37222 0.0
H660 H 0.98822 0.54161 0.39614 0.0
H661 H 0.98319 0.49802 0.32802 0.0
H662 H 0.96027 0.52122 0.33593 0.0
H663 H 0.95787 0.48806 0.34267 0.0
C664 C 0.92443 0.5726 0.37338 0.0
C665 C 0.90314 0.55622 0.37349 0.0
C666 C 0.94901 0.56242 0.37214 0.0
C667 C 0.95274 0.53573 0.37084 0.0
C668 C 0.93153 0.51939 0.37085 0.0
H669 H 0.08343 0.43326 0.37425 0.0
H670 H 0.04065 0.45185 0.37278 0.0
C671 C 0.90703 0.5295 0.37209 0.0
C672 C 0.97878 0.52477 0.37049 0.0
H673 H 0.01843 0.48579 0.3463 0.0
C674 C 0.99491 0.5296 0.38517 0.0
C675 C 0.98742 0.50893 0.35622 0.0
C676 C 0.97139 0.50392 0.33973 0.0
C677 C 0.01923 0.51863 0.38615 0.0
C678 C 0.02782 0.50271 0.37193 0.0
C679 C 0.01175 0.49791 0.35722 0.0
C680 C 0.05365 0.49133 0.37199 0.0
C681 C 0.03533 0.5237 0.40261 0.0
C682 C 0.07509 0.50733 0.37159 0.0
C683 C 0.09945 0.49683 0.37241 0.0
C684 C 0.10297 0.47002 0.37357 0.0
C685 C 0.08143 0.45396 0.37343 0.0
C686 C 0.05698 0.46454 0.37258 0.0
H687 H 0.02378 0.53078 0.41412 0.0
H688 H 0.04552 0.50603 0.40687 0.0
H689 H 0.0497 0.53862 0.39934 0.0
H690 H 0.07296 0.52802 0.37078 0.0
H691 H 0.11555 0.50983 0.37235 0.0
H692 H 0.1147 0.51278 0.14335 0.0
H693 H 0.07138 0.49631 0.14486 0.0
H694 H 0.04247 0.57386 0.14458 0.0
H695 H 0.08592 0.59063 0.14271 0.0
H696 H 0.03369 0.50332 0.16995 0.0
H697 H 0.0036 0.54084 0.10319 0.0
H698 H 0.03642 0.54015 0.11015 0.0
H699 H 0.0156 0.56499 0.11824 0.0
C700 C 0.09919 0.52643 0.14361 0.0
C701 C 0.10385 0.55309 0.14277 0.0
C702 C 0.07439 0.51692 0.1445 0.0
C703 C 0.05364 0.53379 0.14454 0.0
C704 C 0.05817 0.56044 0.14417 0.0
H705 H 0.89073 0.51125 0.14629 0.0
H706 H 0.93393 0.52804 0.14768 0.0
C707 C 0.08304 0.57002 0.14321 0.0
C708 C 0.02736 0.5233 0.14491 0.0
H709 H 0.97176 0.52144 0.12122 0.0
C710 C 0.02016 0.50724 0.15928 0.0
C711 C 0.00976 0.52831 0.13092 0.0
C712 C 0.01673 0.54431 0.11466 0.0
C713 C 0.99571 0.4964 0.1602 0.0
C714 C 0.97811 0.50151 0.14626 0.0
C715 C 0.98529 0.51758 0.1319 0.0
C716 C 0.95197 0.49076 0.14638 0.0
C717 C 0.98873 0.47997 0.17624 0.0
C718 C 0.94771 0.46412 0.14521 0.0
C719 C 0.9229 0.45435 0.14439 0.0
C720 C 0.90192 0.47109 0.14466 0.0
C721 C 0.90637 0.49773 0.14606 0.0
C722 C 0.93109 0.50743 0.14683 0.0
H723 H 1.00217 0.48269 0.18763 0.0
H724 H 0.96922 0.48445 0.18099 0.0
H725 H 0.98921 0.45941 0.17225 0.0
H726 H 0.96357 0.45093 0.14454 0.0
H727 H 0.92019 0.43377 0.14324 0.0
H728 H 0.89045 0.51581 0.64712 0.0
H729 H 0.93311 0.49791 0.6492 0.0
H730 H 0.96498 0.57424 0.64642 0.0
H731 H 0.92216 0.5925 0.64449 0.0
H732 H 0.97158 0.50288 0.6236 0.0
H733 H 1.00186 0.54227 0.6898 0.0
H734 H 0.96905 0.54166 0.68273 0.0
H735 H 0.99028 0.56578 0.67407 0.0
C736 C 0.90646 0.52891 0.64711 0.0
C737 C 0.90281 0.55566 0.64564 0.0
C738 C 0.93087 0.51859 0.64829 0.0
C739 C 0.95223 0.53472 0.64815 0.0
C740 C 0.94875 0.56145 0.64688 0.0
H741 H 0.11434 0.5094 0.64544 0.0
H742 H 0.07138 0.52672 0.64697 0.0
C743 C 0.92425 0.57185 0.64569 0.0
C744 C 0.97807 0.52332 0.64842 0.0
H745 H 0.03335 0.52102 0.67245 0.0
C746 C 0.98505 0.50673 0.63433 0.0
C747 C 0.99562 0.5284 0.66241 0.0
C748 C 0.98884 0.54532 0.67821 0.0
C749 C 0.00927 0.49548 0.63365 0.0
C750 C 0.02683 0.50052 0.64765 0.0
C751 C 0.01984 0.51708 0.66177 0.0
C752 C 0.05288 0.48957 0.64752 0.0
C753 C 0.01606 0.47888 0.61767 0.0
C754 C 0.05685 0.46284 0.64769 0.0
C755 C 0.08149 0.45278 0.64675 0.0
C756 C 0.10264 0.4693 0.64575 0.0
C757 C 0.09855 0.49606 0.64612 0.0
C758 C 0.07397 0.50605 0.64703 0.0
H759 H 0.00301 0.48211 0.60612 0.0
H760 H 0.03582 0.48269 0.61313 0.0
H761 H 0.01467 0.45833 0.6216 0.0
H762 H 0.04087 0.44975 0.64845 0.0
H763 H 0.08393 0.4321 0.64661 0.0
H764 H 0.11108 0.53161 0.85241 0.0
H765 H 0.0683 0.51362 0.84989 0.0
H766 H 0.04325 0.56282 0.89327 0.0
H767 H 0.08558 0.58215 0.89482 0.0
H768 H 0.04291 0.4864 0.87109 0.0
H769 H 0.98592 0.57416 0.86074 0.0
H770 H 0.02011 0.57468 0.85994 0.0
H771 H 0.00365 0.57651 0.88126 0.0
C772 C 0.09624 0.53892 0.86113 0.0
C773 C 0.1015 0.55845 0.87366 0.0
C774 C 0.07181 0.52856 0.85976 0.0
C775 C 0.05222 0.53705 0.87118 0.0
C776 C 0.0576 0.5565 0.88382 0.0
H777 H 0.91945 0.44198 0.89506 0.0
H778 H 0.96197 0.46095 0.89361 0.0
C779 C 0.08188 0.56745 0.8848 0.0
C780 C 0.02673 0.52448 0.87052 0.0
H781 H 0.96303 0.53661 0.87011 0.0
C782 C 0.02546 0.49745 0.87064 0.0
C783 C 0.00381 0.53868 0.86963 0.0
C784 C 0.00345 0.56758 0.86767 0.0
C785 C 1.00214 0.4843 0.8701 0.0
C786 C 0.97921 0.49852 0.87042 0.0
C787 C 0.98048 0.52555 0.87009 0.0
C788 C 0.95369 0.486 0.87096 0.0
C789 C 1.00254 0.45534 0.86867 0.0
C790 C 0.93444 0.49417 0.85915 0.0
C791 C 0.90991 0.48403 0.86045 0.0
C792 C 0.90421 0.46503 0.8733 0.0
C793 C 0.92351 0.45627 0.8848 0.0
C794 C 0.94789 0.46701 0.88388 0.0
H795 H 0.02026 0.44852 0.86209 0.0
H796 H 1.00195 0.44689 0.88241 0.0
H797 H 0.98611 0.44799 0.86084 0.0
H798 H 0.93827 0.50874 0.84905 0.0
H799 H 0.89532 0.49116 0.85144 0.0
H800 H 0.16742 0.33103 0.38203 0.0
H801 H 0.19111 0.29103 0.37805 0.0
H802 H 0.2495 0.33211 0.34912 0.0
H803 H 0.22575 0.37227 0.35284 0.0
H804 H 0.23791 0.2825 0.33441 0.0
H805 H 0.25578 0.27903 0.40817 0.0
H806 H 0.22282 0.28096 0.40213 0.0
H807 H 0.24372 0.30735 0.39702 0.0
C808 C 0.1851 0.33155 0.37457 0.0
C809 C 0.1948 0.35493 0.36791 0.0
C810 C 0.19868 0.30866 0.37238 0.0
C811 C 0.22231 0.30868 0.3636 0.0
C812 C 0.23137 0.33169 0.35602 0.0
H813 H 0.33833 0.1931 0.38103 0.0
H814 H 0.3152 0.23335 0.37679 0.0
C815 C 0.21775 0.35463 0.35817 0.0
C816 C 0.23825 0.28511 0.36339 0.0
H817 H 0.26877 0.24288 0.39119 0.0
C818 C 0.24472 0.27382 0.3468 0.0
C819 C 0.24747 0.27407 0.37955 0.0
C820 C 0.24234 0.28606 0.39773 0.0
C821 C 0.25975 0.25146 0.346 0.0
C822 C 0.26829 0.23999 0.36222 0.0
C823 C 0.26213 0.25157 0.37876 0.0
C824 C 0.28366 0.21599 0.36258 0.0
C825 C 0.2667 0.24057 0.32781 0.0
C826 C 0.27389 0.19282 0.35571 0.0
C827 C 0.28718 0.16972 0.35804 0.0
C828 C 0.31038 0.16931 0.36744 0.0
C829 C 0.32053 0.19269 0.37373 0.0
C830 C 0.30729 0.21574 0.37134 0.0
H831 H 0.26474 0.25517 0.31695 0.0
H832 H 0.28648 0.23321 0.32777 0.0
H833 H 0.25377 0.22432 0.32463 0.0
H834 H 0.25548 0.1924 0.34921 0.0
H835 H 0.27874 0.15205 0.35313 0.0
H836 H 0.67887 0.83549 0.39113 0.0
H837 H 0.70292 0.79613 0.38619 0.0
H838 H 0.73947 0.83066 0.34001 0.0
H839 H 0.71629 0.87077 0.34551 0.0
H840 H 0.70644 0.76216 0.36082 0.0
H841 H 0.80057 0.80928 0.36751 0.0
H842 H 0.77134 0.82597 0.37215 0.0
H843 H 0.78195 0.82172 0.34926 0.0
C844 C 0.69189 0.83471 0.37983 0.0
C845 C 0.69583 0.85637 0.36881 0.0
C846 C 0.70568 0.81212 0.37701 0.0
C847 C 0.72354 0.81049 0.36297 0.0
C848 C 0.72647 0.83164 0.3513 0.0
H849 H 0.79066 0.65648 0.3453 0.0
H850 H 0.76755 0.69665 0.33986 0.0
C851 C 0.713 0.85449 0.35434 0.0
C852 C 0.73932 0.78682 0.36107 0.0
H853 H 0.80054 0.76501 0.36085 0.0
C854 C 0.72703 0.7628 0.36076 0.0
C855 C 0.76623 0.78755 0.36119 0.0
C856 C 0.78083 0.81247 0.36272 0.0
C857 C 0.74074 0.73962 0.36113 0.0
C858 C 0.76766 0.74035 0.36103 0.0
C859 C 0.77995 0.76437 0.36077 0.0
C860 C 0.78343 0.71666 0.36288 0.0
C861 C 0.72613 0.71469 0.3626 0.0
C862 C 0.80125 0.71493 0.37692 0.0
C863 C 0.81501 0.69231 0.3797 0.0
C864 C 0.81107 0.67072 0.36864 0.0
C865 C 0.79395 0.67271 0.35416 0.0
C866 C 0.78051 0.69559 0.35116 0.0
H867 H 0.70639 0.71785 0.3674 0.0
H868 H 0.72504 0.70553 0.34912 0.0
H869 H 0.7356 0.70113 0.37201 0.0
H870 H 0.804 0.73086 0.38613 0.0
H871 H 0.828 0.69144 0.39101 0.0
H872 H 0.18065 0.68696 0.12532 0.0
H873 H 0.20414 0.72671 0.13035 0.0
H874 H 0.23953 0.69335 0.17731 0.0
H875 H 0.21689 0.65287 0.17178 0.0
H876 H 0.20638 0.76105 0.1557 0.0
H877 H 0.30126 0.71535 0.15049 0.0
H878 H 0.27238 0.69819 0.14549 0.0
H879 H 0.28221 0.70277 0.16852 0.0
C880 C 0.1933 0.68807 0.1368 0.0
C881 C 0.19706 0.66664 0.14806 0.0
C882 C 0.20677 0.71089 0.13967 0.0
C883 C 0.22414 0.71297 0.15397 0.0
C884 C 0.22691 0.69203 0.16584 0.0
H885 H 0.28901 0.86805 0.17212 0.0
H886 H 0.26624 0.82755 0.17734 0.0
C887 C 0.21375 0.66896 0.16277 0.0
C888 C 0.23956 0.73692 0.15597 0.0
H889 H 0.30049 0.7597 0.15689 0.0
C890 C 0.22697 0.76074 0.15603 0.0
C891 C 0.26648 0.73661 0.15622 0.0
C892 C 0.28142 0.7119 0.155 0.0
C893 C 0.24041 0.78413 0.15578 0.0
C894 C 0.26732 0.78383 0.15622 0.0
C895 C 0.27989 0.76001 0.1567 0.0
C896 C 0.28283 0.80776 0.1545 0.0
C897 C 0.22554 0.80883 0.15406 0.0
C898 C 0.3009 0.80976 0.14062 0.0
C899 C 0.31443 0.8326 0.13794 0.0
C900 C 0.31004 0.85413 0.14897 0.0
C901 C 0.29266 0.85188 0.1633 0.0
C902 C 0.27943 0.8288 0.16617 0.0
H903 H 0.20594 0.80534 0.14907 0.0
H904 H 0.22405 0.81806 0.1675 0.0
H905 H 0.23507 0.82247 0.14471 0.0
H906 H 0.30403 0.79386 0.13145 0.0
H907 H 0.32763 0.83365 0.12675 0.0
H908 H 0.6776 0.19069 0.12568 0.0
H909 H 0.70129 0.23041 0.13043 0.0
H910 H 0.73748 0.1971 0.1771 0.0
H911 H 0.71462 0.15667 0.17186 0.0
H912 H 0.70419 0.26485 0.15576 0.0
H913 H 0.79874 0.21873 0.14955 0.0
H914 H 0.76967 0.2017 0.14486 0.0
H915 H 0.78003 0.20621 0.16778 0.0
C916 C 0.69047 0.19181 0.13705 0.0
C917 C 0.69439 0.1704 0.1483 0.0
C918 C 0.70405 0.2146 0.13975 0.0
C919 C 0.7217 0.21668 0.15388 0.0
C920 C 0.72463 0.19578 0.16575 0.0
H921 H 0.7877 0.3712 0.1721 0.0
H922 H 0.76469 0.3308 0.17717 0.0
C923 C 0.71134 0.17274 0.16286 0.0
C924 C 0.73726 0.24057 0.15569 0.0
H925 H 0.79831 0.26306 0.15609 0.0
C926 C 0.72478 0.26444 0.1559 0.0
C927 C 0.76418 0.24013 0.15567 0.0
C928 C 0.77898 0.21536 0.15428 0.0
C929 C 0.73832 0.28778 0.15558 0.0
C930 C 0.76524 0.28735 0.15579 0.0
C931 C 0.77771 0.26347 0.15608 0.0
C932 C 0.78083 0.31123 0.15407 0.0
C933 C 0.72355 0.31256 0.15408 0.0
C934 C 0.79872 0.31331 0.14008 0.0
C935 C 0.81238 0.33609 0.13747 0.0
C936 C 0.80831 0.35748 0.14869 0.0
C937 C 0.7911 0.35514 0.16312 0.0
C938 C 0.77773 0.33212 0.16592 0.0
H939 H 0.70386 0.3092 0.14921 0.0
H940 H 0.72228 0.32168 0.16757 0.0
H941 H 0.733 0.32623 0.14472 0.0
H942 H 0.80162 0.29751 0.13078 0.0
H943 H 0.82544 0.33721 0.12621 0.0
H944 H 0.66741 0.83226 0.63791 0.0
H945 H 0.69026 0.79189 0.64229 0.0
H946 H 0.7504 0.83264 0.66954 0.0
H947 H 0.72743 0.87314 0.66547 0.0
H948 H 0.73657 0.78204 0.62776 0.0
H949 H 0.74094 0.77008 0.70202 0.0
H950 H 0.71924 0.79209 0.6912 0.0
H951 H 0.75201 0.80083 0.69422 0.0
C952 C 0.68525 0.83261 0.64517 0.0
C953 C 0.6956 0.85597 0.65132 0.0
C954 C 0.69832 0.80948 0.64764 0.0
C955 C 0.72199 0.80914 0.65635 0.0
C956 C 0.73196 0.8323 0.66309 0.0
H957 H 0.83793 0.69402 0.637 0.0
H958 H 0.81421 0.73397 0.64106 0.0
C959 C 0.71883 0.85548 0.66068 0.0
C960 C 0.7372 0.78505 0.65672 0.0
H961 H 0.76752 0.7425 0.68454 0.0
C962 C 0.74322 0.77336 0.6402 0.0
C963 C 0.74576 0.7736 0.67295 0.0
C964 C 0.73899 0.78462 0.69113 0.0
C965 C 0.75776 0.7508 0.63941 0.0
C966 C 0.76701 0.73978 0.65558 0.0
C967 C 0.76068 0.75116 0.67215 0.0
C968 C 0.78293 0.71621 0.65535 0.0
C969 C 0.7628 0.73873 0.62124 0.0
C970 C 0.77382 0.69314 0.6628 0.0
C971 C 0.78744 0.67021 0.6606 0.0
C972 C 0.81045 0.66999 0.65093 0.0
C973 C 0.8202 0.69343 0.6444 0.0
C974 C 0.80661 0.7163 0.64664 0.0
H975 H 0.74939 0.7458 0.6108 0.0
H976 H 0.78235 0.74368 0.61683 0.0
H977 H 0.76129 0.71744 0.62199 0.0
H978 H 0.75564 0.69267 0.66964 0.0
H979 H 0.77941 0.65252 0.66582 0.0
H980 H 0.22709 0.37295 0.66574 0.0
H981 H 0.25094 0.33282 0.66938 0.0
H982 H 0.19179 0.29143 0.64156 0.0
H983 H 0.16798 0.33137 0.63768 0.0
H984 H 0.23943 0.28307 0.68453 0.0
H985 H 0.25591 0.27944 0.61059 0.0
H986 H 0.24422 0.30784 0.62183 0.0
H987 H 0.22308 0.28155 0.61701 0.0
C988 C 0.21895 0.35524 0.66065 0.0
C989 C 0.19574 0.35543 0.65125 0.0
C990 C 0.23262 0.33232 0.66274 0.0
C991 C 0.22336 0.30923 0.65545 0.0
C992 C 0.1995 0.30911 0.64701 0.0
H993 H 0.27935 0.15239 0.66532 0.0
H994 H 0.25631 0.19282 0.6695 0.0
C995 C 0.18587 0.33198 0.64488 0.0
C996 C 0.23929 0.28566 0.65555 0.0
H997 H 0.26915 0.24331 0.6275 0.0
C998 C 0.246 0.27436 0.67209 0.0
C999 C 0.24818 0.27458 0.63931 0.0
C1000 C 0.24272 0.28655 0.62117 0.0
C1001 C 0.26095 0.25193 0.67277 0.0
C1002 C 0.26916 0.24043 0.65648 0.0
C1003 C 0.26276 0.25203 0.63999 0.0
C1004 C 0.28443 0.21638 0.656 0.0
C1005 C 0.26814 0.24099 0.6909 0.0
C1006 C 0.30796 0.21609 0.64709 0.0
C1007 C 0.32108 0.19301 0.64456 0.0
C1008 C 0.31091 0.16963 0.65085 0.0
C1009 C 0.28781 0.17006 0.66041 0.0
C1010 C 0.27464 0.19321 0.66289 0.0
H1011 H 0.26633 0.25555 0.70179 0.0
H1012 H 0.25528 0.22472 0.69417 0.0
H1013 H 0.28793 0.23364 0.69077 0.0
H1014 H 0.31587 0.23371 0.64162 0.0
H1015 H 0.3388 0.1934 0.63715 0.0
H1016 H 0.71639 0.15355 0.84657 0.0
H1017 H 0.73923 0.19394 0.84109 0.0
H1018 H 0.70219 0.22801 0.88716 0.0
H1019 H 0.67855 0.1883 0.89215 0.0
H1020 H 0.70567 0.26203 0.86136 0.0
H1021 H 0.7999 0.2157 0.86932 0.0
H1022 H 0.78155 0.20296 0.85101 0.0
H1023 H 0.77065 0.19889 0.87386 0.0
C1024 C 0.71291 0.16978 0.85538 0.0
C1025 C 0.69577 0.16765 0.86986 0.0
C1026 C 0.72617 0.1928 0.85234 0.0
C1027 C 0.72301 0.21389 0.864 0.0
C1028 C 0.70512 0.21204 0.87801 0.0
H1029 H 0.82541 0.33393 0.89345 0.0
H1030 H 0.80167 0.29437 0.8883 0.0
C1031 C 0.69158 0.18926 0.88085 0.0
C1032 C 0.73867 0.23768 0.86216 0.0
H1033 H 0.79976 0.25999 0.86275 0.0
C1034 C 0.72626 0.26158 0.86157 0.0
C1035 C 0.76557 0.23716 0.86263 0.0
C1036 C 0.78024 0.21235 0.86441 0.0
C1037 C 0.73984 0.28488 0.862 0.0
C1038 C 0.76675 0.28435 0.86233 0.0
C1039 C 0.77918 0.26044 0.86235 0.0
C1040 C 0.78232 0.30815 0.86441 0.0
C1041 C 0.72511 0.30972 0.86307 0.0
C1042 C 0.77998 0.32903 0.85245 0.0
C1043 C 0.79331 0.35198 0.85557 0.0
C1044 C 0.80969 0.35425 0.87046 0.0
C1045 C 0.81299 0.33287 0.88184 0.0
C1046 C 0.79939 0.31017 0.87889 0.0
H1047 H 0.70516 0.30647 0.86741 0.0
H1048 H 0.73412 0.32335 0.87266 0.0
H1049 H 0.72465 0.31885 0.84955 0.0
H1050 H 0.76757 0.32775 0.84085 0.0
H1051 H 0.79052 0.36804 0.84647 0.0
H1052 H 0.16785 0.69369 0.88458 0.0
H1053 H 0.19066 0.73407 0.87988 0.0
H1054 H 0.24867 0.69374 0.85016 0.0
H1055 H 0.22566 0.65325 0.85451 0.0
H1056 H 0.23761 0.74376 0.89287 0.0
H1057 H 0.23766 0.75679 0.81863 0.0
H1058 H 0.21667 0.73448 0.82993 0.0
H1059 H 0.24926 0.72599 0.82583 0.0
C1060 C 0.18519 0.69345 0.87672 0.0
C1061 C 0.19494 0.67021 0.86994 0.0
C1062 C 0.19825 0.71658 0.87407 0.0
C1063 C 0.22132 0.71704 0.86456 0.0
C1064 C 0.23067 0.69401 0.85723 0.0
H1065 H 0.33728 0.83346 0.88181 0.0
H1066 H 0.31396 0.79312 0.87815 0.0
C1067 C 0.21753 0.67082 0.8598 0.0
C1068 C 0.2366 0.74113 0.86389 0.0
H1069 H 0.26522 0.7842 0.83548 0.0
C1070 C 0.24354 0.75263 0.8803 0.0
C1071 C 0.24421 0.75283 0.8475 0.0
C1072 C 0.23639 0.74206 0.82946 0.0
C1073 C 0.25803 0.77528 0.88081 0.0
C1074 C 0.26633 0.78657 0.86445 0.0
C1075 C 0.25912 0.77534 0.848 0.0
C1076 C 0.28204 0.81035 0.86435 0.0
C1077 C 0.26392 0.78719 0.8989 0.0
C1078 C 0.27246 0.83324 0.85697 0.0
C1079 C 0.28588 0.85637 0.85889 0.0
C1080 C 0.30913 0.85699 0.86824 0.0
C1081 C 0.31934 0.83373 0.87467 0.0
C1082 C 0.30597 0.81065 0.87267 0.0
H1083 H 0.25098 0.78 0.90962 0.0
H1084 H 0.28364 0.7822 0.90282 0.0
H1085 H 0.26242 0.80848 0.8983 0.0
H1086 H 0.25409 0.83342 0.8504 0.0
H1087 H 0.2775 0.87391 0.85375 0.0
H1088 H 0.2896 1.00147 0.33672 0.0
H1089 H 0.28157 0.99042 0.3052 0.0
H1090 H 0.27691 0.07098 0.29176 0.0
H1091 H 0.28555 0.08225 0.32321 0.0
H1092 H 0.24398 1.00067 0.27976 0.0
H1093 H 0.33572 0.04611 0.26066 0.0
H1094 H 0.32688 0.0404 0.28381 0.0
H1095 H 0.31391 0.06736 0.27175 0.0
C1096 C 0.28646 0.01687 0.32713 0.0
C1097 C 0.28857 0.04277 0.33244 0.0
C1098 C 0.28185 1.01049 0.3091 0.0
C1099 C 0.27923 0.02986 0.29605 0.0
C1100 C 0.27948 0.05572 0.30154 0.0
H1101 H 0.28391 0.02343 0.17897 0.0
H1102 H 0.27519 0.03668 0.20996 0.0
C1103 C 0.28427 0.06213 0.31955 0.0
C1104 C 0.2782 0.02297 0.27662 0.0
H1105 H 0.31091 0.02922 0.23707 0.0
C1106 C 0.25854 1.00699 0.27039 0.0
C1107 C 0.29736 0.03103 0.26445 0.0
C1108 C 0.3198 0.04697 0.27048 0.0
C1109 C 0.25742 0.99904 0.25227 0.0
C1110 C 0.27662 1.00709 0.24015 0.0
C1111 C 0.2961 0.02325 0.24636 0.0
C1112 C 0.2777 0.99832 0.22111 0.0
C1113 C 0.23567 0.98227 0.24619 0.0
C1114 C 0.28148 0.97223 0.21701 0.0
C1115 C 0.28648 0.96455 0.19926 0.0
C1116 C 0.28796 0.98287 0.18532 0.0
C1117 C 0.28293 1.00881 0.18936 0.0
C1118 C 0.27795 0.01645 0.20709 0.0
H1119 H 0.21929 0.98345 0.25561 0.0
H1120 H 0.22922 0.98777 0.23246 0.0
H1121 H 0.24208 0.96196 0.24574 0.0
H1122 H 0.28184 0.95796 0.22766 0.0
H1123 H 0.29038 0.94445 0.19663 0.0
H1124 H 0.71502 1.00265 0.18251 0.0
H1125 H 0.72338 0.99229 0.21409 0.0
H1126 H 0.72795 0.07314 0.22663 0.0
H1127 H 0.71898 0.08373 0.19509 0.0
H1128 H 0.76134 1.00329 0.23907 0.0
H1129 H 0.66973 0.04849 0.25846 0.0
H1130 H 0.67822 0.04242 0.23529 0.0
H1131 H 0.69137 0.06963 0.247 0.0
C1132 C 0.71819 0.01827 0.19191 0.0
C1133 C 0.71598 0.04404 0.18632 0.0
C1134 C 0.72299 1.01229 0.20997 0.0
C1135 C 0.72572 0.03193 0.22279 0.0
C1136 C 0.72532 0.05767 0.21703 0.0
H1137 H 0.7215 0.02577 0.33999 0.0
H1138 H 0.73027 0.03925 0.30904 0.0
C1139 C 0.72034 0.06369 0.19897 0.0
C1140 C 0.72707 0.02539 0.24227 0.0
H1141 H 0.69473 0.03174 0.28195 0.0
C1142 C 0.74687 1.0096 0.24848 0.0
C1143 C 0.70804 0.03347 0.25451 0.0
C1144 C 0.6855 0.04923 0.24851 0.0
C1145 C 0.74818 1.00179 0.26664 0.0
C1146 C 0.72905 1.00977 0.2788 0.0
C1147 C 0.70949 0.02581 0.27262 0.0
C1148 C 0.72804 1.00092 0.29783 0.0
C1149 C 0.77004 0.98519 0.27267 0.0
C1150 C 0.72442 0.97478 0.30189 0.0
C1151 C 0.7194 0.96697 0.31961 0.0
C1152 C 0.71772 0.98521 0.33357 0.0
C1153 C 0.72263 1.01121 0.32958 0.0
C1154 C 0.72764 0.01898 0.31188 0.0
H1155 H 0.78641 0.98661 0.26326 0.0
H1156 H 0.77646 0.99064 0.28641 0.0
H1157 H 0.76377 0.96481 0.27305 0.0
H1158 H 0.72417 0.96056 0.29122 0.0
H1159 H 0.71559 0.94682 0.3222 0.0
H1160 H 0.72061 0.08111 0.82443 0.0
H1161 H 0.72955 0.07082 0.79285 0.0
H1162 H 0.72461 0.98985 0.80504 0.0
H1163 H 0.71629 0.99991 0.83668 0.0
H1164 H 0.7626 1.00094 0.78005 0.0
H1165 H 0.67118 0.04681 0.761 0.0
H1166 H 0.69294 0.06771 0.77251 0.0
H1167 H 0.67967 0.04045 0.78413 0.0
C1168 C 0.72188 0.0611 0.82047 0.0
C1169 C 0.71743 0.04134 0.83304 0.0
C1170 C 0.72684 0.05526 0.80238 0.0
C1171 C 0.72713 0.02958 0.79651 0.0
C1172 C 0.72431 1.00981 0.80925 0.0
H1173 H 0.71626 0.9454 0.69693 0.0
H1174 H 0.72506 0.9589 0.7279 0.0
C1175 C 0.71953 0.01561 0.82734 0.0
C1176 C 0.72843 0.02325 0.777 0.0
H1177 H 0.69606 0.03017 0.73741 0.0
C1178 C 0.74814 1.00743 0.77068 0.0
C1179 C 0.70942 0.03155 0.76483 0.0
C1180 C 0.68696 0.04737 0.77093 0.0
C1181 C 0.74938 0.9998 0.7525 0.0
C1182 C 0.73027 1.00799 0.74041 0.0
C1183 C 0.7108 0.02408 0.74668 0.0
C1184 C 0.72914 0.99927 0.72136 0.0
C1185 C 0.77115 0.98314 0.74636 0.0
C1186 C 0.72878 0.01742 0.70734 0.0
C1187 C 0.72364 1.00979 0.68964 0.0
C1188 C 0.71856 0.98384 0.68562 0.0
C1189 C 0.72019 0.96551 0.69954 0.0
C1190 C 0.72535 0.97318 0.71726 0.0
H1191 H 0.78756 0.98442 0.75574 0.0
H1192 H 0.76479 0.96279 0.74594 0.0
H1193 H 0.77754 0.98867 0.73262 0.0
H1194 H 0.73154 0.03766 0.71022 0.0
H1195 H 0.72255 0.02441 0.67926 0.0
H1196 H 0.28666 0.02431 0.83684 0.0
H1197 H 0.27828 0.03502 0.80536 0.0
H1198 H 0.27855 0.95439 0.79172 0.0
H1199 H 0.28744 0.94351 0.82319 0.0
H1200 H 0.31125 0.98207 0.77125 0.0
H1201 H 0.21791 0.03096 0.77172 0.0
H1202 H 0.23979 0.04431 0.78773 0.0
H1203 H 0.22896 1.01168 0.79041 0.0
C1204 C 0.28434 1.00879 0.82725 0.0
C1205 C 0.28783 0.98304 0.83254 0.0
C1206 C 0.27937 0.01496 0.80923 0.0
C1207 C 0.27751 0.99552 0.79616 0.0
C1208 C 0.27979 0.96972 0.80157 0.0
H1209 H 0.28379 1.00116 0.67855 0.0
H1210 H 0.27507 0.98766 0.70953 0.0
C1211 C 0.28484 0.96353 0.81958 0.0
C1212 C 0.27637 1.00221 0.77669 0.0
H1213 H 0.24367 0.03722 0.74533 0.0
C1214 C 0.29625 0.9938 0.76554 0.0
C1215 C 0.25694 0.01774 0.76927 0.0
C1216 C 0.23456 0.0265 0.78037 0.0
C1217 C 0.29766 1.00107 0.74735 0.0
C1218 C 0.27842 0.01687 0.73997 0.0
C1219 C 0.25835 0.02507 0.75102 0.0
C1220 C 0.27958 0.02567 0.72095 0.0
C1221 C 0.32025 0.99254 0.73632 0.0
C1222 C 0.28372 0.05174 0.71699 0.0
C1223 C 0.28858 0.05958 0.69924 0.0
C1224 C 0.28934 0.04144 0.68518 0.0
C1225 C 0.28353 0.0156 0.68907 0.0
C1226 C 0.27863 1.00782 0.70678 0.0
H1227 H 0.33594 0.98529 0.74494 0.0
H1228 H 0.31437 0.97675 0.72716 0.0
H1229 H 0.32759 1.0086 0.72792 0.0
H1230 H 0.28442 0.06583 0.72773 0.0
H1231 H 0.29292 0.07963 0.69671 0.0
H1232 H 0.78639 0.44462 0.19524 0.0
H1233 H 0.77723 0.45537 0.2267 0.0
H1234 H 0.77808 0.5361 0.21329 0.0
H1235 H 0.78674 0.52554 0.18183 0.0
H1236 H 0.81006 0.48254 0.24737 0.0
H1237 H 0.7173 0.53253 0.24664 0.0
H1238 H 0.72831 0.51322 0.22796 0.0
H1239 H 0.73945 0.54573 0.23072 0.0
C1240 C 0.78397 0.46464 0.19889 0.0
C1241 C 0.78738 0.48422 0.18601 0.0
C1242 C 0.77877 0.47075 0.21689 0.0
C1243 C 0.77673 0.49654 0.22236 0.0
C1244 C 0.77898 0.51606 0.20937 0.0
H1245 H 0.79252 0.58055 0.32163 0.0
H1246 H 0.78389 0.56674 0.29065 0.0
C1247 C 0.78412 0.50997 0.19136 0.0
C1248 C 0.77547 0.50312 0.24184 0.0
H1249 H 0.74299 0.53856 0.27308 0.0
C1250 C 0.79516 0.49445 0.25304 0.0
C1251 C 0.75617 0.51889 0.2492 0.0
C1252 C 0.73398 0.52794 0.23804 0.0
C1253 C 0.79655 0.50173 0.27123 0.0
C1254 C 0.77747 0.51779 0.27854 0.0
C1255 C 0.75756 0.52622 0.26744 0.0
C1256 C 0.77866 0.52664 0.29753 0.0
C1257 C 0.81899 0.49294 0.2823 0.0
C1258 C 0.77752 0.50885 0.31174 0.0
C1259 C 0.78251 0.51664 0.32943 0.0
C1260 C 0.78858 0.54243 0.33325 0.0
C1261 C 0.78798 0.56053 0.31915 0.0
C1262 C 0.78304 0.55269 0.30143 0.0
H1263 H 0.83464 0.4855 0.27372 0.0
H1264 H 0.82647 0.50893 0.29069 0.0
H1265 H 0.81288 0.47723 0.29147 0.0
H1266 H 0.77375 0.48872 0.30905 0.0
H1267 H 0.78263 0.50223 0.33999 0.0
H1268 H 0.2177 0.44102 0.32336 0.0
H1269 H 0.22671 0.45209 0.29193 0.0
H1270 H 0.22725 0.53263 0.30581 0.0
H1271 H 0.21873 0.52173 0.33727 0.0
H1272 H 0.19403 0.47997 0.27163 0.0
H1273 H 0.28766 0.52865 0.27209 0.0
H1274 H 0.27654 0.50926 0.29072 0.0
H1275 H 0.26578 0.54189 0.28815 0.0
C1276 C 0.22039 0.46105 0.31982 0.0
C1277 C 0.21741 0.48049 0.33283 0.0
C1278 C 0.22551 0.46735 0.30184 0.0
C1279 C 0.22787 0.49318 0.29651 0.0
C1280 C 0.22607 0.51255 0.30962 0.0
H1281 H 0.21367 0.57647 0.19636 0.0
H1282 H 0.22169 0.56325 0.22757 0.0
C1283 C 0.22103 0.50627 0.32763 0.0
C1284 C 0.22904 0.49996 0.27705 0.0
H1285 H 0.26211 0.5347 0.24563 0.0
C1286 C 0.20912 0.49163 0.2659 0.0
C1287 C 0.24859 0.51542 0.26962 0.0
C1288 C 0.27098 0.52413 0.28073 0.0
C1289 C 0.20783 0.49882 0.2477 0.0
C1290 C 0.22724 0.51446 0.24029 0.0
C1291 C 0.24731 0.52267 0.25135 0.0
C1292 C 0.22635 0.52294 0.2212 0.0
C1293 C 0.18523 0.49032 0.23667 0.0
C1294 C 0.22734 0.50481 0.20721 0.0
C1295 C 0.22271 0.51226 0.1894 0.0
C1296 C 0.21713 0.53804 0.18523 0.0
C1297 C 0.21784 0.55646 0.19912 0.0
C1298 C 0.22243 0.54895 0.21696 0.0
H1299 H 0.1694 0.48333 0.2453 0.0
H1300 H 0.17813 0.50633 0.22813 0.0
H1301 H 0.191 0.47436 0.22764 0.0
H1302 H 0.23074 0.4847 0.21017 0.0
H1303 H 0.2225 0.49761 0.17902 0.0
H1304 H 0.22088 0.58317 0.82355 0.0
H1305 H 0.23 0.57237 0.79207 0.0
H1306 H 0.22314 0.49166 0.8046 0.0
H1307 H 0.21462 0.5022 0.83612 0.0
H1308 H 0.26163 0.50174 0.77967 0.0
H1309 H 0.17122 0.54927 0.76015 0.0
H1310 H 0.19337 0.56977 0.77166 0.0
H1311 H 0.17943 0.5429 0.78333 0.0
C1312 C 0.2218 0.5631 0.81969 0.0
C1313 C 0.21671 0.54356 0.83232 0.0
C1314 C 0.22685 0.55697 0.80166 0.0
C1315 C 0.22663 0.53123 0.7959 0.0
C1316 C 0.22324 0.51166 0.80871 0.0
H1317 H 0.21482 0.44554 0.69703 0.0
H1318 H 0.22376 0.45952 0.72787 0.0
C1319 C 0.21834 0.51774 0.82675 0.0
C1320 C 0.22791 0.52468 0.77642 0.0
H1321 H 0.19573 0.5316 0.73675 0.0
C1322 C 0.24732 0.50838 0.77025 0.0
C1323 C 0.2091 0.53318 0.76416 0.0
C1324 C 0.18696 0.54955 0.77013 0.0
C1325 C 0.24845 0.50045 0.75212 0.0
C1326 C 0.2295 0.5088 0.73995 0.0
C1327 C 0.21035 0.52538 0.74608 0.0
C1328 C 0.2282 0.49974 0.72097 0.0
C1329 C 0.26993 0.48329 0.74614 0.0
C1330 C 0.22795 0.51764 0.70679 0.0
C1331 C 0.22271 0.50972 0.68916 0.0
C1332 C 0.21743 0.48375 0.68538 0.0
C1333 C 0.21892 0.46566 0.69946 0.0
C1334 C 0.22416 0.47362 0.71711 0.0
H1335 H 0.28641 0.48459 0.75545 0.0
H1336 H 0.26327 0.46303 0.74604 0.0
H1337 H 0.27632 0.48833 0.73231 0.0
H1338 H 0.2309 0.5379 0.70948 0.0
H1339 H 0.22172 0.52416 0.67865 0.0
H1340 H 0.78306 0.50152 0.67843 0.0
H1341 H 0.77371 0.48772 0.70924 0.0
H1342 H 0.78145 0.56597 0.72772 0.0
H1343 H 0.79054 0.58001 0.69689 0.0
H1344 H 0.80893 0.49357 0.73641 0.0
H1345 H 0.71875 0.54131 0.75543 0.0
H1346 H 0.72874 0.53764 0.73226 0.0
H1347 H 0.74202 0.56275 0.74601 0.0
C1348 C 0.78216 0.51592 0.68896 0.0
C1349 C 0.78767 0.54187 0.6852 0.0
C1350 C 0.77682 0.50798 0.70658 0.0
C1351 C 0.7767 0.52581 0.72078 0.0
C1352 C 0.78094 0.55193 0.71694 0.0
H1353 H 0.79136 0.52333 0.83571 0.0
H1354 H 0.78254 0.53382 0.80423 0.0
C1355 C 0.78627 0.55991 0.6993 0.0
C1356 C 0.77538 0.51669 0.73974 0.0
H1357 H 0.74357 0.52398 0.77959 0.0
C1358 C 0.79442 0.49991 0.74579 0.0
C1359 C 0.75658 0.52518 0.75198 0.0
C1360 C 0.73521 0.54254 0.74609 0.0
C1361 C 0.79571 0.49207 0.76388 0.0
C1362 C 0.77706 0.50075 0.77621 0.0
C1363 C 0.75775 0.51722 0.77011 0.0
C1364 C 0.77848 0.49425 0.79569 0.0
C1365 C 0.81774 0.47549 0.76976 0.0
C1366 C 0.77804 0.46854 0.80153 0.0
C1367 C 0.78326 0.46244 0.81954 0.0
C1368 C 0.78874 0.48198 0.83206 0.0
C1369 C 0.78734 0.50779 0.82642 0.0
C1370 C 0.78226 0.51385 0.80841 0.0
H1371 H 0.83337 0.47554 0.75968 0.0
H1372 H 0.82547 0.48214 0.78288 0.0
H1373 H 0.81113 0.45536 0.77141 0.0
H1374 H 0.77461 0.45314 0.79201 0.0
H1375 H 0.784 0.44238 0.82346 0.0
loop_
_geom_bond_atom_site_label_1
_geom_bond_atom_site_label_2
_geom_bond_distance
_geom_bond_site_symmetry_2
_ccdc_geom_bond_type
O0 Cd1 2.223 . S
O0 C8 1.315 . S
Cd1 O0 2.223 . S
Cd1 O4 2.297 . S
Cd1 O5 2.439 . S
Cd1 O11 2.240 . S
Cd2 O3 2.240 . S
Cd2 O10 2.223 . S
Cd2 O12 2.297 . S
Cd2 O13 2.439 . S
O3 Cd2 2.240 . S
O3 C8 1.279 . S
O4 Cd1 2.297 . S
O4 C6 1.247 . S
O5 Cd1 2.439 . S
O5 C6 1.208 . S
C6 O4 1.247 . S
C6 O5 1.208 . S
C7 O12 1.247 . S
C7 O13 1.208 . S
C8 O0 1.315 . S
C8 O3 1.279 . S
C9 O10 1.315 . S
C9 O11 1.279 . S
O10 Cd2 2.223 . S
O10 C9 1.315 . S
O11 Cd1 2.240 . S
O11 C9 1.279 . S
O12 Cd2 2.297 . S
O12 C7 1.247 . S
O13 Cd2 2.439 . S
O13 C7 1.208 . S
O14 Cd15 2.223 . S
O14 C22 1.315 . S
Cd15 O14 2.223 . S
Cd15 O18 2.297 . S
Cd15 O19 2.439 . S
Cd15 O25 2.240 . S
Cd16 O17 2.240 . S
Cd16 O24 2.223 . S
Cd16 O26 2.297 . S
Cd16 O27 2.439 . S
O17 Cd16 2.240 . S
O17 C22 1.279 . S
O18 Cd15 2.297 . S
O18 C20 1.247 . S
O19 Cd15 2.439 . S
O19 C20 1.208 . S
C20 O18 1.247 . S
C20 O19 1.208 . S
C21 O26 1.247 . S
C21 O27 1.208 . S
C22 O14 1.315 . S
C22 O17 1.279 . S
C23 O24 1.315 . S
C23 O25 1.279 . S
O24 Cd16 2.223 . S
O24 C23 1.315 . S
O25 Cd15 2.240 . S
O25 C23 1.279 . S
O26 Cd16 2.297 . S
O26 C21 1.247 . S
O27 Cd16 2.439 . S
O27 C21 1.208 . S
O28 Cd29 2.223 . S
O28 C36 1.315 . S
Cd29 O28 2.223 . S
Cd29 O32 2.297 . S
Cd29 O33 2.439 . S
Cd29 O39 2.240 . S
Cd30 O31 2.240 . S
Cd30 O38 2.223 . S
Cd30 O40 2.297 . S
Cd30 O41 2.439 . S
O31 Cd30 2.240 . S
O31 C36 1.279 . S
O32 Cd29 2.297 . S
O32 C34 1.247 . S
O33 Cd29 2.439 . S
O33 C34 1.208 . S
C34 O32 1.247 . S
C34 O33 1.208 . S
C35 O40 1.247 . S
C35 O41 1.208 . S
C36 O28 1.315 . S
C36 O31 1.279 . S
C37 O38 1.315 . S
C37 O39 1.279 . S
O38 Cd30 2.223 . S
O38 C37 1.315 . S
O39 Cd29 2.240 . S
O39 C37 1.279 . S
O40 Cd30 2.297 . S
O40 C35 1.247 . S
O41 Cd30 2.439 . S
O41 C35 1.208 . S
O42 Cd43 2.223 . S
O42 C50 1.315 . S
Cd43 O42 2.223 . S
Cd43 O46 2.297 . S
Cd43 O47 2.439 . S
Cd43 O53 2.240 . S
Cd44 O45 2.240 . S
Cd44 O52 2.223 . S
Cd44 O54 2.297 . S
Cd44 O55 2.439 . S
O45 Cd44 2.240 . S
O45 C50 1.279 . S
O46 Cd43 2.297 . S
O46 C48 1.247 . S
O47 Cd43 2.439 . S
O47 C48 1.208 . S
C48 O46 1.247 . S
C48 O47 1.208 . S
C49 O54 1.247 . S
C49 O55 1.208 . S
C50 O42 1.315 . S
C50 O45 1.279 . S
C51 O52 1.315 . S
C51 O53 1.279 . S
O52 Cd44 2.223 . S
O52 C51 1.315 . S
O53 Cd43 2.240 . S
O53 C51 1.279 . S
O54 Cd44 2.297 . S
O54 C49 1.247 . S
O55 Cd44 2.439 . S
O55 C49 1.208 . S
O56 Cd57 2.223 . S
O56 C64 1.315 . S
Cd57 O56 2.223 . S
Cd57 O60 2.297 . S
Cd57 O61 2.439 . S
Cd57 O67 2.240 . S
Cd58 O59 2.240 . S
Cd58 O66 2.223 . S
Cd58 O68 2.297 . S
Cd58 O69 2.439 . S
O59 Cd58 2.240 . S
O59 C64 1.279 . S
O60 Cd57 2.297 . S
O60 C62 1.247 . S
O61 Cd57 2.439 . S
O61 C62 1.208 . S
C62 O60 1.247 . S
C62 O61 1.208 . S
C63 O68 1.247 . S
C63 O69 1.208 . S
C64 O56 1.315 . S
C64 O59 1.279 . S
C65 O66 1.315 . S
C65 O67 1.279 . S
O66 Cd58 2.223 . S
O66 C65 1.315 . S
O67 Cd57 2.240 . S
O67 C65 1.279 . S
O68 Cd58 2.297 . S
O68 C63 1.247 . S
O69 Cd58 2.439 . S
O69 C63 1.208 . S
O70 Cd71 2.223 . S
O70 C78 1.315 . S
Cd71 O70 2.223 . S
Cd71 O74 2.297 . S
Cd71 O75 2.439 . S
Cd71 O81 2.240 . S
Cd72 O73 2.240 . S
Cd72 O80 2.223 . S
Cd72 O82 2.297 . S
Cd72 O83 2.439 . S
O73 Cd72 2.240 . S
O73 C78 1.279 . S
O74 Cd71 2.297 . S
O74 C76 1.247 . S
O75 Cd71 2.439 . S
O75 C76 1.208 . S
C76 O74 1.247 . S
C76 O75 1.208 . S
C77 O82 1.247 . S
C77 O83 1.208 . S
C78 O70 1.315 . S
C78 O73 1.279 . S
C79 O80 1.315 . S
C79 O81 1.279 . S
O80 Cd72 2.223 . S
O80 C79 1.315 . S
O81 Cd71 2.240 . S
O81 C79 1.279 . S
O82 Cd72 2.297 . S
O82 C77 1.247 . S
O83 Cd72 2.439 . S
O83 C77 1.208 . S
O84 Cd85 2.223 . S
O84 C92 1.315 . S
Cd85 O84 2.223 . S
Cd85 O88 2.297 . S
Cd85 O89 2.439 . S
Cd85 O95 2.240 . S
Cd86 O87 2.240 . S
Cd86 O94 2.223 . S
Cd86 O96 2.297 . S
Cd86 O97 2.439 . S
O87 Cd86 2.240 . S
O87 C92 1.279 . S
O88 Cd85 2.297 . S
O88 C90 1.247 . S
O89 Cd85 2.439 . S
O89 C90 1.208 . S
C90 O88 1.247 . S
C90 O89 1.208 . S
C91 O96 1.247 . S
C91 O97 1.208 . S
C92 O84 1.315 . S
C92 O87 1.279 . S
C93 O94 1.315 . S
C93 O95 1.279 . S
O94 Cd86 2.223 . S
O94 C93 1.315 . S
O95 Cd85 2.240 . S
O95 C93 1.279 . S
O96 Cd86 2.297 . S
O96 C91 1.247 . S
O97 Cd86 2.439 . S
O97 C91 1.208 . S
O98 Cd99 2.223 . S
O98 C106 1.315 . S
Cd99 O98 2.223 . S
Cd99 O102 2.297 . S
Cd99 O103 2.439 . S
Cd99 O109 2.240 . S
Cd100 O101 2.240 . S
Cd100 O108 2.223 . S
Cd100 O110 2.297 . S
Cd100 O111 2.439 . S
O101 Cd100 2.240 . S
O101 C106 1.279 . S
O102 Cd99 2.297 . S
O102 C104 1.247 . S
O103 Cd99 2.439 . S
O103 C104 1.208 . S
C104 O102 1.247 . S
C104 O103 1.208 . S
C105 O110 1.247 . S
C105 O111 1.208 . S
C106 O98 1.315 . S
C106 O101 1.279 . S
C107 O108 1.315 . S
C107 O109 1.279 . S
O108 Cd100 2.223 . S
O108 C107 1.315 . S
O109 Cd99 2.240 . S
O109 C107 1.279 . S
O110 Cd100 2.297 . S
O110 C105 1.247 . S
O111 Cd100 2.439 . S
O111 C105 1.208 . S
O112 Cd113 2.223 . S
O112 C120 1.315 . S
Cd113 O112 2.223 . S
Cd113 O116 2.297 . S
Cd113 O117 2.439 . S
Cd113 O123 2.240 . S
Cd114 O115 2.240 . S
Cd114 O122 2.223 . S
Cd114 O124 2.297 . S
Cd114 O125 2.439 . S
O115 Cd114 2.240 . S
O115 C120 1.279 . S
O116 Cd113 2.297 . S
O116 C118 1.247 . S
O117 Cd113 2.439 . S
O117 C118 1.208 . S
C118 O116 1.247 . S
C118 O117 1.208 . S
C119 O124 1.247 . S
C119 O125 1.208 . S
C120 O112 1.315 . S
C120 O115 1.279 . S
C121 O122 1.315 . S
C121 O123 1.279 . S
O122 Cd114 2.223 . S
O122 C121 1.315 . S
O123 Cd113 2.240 . S
O123 C121 1.279 . S
O124 Cd114 2.297 . S
O124 C119 1.247 . S
O125 Cd114 2.439 . S
O125 C119 1.208 . S
O126 Cd127 2.223 . S
O126 C134 1.315 . S
Cd127 O126 2.223 . S
Cd127 O130 2.297 . S
Cd127 O131 2.439 . S
Cd127 O137 2.240 . S
Cd128 O129 2.240 . S
Cd128 O136 2.223 . S
Cd128 O138 2.297 . S
Cd128 O139 2.439 . S
O129 Cd128 2.240 . S
O129 C134 1.279 . S
O130 Cd127 2.297 . S
O130 C132 1.247 . S
O131 Cd127 2.439 . S
O131 C132 1.208 . S
C132 O130 1.247 . S
C132 O131 1.208 . S
C133 O138 1.247 . S
C133 O139 1.208 . S
C134 O126 1.315 . S
C134 O129 1.279 . S
C135 O136 1.315 . S
C135 O137 1.279 . S
O136 Cd128 2.223 . S
O136 C135 1.315 . S
O137 Cd127 2.240 . S
O137 C135 1.279 . S
O138 Cd128 2.297 . S
O138 C133 1.247 . S
O139 Cd128 2.439 . S
O139 C133 1.208 . S
O140 Cd141 2.223 . S
O140 C148 1.315 . S
Cd141 O140 2.223 . S
Cd141 O144 2.297 . S
Cd141 O145 2.439 . S
Cd141 O151 2.240 . S
Cd142 O143 2.240 . S
Cd142 O150 2.223 . S
Cd142 O152 2.297 . S
Cd142 O153 2.439 . S
O143 Cd142 2.240 . S
O143 C148 1.279 . S
O144 Cd141 2.297 . S
O144 C146 1.247 . S
O145 Cd141 2.439 . S
O145 C146 1.208 . S
C146 O144 1.247 . S
C146 O145 1.208 . S
C147 O152 1.247 . S
C147 O153 1.208 . S
C148 O140 1.315 . S
C148 O143 1.279 . S
C149 O150 1.315 . S
C149 O151 1.279 . S
O150 Cd142 2.223 . S
O150 C149 1.315 . S
O151 Cd141 2.240 . S
O151 C149 1.279 . S
O152 Cd142 2.297 . S
O152 C147 1.247 . S
O153 Cd142 2.439 . S
O153 C147 1.208 . S
O154 Cd155 2.223 . S
O154 C162 1.315 . S
Cd155 O154 2.223 . S
Cd155 O158 2.297 . S
Cd155 O159 2.439 . S
Cd155 O165 2.240 . S
Cd156 O157 2.240 . S
Cd156 O164 2.223 . S
Cd156 O166 2.297 . S
Cd156 O167 2.439 . S
O157 Cd156 2.240 . S
O157 C162 1.279 . S
O158 Cd155 2.297 . S
O158 C160 1.247 . S
O159 Cd155 2.439 . S
O159 C160 1.208 . S
C160 O158 1.247 . S
C160 O159 1.208 . S
C161 O166 1.247 . S
C161 O167 1.208 . S
C162 O154 1.315 . S
C162 O157 1.279 . S
C163 O164 1.315 . S
C163 O165 1.279 . S
O164 Cd156 2.223 . S
O164 C163 1.315 . S
O165 Cd155 2.240 . S
O165 C163 1.279 . S
O166 Cd156 2.297 . S
O166 C161 1.247 . S
O167 Cd156 2.439 . S
O167 C161 1.208 . S
O168 Cd169 2.223 . S
O168 C176 1.315 . S
Cd169 O168 2.223 . S
Cd169 O172 2.297 . S
Cd169 O173 2.439 . S
Cd169 O179 2.240 . S
Cd170 O171 2.240 . S
Cd170 O178 2.223 . S
Cd170 O180 2.297 . S
Cd170 O181 2.439 . S
O171 Cd170 2.240 . S
O171 C176 1.279 . S
O172 Cd169 2.297 . S
O172 C174 1.247 . S
O173 Cd169 2.439 . S
O173 C174 1.208 . S
C174 O172 1.247 . S
C174 O173 1.208 . S
C175 O180 1.247 . S
C175 O181 1.208 . S
C176 O168 1.315 . S
C176 O171 1.279 . S
C177 O178 1.315 . S
C177 O179 1.279 . S
O178 Cd170 2.223 . S
O178 C177 1.315 . S
O179 Cd169 2.240 . S
O179 C177 1.279 . S
O180 Cd170 2.297 . S
O180 C175 1.247 . S
O181 Cd170 2.439 . S
O181 C175 1.208 . S
O182 Cd183 2.223 . S
O182 C190 1.315 . S
Cd183 O182 2.223 . S
Cd183 O186 2.297 . S
Cd183 O187 2.439 . S
Cd183 O193 2.240 . S
Cd184 O185 2.240 . S
Cd184 O192 2.223 . S
Cd184 O194 2.297 . S
Cd184 O195 2.439 . S
O185 Cd184 2.240 . S
O185 C190 1.279 . S
O186 Cd183 2.297 . S
O186 C188 1.247 . S
O187 Cd183 2.439 . S
O187 C188 1.208 . S
C188 O186 1.247 . S
C188 O187 1.208 . S
C189 O194 1.247 . S
C189 O195 1.208 . S
C190 O182 1.315 . S
C190 O185 1.279 . S
C191 O192 1.315 . S
C191 O193 1.279 . S
O192 Cd184 2.223 . S
O192 C191 1.315 . S
O193 Cd183 2.240 . S
O193 C191 1.279 . S
O194 Cd184 2.297 . S
O194 C189 1.247 . S
O195 Cd184 2.439 . S
O195 C189 1.208 . S
O196 Cd197 2.223 . S
O196 C204 1.315 . S
Cd197 O196 2.223 . S
Cd197 O200 2.297 . S
Cd197 O201 2.439 . S
Cd197 O207 2.240 . S
Cd198 O199 2.240 . S
Cd198 O206 2.223 . S
Cd198 O208 2.297 . S
Cd198 O209 2.439 . S
O199 Cd198 2.240 . S
O199 C204 1.279 . S
O200 Cd197 2.297 . S
O200 C202 1.247 . S
O201 Cd197 2.439 . S
O201 C202 1.208 . S
C202 O200 1.247 . S
C202 O201 1.208 . S
C203 O208 1.247 . S
C203 O209 1.208 . S
C204 O196 1.315 . S
C204 O199 1.279 . S
C205 O206 1.315 . S
C205 O207 1.279 . S
O206 Cd198 2.223 . S
O206 C205 1.315 . S
O207 Cd197 2.240 . S
O207 C205 1.279 . S
O208 Cd198 2.297 . S
O208 C203 1.247 . S
O209 Cd198 2.439 . S
O209 C203 1.208 . S
O210 Cd211 2.223 . S
O210 C218 1.315 . S
Cd211 O210 2.223 . S
Cd211 O214 2.297 . S
Cd211 O215 2.439 . S
Cd211 O221 2.240 . S
Cd212 O213 2.240 . S
Cd212 O220 2.223 . S
Cd212 O222 2.297 . S
Cd212 O223 2.439 . S
O213 Cd212 2.240 . S
O213 C218 1.279 . S
O214 Cd211 2.297 . S
O214 C216 1.247 . S
O215 Cd211 2.439 . S
O215 C216 1.208 . S
C216 O214 1.247 . S
C216 O215 1.208 . S
C217 O222 1.247 . S
C217 O223 1.208 . S
C218 O210 1.315 . S
C218 O213 1.279 . S
C219 O220 1.315 . S
C219 O221 1.279 . S
O220 Cd212 2.223 . S
O220 C219 1.315 . S
O221 Cd211 2.240 . S
O221 C219 1.279 . S
O222 Cd212 2.297 . S
O222 C217 1.247 . S
O223 Cd212 2.439 . S
O223 C217 1.208 . S
H224 C232 0.929 . S
H225 C234 0.930 . S
H226 C236 0.930 . S
H227 C239 0.929 . S
H228 C242 0.930 . S
H229 C244 0.960 . S
H230 C244 0.960 . S
H231 C244 0.960 . S
C232 H224 0.929 . S
C232 C233 1.377 . S
C232 C234 1.384 . S
C233 C232 1.377 . S
C233 C239 1.390 . S
C234 H225 0.930 . S
C234 C232 1.384 . S
C234 C235 1.372 . S
C235 C234 1.372 . S
C235 C236 1.400 . S
C235 C240 1.490 . S
C236 H226 0.930 . S
C236 C235 1.400 . S
C236 C239 1.386 . S
H237 C253 0.930 . S
H238 C254 0.931 . S
C239 H227 0.929 . S
C239 C233 1.390 . S
C239 C236 1.386 . S
C240 C235 1.490 . S
C240 C242 1.395 . S
C240 C243 1.403 . S
H241 C247 0.930 . S
C242 H228 0.930 . S
C242 C240 1.395 . S
C242 C245 1.403 . S
C243 C240 1.403 . S
C243 C244 1.524 . S
C243 C247 1.400 . S
C244 H229 0.960 . S
C244 H230 0.960 . S
C244 H231 0.960 . S
C244 C243 1.524 . S
C245 C242 1.403 . S
C245 C246 1.392 . S
C245 C249 1.495 . S
C246 C245 1.392 . S
C246 C247 1.385 . S
C246 C248 1.478 . S
C247 H241 0.930 . S
C247 C243 1.400 . S
C247 C246 1.385 . S
C248 C246 1.478 . S
C248 C250 1.381 . S
C248 C254 1.383 . S
C249 C245 1.495 . S
C249 H255 0.959 . S
C249 H256 0.961 . S
C249 H257 0.960 . S
C250 C248 1.381 . S
C250 C251 1.394 . S
C250 H258 0.930 . S
C251 C250 1.394 . S
C251 C252 1.383 . S
C251 H259 0.929 . S
C252 C251 1.383 . S
C252 C253 1.377 . S
C253 H237 0.930 . S
C253 C252 1.377 . S
C253 C254 1.379 . S
C254 H238 0.931 . S
C254 C248 1.383 . S
C254 C253 1.379 . S
H255 C249 0.959 . S
H256 C249 0.961 . S
H257 C249 0.960 . S
H258 C250 0.930 . S
H259 C251 0.929 . S
H260 C268 0.929 . S
H261 C270 0.930 . S
H262 C272 0.930 . S
H263 C275 0.929 . S
H264 C278 0.930 . S
H265 C280 0.960 . S
H266 C280 0.960 . S
H267 C280 0.960 . S
C268 H260 0.929 . S
C268 C269 1.377 . S
C268 C270 1.384 . S
C269 C268 1.377 . S
C269 C275 1.390 . S
C270 H261 0.930 . S
C270 C268 1.384 . S
C270 C271 1.372 . S
C271 C270 1.372 . S
C271 C272 1.400 . S
C271 C276 1.490 . S
C272 H262 0.930 . S
C272 C271 1.400 . S
C272 C275 1.386 . S
H273 C289 0.930 . S
H274 C290 0.931 . S
C275 H263 0.929 . S
C275 C269 1.390 . S
C275 C272 1.386 . S
C276 C271 1.490 . S
C276 C278 1.395 . S
C276 C279 1.403 . S
H277 C283 0.930 . S
C278 H264 0.930 . S
C278 C276 1.395 . S
C278 C281 1.403 . S
C279 C276 1.403 . S
C279 C280 1.524 . S
C279 C283 1.400 . S
C280 H265 0.960 . S
C280 H266 0.960 . S
C280 H267 0.960 . S
C280 C279 1.524 . S
C281 C278 1.403 . S
C281 C282 1.392 . S
C281 C285 1.495 . S
C282 C281 1.392 . S
C282 C283 1.385 . S
C282 C284 1.478 . S
C283 H277 0.930 . S
C283 C279 1.400 . S
C283 C282 1.385 . S
C284 C282 1.478 . S
C284 C286 1.381 . S
C284 C290 1.383 . S
C285 C281 1.495 . S
C285 H291 0.959 1_565 S
C285 H292 0.961 . S
C285 H293 0.960 . S
C286 C284 1.381 . S
C286 C287 1.394 . S
C286 H294 0.930 . S
C287 C286 1.394 . S
C287 C288 1.383 . S
C287 H295 0.929 . S
C288 C287 1.383 . S
C288 C289 1.377 . S
C289 H273 0.930 . S
C289 C288 1.377 . S
C289 C290 1.379 . S
C290 H274 0.931 . S
C290 C284 1.383 . S
C290 C289 1.379 . S
H291 C285 0.959 1_545 S
H292 C285 0.961 . S
H293 C285 0.960 . S
H294 C286 0.930 . S
H295 C287 0.929 . S
H296 C304 0.929 . S
H297 C306 0.930 . S
H298 C308 0.930 . S
H299 C311 0.929 . S
H300 C314 0.930 . S
H301 C316 0.960 . S
H302 C316 0.960 . S
H303 C316 0.960 . S
C304 H296 0.929 . S
C304 C305 1.377 . S
C304 C306 1.384 . S
C305 C304 1.377 . S
C305 C311 1.390 . S
C306 H297 0.930 . S
C306 C304 1.384 . S
C306 C307 1.372 . S
C307 C306 1.372 . S
C307 C308 1.400 . S
C307 C312 1.490 . S
C308 H298 0.930 . S
C308 C307 1.400 . S
C308 C311 1.386 . S
H309 C325 0.930 . S
H310 C326 0.931 . S
C311 H299 0.929 . S
C311 C305 1.390 . S
C311 C308 1.386 . S
C312 C307 1.490 . S
C312 C314 1.395 . S
C312 C315 1.403 . S
H313 C319 0.930 . S
C314 H300 0.930 . S
C314 C312 1.395 . S
C314 C317 1.403 1_554 S
C315 C312 1.403 . S
C315 C316 1.524 . S
C315 C319 1.400 1_554 S
C316 H301 0.960 . S
C316 H302 0.960 . S
C316 H303 0.960 . S
C316 C315 1.524 . S
C317 C314 1.403 1_556 S
C317 C318 1.392 . S
C317 C321 1.495 . S
C318 C317 1.392 . S
C318 C319 1.385 . S
C318 C320 1.478 . S
C319 H313 0.930 . S
C319 C315 1.400 1_556 S
C319 C318 1.385 . S
C320 C318 1.478 . S
C320 C322 1.381 . S
C320 C326 1.383 . S
C321 C317 1.495 . S
C321 H327 0.959 . S
C321 H328 0.961 . S
C321 H329 0.960 . S
C322 C320 1.381 . S
C322 C323 1.394 . S
C322 H330 0.930 . S
C323 C322 1.394 . S
C323 C324 1.383 . S
C323 H331 0.929 . S
C324 C323 1.383 . S
C324 C325 1.377 . S
C325 H309 0.930 . S
C325 C324 1.377 . S
C325 C326 1.379 . S
C326 H310 0.931 . S
C326 C320 1.383 . S
C326 C325 1.379 . S
H327 C321 0.959 . S
H328 C321 0.961 . S
H329 C321 0.960 . S
H330 C322 0.930 . S
H331 C323 0.929 . S
H332 C340 0.929 . S
H333 C342 0.930 . S
H334 C344 0.930 . S
H335 C347 0.929 . S
H336 C350 0.930 . S
H337 C352 0.960 . S
H338 C352 0.960 . S
H339 C352 0.960 . S
C340 H332 0.929 . S
C340 C341 1.377 . S
C340 C342 1.384 . S
C341 C340 1.377 . S
C341 C347 1.390 . S
C342 H333 0.930 . S
C342 C340 1.384 . S
C342 C343 1.372 . S
C343 C342 1.372 . S
C343 C344 1.400 . S
C343 C348 1.490 . S
C344 H334 0.930 . S
C344 C343 1.400 . S
C344 C347 1.386 . S
H345 C361 0.930 . S
H346 C362 0.931 . S
C347 H335 0.929 . S
C347 C341 1.390 . S
C347 C344 1.386 . S
C348 C343 1.490 . S
C348 C350 1.395 . S
C348 C351 1.403 . S
H349 C355 0.930 . S
C350 H336 0.930 . S
C350 C348 1.395 . S
C350 C353 1.403 1_556 S
C351 C348 1.403 . S
C351 C352 1.524 . S
C351 C355 1.400 1_556 S
C352 H337 0.960 . S
C352 H338 0.960 . S
C352 H339 0.960 . S
C352 C351 1.524 . S
C353 C350 1.403 1_554 S
C353 C354 1.392 . S
C353 C357 1.495 . S
C354 C353 1.392 . S
C354 C355 1.385 . S
C354 C356 1.478 . S
C355 H349 0.930 . S
C355 C351 1.400 1_554 S
C355 C354 1.385 . S
C356 C354 1.478 . S
C356 C358 1.381 . S
C356 C362 1.383 . S
C357 C353 1.495 . S
C357 H363 0.959 . S
C357 H364 0.961 . S
C357 H365 0.960 . S
C358 C356 1.381 . S
C358 C359 1.394 . S
C358 H366 0.930 . S
C359 C358 1.394 . S
C359 C360 1.383 . S
C359 H367 0.929 . S
C360 C359 1.383 . S
C360 C361 1.377 . S
C361 H345 0.930 . S
C361 C360 1.377 . S
C361 C362 1.379 . S
C362 H346 0.931 . S
C362 C356 1.383 . S
C362 C361 1.379 . S
H363 C357 0.959 . S
H364 C357 0.961 . S
H365 C357 0.960 . S
H366 C358 0.930 . S
H367 C359 0.929 . S
H368 C376 0.929 . S
H369 C378 0.930 . S
H370 C380 0.930 . S
H371 C383 0.929 . S
H372 C386 0.930 . S
H373 C388 0.960 . S
H374 C388 0.960 . S
H375 C388 0.960 . S
C376 H368 0.929 . S
C376 C377 1.377 . S
C376 C378 1.384 . S
C377 C376 1.377 . S
C377 C383 1.390 . S
C378 H369 0.930 . S
C378 C376 1.384 . S
C378 C379 1.372 . S
C379 C378 1.372 . S
C379 C380 1.400 . S
C379 C384 1.490 . S
C380 H370 0.930 . S
C380 C379 1.400 . S
C380 C383 1.386 . S
H381 C397 0.930 . S
H382 C398 0.931 . S
C383 H371 0.929 . S
C383 C377 1.390 . S
C383 C380 1.386 . S
C384 C379 1.490 . S
C384 C386 1.395 . S
C384 C387 1.403 . S
H385 C391 0.930 . S
C386 H372 0.930 . S
C386 C384 1.395 . S
C386 C389 1.403 . S
C387 C384 1.403 . S
C387 C388 1.524 . S
C387 C391 1.400 . S
C388 H373 0.960 . S
C388 H374 0.960 . S
C388 H375 0.960 . S
C388 C387 1.524 . S
C389 C386 1.403 . S
C389 C390 1.392 . S
C389 C393 1.495 . S
C390 C389 1.392 . S
C390 C391 1.385 . S
C390 C392 1.478 . S
C391 H385 0.930 . S
C391 C387 1.400 . S
C391 C390 1.385 . S
C392 C390 1.478 . S
C392 C394 1.381 . S
C392 C398 1.383 . S
C393 C389 1.495 . S
C393 H399 0.959 . S
C393 H400 0.961 . S
C393 H401 0.960 . S
C394 C392 1.381 . S
C394 C395 1.394 . S
C394 H402 0.930 . S
C395 C394 1.394 . S
C395 C396 1.383 . S
C395 H403 0.929 . S
C396 C395 1.383 . S
C396 C397 1.377 . S
C397 H381 0.930 . S
C397 C396 1.377 . S
C397 C398 1.379 . S
C398 H382 0.931 . S
C398 C392 1.383 . S
C398 C397 1.379 . S
H399 C393 0.959 . S
H400 C393 0.961 . S
H401 C393 0.960 . S
H402 C394 0.930 . S
H403 C395 0.929 . S
H404 C412 0.929 . S
H405 C414 0.930 . S
H406 C416 0.930 . S
H407 C419 0.929 . S
H408 C422 0.930 . S
H409 C424 0.960 . S
H410 C424 0.960 . S
H411 C424 0.960 . S
C412 H404 0.929 . S
C412 C413 1.377 . S
C412 C414 1.384 . S
C413 C412 1.377 . S
C413 C419 1.390 . S
C414 H405 0.930 . S
C414 C412 1.384 . S
C414 C415 1.372 . S
C415 C414 1.372 . S
C415 C416 1.400 . S
C415 C420 1.490 . S
C416 H406 0.930 . S
C416 C415 1.400 . S
C416 C419 1.386 . S
H417 C433 0.930 . S
H418 C434 0.931 . S
C419 H407 0.929 . S
C419 C413 1.390 . S
C419 C416 1.386 . S
C420 C415 1.490 . S
C420 C422 1.395 . S
C420 C423 1.403 . S
H421 C427 0.930 . S
C422 H408 0.930 . S
C422 C420 1.395 . S
C422 C425 1.403 . S
C423 C420 1.403 . S
C423 C424 1.524 . S
C423 C427 1.400 . S
C424 H409 0.960 . S
C424 H410 0.960 . S
C424 H411 0.960 . S
C424 C423 1.524 . S
C425 C422 1.403 . S
C425 C426 1.392 . S
C425 C429 1.495 . S
C426 C425 1.392 . S
C426 C427 1.385 . S
C426 C428 1.478 . S
C427 H421 0.930 . S
C427 C423 1.400 . S
C427 C426 1.385 . S
C428 C426 1.478 . S
C428 C430 1.381 . S
C428 C434 1.383 . S
C429 C425 1.495 . S
C429 H435 0.959 . S
C429 H436 0.961 . S
C429 H437 0.960 . S
C430 C428 1.381 . S
C430 C431 1.394 . S
C430 H438 0.930 . S
C431 C430 1.394 . S
C431 C432 1.383 . S
C431 H439 0.929 . S
C432 C431 1.383 . S
C432 C433 1.377 . S
C433 H417 0.930 . S
C433 C432 1.377 . S
C433 C434 1.379 . S
C434 H418 0.931 . S
C434 C428 1.383 . S
C434 C433 1.379 . S
H435 C429 0.959 . S
H436 C429 0.961 . S
H437 C429 0.960 . S
H438 C430 0.930 . S
H439 C431 0.929 . S
H440 C448 0.929 . S
H441 C450 0.930 . S
H442 C452 0.930 . S
H443 C455 0.929 . S
H444 C458 0.930 . S
H445 C460 0.960 . S
H446 C460 0.960 . S
H447 C460 0.960 . S
C448 H440 0.929 . S
C448 C449 1.377 . S
C448 C450 1.384 . S
C449 C448 1.377 . S
C449 C455 1.390 . S
C450 H441 0.930 . S
C450 C448 1.384 . S
C450 C451 1.372 . S
C451 C450 1.372 . S
C451 C452 1.400 . S
C451 C456 1.490 . S
C452 H442 0.930 . S
C452 C451 1.400 . S
C452 C455 1.386 . S
H453 C469 0.930 . S
H454 C470 0.931 . S
C455 H443 0.929 . S
C455 C449 1.390 . S
C455 C452 1.386 . S
C456 C451 1.490 . S
C456 C458 1.395 . S
C456 C459 1.403 . S
H457 C463 0.930 . S
C458 H444 0.930 . S
C458 C456 1.395 . S
C458 C461 1.403 1_556 S
C459 C456 1.403 . S
C459 C460 1.524 . S
C459 C463 1.400 1_556 S
C460 H445 0.960 . S
C460 H446 0.960 . S
C460 H447 0.960 . S
C460 C459 1.524 . S
C461 C458 1.403 1_554 S
C461 C462 1.392 . S
C461 C465 1.495 . S
C462 C461 1.392 . S
C462 C463 1.385 . S
C462 C464 1.478 . S
C463 H457 0.930 . S
C463 C459 1.400 1_554 S
C463 C462 1.385 . S
C464 C462 1.478 . S
C464 C466 1.381 . S
C464 C470 1.383 . S
C465 C461 1.495 . S
C465 H471 0.959 . S
C465 H472 0.961 . S
C465 H473 0.960 . S
C466 C464 1.381 . S
C466 C467 1.394 . S
C466 H474 0.930 . S
C467 C466 1.394 . S
C467 C468 1.383 . S
C467 H475 0.929 . S
C468 C467 1.383 . S
C468 C469 1.377 . S
C469 H453 0.930 . S
C469 C468 1.377 . S
C469 C470 1.379 . S
C470 H454 0.931 . S
C470 C464 1.383 . S
C470 C469 1.379 . S
H471 C465 0.959 . S
H472 C465 0.961 . S
H473 C465 0.960 . S
H474 C466 0.930 . S
H475 C467 0.929 . S
H476 C484 0.929 . S
H477 C486 0.930 . S
H478 C488 0.930 . S
H479 C491 0.929 . S
H480 C494 0.930 . S
H481 C496 0.960 . S
H482 C496 0.960 . S
H483 C496 0.960 . S
C484 H476 0.929 . S
C484 C485 1.377 . S
C484 C486 1.384 . S
C485 C484 1.377 . S
C485 C491 1.390 . S
C486 H477 0.930 . S
C486 C484 1.384 . S
C486 C487 1.372 . S
C487 C486 1.372 . S
C487 C488 1.400 . S
C487 C492 1.490 . S
C488 H478 0.930 . S
C488 C487 1.400 . S
C488 C491 1.386 . S
H489 C505 0.930 . S
H490 C506 0.931 . S
C491 H479 0.929 . S
C491 C485 1.390 . S
C491 C488 1.386 . S
C492 C487 1.490 . S
C492 C494 1.395 . S
C492 C495 1.403 . S
H493 C499 0.930 . S
C494 H480 0.930 . S
C494 C492 1.395 . S
C494 C497 1.403 1_554 S
C495 C492 1.403 . S
C495 C496 1.524 . S
C495 C499 1.400 1_554 S
C496 H481 0.960 . S
C496 H482 0.960 . S
C496 H483 0.960 . S
C496 C495 1.524 . S
C497 C494 1.403 1_556 S
C497 C498 1.392 . S
C497 C501 1.495 . S
C498 C497 1.392 . S
C498 C499 1.385 . S
C498 C500 1.478 . S
C499 H493 0.930 . S
C499 C495 1.400 1_556 S
C499 C498 1.385 . S
C500 C498 1.478 . S
C500 C502 1.381 . S
C500 C506 1.383 . S
C501 C497 1.495 . S
C501 H507 0.959 . S
C501 H508 0.961 . S
C501 H509 0.960 . S
C502 C500 1.381 . S
C502 C503 1.394 . S
C502 H510 0.930 . S
C503 C502 1.394 . S
C503 C504 1.383 . S
C503 H511 0.929 . S
C504 C503 1.383 . S
C504 C505 1.377 . S
C505 H489 0.930 . S
C505 C504 1.377 . S
C505 C506 1.379 . S
C506 H490 0.931 . S
C506 C500 1.383 . S
C506 C505 1.379 . S
H507 C501 0.959 . S
H508 C501 0.961 . S
H509 C501 0.960 . S
H510 C502 0.930 . S
H511 C503 0.929 . S
H512 C520 0.929 . S
H513 C522 0.930 . S
H514 C524 0.930 . S
H515 C527 0.929 . S
H516 C530 0.930 . S
H517 C532 0.960 . S
H518 C532 0.960 . S
H519 C532 0.960 . S
C520 H512 0.929 . S
C520 C521 1.377 . S
C520 C522 1.384 . S
C521 C520 1.377 . S
C521 C527 1.390 . S
C522 H513 0.930 . S
C522 C520 1.384 . S
C522 C523 1.372 . S
C523 C522 1.372 . S
C523 C524 1.400 . S
C523 C528 1.490 . S
C524 H514 0.930 . S
C524 C523 1.400 . S
C524 C527 1.386 . S
H525 C541 0.930 . S
H526 C542 0.931 . S
C527 H515 0.929 . S
C527 C521 1.390 . S
C527 C524 1.386 . S
C528 C523 1.490 . S
C528 C530 1.395 . S
C528 C531 1.403 1_565 S
H529 C535 0.930 . S
C530 H516 0.930 . S
C530 C528 1.395 . S
C530 C533 1.403 . S
C531 C528 1.403 1_545 S
C531 C532 1.524 . S
C531 C535 1.400 . S
C532 H517 0.960 . S
C532 H518 0.960 . S
C532 H519 0.960 . S
C532 C531 1.524 . S
C533 C530 1.403 . S
C533 C534 1.392 1_565 S
C533 C537 1.495 . S
C534 C533 1.392 1_545 S
C534 C535 1.385 . S
C534 C536 1.478 . S
C535 H529 0.930 . S
C535 C531 1.400 . S
C535 C534 1.385 . S
C536 C534 1.478 . S
C536 C538 1.381 . S
C536 C542 1.383 . S
C537 C533 1.495 . S
C537 H543 0.959 . S
C537 H544 0.961 . S
C537 H545 0.960 . S
C538 C536 1.381 . S
C538 C539 1.394 . S
C538 H546 0.930 . S
C539 C538 1.394 . S
C539 C540 1.383 . S
C539 H547 0.929 . S
C540 C539 1.383 . S
C540 C541 1.377 . S
C541 H525 0.930 . S
C541 C540 1.377 . S
C541 C542 1.379 . S
C542 H526 0.931 . S
C542 C536 1.383 . S
C542 C541 1.379 . S
H543 C537 0.959 . S
H544 C537 0.961 . S
H545 C537 0.960 . S
H546 C538 0.930 . S
H547 C539 0.929 . S
H548 C556 0.929 . S
H549 C558 0.930 . S
H550 C560 0.930 . S
H551 C563 0.929 . S
H552 C566 0.930 . S
H553 C568 0.960 . S
H554 C568 0.960 . S
H555 C568 0.960 . S
C556 H548 0.929 . S
C556 C557 1.377 . S
C556 C558 1.384 . S
C557 C556 1.377 . S
C557 C563 1.390 . S
C558 H549 0.930 . S
C558 C556 1.384 . S
C558 C559 1.372 . S
C559 C558 1.372 . S
C559 C560 1.400 . S
C559 C564 1.490 . S
C560 H550 0.930 . S
C560 C559 1.400 . S
C560 C563 1.386 . S
H561 C577 0.930 . S
H562 C578 0.931 . S
C563 H551 0.929 . S
C563 C557 1.390 . S
C563 C560 1.386 . S
C564 C559 1.490 . S
C564 C566 1.395 1_565 S
C564 C567 1.403 . S
H565 C571 0.930 . S
C566 H552 0.930 . S
C566 C564 1.395 1_545 S
C566 C569 1.403 . S
C567 C564 1.403 . S
C567 C568 1.524 . S
C567 C571 1.400 . S
C568 H553 0.960 . S
C568 H554 0.960 . S
C568 H555 0.960 . S
C568 C567 1.524 . S
C569 C566 1.403 . S
C569 C570 1.392 . S
C569 C573 1.495 . S
C570 C569 1.392 . S
C570 C571 1.385 1_545 S
C570 C572 1.478 . S
C571 H565 0.930 . S
C571 C567 1.400 . S
C571 C570 1.385 1_565 S
C572 C570 1.478 . S
C572 C574 1.381 . S
C572 C578 1.383 . S
C573 C569 1.495 . S
C573 H579 0.959 . S
C573 H580 0.961 . S
C573 H581 0.960 . S
C574 C572 1.381 . S
C574 C575 1.394 . S
C574 H582 0.930 . S
C575 C574 1.394 . S
C575 C576 1.383 . S
C575 H583 0.929 . S
C576 C575 1.383 . S
C576 C577 1.377 . S
C577 H561 0.930 . S
C577 C576 1.377 . S
C577 C578 1.379 . S
C578 H562 0.931 . S
C578 C572 1.383 . S
C578 C577 1.379 . S
H579 C573 0.959 . S
H580 C573 0.961 . S
H581 C573 0.960 . S
H582 C574 0.930 . S
H583 C575 0.929 . S
H584 C592 0.929 . S
H585 C594 0.930 . S
H586 C596 0.930 . S
H587 C599 0.929 . S
H588 C602 0.930 . S
H589 C604 0.960 . S
H590 C604 0.960 . S
H591 C604 0.960 . S
C592 H584 0.929 . S
C592 C593 1.377 . S
C592 C594 1.384 . S
C593 C592 1.377 . S
C593 C599 1.390 . S
C594 H585 0.930 . S
C594 C592 1.384 . S
C594 C595 1.372 . S
C595 C594 1.372 . S
C595 C596 1.400 . S
C595 C600 1.490 . S
C596 H586 0.930 . S
C596 C595 1.400 . S
C596 C599 1.386 . S
H597 C613 0.930 . S
H598 C614 0.931 . S
C599 H587 0.929 . S
C599 C593 1.390 . S
C599 C596 1.386 . S
C600 C595 1.490 . S
C600 C602 1.395 1_565 S
C600 C603 1.403 . S
H601 C607 0.930 . S
C602 H588 0.930 . S
C602 C600 1.395 1_545 S
C602 C605 1.403 . S
C603 C600 1.403 . S
C603 C604 1.524 . S
C603 C607 1.400 . S
C604 H589 0.960 . S
C604 H590 0.960 . S
C604 H591 0.960 . S
C604 C603 1.524 . S
C605 C602 1.403 . S
C605 C606 1.392 . S
C605 C609 1.495 . S
C606 C605 1.392 . S
C606 C607 1.385 1_545 S
C606 C608 1.478 . S
C607 H601 0.930 . S
C607 C603 1.400 . S
C607 C606 1.385 1_565 S
C608 C606 1.478 . S
C608 C610 1.381 . S
C608 C614 1.383 . S
C609 C605 1.495 . S
C609 H615 0.959 . S
C609 H616 0.961 . S
C609 H617 0.960 . S
C610 C608 1.381 . S
C610 C611 1.394 . S
C610 H618 0.930 . S
C611 C610 1.394 . S
C611 C612 1.383 . S
C611 H619 0.929 . S
C612 C611 1.383 . S
C612 C613 1.377 . S
C613 H597 0.930 . S
C613 C612 1.377 . S
C613 C614 1.379 . S
C614 H598 0.931 . S
C614 C608 1.383 . S
C614 C613 1.379 . S
H615 C609 0.959 . S
H616 C609 0.961 . S
H617 C609 0.960 . S
H618 C610 0.930 . S
H619 C611 0.929 . S
H620 C628 0.929 . S
H621 C630 0.930 . S
H622 C632 0.930 . S
H623 C635 0.929 . S
H624 C638 0.930 . S
H625 C640 0.960 . S
H626 C640 0.960 . S
H627 C640 0.960 . S
C628 H620 0.929 . S
C628 C629 1.377 . S
C628 C630 1.384 . S
C629 C628 1.377 . S
C629 C635 1.390 . S
C630 H621 0.930 . S
C630 C628 1.384 . S
C630 C631 1.372 . S
C631 C630 1.372 . S
C631 C632 1.400 . S
C631 C636 1.490 . S
C632 H622 0.930 . S
C632 C631 1.400 . S
C632 C635 1.386 . S
H633 C649 0.930 . S
H634 C650 0.931 . S
C635 H623 0.929 . S
C635 C629 1.390 . S
C635 C632 1.386 . S
C636 C631 1.490 . S
C636 C638 1.395 . S
C636 C639 1.403 1_545 S
H637 C643 0.930 . S
C638 H624 0.930 . S
C638 C636 1.395 . S
C638 C641 1.403 . S
C639 C636 1.403 1_565 S
C639 C640 1.524 . S
C639 C643 1.400 . S
C640 H625 0.960 . S
C640 H626 0.960 . S
C640 H627 0.960 . S
C640 C639 1.524 . S
C641 C638 1.403 . S
C641 C642 1.392 1_545 S
C641 C645 1.495 . S
C642 C641 1.392 1_565 S
C642 C643 1.385 . S
C642 C644 1.478 . S
C643 H637 0.930 . S
C643 C639 1.400 . S
C643 C642 1.385 . S
C644 C642 1.478 . S
C644 C646 1.381 . S
C644 C650 1.383 . S
C645 C641 1.495 . S
C645 H651 0.959 . S
C645 H652 0.961 . S
C645 H653 0.960 . S
C646 C644 1.381 . S
C646 C647 1.394 . S
C646 H654 0.930 . S
C647 C646 1.394 . S
C647 C648 1.383 . S
C647 H655 0.929 . S
C648 C647 1.383 . S
C648 C649 1.377 . S
C649 H633 0.930 . S
C649 C648 1.377 . S
C649 C650 1.379 . S
C650 H634 0.931 . S
C650 C644 1.383 . S
C650 C649 1.379 . S
H651 C645 0.959 . S
H652 C645 0.961 . S
H653 C645 0.960 . S
H654 C646 0.930 . S
H655 C647 0.929 . S
H656 C664 0.929 . S
H657 C666 0.930 . S
H658 C668 0.930 . S
H659 C671 0.929 . S
H660 C674 0.930 . S
H661 C676 0.960 . S
H662 C676 0.960 . S
H663 C676 0.960 . S
C664 H656 0.929 . S
C664 C665 1.377 . S
C664 C666 1.384 . S
C665 C664 1.377 . S
C665 C671 1.390 . S
C666 H657 0.930 . S
C666 C664 1.384 . S
C666 C667 1.372 . S
C667 C666 1.372 . S
C667 C668 1.400 . S
C667 C672 1.490 . S
C668 H658 0.930 . S
C668 C667 1.400 . S
C668 C671 1.386 . S
H669 C685 0.930 . S
H670 C686 0.931 . S
C671 H659 0.929 . S
C671 C665 1.390 . S
C671 C668 1.386 . S
C672 C667 1.490 . S
C672 C674 1.395 . S
C672 C675 1.403 . S
H673 C679 0.930 . S
C674 H660 0.930 . S
C674 C672 1.395 . S
C674 C677 1.403 1_655 S
C675 C672 1.403 . S
C675 C676 1.524 . S
C675 C679 1.400 1_655 S
C676 H661 0.960 . S
C676 H662 0.960 . S
C676 H663 0.960 . S
C676 C675 1.524 . S
C677 C674 1.403 1_455 S
C677 C678 1.392 . S
C677 C681 1.495 . S
C678 C677 1.392 . S
C678 C679 1.385 . S
C678 C680 1.478 . S
C679 H673 0.930 . S
C679 C675 1.400 1_455 S
C679 C678 1.385 . S
C680 C678 1.478 . S
C680 C682 1.381 . S
C680 C686 1.383 . S
C681 C677 1.495 . S
C681 H687 0.959 . S
C681 H688 0.961 . S
C681 H689 0.960 . S
C682 C680 1.381 . S
C682 C683 1.394 . S
C682 H690 0.930 . S
C683 C682 1.394 . S
C683 C684 1.383 . S
C683 H691 0.929 . S
C684 C683 1.383 . S
C684 C685 1.377 . S
C685 H669 0.930 . S
C685 C684 1.377 . S
C685 C686 1.379 . S
C686 H670 0.931 . S
C686 C680 1.383 . S
C686 C685 1.379 . S
H687 C681 0.959 . S
H688 C681 0.961 . S
H689 C681 0.960 . S
H690 C682 0.930 . S
H691 C683 0.929 . S
H692 C700 0.929 . S
H693 C702 0.930 . S
H694 C704 0.930 . S
H695 C707 0.929 . S
H696 C710 0.930 . S
H697 C712 0.960 . S
H698 C712 0.960 . S
H699 C712 0.960 . S
C700 H692 0.929 . S
C700 C701 1.377 . S
C700 C702 1.384 . S
C701 C700 1.377 . S
C701 C707 1.390 . S
C702 H693 0.930 . S
C702 C700 1.384 . S
C702 C703 1.372 . S
C703 C702 1.372 . S
C703 C704 1.400 . S
C703 C708 1.490 . S
C704 H694 0.930 . S
C704 C703 1.400 . S
C704 C707 1.386 . S
H705 C721 0.930 . S
H706 C722 0.931 . S
C707 H695 0.929 . S
C707 C701 1.390 . S
C707 C704 1.386 . S
C708 C703 1.490 . S
C708 C710 1.395 . S
C708 C711 1.403 . S
H709 C715 0.930 . S
C710 H696 0.930 . S
C710 C708 1.395 . S
C710 C713 1.403 1_455 S
C711 C708 1.403 . S
C711 C712 1.524 . S
C711 C715 1.400 1_455 S
C712 H697 0.960 . S
C712 H698 0.960 . S
C712 H699 0.960 . S
C712 C711 1.524 . S
C713 C710 1.403 1_655 S
C713 C714 1.392 . S
C713 C717 1.495 . S
C714 C713 1.392 . S
C714 C715 1.385 . S
C714 C716 1.478 . S
C715 H709 0.930 . S
C715 C711 1.400 1_655 S
C715 C714 1.385 . S
C716 C714 1.478 . S
C716 C718 1.381 . S
C716 C722 1.383 . S
C717 C713 1.495 . S
C717 H723 0.959 . S
C717 H724 0.961 . S
C717 H725 0.960 . S
C718 C716 1.381 . S
C718 C719 1.394 . S
C718 H726 0.930 . S
C719 C718 1.394 . S
C719 C720 1.383 . S
C719 H727 0.929 . S
C720 C719 1.383 . S
C720 C721 1.377 . S
C721 H705 0.930 . S
C721 C720 1.377 . S
C721 C722 1.379 . S
C722 H706 0.931 . S
C722 C716 1.383 . S
C722 C721 1.379 . S
H723 C717 0.959 . S
H724 C717 0.961 . S
H725 C717 0.960 . S
H726 C718 0.930 . S
H727 C719 0.929 . S
H728 C736 0.929 . S
H729 C738 0.930 . S
H730 C740 0.930 . S
H731 C743 0.929 . S
H732 C746 0.930 . S
H733 C748 0.960 1_455 S
H734 C748 0.960 . S
H735 C748 0.960 . S
C736 H728 0.929 . S
C736 C737 1.377 . S
C736 C738 1.384 . S
C737 C736 1.377 . S
C737 C743 1.390 . S
C738 H729 0.930 . S
C738 C736 1.384 . S
C738 C739 1.372 . S
C739 C738 1.372 . S
C739 C740 1.400 . S
C739 C744 1.490 . S
C740 H730 0.930 . S
C740 C739 1.400 . S
C740 C743 1.386 . S
H741 C757 0.930 . S
H742 C758 0.931 . S
C743 H731 0.929 . S
C743 C737 1.390 . S
C743 C740 1.386 . S
C744 C739 1.490 . S
C744 C746 1.395 . S
C744 C747 1.403 . S
H745 C751 0.930 . S
C746 H732 0.930 . S
C746 C744 1.395 . S
C746 C749 1.403 1_655 S
C747 C744 1.403 . S
C747 C748 1.524 . S
C747 C751 1.400 1_655 S
C748 H733 0.960 1_655 S
C748 H734 0.960 . S
C748 H735 0.960 . S
C748 C747 1.524 . S
C749 C746 1.403 1_455 S
C749 C750 1.392 . S
C749 C753 1.495 . S
C750 C749 1.392 . S
C750 C751 1.385 . S
C750 C752 1.478 . S
C751 H745 0.930 . S
C751 C747 1.400 1_455 S
C751 C750 1.385 . S
C752 C750 1.478 . S
C752 C754 1.381 . S
C752 C758 1.383 . S
C753 C749 1.495 . S
C753 H759 0.959 1_455 S
C753 H760 0.961 . S
C753 H761 0.960 . S
C754 C752 1.381 . S
C754 C755 1.394 . S
C754 H762 0.930 . S
C755 C754 1.394 . S
C755 C756 1.383 . S
C755 H763 0.929 . S
C756 C755 1.383 . S
C756 C757 1.377 . S
C757 H741 0.930 . S
C757 C756 1.377 . S
C757 C758 1.379 . S
C758 H742 0.931 . S
C758 C752 1.383 . S
C758 C757 1.379 . S
H759 C753 0.959 1_655 S
H760 C753 0.961 . S
H761 C753 0.960 . S
H762 C754 0.930 . S
H763 C755 0.929 . S
H764 C772 0.929 . S
H765 C774 0.930 . S
H766 C776 0.930 . S
H767 C779 0.929 . S
H768 C782 0.930 . S
H769 C784 0.960 1_655 S
H770 C784 0.960 . S
H771 C784 0.960 . S
C772 H764 0.929 . S
C772 C773 1.377 . S
C772 C774 1.384 . S
C773 C772 1.377 . S
C773 C779 1.390 . S
C774 H765 0.930 . S
C774 C772 1.384 . S
C774 C775 1.372 . S
C775 C774 1.372 . S
C775 C776 1.400 . S
C775 C780 1.490 . S
C776 H766 0.930 . S
C776 C775 1.400 . S
C776 C779 1.386 . S
H777 C793 0.930 . S
H778 C794 0.931 . S
C779 H767 0.929 . S
C779 C773 1.390 . S
C779 C776 1.386 . S
C780 C775 1.490 . S
C780 C782 1.395 . S
C780 C783 1.403 . S
H781 C787 0.930 . S
C782 H768 0.930 . S
C782 C780 1.395 . S
C782 C785 1.403 1_455 S
C783 C780 1.403 . S
C783 C784 1.524 . S
C783 C787 1.400 1_455 S
C784 H769 0.960 1_455 S
C784 H770 0.960 . S
C784 H771 0.960 . S
C784 C783 1.524 . S
C785 C782 1.403 1_655 S
C785 C786 1.392 . S
C785 C789 1.495 . S
C786 C785 1.392 . S
C786 C787 1.385 . S
C786 C788 1.478 . S
C787 H781 0.930 . S
C787 C783 1.400 1_655 S
C787 C786 1.385 . S
C788 C786 1.478 . S
C788 C790 1.381 . S
C788 C794 1.383 . S
C789 C785 1.495 . S
C789 H795 0.959 1_655 S
C789 H796 0.961 . S
C789 H797 0.960 . S
C790 C788 1.381 . S
C790 C791 1.394 . S
C790 H798 0.930 . S
C791 C790 1.394 . S
C791 C792 1.383 . S
C791 H799 0.929 . S
C792 C791 1.383 . S
C792 C793 1.377 . S
C793 H777 0.930 . S
C793 C792 1.377 . S
C793 C794 1.379 . S
C794 H778 0.931 . S
C794 C788 1.383 . S
C794 C793 1.379 . S
H795 C789 0.959 1_455 S
H796 C789 0.961 . S
H797 C789 0.960 . S
H798 C790 0.930 . S
H799 C791 0.929 . S
H800 C808 0.929 . S
H801 C810 0.930 . S
H802 C812 0.930 . S
H803 C815 0.929 . S
H804 C818 0.930 . S
H805 C820 0.960 . S
H806 C820 0.960 . S
H807 C820 0.960 . S
C808 H800 0.929 . S
C808 C809 1.377 . S
C808 C810 1.384 . S
C809 C808 1.377 . S
C809 C815 1.390 . S
C810 H801 0.930 . S
C810 C808 1.384 . S
C810 C811 1.372 . S
C811 C810 1.372 . S
C811 C812 1.400 . S
C811 C816 1.490 . S
C812 H802 0.930 . S
C812 C811 1.400 . S
C812 C815 1.386 . S
H813 C829 0.930 . S
H814 C830 0.931 . S
C815 H803 0.929 . S
C815 C809 1.390 . S
C815 C812 1.386 . S
C816 C811 1.490 . S
C816 C818 1.395 . S
C816 C819 1.403 . S
H817 C823 0.930 . S
C818 H804 0.930 . S
C818 C816 1.395 . S
C818 C821 1.403 . S
C819 C816 1.403 . S
C819 C820 1.524 . S
C819 C823 1.400 . S
C820 H805 0.960 . S
C820 H806 0.960 . S
C820 H807 0.960 . S
C820 C819 1.524 . S
C821 C818 1.403 . S
C821 C822 1.392 . S
C821 C825 1.495 . S
C822 C821 1.392 . S
C822 C823 1.385 . S
C822 C824 1.478 . S
C823 H817 0.930 . S
C823 C819 1.400 . S
C823 C822 1.385 . S
C824 C822 1.478 . S
C824 C826 1.381 . S
C824 C830 1.383 . S
C825 C821 1.495 . S
C825 H831 0.959 . S
C825 H832 0.961 . S
C825 H833 0.960 . S
C826 C824 1.381 . S
C826 C827 1.394 . S
C826 H834 0.930 . S
C827 C826 1.394 . S
C827 C828 1.383 . S
C827 H835 0.929 . S
C828 C827 1.383 . S
C828 C829 1.377 . S
C829 H813 0.930 . S
C829 C828 1.377 . S
C829 C830 1.379 . S
C830 H814 0.931 . S
C830 C824 1.383 . S
C830 C829 1.379 . S
H831 C825 0.959 . S
H832 C825 0.961 . S
H833 C825 0.960 . S
H834 C826 0.930 . S
H835 C827 0.929 . S
H836 C844 0.929 . S
H837 C846 0.930 . S
H838 C848 0.930 . S
H839 C851 0.929 . S
H840 C854 0.930 . S
H841 C856 0.960 . S
H842 C856 0.960 . S
H843 C856 0.960 . S
C844 H836 0.929 . S
C844 C845 1.377 . S
C844 C846 1.384 . S
C845 C844 1.377 . S
C845 C851 1.390 . S
C846 H837 0.930 . S
C846 C844 1.384 . S
C846 C847 1.372 . S
C847 C846 1.372 . S
C847 C848 1.400 . S
C847 C852 1.490 . S
C848 H838 0.930 . S
C848 C847 1.400 . S
C848 C851 1.386 . S
H849 C865 0.930 . S
H850 C866 0.931 . S
C851 H839 0.929 . S
C851 C845 1.390 . S
C851 C848 1.386 . S
C852 C847 1.490 . S
C852 C854 1.395 . S
C852 C855 1.403 . S
H853 C859 0.930 . S
C854 H840 0.930 . S
C854 C852 1.395 . S
C854 C857 1.403 . S
C855 C852 1.403 . S
C855 C856 1.524 . S
C855 C859 1.400 . S
C856 H841 0.960 . S
C856 H842 0.960 . S
C856 H843 0.960 . S
C856 C855 1.524 . S
C857 C854 1.403 . S
C857 C858 1.392 . S
C857 C861 1.495 . S
C858 C857 1.392 . S
C858 C859 1.385 . S
C858 C860 1.478 . S
C859 H853 0.930 . S
C859 C855 1.400 . S
C859 C858 1.385 . S
C860 C858 1.478 . S
C860 C862 1.381 . S
C860 C866 1.383 . S
C861 C857 1.495 . S
C861 H867 0.959 . S
C861 H868 0.961 . S
C861 H869 0.960 . S
C862 C860 1.381 . S
C862 C863 1.394 . S
C862 H870 0.930 . S
C863 C862 1.394 . S
C863 C864 1.383 . S
C863 H871 0.929 . S
C864 C863 1.383 . S
C864 C865 1.377 . S
C865 H849 0.930 . S
C865 C864 1.377 . S
C865 C866 1.379 . S
C866 H850 0.931 . S
C866 C860 1.383 . S
C866 C865 1.379 . S
H867 C861 0.959 . S
H868 C861 0.961 . S
H869 C861 0.960 . S
H870 C862 0.930 . S
H871 C863 0.929 . S
H872 C880 0.929 . S
H873 C882 0.930 . S
H874 C884 0.930 . S
H875 C887 0.929 . S
H876 C890 0.930 . S
H877 C892 0.960 . S
H878 C892 0.960 . S
H879 C892 0.960 . S
C880 H872 0.929 . S
C880 C881 1.377 . S
C880 C882 1.384 . S
C881 C880 1.377 . S
C881 C887 1.390 . S
C882 H873 0.930 . S
C882 C880 1.384 . S
C882 C883 1.372 . S
C883 C882 1.372 . S
C883 C884 1.400 . S
C883 C888 1.490 . S
C884 H874 0.930 . S
C884 C883 1.400 . S
C884 C887 1.386 . S
H885 C901 0.930 . S
H886 C902 0.931 . S
C887 H875 0.929 . S
C887 C881 1.390 . S
C887 C884 1.386 . S
C888 C883 1.490 . S
C888 C890 1.395 . S
C888 C891 1.403 . S
H889 C895 0.930 . S
C890 H876 0.930 . S
C890 C888 1.395 . S
C890 C893 1.403 . S
C891 C888 1.403 . S
C891 C892 1.524 . S
C891 C895 1.400 . S
C892 H877 0.960 . S
C892 H878 0.960 . S
C892 H879 0.960 . S
C892 C891 1.524 . S
C893 C890 1.403 . S
C893 C894 1.392 . S
C893 C897 1.495 . S
C894 C893 1.392 . S
C894 C895 1.385 . S
C894 C896 1.478 . S
C895 H889 0.930 . S
C895 C891 1.400 . S
C895 C894 1.385 . S
C896 C894 1.478 . S
C896 C898 1.381 . S
C896 C902 1.383 . S
C897 C893 1.495 . S
C897 H903 0.959 . S
C897 H904 0.961 . S
C897 H905 0.960 . S
C898 C896 1.381 . S
C898 C899 1.394 . S
C898 H906 0.930 . S
C899 C898 1.394 . S
C899 C900 1.383 . S
C899 H907 0.929 . S
C900 C899 1.383 . S
C900 C901 1.377 . S
C901 H885 0.930 . S
C901 C900 1.377 . S
C901 C902 1.379 . S
C902 H886 0.931 . S
C902 C896 1.383 . S
C902 C901 1.379 . S
H903 C897 0.959 . S
H904 C897 0.961 . S
H905 C897 0.960 . S
H906 C898 0.930 . S
H907 C899 0.929 . S
H908 C916 0.929 . S
H909 C918 0.930 . S
H910 C920 0.930 . S
H911 C923 0.929 . S
H912 C926 0.930 . S
H913 C928 0.960 . S
H914 C928 0.960 . S
H915 C928 0.960 . S
C916 H908 0.929 . S
C916 C917 1.377 . S
C916 C918 1.384 . S
C917 C916 1.377 . S
C917 C923 1.390 . S
C918 H909 0.930 . S
C918 C916 1.384 . S
C918 C919 1.372 . S
C919 C918 1.372 . S
C919 C920 1.400 . S
C919 C924 1.490 . S
C920 H910 0.930 . S
C920 C919 1.400 . S
C920 C923 1.386 . S
H921 C937 0.930 . S
H922 C938 0.931 . S
C923 H911 0.929 . S
C923 C917 1.390 . S
C923 C920 1.386 . S
C924 C919 1.490 . S
C924 C926 1.395 . S
C924 C927 1.403 . S
H925 C931 0.930 . S
C926 H912 0.930 . S
C926 C924 1.395 . S
C926 C929 1.403 . S
C927 C924 1.403 . S
C927 C928 1.524 . S
C927 C931 1.400 . S
C928 H913 0.960 . S
C928 H914 0.960 . S
C928 H915 0.960 . S
C928 C927 1.524 . S
C929 C926 1.403 . S
C929 C930 1.392 . S
C929 C933 1.495 . S
C930 C929 1.392 . S
C930 C931 1.385 . S
C930 C932 1.478 . S
C931 H925 0.930 . S
C931 C927 1.400 . S
C931 C930 1.385 . S
C932 C930 1.478 . S
C932 C934 1.381 . S
C932 C938 1.383 . S
C933 C929 1.495 . S
C933 H939 0.959 . S
C933 H940 0.961 . S
C933 H941 0.960 . S
C934 C932 1.381 . S
C934 C935 1.394 . S
C934 H942 0.930 . S
C935 C934 1.394 . S
C935 C936 1.383 . S
C935 H943 0.929 . S
C936 C935 1.383 . S
C936 C937 1.377 . S
C937 H921 0.930 . S
C937 C936 1.377 . S
C937 C938 1.379 . S
C938 H922 0.931 . S
C938 C932 1.383 . S
C938 C937 1.379 . S
H939 C933 0.959 . S
H940 C933 0.961 . S
H941 C933 0.960 . S
H942 C934 0.930 . S
H943 C935 0.929 . S
H944 C952 0.929 . S
H945 C954 0.930 . S
H946 C956 0.930 . S
H947 C959 0.929 . S
H948 C962 0.930 . S
H949 C964 0.960 . S
H950 C964 0.960 . S
H951 C964 0.960 . S
C952 H944 0.929 . S
C952 C953 1.377 . S
C952 C954 1.384 . S
C953 C952 1.377 . S
C953 C959 1.390 . S
C954 H945 0.930 . S
C954 C952 1.384 . S
C954 C955 1.372 . S
C955 C954 1.372 . S
C955 C956 1.400 . S
C955 C960 1.490 . S
C956 H946 0.930 . S
C956 C955 1.400 . S
C956 C959 1.386 . S
H957 C973 0.930 . S
H958 C974 0.931 . S
C959 H947 0.929 . S
C959 C953 1.390 . S
C959 C956 1.386 . S
C960 C955 1.490 . S
C960 C962 1.395 . S
C960 C963 1.403 . S
H961 C967 0.930 . S
C962 H948 0.930 . S
C962 C960 1.395 . S
C962 C965 1.403 . S
C963 C960 1.403 . S
C963 C964 1.524 . S
C963 C967 1.400 . S
C964 H949 0.960 . S
C964 H950 0.960 . S
C964 H951 0.960 . S
C964 C963 1.524 . S
C965 C962 1.403 . S
C965 C966 1.392 . S
C965 C969 1.495 . S
C966 C965 1.392 . S
C966 C967 1.385 . S
C966 C968 1.478 . S
C967 H961 0.930 . S
C967 C963 1.400 . S
C967 C966 1.385 . S
C968 C966 1.478 . S
C968 C970 1.381 . S
C968 C974 1.383 . S
C969 C965 1.495 . S
C969 H975 0.959 . S
C969 H976 0.961 . S
C969 H977 0.960 . S
C970 C968 1.381 . S
C970 C971 1.394 . S
C970 H978 0.930 . S
C971 C970 1.394 . S
C971 C972 1.383 . S
C971 H979 0.929 . S
C972 C971 1.383 . S
C972 C973 1.377 . S
C973 H957 0.930 . S
C973 C972 1.377 . S
C973 C974 1.379 . S
C974 H958 0.931 . S
C974 C968 1.383 . S
C974 C973 1.379 . S
H975 C969 0.959 . S
H976 C969 0.961 . S
H977 C969 0.960 . S
H978 C970 0.930 . S
H979 C971 0.929 . S
H980 C988 0.929 . S
H981 C990 0.930 . S
H982 C992 0.930 . S
H983 C995 0.929 . S
H984 C998 0.930 . S
H985 C1000 0.960 . S
H986 C1000 0.960 . S
H987 C1000 0.960 . S
C988 H980 0.929 . S
C988 C989 1.377 . S
C988 C990 1.384 . S
C989 C988 1.377 . S
C989 C995 1.390 . S
C990 H981 0.930 . S
C990 C988 1.384 . S
C990 C991 1.372 . S
C991 C990 1.372 . S
C991 C992 1.400 . S
C991 C996 1.490 . S
C992 H982 0.930 . S
C992 C991 1.400 . S
C992 C995 1.386 . S
H993 C1009 0.930 . S
H994 C1010 0.931 . S
C995 H983 0.929 . S
C995 C989 1.390 . S
C995 C992 1.386 . S
C996 C991 1.490 . S
C996 C998 1.395 . S
C996 C999 1.403 . S
H997 C1003 0.930 . S
C998 H984 0.930 . S
C998 C996 1.395 . S
C998 C1001 1.403 . S
C999 C996 1.403 . S
C999 C1000 1.524 . S
C999 C1003 1.400 . S
C1000 H985 0.960 . S
C1000 H986 0.960 . S
C1000 H987 0.960 . S
C1000 C999 1.524 . S
C1001 C998 1.403 . S
C1001 C1002 1.392 . S
C1001 C1005 1.495 . S
C1002 C1001 1.392 . S
C1002 C1003 1.385 . S
C1002 C1004 1.478 . S
C1003 H997 0.930 . S
C1003 C999 1.400 . S
C1003 C1002 1.385 . S
C1004 C1002 1.478 . S
C1004 C1006 1.381 . S
C1004 C1010 1.383 . S
C1005 C1001 1.495 . S
C1005 H1011 0.959 . S
C1005 H1012 0.961 . S
C1005 H1013 0.960 . S
C1006 C1004 1.381 . S
C1006 C1007 1.394 . S
C1006 H1014 0.930 . S
C1007 C1006 1.394 . S
C1007 C1008 1.383 . S
C1007 H1015 0.929 . S
C1008 C1007 1.383 . S
C1008 C1009 1.377 . S
C1009 H993 0.930 . S
C1009 C1008 1.377 . S
C1009 C1010 1.379 . S
C1010 H994 0.931 . S
C1010 C1004 1.383 . S
C1010 C1009 1.379 . S
H1011 C1005 0.959 . S
H1012 C1005 0.961 . S
H1013 C1005 0.960 . S
H1014 C1006 0.930 . S
H1015 C1007 0.929 . S
H1016 C1024 0.929 . S
H1017 C1026 0.930 . S
H1018 C1028 0.930 . S
H1019 C1031 0.929 . S
H1020 C1034 0.930 . S
H1021 C1036 0.960 . S
H1022 C1036 0.960 . S
H1023 C1036 0.960 . S
C1024 H1016 0.929 . S
C1024 C1025 1.377 . S
C1024 C1026 1.384 . S
C1025 C1024 1.377 . S
C1025 C1031 1.390 . S
C1026 H1017 0.930 . S
C1026 C1024 1.384 . S
C1026 C1027 1.372 . S
C1027 C1026 1.372 . S
C1027 C1028 1.400 . S
C1027 C1032 1.490 . S
C1028 H1018 0.930 . S
C1028 C1027 1.400 . S
C1028 C1031 1.386 . S
H1029 C1045 0.930 . S
H1030 C1046 0.931 . S
C1031 H1019 0.929 . S
C1031 C1025 1.390 . S
C1031 C1028 1.386 . S
C1032 C1027 1.490 . S
C1032 C1034 1.395 . S
C1032 C1035 1.403 . S
H1033 C1039 0.930 . S
C1034 H1020 0.930 . S
C1034 C1032 1.395 . S
C1034 C1037 1.403 . S
C1035 C1032 1.403 . S
C1035 C1036 1.524 . S
C1035 C1039 1.400 . S
C1036 H1021 0.960 . S
C1036 H1022 0.960 . S
C1036 H1023 0.960 . S
C1036 C1035 1.524 . S
C1037 C1034 1.403 . S
C1037 C1038 1.392 . S
C1037 C1041 1.495 . S
C1038 C1037 1.392 . S
C1038 C1039 1.385 . S
C1038 C1040 1.478 . S
C1039 H1033 0.930 . S
C1039 C1035 1.400 . S
C1039 C1038 1.385 . S
C1040 C1038 1.478 . S
C1040 C1042 1.381 . S
C1040 C1046 1.383 . S
C1041 C1037 1.495 . S
C1041 H1047 0.959 . S
C1041 H1048 0.961 . S
C1041 H1049 0.960 . S
C1042 C1040 1.381 . S
C1042 C1043 1.394 . S
C1042 H1050 0.930 . S
C1043 C1042 1.394 . S
C1043 C1044 1.383 . S
C1043 H1051 0.929 . S
C1044 C1043 1.383 . S
C1044 C1045 1.377 . S
C1045 H1029 0.930 . S
C1045 C1044 1.377 . S
C1045 C1046 1.379 . S
C1046 H1030 0.931 . S
C1046 C1040 1.383 . S
C1046 C1045 1.379 . S
H1047 C1041 0.959 . S
H1048 C1041 0.961 . S
H1049 C1041 0.960 . S
H1050 C1042 0.930 . S
H1051 C1043 0.929 . S
H1052 C1060 0.929 . S
H1053 C1062 0.930 . S
H1054 C1064 0.930 . S
H1055 C1067 0.929 . S
H1056 C1070 0.930 . S
H1057 C1072 0.960 . S
H1058 C1072 0.960 . S
H1059 C1072 0.960 . S
C1060 H1052 0.929 . S
C1060 C1061 1.377 . S
C1060 C1062 1.384 . S
C1061 C1060 1.377 . S
C1061 C1067 1.390 . S
C1062 H1053 0.930 . S
C1062 C1060 1.384 . S
C1062 C1063 1.372 . S
C1063 C1062 1.372 . S
C1063 C1064 1.400 . S
C1063 C1068 1.490 . S
C1064 H1054 0.930 . S
C1064 C1063 1.400 . S
C1064 C1067 1.386 . S
H1065 C1081 0.930 . S
H1066 C1082 0.931 . S
C1067 H1055 0.929 . S
C1067 C1061 1.390 . S
C1067 C1064 1.386 . S
C1068 C1063 1.490 . S
C1068 C1070 1.395 . S
C1068 C1071 1.403 . S
H1069 C1075 0.930 . S
C1070 H1056 0.930 . S
C1070 C1068 1.395 . S
C1070 C1073 1.403 . S
C1071 C1068 1.403 . S
C1071 C1072 1.524 . S
C1071 C1075 1.400 . S
C1072 H1057 0.960 . S
C1072 H1058 0.960 . S
C1072 H1059 0.960 . S
C1072 C1071 1.524 . S
C1073 C1070 1.403 . S
C1073 C1074 1.392 . S
C1073 C1077 1.495 . S
C1074 C1073 1.392 . S
C1074 C1075 1.385 . S
C1074 C1076 1.478 . S
C1075 H1069 0.930 . S
C1075 C1071 1.400 . S
C1075 C1074 1.385 . S
C1076 C1074 1.478 . S
C1076 C1078 1.381 . S
C1076 C1082 1.383 . S
C1077 C1073 1.495 . S
C1077 H1083 0.959 . S
C1077 H1084 0.961 . S
C1077 H1085 0.960 . S
C1078 C1076 1.381 . S
C1078 C1079 1.394 . S
C1078 H1086 0.930 . S
C1079 C1078 1.394 . S
C1079 C1080 1.383 . S
C1079 H1087 0.929 . S
C1080 C1079 1.383 . S
C1080 C1081 1.377 . S
C1081 H1065 0.930 . S
C1081 C1080 1.377 . S
C1081 C1082 1.379 . S
C1082 H1066 0.931 . S
C1082 C1076 1.383 . S
C1082 C1081 1.379 . S
H1083 C1077 0.959 . S
H1084 C1077 0.961 . S
H1085 C1077 0.960 . S
H1086 C1078 0.930 . S
H1087 C1079 0.929 . S
H1088 C1096 0.946 . S
H1089 C1098 0.930 1_565 S
H1090 C1100 0.930 . S
H1091 C1103 0.929 . S
H1092 C1106 0.930 . S
H1093 C1108 0.960 . S
H1094 C1108 0.960 . S
H1095 C1108 0.960 . S
C1096 H1088 0.946 . S
C1096 C1097 1.377 . S
C1096 C1098 1.384 . S
C1097 C1096 1.377 . S
C1097 C1103 1.390 . S
C1098 H1089 0.930 1_545 S
C1098 C1096 1.384 . S
C1098 C1099 1.372 . S
C1099 C1098 1.372 . S
C1099 C1100 1.400 . S
C1099 C1104 1.490 . S
C1100 H1090 0.930 . S
C1100 C1099 1.400 . S
C1100 C1103 1.386 . S
H1101 C1117 0.930 . S
H1102 C1118 0.931 1_545 S
C1103 H1091 0.929 . S
C1103 C1097 1.390 . S
C1103 C1100 1.386 . S
C1104 C1099 1.490 . S
C1104 C1106 1.395 1_545 S
C1104 C1107 1.403 . S
H1105 C1111 0.930 . S
C1106 H1092 0.930 . S
C1106 C1104 1.395 1_565 S
C1106 C1109 1.403 . S
C1107 C1104 1.403 . S
C1107 C1108 1.524 . S
C1107 C1111 1.400 . S
C1108 H1093 0.960 . S
C1108 H1094 0.960 . S
C1108 H1095 0.960 . S
C1108 C1107 1.524 . S
C1109 C1106 1.403 . S
C1109 C1110 1.392 . S
C1109 C1113 1.495 . S
C1110 C1109 1.392 . S
C1110 C1111 1.385 1_565 S
C1110 C1112 1.478 . S
C1111 H1105 0.930 . S
C1111 C1107 1.400 . S
C1111 C1110 1.385 1_545 S
C1112 C1110 1.478 . S
C1112 C1114 1.381 . S
C1112 C1118 1.383 . S
C1113 C1109 1.495 . S
C1113 H1119 0.959 . S
C1113 H1120 0.961 . S
C1113 H1121 0.960 . S
C1114 C1112 1.381 . S
C1114 C1115 1.394 . S
C1114 H1122 0.930 . S
C1115 C1114 1.394 . S
C1115 C1116 1.383 . S
C1115 H1123 0.929 . S
C1116 C1115 1.383 . S
C1116 C1117 1.377 . S
C1117 H1101 0.930 . S
C1117 C1116 1.377 . S
C1117 C1118 1.379 . S
C1118 H1102 0.931 1_565 S
C1118 C1112 1.383 . S
C1118 C1117 1.379 . S
H1119 C1113 0.959 . S
H1120 C1113 0.961 . S
H1121 C1113 0.960 . S
H1122 C1114 0.930 . S
H1123 C1115 0.929 . S
H1124 C1132 0.929 1_565 S
H1125 C1134 0.930 . S
H1126 C1136 0.930 . S
H1127 C1139 0.929 . S
H1128 C1142 0.930 . S
H1129 C1144 0.960 . S
H1130 C1144 0.958 1_565 S
H1131 C1144 0.960 . S
C1132 H1124 0.929 1_545 S
C1132 C1133 1.377 . S
C1132 C1134 1.384 1_545 S
C1133 C1132 1.377 . S
C1133 C1139 1.390 . S
C1134 H1125 0.930 . S
C1134 C1132 1.384 1_565 S
C1134 C1135 1.372 1_565 S
C1135 C1134 1.372 1_545 S
C1135 C1136 1.400 . S
C1135 C1140 1.490 . S
C1136 H1126 0.930 . S
C1136 C1135 1.400 . S
C1136 C1139 1.386 . S
H1137 C1153 0.930 1_545 S
H1138 C1154 0.931 . S
C1139 H1127 0.929 . S
C1139 C1133 1.390 . S
C1139 C1136 1.386 . S
C1140 C1135 1.490 . S
C1140 C1142 1.395 1_545 S
C1140 C1143 1.403 . S
H1141 C1147 0.931 . S
C1142 H1128 0.930 . S
C1142 C1140 1.395 1_565 S
C1142 C1145 1.403 . S
C1143 C1140 1.403 . S
C1143 C1144 1.524 . S
C1143 C1147 1.400 1_545 S
C1144 H1129 0.960 . S
C1144 H1130 0.958 1_545 S
C1144 H1131 0.960 . S
C1144 C1143 1.524 . S
C1145 C1142 1.403 . S
C1145 C1146 1.392 . S
C1145 C1149 1.495 . S
C1146 C1145 1.392 . S
C1146 C1147 1.385 . S
C1146 C1148 1.478 . S
C1147 H1141 0.931 . S
C1147 C1143 1.400 1_565 S
C1147 C1146 1.385 . S
C1148 C1146 1.478 . S
C1148 C1150 1.381 . S
C1148 C1154 1.383 1_565 S
C1149 C1145 1.495 . S
C1149 H1155 0.959 . S
C1149 H1156 0.961 . S
C1149 H1157 0.960 . S
C1150 C1148 1.381 . S
C1150 C1151 1.394 . S
C1150 H1158 0.930 . S
C1151 C1150 1.394 . S
C1151 C1152 1.383 . S
C1151 H1159 0.929 . S
C1152 C1151 1.383 . S
C1152 C1153 1.377 . S
C1153 H1137 0.930 1_565 S
C1153 C1152 1.377 . S
C1153 C1154 1.379 1_565 S
C1154 H1138 0.931 . S
C1154 C1148 1.383 1_545 S
C1154 C1153 1.379 1_545 S
H1155 C1149 0.959 . S
H1156 C1149 0.961 . S
H1157 C1149 0.960 . S
H1158 C1150 0.930 . S
H1159 C1151 0.929 . S
H1160 C1168 0.929 . S
H1161 C1170 0.930 . S
H1162 C1172 0.930 1_565 S
H1163 C1175 0.929 . S
H1164 C1178 0.930 . S
H1165 C1180 0.960 . S
H1166 C1180 0.960 . S
H1167 C1180 0.960 . S
C1168 H1160 0.929 . S
C1168 C1169 1.377 . S
C1168 C1170 1.384 . S
C1169 C1168 1.377 . S
C1169 C1175 1.390 . S
C1170 H1161 0.930 . S
C1170 C1168 1.384 . S
C1170 C1171 1.372 . S
C1171 C1170 1.372 . S
C1171 C1172 1.400 . S
C1171 C1176 1.490 . S
C1172 H1162 0.930 1_545 S
C1172 C1171 1.400 . S
C1172 C1175 1.386 . S
H1173 C1189 0.930 . S
H1174 C1190 0.931 . S
C1175 H1163 0.929 . S
C1175 C1169 1.390 . S
C1175 C1172 1.386 . S
C1176 C1171 1.490 . S
C1176 C1178 1.395 1_545 S
C1176 C1179 1.403 . S
H1177 C1183 0.930 . S
C1178 H1164 0.930 . S
C1178 C1176 1.395 1_565 S
C1178 C1181 1.403 . S
C1179 C1176 1.403 . S
C1179 C1180 1.524 . S
C1179 C1183 1.400 . S
C1180 H1165 0.960 . S
C1180 H1166 0.960 . S
C1180 H1167 0.960 . S
C1180 C1179 1.524 . S
C1181 C1178 1.403 . S
C1181 C1182 1.392 . S
C1181 C1185 1.495 . S
C1182 C1181 1.392 . S
C1182 C1183 1.385 1_565 S
C1182 C1184 1.478 . S
C1183 H1177 0.930 . S
C1183 C1179 1.400 . S
C1183 C1182 1.385 1_545 S
C1184 C1182 1.478 . S
C1184 C1186 1.381 . S
C1184 C1190 1.383 . S
C1185 C1181 1.495 . S
C1185 H1191 0.959 . S
C1185 H1192 0.961 . S
C1185 H1193 0.960 . S
C1186 C1184 1.381 . S
C1186 C1187 1.394 . S
C1186 H1194 0.930 1_565 S
C1187 C1186 1.394 . S
C1187 C1188 1.383 . S
C1187 H1195 0.907 1_565 S
C1188 C1187 1.383 . S
C1188 C1189 1.377 . S
C1189 H1173 0.930 . S
C1189 C1188 1.377 . S
C1189 C1190 1.379 . S
C1190 H1174 0.931 . S
C1190 C1184 1.383 . S
C1190 C1189 1.379 . S
H1191 C1185 0.959 . S
H1192 C1185 0.961 . S
H1193 C1185 0.960 . S
H1194 C1186 0.930 1_545 S
H1195 C1187 0.907 1_545 S
H1196 C1204 0.929 . S
H1197 C1206 0.930 . S
H1198 C1208 0.930 . S
H1199 C1211 0.929 . S
H1200 C1214 0.930 . S
H1201 C1216 0.960 . S
H1202 C1216 0.960 . S
H1203 C1216 0.960 . S
C1204 H1196 0.929 . S
C1204 C1205 1.377 . S
C1204 C1206 1.384 . S
C1205 C1204 1.377 . S
C1205 C1211 1.390 . S
C1206 H1197 0.930 . S
C1206 C1204 1.384 . S
C1206 C1207 1.372 . S
C1207 C1206 1.372 . S
C1207 C1208 1.400 . S
C1207 C1212 1.490 . S
C1208 H1198 0.930 . S
C1208 C1207 1.400 . S
C1208 C1211 1.386 . S
H1209 C1225 0.930 . S
H1210 C1226 0.931 1_565 S
C1211 H1199 0.929 . S
C1211 C1205 1.390 . S
C1211 C1208 1.386 . S
C1212 C1207 1.490 . S
C1212 C1214 1.395 . S
C1212 C1215 1.403 1_565 S
H1213 C1219 0.930 . S
C1214 H1200 0.930 . S
C1214 C1212 1.395 . S
C1214 C1217 1.403 . S
C1215 C1212 1.403 1_545 S
C1215 C1216 1.524 . S
C1215 C1219 1.400 . S
C1216 H1201 0.960 . S
C1216 H1202 0.960 . S
C1216 H1203 0.960 . S
C1216 C1215 1.524 . S
C1217 C1214 1.403 . S
C1217 C1218 1.392 1_565 S
C1217 C1221 1.495 . S
C1218 C1217 1.392 1_545 S
C1218 C1219 1.385 . S
C1218 C1220 1.478 . S
C1219 H1213 0.930 . S
C1219 C1215 1.400 . S
C1219 C1218 1.385 . S
C1220 C1218 1.478 . S
C1220 C1222 1.381 . S
C1220 C1226 1.383 . S
C1221 C1217 1.495 . S
C1221 H1227 0.959 . S
C1221 H1228 0.961 . S
C1221 H1229 0.960 . S
C1222 C1220 1.381 . S
C1222 C1223 1.394 . S
C1222 H1230 0.930 . S
C1223 C1222 1.394 . S
C1223 C1224 1.383 . S
C1223 H1231 0.929 . S
C1224 C1223 1.383 . S
C1224 C1225 1.377 . S
C1225 H1209 0.930 . S
C1225 C1224 1.377 . S
C1225 C1226 1.379 . S
C1226 H1210 0.931 1_545 S
C1226 C1220 1.383 . S
C1226 C1225 1.379 . S
H1227 C1221 0.959 . S
H1228 C1221 0.961 . S
H1229 C1221 0.960 . S
H1230 C1222 0.930 . S
H1231 C1223 0.929 . S
H1232 C1240 0.929 . S
H1233 C1242 0.930 . S
H1234 C1244 0.930 . S
H1235 C1247 0.929 . S
H1236 C1250 0.930 . S
H1237 C1252 0.960 . S
H1238 C1252 0.960 . S
H1239 C1252 0.960 . S
C1240 H1232 0.929 . S
C1240 C1241 1.377 . S
C1240 C1242 1.384 . S
C1241 C1240 1.377 . S
C1241 C1247 1.390 . S
C1242 H1233 0.930 . S
C1242 C1240 1.384 . S
C1242 C1243 1.372 . S
C1243 C1242 1.372 . S
C1243 C1244 1.400 . S
C1243 C1248 1.490 . S
C1244 H1234 0.930 . S
C1244 C1243 1.400 . S
C1244 C1247 1.386 . S
H1245 C1261 0.930 . S
H1246 C1262 0.931 . S
C1247 H1235 0.929 . S
C1247 C1241 1.390 . S
C1247 C1244 1.386 . S
C1248 C1243 1.490 . S
C1248 C1250 1.395 . S
C1248 C1251 1.403 . S
H1249 C1255 0.930 . S
C1250 H1236 0.930 . S
C1250 C1248 1.395 . S
C1250 C1253 1.403 . S
C1251 C1248 1.403 . S
C1251 C1252 1.524 . S
C1251 C1255 1.400 . S
C1252 H1237 0.960 . S
C1252 H1238 0.960 . S
C1252 H1239 0.960 . S
C1252 C1251 1.524 . S
C1253 C1250 1.403 . S
C1253 C1254 1.392 . S
C1253 C1257 1.495 . S
C1254 C1253 1.392 . S
C1254 C1255 1.385 . S
C1254 C1256 1.478 . S
C1255 H1249 0.930 . S
C1255 C1251 1.400 . S
C1255 C1254 1.385 . S
C1256 C1254 1.478 . S
C1256 C1258 1.381 . S
C1256 C1262 1.383 . S
C1257 C1253 1.495 . S
C1257 H1263 0.959 . S
C1257 H1264 0.961 . S
C1257 H1265 0.960 . S
C1258 C1256 1.381 . S
C1258 C1259 1.394 . S
C1258 H1266 0.930 . S
C1259 C1258 1.394 . S
C1259 C1260 1.383 . S
C1259 H1267 0.929 . S
C1260 C1259 1.383 . S
C1260 C1261 1.377 . S
C1261 H1245 0.930 . S
C1261 C1260 1.377 . S
C1261 C1262 1.379 . S
C1262 H1246 0.931 . S
C1262 C1256 1.383 . S
C1262 C1261 1.379 . S
H1263 C1257 0.959 . S
H1264 C1257 0.961 . S
H1265 C1257 0.960 . S
H1266 C1258 0.930 . S
H1267 C1259 0.929 . S
H1268 C1276 0.929 . S
H1269 C1278 0.930 . S
H1270 C1280 0.930 . S
H1271 C1283 0.929 . S
H1272 C1286 0.930 . S
H1273 C1288 0.960 . S
H1274 C1288 0.960 . S
H1275 C1288 0.960 . S
C1276 H1268 0.929 . S
C1276 C1277 1.377 . S
C1276 C1278 1.384 . S
C1277 C1276 1.377 . S
C1277 C1283 1.390 . S
C1278 H1269 0.930 . S
C1278 C1276 1.384 . S
C1278 C1279 1.372 . S
C1279 C1278 1.372 . S
C1279 C1280 1.400 . S
C1279 C1284 1.490 . S
C1280 H1270 0.930 . S
C1280 C1279 1.400 . S
C1280 C1283 1.386 . S
H1281 C1297 0.930 . S
H1282 C1298 0.931 . S
C1283 H1271 0.929 . S
C1283 C1277 1.390 . S
C1283 C1280 1.386 . S
C1284 C1279 1.490 . S
C1284 C1286 1.395 . S
C1284 C1287 1.403 . S
H1285 C1291 0.930 . S
C1286 H1272 0.930 . S
C1286 C1284 1.395 . S
C1286 C1289 1.403 . S
C1287 C1284 1.403 . S
C1287 C1288 1.524 . S
C1287 C1291 1.400 . S
C1288 H1273 0.960 . S
C1288 H1274 0.960 . S
C1288 H1275 0.960 . S
C1288 C1287 1.524 . S
C1289 C1286 1.403 . S
C1289 C1290 1.392 . S
C1289 C1293 1.495 . S
C1290 C1289 1.392 . S
C1290 C1291 1.385 . S
C1290 C1292 1.478 . S
C1291 H1285 0.930 . S
C1291 C1287 1.400 . S
C1291 C1290 1.385 . S
C1292 C1290 1.478 . S
C1292 C1294 1.381 . S
C1292 C1298 1.383 . S
C1293 C1289 1.495 . S
C1293 H1299 0.959 . S
C1293 H1300 0.961 . S
C1293 H1301 0.960 . S
C1294 C1292 1.381 . S
C1294 C1295 1.394 . S
C1294 H1302 0.930 . S
C1295 C1294 1.394 . S
C1295 C1296 1.383 . S
C1295 H1303 0.929 . S
C1296 C1295 1.383 . S
C1296 C1297 1.377 . S
C1297 H1281 0.930 . S
C1297 C1296 1.377 . S
C1297 C1298 1.379 . S
C1298 H1282 0.931 . S
C1298 C1292 1.383 . S
C1298 C1297 1.379 . S
H1299 C1293 0.959 . S
H1300 C1293 0.961 . S
H1301 C1293 0.960 . S
H1302 C1294 0.930 . S
H1303 C1295 0.929 . S
H1304 C1312 0.929 . S
H1305 C1314 0.930 . S
H1306 C1316 0.930 . S
H1307 C1319 0.929 . S
H1308 C1322 0.930 . S
H1309 C1324 0.960 . S
H1310 C1324 0.960 . S
H1311 C1324 0.960 . S
C1312 H1304 0.929 . S
C1312 C1313 1.377 . S
C1312 C1314 1.384 . S
C1313 C1312 1.377 . S
C1313 C1319 1.390 . S
C1314 H1305 0.930 . S
C1314 C1312 1.384 . S
C1314 C1315 1.372 . S
C1315 C1314 1.372 . S
C1315 C1316 1.400 . S
C1315 C1320 1.490 . S
C1316 H1306 0.930 . S
C1316 C1315 1.400 . S
C1316 C1319 1.386 . S
H1317 C1333 0.930 . S
H1318 C1334 0.931 . S
C1319 H1307 0.929 . S
C1319 C1313 1.390 . S
C1319 C1316 1.386 . S
C1320 C1315 1.490 . S
C1320 C1322 1.395 . S
C1320 C1323 1.403 . S
H1321 C1327 0.930 . S
C1322 H1308 0.930 . S
C1322 C1320 1.395 . S
C1322 C1325 1.403 . S
C1323 C1320 1.403 . S
C1323 C1324 1.524 . S
C1323 C1327 1.400 . S
C1324 H1309 0.960 . S
C1324 H1310 0.960 . S
C1324 H1311 0.960 . S
C1324 C1323 1.524 . S
C1325 C1322 1.403 . S
C1325 C1326 1.392 . S
C1325 C1329 1.495 . S
C1326 C1325 1.392 . S
C1326 C1327 1.385 . S
C1326 C1328 1.478 . S
C1327 H1321 0.930 . S
C1327 C1323 1.400 . S
C1327 C1326 1.385 . S
C1328 C1326 1.478 . S
C1328 C1330 1.381 . S
C1328 C1334 1.383 . S
C1329 C1325 1.495 . S
C1329 H1335 0.959 . S
C1329 H1336 0.961 . S
C1329 H1337 0.960 . S
C1330 C1328 1.381 . S
C1330 C1331 1.394 . S
C1330 H1338 0.930 . S
C1331 C1330 1.394 . S
C1331 C1332 1.383 . S
C1331 H1339 0.929 . S
C1332 C1331 1.383 . S
C1332 C1333 1.377 . S
C1333 H1317 0.930 . S
C1333 C1332 1.377 . S
C1333 C1334 1.379 . S
C1334 H1318 0.931 . S
C1334 C1328 1.383 . S
C1334 C1333 1.379 . S
H1335 C1329 0.959 . S
H1336 C1329 0.961 . S
H1337 C1329 0.960 . S
H1338 C1330 0.930 . S
H1339 C1331 0.929 . S
H1340 C1348 0.929 . S
H1341 C1350 0.930 . S
H1342 C1352 0.930 . S
H1343 C1355 0.929 . S
H1344 C1358 0.930 . S
H1345 C1360 0.960 . S
H1346 C1360 0.960 . S
H1347 C1360 0.960 . S
C1348 H1340 0.929 . S
C1348 C1349 1.377 . S
C1348 C1350 1.384 . S
C1349 C1348 1.377 . S
C1349 C1355 1.390 . S
C1350 H1341 0.930 . S
C1350 C1348 1.384 . S
C1350 C1351 1.372 . S
C1351 C1350 1.372 . S
C1351 C1352 1.400 . S
C1351 C1356 1.490 . S
C1352 H1342 0.930 . S
C1352 C1351 1.400 . S
C1352 C1355 1.386 . S
H1353 C1369 0.930 . S
H1354 C1370 0.931 . S
C1355 H1343 0.929 . S
C1355 C1349 1.390 . S
C1355 C1352 1.386 . S
C1356 C1351 1.490 . S
C1356 C1358 1.395 . S
C1356 C1359 1.403 . S
H1357 C1363 0.930 . S
C1358 H1344 0.930 . S
C1358 C1356 1.395 . S
C1358 C1361 1.403 . S
C1359 C1356 1.403 . S
C1359 C1360 1.524 . S
C1359 C1363 1.400 . S
C1360 H1345 0.960 . S
C1360 H1346 0.960 . S
C1360 H1347 0.960 . S
C1360 C1359 1.524 . S
C1361 C1358 1.403 . S
C1361 C1362 1.392 . S
C1361 C1365 1.495 . S
C1362 C1361 1.392 . S
C1362 C1363 1.385 . S
C1362 C1364 1.478 . S
C1363 H1357 0.930 . S
C1363 C1359 1.400 . S
C1363 C1362 1.385 . S
C1364 C1362 1.478 . S
C1364 C1366 1.381 . S
C1364 C1370 1.383 . S
C1365 C1361 1.495 . S
C1365 H1371 0.959 . S
C1365 H1372 0.961 . S
C1365 H1373 0.960 . S
C1366 C1364 1.381 . S
C1366 C1367 1.394 . S
C1366 H1374 0.930 . S
C1367 C1366 1.394 . S
C1367 C1368 1.383 . S
C1367 H1375 0.929 . S
C1368 C1367 1.383 . S
C1368 C1369 1.377 . S
C1369 H1353 0.930 . S
C1369 C1368 1.377 . S
C1369 C1370 1.379 . S
C1370 H1354 0.931 . S
C1370 C1364 1.383 . S
C1370 C1369 1.379 . S
H1371 C1365 0.959 . S
H1372 C1365 0.961 . S
H1373 C1365 0.960 . S
H1374 C1366 0.930 . S
H1375 C1367 0.929 . S
C233 C8 1.125 . S
C252 C78 1.129 . S
C269 C64 1.126 . S
C288 C22 1.164 . S
C305 C36 1.129 . S
C324 C106 1.108 . S
C341 C92 1.124 . S
C360 C50 1.146 . S
C377 C190 1.124 . S
C396 C120 1.150 . S
C413 C176 1.138 . S
C432 C134 1.097 . S
C449 C218 1.133 . S
C468 C148 1.095 . S
C485 C162 1.138 . S
C504 C204 1.136 . S
C521 C23 1.509 . S
C540 C9 1.493 . S
C557 C37 1.515 . S
C576 C51 1.523 . S
C593 C65 1.512 . S
C612 C79 1.524 . S
C629 C93 1.512 . S
C648 C107 1.491 . S
C665 C121 1.511 . S
C684 C135 1.503 . S
C701 C163 1.511 . S
C720 C149 1.503 . S
C737 C191 1.510 . S
C756 C177 1.527 . S
C773 C205 1.513 . S
C792 C219 1.519 . S
C809 C132 1.553 . S
C828 C6 1.563 . S
C845 C20 1.557 . S
C864 C118 1.573 . S
C881 C160 1.561 . S
C900 C34 1.557 . S
C917 C48 1.559 . S
C936 C146 1.569 . S
C953 C62 1.559 . S
C972 C188 1.567 . S
C989 C174 1.555 . S
C1008 C76 1.538 . S
C1025 C90 1.561 . S
C1044 C216 1.573 . S
C1061 C202 1.553 . S
C1080 C104 1.537 . S
C1097 C7 1.312 . S
C1116 C35 1.321 . S
C1133 C49 1.312 . S
C1152 C21 1.320 . S
C1169 C91 1.316 . S
C1188 C63 1.322 . S
C1205 C105 1.312 . S
C1224 C77 1.300 . S
C1241 C147 1.315 . S
C1260 C119 1.301 . S
C1277 C133 1.316 . S
C1296 C161 1.301 . S
C1313 C203 1.316 . S
C1332 C175 1.322 . S
C1349 C189 1.316 . S
C1368 C217 1.317 . S
