# Generated by pormake.
# Topology wjd, (6)-cn, num edge types: 1
# Building blocks:
#     Node 0, Type 0, BuildingBlock: MIDCAF_clean_sbu_0, # of connection points: 6
#     Node 1, Type 0, BuildingBlock: MIDCAF_clean_sbu_0, # of connection points: 6
#     Node 2, Type 0, BuildingBlock: MIDCAF_clean_sbu_0, # of connection points: 6
#     Node 3, Type 0, BuildingBlock: MIDCAF_clean_sbu_0, # of connection points: 6
#     Node 4, Type 0, BuildingBlock: MIDCAF_clean_sbu_0, # of connection points: 6
#     Node 5, Type 0, BuildingBlock: MIDCAF_clean_sbu_0, # of connection points: 6
#     Node 6, Type 0, BuildingBlock: MIDCAF_clean_sbu_0, # of connection points: 6
#     Node 7, Type 0, BuildingBlock: MIDCAF_clean_sbu_0, # of connection points: 6
#     Node 8, Type 0, BuildingBlock: MIDCAF_clean_sbu_0, # of connection points: 6
#     Node 9, Type 0, BuildingBlock: MIDCAF_clean_sbu_0, # of connection points: 6
#     Node 10, Type 0, BuildingBlock: MIDCAF_clean_sbu_0, # of connection points: 6
#     Node 11, Type 0, BuildingBlock: MIDCAF_clean_sbu_0, # of connection points: 6
#     Edge 12, Type (0, 0), BuildingBlock: UVAHIK_clean_linker_0, # of connection points: 2
#     Edge 13, Type (0, 0), BuildingBlock: UVAHIK_clean_linker_0, # of connection points: 2
#     Edge 14, Type (0, 0), BuildingBlock: UVAHIK_clean_linker_0, # of connection points: 2
#     Edge 15, Type (0, 0), BuildingBlock: UVAHIK_clean_linker_0, # of connection points: 2
#     Edge 16, Type (0, 0), BuildingBlock: UVAHIK_clean_linker_0, # of connection points: 2
#     Edge 17, Type (0, 0), BuildingBlock: UVAHIK_clean_linker_0, # of connection points: 2
#     Edge 18, Type (0, 0), BuildingBlock: UVAHIK_clean_linker_0, # of connection points: 2
#     Edge 19, Type (0, 0), BuildingBlock: UVAHIK_clean_linker_0, # of connection points: 2
#     Edge 20, Type (0, 0), BuildingBlock: UVAHIK_clean_linker_0, # of connection points: 2
#     Edge 21, Type (0, 0), BuildingBlock: UVAHIK_clean_linker_0, # of connection points: 2
#     Edge 22, Type (0, 0), BuildingBlock: UVAHIK_clean_linker_0, # of connection points: 2
#     Edge 23, Type (0, 0), BuildingBlock: UVAHIK_clean_linker_0, # of connection points: 2
#     Edge 24, Type (0, 0), BuildingBlock: UVAHIK_clean_linker_0, # of connection points: 2
#     Edge 25, Type (0, 0), BuildingBlock: UVAHIK_clean_linker_0, # of connection points: 2
#     Edge 26, Type (0, 0), BuildingBlock: UVAHIK_clean_linker_0, # of connection points: 2
#     Edge 27, Type (0, 0), BuildingBlock: UVAHIK_clean_linker_0, # of connection points: 2
#     Edge 28, Type (0, 0), BuildingBlock: UVAHIK_clean_linker_0, # of connection points: 2
#     Edge 29, Type (0, 0), BuildingBlock: UVAHIK_clean_linker_0, # of connection points: 2
#     Edge 30, Type (0, 0), BuildingBlock: UVAHIK_clean_linker_0, # of connection points: 2
#     Edge 31, Type (0, 0), BuildingBlock: UVAHIK_clean_linker_0, # of connection points: 2
#     Edge 32, Type (0, 0), BuildingBlock: UVAHIK_clean_linker_0, # of connection points: 2
#     Edge 33, Type (0, 0), BuildingBlock: UVAHIK_clean_linker_0, # of connection points: 2
#     Edge 34, Type (0, 0), BuildingBlock: UVAHIK_clean_linker_0, # of connection points: 2
#     Edge 35, Type (0, 0), BuildingBlock: UVAHIK_clean_linker_0, # of connection points: 2
#     Edge 36, Type (0, 0), BuildingBlock: UVAHIK_clean_linker_0, # of connection points: 2
#     Edge 37, Type (0, 0), BuildingBlock: UVAHIK_clean_linker_0, # of connection points: 2
#     Edge 38, Type (0, 0), BuildingBlock: UVAHIK_clean_linker_0, # of connection points: 2
#     Edge 39, Type (0, 0), BuildingBlock: UVAHIK_clean_linker_0, # of connection points: 2
#     Edge 40, Type (0, 0), BuildingBlock: UVAHIK_clean_linker_0, # of connection points: 2
#     Edge 41, Type (0, 0), BuildingBlock: UVAHIK_clean_linker_0, # of connection points: 2
#     Edge 42, Type (0, 0), BuildingBlock: UVAHIK_clean_linker_0, # of connection points: 2
#     Edge 43, Type (0, 0), BuildingBlock: UVAHIK_clean_linker_0, # of connection points: 2
#     Edge 44, Type (0, 0), BuildingBlock: UVAHIK_clean_linker_0, # of connection points: 2
#     Edge 45, Type (0, 0), BuildingBlock: UVAHIK_clean_linker_0, # of connection points: 2
#     Edge 46, Type (0, 0), BuildingBlock: UVAHIK_clean_linker_0, # of connection points: 2
#     Edge 47, Type (0, 0), BuildingBlock: UVAHIK_clean_linker_0, # of connection points: 2
# Relax obj value: 0.343
# Max RMSD: 0.250
# Mean RMSD: 0.250
data_MOF--net-wjd--node1-MIDCAF_clean_sbu_0--edge1-UVAHIK_clean_linker_0
_symmetry_space_group_name_H-M    P1
_symmetry_Int_Tables_number       1
_symmetry_cell_setting            triclinic
loop_
_symmetry_equiv_pos_as_xyz
'x, y, z'
_cell_length_a     35.729159
_cell_length_b     35.624723
_cell_length_c     76.834033
_cell_angle_alpha  89.961794
_cell_angle_beta   89.967193
_cell_angle_gamma 119.90481
loop_
_atom_site_label
_atom_site_type_symbol
_atom_site_fract_x
_atom_site_fract_y
_atom_site_fract_z
_atom_type_partial_charge
Zn0 Zn 0.23641 0.04583 0.16208 0.0
Zn1 Zn 0.40928 0.12705 0.10087 0.0
Zn2 Zn 0.35296 0.0981 0.12386 0.0
C3 C 0.4174 0.19357 0.12441 0.0
C4 C 0.41323 0.06169 0.12175 0.0
O5 O 0.32886 0.03059 0.13105 0.0
O6 O 0.28654 0.04266 0.14765 0.0
C7 C 0.26723 0.09038 0.1239 0.0
O8 O 0.39592 0.16152 0.13474 0.0
O9 O 0.42379 0.1867 0.10882 0.0
O10 O 0.4351 0.09438 0.11214 0.0
O11 O 0.37484 0.05163 0.12638 0.0
O12 O 0.26816 0.07196 0.13804 0.0
O13 O 0.29766 0.09922 0.11303 0.0
O14 O 0.3683 0.13565 0.14833 0.0
O15 O 0.30126 0.0888 0.1539 0.0
C16 C 0.33765 0.11891 0.15952 0.0
O17 O 0.32019 0.09582 0.09915 0.0
O18 O 0.36984 0.10121 0.08059 0.0
C19 C 0.29385 0.01516 0.13991 0.0
C20 C 0.33176 0.09305 0.08357 0.0
Zn21 Zn 0.72782 0.62446 0.40138 0.0
Zn22 Zn 0.77974 0.72446 0.35535 0.0
Zn23 Zn 0.75542 0.67618 0.37872 0.0
C24 C 0.75227 0.64998 0.33973 0.0
C25 C 0.84825 0.73745 0.37773 0.0
O26 O 0.7896 0.71083 0.40304 0.0
O27 O 0.73503 0.66633 0.41969 0.0
C28 C 0.65857 0.61322 0.3816 0.0
O29 O 0.76497 0.64548 0.3549 0.0
O30 O 0.74562 0.6811 0.33709 0.0
O31 O 0.83909 0.73525 0.36171 0.0
O32 O 0.81767 0.72471 0.38901 0.0
O33 O 0.67091 0.59102 0.39009 0.0
O34 O 0.68558 0.65319 0.37811 0.0
O35 O 0.77063 0.62732 0.36985 0.0
O36 O 0.77444 0.61022 0.39704 0.0
C37 C 0.78412 0.61034 0.38121 0.0
O38 O 0.70851 0.69922 0.37706 0.0
O39 O 0.75807 0.76062 0.36546 0.0
C40 C 0.76927 0.70209 0.41769 0.0
C41 C 0.72278 0.73945 0.37349 0.0
Zn42 Zn 0.94408 0.21624 0.1545 0.0
Zn43 Zn 0.87722 0.2905 0.09431 0.0
Zn44 Zn 0.92393 0.24072 0.13004 0.0
C45 C 0.82606 0.23812 0.12603 0.0
C46 C 0.95248 0.32433 0.11954 0.0
O47 O 0.99344 0.28853 0.13391 0.0
O48 O 0.00513 0.24155 0.14801 0.0
C49 C 0.89743 0.14746 0.13115 0.0
O50 O 0.85752 0.23371 0.13228 0.0
O51 O 0.82866 0.25823 0.11182 0.0
O52 O 0.9278 0.29779 0.10823 0.0
O53 O 0.97109 0.30993 0.12944 0.0
O54 O 0.9007 0.15513 0.14733 0.0
O55 O 0.91517 0.17944 0.1205 0.0
O56 O 0.87657 0.22978 0.15066 0.0
O57 O 0.9271 0.24889 0.17049 0.0
C58 C 0.89021 0.24224 0.16625 0.0
O59 O 0.92515 0.20797 0.10607 0.0
O60 O 0.90225 0.2504 0.09757 0.0
C61 C 0.01973 0.27651 0.13961 0.0
C62 C 0.91683 0.22576 0.09338 0.0
Zn63 Zn 0.40017 0.12517 0.40072 0.0
Zn64 Zn 0.27928 0.07314 0.36472 0.0
Zn65 Zn 0.33919 0.09538 0.38179 0.0
C66 C 0.34508 0.10939 0.34222 0.0
C67 C 0.27654 0.12733 0.38853 0.0
O68 O 0.31467 0.0966 0.40829 0.0
O69 O 0.36637 0.09088 0.4214 0.0
C70 C 0.40164 0.06277 0.37905 0.0
O71 O 0.36043 0.13079 0.35645 0.0
O72 O 0.30924 0.07473 0.34263 0.0
O73 O 0.27173 0.12281 0.37224 0.0
O74 O 0.29562 0.11005 0.39668 0.0
O75 O 0.42682 0.09956 0.38548 0.0
O76 O 0.36065 0.04795 0.37921 0.0
O77 O 0.38282 0.15843 0.36995 0.0
O78 O 0.40931 0.18474 0.39582 0.0
C79 C 0.40309 0.19114 0.38015 0.0
O80 O 0.31461 0.02536 0.37935 0.0
O81 O 0.24988 0.01841 0.37805 0.0
C82 C 0.32926 0.08687 0.42187 0.0
C83 C 0.27339 0.00202 0.38112 0.0
Zn84 Zn 0.73622 0.61566 0.10822 0.0
Zn85 Zn 0.78899 0.7299 0.14791 0.0
Zn86 Zn 0.76706 0.67591 0.12591 0.0
C87 C 0.77267 0.65753 0.16549 0.0
C88 C 0.85664 0.75382 0.12357 0.0
O89 O 0.79525 0.70426 0.1 0.0
O90 O 0.7377 0.65055 0.08795 0.0
C91 C 0.67057 0.61017 0.12802 0.0
O92 O 0.78037 0.64925 0.14997 0.0
O93 O 0.76837 0.6901 0.1681 0.0
O94 O 0.84997 0.75689 0.13955 0.0
O95 O 0.8253 0.72723 0.11384 0.0
O96 O 0.68245 0.58486 0.122 0.0
O97 O 0.69682 0.65127 0.12775 0.0
O98 O 0.78587 0.62852 0.13587 0.0
O99 O 0.77862 0.59605 0.11072 0.0
C100 C 0.79249 0.60283 0.12617 0.0
O101 O 0.71683 0.69573 0.12686 0.0
O102 O 0.75624 0.75768 0.14054 0.0
C103 C 0.76982 0.68831 0.0868 0.0
C104 C 0.72364 0.73348 0.13146 0.0
Zn105 Zn 0.87765 0.26728 0.40339 0.0
Zn106 Zn 0.96489 0.20998 0.3387 0.0
Zn107 Zn 0.91278 0.24187 0.3814 0.0
C108 C 0.89189 0.22742 0.34259 0.0
C109 C 0.91334 0.1562 0.36508 0.0
O110 O 0.91903 0.21618 0.40614 0.0
O111 O 0.90777 0.25887 0.42344 0.0
C112 C 0.93575 0.33811 0.38231 0.0
O113 O 0.87353 0.21775 0.35767 0.0
O114 O 0.93308 0.24712 0.34154 0.0
O115 O 0.93215 0.15138 0.35194 0.0
O116 O 0.92138 0.19435 0.36863 0.0
O117 O 0.90311 0.32567 0.39203 0.0
O118 O 0.94913 0.31202 0.37816 0.0
O119 O 0.84667 0.21756 0.37217 0.0
O120 O 0.81801 0.22032 0.39719 0.0
C121 C 0.81331 0.20687 0.38168 0.0
O122 O 0.97825 0.29512 0.37674 0.0
O123 O 0.97441 0.2643 0.35224 0.0
C124 C 0.92026 0.23172 0.42127 0.0
C125 C 0.99686 0.283 0.36566 0.0
Zn126 Zn 0.12141 0.42018 0.59686 0.0
Zn127 Zn 0.05675 0.27401 0.65386 0.0
Zn128 Zn 0.07674 0.31953 0.62924 0.0
C129 C 0.10826 0.35589 0.66531 0.0
C130 C 0.1072 0.25642 0.63021 0.0
O131 O 0.08008 0.29035 0.60494 0.0
O132 O 0.10046 0.35416 0.59348 0.0
C133 C 0.0436 0.37019 0.61716 0.0
O134 O 0.12262 0.35782 0.64983 0.0
O135 O 0.07241 0.32392 0.66961 0.0
O136 O 0.10262 0.26 0.64635 0.0
O137 O 0.08876 0.26935 0.61932 0.0
O138 O 0.06923 0.36935 0.60612 0.0
O139 O 0.02768 0.33864 0.62784 0.0
O140 O 0.14134 0.37912 0.63084 0.0
O141 O 0.16992 0.43933 0.61415 0.0
C142 C 0.17254 0.4172 0.62669 0.0
O143 O 0.00709 0.29609 0.63315 0.0
O144 O 0.9957 0.23718 0.64698 0.0
C145 C 0.08775 0.31412 0.5914 0.0
C146 C 0.98099 0.25767 0.63873 0.0
Zn147 Zn 0.28256 0.88463 0.90435 0.0
Zn148 Zn 0.22075 0.93609 0.8586 0.0
Zn149 Zn 0.25196 0.91074 0.8814 0.0
C150 C 0.23864 0.88053 0.84146 0.0
C151 C 0.15933 0.89635 0.88476 0.0
O152 O 0.22001 0.90804 0.90679 0.0
O153 O 0.26765 0.90731 0.92493 0.0
C154 C 0.35084 0.94845 0.88439 0.0
O155 O 0.24025 0.87028 0.85746 0.0
O156 O 0.23469 0.91293 0.83795 0.0
O157 O 0.16167 0.90458 0.86868 0.0
O158 O 0.19283 0.902 0.89315 0.0
O159 O 0.34129 0.91642 0.89418 0.0
O160 O 0.32148 0.9575 0.87993 0.0
O161 O 0.23669 0.84617 0.87209 0.0
O162 O 0.24255 0.82289 0.89796 0.0
C163 C 0.22903 0.81469 0.88246 0.0
O164 O 0.29842 0.98119 0.87919 0.0
O165 O 0.25553 0.99767 0.86445 0.0
C166 C 0.23495 0.9113 0.92233 0.0
C167 C 0.28885 0.00955 0.8736 0.0
Zn168 Zn 0.59516 0.72417 0.60814 0.0
Zn169 Zn 0.76343 0.82152 0.65585 0.0
Zn170 Zn 0.6584 0.75113 0.62496 0.0
C171 C 0.67521 0.80233 0.66614 0.0
C172 C 0.73495 0.82708 0.61886 0.0
O173 O 0.67759 0.77332 0.59751 0.0
O174 O 0.62082 0.71832 0.58567 0.0
C175 C 0.59134 0.65857 0.62924 0.0
O176 O 0.6591 0.78046 0.65181 0.0
O177 O 0.71569 0.82237 0.66962 0.0
O178 O 0.73766 0.8078 0.63215 0.0
O179 O 0.70435 0.80344 0.60851 0.0
O180 O 0.56755 0.67332 0.62416 0.0
O181 O 0.63241 0.68149 0.62752 0.0
O182 O 0.62337 0.77627 0.63896 0.0
O183 O 0.5942 0.77873 0.61413 0.0
C184 C 0.60402 0.79135 0.6297 0.0
O185 O 0.67978 0.70472 0.62989 0.0
O186 O 0.72266 0.76321 0.64366 0.0
C187 C 0.65911 0.74918 0.58418 0.0
C188 C 0.71547 0.72687 0.63788 0.0
Zn189 Zn 0.05528 0.26882 0.85919 0.0
Zn190 Zn 0.117 0.38156 0.9012 0.0
Zn191 Zn 0.08337 0.32364 0.88056 0.0
C192 C 0.18004 0.39686 0.87787 0.0
C193 C 0.05213 0.38953 0.88433 0.0
O194 O 0.01404 0.30325 0.87974 0.0
O195 O 0.99772 0.23865 0.86999 0.0
C196 C 0.11125 0.25764 0.88201 0.0
O197 O 0.14606 0.37074 0.86922 0.0
O198 O 0.17726 0.40335 0.89385 0.0
O199 O 0.08785 0.41178 0.89194 0.0
O200 O 0.0386 0.34946 0.88074 0.0
O201 O 0.1014 0.2549 0.86607 0.0
O202 O 0.09731 0.27609 0.89251 0.0
O203 O 0.11965 0.34848 0.85531 0.0
O204 O 0.06432 0.30634 0.83866 0.0
C205 C 0.10118 0.33933 0.84025 0.0
O206 O 0.08297 0.29197 0.90601 0.0
O207 O 0.09228 0.34685 0.92234 0.0
C208 C 0.98607 0.26312 0.87707 0.0
C209 C 0.08094 0.30733 0.921 0.0
Zn210 Zn 0.27299 0.88125 0.60413 0.0
Zn211 Zn 0.22853 0.94286 0.65011 0.0
Zn212 Zn 0.24518 0.91015 0.62661 0.0
C213 C 0.24614 0.88744 0.66627 0.0
C214 C 0.1554 0.89824 0.62878 0.0
O215 O 0.20865 0.9072 0.60255 0.0
O216 O 0.25114 0.8987 0.584 0.0
C217 C 0.34494 0.94703 0.62082 0.0
O218 O 0.23491 0.87116 0.65088 0.0
O219 O 0.25344 0.92531 0.66917 0.0
O220 O 0.16568 0.90763 0.64459 0.0
O221 O 0.18465 0.90393 0.61764 0.0
O222 O 0.33447 0.91515 0.61087 0.0
O223 O 0.31578 0.95524 0.62647 0.0
O224 O 0.22982 0.84548 0.63639 0.0
O225 O 0.24047 0.8201 0.61185 0.0
C226 C 0.2266 0.81361 0.6273 0.0
O227 O 0.295 0.98042 0.62661 0.0
O228 O 0.25838 0.00304 0.64225 0.0
C229 C 0.2206 0.90612 0.5868 0.0
C230 C 0.28891 0.01134 0.63191 0.0
Zn231 Zn 0.57481 0.72186 0.90759 0.0
Zn232 Zn 0.74818 0.79185 0.8503 0.0
Zn233 Zn 0.67092 0.75288 0.8804 0.0
C234 C 0.6637 0.77373 0.83862 0.0
C235 C 0.74792 0.84519 0.88279 0.0
O236 O 0.69275 0.78679 0.90568 0.0
O237 O 0.63268 0.75334 0.92189 0.0
C238 C 0.61591 0.67386 0.89545 0.0
O239 O 0.6499 0.76331 0.85444 0.0
O240 O 0.70254 0.78659 0.83431 0.0
O241 O 0.75888 0.83994 0.86766 0.0
O242 O 0.71958 0.81291 0.89169 0.0
O243 O 0.61834 0.70435 0.90446 0.0
O244 O 0.64772 0.68471 0.88537 0.0
O245 O 0.62285 0.76619 0.86839 0.0
O246 O 0.57028 0.7558 0.88727 0.0
C247 C 0.5896 0.76937 0.87276 0.0
O248 O 0.68952 0.70364 0.87879 0.0
O249 O 0.71641 0.72682 0.85354 0.0
C250 C 0.67368 0.77773 0.92066 0.0
C251 C 0.71736 0.70844 0.86736 0.0
C252 C 0.06922 0.28682 0.1156 0.0
C253 C 0.06411 0.29499 0.13309 0.0
C254 C 0.10078 0.27615 0.11105 0.0
C255 C 0.12369 0.2044 0.12968 0.0
H256 H 0.22938 0.23862 0.1041 0.0
C257 C 0.21445 0.11023 0.13581 0.0
C258 C 0.23807 0.10828 0.12159 0.0
C259 C 0.19432 0.13517 0.13493 0.0
C260 C 0.19942 0.22828 0.11104 0.0
H261 H 0.09243 0.30641 0.15876 0.0
H262 H 0.14811 0.28909 0.15073 0.0
H263 H 0.2002 0.28814 0.10578 0.0
H264 H 0.25713 0.12907 0.09491 0.0
H265 H 0.22056 0.17141 0.09315 0.0
H266 H 0.12166 0.14456 0.13477 0.0
C267 C 0.12754 0.2902 0.14062 0.0
C268 C 0.18308 0.25682 0.11209 0.0
C269 C 0.09594 0.30057 0.14517 0.0
C270 C 0.23909 0.12988 0.10611 0.0
C271 C 0.21862 0.15463 0.10517 0.0
C272 C 0.13957 0.17585 0.12849 0.0
C273 C 0.12785 0.27456 0.1239 0.0
C274 C 0.14551 0.24522 0.1217 0.0
C275 C 0.19683 0.15843 0.11972 0.0
C276 C 0.17809 0.18762 0.11946 0.0
H277 H 0.04471 0.28169 0.1061 0.0
H278 H 0.1003 0.26389 0.0981 0.0
H279 H 0.09423 0.19463 0.13695 0.0
H280 H 0.21351 0.09454 0.148 0.0
H281 H 0.17844 0.13772 0.1465 0.0
C282 C 0.2361 0.92421 0.37433 0.0
C283 C 0.25093 0.9568 0.38698 0.0
C284 C 0.19593 0.88654 0.37636 0.0
C285 C 0.09756 0.83175 0.40537 0.0
H286 H 0.03948 0.82415 0.36185 0.0
C287 C 0.91283 0.77342 0.39787 0.0
C288 C 0.89324 0.75068 0.38252 0.0
C289 C 0.95731 0.78991 0.40059 0.0
C290 C 0.05504 0.82513 0.37407 0.0
H291 H 0.23852 0.97333 0.41256 0.0
H292 H 0.16923 0.90821 0.41625 0.0
H293 H 0.11733 0.86346 0.36286 0.0
H294 H 0.90346 0.72343 0.35896 0.0
H295 H 0.9797 0.75097 0.36385 0.0
H296 H 0.03418 0.79456 0.4166 0.0
C297 C 0.18803 0.91091 0.40478 0.0
C298 C 0.09999 0.84752 0.37463 0.0
C299 C 0.22829 0.94824 0.40278 0.0
C300 C 0.91791 0.74194 0.37069 0.0
C301 C 0.96171 0.75776 0.37348 0.0
C302 C 0.0522 0.80926 0.4048 0.0
C303 C 0.16983 0.88133 0.39098 0.0
C304 C 0.12208 0.85156 0.39028 0.0
C305 C 0.98243 0.78336 0.38809 0.0
C306 C 0.03046 0.80592 0.38913 0.0
H307 H 0.25259 0.93026 0.36193 0.0
H308 H 0.1835 0.86368 0.3657 0.0
H309 H 0.1134 0.83417 0.41766 0.0
H310 H 0.89438 0.78021 0.40727 0.0
H311 H 0.97235 0.80946 0.41202 0.0
C312 C 0.83958 0.07174 0.13692 0.0
C313 C 0.86874 0.10255 0.12507 0.0
C314 C 0.81043 0.02979 0.13156 0.0
C315 C 0.79639 0.94738 0.10087 0.0
H316 H 0.6804 0.88845 0.12002 0.0
C317 C 0.7101 0.76553 0.10563 0.0
C318 C 0.70138 0.7542 0.12329 0.0
C319 C 0.71456 0.80475 0.09966 0.0
C320 C 0.71247 0.90438 0.11439 0.0
H321 H 0.89003 0.11334 0.09818 0.0
H322 H 0.83955 0.03864 0.08887 0.0
H323 H 0.72381 0.96725 0.12167 0.0
H324 H 0.6832 0.77055 0.14772 0.0
H325 H 0.68938 0.83767 0.13738 0.0
H326 H 0.78659 0.88464 0.09478 0.0
C327 C 0.83919 0.04765 0.1023 0.0
C328 C 0.73735 0.94952 0.11534 0.0
C329 C 0.86812 0.09024 0.10763 0.0
C330 C 0.6896 0.77844 0.13402 0.0
C331 C 0.69362 0.81732 0.12805 0.0
C332 C 0.77161 0.90219 0.10001 0.0
C333 C 0.8098 0.01714 0.11423 0.0
C334 C 0.78026 0.97127 0.10933 0.0
C335 C 0.70973 0.83267 0.11124 0.0
C336 C 0.73009 0.87997 0.10752 0.0
H337 H 0.83878 0.08008 0.15042 0.0
H338 H 0.78886 0.00688 0.14115 0.0
H339 H 0.82938 0.96321 0.09619 0.0
H340 H 0.71974 0.74759 0.09712 0.0
H341 H 0.726 0.81513 0.08651 0.0
C342 C 0.2812 0.19741 0.39421 0.0
C343 C 0.26044 0.15278 0.39743 0.0
C344 C 0.25902 0.22005 0.39646 0.0
C345 C 0.18739 0.23168 0.38126 0.0
H346 H 0.10916 0.23247 0.41607 0.0
C347 C 0.04402 0.24999 0.3614 0.0
C348 C 0.03185 0.27486 0.37157 0.0
C349 C 0.07467 0.23975 0.36735 0.0
C350 C 0.13121 0.23292 0.40629 0.0
H351 H 0.20206 0.09721 0.40685 0.0
H352 H 0.16299 0.13695 0.41091 0.0
H353 H 0.16023 0.20788 0.42399 0.0
H354 H 0.04449 0.31051 0.39579 0.0
H355 H 0.10016 0.29444 0.40582 0.0
H356 H 0.15827 0.25526 0.3634 0.0
C357 C 0.19653 0.15457 0.40691 0.0
C358 C 0.16021 0.21872 0.41082 0.0
C359 C 0.21882 0.13186 0.40463 0.0
C360 C 0.05262 0.29073 0.38768 0.0
C361 C 0.08426 0.28128 0.39351 0.0
C362 C 0.15839 0.24536 0.37673 0.0
C363 C 0.21565 0.19822 0.40184 0.0
C364 C 0.18822 0.21764 0.39825 0.0
C365 C 0.09553 0.25554 0.38338 0.0
C366 C 0.12928 0.24532 0.38904 0.0
H367 H 0.31313 0.2139 0.38842 0.0
H368 H 0.27443 0.25371 0.39251 0.0
H369 H 0.20814 0.2305 0.37124 0.0
H370 H 0.03021 0.23826 0.34875 0.0
H371 H 0.08197 0.21925 0.35931 0.0
C372 C 0.25032 0.95358 0.11979 0.0
C373 C 0.25695 0.9714 0.13661 0.0
C374 C 0.20886 0.92198 0.11446 0.0
C375 C 0.10974 0.9088 0.11473 0.0
H376 H 0.04047 0.78368 0.11749 0.0
C377 C 0.92791 0.82055 0.12465 0.0
C378 C 0.90134 0.7798 0.11714 0.0
C379 C 0.97246 0.84186 0.12228 0.0
C380 C 0.0596 0.81856 0.11624 0.0
H381 H 0.22667 0.96693 0.16154 0.0
H382 H 0.1547 0.91107 0.15234 0.0
H383 H 0.11837 0.81971 0.12358 0.0
H384 H 0.90016 0.73013 0.10056 0.0
H385 H 0.97903 0.7677 0.09639 0.0
H386 H 0.05133 0.90838 0.10824 0.0
C387 C 0.18139 0.92176 0.14329 0.0
C388 C 0.10401 0.83905 0.11982 0.0
C389 C 0.22258 0.95356 0.14856 0.0
C390 C 0.91998 0.76179 0.10631 0.0
C391 C 0.96503 0.78302 0.10411 0.0
C392 C 0.06558 0.88849 0.11123 0.0
C393 C 0.17387 0.90729 0.126 0.0
C394 C 0.12904 0.88436 0.11949 0.0
C395 C 0.99178 0.82284 0.11245 0.0
C396 C 0.03968 0.84323 0.1125 0.0
H397 H 0.27599 0.96719 0.11021 0.0
H398 H 0.20355 0.91155 0.10101 0.0
H399 H 0.12857 0.94386 0.11448 0.0
H400 H 0.91437 0.83503 0.13314 0.0
H401 H 0.99197 0.87213 0.12909 0.0
C402 C 0.7296 0.79033 0.39605 0.0
C403 C 0.70609 0.76526 0.38175 0.0
C404 C 0.73404 0.83101 0.39899 0.0
C405 C 0.73718 0.91629 0.37086 0.0
H406 H 0.78632 0.9855 0.41236 0.0
C407 C 0.83551 0.1016 0.36673 0.0
C408 C 0.87748 0.11784 0.37323 0.0
C409 C 0.80288 0.05985 0.37119 0.0
C410 C 0.77232 0.96655 0.4007 0.0
H411 H 0.6647 0.76071 0.36042 0.0
H412 H 0.66961 0.83049 0.36619 0.0
H413 H 0.74347 0.90672 0.41478 0.0
H414 H 0.91826 0.10483 0.38996 0.0
H415 H 0.86099 0.03211 0.3982 0.0
H416 H 0.76667 0.97609 0.3568 0.0
C417 C 0.68614 0.81959 0.37485 0.0
C418 C 0.74788 0.92133 0.40204 0.0
C419 C 0.68232 0.77901 0.37177 0.0
C420 C 0.88587 0.09302 0.38505 0.0
C421 C 0.85309 0.05151 0.38974 0.0
C422 C 0.76089 0.9614 0.36959 0.0
C423 C 0.71484 0.84756 0.38764 0.0
C424 C 0.73142 0.89537 0.38703 0.0
C425 C 0.81167 0.03387 0.38234 0.0
C426 C 0.78003 0.98695 0.3844 0.0
H427 H 0.74993 0.78149 0.40337 0.0
H428 H 0.75668 0.85114 0.4089 0.0
H429 H 0.72605 0.89797 0.3589 0.0
H430 H 0.82863 0.12013 0.35737 0.0
H431 H 0.77128 0.04717 0.36534 0.0
C432 C 0.28841 0.0549 0.60744 0.0
C433 C 0.30793 0.05354 0.62311 0.0
C434 C 0.2819 0.08978 0.60383 0.0
C435 C 0.26542 0.16443 0.63159 0.0
H436 H 0.2276 0.19234 0.58868 0.0
C437 C 0.17756 0.26019 0.6344 0.0
C438 C 0.13934 0.24426 0.6247 0.0
C439 C 0.20704 0.24636 0.631 0.0
C440 C 0.23797 0.18472 0.60076 0.0
H441 H 0.34321 0.09075 0.64556 0.0
H442 H 0.33629 0.15363 0.6384 0.0
H443 H 0.27021 0.15568 0.58759 0.0
H444 H 0.103 0.20326 0.60314 0.0
H445 H 0.15415 0.17721 0.59754 0.0
H446 H 0.23249 0.19197 0.64482 0.0
C447 C 0.32299 0.12654 0.62946 0.0
C448 C 0.26252 0.16382 0.60016 0.0
C449 C 0.32811 0.09099 0.63337 0.0
C450 C 0.13218 0.21578 0.61085 0.0
C451 C 0.16157 0.20115 0.60762 0.0
C452 C 0.24128 0.18532 0.63217 0.0
C453 C 0.29612 0.1245 0.61562 0.0
C454 C 0.27612 0.15281 0.61562 0.0
C455 C 0.19874 0.21537 0.61805 0.0
C456 C 0.22673 0.19535 0.61682 0.0
H457 H 0.27229 0.02623 0.5994 0.0
H458 H 0.26149 0.08687 0.59291 0.0
H459 H 0.27368 0.15545 0.64386 0.0
H460 H 0.1844 0.28301 0.6449 0.0
H461 H 0.23585 0.25906 0.63894 0.0
C462 C 0.09317 0.89834 0.89151 0.0
C463 C 0.11695 0.87703 0.89305 0.0
C464 C 0.0485 0.87531 0.89333 0.0
C465 C 0.95133 0.77308 0.90444 0.0
H466 H 0.9087 0.7991 0.86228 0.0
C467 C 0.77363 0.68907 0.87468 0.0
C468 C 0.75996 0.71973 0.87405 0.0
C469 C 0.81615 0.70186 0.87952 0.0
C470 C 0.92027 0.79131 0.87401 0.0
H471 H 0.11417 0.81635 0.89912 0.0
H472 H 0.03519 0.77543 0.90204 0.0
H473 H 0.98598 0.8359 0.86785 0.0
H474 H 0.77803 0.78628 0.87888 0.0
H475 H 0.85241 0.80917 0.88663 0.0
H476 H 0.88463 0.72871 0.91053 0.0
C477 C 0.05116 0.81001 0.89973 0.0
C478 C 0.9643 0.8126 0.87731 0.0
C479 C 0.09619 0.83337 0.89814 0.0
C480 C 0.78829 0.76256 0.87896 0.0
C481 C 0.83056 0.77544 0.88352 0.0
C482 C 0.90684 0.75156 0.90109 0.0
C483 C 0.02696 0.83042 0.8963 0.0
C484 C 0.98019 0.80476 0.89278 0.0
C485 C 0.84499 0.74541 0.88354 0.0
C486 C 0.89123 0.76149 0.88604 0.0
H487 H 0.10875 0.93198 0.8875 0.0
H488 H 0.03049 0.89187 0.89096 0.0
H489 H 0.963 0.76624 0.91635 0.0
H490 H 0.75192 0.65577 0.87097 0.0
H491 H 0.82699 0.67838 0.87941 0.0
C492 C 0.75307 0.89559 0.60282 0.0
C493 C 0.75782 0.8749 0.61756 0.0
C494 C 0.77151 0.94073 0.6024 0.0
C495 C 0.85418 0.0396 0.62506 0.0
H496 H 0.79356 0.09462 0.60526 0.0
C497 C 0.90433 0.20658 0.6444 0.0
C498 C 0.93649 0.23248 0.63237 0.0
C499 C 0.87057 0.16612 0.63942 0.0
C500 C 0.81063 0.07942 0.61076 0.0
H501 H 0.78535 0.88583 0.64347 0.0
H502 H 0.81569 0.96315 0.64305 0.0
H503 H 0.76203 0.01556 0.60299 0.0
H504 H 0.95529 0.23991 0.60525 0.0
H505 H 0.89641 0.16878 0.59658 0.0
H506 H 0.90189 0.10291 0.6333 0.0
C507 C 0.79913 0.94505 0.63151 0.0
C508 C 0.79292 0.03439 0.60938 0.0
C509 C 0.78141 0.9003 0.6318 0.0
C510 C 0.93047 0.22074 0.61471 0.0
C511 C 0.8969 0.17991 0.60974 0.0
C512 C 0.87141 0.08408 0.62658 0.0
C513 C 0.79464 0.96598 0.6168 0.0
C514 C 0.81425 0.01393 0.6168 0.0
C515 C 0.86884 0.15121 0.62238 0.0
C516 C 0.8496 0.10425 0.61967 0.0
H517 H 0.73463 0.87692 0.5917 0.0
H518 H 0.76771 0.95579 0.5908 0.0
H519 H 0.87217 0.02533 0.6305 0.0
H520 H 0.90861 0.21482 0.65811 0.0
H521 H 0.84938 0.14429 0.64937 0.0
C522 C 0.17063 0.24328 0.87484 0.0
C523 C 0.142 0.24325 0.88741 0.0
C524 C 0.19905 0.22848 0.87883 0.0
C525 C 0.21106 0.15257 0.90651 0.0
H526 H 0.32416 0.20621 0.88477 0.0
C527 C 0.29883 0.05602 0.89895 0.0
C528 C 0.30718 0.05314 0.88127 0.0
C529 C 0.29177 0.08932 0.9048 0.0
C530 C 0.29286 0.19092 0.89107 0.0
H531 H 0.1216 0.22858 0.91429 0.0
H532 H 0.1712 0.20123 0.92129 0.0
H533 H 0.28405 0.24506 0.88583 0.0
H534 H 0.32024 0.08569 0.8564 0.0
H535 H 0.31021 0.14461 0.8666 0.0
H536 H 0.21883 0.09746 0.9109 0.0
C537 C 0.17149 0.21317 0.9083 0.0
C538 C 0.26982 0.21317 0.89167 0.0
C539 C 0.14321 0.22885 0.90434 0.0
C540 C 0.31467 0.08752 0.87016 0.0
C541 C 0.30832 0.12111 0.87603 0.0
C542 C 0.23417 0.13026 0.90592 0.0
C543 C 0.19969 0.21278 0.89552 0.0
C544 C 0.22784 0.19352 0.8987 0.0
C545 C 0.29392 0.12081 0.89311 0.0
C546 C 0.27461 0.14844 0.89753 0.0
H547 H 0.17101 0.25462 0.86172 0.0
H548 H 0.21964 0.22805 0.86857 0.0
H549 H 0.17878 0.13639 0.91194 0.0
H550 H 0.29214 0.02959 0.90774 0.0
H551 H 0.2814 0.08849 0.91811 0.0
C552 C 0.0818 0.88447 0.63541 0.0
C553 C 0.10939 0.87899 0.624 0.0
C554 C 0.03744 0.86225 0.63282 0.0
C555 C 0.94926 0.76321 0.61577 0.0
H556 H 0.88613 0.82327 0.62558 0.0
C557 C 0.76041 0.70578 0.62016 0.0
C558 C 0.75171 0.71847 0.63631 0.0
C559 C 0.80256 0.7154 0.61605 0.0
C560 C 0.90331 0.80612 0.62266 0.0
H561 H 0.11213 0.84662 0.60055 0.0
H562 H 0.0333 0.80713 0.59596 0.0
H563 H 0.96384 0.8648 0.62091 0.0
H564 H 0.77828 0.74583 0.6615 0.0
H565 H 0.85128 0.76157 0.65449 0.0
H566 H 0.88798 0.70424 0.61813 0.0
C567 C 0.04663 0.82885 0.60695 0.0
C568 C 0.9477 0.82982 0.61996 0.0
C569 C 0.0916 0.85167 0.60949 0.0
C570 C 0.78415 0.73557 0.64902 0.0
C571 C 0.82592 0.74479 0.64498 0.0
C572 C 0.90437 0.73928 0.61839 0.0
C573 C 0.01919 0.8338 0.61872 0.0
C574 C 0.97146 0.80867 0.61723 0.0
C575 C 0.83596 0.73726 0.62814 0.0
C576 C 0.88154 0.76072 0.62252 0.0
H577 H 0.09438 0.9052 0.64673 0.0
H578 H 0.0172 0.86629 0.64227 0.0
H579 H 0.96686 0.74611 0.61374 0.0
H580 H 0.73607 0.69315 0.61005 0.0
H581 H 0.80975 0.7096 0.60296 0.0
C582 C 0.90787 0.21663 0.87334 0.0
C583 C 0.94243 0.24157 0.88458 0.0
C584 C 0.87307 0.17738 0.879 0.0
C585 C 0.86312 0.09329 0.9089 0.0
H586 H 0.75301 0.02691 0.88562 0.0
C587 C 0.76922 0.90403 0.90549 0.0
C588 C 0.76176 0.89021 0.88809 0.0
C589 C 0.78243 0.94737 0.90963 0.0
C590 C 0.78345 0.04507 0.89242 0.0
H591 H 0.96497 0.24816 0.91102 0.0
H592 H 0.90357 0.18066 0.92125 0.0
H593 H 0.78877 0.10591 0.88571 0.0
H594 H 0.75986 0.91015 0.86153 0.0
H595 H 0.78179 0.98447 0.86874 0.0
H596 H 0.85854 0.03232 0.91489 0.0
C597 C 0.90361 0.19069 0.90793 0.0
C598 C 0.80401 0.09033 0.89243 0.0
C599 C 0.93836 0.23005 0.90222 0.0
C600 C 0.76615 0.91991 0.87506 0.0
C601 C 0.77815 0.96246 0.87919 0.0
C602 C 0.84234 0.048 0.909 0.0
C603 C 0.87231 0.16234 0.89603 0.0
C604 C 0.84508 0.11514 0.89998 0.0
C605 C 0.7868 0.9769 0.89647 0.0
C606 C 0.80324 0.02352 0.9001 0.0
H607 H 0.91056 0.22444 0.8596 0.0
H608 H 0.8497 0.15673 0.86939 0.0
H609 H 0.89494 0.11105 0.91465 0.0
H610 H 0.76571 0.88172 0.91578 0.0
H611 H 0.7891 0.95781 0.92306 0.0
C612 C 0.3673 0.09381 0.31388 0.0
C613 C 0.36622 0.12435 0.32514 0.0
C614 C 0.37548 0.10269 0.29614 0.0
C615 C 0.41372 0.1557 0.25917 0.0
H616 H 0.30217 0.12804 0.24029 0.0
C617 C 0.38369 0.16293 0.18481 0.0
C618 C 0.34482 0.12854 0.1784 0.0
C619 C 0.39129 0.16859 0.20281 0.0
C620 C 0.33358 0.1359 0.24528 0.0
H621 H 0.37454 0.18865 0.3269 0.0
H622 H 0.38868 0.2042 0.29562 0.0
H623 H 0.31188 0.12881 0.27172 0.0
H624 H 0.28406 0.07255 0.18598 0.0
H625 H 0.2973 0.08199 0.21692 0.0
H626 H 0.43519 0.16154 0.23269 0.0
C627 C 0.38409 0.17383 0.30072 0.0
C628 C 0.33916 0.13673 0.26328 0.0
C629 C 0.3764 0.16512 0.31858 0.0
C630 C 0.31384 0.10011 0.19036 0.0
C631 C 0.3215 0.10552 0.20822 0.0
C632 C 0.40826 0.15517 0.24106 0.0
C633 C 0.3823 0.1421 0.28934 0.0
C634 C 0.37905 0.14623 0.27036 0.0
C635 C 0.36025 0.13979 0.21473 0.0
C636 C 0.36783 0.14449 0.2339 0.0
H637 H 0.35901 0.06192 0.31862 0.0
H638 H 0.3733 0.07755 0.28755 0.0
H639 H 0.44464 0.16264 0.26443 0.0
H640 H 0.40838 0.18508 0.17594 0.0
H641 H 0.4214 0.1955 0.20739 0.0
C642 C 0.71486 0.6078 0.31349 0.0
C643 C 0.75073 0.62402 0.32459 0.0
C644 C 0.71739 0.59508 0.29654 0.0
C645 C 0.79872 0.62645 0.26259 0.0
H646 H 0.70292 0.53911 0.23579 0.0
C647 C 0.80467 0.63132 0.18791 0.0
C648 C 0.76824 0.6303 0.1806 0.0
C649 C 0.80341 0.61757 0.20512 0.0
C650 C 0.73007 0.56356 0.24309 0.0
H651 H 0.81675 0.63803 0.3271 0.0
H652 H 0.82131 0.61546 0.2974 0.0
H653 H 0.69886 0.53775 0.26756 0.0
H654 H 0.70152 0.61221 0.18492 0.0
H655 H 0.69882 0.58747 0.21465 0.0
H656 H 0.82903 0.65367 0.23821 0.0
C657 C 0.7911 0.61237 0.30182 0.0
C658 C 0.72775 0.56276 0.26129 0.0
C659 C 0.78834 0.62464 0.31889 0.0
C660 C 0.72974 0.61243 0.1902 0.0
C661 C 0.7283 0.59835 0.20728 0.0
C662 C 0.80102 0.6273 0.24441 0.0
C663 C 0.75617 0.59903 0.29025 0.0
C664 C 0.76155 0.59491 0.27124 0.0
C665 C 0.76562 0.60248 0.21522 0.0
C666 C 0.76623 0.59659 0.23441 0.0
H667 H 0.68576 0.60772 0.31754 0.0
H668 H 0.69001 0.58542 0.28799 0.0
H669 H 0.82504 0.65218 0.2698 0.0
H670 H 0.83497 0.64594 0.18086 0.0
H671 H 0.83261 0.62084 0.21081 0.0
C672 C 0.87613 0.27713 0.19119 0.0
C673 C 0.86234 0.24028 0.1807 0.0
C674 C 0.86376 0.27294 0.2087 0.0
C675 C 0.84678 0.19792 0.24312 0.0
H676 H 0.81747 0.26872 0.272 0.0
C677 C 0.84785 0.18374 0.31751 0.0
C678 C 0.8677 0.22304 0.32656 0.0
C679 C 0.83592 0.1825 0.30006 0.0
C680 C 0.82591 0.24881 0.26415 0.0
H681 H 0.82264 0.17056 0.17983 0.0
H682 H 0.80097 0.16307 0.21044 0.0
H683 H 0.81582 0.27397 0.24025 0.0
H684 H 0.88941 0.29148 0.32499 0.0
H685 H 0.86866 0.28964 0.29466 0.0
H686 H 0.85964 0.17467 0.26668 0.0
C687 C 0.821 0.19522 0.20511 0.0
C688 C 0.82468 0.25169 0.24597 0.0
C689 C 0.83282 0.19952 0.18753 0.0
C690 C 0.8733 0.26062 0.31829 0.0
C691 C 0.86142 0.25948 0.30088 0.0
C692 C 0.8486 0.19547 0.26122 0.0
C693 C 0.83812 0.23169 0.21605 0.0
C694 C 0.8352 0.22631 0.23528 0.0
C695 C 0.84401 0.22069 0.29131 0.0
C696 C 0.83841 0.221 0.27203 0.0
H697 H 0.89982 0.30877 0.18632 0.0
H698 H 0.87764 0.30159 0.21682 0.0
H699 H 0.85621 0.17881 0.23522 0.0
H700 H 0.84411 0.15459 0.32357 0.0
H701 H 0.82194 0.15189 0.29323 0.0
C702 C 0.16888 0.38365 0.68633 0.0
C703 C 0.13364 0.3857 0.67939 0.0
C704 C 0.1806 0.39451 0.70382 0.0
C705 C 0.15588 0.43807 0.74419 0.0
H706 H 0.16625 0.34635 0.7668 0.0
C707 C 0.09856 0.3788 0.81417 0.0
C708 C 0.12184 0.36497 0.82448 0.0
C709 C 0.11151 0.39312 0.79713 0.0
C710 C 0.1643 0.37279 0.76074 0.0
H711 H 0.08578 0.40449 0.68457 0.0
H712 H 0.10637 0.42415 0.71473 0.0
H713 H 0.17019 0.35232 0.73525 0.0
H714 H 0.17758 0.35636 0.82535 0.0
H715 H 0.20028 0.38108 0.79529 0.0
H716 H 0.14747 0.45682 0.76978 0.0
C717 C 0.1253 0.41435 0.70695 0.0
C718 C 0.1667 0.37635 0.74258 0.0
C719 C 0.11358 0.40337 0.68956 0.0
C720 C 0.1596 0.36765 0.81774 0.0
C721 C 0.1722 0.38127 0.8005 0.0
C722 C 0.15315 0.43428 0.76236 0.0
C723 C 0.15728 0.40767 0.71461 0.0
C724 C 0.16166 0.40851 0.73399 0.0
C725 C 0.1476 0.39309 0.78986 0.0
C726 C 0.15651 0.40107 0.77084 0.0
H727 H 0.18433 0.36937 0.67885 0.0
H728 H 0.20602 0.38984 0.70917 0.0
H729 H 0.15236 0.46357 0.73811 0.0
H730 H 0.06894 0.37639 0.81903 0.0
H731 H 0.09155 0.40151 0.78929 0.0
C732 C 0.20617 0.82874 0.81712 0.0
C733 C 0.24301 0.85684 0.82672 0.0
C734 C 0.20996 0.81918 0.79976 0.0
C735 C 0.28174 0.87552 0.76332 0.0
H736 H 0.20739 0.77103 0.73739 0.0
C737 C 0.28962 0.8802 0.68947 0.0
C738 C 0.24962 0.86332 0.68108 0.0
C739 C 0.2919 0.86931 0.70674 0.0
C740 C 0.22836 0.80045 0.74445 0.0
H741 H 0.31267 0.89513 0.82622 0.0
H742 H 0.31962 0.87789 0.79604 0.0
H743 H 0.20605 0.76945 0.76928 0.0
H744 H 0.18088 0.8201 0.68363 0.0
H745 H 0.18451 0.80106 0.71395 0.0
H746 H 0.30277 0.90719 0.73877 0.0
C747 C 0.28774 0.86322 0.80182 0.0
C748 C 0.22764 0.79952 0.76271 0.0
C749 C 0.28389 0.87255 0.81919 0.0
C750 C 0.21218 0.83267 0.68974 0.0
C751 C 0.21434 0.82205 0.70716 0.0
C752 C 0.28236 0.87649 0.74517 0.0
C753 C 0.2507 0.83819 0.79165 0.0
C754 C 0.25413 0.83717 0.77235 0.0
C755 C 0.25404 0.84199 0.71611 0.0
C756 C 0.2555 0.8391 0.73545 0.0
H757 H 0.17429 0.81718 0.82258 0.0
H758 H 0.18077 0.80002 0.79231 0.0
H759 H 0.30167 0.90546 0.77026 0.0
H760 H 0.31883 0.90443 0.6831 0.0
H761 H 0.32312 0.88448 0.71308 0.0
C762 C 0.6148 0.75337 0.68558 0.0
C763 C 0.64635 0.79573 0.68098 0.0
C764 C 0.59825 0.74414 0.70255 0.0
C765 C 0.5893 0.79077 0.74413 0.0
H766 H 0.61991 0.71122 0.76556 0.0
C767 C 0.63659 0.80249 0.81576 0.0
C768 C 0.63383 0.76658 0.82432 0.0
C769 C 0.62209 0.79884 0.79864 0.0
C770 C 0.60985 0.73257 0.75986 0.0
H771 H 0.68226 0.86213 0.68983 0.0
H772 H 0.65187 0.84642 0.71918 0.0
H773 H 0.62228 0.71865 0.73407 0.0
H774 H 0.61181 0.69808 0.82234 0.0
H775 H 0.58481 0.691 0.79259 0.0
H776 H 0.57736 0.80524 0.76984 0.0
C777 C 0.64037 0.82025 0.70983 0.0
C778 C 0.61141 0.73692 0.74174 0.0
C779 C 0.65764 0.82932 0.69302 0.0
C780 C 0.61326 0.72605 0.81607 0.0
C781 C 0.59864 0.72227 0.79891 0.0
C782 C 0.58697 0.78588 0.76223 0.0
C783 C 0.61216 0.77731 0.715 0.0
C784 C 0.60246 0.76705 0.73374 0.0
C785 C 0.60476 0.75912 0.78968 0.0
C786 C 0.59875 0.75791 0.77041 0.0
H787 H 0.60607 0.72675 0.67664 0.0
H788 H 0.57643 0.7108 0.7062 0.0
H789 H 0.58201 0.81405 0.73826 0.0
H790 H 0.65333 0.83418 0.82179 0.0
H791 H 0.62797 0.82813 0.79204 0.0
C792 C 0.22102 0.96237 0.9394 0.0
C793 C 0.21608 0.92098 0.93745 0.0
C794 C 0.21855 0.97743 0.95599 0.0
C795 C 0.24116 0.95822 1.00069 0.0
H796 H 0.21014 0.04452 0.01338 0.0
C797 C 0.27382 0.02797 0.06929 0.0
C798 C 0.29975 0.07318 0.06964 0.0
C799 C 0.25237 0.00701 0.05403 0.0
C800 C 0.21877 0.02031 0.00998 0.0
H801 H 0.20045 0.8613 0.95064 0.0
H802 H 0.19365 0.88636 0.97933 0.0
H803 H 0.19052 0.01043 0.98454 0.0
H804 H 0.32203 0.13231 0.05494 0.0
H805 H 0.28311 0.09574 0.02829 0.0
H806 H 0.27011 0.96849 0.02583 0.0
C807 C 0.20094 0.90795 0.96833 0.0
C808 C 0.20766 1.00088 0.9935 0.0
C809 C 0.20414 0.89329 0.95188 0.0
C810 C 0.30156 0.09741 0.05496 0.0
C811 C 0.27939 0.07648 0.03976 0.0
C812 C 0.25188 0.97727 0.01711 0.0
C813 C 0.21079 0.95106 0.97076 0.0
C814 C 0.21895 0.96971 0.98863 0.0
C815 C 0.25615 0.03099 0.03893 0.0
C816 C 0.24109 0.00869 0.02192 0.0
H817 H 0.23085 0.98444 0.92845 0.0
H818 H 0.22631 0.01079 0.95737 0.0
H819 H 0.25174 0.93549 0.99727 0.0
H820 H 0.27275 0.00869 0.0804 0.0
H821 H 0.23457 0.97193 0.05377 0.0
C822 C 0.81461 0.73606 0.44391 0.0
C823 C 0.78272 0.73261 0.43232 0.0
C824 C 0.81592 0.75072 0.46098 0.0
C825 C 0.77086 0.80081 0.49079 0.0
H826 H 0.75659 0.71105 0.52317 0.0
C827 C 0.71946 0.79463 0.56331 0.0
C828 C 0.68295 0.75492 0.56771 0.0
C829 C 0.74155 0.79907 0.54766 0.0
C830 C 0.76101 0.73665 0.51433 0.0
H831 H 0.72803 0.74245 0.42926 0.0
H832 H 0.7319 0.77038 0.45837 0.0
H833 H 0.78169 0.71114 0.49358 0.0
H834 H 0.64202 0.68832 0.5595 0.0
H835 H 0.68097 0.69587 0.53252 0.0
H836 H 0.74825 0.82511 0.51139 0.0
C837 C 0.75624 0.76242 0.45442 0.0
C838 C 0.77582 0.737 0.49745 0.0
C839 C 0.75436 0.74695 0.43761 0.0
C840 C 0.66969 0.71954 0.55639 0.0
C841 C 0.69225 0.72369 0.54101 0.0
C842 C 0.75659 0.8008 0.50776 0.0
C843 C 0.78566 0.76256 0.46656 0.0
C844 C 0.77956 0.76825 0.48532 0.0
C845 C 0.72822 0.76353 0.53641 0.0
C846 C 0.75015 0.76786 0.5195 0.0
H847 H 0.83585 0.7238 0.4403 0.0
H848 H 0.83887 0.75039 0.47009 0.0
H849 H 0.7734 0.82526 0.48171 0.0
H850 H 0.73061 0.82234 0.57182 0.0
H851 H 0.76922 0.83014 0.5444 0.0
C852 C 0.07325 0.26044 0.94697 0.0
C853 C 0.05633 0.27954 0.93582 0.0
C854 C 0.05503 0.24584 0.96362 0.0
C855 C 1.00003 0.27559 0.99626 0.0
H856 H 0.97057 0.1688 0.0204 0.0
C857 C 0.91243 0.23822 0.06165 0.0
C858 C 0.92589 0.22059 0.07496 0.0
C859 C 0.92619 0.23972 0.04451 0.0
C860 C 0.97908 0.19899 0.01389 0.0
H861 H 0.00679 0.29719 0.93299 0.0
H862 H 0.97436 0.27051 0.96132 0.0
H863 H 0.99915 0.18036 0.99056 0.0
H864 H 0.96308 0.18911 0.08057 0.0
H865 H 0.98767 0.19218 0.05056 0.0
H866 H 0.98105 0.29499 0.01934 0.0
C867 C 0.00157 0.26686 0.95749 0.0
C868 C 0.9954 0.20553 0.99681 0.0
C869 C 0.01969 0.28143 0.94111 0.0
C870 C 0.95195 0.20268 0.07058 0.0
C871 C 0.96602 0.20444 0.05337 0.0
C872 C 0.98413 0.26926 0.01323 0.0
C873 C 0.02006 0.25066 0.96926 0.0
C874 C 0.00532 0.24365 0.98773 0.0
C875 C 0.95423 0.22406 0.04019 0.0
C876 C 0.97266 0.2306 0.02223 0.0
H877 H 0.10216 0.25967 0.94337 0.0
H878 H 0.07002 0.23357 0.97246 0.0
H879 H 0.00833 0.30579 0.98978 0.0
H880 H 0.8922 0.25211 0.06454 0.0
H881 H 0.91543 0.25402 0.03468 0.0
C882 C 0.2888 0.08725 0.44859 0.0
C883 C 0.30182 0.06537 0.4371 0.0
C884 C 0.26988 0.06841 0.46467 0.0
C885 C 0.26498 0.98428 0.49493 0.0
H886 H 0.18065 0.00154 0.52012 0.0
C887 C 0.19396 0.89035 0.55665 0.0
C888 C 0.20262 0.91646 0.57145 0.0
C889 C 0.19544 0.90703 0.54009 0.0
C890 C 0.2042 0.99654 0.51318 0.0
H891 H 0.30349 0.00629 0.43268 0.0
H892 H 0.26805 0.97224 0.45984 0.0
H893 H 0.20446 0.0335 0.49102 0.0
H894 H 0.21474 0.97885 0.58072 0.0
H895 H 0.21737 0.00838 0.55153 0.0
H896 H 0.26451 0.94707 0.5168 0.0
C897 C 0.27385 0.00453 0.4571 0.0
C898 C 0.21803 0.01497 0.49656 0.0
C899 C 0.29358 0.0237 0.44138 0.0
C900 C 0.20764 0.95797 0.56952 0.0
C901 C 0.20938 0.97491 0.55281 0.0
C902 C 0.25078 0.96551 0.51127 0.0
C903 C 0.26329 0.02721 0.46933 0.0
C904 C 0.24833 0.00865 0.48713 0.0
C905 C 0.20587 0.95033 0.53794 0.0
C906 C 0.21996 0.97098 0.52053 0.0
H907 H 0.29542 0.11971 0.44559 0.0
H908 H 0.26238 0.08699 0.47373 0.0
H909 H 0.28955 0.97993 0.48852 0.0
H910 H 0.19026 0.85834 0.55778 0.0
H911 H 0.19189 0.8871 0.52886 0.0
C912 C 0.81342 0.74278 0.06296 0.0
C913 C 0.77376 0.71252 0.07049 0.0
C914 C 0.81444 0.75899 0.04605 0.0
C915 C 0.75011 0.72375 0.00607 0.0
H916 H 0.79723 0.84372 0.99232 0.0
C917 C 0.6768 0.7773 0.95313 0.0
C918 C 0.69904 0.78759 0.93713 0.0
C919 C 0.6969 0.77613 0.96851 0.0
C920 C 0.78481 0.81016 0.99591 0.0
H921 H 0.7042 0.67881 0.06689 0.0
H922 H 0.70619 0.7065 0.03801 0.0
H923 H 0.81265 0.82618 0.0216 0.0
H924 H 0.76127 0.80756 0.92518 0.0
H925 H 0.79687 0.80653 0.95251 0.0
H926 H 0.72015 0.70752 0.98096 0.0
C927 C 0.73649 0.71704 0.04473 0.0
C928 C 0.79362 0.80014 0.01261 0.0
C929 C 0.73545 0.70122 0.06136 0.0
C930 C 0.74319 0.79987 0.93723 0.0
C931 C 0.76356 0.7991 0.95283 0.0
C932 C 0.74138 0.7337 0.98953 0.0
C933 C 0.77586 0.74495 0.03659 0.0
C934 C 0.77501 0.75675 0.01804 0.0
C935 C 0.74003 0.78592 0.96848 0.0
C936 C 0.75755 0.7769 0.98446 0.0
H937 H 0.84342 0.75222 0.06971 0.0
H938 H 0.84527 0.78088 0.04011 0.0
H939 H 0.73558 0.69002 0.00983 0.0
H940 H 0.64289 0.76766 0.95368 0.0
H941 H 0.67807 0.76569 0.9804 0.0
C942 C 0.04353 0.2549 0.57012 0.0
C943 C 0.07847 0.29634 0.57359 0.0
C944 C 0.02929 0.2425 0.55296 0.0
C945 C 0.03599 0.29352 0.50972 0.0
H946 H 0.97974 0.17512 0.49304 0.0
C947 C 0.98642 0.25312 0.43826 0.0
C948 C 0.94211 0.22443 0.43597 0.0
C949 C 0.00566 0.25708 0.45451 0.0
C950 C 0.99547 0.20831 0.49757 0.0
H951 H 0.12761 0.35609 0.56192 0.0
H952 H 0.10472 0.33392 0.53219 0.0
H953 H 0.00938 0.1915 0.52256 0.0
H954 H 0.88332 0.17661 0.44852 0.0
H955 H 0.91741 0.18197 0.47686 0.0
H956 H 0.02274 0.31033 0.48463 0.0
C957 C 0.08687 0.3114 0.54255 0.0
C958 C 0.01222 0.21774 0.51451 0.0
C959 C 0.10051 0.32396 0.55961 0.0
C960 C 0.91782 0.19791 0.44988 0.0
C961 C 0.93725 0.20127 0.46608 0.0
C962 C 0.02003 0.2842 0.49275 0.0
C963 C 0.05012 0.27115 0.53896 0.0
C964 C 0.03271 0.26053 0.52084 0.0
C965 C 0.98097 0.23209 0.4687 0.0
C966 C 0.99953 0.24153 0.4865 0.0
H967 H 0.02554 0.23323 0.58071 0.0
H968 H 1.00071 0.21136 0.5508 0.0
H969 H 0.05018 0.32666 0.51417 0.0
H970 H 0.00546 0.27482 0.42785 0.0
H971 H 0.03942 0.28106 0.45618 0.0
C972 C 0.75056 0.18269 0.12003 0.0
C973 C 0.78186 0.20862 0.13235 0.0
C974 C 0.70882 0.15267 0.12517 0.0
C975 C 0.6271 0.13312 0.1562 0.0
H976 H 0.56923 0.01989 0.13436 0.0
C977 C 0.44621 0.04946 0.1478 0.0
C978 C 0.43677 0.04235 0.12997 0.0
C979 C 0.48459 0.05319 0.1543 0.0
C980 C 0.58481 0.05113 0.14075 0.0
H981 H 0.79376 0.22431 0.15966 0.0
H982 H 0.71943 0.17171 0.16886 0.0
H983 H 0.64792 0.06295 0.13388 0.0
H984 H 0.45618 0.02745 0.10549 0.0
H985 H 0.52198 0.03267 0.11669 0.0
H986 H 0.56425 0.12334 0.16169 0.0
C987 C 0.72798 0.17432 0.15521 0.0
C988 C 0.62988 0.07571 0.14052 0.0
C989 C 0.7704 0.20416 0.15002 0.0
C990 C 0.46261 0.03253 0.11933 0.0
C991 C 0.50061 0.03582 0.12581 0.0
C992 C 0.58195 0.10871 0.15629 0.0
C993 C 0.69698 0.14802 0.14278 0.0
C994 C 0.6513 0.1178 0.14747 0.0
C995 C 0.51371 0.04948 0.14304 0.0
C996 C 0.56019 0.06837 0.14774 0.0
H997 H 0.75856 0.18519 0.10631 0.0
H998 H 0.68544 0.13359 0.11527 0.0
H999 H 0.64279 0.16553 0.16157 0.0
H1000 H 0.42701 0.05767 0.15622 0.0
H1001 H 0.49325 0.06285 0.16772 0.0
C1002 C 0.58046 0.56608 0.38559 0.0
C1003 C 0.61502 0.58944 0.37411 0.0
C1004 C 0.54513 0.52664 0.3805 0.0
C1005 C 0.53137 0.43799 0.35268 0.0
H1006 H 0.41876 0.37886 0.37465 0.0
C1007 C 0.43124 0.25032 0.35749 0.0
C1008 C 0.41689 0.23585 0.3745 0.0
C1009 C 0.44693 0.29392 0.35302 0.0
C1010 C 0.45003 0.39491 0.36833 0.0
H1011 H 0.63761 0.59274 0.34774 0.0
H1012 H 0.57533 0.52429 0.33861 0.0
H1013 H 0.45909 0.45787 0.37379 0.0
H1014 H 0.40613 0.25496 0.39996 0.0
H1015 H 0.43317 0.33022 0.39227 0.0
H1016 H 0.52322 0.37507 0.34801 0.0
C1017 C 0.57571 0.53601 0.35165 0.0
C1018 C 0.47312 0.44021 0.36781 0.0
C1019 C 0.61098 0.57572 0.35675 0.0
C1020 C 0.41721 0.26524 0.38675 0.0
C1021 C 0.43227 0.30835 0.38228 0.0
C1022 C 0.50822 0.39268 0.35317 0.0
C1023 C 0.54388 0.50965 0.36384 0.0
C1024 C 0.51486 0.46239 0.3606 0.0
C1025 C 0.44784 0.32348 0.36544 0.0
C1026 C 0.46805 0.37065 0.36163 0.0
H1027 H 0.58324 0.57556 0.39913 0.0
H1028 H 0.52145 0.50742 0.3903 0.0
H1029 H 0.56361 0.45377 0.34722 0.0
H1030 H 0.43185 0.22842 0.34789 0.0
H1031 H 0.4588 0.30461 0.33994 0.0
C1032 C 0.91306 0.36582 0.11965 0.0
C1033 C 0.95002 0.36361 0.12415 0.0
C1034 C 0.90894 0.40133 0.12419 0.0
C1035 C 0.91734 0.47613 0.15283 0.0
H1036 H 0.91926 0.54374 0.11291 0.0
C1037 C 0.84891 0.59901 0.14479 0.0
C1038 C 0.81566 0.58061 0.13234 0.0
C1039 C 0.87506 0.58047 0.14795 0.0
C1040 C 0.91969 0.52608 0.12433 0.0
H1041 H 0.01133 0.39706 0.13769 0.0
H1042 H 0.00416 0.46057 0.14557 0.0
H1043 H 0.9518 0.49771 0.11073 0.0
H1044 H 0.78149 0.52669 0.11458 0.0
H1045 H 0.82672 0.49491 0.12006 0.0
H1046 H 0.88147 0.50168 0.16586 0.0
C1047 C 0.97853 0.43407 0.13839 0.0
C1048 C 0.93847 0.49996 0.1231 0.0
C1049 C 0.98265 0.39797 0.13382 0.0
C1050 C 0.80726 0.54206 0.12404 0.0
C1051 C 0.83311 0.52379 0.12716 0.0
C1052 C 0.89857 0.50253 0.15409 0.0
C1053 C 0.94156 0.43584 0.13347 0.0
C1054 C 0.93591 0.47345 0.13707 0.0
C1055 C 0.86802 0.54347 0.13868 0.0
C1056 C 0.89799 0.52617 0.13956 0.0
H1057 H 0.8864 0.33982 0.11296 0.0
H1058 H 0.87995 0.40184 0.12043 0.0
H1059 H 0.91417 0.45516 0.16362 0.0
H1060 H 0.85615 0.62882 0.15131 0.0
H1061 H 0.90184 0.59604 0.15694 0.0
C1062 C 0.43682 0.05183 0.35366 0.0
C1063 C 0.4219 0.04023 0.3708 0.0
C1064 C 0.47492 0.05307 0.34833 0.0
C1065 C 0.56527 0.03623 0.36409 0.0
H1066 H 0.63662 0.15331 0.34678 0.0
C1067 C 0.73748 0.14946 0.38704 0.0
C1068 C 0.76927 0.17728 0.37522 0.0
C1069 C 0.69502 0.12277 0.38163 0.0
C1070 C 0.61721 0.12018 0.35122 0.0
H1071 H 0.43153 0.01571 0.39508 0.0
H1072 H 0.49714 0.01698 0.38591 0.0
H1073 H 0.55849 0.1191 0.34498 0.0
H1074 H 0.78192 0.19835 0.34835 0.0
H1075 H 0.70656 0.15242 0.3389 0.0
H1076 H 0.62443 0.03901 0.37153 0.0
C1077 C 0.47999 0.02516 0.37641 0.0
C1078 C 0.57222 0.10032 0.35014 0.0
C1079 C 0.44197 0.02399 0.38169 0.0
C1080 C 0.75796 0.17716 0.3577 0.0
C1081 C 0.71497 0.15099 0.35233 0.0
C1082 C 0.61027 0.05626 0.36529 0.0
C1083 C 0.49869 0.04289 0.36014 0.0
C1084 C 0.54557 0.05874 0.35721 0.0
C1085 C 0.68304 0.1237 0.3643 0.0
C1086 C 0.63661 0.09907 0.35949 0.0
H1087 H 0.42224 0.06519 0.34511 0.0
H1088 H 0.4878 0.06586 0.33555 0.0
H1089 H 0.54588 0.00396 0.36939 0.0
H1090 H 0.74537 0.1486 0.4006 0.0
H1091 H 0.67114 0.10263 0.39122 0.0
C1092 C 0.44825 0.25724 0.14491 0.0
C1093 C 0.42801 0.23779 0.12918 0.0
C1094 C 0.46176 0.30108 0.14793 0.0
C1095 C 0.49286 0.3994 0.122 0.0
H1096 H 0.50208 0.45416 0.16659 0.0
C1097 C 0.59245 0.57851 0.12383 0.0
C1098 C 0.62695 0.5903 0.13533 0.0
C1099 C 0.55354 0.53993 0.12646 0.0
C1100 C 0.49928 0.43925 0.15402 0.0
H1101 H 0.40235 0.24699 0.10502 0.0
H1102 H 0.42414 0.32216 0.11048 0.0
H1103 H 0.46329 0.37484 0.1645 0.0
H1104 H 0.64612 0.57533 0.15985 0.0
H1105 H 0.57876 0.5082 0.16447 0.0
H1106 H 0.52996 0.4628 0.11153 0.0
C1107 C 0.43145 0.30476 0.12022 0.0
C1108 C 0.47739 0.39388 0.15285 0.0
C1109 C 0.41886 0.26164 0.1171 0.0
C1110 C 0.61969 0.56705 0.15091 0.0
C1111 C 0.58102 0.52825 0.15347 0.0
C1112 C 0.51435 0.44433 0.12314 0.0
C1113 C 0.45456 0.32562 0.13533 0.0
C1114 C 0.47452 0.37348 0.13684 0.0
C1115 C 0.54914 0.51244 0.14047 0.0
C1116 C 0.5186 0.46501 0.13919 0.0
H1117 H 0.45556 0.23934 0.15439 0.0
H1118 H 0.47963 0.31619 0.15969 0.0
H1119 H 0.49243 0.38508 0.10952 0.0
H1120 H 0.59746 0.59574 0.11165 0.0
H1121 H 0.529 0.52919 0.11645 0.0
C1122 C 0.81367 0.5776 0.35996 0.0
C1123 C 0.81326 0.59378 0.37659 0.0
C1124 C 0.83943 0.55879 0.3567 0.0
C1125 C 0.88272 0.50209 0.38167 0.0
H1126 H 0.9537 0.51355 0.34155 0.0
C1127 C 0.97429 0.41725 0.38559 0.0
C1128 C 0.95443 0.38126 0.37458 0.0
C1129 C 0.97327 0.45483 0.38145 0.0
C1130 C 0.93418 0.51051 0.35283 0.0
H1131 H 0.84198 0.60648 0.40234 0.0
H1132 H 0.88668 0.57459 0.39665 0.0
H1133 H 0.9159 0.55573 0.34296 0.0
H1134 H 0.92321 0.35752 0.3497 0.0
H1135 H 0.92033 0.423 0.34264 0.0
H1136 H 0.90019 0.45719 0.39161 0.0
C1137 C 0.86651 0.57513 0.38624 0.0
C1138 C 0.91237 0.53417 0.35357 0.0
C1139 C 0.84076 0.59331 0.3895 0.0
C1140 C 0.93914 0.38528 0.35825 0.0
C1141 C 0.9375 0.42274 0.35421 0.0
C1142 C 0.90459 0.47914 0.38101 0.0
C1143 C 0.86503 0.55627 0.37005 0.0
C1144 C 0.88691 0.53048 0.36817 0.0
C1145 C 0.9513 0.45617 0.36649 0.0
C1146 C 0.93099 0.48349 0.36676 0.0
H1147 H 0.79276 0.5777 0.3498 0.0
H1148 H 0.83773 0.54445 0.34409 0.0
H1149 H 0.86225 0.49744 0.39282 0.0
H1150 H 0.9859 0.41454 0.3983 0.0
H1151 H 0.98436 0.48044 0.39105 0.0
C1152 C 0.21318 0.73836 0.62599 0.0
C1153 C 0.20407 0.76854 0.63384 0.0
C1154 C 0.18632 0.69416 0.62869 0.0
C1155 C 0.11892 0.60476 0.65212 0.0
H1156 H 0.05401 0.55647 0.60958 0.0
C1157 C 0.03512 0.42068 0.63768 0.0
C1158 C 0.04438 0.4114 0.62096 0.0
C1159 C 0.04325 0.46249 0.64179 0.0
C1160 C 0.07163 0.56925 0.62161 0.0
H1161 H 0.16131 0.77616 0.65169 0.0
H1162 H 0.1138 0.69769 0.65647 0.0
H1163 H 0.09256 0.63468 0.614 0.0
H1164 H 0.06589 0.43766 0.59509 0.0
H1165 H 0.08146 0.5102 0.60229 0.0
H1166 H 0.10092 0.53969 0.65918 0.0
C1167 C 0.14199 0.7089 0.64822 0.0
C1168 C 0.09325 0.61399 0.6242 0.0
C1169 C 0.16921 0.75361 0.64556 0.0
C1170 C 0.05923 0.44392 0.60819 0.0
C1171 C 0.06758 0.48553 0.61229 0.0
C1172 C 0.09739 0.5598 0.6495 0.0
C1173 C 0.14977 0.67901 0.63932 0.0
C1174 C 0.11826 0.63216 0.63917 0.0
C1175 C 0.06062 0.49574 0.62924 0.0
C1176 C 0.07508 0.5417 0.63384 0.0
H1177 H 0.23994 0.74884 0.617 0.0
H1178 H 0.19292 0.67159 0.62176 0.0
H1179 H 0.13845 0.61825 0.66367 0.0
H1180 H 0.02347 0.39625 0.64781 0.0
H1181 H 0.03695 0.46904 0.6549 0.0
C1182 C 0.38969 0.95352 0.85732 0.0
C1183 C 0.3919 0.96559 0.87485 0.0
C1184 C 0.42123 0.94546 0.85032 0.0
C1185 C 0.52568 0.94996 0.85649 0.0
H1186 H 0.45998 0.82528 0.85116 0.0
C1187 C 0.60125 0.84294 0.86904 0.0
C1188 C 0.5804 0.79983 0.86336 0.0
C1189 C 0.58472 0.87006 0.8649 0.0
C1190 C 0.47935 0.86015 0.852 0.0
H1191 H 0.43165 0.98497 0.89796 0.0
H1192 H 0.48815 0.97374 0.88542 0.0
H1193 H 0.42266 0.86609 0.85299 0.0
H1194 H 0.52795 0.7518 0.8479 0.0
H1195 H 0.50079 0.79998 0.83931 0.0
H1196 H 0.58251 0.94444 0.85538 0.0
C1197 C 0.46166 0.96942 0.87719 0.0
C1198 C 0.45765 0.88361 0.85314 0.0
C1199 C 0.42953 0.97632 0.88433 0.0
C1200 C 0.54478 0.78515 0.85226 0.0
C1201 C 0.52881 0.8127 0.84769 0.0
C1202 C 0.54761 0.92664 0.85485 0.0
C1203 C 0.45611 0.95084 0.8606 0.0
C1204 C 0.48044 0.92853 0.8559 0.0
C1205 C 0.54715 0.85494 0.85469 0.0
C1206 C 0.52473 0.88104 0.85321 0.0
H1207 H 0.3607 0.94432 0.84983 0.0
H1208 H 0.41628 0.93126 0.83747 0.0
H1209 H 0.54401 0.9846 0.85865 0.0
H1210 H 0.62834 0.85465 0.87792 0.0
H1211 H 0.59985 0.90176 0.87086 0.0
C1212 C 0.55659 0.57995 0.62514 0.0
C1213 C 0.56945 0.61483 0.63659 0.0
C1214 C 0.51692 0.54207 0.62759 0.0
C1215 C 0.41619 0.49079 0.65478 0.0
H1216 H 0.36326 0.48883 0.61053 0.0
C1217 C 0.23679 0.4472 0.64669 0.0
C1218 C 0.21637 0.42706 0.63112 0.0
C1219 C 0.28034 0.4595 0.64929 0.0
C1220 C 0.37723 0.48794 0.62292 0.0
H1221 H 0.55517 0.63545 0.66093 0.0
H1222 H 0.48639 0.56967 0.66533 0.0
H1223 H 0.44082 0.52339 0.61253 0.0
H1224 H 0.22334 0.4013 0.60659 0.0
H1225 H 0.29837 0.42159 0.61121 0.0
H1226 H 0.35186 0.45646 0.66521 0.0
C1227 C 0.50631 0.57096 0.65446 0.0
C1228 C 0.42198 0.50768 0.62405 0.0
C1229 C 0.546 0.60868 0.65202 0.0
C1230 C 0.23889 0.41734 0.61863 0.0
C1231 C 0.28188 0.42917 0.62125 0.0
C1232 C 0.37107 0.47066 0.65362 0.0
C1233 C 0.4897 0.53902 0.64145 0.0
C1234 C 0.44218 0.51011 0.64003 0.0
C1235 C 0.30364 0.45159 0.63636 0.0
C1236 C 0.35114 0.46967 0.63771 0.0
H1237 H 0.57397 0.58416 0.61307 0.0
H1238 H 0.50539 0.51745 0.61756 0.0
H1239 H 0.4308 0.49229 0.6673 0.0
H1240 H 0.21966 0.45467 0.65647 0.0
H1241 H 0.29619 0.47685 0.66106 0.0
C1242 C 0.19189 0.75535 0.85995 0.0
C1243 C 0.20055 0.76878 0.87742 0.0
C1244 C 0.1634 0.71163 0.85589 0.0
C1245 C 0.07227 0.61252 0.87401 0.0
H1246 H 0.11528 0.54797 0.84858 0.0
C1247 C 0.0237 0.43843 0.88968 0.0
C1248 C 0.03179 0.4137 0.87766 0.0
C1249 C 0.02941 0.47884 0.88496 0.0
C1250 C 0.10189 0.56535 0.85527 0.0
H1251 H 0.18558 0.74686 0.90424 0.0
H1252 H 0.13602 0.67179 0.89715 0.0
H1253 H 0.15718 0.62683 0.84902 0.0
H1254 H 0.04646 0.40897 0.85072 0.0
H1255 H 0.0547 0.47881 0.84219 0.0
H1256 H 0.0177 0.55139 0.88077 0.0
C1257 C 0.15115 0.6947 0.8866 0.0
C1258 C 0.12617 0.61068 0.85555 0.0
C1259 C 0.18 0.73778 0.89063 0.0
C1260 C 0.03931 0.42707 0.86019 0.0
C1261 C 0.04512 0.46766 0.85542 0.0
C1262 C 0.04773 0.56731 0.87355 0.0
C1263 C 0.14236 0.68108 0.86923 0.0
C1264 C 0.11247 0.63454 0.86554 0.0
C1265 C 0.04331 0.49535 0.86807 0.0
C1266 C 0.06313 0.54294 0.86484 0.0
H1267 H 0.20727 0.77841 0.8495 0.0
H1268 H 0.15737 0.7018 0.84237 0.0
H1269 H 0.06074 0.63025 0.88166 0.0
H1270 H 0.01868 0.42922 0.90329 0.0
H1271 H 0.02768 0.4989 0.89515 0.0
C1272 C 0.39116 0.95971 0.64653 0.0
C1273 C 0.38817 0.96658 0.6287 0.0
C1274 C 0.42656 0.95714 0.65293 0.0
C1275 C 0.53337 0.96896 0.64103 0.0
H1276 H 0.48478 0.85322 0.66023 0.0
C1277 C 0.59835 0.85683 0.62452 0.0
C1278 C 0.5946 0.82478 0.63617 0.0
C1279 C 0.58344 0.88495 0.62901 0.0
C1280 C 0.4994 0.88608 0.65536 0.0
H1281 H 0.42178 0.98139 0.60405 0.0
H1282 H 0.48428 0.97903 0.61525 0.0
H1283 H 0.4408 0.88773 0.65876 0.0
H1284 H 0.57428 0.79822 0.66203 0.0
H1285 H 0.54754 0.84761 0.67 0.0
H1286 H 0.59129 0.96637 0.63682 0.0
C1287 C 0.45935 0.975 0.62433 0.0
C1288 C 0.47411 0.90595 0.65451 0.0
C1289 C 0.42365 0.97671 0.6179 0.0
C1290 C 0.57773 0.82285 0.65287 0.0
C1291 C 0.56217 0.85088 0.65734 0.0
C1292 C 0.55875 0.94921 0.64198 0.0
C1293 C 0.45985 0.96231 0.64164 0.0
C1294 C 0.49017 0.94684 0.64663 0.0
C1295 C 0.56397 0.88161 0.64526 0.0
C1296 C 0.54139 0.90669 0.6484 0.0
H1297 H 0.36387 0.95098 0.65507 0.0
H1298 H 0.42622 0.94774 0.66636 0.0
H1299 H 0.54685 1.00066 0.63508 0.0
H1300 H 0.61149 0.85917 0.61159 0.0
H1301 H 0.58491 0.90761 0.61926 0.0
C1302 C 0.56799 0.61053 0.87653 0.0
C1303 C 0.57378 0.63525 0.8916 0.0
C1304 C 0.52696 0.57687 0.872 0.0
C1305 C 0.41742 0.5054 0.88946 0.0
H1306 H 0.37785 0.51057 0.84294 0.0
C1307 C 0.24794 0.46426 0.87192 0.0
C1308 C 0.22287 0.41929 0.86983 0.0
C1309 C 0.29251 0.48506 0.86964 0.0
C1310 C 0.38887 0.50817 0.8558 0.0
H1311 H 0.54173 0.64253 0.91423 0.0
H1312 H 0.47024 0.58403 0.90633 0.0
H1313 H 0.45443 0.55634 0.8504 0.0
H1314 H 0.22352 0.36084 0.86274 0.0
H1315 H 0.30253 0.39749 0.85918 0.0
H1316 H 0.35146 0.45887 0.89506 0.0
C1317 C 0.49732 0.59058 0.898 0.0
C1318 C 0.43251 0.53423 0.8601 0.0
C1319 C 0.53819 0.62434 0.90246 0.0
C1320 C 0.24238 0.39572 0.86409 0.0
C1321 C 0.28734 0.41653 0.86214 0.0
C1322 C 0.37405 0.47911 0.88511 0.0
C1323 C 0.49112 0.56697 0.88257 0.0
C1324 C 0.44688 0.53415 0.87715 0.0
C1325 C 0.31261 0.46103 0.86554 0.0
C1326 C 0.35936 0.4812 0.86842 0.0
H1327 H 0.59487 0.61803 0.86793 0.0
H1328 H 0.52315 0.55895 0.86012 0.0
H1329 H 0.42763 0.50439 0.90264 0.0
H1330 H 0.23342 0.48279 0.87659 0.0
H1331 H 0.31163 0.51932 0.87253 0.0
loop_
_geom_bond_atom_site_label_1
_geom_bond_atom_site_label_2
_geom_bond_distance
_geom_bond_site_symmetry_2
_ccdc_geom_bond_type
Zn0 O6 1.920 . S
Zn0 O12 1.898 . S
Zn0 O15 1.905 . S
Zn1 O9 1.905 . S
Zn1 O10 1.898 . S
Zn1 O18 1.920 . S
Zn2 O5 2.080 . S
Zn2 O8 2.114 . S
Zn2 O11 2.120 . S
Zn2 O13 2.120 . S
Zn2 O14 2.114 . S
Zn2 O17 2.080 . S
C3 O8 1.166 . S
C3 O9 1.182 . S
C4 O10 1.167 . S
C4 O11 1.299 . S
O5 Zn2 2.080 . S
O5 C19 1.305 . S
O6 Zn0 1.920 . S
O6 C19 1.234 . S
C7 O12 1.167 . S
C7 O13 1.299 . S
O8 Zn2 2.114 . S
O8 C3 1.166 . S
O9 Zn1 1.905 . S
O9 C3 1.182 . S
O10 Zn1 1.898 . S
O10 C4 1.167 . S
O11 Zn2 2.120 . S
O11 C4 1.299 . S
O12 Zn0 1.898 . S
O12 C7 1.167 . S
O13 Zn2 2.120 . S
O13 C7 1.299 . S
O14 Zn2 2.114 . S
O14 C16 1.166 . S
O15 Zn0 1.905 . S
O15 C16 1.182 . S
C16 O14 1.166 . S
C16 O15 1.182 . S
O17 Zn2 2.080 . S
O17 C20 1.305 . S
O18 Zn1 1.920 . S
O18 C20 1.234 . S
C19 O5 1.305 . S
C19 O6 1.234 . S
C20 O17 1.305 . S
C20 O18 1.234 . S
Zn21 O27 1.920 . S
Zn21 O33 1.898 . S
Zn21 O36 1.905 . S
Zn22 O30 1.905 . S
Zn22 O31 1.898 . S
Zn22 O39 1.920 . S
Zn23 O26 2.080 . S
Zn23 O29 2.114 . S
Zn23 O32 2.120 . S
Zn23 O34 2.120 . S
Zn23 O35 2.114 . S
Zn23 O38 2.080 . S
C24 O29 1.166 . S
C24 O30 1.182 . S
C25 O31 1.167 . S
C25 O32 1.299 . S
O26 Zn23 2.080 . S
O26 C40 1.305 . S
O27 Zn21 1.920 . S
O27 C40 1.234 . S
C28 O33 1.167 . S
C28 O34 1.299 . S
O29 Zn23 2.114 . S
O29 C24 1.166 . S
O30 Zn22 1.905 . S
O30 C24 1.182 . S
O31 Zn22 1.898 . S
O31 C25 1.167 . S
O32 Zn23 2.120 . S
O32 C25 1.299 . S
O33 Zn21 1.898 . S
O33 C28 1.167 . S
O34 Zn23 2.120 . S
O34 C28 1.299 . S
O35 Zn23 2.114 . S
O35 C37 1.166 . S
O36 Zn21 1.905 . S
O36 C37 1.182 . S
C37 O35 1.166 . S
C37 O36 1.182 . S
O38 Zn23 2.080 . S
O38 C41 1.305 . S
O39 Zn22 1.920 . S
O39 C41 1.234 . S
C40 O26 1.305 . S
C40 O27 1.234 . S
C41 O38 1.305 . S
C41 O39 1.234 . S
Zn42 O48 1.920 . S
Zn42 O54 1.898 . S
Zn42 O57 1.905 . S
Zn43 O51 1.905 . S
Zn43 O52 1.898 . S
Zn43 O60 1.920 . S
Zn44 O47 2.080 . S
Zn44 O50 2.114 . S
Zn44 O53 2.120 . S
Zn44 O55 2.120 . S
Zn44 O56 2.114 . S
Zn44 O59 2.080 . S
C45 O50 1.166 . S
C45 O51 1.182 . S
C46 O52 1.167 . S
C46 O53 1.299 . S
O47 Zn44 2.080 . S
O47 C61 1.305 . S
O48 Zn42 1.920 . S
O48 C61 1.234 . S
C49 O54 1.167 . S
C49 O55 1.299 . S
O50 Zn44 2.114 . S
O50 C45 1.166 . S
O51 Zn43 1.905 . S
O51 C45 1.182 . S
O52 Zn43 1.898 . S
O52 C46 1.167 . S
O53 Zn44 2.120 . S
O53 C46 1.299 . S
O54 Zn42 1.898 . S
O54 C49 1.167 . S
O55 Zn44 2.120 . S
O55 C49 1.299 . S
O56 Zn44 2.114 . S
O56 C58 1.166 . S
O57 Zn42 1.905 . S
O57 C58 1.182 . S
C58 O56 1.166 . S
C58 O57 1.182 . S
O59 Zn44 2.080 . S
O59 C62 1.305 . S
O60 Zn43 1.920 . S
O60 C62 1.234 . S
C61 O47 1.305 . S
C61 O48 1.234 . S
C62 O59 1.305 . S
C62 O60 1.234 . S
Zn63 O69 1.920 . S
Zn63 O75 1.898 . S
Zn63 O78 1.905 . S
Zn64 O72 1.905 . S
Zn64 O73 1.898 . S
Zn64 O81 1.920 . S
Zn65 O68 2.080 . S
Zn65 O71 2.114 . S
Zn65 O74 2.120 . S
Zn65 O76 2.120 . S
Zn65 O77 2.114 . S
Zn65 O80 2.080 . S
C66 O71 1.166 . S
C66 O72 1.182 . S
C67 O73 1.167 . S
C67 O74 1.299 . S
O68 Zn65 2.080 . S
O68 C82 1.305 . S
O69 Zn63 1.920 . S
O69 C82 1.234 . S
C70 O75 1.167 . S
C70 O76 1.299 . S
O71 Zn65 2.114 . S
O71 C66 1.166 . S
O72 Zn64 1.905 . S
O72 C66 1.182 . S
O73 Zn64 1.898 . S
O73 C67 1.167 . S
O74 Zn65 2.120 . S
O74 C67 1.299 . S
O75 Zn63 1.898 . S
O75 C70 1.167 . S
O76 Zn65 2.120 . S
O76 C70 1.299 . S
O77 Zn65 2.114 . S
O77 C79 1.166 . S
O78 Zn63 1.905 . S
O78 C79 1.182 . S
C79 O77 1.166 . S
C79 O78 1.182 . S
O80 Zn65 2.080 . S
O80 C83 1.305 . S
O81 Zn64 1.920 . S
O81 C83 1.234 . S
C82 O68 1.305 . S
C82 O69 1.234 . S
C83 O80 1.305 . S
C83 O81 1.234 . S
Zn84 O90 1.920 . S
Zn84 O96 1.898 . S
Zn84 O99 1.905 . S
Zn85 O93 1.905 . S
Zn85 O94 1.898 . S
Zn85 O102 1.920 . S
Zn86 O89 2.080 . S
Zn86 O92 2.114 . S
Zn86 O95 2.120 . S
Zn86 O97 2.120 . S
Zn86 O98 2.114 . S
Zn86 O101 2.080 . S
C87 O92 1.166 . S
C87 O93 1.182 . S
C88 O94 1.167 . S
C88 O95 1.299 . S
O89 Zn86 2.080 . S
O89 C103 1.305 . S
O90 Zn84 1.920 . S
O90 C103 1.234 . S
C91 O96 1.167 . S
C91 O97 1.299 . S
O92 Zn86 2.114 . S
O92 C87 1.166 . S
O93 Zn85 1.905 . S
O93 C87 1.182 . S
O94 Zn85 1.898 . S
O94 C88 1.167 . S
O95 Zn86 2.120 . S
O95 C88 1.299 . S
O96 Zn84 1.898 . S
O96 C91 1.167 . S
O97 Zn86 2.120 . S
O97 C91 1.299 . S
O98 Zn86 2.114 . S
O98 C100 1.166 . S
O99 Zn84 1.905 . S
O99 C100 1.182 . S
C100 O98 1.166 . S
C100 O99 1.182 . S
O101 Zn86 2.080 . S
O101 C104 1.305 . S
O102 Zn85 1.920 . S
O102 C104 1.234 . S
C103 O89 1.305 . S
C103 O90 1.234 . S
C104 O101 1.305 . S
C104 O102 1.234 . S
Zn105 O111 1.920 . S
Zn105 O117 1.898 . S
Zn105 O120 1.905 . S
Zn106 O114 1.905 . S
Zn106 O115 1.898 . S
Zn106 O123 1.920 . S
Zn107 O110 2.080 . S
Zn107 O113 2.114 . S
Zn107 O116 2.120 . S
Zn107 O118 2.120 . S
Zn107 O119 2.114 . S
Zn107 O122 2.080 . S
C108 O113 1.166 . S
C108 O114 1.182 . S
C109 O115 1.167 . S
C109 O116 1.299 . S
O110 Zn107 2.080 . S
O110 C124 1.305 . S
O111 Zn105 1.920 . S
O111 C124 1.234 . S
C112 O117 1.167 . S
C112 O118 1.299 . S
O113 Zn107 2.114 . S
O113 C108 1.166 . S
O114 Zn106 1.905 . S
O114 C108 1.182 . S
O115 Zn106 1.898 . S
O115 C109 1.167 . S
O116 Zn107 2.120 . S
O116 C109 1.299 . S
O117 Zn105 1.898 . S
O117 C112 1.167 . S
O118 Zn107 2.120 . S
O118 C112 1.299 . S
O119 Zn107 2.114 . S
O119 C121 1.166 . S
O120 Zn105 1.905 . S
O120 C121 1.182 . S
C121 O119 1.166 . S
C121 O120 1.182 . S
O122 Zn107 2.080 . S
O122 C125 1.305 . S
O123 Zn106 1.920 . S
O123 C125 1.234 . S
C124 O110 1.305 . S
C124 O111 1.234 . S
C125 O122 1.305 . S
C125 O123 1.234 . S
Zn126 O132 1.920 . S
Zn126 O138 1.898 . S
Zn126 O141 1.905 . S
Zn127 O135 1.905 . S
Zn127 O136 1.898 . S
Zn127 O144 1.920 . S
Zn128 O131 2.080 . S
Zn128 O134 2.114 . S
Zn128 O137 2.120 . S
Zn128 O139 2.120 . S
Zn128 O140 2.114 . S
Zn128 O143 2.080 . S
C129 O134 1.166 . S
C129 O135 1.182 . S
C130 O136 1.167 . S
C130 O137 1.299 . S
O131 Zn128 2.080 . S
O131 C145 1.305 . S
O132 Zn126 1.920 . S
O132 C145 1.234 . S
C133 O138 1.167 . S
C133 O139 1.299 . S
O134 Zn128 2.114 . S
O134 C129 1.166 . S
O135 Zn127 1.905 . S
O135 C129 1.182 . S
O136 Zn127 1.898 . S
O136 C130 1.167 . S
O137 Zn128 2.120 . S
O137 C130 1.299 . S
O138 Zn126 1.898 . S
O138 C133 1.167 . S
O139 Zn128 2.120 . S
O139 C133 1.299 . S
O140 Zn128 2.114 . S
O140 C142 1.166 . S
O141 Zn126 1.905 . S
O141 C142 1.182 . S
C142 O140 1.166 . S
C142 O141 1.182 . S
O143 Zn128 2.080 . S
O143 C146 1.305 . S
O144 Zn127 1.920 . S
O144 C146 1.234 . S
C145 O131 1.305 . S
C145 O132 1.234 . S
C146 O143 1.305 . S
C146 O144 1.234 . S
Zn147 O153 1.920 . S
Zn147 O159 1.898 . S
Zn147 O162 1.905 . S
Zn148 O156 1.905 . S
Zn148 O157 1.898 . S
Zn148 O165 1.920 . S
Zn149 O152 2.080 . S
Zn149 O155 2.114 . S
Zn149 O158 2.120 . S
Zn149 O160 2.120 . S
Zn149 O161 2.114 . S
Zn149 O164 2.080 . S
C150 O155 1.166 . S
C150 O156 1.182 . S
C151 O157 1.167 . S
C151 O158 1.299 . S
O152 Zn149 2.080 . S
O152 C166 1.305 . S
O153 Zn147 1.920 . S
O153 C166 1.234 . S
C154 O159 1.167 . S
C154 O160 1.299 . S
O155 Zn149 2.114 . S
O155 C150 1.166 . S
O156 Zn148 1.905 . S
O156 C150 1.182 . S
O157 Zn148 1.898 . S
O157 C151 1.167 . S
O158 Zn149 2.120 . S
O158 C151 1.299 . S
O159 Zn147 1.898 . S
O159 C154 1.167 . S
O160 Zn149 2.120 . S
O160 C154 1.299 . S
O161 Zn149 2.114 . S
O161 C163 1.166 . S
O162 Zn147 1.905 . S
O162 C163 1.182 . S
C163 O161 1.166 . S
C163 O162 1.182 . S
O164 Zn149 2.080 . S
O164 C167 1.305 . S
O165 Zn148 1.920 . S
O165 C167 1.234 . S
C166 O152 1.305 . S
C166 O153 1.234 . S
C167 O164 1.305 . S
C167 O165 1.234 . S
Zn168 O174 1.920 . S
Zn168 O180 1.898 . S
Zn168 O183 1.905 . S
Zn169 O177 1.905 . S
Zn169 O178 1.898 . S
Zn169 O186 1.920 . S
Zn170 O173 2.080 . S
Zn170 O176 2.114 . S
Zn170 O179 2.120 . S
Zn170 O181 2.120 . S
Zn170 O182 2.114 . S
Zn170 O185 2.080 . S
C171 O176 1.166 . S
C171 O177 1.182 . S
C172 O178 1.167 . S
C172 O179 1.299 . S
O173 Zn170 2.080 . S
O173 C187 1.305 . S
O174 Zn168 1.920 . S
O174 C187 1.234 . S
C175 O180 1.167 . S
C175 O181 1.299 . S
O176 Zn170 2.114 . S
O176 C171 1.166 . S
O177 Zn169 1.905 . S
O177 C171 1.182 . S
O178 Zn169 1.898 . S
O178 C172 1.167 . S
O179 Zn170 2.120 . S
O179 C172 1.299 . S
O180 Zn168 1.898 . S
O180 C175 1.167 . S
O181 Zn170 2.120 . S
O181 C175 1.299 . S
O182 Zn170 2.114 . S
O182 C184 1.166 . S
O183 Zn168 1.905 . S
O183 C184 1.182 . S
C184 O182 1.166 . S
C184 O183 1.182 . S
O185 Zn170 2.080 . S
O185 C188 1.305 . S
O186 Zn169 1.920 . S
O186 C188 1.234 . S
C187 O173 1.305 . S
C187 O174 1.234 . S
C188 O185 1.305 . S
C188 O186 1.234 . S
Zn189 O195 1.920 . S
Zn189 O201 1.898 . S
Zn189 O204 1.905 . S
Zn190 O198 1.905 . S
Zn190 O199 1.898 . S
Zn190 O207 1.920 . S
Zn191 O194 2.080 . S
Zn191 O197 2.114 . S
Zn191 O200 2.120 . S
Zn191 O202 2.120 . S
Zn191 O203 2.114 . S
Zn191 O206 2.080 . S
C192 O197 1.166 . S
C192 O198 1.182 . S
C193 O199 1.167 . S
C193 O200 1.299 . S
O194 Zn191 2.080 . S
O194 C208 1.305 . S
O195 Zn189 1.920 . S
O195 C208 1.234 . S
C196 O201 1.167 . S
C196 O202 1.299 . S
O197 Zn191 2.114 . S
O197 C192 1.166 . S
O198 Zn190 1.905 . S
O198 C192 1.182 . S
O199 Zn190 1.898 . S
O199 C193 1.167 . S
O200 Zn191 2.120 . S
O200 C193 1.299 . S
O201 Zn189 1.898 . S
O201 C196 1.167 . S
O202 Zn191 2.120 . S
O202 C196 1.299 . S
O203 Zn191 2.114 . S
O203 C205 1.166 . S
O204 Zn189 1.905 . S
O204 C205 1.182 . S
C205 O203 1.166 . S
C205 O204 1.182 . S
O206 Zn191 2.080 . S
O206 C209 1.305 . S
O207 Zn190 1.920 . S
O207 C209 1.234 . S
C208 O194 1.305 . S
C208 O195 1.234 . S
C209 O206 1.305 . S
C209 O207 1.234 . S
Zn210 O216 1.920 . S
Zn210 O222 1.898 . S
Zn210 O225 1.905 . S
Zn211 O219 1.905 . S
Zn211 O220 1.898 . S
Zn211 O228 1.920 . S
Zn212 O215 2.080 . S
Zn212 O218 2.114 . S
Zn212 O221 2.120 . S
Zn212 O223 2.120 . S
Zn212 O224 2.114 . S
Zn212 O227 2.080 . S
C213 O218 1.166 . S
C213 O219 1.182 . S
C214 O220 1.167 . S
C214 O221 1.299 . S
O215 Zn212 2.080 . S
O215 C229 1.305 . S
O216 Zn210 1.920 . S
O216 C229 1.234 . S
C217 O222 1.167 . S
C217 O223 1.299 . S
O218 Zn212 2.114 . S
O218 C213 1.166 . S
O219 Zn211 1.905 . S
O219 C213 1.182 . S
O220 Zn211 1.898 . S
O220 C214 1.167 . S
O221 Zn212 2.120 . S
O221 C214 1.299 . S
O222 Zn210 1.898 . S
O222 C217 1.167 . S
O223 Zn212 2.120 . S
O223 C217 1.299 . S
O224 Zn212 2.114 . S
O224 C226 1.166 . S
O225 Zn210 1.905 . S
O225 C226 1.182 . S
C226 O224 1.166 . S
C226 O225 1.182 . S
O227 Zn212 2.080 . S
O227 C230 1.305 . S
O228 Zn211 1.920 . S
O228 C230 1.234 . S
C229 O215 1.305 . S
C229 O216 1.234 . S
C230 O227 1.305 . S
C230 O228 1.234 . S
Zn231 O237 1.920 . S
Zn231 O243 1.898 . S
Zn231 O246 1.905 . S
Zn232 O240 1.905 . S
Zn232 O241 1.898 . S
Zn232 O249 1.920 . S
Zn233 O236 2.080 . S
Zn233 O239 2.114 . S
Zn233 O242 2.120 . S
Zn233 O244 2.120 . S
Zn233 O245 2.114 . S
Zn233 O248 2.080 . S
C234 O239 1.166 . S
C234 O240 1.182 . S
C235 O241 1.167 . S
C235 O242 1.299 . S
O236 Zn233 2.080 . S
O236 C250 1.305 . S
O237 Zn231 1.920 . S
O237 C250 1.234 . S
C238 O243 1.167 . S
C238 O244 1.299 . S
O239 Zn233 2.114 . S
O239 C234 1.166 . S
O240 Zn232 1.905 . S
O240 C234 1.182 . S
O241 Zn232 1.898 . S
O241 C235 1.167 . S
O242 Zn233 2.120 . S
O242 C235 1.299 . S
O243 Zn231 1.898 . S
O243 C238 1.167 . S
O244 Zn233 2.120 . S
O244 C238 1.299 . S
O245 Zn233 2.114 . S
O245 C247 1.166 . S
O246 Zn231 1.905 . S
O246 C247 1.182 . S
C247 O245 1.166 . S
C247 O246 1.182 . S
O248 Zn233 2.080 . S
O248 C251 1.305 . S
O249 Zn232 1.920 . S
O249 C251 1.234 . S
C250 O236 1.305 . S
C250 O237 1.234 . S
C251 O248 1.305 . S
C251 O249 1.234 . S
C252 C253 1.349 . S
C252 C254 1.327 . S
C252 H277 0.950 . S
C253 C252 1.349 . S
C253 C269 1.349 . S
C254 C252 1.327 . S
C254 C273 1.429 . S
C254 H278 0.950 . S
C255 C272 1.574 . S
C255 C274 1.368 . S
C255 H279 0.949 . S
H256 C260 0.949 . S
C257 C258 1.349 . S
C257 C259 1.327 . S
C257 H280 0.950 . S
C258 C257 1.349 . S
C258 C270 1.349 . S
C259 C257 1.327 . S
C259 C275 1.429 . S
C259 H281 0.950 . S
C260 H256 0.949 . S
C260 C268 1.574 . S
C260 C276 1.368 . S
H261 C269 0.950 1_655 S
H262 C267 0.950 . S
H263 C268 0.949 . S
H264 C270 0.950 . S
H265 C271 0.950 . S
H266 C272 0.949 . S
C267 H262 0.950 . S
C267 C269 1.327 . S
C267 C273 1.429 . S
C268 C260 1.574 . S
C268 H263 0.949 . S
C268 C274 1.368 . S
C269 C253 1.349 . S
C269 H261 0.950 1_455 S
C269 C267 1.327 . S
C270 C258 1.349 . S
C270 H264 0.950 . S
C270 C271 1.327 . S
C271 H265 0.950 . S
C271 C270 1.327 . S
C271 C275 1.429 . S
C272 C255 1.574 . S
C272 H266 0.949 . S
C272 C276 1.368 . S
C273 C254 1.429 . S
C273 C267 1.429 . S
C273 C274 1.523 . S
C274 C255 1.368 . S
C274 C268 1.368 . S
C274 C273 1.523 . S
C275 C259 1.429 . S
C275 C271 1.429 . S
C275 C276 1.523 . S
C276 C260 1.368 . S
C276 C272 1.368 . S
C276 C275 1.523 . S
H277 C252 0.950 . S
H278 C254 0.950 . S
H279 C255 0.949 . S
H280 C257 0.950 . S
H281 C259 0.950 . S
C282 C283 1.349 . S
C282 C284 1.327 . S
C282 H307 0.950 . S
C283 C282 1.349 . S
C283 C299 1.349 . S
C284 C282 1.327 . S
C284 C303 1.429 . S
C284 H308 0.950 . S
C285 C302 1.574 . S
C285 C304 1.368 . S
C285 H309 0.949 . S
H286 C290 0.949 . S
C287 C288 1.349 . S
C287 C289 1.327 . S
C287 H310 0.950 . S
C288 C287 1.349 . S
C288 C300 1.349 . S
C289 C287 1.327 . S
C289 C305 1.429 . S
C289 H311 0.950 . S
C290 H286 0.949 . S
C290 C298 1.574 . S
C290 C306 1.368 . S
H291 C299 0.950 . S
H292 C297 0.950 . S
H293 C298 0.949 . S
H294 C300 0.950 . S
H295 C301 0.950 . S
H296 C302 0.949 . S
C297 H292 0.950 . S
C297 C299 1.327 . S
C297 C303 1.429 . S
C298 C290 1.574 . S
C298 H293 0.949 . S
C298 C304 1.368 . S
C299 C283 1.349 . S
C299 H291 0.950 . S
C299 C297 1.327 . S
C300 C288 1.349 . S
C300 H294 0.950 . S
C300 C301 1.327 . S
C301 H295 0.950 . S
C301 C300 1.327 . S
C301 C305 1.429 . S
C302 C285 1.574 . S
C302 H296 0.949 . S
C302 C306 1.368 . S
C303 C284 1.429 . S
C303 C297 1.429 . S
C303 C304 1.523 . S
C304 C285 1.368 . S
C304 C298 1.368 . S
C304 C303 1.523 . S
C305 C289 1.429 . S
C305 C301 1.429 . S
C305 C306 1.523 1_655 S
C306 C290 1.368 . S
C306 C302 1.368 . S
C306 C305 1.523 1_455 S
H307 C282 0.950 . S
H308 C284 0.950 . S
H309 C285 0.949 . S
H310 C287 0.950 . S
H311 C289 0.950 . S
C312 C313 1.349 . S
C312 C314 1.327 . S
C312 H337 0.950 . S
C313 C312 1.349 . S
C313 C329 1.349 . S
C314 C312 1.327 . S
C314 C333 1.429 . S
C314 H338 0.950 . S
C315 C332 1.574 . S
C315 C334 1.368 . S
C315 H339 0.949 . S
H316 C320 0.949 . S
C317 C318 1.349 . S
C317 C319 1.327 . S
C317 H340 0.950 . S
C318 C317 1.349 . S
C318 C330 1.349 . S
C319 C317 1.327 . S
C319 C335 1.429 . S
C319 H341 0.950 . S
C320 H316 0.949 . S
C320 C328 1.574 . S
C320 C336 1.368 . S
H321 C329 0.950 . S
H322 C327 0.950 . S
H323 C328 0.949 . S
H324 C330 0.950 . S
H325 C331 0.950 . S
H326 C332 0.949 . S
C327 H322 0.950 . S
C327 C329 1.327 . S
C327 C333 1.429 . S
C328 C320 1.574 . S
C328 H323 0.949 . S
C328 C334 1.368 . S
C329 C313 1.349 . S
C329 H321 0.950 . S
C329 C327 1.327 . S
C330 C318 1.349 . S
C330 H324 0.950 . S
C330 C331 1.327 . S
C331 H325 0.950 . S
C331 C330 1.327 . S
C331 C335 1.429 . S
C332 C315 1.574 . S
C332 H326 0.949 . S
C332 C336 1.368 . S
C333 C314 1.429 . S
C333 C327 1.429 . S
C333 C334 1.523 1_545 S
C334 C315 1.368 . S
C334 C328 1.368 . S
C334 C333 1.523 1_565 S
C335 C319 1.429 . S
C335 C331 1.429 . S
C335 C336 1.523 . S
C336 C320 1.368 . S
C336 C332 1.368 . S
C336 C335 1.523 . S
H337 C312 0.950 . S
H338 C314 0.950 . S
H339 C315 0.949 . S
H340 C317 0.950 . S
H341 C319 0.950 . S
C342 C343 1.349 . S
C342 C344 1.327 . S
C342 H367 0.950 . S
C343 C342 1.349 . S
C343 C359 1.349 . S
C344 C342 1.327 . S
C344 C363 1.429 . S
C344 H368 0.950 . S
C345 C362 1.574 . S
C345 C364 1.368 . S
C345 H369 0.949 . S
H346 C350 0.949 . S
C347 C348 1.349 . S
C347 C349 1.327 . S
C347 H370 0.950 1_455 S
C348 C347 1.349 . S
C348 C360 1.349 . S
C349 C347 1.327 . S
C349 C365 1.429 . S
C349 H371 0.950 . S
C350 H346 0.949 . S
C350 C358 1.574 . S
C350 C366 1.368 . S
H351 C359 0.950 . S
H352 C357 0.950 . S
H353 C358 0.949 . S
H354 C360 0.950 . S
H355 C361 0.950 . S
H356 C362 0.949 . S
C357 H352 0.950 . S
C357 C359 1.327 . S
C357 C363 1.429 . S
C358 C350 1.574 . S
C358 H353 0.949 . S
C358 C364 1.368 . S
C359 C343 1.349 . S
C359 H351 0.950 . S
C359 C357 1.327 . S
C360 C348 1.349 . S
C360 H354 0.950 . S
C360 C361 1.327 . S
C361 H355 0.950 . S
C361 C360 1.327 . S
C361 C365 1.429 . S
C362 C345 1.574 . S
C362 H356 0.949 . S
C362 C366 1.368 . S
C363 C344 1.429 . S
C363 C357 1.429 . S
C363 C364 1.523 . S
C364 C345 1.368 . S
C364 C358 1.368 . S
C364 C363 1.523 . S
C365 C349 1.429 . S
C365 C361 1.429 . S
C365 C366 1.523 . S
C366 C350 1.368 . S
C366 C362 1.368 . S
C366 C365 1.523 . S
H367 C342 0.950 . S
H368 C344 0.950 . S
H369 C345 0.949 . S
H370 C347 0.950 1_655 S
H371 C349 0.950 . S
C372 C373 1.349 . S
C372 C374 1.327 . S
C372 H397 0.950 . S
C373 C372 1.349 . S
C373 C389 1.349 . S
C374 C372 1.327 . S
C374 C393 1.429 . S
C374 H398 0.950 . S
C375 C392 1.574 . S
C375 C394 1.368 . S
C375 H399 0.949 . S
H376 C380 0.949 . S
C377 C378 1.349 . S
C377 C379 1.327 . S
C377 H400 0.950 . S
C378 C377 1.349 . S
C378 C390 1.349 . S
C379 C377 1.327 . S
C379 C395 1.429 . S
C379 H401 0.950 . S
C380 H376 0.949 . S
C380 C388 1.574 . S
C380 C396 1.368 . S
H381 C389 0.950 1_545 S
H382 C387 0.950 . S
H383 C388 0.949 . S
H384 C390 0.950 . S
H385 C391 0.950 . S
H386 C392 0.949 . S
C387 H382 0.950 . S
C387 C389 1.327 . S
C387 C393 1.429 . S
C388 C380 1.574 . S
C388 H383 0.949 . S
C388 C394 1.368 . S
C389 C373 1.349 . S
C389 H381 0.950 1_565 S
C389 C387 1.327 . S
C390 C378 1.349 . S
C390 H384 0.950 . S
C390 C391 1.327 . S
C391 H385 0.950 . S
C391 C390 1.327 . S
C391 C395 1.429 . S
C392 C375 1.574 . S
C392 H386 0.949 . S
C392 C396 1.368 . S
C393 C374 1.429 . S
C393 C387 1.429 . S
C393 C394 1.523 . S
C394 C375 1.368 . S
C394 C388 1.368 . S
C394 C393 1.523 . S
C395 C379 1.429 . S
C395 C391 1.429 . S
C395 C396 1.523 1_655 S
C396 C380 1.368 . S
C396 C392 1.368 . S
C396 C395 1.523 1_455 S
H397 C372 0.950 . S
H398 C374 0.950 . S
H399 C375 0.949 . S
H400 C377 0.950 . S
H401 C379 0.950 . S
C402 C403 1.349 . S
C402 C404 1.327 . S
C402 H427 0.950 . S
C403 C402 1.349 . S
C403 C419 1.349 . S
C404 C402 1.327 . S
C404 C423 1.429 . S
C404 H428 0.950 . S
C405 C422 1.574 . S
C405 C424 1.368 . S
C405 H429 0.949 . S
H406 C410 0.949 . S
C407 C408 1.349 . S
C407 C409 1.327 . S
C407 H430 0.950 . S
C408 C407 1.349 . S
C408 C420 1.349 . S
C409 C407 1.327 . S
C409 C425 1.429 . S
C409 H431 0.950 . S
C410 H406 0.949 . S
C410 C418 1.574 . S
C410 C426 1.368 . S
H411 C419 0.950 . S
H412 C417 0.950 . S
H413 C418 0.949 . S
H414 C420 0.950 . S
H415 C421 0.950 . S
H416 C422 0.949 . S
C417 H412 0.950 . S
C417 C419 1.327 . S
C417 C423 1.429 . S
C418 C410 1.574 . S
C418 H413 0.949 . S
C418 C424 1.368 . S
C419 C403 1.349 . S
C419 H411 0.950 . S
C419 C417 1.327 . S
C420 C408 1.349 . S
C420 H414 0.950 . S
C420 C421 1.327 . S
C421 H415 0.950 . S
C421 C420 1.327 . S
C421 C425 1.429 . S
C422 C405 1.574 . S
C422 H416 0.949 . S
C422 C426 1.368 . S
C423 C404 1.429 . S
C423 C417 1.429 . S
C423 C424 1.523 . S
C424 C405 1.368 . S
C424 C418 1.368 . S
C424 C423 1.523 . S
C425 C409 1.429 . S
C425 C421 1.429 . S
C425 C426 1.523 1_545 S
C426 C410 1.368 . S
C426 C422 1.368 . S
C426 C425 1.523 1_565 S
H427 C402 0.950 . S
H428 C404 0.950 . S
H429 C405 0.949 . S
H430 C407 0.950 . S
H431 C409 0.950 . S
C432 C433 1.349 . S
C432 C434 1.327 . S
C432 H457 0.950 1_545 S
C433 C432 1.349 . S
C433 C449 1.349 . S
C434 C432 1.327 . S
C434 C453 1.429 . S
C434 H458 0.950 . S
C435 C452 1.574 . S
C435 C454 1.368 . S
C435 H459 0.949 . S
H436 C440 0.949 . S
C437 C438 1.349 . S
C437 C439 1.327 . S
C437 H460 0.950 . S
C438 C437 1.349 . S
C438 C450 1.349 . S
C439 C437 1.327 . S
C439 C455 1.429 . S
C439 H461 0.950 . S
C440 H436 0.949 . S
C440 C448 1.574 . S
C440 C456 1.368 . S
H441 C449 0.950 . S
H442 C447 0.950 . S
H443 C448 0.949 . S
H444 C450 0.950 . S
H445 C451 0.950 . S
H446 C452 0.949 . S
C447 H442 0.950 . S
C447 C449 1.327 . S
C447 C453 1.429 . S
C448 C440 1.574 . S
C448 H443 0.949 . S
C448 C454 1.368 . S
C449 C433 1.349 . S
C449 H441 0.950 . S
C449 C447 1.327 . S
C450 C438 1.349 . S
C450 H444 0.950 . S
C450 C451 1.327 . S
C451 H445 0.950 . S
C451 C450 1.327 . S
C451 C455 1.429 . S
C452 C435 1.574 . S
C452 H446 0.949 . S
C452 C456 1.368 . S
C453 C434 1.429 . S
C453 C447 1.429 . S
C453 C454 1.523 . S
C454 C435 1.368 . S
C454 C448 1.368 . S
C454 C453 1.523 . S
C455 C439 1.429 . S
C455 C451 1.429 . S
C455 C456 1.523 . S
C456 C440 1.368 . S
C456 C452 1.368 . S
C456 C455 1.523 . S
H457 C432 0.950 1_565 S
H458 C434 0.950 . S
H459 C435 0.949 . S
H460 C437 0.950 . S
H461 C439 0.950 . S
C462 C463 1.349 . S
C462 C464 1.327 . S
C462 H487 0.950 . S
C463 C462 1.349 . S
C463 C479 1.349 . S
C464 C462 1.327 . S
C464 C483 1.429 . S
C464 H488 0.950 . S
C465 C482 1.574 . S
C465 C484 1.368 . S
C465 H489 0.949 . S
H466 C470 0.949 . S
C467 C468 1.349 . S
C467 C469 1.327 . S
C467 H490 0.950 . S
C468 C467 1.349 . S
C468 C480 1.349 . S
C469 C467 1.327 . S
C469 C485 1.429 . S
C469 H491 0.950 . S
C470 H466 0.949 . S
C470 C478 1.574 . S
C470 C486 1.368 . S
H471 C479 0.950 . S
H472 C477 0.950 . S
H473 C478 0.949 . S
H474 C480 0.950 . S
H475 C481 0.950 . S
H476 C482 0.949 . S
C477 H472 0.950 . S
C477 C479 1.327 . S
C477 C483 1.429 . S
C478 C470 1.574 . S
C478 H473 0.949 . S
C478 C484 1.368 . S
C479 C463 1.349 . S
C479 H471 0.950 . S
C479 C477 1.327 . S
C480 C468 1.349 . S
C480 H474 0.950 . S
C480 C481 1.327 . S
C481 H475 0.950 . S
C481 C480 1.327 . S
C481 C485 1.429 . S
C482 C465 1.574 . S
C482 H476 0.949 . S
C482 C486 1.368 . S
C483 C464 1.429 . S
C483 C477 1.429 . S
C483 C484 1.523 1_455 S
C484 C465 1.368 . S
C484 C478 1.368 . S
C484 C483 1.523 1_655 S
C485 C469 1.429 . S
C485 C481 1.429 . S
C485 C486 1.523 . S
C486 C470 1.368 . S
C486 C482 1.368 . S
C486 C485 1.523 . S
H487 C462 0.950 . S
H488 C464 0.950 . S
H489 C465 0.949 . S
H490 C467 0.950 . S
H491 C469 0.950 . S
C492 C493 1.349 . S
C492 C494 1.327 . S
C492 H517 0.950 . S
C493 C492 1.349 . S
C493 C509 1.349 . S
C494 C492 1.327 . S
C494 C513 1.429 . S
C494 H518 0.950 . S
C495 C512 1.574 . S
C495 C514 1.368 . S
C495 H519 0.949 . S
H496 C500 0.949 . S
C497 C498 1.349 . S
C497 C499 1.327 . S
C497 H520 0.950 1_655 S
C498 C497 1.349 . S
C498 C510 1.349 . S
C499 C497 1.327 . S
C499 C515 1.429 . S
C499 H521 0.950 . S
C500 H496 0.949 . S
C500 C508 1.574 . S
C500 C516 1.368 . S
H501 C509 0.950 . S
H502 C507 0.950 . S
H503 C508 0.949 . S
H504 C510 0.950 . S
H505 C511 0.950 . S
H506 C512 0.949 . S
C507 H502 0.950 . S
C507 C509 1.327 . S
C507 C513 1.429 . S
C508 C500 1.574 . S
C508 H503 0.949 . S
C508 C514 1.368 . S
C509 C493 1.349 . S
C509 H501 0.950 . S
C509 C507 1.327 . S
C510 C498 1.349 . S
C510 H504 0.950 . S
C510 C511 1.327 . S
C511 H505 0.950 . S
C511 C510 1.327 . S
C511 C515 1.429 . S
C512 C495 1.574 . S
C512 H506 0.949 . S
C512 C516 1.368 . S
C513 C494 1.429 . S
C513 C507 1.429 . S
C513 C514 1.523 1_565 S
C514 C495 1.368 . S
C514 C508 1.368 . S
C514 C513 1.523 1_545 S
C515 C499 1.429 . S
C515 C511 1.429 . S
C515 C516 1.523 . S
C516 C500 1.368 . S
C516 C512 1.368 . S
C516 C515 1.523 . S
H517 C492 0.950 . S
H518 C494 0.950 . S
H519 C495 0.949 . S
H520 C497 0.950 1_455 S
H521 C499 0.950 . S
C522 C523 1.349 . S
C522 C524 1.327 . S
C522 H547 0.950 . S
C523 C522 1.349 . S
C523 C539 1.349 . S
C524 C522 1.327 . S
C524 C543 1.429 . S
C524 H548 0.950 . S
C525 C542 1.574 . S
C525 C544 1.368 . S
C525 H549 0.949 . S
H526 C530 0.949 . S
C527 C528 1.349 . S
C527 C529 1.327 . S
C527 H550 0.950 1_545 S
C528 C527 1.349 . S
C528 C540 1.349 . S
C529 C527 1.327 . S
C529 C545 1.429 . S
C529 H551 0.950 . S
C530 H526 0.949 . S
C530 C538 1.574 . S
C530 C546 1.368 . S
H531 C539 0.950 . S
H532 C537 0.950 . S
H533 C538 0.949 . S
H534 C540 0.950 . S
H535 C541 0.950 . S
H536 C542 0.949 . S
C537 H532 0.950 . S
C537 C539 1.327 . S
C537 C543 1.429 . S
C538 C530 1.574 . S
C538 H533 0.949 . S
C538 C544 1.368 . S
C539 C523 1.349 . S
C539 H531 0.950 . S
C539 C537 1.327 . S
C540 C528 1.349 . S
C540 H534 0.950 . S
C540 C541 1.327 . S
C541 H535 0.950 . S
C541 C540 1.327 . S
C541 C545 1.429 . S
C542 C525 1.574 . S
C542 H536 0.949 . S
C542 C546 1.368 . S
C543 C524 1.429 . S
C543 C537 1.429 . S
C543 C544 1.523 . S
C544 C525 1.368 . S
C544 C538 1.368 . S
C544 C543 1.523 . S
C545 C529 1.429 . S
C545 C541 1.429 . S
C545 C546 1.523 . S
C546 C530 1.368 . S
C546 C542 1.368 . S
C546 C545 1.523 . S
H547 C522 0.950 . S
H548 C524 0.950 . S
H549 C525 0.949 . S
H550 C527 0.950 1_565 S
H551 C529 0.950 . S
C552 C553 1.349 . S
C552 C554 1.327 . S
C552 H577 0.950 . S
C553 C552 1.349 . S
C553 C569 1.349 . S
C554 C552 1.327 . S
C554 C573 1.429 . S
C554 H578 0.950 . S
C555 C572 1.574 . S
C555 C574 1.368 . S
C555 H579 0.949 . S
H556 C560 0.949 . S
C557 C558 1.349 . S
C557 C559 1.327 . S
C557 H580 0.950 . S
C558 C557 1.349 . S
C558 C570 1.349 . S
C559 C557 1.327 . S
C559 C575 1.429 . S
C559 H581 0.950 . S
C560 H556 0.949 . S
C560 C568 1.574 . S
C560 C576 1.368 . S
H561 C569 0.950 . S
H562 C567 0.950 . S
H563 C568 0.949 . S
H564 C570 0.950 . S
H565 C571 0.950 . S
H566 C572 0.949 . S
C567 H562 0.950 . S
C567 C569 1.327 . S
C567 C573 1.429 . S
C568 C560 1.574 . S
C568 H563 0.949 . S
C568 C574 1.368 . S
C569 C553 1.349 . S
C569 H561 0.950 . S
C569 C567 1.327 . S
C570 C558 1.349 . S
C570 H564 0.950 . S
C570 C571 1.327 . S
C571 H565 0.950 . S
C571 C570 1.327 . S
C571 C575 1.429 . S
C572 C555 1.574 . S
C572 H566 0.949 . S
C572 C576 1.368 . S
C573 C554 1.429 . S
C573 C567 1.429 . S
C573 C574 1.523 1_455 S
C574 C555 1.368 . S
C574 C568 1.368 . S
C574 C573 1.523 1_655 S
C575 C559 1.429 . S
C575 C571 1.429 . S
C575 C576 1.523 . S
C576 C560 1.368 . S
C576 C572 1.368 . S
C576 C575 1.523 . S
H577 C552 0.950 . S
H578 C554 0.950 . S
H579 C555 0.949 . S
H580 C557 0.950 . S
H581 C559 0.950 . S
C582 C583 1.349 . S
C582 C584 1.327 . S
C582 H607 0.950 . S
C583 C582 1.349 . S
C583 C599 1.349 . S
C584 C582 1.327 . S
C584 C603 1.429 . S
C584 H608 0.950 . S
C585 C602 1.574 . S
C585 C604 1.368 . S
C585 H609 0.949 . S
H586 C590 0.949 . S
C587 C588 1.349 . S
C587 C589 1.327 . S
C587 H610 0.950 . S
C588 C587 1.349 . S
C588 C600 1.349 . S
C589 C587 1.327 . S
C589 C605 1.429 . S
C589 H611 0.950 . S
C590 H586 0.949 . S
C590 C598 1.574 . S
C590 C606 1.368 . S
H591 C599 0.950 1_455 S
H592 C597 0.950 . S
H593 C598 0.949 . S
H594 C600 0.950 . S
H595 C601 0.950 . S
H596 C602 0.949 . S
C597 H592 0.950 . S
C597 C599 1.327 . S
C597 C603 1.429 . S
C598 C590 1.574 . S
C598 H593 0.949 . S
C598 C604 1.368 . S
C599 C583 1.349 . S
C599 H591 0.950 1_655 S
C599 C597 1.327 . S
C600 C588 1.349 . S
C600 H594 0.950 . S
C600 C601 1.327 . S
C601 H595 0.950 . S
C601 C600 1.327 . S
C601 C605 1.429 . S
C602 C585 1.574 . S
C602 H596 0.949 . S
C602 C606 1.368 . S
C603 C584 1.429 . S
C603 C597 1.429 . S
C603 C604 1.523 . S
C604 C585 1.368 . S
C604 C598 1.368 . S
C604 C603 1.523 . S
C605 C589 1.429 . S
C605 C601 1.429 . S
C605 C606 1.523 1_565 S
C606 C590 1.368 . S
C606 C602 1.368 . S
C606 C605 1.523 1_545 S
H607 C582 0.950 . S
H608 C584 0.950 . S
H609 C585 0.949 . S
H610 C587 0.950 . S
H611 C589 0.950 . S
C612 C613 1.349 . S
C612 C614 1.327 . S
C612 H637 0.950 . S
C613 C612 1.349 . S
C613 C629 1.349 . S
C614 C612 1.327 . S
C614 C633 1.429 . S
C614 H638 0.950 . S
C615 C632 1.574 . S
C615 C634 1.368 . S
C615 H639 0.949 . S
H616 C620 0.949 . S
C617 C618 1.349 . S
C617 C619 1.327 . S
C617 H640 0.950 . S
C618 C617 1.349 . S
C618 C630 1.349 . S
C619 C617 1.327 . S
C619 C635 1.429 . S
C619 H641 0.950 . S
C620 H616 0.949 . S
C620 C628 1.574 . S
C620 C636 1.368 . S
H621 C629 0.950 . S
H622 C627 0.950 . S
H623 C628 0.949 . S
H624 C630 0.950 . S
H625 C631 0.950 . S
H626 C632 0.949 . S
C627 H622 0.950 . S
C627 C629 1.327 . S
C627 C633 1.429 . S
C628 C620 1.574 . S
C628 H623 0.949 . S
C628 C634 1.368 . S
C629 C613 1.349 . S
C629 H621 0.950 . S
C629 C627 1.327 . S
C630 C618 1.349 . S
C630 H624 0.950 . S
C630 C631 1.327 . S
C631 H625 0.950 . S
C631 C630 1.327 . S
C631 C635 1.429 . S
C632 C615 1.574 . S
C632 H626 0.949 . S
C632 C636 1.368 . S
C633 C614 1.429 . S
C633 C627 1.429 . S
C633 C634 1.523 . S
C634 C615 1.368 . S
C634 C628 1.368 . S
C634 C633 1.523 . S
C635 C619 1.429 . S
C635 C631 1.429 . S
C635 C636 1.523 . S
C636 C620 1.368 . S
C636 C632 1.368 . S
C636 C635 1.523 . S
H637 C612 0.950 . S
H638 C614 0.950 . S
H639 C615 0.949 . S
H640 C617 0.950 . S
H641 C619 0.950 . S
C642 C643 1.349 . S
C642 C644 1.327 . S
C642 H667 0.950 . S
C643 C642 1.349 . S
C643 C659 1.349 . S
C644 C642 1.327 . S
C644 C663 1.429 . S
C644 H668 0.950 . S
C645 C662 1.574 . S
C645 C664 1.368 . S
C645 H669 0.949 . S
H646 C650 0.949 . S
C647 C648 1.349 . S
C647 C649 1.327 . S
C647 H670 0.950 . S
C648 C647 1.349 . S
C648 C660 1.349 . S
C649 C647 1.327 . S
C649 C665 1.429 . S
C649 H671 0.950 . S
C650 H646 0.949 . S
C650 C658 1.574 . S
C650 C666 1.368 . S
H651 C659 0.950 . S
H652 C657 0.950 . S
H653 C658 0.949 . S
H654 C660 0.950 . S
H655 C661 0.950 . S
H656 C662 0.949 . S
C657 H652 0.950 . S
C657 C659 1.327 . S
C657 C663 1.429 . S
C658 C650 1.574 . S
C658 H653 0.949 . S
C658 C664 1.368 . S
C659 C643 1.349 . S
C659 H651 0.950 . S
C659 C657 1.327 . S
C660 C648 1.349 . S
C660 H654 0.950 . S
C660 C661 1.327 . S
C661 H655 0.950 . S
C661 C660 1.327 . S
C661 C665 1.429 . S
C662 C645 1.574 . S
C662 H656 0.949 . S
C662 C666 1.368 . S
C663 C644 1.429 . S
C663 C657 1.429 . S
C663 C664 1.523 . S
C664 C645 1.368 . S
C664 C658 1.368 . S
C664 C663 1.523 . S
C665 C649 1.429 . S
C665 C661 1.429 . S
C665 C666 1.523 . S
C666 C650 1.368 . S
C666 C662 1.368 . S
C666 C665 1.523 . S
H667 C642 0.950 . S
H668 C644 0.950 . S
H669 C645 0.949 . S
H670 C647 0.950 . S
H671 C649 0.950 . S
C672 C673 1.349 . S
C672 C674 1.327 . S
C672 H697 0.950 . S
C673 C672 1.349 . S
C673 C689 1.349 . S
C674 C672 1.327 . S
C674 C693 1.429 . S
C674 H698 0.950 . S
C675 C692 1.574 . S
C675 C694 1.368 . S
C675 H699 0.949 . S
H676 C680 0.949 . S
C677 C678 1.349 . S
C677 C679 1.327 . S
C677 H700 0.950 . S
C678 C677 1.349 . S
C678 C690 1.349 . S
C679 C677 1.327 . S
C679 C695 1.429 . S
C679 H701 0.950 . S
C680 H676 0.949 . S
C680 C688 1.574 . S
C680 C696 1.368 . S
H681 C689 0.950 . S
H682 C687 0.950 . S
H683 C688 0.949 . S
H684 C690 0.950 . S
H685 C691 0.950 . S
H686 C692 0.949 . S
C687 H682 0.950 . S
C687 C689 1.327 . S
C687 C693 1.429 . S
C688 C680 1.574 . S
C688 H683 0.949 . S
C688 C694 1.368 . S
C689 C673 1.349 . S
C689 H681 0.950 . S
C689 C687 1.327 . S
C690 C678 1.349 . S
C690 H684 0.950 . S
C690 C691 1.327 . S
C691 H685 0.950 . S
C691 C690 1.327 . S
C691 C695 1.429 . S
C692 C675 1.574 . S
C692 H686 0.949 . S
C692 C696 1.368 . S
C693 C674 1.429 . S
C693 C687 1.429 . S
C693 C694 1.523 . S
C694 C675 1.368 . S
C694 C688 1.368 . S
C694 C693 1.523 . S
C695 C679 1.429 . S
C695 C691 1.429 . S
C695 C696 1.523 . S
C696 C680 1.368 . S
C696 C692 1.368 . S
C696 C695 1.523 . S
H697 C672 0.950 . S
H698 C674 0.950 . S
H699 C675 0.949 . S
H700 C677 0.950 . S
H701 C679 0.950 . S
C702 C703 1.349 . S
C702 C704 1.327 . S
C702 H727 0.950 . S
C703 C702 1.349 . S
C703 C719 1.349 . S
C704 C702 1.327 . S
C704 C723 1.429 . S
C704 H728 0.950 . S
C705 C722 1.574 . S
C705 C724 1.368 . S
C705 H729 0.949 . S
H706 C710 0.949 . S
C707 C708 1.349 . S
C707 C709 1.327 . S
C707 H730 0.950 . S
C708 C707 1.349 . S
C708 C720 1.349 . S
C709 C707 1.327 . S
C709 C725 1.429 . S
C709 H731 0.950 . S
C710 H706 0.949 . S
C710 C718 1.574 . S
C710 C726 1.368 . S
H711 C719 0.950 . S
H712 C717 0.950 . S
H713 C718 0.949 . S
H714 C720 0.950 . S
H715 C721 0.950 . S
H716 C722 0.949 . S
C717 H712 0.950 . S
C717 C719 1.327 . S
C717 C723 1.429 . S
C718 C710 1.574 . S
C718 H713 0.949 . S
C718 C724 1.368 . S
C719 C703 1.349 . S
C719 H711 0.950 . S
C719 C717 1.327 . S
C720 C708 1.349 . S
C720 H714 0.950 . S
C720 C721 1.327 . S
C721 H715 0.950 . S
C721 C720 1.327 . S
C721 C725 1.429 . S
C722 C705 1.574 . S
C722 H716 0.949 . S
C722 C726 1.368 . S
C723 C704 1.429 . S
C723 C717 1.429 . S
C723 C724 1.523 . S
C724 C705 1.368 . S
C724 C718 1.368 . S
C724 C723 1.523 . S
C725 C709 1.429 . S
C725 C721 1.429 . S
C725 C726 1.523 . S
C726 C710 1.368 . S
C726 C722 1.368 . S
C726 C725 1.523 . S
H727 C702 0.950 . S
H728 C704 0.950 . S
H729 C705 0.949 . S
H730 C707 0.950 . S
H731 C709 0.950 . S
C732 C733 1.349 . S
C732 C734 1.327 . S
C732 H757 0.950 . S
C733 C732 1.349 . S
C733 C749 1.349 . S
C734 C732 1.327 . S
C734 C753 1.429 . S
C734 H758 0.950 . S
C735 C752 1.574 . S
C735 C754 1.368 . S
C735 H759 0.949 . S
H736 C740 0.949 . S
C737 C738 1.349 . S
C737 C739 1.327 . S
C737 H760 0.950 . S
C738 C737 1.349 . S
C738 C750 1.349 . S
C739 C737 1.327 . S
C739 C755 1.429 . S
C739 H761 0.950 . S
C740 H736 0.949 . S
C740 C748 1.574 . S
C740 C756 1.368 . S
H741 C749 0.950 . S
H742 C747 0.950 . S
H743 C748 0.949 . S
H744 C750 0.950 . S
H745 C751 0.950 . S
H746 C752 0.949 . S
C747 H742 0.950 . S
C747 C749 1.327 . S
C747 C753 1.429 . S
C748 C740 1.574 . S
C748 H743 0.949 . S
C748 C754 1.368 . S
C749 C733 1.349 . S
C749 H741 0.950 . S
C749 C747 1.327 . S
C750 C738 1.349 . S
C750 H744 0.950 . S
C750 C751 1.327 . S
C751 H745 0.950 . S
C751 C750 1.327 . S
C751 C755 1.429 . S
C752 C735 1.574 . S
C752 H746 0.949 . S
C752 C756 1.368 . S
C753 C734 1.429 . S
C753 C747 1.429 . S
C753 C754 1.523 . S
C754 C735 1.368 . S
C754 C748 1.368 . S
C754 C753 1.523 . S
C755 C739 1.429 . S
C755 C751 1.429 . S
C755 C756 1.523 . S
C756 C740 1.368 . S
C756 C752 1.368 . S
C756 C755 1.523 . S
H757 C732 0.950 . S
H758 C734 0.950 . S
H759 C735 0.949 . S
H760 C737 0.950 . S
H761 C739 0.950 . S
C762 C763 1.349 . S
C762 C764 1.327 . S
C762 H787 0.950 . S
C763 C762 1.349 . S
C763 C779 1.349 . S
C764 C762 1.327 . S
C764 C783 1.429 . S
C764 H788 0.950 . S
C765 C782 1.574 . S
C765 C784 1.368 . S
C765 H789 0.949 . S
H766 C770 0.949 . S
C767 C768 1.349 . S
C767 C769 1.327 . S
C767 H790 0.950 . S
C768 C767 1.349 . S
C768 C780 1.349 . S
C769 C767 1.327 . S
C769 C785 1.429 . S
C769 H791 0.950 . S
C770 H766 0.949 . S
C770 C778 1.574 . S
C770 C786 1.368 . S
H771 C779 0.950 . S
H772 C777 0.950 . S
H773 C778 0.949 . S
H774 C780 0.950 . S
H775 C781 0.950 . S
H776 C782 0.949 . S
C777 H772 0.950 . S
C777 C779 1.327 . S
C777 C783 1.429 . S
C778 C770 1.574 . S
C778 H773 0.949 . S
C778 C784 1.368 . S
C779 C763 1.349 . S
C779 H771 0.950 . S
C779 C777 1.327 . S
C780 C768 1.349 . S
C780 H774 0.950 . S
C780 C781 1.327 . S
C781 H775 0.950 . S
C781 C780 1.327 . S
C781 C785 1.429 . S
C782 C765 1.574 . S
C782 H776 0.949 . S
C782 C786 1.368 . S
C783 C764 1.429 . S
C783 C777 1.429 . S
C783 C784 1.523 . S
C784 C765 1.368 . S
C784 C778 1.368 . S
C784 C783 1.523 . S
C785 C769 1.429 . S
C785 C781 1.429 . S
C785 C786 1.523 . S
C786 C770 1.368 . S
C786 C782 1.368 . S
C786 C785 1.523 . S
H787 C762 0.950 . S
H788 C764 0.950 . S
H789 C765 0.949 . S
H790 C767 0.950 . S
H791 C769 0.950 . S
C792 C793 1.349 . S
C792 C794 1.327 . S
C792 H817 0.950 . S
C793 C792 1.349 . S
C793 C809 1.349 . S
C794 C792 1.327 . S
C794 C813 1.429 . S
C794 H818 0.950 1_565 S
C795 C812 1.574 1_556 S
C795 C814 1.368 . S
C795 H819 0.949 . S
H796 C800 0.949 . S
C797 C798 1.349 . S
C797 C799 1.327 . S
C797 H820 0.950 . S
C798 C797 1.349 . S
C798 C810 1.349 . S
C799 C797 1.327 . S
C799 C815 1.429 . S
C799 H821 0.950 1_545 S
C800 H796 0.949 . S
C800 C808 1.574 1_554 S
C800 C816 1.368 . S
H801 C809 0.950 . S
H802 C807 0.950 . S
H803 C808 0.949 . S
H804 C810 0.950 . S
H805 C811 0.950 . S
H806 C812 0.949 . S
C807 H802 0.950 . S
C807 C809 1.327 . S
C807 C813 1.429 . S
C808 C800 1.574 1_556 S
C808 H803 0.949 . S
C808 C814 1.368 1_545 S
C809 C793 1.349 . S
C809 H801 0.950 . S
C809 C807 1.327 . S
C810 C798 1.349 . S
C810 H804 0.950 . S
C810 C811 1.327 . S
C811 H805 0.950 . S
C811 C810 1.327 . S
C811 C815 1.429 . S
C812 C795 1.574 1_554 S
C812 H806 0.949 . S
C812 C816 1.368 1_565 S
C813 C794 1.429 . S
C813 C807 1.429 . S
C813 C814 1.523 . S
C814 C795 1.368 . S
C814 C808 1.368 1_565 S
C814 C813 1.523 . S
C815 C799 1.429 . S
C815 C811 1.429 . S
C815 C816 1.523 . S
C816 C800 1.368 . S
C816 C812 1.368 1_545 S
C816 C815 1.523 . S
H817 C792 0.950 . S
H818 C794 0.950 1_545 S
H819 C795 0.949 . S
H820 C797 0.950 . S
H821 C799 0.950 1_565 S
C822 C823 1.349 . S
C822 C824 1.327 . S
C822 H847 0.950 . S
C823 C822 1.349 . S
C823 C839 1.349 . S
C824 C822 1.327 . S
C824 C843 1.429 . S
C824 H848 0.950 . S
C825 C842 1.574 . S
C825 C844 1.368 . S
C825 H849 0.949 . S
H826 C830 0.949 . S
C827 C828 1.349 . S
C827 C829 1.327 . S
C827 H850 0.950 . S
C828 C827 1.349 . S
C828 C840 1.349 . S
C829 C827 1.327 . S
C829 C845 1.429 . S
C829 H851 0.950 . S
C830 H826 0.949 . S
C830 C838 1.574 . S
C830 C846 1.368 . S
H831 C839 0.950 . S
H832 C837 0.950 . S
H833 C838 0.949 . S
H834 C840 0.950 . S
H835 C841 0.950 . S
H836 C842 0.949 . S
C837 H832 0.950 . S
C837 C839 1.327 . S
C837 C843 1.429 . S
C838 C830 1.574 . S
C838 H833 0.949 . S
C838 C844 1.368 . S
C839 C823 1.349 . S
C839 H831 0.950 . S
C839 C837 1.327 . S
C840 C828 1.349 . S
C840 H834 0.950 . S
C840 C841 1.327 . S
C841 H835 0.950 . S
C841 C840 1.327 . S
C841 C845 1.429 . S
C842 C825 1.574 . S
C842 H836 0.949 . S
C842 C846 1.368 . S
C843 C824 1.429 . S
C843 C837 1.429 . S
C843 C844 1.523 . S
C844 C825 1.368 . S
C844 C838 1.368 . S
C844 C843 1.523 . S
C845 C829 1.429 . S
C845 C841 1.429 . S
C845 C846 1.523 . S
C846 C830 1.368 . S
C846 C842 1.368 . S
C846 C845 1.523 . S
H847 C822 0.950 . S
H848 C824 0.950 . S
H849 C825 0.949 . S
H850 C827 0.950 . S
H851 C829 0.950 . S
C852 C853 1.349 . S
C852 C854 1.327 . S
C852 H877 0.950 . S
C853 C852 1.349 . S
C853 C869 1.349 . S
C854 C852 1.327 . S
C854 C873 1.429 . S
C854 H878 0.950 . S
C855 C872 1.574 1_556 S
C855 C874 1.368 1_655 S
C855 H879 0.949 . S
H856 C860 0.949 . S
C857 C858 1.349 . S
C857 C859 1.327 . S
C857 H880 0.950 . S
C858 C857 1.349 . S
C858 C870 1.349 . S
C859 C857 1.327 . S
C859 C875 1.429 . S
C859 H881 0.950 . S
C860 H856 0.949 . S
C860 C868 1.574 1_554 S
C860 C876 1.368 1_455 S
H861 C869 0.950 . S
H862 C867 0.950 . S
H863 C868 0.949 . S
H864 C870 0.950 . S
H865 C871 0.950 . S
H866 C872 0.949 . S
C867 H862 0.950 . S
C867 C869 1.327 . S
C867 C873 1.429 . S
C868 C860 1.574 1_556 S
C868 H863 0.949 . S
C868 C874 1.368 . S
C869 C853 1.349 . S
C869 H861 0.950 . S
C869 C867 1.327 . S
C870 C858 1.349 . S
C870 H864 0.950 . S
C870 C871 1.327 . S
C871 H865 0.950 . S
C871 C870 1.327 . S
C871 C875 1.429 . S
C872 C855 1.574 1_554 S
C872 H866 0.949 . S
C872 C876 1.368 . S
C873 C854 1.429 . S
C873 C867 1.429 . S
C873 C874 1.523 . S
C874 C855 1.368 1_455 S
C874 C868 1.368 . S
C874 C873 1.523 . S
C875 C859 1.429 . S
C875 C871 1.429 . S
C875 C876 1.523 . S
C876 C860 1.368 1_655 S
C876 C872 1.368 . S
C876 C875 1.523 . S
H877 C852 0.950 . S
H878 C854 0.950 . S
H879 C855 0.949 . S
H880 C857 0.950 . S
H881 C859 0.950 . S
C882 C883 1.349 . S
C882 C884 1.327 . S
C882 H907 0.950 . S
C883 C882 1.349 . S
C883 C899 1.349 . S
C884 C882 1.327 . S
C884 C903 1.429 . S
C884 H908 0.950 . S
C885 C902 1.574 . S
C885 C904 1.368 1_565 S
C885 H909 0.949 . S
H886 C890 0.949 . S
C887 C888 1.349 . S
C887 C889 1.327 . S
C887 H910 0.950 . S
C888 C887 1.349 . S
C888 C900 1.349 . S
C889 C887 1.327 . S
C889 C905 1.429 . S
C889 H911 0.950 . S
C890 H886 0.949 . S
C890 C898 1.574 . S
C890 C906 1.368 1_545 S
H891 C899 0.950 . S
H892 C897 0.950 1_565 S
H893 C898 0.949 . S
H894 C900 0.950 . S
H895 C901 0.950 1_545 S
H896 C902 0.949 . S
C897 H892 0.950 1_545 S
C897 C899 1.327 . S
C897 C903 1.429 . S
C898 C890 1.574 . S
C898 H893 0.949 . S
C898 C904 1.368 . S
C899 C883 1.349 . S
C899 H891 0.950 . S
C899 C897 1.327 . S
C900 C888 1.349 . S
C900 H894 0.950 . S
C900 C901 1.327 . S
C901 H895 0.950 1_565 S
C901 C900 1.327 . S
C901 C905 1.429 . S
C902 C885 1.574 . S
C902 H896 0.949 . S
C902 C906 1.368 . S
C903 C884 1.429 . S
C903 C897 1.429 . S
C903 C904 1.523 . S
C904 C885 1.368 1_545 S
C904 C898 1.368 . S
C904 C903 1.523 . S
C905 C889 1.429 . S
C905 C901 1.429 . S
C905 C906 1.523 . S
C906 C890 1.368 1_565 S
C906 C902 1.368 . S
C906 C905 1.523 . S
H907 C882 0.950 . S
H908 C884 0.950 . S
H909 C885 0.949 . S
H910 C887 0.950 . S
H911 C889 0.950 . S
C912 C913 1.349 . S
C912 C914 1.327 . S
C912 H937 0.950 . S
C913 C912 1.349 . S
C913 C929 1.349 . S
C914 C912 1.327 . S
C914 C933 1.429 . S
C914 H938 0.950 . S
C915 C932 1.574 1_554 S
C915 C934 1.368 . S
C915 H939 0.949 . S
H916 C920 0.949 . S
C917 C918 1.349 . S
C917 C919 1.327 . S
C917 H940 0.950 . S
C918 C917 1.349 . S
C918 C930 1.349 . S
C919 C917 1.327 . S
C919 C935 1.429 . S
C919 H941 0.950 . S
C920 H916 0.949 . S
C920 C928 1.574 1_556 S
C920 C936 1.368 . S
H921 C929 0.950 . S
H922 C927 0.950 . S
H923 C928 0.949 . S
H924 C930 0.950 . S
H925 C931 0.950 . S
H926 C932 0.949 . S
C927 H922 0.950 . S
C927 C929 1.327 . S
C927 C933 1.429 . S
C928 C920 1.574 1_554 S
C928 H923 0.949 . S
C928 C934 1.368 . S
C929 C913 1.349 . S
C929 H921 0.950 . S
C929 C927 1.327 . S
C930 C918 1.349 . S
C930 H924 0.950 . S
C930 C931 1.327 . S
C931 H925 0.950 . S
C931 C930 1.327 . S
C931 C935 1.429 . S
C932 C915 1.574 1_556 S
C932 H926 0.949 . S
C932 C936 1.368 . S
C933 C914 1.429 . S
C933 C927 1.429 . S
C933 C934 1.523 . S
C934 C915 1.368 . S
C934 C928 1.368 . S
C934 C933 1.523 . S
C935 C919 1.429 . S
C935 C931 1.429 . S
C935 C936 1.523 . S
C936 C920 1.368 . S
C936 C932 1.368 . S
C936 C935 1.523 . S
H937 C912 0.950 . S
H938 C914 0.950 . S
H939 C915 0.949 . S
H940 C917 0.950 . S
H941 C919 0.950 . S
C942 C943 1.349 . S
C942 C944 1.327 . S
C942 H967 0.948 1_455 S
C943 C942 1.349 . S
C943 C959 1.349 . S
C944 C942 1.327 . S
C944 C963 1.429 . S
C944 H968 0.950 1_455 S
C945 C962 1.574 . S
C945 C964 1.368 . S
C945 H969 0.949 . S
H946 C950 0.949 . S
C947 C948 1.349 . S
C947 C949 1.327 . S
C947 H970 0.948 1_655 S
C948 C947 1.349 . S
C948 C960 1.349 . S
C949 C947 1.327 . S
C949 C965 1.429 . S
C949 H971 0.950 1_655 S
C950 H946 0.949 . S
C950 C958 1.574 . S
C950 C966 1.368 . S
H951 C959 0.950 . S
H952 C957 0.950 . S
H953 C958 0.949 . S
H954 C960 0.950 . S
H955 C961 0.950 . S
H956 C962 0.949 . S
C957 H952 0.950 . S
C957 C959 1.327 . S
C957 C963 1.429 . S
C958 C950 1.574 . S
C958 H953 0.949 . S
C958 C964 1.368 1_655 S
C959 C943 1.349 . S
C959 H951 0.950 . S
C959 C957 1.327 . S
C960 C948 1.349 . S
C960 H954 0.950 . S
C960 C961 1.327 . S
C961 H955 0.950 . S
C961 C960 1.327 . S
C961 C965 1.429 . S
C962 C945 1.574 . S
C962 H956 0.949 . S
C962 C966 1.368 1_455 S
C963 C944 1.429 . S
C963 C957 1.429 . S
C963 C964 1.523 . S
C964 C945 1.368 . S
C964 C958 1.368 1_455 S
C964 C963 1.523 . S
C965 C949 1.429 . S
C965 C961 1.429 . S
C965 C966 1.523 . S
C966 C950 1.368 . S
C966 C962 1.368 1_655 S
C966 C965 1.523 . S
H967 C942 0.948 1_655 S
H968 C944 0.950 1_655 S
H969 C945 0.949 . S
H970 C947 0.948 1_455 S
H971 C949 0.950 1_455 S
C972 C973 1.349 . S
C972 C974 1.327 . S
C972 H997 0.950 . S
C973 C972 1.349 . S
C973 C989 1.349 . S
C974 C972 1.327 . S
C974 C993 1.429 . S
C974 H998 0.950 . S
C975 C992 1.574 . S
C975 C994 1.368 . S
C975 H999 0.949 . S
H976 C980 0.949 . S
C977 C978 1.349 . S
C977 C979 1.327 . S
C977 H1000 0.950 . S
C978 C977 1.349 . S
C978 C990 1.349 . S
C979 C977 1.327 . S
C979 C995 1.429 . S
C979 H1001 0.950 . S
C980 H976 0.949 . S
C980 C988 1.574 . S
C980 C996 1.368 . S
H981 C989 0.950 . S
H982 C987 0.950 . S
H983 C988 0.949 . S
H984 C990 0.950 . S
H985 C991 0.950 . S
H986 C992 0.949 . S
C987 H982 0.950 . S
C987 C989 1.327 . S
C987 C993 1.429 . S
C988 C980 1.574 . S
C988 H983 0.949 . S
C988 C994 1.368 . S
C989 C973 1.349 . S
C989 H981 0.950 . S
C989 C987 1.327 . S
C990 C978 1.349 . S
C990 H984 0.950 . S
C990 C991 1.327 . S
C991 H985 0.950 . S
C991 C990 1.327 . S
C991 C995 1.429 . S
C992 C975 1.574 . S
C992 H986 0.949 . S
C992 C996 1.368 . S
C993 C974 1.429 . S
C993 C987 1.429 . S
C993 C994 1.523 . S
C994 C975 1.368 . S
C994 C988 1.368 . S
C994 C993 1.523 . S
C995 C979 1.429 . S
C995 C991 1.429 . S
C995 C996 1.523 . S
C996 C980 1.368 . S
C996 C992 1.368 . S
C996 C995 1.523 . S
H997 C972 0.950 . S
H998 C974 0.950 . S
H999 C975 0.949 . S
H1000 C977 0.950 . S
H1001 C979 0.950 . S
C1002 C1003 1.349 . S
C1002 C1004 1.327 . S
C1002 H1027 0.950 . S
C1003 C1002 1.349 . S
C1003 C1019 1.349 . S
C1004 C1002 1.327 . S
C1004 C1023 1.429 . S
C1004 H1028 0.950 . S
C1005 C1022 1.574 . S
C1005 C1024 1.368 . S
C1005 H1029 0.949 . S
H1006 C1010 0.949 . S
C1007 C1008 1.349 . S
C1007 C1009 1.327 . S
C1007 H1030 0.950 . S
C1008 C1007 1.349 . S
C1008 C1020 1.349 . S
C1009 C1007 1.327 . S
C1009 C1025 1.429 . S
C1009 H1031 0.950 . S
C1010 H1006 0.949 . S
C1010 C1018 1.574 . S
C1010 C1026 1.368 . S
H1011 C1019 0.950 . S
H1012 C1017 0.950 . S
H1013 C1018 0.949 . S
H1014 C1020 0.950 . S
H1015 C1021 0.950 . S
H1016 C1022 0.949 . S
C1017 H1012 0.950 . S
C1017 C1019 1.327 . S
C1017 C1023 1.429 . S
C1018 C1010 1.574 . S
C1018 H1013 0.949 . S
C1018 C1024 1.368 . S
C1019 C1003 1.349 . S
C1019 H1011 0.950 . S
C1019 C1017 1.327 . S
C1020 C1008 1.349 . S
C1020 H1014 0.950 . S
C1020 C1021 1.327 . S
C1021 H1015 0.950 . S
C1021 C1020 1.327 . S
C1021 C1025 1.429 . S
C1022 C1005 1.574 . S
C1022 H1016 0.949 . S
C1022 C1026 1.368 . S
C1023 C1004 1.429 . S
C1023 C1017 1.429 . S
C1023 C1024 1.523 . S
C1024 C1005 1.368 . S
C1024 C1018 1.368 . S
C1024 C1023 1.523 . S
C1025 C1009 1.429 . S
C1025 C1021 1.429 . S
C1025 C1026 1.523 . S
C1026 C1010 1.368 . S
C1026 C1022 1.368 . S
C1026 C1025 1.523 . S
H1027 C1002 0.950 . S
H1028 C1004 0.950 . S
H1029 C1005 0.949 . S
H1030 C1007 0.950 . S
H1031 C1009 0.950 . S
C1032 C1033 1.349 . S
C1032 C1034 1.327 . S
C1032 H1057 0.950 . S
C1033 C1032 1.349 . S
C1033 C1049 1.349 . S
C1034 C1032 1.327 . S
C1034 C1053 1.429 . S
C1034 H1058 0.950 . S
C1035 C1052 1.574 . S
C1035 C1054 1.368 . S
C1035 H1059 0.949 . S
H1036 C1040 0.949 . S
C1037 C1038 1.349 . S
C1037 C1039 1.327 . S
C1037 H1060 0.950 . S
C1038 C1037 1.349 . S
C1038 C1050 1.349 . S
C1039 C1037 1.327 . S
C1039 C1055 1.429 . S
C1039 H1061 0.950 . S
C1040 H1036 0.949 . S
C1040 C1048 1.574 . S
C1040 C1056 1.368 . S
H1041 C1049 0.950 . S
H1042 C1047 0.950 . S
H1043 C1048 0.949 . S
H1044 C1050 0.950 . S
H1045 C1051 0.950 . S
H1046 C1052 0.949 . S
C1047 H1042 0.950 . S
C1047 C1049 1.327 . S
C1047 C1053 1.429 . S
C1048 C1040 1.574 . S
C1048 H1043 0.949 . S
C1048 C1054 1.368 . S
C1049 C1033 1.349 . S
C1049 H1041 0.950 . S
C1049 C1047 1.327 . S
C1050 C1038 1.349 . S
C1050 H1044 0.950 . S
C1050 C1051 1.327 . S
C1051 H1045 0.950 . S
C1051 C1050 1.327 . S
C1051 C1055 1.429 . S
C1052 C1035 1.574 . S
C1052 H1046 0.949 . S
C1052 C1056 1.368 . S
C1053 C1034 1.429 . S
C1053 C1047 1.429 . S
C1053 C1054 1.523 . S
C1054 C1035 1.368 . S
C1054 C1048 1.368 . S
C1054 C1053 1.523 . S
C1055 C1039 1.429 . S
C1055 C1051 1.429 . S
C1055 C1056 1.523 . S
C1056 C1040 1.368 . S
C1056 C1052 1.368 . S
C1056 C1055 1.523 . S
H1057 C1032 0.950 . S
H1058 C1034 0.950 . S
H1059 C1035 0.949 . S
H1060 C1037 0.950 . S
H1061 C1039 0.950 . S
C1062 C1063 1.349 . S
C1062 C1064 1.327 . S
C1062 H1087 0.950 . S
C1063 C1062 1.349 . S
C1063 C1079 1.349 . S
C1064 C1062 1.327 . S
C1064 C1083 1.429 . S
C1064 H1088 0.950 . S
C1065 C1082 1.574 . S
C1065 C1084 1.368 . S
C1065 H1089 0.949 . S
H1066 C1070 0.949 . S
C1067 C1068 1.349 . S
C1067 C1069 1.327 . S
C1067 H1090 0.950 . S
C1068 C1067 1.349 . S
C1068 C1080 1.349 . S
C1069 C1067 1.327 . S
C1069 C1085 1.429 . S
C1069 H1091 0.950 . S
C1070 H1066 0.949 . S
C1070 C1078 1.574 . S
C1070 C1086 1.368 . S
H1071 C1079 0.950 . S
H1072 C1077 0.950 . S
H1073 C1078 0.949 . S
H1074 C1080 0.950 . S
H1075 C1081 0.950 . S
H1076 C1082 0.949 . S
C1077 H1072 0.950 . S
C1077 C1079 1.327 . S
C1077 C1083 1.429 . S
C1078 C1070 1.574 . S
C1078 H1073 0.949 . S
C1078 C1084 1.368 . S
C1079 C1063 1.349 . S
C1079 H1071 0.950 . S
C1079 C1077 1.327 . S
C1080 C1068 1.349 . S
C1080 H1074 0.950 . S
C1080 C1081 1.327 . S
C1081 H1075 0.950 . S
C1081 C1080 1.327 . S
C1081 C1085 1.429 . S
C1082 C1065 1.574 . S
C1082 H1076 0.949 . S
C1082 C1086 1.368 . S
C1083 C1064 1.429 . S
C1083 C1077 1.429 . S
C1083 C1084 1.523 . S
C1084 C1065 1.368 . S
C1084 C1078 1.368 . S
C1084 C1083 1.523 . S
C1085 C1069 1.429 . S
C1085 C1081 1.429 . S
C1085 C1086 1.523 . S
C1086 C1070 1.368 . S
C1086 C1082 1.368 . S
C1086 C1085 1.523 . S
H1087 C1062 0.950 . S
H1088 C1064 0.950 . S
H1089 C1065 0.949 . S
H1090 C1067 0.950 . S
H1091 C1069 0.950 . S
C1092 C1093 1.349 . S
C1092 C1094 1.327 . S
C1092 H1117 0.950 . S
C1093 C1092 1.349 . S
C1093 C1109 1.349 . S
C1094 C1092 1.327 . S
C1094 C1113 1.429 . S
C1094 H1118 0.950 . S
C1095 C1112 1.574 . S
C1095 C1114 1.368 . S
C1095 H1119 0.949 . S
H1096 C1100 0.949 . S
C1097 C1098 1.349 . S
C1097 C1099 1.327 . S
C1097 H1120 0.950 . S
C1098 C1097 1.349 . S
C1098 C1110 1.349 . S
C1099 C1097 1.327 . S
C1099 C1115 1.429 . S
C1099 H1121 0.950 . S
C1100 H1096 0.949 . S
C1100 C1108 1.574 . S
C1100 C1116 1.368 . S
H1101 C1109 0.950 . S
H1102 C1107 0.950 . S
H1103 C1108 0.949 . S
H1104 C1110 0.950 . S
H1105 C1111 0.950 . S
H1106 C1112 0.949 . S
C1107 H1102 0.950 . S
C1107 C1109 1.327 . S
C1107 C1113 1.429 . S
C1108 C1100 1.574 . S
C1108 H1103 0.949 . S
C1108 C1114 1.368 . S
C1109 C1093 1.349 . S
C1109 H1101 0.950 . S
C1109 C1107 1.327 . S
C1110 C1098 1.349 . S
C1110 H1104 0.950 . S
C1110 C1111 1.327 . S
C1111 H1105 0.950 . S
C1111 C1110 1.327 . S
C1111 C1115 1.429 . S
C1112 C1095 1.574 . S
C1112 H1106 0.949 . S
C1112 C1116 1.368 . S
C1113 C1094 1.429 . S
C1113 C1107 1.429 . S
C1113 C1114 1.523 . S
C1114 C1095 1.368 . S
C1114 C1108 1.368 . S
C1114 C1113 1.523 . S
C1115 C1099 1.429 . S
C1115 C1111 1.429 . S
C1115 C1116 1.523 . S
C1116 C1100 1.368 . S
C1116 C1112 1.368 . S
C1116 C1115 1.523 . S
H1117 C1092 0.950 . S
H1118 C1094 0.950 . S
H1119 C1095 0.949 . S
H1120 C1097 0.950 . S
H1121 C1099 0.950 . S
C1122 C1123 1.349 . S
C1122 C1124 1.327 . S
C1122 H1147 0.950 . S
C1123 C1122 1.349 . S
C1123 C1139 1.349 . S
C1124 C1122 1.327 . S
C1124 C1143 1.429 . S
C1124 H1148 0.950 . S
C1125 C1142 1.574 . S
C1125 C1144 1.368 . S
C1125 H1149 0.949 . S
H1126 C1130 0.949 . S
C1127 C1128 1.349 . S
C1127 C1129 1.327 . S
C1127 H1150 0.950 . S
C1128 C1127 1.349 . S
C1128 C1140 1.349 . S
C1129 C1127 1.327 . S
C1129 C1145 1.429 . S
C1129 H1151 0.950 . S
C1130 H1126 0.949 . S
C1130 C1138 1.574 . S
C1130 C1146 1.368 . S
H1131 C1139 0.950 . S
H1132 C1137 0.950 . S
H1133 C1138 0.949 . S
H1134 C1140 0.950 . S
H1135 C1141 0.950 . S
H1136 C1142 0.949 . S
C1137 H1132 0.950 . S
C1137 C1139 1.327 . S
C1137 C1143 1.429 . S
C1138 C1130 1.574 . S
C1138 H1133 0.949 . S
C1138 C1144 1.368 . S
C1139 C1123 1.349 . S
C1139 H1131 0.950 . S
C1139 C1137 1.327 . S
C1140 C1128 1.349 . S
C1140 H1134 0.950 . S
C1140 C1141 1.327 . S
C1141 H1135 0.950 . S
C1141 C1140 1.327 . S
C1141 C1145 1.429 . S
C1142 C1125 1.574 . S
C1142 H1136 0.949 . S
C1142 C1146 1.368 . S
C1143 C1124 1.429 . S
C1143 C1137 1.429 . S
C1143 C1144 1.523 . S
C1144 C1125 1.368 . S
C1144 C1138 1.368 . S
C1144 C1143 1.523 . S
C1145 C1129 1.429 . S
C1145 C1141 1.429 . S
C1145 C1146 1.523 . S
C1146 C1130 1.368 . S
C1146 C1142 1.368 . S
C1146 C1145 1.523 . S
H1147 C1122 0.950 . S
H1148 C1124 0.950 . S
H1149 C1125 0.949 . S
H1150 C1127 0.950 . S
H1151 C1129 0.950 . S
C1152 C1153 1.349 . S
C1152 C1154 1.327 . S
C1152 H1177 0.950 . S
C1153 C1152 1.349 . S
C1153 C1169 1.349 . S
C1154 C1152 1.327 . S
C1154 C1173 1.429 . S
C1154 H1178 0.950 . S
C1155 C1172 1.574 . S
C1155 C1174 1.368 . S
C1155 H1179 0.949 . S
H1156 C1160 0.949 . S
C1157 C1158 1.349 . S
C1157 C1159 1.327 . S
C1157 H1180 0.950 . S
C1158 C1157 1.349 . S
C1158 C1170 1.349 . S
C1159 C1157 1.327 . S
C1159 C1175 1.429 . S
C1159 H1181 0.950 . S
C1160 H1156 0.949 . S
C1160 C1168 1.574 . S
C1160 C1176 1.368 . S
H1161 C1169 0.950 . S
H1162 C1167 0.950 . S
H1163 C1168 0.949 . S
H1164 C1170 0.950 . S
H1165 C1171 0.950 . S
H1166 C1172 0.949 . S
C1167 H1162 0.950 . S
C1167 C1169 1.327 . S
C1167 C1173 1.429 . S
C1168 C1160 1.574 . S
C1168 H1163 0.949 . S
C1168 C1174 1.368 . S
C1169 C1153 1.349 . S
C1169 H1161 0.950 . S
C1169 C1167 1.327 . S
C1170 C1158 1.349 . S
C1170 H1164 0.950 . S
C1170 C1171 1.327 . S
C1171 H1165 0.950 . S
C1171 C1170 1.327 . S
C1171 C1175 1.429 . S
C1172 C1155 1.574 . S
C1172 H1166 0.949 . S
C1172 C1176 1.368 . S
C1173 C1154 1.429 . S
C1173 C1167 1.429 . S
C1173 C1174 1.523 . S
C1174 C1155 1.368 . S
C1174 C1168 1.368 . S
C1174 C1173 1.523 . S
C1175 C1159 1.429 . S
C1175 C1171 1.429 . S
C1175 C1176 1.523 . S
C1176 C1160 1.368 . S
C1176 C1172 1.368 . S
C1176 C1175 1.523 . S
H1177 C1152 0.950 . S
H1178 C1154 0.950 . S
H1179 C1155 0.949 . S
H1180 C1157 0.950 . S
H1181 C1159 0.950 . S
C1182 C1183 1.349 . S
C1182 C1184 1.327 . S
C1182 H1207 0.950 . S
C1183 C1182 1.349 . S
C1183 C1199 1.349 . S
C1184 C1182 1.327 . S
C1184 C1203 1.429 . S
C1184 H1208 0.950 . S
C1185 C1202 1.574 . S
C1185 C1204 1.368 . S
C1185 H1209 0.949 . S
H1186 C1190 0.949 . S
C1187 C1188 1.349 . S
C1187 C1189 1.327 . S
C1187 H1210 0.950 . S
C1188 C1187 1.349 . S
C1188 C1200 1.349 . S
C1189 C1187 1.327 . S
C1189 C1205 1.429 . S
C1189 H1211 0.950 . S
C1190 H1186 0.949 . S
C1190 C1198 1.574 . S
C1190 C1206 1.368 . S
H1191 C1199 0.950 . S
H1192 C1197 0.950 . S
H1193 C1198 0.949 . S
H1194 C1200 0.950 . S
H1195 C1201 0.950 . S
H1196 C1202 0.949 . S
C1197 H1192 0.950 . S
C1197 C1199 1.327 . S
C1197 C1203 1.429 . S
C1198 C1190 1.574 . S
C1198 H1193 0.949 . S
C1198 C1204 1.368 . S
C1199 C1183 1.349 . S
C1199 H1191 0.950 . S
C1199 C1197 1.327 . S
C1200 C1188 1.349 . S
C1200 H1194 0.950 . S
C1200 C1201 1.327 . S
C1201 H1195 0.950 . S
C1201 C1200 1.327 . S
C1201 C1205 1.429 . S
C1202 C1185 1.574 . S
C1202 H1196 0.949 . S
C1202 C1206 1.368 . S
C1203 C1184 1.429 . S
C1203 C1197 1.429 . S
C1203 C1204 1.523 . S
C1204 C1185 1.368 . S
C1204 C1198 1.368 . S
C1204 C1203 1.523 . S
C1205 C1189 1.429 . S
C1205 C1201 1.429 . S
C1205 C1206 1.523 . S
C1206 C1190 1.368 . S
C1206 C1202 1.368 . S
C1206 C1205 1.523 . S
H1207 C1182 0.950 . S
H1208 C1184 0.950 . S
H1209 C1185 0.949 . S
H1210 C1187 0.950 . S
H1211 C1189 0.950 . S
C1212 C1213 1.349 . S
C1212 C1214 1.327 . S
C1212 H1237 0.950 . S
C1213 C1212 1.349 . S
C1213 C1229 1.349 . S
C1214 C1212 1.327 . S
C1214 C1233 1.429 . S
C1214 H1238 0.950 . S
C1215 C1232 1.574 . S
C1215 C1234 1.368 . S
C1215 H1239 0.949 . S
H1216 C1220 0.949 . S
C1217 C1218 1.349 . S
C1217 C1219 1.327 . S
C1217 H1240 0.950 . S
C1218 C1217 1.349 . S
C1218 C1230 1.349 . S
C1219 C1217 1.327 . S
C1219 C1235 1.429 . S
C1219 H1241 0.950 . S
C1220 H1216 0.949 . S
C1220 C1228 1.574 . S
C1220 C1236 1.368 . S
H1221 C1229 0.950 . S
H1222 C1227 0.950 . S
H1223 C1228 0.949 . S
H1224 C1230 0.950 . S
H1225 C1231 0.950 . S
H1226 C1232 0.949 . S
C1227 H1222 0.950 . S
C1227 C1229 1.327 . S
C1227 C1233 1.429 . S
C1228 C1220 1.574 . S
C1228 H1223 0.949 . S
C1228 C1234 1.368 . S
C1229 C1213 1.349 . S
C1229 H1221 0.950 . S
C1229 C1227 1.327 . S
C1230 C1218 1.349 . S
C1230 H1224 0.950 . S
C1230 C1231 1.327 . S
C1231 H1225 0.950 . S
C1231 C1230 1.327 . S
C1231 C1235 1.429 . S
C1232 C1215 1.574 . S
C1232 H1226 0.949 . S
C1232 C1236 1.368 . S
C1233 C1214 1.429 . S
C1233 C1227 1.429 . S
C1233 C1234 1.523 . S
C1234 C1215 1.368 . S
C1234 C1228 1.368 . S
C1234 C1233 1.523 . S
C1235 C1219 1.429 . S
C1235 C1231 1.429 . S
C1235 C1236 1.523 . S
C1236 C1220 1.368 . S
C1236 C1232 1.368 . S
C1236 C1235 1.523 . S
H1237 C1212 0.950 . S
H1238 C1214 0.950 . S
H1239 C1215 0.949 . S
H1240 C1217 0.950 . S
H1241 C1219 0.950 . S
C1242 C1243 1.349 . S
C1242 C1244 1.327 . S
C1242 H1267 0.950 . S
C1243 C1242 1.349 . S
C1243 C1259 1.349 . S
C1244 C1242 1.327 . S
C1244 C1263 1.429 . S
C1244 H1268 0.950 . S
C1245 C1262 1.574 . S
C1245 C1264 1.368 . S
C1245 H1269 0.949 . S
H1246 C1250 0.949 . S
C1247 C1248 1.349 . S
C1247 C1249 1.327 . S
C1247 H1270 0.950 . S
C1248 C1247 1.349 . S
C1248 C1260 1.349 . S
C1249 C1247 1.327 . S
C1249 C1265 1.429 . S
C1249 H1271 0.950 . S
C1250 H1246 0.949 . S
C1250 C1258 1.574 . S
C1250 C1266 1.368 . S
H1251 C1259 0.950 . S
H1252 C1257 0.950 . S
H1253 C1258 0.949 . S
H1254 C1260 0.950 . S
H1255 C1261 0.950 . S
H1256 C1262 0.949 . S
C1257 H1252 0.950 . S
C1257 C1259 1.327 . S
C1257 C1263 1.429 . S
C1258 C1250 1.574 . S
C1258 H1253 0.949 . S
C1258 C1264 1.368 . S
C1259 C1243 1.349 . S
C1259 H1251 0.950 . S
C1259 C1257 1.327 . S
C1260 C1248 1.349 . S
C1260 H1254 0.950 . S
C1260 C1261 1.327 . S
C1261 H1255 0.950 . S
C1261 C1260 1.327 . S
C1261 C1265 1.429 . S
C1262 C1245 1.574 . S
C1262 H1256 0.949 . S
C1262 C1266 1.368 . S
C1263 C1244 1.429 . S
C1263 C1257 1.429 . S
C1263 C1264 1.523 . S
C1264 C1245 1.368 . S
C1264 C1258 1.368 . S
C1264 C1263 1.523 . S
C1265 C1249 1.429 . S
C1265 C1261 1.429 . S
C1265 C1266 1.523 . S
C1266 C1250 1.368 . S
C1266 C1262 1.368 . S
C1266 C1265 1.523 . S
H1267 C1242 0.950 . S
H1268 C1244 0.950 . S
H1269 C1245 0.949 . S
H1270 C1247 0.950 . S
H1271 C1249 0.950 . S
C1272 C1273 1.349 . S
C1272 C1274 1.327 . S
C1272 H1297 0.950 . S
C1273 C1272 1.349 . S
C1273 C1289 1.349 . S
C1274 C1272 1.327 . S
C1274 C1293 1.429 . S
C1274 H1298 0.950 . S
C1275 C1292 1.574 . S
C1275 C1294 1.368 . S
C1275 H1299 0.949 . S
H1276 C1280 0.949 . S
C1277 C1278 1.349 . S
C1277 C1279 1.327 . S
C1277 H1300 0.950 . S
C1278 C1277 1.349 . S
C1278 C1290 1.349 . S
C1279 C1277 1.327 . S
C1279 C1295 1.429 . S
C1279 H1301 0.950 . S
C1280 H1276 0.949 . S
C1280 C1288 1.574 . S
C1280 C1296 1.368 . S
H1281 C1289 0.950 . S
H1282 C1287 0.950 . S
H1283 C1288 0.949 . S
H1284 C1290 0.950 . S
H1285 C1291 0.950 . S
H1286 C1292 0.949 . S
C1287 H1282 0.950 . S
C1287 C1289 1.327 . S
C1287 C1293 1.429 . S
C1288 C1280 1.574 . S
C1288 H1283 0.949 . S
C1288 C1294 1.368 . S
C1289 C1273 1.349 . S
C1289 H1281 0.950 . S
C1289 C1287 1.327 . S
C1290 C1278 1.349 . S
C1290 H1284 0.950 . S
C1290 C1291 1.327 . S
C1291 H1285 0.950 . S
C1291 C1290 1.327 . S
C1291 C1295 1.429 . S
C1292 C1275 1.574 . S
C1292 H1286 0.949 . S
C1292 C1296 1.368 . S
C1293 C1274 1.429 . S
C1293 C1287 1.429 . S
C1293 C1294 1.523 . S
C1294 C1275 1.368 . S
C1294 C1288 1.368 . S
C1294 C1293 1.523 . S
C1295 C1279 1.429 . S
C1295 C1291 1.429 . S
C1295 C1296 1.523 . S
C1296 C1280 1.368 . S
C1296 C1292 1.368 . S
C1296 C1295 1.523 . S
H1297 C1272 0.950 . S
H1298 C1274 0.950 . S
H1299 C1275 0.949 . S
H1300 C1277 0.950 . S
H1301 C1279 0.950 . S
C1302 C1303 1.349 . S
C1302 C1304 1.327 . S
C1302 H1327 0.950 . S
C1303 C1302 1.349 . S
C1303 C1319 1.349 . S
C1304 C1302 1.327 . S
C1304 C1323 1.429 . S
C1304 H1328 0.950 . S
C1305 C1322 1.574 . S
C1305 C1324 1.368 . S
C1305 H1329 0.949 . S
H1306 C1310 0.949 . S
C1307 C1308 1.349 . S
C1307 C1309 1.327 . S
C1307 H1330 0.950 . S
C1308 C1307 1.349 . S
C1308 C1320 1.349 . S
C1309 C1307 1.327 . S
C1309 C1325 1.429 . S
C1309 H1331 0.950 . S
C1310 H1306 0.949 . S
C1310 C1318 1.574 . S
C1310 C1326 1.368 . S
H1311 C1319 0.950 . S
H1312 C1317 0.950 . S
H1313 C1318 0.949 . S
H1314 C1320 0.950 . S
H1315 C1321 0.950 . S
H1316 C1322 0.949 . S
C1317 H1312 0.950 . S
C1317 C1319 1.327 . S
C1317 C1323 1.429 . S
C1318 C1310 1.574 . S
C1318 H1313 0.949 . S
C1318 C1324 1.368 . S
C1319 C1303 1.349 . S
C1319 H1311 0.950 . S
C1319 C1317 1.327 . S
C1320 C1308 1.349 . S
C1320 H1314 0.950 . S
C1320 C1321 1.327 . S
C1321 H1315 0.950 . S
C1321 C1320 1.327 . S
C1321 C1325 1.429 . S
C1322 C1305 1.574 . S
C1322 H1316 0.949 . S
C1322 C1326 1.368 . S
C1323 C1304 1.429 . S
C1323 C1317 1.429 . S
C1323 C1324 1.523 . S
C1324 C1305 1.368 . S
C1324 C1318 1.368 . S
C1324 C1323 1.523 . S
C1325 C1309 1.429 . S
C1325 C1321 1.429 . S
C1325 C1326 1.523 . S
C1326 C1310 1.368 . S
C1326 C1322 1.368 . S
C1326 C1325 1.523 . S
H1327 C1302 0.950 . S
H1328 C1304 0.950 . S
H1329 C1305 0.949 . S
H1330 C1307 0.950 . S
H1331 C1309 0.950 . S
C253 C61 0.829 1_455 S
C258 C7 0.868 . S
C283 C83 0.829 1_565 S
C288 C25 0.868 . S
C313 C49 0.868 . S
C318 C104 0.829 . S
C343 C67 0.868 . S
C348 C125 0.829 1_455 S
C373 C19 0.829 1_565 S
C378 C88 0.868 . S
C403 C41 0.829 . S
C408 C109 0.868 . S
C433 C230 0.829 1_545 S
C438 C130 0.868 . S
C463 C151 0.868 . S
C468 C251 0.829 . S
C493 C172 0.868 . S
C498 C146 0.829 1_655 S
C523 C196 0.868 . S
C528 C167 0.829 1_545 S
C553 C214 0.868 . S
C558 C188 0.829 . S
C583 C208 0.829 1_655 S
C588 C235 0.868 . S
C613 C66 1.332 . S
C618 C16 1.332 . S
C643 C24 1.332 . S
C648 C87 1.332 . S
C673 C58 1.332 . S
C678 C108 1.332 . S
C703 C129 1.332 . S
C708 C205 1.332 . S
C733 C150 1.332 . S
C738 C213 1.332 . S
C763 C171 1.332 . S
C768 C234 1.332 . S
C793 C166 1.365 . S
C798 C20 1.365 . S
C823 C40 1.365 . S
C828 C187 1.365 . S
C853 C209 1.365 . S
C858 C62 1.365 . S
C883 C82 1.365 . S
C888 C229 1.365 . S
C913 C103 1.365 . S
C918 C250 1.365 . S
C943 C145 1.365 . S
C948 C124 1.365 . S
C973 C45 0.925 . S
C978 C4 0.838 . S
C1003 C28 0.838 . S
C1008 C79 0.925 . S
C1033 C46 0.838 . S
C1038 C100 0.925 . S
C1063 C70 0.838 . S
C1068 C121 0.925 . S
C1093 C3 0.925 . S
C1098 C91 0.838 . S
C1123 C37 0.925 . S
C1128 C112 0.838 . S
C1153 C226 0.925 . S
C1158 C133 0.838 . S
C1183 C154 0.838 . S
C1188 C247 0.925 . S
C1213 C175 0.838 . S
C1218 C142 0.925 . S
C1243 C163 0.925 . S
C1248 C193 0.838 . S
C1273 C217 0.838 . S
C1278 C184 0.925 . S
C1303 C238 0.838 . S
C1308 C192 0.925 . S
