# Generated by pormake.
# Topology soh, (5)-cn, num edge types: 1
# Building blocks:
#     Node 0, Type 0, BuildingBlock: XOMCOT_clean_sbu_1, # of connection points: 5
#     Node 1, Type 0, BuildingBlock: XOMCOT_clean_sbu_1, # of connection points: 5
#     Node 2, Type 0, BuildingBlock: XOMCOT_clean_sbu_1, # of connection points: 5
#     Node 3, Type 0, BuildingBlock: XOMCOT_clean_sbu_1, # of connection points: 5
#     Node 4, Type 0, BuildingBlock: XOMCOT_clean_sbu_1, # of connection points: 5
#     Node 5, Type 0, BuildingBlock: XOMCOT_clean_sbu_1, # of connection points: 5
#     Node 6, Type 0, BuildingBlock: XOMCOT_clean_sbu_1, # of connection points: 5
#     Node 7, Type 0, BuildingBlock: XOMCOT_clean_sbu_1, # of connection points: 5
#     Node 8, Type 0, BuildingBlock: XOMCOT_clean_sbu_1, # of connection points: 5
#     Node 9, Type 0, BuildingBlock: XOMCOT_clean_sbu_1, # of connection points: 5
#     Node 10, Type 0, BuildingBlock: XOMCOT_clean_sbu_1, # of connection points: 5
#     Node 11, Type 0, BuildingBlock: XOMCOT_clean_sbu_1, # of connection points: 5
#     Node 12, Type 0, BuildingBlock: XOMCOT_clean_sbu_1, # of connection points: 5
#     Node 13, Type 0, BuildingBlock: XOMCOT_clean_sbu_1, # of connection points: 5
#     Node 14, Type 0, BuildingBlock: XOMCOT_clean_sbu_1, # of connection points: 5
#     Node 15, Type 0, BuildingBlock: XOMCOT_clean_sbu_1, # of connection points: 5
#     Node 16, Type 0, BuildingBlock: XOMCOT_clean_sbu_1, # of connection points: 5
#     Node 17, Type 0, BuildingBlock: XOMCOT_clean_sbu_1, # of connection points: 5
#     Node 18, Type 0, BuildingBlock: XOMCOT_clean_sbu_1, # of connection points: 5
#     Node 19, Type 0, BuildingBlock: XOMCOT_clean_sbu_1, # of connection points: 5
#     Node 20, Type 0, BuildingBlock: XOMCOT_clean_sbu_1, # of connection points: 5
#     Node 21, Type 0, BuildingBlock: XOMCOT_clean_sbu_1, # of connection points: 5
#     Node 22, Type 0, BuildingBlock: XOMCOT_clean_sbu_1, # of connection points: 5
#     Node 23, Type 0, BuildingBlock: XOMCOT_clean_sbu_1, # of connection points: 5
#     Node 24, Type 0, BuildingBlock: XOMCOT_clean_sbu_1, # of connection points: 5
#     Node 25, Type 0, BuildingBlock: XOMCOT_clean_sbu_1, # of connection points: 5
#     Node 26, Type 0, BuildingBlock: XOMCOT_clean_sbu_1, # of connection points: 5
#     Node 27, Type 0, BuildingBlock: XOMCOT_clean_sbu_1, # of connection points: 5
#     Node 28, Type 0, BuildingBlock: XOMCOT_clean_sbu_1, # of connection points: 5
#     Node 29, Type 0, BuildingBlock: XOMCOT_clean_sbu_1, # of connection points: 5
#     Node 30, Type 0, BuildingBlock: XOMCOT_clean_sbu_1, # of connection points: 5
#     Node 31, Type 0, BuildingBlock: XOMCOT_clean_sbu_1, # of connection points: 5
#     Edge 32, Type (0, 0), BuildingBlock: XIVTED_clean_linker_0, # of connection points: 2
#     Edge 33, Type (0, 0), BuildingBlock: XIVTED_clean_linker_0, # of connection points: 2
#     Edge 34, Type (0, 0), BuildingBlock: XIVTED_clean_linker_0, # of connection points: 2
#     Edge 35, Type (0, 0), BuildingBlock: XIVTED_clean_linker_0, # of connection points: 2
#     Edge 36, Type (0, 0), BuildingBlock: XIVTED_clean_linker_0, # of connection points: 2
#     Edge 37, Type (0, 0), BuildingBlock: XIVTED_clean_linker_0, # of connection points: 2
#     Edge 38, Type (0, 0), BuildingBlock: XIVTED_clean_linker_0, # of connection points: 2
#     Edge 39, Type (0, 0), BuildingBlock: XIVTED_clean_linker_0, # of connection points: 2
#     Edge 40, Type (0, 0), BuildingBlock: XIVTED_clean_linker_0, # of connection points: 2
#     Edge 41, Type (0, 0), BuildingBlock: XIVTED_clean_linker_0, # of connection points: 2
#     Edge 42, Type (0, 0), BuildingBlock: XIVTED_clean_linker_0, # of connection points: 2
#     Edge 43, Type (0, 0), BuildingBlock: XIVTED_clean_linker_0, # of connection points: 2
#     Edge 44, Type (0, 0), BuildingBlock: XIVTED_clean_linker_0, # of connection points: 2
#     Edge 45, Type (0, 0), BuildingBlock: XIVTED_clean_linker_0, # of connection points: 2
#     Edge 46, Type (0, 0), BuildingBlock: XIVTED_clean_linker_0, # of connection points: 2
#     Edge 47, Type (0, 0), BuildingBlock: XIVTED_clean_linker_0, # of connection points: 2
#     Edge 48, Type (0, 0), BuildingBlock: XIVTED_clean_linker_0, # of connection points: 2
#     Edge 49, Type (0, 0), BuildingBlock: XIVTED_clean_linker_0, # of connection points: 2
#     Edge 50, Type (0, 0), BuildingBlock: XIVTED_clean_linker_0, # of connection points: 2
#     Edge 51, Type (0, 0), BuildingBlock: XIVTED_clean_linker_0, # of connection points: 2
#     Edge 52, Type (0, 0), BuildingBlock: XIVTED_clean_linker_0, # of connection points: 2
#     Edge 53, Type (0, 0), BuildingBlock: XIVTED_clean_linker_0, # of connection points: 2
#     Edge 54, Type (0, 0), BuildingBlock: XIVTED_clean_linker_0, # of connection points: 2
#     Edge 55, Type (0, 0), BuildingBlock: XIVTED_clean_linker_0, # of connection points: 2
#     Edge 56, Type (0, 0), BuildingBlock: XIVTED_clean_linker_0, # of connection points: 2
#     Edge 57, Type (0, 0), BuildingBlock: XIVTED_clean_linker_0, # of connection points: 2
#     Edge 58, Type (0, 0), BuildingBlock: XIVTED_clean_linker_0, # of connection points: 2
#     Edge 59, Type (0, 0), BuildingBlock: XIVTED_clean_linker_0, # of connection points: 2
#     Edge 60, Type (0, 0), BuildingBlock: XIVTED_clean_linker_0, # of connection points: 2
#     Edge 61, Type (0, 0), BuildingBlock: XIVTED_clean_linker_0, # of connection points: 2
#     Edge 62, Type (0, 0), BuildingBlock: XIVTED_clean_linker_0, # of connection points: 2
#     Edge 63, Type (0, 0), BuildingBlock: XIVTED_clean_linker_0, # of connection points: 2
#     Edge 64, Type (0, 0), BuildingBlock: XIVTED_clean_linker_0, # of connection points: 2
#     Edge 65, Type (0, 0), BuildingBlock: XIVTED_clean_linker_0, # of connection points: 2
#     Edge 66, Type (0, 0), BuildingBlock: XIVTED_clean_linker_0, # of connection points: 2
#     Edge 67, Type (0, 0), BuildingBlock: XIVTED_clean_linker_0, # of connection points: 2
#     Edge 68, Type (0, 0), BuildingBlock: XIVTED_clean_linker_0, # of connection points: 2
#     Edge 69, Type (0, 0), BuildingBlock: XIVTED_clean_linker_0, # of connection points: 2
#     Edge 70, Type (0, 0), BuildingBlock: XIVTED_clean_linker_0, # of connection points: 2
#     Edge 71, Type (0, 0), BuildingBlock: XIVTED_clean_linker_0, # of connection points: 2
#     Edge 72, Type (0, 0), BuildingBlock: XIVTED_clean_linker_0, # of connection points: 2
#     Edge 73, Type (0, 0), BuildingBlock: XIVTED_clean_linker_0, # of connection points: 2
#     Edge 74, Type (0, 0), BuildingBlock: XIVTED_clean_linker_0, # of connection points: 2
#     Edge 75, Type (0, 0), BuildingBlock: XIVTED_clean_linker_0, # of connection points: 2
#     Edge 76, Type (0, 0), BuildingBlock: XIVTED_clean_linker_0, # of connection points: 2
#     Edge 77, Type (0, 0), BuildingBlock: XIVTED_clean_linker_0, # of connection points: 2
#     Edge 78, Type (0, 0), BuildingBlock: XIVTED_clean_linker_0, # of connection points: 2
#     Edge 79, Type (0, 0), BuildingBlock: XIVTED_clean_linker_0, # of connection points: 2
#     Edge 80, Type (0, 0), BuildingBlock: XIVTED_clean_linker_0, # of connection points: 2
#     Edge 81, Type (0, 0), BuildingBlock: XIVTED_clean_linker_0, # of connection points: 2
#     Edge 82, Type (0, 0), BuildingBlock: XIVTED_clean_linker_0, # of connection points: 2
#     Edge 83, Type (0, 0), BuildingBlock: XIVTED_clean_linker_0, # of connection points: 2
#     Edge 84, Type (0, 0), BuildingBlock: XIVTED_clean_linker_0, # of connection points: 2
#     Edge 85, Type (0, 0), BuildingBlock: XIVTED_clean_linker_0, # of connection points: 2
#     Edge 86, Type (0, 0), BuildingBlock: XIVTED_clean_linker_0, # of connection points: 2
#     Edge 87, Type (0, 0), BuildingBlock: XIVTED_clean_linker_0, # of connection points: 2
#     Edge 88, Type (0, 0), BuildingBlock: XIVTED_clean_linker_0, # of connection points: 2
#     Edge 89, Type (0, 0), BuildingBlock: XIVTED_clean_linker_0, # of connection points: 2
#     Edge 90, Type (0, 0), BuildingBlock: XIVTED_clean_linker_0, # of connection points: 2
#     Edge 91, Type (0, 0), BuildingBlock: XIVTED_clean_linker_0, # of connection points: 2
#     Edge 92, Type (0, 0), BuildingBlock: XIVTED_clean_linker_0, # of connection points: 2
#     Edge 93, Type (0, 0), BuildingBlock: XIVTED_clean_linker_0, # of connection points: 2
#     Edge 94, Type (0, 0), BuildingBlock: XIVTED_clean_linker_0, # of connection points: 2
#     Edge 95, Type (0, 0), BuildingBlock: XIVTED_clean_linker_0, # of connection points: 2
#     Edge 96, Type (0, 0), BuildingBlock: XIVTED_clean_linker_0, # of connection points: 2
#     Edge 97, Type (0, 0), BuildingBlock: XIVTED_clean_linker_0, # of connection points: 2
#     Edge 98, Type (0, 0), BuildingBlock: XIVTED_clean_linker_0, # of connection points: 2
#     Edge 99, Type (0, 0), BuildingBlock: XIVTED_clean_linker_0, # of connection points: 2
#     Edge 100, Type (0, 0), BuildingBlock: XIVTED_clean_linker_0, # of connection points: 2
#     Edge 101, Type (0, 0), BuildingBlock: XIVTED_clean_linker_0, # of connection points: 2
#     Edge 102, Type (0, 0), BuildingBlock: XIVTED_clean_linker_0, # of connection points: 2
#     Edge 103, Type (0, 0), BuildingBlock: XIVTED_clean_linker_0, # of connection points: 2
#     Edge 104, Type (0, 0), BuildingBlock: XIVTED_clean_linker_0, # of connection points: 2
#     Edge 105, Type (0, 0), BuildingBlock: XIVTED_clean_linker_0, # of connection points: 2
#     Edge 106, Type (0, 0), BuildingBlock: XIVTED_clean_linker_0, # of connection points: 2
#     Edge 107, Type (0, 0), BuildingBlock: XIVTED_clean_linker_0, # of connection points: 2
#     Edge 108, Type (0, 0), BuildingBlock: XIVTED_clean_linker_0, # of connection points: 2
#     Edge 109, Type (0, 0), BuildingBlock: XIVTED_clean_linker_0, # of connection points: 2
#     Edge 110, Type (0, 0), BuildingBlock: XIVTED_clean_linker_0, # of connection points: 2
#     Edge 111, Type (0, 0), BuildingBlock: XIVTED_clean_linker_0, # of connection points: 2
# Relax obj value: 0.203
# Max RMSD: 0.172
# Mean RMSD: 0.172
data_MOF--net-soh--node1-XOMCOT_clean_sbu_1--edge1-XIVTED_clean_linker_0
_symmetry_space_group_name_H-M    P1
_symmetry_Int_Tables_number       1
_symmetry_cell_setting            triclinic
loop_
_symmetry_equiv_pos_as_xyz
'x, y, z'
_cell_length_a     85.099237
_cell_length_b     44.309104
_cell_length_c     44.830135
_cell_angle_alpha  90.0603
_cell_angle_beta   89.936676
_cell_angle_gamma 89.926053
loop_
_atom_site_label
_atom_site_type_symbol
_atom_site_fract_x
_atom_site_fract_y
_atom_site_fract_z
_atom_type_partial_charge
C0 C 0.29382 0.36507 0.21686 0.0
C1 C 0.29063 0.37993 0.24318 0.0
N2 N 0.30229 0.37391 0.26264 0.0
N3 N 0.30746 0.34986 0.21973 0.0
C4 C 0.31237 0.35583 0.24773 0.0
H5 H 0.28631 0.36423 0.19743 0.0
Co6 Co 0.31608 0.32144 0.19376 0.0
C7 C 0.34984 0.32464 0.20963 0.0
O8 O 0.35025 0.29525 0.21342 0.0
N9 N 0.32485 0.29249 0.16776 0.0
C10 C 0.33855 0.26996 0.13166 0.0
C11 C 0.33509 0.29715 0.14517 0.0
C12 C 0.32234 0.26236 0.16756 0.0
N13 N 0.33056 0.24811 0.14596 0.0
O14 O 0.31643 0.29296 0.22622 0.0
H15 H 0.33982 0.31892 0.13904 0.0
H16 H 0.31454 0.25089 0.18279 0.0
O17 O 0.33695 0.33735 0.20233 0.0
C18 C 0.30217 0.28384 0.22689 0.0
O19 O 0.29268 0.29318 0.20565 0.0
N20 N 0.31351 0.34831 0.1622 0.0
C21 C 0.30052 0.38932 0.12208 0.0
C22 C 0.31265 0.39815 0.14154 0.0
C23 C 0.31899 0.37723 0.16161 0.0
C24 C 0.30237 0.33897 0.14248 0.0
C25 C 0.29581 0.35901 0.12207 0.0
H26 H 0.32734 0.38487 0.17809 0.0
H27 H 0.29784 0.31621 0.14384 0.0
H28 H 0.32257 0.34525 0.25768 0.0
H29 H 0.28023 0.39318 0.24794 0.0
H30 H 0.34658 0.26645 0.11324 0.0
H31 H 0.31653 0.42138 0.14257 0.0
H32 H 0.28673 0.35102 0.10713 0.0
C33 C 1.01021 0.90618 0.22544 0.0
C34 C 1.01314 0.89319 0.25271 0.0
N35 N 1.00036 0.89703 0.27007 0.0
N36 N 0.9956 0.91804 0.22555 0.0
C37 C 0.98983 0.91183 0.25297 0.0
H38 H 1.01861 0.90891 0.20752 0.0
Co39 Co 0.98789 0.94621 0.19813 0.0
C40 C 0.95682 0.91399 0.18756 0.0
O41 O 0.9609 0.9054 0.16066 0.0
N42 N 0.98034 0.97595 0.17119 0.0
C43 C 0.96963 1.00142 0.13343 0.0
C44 C 0.97148 0.97343 0.1463 0.0
C45 C 0.98374 1.00581 0.17272 0.0
N46 N 0.97733 0.02183 0.15016 0.0
O47 O 0.98478 0.97394 0.23062 0.0
H48 H 0.96708 0.95264 0.13718 0.0
H49 H 0.9912 0.01564 0.18959 0.0
O50 O 0.96617 0.92997 0.20351 0.0
C51 C 0.99829 0.9835 0.23858 0.0
O52 O 1.01071 0.97498 0.22332 0.0
N53 N 0.99314 0.91962 0.16635 0.0
C54 C 1.00834 0.8828 0.12441 0.0
C55 C 0.99893 0.87014 0.14686 0.0
C56 C 0.99158 0.8889 0.16782 0.0
C57 C 1.0025 0.93212 0.14493 0.0
C58 C 1.00994 0.91426 0.12351 0.0
H59 H 0.98508 0.87867 0.18591 0.0
H60 H 1.00492 0.95605 0.14521 0.0
H61 H 0.97882 0.92079 0.26124 0.0
H62 H 1.02417 0.88338 0.25983 0.0
H63 H 0.96312 1.00629 0.11327 0.0
H64 H 0.99747 0.84593 0.14855 0.0
H65 H 1.01749 0.92499 0.10722 0.0
C66 C 0.3005 0.90393 0.0343 0.0
C67 C 0.30005 0.88898 0.00752 0.0
N68 N 0.3129 0.89659 0.99164 0.0
N69 N 0.31368 0.9207 0.03567 0.0
C70 C 0.321 0.91583 0.00932 0.0
H71 H 0.29129 0.90385 0.05089 0.0
Co72 Co 0.31834 0.94926 0.06482 0.0
C73 C 0.35106 0.93625 0.08395 0.0
O74 O 0.34663 0.9423 0.11133 0.0
N75 N 0.32266 0.97974 0.09456 0.0
C76 C 0.32347 1.00605 0.13709 0.0
C77 C 0.32059 0.97841 0.12452 0.0
C78 C 0.327 1.00889 0.08989 0.0
N79 N 0.3274 0.02543 0.11529 0.0
O80 O 0.32094 0.97838 0.03383 0.0
H81 H 0.31731 0.95868 0.13712 0.0
H82 H 0.32968 0.01813 0.06819 0.0
O83 O 0.34095 0.93759 0.06283 0.0
C84 C 0.30762 0.9913 0.03109 0.0
O85 O 0.29629 0.98415 0.04971 0.0
N86 N 0.31346 0.92061 0.09412 0.0
C87 C 0.29909 0.87831 0.13126 0.0
C88 C 0.31406 0.87273 0.11909 0.0
C89 C 0.32096 0.89401 0.10001 0.0
C90 C 0.29883 0.92601 0.10536 0.0
C91 C 0.29153 0.90545 0.12423 0.0
H92 H 0.33188 0.88843 0.08905 0.0
H93 H 0.29268 0.94645 0.09918 0.0
H94 H 0.33166 0.92733 1.00276 0.0
H95 H 0.29041 0.87524 0.99961 0.0
H96 H 0.32218 0.01154 0.16048 0.0
H97 H 0.32011 0.85166 0.12336 0.0
H98 H 0.28003 0.9108 0.13314 0.0
C99 C 1.00622 0.36797 0.03198 0.0
C100 C 1.00653 0.38231 0.00468 0.0
N101 N 0.99487 0.37094 0.98779 0.0
N102 N 0.99429 0.34792 0.03226 0.0
C103 C 0.98756 0.35048 0.00514 0.0
H104 H 1.01458 0.37097 0.04989 0.0
Co105 Co 0.98909 0.31861 0.06052 0.0
C106 C 0.95449 0.31659 0.053 0.0
O107 O 0.95497 0.28707 0.0504 0.0
N108 N 0.98366 0.28888 0.08863 0.0
C109 C 0.97306 0.2647 0.12717 0.0
C110 C 0.97476 0.29227 0.11334 0.0
C111 C 0.98725 0.25911 0.08797 0.0
N112 N 0.98087 0.2438 0.11106 0.0
O113 O 0.98724 0.28943 0.02887 0.0
H114 H 0.96954 0.31334 0.12051 0.0
H115 H 0.99436 0.24875 0.07079 0.0
O116 O 0.96719 0.33123 0.05721 0.0
C117 C 1.00128 0.28303 0.02097 0.0
O118 O 1.01299 0.29539 0.03567 0.0
N119 N 0.99285 0.34632 0.09107 0.0
C120 C 1.00532 0.38837 0.13092 0.0
C121 C 0.99134 0.39454 0.11529 0.0
C122 C 0.98532 0.37321 0.09524 0.0
C123 C 1.00613 0.3396 0.10665 0.0
C124 C 1.01253 0.36021 0.12676 0.0
H125 H 0.97512 0.37895 0.08205 0.0
H126 H 1.01214 0.31848 0.10251 0.0
H127 H 0.97786 0.33657 0.99779 0.0
H128 H 1.01524 0.39841 0.9972 0.0
H129 H 0.96617 0.26027 0.14699 0.0
H130 H 0.98549 0.41613 0.11754 0.0
H131 H 1.02317 0.35425 0.1386 0.0
C132 C 0.7591 0.65572 0.78311 0.0
C133 C 0.76159 0.64419 0.75506 0.0
N134 N 0.749 0.65085 0.73812 0.0
N135 N 0.74496 0.66946 0.78396 0.0
C136 C 0.73902 0.66594 0.75622 0.0
H137 H 0.7676 0.65602 0.801 0.0
Co138 Co 0.73833 0.69588 0.81369 0.0
C139 C 0.70613 0.67608 0.8293 0.0
O140 O 0.71017 0.68031 0.8572 0.0
N141 N 0.73199 0.72445 0.84411 0.0
C142 C 0.72909 0.74962 0.8871 0.0
C143 C 0.73269 0.72231 0.87427 0.0
C144 C 0.72762 0.75361 0.83961 0.0
N145 N 0.72608 0.76949 0.86523 0.0
O146 O 0.73602 0.72616 0.78351 0.0
H147 H 0.7357 0.70233 0.88675 0.0
H148 H 0.72586 0.76347 0.81788 0.0
O149 O 0.71614 0.68171 0.80861 0.0
C150 C 0.74916 0.74002 0.78273 0.0
O151 O 0.75987 0.73315 0.80271 0.0
N152 N 0.74311 0.66617 0.84225 0.0
C153 C 0.75716 0.6226 0.87862 0.0
C154 C 0.74357 0.61585 0.86208 0.0
C155 C 0.73688 0.6378 0.84355 0.0
C156 C 0.7566 0.6727 0.85732 0.0
C157 C 0.76362 0.65156 0.87605 0.0
H158 H 0.72724 0.63146 0.82923 0.0
H159 H 0.76206 0.69454 0.85444 0.0
H160 H 0.72832 0.67673 0.74866 0.0
H161 H 0.77222 0.63333 0.74722 0.0
H162 H 0.72942 0.75468 0.91071 0.0
H163 H 0.73851 0.59345 0.86249 0.0
H164 H 0.77408 0.6579 0.88826 0.0
C165 C 0.05379 0.11965 0.77835 0.0
C166 C 0.05441 0.13376 0.75108 0.0
N167 N 0.06507 0.11931 0.73409 0.0
N168 N 0.06418 0.09656 0.77877 0.0
C169 C 0.07087 0.09703 0.7514 0.0
H170 H 0.04578 0.12541 0.79615 0.0
Co171 Co 0.06751 0.06735 0.80835 0.0
C172 C 0.10066 0.07587 0.82818 0.0
O173 O 0.0965 0.06669 0.85484 0.0
N174 N 0.0707 0.03667 0.83815 0.0
C175 C 0.07044 0.00953 0.88013 0.0
C176 C 0.06727 0.03715 0.86769 0.0
C177 C 0.07611 1.00816 0.83359 0.0
N178 N 0.0759 0.99116 0.85862 0.0
O179 O 0.06975 0.03751 0.77753 0.0
H180 H 0.06282 0.05621 0.88006 0.0
H181 H 0.08011 0.99977 0.81225 0.0
O182 O 0.09031 0.07725 0.80747 0.0
C183 C 0.05632 0.02497 0.77506 0.0
O184 O 0.04502 0.03334 0.79327 0.0
N185 N 0.06294 0.09625 0.83771 0.0
C186 C 0.04919 0.1381 0.87652 0.0
C187 C 0.06484 0.1416 0.86683 0.0
C188 C 0.07147 0.12057 0.84702 0.0
C189 C 0.04768 0.09294 0.84643 0.0
C190 C 0.04064 0.11333 0.86589 0.0
H191 H 0.08315 0.12454 0.83852 0.0
H192 H 0.04085 0.07436 0.83773 0.0
H193 H 0.07953 0.08077 0.74397 0.0
H194 H 0.04696 0.15211 0.74374 0.0
H195 H 0.06836 1.00323 0.90312 0.0
H196 H 0.07185 0.16056 0.87419 0.0
H197 H 0.02842 0.1101 0.87176 0.0
C198 C 0.75412 0.11227 0.97348 0.0
C199 C 0.75691 0.12536 1.00072 0.0
N200 N 0.74538 0.11703 0.01959 0.0
N201 N 0.74075 0.09599 0.97488 0.0
C202 C 0.73562 0.09958 1.00324 0.0
H203 H 0.76195 0.11307 0.9545 0.0
Co204 Co 0.73391 0.06782 0.94645 0.0
C205 C 0.70164 0.09029 0.93163 0.0
O206 O 0.70496 0.08695 0.90329 0.0
N207 N 0.72741 0.03811 0.9176 0.0
C208 C 0.72278 0.01365 0.87488 0.0
C209 C 0.72551 0.0412 0.88774 0.0
C210 C 0.72587 1.00789 0.92194 0.0
N211 N 0.72315 0.99253 0.89634 0.0
O212 O 0.73119 0.039 0.97818 0.0
H213 H 0.72649 0.06203 0.87539 0.0
H214 H 0.72751 0.99691 0.94319 0.0
O215 O 0.71193 0.08328 0.95131 0.0
C216 C 0.74506 0.02953 0.98388 0.0
O217 O 0.7567 0.03898 0.96704 0.0
N218 N 0.739 0.09554 0.91613 0.0
C219 C 0.75435 0.13556 0.87763 0.0
C220 C 0.74094 0.14465 0.89373 0.0
C221 C 0.73357 0.12443 0.9133 0.0
C222 C 0.75204 0.08649 0.90085 0.0
C223 C 0.75976 0.10589 0.88131 0.0
H224 H 0.72413 0.13255 0.9273 0.0
H225 H 0.75686 0.06424 0.90481 0.0
H226 H 0.72569 0.08745 0.01239 0.0
H227 H 0.76709 0.13873 0.00653 0.0
H228 H 0.72102 0.00954 0.85133 0.0
H229 H 0.7364 0.1674 0.89188 0.0
H230 H 0.77033 0.09802 0.8703 0.0
C231 C 0.04236 0.66261 0.97084 0.0
C232 C 0.0386 0.65095 0.99833 0.0
N233 N 0.05073 0.65601 0.01702 0.0
N234 N 0.05689 0.67462 0.97194 0.0
C235 C 0.06172 0.67014 1.00032 0.0
H236 H 0.03463 0.66368 0.95173 0.0
Co237 Co 0.06603 0.69931 0.94303 0.0
C238 C 0.09673 0.66775 0.93275 0.0
O239 O 0.09357 0.66572 0.90423 0.0
N240 N 0.07518 0.72583 0.91361 0.0
C241 C 0.08305 0.74695 0.8708 0.0
C242 C 0.0788 0.72051 0.88461 0.0
C243 C 0.07757 0.756 0.91654 0.0
N244 N 0.08218 0.76938 0.89091 0.0
O245 O 0.06953 0.72877 0.97371 0.0
H246 H 0.07764 0.69914 0.87327 0.0
H247 H 0.07521 0.76858 0.93663 0.0
O248 O 0.08688 0.68024 0.95057 0.0
C249 C 0.05671 0.74371 0.97541 0.0
O250 O 0.04559 0.73801 0.95588 0.0
N251 N 0.06015 0.67122 0.91352 0.0
C252 C 0.0444 0.63346 0.87357 0.0
C253 C 0.05527 0.62153 0.894 0.0
C254 C 0.06292 0.64082 0.91411 0.0
C255 C 0.04912 0.68281 0.8947 0.0
C256 C 0.04139 0.66454 0.87417 0.0
H257 H 0.07055 0.63122 0.93089 0.0
H258 H 0.04605 0.70647 0.8961 0.0
H259 H 0.07257 0.67923 0.00911 0.0
H260 H 0.02752 0.64064 0.00431 0.0
H261 H 0.08606 0.74951 0.84748 0.0
H262 H 0.05769 0.59755 0.89464 0.0
H263 H 0.0327 0.67456 0.85955 0.0
C264 C 0.29848 0.87001 0.73056 0.0
C265 C 0.29885 0.883 0.75841 0.0
N266 N 0.31163 0.87268 0.77277 0.0
N267 N 0.31092 0.85131 0.72755 0.0
C268 C 0.31874 0.85353 0.75367 0.0
H269 H 0.28902 0.87213 0.71465 0.0
Co270 Co 0.31372 0.82219 0.69789 0.0
C271 C 0.34698 0.83075 0.67784 0.0
O272 O 0.34281 0.82284 0.65082 0.0
N273 N 0.31618 0.79157 0.66771 0.0
C274 C 0.3163 0.76616 0.62458 0.0
C275 C 0.31486 0.79403 0.63766 0.0
C276 C 0.31836 0.7615 0.67198 0.0
N277 N 0.31843 0.74559 0.64619 0.0
O278 O 0.31561 0.79209 0.72848 0.0
H279 H 0.31317 0.81474 0.62542 0.0
H280 H 0.31982 0.75117 0.6936 0.0
O281 O 0.33666 0.83087 0.69867 0.0
C282 C 0.30161 0.78652 0.73715 0.0
O283 O 0.2899 0.80072 0.7242 0.0
N284 N 0.30956 0.85168 0.66914 0.0
C285 C 0.29687 0.89516 0.63111 0.0
C286 C 0.31205 0.8987 0.64309 0.0
C287 C 0.31812 0.87684 0.66253 0.0
C288 C 0.29469 0.84838 0.65835 0.0
C289 C 0.28822 0.86952 0.63902 0.0
H290 H 0.32934 0.8808 0.673 0.0
H291 H 0.28779 0.82902 0.665 0.0
H292 H 0.32853 0.83914 0.75968 0.0
H293 H 0.28978 0.89699 0.76826 0.0
H294 H 0.3154 0.7614 0.60096 0.0
H295 H 0.31896 0.9186 0.63824 0.0
H296 H 0.27654 0.86567 0.63028 0.0
C297 C 1.00029 0.40063 0.72361 0.0
C298 C 1.00072 0.38735 0.75129 0.0
N299 N 0.99019 0.4014 0.76887 0.0
N300 N 0.98935 0.42277 0.7235 0.0
C301 C 0.98339 0.42257 0.7515 0.0
H302 H 1.00801 0.39507 0.70529 0.0
Co303 Co 0.9848 0.45103 0.69351 0.0
C304 C 0.95202 0.4374 0.67435 0.0
O305 O 0.95599 0.4458 0.64732 0.0
N306 N 0.98042 0.48084 0.66329 0.0
C307 C 0.97971 0.50723 0.62084 0.0
C308 C 0.98337 0.47996 0.63357 0.0
C309 C 0.97476 0.50921 0.66765 0.0
N310 N 0.97441 0.52579 0.64235 0.0
O311 O 0.98187 0.48102 0.72395 0.0
H312 H 0.98785 0.46087 0.62129 0.0
H313 H 0.97106 0.51788 0.68906 0.0
O314 O 0.96231 0.43853 0.6952 0.0
C315 C 0.99494 0.49494 0.72602 0.0
O316 O 1.00631 0.48774 0.70745 0.0
N317 N 0.99008 0.42212 0.66446 0.0
C318 C 1.00466 0.38111 0.62593 0.0
C319 C 0.98935 0.37583 0.63658 0.0
C320 C 0.98234 0.39639 0.65638 0.0
C321 C 1.00505 0.42716 0.65475 0.0
C322 C 1.01249 0.40718 0.63535 0.0
H323 H 0.97105 0.39096 0.6659 0.0
H324 H 1.01129 0.44695 0.66237 0.0
H325 H 0.97456 0.43828 0.75935 0.0
H326 H 1.00881 0.36993 0.75844 0.0
H327 H 0.98139 0.5132 0.59766 0.0
H328 H 0.98305 0.35555 0.63038 0.0
H329 H 1.02426 0.41226 0.62767 0.0
C330 C 0.2954 0.39645 0.52958 0.0
C331 C 0.29396 0.38396 0.50171 0.0
N332 N 0.30414 0.39786 0.48331 0.0
N333 N 0.30657 0.41807 0.52902 0.0
C334 C 0.3118 0.41812 0.5005 0.0
H335 H 0.28797 0.39124 0.54842 0.0
Co336 Co 0.31052 0.44704 0.55869 0.0
C337 C 0.34495 0.44153 0.57285 0.0
O338 O 0.34215 0.45181 0.59973 0.0
N339 N 0.31395 0.47741 0.58887 0.0
C340 C 0.31538 0.50171 0.6325 0.0
C341 C 0.31379 0.47417 0.61895 0.0
C342 C 0.31565 0.50768 0.58507 0.0
N343 N 0.31643 0.52295 0.61123 0.0
O344 O 0.31068 0.47764 0.52822 0.0
H345 H 0.31299 0.45309 0.63089 0.0
H346 H 0.31585 0.51863 0.56356 0.0
O347 O 0.33357 0.43872 0.55429 0.0
C348 C 0.29611 0.48388 0.52488 0.0
O349 O 0.28597 0.47032 0.54249 0.0
N350 N 0.30785 0.41729 0.58775 0.0
C351 C 0.29639 0.37304 0.6262 0.0
C352 C 0.31145 0.37031 0.61342 0.0
C353 C 0.31693 0.39264 0.5938 0.0
C354 C 0.29326 0.42016 0.60002 0.0
C355 C 0.28738 0.39857 0.61945 0.0
H356 H 0.32808 0.38944 0.5827 0.0
H357 H 0.28602 0.43935 0.59422 0.0
H358 H 0.32011 0.43445 0.49194 0.0
H359 H 0.28549 0.367 0.49518 0.0
H360 H 0.31585 0.50563 0.65631 0.0
H361 H 0.31868 0.35067 0.61775 0.0
H362 H 0.27582 0.40189 0.62905 0.0
C363 C 1.00588 0.85547 0.53486 0.0
C364 C 1.00922 0.86814 0.50763 0.0
N365 N 0.99646 0.86549 0.48994 0.0
N366 N 0.99102 0.8451 0.53462 0.0
C367 C 0.98556 0.85158 0.50708 0.0
H368 H 1.01406 0.85232 0.55304 0.0
Co369 Co 0.98211 0.81967 0.56298 0.0
C370 C 0.9513 0.85123 0.57338 0.0
O371 O 0.9547 0.85449 0.60169 0.0
N372 N 0.97318 0.79234 0.5918 0.0
C373 C 0.96485 0.77059 0.63396 0.0
C374 C 0.96876 0.79739 0.62043 0.0
C375 C 0.97166 0.76197 0.58879 0.0
N376 N 0.96676 0.74822 0.61403 0.0
O377 O 0.97892 0.79078 0.53167 0.0
H378 H 0.96922 0.81883 0.63181 0.0
H379 H 0.97483 0.74961 0.56897 0.0
O380 O 0.96105 0.8381 0.55577 0.0
C381 C 0.992 0.77676 0.52955 0.0
O382 O 1.00297 0.78233 0.54942 0.0
N383 N 0.98778 0.84741 0.593 0.0
C384 C 1.00384 0.88527 0.63248 0.0
C385 C 0.99314 0.89723 0.61177 0.0
C386 C 0.98534 0.8779 0.59192 0.0
C387 C 0.99855 0.8357 0.61231 0.0
C388 C 1.00642 0.85404 0.63261 0.0
H389 H 0.97791 0.88752 0.57483 0.0
H390 H 1.00144 0.81194 0.61129 0.0
H391 H 0.97409 0.84456 0.49937 0.0
H392 H 1.02057 0.87673 0.50091 0.0
H393 H 0.96135 0.76781 0.65701 0.0
H394 H 0.99101 0.9213 0.61058 0.0
H395 H 1.01497 0.84394 0.64746 0.0
C396 C 0.7549 0.15171 0.28602 0.0
C397 C 0.75728 0.13705 0.25932 0.0
N398 N 0.74591 0.14562 0.24016 0.0
N399 N 0.74203 0.16935 0.28376 0.0
C400 C 0.73676 0.16499 0.25568 0.0
H401 H 0.7625 0.15075 0.30531 0.0
Co402 Co 0.73509 0.19861 0.3107 0.0
C403 C 0.70104 0.2013 0.29822 0.0
O404 O 0.702 0.2308 0.29594 0.0
N405 N 0.72808 0.22839 0.33768 0.0
C406 C 0.71574 0.2523 0.37462 0.0
C407 C 0.718 0.22488 0.36071 0.0
C408 C 0.73177 0.25808 0.33812 0.0
N409 N 0.72437 0.2732 0.36024 0.0
O410 O 0.73515 0.22765 0.27871 0.0
H411 H 0.71247 0.20378 0.36676 0.0
H412 H 0.73979 0.26857 0.32259 0.0
O413 O 0.71342 0.18593 0.30344 0.0
C414 C 0.74971 0.2345 0.2766 0.0
O415 O 0.75945 0.22296 0.29631 0.0
N416 N 0.73725 0.17102 0.34182 0.0
C417 C 0.74892 0.12856 0.382 0.0
C418 C 0.73604 0.12164 0.36355 0.0
C419 C 0.73039 0.14325 0.34339 0.0
C420 C 0.74925 0.17854 0.36046 0.0
C421 C 0.75519 0.15777 0.38083 0.0
H422 H 0.72127 0.13701 0.32779 0.0
H423 H 0.75482 0.20036 0.35835 0.0
H424 H 0.72708 0.17757 0.24616 0.0
H425 H 0.76698 0.12213 0.25411 0.0
H426 H 0.70802 0.25663 0.39335 0.0
H427 H 0.73093 0.09928 0.36351 0.0
H428 H 0.76492 0.16433 0.39496 0.0
C429 C 0.04203 0.62028 0.28372 0.0
C430 C 0.03913 0.63404 0.25679 0.0
N431 N 0.05087 0.62692 0.23781 0.0
N432 N 0.05564 0.6048 0.28191 0.0
C433 C 0.06079 0.6094 0.25376 0.0
H434 H 0.03429 0.6203 0.30288 0.0
Co435 Co 0.0635 0.57688 0.30938 0.0
C436 C 0.09591 0.60134 0.31899 0.0
O437 O 0.09341 0.60225 0.34781 0.0
N438 N 0.07143 0.54734 0.33713 0.0
C439 C 0.07891 0.52276 0.37831 0.0
C440 C 0.07558 0.55049 0.36615 0.0
C441 C 0.0725 0.5171 0.33251 0.0
N442 N 0.07685 0.50162 0.35715 0.0
O443 O 0.0646 0.54777 0.27744 0.0
H444 H 0.07553 0.57138 0.37856 0.0
H445 H 0.06986 0.50628 0.31156 0.0
O446 O 0.08515 0.59184 0.30135 0.0
C447 C 0.05046 0.53801 0.27639 0.0
O448 O 0.04054 0.54786 0.29672 0.0
N449 N 0.05958 0.60468 0.34026 0.0
C450 C 0.04523 0.64321 0.38152 0.0
C451 C 0.05683 0.6541 0.36195 0.0
C452 C 0.06381 0.63443 0.34118 0.0
C453 C 0.04796 0.59422 0.35847 0.0
C454 C 0.04092 0.61281 0.3796 0.0
H455 H 0.07194 0.64339 0.32492 0.0
H456 H 0.04378 0.57132 0.35593 0.0
H457 H 0.07099 0.59816 0.24451 0.0
H458 H 0.02883 0.64728 0.25136 0.0
H459 H 0.08182 0.51849 0.40141 0.0
H460 H 0.06025 0.67763 0.36233 0.0
H461 H 0.03165 0.60367 0.39349 0.0
C462 C 0.7611 0.60616 0.47574 0.0
C463 C 0.76366 0.62054 0.50246 0.0
N464 N 0.75036 0.61923 0.51883 0.0
N465 N 0.74619 0.59606 0.475 0.0
C466 C 0.73992 0.60439 0.50144 0.0
H467 H 0.7698 0.60172 0.45868 0.0
Co468 Co 0.73796 0.56898 0.44725 0.0
C469 C 0.70778 0.60434 0.43655 0.0
O470 O 0.71229 0.61387 0.41023 0.0
N471 N 0.72978 0.54038 0.41993 0.0
C472 C 0.71835 0.51685 0.38171 0.0
C473 C 0.72106 0.54435 0.39505 0.0
C474 C 0.73221 0.51017 0.42103 0.0
N475 N 0.72535 0.49533 0.39819 0.0
O476 O 0.73387 0.5416 0.4795 0.0
H477 H 0.71729 0.56579 0.38634 0.0
H478 H 0.73928 0.49918 0.43781 0.0
O479 O 0.71666 0.58706 0.45214 0.0
C480 C 0.74691 0.52982 0.48735 0.0
O481 O 0.75965 0.53628 0.47209 0.0
N482 N 0.74411 0.59518 0.41581 0.0
C483 C 0.76005 0.63076 0.37396 0.0
C484 C 0.7511 0.64416 0.3967 0.0
C485 C 0.74339 0.626 0.41762 0.0
C486 C 0.75311 0.58193 0.39422 0.0
C487 C 0.7609 0.59919 0.37282 0.0
H488 H 0.73719 0.63675 0.43584 0.0
H489 H 0.75491 0.55778 0.39425 0.0
H490 H 0.7282 0.59804 0.50834 0.0
H491 H 0.77484 0.62935 0.50992 0.0
H492 H 0.71174 0.51304 0.36146 0.0
H493 H 0.75022 0.66847 0.39858 0.0
H494 H 0.76809 0.58787 0.35629 0.0
C495 C 0.04985 0.15609 0.47319 0.0
C496 C 0.05023 0.14219 0.5006 0.0
N497 N 0.06213 0.15412 0.51644 0.0
N498 N 0.06164 0.1764 0.47159 0.0
C499 C 0.06887 0.17471 0.49834 0.0
H500 H 0.04117 0.15232 0.45603 0.0
Co501 Co 0.06593 0.20406 0.44126 0.0
C502 C 0.0988 0.18904 0.42338 0.0
O503 O 0.0948 0.19441 0.39568 0.0
N504 N 0.07008 0.23335 0.4103 0.0
C505 C 0.07148 0.25699 0.36634 0.0
C506 C 0.06937 0.22979 0.38028 0.0
C507 C 0.07277 0.26343 0.41363 0.0
N508 N 0.07348 0.2783 0.38731 0.0
O509 O 0.06773 0.23502 0.4712 0.0
H510 H 0.06757 0.20874 0.36865 0.0
H511 H 0.07361 0.27467 0.43495 0.0
O512 O 0.0886 0.19282 0.44412 0.0
C513 C 0.05354 0.24433 0.47332 0.0
O514 O 0.04302 0.23233 0.45545 0.0
N515 N 0.06144 0.17406 0.41297 0.0
C516 C 0.0471 0.13072 0.37675 0.0
C517 C 0.06187 0.12515 0.38982 0.0
C518 C 0.06877 0.14701 0.40832 0.0
C519 C 0.047 0.17943 0.40094 0.0
C520 C 0.03973 0.15837 0.38263 0.0
H521 H 0.07953 0.14157 0.41986 0.0
H522 H 0.04091 0.2002 0.40616 0.0
H523 H 0.07862 0.18897 0.50473 0.0
H524 H 0.04188 0.12577 0.50884 0.0
H525 H 0.07146 0.26071 0.34248 0.0
H526 H 0.06791 0.10393 0.38627 0.0
H527 H 0.02812 0.1634 0.3741 0.0
C528 C 0.79998 0.36888 0.72896 0.0
C529 C 0.79898 0.38174 0.75672 0.0
N530 N 0.80981 0.36874 0.77441 0.0
N531 N 0.81153 0.34793 0.72877 0.0
C532 C 0.81746 0.34875 0.75681 0.0
H533 H 0.79193 0.3732 0.71086 0.0
Co534 Co 0.81488 0.31831 0.69913 0.0
C535 C 0.84746 0.33109 0.67674 0.0
O536 O 0.84283 0.32386 0.64984 0.0
N537 N 0.81768 0.28734 0.66923 0.0
C538 C 0.8174 0.26223 0.62594 0.0
C539 C 0.81675 0.29007 0.63915 0.0
C540 C 0.81876 0.25698 0.67337 0.0
N541 N 0.81851 0.24125 0.64744 0.0
O542 O 0.81836 0.28897 0.72997 0.0
H543 H 0.81567 0.31098 0.62698 0.0
H544 H 0.81906 0.2463 0.69498 0.0
O545 O 0.83763 0.32968 0.69839 0.0
C546 C 0.80482 0.28189 0.74006 0.0
O547 O 0.79233 0.29455 0.72823 0.0
N548 N 0.80928 0.34656 0.66988 0.0
C549 C 0.79432 0.38685 0.63131 0.0
C550 C 0.8094 0.39316 0.64259 0.0
C551 C 0.81666 0.37278 0.6622 0.0
C552 C 0.79453 0.34053 0.65967 0.0
C553 C 0.78694 0.36009 0.64019 0.0
H554 H 0.82783 0.37869 0.67199 0.0
H555 H 0.78852 0.32044 0.66725 0.0
H556 H 0.8262 0.33301 0.76495 0.0
H557 H 0.79028 0.39808 0.76383 0.0
H558 H 0.81698 0.25789 0.6022 0.0
H559 H 0.81546 0.41376 0.63662 0.0
H560 H 0.77514 0.35466 0.63294 0.0
C561 C 0.50394 0.90045 0.72206 0.0
C562 C 0.50577 0.88761 0.74972 0.0
N563 N 0.49355 0.89607 0.76692 0.0
N564 N 0.49061 0.91695 0.72177 0.0
C565 C 0.48445 0.91362 0.7494 0.0
H566 H 0.51248 0.89978 0.70421 0.0
Co567 Co 0.48535 0.94592 0.69326 0.0
C568 C 0.45268 0.93124 0.67598 0.0
O569 O 0.45718 0.93566 0.64837 0.0
N570 N 0.48033 0.97687 0.66424 0.0
C571 C 0.47763 1.00355 0.62219 0.0
C572 C 0.48062 0.97562 0.63399 0.0
C573 C 0.47702 1.00637 0.66987 0.0
N574 N 0.47546 0.02305 0.64476 0.0
O575 O 0.48413 0.97519 0.72488 0.0
H576 H 0.48273 0.9557 0.6207 0.0
H577 H 0.4759 0.01578 0.692 0.0
O578 O 0.46271 0.93444 0.69709 0.0
C579 C 0.4984 0.98415 0.72628 0.0
O580 O 0.50836 0.97346 0.70647 0.0
N581 N 0.4894 0.91748 0.66325 0.0
C582 C 0.50291 0.87695 0.62314 0.0
C583 C 0.48921 0.86916 0.63887 0.0
C584 C 0.48265 0.8898 0.65919 0.0
C585 C 0.50317 0.92443 0.64931 0.0
C586 C 0.50989 0.90492 0.6287 0.0
H587 H 0.47263 0.88309 0.67241 0.0
H588 H 0.50902 0.94546 0.65435 0.0
H589 H 0.47443 0.92631 0.75745 0.0
H590 H 0.51586 0.87484 0.75729 0.0
H591 H 0.47761 1.00917 0.5987 0.0
H592 H 0.48374 0.84733 0.63568 0.0
H593 H 0.52075 0.91136 0.61781 0.0
C594 C 0.79381 0.89494 0.5347 0.0
C595 C 0.79189 0.88049 0.50766 0.0
N596 N 0.80217 0.89242 0.48813 0.0
N597 N 0.80543 0.91552 0.53218 0.0
C598 C 0.81027 0.91332 0.50357 0.0
H599 H 0.78678 0.8915 0.55451 0.0
Co600 Co 0.81229 0.94479 0.55932 0.0
C601 C 0.84598 0.94751 0.54444 0.0
O602 O 0.84444 0.97668 0.54009 0.0
N603 N 0.81938 0.97448 0.58623 0.0
C604 C 0.83264 0.99876 0.62159 0.0
C605 C 0.83059 0.97152 0.60731 0.0
C606 C 0.8147 1.00357 0.58837 0.0
N607 N 0.82266 0.01902 0.60957 0.0
O608 O 0.81223 0.97401 0.52748 0.0
H609 H 0.83704 0.95095 0.61168 0.0
H610 H 0.80558 0.01326 0.57464 0.0
O611 O 0.83398 0.93197 0.55191 0.0
C612 C 0.79775 0.98125 0.52491 0.0
O613 O 0.7877 0.96942 0.5439 0.0
N614 N 0.81012 0.91739 0.59065 0.0
C615 C 0.79922 0.87792 0.63436 0.0
C616 C 0.8111 0.86887 0.61439 0.0
C617 C 0.81653 0.88919 0.59266 0.0
C618 C 0.7987 0.92643 0.61 0.0
C619 C 0.79326 0.90728 0.63224 0.0
H620 H 0.82518 0.8818 0.57652 0.0
H621 H 0.79331 0.94838 0.60736 0.0
H622 H 0.81922 0.92765 0.49389 0.0
H623 H 0.78304 0.86382 0.5023 0.0
H624 H 0.84115 1.00339 0.6389 0.0
H625 H 0.81591 0.84625 0.61529 0.0
H626 H 0.78391 0.91496 0.64681 0.0
C627 C 0.50134 0.3658 0.53166 0.0
C628 C 0.50262 0.37925 0.50415 0.0
N629 N 0.49083 0.36912 0.4869 0.0
N630 N 0.48859 0.34767 0.53195 0.0
C631 C 0.48246 0.35018 0.50427 0.0
H632 H 0.50966 0.36799 0.54973 0.0
Co633 Co 0.4827 0.32018 0.56165 0.0
C634 C 0.45085 0.34329 0.57925 0.0
O635 O 0.45503 0.34098 0.60726 0.0
N636 N 0.47704 0.29115 0.59179 0.0
C637 C 0.47334 0.26753 0.63531 0.0
C638 C 0.47578 0.29484 0.62173 0.0
C639 C 0.47537 0.26086 0.58814 0.0
N640 N 0.47319 0.24602 0.61418 0.0
O641 O 0.47908 0.29053 0.53095 0.0
H642 H 0.47699 0.31592 0.63361 0.0
H643 H 0.47645 0.24947 0.56696 0.0
O644 O 0.46056 0.3354 0.55875 0.0
C645 C 0.49255 0.28044 0.52317 0.0
O646 O 0.50509 0.29053 0.537 0.0
N647 N 0.4886 0.3486 0.59084 0.0
C648 C 0.50416 0.38805 0.62946 0.0
C649 C 0.49089 0.39766 0.61339 0.0
C650 C 0.48332 0.37759 0.59389 0.0
C651 C 0.50184 0.33946 0.60537 0.0
C652 C 0.50958 0.35851 0.62519 0.0
H653 H 0.47372 0.38575 0.58035 0.0
H654 H 0.50656 0.31717 0.60114 0.0
H655 H 0.47246 0.33726 0.49654 0.0
H656 H 0.51208 0.39377 0.49677 0.0
H657 H 0.47208 0.26386 0.65904 0.0
H658 H 0.48653 0.42052 0.61562 0.0
H659 H 0.52006 0.35043 0.63635 0.0
C660 C 0.25313 0.65403 0.28521 0.0
C661 C 0.25562 0.64061 0.25781 0.0
N662 N 0.24526 0.65232 0.23829 0.0
N663 N 0.2411 0.67376 0.28294 0.0
C664 C 0.23656 0.67211 0.25413 0.0
H665 H 0.26003 0.65044 0.30515 0.0
Co666 Co 0.23338 0.70154 0.31082 0.0
C667 C 0.19989 0.70301 0.29328 0.0
O668 O 0.20103 0.73226 0.28904 0.0
N669 N 0.22547 0.72983 0.33847 0.0
C670 C 0.21004 0.75319 0.37135 0.0
C671 C 0.21301 0.72635 0.35685 0.0
C672 C 0.23015 0.75867 0.34292 0.0
N673 N 0.22088 0.77342 0.36257 0.0
O674 O 0.23366 0.73191 0.28021 0.0
H675 H 0.20621 0.70585 0.35888 0.0
H676 H 0.23977 0.76921 0.33113 0.0
O677 O 0.21198 0.68815 0.30158 0.0
C678 C 0.24803 0.74026 0.27998 0.0
O679 O 0.25752 0.72847 0.29998 0.0
N680 N 0.23535 0.67292 0.34104 0.0
C681 C 0.24702 0.63015 0.38094 0.0
C682 C 0.23451 0.623 0.36164 0.0
C683 C 0.22885 0.64479 0.34163 0.0
C684 C 0.24695 0.68061 0.36051 0.0
C685 C 0.25287 0.6597 0.38074 0.0
H686 H 0.22005 0.63849 0.32542 0.0
H687 H 0.25223 0.70275 0.35923 0.0
H688 H 0.22733 0.68593 0.2447 0.0
H689 H 0.26484 0.62467 0.25233 0.0
H690 H 0.20054 0.75764 0.38682 0.0
H691 H 0.22972 0.60038 0.36089 0.0
H692 H 0.26228 0.66646 0.39555 0.0
C693 C 0.54513 0.11191 0.28877 0.0
C694 C 0.5424 0.12562 0.2618 0.0
N695 N 0.55453 0.11936 0.24343 0.0
N696 N 0.55904 0.09734 0.28769 0.0
C697 C 0.56453 0.10244 0.25981 0.0
H698 H 0.53705 0.11128 0.30738 0.0
Co699 Co 0.56664 0.06992 0.31581 0.0
C700 C 0.59838 0.09481 0.32983 0.0
O701 O 0.59519 0.09278 0.35838 0.0
N702 N 0.57415 0.04057 0.34433 0.0
C703 C 0.57939 0.01531 0.38636 0.0
C704 C 0.57577 0.04297 0.3743 0.0
C705 C 0.57716 0.01088 0.33905 0.0
N706 N 0.58012 0.99493 0.36415 0.0
O707 O 0.56979 0.04175 0.28389 0.0
H708 H 0.57398 0.06328 0.38721 0.0
H709 H 0.57697 1.00071 0.31722 0.0
O710 O 0.58815 0.08648 0.31057 0.0
C711 C 0.55693 0.02733 0.28075 0.0
O712 O 0.54549 0.03227 0.29987 0.0
N713 N 0.56118 0.09739 0.34638 0.0
C714 C 0.54514 0.13734 0.38431 0.0
C715 C 0.55821 0.14697 0.36757 0.0
C716 C 0.56589 0.12681 0.34831 0.0
C717 C 0.54849 0.08774 0.36233 0.0
C718 C 0.54046 0.1071 0.38162 0.0
H719 H 0.57497 0.13535 0.33374 0.0
H720 H 0.54415 0.06504 0.35905 0.0
H721 H 0.57504 0.09191 0.251 0.0
H722 H 0.53193 0.13811 0.25583 0.0
H723 H 0.58062 0.01047 0.40989 0.0
H724 H 0.56223 0.17012 0.36864 0.0
H725 H 0.53017 0.0987 0.39313 0.0
C726 C 0.25336 0.12301 0.47221 0.0
C727 C 0.25499 0.13698 0.49939 0.0
N728 N 0.24406 0.12579 0.51813 0.0
N729 N 0.24133 0.10326 0.47352 0.0
C730 C 0.23581 0.1057 0.50175 0.0
H731 H 0.26116 0.12577 0.45338 0.0
Co732 Co 0.23658 0.0731 0.44554 0.0
C733 C 0.20323 0.08492 0.42923 0.0
O734 O 0.20712 0.0795 0.40146 0.0
N735 N 0.23213 0.04111 0.4173 0.0
C736 C 0.22867 0.01371 0.37578 0.0
C737 C 0.23145 0.04204 0.38705 0.0
C738 C 0.23003 0.01131 0.42347 0.0
N739 N 0.22791 0.99441 0.39873 0.0
O740 O 0.23581 0.04456 0.47764 0.0
H741 H 0.23264 0.06205 0.37351 0.0
H742 H 0.23005 1.00178 0.44564 0.0
O743 O 0.21377 0.08335 0.44959 0.0
C744 C 0.25021 0.03675 0.48025 0.0
O745 O 0.2604 0.04827 0.46138 0.0
N746 N 0.23996 0.10101 0.41476 0.0
C747 C 0.25322 0.14361 0.37637 0.0
C748 C 0.23885 0.14946 0.39086 0.0
C749 C 0.2325 0.12798 0.41043 0.0
C750 C 0.25388 0.09511 0.40084 0.0
C751 C 0.26057 0.11578 0.38128 0.0
H752 H 0.22221 0.13379 0.42333 0.0
H753 H 0.26009 0.07437 0.40568 0.0
H754 H 0.22682 0.09108 0.51084 0.0
H755 H 0.26408 0.15295 0.50531 0.0
H756 H 0.2277 1.00761 0.35247 0.0
H757 H 0.23297 0.17098 0.38824 0.0
H758 H 0.27158 0.11011 0.37048 0.0
C759 C 0.54381 0.66327 0.47448 0.0
C760 C 0.54121 0.65127 0.50233 0.0
N761 N 0.5544 0.65466 0.51858 0.0
N762 N 0.55858 0.67415 0.47319 0.0
C763 C 0.56478 0.66843 0.50035 0.0
H764 H 0.53518 0.66571 0.45695 0.0
Co765 Co 0.5663 0.69958 0.44363 0.0
C766 C 0.5981 0.67288 0.43308 0.0
O767 O 0.5948 0.66904 0.40478 0.0
N768 N 0.57406 0.72698 0.41358 0.0
C769 C 0.58111 0.74876 0.37058 0.0
C770 C 0.57745 0.72197 0.38445 0.0
C771 C 0.57605 0.75728 0.41658 0.0
N772 N 0.58017 0.77105 0.39086 0.0
O773 O 0.56872 0.72974 0.47362 0.0
H774 H 0.57685 0.70041 0.37327 0.0
H775 H 0.57397 0.76961 0.43694 0.0
O776 O 0.58792 0.6845 0.45076 0.0
C777 C 0.55543 0.74299 0.47517 0.0
O778 O 0.54456 0.73612 0.4555 0.0
N779 N 0.56145 0.66991 0.41499 0.0
C780 C 0.5467 0.62712 0.37861 0.0
C781 C 0.55849 0.6185 0.39884 0.0
C782 C 0.56553 0.64016 0.41723 0.0
C783 C 0.54974 0.6785 0.39605 0.0
C784 C 0.54245 0.65767 0.37729 0.0
H785 H 0.57365 0.63281 0.43426 0.0
H786 H 0.54573 0.70168 0.39607 0.0
H787 H 0.57615 0.67664 0.50749 0.0
H788 H 0.53022 0.64218 0.51052 0.0
H789 H 0.584 0.75159 0.34723 0.0
H790 H 0.56179 0.59503 0.40142 0.0
H791 H 0.5334 0.66547 0.36216 0.0
C792 C 0.79199 0.84965 0.22402 0.0
C793 C 0.78883 0.8612 0.25193 0.0
N794 N 0.8015 0.8565 0.26926 0.0
N795 N 0.80676 0.83849 0.22362 0.0
C796 C 0.81217 0.8427 0.25163 0.0
H797 H 0.78387 0.8485 0.2055 0.0
Co798 Co 0.81632 0.81587 0.19339 0.0
C799 C 0.84587 0.85461 0.19094 0.0
O800 O 0.8417 0.86707 0.16563 0.0
N801 N 0.82586 0.79127 0.16367 0.0
C802 C 0.84263 0.76897 0.13232 0.0
C803 C 0.83905 0.79525 0.14728 0.0
C804 C 0.82149 0.76253 0.15744 0.0
N805 N 0.83158 0.74838 0.13885 0.0
O806 O 0.81975 0.78449 0.22216 0.0
H807 H 0.84613 0.8153 0.14677 0.0
H808 H 0.81153 0.75143 0.16755 0.0
O809 O 0.83721 0.83432 0.20312 0.0
C810 C 0.80691 0.76984 0.22455 0.0
O811 O 0.79504 0.7775 0.2074 0.0
N812 N 0.81081 0.84601 0.1648 0.0
C813 C 0.79518 0.88688 0.12719 0.0
C814 C 0.80296 0.89689 0.15295 0.0
C815 C 0.81052 0.87616 0.17155 0.0
C816 C 0.80332 0.83594 0.13976 0.0
C817 C 0.79565 0.85595 0.12053 0.0
H818 H 0.81569 0.88428 0.19207 0.0
H819 H 0.80251 0.81205 0.13524 0.0
H820 H 0.82349 0.83468 0.25927 0.0
H821 H 0.77778 0.87075 0.2594 0.0
H822 H 0.85284 0.76503 0.11841 0.0
H823 H 0.80265 0.9204 0.15952 0.0
H824 H 0.78984 0.84706 0.10092 0.0
C825 C 0.50249 0.40045 0.22176 0.0
C826 C 0.50388 0.38599 0.2489 0.0
N827 N 0.49269 0.39689 0.26726 0.0
N828 N 0.49036 0.42006 0.2231 0.0
C829 C 0.4846 0.41716 0.251 0.0
H830 H 0.51024 0.39779 0.20281 0.0
Co831 Co 0.48372 0.44921 0.19579 0.0
C832 C 0.4493 0.44861 0.20753 0.0
O833 O 0.44911 0.47806 0.21094 0.0
N834 N 0.47683 0.47874 0.16864 0.0
C835 C 0.46491 0.50259 0.13125 0.0
C836 C 0.46724 0.47508 0.14493 0.0
C837 C 0.48015 0.50857 0.16889 0.0
N838 N 0.47299 0.52365 0.14653 0.0
O839 O 0.48264 0.4781 0.22799 0.0
H840 H 0.46209 0.45382 0.13824 0.0
H841 H 0.48771 0.51921 0.18511 0.0
O842 O 0.46222 0.43527 0.20158 0.0
C843 C 0.49702 0.4854 0.23196 0.0
O844 O 0.50753 0.47447 0.2133 0.0
N845 N 0.4869 0.42198 0.1646 0.0
C846 C 0.49913 0.3809 0.12347 0.0
C847 C 0.48584 0.37358 0.14073 0.0
C848 C 0.47993 0.39446 0.1614 0.0
C849 C 0.49942 0.42984 0.14735 0.0
C850 C 0.50567 0.40974 0.12657 0.0
H851 H 0.47039 0.38785 0.17589 0.0
H852 H 0.50502 0.45148 0.15072 0.0
H853 H 0.47502 0.43068 0.25966 0.0
H854 H 0.51298 0.37013 0.2552 0.0
H855 H 0.45752 0.50688 0.11209 0.0
H856 H 0.48052 0.35143 0.13931 0.0
H857 H 0.51575 0.41657 0.11345 0.0
C858 C 0.79909 0.39994 0.04066 0.0
C859 C 0.79674 0.38443 0.01447 0.0
N860 N 0.80838 0.39165 0.99532 0.0
N861 N 0.81226 0.41665 0.03825 0.0
C862 C 0.8177 0.41097 0.01047 0.0
H863 H 0.79122 0.40028 0.05962 0.0
Co864 Co 0.8191 0.44687 0.06437 0.0
C865 C 0.85213 0.42618 0.07608 0.0
O866 O 0.84966 0.42814 0.10485 0.0
N867 N 0.82585 0.47876 0.0906 0.0
C868 C 0.8331 0.50637 0.1301 0.0
C869 C 0.83015 0.47772 0.11971 0.0
C870 C 0.82602 0.50877 0.08432 0.0
N871 N 0.83039 0.52588 0.10782 0.0
O872 O 0.81988 0.47401 0.03097 0.0
H873 H 0.83056 0.45765 0.13331 0.0
H874 H 0.82283 0.51837 0.06305 0.0
O875 O 0.84116 0.43318 0.05775 0.0
C876 C 0.80552 0.48201 0.02801 0.0
O877 O 0.79536 0.4725 0.04802 0.0
N878 N 0.81576 0.42043 0.09653 0.0
C879 C 0.80167 0.37987 0.13608 0.0
C880 C 0.81432 0.37082 0.11792 0.0
C881 C 0.82107 0.39135 0.09795 0.0
C882 C 0.80363 0.42962 0.11426 0.0
C883 C 0.7966 0.40992 0.13447 0.0
H884 H 0.82964 0.3832 0.08207 0.0
H885 H 0.79884 0.45208 0.11162 0.0
H886 H 0.82758 0.42276 1.00074 0.0
H887 H 0.78681 0.37005 0.0095 0.0
H888 H 0.8363 0.5125 0.15268 0.0
H889 H 0.81834 0.34763 0.11778 0.0
H890 H 0.78694 0.418 0.14806 0.0
C891 C 0.50951 0.86232 0.02946 0.0
C892 C 0.51066 0.87643 1.00233 0.0
N893 N 0.49738 0.87116 0.98675 0.0
N894 N 0.49549 0.84839 0.03139 0.0
C895 C 0.48834 0.85415 0.00507 0.0
H896 H 0.51873 0.86079 0.04595 0.0
Co897 Co 0.48982 0.82086 0.06082 0.0
C898 C 0.45849 0.84158 0.08159 0.0
O899 O 0.46347 0.83674 0.10883 0.0
N900 N 0.4844 0.79119 0.09085 0.0
C901 C 0.48254 0.76546 0.1336 0.0
C902 C 0.48574 0.79291 0.12094 0.0
C903 C 0.4801 0.76198 0.08623 0.0
N904 N 0.4791 0.74576 0.11175 0.0
O905 O 0.48577 0.7921 0.0299 0.0
H906 H 0.48888 0.81275 0.13354 0.0
H907 H 0.47793 0.7524 0.06449 0.0
O908 O 0.46772 0.83613 0.05961 0.0
C909 C 0.4987 0.77798 0.02605 0.0
O910 O 0.51055 0.78401 0.04384 0.0
N911 N 0.49617 0.84897 0.08997 0.0
C912 C 0.51151 0.88813 0.12913 0.0
C913 C 0.49786 0.89737 0.11405 0.0
C914 C 0.49043 0.87749 0.09419 0.0
C915 C 0.50997 0.84054 0.10299 0.0
C916 C 0.5176 0.8594 0.12315 0.0
H917 H 0.48043 0.88538 0.08159 0.0
H918 H 0.51505 0.81879 0.09769 0.0
H919 H 0.4771 0.84462 0.99901 0.0
H920 H 0.52101 0.88786 0.99408 0.0
H921 H 0.48332 0.76031 0.15714 0.0
H922 H 0.49301 0.91971 0.11753 0.0
H923 H 0.52839 0.85175 0.13351 0.0
C924 C 0.25622 0.14842 0.78528 0.0
C925 C 0.25799 0.13508 0.75782 0.0
N926 N 0.24654 0.14532 0.73971 0.0
N927 N 0.24357 0.16681 0.78478 0.0
C928 C 0.23784 0.16421 0.75674 0.0
H929 H 0.26428 0.14622 0.80375 0.0
Co930 Co 0.23821 0.19583 0.81355 0.0
C931 C 0.20584 0.17899 0.83166 0.0
O932 O 0.21016 0.1846 0.85915 0.0
N933 N 0.23308 0.22676 0.8427 0.0
C934 C 0.23077 0.25314 0.88503 0.0
C935 C 0.23345 0.22523 0.8729 0.0
C936 C 0.22999 0.25644 0.83743 0.0
N937 N 0.22867 0.27302 0.86275 0.0
O938 O 0.23627 0.22485 0.78202 0.0
H939 H 0.23549 0.20517 0.88595 0.0
H940 H 0.22893 0.26601 0.8154 0.0
O941 O 0.21574 0.18306 0.81045 0.0
C942 C 0.25043 0.23427 0.77987 0.0
O943 O 0.26078 0.22385 0.79902 0.0
N944 N 0.24289 0.16773 0.84362 0.0
C945 C 0.257 0.12823 0.88392 0.0
C946 C 0.24331 0.11974 0.86858 0.0
C947 C 0.23644 0.13986 0.84818 0.0
C948 C 0.25665 0.17537 0.8572 0.0
C949 C 0.26367 0.15639 0.87791 0.0
H950 H 0.22642 0.13256 0.83528 0.0
H951 H 0.26225 0.19658 0.85184 0.0
H952 H 0.2283 0.17792 0.74826 0.0
H953 H 0.26748 0.1202 0.75128 0.0
H954 H 0.23094 0.25836 0.90859 0.0
H955 H 0.23807 0.09777 0.87214 0.0
H956 H 0.27449 0.16338 0.88856 0.0
C957 C 0.54593 0.61054 0.78139 0.0
C958 C 0.54409 0.62521 0.75471 0.0
N959 N 0.55673 0.61948 0.73743 0.0
N960 N 0.55978 0.59579 0.78137 0.0
C961 C 0.5661 0.60157 0.75427 0.0
H962 H 0.53726 0.60931 0.79898 0.0
Co963 Co 0.5659 0.56776 0.81012 0.0
C964 C 0.59828 0.5863 0.82712 0.0
O965 O 0.59397 0.58397 0.85508 0.0
N966 N 0.57166 0.53769 0.83961 0.0
C967 C 0.57489 0.51263 0.88253 0.0
C968 C 0.57227 0.54028 0.86975 0.0
C969 C 0.57406 0.50767 0.83505 0.0
N970 N 0.57588 0.49195 0.8607 0.0
O971 O 0.56862 0.53882 0.77875 0.0
H972 H 0.57063 0.56085 0.88231 0.0
H973 H 0.5742 0.49713 0.81335 0.0
O974 O 0.58822 0.58137 0.8064 0.0
C975 C 0.55526 0.52627 0.77525 0.0
O976 O 0.54377 0.5335 0.79352 0.0
N977 N 0.56082 0.59599 0.83995 0.0
C978 C 0.54627 0.63587 0.8796 0.0
C979 C 0.55961 0.64479 0.86332 0.0
C980 C 0.56668 0.62449 0.84327 0.0
C981 C 0.54745 0.58766 0.85456 0.0
C982 C 0.54022 0.6069 0.87491 0.0
H983 H 0.57639 0.63205 0.82968 0.0
H984 H 0.54227 0.56585 0.85005 0.0
H985 H 0.57699 0.59157 0.74663 0.0
H986 H 0.53368 0.63746 0.74796 0.0
H987 H 0.57524 0.50802 0.90622 0.0
H988 H 0.56444 0.66725 0.86586 0.0
H989 H 0.52966 0.59945 0.88622 0.0
C990 C 0.25348 0.62059 0.97152 0.0
C991 C 0.25535 0.63479 0.99868 0.0
N992 N 0.24499 0.62283 0.01804 0.0
N993 N 0.24183 0.60005 0.97374 0.0
C994 C 0.23686 0.60215 1.0023 0.0
H995 H 0.26066 0.62405 0.95191 0.0
Co996 Co 0.23541 0.57054 0.94631 0.0
C997 C 0.20137 0.5681 0.95852 0.0
O998 O 0.20245 0.53871 0.96189 0.0
N999 N 0.22882 0.54068 0.91906 0.0
C1000 C 0.21714 0.51673 0.88142 0.0
C1001 C 0.21933 0.54425 0.89518 0.0
C1002 C 0.2322 0.51083 0.91933 0.0
N1003 N 0.22519 0.49572 0.8968 0.0
O1004 O 0.23495 0.54158 0.97829 0.0
H1005 H 0.21412 0.56545 0.88845 0.0
H1006 H 0.23966 0.50019 0.93574 0.0
O1007 O 0.21368 0.58333 0.95246 0.0
C1008 C 0.24949 0.53509 0.98152 0.0
O1009 O 0.25961 0.54681 0.9626 0.0
N1010 N 0.23816 0.59778 0.91512 0.0
C1011 C 0.25049 0.6387 0.87398 0.0
C1012 C 0.23677 0.64563 0.89031 0.0
C1013 C 0.2308 0.62483 0.91102 0.0
C1014 C 0.25102 0.5902 0.89866 0.0
C1015 C 0.25736 0.61021 0.87804 0.0
H1016 H 0.22087 0.63107 0.92475 0.0
H1017 H 0.25693 0.56901 0.90285 0.0
H1018 H 0.22785 0.58781 0.01175 0.0
H1019 H 0.26427 0.65127 0.00422 0.0
H1020 H 0.20982 0.51239 0.86216 0.0
H1021 H 0.23096 0.66722 0.88778 0.0
H1022 H 0.2681 0.60388 0.86666 0.0
C1023 C 0.54516 0.14549 0.97631 0.0
C1024 C 0.54357 0.13266 0.00396 0.0
N1025 N 0.554 0.14565 0.02252 0.0
N1026 N 0.55669 0.16637 0.97707 0.0
C1027 C 0.56194 0.16575 0.00558 0.0
H1028 H 0.5377 0.14086 0.9574 0.0
Co1029 Co 0.56142 0.19464 0.94714 0.0
C1030 C 0.59541 0.18474 0.93309 0.0
O1031 O 0.59247 0.19115 0.90513 0.0
N1032 N 0.56576 0.22438 0.91669 0.0
C1033 C 0.56804 0.24791 0.87281 0.0
C1034 C 0.56579 0.22072 0.88664 0.0
C1035 C 0.56805 0.25457 0.92015 0.0
N1036 N 0.56933 0.26938 0.89383 0.0
O1037 O 0.56194 0.22559 0.97722 0.0
H1038 H 0.56462 0.19956 0.87492 0.0
H1039 H 0.5683 0.26584 0.94152 0.0
O1040 O 0.58419 0.1851 0.95221 0.0
C1041 C 0.54749 0.23317 0.97955 0.0
O1042 O 0.53736 0.22011 0.9616 0.0
N1043 N 0.5583 0.16464 0.9183 0.0
C1044 C 0.54576 0.12067 0.88064 0.0
C1045 C 0.5606 0.11656 0.89391 0.0
C1046 C 0.5666 0.13874 0.91321 0.0
C1047 C 0.54393 0.16882 0.90551 0.0
C1048 C 0.53754 0.14738 0.88648 0.0
H1049 H 0.57746 0.13446 0.9249 0.0
H1050 H 0.53724 0.18892 0.91064 0.0
H1051 H 0.5706 0.18133 0.01427 0.0
H1052 H 0.53491 0.11594 0.0102 0.0
H1053 H 0.56873 0.25145 0.84896 0.0
H1054 H 0.56721 0.09597 0.89031 0.0
H1055 H 0.52617 0.15171 0.87651 0.0
H1056 H 0.27736 0.38289 0.29937 0.0
H1057 H 0.32921 0.40598 0.44657 0.0
H1058 H 0.32803 0.38019 0.29793 0.0
H1059 H 0.2797 0.38533 0.4468 0.0
H1060 H 0.32915 0.40263 0.39177 0.0
H1061 H 0.27811 0.39068 0.35315 0.0
C1062 C 0.28866 0.38434 0.31028 0.0
C1063 C 0.30266 0.38082 0.29407 0.0
C1064 C 0.31833 0.39877 0.40392 0.0
C1065 C 0.30361 0.38935 0.35593 0.0
C1066 C 0.31836 0.40075 0.43509 0.0
C1067 C 0.30449 0.39559 0.45125 0.0
C1068 C 0.30427 0.39204 0.38889 0.0
C1069 C 0.29073 0.38887 0.43534 0.0
C1070 C 0.28909 0.38851 0.34109 0.0
C1071 C 0.31697 0.38245 0.30962 0.0
N1072 N 0.29097 0.38738 0.40512 0.0
N1073 N 0.31709 0.38657 0.33971 0.0
H1074 H 0.97513 0.84437 0.44917 0.0
H1075 H 1.02376 0.90455 0.31012 0.0
H1076 H 1.01597 0.90164 0.45764 0.0
H1077 H 0.97492 0.88015 0.30246 0.0
H1078 H 1.02204 0.89825 0.36413 0.0
H1079 H 0.9754 0.85304 0.39543 0.0
C1080 C 0.98407 0.85898 0.44002 0.0
C1081 C 0.99566 0.87204 0.45834 0.0
C1082 C 1.01168 0.89424 0.35068 0.0
C1083 C 0.99615 0.88143 0.39645 0.0
C1084 C 1.01271 0.89752 0.31983 0.0
C1085 C 0.99949 0.89254 0.30183 0.0
C1086 C 0.99738 0.88552 0.3637 0.0
C1087 C 0.98535 0.88416 0.31565 0.0
C1088 C 0.98423 0.86378 0.40919 0.0
C1089 C 1.007 0.89049 0.44466 0.0
N1090 N 0.98468 0.88066 0.34581 0.0
N1091 N 1.00703 0.89438 0.41461 0.0
H1092 H 0.33519 0.90027 0.80246 0.0
H1093 H 0.30211 0.84795 0.96121 0.0
H1094 H 0.29332 0.84733 0.8143 0.0
H1095 H 0.33004 0.92856 0.95091 0.0
H1096 H 0.30359 0.83969 0.90754 0.0
H1097 H 0.33796 0.90364 0.85726 0.0
C1098 C 0.3267 0.88924 0.81676 0.0
C1099 C 0.31396 0.87374 0.80435 0.0
C1100 C 0.30949 0.85907 0.91709 0.0
C1101 C 0.31708 0.87696 0.86618 0.0
C1102 C 0.30862 0.86387 0.94774 0.0
C1103 C 0.31569 0.88933 0.96067 0.0
C1104 C 0.31762 0.87968 0.89908 0.0
C1105 C 0.32439 0.90865 0.94205 0.0
C1106 C 0.32823 0.89117 0.8478 0.0
C1107 C 0.3032 0.85964 0.82336 0.0
N1108 N 0.32501 0.90356 0.91211 0.0
N1109 N 0.305 0.86154 0.85337 0.0
H1110 H 0.98625 0.32922 0.94691 0.0
H1111 H 0.9851 0.44488 0.81038 0.0
H1112 H 0.9981 0.42324 0.95706 0.0
H1113 H 0.9917 0.34904 0.79957 0.0
H1114 H 0.98476 0.43807 0.86468 0.0
H1115 H 0.98318 0.33698 0.89325 0.0
C1116 C 0.98799 0.35161 0.93786 0.0
C1117 C 0.99238 0.3757 0.9564 0.0
C1118 C 0.98617 0.41854 0.85038 0.0
C1119 C 0.98897 0.38467 0.89504 0.0
C1120 C 0.98623 0.42237 0.81945 0.0
C1121 C 0.98846 0.39746 0.80055 0.0
C1122 C 0.98812 0.38953 0.8624 0.0
C1123 C 0.99008 0.36881 0.81343 0.0
C1124 C 0.98636 0.35596 0.90723 0.0
C1125 C 0.99479 0.40411 0.94343 0.0
N1126 N 0.98986 0.3656 0.84357 0.0
N1127 N 0.99301 0.40787 0.91349 0.0
H1128 H 0.72331 0.63688 0.70519 0.0
H1129 H 0.76864 0.65804 0.55055 0.0
H1130 H 0.77244 0.65929 0.69845 0.0
H1131 H 0.72814 0.59986 0.55872 0.0
H1132 H 0.76743 0.66766 0.60398 0.0
H1133 H 0.72227 0.63171 0.65043 0.0
C1134 C 0.73383 0.64077 0.69212 0.0
C1135 C 0.74802 0.64809 0.70621 0.0
C1136 C 0.75878 0.65288 0.59397 0.0
C1137 C 0.7469 0.64284 0.6441 0.0
C1138 C 0.75948 0.64725 0.56341 0.0
C1139 C 0.74866 0.62763 0.54986 0.0
C1140 C 0.74705 0.63916 0.61127 0.0
C1141 C 0.73676 0.61514 0.56788 0.0
C1142 C 0.73325 0.63776 0.66105 0.0
C1143 C 0.76135 0.65303 0.68845 0.0
N1144 N 0.73632 0.62102 0.59768 0.0
N1145 N 0.76045 0.65042 0.65834 0.0
H1146 H 0.07071 0.07664 0.69204 0.0
H1147 H 0.07177 0.19506 0.55745 0.0
H1148 H 0.06522 0.17254 0.70462 0.0
H1149 H 0.05978 0.10124 0.5462 0.0
H1150 H 0.07509 0.1864 0.61107 0.0
H1151 H 0.07244 0.08472 0.63807 0.0
C1152 C 0.07014 0.09943 0.68345 0.0
C1153 C 0.06776 0.12398 0.70274 0.0
C1154 C 0.07186 0.16767 0.5968 0.0
C1155 C 0.06968 0.13336 0.64118 0.0
C1156 C 0.07009 0.17254 0.56622 0.0
C1157 C 0.06545 0.14881 0.54746 0.0
C1158 C 0.06917 0.13879 0.6086 0.0
C1159 C 0.06321 0.12015 0.56002 0.0
C1160 C 0.07101 0.104 0.65268 0.0
C1161 C 0.0669 0.15303 0.69042 0.0
N1162 N 0.06508 0.11592 0.58983 0.0
N1163 N 0.06784 0.15694 0.66041 0.0
H1164 H 0.71995 0.14508 0.20485 0.0
H1165 H 0.77056 0.12362 0.05596 0.0
H1166 H 0.77024 0.13275 0.20308 0.0
H1167 H 0.71992 0.1192 0.05636 0.0
H1168 H 0.77032 0.12968 0.10984 0.0
H1169 H 0.71932 0.13772 0.1506 0.0
C1170 C 0.73084 0.14075 0.19309 0.0
C1171 C 0.74517 0.13949 0.20859 0.0
C1172 C 0.75923 0.12741 0.09824 0.0
C1173 C 0.74454 0.13117 0.14662 0.0
C1174 C 0.75935 0.12425 0.06734 0.0
C1175 C 0.74522 0.12119 0.05151 0.0
C1176 C 0.74487 0.12766 0.11366 0.0
C1177 C 0.73108 0.12141 0.06771 0.0
C1178 C 0.73046 0.13645 0.16217 0.0
C1179 C 0.7589 0.13353 0.19224 0.0
N1180 N 0.73125 0.12472 0.09792 0.0
N1181 N 0.75825 0.12978 0.16221 0.0
H1182 H 0.07672 0.62847 0.20196 0.0
H1183 H 1.02553 0.65326 0.05419 0.0
H1184 H 0.02625 0.63803 0.2008 0.0
H1185 H 0.0762 0.64916 0.05317 0.0
H1186 H 0.02587 0.64679 0.10798 0.0
H1187 H 0.0771 0.63555 0.14774 0.0
C1188 C 0.06573 0.63208 0.19037 0.0
C1189 C 0.05144 0.63267 0.20611 0.0
C1190 C 0.03695 0.64725 0.09607 0.0
C1191 C 0.05179 0.64084 0.14405 0.0
C1192 C 0.03676 0.65068 0.06518 0.0
C1193 C 0.05087 0.65155 0.04893 0.0
C1194 C 0.05135 0.64457 0.11109 0.0
C1195 C 0.06505 0.6488 0.06476 0.0
C1196 C 0.06596 0.63622 0.15943 0.0
C1197 C 0.03758 0.63779 0.18987 0.0
N1198 N 0.06493 0.64537 0.09495 0.0
N1199 N 0.03811 0.64154 0.15983 0.0
H1200 H 0.78387 0.37892 0.95877 0.0
H1201 H 0.83551 0.36356 0.81014 0.0
H1202 H 0.83426 0.38968 0.95953 0.0
H1203 H 0.78538 0.37772 0.81194 0.0
H1204 H 0.83585 0.36681 0.86505 0.0
H1205 H 0.78479 0.37122 0.90514 0.0
C1206 C 0.79518 0.37926 0.94777 0.0
C1207 C 0.80902 0.38498 0.96382 0.0
C1208 C 0.82482 0.36929 0.8533 0.0
C1209 C 0.81013 0.37663 0.90189 0.0
C1210 C 0.82462 0.36737 0.82208 0.0
C1211 C 0.81044 0.37081 0.80647 0.0
C1212 C 0.81068 0.37414 0.86888 0.0
C1213 C 0.79663 0.37562 0.82295 0.0
C1214 C 0.79569 0.37515 0.91699 0.0
C1215 C 0.8233 0.38566 0.94801 0.0
N1216 N 0.7971 0.37705 0.85314 0.0
N1217 N 0.8235 0.38157 0.91788 0.0
H1218 H 0.5126 0.91333 0.95344 0.0
H1219 H 0.46807 0.88204 0.80051 0.0
H1220 H 0.4761 0.84578 0.94824 0.0
H1221 H 0.51712 0.90526 0.80584 0.0
H1222 H 0.4673 0.8779 0.8555 0.0
H1223 H 0.51058 0.92067 0.89983 0.0
C1224 C 0.50415 0.89998 0.94121 0.0
C1225 C 0.49478 0.87833 0.95563 0.0
C1226 C 0.4782 0.88388 0.84449 0.0
C1227 C 0.49217 0.88738 0.89397 0.0
C1228 C 0.47862 0.88628 0.81333 0.0
C1229 C 0.49272 0.8936 0.79885 0.0
C1230 C 0.49187 0.88974 0.86105 0.0
C1231 C 0.5061 0.89907 0.81622 0.0
C1232 C 0.50298 0.90434 0.91053 0.0
C1233 C 0.48364 0.86263 0.93834 0.0
N1234 N 0.50533 0.89722 0.84639 0.0
N1235 N 0.48269 0.86738 0.90837 0.0
H1236 H 0.80478 0.93471 0.44514 0.0
H1237 H 0.81363 0.81891 0.31084 0.0
H1238 H 0.80071 0.83885 0.45915 0.0
H1239 H 0.79153 0.90565 0.2995 0.0
H1240 H 0.8142 0.82736 0.36506 0.0
H1241 H 0.80515 0.92604 0.39107 0.0
C1242 C 0.80412 0.91182 0.43674 0.0
C1243 C 0.80277 0.8874 0.45646 0.0
C1244 C 0.80928 0.84454 0.35064 0.0
C1245 C 0.8033 0.87735 0.39493 0.0
C1246 C 0.80907 0.83985 0.31981 0.0
C1247 C 0.80256 0.8617 0.30085 0.0
C1248 C 0.80327 0.87157 0.36241 0.0
C1249 C 0.79658 0.88829 0.3135 0.0
C1250 C 0.80422 0.90692 0.406 0.0
C1251 C 0.80172 0.85819 0.44455 0.0
N1252 N 0.7972 0.89262 0.34351 0.0
N1253 N 0.80214 0.85391 0.41448 0.0
H1254 H 0.4963 0.34414 0.29701 0.0
H1255 H 0.49543 0.42106 0.45688 0.0
H1256 H 0.48617 0.43866 0.30941 0.0
H1257 H 0.48318 0.32749 0.44508 0.0
H1258 H 0.4949 0.42774 0.40258 0.0
H1259 H 0.49447 0.33689 0.35135 0.0
C1260 C 0.49366 0.36327 0.31121 0.0
C1261 C 0.49127 0.39195 0.29884 0.0
C1262 C 0.49219 0.40581 0.41189 0.0
C1263 C 0.48937 0.38404 0.36057 0.0
C1264 C 0.49253 0.40202 0.44277 0.0
C1265 C 0.48928 0.37377 0.45532 0.0
C1266 C 0.48893 0.38097 0.39344 0.0
C1267 C 0.48558 0.3497 0.43619 0.0
C1268 C 0.49253 0.35914 0.34206 0.0
C1269 C 0.48786 0.41611 0.31807 0.0
N1270 N 0.48568 0.35375 0.40612 0.0
N1271 N 0.48715 0.41167 0.348 0.0
H1272 H 0.25033 0.59991 0.20866 0.0
H1273 H 0.2489 0.67568 0.04745 0.0
H1274 H 0.23935 0.69395 0.19555 0.0
H1275 H 0.24004 0.58093 0.06095 0.0
H1276 H 0.24863 0.68311 0.10179 0.0
H1277 H 0.24985 0.59252 0.15434 0.0
C1278 C 0.24783 0.61895 0.1943 0.0
C1279 C 0.24478 0.64749 0.20653 0.0
C1280 C 0.24666 0.66073 0.09281 0.0
C1281 C 0.24438 0.63939 0.14461 0.0
C1282 C 0.24688 0.65651 0.0619 0.0
C1283 C 0.24437 0.62774 0.04978 0.0
C1284 C 0.24426 0.63587 0.1117 0.0
C1285 C 0.24178 0.60356 0.06941 0.0
C1286 C 0.24748 0.61473 0.1634 0.0
C1287 C 0.24154 0.67148 0.18701 0.0
N1288 N 0.24191 0.60812 0.0994 0.0
N1289 N 0.24154 0.66695 0.15701 0.0
H1290 H 0.52966 0.1322 0.05899 0.0
H1291 H 0.58061 0.12486 0.2085 0.0
H1292 H 0.57927 0.15204 0.05932 0.0
H1293 H 0.52993 0.12588 0.20558 0.0
H1294 H 0.58114 0.13202 0.15409 0.0
H1295 H 0.53032 0.12654 0.11282 0.0
C1296 C 0.54077 0.13509 0.07037 0.0
C1297 C 0.55448 0.14231 0.05452 0.0
C1298 C 0.56994 0.13088 0.1655 0.0
C1299 C 0.55528 0.13623 0.1167 0.0
C1300 C 0.56962 0.12667 0.19648 0.0
C1301 C 0.55521 0.12491 0.21172 0.0
C1302 C 0.55573 0.13295 0.14968 0.0
C1303 C 0.54133 0.12758 0.19503 0.0
C1304 C 0.5411 0.13213 0.10125 0.0
C1305 C 0.56843 0.14653 0.07071 0.0
N1306 N 0.54195 0.13129 0.16503 0.0
N1307 N 0.56852 0.14326 0.10097 0.0
H1308 H 0.21856 0.12178 0.55464 0.0
H1309 H 0.2709 0.1362 0.70182 0.0
H1310 H 0.26852 0.13806 0.55482 0.0
H1311 H 0.22051 0.14663 0.7044 0.0
H1312 H 0.26972 0.13155 0.64785 0.0
H1313 H 0.21848 0.12632 0.60939 0.0
C1314 C 0.22947 0.12639 0.56616 0.0
C1315 C 0.24354 0.12974 0.55008 0.0
C1316 C 0.25888 0.13481 0.66013 0.0
C1317 C 0.24357 0.13466 0.61245 0.0
C1318 C 0.25953 0.13716 0.69107 0.0
C1319 C 0.24576 0.1416 0.70776 0.0
C1320 C 0.24434 0.13669 0.6455 0.0
C1321 C 0.23141 0.14335 0.69236 0.0
C1322 C 0.22941 0.12908 0.59732 0.0
C1323 C 0.25735 0.13581 0.5661 0.0
N1324 N 0.23104 0.14076 0.66205 0.0
N1325 N 0.25701 0.13788 0.59629 0.0
H1326 H 0.57978 0.63317 0.54834 0.0
H1327 H 0.5418 0.66465 0.7078 0.0
H1328 H 0.53264 0.66648 0.56081 0.0
H1329 H 0.57558 0.59287 0.69527 0.0
H1330 H 0.54215 0.67395 0.65435 0.0
H1331 H 0.58197 0.6259 0.60277 0.0
C1332 C 0.56994 0.63895 0.56259 0.0
C1333 C 0.55596 0.6501 0.55021 0.0
C1334 C 0.54952 0.65623 0.66336 0.0
C1335 C 0.55846 0.64256 0.61197 0.0
C1336 C 0.5493 0.65077 0.69395 0.0
C1337 C 0.55841 0.62744 0.70629 0.0
C1338 C 0.5591 0.63863 0.64476 0.0
C1339 C 0.56832 0.61104 0.68698 0.0
C1340 C 0.57117 0.63475 0.59347 0.0
C1341 C 0.54352 0.65736 0.56947 0.0
N1342 N 0.56835 0.61687 0.65713 0.0
N1343 N 0.5451 0.65365 0.59937 0.0
H1344 H 0.38018 0.30438 0.2161 0.0
H1345 H 0.41893 0.46957 0.21158 0.0
H1346 H 0.35314 0.38635 0.20748 0.0
H1347 H 0.4458 0.38699 0.20823 0.0
H1348 H 0.39474 0.43973 0.21362 0.0
H1349 H 0.40427 0.33445 0.21692 0.0
C1350 C 0.37927 0.3287 0.21453 0.0
C1351 C 0.36455 0.34277 0.21161 0.0
C1352 C 0.40593 0.42813 0.21246 0.0
C1353 C 0.39222 0.37749 0.2125 0.0
C1354 C 0.41977 0.44518 0.21136 0.0
C1355 C 0.43448 0.43085 0.20958 0.0
C1356 C 0.40673 0.39643 0.21198 0.0
C1357 C 0.43477 0.39911 0.20936 0.0
C1358 C 0.39307 0.34589 0.21491 0.0
C1359 C 0.36419 0.37444 0.20961 0.0
N1360 N 0.42115 0.38304 0.21055 0.0
N1361 N 0.37778 0.39067 0.21007 0.0
H1362 H 0.9344 0.94744 0.2172 0.0
H1363 H 0.86944 0.8162 0.20849 0.0
H1364 H 0.94369 0.85858 0.18219 0.0
H1365 H 0.85834 0.91045 0.19783 0.0
H1366 H 0.89724 0.82984 0.21588 0.0
H1367 H 0.90696 0.93222 0.22681 0.0
C1368 C 0.93077 0.92455 0.21229 0.0
C1369 C 0.94124 0.90426 0.19875 0.0
C1370 C 0.88862 0.84754 0.21264 0.0
C1371 C 0.91013 0.88667 0.20988 0.0
C1372 C 0.87278 0.83978 0.20873 0.0
C1373 C 0.86163 0.86226 0.20261 0.0
C1374 C 0.89324 0.87799 0.21093 0.0
C1375 C 0.86661 0.89248 0.2025 0.0
C1376 C 0.91514 0.91593 0.21758 0.0
C1377 C 0.93592 0.87494 0.19247 0.0
N1378 N 0.88203 0.89948 0.20646 0.0
N1379 N 0.92076 0.86704 0.19802 0.0
H1380 H 0.37569 0.94397 0.12121 0.0
H1381 H 0.44025 0.84916 0.03029 0.0
H1382 H 0.36405 0.90449 0.03604 0.0
H1383 H 0.44113 0.86862 0.12465 0.0
H1384 H 0.41423 0.8742 0.02727 0.0
H1385 H 0.40185 0.92285 0.11751 0.0
C1386 C 0.37864 0.93088 0.10156 0.0
C1387 C 0.3675 0.92572 0.07911 0.0
C1388 C 0.42022 0.87287 0.04853 0.0
C1389 C 0.39784 0.9009 0.07478 0.0
C1390 C 0.43505 0.85867 0.05026 0.0
C1391 C 0.44292 0.85657 0.0778 0.0
C1392 C 0.41345 0.88543 0.07441 0.0
C1393 C 0.4356 0.86933 0.10293 0.0
C1394 C 0.39367 0.9187 0.09948 0.0
C1395 C 0.37225 0.90894 0.05395 0.0
N1396 N 0.42145 0.88314 0.10056 0.0
N1397 N 0.38706 0.89685 0.05254 0.0
H1398 H 0.94906 0.37736 0.04565 0.0
H1399 H 0.85862 0.36798 0.08848 0.0
H1400 H 0.9249 0.29287 0.05887 0.0
H1401 H 0.87761 0.4455 0.04325 0.0
H1402 H 0.88317 0.34075 0.07943 0.0
H1403 H 0.92364 0.40363 0.04658 0.0
C1404 C 0.93842 0.3643 0.04868 0.0
C1405 C 0.93916 0.33281 0.05233 0.0
C1406 C 0.88195 0.36353 0.07103 0.0
C1407 C 0.91002 0.36285 0.05359 0.0
C1408 C 0.86791 0.37904 0.0761 0.0
C1409 C 0.86605 0.40883 0.06621 0.0
C1410 C 0.89446 0.37815 0.05661 0.0
C1411 C 0.87854 0.42238 0.05081 0.0
C1412 C 0.92391 0.37933 0.04904 0.0
C1413 C 0.92495 0.31712 0.05596 0.0
N1414 N 0.89233 0.40705 0.04679 0.0
N1415 N 0.91104 0.3323 0.05681 0.0
H1416 H 0.6871 0.67633 0.77839 0.0
H1417 H 0.62346 0.57102 0.85998 0.0
H1418 H 0.69045 0.63984 0.86734 0.0
H1419 H 0.61095 0.6212 0.78116 0.0
H1420 H 0.65009 0.58991 0.85628 0.0
H1421 H 0.6611 0.65162 0.7731 0.0
C1422 C 0.68247 0.66303 0.79663 0.0
C1423 C 0.69093 0.66047 0.82348 0.0
C1424 C 0.64164 0.59686 0.83957 0.0
C1425 C 0.66149 0.63201 0.81748 0.0
C1426 C 0.62638 0.58594 0.84165 0.0
C1427 C 0.61488 0.59477 0.82107 0.0
C1428 C 0.64567 0.61732 0.81691 0.0
C1429 C 0.61947 0.61384 0.79752 0.0
C1430 C 0.66764 0.64904 0.79364 0.0
C1431 C 0.68436 0.64294 0.84637 0.0
N1432 N 0.63451 0.62487 0.79627 0.0
N1433 N 0.67019 0.62954 0.84281 0.0
H1434 H 0.12526 0.06963 0.86609 0.0
H1435 H 0.18961 0.16665 0.77876 0.0
H1436 H 0.1132 0.10978 0.78145 0.0
H1437 H 0.18666 0.15637 0.87437 0.0
H1438 H 0.16414 0.13992 0.77423 0.0
H1439 H 0.15081 0.09355 0.86367 0.0
C1440 C 0.12798 0.08339 0.84681 0.0
C1441 C 0.11687 0.08795 0.82414 0.0
C1442 C 0.16916 0.14373 0.79609 0.0
C1443 C 0.14649 0.11584 0.82132 0.0
C1444 C 0.18367 0.15891 0.7987 0.0
C1445 C 0.19036 0.16391 0.827 0.0
C1446 C 0.16157 0.13301 0.82191 0.0
C1447 C 0.1821 0.15331 0.85205 0.0
C1448 C 0.14264 0.09717 0.8455 0.0
C1449 C 0.12136 0.10575 0.79952 0.0
N1450 N 0.16833 0.13835 0.84886 0.0
N1451 N 0.13582 0.11927 0.79881 0.0
H1452 H 0.60551 0.14411 0.97634 0.0
H1453 H 0.69179 0.14086 0.90446 0.0
H1454 H 0.62231 0.20261 0.90649 0.0
H1455 H 0.67883 0.07982 0.97504 0.0
H1456 H 0.66691 0.16696 0.91029 0.0
H1457 H 0.63239 0.1234 0.98151 0.0
C1458 C 0.61488 0.15301 0.96256 0.0
C1459 C 0.61163 0.17498 0.94078 0.0
C1460 C 0.66939 0.14804 0.9248 0.0
C1461 C 0.64224 0.1514 0.94642 0.0
C1462 C 0.68368 0.13311 0.92147 0.0
C1463 C 0.68735 0.10802 0.93914 0.0
C1464 C 0.65833 0.13765 0.94569 0.0
C1465 C 0.67644 0.09915 0.96101 0.0
C1466 C 0.63018 0.14107 0.96538 0.0
C1467 C 0.62418 0.18549 0.92335 0.0
N1468 N 0.66227 0.11369 0.96341 0.0
N1469 N 0.63877 0.17356 0.92645 0.0
H1470 H 0.10444 0.60939 0.92362 0.0
H1471 H 0.19468 0.62884 0.96242 0.0
H1472 H 0.12156 0.69072 0.96493 0.0
H1473 H 0.17229 0.5417 0.95691 0.0
H1474 H 0.16864 0.65287 0.96142 0.0
H1475 H 0.12959 0.58477 0.93397 0.0
C1476 C 0.11346 0.62187 0.93538 0.0
C1477 C 0.11091 0.65197 0.94373 0.0
C1478 C 0.16946 0.62849 0.96072 0.0
C1479 C 0.13998 0.62429 0.95477 0.0
C1480 C 0.18431 0.61474 0.96114 0.0
C1481 C 0.18572 0.58314 0.95962 0.0
C1482 C 0.15591 0.61058 0.95821 0.0
C1483 C 0.17184 0.56608 0.95813 0.0
C1484 C 0.12783 0.60785 0.94122 0.0
C1485 C 0.12303 0.66731 0.95855 0.0
N1486 N 0.15758 0.57999 0.95712 0.0
N1487 N 0.13717 0.65344 0.96322 0.0
H1488 H 0.4289 0.93089 0.63602 0.0
H1489 H 0.36095 0.85352 0.72948 0.0
H1490 H 0.43927 0.90463 0.72661 0.0
H1491 H 0.36954 0.83857 0.63567 0.0
H1492 H 0.38673 0.8792 0.73293 0.0
H1493 H 0.40356 0.90647 0.63986 0.0
C1494 C 0.42585 0.92012 0.65691 0.0
C1495 C 0.43646 0.91949 0.68087 0.0
C1496 C 0.38291 0.86998 0.71177 0.0
C1497 C 0.40703 0.89118 0.68535 0.0
C1498 C 0.36824 0.85535 0.70974 0.0
C1499 C 0.36294 0.84394 0.68218 0.0
C1500 C 0.3921 0.87367 0.68593 0.0
C1501 C 0.37292 0.84703 0.65738 0.0
C1502 C 0.41131 0.90605 0.65901 0.0
C1503 C 0.43152 0.90554 0.70751 0.0
N1504 N 0.38681 0.86179 0.65982 0.0
N1505 N 0.41713 0.89172 0.70904 0.0
H1506 H 0.938 0.41566 0.72642 0.0
H1507 H 0.87022 0.33416 0.63445 0.0
H1508 H 0.93026 0.42523 0.63173 0.0
H1509 H 0.86151 0.35833 0.72633 0.0
H1510 H 0.89531 0.35964 0.63673 0.0
H1511 H 0.91258 0.38875 0.73025 0.0
C1512 C 0.931 0.41231 0.70654 0.0
C1513 C 0.9364 0.42272 0.67868 0.0
C1514 C 0.88798 0.35943 0.6565 0.0
C1515 C 0.90761 0.39163 0.68288 0.0
C1516 C 0.87357 0.34471 0.65529 0.0
C1517 C 0.86351 0.34429 0.68014 0.0
C1518 C 0.89269 0.37392 0.68282 0.0
C1519 C 0.86883 0.35819 0.70657 0.0
C1520 C 0.91652 0.397 0.70878 0.0
C1521 C 0.92677 0.41768 0.65371 0.0
N1522 N 0.88308 0.37257 0.70723 0.0
N1523 N 0.91305 0.4024 0.65641 0.0
H1524 H 0.37177 0.4616 0.59811 0.0
H1525 H 0.43105 0.3386 0.52974 0.0
H1526 H 0.3553 0.39693 0.53339 0.0
H1527 H 0.43636 0.38477 0.61387 0.0
H1528 H 0.40545 0.36452 0.52289 0.0
H1529 H 0.39786 0.43971 0.59504 0.0
C1530 C 0.37368 0.4429 0.58293 0.0
C1531 C 0.36122 0.43092 0.56626 0.0
C1532 C 0.41233 0.36892 0.54272 0.0
C1533 C 0.39139 0.40513 0.56291 0.0
C1534 C 0.42693 0.35427 0.54658 0.0
C1535 C 0.43583 0.35928 0.57256 0.0
C1536 C 0.40687 0.38917 0.56469 0.0
C1537 C 0.42991 0.3798 0.59366 0.0
C1538 C 0.38864 0.43028 0.58127 0.0
C1539 C 0.36457 0.40687 0.54667 0.0
N1540 N 0.41595 0.39388 0.58921 0.0
N1541 N 0.37933 0.39447 0.54577 0.0
H1542 H 0.87449 0.97586 0.5458 0.0
H1543 H 0.92795 0.82713 0.53795 0.0
H1544 H 0.85381 0.8871 0.54155 0.0
H1545 H 0.94134 0.90794 0.58496 0.0
H1546 H 0.90214 0.85039 0.52711 0.0
H1547 H 0.90054 0.9527 0.54806 0.0
C1548 C 0.87541 0.95149 0.54502 0.0
C1549 C 0.86188 0.93343 0.54368 0.0
C1550 C 0.91085 0.86306 0.53947 0.0
C1551 C 0.89183 0.90673 0.54597 0.0
C1552 C 0.92558 0.84995 0.54538 0.0
C1553 C 0.93675 0.86572 0.5623 0.0
C1554 C 0.90751 0.89233 0.54998 0.0
C1555 C 0.93303 0.89504 0.57186 0.0
C1556 C 0.89031 0.93829 0.54641 0.0
C1557 C 0.86389 0.9019 0.54279 0.0
N1558 N 0.9188 0.9074 0.5655 0.0
N1559 N 0.87858 0.88953 0.54393 0.0
H1560 H 0.61909 0.08161 0.28409 0.0
H1561 H 0.67254 0.22675 0.3109 0.0
H1562 H 0.61064 0.14485 0.35546 0.0
H1563 H 0.69386 0.1418 0.28665 0.0
H1564 H 0.64712 0.20131 0.31538 0.0
H1565 H 0.64415 0.1077 0.27321 0.0
C1566 C 0.62242 0.10114 0.29717 0.0
C1567 C 0.61286 0.11102 0.3208 0.0
C1568 C 0.65735 0.18832 0.3088 0.0
C1569 C 0.64111 0.1411 0.30819 0.0
C1570 C 0.67185 0.20283 0.3061 0.0
C1571 C 0.68539 0.18638 0.2985 0.0
C1572 C 0.65621 0.15722 0.30322 0.0
C1573 C 0.68374 0.15531 0.29274 0.0
C1574 C 0.6367 0.11585 0.2911 0.0
C1575 C 0.61773 0.13635 0.33721 0.0
N1576 N 0.6694 0.14172 0.29511 0.0
N1577 N 0.63141 0.1506 0.33048 0.0
H1578 H 0.17088 0.72972 0.29109 0.0
H1579 H 0.12117 0.57584 0.29008 0.0
H1580 H 0.19311 0.64215 0.29224 0.0
H1581 H 0.1035 0.66029 0.32396 0.0
H1582 H 0.14665 0.60042 0.27984 0.0
H1583 H 0.14519 0.70511 0.29231 0.0
C1584 C 0.17039 0.70529 0.29129 0.0
C1585 C 0.18424 0.68803 0.29175 0.0
C1586 C 0.1371 0.61362 0.2891 0.0
C1587 C 0.1547 0.65962 0.29296 0.0
C1588 C 0.12256 0.5997 0.29464 0.0
C1589 C 0.11024 0.61622 0.30756 0.0
C1590 C 0.13919 0.64431 0.29623 0.0
C1591 C 0.11269 0.64689 0.31372 0.0
C1592 C 0.15568 0.69126 0.29209 0.0
C1593 C 0.18276 0.65639 0.29207 0.0
N1594 N 0.12684 0.65993 0.30798 0.0
N1595 N 0.16828 0.64321 0.29268 0.0
H1596 H 0.6836 0.56854 0.45593 0.0
H1597 H 0.62101 0.70394 0.46311 0.0
H1598 H 0.69612 0.6612 0.43942 0.0
H1599 H 0.61003 0.61655 0.42654 0.0
H1600 H 0.64817 0.68661 0.47213 0.0
H1601 H 0.65603 0.58438 0.46294 0.0
C1602 C 0.68061 0.59228 0.45471 0.0
C1603 C 0.69206 0.61365 0.44714 0.0
C1604 C 0.63968 0.67109 0.46274 0.0
C1605 C 0.66081 0.63185 0.45526 0.0
C1606 C 0.62422 0.68089 0.4578 0.0
C1607 C 0.61337 0.66159 0.44408 0.0
C1608 C 0.64412 0.64164 0.45451 0.0
C1609 C 0.61812 0.63206 0.43714 0.0
C1610 C 0.66492 0.60125 0.45847 0.0
C1611 C 0.68758 0.64409 0.44525 0.0
N1612 N 0.63314 0.62296 0.4424 0.0
N1613 N 0.67231 0.6523 0.44923 0.0
H1614 H 0.17749 0.07269 0.39637 0.0
H1615 H 0.11497 0.17976 0.47685 0.0
H1616 H 0.19181 0.12233 0.47454 0.0
H1617 H 0.11761 0.16247 0.38219 0.0
H1618 H 0.14015 0.15221 0.48314 0.0
H1619 H 0.15187 0.09671 0.39884 0.0
C1620 C 0.17519 0.08846 0.41435 0.0
C1621 C 0.18695 0.09578 0.43502 0.0
C1622 C 0.13512 0.15467 0.4611 0.0
C1623 C 0.15738 0.12388 0.43778 0.0
C1624 C 0.12079 0.17031 0.45748 0.0
C1625 C 0.11413 0.17364 0.42891 0.0
C1626 C 0.14252 0.14169 0.43607 0.0
C1627 C 0.1222 0.16083 0.40464 0.0
C1628 C 0.16053 0.1023 0.41566 0.0
C1629 C 0.18309 0.11609 0.4581 0.0
N1630 N 0.13577 0.14539 0.40883 0.0
N1631 N 0.16864 0.12977 0.45871 0.0
H1632 H 0.33606 0.05548 0.16557 0.0
H1633 H 0.33401 0.21988 0.09248 0.0
H1634 H 0.32452 0.06941 0.07281 0.0
H1635 H 0.32848 0.2032 0.18663 0.0
H1636 H 0.3346 0.16508 0.08369 0.0
H1637 H 0.33759 0.10988 0.17236 0.0
C1638 C 0.33383 0.06987 0.14657 0.0
C1639 C 0.32992 0.05757 0.11863 0.0
C1640 C 0.33326 0.17349 0.10624 0.0
C1641 C 0.33193 0.12032 0.1263 0.0
C1642 C 0.333 0.20468 0.11128 0.0
C1643 C 0.33111 0.21607 0.14031 0.0
C1644 C 0.3319 0.1536 0.13049 0.0
C1645 C 0.32974 0.19541 0.16387 0.0
C1646 C 0.33476 0.10103 0.15049 0.0
C1647 C 0.32763 0.07766 0.09472 0.0
N1648 N 0.33023 0.16524 0.15846 0.0
N1649 N 0.32861 0.10804 0.09913 0.0
H1650 H 0.98135 0.06622 0.19141 0.0
H1651 H 0.98382 0.19892 0.06995 0.0
H1652 H 0.97621 0.05106 0.09687 0.0
H1653 H 0.97897 0.21495 0.16443 0.0
H1654 H 0.98368 0.14455 0.07946 0.0
H1655 H 0.98306 0.12054 0.18202 0.0
C1656 C 0.98068 0.07426 0.16866 0.0
C1657 C 0.97859 0.05395 0.14491 0.0
C1658 C 0.98268 0.15996 0.09813 0.0
C1659 C 0.9805 0.11626 0.13397 0.0
C1660 C 0.98287 0.19105 0.09273 0.0
C1661 C 0.98138 0.21163 0.11643 0.0
C1662 C 0.98113 0.14923 0.12748 0.0
C1663 C 0.97997 0.19998 0.14546 0.0
C1664 C 0.98156 0.10532 0.16332 0.0
C1665 C 0.97762 0.06582 0.1159 0.0
N1666 N 0.9799 0.16962 0.15016 0.0
N1667 N 0.97862 0.09612 0.11126 0.0
H1668 H 0.7148 0.94968 0.93706 0.0
H1669 H 0.73252 0.81326 0.82438 0.0
H1670 H 0.73009 0.96103 0.84592 0.0
H1671 H 0.71508 0.79989 0.91386 0.0
H1672 H 0.73071 0.86756 0.8317 0.0
H1673 H 0.71434 0.89493 0.92923 0.0
C1674 C 0.71806 0.94076 0.91544 0.0
C1675 C 0.72245 0.96019 0.89212 0.0
C1676 C 0.72719 0.85278 0.84973 0.0
C1677 C 0.72185 0.89749 0.88294 0.0
C1678 C 0.72809 0.82162 0.84545 0.0
C1679 C 0.72395 0.80172 0.86853 0.0
C1680 C 0.72215 0.86438 0.87732 0.0
C1681 C 0.7186 0.81424 0.89556 0.0
C1682 C 0.71771 0.90948 0.91093 0.0
C1683 C 0.72639 0.9472 0.86447 0.0
N1684 N 0.71792 0.84472 0.89925 0.0
N1685 N 0.72604 0.91679 0.86073 0.0
H1686 H 0.07379 0.94782 0.81568 0.0
H1687 H 0.0896 0.8132 0.93104 0.0
H1688 H 0.0855 0.96146 0.90834 0.0
H1689 H 0.07802 0.79917 0.83836 0.0
H1690 H 0.0899 0.86758 0.92228 0.0
H1691 H 0.07733 0.89348 0.82247 0.0
C1692 C 0.07732 0.93949 0.83735 0.0
C1693 C 0.07926 0.95933 0.86152 0.0
C1694 C 0.08739 0.8526 0.9038 0.0
C1695 C 0.08311 0.89696 0.86958 0.0
C1696 C 0.08714 0.82149 0.90883 0.0
C1697 C 0.08366 0.80142 0.88549 0.0
C1698 C 0.08407 0.8639 0.8752 0.0
C1699 C 0.08087 0.81361 0.85702 0.0
C1700 C 0.07923 0.90838 0.84127 0.0
C1701 C 0.08362 0.94704 0.8892 0.0
N1702 N 0.08103 0.84401 0.85275 0.0
N1703 N 0.08531 0.91672 0.89249 0.0
H1704 H 0.31024 0.70207 0.68611 0.0
H1705 H 0.32772 0.56564 0.5729 0.0
H1706 H 0.32865 0.71488 0.59729 0.0
H1707 H 0.30721 0.5545 0.66032 0.0
H1708 H 0.32906 0.62012 0.58174 0.0
H1709 H 0.31048 0.6476 0.67786 0.0
C1710 C 0.31449 0.69349 0.66498 0.0
C1711 C 0.31937 0.71324 0.64234 0.0
C1712 C 0.32431 0.60568 0.599 0.0
C1713 C 0.31947 0.65066 0.63253 0.0
C1714 C 0.32346 0.57454 0.59389 0.0
C1715 C 0.31739 0.55522 0.6159 0.0
C1716 C 0.31903 0.61767 0.6263 0.0
C1717 C 0.31223 0.56822 0.64283 0.0
C1718 C 0.31451 0.66232 0.66018 0.0
C1719 C 0.32454 0.70063 0.61523 0.0
N1720 N 0.31316 0.5985 0.64722 0.0
N1721 N 0.32442 0.67021 0.61107 0.0
H1722 H 0.96429 0.55479 0.59255 0.0
H1723 H 0.97015 0.7188 0.66699 0.0
H1724 H 0.97659 0.56974 0.68473 0.0
H1725 H 0.96125 0.7038 0.57339 0.0
H1726 H 0.97007 0.66432 0.67496 0.0
H1727 H 0.96082 0.6091 0.5862 0.0
C1728 C 0.96623 0.56945 0.6115 0.0
C1729 C 0.97086 0.55755 0.63917 0.0
C1730 C 0.96805 0.67294 0.65269 0.0
C1731 C 0.96681 0.62002 0.63207 0.0
C1732 C 0.96799 0.70415 0.64813 0.0
C1733 C 0.96577 0.71609 0.61939 0.0
C1734 C 0.96585 0.65337 0.62839 0.0
C1735 C 0.96326 0.69573 0.59582 0.0
C1736 C 0.96419 0.60051 0.60788 0.0
C1737 C 0.9729 0.57774 0.66306 0.0
N1738 N 0.96341 0.66545 0.60083 0.0
N1739 N 0.97096 0.60795 0.65891 0.0
H1740 H 0.7241 0.46726 0.34436 0.0
H1741 H 0.72083 0.30108 0.41383 0.0
H1742 H 0.72716 0.44998 0.43883 0.0
H1743 H 0.72921 0.31853 0.32054 0.0
H1744 H 0.72135 0.35552 0.42342 0.0
H1745 H 0.72416 0.41285 0.33512 0.0
C1746 C 0.72472 0.45203 0.36318 0.0
C1747 C 0.72561 0.46325 0.39243 0.0
C1748 C 0.72313 0.34742 0.40087 0.0
C1749 C 0.72571 0.4008 0.38201 0.0
C1750 C 0.72275 0.31636 0.39536 0.0
C1751 C 0.725 0.30519 0.36634 0.0
C1752 C 0.72559 0.36757 0.37713 0.0
C1753 C 0.7276 0.32607 0.3433 0.0
C1754 C 0.72486 0.42094 0.35788 0.0
C1755 C 0.72661 0.44237 0.41592 0.0
N1756 N 0.72774 0.3562 0.34916 0.0
N1757 N 0.72655 0.41219 0.41022 0.0
H1758 H 0.06238 0.31005 0.34003 0.0
H1759 H 0.09239 0.47004 0.40027 0.0
H1760 H 0.08708 0.32046 0.42342 0.0
H1761 H 0.06271 0.45846 0.32302 0.0
H1762 H 0.09211 0.4154 0.40779 0.0
H1763 H 0.06414 0.36419 0.33201 0.0
C1764 C 0.06832 0.32364 0.35659 0.0
C1765 C 0.07466 0.31047 0.38242 0.0
C1766 C 0.08571 0.42488 0.38916 0.0
C1767 C 0.07654 0.37305 0.37347 0.0
C1768 C 0.08581 0.45615 0.38487 0.0
C1769 C 0.07753 0.46919 0.36097 0.0
C1770 C 0.07732 0.40635 0.36938 0.0
C1771 C 0.06944 0.44974 0.34153 0.0
C1772 C 0.06922 0.35471 0.35207 0.0
C1773 C 0.08191 0.32958 0.40332 0.0
N1774 N 0.06953 0.41944 0.34621 0.0
N1775 N 0.08268 0.35988 0.39837 0.0
H1776 H 0.83155 0.04747 0.66091 0.0
H1777 H 0.80616 0.21041 0.60066 0.0
H1778 H 0.81098 0.06388 0.57442 0.0
H1779 H 0.83015 0.19767 0.68448 0.0
H1780 H 0.80674 0.15627 0.5924 0.0
H1781 H 0.83015 0.1016 0.67144 0.0
C1782 C 0.82676 0.06233 0.64408 0.0
C1783 C 0.8214 0.05083 0.61665 0.0
C1784 C 0.81191 0.16521 0.61263 0.0
C1785 C 0.81963 0.11299 0.62879 0.0
C1786 C 0.81168 0.1963 0.61731 0.0
C1787 C 0.81832 0.20888 0.64316 0.0
C1788 C 0.81882 0.14619 0.63393 0.0
C1789 C 0.82487 0.18907 0.66426 0.0
C1790 C 0.82591 0.09328 0.65021 0.0
C1791 C 0.81509 0.07136 0.59599 0.0
N1792 N 0.82502 0.15872 0.65912 0.0
N1793 N 0.81442 0.10131 0.60247 0.0
H1794 H 0.48325 0.06622 0.6855 0.0
H1795 H 0.46356 0.20303 0.57474 0.0
H1796 H 0.46321 0.05409 0.5979 0.0
H1797 H 0.48106 0.21491 0.66432 0.0
H1798 H 0.46292 0.14847 0.58298 0.0
H1799 H 0.48162 0.12082 0.67879 0.0
C1800 C 0.47833 0.07494 0.665 0.0
C1801 C 0.47345 0.05535 0.64218 0.0
C1802 C 0.46683 0.16306 0.60088 0.0
C1803 C 0.47179 0.11809 0.63412 0.0
C1804 C 0.46728 0.19425 0.59611 0.0
C1805 C 0.47235 0.21377 0.61884 0.0
C1806 C 0.47156 0.1512 0.62853 0.0
C1807 C 0.47685 0.20095 0.64624 0.0
C1808 C 0.47751 0.10621 0.66108 0.0
C1809 C 0.46738 0.0682 0.61592 0.0
N1810 N 0.4764 0.17057 0.65024 0.0
N1811 N 0.46679 0.09867 0.61257 0.0
H1812 H 0.19635 0.812 0.36659 0.0
H1813 H 0.24524 0.95193 0.42702 0.0
H1814 H 0.24667 0.80672 0.37546 0.0
H1815 H 0.207 0.96367 0.36527 0.0
H1816 H 0.2435 0.89683 0.41979 0.0
H1817 H 0.1976 0.86635 0.37749 0.0
C1818 C 0.20763 0.82229 0.37117 0.0
C1819 C 0.22144 0.80501 0.37013 0.0
C1820 C 0.23544 0.91154 0.40802 0.0
C1821 C 0.22292 0.86676 0.38301 0.0
C1822 C 0.23635 0.94279 0.4123 0.0
C1823 C 0.22624 0.96215 0.39668 0.0
C1824 C 0.22405 0.89966 0.38866 0.0
C1825 C 0.21502 0.94938 0.37758 0.0
C1826 C 0.20834 0.85321 0.3772 0.0
C1827 C 0.2358 0.81941 0.37591 0.0
N1828 N 0.21413 0.9189 0.37425 0.0
N1829 N 0.23618 0.84945 0.38235 0.0
H1830 H 0.59278 0.96373 0.41079 0.0
H1831 H 0.57491 0.80153 0.33913 0.0
H1832 H 0.57133 0.95123 0.32439 0.0
H1833 H 0.58871 0.81432 0.43084 0.0
H1834 H 0.57624 0.85608 0.33159 0.0
H1835 H 0.59384 0.90902 0.41681 0.0
C1836 C 0.58829 0.94964 0.39304 0.0
C1837 C 0.58187 0.96249 0.36708 0.0
C1838 C 0.57903 0.84696 0.35335 0.0
C1839 C 0.58323 0.89941 0.37379 0.0
C1840 C 0.57838 0.81573 0.35763 0.0
C1841 C 0.58166 0.80317 0.38572 0.0
C1842 C 0.58308 0.86594 0.37725 0.0
C1843 C 0.58588 0.82292 0.40893 0.0
C1844 C 0.58896 0.91829 0.39648 0.0
C1845 C 0.57653 0.94271 0.34468 0.0
N1846 N 0.58646 0.85325 0.40419 0.0
N1847 N 0.57729 0.91228 0.34861 0.0
H1848 H 0.80995 0.56563 0.0831 0.0
H1849 H 0.857 0.71178 0.13537 0.0
H1850 H 0.85174 0.56006 0.13696 0.0
H1851 H 0.80661 0.71261 0.12618 0.0
H1852 H 0.85702 0.65724 0.12588 0.0
H1853 H 0.81026 0.62087 0.08877 0.0
C1854 C 0.81927 0.5761 0.09583 0.0
C1855 C 0.83084 0.55835 0.10963 0.0
C1856 C 0.84597 0.66942 0.12578 0.0
C1857 C 0.83134 0.62125 0.11595 0.0
C1858 C 0.84597 0.70052 0.13095 0.0
C1859 C 0.83178 0.71668 0.13151 0.0
C1860 C 0.83172 0.65443 0.12052 0.0
C1861 C 0.81777 0.70089 0.12608 0.0
C1862 C 0.81938 0.60751 0.09923 0.0
C1863 C 0.84257 0.57297 0.12617 0.0
N1864 N 0.81809 0.67064 0.12063 0.0
N1865 N 0.84259 0.60358 0.12872 0.0
H1866 H 0.4754 0.56813 0.18776 0.0
H1867 H 0.48209 0.70158 0.06931 0.0
H1868 H 0.47115 0.55254 0.09317 0.0
H1869 H 0.47043 0.71568 0.16212 0.0
H1870 H 0.47977 0.64715 0.07706 0.0
H1871 H 0.47589 0.62246 0.17849 0.0
C1872 C 0.47466 0.57615 0.165 0.0
C1873 C 0.47329 0.55576 0.14119 0.0
C1874 C 0.47765 0.66227 0.09564 0.0
C1875 C 0.47378 0.61806 0.13037 0.0
C1876 C 0.47888 0.69346 0.09123 0.0
C1877 C 0.47659 0.7136 0.11515 0.0
C1878 C 0.47426 0.65102 0.12421 0.0
C1879 C 0.47265 0.7013 0.14309 0.0
C1880 C 0.47481 0.60719 0.15973 0.0
C1881 C 0.47212 0.56749 0.11216 0.0
N1882 N 0.47175 0.67093 0.14686 0.0
N1883 N 0.4725 0.59787 0.10753 0.0
H1884 H 0.23351 0.31672 0.82045 0.0
H1885 H 0.22717 0.45128 0.93809 0.0
H1886 H 0.21962 0.30421 0.91234 0.0
H1887 H 0.22372 0.46673 0.84339 0.0
H1888 H 0.22728 0.3969 0.92885 0.0
H1889 H 0.23212 0.37139 0.8279 0.0
C1890 C 0.23004 0.32523 0.84209 0.0
C1891 C 0.22685 0.30542 0.86586 0.0
C1892 C 0.22647 0.41216 0.91006 0.0
C1893 C 0.22558 0.36822 0.87461 0.0
C1894 C 0.22655 0.44322 0.91532 0.0
C1895 C 0.22547 0.46358 0.89147 0.0
C1896 C 0.22553 0.40123 0.88068 0.0
C1897 C 0.22445 0.4518 0.86241 0.0
C1898 C 0.22933 0.35655 0.84633 0.0
C1899 C 0.22256 0.31822 0.89345 0.0
N1900 N 0.22461 0.4214 0.85779 0.0
N1901 N 0.2222 0.34866 0.89708 0.0
H1902 H 0.56031 0.30067 0.84462 0.0
H1903 H 0.58785 0.46104 0.908 0.0
H1904 H 0.58164 0.31193 0.93122 0.0
H1905 H 0.56548 0.44837 0.82256 0.0
H1906 H 0.58678 0.40658 0.91625 0.0
H1907 H 0.56317 0.35447 0.83569 0.0
C1908 C 0.56573 0.31435 0.86174 0.0
C1909 C 0.57084 0.30148 0.8887 0.0
C1910 C 0.58217 0.41571 0.89564 0.0
C1911 C 0.57397 0.36375 0.87863 0.0
C1912 C 0.58273 0.44688 0.89092 0.0
C1913 C 0.57664 0.45955 0.86459 0.0
C1914 C 0.57546 0.3969 0.8739 0.0
C1915 C 0.57043 0.43983 0.84308 0.0
C1916 C 0.56728 0.34525 0.85664 0.0
C1917 C 0.57743 0.32077 0.91022 0.0
N1918 N 0.56993 0.4096 0.84829 0.0
N1919 N 0.57882 0.3509 0.90471 0.0
H1920 H 0.28456 0.15829 0.37265 0.0
H1921 H 0.27156 0.27004 0.23532 0.0
H1922 H 0.23933 0.18099 0.33536 0.0
H1923 H 0.31749 0.25349 0.2728 0.0
H1924 H 0.25998 0.2381 0.27298 0.0
H1925 H 0.29704 0.19336 0.33779 0.0
C1926 C 0.27724 0.17061 0.3571 0.0
C1927 C 0.26084 0.1664 0.35674 0.0
C1928 C 0.27259 0.24134 0.27317 0.0
C1929 C 0.2751 0.20683 0.31699 0.0
C1930 C 0.27929 0.25961 0.2515 0.0
C1931 C 0.29561 0.26437 0.25068 0.0
C1932 C 0.28218 0.22733 0.29442 0.0
C1933 C 0.30488 0.25037 0.27254 0.0
C1934 C 0.28439 0.19076 0.33734 0.0
C1935 C 0.25196 0.18353 0.3366 0.0
N1936 N 0.29803 0.2323 0.29352 0.0
N1937 N 0.25921 0.20279 0.31746 0.0
H1938 H 0.0464 0.06901 0.38426 0.0
H1939 H 0.98736 0.04076 0.24772 0.0
H1940 H 0.02873 0.13981 0.32721 0.0
H1941 H 1.01591 0.97087 0.28675 0.0
H1942 H 0.99795 0.07681 0.28433 0.0
H1943 H 0.03171 0.03215 0.35473 0.0
C1944 C 0.03956 0.07684 0.36544 0.0
C1945 C 0.03888 0.10766 0.35826 0.0
C1946 C 1.00164 0.05343 0.28525 0.0
C1947 C 1.02166 0.0656 0.32489 0.0
C1948 C 0.99543 0.03287 0.2647 0.0
C1949 C 1.00073 1.00298 0.2646 0.0
C1950 C 1.01315 0.0438 0.30571 0.0
C1951 C 1.01151 0.99383 0.28641 0.0
C1952 C 0.03103 0.0558 0.34879 0.0
C1953 C 0.02948 0.11641 0.33394 0.0
N1954 N 1.01745 0.0142 0.30601 0.0
N1955 N 1.02125 0.09554 0.31819 0.0
H1956 H 0.31075 0.98591 0.97056 0.0
H1957 H 0.26628 0.14225 0.94018 0.0
H1958 H 0.29587 0.04699 0.03993 0.0
H1959 H 0.26589 0.069 0.87681 0.0
H1960 H 0.28116 0.11073 0.97478 0.0
H1961 H 0.29898 0.01993 0.93318 0.0
C1962 C 0.30544 1.00695 0.97774 0.0
C1963 C 0.30435 0.01402 0.00814 0.0
C1964 C 0.27781 0.10146 0.95335 0.0
C1965 C 0.29072 0.05235 0.96608 0.0
C1966 C 0.26929 0.11941 0.93366 0.0
C1967 C 0.26479 0.1081 0.90573 0.0
C1968 C 0.28204 0.07201 0.945 0.0
C1969 C 0.26899 0.07837 0.89832 0.0
C1970 C 0.29854 0.02605 0.95656 0.0
C1971 C 0.29701 0.04099 0.01659 0.0
N1972 N 0.27747 0.06133 0.91782 0.0
N1973 N 0.29045 0.05916 0.99569 0.0
H1974 H 0.05263 0.19985 0.87717 0.0
H1975 H 0.98857 0.22803 0.00583 0.0
H1976 H 0.02772 0.12767 0.92128 0.0
H1977 H 1.02312 0.29365 0.97889 0.0
H1978 H 0.99927 0.19272 0.96836 0.0
H1979 H 0.03898 0.23617 0.90902 0.0
C1980 C 0.04441 0.19155 0.89367 0.0
C1981 C 0.04141 0.16054 0.89651 0.0
C1982 C 1.00434 0.21502 0.97044 0.0
C1983 C 1.0254 0.20219 0.93262 0.0
C1984 C 0.99813 0.23519 0.99151 0.0
C1985 C 1.00505 0.26359 0.99533 0.0
C1986 C 1.01738 0.22366 0.95304 0.0
C1987 C 1.01755 0.27178 0.97665 0.0
C1988 C 0.03649 0.21236 0.91166 0.0
C1989 C 0.03029 0.15134 0.91793 0.0
N1990 N 1.02335 0.25191 0.95641 0.0
N1991 N 1.0227 0.17204 0.93512 0.0
H1992 H 0.74458 0.73744 0.72213 0.0
H1993 H 0.79444 0.88813 0.69355 0.0
H1994 H 0.7637 0.79315 0.79203 0.0
H1995 H 0.78764 0.82077 0.62533 0.0
H1996 H 0.78027 0.85625 0.72886 0.0
H1997 H 0.75669 0.77117 0.68487 0.0
C1998 C 0.75094 0.75724 0.72954 0.0
C1999 C 0.7531 0.76279 0.76005 0.0
C2000 C 0.78192 0.84829 0.70623 0.0
C2001 C 0.76712 0.80084 0.718 0.0
C2002 C 0.79005 0.86645 0.68611 0.0
C2003 C 0.79229 0.85697 0.65656 0.0
C2004 C 0.77578 0.82048 0.69675 0.0
C2005 C 0.78634 0.82869 0.64805 0.0
C2006 C 0.75803 0.77617 0.70838 0.0
C2007 C 0.76176 0.78821 0.76866 0.0
N2008 N 0.77825 0.81147 0.66802 0.0
N2009 N 0.76846 0.80624 0.74779 0.0
H2010 H 0.06202 0.02444 0.71473 0.0
H2011 H 1.00964 0.87582 0.69161 0.0
H2012 H 0.04201 0.97209 0.7862 0.0
H2013 H 1.01869 0.93915 0.62063 0.0
H2014 H 1.02526 0.90691 0.72528 0.0
H2015 H 0.05044 0.98889 0.6785 0.0
C2016 C 0.05559 1.00498 0.72273 0.0
C2017 C 0.05295 1.00096 0.75333 0.0
C2018 C 1.02386 0.91407 0.70234 0.0
C2019 C 0.03956 0.96083 0.71248 0.0
C2020 C 1.01495 0.89628 0.68309 0.0
C2021 C 1.01279 0.90495 0.65328 0.0
C2022 C 0.03079 0.94077 0.69181 0.0
C2023 C 1.01987 0.93185 0.64355 0.0
C2024 C 0.04882 0.98498 0.70214 0.0
C2025 C 0.04428 0.97586 0.76272 0.0
N2026 N 0.02858 0.94882 0.66276 0.0
N2027 N 0.03786 0.95684 0.74241 0.0
H2028 H 0.76687 0.87803 0.09842 0.0
H2029 H 0.76733 0.04222 0.02422 0.0
H2030 H 0.80282 0.94521 0.1125 0.0
H2031 H 0.73241 0.9754 1.00263 0.0
H2032 H 0.77822 1.00851 0.06178 0.0
H2033 H 0.75252 0.91398 0.06712 0.0
C2034 C 0.77182 0.90024 0.09486 0.0
C2035 C 0.78619 0.90844 0.1081 0.0
C2036 C 0.76807 1.00117 0.04919 0.0
C2037 C 0.76958 0.94993 0.07271 0.0
C2038 C 0.76179 0.02051 0.02787 0.0
C2039 C 0.74898 0.01148 0.01041 0.0
C2040 C 0.76168 0.97221 0.05287 0.0
C2041 C 0.74221 0.9832 0.01591 0.0
C2042 C 0.76351 0.92084 0.07719 0.0
C2043 C 0.79176 0.93783 0.10313 0.0
N2044 N 0.74879 0.9643 0.03647 0.0
N2045 N 0.78349 0.95736 0.08584 0.0
H2046 H 0.06352 0.74295 0.03539 0.0
H2047 H 1.01217 0.89219 0.06456 0.0
H2048 H 0.04251 0.79726 0.9664 0.0
H2049 H 1.02438 0.82977 0.13466 0.0
H2050 H 0.02681 0.86121 0.02916 0.0
H2051 H 0.05319 0.77851 0.07301 0.0
C2052 C 0.05712 0.76279 0.02819 0.0
C2053 C 0.05384 0.76734 0.99789 0.0
C2054 C 0.02633 0.85425 0.05228 0.0
C2055 C 0.04186 0.80755 0.04038 0.0
C2056 C 1.01799 0.872 0.07255 0.0
C2057 C 1.01696 0.86353 0.10263 0.0
C2058 C 0.03379 0.82773 0.06204 0.0
C2059 C 1.02465 0.83691 0.11159 0.0
C2060 C 0.05107 0.78283 0.04959 0.0
C2061 C 0.04524 0.79297 0.98961 0.0
N2062 N 0.03274 0.81994 0.09138 0.0
N2063 N 0.03951 0.812 0.01069 0.0
H2064 H 0.3108 0.72752 0.74408 0.0
H2065 H 0.25277 0.70012 0.88234 0.0
H2066 H 0.28305 0.79799 0.78446 0.0
H2067 H 0.2667 0.62931 0.82145 0.0
H2068 H 0.26734 0.73632 0.85202 0.0
H2069 H 0.29908 0.69102 0.77906 0.0
C2070 C 0.30261 0.73539 0.76089 0.0
C2071 C 0.29789 0.76567 0.76164 0.0
C2072 C 0.2672 0.71282 0.84536 0.0
C2073 C 0.28434 0.7244 0.80111 0.0
C2074 C 0.25871 0.69214 0.86247 0.0
C2075 C 0.2584 0.66145 0.85454 0.0
C2076 C 0.27561 0.70283 0.82024 0.0
C2077 C 0.26675 0.65256 0.82883 0.0
C2078 C 0.29577 0.71459 0.78053 0.0
C2079 C 0.28698 0.77476 0.78334 0.0
N2080 N 0.27504 0.67309 0.8127 0.0
N2081 N 0.28055 0.75423 0.80217 0.0
H2082 H 0.03908 0.64412 0.81456 0.0
H2083 H 0.98785 0.49515 0.78586 0.0
H2084 H 0.02999 0.57875 0.88368 0.0
H2085 H 1.00975 0.54773 0.71658 0.0
H2086 H 0.99867 0.53028 0.82332 0.0
H2087 H 1.02419 0.61321 0.77956 0.0
C2088 C 0.03391 0.62325 0.82239 0.0
C2089 C 0.03585 0.61395 0.85206 0.0
C2090 C 1.00088 0.5343 0.79986 0.0
C2091 C 1.01869 0.57836 0.81202 0.0
C2092 C 0.99456 0.51453 0.77857 0.0
C2093 C 0.99797 0.51868 0.74825 0.0
C2094 C 1.01042 0.55845 0.7905 0.0
C2095 C 1.00692 0.54378 0.73981 0.0
C2096 C 1.02542 0.60558 0.80238 0.0
C2097 C 0.02896 0.58655 0.86089 0.0
N2098 N 1.01286 0.56262 0.76079 0.0
N2099 N 1.02065 0.5697 0.84096 0.0
H2100 H 0.3124 0.52249 0.48709 0.0
H2101 H 0.23268 0.58539 0.4134 0.0
H2102 H 0.26564 0.49252 0.50984 0.0
H2103 H 0.27841 0.62182 0.39267 0.0
H2104 H 0.24516 0.54878 0.44648 0.0
H2105 H 0.30079 0.55721 0.45018 0.0
C2106 C 0.29976 0.52313 0.48429 0.0
C2107 C 0.29001 0.50471 0.50174 0.0
C2108 C 0.2525 0.56477 0.43469 0.0
C2109 C 0.27669 0.54405 0.45974 0.0
C2110 C 0.24535 0.58558 0.41565 0.0
C2111 C 0.25446 0.60695 0.40042 0.0
C2112 C 0.26891 0.56514 0.43856 0.0
C2113 C 0.27087 0.60618 0.40443 0.0
C2114 C 0.29314 0.54292 0.4633 0.0
C2115 C 0.27369 0.50641 0.49716 0.0
N2116 N 0.27756 0.58572 0.42314 0.0
N2117 N 0.2676 0.52565 0.47674 0.0
H2118 H 0.98927 0.78309 0.46887 0.0
H2119 H 0.03867 0.63147 0.43984 0.0
H2120 H 1.00381 0.72105 0.53746 0.0
H2121 H 0.03264 0.69981 0.37236 0.0
H2122 H 1.02311 0.6618 0.47428 0.0
H2123 H 1.00161 0.75001 0.43121 0.0
C2124 C 0.9946 0.76201 0.47581 0.0
C2125 C 0.99543 0.75446 0.50613 0.0
C2126 C 1.02518 0.67031 0.45198 0.0
C2127 C 1.00983 0.7172 0.46371 0.0
C2128 C 0.0341 0.65297 0.4323 0.0
C2129 C 0.03699 0.66313 0.40319 0.0
C2130 C 1.019 0.69813 0.44261 0.0
C2131 C 0.03084 0.69131 0.39473 0.0
C2132 C 1.00184 0.74342 0.45446 0.0
C2133 C 1.00285 0.72747 0.51422 0.0
N2134 N 1.02208 0.70783 0.41433 0.0
N2135 N 1.0098 0.70992 0.4932 0.0
H2136 H 0.76985 0.37506 0.14632 0.0
H2137 H 0.77994 0.23667 0.25883 0.0
H2138 H 0.81421 0.33407 0.16964 0.0
H2139 H 0.73472 0.27679 0.24066 0.0
H2140 H 0.79202 0.2708 0.22357 0.0
H2141 H 0.75636 0.33879 0.17855 0.0
C2142 C 0.77679 0.35859 0.15835 0.0
C2143 C 0.79326 0.35781 0.15538 0.0
C2144 C 0.77945 0.27228 0.22709 0.0
C2145 C 0.77779 0.3159 0.19192 0.0
C2146 C 0.77249 0.25273 0.24733 0.0
C2147 C 0.75628 0.25407 0.25298 0.0
C2148 C 0.77022 0.2937 0.21222 0.0
C2149 C 0.74726 0.27505 0.23698 0.0
C2150 C 0.76903 0.33774 0.17655 0.0
C2151 C 0.80153 0.33547 0.17098 0.0
N2152 N 0.75439 0.2943 0.21741 0.0
N2153 N 0.79372 0.31554 0.18857 0.0
H2154 H 1.02021 0.52211 0.26713 0.0
H2155 H 0.03666 0.40236 0.13745 0.0
H2156 H 0.06696 0.5054 0.23335 0.0
H2157 H 0.99062 0.42676 0.17007 0.0
H2158 H 0.04832 0.43921 0.17166 0.0
H2159 H 1.00971 0.48694 0.23118 0.0
C2160 C 0.02835 0.51099 0.25211 0.0
C2161 C 0.04457 0.51671 0.25346 0.0
C2162 C 0.03568 0.43652 0.17125 0.0
C2163 C 0.0324 0.47588 0.21166 0.0
C2164 C 0.02899 0.41536 0.15187 0.0
C2165 C 1.01259 0.41127 0.15096 0.0
C2166 C 0.02592 0.4537 0.18995 0.0
C2167 C 1.00327 0.42921 0.16975 0.0
C2168 C 1.02227 0.49084 0.23141 0.0
C2169 C 0.05439 0.50165 0.23311 0.0
N2170 N 1.01007 0.44947 0.18847 0.0
N2171 N 0.04815 0.48176 0.21305 0.0
H2172 H 0.77587 0.37356 0.58295 0.0
H2173 H 0.75958 0.54554 0.54012 0.0
H2174 H 0.79333 0.4489 0.63419 0.0
H2175 H 0.73965 0.47029 0.49262 0.0
H2176 H 0.76974 0.51074 0.5779 0.0
H2177 H 0.76102 0.40855 0.55188 0.0
C2178 C 0.77654 0.39747 0.58778 0.0
C2179 C 0.7859 0.40824 0.6113 0.0
C2180 C 0.76285 0.5018 0.55963 0.0
C2181 C 0.76891 0.4486 0.57552 0.0
C2182 C 0.7569 0.52169 0.53832 0.0
C2183 C 0.74857 0.51063 0.51372 0.0
C2184 C 0.76072 0.47059 0.55588 0.0
C2185 C 0.74576 0.47959 0.5117 0.0
C2186 C 0.76804 0.41747 0.56998 0.0
C2187 C 0.78648 0.43955 0.61609 0.0
N2188 N 0.752 0.46055 0.53235 0.0
N2189 N 0.77812 0.4586 0.59834 0.0
H2190 H 0.03518 0.36062 0.62694 0.0
H2191 H 0.02718 0.27789 0.4695 0.0
H2192 H 0.99212 0.35379 0.57671 0.0
H2193 H 0.06729 0.26297 0.52647 0.0
H2194 H 1.01581 0.31073 0.50696 0.0
H2195 H 0.04832 0.32876 0.58965 0.0
C2196 C 0.02848 0.35238 0.60809 0.0
C2197 C 1.01251 0.35997 0.60486 0.0
C2198 C 0.02711 0.30042 0.51142 0.0
C2199 C 0.02752 0.32373 0.56215 0.0
C2200 C 0.03369 0.28168 0.48993 0.0
C2201 C 0.04817 0.2674 0.49495 0.0
C2202 C 0.035 0.30517 0.53841 0.0
C2203 C 0.05611 0.27359 0.5217 0.0
C2204 C 0.03599 0.33415 0.58691 0.0
C2205 C 1.00438 0.34836 0.58025 0.0
N2206 N 0.04935 0.29196 0.54262 0.0
N2207 N 1.01199 0.33104 0.55979 0.0
H2208 H 0.76957 0.12419 0.82456 0.0
H2209 H 0.79172 0.29531 0.79312 0.0
H2210 H 0.75989 0.19607 0.8871 0.0
H2211 H 0.81119 0.22142 0.74266 0.0
H2212 H 0.78099 0.25933 0.82911 0.0
H2213 H 0.78518 0.15918 0.79479 0.0
C2214 C 0.77076 0.14727 0.83218 0.0
C2215 C 0.7633 0.15708 0.85848 0.0
C2216 C 0.78788 0.25091 0.81056 0.0
C2217 C 0.78113 0.19747 0.82412 0.0
C2218 C 0.79412 0.27145 0.7902 0.0
C2219 C 0.80248 0.2612 0.76524 0.0
C2220 C 0.78967 0.21982 0.80545 0.0
C2221 C 0.80502 0.23015 0.76195 0.0
C2222 C 0.77971 0.16725 0.81511 0.0
C2223 C 0.76512 0.18748 0.86678 0.0
N2224 N 0.79842 0.21045 0.78161 0.0
N2225 N 0.77378 0.20656 0.84962 0.0
H2226 H 0.52754 1.00823 0.72885 0.0
H2227 H 0.51524 0.10073 0.87972 0.0
H2228 H 0.48356 1.00669 0.777 0.0
H2229 H 0.55996 0.0884 0.83593 0.0
H2230 H 0.50307 0.06713 0.84302 0.0
H2231 H 0.53892 0.03898 0.76771 0.0
C2232 C 0.52019 0.01442 0.74764 0.0
C2233 C 0.50451 1.0047 0.74962 0.0
C2234 C 0.51555 0.07161 0.84158 0.0
C2235 C 0.51772 0.0403 0.79474 0.0
C2236 C 0.52252 0.09084 0.86244 0.0
C2237 C 0.53865 0.09763 0.8607 0.0
C2238 C 0.52475 0.05919 0.81868 0.0
C2239 C 0.54753 0.08376 0.83821 0.0
C2240 C 0.52679 0.032 0.76998 0.0
C2241 C 0.49567 0.01374 0.77453 0.0
N2242 N 0.54044 0.06544 0.81797 0.0
N2243 N 0.50241 0.0311 0.79621 0.0
H2244 H 0.81411 0.01838 0.48589 0.0
H2245 H 0.73439 0.0851 0.41579 0.0
H2246 H 0.76727 0.9906 0.51059 0.0
H2247 H 0.78034 0.11878 0.39236 0.0
H2248 H 0.74677 0.04795 0.44833 0.0
H2249 H 0.80254 0.05337 0.44919 0.0
C2250 C 0.80146 0.01953 0.48352 0.0
C2251 C 0.79166 1.00174 0.50152 0.0
C2252 C 0.75418 0.06345 0.43608 0.0
C2253 C 0.77839 0.04138 0.45981 0.0
C2254 C 0.74709 0.08459 0.41735 0.0
C2255 C 0.75629 0.10531 0.40148 0.0
C2256 C 0.77065 0.06287 0.43901 0.0
C2257 C 0.77274 0.10366 0.40463 0.0
C2258 C 0.79486 0.03948 0.46267 0.0
C2259 C 0.77533 1.00405 0.4975 0.0
N2260 N 0.77939 0.08289 0.42306 0.0
N2261 N 0.76926 0.02346 0.47722 0.0
H2262 H 0.48689 0.21982 0.52175 0.0
H2263 H 0.53844 0.19722 0.3734 0.0
H2264 H 0.5052 0.29334 0.46955 0.0
H2265 H 0.53013 0.12659 0.43783 0.0
H2266 H 0.52272 0.23158 0.40389 0.0
H2267 H 0.49821 0.18399 0.4857 0.0
C2268 C 0.49278 0.22837 0.50207 0.0
C2269 C 0.49488 0.25945 0.49814 0.0
C2270 C 0.52431 0.20853 0.4113 0.0
C2271 C 0.5083 0.21888 0.45753 0.0
C2272 C 0.53345 0.1889 0.39404 0.0
C2273 C 0.5358 0.15885 0.40304 0.0
C2274 C 0.51733 0.19812 0.43776 0.0
C2275 C 0.52858 0.14938 0.4297 0.0
C2276 C 0.49945 0.20798 0.48176 0.0
C2277 C 0.50309 0.26947 0.47292 0.0
N2278 N 0.51972 0.16891 0.44608 0.0
N2279 N 0.50957 0.24928 0.45364 0.0
H2280 H 0.27744 0.76328 0.27963 0.0
H2281 H 0.26809 0.86092 0.13128 0.0
H2282 H 0.23411 0.76515 0.22963 0.0
H2283 H 0.31206 0.84537 0.17663 0.0
H2284 H 0.25498 0.8274 0.16688 0.0
H2285 H 0.28959 0.79524 0.24257 0.0
C2286 C 0.2704 0.77048 0.26082 0.0
C2287 C 0.25468 0.76139 0.25777 0.0
C2288 C 0.2675 0.83122 0.16892 0.0
C2289 C 0.26874 0.79835 0.21476 0.0
C2290 C 0.275 0.85043 0.14871 0.0
C2291 C 0.29121 0.85615 0.15113 0.0
C2292 C 0.27625 0.81776 0.19182 0.0
C2293 C 0.29959 0.84152 0.17379 0.0
C2294 C 0.27743 0.78876 0.23953 0.0
C2295 C 0.24624 0.7717 0.2329 0.0
N2296 N 0.292 0.82321 0.19333 0.0
N2297 N 0.25339 0.78969 0.21226 0.0
H2298 H 0.56093 0.03386 0.22043 0.0
H2299 H 0.52211 0.87329 0.18452 0.0
H2300 H 0.54626 0.97055 0.28778 0.0
H2301 H 0.51948 0.94804 0.12318 0.0
H2302 H 0.53594 0.90553 0.22005 0.0
H2303 H 0.55108 0.99908 0.1817 0.0
C2304 C 0.55606 0.01226 0.22693 0.0
C2305 C 0.55446 1.00477 0.25715 0.0
C2306 C 0.53238 0.9149 0.1988 0.0
C2307 C 0.5431 0.96541 0.21348 0.0
C2308 C 0.5245 0.89651 0.17851 0.0
C2309 C 0.51957 0.90806 0.15093 0.0
C2310 C 0.53554 0.94507 0.19145 0.0
C2311 C 0.52292 0.93838 0.14437 0.0
C2312 C 0.55027 0.99267 0.20496 0.0
C2313 C 0.54774 0.97696 0.26464 0.0
N2314 N 0.53074 0.95587 0.16447 0.0
N2315 N 0.5423 0.9583 0.24298 0.0
H2316 H 0.31162 0.92576 0.58605 0.0
H2317 H 0.23398 0.00985 0.52694 0.0
H2318 H 0.26642 0.9161 0.62879 0.0
H2319 H 0.27993 0.01597 0.48643 0.0
H2320 H 0.24516 0.97619 0.56522 0.0
H2321 H 0.29988 0.96061 0.55047 0.0
C2322 C 0.29925 0.93119 0.58815 0.0
C2323 C 0.29001 0.91782 0.61039 0.0
C2324 C 0.25273 0.98499 0.54787 0.0
C2325 C 0.27633 0.9575 0.56928 0.0
C2326 C 0.24634 1.00409 0.52604 0.0
C2327 C 0.25601 0.01576 0.50345 0.0
C2328 C 0.26884 0.97766 0.54696 0.0
C2329 C 0.27197 1.00765 0.50337 0.0
C2330 C 0.29249 0.95094 0.56765 0.0
C2331 C 0.27395 0.92546 0.61169 0.0
N2332 N 0.27783 0.98922 0.5247 0.0
N2333 N 0.26761 0.94472 0.59137 0.0
H2334 H 0.51107 0.81745 0.63085 0.0
H2335 H 0.54481 0.79937 0.46588 0.0
H2336 H 0.51241 0.88991 0.56676 0.0
H2337 H 0.5561 0.73629 0.5357 0.0
H2338 H 0.53243 0.83243 0.50266 0.0
H2339 H 0.52623 0.78577 0.596 0.0
C2340 C 0.51439 0.82649 0.60931 0.0
C2341 C 0.51048 0.85623 0.60155 0.0
C2342 C 0.53784 0.81165 0.51016 0.0
C2343 C 0.5279 0.82056 0.562 0.0
C2344 C 0.54501 0.79296 0.48921 0.0
C2345 C 0.55165 0.7655 0.49803 0.0
C2346 C 0.53693 0.8024 0.54007 0.0
C2347 C 0.55136 0.75771 0.52831 0.0
C2348 C 0.52319 0.80862 0.58964 0.0
C2349 C 0.51524 0.8671 0.5736 0.0
N2350 N 0.54389 0.77593 0.54832 0.0
N2351 N 0.52365 0.84928 0.55485 0.0
H2352 H 0.76298 0.62134 0.31392 0.0
H2353 H 0.81607 0.7676 0.28332 0.0
H2354 H 0.77734 0.68229 0.38388 0.0
H2355 H 0.79148 0.71766 0.21536 0.0
H2356 H 0.80639 0.73148 0.32089 0.0
H2357 H 0.77751 0.65174 0.27795 0.0
C2358 C 0.76927 0.64105 0.32176 0.0
C2359 C 0.76884 0.64936 0.35195 0.0
C2360 C 0.80335 0.72821 0.29766 0.0
C2361 C 0.78554 0.68445 0.31075 0.0
C2362 C 0.80901 0.74856 0.27627 0.0
C2363 C 0.80452 0.74547 0.24635 0.0
C2364 C 0.79332 0.70459 0.2888 0.0
C2365 C 0.79514 0.72081 0.23828 0.0
C2366 C 0.77754 0.65847 0.30118 0.0
C2367 C 0.77713 0.67532 0.36074 0.0
N2368 N 0.78981 0.70143 0.25936 0.0
N2369 N 0.78513 0.69199 0.34023 0.0
H2370 H 0.48067 0.52727 0.26628 0.0
H2371 H 0.55962 0.57807 0.35053 0.0
H2372 H 0.5263 0.48628 0.25471 0.0
H2373 H 0.51537 0.6242 0.36294 0.0
H2374 H 0.54656 0.54183 0.31821 0.0
H2375 H 0.49206 0.56078 0.30466 0.0
C2376 C 0.49299 0.52514 0.27199 0.0
C2377 C 0.50259 0.50427 0.25704 0.0
C2378 C 0.53964 0.55982 0.32802 0.0
C2379 C 0.51563 0.54217 0.30055 0.0
C2380 C 0.54712 0.58048 0.34668 0.0
C2381 C 0.53865 0.6044 0.35943 0.0
C2382 C 0.52352 0.56298 0.32184 0.0
C2383 C 0.52247 0.60647 0.35317 0.0
C2384 C 0.49949 0.54427 0.29374 0.0
C2385 C 0.51848 0.50236 0.26526 0.0
N2386 N 0.51543 0.58611 0.33475 0.0
N2387 N 0.52446 0.52106 0.28626 0.0
H2388 H 0.74278 0.58065 0.91418 0.0
H2389 H 0.82222 0.51738 0.98787 0.0
H2390 H 0.78875 0.6121 0.88787 0.0
H2391 H 0.77528 0.48922 0.01139 0.0
H2392 H 0.8109 0.55026 0.94899 0.0
H2393 H 0.75514 0.54464 0.94771 0.0
C2394 C 0.75549 0.57983 0.91523 0.0
C2395 C 0.76469 0.59964 0.89823 0.0
C2396 C 0.80315 0.53671 0.96266 0.0
C2397 C 0.77905 0.55854 0.93717 0.0
C2398 C 0.80961 0.51796 0.98475 0.0
C2399 C 0.79969 0.5008 1.0031 0.0
C2400 C 0.78672 0.53802 0.95898 0.0
C2401 C 0.78342 0.50232 0.99811 0.0
C2402 C 0.76258 0.55934 0.93458 0.0
C2403 C 0.78115 0.59769 0.90095 0.0
N2404 N 0.77749 0.52059 0.9767 0.0
N2405 N 0.7878 0.57761 0.92014 0.0
H2406 H 0.53612 0.62287 0.93578 0.0
H2407 H 0.49603 0.78398 0.96554 0.0
H2408 H 0.53787 0.69537 0.87175 0.0
H2409 H 0.5078 0.72047 0.03469 0.0
H2410 H 0.5066 0.74847 0.92813 0.0
H2411 H 0.52158 0.65559 0.96988 0.0
C2412 C 0.53343 0.64573 0.92891 0.0
C2413 C 0.53826 0.65646 0.90094 0.0
C2414 C 0.50659 0.74213 0.95145 0.0
C2415 C 0.52147 0.69408 0.93986 0.0
C2416 C 0.50035 0.76213 0.97265 0.0
C2417 C 0.50092 0.75478 1.00302 0.0
C2418 C 0.51327 0.71469 0.96089 0.0
C2419 C 0.50705 0.7267 0.01138 0.0
C2420 C 0.52513 0.66441 0.94839 0.0
C2421 C 0.53453 0.68635 0.89327 0.0
N2422 N 0.51301 0.70771 0.99046 0.0
N2423 N 0.5263 0.70414 0.9126 0.0
H2424 H 0.23471 0.25573 0.7299 0.0
H2425 H 0.31147 0.34304 0.67125 0.0
H2426 H 0.27908 0.26023 0.77632 0.0
H2427 H 0.2664 0.35029 0.62778 0.0
H2428 H 0.29986 0.30862 0.70755 0.0
H2429 H 0.2459 0.28801 0.69044 0.0
C2430 C 0.2467 0.26362 0.7319 0.0
C2431 C 0.25595 0.25521 0.75641 0.0
C2432 C 0.29248 0.31766 0.69003 0.0
C2433 C 0.26884 0.29154 0.71151 0.0
C2434 C 0.29917 0.33712 0.66914 0.0
C2435 C 0.28988 0.3498 0.64663 0.0
C2436 C 0.27637 0.31071 0.68843 0.0
C2437 C 0.27394 0.34146 0.64515 0.0
C2438 C 0.25311 0.28187 0.70937 0.0
C2439 C 0.27147 0.26592 0.75783 0.0
N2440 N 0.26766 0.32255 0.66584 0.0
N2441 N 0.27739 0.28335 0.73575 0.0
H2442 H 0.54554 0.46942 0.78514 0.0
H2443 H 0.5131 0.44702 0.62027 0.0
H2444 H 0.55668 0.5316 0.71449 0.0
H2445 H 0.51502 0.37547 0.68534 0.0
H2446 H 0.52832 0.47925 0.65426 0.0
H2447 H 0.5344 0.43468 0.74855 0.0
C2448 C 0.54602 0.47528 0.7617 0.0
C2449 C 0.55226 0.50299 0.75262 0.0
C2450 C 0.52546 0.45644 0.66098 0.0
C2451 C 0.53885 0.46411 0.71068 0.0
C2452 C 0.51663 0.43818 0.64176 0.0
C2453 C 0.51275 0.40854 0.65004 0.0
C2454 C 0.53024 0.44509 0.6888 0.0
C2455 C 0.51783 0.39809 0.67797 0.0
C2456 C 0.53954 0.45561 0.74083 0.0
C2457 C 0.55225 0.51005 0.72215 0.0
N2458 N 0.52621 0.41635 0.69634 0.0
N2459 N 0.54541 0.49088 0.70221 0.0
H2460 H 0.26893 0.3928 0.10969 0.0
H2461 H 0.27877 0.53664 0.00413 0.0
H2462 H 0.31299 0.43735 0.09151 0.0
H2463 H 0.23449 0.49042 0.01423 0.0
H2464 H 0.29057 0.50269 0.04001 0.0
H2465 H 0.25551 0.42959 0.07801 0.0
C2466 C 0.27582 0.41017 0.09889 0.0
C2467 C 0.2922 0.41175 0.10309 0.0
C2468 C 0.27826 0.49986 0.0346 0.0
C2469 C 0.27678 0.4543 0.06727 0.0
C2470 C 0.27148 0.51929 0.01404 0.0
C2471 C 0.25565 0.51609 0.00589 0.0
C2472 C 0.26925 0.4767 0.04719 0.0
C2473 C 0.24674 0.49357 0.01989 0.0
C2474 C 0.2681 0.4313 0.08101 0.0
C2475 C 0.30039 0.43526 0.08914 0.0
N2476 N 0.25372 0.47444 0.03973 0.0
N2477 N 0.2926 0.45549 0.07184 0.0
H2478 H 0.56397 0.26846 0.02019 0.0
H2479 H 0.48449 0.34067 0.08627 0.0
H2480 H 0.51708 0.24775 0.98972 0.0
H2481 H 0.53057 0.3698 0.11422 0.0
H2482 H 0.49676 0.30448 0.05249 0.0
H2483 H 0.55254 0.30432 0.05637 0.0
C2484 C 0.55134 0.27141 0.02108 0.0
C2485 C 0.5415 0.25511 1.00182 0.0
C2486 C 0.50423 0.31878 0.06598 0.0
C2487 C 0.5284 0.29573 0.04297 0.0
C2488 C 0.4972 0.33935 0.08543 0.0
C2489 C 0.50648 0.35844 0.10303 0.0
C2490 C 0.52072 0.31707 0.06408 0.0
C2491 C 0.52293 0.35588 0.1007 0.0
C2492 C 0.54482 0.29184 0.04168 0.0
C2493 C 0.5252 0.2598 0.00396 0.0
N2494 N 0.52953 0.3356 0.08159 0.0
N2495 N 0.51922 0.27954 0.02406 0.0
loop_
_geom_bond_atom_site_label_1
_geom_bond_atom_site_label_2
_geom_bond_distance
_geom_bond_site_symmetry_2
_ccdc_geom_bond_type
C0 C1 1.351 . S
C0 N3 1.368 . S
C0 H5 0.931 . S
C1 C0 1.351 . S
C1 N2 1.373 . S
C1 H29 0.930 . S
N2 C1 1.373 . S
N2 C4 1.340 . S
N3 C0 1.368 . S
N3 C4 1.321 . S
N3 Co6 2.135 . S
C4 N2 1.340 . S
C4 N3 1.321 . S
C4 H28 0.930 . S
H5 C0 0.931 . S
Co6 N3 2.135 . S
Co6 N9 2.121 . S
Co6 O14 2.055 . S
Co6 O17 2.039 . S
Co6 N20 2.140 . S
C7 O8 1.227 . S
C7 O17 1.265 . S
O8 C7 1.227 . S
N9 Co6 2.121 . S
N9 C11 1.375 . S
N9 C12 1.313 . S
C10 C11 1.338 . S
C10 N13 1.377 . S
C10 H30 0.930 . S
C11 N9 1.375 . S
C11 C10 1.338 . S
C11 H15 0.931 . S
C12 N9 1.313 . S
C12 N13 1.344 . S
C12 H16 0.930 . S
N13 C10 1.377 . S
N13 C12 1.344 . S
O14 Co6 2.055 . S
O14 C18 1.253 . S
H15 C11 0.931 . S
H16 C12 0.930 . S
O17 Co6 2.039 . S
O17 C7 1.265 . S
C18 O14 1.253 . S
C18 O19 1.227 . S
O19 C18 1.227 . S
N20 Co6 2.140 . S
N20 C23 1.346 . S
N20 C24 1.345 . S
C21 C22 1.387 . S
C21 C25 1.391 . S
C22 C21 1.387 . S
C22 C23 1.369 . S
C22 H31 0.929 . S
C23 N20 1.346 . S
C23 C22 1.369 . S
C23 H26 0.928 . S
C24 N20 1.345 . S
C24 C25 1.371 . S
C24 H27 0.931 . S
C25 C21 1.391 . S
C25 C24 1.371 . S
C25 H32 0.930 . S
H26 C23 0.928 . S
H27 C24 0.931 . S
H28 C4 0.930 . S
H29 C1 0.930 . S
H30 C10 0.930 . S
H31 C22 0.929 . S
H32 C25 0.930 . S
C33 C34 1.351 . S
C33 N36 1.368 . S
C33 H38 0.931 . S
C34 C33 1.351 . S
C34 N35 1.373 . S
C34 H62 0.930 . S
N35 C34 1.373 . S
N35 C37 1.340 . S
N36 C33 1.368 . S
N36 C37 1.321 . S
N36 Co39 2.135 . S
C37 N35 1.340 . S
C37 N36 1.321 . S
C37 H61 0.930 . S
H38 C33 0.931 . S
Co39 N36 2.135 . S
Co39 N42 2.121 . S
Co39 O47 2.055 1_565 S
Co39 O50 2.039 . S
Co39 N53 2.140 . S
C40 O41 1.227 . S
C40 O50 1.265 . S
O41 C40 1.227 . S
N42 Co39 2.121 . S
N42 C44 1.375 . S
N42 C45 1.313 1_565 S
C43 C44 1.338 1_545 S
C43 N46 1.377 . S
C43 H63 0.930 . S
C44 N42 1.375 . S
C44 C43 1.338 1_565 S
C44 H48 0.931 . S
C45 N42 1.313 1_545 S
C45 N46 1.344 . S
C45 H49 0.930 . S
N46 C43 1.377 . S
N46 C45 1.344 . S
O47 Co39 2.055 1_545 S
O47 C51 1.253 . S
H48 C44 0.931 . S
H49 C45 0.930 . S
O50 Co39 2.039 . S
O50 C40 1.265 . S
C51 O47 1.253 . S
C51 O52 1.227 1_545 S
O52 C51 1.227 1_565 S
N53 Co39 2.140 . S
N53 C56 1.346 . S
N53 C57 1.345 . S
C54 C55 1.387 . S
C54 C58 1.391 . S
C55 C54 1.387 . S
C55 C56 1.369 . S
C55 H64 0.929 . S
C56 N53 1.346 . S
C56 C55 1.369 . S
C56 H59 0.928 . S
C57 N53 1.345 . S
C57 C58 1.371 . S
C57 H60 0.931 . S
C58 C54 1.391 . S
C58 C57 1.371 . S
C58 H65 0.930 . S
H59 C56 0.928 . S
H60 C57 0.931 . S
H61 C37 0.930 . S
H62 C34 0.930 . S
H63 C43 0.930 . S
H64 C55 0.929 . S
H65 C58 0.930 . S
C66 C67 1.351 . S
C66 N69 1.368 . S
C66 H71 0.931 . S
C67 C66 1.351 . S
C67 N68 1.373 . S
C67 H95 0.930 . S
N68 C67 1.373 . S
N68 C70 1.340 . S
N69 C66 1.368 . S
N69 C70 1.321 . S
N69 Co72 2.135 1_556 S
C70 N68 1.340 . S
C70 N69 1.321 . S
C70 H94 0.930 . S
H71 C66 0.931 . S
Co72 N69 2.135 1_554 S
Co72 N75 2.121 . S
Co72 O80 2.055 1_564 S
Co72 O83 2.039 . S
Co72 N86 2.140 . S
C73 O74 1.227 . S
C73 O83 1.265 . S
O74 C73 1.227 . S
N75 Co72 2.121 . S
N75 C77 1.375 . S
N75 C78 1.313 1_565 S
C76 C77 1.338 1_545 S
C76 N79 1.377 . S
C76 H96 0.930 . S
C77 N75 1.375 . S
C77 C76 1.338 1_565 S
C77 H81 0.931 . S
C78 N75 1.313 1_545 S
C78 N79 1.344 . S
C78 H82 0.930 . S
N79 C76 1.377 . S
N79 C78 1.344 . S
O80 Co72 2.055 1_546 S
O80 C84 1.253 . S
H81 C77 0.931 . S
H82 C78 0.930 . S
O83 Co72 2.039 . S
O83 C73 1.265 . S
C84 O80 1.253 . S
C84 O85 1.227 1_546 S
O85 C84 1.227 1_564 S
N86 Co72 2.140 . S
N86 C89 1.346 . S
N86 C90 1.345 . S
C87 C88 1.387 . S
C87 C91 1.391 . S
C88 C87 1.387 . S
C88 C89 1.369 . S
C88 H97 0.929 . S
C89 N86 1.346 . S
C89 C88 1.369 . S
C89 H92 0.928 . S
C90 N86 1.345 . S
C90 C91 1.371 . S
C90 H93 0.931 . S
C91 C87 1.391 . S
C91 C90 1.371 . S
C91 H98 0.930 . S
H92 C89 0.928 . S
H93 C90 0.931 . S
H94 C70 0.930 . S
H95 C67 0.930 . S
H96 C76 0.930 . S
H97 C88 0.929 . S
H98 C91 0.930 . S
C99 C100 1.351 . S
C99 N102 1.368 . S
C99 H104 0.931 . S
C100 C99 1.351 . S
C100 N101 1.373 . S
C100 H128 0.930 . S
N101 C100 1.373 . S
N101 C103 1.340 . S
N102 C99 1.368 . S
N102 C103 1.321 . S
N102 Co105 2.135 1_556 S
C103 N101 1.340 . S
C103 N102 1.321 . S
C103 H127 0.930 . S
H104 C99 0.931 . S
Co105 N102 2.135 1_554 S
Co105 N108 2.121 . S
Co105 O113 2.055 1_554 S
Co105 O116 2.039 . S
Co105 N119 2.140 . S
C106 O107 1.227 . S
C106 O116 1.265 . S
O107 C106 1.227 . S
N108 Co105 2.121 . S
N108 C110 1.375 . S
N108 C111 1.313 . S
C109 C110 1.338 . S
C109 N112 1.377 . S
C109 H129 0.930 . S
C110 N108 1.375 . S
C110 C109 1.338 . S
C110 H114 0.931 . S
C111 N108 1.313 . S
C111 N112 1.344 . S
C111 H115 0.930 . S
N112 C109 1.377 . S
N112 C111 1.344 . S
O113 Co105 2.055 1_556 S
O113 C117 1.253 . S
H114 C110 0.931 . S
H115 C111 0.930 . S
O116 Co105 2.039 . S
O116 C106 1.265 . S
C117 O113 1.253 . S
C117 O118 1.227 1_556 S
O118 C117 1.227 1_554 S
N119 Co105 2.140 . S
N119 C122 1.346 . S
N119 C123 1.345 . S
C120 C121 1.387 . S
C120 C124 1.391 . S
C121 C120 1.387 . S
C121 C122 1.369 . S
C121 H130 0.929 . S
C122 N119 1.346 . S
C122 C121 1.369 . S
C122 H125 0.928 . S
C123 N119 1.345 . S
C123 C124 1.371 . S
C123 H126 0.931 . S
C124 C120 1.391 . S
C124 C123 1.371 . S
C124 H131 0.930 . S
H125 C122 0.928 . S
H126 C123 0.931 . S
H127 C103 0.930 . S
H128 C100 0.930 . S
H129 C109 0.930 . S
H130 C121 0.929 . S
H131 C124 0.930 . S
C132 C133 1.351 . S
C132 N135 1.368 . S
C132 H137 0.931 . S
C133 C132 1.351 . S
C133 N134 1.373 . S
C133 H161 0.930 . S
N134 C133 1.373 . S
N134 C136 1.340 . S
N135 C132 1.368 . S
N135 C136 1.321 . S
N135 Co138 2.135 . S
C136 N134 1.340 . S
C136 N135 1.321 . S
C136 H160 0.930 . S
H137 C132 0.931 . S
Co138 N135 2.135 . S
Co138 N141 2.121 . S
Co138 O146 2.055 . S
Co138 O149 2.039 . S
Co138 N152 2.140 . S
C139 O140 1.227 . S
C139 O149 1.265 . S
O140 C139 1.227 . S
N141 Co138 2.121 . S
N141 C143 1.375 . S
N141 C144 1.313 . S
C142 C143 1.338 . S
C142 N145 1.377 . S
C142 H162 0.930 . S
C143 N141 1.375 . S
C143 C142 1.338 . S
C143 H147 0.931 . S
C144 N141 1.313 . S
C144 N145 1.344 . S
C144 H148 0.930 . S
N145 C142 1.377 . S
N145 C144 1.344 . S
O146 Co138 2.055 . S
O146 C150 1.253 . S
H147 C143 0.931 . S
H148 C144 0.930 . S
O149 Co138 2.039 . S
O149 C139 1.265 . S
C150 O146 1.253 . S
C150 O151 1.227 . S
O151 C150 1.227 . S
N152 Co138 2.140 . S
N152 C155 1.346 . S
N152 C156 1.345 . S
C153 C154 1.387 . S
C153 C157 1.391 . S
C154 C153 1.387 . S
C154 C155 1.369 . S
C154 H163 0.929 . S
C155 N152 1.346 . S
C155 C154 1.369 . S
C155 H158 0.928 . S
C156 N152 1.345 . S
C156 C157 1.371 . S
C156 H159 0.931 . S
C157 C153 1.391 . S
C157 C156 1.371 . S
C157 H164 0.930 . S
H158 C155 0.928 . S
H159 C156 0.931 . S
H160 C136 0.930 . S
H161 C133 0.930 . S
H162 C142 0.930 . S
H163 C154 0.929 . S
H164 C157 0.930 . S
C165 C166 1.351 . S
C165 N168 1.368 . S
C165 H170 0.931 . S
C166 C165 1.351 . S
C166 N167 1.373 . S
C166 H194 0.930 . S
N167 C166 1.373 . S
N167 C169 1.340 . S
N168 C165 1.368 . S
N168 C169 1.321 . S
N168 Co171 2.135 . S
C169 N167 1.340 . S
C169 N168 1.321 . S
C169 H193 0.930 . S
H170 C165 0.931 . S
Co171 N168 2.135 . S
Co171 N174 2.121 . S
Co171 O179 2.055 1_545 S
Co171 O182 2.039 . S
Co171 N185 2.140 . S
C172 O173 1.227 . S
C172 O182 1.265 . S
O173 C172 1.227 . S
N174 Co171 2.121 . S
N174 C176 1.375 . S
N174 C177 1.313 1_545 S
C175 C176 1.338 1_565 S
C175 N178 1.377 . S
C175 H195 0.930 . S
C176 N174 1.375 . S
C176 C175 1.338 1_545 S
C176 H180 0.931 . S
C177 N174 1.313 1_565 S
C177 N178 1.344 . S
C177 H181 0.930 . S
N178 C175 1.377 . S
N178 C177 1.344 . S
O179 Co171 2.055 1_565 S
O179 C183 1.253 . S
H180 C176 0.931 . S
H181 C177 0.930 . S
O182 Co171 2.039 . S
O182 C172 1.265 . S
C183 O179 1.253 . S
C183 O184 1.227 1_565 S
O184 C183 1.227 1_545 S
N185 Co171 2.140 . S
N185 C188 1.346 . S
N185 C189 1.345 . S
C186 C187 1.387 . S
C186 C190 1.391 . S
C187 C186 1.387 . S
C187 C188 1.369 . S
C187 H196 0.929 . S
C188 N185 1.346 . S
C188 C187 1.369 . S
C188 H191 0.928 . S
C189 N185 1.345 . S
C189 C190 1.371 . S
C189 H192 0.931 . S
C190 C186 1.391 . S
C190 C189 1.371 . S
C190 H197 0.930 . S
H191 C188 0.928 . S
H192 C189 0.931 . S
H193 C169 0.930 . S
H194 C166 0.930 . S
H195 C175 0.930 . S
H196 C187 0.929 . S
H197 C190 0.930 . S
C198 C199 1.351 . S
C198 N201 1.368 . S
C198 H203 0.931 . S
C199 C198 1.351 . S
C199 N200 1.373 . S
C199 H227 0.930 . S
N200 C199 1.373 . S
N200 C202 1.340 . S
N201 C198 1.368 . S
N201 C202 1.321 . S
N201 Co204 2.135 1_554 S
C202 N200 1.340 . S
C202 N201 1.321 . S
C202 H226 0.930 . S
H203 C198 0.931 . S
Co204 N201 2.135 1_556 S
Co204 N207 2.121 . S
Co204 O212 2.055 1_546 S
Co204 O215 2.039 . S
Co204 N218 2.140 . S
C205 O206 1.227 . S
C205 O215 1.265 . S
O206 C205 1.227 . S
N207 Co204 2.121 . S
N207 C209 1.375 . S
N207 C210 1.313 1_545 S
C208 C209 1.338 1_565 S
C208 N211 1.377 . S
C208 H228 0.930 . S
C209 N207 1.375 . S
C209 C208 1.338 1_545 S
C209 H213 0.931 . S
C210 N207 1.313 1_565 S
C210 N211 1.344 . S
C210 H214 0.930 . S
N211 C208 1.377 . S
N211 C210 1.344 . S
O212 Co204 2.055 1_564 S
O212 C216 1.253 . S
H213 C209 0.931 . S
H214 C210 0.930 . S
O215 Co204 2.039 . S
O215 C205 1.265 . S
C216 O212 1.253 . S
C216 O217 1.227 1_564 S
O217 C216 1.227 1_546 S
N218 Co204 2.140 . S
N218 C221 1.346 . S
N218 C222 1.345 . S
C219 C220 1.387 . S
C219 C223 1.391 . S
C220 C219 1.387 . S
C220 C221 1.369 . S
C220 H229 0.929 . S
C221 N218 1.346 . S
C221 C220 1.369 . S
C221 H224 0.928 . S
C222 N218 1.345 . S
C222 C223 1.371 . S
C222 H225 0.931 . S
C223 C219 1.391 . S
C223 C222 1.371 . S
C223 H230 0.930 . S
H224 C221 0.928 . S
H225 C222 0.931 . S
H226 C202 0.930 . S
H227 C199 0.930 . S
H228 C208 0.930 . S
H229 C220 0.929 . S
H230 C223 0.930 . S
C231 C232 1.351 . S
C231 N234 1.368 . S
C231 H236 0.931 . S
C232 C231 1.351 . S
C232 N233 1.373 . S
C232 H260 0.930 . S
N233 C232 1.373 . S
N233 C235 1.340 . S
N234 C231 1.368 . S
N234 C235 1.321 . S
N234 Co237 2.135 1_554 S
C235 N233 1.340 . S
C235 N234 1.321 . S
C235 H259 0.930 . S
H236 C231 0.931 . S
Co237 N234 2.135 1_556 S
Co237 N240 2.121 . S
Co237 O245 2.055 1_556 S
Co237 O248 2.039 . S
Co237 N251 2.140 . S
C238 O239 1.227 . S
C238 O248 1.265 . S
O239 C238 1.227 . S
N240 Co237 2.121 . S
N240 C242 1.375 . S
N240 C243 1.313 . S
C241 C242 1.338 . S
C241 N244 1.377 . S
C241 H261 0.930 . S
C242 N240 1.375 . S
C242 C241 1.338 . S
C242 H246 0.931 . S
C243 N240 1.313 . S
C243 N244 1.344 . S
C243 H247 0.930 . S
N244 C241 1.377 . S
N244 C243 1.344 . S
O245 Co237 2.055 1_554 S
O245 C249 1.253 . S
H246 C242 0.931 . S
H247 C243 0.930 . S
O248 Co237 2.039 . S
O248 C238 1.265 . S
C249 O245 1.253 . S
C249 O250 1.227 1_554 S
O250 C249 1.227 1_556 S
N251 Co237 2.140 . S
N251 C254 1.346 . S
N251 C255 1.345 . S
C252 C253 1.387 . S
C252 C256 1.391 . S
C253 C252 1.387 . S
C253 C254 1.369 . S
C253 H262 0.929 . S
C254 N251 1.346 . S
C254 C253 1.369 . S
C254 H257 0.928 . S
C255 N251 1.345 . S
C255 C256 1.371 . S
C255 H258 0.931 . S
C256 C252 1.391 . S
C256 C255 1.371 . S
C256 H263 0.930 . S
H257 C254 0.928 . S
H258 C255 0.931 . S
H259 C235 0.930 . S
H260 C232 0.930 . S
H261 C241 0.930 . S
H262 C253 0.929 . S
H263 C256 0.930 . S
C264 C265 1.351 . S
C264 N267 1.368 . S
C264 H269 0.931 . S
C265 C264 1.351 . S
C265 N266 1.373 . S
C265 H293 0.930 . S
N266 C265 1.373 . S
N266 C268 1.340 . S
N267 C264 1.368 . S
N267 C268 1.321 . S
N267 Co270 2.135 . S
C268 N266 1.340 . S
C268 N267 1.321 . S
C268 H292 0.930 . S
H269 C264 0.931 . S
Co270 N267 2.135 . S
Co270 N273 2.121 . S
Co270 O278 2.055 . S
Co270 O281 2.039 . S
Co270 N284 2.140 . S
C271 O272 1.227 . S
C271 O281 1.265 . S
O272 C271 1.227 . S
N273 Co270 2.121 . S
N273 C275 1.375 . S
N273 C276 1.313 . S
C274 C275 1.338 . S
C274 N277 1.377 . S
C274 H294 0.930 . S
C275 N273 1.375 . S
C275 C274 1.338 . S
C275 H279 0.931 . S
C276 N273 1.313 . S
C276 N277 1.344 . S
C276 H280 0.930 . S
N277 C274 1.377 . S
N277 C276 1.344 . S
O278 Co270 2.055 . S
O278 C282 1.253 . S
H279 C275 0.931 . S
H280 C276 0.930 . S
O281 Co270 2.039 . S
O281 C271 1.265 . S
C282 O278 1.253 . S
C282 O283 1.227 . S
O283 C282 1.227 . S
N284 Co270 2.140 . S
N284 C287 1.346 . S
N284 C288 1.345 . S
C285 C286 1.387 . S
C285 C289 1.391 . S
C286 C285 1.387 . S
C286 C287 1.369 . S
C286 H295 0.929 . S
C287 N284 1.346 . S
C287 C286 1.369 . S
C287 H290 0.928 . S
C288 N284 1.345 . S
C288 C289 1.371 . S
C288 H291 0.931 . S
C289 C285 1.391 . S
C289 C288 1.371 . S
C289 H296 0.930 . S
H290 C287 0.928 . S
H291 C288 0.931 . S
H292 C268 0.930 . S
H293 C265 0.930 . S
H294 C274 0.930 . S
H295 C286 0.929 . S
H296 C289 0.930 . S
C297 C298 1.351 . S
C297 N300 1.368 . S
C297 H302 0.931 . S
C298 C297 1.351 . S
C298 N299 1.373 . S
C298 H326 0.930 . S
N299 C298 1.373 . S
N299 C301 1.340 . S
N300 C297 1.368 . S
N300 C301 1.321 . S
N300 Co303 2.135 . S
C301 N299 1.340 . S
C301 N300 1.321 . S
C301 H325 0.930 . S
H302 C297 0.931 . S
Co303 N300 2.135 . S
Co303 N306 2.121 . S
Co303 O311 2.055 . S
Co303 O314 2.039 . S
Co303 N317 2.140 . S
C304 O305 1.227 . S
C304 O314 1.265 . S
O305 C304 1.227 . S
N306 Co303 2.121 . S
N306 C308 1.375 . S
N306 C309 1.313 . S
C307 C308 1.338 . S
C307 N310 1.377 . S
C307 H327 0.930 . S
C308 N306 1.375 . S
C308 C307 1.338 . S
C308 H312 0.931 . S
C309 N306 1.313 . S
C309 N310 1.344 . S
C309 H313 0.930 . S
N310 C307 1.377 . S
N310 C309 1.344 . S
O311 Co303 2.055 . S
O311 C315 1.253 . S
H312 C308 0.931 . S
H313 C309 0.930 . S
O314 Co303 2.039 . S
O314 C304 1.265 . S
C315 O311 1.253 . S
C315 O316 1.227 . S
O316 C315 1.227 . S
N317 Co303 2.140 . S
N317 C320 1.346 . S
N317 C321 1.345 . S
C318 C319 1.387 . S
C318 C322 1.391 . S
C319 C318 1.387 . S
C319 C320 1.369 . S
C319 H328 0.929 . S
C320 N317 1.346 . S
C320 C319 1.369 . S
C320 H323 0.928 . S
C321 N317 1.345 . S
C321 C322 1.371 . S
C321 H324 0.931 . S
C322 C318 1.391 . S
C322 C321 1.371 . S
C322 H329 0.930 . S
H323 C320 0.928 . S
H324 C321 0.931 . S
H325 C301 0.930 . S
H326 C298 0.930 . S
H327 C307 0.930 . S
H328 C319 0.929 . S
H329 C322 0.930 . S
C330 C331 1.351 . S
C330 N333 1.368 . S
C330 H335 0.931 . S
C331 C330 1.351 . S
C331 N332 1.373 . S
C331 H359 0.930 . S
N332 C331 1.373 . S
N332 C334 1.340 . S
N333 C330 1.368 . S
N333 C334 1.321 . S
N333 Co336 2.135 . S
C334 N332 1.340 . S
C334 N333 1.321 . S
C334 H358 0.930 . S
H335 C330 0.931 . S
Co336 N333 2.135 . S
Co336 N339 2.121 . S
Co336 O344 2.055 . S
Co336 O347 2.039 . S
Co336 N350 2.140 . S
C337 O338 1.227 . S
C337 O347 1.265 . S
O338 C337 1.227 . S
N339 Co336 2.121 . S
N339 C341 1.375 . S
N339 C342 1.313 . S
C340 C341 1.338 . S
C340 N343 1.377 . S
C340 H360 0.930 . S
C341 N339 1.375 . S
C341 C340 1.338 . S
C341 H345 0.931 . S
C342 N339 1.313 . S
C342 N343 1.344 . S
C342 H346 0.930 . S
N343 C340 1.377 . S
N343 C342 1.344 . S
O344 Co336 2.055 . S
O344 C348 1.253 . S
H345 C341 0.931 . S
H346 C342 0.930 . S
O347 Co336 2.039 . S
O347 C337 1.265 . S
C348 O344 1.253 . S
C348 O349 1.227 . S
O349 C348 1.227 . S
N350 Co336 2.140 . S
N350 C353 1.346 . S
N350 C354 1.345 . S
C351 C352 1.387 . S
C351 C355 1.391 . S
C352 C351 1.387 . S
C352 C353 1.369 . S
C352 H361 0.929 . S
C353 N350 1.346 . S
C353 C352 1.369 . S
C353 H356 0.928 . S
C354 N350 1.345 . S
C354 C355 1.371 . S
C354 H357 0.931 . S
C355 C351 1.391 . S
C355 C354 1.371 . S
C355 H362 0.930 . S
H356 C353 0.928 . S
H357 C354 0.931 . S
H358 C334 0.930 . S
H359 C331 0.930 . S
H360 C340 0.930 . S
H361 C352 0.929 . S
H362 C355 0.930 . S
C363 C364 1.351 . S
C363 N366 1.368 . S
C363 H368 0.931 . S
C364 C363 1.351 . S
C364 N365 1.373 . S
C364 H392 0.930 . S
N365 C364 1.373 . S
N365 C367 1.340 . S
N366 C363 1.368 . S
N366 C367 1.321 . S
N366 Co369 2.135 . S
C367 N365 1.340 . S
C367 N366 1.321 . S
C367 H391 0.930 . S
H368 C363 0.931 . S
Co369 N366 2.135 . S
Co369 N372 2.121 . S
Co369 O377 2.055 . S
Co369 O380 2.039 . S
Co369 N383 2.140 . S
C370 O371 1.227 . S
C370 O380 1.265 . S
O371 C370 1.227 . S
N372 Co369 2.121 . S
N372 C374 1.375 . S
N372 C375 1.313 . S
C373 C374 1.338 . S
C373 N376 1.377 . S
C373 H393 0.930 . S
C374 N372 1.375 . S
C374 C373 1.338 . S
C374 H378 0.931 . S
C375 N372 1.313 . S
C375 N376 1.344 . S
C375 H379 0.930 . S
N376 C373 1.377 . S
N376 C375 1.344 . S
O377 Co369 2.055 . S
O377 C381 1.253 . S
H378 C374 0.931 . S
H379 C375 0.930 . S
O380 Co369 2.039 . S
O380 C370 1.265 . S
C381 O377 1.253 . S
C381 O382 1.227 . S
O382 C381 1.227 . S
N383 Co369 2.140 . S
N383 C386 1.346 . S
N383 C387 1.345 . S
C384 C385 1.387 . S
C384 C388 1.391 . S
C385 C384 1.387 . S
C385 C386 1.369 . S
C385 H394 0.929 . S
C386 N383 1.346 . S
C386 C385 1.369 . S
C386 H389 0.928 . S
C387 N383 1.345 . S
C387 C388 1.371 . S
C387 H390 0.931 . S
C388 C384 1.391 . S
C388 C387 1.371 . S
C388 H395 0.930 . S
H389 C386 0.928 . S
H390 C387 0.931 . S
H391 C367 0.930 . S
H392 C364 0.930 . S
H393 C373 0.930 . S
H394 C385 0.929 . S
H395 C388 0.930 . S
C396 C397 1.351 . S
C396 N399 1.368 . S
C396 H401 0.931 . S
C397 C396 1.351 . S
C397 N398 1.373 . S
C397 H425 0.930 . S
N398 C397 1.373 . S
N398 C400 1.340 . S
N399 C396 1.368 . S
N399 C400 1.321 . S
N399 Co402 2.135 . S
C400 N398 1.340 . S
C400 N399 1.321 . S
C400 H424 0.930 . S
H401 C396 0.931 . S
Co402 N399 2.135 . S
Co402 N405 2.121 . S
Co402 O410 2.055 . S
Co402 O413 2.039 . S
Co402 N416 2.140 . S
C403 O404 1.227 . S
C403 O413 1.265 . S
O404 C403 1.227 . S
N405 Co402 2.121 . S
N405 C407 1.375 . S
N405 C408 1.313 . S
C406 C407 1.338 . S
C406 N409 1.377 . S
C406 H426 0.930 . S
C407 N405 1.375 . S
C407 C406 1.338 . S
C407 H411 0.931 . S
C408 N405 1.313 . S
C408 N409 1.344 . S
C408 H412 0.930 . S
N409 C406 1.377 . S
N409 C408 1.344 . S
O410 Co402 2.055 . S
O410 C414 1.253 . S
H411 C407 0.931 . S
H412 C408 0.930 . S
O413 Co402 2.039 . S
O413 C403 1.265 . S
C414 O410 1.253 . S
C414 O415 1.227 . S
O415 C414 1.227 . S
N416 Co402 2.140 . S
N416 C419 1.346 . S
N416 C420 1.345 . S
C417 C418 1.387 . S
C417 C421 1.391 . S
C418 C417 1.387 . S
C418 C419 1.369 . S
C418 H427 0.929 . S
C419 N416 1.346 . S
C419 C418 1.369 . S
C419 H422 0.928 . S
C420 N416 1.345 . S
C420 C421 1.371 . S
C420 H423 0.931 . S
C421 C417 1.391 . S
C421 C420 1.371 . S
C421 H428 0.930 . S
H422 C419 0.928 . S
H423 C420 0.931 . S
H424 C400 0.930 . S
H425 C397 0.930 . S
H426 C406 0.930 . S
H427 C418 0.929 . S
H428 C421 0.930 . S
C429 C430 1.351 . S
C429 N432 1.368 . S
C429 H434 0.931 . S
C430 C429 1.351 . S
C430 N431 1.373 . S
C430 H458 0.930 . S
N431 C430 1.373 . S
N431 C433 1.340 . S
N432 C429 1.368 . S
N432 C433 1.321 . S
N432 Co435 2.135 . S
C433 N431 1.340 . S
C433 N432 1.321 . S
C433 H457 0.930 . S
H434 C429 0.931 . S
Co435 N432 2.135 . S
Co435 N438 2.121 . S
Co435 O443 2.055 . S
Co435 O446 2.039 . S
Co435 N449 2.140 . S
C436 O437 1.227 . S
C436 O446 1.265 . S
O437 C436 1.227 . S
N438 Co435 2.121 . S
N438 C440 1.375 . S
N438 C441 1.313 . S
C439 C440 1.338 . S
C439 N442 1.377 . S
C439 H459 0.930 . S
C440 N438 1.375 . S
C440 C439 1.338 . S
C440 H444 0.931 . S
C441 N438 1.313 . S
C441 N442 1.344 . S
C441 H445 0.930 . S
N442 C439 1.377 . S
N442 C441 1.344 . S
O443 Co435 2.055 . S
O443 C447 1.253 . S
H444 C440 0.931 . S
H445 C441 0.930 . S
O446 Co435 2.039 . S
O446 C436 1.265 . S
C447 O443 1.253 . S
C447 O448 1.227 . S
O448 C447 1.227 . S
N449 Co435 2.140 . S
N449 C452 1.346 . S
N449 C453 1.345 . S
C450 C451 1.387 . S
C450 C454 1.391 . S
C451 C450 1.387 . S
C451 C452 1.369 . S
C451 H460 0.929 . S
C452 N449 1.346 . S
C452 C451 1.369 . S
C452 H455 0.928 . S
C453 N449 1.345 . S
C453 C454 1.371 . S
C453 H456 0.931 . S
C454 C450 1.391 . S
C454 C453 1.371 . S
C454 H461 0.930 . S
H455 C452 0.928 . S
H456 C453 0.931 . S
H457 C433 0.930 . S
H458 C430 0.930 . S
H459 C439 0.930 . S
H460 C451 0.929 . S
H461 C454 0.930 . S
C462 C463 1.351 . S
C462 N465 1.368 . S
C462 H467 0.931 . S
C463 C462 1.351 . S
C463 N464 1.373 . S
C463 H491 0.930 . S
N464 C463 1.373 . S
N464 C466 1.340 . S
N465 C462 1.368 . S
N465 C466 1.321 . S
N465 Co468 2.135 . S
C466 N464 1.340 . S
C466 N465 1.321 . S
C466 H490 0.930 . S
H467 C462 0.931 . S
Co468 N465 2.135 . S
Co468 N471 2.121 . S
Co468 O476 2.055 . S
Co468 O479 2.039 . S
Co468 N482 2.140 . S
C469 O470 1.227 . S
C469 O479 1.265 . S
O470 C469 1.227 . S
N471 Co468 2.121 . S
N471 C473 1.375 . S
N471 C474 1.313 . S
C472 C473 1.338 . S
C472 N475 1.377 . S
C472 H492 0.930 . S
C473 N471 1.375 . S
C473 C472 1.338 . S
C473 H477 0.931 . S
C474 N471 1.313 . S
C474 N475 1.344 . S
C474 H478 0.930 . S
N475 C472 1.377 . S
N475 C474 1.344 . S
O476 Co468 2.055 . S
O476 C480 1.253 . S
H477 C473 0.931 . S
H478 C474 0.930 . S
O479 Co468 2.039 . S
O479 C469 1.265 . S
C480 O476 1.253 . S
C480 O481 1.227 . S
O481 C480 1.227 . S
N482 Co468 2.140 . S
N482 C485 1.346 . S
N482 C486 1.345 . S
C483 C484 1.387 . S
C483 C487 1.391 . S
C484 C483 1.387 . S
C484 C485 1.369 . S
C484 H493 0.929 . S
C485 N482 1.346 . S
C485 C484 1.369 . S
C485 H488 0.928 . S
C486 N482 1.345 . S
C486 C487 1.371 . S
C486 H489 0.931 . S
C487 C483 1.391 . S
C487 C486 1.371 . S
C487 H494 0.930 . S
H488 C485 0.928 . S
H489 C486 0.931 . S
H490 C466 0.930 . S
H491 C463 0.930 . S
H492 C472 0.930 . S
H493 C484 0.929 . S
H494 C487 0.930 . S
C495 C496 1.351 . S
C495 N498 1.368 . S
C495 H500 0.931 . S
C496 C495 1.351 . S
C496 N497 1.373 . S
C496 H524 0.930 . S
N497 C496 1.373 . S
N497 C499 1.340 . S
N498 C495 1.368 . S
N498 C499 1.321 . S
N498 Co501 2.135 . S
C499 N497 1.340 . S
C499 N498 1.321 . S
C499 H523 0.930 . S
H500 C495 0.931 . S
Co501 N498 2.135 . S
Co501 N504 2.121 . S
Co501 O509 2.055 . S
Co501 O512 2.039 . S
Co501 N515 2.140 . S
C502 O503 1.227 . S
C502 O512 1.265 . S
O503 C502 1.227 . S
N504 Co501 2.121 . S
N504 C506 1.375 . S
N504 C507 1.313 . S
C505 C506 1.338 . S
C505 N508 1.377 . S
C505 H525 0.930 . S
C506 N504 1.375 . S
C506 C505 1.338 . S
C506 H510 0.931 . S
C507 N504 1.313 . S
C507 N508 1.344 . S
C507 H511 0.930 . S
N508 C505 1.377 . S
N508 C507 1.344 . S
O509 Co501 2.055 . S
O509 C513 1.253 . S
H510 C506 0.931 . S
H511 C507 0.930 . S
O512 Co501 2.039 . S
O512 C502 1.265 . S
C513 O509 1.253 . S
C513 O514 1.227 . S
O514 C513 1.227 . S
N515 Co501 2.140 . S
N515 C518 1.346 . S
N515 C519 1.345 . S
C516 C517 1.387 . S
C516 C520 1.391 . S
C517 C516 1.387 . S
C517 C518 1.369 . S
C517 H526 0.929 . S
C518 N515 1.346 . S
C518 C517 1.369 . S
C518 H521 0.928 . S
C519 N515 1.345 . S
C519 C520 1.371 . S
C519 H522 0.931 . S
C520 C516 1.391 . S
C520 C519 1.371 . S
C520 H527 0.930 . S
H521 C518 0.928 . S
H522 C519 0.931 . S
H523 C499 0.930 . S
H524 C496 0.930 . S
H525 C505 0.930 . S
H526 C517 0.929 . S
H527 C520 0.930 . S
C528 C529 1.351 . S
C528 N531 1.368 . S
C528 H533 0.931 . S
C529 C528 1.351 . S
C529 N530 1.373 . S
C529 H557 0.930 . S
N530 C529 1.373 . S
N530 C532 1.340 . S
N531 C528 1.368 . S
N531 C532 1.321 . S
N531 Co534 2.135 . S
C532 N530 1.340 . S
C532 N531 1.321 . S
C532 H556 0.930 . S
H533 C528 0.931 . S
Co534 N531 2.135 . S
Co534 N537 2.121 . S
Co534 O542 2.055 . S
Co534 O545 2.039 . S
Co534 N548 2.140 . S
C535 O536 1.227 . S
C535 O545 1.265 . S
O536 C535 1.227 . S
N537 Co534 2.121 . S
N537 C539 1.375 . S
N537 C540 1.313 . S
C538 C539 1.338 . S
C538 N541 1.377 . S
C538 H558 0.930 . S
C539 N537 1.375 . S
C539 C538 1.338 . S
C539 H543 0.931 . S
C540 N537 1.313 . S
C540 N541 1.344 . S
C540 H544 0.930 . S
N541 C538 1.377 . S
N541 C540 1.344 . S
O542 Co534 2.055 . S
O542 C546 1.253 . S
H543 C539 0.931 . S
H544 C540 0.930 . S
O545 Co534 2.039 . S
O545 C535 1.265 . S
C546 O542 1.253 . S
C546 O547 1.227 . S
O547 C546 1.227 . S
N548 Co534 2.140 . S
N548 C551 1.346 . S
N548 C552 1.345 . S
C549 C550 1.387 . S
C549 C553 1.391 . S
C550 C549 1.387 . S
C550 C551 1.369 . S
C550 H559 0.929 . S
C551 N548 1.346 . S
C551 C550 1.369 . S
C551 H554 0.928 . S
C552 N548 1.345 . S
C552 C553 1.371 . S
C552 H555 0.931 . S
C553 C549 1.391 . S
C553 C552 1.371 . S
C553 H560 0.930 . S
H554 C551 0.928 . S
H555 C552 0.931 . S
H556 C532 0.930 . S
H557 C529 0.930 . S
H558 C538 0.930 . S
H559 C550 0.929 . S
H560 C553 0.930 . S
C561 C562 1.351 . S
C561 N564 1.368 . S
C561 H566 0.931 . S
C562 C561 1.351 . S
C562 N563 1.373 . S
C562 H590 0.930 . S
N563 C562 1.373 . S
N563 C565 1.340 . S
N564 C561 1.368 . S
N564 C565 1.321 . S
N564 Co567 2.135 . S
C565 N563 1.340 . S
C565 N564 1.321 . S
C565 H589 0.930 . S
H566 C561 0.931 . S
Co567 N564 2.135 . S
Co567 N570 2.121 . S
Co567 O575 2.055 1_565 S
Co567 O578 2.039 . S
Co567 N581 2.140 . S
C568 O569 1.227 . S
C568 O578 1.265 . S
O569 C568 1.227 . S
N570 Co567 2.121 . S
N570 C572 1.375 . S
N570 C573 1.313 1_565 S
C571 C572 1.338 1_545 S
C571 N574 1.377 . S
C571 H591 0.930 . S
C572 N570 1.375 . S
C572 C571 1.338 1_565 S
C572 H576 0.931 . S
C573 N570 1.313 1_545 S
C573 N574 1.344 . S
C573 H577 0.930 . S
N574 C571 1.377 . S
N574 C573 1.344 . S
O575 Co567 2.055 1_545 S
O575 C579 1.253 . S
H576 C572 0.931 . S
H577 C573 0.930 . S
O578 Co567 2.039 . S
O578 C568 1.265 . S
C579 O575 1.253 . S
C579 O580 1.227 1_545 S
O580 C579 1.227 1_565 S
N581 Co567 2.140 . S
N581 C584 1.346 . S
N581 C585 1.345 . S
C582 C583 1.387 . S
C582 C586 1.391 . S
C583 C582 1.387 . S
C583 C584 1.369 . S
C583 H592 0.929 . S
C584 N581 1.346 . S
C584 C583 1.369 . S
C584 H587 0.928 . S
C585 N581 1.345 . S
C585 C586 1.371 . S
C585 H588 0.931 . S
C586 C582 1.391 . S
C586 C585 1.371 . S
C586 H593 0.930 . S
H587 C584 0.928 . S
H588 C585 0.931 . S
H589 C565 0.930 . S
H590 C562 0.930 . S
H591 C571 0.930 . S
H592 C583 0.929 . S
H593 C586 0.930 . S
C594 C595 1.351 . S
C594 N597 1.368 . S
C594 H599 0.931 . S
C595 C594 1.351 . S
C595 N596 1.373 . S
C595 H623 0.930 . S
N596 C595 1.373 . S
N596 C598 1.340 . S
N597 C594 1.368 . S
N597 C598 1.321 . S
N597 Co600 2.135 . S
C598 N596 1.340 . S
C598 N597 1.321 . S
C598 H622 0.930 . S
H599 C594 0.931 . S
Co600 N597 2.135 . S
Co600 N603 2.121 . S
Co600 O608 2.055 1_565 S
Co600 O611 2.039 . S
Co600 N614 2.140 . S
C601 O602 1.227 . S
C601 O611 1.265 . S
O602 C601 1.227 . S
N603 Co600 2.121 . S
N603 C605 1.375 . S
N603 C606 1.313 1_565 S
C604 C605 1.338 1_545 S
C604 N607 1.377 . S
C604 H624 0.930 . S
C605 N603 1.375 . S
C605 C604 1.338 1_565 S
C605 H609 0.931 . S
C606 N603 1.313 1_545 S
C606 N607 1.344 . S
C606 H610 0.930 . S
N607 C604 1.377 . S
N607 C606 1.344 . S
O608 Co600 2.055 1_545 S
O608 C612 1.253 . S
H609 C605 0.931 . S
H610 C606 0.930 . S
O611 Co600 2.039 . S
O611 C601 1.265 . S
C612 O608 1.253 . S
C612 O613 1.227 1_545 S
O613 C612 1.227 1_565 S
N614 Co600 2.140 . S
N614 C617 1.346 . S
N614 C618 1.345 . S
C615 C616 1.387 . S
C615 C619 1.391 . S
C616 C615 1.387 . S
C616 C617 1.369 . S
C616 H625 0.929 . S
C617 N614 1.346 . S
C617 C616 1.369 . S
C617 H620 0.928 . S
C618 N614 1.345 . S
C618 C619 1.371 . S
C618 H621 0.931 . S
C619 C615 1.391 . S
C619 C618 1.371 . S
C619 H626 0.930 . S
H620 C617 0.928 . S
H621 C618 0.931 . S
H622 C598 0.930 . S
H623 C595 0.930 . S
H624 C604 0.930 . S
H625 C616 0.929 . S
H626 C619 0.930 . S
C627 C628 1.351 . S
C627 N630 1.368 . S
C627 H632 0.931 . S
C628 C627 1.351 . S
C628 N629 1.373 . S
C628 H656 0.930 . S
N629 C628 1.373 . S
N629 C631 1.340 . S
N630 C627 1.368 . S
N630 C631 1.321 . S
N630 Co633 2.135 . S
C631 N629 1.340 . S
C631 N630 1.321 . S
C631 H655 0.930 . S
H632 C627 0.931 . S
Co633 N630 2.135 . S
Co633 N636 2.121 . S
Co633 O641 2.055 . S
Co633 O644 2.039 . S
Co633 N647 2.140 . S
C634 O635 1.227 . S
C634 O644 1.265 . S
O635 C634 1.227 . S
N636 Co633 2.121 . S
N636 C638 1.375 . S
N636 C639 1.313 . S
C637 C638 1.338 . S
C637 N640 1.377 . S
C637 H657 0.930 . S
C638 N636 1.375 . S
C638 C637 1.338 . S
C638 H642 0.931 . S
C639 N636 1.313 . S
C639 N640 1.344 . S
C639 H643 0.930 . S
N640 C637 1.377 . S
N640 C639 1.344 . S
O641 Co633 2.055 . S
O641 C645 1.253 . S
H642 C638 0.931 . S
H643 C639 0.930 . S
O644 Co633 2.039 . S
O644 C634 1.265 . S
C645 O641 1.253 . S
C645 O646 1.227 . S
O646 C645 1.227 . S
N647 Co633 2.140 . S
N647 C650 1.346 . S
N647 C651 1.345 . S
C648 C649 1.387 . S
C648 C652 1.391 . S
C649 C648 1.387 . S
C649 C650 1.369 . S
C649 H658 0.929 . S
C650 N647 1.346 . S
C650 C649 1.369 . S
C650 H653 0.928 . S
C651 N647 1.345 . S
C651 C652 1.371 . S
C651 H654 0.931 . S
C652 C648 1.391 . S
C652 C651 1.371 . S
C652 H659 0.930 . S
H653 C650 0.928 . S
H654 C651 0.931 . S
H655 C631 0.930 . S
H656 C628 0.930 . S
H657 C637 0.930 . S
H658 C649 0.929 . S
H659 C652 0.930 . S
C660 C661 1.351 . S
C660 N663 1.368 . S
C660 H665 0.931 . S
C661 C660 1.351 . S
C661 N662 1.373 . S
C661 H689 0.930 . S
N662 C661 1.373 . S
N662 C664 1.340 . S
N663 C660 1.368 . S
N663 C664 1.321 . S
N663 Co666 2.135 . S
C664 N662 1.340 . S
C664 N663 1.321 . S
C664 H688 0.930 . S
H665 C660 0.931 . S
Co666 N663 2.135 . S
Co666 N669 2.121 . S
Co666 O674 2.055 . S
Co666 O677 2.039 . S
Co666 N680 2.140 . S
C667 O668 1.227 . S
C667 O677 1.265 . S
O668 C667 1.227 . S
N669 Co666 2.121 . S
N669 C671 1.375 . S
N669 C672 1.313 . S
C670 C671 1.338 . S
C670 N673 1.377 . S
C670 H690 0.930 . S
C671 N669 1.375 . S
C671 C670 1.338 . S
C671 H675 0.931 . S
C672 N669 1.313 . S
C672 N673 1.344 . S
C672 H676 0.930 . S
N673 C670 1.377 . S
N673 C672 1.344 . S
O674 Co666 2.055 . S
O674 C678 1.253 . S
H675 C671 0.931 . S
H676 C672 0.930 . S
O677 Co666 2.039 . S
O677 C667 1.265 . S
C678 O674 1.253 . S
C678 O679 1.227 . S
O679 C678 1.227 . S
N680 Co666 2.140 . S
N680 C683 1.346 . S
N680 C684 1.345 . S
C681 C682 1.387 . S
C681 C685 1.391 . S
C682 C681 1.387 . S
C682 C683 1.369 . S
C682 H691 0.929 . S
C683 N680 1.346 . S
C683 C682 1.369 . S
C683 H686 0.928 . S
C684 N680 1.345 . S
C684 C685 1.371 . S
C684 H687 0.931 . S
C685 C681 1.391 . S
C685 C684 1.371 . S
C685 H692 0.930 . S
H686 C683 0.928 . S
H687 C684 0.931 . S
H688 C664 0.930 . S
H689 C661 0.930 . S
H690 C670 0.930 . S
H691 C682 0.929 . S
H692 C685 0.930 . S
C693 C694 1.351 . S
C693 N696 1.368 . S
C693 H698 0.931 . S
C694 C693 1.351 . S
C694 N695 1.373 . S
C694 H722 0.930 . S
N695 C694 1.373 . S
N695 C697 1.340 . S
N696 C693 1.368 . S
N696 C697 1.321 . S
N696 Co699 2.135 . S
C697 N695 1.340 . S
C697 N696 1.321 . S
C697 H721 0.930 . S
H698 C693 0.931 . S
Co699 N696 2.135 . S
Co699 N702 2.121 . S
Co699 O707 2.055 1_545 S
Co699 O710 2.039 . S
Co699 N713 2.140 . S
C700 O701 1.227 . S
C700 O710 1.265 . S
O701 C700 1.227 . S
N702 Co699 2.121 . S
N702 C704 1.375 . S
N702 C705 1.313 1_545 S
C703 C704 1.338 1_565 S
C703 N706 1.377 . S
C703 H723 0.930 . S
C704 N702 1.375 . S
C704 C703 1.338 1_545 S
C704 H708 0.931 . S
C705 N702 1.313 1_565 S
C705 N706 1.344 . S
C705 H709 0.930 . S
N706 C703 1.377 . S
N706 C705 1.344 . S
O707 Co699 2.055 1_565 S
O707 C711 1.253 . S
H708 C704 0.931 . S
H709 C705 0.930 . S
O710 Co699 2.039 . S
O710 C700 1.265 . S
C711 O707 1.253 . S
C711 O712 1.227 1_565 S
O712 C711 1.227 1_545 S
N713 Co699 2.140 . S
N713 C716 1.346 . S
N713 C717 1.345 . S
C714 C715 1.387 . S
C714 C718 1.391 . S
C715 C714 1.387 . S
C715 C716 1.369 . S
C715 H724 0.929 . S
C716 N713 1.346 . S
C716 C715 1.369 . S
C716 H719 0.928 . S
C717 N713 1.345 . S
C717 C718 1.371 . S
C717 H720 0.931 . S
C718 C714 1.391 . S
C718 C717 1.371 . S
C718 H725 0.930 . S
H719 C716 0.928 . S
H720 C717 0.931 . S
H721 C697 0.930 . S
H722 C694 0.930 . S
H723 C703 0.930 . S
H724 C715 0.929 . S
H725 C718 0.930 . S
C726 C727 1.351 . S
C726 N729 1.368 . S
C726 H731 0.931 . S
C727 C726 1.351 . S
C727 N728 1.373 . S
C727 H755 0.930 . S
N728 C727 1.373 . S
N728 C730 1.340 . S
N729 C726 1.368 . S
N729 C730 1.321 . S
N729 Co732 2.135 . S
C730 N728 1.340 . S
C730 N729 1.321 . S
C730 H754 0.930 . S
H731 C726 0.931 . S
Co732 N729 2.135 . S
Co732 N735 2.121 . S
Co732 O740 2.055 1_545 S
Co732 O743 2.039 . S
Co732 N746 2.140 . S
C733 O734 1.227 . S
C733 O743 1.265 . S
O734 C733 1.227 . S
N735 Co732 2.121 . S
N735 C737 1.375 . S
N735 C738 1.313 1_545 S
C736 C737 1.338 1_565 S
C736 N739 1.377 . S
C736 H756 0.930 . S
C737 N735 1.375 . S
C737 C736 1.338 1_545 S
C737 H741 0.931 . S
C738 N735 1.313 1_565 S
C738 N739 1.344 . S
C738 H742 0.930 . S
N739 C736 1.377 . S
N739 C738 1.344 . S
O740 Co732 2.055 1_565 S
O740 C744 1.253 . S
H741 C737 0.931 . S
H742 C738 0.930 . S
O743 Co732 2.039 . S
O743 C733 1.265 . S
C744 O740 1.253 . S
C744 O745 1.227 1_565 S
O745 C744 1.227 1_545 S
N746 Co732 2.140 . S
N746 C749 1.346 . S
N746 C750 1.345 . S
C747 C748 1.387 . S
C747 C751 1.391 . S
C748 C747 1.387 . S
C748 C749 1.369 . S
C748 H757 0.929 . S
C749 N746 1.346 . S
C749 C748 1.369 . S
C749 H752 0.928 . S
C750 N746 1.345 . S
C750 C751 1.371 . S
C750 H753 0.931 . S
C751 C747 1.391 . S
C751 C750 1.371 . S
C751 H758 0.930 . S
H752 C749 0.928 . S
H753 C750 0.931 . S
H754 C730 0.930 . S
H755 C727 0.930 . S
H756 C736 0.930 . S
H757 C748 0.929 . S
H758 C751 0.930 . S
C759 C760 1.351 . S
C759 N762 1.368 . S
C759 H764 0.931 . S
C760 C759 1.351 . S
C760 N761 1.373 . S
C760 H788 0.930 . S
N761 C760 1.373 . S
N761 C763 1.340 . S
N762 C759 1.368 . S
N762 C763 1.321 . S
N762 Co765 2.135 . S
C763 N761 1.340 . S
C763 N762 1.321 . S
C763 H787 0.930 . S
H764 C759 0.931 . S
Co765 N762 2.135 . S
Co765 N768 2.121 . S
Co765 O773 2.055 . S
Co765 O776 2.039 . S
Co765 N779 2.140 . S
C766 O767 1.227 . S
C766 O776 1.265 . S
O767 C766 1.227 . S
N768 Co765 2.121 . S
N768 C770 1.375 . S
N768 C771 1.313 . S
C769 C770 1.338 . S
C769 N772 1.377 . S
C769 H789 0.930 . S
C770 N768 1.375 . S
C770 C769 1.338 . S
C770 H774 0.931 . S
C771 N768 1.313 . S
C771 N772 1.344 . S
C771 H775 0.930 . S
N772 C769 1.377 . S
N772 C771 1.344 . S
O773 Co765 2.055 . S
O773 C777 1.253 . S
H774 C770 0.931 . S
H775 C771 0.930 . S
O776 Co765 2.039 . S
O776 C766 1.265 . S
C777 O773 1.253 . S
C777 O778 1.227 . S
O778 C777 1.227 . S
N779 Co765 2.140 . S
N779 C782 1.346 . S
N779 C783 1.345 . S
C780 C781 1.387 . S
C780 C784 1.391 . S
C781 C780 1.387 . S
C781 C782 1.369 . S
C781 H790 0.929 . S
C782 N779 1.346 . S
C782 C781 1.369 . S
C782 H785 0.928 . S
C783 N779 1.345 . S
C783 C784 1.371 . S
C783 H786 0.931 . S
C784 C780 1.391 . S
C784 C783 1.371 . S
C784 H791 0.930 . S
H785 C782 0.928 . S
H786 C783 0.931 . S
H787 C763 0.930 . S
H788 C760 0.930 . S
H789 C769 0.930 . S
H790 C781 0.929 . S
H791 C784 0.930 . S
C792 C793 1.351 . S
C792 N795 1.368 . S
C792 H797 0.931 . S
C793 C792 1.351 . S
C793 N794 1.373 . S
C793 H821 0.930 . S
N794 C793 1.373 . S
N794 C796 1.340 . S
N795 C792 1.368 . S
N795 C796 1.321 . S
N795 Co798 2.135 . S
C796 N794 1.340 . S
C796 N795 1.321 . S
C796 H820 0.930 . S
H797 C792 0.931 . S
Co798 N795 2.135 . S
Co798 N801 2.121 . S
Co798 O806 2.055 . S
Co798 O809 2.039 . S
Co798 N812 2.140 . S
C799 O800 1.227 . S
C799 O809 1.265 . S
O800 C799 1.227 . S
N801 Co798 2.121 . S
N801 C803 1.375 . S
N801 C804 1.313 . S
C802 C803 1.338 . S
C802 N805 1.377 . S
C802 H822 0.930 . S
C803 N801 1.375 . S
C803 C802 1.338 . S
C803 H807 0.931 . S
C804 N801 1.313 . S
C804 N805 1.344 . S
C804 H808 0.930 . S
N805 C802 1.377 . S
N805 C804 1.344 . S
O806 Co798 2.055 . S
O806 C810 1.253 . S
H807 C803 0.931 . S
H808 C804 0.930 . S
O809 Co798 2.039 . S
O809 C799 1.265 . S
C810 O806 1.253 . S
C810 O811 1.227 . S
O811 C810 1.227 . S
N812 Co798 2.140 . S
N812 C815 1.346 . S
N812 C816 1.345 . S
C813 C814 1.387 . S
C813 C817 1.391 . S
C814 C813 1.387 . S
C814 C815 1.369 . S
C814 H823 0.929 . S
C815 N812 1.346 . S
C815 C814 1.369 . S
C815 H818 0.928 . S
C816 N812 1.345 . S
C816 C817 1.371 . S
C816 H819 0.931 . S
C817 C813 1.391 . S
C817 C816 1.371 . S
C817 H824 0.930 . S
H818 C815 0.928 . S
H819 C816 0.931 . S
H820 C796 0.930 . S
H821 C793 0.930 . S
H822 C802 0.930 . S
H823 C814 0.929 . S
H824 C817 0.930 . S
C825 C826 1.351 . S
C825 N828 1.368 . S
C825 H830 0.931 . S
C826 C825 1.351 . S
C826 N827 1.373 . S
C826 H854 0.930 . S
N827 C826 1.373 . S
N827 C829 1.340 . S
N828 C825 1.368 . S
N828 C829 1.321 . S
N828 Co831 2.135 . S
C829 N827 1.340 . S
C829 N828 1.321 . S
C829 H853 0.930 . S
H830 C825 0.931 . S
Co831 N828 2.135 . S
Co831 N834 2.121 . S
Co831 O839 2.055 . S
Co831 O842 2.039 . S
Co831 N845 2.140 . S
C832 O833 1.227 . S
C832 O842 1.265 . S
O833 C832 1.227 . S
N834 Co831 2.121 . S
N834 C836 1.375 . S
N834 C837 1.313 . S
C835 C836 1.338 . S
C835 N838 1.377 . S
C835 H855 0.930 . S
C836 N834 1.375 . S
C836 C835 1.338 . S
C836 H840 0.931 . S
C837 N834 1.313 . S
C837 N838 1.344 . S
C837 H841 0.930 . S
N838 C835 1.377 . S
N838 C837 1.344 . S
O839 Co831 2.055 . S
O839 C843 1.253 . S
H840 C836 0.931 . S
H841 C837 0.930 . S
O842 Co831 2.039 . S
O842 C832 1.265 . S
C843 O839 1.253 . S
C843 O844 1.227 . S
O844 C843 1.227 . S
N845 Co831 2.140 . S
N845 C848 1.346 . S
N845 C849 1.345 . S
C846 C847 1.387 . S
C846 C850 1.391 . S
C847 C846 1.387 . S
C847 C848 1.369 . S
C847 H856 0.929 . S
C848 N845 1.346 . S
C848 C847 1.369 . S
C848 H851 0.928 . S
C849 N845 1.345 . S
C849 C850 1.371 . S
C849 H852 0.931 . S
C850 C846 1.391 . S
C850 C849 1.371 . S
C850 H857 0.930 . S
H851 C848 0.928 . S
H852 C849 0.931 . S
H853 C829 0.930 . S
H854 C826 0.930 . S
H855 C835 0.930 . S
H856 C847 0.929 . S
H857 C850 0.930 . S
C858 C859 1.351 . S
C858 N861 1.368 . S
C858 H863 0.931 . S
C859 C858 1.351 . S
C859 N860 1.373 . S
C859 H887 0.930 . S
N860 C859 1.373 . S
N860 C862 1.340 . S
N861 C858 1.368 . S
N861 C862 1.321 . S
N861 Co864 2.135 1_556 S
C862 N860 1.340 . S
C862 N861 1.321 . S
C862 H886 0.930 . S
H863 C858 0.931 . S
Co864 N861 2.135 1_554 S
Co864 N867 2.121 . S
Co864 O872 2.055 1_554 S
Co864 O875 2.039 . S
Co864 N878 2.140 . S
C865 O866 1.227 . S
C865 O875 1.265 . S
O866 C865 1.227 . S
N867 Co864 2.121 . S
N867 C869 1.375 . S
N867 C870 1.313 . S
C868 C869 1.338 . S
C868 N871 1.377 . S
C868 H888 0.930 . S
C869 N867 1.375 . S
C869 C868 1.338 . S
C869 H873 0.931 . S
C870 N867 1.313 . S
C870 N871 1.344 . S
C870 H874 0.930 . S
N871 C868 1.377 . S
N871 C870 1.344 . S
O872 Co864 2.055 1_556 S
O872 C876 1.253 . S
H873 C869 0.931 . S
H874 C870 0.930 . S
O875 Co864 2.039 . S
O875 C865 1.265 . S
C876 O872 1.253 . S
C876 O877 1.227 1_556 S
O877 C876 1.227 1_554 S
N878 Co864 2.140 . S
N878 C881 1.346 . S
N878 C882 1.345 . S
C879 C880 1.387 . S
C879 C883 1.391 . S
C880 C879 1.387 . S
C880 C881 1.369 . S
C880 H889 0.929 . S
C881 N878 1.346 . S
C881 C880 1.369 . S
C881 H884 0.928 . S
C882 N878 1.345 . S
C882 C883 1.371 . S
C882 H885 0.931 . S
C883 C879 1.391 . S
C883 C882 1.371 . S
C883 H890 0.930 . S
H884 C881 0.928 . S
H885 C882 0.931 . S
H886 C862 0.930 . S
H887 C859 0.930 . S
H888 C868 0.930 . S
H889 C880 0.929 . S
H890 C883 0.930 . S
C891 C892 1.351 . S
C891 N894 1.368 . S
C891 H896 0.931 . S
C892 C891 1.351 . S
C892 N893 1.373 . S
C892 H920 0.930 . S
N893 C892 1.373 . S
N893 C895 1.340 . S
N894 C891 1.368 . S
N894 C895 1.321 . S
N894 Co897 2.135 1_556 S
C895 N893 1.340 . S
C895 N894 1.321 . S
C895 H919 0.930 . S
H896 C891 0.931 . S
Co897 N894 2.135 1_554 S
Co897 N900 2.121 . S
Co897 O905 2.055 1_554 S
Co897 O908 2.039 . S
Co897 N911 2.140 . S
C898 O899 1.227 . S
C898 O908 1.265 . S
O899 C898 1.227 . S
N900 Co897 2.121 . S
N900 C902 1.375 . S
N900 C903 1.313 . S
C901 C902 1.338 . S
C901 N904 1.377 . S
C901 H921 0.930 . S
C902 N900 1.375 . S
C902 C901 1.338 . S
C902 H906 0.931 . S
C903 N900 1.313 . S
C903 N904 1.344 . S
C903 H907 0.930 . S
N904 C901 1.377 . S
N904 C903 1.344 . S
O905 Co897 2.055 1_556 S
O905 C909 1.253 . S
H906 C902 0.931 . S
H907 C903 0.930 . S
O908 Co897 2.039 . S
O908 C898 1.265 . S
C909 O905 1.253 . S
C909 O910 1.227 1_556 S
O910 C909 1.227 1_554 S
N911 Co897 2.140 . S
N911 C914 1.346 . S
N911 C915 1.345 . S
C912 C913 1.387 . S
C912 C916 1.391 . S
C913 C912 1.387 . S
C913 C914 1.369 . S
C913 H922 0.929 . S
C914 N911 1.346 . S
C914 C913 1.369 . S
C914 H917 0.928 . S
C915 N911 1.345 . S
C915 C916 1.371 . S
C915 H918 0.931 . S
C916 C912 1.391 . S
C916 C915 1.371 . S
C916 H923 0.930 . S
H917 C914 0.928 . S
H918 C915 0.931 . S
H919 C895 0.930 . S
H920 C892 0.930 . S
H921 C901 0.930 . S
H922 C913 0.929 . S
H923 C916 0.930 . S
C924 C925 1.351 . S
C924 N927 1.368 . S
C924 H929 0.931 . S
C925 C924 1.351 . S
C925 N926 1.373 . S
C925 H953 0.930 . S
N926 C925 1.373 . S
N926 C928 1.340 . S
N927 C924 1.368 . S
N927 C928 1.321 . S
N927 Co930 2.135 . S
C928 N926 1.340 . S
C928 N927 1.321 . S
C928 H952 0.930 . S
H929 C924 0.931 . S
Co930 N927 2.135 . S
Co930 N933 2.121 . S
Co930 O938 2.055 . S
Co930 O941 2.039 . S
Co930 N944 2.140 . S
C931 O932 1.227 . S
C931 O941 1.265 . S
O932 C931 1.227 . S
N933 Co930 2.121 . S
N933 C935 1.375 . S
N933 C936 1.313 . S
C934 C935 1.338 . S
C934 N937 1.377 . S
C934 H954 0.930 . S
C935 N933 1.375 . S
C935 C934 1.338 . S
C935 H939 0.931 . S
C936 N933 1.313 . S
C936 N937 1.344 . S
C936 H940 0.930 . S
N937 C934 1.377 . S
N937 C936 1.344 . S
O938 Co930 2.055 . S
O938 C942 1.253 . S
H939 C935 0.931 . S
H940 C936 0.930 . S
O941 Co930 2.039 . S
O941 C931 1.265 . S
C942 O938 1.253 . S
C942 O943 1.227 . S
O943 C942 1.227 . S
N944 Co930 2.140 . S
N944 C947 1.346 . S
N944 C948 1.345 . S
C945 C946 1.387 . S
C945 C949 1.391 . S
C946 C945 1.387 . S
C946 C947 1.369 . S
C946 H955 0.929 . S
C947 N944 1.346 . S
C947 C946 1.369 . S
C947 H950 0.928 . S
C948 N944 1.345 . S
C948 C949 1.371 . S
C948 H951 0.931 . S
C949 C945 1.391 . S
C949 C948 1.371 . S
C949 H956 0.930 . S
H950 C947 0.928 . S
H951 C948 0.931 . S
H952 C928 0.930 . S
H953 C925 0.930 . S
H954 C934 0.930 . S
H955 C946 0.929 . S
H956 C949 0.930 . S
C957 C958 1.351 . S
C957 N960 1.368 . S
C957 H962 0.931 . S
C958 C957 1.351 . S
C958 N959 1.373 . S
C958 H986 0.930 . S
N959 C958 1.373 . S
N959 C961 1.340 . S
N960 C957 1.368 . S
N960 C961 1.321 . S
N960 Co963 2.135 . S
C961 N959 1.340 . S
C961 N960 1.321 . S
C961 H985 0.930 . S
H962 C957 0.931 . S
Co963 N960 2.135 . S
Co963 N966 2.121 . S
Co963 O971 2.055 . S
Co963 O974 2.039 . S
Co963 N977 2.140 . S
C964 O965 1.227 . S
C964 O974 1.265 . S
O965 C964 1.227 . S
N966 Co963 2.121 . S
N966 C968 1.375 . S
N966 C969 1.313 . S
C967 C968 1.338 . S
C967 N970 1.377 . S
C967 H987 0.930 . S
C968 N966 1.375 . S
C968 C967 1.338 . S
C968 H972 0.931 . S
C969 N966 1.313 . S
C969 N970 1.344 . S
C969 H973 0.930 . S
N970 C967 1.377 . S
N970 C969 1.344 . S
O971 Co963 2.055 . S
O971 C975 1.253 . S
H972 C968 0.931 . S
H973 C969 0.930 . S
O974 Co963 2.039 . S
O974 C964 1.265 . S
C975 O971 1.253 . S
C975 O976 1.227 . S
O976 C975 1.227 . S
N977 Co963 2.140 . S
N977 C980 1.346 . S
N977 C981 1.345 . S
C978 C979 1.387 . S
C978 C982 1.391 . S
C979 C978 1.387 . S
C979 C980 1.369 . S
C979 H988 0.929 . S
C980 N977 1.346 . S
C980 C979 1.369 . S
C980 H983 0.928 . S
C981 N977 1.345 . S
C981 C982 1.371 . S
C981 H984 0.931 . S
C982 C978 1.391 . S
C982 C981 1.371 . S
C982 H989 0.930 . S
H983 C980 0.928 . S
H984 C981 0.931 . S
H985 C961 0.930 . S
H986 C958 0.930 . S
H987 C967 0.930 . S
H988 C979 0.929 . S
H989 C982 0.930 . S
C990 C991 1.351 . S
C990 N993 1.368 . S
C990 H995 0.931 . S
C991 C990 1.351 . S
C991 N992 1.373 . S
C991 H1019 0.930 . S
N992 C991 1.373 . S
N992 C994 1.340 . S
N993 C990 1.368 . S
N993 C994 1.321 . S
N993 Co996 2.135 1_554 S
C994 N992 1.340 . S
C994 N993 1.321 . S
C994 H1018 0.930 . S
H995 C990 0.931 . S
Co996 N993 2.135 1_556 S
Co996 N999 2.121 . S
Co996 O1004 2.055 1_556 S
Co996 O1007 2.039 . S
Co996 N1010 2.140 . S
C997 O998 1.227 . S
C997 O1007 1.265 . S
O998 C997 1.227 . S
N999 Co996 2.121 . S
N999 C1001 1.375 . S
N999 C1002 1.313 . S
C1000 C1001 1.338 . S
C1000 N1003 1.377 . S
C1000 H1020 0.930 . S
C1001 N999 1.375 . S
C1001 C1000 1.338 . S
C1001 H1005 0.931 . S
C1002 N999 1.313 . S
C1002 N1003 1.344 . S
C1002 H1006 0.930 . S
N1003 C1000 1.377 . S
N1003 C1002 1.344 . S
O1004 Co996 2.055 1_554 S
O1004 C1008 1.253 . S
H1005 C1001 0.931 . S
H1006 C1002 0.930 . S
O1007 Co996 2.039 . S
O1007 C997 1.265 . S
C1008 O1004 1.253 . S
C1008 O1009 1.227 1_554 S
O1009 C1008 1.227 1_556 S
N1010 Co996 2.140 . S
N1010 C1013 1.346 . S
N1010 C1014 1.345 . S
C1011 C1012 1.387 . S
C1011 C1015 1.391 . S
C1012 C1011 1.387 . S
C1012 C1013 1.369 . S
C1012 H1021 0.929 . S
C1013 N1010 1.346 . S
C1013 C1012 1.369 . S
C1013 H1016 0.928 . S
C1014 N1010 1.345 . S
C1014 C1015 1.371 . S
C1014 H1017 0.931 . S
C1015 C1011 1.391 . S
C1015 C1014 1.371 . S
C1015 H1022 0.930 . S
H1016 C1013 0.928 . S
H1017 C1014 0.931 . S
H1018 C994 0.930 . S
H1019 C991 0.930 . S
H1020 C1000 0.930 . S
H1021 C1012 0.929 . S
H1022 C1015 0.930 . S
C1023 C1024 1.351 . S
C1023 N1026 1.368 . S
C1023 H1028 0.931 . S
C1024 C1023 1.351 . S
C1024 N1025 1.373 . S
C1024 H1052 0.930 . S
N1025 C1024 1.373 . S
N1025 C1027 1.340 . S
N1026 C1023 1.368 . S
N1026 C1027 1.321 . S
N1026 Co1029 2.135 1_554 S
C1027 N1025 1.340 . S
C1027 N1026 1.321 . S
C1027 H1051 0.930 . S
H1028 C1023 0.931 . S
Co1029 N1026 2.135 1_556 S
Co1029 N1032 2.121 . S
Co1029 O1037 2.055 1_556 S
Co1029 O1040 2.039 . S
Co1029 N1043 2.140 . S
C1030 O1031 1.227 . S
C1030 O1040 1.265 . S
O1031 C1030 1.227 . S
N1032 Co1029 2.121 . S
N1032 C1034 1.375 . S
N1032 C1035 1.313 . S
C1033 C1034 1.338 . S
C1033 N1036 1.377 . S
C1033 H1053 0.930 . S
C1034 N1032 1.375 . S
C1034 C1033 1.338 . S
C1034 H1038 0.931 . S
C1035 N1032 1.313 . S
C1035 N1036 1.344 . S
C1035 H1039 0.930 . S
N1036 C1033 1.377 . S
N1036 C1035 1.344 . S
O1037 Co1029 2.055 1_554 S
O1037 C1041 1.253 . S
H1038 C1034 0.931 . S
H1039 C1035 0.930 . S
O1040 Co1029 2.039 . S
O1040 C1030 1.265 . S
C1041 O1037 1.253 . S
C1041 O1042 1.227 1_554 S
O1042 C1041 1.227 1_556 S
N1043 Co1029 2.140 . S
N1043 C1046 1.346 . S
N1043 C1047 1.345 . S
C1044 C1045 1.387 . S
C1044 C1048 1.391 . S
C1045 C1044 1.387 . S
C1045 C1046 1.369 . S
C1045 H1054 0.929 . S
C1046 N1043 1.346 . S
C1046 C1045 1.369 . S
C1046 H1049 0.928 . S
C1047 N1043 1.345 . S
C1047 C1048 1.371 . S
C1047 H1050 0.931 . S
C1048 C1044 1.391 . S
C1048 C1047 1.371 . S
C1048 H1055 0.930 . S
H1049 C1046 0.928 . S
H1050 C1047 0.931 . S
H1051 C1027 0.930 . S
H1052 C1024 0.930 . S
H1053 C1033 0.930 . S
H1054 C1045 0.929 . S
H1055 C1048 0.930 . S
H1056 C1062 0.930 . S
H1057 C1066 0.930 . S
H1058 C1071 0.929 . S
H1059 C1069 0.929 . S
H1060 C1064 0.929 . S
H1061 C1070 0.929 . S
C1062 H1056 0.930 . S
C1062 C1063 1.367 . S
C1062 C1070 1.378 . S
C1063 C1062 1.367 . S
C1063 C1071 1.433 . S
C1064 H1060 0.929 . S
C1064 C1066 1.378 . S
C1064 C1068 1.350 . S
C1065 C1068 1.463 . S
C1065 C1070 1.350 . S
C1065 N1073 1.427 . S
C1066 H1057 0.930 . S
C1066 C1064 1.378 . S
C1066 C1067 1.367 . S
C1067 C1066 1.367 . S
C1067 C1069 1.433 . S
C1068 C1064 1.350 . S
C1068 C1065 1.463 . S
C1068 N1072 1.427 . S
C1069 H1059 0.929 . S
C1069 C1067 1.433 . S
C1069 N1072 1.384 . S
C1070 H1061 0.929 . S
C1070 C1062 1.378 . S
C1070 C1065 1.350 . S
C1071 H1058 0.929 . S
C1071 C1063 1.433 . S
C1071 N1073 1.384 . S
N1072 C1068 1.427 . S
N1072 C1069 1.384 . S
N1073 C1065 1.427 . S
N1073 C1071 1.384 . S
H1074 C1080 0.930 . S
H1075 C1084 0.930 . S
H1076 C1089 0.929 . S
H1077 C1087 0.929 . S
H1078 C1082 0.929 . S
H1079 C1088 0.929 . S
C1080 H1074 0.930 . S
C1080 C1081 1.367 . S
C1080 C1088 1.378 . S
C1081 C1080 1.367 . S
C1081 C1089 1.433 . S
C1082 H1078 0.929 . S
C1082 C1084 1.378 . S
C1082 C1086 1.350 . S
C1083 C1086 1.463 . S
C1083 C1088 1.350 . S
C1083 N1091 1.427 . S
C1084 H1075 0.930 . S
C1084 C1082 1.378 . S
C1084 C1085 1.367 . S
C1085 C1084 1.367 . S
C1085 C1087 1.433 . S
C1086 C1082 1.350 . S
C1086 C1083 1.463 . S
C1086 N1090 1.427 . S
C1087 H1077 0.929 . S
C1087 C1085 1.433 . S
C1087 N1090 1.384 . S
C1088 H1079 0.929 . S
C1088 C1080 1.378 . S
C1088 C1083 1.350 . S
C1089 H1076 0.929 . S
C1089 C1081 1.433 . S
C1089 N1091 1.384 . S
N1090 C1086 1.427 . S
N1090 C1087 1.384 . S
N1091 C1083 1.427 . S
N1091 C1089 1.384 . S
H1092 C1098 0.930 . S
H1093 C1102 0.930 . S
H1094 C1107 0.929 . S
H1095 C1105 0.929 . S
H1096 C1100 0.929 . S
H1097 C1106 0.929 . S
C1098 H1092 0.930 . S
C1098 C1099 1.367 . S
C1098 C1106 1.378 . S
C1099 C1098 1.367 . S
C1099 C1107 1.433 . S
C1100 H1096 0.929 . S
C1100 C1102 1.378 . S
C1100 C1104 1.350 . S
C1101 C1104 1.463 . S
C1101 C1106 1.350 . S
C1101 N1109 1.427 . S
C1102 H1093 0.930 . S
C1102 C1100 1.378 . S
C1102 C1103 1.367 . S
C1103 C1102 1.367 . S
C1103 C1105 1.433 . S
C1104 C1100 1.350 . S
C1104 C1101 1.463 . S
C1104 N1108 1.427 . S
C1105 H1095 0.929 . S
C1105 C1103 1.433 . S
C1105 N1108 1.384 . S
C1106 H1097 0.929 . S
C1106 C1098 1.378 . S
C1106 C1101 1.350 . S
C1107 H1094 0.929 . S
C1107 C1099 1.433 . S
C1107 N1109 1.384 . S
N1108 C1104 1.427 . S
N1108 C1105 1.384 . S
N1109 C1101 1.427 . S
N1109 C1107 1.384 . S
H1110 C1116 0.930 . S
H1111 C1120 0.930 . S
H1112 C1125 0.929 . S
H1113 C1123 0.929 . S
H1114 C1118 0.929 . S
H1115 C1124 0.929 . S
C1116 H1110 0.930 . S
C1116 C1117 1.367 . S
C1116 C1124 1.378 . S
C1117 C1116 1.367 . S
C1117 C1125 1.433 . S
C1118 H1114 0.929 . S
C1118 C1120 1.378 . S
C1118 C1122 1.350 . S
C1119 C1122 1.463 . S
C1119 C1124 1.350 . S
C1119 N1127 1.427 . S
C1120 H1111 0.930 . S
C1120 C1118 1.378 . S
C1120 C1121 1.367 . S
C1121 C1120 1.367 . S
C1121 C1123 1.433 . S
C1122 C1118 1.350 . S
C1122 C1119 1.463 . S
C1122 N1126 1.427 . S
C1123 H1113 0.929 . S
C1123 C1121 1.433 . S
C1123 N1126 1.384 . S
C1124 H1115 0.929 . S
C1124 C1116 1.378 . S
C1124 C1119 1.350 . S
C1125 H1112 0.929 . S
C1125 C1117 1.433 . S
C1125 N1127 1.384 . S
N1126 C1122 1.427 . S
N1126 C1123 1.384 . S
N1127 C1119 1.427 . S
N1127 C1125 1.384 . S
H1128 C1134 0.930 . S
H1129 C1138 0.930 . S
H1130 C1143 0.929 . S
H1131 C1141 0.929 . S
H1132 C1136 0.929 . S
H1133 C1142 0.929 . S
C1134 H1128 0.930 . S
C1134 C1135 1.367 . S
C1134 C1142 1.378 . S
C1135 C1134 1.367 . S
C1135 C1143 1.433 . S
C1136 H1132 0.929 . S
C1136 C1138 1.378 . S
C1136 C1140 1.350 . S
C1137 C1140 1.463 . S
C1137 C1142 1.350 . S
C1137 N1145 1.427 . S
C1138 H1129 0.930 . S
C1138 C1136 1.378 . S
C1138 C1139 1.367 . S
C1139 C1138 1.367 . S
C1139 C1141 1.433 . S
C1140 C1136 1.350 . S
C1140 C1137 1.463 . S
C1140 N1144 1.427 . S
C1141 H1131 0.929 . S
C1141 C1139 1.433 . S
C1141 N1144 1.384 . S
C1142 H1133 0.929 . S
C1142 C1134 1.378 . S
C1142 C1137 1.350 . S
C1143 H1130 0.929 . S
C1143 C1135 1.433 . S
C1143 N1145 1.384 . S
N1144 C1140 1.427 . S
N1144 C1141 1.384 . S
N1145 C1137 1.427 . S
N1145 C1143 1.384 . S
H1146 C1152 0.930 . S
H1147 C1156 0.930 . S
H1148 C1161 0.929 . S
H1149 C1159 0.929 . S
H1150 C1154 0.929 . S
H1151 C1160 0.929 . S
C1152 H1146 0.930 . S
C1152 C1153 1.367 . S
C1152 C1160 1.378 . S
C1153 C1152 1.367 . S
C1153 C1161 1.433 . S
C1154 H1150 0.929 . S
C1154 C1156 1.378 . S
C1154 C1158 1.350 . S
C1155 C1158 1.463 . S
C1155 C1160 1.350 . S
C1155 N1163 1.427 . S
C1156 H1147 0.930 . S
C1156 C1154 1.378 . S
C1156 C1157 1.367 . S
C1157 C1156 1.367 . S
C1157 C1159 1.433 . S
C1158 C1154 1.350 . S
C1158 C1155 1.463 . S
C1158 N1162 1.427 . S
C1159 H1149 0.929 . S
C1159 C1157 1.433 . S
C1159 N1162 1.384 . S
C1160 H1151 0.929 . S
C1160 C1152 1.378 . S
C1160 C1155 1.350 . S
C1161 H1148 0.929 . S
C1161 C1153 1.433 . S
C1161 N1163 1.384 . S
N1162 C1158 1.427 . S
N1162 C1159 1.384 . S
N1163 C1155 1.427 . S
N1163 C1161 1.384 . S
H1164 C1170 0.930 . S
H1165 C1174 0.930 . S
H1166 C1179 0.929 . S
H1167 C1177 0.929 . S
H1168 C1172 0.929 . S
H1169 C1178 0.929 . S
C1170 H1164 0.930 . S
C1170 C1171 1.367 . S
C1170 C1178 1.378 . S
C1171 C1170 1.367 . S
C1171 C1179 1.433 . S
C1172 H1168 0.929 . S
C1172 C1174 1.378 . S
C1172 C1176 1.350 . S
C1173 C1176 1.463 . S
C1173 C1178 1.350 . S
C1173 N1181 1.427 . S
C1174 H1165 0.930 . S
C1174 C1172 1.378 . S
C1174 C1175 1.367 . S
C1175 C1174 1.367 . S
C1175 C1177 1.433 . S
C1176 C1172 1.350 . S
C1176 C1173 1.463 . S
C1176 N1180 1.427 . S
C1177 H1167 0.929 . S
C1177 C1175 1.433 . S
C1177 N1180 1.384 . S
C1178 H1169 0.929 . S
C1178 C1170 1.378 . S
C1178 C1173 1.350 . S
C1179 H1166 0.929 . S
C1179 C1171 1.433 . S
C1179 N1181 1.384 . S
N1180 C1176 1.427 . S
N1180 C1177 1.384 . S
N1181 C1173 1.427 . S
N1181 C1179 1.384 . S
H1182 C1188 0.930 . S
H1183 C1192 0.930 . S
H1184 C1197 0.929 . S
H1185 C1195 0.929 . S
H1186 C1190 0.929 . S
H1187 C1196 0.929 . S
C1188 H1182 0.930 . S
C1188 C1189 1.367 . S
C1188 C1196 1.378 . S
C1189 C1188 1.367 . S
C1189 C1197 1.433 . S
C1190 H1186 0.929 . S
C1190 C1192 1.378 . S
C1190 C1194 1.350 . S
C1191 C1194 1.463 . S
C1191 C1196 1.350 . S
C1191 N1199 1.427 . S
C1192 H1183 0.930 . S
C1192 C1190 1.378 . S
C1192 C1193 1.367 . S
C1193 C1192 1.367 . S
C1193 C1195 1.433 . S
C1194 C1190 1.350 . S
C1194 C1191 1.463 . S
C1194 N1198 1.427 . S
C1195 H1185 0.929 . S
C1195 C1193 1.433 . S
C1195 N1198 1.384 . S
C1196 H1187 0.929 . S
C1196 C1188 1.378 . S
C1196 C1191 1.350 . S
C1197 H1184 0.929 . S
C1197 C1189 1.433 . S
C1197 N1199 1.384 . S
N1198 C1194 1.427 . S
N1198 C1195 1.384 . S
N1199 C1191 1.427 . S
N1199 C1197 1.384 . S
H1200 C1206 0.930 . S
H1201 C1210 0.930 . S
H1202 C1215 0.929 . S
H1203 C1213 0.929 . S
H1204 C1208 0.929 . S
H1205 C1214 0.929 . S
C1206 H1200 0.930 . S
C1206 C1207 1.367 . S
C1206 C1214 1.378 . S
C1207 C1206 1.367 . S
C1207 C1215 1.433 . S
C1208 H1204 0.929 . S
C1208 C1210 1.378 . S
C1208 C1212 1.350 . S
C1209 C1212 1.463 . S
C1209 C1214 1.350 . S
C1209 N1217 1.427 . S
C1210 H1201 0.930 . S
C1210 C1208 1.378 . S
C1210 C1211 1.367 . S
C1211 C1210 1.367 . S
C1211 C1213 1.433 . S
C1212 C1208 1.350 . S
C1212 C1209 1.463 . S
C1212 N1216 1.427 . S
C1213 H1203 0.929 . S
C1213 C1211 1.433 . S
C1213 N1216 1.384 . S
C1214 H1205 0.929 . S
C1214 C1206 1.378 . S
C1214 C1209 1.350 . S
C1215 H1202 0.929 . S
C1215 C1207 1.433 . S
C1215 N1217 1.384 . S
N1216 C1212 1.427 . S
N1216 C1213 1.384 . S
N1217 C1209 1.427 . S
N1217 C1215 1.384 . S
H1218 C1224 0.930 . S
H1219 C1228 0.930 . S
H1220 C1233 0.929 . S
H1221 C1231 0.929 . S
H1222 C1226 0.929 . S
H1223 C1232 0.929 . S
C1224 H1218 0.930 . S
C1224 C1225 1.367 . S
C1224 C1232 1.378 . S
C1225 C1224 1.367 . S
C1225 C1233 1.433 . S
C1226 H1222 0.929 . S
C1226 C1228 1.378 . S
C1226 C1230 1.350 . S
C1227 C1230 1.463 . S
C1227 C1232 1.350 . S
C1227 N1235 1.427 . S
C1228 H1219 0.930 . S
C1228 C1226 1.378 . S
C1228 C1229 1.367 . S
C1229 C1228 1.367 . S
C1229 C1231 1.433 . S
C1230 C1226 1.350 . S
C1230 C1227 1.463 . S
C1230 N1234 1.427 . S
C1231 H1221 0.929 . S
C1231 C1229 1.433 . S
C1231 N1234 1.384 . S
C1232 H1223 0.929 . S
C1232 C1224 1.378 . S
C1232 C1227 1.350 . S
C1233 H1220 0.929 . S
C1233 C1225 1.433 . S
C1233 N1235 1.384 . S
N1234 C1230 1.427 . S
N1234 C1231 1.384 . S
N1235 C1227 1.427 . S
N1235 C1233 1.384 . S
H1236 C1242 0.930 . S
H1237 C1246 0.930 . S
H1238 C1251 0.929 . S
H1239 C1249 0.929 . S
H1240 C1244 0.929 . S
H1241 C1250 0.929 . S
C1242 H1236 0.930 . S
C1242 C1243 1.367 . S
C1242 C1250 1.378 . S
C1243 C1242 1.367 . S
C1243 C1251 1.433 . S
C1244 H1240 0.929 . S
C1244 C1246 1.378 . S
C1244 C1248 1.350 . S
C1245 C1248 1.463 . S
C1245 C1250 1.350 . S
C1245 N1253 1.427 . S
C1246 H1237 0.930 . S
C1246 C1244 1.378 . S
C1246 C1247 1.367 . S
C1247 C1246 1.367 . S
C1247 C1249 1.433 . S
C1248 C1244 1.350 . S
C1248 C1245 1.463 . S
C1248 N1252 1.427 . S
C1249 H1239 0.929 . S
C1249 C1247 1.433 . S
C1249 N1252 1.384 . S
C1250 H1241 0.929 . S
C1250 C1242 1.378 . S
C1250 C1245 1.350 . S
C1251 H1238 0.929 . S
C1251 C1243 1.433 . S
C1251 N1253 1.384 . S
N1252 C1248 1.427 . S
N1252 C1249 1.384 . S
N1253 C1245 1.427 . S
N1253 C1251 1.384 . S
H1254 C1260 0.930 . S
H1255 C1264 0.930 . S
H1256 C1269 0.929 . S
H1257 C1267 0.929 . S
H1258 C1262 0.929 . S
H1259 C1268 0.929 . S
C1260 H1254 0.930 . S
C1260 C1261 1.367 . S
C1260 C1268 1.378 . S
C1261 C1260 1.367 . S
C1261 C1269 1.433 . S
C1262 H1258 0.929 . S
C1262 C1264 1.378 . S
C1262 C1266 1.350 . S
C1263 C1266 1.463 . S
C1263 C1268 1.350 . S
C1263 N1271 1.427 . S
C1264 H1255 0.930 . S
C1264 C1262 1.378 . S
C1264 C1265 1.367 . S
C1265 C1264 1.367 . S
C1265 C1267 1.433 . S
C1266 C1262 1.350 . S
C1266 C1263 1.463 . S
C1266 N1270 1.427 . S
C1267 H1257 0.929 . S
C1267 C1265 1.433 . S
C1267 N1270 1.384 . S
C1268 H1259 0.929 . S
C1268 C1260 1.378 . S
C1268 C1263 1.350 . S
C1269 H1256 0.929 . S
C1269 C1261 1.433 . S
C1269 N1271 1.384 . S
N1270 C1266 1.427 . S
N1270 C1267 1.384 . S
N1271 C1263 1.427 . S
N1271 C1269 1.384 . S
H1272 C1278 0.930 . S
H1273 C1282 0.930 . S
H1274 C1287 0.929 . S
H1275 C1285 0.929 . S
H1276 C1280 0.929 . S
H1277 C1286 0.929 . S
C1278 H1272 0.930 . S
C1278 C1279 1.367 . S
C1278 C1286 1.378 . S
C1279 C1278 1.367 . S
C1279 C1287 1.433 . S
C1280 H1276 0.929 . S
C1280 C1282 1.378 . S
C1280 C1284 1.350 . S
C1281 C1284 1.463 . S
C1281 C1286 1.350 . S
C1281 N1289 1.427 . S
C1282 H1273 0.930 . S
C1282 C1280 1.378 . S
C1282 C1283 1.367 . S
C1283 C1282 1.367 . S
C1283 C1285 1.433 . S
C1284 C1280 1.350 . S
C1284 C1281 1.463 . S
C1284 N1288 1.427 . S
C1285 H1275 0.929 . S
C1285 C1283 1.433 . S
C1285 N1288 1.384 . S
C1286 H1277 0.929 . S
C1286 C1278 1.378 . S
C1286 C1281 1.350 . S
C1287 H1274 0.929 . S
C1287 C1279 1.433 . S
C1287 N1289 1.384 . S
N1288 C1284 1.427 . S
N1288 C1285 1.384 . S
N1289 C1281 1.427 . S
N1289 C1287 1.384 . S
H1290 C1296 0.930 . S
H1291 C1300 0.930 . S
H1292 C1305 0.929 . S
H1293 C1303 0.929 . S
H1294 C1298 0.929 . S
H1295 C1304 0.929 . S
C1296 H1290 0.930 . S
C1296 C1297 1.367 . S
C1296 C1304 1.378 . S
C1297 C1296 1.367 . S
C1297 C1305 1.433 . S
C1298 H1294 0.929 . S
C1298 C1300 1.378 . S
C1298 C1302 1.350 . S
C1299 C1302 1.463 . S
C1299 C1304 1.350 . S
C1299 N1307 1.427 . S
C1300 H1291 0.930 . S
C1300 C1298 1.378 . S
C1300 C1301 1.367 . S
C1301 C1300 1.367 . S
C1301 C1303 1.433 . S
C1302 C1298 1.350 . S
C1302 C1299 1.463 . S
C1302 N1306 1.427 . S
C1303 H1293 0.929 . S
C1303 C1301 1.433 . S
C1303 N1306 1.384 . S
C1304 H1295 0.929 . S
C1304 C1296 1.378 . S
C1304 C1299 1.350 . S
C1305 H1292 0.929 . S
C1305 C1297 1.433 . S
C1305 N1307 1.384 . S
N1306 C1302 1.427 . S
N1306 C1303 1.384 . S
N1307 C1299 1.427 . S
N1307 C1305 1.384 . S
H1308 C1314 0.930 . S
H1309 C1318 0.930 . S
H1310 C1323 0.929 . S
H1311 C1321 0.929 . S
H1312 C1316 0.929 . S
H1313 C1322 0.929 . S
C1314 H1308 0.930 . S
C1314 C1315 1.367 . S
C1314 C1322 1.378 . S
C1315 C1314 1.367 . S
C1315 C1323 1.433 . S
C1316 H1312 0.929 . S
C1316 C1318 1.378 . S
C1316 C1320 1.350 . S
C1317 C1320 1.463 . S
C1317 C1322 1.350 . S
C1317 N1325 1.427 . S
C1318 H1309 0.930 . S
C1318 C1316 1.378 . S
C1318 C1319 1.367 . S
C1319 C1318 1.367 . S
C1319 C1321 1.433 . S
C1320 C1316 1.350 . S
C1320 C1317 1.463 . S
C1320 N1324 1.427 . S
C1321 H1311 0.929 . S
C1321 C1319 1.433 . S
C1321 N1324 1.384 . S
C1322 H1313 0.929 . S
C1322 C1314 1.378 . S
C1322 C1317 1.350 . S
C1323 H1310 0.929 . S
C1323 C1315 1.433 . S
C1323 N1325 1.384 . S
N1324 C1320 1.427 . S
N1324 C1321 1.384 . S
N1325 C1317 1.427 . S
N1325 C1323 1.384 . S
H1326 C1332 0.930 . S
H1327 C1336 0.930 . S
H1328 C1341 0.929 . S
H1329 C1339 0.929 . S
H1330 C1334 0.929 . S
H1331 C1340 0.929 . S
C1332 H1326 0.930 . S
C1332 C1333 1.367 . S
C1332 C1340 1.378 . S
C1333 C1332 1.367 . S
C1333 C1341 1.433 . S
C1334 H1330 0.929 . S
C1334 C1336 1.378 . S
C1334 C1338 1.350 . S
C1335 C1338 1.463 . S
C1335 C1340 1.350 . S
C1335 N1343 1.427 . S
C1336 H1327 0.930 . S
C1336 C1334 1.378 . S
C1336 C1337 1.367 . S
C1337 C1336 1.367 . S
C1337 C1339 1.433 . S
C1338 C1334 1.350 . S
C1338 C1335 1.463 . S
C1338 N1342 1.427 . S
C1339 H1329 0.929 . S
C1339 C1337 1.433 . S
C1339 N1342 1.384 . S
C1340 H1331 0.929 . S
C1340 C1332 1.378 . S
C1340 C1335 1.350 . S
C1341 H1328 0.929 . S
C1341 C1333 1.433 . S
C1341 N1343 1.384 . S
N1342 C1338 1.427 . S
N1342 C1339 1.384 . S
N1343 C1335 1.427 . S
N1343 C1341 1.384 . S
H1344 C1350 0.930 . S
H1345 C1354 0.930 . S
H1346 C1359 0.929 . S
H1347 C1357 0.929 . S
H1348 C1352 0.929 . S
H1349 C1358 0.929 . S
C1350 H1344 0.930 . S
C1350 C1351 1.367 . S
C1350 C1358 1.378 . S
C1351 C1350 1.367 . S
C1351 C1359 1.433 . S
C1352 H1348 0.929 . S
C1352 C1354 1.378 . S
C1352 C1356 1.350 . S
C1353 C1356 1.463 . S
C1353 C1358 1.350 . S
C1353 N1361 1.427 . S
C1354 H1345 0.930 . S
C1354 C1352 1.378 . S
C1354 C1355 1.367 . S
C1355 C1354 1.367 . S
C1355 C1357 1.433 . S
C1356 C1352 1.350 . S
C1356 C1353 1.463 . S
C1356 N1360 1.427 . S
C1357 H1347 0.929 . S
C1357 C1355 1.433 . S
C1357 N1360 1.384 . S
C1358 H1349 0.929 . S
C1358 C1350 1.378 . S
C1358 C1353 1.350 . S
C1359 H1346 0.929 . S
C1359 C1351 1.433 . S
C1359 N1361 1.384 . S
N1360 C1356 1.427 . S
N1360 C1357 1.384 . S
N1361 C1353 1.427 . S
N1361 C1359 1.384 . S
H1362 C1368 0.930 . S
H1363 C1372 0.930 . S
H1364 C1377 0.929 . S
H1365 C1375 0.929 . S
H1366 C1370 0.929 . S
H1367 C1376 0.929 . S
C1368 H1362 0.930 . S
C1368 C1369 1.367 . S
C1368 C1376 1.378 . S
C1369 C1368 1.367 . S
C1369 C1377 1.433 . S
C1370 H1366 0.929 . S
C1370 C1372 1.378 . S
C1370 C1374 1.350 . S
C1371 C1374 1.463 . S
C1371 C1376 1.350 . S
C1371 N1379 1.427 . S
C1372 H1363 0.930 . S
C1372 C1370 1.378 . S
C1372 C1373 1.367 . S
C1373 C1372 1.367 . S
C1373 C1375 1.433 . S
C1374 C1370 1.350 . S
C1374 C1371 1.463 . S
C1374 N1378 1.427 . S
C1375 H1365 0.929 . S
C1375 C1373 1.433 . S
C1375 N1378 1.384 . S
C1376 H1367 0.929 . S
C1376 C1368 1.378 . S
C1376 C1371 1.350 . S
C1377 H1364 0.929 . S
C1377 C1369 1.433 . S
C1377 N1379 1.384 . S
N1378 C1374 1.427 . S
N1378 C1375 1.384 . S
N1379 C1371 1.427 . S
N1379 C1377 1.384 . S
H1380 C1386 0.930 . S
H1381 C1390 0.932 . S
H1382 C1395 0.947 . S
H1383 C1393 0.929 . S
H1384 C1388 0.931 . S
H1385 C1394 0.929 . S
C1386 H1380 0.930 . S
C1386 C1387 1.367 . S
C1386 C1394 1.378 . S
C1387 C1386 1.367 . S
C1387 C1395 1.415 1_554 S
C1388 H1384 0.931 . S
C1388 C1390 1.378 . S
C1388 C1392 1.348 1_556 S
C1389 C1392 1.463 . S
C1389 C1394 1.350 . S
C1389 N1397 1.421 1_554 S
C1390 H1381 0.932 . S
C1390 C1388 1.378 . S
C1390 C1391 1.365 1_556 S
C1391 C1390 1.365 1_554 S
C1391 C1393 1.433 . S
C1392 C1388 1.348 1_554 S
C1392 C1389 1.463 . S
C1392 N1396 1.427 . S
C1393 H1383 0.929 . S
C1393 C1391 1.433 . S
C1393 N1396 1.384 . S
C1394 H1385 0.929 . S
C1394 C1386 1.378 . S
C1394 C1389 1.350 . S
C1395 H1382 0.947 . S
C1395 C1387 1.415 1_556 S
C1395 N1397 1.383 . S
N1396 C1392 1.427 . S
N1396 C1393 1.384 . S
N1397 C1389 1.421 1_556 S
N1397 C1395 1.383 . S
H1398 C1404 0.930 . S
H1399 C1408 0.930 . S
H1400 C1413 0.929 . S
H1401 C1411 0.929 . S
H1402 C1406 0.929 . S
H1403 C1412 0.929 . S
C1404 H1398 0.930 . S
C1404 C1405 1.367 1_556 S
C1404 C1412 1.378 . S
C1405 C1404 1.367 1_554 S
C1405 C1413 1.433 . S
C1406 H1402 0.929 . S
C1406 C1408 1.378 . S
C1406 C1410 1.350 . S
C1407 C1410 1.463 . S
C1407 C1412 1.350 1_554 S
C1407 N1415 1.427 . S
C1408 H1399 0.930 . S
C1408 C1406 1.378 . S
C1408 C1409 1.367 . S
C1409 C1408 1.367 . S
C1409 C1411 1.433 1_554 S
C1410 C1406 1.350 . S
C1410 C1407 1.463 . S
C1410 N1414 1.427 1_554 S
C1411 H1401 0.929 . S
C1411 C1409 1.433 1_556 S
C1411 N1414 1.384 . S
C1412 H1403 0.929 . S
C1412 C1404 1.378 . S
C1412 C1407 1.350 1_556 S
C1413 H1400 0.929 . S
C1413 C1405 1.433 . S
C1413 N1415 1.384 . S
N1414 C1410 1.427 1_556 S
N1414 C1411 1.384 . S
N1415 C1407 1.427 . S
N1415 C1413 1.384 . S
H1416 C1422 0.930 . S
H1417 C1426 0.930 . S
H1418 C1431 0.929 . S
H1419 C1429 0.929 . S
H1420 C1424 0.929 . S
H1421 C1430 0.929 . S
C1422 H1416 0.930 . S
C1422 C1423 1.367 . S
C1422 C1430 1.378 . S
C1423 C1422 1.367 . S
C1423 C1431 1.433 . S
C1424 H1420 0.929 . S
C1424 C1426 1.378 . S
C1424 C1428 1.350 . S
C1425 C1428 1.463 . S
C1425 C1430 1.350 . S
C1425 N1433 1.427 . S
C1426 H1417 0.930 . S
C1426 C1424 1.378 . S
C1426 C1427 1.367 . S
C1427 C1426 1.367 . S
C1427 C1429 1.433 . S
C1428 C1424 1.350 . S
C1428 C1425 1.463 . S
C1428 N1432 1.427 . S
C1429 H1419 0.929 . S
C1429 C1427 1.433 . S
C1429 N1432 1.384 . S
C1430 H1421 0.929 . S
C1430 C1422 1.378 . S
C1430 C1425 1.350 . S
C1431 H1418 0.929 . S
C1431 C1423 1.433 . S
C1431 N1433 1.384 . S
N1432 C1428 1.427 . S
N1432 C1429 1.384 . S
N1433 C1425 1.427 . S
N1433 C1431 1.384 . S
H1434 C1440 0.930 . S
H1435 C1444 0.930 . S
H1436 C1449 0.929 . S
H1437 C1447 0.929 . S
H1438 C1442 0.929 . S
H1439 C1448 0.929 . S
C1440 H1434 0.930 . S
C1440 C1441 1.367 . S
C1440 C1448 1.378 . S
C1441 C1440 1.367 . S
C1441 C1449 1.433 . S
C1442 H1438 0.929 . S
C1442 C1444 1.378 . S
C1442 C1446 1.350 . S
C1443 C1446 1.463 . S
C1443 C1448 1.350 . S
C1443 N1451 1.427 . S
C1444 H1435 0.930 . S
C1444 C1442 1.378 . S
C1444 C1445 1.367 . S
C1445 C1444 1.367 . S
C1445 C1447 1.433 . S
C1446 C1442 1.350 . S
C1446 C1443 1.463 . S
C1446 N1450 1.427 . S
C1447 H1437 0.929 . S
C1447 C1445 1.433 . S
C1447 N1450 1.384 . S
C1448 H1439 0.929 . S
C1448 C1440 1.378 . S
C1448 C1443 1.350 . S
C1449 H1436 0.929 . S
C1449 C1441 1.433 . S
C1449 N1451 1.384 . S
N1450 C1446 1.427 . S
N1450 C1447 1.384 . S
N1451 C1443 1.427 . S
N1451 C1449 1.384 . S
H1452 C1458 0.930 . S
H1453 C1462 0.930 . S
H1454 C1467 0.929 . S
H1455 C1465 0.929 . S
H1456 C1460 0.929 . S
H1457 C1466 0.929 . S
C1458 H1452 0.930 . S
C1458 C1459 1.367 1_554 S
C1458 C1466 1.378 . S
C1459 C1458 1.367 1_556 S
C1459 C1467 1.433 . S
C1460 H1456 0.929 . S
C1460 C1462 1.378 . S
C1460 C1464 1.350 . S
C1461 C1464 1.463 . S
C1461 C1466 1.350 1_556 S
C1461 N1469 1.427 . S
C1462 H1453 0.930 . S
C1462 C1460 1.378 . S
C1462 C1463 1.367 . S
C1463 C1462 1.367 . S
C1463 C1465 1.433 1_556 S
C1464 C1460 1.350 . S
C1464 C1461 1.463 . S
C1464 N1468 1.427 1_556 S
C1465 H1455 0.929 . S
C1465 C1463 1.433 1_554 S
C1465 N1468 1.384 . S
C1466 H1457 0.929 . S
C1466 C1458 1.378 . S
C1466 C1461 1.350 1_554 S
C1467 H1454 0.929 . S
C1467 C1459 1.433 . S
C1467 N1469 1.384 . S
N1468 C1464 1.427 1_554 S
N1468 C1465 1.384 . S
N1469 C1461 1.427 . S
N1469 C1467 1.384 . S
H1470 C1476 0.930 . S
H1471 C1480 0.930 . S
H1472 C1485 0.929 . S
H1473 C1483 0.929 . S
H1474 C1478 0.929 . S
H1475 C1484 0.929 . S
C1476 H1470 0.930 . S
C1476 C1477 1.367 . S
C1476 C1484 1.378 . S
C1477 C1476 1.367 . S
C1477 C1485 1.433 1_556 S
C1478 H1474 0.929 . S
C1478 C1480 1.378 . S
C1478 C1482 1.350 1_554 S
C1479 C1482 1.463 . S
C1479 C1484 1.350 . S
C1479 N1487 1.427 1_556 S
C1480 H1471 0.930 . S
C1480 C1478 1.378 . S
C1480 C1481 1.367 1_554 S
C1481 C1480 1.367 1_556 S
C1481 C1483 1.433 . S
C1482 C1478 1.350 1_556 S
C1482 C1479 1.463 . S
C1482 N1486 1.427 . S
C1483 H1473 0.929 . S
C1483 C1481 1.433 . S
C1483 N1486 1.384 . S
C1484 H1475 0.929 . S
C1484 C1476 1.378 . S
C1484 C1479 1.350 . S
C1485 H1472 0.929 . S
C1485 C1477 1.433 1_554 S
C1485 N1487 1.384 . S
N1486 C1482 1.427 . S
N1486 C1483 1.384 . S
N1487 C1479 1.427 1_554 S
N1487 C1485 1.384 . S
H1488 C1494 0.930 . S
H1489 C1498 0.930 . S
H1490 C1503 0.929 . S
H1491 C1501 0.929 . S
H1492 C1496 0.929 . S
H1493 C1502 0.929 . S
C1494 H1488 0.930 . S
C1494 C1495 1.367 . S
C1494 C1502 1.378 . S
C1495 C1494 1.367 . S
C1495 C1503 1.433 . S
C1496 H1492 0.929 . S
C1496 C1498 1.378 . S
C1496 C1500 1.350 . S
C1497 C1500 1.463 . S
C1497 C1502 1.350 . S
C1497 N1505 1.427 . S
C1498 H1489 0.930 . S
C1498 C1496 1.378 . S
C1498 C1499 1.367 . S
C1499 C1498 1.367 . S
C1499 C1501 1.433 . S
C1500 C1496 1.350 . S
C1500 C1497 1.463 . S
C1500 N1504 1.427 . S
C1501 H1491 0.929 . S
C1501 C1499 1.433 . S
C1501 N1504 1.384 . S
C1502 H1493 0.929 . S
C1502 C1494 1.378 . S
C1502 C1497 1.350 . S
C1503 H1490 0.929 . S
C1503 C1495 1.433 . S
C1503 N1505 1.384 . S
N1504 C1500 1.427 . S
N1504 C1501 1.384 . S
N1505 C1497 1.427 . S
N1505 C1503 1.384 . S
H1506 C1512 0.930 . S
H1507 C1516 0.930 . S
H1508 C1521 0.929 . S
H1509 C1519 0.929 . S
H1510 C1514 0.929 . S
H1511 C1520 0.929 . S
C1512 H1506 0.930 . S
C1512 C1513 1.367 . S
C1512 C1520 1.378 . S
C1513 C1512 1.367 . S
C1513 C1521 1.433 . S
C1514 H1510 0.929 . S
C1514 C1516 1.378 . S
C1514 C1518 1.350 . S
C1515 C1518 1.463 . S
C1515 C1520 1.350 . S
C1515 N1523 1.427 . S
C1516 H1507 0.930 . S
C1516 C1514 1.378 . S
C1516 C1517 1.367 . S
C1517 C1516 1.367 . S
C1517 C1519 1.433 . S
C1518 C1514 1.350 . S
C1518 C1515 1.463 . S
C1518 N1522 1.427 . S
C1519 H1509 0.929 . S
C1519 C1517 1.433 . S
C1519 N1522 1.384 . S
C1520 H1511 0.929 . S
C1520 C1512 1.378 . S
C1520 C1515 1.350 . S
C1521 H1508 0.929 . S
C1521 C1513 1.433 . S
C1521 N1523 1.384 . S
N1522 C1518 1.427 . S
N1522 C1519 1.384 . S
N1523 C1515 1.427 . S
N1523 C1521 1.384 . S
H1524 C1530 0.930 . S
H1525 C1534 0.930 . S
H1526 C1539 0.929 . S
H1527 C1537 0.929 . S
H1528 C1532 0.929 . S
H1529 C1538 0.929 . S
C1530 H1524 0.930 . S
C1530 C1531 1.367 . S
C1530 C1538 1.378 . S
C1531 C1530 1.367 . S
C1531 C1539 1.433 . S
C1532 H1528 0.929 . S
C1532 C1534 1.378 . S
C1532 C1536 1.350 . S
C1533 C1536 1.463 . S
C1533 C1538 1.350 . S
C1533 N1541 1.427 . S
C1534 H1525 0.930 . S
C1534 C1532 1.378 . S
C1534 C1535 1.367 . S
C1535 C1534 1.367 . S
C1535 C1537 1.433 . S
C1536 C1532 1.350 . S
C1536 C1533 1.463 . S
C1536 N1540 1.427 . S
C1537 H1527 0.929 . S
C1537 C1535 1.433 . S
C1537 N1540 1.384 . S
C1538 H1529 0.929 . S
C1538 C1530 1.378 . S
C1538 C1533 1.350 . S
C1539 H1526 0.929 . S
C1539 C1531 1.433 . S
C1539 N1541 1.384 . S
N1540 C1536 1.427 . S
N1540 C1537 1.384 . S
N1541 C1533 1.427 . S
N1541 C1539 1.384 . S
H1542 C1548 0.930 . S
H1543 C1552 0.930 . S
H1544 C1557 0.929 . S
H1545 C1555 0.929 . S
H1546 C1550 0.929 . S
H1547 C1556 0.929 . S
C1548 H1542 0.930 . S
C1548 C1549 1.367 . S
C1548 C1556 1.378 . S
C1549 C1548 1.367 . S
C1549 C1557 1.433 . S
C1550 H1546 0.929 . S
C1550 C1552 1.378 . S
C1550 C1554 1.350 . S
C1551 C1554 1.463 . S
C1551 C1556 1.350 . S
C1551 N1559 1.427 . S
C1552 H1543 0.930 . S
C1552 C1550 1.378 . S
C1552 C1553 1.367 . S
C1553 C1552 1.367 . S
C1553 C1555 1.433 . S
C1554 C1550 1.350 . S
C1554 C1551 1.463 . S
C1554 N1558 1.427 . S
C1555 H1545 0.929 . S
C1555 C1553 1.433 . S
C1555 N1558 1.384 . S
C1556 H1547 0.929 . S
C1556 C1548 1.378 . S
C1556 C1551 1.350 . S
C1557 H1544 0.929 . S
C1557 C1549 1.433 . S
C1557 N1559 1.384 . S
N1558 C1554 1.427 . S
N1558 C1555 1.384 . S
N1559 C1551 1.427 . S
N1559 C1557 1.384 . S
H1560 C1566 0.930 . S
H1561 C1570 0.930 . S
H1562 C1575 0.929 . S
H1563 C1573 0.929 . S
H1564 C1568 0.929 . S
H1565 C1574 0.929 . S
C1566 H1560 0.930 . S
C1566 C1567 1.367 . S
C1566 C1574 1.378 . S
C1567 C1566 1.367 . S
C1567 C1575 1.433 . S
C1568 H1564 0.929 . S
C1568 C1570 1.378 . S
C1568 C1572 1.350 . S
C1569 C1572 1.463 . S
C1569 C1574 1.350 . S
C1569 N1577 1.427 . S
C1570 H1561 0.930 . S
C1570 C1568 1.378 . S
C1570 C1571 1.367 . S
C1571 C1570 1.367 . S
C1571 C1573 1.433 . S
C1572 C1568 1.350 . S
C1572 C1569 1.463 . S
C1572 N1576 1.427 . S
C1573 H1563 0.929 . S
C1573 C1571 1.433 . S
C1573 N1576 1.384 . S
C1574 H1565 0.929 . S
C1574 C1566 1.378 . S
C1574 C1569 1.350 . S
C1575 H1562 0.929 . S
C1575 C1567 1.433 . S
C1575 N1577 1.384 . S
N1576 C1572 1.427 . S
N1576 C1573 1.384 . S
N1577 C1569 1.427 . S
N1577 C1575 1.384 . S
H1578 C1584 0.930 . S
H1579 C1588 0.930 . S
H1580 C1593 0.929 . S
H1581 C1591 0.929 . S
H1582 C1586 0.929 . S
H1583 C1592 0.929 . S
C1584 H1578 0.930 . S
C1584 C1585 1.367 . S
C1584 C1592 1.378 . S
C1585 C1584 1.367 . S
C1585 C1593 1.433 . S
C1586 H1582 0.929 . S
C1586 C1588 1.378 . S
C1586 C1590 1.350 . S
C1587 C1590 1.463 . S
C1587 C1592 1.350 . S
C1587 N1595 1.427 . S
C1588 H1579 0.930 . S
C1588 C1586 1.378 . S
C1588 C1589 1.367 . S
C1589 C1588 1.367 . S
C1589 C1591 1.433 . S
C1590 C1586 1.350 . S
C1590 C1587 1.463 . S
C1590 N1594 1.427 . S
C1591 H1581 0.929 . S
C1591 C1589 1.433 . S
C1591 N1594 1.384 . S
C1592 H1583 0.929 . S
C1592 C1584 1.378 . S
C1592 C1587 1.350 . S
C1593 H1580 0.929 . S
C1593 C1585 1.433 . S
C1593 N1595 1.384 . S
N1594 C1590 1.427 . S
N1594 C1591 1.384 . S
N1595 C1587 1.427 . S
N1595 C1593 1.384 . S
H1596 C1602 0.930 . S
H1597 C1606 0.930 . S
H1598 C1611 0.929 . S
H1599 C1609 0.929 . S
H1600 C1604 0.929 . S
H1601 C1610 0.929 . S
C1602 H1596 0.930 . S
C1602 C1603 1.367 . S
C1602 C1610 1.378 . S
C1603 C1602 1.367 . S
C1603 C1611 1.433 . S
C1604 H1600 0.929 . S
C1604 C1606 1.378 . S
C1604 C1608 1.350 . S
C1605 C1608 1.463 . S
C1605 C1610 1.350 . S
C1605 N1613 1.427 . S
C1606 H1597 0.930 . S
C1606 C1604 1.378 . S
C1606 C1607 1.367 . S
C1607 C1606 1.367 . S
C1607 C1609 1.433 . S
C1608 C1604 1.350 . S
C1608 C1605 1.463 . S
C1608 N1612 1.427 . S
C1609 H1599 0.929 . S
C1609 C1607 1.433 . S
C1609 N1612 1.384 . S
C1610 H1601 0.929 . S
C1610 C1602 1.378 . S
C1610 C1605 1.350 . S
C1611 H1598 0.929 . S
C1611 C1603 1.433 . S
C1611 N1613 1.384 . S
N1612 C1608 1.427 . S
N1612 C1609 1.384 . S
N1613 C1605 1.427 . S
N1613 C1611 1.384 . S
H1614 C1620 0.930 . S
H1615 C1624 0.930 . S
H1616 C1629 0.929 . S
H1617 C1627 0.929 . S
H1618 C1622 0.929 . S
H1619 C1628 0.929 . S
C1620 H1614 0.930 . S
C1620 C1621 1.367 . S
C1620 C1628 1.378 . S
C1621 C1620 1.367 . S
C1621 C1629 1.433 . S
C1622 H1618 0.929 . S
C1622 C1624 1.378 . S
C1622 C1626 1.350 . S
C1623 C1626 1.463 . S
C1623 C1628 1.350 . S
C1623 N1631 1.427 . S
C1624 H1615 0.930 . S
C1624 C1622 1.378 . S
C1624 C1625 1.367 . S
C1625 C1624 1.367 . S
C1625 C1627 1.433 . S
C1626 C1622 1.350 . S
C1626 C1623 1.463 . S
C1626 N1630 1.427 . S
C1627 H1617 0.929 . S
C1627 C1625 1.433 . S
C1627 N1630 1.384 . S
C1628 H1619 0.929 . S
C1628 C1620 1.378 . S
C1628 C1623 1.350 . S
C1629 H1616 0.929 . S
C1629 C1621 1.433 . S
C1629 N1631 1.384 . S
N1630 C1626 1.427 . S
N1630 C1627 1.384 . S
N1631 C1623 1.427 . S
N1631 C1629 1.384 . S
H1632 C1638 0.930 . S
H1633 C1642 0.930 . S
H1634 C1647 0.929 . S
H1635 C1645 0.929 . S
H1636 C1640 0.929 . S
H1637 C1646 0.929 . S
C1638 H1632 0.930 . S
C1638 C1639 1.367 . S
C1638 C1646 1.378 . S
C1639 C1638 1.367 . S
C1639 C1647 1.433 . S
C1640 H1636 0.929 . S
C1640 C1642 1.378 . S
C1640 C1644 1.350 . S
C1641 C1644 1.463 . S
C1641 C1646 1.350 . S
C1641 N1649 1.427 . S
C1642 H1633 0.930 . S
C1642 C1640 1.378 . S
C1642 C1643 1.367 . S
C1643 C1642 1.367 . S
C1643 C1645 1.433 . S
C1644 C1640 1.350 . S
C1644 C1641 1.463 . S
C1644 N1648 1.427 . S
C1645 H1635 0.929 . S
C1645 C1643 1.433 . S
C1645 N1648 1.384 . S
C1646 H1637 0.929 . S
C1646 C1638 1.378 . S
C1646 C1641 1.350 . S
C1647 H1634 0.929 . S
C1647 C1639 1.433 . S
C1647 N1649 1.384 . S
N1648 C1644 1.427 . S
N1648 C1645 1.384 . S
N1649 C1641 1.427 . S
N1649 C1647 1.384 . S
H1650 C1656 0.930 . S
H1651 C1660 0.930 . S
H1652 C1665 0.929 . S
H1653 C1663 0.929 . S
H1654 C1658 0.929 . S
H1655 C1664 0.929 . S
C1656 H1650 0.930 . S
C1656 C1657 1.367 . S
C1656 C1664 1.378 . S
C1657 C1656 1.367 . S
C1657 C1665 1.433 . S
C1658 H1654 0.929 . S
C1658 C1660 1.378 . S
C1658 C1662 1.350 . S
C1659 C1662 1.463 . S
C1659 C1664 1.350 . S
C1659 N1667 1.427 . S
C1660 H1651 0.930 . S
C1660 C1658 1.378 . S
C1660 C1661 1.367 . S
C1661 C1660 1.367 . S
C1661 C1663 1.433 . S
C1662 C1658 1.350 . S
C1662 C1659 1.463 . S
C1662 N1666 1.427 . S
C1663 H1653 0.929 . S
C1663 C1661 1.433 . S
C1663 N1666 1.384 . S
C1664 H1655 0.929 . S
C1664 C1656 1.378 . S
C1664 C1659 1.350 . S
C1665 H1652 0.929 . S
C1665 C1657 1.433 . S
C1665 N1667 1.384 . S
N1666 C1662 1.427 . S
N1666 C1663 1.384 . S
N1667 C1659 1.427 . S
N1667 C1665 1.384 . S
H1668 C1674 0.930 . S
H1669 C1678 0.930 . S
H1670 C1683 0.929 . S
H1671 C1681 0.929 . S
H1672 C1676 0.929 . S
H1673 C1682 0.929 . S
C1674 H1668 0.930 . S
C1674 C1675 1.367 . S
C1674 C1682 1.378 . S
C1675 C1674 1.367 . S
C1675 C1683 1.433 . S
C1676 H1672 0.929 . S
C1676 C1678 1.378 . S
C1676 C1680 1.350 . S
C1677 C1680 1.463 . S
C1677 C1682 1.350 . S
C1677 N1685 1.427 . S
C1678 H1669 0.930 . S
C1678 C1676 1.378 . S
C1678 C1679 1.367 . S
C1679 C1678 1.367 . S
C1679 C1681 1.433 . S
C1680 C1676 1.350 . S
C1680 C1677 1.463 . S
C1680 N1684 1.427 . S
C1681 H1671 0.929 . S
C1681 C1679 1.433 . S
C1681 N1684 1.384 . S
C1682 H1673 0.929 . S
C1682 C1674 1.378 . S
C1682 C1677 1.350 . S
C1683 H1670 0.929 . S
C1683 C1675 1.433 . S
C1683 N1685 1.384 . S
N1684 C1680 1.427 . S
N1684 C1681 1.384 . S
N1685 C1677 1.427 . S
N1685 C1683 1.384 . S
H1686 C1692 0.930 . S
H1687 C1696 0.930 . S
H1688 C1701 0.929 . S
H1689 C1699 0.929 . S
H1690 C1694 0.929 . S
H1691 C1700 0.929 . S
C1692 H1686 0.930 . S
C1692 C1693 1.367 . S
C1692 C1700 1.378 . S
C1693 C1692 1.367 . S
C1693 C1701 1.433 . S
C1694 H1690 0.929 . S
C1694 C1696 1.378 . S
C1694 C1698 1.350 . S
C1695 C1698 1.463 . S
C1695 C1700 1.350 . S
C1695 N1703 1.427 . S
C1696 H1687 0.930 . S
C1696 C1694 1.378 . S
C1696 C1697 1.367 . S
C1697 C1696 1.367 . S
C1697 C1699 1.433 . S
C1698 C1694 1.350 . S
C1698 C1695 1.463 . S
C1698 N1702 1.427 . S
C1699 H1689 0.929 . S
C1699 C1697 1.433 . S
C1699 N1702 1.384 . S
C1700 H1691 0.929 . S
C1700 C1692 1.378 . S
C1700 C1695 1.350 . S
C1701 H1688 0.929 . S
C1701 C1693 1.433 . S
C1701 N1703 1.384 . S
N1702 C1698 1.427 . S
N1702 C1699 1.384 . S
N1703 C1695 1.427 . S
N1703 C1701 1.384 . S
H1704 C1710 0.930 . S
H1705 C1714 0.930 . S
H1706 C1719 0.929 . S
H1707 C1717 0.929 . S
H1708 C1712 0.929 . S
H1709 C1718 0.929 . S
C1710 H1704 0.930 . S
C1710 C1711 1.367 . S
C1710 C1718 1.378 . S
C1711 C1710 1.367 . S
C1711 C1719 1.433 . S
C1712 H1708 0.929 . S
C1712 C1714 1.378 . S
C1712 C1716 1.350 . S
C1713 C1716 1.463 . S
C1713 C1718 1.350 . S
C1713 N1721 1.427 . S
C1714 H1705 0.930 . S
C1714 C1712 1.378 . S
C1714 C1715 1.367 . S
C1715 C1714 1.367 . S
C1715 C1717 1.433 . S
C1716 C1712 1.350 . S
C1716 C1713 1.463 . S
C1716 N1720 1.427 . S
C1717 H1707 0.929 . S
C1717 C1715 1.433 . S
C1717 N1720 1.384 . S
C1718 H1709 0.929 . S
C1718 C1710 1.378 . S
C1718 C1713 1.350 . S
C1719 H1706 0.929 . S
C1719 C1711 1.433 . S
C1719 N1721 1.384 . S
N1720 C1716 1.427 . S
N1720 C1717 1.384 . S
N1721 C1713 1.427 . S
N1721 C1719 1.384 . S
H1722 C1728 0.930 . S
H1723 C1732 0.930 . S
H1724 C1737 0.929 . S
H1725 C1735 0.929 . S
H1726 C1730 0.929 . S
H1727 C1736 0.929 . S
C1728 H1722 0.930 . S
C1728 C1729 1.367 . S
C1728 C1736 1.378 . S
C1729 C1728 1.367 . S
C1729 C1737 1.433 . S
C1730 H1726 0.929 . S
C1730 C1732 1.378 . S
C1730 C1734 1.350 . S
C1731 C1734 1.463 . S
C1731 C1736 1.350 . S
C1731 N1739 1.427 . S
C1732 H1723 0.930 . S
C1732 C1730 1.378 . S
C1732 C1733 1.367 . S
C1733 C1732 1.367 . S
C1733 C1735 1.433 . S
C1734 C1730 1.350 . S
C1734 C1731 1.463 . S
C1734 N1738 1.427 . S
C1735 H1725 0.929 . S
C1735 C1733 1.433 . S
C1735 N1738 1.384 . S
C1736 H1727 0.929 . S
C1736 C1728 1.378 . S
C1736 C1731 1.350 . S
C1737 H1724 0.929 . S
C1737 C1729 1.433 . S
C1737 N1739 1.384 . S
N1738 C1734 1.427 . S
N1738 C1735 1.384 . S
N1739 C1731 1.427 . S
N1739 C1737 1.384 . S
H1740 C1746 0.930 . S
H1741 C1750 0.930 . S
H1742 C1755 0.929 . S
H1743 C1753 0.929 . S
H1744 C1748 0.929 . S
H1745 C1754 0.929 . S
C1746 H1740 0.930 . S
C1746 C1747 1.367 . S
C1746 C1754 1.378 . S
C1747 C1746 1.367 . S
C1747 C1755 1.433 . S
C1748 H1744 0.929 . S
C1748 C1750 1.378 . S
C1748 C1752 1.350 . S
C1749 C1752 1.463 . S
C1749 C1754 1.350 . S
C1749 N1757 1.427 . S
C1750 H1741 0.930 . S
C1750 C1748 1.378 . S
C1750 C1751 1.367 . S
C1751 C1750 1.367 . S
C1751 C1753 1.433 . S
C1752 C1748 1.350 . S
C1752 C1749 1.463 . S
C1752 N1756 1.427 . S
C1753 H1743 0.929 . S
C1753 C1751 1.433 . S
C1753 N1756 1.384 . S
C1754 H1745 0.929 . S
C1754 C1746 1.378 . S
C1754 C1749 1.350 . S
C1755 H1742 0.929 . S
C1755 C1747 1.433 . S
C1755 N1757 1.384 . S
N1756 C1752 1.427 . S
N1756 C1753 1.384 . S
N1757 C1749 1.427 . S
N1757 C1755 1.384 . S
H1758 C1764 0.930 . S
H1759 C1768 0.930 . S
H1760 C1773 0.929 . S
H1761 C1771 0.929 . S
H1762 C1766 0.929 . S
H1763 C1772 0.929 . S
C1764 H1758 0.930 . S
C1764 C1765 1.367 . S
C1764 C1772 1.378 . S
C1765 C1764 1.367 . S
C1765 C1773 1.433 . S
C1766 H1762 0.929 . S
C1766 C1768 1.378 . S
C1766 C1770 1.350 . S
C1767 C1770 1.463 . S
C1767 C1772 1.350 . S
C1767 N1775 1.427 . S
C1768 H1759 0.930 . S
C1768 C1766 1.378 . S
C1768 C1769 1.367 . S
C1769 C1768 1.367 . S
C1769 C1771 1.433 . S
C1770 C1766 1.350 . S
C1770 C1767 1.463 . S
C1770 N1774 1.427 . S
C1771 H1761 0.929 . S
C1771 C1769 1.433 . S
C1771 N1774 1.384 . S
C1772 H1763 0.929 . S
C1772 C1764 1.378 . S
C1772 C1767 1.350 . S
C1773 H1760 0.929 . S
C1773 C1765 1.433 . S
C1773 N1775 1.384 . S
N1774 C1770 1.427 . S
N1774 C1771 1.384 . S
N1775 C1767 1.427 . S
N1775 C1773 1.384 . S
H1776 C1782 0.930 . S
H1777 C1786 0.930 . S
H1778 C1791 0.929 . S
H1779 C1789 0.929 . S
H1780 C1784 0.929 . S
H1781 C1790 0.929 . S
C1782 H1776 0.930 . S
C1782 C1783 1.367 . S
C1782 C1790 1.378 . S
C1783 C1782 1.367 . S
C1783 C1791 1.433 . S
C1784 H1780 0.929 . S
C1784 C1786 1.378 . S
C1784 C1788 1.350 . S
C1785 C1788 1.463 . S
C1785 C1790 1.350 . S
C1785 N1793 1.427 . S
C1786 H1777 0.930 . S
C1786 C1784 1.378 . S
C1786 C1787 1.367 . S
C1787 C1786 1.367 . S
C1787 C1789 1.433 . S
C1788 C1784 1.350 . S
C1788 C1785 1.463 . S
C1788 N1792 1.427 . S
C1789 H1779 0.929 . S
C1789 C1787 1.433 . S
C1789 N1792 1.384 . S
C1790 H1781 0.929 . S
C1790 C1782 1.378 . S
C1790 C1785 1.350 . S
C1791 H1778 0.929 . S
C1791 C1783 1.433 . S
C1791 N1793 1.384 . S
N1792 C1788 1.427 . S
N1792 C1789 1.384 . S
N1793 C1785 1.427 . S
N1793 C1791 1.384 . S
H1794 C1800 0.930 . S
H1795 C1804 0.930 . S
H1796 C1809 0.929 . S
H1797 C1807 0.929 . S
H1798 C1802 0.929 . S
H1799 C1808 0.929 . S
C1800 H1794 0.930 . S
C1800 C1801 1.367 . S
C1800 C1808 1.378 . S
C1801 C1800 1.367 . S
C1801 C1809 1.433 . S
C1802 H1798 0.929 . S
C1802 C1804 1.378 . S
C1802 C1806 1.350 . S
C1803 C1806 1.463 . S
C1803 C1808 1.350 . S
C1803 N1811 1.427 . S
C1804 H1795 0.930 . S
C1804 C1802 1.378 . S
C1804 C1805 1.367 . S
C1805 C1804 1.367 . S
C1805 C1807 1.433 . S
C1806 C1802 1.350 . S
C1806 C1803 1.463 . S
C1806 N1810 1.427 . S
C1807 H1797 0.929 . S
C1807 C1805 1.433 . S
C1807 N1810 1.384 . S
C1808 H1799 0.929 . S
C1808 C1800 1.378 . S
C1808 C1803 1.350 . S
C1809 H1796 0.929 . S
C1809 C1801 1.433 . S
C1809 N1811 1.384 . S
N1810 C1806 1.427 . S
N1810 C1807 1.384 . S
N1811 C1803 1.427 . S
N1811 C1809 1.384 . S
H1812 C1818 0.930 . S
H1813 C1822 0.930 . S
H1814 C1827 0.929 . S
H1815 C1825 0.929 . S
H1816 C1820 0.929 . S
H1817 C1826 0.929 . S
C1818 H1812 0.930 . S
C1818 C1819 1.367 . S
C1818 C1826 1.378 . S
C1819 C1818 1.367 . S
C1819 C1827 1.433 . S
C1820 H1816 0.929 . S
C1820 C1822 1.378 . S
C1820 C1824 1.350 . S
C1821 C1824 1.463 . S
C1821 C1826 1.350 . S
C1821 N1829 1.427 . S
C1822 H1813 0.930 . S
C1822 C1820 1.378 . S
C1822 C1823 1.367 . S
C1823 C1822 1.367 . S
C1823 C1825 1.433 . S
C1824 C1820 1.350 . S
C1824 C1821 1.463 . S
C1824 N1828 1.427 . S
C1825 H1815 0.929 . S
C1825 C1823 1.433 . S
C1825 N1828 1.384 . S
C1826 H1817 0.929 . S
C1826 C1818 1.378 . S
C1826 C1821 1.350 . S
C1827 H1814 0.929 . S
C1827 C1819 1.433 . S
C1827 N1829 1.384 . S
N1828 C1824 1.427 . S
N1828 C1825 1.384 . S
N1829 C1821 1.427 . S
N1829 C1827 1.384 . S
H1830 C1836 0.930 . S
H1831 C1840 0.930 . S
H1832 C1845 0.929 . S
H1833 C1843 0.929 . S
H1834 C1838 0.929 . S
H1835 C1844 0.929 . S
C1836 H1830 0.930 . S
C1836 C1837 1.367 . S
C1836 C1844 1.378 . S
C1837 C1836 1.367 . S
C1837 C1845 1.433 . S
C1838 H1834 0.929 . S
C1838 C1840 1.378 . S
C1838 C1842 1.350 . S
C1839 C1842 1.463 . S
C1839 C1844 1.350 . S
C1839 N1847 1.427 . S
C1840 H1831 0.930 . S
C1840 C1838 1.378 . S
C1840 C1841 1.367 . S
C1841 C1840 1.367 . S
C1841 C1843 1.433 . S
C1842 C1838 1.350 . S
C1842 C1839 1.463 . S
C1842 N1846 1.427 . S
C1843 H1833 0.929 . S
C1843 C1841 1.433 . S
C1843 N1846 1.384 . S
C1844 H1835 0.929 . S
C1844 C1836 1.378 . S
C1844 C1839 1.350 . S
C1845 H1832 0.929 . S
C1845 C1837 1.433 . S
C1845 N1847 1.384 . S
N1846 C1842 1.427 . S
N1846 C1843 1.384 . S
N1847 C1839 1.427 . S
N1847 C1845 1.384 . S
H1848 C1854 0.930 . S
H1849 C1858 0.930 . S
H1850 C1863 0.929 . S
H1851 C1861 0.929 . S
H1852 C1856 0.929 . S
H1853 C1862 0.929 . S
C1854 H1848 0.930 . S
C1854 C1855 1.367 . S
C1854 C1862 1.378 . S
C1855 C1854 1.367 . S
C1855 C1863 1.433 . S
C1856 H1852 0.929 . S
C1856 C1858 1.378 . S
C1856 C1860 1.350 . S
C1857 C1860 1.463 . S
C1857 C1862 1.350 . S
C1857 N1865 1.427 . S
C1858 H1849 0.930 . S
C1858 C1856 1.378 . S
C1858 C1859 1.367 . S
C1859 C1858 1.367 . S
C1859 C1861 1.433 . S
C1860 C1856 1.350 . S
C1860 C1857 1.463 . S
C1860 N1864 1.427 . S
C1861 H1851 0.929 . S
C1861 C1859 1.433 . S
C1861 N1864 1.384 . S
C1862 H1853 0.929 . S
C1862 C1854 1.378 . S
C1862 C1857 1.350 . S
C1863 H1850 0.929 . S
C1863 C1855 1.433 . S
C1863 N1865 1.384 . S
N1864 C1860 1.427 . S
N1864 C1861 1.384 . S
N1865 C1857 1.427 . S
N1865 C1863 1.384 . S
H1866 C1872 0.930 . S
H1867 C1876 0.930 . S
H1868 C1881 0.929 . S
H1869 C1879 0.929 . S
H1870 C1874 0.929 . S
H1871 C1880 0.929 . S
C1872 H1866 0.930 . S
C1872 C1873 1.367 . S
C1872 C1880 1.378 . S
C1873 C1872 1.367 . S
C1873 C1881 1.433 . S
C1874 H1870 0.929 . S
C1874 C1876 1.378 . S
C1874 C1878 1.350 . S
C1875 C1878 1.463 . S
C1875 C1880 1.350 . S
C1875 N1883 1.427 . S
C1876 H1867 0.930 . S
C1876 C1874 1.378 . S
C1876 C1877 1.367 . S
C1877 C1876 1.367 . S
C1877 C1879 1.433 . S
C1878 C1874 1.350 . S
C1878 C1875 1.463 . S
C1878 N1882 1.427 . S
C1879 H1869 0.929 . S
C1879 C1877 1.433 . S
C1879 N1882 1.384 . S
C1880 H1871 0.929 . S
C1880 C1872 1.378 . S
C1880 C1875 1.350 . S
C1881 H1868 0.929 . S
C1881 C1873 1.433 . S
C1881 N1883 1.384 . S
N1882 C1878 1.427 . S
N1882 C1879 1.384 . S
N1883 C1875 1.427 . S
N1883 C1881 1.384 . S
H1884 C1890 0.930 . S
H1885 C1894 0.930 . S
H1886 C1899 0.929 . S
H1887 C1897 0.929 . S
H1888 C1892 0.929 . S
H1889 C1898 0.929 . S
C1890 H1884 0.930 . S
C1890 C1891 1.367 . S
C1890 C1898 1.378 . S
C1891 C1890 1.367 . S
C1891 C1899 1.433 . S
C1892 H1888 0.929 . S
C1892 C1894 1.378 . S
C1892 C1896 1.350 . S
C1893 C1896 1.463 . S
C1893 C1898 1.350 . S
C1893 N1901 1.427 . S
C1894 H1885 0.930 . S
C1894 C1892 1.378 . S
C1894 C1895 1.367 . S
C1895 C1894 1.367 . S
C1895 C1897 1.433 . S
C1896 C1892 1.350 . S
C1896 C1893 1.463 . S
C1896 N1900 1.427 . S
C1897 H1887 0.929 . S
C1897 C1895 1.433 . S
C1897 N1900 1.384 . S
C1898 H1889 0.929 . S
C1898 C1890 1.378 . S
C1898 C1893 1.350 . S
C1899 H1886 0.929 . S
C1899 C1891 1.433 . S
C1899 N1901 1.384 . S
N1900 C1896 1.427 . S
N1900 C1897 1.384 . S
N1901 C1893 1.427 . S
N1901 C1899 1.384 . S
H1902 C1908 0.930 . S
H1903 C1912 0.930 . S
H1904 C1917 0.929 . S
H1905 C1915 0.929 . S
H1906 C1910 0.929 . S
H1907 C1916 0.929 . S
C1908 H1902 0.930 . S
C1908 C1909 1.367 . S
C1908 C1916 1.378 . S
C1909 C1908 1.367 . S
C1909 C1917 1.433 . S
C1910 H1906 0.929 . S
C1910 C1912 1.378 . S
C1910 C1914 1.350 . S
C1911 C1914 1.463 . S
C1911 C1916 1.350 . S
C1911 N1919 1.427 . S
C1912 H1903 0.930 . S
C1912 C1910 1.378 . S
C1912 C1913 1.367 . S
C1913 C1912 1.367 . S
C1913 C1915 1.433 . S
C1914 C1910 1.350 . S
C1914 C1911 1.463 . S
C1914 N1918 1.427 . S
C1915 H1905 0.929 . S
C1915 C1913 1.433 . S
C1915 N1918 1.384 . S
C1916 H1907 0.929 . S
C1916 C1908 1.378 . S
C1916 C1911 1.350 . S
C1917 H1904 0.929 . S
C1917 C1909 1.433 . S
C1917 N1919 1.384 . S
N1918 C1914 1.427 . S
N1918 C1915 1.384 . S
N1919 C1911 1.427 . S
N1919 C1917 1.384 . S
H1920 C1926 0.930 . S
H1921 C1930 0.930 . S
H1922 C1935 0.929 . S
H1923 C1933 0.929 . S
H1924 C1928 0.929 . S
H1925 C1934 0.929 . S
C1926 H1920 0.930 . S
C1926 C1927 1.367 . S
C1926 C1934 1.378 . S
C1927 C1926 1.367 . S
C1927 C1935 1.433 . S
C1928 H1924 0.929 . S
C1928 C1930 1.378 . S
C1928 C1932 1.350 . S
C1929 C1932 1.463 . S
C1929 C1934 1.350 . S
C1929 N1937 1.427 . S
C1930 H1921 0.930 . S
C1930 C1928 1.378 . S
C1930 C1931 1.367 . S
C1931 C1930 1.367 . S
C1931 C1933 1.433 . S
C1932 C1928 1.350 . S
C1932 C1929 1.463 . S
C1932 N1936 1.427 . S
C1933 H1923 0.929 . S
C1933 C1931 1.433 . S
C1933 N1936 1.384 . S
C1934 H1925 0.929 . S
C1934 C1926 1.378 . S
C1934 C1929 1.350 . S
C1935 H1922 0.929 . S
C1935 C1927 1.433 . S
C1935 N1937 1.384 . S
N1936 C1932 1.427 . S
N1936 C1933 1.384 . S
N1937 C1929 1.427 . S
N1937 C1935 1.384 . S
H1938 C1944 0.930 . S
H1939 C1948 0.930 . S
H1940 C1953 0.929 . S
H1941 C1951 0.929 . S
H1942 C1946 0.929 1_455 S
H1943 C1952 0.929 . S
C1944 H1938 0.930 . S
C1944 C1945 1.367 1_655 S
C1944 C1952 1.378 . S
C1945 C1944 1.367 1_455 S
C1945 C1953 1.433 . S
C1946 H1942 0.929 1_655 S
C1946 C1948 1.378 . S
C1946 C1950 1.350 . S
C1947 C1950 1.463 . S
C1947 C1952 1.350 . S
C1947 N1955 1.427 1_655 S
C1948 H1939 0.930 . S
C1948 C1946 1.378 . S
C1948 C1949 1.367 . S
C1949 C1948 1.367 . S
C1949 C1951 1.433 . S
C1950 C1946 1.350 . S
C1950 C1947 1.463 . S
C1950 N1954 1.427 . S
C1951 H1941 0.929 . S
C1951 C1949 1.433 . S
C1951 N1954 1.384 . S
C1952 H1943 0.929 . S
C1952 C1944 1.378 . S
C1952 C1947 1.350 . S
C1953 H1940 0.929 . S
C1953 C1945 1.433 . S
C1953 N1955 1.384 . S
N1954 C1950 1.427 . S
N1954 C1951 1.384 . S
N1955 C1947 1.427 1_455 S
N1955 C1953 1.384 . S
H1956 C1962 0.930 . S
H1957 C1966 0.930 . S
H1958 C1971 0.929 . S
H1959 C1969 0.929 . S
H1960 C1964 0.929 . S
H1961 C1970 0.929 . S
C1962 H1956 0.930 . S
C1962 C1963 1.367 . S
C1962 C1970 1.378 . S
C1963 C1962 1.367 . S
C1963 C1971 1.433 . S
C1964 H1960 0.929 . S
C1964 C1966 1.378 . S
C1964 C1968 1.350 . S
C1965 C1968 1.463 . S
C1965 C1970 1.350 . S
C1965 N1973 1.427 . S
C1966 H1957 0.930 . S
C1966 C1964 1.378 . S
C1966 C1967 1.367 . S
C1967 C1966 1.367 . S
C1967 C1969 1.433 . S
C1968 C1964 1.350 . S
C1968 C1965 1.463 . S
C1968 N1972 1.427 . S
C1969 H1959 0.929 . S
C1969 C1967 1.433 . S
C1969 N1972 1.384 . S
C1970 H1961 0.929 . S
C1970 C1962 1.378 . S
C1970 C1965 1.350 . S
C1971 H1958 0.929 . S
C1971 C1963 1.433 . S
C1971 N1973 1.384 . S
N1972 C1968 1.427 . S
N1972 C1969 1.384 . S
N1973 C1965 1.427 . S
N1973 C1971 1.384 . S
H1974 C1980 0.933 . S
H1975 C1984 0.930 . S
H1976 C1989 0.929 . S
H1977 C1987 0.929 . S
H1978 C1982 0.929 . S
H1979 C1988 0.929 . S
C1980 H1974 0.933 . S
C1980 C1981 1.367 . S
C1980 C1988 1.378 1_455 S
C1981 C1980 1.367 . S
C1981 C1989 1.433 . S
C1982 H1978 0.929 . S
C1982 C1984 1.378 . S
C1982 C1986 1.350 . S
C1983 C1986 1.463 . S
C1983 C1988 1.350 . S
C1983 N1991 1.427 1_655 S
C1984 H1975 0.930 . S
C1984 C1982 1.378 . S
C1984 C1985 1.367 . S
C1985 C1984 1.367 . S
C1985 C1987 1.433 . S
C1986 C1982 1.350 . S
C1986 C1983 1.463 . S
C1986 N1990 1.427 . S
C1987 H1977 0.929 . S
C1987 C1985 1.433 . S
C1987 N1990 1.384 . S
C1988 H1979 0.929 . S
C1988 C1980 1.378 1_655 S
C1988 C1983 1.350 . S
C1989 H1976 0.929 . S
C1989 C1981 1.433 . S
C1989 N1991 1.384 . S
N1990 C1986 1.427 . S
N1990 C1987 1.384 . S
N1991 C1983 1.427 1_455 S
N1991 C1989 1.384 . S
H1992 C1998 0.930 . S
H1993 C2002 0.930 . S
H1994 C2007 0.929 . S
H1995 C2005 0.929 . S
H1996 C2000 0.929 . S
H1997 C2006 0.929 . S
C1998 H1992 0.930 . S
C1998 C1999 1.367 . S
C1998 C2006 1.378 . S
C1999 C1998 1.367 . S
C1999 C2007 1.433 . S
C2000 H1996 0.929 . S
C2000 C2002 1.378 . S
C2000 C2004 1.350 . S
C2001 C2004 1.463 . S
C2001 C2006 1.350 . S
C2001 N2009 1.427 . S
C2002 H1993 0.930 . S
C2002 C2000 1.378 . S
C2002 C2003 1.367 . S
C2003 C2002 1.367 . S
C2003 C2005 1.433 . S
C2004 C2000 1.350 . S
C2004 C2001 1.463 . S
C2004 N2008 1.427 . S
C2005 H1995 0.929 . S
C2005 C2003 1.433 . S
C2005 N2008 1.384 . S
C2006 H1997 0.929 . S
C2006 C1998 1.378 . S
C2006 C2001 1.350 . S
C2007 H1994 0.929 . S
C2007 C1999 1.433 . S
C2007 N2009 1.384 . S
N2008 C2004 1.427 . S
N2008 C2005 1.384 . S
N2009 C2001 1.427 . S
N2009 C2007 1.384 . S
H2010 C2016 0.930 . S
H2011 C2020 0.930 . S
H2012 C2025 0.929 . S
H2013 C2023 0.929 . S
H2014 C2018 0.929 . S
H2015 C2024 0.929 . S
C2016 H2010 0.930 . S
C2016 C2017 1.367 . S
C2016 C2024 1.378 . S
C2017 C2016 1.367 . S
C2017 C2025 1.433 . S
C2018 H2014 0.929 . S
C2018 C2020 1.378 . S
C2018 C2022 1.350 1_655 S
C2019 C2022 1.463 . S
C2019 C2024 1.350 . S
C2019 N2027 1.427 . S
C2020 H2011 0.930 . S
C2020 C2018 1.378 . S
C2020 C2021 1.367 . S
C2021 C2020 1.367 . S
C2021 C2023 1.433 . S
C2022 C2018 1.350 1_455 S
C2022 C2019 1.463 . S
C2022 N2026 1.427 . S
C2023 H2013 0.929 . S
C2023 C2021 1.433 . S
C2023 N2026 1.384 1_655 S
C2024 H2015 0.929 . S
C2024 C2016 1.378 . S
C2024 C2019 1.350 . S
C2025 H2012 0.929 . S
C2025 C2017 1.433 . S
C2025 N2027 1.384 . S
N2026 C2022 1.427 . S
N2026 C2023 1.384 1_455 S
N2027 C2019 1.427 . S
N2027 C2025 1.384 . S
H2028 C2034 0.930 . S
H2029 C2038 0.930 . S
H2030 C2043 0.929 . S
H2031 C2041 0.929 . S
H2032 C2036 0.929 . S
H2033 C2042 0.929 . S
C2034 H2028 0.930 . S
C2034 C2035 1.367 . S
C2034 C2042 1.378 . S
C2035 C2034 1.367 . S
C2035 C2043 1.433 . S
C2036 H2032 0.929 . S
C2036 C2038 1.378 . S
C2036 C2040 1.350 . S
C2037 C2040 1.463 . S
C2037 C2042 1.350 . S
C2037 N2045 1.427 . S
C2038 H2029 0.930 . S
C2038 C2036 1.378 . S
C2038 C2039 1.367 . S
C2039 C2038 1.367 . S
C2039 C2041 1.433 . S
C2040 C2036 1.350 . S
C2040 C2037 1.463 . S
C2040 N2044 1.427 . S
C2041 H2031 0.929 . S
C2041 C2039 1.433 . S
C2041 N2044 1.384 . S
C2042 H2033 0.929 . S
C2042 C2034 1.378 . S
C2042 C2037 1.350 . S
C2043 H2030 0.929 . S
C2043 C2035 1.433 . S
C2043 N2045 1.384 . S
N2044 C2040 1.427 . S
N2044 C2041 1.384 . S
N2045 C2037 1.427 . S
N2045 C2043 1.384 . S
H2046 C2052 0.930 . S
H2047 C2056 0.930 . S
H2048 C2061 0.929 . S
H2049 C2059 0.929 . S
H2050 C2054 0.929 . S
H2051 C2060 0.929 . S
C2052 H2046 0.930 . S
C2052 C2053 1.367 . S
C2052 C2060 1.378 . S
C2053 C2052 1.367 . S
C2053 C2061 1.433 . S
C2054 H2050 0.929 . S
C2054 C2056 1.378 . S
C2054 C2058 1.350 1_655 S
C2055 C2058 1.463 . S
C2055 C2060 1.350 . S
C2055 N2063 1.427 . S
C2056 H2047 0.930 . S
C2056 C2054 1.378 . S
C2056 C2057 1.367 . S
C2057 C2056 1.367 . S
C2057 C2059 1.433 1_655 S
C2058 C2054 1.350 1_455 S
C2058 C2055 1.463 . S
C2058 N2062 1.427 . S
C2059 H2049 0.929 . S
C2059 C2057 1.433 1_455 S
C2059 N2062 1.384 . S
C2060 H2051 0.929 . S
C2060 C2052 1.378 . S
C2060 C2055 1.350 . S
C2061 H2048 0.929 . S
C2061 C2053 1.433 . S
C2061 N2063 1.384 . S
N2062 C2058 1.427 . S
N2062 C2059 1.384 . S
N2063 C2055 1.427 . S
N2063 C2061 1.384 . S
H2064 C2070 0.930 . S
H2065 C2074 0.930 . S
H2066 C2079 0.929 . S
H2067 C2077 0.929 . S
H2068 C2072 0.929 . S
H2069 C2078 0.929 . S
C2070 H2064 0.930 . S
C2070 C2071 1.367 . S
C2070 C2078 1.378 . S
C2071 C2070 1.367 . S
C2071 C2079 1.433 . S
C2072 H2068 0.929 . S
C2072 C2074 1.378 . S
C2072 C2076 1.350 . S
C2073 C2076 1.463 . S
C2073 C2078 1.350 . S
C2073 N2081 1.427 . S
C2074 H2065 0.930 . S
C2074 C2072 1.378 . S
C2074 C2075 1.367 . S
C2075 C2074 1.367 . S
C2075 C2077 1.433 . S
C2076 C2072 1.350 . S
C2076 C2073 1.463 . S
C2076 N2080 1.427 . S
C2077 H2067 0.929 . S
C2077 C2075 1.433 . S
C2077 N2080 1.384 . S
C2078 H2069 0.929 . S
C2078 C2070 1.378 . S
C2078 C2073 1.350 . S
C2079 H2066 0.929 . S
C2079 C2071 1.433 . S
C2079 N2081 1.384 . S
N2080 C2076 1.427 . S
N2080 C2077 1.384 . S
N2081 C2073 1.427 . S
N2081 C2079 1.384 . S
H2082 C2088 0.930 . S
H2083 C2092 0.930 . S
H2084 C2097 0.926 1_655 S
H2085 C2095 0.929 . S
H2086 C2090 0.929 . S
H2087 C2096 0.929 . S
C2088 H2082 0.930 . S
C2088 C2089 1.367 . S
C2088 C2096 1.378 . S
C2089 C2088 1.367 . S
C2089 C2097 1.445 . S
C2090 H2086 0.929 . S
C2090 C2092 1.378 . S
C2090 C2094 1.350 . S
C2091 C2094 1.463 . S
C2091 C2096 1.350 1_655 S
C2091 N2099 1.427 . S
C2092 H2083 0.930 . S
C2092 C2090 1.378 . S
C2092 C2093 1.367 . S
C2093 C2092 1.367 . S
C2093 C2095 1.433 . S
C2094 C2090 1.350 . S
C2094 C2091 1.463 . S
C2094 N2098 1.427 . S
C2095 H2085 0.929 . S
C2095 C2093 1.433 . S
C2095 N2098 1.384 . S
C2096 H2087 0.929 . S
C2096 C2088 1.378 . S
C2096 C2091 1.350 1_455 S
C2097 H2084 0.926 1_455 S
C2097 C2089 1.445 . S
C2097 N2099 1.376 1_455 S
N2098 C2094 1.427 . S
N2098 C2095 1.384 . S
N2099 C2091 1.427 . S
N2099 C2097 1.376 1_655 S
H2100 C2106 0.930 . S
H2101 C2110 0.930 . S
H2102 C2115 0.929 . S
H2103 C2113 0.929 . S
H2104 C2108 0.929 . S
H2105 C2114 0.929 . S
C2106 H2100 0.930 . S
C2106 C2107 1.367 . S
C2106 C2114 1.378 . S
C2107 C2106 1.367 . S
C2107 C2115 1.433 . S
C2108 H2104 0.929 . S
C2108 C2110 1.378 . S
C2108 C2112 1.350 . S
C2109 C2112 1.463 . S
C2109 C2114 1.350 . S
C2109 N2117 1.427 . S
C2110 H2101 0.930 . S
C2110 C2108 1.378 . S
C2110 C2111 1.367 . S
C2111 C2110 1.367 . S
C2111 C2113 1.433 . S
C2112 C2108 1.350 . S
C2112 C2109 1.463 . S
C2112 N2116 1.427 . S
C2113 H2103 0.929 . S
C2113 C2111 1.433 . S
C2113 N2116 1.384 . S
C2114 H2105 0.929 . S
C2114 C2106 1.378 . S
C2114 C2109 1.350 . S
C2115 H2102 0.929 . S
C2115 C2107 1.433 . S
C2115 N2117 1.384 . S
N2116 C2112 1.427 . S
N2116 C2113 1.384 . S
N2117 C2109 1.427 . S
N2117 C2115 1.384 . S
H2118 C2124 0.930 . S
H2119 C2128 0.930 . S
H2120 C2133 0.929 . S
H2121 C2131 0.923 1_655 S
H2122 C2126 0.929 . S
H2123 C2132 0.929 . S
C2124 H2118 0.930 . S
C2124 C2125 1.367 . S
C2124 C2132 1.378 . S
C2125 C2124 1.367 . S
C2125 C2133 1.433 . S
C2126 H2122 0.929 . S
C2126 C2128 1.378 . S
C2126 C2130 1.350 1_455 S
C2127 C2130 1.463 . S
C2127 C2132 1.350 . S
C2127 N2135 1.427 . S
C2128 H2119 0.930 . S
C2128 C2126 1.378 . S
C2128 C2129 1.367 . S
C2129 C2128 1.367 . S
C2129 C2131 1.471 . S
C2130 C2126 1.350 1_655 S
C2130 C2127 1.463 . S
C2130 N2134 1.427 . S
C2131 H2121 0.923 1_455 S
C2131 C2129 1.471 . S
C2131 N2134 1.356 1_455 S
C2132 H2123 0.929 . S
C2132 C2124 1.378 . S
C2132 C2127 1.350 . S
C2133 H2120 0.929 . S
C2133 C2125 1.433 . S
C2133 N2135 1.384 . S
N2134 C2130 1.427 . S
N2134 C2131 1.356 1_655 S
N2135 C2127 1.427 . S
N2135 C2133 1.384 . S
H2136 C2142 0.930 . S
H2137 C2146 0.930 . S
H2138 C2151 0.929 . S
H2139 C2149 0.929 . S
H2140 C2144 0.929 . S
H2141 C2150 0.929 . S
C2142 H2136 0.930 . S
C2142 C2143 1.367 . S
C2142 C2150 1.378 . S
C2143 C2142 1.367 . S
C2143 C2151 1.433 . S
C2144 H2140 0.929 . S
C2144 C2146 1.378 . S
C2144 C2148 1.350 . S
C2145 C2148 1.463 . S
C2145 C2150 1.350 . S
C2145 N2153 1.427 . S
C2146 H2137 0.930 . S
C2146 C2144 1.378 . S
C2146 C2147 1.367 . S
C2147 C2146 1.367 . S
C2147 C2149 1.433 . S
C2148 C2144 1.350 . S
C2148 C2145 1.463 . S
C2148 N2152 1.427 . S
C2149 H2139 0.929 . S
C2149 C2147 1.433 . S
C2149 N2152 1.384 . S
C2150 H2141 0.929 . S
C2150 C2142 1.378 . S
C2150 C2145 1.350 . S
C2151 H2138 0.929 . S
C2151 C2143 1.433 . S
C2151 N2153 1.384 . S
N2152 C2148 1.427 . S
N2152 C2149 1.384 . S
N2153 C2145 1.427 . S
N2153 C2151 1.384 . S
H2154 C2160 0.930 . S
H2155 C2164 0.930 . S
H2156 C2169 0.929 . S
H2157 C2167 0.929 . S
H2158 C2162 0.929 . S
H2159 C2168 0.929 1_655 S
C2160 H2154 0.930 . S
C2160 C2161 1.367 . S
C2160 C2168 1.378 . S
C2161 C2160 1.367 . S
C2161 C2169 1.433 . S
C2162 H2158 0.929 . S
C2162 C2164 1.378 . S
C2162 C2166 1.350 . S
C2163 C2166 1.463 . S
C2163 C2168 1.350 . S
C2163 N2171 1.427 . S
C2164 H2155 0.930 . S
C2164 C2162 1.378 . S
C2164 C2165 1.367 1_455 S
C2165 C2164 1.367 1_655 S
C2165 C2167 1.433 . S
C2166 C2162 1.350 . S
C2166 C2163 1.463 . S
C2166 N2170 1.427 1_455 S
C2167 H2157 0.929 . S
C2167 C2165 1.433 . S
C2167 N2170 1.384 . S
C2168 H2159 0.929 1_455 S
C2168 C2160 1.378 . S
C2168 C2163 1.350 . S
C2169 H2156 0.929 . S
C2169 C2161 1.433 . S
C2169 N2171 1.384 . S
N2170 C2166 1.427 1_655 S
N2170 C2167 1.384 . S
N2171 C2163 1.427 . S
N2171 C2169 1.384 . S
H2172 C2178 0.930 . S
H2173 C2182 0.930 . S
H2174 C2187 0.929 . S
H2175 C2185 0.929 . S
H2176 C2180 0.929 . S
H2177 C2186 0.929 . S
C2178 H2172 0.930 . S
C2178 C2179 1.367 . S
C2178 C2186 1.378 . S
C2179 C2178 1.367 . S
C2179 C2187 1.433 . S
C2180 H2176 0.929 . S
C2180 C2182 1.378 . S
C2180 C2184 1.350 . S
C2181 C2184 1.463 . S
C2181 C2186 1.350 . S
C2181 N2189 1.427 . S
C2182 H2173 0.930 . S
C2182 C2180 1.378 . S
C2182 C2183 1.367 . S
C2183 C2182 1.367 . S
C2183 C2185 1.433 . S
C2184 C2180 1.350 . S
C2184 C2181 1.463 . S
C2184 N2188 1.427 . S
C2185 H2175 0.929 . S
C2185 C2183 1.433 . S
C2185 N2188 1.384 . S
C2186 H2177 0.929 . S
C2186 C2178 1.378 . S
C2186 C2181 1.350 . S
C2187 H2174 0.929 . S
C2187 C2179 1.433 . S
C2187 N2189 1.384 . S
N2188 C2184 1.427 . S
N2188 C2185 1.384 . S
N2189 C2181 1.427 . S
N2189 C2187 1.384 . S
H2190 C2196 0.944 . S
H2191 C2200 0.930 . S
H2192 C2205 0.929 . S
H2193 C2203 0.929 . S
H2194 C2198 0.929 . S
H2195 C2204 0.929 . S
C2196 H2190 0.944 . S
C2196 C2197 1.332 1_455 S
C2196 C2204 1.402 . S
C2197 C2196 1.332 1_655 S
C2197 C2205 1.433 . S
C2198 H2194 0.929 . S
C2198 C2200 1.378 . S
C2198 C2202 1.350 . S
C2199 C2202 1.463 . S
C2199 C2204 1.350 . S
C2199 N2207 1.427 1_455 S
C2200 H2191 0.930 . S
C2200 C2198 1.378 . S
C2200 C2201 1.367 . S
C2201 C2200 1.367 . S
C2201 C2203 1.433 . S
C2202 C2198 1.350 . S
C2202 C2199 1.463 . S
C2202 N2206 1.427 . S
C2203 H2193 0.929 . S
C2203 C2201 1.433 . S
C2203 N2206 1.384 . S
C2204 H2195 0.929 . S
C2204 C2196 1.402 . S
C2204 C2199 1.350 . S
C2205 H2192 0.929 . S
C2205 C2197 1.433 . S
C2205 N2207 1.384 . S
N2206 C2202 1.427 . S
N2206 C2203 1.384 . S
N2207 C2199 1.427 1_655 S
N2207 C2205 1.384 . S
H2208 C2214 0.930 . S
H2209 C2218 0.930 . S
H2210 C2223 0.929 . S
H2211 C2221 0.929 . S
H2212 C2216 0.929 . S
H2213 C2222 0.929 . S
C2214 H2208 0.930 . S
C2214 C2215 1.367 . S
C2214 C2222 1.378 . S
C2215 C2214 1.367 . S
C2215 C2223 1.433 . S
C2216 H2212 0.929 . S
C2216 C2218 1.378 . S
C2216 C2220 1.350 . S
C2217 C2220 1.463 . S
C2217 C2222 1.350 . S
C2217 N2225 1.427 . S
C2218 H2209 0.930 . S
C2218 C2216 1.378 . S
C2218 C2219 1.367 . S
C2219 C2218 1.367 . S
C2219 C2221 1.433 . S
C2220 C2216 1.350 . S
C2220 C2217 1.463 . S
C2220 N2224 1.427 . S
C2221 H2211 0.929 . S
C2221 C2219 1.433 . S
C2221 N2224 1.384 . S
C2222 H2213 0.929 . S
C2222 C2214 1.378 . S
C2222 C2217 1.350 . S
C2223 H2210 0.929 . S
C2223 C2215 1.433 . S
C2223 N2225 1.384 . S
N2224 C2220 1.427 . S
N2224 C2221 1.384 . S
N2225 C2217 1.427 . S
N2225 C2223 1.384 . S
H2226 C2232 0.930 . S
H2227 C2236 0.930 . S
H2228 C2241 0.929 . S
H2229 C2239 0.929 . S
H2230 C2234 0.929 . S
H2231 C2240 0.929 . S
C2232 H2226 0.930 . S
C2232 C2233 1.367 . S
C2232 C2240 1.378 . S
C2233 C2232 1.367 . S
C2233 C2241 1.433 . S
C2234 H2230 0.929 . S
C2234 C2236 1.378 . S
C2234 C2238 1.350 . S
C2235 C2238 1.463 . S
C2235 C2240 1.350 . S
C2235 N2243 1.427 . S
C2236 H2227 0.930 . S
C2236 C2234 1.378 . S
C2236 C2237 1.367 . S
C2237 C2236 1.367 . S
C2237 C2239 1.433 . S
C2238 C2234 1.350 . S
C2238 C2235 1.463 . S
C2238 N2242 1.427 . S
C2239 H2229 0.929 . S
C2239 C2237 1.433 . S
C2239 N2242 1.384 . S
C2240 H2231 0.929 . S
C2240 C2232 1.378 . S
C2240 C2235 1.350 . S
C2241 H2228 0.929 . S
C2241 C2233 1.433 . S
C2241 N2243 1.384 . S
N2242 C2238 1.427 . S
N2242 C2239 1.384 . S
N2243 C2235 1.427 . S
N2243 C2241 1.384 . S
H2244 C2250 0.930 . S
H2245 C2254 0.930 . S
H2246 C2259 0.929 . S
H2247 C2257 0.929 . S
H2248 C2252 0.929 . S
H2249 C2258 0.929 . S
C2250 H2244 0.930 . S
C2250 C2251 1.367 . S
C2250 C2258 1.378 . S
C2251 C2250 1.367 . S
C2251 C2259 1.433 . S
C2252 H2248 0.929 . S
C2252 C2254 1.378 . S
C2252 C2256 1.350 . S
C2253 C2256 1.463 . S
C2253 C2258 1.350 . S
C2253 N2261 1.427 . S
C2254 H2245 0.930 . S
C2254 C2252 1.378 . S
C2254 C2255 1.367 . S
C2255 C2254 1.367 . S
C2255 C2257 1.433 . S
C2256 C2252 1.350 . S
C2256 C2253 1.463 . S
C2256 N2260 1.427 . S
C2257 H2247 0.929 . S
C2257 C2255 1.433 . S
C2257 N2260 1.384 . S
C2258 H2249 0.929 . S
C2258 C2250 1.378 . S
C2258 C2253 1.350 . S
C2259 H2246 0.929 . S
C2259 C2251 1.433 . S
C2259 N2261 1.384 . S
N2260 C2256 1.427 . S
N2260 C2257 1.384 . S
N2261 C2253 1.427 . S
N2261 C2259 1.384 . S
H2262 C2268 0.930 . S
H2263 C2272 0.930 . S
H2264 C2277 0.929 . S
H2265 C2275 0.929 . S
H2266 C2270 0.929 . S
H2267 C2276 0.929 . S
C2268 H2262 0.930 . S
C2268 C2269 1.367 . S
C2268 C2276 1.378 . S
C2269 C2268 1.367 . S
C2269 C2277 1.433 . S
C2270 H2266 0.929 . S
C2270 C2272 1.378 . S
C2270 C2274 1.350 . S
C2271 C2274 1.463 . S
C2271 C2276 1.350 . S
C2271 N2279 1.427 . S
C2272 H2263 0.930 . S
C2272 C2270 1.378 . S
C2272 C2273 1.367 . S
C2273 C2272 1.367 . S
C2273 C2275 1.433 . S
C2274 C2270 1.350 . S
C2274 C2271 1.463 . S
C2274 N2278 1.427 . S
C2275 H2265 0.929 . S
C2275 C2273 1.433 . S
C2275 N2278 1.384 . S
C2276 H2267 0.929 . S
C2276 C2268 1.378 . S
C2276 C2271 1.350 . S
C2277 H2264 0.929 . S
C2277 C2269 1.433 . S
C2277 N2279 1.384 . S
N2278 C2274 1.427 . S
N2278 C2275 1.384 . S
N2279 C2271 1.427 . S
N2279 C2277 1.384 . S
H2280 C2286 0.930 . S
H2281 C2290 0.930 . S
H2282 C2295 0.929 . S
H2283 C2293 0.929 . S
H2284 C2288 0.929 . S
H2285 C2294 0.929 . S
C2286 H2280 0.930 . S
C2286 C2287 1.367 . S
C2286 C2294 1.378 . S
C2287 C2286 1.367 . S
C2287 C2295 1.433 . S
C2288 H2284 0.929 . S
C2288 C2290 1.378 . S
C2288 C2292 1.350 . S
C2289 C2292 1.463 . S
C2289 C2294 1.350 . S
C2289 N2297 1.427 . S
C2290 H2281 0.930 . S
C2290 C2288 1.378 . S
C2290 C2291 1.367 . S
C2291 C2290 1.367 . S
C2291 C2293 1.433 . S
C2292 C2288 1.350 . S
C2292 C2289 1.463 . S
C2292 N2296 1.427 . S
C2293 H2283 0.929 . S
C2293 C2291 1.433 . S
C2293 N2296 1.384 . S
C2294 H2285 0.929 . S
C2294 C2286 1.378 . S
C2294 C2289 1.350 . S
C2295 H2282 0.929 . S
C2295 C2287 1.433 . S
C2295 N2297 1.384 . S
N2296 C2292 1.427 . S
N2296 C2293 1.384 . S
N2297 C2289 1.427 . S
N2297 C2295 1.384 . S
H2298 C2304 0.930 . S
H2299 C2308 0.930 . S
H2300 C2313 0.929 . S
H2301 C2311 0.929 . S
H2302 C2306 0.929 . S
H2303 C2312 0.929 . S
C2304 H2298 0.930 . S
C2304 C2305 1.367 . S
C2304 C2312 1.378 . S
C2305 C2304 1.367 . S
C2305 C2313 1.433 . S
C2306 H2302 0.929 . S
C2306 C2308 1.378 . S
C2306 C2310 1.350 . S
C2307 C2310 1.463 . S
C2307 C2312 1.350 . S
C2307 N2315 1.427 . S
C2308 H2299 0.930 . S
C2308 C2306 1.378 . S
C2308 C2309 1.367 . S
C2309 C2308 1.367 . S
C2309 C2311 1.433 . S
C2310 C2306 1.350 . S
C2310 C2307 1.463 . S
C2310 N2314 1.427 . S
C2311 H2301 0.929 . S
C2311 C2309 1.433 . S
C2311 N2314 1.384 . S
C2312 H2303 0.929 . S
C2312 C2304 1.378 . S
C2312 C2307 1.350 . S
C2313 H2300 0.929 . S
C2313 C2305 1.433 . S
C2313 N2315 1.384 . S
N2314 C2310 1.427 . S
N2314 C2311 1.384 . S
N2315 C2307 1.427 . S
N2315 C2313 1.384 . S
H2316 C2322 0.930 . S
H2317 C2326 0.930 . S
H2318 C2331 0.929 . S
H2319 C2329 0.929 . S
H2320 C2324 0.929 . S
H2321 C2330 0.929 . S
C2322 H2316 0.930 . S
C2322 C2323 1.367 . S
C2322 C2330 1.378 . S
C2323 C2322 1.367 . S
C2323 C2331 1.433 . S
C2324 H2320 0.929 . S
C2324 C2326 1.378 . S
C2324 C2328 1.350 . S
C2325 C2328 1.463 . S
C2325 C2330 1.350 . S
C2325 N2333 1.427 . S
C2326 H2317 0.930 . S
C2326 C2324 1.378 . S
C2326 C2327 1.367 . S
C2327 C2326 1.367 . S
C2327 C2329 1.433 . S
C2328 C2324 1.350 . S
C2328 C2325 1.463 . S
C2328 N2332 1.427 . S
C2329 H2319 0.929 . S
C2329 C2327 1.433 . S
C2329 N2332 1.384 . S
C2330 H2321 0.929 . S
C2330 C2322 1.378 . S
C2330 C2325 1.350 . S
C2331 H2318 0.929 . S
C2331 C2323 1.433 . S
C2331 N2333 1.384 . S
N2332 C2328 1.427 . S
N2332 C2329 1.384 . S
N2333 C2325 1.427 . S
N2333 C2331 1.384 . S
H2334 C2340 0.930 . S
H2335 C2344 0.930 . S
H2336 C2349 0.929 . S
H2337 C2347 0.929 . S
H2338 C2342 0.929 . S
H2339 C2348 0.929 . S
C2340 H2334 0.930 . S
C2340 C2341 1.367 . S
C2340 C2348 1.378 . S
C2341 C2340 1.367 . S
C2341 C2349 1.433 . S
C2342 H2338 0.929 . S
C2342 C2344 1.378 . S
C2342 C2346 1.350 . S
C2343 C2346 1.463 . S
C2343 C2348 1.350 . S
C2343 N2351 1.427 . S
C2344 H2335 0.930 . S
C2344 C2342 1.378 . S
C2344 C2345 1.367 . S
C2345 C2344 1.367 . S
C2345 C2347 1.433 . S
C2346 C2342 1.350 . S
C2346 C2343 1.463 . S
C2346 N2350 1.427 . S
C2347 H2337 0.929 . S
C2347 C2345 1.433 . S
C2347 N2350 1.384 . S
C2348 H2339 0.929 . S
C2348 C2340 1.378 . S
C2348 C2343 1.350 . S
C2349 H2336 0.929 . S
C2349 C2341 1.433 . S
C2349 N2351 1.384 . S
N2350 C2346 1.427 . S
N2350 C2347 1.384 . S
N2351 C2343 1.427 . S
N2351 C2349 1.384 . S
H2352 C2358 0.930 . S
H2353 C2362 0.930 . S
H2354 C2367 0.929 . S
H2355 C2365 0.929 . S
H2356 C2360 0.929 . S
H2357 C2366 0.929 . S
C2358 H2352 0.930 . S
C2358 C2359 1.367 . S
C2358 C2366 1.378 . S
C2359 C2358 1.367 . S
C2359 C2367 1.433 . S
C2360 H2356 0.929 . S
C2360 C2362 1.378 . S
C2360 C2364 1.350 . S
C2361 C2364 1.463 . S
C2361 C2366 1.350 . S
C2361 N2369 1.427 . S
C2362 H2353 0.930 . S
C2362 C2360 1.378 . S
C2362 C2363 1.367 . S
C2363 C2362 1.367 . S
C2363 C2365 1.433 . S
C2364 C2360 1.350 . S
C2364 C2361 1.463 . S
C2364 N2368 1.427 . S
C2365 H2355 0.929 . S
C2365 C2363 1.433 . S
C2365 N2368 1.384 . S
C2366 H2357 0.929 . S
C2366 C2358 1.378 . S
C2366 C2361 1.350 . S
C2367 H2354 0.929 . S
C2367 C2359 1.433 . S
C2367 N2369 1.384 . S
N2368 C2364 1.427 . S
N2368 C2365 1.384 . S
N2369 C2361 1.427 . S
N2369 C2367 1.384 . S
H2370 C2376 0.930 . S
H2371 C2380 0.930 . S
H2372 C2385 0.929 . S
H2373 C2383 0.929 . S
H2374 C2378 0.929 . S
H2375 C2384 0.929 . S
C2376 H2370 0.930 . S
C2376 C2377 1.367 . S
C2376 C2384 1.378 . S
C2377 C2376 1.367 . S
C2377 C2385 1.433 . S
C2378 H2374 0.929 . S
C2378 C2380 1.378 . S
C2378 C2382 1.350 . S
C2379 C2382 1.463 . S
C2379 C2384 1.350 . S
C2379 N2387 1.427 . S
C2380 H2371 0.930 . S
C2380 C2378 1.378 . S
C2380 C2381 1.367 . S
C2381 C2380 1.367 . S
C2381 C2383 1.433 . S
C2382 C2378 1.350 . S
C2382 C2379 1.463 . S
C2382 N2386 1.427 . S
C2383 H2373 0.929 . S
C2383 C2381 1.433 . S
C2383 N2386 1.384 . S
C2384 H2375 0.929 . S
C2384 C2376 1.378 . S
C2384 C2379 1.350 . S
C2385 H2372 0.929 . S
C2385 C2377 1.433 . S
C2385 N2387 1.384 . S
N2386 C2382 1.427 . S
N2386 C2383 1.384 . S
N2387 C2379 1.427 . S
N2387 C2385 1.384 . S
H2388 C2394 0.930 . S
H2389 C2398 0.930 . S
H2390 C2403 0.929 . S
H2391 C2401 0.929 . S
H2392 C2396 0.929 . S
H2393 C2402 0.929 . S
C2394 H2388 0.930 . S
C2394 C2395 1.367 . S
C2394 C2402 1.378 . S
C2395 C2394 1.367 . S
C2395 C2403 1.433 . S
C2396 H2392 0.929 . S
C2396 C2398 1.378 . S
C2396 C2400 1.350 . S
C2397 C2400 1.463 . S
C2397 C2402 1.350 . S
C2397 N2405 1.427 . S
C2398 H2389 0.930 . S
C2398 C2396 1.378 . S
C2398 C2399 1.367 . S
C2399 C2398 1.367 . S
C2399 C2401 1.433 . S
C2400 C2396 1.350 . S
C2400 C2397 1.463 . S
C2400 N2404 1.427 . S
C2401 H2391 0.929 . S
C2401 C2399 1.433 . S
C2401 N2404 1.384 . S
C2402 H2393 0.929 . S
C2402 C2394 1.378 . S
C2402 C2397 1.350 . S
C2403 H2390 0.929 . S
C2403 C2395 1.433 . S
C2403 N2405 1.384 . S
N2404 C2400 1.427 . S
N2404 C2401 1.384 . S
N2405 C2397 1.427 . S
N2405 C2403 1.384 . S
H2406 C2412 0.930 . S
H2407 C2416 0.930 . S
H2408 C2421 0.929 . S
H2409 C2419 0.929 . S
H2410 C2414 0.929 . S
H2411 C2420 0.929 . S
C2412 H2406 0.930 . S
C2412 C2413 1.367 . S
C2412 C2420 1.378 . S
C2413 C2412 1.367 . S
C2413 C2421 1.433 . S
C2414 H2410 0.929 . S
C2414 C2416 1.378 . S
C2414 C2418 1.350 . S
C2415 C2418 1.463 . S
C2415 C2420 1.350 . S
C2415 N2423 1.427 . S
C2416 H2407 0.930 . S
C2416 C2414 1.378 . S
C2416 C2417 1.367 . S
C2417 C2416 1.367 . S
C2417 C2419 1.433 . S
C2418 C2414 1.350 . S
C2418 C2415 1.463 . S
C2418 N2422 1.427 . S
C2419 H2409 0.929 . S
C2419 C2417 1.433 . S
C2419 N2422 1.384 . S
C2420 H2411 0.929 . S
C2420 C2412 1.378 . S
C2420 C2415 1.350 . S
C2421 H2408 0.929 . S
C2421 C2413 1.433 . S
C2421 N2423 1.384 . S
N2422 C2418 1.427 . S
N2422 C2419 1.384 . S
N2423 C2415 1.427 . S
N2423 C2421 1.384 . S
H2424 C2430 0.930 . S
H2425 C2434 0.930 . S
H2426 C2439 0.929 . S
H2427 C2437 0.929 . S
H2428 C2432 0.929 . S
H2429 C2438 0.929 . S
C2430 H2424 0.930 . S
C2430 C2431 1.367 . S
C2430 C2438 1.378 . S
C2431 C2430 1.367 . S
C2431 C2439 1.433 . S
C2432 H2428 0.929 . S
C2432 C2434 1.378 . S
C2432 C2436 1.350 . S
C2433 C2436 1.463 . S
C2433 C2438 1.350 . S
C2433 N2441 1.427 . S
C2434 H2425 0.930 . S
C2434 C2432 1.378 . S
C2434 C2435 1.367 . S
C2435 C2434 1.367 . S
C2435 C2437 1.433 . S
C2436 C2432 1.350 . S
C2436 C2433 1.463 . S
C2436 N2440 1.427 . S
C2437 H2427 0.929 . S
C2437 C2435 1.433 . S
C2437 N2440 1.384 . S
C2438 H2429 0.929 . S
C2438 C2430 1.378 . S
C2438 C2433 1.350 . S
C2439 H2426 0.929 . S
C2439 C2431 1.433 . S
C2439 N2441 1.384 . S
N2440 C2436 1.427 . S
N2440 C2437 1.384 . S
N2441 C2433 1.427 . S
N2441 C2439 1.384 . S
H2442 C2448 0.930 . S
H2443 C2452 0.930 . S
H2444 C2457 0.929 . S
H2445 C2455 0.929 . S
H2446 C2450 0.929 . S
H2447 C2456 0.929 . S
C2448 H2442 0.930 . S
C2448 C2449 1.367 . S
C2448 C2456 1.378 . S
C2449 C2448 1.367 . S
C2449 C2457 1.433 . S
C2450 H2446 0.929 . S
C2450 C2452 1.378 . S
C2450 C2454 1.350 . S
C2451 C2454 1.463 . S
C2451 C2456 1.350 . S
C2451 N2459 1.427 . S
C2452 H2443 0.930 . S
C2452 C2450 1.378 . S
C2452 C2453 1.367 . S
C2453 C2452 1.367 . S
C2453 C2455 1.433 . S
C2454 C2450 1.350 . S
C2454 C2451 1.463 . S
C2454 N2458 1.427 . S
C2455 H2445 0.929 . S
C2455 C2453 1.433 . S
C2455 N2458 1.384 . S
C2456 H2447 0.929 . S
C2456 C2448 1.378 . S
C2456 C2451 1.350 . S
C2457 H2444 0.929 . S
C2457 C2449 1.433 . S
C2457 N2459 1.384 . S
N2458 C2454 1.427 . S
N2458 C2455 1.384 . S
N2459 C2451 1.427 . S
N2459 C2457 1.384 . S
H2460 C2466 0.930 . S
H2461 C2470 0.930 . S
H2462 C2475 0.929 . S
H2463 C2473 0.929 . S
H2464 C2468 0.929 . S
H2465 C2474 0.929 . S
C2466 H2460 0.930 . S
C2466 C2467 1.367 . S
C2466 C2474 1.378 . S
C2467 C2466 1.367 . S
C2467 C2475 1.433 . S
C2468 H2464 0.929 . S
C2468 C2470 1.378 . S
C2468 C2472 1.350 . S
C2469 C2472 1.463 . S
C2469 C2474 1.350 . S
C2469 N2477 1.427 . S
C2470 H2461 0.930 . S
C2470 C2468 1.378 . S
C2470 C2471 1.367 . S
C2471 C2470 1.367 . S
C2471 C2473 1.433 . S
C2472 C2468 1.350 . S
C2472 C2469 1.463 . S
C2472 N2476 1.427 . S
C2473 H2463 0.929 . S
C2473 C2471 1.433 . S
C2473 N2476 1.384 . S
C2474 H2465 0.929 . S
C2474 C2466 1.378 . S
C2474 C2469 1.350 . S
C2475 H2462 0.929 . S
C2475 C2467 1.433 . S
C2475 N2477 1.384 . S
N2476 C2472 1.427 . S
N2476 C2473 1.384 . S
N2477 C2469 1.427 . S
N2477 C2475 1.384 . S
H2478 C2484 0.930 . S
H2479 C2488 0.930 . S
H2480 C2493 0.929 . S
H2481 C2491 0.929 . S
H2482 C2486 0.929 . S
H2483 C2492 0.929 . S
C2484 H2478 0.930 . S
C2484 C2485 1.367 . S
C2484 C2492 1.378 . S
C2485 C2484 1.367 . S
C2485 C2493 1.433 . S
C2486 H2482 0.929 . S
C2486 C2488 1.378 . S
C2486 C2490 1.350 . S
C2487 C2490 1.463 . S
C2487 C2492 1.350 . S
C2487 N2495 1.427 . S
C2488 H2479 0.930 . S
C2488 C2486 1.378 . S
C2488 C2489 1.367 . S
C2489 C2488 1.367 . S
C2489 C2491 1.433 . S
C2490 C2486 1.350 . S
C2490 C2487 1.463 . S
C2490 N2494 1.427 . S
C2491 H2481 0.929 . S
C2491 C2489 1.433 . S
C2491 N2494 1.384 . S
C2492 H2483 0.929 . S
C2492 C2484 1.378 . S
C2492 C2487 1.350 . S
C2493 H2480 0.929 . S
C2493 C2485 1.433 . S
C2493 N2495 1.384 . S
N2494 C2490 1.427 . S
N2494 C2491 1.384 . S
N2495 C2487 1.427 . S
N2495 C2493 1.384 . S
C1063 N2 0.635 . S
C1067 N332 0.647 . S
C1081 N365 0.600 . S
C1085 N35 0.593 . S
C1099 N266 0.642 . S
C1103 N68 0.627 . S
C1117 N101 0.596 . S
C1121 N299 0.593 . S
C1135 N134 0.648 . S
C1139 N464 0.639 . S
C1153 N167 0.599 . S
C1157 N497 0.593 . S
C1171 N398 0.648 . S
C1175 N200 0.638 . S
C1189 N431 0.617 . S
C1193 N233 0.601 . S
C1207 N860 0.627 . S
C1211 N530 0.642 . S
C1225 N893 0.639 . S
C1229 N563 0.648 . S
C1243 N596 0.595 . S
C1247 N794 0.594 . S
C1261 N827 0.639 . S
C1265 N629 0.648 . S
C1279 N662 0.644 . S
C1283 N992 0.649 . S
C1297 N1025 0.624 . S
C1301 N695 0.640 . S
C1315 N728 0.641 . S
C1319 N926 0.625 . S
C1333 N761 0.647 . S
C1337 N959 0.635 . S
C1351 C7 1.795 . S
C1355 C832 1.796 . S
C1369 C40 1.797 . S
C1373 C799 1.798 . S
C1387 C73 1.795 . S
C1391 C898 1.794 . S
C1405 C106 1.788 . S
C1409 C865 1.789 . S
C1423 C139 1.789 . S
C1427 C964 1.790 . S
C1441 C172 1.795 . S
C1445 C931 1.794 . S
C1459 C1030 1.789 . S
C1463 C205 1.790 . S
C1477 C238 1.793 . S
C1481 C997 1.792 . S
C1495 C568 1.796 . S
C1499 C271 1.796 . S
C1513 C304 1.794 . S
C1517 C535 1.795 . S
C1531 C337 1.797 . S
C1535 C634 1.798 . S
C1549 C601 1.797 . S
C1553 C370 1.797 . S
C1567 C700 1.794 . S
C1571 C403 1.795 . S
C1585 C667 1.793 . S
C1589 C436 1.792 . S
C1603 C469 1.797 . S
C1607 C766 1.797 . S
C1621 C733 1.795 . S
C1625 C502 1.796 . S
C1639 N79 1.045 . S
C1643 N13 1.051 . S
C1657 N46 1.051 . S
C1661 N112 1.045 . S
C1675 N211 1.045 . S
C1679 N145 1.051 . S
C1693 N178 1.050 . S
C1697 N244 1.046 . S
C1711 N277 1.051 . S
C1715 N343 1.045 . S
C1729 N310 1.045 . S
C1733 N376 1.052 . S
C1747 N475 1.046 . S
C1751 N409 1.051 . S
C1765 N508 1.048 . S
C1769 N442 1.049 . S
C1783 N607 1.047 . S
C1787 N541 1.050 . S
C1801 N574 1.049 . S
C1805 N640 1.046 . S
C1819 N673 1.043 . S
C1823 N739 1.053 . S
C1837 N706 1.051 . S
C1841 N772 1.046 . S
C1855 N871 1.052 . S
C1859 N805 1.044 . S
C1873 N838 1.050 . S
C1877 N904 1.046 . S
C1891 N937 1.046 . S
C1895 N1003 1.050 . S
C1909 N1036 1.052 . S
C1913 N970 1.045 . S
C1927 C747 1.960 . S
C1931 C18 1.958 . S
C1945 C516 1.960 . S
C1949 C51 1.961 . S
C1963 C84 1.958 . S
C1967 C945 1.958 . S
C1981 C186 1.960 . S
C1985 C117 1.961 . S
C1999 C150 1.959 . S
C2003 C615 1.958 . S
C2017 C183 1.958 . S
C2021 C384 1.959 . S
C2035 C813 1.961 . S
C2039 C216 1.959 . S
C2053 C249 1.959 . S
C2057 C54 1.958 . S
C2071 C282 1.960 . S
C2075 C1011 1.961 . S
C2089 C252 1.958 . S
C2093 C315 1.958 . S
C2107 C348 1.961 . S
C2111 C681 1.958 . S
C2125 C381 1.958 . S
C2129 C450 1.958 . S
C2143 C879 1.960 . S
C2147 C414 1.958 . S
C2161 C447 1.959 . S
C2165 C120 1.961 . S
C2179 C549 1.959 . S
C2183 C480 1.958 . S
C2197 C318 1.960 . S
C2201 C513 1.958 . S
C2215 C219 1.959 . S
C2219 C546 1.958 . S
C2233 C579 1.958 . S
C2237 C1044 1.960 . S
C2251 C612 1.961 . S
C2255 C417 1.959 . S
C2269 C645 1.961 . S
C2273 C714 1.960 . S
C2287 C678 1.960 . S
C2291 C87 1.961 . S
C2305 C711 1.958 . S
C2309 C912 1.959 . S
C2323 C285 1.958 . S
C2327 C744 1.960 . S
C2341 C582 1.961 . S
C2345 C777 1.960 . S
C2359 C483 1.958 . S
C2363 C810 1.959 . S
C2377 C843 1.960 . S
C2381 C780 1.958 . S
C2395 C153 1.958 . S
C2399 C876 1.959 . S
C2413 C978 1.958 . S
C2417 C909 1.959 . S
C2431 C942 1.961 . S
C2435 C351 1.958 . S
C2449 C975 1.961 . S
C2453 C648 1.960 . S
C2467 C21 1.961 . S
C2471 C1008 1.959 . S
C2485 C1041 1.959 . S
C2489 C846 1.958 . S
