# Generated by pormake.
# Topology rkf, (6)-cn, num edge types: 1
# Building blocks:
#     Node 0, Type 0, BuildingBlock: INOVEN_clean_sbu_0, # of connection points: 6
#     Node 1, Type 0, BuildingBlock: INOVEN_clean_sbu_0, # of connection points: 6
#     Node 2, Type 0, BuildingBlock: INOVEN_clean_sbu_0, # of connection points: 6
#     Node 3, Type 0, BuildingBlock: INOVEN_clean_sbu_0, # of connection points: 6
#     Node 4, Type 0, BuildingBlock: INOVEN_clean_sbu_0, # of connection points: 6
#     Node 5, Type 0, BuildingBlock: INOVEN_clean_sbu_0, # of connection points: 6
#     Edge 6, Type (0, 0), BuildingBlock: TEMPAE_clean_linker_10, # of connection points: 2
#     Edge 7, Type (0, 0), BuildingBlock: TEMPAE_clean_linker_10, # of connection points: 2
#     Edge 8, Type (0, 0), BuildingBlock: TEMPAE_clean_linker_10, # of connection points: 2
#     Edge 9, Type (0, 0), BuildingBlock: TEMPAE_clean_linker_10, # of connection points: 2
#     Edge 10, Type (0, 0), BuildingBlock: TEMPAE_clean_linker_10, # of connection points: 2
#     Edge 11, Type (0, 0), BuildingBlock: TEMPAE_clean_linker_10, # of connection points: 2
#     Edge 12, Type (0, 0), BuildingBlock: TEMPAE_clean_linker_10, # of connection points: 2
#     Edge 13, Type (0, 0), BuildingBlock: TEMPAE_clean_linker_10, # of connection points: 2
#     Edge 14, Type (0, 0), BuildingBlock: TEMPAE_clean_linker_10, # of connection points: 2
#     Edge 15, Type (0, 0), BuildingBlock: TEMPAE_clean_linker_10, # of connection points: 2
#     Edge 16, Type (0, 0), BuildingBlock: TEMPAE_clean_linker_10, # of connection points: 2
#     Edge 17, Type (0, 0), BuildingBlock: TEMPAE_clean_linker_10, # of connection points: 2
#     Edge 18, Type (0, 0), BuildingBlock: TEMPAE_clean_linker_10, # of connection points: 2
#     Edge 19, Type (0, 0), BuildingBlock: TEMPAE_clean_linker_10, # of connection points: 2
#     Edge 20, Type (0, 0), BuildingBlock: TEMPAE_clean_linker_10, # of connection points: 2
#     Edge 21, Type (0, 0), BuildingBlock: TEMPAE_clean_linker_10, # of connection points: 2
#     Edge 22, Type (0, 0), BuildingBlock: TEMPAE_clean_linker_10, # of connection points: 2
#     Edge 23, Type (0, 0), BuildingBlock: TEMPAE_clean_linker_10, # of connection points: 2
# Relax obj value: 0.676
# Max RMSD: 0.253
# Mean RMSD: 0.253
data_MOF--net-rkf--node1-INOVEN_clean_sbu_0--edge1-TEMPAE_clean_linker_10
_symmetry_space_group_name_H-M    P1
_symmetry_Int_Tables_number       1
_symmetry_cell_setting            triclinic
loop_
_symmetry_equiv_pos_as_xyz
'x, y, z'
_cell_length_a     25.14983
_cell_length_b     25.289737
_cell_length_c     46.998933
_cell_angle_alpha  90.36042
_cell_angle_beta   89.864041
_cell_angle_gamma 119.99995
loop_
_atom_site_label
_atom_site_type_symbol
_atom_site_fract_x
_atom_site_fract_y
_atom_site_fract_z
_atom_type_partial_charge
Gd0 Gd 0.33759 0.03581 0.13079 0.0
Gd1 Gd 0.29476 0.12618 0.12122 0.0
C2 C 0.32496 0.11504 0.18777 0.0
C3 C 0.4038 -0.0103 0.14652 0.0
C4 C 0.40492 0.96391 0.17451 0.0
C5 C 0.4212 0.00048 0.19925 0.0
C6 C 0.37653 0.90024 0.17737 0.0
C7 C 0.36569 0.90986 0.22818 0.0
C8 C 0.35658 0.87335 0.20401 0.0
C9 C 0.40177 0.97353 0.22593 0.0
C10 C 0.21812 -0.01218 0.13865 0.0
C11 C 0.27778 0.03198 1.06698 0.0
C12 C 0.24242 0.18913 1.10914 0.0
C13 C 0.2547 0.24021 1.0905 0.0
C14 C 0.31487 0.28234 1.08207 0.0
C15 C 0.20589 0.24769 1.08147 0.0
C16 C 0.2771 0.33886 1.05546 0.0
C17 C 0.21695 0.29661 1.06403 0.0
C18 C 0.32603 0.33155 1.06478 0.0
C19 C 0.417 0.16948 1.11271 0.0
O20 O 0.34769 0.08058 0.17707 0.0
O21 O 0.2948 0.13159 0.17007 0.0
O22 O 0.35229 0.95858 0.13242 0.0
O23 O 0.42489 0.04869 0.14569 0.0
O24 O 0.24172 0.95515 0.13013 0.0
O25 O 0.25887 0.04118 0.14538 0.0
O26 O 0.26086 0.06924 1.07919 0.0
O27 O 0.31422 0.0173 1.08191 0.0
O28 O 0.28094 0.20216 0.13015 0.0
O29 O 0.22777 0.13725 1.09666 0.0
O30 O 0.39507 0.20176 0.12343 0.0
O31 O 0.37328 0.11849 1.1055 0.0
H32 H 0.44373 0.04976 0.19789 0.0
H33 H 0.36411 0.87104 0.15871 0.0
H34 H 0.3292 0.82407 0.20536 0.0
H35 H 0.4093 0.0026 0.24428 0.0
H36 H 0.35314 0.27708 1.08881 0.0
H37 H 0.15924 0.21568 1.08791 0.0
H38 H 0.17851 0.30154 1.05725 0.0
H39 H 0.37265 0.36305 1.05815 0.0
Gd40 Gd 0.39215 0.31922 0.46745 0.0
Gd41 Gd 0.26151 0.27539 0.45759 0.0
C42 C 0.29761 0.30285 0.52406 0.0
C43 C 0.50521 0.38646 0.48311 0.0
C44 C 0.53371 0.39389 0.51129 0.0
C45 C 0.50407 0.39853 0.53572 0.0
C46 C 0.58358 0.3841 0.51438 0.0
C47 C 0.56423 0.3692 0.56532 0.0
C48 C 0.59908 0.37229 0.54123 0.0
C49 C 0.51894 0.38604 0.56242 0.0
C50 C 0.32627 0.19867 0.47061 0.0
C51 C 0.33838 0.26004 0.40382 0.0
C52 C 0.14743 0.23017 0.44321 0.0
C53 C 0.11283 0.25972 0.43441 0.0
C54 C 0.04938 0.22541 0.42992 0.0
C55 C 0.1444 0.32225 0.4283 0.0
C56 C 0.05115 0.31433 0.40907 0.0
C57 C 0.11393 0.34935 0.41577 0.0
C58 C 0.01856 0.25265 0.41747 0.0
C59 C 0.33847 0.39854 0.4515 0.0
O60 O 0.35532 0.32577 0.51388 0.0
O61 O 0.25171 0.2741 0.50584 0.0
O62 O 0.48359 0.33211 0.47187 0.0
O63 O 0.46748 0.40766 0.48031 0.0
O64 O 0.38184 0.22712 0.46083 0.0
O65 O 0.30985 0.23523 0.48015 0.0
O66 O 0.28461 0.23662 0.41735 0.0
O67 O 0.38866 0.30143 0.41802 0.0
O68 O 0.16605 0.23932 0.46955 0.0
O69 O 0.19036 0.23673 0.42554 0.0
O70 O 0.28631 0.37509 0.46439 0.0
O71 O 0.346 0.35625 0.44252 0.0
H72 H 0.46587 0.40674 0.53409 0.0
H73 H 0.6074 0.38083 0.4958 0.0
H74 H 0.63535 0.36121 0.54277 0.0
H75 H 0.49069 0.38404 0.58026 0.0
H76 H 0.02432 0.1771 0.43476 0.0
H77 H 0.19347 0.34939 0.43157 0.0
H78 H 0.1409 0.39654 0.40923 0.0
H79 H 0.97003 0.22461 0.41289 0.0
Gd80 Gd 0.14406 0.37325 0.80047 0.0
Gd81 Gd 0.05409 0.24522 0.78971 0.0
C82 C 0.0654 0.27894 0.85641 0.0
C83 C 0.19085 0.48687 0.81485 0.0
C84 C 0.21428 0.52014 0.84195 0.0
C85 C 0.1777 0.50147 0.86653 0.0
C86 C 0.27637 0.5654 0.84423 0.0
C87 C 0.26763 0.56373 0.89576 0.0
C88 C 0.30298 0.58693 0.87097 0.0
C89 C 0.20408 0.52328 0.89315 0.0
C90 C 0.19621 0.30626 0.80611 0.0
C91 C 0.15002 0.31869 0.73664 0.0
C92 C -0.02491 0.13683 0.77252 0.0
C93 C 0.92481 0.12216 0.75248 0.0
C94 C 0.87794 0.06194 0.74765 0.0
C95 C 0.92157 0.17035 0.73958 0.0
C96 C 0.82536 0.0986 0.71681 0.0
C97 C 0.87231 0.15876 0.72203 0.0
C98 C 0.82865 0.05015 0.72972 0.0
C99 C 0.01478 0.32746 0.78193 0.0
O100 O 0.09589 0.33653 0.84608 0.0
O101 O 0.0531 0.23395 0.83813 0.0
O102 O 0.22311 0.46409 0.8041 0.0
O103 O 0.13166 0.44891 0.81317 0.0
O104 O 0.22656 0.36283 0.79847 0.0
O105 O 0.14161 0.2891 0.81369 0.0
O106 O 0.11265 0.26506 0.74869 0.0
O107 O 0.16336 0.36947 0.75153 0.0
O108 O 0.96992 0.15976 0.79659 0.0
O109 O 0.03054 0.16743 0.76196 0.0
O110 O -0.01509 0.27795 0.7963 0.0
O111 O 0.06351 0.33111 0.77351 0.0
H112 H 0.12959 0.46681 0.8655 0.0
H113 H 0.30529 0.58082 0.8255 0.0
H114 H 0.35195 0.61835 0.87236 0.0
H115 H 0.17558 0.50383 0.9118 0.0
H116 H 0.87937 0.02428 0.75774 0.0
H117 H 0.9573 0.21721 0.74313 0.0
H118 H 0.87187 0.19691 0.7119 0.0
H119 H 0.79315 0.0033 0.72593 0.0
Gd120 Gd 0.92091 0.16682 0.13984 0.0
Gd121 Gd 0.80928 0.05802 0.12384 0.0
C122 C 0.8522 0.06913 0.19162 0.0
C123 C -0.00051 0.28042 0.14995 0.0
C124 C 0.00507 0.32028 0.17385 0.0
C125 C 0.05934 0.37576 0.17844 0.0
C126 C 0.95564 0.30189 0.19264 0.0
C127 C 0.01656 0.39144 0.22212 0.0
C128 C 0.96123 0.33717 0.21648 0.0
C129 C 0.06513 0.41123 0.20248 0.0
C130 C 0.92959 0.06583 0.13566 0.0
C131 C 0.90491 0.14532 1.07074 0.0
C132 C 0.71324 0.96051 1.10553 0.0
C133 C 0.68288 0.91765 1.0817 0.0
C134 C 0.63956 0.92285 1.06488 0.0
C135 C 0.69267 0.86829 1.07704 0.0
C136 C 0.62021 0.83307 1.03764 0.0
C137 C 0.66174 0.82652 1.05518 0.0
C138 C 0.6088 0.88118 1.04292 0.0
C139 C 0.7886 0.1429 0.14914 0.0
O140 O 0.88544 0.12871 0.18545 0.0
O141 O 0.82332 0.03068 0.16987 0.0
O142 O 0.01023 0.23611 0.15572 0.0
O143 O 0.9501 0.26222 0.13462 0.0
O144 O 0.95776 0.10711 0.15519 0.0
O145 O 0.90319 0.08218 1.11834 0.0
O146 O 0.84857 0.09936 1.07789 0.0
O147 O 0.94385 0.17534 1.09186 0.0
O148 O 0.7207 0.01539 1.10325 0.0
O149 O 0.75909 0.9598 1.11844 0.0
O150 O 0.76411 0.08673 0.15684 0.0
O151 O 0.82812 0.15261 0.13024 0.0
H152 H 0.09771 0.39071 0.16394 0.0
H153 H 0.91329 0.2591 0.18935 0.0
H154 H 0.92346 0.31972 0.23145 0.0
H155 H 0.1083 0.45276 0.20633 0.0
H156 H 0.62972 0.95944 1.06853 0.0
H157 H 0.72472 0.86223 1.09003 0.0
H158 H 0.67246 0.79062 1.05122 0.0
H159 H 0.57713 0.88729 1.02965 0.0
Gd160 Gd 0.82946 0.91683 0.47191 0.0
Gd161 Gd 0.85706 0.82241 0.45466 0.0
C162 C 0.88816 0.864 0.52218 0.0
C163 C 0.78 0.97106 0.49835 0.0
C164 C 0.73333 -0.01075 0.50343 0.0
C165 C 0.7478 0.04968 0.49843 0.0
C166 C 0.68221 0.95207 0.52043 0.0
C167 C 0.67556 0.04091 0.53526 0.0
C168 C 0.65355 0.97761 0.53621 0.0
C169 C 0.71813 0.075 0.51382 0.0
C170 C 0.94425 0.95891 0.45375 0.0
C171 C 0.83607 0.90507 0.40375 0.0
C172 C 0.89403 0.75383 0.43084 0.0
C173 C 0.94541 0.76529 0.41204 0.0
C174 C 0.9627 0.80696 0.38959 0.0
C175 C -0.01947 0.7377 0.41796 0.0
C176 C 0.05092 0.79454 0.37959 0.0
C177 C 0.033 0.75237 0.40199 0.0
C178 C 0.01458 0.82101 0.37338 0.0
C179 C 0.73967 0.7759 0.47291 0.0
O180 O 0.86417 0.89942 0.51574 0.0
O181 O 0.8933 0.83117 0.50109 0.0
O182 O 0.7648 0.9141 0.50263 0.0
O183 O 0.82313 -0.00124 0.47927 0.0
O184 O 0.9155 -0.01102 0.4499 0.0
O185 O 0.91419 0.91411 0.46948 0.0
O186 O 0.8644 0.87403 0.41137 0.0
O187 O 0.80824 0.91891 0.42427 0.0
O188 O 0.85086 0.76218 0.42019 0.0
O189 O 0.90965 0.77585 0.45653 0.0
O190 O 0.7754 0.75484 0.4792 0.0
O191 O 0.76779 0.82158 0.45678 0.0
H192 H 0.78633 0.07928 0.48503 0.0
H193 H 0.66908 0.90493 0.52441 0.0
H194 H 0.62022 0.94894 0.55195 0.0
H195 H 0.73421 0.12325 0.51146 0.0
H196 H 0.93667 0.82933 0.38475 0.0
H197 H 0.96828 0.70601 0.43547 0.0
H198 H 0.06022 0.73174 0.40767 0.0
H199 H 0.026 0.85259 0.35591 0.0
Gd200 Gd 0.00988 0.81867 0.80324 0.0
Gd201 Gd 0.1392 0.86267 0.7855 0.0
C202 C 0.11696 0.87266 0.85453 0.0
C203 C 0.89406 0.75143 0.81323 0.0
C204 C 0.84966 0.74337 0.8353 0.0
C205 C 0.86312 0.78985 0.85516 0.0
C206 C 0.79302 0.68897 0.83637 0.0
C207 C 0.76333 0.72743 0.87728 0.0
C208 C 0.74998 0.68099 0.85724 0.0
C209 C 0.82018 0.7821 0.87586 0.0
C210 C 0.08342 0.93933 0.80758 0.0
C211 C 0.03835 0.84736 0.73416 0.0
C212 C 0.24775 0.90514 0.76393 0.0
C213 C 0.28743 0.95356 0.74423 0.0
C214 C 0.34744 0.96564 0.7395 0.0
C215 C 0.26701 -0.01009 0.73125 0.0
C216 C 0.36732 0.05141 0.70928 0.0
C217 C 0.30675 0.03873 0.71411 0.0
C218 C 0.38706 0.01399 0.72204 0.0
C219 C 0.07518 0.7439 0.80222 0.0
O220 O 0.05741 0.83404 0.84827 0.0
O221 O 0.15686 0.895 0.83291 0.0
O222 O 0.91773 0.80294 0.7992 0.0
O223 O 0.93446 0.73523 0.82004 0.0
O224 O 0.03708 0.90872 0.82449 0.0
O225 O 0.08363 0.9058 0.78786 0.0
O226 O 0.0974 0.8687 0.7414 0.0
O227 O -0.00399 0.82343 0.75461 0.0
O228 O 0.19855 0.85875 0.75305 0.0
O229 O 0.23739 0.92383 0.78819 0.0
O230 O 0.13122 0.78166 0.80913 0.0
O231 O 0.05602 0.77069 0.78647 0.0
H232 H 0.90667 0.8322 0.85453 0.0
H233 H 0.78218 0.65269 0.82109 0.0
H234 H 0.70678 0.63835 0.85794 0.0
H235 H 0.83133 0.81923 0.89066 0.0
H236 H 0.36379 0.93787 0.74944 0.0
H237 H 0.22075 0.98121 0.73475 0.0
H238 H 0.29023 0.06712 0.70505 0.0
H239 H 0.43294 0.02174 0.7184 0.0
C240 C 0.91737 0.97441 1.11062 0.0
C241 C 0.92065 0.00429 0.13629 0.0
C242 C 0.94074 0.93449 1.10953 0.0
C243 C 0.96684 0.92649 0.13456 0.0
C244 C 0.9495 0.93937 0.16117 0.0
C245 C 0.92826 0.9809 0.16186 0.0
C246 C 0.95187 0.91457 1.08097 0.0
C247 C 0.96849 0.92303 0.18858 0.0
C248 C 0.1074 0.90784 0.13498 0.0
C249 C 0.15351 0.9692 0.13675 0.0
C250 C 0.04546 0.89221 0.13345 0.0
C251 C 0.03079 0.93945 0.13265 0.0
C252 C 0.07868 0.00168 0.13278 0.0
C253 C 0.13876 0.01514 0.13596 0.0
C254 C -0.00315 0.82558 0.13376 0.0
C255 C 0.06826 0.05545 0.13034 0.0
H256 H 0.90717 -0.01018 1.09097 0.0
H257 H 0.92603 0.00092 0.18199 0.0
H258 H -0.0043 0.95145 1.0721 0.0
H259 H 0.95538 0.8727 1.08282 0.0
H260 H 0.91448 0.90603 1.06584 0.0
H261 H 0.93781 0.92004 0.20631 0.0
H262 H 0.9677 0.87891 0.18644 0.0
H263 H 0.01599 0.95905 0.19405 0.0
H264 H 0.11949 0.87229 0.13563 0.0
H265 H 0.17476 0.06242 0.13759 0.0
H266 H 0.95166 0.8172 0.12601 0.0
H267 H -0.00883 0.80851 0.15589 0.0
H268 H 0.01146 0.79848 1.12057 0.0
H269 H 0.11167 0.09943 0.12749 0.0
H270 H 0.04677 0.06006 0.15006 0.0
H271 H 0.03914 0.04997 1.11171 0.0
C272 C 0.03399 0.02113 0.42294 0.0
C273 C -0.00126 0.96813 0.43847 0.0
C274 C 0.09461 0.03818 0.41622 0.0
C275 C 0.11919 0.00209 0.42633 0.0
C276 C 0.07892 0.94161 0.43458 0.0
C277 C 0.01881 0.92572 0.44161 0.0
C278 C 0.1342 0.09817 0.4017 0.0
C279 C 0.1026 0.89897 0.44152 0.0
C280 C 0.28632 0.11063 0.43737 0.0
C281 C 0.2825 0.13566 0.46347 0.0
C282 C 0.23429 0.05977 0.42603 0.0
C283 C 0.17858 0.03508 0.44132 0.0
C284 C 0.1784 0.0544 0.46986 0.0
C285 C 0.2307 0.10512 0.4804 0.0
C286 C 0.23765 0.03705 0.39673 0.0
C287 C 0.1216 0.02733 0.48836 0.0
H288 H 0.01656 0.05173 0.41853 0.0
H289 H -0.00972 0.88314 0.45235 0.0
H290 H 0.17536 0.12776 0.41469 0.0
H291 H 0.14972 0.08893 0.38118 0.0
H292 H 0.10918 0.12309 0.39732 0.0
H293 H 0.06465 0.85194 0.44568 0.0
H294 H 0.13112 0.89805 0.42367 0.0
H295 H 0.13227 0.91544 0.46071 0.0
H296 H 0.3276 0.13408 0.42459 0.0
H297 H 0.22939 0.1242 0.50097 0.0
H298 H 0.23034 0.06443 0.38052 0.0
H299 H 0.20218 -0.01161 0.39373 0.0
H300 H 0.28369 0.04241 0.39287 0.0
H301 H 0.08795 0.03908 0.47963 0.0
H302 H 0.13195 0.04493 0.51057 0.0
H303 H 0.10006 0.97701 0.48931 0.0
C304 C 0.1933 0.01622 0.80097 0.0
C305 C 0.13818 -0.0038 0.81585 0.0
C306 C 0.24352 0.07417 0.80612 0.0
C307 C 0.23367 0.11467 0.82282 0.0
C308 C 0.18417 0.09068 0.84245 0.0
C309 C 0.13603 0.03094 0.83851 0.0
C310 C 0.30177 0.09598 0.78928 0.0
C311 C 0.17639 0.1307 0.86401 0.0
C312 C 0.27034 0.27513 0.822 0.0
C313 C 0.22136 0.2662 0.80473 0.0
C314 C 0.28447 0.22834 0.82456 0.0
C315 C 0.24811 0.17299 0.8096 0.0
C316 C 0.20769 0.17046 0.78775 0.0
C317 C 0.19341 0.21653 0.7865 0.0
C318 C 0.33407 0.23652 0.84503 0.0
C319 C 0.17188 0.11623 0.76819 0.0
H320 H 0.19548 -0.01076 0.78369 0.0
H321 H 0.09487 0.01378 0.85136 0.0
H322 H 0.34022 0.13794 0.79885 0.0
H323 H 0.31442 0.05975 0.78834 0.0
H324 H 0.29498 0.10617 0.76711 0.0
H325 H 0.14114 0.10328 0.88021 0.0
H326 H 0.22044 0.16046 0.87507 0.0
H327 H 0.16184 0.16021 0.85311 0.0
H328 H 0.29406 0.31598 0.83505 0.0
H329 H 0.15755 0.21174 0.77231 0.0
H330 H 0.34177 0.19696 0.84501 0.0
H331 H 0.32222 0.24407 0.86687 0.0
H332 H 0.3777 0.27815 0.83925 0.0
H333 H 0.15184 0.12784 0.74986 0.0
H334 H 0.13314 0.07916 0.78 0.0
H335 H 0.20132 0.09929 0.75927 0.0
C336 C 0.33461 0.44874 1.04057 0.0
C337 C 0.28813 0.38829 1.03551 0.0
C338 C 0.34538 0.49531 1.02127 0.0
C339 C 0.30871 0.48064 0.99648 0.0
C340 C 0.26186 0.41947 0.99134 0.0
C341 C 0.25224 0.37423 1.01093 0.0
C342 C 0.39483 0.55998 1.02787 0.0
C343 C 0.22198 0.40144 0.96497 0.0
C344 C 0.26881 0.57281 0.94876 0.0
C345 C 0.29724 0.56928 0.92369 0.0
C346 C 0.2795 0.55233 0.9746 0.0
C347 C 0.31894 0.52753 0.97501 0.0
C348 C 0.35566 0.53407 0.95099 0.0
C349 C 0.34443 0.55511 0.92547 0.0
C350 C 0.24223 0.54933 1.00035 0.0
C351 C 0.39986 0.51008 0.95094 0.0
H352 H 0.36208 0.45966 1.05975 0.0
H353 H 0.21725 0.32733 1.00676 0.0
H354 H 0.41861 0.5852 1.00834 0.0
H355 H 0.37344 0.58456 1.03797 0.0
H356 H 0.4295 0.56116 1.04286 0.0
H357 H 0.19447 0.42468 0.96497 0.0
H358 H 0.25097 0.41589 0.94557 0.0
H359 H 0.18994 0.35143 0.96353 0.0
H360 H 0.23364 0.5856 0.94761 0.0
H361 H 0.36732 0.55303 0.90627 0.0
H362 H 0.26987 0.55919 1.02007 0.0
H363 H 0.20204 0.50258 1.00213 0.0
H364 H 0.22508 0.58205 0.99875 0.0
H365 H 0.42707 0.52298 0.9709 0.0
H366 H 0.43179 0.52737 0.93255 0.0
H367 H 0.37357 0.45946 0.94967 0.0
C368 C 0.04244 0.40109 0.3883 0.0
C369 C 0.02459 0.3388 0.38831 0.0
C370 C 0.03569 0.42866 0.36379 0.0
C371 C 0.01093 0.39294 0.33891 0.0
C372 C -0.01506 0.32867 0.3402 0.0
C373 C -0.00797 0.30243 0.36493 0.0
C374 C 0.06079 0.49672 0.36392 0.0
C375 C 0.95663 0.28821 0.31435 0.0
C376 C -0.02171 0.4215 0.26504 0.0
C377 C 0.02633 0.41918 0.25087 0.0
C378 C -0.02313 0.42319 0.29486 0.0
C379 C 0.02407 0.42167 0.31042 0.0
C380 C 0.0776 0.43062 0.29614 0.0
C381 C 0.07809 0.42931 0.26639 0.0
C382 C 0.92124 0.41846 0.30945 0.0
C383 C 0.13041 0.43195 0.31202 0.0
H384 H 0.06597 0.42924 0.40667 0.0
H385 H -0.02222 0.25429 0.36465 0.0
H386 H 0.11104 0.52041 0.36011 0.0
H387 H 0.03942 0.51086 0.34721 0.0
H388 H 0.05339 0.51214 0.38498 0.0
H389 H 0.93351 0.2389 0.31971 0.0
H390 H 0.92245 0.29763 0.30429 0.0
H391 H -0.00709 0.29773 0.29839 0.0
H392 H 0.93909 0.41599 0.25299 0.0
H393 H 0.11589 0.42859 0.25562 0.0
H394 H 0.90012 0.43962 0.29641 0.0
H395 H 0.93314 0.44072 0.33073 0.0
H396 H 0.88646 0.36963 0.3124 0.0
H397 H 0.14333 0.46284 0.33072 0.0
H398 H 0.17153 0.44729 0.29829 0.0
H399 H 0.11633 0.38544 0.31986 0.0
C400 C 0.74878 0.12309 0.69535 0.0
C401 C 0.77708 0.08721 0.69562 0.0
C402 C 0.71318 0.12157 0.67198 0.0
C403 C 0.70666 0.08388 0.64835 0.0
C404 C 0.73057 0.04358 0.64977 0.0
C405 C 0.76522 0.04563 0.67346 0.0
C406 C 0.68483 0.16197 0.67207 0.0
C407 C 0.72447 0.00207 0.62517 0.0
C408 C 0.62001 0.04086 0.57996 0.0
C409 C 0.67014 0.07185 0.56141 0.0
C410 C 0.62769 0.05131 0.60948 0.0
C411 C 0.68637 0.09385 0.62019 0.0
C412 C 0.73211 0.1345 0.60119 0.0
C413 C 0.72332 0.12317 0.57192 0.0
C414 C 0.57593 0.01077 0.62911 0.0
C415 C 0.79456 0.18302 0.61165 0.0
H416 H 0.75663 0.15417 0.71291 0.0
H417 H 0.78695 0.01786 0.67358 0.0
H418 H 0.6972 0.18999 0.65251 0.0
H419 H 0.63408 0.13306 0.67231 0.0
H420 H 0.69912 0.19287 0.69089 0.0
H421 H 0.74232 0.97103 0.63045 0.0
H422 H 0.67568 0.97382 0.61876 0.0
H423 H 0.75034 0.0299 0.60654 0.0
H424 H 0.5772 0.00351 0.57192 0.0
H425 H 0.76205 0.14943 0.55802 0.0
H426 H 0.57752 0.03523 0.64904 0.0
H427 H 0.58017 0.97053 0.63484 0.0
H428 H 0.53064 -0.00597 0.61868 0.0
H429 H 0.79039 0.20729 0.63048 0.0
H430 H 0.82064 0.21711 0.59489 0.0
H431 H 0.82148 0.16114 0.61807 0.0
C432 C 0.57873 0.7337 1.01153 0.0
C433 C 0.59789 0.79617 1.01129 0.0
C434 C 0.58076 0.70412 0.98655 0.0
C435 C 0.60427 0.73872 0.96145 0.0
C436 C 0.6125 0.7983 0.96013 0.0
C437 C 0.60899 0.82639 0.98522 0.0
C438 C 0.56685 0.63891 0.9881 0.0
C439 C 0.63588 0.83646 0.93357 0.0
C440 C 0.74053 0.74067 0.92736 0.0
C441 C 0.71891 0.71981 0.89984 0.0
C442 C 0.70223 0.74335 0.94813 0.0
C443 C 0.63999 0.72321 0.94138 0.0
C444 C 0.61627 0.69686 0.91442 0.0
C445 C 0.65629 0.69572 0.89378 0.0
C446 C 0.72983 0.77155 0.97671 0.0
C447 C 0.54937 0.67152 0.90719 0.0
H448 H 0.5679 0.70961 1.0316 0.0
H449 H 0.62279 0.87444 0.98485 0.0
H450 H 0.54601 0.61422 0.96793 0.0
H451 H 0.61015 0.63822 0.99148 0.0
H452 H 0.53535 0.61431 1.00601 0.0
H453 H 0.62816 0.87604 0.93426 0.0
H454 H 0.686 0.85421 0.93159 0.0
H455 H 0.61336 0.80891 0.91428 0.0
H456 H 0.78838 0.75719 0.93238 0.0
H457 H 0.63919 0.67859 0.8726 0.0
H458 H 0.70416 0.7392 0.99406 0.0
H459 H 0.72671 0.81334 0.98025 0.0
H460 H 0.77886 0.78422 0.97842 0.0
H461 H 0.52096 0.63122 0.92067 0.0
H462 H 0.53933 0.65736 0.88451 0.0
H463 H 0.53487 0.70551 0.91182 0.0
C464 C 0.12264 0.76628 0.3554 0.0
C465 C 0.10684 0.81071 0.3625 0.0
C466 C 0.17188 0.77986 0.33706 0.0
C467 C 0.20493 0.83868 0.32492 0.0
C468 C 0.19144 0.88462 0.3332 0.0
C469 C 0.14313 0.87026 0.35217 0.0
C470 C 0.18635 0.7303 0.32948 0.0
C471 C 0.22543 0.94794 0.32069 0.0
C472 C 0.35042 0.89592 0.28099 0.0
C473 C 0.32613 0.88341 0.25339 0.0
C474 C 0.31138 0.87823 0.3048 0.0
C475 C 0.24706 0.84983 0.30064 0.0
C476 C 0.22254 0.83586 0.27275 0.0
C477 C 0.26238 0.85213 0.24952 0.0
C478 C 0.33906 0.892 0.33423 0.0
C479 C 0.15439 0.80704 0.26729 0.0
H480 H 0.09503 0.72008 0.36317 0.0
H481 H 0.1327 0.90547 0.35828 0.0
H482 H 0.16972 0.71323 0.30765 0.0
H483 H 0.23669 0.74853 0.32973 0.0
H484 H 0.16418 0.6911 0.34433 0.0
H485 H 0.21213 0.97945 0.33081 0.0
H486 H 0.27561 0.96754 0.32321 0.0
H487 H 0.21576 0.9455 0.29754 0.0
H488 H 0.3998 0.9205 0.2839 0.0
H489 H 0.24367 0.84364 0.22813 0.0
H490 H 0.31212 0.85303 0.34872 0.0
H491 H 0.33823 0.93228 0.34315 0.0
H492 H 0.38746 0.90218 0.33398 0.0
H493 H 0.12891 0.76325 0.27886 0.0
H494 H 0.14282 0.79811 0.24431 0.0
H495 H 0.13786 0.83764 0.27535 0.0
C496 C 0.3865 0.11612 0.66623 0.0
C497 C 0.40932 0.10307 0.69076 0.0
C498 C 0.42466 0.16534 0.64879 0.0
C499 C 0.48772 0.20193 0.65567 0.0
C500 C 0.51158 0.18851 0.68005 0.0
C501 C 0.47192 0.13953 0.69749 0.0
C502 C 0.39727 0.17809 0.62292 0.0
C503 C 0.57857 0.2263 0.68797 0.0
C504 C 0.57018 0.28427 0.58941 0.0
C505 C 0.56566 0.33736 0.59164 0.0
C506 C 0.55203 0.24263 0.61189 0.0
C507 C 0.52758 0.25377 0.63685 0.0
C508 C 0.5303 0.31063 0.64062 0.0
C509 C 0.5502 0.35221 0.61805 0.0
C510 C 0.55216 0.18346 0.60751 0.0
C511 C 0.50539 0.32466 0.66707 0.0
H512 H 0.33863 0.08747 0.66047 0.0
H513 H 0.48986 0.13036 0.71661 0.0
H514 H 0.40469 0.22516 0.62414 0.0
H515 H 0.42036 0.17495 0.60337 0.0
H516 H 0.3472 0.1457 0.62083 0.0
H517 H 0.59158 0.20452 0.70495 0.0
H518 H 0.6082 0.23382 0.66916 0.0
H519 H 0.58826 0.2718 0.6957 0.0
H520 H 0.5823 0.272 0.56929 0.0
H521 H 0.54874 0.39413 0.62038 0.0
H522 H 0.50506 0.14669 0.602 0.0
H523 H 0.56613 0.16973 0.62724 0.0
H524 H 0.58351 0.18695 0.59001 0.0
H525 H 0.45447 0.29995 0.66598 0.0
H526 H 0.52181 0.37425 0.66922 0.0
H527 H 0.5186 0.30905 0.68641 0.0
C528 C 0.49907 0.14419 1.10293 0.0
C529 C 0.48115 0.18298 1.11572 0.0
C530 C 0.55625 0.14977 1.109 0.0
C531 C 0.59713 0.19612 0.12794 0.0
C532 C 0.58096 0.23815 0.13937 0.0
C533 C 0.52292 0.23093 0.1332 0.0
C534 C 0.57121 0.10359 1.09646 0.0
C535 C 0.62355 0.28872 0.15926 0.0
C536 C 0.69772 0.14782 0.16648 0.0
C537 C 0.7493 0.17121 0.14866 0.0
C538 C 0.64954 0.15928 0.16117 0.0
C539 C 0.65348 0.19596 0.13772 0.0
C540 C 0.70831 0.22503 0.12153 0.0
C541 C 0.75565 0.21216 0.12713 0.0
C542 C 0.59202 0.12721 0.17903 0.0
C543 C 0.71494 0.26559 1.09679 0.0
H544 H 0.46703 0.10741 1.0892 0.0
H545 H 0.50934 0.2613 0.143 0.0
H546 H 0.61674 0.12707 1.08593 0.0
H547 H 0.57358 0.07508 1.11372 0.0
H548 H 0.53636 0.07298 1.08069 0.0
H549 H 0.60872 0.32292 0.16271 0.0
H550 H 0.62454 0.26908 0.18015 0.0
H551 H 0.6711 0.31227 0.15081 0.0
H552 H 0.69282 0.11661 0.18334 0.0
H553 H 0.79554 0.23071 1.11336 0.0
H554 H 0.55484 0.0901 0.16628 0.0
H555 H 0.57604 0.15923 0.18541 0.0
H556 H 0.5991 0.10682 0.19851 0.0
H557 H 0.68756 0.23692 1.07854 0.0
H558 H 0.76352 0.29344 1.08988 0.0
H559 H 0.69714 0.29658 1.10236 0.0
C560 C 0.44153 0.48111 0.43655 0.0
C561 C 0.38802 0.46326 0.45241 0.0
C562 C 0.49333 0.53919 0.43999 0.0
C563 C 0.49146 0.58113 0.45952 0.0
C564 C 0.436 0.5649 0.47414 0.0
C565 C 0.38484 0.50589 0.4705 0.0
C566 C 0.55139 0.55399 0.42409 0.0
C567 C 0.43173 0.60855 0.49477 0.0
C568 C 0.64831 0.68364 0.49155 0.0
C569 C 0.67224 0.7344 0.47351 0.0
C570 C 0.5879 0.63529 0.48851 0.0
C571 C 0.54988 0.63793 0.46706 0.0
C572 C 0.57195 0.69157 0.45047 0.0
C573 C 0.63315 0.73928 0.45381 0.0
C574 C 0.56676 0.57913 0.50666 0.0
C575 C 0.53248 0.69675 0.4278 0.0
H576 H 0.44397 0.44845 0.42233 0.0
H577 H 0.34338 0.49238 0.48268 0.0
H578 H 0.57006 0.59852 0.41316 0.0
H579 H 0.58675 0.55788 0.43939 0.0
H580 H 0.54383 0.51847 0.40803 0.0
H581 H 0.38338 0.59369 0.50047 0.0
H582 H 0.45699 0.61126 0.51454 0.0
H583 H 0.45331 0.65516 0.4857 0.0
H584 H 0.67817 0.67996 0.50705 0.0
H585 H 0.6513 0.7785 0.43987 0.0
H586 H 0.56288 0.54102 0.49328 0.0
H587 H 0.52073 0.56435 0.51575 0.0
H588 H 0.59908 0.58692 0.52439 0.0
H589 H 0.52989 0.66852 0.40912 0.0
H590 H 0.55139 0.74465 0.42067 0.0
H591 H 0.48498 0.67931 0.43567 0.0
C592 C 0.96714 0.38465 0.80376 0.0
C593 C 0.00515 0.38041 0.78312 0.0
C594 C 0.96668 0.4396 0.80793 0.0
C595 C 0.00509 0.49105 0.79103 0.0
C596 C 0.04047 0.48544 0.76898 0.0
C597 C 0.03988 0.43015 0.76526 0.0
C598 C 0.92815 0.4437 0.83155 0.0
C599 C 0.08214 0.539 0.75046 0.0
C600 C -0.00167 0.6376 0.78654 0.0
C601 C 0.0492 0.67705 0.80322 0.0
C602 C -0.0196 0.57542 0.78382 0.0
C603 C 0.01425 0.55259 0.79812 0.0
C604 C 0.06273 0.59149 0.81663 0.0
C605 C 0.07955 0.65319 0.81894 0.0
C606 C 0.92788 0.53523 0.76424 0.0
C607 C 0.10028 0.56941 0.83227 0.0
H608 H 0.94023 0.34618 0.8176 0.0
H609 H 0.06903 0.42675 0.74917 0.0
H610 H 0.95845 0.47111 0.84938 0.0
H611 H 0.90348 0.46716 0.82412 0.0
H612 H 0.89412 0.39795 0.83977 0.0
H613 H 0.10237 0.52564 0.73272 0.0
H614 H 0.05659 0.56017 0.74137 0.0
H615 H 0.12015 0.5743 0.76355 0.0
H616 H -0.02558 0.65584 0.77453 0.0
H617 H 0.11852 0.68345 0.83211 0.0
H618 H 0.89727 0.49047 0.7743 0.0
H619 H 0.94629 0.52629 0.74444 0.0
H620 H 0.9003 0.55678 0.75839 0.0
H621 H 0.07034 0.5241 0.84196 0.0
H622 H 0.12911 0.6018 0.84925 0.0
H623 H 0.13105 0.56444 0.8169 0.0
C624 C 0.34611 0.10847 0.24266 0.0
C625 C 0.33087 0.13535 0.21997 0.0
C626 C 0.3489 0.127 0.27215 0.0
C627 C 0.33813 0.17564 0.28052 0.0
C628 C 0.32383 0.20339 0.25759 0.0
C629 C 0.3198 0.18302 0.22854 0.0
C630 C 0.36363 0.09388 0.29452 0.0
C631 C 0.31263 0.2556 0.26373 0.0
C632 C 0.28645 0.19328 0.35844 0.0
C633 C 0.34032 0.23851 0.37238 0.0
C634 C 0.28552 0.17207 0.32977 0.0
C635 C 0.33973 0.19642 0.31266 0.0
C636 C 0.39451 0.24233 0.32647 0.0
C637 C 0.39427 0.26209 0.35549 0.0
C638 C 0.22556 0.12258 0.31768 0.0
C639 C 0.45416 0.27143 0.31033 0.0
H640 H 0.35492 0.07174 0.2375 0.0
H641 H 0.30822 0.20554 0.21217 0.0
H642 H 0.41151 0.12359 0.30196 0.0
H643 H 0.33306 0.08354 0.31324 0.0
H644 H 0.35918 0.05059 0.28623 0.0
H645 H 0.30524 0.27513 0.24404 0.0
H646 H 0.2717 0.23978 0.27756 0.0
H647 H 0.35234 0.29232 0.27546 0.0
H648 H 0.24387 0.17402 0.37011 0.0
H649 H 0.43693 0.2969 0.36486 0.0
H650 H 0.23032 0.08288 0.31117 0.0
H651 H 0.21351 0.13928 0.29835 0.0
H652 H 0.1872 0.10694 0.33309 0.0
H653 H 0.46546 0.23596 0.3038 0.0
H654 H 0.49283 0.30682 0.32311 0.0
H655 H 0.44946 0.29269 0.29061 0.0
C656 C 0.2213 0.29598 0.56356 0.0
C657 C 0.28128 0.30847 0.556 0.0
C658 C 0.20283 0.29974 0.59221 0.0
C659 C 0.24397 0.31557 0.6158 0.0
C660 C 0.30469 0.32786 0.60849 0.0
C661 C 0.32242 0.32491 0.57935 0.0
C662 C 0.13809 0.28652 0.59721 0.0
C663 C 0.35145 0.34357 0.63174 0.0
C664 C 0.20633 0.3727 0.6887 0.0
C665 C 0.17627 0.31979 0.70595 0.0
C666 C 0.22856 0.37223 0.66026 0.0
C667 C 0.2227 0.31783 0.64747 0.0
C668 C 0.19341 0.26469 0.66502 0.0
C669 C 0.17078 0.26619 0.69312 0.0
C670 C 0.25794 0.43067 0.64355 0.0
C671 C 0.18558 0.20509 0.65403 0.0
H672 H 0.18777 0.28336 0.54667 0.0
H673 H 0.36876 0.33464 0.575 0.0
H674 H 0.11362 0.2463 0.61127 0.0
H675 H 0.13881 0.32581 0.60823 0.0
H676 H 0.1117 0.2773 0.5771 0.0
H677 H 0.3338 0.30619 0.64758 0.0
H678 H 0.39608 0.35104 0.62344 0.0
H679 H 0.35924 0.38544 0.6431 0.0
H680 H 0.21183 0.415 0.69728 0.0
H681 H 0.14859 0.22434 0.70528 0.0
H682 H 0.23145 0.42438 0.62373 0.0
H683 H 0.3051 0.44248 0.63717 0.0
H684 H 0.26031 0.46947 0.65583 0.0
H685 H 0.16604 0.16858 0.67032 0.0
H686 H 0.23052 0.2114 0.64696 0.0
H687 H 0.15472 0.1897 0.63524 0.0
C688 C 0.02531 0.20322 0.89941 0.0
C689 C 0.0444 0.2624 0.88846 0.0
C690 C 0.00382 0.18482 0.92816 0.0
C691 C -0.00195 0.22486 0.94801 0.0
C692 C 0.01755 0.28493 0.93722 0.0
C693 C 0.04044 0.30274 0.90843 0.0
C694 C -0.01162 0.12185 0.93755 0.0
C695 C 0.0143 0.33126 0.95629 0.0
C696 C 0.88739 0.1507 1.01532 0.0
C697 C 0.92725 0.16379 1.03897 0.0
C698 C 0.90915 0.17089 0.9866 0.0
C699 C 0.97341 0.20426 0.97962 0.0
C700 C 0.01362 0.21644 1.00339 0.0
C701 C -0.00929 0.19768 1.03195 0.0
C702 C 0.86253 0.15728 0.96352 0.0
C703 C 0.08214 0.25026 0.99908 0.0
H704 H 0.02774 0.17041 0.88533 0.0
H705 H 0.05437 0.34859 0.90143 0.0
H706 H 0.01484 0.12517 0.95702 0.0
H707 H 0.93898 0.09472 0.94303 0.0
H708 H -0.00137 0.09691 0.92087 0.0
H709 H 0.96872 0.31088 0.96679 0.0
H710 H 0.0495 0.34543 0.97326 0.0
H711 H 0.02253 0.37258 0.94447 0.0
H712 H 0.83843 0.12559 1.0193 0.0
H713 H 0.02362 0.20936 1.04905 0.0
H714 H 0.86463 0.12598 0.94752 0.0
H715 H 0.87329 0.20006 0.95235 0.0
H716 H 0.81499 0.13595 0.97198 0.0
H717 H 0.09499 0.24006 0.978 0.0
H718 H 0.10564 0.23869 1.01584 0.0
H719 H 0.0994 0.30005 1.00038 0.0
C720 C 0.81189 -0.01736 0.23045 0.0
C721 C 0.84936 0.04498 0.22287 0.0
C722 C 0.80937 0.95975 0.25887 0.0
C723 C 0.84576 -0.00133 0.2818 0.0
C724 C 0.88404 0.0616 0.27423 0.0
C725 C 0.88509 0.08343 0.2457 0.0
C726 C 0.76675 0.89287 0.26441 0.0
C727 C 0.92491 0.1067 0.2965 0.0
C728 C 0.80112 0.95236 0.36312 0.0
C729 C 0.83811 0.92775 0.37227 0.0
C730 C 0.80273 0.97433 0.3346 0.0
C731 C 0.84328 0.97406 0.31319 0.0
C732 C 0.88118 0.94977 0.32233 0.0
C733 C 0.8779 0.92707 0.35091 0.0
C734 C 0.76007 -0.00204 0.32734 0.0
C735 C 0.92648 0.94831 0.30178 0.0
H736 H 0.78368 0.95094 0.21395 0.0
H737 H 0.91494 0.13146 0.24125 0.0
H738 H 0.79353 0.87143 0.27159 0.0
H739 H 0.73437 0.88726 0.28177 0.0
H740 H 0.73991 0.86809 0.24523 0.0
H741 H 0.95386 0.15327 0.28775 0.0
H742 H 0.89653 0.10907 0.31402 0.0
H743 H 0.95525 0.09123 0.30588 0.0
H744 H 0.76986 0.95423 0.37845 0.0
H745 H 0.90772 0.90937 0.35663 0.0
H746 H 0.73133 0.97261 0.30872 0.0
H747 H 0.78715 0.04675 0.32129 0.0
H748 H 0.72946 -0.00645 0.34535 0.0
H749 H 0.90189 0.91991 0.28297 0.0
H750 H 0.95388 0.92974 0.31157 0.0
H751 H 0.95828 -0.00488 0.29401 0.0
C752 C 0.91616 0.90362 0.57521 0.0
C753 C 0.9114 0.86253 0.55325 0.0
C754 C 0.9377 0.90279 0.60367 0.0
C755 C 0.95518 0.85916 0.6121 0.0
C756 C 0.95014 0.81739 0.59007 0.0
C757 C 0.92938 0.81984 0.56166 0.0
C758 C 0.94202 0.94958 0.62494 0.0
C759 C 0.96633 0.76889 0.5966 0.0
C760 C 0.05988 0.88445 0.68059 0.0
C761 C 0.01811 0.8507 0.7027 0.0
C762 C 0.04068 0.88802 0.65194 0.0
C763 C -0.02273 0.8565 0.64352 0.0
C764 C 0.9351 0.82205 0.6657 0.0
C765 C 0.9554 0.82006 0.69422 0.0
C766 C 0.08907 0.92653 0.63048 0.0
C767 C 0.86736 0.78635 0.65925 0.0
H768 H 0.90332 0.93745 0.57012 0.0
H769 H 0.92667 0.78716 0.54589 0.0
H770 H 0.91107 0.92639 0.64317 0.0
H771 H -0.01055 0.97572 0.63349 0.0
H772 H 0.92952 0.9821 0.61554 0.0
H773 H 0.95954 0.7389 0.57797 0.0
H774 H 0.01495 0.79054 0.6035 0.0
H775 H 0.93767 0.74026 0.61446 0.0
H776 H 0.10837 0.9091 0.68573 0.0
H777 H 0.92123 0.79342 0.7101 0.0
H778 H 0.07936 0.96152 0.62176 0.0
H779 H 0.08788 0.89757 0.61239 0.0
H780 H 0.13597 0.94986 0.63979 0.0
H781 H 0.85125 0.81781 0.6523 0.0
H782 H 0.83979 0.76028 0.67794 0.0
H783 H 0.85863 0.75394 0.64146 0.0
C784 C 0.19971 0.94374 0.89211 0.0
C785 C 0.13993 0.89431 0.88603 0.0
C786 C 0.22195 0.96541 0.9206 0.0
C787 C 0.18509 0.93773 0.94531 0.0
C788 C 0.12471 0.88767 0.93935 0.0
C789 C 0.10326 0.8674 0.91056 0.0
C790 C 0.28578 0.01915 0.92417 0.0
C791 C 0.08201 0.85483 0.9637 0.0
C792 C 0.26427 0.96263 1.02186 0.0
C793 C 0.25481 0.00733 1.03576 0.0
C794 C 0.2421 0.93986 0.99339 0.0
C795 C 0.20904 0.96149 0.97676 0.0
C796 C 0.19974 0.00681 0.99066 0.0
C797 C 0.22175 0.02824 1.01918 0.0
C798 C 0.25405 0.89171 0.98103 0.0
C799 C 0.16625 0.03348 0.97517 0.0
H800 H 0.22974 0.96665 0.87429 0.0
H801 H 0.05712 0.82958 0.90734 0.0
H802 H 0.28374 0.05655 0.93568 0.0
H803 H 0.31383 0.00586 0.93726 0.0
H804 H 0.30925 0.03686 0.90347 0.0
H805 H 0.10407 0.83758 0.97854 0.0
H806 H 0.07271 0.88706 0.97588 0.0
H807 H 0.0376 0.81585 0.9564 0.0
H808 H 0.28897 0.94466 1.03338 0.0
H809 H 0.21299 0.0624 1.02855 0.0
H810 H 0.28185 0.90906 0.96136 0.0
H811 H 0.20993 0.85082 0.97498 0.0
H812 H 0.27862 0.87778 0.99615 0.0
H813 H 0.18999 0.05405 0.95485 0.0
H814 H 0.16319 0.06895 0.98795 0.0
H815 H 0.11909 -0.00322 0.96975 0.0
loop_
_geom_bond_atom_site_label_1
_geom_bond_atom_site_label_2
_geom_bond_distance
_geom_bond_site_symmetry_2
_ccdc_geom_bond_type
Gd0 C3 2.818 . S
Gd0 O20 2.377 . S
Gd0 O22 2.448 . S
Gd0 O23 2.506 . S
Gd0 O24 2.435 . S
Gd0 O25 2.717 . S
Gd0 O27 2.395 1_554 S
Gd0 O31 2.327 . S
Gd1 C12 2.818 . S
Gd1 O21 2.395 1_556 S
Gd1 O25 2.327 1_556 S
Gd1 O26 2.377 . S
Gd1 O28 2.448 . S
Gd1 O29 2.506 . S
Gd1 O30 2.440 . S
Gd1 O31 2.717 1_556 S
C2 O20 1.240 . S
C2 O21 1.240 . S
C3 Gd0 2.818 . S
C3 C4 1.510 . S
C3 O22 1.249 . S
C3 O23 1.252 . S
C4 C3 1.510 . S
C4 C5 1.404 . S
C4 C6 1.352 . S
C5 C4 1.404 . S
C5 C9 1.389 . S
C5 H32 0.930 . S
C6 C4 1.352 . S
C6 C8 1.374 . S
C6 H33 0.931 . S
C7 C8 1.359 . S
C7 C9 1.364 . S
C8 C6 1.374 . S
C8 C7 1.359 . S
C8 H34 0.931 . S
C9 C5 1.389 . S
C9 C7 1.364 . S
C9 H35 0.931 1_545 S
C10 O24 1.256 . S
C10 O25 1.257 . S
C11 O26 1.240 . S
C11 O27 1.240 . S
C12 Gd1 2.818 . S
C12 C13 1.510 . S
C12 O28 1.249 . S
C12 O29 1.252 . S
C13 C12 1.510 . S
C13 C14 1.404 . S
C13 C15 1.352 . S
C14 C13 1.404 . S
C14 C18 1.389 . S
C14 H36 0.930 . S
C15 C13 1.352 . S
C15 C17 1.374 . S
C15 H37 0.931 . S
C16 C17 1.359 . S
C16 C18 1.364 . S
C17 C15 1.374 . S
C17 C16 1.359 . S
C17 H38 0.931 . S
C18 C14 1.389 . S
C18 C16 1.364 . S
C18 H39 0.931 . S
C19 O30 1.227 1_554 S
C19 O31 1.257 . S
O20 Gd0 2.377 . S
O20 C2 1.240 . S
O21 Gd1 2.395 1_554 S
O21 C2 1.240 . S
O22 Gd0 2.448 . S
O22 C3 1.249 . S
O23 Gd0 2.506 . S
O23 C3 1.252 . S
O24 Gd0 2.435 . S
O24 C10 1.256 . S
O25 Gd0 2.717 . S
O25 Gd1 2.327 1_554 S
O25 C10 1.257 . S
O26 Gd1 2.377 . S
O26 C11 1.240 . S
O27 Gd0 2.395 1_556 S
O27 C11 1.240 . S
O28 Gd1 2.448 . S
O28 C12 1.249 . S
O29 Gd1 2.506 . S
O29 C12 1.252 . S
O30 Gd1 2.440 . S
O30 C19 1.227 1_556 S
O31 Gd0 2.327 . S
O31 Gd1 2.717 1_554 S
O31 C19 1.257 . S
H32 C5 0.930 . S
H33 C6 0.931 . S
H34 C8 0.931 . S
H35 C9 0.931 1_565 S
H36 C14 0.930 . S
H37 C15 0.931 . S
H38 C17 0.931 . S
H39 C18 0.931 . S
Gd40 C43 2.818 . S
Gd40 O60 2.377 . S
Gd40 O62 2.448 . S
Gd40 O63 2.506 . S
Gd40 O64 2.435 . S
Gd40 O65 2.717 . S
Gd40 O67 2.395 . S
Gd40 O71 2.327 . S
Gd41 C52 2.818 . S
Gd41 O61 2.395 . S
Gd41 O65 2.327 . S
Gd41 O66 2.377 . S
Gd41 O68 2.448 . S
Gd41 O69 2.506 . S
Gd41 O70 2.435 . S
Gd41 O71 2.717 . S
C42 O60 1.240 . S
C42 O61 1.240 . S
C43 Gd40 2.818 . S
C43 C44 1.510 . S
C43 O62 1.249 . S
C43 O63 1.252 . S
C44 C43 1.510 . S
C44 C45 1.404 . S
C44 C46 1.352 . S
C45 C44 1.404 . S
C45 C49 1.389 . S
C45 H72 0.930 . S
C46 C44 1.352 . S
C46 C48 1.374 . S
C46 H73 0.931 . S
C47 C48 1.359 . S
C47 C49 1.364 . S
C48 C46 1.374 . S
C48 C47 1.359 . S
C48 H74 0.931 . S
C49 C45 1.389 . S
C49 C47 1.364 . S
C49 H75 0.931 . S
C50 O64 1.256 . S
C50 O65 1.257 . S
C51 O66 1.240 . S
C51 O67 1.240 . S
C52 Gd41 2.818 . S
C52 C53 1.510 . S
C52 O68 1.249 . S
C52 O69 1.252 . S
C53 C52 1.510 . S
C53 C54 1.404 . S
C53 C55 1.352 . S
C54 C53 1.404 . S
C54 C58 1.389 . S
C54 H76 0.930 . S
C55 C53 1.352 . S
C55 C57 1.374 . S
C55 H77 0.931 . S
C56 C57 1.359 . S
C56 C58 1.364 . S
C57 C55 1.374 . S
C57 C56 1.359 . S
C57 H78 0.931 . S
C58 C54 1.389 . S
C58 C56 1.364 . S
C58 H79 0.931 . S
C59 O70 1.256 . S
C59 O71 1.257 . S
O60 Gd40 2.377 . S
O60 C42 1.240 . S
O61 Gd41 2.395 . S
O61 C42 1.240 . S
O62 Gd40 2.448 . S
O62 C43 1.249 . S
O63 Gd40 2.506 . S
O63 C43 1.252 . S
O64 Gd40 2.435 . S
O64 C50 1.256 . S
O65 Gd40 2.717 . S
O65 Gd41 2.327 . S
O65 C50 1.257 . S
O66 Gd41 2.377 . S
O66 C51 1.240 . S
O67 Gd40 2.395 . S
O67 C51 1.240 . S
O68 Gd41 2.448 . S
O68 C52 1.249 . S
O69 Gd41 2.506 . S
O69 C52 1.252 . S
O70 Gd41 2.435 . S
O70 C59 1.256 . S
O71 Gd40 2.327 . S
O71 Gd41 2.717 . S
O71 C59 1.257 . S
H72 C45 0.930 . S
H73 C46 0.931 . S
H74 C48 0.931 . S
H75 C49 0.931 . S
H76 C54 0.930 . S
H77 C55 0.931 . S
H78 C57 0.931 . S
H79 C58 0.931 . S
Gd80 C83 2.818 . S
Gd80 O100 2.377 1_455 S
Gd80 O102 2.448 . S
Gd80 O103 2.506 . S
Gd80 O104 2.435 . S
Gd80 O105 2.717 1_455 S
Gd80 O107 2.395 . S
Gd80 O111 2.327 . S
Gd81 C92 2.818 . S
Gd81 O101 2.395 . S
Gd81 O105 2.327 . S
Gd81 O106 2.377 1_655 S
Gd81 O108 2.448 . S
Gd81 O109 2.506 . S
Gd81 O110 2.435 . S
Gd81 O111 2.717 1_655 S
C82 O100 1.240 . S
C82 O101 1.240 . S
C83 Gd80 2.818 . S
C83 C84 1.510 . S
C83 O102 1.249 . S
C83 O103 1.252 . S
C84 C83 1.510 . S
C84 C85 1.404 . S
C84 C86 1.352 . S
C85 C84 1.404 . S
C85 C89 1.389 . S
C85 H112 0.930 . S
C86 C84 1.352 . S
C86 C88 1.374 . S
C86 H113 0.931 . S
C87 C88 1.359 . S
C87 C89 1.364 . S
C88 C86 1.374 . S
C88 C87 1.359 . S
C88 H114 0.931 . S
C89 C85 1.389 . S
C89 C87 1.364 . S
C89 H115 0.931 . S
C90 O104 1.256 . S
C90 O105 1.257 1_455 S
C91 O106 1.240 . S
C91 O107 1.240 . S
C92 Gd81 2.818 . S
C92 C93 1.510 . S
C92 O108 1.249 . S
C92 O109 1.252 . S
C93 C92 1.510 . S
C93 C94 1.404 . S
C93 C95 1.352 . S
C94 C93 1.404 . S
C94 C98 1.389 . S
C94 H116 0.930 . S
C95 C93 1.352 . S
C95 C97 1.374 . S
C95 H117 0.931 . S
C96 C97 1.359 . S
C96 C98 1.364 . S
C97 C95 1.374 . S
C97 C96 1.359 . S
C97 H118 0.931 . S
C98 C94 1.389 . S
C98 C96 1.364 . S
C98 H119 0.931 . S
C99 O110 1.256 . S
C99 O111 1.257 1_655 S
O100 Gd80 2.377 1_655 S
O100 C82 1.240 . S
O101 Gd81 2.395 . S
O101 C82 1.240 . S
O102 Gd80 2.448 . S
O102 C83 1.249 . S
O103 Gd80 2.506 . S
O103 C83 1.252 . S
O104 Gd80 2.435 . S
O104 C90 1.256 . S
O105 Gd80 2.717 1_655 S
O105 Gd81 2.327 . S
O105 C90 1.257 1_655 S
O106 Gd81 2.377 1_455 S
O106 C91 1.240 . S
O107 Gd80 2.395 . S
O107 C91 1.240 . S
O108 Gd81 2.448 . S
O108 C92 1.249 . S
O109 Gd81 2.506 . S
O109 C92 1.252 . S
O110 Gd81 2.435 . S
O110 C99 1.256 . S
O111 Gd80 2.327 . S
O111 Gd81 2.717 1_455 S
O111 C99 1.257 1_455 S
H112 C85 0.930 . S
H113 C86 0.931 . S
H114 C88 0.931 . S
H115 C89 0.931 . S
H116 C94 0.930 . S
H117 C95 0.931 . S
H118 C97 0.931 . S
H119 C98 0.931 . S
Gd120 C123 2.818 . S
Gd120 O140 2.377 . S
Gd120 O142 2.448 . S
Gd120 O143 2.506 . S
Gd120 O144 2.435 . S
Gd120 O145 2.717 . S
Gd120 O147 2.395 1_554 S
Gd120 O151 2.327 . S
Gd121 C132 2.818 . S
Gd121 O141 2.395 1_556 S
Gd121 O145 2.327 1_566 S
Gd121 O146 2.377 1_565 S
Gd121 O148 2.448 . S
Gd121 O149 2.506 . S
Gd121 O150 2.440 . S
Gd121 O151 2.717 1_566 S
C122 O140 1.240 1_565 S
C122 O141 1.240 . S
C123 Gd120 2.818 . S
C123 C124 1.510 . S
C123 O142 1.249 . S
C123 O143 1.252 . S
C124 C123 1.510 . S
C124 C125 1.404 . S
C124 C126 1.352 . S
C125 C124 1.404 . S
C125 C129 1.389 . S
C125 H152 0.930 . S
C126 C124 1.352 . S
C126 C128 1.374 . S
C126 H153 0.931 . S
C127 C128 1.359 . S
C127 C129 1.364 . S
C128 C126 1.374 . S
C128 C127 1.359 . S
C128 H154 0.931 . S
C129 C125 1.389 . S
C129 C127 1.364 . S
C129 H155 0.931 . S
C130 O144 1.256 . S
C130 O145 1.257 . S
C131 O146 1.240 . S
C131 O147 1.240 . S
C132 Gd121 2.818 . S
C132 C133 1.510 . S
C132 O148 1.249 . S
C132 O149 1.252 . S
C133 C132 1.510 . S
C133 C134 1.404 . S
C133 C135 1.352 . S
C134 C133 1.404 . S
C134 C138 1.389 . S
C134 H156 0.930 . S
C135 C133 1.352 . S
C135 C137 1.374 . S
C135 H157 0.931 . S
C136 C137 1.359 . S
C136 C138 1.364 . S
C137 C135 1.374 . S
C137 C136 1.359 . S
C137 H158 0.931 . S
C138 C134 1.389 . S
C138 C136 1.364 . S
C138 H159 0.931 . S
C139 O150 1.227 1_554 S
C139 O151 1.257 1_565 S
O140 Gd120 2.377 . S
O140 C122 1.240 1_545 S
O141 Gd121 2.395 1_554 S
O141 C122 1.240 . S
O142 Gd120 2.448 . S
O142 C123 1.249 . S
O143 Gd120 2.506 . S
O143 C123 1.252 . S
O144 Gd120 2.435 . S
O144 C130 1.256 . S
O145 Gd120 2.717 . S
O145 Gd121 2.327 1_544 S
O145 C130 1.257 . S
O146 Gd121 2.377 1_545 S
O146 C131 1.240 . S
O147 Gd120 2.395 1_556 S
O147 C131 1.240 . S
O148 Gd121 2.448 . S
O148 C132 1.249 . S
O149 Gd121 2.506 . S
O149 C132 1.252 . S
O150 Gd121 2.440 . S
O150 C139 1.227 1_556 S
O151 Gd120 2.327 . S
O151 Gd121 2.717 1_544 S
O151 C139 1.257 1_545 S
H152 C125 0.930 . S
H153 C126 0.931 . S
H154 C128 0.931 . S
H155 C129 0.931 . S
H156 C134 0.930 . S
H157 C135 0.931 . S
H158 C137 0.931 . S
H159 C138 0.931 . S
Gd160 C163 2.818 . S
Gd160 O180 2.377 . S
Gd160 O182 2.448 . S
Gd160 O183 2.506 . S
Gd160 O184 2.435 . S
Gd160 O185 2.717 . S
Gd160 O187 2.395 . S
Gd160 O191 2.327 . S
Gd161 C172 2.818 1_655 S
Gd161 O181 2.395 . S
Gd161 O185 2.327 . S
Gd161 O186 2.377 . S
Gd161 O188 2.448 . S
Gd161 O189 2.506 1_655 S
Gd161 O190 2.435 . S
Gd161 O191 2.717 . S
C162 O180 1.240 . S
C162 O181 1.240 . S
C163 Gd160 2.818 . S
C163 C164 1.510 . S
C163 O182 1.249 . S
C163 O183 1.252 . S
C164 C163 1.510 . S
C164 C165 1.404 . S
C164 C166 1.352 . S
C165 C164 1.404 . S
C165 C169 1.389 . S
C165 H192 0.930 . S
C166 C164 1.352 . S
C166 C168 1.374 . S
C166 H193 0.931 . S
C167 C168 1.359 . S
C167 C169 1.364 . S
C168 C166 1.374 . S
C168 C167 1.359 . S
C168 H194 0.931 . S
C169 C165 1.389 . S
C169 C167 1.364 . S
C169 H195 0.931 . S
C170 O184 1.256 1_455 S
C170 O185 1.257 1_455 S
C171 O186 1.240 . S
C171 O187 1.240 . S
C172 Gd161 2.818 1_455 S
C172 C173 1.510 . S
C172 O188 1.249 1_455 S
C172 O189 1.252 . S
C173 C172 1.510 . S
C173 C174 1.404 . S
C173 C175 1.352 . S
C174 C173 1.404 . S
C174 C178 1.389 . S
C174 H196 0.930 1_455 S
C175 C173 1.352 . S
C175 C177 1.374 . S
C175 H197 0.931 . S
C176 C177 1.359 . S
C176 C178 1.364 . S
C177 C175 1.374 . S
C177 C176 1.359 . S
C177 H198 0.931 . S
C178 C174 1.389 . S
C178 C176 1.364 . S
C178 H199 0.931 . S
C179 O190 1.256 . S
C179 O191 1.257 . S
O180 Gd160 2.377 . S
O180 C162 1.240 . S
O181 Gd161 2.395 . S
O181 C162 1.240 . S
O182 Gd160 2.448 . S
O182 C163 1.249 . S
O183 Gd160 2.506 . S
O183 C163 1.252 . S
O184 Gd160 2.435 . S
O184 C170 1.256 1_655 S
O185 Gd160 2.717 . S
O185 Gd161 2.327 . S
O185 C170 1.257 1_655 S
O186 Gd161 2.377 . S
O186 C171 1.240 . S
O187 Gd160 2.395 . S
O187 C171 1.240 . S
O188 Gd161 2.448 . S
O188 C172 1.249 1_655 S
O189 Gd161 2.506 1_455 S
O189 C172 1.252 . S
O190 Gd161 2.435 . S
O190 C179 1.256 . S
O191 Gd160 2.327 . S
O191 Gd161 2.717 . S
O191 C179 1.257 . S
H192 C165 0.930 . S
H193 C166 0.931 . S
H194 C168 0.931 . S
H195 C169 0.931 . S
H196 C174 0.930 1_655 S
H197 C175 0.931 . S
H198 C177 0.931 . S
H199 C178 0.931 . S
Gd200 C203 2.818 . S
Gd200 O220 2.377 . S
Gd200 O222 2.448 . S
Gd200 O223 2.506 . S
Gd200 O224 2.435 . S
Gd200 O225 2.717 . S
Gd200 O227 2.395 . S
Gd200 O231 2.327 . S
Gd201 C212 2.818 1_565 S
Gd201 O221 2.395 . S
Gd201 O225 2.327 . S
Gd201 O226 2.377 . S
Gd201 O228 2.448 . S
Gd201 O229 2.506 1_565 S
Gd201 O230 2.435 . S
Gd201 O231 2.717 . S
C202 O220 1.240 . S
C202 O221 1.240 . S
C203 Gd200 2.818 . S
C203 C204 1.510 . S
C203 O222 1.249 . S
C203 O223 1.252 . S
C204 C203 1.510 . S
C204 C205 1.404 . S
C204 C206 1.352 . S
C205 C204 1.404 . S
C205 C209 1.389 . S
C205 H232 0.930 . S
C206 C204 1.352 . S
C206 C208 1.374 . S
C206 H233 0.931 . S
C207 C208 1.359 . S
C207 C209 1.364 . S
C208 C206 1.374 . S
C208 C207 1.359 . S
C208 H234 0.931 . S
C209 C205 1.389 . S
C209 C207 1.364 . S
C209 H235 0.931 1_455 S
C210 O224 1.256 1_545 S
C210 O225 1.257 1_545 S
C211 O226 1.240 . S
C211 O227 1.240 . S
C212 Gd201 2.818 1_545 S
C212 C213 1.510 . S
C212 O228 1.249 1_545 S
C212 O229 1.252 . S
C213 C212 1.510 . S
C213 C214 1.404 . S
C213 C215 1.352 . S
C214 C213 1.404 . S
C214 C218 1.389 . S
C214 H236 0.930 1_545 S
C215 C213 1.352 . S
C215 C217 1.374 . S
C215 H237 0.931 . S
C216 C217 1.359 . S
C216 C218 1.364 . S
C217 C215 1.374 . S
C217 C216 1.359 . S
C217 H238 0.931 . S
C218 C214 1.389 . S
C218 C216 1.364 . S
C218 H239 0.931 . S
C219 O230 1.256 . S
C219 O231 1.257 . S
O220 Gd200 2.377 . S
O220 C202 1.240 . S
O221 Gd201 2.395 . S
O221 C202 1.240 . S
O222 Gd200 2.448 . S
O222 C203 1.249 . S
O223 Gd200 2.506 . S
O223 C203 1.252 . S
O224 Gd200 2.435 . S
O224 C210 1.256 1_565 S
O225 Gd200 2.717 . S
O225 Gd201 2.327 . S
O225 C210 1.257 1_565 S
O226 Gd201 2.377 . S
O226 C211 1.240 . S
O227 Gd200 2.395 . S
O227 C211 1.240 . S
O228 Gd201 2.448 . S
O228 C212 1.249 1_565 S
O229 Gd201 2.506 1_545 S
O229 C212 1.252 . S
O230 Gd201 2.435 . S
O230 C219 1.256 . S
O231 Gd200 2.327 . S
O231 Gd201 2.717 . S
O231 C219 1.257 . S
H232 C205 0.930 . S
H233 C206 0.931 . S
H234 C208 0.931 . S
H235 C209 0.931 1_655 S
H236 C214 0.930 1_565 S
H237 C215 0.931 . S
H238 C217 0.931 . S
H239 C218 0.931 . S
C240 C241 1.391 1_556 S
C240 C242 1.394 1_655 S
C240 H256 0.931 . S
C241 C240 1.391 1_554 S
C241 C245 1.376 1_545 S
C242 C240 1.394 1_455 S
C242 C243 1.369 1_556 S
C242 C246 1.531 . S
C243 C242 1.369 1_554 S
C243 C244 1.410 . S
C243 C251 1.503 . S
C244 C243 1.410 . S
C244 C245 1.392 1_445 S
C244 C247 1.511 . S
C245 C241 1.376 1_565 S
C245 C244 1.392 1_665 S
C245 H257 0.928 . S
C246 C242 1.531 . S
C246 H258 0.960 . S
C246 H259 0.962 . S
C246 H260 0.960 . S
C247 C244 1.511 . S
C247 H261 0.961 1_545 S
C247 H262 0.961 . S
C247 H263 0.961 . S
C248 C249 1.370 1_556 S
C248 C250 1.363 . S
C248 H264 0.931 . S
C249 C248 1.370 1_554 S
C249 C253 1.408 . S
C250 C248 1.363 . S
C250 C251 1.370 1_556 S
C250 C254 1.524 . S
C251 C243 1.503 . S
C251 C250 1.370 1_554 S
C251 C252 1.403 . S
C252 C251 1.403 . S
C252 C253 1.404 . S
C252 C255 1.539 . S
C253 C249 1.408 . S
C253 C252 1.404 . S
C253 H265 0.930 . S
C254 C250 1.524 . S
C254 H266 0.956 . S
C254 H267 0.961 . S
C254 H268 0.961 . S
C255 C252 1.539 . S
C255 H269 0.958 . S
C255 H270 0.961 . S
C255 H271 0.960 . S
H256 C240 0.931 . S
H257 C245 0.928 . S
H258 C246 0.960 . S
H259 C246 0.962 . S
H260 C246 0.960 . S
H261 C247 0.961 1_565 S
H262 C247 0.961 . S
H263 C247 0.961 . S
H264 C248 0.931 . S
H265 C253 0.930 . S
H266 C254 0.956 . S
H267 C254 0.961 . S
H268 C254 0.961 . S
H269 C255 0.958 . S
H270 C255 0.961 . S
H271 C255 0.960 . S
C272 C273 1.391 . S
C272 C274 1.394 1_565 S
C272 H288 0.931 . S
C273 C272 1.391 . S
C273 C277 1.376 . S
C274 C272 1.394 1_545 S
C274 C275 1.369 . S
C274 C278 1.531 . S
C275 C274 1.369 . S
C275 C276 1.410 . S
C275 C283 1.503 . S
C276 C275 1.410 . S
C276 C277 1.392 1_545 S
C276 C279 1.511 . S
C277 C273 1.376 . S
C277 C276 1.392 1_565 S
C277 H289 0.929 1_455 S
C278 C274 1.531 . S
C278 H290 0.960 . S
C278 H291 0.962 . S
C278 H292 0.960 . S
C279 C276 1.511 . S
C279 H293 0.961 1_455 S
C279 H294 0.961 . S
C279 H295 0.961 1_455 S
C280 C281 1.370 . S
C280 C282 1.363 . S
C280 H296 0.931 . S
C281 C280 1.370 . S
C281 C285 1.408 . S
C282 C280 1.363 . S
C282 C283 1.370 . S
C282 C286 1.524 . S
C283 C275 1.503 . S
C283 C282 1.370 . S
C283 C284 1.403 . S
C284 C283 1.403 . S
C284 C285 1.404 . S
C284 C287 1.539 . S
C285 C281 1.408 . S
C285 C284 1.404 . S
C285 H297 0.930 . S
C286 C282 1.524 . S
C286 H298 0.956 . S
C286 H299 0.961 . S
C286 H300 0.961 . S
C287 C284 1.539 . S
C287 H301 0.958 . S
C287 H302 0.961 . S
C287 H303 0.960 . S
H288 C272 0.931 . S
H289 C277 0.929 1_655 S
H290 C278 0.960 . S
H291 C278 0.962 . S
H292 C278 0.960 . S
H293 C279 0.961 1_655 S
H294 C279 0.961 . S
H295 C279 0.961 1_655 S
H296 C280 0.931 . S
H297 C285 0.930 . S
H298 C286 0.956 . S
H299 C286 0.961 . S
H300 C286 0.961 . S
H301 C287 0.958 . S
H302 C287 0.961 . S
H303 C287 0.960 . S
C304 C305 1.391 . S
C304 C306 1.394 . S
C304 H320 0.931 1_545 S
C305 C304 1.391 . S
C305 C309 1.376 . S
C306 C304 1.394 . S
C306 C307 1.369 . S
C306 C310 1.531 1_545 S
C307 C306 1.369 . S
C307 C308 1.410 . S
C307 C315 1.503 . S
C308 C307 1.410 . S
C308 C309 1.392 . S
C308 C311 1.511 . S
C309 C305 1.376 . S
C309 C308 1.392 . S
C309 H321 0.929 . S
C310 C306 1.531 1_565 S
C310 H322 0.960 1_565 S
C310 H323 0.962 . S
C310 H324 0.960 . S
C311 C308 1.511 . S
C311 H325 0.961 . S
C311 H326 0.961 . S
C311 H327 0.961 . S
C312 C313 1.370 . S
C312 C314 1.363 . S
C312 H328 0.931 . S
C313 C312 1.370 . S
C313 C317 1.408 . S
C314 C312 1.363 . S
C314 C315 1.370 . S
C314 C318 1.524 . S
C315 C307 1.503 . S
C315 C314 1.370 . S
C315 C316 1.403 . S
C316 C315 1.403 . S
C316 C317 1.404 . S
C316 C319 1.539 . S
C317 C313 1.408 . S
C317 C316 1.404 . S
C317 H329 0.930 . S
C318 C314 1.524 . S
C318 H330 0.956 . S
C318 H331 0.961 . S
C318 H332 0.961 . S
C319 C316 1.539 . S
C319 H333 0.958 . S
C319 H334 0.961 . S
C319 H335 0.960 . S
H320 C304 0.931 1_565 S
H321 C309 0.929 . S
H322 C310 0.960 1_545 S
H323 C310 0.962 . S
H324 C310 0.960 . S
H325 C311 0.961 . S
H326 C311 0.961 . S
H327 C311 0.961 . S
H328 C312 0.931 . S
H329 C317 0.930 . S
H330 C318 0.956 . S
H331 C318 0.961 . S
H332 C318 0.961 . S
H333 C319 0.958 . S
H334 C319 0.961 . S
H335 C319 0.960 . S
C336 C337 1.391 . S
C336 C338 1.394 . S
C336 H352 0.931 . S
C337 C336 1.391 . S
C337 C341 1.376 . S
C338 C336 1.394 . S
C338 C339 1.369 . S
C338 C342 1.531 . S
C339 C338 1.369 . S
C339 C340 1.410 . S
C339 C347 1.503 . S
C340 C339 1.410 . S
C340 C341 1.392 . S
C340 C343 1.511 . S
C341 C337 1.376 . S
C341 C340 1.392 . S
C341 H353 0.929 . S
C342 C338 1.531 . S
C342 H354 0.960 . S
C342 H355 0.962 . S
C342 H356 0.960 . S
C343 C340 1.511 . S
C343 H357 0.961 . S
C343 H358 0.961 . S
C343 H359 0.961 . S
C344 C345 1.370 . S
C344 C346 1.363 . S
C344 H360 0.931 . S
C345 C344 1.370 . S
C345 C349 1.408 . S
C346 C344 1.363 . S
C346 C347 1.370 . S
C346 C350 1.524 . S
C347 C339 1.503 . S
C347 C346 1.370 . S
C347 C348 1.403 . S
C348 C347 1.403 . S
C348 C349 1.404 . S
C348 C351 1.539 . S
C349 C345 1.408 . S
C349 C348 1.404 . S
C349 H361 0.930 . S
C350 C346 1.524 . S
C350 H362 0.956 . S
C350 H363 0.961 . S
C350 H364 0.961 . S
C351 C348 1.539 . S
C351 H365 0.958 . S
C351 H366 0.961 . S
C351 H367 0.960 . S
H352 C336 0.931 . S
H353 C341 0.929 . S
H354 C342 0.960 . S
H355 C342 0.962 . S
H356 C342 0.960 . S
H357 C343 0.961 . S
H358 C343 0.961 . S
H359 C343 0.961 . S
H360 C344 0.931 . S
H361 C349 0.930 . S
H362 C350 0.956 . S
H363 C350 0.961 . S
H364 C350 0.961 . S
H365 C351 0.958 . S
H366 C351 0.961 . S
H367 C351 0.960 . S
C368 C369 1.391 . S
C368 C370 1.394 . S
C368 H384 0.931 . S
C369 C368 1.391 . S
C369 C373 1.376 . S
C370 C368 1.394 . S
C370 C371 1.369 . S
C370 C374 1.531 . S
C371 C370 1.369 . S
C371 C372 1.410 . S
C371 C379 1.503 1_455 S
C372 C371 1.410 . S
C372 C373 1.392 . S
C372 C375 1.511 1_455 S
C373 C369 1.376 . S
C373 C372 1.392 . S
C373 H385 0.929 . S
C374 C370 1.531 . S
C374 H386 0.960 . S
C374 H387 0.962 . S
C374 H388 0.960 . S
C375 C372 1.511 1_655 S
C375 H389 0.961 1_655 S
C375 H390 0.961 . S
C375 H391 0.961 . S
C376 C377 1.370 . S
C376 C378 1.363 . S
C376 H392 0.931 . S
C377 C376 1.370 . S
C377 C381 1.408 . S
C378 C376 1.363 . S
C378 C379 1.370 . S
C378 C382 1.524 1_655 S
C379 C371 1.503 1_655 S
C379 C378 1.370 . S
C379 C380 1.403 . S
C380 C379 1.403 . S
C380 C381 1.404 . S
C380 C383 1.539 . S
C381 C377 1.408 . S
C381 C380 1.404 . S
C381 H393 0.930 . S
C382 C378 1.524 1_455 S
C382 H394 0.956 . S
C382 H395 0.961 . S
C382 H396 0.961 . S
C383 C380 1.539 . S
C383 H397 0.958 . S
C383 H398 0.961 . S
C383 H399 0.960 . S
H384 C368 0.931 . S
H385 C373 0.929 . S
H386 C374 0.960 . S
H387 C374 0.962 . S
H388 C374 0.960 . S
H389 C375 0.961 1_455 S
H390 C375 0.961 . S
H391 C375 0.961 . S
H392 C376 0.931 . S
H393 C381 0.930 . S
H394 C382 0.956 . S
H395 C382 0.961 . S
H396 C382 0.961 . S
H397 C383 0.958 . S
H398 C383 0.961 . S
H399 C383 0.960 . S
C400 C401 1.391 . S
C400 C402 1.394 . S
C400 H416 0.931 . S
C401 C400 1.391 . S
C401 C405 1.376 . S
C402 C400 1.394 . S
C402 C403 1.369 . S
C402 C406 1.531 . S
C403 C402 1.369 . S
C403 C404 1.410 . S
C403 C411 1.503 1_545 S
C404 C403 1.410 . S
C404 C405 1.392 . S
C404 C407 1.511 . S
C405 C401 1.376 . S
C405 C404 1.392 . S
C405 H417 0.929 . S
C406 C402 1.531 . S
C406 H418 0.960 . S
C406 H419 0.962 . S
C406 H420 0.960 . S
C407 C404 1.511 . S
C407 H421 0.961 . S
C407 H422 0.961 1_545 S
C407 H423 0.961 . S
C408 C409 1.370 . S
C408 C410 1.363 . S
C408 H424 0.931 . S
C409 C408 1.370 . S
C409 C413 1.408 . S
C410 C408 1.363 . S
C410 C411 1.370 . S
C410 C414 1.524 . S
C411 C403 1.503 1_565 S
C411 C410 1.370 . S
C411 C412 1.403 . S
C412 C411 1.403 . S
C412 C413 1.404 . S
C412 C415 1.539 1_565 S
C413 C409 1.408 . S
C413 C412 1.404 . S
C413 H425 0.930 . S
C414 C410 1.524 . S
C414 H426 0.956 . S
C414 H427 0.961 . S
C414 H428 0.961 . S
C415 C412 1.539 1_545 S
C415 H429 0.958 . S
C415 H430 0.961 . S
C415 H431 0.960 . S
H416 C400 0.931 . S
H417 C405 0.929 . S
H418 C406 0.960 . S
H419 C406 0.962 . S
H420 C406 0.960 . S
H421 C407 0.961 . S
H422 C407 0.961 1_565 S
H423 C407 0.961 . S
H424 C408 0.931 . S
H425 C413 0.930 . S
H426 C414 0.956 . S
H427 C414 0.961 . S
H428 C414 0.961 . S
H429 C415 0.958 . S
H430 C415 0.961 . S
H431 C415 0.960 . S
C432 C433 1.391 . S
C432 C434 1.394 . S
C432 H448 0.931 . S
C433 C432 1.391 . S
C433 C437 1.376 . S
C434 C432 1.394 . S
C434 C435 1.369 . S
C434 C438 1.531 . S
C435 C434 1.369 . S
C435 C436 1.410 . S
C435 C443 1.503 . S
C436 C435 1.410 . S
C436 C437 1.392 . S
C436 C439 1.511 . S
C437 C433 1.376 . S
C437 C436 1.392 . S
C437 H449 0.929 . S
C438 C434 1.531 . S
C438 H450 0.960 . S
C438 H451 0.962 . S
C438 H452 0.960 . S
C439 C436 1.511 . S
C439 H453 0.961 . S
C439 H454 0.961 . S
C439 H455 0.961 . S
C440 C441 1.370 . S
C440 C442 1.363 1_455 S
C440 H456 0.931 . S
C441 C440 1.370 . S
C441 C445 1.408 1_455 S
C442 C440 1.363 1_655 S
C442 C443 1.370 . S
C442 C446 1.524 . S
C443 C435 1.503 . S
C443 C442 1.370 . S
C443 C444 1.403 . S
C444 C443 1.403 . S
C444 C445 1.404 . S
C444 C447 1.539 . S
C445 C441 1.408 1_655 S
C445 C444 1.404 . S
C445 H457 0.930 . S
C446 C442 1.524 . S
C446 H458 0.956 . S
C446 H459 0.961 . S
C446 H460 0.961 1_655 S
C447 C444 1.539 . S
C447 H461 0.958 . S
C447 H462 0.961 . S
C447 H463 0.960 . S
H448 C432 0.931 . S
H449 C437 0.929 . S
H450 C438 0.960 . S
H451 C438 0.962 . S
H452 C438 0.960 . S
H453 C439 0.961 . S
H454 C439 0.961 . S
H455 C439 0.961 . S
H456 C440 0.931 . S
H457 C445 0.930 . S
H458 C446 0.956 . S
H459 C446 0.961 . S
H460 C446 0.961 1_455 S
H461 C447 0.958 . S
H462 C447 0.961 . S
H463 C447 0.960 . S
C464 C465 1.391 . S
C464 C466 1.394 . S
C464 H480 0.931 . S
C465 C464 1.391 . S
C465 C469 1.376 . S
C466 C464 1.394 . S
C466 C467 1.369 . S
C466 C470 1.531 . S
C467 C466 1.369 . S
C467 C468 1.410 . S
C467 C475 1.503 . S
C468 C467 1.410 . S
C468 C469 1.392 . S
C468 C471 1.511 . S
C469 C465 1.376 . S
C469 C468 1.392 . S
C469 H481 0.929 . S
C470 C466 1.531 . S
C470 H482 0.960 . S
C470 H483 0.962 . S
C470 H484 0.960 . S
C471 C468 1.511 . S
C471 H485 0.961 . S
C471 H486 0.961 . S
C471 H487 0.961 . S
C472 C473 1.370 . S
C472 C474 1.363 1_545 S
C472 H488 0.931 . S
C473 C472 1.370 . S
C473 C477 1.408 1_545 S
C474 C472 1.363 1_565 S
C474 C475 1.370 . S
C474 C478 1.524 . S
C475 C467 1.503 . S
C475 C474 1.370 . S
C475 C476 1.403 . S
C476 C475 1.403 . S
C476 C477 1.404 . S
C476 C479 1.539 . S
C477 C473 1.408 1_565 S
C477 C476 1.404 . S
C477 H489 0.930 . S
C478 C474 1.524 . S
C478 H490 0.956 . S
C478 H491 0.961 . S
C478 H492 0.961 . S
C479 C476 1.539 . S
C479 H493 0.958 . S
C479 H494 0.961 . S
C479 H495 0.960 . S
H480 C464 0.931 . S
H481 C469 0.929 . S
H482 C470 0.960 . S
H483 C470 0.962 . S
H484 C470 0.960 . S
H485 C471 0.961 . S
H486 C471 0.961 . S
H487 C471 0.961 . S
H488 C472 0.931 . S
H489 C477 0.930 . S
H490 C478 0.956 . S
H491 C478 0.961 . S
H492 C478 0.961 . S
H493 C479 0.958 . S
H494 C479 0.961 . S
H495 C479 0.960 . S
C496 C497 1.391 . S
C496 C498 1.394 . S
C496 H512 0.931 . S
C497 C496 1.391 . S
C497 C501 1.376 . S
C498 C496 1.394 . S
C498 C499 1.369 . S
C498 C502 1.531 . S
C499 C498 1.369 . S
C499 C500 1.410 . S
C499 C507 1.503 . S
C500 C499 1.410 . S
C500 C501 1.392 . S
C500 C503 1.511 . S
C501 C497 1.376 . S
C501 C500 1.392 . S
C501 H513 0.929 . S
C502 C498 1.531 . S
C502 H514 0.960 . S
C502 H515 0.962 . S
C502 H516 0.960 . S
C503 C500 1.511 . S
C503 H517 0.961 . S
C503 H518 0.961 . S
C503 H519 0.961 . S
C504 C505 1.370 . S
C504 C506 1.363 . S
C504 H520 0.931 . S
C505 C504 1.370 . S
C505 C509 1.408 . S
C506 C504 1.363 . S
C506 C507 1.370 . S
C506 C510 1.524 . S
C507 C499 1.503 . S
C507 C506 1.370 . S
C507 C508 1.403 . S
C508 C507 1.403 . S
C508 C509 1.404 . S
C508 C511 1.539 . S
C509 C505 1.408 . S
C509 C508 1.404 . S
C509 H521 0.930 . S
C510 C506 1.524 . S
C510 H522 0.956 . S
C510 H523 0.961 . S
C510 H524 0.961 . S
C511 C508 1.539 . S
C511 H525 0.958 . S
C511 H526 0.961 . S
C511 H527 0.960 . S
H512 C496 0.931 . S
H513 C501 0.929 . S
H514 C502 0.960 . S
H515 C502 0.962 . S
H516 C502 0.960 . S
H517 C503 0.961 . S
H518 C503 0.961 . S
H519 C503 0.961 . S
H520 C504 0.931 . S
H521 C509 0.930 . S
H522 C510 0.956 . S
H523 C510 0.961 . S
H524 C510 0.961 . S
H525 C511 0.958 . S
H526 C511 0.961 . S
H527 C511 0.960 . S
C528 C529 1.391 . S
C528 C530 1.394 . S
C528 H544 0.931 . S
C529 C528 1.391 . S
C529 C533 1.376 . S
C530 C528 1.394 . S
C530 C531 1.369 . S
C530 C534 1.531 . S
C531 C530 1.369 . S
C531 C532 1.410 . S
C531 C539 1.503 . S
C532 C531 1.410 . S
C532 C533 1.392 . S
C532 C535 1.511 . S
C533 C529 1.376 . S
C533 C532 1.392 . S
C533 H545 0.929 . S
C534 C530 1.531 . S
C534 H546 0.960 . S
C534 H547 0.962 . S
C534 H548 0.960 . S
C535 C532 1.511 . S
C535 H549 0.961 . S
C535 H550 0.961 . S
C535 H551 0.961 1_554 S
C536 C537 1.370 . S
C536 C538 1.363 . S
C536 H552 0.931 . S
C537 C536 1.370 . S
C537 C541 1.408 1_554 S
C538 C536 1.363 . S
C538 C539 1.370 . S
C538 C542 1.524 . S
C539 C531 1.503 . S
C539 C538 1.370 . S
C539 C540 1.403 1_554 S
C540 C539 1.403 1_556 S
C540 C541 1.404 . S
C540 C543 1.539 . S
C541 C537 1.408 1_556 S
C541 C540 1.404 . S
C541 H553 0.930 1_545 S
C542 C538 1.524 . S
C542 H554 0.956 . S
C542 H555 0.961 . S
C542 H556 0.961 . S
C543 C540 1.539 . S
C543 H557 0.958 . S
C543 H558 0.961 . S
C543 H559 0.960 . S
H544 C528 0.931 . S
H545 C533 0.929 . S
H546 C534 0.960 . S
H547 C534 0.962 . S
H548 C534 0.960 . S
H549 C535 0.961 . S
H550 C535 0.961 . S
H551 C535 0.961 1_556 S
H552 C536 0.931 . S
H553 C541 0.930 1_565 S
H554 C542 0.956 . S
H555 C542 0.961 . S
H556 C542 0.961 . S
H557 C543 0.958 . S
H558 C543 0.961 . S
H559 C543 0.960 . S
C560 C561 1.391 . S
C560 C562 1.394 . S
C560 H576 0.931 . S
C561 C560 1.391 . S
C561 C565 1.376 . S
C562 C560 1.394 . S
C562 C563 1.369 . S
C562 C566 1.531 . S
C563 C562 1.369 . S
C563 C564 1.410 . S
C563 C571 1.503 . S
C564 C563 1.410 . S
C564 C565 1.392 . S
C564 C567 1.511 . S
C565 C561 1.376 . S
C565 C564 1.392 . S
C565 H577 0.929 . S
C566 C562 1.531 . S
C566 H578 0.960 . S
C566 H579 0.962 . S
C566 H580 0.960 . S
C567 C564 1.511 . S
C567 H581 0.961 . S
C567 H582 0.961 . S
C567 H583 0.961 . S
C568 C569 1.370 . S
C568 C570 1.363 . S
C568 H584 0.931 . S
C569 C568 1.370 . S
C569 C573 1.408 . S
C570 C568 1.363 . S
C570 C571 1.370 . S
C570 C574 1.524 . S
C571 C563 1.503 . S
C571 C570 1.370 . S
C571 C572 1.403 . S
C572 C571 1.403 . S
C572 C573 1.404 . S
C572 C575 1.539 . S
C573 C569 1.408 . S
C573 C572 1.404 . S
C573 H585 0.930 . S
C574 C570 1.524 . S
C574 H586 0.956 . S
C574 H587 0.961 . S
C574 H588 0.961 . S
C575 C572 1.539 . S
C575 H589 0.958 . S
C575 H590 0.961 . S
C575 H591 0.960 . S
H576 C560 0.931 . S
H577 C565 0.929 . S
H578 C566 0.960 . S
H579 C566 0.962 . S
H580 C566 0.960 . S
H581 C567 0.961 . S
H582 C567 0.961 . S
H583 C567 0.961 . S
H584 C568 0.931 . S
H585 C573 0.930 . S
H586 C574 0.956 . S
H587 C574 0.961 . S
H588 C574 0.961 . S
H589 C575 0.958 . S
H590 C575 0.961 . S
H591 C575 0.960 . S
C592 C593 1.391 1_655 S
C592 C594 1.394 1_655 S
C592 H608 0.931 . S
C593 C592 1.391 1_455 S
C593 C597 1.376 . S
C594 C592 1.394 1_455 S
C594 C595 1.369 . S
C594 C598 1.531 . S
C595 C594 1.369 . S
C595 C596 1.410 . S
C595 C603 1.503 . S
C596 C595 1.410 . S
C596 C597 1.392 . S
C596 C599 1.511 . S
C597 C593 1.376 . S
C597 C596 1.392 . S
C597 H609 0.929 . S
C598 C594 1.531 . S
C598 H610 0.960 . S
C598 H611 0.948 1_455 S
C598 H612 0.960 1_455 S
C599 C596 1.511 . S
C599 H613 0.961 . S
C599 H614 0.961 . S
C599 H615 0.961 . S
C600 C601 1.370 . S
C600 C602 1.363 . S
C600 H616 0.931 . S
C601 C600 1.370 . S
C601 C605 1.408 . S
C602 C600 1.363 . S
C602 C603 1.370 . S
C602 C606 1.524 . S
C603 C595 1.503 . S
C603 C602 1.370 . S
C603 C604 1.403 . S
C604 C603 1.403 . S
C604 C605 1.404 . S
C604 C607 1.539 . S
C605 C601 1.408 . S
C605 C604 1.404 . S
C605 H617 0.930 . S
C606 C602 1.524 . S
C606 H618 0.956 . S
C606 H619 0.961 . S
C606 H620 0.961 . S
C607 C604 1.539 . S
C607 H621 0.958 . S
C607 H622 0.961 . S
C607 H623 0.960 . S
H608 C592 0.931 . S
H609 C597 0.929 . S
H610 C598 0.960 . S
H611 C598 0.948 1_655 S
H612 C598 0.960 1_655 S
H613 C599 0.961 . S
H614 C599 0.961 . S
H615 C599 0.961 . S
H616 C600 0.931 . S
H617 C605 0.930 . S
H618 C606 0.956 . S
H619 C606 0.961 . S
H620 C606 0.961 . S
H621 C607 0.958 . S
H622 C607 0.961 . S
H623 C607 0.960 . S
C624 C625 1.391 . S
C624 C626 1.394 . S
C624 H640 0.931 . S
C625 C624 1.391 . S
C625 C629 1.376 . S
C626 C624 1.394 . S
C626 C627 1.369 . S
C626 C630 1.531 . S
C627 C626 1.369 . S
C627 C628 1.410 . S
C627 C635 1.503 . S
C628 C627 1.410 . S
C628 C629 1.392 . S
C628 C631 1.511 . S
C629 C625 1.376 . S
C629 C628 1.392 . S
C629 H641 0.929 . S
C630 C626 1.531 . S
C630 H642 0.960 . S
C630 H643 0.962 . S
C630 H644 0.960 . S
C631 C628 1.511 . S
C631 H645 0.961 . S
C631 H646 0.961 . S
C631 H647 0.961 . S
C632 C633 1.370 . S
C632 C634 1.363 . S
C632 H648 0.931 . S
C633 C632 1.370 . S
C633 C637 1.408 . S
C634 C632 1.363 . S
C634 C635 1.370 . S
C634 C638 1.524 . S
C635 C627 1.503 . S
C635 C634 1.370 . S
C635 C636 1.403 . S
C636 C635 1.403 . S
C636 C637 1.404 . S
C636 C639 1.539 . S
C637 C633 1.408 . S
C637 C636 1.404 . S
C637 H649 0.930 . S
C638 C634 1.524 . S
C638 H650 0.956 . S
C638 H651 0.961 . S
C638 H652 0.961 . S
C639 C636 1.539 . S
C639 H653 0.958 . S
C639 H654 0.961 . S
C639 H655 0.960 . S
H640 C624 0.931 . S
H641 C629 0.929 . S
H642 C630 0.960 . S
H643 C630 0.962 . S
H644 C630 0.960 . S
H645 C631 0.961 . S
H646 C631 0.961 . S
H647 C631 0.961 . S
H648 C632 0.931 . S
H649 C637 0.930 . S
H650 C638 0.956 . S
H651 C638 0.961 . S
H652 C638 0.961 . S
H653 C639 0.958 . S
H654 C639 0.961 . S
H655 C639 0.960 . S
C656 C657 1.391 . S
C656 C658 1.394 . S
C656 H672 0.931 . S
C657 C656 1.391 . S
C657 C661 1.376 . S
C658 C656 1.394 . S
C658 C659 1.369 . S
C658 C662 1.531 . S
C659 C658 1.369 . S
C659 C660 1.410 . S
C659 C667 1.503 . S
C660 C659 1.410 . S
C660 C661 1.392 . S
C660 C663 1.511 . S
C661 C657 1.376 . S
C661 C660 1.392 . S
C661 H673 0.929 . S
C662 C658 1.531 . S
C662 H674 0.960 . S
C662 H675 0.962 . S
C662 H676 0.960 . S
C663 C660 1.511 . S
C663 H677 0.961 . S
C663 H678 0.961 . S
C663 H679 0.961 . S
C664 C665 1.370 . S
C664 C666 1.363 . S
C664 H680 0.931 . S
C665 C664 1.370 . S
C665 C669 1.408 . S
C666 C664 1.363 . S
C666 C667 1.370 . S
C666 C670 1.524 . S
C667 C659 1.503 . S
C667 C666 1.370 . S
C667 C668 1.403 . S
C668 C667 1.403 . S
C668 C669 1.404 . S
C668 C671 1.539 . S
C669 C665 1.408 . S
C669 C668 1.404 . S
C669 H681 0.930 . S
C670 C666 1.524 . S
C670 H682 0.956 . S
C670 H683 0.961 . S
C670 H684 0.961 . S
C671 C668 1.539 . S
C671 H685 0.958 . S
C671 H686 0.961 . S
C671 H687 0.960 . S
H672 C656 0.931 . S
H673 C661 0.929 . S
H674 C662 0.960 . S
H675 C662 0.962 . S
H676 C662 0.960 . S
H677 C663 0.961 . S
H678 C663 0.961 . S
H679 C663 0.961 . S
H680 C664 0.931 . S
H681 C669 0.930 . S
H682 C670 0.956 . S
H683 C670 0.961 . S
H684 C670 0.961 . S
H685 C671 0.958 . S
H686 C671 0.961 . S
H687 C671 0.960 . S
C688 C689 1.391 . S
C688 C690 1.394 . S
C688 H704 0.931 1_655 S
C689 C688 1.391 . S
C689 C693 1.376 . S
C690 C688 1.394 . S
C690 C691 1.369 . S
C690 C694 1.531 1_655 S
C691 C690 1.369 . S
C691 C692 1.410 . S
C691 C699 1.503 . S
C692 C691 1.410 . S
C692 C693 1.392 . S
C692 C695 1.511 . S
C693 C689 1.376 . S
C693 C692 1.392 . S
C693 H705 0.929 . S
C694 C690 1.531 1_455 S
C694 H706 0.960 . S
C694 H707 0.962 . S
C694 H708 0.960 . S
C695 C692 1.511 . S
C695 H709 0.961 . S
C695 H710 0.961 . S
C695 H711 0.961 . S
C696 C697 1.370 . S
C696 C698 1.363 . S
C696 H712 0.931 . S
C697 C696 1.370 . S
C697 C701 1.408 . S
C698 C696 1.363 . S
C698 C699 1.370 . S
C698 C702 1.524 . S
C699 C691 1.503 . S
C699 C698 1.370 . S
C699 C700 1.403 . S
C700 C699 1.403 . S
C700 C701 1.404 . S
C700 C703 1.539 . S
C701 C697 1.408 . S
C701 C700 1.404 . S
C701 H713 0.930 . S
C702 C698 1.524 . S
C702 H714 0.956 . S
C702 H715 0.961 . S
C702 H716 0.961 . S
C703 C700 1.539 . S
C703 H717 0.958 . S
C703 H718 0.961 . S
C703 H719 0.960 . S
H704 C688 0.931 1_455 S
H705 C693 0.929 . S
H706 C694 0.960 . S
H707 C694 0.962 . S
H708 C694 0.960 . S
H709 C695 0.961 . S
H710 C695 0.961 . S
H711 C695 0.961 . S
H712 C696 0.931 . S
H713 C701 0.930 . S
H714 C702 0.956 . S
H715 C702 0.961 . S
H716 C702 0.961 . S
H717 C703 0.958 . S
H718 C703 0.961 . S
H719 C703 0.960 . S
C720 C721 1.391 . S
C720 C722 1.394 . S
C720 H736 0.931 . S
C721 C720 1.391 . S
C721 C725 1.376 . S
C722 C720 1.394 . S
C722 C723 1.369 . S
C722 C726 1.531 . S
C723 C722 1.369 . S
C723 C724 1.410 . S
C723 C731 1.503 . S
C724 C723 1.410 . S
C724 C725 1.392 . S
C724 C727 1.511 . S
C725 C721 1.376 . S
C725 C724 1.392 . S
C725 H737 0.929 . S
C726 C722 1.531 . S
C726 H738 0.960 . S
C726 H739 0.962 . S
C726 H740 0.960 . S
C727 C724 1.511 . S
C727 H741 0.961 . S
C727 H742 0.961 . S
C727 H743 0.961 . S
C728 C729 1.370 . S
C728 C730 1.363 . S
C728 H744 0.931 . S
C729 C728 1.370 . S
C729 C733 1.408 . S
C730 C728 1.363 . S
C730 C731 1.370 . S
C730 C734 1.524 . S
C731 C723 1.503 . S
C731 C730 1.370 . S
C731 C732 1.403 . S
C732 C731 1.403 . S
C732 C733 1.404 . S
C732 C735 1.539 . S
C733 C729 1.408 . S
C733 C732 1.404 . S
C733 H745 0.930 . S
C734 C730 1.524 . S
C734 H746 0.956 . S
C734 H747 0.961 1_565 S
C734 H748 0.961 1_565 S
C735 C732 1.539 . S
C735 H749 0.958 . S
C735 H750 0.961 . S
C735 H751 0.960 . S
H736 C720 0.931 . S
H737 C725 0.929 . S
H738 C726 0.960 . S
H739 C726 0.962 . S
H740 C726 0.960 . S
H741 C727 0.961 . S
H742 C727 0.961 . S
H743 C727 0.961 . S
H744 C728 0.931 . S
H745 C733 0.930 . S
H746 C734 0.956 . S
H747 C734 0.961 1_545 S
H748 C734 0.961 1_545 S
H749 C735 0.958 . S
H750 C735 0.961 . S
H751 C735 0.960 . S
C752 C753 1.391 . S
C752 C754 1.394 . S
C752 H768 0.931 . S
C753 C752 1.391 . S
C753 C757 1.376 1_455 S
C754 C752 1.394 . S
C754 C755 1.369 . S
C754 C758 1.531 . S
C755 C754 1.369 . S
C755 C756 1.410 1_455 S
C755 C763 1.503 . S
C756 C755 1.410 1_655 S
C756 C757 1.392 . S
C756 C759 1.511 . S
C757 C753 1.376 1_655 S
C757 C756 1.392 . S
C757 H769 0.929 . S
C758 C754 1.531 . S
C758 H770 0.960 . S
C758 H771 0.962 . S
C758 H772 0.960 . S
C759 C756 1.511 . S
C759 H773 0.961 . S
C759 H774 0.961 . S
C759 H775 0.961 . S
C760 C761 1.370 . S
C760 C762 1.363 . S
C760 H776 0.931 . S
C761 C760 1.370 . S
C761 C765 1.408 . S
C762 C760 1.363 . S
C762 C763 1.370 . S
C762 C766 1.524 . S
C763 C755 1.503 . S
C763 C762 1.370 . S
C763 C764 1.403 . S
C764 C763 1.403 . S
C764 C765 1.404 . S
C764 C767 1.539 . S
C765 C761 1.408 . S
C765 C764 1.404 . S
C765 H777 0.930 . S
C766 C762 1.524 . S
C766 H778 0.956 . S
C766 H779 0.961 . S
C766 H780 0.961 . S
C767 C764 1.539 . S
C767 H781 0.958 . S
C767 H782 0.961 1_455 S
C767 H783 0.960 1_455 S
H768 C752 0.931 . S
H769 C757 0.929 . S
H770 C758 0.960 . S
H771 C758 0.962 . S
H772 C758 0.960 . S
H773 C759 0.961 . S
H774 C759 0.961 . S
H775 C759 0.961 . S
H776 C760 0.931 . S
H777 C765 0.930 . S
H778 C766 0.956 . S
H779 C766 0.961 . S
H780 C766 0.961 . S
H781 C767 0.958 . S
H782 C767 0.961 1_655 S
H783 C767 0.960 1_655 S
C784 C785 1.391 . S
C784 C786 1.394 . S
C784 H800 0.931 . S
C785 C784 1.391 . S
C785 C789 1.376 . S
C786 C784 1.394 . S
C786 C787 1.369 . S
C786 C790 1.531 . S
C787 C786 1.369 . S
C787 C788 1.410 . S
C787 C795 1.503 . S
C788 C787 1.410 . S
C788 C789 1.392 . S
C788 C791 1.511 . S
C789 C785 1.376 . S
C789 C788 1.392 . S
C789 H801 0.929 1_545 S
C790 C786 1.531 . S
C790 H802 0.960 . S
C790 H803 0.962 . S
C790 H804 0.960 . S
C791 C788 1.511 . S
C791 H805 0.961 1_545 S
C791 H806 0.961 . S
C791 H807 0.961 . S
C792 C793 1.370 . S
C792 C794 1.363 . S
C792 H808 0.931 . S
C793 C792 1.370 . S
C793 C797 1.408 . S
C794 C792 1.363 . S
C794 C795 1.370 . S
C794 C798 1.524 1_545 S
C795 C787 1.503 . S
C795 C794 1.370 . S
C795 C796 1.403 . S
C796 C795 1.403 . S
C796 C797 1.404 . S
C796 C799 1.539 . S
C797 C793 1.408 . S
C797 C796 1.404 . S
C797 H809 0.930 . S
C798 C794 1.524 1_565 S
C798 H810 0.956 . S
C798 H811 0.961 . S
C798 H812 0.961 . S
C799 C796 1.539 . S
C799 H813 0.958 . S
C799 H814 0.961 . S
C799 H815 0.960 . S
H800 C784 0.931 . S
H801 C789 0.929 1_565 S
H802 C790 0.960 . S
H803 C790 0.962 . S
H804 C790 0.960 . S
H805 C791 0.961 1_565 S
H806 C791 0.961 . S
H807 C791 0.961 . S
H808 C792 0.931 . S
H809 C797 0.930 . S
H810 C798 0.956 . S
H811 C798 0.961 . S
H812 C798 0.961 . S
H813 C799 0.958 . S
H814 C799 0.961 . S
H815 C799 0.960 . S
C241 C130 0.536 . S
C249 C10 0.640 . S
C273 C170 0.599 . S
C281 C50 0.682 . S
C305 C210 0.598 . S
C313 C90 0.610 . S
C337 C16 0.838 . S
C345 C87 0.714 . S
C369 C56 0.667 . S
C377 C127 0.790 . S
C401 C96 0.733 . S
C409 C167 0.738 . S
C433 C136 0.795 . S
C441 C207 0.762 . S
C465 C176 0.835 . S
C473 C7 0.715 . S
C497 C216 0.649 . S
C505 C47 0.788 . S
C529 C19 1.315 . S
C537 C139 1.335 1_545 S
C561 C59 1.324 . S
C569 C179 1.337 . S
C593 C99 1.343 1_455 S
C601 C219 1.357 . S
C625 C2 4.054 . S
C633 C51 4.102 . S
C657 C42 4.053 . S
C665 C91 4.102 . S
C689 C82 4.049 . S
C697 C131 4.104 . S
C721 C122 4.049 . S
C729 C171 4.102 . S
C753 C162 4.038 1_455 S
C761 C211 4.105 . S
C785 C202 4.038 1_545 S
C793 C11 4.103 . S
