# Generated by pormake.
# Topology smc, (6)-cn, num edge types: 1
# Building blocks:
#     Node 0, Type 0, BuildingBlock: BETDAH_clean_sbu_0, # of connection points: 6
#     Node 1, Type 0, BuildingBlock: BETDAH_clean_sbu_0, # of connection points: 6
#     Node 2, Type 0, BuildingBlock: BETDAH_clean_sbu_0, # of connection points: 6
#     Node 3, Type 0, BuildingBlock: BETDAH_clean_sbu_0, # of connection points: 6
#     Node 4, Type 0, BuildingBlock: BETDAH_clean_sbu_0, # of connection points: 6
#     Node 5, Type 0, BuildingBlock: BETDAH_clean_sbu_0, # of connection points: 6
#     Node 6, Type 0, BuildingBlock: BETDAH_clean_sbu_0, # of connection points: 6
#     Node 7, Type 0, BuildingBlock: BETDAH_clean_sbu_0, # of connection points: 6
#     Node 8, Type 0, BuildingBlock: BETDAH_clean_sbu_0, # of connection points: 6
#     Edge 9, Type (0, 0), BuildingBlock: CIFDUS_clean_linker_0, # of connection points: 2
#     Edge 10, Type (0, 0), BuildingBlock: CIFDUS_clean_linker_0, # of connection points: 2
#     Edge 11, Type (0, 0), BuildingBlock: CIFDUS_clean_linker_0, # of connection points: 2
#     Edge 12, Type (0, 0), BuildingBlock: CIFDUS_clean_linker_0, # of connection points: 2
#     Edge 13, Type (0, 0), BuildingBlock: CIFDUS_clean_linker_0, # of connection points: 2
#     Edge 14, Type (0, 0), BuildingBlock: CIFDUS_clean_linker_0, # of connection points: 2
#     Edge 15, Type (0, 0), BuildingBlock: CIFDUS_clean_linker_0, # of connection points: 2
#     Edge 16, Type (0, 0), BuildingBlock: CIFDUS_clean_linker_0, # of connection points: 2
#     Edge 17, Type (0, 0), BuildingBlock: CIFDUS_clean_linker_0, # of connection points: 2
#     Edge 18, Type (0, 0), BuildingBlock: CIFDUS_clean_linker_0, # of connection points: 2
#     Edge 19, Type (0, 0), BuildingBlock: CIFDUS_clean_linker_0, # of connection points: 2
#     Edge 20, Type (0, 0), BuildingBlock: CIFDUS_clean_linker_0, # of connection points: 2
#     Edge 21, Type (0, 0), BuildingBlock: CIFDUS_clean_linker_0, # of connection points: 2
#     Edge 22, Type (0, 0), BuildingBlock: CIFDUS_clean_linker_0, # of connection points: 2
#     Edge 23, Type (0, 0), BuildingBlock: CIFDUS_clean_linker_0, # of connection points: 2
#     Edge 24, Type (0, 0), BuildingBlock: CIFDUS_clean_linker_0, # of connection points: 2
#     Edge 25, Type (0, 0), BuildingBlock: CIFDUS_clean_linker_0, # of connection points: 2
#     Edge 26, Type (0, 0), BuildingBlock: CIFDUS_clean_linker_0, # of connection points: 2
#     Edge 27, Type (0, 0), BuildingBlock: CIFDUS_clean_linker_0, # of connection points: 2
#     Edge 28, Type (0, 0), BuildingBlock: CIFDUS_clean_linker_0, # of connection points: 2
#     Edge 29, Type (0, 0), BuildingBlock: CIFDUS_clean_linker_0, # of connection points: 2
#     Edge 30, Type (0, 0), BuildingBlock: CIFDUS_clean_linker_0, # of connection points: 2
#     Edge 31, Type (0, 0), BuildingBlock: CIFDUS_clean_linker_0, # of connection points: 2
#     Edge 32, Type (0, 0), BuildingBlock: CIFDUS_clean_linker_0, # of connection points: 2
#     Edge 33, Type (0, 0), BuildingBlock: CIFDUS_clean_linker_0, # of connection points: 2
#     Edge 34, Type (0, 0), BuildingBlock: CIFDUS_clean_linker_0, # of connection points: 2
#     Edge 35, Type (0, 0), BuildingBlock: CIFDUS_clean_linker_0, # of connection points: 2
# Relax obj value: 0.180
# Max RMSD: 0.322
# Mean RMSD: 0.322
data_MOF--net-smc--node1-BETDAH_clean_sbu_0--edge1-CIFDUS_clean_linker_0
_symmetry_space_group_name_H-M    P1
_symmetry_Int_Tables_number       1
_symmetry_cell_setting            triclinic
loop_
_symmetry_equiv_pos_as_xyz
'x, y, z'
_cell_length_a     35.829822
_cell_length_b     35.955346
_cell_length_c     34.520243
_cell_angle_alpha  90.371369
_cell_angle_beta   89.972492
_cell_angle_gamma 120.07165
loop_
_atom_site_label
_atom_site_type_symbol
_atom_site_fract_x
_atom_site_fract_y
_atom_site_fract_z
_atom_type_partial_charge
Ho0 Ho 0.05596 0.48808 1.0024 0.0
Ho1 Ho 0.99656 0.39623 0.0198 0.0
C2 C 0.09882 0.42926 1.00491 0.0
C3 C 0.11058 0.56927 0.99754 0.0
C4 C 0.142 0.61601 0.99489 0.0
C5 C 0.15246 0.64321 0.02751 0.0
C6 C 0.18064 0.68772 0.02428 0.0
C7 C 0.19869 0.70611 0.98824 0.0
C8 C 0.18712 0.67867 0.9556 0.0
C9 C 0.15957 0.63434 0.95895 0.0
C10 C 1.0102 0.43658 0.93979 0.0
C11 C 0.96277 0.46383 0.0209 0.0
C12 C 0.93742 0.31598 0.01694 0.0
C13 C 0.88954 0.29461 0.0196 0.0
C14 C 0.86555 0.30447 0.99348 0.0
C15 C 0.82044 0.28332 0.99544 0.0
C16 C 0.79789 0.25206 0.02389 0.0
C17 C 0.82218 0.24319 0.05064 0.0
C18 C 0.8673 0.26399 0.04835 0.0
C19 C 0.03586 0.44037 0.08648 0.0
O20 O 0.10512 0.46863 1.00441 0.0
O21 O 0.05949 0.3947 1.00919 0.0
O22 O 0.10541 0.54193 0.96991 0.0
O23 O 0.08725 0.55186 0.02843 0.0
O24 O 1.01707 0.47523 0.94557 0.0
O25 O 1.02802 0.42861 0.96691 0.0
O26 O 0.95298 0.42487 1.00936 0.0
O27 O 1.0024 0.49136 0.03058 0.0
O28 O 0.95964 0.33429 0.04835 0.0
O29 O 0.9548 0.33944 0.98634 0.0
O30 O 0.99494 0.41323 0.08266 0.0
O31 O 0.05224 0.44668 0.05285 0.0
H32 H 0.13898 0.63008 0.0556 0.0
H33 H 0.18885 0.7075 0.05015 0.0
H34 H 0.19916 0.69142 0.92709 0.0
H35 H 0.15146 0.61448 0.93311 0.0
H36 H 0.8815 0.32823 0.97108 0.0
H37 H 0.80333 0.2909 0.97395 0.0
H38 H 0.80645 0.22021 0.07362 0.0
H39 H 0.88486 0.25605 0.06909 0.0
Ho40 Ho 0.56287 0.57736 1.00607 0.0
Ho41 Ho 0.6558 0.61026 0.01829 0.0
C42 C 0.61867 0.67702 1.00068 0.0
C43 C 0.47962 0.53523 1.00733 0.0
C44 C 0.43589 0.52806 1.00147 0.0
C45 C 0.42461 0.55892 1.01164 0.0
C46 C 0.38119 0.54783 1.01222 0.0
C47 C 0.34821 0.50536 1.00371 0.0
C48 C 0.36018 0.47538 0.9917 0.0
C49 C 0.40354 0.48677 0.99037 0.0
C50 C 0.60983 0.59269 0.9394 0.0
C51 C 0.59027 0.50962 0.02605 0.0
C52 C 0.73655 0.63245 0.01605 0.0
C53 C 0.75843 0.60633 0.01726 0.0
C54 C 0.77776 0.60085 0.9839 0.0
C55 C 0.79862 0.57659 0.98508 0.0
C56 C 0.80061 0.55702 0.01966 0.0
C57 C 0.78087 0.56216 0.05291 0.0
C58 C 0.76013 0.58642 0.05176 0.0
C59 C 0.61577 0.61051 0.08605 0.0
O60 O 0.57966 0.64479 1.00739 0.0
O61 O 0.65322 0.67155 0.99994 0.0
O62 O 0.50184 0.53448 0.97763 0.0
O63 O 0.50338 0.56081 0.03536 0.0
O64 O 0.57859 0.60061 0.94453 0.0
O65 O 0.6134 0.5753 0.96992 0.0
O66 O 0.62923 0.53807 0.01412 0.0
O67 O 0.56272 0.52205 0.03456 0.0
O68 O 0.71686 0.63325 0.04759 0.0
O69 O 0.71422 0.62927 0.98495 0.0
O70 O 0.64242 0.59623 0.08232 0.0
O71 O 0.60858 0.61924 0.05235 0.0
H72 H 0.4491 0.59104 0.02033 0.0
H73 H 0.37357 0.57239 0.02037 0.0
H74 H 0.33618 0.44238 0.98527 0.0
H75 H 0.4117 0.46242 0.98269 0.0
H76 H 0.7768 0.61541 0.95681 0.0
H77 H 0.81294 0.57292 0.95875 0.0
H78 H 0.78216 0.54812 0.08018 0.0
H79 H 0.74561 0.58968 0.07813 0.0
Ho80 Ho 0.46908 0.99335 1.00451 0.0
Ho81 Ho 0.4431 0.05547 0.02432 0.0
C82 C 0.37039 0.95413 1.00166 0.0
C83 C 0.50834 0.94953 0.99878 0.0
C84 C 0.51697 0.91355 0.99537 0.0
C85 C 0.49035 0.87383 0.01289 0.0
C86 C 0.50311 0.84285 0.01445 0.0
C87 C 0.54345 0.85133 0.99959 0.0
C88 C 0.569 0.89062 0.98055 0.0
C89 C 0.55575 0.92119 0.97833 0.0
C90 C 0.45944 0.03526 0.94238 0.0
C91 C 0.54234 0.08539 0.03145 0.0
C92 C 0.42262 0.11506 0.02914 0.0
C93 C 0.44846 0.16307 0.02918 0.0
C94 C 0.45462 0.18673 0.99509 0.0
C95 C 0.47841 0.2319 0.99574 0.0
C96 C 0.49673 0.25463 0.03051 0.0
C97 C 0.49064 0.23085 0.06446 0.0
C98 C 0.4669 0.18587 0.06383 0.0
C99 C 0.43899 1.00906 0.08848 0.0
O100 O 0.40103 0.94469 1.00633 0.0
O101 O 0.3786 0.99486 1.00467 0.0
O102 O 0.49956 0.96555 0.96863 0.0
O103 O 0.49283 0.95508 0.03116 0.0
O104 O 0.44669 0.99458 0.94303 0.0
O105 O 0.47781 0.05184 0.97425 0.0
O106 O 0.51597 0.09931 0.02145 0.0
O107 O 0.52705 0.04413 0.03507 0.0
O108 O 0.42771 0.0961 0.05908 0.0
O109 O 0.42003 0.09464 0.99685 0.0
O110 O 0.45979 0.05063 0.08615 0.0
O111 O 0.42864 0.99513 0.05397 0.0
H112 H 0.46028 0.86715 0.02626 0.0
H113 H 0.48151 0.81254 0.02813 0.0
H114 H 0.60022 0.89882 0.96889 0.0
H115 H 0.57696 0.95185 0.9649 0.0
H116 H 0.44095 0.17035 0.96788 0.0
H117 H 0.48273 0.24899 0.9689 0.0
H118 H 0.5035 0.24699 0.09192 0.0
H119 H 0.46276 0.169 0.09078 0.0
Ho120 Ho 0.72646 0.82097 0.33474 0.0
Ho121 Ho 0.6618 0.73156 0.35552 0.0
C122 C 0.76347 0.75944 0.33558 0.0
C123 C 0.77126 0.90395 0.33143 0.0
C124 C 0.80753 0.94833 0.33658 0.0
C125 C 0.82637 0.96365 0.37311 0.0
C126 C 0.85552 1.00736 0.37895 0.0
C127 C 0.86701 0.0369 0.34835 0.0
C128 C 0.84836 0.02135 0.31168 0.0
C129 C 0.81886 0.97754 0.30594 0.0
C130 C 0.68574 0.76858 0.27259 0.0
C131 C 0.63182 0.80157 0.35849 0.0
C132 C 0.60122 0.65164 0.35843 0.0
C133 C 0.55324 0.62972 0.35729 0.0
C134 C 0.53081 0.6345 0.32599 0.0
C135 C 0.48553 0.61351 0.32584 0.0
C136 C 0.46139 0.58755 0.35716 0.0
C137 C 0.48421 0.5837 0.38872 0.0
C138 C 0.52934 0.60423 0.38862 0.0
C139 C 0.70975 0.77657 0.4188 0.0
O140 O 0.77371 0.79976 0.3407 0.0
O141 O 0.72248 0.72718 0.33824 0.0
O142 O 0.76958 0.87943 0.30253 0.0
O143 O 0.75051 0.88253 0.36217 0.0
O144 O 0.72564 0.79896 0.27292 0.0
O145 O 0.66867 0.76963 0.30444 0.0
O146 O 0.61779 0.76024 0.35331 0.0
O147 O 0.67314 0.82939 0.35775 0.0
O148 O 0.61966 0.67509 0.38914 0.0
O149 O 0.62217 0.6701 0.32678 0.0
O150 O 0.66809 0.75243 0.41804 0.0
O151 O 0.72291 0.77927 0.38435 0.0
H152 H 0.81764 0.94211 0.39753 0.0
H153 H 0.86841 0.01808 0.40782 0.0
H154 H 0.85664 0.04293 0.28735 0.0
H155 H 0.80402 0.96662 0.27769 0.0
H156 H 0.54817 0.65428 0.30147 0.0
H157 H 0.46955 0.6171 0.30075 0.0
H158 H 0.46734 0.56508 0.41391 0.0
H159 H 0.54568 0.60034 0.41333 0.0
Ho160 Ho 0.22968 0.91729 0.33753 0.0
Ho161 Ho 0.31948 0.94444 0.35495 0.0
C162 C 0.28761 1.01594 0.33404 0.0
C163 C 0.14714 0.88379 0.33303 0.0
C164 C 0.09978 0.8645 0.32991 0.0
C165 C 0.07453 0.85951 0.36279 0.0
C166 C 0.02985 0.84247 0.35928 0.0
C167 C 1.00969 0.83057 0.32273 0.0
C168 C 0.03508 0.83508 0.29004 0.0
C169 C 0.07952 0.85174 0.2936 0.0
C170 C 0.27982 0.92695 0.27407 0.0
C171 C 0.24913 0.84566 0.36479 0.0
C172 C 0.40019 0.96526 0.35561 0.0
C173 C 0.42352 0.94056 0.35367 0.0
C174 C 0.42015 0.91469 0.32158 0.0
C175 C 0.44161 0.89101 0.3211 0.0
C176 C 0.46726 0.89256 0.35269 0.0
C177 C 0.47051 0.91846 0.38481 0.0
C178 C 0.44904 0.94208 0.38522 0.0
C179 C 0.27972 0.94863 0.42059 0.0
O180 O 0.24787 0.98425 0.33303 0.0
O181 O 0.32083 1.00909 0.34058 0.0
O182 O 0.16979 0.87823 0.3063 0.0
O183 O 0.16956 0.90745 0.36253 0.0
O184 O 0.25146 0.93916 0.27571 0.0
O185 O 0.27922 0.90919 0.3057 0.0
O186 O 0.28915 0.87156 0.35339 0.0
O187 O 0.22321 0.86105 0.36954 0.0
O188 O 0.37746 0.95949 0.38682 0.0
O189 O 0.38034 0.96732 0.32453 0.0
O190 O 0.3026 0.93 0.41786 0.0
O191 O 0.2738 0.95797 0.38642 0.0
H192 H 0.08935 0.86907 0.39118 0.0
H193 H 1.01131 0.83981 0.38496 0.0
H194 H 1.02058 0.8259 0.26152 0.0
H195 H 0.09814 0.8553 0.26774 0.0
H196 H 0.40126 0.91284 0.29663 0.0
H197 H 0.43867 0.8721 0.29555 0.0
H198 H 0.48927 0.92018 0.41003 0.0
H199 H 0.45222 0.9615 0.4105 0.0
Ho200 Ho 0.135 0.32842 0.33721 0.0
Ho201 Ho 0.10253 0.3897 0.35736 0.0
C202 C 0.03512 0.28738 0.35377 0.0
C203 C 0.1604 0.2732 0.32932 0.0
C204 C 0.17594 0.24201 0.32709 0.0
C205 C 0.19571 0.23564 0.35952 0.0
C206 C 0.21542 0.2106 0.35671 0.0
C207 C 0.21596 0.19112 0.32133 0.0
C208 C 0.19538 0.1969 0.28902 0.0
C209 C 0.17558 0.22205 0.29189 0.0
C210 C 0.11725 0.36738 0.27656 0.0
C211 C 0.20618 0.42159 0.36185 0.0
C212 C 0.09071 0.45346 0.34309 0.0
C213 C 0.11732 0.50084 0.34912 0.0
C214 C 0.15422 0.52585 0.32642 0.0
C215 C 0.1776 0.57064 0.33025 0.0
C216 C 0.1652 0.59196 0.35719 0.0
C217 C 0.12903 0.56671 0.38075 0.0
C218 C 0.1053 0.52183 0.37657 0.0
C219 C 0.10218 0.35465 0.42568 0.0
O220 O 0.0691 0.28245 0.35594 0.0
O221 O 0.03874 0.32601 0.34891 0.0
O222 O 0.13144 0.2732 0.3061 0.0
O223 O 0.17356 0.3019 0.35708 0.0
O224 O 0.15103 0.3629 0.27744 0.0
O225 O 0.09703 0.35158 0.30704 0.0
O226 O 0.17645 0.43311 0.35904 0.0
O227 O 0.19638 0.38169 0.35785 0.0
O228 O 0.07451 0.4291 0.3737 0.0
O229 O 0.10557 0.43699 0.31773 0.0
O230 O 0.0939 0.38544 0.42064 0.0
O231 O 0.1141 0.34509 0.39357 0.0
H232 H 0.19684 0.25086 0.38703 0.0
H233 H 0.23129 0.20758 0.38218 0.0
H234 H 0.1945 0.18198 0.26143 0.0
H235 H 0.16109 0.22687 0.26629 0.0
H236 H 0.16475 0.51101 0.30494 0.0
H237 H 0.20468 0.58851 0.3111 0.0
H238 H 0.11879 0.5815 0.4025 0.0
H239 H 0.07722 0.50357 0.39461 0.0
Ho240 Ho 0.39238 0.15613 0.6736 0.0
Ho241 Ho 0.32976 0.06597 0.69395 0.0
C242 C 0.4322 0.09616 0.67575 0.0
C243 C 0.43741 0.23915 0.6711 0.0
C244 C 0.4727 0.28446 0.67154 0.0
C245 C 0.50944 0.29833 0.69478 0.0
C246 C 0.53945 0.34229 0.69871 0.0
C247 C 0.53291 0.37365 0.68034 0.0
C248 C 0.49656 0.35918 0.65604 0.0
C249 C 0.46707 0.31517 0.65156 0.0
C250 C 0.35655 0.10261 0.61108 0.0
C251 C 0.29491 0.132 0.6914 0.0
C252 C 0.27178 0.98523 0.70101 0.0
C253 C 0.22405 0.95934 0.70091 0.0
C254 C 0.19817 0.96908 0.67712 0.0
C255 C 0.15301 0.94238 0.67686 0.0
C256 C 0.13305 0.90556 0.70036 0.0
C257 C 0.15923 0.89728 0.72515 0.0
C258 C 0.20403 0.92369 0.72527 0.0
C259 C 0.37477 0.11189 0.75815 0.0
O260 O 0.44121 0.13637 0.67801 0.0
O261 O 0.39161 0.06318 0.67872 0.0
O262 O 0.42577 0.21538 0.63972 0.0
O263 O 0.4267 0.21719 0.70326 0.0
O264 O 0.39589 0.13438 0.6124 0.0
O265 O 0.33725 0.10285 0.6418 0.0
O266 O 0.28398 0.09144 0.68618 0.0
O267 O 0.33573 0.16181 0.6937 0.0
O268 O 0.28948 1.01124 0.73034 0.0
O269 O 0.29056 1.0027 0.66849 0.0
O270 O 0.3331 0.09019 0.75491 0.0
O271 O 0.38896 0.1149 0.72396 0.0
H272 H 0.51453 0.27527 0.71053 0.0
H273 H 0.56754 0.35151 0.71666 0.0
H274 H 0.48969 0.38169 0.64159 0.0
H275 H 0.43869 0.30519 0.6337 0.0
H276 H 0.21283 0.99682 0.65835 0.0
H277 H 0.13394 0.94977 0.65741 0.0
H278 H 0.14508 0.86993 0.74437 0.0
H279 H 0.2232 0.91589 0.74422 0.0
Ho280 Ho 0.90035 0.24946 0.67377 0.0
Ho281 Ho 0.99262 0.28521 0.68899 0.0
C282 C 0.95488 0.35118 0.67876 0.0
C283 C 0.81842 0.22157 0.67035 0.0
C284 C 0.77116 0.20516 0.66888 0.0
C285 C 0.74341 0.17629 0.69689 0.0
C286 C 0.69856 0.15868 0.69409 0.0
C287 C 0.68012 0.16976 0.66335 0.0
C288 C 0.70842 0.19985 0.6361 0.0
C289 C 0.75311 0.2169 0.63862 0.0
C290 C 0.94944 0.25425 0.60965 0.0
C291 C 0.92858 0.18325 0.6913 0.0
C292 C 0.07381 0.30852 0.6858 0.0
C293 C 0.09824 0.28513 0.69106 0.0
C294 C 0.10063 0.25962 0.66095 0.0
C295 C 0.1259 0.24005 0.66485 0.0
C296 C 0.14975 0.24552 0.6989 0.0
C297 C 0.14604 0.26966 0.7295 0.0
C298 C 0.12075 0.28921 0.72561 0.0
C299 C 0.94958 0.27282 0.75701 0.0
O300 O 0.91638 0.31696 0.67642 0.0
O301 O 0.9906 0.34836 0.68325 0.0
O302 O 0.84517 0.24577 0.64343 0.0
O303 O 0.83668 0.21342 0.69932 0.0
O304 O 0.91143 0.22209 0.61708 0.0
O305 O 0.9584 0.28153 0.63603 0.0
O306 O 0.96644 0.21366 0.67875 0.0
O307 O 0.89925 0.19312 0.70052 0.0
O308 O 0.05627 0.31545 0.71625 0.0
O309 O 0.04844 0.29728 0.6557 0.0
O310 O 0.97635 0.25947 0.74944 0.0
O311 O 0.94197 0.28618 0.72556 0.0
H312 H 0.75626 0.16652 0.72063 0.0
H313 H 0.67846 0.1355 0.7156 0.0
H314 H 0.69628 0.21062 0.6126 0.0
H315 H 0.77353 0.2392 0.61664 0.0
H316 H 0.08371 0.25546 0.63384 0.0
H317 H 0.12803 0.222 0.64055 0.0
H318 H 0.16317 0.27393 0.75648 0.0
H319 H 0.11946 0.30821 0.74949 0.0
Ho320 Ho 0.80331 0.6647 0.67207 0.0
Ho321 Ho 0.77053 0.72628 0.68687 0.0
C322 C 0.70289 0.62407 0.68411 0.0
C323 C 0.82838 0.60907 0.66696 0.0
C324 C 0.84347 0.57755 0.66569 0.0
C325 C 0.86365 0.5721 0.69828 0.0
C326 C 0.88294 0.54666 0.69612 0.0
C327 C 0.88268 0.52599 0.66125 0.0
C328 C 0.86172 0.53084 0.62879 0.0
C329 C 0.84228 0.55631 0.63101 0.0
C330 C 0.78728 0.70145 0.60862 0.0
C331 C 0.87438 0.76012 0.69047 0.0
C332 C 0.7579 0.78887 0.66945 0.0
C333 C 0.77981 0.83581 0.67827 0.0
C334 C 0.80788 0.86554 0.65084 0.0
C335 C 0.82683 0.90986 0.65729 0.0
C336 C 0.81814 0.92583 0.69133 0.0
C337 C 0.79128 0.89608 0.71941 0.0
C338 C 0.77229 0.85167 0.71294 0.0
C339 C 0.76958 0.69519 0.75751 0.0
O340 O 0.73629 0.6188 0.68993 0.0
O341 O 0.70756 0.66264 0.67662 0.0
O342 O 0.80055 0.60929 0.64247 0.0
O343 O 0.8405 0.63769 0.69477 0.0
O344 O 0.82132 0.69765 0.61147 0.0
O345 O 0.76613 0.68631 0.63871 0.0
O346 O 0.84372 0.77011 0.68682 0.0
O347 O 0.86533 0.72015 0.69013 0.0
O348 O 0.73668 0.76147 0.69722 0.0
O349 O 0.78001 0.77672 0.64794 0.0
O350 O 0.76441 0.72751 0.74987 0.0
O351 O 0.78169 0.68349 0.7268 0.0
H352 H 0.86543 0.58832 0.72536 0.0
H353 H 0.8991 0.54419 0.72165 0.0
H354 H 0.86032 0.51494 0.60163 0.0
H355 H 0.82742 0.56038 0.6053 0.0
H356 H 0.8145 0.85452 0.6238 0.0
H357 H 0.84695 0.93151 0.63482 0.0
H358 H 0.78448 0.9071 0.74634 0.0
H359 H 0.75122 0.82985 0.73487 0.0
H360 H 0.27594 0.44301 0.96464 0.0
H361 H 0.31511 0.5354 0.05883 0.0
H362 H 0.24097 0.51659 0.06873 0.0
H363 H 0.16762 0.47991 0.04724 0.0
H364 H 0.12276 0.3808 0.95975 0.0
H365 H 0.19752 0.39625 0.95056 0.0
C366 C 0.26837 0.45855 0.98784 0.0
C367 C 0.30188 0.49176 1.0101 0.0
C368 C 0.22491 0.44617 0.99477 0.0
C369 C 0.29084 0.51133 0.0399 0.0
C370 C 0.2482 0.50008 0.04613 0.0
C371 C 0.1731 0.4592 0.02814 0.0
C372 C 0.13911 0.42762 1.00568 0.0
C373 C 0.2153 0.46805 0.02349 0.0
C374 C 0.14808 0.40408 0.97845 0.0
C375 C 0.19088 0.41348 0.97285 0.0
H376 H 0.59834 0.83521 0.95402 0.0
H377 H 0.52715 0.79885 0.06177 0.0
H378 H 0.54746 0.74504 0.07204 0.0
H379 H 0.57801 0.70365 0.04789 0.0
H380 H 0.65835 0.74243 0.94638 0.0
H381 H 0.64159 0.80035 0.93602 0.0
C382 C 0.58779 0.81613 0.98011 0.0
C383 C 0.55951 0.82047 1.00624 0.0
C384 C 0.60129 0.78587 0.98702 0.0
C385 C 0.54678 0.79523 0.03992 0.0
C386 C 0.55903 0.76471 0.04629 0.0
C387 C 0.59468 0.72629 0.02495 0.0
C388 C 0.62099 0.71944 0.99894 0.0
C389 C 0.58552 0.75934 0.01979 0.0
C390 C 0.63901 0.74752 0.96752 0.0
C391 C 0.62892 0.7803 0.96141 0.0
H392 H 0.35189 0.89212 0.95092 0.0
H393 H 0.29512 0.92836 0.04286 0.0
H394 H 0.23494 0.85361 0.04652 0.0
H395 H 0.2028 0.77618 0.02718 0.0
H396 H 0.26915 0.74247 0.94145 0.0
H397 H 0.32139 0.81758 0.93231 0.0
C398 C 0.32546 0.88398 0.97084 0.0
C399 C 0.32721 0.91598 0.99569 0.0
C400 C 0.29322 0.84089 0.97458 0.0
C401 C 0.29362 0.90474 0.02231 0.0
C402 C 0.25983 0.86174 0.02499 0.0
C403 C 0.22868 0.78523 1.00653 0.0
C404 C 0.23098 0.75309 0.98437 0.0
C405 C 0.25999 0.82921 1.00199 0.0
C406 C 0.26516 0.76594 0.95796 0.0
C407 C 0.29546 0.80912 0.95281 0.0
H408 H 0.4791 0.31055 0.99222 0.0
H409 H 0.57002 0.30768 0.07228 0.0
H410 H 0.60842 0.38601 0.07701 0.0
H411 H 0.61568 0.45632 0.0594 0.0
H412 H 0.52307 0.45783 0.98082 0.0
H413 H 0.48689 0.37982 0.97377 0.0
C414 C 0.5077 0.32698 1.01025 0.0
C415 C 0.52142 0.30284 0.0318 0.0
C416 C 0.52973 0.3722 0.01293 0.0
C417 C 0.55819 0.32508 0.05563 0.0
C418 C 0.58045 0.37006 0.05822 0.0
C419 C 0.588 0.43946 0.04038 0.0
C420 C 0.57233 0.46278 0.02037 0.0
C421 C 0.5665 0.3941 0.03713 0.0
C422 C 0.53583 0.44052 0.99639 0.0
C423 C 0.51501 0.39587 0.9924 0.0
H424 H 0.59368 0.17186 0.01381 0.0
H425 H 0.59894 0.0623 0.05781 0.0
H426 H 0.67685 0.10338 0.05892 0.0
H427 H 0.74399 0.16864 0.04497 0.0
H428 H 0.74161 0.2809 1.00483 0.0
H429 H 0.66288 0.24038 1.00392 0.0
C430 C 0.61189 0.15726 0.02417 0.0
C431 C 0.58995 0.11387 0.03566 0.0
C432 C 0.65756 0.18134 0.02495 0.0
C433 C 0.61442 0.0955 0.04867 0.0
C434 C 0.6593 0.11897 0.04929 0.0
C435 C 0.7266 0.18485 0.0368 0.0
C436 C 0.74941 0.22805 0.02496 0.0
C437 C 0.68126 0.16173 0.03718 0.0
C438 C 0.72545 0.24755 0.01347 0.0
C439 C 0.68017 0.22444 0.01325 0.0
H440 H 0.88049 0.43581 0.04821 0.0
H441 H 0.98182 0.53347 0.9788 0.0
H442 H 0.94051 0.56999 0.9709 0.0
H443 H 0.87741 0.5767 0.98624 0.0
H444 H 0.77645 0.48127 0.05764 0.0
H445 H 0.81571 0.4421 0.06268 0.0
C446 C 0.89301 0.46466 0.0309 0.0
C447 C 0.93395 0.48166 0.01382 0.0
C448 C 0.86938 0.48639 0.02724 0.0
C449 C 0.95027 0.51964 0.9921 0.0
C450 C 0.92674 0.54067 0.98764 0.0
C451 C 0.8636 0.54699 1.00244 0.0
C452 C 0.82386 0.53209 0.02142 0.0
C453 C 0.88648 0.52469 1.00544 0.0
C454 C 0.80712 0.49389 0.04297 0.0
C455 C 0.82949 0.47125 0.04573 0.0
H456 H 0.82321 0.79512 0.28151 0.0
H457 H 0.78977 0.7159 0.3829 0.0
H458 H 0.86457 0.73098 0.38823 0.0
H459 H 0.94129 0.77313 0.36719 0.0
H460 H 0.97309 0.85586 0.26779 0.0
H461 H 0.89739 0.83349 0.25877 0.0
C462 C 0.83196 0.77963 0.30378 0.0
C463 C 0.80086 0.7533 0.331 0.0
C464 C 0.8751 0.79019 0.30759 0.0
C465 C 0.81277 0.73479 0.36069 0.0
C466 C 0.85577 0.74431 0.3642 0.0
C467 C 0.93153 0.78607 0.34351 0.0
C468 C 0.96295 0.81588 0.31797 0.0
C469 C 0.88753 0.77304 0.33844 0.0
C470 C 0.9497 0.83234 0.28743 0.0
C471 C 0.90635 0.81962 0.28226 0.0
H472 H 0.21869 0.13813 0.37579 0.0
H473 H 0.26222 0.18436 0.26022 0.0
H474 H 0.29571 0.13956 0.25563 0.0
H475 H 0.30816 0.08252 0.28333 0.0
H476 H 0.25695 0.03436 0.39639 0.0
H477 H 0.23461 0.08652 0.40421 0.0
C478 C 0.23642 0.13949 0.34986 0.0
C479 C 0.23774 0.16485 0.31849 0.0
C480 C 0.25612 0.11423 0.34757 0.0
C481 C 0.25987 0.16471 0.28474 0.0
C482 C 0.27954 0.13938 0.28222 0.0
C483 C 0.29451 0.08539 0.31045 0.0
C484 C 0.2892 0.05744 0.34111 0.0
C485 C 0.27766 0.11361 0.31342 0.0
C486 C 0.26734 0.05896 0.37459 0.0
C487 C 0.25226 0.08761 0.3783 0.0
H488 H 1.02001 0.21925 0.39506 0.0
H489 H 0.95882 0.26234 0.31367 0.0
H490 H 0.89961 0.18755 0.30514 0.0
H491 H 0.86908 0.10897 0.31751 0.0
H492 H 0.93905 0.06959 0.39312 0.0
H493 H 0.99153 0.14402 0.40655 0.0
C494 C 0.9933 0.21261 0.37592 0.0
C495 C 0.99356 0.24641 0.35534 0.0
C496 C 0.96142 0.16995 0.36958 0.0
C497 C 0.95887 0.23708 0.33054 0.0
C498 C 0.92553 0.19422 0.32517 0.0
C499 C 0.89589 0.11669 0.33681 0.0
C500 C 0.89936 0.08327 0.35486 0.0
C501 C 0.9271 0.1602 0.34384 0.0
C502 C 0.93449 0.09418 0.37973 0.0
C503 C 0.96481 0.13689 0.38732 0.0
H504 H 0.2871 0.79574 0.35228 0.0
H505 H 0.1669 0.78799 0.38488 0.0
H506 H 0.13122 0.71041 0.38531 0.0
H507 H 0.13211 0.64422 0.37371 0.0
H508 H 0.25201 0.64932 0.34553 0.0
H509 H 0.28896 0.72769 0.34537 0.0
C510 C 0.25329 0.77708 0.35996 0.0
C511 C 0.23007 0.79822 0.36849 0.0
C512 C 0.2324 0.73163 0.36047 0.0
C513 C 0.18604 0.77316 0.37816 0.0
C514 C 0.16527 0.72845 0.37835 0.0
C515 C 0.16652 0.66214 0.36838 0.0
C516 C 0.18881 0.64019 0.35952 0.0
C517 C 0.18795 0.7073 0.36925 0.0
C518 C 0.23339 0.6648 0.35172 0.0
C519 C 0.25481 0.70988 0.35193 0.0
H520 H 0.25756 0.50557 0.33649 0.0
H521 H 0.26 0.40564 0.40316 0.0
H522 H 0.33801 0.44728 0.4072 0.0
H523 H 0.40595 0.50909 0.38845 0.0
H524 H 0.40641 0.61214 0.32459 0.0
H525 H 0.32765 0.57202 0.32214 0.0
C526 C 0.27518 0.49355 0.3527 0.0
C527 C 0.25266 0.45246 0.36954 0.0
C528 C 0.32087 0.51779 0.35478 0.0
C529 C 0.27627 0.43708 0.38984 0.0
C530 C 0.32108 0.4608 0.39208 0.0
C531 C 0.38918 0.52356 0.37469 0.0
C532 C 0.41283 0.5639 0.35672 0.0
C533 C 0.34381 0.50081 0.37412 0.0
C534 C 0.38963 0.58092 0.33815 0.0
C535 C 0.34431 0.55811 0.33703 0.0
H536 H 0.54716 0.91713 0.38231 0.0
H537 H 0.44143 0.81239 0.32104 0.0
H538 H 0.48121 0.77356 0.31873 0.0
H539 H 0.54758 0.76985 0.33319 0.0
H540 H 0.65148 0.87538 0.39559 0.0
H541 H 0.61051 0.91227 0.39916 0.0
C542 C 0.53225 0.88548 0.36901 0.0
C543 C 0.49108 0.86802 0.35195 0.0
C544 C 0.55506 0.86302 0.36816 0.0
C545 C 0.47323 0.82724 0.33401 0.0
C546 C 0.49588 0.80472 0.33293 0.0
C547 C 0.56079 0.80049 0.34817 0.0
C548 C 0.60262 0.81953 0.36422 0.0
C549 C 0.537 0.82228 0.34985 0.0
C550 C 0.61947 0.85976 0.38291 0.0
C551 C 0.59608 0.88113 0.38494 0.0
H552 H 0.61727 0.13968 0.72044 0.0
H553 H 0.63274 0.15303 0.59612 0.0
H554 H 0.5561 0.12591 0.58853 0.0
H555 H 0.48494 0.10334 0.61712 0.0
H556 H 0.46798 0.08541 0.74025 0.0
H557 H 0.54417 0.1073 0.74809 0.0
C558 C 0.6041 0.13584 0.6915 0.0
C559 C 0.63192 0.14975 0.65906 0.0
C560 C 0.55915 0.11839 0.68695 0.0
C561 C 0.61324 0.14456 0.62202 0.0
C562 C 0.56894 0.12826 0.61744 0.0
C563 C 0.49749 0.10199 0.64536 0.0
C564 C 0.47038 0.09089 0.67784 0.0
C565 C 0.54163 0.11552 0.64966 0.0
C566 C 0.48763 0.09169 0.71459 0.0
C567 C 0.53152 0.10522 0.71915 0.0
H568 H 0.97558 0.41729 0.62779 0.0
H569 H 0.91826 0.36699 0.73857 0.0
H570 H 0.89615 0.41942 0.74521 0.0
H571 H 0.88283 0.47248 0.71614 0.0
H572 H 0.92992 0.51883 0.60137 0.0
H573 H 0.96338 0.47383 0.59847 0.0
C574 C 0.96035 0.41959 0.65414 0.0
C575 C 0.95343 0.3912 0.68486 0.0
C576 C 0.94331 0.44766 0.65599 0.0
C577 C 0.92975 0.39189 0.71713 0.0
C578 C 0.91489 0.42076 0.72004 0.0
C579 C 0.90125 0.47368 0.69075 0.0
C580 C 0.90391 0.49931 0.65918 0.0
C581 C 0.92048 0.44802 0.68932 0.0
C582 C 0.92682 0.49907 0.62606 0.0
C583 C 0.94639 0.47362 0.62451 0.0
H584 H 0.67079 0.56145 0.73663 0.0
H585 H 0.64475 0.59485 0.62437 0.0
H586 H 0.58921 0.51952 0.61266 0.0
H587 H 0.55399 0.44308 0.63213 0.0
H588 H 0.57878 0.41208 0.74672 0.0
H589 H 0.62983 0.48723 0.75899 0.0
C590 C 0.65175 0.55244 0.71019 0.0
C591 C 0.661 0.58374 0.68181 0.0
C592 C 0.62076 0.50917 0.70348 0.0
C593 C 0.63713 0.57158 0.64718 0.0
C594 C 0.606 0.52834 0.64024 0.0
C595 C 0.56976 0.45253 0.66013 0.0
C596 C 0.56277 0.42086 0.68795 0.0
C597 C 0.59833 0.4966 0.66784 0.0
C598 C 0.58429 0.4347 0.72387 0.0
C599 C 0.61319 0.47806 0.73133 0.0
H600 H 0.8971 0.99413 0.67047 0.0
H601 H 0.77568 0.96412 0.72276 0.0
H602 H 0.8 0.04033 0.72907 0.0
H603 H 0.8542 0.11546 0.7178 0.0
H604 H 0.9752 0.14687 0.66408 0.0
H605 H 0.95236 0.07031 0.65999 0.0
C606 C 0.87586 1.00419 0.68316 0.0
C607 C 0.83456 0.97297 0.69634 0.0
C608 C 0.88991 0.04846 0.68635 0.0
C609 C 0.80788 0.98702 0.71305 0.0
C610 C 0.82163 0.03077 0.71639 0.0
C611 C 0.87587 0.10576 0.70541 0.0
C612 C 0.91654 0.13712 0.69134 0.0
C613 C 0.86243 0.06175 0.70297 0.0
C614 C 0.9439 0.1236 0.67536 0.0
C615 C 0.93074 0.07975 0.67288 0.0
H616 H 0.94294 0.74792 0.6968 0.0
H617 H 0.91102 0.84854 0.68917 0.0
H618 H 0.98808 0.90274 0.69072 0.0
H619 H 0.06511 0.92132 0.69442 0.0
H620 H 0.09409 0.81844 0.70011 0.0
H621 H 1.01769 0.76565 0.69926 0.0
C622 C 0.95249 0.78168 0.6956 0.0
C623 C 0.92086 0.79396 0.69303 0.0
C624 C 0.99661 0.81244 0.69618 0.0
C625 C 0.93445 0.83802 0.69137 0.0
C626 C 0.9786 0.86905 0.69213 0.0
C627 C 0.05467 0.88735 0.69521 0.0
C628 C 0.08567 0.87413 0.69796 0.0
C629 C 1.01009 0.85664 0.69444 0.0
C630 C 0.07129 0.82984 0.69897 0.0
C631 C 1.02745 0.79945 0.69824 0.0
H632 H 0.30302 0.20664 0.71988 0.0
H633 H 0.21212 0.08796 0.66334 0.0
H634 H 0.15938 0.11226 0.66011 0.0
H635 H 0.13918 0.1679 0.67287 0.0
H636 H 0.23049 0.2857 0.73072 0.0
H637 H 0.28225 0.26078 0.7344 0.0
C638 C 0.27157 0.18589 0.70705 0.0
C639 C 0.26162 0.14537 0.69198 0.0
C640 C 0.24121 0.19991 0.70565 0.0
C641 C 0.2206 0.11906 0.67554 0.0
C642 C 0.19044 0.13307 0.67352 0.0
C643 C 0.17043 0.18819 0.68621 0.0
C644 C 0.18053 0.22872 0.70167 0.0
C645 C 0.20039 0.17354 0.68837 0.0
C646 C 0.22122 0.25417 0.71914 0.0
C647 C 0.25114 0.24005 0.72103 0.0
H648 H 0.15249 0.40411 0.20418 0.0
H649 H 0.0401 0.36354 0.27584 0.0
H650 H 1.00642 0.38447 0.22625 0.0
H651 H 1.00622 0.41175 0.16078 0.0
H652 H 0.11779 0.45421 0.08918 0.0
H653 H 0.15362 0.43529 0.13904 0.0
C654 C 0.12073 0.39996 0.20896 0.0
C655 C 0.09921 0.38199 0.24421 0.0
C656 C 0.10093 0.41248 0.17983 0.0
C657 C 0.05787 0.37709 0.24936 0.0
C658 C 0.03829 0.38915 0.22082 0.0
C659 C 0.0387 0.41769 0.15629 0.0
C660 C 0.05939 0.43502 0.12065 0.0
C661 C 0.05921 0.40668 0.18574 0.0
C662 C 0.10131 0.44163 0.11594 0.0
C663 C 0.12172 0.43042 0.14467 0.0
H664 H 0.65408 0.76588 0.20015 0.0
H665 H 0.68268 0.69114 0.27868 0.0
H666 H 0.66022 0.6341 0.23038 0.0
H667 H 0.63621 0.60648 0.16319 0.0
H668 H 0.61305 0.68407 0.08392 0.0
H669 H 0.62901 0.73796 0.13384 0.0
C670 C 0.65453 0.73669 0.20691 0.0
C671 C 0.66827 0.73222 0.24393 0.0
C672 C 0.64252 0.70417 0.17827 0.0
C673 C 0.67032 0.69487 0.25143 0.0
C674 C 0.65798 0.66225 0.22338 0.0
C675 C 0.63375 0.63471 0.15711 0.0
C676 C 0.62146 0.64011 0.11957 0.0
C677 C 0.64427 0.66653 0.18642 0.0
C678 C 0.61994 0.6778 0.1125 0.0
C679 C 0.62998 0.70918 0.14115 0.0
H680 H 0.4311 0.96184 0.1552 0.0
H681 H 0.36843 1.01703 0.09 0.0
H682 H 0.31442 0.99751 0.14064 0.0
H683 H 0.28602 0.96759 0.20523 0.0
H684 H 0.342 0.90473 0.26798 0.0
H685 H 0.39733 0.92452 0.21765 0.0
C686 C 0.40536 0.96914 0.15198 0.0
C687 C 0.40432 0.99142 0.11878 0.0
C688 C 0.37337 0.95696 0.18134 0.0
C689 C 0.37038 1.00029 0.11521 0.0
C690 C 0.33936 0.98915 0.14429 0.0
C691 C 0.31019 0.95801 0.20784 0.0
C692 C 0.31084 0.93597 0.24129 0.0
C693 C 0.34074 0.968 0.17779 0.0
C694 C 0.34196 0.92319 0.24345 0.0
C695 C 0.37328 0.93412 0.21434 0.0
H696 H 0.42166 1.0027 0.87187 0.0
H697 H 0.47595 0.11882 0.94036 0.0
H698 H 0.45497 0.15339 0.89069 0.0
H699 H 0.4189 0.15013 0.82726 0.0
H700 H 0.37051 0.03511 0.75762 0.0
H701 H 0.39191 1.00148 0.80719 0.0
C702 C 0.42915 0.03567 0.87593 0.0
C703 C 0.44957 0.0576 0.91054 0.0
C704 C 0.41806 0.05588 0.84656 0.0
C705 C 0.45943 0.1006 0.91465 0.0
C706 C 0.44759 0.12057 0.88599 0.0
C707 C 0.41338 0.11788 0.8229 0.0
C708 C 0.39257 0.09516 0.78861 0.0
C709 C 0.42649 0.09849 0.85178 0.0
C710 C 0.38603 0.05336 0.78363 0.0
C711 C 0.39829 0.03396 0.8121 0.0
H712 H 1.00068 0.35711 0.92566 0.0
H713 H 0.98675 0.45659 0.87032 0.0
H714 H 0.96611 0.41487 0.8096 0.0
H715 H 0.95772 0.35186 0.77124 0.0
H716 H 0.96177 0.24876 0.82875 0.0
H717 H 0.98199 0.29025 0.8894 0.0
C718 C 0.99198 0.36931 0.90074 0.0
C719 C 0.99487 0.41009 0.90309 0.0
C720 C 0.97876 0.34439 0.86616 0.0
C721 C 0.98472 0.42551 0.86973 0.0
C722 C 0.97292 0.40155 0.8349 0.0
C723 C 0.95953 0.33712 0.79746 0.0
C724 C 0.95528 0.29585 0.7953 0.0
C725 C 0.96994 0.36094 0.83269 0.0
C726 C 0.96333 0.27963 0.82933 0.0
C727 C 0.97517 0.30358 0.86412 0.0
H728 H 0.73688 0.72018 0.81479 0.0
H729 H 0.7512 0.61224 0.78149 0.0
H730 H 0.7062 0.5716 0.83745 0.0
H731 H 0.65748 0.56576 0.89399 0.0
H732 H 0.63846 0.6733 0.91656 0.0
H733 H 0.68979 0.71453 0.8665 0.0
C734 C 0.73082 0.68782 0.81949 0.0
C735 C 0.74829 0.66985 0.79366 0.0
C736 C 0.70327 0.66425 0.85 0.0
C737 C 0.73913 0.62756 0.80089 0.0
C738 C 0.7129 0.60414 0.8328 0.0
C739 C 0.66517 0.59841 0.88815 0.0
C740 C 0.64442 0.61663 0.90987 0.0
C741 C 0.69405 0.62194 0.85737 0.0
C742 C 0.65411 0.65861 0.90111 0.0
C743 C 0.6835 0.68228 0.87222 0.0
H744 H 0.68239 0.75223 0.49304 0.0
H745 H 0.79165 0.78699 0.41902 0.0
H746 H 0.826 0.76688 0.46965 0.0
H747 H 0.82392 0.73636 0.53578 0.0
H748 H 0.71289 0.70247 0.60773 0.0
H749 H 0.68149 0.72541 0.5581 0.0
C750 C 0.71409 0.75622 0.48811 0.0
C751 C 0.73417 0.77146 0.45198 0.0
C752 C 0.73369 0.74436 0.51741 0.0
C753 C 0.77521 0.77576 0.44642 0.0
C754 C 0.79491 0.76394 0.47548 0.0
C755 C 0.79299 0.73417 0.54057 0.0
C756 C 0.77114 0.71747 0.576 0.0
C757 C 0.77431 0.74766 0.51119 0.0
C758 C 0.73087 0.71497 0.58118 0.0
C759 C 0.71259 0.72822 0.55262 0.0
H760 H 0.28124 0.93742 0.49994 0.0
H761 H 0.31601 0.03506 0.41433 0.0
H762 H 0.33454 0.08958 0.46424 0.0
H763 H 0.34596 0.1112 0.53358 0.0
H764 H 0.33708 0.01904 0.61649 0.0
H765 H 0.30424 0.96139 0.56824 0.0
C766 C 0.29184 0.97045 0.49234 0.0
C767 C 0.29153 0.981 0.45301 0.0
C768 C 0.30761 1.0029 0.52165 0.0
C769 C 0.30946 0.02479 0.444 0.0
C770 C 0.32205 0.05649 0.47281 0.0
C771 C 0.3361 0.07833 0.54118 0.0
C772 C 0.33923 0.06848 0.58009 0.0
C773 C 0.32128 0.04605 0.51192 0.0
C774 C 0.32933 0.02633 0.58849 0.0
C775 C 0.31217 0.99362 0.56021 0.0
H776 H 0.03223 0.31831 0.59417 0.0
H777 H 0.92301 0.21085 0.53981 0.0
H778 H 0.96251 0.22787 0.4782 0.0
H779 H 1.027 0.27783 0.43856 0.0
H780 H 0.13806 0.37962 0.49621 0.0
H781 H 0.10025 0.35874 0.55809 0.0
C782 C 1.01751 0.29724 0.56955 0.0
C783 C 0.97462 0.26262 0.57242 0.0
C784 C 0.0413 0.30594 0.53464 0.0
C785 C 0.95588 0.23742 0.53897 0.0
C786 C 0.97864 0.24715 0.5036 0.0
C787 C 0.04393 0.29375 0.46492 0.0
C788 C 0.08649 0.32942 0.46243 0.0
C789 C 1.02144 0.2816 0.50091 0.0
C790 C 0.10634 0.35116 0.49707 0.0
C791 C 0.08423 0.33974 0.53252 0.0
loop_
_geom_bond_atom_site_label_1
_geom_bond_atom_site_label_2
_geom_bond_distance
_geom_bond_site_symmetry_2
_ccdc_geom_bond_type
Ho0 C3 2.811 . S
Ho0 O20 2.322 . S
Ho0 O22 2.378 . S
Ho0 O23 2.524 1_556 S
Ho0 O24 2.381 . S
Ho0 O25 2.669 1_455 S
Ho0 O27 2.346 1_456 S
Ho0 O31 2.305 1_556 S
Ho1 C12 2.811 . S
Ho1 O21 2.346 1_655 S
Ho1 O25 2.305 1_554 S
Ho1 O26 2.322 . S
Ho1 O28 2.378 . S
Ho1 O29 2.524 1_554 S
Ho1 O30 2.381 . S
Ho1 O31 2.669 1_655 S
C2 O20 1.259 . S
C2 O21 1.268 1_556 S
C3 Ho0 2.811 . S
C3 C4 1.488 . S
C3 O22 1.215 . S
C3 O23 1.289 1_556 S
C4 C3 1.488 . S
C4 C5 1.348 1_556 S
C4 C9 1.413 . S
C5 C4 1.348 1_554 S
C5 C6 1.442 . S
C5 H32 0.930 . S
C6 C5 1.442 . S
C6 C7 1.381 1_554 S
C6 H33 0.931 . S
C7 C6 1.381 1_556 S
C7 C8 1.321 . S
C8 C7 1.321 . S
C8 C9 1.403 . S
C8 H34 0.934 . S
C9 C4 1.413 . S
C9 C8 1.403 . S
C9 H35 0.930 . S
C10 O24 1.275 1_655 S
C10 O25 1.256 . S
C11 O26 1.259 . S
C11 O27 1.268 . S
C12 Ho1 2.811 . S
C12 C13 1.488 . S
C12 O28 1.215 . S
C12 O29 1.289 1_554 S
C13 C12 1.488 . S
C13 C14 1.348 1_554 S
C13 C18 1.413 . S
C14 C13 1.348 1_556 S
C14 C15 1.442 . S
C14 H36 0.930 . S
C15 C14 1.442 . S
C15 C16 1.381 1_556 S
C15 H37 0.931 . S
C16 C15 1.381 1_554 S
C16 C17 1.321 . S
C17 C16 1.321 . S
C17 C18 1.403 . S
C17 H38 0.934 . S
C18 C13 1.413 . S
C18 C17 1.403 . S
C18 H39 0.930 . S
C19 O30 1.275 1_455 S
C19 O31 1.256 . S
O20 Ho0 2.322 . S
O20 C2 1.259 . S
O21 Ho1 2.346 1_455 S
O21 C2 1.268 1_554 S
O22 Ho0 2.378 . S
O22 C3 1.215 . S
O23 Ho0 2.524 1_554 S
O23 C3 1.289 1_554 S
O24 Ho0 2.381 . S
O24 C10 1.275 1_455 S
O25 Ho0 2.669 1_655 S
O25 Ho1 2.305 1_556 S
O25 C10 1.256 . S
O26 Ho1 2.322 . S
O26 C11 1.259 . S
O27 Ho0 2.346 1_654 S
O27 C11 1.268 . S
O28 Ho1 2.378 . S
O28 C12 1.215 . S
O29 Ho1 2.524 1_556 S
O29 C12 1.289 1_556 S
O30 Ho1 2.381 . S
O30 C19 1.275 1_655 S
O31 Ho0 2.305 1_554 S
O31 Ho1 2.669 1_455 S
O31 C19 1.256 . S
H32 C5 0.930 . S
H33 C6 0.931 . S
H34 C8 0.934 . S
H35 C9 0.930 . S
H36 C14 0.930 . S
H37 C15 0.931 . S
H38 C17 0.934 . S
H39 C18 0.930 . S
Ho40 C43 2.811 . S
Ho40 O60 2.322 . S
Ho40 O62 2.378 . S
Ho40 O63 2.524 1_556 S
Ho40 O64 2.381 . S
Ho40 O65 2.669 . S
Ho40 O67 2.346 1_556 S
Ho40 O71 2.305 1_556 S
Ho41 C52 2.811 . S
Ho41 O61 2.346 . S
Ho41 O65 2.305 1_554 S
Ho41 O66 2.322 . S
Ho41 O68 2.378 . S
Ho41 O69 2.524 1_554 S
Ho41 O70 2.381 . S
Ho41 O71 2.669 . S
C42 O60 1.259 . S
C42 O61 1.268 1_556 S
C43 Ho40 2.811 . S
C43 C44 1.488 . S
C43 O62 1.215 . S
C43 O63 1.289 1_556 S
C44 C43 1.488 . S
C44 C45 1.348 1_556 S
C44 C49 1.413 . S
C45 C44 1.348 1_554 S
C45 C46 1.442 . S
C45 H72 0.930 . S
C46 C45 1.442 . S
C46 C47 1.381 1_554 S
C46 H73 0.931 . S
C47 C46 1.381 1_556 S
C47 C48 1.321 . S
C48 C47 1.321 . S
C48 C49 1.403 . S
C48 H74 0.934 . S
C49 C44 1.413 . S
C49 C48 1.403 . S
C49 H75 0.930 . S
C50 O64 1.275 . S
C50 O65 1.256 . S
C51 O66 1.259 . S
C51 O67 1.268 . S
C52 Ho41 2.811 . S
C52 C53 1.488 . S
C52 O68 1.215 . S
C52 O69 1.289 1_554 S
C53 C52 1.488 . S
C53 C54 1.348 1_554 S
C53 C58 1.413 . S
C54 C53 1.348 1_556 S
C54 C55 1.442 . S
C54 H76 0.930 . S
C55 C54 1.442 . S
C55 C56 1.381 1_556 S
C55 H77 0.931 . S
C56 C55 1.381 1_554 S
C56 C57 1.321 . S
C57 C56 1.321 . S
C57 C58 1.403 . S
C57 H78 0.934 . S
C58 C53 1.413 . S
C58 C57 1.403 . S
C58 H79 0.930 . S
C59 O70 1.275 . S
C59 O71 1.256 . S
O60 Ho40 2.322 . S
O60 C42 1.259 . S
O61 Ho41 2.346 . S
O61 C42 1.268 1_554 S
O62 Ho40 2.378 . S
O62 C43 1.215 . S
O63 Ho40 2.524 1_554 S
O63 C43 1.289 1_554 S
O64 Ho40 2.381 . S
O64 C50 1.275 . S
O65 Ho40 2.669 . S
O65 Ho41 2.305 1_556 S
O65 C50 1.256 . S
O66 Ho41 2.322 . S
O66 C51 1.259 . S
O67 Ho40 2.346 1_554 S
O67 C51 1.268 . S
O68 Ho41 2.378 . S
O68 C52 1.215 . S
O69 Ho41 2.524 1_556 S
O69 C52 1.289 1_556 S
O70 Ho41 2.381 . S
O70 C59 1.275 . S
O71 Ho40 2.305 1_554 S
O71 Ho41 2.669 . S
O71 C59 1.256 . S
H72 C45 0.930 . S
H73 C46 0.931 . S
H74 C48 0.934 . S
H75 C49 0.930 . S
H76 C54 0.930 . S
H77 C55 0.931 . S
H78 C57 0.934 . S
H79 C58 0.930 . S
Ho80 C83 2.811 . S
Ho80 O100 2.322 . S
Ho80 O102 2.378 . S
Ho80 O103 2.524 1_556 S
Ho80 O104 2.381 . S
Ho80 O105 2.669 1_565 S
Ho80 O107 2.346 1_566 S
Ho80 O111 2.305 1_556 S
Ho81 C92 2.811 . S
Ho81 O101 2.346 1_545 S
Ho81 O105 2.305 1_554 S
Ho81 O106 2.322 . S
Ho81 O108 2.378 . S
Ho81 O109 2.524 1_554 S
Ho81 O110 2.381 . S
Ho81 O111 2.669 1_545 S
C82 O100 1.259 . S
C82 O101 1.268 1_556 S
C83 Ho80 2.811 . S
C83 C84 1.488 . S
C83 O102 1.215 . S
C83 O103 1.289 1_556 S
C84 C83 1.488 . S
C84 C85 1.348 1_556 S
C84 C89 1.413 . S
C85 C84 1.348 1_554 S
C85 C86 1.442 . S
C85 H112 0.930 . S
C86 C85 1.442 . S
C86 C87 1.381 1_554 S
C86 H113 0.931 . S
C87 C86 1.381 1_556 S
C87 C88 1.321 . S
C88 C87 1.321 . S
C88 C89 1.403 . S
C88 H114 0.934 . S
C89 C84 1.413 . S
C89 C88 1.403 . S
C89 H115 0.930 . S
C90 O104 1.275 1_545 S
C90 O105 1.256 . S
C91 O106 1.259 . S
C91 O107 1.268 . S
C92 Ho81 2.811 . S
C92 C93 1.488 . S
C92 O108 1.215 . S
C92 O109 1.289 1_554 S
C93 C92 1.488 . S
C93 C94 1.348 1_554 S
C93 C98 1.413 . S
C94 C93 1.348 1_556 S
C94 C95 1.442 . S
C94 H116 0.930 . S
C95 C94 1.442 . S
C95 C96 1.381 1_556 S
C95 H117 0.931 . S
C96 C95 1.381 1_554 S
C96 C97 1.321 . S
C97 C96 1.321 . S
C97 C98 1.403 . S
C97 H118 0.934 . S
C98 C93 1.413 . S
C98 C97 1.403 . S
C98 H119 0.930 . S
C99 O110 1.275 1_565 S
C99 O111 1.256 . S
O100 Ho80 2.322 . S
O100 C82 1.259 . S
O101 Ho81 2.346 1_565 S
O101 C82 1.268 1_554 S
O102 Ho80 2.378 . S
O102 C83 1.215 . S
O103 Ho80 2.524 1_554 S
O103 C83 1.289 1_554 S
O104 Ho80 2.381 . S
O104 C90 1.275 1_565 S
O105 Ho80 2.669 1_545 S
O105 Ho81 2.305 1_556 S
O105 C90 1.256 . S
O106 Ho81 2.322 . S
O106 C91 1.259 . S
O107 Ho80 2.346 1_544 S
O107 C91 1.268 . S
O108 Ho81 2.378 . S
O108 C92 1.215 . S
O109 Ho81 2.524 1_556 S
O109 C92 1.289 1_556 S
O110 Ho81 2.381 . S
O110 C99 1.275 1_545 S
O111 Ho80 2.305 1_554 S
O111 Ho81 2.669 1_565 S
O111 C99 1.256 . S
H112 C85 0.930 . S
H113 C86 0.931 . S
H114 C88 0.934 . S
H115 C89 0.930 . S
H116 C94 0.930 . S
H117 C95 0.931 . S
H118 C97 0.934 . S
H119 C98 0.930 . S
Ho120 C123 2.811 . S
Ho120 O140 2.322 . S
Ho120 O142 2.378 . S
Ho120 O143 2.524 . S
Ho120 O144 2.381 . S
Ho120 O145 2.669 . S
Ho120 O147 2.346 . S
Ho120 O151 2.305 . S
Ho121 C132 2.811 . S
Ho121 O141 2.346 . S
Ho121 O145 2.305 . S
Ho121 O146 2.322 . S
Ho121 O148 2.378 . S
Ho121 O149 2.524 . S
Ho121 O150 2.381 . S
Ho121 O151 2.669 . S
C122 O140 1.259 . S
C122 O141 1.268 . S
C123 Ho120 2.811 . S
C123 C124 1.488 . S
C123 O142 1.215 . S
C123 O143 1.289 . S
C124 C123 1.488 . S
C124 C125 1.348 . S
C124 C129 1.413 . S
C125 C124 1.348 . S
C125 C126 1.442 . S
C125 H152 0.930 . S
C126 C125 1.442 . S
C126 C127 1.381 1_565 S
C126 H153 0.931 . S
C127 C126 1.381 1_545 S
C127 C128 1.321 . S
C128 C127 1.321 . S
C128 C129 1.403 1_545 S
C128 H154 0.934 . S
C129 C124 1.413 . S
C129 C128 1.403 1_565 S
C129 H155 0.930 . S
C130 O144 1.275 . S
C130 O145 1.256 . S
C131 O146 1.259 . S
C131 O147 1.268 . S
C132 Ho121 2.811 . S
C132 C133 1.488 . S
C132 O148 1.215 . S
C132 O149 1.289 . S
C133 C132 1.488 . S
C133 C134 1.348 . S
C133 C138 1.413 . S
C134 C133 1.348 . S
C134 C135 1.442 . S
C134 H156 0.930 . S
C135 C134 1.442 . S
C135 C136 1.381 . S
C135 H157 0.931 . S
C136 C135 1.381 . S
C136 C137 1.321 . S
C137 C136 1.321 . S
C137 C138 1.403 . S
C137 H158 0.934 . S
C138 C133 1.413 . S
C138 C137 1.403 . S
C138 H159 0.930 . S
C139 O150 1.275 . S
C139 O151 1.256 . S
O140 Ho120 2.322 . S
O140 C122 1.259 . S
O141 Ho121 2.346 . S
O141 C122 1.268 . S
O142 Ho120 2.378 . S
O142 C123 1.215 . S
O143 Ho120 2.524 . S
O143 C123 1.289 . S
O144 Ho120 2.381 . S
O144 C130 1.275 . S
O145 Ho120 2.669 . S
O145 Ho121 2.305 . S
O145 C130 1.256 . S
O146 Ho121 2.322 . S
O146 C131 1.259 . S
O147 Ho120 2.346 . S
O147 C131 1.268 . S
O148 Ho121 2.378 . S
O148 C132 1.215 . S
O149 Ho121 2.524 . S
O149 C132 1.289 . S
O150 Ho121 2.381 . S
O150 C139 1.275 . S
O151 Ho120 2.305 . S
O151 Ho121 2.669 . S
O151 C139 1.256 . S
H152 C125 0.930 . S
H153 C126 0.931 . S
H154 C128 0.934 . S
H155 C129 0.930 . S
H156 C134 0.930 . S
H157 C135 0.931 . S
H158 C137 0.934 . S
H159 C138 0.930 . S
Ho160 C163 2.811 . S
Ho160 O180 2.322 . S
Ho160 O182 2.378 . S
Ho160 O183 2.524 . S
Ho160 O184 2.381 . S
Ho160 O185 2.669 . S
Ho160 O187 2.346 . S
Ho160 O191 2.305 . S
Ho161 C172 2.811 . S
Ho161 O181 2.346 . S
Ho161 O185 2.305 . S
Ho161 O186 2.322 . S
Ho161 O188 2.378 . S
Ho161 O189 2.524 . S
Ho161 O190 2.381 . S
Ho161 O191 2.669 . S
C162 O180 1.259 . S
C162 O181 1.268 . S
C163 Ho160 2.811 . S
C163 C164 1.488 . S
C163 O182 1.215 . S
C163 O183 1.289 . S
C164 C163 1.488 . S
C164 C165 1.348 . S
C164 C169 1.413 . S
C165 C164 1.348 . S
C165 C166 1.442 . S
C165 H192 0.930 . S
C166 C165 1.442 . S
C166 C167 1.381 1_455 S
C166 H193 0.931 . S
C167 C166 1.381 1_655 S
C167 C168 1.321 1_655 S
C168 C167 1.321 1_455 S
C168 C169 1.403 . S
C168 H194 0.934 1_455 S
C169 C164 1.413 . S
C169 C168 1.403 . S
C169 H195 0.930 . S
C170 O184 1.275 . S
C170 O185 1.256 . S
C171 O186 1.259 . S
C171 O187 1.268 . S
C172 Ho161 2.811 . S
C172 C173 1.488 . S
C172 O188 1.215 . S
C172 O189 1.289 . S
C173 C172 1.488 . S
C173 C174 1.348 . S
C173 C178 1.413 . S
C174 C173 1.348 . S
C174 C175 1.442 . S
C174 H196 0.930 . S
C175 C174 1.442 . S
C175 C176 1.381 . S
C175 H197 0.931 . S
C176 C175 1.381 . S
C176 C177 1.321 . S
C177 C176 1.321 . S
C177 C178 1.403 . S
C177 H198 0.934 . S
C178 C173 1.413 . S
C178 C177 1.403 . S
C178 H199 0.930 . S
C179 O190 1.275 . S
C179 O191 1.256 . S
O180 Ho160 2.322 . S
O180 C162 1.259 . S
O181 Ho161 2.346 . S
O181 C162 1.268 . S
O182 Ho160 2.378 . S
O182 C163 1.215 . S
O183 Ho160 2.524 . S
O183 C163 1.289 . S
O184 Ho160 2.381 . S
O184 C170 1.275 . S
O185 Ho160 2.669 . S
O185 Ho161 2.305 . S
O185 C170 1.256 . S
O186 Ho161 2.322 . S
O186 C171 1.259 . S
O187 Ho160 2.346 . S
O187 C171 1.268 . S
O188 Ho161 2.378 . S
O188 C172 1.215 . S
O189 Ho161 2.524 . S
O189 C172 1.289 . S
O190 Ho161 2.381 . S
O190 C179 1.275 . S
O191 Ho160 2.305 . S
O191 Ho161 2.669 . S
O191 C179 1.256 . S
H192 C165 0.930 . S
H193 C166 0.931 . S
H194 C168 0.934 1_655 S
H195 C169 0.930 . S
H196 C174 0.930 . S
H197 C175 0.931 . S
H198 C177 0.934 . S
H199 C178 0.930 . S
Ho200 C203 2.811 . S
Ho200 O220 2.322 . S
Ho200 O222 2.378 . S
Ho200 O223 2.524 . S
Ho200 O224 2.381 . S
Ho200 O225 2.669 . S
Ho200 O227 2.346 . S
Ho200 O231 2.305 . S
Ho201 C212 2.811 . S
Ho201 O221 2.346 . S
Ho201 O225 2.305 . S
Ho201 O226 2.322 . S
Ho201 O228 2.378 . S
Ho201 O229 2.524 . S
Ho201 O230 2.381 . S
Ho201 O231 2.669 . S
C202 O220 1.259 . S
C202 O221 1.268 . S
C203 Ho200 2.811 . S
C203 C204 1.488 . S
C203 O222 1.215 . S
C203 O223 1.289 . S
C204 C203 1.488 . S
C204 C205 1.348 . S
C204 C209 1.413 . S
C205 C204 1.348 . S
C205 C206 1.442 . S
C205 H232 0.930 . S
C206 C205 1.442 . S
C206 C207 1.381 . S
C206 H233 0.931 . S
C207 C206 1.381 . S
C207 C208 1.321 . S
C208 C207 1.321 . S
C208 C209 1.403 . S
C208 H234 0.934 . S
C209 C204 1.413 . S
C209 C208 1.403 . S
C209 H235 0.930 . S
C210 O224 1.275 . S
C210 O225 1.256 . S
C211 O226 1.259 . S
C211 O227 1.268 . S
C212 Ho201 2.811 . S
C212 C213 1.488 . S
C212 O228 1.215 . S
C212 O229 1.289 . S
C213 C212 1.488 . S
C213 C214 1.348 . S
C213 C218 1.413 . S
C214 C213 1.348 . S
C214 C215 1.442 . S
C214 H236 0.930 . S
C215 C214 1.442 . S
C215 C216 1.381 . S
C215 H237 0.931 . S
C216 C215 1.381 . S
C216 C217 1.321 . S
C217 C216 1.321 . S
C217 C218 1.403 . S
C217 H238 0.934 . S
C218 C213 1.413 . S
C218 C217 1.403 . S
C218 H239 0.930 . S
C219 O230 1.275 . S
C219 O231 1.256 . S
O220 Ho200 2.322 . S
O220 C202 1.259 . S
O221 Ho201 2.346 . S
O221 C202 1.268 . S
O222 Ho200 2.378 . S
O222 C203 1.215 . S
O223 Ho200 2.524 . S
O223 C203 1.289 . S
O224 Ho200 2.381 . S
O224 C210 1.275 . S
O225 Ho200 2.669 . S
O225 Ho201 2.305 . S
O225 C210 1.256 . S
O226 Ho201 2.322 . S
O226 C211 1.259 . S
O227 Ho200 2.346 . S
O227 C211 1.268 . S
O228 Ho201 2.378 . S
O228 C212 1.215 . S
O229 Ho201 2.524 . S
O229 C212 1.289 . S
O230 Ho201 2.381 . S
O230 C219 1.275 . S
O231 Ho200 2.305 . S
O231 Ho201 2.669 . S
O231 C219 1.256 . S
H232 C205 0.930 . S
H233 C206 0.931 . S
H234 C208 0.934 . S
H235 C209 0.930 . S
H236 C214 0.930 . S
H237 C215 0.931 . S
H238 C217 0.934 . S
H239 C218 0.930 . S
Ho240 C243 2.811 . S
Ho240 O260 2.322 . S
Ho240 O262 2.378 . S
Ho240 O263 2.524 . S
Ho240 O264 2.381 . S
Ho240 O265 2.669 . S
Ho240 O267 2.346 . S
Ho240 O271 2.305 . S
Ho241 C252 2.811 1_545 S
Ho241 O261 2.346 . S
Ho241 O265 2.305 . S
Ho241 O266 2.322 . S
Ho241 O268 2.378 . S
Ho241 O269 2.524 . S
Ho241 O270 2.381 . S
Ho241 O271 2.669 . S
C242 O260 1.259 . S
C242 O261 1.268 . S
C243 Ho240 2.811 . S
C243 C244 1.488 . S
C243 O262 1.215 . S
C243 O263 1.289 . S
C244 C243 1.488 . S
C244 C245 1.348 . S
C244 C249 1.413 . S
C245 C244 1.348 . S
C245 C246 1.442 . S
C245 H272 0.930 . S
C246 C245 1.442 . S
C246 C247 1.381 . S
C246 H273 0.931 . S
C247 C246 1.381 . S
C247 C248 1.321 . S
C248 C247 1.321 . S
C248 C249 1.403 . S
C248 H274 0.934 . S
C249 C244 1.413 . S
C249 C248 1.403 . S
C249 H275 0.930 . S
C250 O264 1.275 . S
C250 O265 1.256 . S
C251 O266 1.259 . S
C251 O267 1.268 . S
C252 Ho241 2.811 1_565 S
C252 C253 1.488 . S
C252 O268 1.215 1_565 S
C252 O269 1.289 1_565 S
C253 C252 1.488 . S
C253 C254 1.348 . S
C253 C258 1.413 . S
C254 C253 1.348 . S
C254 C255 1.442 . S
C254 H276 0.930 . S
C255 C254 1.442 . S
C255 C256 1.381 . S
C255 H277 0.931 . S
C256 C255 1.381 . S
C256 C257 1.321 . S
C257 C256 1.321 . S
C257 C258 1.403 . S
C257 H278 0.934 . S
C258 C253 1.413 . S
C258 C257 1.403 . S
C258 H279 0.930 . S
C259 O270 1.275 . S
C259 O271 1.256 . S
O260 Ho240 2.322 . S
O260 C242 1.259 . S
O261 Ho241 2.346 . S
O261 C242 1.268 . S
O262 Ho240 2.378 . S
O262 C243 1.215 . S
O263 Ho240 2.524 . S
O263 C243 1.289 . S
O264 Ho240 2.381 . S
O264 C250 1.275 . S
O265 Ho240 2.669 . S
O265 Ho241 2.305 . S
O265 C250 1.256 . S
O266 Ho241 2.322 . S
O266 C251 1.259 . S
O267 Ho240 2.346 . S
O267 C251 1.268 . S
O268 Ho241 2.378 . S
O268 C252 1.215 1_545 S
O269 Ho241 2.524 . S
O269 C252 1.289 1_545 S
O270 Ho241 2.381 . S
O270 C259 1.275 . S
O271 Ho240 2.305 . S
O271 Ho241 2.669 . S
O271 C259 1.256 . S
H272 C245 0.930 . S
H273 C246 0.931 . S
H274 C248 0.934 . S
H275 C249 0.930 . S
H276 C254 0.930 . S
H277 C255 0.931 . S
H278 C257 0.934 . S
H279 C258 0.930 . S
Ho280 C283 2.811 . S
Ho280 O300 2.322 . S
Ho280 O302 2.378 . S
Ho280 O303 2.524 . S
Ho280 O304 2.381 . S
Ho280 O305 2.669 . S
Ho280 O307 2.346 . S
Ho280 O311 2.305 . S
Ho281 C292 2.811 1_655 S
Ho281 O301 2.346 . S
Ho281 O305 2.305 . S
Ho281 O306 2.322 . S
Ho281 O308 2.378 1_655 S
Ho281 O309 2.524 . S
Ho281 O310 2.381 . S
Ho281 O311 2.669 . S
C282 O300 1.259 . S
C282 O301 1.268 . S
C283 Ho280 2.811 . S
C283 C284 1.488 . S
C283 O302 1.215 . S
C283 O303 1.289 . S
C284 C283 1.488 . S
C284 C285 1.348 . S
C284 C289 1.413 . S
C285 C284 1.348 . S
C285 C286 1.442 . S
C285 H312 0.930 . S
C286 C285 1.442 . S
C286 C287 1.381 . S
C286 H313 0.931 . S
C287 C286 1.381 . S
C287 C288 1.321 . S
C288 C287 1.321 . S
C288 C289 1.403 . S
C288 H314 0.934 . S
C289 C284 1.413 . S
C289 C288 1.403 . S
C289 H315 0.930 . S
C290 O304 1.275 . S
C290 O305 1.256 . S
C291 O306 1.259 . S
C291 O307 1.268 . S
C292 Ho281 2.811 1_455 S
C292 C293 1.488 . S
C292 O308 1.215 . S
C292 O309 1.289 1_455 S
C293 C292 1.488 . S
C293 C294 1.348 . S
C293 C298 1.413 . S
C294 C293 1.348 . S
C294 C295 1.442 . S
C294 H316 0.930 . S
C295 C294 1.442 . S
C295 C296 1.381 . S
C295 H317 0.931 . S
C296 C295 1.381 . S
C296 C297 1.321 . S
C297 C296 1.321 . S
C297 C298 1.403 . S
C297 H318 0.934 . S
C298 C293 1.413 . S
C298 C297 1.403 . S
C298 H319 0.930 . S
C299 O310 1.275 . S
C299 O311 1.256 . S
O300 Ho280 2.322 . S
O300 C282 1.259 . S
O301 Ho281 2.346 . S
O301 C282 1.268 . S
O302 Ho280 2.378 . S
O302 C283 1.215 . S
O303 Ho280 2.524 . S
O303 C283 1.289 . S
O304 Ho280 2.381 . S
O304 C290 1.275 . S
O305 Ho280 2.669 . S
O305 Ho281 2.305 . S
O305 C290 1.256 . S
O306 Ho281 2.322 . S
O306 C291 1.259 . S
O307 Ho280 2.346 . S
O307 C291 1.268 . S
O308 Ho281 2.378 1_455 S
O308 C292 1.215 . S
O309 Ho281 2.524 . S
O309 C292 1.289 1_655 S
O310 Ho281 2.381 . S
O310 C299 1.275 . S
O311 Ho280 2.305 . S
O311 Ho281 2.669 . S
O311 C299 1.256 . S
H312 C285 0.930 . S
H313 C286 0.931 . S
H314 C288 0.934 . S
H315 C289 0.930 . S
H316 C294 0.930 . S
H317 C295 0.931 . S
H318 C297 0.934 . S
H319 C298 0.930 . S
Ho320 C323 2.811 . S
Ho320 O340 2.322 . S
Ho320 O342 2.378 . S
Ho320 O343 2.524 . S
Ho320 O344 2.381 . S
Ho320 O345 2.669 . S
Ho320 O347 2.346 . S
Ho320 O351 2.305 . S
Ho321 C332 2.811 . S
Ho321 O341 2.346 . S
Ho321 O345 2.305 . S
Ho321 O346 2.322 . S
Ho321 O348 2.378 . S
Ho321 O349 2.524 . S
Ho321 O350 2.381 . S
Ho321 O351 2.669 . S
C322 O340 1.259 . S
C322 O341 1.268 . S
C323 Ho320 2.811 . S
C323 C324 1.488 . S
C323 O342 1.215 . S
C323 O343 1.289 . S
C324 C323 1.488 . S
C324 C325 1.348 . S
C324 C329 1.413 . S
C325 C324 1.348 . S
C325 C326 1.442 . S
C325 H352 0.930 . S
C326 C325 1.442 . S
C326 C327 1.381 . S
C326 H353 0.931 . S
C327 C326 1.381 . S
C327 C328 1.321 . S
C328 C327 1.321 . S
C328 C329 1.403 . S
C328 H354 0.934 . S
C329 C324 1.413 . S
C329 C328 1.403 . S
C329 H355 0.930 . S
C330 O344 1.275 . S
C330 O345 1.256 . S
C331 O346 1.259 . S
C331 O347 1.268 . S
C332 Ho321 2.811 . S
C332 C333 1.488 . S
C332 O348 1.215 . S
C332 O349 1.289 . S
C333 C332 1.488 . S
C333 C334 1.348 . S
C333 C338 1.413 . S
C334 C333 1.348 . S
C334 C335 1.442 . S
C334 H356 0.930 . S
C335 C334 1.442 . S
C335 C336 1.381 . S
C335 H357 0.931 . S
C336 C335 1.381 . S
C336 C337 1.321 . S
C337 C336 1.321 . S
C337 C338 1.403 . S
C337 H358 0.934 . S
C338 C333 1.413 . S
C338 C337 1.403 . S
C338 H359 0.930 . S
C339 O350 1.275 . S
C339 O351 1.256 . S
O340 Ho320 2.322 . S
O340 C322 1.259 . S
O341 Ho321 2.346 . S
O341 C322 1.268 . S
O342 Ho320 2.378 . S
O342 C323 1.215 . S
O343 Ho320 2.524 . S
O343 C323 1.289 . S
O344 Ho320 2.381 . S
O344 C330 1.275 . S
O345 Ho320 2.669 . S
O345 Ho321 2.305 . S
O345 C330 1.256 . S
O346 Ho321 2.322 . S
O346 C331 1.259 . S
O347 Ho320 2.346 . S
O347 C331 1.268 . S
O348 Ho321 2.378 . S
O348 C332 1.215 . S
O349 Ho321 2.524 . S
O349 C332 1.289 . S
O350 Ho321 2.381 . S
O350 C339 1.275 . S
O351 Ho320 2.305 . S
O351 Ho321 2.669 . S
O351 C339 1.256 . S
H352 C325 0.930 . S
H353 C326 0.931 . S
H354 C328 0.934 . S
H355 C329 0.930 . S
H356 C334 0.930 . S
H357 C335 0.931 . S
H358 C337 0.934 . S
H359 C338 0.930 . S
H360 C366 0.930 . S
H361 C369 0.930 . S
H362 C370 0.930 . S
H363 C371 0.930 . S
H364 C374 0.930 . S
H365 C375 0.930 . S
C366 H360 0.930 . S
C366 C367 1.355 . S
C366 C368 1.415 . S
C367 C366 1.355 . S
C367 C369 1.419 1_556 S
C368 C366 1.415 . S
C368 C373 1.425 1_556 S
C368 C375 1.409 . S
C369 H361 0.930 . S
C369 C367 1.419 1_554 S
C369 C370 1.362 . S
C370 H362 0.930 . S
C370 C369 1.362 . S
C370 C373 1.409 . S
C371 H363 0.930 . S
C371 C372 1.355 1_554 S
C371 C373 1.415 . S
C372 C371 1.355 1_556 S
C372 C374 1.419 . S
C373 C368 1.425 1_554 S
C373 C370 1.409 . S
C373 C371 1.415 . S
C374 H364 0.930 . S
C374 C372 1.419 . S
C374 C375 1.362 . S
C375 H365 0.930 . S
C375 C368 1.409 . S
C375 C374 1.362 . S
H376 C382 0.930 . S
H377 C385 0.930 . S
H378 C386 0.930 . S
H379 C387 0.930 . S
H380 C390 0.930 . S
H381 C391 0.930 . S
C382 H376 0.930 . S
C382 C383 1.355 . S
C382 C384 1.415 . S
C383 C382 1.355 . S
C383 C385 1.419 1_556 S
C384 C382 1.415 . S
C384 C389 1.425 1_556 S
C384 C391 1.409 . S
C385 H377 0.930 . S
C385 C383 1.419 1_554 S
C385 C386 1.362 . S
C386 H378 0.930 . S
C386 C385 1.362 . S
C386 C389 1.409 . S
C387 H379 0.930 . S
C387 C388 1.355 1_554 S
C387 C389 1.415 . S
C388 C387 1.355 1_556 S
C388 C390 1.419 . S
C389 C384 1.425 1_554 S
C389 C386 1.409 . S
C389 C387 1.415 . S
C390 H380 0.930 . S
C390 C388 1.419 . S
C390 C391 1.362 . S
C391 H381 0.930 . S
C391 C384 1.409 . S
C391 C390 1.362 . S
H392 C398 0.930 . S
H393 C401 0.930 . S
H394 C402 0.930 . S
H395 C403 0.930 . S
H396 C406 0.930 . S
H397 C407 0.930 . S
C398 H392 0.930 . S
C398 C399 1.355 . S
C398 C400 1.415 . S
C399 C398 1.355 . S
C399 C401 1.419 1_556 S
C400 C398 1.415 . S
C400 C405 1.430 . S
C400 C407 1.409 . S
C401 H393 0.930 . S
C401 C399 1.419 1_554 S
C401 C402 1.362 . S
C402 H394 0.930 . S
C402 C401 1.362 . S
C402 C405 1.406 1_554 S
C403 H395 0.930 . S
C403 C404 1.355 1_554 S
C403 C405 1.414 1_554 S
C404 C403 1.355 1_556 S
C404 C406 1.419 . S
C405 C400 1.430 . S
C405 C402 1.406 1_556 S
C405 C403 1.414 1_556 S
C406 H396 0.930 . S
C406 C404 1.419 . S
C406 C407 1.362 . S
C407 H397 0.930 . S
C407 C400 1.409 . S
C407 C406 1.362 . S
H408 C414 0.948 . S
H409 C417 0.930 . S
H410 C418 0.930 . S
H411 C419 0.930 . S
H412 C422 0.930 . S
H413 C423 0.930 . S
C414 H408 0.948 . S
C414 C415 1.340 1_556 S
C414 C416 1.413 1_556 S
C415 C414 1.340 1_554 S
C415 C417 1.419 . S
C416 C414 1.413 1_554 S
C416 C421 1.425 . S
C416 C423 1.409 1_554 S
C417 H409 0.930 . S
C417 C415 1.419 . S
C417 C418 1.362 . S
C418 H410 0.930 . S
C418 C417 1.362 . S
C418 C421 1.409 . S
C419 H411 0.930 . S
C419 C420 1.355 . S
C419 C421 1.415 . S
C420 C419 1.355 . S
C420 C422 1.419 1_554 S
C421 C416 1.425 . S
C421 C418 1.409 . S
C421 C419 1.415 . S
C422 H412 0.930 . S
C422 C420 1.419 1_556 S
C422 C423 1.362 . S
C423 H413 0.930 . S
C423 C416 1.409 1_556 S
C423 C422 1.362 . S
H424 C430 0.930 . S
H425 C433 0.930 . S
H426 C434 0.930 . S
H427 C435 0.930 . S
H428 C438 0.930 . S
H429 C439 0.930 . S
C430 H424 0.930 . S
C430 C431 1.355 . S
C430 C432 1.415 . S
C431 C430 1.355 . S
C431 C433 1.419 . S
C432 C430 1.415 . S
C432 C437 1.425 . S
C432 C439 1.409 . S
C433 H425 0.930 . S
C433 C431 1.419 . S
C433 C434 1.362 . S
C434 H426 0.930 . S
C434 C433 1.362 . S
C434 C437 1.409 . S
C435 H427 0.930 . S
C435 C436 1.355 . S
C435 C437 1.415 . S
C436 C435 1.355 . S
C436 C438 1.419 . S
C437 C432 1.425 . S
C437 C434 1.409 . S
C437 C435 1.415 . S
C438 H428 0.930 . S
C438 C436 1.419 . S
C438 C439 1.362 . S
C439 H429 0.930 . S
C439 C432 1.409 . S
C439 C438 1.362 . S
H440 C446 0.930 . S
H441 C449 0.930 . S
H442 C450 0.930 . S
H443 C451 0.930 1_556 S
H444 C454 0.930 . S
H445 C455 0.930 . S
C446 H440 0.930 . S
C446 C447 1.355 . S
C446 C448 1.415 . S
C447 C446 1.355 . S
C447 C449 1.419 1_554 S
C448 C446 1.415 . S
C448 C453 1.425 . S
C448 C455 1.409 . S
C449 H441 0.930 . S
C449 C447 1.419 1_556 S
C449 C450 1.362 . S
C450 H442 0.930 . S
C450 C449 1.362 . S
C450 C453 1.409 1_556 S
C451 H443 0.930 1_554 S
C451 C452 1.355 . S
C451 C453 1.415 . S
C452 C451 1.355 . S
C452 C454 1.419 . S
C453 C448 1.425 . S
C453 C450 1.409 1_554 S
C453 C451 1.415 . S
C454 H444 0.930 . S
C454 C452 1.419 . S
C454 C455 1.362 . S
C455 H445 0.930 . S
C455 C448 1.409 . S
C455 C454 1.362 . S
H456 C462 0.930 . S
H457 C465 0.930 . S
H458 C466 0.930 . S
H459 C467 0.930 . S
H460 C470 0.930 . S
H461 C471 0.930 . S
C462 H456 0.930 . S
C462 C463 1.355 . S
C462 C464 1.415 . S
C463 C462 1.355 . S
C463 C465 1.419 . S
C464 C462 1.415 . S
C464 C469 1.425 . S
C464 C471 1.409 . S
C465 H457 0.930 . S
C465 C463 1.419 . S
C465 C466 1.362 . S
C466 H458 0.930 . S
C466 C465 1.362 . S
C466 C469 1.409 . S
C467 H459 0.930 . S
C467 C468 1.355 . S
C467 C469 1.415 . S
C468 C467 1.355 . S
C468 C470 1.419 . S
C469 C464 1.425 . S
C469 C466 1.409 . S
C469 C467 1.415 . S
C470 H460 0.930 . S
C470 C468 1.419 . S
C470 C471 1.362 . S
C471 H461 0.930 . S
C471 C464 1.409 . S
C471 C470 1.362 . S
H472 C478 0.930 . S
H473 C481 0.930 . S
H474 C482 0.930 . S
H475 C483 0.930 . S
H476 C486 0.930 . S
H477 C487 0.930 . S
C478 H472 0.930 . S
C478 C479 1.355 . S
C478 C480 1.415 . S
C479 C478 1.355 . S
C479 C481 1.419 . S
C480 C478 1.415 . S
C480 C485 1.425 . S
C480 C487 1.409 1_545 S
C481 H473 0.930 . S
C481 C479 1.419 . S
C481 C482 1.362 . S
C482 H474 0.930 . S
C482 C481 1.362 . S
C482 C485 1.409 . S
C483 H475 0.930 . S
C483 C484 1.355 1_545 S
C483 C485 1.415 . S
C484 C483 1.355 1_565 S
C484 C486 1.419 . S
C485 C480 1.425 . S
C485 C482 1.409 . S
C485 C483 1.415 . S
C486 H476 0.930 . S
C486 C484 1.419 . S
C486 C487 1.362 . S
C487 H477 0.930 . S
C487 C480 1.409 1_565 S
C487 C486 1.362 . S
H488 C494 0.930 . S
H489 C497 0.930 . S
H490 C498 0.930 . S
H491 C499 0.930 . S
H492 C502 0.930 . S
H493 C503 0.944 . S
C494 H488 0.930 . S
C494 C495 1.355 . S
C494 C496 1.415 1_455 S
C495 C494 1.355 . S
C495 C497 1.419 1_455 S
C496 C494 1.415 1_655 S
C496 C501 1.425 . S
C496 C503 1.398 1_655 S
C497 H489 0.930 . S
C497 C495 1.419 1_655 S
C497 C498 1.362 . S
C498 H490 0.930 . S
C498 C497 1.362 . S
C498 C501 1.409 . S
C499 H491 0.930 . S
C499 C500 1.355 . S
C499 C501 1.415 . S
C500 C499 1.355 . S
C500 C502 1.419 . S
C501 C496 1.425 . S
C501 C498 1.409 . S
C501 C499 1.415 . S
C502 H492 0.930 . S
C502 C500 1.419 . S
C502 C503 1.360 1_655 S
C503 H493 0.944 . S
C503 C496 1.398 1_455 S
C503 C502 1.360 1_455 S
H504 C510 0.930 . S
H505 C513 0.930 . S
H506 C514 0.930 . S
H507 C515 0.930 . S
H508 C518 0.930 . S
H509 C519 0.930 . S
C510 H504 0.930 . S
C510 C511 1.355 . S
C510 C512 1.415 . S
C511 C510 1.355 . S
C511 C513 1.419 . S
C512 C510 1.415 . S
C512 C517 1.425 . S
C512 C519 1.409 . S
C513 H505 0.930 . S
C513 C511 1.419 . S
C513 C514 1.362 . S
C514 H506 0.930 . S
C514 C513 1.362 . S
C514 C517 1.409 . S
C515 H507 0.930 . S
C515 C516 1.355 . S
C515 C517 1.415 . S
C516 C515 1.355 . S
C516 C518 1.419 . S
C517 C512 1.425 . S
C517 C514 1.409 . S
C517 C515 1.415 . S
C518 H508 0.930 . S
C518 C516 1.419 . S
C518 C519 1.362 . S
C519 H509 0.930 . S
C519 C512 1.409 . S
C519 C518 1.362 . S
H520 C526 0.930 . S
H521 C529 0.930 . S
H522 C530 0.930 . S
H523 C531 0.930 . S
H524 C534 0.930 . S
H525 C535 0.930 . S
C526 H520 0.930 . S
C526 C527 1.355 . S
C526 C528 1.415 . S
C527 C526 1.355 . S
C527 C529 1.419 . S
C528 C526 1.415 . S
C528 C533 1.425 . S
C528 C535 1.409 . S
C529 H521 0.930 . S
C529 C527 1.419 . S
C529 C530 1.362 . S
C530 H522 0.930 . S
C530 C529 1.362 . S
C530 C533 1.409 . S
C531 H523 0.930 . S
C531 C532 1.355 . S
C531 C533 1.415 . S
C532 C531 1.355 . S
C532 C534 1.419 . S
C533 C528 1.425 . S
C533 C530 1.409 . S
C533 C531 1.415 . S
C534 H524 0.930 . S
C534 C532 1.419 . S
C534 C535 1.362 . S
C535 H525 0.930 . S
C535 C528 1.409 . S
C535 C534 1.362 . S
H536 C542 0.930 . S
H537 C545 0.930 . S
H538 C546 0.930 . S
H539 C547 0.930 . S
H540 C550 0.930 . S
H541 C551 0.930 . S
C542 H536 0.930 . S
C542 C543 1.355 . S
C542 C544 1.415 . S
C543 C542 1.355 . S
C543 C545 1.419 . S
C544 C542 1.415 . S
C544 C549 1.425 . S
C544 C551 1.409 . S
C545 H537 0.930 . S
C545 C543 1.419 . S
C545 C546 1.362 . S
C546 H538 0.930 . S
C546 C545 1.362 . S
C546 C549 1.409 . S
C547 H539 0.930 . S
C547 C548 1.355 . S
C547 C549 1.415 . S
C548 C547 1.355 . S
C548 C550 1.419 . S
C549 C544 1.425 . S
C549 C546 1.409 . S
C549 C547 1.415 . S
C550 H540 0.930 . S
C550 C548 1.419 . S
C550 C551 1.362 . S
C551 H541 0.930 . S
C551 C544 1.409 . S
C551 C550 1.362 . S
H552 C558 0.930 . S
H553 C561 0.930 . S
H554 C562 0.930 . S
H555 C563 0.930 . S
H556 C566 0.930 . S
H557 C567 0.930 . S
C558 H552 0.930 . S
C558 C559 1.355 . S
C558 C560 1.415 . S
C559 C558 1.355 . S
C559 C561 1.419 . S
C560 C558 1.415 . S
C560 C565 1.425 . S
C560 C567 1.409 . S
C561 H553 0.930 . S
C561 C559 1.419 . S
C561 C562 1.362 . S
C562 H554 0.930 . S
C562 C561 1.362 . S
C562 C565 1.409 . S
C563 H555 0.930 . S
C563 C564 1.355 . S
C563 C565 1.415 . S
C564 C563 1.355 . S
C564 C566 1.419 . S
C565 C560 1.425 . S
C565 C562 1.409 . S
C565 C563 1.415 . S
C566 H556 0.930 . S
C566 C564 1.419 . S
C566 C567 1.362 . S
C567 H557 0.930 . S
C567 C560 1.409 . S
C567 C566 1.362 . S
H568 C574 0.930 . S
H569 C577 0.930 . S
H570 C578 0.930 . S
H571 C579 0.930 . S
H572 C582 0.930 . S
H573 C583 0.930 . S
C574 H568 0.930 . S
C574 C575 1.355 . S
C574 C576 1.415 . S
C575 C574 1.355 . S
C575 C577 1.419 . S
C576 C574 1.415 . S
C576 C581 1.425 . S
C576 C583 1.409 . S
C577 H569 0.930 . S
C577 C575 1.419 . S
C577 C578 1.362 . S
C578 H570 0.930 . S
C578 C577 1.362 . S
C578 C581 1.409 . S
C579 H571 0.930 . S
C579 C580 1.355 . S
C579 C581 1.415 . S
C580 C579 1.355 . S
C580 C582 1.419 . S
C581 C576 1.425 . S
C581 C578 1.409 . S
C581 C579 1.415 . S
C582 H572 0.930 . S
C582 C580 1.419 . S
C582 C583 1.362 . S
C583 H573 0.930 . S
C583 C576 1.409 . S
C583 C582 1.362 . S
H584 C590 0.930 . S
H585 C593 0.930 . S
H586 C594 0.930 . S
H587 C595 0.930 . S
H588 C598 0.930 . S
H589 C599 0.930 . S
C590 H584 0.930 . S
C590 C591 1.355 . S
C590 C592 1.415 . S
C591 C590 1.355 . S
C591 C593 1.419 . S
C592 C590 1.415 . S
C592 C597 1.425 . S
C592 C599 1.409 . S
C593 H585 0.930 . S
C593 C591 1.419 . S
C593 C594 1.362 . S
C594 H586 0.930 . S
C594 C593 1.362 . S
C594 C597 1.409 . S
C595 H587 0.930 . S
C595 C596 1.355 . S
C595 C597 1.415 . S
C596 C595 1.355 . S
C596 C598 1.419 . S
C597 C592 1.425 . S
C597 C594 1.409 . S
C597 C595 1.415 . S
C598 H588 0.930 . S
C598 C596 1.419 . S
C598 C599 1.362 . S
C599 H589 0.930 . S
C599 C592 1.409 . S
C599 C598 1.362 . S
H600 C606 0.930 . S
H601 C609 0.930 . S
H602 C610 0.930 . S
H603 C611 0.930 . S
H604 C614 0.930 . S
H605 C615 0.930 . S
C606 H600 0.930 . S
C606 C607 1.355 . S
C606 C608 1.415 1_565 S
C607 C606 1.355 . S
C607 C609 1.419 . S
C608 C606 1.415 1_545 S
C608 C613 1.425 . S
C608 C615 1.409 . S
C609 H601 0.930 . S
C609 C607 1.419 . S
C609 C610 1.362 1_565 S
C610 H602 0.930 . S
C610 C609 1.362 1_545 S
C610 C613 1.409 . S
C611 H603 0.930 . S
C611 C612 1.355 . S
C611 C613 1.415 . S
C612 C611 1.355 . S
C612 C614 1.419 . S
C613 C608 1.425 . S
C613 C610 1.409 . S
C613 C611 1.415 . S
C614 H604 0.930 . S
C614 C612 1.419 . S
C614 C615 1.362 . S
C615 H605 0.930 . S
C615 C608 1.409 . S
C615 C614 1.362 . S
H616 C622 0.930 . S
H617 C625 0.930 . S
H618 C626 0.930 . S
H619 C627 0.930 . S
H620 C630 0.930 . S
H621 C631 0.933 1_655 S
C622 H616 0.930 . S
C622 C623 1.355 . S
C622 C624 1.415 . S
C623 C622 1.355 . S
C623 C625 1.419 . S
C624 C622 1.415 . S
C624 C629 1.425 . S
C624 C631 1.400 1_655 S
C625 H617 0.930 . S
C625 C623 1.419 . S
C625 C626 1.362 . S
C626 H618 0.930 . S
C626 C625 1.362 . S
C626 C629 1.409 . S
C627 H619 0.930 . S
C627 C628 1.355 . S
C627 C629 1.415 1_455 S
C628 C627 1.355 . S
C628 C630 1.419 . S
C629 C624 1.425 . S
C629 C626 1.409 . S
C629 C627 1.415 1_655 S
C630 H620 0.930 . S
C630 C628 1.419 . S
C630 C631 1.369 . S
C631 H621 0.933 1_455 S
C631 C624 1.400 1_455 S
C631 C630 1.369 . S
H632 C638 0.930 . S
H633 C641 0.930 . S
H634 C642 0.930 . S
H635 C643 0.930 . S
H636 C646 0.930 . S
H637 C647 0.930 . S
C638 H632 0.930 . S
C638 C639 1.355 . S
C638 C640 1.415 . S
C639 C638 1.355 . S
C639 C641 1.419 . S
C640 C638 1.415 . S
C640 C645 1.425 . S
C640 C647 1.409 . S
C641 H633 0.930 . S
C641 C639 1.419 . S
C641 C642 1.362 . S
C642 H634 0.930 . S
C642 C641 1.362 . S
C642 C645 1.409 . S
C643 H635 0.930 . S
C643 C644 1.355 . S
C643 C645 1.415 . S
C644 C643 1.355 . S
C644 C646 1.419 . S
C645 C640 1.425 . S
C645 C642 1.409 . S
C645 C643 1.415 . S
C646 H636 0.930 . S
C646 C644 1.419 . S
C646 C647 1.362 . S
C647 H637 0.930 . S
C647 C640 1.409 . S
C647 C646 1.362 . S
H648 C654 0.930 . S
H649 C657 0.930 . S
H650 C658 0.930 . S
H651 C659 0.930 . S
H652 C662 0.930 . S
H653 C663 0.930 . S
C654 H648 0.930 . S
C654 C655 1.355 . S
C654 C656 1.415 . S
C655 C654 1.355 . S
C655 C657 1.419 . S
C656 C654 1.415 . S
C656 C661 1.425 . S
C656 C663 1.409 . S
C657 H649 0.930 . S
C657 C655 1.419 . S
C657 C658 1.362 . S
C658 H650 0.930 . S
C658 C657 1.362 . S
C658 C661 1.409 . S
C659 H651 0.930 . S
C659 C660 1.355 . S
C659 C661 1.415 . S
C660 C659 1.355 . S
C660 C662 1.419 . S
C661 C656 1.425 . S
C661 C658 1.409 . S
C661 C659 1.415 . S
C662 H652 0.930 . S
C662 C660 1.419 . S
C662 C663 1.362 . S
C663 H653 0.930 . S
C663 C656 1.409 . S
C663 C662 1.362 . S
H664 C670 0.930 . S
H665 C673 0.930 . S
H666 C674 0.930 . S
H667 C675 0.930 . S
H668 C678 0.930 . S
H669 C679 0.930 . S
C670 H664 0.930 . S
C670 C671 1.355 . S
C670 C672 1.415 . S
C671 C670 1.355 . S
C671 C673 1.419 . S
C672 C670 1.415 . S
C672 C677 1.425 . S
C672 C679 1.409 . S
C673 H665 0.930 . S
C673 C671 1.419 . S
C673 C674 1.362 . S
C674 H666 0.930 . S
C674 C673 1.362 . S
C674 C677 1.409 . S
C675 H667 0.930 . S
C675 C676 1.355 . S
C675 C677 1.415 . S
C676 C675 1.355 . S
C676 C678 1.419 . S
C677 C672 1.425 . S
C677 C674 1.409 . S
C677 C675 1.415 . S
C678 H668 0.930 . S
C678 C676 1.419 . S
C678 C679 1.362 . S
C679 H669 0.930 . S
C679 C672 1.409 . S
C679 C678 1.362 . S
H680 C686 0.930 . S
H681 C689 0.930 1_545 S
H682 C690 0.930 . S
H683 C691 0.930 . S
H684 C694 0.930 . S
H685 C695 0.930 . S
C686 H680 0.930 . S
C686 C687 1.355 . S
C686 C688 1.415 . S
C687 C686 1.355 . S
C687 C689 1.419 . S
C688 C686 1.415 . S
C688 C693 1.425 . S
C688 C695 1.409 . S
C689 H681 0.930 1_565 S
C689 C687 1.419 . S
C689 C690 1.362 . S
C690 H682 0.930 . S
C690 C689 1.362 . S
C690 C693 1.409 . S
C691 H683 0.930 . S
C691 C692 1.355 . S
C691 C693 1.415 . S
C692 C691 1.355 . S
C692 C694 1.419 . S
C693 C688 1.425 . S
C693 C690 1.409 . S
C693 C691 1.415 . S
C694 H684 0.930 . S
C694 C692 1.419 . S
C694 C695 1.362 . S
C695 H685 0.930 . S
C695 C688 1.409 . S
C695 C694 1.362 . S
H696 C702 0.930 . S
H697 C705 0.930 . S
H698 C706 0.930 . S
H699 C707 0.930 . S
H700 C710 0.930 . S
H701 C711 0.930 . S
C702 H696 0.930 . S
C702 C703 1.355 . S
C702 C704 1.415 . S
C703 C702 1.355 . S
C703 C705 1.419 . S
C704 C702 1.415 . S
C704 C709 1.425 . S
C704 C711 1.409 . S
C705 H697 0.930 . S
C705 C703 1.419 . S
C705 C706 1.362 . S
C706 H698 0.930 . S
C706 C705 1.362 . S
C706 C709 1.409 . S
C707 H699 0.930 . S
C707 C708 1.355 . S
C707 C709 1.415 . S
C708 C707 1.355 . S
C708 C710 1.419 . S
C709 C704 1.425 . S
C709 C706 1.409 . S
C709 C707 1.415 . S
C710 H700 0.930 . S
C710 C708 1.419 . S
C710 C711 1.362 . S
C711 H701 0.930 . S
C711 C704 1.409 . S
C711 C710 1.362 . S
H712 C718 0.914 1_455 S
H713 C721 0.930 . S
H714 C722 0.930 . S
H715 C723 0.930 . S
H716 C726 0.930 . S
H717 C727 0.930 . S
C718 H712 0.914 1_655 S
C718 C719 1.355 . S
C718 C720 1.415 . S
C719 C718 1.355 . S
C719 C721 1.419 . S
C720 C718 1.415 . S
C720 C725 1.425 . S
C720 C727 1.409 . S
C721 H713 0.930 . S
C721 C719 1.419 . S
C721 C722 1.362 . S
C722 H714 0.930 . S
C722 C721 1.362 . S
C722 C725 1.409 . S
C723 H715 0.930 . S
C723 C724 1.355 . S
C723 C725 1.415 . S
C724 C723 1.355 . S
C724 C726 1.419 . S
C725 C720 1.425 . S
C725 C722 1.409 . S
C725 C723 1.415 . S
C726 H716 0.930 . S
C726 C724 1.419 . S
C726 C727 1.362 . S
C727 H717 0.930 . S
C727 C720 1.409 . S
C727 C726 1.362 . S
H728 C734 0.930 . S
H729 C737 0.930 . S
H730 C738 0.930 . S
H731 C739 0.930 . S
H732 C742 0.930 . S
H733 C743 0.930 . S
C734 H728 0.930 . S
C734 C735 1.355 . S
C734 C736 1.415 . S
C735 C734 1.355 . S
C735 C737 1.419 . S
C736 C734 1.415 . S
C736 C741 1.425 . S
C736 C743 1.409 . S
C737 H729 0.930 . S
C737 C735 1.419 . S
C737 C738 1.362 . S
C738 H730 0.930 . S
C738 C737 1.362 . S
C738 C741 1.409 . S
C739 H731 0.930 . S
C739 C740 1.355 . S
C739 C741 1.415 . S
C740 C739 1.355 . S
C740 C742 1.419 . S
C741 C736 1.425 . S
C741 C738 1.409 . S
C741 C739 1.415 . S
C742 H732 0.930 . S
C742 C740 1.419 . S
C742 C743 1.362 . S
C743 H733 0.930 . S
C743 C736 1.409 . S
C743 C742 1.362 . S
H744 C750 0.930 . S
H745 C753 0.930 . S
H746 C754 0.930 . S
H747 C755 0.930 . S
H748 C758 0.930 . S
H749 C759 0.930 . S
C750 H744 0.930 . S
C750 C751 1.355 . S
C750 C752 1.415 . S
C751 C750 1.355 . S
C751 C753 1.419 . S
C752 C750 1.415 . S
C752 C757 1.425 . S
C752 C759 1.409 . S
C753 H745 0.930 . S
C753 C751 1.419 . S
C753 C754 1.362 . S
C754 H746 0.930 . S
C754 C753 1.362 . S
C754 C757 1.409 . S
C755 H747 0.930 . S
C755 C756 1.355 . S
C755 C757 1.415 . S
C756 C755 1.355 . S
C756 C758 1.419 . S
C757 C752 1.425 . S
C757 C754 1.409 . S
C757 C755 1.415 . S
C758 H748 0.930 . S
C758 C756 1.419 . S
C758 C759 1.362 . S
C759 H749 0.930 . S
C759 C752 1.409 . S
C759 C758 1.362 . S
H760 C766 0.930 . S
H761 C769 0.930 . S
H762 C770 0.930 . S
H763 C771 0.930 . S
H764 C774 0.930 . S
H765 C775 0.930 . S
C766 H760 0.930 . S
C766 C767 1.355 . S
C766 C768 1.415 . S
C767 C766 1.355 . S
C767 C769 1.419 . S
C768 C766 1.415 . S
C768 C773 1.425 1_565 S
C768 C775 1.409 . S
C769 H761 0.930 . S
C769 C767 1.419 . S
C769 C770 1.362 1_565 S
C770 H762 0.930 . S
C770 C769 1.362 1_545 S
C770 C773 1.409 . S
C771 H763 0.930 . S
C771 C772 1.355 . S
C771 C773 1.415 . S
C772 C771 1.355 . S
C772 C774 1.419 . S
C773 C768 1.425 1_545 S
C773 C770 1.409 . S
C773 C771 1.415 . S
C774 H764 0.930 . S
C774 C772 1.419 . S
C774 C775 1.362 1_545 S
C775 H765 0.930 . S
C775 C768 1.409 . S
C775 C774 1.362 1_565 S
H776 C782 0.930 . S
H777 C785 0.930 . S
H778 C786 0.930 . S
H779 C787 0.930 . S
H780 C790 0.930 . S
H781 C791 0.930 . S
C782 H776 0.930 . S
C782 C783 1.355 . S
C782 C784 1.415 1_655 S
C783 C782 1.355 . S
C783 C785 1.419 . S
C784 C782 1.415 1_455 S
C784 C789 1.427 1_455 S
C784 C791 1.409 . S
C785 H777 0.930 . S
C785 C783 1.419 . S
C785 C786 1.362 . S
C786 H778 0.930 . S
C786 C785 1.362 . S
C786 C789 1.417 . S
C787 H779 0.930 . S
C787 C788 1.355 . S
C787 C789 1.405 1_455 S
C788 C787 1.355 . S
C788 C790 1.419 . S
C789 C784 1.427 1_655 S
C789 C786 1.417 . S
C789 C787 1.405 1_655 S
C790 H780 0.930 . S
C790 C788 1.419 . S
C790 C791 1.362 . S
C791 H781 0.930 . S
C791 C784 1.409 . S
C791 C790 1.362 . S
C367 C47 1.627 . S
C372 C2 1.672 . S
C383 C87 1.615 . S
C388 C42 1.664 . S
C399 C82 1.698 . S
C404 C7 1.657 . S
C415 C96 1.487 . S
C420 C51 1.419 . S
C431 C91 1.417 . S
C436 C16 1.486 . S
C447 C11 1.433 . S
C452 C56 1.494 . S
C463 C122 1.680 . S
C468 C167 1.619 . S
C479 C207 1.579 . S
C484 C162 1.649 . S
C495 C202 1.676 . S
C500 C127 1.632 . S
C511 C171 1.420 . S
C516 C216 1.487 . S
C527 C211 1.414 . S
C532 C136 1.484 . S
C543 C176 1.487 . S
C548 C131 1.418 . S
C559 C287 1.580 . S
C564 C242 1.652 . S
C575 C282 1.662 . S
C580 C327 1.592 . S
C591 C322 1.654 . S
C596 C247 1.596 . S
C607 C336 1.524 . S
C612 C291 1.484 . S
C623 C331 1.489 . S
C628 C256 1.528 . S
C639 C251 1.492 . S
C644 C296 1.528 . S
C655 C210 2.591 . S
C660 C19 2.261 . S
C671 C130 2.593 . S
C676 C59 2.256 . S
C687 C99 2.258 . S
C692 C170 2.600 . S
C703 C90 2.598 . S
C708 C259 2.256 . S
C719 C10 2.613 . S
C724 C299 2.292 . S
C735 C339 2.334 . S
C740 C50 2.606 . S
C751 C139 2.264 . S
C756 C330 2.590 . S
C767 C179 2.266 . S
C772 C250 2.590 . S
C783 C290 2.617 . S
C788 C219 2.319 . S
