# Generated by pormake.
# Topology umf, (4)-cn, num edge types: 1
# Building blocks:
#     Node 0, Type 0, BuildingBlock: CEKHIL_clean_sbu_0, # of connection points: 4
#     Node 1, Type 0, BuildingBlock: CEKHIL_clean_sbu_0, # of connection points: 4
#     Node 2, Type 0, BuildingBlock: CEKHIL_clean_sbu_0, # of connection points: 4
#     Node 3, Type 0, BuildingBlock: CEKHIL_clean_sbu_0, # of connection points: 4
#     Node 4, Type 0, BuildingBlock: CEKHIL_clean_sbu_0, # of connection points: 4
#     Node 5, Type 0, BuildingBlock: CEKHIL_clean_sbu_0, # of connection points: 4
#     Node 6, Type 0, BuildingBlock: CEKHIL_clean_sbu_0, # of connection points: 4
#     Node 7, Type 0, BuildingBlock: CEKHIL_clean_sbu_0, # of connection points: 4
#     Edge 8, Type (0, 0), BuildingBlock: MIFKUJ_clean_linker_0, # of connection points: 2
#     Edge 9, Type (0, 0), BuildingBlock: MIFKUJ_clean_linker_0, # of connection points: 2
#     Edge 10, Type (0, 0), BuildingBlock: MIFKUJ_clean_linker_0, # of connection points: 2
#     Edge 11, Type (0, 0), BuildingBlock: MIFKUJ_clean_linker_0, # of connection points: 2
#     Edge 12, Type (0, 0), BuildingBlock: MIFKUJ_clean_linker_0, # of connection points: 2
#     Edge 13, Type (0, 0), BuildingBlock: MIFKUJ_clean_linker_0, # of connection points: 2
#     Edge 14, Type (0, 0), BuildingBlock: MIFKUJ_clean_linker_0, # of connection points: 2
#     Edge 15, Type (0, 0), BuildingBlock: MIFKUJ_clean_linker_0, # of connection points: 2
#     Edge 16, Type (0, 0), BuildingBlock: MIFKUJ_clean_linker_0, # of connection points: 2
#     Edge 17, Type (0, 0), BuildingBlock: MIFKUJ_clean_linker_0, # of connection points: 2
#     Edge 18, Type (0, 0), BuildingBlock: MIFKUJ_clean_linker_0, # of connection points: 2
#     Edge 19, Type (0, 0), BuildingBlock: MIFKUJ_clean_linker_0, # of connection points: 2
#     Edge 20, Type (0, 0), BuildingBlock: MIFKUJ_clean_linker_0, # of connection points: 2
#     Edge 21, Type (0, 0), BuildingBlock: MIFKUJ_clean_linker_0, # of connection points: 2
#     Edge 22, Type (0, 0), BuildingBlock: MIFKUJ_clean_linker_0, # of connection points: 2
#     Edge 23, Type (0, 0), BuildingBlock: MIFKUJ_clean_linker_0, # of connection points: 2
# Relax obj value: 0.166
# Max RMSD: 0.287
# Mean RMSD: 0.281
data_MOF--net-umf--node1-CEKHIL_clean_sbu_0--edge1-MIFKUJ_clean_linker_0
_symmetry_space_group_name_H-M    P1
_symmetry_Int_Tables_number       1
_symmetry_cell_setting            triclinic
loop_
_symmetry_equiv_pos_as_xyz
'x, y, z'
_cell_length_a     36.042246
_cell_length_b     34.545664
_cell_length_c     68.673661
_cell_angle_alpha  90.002645
_cell_angle_beta   90.004957
_cell_angle_gamma 89.991747
loop_
_atom_site_label
_atom_site_type_symbol
_atom_site_fract_x
_atom_site_fract_y
_atom_site_fract_z
_atom_type_partial_charge
Co0 Co 0.08332 0.25173 0.14223 0.0
O1 O 0.1126 0.26106 0.16488 0.0
O2 O 0.12763 0.21951 0.14153 0.0
C3 C 0.07129 0.31377 0.1355 0.0
O4 O 0.0589 0.23738 0.11621 0.0
Co5 Co 0.0001 0.27423 0.14438 0.0
O6 O 0.00569 0.27174 0.11567 0.0
C7 C 0.02426 0.2026 0.16312 0.0
C8 C 0.13552 0.23546 0.15824 0.0
C9 C 0.03062 0.25173 0.10717 0.0
O10 O 0.05674 0.2087 0.15611 0.0
O11 O 0.99726 0.22628 0.16095 0.0
O12 O 0.10256 0.2984 0.13008 0.0
O13 O 0.05083 0.29265 0.14677 0.0
Co14 Co 0.74816 0.09742 0.63038 0.0
O15 O 0.69659 0.10741 0.62641 0.0
O16 O 0.72047 0.04939 0.63206 0.0
C17 C 0.75814 0.14514 0.65186 0.0
O18 O 0.80066 0.07755 0.63592 0.0
Co19 Co 0.80346 0.15856 0.61584 0.0
O20 O 0.83892 0.12824 0.63154 0.0
C21 C 0.77245 0.10446 0.58748 0.0
C22 C 0.69125 0.07065 0.6288 0.0
C23 C 0.83285 0.09372 0.63723 0.0
O24 O 0.75467 0.0887 0.60158 0.0
O25 O 0.79328 0.13411 0.58972 0.0
O26 O 0.74408 0.11243 0.65735 0.0
O27 O 0.7614 0.15021 0.63318 0.0
Co28 Co 0.91805 0.74692 0.13888 0.0
O29 O 0.90198 0.73077 0.16412 0.0
O30 O 0.86928 0.76848 0.14442 0.0
C31 C 0.93819 0.68903 0.12883 0.0
O32 O 0.92685 0.76687 0.11122 0.0
Co33 Co 0.00313 0.74226 0.13125 0.0
O34 O 0.9871 0.75445 0.10435 0.0
C35 C 0.97431 0.80532 0.15516 0.0
C36 C 0.87205 0.75051 0.16105 0.0
C37 C 0.95478 0.76585 0.09947 0.0
O38 O 0.94136 0.79468 0.15044 0.0
O39 O 0.00329 0.78606 0.15047 0.0
O40 O 0.90308 0.69733 0.12797 0.0
O41 O 0.95875 0.71362 0.13803 0.0
Co42 Co 0.26048 0.905 0.63511 0.0
O43 O 0.31217 0.8972 0.63062 0.0
O44 O 0.28663 0.95391 0.63759 0.0
C45 C 0.253 0.85505 0.65559 0.0
O46 O 0.2075 0.92209 0.6414 0.0
Co47 Co 0.20777 0.84238 0.61925 0.0
O48 O 0.17125 0.87022 0.63561 0.0
C49 C 0.23668 0.89991 0.59206 0.0
C50 C 0.31645 0.9338 0.63394 0.0
C51 C 0.17609 0.90426 0.64231 0.0
O52 O 0.25228 0.91621 0.60671 0.0
O53 O 0.2192 0.86776 0.59344 0.0
O54 O 0.26611 0.88779 0.66166 0.0
O55 O 0.24921 0.8516 0.63685 0.0
Co56 Co 0.08365 0.73423 0.86229 0.0
O57 O 0.10001 0.72631 0.83622 0.0
O58 O 0.12802 0.76501 0.8574 0.0
C59 C 0.07322 0.67222 0.86948 0.0
O60 O 0.07264 0.74734 0.89086 0.0
Co61 Co 0.00101 0.71242 0.87043 0.0
O62 O 0.01947 0.71532 0.8976 0.0
C63 C 0.01774 0.78352 0.84909 0.0
C64 C 0.12607 0.75099 0.83979 0.0
C65 C 0.04822 0.7341 0.90294 0.0
O66 O 0.05222 0.77849 0.85303 0.0
O67 O 0.99248 0.75907 0.8536 0.0
O68 O 0.10672 0.68597 0.87079 0.0
O69 O 0.04905 0.69483 0.86157 0.0
Co70 Co 0.25293 0.10041 0.36839 0.0
O71 O 0.30473 0.11003 0.37115 0.0
O72 O 0.27971 0.05171 0.36816 0.0
C73 C 0.24163 0.14459 0.34538 0.0
O74 O 0.19986 0.08132 0.36464 0.0
Co75 Co 0.20055 0.16512 0.38214 0.0
O76 O 0.16406 0.13458 0.36698 0.0
C77 C 0.23167 0.11331 0.41143 0.0
C78 C 0.30938 0.07292 0.37019 0.0
C79 C 0.1685 0.09893 0.36278 0.0
O80 O 0.2475 0.09544 0.39735 0.0
O81 O 0.21281 0.14431 0.40892 0.0
O82 O 0.25538 0.11111 0.34092 0.0
O83 O 0.24021 0.15274 0.36386 0.0
Co84 Co 0.91628 0.24144 0.86562 0.0
O85 O 0.90883 0.25263 0.83874 0.0
O86 O 0.8678 0.22225 0.85731 0.0
C87 C 0.93817 0.29923 0.87434 0.0
O88 O 0.91701 0.2267 0.89453 0.0
Co89 Co -0.00064 0.2421 0.87866 0.0
O90 O 0.97553 0.23971 0.90467 0.0
C91 C 0.9719 0.17857 0.85476 0.0
C92 C 0.87735 0.23495 0.84012 0.0
C93 C 0.94184 0.2305 0.90798 0.0
O94 O 0.93886 0.19072 0.85807 0.0
O95 O 0.0009 0.19692 0.86026 0.0
O96 O 0.90254 0.2939 0.87302 0.0
O97 O 0.95861 0.27146 0.86778 0.0
Co98 Co 0.73788 0.90125 0.37221 0.0
O99 O 0.68591 0.89157 0.37404 0.0
O100 O 0.71163 0.94974 0.37574 0.0
C101 C 0.74855 0.86478 0.3458 0.0
O102 O 0.79116 0.92111 0.36997 0.0
Co103 Co 0.79044 0.83335 0.37997 0.0
O104 O 0.82696 0.86803 0.3676 0.0
C105 C 0.76174 0.87638 0.41336 0.0
C106 C 0.68166 0.92861 0.37583 0.0
C107 C 0.82263 0.90456 0.36666 0.0
O108 O 0.74285 0.89664 0.40127 0.0
O109 O 0.78291 0.84859 0.40805 0.0
O110 O 0.73553 0.89961 0.34431 0.0
O111 O 0.74981 0.85062 0.36335 0.0
H112 H 0.00586 0.35033 0.1429 0.0
H113 H 0.98658 0.41427 0.13164 0.0
H114 H 0.0897 0.42684 0.10035 0.0
H115 H 0.10934 0.36285 0.1117 0.0
H116 H 0.07465 0.48892 0.12294 0.0
H117 H 0.01123 0.41643 0.07481 0.0
H118 H 0.97222 0.36342 0.06224 0.0
H119 H 0.87954 0.40588 0.0952 0.0
H120 H 0.91809 0.45889 0.10818 0.0
H121 H 0.0028 0.67647 0.10906 0.0
H122 H 0.02773 0.6138 0.09856 0.0
H123 H 0.93168 0.5566 0.12285 0.0
H124 H 0.90545 0.61925 0.13162 0.0
H125 H 0.95194 0.51769 0.09357 0.0
H126 H 0.02166 0.57428 0.14896 0.0
H127 H 0.06062 0.62551 0.16349 0.0
H128 H 0.14092 0.61094 0.11786 0.0
H129 H 0.10228 0.55979 0.10304 0.0
C130 C 0.02431 0.36658 0.13352 0.0
C131 C 0.05914 0.35178 0.12825 0.0
C132 C 0.01315 0.40294 0.12695 0.0
C133 C 0.03654 0.42498 0.11495 0.0
C134 C 0.0712 0.4101 0.1095 0.0
C135 C 0.08236 0.37366 0.11603 0.0
C136 C 0.02578 0.46483 0.10956 0.0
C137 C 0.04823 0.4953 0.11606 0.0
C138 C 0.99131 0.47297 0.10065 0.0
C139 C 0.96764 0.44166 0.09251 0.0
C140 C 0.98257 0.41441 0.07945 0.0
C141 C 0.96054 0.38433 0.07225 0.0
C142 C 0.92345 0.38125 0.07794 0.0
C143 C 0.90827 0.40832 0.09079 0.0
C144 C 0.93019 0.43847 0.09803 0.0
C145 C 0.98694 0.65042 0.11183 0.0
C146 C 0.9526 0.65227 0.12138 0.0
C147 C 0.00118 0.61467 0.10591 0.0
C148 C 0.98217 0.58026 0.11043 0.0
C149 C 0.947 0.58257 0.11918 0.0
C150 C 0.93213 0.61833 0.12436 0.0
C151 C -0.00019 0.5417 0.10804 0.0
C152 C 0.9788 0.5114 0.09996 0.0
C153 C 0.03551 0.53355 0.11567 0.0
C154 C 0.05903 0.56357 0.12484 0.0
C155 C 0.04764 0.58207 0.14205 0.0
C156 C 0.06962 0.61109 0.15032 0.0
C157 C 0.10318 0.62154 0.14157 0.0
C158 C 0.11491 0.60286 0.1246 0.0
C159 C 0.09302 0.57384 0.11628 0.0
H160 H 0.12013 0.64406 0.14797 0.0
H161 H 0.90646 0.3579 0.07237 0.0
H162 H 0.3808 0.89464 0.63792 0.0
H163 H 0.44371 0.92017 0.63744 0.0
H164 H 0.40091 0.0357 0.62954 0.0
H165 H 0.33705 0.01017 0.63028 0.0
H166 H 0.46042 0.01094 0.60284 0.0
H167 H 0.43294 0.01824 0.67114 0.0
H168 H 0.41072 0.99336 0.70269 0.0
H169 H 0.49433 0.90483 0.70163 0.0
H170 H 0.51672 0.92883 0.6699 0.0
H171 H 0.62839 0.10942 0.61943 0.0
H172 H 0.56495 0.08566 0.61992 0.0
H173 H 0.60388 0.97263 0.63717 0.0
H174 H 0.66812 0.99655 0.63694 0.0
H175 H 0.54558 0.99679 0.65921 0.0
H176 H 0.57319 0.98706 0.59161 0.0
H177 H 0.59568 0.00881 0.55953 0.0
H178 H 0.51251 0.09778 0.55836 0.0
H179 H 0.48987 0.07696 0.5906 0.0
C180 C 0.38462 0.92553 0.63612 0.0
C181 C 0.35405 0.95049 0.63409 0.0
C182 C 0.42061 0.94003 0.63593 0.0
C183 C 0.42681 0.97972 0.63355 0.0
C184 C 0.39647 0.00492 0.63144 0.0
C185 C 0.36016 0.99041 0.63192 0.0
C186 C 0.46531 0.9942 0.63291 0.0
C187 C 0.47894 0.00864 0.61524 0.0
C188 C 0.48958 0.98955 0.64891 0.0
C189 C 0.47629 0.97513 0.66804 0.0
C190 C 0.44639 0.99325 0.67754 0.0
C191 C 0.4338 0.97935 0.69548 0.0
C192 C 0.45104 0.94748 0.70414 0.0
C193 C 0.48098 0.9295 0.6949 0.0
C194 C 0.49365 0.94326 0.67694 0.0
C195 C 0.62364 0.0794 0.62323 0.0
C196 C 0.65327 0.0548 0.62816 0.0
C197 C 0.58729 0.06584 0.62341 0.0
C198 C 0.57975 0.02732 0.62838 0.0
C199 C 0.60922 0.00248 0.63323 0.0
C200 C 0.64582 0.01608 0.63303 0.0
C201 C 0.54083 0.01378 0.62913 0.0
C202 C 0.52711 -0.00066 0.6468 0.0
C203 C 0.51657 0.01805 0.61305 0.0
C204 C 0.53006 0.03068 0.59363 0.0
C205 C 0.5599 0.01149 0.5846 0.0
C206 C 0.57264 0.02361 0.56637 0.0
C207 C 0.55559 0.05472 0.55694 0.0
C208 C 0.52572 0.07372 0.5657 0.0
C209 C 0.5129 0.06175 0.58395 0.0
H210 H 0.56549 0.06405 0.54282 0.0
H211 H 0.44126 0.93676 0.71803 0.0
H212 H 0.01029 0.31261 0.88419 0.0
H213 H 0.03781 0.37495 0.89313 0.0
H214 H 0.92972 0.42823 0.8911 0.0
H215 H 0.90181 0.36603 0.88259 0.0
H216 H 0.00086 0.44547 0.86155 0.0
H217 H 0.94817 0.44224 0.92723 0.0
H218 H 0.93992 0.41263 0.9596 0.0
H219 H 0.05745 0.41821 0.96947 0.0
H220 H 0.06643 0.44725 0.93696 0.0
H221 H 0.00415 0.64156 0.87098 0.0
H222 H 0.98698 0.57634 0.88083 0.0
H223 H 0.10077 0.55182 0.8958 0.0
H224 H 0.11844 0.61772 0.88603 0.0
H225 H 0.03578 0.51691 0.92158 0.0
H226 H 0.08836 0.52303 0.85658 0.0
H227 H 0.09637 0.55291 0.82423 0.0
H228 H 0.97981 0.54019 0.81297 0.0
H229 H 0.97105 0.51078 0.8454 0.0
C230 C 0.9923 0.33741 0.88615 0.0
C231 C 0.95406 0.33482 0.88242 0.0
C232 C 0.00799 0.37276 0.89146 0.0
C233 C 0.98558 0.4057 0.893 0.0
C234 C 0.94717 0.40272 0.89034 0.0
C235 C 0.93139 0.36734 0.8853 0.0
C236 C 0.00274 0.44409 0.89289 0.0
C237 C 0.00851 0.46111 0.87466 0.0
C238 C 0.01341 0.46365 0.91003 0.0
C239 C 0.00803 0.44628 0.92954 0.0
C240 C 0.97231 0.43663 0.93618 0.0
C241 C 0.96748 0.42009 0.95458 0.0
C242 C 0.99816 0.41337 0.96655 0.0
C243 C 0.03372 0.42332 0.96016 0.0
C244 C 0.03869 0.43982 0.94175 0.0
C245 C 0.0255 0.62263 0.87669 0.0
C246 C 0.06274 0.63434 0.87741 0.0
C247 C 0.01555 0.58556 0.88248 0.0
C248 C 0.04269 0.55959 0.88897 0.0
C249 C 0.07955 0.57182 0.89095 0.0
C250 C 0.08958 0.60916 0.88517 0.0
C251 C 0.03306 0.51843 0.89023 0.0
C252 C 0.02876 0.50088 0.90851 0.0
C253 C 0.02378 0.49799 0.87311 0.0
C254 C 0.02903 0.51501 0.85346 0.0
C255 C 0.06441 0.52688 0.84726 0.0
C256 C 0.06909 0.54368 0.8289 0.0
C257 C 0.0386 0.54852 0.81657 0.0
C258 C 0.00339 0.53645 0.82254 0.0
C259 C 0.99856 0.51967 0.8409 0.0
H260 H 0.04227 0.56154 0.80236 0.0
H261 H 0.99437 0.40058 0.9808 0.0
H262 H 0.37357 0.11294 0.37385 0.0
H263 H 0.43637 0.08767 0.37551 0.0
H264 H 0.39431 0.97114 0.37083 0.0
H265 H 0.33055 0.99641 0.3693 0.0
H266 H 0.44842 0.98003 0.39961 0.0
H267 H 0.43264 0.01163 0.33216 0.0
H268 H 0.41551 0.05351 0.30451 0.0
H269 H 0.49875 0.13581 0.32143 0.0
H270 H 0.51599 0.09471 0.34939 0.0
H271 H 0.61693 0.88889 0.37662 0.0
H272 H 0.55427 0.9146 0.37691 0.0
H273 H 0.59762 0.03099 0.37841 0.0
H274 H 0.6612 0.00523 0.37775 0.0
H275 H 0.54281 0.02276 0.35155 0.0
H276 H 0.55907 0.99137 0.41881 0.0
H277 H 0.57593 0.95014 0.44675 0.0
H278 H 0.49194 0.86813 0.4305 0.0
H279 H 0.47493 0.90859 0.40228 0.0
C280 C 0.37748 0.08188 0.37316 0.0
C281 C 0.3471 0.0566 0.37134 0.0
C282 C 0.41347 0.06755 0.37405 0.0
C283 C 0.41993 0.02765 0.37302 0.0
C284 C 0.38974 0.0021 0.37155 0.0
C285 C 0.35346 0.01651 0.37063 0.0
C286 C 0.45844 0.01308 0.37357 0.0
C287 C 0.46898 0.98881 0.38895 0.0
C288 C 0.48534 0.02569 0.35996 0.0
C289 C 0.47539 0.05022 0.34298 0.0
C290 C 0.44712 0.03879 0.33007 0.0
C291 C 0.43741 0.06237 0.31433 0.0
C292 C 0.45596 0.09734 0.31124 0.0
C293 C 0.48437 0.10873 0.32385 0.0
C294 C 0.49415 0.08528 0.33964 0.0
C295 C 0.61332 0.92001 0.37715 0.0
C296 C 0.64403 0.9451 0.3772 0.0
C297 C 0.57739 0.93462 0.3774 0.0
C298 C 0.57131 0.97464 0.37794 0.0
C299 C 0.60184 -5e-05 0.37808 0.0
C300 C 0.63804 0.98526 0.37778 0.0
C301 C 0.53288 0.98963 0.37761 0.0
C302 C 0.52231 0.01399 0.36225 0.0
C303 C 0.50597 0.97716 0.39126 0.0
C304 C 0.51592 0.9529 0.40833 0.0
C305 C 0.54436 0.96441 0.42111 0.0
C306 C 0.55392 0.94119 0.43701 0.0
C307 C 0.53507 0.9065 0.44037 0.0
C308 C 0.50654 0.895 0.42787 0.0
C309 C 0.49689 0.91809 0.41193 0.0
H310 H 0.54252 0.88855 0.45269 0.0
H311 H 0.44837 0.11558 0.29906 0.0
H312 H 0.94198 0.16362 0.92863 0.0
H313 H 0.9497 0.15902 0.96409 0.0
H314 H 0.9343 0.28257 0.96886 0.0
H315 H 0.92595 0.28682 0.93363 0.0
H316 H 0.00663 0.19139 0.98217 0.0
H317 H 0.9092 0.30919 0.01374 0.0
H318 H 0.84616 0.33488 0.00849 0.0
H319 H 0.81201 0.22596 0.98429 0.0
H320 H 0.8747 0.19941 0.98963 0.0
H321 H 0.00881 0.30487 0.08091 0.0
H322 H 0.98983 0.29416 0.04728 0.0
H323 H 0.01886 0.17333 0.05246 0.0
H324 H 0.03932 0.18453 0.08618 0.0
H325 H 0.93493 0.25337 0.03527 0.0
H326 H 0.03426 0.13549 0.00656 0.0
H327 H 0.09893 0.11353 0.01079 0.0
H328 H 0.13121 0.22817 0.02803 0.0
H329 H 0.06687 0.25089 0.02367 0.0
C330 C 0.93822 0.18933 0.93745 0.0
C331 C 0.93232 0.2254 0.92859 0.0
C332 C 0.9432 0.18683 0.95765 0.0
C333 C 0.9425 0.22041 0.96922 0.0
C334 C 0.9342 0.2561 0.9604 0.0
C335 C 0.92916 0.25854 0.94027 0.0
C336 C 0.95513 0.21924 0.98986 0.0
C337 C 0.99056 0.20415 0.99389 0.0
C338 C 0.93475 0.2369 0.00506 0.0
C339 C 0.89677 0.25239 1.00198 0.0
C340 C 0.88819 0.29064 0.00739 0.0
C341 C 0.85253 0.30537 0.00438 0.0
C342 C 0.82512 0.2821 0.99602 0.0
C343 C 0.8333 0.244 0.9907 0.0
C344 C 0.86892 0.2291 0.99369 0.0
C345 C 0.01185 0.27616 0.07473 0.0
C346 C 0.0255 0.24548 0.08608 0.0
C347 C 0.00076 0.27001 0.05555 0.0
C348 C 0.00256 0.23289 0.04729 0.0
C349 C 0.01753 0.20234 0.05839 0.0
C350 C 0.0293 0.2087 0.07762 0.0
C351 C 0.98682 0.22646 0.02748 0.0
C352 C 0.95078 0.24008 0.02362 0.0
C353 C 0.00686 0.20799 0.01239 0.0
C354 C 0.04566 0.19472 0.01504 0.0
C355 C 0.05519 0.156 0.01123 0.0
C356 C 0.09178 0.14343 0.01365 0.0
C357 C 0.11913 0.1694 0.01975 0.0
C358 C 0.10997 0.20804 0.02339 0.0
C359 C 0.07343 0.22076 0.02098 0.0
H360 H 0.14743 0.15961 0.02162 0.0
H361 H 0.79753 0.29356 0.99369 0.0
H362 H 0.82754 0.096 0.56044 0.0
H363 H 0.82649 0.05489 0.53144 0.0
H364 H 0.71111 0.02856 0.54206 0.0
H365 H 0.71293 0.06765 0.57167 0.0
H366 H 0.74138 0.96625 0.53369 0.0
H367 H 0.74547 0.08988 0.50297 0.0
H368 H 0.76823 0.15565 0.49578 0.0
H369 H 0.87285 0.10894 0.47726 0.0
H370 H 0.85088 0.04289 0.48458 0.0
H371 H 0.70372 0.90541 0.43409 0.0
H372 H 0.70678 0.94066 0.46504 0.0
H373 H 0.82391 0.91671 0.46885 0.0
H374 H 0.8208 0.88023 0.43817 0.0
H375 H 0.79476 0.00216 0.46965 0.0
H376 H 0.78367 0.87595 0.50009 0.0
H377 H 0.75381 0.81255 0.50524 0.0
H378 H 0.65249 0.8691 0.52177 0.0
H379 H 0.68161 0.93286 0.51644 0.0
C380 C 0.80181 0.08199 0.55634 0.0
C381 C 0.77028 0.08516 0.56826 0.0
C382 C 0.80116 0.05847 0.53971 0.0
C383 C 0.7686 0.03864 0.5343 0.0
C384 C 0.7367 0.04316 0.54587 0.0
C385 C 0.73764 0.06579 0.56274 0.0
C386 C 0.76812 0.01167 0.51726 0.0
C387 C 0.75271 0.97452 0.51966 0.0
C388 C 0.78328 0.02178 0.49888 0.0
C389 C 0.79667 0.06147 0.49453 0.0
C390 C 0.77344 0.09366 0.49752 0.0
C391 C 0.78618 0.13098 0.49339 0.0
C392 C 0.822 0.13648 0.48613 0.0
C393 C 0.84513 0.10465 0.48292 0.0
C394 C 0.83254 0.06725 0.48704 0.0
C395 C 0.72988 0.90662 0.44185 0.0
C396 C 0.76196 0.88977 0.43383 0.0
C397 C 0.73161 0.92691 0.45944 0.0
C398 C 0.76559 0.93142 0.46913 0.0
C399 C 0.79743 0.91345 0.46157 0.0
C400 C 0.79553 0.89231 0.44417 0.0
C401 C 0.76812 0.95736 0.48628 0.0
C402 C 0.78373 0.99422 0.4838 0.0
C403 C 0.75218 0.94747 0.50438 0.0
C404 C 0.73472 0.90916 0.50767 0.0
C405 C 0.75492 0.87486 0.50463 0.0
C406 C 0.73815 0.83886 0.50763 0.0
C407 C 0.70124 0.8368 0.51377 0.0
C408 C 0.68106 0.87074 0.51698 0.0
C409 C 0.6977 0.90681 0.514 0.0
H410 H 0.68831 0.8089 0.51609 0.0
H411 H 0.83181 0.16541 0.48293 0.0
H412 H 0.92756 0.71882 0.07171 0.0
H413 H 0.94374 0.72248 0.03711 0.0
H414 H 0.99167 0.83537 0.04621 0.0
H415 H 0.97614 0.83134 0.08095 0.0
H416 H 0.95288 0.81811 0.00646 0.0
H417 H 0.04863 0.77467 0.05175 0.0
H418 H 0.06893 0.7346 0.07949 0.0
H419 H 0.04046 0.63149 0.04794 0.0
H420 H 0.01928 0.67106 0.02013 0.0
H421 H 0.06382 0.80254 0.92156 0.0
H422 H 0.05111 0.81672 0.95606 0.0
H423 H 0.02417 0.69652 0.96572 0.0
H424 H 0.03713 0.68244 0.93163 0.0
H425 H 0.05619 0.72477 0.99706 0.0
H426 H 0.95752 0.76224 0.95375 0.0
H427 H 0.92981 0.79741 0.92609 0.0
H428 H 0.95704 0.90588 0.95309 0.0
H429 H 0.98545 0.87127 0.9808 0.0
C430 C 0.93964 0.74528 0.06608 0.0
C431 C 0.95005 0.77511 0.0788 0.0
C432 C 0.94917 0.74722 0.04638 0.0
C433 C 0.96912 0.77908 0.0392 0.0
C434 C 0.97606 0.8107 0.05148 0.0
C435 C 0.96699 0.80851 0.07126 0.0
C436 C 0.9883 0.77613 0.0202 0.0
C437 C 0.97591 0.7983 0.00441 0.0
C438 C 0.0179 0.74973 0.01757 0.0
C439 C 0.03211 0.72584 0.03393 0.0
C440 C 0.04651 0.74347 0.05077 0.0
C441 C 0.05817 0.72085 0.0665 0.0
C442 C 0.05594 0.68053 0.06549 0.0
C443 C 0.04217 0.66274 0.0487 0.0
C444 C 0.03035 0.68525 0.03294 0.0
C445 C 0.05656 0.77905 0.93128 0.0
C446 C 0.05129 0.74147 0.92401 0.0
C447 C 0.04889 0.78718 0.95091 0.0
C448 C 0.03592 0.7578 0.96339 0.0
C449 C 0.03395 0.71971 0.95642 0.0
C450 C 0.04137 0.71168 0.93692 0.0
C451 C 0.02073 0.76662 0.98304 0.0
C452 C 0.03374 0.74532 0.99906 0.0
C453 C 0.99126 0.79332 0.98576 0.0
C454 C 0.97404 0.8142 0.9692 0.0
C455 C 0.95786 0.79359 0.95371 0.0
C456 C 0.942 0.81341 0.93804 0.0
C457 C 0.94178 0.85386 0.9378 0.0
C458 C 0.95732 0.87455 0.95328 0.0
C459 C 0.97332 0.85485 0.96896 0.0
H460 H 0.92948 0.86916 0.92566 0.0
H461 H 0.06497 0.66308 0.0777 0.0
H462 H 0.22171 0.14547 0.44802 0.0
H463 H 0.2226 0.1111 0.47951 0.0
H464 H 0.24332 0.00347 0.4497 0.0
H465 H 0.24355 0.03716 0.41861 0.0
H466 H 0.1816 0.00467 0.47904 0.0
H467 H 0.31196 0.03585 0.46906 0.0
H468 H 0.36403 0.08079 0.46347 0.0
H469 H 0.3368 0.14194 0.51601 0.0
H470 H 0.28418 0.09765 0.52175 0.0
H471 H 0.22457 0.87215 0.5549 0.0
H472 H 0.22409 0.90944 0.5245 0.0
H473 H 0.24685 0.01393 0.55684 0.0
H474 H 0.24923 0.97682 0.58684 0.0
H475 H 0.28485 0.0173 0.52636 0.0
H476 H 0.15705 0.98776 0.53813 0.0
H477 H 0.10277 0.94617 0.54448 0.0
H478 H 0.12045 0.88719 0.49023 0.0
H479 H 0.17517 0.92808 0.48367 0.0
C480 C 0.22665 0.11456 0.44825 0.0
C481 C 0.23284 0.09419 0.4308 0.0
C482 C 0.22712 0.09498 0.46619 0.0
C483 C 0.23293 0.05474 0.46686 0.0
C484 C 0.23872 0.03447 0.44949 0.0
C485 C 0.23908 0.05396 0.43173 0.0
C486 C 0.23317 0.0332 0.48553 0.0
C487 C 0.2042 0.00721 0.4894 0.0
C488 C 0.26227 0.0372 0.49915 0.0
C489 C 0.29385 0.06379 0.49569 0.0
C490 C 0.31682 0.05914 0.4793 0.0
C491 C 0.34649 0.08443 0.47614 0.0
C492 C 0.35364 0.11429 0.48934 0.0
C493 C 0.33118 0.11885 0.50577 0.0
C494 C 0.30144 0.09366 0.50899 0.0
C495 C 0.22964 0.90303 0.55546 0.0
C496 C 0.237 0.92139 0.57332 0.0
C497 C 0.2291 0.92445 0.5381 0.0
C498 C 0.23482 0.96481 0.53831 0.0
C499 C 0.24244 0.98294 0.55615 0.0
C500 C 0.24375 0.96155 0.57337 0.0
C501 C 0.23307 0.98842 0.52011 0.0
C502 C 0.26189 0.0148 0.51622 0.0
C503 C 0.20338 0.98528 0.50664 0.0
C504 C 0.17042 0.96073 0.5105 0.0
C505 C 0.14951 0.96574 0.52761 0.0
C506 C 0.11865 0.94231 0.53125 0.0
C507 C 0.10823 0.91399 0.51779 0.0
C508 C 0.12859 0.9091 0.50065 0.0
C509 C 0.15952 0.93241 0.49696 0.0
H510 H 0.08433 0.89588 0.52062 0.0
H511 H 0.37664 0.13382 0.48687 0.0
H512 H 0.14537 0.16294 0.17217 0.0
H513 H 0.17294 0.14896 0.20403 0.0
H514 H 0.21748 0.26463 0.20637 0.0
H515 H 0.1889 0.27905 0.17489 0.0
H516 H 0.25988 0.19262 0.22763 0.0
H517 H 0.14285 0.27032 0.22248 0.0
H518 H 0.08137 0.27782 0.20709 0.0
H519 H 0.05075 0.16377 0.22608 0.0
H520 H 0.11232 0.15548 0.24134 0.0
H521 H 0.26892 0.21077 0.32929 0.0
H522 H 0.25579 0.2323 0.29588 0.0
H523 H 0.16777 0.14797 0.29184 0.0
H524 H 0.18054 0.12717 0.32494 0.0
H525 H 0.1498 0.20647 0.27063 0.0
H526 H 0.25675 0.12673 0.27816 0.0
H527 H 0.31778 0.10724 0.29108 0.0
H528 H 0.36737 0.20884 0.26618 0.0
H529 H 0.30642 0.22927 0.25337 0.0
C530 C 0.16295 0.18453 0.17894 0.0
C531 C 0.16524 0.22198 0.17115 0.0
C532 C 0.1785 0.17661 0.19719 0.0
C533 C 0.19698 0.20591 0.20754 0.0
C534 C 0.20357 0.24162 0.19852 0.0
C535 C 0.18736 0.24978 0.18051 0.0
C536 C 0.2011 0.20281 0.22891 0.0
C537 C 0.23607 0.19615 0.23712 0.0
C538 C 0.16974 0.20641 0.24113 0.0
C539 C 0.13211 0.21227 0.23297 0.0
C540 C 0.12297 0.24688 0.22335 0.0
C541 C 0.08816 0.25125 0.21464 0.0
C542 C 0.06217 0.22128 0.2156 0.0
C543 C 0.07089 0.18697 0.22538 0.0
C544 C 0.10571 0.18244 0.23407 0.0
C545 C 0.2455 0.19849 0.32158 0.0
C546 C 0.22519 0.16795 0.32978 0.0
C547 C 0.23842 0.21023 0.30238 0.0
C548 C 0.21134 0.1911 0.29117 0.0
C549 C 0.1888 0.1632 0.30011 0.0
C550 C 0.19585 0.15157 0.31918 0.0
C551 C 0.2089 0.19655 0.26972 0.0
C552 C 0.17399 0.20352 0.26134 0.0
C553 C 0.24024 0.19193 0.25738 0.0
C554 C 0.27694 0.1798 0.26503 0.0
C555 C 0.28061 0.14509 0.27558 0.0
C556 C 0.31519 0.13385 0.28287 0.0
C557 C 0.34642 0.15685 0.27951 0.0
C558 C 0.34313 0.1911 0.26881 0.0
C559 C 0.30857 0.20254 0.26154 0.0
H560 H 0.37318 0.14808 0.28515 0.0
H561 H 0.03529 0.22465 0.20879 0.0
H562 H 0.80306 0.24507 0.83135 0.0
H563 H 0.77511 0.23987 0.79859 0.0
H564 H 0.8797 0.19901 0.77587 0.0
H565 H 0.90738 0.20499 0.80803 0.0
H566 H 0.85472 0.25723 0.7546 0.0
H567 H 0.80351 0.13922 0.78238 0.0
H568 H 0.76629 0.10182 0.80592 0.0
H569 H 0.66904 0.16627 0.78997 0.0
H570 H 0.70583 0.2044 0.76649 0.0
H571 H 0.82705 0.15947 0.66588 0.0
H572 H 0.84084 0.18664 0.69781 0.0
H573 H 0.72576 0.21839 0.70475 0.0
H574 H 0.71189 0.18992 0.67288 0.0
H575 H 0.74686 0.17773 0.73454 0.0
H576 H 0.79753 0.28832 0.70262 0.0
H577 H 0.83542 0.32382 0.67865 0.0
H578 H 0.93441 0.27269 0.70208 0.0
H579 H 0.89711 0.23649 0.72603 0.0
C580 C 0.81959 0.23423 0.81936 0.0
C581 C 0.8573 0.22557 0.82206 0.0
C582 C 0.80377 0.23142 0.80069 0.0
C583 C 0.82548 0.21947 0.78471 0.0
C584 C 0.86254 0.20886 0.78784 0.0
C585 C 0.87827 0.21206 0.80625 0.0
C586 C 0.81105 0.21938 0.76442 0.0
C587 C 0.83116 0.23975 0.75019 0.0
C588 C 0.77952 0.19782 0.75874 0.0
C589 C 0.75751 0.175 0.77289 0.0
C590 C 0.77426 0.14566 0.78403 0.0
C591 C 0.75323 0.12427 0.79733 0.0
C592 C 0.71535 0.13176 0.79949 0.0
C593 C 0.6984 0.16057 0.78831 0.0
C594 C 0.71932 0.18206 0.77501 0.0
C595 C 0.80512 0.17403 0.67375 0.0
C596 C 0.76862 0.17362 0.66671 0.0
C597 C 0.81293 0.18939 0.69213 0.0
C598 C 0.78437 0.20487 0.70374 0.0
C599 C 0.74827 0.20674 0.6961 0.0
C600 C 0.74045 0.19102 0.67778 0.0
C601 C 0.79148 0.21438 0.72456 0.0
C602 C 0.76994 0.19592 0.73892 0.0
C603 C 0.82185 0.23758 0.73038 0.0
C604 C 0.84445 0.25958 0.71609 0.0
C605 C 0.82736 0.28449 0.7026 0.0
C606 C 0.84875 0.30476 0.68902 0.0
C607 C 0.8873 0.30049 0.68883 0.0
C608 C 0.90455 0.27599 0.70225 0.0
C609 C 0.8833 0.25566 0.71586 0.0
H610 H 0.9038 0.31618 0.67829 0.0
H611 H 0.69911 0.11516 0.80979 0.0
H612 H 0.76736 0.89799 0.31186 0.0
H613 H 0.77995 0.86707 0.28088 0.0
H614 H 0.77006 0.75471 0.30776 0.0
H615 H 0.75727 0.78604 0.33944 0.0
H616 H 0.83086 0.76324 0.28053 0.0
H617 H 0.69977 0.78297 0.28196 0.0
H618 H 0.64247 0.82008 0.28798 0.0
H619 H 0.67519 0.90387 0.24511 0.0
H620 H 0.73297 0.8676 0.23904 0.0
H621 H 0.84952 0.69412 0.18554 0.0
H622 H 0.81791 0.70278 0.21672 0.0
H623 H 0.80466 0.8245 0.20438 0.0
H624 H 0.83496 0.81543 0.1727 0.0
H625 H 0.74776 0.7989 0.22568 0.0
H626 H 0.88157 0.7888 0.22895 0.0
H627 H 0.9417 0.75661 0.22327 0.0
H628 H 0.90639 0.65948 0.25761 0.0
H629 H 0.84581 0.69091 0.26326 0.0
C630 C 0.76797 0.86665 0.31132 0.0
C631 C 0.76076 0.84437 0.32803 0.0
C632 C 0.77509 0.84904 0.29354 0.0
C633 C 0.77495 0.80867 0.29192 0.0
C634 C 0.76979 0.786 0.30873 0.0
C635 C 0.76265 0.80382 0.32676 0.0
C636 C 0.77988 0.79123 0.27237 0.0
C637 C 0.81218 0.77 0.26861 0.0
C638 C 0.75591 0.80104 0.25677 0.0
C639 C 0.72079 0.82257 0.26009 0.0
C640 C 0.69484 0.8094 0.27387 0.0
C641 C 0.66227 0.8303 0.2773 0.0
C642 C 0.65521 0.86433 0.26694 0.0
C643 C 0.68068 0.87748 0.25311 0.0
C644 C 0.71332 0.85672 0.24964 0.0
C645 C 0.83868 0.72245 0.18923 0.0
C646 C 0.84473 0.7542 0.17685 0.0
C647 C 0.82089 0.72742 0.20709 0.0
C648 C 0.80994 0.76448 0.21315 0.0
C649 C 0.8131 0.79566 0.20006 0.0
C650 C 0.83026 0.7905 0.18194 0.0
C651 C 0.79917 0.77156 0.23374 0.0
C652 C 0.7659 0.79108 0.23766 0.0
C653 C 0.82248 0.76061 0.24947 0.0
C654 C 0.85906 0.74198 0.24634 0.0
C655 C 0.88657 0.76048 0.23519 0.0
C656 C 0.92072 0.74239 0.23198 0.0
C657 C 0.92782 0.70597 0.24002 0.0
C658 C 0.90082 0.68764 0.25135 0.0
C659 C 0.86658 0.70558 0.25457 0.0
H660 H 0.95427 0.692 0.23752 0.0
H661 H 0.62999 0.88048 0.26963 0.0
H662 H 0.30056 0.81722 0.67898 0.0
H663 H 0.28505 0.79149 0.71119 0.0
H664 H 0.16871 0.8056 0.69847 0.0
H665 H 0.18416 0.83045 0.66615 0.0
H666 H 0.19892 0.85189 0.73005 0.0
H667 H 0.19693 0.71947 0.70707 0.0
H668 H 0.22362 0.66177 0.69125 0.0
H669 H 0.31203 0.66007 0.73316 0.0
H670 H 0.28613 0.71812 0.74907 0.0
H671 H 0.09704 0.78452 0.80845 0.0
H672 H 0.12761 0.79898 0.77773 0.0
H673 H 0.23275 0.76405 0.8022 0.0
H674 H 0.20157 0.74942 0.83343 0.0
H675 H 0.21888 0.72967 0.76648 0.0
H676 H 0.22004 0.85631 0.7916 0.0
H677 H 0.19662 0.91489 0.80797 0.0
H678 H 0.11635 0.93091 0.76255 0.0
H679 H 0.13838 0.87177 0.74617 0.0
C680 C 0.27165 0.81263 0.68266 0.0
C681 C 0.24352 0.82529 0.67 0.0
C682 C 0.26285 0.79828 0.70112 0.0
C683 C 0.22578 0.797 0.70724 0.0
C684 C 0.19751 0.80634 0.69396 0.0
C685 C 0.20633 0.82014 0.67539 0.0
C686 C 0.21693 0.79261 0.72818 0.0
C687 C 0.20279 0.82503 0.73798 0.0
C688 C 0.22425 0.75829 0.7387 0.0
C689 C 0.23982 0.72342 0.72912 0.0
C690 C 0.22227 0.70704 0.71279 0.0
C691 C 0.23721 0.67421 0.70383 0.0
C692 C 0.26957 0.65733 0.71115 0.0
C693 C 0.287 0.6732 0.72748 0.0
C694 C 0.27218 0.70605 0.73649 0.0
C695 C 0.12687 0.78097 0.80745 0.0
C696 C 0.14717 0.76651 0.82327 0.0
C697 C 0.14431 0.78913 0.78989 0.0
C698 C 0.18251 0.78284 0.78768 0.0
C699 C 0.20324 0.76925 0.80366 0.0
C700 C 0.18563 0.76135 0.82148 0.0
C701 C 0.19938 0.78857 0.76818 0.0
C702 C 0.21532 0.75667 0.75863 0.0
C703 C 0.1944 0.82368 0.7579 0.0
C704 C 0.18076 0.85933 0.76771 0.0
C705 C 0.19709 0.87205 0.78519 0.0
C706 C 0.18402 0.90537 0.79449 0.0
C707 C 0.15483 0.92649 0.78636 0.0
C708 C 0.13873 0.91437 0.76889 0.0
C709 C 0.15152 0.88094 0.75959 0.0
H710 H 0.14478 0.95233 0.79354 0.0
H711 H 0.28108 0.63191 0.7042 0.0
H712 H 0.95853 0.16339 0.16678 0.0
H713 H 0.95108 0.09507 0.17524 0.0
H714 H 0.06775 0.0876 0.18884 0.0
H715 H 0.07547 0.15558 0.18012 0.0
H716 H 0.0489 0.0367 0.16179 0.0
H717 H 0.00146 0.07296 0.224 0.0
H718 H 0.96158 0.10878 0.24691 0.0
H719 H 0.86465 0.05767 0.22124 0.0
H720 H 0.90387 0.02212 0.19788 0.0
H721 H 0.03723 0.83581 0.17167 0.0
H722 H 0.0465 0.90233 0.1828 0.0
H723 H 0.9316 0.928 0.17084 0.0
H724 H 0.92174 0.86144 0.16037 0.0
H725 H 0.95446 0.96867 0.20164 0.0
H726 H -0.00054 0.94359 0.1364 0.0
H727 H 0.03717 0.90944 0.11183 0.0
H728 H 0.13672 0.94181 0.1421 0.0
H729 H 0.0995 0.97575 0.16699 0.0
C730 C 0.98235 0.14749 0.17213 0.0
C731 C 0.0177 0.16463 0.17245 0.0
C732 C 0.97805 0.10843 0.17702 0.0
C733 C 0.00892 0.08613 0.18258 0.0
C734 C 0.04361 0.10415 0.18445 0.0
C735 C 0.04798 0.14299 0.17941 0.0
C736 C 0.00621 0.04331 0.18352 0.0
C737 C 0.02888 0.02181 0.17091 0.0
C738 C 0.97933 0.02394 0.19495 0.0
C739 C 0.95564 0.04503 0.20909 0.0
C740 C 0.97163 0.06955 0.22314 0.0
C741 C 0.94914 0.08977 0.23623 0.0
C742 C 0.91061 0.08548 0.23555 0.0
C743 C 0.89449 0.06094 0.22176 0.0
C744 C 0.91685 0.04073 0.2086 0.0
C745 C 0.01375 0.8554 0.17176 0.0
C746 C 0.97892 0.84346 0.16475 0.0
C747 C 0.0191 0.89343 0.17812 0.0
C748 C 0.98995 0.92038 0.17721 0.0
C749 C 0.95455 0.90778 0.17159 0.0
C750 C 0.94903 0.86967 0.16549 0.0
C751 C 0.99707 0.96237 0.17987 0.0
C752 C 0.97506 0.98365 0.19294 0.0
C753 C 0.02431 0.98183 0.16871 0.0
C754 C 0.04671 0.9618 0.15365 0.0
C755 C 0.02938 0.94321 0.13787 0.0
C756 C 0.05066 0.92392 0.12388 0.0
C757 C 0.08931 0.92335 0.12544 0.0
C758 C 0.10677 0.9422 0.14094 0.0
C759 C 0.08561 0.96148 0.15498 0.0
H760 H 0.10574 0.90839 0.1146 0.0
H761 H 0.89325 0.10117 0.24571 0.0
H762 H 0.11552 0.87033 0.65837 0.0
H763 H 0.05581 0.90039 0.66535 0.0
H764 H 0.10111 0.01231 0.65095 0.0
H765 H 0.16147 0.98229 0.64397 0.0
H766 H 0.04827 0.01347 0.68229 0.0
H767 H 0.06017 0.96443 0.61635 0.0
H768 H 0.07347 0.914 0.5919 0.0
H769 H 0.98736 0.84251 0.61586 0.0
H770 H 0.97391 0.89235 0.64064 0.0
H771 H 0.9021 0.12164 0.64435 0.0
H772 H 0.95737 0.08588 0.6529 0.0
H773 H 0.89352 0.98045 0.65637 0.0
H774 H 0.83741 0.01627 0.64699 0.0
H775 H 0.95265 0.96952 0.63517 0.0
H776 H 0.93353 0.02381 0.69783 0.0
H777 H 0.91978 0.07485 0.72186 0.0
H778 H 0.01796 0.13645 0.70475 0.0
H779 H 0.03206 0.08608 0.68041 0.0
C780 C 0.11305 0.90147 0.65702 0.0
C781 C 0.14297 0.92393 0.65025 0.0
C782 C 0.07891 0.91857 0.66107 0.0
C783 C 0.07391 0.95839 0.6583 0.0
C784 C 0.10448 0.98145 0.65311 0.0
C785 C 0.13889 0.96431 0.64912 0.0
C786 C 0.03602 0.97494 0.65855 0.0
C787 C 0.02732 0.00412 0.67197 0.0
C788 C 0.00845 0.96172 0.64545 0.0
C789 C 0.01633 0.9319 0.63047 0.0
C790 C 0.04427 0.93782 0.6165 0.0
C791 C 0.05181 0.90938 0.60256 0.0
C792 C 0.03135 0.87502 0.60236 0.0
C793 C 0.00323 0.8691 0.61606 0.0
C794 C 0.99563 0.89744 0.63004 0.0
C795 C 0.89942 0.09089 0.64709 0.0
C796 C 0.86519 0.07178 0.64476 0.0
C797 C 0.93121 0.0705 0.65224 0.0
C798 C 0.92965 0.03053 0.6556 0.0
C799 C 0.89533 0.01138 0.65396 0.0
C800 C 0.86329 0.03186 0.64863 0.0
C801 C 0.96468 0.00875 0.65875 0.0
C802 C 0.97309 0.97851 0.64586 0.0
C803 C 0.99183 0.02101 0.67238 0.0
C804 C 0.98376 0.05118 0.68721 0.0
C805 C 0.9521 0.04834 0.69911 0.0
C806 C 0.94425 0.07715 0.7128 0.0
C807 C 0.96795 0.1089 0.71481 0.0
C808 C -0.00037 0.11183 0.70318 0.0
C809 C 0.0076 0.08311 0.68946 0.0
H810 H 0.9618 0.1312 0.7254 0.0
H811 H 0.03722 0.85303 0.59157 0.0
H812 H 0.9163 0.13197 0.84153 0.0
H813 H 0.92139 0.06474 0.83138 0.0
H814 H 0.04049 0.07093 0.83594 0.0
H815 H 0.03593 0.13846 0.8466 0.0
H816 H 0.99638 0.02056 0.80136 0.0
H817 H 0.02019 0.04026 0.87194 0.0
H818 H 0.00408 0.07183 0.90305 0.0
H819 H 0.89306 0.02743 0.89891 0.0
H820 H 0.90846 0.99615 0.86759 0.0
H821 H 0.06226 0.83458 0.82989 0.0
H822 H 0.04757 0.90123 0.82119 0.0
H823 H 0.93459 0.88412 0.84006 0.0
H824 H 0.94901 0.81717 0.84881 0.0
H825 H 0.96947 0.94091 0.85985 0.0
H826 H 0.95161 0.90488 0.7947 0.0
H827 H 0.96271 0.87616 0.76243 0.0
H828 H 0.05545 0.95202 0.75369 0.0
H829 H 0.04634 0.97985 0.78638 0.0
C830 C 0.94379 0.11944 0.84009 0.0
C831 C 0.97577 0.14032 0.84539 0.0
C832 C 0.94649 0.08113 0.83405 0.0
C833 C 0.98122 0.06321 0.83298 0.0
C834 C 0.01347 0.08468 0.83659 0.0
C835 C 0.01082 0.12308 0.84285 0.0
C836 C 0.98295 0.02082 0.83184 0.0
C837 C 0.99115 0.0028 0.81409 0.0
C838 C 0.97436 -0.00168 0.84836 0.0
C839 C 0.96533 0.01629 0.86737 0.0
C840 C 0.99228 0.03752 0.87761 0.0
C841 C 0.98329 0.05531 0.89527 0.0
C842 C 0.94753 0.05175 0.90292 0.0
C843 C 0.92073 0.03024 0.89295 0.0
C844 C 0.92957 0.01246 0.87525 0.0
C845 C 0.03404 0.84467 0.83176 0.0
C846 C 0.00692 0.82087 0.84036 0.0
C847 C 0.02563 0.88268 0.82661 0.0
C848 C 0.99005 0.89752 0.83004 0.0
C849 C 0.96221 0.87304 0.8373 0.0
C850 C 0.97051 0.83485 0.8423 0.0
C851 C 0.98401 0.93973 0.82935 0.0
C852 C 0.97479 0.95809 0.84692 0.0
C853 C 0.99159 0.9622 0.81256 0.0
C854 C 0.99853 0.94417 0.79322 0.0
C855 C 0.97496 0.91487 0.78614 0.0
C856 C 0.98092 0.89871 0.76775 0.0
C857 C 0.01003 0.91198 0.75611 0.0
C858 C 0.03328 0.94139 0.76286 0.0
C859 C 0.02779 0.9573 0.78136 0.0
H860 H 0.01441 0.89966 0.7418 0.0
H861 H 0.94061 0.06557 0.91659 0.0
H862 H 0.8939 0.87915 0.36591 0.0
H863 H 0.95002 0.91667 0.3615 0.0
H864 H 0.88519 0.02048 0.35404 0.0
H865 H 0.8278 0.98283 0.35872 0.0
H866 H 0.95053 0.00497 0.32594 0.0
H867 H 0.91937 0.01893 0.39324 0.0
H868 H 0.899 0.99676 0.42564 0.0
H869 H 0.99363 0.9216 0.42937 0.0
H870 H 0.01422 0.94281 0.39681 0.0
H871 H 0.10661 0.12816 0.34566 0.0
H872 H 0.04697 0.09596 0.34155 0.0
H873 H 0.0947 0.98902 0.36219 0.0
H874 H 0.15472 0.02132 0.36655 0.0
H875 H 0.03442 0.01145 0.38317 0.0
H876 H 0.0655 -0.00182 0.31547 0.0
H877 H 0.08488 0.02007 0.28285 0.0
H878 H 0.99035 0.09546 0.27981 0.0
H879 H 0.97063 0.0744 0.31251 0.0
C880 C 0.89118 0.9099 0.36319 0.0
C881 C 0.85619 0.92802 0.36278 0.0
C882 C 0.92344 0.93126 0.36067 0.0
C883 C 0.92162 0.97119 0.35754 0.0
C884 C 0.88692 0.98954 0.35643 0.0
C885 C 0.8543 0.96809 0.3592 0.0
C886 C 0.9566 0.9932 0.35654 0.0
C887 C 0.9687 0.00726 0.33848 0.0
C888 C 0.98036 0.99507 0.37287 0.0
C889 C 0.96813 0.98219 0.39248 0.0
C890 C 0.93563 -0.00263 0.40087 0.0
C891 C 0.92409 0.98504 0.41929 0.0
C892 C 0.94496 0.95771 0.42954 0.0
C893 C 0.97747 0.94273 0.4214 0.0
C894 C 0.9891 0.95492 0.40297 0.0
C895 C 0.10462 0.09757 0.34898 0.0
C896 C 0.13515 0.07732 0.35671 0.0
C897 C 0.07056 0.07917 0.34648 0.0
C898 C 0.06642 0.04017 0.35161 0.0
C899 C 0.09743 0.01921 0.35817 0.0
C900 C 0.13169 0.0376 0.36058 0.0
C901 C 0.02895 0.02282 0.35244 0.0
C902 C 0.01632 0.00957 0.37057 0.0
C903 C 0.00476 0.02206 0.33618 0.0
C904 C 0.01679 0.03498 0.31655 0.0
C905 C 0.04903 0.01971 0.30793 0.0
C906 C 0.06002 0.03189 0.28939 0.0
C907 C 0.03888 0.05917 0.27926 0.0
C908 C 0.00669 0.07431 0.28765 0.0
C909 C 0.99558 0.06223 0.30619 0.0
H910 H 0.0474 0.06854 0.26489 0.0
H911 H 0.93598 0.94821 0.4438 0.0
loop_
_geom_bond_atom_site_label_1
_geom_bond_atom_site_label_2
_geom_bond_distance
_geom_bond_site_symmetry_2
_ccdc_geom_bond_type
Co0 O1 2.216 . S
Co0 O2 2.091 . S
Co0 O4 2.004 . S
Co0 O10 2.021 . S
Co0 O12 2.137 . S
Co0 O13 2.244 . S
O1 Co0 2.216 . S
O1 C8 1.247 . S
O2 Co0 2.091 . S
O2 C8 1.261 . S
C3 O12 1.247 . S
C3 O13 1.272 . S
O4 Co0 2.004 . S
O4 C9 1.259 . S
Co5 O6 2.061 . S
Co5 O11 2.052 . S
Co5 O13 2.135 . S
O6 Co5 2.061 . S
O6 C9 1.235 . S
C7 O10 1.238 . S
C7 O11 1.241 . S
C8 O1 1.247 . S
C8 O2 1.261 . S
C9 O4 1.259 . S
C9 O6 1.235 . S
O10 Co0 2.021 . S
O10 C7 1.238 . S
O11 Co5 2.052 . S
O11 C7 1.241 . S
O12 Co0 2.137 . S
O12 C3 1.247 . S
O13 Co0 2.244 . S
O13 C3 1.272 . S
O13 Co5 2.135 . S
Co14 O15 2.216 . S
Co14 O16 2.091 . S
Co14 O18 2.004 . S
Co14 O24 2.021 . S
Co14 O26 2.137 . S
Co14 O27 2.244 . S
O15 Co14 2.216 . S
O15 C22 1.247 . S
O16 Co14 2.091 . S
O16 C22 1.261 . S
C17 O26 1.247 . S
C17 O27 1.272 . S
O18 Co14 2.004 . S
O18 C23 1.259 . S
Co19 O20 2.061 . S
Co19 O25 2.052 . S
Co19 O27 2.135 . S
O20 Co19 2.061 . S
O20 C23 1.235 . S
C21 O24 1.238 . S
C21 O25 1.241 . S
C22 O15 1.247 . S
C22 O16 1.261 . S
C23 O18 1.259 . S
C23 O20 1.235 . S
O24 Co14 2.021 . S
O24 C21 1.238 . S
O25 Co19 2.052 . S
O25 C21 1.241 . S
O26 Co14 2.137 . S
O26 C17 1.247 . S
O27 Co14 2.244 . S
O27 C17 1.272 . S
O27 Co19 2.135 . S
Co28 O29 2.216 . S
Co28 O30 2.091 . S
Co28 O32 2.004 . S
Co28 O38 2.021 . S
Co28 O40 2.137 . S
Co28 O41 2.244 . S
O29 Co28 2.216 . S
O29 C36 1.247 . S
O30 Co28 2.091 . S
O30 C36 1.261 . S
C31 O40 1.247 . S
C31 O41 1.272 . S
O32 Co28 2.004 . S
O32 C37 1.259 . S
Co33 O34 2.061 . S
Co33 O39 2.052 . S
Co33 O41 2.135 . S
O34 Co33 2.061 . S
O34 C37 1.235 . S
C35 O38 1.238 . S
C35 O39 1.241 . S
C36 O29 1.247 . S
C36 O30 1.261 . S
C37 O32 1.259 . S
C37 O34 1.235 . S
O38 Co28 2.021 . S
O38 C35 1.238 . S
O39 Co33 2.052 . S
O39 C35 1.241 . S
O40 Co28 2.137 . S
O40 C31 1.247 . S
O41 Co28 2.244 . S
O41 C31 1.272 . S
O41 Co33 2.135 . S
Co42 O43 2.216 . S
Co42 O44 2.091 . S
Co42 O46 2.004 . S
Co42 O52 2.021 . S
Co42 O54 2.137 . S
Co42 O55 2.244 . S
O43 Co42 2.216 . S
O43 C50 1.247 . S
O44 Co42 2.091 . S
O44 C50 1.261 . S
C45 O54 1.247 . S
C45 O55 1.272 . S
O46 Co42 2.004 . S
O46 C51 1.259 . S
Co47 O48 2.061 . S
Co47 O53 2.052 . S
Co47 O55 2.135 . S
O48 Co47 2.061 . S
O48 C51 1.235 . S
C49 O52 1.238 . S
C49 O53 1.241 . S
C50 O43 1.247 . S
C50 O44 1.261 . S
C51 O46 1.259 . S
C51 O48 1.235 . S
O52 Co42 2.021 . S
O52 C49 1.238 . S
O53 Co47 2.052 . S
O53 C49 1.241 . S
O54 Co42 2.137 . S
O54 C45 1.247 . S
O55 Co42 2.244 . S
O55 C45 1.272 . S
O55 Co47 2.135 . S
Co56 O57 2.216 . S
Co56 O58 2.091 . S
Co56 O60 2.004 . S
Co56 O66 2.021 . S
Co56 O68 2.137 . S
Co56 O69 2.244 . S
O57 Co56 2.216 . S
O57 C64 1.247 . S
O58 Co56 2.091 . S
O58 C64 1.261 . S
C59 O68 1.247 . S
C59 O69 1.272 . S
O60 Co56 2.004 . S
O60 C65 1.259 . S
Co61 O62 2.061 . S
Co61 O67 2.052 . S
Co61 O69 2.135 . S
O62 Co61 2.061 . S
O62 C65 1.235 . S
C63 O66 1.238 . S
C63 O67 1.241 . S
C64 O57 1.247 . S
C64 O58 1.261 . S
C65 O60 1.259 . S
C65 O62 1.235 . S
O66 Co56 2.021 . S
O66 C63 1.238 . S
O67 Co61 2.052 . S
O67 C63 1.241 . S
O68 Co56 2.137 . S
O68 C59 1.247 . S
O69 Co56 2.244 . S
O69 C59 1.272 . S
O69 Co61 2.135 . S
Co70 O71 2.216 . S
Co70 O72 2.091 . S
Co70 O74 2.004 . S
Co70 O80 2.021 . S
Co70 O82 2.137 . S
Co70 O83 2.244 . S
O71 Co70 2.216 . S
O71 C78 1.247 . S
O72 Co70 2.091 . S
O72 C78 1.261 . S
C73 O82 1.247 . S
C73 O83 1.272 . S
O74 Co70 2.004 . S
O74 C79 1.259 . S
Co75 O76 2.061 . S
Co75 O81 2.052 . S
Co75 O83 2.135 . S
O76 Co75 2.061 . S
O76 C79 1.235 . S
C77 O80 1.238 . S
C77 O81 1.241 . S
C78 O71 1.247 . S
C78 O72 1.261 . S
C79 O74 1.259 . S
C79 O76 1.235 . S
O80 Co70 2.021 . S
O80 C77 1.238 . S
O81 Co75 2.052 . S
O81 C77 1.241 . S
O82 Co70 2.137 . S
O82 C73 1.247 . S
O83 Co70 2.244 . S
O83 C73 1.272 . S
O83 Co75 2.135 . S
Co84 O85 2.216 . S
Co84 O86 2.091 . S
Co84 O88 2.004 . S
Co84 O94 2.021 . S
Co84 O96 2.137 . S
Co84 O97 2.244 . S
O85 Co84 2.216 . S
O85 C92 1.247 . S
O86 Co84 2.091 . S
O86 C92 1.261 . S
C87 O96 1.247 . S
C87 O97 1.272 . S
O88 Co84 2.004 . S
O88 C93 1.259 . S
Co89 O90 2.061 . S
Co89 O95 2.052 . S
Co89 O97 2.135 . S
O90 Co89 2.061 . S
O90 C93 1.235 . S
C91 O94 1.238 . S
C91 O95 1.241 . S
C92 O85 1.247 . S
C92 O86 1.261 . S
C93 O88 1.259 . S
C93 O90 1.235 . S
O94 Co84 2.021 . S
O94 C91 1.238 . S
O95 Co89 2.052 . S
O95 C91 1.241 . S
O96 Co84 2.137 . S
O96 C87 1.247 . S
O97 Co84 2.244 . S
O97 C87 1.272 . S
O97 Co89 2.135 . S
Co98 O99 2.216 . S
Co98 O100 2.091 . S
Co98 O102 2.004 . S
Co98 O108 2.021 . S
Co98 O110 2.137 . S
Co98 O111 2.244 . S
O99 Co98 2.216 . S
O99 C106 1.247 . S
O100 Co98 2.091 . S
O100 C106 1.261 . S
C101 O110 1.247 . S
C101 O111 1.272 . S
O102 Co98 2.004 . S
O102 C107 1.259 . S
Co103 O104 2.061 . S
Co103 O109 2.052 . S
Co103 O111 2.135 . S
O104 Co103 2.061 . S
O104 C107 1.235 . S
C105 O108 1.238 . S
C105 O109 1.241 . S
C106 O99 1.247 . S
C106 O100 1.261 . S
C107 O102 1.259 . S
C107 O104 1.235 . S
O108 Co98 2.021 . S
O108 C105 1.238 . S
O109 Co103 2.052 . S
O109 C105 1.241 . S
O110 Co98 2.137 . S
O110 C101 1.247 . S
O111 Co98 2.244 . S
O111 C101 1.272 . S
O111 Co103 2.135 . S
H112 C130 0.951 . S
H113 C132 0.951 . S
H114 C134 0.950 . S
H115 C135 0.950 . S
H116 C137 0.950 . S
H117 C140 0.950 . S
H118 C141 0.950 . S
H119 C143 0.950 . S
H120 C144 0.950 . S
H121 C145 0.951 . S
H122 C147 0.951 . S
H123 C149 0.950 . S
H124 C150 0.950 . S
H125 C152 0.950 . S
H126 C155 0.950 . S
H127 C156 0.950 . S
H128 C158 0.950 . S
H129 C159 0.950 . S
C130 H112 0.951 . S
C130 C131 1.366 . S
C130 C132 1.388 . S
C131 C130 1.366 . S
C131 C135 1.385 . S
C132 H113 0.951 . S
C132 C130 1.388 . S
C132 C133 1.366 . S
C133 C132 1.366 . S
C133 C134 1.414 . S
C133 C136 1.499 . S
C134 H114 0.950 . S
C134 C133 1.414 . S
C134 C135 1.374 . S
C135 H115 0.950 . S
C135 C131 1.385 . S
C135 C134 1.374 . S
C136 C133 1.499 . S
C136 C137 1.373 . S
C136 C138 1.389 1_455 S
C137 H116 0.950 . S
C137 C136 1.373 . S
C137 C153 1.377 . S
C138 C136 1.389 1_655 S
C138 C139 1.524 . S
C138 C152 1.377 . S
C139 C138 1.524 . S
C139 C140 1.397 . S
C139 C144 1.363 . S
C140 H117 0.950 . S
C140 C139 1.397 . S
C140 C141 1.334 . S
C141 H118 0.950 . S
C141 C140 1.334 . S
C141 C142 1.287 . S
C142 C141 1.287 . S
C142 C143 1.524 . S
C142 H161 0.913 . S
C143 H119 0.950 . S
C143 C142 1.524 . S
C143 C144 1.415 . S
C144 H120 0.950 . S
C144 C139 1.363 . S
C144 C143 1.415 . S
C145 H121 0.951 . S
C145 C146 1.366 . S
C145 C147 1.388 . S
C146 C145 1.366 . S
C146 C150 1.385 . S
C147 H122 0.951 . S
C147 C145 1.388 . S
C147 C148 1.366 . S
C148 C147 1.366 . S
C148 C149 1.414 . S
C148 C151 1.499 . S
C149 H123 0.950 . S
C149 C148 1.414 . S
C149 C150 1.374 . S
C150 H124 0.950 . S
C150 C146 1.385 . S
C150 C149 1.374 . S
C151 C148 1.499 . S
C151 C152 1.373 . S
C151 C153 1.389 1_655 S
C152 H125 0.950 . S
C152 C138 1.377 . S
C152 C151 1.373 . S
C153 C137 1.377 . S
C153 C151 1.389 1_455 S
C153 C154 1.524 . S
C154 C153 1.524 . S
C154 C155 1.397 . S
C154 C159 1.363 . S
C155 H126 0.950 . S
C155 C154 1.397 . S
C155 C156 1.334 . S
C156 H127 0.950 . S
C156 C155 1.334 . S
C156 C157 1.287 . S
C157 C156 1.287 . S
C157 C158 1.524 . S
C157 H160 0.999 . S
C158 H128 0.950 . S
C158 C157 1.524 . S
C158 C159 1.415 . S
C159 H129 0.950 . S
C159 C154 1.363 . S
C159 C158 1.415 . S
H160 C157 0.999 . S
H161 C142 0.913 . S
H162 C180 0.951 . S
H163 C182 0.951 . S
H164 C184 0.950 1_545 S
H165 C185 0.951 . S
H166 C187 0.951 . S
H167 C190 0.950 . S
H168 C191 0.950 . S
H169 C193 0.950 . S
H170 C194 0.950 . S
H171 C195 0.951 . S
H172 C197 0.951 . S
H173 C199 0.950 1_565 S
H174 C200 0.951 . S
H175 C202 0.951 . S
H176 C205 0.950 . S
H177 C206 0.950 . S
H178 C208 0.950 . S
H179 C209 0.950 . S
C180 H162 0.951 . S
C180 C181 1.366 . S
C180 C182 1.388 . S
C181 C180 1.366 . S
C181 C185 1.385 . S
C182 H163 0.951 . S
C182 C180 1.388 . S
C182 C183 1.366 . S
C183 C182 1.366 . S
C183 C184 1.414 . S
C183 C186 1.499 . S
C184 H164 0.950 1_565 S
C184 C183 1.414 . S
C184 C185 1.374 . S
C185 H165 0.951 . S
C185 C181 1.385 . S
C185 C184 1.374 . S
C186 C183 1.499 . S
C186 C187 1.380 . S
C186 C188 1.389 . S
C187 H166 0.951 . S
C187 C186 1.380 . S
C187 C203 1.370 1_565 S
C188 C186 1.389 . S
C188 C189 1.524 . S
C188 C202 1.370 1_565 S
C189 C188 1.524 . S
C189 C190 1.397 1_565 S
C189 C194 1.363 . S
C190 H167 0.950 . S
C190 C189 1.397 1_545 S
C190 C191 1.334 . S
C191 H168 0.950 . S
C191 C190 1.334 . S
C191 C192 1.287 1_545 S
C192 C191 1.287 1_565 S
C192 C193 1.524 . S
C192 H211 0.913 . S
C193 H169 0.950 . S
C193 C192 1.524 . S
C193 C194 1.415 . S
C194 H170 0.950 . S
C194 C189 1.363 . S
C194 C193 1.415 . S
C195 H171 0.951 . S
C195 C196 1.366 . S
C195 C197 1.388 . S
C196 C195 1.366 . S
C196 C200 1.385 . S
C197 H172 0.951 . S
C197 C195 1.388 . S
C197 C198 1.366 . S
C198 C197 1.366 . S
C198 C199 1.414 . S
C198 C201 1.499 . S
C199 H173 0.950 1_545 S
C199 C198 1.414 . S
C199 C200 1.374 . S
C200 H174 0.951 . S
C200 C196 1.385 . S
C200 C199 1.374 . S
C201 C198 1.499 . S
C201 C202 1.380 . S
C201 C203 1.389 . S
C202 H175 0.951 . S
C202 C188 1.370 1_545 S
C202 C201 1.380 . S
C203 C187 1.370 1_545 S
C203 C201 1.389 . S
C203 C204 1.524 . S
C204 C203 1.524 . S
C204 C205 1.397 1_545 S
C204 C209 1.363 . S
C205 H176 0.950 . S
C205 C204 1.397 1_565 S
C205 C206 1.334 . S
C206 H177 0.950 . S
C206 C205 1.334 . S
C206 C207 1.287 1_565 S
C207 C206 1.287 1_545 S
C207 C208 1.524 . S
C207 H210 0.999 . S
C208 H178 0.950 . S
C208 C207 1.524 . S
C208 C209 1.415 . S
C209 H179 0.950 . S
C209 C204 1.363 . S
C209 C208 1.415 . S
H210 C207 0.999 . S
H211 C192 0.913 . S
H212 C230 0.951 . S
H213 C232 0.951 1_455 S
H214 C234 0.950 . S
H215 C235 0.950 . S
H216 C237 0.950 . S
H217 C240 0.950 . S
H218 C241 0.950 . S
H219 C243 0.950 . S
H220 C244 0.950 1_455 S
H221 C245 0.951 . S
H222 C247 0.951 1_655 S
H223 C249 0.950 . S
H224 C250 0.950 . S
H225 C252 0.950 . S
H226 C255 0.950 . S
H227 C256 0.950 . S
H228 C258 0.950 . S
H229 C259 0.950 1_655 S
C230 H212 0.951 . S
C230 C231 1.366 . S
C230 C232 1.388 . S
C231 C230 1.366 . S
C231 C235 1.385 . S
C232 H213 0.951 1_655 S
C232 C230 1.388 . S
C232 C233 1.366 . S
C233 C232 1.366 . S
C233 C234 1.414 . S
C233 C236 1.499 . S
C234 H214 0.950 . S
C234 C233 1.414 . S
C234 C235 1.374 . S
C235 H215 0.950 . S
C235 C231 1.385 . S
C235 C234 1.374 . S
C236 C233 1.499 . S
C236 C237 1.373 . S
C236 C238 1.389 . S
C237 H216 0.950 . S
C237 C236 1.373 . S
C237 C253 1.377 1_655 S
C238 C236 1.389 . S
C238 C239 1.524 . S
C238 C252 1.377 1_655 S
C239 C238 1.524 . S
C239 C240 1.397 . S
C239 C244 1.363 . S
C240 H217 0.950 . S
C240 C239 1.397 . S
C240 C241 1.334 . S
C241 H218 0.950 . S
C241 C240 1.334 . S
C241 C242 1.287 . S
C242 C241 1.287 . S
C242 C243 1.524 . S
C242 H261 0.913 . S
C243 H219 0.950 . S
C243 C242 1.524 . S
C243 C244 1.415 . S
C244 H220 0.950 1_655 S
C244 C239 1.363 . S
C244 C243 1.415 . S
C245 H221 0.951 . S
C245 C246 1.366 . S
C245 C247 1.388 . S
C246 C245 1.366 . S
C246 C250 1.385 . S
C247 H222 0.951 1_455 S
C247 C245 1.388 . S
C247 C248 1.366 . S
C248 C247 1.366 . S
C248 C249 1.414 . S
C248 C251 1.499 . S
C249 H223 0.950 . S
C249 C248 1.414 . S
C249 C250 1.374 . S
C250 H224 0.950 . S
C250 C246 1.385 . S
C250 C249 1.374 . S
C251 C248 1.499 . S
C251 C252 1.373 . S
C251 C253 1.389 . S
C252 H225 0.950 . S
C252 C238 1.377 1_455 S
C252 C251 1.373 . S
C253 C237 1.377 1_455 S
C253 C251 1.389 . S
C253 C254 1.524 . S
C254 C253 1.524 . S
C254 C255 1.397 . S
C254 C259 1.363 . S
C255 H226 0.950 . S
C255 C254 1.397 . S
C255 C256 1.334 . S
C256 H227 0.950 . S
C256 C255 1.334 . S
C256 C257 1.287 . S
C257 C256 1.287 . S
C257 C258 1.524 . S
C257 H260 0.999 . S
C258 H228 0.950 . S
C258 C257 1.524 . S
C258 C259 1.415 . S
C259 H229 0.950 1_455 S
C259 C254 1.363 . S
C259 C258 1.415 . S
H260 C257 0.999 . S
H261 C242 0.913 . S
H262 C280 0.951 . S
H263 C282 0.951 . S
H264 C284 0.950 . S
H265 C285 0.950 1_565 S
H266 C287 0.950 . S
H267 C290 0.950 . S
H268 C291 0.950 . S
H269 C293 0.950 . S
H270 C294 0.950 . S
H271 C295 0.951 . S
H272 C297 0.951 . S
H273 C299 0.950 . S
H274 C300 0.950 1_545 S
H275 C302 0.950 . S
H276 C305 0.950 . S
H277 C306 0.950 . S
H278 C308 0.950 . S
H279 C309 0.950 . S
C280 H262 0.951 . S
C280 C281 1.366 . S
C280 C282 1.388 . S
C281 C280 1.366 . S
C281 C285 1.385 . S
C282 H263 0.951 . S
C282 C280 1.388 . S
C282 C283 1.366 . S
C283 C282 1.366 . S
C283 C284 1.414 1_545 S
C283 C286 1.499 . S
C284 H264 0.950 . S
C284 C283 1.414 1_565 S
C284 C285 1.374 1_565 S
C285 H265 0.950 1_545 S
C285 C281 1.385 . S
C285 C284 1.374 1_545 S
C286 C283 1.499 . S
C286 C287 1.373 1_545 S
C286 C288 1.389 . S
C287 H266 0.950 . S
C287 C286 1.373 1_565 S
C287 C303 1.377 . S
C288 C286 1.389 . S
C288 C289 1.524 . S
C288 C302 1.377 . S
C289 C288 1.524 . S
C289 C290 1.397 . S
C289 C294 1.363 . S
C290 H267 0.950 . S
C290 C289 1.397 . S
C290 C291 1.334 . S
C291 H268 0.950 . S
C291 C290 1.334 . S
C291 C292 1.287 . S
C292 C291 1.287 . S
C292 C293 1.524 . S
C292 H311 0.913 . S
C293 H269 0.950 . S
C293 C292 1.524 . S
C293 C294 1.415 . S
C294 H270 0.950 . S
C294 C289 1.363 . S
C294 C293 1.415 . S
C295 H271 0.951 . S
C295 C296 1.366 . S
C295 C297 1.388 . S
C296 C295 1.366 . S
C296 C300 1.385 . S
C297 H272 0.951 . S
C297 C295 1.388 . S
C297 C298 1.366 . S
C298 C297 1.366 . S
C298 C299 1.414 1_565 S
C298 C301 1.499 . S
C299 H273 0.950 . S
C299 C298 1.414 1_545 S
C299 C300 1.374 1_545 S
C300 H274 0.950 1_565 S
C300 C296 1.385 . S
C300 C299 1.374 1_565 S
C301 C298 1.499 . S
C301 C302 1.373 1_565 S
C301 C303 1.389 . S
C302 H275 0.950 . S
C302 C288 1.377 . S
C302 C301 1.373 1_545 S
C303 C287 1.377 . S
C303 C301 1.389 . S
C303 C304 1.524 . S
C304 C303 1.524 . S
C304 C305 1.397 . S
C304 C309 1.363 . S
C305 H276 0.950 . S
C305 C304 1.397 . S
C305 C306 1.334 . S
C306 H277 0.950 . S
C306 C305 1.334 . S
C306 C307 1.287 . S
C307 C306 1.287 . S
C307 C308 1.524 . S
C307 H310 0.999 . S
C308 H278 0.950 . S
C308 C307 1.524 . S
C308 C309 1.415 . S
C309 H279 0.950 . S
C309 C304 1.363 . S
C309 C308 1.415 . S
H310 C307 0.999 . S
H311 C292 0.913 . S
H312 C330 0.951 . S
H313 C332 0.951 . S
H314 C334 0.950 . S
H315 C335 0.950 . S
H316 C337 0.950 . S
H317 C340 0.950 . S
H318 C341 0.950 . S
H319 C343 0.950 . S
H320 C344 0.950 . S
H321 C345 0.951 . S
H322 C347 0.951 . S
H323 C349 0.950 . S
H324 C350 0.950 . S
H325 C352 0.950 . S
H326 C355 0.950 . S
H327 C356 0.950 . S
H328 C358 0.950 . S
H329 C359 0.950 . S
C330 H312 0.951 . S
C330 C331 1.366 . S
C330 C332 1.388 . S
C331 C330 1.366 . S
C331 C335 1.385 . S
C332 H313 0.951 . S
C332 C330 1.388 . S
C332 C333 1.366 . S
C333 C332 1.366 . S
C333 C334 1.414 . S
C333 C336 1.499 . S
C334 H314 0.950 . S
C334 C333 1.414 . S
C334 C335 1.374 . S
C335 H315 0.950 . S
C335 C331 1.385 . S
C335 C334 1.374 . S
C336 C333 1.499 . S
C336 C337 1.373 1_655 S
C336 C338 1.360 1_556 S
C337 H316 0.950 . S
C337 C336 1.373 1_455 S
C337 C353 1.405 . S
C338 C336 1.360 1_554 S
C338 C339 1.527 . S
C338 C352 1.405 . S
C339 C338 1.527 . S
C339 C340 1.397 1_554 S
C339 C344 1.363 . S
C340 H317 0.950 . S
C340 C339 1.397 1_556 S
C340 C341 1.334 . S
C341 H318 0.950 . S
C341 C340 1.334 . S
C341 C342 1.287 1_556 S
C342 C341 1.287 1_554 S
C342 C343 1.524 . S
C342 H361 0.913 . S
C343 H319 0.950 . S
C343 C342 1.524 . S
C343 C344 1.415 . S
C344 H320 0.950 . S
C344 C339 1.363 . S
C344 C343 1.415 . S
C345 H321 0.951 . S
C345 C346 1.366 . S
C345 C347 1.388 . S
C346 C345 1.366 . S
C346 C350 1.385 . S
C347 H322 0.951 . S
C347 C345 1.388 . S
C347 C348 1.366 . S
C348 C347 1.366 . S
C348 C349 1.414 . S
C348 C351 1.499 . S
C349 H323 0.950 . S
C349 C348 1.414 . S
C349 C350 1.374 . S
C350 H324 0.950 . S
C350 C346 1.385 . S
C350 C349 1.374 . S
C351 C348 1.499 . S
C351 C352 1.373 1_455 S
C351 C353 1.360 1_554 S
C352 H325 0.950 . S
C352 C338 1.405 . S
C352 C351 1.373 1_655 S
C353 C337 1.405 . S
C353 C351 1.360 1_556 S
C353 C354 1.527 . S
C354 C353 1.527 . S
C354 C355 1.397 1_556 S
C354 C359 1.363 . S
C355 H326 0.950 . S
C355 C354 1.397 1_554 S
C355 C356 1.334 . S
C356 H327 0.950 . S
C356 C355 1.334 . S
C356 C357 1.287 1_554 S
C357 C356 1.287 1_556 S
C357 C358 1.524 . S
C357 H360 0.999 . S
C358 H328 0.950 . S
C358 C357 1.524 . S
C358 C359 1.415 . S
C359 H329 0.950 . S
C359 C354 1.363 . S
C359 C358 1.415 . S
H360 C357 0.999 . S
H361 C342 0.913 . S
H362 C380 0.951 . S
H363 C382 0.951 . S
H364 C384 0.950 . S
H365 C385 0.950 . S
H366 C387 0.950 . S
H367 C390 0.950 . S
H368 C391 0.950 . S
H369 C393 0.950 . S
H370 C394 0.950 . S
H371 C395 0.951 . S
H372 C397 0.951 . S
H373 C399 0.950 . S
H374 C400 0.950 . S
H375 C402 0.950 . S
H376 C405 0.950 . S
H377 C406 0.950 . S
H378 C408 0.950 . S
H379 C409 0.950 . S
C380 H362 0.951 . S
C380 C381 1.366 . S
C380 C382 1.388 . S
C381 C380 1.366 . S
C381 C385 1.385 . S
C382 H363 0.951 . S
C382 C380 1.388 . S
C382 C383 1.366 . S
C383 C382 1.366 . S
C383 C384 1.414 . S
C383 C386 1.499 . S
C384 H364 0.950 . S
C384 C383 1.414 . S
C384 C385 1.374 . S
C385 H365 0.950 . S
C385 C381 1.385 . S
C385 C384 1.374 . S
C386 C383 1.499 . S
C386 C387 1.373 1_545 S
C386 C388 1.389 . S
C387 H366 0.950 . S
C387 C386 1.373 1_565 S
C387 C403 1.377 . S
C388 C386 1.389 . S
C388 C389 1.524 . S
C388 C402 1.377 . S
C389 C388 1.524 . S
C389 C390 1.397 . S
C389 C394 1.363 . S
C390 H367 0.950 . S
C390 C389 1.397 . S
C390 C391 1.334 . S
C391 H368 0.950 . S
C391 C390 1.334 . S
C391 C392 1.287 . S
C392 C391 1.287 . S
C392 C393 1.524 . S
C392 H411 0.913 . S
C393 H369 0.950 . S
C393 C392 1.524 . S
C393 C394 1.415 . S
C394 H370 0.950 . S
C394 C389 1.363 . S
C394 C393 1.415 . S
C395 H371 0.951 . S
C395 C396 1.366 . S
C395 C397 1.388 . S
C396 C395 1.366 . S
C396 C400 1.385 . S
C397 H372 0.951 . S
C397 C395 1.388 . S
C397 C398 1.366 . S
C398 C397 1.366 . S
C398 C399 1.414 . S
C398 C401 1.499 . S
C399 H373 0.950 . S
C399 C398 1.414 . S
C399 C400 1.374 . S
C400 H374 0.950 . S
C400 C396 1.385 . S
C400 C399 1.374 . S
C401 C398 1.499 . S
C401 C402 1.373 1_565 S
C401 C403 1.389 . S
C402 H375 0.950 . S
C402 C388 1.377 . S
C402 C401 1.373 1_545 S
C403 C387 1.377 . S
C403 C401 1.389 . S
C403 C404 1.524 . S
C404 C403 1.524 . S
C404 C405 1.397 . S
C404 C409 1.363 . S
C405 H376 0.950 . S
C405 C404 1.397 . S
C405 C406 1.334 . S
C406 H377 0.950 . S
C406 C405 1.334 . S
C406 C407 1.287 . S
C407 C406 1.287 . S
C407 C408 1.524 . S
C407 H410 0.999 . S
C408 H378 0.950 . S
C408 C407 1.524 . S
C408 C409 1.415 . S
C409 H379 0.950 . S
C409 C404 1.363 . S
C409 C408 1.415 . S
H410 C407 0.999 . S
H411 C392 0.913 . S
H412 C430 0.951 . S
H413 C432 0.951 . S
H414 C434 0.950 . S
H415 C435 0.950 . S
H416 C437 0.950 . S
H417 C440 0.950 . S
H418 C441 0.950 . S
H419 C443 0.950 . S
H420 C444 0.950 . S
H421 C445 0.951 . S
H422 C447 0.951 . S
H423 C449 0.950 . S
H424 C450 0.950 . S
H425 C452 0.950 . S
H426 C455 0.950 . S
H427 C456 0.950 . S
H428 C458 0.950 . S
H429 C459 0.950 . S
C430 H412 0.951 . S
C430 C431 1.366 . S
C430 C432 1.388 . S
C431 C430 1.366 . S
C431 C435 1.385 . S
C432 H413 0.951 . S
C432 C430 1.388 . S
C432 C433 1.366 . S
C433 C432 1.366 . S
C433 C434 1.414 . S
C433 C436 1.499 . S
C434 H414 0.950 . S
C434 C433 1.414 . S
C434 C435 1.374 . S
C435 H415 0.950 . S
C435 C431 1.385 . S
C435 C434 1.374 . S
C436 C433 1.499 . S
C436 C437 1.359 1_554 S
C436 C438 1.389 1_655 S
C437 H416 0.950 . S
C437 C436 1.359 1_556 S
C437 C453 1.391 . S
C438 C436 1.389 1_455 S
C438 C439 1.524 . S
C438 C452 1.391 . S
C439 C438 1.524 . S
C439 C440 1.397 . S
C439 C444 1.363 . S
C440 H417 0.950 . S
C440 C439 1.397 . S
C440 C441 1.334 . S
C441 H418 0.950 . S
C441 C440 1.334 . S
C441 C442 1.287 . S
C442 C441 1.287 . S
C442 C443 1.524 . S
C442 H461 0.913 . S
C443 H419 0.950 . S
C443 C442 1.524 . S
C443 C444 1.415 . S
C444 H420 0.950 . S
C444 C439 1.363 . S
C444 C443 1.415 . S
C445 H421 0.951 . S
C445 C446 1.366 . S
C445 C447 1.388 . S
C446 C445 1.366 . S
C446 C450 1.385 . S
C447 H422 0.951 . S
C447 C445 1.388 . S
C447 C448 1.366 . S
C448 C447 1.366 . S
C448 C449 1.414 . S
C448 C451 1.499 . S
C449 H423 0.950 . S
C449 C448 1.414 . S
C449 C450 1.374 . S
C450 H424 0.950 . S
C450 C446 1.385 . S
C450 C449 1.374 . S
C451 C448 1.499 . S
C451 C452 1.359 1_556 S
C451 C453 1.389 1_455 S
C452 H425 0.950 . S
C452 C438 1.391 . S
C452 C451 1.359 1_554 S
C453 C437 1.391 . S
C453 C451 1.389 1_655 S
C453 C454 1.524 . S
C454 C453 1.524 . S
C454 C455 1.397 . S
C454 C459 1.363 . S
C455 H426 0.950 . S
C455 C454 1.397 . S
C455 C456 1.334 . S
C456 H427 0.950 . S
C456 C455 1.334 . S
C456 C457 1.287 . S
C457 C456 1.287 . S
C457 C458 1.524 . S
C457 H460 0.999 . S
C458 H428 0.950 . S
C458 C457 1.524 . S
C458 C459 1.415 . S
C459 H429 0.950 . S
C459 C454 1.363 . S
C459 C458 1.415 . S
H460 C457 0.999 . S
H461 C442 0.913 . S
H462 C480 0.951 . S
H463 C482 0.951 . S
H464 C484 0.948 . S
H465 C485 0.950 . S
H466 C487 0.950 . S
H467 C490 0.950 . S
H468 C491 0.950 . S
H469 C493 0.950 . S
H470 C494 0.950 . S
H471 C495 0.951 . S
H472 C497 0.951 . S
H473 C499 0.948 . S
H474 C500 0.950 . S
H475 C502 0.950 . S
H476 C505 0.950 . S
H477 C506 0.950 . S
H478 C508 0.950 . S
H479 C509 0.950 . S
C480 H462 0.951 . S
C480 C481 1.366 . S
C480 C482 1.388 . S
C481 C480 1.366 . S
C481 C485 1.385 . S
C482 H463 0.951 . S
C482 C480 1.388 . S
C482 C483 1.366 . S
C483 C482 1.366 . S
C483 C484 1.414 . S
C483 C486 1.499 . S
C484 H464 0.948 . S
C484 C483 1.414 . S
C484 C485 1.374 . S
C485 H465 0.950 . S
C485 C481 1.385 . S
C485 C484 1.374 . S
C486 C483 1.499 . S
C486 C487 1.373 1_545 S
C486 C488 1.389 . S
C487 H466 0.950 . S
C487 C486 1.373 1_565 S
C487 C503 1.377 . S
C488 C486 1.389 . S
C488 C489 1.524 . S
C488 C502 1.377 . S
C489 C488 1.524 . S
C489 C490 1.397 . S
C489 C494 1.363 . S
C490 H467 0.950 . S
C490 C489 1.397 . S
C490 C491 1.334 . S
C491 H468 0.950 . S
C491 C490 1.334 . S
C491 C492 1.287 . S
C492 C491 1.287 . S
C492 C493 1.524 . S
C492 H511 0.913 . S
C493 H469 0.950 . S
C493 C492 1.524 . S
C493 C494 1.415 . S
C494 H470 0.950 . S
C494 C489 1.363 . S
C494 C493 1.415 . S
C495 H471 0.951 . S
C495 C496 1.366 . S
C495 C497 1.388 . S
C496 C495 1.366 . S
C496 C500 1.385 . S
C497 H472 0.951 . S
C497 C495 1.388 . S
C497 C498 1.366 . S
C498 C497 1.366 . S
C498 C499 1.414 . S
C498 C501 1.499 . S
C499 H473 0.948 . S
C499 C498 1.414 . S
C499 C500 1.374 . S
C500 H474 0.950 . S
C500 C496 1.385 . S
C500 C499 1.374 . S
C501 C498 1.499 . S
C501 C502 1.373 1_565 S
C501 C503 1.389 . S
C502 H475 0.950 . S
C502 C488 1.377 . S
C502 C501 1.373 1_545 S
C503 C487 1.377 . S
C503 C501 1.389 . S
C503 C504 1.524 . S
C504 C503 1.524 . S
C504 C505 1.397 . S
C504 C509 1.363 . S
C505 H476 0.950 . S
C505 C504 1.397 . S
C505 C506 1.334 . S
C506 H477 0.950 . S
C506 C505 1.334 . S
C506 C507 1.287 . S
C507 C506 1.287 . S
C507 C508 1.524 . S
C507 H510 0.999 . S
C508 H478 0.950 . S
C508 C507 1.524 . S
C508 C509 1.415 . S
C509 H479 0.950 . S
C509 C504 1.363 . S
C509 C508 1.415 . S
H510 C507 0.999 . S
H511 C492 0.913 . S
H512 C530 0.951 . S
H513 C532 0.951 . S
H514 C534 0.950 . S
H515 C535 0.950 . S
H516 C537 0.950 . S
H517 C540 0.950 . S
H518 C541 0.950 . S
H519 C543 0.950 . S
H520 C544 0.950 . S
H521 C545 0.951 . S
H522 C547 0.951 . S
H523 C549 0.950 . S
H524 C550 0.950 . S
H525 C552 0.950 . S
H526 C555 0.950 . S
H527 C556 0.950 . S
H528 C558 0.950 . S
H529 C559 0.950 . S
C530 H512 0.951 . S
C530 C531 1.366 . S
C530 C532 1.388 . S
C531 C530 1.366 . S
C531 C535 1.385 . S
C532 H513 0.951 . S
C532 C530 1.388 . S
C532 C533 1.366 . S
C533 C532 1.366 . S
C533 C534 1.414 . S
C533 C536 1.499 . S
C534 H514 0.950 . S
C534 C533 1.414 . S
C534 C535 1.374 . S
C535 H515 0.950 . S
C535 C531 1.385 . S
C535 C534 1.374 . S
C536 C533 1.499 . S
C536 C537 1.373 . S
C536 C538 1.389 . S
C537 H516 0.950 . S
C537 C536 1.373 . S
C537 C553 1.377 . S
C538 C536 1.389 . S
C538 C539 1.524 . S
C538 C552 1.377 . S
C539 C538 1.524 . S
C539 C540 1.397 . S
C539 C544 1.363 . S
C540 H517 0.950 . S
C540 C539 1.397 . S
C540 C541 1.334 . S
C541 H518 0.950 . S
C541 C540 1.334 . S
C541 C542 1.287 . S
C542 C541 1.287 . S
C542 C543 1.524 . S
C542 H561 0.913 . S
C543 H519 0.950 . S
C543 C542 1.524 . S
C543 C544 1.415 . S
C544 H520 0.950 . S
C544 C539 1.363 . S
C544 C543 1.415 . S
C545 H521 0.951 . S
C545 C546 1.366 . S
C545 C547 1.388 . S
C546 C545 1.366 . S
C546 C550 1.385 . S
C547 H522 0.951 . S
C547 C545 1.388 . S
C547 C548 1.366 . S
C548 C547 1.366 . S
C548 C549 1.414 . S
C548 C551 1.499 . S
C549 H523 0.950 . S
C549 C548 1.414 . S
C549 C550 1.374 . S
C550 H524 0.950 . S
C550 C546 1.385 . S
C550 C549 1.374 . S
C551 C548 1.499 . S
C551 C552 1.373 . S
C551 C553 1.389 . S
C552 H525 0.950 . S
C552 C538 1.377 . S
C552 C551 1.373 . S
C553 C537 1.377 . S
C553 C551 1.389 . S
C553 C554 1.524 . S
C554 C553 1.524 . S
C554 C555 1.397 . S
C554 C559 1.363 . S
C555 H526 0.950 . S
C555 C554 1.397 . S
C555 C556 1.334 . S
C556 H527 0.950 . S
C556 C555 1.334 . S
C556 C557 1.287 . S
C557 C556 1.287 . S
C557 C558 1.524 . S
C557 H560 0.999 . S
C558 H528 0.950 . S
C558 C557 1.524 . S
C558 C559 1.415 . S
C559 H529 0.950 . S
C559 C554 1.363 . S
C559 C558 1.415 . S
H560 C557 0.999 . S
H561 C542 0.913 . S
H562 C580 0.951 . S
H563 C582 0.951 . S
H564 C584 0.950 . S
H565 C585 0.950 . S
H566 C587 0.950 . S
H567 C590 0.950 . S
H568 C591 0.950 . S
H569 C593 0.950 . S
H570 C594 0.950 . S
H571 C595 0.951 . S
H572 C597 0.951 . S
H573 C599 0.950 . S
H574 C600 0.950 . S
H575 C602 0.950 . S
H576 C605 0.950 . S
H577 C606 0.950 . S
H578 C608 0.950 . S
H579 C609 0.950 . S
C580 H562 0.951 . S
C580 C581 1.366 . S
C580 C582 1.388 . S
C581 C580 1.366 . S
C581 C585 1.385 . S
C582 H563 0.951 . S
C582 C580 1.388 . S
C582 C583 1.366 . S
C583 C582 1.366 . S
C583 C584 1.414 . S
C583 C586 1.499 . S
C584 H564 0.950 . S
C584 C583 1.414 . S
C584 C585 1.374 . S
C585 H565 0.950 . S
C585 C581 1.385 . S
C585 C584 1.374 . S
C586 C583 1.499 . S
C586 C587 1.373 . S
C586 C588 1.389 . S
C587 H566 0.950 . S
C587 C586 1.373 . S
C587 C603 1.377 . S
C588 C586 1.389 . S
C588 C589 1.524 . S
C588 C602 1.377 . S
C589 C588 1.524 . S
C589 C590 1.397 . S
C589 C594 1.363 . S
C590 H567 0.950 . S
C590 C589 1.397 . S
C590 C591 1.334 . S
C591 H568 0.950 . S
C591 C590 1.334 . S
C591 C592 1.287 . S
C592 C591 1.287 . S
C592 C593 1.524 . S
C592 H611 0.913 . S
C593 H569 0.950 . S
C593 C592 1.524 . S
C593 C594 1.415 . S
C594 H570 0.950 . S
C594 C589 1.363 . S
C594 C593 1.415 . S
C595 H571 0.951 . S
C595 C596 1.366 . S
C595 C597 1.388 . S
C596 C595 1.366 . S
C596 C600 1.385 . S
C597 H572 0.951 . S
C597 C595 1.388 . S
C597 C598 1.366 . S
C598 C597 1.366 . S
C598 C599 1.414 . S
C598 C601 1.499 . S
C599 H573 0.950 . S
C599 C598 1.414 . S
C599 C600 1.374 . S
C600 H574 0.950 . S
C600 C596 1.385 . S
C600 C599 1.374 . S
C601 C598 1.499 . S
C601 C602 1.373 . S
C601 C603 1.389 . S
C602 H575 0.950 . S
C602 C588 1.377 . S
C602 C601 1.373 . S
C603 C587 1.377 . S
C603 C601 1.389 . S
C603 C604 1.524 . S
C604 C603 1.524 . S
C604 C605 1.397 . S
C604 C609 1.363 . S
C605 H576 0.950 . S
C605 C604 1.397 . S
C605 C606 1.334 . S
C606 H577 0.950 . S
C606 C605 1.334 . S
C606 C607 1.287 . S
C607 C606 1.287 . S
C607 C608 1.524 . S
C607 H610 0.999 . S
C608 H578 0.950 . S
C608 C607 1.524 . S
C608 C609 1.415 . S
C609 H579 0.950 . S
C609 C604 1.363 . S
C609 C608 1.415 . S
H610 C607 0.999 . S
H611 C592 0.913 . S
H612 C630 0.951 . S
H613 C632 0.951 . S
H614 C634 0.950 . S
H615 C635 0.950 . S
H616 C637 0.950 . S
H617 C640 0.950 . S
H618 C641 0.950 . S
H619 C643 0.950 . S
H620 C644 0.950 . S
H621 C645 0.951 . S
H622 C647 0.951 . S
H623 C649 0.950 . S
H624 C650 0.950 . S
H625 C652 0.950 . S
H626 C655 0.950 . S
H627 C656 0.950 . S
H628 C658 0.950 . S
H629 C659 0.950 . S
C630 H612 0.951 . S
C630 C631 1.366 . S
C630 C632 1.388 . S
C631 C630 1.366 . S
C631 C635 1.385 . S
C632 H613 0.951 . S
C632 C630 1.388 . S
C632 C633 1.366 . S
C633 C632 1.366 . S
C633 C634 1.414 . S
C633 C636 1.499 . S
C634 H614 0.950 . S
C634 C633 1.414 . S
C634 C635 1.374 . S
C635 H615 0.950 . S
C635 C631 1.385 . S
C635 C634 1.374 . S
C636 C633 1.499 . S
C636 C637 1.373 . S
C636 C638 1.389 . S
C637 H616 0.950 . S
C637 C636 1.373 . S
C637 C653 1.377 . S
C638 C636 1.389 . S
C638 C639 1.524 . S
C638 C652 1.377 . S
C639 C638 1.524 . S
C639 C640 1.397 . S
C639 C644 1.363 . S
C640 H617 0.950 . S
C640 C639 1.397 . S
C640 C641 1.334 . S
C641 H618 0.950 . S
C641 C640 1.334 . S
C641 C642 1.287 . S
C642 C641 1.287 . S
C642 C643 1.524 . S
C642 H661 0.913 . S
C643 H619 0.950 . S
C643 C642 1.524 . S
C643 C644 1.415 . S
C644 H620 0.950 . S
C644 C639 1.363 . S
C644 C643 1.415 . S
C645 H621 0.951 . S
C645 C646 1.366 . S
C645 C647 1.388 . S
C646 C645 1.366 . S
C646 C650 1.385 . S
C647 H622 0.951 . S
C647 C645 1.388 . S
C647 C648 1.366 . S
C648 C647 1.366 . S
C648 C649 1.414 . S
C648 C651 1.499 . S
C649 H623 0.950 . S
C649 C648 1.414 . S
C649 C650 1.374 . S
C650 H624 0.950 . S
C650 C646 1.385 . S
C650 C649 1.374 . S
C651 C648 1.499 . S
C651 C652 1.373 . S
C651 C653 1.389 . S
C652 H625 0.950 . S
C652 C638 1.377 . S
C652 C651 1.373 . S
C653 C637 1.377 . S
C653 C651 1.389 . S
C653 C654 1.524 . S
C654 C653 1.524 . S
C654 C655 1.397 . S
C654 C659 1.363 . S
C655 H626 0.950 . S
C655 C654 1.397 . S
C655 C656 1.334 . S
C656 H627 0.950 . S
C656 C655 1.334 . S
C656 C657 1.287 . S
C657 C656 1.287 . S
C657 C658 1.524 . S
C657 H660 0.999 . S
C658 H628 0.950 . S
C658 C657 1.524 . S
C658 C659 1.415 . S
C659 H629 0.950 . S
C659 C654 1.363 . S
C659 C658 1.415 . S
H660 C657 0.999 . S
H661 C642 0.913 . S
H662 C680 0.951 . S
H663 C682 0.951 . S
H664 C684 0.950 . S
H665 C685 0.950 . S
H666 C687 0.950 . S
H667 C690 0.950 . S
H668 C691 0.950 . S
H669 C693 0.950 . S
H670 C694 0.950 . S
H671 C695 0.951 . S
H672 C697 0.951 . S
H673 C699 0.950 . S
H674 C700 0.950 . S
H675 C702 0.950 . S
H676 C705 0.950 . S
H677 C706 0.950 . S
H678 C708 0.950 . S
H679 C709 0.950 . S
C680 H662 0.951 . S
C680 C681 1.366 . S
C680 C682 1.388 . S
C681 C680 1.366 . S
C681 C685 1.385 . S
C682 H663 0.951 . S
C682 C680 1.388 . S
C682 C683 1.366 . S
C683 C682 1.366 . S
C683 C684 1.414 . S
C683 C686 1.499 . S
C684 H664 0.950 . S
C684 C683 1.414 . S
C684 C685 1.374 . S
C685 H665 0.950 . S
C685 C681 1.385 . S
C685 C684 1.374 . S
C686 C683 1.499 . S
C686 C687 1.373 . S
C686 C688 1.389 . S
C687 H666 0.950 . S
C687 C686 1.373 . S
C687 C703 1.377 . S
C688 C686 1.389 . S
C688 C689 1.524 . S
C688 C702 1.377 . S
C689 C688 1.524 . S
C689 C690 1.397 . S
C689 C694 1.363 . S
C690 H667 0.950 . S
C690 C689 1.397 . S
C690 C691 1.334 . S
C691 H668 0.950 . S
C691 C690 1.334 . S
C691 C692 1.287 . S
C692 C691 1.287 . S
C692 C693 1.524 . S
C692 H711 0.913 . S
C693 H669 0.950 . S
C693 C692 1.524 . S
C693 C694 1.415 . S
C694 H670 0.950 . S
C694 C689 1.363 . S
C694 C693 1.415 . S
C695 H671 0.951 . S
C695 C696 1.366 . S
C695 C697 1.388 . S
C696 C695 1.366 . S
C696 C700 1.385 . S
C697 H672 0.951 . S
C697 C695 1.388 . S
C697 C698 1.366 . S
C698 C697 1.366 . S
C698 C699 1.414 . S
C698 C701 1.499 . S
C699 H673 0.950 . S
C699 C698 1.414 . S
C699 C700 1.374 . S
C700 H674 0.950 . S
C700 C696 1.385 . S
C700 C699 1.374 . S
C701 C698 1.499 . S
C701 C702 1.373 . S
C701 C703 1.389 . S
C702 H675 0.950 . S
C702 C688 1.377 . S
C702 C701 1.373 . S
C703 C687 1.377 . S
C703 C701 1.389 . S
C703 C704 1.524 . S
C704 C703 1.524 . S
C704 C705 1.397 . S
C704 C709 1.363 . S
C705 H676 0.950 . S
C705 C704 1.397 . S
C705 C706 1.334 . S
C706 H677 0.950 . S
C706 C705 1.334 . S
C706 C707 1.287 . S
C707 C706 1.287 . S
C707 C708 1.524 . S
C707 H710 0.999 . S
C708 H678 0.950 . S
C708 C707 1.524 . S
C708 C709 1.415 . S
C709 H679 0.950 . S
C709 C704 1.363 . S
C709 C708 1.415 . S
H710 C707 0.999 . S
H711 C692 0.913 . S
H712 C730 0.951 . S
H713 C732 0.951 1_655 S
H714 C734 0.950 . S
H715 C735 0.950 . S
H716 C737 0.950 . S
H717 C740 0.950 . S
H718 C741 0.950 . S
H719 C743 0.950 . S
H720 C744 0.950 . S
H721 C745 0.951 . S
H722 C747 0.951 1_455 S
H723 C749 0.950 . S
H724 C750 0.950 . S
H725 C752 0.950 . S
H726 C755 0.950 . S
H727 C756 0.950 . S
H728 C758 0.950 . S
H729 C759 0.950 . S
C730 H712 0.951 . S
C730 C731 1.366 . S
C730 C732 1.388 . S
C731 C730 1.366 . S
C731 C735 1.385 . S
C732 H713 0.951 1_455 S
C732 C730 1.388 . S
C732 C733 1.366 . S
C733 C732 1.366 . S
C733 C734 1.414 . S
C733 C736 1.499 . S
C734 H714 0.950 . S
C734 C733 1.414 . S
C734 C735 1.374 . S
C735 H715 0.950 . S
C735 C731 1.385 . S
C735 C734 1.374 . S
C736 C733 1.499 . S
C736 C737 1.373 . S
C736 C738 1.389 1_455 S
C737 H716 0.950 . S
C737 C736 1.373 . S
C737 C753 1.377 1_545 S
C738 C736 1.389 1_655 S
C738 C739 1.524 . S
C738 C752 1.377 1_545 S
C739 C738 1.524 . S
C739 C740 1.397 . S
C739 C744 1.363 . S
C740 H717 0.950 . S
C740 C739 1.397 . S
C740 C741 1.334 . S
C741 H718 0.950 . S
C741 C740 1.334 . S
C741 C742 1.287 . S
C742 C741 1.287 . S
C742 C743 1.524 . S
C742 H761 0.913 . S
C743 H719 0.950 . S
C743 C742 1.524 . S
C743 C744 1.415 . S
C744 H720 0.950 . S
C744 C739 1.363 . S
C744 C743 1.415 . S
C745 H721 0.951 . S
C745 C746 1.366 . S
C745 C747 1.388 . S
C746 C745 1.366 . S
C746 C750 1.385 . S
C747 H722 0.951 1_655 S
C747 C745 1.388 . S
C747 C748 1.366 . S
C748 C747 1.366 . S
C748 C749 1.414 . S
C748 C751 1.499 . S
C749 H723 0.950 . S
C749 C748 1.414 . S
C749 C750 1.374 . S
C750 H724 0.950 . S
C750 C746 1.385 . S
C750 C749 1.374 . S
C751 C748 1.499 . S
C751 C752 1.373 . S
C751 C753 1.389 1_655 S
C752 H725 0.950 . S
C752 C738 1.377 1_565 S
C752 C751 1.373 . S
C753 C737 1.377 1_565 S
C753 C751 1.389 1_455 S
C753 C754 1.524 . S
C754 C753 1.524 . S
C754 C755 1.397 . S
C754 C759 1.363 . S
C755 H726 0.950 . S
C755 C754 1.397 . S
C755 C756 1.334 . S
C756 H727 0.950 . S
C756 C755 1.334 . S
C756 C757 1.287 . S
C757 C756 1.287 . S
C757 C758 1.524 . S
C757 H760 0.999 . S
C758 H728 0.950 . S
C758 C757 1.524 . S
C758 C759 1.415 . S
C759 H729 0.950 . S
C759 C754 1.363 . S
C759 C758 1.415 . S
H760 C757 0.999 . S
H761 C742 0.913 . S
H762 C780 0.951 . S
H763 C782 0.951 . S
H764 C784 0.950 . S
H765 C785 0.950 1_545 S
H766 C787 0.950 . S
H767 C790 0.950 . S
H768 C791 0.950 . S
H769 C793 0.950 1_655 S
H770 C794 0.950 . S
H771 C795 0.951 . S
H772 C797 0.951 . S
H773 C799 0.950 . S
H774 C800 0.950 1_565 S
H775 C802 0.950 . S
H776 C805 0.950 . S
H777 C806 0.950 . S
H778 C808 0.950 1_455 S
H779 C809 0.950 . S
C780 H762 0.951 . S
C780 C781 1.366 . S
C780 C782 1.388 . S
C781 C780 1.366 . S
C781 C785 1.385 . S
C782 H763 0.951 . S
C782 C780 1.388 . S
C782 C783 1.366 . S
C783 C782 1.366 . S
C783 C784 1.414 1_565 S
C783 C786 1.499 . S
C784 H764 0.950 . S
C784 C783 1.414 1_545 S
C784 C785 1.374 1_545 S
C785 H765 0.950 1_565 S
C785 C781 1.385 . S
C785 C784 1.374 1_565 S
C786 C783 1.499 . S
C786 C787 1.373 1_565 S
C786 C788 1.389 . S
C787 H766 0.950 . S
C787 C786 1.373 1_545 S
C787 C803 1.377 1_455 S
C788 C786 1.389 . S
C788 C789 1.524 . S
C788 C802 1.377 1_455 S
C789 C788 1.524 . S
C789 C790 1.397 . S
C789 C794 1.363 1_455 S
C790 H767 0.950 . S
C790 C789 1.397 . S
C790 C791 1.334 . S
C791 H768 0.950 . S
C791 C790 1.334 . S
C791 C792 1.287 . S
C792 C791 1.287 . S
C792 C793 1.524 . S
C792 H811 0.913 . S
C793 H769 0.950 1_455 S
C793 C792 1.524 . S
C793 C794 1.415 1_455 S
C794 H770 0.950 . S
C794 C789 1.363 1_655 S
C794 C793 1.415 1_655 S
C795 H771 0.951 . S
C795 C796 1.366 . S
C795 C797 1.388 . S
C796 C795 1.366 . S
C796 C800 1.385 . S
C797 H772 0.951 . S
C797 C795 1.388 . S
C797 C798 1.366 . S
C798 C797 1.366 . S
C798 C799 1.414 1_545 S
C798 C801 1.499 . S
C799 H773 0.950 . S
C799 C798 1.414 1_565 S
C799 C800 1.374 1_565 S
C800 H774 0.950 1_545 S
C800 C796 1.385 . S
C800 C799 1.374 1_545 S
C801 C798 1.499 . S
C801 C802 1.373 1_545 S
C801 C803 1.389 . S
C802 H775 0.950 . S
C802 C788 1.377 1_655 S
C802 C801 1.373 1_565 S
C803 C787 1.377 1_655 S
C803 C801 1.389 . S
C803 C804 1.524 . S
C804 C803 1.524 . S
C804 C805 1.397 . S
C804 C809 1.363 1_655 S
C805 H776 0.950 . S
C805 C804 1.397 . S
C805 C806 1.334 . S
C806 H777 0.950 . S
C806 C805 1.334 . S
C806 C807 1.287 . S
C807 C806 1.287 . S
C807 C808 1.524 . S
C807 H810 0.999 . S
C808 H778 0.950 1_655 S
C808 C807 1.524 . S
C808 C809 1.415 1_655 S
C809 H779 0.950 . S
C809 C804 1.363 1_455 S
C809 C808 1.415 1_455 S
H810 C807 0.999 . S
H811 C792 0.913 . S
H812 C830 0.951 . S
H813 C832 0.951 . S
H814 C834 0.950 1_455 S
H815 C835 0.950 . S
H816 C837 0.950 . S
H817 C840 0.950 . S
H818 C841 0.950 . S
H819 C843 0.950 . S
H820 C844 0.925 1_565 S
H821 C845 0.951 . S
H822 C847 0.951 . S
H823 C849 0.950 1_655 S
H824 C850 0.950 . S
H825 C852 0.950 . S
H826 C855 0.950 . S
H827 C856 0.950 . S
H828 C858 0.950 . S
H829 C859 0.925 1_545 S
C830 H812 0.951 . S
C830 C831 1.366 . S
C830 C832 1.388 . S
C831 C830 1.366 . S
C831 C835 1.385 . S
C832 H813 0.951 . S
C832 C830 1.388 . S
C832 C833 1.366 . S
C833 C832 1.366 . S
C833 C834 1.414 . S
C833 C836 1.499 . S
C834 H814 0.950 1_655 S
C834 C833 1.414 . S
C834 C835 1.374 . S
C835 H815 0.950 . S
C835 C831 1.385 . S
C835 C834 1.374 . S
C836 C833 1.499 . S
C836 C837 1.373 . S
C836 C838 1.389 . S
C837 H816 0.950 . S
C837 C836 1.373 . S
C837 C853 1.377 1_645 S
C838 C836 1.389 . S
C838 C839 1.524 . S
C838 C852 1.377 1_645 S
C839 C838 1.524 . S
C839 C840 1.397 1_655 S
C839 C844 1.363 . S
C840 H817 0.950 . S
C840 C839 1.397 1_455 S
C840 C841 1.334 . S
C841 H818 0.950 . S
C841 C840 1.334 . S
C841 C842 1.287 . S
C842 C841 1.287 . S
C842 C843 1.524 1_455 S
C842 H861 0.913 . S
C843 H819 0.950 . S
C843 C842 1.524 1_655 S
C843 C844 1.415 . S
C844 H820 0.925 1_545 S
C844 C839 1.363 . S
C844 C843 1.415 . S
C845 H821 0.951 . S
C845 C846 1.366 . S
C845 C847 1.388 . S
C846 C845 1.366 . S
C846 C850 1.385 . S
C847 H822 0.951 . S
C847 C845 1.388 . S
C847 C848 1.366 . S
C848 C847 1.366 . S
C848 C849 1.414 . S
C848 C851 1.499 . S
C849 H823 0.950 1_455 S
C849 C848 1.414 . S
C849 C850 1.374 . S
C850 H824 0.950 . S
C850 C846 1.385 . S
C850 C849 1.374 . S
C851 C848 1.499 . S
C851 C852 1.373 . S
C851 C853 1.389 . S
C852 H825 0.950 . S
C852 C838 1.377 1_465 S
C852 C851 1.373 . S
C853 C837 1.377 1_465 S
C853 C851 1.389 . S
C853 C854 1.524 . S
C854 C853 1.524 . S
C854 C855 1.397 1_455 S
C854 C859 1.363 . S
C855 H826 0.950 . S
C855 C854 1.397 1_655 S
C855 C856 1.334 . S
C856 H827 0.950 . S
C856 C855 1.334 . S
C856 C857 1.287 . S
C857 C856 1.287 . S
C857 C858 1.524 1_655 S
C857 H860 0.999 . S
C858 H828 0.950 . S
C858 C857 1.524 1_455 S
C858 C859 1.415 . S
C859 H829 0.925 1_565 S
C859 C854 1.363 . S
C859 C858 1.415 . S
H860 C857 0.999 . S
H861 C842 0.913 . S
H862 C880 0.951 . S
H863 C882 0.951 . S
H864 C884 0.965 . S
H865 C885 0.950 1_545 S
H866 C887 0.950 . S
H867 C890 0.950 . S
H868 C891 0.950 . S
H869 C893 0.950 . S
H870 C894 0.950 1_455 S
H871 C895 0.951 . S
H872 C897 0.951 . S
H873 C899 0.965 . S
H874 C900 0.950 1_565 S
H875 C902 0.950 . S
H876 C905 0.950 . S
H877 C906 0.950 . S
H878 C908 0.950 . S
H879 C909 0.950 1_655 S
C880 H862 0.951 . S
C880 C881 1.366 . S
C880 C882 1.388 . S
C881 C880 1.366 . S
C881 C885 1.385 . S
C882 H863 0.951 . S
C882 C880 1.388 . S
C882 C883 1.366 . S
C883 C882 1.366 . S
C883 C884 1.405 1_565 S
C883 C886 1.499 . S
C884 H864 0.965 . S
C884 C883 1.405 1_545 S
C884 C885 1.369 1_545 S
C885 H865 0.950 1_565 S
C885 C881 1.385 . S
C885 C884 1.369 1_565 S
C886 C883 1.499 . S
C886 C887 1.373 . S
C886 C888 1.389 . S
C887 H866 0.950 . S
C887 C886 1.373 . S
C887 C903 1.377 1_665 S
C888 C886 1.389 . S
C888 C889 1.524 . S
C888 C902 1.377 1_665 S
C889 C888 1.524 . S
C889 C890 1.397 1_565 S
C889 C894 1.363 . S
C890 H867 0.950 . S
C890 C889 1.397 1_545 S
C890 C891 1.334 . S
C891 H868 0.950 . S
C891 C890 1.334 . S
C891 C892 1.287 1_545 S
C892 C891 1.287 1_565 S
C892 C893 1.524 . S
C892 H911 0.913 . S
C893 H869 0.950 . S
C893 C892 1.524 . S
C893 C894 1.415 . S
C894 H870 0.950 1_655 S
C894 C889 1.363 . S
C894 C893 1.415 . S
C895 H871 0.951 . S
C895 C896 1.366 . S
C895 C897 1.388 . S
C896 C895 1.366 . S
C896 C900 1.385 . S
C897 H872 0.951 . S
C897 C895 1.388 . S
C897 C898 1.366 . S
C898 C897 1.366 . S
C898 C899 1.405 1_545 S
C898 C901 1.499 . S
C899 H873 0.965 . S
C899 C898 1.405 1_565 S
C899 C900 1.369 1_565 S
C900 H874 0.950 1_545 S
C900 C896 1.385 . S
C900 C899 1.369 1_545 S
C901 C898 1.499 . S
C901 C902 1.373 . S
C901 C903 1.389 . S
C902 H875 0.950 . S
C902 C888 1.377 1_445 S
C902 C901 1.373 . S
C903 C887 1.377 1_445 S
C903 C901 1.389 . S
C903 C904 1.524 . S
C904 C903 1.524 . S
C904 C905 1.397 1_545 S
C904 C909 1.363 . S
C905 H876 0.950 . S
C905 C904 1.397 1_565 S
C905 C906 1.334 . S
C906 H877 0.950 . S
C906 C905 1.334 . S
C906 C907 1.287 1_565 S
C907 C906 1.287 1_545 S
C907 C908 1.524 . S
C907 H910 0.999 . S
C908 H878 0.950 . S
C908 C907 1.524 . S
C908 C909 1.415 . S
C909 H879 0.950 1_455 S
C909 C904 1.363 . S
C909 C908 1.415 . S
H910 C907 0.999 . S
H911 C892 0.913 . S
C131 C3 1.330 . S
C146 C31 1.330 . S
C181 C50 1.363 . S
C196 C22 1.363 . S
C231 C87 1.331 . S
C246 C59 1.330 . S
C281 C78 1.363 . S
C296 C106 1.363 . S
C331 C93 1.405 . S
C346 C9 1.405 . S
C381 C21 1.420 . S
C396 C105 1.420 . S
C431 C37 1.407 . S
C446 C65 1.407 . S
C481 C77 1.420 . S
C496 C49 1.421 . S
C531 C8 1.334 . S
C546 C73 1.300 . S
C581 C92 1.333 . S
C596 C17 1.299 . S
C631 C101 1.300 . S
C646 C36 1.334 . S
C681 C45 1.299 . S
C696 C64 1.333 . S
C731 C7 0.763 . S
C746 C35 0.763 . S
C781 C51 0.800 . S
C796 C23 0.799 . S
C831 C91 0.763 . S
C846 C63 0.762 . S
C881 C107 0.799 . S
C896 C79 0.798 . S
