# Generated by pormake.
# Topology ukg, (4)-cn, num edge types: 1
# Building blocks:
#     Node 0, Type 0, BuildingBlock: KOZSID_clean_sbu_0, # of connection points: 4
#     Node 1, Type 0, BuildingBlock: KOZSID_clean_sbu_0, # of connection points: 4
#     Node 2, Type 0, BuildingBlock: KOZSID_clean_sbu_0, # of connection points: 4
#     Node 3, Type 0, BuildingBlock: KOZSID_clean_sbu_0, # of connection points: 4
#     Node 4, Type 0, BuildingBlock: KOZSID_clean_sbu_0, # of connection points: 4
#     Node 5, Type 0, BuildingBlock: KOZSID_clean_sbu_0, # of connection points: 4
#     Node 6, Type 0, BuildingBlock: KOZSID_clean_sbu_0, # of connection points: 4
#     Node 7, Type 0, BuildingBlock: KOZSID_clean_sbu_0, # of connection points: 4
#     Edge 8, Type (0, 0), BuildingBlock: EZIPEK_clean_linker_0, # of connection points: 2
#     Edge 9, Type (0, 0), BuildingBlock: EZIPEK_clean_linker_0, # of connection points: 2
#     Edge 10, Type (0, 0), BuildingBlock: EZIPEK_clean_linker_0, # of connection points: 2
#     Edge 11, Type (0, 0), BuildingBlock: EZIPEK_clean_linker_0, # of connection points: 2
#     Edge 12, Type (0, 0), BuildingBlock: EZIPEK_clean_linker_0, # of connection points: 2
#     Edge 13, Type (0, 0), BuildingBlock: EZIPEK_clean_linker_0, # of connection points: 2
#     Edge 14, Type (0, 0), BuildingBlock: EZIPEK_clean_linker_0, # of connection points: 2
#     Edge 15, Type (0, 0), BuildingBlock: EZIPEK_clean_linker_0, # of connection points: 2
#     Edge 16, Type (0, 0), BuildingBlock: EZIPEK_clean_linker_0, # of connection points: 2
#     Edge 17, Type (0, 0), BuildingBlock: EZIPEK_clean_linker_0, # of connection points: 2
#     Edge 18, Type (0, 0), BuildingBlock: EZIPEK_clean_linker_0, # of connection points: 2
#     Edge 19, Type (0, 0), BuildingBlock: EZIPEK_clean_linker_0, # of connection points: 2
#     Edge 20, Type (0, 0), BuildingBlock: EZIPEK_clean_linker_0, # of connection points: 2
#     Edge 21, Type (0, 0), BuildingBlock: EZIPEK_clean_linker_0, # of connection points: 2
#     Edge 22, Type (0, 0), BuildingBlock: EZIPEK_clean_linker_0, # of connection points: 2
#     Edge 23, Type (0, 0), BuildingBlock: EZIPEK_clean_linker_0, # of connection points: 2
# Relax obj value: 0.110
# Max RMSD: 0.261
# Mean RMSD: 0.247
data_MOF--net-ukg--node1-KOZSID_clean_sbu_0--edge1-EZIPEK_clean_linker_0
_symmetry_space_group_name_H-M    P1
_symmetry_Int_Tables_number       1
_symmetry_cell_setting            triclinic
loop_
_symmetry_equiv_pos_as_xyz
'x, y, z'
_cell_length_a     27.701083
_cell_length_b     27.703652
_cell_length_c     37.934284
_cell_angle_alpha  90.225023
_cell_angle_beta   89.662981
_cell_angle_gamma 90.08614
loop_
_atom_site_label
_atom_site_type_symbol
_atom_site_fract_x
_atom_site_fract_y
_atom_site_fract_z
_atom_type_partial_charge
C0 C 0.9352 0.62545 0.1669 0.0
C1 C 0.90041 0.63361 0.14149 0.0
C2 C 0.92358 0.65486 0.11347 0.0
C3 C 0.97109 0.65862 0.12332 0.0
N4 N 0.97916 0.64147 0.15594 0.0
Co5 Co 0.04322 0.63876 0.17951 0.0
N6 N 0.07299 0.68601 0.14588 0.0
C7 C 0.05358 0.69995 0.11508 0.0
C8 C 0.08234 0.73178 0.09684 0.0
C9 C 0.12284 0.73771 0.11709 0.0
C10 C 0.11671 0.70888 0.14656 0.0
N11 N 0.10778 0.63419 0.20247 0.0
C12 C 0.14918 0.65956 0.19711 0.0
C13 C 0.18669 0.64154 0.21736 0.0
C14 C 0.16849 0.60343 0.23579 0.0
C15 C 0.12116 0.60022 0.22583 0.0
N16 N 1.01386 0.59282 0.21397 0.0
C17 C 0.03788 0.56432 0.23654 0.0
C18 C 1.00832 0.53667 0.25738 0.0
C19 C 0.96254 0.54807 0.24723 0.0
C20 C 0.9669 0.58212 0.22059 0.0
N21 N 0.05994 0.58495 0.14716 0.0
C22 C 0.05737 0.53074 0.08433 0.0
C23 C 0.02752 0.51887 0.11297 0.0
C24 C 0.02864 0.54689 0.14369 0.0
C25 C 0.09296 0.56602 0.08973 0.0
C26 C 0.09513 0.59079 0.12202 0.0
N27 N 0.02377 0.69324 0.21018 0.0
C28 C 1.009 0.73134 0.26681 0.0
C29 C 0.98472 0.77097 0.25112 0.0
C30 C 0.97656 0.76602 0.21468 0.0
C31 C 0.99832 0.72964 0.19496 0.0
C32 C 0.02872 0.69353 0.24601 0.0
H33 H 0.99222 0.7302 0.16711 0.0
H34 H 0.04679 0.66406 0.25896 0.0
H35 H 1.00113 0.53989 0.16304 0.0
H36 H 0.12283 0.61757 0.12519 0.0
C37 C 1.00713 0.68465 0.10546 0.0
C38 C 0.92596 0.59915 0.19986 0.0
C39 C 0.15572 0.69896 0.17183 0.0
C40 C 0.08757 0.56844 0.24016 0.0
H41 H 0.86244 0.62451 0.14292 0.0
H42 H 0.9074 0.66741 0.08929 0.0
H43 H 0.07487 0.74859 0.07176 0.0
H44 H 0.15423 0.75911 0.11025 0.0
H45 H 0.22368 0.65407 0.21835 0.0
H46 H 0.18739 0.58105 0.25451 0.0
H47 H 0.01874 0.51188 0.27796 0.0
H48 H 0.92974 0.53232 0.25777 0.0
H49 H 1.00044 0.49082 0.11049 0.0
H50 H 0.11782 0.57569 0.06877 0.0
H51 H 1.01168 0.72808 0.29509 0.0
H52 H 0.95204 0.78836 0.20025 0.0
C53 C 0.43105 0.50477 0.60456 0.0
C54 C 0.4735 0.53138 0.60518 0.0
C55 C 0.47213 0.55885 0.63538 0.0
C56 C 0.4291 0.54752 0.65154 0.0
N57 N 0.40354 0.51432 0.63355 0.0
Co58 Co 0.33912 0.48881 0.64748 0.0
N59 N 0.34605 0.51215 0.69687 0.0
C60 C 0.37766 0.54576 0.70802 0.0
C61 C 0.37523 0.55331 0.74381 0.0
C62 C 0.33964 0.52282 0.75579 0.0
C63 C 0.32205 0.49851 0.7265 0.0
N64 N 0.27489 0.46304 0.6612 0.0
C65 C 0.25613 0.45443 0.69365 0.0
C66 C 0.20924 0.43692 0.69127 0.0
C67 C 0.19844 0.43466 0.65609 0.0
C68 C 0.23911 0.45092 0.63901 0.0
N69 N 0.33168 0.46603 0.598 0.0
C70 C 0.28975 0.45368 0.58257 0.0
C71 C 0.29525 0.44023 0.54792 0.0
C72 C 0.34361 0.44478 0.54096 0.0
C73 C 0.36496 0.46089 0.57187 0.0
N74 N 0.36898 0.42731 0.66086 0.0
C75 C 0.40253 0.34106 0.69089 0.0
C76 C 0.3693 0.34016 0.663 0.0
C77 C 0.35171 0.38379 0.6492 0.0
C78 C 0.42123 0.38594 0.7011 0.0
C79 C 0.40545 0.42804 0.68495 0.0
N80 N 0.30942 0.55108 0.63517 0.0
C81 C 0.30756 0.62282 0.59922 0.0
C82 C 0.27721 0.64589 0.6237 0.0
C83 C 0.26127 0.61962 0.65297 0.0
C84 C 0.27736 0.57232 0.65804 0.0
C85 C 0.32332 0.57552 0.60551 0.0
H86 H 0.26508 0.55361 0.68125 0.0
H87 H 0.3479 0.55926 0.58695 0.0
H88 H 0.32337 0.38234 0.62984 0.0
H89 H 0.42154 0.4615 0.69327 0.0
C90 C 0.41463 0.56189 0.68552 0.0
C91 C 0.416 0.47465 0.57446 0.0
C92 C 0.2801 0.46586 0.7271 0.0
C93 C 0.24761 0.44849 0.60269 0.0
H94 H 0.502 0.53155 0.58554 0.0
H95 H 0.49979 0.58324 0.64481 0.0
H96 H 0.39801 0.57657 0.75958 0.0
H97 H 0.3277 0.51923 0.78286 0.0
H98 H 0.18519 0.42722 0.71269 0.0
H99 H 0.16545 0.42132 0.6444 0.0
H100 H 0.26765 0.42733 0.53012 0.0
H101 H 0.36107 0.43764 0.51588 0.0
H102 H 0.3553 0.30619 0.65318 0.0
H103 H 0.44783 0.38864 0.72184 0.0
H104 H 0.32021 0.6418 0.57602 0.0
H105 H 0.23736 0.63599 0.67229 0.0
C106 C 0.56225 0.86919 0.17286 0.0
C107 C 0.60016 0.86087 0.14957 0.0
C108 C 0.5804 0.84124 0.11957 0.0
C109 C 0.53164 0.83848 0.12618 0.0
N110 N 0.51974 0.85448 0.15861 0.0
Co111 Co 0.45269 0.85967 0.17703 0.0
N112 N 0.42699 0.8127 0.14186 0.0
C113 C 0.44819 0.80345 0.11058 0.0
C114 C 0.41844 0.77893 0.08793 0.0
C115 C 0.376 0.77225 0.10626 0.0
C116 C 0.38273 0.79096 0.13998 0.0
N117 N 0.38552 0.86713 0.19448 0.0
C118 C 0.345 0.84295 0.18507 0.0
C119 C 0.30404 0.86994 0.19318 0.0
C120 C 0.31943 0.91045 0.21054 0.0
C121 C 0.36876 0.90709 0.21067 0.0
N122 N 0.47752 0.90602 0.21271 0.0
C123 C 0.45063 0.93792 0.23106 0.0
C124 C 0.47716 0.9657 0.25384 0.0
C125 C 0.5239 0.95088 0.24919 0.0
C126 C 0.5233 0.91507 0.22341 0.0
N127 N 0.44182 0.91285 0.14315 0.0
C128 C 0.44495 0.97028 0.08196 0.0
C129 C 0.47672 0.97871 0.11002 0.0
C130 C 0.47513 0.94915 0.13993 0.0
C131 C 0.40828 0.93601 0.08705 0.0
C132 C 0.40614 0.90937 0.11838 0.0
N133 N 0.46546 0.80541 0.20925 0.0
C134 C 0.46979 0.76705 0.26651 0.0
C135 C 0.49366 0.72573 0.25237 0.0
C136 C 0.50676 0.72969 0.21649 0.0
C137 C 0.49054 0.76735 0.19561 0.0
C138 C 0.45543 0.80585 0.24458 0.0
H139 H 0.50041 0.76634 0.16817 0.0
H140 H 0.43742 0.83664 0.25626 0.0
H141 H 0.50283 0.95389 0.15931 0.0
H142 H 0.37741 0.88346 0.12117 0.0
C143 C 0.49654 0.81696 0.10446 0.0
C144 C 0.56713 0.89603 0.20634 0.0
C145 C 0.3445 0.79516 0.16769 0.0
C146 C 0.40047 0.93877 0.22752 0.0
H147 H 0.63787 0.86953 0.15347 0.0
H148 H 0.59942 0.82997 0.09594 0.0
H149 H 0.42612 0.76826 0.06101 0.0
H150 H 0.34325 0.75751 0.09521 0.0
H151 H 0.26686 0.86145 0.18717 0.0
H152 H 0.29729 0.93896 0.2216 0.0
H153 H 0.46416 0.99342 0.27168 0.0
H154 H 0.55503 0.96616 0.26227 0.0
H155 H 0.50485 1.00575 0.10779 0.0
H156 H 0.38217 0.92883 0.06655 0.0
H157 H 0.46377 0.77122 0.29448 0.0
H158 H 0.53138 0.70541 0.20353 0.0
C159 C 0.07518 0.99333 0.59587 0.0
C160 C 0.03329 0.96627 0.59215 0.0
C161 C 0.02928 0.93815 0.62175 0.0
C162 C 0.06893 0.94929 0.64179 0.0
N163 N 0.09748 0.98275 0.62661 0.0
Co164 Co 0.15949 1.00676 0.64592 0.0
N165 N 0.1432 0.98463 0.69429 0.0
C166 C 0.10788 0.95345 0.70293 0.0
C167 C 0.10373 0.94688 0.73872 0.0
C168 C 0.13888 0.97556 0.75342 0.0
C169 C 0.16276 0.99782 0.72567 0.0
N170 N 0.22283 0.02824 0.66461 0.0
C171 C 0.23724 0.03503 0.6983 0.0
C172 C 0.28538 0.04903 0.69951 0.0
C173 C 0.30142 0.05106 0.6653 0.0
C174 C 0.26242 0.03812 0.64518 0.0
N175 N 0.175 0.03078 0.59795 0.0
C176 C 0.21898 0.04382 0.58609 0.0
C177 C 0.21782 0.0638 0.55306 0.0
C178 C 0.17019 0.06298 0.54346 0.0
C179 C 0.14487 0.04159 0.571 0.0
N180 N 0.13013 0.06956 0.65784 0.0
C181 C 0.09358 0.14928 0.69489 0.0
C182 C 0.14134 0.14909 0.68243 0.0
C183 C 0.15825 0.10976 0.66259 0.0
C184 C 0.06282 0.11238 0.68342 0.0
C185 C 0.08214 0.07196 0.66658 0.0
N186 N 0.18835 0.94345 0.63499 0.0
C187 C 0.19607 0.87346 0.59719 0.0
C188 C 0.22015 0.84826 0.62383 0.0
C189 C 0.22979 0.87241 0.65545 0.0
C190 C 0.214 0.91986 0.6604 0.0
C191 C 0.18036 0.92096 0.60333 0.0
H192 H 0.22155 0.93694 0.68531 0.0
H193 H 0.1606 0.93901 0.58282 0.0
H194 H 0.19518 0.11064 0.65359 0.0
H195 H 0.05838 0.04165 0.66329 0.0
C196 C 0.07569 0.93664 0.67721 0.0
C197 C 0.09349 0.02756 0.56938 0.0
C198 C 0.20685 0.02711 0.72955 0.0
C199 C 0.25864 0.04444 0.60875 0.0
H200 H 1.00809 0.96704 0.57046 0.0
H201 H 0.99981 0.91416 0.62852 0.0
H202 H 0.07748 0.92495 0.75259 0.0
H203 H 0.14676 0.97892 0.78123 0.0
H204 H 0.3066 0.05732 0.72263 0.0
H205 H 0.33656 0.06292 0.65619 0.0
H206 H 0.24767 0.0791 0.53832 0.0
H207 H 0.15602 0.07616 0.51881 0.0
H208 H 0.16628 0.1775 0.68978 0.0
H209 H 0.02519 0.11189 0.6914 0.0
H210 H 0.18841 0.8561 0.5722 0.0
H211 H 0.24875 0.85435 0.67652 0.0
C212 C 0.03031 0.37235 0.96201 0.0
C213 C 0.04396 0.35444 0.99465 0.0
C214 C 0.05195 0.30609 0.9902 0.0
C215 C 0.04246 0.29713 0.95535 0.0
N216 N 0.02923 0.33685 0.93747 0.0
Co217 Co 1.00713 0.33815 0.8879 0.0
N218 N 0.03815 0.27509 0.87767 0.0
C219 C 0.05422 0.2432 0.90155 0.0
C220 C 0.07889 0.20538 0.88658 0.0
C221 C 0.07793 0.21379 0.85106 0.0
C222 C 0.0517 0.256 0.84623 0.0
N223 N 0.98341 0.33804 0.83873 0.0
C224 C 0.99737 0.31071 0.8108 0.0
C225 C 0.96953 0.3209 0.78147 0.0
C226 C 0.93726 0.356 0.79157 0.0
C227 C 0.94694 0.36514 0.82644 0.0
N228 N 0.97815 0.40236 0.89804 0.0
C229 C 0.94457 0.42462 0.87846 0.0
C230 C 0.93403 0.47018 0.89068 0.0
C231 C 0.96236 0.47663 0.91996 0.0
C232 C 0.98821 0.43423 0.92434 0.0
N233 N 0.06652 0.37065 0.87229 0.0
C234 C 0.14914 0.40502 0.83724 0.0
C235 C 0.10326 0.42218 0.82879 0.0
C236 C 0.06287 0.40546 0.84699 0.0
C237 C 0.15324 0.37293 0.8657 0.0
C238 C 0.1113 0.35563 0.88261 0.0
N239 N 0.94641 0.3058 0.90206 0.0
C240 C 0.86661 0.31158 0.92785 0.0
C241 C 0.85104 0.27119 0.90852 0.0
C242 C 0.88554 0.2462 0.88843 0.0
C243 C 0.93228 0.26468 0.88482 0.0
C244 C 0.91477 0.32725 0.92518 0.0
H245 H 0.95591 0.24695 0.86638 0.0
H246 H 0.92547 0.35833 0.94045 0.0
H247 H 0.02829 0.41904 0.83907 0.0
H248 H 0.1149 0.32874 0.90293 0.0
C249 C 0.05311 0.2543 0.93746 0.0
C250 C 0.01735 0.42285 0.95571 0.0
C251 C 0.0353 0.27364 0.8117 0.0
C252 C 0.92973 0.40457 0.8462 0.0
H253 H 0.04772 0.37416 0.01916 0.0
H254 H 0.06476 0.28089 1.00975 0.0
H255 H 0.09732 0.17635 0.89994 0.0
H256 H 0.09428 0.19099 0.83111 0.0
H257 H 0.97248 0.30491 0.75547 0.0
H258 H 0.91139 0.37418 0.77499 0.0
H259 H 0.90981 0.49623 0.8791 0.0
H260 H 0.96294 0.50838 0.93665 0.0
H261 H 0.09842 0.44754 0.80743 0.0
H262 H 0.18827 0.35959 0.87356 0.0
H263 H 0.84145 0.33171 0.94416 0.0
H264 H 0.87544 0.21438 0.87348 0.0
C265 C 0.5637 0.52361 0.32102 0.0
C266 C 0.52277 0.52077 0.30008 0.0
C267 C 0.52087 0.47483 0.28709 0.0
C268 C 0.5602 0.45208 0.30104 0.0
N269 N 0.58671 0.48026 0.32253 0.0
Co270 Co 0.64484 0.45944 0.34983 0.0
N271 N 0.63676 0.3902 0.33552 0.0
C272 C 0.60775 0.37443 0.30944 0.0
C273 C 0.61463 0.32708 0.30043 0.0
C274 C 0.65052 0.3115 0.32194 0.0
C275 C 0.66296 0.35015 0.3436 0.0
N276 N 0.70065 0.43763 0.37929 0.0
C277 C 0.71503 0.39231 0.38882 0.0
C278 C 0.75242 0.39471 0.41298 0.0
C279 C 0.76379 0.44255 0.41701 0.0
C280 C 0.7321 0.46692 0.3959 0.0
N281 N 0.65462 0.52929 0.36205 0.0
C282 C 0.69421 0.54763 0.37774 0.0
C283 C 0.69389 0.59709 0.38008 0.0
C284 C 0.65183 0.61118 0.36442 0.0
C285 C 0.6287 0.56941 0.35346 0.0
N286 N 0.6026 0.45105 0.39166 0.0
C287 C 0.54011 0.44915 0.45054 0.0
C288 C 0.5843 0.4731 0.45203 0.0
C289 C 0.61481 0.47349 0.42262 0.0
C290 C 0.52822 0.42451 0.41936 0.0
C291 C 0.56006 0.42579 0.39024 0.0
N292 N 0.68825 0.46964 0.30837 0.0
C293 C 0.7704 0.47247 0.2864 0.0
C294 C 0.75808 0.50813 0.26213 0.0
C295 C 0.70933 0.51935 0.25818 0.0
C296 C 0.67513 0.49986 0.28151 0.0
C297 C 0.73479 0.4527 0.30845 0.0
H298 H 0.63867 0.51155 0.27826 0.0
H299 H 0.74606 0.42521 0.3264 0.0
H300 H 0.64784 0.49323 0.42509 0.0
H301 H 0.54966 0.40732 0.36644 0.0
C302 C 0.57301 0.40436 0.29493 0.0
C303 C 0.58341 0.5699 0.33346 0.0
C304 C 0.69983 0.3468 0.37136 0.0
C305 C 0.72855 0.5171 0.39279 0.0
H306 H 0.4981 0.54956 0.29349 0.0
H307 H 0.49435 0.45998 0.26921 0.0
H308 H 0.59592 0.30638 0.28046 0.0
H309 H 0.66591 0.27568 0.32123 0.0
H310 H 0.77115 0.3649 0.42511 0.0
H311 H 0.79179 0.45774 0.43349 0.0
H312 H 0.72078 0.62016 0.3921 0.0
H313 H 0.63965 0.64798 0.3611 0.0
H314 H 0.59477 0.4925 0.47565 0.0
H315 H 0.49417 0.40551 0.41726 0.0
H316 H 0.80757 0.46098 0.28904 0.0
H317 H 0.69813 0.54522 0.23852 0.0
C318 C 0.46486 0.12736 0.95233 0.0
C319 C 0.45313 0.15051 0.9838 0.0
C320 C 0.44927 0.19864 0.9764 0.0
C321 C 0.45906 0.20232 0.94104 0.0
N322 N 0.46845 0.15946 0.92555 0.0
Co323 Co 0.48942 0.15031 0.87579 0.0
N324 N 0.46527 0.21507 0.8623 0.0
C325 C 0.45463 0.25157 0.88448 0.0
C326 C 0.43845 0.29204 0.86747 0.0
C327 C 0.43918 0.28031 0.83233 0.0
C328 C 0.45585 0.23315 0.82993 0.0
N329 N 0.51196 0.14229 0.82627 0.0
C330 C 0.49915 0.16671 0.79687 0.0
C331 C 0.52293 0.14864 0.76739 0.0
C332 C 0.55196 0.1119 0.77895 0.0
C333 C 0.54421 0.10946 0.81472 0.0
N334 N 0.51211 0.08482 0.88922 0.0
C335 C 0.54235 0.05686 0.8702 0.0
C336 C 0.54935 1.01228 0.885 0.0
C337 C 0.52236 1.01245 0.91545 0.0
C338 C 0.50083 0.05757 0.91788 0.0
N339 N 0.42648 0.12251 0.86306 0.0
C340 C 0.33819 0.09098 0.83467 0.0
C341 C 0.38206 0.07064 0.82381 0.0
C342 C 0.42523 0.08576 0.83892 0.0
C343 C 0.33927 0.12511 0.86221 0.0
C344 C 0.38391 0.14138 0.87536 0.0
N345 N 0.55311 0.17799 0.88758 0.0
C346 C 0.62848 0.17388 0.91923 0.0
C347 C 0.64817 0.2112 0.89874 0.0
C348 C 0.61832 0.23278 0.8736 0.0
C349 C 0.57178 0.21487 0.86776 0.0
C350 C 0.58063 0.15885 0.91393 0.0
H351 H 0.55155 0.23021 0.84642 0.0
H352 H 0.5665 0.13078 0.93061 0.0
H353 H 0.45787 0.06872 0.82986 0.0
H354 H 0.38404 0.17003 0.89471 0.0
C355 C 0.45396 0.2441 0.92086 0.0
C356 C 0.47504 0.07544 0.94955 0.0
C357 C 0.46659 0.2085 0.79649 0.0
C358 C 0.55767 0.07105 0.83648 0.0
H359 H 0.44845 0.13448 1.00956 0.0
H360 H 0.43954 0.22734 0.99452 0.0
H361 H 0.42629 0.32558 0.87922 0.0
H362 H 0.42928 0.30397 0.81093 0.0
H363 H 0.51952 0.16065 0.74041 0.0
H364 H 0.57402 0.08816 0.76288 0.0
H365 H 0.57045 0.98266 0.87446 0.0
H366 H 0.51987 0.98314 0.93413 0.0
H367 H 0.38312 0.0434 0.80324 0.0
H368 H 0.30608 0.14063 0.87232 0.0
H369 H 0.65006 0.15617 0.93906 0.0
H370 H 0.63177 0.26192 0.85728 0.0
C371 C 0.91231 0.97125 0.31489 0.0
C372 C 0.95193 0.97106 0.29215 0.0
C373 C 0.96287 0.01808 0.28524 0.0
C374 C 0.92994 0.0443 0.30431 0.0
N375 N 0.8985 0.01696 0.32274 0.0
Co376 Co 0.84972 0.04179 0.35715 0.0
N377 N 0.85538 0.10915 0.33877 0.0
C378 C 0.88813 0.12471 0.315 0.0
C379 C 0.87894 0.17008 0.30256 0.0
C380 C 0.83815 0.18464 0.31987 0.0
C381 C 0.82553 0.14783 0.343 0.0
N382 N 0.80324 0.06821 0.39284 0.0
C383 C 0.7838 0.11324 0.39669 0.0
C384 C 0.75862 0.11699 0.42832 0.0
C385 C 0.76187 0.073 0.44455 0.0
C386 C 0.78929 0.04491 0.42231 0.0
N387 N 0.84227 0.97401 0.37426 0.0
C388 C 0.81993 0.9607 0.40425 0.0
C389 C 0.81809 0.91147 0.40841 0.0
C390 C 0.8413 0.89259 0.37938 0.0
C391 C 0.8565 0.93147 0.35927 0.0
N392 N 0.90248 0.0524 0.39122 0.0
C393 C 0.9683 0.05759 0.44766 0.0
C394 C 0.96323 1.01553 0.42756 0.0
C395 C 0.93185 1.01428 0.39908 0.0
C396 C 0.94131 0.09826 0.43758 0.0
C397 C 0.90785 0.0946 0.40975 0.0
N398 N 0.79678 0.0283 0.32378 0.0
C399 C 0.71906 0.9907 0.31437 0.0
C400 C 0.72775 0.98741 0.27812 0.0
C401 C 0.7707 1.00749 0.26485 0.0
C402 C 0.80432 0.0285 0.28804 0.0
C403 C 0.75385 1.01082 0.3366 0.0
H404 H 0.8372 0.04304 0.27706 0.0
H405 H 0.74662 1.00971 0.36442 0.0
H406 H 0.93047 0.98128 0.38431 0.0
H407 H 0.88561 0.12538 0.40385 0.0
C408 C 0.92317 0.09379 0.30153 0.0
C409 C 0.89019 0.92721 0.32915 0.0
C410 C 0.78959 0.15377 0.37167 0.0
C411 C 0.79802 0.99533 0.42608 0.0
H412 H 0.97128 0.94026 0.28168 0.0
H413 H 0.99073 0.0315 0.26769 0.0
H414 H 0.89858 0.18962 0.28239 0.0
H415 H 0.82049 0.219 0.3162 0.0
H416 H 0.73987 0.14827 0.43865 0.0
H417 H 0.74543 0.06254 0.46933 0.0
H418 H 0.80161 0.8916 0.42985 0.0
H419 H 0.84816 0.85473 0.37433 0.0
H420 H 0.98354 0.98332 0.43385 0.0
H421 H 0.94476 0.13198 0.45189 0.0
H422 H 0.6862 0.97601 0.32569 0.0
H423 H 0.77859 1.00615 0.23687 0.0
C424 C 0.98939 0.47656 1.00652 0.0
C425 C 0.02723 0.45866 0.98476 0.0
C426 C 0.08603 0.48635 0.02876 0.0
C427 C 0.04839 0.50864 0.04862 0.0
N428 N 0.96636 0.53869 0.04807 0.0
N429 N 0.11235 0.45724 0.97137 0.0
C430 C 1.00072 0.50821 0.03481 0.0
C431 C 0.07585 0.46769 0.99451 0.0
N432 N 0.94299 0.46121 1.00193 0.0
N433 N 0.13047 0.47959 0.0433 0.0
H434 H 0.10593 0.4435 0.94616 0.0
H435 H 0.1482 0.46667 0.97599 0.0
H436 H 0.13856 0.48924 0.06918 0.0
H437 H 0.15759 0.45953 0.031 0.0
H438 H 0.91522 0.47019 0.01942 0.0
H439 H 0.93324 0.43574 0.98297 0.0
H440 H 0.93216 0.54181 0.03695 0.0
H441 H 0.97389 0.56475 0.0672 0.0
C442 C 0.47644 0.42529 0.5391 0.0
C443 C 0.44855 0.46803 0.54274 0.0
C444 C 0.47498 0.494 0.48359 0.0
C445 C 0.50582 0.45321 0.48113 0.0
N446 N 0.54002 0.3823 0.50755 0.0
N447 N 0.42533 0.54595 0.52046 0.0
C448 C 0.50758 0.41938 0.50917 0.0
C449 C 0.44896 0.50317 0.51549 0.0
N450 N 0.47241 0.38993 0.56399 0.0
N451 N 0.46993 0.52356 0.45505 0.0
H452 H 0.40509 0.55361 0.54299 0.0
H453 H 0.42864 0.57538 0.50366 0.0
H454 H 0.48901 0.51855 0.43153 0.0
H455 H 0.44418 0.55076 0.45346 0.0
H456 H 0.48737 0.35568 0.56121 0.0
H457 H 0.45136 0.39377 0.58673 0.0
H458 H 0.54736 0.35954 0.52861 0.0
H459 H 0.56192 0.3759 0.48556 0.0
C460 C 0.41309 0.01933 0.03008 0.0
C461 C 0.45192 0.99519 0.04697 0.0
C462 C 0.50685 0.02618 1.00121 0.0
C463 C 0.46719 0.04441 0.9818 0.0
N464 N 0.38086 0.04925 0.97501 0.0
N465 N 0.53317 0.96389 0.04097 0.0
C466 C 0.41971 0.03772 0.99529 0.0
C467 C 0.49807 0.99505 0.03025 0.0
N468 N 0.37086 0.02752 0.04786 0.0
N469 N 0.5529 0.04009 0.99318 0.0
H470 H 0.52735 0.93786 0.06033 0.0
H471 H 0.56595 0.96013 0.0276 0.0
H472 H 0.56097 0.06469 0.97328 0.0
H473 H 0.58237 0.03093 1.00875 0.0
H474 H 0.34319 0.04876 0.0378 0.0
H475 H 0.36565 0.01786 0.07413 0.0
H476 H 0.34546 0.04114 0.98235 0.0
H477 H 0.38441 0.06264 0.94944 0.0
C478 C 0.04943 0.03823 0.47402 0.0
C479 C 1.00215 0.05721 0.47868 0.0
C480 C 0.01932 0.06598 0.54207 0.0
C481 C 0.0628 0.03936 0.53779 0.0
N482 N 0.11094 0.98812 0.49976 0.0
N483 N 0.93879 0.07963 0.51986 0.0
C484 C 0.07552 0.02197 0.50377 0.0
C485 C 0.98616 0.06897 0.51345 0.0
N486 N 0.06987 0.0363 0.44121 0.0
N487 N 1.00952 0.08828 0.57347 0.0
H488 H 0.9125 0.07936 0.50036 0.0
H489 H 0.92466 0.0837 0.54522 0.0
H490 H 0.03289 0.0868 0.5949 0.0
H491 H 0.98052 0.11177 0.57699 0.0
H492 H 0.10565 0.026 0.437 0.0
H493 H 0.05287 0.05024 0.41899 0.0
H494 H 0.11842 0.97148 0.47564 0.0
H495 H 0.12916 0.97312 0.52105 0.0
C496 C 0.21856 0.75476 0.19776 0.0
C497 C 0.20486 0.72313 0.17003 0.0
C498 C 0.29037 0.72095 0.15097 0.0
C499 C 0.30072 0.76107 0.17298 0.0
N500 N 0.28513 0.78269 0.23345 0.0
N501 N 0.22983 0.67346 0.12068 0.0
C502 C 0.26791 0.76823 0.20147 0.0
C503 C 0.2414 0.7055 0.14667 0.0
N504 N 0.18449 0.77232 0.22056 0.0
N505 N 0.32727 0.69193 0.14009 0.0
H506 H 0.19503 0.66003 0.11732 0.0
H507 H 0.25425 0.66323 0.10102 0.0
H508 H 0.36253 0.69757 0.1488 0.0
H509 H 0.32199 0.65928 0.12692 0.0
H510 H 0.19211 0.79892 0.23924 0.0
H511 H 0.14797 0.76336 0.21871 0.0
H512 H 0.26373 0.78443 0.25611 0.0
H513 H 0.32206 0.78695 0.23791 0.0
C514 C 0.2984 0.73492 0.62336 0.0
C515 C 0.26319 0.69784 0.61973 0.0
C516 C 0.19928 0.75939 0.61817 0.0
C517 C 0.23478 0.79649 0.61943 0.0
N518 N 0.31853 0.81933 0.61482 0.0
N519 N 0.1815 0.6753 0.60556 0.0
C520 C 0.2845 0.7841 0.61936 0.0
C521 C 0.21402 0.71031 0.61458 0.0
N522 N 0.34465 0.7235 0.63249 0.0
N523 N 0.15154 0.77064 0.62223 0.0
H524 H 0.19115 0.63916 0.60228 0.0
H525 H 0.14622 0.68278 0.59799 0.0
H526 H 0.13911 0.8059 0.62543 0.0
H527 H 0.12462 0.74473 0.62551 0.0
H528 H 0.37037 0.74929 0.63933 0.0
H529 H 0.3563 0.68818 0.63641 0.0
H530 H 0.35507 0.81203 0.611 0.0
H531 H 0.30963 0.85558 0.61136 0.0
C532 C 0.72027 0.23962 0.93519 0.0
C533 C 0.70029 0.2262 0.90206 0.0
C534 C 0.77603 0.25102 0.87351 0.0
C535 C 0.79858 0.25687 0.90684 0.0
N536 N 0.79317 0.2455 0.9699 0.0
N537 N 0.71632 0.20616 0.84093 0.0
C538 C 0.771 0.24797 0.93791 0.0
C539 C 0.73029 0.22805 0.87155 0.0
N540 N 0.6909 0.24647 0.96379 0.0
N541 N 0.79708 0.26911 0.84369 0.0
H542 H 0.68478 0.18578 0.83888 0.0
H543 H 0.73901 0.20343 0.81897 0.0
H544 H 0.8288 0.28943 0.84408 0.0
H545 H 0.77983 0.26893 0.81933 0.0
H546 H 0.70339 0.26039 0.98763 0.0
H547 H 0.65344 0.24343 0.96255 0.0
H548 H 0.77515 0.23482 0.99279 0.0
H549 H 0.8304 0.24895 0.97288 0.0
C550 C 0.69564 0.25649 0.3858 0.0
C551 C 0.7242 0.29806 0.37813 0.0
C552 C 0.79552 0.24532 0.38067 0.0
C553 C 0.76634 0.20314 0.37846 0.0
N554 N 0.68544 0.17088 0.37454 0.0
N555 N 0.80297 0.32698 0.3597 0.0
C556 C 0.71536 0.20926 0.38019 0.0
C557 C 0.77478 0.29127 0.3735 0.0
N558 N 0.64943 0.26201 0.39776 0.0
N559 N 0.8432 0.24167 0.38893 0.0
H560 H 0.78899 0.35962 0.35092 0.0
H561 H 0.83929 0.32171 0.35339 0.0
H562 H 0.85906 0.20877 0.3954 0.0
H563 H 0.86505 0.27191 0.39283 0.0
H564 H 0.62827 0.23302 0.40609 0.0
H565 H 0.63436 0.29593 0.40259 0.0
H566 H 0.64814 0.17453 0.37231 0.0
H567 H 0.69819 0.13633 0.36881 0.0
C568 C 0.82073 0.5119 0.21351 0.0
C569 C 0.79637 0.53484 0.24206 0.0
C570 C 0.85075 0.60508 0.23714 0.0
C571 C 0.87645 0.58118 0.20974 0.0
N572 N 0.88309 0.51576 0.16804 0.0
N573 N 0.78311 0.60548 0.2783 0.0
C574 C 0.86022 0.53588 0.19657 0.0
C575 C 0.80963 0.58236 0.2528 0.0
N576 N 0.80663 0.46662 0.20331 0.0
N577 N 0.86741 0.64861 0.24921 0.0
H578 H 0.75495 0.58909 0.29214 0.0
H579 H 0.78718 0.6417 0.28492 0.0
H580 H 0.89574 0.66717 0.23703 0.0
H581 H 0.85462 0.66599 0.27172 0.0
H582 H 0.82517 0.44518 0.18525 0.0
H583 H 0.77633 0.44937 0.21382 0.0
H584 H 0.87163 0.48472 0.15509 0.0
H585 H 0.91266 0.53179 0.15566 0.0
C586 C 0.46941 0.29023 0.71536 0.0
C587 C 0.41906 0.29662 0.7101 0.0
C588 C 0.40438 0.22961 0.75121 0.0
C589 C 0.45276 0.23263 0.76269 0.0
N590 N 0.5317 0.26888 0.75688 0.0
N591 N 0.33738 0.2719 0.72531 0.0
C592 C 0.48568 0.2633 0.74479 0.0
C593 C 0.38607 0.26546 0.72802 0.0
N594 N 0.5016 0.31001 0.69214 0.0
N595 N 0.37583 0.19266 0.76272 0.0
H596 H 0.32156 0.29845 0.70998 0.0
H597 H 0.31245 0.25337 0.74089 0.0
H598 H 0.38823 0.16641 0.78013 0.0
H599 H 0.34218 0.18522 0.75184 0.0
H600 H 0.5386 0.30341 0.69311 0.0
H601 H 0.49049 0.32855 0.6697 0.0
H602 H 0.55539 0.29486 0.74702 0.0
H603 H 0.54501 0.25015 0.77852 0.0
C604 C 0.64192 0.88937 0.24415 0.0
C605 C 0.61535 0.91506 0.21853 0.0
C606 C 0.66504 0.9873 0.22945 0.0
C607 C 0.69212 0.96158 0.25491 0.0
N608 N 0.71422 0.88483 0.27989 0.0
N609 N 0.61027 0.98348 0.17981 0.0
C610 C 0.68301 0.91147 0.26014 0.0
C611 C 0.63004 0.96234 0.20878 0.0
N612 N 0.62682 0.84444 0.25412 0.0
N613 N 0.6704 0.03617 0.22647 0.0
H614 H 0.58507 0.96593 0.16402 0.0
H615 H 0.62252 1.01601 0.16936 0.0
H616 H 0.69484 0.05607 0.24145 0.0
H617 H 0.64776 0.05765 0.21135 0.0
H618 H 0.64077 0.82609 0.27568 0.0
H619 H 0.59831 0.82649 0.24184 0.0
H620 H 0.71236 0.84741 0.28195 0.0
H621 H 0.74477 0.89967 0.29168 0.0
C622 C 0.03064 0.19585 0.77763 0.0
C623 C 0.0462 0.24442 0.77925 0.0
C624 C 0.08468 0.23391 0.72127 0.0
C625 C 0.07729 0.1831 0.72355 0.0
N626 N 0.05625 0.11598 0.76179 0.0
N627 N 0.09295 0.30915 0.7538 0.0
C628 C 0.05376 0.16401 0.7539 0.0
C629 C 0.07469 0.26346 0.75136 0.0
N630 N 0.99443 0.17975 0.79912 0.0
N631 N 0.09915 0.25422 0.69023 0.0
H632 H 0.118 0.32295 0.73586 0.0
H633 H 0.08582 0.33181 0.77524 0.0
H634 H 0.10397 0.23412 0.66718 0.0
H635 H 0.10124 0.29141 0.68652 0.0
H636 H 0.97999 0.14508 0.79698 0.0
H637 H 0.97562 0.20266 0.81616 0.0
H638 H 0.04255 0.10189 0.78527 0.0
H639 H 0.07726 0.0915 0.74754 0.0
C640 C 0.21827 0.38633 0.7948 0.0
C641 C 0.19135 0.42044 0.81499 0.0
C642 C 0.22646 0.48606 0.77977 0.0
C643 C 0.25516 0.45216 0.76092 0.0
N644 N 0.28866 0.37226 0.75799 0.0
N645 N 0.18215 0.50324 0.83361 0.0
C646 C 0.25465 0.40307 0.77115 0.0
C647 C 0.19977 0.47052 0.80981 0.0
N648 N 0.20686 0.33834 0.79579 0.0
N649 N 0.2222 0.53235 0.76794 0.0
H650 H 0.16351 0.49279 0.85634 0.0
H651 H 0.19054 0.5399 0.83268 0.0
H652 H 0.24013 0.54503 0.74559 0.0
H653 H 0.19765 0.55691 0.77863 0.0
H654 H 0.22211 0.31306 0.77863 0.0
H655 H 0.17898 0.32428 0.81116 0.0
H656 H 0.29312 0.33747 0.76773 0.0
H657 H 0.31552 0.38342 0.74037 0.0
C658 C 0.5755 0.62362 0.28098 0.0
C659 C 0.56431 0.61573 0.31672 0.0
C660 C 0.49679 0.67389 0.31055 0.0
C661 C 0.51021 0.68189 0.27448 0.0
N662 N 0.53213 0.62705 0.22735 0.0
N663 N 0.51535 0.63554 0.36706 0.0
C664 C 0.54163 0.64681 0.25951 0.0
C665 C 0.52517 0.64174 0.33207 0.0
N666 N 0.61757 0.60721 0.26682 0.0
N667 N 0.45288 0.68968 0.32219 0.0
H668 H 0.53541 0.61205 0.38266 0.0
H669 H 0.49032 0.656 0.38114 0.0
H670 H 0.42695 0.70245 0.30474 0.0
H671 H 0.43926 0.68363 0.34739 0.0
H672 H 0.62649 0.61276 0.24035 0.0
H673 H 0.64517 0.59441 0.2828 0.0
H674 H 0.5525 0.5986 0.21696 0.0
H675 H 0.50001 0.63438 0.21411 0.0
C676 C 0.28331 0.02501 0.81305 0.0
C677 C 0.29264 0.07528 0.81641 0.0
C678 C 0.22678 0.09029 0.77468 0.0
C679 C 0.22705 0.04097 0.76488 0.0
N680 N 0.25759 0.96055 0.77417 0.0
N681 N 0.27261 0.15688 0.79868 0.0
C682 C 0.25517 1.00781 0.78436 0.0
C683 C 0.26344 0.10846 0.79739 0.0
N684 N 0.30181 0.99378 0.8372 0.0
N685 N 0.19184 0.11976 0.76164 0.0
H686 H 0.29981 0.17224 0.81379 0.0
H687 H 0.25574 0.18171 0.7823 0.0
H688 H 0.16443 0.10636 0.74562 0.0
H689 H 0.18693 0.15537 0.76983 0.0
H690 H 0.29318 0.95716 0.83772 0.0
H691 H 0.32158 1.00571 0.85892 0.0
H692 H 0.28194 0.93612 0.78491 0.0
H693 H 0.23759 0.94653 0.75331 0.0
C694 C 0.93085 0.84685 0.25694 0.0
C695 C 0.964 0.814 0.27238 0.0
C696 C 0.94781 0.85566 0.32934 0.0
C697 C 0.90766 0.87979 0.31405 0.0
N698 N 0.85623 0.8902 0.26378 0.0
N699 N 0.02265 0.81218 0.31893 0.0
C700 C 0.89662 0.87081 0.27839 0.0
C701 C 0.97743 0.82435 0.30795 0.0
N702 N 0.9403 0.86589 0.22455 0.0
N703 N 0.95855 0.8639 0.36392 0.0
H704 H 0.04895 0.79975 0.30134 0.0
H705 H 0.0367 0.82102 0.34349 0.0
H706 H 0.93993 0.88887 0.37942 0.0
H707 H 0.9835 0.84369 0.37798 0.0
H708 H 0.91913 0.89297 0.21348 0.0
H709 H 0.9737 0.8609 0.21215 0.0
H710 H 0.84673 0.8833 0.23764 0.0
H711 H 0.83097 0.90954 0.27868 0.0
loop_
_geom_bond_atom_site_label_1
_geom_bond_atom_site_label_2
_geom_bond_distance
_geom_bond_site_symmetry_2
_ccdc_geom_bond_type
C0 C1 1.443 . S
C0 N4 1.376 . S
C0 C38 1.389 . S
C1 C0 1.443 . S
C1 C2 1.340 . S
C1 H41 0.951 . S
C2 C1 1.340 . S
C2 C3 1.439 . S
C2 H42 0.950 . S
C3 C2 1.439 . S
C3 N4 1.374 . S
C3 C37 1.395 . S
N4 C0 1.376 . S
N4 C3 1.374 . S
N4 Co5 2.008 1_655 S
Co5 N4 2.008 1_455 S
Co5 N6 1.995 . S
Co5 N11 2.008 . S
Co5 N16 1.995 1_455 S
Co5 N21 2.282 . S
Co5 N27 2.282 1_455 S
N6 Co5 1.995 . S
N6 C7 1.376 1_455 S
N6 C10 1.383 . S
C7 N6 1.376 1_655 S
C7 C8 1.446 1_655 S
C7 C37 1.391 . S
C8 C7 1.446 1_455 S
C8 C9 1.339 . S
C8 H43 0.949 . S
C9 C8 1.339 . S
C9 C10 1.439 . S
C9 H44 0.950 . S
C10 N6 1.383 . S
C10 C9 1.439 . S
C10 C39 1.392 . S
N11 Co5 2.008 . S
N11 C12 1.376 . S
N11 C15 1.374 . S
C12 N11 1.376 . S
C12 C13 1.443 . S
C12 C39 1.389 . S
C13 C12 1.443 . S
C13 C14 1.340 . S
C13 H45 0.951 . S
C14 C13 1.340 . S
C14 C15 1.439 . S
C14 H46 0.950 . S
C15 N11 1.374 . S
C15 C14 1.439 . S
C15 C40 1.395 . S
N16 Co5 1.995 1_655 S
N16 C17 1.376 1_655 S
N16 C20 1.383 . S
C17 N16 1.376 1_455 S
C17 C18 1.446 1_455 S
C17 C40 1.391 . S
C18 C17 1.446 1_655 S
C18 C19 1.339 . S
C18 H47 0.949 . S
C19 C18 1.339 . S
C19 C20 1.439 . S
C19 H48 0.950 . S
C20 N16 1.383 . S
C20 C19 1.439 . S
C20 C38 1.392 . S
N21 Co5 2.282 . S
N21 C24 1.332 . S
N21 C26 1.332 . S
C22 C23 1.386 . S
C22 C25 1.388 . S
C23 C22 1.386 . S
C23 C24 1.382 . S
C23 H49 0.950 . S
C24 N21 1.332 . S
C24 C23 1.382 . S
C24 H35 0.952 . S
C25 C22 1.388 . S
C25 C26 1.382 . S
C25 H50 0.950 . S
C26 N21 1.332 . S
C26 C25 1.382 . S
C26 H36 0.948 1_455 S
N27 Co5 2.282 1_655 S
N27 C31 1.332 . S
N27 C32 1.332 . S
C28 C29 1.388 . S
C28 C32 1.382 . S
C28 H51 0.950 . S
C29 C28 1.388 . S
C29 C30 1.386 . S
C30 C29 1.386 . S
C30 C31 1.382 . S
C30 H52 0.950 . S
C31 N27 1.332 . S
C31 C30 1.382 . S
C31 H33 0.952 . S
C32 N27 1.332 . S
C32 C28 1.382 . S
C32 H34 0.948 1_655 S
H33 C31 0.952 . S
H34 C32 0.948 1_455 S
H35 C24 0.952 . S
H36 C26 0.948 1_655 S
C37 C3 1.395 . S
C37 C7 1.391 . S
C38 C0 1.389 . S
C38 C20 1.392 . S
C39 C10 1.392 . S
C39 C12 1.389 . S
C40 C15 1.395 . S
C40 C17 1.391 . S
H41 C1 0.951 . S
H42 C2 0.950 . S
H43 C8 0.949 . S
H44 C9 0.950 . S
H45 C13 0.951 . S
H46 C14 0.950 . S
H47 C18 0.949 . S
H48 C19 0.950 . S
H49 C23 0.950 . S
H50 C25 0.950 . S
H51 C28 0.950 . S
H52 C30 0.950 . S
C53 C54 1.443 . S
C53 N57 1.376 . S
C53 C91 1.389 . S
C54 C53 1.443 . S
C54 C55 1.340 . S
C54 H94 0.951 . S
C55 C54 1.340 . S
C55 C56 1.439 . S
C55 H95 0.950 . S
C56 C55 1.439 . S
C56 N57 1.374 . S
C56 C90 1.395 . S
N57 C53 1.376 . S
N57 C56 1.374 . S
N57 Co58 2.008 . S
Co58 N57 2.008 . S
Co58 N59 1.995 . S
Co58 N64 2.008 . S
Co58 N69 1.995 . S
Co58 N74 2.282 . S
Co58 N80 2.282 . S
N59 Co58 1.995 . S
N59 C60 1.376 . S
N59 C63 1.383 . S
C60 N59 1.376 . S
C60 C61 1.446 . S
C60 C90 1.391 . S
C61 C60 1.446 . S
C61 C62 1.339 . S
C61 H96 0.949 . S
C62 C61 1.339 . S
C62 C63 1.439 . S
C62 H97 0.950 . S
C63 N59 1.383 . S
C63 C62 1.439 . S
C63 C92 1.392 . S
N64 Co58 2.008 . S
N64 C65 1.376 . S
N64 C68 1.374 . S
C65 N64 1.376 . S
C65 C66 1.443 . S
C65 C92 1.389 . S
C66 C65 1.443 . S
C66 C67 1.340 . S
C66 H98 0.951 . S
C67 C66 1.340 . S
C67 C68 1.439 . S
C67 H99 0.950 . S
C68 N64 1.374 . S
C68 C67 1.439 . S
C68 C93 1.395 . S
N69 Co58 1.995 . S
N69 C70 1.376 . S
N69 C73 1.383 . S
C70 N69 1.376 . S
C70 C71 1.446 . S
C70 C93 1.391 . S
C71 C70 1.446 . S
C71 C72 1.339 . S
C71 H100 0.949 . S
C72 C71 1.339 . S
C72 C73 1.439 . S
C72 H101 0.950 . S
C73 N69 1.383 . S
C73 C72 1.439 . S
C73 C91 1.392 . S
N74 Co58 2.282 . S
N74 C77 1.332 . S
N74 C79 1.332 . S
C75 C76 1.386 . S
C75 C78 1.388 . S
C76 C75 1.386 . S
C76 C77 1.382 . S
C76 H102 0.950 . S
C77 N74 1.332 . S
C77 C76 1.382 . S
C77 H88 0.952 . S
C78 C75 1.388 . S
C78 C79 1.382 . S
C78 H103 0.950 . S
C79 N74 1.332 . S
C79 C78 1.382 . S
C79 H89 0.948 . S
N80 Co58 2.282 . S
N80 C84 1.332 . S
N80 C85 1.332 . S
C81 C82 1.388 . S
C81 C85 1.382 . S
C81 H104 0.950 . S
C82 C81 1.388 . S
C82 C83 1.386 . S
C83 C82 1.386 . S
C83 C84 1.382 . S
C83 H105 0.950 . S
C84 N80 1.332 . S
C84 C83 1.382 . S
C84 H86 0.952 . S
C85 N80 1.332 . S
C85 C81 1.382 . S
C85 H87 0.948 . S
H86 C84 0.952 . S
H87 C85 0.948 . S
H88 C77 0.952 . S
H89 C79 0.948 . S
C90 C56 1.395 . S
C90 C60 1.391 . S
C91 C53 1.389 . S
C91 C73 1.392 . S
C92 C63 1.392 . S
C92 C65 1.389 . S
C93 C68 1.395 . S
C93 C70 1.391 . S
H94 C54 0.951 . S
H95 C55 0.950 . S
H96 C61 0.949 . S
H97 C62 0.950 . S
H98 C66 0.951 . S
H99 C67 0.950 . S
H100 C71 0.949 . S
H101 C72 0.950 . S
H102 C76 0.950 . S
H103 C78 0.950 . S
H104 C81 0.950 . S
H105 C83 0.950 . S
C106 C107 1.443 . S
C106 N110 1.376 . S
C106 C144 1.389 . S
C107 C106 1.443 . S
C107 C108 1.340 . S
C107 H147 0.951 . S
C108 C107 1.340 . S
C108 C109 1.439 . S
C108 H148 0.950 . S
C109 C108 1.439 . S
C109 N110 1.374 . S
C109 C143 1.395 . S
N110 C106 1.376 . S
N110 C109 1.374 . S
N110 Co111 2.008 . S
Co111 N110 2.008 . S
Co111 N112 1.995 . S
Co111 N117 2.008 . S
Co111 N122 1.995 . S
Co111 N127 2.282 . S
Co111 N133 2.282 . S
N112 Co111 1.995 . S
N112 C113 1.376 . S
N112 C116 1.383 . S
C113 N112 1.376 . S
C113 C114 1.446 . S
C113 C143 1.391 . S
C114 C113 1.446 . S
C114 C115 1.339 . S
C114 H149 0.949 . S
C115 C114 1.339 . S
C115 C116 1.439 . S
C115 H150 0.950 . S
C116 N112 1.383 . S
C116 C115 1.439 . S
C116 C145 1.392 . S
N117 Co111 2.008 . S
N117 C118 1.376 . S
N117 C121 1.374 . S
C118 N117 1.376 . S
C118 C119 1.443 . S
C118 C145 1.389 . S
C119 C118 1.443 . S
C119 C120 1.340 . S
C119 H151 0.951 . S
C120 C119 1.340 . S
C120 C121 1.439 . S
C120 H152 0.950 . S
C121 N117 1.374 . S
C121 C120 1.439 . S
C121 C146 1.395 . S
N122 Co111 1.995 . S
N122 C123 1.376 . S
N122 C126 1.383 . S
C123 N122 1.376 . S
C123 C124 1.446 . S
C123 C146 1.391 . S
C124 C123 1.446 . S
C124 C125 1.339 . S
C124 H153 0.949 . S
C125 C124 1.339 . S
C125 C126 1.439 . S
C125 H154 0.950 . S
C126 N122 1.383 . S
C126 C125 1.439 . S
C126 C144 1.392 . S
N127 Co111 2.282 . S
N127 C130 1.332 . S
N127 C132 1.332 . S
C128 C129 1.386 . S
C128 C131 1.388 . S
C129 C128 1.386 . S
C129 C130 1.382 . S
C129 H155 0.950 . S
C130 N127 1.332 . S
C130 C129 1.382 . S
C130 H141 0.952 . S
C131 C128 1.388 . S
C131 C132 1.382 . S
C131 H156 0.950 . S
C132 N127 1.332 . S
C132 C131 1.382 . S
C132 H142 0.948 . S
N133 Co111 2.282 . S
N133 C137 1.332 . S
N133 C138 1.332 . S
C134 C135 1.388 . S
C134 C138 1.382 . S
C134 H157 0.950 . S
C135 C134 1.388 . S
C135 C136 1.386 . S
C136 C135 1.386 . S
C136 C137 1.382 . S
C136 H158 0.950 . S
C137 N133 1.332 . S
C137 C136 1.382 . S
C137 H139 0.952 . S
C138 N133 1.332 . S
C138 C134 1.382 . S
C138 H140 0.948 . S
H139 C137 0.952 . S
H140 C138 0.948 . S
H141 C130 0.952 . S
H142 C132 0.948 . S
C143 C109 1.395 . S
C143 C113 1.391 . S
C144 C106 1.389 . S
C144 C126 1.392 . S
C145 C116 1.392 . S
C145 C118 1.389 . S
C146 C121 1.395 . S
C146 C123 1.391 . S
H147 C107 0.951 . S
H148 C108 0.950 . S
H149 C114 0.949 . S
H150 C115 0.950 . S
H151 C119 0.951 . S
H152 C120 0.950 . S
H153 C124 0.949 . S
H154 C125 0.950 . S
H155 C129 0.950 . S
H156 C131 0.950 . S
H157 C134 0.950 . S
H158 C136 0.950 . S
C159 C160 1.443 . S
C159 N163 1.376 . S
C159 C197 1.389 . S
C160 C159 1.443 . S
C160 C161 1.340 . S
C160 H200 0.951 . S
C161 C160 1.340 . S
C161 C162 1.439 . S
C161 H201 0.950 . S
C162 C161 1.439 . S
C162 N163 1.374 . S
C162 C196 1.395 . S
N163 C159 1.376 . S
N163 C162 1.374 . S
N163 Co164 2.008 . S
Co164 N163 2.008 . S
Co164 N165 1.995 . S
Co164 N170 2.008 1_565 S
Co164 N175 1.995 1_565 S
Co164 N180 2.282 1_565 S
Co164 N186 2.282 . S
N165 Co164 1.995 . S
N165 C166 1.376 . S
N165 C169 1.383 . S
C166 N165 1.376 . S
C166 C167 1.446 . S
C166 C196 1.391 . S
C167 C166 1.446 . S
C167 C168 1.339 . S
C167 H202 0.949 . S
C168 C167 1.339 . S
C168 C169 1.439 . S
C168 H203 0.950 . S
C169 N165 1.383 . S
C169 C168 1.439 . S
C169 C198 1.392 1_565 S
N170 Co164 2.008 1_545 S
N170 C171 1.376 . S
N170 C174 1.374 . S
C171 N170 1.376 . S
C171 C172 1.443 . S
C171 C198 1.389 . S
C172 C171 1.443 . S
C172 C173 1.340 . S
C172 H204 0.951 . S
C173 C172 1.340 . S
C173 C174 1.439 . S
C173 H205 0.950 . S
C174 N170 1.374 . S
C174 C173 1.439 . S
C174 C199 1.395 . S
N175 Co164 1.995 1_545 S
N175 C176 1.376 . S
N175 C179 1.383 . S
C176 N175 1.376 . S
C176 C177 1.446 . S
C176 C199 1.391 . S
C177 C176 1.446 . S
C177 C178 1.339 . S
C177 H206 0.949 . S
C178 C177 1.339 . S
C178 C179 1.439 . S
C178 H207 0.950 . S
C179 N175 1.383 . S
C179 C178 1.439 . S
C179 C197 1.392 1_545 S
N180 Co164 2.282 1_545 S
N180 C183 1.332 . S
N180 C185 1.332 . S
C181 C182 1.386 . S
C181 C184 1.388 . S
C182 C181 1.386 . S
C182 C183 1.382 . S
C182 H208 0.950 . S
C183 N180 1.332 . S
C183 C182 1.382 . S
C183 H194 0.952 . S
C184 C181 1.388 . S
C184 C185 1.382 . S
C184 H209 0.950 . S
C185 N180 1.332 . S
C185 C184 1.382 . S
C185 H195 0.948 . S
N186 Co164 2.282 . S
N186 C190 1.332 . S
N186 C191 1.332 . S
C187 C188 1.388 . S
C187 C191 1.382 . S
C187 H210 0.950 . S
C188 C187 1.388 . S
C188 C189 1.386 . S
C189 C188 1.386 . S
C189 C190 1.382 . S
C189 H211 0.950 . S
C190 N186 1.332 . S
C190 C189 1.382 . S
C190 H192 0.952 . S
C191 N186 1.332 . S
C191 C187 1.382 . S
C191 H193 0.948 . S
H192 C190 0.952 . S
H193 C191 0.948 . S
H194 C183 0.952 . S
H195 C185 0.948 . S
C196 C162 1.395 . S
C196 C166 1.391 . S
C197 C159 1.389 . S
C197 C179 1.392 1_565 S
C198 C169 1.392 1_545 S
C198 C171 1.389 . S
C199 C174 1.395 . S
C199 C176 1.391 . S
H200 C160 0.951 . S
H201 C161 0.950 . S
H202 C167 0.949 . S
H203 C168 0.950 . S
H204 C172 0.951 . S
H205 C173 0.950 . S
H206 C177 0.949 . S
H207 C178 0.950 . S
H208 C182 0.950 . S
H209 C184 0.950 . S
H210 C187 0.950 . S
H211 C189 0.950 . S
C212 C213 1.441 1_655 S
C212 N216 1.373 1_655 S
C212 C250 1.395 . S
C213 C212 1.441 1_455 S
C213 C214 1.340 . S
C213 H253 0.951 1_556 S
C214 C213 1.340 . S
C214 C215 1.439 . S
C214 H254 0.950 1_556 S
C215 C214 1.439 . S
C215 N216 1.374 . S
C215 C249 1.395 . S
N216 C212 1.373 1_455 S
N216 C215 1.374 . S
N216 Co217 2.008 1_455 S
Co217 N216 2.008 1_655 S
Co217 N218 1.995 1_655 S
Co217 N223 2.008 . S
Co217 N228 1.995 . S
Co217 N233 2.282 1_655 S
Co217 N239 2.282 . S
N218 Co217 1.995 1_455 S
N218 C219 1.376 . S
N218 C222 1.383 . S
C219 N218 1.376 . S
C219 C220 1.446 . S
C219 C249 1.391 . S
C220 C219 1.446 . S
C220 C221 1.339 . S
C220 H255 0.949 . S
C221 C220 1.339 . S
C221 C222 1.439 . S
C221 H256 0.950 . S
C222 N218 1.383 . S
C222 C221 1.439 . S
C222 C251 1.392 . S
N223 Co217 2.008 . S
N223 C224 1.374 1_655 S
N223 C227 1.374 . S
C224 N223 1.374 1_455 S
C224 C225 1.442 1_455 S
C224 C251 1.392 . S
C225 C224 1.442 1_655 S
C225 C226 1.340 . S
C225 H257 0.951 . S
C226 C225 1.340 . S
C226 C227 1.439 . S
C226 H258 0.950 . S
C227 N223 1.374 . S
C227 C226 1.439 . S
C227 C252 1.395 . S
N228 Co217 1.995 . S
N228 C229 1.376 . S
N228 C232 1.383 . S
C229 N228 1.376 . S
C229 C230 1.446 . S
C229 C252 1.391 . S
C230 C229 1.446 . S
C230 C231 1.339 . S
C230 H259 0.949 . S
C231 C230 1.339 . S
C231 C232 1.439 . S
C231 H260 0.950 . S
C232 N228 1.383 . S
C232 C231 1.439 . S
C232 C250 1.392 . S
N233 Co217 2.282 1_455 S
N233 C236 1.332 . S
N233 C238 1.332 . S
C234 C235 1.386 . S
C234 C237 1.388 . S
C235 C234 1.386 . S
C235 C236 1.382 . S
C235 H261 0.950 . S
C236 N233 1.332 . S
C236 C235 1.382 . S
C236 H247 0.952 . S
C237 C234 1.388 . S
C237 C238 1.382 . S
C237 H262 0.950 . S
C238 N233 1.332 . S
C238 C237 1.382 . S
C238 H248 0.948 . S
N239 Co217 2.282 . S
N239 C243 1.332 . S
N239 C244 1.332 . S
C240 C241 1.388 . S
C240 C244 1.382 . S
C240 H263 0.950 . S
C241 C240 1.388 . S
C241 C242 1.386 . S
C242 C241 1.386 . S
C242 C243 1.382 . S
C242 H264 0.950 . S
C243 N239 1.332 . S
C243 C242 1.382 . S
C243 H245 0.952 . S
C244 N239 1.332 . S
C244 C240 1.382 . S
C244 H246 0.948 . S
H245 C243 0.952 . S
H246 C244 0.948 . S
H247 C236 0.952 . S
H248 C238 0.948 . S
C249 C215 1.395 . S
C249 C219 1.391 . S
C250 C212 1.395 . S
C250 C232 1.392 . S
C251 C222 1.392 . S
C251 C224 1.392 . S
C252 C227 1.395 . S
C252 C229 1.391 . S
H253 C213 0.951 1_554 S
H254 C214 0.950 1_554 S
H255 C220 0.949 . S
H256 C221 0.950 . S
H257 C225 0.951 . S
H258 C226 0.950 . S
H259 C230 0.949 . S
H260 C231 0.950 . S
H261 C235 0.950 . S
H262 C237 0.950 . S
H263 C240 0.950 . S
H264 C242 0.950 . S
C265 C266 1.443 . S
C265 N269 1.376 . S
C265 C303 1.389 . S
C266 C265 1.443 . S
C266 C267 1.340 . S
C266 H306 0.951 . S
C267 C266 1.340 . S
C267 C268 1.439 . S
C267 H307 0.950 . S
C268 C267 1.439 . S
C268 N269 1.374 . S
C268 C302 1.395 . S
N269 C265 1.376 . S
N269 C268 1.374 . S
N269 Co270 2.008 . S
Co270 N269 2.008 . S
Co270 N271 1.995 . S
Co270 N276 2.008 . S
Co270 N281 1.995 . S
Co270 N286 2.282 . S
Co270 N292 2.282 . S
N271 Co270 1.995 . S
N271 C272 1.376 . S
N271 C275 1.383 . S
C272 N271 1.376 . S
C272 C273 1.446 . S
C272 C302 1.391 . S
C273 C272 1.446 . S
C273 C274 1.339 . S
C273 H308 0.949 . S
C274 C273 1.339 . S
C274 C275 1.439 . S
C274 H309 0.950 . S
C275 N271 1.383 . S
C275 C274 1.439 . S
C275 C304 1.392 . S
N276 Co270 2.008 . S
N276 C277 1.376 . S
N276 C280 1.374 . S
C277 N276 1.376 . S
C277 C278 1.443 . S
C277 C304 1.389 . S
C278 C277 1.443 . S
C278 C279 1.340 . S
C278 H310 0.951 . S
C279 C278 1.340 . S
C279 C280 1.439 . S
C279 H311 0.950 . S
C280 N276 1.374 . S
C280 C279 1.439 . S
C280 C305 1.395 . S
N281 Co270 1.995 . S
N281 C282 1.376 . S
N281 C285 1.383 . S
C282 N281 1.376 . S
C282 C283 1.446 . S
C282 C305 1.391 . S
C283 C282 1.446 . S
C283 C284 1.339 . S
C283 H312 0.949 . S
C284 C283 1.339 . S
C284 C285 1.439 . S
C284 H313 0.950 . S
C285 N281 1.383 . S
C285 C284 1.439 . S
C285 C303 1.392 . S
N286 Co270 2.282 . S
N286 C289 1.332 . S
N286 C291 1.332 . S
C287 C288 1.386 . S
C287 C290 1.388 . S
C288 C287 1.386 . S
C288 C289 1.382 . S
C288 H314 0.950 . S
C289 N286 1.332 . S
C289 C288 1.382 . S
C289 H300 0.952 . S
C290 C287 1.388 . S
C290 C291 1.382 . S
C290 H315 0.950 . S
C291 N286 1.332 . S
C291 C290 1.382 . S
C291 H301 0.948 . S
N292 Co270 2.282 . S
N292 C296 1.332 . S
N292 C297 1.332 . S
C293 C294 1.388 . S
C293 C297 1.382 . S
C293 H316 0.950 . S
C294 C293 1.388 . S
C294 C295 1.386 . S
C295 C294 1.386 . S
C295 C296 1.382 . S
C295 H317 0.950 . S
C296 N292 1.332 . S
C296 C295 1.382 . S
C296 H298 0.952 . S
C297 N292 1.332 . S
C297 C293 1.382 . S
C297 H299 0.948 . S
H298 C296 0.952 . S
H299 C297 0.948 . S
H300 C289 0.952 . S
H301 C291 0.948 . S
C302 C268 1.395 . S
C302 C272 1.391 . S
C303 C265 1.389 . S
C303 C285 1.392 . S
C304 C275 1.392 . S
C304 C277 1.389 . S
C305 C280 1.395 . S
C305 C282 1.391 . S
H306 C266 0.951 . S
H307 C267 0.950 . S
H308 C273 0.949 . S
H309 C274 0.950 . S
H310 C278 0.951 . S
H311 C279 0.950 . S
H312 C283 0.949 . S
H313 C284 0.950 . S
H314 C288 0.950 . S
H315 C290 0.950 . S
H316 C293 0.950 . S
H317 C295 0.950 . S
C318 C319 1.443 . S
C318 N322 1.376 . S
C318 C356 1.389 . S
C319 C318 1.443 . S
C319 C320 1.340 . S
C319 H359 0.951 1_556 S
C320 C319 1.340 . S
C320 C321 1.439 . S
C320 H360 0.950 1_556 S
C321 C320 1.439 . S
C321 N322 1.374 . S
C321 C355 1.395 . S
N322 C318 1.376 . S
N322 C321 1.374 . S
N322 Co323 2.008 . S
Co323 N322 2.008 . S
Co323 N324 1.995 . S
Co323 N329 2.008 . S
Co323 N334 1.995 . S
Co323 N339 2.282 . S
Co323 N345 2.282 . S
N324 Co323 1.995 . S
N324 C325 1.376 . S
N324 C328 1.383 . S
C325 N324 1.376 . S
C325 C326 1.446 . S
C325 C355 1.391 . S
C326 C325 1.446 . S
C326 C327 1.339 . S
C326 H361 0.949 . S
C327 C326 1.339 . S
C327 C328 1.439 . S
C327 H362 0.950 . S
C328 N324 1.383 . S
C328 C327 1.439 . S
C328 C357 1.392 . S
N329 Co323 2.008 . S
N329 C330 1.376 . S
N329 C333 1.374 . S
C330 N329 1.376 . S
C330 C331 1.443 . S
C330 C357 1.389 . S
C331 C330 1.443 . S
C331 C332 1.340 . S
C331 H363 0.951 . S
C332 C331 1.340 . S
C332 C333 1.439 . S
C332 H364 0.950 . S
C333 N329 1.374 . S
C333 C332 1.439 . S
C333 C358 1.395 . S
N334 Co323 1.995 . S
N334 C335 1.376 . S
N334 C338 1.383 . S
C335 N334 1.376 . S
C335 C336 1.446 . S
C335 C358 1.391 . S
C336 C335 1.446 . S
C336 C337 1.339 . S
C336 H365 0.949 . S
C337 C336 1.339 . S
C337 C338 1.439 . S
C337 H366 0.950 . S
C338 N334 1.383 . S
C338 C337 1.439 . S
C338 C356 1.392 . S
N339 Co323 2.282 . S
N339 C342 1.332 . S
N339 C344 1.332 . S
C340 C341 1.386 . S
C340 C343 1.388 . S
C341 C340 1.386 . S
C341 C342 1.382 . S
C341 H367 0.950 . S
C342 N339 1.332 . S
C342 C341 1.382 . S
C342 H353 0.952 . S
C343 C340 1.388 . S
C343 C344 1.382 . S
C343 H368 0.950 . S
C344 N339 1.332 . S
C344 C343 1.382 . S
C344 H354 0.948 . S
N345 Co323 2.282 . S
N345 C349 1.332 . S
N345 C350 1.332 . S
C346 C347 1.388 . S
C346 C350 1.382 . S
C346 H369 0.950 . S
C347 C346 1.388 . S
C347 C348 1.386 . S
C348 C347 1.386 . S
C348 C349 1.382 . S
C348 H370 0.950 . S
C349 N345 1.332 . S
C349 C348 1.382 . S
C349 H351 0.952 . S
C350 N345 1.332 . S
C350 C346 1.382 . S
C350 H352 0.948 . S
H351 C349 0.952 . S
H352 C350 0.948 . S
H353 C342 0.952 . S
H354 C344 0.948 . S
C355 C321 1.395 . S
C355 C325 1.391 . S
C356 C318 1.389 . S
C356 C338 1.392 . S
C357 C328 1.392 . S
C357 C330 1.389 . S
C358 C333 1.395 . S
C358 C335 1.391 . S
H359 C319 0.951 1_554 S
H360 C320 0.950 1_554 S
H361 C326 0.949 . S
H362 C327 0.950 . S
H363 C331 0.951 . S
H364 C332 0.950 . S
H365 C336 0.949 . S
H366 C337 0.950 . S
H367 C341 0.950 . S
H368 C343 0.950 . S
H369 C346 0.950 . S
H370 C348 0.950 . S
C371 C372 1.443 . S
C371 N375 1.376 . S
C371 C409 1.389 . S
C372 C371 1.443 . S
C372 C373 1.340 . S
C372 H412 0.951 . S
C373 C372 1.340 . S
C373 C374 1.439 1_565 S
C373 H413 0.950 . S
C374 C373 1.439 1_545 S
C374 N375 1.374 1_545 S
C374 C408 1.395 . S
N375 C371 1.376 . S
N375 C374 1.374 1_565 S
N375 Co376 2.008 1_565 S
Co376 N375 2.008 1_545 S
Co376 N377 1.995 . S
Co376 N382 2.008 . S
Co376 N387 1.995 1_545 S
Co376 N392 2.282 . S
Co376 N398 2.282 1_545 S
N377 Co376 1.995 . S
N377 C378 1.376 . S
N377 C381 1.383 . S
C378 N377 1.376 . S
C378 C379 1.446 . S
C378 C408 1.391 . S
C379 C378 1.446 . S
C379 C380 1.339 . S
C379 H414 0.949 . S
C380 C379 1.339 . S
C380 C381 1.439 . S
C380 H415 0.950 . S
C381 N377 1.383 . S
C381 C380 1.439 . S
C381 C410 1.392 . S
N382 Co376 2.008 . S
N382 C383 1.376 . S
N382 C386 1.374 1_545 S
C383 N382 1.376 . S
C383 C384 1.443 . S
C383 C410 1.389 . S
C384 C383 1.443 . S
C384 C385 1.340 . S
C384 H416 0.951 . S
C385 C384 1.340 . S
C385 C386 1.439 1_545 S
C385 H417 0.950 . S
C386 N382 1.374 1_565 S
C386 C385 1.439 1_565 S
C386 C411 1.395 . S
N387 Co376 1.995 1_565 S
N387 C388 1.376 . S
N387 C391 1.383 . S
C388 N387 1.376 . S
C388 C389 1.446 . S
C388 C411 1.391 . S
C389 C388 1.446 . S
C389 C390 1.339 . S
C389 H418 0.949 . S
C390 C389 1.339 . S
C390 C391 1.439 . S
C390 H419 0.950 . S
C391 N387 1.383 . S
C391 C390 1.439 . S
C391 C409 1.392 . S
N392 Co376 2.282 . S
N392 C395 1.332 1_545 S
N392 C397 1.332 . S
C393 C394 1.386 . S
C393 C396 1.388 . S
C394 C393 1.386 . S
C394 C395 1.382 1_545 S
C394 H420 0.950 1_545 S
C395 N392 1.332 1_565 S
C395 C394 1.382 1_565 S
C395 H406 0.952 . S
C396 C393 1.388 . S
C396 C397 1.382 . S
C396 H421 0.950 . S
C397 N392 1.332 . S
C397 C396 1.382 . S
C397 H407 0.948 . S
N398 Co376 2.282 1_565 S
N398 C402 1.332 1_565 S
N398 C403 1.332 . S
C399 C400 1.388 . S
C399 C403 1.382 . S
C399 H422 0.950 . S
C400 C399 1.388 . S
C400 C401 1.386 . S
C401 C400 1.386 . S
C401 C402 1.382 1_565 S
C401 H423 0.950 1_565 S
C402 N398 1.332 1_545 S
C402 C401 1.382 1_545 S
C402 H404 0.952 . S
C403 N398 1.332 . S
C403 C399 1.382 . S
C403 H405 0.948 . S
H404 C402 0.952 . S
H405 C403 0.948 . S
H406 C395 0.952 . S
H407 C397 0.948 . S
C408 C374 1.395 . S
C408 C378 1.391 . S
C409 C371 1.389 . S
C409 C391 1.392 . S
C410 C381 1.392 . S
C410 C383 1.389 . S
C411 C386 1.395 . S
C411 C388 1.391 . S
H412 C372 0.951 . S
H413 C373 0.950 . S
H414 C379 0.949 . S
H415 C380 0.950 . S
H416 C384 0.951 . S
H417 C385 0.950 . S
H418 C389 0.949 . S
H419 C390 0.950 . S
H420 C394 0.950 1_565 S
H421 C396 0.950 . S
H422 C399 0.950 . S
H423 C401 0.950 1_545 S
C424 C425 1.363 . S
C424 C430 1.379 . S
C424 N432 1.356 . S
C425 C424 1.363 . S
C425 C431 1.363 1_655 S
C426 C427 1.363 . S
C426 C431 1.379 1_554 S
C426 N433 1.356 . S
C427 C426 1.363 . S
C427 C430 1.363 1_454 S
N428 C430 1.356 . S
N428 H440 0.984 . S
N428 H441 0.985 1_656 S
N429 C431 1.356 . S
N429 H434 0.984 . S
N429 H435 0.985 1_556 S
C430 C424 1.379 . S
C430 C427 1.363 1_656 S
C430 N428 1.356 . S
C431 C425 1.363 1_455 S
C431 C426 1.379 1_556 S
C431 N429 1.356 . S
N432 C424 1.356 . S
N432 H438 0.984 . S
N432 H439 0.984 . S
N433 C426 1.356 . S
N433 H436 0.984 . S
N433 H437 0.985 . S
H434 N429 0.984 . S
H435 N429 0.985 1_554 S
H436 N433 0.984 . S
H437 N433 0.985 . S
H438 N432 0.984 . S
H439 N432 0.984 . S
H440 N428 0.984 . S
H441 N428 0.985 1_454 S
C442 C443 1.363 . S
C442 C448 1.379 . S
C442 N450 1.356 . S
C443 C442 1.363 . S
C443 C449 1.363 . S
C444 C445 1.363 . S
C444 C449 1.379 . S
C444 N451 1.356 . S
C445 C444 1.363 . S
C445 C448 1.363 . S
N446 C448 1.356 . S
N446 H458 0.984 . S
N446 H459 0.985 . S
N447 C449 1.356 . S
N447 H452 0.984 . S
N447 H453 0.985 . S
C448 C442 1.379 . S
C448 C445 1.363 . S
C448 N446 1.356 . S
C449 C443 1.363 . S
C449 C444 1.379 . S
C449 N447 1.356 . S
N450 C442 1.356 . S
N450 H456 0.984 . S
N450 H457 0.984 . S
N451 C444 1.356 . S
N451 H454 0.984 . S
N451 H455 0.985 . S
H452 N447 0.984 . S
H453 N447 0.985 . S
H454 N451 0.984 . S
H455 N451 0.985 . S
H456 N450 0.984 . S
H457 N450 0.984 . S
H458 N446 0.984 . S
H459 N446 0.985 . S
C460 C461 1.347 1_545 S
C460 C466 1.397 . S
C460 N468 1.352 1_545 S
C461 C460 1.347 1_565 S
C461 C467 1.363 1_554 S
C462 C463 1.363 1_565 S
C462 C467 1.379 . S
C462 N469 1.356 1_565 S
C463 C462 1.363 1_545 S
C463 C466 1.358 1_556 S
N464 C466 1.356 . S
N464 H476 0.986 . S
N464 H477 0.983 1_554 S
N465 C467 1.356 . S
N465 H470 0.984 1_556 S
N465 H471 0.985 . S
C466 C460 1.397 . S
C466 C463 1.358 1_554 S
C466 N464 1.356 . S
C467 C461 1.363 1_556 S
C467 C462 1.379 . S
C467 N465 1.356 . S
N468 C460 1.352 1_565 S
N468 H474 0.984 1_565 S
N468 H475 0.984 . S
N469 C462 1.356 1_545 S
N469 H472 0.984 . S
N469 H473 0.985 1_545 S
H470 N465 0.984 1_554 S
H471 N465 0.985 . S
H472 N469 0.984 . S
H473 N469 0.985 1_565 S
H474 N468 0.984 1_545 S
H475 N468 0.984 . S
H476 N464 0.986 . S
H477 N464 0.983 1_556 S
C478 C479 1.363 1_455 S
C478 C484 1.379 . S
C478 N486 1.356 . S
C479 C478 1.363 1_655 S
C479 C485 1.363 . S
C480 C481 1.363 1_655 S
C480 C485 1.379 1_565 S
C480 N487 1.356 . S
C481 C480 1.363 1_455 S
C481 C484 1.363 1_565 S
N482 C484 1.356 . S
N482 H494 0.984 . S
N482 H495 0.985 1_545 S
N483 C485 1.356 . S
N483 H488 0.984 . S
N483 H489 0.985 1_545 S
C484 C478 1.379 . S
C484 C481 1.363 1_545 S
C484 N482 1.356 . S
C485 C479 1.363 . S
C485 C480 1.379 1_545 S
C485 N483 1.356 . S
N486 C478 1.356 . S
N486 H492 0.984 . S
N486 H493 0.984 1_455 S
N487 C480 1.356 . S
N487 H490 0.984 1_655 S
N487 H491 0.985 . S
H488 N483 0.984 . S
H489 N483 0.985 1_565 S
H490 N487 0.984 1_455 S
H491 N487 0.985 . S
H492 N486 0.984 . S
H493 N486 0.984 1_655 S
H494 N482 0.984 . S
H495 N482 0.985 1_565 S
C496 C497 1.363 . S
C496 C502 1.379 . S
C496 N504 1.356 . S
C497 C496 1.363 . S
C497 C503 1.363 . S
C498 C499 1.363 . S
C498 C503 1.379 . S
C498 N505 1.356 . S
C499 C498 1.363 . S
C499 C502 1.363 . S
N500 C502 1.356 . S
N500 H512 0.984 . S
N500 H513 0.985 . S
N501 C503 1.356 . S
N501 H506 0.984 . S
N501 H507 0.985 . S
C502 C496 1.379 . S
C502 C499 1.363 . S
C502 N500 1.356 . S
C503 C497 1.363 . S
C503 C498 1.379 . S
C503 N501 1.356 . S
N504 C496 1.356 . S
N504 H510 0.984 . S
N504 H511 0.984 . S
N505 C498 1.356 . S
N505 H508 0.984 . S
N505 H509 0.985 . S
H506 N501 0.984 . S
H507 N501 0.985 . S
H508 N505 0.984 . S
H509 N505 0.985 . S
H510 N504 0.984 . S
H511 N504 0.984 . S
H512 N500 0.984 . S
H513 N500 0.985 . S
C514 C515 1.363 . S
C514 C520 1.379 . S
C514 N522 1.356 . S
C515 C514 1.363 . S
C515 C521 1.363 . S
C516 C517 1.363 . S
C516 C521 1.379 . S
C516 N523 1.356 . S
C517 C516 1.363 . S
C517 C520 1.363 . S
N518 C520 1.356 . S
N518 H530 0.984 . S
N518 H531 0.985 . S
N519 C521 1.356 . S
N519 H524 0.984 . S
N519 H525 0.985 . S
C520 C514 1.379 . S
C520 C517 1.363 . S
C520 N518 1.356 . S
C521 C515 1.363 . S
C521 C516 1.379 . S
C521 N519 1.356 . S
N522 C514 1.356 . S
N522 H528 0.984 . S
N522 H529 0.984 . S
N523 C516 1.356 . S
N523 H526 0.984 . S
N523 H527 0.985 . S
H524 N519 0.984 . S
H525 N519 0.985 . S
H526 N523 0.984 . S
H527 N523 0.985 . S
H528 N522 0.984 . S
H529 N522 0.984 . S
H530 N518 0.984 . S
H531 N518 0.985 . S
C532 C533 1.363 . S
C532 C538 1.379 . S
C532 N540 1.356 . S
C533 C532 1.363 . S
C533 C539 1.363 . S
C534 C535 1.363 . S
C534 C539 1.379 . S
C534 N541 1.356 . S
C535 C534 1.363 . S
C535 C538 1.363 . S
N536 C538 1.356 . S
N536 H548 0.984 1_556 S
N536 H549 0.985 . S
N537 C539 1.356 . S
N537 H542 0.984 . S
N537 H543 0.985 . S
C538 C532 1.379 . S
C538 C535 1.363 . S
C538 N536 1.356 . S
C539 C533 1.363 . S
C539 C534 1.379 . S
C539 N537 1.356 . S
N540 C532 1.356 . S
N540 H546 0.984 1_556 S
N540 H547 0.984 . S
N541 C534 1.356 . S
N541 H544 0.984 . S
N541 H545 0.985 . S
H542 N537 0.984 . S
H543 N537 0.985 . S
H544 N541 0.984 . S
H545 N541 0.985 . S
H546 N540 0.984 1_554 S
H547 N540 0.984 . S
H548 N536 0.984 1_554 S
H549 N536 0.985 . S
C550 C551 1.363 . S
C550 C556 1.379 . S
C550 N558 1.356 . S
C551 C550 1.363 . S
C551 C557 1.363 . S
C552 C553 1.363 . S
C552 C557 1.379 . S
C552 N559 1.356 . S
C553 C552 1.363 . S
C553 C556 1.363 . S
N554 C556 1.356 . S
N554 H566 0.984 . S
N554 H567 0.985 . S
N555 C557 1.356 . S
N555 H560 0.984 . S
N555 H561 0.985 . S
C556 C550 1.379 . S
C556 C553 1.363 . S
C556 N554 1.356 . S
C557 C551 1.363 . S
C557 C552 1.379 . S
C557 N555 1.356 . S
N558 C550 1.356 . S
N558 H564 0.984 . S
N558 H565 0.984 . S
N559 C552 1.356 . S
N559 H562 0.984 . S
N559 H563 0.985 . S
H560 N555 0.984 . S
H561 N555 0.985 . S
H562 N559 0.984 . S
H563 N559 0.985 . S
H564 N558 0.984 . S
H565 N558 0.984 . S
H566 N554 0.984 . S
H567 N554 0.985 . S
C568 C569 1.363 . S
C568 C574 1.379 . S
C568 N576 1.356 . S
C569 C568 1.363 . S
C569 C575 1.363 . S
C570 C571 1.363 . S
C570 C575 1.379 . S
C570 N577 1.356 . S
C571 C570 1.363 . S
C571 C574 1.363 . S
N572 C574 1.356 . S
N572 H584 0.984 . S
N572 H585 0.985 . S
N573 C575 1.356 . S
N573 H578 0.984 . S
N573 H579 0.985 . S
C574 C568 1.379 . S
C574 C571 1.363 . S
C574 N572 1.356 . S
C575 C569 1.363 . S
C575 C570 1.379 . S
C575 N573 1.356 . S
N576 C568 1.356 . S
N576 H582 0.984 . S
N576 H583 0.984 . S
N577 C570 1.356 . S
N577 H580 0.984 . S
N577 H581 0.985 . S
H578 N573 0.984 . S
H579 N573 0.985 . S
H580 N577 0.984 . S
H581 N577 0.985 . S
H582 N576 0.984 . S
H583 N576 0.984 . S
H584 N572 0.984 . S
H585 N572 0.985 . S
C586 C587 1.363 . S
C586 C592 1.379 . S
C586 N594 1.356 . S
C587 C586 1.363 . S
C587 C593 1.363 . S
C588 C589 1.363 . S
C588 C593 1.379 . S
C588 N595 1.356 . S
C589 C588 1.363 . S
C589 C592 1.363 . S
N590 C592 1.356 . S
N590 H602 0.984 . S
N590 H603 0.985 . S
N591 C593 1.356 . S
N591 H596 0.984 . S
N591 H597 0.985 . S
C592 C586 1.379 . S
C592 C589 1.363 . S
C592 N590 1.356 . S
C593 C587 1.363 . S
C593 C588 1.379 . S
C593 N591 1.356 . S
N594 C586 1.356 . S
N594 H600 0.984 . S
N594 H601 0.984 . S
N595 C588 1.356 . S
N595 H598 0.984 . S
N595 H599 0.985 . S
H596 N591 0.984 . S
H597 N591 0.985 . S
H598 N595 0.984 . S
H599 N595 0.985 . S
H600 N594 0.984 . S
H601 N594 0.984 . S
H602 N590 0.984 . S
H603 N590 0.985 . S
C604 C605 1.363 . S
C604 C610 1.379 . S
C604 N612 1.356 . S
C605 C604 1.363 . S
C605 C611 1.363 . S
C606 C607 1.363 . S
C606 C611 1.379 . S
C606 N613 1.356 . S
C607 C606 1.363 . S
C607 C610 1.363 . S
N608 C610 1.356 . S
N608 H620 0.984 . S
N608 H621 0.985 . S
N609 C611 1.356 . S
N609 H614 0.984 . S
N609 H615 0.985 . S
C610 C604 1.379 . S
C610 C607 1.363 . S
C610 N608 1.356 . S
C611 C605 1.363 . S
C611 C606 1.379 . S
C611 N609 1.356 . S
N612 C604 1.356 . S
N612 H618 0.984 . S
N612 H619 0.984 . S
N613 C606 1.356 . S
N613 H616 0.984 . S
N613 H617 0.985 . S
H614 N609 0.984 . S
H615 N609 0.985 . S
H616 N613 0.984 . S
H617 N613 0.985 . S
H618 N612 0.984 . S
H619 N612 0.984 . S
H620 N608 0.984 . S
H621 N608 0.985 . S
C622 C623 1.363 . S
C622 C628 1.379 . S
C622 N630 1.356 . S
C623 C622 1.363 . S
C623 C629 1.363 . S
C624 C625 1.363 . S
C624 C629 1.379 . S
C624 N631 1.356 . S
C625 C624 1.363 . S
C625 C628 1.363 . S
N626 C628 1.356 . S
N626 H638 0.984 . S
N626 H639 0.985 . S
N627 C629 1.356 . S
N627 H632 0.984 1_455 S
N627 H633 0.985 1_455 S
C628 C622 1.379 . S
C628 C625 1.363 . S
C628 N626 1.356 . S
C629 C623 1.363 . S
C629 C624 1.379 . S
C629 N627 1.356 . S
N630 C622 1.356 . S
N630 H636 0.984 . S
N630 H637 0.984 . S
N631 C624 1.356 . S
N631 H634 0.984 . S
N631 H635 0.985 . S
H632 N627 0.984 1_655 S
H633 N627 0.985 1_655 S
H634 N631 0.984 . S
H635 N631 0.985 . S
H636 N630 0.984 . S
H637 N630 0.984 . S
H638 N626 0.984 . S
H639 N626 0.985 . S
C640 C641 1.363 . S
C640 C646 1.379 . S
C640 N648 1.356 . S
C641 C640 1.363 . S
C641 C647 1.363 . S
C642 C643 1.363 . S
C642 C647 1.379 . S
C642 N649 1.356 . S
C643 C642 1.363 . S
C643 C646 1.363 . S
N644 C646 1.356 . S
N644 H656 0.984 . S
N644 H657 0.985 . S
N645 C647 1.356 . S
N645 H650 0.984 . S
N645 H651 0.985 . S
C646 C640 1.379 . S
C646 C643 1.363 . S
C646 N644 1.356 . S
C647 C641 1.363 . S
C647 C642 1.379 . S
C647 N645 1.356 . S
N648 C640 1.356 . S
N648 H654 0.984 . S
N648 H655 0.984 . S
N649 C642 1.356 . S
N649 H652 0.984 . S
N649 H653 0.985 . S
H650 N645 0.984 . S
H651 N645 0.985 . S
H652 N649 0.984 . S
H653 N649 0.985 . S
H654 N648 0.984 . S
H655 N648 0.984 . S
H656 N644 0.984 . S
H657 N644 0.985 . S
C658 C659 1.363 . S
C658 C664 1.379 . S
C658 N666 1.356 . S
C659 C658 1.363 . S
C659 C665 1.363 . S
C660 C661 1.363 . S
C660 C665 1.379 . S
C660 N667 1.356 . S
C661 C660 1.363 . S
C661 C664 1.363 . S
N662 C664 1.356 . S
N662 H674 0.984 . S
N662 H675 0.985 . S
N663 C665 1.356 . S
N663 H668 0.984 . S
N663 H669 0.985 . S
C664 C658 1.379 . S
C664 C661 1.363 . S
C664 N662 1.356 . S
C665 C659 1.363 . S
C665 C660 1.379 . S
C665 N663 1.356 . S
N666 C658 1.356 . S
N666 H672 0.984 . S
N666 H673 0.984 . S
N667 C660 1.356 . S
N667 H670 0.984 . S
N667 H671 0.985 . S
H668 N663 0.984 . S
H669 N663 0.985 . S
H670 N667 0.984 . S
H671 N667 0.985 . S
H672 N666 0.984 . S
H673 N666 0.984 . S
H674 N662 0.984 . S
H675 N662 0.985 . S
C676 C677 1.363 . S
C676 C682 1.379 . S
C676 N684 1.356 . S
C677 C676 1.363 . S
C677 C683 1.363 . S
C678 C679 1.363 . S
C678 C683 1.379 . S
C678 N685 1.356 . S
C679 C678 1.363 . S
C679 C682 1.363 . S
N680 C682 1.356 1_565 S
N680 H692 0.984 . S
N680 H693 0.985 . S
N681 C683 1.356 . S
N681 H686 0.984 . S
N681 H687 0.985 . S
C682 C676 1.379 . S
C682 C679 1.363 . S
C682 N680 1.356 1_545 S
C683 C677 1.363 . S
C683 C678 1.379 . S
C683 N681 1.356 . S
N684 C676 1.356 . S
N684 H690 0.962 1_545 S
N684 H691 0.984 . S
N685 C678 1.356 . S
N685 H688 0.984 . S
N685 H689 0.985 . S
H686 N681 0.984 . S
H687 N681 0.985 . S
H688 N685 0.984 . S
H689 N685 0.985 . S
H690 N684 0.962 1_565 S
H691 N684 0.984 . S
H692 N680 0.984 . S
H693 N680 0.985 . S
C694 C695 1.363 . S
C694 C700 1.379 . S
C694 N702 1.356 . S
C695 C694 1.363 . S
C695 C701 1.363 . S
C696 C697 1.363 . S
C696 C701 1.379 . S
C696 N703 1.356 . S
C697 C696 1.363 . S
C697 C700 1.363 . S
N698 C700 1.356 . S
N698 H710 0.984 . S
N698 H711 0.985 . S
N699 C701 1.356 . S
N699 H704 0.984 . S
N699 H705 0.985 . S
C700 C694 1.379 . S
C700 C697 1.363 . S
C700 N698 1.356 . S
C701 C695 1.363 . S
C701 C696 1.379 . S
C701 N699 1.356 . S
N702 C694 1.356 . S
N702 H708 0.984 . S
N702 H709 0.984 . S
N703 C696 1.356 . S
N703 H706 0.984 . S
N703 H707 0.985 . S
H704 N699 0.984 . S
H705 N699 0.985 . S
H706 N703 0.984 . S
H707 N703 0.985 . S
H708 N702 0.984 . S
H709 N702 0.984 . S
H710 N698 0.984 . S
H711 N698 0.985 . S
C425 C250 2.060 . S
C427 C22 2.050 . S
C443 C91 1.950 . S
C445 C287 1.945 . S
C461 C128 1.857 . S
C463 C356 1.864 . S
C479 C393 1.984 . S
C481 C197 1.997 . S
C497 C39 2.667 . S
C499 C145 2.667 . S
C515 C82 2.298 . S
C517 C188 2.315 . S
C533 C347 2.298 . S
C535 C241 2.291 . S
C551 C304 2.675 . S
C553 C410 2.693 . S
C569 C294 1.717 . S
C571 C38 1.652 . S
C587 C75 1.771 . S
C589 C357 1.919 . S
C605 C144 1.714 . S
C607 C400 1.779 . S
C623 C251 1.723 . S
C625 C181 1.610 . S
C641 C234 1.688 . S
C643 C92 1.808 . S
C659 C303 1.698 . S
C661 C135 1.792 . S
C677 C340 1.719 . S
C679 C198 1.854 . S
C695 C29 1.702 . S
C697 C409 1.642 . S
