# Generated by pormake.
# Topology snp, (6)-cn, num edge types: 1
# Building blocks:
#     Node 0, Type 0, BuildingBlock: BETDEL_clean_sbu_0, # of connection points: 6
#     Node 1, Type 0, BuildingBlock: BETDEL_clean_sbu_0, # of connection points: 6
#     Node 2, Type 0, BuildingBlock: BETDEL_clean_sbu_0, # of connection points: 6
#     Node 3, Type 0, BuildingBlock: BETDEL_clean_sbu_0, # of connection points: 6
#     Edge 4, Type (0, 0), BuildingBlock: MIFKUJ_clean_linker_0, # of connection points: 2
#     Edge 5, Type (0, 0), BuildingBlock: MIFKUJ_clean_linker_0, # of connection points: 2
#     Edge 6, Type (0, 0), BuildingBlock: MIFKUJ_clean_linker_0, # of connection points: 2
#     Edge 7, Type (0, 0), BuildingBlock: MIFKUJ_clean_linker_0, # of connection points: 2
#     Edge 8, Type (0, 0), BuildingBlock: MIFKUJ_clean_linker_0, # of connection points: 2
#     Edge 9, Type (0, 0), BuildingBlock: MIFKUJ_clean_linker_0, # of connection points: 2
#     Edge 10, Type (0, 0), BuildingBlock: MIFKUJ_clean_linker_0, # of connection points: 2
#     Edge 11, Type (0, 0), BuildingBlock: MIFKUJ_clean_linker_0, # of connection points: 2
#     Edge 12, Type (0, 0), BuildingBlock: MIFKUJ_clean_linker_0, # of connection points: 2
#     Edge 13, Type (0, 0), BuildingBlock: MIFKUJ_clean_linker_0, # of connection points: 2
#     Edge 14, Type (0, 0), BuildingBlock: MIFKUJ_clean_linker_0, # of connection points: 2
#     Edge 15, Type (0, 0), BuildingBlock: MIFKUJ_clean_linker_0, # of connection points: 2
# Relax obj value: 0.317
# Max RMSD: 0.193
# Mean RMSD: 0.191
data_MOF--net-snp--node1-BETDEL_clean_sbu_0--edge1-MIFKUJ_clean_linker_0
_symmetry_space_group_name_H-M    P1
_symmetry_Int_Tables_number       1
_symmetry_cell_setting            triclinic
loop_
_symmetry_equiv_pos_as_xyz
'x, y, z'
_cell_length_a     31.645589
_cell_length_b     31.995694
_cell_length_c     35.13291
_cell_angle_alpha  92.571917
_cell_angle_beta   89.867473
_cell_angle_gamma 93.931376
loop_
_atom_site_label
_atom_site_type_symbol
_atom_site_fract_x
_atom_site_fract_y
_atom_site_fract_z
_atom_type_partial_charge
Dy0 Dy 0.2265 0.08275 0.05774 0.0
C1 C 0.21964 0.93863 0.95497 0.0
C2 C 0.22137 0.14381 0.11401 0.0
Dy3 Dy 0.2162 0.00051 1.01054 0.0
O4 O 0.25634 0.13157 0.09932 0.0
O5 O 0.18928 0.12325 0.0974 0.0
O6 O 0.28241 0.10319 1.02263 0.0
O7 O 0.27088 0.03924 0.03308 0.0
C8 C 0.29456 0.06557 1.01568 0.0
C9 C 0.1515 0.01596 0.05728 0.0
O10 O 0.24079 0.97324 0.06293 0.0
O11 O 0.23262 0.0331 0.1016 0.0
O12 O 0.18545 0.94955 0.97207 0.0
O13 O 0.25231 0.96113 0.96872 0.0
O14 O 0.16195 0.97843 0.04726 0.0
O15 O 0.17306 0.04232 0.0382 0.0
O16 O 0.19658 0.10782 1.00572 0.0
O17 O 0.20599 0.04862 0.9669 0.0
C18 C 0.23968 0.99253 0.09713 0.0
C19 C 0.19539 0.08798 0.97159 0.0
Dy20 Dy 0.95169 0.21979 0.55017 0.0
C21 C 0.11559 0.231 0.48325 0.0
C22 C 0.88017 0.20776 0.59311 0.0
Dy23 Dy 0.04322 0.21125 0.5222 0.0
O24 O 0.90461 0.17893 0.58152 0.0
O25 O 0.89369 0.24345 0.57967 0.0
O26 O 0.95218 0.28284 0.52568 0.0
O27 O 0.00869 0.262 0.54768 0.0
C28 C 0.99282 0.29074 0.53009 0.0
C29 C 0.0009 0.14156 0.54322 0.0
O30 O 0.05919 0.22079 0.58414 0.0
O31 O 0.98936 0.21305 0.60497 0.0
O32 O 0.10639 0.19514 0.4985 0.0
O33 O 0.08553 0.25599 0.48994 0.0
O34 O 0.04173 0.14772 0.54812 0.0
O35 O 0.98712 0.17075 0.5254 0.0
O36 O 0.93553 0.20064 0.48863 0.0
O37 O 0.0052 0.20356 0.46658 0.0
C38 C 0.03097 0.21553 0.61186 0.0
C39 C 0.96347 0.19848 0.46014 0.0
Dy40 Dy 0.80223 0.95275 1.02883 0.0
C41 C 0.79797 0.10199 0.94587 0.0
C42 C 0.79802 0.89096 0.08022 0.0
Dy43 Dy 0.81486 0.03693 0.98974 0.0
O44 O 0.77727 0.92444 0.08203 0.0
O45 O 0.82084 0.89022 0.04933 0.0
O46 O 0.73934 0.94096 1.0004 0.0
O47 O 0.76099 0.00277 1.01626 0.0
C48 C 0.73167 0.98024 0.99945 0.0
C49 C 0.88638 0.01054 1.01691 0.0
O50 O 0.81509 0.06311 0.05086 0.0
O51 O 0.81919 -0.00127 0.07834 0.0
O52 O 0.83558 0.09109 0.95398 0.0
O53 O 0.76956 0.0775 0.96202 0.0
O54 O 0.88152 0.0497 1.01032 0.0
O55 O 0.85494 0.98802 1.00389 0.0
O56 O 0.82337 0.92793 0.97085 0.0
O57 O 0.81637 0.98962 0.93939 0.0
C58 C 0.82061 0.0403 0.08108 0.0
C59 C 0.82343 0.94895 0.93885 0.0
Dy60 Dy 0.98563 0.77163 0.48186 0.0
C61 C 0.12925 0.81041 0.57817 0.0
C62 C 0.92124 0.76012 0.42989 0.0
Dy63 Dy 0.06489 0.80478 0.52659 0.0
O64 O 0.94714 0.73208 0.4381 0.0
O65 O 0.9299 0.79408 0.45083 0.0
O66 O 0.99118 0.70915 0.50553 0.0
O67 O 0.04694 0.74679 0.49368 0.0
C68 C 0.03223 0.71332 0.50811 0.0
C69 C 0.01286 0.86306 0.50611 0.0
O70 O 0.0943 0.80641 0.46893 0.0
O71 O 0.03008 0.79882 0.43651 0.0
O72 O 0.11809 0.84101 0.55816 0.0
O73 O 0.10595 0.77644 0.56914 0.0
O74 O 0.05336 0.87116 0.51135 0.0
O75 O 0.00375 0.82657 0.51595 0.0
O76 O 0.95527 0.78023 0.54039 0.0
O77 O 0.01847 0.78913 0.57445 0.0
C78 C 0.07187 0.8078 0.43727 0.0
C79 C 0.97633 0.78393 0.57346 0.0
H80 H 0.96164 0.04973 0.03593 0.0
H81 H -0.00144 0.04571 0.0961 0.0
H82 H 0.90701 0.94745 0.12904 0.0
H83 H 0.87496 0.94691 0.06618 0.0
H84 H 0.95685 0.06427 0.16638 0.0
H85 H 0.93316 0.91368 0.18117 0.0
H86 H 0.92512 0.83978 0.15818 0.0
H87 H 0.04834 0.85123 0.1068 0.0
H88 H 0.05637 0.92584 0.1282 0.0
H89 H 0.10493 0.0824 0.07937 0.0
H90 H 0.06412 0.08963 0.13765 0.0
H91 H 0.12143 0.98214 0.18096 0.0
H92 H 0.15374 0.97046 0.11981 0.0
H93 H 0.05711 0.96084 0.19934 0.0
H94 H 0.99589 0.12856 0.16106 0.0
H95 H 0.00467 0.19954 0.19106 0.0
H96 H 0.06266 0.15112 0.28856 0.0
H97 H 0.05377 0.07948 0.25936 0.0
C98 C 0.95082 0.02587 0.05533 0.0
C99 C 0.91482 -0.00074 0.04705 0.0
C100 C 0.97137 0.024 0.08999 0.0
C101 C 0.95522 -0.0033 0.11761 0.0
C102 C 0.92095 0.96807 0.10829 0.0
C103 C 0.90211 0.96819 0.0724 0.0
C104 C 0.97444 0.00092 0.1559 0.0
C105 C 0.97979 0.04182 0.17232 0.0
C106 C 0.00014 0.97021 0.16918 0.0
C107 C 0.99499 0.92559 0.15575 0.0
C108 C 0.95829 0.90067 0.16453 0.0
C109 C 0.95372 0.85861 0.15177 0.0
C110 C 0.98617 0.84078 0.13103 0.0
C111 C 0.02315 0.86509 0.12278 0.0
C112 C 0.0276 0.90734 0.13503 0.0
C113 C 0.10844 0.0604 0.10151 0.0
C114 C 0.13206 0.02542 0.09477 0.0
C115 C 0.08565 0.06488 0.13564 0.0
C116 C 0.08716 0.03498 0.1642 0.0
C117 C 0.11704 0.00454 0.1594 0.0
C118 C 0.13657 -0.0019 0.12431 0.0
C119 C 0.05014 0.02669 0.19065 0.0
C120 C 0.0358 0.98397 0.19117 0.0
C121 C 0.0177 0.05494 0.19133 0.0
C122 C 0.02477 0.09844 0.20776 0.0
C123 C 0.01055 0.13282 0.18891 0.0
C124 C 0.01562 0.17328 0.20574 0.0
C125 C 0.03464 0.17987 0.24152 0.0
C126 C 0.0486 0.146 0.26056 0.0
C127 C 0.04382 0.10549 0.24376 0.0
H128 H 0.03836 0.21119 0.25458 0.0
H129 H 0.98269 0.80811 0.12141 0.0
H130 H 0.02739 0.94796 0.51766 0.0
H131 H 0.97998 0.99164 0.55422 0.0
H132 H 0.88166 0.89128 0.54808 0.0
H133 H 0.92759 0.84877 0.50926 0.0
H134 H 0.84781 0.96545 0.55796 0.0
H135 H 0.95086 0.89516 0.6202 0.0
H136 H 0.02194 0.86944 0.62768 0.0
H137 H 0.0737 -0.00399 0.64794 0.0
H138 H 0.00302 0.02206 0.64 0.0
H139 H 0.92941 0.10125 0.51791 0.0
H140 H 0.8775 0.06093 0.55321 0.0
H141 H 0.95233 0.08719 0.6561 0.0
H142 H 0.00595 0.12537 0.61873 0.0
H143 H 0.93089 0.02004 0.66996 0.0
H144 H 0.77953 0.97152 0.57552 0.0
H145 H 0.71439 0.00316 0.55817 0.0
H146 H 0.76536 0.1234 0.60196 0.0
H147 H 0.83052 0.09259 0.62003 0.0
C148 C 0.99502 0.93605 0.52241 0.0
C149 C 0.98165 0.8945 0.51212 0.0
C150 C 0.96816 0.96066 0.54374 0.0
C151 C 0.92854 0.94329 0.55571 0.0
C152 C 0.91268 0.90453 0.5401 0.0
C153 C 0.93904 0.8804 0.51785 0.0
C154 C 0.90683 0.96354 0.5879 0.0
C155 C 0.8662 0.97738 0.58254 0.0
C156 C 0.92899 0.97581 0.62212 0.0
C157 C 0.97113 0.96025 0.63058 0.0
C158 C 0.97724 0.91721 0.62701 0.0
C159 C 0.0176 0.90269 0.63084 0.0
C160 C 0.05233 0.93108 0.63858 0.0
C161 C 0.04671 0.97398 0.6423 0.0
C162 C 0.00639 0.9886 0.63822 0.0
C163 C 0.93497 0.09744 0.54796 0.0
C164 C 0.97232 0.11436 0.56531 0.0
C165 C 0.90455 0.07511 0.56885 0.0
C166 C 0.91057 0.06906 0.60807 0.0
C167 C 0.9468 0.0896 0.62592 0.0
C168 C 0.97795 0.11095 0.60452 0.0
C169 C 0.88574 0.03399 0.62728 0.0
C170 C 0.9131 0.00813 0.64506 0.0
C171 C 0.85319 0.01169 0.6053 0.0
C172 C 0.81178 0.02991 0.59763 0.0
C173 C 0.77762 0.00488 0.581 0.0
C174 C 0.7402 0.02264 0.5712 0.0
C175 C 0.73606 0.06545 0.5781 0.0
C176 C 0.76885 0.09034 0.59585 0.0
C177 C 0.80604 0.0726 0.60614 0.0
H178 H 0.70713 0.07917 0.57037 0.0
H179 H 0.08361 0.91985 0.64147 0.0
H180 H 0.66341 0.93152 0.97331 0.0
H181 H 0.59044 0.95033 0.96838 0.0
H182 H 0.6289 0.07811 1.00402 0.0
H183 H 0.70219 0.05877 1.01059 0.0
H184 H 0.56211 0.05456 0.04154 0.0
H185 H 0.5958 0.04816 0.91 0.0
H186 H 0.62348 0.01885 0.8496 0.0
H187 H 0.53169 0.91385 0.85314 0.0
H188 H 0.50383 0.94221 0.91389 0.0
H189 H 0.35862 0.12403 1.00117 0.0
H190 H 0.43348 0.11254 0.99075 0.0
H191 H 0.40525 0.97897 0.99311 0.0
H192 H 0.33016 0.99027 1.00461 0.0
H193 H 0.46697 0.01088 0.93272 0.0
H194 H 0.43898 0.01819 0.06892 0.0
H195 H 0.4115 0.05166 0.12765 0.0
H196 H 0.49433 0.16147 0.1116 0.0
H197 H 0.52181 0.12886 0.05238 0.0
C198 C 0.65649 0.96377 0.97969 0.0
C199 C 0.68861 0.99368 0.9923 0.0
C200 C 0.61465 0.9746 0.97659 0.0
C201 C 0.60394 0.01583 0.98531 0.0
C202 C 0.63625 0.0461 0.99702 0.0
C203 C 0.6782 0.03512 1.00052 0.0
C204 C 0.55868 0.02631 0.98463 0.0
C205 C 0.54167 0.04568 1.01736 0.0
C206 C 0.53146 0.01431 0.95339 0.0
C207 C 0.54793 -0.00282 0.91671 0.0
C208 C 0.5817 0.01866 0.89806 0.0
C209 C 0.5974 0.00224 0.86372 0.0
C210 C 0.57942 0.96446 0.84758 0.0
C211 C 0.54561 0.9431 0.86569 0.0
C212 C 0.52981 0.95936 0.90006 0.0
C213 C 0.36816 0.09214 0.99894 0.0
C214 C 0.33851 0.05802 1.00393 0.0
C215 C 0.41098 0.08567 0.993 0.0
C216 C 0.4249 0.04495 0.99134 0.0
C217 C 0.39508 0.01065 0.99422 0.0
C218 C 0.35225 0.01713 1.00082 0.0
C219 C 0.47092 0.03851 0.98962 0.0
C220 C 0.48783 0.01997 0.95656 0.0
C221 C 0.49825 0.05186 1.02024 0.0
C222 C 0.48207 0.07129 0.05601 0.0
C223 C 0.45104 0.04963 0.07773 0.0
C224 C 0.43552 0.06841 0.11113 0.0
C225 C 0.45106 0.10872 0.12329 0.0
C226 C 0.48226 0.13028 0.10211 0.0
C227 C 0.49783 0.11165 0.06864 0.0
H228 H 0.43902 0.12321 0.14916 0.0
H229 H 0.59163 0.95179 0.82101 0.0
H230 H 0.07106 0.32137 0.55607 0.0
H231 H 0.09997 0.39473 0.5562 0.0
H232 H 0.99116 0.42704 0.4929 0.0
H233 H 0.9621 0.35441 0.49297 0.0
H234 H 0.11754 0.45818 0.49912 0.0
H235 H 0.95084 0.50668 0.54197 0.0
H236 H 0.88767 0.47717 0.57528 0.0
H237 H 0.96564 0.40138 0.63975 0.0
H238 H 0.02932 0.43094 0.60728 0.0
H239 H 0.06531 0.66124 0.45514 0.0
H240 H 0.08339 0.58954 0.46533 0.0
H241 H 0.0702 0.61191 0.5868 0.0
H242 H 0.0502 0.68308 0.57616 0.0
H243 H 0.01929 0.55145 0.56547 0.0
H244 H 0.16534 0.58026 0.54419 0.0
H245 H 0.23016 0.6089 0.51296 0.0
H246 H 0.19967 0.53183 0.41226 0.0
H247 H 0.13429 0.50319 0.44261 0.0
C248 C 0.05383 0.34407 0.54156 0.0
C249 C 0.01402 0.33255 0.52509 0.0
C250 C 0.07045 0.38579 0.54152 0.0
C251 C 0.04736 0.41623 0.52502 0.0
C252 C 0.0092 0.404 0.50612 0.0
C253 C 0.99259 0.36256 0.50628 0.0
C254 C 0.05976 0.46143 0.53114 0.0
C255 C 0.09647 0.47882 0.51383 0.0
C256 C 0.03285 0.48789 0.5515 0.0
C257 C 0.99481 0.47087 0.57201 0.0
C258 C 0.95453 0.48396 0.56346 0.0
C259 C 0.91863 0.46717 0.58215 0.0
C260 C 0.92263 0.43736 0.60956 0.0
C261 C 0.96257 0.4244 0.61845 0.0
C262 C -0.00143 0.44114 0.59989 0.0
C263 C 0.0682 0.65127 0.48403 0.0
C264 C 0.05675 0.6773 0.51494 0.0
C265 C 0.07865 0.61032 0.48993 0.0
C266 C 0.07818 0.59513 0.5269 0.0
C267 C 0.0707 0.62282 0.55804 0.0
C268 C 0.05954 0.66348 0.55205 0.0
C269 C 0.07656 0.5492 0.53212 0.0
C270 C 0.0414 0.53133 0.5515 0.0
C271 C 0.1054 0.52258 0.5142 0.0
C272 C 0.14472 0.53969 0.49569 0.0
C273 C 0.17225 0.56963 0.51528 0.0
C274 C 0.20915 0.58584 0.49774 0.0
C275 C 0.219 0.57223 0.46064 0.0
C276 C 0.192 0.54233 0.44101 0.0
C277 C 0.15504 0.52604 0.45841 0.0
H278 H 0.24759 0.58482 0.44711 0.0
H279 H 0.89479 0.42434 0.62393 0.0
H280 H 0.18326 0.18477 0.46779 0.0
H281 H 0.2241 0.18438 0.40858 0.0
H282 H 0.15867 0.28973 0.372 0.0
H283 H 0.12009 0.29173 0.43184 0.0
H284 H 0.1862 0.16253 0.34834 0.0
H285 H 0.20109 0.33435 0.29613 0.0
H286 H 0.2235 0.4053 0.32194 0.0
H287 H 0.29859 0.3527 0.40696 0.0
H288 H 0.27715 0.28144 0.38136 0.0
H289 H 0.15075 0.15752 0.15549 0.0
H290 H 0.14837 0.18604 0.2211 0.0
H291 H 0.28349 0.21515 0.21912 0.0
H292 H 0.28612 0.18641 0.15333 0.0
H293 H 0.23872 0.27452 0.26348 0.0
H294 H 0.25391 0.12891 0.24834 0.0
H295 H 0.23841 0.05664 0.22393 0.0
H296 H 0.11753 0.05246 0.27959 0.0
H297 H 0.13161 0.12591 0.30329 0.0
C298 C 0.1791 0.20892 0.44774 0.0
C299 C 0.14819 0.23783 0.45394 0.0
C300 C 0.20231 0.20866 0.4139 0.0
C301 C 0.19421 0.23671 0.38551 0.0
C302 C 0.16616 0.26814 0.39346 0.0
C303 C 0.14376 0.26903 0.42767 0.0
C304 C 0.20759 0.22784 0.3456 0.0
C305 C 0.1982 0.18708 0.33007 0.0
C306 C 0.22378 0.25959 0.3216 0.0
C307 C 0.23728 0.30245 0.3369 0.0
C308 C 0.2226 0.33788 0.32017 0.0
C309 C 0.23508 0.37818 0.33482 0.0
C310 C 0.26238 0.3835 0.36612 0.0
C311 C 0.27734 0.34853 0.38279 0.0
C312 C 0.26496 0.30817 0.36826 0.0
C313 C 0.17976 0.17113 0.16863 0.0
C314 C 0.21871 0.16941 0.14964 0.0
C315 C 0.17836 0.18736 0.20608 0.0
C316 C 0.21587 0.20211 0.22497 0.0
C317 C 0.25427 0.20387 0.20493 0.0
C318 C 0.25573 0.18733 0.16748 0.0
C319 C 0.21557 0.20997 0.26673 0.0
C320 C 0.22731 0.25022 0.28226 0.0
C321 C 0.20245 0.17757 0.29112 0.0
C322 C 0.1934 0.13344 0.27676 0.0
C323 C 0.22357 0.11304 0.2547 0.0
C324 C 0.21497 0.07175 0.24095 0.0
C325 C 0.17658 0.05005 0.24957 0.0
C326 C 0.14685 0.06962 0.27231 0.0
C327 C 0.15508 0.11116 0.28582 0.0
H328 H 0.17 0.01797 0.23902 0.0
H329 H 0.27198 0.41473 0.37742 0.0
H330 H 0.87851 0.14686 0.64308 0.0
H331 H 0.83673 0.14035 0.70056 0.0
H332 H 0.77586 0.25283 0.67628 0.0
H333 H 0.81787 0.2589 0.61729 0.0
H334 H 0.80817 0.25695 0.74668 0.0
H335 H 0.70586 0.15651 0.68576 0.0
H336 H 0.67804 0.09517 0.64605 0.0
H337 H 0.7593 0.01636 0.70367 0.0
H338 H 0.78671 0.07702 0.74439 0.0
H339 H 0.72134 0.11593 0.91541 0.0
H340 H 0.7093 0.15229 0.85691 0.0
H341 H 0.84272 0.1898 0.85132 0.0
H342 H 0.85474 0.15385 0.90966 0.0
H343 H 0.74292 0.12353 0.7934 0.0
H344 H 0.86209 0.27217 0.79819 0.0
H345 H 0.88267 0.33157 0.84292 0.0
H346 H 0.76258 0.31586 0.89945 0.0
H347 H 0.74094 0.25676 0.85473 0.0
C348 C 0.85487 0.16917 0.64894 0.0
C349 C 0.85039 0.20253 0.62509 0.0
C350 C 0.83093 0.16546 0.68197 0.0
C351 C 0.80218 0.19542 0.69233 0.0
C352 C 0.79725 0.22888 0.66842 0.0
C353 C 0.82122 0.23238 0.63488 0.0
C354 C 0.78293 0.19434 0.73083 0.0
C355 C 0.79306 0.22813 0.75689 0.0
C356 C 0.76238 0.15714 0.74409 0.0
C357 C 0.7483 0.12126 0.71799 0.0
C358 C 0.71792 0.12613 0.68978 0.0
C359 C 0.7019 0.09141 0.66741 0.0
C360 C 0.71673 0.05186 0.67248 0.0
C361 C 0.74766 0.04695 0.69991 0.0
C362 C 0.76319 0.08141 0.72283 0.0
C363 C 0.74779 0.13317 0.90234 0.0
C364 C 0.78906 0.13169 0.91661 0.0
C365 C 0.74087 0.15396 0.86899 0.0
C366 C 0.77507 0.17382 0.84973 0.0
C367 C 0.81571 0.17532 0.86593 0.0
C368 C 0.82264 0.15443 0.89913 0.0
C369 C 0.77051 0.18518 0.80959 0.0
C370 C 0.7563 0.15313 0.78324 0.0
C371 C 0.78716 0.22401 0.79628 0.0
C372 C 0.79991 0.25988 0.82306 0.0
C373 C 0.8399 0.28155 0.81995 0.0
C374 C 0.8518 0.31514 0.84537 0.0
C375 C 0.82397 0.32746 0.87402 0.0
C376 C 0.78415 0.30623 0.87729 0.0
C377 C 0.77208 0.27263 0.85194 0.0
H378 H 0.83326 0.35347 0.89368 0.0
H379 H 0.70443 0.02507 0.65501 0.0
H380 H 0.91443 0.69807 0.37406 0.0
H381 H 0.88067 0.7016 0.31167 0.0
H382 H 0.83275 0.82027 0.34683 0.0
H383 H 0.86655 0.81701 0.4091 0.0
H384 H 0.77623 0.76802 0.29811 0.0
H385 H 0.92528 0.81926 0.30719 0.0
H386 H 0.00027 0.80998 0.31993 0.0
H387 H 7e-05 0.71143 0.23277 0.0
H388 H 0.92448 0.71967 0.22003 0.0
H389 H 0.76594 0.90321 0.15061 0.0
H390 H 0.77612 0.86316 0.20638 0.0
H391 H 0.8449 0.77466 0.13849 0.0
H392 H 0.83674 0.81673 0.08242 0.0
H393 H 0.88579 0.79209 0.19877 0.0
H394 H 0.74195 0.74887 0.17971 0.0
H395 H 0.6662 0.75465 0.16628 0.0
H396 H 0.65458 0.83186 0.2684 0.0
H397 H 0.73039 0.82709 0.2822 0.0
C398 C 0.89566 0.72429 0.36883 0.0
C399 C 0.89341 0.75751 0.39616 0.0
C400 C 0.87644 0.72626 0.33321 0.0
C401 C 0.85465 0.76141 0.32456 0.0
C402 C 0.84938 0.79286 0.35299 0.0
C403 C 0.86883 0.79104 0.38848 0.0
C404 C 0.84259 0.76867 0.28481 0.0
C405 C 0.8 0.7733 0.27623 0.0
C406 C 0.87354 0.7739 0.25597 0.0
C407 C 0.91909 0.76953 0.26318 0.0
C408 C 0.94106 0.79522 0.29109 0.0
C409 C 0.9837 0.79006 0.29838 0.0
C410 C 0.00493 0.75979 0.27745 0.0
C411 C 0.98355 0.73474 0.24907 0.0
C412 C 0.94078 0.73959 0.24186 0.0
C413 C 0.78262 0.87481 0.14731 0.0
C414 C 0.80033 0.86287 0.11214 0.0
C415 C 0.78808 0.85159 0.17927 0.0
C416 C 0.81029 0.81507 0.17667 0.0
C417 C 0.82724 0.80247 0.14121 0.0
C418 C 0.8225 0.82636 0.10918 0.0
C419 C 0.81927 0.79313 0.21194 0.0
C420 C 0.86148 0.78581 0.21993 0.0
C421 C 0.78776 0.78481 0.23993 0.0
C422 C 0.74199 0.7877 0.23192 0.0
C423 C 0.72332 0.76729 0.19921 0.0
C424 C 0.68034 0.77036 0.19154 0.0
C425 C 0.6556 0.79362 0.21646 0.0
C426 C 0.67378 0.81381 0.24914 0.0
C427 C 0.71675 0.81086 0.25694 0.0
H428 H 0.62234 0.79598 0.21046 0.0
H429 H 0.03795 0.75576 0.28308 0.0
H430 H 0.17655 0.88064 0.60207 0.0
H431 H 0.20702 0.89542 0.66551 0.0
H432 H 0.16979 0.76895 0.69588 0.0
H433 H 0.14019 0.75376 0.63215 0.0
H434 H 0.15832 0.89528 0.72591 0.0
H435 H 0.23034 0.7428 0.7712 0.0
H436 H 0.27123 0.68644 0.74263 0.0
H437 H 0.32119 0.76945 0.65832 0.0
H438 H 0.2811 0.82646 0.68668 0.0
H439 H 0.15247 0.89347 0.92243 0.0
H440 H 0.14861 0.86213 0.85772 0.0
H441 H 0.28234 0.89285 0.84302 0.0
H442 H 0.28647 0.92417 0.90804 0.0
H443 H 0.25309 0.81644 0.8043 0.0
H444 H 0.22026 0.96006 0.81773 0.0
H445 H 0.18411 0.01989 0.84481 0.0
H446 H 0.06418 0.96259 0.80646 0.0
H447 H 0.09971 0.90144 0.78027 0.0
C448 C 0.17616 0.85563 0.62188 0.0
C449 C 0.15592 0.81617 0.61242 0.0
C450 C 0.1934 0.86412 0.65812 0.0
C451 C 0.19056 0.83333 0.68542 0.0
C452 C 0.17287 0.793 0.67511 0.0
C453 C 0.15587 0.78439 0.63874 0.0
C454 C 0.20043 0.84508 0.72579 0.0
C455 C 0.17927 0.87812 0.7429 0.0
C456 C 0.22779 0.82276 0.74795 0.0
C457 C 0.25238 0.78879 0.7309 0.0
C458 C 0.25019 0.74908 0.74666 0.0
C459 C 0.2732 0.71701 0.73048 0.0
C460 C 0.29869 0.72432 0.69861 0.0
C461 C 0.30131 0.76377 0.68292 0.0
C462 C 0.27838 0.79596 0.699 0.0
C463 C 0.18128 0.8925 0.9058 0.0
C464 C 0.21966 0.91169 0.91991 0.0
C465 C 0.17903 0.87461 0.86888 0.0
C466 C 0.21505 0.87584 0.84551 0.0
C467 C 0.25421 0.89167 0.86068 0.0
C468 C 0.2565 0.90962 0.89772 0.0
C469 C 0.2105 0.86609 0.80414 0.0
C470 C 0.23237 0.83351 0.78704 0.0
C471 C 0.18424 0.8892 0.78161 0.0
C472 C 0.16261 0.92585 0.79745 0.0
C473 C 0.18613 0.95992 0.81547 0.0
C474 C 0.16571 0.99418 0.83066 0.0
C475 C 0.12179 -0.00483 0.82752 0.0
C476 C 0.09819 0.96178 0.80904 0.0
C477 C 0.11847 0.92722 0.79408 0.0
H478 H 0.10608 0.02175 0.8394 0.0
H479 H 0.31646 0.69945 0.68612 0.0
H480 H 0.81767 0.97825 0.86659 0.0
H481 H 0.84 0.946 0.80605 0.0
H482 H 0.87889 0.8396 0.86464 0.0
H483 H 0.85647 0.87171 0.92553 0.0
H484 H 0.93941 0.86766 0.81204 0.0
H485 H 0.78729 0.833 0.81074 0.0
H486 H 0.71285 0.85123 0.8148 0.0
H487 H 0.73221 0.93126 0.72051 0.0
H488 H 0.80686 0.9138 0.71613 0.0
H489 H 0.99494 0.75575 0.64374 0.0
H490 H 0.96373 0.77463 0.70511 0.0
H491 H 0.87871 0.85193 0.64867 0.0
H492 H 0.90561 0.82736 0.58715 0.0
H493 H 0.84087 0.83799 0.70327 0.0
H494 H 0.99068 0.88475 0.70651 0.0
H495 H 0.06693 0.87298 0.69979 0.0
H496 H 0.05656 0.78435 0.78797 0.0
H497 H 0.98036 0.79515 0.79481 0.0
C498 C 0.83066 0.94782 0.86678 0.0
C499 C 0.83491 0.92769 0.90138 0.0
C500 C 0.84343 0.92927 0.83187 0.0
C501 C 0.86105 0.88999 0.83026 0.0
C502 C 0.86543 0.86983 0.86475 0.0
C503 C 0.85229 0.8882 0.8997 0.0
C504 C 0.87528 0.87032 0.79285 0.0
C505 C 0.91778 0.86083 0.78832 0.0
C506 C 0.84779 0.86254 0.76111 0.0
C507 C 0.80269 0.87227 0.76327 0.0
C508 C 0.77569 0.85459 0.79097 0.0
C509 C 0.73346 0.86477 0.79331 0.0
C510 C 0.71783 0.89242 0.76797 0.0
C511 C 0.74435 0.90983 0.74012 0.0
C512 C 0.78659 0.89974 0.73765 0.0
C513 C 0.96885 0.776 0.64447 0.0
C514 C 0.95314 0.79032 0.61035 0.0
C515 C 0.95161 0.788 0.67999 0.0
C516 C 0.9203 0.81747 0.683 0.0
C517 C 0.90299 0.82969 0.64844 0.0
C518 C 0.91855 0.81563 0.61277 0.0
C519 C 0.90585 0.83578 0.72145 0.0
C520 C 0.8631 0.84502 0.72646 0.0
C521 C 0.93361 0.84493 0.75323 0.0
C522 C 0.9798 0.84022 0.75062 0.0
C523 C 0.00475 0.86264 0.72425 0.0
C524 C 0.04783 0.85604 0.72035 0.0
C525 C 0.06635 0.82751 0.74302 0.0
C526 C 0.04206 0.80614 0.77018 0.0
C527 C -0.00103 0.81253 0.77412 0.0
H528 H 0.09962 0.82227 0.73983 0.0
H529 H 0.68515 0.90032 0.76988 0.0
H530 H 0.25992 0.01716 0.17094 0.0
H531 H 0.23875 0.98012 0.22871 0.0
H532 H 0.18938 0.87394 0.15905 0.0
H533 H 0.21264 0.9096 0.10158 0.0
H534 H 0.12876 0.91351 0.21364 0.0
H535 H 0.26612 0.85666 0.20871 0.0
H536 H 0.34412 0.86139 0.20544 0.0
H537 H 0.35069 0.93664 0.30986 0.0
H538 H 0.27264 0.93285 0.31345 0.0
H539 H 0.05189 0.7863 0.36266 0.0
H540 H 0.08574 0.81363 0.30506 0.0
H541 H 0.17442 0.89134 0.37472 0.0
H542 H 0.14171 0.86283 0.43208 0.0
H543 H 0.21571 0.86608 0.31858 0.0
H544 H 0.08353 0.92975 0.32434 0.0
H545 H 0.00601 0.93281 0.32931 0.0
H546 H 0.98951 0.85526 0.22689 0.0
H547 H 0.06688 0.85209 0.22097 0.0
C548 C 0.24557 0.9855 0.16808 0.0
C549 C 0.23757 0.96669 0.13162 0.0
C550 C 0.23322 0.96449 0.20104 0.0
C551 C 0.21143 0.92471 0.19825 0.0
C552 C 0.20575 0.90477 0.162 0.0
C553 C 0.21961 0.92508 0.12911 0.0
C554 C 0.19202 0.90542 0.23281 0.0
C555 C 0.14772 0.90252 0.23636 0.0
C556 C 0.21665 0.89262 0.26319 0.0
C557 C 0.26353 0.89481 0.26115 0.0
C558 C 0.28418 0.87454 0.23079 0.0
C559 C 0.32841 0.87698 0.22892 0.0
C560 C 0.35235 0.89939 0.25737 0.0
C561 C 0.3321 0.91933 0.28781 0.0
C562 C 0.28787 0.91701 0.2898 0.0
C563 C 0.0785 0.80933 0.3656 0.0
C564 C 0.09372 0.82262 0.40202 0.0
C565 C 0.09779 0.82517 0.3326 0.0
C566 C 0.13221 0.85557 0.33503 0.0
C567 C 0.14796 0.86813 0.37155 0.0
C568 C 0.12917 0.85172 0.40451 0.0
C569 C 0.15199 0.87386 0.29975 0.0
C570 C 0.19645 0.87688 0.296 0.0
C571 C 0.12749 0.88787 0.26952 0.0
C572 C 0.08097 0.89024 0.27252 0.0
C573 C 0.06334 0.91331 0.30289 0.0
C574 C 0.01945 0.91527 0.30574 0.0
C575 C 0.99289 0.8944 0.2783 0.0
C576 C 0.01017 0.8719 0.24776 0.0
C577 C 0.05402 0.86997 0.24466 0.0
H578 H 0.9589 0.89539 0.28087 0.0
H579 H 0.38659 0.90123 0.25588 0.0
H580 H 0.10943 0.19312 0.63359 0.0
H581 H 0.13298 0.1754 0.69692 0.0
H582 H 0.01191 0.20386 0.74375 0.0
H583 H 0.98731 0.21991 0.68006 0.0
H584 H 0.11879 0.23804 0.77609 0.0
H585 H -0.00132 0.13237 0.76065 0.0
H586 H 0.95456 0.07217 0.73314 0.0
H587 H 0.0635 -0.00065 0.72507 0.0
H588 H 0.10863 0.05982 0.75087 0.0
H589 H 0.14815 0.1579 0.96697 0.0
H590 H 0.11894 0.18602 0.90909 0.0
H591 H 0.18051 0.09378 0.83997 0.0
H592 H 0.20941 0.06562 0.89716 0.0
H593 H 0.09694 0.09398 0.82194 0.0
H594 H 0.21543 0.19536 0.84128 0.0
H595 H 0.25901 0.25061 0.87704 0.0
H596 H 0.15347 0.32812 0.88322 0.0
H597 H 0.10906 0.27304 0.84793 0.0
C598 C 0.08769 0.1958 0.65728 0.0
C599 C 0.04636 0.20819 0.65138 0.0
C600 C 0.10121 0.18534 0.69359 0.0
C601 C 0.07407 0.18736 0.72525 0.0
C602 C 0.03324 0.20097 0.71979 0.0
C603 C 0.01932 0.21058 0.68328 0.0
C604 C 0.0892 0.1763 0.76387 0.0
C605 C 0.1134 0.20665 0.78636 0.0
C606 C 0.08314 0.1352 0.77734 0.0
C607 C 0.05729 0.10119 0.75657 0.0
C608 C 0.01358 0.1042 0.75151 0.0
C609 C 0.98829 0.06983 0.73656 0.0
C610 C 0.00624 0.03202 0.72726 0.0
C611 C 0.04968 0.02876 0.73199 0.0
C612 C 0.07517 0.06318 0.74649 0.0
C613 C 0.15583 0.14388 0.93941 0.0
C614 C 0.1807 0.10891 0.93697 0.0
C615 C 0.13905 0.16001 0.90624 0.0
C616 C 0.14696 0.14169 0.86987 0.0
C617 C 0.17314 0.10798 0.86753 0.0
C618 C 0.18972 0.09191 0.90041 0.0
C619 C 0.12667 0.15546 0.83415 0.0
C620 C 0.10195 0.1255 0.81194 0.0
C621 C 0.13215 0.19682 0.82116 0.0
C622 C 0.15878 0.22988 0.84238 0.0
C623 C 0.20139 0.22401 0.85059 0.0
C624 C 0.22627 0.25534 0.8707 0.0
C625 C 0.20898 0.2928 0.88251 0.0
C626 C 0.1668 0.29906 0.87413 0.0
C627 C 0.14176 0.26781 0.85405 0.0
H628 H 0.2283 0.31702 0.89806 0.0
H629 H 0.98641 0.00507 0.71683 0.0
H630 H 0.78668 0.02131 0.15024 0.0
H631 H 0.80782 0.05016 0.21337 0.0
H632 H 0.90529 0.13053 0.16297 0.0
H633 H 0.88129 0.10424 0.09917 0.0
H634 H 0.87304 0.17221 0.21946 0.0
H635 H 0.81875 0.02294 0.27347 0.0
H636 H 0.81966 0.94585 0.2657 0.0
H637 H 0.95218 0.95821 0.2387 0.0
H638 H 0.95141 0.03511 0.24558 0.0
H639 H 0.88411 0.20376 0.42827 0.0
H640 H 0.85981 0.18026 0.36378 0.0
H641 H 0.98353 0.13859 0.33767 0.0
H642 H 0.0084 0.16315 0.40135 0.0
H643 H 0.90759 0.07691 0.32069 0.0
H644 H 0.96784 0.21479 0.29635 0.0
H645 H 0.97742 0.29163 0.30608 0.0
H646 H 0.84621 0.30228 0.27989 0.0
H647 H 0.83577 0.22535 0.27046 0.0
C648 C 0.81239 0.04545 0.15256 0.0
C649 C 0.8318 0.06078 0.11941 0.0
C650 C 0.82544 0.06118 0.18907 0.0
C651 C 0.85993 0.09122 0.194 0.0
C652 C 0.87895 0.10709 0.16066 0.0
C653 C 0.865 0.09225 0.12396 0.0
C654 C 0.87489 0.10741 0.23341 0.0
C655 C 0.88015 0.15107 0.2415 0.0
C656 C 0.885 0.08066 0.26298 0.0
C657 C 0.88438 0.03465 0.25713 0.0
C658 C 0.84767 0.00911 0.26457 0.0
C659 C 0.84819 0.96544 0.26062 0.0
C660 C 0.88571 0.94704 0.25068 0.0
C661 C 0.92281 0.97232 0.24519 0.0
C662 C 0.92222 0.01592 0.2486 0.0
C663 C 0.90629 0.1899 0.40876 0.0
C664 C 0.94837 0.18561 0.42035 0.0
C665 C 0.89232 0.17647 0.37176 0.0
C666 C 0.91971 0.15748 0.34558 0.0
C667 C 0.96163 0.15304 0.35712 0.0
C668 C 0.97588 0.16734 0.39369 0.0
C669 C 0.90454 0.14128 0.30663 0.0
C670 C 0.89967 0.09784 0.29871 0.0
C671 C 0.89484 0.16817 0.27738 0.0
C672 C 0.90092 0.21431 0.28316 0.0
C673 C 0.94094 0.23348 0.29305 0.0
C674 C 0.94655 0.27706 0.29841 0.0
C675 C 0.91241 0.30182 0.29374 0.0
C676 C 0.87261 0.28305 0.28358 0.0
C677 C 0.86684 0.23947 0.27819 0.0
H678 H 0.91681 0.33556 0.29789 0.0
H679 H 0.88619 0.91324 0.24789 0.0
loop_
_geom_bond_atom_site_label_1
_geom_bond_atom_site_label_2
_geom_bond_distance
_geom_bond_site_symmetry_2
_ccdc_geom_bond_type
Dy0 O4 2.398 . S
Dy0 O5 2.491 . S
Dy0 O6 2.403 . S
Dy0 O7 2.664 1_554 S
Dy0 O11 2.326 . S
Dy0 O15 2.310 . S
Dy0 O16 2.351 1_554 S
C1 O12 1.185 . S
C1 O13 1.355 . S
C2 O4 1.185 . S
C2 O5 1.355 . S
Dy3 O7 2.310 1_565 S
Dy3 O10 2.351 1_556 S
Dy3 O12 2.398 . S
Dy3 O13 2.491 . S
Dy3 O14 2.403 . S
Dy3 O15 2.664 1_566 S
Dy3 O17 2.326 1_565 S
O4 Dy0 2.398 . S
O4 C2 1.185 . S
O5 Dy0 2.491 . S
O5 C2 1.355 . S
O6 Dy0 2.403 . S
O6 C8 1.254 . S
O7 Dy0 2.664 1_556 S
O7 Dy3 2.310 1_545 S
O7 C8 1.268 1_556 S
C8 O6 1.254 . S
C8 O7 1.268 1_554 S
C9 O14 1.254 1_544 S
C9 O15 1.268 . S
O10 Dy3 2.351 1_554 S
O10 C18 1.249 . S
O11 Dy0 2.326 . S
O11 C18 1.267 1_545 S
O12 C1 1.185 . S
O12 Dy3 2.398 . S
O13 C1 1.355 . S
O13 Dy3 2.491 . S
O14 Dy3 2.403 . S
O14 C9 1.254 1_566 S
O15 Dy0 2.310 . S
O15 Dy3 2.664 1_544 S
O15 C9 1.268 . S
O16 Dy0 2.351 1_556 S
O16 C19 1.249 . S
O17 Dy3 2.326 1_545 S
O17 C19 1.267 . S
C18 O10 1.249 . S
C18 O11 1.267 1_565 S
C19 O16 1.249 . S
C19 O17 1.267 . S
Dy20 O24 2.398 . S
Dy20 O25 2.491 . S
Dy20 O26 2.403 . S
Dy20 O27 2.664 1_655 S
Dy20 O31 2.326 1_655 S
Dy20 O35 2.310 1_655 S
Dy20 O36 2.351 . S
C21 O32 1.185 . S
C21 O33 1.355 . S
C22 O24 1.185 . S
C22 O25 1.355 . S
Dy23 O27 2.310 . S
Dy23 O30 2.351 . S
Dy23 O32 2.398 . S
Dy23 O33 2.491 . S
Dy23 O34 2.403 . S
Dy23 O35 2.664 . S
Dy23 O37 2.326 . S
O24 Dy20 2.398 . S
O24 C22 1.185 . S
O25 Dy20 2.491 . S
O25 C22 1.355 . S
O26 Dy20 2.403 . S
O26 C28 1.254 1_655 S
O27 Dy20 2.664 1_455 S
O27 Dy23 2.310 . S
O27 C28 1.268 . S
C28 O26 1.254 1_455 S
C28 O27 1.268 . S
C29 O34 1.254 . S
C29 O35 1.268 . S
O30 Dy23 2.351 . S
O30 C38 1.249 . S
O31 Dy20 2.326 1_455 S
O31 C38 1.267 . S
O32 C21 1.185 . S
O32 Dy23 2.398 . S
O33 C21 1.355 . S
O33 Dy23 2.491 . S
O34 Dy23 2.403 . S
O34 C29 1.254 . S
O35 Dy20 2.310 1_455 S
O35 Dy23 2.664 . S
O35 C29 1.268 . S
O36 Dy20 2.351 . S
O36 C39 1.249 . S
O37 Dy23 2.326 . S
O37 C39 1.267 1_455 S
C38 O30 1.249 . S
C38 O31 1.267 . S
C39 O36 1.249 . S
C39 O37 1.267 1_655 S
Dy40 O44 2.398 . S
Dy40 O45 2.491 . S
Dy40 O46 2.403 . S
Dy40 O47 2.664 1_564 S
Dy40 O51 2.326 1_565 S
Dy40 O55 2.310 . S
Dy40 O56 2.351 1_554 S
C41 O52 1.185 . S
C41 O53 1.355 . S
C42 O44 1.185 . S
C42 O45 1.355 . S
Dy43 O47 2.310 . S
Dy43 O50 2.351 1_556 S
Dy43 O52 2.398 . S
Dy43 O53 2.491 . S
Dy43 O54 2.403 . S
Dy43 O55 2.664 1_546 S
Dy43 O57 2.326 1_545 S
O44 Dy40 2.398 . S
O44 C42 1.185 . S
O45 Dy40 2.491 . S
O45 C42 1.355 . S
O46 Dy40 2.403 . S
O46 C48 1.254 . S
O47 Dy40 2.664 1_546 S
O47 Dy43 2.310 . S
O47 C48 1.268 1_546 S
C48 O46 1.254 . S
C48 O47 1.268 1_564 S
C49 O54 1.254 1_554 S
C49 O55 1.268 1_545 S
O50 Dy43 2.351 1_554 S
O50 C58 1.249 . S
O51 Dy40 2.326 1_545 S
O51 C58 1.267 . S
O52 C41 1.185 . S
O52 Dy43 2.398 . S
O53 C41 1.355 . S
O53 Dy43 2.491 . S
O54 Dy43 2.403 . S
O54 C49 1.254 1_556 S
O55 Dy40 2.310 . S
O55 Dy43 2.664 1_564 S
O55 C49 1.268 1_565 S
O56 Dy40 2.351 1_556 S
O56 C59 1.249 . S
O57 Dy43 2.326 1_565 S
O57 C59 1.267 . S
C58 O50 1.249 . S
C58 O51 1.267 . S
C59 O56 1.249 . S
C59 O57 1.267 . S
Dy60 O64 2.398 . S
Dy60 O65 2.491 . S
Dy60 O66 2.403 . S
Dy60 O67 2.664 1_655 S
Dy60 O71 2.326 1_655 S
Dy60 O75 2.310 1_655 S
Dy60 O76 2.351 . S
C61 O72 1.185 . S
C61 O73 1.355 . S
C62 O64 1.185 . S
C62 O65 1.355 . S
Dy63 O67 2.310 . S
Dy63 O70 2.351 . S
Dy63 O72 2.398 . S
Dy63 O73 2.491 . S
Dy63 O74 2.403 . S
Dy63 O75 2.664 . S
Dy63 O77 2.326 . S
O64 Dy60 2.398 . S
O64 C62 1.185 . S
O65 Dy60 2.491 . S
O65 C62 1.355 . S
O66 Dy60 2.403 . S
O66 C68 1.274 . S
O67 Dy60 2.664 1_455 S
O67 Dy63 2.310 . S
O67 C68 1.260 1_455 S
C68 O66 1.274 . S
C68 O67 1.260 1_655 S
C69 O74 1.254 . S
C69 O75 1.268 . S
O70 Dy63 2.351 . S
O70 C78 1.249 . S
O71 Dy60 2.326 1_455 S
O71 C78 1.267 . S
O72 C61 1.185 . S
O72 Dy63 2.398 . S
O73 C61 1.355 . S
O73 Dy63 2.491 . S
O74 Dy63 2.403 . S
O74 C69 1.254 . S
O75 Dy60 2.310 1_455 S
O75 Dy63 2.664 . S
O75 C69 1.268 . S
O76 Dy60 2.351 . S
O76 C79 1.249 . S
O77 Dy63 2.326 . S
O77 C79 1.267 1_455 S
C78 O70 1.249 . S
C78 O71 1.267 . S
C79 O76 1.249 . S
C79 O77 1.267 1_655 S
H80 C98 0.951 . S
H81 C100 0.951 . S
H82 C102 0.950 . S
H83 C103 0.950 . S
H84 C105 0.950 . S
H85 C108 0.950 1_545 S
H86 C109 0.950 . S
H87 C111 0.950 . S
H88 C112 0.950 1_455 S
H89 C113 0.951 . S
H90 C115 0.951 . S
H91 C117 0.950 . S
H92 C118 0.950 . S
H93 C120 0.950 . S
H94 C123 0.950 . S
H95 C124 0.950 . S
H96 C126 0.950 . S
H97 C127 0.950 . S
C98 H80 0.951 . S
C98 C99 1.366 . S
C98 C100 1.388 . S
C99 C98 1.366 . S
C99 C103 1.385 1_565 S
C100 H81 0.951 . S
C100 C98 1.388 . S
C100 C101 1.366 1_565 S
C101 C100 1.366 1_545 S
C101 C102 1.414 . S
C101 C104 1.499 . S
C102 H82 0.950 . S
C102 C101 1.414 . S
C102 C103 1.374 . S
C103 H83 0.950 . S
C103 C99 1.385 1_545 S
C103 C102 1.374 . S
C104 C101 1.499 . S
C104 C105 1.373 1_554 S
C104 C106 1.389 1_545 S
C105 H84 0.950 . S
C105 C104 1.373 1_556 S
C105 C121 1.377 1_655 S
C106 C104 1.389 1_565 S
C106 C107 1.524 . S
C106 C120 1.377 1_655 S
C107 C106 1.524 . S
C107 C108 1.397 . S
C107 C112 1.363 . S
C108 H85 0.950 1_565 S
C108 C107 1.397 . S
C108 C109 1.334 . S
C109 H86 0.950 . S
C109 C108 1.334 . S
C109 C110 1.287 . S
C110 C109 1.287 . S
C110 C111 1.524 . S
C110 H129 0.913 . S
C111 H87 0.950 . S
C111 C110 1.524 . S
C111 C112 1.415 . S
C112 H88 0.950 1_655 S
C112 C107 1.363 . S
C112 C111 1.415 . S
C113 H89 0.951 . S
C113 C114 1.366 . S
C113 C115 1.388 . S
C114 C113 1.366 . S
C114 C118 1.385 1_545 S
C115 H90 0.951 . S
C115 C113 1.388 . S
C115 C116 1.366 . S
C116 C115 1.366 . S
C116 C117 1.414 1_545 S
C116 C119 1.499 . S
C117 H91 0.950 . S
C117 C116 1.414 1_565 S
C117 C118 1.374 . S
C118 H92 0.950 . S
C118 C114 1.385 1_565 S
C118 C117 1.374 . S
C119 C116 1.499 . S
C119 C120 1.373 1_545 S
C119 C121 1.389 1_554 S
C120 H93 0.950 . S
C120 C106 1.377 1_455 S
C120 C119 1.373 1_565 S
C121 C105 1.377 1_455 S
C121 C119 1.389 1_556 S
C121 C122 1.524 . S
C122 C121 1.524 . S
C122 C123 1.397 . S
C122 C127 1.363 . S
C123 H94 0.950 . S
C123 C122 1.397 . S
C123 C124 1.334 . S
C124 H95 0.950 . S
C124 C123 1.334 . S
C124 C125 1.287 . S
C125 C124 1.287 . S
C125 C126 1.524 . S
C125 H128 0.999 . S
C126 H96 0.950 . S
C126 C125 1.524 . S
C126 C127 1.415 . S
C127 H97 0.950 . S
C127 C122 1.363 . S
C127 C126 1.415 . S
H128 C125 0.999 . S
H129 C110 0.913 . S
H130 C148 0.951 . S
H131 C150 0.951 . S
H132 C152 0.950 . S
H133 C153 0.950 . S
H134 C155 0.950 . S
H135 C158 0.950 . S
H136 C159 0.950 . S
H137 C161 0.950 . S
H138 C162 0.950 1_545 S
H139 C163 0.951 . S
H140 C165 0.951 . S
H141 C167 0.950 . S
H142 C168 0.950 . S
H143 C170 0.950 . S
H144 C173 0.950 . S
H145 C174 0.950 . S
H146 C176 0.950 . S
H147 C177 0.950 . S
C148 H130 0.951 . S
C148 C149 1.366 . S
C148 C150 1.388 . S
C149 C148 1.366 . S
C149 C153 1.385 1_455 S
C150 H131 0.951 . S
C150 C148 1.388 . S
C150 C151 1.366 . S
C151 C150 1.366 . S
C151 C152 1.414 1_455 S
C151 C154 1.499 . S
C152 H132 0.950 . S
C152 C151 1.414 1_655 S
C152 C153 1.374 . S
C153 H133 0.950 . S
C153 C149 1.385 1_655 S
C153 C152 1.374 . S
C154 C151 1.499 . S
C154 C155 1.373 1_455 S
C154 C156 1.389 . S
C155 H134 0.950 . S
C155 C154 1.373 1_655 S
C155 C171 1.377 1_565 S
C156 C154 1.389 . S
C156 C157 1.524 . S
C156 C170 1.377 1_565 S
C157 C156 1.524 . S
C157 C158 1.397 . S
C157 C162 1.363 . S
C158 H135 0.950 . S
C158 C157 1.397 . S
C158 C159 1.334 . S
C159 H136 0.950 . S
C159 C158 1.334 . S
C159 C160 1.287 . S
C160 C159 1.287 . S
C160 C161 1.524 . S
C160 H179 0.913 . S
C161 H137 0.950 . S
C161 C160 1.524 . S
C161 C162 1.415 . S
C162 H138 0.950 1_565 S
C162 C157 1.363 . S
C162 C161 1.415 . S
C163 H139 0.951 . S
C163 C164 1.366 1_655 S
C163 C165 1.388 . S
C164 C163 1.366 1_455 S
C164 C168 1.385 . S
C165 H140 0.951 . S
C165 C163 1.388 . S
C165 C166 1.366 1_655 S
C166 C165 1.366 1_455 S
C166 C167 1.414 . S
C166 C169 1.499 . S
C167 H141 0.950 . S
C167 C166 1.414 . S
C167 C168 1.374 . S
C168 H142 0.950 . S
C168 C164 1.385 . S
C168 C167 1.374 . S
C169 C166 1.499 . S
C169 C170 1.373 . S
C169 C171 1.389 1_455 S
C170 H143 0.950 . S
C170 C156 1.377 1_545 S
C170 C169 1.373 . S
C171 C155 1.377 1_545 S
C171 C169 1.389 1_655 S
C171 C172 1.524 . S
C172 C171 1.524 . S
C172 C173 1.397 . S
C172 C177 1.363 . S
C173 H144 0.950 . S
C173 C172 1.397 . S
C173 C174 1.334 . S
C174 H145 0.950 . S
C174 C173 1.334 . S
C174 C175 1.287 . S
C175 C174 1.287 . S
C175 C176 1.524 . S
C175 H178 0.999 . S
C176 H146 0.950 . S
C176 C175 1.524 . S
C176 C177 1.415 . S
C177 H147 0.950 . S
C177 C172 1.363 . S
C177 C176 1.415 . S
H178 C175 0.999 . S
H179 C160 0.913 . S
H180 C198 0.951 . S
H181 C200 0.951 . S
H182 C202 0.950 . S
H183 C203 0.950 . S
H184 C205 0.950 . S
H185 C208 0.950 1_545 S
H186 C209 0.950 . S
H187 C211 0.950 . S
H188 C212 0.950 . S
H189 C213 0.950 . S
H190 C215 0.951 . S
H191 C217 0.950 . S
H192 C218 0.950 . S
H193 C220 0.950 . S
H194 C223 0.950 . S
H195 C224 0.950 . S
H196 C226 0.950 . S
H197 C227 0.950 . S
C198 H180 0.951 . S
C198 C199 1.372 . S
C198 C200 1.388 . S
C199 C198 1.372 . S
C199 C203 1.377 1_565 S
C200 H181 0.951 . S
C200 C198 1.388 . S
C200 C201 1.366 1_565 S
C201 C200 1.366 1_545 S
C201 C202 1.414 . S
C201 C204 1.499 . S
C202 H182 0.950 . S
C202 C201 1.414 . S
C202 C203 1.374 . S
C203 H183 0.950 . S
C203 C199 1.377 1_545 S
C203 C202 1.374 . S
C204 C201 1.499 . S
C204 C205 1.373 1_556 S
C204 C206 1.389 1_545 S
C205 H184 0.950 . S
C205 C204 1.373 1_554 S
C205 C221 1.377 . S
C206 C204 1.389 1_565 S
C206 C207 1.524 . S
C206 C220 1.377 . S
C207 C206 1.524 . S
C207 C208 1.397 . S
C207 C212 1.363 . S
C208 H185 0.950 1_565 S
C208 C207 1.397 . S
C208 C209 1.334 . S
C209 H186 0.950 . S
C209 C208 1.334 . S
C209 C210 1.287 . S
C210 C209 1.287 . S
C210 C211 1.524 . S
C210 H229 0.913 . S
C211 H187 0.950 . S
C211 C210 1.524 . S
C211 C212 1.415 . S
C212 H188 0.950 . S
C212 C207 1.363 . S
C212 C211 1.415 . S
C213 H189 0.950 . S
C213 C214 1.367 1_554 S
C213 C215 1.388 . S
C214 C213 1.367 1_556 S
C214 C218 1.384 1_545 S
C215 H190 0.951 . S
C215 C213 1.388 . S
C215 C216 1.365 . S
C216 C215 1.365 . S
C216 C217 1.414 1_544 S
C216 C219 1.499 . S
C217 H191 0.950 . S
C217 C216 1.414 1_566 S
C217 C218 1.374 . S
C218 H192 0.950 . S
C218 C214 1.384 1_565 S
C218 C217 1.374 . S
C219 C216 1.499 . S
C219 C220 1.358 1_544 S
C219 C221 1.404 . S
C220 H193 0.950 . S
C220 C206 1.377 . S
C220 C219 1.358 1_566 S
C221 C205 1.377 . S
C221 C219 1.404 . S
C221 C222 1.524 . S
C222 C221 1.524 . S
C222 C223 1.397 . S
C222 C227 1.363 . S
C223 H194 0.950 . S
C223 C222 1.397 . S
C223 C224 1.334 . S
C224 H195 0.950 . S
C224 C223 1.334 . S
C224 C225 1.287 . S
C225 C224 1.287 . S
C225 C226 1.524 . S
C225 H228 0.999 . S
C226 H196 0.950 . S
C226 C225 1.524 . S
C226 C227 1.415 . S
C227 H197 0.950 . S
C227 C222 1.363 . S
C227 C226 1.415 . S
H228 C225 0.999 . S
H229 C210 0.913 . S
H230 C248 0.951 . S
H231 C250 0.951 . S
H232 C252 0.950 . S
H233 C253 0.950 . S
H234 C255 0.950 . S
H235 C258 0.950 . S
H236 C259 0.950 . S
H237 C261 0.950 . S
H238 C262 0.950 . S
H239 C263 0.951 . S
H240 C265 0.951 . S
H241 C267 0.950 . S
H242 C268 0.950 . S
H243 C270 0.950 . S
H244 C273 0.950 . S
H245 C274 0.950 . S
H246 C276 0.950 . S
H247 C277 0.950 . S
C248 H230 0.951 . S
C248 C249 1.366 . S
C248 C250 1.388 . S
C249 C248 1.366 . S
C249 C253 1.385 . S
C250 H231 0.951 . S
C250 C248 1.388 . S
C250 C251 1.366 . S
C251 C250 1.366 . S
C251 C252 1.414 . S
C251 C254 1.499 . S
C252 H232 0.950 . S
C252 C251 1.414 . S
C252 C253 1.374 . S
C253 H233 0.950 . S
C253 C249 1.385 . S
C253 C252 1.374 . S
C254 C251 1.499 . S
C254 C255 1.373 . S
C254 C256 1.389 1_455 S
C255 H234 0.950 . S
C255 C254 1.373 . S
C255 C271 1.377 . S
C256 C254 1.389 1_655 S
C256 C257 1.524 . S
C256 C270 1.377 . S
C257 C256 1.524 . S
C257 C258 1.397 . S
C257 C262 1.363 . S
C258 H235 0.950 . S
C258 C257 1.397 . S
C258 C259 1.334 . S
C259 H236 0.950 . S
C259 C258 1.334 . S
C259 C260 1.287 . S
C260 C259 1.287 . S
C260 C261 1.524 . S
C260 H279 0.913 . S
C261 H237 0.950 . S
C261 C260 1.524 . S
C261 C262 1.415 . S
C262 H238 0.950 . S
C262 C257 1.363 . S
C262 C261 1.415 . S
C263 H239 0.951 . S
C263 C264 1.366 . S
C263 C265 1.388 . S
C264 C263 1.366 . S
C264 C268 1.385 . S
C265 H240 0.951 . S
C265 C263 1.388 . S
C265 C266 1.366 . S
C266 C265 1.366 . S
C266 C267 1.414 . S
C266 C269 1.499 . S
C267 H241 0.950 . S
C267 C266 1.414 . S
C267 C268 1.374 . S
C268 H242 0.950 . S
C268 C264 1.385 . S
C268 C267 1.374 . S
C269 C266 1.499 . S
C269 C270 1.373 1_455 S
C269 C271 1.389 . S
C270 H243 0.950 . S
C270 C256 1.377 . S
C270 C269 1.373 1_655 S
C271 C255 1.377 . S
C271 C269 1.389 . S
C271 C272 1.524 . S
C272 C271 1.524 . S
C272 C273 1.397 . S
C272 C277 1.363 . S
C273 H244 0.950 . S
C273 C272 1.397 . S
C273 C274 1.334 . S
C274 H245 0.950 . S
C274 C273 1.334 . S
C274 C275 1.287 . S
C275 C274 1.287 . S
C275 C276 1.524 . S
C275 H278 0.999 . S
C276 H246 0.950 . S
C276 C275 1.524 . S
C276 C277 1.415 . S
C277 H247 0.950 . S
C277 C272 1.363 . S
C277 C276 1.415 . S
H278 C275 0.999 . S
H279 C260 0.913 . S
H280 C298 0.951 . S
H281 C300 0.951 . S
H282 C302 0.950 . S
H283 C303 0.950 . S
H284 C305 0.950 . S
H285 C308 0.950 . S
H286 C309 0.950 . S
H287 C311 0.950 . S
H288 C312 0.950 . S
H289 C313 0.951 . S
H290 C315 0.951 . S
H291 C317 0.950 . S
H292 C318 0.950 . S
H293 C320 0.950 . S
H294 C323 0.950 . S
H295 C324 0.950 . S
H296 C326 0.950 . S
H297 C327 0.950 . S
C298 H280 0.951 . S
C298 C299 1.366 . S
C298 C300 1.388 . S
C299 C298 1.366 . S
C299 C303 1.385 . S
C300 H281 0.951 . S
C300 C298 1.388 . S
C300 C301 1.366 . S
C301 C300 1.366 . S
C301 C302 1.414 . S
C301 C304 1.499 . S
C302 H282 0.950 . S
C302 C301 1.414 . S
C302 C303 1.374 . S
C303 H283 0.950 . S
C303 C299 1.385 . S
C303 C302 1.374 . S
C304 C301 1.499 . S
C304 C305 1.373 . S
C304 C306 1.389 . S
C305 H284 0.950 . S
C305 C304 1.373 . S
C305 C321 1.377 . S
C306 C304 1.389 . S
C306 C307 1.524 . S
C306 C320 1.377 . S
C307 C306 1.524 . S
C307 C308 1.397 . S
C307 C312 1.363 . S
C308 H285 0.950 . S
C308 C307 1.397 . S
C308 C309 1.334 . S
C309 H286 0.950 . S
C309 C308 1.334 . S
C309 C310 1.287 . S
C310 C309 1.287 . S
C310 C311 1.524 . S
C310 H329 0.913 . S
C311 H287 0.950 . S
C311 C310 1.524 . S
C311 C312 1.415 . S
C312 H288 0.950 . S
C312 C307 1.363 . S
C312 C311 1.415 . S
C313 H289 0.951 . S
C313 C314 1.366 . S
C313 C315 1.388 . S
C314 C313 1.366 . S
C314 C318 1.385 . S
C315 H290 0.951 . S
C315 C313 1.388 . S
C315 C316 1.366 . S
C316 C315 1.366 . S
C316 C317 1.414 . S
C316 C319 1.499 . S
C317 H291 0.950 . S
C317 C316 1.414 . S
C317 C318 1.374 . S
C318 H292 0.950 . S
C318 C314 1.385 . S
C318 C317 1.374 . S
C319 C316 1.499 . S
C319 C320 1.373 . S
C319 C321 1.389 . S
C320 H293 0.950 . S
C320 C306 1.377 . S
C320 C319 1.373 . S
C321 C305 1.377 . S
C321 C319 1.389 . S
C321 C322 1.524 . S
C322 C321 1.524 . S
C322 C323 1.397 . S
C322 C327 1.363 . S
C323 H294 0.950 . S
C323 C322 1.397 . S
C323 C324 1.334 . S
C324 H295 0.950 . S
C324 C323 1.334 . S
C324 C325 1.287 . S
C325 C324 1.287 . S
C325 C326 1.524 . S
C325 H328 0.999 . S
C326 H296 0.950 . S
C326 C325 1.524 . S
C326 C327 1.415 . S
C327 H297 0.950 . S
C327 C322 1.363 . S
C327 C326 1.415 . S
H328 C325 0.999 . S
H329 C310 0.913 . S
H330 C348 0.951 . S
H331 C350 0.951 . S
H332 C352 0.950 . S
H333 C353 0.950 . S
H334 C355 0.950 . S
H335 C358 0.950 . S
H336 C359 0.950 . S
H337 C361 0.950 . S
H338 C362 0.950 . S
H339 C363 0.951 . S
H340 C365 0.951 . S
H341 C367 0.950 . S
H342 C368 0.950 . S
H343 C370 0.950 . S
H344 C373 0.950 . S
H345 C374 0.950 . S
H346 C376 0.950 . S
H347 C377 0.950 . S
C348 H330 0.951 . S
C348 C349 1.366 . S
C348 C350 1.388 . S
C349 C348 1.366 . S
C349 C353 1.385 . S
C350 H331 0.951 . S
C350 C348 1.388 . S
C350 C351 1.366 . S
C351 C350 1.366 . S
C351 C352 1.414 . S
C351 C354 1.499 . S
C352 H332 0.950 . S
C352 C351 1.414 . S
C352 C353 1.374 . S
C353 H333 0.950 . S
C353 C349 1.385 . S
C353 C352 1.374 . S
C354 C351 1.499 . S
C354 C355 1.373 . S
C354 C356 1.389 . S
C355 H334 0.950 . S
C355 C354 1.373 . S
C355 C371 1.377 . S
C356 C354 1.389 . S
C356 C357 1.524 . S
C356 C370 1.377 . S
C357 C356 1.524 . S
C357 C358 1.397 . S
C357 C362 1.363 . S
C358 H335 0.950 . S
C358 C357 1.397 . S
C358 C359 1.334 . S
C359 H336 0.950 . S
C359 C358 1.334 . S
C359 C360 1.287 . S
C360 C359 1.287 . S
C360 C361 1.524 . S
C360 H379 0.913 . S
C361 H337 0.950 . S
C361 C360 1.524 . S
C361 C362 1.415 . S
C362 H338 0.950 . S
C362 C357 1.363 . S
C362 C361 1.415 . S
C363 H339 0.951 . S
C363 C364 1.366 . S
C363 C365 1.388 . S
C364 C363 1.366 . S
C364 C368 1.385 . S
C365 H340 0.951 . S
C365 C363 1.388 . S
C365 C366 1.366 . S
C366 C365 1.366 . S
C366 C367 1.414 . S
C366 C369 1.499 . S
C367 H341 0.950 . S
C367 C366 1.414 . S
C367 C368 1.374 . S
C368 H342 0.950 . S
C368 C364 1.385 . S
C368 C367 1.374 . S
C369 C366 1.499 . S
C369 C370 1.373 . S
C369 C371 1.389 . S
C370 H343 0.950 . S
C370 C356 1.377 . S
C370 C369 1.373 . S
C371 C355 1.377 . S
C371 C369 1.389 . S
C371 C372 1.524 . S
C372 C371 1.524 . S
C372 C373 1.397 . S
C372 C377 1.363 . S
C373 H344 0.950 . S
C373 C372 1.397 . S
C373 C374 1.334 . S
C374 H345 0.950 . S
C374 C373 1.334 . S
C374 C375 1.287 . S
C375 C374 1.287 . S
C375 C376 1.524 . S
C375 H378 0.999 . S
C376 H346 0.950 . S
C376 C375 1.524 . S
C376 C377 1.415 . S
C377 H347 0.950 . S
C377 C372 1.363 . S
C377 C376 1.415 . S
H378 C375 0.999 . S
H379 C360 0.913 . S
H380 C398 0.951 . S
H381 C400 0.951 . S
H382 C402 0.950 . S
H383 C403 0.950 . S
H384 C405 0.950 . S
H385 C408 0.950 . S
H386 C409 0.950 1_455 S
H387 C411 0.950 . S
H388 C412 0.950 . S
H389 C413 0.951 . S
H390 C415 0.951 . S
H391 C417 0.950 . S
H392 C418 0.950 . S
H393 C420 0.950 . S
H394 C423 0.950 . S
H395 C424 0.950 . S
H396 C426 0.950 . S
H397 C427 0.950 . S
C398 H380 0.951 . S
C398 C399 1.366 . S
C398 C400 1.388 . S
C399 C398 1.366 . S
C399 C403 1.385 . S
C400 H381 0.951 . S
C400 C398 1.388 . S
C400 C401 1.366 . S
C401 C400 1.366 . S
C401 C402 1.414 . S
C401 C404 1.499 . S
C402 H382 0.950 . S
C402 C401 1.414 . S
C402 C403 1.374 . S
C403 H383 0.950 . S
C403 C399 1.385 . S
C403 C402 1.374 . S
C404 C401 1.499 . S
C404 C405 1.373 . S
C404 C406 1.389 . S
C405 H384 0.950 . S
C405 C404 1.373 . S
C405 C421 1.377 . S
C406 C404 1.389 . S
C406 C407 1.524 . S
C406 C420 1.377 . S
C407 C406 1.524 . S
C407 C408 1.397 . S
C407 C412 1.363 . S
C408 H385 0.950 . S
C408 C407 1.397 . S
C408 C409 1.334 . S
C409 H386 0.950 1_655 S
C409 C408 1.334 . S
C409 C410 1.287 . S
C410 C409 1.287 . S
C410 C411 1.524 . S
C410 H429 0.913 . S
C411 H387 0.950 . S
C411 C410 1.524 . S
C411 C412 1.415 . S
C412 H388 0.950 . S
C412 C407 1.363 . S
C412 C411 1.415 . S
C413 H389 0.951 . S
C413 C414 1.366 . S
C413 C415 1.388 . S
C414 C413 1.366 . S
C414 C418 1.385 . S
C415 H390 0.951 . S
C415 C413 1.388 . S
C415 C416 1.366 . S
C416 C415 1.366 . S
C416 C417 1.414 . S
C416 C419 1.499 . S
C417 H391 0.950 . S
C417 C416 1.414 . S
C417 C418 1.374 . S
C418 H392 0.950 . S
C418 C414 1.385 . S
C418 C417 1.374 . S
C419 C416 1.499 . S
C419 C420 1.373 . S
C419 C421 1.389 . S
C420 H393 0.950 . S
C420 C406 1.377 . S
C420 C419 1.373 . S
C421 C405 1.377 . S
C421 C419 1.389 . S
C421 C422 1.524 . S
C422 C421 1.524 . S
C422 C423 1.397 . S
C422 C427 1.363 . S
C423 H394 0.950 . S
C423 C422 1.397 . S
C423 C424 1.334 . S
C424 H395 0.950 . S
C424 C423 1.334 . S
C424 C425 1.287 . S
C425 C424 1.287 . S
C425 C426 1.524 1_565 S
C425 H428 0.999 1_565 S
C426 H396 0.950 . S
C426 C425 1.524 1_545 S
C426 C427 1.415 1_545 S
C427 H397 0.950 . S
C427 C422 1.363 . S
C427 C426 1.415 1_565 S
H428 C425 0.999 1_545 S
H429 C410 0.913 . S
H430 C448 0.951 . S
H431 C450 0.951 . S
H432 C452 0.950 . S
H433 C453 0.950 . S
H434 C455 0.950 . S
H435 C458 0.950 . S
H436 C459 0.950 . S
H437 C461 0.950 . S
H438 C462 0.950 . S
H439 C463 0.951 . S
H440 C465 0.951 . S
H441 C467 0.950 . S
H442 C468 0.950 . S
H443 C470 0.950 . S
H444 C473 0.950 . S
H445 C474 0.950 . S
H446 C476 0.950 . S
H447 C477 0.950 . S
C448 H430 0.951 . S
C448 C449 1.366 . S
C448 C450 1.388 . S
C449 C448 1.366 . S
C449 C453 1.385 . S
C450 H431 0.951 . S
C450 C448 1.388 . S
C450 C451 1.366 . S
C451 C450 1.366 . S
C451 C452 1.414 . S
C451 C454 1.499 . S
C452 H432 0.950 . S
C452 C451 1.414 . S
C452 C453 1.374 . S
C453 H433 0.950 . S
C453 C449 1.385 . S
C453 C452 1.374 . S
C454 C451 1.499 . S
C454 C455 1.373 . S
C454 C456 1.389 . S
C455 H434 0.950 . S
C455 C454 1.373 . S
C455 C471 1.377 . S
C456 C454 1.389 . S
C456 C457 1.524 . S
C456 C470 1.377 . S
C457 C456 1.524 . S
C457 C458 1.397 . S
C457 C462 1.363 . S
C458 H435 0.950 . S
C458 C457 1.397 . S
C458 C459 1.334 . S
C459 H436 0.950 . S
C459 C458 1.334 . S
C459 C460 1.287 . S
C460 C459 1.287 . S
C460 C461 1.524 . S
C460 H479 0.913 . S
C461 H437 0.950 . S
C461 C460 1.524 . S
C461 C462 1.415 . S
C462 H438 0.950 . S
C462 C457 1.363 . S
C462 C461 1.415 . S
C463 H439 0.951 . S
C463 C464 1.366 . S
C463 C465 1.388 . S
C464 C463 1.366 . S
C464 C468 1.385 . S
C465 H440 0.951 . S
C465 C463 1.388 . S
C465 C466 1.366 . S
C466 C465 1.366 . S
C466 C467 1.414 . S
C466 C469 1.499 . S
C467 H441 0.950 . S
C467 C466 1.414 . S
C467 C468 1.374 . S
C468 H442 0.950 . S
C468 C464 1.385 . S
C468 C467 1.374 . S
C469 C466 1.499 . S
C469 C470 1.373 . S
C469 C471 1.389 . S
C470 H443 0.950 . S
C470 C456 1.377 . S
C470 C469 1.373 . S
C471 C455 1.377 . S
C471 C469 1.389 . S
C471 C472 1.524 . S
C472 C471 1.524 . S
C472 C473 1.397 . S
C472 C477 1.363 . S
C473 H444 0.950 . S
C473 C472 1.397 . S
C473 C474 1.334 1_565 S
C474 H445 0.950 . S
C474 C473 1.334 1_545 S
C474 C475 1.287 . S
C475 C474 1.287 . S
C475 C476 1.524 . S
C475 H478 0.999 . S
C476 H446 0.950 . S
C476 C475 1.524 . S
C476 C477 1.415 1_545 S
C477 H447 0.950 . S
C477 C472 1.363 . S
C477 C476 1.415 1_565 S
H478 C475 0.999 . S
H479 C460 0.913 . S
H480 C498 0.951 . S
H481 C500 0.951 . S
H482 C502 0.950 . S
H483 C503 0.950 . S
H484 C505 0.950 . S
H485 C508 0.950 . S
H486 C509 0.950 . S
H487 C511 0.950 . S
H488 C512 0.950 . S
H489 C513 0.951 . S
H490 C515 0.951 . S
H491 C517 0.950 . S
H492 C518 0.950 . S
H493 C520 0.950 . S
H494 C523 0.950 . S
H495 C524 0.950 . S
H496 C526 0.950 . S
H497 C527 0.950 . S
C498 H480 0.951 . S
C498 C499 1.366 . S
C498 C500 1.388 . S
C499 C498 1.366 . S
C499 C503 1.385 . S
C500 H481 0.951 . S
C500 C498 1.388 . S
C500 C501 1.366 . S
C501 C500 1.366 . S
C501 C502 1.414 . S
C501 C504 1.499 . S
C502 H482 0.950 . S
C502 C501 1.414 . S
C502 C503 1.374 . S
C503 H483 0.950 . S
C503 C499 1.385 . S
C503 C502 1.374 . S
C504 C501 1.499 . S
C504 C505 1.373 . S
C504 C506 1.389 . S
C505 H484 0.950 . S
C505 C504 1.373 . S
C505 C521 1.377 . S
C506 C504 1.389 . S
C506 C507 1.524 . S
C506 C520 1.377 . S
C507 C506 1.524 . S
C507 C508 1.397 . S
C507 C512 1.363 . S
C508 H485 0.950 . S
C508 C507 1.397 . S
C508 C509 1.334 . S
C509 H486 0.950 . S
C509 C508 1.334 . S
C509 C510 1.287 . S
C510 C509 1.287 . S
C510 C511 1.524 . S
C510 H529 0.913 . S
C511 H487 0.950 . S
C511 C510 1.524 . S
C511 C512 1.415 . S
C512 H488 0.950 . S
C512 C507 1.363 . S
C512 C511 1.415 . S
C513 H489 0.951 . S
C513 C514 1.366 . S
C513 C515 1.388 . S
C514 C513 1.366 . S
C514 C518 1.385 . S
C515 H490 0.951 . S
C515 C513 1.388 . S
C515 C516 1.366 . S
C516 C515 1.366 . S
C516 C517 1.414 . S
C516 C519 1.499 . S
C517 H491 0.950 . S
C517 C516 1.414 . S
C517 C518 1.374 . S
C518 H492 0.950 . S
C518 C514 1.385 . S
C518 C517 1.374 . S
C519 C516 1.499 . S
C519 C520 1.373 . S
C519 C521 1.389 . S
C520 H493 0.950 . S
C520 C506 1.377 . S
C520 C519 1.373 . S
C521 C505 1.377 . S
C521 C519 1.389 . S
C521 C522 1.524 . S
C522 C521 1.524 . S
C522 C523 1.397 . S
C522 C527 1.363 . S
C523 H494 0.950 . S
C523 C522 1.397 . S
C523 C524 1.334 1_655 S
C524 H495 0.950 . S
C524 C523 1.334 1_455 S
C524 C525 1.287 . S
C525 C524 1.287 . S
C525 C526 1.524 . S
C525 H528 0.999 . S
C526 H496 0.950 . S
C526 C525 1.524 . S
C526 C527 1.415 1_455 S
C527 H497 0.950 . S
C527 C522 1.363 . S
C527 C526 1.415 1_655 S
H528 C525 0.999 . S
H529 C510 0.913 . S
H530 C548 0.951 . S
H531 C550 0.951 . S
H532 C552 0.950 . S
H533 C553 0.950 . S
H534 C555 0.950 . S
H535 C558 0.950 . S
H536 C559 0.950 . S
H537 C561 0.950 . S
H538 C562 0.950 . S
H539 C563 0.951 . S
H540 C565 0.951 . S
H541 C567 0.950 . S
H542 C568 0.950 . S
H543 C570 0.950 . S
H544 C573 0.950 . S
H545 C574 0.947 1_655 S
H546 C576 0.950 . S
H547 C577 0.950 . S
C548 H530 0.951 . S
C548 C549 1.366 . S
C548 C550 1.388 . S
C549 C548 1.366 . S
C549 C553 1.385 . S
C550 H531 0.951 . S
C550 C548 1.388 . S
C550 C551 1.366 . S
C551 C550 1.366 . S
C551 C552 1.414 . S
C551 C554 1.499 . S
C552 H532 0.950 . S
C552 C551 1.414 . S
C552 C553 1.374 . S
C553 H533 0.950 . S
C553 C549 1.385 . S
C553 C552 1.374 . S
C554 C551 1.499 . S
C554 C555 1.373 . S
C554 C556 1.389 . S
C555 H534 0.950 . S
C555 C554 1.373 . S
C555 C571 1.377 . S
C556 C554 1.389 . S
C556 C557 1.524 . S
C556 C570 1.377 . S
C557 C556 1.524 . S
C557 C558 1.397 . S
C557 C562 1.363 . S
C558 H535 0.950 . S
C558 C557 1.397 . S
C558 C559 1.334 . S
C559 H536 0.950 . S
C559 C558 1.334 . S
C559 C560 1.287 . S
C560 C559 1.287 . S
C560 C561 1.524 . S
C560 H579 0.913 . S
C561 H537 0.950 . S
C561 C560 1.524 . S
C561 C562 1.415 . S
C562 H538 0.950 . S
C562 C557 1.363 . S
C562 C561 1.415 . S
C563 H539 0.951 . S
C563 C564 1.366 . S
C563 C565 1.388 . S
C564 C563 1.366 . S
C564 C568 1.385 . S
C565 H540 0.951 . S
C565 C563 1.388 . S
C565 C566 1.366 . S
C566 C565 1.366 . S
C566 C567 1.414 . S
C566 C569 1.499 . S
C567 H541 0.950 . S
C567 C566 1.414 . S
C567 C568 1.374 . S
C568 H542 0.950 . S
C568 C564 1.385 . S
C568 C567 1.374 . S
C569 C566 1.499 . S
C569 C570 1.373 . S
C569 C571 1.389 . S
C570 H543 0.950 . S
C570 C556 1.377 . S
C570 C569 1.373 . S
C571 C555 1.377 . S
C571 C569 1.389 . S
C571 C572 1.524 . S
C572 C571 1.524 . S
C572 C573 1.397 . S
C572 C577 1.363 . S
C573 H544 0.950 . S
C573 C572 1.397 . S
C573 C574 1.346 . S
C574 H545 0.947 1_455 S
C574 C573 1.346 . S
C574 C575 1.279 1_455 S
C575 C574 1.279 1_655 S
C575 C576 1.524 . S
C575 H578 0.999 . S
C576 H546 0.950 . S
C576 C575 1.524 . S
C576 C577 1.415 1_655 S
C577 H547 0.950 . S
C577 C572 1.363 . S
C577 C576 1.415 1_455 S
H578 C575 0.999 . S
H579 C560 0.913 . S
H580 C598 0.951 . S
H581 C600 0.951 . S
H582 C602 0.950 . S
H583 C603 0.950 . S
H584 C605 0.950 . S
H585 C608 0.950 . S
H586 C609 0.950 . S
H587 C611 0.950 . S
H588 C612 0.950 . S
H589 C613 0.951 . S
H590 C615 0.951 . S
H591 C617 0.950 . S
H592 C618 0.950 . S
H593 C620 0.950 . S
H594 C623 0.950 . S
H595 C624 0.950 . S
H596 C626 0.950 . S
H597 C627 0.950 . S
C598 H580 0.951 . S
C598 C599 1.366 . S
C598 C600 1.388 . S
C599 C598 1.366 . S
C599 C603 1.385 . S
C600 H581 0.951 . S
C600 C598 1.388 . S
C600 C601 1.366 . S
C601 C600 1.366 . S
C601 C602 1.414 . S
C601 C604 1.499 . S
C602 H582 0.950 . S
C602 C601 1.414 . S
C602 C603 1.374 . S
C603 H583 0.950 . S
C603 C599 1.385 . S
C603 C602 1.374 . S
C604 C601 1.499 . S
C604 C605 1.373 . S
C604 C606 1.389 . S
C605 H584 0.950 . S
C605 C604 1.373 . S
C605 C621 1.377 . S
C606 C604 1.389 . S
C606 C607 1.524 . S
C606 C620 1.377 . S
C607 C606 1.524 . S
C607 C608 1.397 . S
C607 C612 1.363 . S
C608 H585 0.950 . S
C608 C607 1.397 . S
C608 C609 1.334 . S
C609 H586 0.950 . S
C609 C608 1.334 . S
C609 C610 1.287 . S
C610 C609 1.287 . S
C610 C611 1.524 . S
C610 H629 0.913 . S
C611 H587 0.950 . S
C611 C610 1.524 . S
C611 C612 1.415 . S
C612 H588 0.950 . S
C612 C607 1.363 . S
C612 C611 1.415 . S
C613 H589 0.951 . S
C613 C614 1.366 . S
C613 C615 1.388 . S
C614 C613 1.366 . S
C614 C618 1.385 . S
C615 H590 0.951 . S
C615 C613 1.388 . S
C615 C616 1.366 . S
C616 C615 1.366 . S
C616 C617 1.414 . S
C616 C619 1.499 . S
C617 H591 0.950 . S
C617 C616 1.414 . S
C617 C618 1.374 . S
C618 H592 0.950 . S
C618 C614 1.385 . S
C618 C617 1.374 . S
C619 C616 1.499 . S
C619 C620 1.373 . S
C619 C621 1.389 . S
C620 H593 0.950 . S
C620 C606 1.377 . S
C620 C619 1.373 . S
C621 C605 1.377 . S
C621 C619 1.389 . S
C621 C622 1.524 . S
C622 C621 1.524 . S
C622 C623 1.397 . S
C622 C627 1.363 . S
C623 H594 0.950 . S
C623 C622 1.397 . S
C623 C624 1.334 . S
C624 H595 0.950 . S
C624 C623 1.334 . S
C624 C625 1.287 . S
C625 C624 1.287 . S
C625 C626 1.524 . S
C625 H628 0.999 . S
C626 H596 0.950 . S
C626 C625 1.524 . S
C626 C627 1.415 . S
C627 H597 0.950 . S
C627 C622 1.363 . S
C627 C626 1.415 . S
H628 C625 0.999 . S
H629 C610 0.913 . S
H630 C648 0.951 . S
H631 C650 0.951 . S
H632 C652 0.950 . S
H633 C653 0.950 . S
H634 C655 0.950 . S
H635 C658 0.950 . S
H636 C659 0.950 . S
H637 C661 0.950 1_455 S
H638 C662 0.950 . S
H639 C663 0.951 . S
H640 C665 0.951 . S
H641 C667 0.950 . S
H642 C668 0.950 . S
H643 C670 0.950 . S
H644 C673 0.950 . S
H645 C674 0.950 . S
H646 C676 0.950 . S
H647 C677 0.950 . S
C648 H630 0.951 . S
C648 C649 1.366 . S
C648 C650 1.388 . S
C649 C648 1.366 . S
C649 C653 1.385 . S
C650 H631 0.951 . S
C650 C648 1.388 . S
C650 C651 1.366 . S
C651 C650 1.366 . S
C651 C652 1.414 . S
C651 C654 1.499 . S
C652 H632 0.950 . S
C652 C651 1.414 . S
C652 C653 1.374 . S
C653 H633 0.950 . S
C653 C649 1.385 . S
C653 C652 1.374 . S
C654 C651 1.499 . S
C654 C655 1.373 . S
C654 C656 1.389 . S
C655 H634 0.950 . S
C655 C654 1.373 . S
C655 C671 1.377 . S
C656 C654 1.389 . S
C656 C657 1.524 . S
C656 C670 1.377 . S
C657 C656 1.524 . S
C657 C658 1.397 . S
C657 C662 1.363 . S
C658 H635 0.950 . S
C658 C657 1.397 . S
C658 C659 1.334 1_545 S
C659 H636 0.950 . S
C659 C658 1.334 1_565 S
C659 C660 1.287 . S
C660 C659 1.287 . S
C660 C661 1.524 1_565 S
C660 H679 0.913 . S
C661 H637 0.950 1_655 S
C661 C660 1.524 1_545 S
C661 C662 1.415 . S
C662 H638 0.950 . S
C662 C657 1.363 . S
C662 C661 1.415 . S
C663 H639 0.951 . S
C663 C664 1.366 . S
C663 C665 1.388 . S
C664 C663 1.366 . S
C664 C668 1.385 . S
C665 H640 0.951 . S
C665 C663 1.388 . S
C665 C666 1.366 . S
C666 C665 1.366 . S
C666 C667 1.414 . S
C666 C669 1.499 . S
C667 H641 0.950 . S
C667 C666 1.414 . S
C667 C668 1.374 . S
C668 H642 0.950 . S
C668 C664 1.385 . S
C668 C667 1.374 . S
C669 C666 1.499 . S
C669 C670 1.373 . S
C669 C671 1.389 . S
C670 H643 0.950 . S
C670 C656 1.377 . S
C670 C669 1.373 . S
C671 C655 1.377 . S
C671 C669 1.389 . S
C671 C672 1.524 . S
C672 C671 1.524 . S
C672 C673 1.397 . S
C672 C677 1.363 . S
C673 H644 0.950 . S
C673 C672 1.397 . S
C673 C674 1.334 . S
C674 H645 0.950 . S
C674 C673 1.334 . S
C674 C675 1.287 . S
C675 C674 1.287 . S
C675 C676 1.524 . S
C675 H678 0.999 . S
C676 H646 0.950 . S
C676 C675 1.524 . S
C676 C677 1.415 . S
C677 H647 0.950 . S
C677 C672 1.363 . S
C677 C676 1.415 . S
H678 C675 0.999 . S
H679 C660 0.913 . S
C99 C49 1.533 1_565 S
C114 C9 1.533 . S
C149 C69 1.525 . S
C164 C29 1.511 . S
C199 C48 0.925 1_556 S
C214 C8 0.917 1_556 S
C249 C28 0.900 . S
C264 C68 0.890 1_455 S
C299 C21 0.699 . S
C314 C2 0.695 . S
C349 C22 0.840 . S
C364 C41 0.835 . S
C399 C62 0.804 . S
C414 C42 0.804 . S
C449 C61 0.731 . S
C464 C1 0.732 . S
C499 C59 2.269 . S
C514 C79 2.284 . S
C549 C18 2.480 . S
C564 C78 2.476 . S
C599 C38 2.504 . S
C614 C19 2.417 . S
C649 C58 2.331 . S
C664 C39 2.256 . S
