# Generated by pormake.
# Topology uki, (4)-cn, num edge types: 1
# Building blocks:
#     Node 0, Type 0, BuildingBlock: QUQFOY_clean_sbu_1, # of connection points: 4
#     Node 1, Type 0, BuildingBlock: QUQFOY_clean_sbu_1, # of connection points: 4
#     Node 2, Type 0, BuildingBlock: QUQFOY_clean_sbu_1, # of connection points: 4
#     Node 3, Type 0, BuildingBlock: QUQFOY_clean_sbu_1, # of connection points: 4
#     Node 4, Type 0, BuildingBlock: QUQFOY_clean_sbu_1, # of connection points: 4
#     Node 5, Type 0, BuildingBlock: QUQFOY_clean_sbu_1, # of connection points: 4
#     Node 6, Type 0, BuildingBlock: QUQFOY_clean_sbu_1, # of connection points: 4
#     Node 7, Type 0, BuildingBlock: QUQFOY_clean_sbu_1, # of connection points: 4
#     Node 8, Type 0, BuildingBlock: QUQFOY_clean_sbu_1, # of connection points: 4
#     Node 9, Type 0, BuildingBlock: QUQFOY_clean_sbu_1, # of connection points: 4
#     Node 10, Type 0, BuildingBlock: QUQFOY_clean_sbu_1, # of connection points: 4
#     Node 11, Type 0, BuildingBlock: QUQFOY_clean_sbu_1, # of connection points: 4
#     Node 12, Type 0, BuildingBlock: QUQFOY_clean_sbu_1, # of connection points: 4
#     Node 13, Type 0, BuildingBlock: QUQFOY_clean_sbu_1, # of connection points: 4
#     Node 14, Type 0, BuildingBlock: QUQFOY_clean_sbu_1, # of connection points: 4
#     Node 15, Type 0, BuildingBlock: QUQFOY_clean_sbu_1, # of connection points: 4
#     Edge 16, Type (0, 0), BuildingBlock: KIFKEQ_clean_linker_1, # of connection points: 2
#     Edge 17, Type (0, 0), BuildingBlock: KIFKEQ_clean_linker_1, # of connection points: 2
#     Edge 18, Type (0, 0), BuildingBlock: KIFKEQ_clean_linker_1, # of connection points: 2
#     Edge 19, Type (0, 0), BuildingBlock: KIFKEQ_clean_linker_1, # of connection points: 2
#     Edge 20, Type (0, 0), BuildingBlock: KIFKEQ_clean_linker_1, # of connection points: 2
#     Edge 21, Type (0, 0), BuildingBlock: KIFKEQ_clean_linker_1, # of connection points: 2
#     Edge 22, Type (0, 0), BuildingBlock: KIFKEQ_clean_linker_1, # of connection points: 2
#     Edge 23, Type (0, 0), BuildingBlock: KIFKEQ_clean_linker_1, # of connection points: 2
#     Edge 24, Type (0, 0), BuildingBlock: KIFKEQ_clean_linker_1, # of connection points: 2
#     Edge 25, Type (0, 0), BuildingBlock: KIFKEQ_clean_linker_1, # of connection points: 2
#     Edge 26, Type (0, 0), BuildingBlock: KIFKEQ_clean_linker_1, # of connection points: 2
#     Edge 27, Type (0, 0), BuildingBlock: KIFKEQ_clean_linker_1, # of connection points: 2
#     Edge 28, Type (0, 0), BuildingBlock: KIFKEQ_clean_linker_1, # of connection points: 2
#     Edge 29, Type (0, 0), BuildingBlock: KIFKEQ_clean_linker_1, # of connection points: 2
#     Edge 30, Type (0, 0), BuildingBlock: KIFKEQ_clean_linker_1, # of connection points: 2
#     Edge 31, Type (0, 0), BuildingBlock: KIFKEQ_clean_linker_1, # of connection points: 2
#     Edge 32, Type (0, 0), BuildingBlock: KIFKEQ_clean_linker_1, # of connection points: 2
#     Edge 33, Type (0, 0), BuildingBlock: KIFKEQ_clean_linker_1, # of connection points: 2
#     Edge 34, Type (0, 0), BuildingBlock: KIFKEQ_clean_linker_1, # of connection points: 2
#     Edge 35, Type (0, 0), BuildingBlock: KIFKEQ_clean_linker_1, # of connection points: 2
#     Edge 36, Type (0, 0), BuildingBlock: KIFKEQ_clean_linker_1, # of connection points: 2
#     Edge 37, Type (0, 0), BuildingBlock: KIFKEQ_clean_linker_1, # of connection points: 2
#     Edge 38, Type (0, 0), BuildingBlock: KIFKEQ_clean_linker_1, # of connection points: 2
#     Edge 39, Type (0, 0), BuildingBlock: KIFKEQ_clean_linker_1, # of connection points: 2
#     Edge 40, Type (0, 0), BuildingBlock: KIFKEQ_clean_linker_1, # of connection points: 2
#     Edge 41, Type (0, 0), BuildingBlock: KIFKEQ_clean_linker_1, # of connection points: 2
#     Edge 42, Type (0, 0), BuildingBlock: KIFKEQ_clean_linker_1, # of connection points: 2
#     Edge 43, Type (0, 0), BuildingBlock: KIFKEQ_clean_linker_1, # of connection points: 2
#     Edge 44, Type (0, 0), BuildingBlock: KIFKEQ_clean_linker_1, # of connection points: 2
#     Edge 45, Type (0, 0), BuildingBlock: KIFKEQ_clean_linker_1, # of connection points: 2
#     Edge 46, Type (0, 0), BuildingBlock: KIFKEQ_clean_linker_1, # of connection points: 2
#     Edge 47, Type (0, 0), BuildingBlock: KIFKEQ_clean_linker_1, # of connection points: 2
# Relax obj value: 0.032
# Max RMSD: 0.129
# Mean RMSD: 0.129
data_MOF--net-uki--node1-QUQFOY_clean_sbu_1--edge1-KIFKEQ_clean_linker_1
_symmetry_space_group_name_H-M    P1
_symmetry_Int_Tables_number       1
_symmetry_cell_setting            triclinic
loop_
_symmetry_equiv_pos_as_xyz
'x, y, z'
_cell_length_a     33.114184
_cell_length_b     32.996488
_cell_length_c     73.536871
_cell_angle_alpha  89.963495
_cell_angle_beta   90.020168
_cell_angle_gamma 90.138943
loop_
_atom_site_label
_atom_site_type_symbol
_atom_site_fract_x
_atom_site_fract_y
_atom_site_fract_z
_atom_type_partial_charge
O0 O 0.10854 0.29817 0.30033 0.0
Cd1 Cd 0.08548 0.26418 0.32149 0.0
Cd2 Cd 0.07842 0.21326 0.29495 0.0
O3 O 0.12172 0.24768 0.2817 0.0
O4 O 0.10903 0.28712 0.3443 0.0
O5 O 0.12328 0.22563 0.33422 0.0
C6 C 0.12955 0.2541 0.34597 0.0
C7 C 0.07366 0.14325 0.29674 0.0
C8 C 0.1241 0.28514 0.28565 0.0
C9 C 1.00333 0.25384 0.30845 0.0
O10 O 0.02164 0.23773 0.29513 0.0
O11 O 0.02284 0.26325 0.32276 0.0
O12 O 0.07062 0.16175 0.28134 0.0
O13 O 0.08386 0.16421 0.31087 0.0
O14 O 0.28799 0.88114 0.73367 0.0
Cd15 Cd 0.26501 0.91001 0.71106 0.0
Cd16 Cd 0.21226 0.93826 0.73786 0.0
O17 O 0.24402 0.89946 0.75471 0.0
O18 O 0.29111 0.88115 0.69032 0.0
O19 O 0.2254 0.87893 0.69534 0.0
C20 C 0.25612 0.867 0.68594 0.0
C21 C 0.1431 0.94932 0.74093 0.0
C22 C 0.27541 0.88001 0.75 0.0
C23 C 0.26649 0.99885 0.71851 0.0
O24 O 0.24086 0.99085 0.73081 0.0
O25 O 0.28007 0.97098 0.70826 0.0
O26 O 0.16828 0.95991 0.7534 0.0
O27 O 0.15687 0.92933 0.72718 0.0
O28 O 0.90009 0.71614 0.30097 0.0
Cd29 Cd 0.92113 0.74921 0.32273 0.0
Cd30 Cd 0.93079 0.80257 0.2965 0.0
O31 O 0.89131 0.76648 0.28167 0.0
O32 O 0.89545 0.7252 0.34482 0.0
O33 O 0.88266 0.78744 0.33524 0.0
C34 C 0.87518 0.75835 0.34655 0.0
C35 C 0.93332 0.87287 0.29712 0.0
C36 C 0.88763 0.72914 0.28569 0.0
C37 C 1.00481 0.76214 0.31211 0.0
O38 O 0.9884 0.78075 0.29893 0.0
O39 O 0.98346 0.74899 0.32523 0.0
O40 O 0.93964 0.85312 0.28228 0.0
O41 O 0.92106 0.85289 0.31121 0.0
O42 O 0.71523 0.13042 0.73167 0.0
Cd43 Cd 0.73956 0.10001 0.70978 0.0
Cd44 Cd 0.79531 0.08006 0.7366 0.0
O45 O 0.76271 0.12032 0.7523 0.0
O46 O 0.71414 0.12594 0.68809 0.0
O47 O 0.77936 0.13082 0.69414 0.0
C48 C 0.749 0.14098 0.68407 0.0
C49 C 0.86493 0.07224 0.73971 0.0
C50 C 0.72933 0.13609 0.74756 0.0
C51 C 0.74429 0.01296 0.71964 0.0
O52 O 0.76926 0.02502 0.73156 0.0
O53 O 0.72865 0.03787 0.70848 0.0
O54 O 0.84042 0.063 0.75265 0.0
O55 O 0.85014 0.08923 0.72535 0.0
O56 O 0.11217 0.21287 0.9785 0.0
Cd57 Cd 0.08866 0.24238 0.95624 0.0
Cd58 Cd 0.07878 0.299 0.98107 0.0
O59 O 0.12131 0.26658 0.99583 0.0
O60 O 0.1145 0.21774 0.93437 0.0
O61 O 0.12489 0.28132 0.94275 0.0
C62 C 0.13326 0.25166 0.9319 0.0
C63 C 0.07457 0.36925 0.97978 0.0
C64 C 0.12592 0.22887 0.99295 0.0
C65 C 0.00517 0.25362 0.9675 0.0
O66 O 0.02163 0.27466 0.97993 0.0
O67 O 0.02629 0.23957 0.95452 0.0
O68 O 0.06953 0.34999 0.99486 0.0
O69 O 0.08589 0.34891 0.96567 0.0
O70 O 0.21242 0.89611 0.04691 0.0
Cd71 Cd 0.24156 0.91983 0.06923 0.0
Cd72 Cd 0.29691 0.93516 0.04364 0.0
O73 O 0.26465 0.89343 0.02835 0.0
O74 O 0.21679 0.89273 0.09078 0.0
O75 O 0.2807 0.88427 0.08294 0.0
C76 C 0.25093 0.87496 0.09354 0.0
C77 C 0.36685 0.94156 0.0415 0.0
C78 C 0.22787 0.88553 0.03183 0.0
C79 C 0.24897 1.00531 0.05948 0.0
O80 O 0.27115 0.99139 0.04688 0.0
O81 O 0.23553 0.98191 0.07183 0.0
O82 O 0.34355 0.94969 0.02798 0.0
O83 O 0.35061 0.9265 0.05599 0.0
O84 O 0.89931 0.79687 0.9791 0.0
Cd85 Cd 0.92079 0.76607 0.95681 0.0
Cd86 Cd 0.93666 0.71281 0.98262 0.0
O87 O 0.89634 0.74573 0.99835 0.0
O88 O 0.89325 0.79091 0.93537 0.0
O89 O 0.88347 0.72727 0.94373 0.0
C90 C 0.8744 0.75703 0.93304 0.0
C91 C 0.94164 0.64267 0.98149 0.0
C92 C 0.88949 0.7827 0.99456 0.0
C93 C 0.00629 0.75925 0.96621 0.0
O94 O 0.9927 0.73857 0.97944 0.0
O95 O 0.98271 0.77108 0.95362 0.0
O96 O 0.94886 0.66229 0.99629 0.0
O97 O 0.92779 0.66258 0.9677 0.0
O98 O 0.79122 0.13005 0.0477 0.0
Cd99 Cd 0.77151 0.09823 0.07008 0.0
Cd100 Cd 0.717 0.07187 0.04321 0.0
O101 O 0.74604 0.11383 0.02683 0.0
O102 O 0.80091 0.12675 0.09 0.0
O103 O 0.7344 0.12677 0.08784 0.0
C104 C 0.76665 0.13968 0.09589 0.0
C105 C 0.64785 0.05954 0.04096 0.0
C106 C 0.77732 0.13344 0.03166 0.0
C107 C 0.77387 0.01047 0.0606 0.0
O108 O 0.74735 0.01938 0.04882 0.0
O109 O 0.78778 0.03737 0.07132 0.0
O110 O 0.67227 0.05057 0.02797 0.0
O111 O 0.66234 0.07847 0.0549 0.0
O112 O 0.62466 0.79407 0.79828 0.0
Cd113 Cd 0.59562 0.76994 0.8206 0.0
Cd114 Cd 0.57244 0.71477 0.79368 0.0
O115 O 0.61184 0.74744 0.77747 0.0
O116 O 0.62358 0.79524 0.84184 0.0
O117 O 0.62699 0.72974 0.83581 0.0
C118 C 0.63842 0.76014 0.84565 0.0
C119 C 0.5624 0.64515 0.79048 0.0
C120 C 0.62867 0.78046 0.78221 0.0
C121 C 0.50808 0.76676 0.81193 0.0
O122 O 0.51872 0.74175 0.79977 0.0
O123 O 0.53398 0.78186 0.82279 0.0
O124 O 0.55285 0.6702 0.77778 0.0
O125 O 0.58112 0.6593 0.80454 0.0
O126 O 0.78326 0.37726 0.23919 0.0
Cd127 Cd 0.76827 0.40707 0.21551 0.0
Cd128 Cd 0.71035 0.43883 0.23994 0.0
O129 O 0.73656 0.39933 0.25824 0.0
O130 O 0.799 0.37539 0.19705 0.0
O131 O 0.73237 0.37835 0.19724 0.0
C132 C 0.76502 0.36349 0.19035 0.0
C133 C 0.6416 0.45334 0.24168 0.0
C134 C 0.76709 0.37744 0.25484 0.0
C135 C 0.77162 0.49616 0.22254 0.0
O136 O 0.74251 0.48972 0.23337 0.0
O137 O 0.78695 0.46726 0.21341 0.0
O138 O 0.66631 0.46367 0.25436 0.0
O139 O 0.65552 0.43218 0.22831 0.0
O140 O 0.39545 0.21033 0.79894 0.0
Cd141 Cd 0.4168 0.24059 0.82147 0.0
Cd142 Cd 0.43008 0.29712 0.79554 0.0
O143 O 0.39134 0.262 0.77997 0.0
O144 O 0.38887 0.2161 0.84289 0.0
O145 O 0.37974 0.2797 0.83432 0.0
C146 C 0.37032 0.25012 0.84508 0.0
C147 C 0.43594 0.36719 0.79197 0.0
C148 C 0.3852 0.2248 0.78359 0.0
C149 C 0.50157 0.25228 0.81246 0.0
O150 O 0.4867 0.27386 0.79984 0.0
O151 O 0.47885 0.23711 0.82463 0.0
O152 O 0.44481 0.34253 0.77904 0.0
O153 O 0.41994 0.35225 0.80653 0.0
O154 O 0.21649 0.6378 0.23208 0.0
Cd155 Cd 0.23949 0.60541 0.21052 0.0
Cd156 Cd 0.29364 0.58384 0.23725 0.0
O157 O 0.26332 0.62605 0.25278 0.0
O158 O 0.21419 0.63116 0.18876 0.0
O159 O 0.27969 0.63437 0.19437 0.0
C160 C 0.24931 0.64511 0.18444 0.0
C161 C 0.36309 0.57496 0.23964 0.0
C162 C 0.23083 0.64335 0.24792 0.0
C163 C 0.23988 0.51841 0.22124 0.0
O164 O 0.26549 0.52943 0.23308 0.0
O165 O 0.22572 0.54379 0.20988 0.0
O166 O 0.33916 0.56662 0.25292 0.0
O167 O 0.34781 0.59137 0.22524 0.0
O168 O 0.63056 0.71752 0.48193 0.0
Cd169 Cd 0.59976 0.74162 0.4601 0.0
Cd170 Cd 0.57984 0.79716 0.48673 0.0
O171 O 0.6208 0.76548 0.50239 0.0
O172 O 0.62622 0.71706 0.43837 0.0
O173 O 0.62995 0.78243 0.44473 0.0
C174 C 0.64083 0.75236 0.4346 0.0
C175 C 0.5716 0.86698 0.48941 0.0
C176 C 0.63663 0.73204 0.49771 0.0
C177 C 0.51316 0.74513 0.47023 0.0
O178 O 0.52517 0.77022 0.48212 0.0
O179 O 0.5379 0.72993 0.4589 0.0
O180 O 0.56287 0.84273 0.50256 0.0
O181 O 0.58826 0.85182 0.47507 0.0
O182 O 0.70922 0.39752 0.54758 0.0
Cd183 Cd 0.74072 0.4183 0.56988 0.0
Cd184 Cd 0.7959 0.43175 0.54343 0.0
O185 O 0.75949 0.39388 0.52796 0.0
O186 O 0.71632 0.39098 0.59146 0.0
O187 O 0.77927 0.38043 0.58263 0.0
C188 C 0.74993 0.37181 0.59359 0.0
C189 C 0.86574 0.43655 0.53968 0.0
C190 C 0.72263 0.38773 0.53199 0.0
C191 C 0.75325 0.50351 0.56122 0.0
O192 O 0.77391 0.4888 0.54829 0.0
O193 O 0.7383 0.48047 0.57333 0.0
O194 O 0.84113 0.44615 0.52685 0.0
O195 O 0.85082 0.4203 0.55419 0.0
O196 O 0.37661 0.2895 0.48284 0.0
Cd197 Cd 0.40565 0.26814 0.46 0.0
Cd198 Cd 0.43496 0.21436 0.48637 0.0
O199 O 0.39596 0.24485 0.50348 0.0
O200 O 0.37573 0.29433 0.43955 0.0
O201 O 0.37545 0.22817 0.44409 0.0
C202 C 0.36239 0.25902 0.435 0.0
C203 C 0.44732 0.14519 0.48951 0.0
C204 C 0.37588 0.27612 0.49905 0.0
C205 C 0.49424 0.27076 0.46737 0.0
O206 O 0.48678 0.24417 0.47937 0.0
O207 O 0.46616 0.2846 0.45732 0.0
O208 O 0.45764 0.17074 0.50189 0.0
O209 O 0.42703 0.15856 0.47576 0.0
O210 O 0.29174 0.62382 0.54785 0.0
Cd211 Cd 0.26636 0.59481 0.56991 0.0
Cd212 Cd 0.21265 0.57182 0.54239 0.0
O213 O 0.24643 0.61108 0.52649 0.0
O214 O 0.29136 0.62205 0.59138 0.0
O215 O 0.22635 0.62666 0.58495 0.0
C216 C 0.2565 0.63732 0.59506 0.0
C217 C 0.14327 0.56234 0.53879 0.0
C218 C 0.27916 0.62781 0.5316 0.0
C219 C 0.26286 0.50698 0.56135 0.0
O220 O 0.23872 0.5177 0.54886 0.0
O221 O 0.27757 0.53295 0.57229 0.0
O222 O 0.16847 0.55254 0.52623 0.0
O223 O 0.15717 0.58111 0.55289 0.0
H224 H 0.17788 0.27191 0.25765 0.0
H225 H 0.10764 0.36536 0.28385 0.0
H226 H 0.20494 0.32272 0.23632 0.0
H227 H 0.13371 0.41515 0.26253 0.0
H228 H 0.1621 0.49351 0.21588 0.0
H229 H 0.13221 0.43074 0.22763 0.0
H230 H 0.2507 0.38766 0.24243 0.0
H231 H 0.28045 0.45045 0.23098 0.0
C232 C 0.16805 0.30309 0.25877 0.0
C233 C 0.14101 0.31472 0.27255 0.0
C234 C 0.18334 0.33201 0.24655 0.0
C235 C 0.17088 0.37266 0.24763 0.0
C236 C 0.14323 0.38391 0.26115 0.0
C237 C 0.12875 0.35541 0.27353 0.0
C238 C 0.18184 0.46995 0.22097 0.0
C239 C 0.22348 0.47691 0.22271 0.0
C240 C 0.16476 0.43419 0.22779 0.0
C241 C 0.18918 0.40465 0.23611 0.0
C242 C 0.23123 0.40982 0.23603 0.0
C243 C 0.2482 0.44581 0.22953 0.0
H244 H 0.44232 0.72093 0.80482 0.0
H245 H 0.47873 0.84348 0.81727 0.0
H246 H 0.37699 0.74533 0.79433 0.0
H247 H 0.41317 0.86816 0.80644 0.0
H248 H 0.32214 0.81396 0.7444 0.0
H249 H 0.37091 0.78423 0.76515 0.0
H250 H 0.33474 0.86817 0.8071 0.0
H251 H 0.28507 0.8979 0.78616 0.0
C252 C 0.43576 0.75301 0.80589 0.0
C253 C 0.46569 0.78042 0.81162 0.0
C254 C 0.39844 0.76697 0.79981 0.0
C255 C 0.39037 0.80868 0.79918 0.0
C256 C 0.41858 0.83581 0.80679 0.0
C257 C 0.45607 0.82172 0.81302 0.0
C258 C 0.32392 0.82553 0.75816 0.0
C259 C 0.29986 0.85822 0.76366 0.0
C260 C 0.35172 0.80836 0.77011 0.0
C261 C 0.35658 0.82382 0.78779 0.0
C262 C 0.33158 0.85569 0.79356 0.0
C263 C 0.30305 0.87246 0.78163 0.0
H264 H 0.85163 0.51535 0.21926 0.0
H265 H 0.73405 0.56816 0.22787 0.0
H266 H 0.88331 0.57796 0.23011 0.0
H267 H 0.7656 0.63056 0.23858 0.0
H268 H 0.83951 0.74254 0.25563 0.0
H269 H 0.81445 0.69141 0.234 0.0
H270 H 0.87818 0.59836 0.2636 0.0
H271 H 0.90237 0.64852 0.2851 0.0
C272 C 0.83262 0.54089 0.2227 0.0
C273 C 0.79044 0.53677 0.22298 0.0
C274 C 0.8507 0.57659 0.22904 0.0
C275 C 0.82684 0.60882 0.23547 0.0
C276 C 0.78473 0.60631 0.2337 0.0
C277 C 0.76669 0.57051 0.22762 0.0
C278 C 0.84821 0.71117 0.2574 0.0
C279 C 0.87246 0.69949 0.2722 0.0
C280 C 0.83406 0.68203 0.24501 0.0
C281 C 0.84487 0.64103 0.24698 0.0
C282 C 0.86999 0.62979 0.26149 0.0
C283 C 0.88335 0.65854 0.27399 0.0
H284 H 0.5376 0.18009 0.8211 0.0
H285 H 0.56201 0.29929 0.79947 0.0
H286 H 0.60208 0.15613 0.80884 0.0
H287 H 0.62632 0.27563 0.78749 0.0
H288 H 0.72769 0.12862 0.78473 0.0
H289 H 0.68015 0.16122 0.80578 0.0
H290 H 0.62862 0.22786 0.76088 0.0
H291 H 0.6753 0.1953 0.74005 0.0
C292 C 0.55754 0.20157 0.81447 0.0
C293 C 0.54462 0.24133 0.81096 0.0
C294 C 0.59441 0.18786 0.80742 0.0
C295 C 0.61872 0.21386 0.79687 0.0
C296 C 0.60781 0.25478 0.79527 0.0
C297 C 0.57108 0.26834 0.80219 0.0
C298 C 0.70667 0.15086 0.77949 0.0
C299 C 0.70505 0.15939 0.76075 0.0
C300 C 0.67942 0.16929 0.7915 0.0
C301 C 0.65086 0.19721 0.78499 0.0
C302 C 0.65066 0.20695 0.76637 0.0
C303 C 0.67722 0.18809 0.7544 0.0
H304 H 0.28881 0.06953 0.04476 0.0
H305 H 0.17527 0.03508 0.0692 0.0
H306 H 0.25814 0.13168 0.03323 0.0
H307 H 0.14442 0.09707 0.05735 0.0
H308 H 0.10688 0.15063 0.99943 0.0
H309 H 0.13658 0.10473 0.02155 0.0
H310 H 0.21577 0.20014 0.04018 0.0
H311 H 0.18487 0.24709 0.01813 0.0
C312 C 0.25768 0.076 0.04822 0.0
C313 C 0.23425 0.04732 0.05769 0.0
C314 C 0.24021 0.11165 0.04168 0.0
C315 C 0.19888 0.11883 0.04424 0.0
C316 C 0.17638 0.09205 0.05517 0.0
C317 C 0.19406 0.05671 0.06202 0.0
C318 C 0.13039 0.16204 1.00833 0.0
C319 C 0.14389 0.20231 1.00695 0.0
C320 C 0.14701 0.13587 0.02115 0.0
C321 C 0.17811 0.14906 0.03269 0.0
C322 C 0.19154 0.18945 0.03151 0.0
C323 C 0.17404 0.21614 0.01891 0.0
H324 H 0.14874 0.9009 0.02663 0.0
H325 H 0.24741 0.82979 1.00545 0.0
H326 H 0.10327 0.87075 1.00441 0.0
H327 H 0.20094 0.79827 0.98336 0.0
H328 H 0.07128 0.72011 0.98022 0.0
H329 H 0.13319 0.75201 0.99136 0.0
H330 H 0.09619 0.86566 0.96768 0.0
H331 H 0.03457 0.83354 0.95613 0.0
C332 C 0.1607 0.87881 0.01718 0.0
C333 C 0.20147 0.86735 0.01786 0.0
C334 C 0.13478 0.86195 1.00432 0.0
C335 C 0.14879 0.83262 0.99207 0.0
C336 C 0.18965 0.8212 0.99258 0.0
C337 C 0.21605 0.83902 1.0052 0.0
C338 C 0.07726 0.75146 0.97671 0.0
C339 C 0.04807 0.77451 0.96747 0.0
C340 C 0.11271 0.76963 0.98303 0.0
C341 C 0.1191 0.81128 0.9805 0.0
C342 C 0.0918 0.83344 0.96977 0.0
C343 C 0.05669 0.81504 0.96311 0.0
H344 H 0.84128 0.7662 0.02428 0.0
H345 H 0.90397 0.86315 0.99655 0.0
H346 H 0.81548 0.8154 0.04662 0.0
H347 H 0.87933 0.91133 0.01883 0.0
H348 H 0.85284 0.98922 0.06518 0.0
H349 H 0.88413 0.92717 0.0536 0.0
H350 H 0.76624 0.87807 0.04152 0.0
H351 H 0.73508 0.9401 0.05281 0.0
C352 C 0.84983 0.79779 0.02307 0.0
C353 C 0.87414 0.81094 1.00854 0.0
C354 C 0.83528 0.82579 0.03586 0.0
C355 C 0.84594 0.86701 0.03458 0.0
C356 C 0.87124 0.87967 0.02037 0.0
C357 C 0.88486 0.8521 1.00744 0.0
C358 C 0.83362 0.96448 0.06079 0.0
C359 C 0.79163 0.96955 0.05968 0.0
C360 C 0.85149 0.92911 0.05407 0.0
C361 C 0.82755 0.89813 0.04648 0.0
C362 C 0.78537 0.90137 0.04735 0.0
C363 C 0.76758 0.93693 0.05376 0.0
H364 H 0.82626 0.19701 0.03925 0.0
H365 H 0.7809 0.12555 0.99447 0.0
H366 H 0.87304 0.23092 0.01899 0.0
H367 H 0.82816 0.16007 0.97386 0.0
H368 H 0.96803 0.18203 0.95869 0.0
H369 H 0.90329 0.15805 0.97067 0.0
H370 H 0.881 0.27658 0.99343 0.0
H371 H 0.94604 0.29991 0.982 0.0
C372 C 0.82573 0.18916 0.02495 0.0
C373 C 0.80011 0.15845 0.01848 0.0
C374 C 0.85238 0.20887 1.01325 0.0
C375 C 0.85436 0.19825 0.99476 0.0
C376 C 0.82743 0.16877 0.98805 0.0
C377 C 0.80023 0.14925 0.99981 0.0
C378 C 0.9486 0.20324 0.96571 0.0
C379 C 0.96224 0.24256 0.96972 0.0
C380 C 0.91148 0.18956 0.97257 0.0
C381 C 0.88744 0.21519 0.98337 0.0
C382 C 0.89927 0.25582 0.98555 0.0
C383 C 0.93642 0.26925 0.97894 0.0
H384 H 0.69166 0.8306 0.78899 0.0
H385 H 0.61548 0.78704 0.74549 0.0
H386 H 0.72273 0.87903 0.76835 0.0
H387 H 0.64651 0.83645 0.72466 0.0
H388 H 0.66897 0.98127 0.71312 0.0
H389 H 0.64427 0.9157 0.7243 0.0
H390 H 0.76559 0.88333 0.74004 0.0
H391 H 0.79003 0.94862 0.72914 0.0
C392 C 0.68207 0.83095 0.7749 0.0
C393 C 0.65117 0.80514 0.76884 0.0
C394 C 0.70002 0.85853 0.76303 0.0
C395 C 0.68711 0.86143 0.74486 0.0
C396 C 0.65701 0.83478 0.73859 0.0
C397 C 0.6395 0.80644 0.75045 0.0
C398 C 0.69049 0.95943 0.71828 0.0
C399 C 0.73124 0.9702 0.72057 0.0
C400 C 0.67639 0.92193 0.7247 0.0
C401 C 0.70295 0.89486 0.73338 0.0
C402 C 0.74437 0.90393 0.73371 0.0
C403 C 0.75834 0.94126 0.72742 0.0
H404 H 0.95599 0.30406 0.32952 0.0
H405 H 0.95292 0.22704 0.28205 0.0
H406 H 0.88823 0.32871 0.3221 0.0
H407 H 0.88713 0.25248 0.27426 0.0
H408 H 0.77022 0.29607 0.25957 0.0
H409 H 0.8184 0.25942 0.27857 0.0
H410 H 0.86206 0.37351 0.30002 0.0
H411 H 0.8118 0.40933 0.28196 0.0
C412 C 0.94063 0.2919 0.31771 0.0
C413 C 0.9601 0.26411 0.30622 0.0
C414 C 0.90193 0.30621 0.31337 0.0
C415 C 0.88209 0.29298 0.29746 0.0
C416 C 0.90077 0.26313 0.28676 0.0
C417 C 0.93904 0.2488 0.29112 0.0
C418 C 0.78907 0.31291 0.26897 0.0
C419 C 0.78751 0.35527 0.26944 0.0
C420 C 0.81703 0.29211 0.27969 0.0
C421 C 0.84506 0.31349 0.2905 0.0
C422 C 0.84098 0.35584 0.29202 0.0
C423 C 0.81226 0.3765 0.28163 0.0
H424 H 0.34521 0.0196 0.71276 0.0
H425 H 0.2284 0.06979 0.72558 0.0
H426 H 0.37755 0.08162 0.72386 0.0
H427 H 0.26062 0.13178 0.73643 0.0
H428 H 0.33682 0.24223 0.75412 0.0
H429 H 0.31038 0.19386 0.73155 0.0
H430 H 0.37376 0.09686 0.75862 0.0
H431 H 0.39913 0.1443 0.78114 0.0
C432 C 0.32639 0.0446 0.71709 0.0
C433 C 0.28441 0.0398 0.71855 0.0
C434 C 0.34488 0.07995 0.72356 0.0
C435 C 0.32154 0.11113 0.73125 0.0
C436 C 0.2793 0.10829 0.73055 0.0
C437 C 0.26089 0.07276 0.72437 0.0
C438 C 0.34516 0.21059 0.75512 0.0
C439 C 0.36956 0.19692 0.76952 0.0
C440 C 0.33026 0.18307 0.7422 0.0
C441 C 0.34058 0.1418 0.74321 0.0
C442 C 0.36596 0.1286 0.75729 0.0
C443 C 0.37999 0.15572 0.77035 0.0
H444 H 0.043 0.69211 0.32205 0.0
H445 H 0.06335 0.80937 0.29766 0.0
H446 H 0.10774 0.66862 0.30997 0.0
H447 H 0.12823 0.78641 0.28601 0.0
H448 H 0.17811 0.70343 0.23995 0.0
H449 H 0.13238 0.7378 0.26054 0.0
H450 H 0.18404 0.67322 0.30604 0.0
H451 H 0.23044 0.63854 0.28519 0.0
C452 C 0.06216 0.71337 0.31484 0.0
C453 C 0.04803 0.75227 0.3105 0.0
C454 C 0.09922 0.69996 0.30791 0.0
C455 C 0.12255 0.72545 0.29669 0.0
C456 C 0.11046 0.76586 0.29428 0.0
C457 C 0.07343 0.77905 0.30102 0.0
C458 C 0.1803 0.69707 0.25438 0.0
C459 C 0.20768 0.66818 0.26095 0.0
C460 C 0.1543 0.71702 0.26623 0.0
C461 C 0.1547 0.70832 0.28495 0.0
C462 C 0.1831 0.68048 0.29168 0.0
C463 C 0.20971 0.66085 0.27977 0.0
H464 H 0.80061 0.56415 0.54858 0.0
H465 H 0.68211 0.54011 0.57058 0.0
H466 H 0.77744 0.62941 0.53719 0.0
H467 H 0.6586 0.60544 0.55887 0.0
H468 H 0.69625 0.67873 0.49003 0.0
H469 H 0.72961 0.63232 0.51078 0.0
H470 H 0.66359 0.68348 0.55588 0.0
H471 H 0.63016 0.73074 0.5349 0.0
C472 C 0.76995 0.57351 0.55153 0.0
C473 C 0.74293 0.5469 0.56019 0.0
C474 C 0.75667 0.61078 0.54495 0.0
C475 C 0.71602 0.62201 0.54676 0.0
C476 C 0.69013 0.59754 0.55728 0.0
C477 C 0.70357 0.56016 0.56401 0.0
C478 C 0.68937 0.68065 0.50441 0.0
C479 C 0.66054 0.70821 0.51084 0.0
C480 C 0.70871 0.65427 0.51634 0.0
C481 C 0.69933 0.65441 0.53499 0.0
C482 C 0.67139 0.68282 0.54158 0.0
C483 C 0.65247 0.7099 0.52961 0.0
H484 H 0.64209 0.40105 0.53086 0.0
H485 H 0.73812 0.34091 0.50177 0.0
H486 H 0.5934 0.37655 0.50872 0.0
H487 H 0.68852 0.31535 0.47959 0.0
H488 H 0.56552 0.23278 0.47341 0.0
H489 H 0.62739 0.26476 0.4844 0.0
H490 H 0.57577 0.38262 0.4743 0.0
H491 H 0.51387 0.35051 0.46305 0.0
C492 C 0.65283 0.38257 0.5197 0.0
C493 C 0.69389 0.37252 0.51817 0.0
C494 C 0.62497 0.36903 0.50686 0.0
C495 C 0.63728 0.34453 0.49231 0.0
C496 C 0.67838 0.33454 0.49062 0.0
C497 C 0.70662 0.34895 0.50332 0.0
C498 C 0.56811 0.2655 0.47278 0.0
C499 C 0.53484 0.28924 0.46756 0.0
C500 C 0.60356 0.28378 0.47904 0.0
C501 C 0.60604 0.3261 0.48046 0.0
C502 C 0.5744 0.34986 0.47345 0.0
C503 C 0.53913 0.33153 0.46688 0.0
H504 H 0.21677 0.44111 0.55461 0.0
H505 H 0.33902 0.47733 0.56697 0.0
H506 H 0.24082 0.37532 0.5443 0.0
H507 H 0.36338 0.41142 0.55628 0.0
H508 H 0.39394 0.28452 0.53525 0.0
H509 H 0.36385 0.33312 0.5566 0.0
H510 H 0.27898 0.36952 0.51511 0.0
H511 H 0.30903 0.3218 0.49396 0.0
C512 C 0.24869 0.43438 0.55572 0.0
C513 C 0.27615 0.46438 0.56133 0.0
C514 C 0.26246 0.39681 0.54974 0.0
C515 C 0.30402 0.38864 0.54908 0.0
C516 C 0.33116 0.41689 0.55665 0.0
C517 C 0.31725 0.45459 0.5628 0.0
C518 C 0.3682 0.30227 0.53091 0.0
C519 C 0.35382 0.29955 0.51295 0.0
C520 C 0.35121 0.33018 0.54308 0.0
C521 C 0.31902 0.355 0.53755 0.0
C522 C 0.30335 0.35044 0.51989 0.0
C523 C 0.32072 0.32327 0.50771 0.0
H524 H 0.48197 0.66937 0.46358 0.0
H525 H 0.4489 0.79031 0.48012 0.0
H526 H 0.41669 0.64402 0.47463 0.0
H527 H 0.38395 0.76525 0.49088 0.0
H528 H 0.32945 0.69043 0.53901 0.0
H529 H 0.37879 0.7216 0.51891 0.0
H530 H 0.33773 0.64613 0.47462 0.0
H531 H 0.28742 0.61496 0.49491 0.0
C532 C 0.46013 0.69073 0.46885 0.0
C533 C 0.47066 0.73163 0.47129 0.0
C534 C 0.4228 0.67626 0.47519 0.0
C535 C 0.39566 0.7026 0.48395 0.0
C536 C 0.40459 0.74418 0.4845 0.0
C537 C 0.44173 0.75851 0.47829 0.0
C538 C 0.33036 0.68099 0.5249 0.0
C539 C 0.30464 0.65029 0.51853 0.0
C540 C 0.35848 0.699 0.51334 0.0
C541 C 0.36203 0.68637 0.49516 0.0
C542 C 0.33558 0.65641 0.48857 0.0
C543 C 0.30671 0.63882 0.50013 0.0
H544 H 0.33285 0.31832 0.41293 0.0
H545 H 0.31975 0.19085 0.42502 0.0
H546 H 0.27647 0.31429 0.39185 0.0
H547 H 0.26248 0.18695 0.40399 0.0
H548 H 0.18453 0.1927 0.35084 0.0
H549 H 0.24188 0.19155 0.37184 0.0
H550 H 0.20407 0.30658 0.39397 0.0
H551 H 0.1475 0.30808 0.37289 0.0
C552 C 0.31808 0.28931 0.41103 0.0
C553 C 0.33078 0.25495 0.42076 0.0
C554 C 0.28543 0.28708 0.39903 0.0
C555 C 0.2644 0.25045 0.39642 0.0
C556 C 0.278 0.21564 0.40564 0.0
C557 C 0.31082 0.21788 0.4177 0.0
C558 C 0.18825 0.21751 0.36033 0.0
C559 C 0.16152 0.25061 0.36008 0.0
C560 C 0.22111 0.21682 0.37239 0.0
C561 C 0.22801 0.24927 0.38443 0.0
C562 C 0.2003 0.28153 0.38461 0.0
C563 C 0.16758 0.28222 0.3726 0.0
H564 H 0.31271 0.65921 0.62027 0.0
H565 H 0.19149 0.68638 0.60242 0.0
H566 H 0.30975 0.71486 0.64184 0.0
H567 H 0.18883 0.74308 0.62386 0.0
H568 H 0.19017 0.8199 0.67732 0.0
H569 H 0.1876 0.76316 0.65589 0.0
H570 H 0.31116 0.78737 0.64041 0.0
H571 H 0.31398 0.84303 0.66198 0.0
C572 C 0.28528 0.67697 0.62101 0.0
C573 C 0.25242 0.66842 0.60953 0.0
C574 C 0.28371 0.70919 0.63329 0.0
C575 C 0.24933 0.73404 0.63439 0.0
C576 C 0.21577 0.72456 0.62341 0.0
C577 C 0.21729 0.69207 0.61111 0.0
C578 C 0.2166 0.81331 0.66918 0.0
C579 C 0.25237 0.83583 0.67147 0.0
C580 C 0.21513 0.7808 0.65689 0.0
C581 C 0.24939 0.77017 0.64662 0.0
C582 C 0.28452 0.7939 0.64842 0.0
C583 C 0.28603 0.82615 0.6607 0.0
H584 H 0.68575 0.81994 0.42596 0.0
H585 H 0.66691 0.69489 0.41075 0.0
H586 H 0.74287 0.824 0.40488 0.0
H587 H 0.72324 0.69912 0.38964 0.0
H588 H 0.82185 0.82101 0.352 0.0
H589 H 0.76358 0.82208 0.3725 0.0
H590 H 0.79615 0.7035 0.39251 0.0
H591 H 0.85366 0.70216 0.37199 0.0
C592 C 0.69333 0.79354 0.41792 0.0
C593 C 0.67187 0.75701 0.42015 0.0
C594 C 0.72607 0.79588 0.40583 0.0
C595 C 0.73811 0.76169 0.39577 0.0
C596 C 0.71547 0.72577 0.39748 0.0
C597 C 0.68286 0.72345 0.40949 0.0
C598 C 0.81675 0.79536 0.36092 0.0
C599 C 0.84236 0.7614 0.36027 0.0
C600 C 0.78337 0.796 0.37268 0.0
C601 C 0.77479 0.76263 0.38398 0.0
C602 C 0.80126 0.72935 0.38372 0.0
C603 C 0.83452 0.72874 0.37203 0.0
H604 H 0.69124 0.16425 0.65983 0.0
H605 H 0.81514 0.18745 0.67507 0.0
H606 H 0.69417 0.21952 0.63801 0.0
H607 H 0.81786 0.24358 0.6533 0.0
H608 H 0.81365 0.32017 0.59974 0.0
H609 H 0.81593 0.26268 0.62081 0.0
H610 H 0.69631 0.29267 0.63984 0.0
H611 H 0.69377 0.3493 0.61875 0.0
C612 C 0.71926 0.18097 0.65844 0.0
C613 C 0.75288 0.1715 0.6693 0.0
C614 C 0.72083 0.21296 0.64601 0.0
C615 C 0.75602 0.23653 0.6441 0.0
C616 C 0.79029 0.22603 0.65439 0.0
C617 C 0.78872 0.19386 0.66688 0.0
C618 C 0.788 0.31463 0.60854 0.0
C619 C 0.75343 0.33925 0.60747 0.0
C620 C 0.78934 0.28171 0.62064 0.0
C621 C 0.75607 0.27265 0.63185 0.0
C622 C 0.72211 0.29812 0.63112 0.0
C623 C 0.72079 0.33089 0.6191 0.0
H624 H 0.15667 0.19437 0.90736 0.0
H625 H 0.1837 0.31626 0.92506 0.0
H626 H 0.21389 0.19657 0.88666 0.0
H627 H 0.24165 0.31823 0.9044 0.0
H628 H 0.34456 0.19279 0.86919 0.0
H629 H 0.28692 0.19578 0.88961 0.0
H630 H 0.26249 0.31821 0.87205 0.0
H631 H 0.32087 0.31542 0.85166 0.0
C632 C 0.17465 0.2218 0.90676 0.0
C633 C 0.16561 0.25507 0.91796 0.0
C634 C 0.20775 0.22293 0.89497 0.0
C635 C 0.23282 0.25735 0.89404 0.0
C636 C 0.22294 0.29128 0.90473 0.0
C637 C 0.18974 0.29012 0.91659 0.0
C638 C 0.32718 0.22053 0.86974 0.0
C639 C 0.33734 0.25381 0.8587 0.0
C640 C 0.29384 0.22212 0.88137 0.0
C641 C 0.26963 0.25702 0.8823 0.0
C642 C 0.28052 0.29088 0.87171 0.0
C643 C 0.31396 0.28926 0.86 0.0
H644 H 0.31574 0.69109 0.1754 0.0
H645 H 0.19189 0.66818 0.16002 0.0
H646 H 0.31873 0.74721 0.15363 0.0
H647 H 0.1951 0.72337 0.13816 0.0
H648 H 0.19463 0.8527 0.11867 0.0
H649 H 0.19712 0.79629 0.13989 0.0
H650 H 0.31722 0.76677 0.12132 0.0
H651 H 0.31501 0.82409 0.10017 0.0
C652 C 0.28941 0.69754 0.16716 0.0
C653 C 0.25348 0.67531 0.16956 0.0
C654 C 0.29112 0.72971 0.15468 0.0
C655 C 0.25693 0.74031 0.14435 0.0
C656 C 0.2217 0.71677 0.1462 0.0
C657 C 0.21997 0.68482 0.15865 0.0
C658 C 0.22176 0.83446 0.11917 0.0
C659 C 0.25455 0.84288 0.10763 0.0
C660 C 0.22305 0.80181 0.13126 0.0
C661 C 0.2571 0.77647 0.13213 0.0
C662 C 0.29055 0.78568 0.12104 0.0
C663 C 0.28926 0.81852 0.1089 0.0
H664 H 0.8223 0.69328 0.92714 0.0
H665 H 0.85142 0.81375 0.90815 0.0
H666 H 0.76385 0.69159 0.90674 0.0
H667 H 0.79383 0.81179 0.88768 0.0
H668 H 0.66455 0.81795 0.86939 0.0
H669 H 0.72131 0.81451 0.89029 0.0
H670 H 0.74225 0.69014 0.87471 0.0
H671 H 0.68461 0.69338 0.85389 0.0
C672 C 0.81659 0.71916 0.91845 0.0
C673 C 0.84147 0.75374 0.91937 0.0
C674 C 0.78309 0.71817 0.90674 0.0
C675 C 0.77371 0.75179 0.89573 0.0
C676 C 0.7995 0.78572 0.89625 0.0
C677 C 0.83283 0.7867 0.90791 0.0
C678 C 0.68092 0.78968 0.87052 0.0
C679 C 0.67008 0.75601 0.85987 0.0
C680 C 0.71377 0.78781 0.88242 0.0
C681 C 0.73689 0.75227 0.88399 0.0
C682 C 0.7251 0.71799 0.87388 0.0
C683 C 0.69206 0.71985 0.86194 0.0
H684 H 0.8283 0.18728 0.10754 0.0
H685 H 0.70156 0.16388 0.11651 0.0
H686 H 0.82646 0.24199 0.12937 0.0
H687 H 0.70002 0.21758 0.13945 0.0
H688 H 0.70227 0.34188 0.16772 0.0
H689 H 0.70156 0.28772 0.14499 0.0
H690 H 0.82413 0.25667 0.15974 0.0
H691 H 0.82539 0.31184 0.18137 0.0
C692 C 0.80011 0.19331 0.11449 0.0
C693 C 0.76516 0.17093 0.11038 0.0
C694 C 0.79905 0.22474 0.12716 0.0
C695 C 0.76318 0.23432 0.13647 0.0
C696 C 0.72813 0.21163 0.13245 0.0
C697 C 0.72905 0.18051 0.11943 0.0
C698 C 0.72911 0.32364 0.16589 0.0
C699 C 0.76404 0.33153 0.17617 0.0
C700 C 0.72863 0.29226 0.15299 0.0
C701 C 0.76288 0.26764 0.15031 0.0
C702 C 0.79748 0.27543 0.1609 0.0
C703 C 0.79818 0.30711 0.17346 0.0
H704 H 0.93744 0.92924 0.2701 0.0
H705 H 0.96212 0.91144 0.32715 0.0
H706 H 0.97233 0.99419 0.27103 0.0
H707 H 0.99948 0.97496 0.32796 0.0
H708 H 0.03968 0.10775 0.32644 0.0
H709 H 1.0017 0.0446 0.32731 0.0
H710 H 0.0369 0.02009 0.27173 0.0
H711 H 0.07246 0.08467 0.27064 0.0
C712 C 0.94998 0.93954 0.2829 0.0
C713 C 0.94687 0.91543 0.29856 0.0
C714 C 0.97071 0.97647 0.2834 0.0
C715 C 0.98987 0.9897 0.29947 0.0
C716 C 0.98506 0.96624 0.31534 0.0
C717 C 0.96345 0.92974 0.31492 0.0
C718 C 0.03991 0.08841 0.31454 0.0
C719 C 0.05903 0.1011 0.29847 0.0
C720 C 0.01797 0.05211 0.315 0.0
C721 C 0.01533 0.02722 0.29948 0.0
C722 C 0.03684 0.03892 0.28377 0.0
C723 C 0.05793 0.07564 0.28321 0.0
H724 H 0.922 0.07429 0.7127 0.0
H725 H 0.90369 0.03882 0.76868 0.0
H726 H 0.989 0.04329 0.7133 0.0
H727 H 0.96985 0.00725 0.76914 0.0
H728 H 0.08464 0.94291 0.71465 0.0
H729 H 0.01808 0.97484 0.7146 0.0
H730 H 0.04089 0.0225 0.76835 0.0
H731 H 0.10664 0.99002 0.76858 0.0
C732 C 0.93246 0.06039 0.72519 0.0
C733 C 0.90755 0.05907 0.74064 0.0
C734 C 0.97059 0.04216 0.72546 0.0
C735 C 0.98459 0.0224 0.74121 0.0
C736 C 0.96017 0.02242 0.75682 0.0
C737 C 0.92216 0.04054 0.75655 0.0
C738 C 0.07512 0.95966 0.72656 0.0
C739 C 0.10089 0.96383 0.74163 0.0
C740 C 0.03723 0.9784 0.72644 0.0
C741 C 0.02434 1.00157 0.7414 0.0
C742 C 0.04971 1.00467 0.75666 0.0
C743 C 0.08748 0.98601 0.75677 0.0
H744 H 0.07564 0.42683 1.00625 0.0
H745 H 0.04162 0.40665 0.95035 0.0
H746 H 0.04249 0.49252 1.00565 0.0
H747 H 0.00584 0.47099 0.94998 0.0
H748 H 0.96967 0.60482 0.95118 0.0
H749 H 0.00556 0.54062 0.94983 0.0
H750 H 0.97903 0.52017 1.00674 0.0
H751 H 0.94578 0.58574 1.0082 0.0
C752 C 0.06133 0.43674 0.99377 0.0
C753 C 0.06138 0.41182 0.97833 0.0
C754 C 0.04161 0.47412 0.99348 0.0
C755 C 0.02037 0.48699 0.9779 0.0
C756 C 0.02197 0.46258 0.9622 0.0
C757 C 0.04262 0.42561 0.96237 0.0
C758 C 0.97092 0.58614 0.96328 0.0
C759 C 0.95496 0.6002 0.97979 0.0
C760 C 0.99163 0.54925 0.96255 0.0
C761 C 0.99611 0.52517 0.97826 0.0
C762 C 0.97768 0.53831 0.99449 0.0
C763 C 0.9579 0.57562 0.9953 0.0
H764 H 0.40783 0.9729 1.01269 0.0
H765 H 0.4226 0.93936 0.06911 0.0
H766 H 0.47483 1.00278 1.01259 0.0
H767 H 0.4906 0.96848 0.06887 0.0
H768 H 0.58967 0.06634 0.06736 0.0
H769 H 0.5225 0.03536 0.06741 0.0
H770 H 0.5449 0.98626 1.0139 0.0
H771 H 0.6111 0.01795 1.01363 0.0
C772 C 0.4257 0.97121 0.02501 0.0
C773 C 0.40985 0.95374 0.04092 0.0
C774 C 0.46423 0.98834 0.02494 0.0
C775 C 0.48802 0.98831 0.04076 0.0
C776 C 0.47274 0.96962 0.05654 0.0
C777 C 0.43402 0.95247 0.05662 0.0
C778 C 0.57995 0.0494 0.05552 0.0
C779 C 0.60565 0.04477 0.04047 0.0
C780 C 0.5417 0.03122 0.05564 0.0
C781 C 0.52843 0.00806 0.04071 0.0
C782 C 0.55393 1.00419 0.02555 0.0
C783 C 0.59198 0.02238 0.02541 0.0
H784 H 0.43422 0.42494 0.81879 0.0
H785 H 0.46911 0.40573 0.76284 0.0
H786 H 0.46612 0.49183 0.81807 0.0
H787 H 0.50172 0.47168 0.76228 0.0
H788 H 0.5227 0.60838 0.76256 0.0
H789 H 0.48907 0.54292 0.76279 0.0
H790 H 0.53427 0.52032 0.81698 0.0
H791 H 0.56722 0.5867 0.81694 0.0
C792 C 0.44815 0.4352 0.80627 0.0
C793 C 0.44906 0.41003 0.79087 0.0
C794 C 0.46693 0.47326 0.80594 0.0
C795 C 0.48693 0.48693 0.79019 0.0
C796 C 0.4864 0.46231 0.7746 0.0
C797 C 0.46765 0.42441 0.77493 0.0
C798 C 0.52595 0.5893 0.77447 0.0
C799 C 0.54768 0.60279 0.78975 0.0
C800 C 0.50662 0.55168 0.77458 0.0
C801 C 0.50861 0.52648 0.78997 0.0
C802 C 0.53148 0.53935 0.80504 0.0
C803 C 0.55084 0.57713 0.80493 0.0
H804 H 0.60536 0.4966 0.2685 0.0
H805 H 0.58369 0.44606 0.21516 0.0
H806 H 0.53961 0.52886 0.26783 0.0
H807 H 0.51698 0.47779 0.21469 0.0
H808 H 0.41932 0.57612 0.21225 0.0
H809 H 0.4867 0.54589 0.2128 0.0
H810 H 0.46907 0.51182 0.26899 0.0
H811 H 0.40262 0.54265 0.26859 0.0
C812 C 0.5863 0.49188 0.25672 0.0
C813 C 0.59973 0.46869 0.24189 0.0
C814 C 0.54853 0.51038 0.25635 0.0
C815 C 0.52313 0.50607 0.24117 0.0
C816 C 0.53615 0.48219 0.22646 0.0
C817 C 0.57411 0.46362 0.22682 0.0
C818 C 0.43019 0.56278 0.22479 0.0
C819 C 0.40569 0.56185 0.24038 0.0
C820 C 0.46853 0.54502 0.22504 0.0
C821 C 0.48308 0.52615 0.2409 0.0
C822 C 0.45896 0.52639 0.2566 0.0
C823 C 0.42078 0.54406 0.25636 0.0
H824 H 0.44104 0.08594 0.46352 0.0
H825 H 0.48879 0.10966 0.51718 0.0
H826 H 0.47336 0.01938 0.46372 0.0
H827 H 0.52166 0.04395 0.51719 0.0
H828 H 0.53859 0.90641 0.51826 0.0
H829 H 0.50678 0.97264 0.51842 0.0
H830 H 0.54175 0.99063 0.46239 0.0
H831 H 0.57296 0.92354 0.46208 0.0
C832 C 0.45804 0.0768 0.47541 0.0
C833 C 0.46226 0.10304 0.49034 0.0
C834 C 0.47698 0.03892 0.47544 0.0
C835 C 0.50042 0.02654 0.4904 0.0
C836 C 0.50361 0.05239 0.5055 0.0
C837 C 0.48475 0.09013 0.50548 0.0
C838 C 0.54001 0.92465 0.50602 0.0
C839 C 0.55829 0.90968 0.49014 0.0
C840 C 0.52176 0.96269 0.50613 0.0
C841 C 0.52139 0.98678 0.49037 0.0
C842 C 0.5409 0.97246 0.47465 0.0
C843 C 0.55925 0.93428 0.47454 0.0
H844 H 0.90451 0.46956 0.51057 0.0
H845 H 0.92326 0.43419 0.56651 0.0
H846 H 0.97044 0.50193 0.5101 0.0
H847 H 0.99006 0.46587 0.5659 0.0
H848 H 0.08466 0.56728 0.56505 0.0
H849 H 0.01847 0.53433 0.5649 0.0
H850 H 0.04153 0.48907 0.51077 0.0
H851 H 0.10687 0.52268 0.51074 0.0
C852 C 0.92308 0.46794 0.52268 0.0
C853 C 0.90857 0.4493 0.53859 0.0
C854 C 0.96097 0.48655 0.5224 0.0
C855 C 0.98541 0.48693 0.53802 0.0
C856 C 0.97163 0.46682 0.55374 0.0
C857 C 0.93361 0.44814 0.55402 0.0
C858 C 0.07524 0.5509 0.55301 0.0
C859 C 0.10101 0.54771 0.5379 0.0
C860 C 0.03757 0.53153 0.55301 0.0
C861 C 0.02487 0.50863 0.5379 0.0
C862 C 0.05016 0.50664 0.52259 0.0
C863 C 0.08771 0.52596 0.52258 0.0
loop_
_geom_bond_atom_site_label_1
_geom_bond_atom_site_label_2
_geom_bond_distance
_geom_bond_site_symmetry_2
_ccdc_geom_bond_type
O0 Cd1 2.223 . S
O0 C8 1.315 . S
Cd1 O0 2.223 . S
Cd1 O4 2.297 . S
Cd1 O5 2.439 . S
Cd1 O11 2.240 . S
Cd2 O3 2.240 . S
Cd2 O10 2.223 . S
Cd2 O12 2.297 . S
Cd2 O13 2.439 . S
O3 Cd2 2.240 . S
O3 C8 1.279 . S
O4 Cd1 2.297 . S
O4 C6 1.247 . S
O5 Cd1 2.439 . S
O5 C6 1.208 . S
C6 O4 1.247 . S
C6 O5 1.208 . S
C7 O12 1.247 . S
C7 O13 1.208 . S
C8 O0 1.315 . S
C8 O3 1.279 . S
C9 O10 1.315 . S
C9 O11 1.279 . S
O10 Cd2 2.223 . S
O10 C9 1.315 . S
O11 Cd1 2.240 . S
O11 C9 1.279 . S
O12 Cd2 2.297 . S
O12 C7 1.247 . S
O13 Cd2 2.439 . S
O13 C7 1.208 . S
O14 Cd15 2.223 . S
O14 C22 1.315 . S
Cd15 O14 2.223 . S
Cd15 O18 2.297 . S
Cd15 O19 2.439 . S
Cd15 O25 2.240 . S
Cd16 O17 2.240 . S
Cd16 O24 2.223 . S
Cd16 O26 2.297 . S
Cd16 O27 2.439 . S
O17 Cd16 2.240 . S
O17 C22 1.279 . S
O18 Cd15 2.297 . S
O18 C20 1.247 . S
O19 Cd15 2.439 . S
O19 C20 1.208 . S
C20 O18 1.247 . S
C20 O19 1.208 . S
C21 O26 1.247 . S
C21 O27 1.208 . S
C22 O14 1.315 . S
C22 O17 1.279 . S
C23 O24 1.315 . S
C23 O25 1.279 . S
O24 Cd16 2.223 . S
O24 C23 1.315 . S
O25 Cd15 2.240 . S
O25 C23 1.279 . S
O26 Cd16 2.297 . S
O26 C21 1.247 . S
O27 Cd16 2.439 . S
O27 C21 1.208 . S
O28 Cd29 2.223 . S
O28 C36 1.315 . S
Cd29 O28 2.223 . S
Cd29 O32 2.297 . S
Cd29 O33 2.439 . S
Cd29 O39 2.240 . S
Cd30 O31 2.240 . S
Cd30 O38 2.223 . S
Cd30 O40 2.297 . S
Cd30 O41 2.439 . S
O31 Cd30 2.240 . S
O31 C36 1.279 . S
O32 Cd29 2.297 . S
O32 C34 1.247 . S
O33 Cd29 2.439 . S
O33 C34 1.208 . S
C34 O32 1.247 . S
C34 O33 1.208 . S
C35 O40 1.247 . S
C35 O41 1.208 . S
C36 O28 1.315 . S
C36 O31 1.279 . S
C37 O38 1.315 . S
C37 O39 1.279 . S
O38 Cd30 2.223 . S
O38 C37 1.315 . S
O39 Cd29 2.240 . S
O39 C37 1.279 . S
O40 Cd30 2.297 . S
O40 C35 1.247 . S
O41 Cd30 2.439 . S
O41 C35 1.208 . S
O42 Cd43 2.223 . S
O42 C50 1.315 . S
Cd43 O42 2.223 . S
Cd43 O46 2.297 . S
Cd43 O47 2.439 . S
Cd43 O53 2.240 . S
Cd44 O45 2.240 . S
Cd44 O52 2.223 . S
Cd44 O54 2.297 . S
Cd44 O55 2.439 . S
O45 Cd44 2.240 . S
O45 C50 1.279 . S
O46 Cd43 2.297 . S
O46 C48 1.247 . S
O47 Cd43 2.439 . S
O47 C48 1.208 . S
C48 O46 1.247 . S
C48 O47 1.208 . S
C49 O54 1.247 . S
C49 O55 1.208 . S
C50 O42 1.315 . S
C50 O45 1.279 . S
C51 O52 1.315 . S
C51 O53 1.279 . S
O52 Cd44 2.223 . S
O52 C51 1.315 . S
O53 Cd43 2.240 . S
O53 C51 1.279 . S
O54 Cd44 2.297 . S
O54 C49 1.247 . S
O55 Cd44 2.439 . S
O55 C49 1.208 . S
O56 Cd57 2.223 . S
O56 C64 1.315 . S
Cd57 O56 2.223 . S
Cd57 O60 2.297 . S
Cd57 O61 2.439 . S
Cd57 O67 2.240 . S
Cd58 O59 2.240 . S
Cd58 O66 2.223 . S
Cd58 O68 2.297 . S
Cd58 O69 2.439 . S
O59 Cd58 2.240 . S
O59 C64 1.279 . S
O60 Cd57 2.297 . S
O60 C62 1.247 . S
O61 Cd57 2.439 . S
O61 C62 1.208 . S
C62 O60 1.247 . S
C62 O61 1.208 . S
C63 O68 1.247 . S
C63 O69 1.208 . S
C64 O56 1.315 . S
C64 O59 1.279 . S
C65 O66 1.315 . S
C65 O67 1.279 . S
O66 Cd58 2.223 . S
O66 C65 1.315 . S
O67 Cd57 2.240 . S
O67 C65 1.279 . S
O68 Cd58 2.297 . S
O68 C63 1.247 . S
O69 Cd58 2.439 . S
O69 C63 1.208 . S
O70 Cd71 2.223 . S
O70 C78 1.315 . S
Cd71 O70 2.223 . S
Cd71 O74 2.297 . S
Cd71 O75 2.439 . S
Cd71 O81 2.240 . S
Cd72 O73 2.240 . S
Cd72 O80 2.223 . S
Cd72 O82 2.297 . S
Cd72 O83 2.439 . S
O73 Cd72 2.240 . S
O73 C78 1.279 . S
O74 Cd71 2.297 . S
O74 C76 1.247 . S
O75 Cd71 2.439 . S
O75 C76 1.208 . S
C76 O74 1.247 . S
C76 O75 1.208 . S
C77 O82 1.247 . S
C77 O83 1.208 . S
C78 O70 1.315 . S
C78 O73 1.279 . S
C79 O80 1.315 . S
C79 O81 1.279 . S
O80 Cd72 2.223 . S
O80 C79 1.315 . S
O81 Cd71 2.240 . S
O81 C79 1.279 . S
O82 Cd72 2.297 . S
O82 C77 1.247 . S
O83 Cd72 2.439 . S
O83 C77 1.208 . S
O84 Cd85 2.223 . S
O84 C92 1.315 . S
Cd85 O84 2.223 . S
Cd85 O88 2.297 . S
Cd85 O89 2.439 . S
Cd85 O95 2.240 . S
Cd86 O87 2.240 . S
Cd86 O94 2.223 . S
Cd86 O96 2.297 . S
Cd86 O97 2.439 . S
O87 Cd86 2.240 . S
O87 C92 1.279 . S
O88 Cd85 2.297 . S
O88 C90 1.247 . S
O89 Cd85 2.439 . S
O89 C90 1.208 . S
C90 O88 1.247 . S
C90 O89 1.208 . S
C91 O96 1.247 . S
C91 O97 1.208 . S
C92 O84 1.315 . S
C92 O87 1.279 . S
C93 O94 1.315 . S
C93 O95 1.279 . S
O94 Cd86 2.223 . S
O94 C93 1.315 . S
O95 Cd85 2.240 . S
O95 C93 1.279 . S
O96 Cd86 2.297 . S
O96 C91 1.247 . S
O97 Cd86 2.439 . S
O97 C91 1.208 . S
O98 Cd99 2.223 . S
O98 C106 1.315 . S
Cd99 O98 2.223 . S
Cd99 O102 2.297 . S
Cd99 O103 2.439 . S
Cd99 O109 2.240 . S
Cd100 O101 2.240 . S
Cd100 O108 2.223 . S
Cd100 O110 2.297 . S
Cd100 O111 2.439 . S
O101 Cd100 2.240 . S
O101 C106 1.279 . S
O102 Cd99 2.297 . S
O102 C104 1.247 . S
O103 Cd99 2.439 . S
O103 C104 1.208 . S
C104 O102 1.247 . S
C104 O103 1.208 . S
C105 O110 1.247 . S
C105 O111 1.208 . S
C106 O98 1.315 . S
C106 O101 1.279 . S
C107 O108 1.315 . S
C107 O109 1.279 . S
O108 Cd100 2.223 . S
O108 C107 1.315 . S
O109 Cd99 2.240 . S
O109 C107 1.279 . S
O110 Cd100 2.297 . S
O110 C105 1.247 . S
O111 Cd100 2.439 . S
O111 C105 1.208 . S
O112 Cd113 2.223 . S
O112 C120 1.315 . S
Cd113 O112 2.223 . S
Cd113 O116 2.297 . S
Cd113 O117 2.439 . S
Cd113 O123 2.240 . S
Cd114 O115 2.240 . S
Cd114 O122 2.223 . S
Cd114 O124 2.297 . S
Cd114 O125 2.439 . S
O115 Cd114 2.240 . S
O115 C120 1.279 . S
O116 Cd113 2.297 . S
O116 C118 1.247 . S
O117 Cd113 2.439 . S
O117 C118 1.208 . S
C118 O116 1.247 . S
C118 O117 1.208 . S
C119 O124 1.247 . S
C119 O125 1.208 . S
C120 O112 1.315 . S
C120 O115 1.279 . S
C121 O122 1.315 . S
C121 O123 1.279 . S
O122 Cd114 2.223 . S
O122 C121 1.315 . S
O123 Cd113 2.240 . S
O123 C121 1.279 . S
O124 Cd114 2.297 . S
O124 C119 1.247 . S
O125 Cd114 2.439 . S
O125 C119 1.208 . S
O126 Cd127 2.223 . S
O126 C134 1.315 . S
Cd127 O126 2.223 . S
Cd127 O130 2.297 . S
Cd127 O131 2.439 . S
Cd127 O137 2.240 . S
Cd128 O129 2.240 . S
Cd128 O136 2.223 . S
Cd128 O138 2.297 . S
Cd128 O139 2.439 . S
O129 Cd128 2.240 . S
O129 C134 1.279 . S
O130 Cd127 2.297 . S
O130 C132 1.247 . S
O131 Cd127 2.439 . S
O131 C132 1.208 . S
C132 O130 1.247 . S
C132 O131 1.208 . S
C133 O138 1.247 . S
C133 O139 1.208 . S
C134 O126 1.315 . S
C134 O129 1.279 . S
C135 O136 1.315 . S
C135 O137 1.279 . S
O136 Cd128 2.223 . S
O136 C135 1.315 . S
O137 Cd127 2.240 . S
O137 C135 1.279 . S
O138 Cd128 2.297 . S
O138 C133 1.247 . S
O139 Cd128 2.439 . S
O139 C133 1.208 . S
O140 Cd141 2.223 . S
O140 C148 1.315 . S
Cd141 O140 2.223 . S
Cd141 O144 2.297 . S
Cd141 O145 2.439 . S
Cd141 O151 2.240 . S
Cd142 O143 2.240 . S
Cd142 O150 2.223 . S
Cd142 O152 2.297 . S
Cd142 O153 2.439 . S
O143 Cd142 2.240 . S
O143 C148 1.279 . S
O144 Cd141 2.297 . S
O144 C146 1.247 . S
O145 Cd141 2.439 . S
O145 C146 1.208 . S
C146 O144 1.247 . S
C146 O145 1.208 . S
C147 O152 1.247 . S
C147 O153 1.208 . S
C148 O140 1.315 . S
C148 O143 1.279 . S
C149 O150 1.315 . S
C149 O151 1.279 . S
O150 Cd142 2.223 . S
O150 C149 1.315 . S
O151 Cd141 2.240 . S
O151 C149 1.279 . S
O152 Cd142 2.297 . S
O152 C147 1.247 . S
O153 Cd142 2.439 . S
O153 C147 1.208 . S
O154 Cd155 2.223 . S
O154 C162 1.315 . S
Cd155 O154 2.223 . S
Cd155 O158 2.297 . S
Cd155 O159 2.439 . S
Cd155 O165 2.240 . S
Cd156 O157 2.240 . S
Cd156 O164 2.223 . S
Cd156 O166 2.297 . S
Cd156 O167 2.439 . S
O157 Cd156 2.240 . S
O157 C162 1.279 . S
O158 Cd155 2.297 . S
O158 C160 1.247 . S
O159 Cd155 2.439 . S
O159 C160 1.208 . S
C160 O158 1.247 . S
C160 O159 1.208 . S
C161 O166 1.247 . S
C161 O167 1.208 . S
C162 O154 1.315 . S
C162 O157 1.279 . S
C163 O164 1.315 . S
C163 O165 1.279 . S
O164 Cd156 2.223 . S
O164 C163 1.315 . S
O165 Cd155 2.240 . S
O165 C163 1.279 . S
O166 Cd156 2.297 . S
O166 C161 1.247 . S
O167 Cd156 2.439 . S
O167 C161 1.208 . S
O168 Cd169 2.223 . S
O168 C176 1.315 . S
Cd169 O168 2.223 . S
Cd169 O172 2.297 . S
Cd169 O173 2.439 . S
Cd169 O179 2.240 . S
Cd170 O171 2.240 . S
Cd170 O178 2.223 . S
Cd170 O180 2.297 . S
Cd170 O181 2.439 . S
O171 Cd170 2.240 . S
O171 C176 1.279 . S
O172 Cd169 2.297 . S
O172 C174 1.247 . S
O173 Cd169 2.439 . S
O173 C174 1.208 . S
C174 O172 1.247 . S
C174 O173 1.208 . S
C175 O180 1.247 . S
C175 O181 1.208 . S
C176 O168 1.315 . S
C176 O171 1.279 . S
C177 O178 1.315 . S
C177 O179 1.279 . S
O178 Cd170 2.223 . S
O178 C177 1.315 . S
O179 Cd169 2.240 . S
O179 C177 1.279 . S
O180 Cd170 2.297 . S
O180 C175 1.247 . S
O181 Cd170 2.439 . S
O181 C175 1.208 . S
O182 Cd183 2.223 . S
O182 C190 1.315 . S
Cd183 O182 2.223 . S
Cd183 O186 2.297 . S
Cd183 O187 2.439 . S
Cd183 O193 2.240 . S
Cd184 O185 2.240 . S
Cd184 O192 2.223 . S
Cd184 O194 2.297 . S
Cd184 O195 2.439 . S
O185 Cd184 2.240 . S
O185 C190 1.279 . S
O186 Cd183 2.297 . S
O186 C188 1.247 . S
O187 Cd183 2.439 . S
O187 C188 1.208 . S
C188 O186 1.247 . S
C188 O187 1.208 . S
C189 O194 1.247 . S
C189 O195 1.208 . S
C190 O182 1.315 . S
C190 O185 1.279 . S
C191 O192 1.315 . S
C191 O193 1.279 . S
O192 Cd184 2.223 . S
O192 C191 1.315 . S
O193 Cd183 2.240 . S
O193 C191 1.279 . S
O194 Cd184 2.297 . S
O194 C189 1.247 . S
O195 Cd184 2.439 . S
O195 C189 1.208 . S
O196 Cd197 2.223 . S
O196 C204 1.315 . S
Cd197 O196 2.223 . S
Cd197 O200 2.297 . S
Cd197 O201 2.439 . S
Cd197 O207 2.240 . S
Cd198 O199 2.240 . S
Cd198 O206 2.223 . S
Cd198 O208 2.297 . S
Cd198 O209 2.439 . S
O199 Cd198 2.240 . S
O199 C204 1.279 . S
O200 Cd197 2.297 . S
O200 C202 1.247 . S
O201 Cd197 2.439 . S
O201 C202 1.208 . S
C202 O200 1.247 . S
C202 O201 1.208 . S
C203 O208 1.247 . S
C203 O209 1.208 . S
C204 O196 1.315 . S
C204 O199 1.279 . S
C205 O206 1.315 . S
C205 O207 1.279 . S
O206 Cd198 2.223 . S
O206 C205 1.315 . S
O207 Cd197 2.240 . S
O207 C205 1.279 . S
O208 Cd198 2.297 . S
O208 C203 1.247 . S
O209 Cd198 2.439 . S
O209 C203 1.208 . S
O210 Cd211 2.223 . S
O210 C218 1.315 . S
Cd211 O210 2.223 . S
Cd211 O214 2.297 . S
Cd211 O215 2.439 . S
Cd211 O221 2.240 . S
Cd212 O213 2.240 . S
Cd212 O220 2.223 . S
Cd212 O222 2.297 . S
Cd212 O223 2.439 . S
O213 Cd212 2.240 . S
O213 C218 1.279 . S
O214 Cd211 2.297 . S
O214 C216 1.247 . S
O215 Cd211 2.439 . S
O215 C216 1.208 . S
C216 O214 1.247 . S
C216 O215 1.208 . S
C217 O222 1.247 . S
C217 O223 1.208 . S
C218 O210 1.315 . S
C218 O213 1.279 . S
C219 O220 1.315 . S
C219 O221 1.279 . S
O220 Cd212 2.223 . S
O220 C219 1.315 . S
O221 Cd211 2.240 . S
O221 C219 1.279 . S
O222 Cd212 2.297 . S
O222 C217 1.247 . S
O223 Cd212 2.439 . S
O223 C217 1.208 . S
H224 C232 0.950 . S
H225 C237 0.950 . S
H226 C234 0.950 . S
H227 C236 0.950 . S
H228 C238 0.950 . S
H229 C240 0.950 . S
H230 C242 0.950 . S
H231 C243 0.950 . S
C232 H224 0.950 . S
C232 C233 1.386 . S
C232 C234 1.391 . S
C233 C232 1.386 . S
C233 C237 1.393 . S
C234 H226 0.950 . S
C234 C232 1.391 . S
C234 C235 1.400 . S
C235 C234 1.400 . S
C235 C236 1.398 . S
C235 C241 1.491 . S
C236 H227 0.950 . S
C236 C235 1.398 . S
C236 C237 1.391 . S
C237 H225 0.950 . S
C237 C233 1.393 . S
C237 C236 1.391 . S
C238 H228 0.950 . S
C238 C239 1.386 . S
C238 C240 1.391 . S
C239 C238 1.386 . S
C239 C243 1.393 . S
C240 H229 0.950 . S
C240 C238 1.391 . S
C240 C241 1.400 . S
C241 C235 1.491 . S
C241 C240 1.400 . S
C241 C242 1.398 . S
C242 H230 0.950 . S
C242 C241 1.398 . S
C242 C243 1.391 . S
C243 H231 0.950 . S
C243 C239 1.393 . S
C243 C242 1.391 . S
H244 C252 0.950 . S
H245 C257 0.950 . S
H246 C254 0.950 . S
H247 C256 0.950 . S
H248 C258 0.950 . S
H249 C260 0.950 . S
H250 C262 0.950 . S
H251 C263 0.950 . S
C252 H244 0.950 . S
C252 C253 1.386 . S
C252 C254 1.391 . S
C253 C252 1.386 . S
C253 C257 1.393 . S
C254 H246 0.950 . S
C254 C252 1.391 . S
C254 C255 1.400 . S
C255 C254 1.400 . S
C255 C256 1.398 . S
C255 C261 1.491 . S
C256 H247 0.950 . S
C256 C255 1.398 . S
C256 C257 1.391 . S
C257 H245 0.950 . S
C257 C253 1.393 . S
C257 C256 1.391 . S
C258 H248 0.950 . S
C258 C259 1.386 . S
C258 C260 1.391 . S
C259 C258 1.386 . S
C259 C263 1.393 . S
C260 H249 0.950 . S
C260 C258 1.391 . S
C260 C261 1.400 . S
C261 C255 1.491 . S
C261 C260 1.400 . S
C261 C262 1.398 . S
C262 H250 0.950 . S
C262 C261 1.398 . S
C262 C263 1.391 . S
C263 H251 0.950 . S
C263 C259 1.393 . S
C263 C262 1.391 . S
H264 C272 0.950 . S
H265 C277 0.950 . S
H266 C274 0.950 . S
H267 C276 0.950 . S
H268 C278 0.950 . S
H269 C280 0.950 . S
H270 C282 0.950 . S
H271 C283 0.950 . S
C272 H264 0.950 . S
C272 C273 1.386 . S
C272 C274 1.391 . S
C273 C272 1.386 . S
C273 C277 1.393 . S
C274 H266 0.950 . S
C274 C272 1.391 . S
C274 C275 1.400 . S
C275 C274 1.400 . S
C275 C276 1.398 . S
C275 C281 1.491 . S
C276 H267 0.950 . S
C276 C275 1.398 . S
C276 C277 1.391 . S
C277 H265 0.950 . S
C277 C273 1.393 . S
C277 C276 1.391 . S
C278 H268 0.950 . S
C278 C279 1.386 . S
C278 C280 1.391 . S
C279 C278 1.386 . S
C279 C283 1.393 . S
C280 H269 0.950 . S
C280 C278 1.391 . S
C280 C281 1.400 . S
C281 C275 1.491 . S
C281 C280 1.400 . S
C281 C282 1.398 . S
C282 H270 0.950 . S
C282 C281 1.398 . S
C282 C283 1.391 . S
C283 H271 0.950 . S
C283 C279 1.393 . S
C283 C282 1.391 . S
H284 C292 0.950 . S
H285 C297 0.950 . S
H286 C294 0.950 . S
H287 C296 0.950 . S
H288 C298 0.950 . S
H289 C300 0.950 . S
H290 C302 0.950 . S
H291 C303 0.950 . S
C292 H284 0.950 . S
C292 C293 1.386 . S
C292 C294 1.391 . S
C293 C292 1.386 . S
C293 C297 1.393 . S
C294 H286 0.950 . S
C294 C292 1.391 . S
C294 C295 1.400 . S
C295 C294 1.400 . S
C295 C296 1.398 . S
C295 C301 1.491 . S
C296 H287 0.950 . S
C296 C295 1.398 . S
C296 C297 1.391 . S
C297 H285 0.950 . S
C297 C293 1.393 . S
C297 C296 1.391 . S
C298 H288 0.950 . S
C298 C299 1.386 . S
C298 C300 1.391 . S
C299 C298 1.386 . S
C299 C303 1.393 . S
C300 H289 0.950 . S
C300 C298 1.391 . S
C300 C301 1.400 . S
C301 C295 1.491 . S
C301 C300 1.400 . S
C301 C302 1.398 . S
C302 H290 0.950 . S
C302 C301 1.398 . S
C302 C303 1.391 . S
C303 H291 0.950 . S
C303 C299 1.393 . S
C303 C302 1.391 . S
H304 C312 0.950 . S
H305 C317 0.950 1_565 S
H306 C314 0.950 1_556 S
H307 C316 0.950 . S
H308 C318 0.940 1_554 S
H309 C320 0.950 . S
H310 C322 0.950 . S
H311 C323 0.950 . S
C312 H304 0.950 . S
C312 C313 1.382 1_545 S
C312 C314 1.391 . S
C313 C312 1.382 1_565 S
C313 C317 1.391 1_565 S
C314 H306 0.950 1_554 S
C314 C312 1.391 . S
C314 C315 1.400 . S
C315 C314 1.400 . S
C315 C316 1.398 . S
C315 C321 1.508 . S
C316 H307 0.950 . S
C316 C315 1.398 . S
C316 C317 1.391 . S
C317 H305 0.950 1_545 S
C317 C313 1.391 1_545 S
C317 C316 1.391 . S
C318 H308 0.940 1_556 S
C318 C319 1.386 . S
C318 C320 1.391 1_556 S
C319 C318 1.386 . S
C319 C323 1.393 . S
C320 H309 0.950 . S
C320 C318 1.391 1_554 S
C320 C321 1.411 . S
C321 C315 1.508 . S
C321 C320 1.411 . S
C321 C322 1.372 1_554 S
C322 H310 0.950 . S
C322 C321 1.372 1_556 S
C322 C323 1.391 . S
C323 H311 0.950 . S
C323 C319 1.393 . S
C323 C322 1.391 . S
H324 C332 0.950 . S
H325 C337 0.950 . S
H326 C334 0.947 1_556 S
H327 C336 0.950 . S
H328 C338 0.950 . S
H329 C340 0.950 . S
H330 C342 0.950 . S
H331 C343 0.950 1_655 S
C332 H324 0.950 . S
C332 C333 1.386 . S
C332 C334 1.395 . S
C333 C332 1.386 . S
C333 C337 1.393 . S
C334 H326 0.947 1_554 S
C334 C332 1.395 . S
C334 C335 1.398 1_554 S
C335 C334 1.398 1_556 S
C335 C336 1.385 1_556 S
C335 C341 1.509 . S
C336 H327 0.950 . S
C336 C335 1.385 1_554 S
C336 C337 1.391 . S
C337 H325 0.950 . S
C337 C333 1.393 . S
C337 C336 1.391 . S
C338 H328 0.950 . S
C338 C339 1.384 1_455 S
C338 C340 1.391 . S
C339 C338 1.384 1_655 S
C339 C343 1.392 1_655 S
C340 H329 0.950 . S
C340 C338 1.391 . S
C340 C341 1.400 . S
C341 C335 1.509 . S
C341 C340 1.400 . S
C341 C342 1.398 . S
C342 H330 0.950 . S
C342 C341 1.398 . S
C342 C343 1.391 . S
C343 H331 0.950 1_455 S
C343 C339 1.392 1_455 S
C343 C342 1.391 . S
H344 C352 0.950 . S
H345 C357 0.950 . S
H346 C354 0.950 . S
H347 C356 0.950 . S
H348 C358 0.950 1_545 S
H349 C360 0.950 . S
H350 C362 0.954 . S
H351 C363 0.950 . S
C352 H344 0.950 . S
C352 C353 1.386 . S
C352 C354 1.391 . S
C353 C352 1.386 . S
C353 C357 1.393 . S
C354 H346 0.950 . S
C354 C352 1.391 . S
C354 C355 1.380 1_556 S
C355 C354 1.380 1_554 S
C355 C356 1.403 . S
C355 C361 1.509 . S
C356 H347 0.950 . S
C356 C355 1.403 . S
C356 C357 1.391 1_554 S
C357 H345 0.950 . S
C357 C353 1.393 . S
C357 C356 1.391 1_556 S
C358 H348 0.950 1_565 S
C358 C359 1.386 1_565 S
C358 C360 1.391 . S
C359 C358 1.386 1_545 S
C359 C363 1.393 1_545 S
C360 H349 0.950 . S
C360 C358 1.391 . S
C360 C361 1.400 . S
C361 C355 1.509 . S
C361 C360 1.400 . S
C361 C362 1.398 . S
C362 H350 0.954 . S
C362 C361 1.398 . S
C362 C363 1.391 . S
C363 H351 0.950 . S
C363 C359 1.393 1_565 S
C363 C362 1.391 . S
H364 C372 0.950 . S
H365 C377 0.950 . S
H366 C374 0.950 . S
H367 C376 0.950 . S
H368 C378 0.950 . S
H369 C380 0.950 . S
H370 C382 0.939 1_554 S
H371 C383 0.950 1_455 S
C372 H364 0.950 . S
C372 C373 1.386 . S
C372 C374 1.391 . S
C373 C372 1.386 . S
C373 C377 1.393 1_554 S
C374 H366 0.950 . S
C374 C372 1.391 . S
C374 C375 1.365 1_554 S
C375 C374 1.365 1_556 S
C375 C376 1.418 . S
C375 C381 1.508 . S
C376 H367 0.950 . S
C376 C375 1.418 . S
C376 C377 1.391 . S
C377 H365 0.950 . S
C377 C373 1.393 1_556 S
C377 C376 1.391 . S
C378 H368 0.950 . S
C378 C379 1.392 . S
C378 C380 1.391 . S
C379 C378 1.392 . S
C379 C383 1.393 . S
C380 H369 0.950 . S
C380 C378 1.391 . S
C380 C381 1.400 . S
C381 C375 1.508 . S
C381 C380 1.400 . S
C381 C382 1.404 . S
C382 H370 0.939 1_556 S
C382 C381 1.404 . S
C382 C383 1.396 . S
C383 H371 0.950 1_655 S
C383 C379 1.393 . S
C383 C382 1.396 . S
H384 C392 0.950 . S
H385 C397 0.950 . S
H386 C394 0.950 . S
H387 C396 0.950 . S
H388 C398 0.950 . S
H389 C400 0.950 . S
H390 C402 0.950 . S
H391 C403 0.950 1_545 S
C392 H384 0.950 . S
C392 C393 1.386 . S
C392 C394 1.391 . S
C393 C392 1.386 . S
C393 C397 1.393 . S
C394 H386 0.950 . S
C394 C392 1.391 . S
C394 C395 1.400 . S
C395 C394 1.400 . S
C395 C396 1.398 . S
C395 C401 1.491 . S
C396 H387 0.950 . S
C396 C395 1.398 . S
C396 C397 1.391 . S
C397 H385 0.950 . S
C397 C393 1.393 . S
C397 C396 1.391 . S
C398 H388 0.950 . S
C398 C399 1.387 . S
C398 C400 1.391 . S
C399 C398 1.387 . S
C399 C403 1.393 . S
C400 H389 0.950 . S
C400 C398 1.391 . S
C400 C401 1.400 . S
C401 C395 1.491 . S
C401 C400 1.400 . S
C401 C402 1.398 . S
C402 H390 0.950 . S
C402 C401 1.398 . S
C402 C403 1.391 . S
C403 H391 0.950 1_565 S
C403 C399 1.393 . S
C403 C402 1.391 . S
H404 C412 0.950 . S
H405 C417 0.950 . S
H406 C414 0.950 . S
H407 C416 0.950 . S
H408 C418 0.950 . S
H409 C420 0.950 . S
H410 C422 0.950 . S
H411 C423 0.950 . S
C412 H404 0.950 . S
C412 C413 1.383 1_655 S
C412 C414 1.391 . S
C413 C412 1.383 1_455 S
C413 C417 1.390 1_455 S
C414 H406 0.950 . S
C414 C412 1.391 . S
C414 C415 1.400 . S
C415 C414 1.400 . S
C415 C416 1.398 . S
C415 C421 1.491 . S
C416 H407 0.950 . S
C416 C415 1.398 . S
C416 C417 1.391 . S
C417 H405 0.950 . S
C417 C413 1.390 1_655 S
C417 C416 1.391 . S
C418 H408 0.950 . S
C418 C419 1.386 . S
C418 C420 1.391 . S
C419 C418 1.386 . S
C419 C423 1.393 . S
C420 H409 0.950 . S
C420 C418 1.391 . S
C420 C421 1.400 . S
C421 C415 1.491 . S
C421 C420 1.400 . S
C421 C422 1.398 . S
C422 H410 0.950 . S
C422 C421 1.398 . S
C422 C423 1.391 . S
C423 H411 0.950 . S
C423 C419 1.393 . S
C423 C422 1.391 . S
H424 C432 0.959 . S
H425 C437 0.950 . S
H426 C434 0.950 . S
H427 C436 0.950 . S
H428 C438 0.950 . S
H429 C440 0.950 . S
H430 C442 0.950 . S
H431 C443 0.950 . S
C432 H424 0.959 . S
C432 C433 1.386 . S
C432 C434 1.391 . S
C433 C432 1.386 . S
C433 C437 1.393 . S
C434 H426 0.950 . S
C434 C432 1.391 . S
C434 C435 1.400 . S
C435 C434 1.400 . S
C435 C436 1.398 . S
C435 C441 1.491 . S
C436 H427 0.950 . S
C436 C435 1.398 . S
C436 C437 1.391 . S
C437 H425 0.950 . S
C437 C433 1.393 . S
C437 C436 1.391 . S
C438 H428 0.950 . S
C438 C439 1.386 . S
C438 C440 1.391 . S
C439 C438 1.386 . S
C439 C443 1.393 . S
C440 H429 0.950 . S
C440 C438 1.391 . S
C440 C441 1.400 . S
C441 C435 1.491 . S
C441 C440 1.400 . S
C441 C442 1.398 . S
C442 H430 0.950 . S
C442 C441 1.398 . S
C442 C443 1.391 . S
C443 H431 0.950 . S
C443 C439 1.393 . S
C443 C442 1.391 . S
H444 C452 0.950 . S
H445 C457 0.950 1_655 S
H446 C454 0.950 . S
H447 C456 0.950 . S
H448 C458 0.950 . S
H449 C460 0.950 . S
H450 C462 0.950 . S
H451 C463 0.950 . S
C452 H444 0.950 . S
C452 C453 1.389 . S
C452 C454 1.391 . S
C453 C452 1.389 . S
C453 C457 1.393 . S
C454 H446 0.950 . S
C454 C452 1.391 . S
C454 C455 1.400 . S
C455 C454 1.400 . S
C455 C456 1.398 . S
C455 C461 1.491 . S
C456 H447 0.950 . S
C456 C455 1.398 . S
C456 C457 1.391 . S
C457 H445 0.950 1_455 S
C457 C453 1.393 . S
C457 C456 1.391 . S
C458 H448 0.950 . S
C458 C459 1.386 . S
C458 C460 1.391 . S
C459 C458 1.386 . S
C459 C463 1.393 . S
C460 H449 0.950 . S
C460 C458 1.391 . S
C460 C461 1.400 . S
C461 C455 1.491 . S
C461 C460 1.400 . S
C461 C462 1.398 . S
C462 H450 0.950 . S
C462 C461 1.398 . S
C462 C463 1.391 . S
C463 H451 0.950 . S
C463 C459 1.393 . S
C463 C462 1.391 . S
H464 C472 0.950 . S
H465 C477 0.950 . S
H466 C474 0.950 . S
H467 C476 0.950 . S
H468 C478 0.950 . S
H469 C480 0.950 . S
H470 C482 0.950 . S
H471 C483 0.950 . S
C472 H464 0.950 . S
C472 C473 1.386 . S
C472 C474 1.391 . S
C473 C472 1.386 . S
C473 C477 1.393 . S
C474 H466 0.950 . S
C474 C472 1.391 . S
C474 C475 1.400 . S
C475 C474 1.400 . S
C475 C476 1.398 . S
C475 C481 1.491 . S
C476 H467 0.950 . S
C476 C475 1.398 . S
C476 C477 1.391 . S
C477 H465 0.950 . S
C477 C473 1.393 . S
C477 C476 1.391 . S
C478 H468 0.950 . S
C478 C479 1.386 . S
C478 C480 1.391 . S
C479 C478 1.386 . S
C479 C483 1.393 . S
C480 H469 0.950 . S
C480 C478 1.391 . S
C480 C481 1.400 . S
C481 C475 1.491 . S
C481 C480 1.400 . S
C481 C482 1.398 . S
C482 H470 0.950 . S
C482 C481 1.398 . S
C482 C483 1.391 . S
C483 H471 0.950 . S
C483 C479 1.393 . S
C483 C482 1.391 . S
H484 C492 0.950 . S
H485 C497 0.950 . S
H486 C494 0.950 . S
H487 C496 0.950 . S
H488 C498 0.950 . S
H489 C500 0.950 . S
H490 C502 0.950 . S
H491 C503 0.950 . S
C492 H484 0.950 . S
C492 C493 1.386 . S
C492 C494 1.391 . S
C493 C492 1.386 . S
C493 C497 1.393 . S
C494 H486 0.950 . S
C494 C492 1.391 . S
C494 C495 1.400 . S
C495 C494 1.400 . S
C495 C496 1.398 . S
C495 C501 1.491 . S
C496 H487 0.950 . S
C496 C495 1.398 . S
C496 C497 1.391 . S
C497 H485 0.950 . S
C497 C493 1.393 . S
C497 C496 1.391 . S
C498 H488 0.950 . S
C498 C499 1.386 . S
C498 C500 1.391 . S
C499 C498 1.386 . S
C499 C503 1.393 . S
C500 H489 0.950 . S
C500 C498 1.391 . S
C500 C501 1.400 . S
C501 C495 1.491 . S
C501 C500 1.400 . S
C501 C502 1.398 . S
C502 H490 0.950 . S
C502 C501 1.398 . S
C502 C503 1.391 . S
C503 H491 0.950 . S
C503 C499 1.393 . S
C503 C502 1.391 . S
H504 C512 0.950 . S
H505 C517 0.950 . S
H506 C514 0.950 . S
H507 C516 0.950 . S
H508 C518 0.950 . S
H509 C520 0.950 . S
H510 C522 0.950 . S
H511 C523 0.950 . S
C512 H504 0.950 . S
C512 C513 1.386 . S
C512 C514 1.391 . S
C513 C512 1.386 . S
C513 C517 1.393 . S
C514 H506 0.950 . S
C514 C512 1.391 . S
C514 C515 1.400 . S
C515 C514 1.400 . S
C515 C516 1.398 . S
C515 C521 1.491 . S
C516 H507 0.950 . S
C516 C515 1.398 . S
C516 C517 1.391 . S
C517 H505 0.950 . S
C517 C513 1.393 . S
C517 C516 1.391 . S
C518 H508 0.950 . S
C518 C519 1.386 . S
C518 C520 1.391 . S
C519 C518 1.386 . S
C519 C523 1.393 . S
C520 H509 0.950 . S
C520 C518 1.391 . S
C520 C521 1.400 . S
C521 C515 1.491 . S
C521 C520 1.400 . S
C521 C522 1.398 . S
C522 H510 0.950 . S
C522 C521 1.398 . S
C522 C523 1.391 . S
C523 H511 0.950 . S
C523 C519 1.393 . S
C523 C522 1.391 . S
H524 C532 0.950 . S
H525 C537 0.950 . S
H526 C534 0.950 . S
H527 C536 0.950 . S
H528 C538 0.950 . S
H529 C540 0.950 . S
H530 C542 0.950 . S
H531 C543 0.950 . S
C532 H524 0.950 . S
C532 C533 1.386 . S
C532 C534 1.391 . S
C533 C532 1.386 . S
C533 C537 1.393 . S
C534 H526 0.950 . S
C534 C532 1.391 . S
C534 C535 1.400 . S
C535 C534 1.400 . S
C535 C536 1.398 . S
C535 C541 1.491 . S
C536 H527 0.950 . S
C536 C535 1.398 . S
C536 C537 1.391 . S
C537 H525 0.950 . S
C537 C533 1.393 . S
C537 C536 1.391 . S
C538 H528 0.950 . S
C538 C539 1.386 . S
C538 C540 1.391 . S
C539 C538 1.386 . S
C539 C543 1.393 . S
C540 H529 0.950 . S
C540 C538 1.391 . S
C540 C541 1.400 . S
C541 C535 1.491 . S
C541 C540 1.400 . S
C541 C542 1.398 . S
C542 H530 0.950 . S
C542 C541 1.398 . S
C542 C543 1.391 . S
C543 H531 0.950 . S
C543 C539 1.393 . S
C543 C542 1.391 . S
H544 C552 0.950 . S
H545 C557 0.950 . S
H546 C554 0.950 . S
H547 C556 0.950 . S
H548 C558 0.950 . S
H549 C560 0.950 . S
H550 C562 0.950 . S
H551 C563 0.950 . S
C552 H544 0.950 . S
C552 C553 1.386 . S
C552 C554 1.391 . S
C553 C552 1.386 . S
C553 C557 1.393 . S
C554 H546 0.950 . S
C554 C552 1.391 . S
C554 C555 1.400 . S
C555 C554 1.400 . S
C555 C556 1.398 . S
C555 C561 1.491 . S
C556 H547 0.950 . S
C556 C555 1.398 . S
C556 C557 1.391 . S
C557 H545 0.950 . S
C557 C553 1.393 . S
C557 C556 1.391 . S
C558 H548 0.950 . S
C558 C559 1.386 . S
C558 C560 1.391 . S
C559 C558 1.386 . S
C559 C563 1.393 . S
C560 H549 0.950 . S
C560 C558 1.391 . S
C560 C561 1.400 . S
C561 C555 1.491 . S
C561 C560 1.400 . S
C561 C562 1.398 . S
C562 H550 0.950 . S
C562 C561 1.398 . S
C562 C563 1.391 . S
C563 H551 0.950 . S
C563 C559 1.393 . S
C563 C562 1.391 . S
H564 C572 0.950 . S
H565 C577 0.950 . S
H566 C574 0.950 . S
H567 C576 0.950 . S
H568 C578 0.950 . S
H569 C580 0.950 . S
H570 C582 0.950 . S
H571 C583 0.950 . S
C572 H564 0.950 . S
C572 C573 1.386 . S
C572 C574 1.391 . S
C573 C572 1.386 . S
C573 C577 1.393 . S
C574 H566 0.950 . S
C574 C572 1.391 . S
C574 C575 1.400 . S
C575 C574 1.400 . S
C575 C576 1.398 . S
C575 C581 1.491 . S
C576 H567 0.950 . S
C576 C575 1.398 . S
C576 C577 1.391 . S
C577 H565 0.950 . S
C577 C573 1.393 . S
C577 C576 1.391 . S
C578 H568 0.950 . S
C578 C579 1.386 . S
C578 C580 1.391 . S
C579 C578 1.386 . S
C579 C583 1.393 . S
C580 H569 0.950 . S
C580 C578 1.391 . S
C580 C581 1.400 . S
C581 C575 1.491 . S
C581 C580 1.400 . S
C581 C582 1.398 . S
C582 H570 0.950 . S
C582 C581 1.398 . S
C582 C583 1.391 . S
C583 H571 0.950 . S
C583 C579 1.393 . S
C583 C582 1.391 . S
H584 C592 0.950 . S
H585 C597 0.950 . S
H586 C594 0.950 . S
H587 C596 0.950 . S
H588 C598 0.950 . S
H589 C600 0.950 . S
H590 C602 0.950 . S
H591 C603 0.950 . S
C592 H584 0.950 . S
C592 C593 1.386 . S
C592 C594 1.391 . S
C593 C592 1.386 . S
C593 C597 1.393 . S
C594 H586 0.950 . S
C594 C592 1.391 . S
C594 C595 1.400 . S
C595 C594 1.400 . S
C595 C596 1.398 . S
C595 C601 1.491 . S
C596 H587 0.950 . S
C596 C595 1.398 . S
C596 C597 1.391 . S
C597 H585 0.950 . S
C597 C593 1.393 . S
C597 C596 1.391 . S
C598 H588 0.950 . S
C598 C599 1.386 . S
C598 C600 1.391 . S
C599 C598 1.386 . S
C599 C603 1.393 . S
C600 H589 0.950 . S
C600 C598 1.391 . S
C600 C601 1.400 . S
C601 C595 1.491 . S
C601 C600 1.400 . S
C601 C602 1.398 . S
C602 H590 0.950 . S
C602 C601 1.398 . S
C602 C603 1.391 . S
C603 H591 0.950 . S
C603 C599 1.393 . S
C603 C602 1.391 . S
H604 C612 0.950 . S
H605 C617 0.950 . S
H606 C614 0.950 . S
H607 C616 0.950 . S
H608 C618 0.950 . S
H609 C620 0.950 . S
H610 C622 0.950 . S
H611 C623 0.950 . S
C612 H604 0.950 . S
C612 C613 1.386 . S
C612 C614 1.391 . S
C613 C612 1.386 . S
C613 C617 1.393 . S
C614 H606 0.950 . S
C614 C612 1.391 . S
C614 C615 1.400 . S
C615 C614 1.400 . S
C615 C616 1.398 . S
C615 C621 1.491 . S
C616 H607 0.950 . S
C616 C615 1.398 . S
C616 C617 1.391 . S
C617 H605 0.950 . S
C617 C613 1.393 . S
C617 C616 1.391 . S
C618 H608 0.950 . S
C618 C619 1.386 . S
C618 C620 1.391 . S
C619 C618 1.386 . S
C619 C623 1.393 . S
C620 H609 0.950 . S
C620 C618 1.391 . S
C620 C621 1.400 . S
C621 C615 1.491 . S
C621 C620 1.400 . S
C621 C622 1.398 . S
C622 H610 0.950 . S
C622 C621 1.398 . S
C622 C623 1.391 . S
C623 H611 0.950 . S
C623 C619 1.393 . S
C623 C622 1.391 . S
H624 C632 0.950 . S
H625 C637 0.950 . S
H626 C634 0.950 . S
H627 C636 0.950 . S
H628 C638 0.950 . S
H629 C640 0.950 . S
H630 C642 0.950 . S
H631 C643 0.950 . S
C632 H624 0.950 . S
C632 C633 1.386 . S
C632 C634 1.391 . S
C633 C632 1.386 . S
C633 C637 1.393 . S
C634 H626 0.950 . S
C634 C632 1.391 . S
C634 C635 1.400 . S
C635 C634 1.400 . S
C635 C636 1.398 . S
C635 C641 1.491 . S
C636 H627 0.950 . S
C636 C635 1.398 . S
C636 C637 1.391 . S
C637 H625 0.950 . S
C637 C633 1.393 . S
C637 C636 1.391 . S
C638 H628 0.950 . S
C638 C639 1.386 . S
C638 C640 1.391 . S
C639 C638 1.386 . S
C639 C643 1.393 . S
C640 H629 0.950 . S
C640 C638 1.391 . S
C640 C641 1.400 . S
C641 C635 1.491 . S
C641 C640 1.400 . S
C641 C642 1.398 . S
C642 H630 0.950 . S
C642 C641 1.398 . S
C642 C643 1.391 . S
C643 H631 0.950 . S
C643 C639 1.393 . S
C643 C642 1.391 . S
H644 C652 0.950 . S
H645 C657 0.950 . S
H646 C654 0.950 . S
H647 C656 0.950 . S
H648 C658 0.950 . S
H649 C660 0.950 . S
H650 C662 0.950 . S
H651 C663 0.950 . S
C652 H644 0.950 . S
C652 C653 1.386 . S
C652 C654 1.391 . S
C653 C652 1.386 . S
C653 C657 1.393 . S
C654 H646 0.950 . S
C654 C652 1.391 . S
C654 C655 1.400 . S
C655 C654 1.400 . S
C655 C656 1.398 . S
C655 C661 1.491 . S
C656 H647 0.950 . S
C656 C655 1.398 . S
C656 C657 1.391 . S
C657 H645 0.950 . S
C657 C653 1.393 . S
C657 C656 1.391 . S
C658 H648 0.950 . S
C658 C659 1.386 . S
C658 C660 1.391 . S
C659 C658 1.386 . S
C659 C663 1.393 . S
C660 H649 0.950 . S
C660 C658 1.391 . S
C660 C661 1.400 . S
C661 C655 1.491 . S
C661 C660 1.400 . S
C661 C662 1.398 . S
C662 H650 0.950 . S
C662 C661 1.398 . S
C662 C663 1.391 . S
C663 H651 0.950 . S
C663 C659 1.393 . S
C663 C662 1.391 . S
H664 C672 0.950 . S
H665 C677 0.950 . S
H666 C674 0.950 . S
H667 C676 0.950 . S
H668 C678 0.950 . S
H669 C680 0.950 . S
H670 C682 0.950 . S
H671 C683 0.950 . S
C672 H664 0.950 . S
C672 C673 1.386 . S
C672 C674 1.391 . S
C673 C672 1.386 . S
C673 C677 1.393 . S
C674 H666 0.950 . S
C674 C672 1.391 . S
C674 C675 1.400 . S
C675 C674 1.400 . S
C675 C676 1.398 . S
C675 C681 1.491 . S
C676 H667 0.950 . S
C676 C675 1.398 . S
C676 C677 1.391 . S
C677 H665 0.950 . S
C677 C673 1.393 . S
C677 C676 1.391 . S
C678 H668 0.950 . S
C678 C679 1.386 . S
C678 C680 1.391 . S
C679 C678 1.386 . S
C679 C683 1.393 . S
C680 H669 0.950 . S
C680 C678 1.391 . S
C680 C681 1.400 . S
C681 C675 1.491 . S
C681 C680 1.400 . S
C681 C682 1.398 . S
C682 H670 0.950 . S
C682 C681 1.398 . S
C682 C683 1.391 . S
C683 H671 0.950 . S
C683 C679 1.393 . S
C683 C682 1.391 . S
H684 C692 0.950 . S
H685 C697 0.950 . S
H686 C694 0.950 . S
H687 C696 0.950 . S
H688 C698 0.950 . S
H689 C700 0.950 . S
H690 C702 0.950 . S
H691 C703 0.950 . S
C692 H684 0.950 . S
C692 C693 1.386 . S
C692 C694 1.391 . S
C693 C692 1.386 . S
C693 C697 1.393 . S
C694 H686 0.950 . S
C694 C692 1.391 . S
C694 C695 1.400 . S
C695 C694 1.400 . S
C695 C696 1.398 . S
C695 C701 1.491 . S
C696 H687 0.950 . S
C696 C695 1.398 . S
C696 C697 1.391 . S
C697 H685 0.950 . S
C697 C693 1.393 . S
C697 C696 1.391 . S
C698 H688 0.950 . S
C698 C699 1.386 . S
C698 C700 1.391 . S
C699 C698 1.386 . S
C699 C703 1.393 . S
C700 H689 0.950 . S
C700 C698 1.391 . S
C700 C701 1.400 . S
C701 C695 1.491 . S
C701 C700 1.400 . S
C701 C702 1.398 . S
C702 H690 0.950 . S
C702 C701 1.398 . S
C702 C703 1.391 . S
C703 H691 0.950 . S
C703 C699 1.393 . S
C703 C702 1.391 . S
H704 C712 0.950 . S
H705 C717 0.950 . S
H706 C714 0.950 1_455 S
H707 C716 0.950 . S
H708 C718 0.950 . S
H709 C720 0.950 1_655 S
H710 C722 0.950 . S
H711 C723 0.950 . S
C712 H704 0.950 . S
C712 C713 1.386 . S
C712 C714 1.391 . S
C713 C712 1.386 . S
C713 C717 1.393 . S
C714 H706 0.950 1_655 S
C714 C712 1.391 . S
C714 C715 1.400 . S
C715 C714 1.400 . S
C715 C716 1.398 . S
C715 C721 1.491 1_665 S
C716 H707 0.950 . S
C716 C715 1.398 . S
C716 C717 1.391 . S
C717 H705 0.950 . S
C717 C713 1.393 . S
C717 C716 1.391 . S
C718 H708 0.950 . S
C718 C719 1.386 . S
C718 C720 1.391 . S
C719 C718 1.386 . S
C719 C723 1.393 . S
C720 H709 0.950 1_455 S
C720 C718 1.391 . S
C720 C721 1.400 . S
C721 C715 1.491 1_445 S
C721 C720 1.400 . S
C721 C722 1.398 . S
C722 H710 0.950 . S
C722 C721 1.398 . S
C722 C723 1.391 . S
C723 H711 0.950 . S
C723 C719 1.393 . S
C723 C722 1.391 . S
H724 C732 0.950 . S
H725 C737 0.950 1_565 S
H726 C734 0.941 1_455 S
H727 C736 0.950 . S
H728 C738 0.950 . S
H729 C740 0.941 1_655 S
H730 C742 0.950 . S
H731 C743 0.950 1_545 S
C732 H724 0.950 . S
C732 C733 1.386 . S
C732 C734 1.391 . S
C733 C732 1.386 . S
C733 C737 1.393 . S
C734 H726 0.941 1_655 S
C734 C732 1.391 . S
C734 C735 1.400 . S
C735 C734 1.400 . S
C735 C736 1.398 1_545 S
C735 C741 1.491 1_645 S
C736 H727 0.950 . S
C736 C735 1.398 1_565 S
C736 C737 1.391 1_565 S
C737 H725 0.950 1_545 S
C737 C733 1.393 . S
C737 C736 1.391 1_545 S
C738 H728 0.950 . S
C738 C739 1.386 . S
C738 C740 1.391 . S
C739 C738 1.386 . S
C739 C743 1.393 . S
C740 H729 0.941 1_455 S
C740 C738 1.391 . S
C740 C741 1.400 . S
C741 C735 1.491 1_465 S
C741 C740 1.400 . S
C741 C742 1.398 1_565 S
C742 H730 0.950 . S
C742 C741 1.398 1_545 S
C742 C743 1.391 1_545 S
C743 H731 0.950 1_565 S
C743 C739 1.393 . S
C743 C742 1.391 1_565 S
H744 C752 0.950 . S
H745 C757 0.950 . S
H746 C754 0.948 . S
H747 C756 0.950 . S
H748 C758 0.950 . S
H749 C760 0.950 . S
H750 C762 0.965 . S
H751 C763 0.951 . S
C752 H744 0.950 . S
C752 C753 1.386 . S
C752 C754 1.391 . S
C753 C752 1.386 . S
C753 C757 1.393 . S
C754 H746 0.948 . S
C754 C752 1.391 . S
C754 C755 1.400 . S
C755 C754 1.400 . S
C755 C756 1.398 . S
C755 C761 1.491 1_455 S
C756 H747 0.950 . S
C756 C755 1.398 . S
C756 C757 1.391 . S
C757 H745 0.950 . S
C757 C753 1.393 . S
C757 C756 1.391 . S
C758 H748 0.950 . S
C758 C759 1.386 . S
C758 C760 1.391 . S
C759 C758 1.386 . S
C759 C763 1.393 . S
C760 H749 0.950 . S
C760 C758 1.391 . S
C760 C761 1.400 . S
C761 C755 1.491 1_655 S
C761 C760 1.400 . S
C761 C762 1.398 . S
C762 H750 0.965 . S
C762 C761 1.398 . S
C762 C763 1.391 . S
C763 H751 0.951 . S
C763 C759 1.393 . S
C763 C762 1.391 . S
H764 C772 0.950 . S
H765 C777 0.950 . S
H766 C774 0.950 . S
H767 C776 0.950 . S
H768 C778 0.950 . S
H769 C780 0.950 . S
H770 C782 0.950 . S
H771 C783 0.950 . S
C772 H764 0.950 . S
C772 C773 1.386 . S
C772 C774 1.391 1_565 S
C773 C772 1.386 . S
C773 C777 1.393 . S
C774 H766 0.950 . S
C774 C772 1.391 1_545 S
C774 C775 1.400 1_545 S
C775 C774 1.400 1_565 S
C775 C776 1.398 . S
C775 C781 1.491 1_565 S
C776 H767 0.950 . S
C776 C775 1.398 . S
C776 C777 1.391 . S
C777 H765 0.950 . S
C777 C773 1.393 . S
C777 C776 1.391 . S
C778 H768 0.950 . S
C778 C779 1.386 . S
C778 C780 1.391 1_545 S
C779 C778 1.386 . S
C779 C783 1.393 . S
C780 H769 0.950 . S
C780 C778 1.391 1_565 S
C780 C781 1.400 1_565 S
C781 C775 1.491 1_545 S
C781 C780 1.400 1_545 S
C781 C782 1.398 . S
C782 H770 0.950 . S
C782 C781 1.398 . S
C782 C783 1.391 . S
C783 H771 0.950 . S
C783 C779 1.393 . S
C783 C782 1.391 . S
H784 C792 0.950 . S
H785 C797 0.950 . S
H786 C794 0.950 . S
H787 C796 0.950 . S
H788 C798 0.950 . S
H789 C800 0.950 . S
H790 C802 0.950 . S
H791 C803 0.950 . S
C792 H784 0.950 . S
C792 C793 1.386 . S
C792 C794 1.391 . S
C793 C792 1.386 . S
C793 C797 1.393 . S
C794 H786 0.950 . S
C794 C792 1.391 . S
C794 C795 1.400 . S
C795 C794 1.400 . S
C795 C796 1.398 . S
C795 C801 1.491 . S
C796 H787 0.950 . S
C796 C795 1.398 . S
C796 C797 1.391 . S
C797 H785 0.950 . S
C797 C793 1.393 . S
C797 C796 1.391 . S
C798 H788 0.950 . S
C798 C799 1.386 . S
C798 C800 1.391 . S
C799 C798 1.386 . S
C799 C803 1.393 . S
C800 H789 0.950 . S
C800 C798 1.391 . S
C800 C801 1.400 . S
C801 C795 1.491 . S
C801 C800 1.400 . S
C801 C802 1.398 . S
C802 H790 0.950 . S
C802 C801 1.398 . S
C802 C803 1.391 . S
C803 H791 0.950 . S
C803 C799 1.393 . S
C803 C802 1.391 . S
H804 C812 0.950 . S
H805 C817 0.950 . S
H806 C814 0.950 . S
H807 C816 0.950 . S
H808 C818 0.950 . S
H809 C820 0.950 . S
H810 C822 0.950 . S
H811 C823 0.950 . S
C812 H804 0.950 . S
C812 C813 1.386 . S
C812 C814 1.391 . S
C813 C812 1.386 . S
C813 C817 1.393 . S
C814 H806 0.950 . S
C814 C812 1.391 . S
C814 C815 1.400 . S
C815 C814 1.400 . S
C815 C816 1.398 . S
C815 C821 1.491 . S
C816 H807 0.950 . S
C816 C815 1.398 . S
C816 C817 1.391 . S
C817 H805 0.950 . S
C817 C813 1.393 . S
C817 C816 1.391 . S
C818 H808 0.950 . S
C818 C819 1.386 . S
C818 C820 1.391 . S
C819 C818 1.386 . S
C819 C823 1.393 . S
C820 H809 0.950 . S
C820 C818 1.391 . S
C820 C821 1.400 . S
C821 C815 1.491 . S
C821 C820 1.400 . S
C821 C822 1.398 . S
C822 H810 0.950 . S
C822 C821 1.398 . S
C822 C823 1.391 . S
C823 H811 0.950 . S
C823 C819 1.393 . S
C823 C822 1.391 . S
H824 C832 0.950 . S
H825 C837 0.950 . S
H826 C834 0.950 . S
H827 C836 0.950 . S
H828 C838 0.950 . S
H829 C840 0.950 . S
H830 C842 0.950 . S
H831 C843 0.950 . S
C832 H824 0.950 . S
C832 C833 1.386 . S
C832 C834 1.391 . S
C833 C832 1.386 . S
C833 C837 1.393 . S
C834 H826 0.950 . S
C834 C832 1.391 . S
C834 C835 1.400 . S
C835 C834 1.400 . S
C835 C836 1.398 . S
C835 C841 1.491 1_545 S
C836 H827 0.950 . S
C836 C835 1.398 . S
C836 C837 1.391 . S
C837 H825 0.950 . S
C837 C833 1.393 . S
C837 C836 1.391 . S
C838 H828 0.950 . S
C838 C839 1.386 . S
C838 C840 1.391 . S
C839 C838 1.386 . S
C839 C843 1.393 . S
C840 H829 0.950 . S
C840 C838 1.391 . S
C840 C841 1.400 . S
C841 C835 1.491 1_565 S
C841 C840 1.400 . S
C841 C842 1.398 . S
C842 H830 0.950 . S
C842 C841 1.398 . S
C842 C843 1.391 . S
C843 H831 0.950 . S
C843 C839 1.393 . S
C843 C842 1.391 . S
H844 C852 0.950 . S
H845 C857 0.950 . S
H846 C854 0.950 . S
H847 C856 0.950 . S
H848 C858 0.950 . S
H849 C860 0.950 . S
H850 C862 0.950 . S
H851 C863 0.950 . S
C852 H844 0.950 . S
C852 C853 1.386 . S
C852 C854 1.391 . S
C853 C852 1.386 . S
C853 C857 1.393 . S
C854 H846 0.950 . S
C854 C852 1.391 . S
C854 C855 1.400 . S
C855 C854 1.400 . S
C855 C856 1.398 . S
C855 C861 1.491 1_655 S
C856 H847 0.950 . S
C856 C855 1.398 . S
C856 C857 1.391 . S
C857 H845 0.950 . S
C857 C853 1.393 . S
C857 C856 1.391 . S
C858 H848 0.950 . S
C858 C859 1.386 . S
C858 C860 1.391 . S
C859 C858 1.386 . S
C859 C863 1.393 . S
C860 H849 0.950 . S
C860 C858 1.391 . S
C860 C861 1.400 . S
C861 C855 1.491 1_455 S
C861 C860 1.400 . S
C861 C862 1.398 . S
C862 H850 0.950 . S
C862 C861 1.398 . S
C862 C863 1.391 . S
C863 H851 0.950 . S
C863 C859 1.393 . S
C863 C862 1.391 . S
C233 C8 1.275 . S
C239 C163 1.306 . S
C253 C121 1.323 . S
C259 C22 1.285 . S
C273 C135 1.324 . S
C279 C36 1.280 . S
C293 C149 1.304 . S
C299 C50 1.279 . S
C313 C79 1.315 . S
C319 C64 1.297 . S
C333 C78 1.297 . S
C339 C93 1.309 . S
C353 C92 1.297 . S
C359 C107 1.307 . S
C373 C106 1.291 . S
C379 C65 1.296 1_655 S
C393 C120 1.280 . S
C399 C51 1.323 1_565 S
C413 C9 1.319 . S
C419 C134 1.297 . S
C433 C23 1.315 1_545 S
C439 C148 1.266 . S
C453 C37 1.322 1_455 S
C459 C162 1.279 . S
C473 C191 1.304 . S
C479 C176 1.280 . S
C493 C190 1.297 . S
C499 C205 1.307 . S
C513 C219 1.304 . S
C519 C204 1.295 . S
C533 C177 1.325 . S
C539 C218 1.277 . S
C553 C202 1.469 . S
C559 C6 1.477 . S
C573 C216 1.479 . S
C579 C20 1.480 . S
C593 C174 1.469 . S
C599 C34 1.481 . S
C613 C48 1.483 . S
C619 C188 1.473 . S
C633 C62 1.483 . S
C639 C146 1.472 . S
C653 C160 1.476 . S
C659 C76 1.470 . S
C673 C90 1.472 . S
C679 C118 1.483 . S
C693 C104 1.473 . S
C699 C132 1.483 . S
C713 C35 1.399 . S
C719 C7 1.404 . S
C733 C49 1.392 . S
C739 C21 1.403 . S
C753 C63 1.402 . S
C759 C91 1.402 . S
C773 C77 1.401 . S
C779 C105 1.392 . S
C793 C147 1.392 . S
C799 C119 1.401 . S
C813 C133 1.395 . S
C819 C161 1.394 . S
C833 C203 1.392 . S
C839 C175 1.399 . S
C853 C189 1.396 . S
C859 C217 1.393 . S
