# Generated by pormake.
# Topology lig, (3)-cn, num edge types: 1
# Building blocks:
#     Node 0, Type 0, BuildingBlock: WUSLED_clean_sbu_0, # of connection points: 3
#     Node 1, Type 0, BuildingBlock: WUSLED_clean_sbu_0, # of connection points: 3
#     Node 2, Type 0, BuildingBlock: WUSLED_clean_sbu_0, # of connection points: 3
#     Node 3, Type 0, BuildingBlock: WUSLED_clean_sbu_0, # of connection points: 3
#     Node 4, Type 0, BuildingBlock: WUSLED_clean_sbu_0, # of connection points: 3
#     Node 5, Type 0, BuildingBlock: WUSLED_clean_sbu_0, # of connection points: 3
#     Node 6, Type 0, BuildingBlock: WUSLED_clean_sbu_0, # of connection points: 3
#     Node 7, Type 0, BuildingBlock: WUSLED_clean_sbu_0, # of connection points: 3
#     Node 8, Type 0, BuildingBlock: WUSLED_clean_sbu_0, # of connection points: 3
#     Node 9, Type 0, BuildingBlock: WUSLED_clean_sbu_0, # of connection points: 3
#     Node 10, Type 0, BuildingBlock: WUSLED_clean_sbu_0, # of connection points: 3
#     Node 11, Type 0, BuildingBlock: WUSLED_clean_sbu_0, # of connection points: 3
#     Node 12, Type 0, BuildingBlock: WUSLED_clean_sbu_0, # of connection points: 3
#     Node 13, Type 0, BuildingBlock: WUSLED_clean_sbu_0, # of connection points: 3
#     Node 14, Type 0, BuildingBlock: WUSLED_clean_sbu_0, # of connection points: 3
#     Node 15, Type 0, BuildingBlock: WUSLED_clean_sbu_0, # of connection points: 3
#     Edge 16, Type (0, 0), BuildingBlock: MIFKUJ_clean_linker_0, # of connection points: 2
#     Edge 17, Type (0, 0), BuildingBlock: MIFKUJ_clean_linker_0, # of connection points: 2
#     Edge 18, Type (0, 0), BuildingBlock: MIFKUJ_clean_linker_0, # of connection points: 2
#     Edge 19, Type (0, 0), BuildingBlock: MIFKUJ_clean_linker_0, # of connection points: 2
#     Edge 20, Type (0, 0), BuildingBlock: MIFKUJ_clean_linker_0, # of connection points: 2
#     Edge 21, Type (0, 0), BuildingBlock: MIFKUJ_clean_linker_0, # of connection points: 2
#     Edge 22, Type (0, 0), BuildingBlock: MIFKUJ_clean_linker_0, # of connection points: 2
#     Edge 23, Type (0, 0), BuildingBlock: MIFKUJ_clean_linker_0, # of connection points: 2
#     Edge 24, Type (0, 0), BuildingBlock: MIFKUJ_clean_linker_0, # of connection points: 2
#     Edge 25, Type (0, 0), BuildingBlock: MIFKUJ_clean_linker_0, # of connection points: 2
#     Edge 26, Type (0, 0), BuildingBlock: MIFKUJ_clean_linker_0, # of connection points: 2
#     Edge 27, Type (0, 0), BuildingBlock: MIFKUJ_clean_linker_0, # of connection points: 2
#     Edge 28, Type (0, 0), BuildingBlock: MIFKUJ_clean_linker_0, # of connection points: 2
#     Edge 29, Type (0, 0), BuildingBlock: MIFKUJ_clean_linker_0, # of connection points: 2
#     Edge 30, Type (0, 0), BuildingBlock: MIFKUJ_clean_linker_0, # of connection points: 2
#     Edge 31, Type (0, 0), BuildingBlock: MIFKUJ_clean_linker_0, # of connection points: 2
#     Edge 32, Type (0, 0), BuildingBlock: MIFKUJ_clean_linker_0, # of connection points: 2
#     Edge 33, Type (0, 0), BuildingBlock: MIFKUJ_clean_linker_0, # of connection points: 2
#     Edge 34, Type (0, 0), BuildingBlock: MIFKUJ_clean_linker_0, # of connection points: 2
#     Edge 35, Type (0, 0), BuildingBlock: MIFKUJ_clean_linker_0, # of connection points: 2
#     Edge 36, Type (0, 0), BuildingBlock: MIFKUJ_clean_linker_0, # of connection points: 2
#     Edge 37, Type (0, 0), BuildingBlock: MIFKUJ_clean_linker_0, # of connection points: 2
#     Edge 38, Type (0, 0), BuildingBlock: MIFKUJ_clean_linker_0, # of connection points: 2
#     Edge 39, Type (0, 0), BuildingBlock: MIFKUJ_clean_linker_0, # of connection points: 2
# Relax obj value: 0.000
# Max RMSD: 0.009
# Mean RMSD: 0.006
data_MOF--net-lig--node1-WUSLED_clean_sbu_0--edge1-MIFKUJ_clean_linker_0
_symmetry_space_group_name_H-M    P1
_symmetry_Int_Tables_number       1
_symmetry_cell_setting            triclinic
loop_
_symmetry_equiv_pos_as_xyz
'x, y, z'
_cell_length_a     110.40346
_cell_length_b     111.59299
_cell_length_c     79.138555
_cell_angle_alpha  88.513126
_cell_angle_beta   89.928535
_cell_angle_gamma 91.491549
loop_
_atom_site_label
_atom_site_type_symbol
_atom_site_fract_x
_atom_site_fract_y
_atom_site_fract_z
_atom_type_partial_charge
C0 C 0.10056 0.01008 0.03221 0.0
C1 C 0.09543 0.02143 0.02996 0.0
C2 C 0.07514 0.01223 0.02754 0.0
C3 C 0.08288 0.02248 0.02768 0.0
C4 C 0.08037 1.0009 0.02942 0.0
C5 C 0.09289 0.99985 0.03176 0.0
U6 U 0.13534 0.01515 0.02514 0.0
O7 O 0.14961 0.01841 0.04414 0.0
O8 O 0.14996 1.00228 0.02889 0.0
C9 C 0.15494 1.00825 0.04132 0.0
C10 C 0.1136 1.00862 0.03634 0.0
C11 C 0.15905 1.00123 0.05636 0.0
C12 C 0.15864 0.98329 0.07473 0.0
C13 C 0.15372 0.9901 0.06132 0.0
C14 C 0.17412 0.99871 0.07859 0.0
C15 C 0.16905 0.98742 0.08338 0.0
C16 C 0.16919 1.00549 0.06527 0.0
C17 C 0.14662 0.03512 0.98647 0.0
C18 C 0.16383 0.03496 0.96703 0.0
C19 C 0.15273 0.05316 0.97023 0.0
C20 C 0.14511 0.04727 0.98211 0.0
C21 C 0.16208 0.04706 0.96228 0.0
C22 C 0.15617 0.02905 0.97895 0.0
C23 C 0.13746 0.02892 0.99765 0.0
O24 O 0.11993 1.00211 0.02609 0.0
O25 O 0.11967 0.0181 0.04161 0.0
O26 O 0.13613 0.03316 0.01286 0.0
O27 O 0.13672 0.01714 0.99742 0.0
H28 H 0.10107 0.0295 0.03024 0.0
H29 H 0.07923 0.03135 0.02605 0.0
H30 H 0.07475 0.9928 0.02963 0.0
H31 H 0.09656 0.99101 0.03363 0.0
H32 H 0.15452 0.97462 0.07797 0.0
H33 H 0.1459 0.98657 0.05465 0.0
H34 H 0.18197 1.00232 0.0851 0.0
H35 H 0.17348 0.01403 0.06171 0.0
H36 H 0.17087 0.02993 0.96113 0.0
H37 H 0.15122 0.06252 0.96719 0.0
H38 H 0.13781 0.05216 0.98765 0.0
H39 H 0.15756 0.01966 0.98197 0.0
C40 C 0.26389 0.85494 0.28485 0.0
C41 C 0.25907 0.85041 0.26982 0.0
C42 C 0.26201 0.8298 0.28022 0.0
C43 C 0.2581 0.83795 0.26754 0.0
C44 C 0.26668 0.83447 0.2953 0.0
C45 C 0.2676 0.84686 0.29756 0.0
U46 U 0.25995 0.88932 0.27548 0.0
O47 O 0.25737 0.90343 0.29403 0.0
O48 O 0.27378 0.90377 0.2784 0.0
C49 C 0.26805 0.90856 0.29104 0.0
C50 C 0.26554 0.86795 0.2877 0.0
C51 C 0.27546 0.91224 0.3059 0.0
C52 C 0.27712 0.91686 0.33586 0.0
C53 C 0.2706 0.91194 0.32237 0.0
C54 C 0.29365 0.92228 0.31688 0.0
C55 C 0.28868 0.92226 0.33328 0.0
C56 C 0.28712 0.91739 0.3034 0.0
C57 C 0.24121 0.90101 0.23673 0.0
C58 C 0.2256 0.91559 0.23027 0.0
C59 C 0.23955 0.91008 0.20841 0.0
C60 C 0.24526 0.90231 0.21992 0.0
C61 C 0.22953 0.91673 0.21333 0.0
C62 C 0.23134 0.90783 0.2418 0.0
C63 C 0.24654 0.89165 0.24808 0.0
O64 O 0.27232 0.87414 0.27674 0.0
O65 O 0.25596 0.87373 0.2925 0.0
O66 O 0.24201 0.89024 0.26342 0.0
O67 O 0.25838 0.89065 0.24768 0.0
H68 H 0.25617 0.85649 0.25982 0.0
H69 H 0.25453 0.8347 0.25572 0.0
H70 H 0.26956 0.82854 0.30549 0.0
H71 H 0.27131 0.85014 0.30929 0.0
H72 H 0.27304 0.91653 0.34831 0.0
H73 H 0.26161 0.90817 0.32482 0.0
H74 H 0.30243 0.92648 0.31429 0.0
H75 H 0.29107 0.91797 0.29085 0.0
H76 H 0.21802 0.92066 0.23462 0.0
H77 H 0.24276 0.91055 0.19547 0.0
H78 H 0.25269 0.89705 0.21551 0.0
H79 H 0.22788 0.90702 0.2546 0.0
C80 C 0.35938 1.00212 0.49251 0.0
C81 C 0.36401 0.99085 0.48882 0.0
C82 C 0.34944 0.98848 0.46573 0.0
C83 C 0.35911 0.98412 0.47556 0.0
C84 C 0.3451 0.99991 0.46922 0.0
C85 C 0.34998 1.0066 0.48242 0.0
U86 U 0.383 0.01675 0.52315 0.0
O87 O 0.38213 0.0343 0.53515 0.0
O88 O 0.38195 0.01786 0.55095 0.0
C89 C 0.38098 0.02959 0.55049 0.0
C90 C 0.36337 1.00902 0.50742 0.0
C91 C 0.37183 0.03476 0.56188 0.0
C92 C 0.3563 0.04934 0.56772 0.0
C93 C 0.36377 0.04357 0.55623 0.0
C94 C 0.36455 0.0374 0.59067 0.0
C95 C 0.35674 0.04648 0.58517 0.0
C96 C 0.372 0.03167 0.5792 0.0
C97 C 0.41779 0.01388 0.51486 0.0
C98 C 0.43596 0.01061 0.53179 0.0
C99 C 0.43776 0.02018 0.50412 0.0
C100 C 0.42516 0.01922 0.50214 0.0
C101 C 0.44338 0.01576 0.51888 0.0
C102 C 0.42332 0.00967 0.52981 0.0
C103 C 0.40464 0.01182 0.51145 0.0
O104 O 0.36849 1.00307 0.51996 0.0
O105 O 0.3685 0.01962 0.50438 0.0
O106 O 0.3985 0.02115 0.50624 0.0
O107 O 0.39846 1.00469 0.522 0.0
H108 H 0.37123 0.98712 0.49639 0.0
H109 H 0.36266 0.97534 0.47334 0.0
H110 H 0.33785 1.0037 0.46178 0.0
H111 H 0.34623 0.01525 0.48498 0.0
H112 H 0.3505 0.05633 0.56297 0.0
H113 H 0.36345 0.04627 0.54299 0.0
H114 H 0.36501 0.03477 0.60391 0.0
H115 H 0.37816 0.02498 0.58398 0.0
H116 H 0.43992 1.00724 0.54343 0.0
H117 H 0.44312 0.02404 0.49378 0.0
H118 H 0.42119 0.02239 0.49038 0.0
H119 H 0.41794 1.00546 0.53987 0.0
C120 C 0.26589 0.1762 0.76191 0.0
C121 C 0.25482 0.18087 0.76715 0.0
C122 C 0.26361 0.20127 0.7663 0.0
C123 C 0.25371 0.19326 0.76934 0.0
C124 C 0.27473 0.19647 0.76147 0.0
C125 C 0.27584 0.18413 0.75929 0.0
U126 U 0.26116 0.1416 0.76929 0.0
O127 O 0.25762 0.1278 0.75024 0.0
O128 O 0.27426 0.12738 0.76532 0.0
C129 C 0.26806 0.12267 0.75284 0.0
C130 C 0.26722 0.16336 0.75792 0.0
C131 C 0.27493 0.11909 0.73764 0.0
C132 C 0.29372 0.11786 0.72151 0.0
C133 C 0.28714 0.12256 0.73492 0.0
C134 C 0.27598 0.10638 0.71306 0.0
C135 C 0.28828 0.10957 0.7105 0.0
C136 C 0.26942 0.11105 0.72645 0.0
C137 C 0.24265 0.12906 0.80846 0.0
C138 C 0.22579 0.11528 0.81593 0.0
C139 C 0.24178 0.11884 0.83616 0.0
C140 C 0.24765 0.12672 0.82452 0.0
C141 C 0.23066 0.11314 0.83214 0.0
C142 C 0.23168 0.12314 0.80426 0.0
C143 C 0.24819 0.13863 0.79718 0.0
O144 O 0.27415 0.157 0.76804 0.0
O145 O 0.25745 0.15741 0.75307 0.0
O146 O 0.24342 0.14026 0.78209 0.0
O147 O 0.26008 0.13974 0.79709 0.0
H148 H 0.24698 0.17498 0.76923 0.0
H149 H 0.24498 0.19659 0.77296 0.0
H150 H 0.28263 0.20227 0.75932 0.0
H151 H 0.28447 0.18078 0.75524 0.0
H152 H 0.30312 0.12068 0.71984 0.0
H153 H 0.29168 0.12872 0.74332 0.0
H154 H 0.27148 0.09992 0.70506 0.0
H155 H 0.26008 0.1081 0.72835 0.0
H156 H 0.21734 0.11096 0.81227 0.0
H157 H 0.24575 0.11757 0.84856 0.0
H158 H 0.25596 0.13127 0.82831 0.0
H159 H 0.22747 0.12478 0.7921 0.0
C160 C 0.85987 1.00189 0.05343 0.0
C161 C 0.86128 1.00577 0.07012 0.0
C162 C 0.84989 0.98816 0.08117 0.0
C163 C 0.85636 0.999 0.08379 0.0
C164 C 0.8487 0.98418 0.06449 0.0
C165 C 0.85358 0.99097 0.05084 0.0
U166 U 0.88355 0.01775 0.02301 0.0
O167 O 0.88277 0.02001 0.99529 0.0
O168 O 0.88305 0.03585 0.01113 0.0
C169 C 0.88223 0.03176 0.99574 0.0
C170 C 0.86376 1.00954 0.03855 0.0
C171 C 0.87351 0.03765 0.9842 0.0
C172 C 0.85374 0.03907 0.97062 0.0
C173 C 0.86146 0.03351 0.98243 0.0
C174 C 0.86999 0.05299 0.96242 0.0
C175 C 0.85797 0.0488 0.96028 0.0
C176 C 0.87764 0.04748 0.9742 0.0
C177 C 0.91817 0.01404 0.03182 0.0
C178 C 0.93623 0.01263 0.01417 0.0
C179 C 0.93828 0.0183 0.04332 0.0
C180 C 0.92567 0.01742 0.04529 0.0
C181 C 0.94379 0.0158 0.02779 0.0
C182 C 0.92357 0.01177 0.01615 0.0
C183 C 0.90498 0.01203 0.03501 0.0
O184 O 0.86894 0.02002 0.04154 0.0
O185 O 0.86879 1.0041 0.02587 0.0
O186 O 0.89884 1.00545 0.02426 0.0
O187 O 0.89893 0.02124 0.04019 0.0
H188 H 0.866 0.01417 0.07264 0.0
H189 H 0.85761 1.00229 0.09644 0.0
H190 H 0.84364 0.976 0.0619 0.0
H191 H 0.85215 0.98781 0.03815 0.0
H192 H 0.84457 0.03555 0.96929 0.0
H193 H 0.85807 0.02593 0.99001 0.0
H194 H 0.87353 0.06058 0.95499 0.0
H195 H 0.88688 0.05086 0.97537 0.0
H196 H 0.94009 0.01079 1.00195 0.0
H197 H 0.94374 0.02059 0.05419 0.0
H198 H 0.92178 0.01909 0.05756 0.0
H199 H 0.91806 1.00913 1.00549 0.0
C200 C 0.75412 0.1757 0.76396 0.0
C201 C 0.76546 0.18138 0.76671 0.0
C202 C 0.75601 0.20098 0.76783 0.0
C203 C 0.76638 0.19387 0.76865 0.0
C204 C 0.74467 0.19518 0.76551 0.0
C205 C 0.74376 0.18274 0.76358 0.0
U206 U 0.75853 0.14126 0.77165 0.0
O207 O 0.74535 0.1265 0.76741 0.0
O208 O 0.76225 0.12755 0.7528 0.0
C209 C 0.75172 0.12199 0.75517 0.0
C210 C 0.75285 0.16275 0.76001 0.0
C211 C 0.74505 0.11813 0.73983 0.0
C212 C 0.72715 0.11788 0.72173 0.0
C213 C 0.73368 0.12264 0.73536 0.0
C214 C 0.74333 0.10424 0.71659 0.0
C215 C 0.73182 0.10851 0.71224 0.0
C216 C 0.74983 0.10898 0.73018 0.0
C217 C 0.77615 0.12982 0.81158 0.0
C218 C 0.78905 0.11274 0.81729 0.0
C219 C 0.78029 0.12316 0.84057 0.0
C220 C 0.77461 0.13094 0.82908 0.0
C221 C 0.78772 0.11401 0.83488 0.0
C222 C 0.78334 0.12054 0.80577 0.0
C223 C 0.77094 0.13902 0.79997 0.0
O224 O 0.76267 0.15722 0.75547 0.0
O225 O 0.74568 0.15609 0.76988 0.0
O226 O 0.75906 0.13957 0.79952 0.0
O227 O 0.77601 0.14064 0.78501 0.0
H228 H 0.77364 0.17624 0.76699 0.0
H229 H 0.77528 0.19798 0.77028 0.0
H230 H 0.73645 0.20026 0.76511 0.0
H231 H 0.73492 0.17863 0.76142 0.0
H232 H 0.71841 0.12154 0.71866 0.0
H233 H 0.72975 0.1297 0.74255 0.0
H234 H 0.74719 0.09694 0.70982 0.0
H235 H 0.75851 0.10526 0.73345 0.0
H236 H 0.79456 0.10572 0.81239 0.0
H237 H 0.77916 0.12458 0.85395 0.0
H238 H 0.76922 0.13808 0.83391 0.0
H239 H 0.7847 0.11943 0.79236 0.0
C240 C 0.60033 0.0123 0.51454 0.0
C241 C 0.59447 1.00817 0.52947 0.0
C242 C 0.57485 0.01452 0.5185 0.0
C243 C 0.58189 1.00927 0.53142 0.0
C244 C 0.5808 0.01884 0.50373 0.0
C245 C 0.59334 0.01771 0.50177 0.0
U246 U 0.63517 0.01596 0.52252 0.0
O247 O 0.64925 1.00232 0.52099 0.0
O248 O 0.64987 0.018 0.50371 0.0
C249 C 0.65455 1.0076 0.50779 0.0
C250 C 0.61339 0.01012 0.51126 0.0
C251 C 0.6582 0.99977 0.49376 0.0
C252 C 0.66108 0.99613 0.46369 0.0
C253 C 0.65631 1.00298 0.47665 0.0
C254 C 0.66952 0.98256 0.48459 0.0
C255 C 0.66793 0.98591 0.46746 0.0
C256 C 0.66476 0.98941 0.49751 0.0
C257 C 0.64596 0.03646 0.55958 0.0
C258 C 0.6649 0.03747 0.57545 0.0
C259 C 0.65006 0.05282 0.57874 0.0
C260 C 0.64253 0.04712 0.56705 0.0
C261 C 0.6613 0.04802 0.58331 0.0
C262 C 0.65728 0.03172 0.56375 0.0
C263 C 0.63715 0.03029 0.54841 0.0
O264 O 0.61995 0.01921 0.50507 0.0
O265 O 0.61926 1.00362 0.5225 0.0
O266 O 0.63607 0.01855 0.54999 0.0
O267 O 0.63658 0.03421 0.53263 0.0
H268 H 0.59953 1.0039 0.53956 0.0
H269 H 0.57768 1.00596 0.54305 0.0
H270 H 0.57572 0.02277 0.49339 0.0
H271 H 0.59754 0.02082 0.49002 0.0
H272 H 0.65974 0.99909 0.45071 0.0
H273 H 0.6514 0.01096 0.47324 0.0
H274 H 0.67453 0.97466 0.48806 0.0
H275 H 0.66646 0.98674 0.51054 0.0
H276 H 0.67345 0.03348 0.57871 0.0
H277 H 0.64706 0.06102 0.58423 0.0
H278 H 0.63385 0.05096 0.56403 0.0
H279 H 0.66014 0.02348 0.55819 0.0
C280 C 0.75212 0.85615 0.28391 0.0
C281 C 0.76356 0.85087 0.28336 0.0
C282 C 0.75412 0.83105 0.27926 0.0
C283 C 0.76454 0.83849 0.28104 0.0
C284 C 0.74273 0.83644 0.2794 0.0
C285 C 0.74175 0.84879 0.28174 0.0
U286 U 0.75722 0.89071 0.27721 0.0
O287 O 0.74428 0.90515 0.28072 0.0
O288 O 0.76064 0.90443 0.29637 0.0
C289 C 0.75032 0.90973 0.29345 0.0
C290 C 0.75066 0.86897 0.28812 0.0
C291 C 0.74328 0.91338 0.30847 0.0
C292 C 0.72424 0.9152 0.32387 0.0
C293 C 0.73087 0.9105 0.3105 0.0
C294 C 0.74232 0.92555 0.33361 0.0
C295 C 0.72984 0.92291 0.33553 0.0
C296 C 0.74891 0.92087 0.32027 0.0
C297 C 0.77728 0.90226 0.23883 0.0
C298 C 0.77756 0.92042 0.22091 0.0
C299 C 0.7948 0.90748 0.22108 0.0
C300 C 0.78894 0.89983 0.23297 0.0
C301 C 0.78913 0.91779 0.21464 0.0
C302 C 0.77167 0.91271 0.23284 0.0
C303 C 0.77099 0.89318 0.25002 0.0
O304 O 0.76025 0.87487 0.29369 0.0
O305 O 0.74403 0.87547 0.27777 0.0
O306 O 0.75909 0.89261 0.24954 0.0
O307 O 0.77536 0.89166 0.26535 0.0
H308 H 0.77175 0.85625 0.28508 0.0
H309 H 0.77347 0.83471 0.28118 0.0
H310 H 0.7345 0.83111 0.27777 0.0
H311 H 0.73282 0.85257 0.28218 0.0
H312 H 0.7147 0.91282 0.32502 0.0
H313 H 0.72621 0.90478 0.30162 0.0
H314 H 0.74695 0.93158 0.34211 0.0
H315 H 0.75842 0.92339 0.31892 0.0
H316 H 0.77288 0.92823 0.2162 0.0
H317 H 0.80378 0.90526 0.21684 0.0
H318 H 0.79347 0.89183 0.23736 0.0
H319 H 0.76266 0.9148 0.23708 0.0
C320 C 0.60018 0.51227 0.53247 0.0
C321 C 0.59446 0.50854 0.51754 0.0
C322 C 0.57473 0.51455 0.52813 0.0
C323 C 0.5819 0.50967 0.5154 0.0
C324 C 0.58054 0.5185 0.54288 0.0
C325 C 0.59306 0.51734 0.54502 0.0
U326 U 0.63508 0.51568 0.52444 0.0
O327 O 0.64969 0.5176 0.54319 0.0
O328 O 0.64906 0.50194 0.527 0.0
C329 C 0.6544 0.50723 0.53974 0.0
C330 C 0.61319 0.51001 0.53599 0.0
C331 C 0.65817 0.49942 0.55423 0.0
C332 C 0.65938 0.49467 0.5845 0.0
C333 C 0.65461 0.50146 0.57098 0.0
C334 C 0.67116 0.48352 0.5648 0.0
C335 C 0.66783 0.48567 0.58162 0.0
C336 C 0.66641 0.49031 0.55134 0.0
C337 C 0.64692 0.53589 0.48638 0.0
C338 C 0.66388 0.53517 0.4666 0.0
C339 C 0.65399 0.55393 0.47089 0.0
C340 C 0.6461 0.5482 0.48259 0.0
C341 C 0.66292 0.5475 0.46257 0.0
C342 C 0.65597 0.52943 0.47836 0.0
C343 C 0.63757 0.52998 0.49754 0.0
O344 O 0.61907 0.50346 0.52527 0.0
O345 O 0.61978 0.51907 0.54154 0.0
O346 O 0.63673 0.53392 0.51301 0.0
O347 O 0.6361 0.51827 0.49678 0.0
H348 H 0.59963 0.50454 0.5076 0.0
H349 H 0.57781 0.50666 0.50378 0.0
H350 H 0.57535 0.52215 0.55308 0.0
H351 H 0.59715 0.52015 0.55676 0.0
H352 H 0.65647 0.49649 0.59722 0.0
H353 H 0.64829 0.50843 0.57368 0.0
H354 H 0.67775 0.47683 0.56202 0.0
H355 H 0.66944 0.48864 0.53861 0.0
H356 H 0.67072 0.52993 0.46063 0.0
H357 H 0.65281 0.56337 0.46799 0.0
H358 H 0.63913 0.55337 0.48841 0.0
H359 H 0.65684 0.51992 0.48097 0.0
C360 C 0.76621 0.35621 0.78132 0.0
C361 C 0.75485 0.35057 0.7786 0.0
C362 C 0.76424 0.33094 0.77758 0.0
C363 C 0.75389 0.33808 0.77672 0.0
C364 C 0.77559 0.3367 0.77988 0.0
C365 C 0.77654 0.34915 0.78175 0.0
U366 U 0.76074 0.39047 0.774 0.0
O367 O 0.75801 0.40419 0.79306 0.0
O368 O 0.77392 0.40555 0.77644 0.0
C369 C 0.76831 0.40991 0.7895 0.0
C370 C 0.76755 0.36918 0.78503 0.0
C371 C 0.776 0.41381 0.80392 0.0
C372 C 0.78026 0.41481 0.83416 0.0
C373 C 0.77359 0.40999 0.82071 0.0
C374 C 0.79204 0.42716 0.81433 0.0
C375 C 0.7895 0.42358 0.83118 0.0
C376 C 0.78536 0.42237 0.80092 0.0
C377 C 0.7402 0.40074 0.73615 0.0
C378 C 0.7386 0.42029 0.72185 0.0
C379 C 0.72425 0.40428 0.7155 0.0
C380 C 0.73001 0.39671 0.72716 0.0
C381 C 0.72853 0.41614 0.71248 0.0
C382 C 0.74441 0.41265 0.73354 0.0
C383 C 0.74649 0.39204 0.74734 0.0
O384 O 0.77393 0.37591 0.77422 0.0
O385 O 0.75797 0.37456 0.79076 0.0
O386 O 0.74239 0.39061 0.76288 0.0
O387 O 0.75838 0.39197 0.7464 0.0
H388 H 0.7467 0.35575 0.77826 0.0
H389 H 0.74498 0.33399 0.77509 0.0
H390 H 0.78379 0.3316 0.78029 0.0
H391 H 0.7854 0.35324 0.78385 0.0
H392 H 0.77813 0.41169 0.84691 0.0
H393 H 0.76643 0.40342 0.82351 0.0
H394 H 0.79894 0.43399 0.81147 0.0
H395 H 0.78734 0.4256 0.78816 0.0
H396 H 0.74219 0.42933 0.71983 0.0
H397 H 0.71641 0.40082 0.70882 0.0
H398 H 0.72659 0.38758 0.72898 0.0
H399 H 0.75228 0.41597 0.74031 0.0
C400 C 0.8582 0.50302 0.99226 0.0
C401 C 0.86521 0.49415 0.98502 0.0
C402 C 0.84859 0.48888 0.96584 0.0
C403 C 0.86046 0.48716 0.97191 0.0
C404 C 0.84175 0.49793 0.97302 0.0
C405 C 0.8465 0.50489 0.98603 0.0
U406 U 0.88253 0.51771 0.02174 0.0
O407 O 0.88237 0.53579 0.03246 0.0
O408 O 0.88152 0.51987 0.04931 0.0
C409 C 0.88114 0.53163 0.04807 0.0
C410 C 0.86253 0.51024 1.00663 0.0
C411 C 0.87235 0.53772 0.05898 0.0
C412 C 0.85462 0.53758 0.07751 0.0
C413 C 0.86203 0.53179 0.06596 0.0
C414 C 0.86755 0.55537 0.07501 0.0
C415 C 0.85739 0.5494 0.08241 0.0
C416 C 0.87491 0.5496 0.06349 0.0
C417 C 0.91715 0.51369 0.01377 0.0
C418 C 0.93536 0.51002 0.03047 0.0
C419 C 0.93712 0.52025 1.00324 0.0
C420 C 0.92452 0.51932 1.00126 0.0
C421 C 0.94277 0.51549 0.01779 0.0
C422 C 0.92273 0.50912 0.02849 0.0
C423 C 0.90397 0.51176 1.0104 0.0
O424 O 0.86755 0.50442 0.01937 0.0
O425 O 0.86811 0.5205 1.00284 0.0
O426 O 0.89805 0.52104 1.0045 0.0
O427 O 0.89761 0.50516 0.0214 0.0
H428 H 0.87427 0.49253 0.98962 0.0
H429 H 0.86598 0.48024 0.96679 0.0
H430 H 0.8327 0.49972 0.96852 0.0
H431 H 0.84094 0.51171 0.99137 0.0
H432 H 0.84693 0.53266 0.083 0.0
H433 H 0.85983 0.52261 0.06277 0.0
H434 H 0.86988 0.56452 0.07818 0.0
H435 H 0.88281 0.55438 0.05834 0.0
H436 H 0.93934 0.50637 0.04193 0.0
H437 H 0.94247 0.52436 0.99308 0.0
H438 H 0.92054 0.52277 0.98967 0.0
H439 H 0.91737 0.50466 0.03838 0.0
C440 C 0.76588 0.67673 0.26209 0.0
C441 C 0.75439 0.68192 0.26231 0.0
C442 C 0.7636 0.70183 0.2665 0.0
C443 C 0.75327 0.6943 0.26453 0.0
C444 C 0.77504 0.69654 0.26667 0.0
C445 C 0.77616 0.68419 0.26444 0.0
U446 U 0.76192 0.64207 0.26949 0.0
O447 O 0.75912 0.628 0.25071 0.0
O448 O 0.77552 0.62817 0.26629 0.0
C449 C 0.7697 0.6232 0.25367 0.0
C450 C 0.76754 0.66391 0.25802 0.0
C451 C 0.77708 0.6197 0.23886 0.0
C452 C 0.77892 0.61533 0.20885 0.0
C453 C 0.77244 0.62011 0.22229 0.0
C454 C 0.79491 0.6098 0.22812 0.0
C455 C 0.79019 0.60996 0.2116 0.0
C456 C 0.78844 0.61455 0.24154 0.0
C457 C 0.74354 0.62988 0.30911 0.0
C458 C 0.72874 0.61383 0.31604 0.0
C459 C 0.74088 0.62251 0.33822 0.0
C460 C 0.7467 0.63016 0.32629 0.0
C461 C 0.73166 0.61437 0.33335 0.0
C462 C 0.73457 0.62152 0.30407 0.0
C463 C 0.74883 0.63921 0.29728 0.0
O464 O 0.77458 0.65771 0.26817 0.0
O465 O 0.75799 0.65769 0.25297 0.0
O466 O 0.74411 0.64025 0.28207 0.0
O467 O 0.76069 0.64065 0.29731 0.0
H468 H 0.74627 0.67647 0.26042 0.0
H469 H 0.74431 0.69801 0.26416 0.0
H470 H 0.7832 0.70195 0.26845 0.0
H471 H 0.78513 0.6805 0.26424 0.0
H472 H 0.77504 0.61577 0.19629 0.0
H473 H 0.76368 0.62388 0.21971 0.0
H474 H 0.80344 0.60559 0.23086 0.0
H475 H 0.79218 0.61386 0.25416 0.0
H476 H 0.72163 0.60775 0.31179 0.0
H477 H 0.74356 0.62306 0.35135 0.0
H478 H 0.7535 0.63655 0.3306 0.0
H479 H 0.73183 0.62111 0.29096 0.0
C480 C 0.35957 0.50238 0.55443 0.0
C481 C 0.36275 0.49034 0.55705 0.0
C482 C 0.34992 0.48858 0.58231 0.0
C483 C 0.35799 0.48354 0.57081 0.0
C484 C 0.347 0.50071 0.57984 0.0
C485 C 0.35173 0.50748 0.56609 0.0
U486 U 0.38283 0.51744 0.52259 0.0
O487 O 0.38184 0.51858 0.49471 0.0
O488 O 0.38177 0.535 0.50937 0.0
C489 C 0.38081 0.5303 0.49434 0.0
C490 C 0.36331 0.50947 0.539 0.0
C491 C 0.37172 0.5354 0.48249 0.0
C492 C 0.35453 0.54812 0.47617 0.0
C493 C 0.36211 0.54239 0.48796 0.0
C494 C 0.36584 0.53976 0.45331 0.0
C495 C 0.35642 0.54706 0.45865 0.0
C496 C 0.37337 0.53404 0.46506 0.0
C497 C 0.41765 0.5146 0.53099 0.0
C498 C 0.43582 0.51135 0.51422 0.0
C499 C 0.43766 0.52061 0.5414 0.0
C500 C 0.42505 0.51975 0.54344 0.0
C501 C 0.44327 0.51629 0.52687 0.0
C502 C 0.42318 0.51051 0.51625 0.0
C503 C 0.40449 0.51256 0.53456 0.0
O504 O 0.36834 0.52011 0.5413 0.0
O505 O 0.36837 0.5037 0.52666 0.0
O506 O 0.39833 0.50544 0.52453 0.0
O507 O 0.39835 0.52189 0.5391 0.0
H508 H 0.36875 0.4861 0.54832 0.0
H509 H 0.36059 0.47429 0.57239 0.0
H510 H 0.34071 0.50489 0.58823 0.0
H511 H 0.34899 0.51668 0.5643 0.0
H512 H 0.34743 0.5537 0.4808 0.0
H513 H 0.36061 0.54365 0.50132 0.0
H514 H 0.36746 0.53851 0.43998 0.0
H515 H 0.38072 0.52875 0.46047 0.0
H516 H 0.43977 0.50807 0.50275 0.0
H517 H 0.44304 0.52431 0.55154 0.0
H518 H 0.42109 0.52282 0.55503 0.0
H519 H 0.41777 0.50645 0.50641 0.0
C520 C 0.25312 0.67505 0.26073 0.0
C521 C 0.25815 0.67966 0.27558 0.0
C522 C 0.25474 0.70022 0.2653 0.0
C523 C 0.25898 0.69213 0.27784 0.0
C524 C 0.24983 0.69547 0.25041 0.0
C525 C 0.24904 0.68307 0.24818 0.0
U526 U 0.25843 0.64107 0.27048 0.0
O527 O 0.24542 0.62591 0.26794 0.0
O528 O 0.26179 0.62691 0.25222 0.0
C529 C 0.25156 0.62108 0.25573 0.0
C530 C 0.25181 0.66201 0.25787 0.0
C531 C 0.24454 0.61648 0.24122 0.0
C532 C 0.22956 0.61856 0.21873 0.0
C533 C 0.23635 0.62353 0.23201 0.0
C534 C 0.23917 0.59955 0.22365 0.0
C535 C 0.2308 0.60644 0.21448 0.0
C536 C 0.24593 0.60451 0.23682 0.0
C537 C 0.27824 0.63098 0.30891 0.0
C538 C 0.27806 0.61277 0.32673 0.0
C539 C 0.29592 0.62577 0.32576 0.0
C540 C 0.29013 0.63347 0.31427 0.0
C541 C 0.28996 0.61534 0.33228 0.0
C542 C 0.27226 0.62049 0.31516 0.0
C543 C 0.27219 0.63987 0.29767 0.0
O544 O 0.26157 0.65656 0.25298 0.0
O545 O 0.24534 0.65564 0.26898 0.0
O546 O 0.26029 0.64011 0.2982 0.0
O547 O 0.27656 0.64131 0.28227 0.0
H548 H 0.26136 0.67364 0.28545 0.0
H549 H 0.26273 0.69542 0.28952 0.0
H550 H 0.2467 0.70135 0.24032 0.0
H551 H 0.24517 0.67973 0.23658 0.0
H552 H 0.22317 0.62414 0.21204 0.0
H553 H 0.23512 0.6328 0.2352 0.0
H554 H 0.24058 0.59029 0.22059 0.0
H555 H 0.25222 0.59891 0.24369 0.0
H556 H 0.27321 0.60476 0.33129 0.0
H557 H 0.30499 0.62819 0.32987 0.0
H558 H 0.29491 0.64154 0.30977 0.0
H559 H 0.26309 0.61831 0.31127 0.0
C560 C 0.09978 0.51297 0.01371 0.0
C561 C 0.09392 0.50862 0.02853 0.0
C562 C 0.07429 0.51506 0.0177 0.0
C563 C 0.08134 0.50966 0.03049 0.0
C564 C 0.08025 0.51962 1.00306 0.0
C565 C 0.0928 0.51856 1.0011 0.0
U566 U 0.13468 0.51561 0.02222 0.0
O567 O 0.14841 0.50183 0.01927 0.0
O568 O 0.14948 0.51832 1.00359 0.0
C569 C 0.15392 0.50767 1.00668 0.0
C570 C 0.11282 0.51082 1.01032 0.0
C571 C 0.15751 0.50066 0.99178 0.0
C572 C 0.15799 0.48203 0.97624 0.0
C573 C 0.15344 0.48875 0.98951 0.0
C574 C 0.17056 0.49903 0.96705 0.0
C575 C 0.16671 0.48704 0.96489 0.0
C576 C 0.16604 0.50572 0.98031 0.0
C577 C 0.1463 0.53357 0.0613 0.0
C578 C 0.164 0.54641 0.06713 0.0
C579 C 0.15212 0.53782 0.09032 0.0
C580 C 0.14441 0.53214 0.07879 0.0
C581 C 0.16197 0.54516 0.0847 0.0
C582 C 0.15626 0.54069 0.05556 0.0
C583 C 0.13711 0.52844 0.0496 0.0
O584 O 0.11954 0.52011 1.00517 0.0
O585 O 0.11853 0.50364 0.02088 0.0
O586 O 0.1355 0.51672 0.05004 0.0
O587 O 0.13655 0.53315 0.03422 0.0
H588 H 0.09899 0.50423 0.0385 0.0
H589 H 0.07712 0.50618 0.04203 0.0
H590 H 0.07518 0.52368 0.99282 0.0
H591 H 0.09701 0.52184 0.98944 0.0
H592 H 0.15468 0.47289 0.97489 0.0
H593 H 0.1469 0.48454 0.99813 0.0
H594 H 0.17737 0.50319 0.95879 0.0
H595 H 0.16946 0.51481 0.98185 0.0
H596 H 0.17156 0.55184 0.06228 0.0
H597 H 0.1501 0.53675 0.10367 0.0
H598 H 0.13673 0.52683 0.08357 0.0
H599 H 0.15796 0.54201 0.04215 0.0
C600 C 0.25347 0.35546 0.78636 0.0
C601 C 0.2533 0.35068 0.77009 0.0
C602 C 0.25561 0.33038 0.78199 0.0
C603 C 0.25438 0.33828 0.76792 0.0
C604 C 0.25608 0.33529 0.79819 0.0
C605 C 0.255 0.34764 0.80033 0.0
U606 U 0.25645 0.38998 0.77689 0.0
O607 O 0.24236 0.40356 0.77906 0.0
O608 O 0.25855 0.40453 0.79506 0.0
C609 C 0.24791 0.40899 0.79153 0.0
C610 C 0.25127 0.36831 0.7894 0.0
C611 C 0.24025 0.41274 0.80589 0.0
C612 C 0.23672 0.41527 0.83609 0.0
C613 C 0.24332 0.41031 0.82288 0.0
C614 C 0.22369 0.42491 0.81564 0.0
C615 C 0.22693 0.42282 0.83265 0.0
C616 C 0.23027 0.41997 0.80249 0.0
C617 C 0.27527 0.40201 0.73764 0.0
C618 C 0.29044 0.41769 0.73045 0.0
C619 C 0.27746 0.40975 0.70862 0.0
C620 C 0.27169 0.40209 0.7206 0.0
C621 C 0.28706 0.41753 0.71328 0.0
C622 C 0.28465 0.41 0.74247 0.0
C623 C 0.27002 0.39267 0.74953 0.0
O624 O 0.26058 0.37488 0.7944 0.0
O625 O 0.24434 0.37399 0.77852 0.0
O626 O 0.25821 0.39085 0.7491 0.0
O627 O 0.27445 0.392 0.76494 0.0
H628 H 0.2521 0.35649 0.75907 0.0
H629 H 0.2539 0.33486 0.75526 0.0
H630 H 0.25725 0.32958 0.80931 0.0
H631 H 0.25517 0.35108 0.81301 0.0
H632 H 0.23957 0.41351 0.84899 0.0
H633 H 0.25102 0.40485 0.826 0.0
H634 H 0.2161 0.43049 0.81244 0.0
H635 H 0.22772 0.42207 0.78955 0.0
H636 H 0.29785 0.42345 0.73454 0.0
H637 H 0.27444 0.40949 0.69562 0.0
H638 H 0.26458 0.39598 0.71642 0.0
H639 H 0.28775 0.41012 0.75544 0.0
H640 H 0.15472 0.06272 0.93726 0.0
H641 H 0.16694 0.07299 0.91535 0.0
H642 H 0.1988 0.05553 0.93409 0.0
H643 H 0.18664 0.04544 0.95646 0.0
H644 H 0.20373 0.07894 0.92681 0.0
H645 H 0.18482 0.0464 0.89785 0.0
H646 H 0.16785 0.03338 0.88854 0.0
H647 H 0.1516 0.0635 0.86345 0.0
H648 H 0.1684 0.07674 0.87281 0.0
H649 H 0.2399 0.09687 0.85521 0.0
H650 H 0.22895 0.08492 0.87693 0.0
H651 H 0.1953 0.09997 0.86021 0.0
H652 H 0.20617 0.11193 0.83848 0.0
H653 H 0.19206 0.07674 0.86643 0.0
H654 H 0.2104 0.10942 0.8965 0.0
H655 H 0.22726 0.12253 0.90593 0.0
H656 H 0.2445 0.0922 0.92901 0.0
H657 H 0.2278 0.07888 0.91951 0.0
C658 C 0.16434 0.06112 0.93688 0.0
C659 C 0.16966 0.05323 0.94875 0.0
C660 C 0.17132 0.06692 0.92417 0.0
C661 C 0.1838 0.06496 0.92286 0.0
C662 C 0.18919 0.05718 0.93475 0.0
C663 C 0.18219 0.05134 0.94748 0.0
C664 C 0.19118 0.07113 0.90916 0.0
C665 C 0.20128 0.07829 0.91359 0.0
C666 C 0.18791 0.07052 0.89188 0.0
C667 C 0.17782 0.06258 0.88616 0.0
C668 C 0.17759 0.05026 0.89045 0.0
C669 C 0.16801 0.04284 0.88515 0.0
C670 C 0.15864 0.04762 0.87544 0.0
C671 C 0.15886 0.05982 0.87098 0.0
C672 C 0.16841 0.06728 0.87627 0.0
C673 C 0.23017 0.0977 0.85618 0.0
C674 C 0.22396 0.10543 0.84504 0.0
C675 C 0.2239 0.09084 0.86865 0.0
C676 C 0.21127 0.09162 0.87044 0.0
C677 C 0.20503 0.09916 0.85914 0.0
C678 C 0.21128 0.10598 0.84663 0.0
C679 C 0.20453 0.08467 0.88409 0.0
C680 C 0.19455 0.07734 0.87965 0.0
C681 C 0.20791 0.08514 0.90135 0.0
C682 C 0.21792 0.09314 0.90714 0.0
C683 C 0.21783 0.10554 0.90347 0.0
C684 C 0.22735 0.11301 0.90885 0.0
C685 C 0.23696 0.1082 0.91802 0.0
C686 C 0.23706 0.09591 0.92188 0.0
C687 C 0.22756 0.08839 0.91652 0.0
H688 H 0.24432 0.11399 0.92217 0.0
H689 H 0.15123 0.04186 0.87135 0.0
H690 H 0.23924 0.93117 0.18772 0.0
H691 H 0.22854 0.94311 0.16646 0.0
H692 H 0.19435 0.9321 0.18908 0.0
H693 H 0.20498 0.91983 0.21009 0.0
H694 H 0.19294 0.93091 0.15553 0.0
H695 H 0.20673 0.96059 0.1942 0.0
H696 H 0.22161 0.97167 0.21146 0.0
H697 H 0.2415 0.98243 0.16669 0.0
H698 H 0.22682 0.97127 0.14917 0.0
H699 H 0.158 0.97356 0.10867 0.0
H700 H 0.16766 0.96172 0.13114 0.0
H701 H 0.20285 0.97246 0.11149 0.0
H702 H 0.19328 0.9843 0.08911 0.0
H703 H 0.20311 0.97395 0.14446 0.0
H704 H 0.18978 0.94378 0.10587 0.0
H705 H 0.175 0.93263 0.08852 0.0
H706 H 0.15438 0.92275 0.133 0.0
H707 H 0.16895 0.93398 0.15059 0.0
C708 C 0.22944 0.93123 0.18817 0.0
C709 C 0.22302 0.9245 0.20073 0.0
C710 C 0.22331 0.93818 0.17605 0.0
C711 C 0.21059 0.93866 0.17619 0.0
C712 C 0.20415 0.93195 0.18868 0.0
C713 C 0.21027 0.925 0.20082 0.0
C714 C 0.20403 0.94598 0.16315 0.0
C715 C 0.19505 0.94037 0.1533 0.0
C716 C 0.20689 0.95828 0.15989 0.0
C717 C 0.21574 0.965 0.17039 0.0
C718 C 0.21433 0.96524 0.18805 0.0
C719 C 0.22272 0.97155 0.19787 0.0
C720 C 0.23251 0.97773 0.19018 0.0
C721 C 0.23392 0.97763 0.17263 0.0
C722 C 0.22556 0.97132 0.16275 0.0
C723 C 0.1678 0.97332 0.10903 0.0
C724 C 0.17483 0.97995 0.09703 0.0
C725 C 0.17333 0.96653 0.12193 0.0
C726 C 0.18604 0.96607 0.12303 0.0
C727 C 0.19305 0.97267 0.11105 0.0
C728 C 0.18754 0.97949 0.09823 0.0
C729 C 0.19209 0.95886 0.13671 0.0
C730 C 0.20097 0.9645 0.14671 0.0
C731 C 0.18915 0.94658 0.14007 0.0
C732 C 0.18038 0.93983 0.12952 0.0
C733 C 0.18204 0.93931 0.11193 0.0
C734 C 0.17371 0.93296 0.10206 0.0
C735 C 0.16374 0.92702 0.10965 0.0
C736 C 0.16209 0.92738 0.12713 0.0
C737 C 0.17039 0.93373 0.13706 0.0
H738 H 0.1573 0.9221 0.10198 0.0
H739 H 0.23899 0.98261 0.19781 0.0
H740 H 0.31314 0.92246 0.34037 0.0
H741 H 0.3239 0.93316 0.36266 0.0
H742 H 0.29003 0.94639 0.38069 0.0
H743 H 0.27926 0.93602 0.35817 0.0
H744 H 0.30668 0.96405 0.37917 0.0
H745 H 0.30522 0.92365 0.40183 0.0
H746 H 0.3085 0.90187 0.40178 0.0
H747 H 0.34682 0.90839 0.39623 0.0
H748 H 0.34375 0.93021 0.39603 0.0
H749 H 0.32527 0.98606 0.45814 0.0
H750 H 0.31573 0.97451 0.43579 0.0
H751 H 0.3507 0.96236 0.42034 0.0
H752 H 0.36036 0.97396 0.44276 0.0
H753 H 0.33434 0.94421 0.41986 0.0
H754 H 0.33601 0.98446 0.39767 0.0
H755 H 0.33292 1.00627 0.39764 0.0
H756 H 0.29447 1.00009 0.40187 0.0
H757 H 0.29734 0.97824 0.40217 0.0
C758 C 0.30797 0.92767 0.34904 0.0
C759 C 0.29528 0.92831 0.34741 0.0
C760 C 0.31414 0.93372 0.36192 0.0
C761 C 0.3078 0.94054 0.37355 0.0
C762 C 0.29516 0.94118 0.37196 0.0
C763 C 0.28898 0.93513 0.35912 0.0
C764 C 0.31432 0.94727 0.38708 0.0
C765 C 0.3126 0.95966 0.38819 0.0
C766 C 0.32237 0.94168 0.39861 0.0
C767 C 0.32424 0.92856 0.39873 0.0
C768 C 0.31433 0.92044 0.40045 0.0
C769 C 0.31615 0.90809 0.4005 0.0
C770 C 0.32785 0.90375 0.39895 0.0
C771 C 0.33776 0.91176 0.3974 0.0
C772 C 0.33598 0.92412 0.39733 0.0
C773 C 0.33099 0.98104 0.44991 0.0
C774 C 0.34365 0.9811 0.45221 0.0
C775 C 0.32549 0.9744 0.4371 0.0
C776 C 0.33248 0.96768 0.4261 0.0
C777 C 0.34509 0.96748 0.42859 0.0
C778 C 0.35061 0.97411 0.44147 0.0
C779 C 0.32658 0.96096 0.41204 0.0
C780 C 0.32844 0.9486 0.41081 0.0
C781 C 0.31867 0.96657 0.40034 0.0
C782 C 0.3169 0.97971 0.4001 0.0
C783 C 0.3269 0.98775 0.39872 0.0
C784 C 0.32519 1.00012 0.39864 0.0
C785 C 0.3135 1.00456 0.39979 0.0
C786 C 0.30351 0.99664 0.40099 0.0
C787 C 0.30518 0.98426 0.40111 0.0
H788 H 0.3122 0.01414 0.39972 0.0
H789 H 0.32925 0.89418 0.399 0.0
H790 H 0.31182 0.10203 0.71169 0.0
H791 H 0.32317 0.09205 0.68985 0.0
H792 H 0.29241 0.09401 0.65648 0.0
H793 H 0.281 0.10407 0.67825 0.0
H794 H 0.30165 0.07229 0.65566 0.0
H795 H 0.31799 0.11238 0.65063 0.0
H796 H 0.32747 0.13117 0.66055 0.0
H797 H 0.3588 0.11204 0.67684 0.0
H798 H 0.34944 0.0931 0.66723 0.0
H799 H 0.33338 0.05453 0.58198 0.0
H800 H 0.32173 0.06571 0.60235 0.0
H801 H 0.35169 0.06464 0.6372 0.0
H802 H 0.36353 0.05386 0.61672 0.0
H803 H 0.34253 0.08631 0.63653 0.0
H804 H 0.32595 0.04617 0.64226 0.0
H805 H 0.31645 0.02736 0.63246 0.0
H806 H 0.28555 0.04662 0.61486 0.0
H807 H 0.29494 0.06558 0.62436 0.0
C808 C 0.3075 0.10053 0.69963 0.0
C809 C 0.29545 0.10393 0.69681 0.0
C810 C 0.31402 0.09477 0.68711 0.0
C811 C 0.30873 0.09232 0.67137 0.0
C812 C 0.29672 0.09573 0.6685 0.0
C813 C 0.29019 0.10148 0.68101 0.0
C814 C 0.3156 0.08598 0.65808 0.0
C815 C 0.31051 0.07548 0.6513 0.0
C816 C 0.3273 0.08993 0.65257 0.0
C817 C 0.33296 0.1013 0.65835 0.0
C818 C 0.32686 0.11216 0.65645 0.0
C819 C 0.33222 0.12284 0.662 0.0
C820 C 0.34371 0.12279 0.66936 0.0
C821 C 0.34989 0.11206 0.67116 0.0
C822 C 0.34457 0.10136 0.66565 0.0
C823 C 0.33755 0.05673 0.59392 0.0
C824 C 0.34942 0.05318 0.59766 0.0
C825 C 0.33081 0.06305 0.60566 0.0
C826 C 0.33574 0.06594 0.62148 0.0
C827 C 0.34762 0.06251 0.62516 0.0
C828 C 0.35436 0.05621 0.61345 0.0
C829 C 0.3286 0.07258 0.63418 0.0
C830 C 0.33365 0.08315 0.64085 0.0
C831 C 0.31686 0.0687 0.63959 0.0
C832 C 0.31121 0.05731 0.63386 0.0
C833 C 0.31717 0.04641 0.63617 0.0
C834 C 0.3118 0.03571 0.6307 0.0
C835 C 0.30042 0.0358 0.623 0.0
C836 C 0.29437 0.04657 0.6208 0.0
C837 C 0.29971 0.05729 0.62624 0.0
H838 H 0.29627 0.02751 0.61877 0.0
H839 H 0.34785 0.13107 0.67364 0.0
H840 H 0.80197 0.91056 0.18719 0.0
H841 H 0.8123 0.92294 0.16549 0.0
H842 H 0.80039 0.95487 0.18939 0.0
H843 H 0.78995 0.94248 0.21123 0.0
H844 H 0.79818 0.95732 0.156 0.0
H845 H 0.82999 0.94531 0.19319 0.0
H846 H 0.8422 0.93111 0.20987 0.0
H847 H 0.85211 0.91342 0.16453 0.0
H848 H 0.83981 0.92742 0.14759 0.0
H849 H 0.83807 0.99682 0.10877 0.0
H850 H 0.82808 0.98544 0.13191 0.0
H851 H 0.83813 0.95236 0.10938 0.0
H852 H 0.84845 0.96368 0.08645 0.0
H853 H 0.84151 0.95116 0.14295 0.0
H854 H 0.80916 0.96297 0.10597 0.0
H855 H 0.79694 0.97726 0.08944 0.0
H856 H 0.78819 0.99556 0.13476 0.0
H857 H 0.8005 0.98146 0.15154 0.0
C858 C 0.80162 0.92022 0.18798 0.0
C859 C 0.79521 0.92549 0.20115 0.0
C860 C 0.80755 0.92731 0.1755 0.0
C861 C 0.80735 0.93989 0.17588 0.0
C862 C 0.80074 0.9452 0.18879 0.0
C863 C 0.79474 0.93809 0.20128 0.0
C864 C 0.81403 0.94743 0.16279 0.0
C865 C 0.80771 0.95609 0.15336 0.0
C866 C 0.82642 0.94574 0.159 0.0
C867 C 0.83389 0.93736 0.16914 0.0
C868 C 0.8347 0.93834 0.18679 0.0
C869 C 0.84165 0.93034 0.19629 0.0
C870 C 0.8479 0.92135 0.18827 0.0
C871 C 0.84725 0.92038 0.17073 0.0
C872 C 0.8403 0.92835 0.16117 0.0
C873 C 0.8383 0.98712 0.10881 0.0
C874 C 0.84407 0.9812 0.09563 0.0
C875 C 0.83245 0.98061 0.122 0.0
C876 C 0.83217 0.968 0.12234 0.0
C877 C 0.83814 0.96206 0.10941 0.0
C878 C 0.84397 0.96857 0.0962 0.0
C879 C 0.82564 0.96098 0.1361 0.0
C880 C 0.832 0.95242 0.14565 0.0
C881 C 0.8133 0.96279 0.14003 0.0
C882 C 0.80585 0.97124 0.12998 0.0
C883 C 0.80471 0.9701 0.11239 0.0
C884 C 0.79775 0.97815 0.10298 0.0
C885 C 0.79182 0.98733 0.11104 0.0
C886 C 0.79281 0.98845 0.12853 0.0
C887 C 0.79976 0.98043 0.138 0.0
H888 H 0.78644 0.99356 0.10373 0.0
H889 H 0.85327 0.91516 0.19565 0.0
H890 H 0.83377 0.05421 0.96252 0.0
H891 H 0.82128 0.06443 0.9413 0.0
H892 H 0.85173 0.0666 0.90707 0.0
H893 H 0.86421 0.05646 0.92816 0.0
H894 H 0.84123 0.08738 0.90719 0.0
H895 H 0.82701 0.04655 0.90206 0.0
H896 H 0.81843 0.02703 0.91218 0.0
H897 H 0.78622 0.04413 0.92855 0.0
H898 H 0.79467 0.06378 0.91872 0.0
H899 H 0.81091 0.10568 0.83254 0.0
H900 H 0.82205 0.09382 0.85342 0.0
H901 H 0.79104 0.09308 0.88663 0.0
H902 H 0.77967 0.10457 0.86554 0.0
H903 H 0.80138 0.07171 0.88751 0.0
H904 H 0.81549 0.11243 0.89271 0.0
H905 H 0.82397 0.13201 0.88271 0.0
H906 H 0.85638 0.11517 0.86654 0.0
H907 H 0.84802 0.09545 0.87623 0.0
C908 C 0.83777 0.05674 0.9504 0.0
C909 C 0.85005 0.05454 0.94715 0.0
C910 C 0.83061 0.0626 0.93824 0.0
C911 C 0.8355 0.06627 0.92244 0.0
C912 C 0.84771 0.06395 0.91913 0.0
C913 C 0.85487 0.05816 0.93128 0.0
C914 C 0.82809 0.07282 0.90949 0.0
C915 C 0.8326 0.08384 0.90275 0.0
C916 C 0.81663 0.06846 0.90392 0.0
C917 C 0.81153 0.05665 0.90981 0.0
C918 C 0.81814 0.04616 0.90794 0.0
C919 C 0.81329 0.03507 0.9136 0.0
C920 C 0.8018 0.03434 0.92105 0.0
C921 C 0.79512 0.0447 0.9228 0.0
C922 C 0.79993 0.05582 0.91718 0.0
C923 C 0.80636 0.10285 0.84416 0.0
C924 C 0.79436 0.10619 0.8473 0.0
C925 C 0.81281 0.09616 0.85621 0.0
C926 C 0.8075 0.09269 0.87181 0.0
C927 C 0.79541 0.09569 0.87479 0.0
C928 C 0.78894 0.10237 0.86273 0.0
C929 C 0.81461 0.08618 0.88512 0.0
C930 C 0.81003 0.07522 0.89196 0.0
C931 C 0.82601 0.09059 0.89082 0.0
C932 C 0.83108 0.10245 0.88504 0.0
C933 C 0.82439 0.11289 0.8869 0.0
C934 C 0.82918 0.12402 0.88131 0.0
C935 C 0.84069 0.12483 0.87396 0.0
C936 C 0.84745 0.11452 0.87222 0.0
C937 C 0.8427 0.10337 0.87777 0.0
H938 H 0.84439 0.13346 0.86964 0.0
H939 H 0.79807 0.02575 0.92542 0.0
H940 H 0.68609 0.05184 0.58355 0.0
H941 H 0.69836 0.06215 0.60478 0.0
H942 H 0.6662 0.06784 0.63419 0.0
H943 H 0.65392 0.05768 0.613 0.0
H944 H 0.67926 0.08757 0.63329 0.0
H945 H 0.68783 0.04625 0.64524 0.0
H946 H 0.69441 0.0259 0.63888 0.0
H947 H 0.72958 0.04003 0.62448 0.0
H948 H 0.72316 0.06049 0.63054 0.0
H949 H 0.70726 0.10363 0.71095 0.0
H950 H 0.69574 0.09377 0.68866 0.0
H951 H 0.72848 0.09054 0.65959 0.0
H952 H 0.74006 0.1005 0.68175 0.0
H953 H 0.71561 0.06987 0.65971 0.0
H954 H 0.70693 0.11125 0.64868 0.0
H955 H 0.70018 0.13144 0.65557 0.0
H956 H 0.66493 0.11694 0.66884 0.0
H957 H 0.67152 0.09662 0.66225 0.0
C958 C 0.68164 0.05518 0.59462 0.0
C959 C 0.66898 0.05394 0.59647 0.0
C960 C 0.68868 0.06109 0.60679 0.0
C961 C 0.68327 0.06575 0.62126 0.0
C962 C 0.67064 0.06443 0.62316 0.0
C963 C 0.66361 0.05861 0.61097 0.0
C964 C 0.69063 0.07217 0.63431 0.0
C965 C 0.68712 0.0836 0.6392 0.0
C966 C 0.70109 0.06721 0.64184 0.0
C967 C 0.70497 0.05492 0.63817 0.0
C968 C 0.69694 0.04503 0.64059 0.0
C969 C 0.70064 0.03347 0.63706 0.0
C970 C 0.71239 0.03168 0.63123 0.0
C971 C 0.72047 0.04144 0.62896 0.0
C972 C 0.71681 0.05301 0.63245 0.0
C973 C 0.71201 0.10101 0.69971 0.0
C974 C 0.72464 0.10293 0.69824 0.0
C975 C 0.70539 0.09531 0.68695 0.0
C976 C 0.71118 0.09145 0.67229 0.0
C977 C 0.72377 0.09337 0.67075 0.0
C978 C 0.7304 0.09907 0.68351 0.0
C979 C 0.70417 0.08521 0.65874 0.0
C980 C 0.70776 0.07383 0.65376 0.0
C981 C 0.69375 0.09019 0.65118 0.0
C982 C 0.68976 0.1024 0.65512 0.0
C983 C 0.69777 0.11235 0.6532 0.0
C984 C 0.69396 0.12382 0.65703 0.0
C985 C 0.68214 0.12547 0.66268 0.0
C986 C 0.67409 0.11565 0.66448 0.0
C987 C 0.67785 0.10416 0.66068 0.0
H988 H 0.67922 0.13436 0.66564 0.0
H989 H 0.71524 0.02272 0.62852 0.0
H990 H 0.70666 0.93149 0.33412 0.0
H991 H 0.69544 0.94137 0.35624 0.0
H992 H 0.72569 0.93739 0.39015 0.0
H993 H 0.73679 0.92712 0.36832 0.0
H994 H 0.70518 0.93277 0.40679 0.0
H995 H 0.71975 0.96445 0.36914 0.0
H996 H 0.72253 0.97508 0.34165 0.0
H997 H 0.684 0.97813 0.33671 0.0
H998 H 0.68098 0.96736 0.36408 0.0
H999 H 0.69037 0.97579 0.46746 0.0
H1000 H 0.69987 0.96457 0.44519 0.0
H1001 H 0.66843 0.96923 0.4137 0.0
H1002 H 0.65878 0.98043 0.43604 0.0
H1003 H 0.68865 0.9731 0.3955 0.0
H1004 H 0.67414 0.94206 0.43376 0.0
H1005 H 0.67143 0.93154 0.46134 0.0
H1006 H 0.70989 0.92736 0.46523 0.0
H1007 H 0.71284 0.938 0.43776 0.0
C1008 C 0.71089 0.93255 0.34635 0.0
C1009 C 0.72271 0.92851 0.34931 0.0
C1010 C 0.70449 0.93835 0.35897 0.0
C1011 C 0.70975 0.94035 0.37487 0.0
C1012 C 0.72141 0.93605 0.378 0.0
C1013 C 0.72781 0.93025 0.36541 0.0
C1014 C 0.70319 0.94699 0.38817 0.0
C1015 C 0.70169 0.94165 0.40435 0.0
C1016 C 0.69834 0.95848 0.385 0.0
C1017 C 0.70013 0.96499 0.36857 0.0
C1018 C 0.71187 0.9673 0.36213 0.0
C1019 C 0.71349 0.97337 0.34658 0.0
C1020 C 0.70345 0.97725 0.33742 0.0
C1021 C 0.69177 0.9751 0.34381 0.0
C1022 C 0.69009 0.96903 0.35934 0.0
C1023 C 0.68536 0.97431 0.45591 0.0
C1024 C 0.67371 0.97898 0.45371 0.0
C1025 C 0.69085 0.96789 0.44312 0.0
C1026 C 0.68484 0.96586 0.42776 0.0
C1027 C 0.67328 0.97063 0.4254 0.0
C1028 C 0.66777 0.97708 0.43821 0.0
C1029 C 0.69071 0.95892 0.41415 0.0
C1030 C 0.69208 0.9642 0.39793 0.0
C1031 C 0.69546 0.94738 0.41728 0.0
C1032 C 0.69371 0.94093 0.43377 0.0
C1033 C 0.68202 0.93898 0.44055 0.0
C1034 C 0.68045 0.93298 0.45616 0.0
C1035 C 0.69049 0.92881 0.46505 0.0
C1036 C 0.70212 0.9306 0.45834 0.0
C1037 C 0.70375 0.93661 0.44274 0.0
H1038 H 0.68925 0.92417 0.47714 0.0
H1039 H 0.70473 0.98194 0.32538 0.0
H1040 H 0.72404 0.62089 0.36474 0.0
H1041 H 0.71316 0.60872 0.38615 0.0
H1042 H 0.71272 0.57861 0.35308 0.0
H1043 H 0.72367 0.59078 0.33151 0.0
H1044 H 0.69115 0.58042 0.36797 0.0
H1045 H 0.73215 0.58006 0.38736 0.0
H1046 H 0.75196 0.58885 0.39543 0.0
H1047 H 0.73502 0.60808 0.43496 0.0
H1048 H 0.71506 0.59954 0.42698 0.0
H1049 H 0.67078 0.5387 0.43234 0.0
H1050 H 0.68307 0.54904 0.41046 0.0
H1051 H 0.68515 0.58061 0.44069 0.0
H1052 H 0.67325 0.5702 0.46289 0.0
H1053 H 0.70654 0.57701 0.42673 0.0
H1054 H 0.66548 0.57807 0.40648 0.0
H1055 H 0.64562 0.56942 0.39829 0.0
H1056 H 0.66275 0.54885 0.36033 0.0
H1057 H 0.68274 0.55726 0.36845 0.0
C1058 C 0.72179 0.61164 0.36204 0.0
C1059 C 0.72489 0.60682 0.34638 0.0
C1060 C 0.71552 0.60467 0.37434 0.0
C1061 C 0.71226 0.59264 0.37143 0.0
C1062 C 0.71515 0.58784 0.35571 0.0
C1063 C 0.7214 0.59484 0.34334 0.0
C1064 C 0.70574 0.58518 0.38475 0.0
C1065 C 0.69463 0.57951 0.38075 0.0
C1066 C 0.7101 0.58414 0.40156 0.0
C1067 C 0.72209 0.58923 0.40647 0.0
C1068 C 0.73263 0.58623 0.3977 0.0
C1069 C 0.74389 0.59115 0.40227 0.0
C1070 C 0.74474 0.59904 0.41568 0.0
C1071 C 0.73434 0.60198 0.42457 0.0
C1072 C 0.72305 0.59709 0.42004 0.0
C1073 C 0.67398 0.54779 0.43448 0.0
C1074 C 0.67092 0.5536 0.44943 0.0
C1075 C 0.68092 0.55375 0.42182 0.0
C1076 C 0.68492 0.56571 0.42372 0.0
C1077 C 0.68214 0.57143 0.43881 0.0
C1078 C 0.67522 0.56547 0.45147 0.0
C1079 C 0.69189 0.57234 0.41 0.0
C1080 C 0.70309 0.57785 0.41393 0.0
C1081 C 0.68762 0.57323 0.39313 0.0
C1082 C 0.67561 0.5682 0.3882 0.0
C1083 C 0.66502 0.57163 0.39647 0.0
C1084 C 0.65374 0.56678 0.39183 0.0
C1085 C 0.65293 0.55856 0.37883 0.0
C1086 C 0.66339 0.5552 0.37041 0.0
C1087 C 0.6747 0.56001 0.37502 0.0
H1088 H 0.64419 0.55482 0.37525 0.0
H1089 H 0.75347 0.60284 0.4192 0.0
H1090 H 0.67513 0.49385 0.61266 0.0
H1091 H 0.68495 0.48269 0.63561 0.0
H1092 H 0.68352 0.45077 0.60605 0.0
H1093 H 0.67331 0.46174 0.58332 0.0
H1094 H 0.67778 0.44525 0.63787 0.0
H1095 H 0.70998 0.46825 0.61036 0.0
H1096 H 0.72033 0.48669 0.59935 0.0
H1097 H 0.72089 0.50102 0.64918 0.0
H1098 H 0.71039 0.48272 0.66046 0.0
H1099 H 0.72035 0.40984 0.68117 0.0
H1100 H 0.70992 0.42214 0.66014 0.0
H1101 H 0.71279 0.45249 0.69266 0.0
H1102 H 0.72334 0.44017 0.71385 0.0
H1103 H 0.71729 0.45948 0.66068 0.0
H1104 H 0.6858 0.43621 0.68843 0.0
H1105 H 0.67552 0.41776 0.69952 0.0
H1106 H 0.6735 0.40401 0.64939 0.0
H1107 H 0.68393 0.42232 0.63803 0.0
C1108 C 0.67675 0.48441 0.61109 0.0
C1109 C 0.67344 0.47876 0.596 0.0
C1110 C 0.68251 0.47806 0.6242 0.0
C1111 C 0.68519 0.46588 0.62255 0.0
C1112 C 0.68164 0.46015 0.60767 0.0
C1113 C 0.67588 0.46649 0.59458 0.0
C1114 C 0.6917 0.4591 0.63621 0.0
C1115 C 0.68648 0.44832 0.64269 0.0
C1116 C 0.70293 0.46319 0.64295 0.0
C1117 C 0.70929 0.47417 0.63621 0.0
C1118 C 0.71223 0.47537 0.61895 0.0
C1119 C 0.71813 0.48579 0.61266 0.0
C1120 C 0.72124 0.49504 0.62355 0.0
C1121 C 0.71847 0.49386 0.64076 0.0
C1122 C 0.71255 0.48347 0.6471 0.0
C1123 C 0.7187 0.41911 0.68396 0.0
C1124 C 0.72258 0.42394 0.69937 0.0
C1125 C 0.71271 0.42616 0.67187 0.0
C1126 C 0.71031 0.43823 0.67487 0.0
C1127 C 0.71447 0.4432 0.69002 0.0
C1128 C 0.72053 0.43614 0.70214 0.0
C1129 C 0.70342 0.44556 0.66218 0.0
C1130 C 0.70856 0.45645 0.6559 0.0
C1131 C 0.6921 0.44158 0.65563 0.0
C1132 C 0.68574 0.4306 0.6624 0.0
C1133 C 0.68324 0.42922 0.67979 0.0
C1134 C 0.67737 0.41879 0.68612 0.0
C1135 C 0.67388 0.40971 0.67517 0.0
C1136 C 0.67622 0.41105 0.65786 0.0
C1137 C 0.6821 0.42146 0.65146 0.0
H1138 H 0.66934 0.40164 0.6801 0.0
H1139 H 0.72581 0.5031 0.61866 0.0
H1140 H 0.8596 0.48065 0.93718 0.0
H1141 H 0.85047 0.46871 0.91473 0.0
H1142 H 0.81621 0.46812 0.94099 0.0
H1143 H 0.82534 0.47968 0.96367 0.0
H1144 H 0.82018 0.44663 0.92882 0.0
H1145 H 0.82213 0.4871 0.90634 0.0
H1146 H 0.83211 0.5064 0.89807 0.0
H1147 H 0.85513 0.48842 0.86364 0.0
H1148 H 0.84539 0.46898 0.87188 0.0
H1149 H 0.78052 0.43024 0.86191 0.0
H1150 H 0.79126 0.44026 0.88476 0.0
H1151 H 0.82441 0.44011 0.85591 0.0
H1152 H 0.81372 0.43004 0.833 0.0
H1153 H 0.82188 0.46142 0.86921 0.0
H1154 H 0.81934 0.42099 0.89082 0.0
H1155 H 0.80929 0.40172 0.89905 0.0
H1156 H 0.7874 0.41951 0.93507 0.0
H1157 H 0.7972 0.43893 0.9269 0.0
C1158 C 0.85016 0.47787 0.93829 0.0
C1159 C 0.84322 0.48126 0.95225 0.0
C1160 C 0.8449 0.47113 0.92533 0.0
C1161 C 0.83256 0.46762 0.92596 0.0
C1162 C 0.82571 0.47073 0.94008 0.0
C1163 C 0.83095 0.47747 0.95301 0.0
C1164 C 0.82672 0.4608 0.91194 0.0
C1165 C 0.82045 0.44994 0.91582 0.0
C1166 C 0.82727 0.4649 0.89484 0.0
C1167 C 0.83312 0.47657 0.88987 0.0
C1168 C 0.82939 0.48725 0.89711 0.0
C1169 C 0.83499 0.49822 0.8924 0.0
C1170 C 0.84427 0.49863 0.88037 0.0
C1171 C 0.84795 0.48808 0.87298 0.0
C1172 C 0.84239 0.47709 0.87766 0.0
C1173 C 0.79013 0.43215 0.86049 0.0
C1174 C 0.79621 0.42926 0.84553 0.0
C1175 C 0.79629 0.43793 0.87361 0.0
C1176 C 0.80872 0.44089 0.87223 0.0
C1177 C 0.81483 0.43798 0.85734 0.0
C1178 C 0.80867 0.43223 0.8442 0.0
C1179 C 0.81527 0.44727 0.88609 0.0
C1180 C 0.82166 0.45806 0.88219 0.0
C1181 C 0.81483 0.4431 0.90317 0.0
C1182 C 0.80893 0.43143 0.90813 0.0
C1183 C 0.81231 0.42081 0.9004 0.0
C1184 C 0.80668 0.40986 0.90507 0.0
C1185 C 0.79769 0.4094 0.91754 0.0
C1186 C 0.79435 0.41989 0.9254 0.0
C1187 C 0.79995 0.43087 0.92076 0.0
H1188 H 0.79334 0.40091 0.92115 0.0
H1189 H 0.84859 0.50713 0.87675 0.0
H1190 H 0.86549 0.56375 0.10793 0.0
H1191 H 0.85363 0.57383 0.12908 0.0
H1192 H 0.82073 0.55867 0.10837 0.0
H1193 H 0.83256 0.54877 0.08676 0.0
H1194 H 0.81798 0.58208 0.11547 0.0
H1195 H 0.83248 0.5475 0.14527 0.0
H1196 H 0.84773 0.53331 0.15555 0.0
H1197 H 0.86614 0.56157 0.1819 0.0
H1198 H 0.85108 0.57597 0.17158 0.0
H1199 H 0.7807 0.59658 0.18576 0.0
H1200 H 0.79156 0.58646 0.16354 0.0
H1201 H 0.82556 0.5998 0.18327 0.0
H1202 H 0.81477 0.61 0.20548 0.0
H1203 H 0.82719 0.57676 0.17649 0.0
H1204 H 0.81295 0.61143 0.14622 0.0
H1205 H 0.79776 0.62567 0.13585 0.0
H1206 H 0.77888 0.59728 0.1104 0.0
H1207 H 0.79387 0.58283 0.12081 0.0
C1208 C 0.85572 0.56262 0.10771 0.0
C1209 C 0.85002 0.55543 0.09552 0.0
C1210 C 0.84894 0.56832 0.11998 0.0
C1211 C 0.83625 0.56694 0.12052 0.0
C1212 C 0.83049 0.55986 0.1083 0.0
C1213 C 0.8373 0.55411 0.09601 0.0
C1214 C 0.82907 0.57295 0.1338 0.0
C1215 C 0.81987 0.58077 0.12883 0.0
C1216 C 0.83166 0.57149 0.15126 0.0
C1217 C 0.84071 0.56284 0.15752 0.0
C1218 C 0.83983 0.55071 0.15315 0.0
C1219 C 0.84843 0.54263 0.159 0.0
C1220 C 0.85791 0.54654 0.16934 0.0
C1221 C 0.8588 0.55855 0.17387 0.0
C1222 C 0.85023 0.56668 0.16804 0.0
C1223 C 0.79048 0.59754 0.18526 0.0
C1224 C 0.79681 0.60417 0.1975 0.0
C1225 C 0.7967 0.5917 0.17251 0.0
C1226 C 0.80943 0.5924 0.17155 0.0
C1227 C 0.81577 0.59905 0.1837 0.0
C1228 C 0.80955 0.60488 0.19646 0.0
C1229 C 0.81616 0.58599 0.15819 0.0
C1230 C 0.82527 0.57807 0.16315 0.0
C1231 C 0.81348 0.58737 0.14073 0.0
C1232 C 0.80446 0.59603 0.13444 0.0
C1233 C 0.8055 0.60821 0.13853 0.0
C1234 C 0.79694 0.61631 0.13262 0.0
C1235 C 0.78734 0.61237 0.12251 0.0
C1236 C 0.7863 0.60031 0.11825 0.0
C1237 C 0.79484 0.59217 0.12414 0.0
H1238 H 0.78073 0.61866 0.11795 0.0
H1239 H 0.86456 0.54026 0.17385 0.0
H1240 H 0.34518 0.49516 0.61494 0.0
H1241 H 0.33488 0.48337 0.63739 0.0
H1242 H 0.33153 0.45332 0.60439 0.0
H1243 H 0.34149 0.46518 0.58171 0.0
H1244 H 0.31068 0.45642 0.62035 0.0
H1245 H 0.35229 0.45405 0.63731 0.0
H1246 H 0.37262 0.46193 0.64475 0.0
H1247 H 0.35746 0.48094 0.68591 0.0
H1248 H 0.33701 0.4733 0.67857 0.0
H1249 H 0.2935 0.41143 0.68115 0.0
H1250 H 0.30425 0.42366 0.65968 0.0
H1251 H 0.30686 0.45297 0.69404 0.0
H1252 H 0.29602 0.44076 0.71566 0.0
H1253 H 0.32792 0.4507 0.67776 0.0
H1254 H 0.28639 0.453 0.66105 0.0
H1255 H 0.26603 0.44517 0.65371 0.0
H1256 H 0.28097 0.42645 0.61213 0.0
H1257 H 0.30146 0.43404 0.61936 0.0
C1258 C 0.34223 0.48606 0.6124 0.0
C1259 C 0.34422 0.48116 0.59642 0.0
C1260 C 0.33642 0.47926 0.62535 0.0
C1261 C 0.33249 0.46737 0.62273 0.0
C1262 C 0.33449 0.46245 0.60682 0.0
C1263 C 0.34031 0.46923 0.59387 0.0
C1264 C 0.32601 0.46016 0.63635 0.0
C1265 C 0.31455 0.45504 0.63282 0.0
C1266 C 0.33083 0.4586 0.65284 0.0
C1267 C 0.34311 0.46321 0.65728 0.0
C1268 C 0.35328 0.45999 0.64786 0.0
C1269 C 0.36483 0.4644 0.65208 0.0
C1270 C 0.36632 0.47195 0.66576 0.0
C1271 C 0.35628 0.4751 0.67529 0.0
C1272 C 0.34471 0.47073 0.67112 0.0
C1273 C 0.29621 0.42053 0.68414 0.0
C1274 C 0.29374 0.4251 0.70018 0.0
C1275 C 0.30241 0.42753 0.6718 0.0
C1276 C 0.30625 0.43935 0.67506 0.0
C1277 C 0.304 0.4439 0.69114 0.0
C1278 C 0.2978 0.43688 0.70353 0.0
C1279 C 0.31264 0.44689 0.66171 0.0
C1280 C 0.32406 0.45209 0.66529 0.0
C1281 C 0.30778 0.44855 0.64526 0.0
C1282 C 0.29547 0.444 0.64084 0.0
C1283 C 0.28535 0.44714 0.65041 0.0
C1284 C 0.27378 0.44276 0.64627 0.0
C1285 C 0.27221 0.43529 0.63249 0.0
C1286 C 0.2822 0.43222 0.62281 0.0
C1287 C 0.29379 0.43657 0.62692 0.0
H1288 H 0.26325 0.43191 0.6293 0.0
H1289 H 0.37527 0.47535 0.66901 0.0
H1290 H 0.28007 0.60362 0.36036 0.0
H1291 H 0.29036 0.59131 0.38167 0.0
H1292 H 0.32415 0.59699 0.3549 0.0
H1293 H 0.31385 0.60893 0.33325 0.0
H1294 H 0.32207 0.57434 0.3656 0.0
H1295 H 0.31703 0.61261 0.3911 0.0
H1296 H 0.30551 0.62978 0.40084 0.0
H1297 H 0.28451 0.6063 0.434 0.0
H1298 H 0.29581 0.58896 0.42429 0.0
H1299 H 0.36401 0.55847 0.42923 0.0
H1300 H 0.35194 0.56917 0.40823 0.0
H1301 H 0.31977 0.56187 0.43809 0.0
H1302 H 0.33185 0.5511 0.45925 0.0
H1303 H 0.31992 0.58447 0.42618 0.0
H1304 H 0.32555 0.5463 0.4017 0.0
H1305 H 0.33711 0.52913 0.39208 0.0
H1306 H 0.35687 0.55225 0.35701 0.0
H1307 H 0.34555 0.5696 0.36659 0.0
C1308 C 0.28966 0.60213 0.35885 0.0
C1309 C 0.29611 0.60738 0.34504 0.0
C1310 C 0.29558 0.59518 0.3712 0.0
C1311 C 0.30812 0.59333 0.37013 0.0
C1312 C 0.3145 0.5983 0.35614 0.0
C1313 C 0.3086 0.60524 0.3438 0.0
C1314 C 0.31464 0.58632 0.38356 0.0
C1315 C 0.32169 0.57665 0.37881 0.0
C1316 C 0.31394 0.58906 0.40093 0.0
C1317 C 0.30718 0.59948 0.40683 0.0
C1318 C 0.30989 0.6111 0.40038 0.0
C1319 C 0.30341 0.62086 0.40591 0.0
C1320 C 0.29426 0.61912 0.418 0.0
C1321 C 0.29159 0.60763 0.42462 0.0
C1322 C 0.29803 0.59783 0.41911 0.0
C1323 C 0.35434 0.55899 0.43129 0.0
C1324 C 0.34892 0.55376 0.44593 0.0
C1325 C 0.34742 0.56516 0.41923 0.0
C1326 C 0.33485 0.5662 0.42134 0.0
C1327 C 0.32943 0.5612 0.43608 0.0
C1328 C 0.33637 0.55504 0.44822 0.0
C1329 C 0.32746 0.57257 0.40819 0.0
C1330 C 0.32025 0.58211 0.41298 0.0
C1331 C 0.32799 0.5697 0.39085 0.0
C1332 C 0.33477 0.55927 0.38497 0.0
C1333 C 0.33242 0.54774 0.39202 0.0
C1334 C 0.33892 0.53797 0.38656 0.0
C1335 C 0.34774 0.5396 0.37397 0.0
C1336 C 0.35005 0.551 0.36678 0.0
C1337 C 0.34358 0.5608 0.3722 0.0
H1338 H 0.35276 0.53203 0.36977 0.0
H1339 H 0.28925 0.62669 0.42226 0.0
H1340 H 0.22459 0.61618 0.18334 0.0
H1341 H 0.21323 0.60651 0.1606 0.0
H1342 H 0.20885 0.57439 0.1917 0.0
H1343 H 0.22015 0.58395 0.21438 0.0
H1344 H 0.21535 0.56862 0.16101 0.0
H1345 H 0.18528 0.59424 0.18387 0.0
H1346 H 0.17693 0.61342 0.19256 0.0
H1347 H 0.18072 0.62756 0.14179 0.0
H1348 H 0.18924 0.6085 0.13284 0.0
H1349 H 0.16975 0.53716 0.11595 0.0
H1350 H 0.18152 0.54814 0.13686 0.0
H1351 H 0.18413 0.57883 0.1027 0.0
H1352 H 0.17191 0.56806 0.08193 0.0
H1353 H 0.17924 0.58601 0.13353 0.0
H1354 H 0.20856 0.56027 0.11034 0.0
H1355 H 0.21694 0.54114 0.10148 0.0
H1356 H 0.21478 0.52737 0.1526 0.0
H1357 H 0.20623 0.54636 0.16173 0.0
C1358 C 0.22109 0.6071 0.18542 0.0
C1359 C 0.22338 0.60086 0.20074 0.0
C1360 C 0.21458 0.60156 0.17237 0.0
C1361 C 0.21009 0.58969 0.17437 0.0
C1362 C 0.21226 0.58351 0.18972 0.0
C1363 C 0.21878 0.589 0.20271 0.0
C1364 C 0.20335 0.58354 0.16047 0.0
C1365 C 0.20736 0.57238 0.15517 0.0
C1366 C 0.19313 0.58853 0.15237 0.0
C1367 C 0.18802 0.59999 0.15773 0.0
C1368 C 0.18443 0.60147 0.17459 0.0
C1369 C 0.17965 0.61232 0.17956 0.0
C1370 C 0.17833 0.62172 0.16774 0.0
C1371 C 0.18176 0.62028 0.15093 0.0
C1372 C 0.18656 0.60946 0.14591 0.0
C1373 C 0.17275 0.54627 0.11286 0.0
C1374 C 0.16982 0.55167 0.09715 0.0
C1375 C 0.17962 0.55252 0.12481 0.0
C1376 C 0.18389 0.56432 0.12137 0.0
C1377 C 0.18101 0.56974 0.1057 0.0
C1378 C 0.1741 0.5635 0.09373 0.0
C1379 C 0.19115 0.57102 0.13425 0.0
C1380 C 0.18725 0.58227 0.13933 0.0
C1381 C 0.2015 0.56613 0.14214 0.0
C1382 C 0.20665 0.5547 0.13669 0.0
C1383 C 0.20978 0.55313 0.11967 0.0
C1384 C 0.21458 0.54232 0.11461 0.0
C1385 C 0.21637 0.53304 0.12646 0.0
C1386 C 0.21338 0.53456 0.14342 0.0
C1387 C 0.20857 0.54535 0.14856 0.0
H1388 H 0.22008 0.52467 0.12251 0.0
H1389 H 0.17462 0.6301 0.17161 0.0
H1390 H 0.17271 0.49424 0.93233 0.0
H1391 H 0.18236 0.48269 0.9105 0.0
H1392 H 0.18233 0.45167 0.94413 0.0
H1393 H 0.17304 0.46331 0.96628 0.0
H1394 H 0.2036 0.45406 0.9285 0.0
H1395 H 0.16226 0.45398 0.9105 0.0
H1396 H 0.14272 0.46277 0.90269 0.0
H1397 H 0.15996 0.48294 0.86202 0.0
H1398 H 0.17965 0.4744 0.86972 0.0
H1399 H 0.22031 0.4136 0.86414 0.0
H1400 H 0.20967 0.42365 0.88673 0.0
H1401 H 0.20814 0.4558 0.85546 0.0
H1402 H 0.21872 0.44584 0.8329 0.0
H1403 H 0.18706 0.45189 0.8704 0.0
H1404 H 0.22851 0.45257 0.88915 0.0
H1405 H 0.24807 0.44382 0.89699 0.0
H1406 H 0.23056 0.4225 0.93631 0.0
H1407 H 0.21086 0.43101 0.92854 0.0
C1408 C 0.17479 0.48498 0.93517 0.0
C1409 C 0.17205 0.47976 0.95117 0.0
C1410 C 0.18022 0.47832 0.92256 0.0
C1411 C 0.18299 0.46622 0.92551 0.0
C1412 C 0.18027 0.46096 0.94145 0.0
C1413 C 0.17483 0.46762 0.95408 0.0
C1414 C 0.18896 0.45915 0.91211 0.0
C1415 C 0.19986 0.45343 0.91588 0.0
C1416 C 0.18428 0.45848 0.89546 0.0
C1417 C 0.17245 0.46363 0.89079 0.0
C1418 C 0.16191 0.46036 0.89997 0.0
C1419 C 0.1508 0.46529 0.89555 0.0
C1420 C 0.1501 0.47343 0.88189 0.0
C1421 C 0.16051 0.47664 0.8726 0.0
C1422 C 0.17165 0.47175 0.87698 0.0
C1423 C 0.21779 0.42284 0.86209 0.0
C1424 C 0.22039 0.42886 0.84659 0.0
C1425 C 0.21169 0.4286 0.87506 0.0
C1426 C 0.20815 0.44057 0.87295 0.0
C1427 C 0.21069 0.44656 0.85746 0.0
C1428 C 0.21673 0.44081 0.8445 0.0
C1429 C 0.20177 0.4469 0.88675 0.0
C1430 C 0.19077 0.45247 0.88305 0.0
C1431 C 0.20636 0.44744 0.90345 0.0
C1432 C 0.2182 0.44233 0.90814 0.0
C1433 C 0.22882 0.44594 0.89938 0.0
C1434 C 0.23993 0.44104 0.90382 0.0
C1435 C 0.24055 0.43258 0.91711 0.0
C1436 C 0.23007 0.42904 0.926 0.0
C1437 C 0.21893 0.4339 0.92159 0.0
H1438 H 0.24917 0.4288 0.92053 0.0
H1439 H 0.1415 0.47723 0.87849 0.0
H1440 H 0.96028 0.03177 0.04141 0.0
H1441 H 0.98237 0.03152 0.04005 0.0
H1442 H 0.98028 1.00051 1.00869 0.0
H1443 H 0.95815 1.00044 1.01049 0.0
H1444 H 0.99687 0.99736 0.03232 0.0
H1445 H 0.98824 0.02901 0.99254 0.0
H1446 H 0.97925 0.04788 0.98244 0.0
H1447 H 0.99876 0.06722 0.02041 0.0
H1448 H 1.00775 0.04844 0.03089 0.0
H1449 H 0.05916 0.99809 1.00967 0.0
H1450 H 0.03709 0.99916 1.00842 0.0
H1451 H 0.03836 0.02979 0.04055 0.0
H1452 H 0.06045 0.02877 0.04187 0.0
H1453 H 0.02221 0.03313 0.01582 0.0
H1454 H 0.03038 1.00136 0.056 0.0
H1455 H 0.0394 0.98249 0.06603 0.0
H1456 H 0.02067 0.96335 0.02715 0.0
H1457 H 0.01166 0.98214 0.01673 0.0
C1458 C 0.96448 0.02485 0.03425 0.0
C1459 C 0.95733 0.01612 0.02607 0.0
C1460 C 0.97717 0.0248 0.03334 0.0
C1461 C 0.98309 0.01607 0.02412 0.0
C1462 C 0.97599 1.00738 0.01586 0.0
C1463 C 0.96329 1.00742 0.01677 0.0
C1464 C 0.99665 0.01577 0.02353 0.0
C1465 C 1.00238 1.00514 0.02844 0.0
C1466 C 1.00395 0.02598 0.01888 0.0
C1467 C 0.99857 0.0373 0.0126 0.0
C1468 C 0.99054 0.03728 0.99882 0.0
C1469 C 0.98546 0.04796 0.99301 0.0
C1470 C 0.9884 0.05874 1.0008 0.0
C1471 C 0.99647 0.05886 0.0144 0.0
C1472 C 1.00157 0.0482 0.02027 0.0
C1473 C 0.05477 1.00504 0.01655 0.0
C1474 C 0.06166 0.01329 0.02597 0.0
C1475 C 0.0421 1.00564 0.01581 0.0
C1476 C 0.03596 0.01444 0.0246 0.0
C1477 C 0.04283 0.0229 0.03364 0.0
C1478 C 0.05551 0.02232 0.03435 0.0
C1479 C 0.0224 0.01471 0.02461 0.0
C1480 C 0.01668 0.02534 0.01963 0.0
C1481 C 0.01509 1.0045 0.02919 0.0
C1482 C 0.02044 0.99318 0.03549 0.0
C1483 C 0.02825 0.99314 0.04952 0.0
C1484 C 0.03335 0.98246 0.05528 0.0
C1485 C 0.03064 0.97173 0.0472 0.0
C1486 C 0.02278 0.97167 0.03337 0.0
C1487 C 0.01767 0.98233 0.02754 0.0
H1488 H 0.0346 0.96347 0.05169 0.0
H1489 H 0.98446 0.067 0.99629 0.0
H1490 H 0.23784 0.71685 0.25623 0.0
H1491 H 0.23916 0.7386 0.25866 0.0
H1492 H 0.27422 0.73576 0.28213 0.0
H1493 H 0.27299 0.71392 0.27966 0.0
H1494 H 0.26092 0.75179 0.29808 0.0
H1495 H 0.27121 0.74492 0.24032 0.0
H1496 H 0.26832 0.73671 0.21194 0.0
H1497 H 0.23538 0.756 0.20609 0.0
H1498 H 0.23798 0.7642 0.23456 0.0
H1499 H 0.27878 0.81313 0.28951 0.0
H1500 H 0.27742 0.79138 0.28702 0.0
H1501 H 0.24254 0.79435 0.26306 0.0
H1502 H 0.24384 0.81621 0.26551 0.0
H1503 H 0.25569 0.77824 0.24738 0.0
H1504 H 0.24537 0.78514 0.30509 0.0
H1505 H 0.24822 0.79335 0.33348 0.0
H1506 H 0.28113 0.77402 0.33945 0.0
H1507 H 0.27856 0.76582 0.31098 0.0
C1508 C 0.2459 0.72081 0.26179 0.0
C1509 C 0.25537 0.71354 0.26758 0.0
C1510 C 0.24663 0.73331 0.2632 0.0
C1511 C 0.25688 0.73893 0.27032 0.0
C1512 C 0.26622 0.73169 0.27653 0.0
C1513 C 0.26548 0.71916 0.27516 0.0
C1514 C 0.25785 0.75232 0.27122 0.0
C1515 C 0.25994 0.75756 0.28694 0.0
C1516 C 0.25629 0.75994 0.25679 0.0
C1517 C 0.25474 0.75508 0.23964 0.0
C1518 C 0.26331 0.74734 0.23304 0.0
C1519 C 0.26173 0.7427 0.21692 0.0
C1520 C 0.25166 0.74581 0.20723 0.0
C1521 C 0.24316 0.75359 0.21362 0.0
C1522 C 0.24469 0.75824 0.22974 0.0
C1523 C 0.27075 0.80919 0.28381 0.0
C1524 C 0.26136 0.81649 0.27789 0.0
C1525 C 0.26999 0.7967 0.28239 0.0
C1526 C 0.25977 0.79112 0.27513 0.0
C1527 C 0.25051 0.79839 0.26877 0.0
C1528 C 0.25129 0.81092 0.27014 0.0
C1529 C 0.25876 0.77772 0.27424 0.0
C1530 C 0.25666 0.77248 0.25853 0.0
C1531 C 0.2603 0.7701 0.28867 0.0
C1532 C 0.26183 0.77496 0.30584 0.0
C1533 C 0.25326 0.78271 0.3124 0.0
C1534 C 0.25482 0.78735 0.32852 0.0
C1535 C 0.26487 0.78423 0.33824 0.0
C1536 C 0.27336 0.77644 0.33189 0.0
C1537 C 0.27185 0.77178 0.31577 0.0
H1538 H 0.26606 0.78784 0.35071 0.0
H1539 H 0.25045 0.74221 0.19476 0.0
H1540 H 0.45819 0.9986 0.53262 0.0
H1541 H 0.48032 0.99889 0.53391 0.0
H1542 H 0.48156 0.03399 0.5098 0.0
H1543 H 0.45943 0.03379 0.50854 0.0
H1544 H 0.49757 0.02015 0.49554 0.0
H1545 H 0.48772 0.02959 0.5526 0.0
H1546 H 0.47764 0.02671 0.58028 0.0
H1547 H 0.49477 0.99286 0.58753 0.0
H1548 H 0.50483 0.99546 0.55977 0.0
H1549 H 0.56012 0.03289 0.50842 0.0
H1550 H 0.53802 0.03344 0.50964 0.0
H1551 H 0.53673 0.99822 0.53339 0.0
H1552 H 0.55885 0.99759 0.53219 0.0
H1553 H 0.52076 0.01224 0.54811 0.0
H1554 H 0.53029 1.0026 0.49097 0.0
H1555 H 0.54036 1.00536 0.46326 0.0
H1556 H 0.52373 0.03947 0.45614 0.0
H1557 H 0.51368 0.03699 0.48392 0.0
C1558 C 0.46313 1.00648 0.52783 0.0
C1559 C 0.45693 0.01618 0.52048 0.0
C1560 C 0.47584 1.00662 0.52855 0.0
C1561 C 0.4827 0.01651 0.52208 0.0
C1562 C 0.47653 0.02623 0.51484 0.0
C1563 C 0.46384 0.02609 0.51409 0.0
C1564 C 0.49627 0.01657 0.52235 0.0
C1565 C 0.50262 0.0186 0.5071 0.0
C1566 C 0.50295 0.01424 0.53732 0.0
C1567 C 0.49694 0.01266 0.55403 0.0
C1568 C 0.48926 0.02148 0.56004 0.0
C1569 C 0.48357 0.01991 0.57575 0.0
C1570 C 0.48554 1.00959 0.58564 0.0
C1571 C 0.49324 1.00084 0.57985 0.0
C1572 C 0.49895 1.00236 0.56413 0.0
C1573 C 0.55515 0.02522 0.51384 0.0
C1574 C 0.56134 0.01515 0.5201 0.0
C1575 C 0.54248 0.02555 0.51455 0.0
C1576 C 0.53561 0.0158 0.52138 0.0
C1577 C 0.54176 1.00587 0.52805 0.0
C1578 C 0.55446 1.00554 0.52739 0.0
C1579 C 0.52204 0.01586 0.5213 0.0
C1580 C 0.5157 0.01382 0.53657 0.0
C1581 C 0.51534 0.01816 0.50634 0.0
C1582 C 0.52133 0.01966 0.4896 0.0
C1583 C 0.52885 0.01073 0.48355 0.0
C1584 C 0.53454 0.01224 0.46782 0.0
C1585 C 0.53271 0.0226 0.45796 0.0
C1586 C 0.52515 0.03146 0.4638 0.0
C1587 C 0.51945 0.03 0.47953 0.0
H1588 H 0.53713 0.02375 0.44579 0.0
H1589 H 0.48112 1.00839 0.59781 0.0
H1590 H 0.26743 0.31799 0.75744 0.0
H1591 H 0.26841 0.29625 0.75448 0.0
H1592 H 0.24602 0.2908 0.79884 0.0
H1593 H 0.245 0.31247 0.80186 0.0
H1594 H 0.26403 0.27585 0.80024 0.0
H1595 H 0.23498 0.28679 0.75799 0.0
H1596 H 0.22723 0.29791 0.73312 0.0
H1597 H 0.25568 0.28434 0.70253 0.0
H1598 H 0.2637 0.27326 0.72728 0.0
H1599 H 0.2508 0.21356 0.78996 0.0
H1600 H 0.24901 0.23528 0.79228 0.0
H1601 H 0.27202 0.24092 0.74858 0.0
H1602 H 0.27352 0.21925 0.74584 0.0
H1603 H 0.25356 0.25573 0.74685 0.0
H1604 H 0.28263 0.2449 0.78934 0.0
H1605 H 0.29022 0.23371 0.81427 0.0
H1606 H 0.26144 0.24705 0.84448 0.0
H1607 H 0.25358 0.2582 0.81966 0.0
C1608 C 0.26261 0.31218 0.76648 0.0
C1609 C 0.25615 0.31707 0.77992 0.0
C1610 C 0.26318 0.29971 0.76478 0.0
C1611 C 0.2572 0.29179 0.77635 0.0
C1612 C 0.25077 0.29665 0.78976 0.0
C1613 C 0.25022 0.3091 0.7915 0.0
C1614 C 0.25776 0.27846 0.77468 0.0
C1615 C 0.26157 0.27146 0.78862 0.0
C1616 C 0.25482 0.27264 0.75944 0.0
C1617 C 0.25002 0.2793 0.74453 0.0
C1618 C 0.23964 0.28626 0.74599 0.0
C1619 C 0.23519 0.29254 0.73191 0.0
C1620 C 0.24098 0.29186 0.71626 0.0
C1621 C 0.25121 0.28487 0.71466 0.0
C1622 C 0.25572 0.27858 0.72871 0.0
C1623 C 0.2554 0.2194 0.78074 0.0
C1624 C 0.26238 0.21457 0.76778 0.0
C1625 C 0.25446 0.23186 0.78218 0.0
C1626 C 0.26052 0.23983 0.77074 0.0
C1627 C 0.2673 0.23502 0.75763 0.0
C1628 C 0.26825 0.22259 0.75619 0.0
C1629 C 0.25982 0.25314 0.77241 0.0
C1630 C 0.256 0.26013 0.75847 0.0
C1631 C 0.26273 0.25895 0.78766 0.0
C1632 C 0.26745 0.25228 0.8026 0.0
C1633 C 0.27787 0.24537 0.80127 0.0
C1634 C 0.28222 0.23905 0.81538 0.0
C1635 C 0.27629 0.23964 0.83093 0.0
C1636 C 0.26601 0.24659 0.83241 0.0
C1637 C 0.26161 0.25291 0.81833 0.0
H1638 H 0.27968 0.23475 0.84185 0.0
H1639 H 0.23751 0.29673 0.70537 0.0
H1640 H 0.74939 0.31734 0.7571 0.0
H1641 H 0.74793 0.29548 0.75551 0.0
H1642 H 0.77534 0.2922 0.79399 0.0
H1643 H 0.77682 0.314 0.79569 0.0
H1644 H 0.7797 0.27717 0.76959 0.0
H1645 H 0.7447 0.28649 0.80231 0.0
H1646 H 0.72566 0.29661 0.80845 0.0
H1647 H 0.70921 0.28141 0.76449 0.0
H1648 H 0.72822 0.27133 0.75795 0.0
H1649 H 0.77084 0.2146 0.78829 0.0
H1650 H 0.77229 0.23646 0.78986 0.0
H1651 H 0.74484 0.2397 0.75142 0.0
H1652 H 0.74337 0.21789 0.74974 0.0
H1653 H 0.74049 0.25476 0.77577 0.0
H1654 H 0.77547 0.24543 0.74305 0.0
H1655 H 0.79452 0.23533 0.73687 0.0
H1656 H 0.811 0.25054 0.78079 0.0
H1657 H 0.79199 0.26061 0.78737 0.0
C1658 C 0.75503 0.31199 0.76535 0.0
C1659 C 0.76324 0.31753 0.77652 0.0
C1660 C 0.75419 0.29944 0.76442 0.0
C1661 C 0.76144 0.29209 0.77474 0.0
C1662 C 0.76967 0.29761 0.78583 0.0
C1663 C 0.77053 0.31013 0.78674 0.0
C1664 C 0.76055 0.27868 0.77396 0.0
C1665 C 0.77113 0.27227 0.77117 0.0
C1666 C 0.74937 0.27222 0.77563 0.0
C1667 C 0.73792 0.27825 0.77955 0.0
C1668 C 0.73705 0.28538 0.79388 0.0
C1669 C 0.72626 0.2911 0.79744 0.0
C1670 C 0.71624 0.28968 0.78684 0.0
C1671 C 0.71699 0.28252 0.77268 0.0
C1672 C 0.72776 0.27679 0.76904 0.0
C1673 C 0.76518 0.21994 0.78005 0.0
C1674 C 0.75698 0.21438 0.7689 0.0
C1675 C 0.76601 0.23249 0.78097 0.0
C1676 C 0.75875 0.23983 0.77064 0.0
C1677 C 0.75052 0.2343 0.75958 0.0
C1678 C 0.74966 0.22177 0.75868 0.0
C1679 C 0.75964 0.25324 0.7714 0.0
C1680 C 0.74906 0.25965 0.77419 0.0
C1681 C 0.77083 0.25971 0.76973 0.0
C1682 C 0.78227 0.25367 0.76579 0.0
C1683 C 0.78313 0.24654 0.75147 0.0
C1684 C 0.79392 0.24084 0.74788 0.0
C1685 C 0.80395 0.24227 0.75845 0.0
C1686 C 0.80322 0.24943 0.77262 0.0
C1687 C 0.79244 0.25515 0.77628 0.0
H1688 H 0.8123 0.23784 0.75565 0.0
H1689 H 0.70789 0.29411 0.78963 0.0
H1690 H 0.77125 0.81849 0.26206 0.0
H1691 H 0.77287 0.79676 0.26007 0.0
H1692 H 0.74067 0.79156 0.29053 0.0
H1693 H 0.73926 0.81323 0.29316 0.0
H1694 H 0.757 0.77612 0.3005 0.0
H1695 H 0.74063 0.78811 0.2467 0.0
H1696 H 0.73985 0.79965 0.21974 0.0
H1697 H 0.77408 0.7857 0.20508 0.0
H1698 H 0.77513 0.77419 0.23207 0.0
H1699 H 0.74627 0.71431 0.28342 0.0
H1700 H 0.74454 0.73604 0.28538 0.0
H1701 H 0.77687 0.74137 0.2552 0.0
H1702 H 0.7784 0.7197 0.25265 0.0
H1703 H 0.76041 0.75672 0.24508 0.0
H1704 H 0.7768 0.74477 0.29889 0.0
H1705 H 0.77757 0.73322 0.32584 0.0
H1706 H 0.74331 0.74711 0.34047 0.0
H1707 H 0.74225 0.75862 0.31349 0.0
C1708 C 0.76455 0.81275 0.26847 0.0
C1709 C 0.75508 0.81772 0.27771 0.0
C1710 C 0.76542 0.80028 0.26716 0.0
C1711 C 0.7568 0.79243 0.27495 0.0
C1712 C 0.74742 0.79736 0.28432 0.0
C1713 C 0.74655 0.80981 0.28566 0.0
C1714 C 0.75759 0.7791 0.27351 0.0
C1715 C 0.75758 0.77189 0.28835 0.0
C1716 C 0.75863 0.77349 0.25772 0.0
C1717 C 0.75801 0.78039 0.24148 0.0
C1718 C 0.74803 0.78758 0.23779 0.0
C1719 C 0.74754 0.7941 0.22249 0.0
C1720 C 0.75693 0.79343 0.21073 0.0
C1721 C 0.76682 0.78622 0.21422 0.0
C1722 C 0.76737 0.77969 0.2295 0.0
C1723 C 0.75297 0.72008 0.27707 0.0
C1724 C 0.76252 0.71515 0.26795 0.0
C1725 C 0.75204 0.73255 0.27836 0.0
C1726 C 0.76066 0.74043 0.27063 0.0
C1727 C 0.77011 0.73554 0.26136 0.0
C1728 C 0.77105 0.72309 0.26006 0.0
C1729 C 0.75982 0.75375 0.27207 0.0
C1730 C 0.75983 0.76096 0.25723 0.0
C1731 C 0.75877 0.75936 0.28786 0.0
C1732 C 0.75939 0.75246 0.30409 0.0
C1733 C 0.76938 0.74529 0.30779 0.0
C1734 C 0.76988 0.73876 0.32309 0.0
C1735 C 0.76048 0.7394 0.33484 0.0
C1736 C 0.75058 0.7466 0.33134 0.0
C1737 C 0.75003 0.75314 0.31606 0.0
H1738 H 0.76088 0.73435 0.34667 0.0
H1739 H 0.75652 0.79849 0.19889 0.0
H1740 H 0.45954 0.53399 0.53639 0.0
H1741 H 0.48166 0.53384 0.5353 0.0
H1742 H 0.48 0.49921 0.51238 0.0
H1743 H 0.45787 0.4991 0.51397 0.0
H1744 H 0.4966 0.49933 0.53651 0.0
H1745 H 0.48758 0.52535 0.48939 0.0
H1746 H 0.47835 0.54257 0.47465 0.0
H1747 H 0.49763 0.56681 0.50691 0.0
H1748 H 0.50685 0.54972 0.52201 0.0
H1749 H 0.55894 0.49794 0.51449 0.0
H1750 H 0.53686 0.49857 0.51272 0.0
H1751 H 0.53764 0.53292 0.53647 0.0
H1752 H 0.55977 0.53253 0.53779 0.0
H1753 H 0.5215 0.53283 0.51122 0.0
H1754 H 0.53006 0.50684 0.55875 0.0
H1755 H 0.53929 0.48965 0.57358 0.0
H1756 H 0.5208 0.46539 0.54049 0.0
H1757 H 0.51159 0.48246 0.52532 0.0
C1758 C 0.46385 0.5263 0.53116 0.0
C1759 C 0.45683 0.51655 0.52527 0.0
C1760 C 0.47655 0.52629 0.53038 0.0
C1761 C 0.48259 0.51657 0.52359 0.0
C1762 C 0.47561 0.50684 0.51763 0.0
C1763 C 0.46291 0.50685 0.5184 0.0
C1764 C 0.49615 0.51638 0.52315 0.0
C1765 C 0.50202 0.50658 0.53072 0.0
C1766 C 0.50333 0.52594 0.516 0.0
C1767 C 0.49781 0.53624 0.50693 0.0
C1768 C 0.48978 0.53435 0.49343 0.0
C1769 C 0.48456 0.54408 0.485 0.0
C1770 C 0.48737 0.55577 0.48987 0.0
C1771 C 0.49544 0.55775 0.50317 0.0
C1772 C 0.50067 0.54804 0.51165 0.0
C1773 C 0.55446 0.50572 0.51913 0.0
C1774 C 0.56122 0.51516 0.52636 0.0
C1775 C 0.54178 0.50601 0.51827 0.0
C1776 C 0.53549 0.51571 0.52469 0.0
C1777 C 0.54222 0.52529 0.5315 0.0
C1778 C 0.55491 0.52501 0.53238 0.0
C1779 C 0.52192 0.51579 0.52456 0.0
C1780 C 0.51607 0.52557 0.51693 0.0
C1781 C 0.51474 0.50621 0.53166 0.0
C1782 C 0.52024 0.49593 0.54079 0.0
C1783 C 0.52804 0.49784 0.55456 0.0
C1784 C 0.53325 0.48812 0.56304 0.0
C1785 C 0.53066 0.47644 0.55795 0.0
C1786 C 0.52282 0.47445 0.5444 0.0
C1787 C 0.51759 0.48414 0.53587 0.0
H1788 H 0.5347 0.46892 0.56453 0.0
H1789 H 0.48333 0.5633 0.48332 0.0
H1790 H 0.9587 0.53388 1.00849 0.0
H1791 H 0.98083 0.53413 1.00962 0.0
H1792 H 0.97982 0.49843 0.03183 0.0
H1793 H 0.95766 0.49809 0.0307 0.0
H1794 H 0.99672 0.51197 0.04709 0.0
H1795 H 0.98649 0.5036 0.98959 0.0
H1796 H 0.97656 0.50708 0.96207 0.0
H1797 H 0.99543 0.54107 0.95622 0.0
H1798 H 1.00536 0.53787 0.98383 0.0
H1799 H 0.05835 0.49787 0.03087 0.0
H1800 H 0.03625 0.49842 0.03222 0.0
H1801 H 0.03733 0.53388 1.00921 0.0
H1802 H 0.05944 0.53342 1.00786 0.0
H1803 H 0.02037 0.52059 0.99464 0.0
H1804 H 0.03089 0.5288 0.05199 0.0
H1805 H 0.04081 0.5253 0.07952 0.0
H1806 H 0.02147 0.49158 0.08566 0.0
H1807 H 0.01155 0.49481 0.05805 0.0
C1808 C 0.96316 0.52604 0.01355 0.0
C1809 C 0.95631 0.51593 0.01939 0.0
C1810 C 0.97586 0.52621 0.01421 0.0
C1811 C 0.98208 0.51623 0.02058 0.0
C1812 C 0.97528 0.50625 0.02685 0.0
C1813 C 0.96257 0.50609 0.02624 0.0
C1814 C 0.99565 0.51612 0.02042 0.0
C1815 C 1.00187 0.51371 0.03557 0.0
C1816 C 1.00248 0.51863 1.0055 0.0
C1817 C 0.99658 0.52055 0.98885 0.0
C1818 C 0.98846 0.51186 0.98249 0.0
C1819 C 0.98284 0.51377 0.96687 0.0
C1820 C 0.98534 0.5243 0.95743 0.0
C1821 C 0.99349 0.53292 0.96356 0.0
C1822 C 0.99912 0.53106 0.97919 0.0
C1823 C 0.05393 0.50588 0.02633 0.0
C1824 C 0.06077 0.51561 0.01927 0.0
C1825 C 0.04124 0.50617 0.02709 0.0
C1826 C 0.03503 0.51623 0.02096 0.0
C1827 C 0.04184 0.52598 0.01399 0.0
C1828 C 0.05452 0.52569 0.0132 0.0
C1829 C 0.02146 0.51647 0.02132 0.0
C1830 C 0.01523 0.51888 1.00619 0.0
C1831 C 0.01464 0.51395 0.03626 0.0
C1832 C 0.02057 0.512 0.05288 0.0
C1833 C 0.02882 0.5206 0.05915 0.0
C1834 C 0.03443 0.51867 0.07478 0.0
C1835 C 0.03179 0.50821 0.08431 0.0
C1836 C 0.02351 0.49967 0.07825 0.0
C1837 C 0.01789 0.50155 0.06262 0.0
H1838 H 0.03614 0.50673 0.09641 0.0
H1839 H 0.98098 0.52576 0.94533 0.0
loop_
_geom_bond_atom_site_label_1
_geom_bond_atom_site_label_2
_geom_bond_distance
_geom_bond_site_symmetry_2
_ccdc_geom_bond_type
C0 C1 1.264 . S
C0 C5 1.458 1_545 S
C0 C10 1.465 . S
C1 C0 1.264 . S
C1 C3 1.339 . S
C1 H28 0.931 1_554 S
C2 C3 1.395 . S
C2 C4 1.320 1_545 S
C3 C1 1.339 . S
C3 C2 1.395 . S
C3 H29 0.929 1_554 S
C4 C2 1.320 1_565 S
C4 C5 1.409 . S
C4 H30 0.930 . S
C5 C0 1.458 1_565 S
C5 C4 1.409 . S
C5 H31 0.948 . S
U6 O7 2.454 1_545 S
U6 O8 2.458 1_545 S
U6 C9 2.984 1_545 S
U6 C10 2.847 . S
U6 C23 2.882 1_554 S
U6 O24 2.441 . S
U6 O25 2.420 . S
U6 O26 2.455 . S
U6 O27 2.449 1_554 S
O7 U6 2.454 1_565 S
O7 C9 1.353 . S
O8 U6 2.458 1_565 S
O8 C9 1.286 . S
C9 U6 2.984 1_565 S
C9 O7 1.353 . S
C9 O8 1.286 . S
C9 C11 1.363 . S
C10 C0 1.465 . S
C10 U6 2.847 . S
C10 O24 1.249 . S
C10 O25 1.202 . S
C11 C9 1.363 . S
C11 C13 1.408 . S
C11 C16 1.342 . S
C12 C13 1.310 . S
C12 C15 1.461 . S
C12 H32 0.932 . S
C13 C11 1.408 . S
C13 C12 1.310 . S
C13 H33 0.930 . S
C14 C15 1.474 . S
C14 C16 1.285 . S
C14 H34 0.929 . S
C15 C12 1.461 . S
C15 C14 1.474 . S
C16 C11 1.342 . S
C16 C14 1.285 . S
C16 H35 0.930 . S
C17 C20 1.424 . S
C17 C22 1.245 . S
C17 C23 1.428 . S
C18 C21 1.260 . S
C18 C22 1.477 . S
C18 H36 0.932 . S
C19 C20 1.384 . S
C19 C21 1.479 . S
C19 H37 0.929 . S
C20 C17 1.424 . S
C20 C19 1.384 . S
C20 H38 0.928 . S
C21 C18 1.260 . S
C21 C19 1.479 . S
C22 C17 1.245 . S
C22 C18 1.477 . S
C22 H39 0.932 . S
C23 U6 2.882 1_556 S
C23 C17 1.428 . S
C23 O26 1.301 1_556 S
C23 O27 1.282 . S
O24 U6 2.441 . S
O24 C10 1.249 . S
O25 U6 2.420 . S
O25 C10 1.202 . S
O26 U6 2.455 . S
O26 C23 1.301 1_554 S
O27 U6 2.449 1_556 S
O27 C23 1.282 . S
H28 C1 0.931 1_556 S
H29 C3 0.929 1_556 S
H30 C4 0.930 . S
H31 C5 0.948 . S
H32 C12 0.932 . S
H33 C13 0.930 . S
H34 C14 0.929 . S
H35 C16 0.930 . S
H36 C18 0.932 . S
H37 C19 0.929 . S
H38 C20 0.928 . S
H39 C22 0.932 . S
C40 C41 1.264 . S
C40 C45 1.479 . S
C40 C50 1.465 . S
C41 C40 1.264 . S
C41 C43 1.339 . S
C41 H68 0.931 . S
C42 C43 1.395 . S
C42 C44 1.320 . S
C43 C41 1.339 . S
C43 C42 1.395 . S
C43 H69 0.929 . S
C44 C42 1.320 . S
C44 C45 1.405 . S
C44 H70 0.930 . S
C45 C40 1.479 . S
C45 C44 1.405 . S
C45 H71 0.931 . S
U46 O47 2.454 . S
U46 O48 2.458 . S
U46 C49 2.984 . S
U46 C50 2.847 . S
U46 C63 2.882 . S
U46 O64 2.441 . S
U46 O65 2.420 . S
U46 O66 2.455 . S
U46 O67 2.449 . S
O47 U46 2.454 . S
O47 C49 1.353 . S
O48 U46 2.458 . S
O48 C49 1.286 . S
C49 U46 2.984 . S
C49 O47 1.353 . S
C49 O48 1.286 . S
C49 C51 1.363 . S
C50 C40 1.465 . S
C50 U46 2.847 . S
C50 O64 1.249 . S
C50 O65 1.202 . S
C51 C49 1.363 . S
C51 C53 1.408 . S
C51 C56 1.342 . S
C52 C53 1.310 . S
C52 C55 1.461 . S
C52 H72 0.932 . S
C53 C51 1.408 . S
C53 C52 1.310 . S
C53 H73 0.930 . S
C54 C55 1.474 . S
C54 C56 1.285 . S
C54 H74 0.929 . S
C55 C52 1.461 . S
C55 C54 1.474 . S
C56 C51 1.342 . S
C56 C54 1.285 . S
C56 H75 0.930 . S
C57 C60 1.424 . S
C57 C62 1.245 . S
C57 C63 1.428 . S
C58 C61 1.260 . S
C58 C62 1.477 . S
C58 H76 0.932 . S
C59 C60 1.384 . S
C59 C61 1.479 . S
C59 H77 0.929 . S
C60 C57 1.424 . S
C60 C59 1.384 . S
C60 H78 0.928 . S
C61 C58 1.260 . S
C61 C59 1.479 . S
C62 C57 1.245 . S
C62 C58 1.477 . S
C62 H79 0.932 . S
C63 U46 2.882 . S
C63 C57 1.428 . S
C63 O66 1.301 . S
C63 O67 1.282 . S
O64 U46 2.441 . S
O64 C50 1.249 . S
O65 U46 2.420 . S
O65 C50 1.202 . S
O66 U46 2.455 . S
O66 C63 1.301 . S
O67 U46 2.449 . S
O67 C63 1.282 . S
H68 C41 0.931 . S
H69 C43 0.929 . S
H70 C44 0.930 . S
H71 C45 0.931 . S
H72 C52 0.932 . S
H73 C53 0.930 . S
H74 C54 0.929 . S
H75 C56 0.930 . S
H76 C58 0.932 . S
H77 C59 0.929 . S
H78 C60 0.928 . S
H79 C62 0.932 . S
C80 C81 1.264 . S
C80 C85 1.479 . S
C80 C90 1.465 1_565 S
C81 C80 1.264 . S
C81 C83 1.339 . S
C81 H108 0.931 . S
C82 C83 1.395 . S
C82 C84 1.320 . S
C83 C81 1.339 . S
C83 C82 1.395 . S
C83 H109 0.929 . S
C84 C82 1.320 . S
C84 C85 1.405 . S
C84 H110 0.930 . S
C85 C80 1.479 . S
C85 C84 1.405 . S
C85 H111 0.954 . S
U86 O87 2.454 . S
U86 O88 2.458 . S
U86 C89 2.984 . S
U86 C90 2.847 . S
U86 C103 2.882 . S
U86 O104 2.441 . S
U86 O105 2.420 . S
U86 O106 2.455 . S
U86 O107 2.449 . S
O87 U86 2.454 . S
O87 C89 1.353 . S
O88 U86 2.458 . S
O88 C89 1.286 . S
C89 U86 2.984 . S
C89 O87 1.353 . S
C89 O88 1.286 . S
C89 C91 1.363 . S
C90 C80 1.465 1_545 S
C90 U86 2.847 . S
C90 O104 1.249 . S
C90 O105 1.202 . S
C91 C89 1.363 . S
C91 C93 1.408 . S
C91 C96 1.342 . S
C92 C93 1.310 . S
C92 C95 1.461 . S
C92 H112 0.932 . S
C93 C91 1.408 . S
C93 C92 1.310 . S
C93 H113 0.930 . S
C94 C95 1.474 . S
C94 C96 1.285 . S
C94 H114 0.929 . S
C95 C92 1.461 . S
C95 C94 1.474 . S
C96 C91 1.342 . S
C96 C94 1.285 . S
C96 H115 0.930 . S
C97 C100 1.424 . S
C97 C102 1.245 . S
C97 C103 1.428 . S
C98 C101 1.260 . S
C98 C102 1.477 . S
C98 H116 0.932 . S
C99 C100 1.384 . S
C99 C101 1.479 . S
C99 H117 0.929 . S
C100 C97 1.424 . S
C100 C99 1.384 . S
C100 H118 0.928 . S
C101 C98 1.260 . S
C101 C99 1.479 . S
C102 C97 1.245 . S
C102 C98 1.477 . S
C102 H119 0.932 . S
C103 U86 2.882 . S
C103 C97 1.428 . S
C103 O106 1.301 . S
C103 O107 1.282 . S
O104 U86 2.441 . S
O104 C90 1.249 . S
O105 U86 2.420 . S
O105 C90 1.202 . S
O106 U86 2.455 . S
O106 C103 1.301 . S
O107 U86 2.449 . S
O107 C103 1.282 . S
H108 C81 0.931 . S
H109 C83 0.929 . S
H110 C84 0.930 . S
H111 C85 0.954 . S
H112 C92 0.932 . S
H113 C93 0.930 . S
H114 C94 0.929 . S
H115 C96 0.930 . S
H116 C98 0.932 . S
H117 C99 0.929 . S
H118 C100 0.928 . S
H119 C102 0.932 . S
C120 C121 1.264 . S
C120 C125 1.479 . S
C120 C130 1.465 . S
C121 C120 1.264 . S
C121 C123 1.339 . S
C121 H148 0.931 . S
C122 C123 1.395 . S
C122 C124 1.320 . S
C123 C121 1.339 . S
C123 C122 1.395 . S
C123 H149 0.929 . S
C124 C122 1.320 . S
C124 C125 1.405 . S
C124 H150 0.930 . S
C125 C120 1.479 . S
C125 C124 1.405 . S
C125 H151 0.931 . S
U126 O127 2.454 . S
U126 O128 2.458 . S
U126 C129 2.984 . S
U126 C130 2.847 . S
U126 C143 2.882 . S
U126 O144 2.441 . S
U126 O145 2.420 . S
U126 O146 2.455 . S
U126 O147 2.449 . S
O127 U126 2.454 . S
O127 C129 1.353 . S
O128 U126 2.458 . S
O128 C129 1.286 . S
C129 U126 2.984 . S
C129 O127 1.353 . S
C129 O128 1.286 . S
C129 C131 1.363 . S
C130 C120 1.465 . S
C130 U126 2.847 . S
C130 O144 1.249 . S
C130 O145 1.202 . S
C131 C129 1.363 . S
C131 C133 1.408 . S
C131 C136 1.342 . S
C132 C133 1.310 . S
C132 C135 1.461 . S
C132 H152 0.932 . S
C133 C131 1.408 . S
C133 C132 1.310 . S
C133 H153 0.930 . S
C134 C135 1.474 . S
C134 C136 1.285 . S
C134 H154 0.929 . S
C135 C132 1.461 . S
C135 C134 1.474 . S
C136 C131 1.342 . S
C136 C134 1.285 . S
C136 H155 0.930 . S
C137 C140 1.424 . S
C137 C142 1.245 . S
C137 C143 1.428 . S
C138 C141 1.260 . S
C138 C142 1.477 . S
C138 H156 0.932 . S
C139 C140 1.384 . S
C139 C141 1.479 . S
C139 H157 0.929 . S
C140 C137 1.424 . S
C140 C139 1.384 . S
C140 H158 0.928 . S
C141 C138 1.260 . S
C141 C139 1.479 . S
C142 C137 1.245 . S
C142 C138 1.477 . S
C142 H159 0.932 . S
C143 U126 2.882 . S
C143 C137 1.428 . S
C143 O146 1.301 . S
C143 O147 1.282 . S
O144 U126 2.441 . S
O144 C130 1.249 . S
O145 U126 2.420 . S
O145 C130 1.202 . S
O146 U126 2.455 . S
O146 C143 1.301 . S
O147 U126 2.449 . S
O147 C143 1.282 . S
H148 C121 0.931 . S
H149 C123 0.929 . S
H150 C124 0.930 . S
H151 C125 0.931 . S
H152 C132 0.932 . S
H153 C133 0.930 . S
H154 C134 0.929 . S
H155 C136 0.930 . S
H156 C138 0.932 . S
H157 C139 0.929 . S
H158 C140 0.928 . S
H159 C142 0.932 . S
C160 C161 1.264 . S
C160 C165 1.479 . S
C160 C170 1.465 . S
C161 C160 1.264 . S
C161 C163 1.339 . S
C161 H188 0.931 . S
C162 C163 1.395 . S
C162 C164 1.320 . S
C163 C161 1.339 . S
C163 C162 1.395 . S
C163 H189 0.929 . S
C164 C162 1.320 . S
C164 C165 1.405 . S
C164 H190 0.930 . S
C165 C160 1.479 . S
C165 C164 1.405 . S
C165 H191 0.931 . S
U166 O167 2.436 1_554 S
U166 O168 2.458 1_554 S
U166 C169 2.984 1_554 S
U166 C170 2.847 1_545 S
U166 C183 2.882 . S
U166 O184 2.419 1_545 S
U166 O185 2.420 1_545 S
U166 O186 2.455 1_554 S
U166 O187 2.449 1_545 S
O167 U166 2.436 1_556 S
O167 C169 1.392 . S
O168 U166 2.458 1_556 S
O168 C169 1.286 . S
C169 U166 2.984 1_556 S
C169 O167 1.392 . S
C169 O168 1.286 . S
C169 C171 1.363 . S
C170 C160 1.465 . S
C170 U166 2.847 1_565 S
C170 O184 1.306 . S
C170 O185 1.202 . S
C171 C169 1.363 . S
C171 C173 1.408 . S
C171 C176 1.342 . S
C172 C173 1.310 . S
C172 C175 1.461 . S
C172 H192 0.932 . S
C173 C171 1.408 . S
C173 C172 1.310 . S
C173 H193 0.930 . S
C174 C175 1.474 . S
C174 C176 1.285 . S
C174 H194 0.929 . S
C175 C172 1.461 . S
C175 C174 1.474 . S
C176 C171 1.342 . S
C176 C174 1.285 . S
C176 H195 0.930 . S
C177 C180 1.424 . S
C177 C182 1.214 1_554 S
C177 C183 1.428 . S
C178 C181 1.260 . S
C178 C182 1.472 1_554 S
C178 H196 0.932 1_554 S
C179 C180 1.384 . S
C179 C181 1.479 . S
C179 H197 0.929 1_545 S
C180 C177 1.424 . S
C180 C179 1.384 . S
C180 H198 0.928 1_545 S
C181 C178 1.260 . S
C181 C179 1.479 . S
C182 C177 1.214 1_556 S
C182 C178 1.472 1_556 S
C182 H199 0.969 . S
C183 U166 2.882 . S
C183 C177 1.428 . S
C183 O186 1.301 1_554 S
C183 O187 1.282 1_545 S
O184 U166 2.419 1_565 S
O184 C170 1.306 . S
O185 U166 2.420 1_565 S
O185 C170 1.202 . S
O186 U166 2.455 1_556 S
O186 C183 1.301 1_556 S
O187 U166 2.449 1_565 S
O187 C183 1.282 1_565 S
H188 C161 0.931 . S
H189 C163 0.929 . S
H190 C164 0.930 . S
H191 C165 0.931 . S
H192 C172 0.932 . S
H193 C173 0.930 . S
H194 C174 0.929 . S
H195 C176 0.930 . S
H196 C178 0.932 1_556 S
H197 C179 0.929 1_565 S
H198 C180 0.928 1_565 S
H199 C182 0.969 . S
C200 C201 1.264 . S
C200 C205 1.479 . S
C200 C210 1.465 . S
C201 C200 1.264 . S
C201 C203 1.339 . S
C201 H228 0.931 . S
C202 C203 1.395 . S
C202 C204 1.320 . S
C203 C201 1.339 . S
C203 C202 1.395 . S
C203 H229 0.929 . S
C204 C202 1.320 . S
C204 C205 1.405 . S
C204 H230 0.930 . S
C205 C200 1.479 . S
C205 C204 1.405 . S
C205 H231 0.931 . S
U206 O207 2.454 . S
U206 O208 2.458 . S
U206 C209 2.984 . S
U206 C210 2.847 . S
U206 C223 2.882 . S
U206 O224 2.441 . S
U206 O225 2.420 . S
U206 O226 2.455 . S
U206 O227 2.449 . S
O207 U206 2.454 . S
O207 C209 1.353 . S
O208 U206 2.458 . S
O208 C209 1.286 . S
C209 U206 2.984 . S
C209 O207 1.353 . S
C209 O208 1.286 . S
C209 C211 1.363 . S
C210 C200 1.465 . S
C210 U206 2.847 . S
C210 O224 1.249 . S
C210 O225 1.202 . S
C211 C209 1.363 . S
C211 C213 1.408 . S
C211 C216 1.342 . S
C212 C213 1.310 . S
C212 C215 1.461 . S
C212 H232 0.932 . S
C213 C211 1.408 . S
C213 C212 1.310 . S
C213 H233 0.930 . S
C214 C215 1.474 . S
C214 C216 1.285 . S
C214 H234 0.929 . S
C215 C212 1.461 . S
C215 C214 1.474 . S
C216 C211 1.342 . S
C216 C214 1.285 . S
C216 H235 0.930 . S
C217 C220 1.424 . S
C217 C222 1.245 . S
C217 C223 1.428 . S
C218 C221 1.260 . S
C218 C222 1.477 . S
C218 H236 0.932 . S
C219 C220 1.384 . S
C219 C221 1.479 . S
C219 H237 0.929 . S
C220 C217 1.424 . S
C220 C219 1.384 . S
C220 H238 0.928 . S
C221 C218 1.260 . S
C221 C219 1.479 . S
C222 C217 1.245 . S
C222 C218 1.477 . S
C222 H239 0.932 . S
C223 U206 2.882 . S
C223 C217 1.428 . S
C223 O226 1.301 . S
C223 O227 1.282 . S
O224 U206 2.441 . S
O224 C210 1.249 . S
O225 U206 2.420 . S
O225 C210 1.202 . S
O226 U206 2.455 . S
O226 C223 1.301 . S
O227 U206 2.449 . S
O227 C223 1.282 . S
H228 C201 0.931 . S
H229 C203 0.929 . S
H230 C204 0.930 . S
H231 C205 0.931 . S
H232 C212 0.932 . S
H233 C213 0.930 . S
H234 C214 0.929 . S
H235 C216 0.930 . S
H236 C218 0.932 . S
H237 C219 0.929 . S
H238 C220 0.928 . S
H239 C222 0.932 . S
C240 C241 1.264 1_565 S
C240 C245 1.479 . S
C240 C250 1.465 . S
C241 C240 1.264 1_545 S
C241 C243 1.339 . S
C241 H268 0.931 . S
C242 C243 1.395 . S
C242 C244 1.320 1_545 S
C243 C241 1.339 . S
C243 C242 1.395 . S
C243 H269 0.929 . S
C244 C242 1.320 1_565 S
C244 C245 1.405 . S
C244 H270 0.930 . S
C245 C240 1.479 . S
C245 C244 1.405 . S
C245 H271 0.931 . S
U246 O247 2.454 . S
U246 O248 2.458 . S
U246 C249 2.984 . S
U246 C250 2.847 . S
U246 C263 2.882 1_565 S
U246 O264 2.441 . S
U246 O265 2.420 . S
U246 O266 2.455 1_565 S
U246 O267 2.449 1_565 S
O247 U246 2.454 . S
O247 C249 1.353 . S
O248 U246 2.458 . S
O248 C249 1.286 . S
C249 U246 2.984 . S
C249 O247 1.353 . S
C249 O248 1.286 . S
C249 C251 1.363 . S
C250 C240 1.465 . S
C250 U246 2.847 . S
C250 O264 1.249 . S
C250 O265 1.202 . S
C251 C249 1.363 . S
C251 C253 1.408 . S
C251 C256 1.342 . S
C252 C253 1.310 . S
C252 C255 1.461 . S
C252 H272 0.932 . S
C253 C251 1.408 . S
C253 C252 1.310 . S
C253 H273 0.930 . S
C254 C255 1.474 . S
C254 C256 1.285 . S
C254 H274 0.929 . S
C255 C252 1.461 . S
C255 C254 1.474 . S
C256 C251 1.342 . S
C256 C254 1.285 . S
C256 H275 0.930 . S
C257 C260 1.424 . S
C257 C262 1.245 . S
C257 C263 1.428 . S
C258 C261 1.260 . S
C258 C262 1.477 . S
C258 H276 0.932 . S
C259 C260 1.384 . S
C259 C261 1.479 . S
C259 H277 0.929 . S
C260 C257 1.424 . S
C260 C259 1.384 . S
C260 H278 0.928 . S
C261 C258 1.260 . S
C261 C259 1.479 . S
C262 C257 1.245 . S
C262 C258 1.477 . S
C262 H279 0.932 . S
C263 U246 2.882 1_545 S
C263 C257 1.428 . S
C263 O266 1.301 . S
C263 O267 1.282 . S
O264 U246 2.441 . S
O264 C250 1.249 . S
O265 U246 2.420 . S
O265 C250 1.202 . S
O266 U246 2.455 1_545 S
O266 C263 1.301 . S
O267 U246 2.449 1_545 S
O267 C263 1.282 . S
H268 C241 0.931 . S
H269 C243 0.929 . S
H270 C244 0.930 . S
H271 C245 0.931 . S
H272 C252 0.932 . S
H273 C253 0.930 . S
H274 C254 0.929 . S
H275 C256 0.930 . S
H276 C258 0.932 . S
H277 C259 0.929 . S
H278 C260 0.928 . S
H279 C262 0.932 . S
C280 C281 1.264 . S
C280 C285 1.479 . S
C280 C290 1.465 . S
C281 C280 1.264 . S
C281 C283 1.339 . S
C281 H308 0.931 . S
C282 C283 1.395 . S
C282 C284 1.320 . S
C283 C281 1.339 . S
C283 C282 1.395 . S
C283 H309 0.929 . S
C284 C282 1.320 . S
C284 C285 1.405 . S
C284 H310 0.930 . S
C285 C280 1.479 . S
C285 C284 1.405 . S
C285 H311 0.931 . S
U286 O287 2.454 . S
U286 O288 2.458 . S
U286 C289 2.984 . S
U286 C290 2.847 . S
U286 C303 2.882 . S
U286 O304 2.441 . S
U286 O305 2.420 . S
U286 O306 2.455 . S
U286 O307 2.449 . S
O287 U286 2.454 . S
O287 C289 1.353 . S
O288 U286 2.458 . S
O288 C289 1.286 . S
C289 U286 2.984 . S
C289 O287 1.353 . S
C289 O288 1.286 . S
C289 C291 1.363 . S
C290 C280 1.465 . S
C290 U286 2.847 . S
C290 O304 1.249 . S
C290 O305 1.202 . S
C291 C289 1.363 . S
C291 C293 1.408 . S
C291 C296 1.342 . S
C292 C293 1.310 . S
C292 C295 1.461 . S
C292 H312 0.932 . S
C293 C291 1.408 . S
C293 C292 1.310 . S
C293 H313 0.930 . S
C294 C295 1.474 . S
C294 C296 1.285 . S
C294 H314 0.929 . S
C295 C292 1.461 . S
C295 C294 1.474 . S
C296 C291 1.342 . S
C296 C294 1.285 . S
C296 H315 0.930 . S
C297 C300 1.424 . S
C297 C302 1.245 . S
C297 C303 1.428 . S
C298 C301 1.260 . S
C298 C302 1.477 . S
C298 H316 0.932 . S
C299 C300 1.384 . S
C299 C301 1.479 . S
C299 H317 0.929 . S
C300 C297 1.424 . S
C300 C299 1.384 . S
C300 H318 0.928 . S
C301 C298 1.260 . S
C301 C299 1.479 . S
C302 C297 1.245 . S
C302 C298 1.477 . S
C302 H319 0.932 . S
C303 U286 2.882 . S
C303 C297 1.428 . S
C303 O306 1.301 . S
C303 O307 1.282 . S
O304 U286 2.441 . S
O304 C290 1.249 . S
O305 U286 2.420 . S
O305 C290 1.202 . S
O306 U286 2.455 . S
O306 C303 1.301 . S
O307 U286 2.449 . S
O307 C303 1.282 . S
H308 C281 0.931 . S
H309 C283 0.929 . S
H310 C284 0.930 . S
H311 C285 0.931 . S
H312 C292 0.932 . S
H313 C293 0.930 . S
H314 C294 0.929 . S
H315 C296 0.930 . S
H316 C298 0.932 . S
H317 C299 0.929 . S
H318 C300 0.928 . S
H319 C302 0.932 . S
C320 C321 1.264 . S
C320 C325 1.479 . S
C320 C330 1.465 . S
C321 C320 1.264 . S
C321 C323 1.339 . S
C321 H348 0.931 . S
C322 C323 1.395 . S
C322 C324 1.320 . S
C323 C321 1.339 . S
C323 C322 1.395 . S
C323 H349 0.929 . S
C324 C322 1.320 . S
C324 C325 1.405 . S
C324 H350 0.930 . S
C325 C320 1.479 . S
C325 C324 1.405 . S
C325 H351 0.931 . S
U326 O327 2.454 . S
U326 O328 2.458 . S
U326 C329 2.984 . S
U326 C330 2.847 . S
U326 C343 2.882 . S
U326 O344 2.441 . S
U326 O345 2.420 . S
U326 O346 2.455 . S
U326 O347 2.449 . S
O327 U326 2.454 . S
O327 C329 1.353 . S
O328 U326 2.458 . S
O328 C329 1.286 . S
C329 U326 2.984 . S
C329 O327 1.353 . S
C329 O328 1.286 . S
C329 C331 1.363 . S
C330 C320 1.465 . S
C330 U326 2.847 . S
C330 O344 1.249 . S
C330 O345 1.202 . S
C331 C329 1.363 . S
C331 C333 1.408 . S
C331 C336 1.342 . S
C332 C333 1.310 . S
C332 C335 1.461 . S
C332 H352 0.932 . S
C333 C331 1.408 . S
C333 C332 1.310 . S
C333 H353 0.930 . S
C334 C335 1.474 . S
C334 C336 1.285 . S
C334 H354 0.929 . S
C335 C332 1.461 . S
C335 C334 1.474 . S
C336 C331 1.342 . S
C336 C334 1.285 . S
C336 H355 0.930 . S
C337 C340 1.424 . S
C337 C342 1.245 . S
C337 C343 1.428 . S
C338 C341 1.260 . S
C338 C342 1.477 . S
C338 H356 0.932 . S
C339 C340 1.384 . S
C339 C341 1.479 . S
C339 H357 0.929 . S
C340 C337 1.424 . S
C340 C339 1.384 . S
C340 H358 0.928 . S
C341 C338 1.260 . S
C341 C339 1.479 . S
C342 C337 1.245 . S
C342 C338 1.477 . S
C342 H359 0.932 . S
C343 U326 2.882 . S
C343 C337 1.428 . S
C343 O346 1.301 . S
C343 O347 1.282 . S
O344 U326 2.441 . S
O344 C330 1.249 . S
O345 U326 2.420 . S
O345 C330 1.202 . S
O346 U326 2.455 . S
O346 C343 1.301 . S
O347 U326 2.449 . S
O347 C343 1.282 . S
H348 C321 0.931 . S
H349 C323 0.929 . S
H350 C324 0.930 . S
H351 C325 0.931 . S
H352 C332 0.932 . S
H353 C333 0.930 . S
H354 C334 0.929 . S
H355 C336 0.930 . S
H356 C338 0.932 . S
H357 C339 0.929 . S
H358 C340 0.928 . S
H359 C342 0.932 . S
C360 C361 1.264 . S
C360 C365 1.479 . S
C360 C370 1.465 . S
C361 C360 1.264 . S
C361 C363 1.339 . S
C361 H388 0.931 . S
C362 C363 1.395 . S
C362 C364 1.320 . S
C363 C361 1.339 . S
C363 C362 1.395 . S
C363 H389 0.929 . S
C364 C362 1.320 . S
C364 C365 1.405 . S
C364 H390 0.930 . S
C365 C360 1.479 . S
C365 C364 1.405 . S
C365 H391 0.931 . S
U366 O367 2.454 . S
U366 O368 2.458 . S
U366 C369 2.984 . S
U366 C370 2.847 . S
U366 C383 2.882 . S
U366 O384 2.441 . S
U366 O385 2.420 . S
U366 O386 2.455 . S
U366 O387 2.449 . S
O367 U366 2.454 . S
O367 C369 1.353 . S
O368 U366 2.458 . S
O368 C369 1.286 . S
C369 U366 2.984 . S
C369 O367 1.353 . S
C369 O368 1.286 . S
C369 C371 1.363 . S
C370 C360 1.465 . S
C370 U366 2.847 . S
C370 O384 1.249 . S
C370 O385 1.202 . S
C371 C369 1.363 . S
C371 C373 1.408 . S
C371 C376 1.342 . S
C372 C373 1.310 . S
C372 C375 1.461 . S
C372 H392 0.932 . S
C373 C371 1.408 . S
C373 C372 1.310 . S
C373 H393 0.930 . S
C374 C375 1.474 . S
C374 C376 1.285 . S
C374 H394 0.929 . S
C375 C372 1.461 . S
C375 C374 1.474 . S
C376 C371 1.342 . S
C376 C374 1.285 . S
C376 H395 0.930 . S
C377 C380 1.424 . S
C377 C382 1.245 . S
C377 C383 1.428 . S
C378 C381 1.260 . S
C378 C382 1.477 . S
C378 H396 0.932 . S
C379 C380 1.384 . S
C379 C381 1.479 . S
C379 H397 0.929 . S
C380 C377 1.424 . S
C380 C379 1.384 . S
C380 H398 0.928 . S
C381 C378 1.260 . S
C381 C379 1.479 . S
C382 C377 1.245 . S
C382 C378 1.477 . S
C382 H399 0.932 . S
C383 U366 2.882 . S
C383 C377 1.428 . S
C383 O386 1.301 . S
C383 O387 1.282 . S
O384 U366 2.441 . S
O384 C370 1.249 . S
O385 U366 2.420 . S
O385 C370 1.202 . S
O386 U366 2.455 . S
O386 C383 1.301 . S
O387 U366 2.449 . S
O387 C383 1.282 . S
H388 C361 0.931 . S
H389 C363 0.929 . S
H390 C364 0.930 . S
H391 C365 0.931 . S
H392 C372 0.932 . S
H393 C373 0.930 . S
H394 C374 0.929 . S
H395 C376 0.930 . S
H396 C378 0.932 . S
H397 C379 0.929 . S
H398 C380 0.928 . S
H399 C382 0.932 . S
C400 C401 1.264 . S
C400 C405 1.479 . S
C400 C410 1.465 . S
C401 C400 1.264 . S
C401 C403 1.339 . S
C401 H428 0.931 . S
C402 C403 1.395 . S
C402 C404 1.320 . S
C403 C401 1.339 . S
C403 C402 1.395 . S
C403 H429 0.929 . S
C404 C402 1.320 . S
C404 C405 1.405 . S
C404 H430 0.930 . S
C405 C400 1.479 . S
C405 C404 1.405 . S
C405 H431 0.931 . S
U406 O407 2.454 . S
U406 O408 2.458 . S
U406 C409 2.984 . S
U406 C410 2.847 1_554 S
U406 C423 2.882 . S
U406 O424 2.441 1_554 S
U406 O425 2.420 1_554 S
U406 O426 2.455 . S
U406 O427 2.449 1_554 S
O407 U406 2.454 . S
O407 C409 1.353 . S
O408 U406 2.458 . S
O408 C409 1.286 . S
C409 U406 2.984 . S
C409 O407 1.353 . S
C409 O408 1.286 . S
C409 C411 1.363 . S
C410 C400 1.465 . S
C410 U406 2.847 1_556 S
C410 O424 1.249 . S
C410 O425 1.202 . S
C411 C409 1.363 . S
C411 C413 1.408 . S
C411 C416 1.342 . S
C412 C413 1.310 . S
C412 C415 1.461 . S
C412 H432 0.932 . S
C413 C411 1.408 . S
C413 C412 1.310 . S
C413 H433 0.930 . S
C414 C415 1.474 . S
C414 C416 1.285 . S
C414 H434 0.929 . S
C415 C412 1.461 . S
C415 C414 1.474 . S
C416 C411 1.342 . S
C416 C414 1.285 . S
C416 H435 0.930 . S
C417 C420 1.424 1_554 S
C417 C422 1.245 . S
C417 C423 1.428 . S
C418 C421 1.260 . S
C418 C422 1.477 . S
C418 H436 0.932 . S
C419 C420 1.384 . S
C419 C421 1.479 1_556 S
C419 H437 0.929 . S
C420 C417 1.424 1_556 S
C420 C419 1.384 . S
C420 H438 0.928 . S
C421 C418 1.260 . S
C421 C419 1.479 1_554 S
C422 C417 1.245 . S
C422 C418 1.477 . S
C422 H439 0.932 . S
C423 U406 2.882 . S
C423 C417 1.428 . S
C423 O426 1.301 . S
C423 O427 1.282 1_554 S
O424 U406 2.441 1_556 S
O424 C410 1.249 . S
O425 U406 2.420 1_556 S
O425 C410 1.202 . S
O426 U406 2.455 . S
O426 C423 1.301 . S
O427 U406 2.449 1_556 S
O427 C423 1.282 1_556 S
H428 C401 0.931 . S
H429 C403 0.929 . S
H430 C404 0.930 . S
H431 C405 0.931 . S
H432 C412 0.932 . S
H433 C413 0.930 . S
H434 C414 0.929 . S
H435 C416 0.930 . S
H436 C418 0.932 . S
H437 C419 0.929 . S
H438 C420 0.928 . S
H439 C422 0.932 . S
C440 C441 1.264 . S
C440 C445 1.479 . S
C440 C450 1.465 . S
C441 C440 1.264 . S
C441 C443 1.339 . S
C441 H468 0.931 . S
C442 C443 1.395 . S
C442 C444 1.320 . S
C443 C441 1.339 . S
C443 C442 1.395 . S
C443 H469 0.929 . S
C444 C442 1.320 . S
C444 C445 1.405 . S
C444 H470 0.930 . S
C445 C440 1.479 . S
C445 C444 1.405 . S
C445 H471 0.931 . S
U446 O447 2.454 . S
U446 O448 2.458 . S
U446 C449 2.984 . S
U446 C450 2.847 . S
U446 C463 2.882 . S
U446 O464 2.441 . S
U446 O465 2.420 . S
U446 O466 2.455 . S
U446 O467 2.449 . S
O447 U446 2.454 . S
O447 C449 1.353 . S
O448 U446 2.458 . S
O448 C449 1.286 . S
C449 U446 2.984 . S
C449 O447 1.353 . S
C449 O448 1.286 . S
C449 C451 1.363 . S
C450 C440 1.465 . S
C450 U446 2.847 . S
C450 O464 1.249 . S
C450 O465 1.202 . S
C451 C449 1.363 . S
C451 C453 1.408 . S
C451 C456 1.342 . S
C452 C453 1.310 . S
C452 C455 1.461 . S
C452 H472 0.932 . S
C453 C451 1.408 . S
C453 C452 1.310 . S
C453 H473 0.930 . S
C454 C455 1.474 . S
C454 C456 1.285 . S
C454 H474 0.929 . S
C455 C452 1.461 . S
C455 C454 1.474 . S
C456 C451 1.342 . S
C456 C454 1.285 . S
C456 H475 0.930 . S
C457 C460 1.424 . S
C457 C462 1.245 . S
C457 C463 1.428 . S
C458 C461 1.260 . S
C458 C462 1.477 . S
C458 H476 0.932 . S
C459 C460 1.384 . S
C459 C461 1.479 . S
C459 H477 0.929 . S
C460 C457 1.424 . S
C460 C459 1.384 . S
C460 H478 0.928 . S
C461 C458 1.260 . S
C461 C459 1.479 . S
C462 C457 1.245 . S
C462 C458 1.477 . S
C462 H479 0.932 . S
C463 U446 2.882 . S
C463 C457 1.428 . S
C463 O466 1.301 . S
C463 O467 1.282 . S
O464 U446 2.441 . S
O464 C450 1.249 . S
O465 U446 2.420 . S
O465 C450 1.202 . S
O466 U446 2.455 . S
O466 C463 1.301 . S
O467 U446 2.449 . S
O467 C463 1.282 . S
H468 C441 0.931 . S
H469 C443 0.929 . S
H470 C444 0.930 . S
H471 C445 0.931 . S
H472 C452 0.932 . S
H473 C453 0.930 . S
H474 C454 0.929 . S
H475 C456 0.930 . S
H476 C458 0.932 . S
H477 C459 0.929 . S
H478 C460 0.928 . S
H479 C462 0.932 . S
C480 C481 1.264 . S
C480 C485 1.479 . S
C480 C490 1.465 . S
C481 C480 1.264 . S
C481 C483 1.339 . S
C481 H508 0.931 . S
C482 C483 1.395 . S
C482 C484 1.320 . S
C483 C481 1.339 . S
C483 C482 1.395 . S
C483 H509 0.929 . S
C484 C482 1.320 . S
C484 C485 1.405 . S
C484 H510 0.930 . S
C485 C480 1.479 . S
C485 C484 1.405 . S
C485 H511 0.931 . S
U486 O487 2.454 . S
U486 O488 2.458 . S
U486 C489 2.984 . S
U486 C490 2.847 . S
U486 C503 2.882 . S
U486 O504 2.441 . S
U486 O505 2.420 . S
U486 O506 2.455 . S
U486 O507 2.449 . S
O487 U486 2.454 . S
O487 C489 1.353 . S
O488 U486 2.458 . S
O488 C489 1.286 . S
C489 U486 2.984 . S
C489 O487 1.353 . S
C489 O488 1.286 . S
C489 C491 1.363 . S
C490 C480 1.465 . S
C490 U486 2.847 . S
C490 O504 1.249 . S
C490 O505 1.202 . S
C491 C489 1.363 . S
C491 C493 1.408 . S
C491 C496 1.342 . S
C492 C493 1.310 . S
C492 C495 1.461 . S
C492 H512 0.932 . S
C493 C491 1.408 . S
C493 C492 1.310 . S
C493 H513 0.930 . S
C494 C495 1.474 . S
C494 C496 1.285 . S
C494 H514 0.929 . S
C495 C492 1.461 . S
C495 C494 1.474 . S
C496 C491 1.342 . S
C496 C494 1.285 . S
C496 H515 0.930 . S
C497 C500 1.424 . S
C497 C502 1.245 . S
C497 C503 1.428 . S
C498 C501 1.260 . S
C498 C502 1.477 . S
C498 H516 0.932 . S
C499 C500 1.384 . S
C499 C501 1.479 . S
C499 H517 0.929 . S
C500 C497 1.424 . S
C500 C499 1.384 . S
C500 H518 0.928 . S
C501 C498 1.260 . S
C501 C499 1.479 . S
C502 C497 1.245 . S
C502 C498 1.477 . S
C502 H519 0.932 . S
C503 U486 2.882 . S
C503 C497 1.428 . S
C503 O506 1.301 . S
C503 O507 1.282 . S
O504 U486 2.441 . S
O504 C490 1.249 . S
O505 U486 2.420 . S
O505 C490 1.202 . S
O506 U486 2.455 . S
O506 C503 1.301 . S
O507 U486 2.449 . S
O507 C503 1.282 . S
H508 C481 0.931 . S
H509 C483 0.929 . S
H510 C484 0.930 . S
H511 C485 0.931 . S
H512 C492 0.932 . S
H513 C493 0.930 . S
H514 C494 0.929 . S
H515 C496 0.930 . S
H516 C498 0.932 . S
H517 C499 0.929 . S
H518 C500 0.928 . S
H519 C502 0.932 . S
C520 C521 1.264 . S
C520 C525 1.479 . S
C520 C530 1.465 . S
C521 C520 1.264 . S
C521 C523 1.339 . S
C521 H548 0.931 . S
C522 C523 1.395 . S
C522 C524 1.320 . S
C523 C521 1.339 . S
C523 C522 1.395 . S
C523 H549 0.929 . S
C524 C522 1.320 . S
C524 C525 1.405 . S
C524 H550 0.930 . S
C525 C520 1.479 . S
C525 C524 1.405 . S
C525 H551 0.931 . S
U526 O527 2.454 . S
U526 O528 2.458 . S
U526 C529 2.984 . S
U526 C530 2.847 . S
U526 C543 2.882 . S
U526 O544 2.441 . S
U526 O545 2.420 . S
U526 O546 2.455 . S
U526 O547 2.449 . S
O527 U526 2.454 . S
O527 C529 1.353 . S
O528 U526 2.458 . S
O528 C529 1.286 . S
C529 U526 2.984 . S
C529 O527 1.353 . S
C529 O528 1.286 . S
C529 C531 1.363 . S
C530 C520 1.465 . S
C530 U526 2.847 . S
C530 O544 1.249 . S
C530 O545 1.202 . S
C531 C529 1.363 . S
C531 C533 1.408 . S
C531 C536 1.342 . S
C532 C533 1.310 . S
C532 C535 1.461 . S
C532 H552 0.932 . S
C533 C531 1.408 . S
C533 C532 1.310 . S
C533 H553 0.930 . S
C534 C535 1.474 . S
C534 C536 1.285 . S
C534 H554 0.929 . S
C535 C532 1.461 . S
C535 C534 1.474 . S
C536 C531 1.342 . S
C536 C534 1.285 . S
C536 H555 0.930 . S
C537 C540 1.424 . S
C537 C542 1.245 . S
C537 C543 1.428 . S
C538 C541 1.260 . S
C538 C542 1.477 . S
C538 H556 0.932 . S
C539 C540 1.384 . S
C539 C541 1.479 . S
C539 H557 0.929 . S
C540 C537 1.424 . S
C540 C539 1.384 . S
C540 H558 0.928 . S
C541 C538 1.260 . S
C541 C539 1.479 . S
C542 C537 1.245 . S
C542 C538 1.477 . S
C542 H559 0.932 . S
C543 U526 2.882 . S
C543 C537 1.428 . S
C543 O546 1.301 . S
C543 O547 1.282 . S
O544 U526 2.441 . S
O544 C530 1.249 . S
O545 U526 2.420 . S
O545 C530 1.202 . S
O546 U526 2.455 . S
O546 C543 1.301 . S
O547 U526 2.449 . S
O547 C543 1.282 . S
H548 C521 0.931 . S
H549 C523 0.929 . S
H550 C524 0.930 . S
H551 C525 0.931 . S
H552 C532 0.932 . S
H553 C533 0.930 . S
H554 C534 0.929 . S
H555 C536 0.930 . S
H556 C538 0.932 . S
H557 C539 0.929 . S
H558 C540 0.928 . S
H559 C542 0.932 . S
C560 C561 1.264 . S
C560 C565 1.479 . S
C560 C570 1.465 . S
C561 C560 1.264 . S
C561 C563 1.339 . S
C561 H588 0.931 . S
C562 C563 1.395 . S
C562 C564 1.320 . S
C563 C561 1.339 . S
C563 C562 1.395 . S
C563 H589 0.929 . S
C564 C562 1.320 . S
C564 C565 1.405 . S
C564 H590 0.930 1_554 S
C565 C560 1.479 . S
C565 C564 1.405 . S
C565 H591 0.931 1_554 S
U566 O567 2.454 1_554 S
U566 O568 2.458 . S
U566 C569 2.984 1_554 S
U566 C570 2.847 . S
U566 C583 2.882 . S
U566 O584 2.441 . S
U566 O585 2.420 . S
U566 O586 2.455 . S
U566 O587 2.449 . S
O567 U566 2.454 1_556 S
O567 C569 1.353 . S
O568 U566 2.458 . S
O568 C569 1.286 1_554 S
C569 U566 2.984 1_556 S
C569 O567 1.353 . S
C569 O568 1.286 1_556 S
C569 C571 1.363 . S
C570 C560 1.465 . S
C570 U566 2.847 . S
C570 O584 1.249 . S
C570 O585 1.202 . S
C571 C569 1.363 . S
C571 C573 1.408 . S
C571 C576 1.342 . S
C572 C573 1.310 . S
C572 C575 1.461 . S
C572 H592 0.932 . S
C573 C571 1.408 . S
C573 C572 1.310 . S
C573 H593 0.930 . S
C574 C575 1.474 . S
C574 C576 1.285 . S
C574 H594 0.929 . S
C575 C572 1.461 . S
C575 C574 1.474 . S
C576 C571 1.342 . S
C576 C574 1.285 . S
C576 H595 0.930 . S
C577 C580 1.424 . S
C577 C582 1.245 . S
C577 C583 1.428 . S
C578 C581 1.260 . S
C578 C582 1.477 . S
C578 H596 0.932 . S
C579 C580 1.384 . S
C579 C581 1.479 . S
C579 H597 0.929 . S
C580 C577 1.424 . S
C580 C579 1.384 . S
C580 H598 0.928 . S
C581 C578 1.260 . S
C581 C579 1.479 . S
C582 C577 1.245 . S
C582 C578 1.477 . S
C582 H599 0.932 . S
C583 U566 2.882 . S
C583 C577 1.428 . S
C583 O586 1.301 . S
C583 O587 1.282 . S
O584 U566 2.441 . S
O584 C570 1.249 . S
O585 U566 2.420 . S
O585 C570 1.202 . S
O586 U566 2.455 . S
O586 C583 1.301 . S
O587 U566 2.449 . S
O587 C583 1.282 . S
H588 C561 0.931 . S
H589 C563 0.929 . S
H590 C564 0.930 1_556 S
H591 C565 0.931 1_556 S
H592 C572 0.932 . S
H593 C573 0.930 . S
H594 C574 0.929 . S
H595 C576 0.930 . S
H596 C578 0.932 . S
H597 C579 0.929 . S
H598 C580 0.928 . S
H599 C582 0.932 . S
C600 C601 1.264 . S
C600 C605 1.479 . S
C600 C610 1.465 . S
C601 C600 1.264 . S
C601 C603 1.339 . S
C601 H628 0.931 . S
C602 C603 1.395 . S
C602 C604 1.320 . S
C603 C601 1.339 . S
C603 C602 1.395 . S
C603 H629 0.929 . S
C604 C602 1.320 . S
C604 C605 1.405 . S
C604 H630 0.930 . S
C605 C600 1.479 . S
C605 C604 1.405 . S
C605 H631 0.931 . S
U606 O607 2.454 . S
U606 O608 2.458 . S
U606 C609 2.984 . S
U606 C610 2.847 . S
U606 C623 2.882 . S
U606 O624 2.441 . S
U606 O625 2.420 . S
U606 O626 2.455 . S
U606 O627 2.449 . S
O607 U606 2.454 . S
O607 C609 1.353 . S
O608 U606 2.458 . S
O608 C609 1.286 . S
C609 U606 2.984 . S
C609 O607 1.353 . S
C609 O608 1.286 . S
C609 C611 1.363 . S
C610 C600 1.465 . S
C610 U606 2.847 . S
C610 O624 1.249 . S
C610 O625 1.202 . S
C611 C609 1.363 . S
C611 C613 1.408 . S
C611 C616 1.342 . S
C612 C613 1.310 . S
C612 C615 1.461 . S
C612 H632 0.932 . S
C613 C611 1.408 . S
C613 C612 1.310 . S
C613 H633 0.930 . S
C614 C615 1.474 . S
C614 C616 1.285 . S
C614 H634 0.929 . S
C615 C612 1.461 . S
C615 C614 1.474 . S
C616 C611 1.342 . S
C616 C614 1.285 . S
C616 H635 0.930 . S
C617 C620 1.424 . S
C617 C622 1.245 . S
C617 C623 1.428 . S
C618 C621 1.260 . S
C618 C622 1.477 . S
C618 H636 0.932 . S
C619 C620 1.384 . S
C619 C621 1.479 . S
C619 H637 0.929 . S
C620 C617 1.424 . S
C620 C619 1.384 . S
C620 H638 0.928 . S
C621 C618 1.260 . S
C621 C619 1.479 . S
C622 C617 1.245 . S
C622 C618 1.477 . S
C622 H639 0.932 . S
C623 U606 2.882 . S
C623 C617 1.428 . S
C623 O626 1.301 . S
C623 O627 1.282 . S
O624 U606 2.441 . S
O624 C610 1.249 . S
O625 U606 2.420 . S
O625 C610 1.202 . S
O626 U606 2.455 . S
O626 C623 1.301 . S
O627 U606 2.449 . S
O627 C623 1.282 . S
H628 C601 0.931 . S
H629 C603 0.929 . S
H630 C604 0.930 . S
H631 C605 0.931 . S
H632 C612 0.932 . S
H633 C613 0.930 . S
H634 C614 0.929 . S
H635 C616 0.930 . S
H636 C618 0.932 . S
H637 C619 0.929 . S
H638 C620 0.928 . S
H639 C622 0.932 . S
H640 C658 0.951 . S
H641 C660 0.951 . S
H642 C662 0.950 . S
H643 C663 0.950 . S
H644 C665 0.950 . S
H645 C668 0.950 . S
H646 C669 0.950 . S
H647 C671 0.950 . S
H648 C672 0.950 . S
H649 C673 0.951 . S
H650 C675 0.951 . S
H651 C677 0.950 . S
H652 C678 0.950 . S
H653 C680 0.950 . S
H654 C683 0.950 . S
H655 C684 0.950 . S
H656 C686 0.950 . S
H657 C687 0.950 . S
C658 H640 0.951 . S
C658 C659 1.366 . S
C658 C660 1.388 . S
C659 C658 1.366 . S
C659 C663 1.385 . S
C660 H641 0.951 . S
C660 C658 1.388 . S
C660 C661 1.366 . S
C661 C660 1.366 . S
C661 C662 1.414 . S
C661 C664 1.499 . S
C662 H642 0.950 . S
C662 C661 1.414 . S
C662 C663 1.374 . S
C663 H643 0.950 . S
C663 C659 1.385 . S
C663 C662 1.374 . S
C664 C661 1.499 . S
C664 C665 1.373 . S
C664 C666 1.389 . S
C665 H644 0.950 . S
C665 C664 1.373 . S
C665 C681 1.377 . S
C666 C664 1.389 . S
C666 C667 1.524 . S
C666 C680 1.377 . S
C667 C666 1.524 . S
C667 C668 1.397 . S
C667 C672 1.363 . S
C668 H645 0.950 . S
C668 C667 1.397 . S
C668 C669 1.334 . S
C669 H646 0.950 . S
C669 C668 1.334 . S
C669 C670 1.287 . S
C670 C669 1.287 . S
C670 C671 1.524 . S
C670 H689 0.913 . S
C671 H647 0.950 . S
C671 C670 1.524 . S
C671 C672 1.415 . S
C672 H648 0.950 . S
C672 C667 1.363 . S
C672 C671 1.415 . S
C673 H649 0.951 . S
C673 C674 1.366 . S
C673 C675 1.388 . S
C674 C673 1.366 . S
C674 C678 1.385 . S
C675 H650 0.951 . S
C675 C673 1.388 . S
C675 C676 1.366 . S
C676 C675 1.366 . S
C676 C677 1.414 . S
C676 C679 1.499 . S
C677 H651 0.950 . S
C677 C676 1.414 . S
C677 C678 1.374 . S
C678 H652 0.950 . S
C678 C674 1.385 . S
C678 C677 1.374 . S
C679 C676 1.499 . S
C679 C680 1.373 . S
C679 C681 1.389 . S
C680 H653 0.950 . S
C680 C666 1.377 . S
C680 C679 1.373 . S
C681 C665 1.377 . S
C681 C679 1.389 . S
C681 C682 1.524 . S
C682 C681 1.524 . S
C682 C683 1.397 . S
C682 C687 1.363 . S
C683 H654 0.950 . S
C683 C682 1.397 . S
C683 C684 1.334 . S
C684 H655 0.950 . S
C684 C683 1.334 . S
C684 C685 1.287 . S
C685 C684 1.287 . S
C685 C686 1.524 . S
C685 H688 0.999 . S
C686 H656 0.950 . S
C686 C685 1.524 . S
C686 C687 1.415 . S
C687 H657 0.950 . S
C687 C682 1.363 . S
C687 C686 1.415 . S
H688 C685 0.999 . S
H689 C670 0.913 . S
H690 C708 0.951 . S
H691 C710 0.951 . S
H692 C712 0.950 . S
H693 C713 0.950 . S
H694 C715 0.950 . S
H695 C718 0.950 . S
H696 C719 0.950 . S
H697 C721 0.950 . S
H698 C722 0.950 . S
H699 C723 0.951 . S
H700 C725 0.951 . S
H701 C727 0.950 . S
H702 C728 0.950 . S
H703 C730 0.950 . S
H704 C733 0.950 . S
H705 C734 0.950 . S
H706 C736 0.950 . S
H707 C737 0.950 . S
C708 H690 0.951 . S
C708 C709 1.366 . S
C708 C710 1.388 . S
C709 C708 1.366 . S
C709 C713 1.385 . S
C710 H691 0.951 . S
C710 C708 1.388 . S
C710 C711 1.366 . S
C711 C710 1.366 . S
C711 C712 1.414 . S
C711 C714 1.499 . S
C712 H692 0.950 . S
C712 C711 1.414 . S
C712 C713 1.374 . S
C713 H693 0.950 . S
C713 C709 1.385 . S
C713 C712 1.374 . S
C714 C711 1.499 . S
C714 C715 1.373 . S
C714 C716 1.389 . S
C715 H694 0.950 . S
C715 C714 1.373 . S
C715 C731 1.377 . S
C716 C714 1.389 . S
C716 C717 1.524 . S
C716 C730 1.377 . S
C717 C716 1.524 . S
C717 C718 1.397 . S
C717 C722 1.363 . S
C718 H695 0.950 . S
C718 C717 1.397 . S
C718 C719 1.334 . S
C719 H696 0.950 . S
C719 C718 1.334 . S
C719 C720 1.287 . S
C720 C719 1.287 . S
C720 C721 1.524 . S
C720 H739 0.913 . S
C721 H697 0.950 . S
C721 C720 1.524 . S
C721 C722 1.415 . S
C722 H698 0.950 . S
C722 C717 1.363 . S
C722 C721 1.415 . S
C723 H699 0.951 . S
C723 C724 1.366 . S
C723 C725 1.388 . S
C724 C723 1.366 . S
C724 C728 1.385 . S
C725 H700 0.951 . S
C725 C723 1.388 . S
C725 C726 1.366 . S
C726 C725 1.366 . S
C726 C727 1.414 . S
C726 C729 1.499 . S
C727 H701 0.950 . S
C727 C726 1.414 . S
C727 C728 1.374 . S
C728 H702 0.950 . S
C728 C724 1.385 . S
C728 C727 1.374 . S
C729 C726 1.499 . S
C729 C730 1.373 . S
C729 C731 1.389 . S
C730 H703 0.950 . S
C730 C716 1.377 . S
C730 C729 1.373 . S
C731 C715 1.377 . S
C731 C729 1.389 . S
C731 C732 1.524 . S
C732 C731 1.524 . S
C732 C733 1.397 . S
C732 C737 1.363 . S
C733 H704 0.950 . S
C733 C732 1.397 . S
C733 C734 1.334 . S
C734 H705 0.950 . S
C734 C733 1.334 . S
C734 C735 1.287 . S
C735 C734 1.287 . S
C735 C736 1.524 . S
C735 H738 0.999 . S
C736 H706 0.950 . S
C736 C735 1.524 . S
C736 C737 1.415 . S
C737 H707 0.950 . S
C737 C732 1.363 . S
C737 C736 1.415 . S
H738 C735 0.999 . S
H739 C720 0.913 . S
H740 C758 0.951 . S
H741 C760 0.951 . S
H742 C762 0.950 . S
H743 C763 0.950 . S
H744 C765 0.950 . S
H745 C768 0.950 . S
H746 C769 0.950 . S
H747 C771 0.950 . S
H748 C772 0.950 . S
H749 C773 0.951 . S
H750 C775 0.951 . S
H751 C777 0.950 . S
H752 C778 0.950 . S
H753 C780 0.950 . S
H754 C783 0.950 . S
H755 C784 0.950 . S
H756 C786 0.950 . S
H757 C787 0.950 . S
C758 H740 0.951 . S
C758 C759 1.366 . S
C758 C760 1.388 . S
C759 C758 1.366 . S
C759 C763 1.385 . S
C760 H741 0.951 . S
C760 C758 1.388 . S
C760 C761 1.366 . S
C761 C760 1.366 . S
C761 C762 1.414 . S
C761 C764 1.499 . S
C762 H742 0.950 . S
C762 C761 1.414 . S
C762 C763 1.374 . S
C763 H743 0.950 . S
C763 C759 1.385 . S
C763 C762 1.374 . S
C764 C761 1.499 . S
C764 C765 1.373 . S
C764 C766 1.389 . S
C765 H744 0.950 . S
C765 C764 1.373 . S
C765 C781 1.377 . S
C766 C764 1.389 . S
C766 C767 1.524 . S
C766 C780 1.377 . S
C767 C766 1.524 . S
C767 C768 1.397 . S
C767 C772 1.363 . S
C768 H745 0.950 . S
C768 C767 1.397 . S
C768 C769 1.334 . S
C769 H746 0.950 . S
C769 C768 1.334 . S
C769 C770 1.287 . S
C770 C769 1.287 . S
C770 C771 1.524 . S
C770 H789 0.913 . S
C771 H747 0.950 . S
C771 C770 1.524 . S
C771 C772 1.415 . S
C772 H748 0.950 . S
C772 C767 1.363 . S
C772 C771 1.415 . S
C773 H749 0.951 . S
C773 C774 1.366 . S
C773 C775 1.388 . S
C774 C773 1.366 . S
C774 C778 1.385 . S
C775 H750 0.951 . S
C775 C773 1.388 . S
C775 C776 1.366 . S
C776 C775 1.366 . S
C776 C777 1.414 . S
C776 C779 1.499 . S
C777 H751 0.950 . S
C777 C776 1.414 . S
C777 C778 1.374 . S
C778 H752 0.950 . S
C778 C774 1.385 . S
C778 C777 1.374 . S
C779 C776 1.499 . S
C779 C780 1.373 . S
C779 C781 1.389 . S
C780 H753 0.950 . S
C780 C766 1.377 . S
C780 C779 1.373 . S
C781 C765 1.377 . S
C781 C779 1.389 . S
C781 C782 1.524 . S
C782 C781 1.524 . S
C782 C783 1.397 . S
C782 C787 1.363 . S
C783 H754 0.950 . S
C783 C782 1.397 . S
C783 C784 1.334 . S
C784 H755 0.950 . S
C784 C783 1.334 . S
C784 C785 1.287 . S
C785 C784 1.287 . S
C785 C786 1.524 . S
C785 H788 0.999 . S
C786 H756 0.950 . S
C786 C785 1.524 . S
C786 C787 1.415 . S
C787 H757 0.950 . S
C787 C782 1.363 . S
C787 C786 1.415 . S
H788 C785 0.999 . S
H789 C770 0.913 . S
H790 C808 0.951 . S
H791 C810 0.951 . S
H792 C812 0.950 . S
H793 C813 0.950 . S
H794 C815 0.950 . S
H795 C818 0.950 . S
H796 C819 0.950 . S
H797 C821 0.950 . S
H798 C822 0.950 . S
H799 C823 0.951 . S
H800 C825 0.951 . S
H801 C827 0.950 . S
H802 C828 0.950 . S
H803 C830 0.950 . S
H804 C833 0.950 . S
H805 C834 0.950 . S
H806 C836 0.950 . S
H807 C837 0.950 . S
C808 H790 0.951 . S
C808 C809 1.366 . S
C808 C810 1.388 . S
C809 C808 1.366 . S
C809 C813 1.385 . S
C810 H791 0.951 . S
C810 C808 1.388 . S
C810 C811 1.366 . S
C811 C810 1.366 . S
C811 C812 1.414 . S
C811 C814 1.499 . S
C812 H792 0.950 . S
C812 C811 1.414 . S
C812 C813 1.374 . S
C813 H793 0.950 . S
C813 C809 1.385 . S
C813 C812 1.374 . S
C814 C811 1.499 . S
C814 C815 1.373 . S
C814 C816 1.389 . S
C815 H794 0.950 . S
C815 C814 1.373 . S
C815 C831 1.377 . S
C816 C814 1.389 . S
C816 C817 1.524 . S
C816 C830 1.377 . S
C817 C816 1.524 . S
C817 C818 1.397 . S
C817 C822 1.363 . S
C818 H795 0.950 . S
C818 C817 1.397 . S
C818 C819 1.334 . S
C819 H796 0.950 . S
C819 C818 1.334 . S
C819 C820 1.287 . S
C820 C819 1.287 . S
C820 C821 1.524 . S
C820 H839 0.913 . S
C821 H797 0.950 . S
C821 C820 1.524 . S
C821 C822 1.415 . S
C822 H798 0.950 . S
C822 C817 1.363 . S
C822 C821 1.415 . S
C823 H799 0.951 . S
C823 C824 1.366 . S
C823 C825 1.388 . S
C824 C823 1.366 . S
C824 C828 1.385 . S
C825 H800 0.951 . S
C825 C823 1.388 . S
C825 C826 1.366 . S
C826 C825 1.366 . S
C826 C827 1.414 . S
C826 C829 1.499 . S
C827 H801 0.950 . S
C827 C826 1.414 . S
C827 C828 1.374 . S
C828 H802 0.950 . S
C828 C824 1.385 . S
C828 C827 1.374 . S
C829 C826 1.499 . S
C829 C830 1.373 . S
C829 C831 1.389 . S
C830 H803 0.950 . S
C830 C816 1.377 . S
C830 C829 1.373 . S
C831 C815 1.377 . S
C831 C829 1.389 . S
C831 C832 1.524 . S
C832 C831 1.524 . S
C832 C833 1.397 . S
C832 C837 1.363 . S
C833 H804 0.950 . S
C833 C832 1.397 . S
C833 C834 1.334 . S
C834 H805 0.950 . S
C834 C833 1.334 . S
C834 C835 1.287 . S
C835 C834 1.287 . S
C835 C836 1.524 . S
C835 H838 0.999 . S
C836 H806 0.950 . S
C836 C835 1.524 . S
C836 C837 1.415 . S
C837 H807 0.950 . S
C837 C832 1.363 . S
C837 C836 1.415 . S
H838 C835 0.999 . S
H839 C820 0.913 . S
H840 C858 0.951 . S
H841 C860 0.951 . S
H842 C862 0.950 . S
H843 C863 0.950 . S
H844 C865 0.950 . S
H845 C868 0.950 . S
H846 C869 0.950 . S
H847 C871 0.950 . S
H848 C872 0.950 . S
H849 C873 0.951 . S
H850 C875 0.951 . S
H851 C877 0.950 . S
H852 C878 0.950 . S
H853 C880 0.950 . S
H854 C883 0.950 . S
H855 C884 0.950 . S
H856 C886 0.950 . S
H857 C887 0.950 . S
C858 H840 0.951 . S
C858 C859 1.366 . S
C858 C860 1.388 . S
C859 C858 1.366 . S
C859 C863 1.385 . S
C860 H841 0.951 . S
C860 C858 1.388 . S
C860 C861 1.366 . S
C861 C860 1.366 . S
C861 C862 1.414 . S
C861 C864 1.499 . S
C862 H842 0.950 . S
C862 C861 1.414 . S
C862 C863 1.374 . S
C863 H843 0.950 . S
C863 C859 1.385 . S
C863 C862 1.374 . S
C864 C861 1.499 . S
C864 C865 1.373 . S
C864 C866 1.389 . S
C865 H844 0.950 . S
C865 C864 1.373 . S
C865 C881 1.377 . S
C866 C864 1.389 . S
C866 C867 1.524 . S
C866 C880 1.377 . S
C867 C866 1.524 . S
C867 C868 1.397 . S
C867 C872 1.363 . S
C868 H845 0.950 . S
C868 C867 1.397 . S
C868 C869 1.334 . S
C869 H846 0.950 . S
C869 C868 1.334 . S
C869 C870 1.287 . S
C870 C869 1.287 . S
C870 C871 1.524 . S
C870 H889 0.913 . S
C871 H847 0.950 . S
C871 C870 1.524 . S
C871 C872 1.415 . S
C872 H848 0.950 . S
C872 C867 1.363 . S
C872 C871 1.415 . S
C873 H849 0.951 . S
C873 C874 1.366 . S
C873 C875 1.388 . S
C874 C873 1.366 . S
C874 C878 1.385 . S
C875 H850 0.951 . S
C875 C873 1.388 . S
C875 C876 1.366 . S
C876 C875 1.366 . S
C876 C877 1.414 . S
C876 C879 1.499 . S
C877 H851 0.950 . S
C877 C876 1.414 . S
C877 C878 1.374 . S
C878 H852 0.950 . S
C878 C874 1.385 . S
C878 C877 1.374 . S
C879 C876 1.499 . S
C879 C880 1.373 . S
C879 C881 1.389 . S
C880 H853 0.950 . S
C880 C866 1.377 . S
C880 C879 1.373 . S
C881 C865 1.377 . S
C881 C879 1.389 . S
C881 C882 1.524 . S
C882 C881 1.524 . S
C882 C883 1.397 . S
C882 C887 1.363 . S
C883 H854 0.950 . S
C883 C882 1.397 . S
C883 C884 1.334 . S
C884 H855 0.950 . S
C884 C883 1.334 . S
C884 C885 1.287 . S
C885 C884 1.287 . S
C885 C886 1.524 . S
C885 H888 0.999 . S
C886 H856 0.950 . S
C886 C885 1.524 . S
C886 C887 1.415 . S
C887 H857 0.950 . S
C887 C882 1.363 . S
C887 C886 1.415 . S
H888 C885 0.999 . S
H889 C870 0.913 . S
H890 C908 0.951 . S
H891 C910 0.951 . S
H892 C912 0.950 . S
H893 C913 0.950 . S
H894 C915 0.950 . S
H895 C918 0.950 . S
H896 C919 0.950 . S
H897 C921 0.950 . S
H898 C922 0.950 . S
H899 C923 0.951 . S
H900 C925 0.951 . S
H901 C927 0.950 . S
H902 C928 0.950 . S
H903 C930 0.950 . S
H904 C933 0.950 . S
H905 C934 0.950 . S
H906 C936 0.950 . S
H907 C937 0.950 . S
C908 H890 0.951 . S
C908 C909 1.366 . S
C908 C910 1.388 . S
C909 C908 1.366 . S
C909 C913 1.385 . S
C910 H891 0.951 . S
C910 C908 1.388 . S
C910 C911 1.366 . S
C911 C910 1.366 . S
C911 C912 1.414 . S
C911 C914 1.499 . S
C912 H892 0.950 . S
C912 C911 1.414 . S
C912 C913 1.374 . S
C913 H893 0.950 . S
C913 C909 1.385 . S
C913 C912 1.374 . S
C914 C911 1.499 . S
C914 C915 1.373 . S
C914 C916 1.389 . S
C915 H894 0.950 . S
C915 C914 1.373 . S
C915 C931 1.377 . S
C916 C914 1.389 . S
C916 C917 1.524 . S
C916 C930 1.377 . S
C917 C916 1.524 . S
C917 C918 1.397 . S
C917 C922 1.363 . S
C918 H895 0.950 . S
C918 C917 1.397 . S
C918 C919 1.334 . S
C919 H896 0.950 . S
C919 C918 1.334 . S
C919 C920 1.287 . S
C920 C919 1.287 . S
C920 C921 1.524 . S
C920 H939 0.913 . S
C921 H897 0.950 . S
C921 C920 1.524 . S
C921 C922 1.415 . S
C922 H898 0.950 . S
C922 C917 1.363 . S
C922 C921 1.415 . S
C923 H899 0.951 . S
C923 C924 1.366 . S
C923 C925 1.388 . S
C924 C923 1.366 . S
C924 C928 1.385 . S
C925 H900 0.951 . S
C925 C923 1.388 . S
C925 C926 1.366 . S
C926 C925 1.366 . S
C926 C927 1.414 . S
C926 C929 1.499 . S
C927 H901 0.950 . S
C927 C926 1.414 . S
C927 C928 1.374 . S
C928 H902 0.950 . S
C928 C924 1.385 . S
C928 C927 1.374 . S
C929 C926 1.499 . S
C929 C930 1.373 . S
C929 C931 1.389 . S
C930 H903 0.950 . S
C930 C916 1.377 . S
C930 C929 1.373 . S
C931 C915 1.377 . S
C931 C929 1.389 . S
C931 C932 1.524 . S
C932 C931 1.524 . S
C932 C933 1.397 . S
C932 C937 1.363 . S
C933 H904 0.950 . S
C933 C932 1.397 . S
C933 C934 1.334 . S
C934 H905 0.950 . S
C934 C933 1.334 . S
C934 C935 1.287 . S
C935 C934 1.287 . S
C935 C936 1.524 . S
C935 H938 0.999 . S
C936 H906 0.950 . S
C936 C935 1.524 . S
C936 C937 1.415 . S
C937 H907 0.950 . S
C937 C932 1.363 . S
C937 C936 1.415 . S
H938 C935 0.999 . S
H939 C920 0.913 . S
H940 C958 0.951 . S
H941 C960 0.951 . S
H942 C962 0.950 . S
H943 C963 0.950 . S
H944 C965 0.950 . S
H945 C968 0.950 . S
H946 C969 0.950 . S
H947 C971 0.950 . S
H948 C972 0.950 . S
H949 C973 0.951 . S
H950 C975 0.951 . S
H951 C977 0.950 . S
H952 C978 0.950 . S
H953 C980 0.950 . S
H954 C983 0.950 . S
H955 C984 0.950 . S
H956 C986 0.950 . S
H957 C987 0.950 . S
C958 H940 0.951 . S
C958 C959 1.366 . S
C958 C960 1.388 . S
C959 C958 1.366 . S
C959 C963 1.385 . S
C960 H941 0.951 . S
C960 C958 1.388 . S
C960 C961 1.366 . S
C961 C960 1.366 . S
C961 C962 1.414 . S
C961 C964 1.499 . S
C962 H942 0.950 . S
C962 C961 1.414 . S
C962 C963 1.374 . S
C963 H943 0.950 . S
C963 C959 1.385 . S
C963 C962 1.374 . S
C964 C961 1.499 . S
C964 C965 1.373 . S
C964 C966 1.389 . S
C965 H944 0.950 . S
C965 C964 1.373 . S
C965 C981 1.377 . S
C966 C964 1.389 . S
C966 C967 1.524 . S
C966 C980 1.377 . S
C967 C966 1.524 . S
C967 C968 1.397 . S
C967 C972 1.363 . S
C968 H945 0.950 . S
C968 C967 1.397 . S
C968 C969 1.334 . S
C969 H946 0.950 . S
C969 C968 1.334 . S
C969 C970 1.287 . S
C970 C969 1.287 . S
C970 C971 1.524 . S
C970 H989 0.913 . S
C971 H947 0.950 . S
C971 C970 1.524 . S
C971 C972 1.415 . S
C972 H948 0.950 . S
C972 C967 1.363 . S
C972 C971 1.415 . S
C973 H949 0.951 . S
C973 C974 1.366 . S
C973 C975 1.388 . S
C974 C973 1.366 . S
C974 C978 1.385 . S
C975 H950 0.951 . S
C975 C973 1.388 . S
C975 C976 1.366 . S
C976 C975 1.366 . S
C976 C977 1.414 . S
C976 C979 1.499 . S
C977 H951 0.950 . S
C977 C976 1.414 . S
C977 C978 1.374 . S
C978 H952 0.950 . S
C978 C974 1.385 . S
C978 C977 1.374 . S
C979 C976 1.499 . S
C979 C980 1.373 . S
C979 C981 1.389 . S
C980 H953 0.950 . S
C980 C966 1.377 . S
C980 C979 1.373 . S
C981 C965 1.377 . S
C981 C979 1.389 . S
C981 C982 1.524 . S
C982 C981 1.524 . S
C982 C983 1.397 . S
C982 C987 1.363 . S
C983 H954 0.950 . S
C983 C982 1.397 . S
C983 C984 1.334 . S
C984 H955 0.950 . S
C984 C983 1.334 . S
C984 C985 1.287 . S
C985 C984 1.287 . S
C985 C986 1.524 . S
C985 H988 0.999 . S
C986 H956 0.950 . S
C986 C985 1.524 . S
C986 C987 1.415 . S
C987 H957 0.950 . S
C987 C982 1.363 . S
C987 C986 1.415 . S
H988 C985 0.999 . S
H989 C970 0.913 . S
H990 C1008 0.951 . S
H991 C1010 0.951 . S
H992 C1012 0.950 . S
H993 C1013 0.950 . S
H994 C1015 0.950 . S
H995 C1018 0.950 . S
H996 C1019 0.950 . S
H997 C1021 0.950 . S
H998 C1022 0.950 . S
H999 C1023 0.951 . S
H1000 C1025 0.951 . S
H1001 C1027 0.950 . S
H1002 C1028 0.950 . S
H1003 C1030 0.950 . S
H1004 C1033 0.950 . S
H1005 C1034 0.950 . S
H1006 C1036 0.950 . S
H1007 C1037 0.950 . S
C1008 H990 0.951 . S
C1008 C1009 1.366 . S
C1008 C1010 1.388 . S
C1009 C1008 1.366 . S
C1009 C1013 1.385 . S
C1010 H991 0.951 . S
C1010 C1008 1.388 . S
C1010 C1011 1.366 . S
C1011 C1010 1.366 . S
C1011 C1012 1.414 . S
C1011 C1014 1.499 . S
C1012 H992 0.950 . S
C1012 C1011 1.414 . S
C1012 C1013 1.374 . S
C1013 H993 0.950 . S
C1013 C1009 1.385 . S
C1013 C1012 1.374 . S
C1014 C1011 1.499 . S
C1014 C1015 1.373 . S
C1014 C1016 1.389 . S
C1015 H994 0.950 . S
C1015 C1014 1.373 . S
C1015 C1031 1.377 . S
C1016 C1014 1.389 . S
C1016 C1017 1.524 . S
C1016 C1030 1.377 . S
C1017 C1016 1.524 . S
C1017 C1018 1.397 . S
C1017 C1022 1.363 . S
C1018 H995 0.950 . S
C1018 C1017 1.397 . S
C1018 C1019 1.334 . S
C1019 H996 0.950 . S
C1019 C1018 1.334 . S
C1019 C1020 1.287 . S
C1020 C1019 1.287 . S
C1020 C1021 1.524 . S
C1020 H1039 0.913 . S
C1021 H997 0.950 . S
C1021 C1020 1.524 . S
C1021 C1022 1.415 . S
C1022 H998 0.950 . S
C1022 C1017 1.363 . S
C1022 C1021 1.415 . S
C1023 H999 0.951 . S
C1023 C1024 1.366 . S
C1023 C1025 1.388 . S
C1024 C1023 1.366 . S
C1024 C1028 1.385 . S
C1025 H1000 0.951 . S
C1025 C1023 1.388 . S
C1025 C1026 1.366 . S
C1026 C1025 1.366 . S
C1026 C1027 1.414 . S
C1026 C1029 1.499 . S
C1027 H1001 0.950 . S
C1027 C1026 1.414 . S
C1027 C1028 1.374 . S
C1028 H1002 0.950 . S
C1028 C1024 1.385 . S
C1028 C1027 1.374 . S
C1029 C1026 1.499 . S
C1029 C1030 1.373 . S
C1029 C1031 1.389 . S
C1030 H1003 0.950 . S
C1030 C1016 1.377 . S
C1030 C1029 1.373 . S
C1031 C1015 1.377 . S
C1031 C1029 1.389 . S
C1031 C1032 1.524 . S
C1032 C1031 1.524 . S
C1032 C1033 1.397 . S
C1032 C1037 1.363 . S
C1033 H1004 0.950 . S
C1033 C1032 1.397 . S
C1033 C1034 1.334 . S
C1034 H1005 0.950 . S
C1034 C1033 1.334 . S
C1034 C1035 1.287 . S
C1035 C1034 1.287 . S
C1035 C1036 1.524 . S
C1035 H1038 0.999 . S
C1036 H1006 0.950 . S
C1036 C1035 1.524 . S
C1036 C1037 1.415 . S
C1037 H1007 0.950 . S
C1037 C1032 1.363 . S
C1037 C1036 1.415 . S
H1038 C1035 0.999 . S
H1039 C1020 0.913 . S
H1040 C1058 0.951 . S
H1041 C1060 0.951 . S
H1042 C1062 0.950 . S
H1043 C1063 0.950 . S
H1044 C1065 0.950 . S
H1045 C1068 0.950 . S
H1046 C1069 0.950 . S
H1047 C1071 0.950 . S
H1048 C1072 0.950 . S
H1049 C1073 0.951 . S
H1050 C1075 0.951 . S
H1051 C1077 0.950 . S
H1052 C1078 0.950 . S
H1053 C1080 0.950 . S
H1054 C1083 0.950 . S
H1055 C1084 0.950 . S
H1056 C1086 0.950 . S
H1057 C1087 0.950 . S
C1058 H1040 0.951 . S
C1058 C1059 1.366 . S
C1058 C1060 1.388 . S
C1059 C1058 1.366 . S
C1059 C1063 1.385 . S
C1060 H1041 0.951 . S
C1060 C1058 1.388 . S
C1060 C1061 1.366 . S
C1061 C1060 1.366 . S
C1061 C1062 1.414 . S
C1061 C1064 1.499 . S
C1062 H1042 0.950 . S
C1062 C1061 1.414 . S
C1062 C1063 1.374 . S
C1063 H1043 0.950 . S
C1063 C1059 1.385 . S
C1063 C1062 1.374 . S
C1064 C1061 1.499 . S
C1064 C1065 1.373 . S
C1064 C1066 1.389 . S
C1065 H1044 0.950 . S
C1065 C1064 1.373 . S
C1065 C1081 1.377 . S
C1066 C1064 1.389 . S
C1066 C1067 1.524 . S
C1066 C1080 1.377 . S
C1067 C1066 1.524 . S
C1067 C1068 1.397 . S
C1067 C1072 1.363 . S
C1068 H1045 0.950 . S
C1068 C1067 1.397 . S
C1068 C1069 1.334 . S
C1069 H1046 0.950 . S
C1069 C1068 1.334 . S
C1069 C1070 1.287 . S
C1070 C1069 1.287 . S
C1070 C1071 1.524 . S
C1070 H1089 0.913 . S
C1071 H1047 0.950 . S
C1071 C1070 1.524 . S
C1071 C1072 1.415 . S
C1072 H1048 0.950 . S
C1072 C1067 1.363 . S
C1072 C1071 1.415 . S
C1073 H1049 0.951 . S
C1073 C1074 1.366 . S
C1073 C1075 1.388 . S
C1074 C1073 1.366 . S
C1074 C1078 1.385 . S
C1075 H1050 0.951 . S
C1075 C1073 1.388 . S
C1075 C1076 1.366 . S
C1076 C1075 1.366 . S
C1076 C1077 1.414 . S
C1076 C1079 1.499 . S
C1077 H1051 0.950 . S
C1077 C1076 1.414 . S
C1077 C1078 1.374 . S
C1078 H1052 0.950 . S
C1078 C1074 1.385 . S
C1078 C1077 1.374 . S
C1079 C1076 1.499 . S
C1079 C1080 1.373 . S
C1079 C1081 1.389 . S
C1080 H1053 0.950 . S
C1080 C1066 1.377 . S
C1080 C1079 1.373 . S
C1081 C1065 1.377 . S
C1081 C1079 1.389 . S
C1081 C1082 1.524 . S
C1082 C1081 1.524 . S
C1082 C1083 1.397 . S
C1082 C1087 1.363 . S
C1083 H1054 0.950 . S
C1083 C1082 1.397 . S
C1083 C1084 1.334 . S
C1084 H1055 0.950 . S
C1084 C1083 1.334 . S
C1084 C1085 1.287 . S
C1085 C1084 1.287 . S
C1085 C1086 1.524 . S
C1085 H1088 0.999 . S
C1086 H1056 0.950 . S
C1086 C1085 1.524 . S
C1086 C1087 1.415 . S
C1087 H1057 0.950 . S
C1087 C1082 1.363 . S
C1087 C1086 1.415 . S
H1088 C1085 0.999 . S
H1089 C1070 0.913 . S
H1090 C1108 0.951 . S
H1091 C1110 0.951 . S
H1092 C1112 0.950 . S
H1093 C1113 0.950 . S
H1094 C1115 0.950 . S
H1095 C1118 0.950 . S
H1096 C1119 0.950 . S
H1097 C1121 0.950 . S
H1098 C1122 0.950 . S
H1099 C1123 0.951 . S
H1100 C1125 0.951 . S
H1101 C1127 0.950 . S
H1102 C1128 0.950 . S
H1103 C1130 0.950 . S
H1104 C1133 0.950 . S
H1105 C1134 0.950 . S
H1106 C1136 0.950 . S
H1107 C1137 0.950 . S
C1108 H1090 0.951 . S
C1108 C1109 1.366 . S
C1108 C1110 1.388 . S
C1109 C1108 1.366 . S
C1109 C1113 1.385 . S
C1110 H1091 0.951 . S
C1110 C1108 1.388 . S
C1110 C1111 1.366 . S
C1111 C1110 1.366 . S
C1111 C1112 1.414 . S
C1111 C1114 1.499 . S
C1112 H1092 0.950 . S
C1112 C1111 1.414 . S
C1112 C1113 1.374 . S
C1113 H1093 0.950 . S
C1113 C1109 1.385 . S
C1113 C1112 1.374 . S
C1114 C1111 1.499 . S
C1114 C1115 1.373 . S
C1114 C1116 1.389 . S
C1115 H1094 0.950 . S
C1115 C1114 1.373 . S
C1115 C1131 1.377 . S
C1116 C1114 1.389 . S
C1116 C1117 1.524 . S
C1116 C1130 1.377 . S
C1117 C1116 1.524 . S
C1117 C1118 1.397 . S
C1117 C1122 1.363 . S
C1118 H1095 0.950 . S
C1118 C1117 1.397 . S
C1118 C1119 1.334 . S
C1119 H1096 0.950 . S
C1119 C1118 1.334 . S
C1119 C1120 1.287 . S
C1120 C1119 1.287 . S
C1120 C1121 1.524 . S
C1120 H1139 0.913 . S
C1121 H1097 0.950 . S
C1121 C1120 1.524 . S
C1121 C1122 1.415 . S
C1122 H1098 0.950 . S
C1122 C1117 1.363 . S
C1122 C1121 1.415 . S
C1123 H1099 0.951 . S
C1123 C1124 1.366 . S
C1123 C1125 1.388 . S
C1124 C1123 1.366 . S
C1124 C1128 1.385 . S
C1125 H1100 0.951 . S
C1125 C1123 1.388 . S
C1125 C1126 1.366 . S
C1126 C1125 1.366 . S
C1126 C1127 1.414 . S
C1126 C1129 1.499 . S
C1127 H1101 0.950 . S
C1127 C1126 1.414 . S
C1127 C1128 1.374 . S
C1128 H1102 0.950 . S
C1128 C1124 1.385 . S
C1128 C1127 1.374 . S
C1129 C1126 1.499 . S
C1129 C1130 1.373 . S
C1129 C1131 1.389 . S
C1130 H1103 0.950 . S
C1130 C1116 1.377 . S
C1130 C1129 1.373 . S
C1131 C1115 1.377 . S
C1131 C1129 1.389 . S
C1131 C1132 1.524 . S
C1132 C1131 1.524 . S
C1132 C1133 1.397 . S
C1132 C1137 1.363 . S
C1133 H1104 0.950 . S
C1133 C1132 1.397 . S
C1133 C1134 1.334 . S
C1134 H1105 0.950 . S
C1134 C1133 1.334 . S
C1134 C1135 1.287 . S
C1135 C1134 1.287 . S
C1135 C1136 1.524 . S
C1135 H1138 0.999 . S
C1136 H1106 0.950 . S
C1136 C1135 1.524 . S
C1136 C1137 1.415 . S
C1137 H1107 0.950 . S
C1137 C1132 1.363 . S
C1137 C1136 1.415 . S
H1138 C1135 0.999 . S
H1139 C1120 0.913 . S
H1140 C1158 0.951 . S
H1141 C1160 0.951 . S
H1142 C1162 0.950 . S
H1143 C1163 0.950 . S
H1144 C1165 0.950 . S
H1145 C1168 0.950 . S
H1146 C1169 0.950 . S
H1147 C1171 0.950 . S
H1148 C1172 0.950 . S
H1149 C1173 0.951 . S
H1150 C1175 0.951 . S
H1151 C1177 0.950 . S
H1152 C1178 0.950 . S
H1153 C1180 0.950 . S
H1154 C1183 0.950 . S
H1155 C1184 0.950 . S
H1156 C1186 0.950 . S
H1157 C1187 0.950 . S
C1158 H1140 0.951 . S
C1158 C1159 1.366 . S
C1158 C1160 1.388 . S
C1159 C1158 1.366 . S
C1159 C1163 1.385 . S
C1160 H1141 0.951 . S
C1160 C1158 1.388 . S
C1160 C1161 1.366 . S
C1161 C1160 1.366 . S
C1161 C1162 1.414 . S
C1161 C1164 1.499 . S
C1162 H1142 0.950 . S
C1162 C1161 1.414 . S
C1162 C1163 1.374 . S
C1163 H1143 0.950 . S
C1163 C1159 1.385 . S
C1163 C1162 1.374 . S
C1164 C1161 1.499 . S
C1164 C1165 1.373 . S
C1164 C1166 1.389 . S
C1165 H1144 0.950 . S
C1165 C1164 1.373 . S
C1165 C1181 1.377 . S
C1166 C1164 1.389 . S
C1166 C1167 1.524 . S
C1166 C1180 1.377 . S
C1167 C1166 1.524 . S
C1167 C1168 1.397 . S
C1167 C1172 1.363 . S
C1168 H1145 0.950 . S
C1168 C1167 1.397 . S
C1168 C1169 1.334 . S
C1169 H1146 0.950 . S
C1169 C1168 1.334 . S
C1169 C1170 1.287 . S
C1170 C1169 1.287 . S
C1170 C1171 1.524 . S
C1170 H1189 0.913 . S
C1171 H1147 0.950 . S
C1171 C1170 1.524 . S
C1171 C1172 1.415 . S
C1172 H1148 0.950 . S
C1172 C1167 1.363 . S
C1172 C1171 1.415 . S
C1173 H1149 0.951 . S
C1173 C1174 1.366 . S
C1173 C1175 1.388 . S
C1174 C1173 1.366 . S
C1174 C1178 1.385 . S
C1175 H1150 0.951 . S
C1175 C1173 1.388 . S
C1175 C1176 1.366 . S
C1176 C1175 1.366 . S
C1176 C1177 1.414 . S
C1176 C1179 1.499 . S
C1177 H1151 0.950 . S
C1177 C1176 1.414 . S
C1177 C1178 1.374 . S
C1178 H1152 0.950 . S
C1178 C1174 1.385 . S
C1178 C1177 1.374 . S
C1179 C1176 1.499 . S
C1179 C1180 1.373 . S
C1179 C1181 1.389 . S
C1180 H1153 0.950 . S
C1180 C1166 1.377 . S
C1180 C1179 1.373 . S
C1181 C1165 1.377 . S
C1181 C1179 1.389 . S
C1181 C1182 1.524 . S
C1182 C1181 1.524 . S
C1182 C1183 1.397 . S
C1182 C1187 1.363 . S
C1183 H1154 0.950 . S
C1183 C1182 1.397 . S
C1183 C1184 1.334 . S
C1184 H1155 0.950 . S
C1184 C1183 1.334 . S
C1184 C1185 1.287 . S
C1185 C1184 1.287 . S
C1185 C1186 1.524 . S
C1185 H1188 0.999 . S
C1186 H1156 0.950 . S
C1186 C1185 1.524 . S
C1186 C1187 1.415 . S
C1187 H1157 0.950 . S
C1187 C1182 1.363 . S
C1187 C1186 1.415 . S
H1188 C1185 0.999 . S
H1189 C1170 0.913 . S
H1190 C1208 0.951 . S
H1191 C1210 0.951 . S
H1192 C1212 0.950 . S
H1193 C1213 0.950 . S
H1194 C1215 0.950 . S
H1195 C1218 0.950 . S
H1196 C1219 0.950 . S
H1197 C1221 0.950 . S
H1198 C1222 0.950 . S
H1199 C1223 0.951 . S
H1200 C1225 0.951 . S
H1201 C1227 0.950 . S
H1202 C1228 0.950 . S
H1203 C1230 0.950 . S
H1204 C1233 0.950 . S
H1205 C1234 0.950 . S
H1206 C1236 0.950 . S
H1207 C1237 0.950 . S
C1208 H1190 0.951 . S
C1208 C1209 1.366 . S
C1208 C1210 1.388 . S
C1209 C1208 1.366 . S
C1209 C1213 1.385 . S
C1210 H1191 0.951 . S
C1210 C1208 1.388 . S
C1210 C1211 1.366 . S
C1211 C1210 1.366 . S
C1211 C1212 1.414 . S
C1211 C1214 1.499 . S
C1212 H1192 0.950 . S
C1212 C1211 1.414 . S
C1212 C1213 1.374 . S
C1213 H1193 0.950 . S
C1213 C1209 1.385 . S
C1213 C1212 1.374 . S
C1214 C1211 1.499 . S
C1214 C1215 1.373 . S
C1214 C1216 1.389 . S
C1215 H1194 0.950 . S
C1215 C1214 1.373 . S
C1215 C1231 1.377 . S
C1216 C1214 1.389 . S
C1216 C1217 1.524 . S
C1216 C1230 1.377 . S
C1217 C1216 1.524 . S
C1217 C1218 1.397 . S
C1217 C1222 1.363 . S
C1218 H1195 0.950 . S
C1218 C1217 1.397 . S
C1218 C1219 1.334 . S
C1219 H1196 0.950 . S
C1219 C1218 1.334 . S
C1219 C1220 1.287 . S
C1220 C1219 1.287 . S
C1220 C1221 1.524 . S
C1220 H1239 0.913 . S
C1221 H1197 0.950 . S
C1221 C1220 1.524 . S
C1221 C1222 1.415 . S
C1222 H1198 0.950 . S
C1222 C1217 1.363 . S
C1222 C1221 1.415 . S
C1223 H1199 0.951 . S
C1223 C1224 1.366 . S
C1223 C1225 1.388 . S
C1224 C1223 1.366 . S
C1224 C1228 1.385 . S
C1225 H1200 0.951 . S
C1225 C1223 1.388 . S
C1225 C1226 1.366 . S
C1226 C1225 1.366 . S
C1226 C1227 1.414 . S
C1226 C1229 1.499 . S
C1227 H1201 0.950 . S
C1227 C1226 1.414 . S
C1227 C1228 1.374 . S
C1228 H1202 0.950 . S
C1228 C1224 1.385 . S
C1228 C1227 1.374 . S
C1229 C1226 1.499 . S
C1229 C1230 1.373 . S
C1229 C1231 1.389 . S
C1230 H1203 0.950 . S
C1230 C1216 1.377 . S
C1230 C1229 1.373 . S
C1231 C1215 1.377 . S
C1231 C1229 1.389 . S
C1231 C1232 1.524 . S
C1232 C1231 1.524 . S
C1232 C1233 1.397 . S
C1232 C1237 1.363 . S
C1233 H1204 0.950 . S
C1233 C1232 1.397 . S
C1233 C1234 1.334 . S
C1234 H1205 0.950 . S
C1234 C1233 1.334 . S
C1234 C1235 1.287 . S
C1235 C1234 1.287 . S
C1235 C1236 1.524 . S
C1235 H1238 0.999 . S
C1236 H1206 0.950 . S
C1236 C1235 1.524 . S
C1236 C1237 1.415 . S
C1237 H1207 0.950 . S
C1237 C1232 1.363 . S
C1237 C1236 1.415 . S
H1238 C1235 0.999 . S
H1239 C1220 0.913 . S
H1240 C1258 0.951 . S
H1241 C1260 0.951 . S
H1242 C1262 0.950 . S
H1243 C1263 0.950 . S
H1244 C1265 0.950 . S
H1245 C1268 0.950 . S
H1246 C1269 0.950 . S
H1247 C1271 0.950 . S
H1248 C1272 0.950 . S
H1249 C1273 0.951 . S
H1250 C1275 0.951 . S
H1251 C1277 0.950 . S
H1252 C1278 0.950 . S
H1253 C1280 0.950 . S
H1254 C1283 0.950 . S
H1255 C1284 0.950 . S
H1256 C1286 0.950 . S
H1257 C1287 0.950 . S
C1258 H1240 0.951 . S
C1258 C1259 1.366 . S
C1258 C1260 1.388 . S
C1259 C1258 1.366 . S
C1259 C1263 1.385 . S
C1260 H1241 0.951 . S
C1260 C1258 1.388 . S
C1260 C1261 1.366 . S
C1261 C1260 1.366 . S
C1261 C1262 1.414 . S
C1261 C1264 1.499 . S
C1262 H1242 0.950 . S
C1262 C1261 1.414 . S
C1262 C1263 1.374 . S
C1263 H1243 0.950 . S
C1263 C1259 1.385 . S
C1263 C1262 1.374 . S
C1264 C1261 1.499 . S
C1264 C1265 1.373 . S
C1264 C1266 1.389 . S
C1265 H1244 0.950 . S
C1265 C1264 1.373 . S
C1265 C1281 1.377 . S
C1266 C1264 1.389 . S
C1266 C1267 1.524 . S
C1266 C1280 1.377 . S
C1267 C1266 1.524 . S
C1267 C1268 1.397 . S
C1267 C1272 1.363 . S
C1268 H1245 0.950 . S
C1268 C1267 1.397 . S
C1268 C1269 1.334 . S
C1269 H1246 0.950 . S
C1269 C1268 1.334 . S
C1269 C1270 1.287 . S
C1270 C1269 1.287 . S
C1270 C1271 1.524 . S
C1270 H1289 0.913 . S
C1271 H1247 0.950 . S
C1271 C1270 1.524 . S
C1271 C1272 1.415 . S
C1272 H1248 0.950 . S
C1272 C1267 1.363 . S
C1272 C1271 1.415 . S
C1273 H1249 0.951 . S
C1273 C1274 1.366 . S
C1273 C1275 1.388 . S
C1274 C1273 1.366 . S
C1274 C1278 1.385 . S
C1275 H1250 0.951 . S
C1275 C1273 1.388 . S
C1275 C1276 1.366 . S
C1276 C1275 1.366 . S
C1276 C1277 1.414 . S
C1276 C1279 1.499 . S
C1277 H1251 0.950 . S
C1277 C1276 1.414 . S
C1277 C1278 1.374 . S
C1278 H1252 0.950 . S
C1278 C1274 1.385 . S
C1278 C1277 1.374 . S
C1279 C1276 1.499 . S
C1279 C1280 1.373 . S
C1279 C1281 1.389 . S
C1280 H1253 0.950 . S
C1280 C1266 1.377 . S
C1280 C1279 1.373 . S
C1281 C1265 1.377 . S
C1281 C1279 1.389 . S
C1281 C1282 1.524 . S
C1282 C1281 1.524 . S
C1282 C1283 1.397 . S
C1282 C1287 1.363 . S
C1283 H1254 0.950 . S
C1283 C1282 1.397 . S
C1283 C1284 1.334 . S
C1284 H1255 0.950 . S
C1284 C1283 1.334 . S
C1284 C1285 1.287 . S
C1285 C1284 1.287 . S
C1285 C1286 1.524 . S
C1285 H1288 0.999 . S
C1286 H1256 0.950 . S
C1286 C1285 1.524 . S
C1286 C1287 1.415 . S
C1287 H1257 0.950 . S
C1287 C1282 1.363 . S
C1287 C1286 1.415 . S
H1288 C1285 0.999 . S
H1289 C1270 0.913 . S
H1290 C1308 0.951 . S
H1291 C1310 0.951 . S
H1292 C1312 0.950 . S
H1293 C1313 0.950 . S
H1294 C1315 0.950 . S
H1295 C1318 0.950 . S
H1296 C1319 0.950 . S
H1297 C1321 0.950 . S
H1298 C1322 0.950 . S
H1299 C1323 0.951 . S
H1300 C1325 0.951 . S
H1301 C1327 0.950 . S
H1302 C1328 0.950 . S
H1303 C1330 0.950 . S
H1304 C1333 0.950 . S
H1305 C1334 0.950 . S
H1306 C1336 0.950 . S
H1307 C1337 0.950 . S
C1308 H1290 0.951 . S
C1308 C1309 1.366 . S
C1308 C1310 1.388 . S
C1309 C1308 1.366 . S
C1309 C1313 1.385 . S
C1310 H1291 0.951 . S
C1310 C1308 1.388 . S
C1310 C1311 1.366 . S
C1311 C1310 1.366 . S
C1311 C1312 1.414 . S
C1311 C1314 1.499 . S
C1312 H1292 0.950 . S
C1312 C1311 1.414 . S
C1312 C1313 1.374 . S
C1313 H1293 0.950 . S
C1313 C1309 1.385 . S
C1313 C1312 1.374 . S
C1314 C1311 1.499 . S
C1314 C1315 1.373 . S
C1314 C1316 1.389 . S
C1315 H1294 0.950 . S
C1315 C1314 1.373 . S
C1315 C1331 1.377 . S
C1316 C1314 1.389 . S
C1316 C1317 1.524 . S
C1316 C1330 1.377 . S
C1317 C1316 1.524 . S
C1317 C1318 1.397 . S
C1317 C1322 1.363 . S
C1318 H1295 0.950 . S
C1318 C1317 1.397 . S
C1318 C1319 1.334 . S
C1319 H1296 0.950 . S
C1319 C1318 1.334 . S
C1319 C1320 1.287 . S
C1320 C1319 1.287 . S
C1320 C1321 1.524 . S
C1320 H1339 0.913 . S
C1321 H1297 0.950 . S
C1321 C1320 1.524 . S
C1321 C1322 1.415 . S
C1322 H1298 0.950 . S
C1322 C1317 1.363 . S
C1322 C1321 1.415 . S
C1323 H1299 0.951 . S
C1323 C1324 1.366 . S
C1323 C1325 1.388 . S
C1324 C1323 1.366 . S
C1324 C1328 1.385 . S
C1325 H1300 0.951 . S
C1325 C1323 1.388 . S
C1325 C1326 1.366 . S
C1326 C1325 1.366 . S
C1326 C1327 1.414 . S
C1326 C1329 1.499 . S
C1327 H1301 0.950 . S
C1327 C1326 1.414 . S
C1327 C1328 1.374 . S
C1328 H1302 0.950 . S
C1328 C1324 1.385 . S
C1328 C1327 1.374 . S
C1329 C1326 1.499 . S
C1329 C1330 1.373 . S
C1329 C1331 1.389 . S
C1330 H1303 0.950 . S
C1330 C1316 1.377 . S
C1330 C1329 1.373 . S
C1331 C1315 1.377 . S
C1331 C1329 1.389 . S
C1331 C1332 1.524 . S
C1332 C1331 1.524 . S
C1332 C1333 1.397 . S
C1332 C1337 1.363 . S
C1333 H1304 0.950 . S
C1333 C1332 1.397 . S
C1333 C1334 1.334 . S
C1334 H1305 0.950 . S
C1334 C1333 1.334 . S
C1334 C1335 1.287 . S
C1335 C1334 1.287 . S
C1335 C1336 1.524 . S
C1335 H1338 0.999 . S
C1336 H1306 0.950 . S
C1336 C1335 1.524 . S
C1336 C1337 1.415 . S
C1337 H1307 0.950 . S
C1337 C1332 1.363 . S
C1337 C1336 1.415 . S
H1338 C1335 0.999 . S
H1339 C1320 0.913 . S
H1340 C1358 0.951 . S
H1341 C1360 0.951 . S
H1342 C1362 0.950 . S
H1343 C1363 0.950 . S
H1344 C1365 0.950 . S
H1345 C1368 0.950 . S
H1346 C1369 0.950 . S
H1347 C1371 0.950 . S
H1348 C1372 0.950 . S
H1349 C1373 0.951 . S
H1350 C1375 0.951 . S
H1351 C1377 0.950 . S
H1352 C1378 0.950 . S
H1353 C1380 0.950 . S
H1354 C1383 0.950 . S
H1355 C1384 0.950 . S
H1356 C1386 0.950 . S
H1357 C1387 0.950 . S
C1358 H1340 0.951 . S
C1358 C1359 1.366 . S
C1358 C1360 1.388 . S
C1359 C1358 1.366 . S
C1359 C1363 1.385 . S
C1360 H1341 0.951 . S
C1360 C1358 1.388 . S
C1360 C1361 1.366 . S
C1361 C1360 1.366 . S
C1361 C1362 1.414 . S
C1361 C1364 1.499 . S
C1362 H1342 0.950 . S
C1362 C1361 1.414 . S
C1362 C1363 1.374 . S
C1363 H1343 0.950 . S
C1363 C1359 1.385 . S
C1363 C1362 1.374 . S
C1364 C1361 1.499 . S
C1364 C1365 1.373 . S
C1364 C1366 1.389 . S
C1365 H1344 0.950 . S
C1365 C1364 1.373 . S
C1365 C1381 1.377 . S
C1366 C1364 1.389 . S
C1366 C1367 1.524 . S
C1366 C1380 1.377 . S
C1367 C1366 1.524 . S
C1367 C1368 1.397 . S
C1367 C1372 1.363 . S
C1368 H1345 0.950 . S
C1368 C1367 1.397 . S
C1368 C1369 1.334 . S
C1369 H1346 0.950 . S
C1369 C1368 1.334 . S
C1369 C1370 1.287 . S
C1370 C1369 1.287 . S
C1370 C1371 1.524 . S
C1370 H1389 0.913 . S
C1371 H1347 0.950 . S
C1371 C1370 1.524 . S
C1371 C1372 1.415 . S
C1372 H1348 0.950 . S
C1372 C1367 1.363 . S
C1372 C1371 1.415 . S
C1373 H1349 0.951 . S
C1373 C1374 1.366 . S
C1373 C1375 1.388 . S
C1374 C1373 1.366 . S
C1374 C1378 1.385 . S
C1375 H1350 0.951 . S
C1375 C1373 1.388 . S
C1375 C1376 1.366 . S
C1376 C1375 1.366 . S
C1376 C1377 1.414 . S
C1376 C1379 1.499 . S
C1377 H1351 0.950 . S
C1377 C1376 1.414 . S
C1377 C1378 1.374 . S
C1378 H1352 0.950 . S
C1378 C1374 1.385 . S
C1378 C1377 1.374 . S
C1379 C1376 1.499 . S
C1379 C1380 1.373 . S
C1379 C1381 1.389 . S
C1380 H1353 0.950 . S
C1380 C1366 1.377 . S
C1380 C1379 1.373 . S
C1381 C1365 1.377 . S
C1381 C1379 1.389 . S
C1381 C1382 1.524 . S
C1382 C1381 1.524 . S
C1382 C1383 1.397 . S
C1382 C1387 1.363 . S
C1383 H1354 0.950 . S
C1383 C1382 1.397 . S
C1383 C1384 1.334 . S
C1384 H1355 0.950 . S
C1384 C1383 1.334 . S
C1384 C1385 1.287 . S
C1385 C1384 1.287 . S
C1385 C1386 1.524 . S
C1385 H1388 0.999 . S
C1386 H1356 0.950 . S
C1386 C1385 1.524 . S
C1386 C1387 1.415 . S
C1387 H1357 0.950 . S
C1387 C1382 1.363 . S
C1387 C1386 1.415 . S
H1388 C1385 0.999 . S
H1389 C1370 0.913 . S
H1390 C1408 0.951 . S
H1391 C1410 0.951 . S
H1392 C1412 0.950 . S
H1393 C1413 0.950 . S
H1394 C1415 0.950 . S
H1395 C1418 0.950 . S
H1396 C1419 0.950 . S
H1397 C1421 0.950 . S
H1398 C1422 0.950 . S
H1399 C1423 0.951 . S
H1400 C1425 0.951 . S
H1401 C1427 0.950 . S
H1402 C1428 0.950 . S
H1403 C1430 0.950 . S
H1404 C1433 0.950 . S
H1405 C1434 0.950 . S
H1406 C1436 0.950 . S
H1407 C1437 0.950 . S
C1408 H1390 0.951 . S
C1408 C1409 1.366 . S
C1408 C1410 1.388 . S
C1409 C1408 1.366 . S
C1409 C1413 1.385 . S
C1410 H1391 0.951 . S
C1410 C1408 1.388 . S
C1410 C1411 1.366 . S
C1411 C1410 1.366 . S
C1411 C1412 1.414 . S
C1411 C1414 1.499 . S
C1412 H1392 0.950 . S
C1412 C1411 1.414 . S
C1412 C1413 1.374 . S
C1413 H1393 0.950 . S
C1413 C1409 1.385 . S
C1413 C1412 1.374 . S
C1414 C1411 1.499 . S
C1414 C1415 1.373 . S
C1414 C1416 1.389 . S
C1415 H1394 0.950 . S
C1415 C1414 1.373 . S
C1415 C1431 1.377 . S
C1416 C1414 1.389 . S
C1416 C1417 1.524 . S
C1416 C1430 1.377 . S
C1417 C1416 1.524 . S
C1417 C1418 1.397 . S
C1417 C1422 1.363 . S
C1418 H1395 0.950 . S
C1418 C1417 1.397 . S
C1418 C1419 1.334 . S
C1419 H1396 0.950 . S
C1419 C1418 1.334 . S
C1419 C1420 1.287 . S
C1420 C1419 1.287 . S
C1420 C1421 1.524 . S
C1420 H1439 0.913 . S
C1421 H1397 0.950 . S
C1421 C1420 1.524 . S
C1421 C1422 1.415 . S
C1422 H1398 0.950 . S
C1422 C1417 1.363 . S
C1422 C1421 1.415 . S
C1423 H1399 0.951 . S
C1423 C1424 1.366 . S
C1423 C1425 1.388 . S
C1424 C1423 1.366 . S
C1424 C1428 1.385 . S
C1425 H1400 0.951 . S
C1425 C1423 1.388 . S
C1425 C1426 1.366 . S
C1426 C1425 1.366 . S
C1426 C1427 1.414 . S
C1426 C1429 1.499 . S
C1427 H1401 0.950 . S
C1427 C1426 1.414 . S
C1427 C1428 1.374 . S
C1428 H1402 0.950 . S
C1428 C1424 1.385 . S
C1428 C1427 1.374 . S
C1429 C1426 1.499 . S
C1429 C1430 1.373 . S
C1429 C1431 1.389 . S
C1430 H1403 0.950 . S
C1430 C1416 1.377 . S
C1430 C1429 1.373 . S
C1431 C1415 1.377 . S
C1431 C1429 1.389 . S
C1431 C1432 1.524 . S
C1432 C1431 1.524 . S
C1432 C1433 1.397 . S
C1432 C1437 1.363 . S
C1433 H1404 0.950 . S
C1433 C1432 1.397 . S
C1433 C1434 1.334 . S
C1434 H1405 0.950 . S
C1434 C1433 1.334 . S
C1434 C1435 1.287 . S
C1435 C1434 1.287 . S
C1435 C1436 1.524 . S
C1435 H1438 0.999 . S
C1436 H1406 0.950 . S
C1436 C1435 1.524 . S
C1436 C1437 1.415 . S
C1437 H1407 0.950 . S
C1437 C1432 1.363 . S
C1437 C1436 1.415 . S
H1438 C1435 0.999 . S
H1439 C1420 0.913 . S
H1440 C1458 0.951 . S
H1441 C1460 0.951 . S
H1442 C1462 0.950 1_566 S
H1443 C1463 0.950 1_566 S
H1444 C1465 0.950 . S
H1445 C1468 0.950 . S
H1446 C1469 0.950 . S
H1447 C1471 0.950 . S
H1448 C1472 0.950 . S
H1449 C1473 0.958 . S
H1450 C1475 0.923 1_556 S
H1451 C1477 0.950 . S
H1452 C1478 0.950 . S
H1453 C1480 0.950 . S
H1454 C1483 0.950 . S
H1455 C1484 0.950 . S
H1456 C1486 0.950 . S
H1457 C1487 0.944 1_656 S
C1458 H1440 0.951 . S
C1458 C1459 1.366 . S
C1458 C1460 1.388 . S
C1459 C1458 1.366 . S
C1459 C1463 1.385 . S
C1460 H1441 0.951 . S
C1460 C1458 1.388 . S
C1460 C1461 1.366 . S
C1461 C1460 1.366 . S
C1461 C1462 1.414 . S
C1461 C1464 1.499 . S
C1462 H1442 0.950 1_544 S
C1462 C1461 1.414 . S
C1462 C1463 1.374 . S
C1463 H1443 0.950 1_544 S
C1463 C1459 1.385 . S
C1463 C1462 1.374 . S
C1464 C1461 1.499 . S
C1464 C1465 1.373 1_545 S
C1464 C1466 1.389 . S
C1465 H1444 0.950 . S
C1465 C1464 1.373 1_565 S
C1465 C1481 1.377 1_655 S
C1466 C1464 1.389 . S
C1466 C1467 1.524 . S
C1466 C1480 1.377 1_655 S
C1467 C1466 1.524 . S
C1467 C1468 1.397 1_554 S
C1467 C1472 1.363 . S
C1468 H1445 0.950 . S
C1468 C1467 1.397 1_556 S
C1468 C1469 1.334 . S
C1469 H1446 0.950 . S
C1469 C1468 1.334 . S
C1469 C1470 1.287 . S
C1470 C1469 1.287 . S
C1470 C1471 1.524 1_556 S
C1470 H1489 0.913 . S
C1471 H1447 0.950 . S
C1471 C1470 1.524 1_554 S
C1471 C1472 1.415 . S
C1472 H1448 0.950 . S
C1472 C1467 1.363 . S
C1472 C1471 1.415 . S
C1473 H1449 0.958 . S
C1473 C1474 1.359 1_566 S
C1473 C1475 1.386 1_556 S
C1474 C1473 1.359 1_544 S
C1474 C1478 1.385 . S
C1475 H1450 0.923 1_554 S
C1475 C1473 1.386 1_554 S
C1475 C1476 1.397 1_565 S
C1476 C1475 1.397 1_545 S
C1476 C1477 1.414 . S
C1476 C1479 1.499 . S
C1477 H1451 0.950 . S
C1477 C1476 1.414 . S
C1477 C1478 1.374 . S
C1478 H1452 0.950 . S
C1478 C1474 1.385 . S
C1478 C1477 1.374 . S
C1479 C1476 1.499 . S
C1479 C1480 1.373 . S
C1479 C1481 1.389 1_545 S
C1480 H1453 0.950 . S
C1480 C1466 1.377 1_455 S
C1480 C1479 1.373 . S
C1481 C1465 1.377 1_455 S
C1481 C1479 1.389 1_565 S
C1481 C1482 1.524 . S
C1482 C1481 1.524 . S
C1482 C1483 1.397 . S
C1482 C1487 1.363 . S
C1483 H1454 0.950 . S
C1483 C1482 1.397 . S
C1483 C1484 1.334 . S
C1484 H1455 0.950 . S
C1484 C1483 1.334 . S
C1484 C1485 1.287 . S
C1485 C1484 1.287 . S
C1485 C1486 1.524 . S
C1485 H1488 0.999 . S
C1486 H1456 0.950 . S
C1486 C1485 1.524 . S
C1486 C1487 1.415 . S
C1487 H1457 0.944 1_454 S
C1487 C1482 1.363 . S
C1487 C1486 1.415 . S
H1488 C1485 0.999 . S
H1489 C1470 0.913 . S
H1490 C1508 0.951 . S
H1491 C1510 0.951 . S
H1492 C1512 0.950 . S
H1493 C1513 0.950 . S
H1494 C1515 0.950 . S
H1495 C1518 0.950 . S
H1496 C1519 0.950 . S
H1497 C1521 0.950 . S
H1498 C1522 0.950 . S
H1499 C1523 0.951 . S
H1500 C1525 0.951 . S
H1501 C1527 0.950 . S
H1502 C1528 0.950 . S
H1503 C1530 0.950 . S
H1504 C1533 0.950 . S
H1505 C1534 0.950 . S
H1506 C1536 0.950 . S
H1507 C1537 0.950 . S
C1508 H1490 0.951 . S
C1508 C1509 1.366 . S
C1508 C1510 1.388 . S
C1509 C1508 1.366 . S
C1509 C1513 1.385 . S
C1510 H1491 0.951 . S
C1510 C1508 1.388 . S
C1510 C1511 1.366 . S
C1511 C1510 1.366 . S
C1511 C1512 1.414 . S
C1511 C1514 1.499 . S
C1512 H1492 0.950 . S
C1512 C1511 1.414 . S
C1512 C1513 1.374 . S
C1513 H1493 0.950 . S
C1513 C1509 1.385 . S
C1513 C1512 1.374 . S
C1514 C1511 1.499 . S
C1514 C1515 1.373 . S
C1514 C1516 1.389 . S
C1515 H1494 0.950 . S
C1515 C1514 1.373 . S
C1515 C1531 1.377 . S
C1516 C1514 1.389 . S
C1516 C1517 1.524 . S
C1516 C1530 1.377 . S
C1517 C1516 1.524 . S
C1517 C1518 1.397 . S
C1517 C1522 1.363 . S
C1518 H1495 0.950 . S
C1518 C1517 1.397 . S
C1518 C1519 1.334 . S
C1519 H1496 0.950 . S
C1519 C1518 1.334 . S
C1519 C1520 1.287 . S
C1520 C1519 1.287 . S
C1520 C1521 1.524 . S
C1520 H1539 0.913 . S
C1521 H1497 0.950 . S
C1521 C1520 1.524 . S
C1521 C1522 1.415 . S
C1522 H1498 0.950 . S
C1522 C1517 1.363 . S
C1522 C1521 1.415 . S
C1523 H1499 0.951 . S
C1523 C1524 1.366 . S
C1523 C1525 1.388 . S
C1524 C1523 1.366 . S
C1524 C1528 1.385 . S
C1525 H1500 0.951 . S
C1525 C1523 1.388 . S
C1525 C1526 1.366 . S
C1526 C1525 1.366 . S
C1526 C1527 1.414 . S
C1526 C1529 1.499 . S
C1527 H1501 0.950 . S
C1527 C1526 1.414 . S
C1527 C1528 1.374 . S
C1528 H1502 0.950 . S
C1528 C1524 1.385 . S
C1528 C1527 1.374 . S
C1529 C1526 1.499 . S
C1529 C1530 1.373 . S
C1529 C1531 1.389 . S
C1530 H1503 0.950 . S
C1530 C1516 1.377 . S
C1530 C1529 1.373 . S
C1531 C1515 1.377 . S
C1531 C1529 1.389 . S
C1531 C1532 1.524 . S
C1532 C1531 1.524 . S
C1532 C1533 1.397 . S
C1532 C1537 1.363 . S
C1533 H1504 0.950 . S
C1533 C1532 1.397 . S
C1533 C1534 1.334 . S
C1534 H1505 0.950 . S
C1534 C1533 1.334 . S
C1534 C1535 1.287 . S
C1535 C1534 1.287 . S
C1535 C1536 1.524 . S
C1535 H1538 0.999 . S
C1536 H1506 0.950 . S
C1536 C1535 1.524 . S
C1536 C1537 1.415 . S
C1537 H1507 0.950 . S
C1537 C1532 1.363 . S
C1537 C1536 1.415 . S
H1538 C1535 0.999 . S
H1539 C1520 0.913 . S
H1540 C1558 0.951 . S
H1541 C1560 0.967 . S
H1542 C1562 0.950 . S
H1543 C1563 0.950 . S
H1544 C1565 0.950 . S
H1545 C1568 0.950 . S
H1546 C1569 0.950 . S
H1547 C1571 0.950 . S
H1548 C1572 0.950 . S
H1549 C1573 0.951 . S
H1550 C1575 0.951 . S
H1551 C1577 0.959 . S
H1552 C1578 0.985 . S
H1553 C1580 0.950 . S
H1554 C1583 0.950 . S
H1555 C1584 0.950 . S
H1556 C1586 0.950 . S
H1557 C1587 0.942 . S
C1558 H1540 0.951 . S
C1558 C1559 1.366 . S
C1558 C1560 1.388 . S
C1559 C1558 1.366 . S
C1559 C1563 1.385 . S
C1560 H1541 0.967 . S
C1560 C1558 1.388 . S
C1560 C1561 1.366 . S
C1561 C1560 1.366 . S
C1561 C1562 1.414 . S
C1561 C1564 1.499 . S
C1562 H1542 0.950 . S
C1562 C1561 1.414 . S
C1562 C1563 1.374 . S
C1563 H1543 0.950 . S
C1563 C1559 1.385 . S
C1563 C1562 1.374 . S
C1564 C1561 1.499 . S
C1564 C1565 1.373 . S
C1564 C1566 1.389 . S
C1565 H1544 0.950 . S
C1565 C1564 1.373 . S
C1565 C1581 1.377 . S
C1566 C1564 1.389 . S
C1566 C1567 1.524 . S
C1566 C1580 1.377 . S
C1567 C1566 1.524 . S
C1567 C1568 1.397 . S
C1567 C1572 1.363 . S
C1568 H1545 0.950 . S
C1568 C1567 1.397 . S
C1568 C1569 1.334 . S
C1569 H1546 0.950 . S
C1569 C1568 1.334 . S
C1569 C1570 1.287 . S
C1570 C1569 1.287 . S
C1570 C1571 1.524 . S
C1570 H1589 0.913 . S
C1571 H1547 0.950 . S
C1571 C1570 1.524 . S
C1571 C1572 1.415 . S
C1572 H1548 0.950 . S
C1572 C1567 1.363 . S
C1572 C1571 1.415 . S
C1573 H1549 0.951 . S
C1573 C1574 1.366 . S
C1573 C1575 1.388 . S
C1574 C1573 1.366 . S
C1574 C1578 1.359 1_545 S
C1575 H1550 0.951 . S
C1575 C1573 1.388 . S
C1575 C1576 1.366 . S
C1576 C1575 1.366 . S
C1576 C1577 1.404 1_545 S
C1576 C1579 1.499 . S
C1577 H1551 0.959 . S
C1577 C1576 1.404 1_565 S
C1577 C1578 1.371 . S
C1578 H1552 0.985 . S
C1578 C1574 1.359 1_565 S
C1578 C1577 1.371 . S
C1579 C1576 1.499 . S
C1579 C1580 1.373 . S
C1579 C1581 1.389 . S
C1580 H1553 0.950 . S
C1580 C1566 1.377 . S
C1580 C1579 1.373 . S
C1581 C1565 1.377 . S
C1581 C1579 1.389 . S
C1581 C1582 1.524 1_545 S
C1582 C1581 1.524 1_565 S
C1582 C1583 1.397 . S
C1582 C1587 1.366 1_565 S
C1583 H1554 0.950 . S
C1583 C1582 1.397 . S
C1583 C1584 1.334 . S
C1584 H1555 0.950 . S
C1584 C1583 1.334 . S
C1584 C1585 1.287 . S
C1585 C1584 1.287 . S
C1585 C1586 1.524 . S
C1585 H1588 0.999 . S
C1586 H1556 0.950 . S
C1586 C1585 1.524 . S
C1586 C1587 1.420 1_565 S
C1587 H1557 0.942 . S
C1587 C1582 1.366 1_545 S
C1587 C1586 1.420 1_545 S
H1588 C1585 0.999 . S
H1589 C1570 0.913 . S
H1590 C1608 0.951 . S
H1591 C1610 0.951 . S
H1592 C1612 0.950 . S
H1593 C1613 0.950 . S
H1594 C1615 0.950 . S
H1595 C1618 0.950 . S
H1596 C1619 0.950 . S
H1597 C1621 0.950 . S
H1598 C1622 0.950 . S
H1599 C1623 0.951 . S
H1600 C1625 0.951 . S
H1601 C1627 0.950 . S
H1602 C1628 0.950 . S
H1603 C1630 0.950 . S
H1604 C1633 0.950 . S
H1605 C1634 0.950 . S
H1606 C1636 0.950 . S
H1607 C1637 0.950 . S
C1608 H1590 0.951 . S
C1608 C1609 1.366 . S
C1608 C1610 1.388 . S
C1609 C1608 1.366 . S
C1609 C1613 1.385 . S
C1610 H1591 0.951 . S
C1610 C1608 1.388 . S
C1610 C1611 1.366 . S
C1611 C1610 1.366 . S
C1611 C1612 1.414 . S
C1611 C1614 1.499 . S
C1612 H1592 0.950 . S
C1612 C1611 1.414 . S
C1612 C1613 1.374 . S
C1613 H1593 0.950 . S
C1613 C1609 1.385 . S
C1613 C1612 1.374 . S
C1614 C1611 1.499 . S
C1614 C1615 1.373 . S
C1614 C1616 1.389 . S
C1615 H1594 0.950 . S
C1615 C1614 1.373 . S
C1615 C1631 1.377 . S
C1616 C1614 1.389 . S
C1616 C1617 1.524 . S
C1616 C1630 1.377 . S
C1617 C1616 1.524 . S
C1617 C1618 1.397 . S
C1617 C1622 1.363 . S
C1618 H1595 0.950 . S
C1618 C1617 1.397 . S
C1618 C1619 1.334 . S
C1619 H1596 0.950 . S
C1619 C1618 1.334 . S
C1619 C1620 1.287 . S
C1620 C1619 1.287 . S
C1620 C1621 1.524 . S
C1620 H1639 0.913 . S
C1621 H1597 0.950 . S
C1621 C1620 1.524 . S
C1621 C1622 1.415 . S
C1622 H1598 0.950 . S
C1622 C1617 1.363 . S
C1622 C1621 1.415 . S
C1623 H1599 0.951 . S
C1623 C1624 1.366 . S
C1623 C1625 1.388 . S
C1624 C1623 1.366 . S
C1624 C1628 1.385 . S
C1625 H1600 0.951 . S
C1625 C1623 1.388 . S
C1625 C1626 1.366 . S
C1626 C1625 1.366 . S
C1626 C1627 1.414 . S
C1626 C1629 1.499 . S
C1627 H1601 0.950 . S
C1627 C1626 1.414 . S
C1627 C1628 1.374 . S
C1628 H1602 0.950 . S
C1628 C1624 1.385 . S
C1628 C1627 1.374 . S
C1629 C1626 1.499 . S
C1629 C1630 1.373 . S
C1629 C1631 1.389 . S
C1630 H1603 0.950 . S
C1630 C1616 1.377 . S
C1630 C1629 1.373 . S
C1631 C1615 1.377 . S
C1631 C1629 1.389 . S
C1631 C1632 1.524 . S
C1632 C1631 1.524 . S
C1632 C1633 1.397 . S
C1632 C1637 1.363 . S
C1633 H1604 0.950 . S
C1633 C1632 1.397 . S
C1633 C1634 1.334 . S
C1634 H1605 0.950 . S
C1634 C1633 1.334 . S
C1634 C1635 1.287 . S
C1635 C1634 1.287 . S
C1635 C1636 1.524 . S
C1635 H1638 0.999 . S
C1636 H1606 0.950 . S
C1636 C1635 1.524 . S
C1636 C1637 1.415 . S
C1637 H1607 0.950 . S
C1637 C1632 1.363 . S
C1637 C1636 1.415 . S
H1638 C1635 0.999 . S
H1639 C1620 0.913 . S
H1640 C1658 0.951 . S
H1641 C1660 0.951 . S
H1642 C1662 0.950 . S
H1643 C1663 0.950 . S
H1644 C1665 0.950 . S
H1645 C1668 0.950 . S
H1646 C1669 0.950 . S
H1647 C1671 0.950 . S
H1648 C1672 0.950 . S
H1649 C1673 0.951 . S
H1650 C1675 0.951 . S
H1651 C1677 0.950 . S
H1652 C1678 0.950 . S
H1653 C1680 0.950 . S
H1654 C1683 0.950 . S
H1655 C1684 0.950 . S
H1656 C1686 0.950 . S
H1657 C1687 0.950 . S
C1658 H1640 0.951 . S
C1658 C1659 1.366 . S
C1658 C1660 1.388 . S
C1659 C1658 1.366 . S
C1659 C1663 1.385 . S
C1660 H1641 0.951 . S
C1660 C1658 1.388 . S
C1660 C1661 1.366 . S
C1661 C1660 1.366 . S
C1661 C1662 1.414 . S
C1661 C1664 1.499 . S
C1662 H1642 0.950 . S
C1662 C1661 1.414 . S
C1662 C1663 1.374 . S
C1663 H1643 0.950 . S
C1663 C1659 1.385 . S
C1663 C1662 1.374 . S
C1664 C1661 1.499 . S
C1664 C1665 1.373 . S
C1664 C1666 1.389 . S
C1665 H1644 0.950 . S
C1665 C1664 1.373 . S
C1665 C1681 1.377 . S
C1666 C1664 1.389 . S
C1666 C1667 1.524 . S
C1666 C1680 1.377 . S
C1667 C1666 1.524 . S
C1667 C1668 1.397 . S
C1667 C1672 1.363 . S
C1668 H1645 0.950 . S
C1668 C1667 1.397 . S
C1668 C1669 1.334 . S
C1669 H1646 0.950 . S
C1669 C1668 1.334 . S
C1669 C1670 1.287 . S
C1670 C1669 1.287 . S
C1670 C1671 1.524 . S
C1670 H1689 0.913 . S
C1671 H1647 0.950 . S
C1671 C1670 1.524 . S
C1671 C1672 1.415 . S
C1672 H1648 0.950 . S
C1672 C1667 1.363 . S
C1672 C1671 1.415 . S
C1673 H1649 0.951 . S
C1673 C1674 1.366 . S
C1673 C1675 1.388 . S
C1674 C1673 1.366 . S
C1674 C1678 1.385 . S
C1675 H1650 0.951 . S
C1675 C1673 1.388 . S
C1675 C1676 1.366 . S
C1676 C1675 1.366 . S
C1676 C1677 1.414 . S
C1676 C1679 1.499 . S
C1677 H1651 0.950 . S
C1677 C1676 1.414 . S
C1677 C1678 1.374 . S
C1678 H1652 0.950 . S
C1678 C1674 1.385 . S
C1678 C1677 1.374 . S
C1679 C1676 1.499 . S
C1679 C1680 1.373 . S
C1679 C1681 1.389 . S
C1680 H1653 0.950 . S
C1680 C1666 1.377 . S
C1680 C1679 1.373 . S
C1681 C1665 1.377 . S
C1681 C1679 1.389 . S
C1681 C1682 1.524 . S
C1682 C1681 1.524 . S
C1682 C1683 1.397 . S
C1682 C1687 1.363 . S
C1683 H1654 0.950 . S
C1683 C1682 1.397 . S
C1683 C1684 1.334 . S
C1684 H1655 0.950 . S
C1684 C1683 1.334 . S
C1684 C1685 1.287 . S
C1685 C1684 1.287 . S
C1685 C1686 1.524 . S
C1685 H1688 0.999 . S
C1686 H1656 0.950 . S
C1686 C1685 1.524 . S
C1686 C1687 1.415 . S
C1687 H1657 0.950 . S
C1687 C1682 1.363 . S
C1687 C1686 1.415 . S
H1688 C1685 0.999 . S
H1689 C1670 0.913 . S
H1690 C1708 0.951 . S
H1691 C1710 0.951 . S
H1692 C1712 0.950 . S
H1693 C1713 0.950 . S
H1694 C1715 0.950 . S
H1695 C1718 0.950 . S
H1696 C1719 0.950 . S
H1697 C1721 0.950 . S
H1698 C1722 0.950 . S
H1699 C1723 0.951 . S
H1700 C1725 0.951 . S
H1701 C1727 0.950 . S
H1702 C1728 0.950 . S
H1703 C1730 0.950 . S
H1704 C1733 0.950 . S
H1705 C1734 0.950 . S
H1706 C1736 0.950 . S
H1707 C1737 0.950 . S
C1708 H1690 0.951 . S
C1708 C1709 1.366 . S
C1708 C1710 1.388 . S
C1709 C1708 1.366 . S
C1709 C1713 1.385 . S
C1710 H1691 0.951 . S
C1710 C1708 1.388 . S
C1710 C1711 1.366 . S
C1711 C1710 1.366 . S
C1711 C1712 1.414 . S
C1711 C1714 1.499 . S
C1712 H1692 0.950 . S
C1712 C1711 1.414 . S
C1712 C1713 1.374 . S
C1713 H1693 0.950 . S
C1713 C1709 1.385 . S
C1713 C1712 1.374 . S
C1714 C1711 1.499 . S
C1714 C1715 1.373 . S
C1714 C1716 1.389 . S
C1715 H1694 0.950 . S
C1715 C1714 1.373 . S
C1715 C1731 1.377 . S
C1716 C1714 1.389 . S
C1716 C1717 1.524 . S
C1716 C1730 1.377 . S
C1717 C1716 1.524 . S
C1717 C1718 1.397 . S
C1717 C1722 1.363 . S
C1718 H1695 0.950 . S
C1718 C1717 1.397 . S
C1718 C1719 1.334 . S
C1719 H1696 0.950 . S
C1719 C1718 1.334 . S
C1719 C1720 1.287 . S
C1720 C1719 1.287 . S
C1720 C1721 1.524 . S
C1720 H1739 0.913 . S
C1721 H1697 0.950 . S
C1721 C1720 1.524 . S
C1721 C1722 1.415 . S
C1722 H1698 0.950 . S
C1722 C1717 1.363 . S
C1722 C1721 1.415 . S
C1723 H1699 0.951 . S
C1723 C1724 1.366 . S
C1723 C1725 1.388 . S
C1724 C1723 1.366 . S
C1724 C1728 1.385 . S
C1725 H1700 0.951 . S
C1725 C1723 1.388 . S
C1725 C1726 1.366 . S
C1726 C1725 1.366 . S
C1726 C1727 1.414 . S
C1726 C1729 1.499 . S
C1727 H1701 0.950 . S
C1727 C1726 1.414 . S
C1727 C1728 1.374 . S
C1728 H1702 0.950 . S
C1728 C1724 1.385 . S
C1728 C1727 1.374 . S
C1729 C1726 1.499 . S
C1729 C1730 1.373 . S
C1729 C1731 1.389 . S
C1730 H1703 0.950 . S
C1730 C1716 1.377 . S
C1730 C1729 1.373 . S
C1731 C1715 1.377 . S
C1731 C1729 1.389 . S
C1731 C1732 1.524 . S
C1732 C1731 1.524 . S
C1732 C1733 1.397 . S
C1732 C1737 1.363 . S
C1733 H1704 0.950 . S
C1733 C1732 1.397 . S
C1733 C1734 1.334 . S
C1734 H1705 0.950 . S
C1734 C1733 1.334 . S
C1734 C1735 1.287 . S
C1735 C1734 1.287 . S
C1735 C1736 1.524 . S
C1735 H1738 0.999 . S
C1736 H1706 0.950 . S
C1736 C1735 1.524 . S
C1736 C1737 1.415 . S
C1737 H1707 0.950 . S
C1737 C1732 1.363 . S
C1737 C1736 1.415 . S
H1738 C1735 0.999 . S
H1739 C1720 0.913 . S
H1740 C1758 0.951 . S
H1741 C1760 0.951 . S
H1742 C1762 0.950 . S
H1743 C1763 0.950 . S
H1744 C1765 0.950 . S
H1745 C1768 0.950 . S
H1746 C1769 0.950 . S
H1747 C1771 0.950 . S
H1748 C1772 0.950 . S
H1749 C1773 0.951 . S
H1750 C1775 0.951 . S
H1751 C1777 0.950 . S
H1752 C1778 0.950 . S
H1753 C1780 0.950 . S
H1754 C1783 0.950 . S
H1755 C1784 0.950 . S
H1756 C1786 0.950 . S
H1757 C1787 0.950 . S
C1758 H1740 0.951 . S
C1758 C1759 1.366 . S
C1758 C1760 1.388 . S
C1759 C1758 1.366 . S
C1759 C1763 1.385 . S
C1760 H1741 0.951 . S
C1760 C1758 1.388 . S
C1760 C1761 1.366 . S
C1761 C1760 1.366 . S
C1761 C1762 1.414 . S
C1761 C1764 1.499 . S
C1762 H1742 0.950 . S
C1762 C1761 1.414 . S
C1762 C1763 1.374 . S
C1763 H1743 0.950 . S
C1763 C1759 1.385 . S
C1763 C1762 1.374 . S
C1764 C1761 1.499 . S
C1764 C1765 1.373 . S
C1764 C1766 1.389 . S
C1765 H1744 0.950 . S
C1765 C1764 1.373 . S
C1765 C1781 1.377 . S
C1766 C1764 1.389 . S
C1766 C1767 1.524 . S
C1766 C1780 1.377 . S
C1767 C1766 1.524 . S
C1767 C1768 1.397 . S
C1767 C1772 1.363 . S
C1768 H1745 0.950 . S
C1768 C1767 1.397 . S
C1768 C1769 1.334 . S
C1769 H1746 0.950 . S
C1769 C1768 1.334 . S
C1769 C1770 1.287 . S
C1770 C1769 1.287 . S
C1770 C1771 1.524 . S
C1770 H1789 0.913 . S
C1771 H1747 0.950 . S
C1771 C1770 1.524 . S
C1771 C1772 1.415 . S
C1772 H1748 0.950 . S
C1772 C1767 1.363 . S
C1772 C1771 1.415 . S
C1773 H1749 0.951 . S
C1773 C1774 1.366 . S
C1773 C1775 1.388 . S
C1774 C1773 1.366 . S
C1774 C1778 1.385 . S
C1775 H1750 0.951 . S
C1775 C1773 1.388 . S
C1775 C1776 1.366 . S
C1776 C1775 1.366 . S
C1776 C1777 1.414 . S
C1776 C1779 1.499 . S
C1777 H1751 0.950 . S
C1777 C1776 1.414 . S
C1777 C1778 1.374 . S
C1778 H1752 0.950 . S
C1778 C1774 1.385 . S
C1778 C1777 1.374 . S
C1779 C1776 1.499 . S
C1779 C1780 1.373 . S
C1779 C1781 1.389 . S
C1780 H1753 0.950 . S
C1780 C1766 1.377 . S
C1780 C1779 1.373 . S
C1781 C1765 1.377 . S
C1781 C1779 1.389 . S
C1781 C1782 1.524 . S
C1782 C1781 1.524 . S
C1782 C1783 1.397 . S
C1782 C1787 1.363 . S
C1783 H1754 0.950 . S
C1783 C1782 1.397 . S
C1783 C1784 1.334 . S
C1784 H1755 0.950 . S
C1784 C1783 1.334 . S
C1784 C1785 1.287 . S
C1785 C1784 1.287 . S
C1785 C1786 1.524 . S
C1785 H1788 0.999 . S
C1786 H1756 0.950 . S
C1786 C1785 1.524 . S
C1786 C1787 1.415 . S
C1787 H1757 0.950 . S
C1787 C1782 1.363 . S
C1787 C1786 1.415 . S
H1788 C1785 0.999 . S
H1789 C1770 0.913 . S
H1790 C1808 0.951 . S
H1791 C1810 0.951 . S
H1792 C1812 0.950 . S
H1793 C1813 0.950 . S
H1794 C1815 0.950 . S
H1795 C1818 0.950 . S
H1796 C1819 0.950 . S
H1797 C1821 0.950 . S
H1798 C1822 0.950 . S
H1799 C1823 0.951 . S
H1800 C1825 0.951 . S
H1801 C1827 0.950 1_556 S
H1802 C1828 0.950 1_556 S
H1803 C1830 0.948 . S
H1804 C1833 0.950 . S
H1805 C1834 0.950 . S
H1806 C1836 0.950 . S
H1807 C1837 0.957 1_655 S
C1808 H1790 0.951 . S
C1808 C1809 1.366 1_556 S
C1808 C1810 1.388 . S
C1809 C1808 1.366 1_554 S
C1809 C1813 1.385 . S
C1810 H1791 0.951 . S
C1810 C1808 1.388 . S
C1810 C1811 1.366 1_556 S
C1811 C1810 1.366 1_554 S
C1811 C1812 1.414 . S
C1811 C1814 1.499 . S
C1812 H1792 0.950 . S
C1812 C1811 1.414 . S
C1812 C1813 1.374 . S
C1813 H1793 0.950 . S
C1813 C1809 1.385 . S
C1813 C1812 1.374 . S
C1814 C1811 1.499 . S
C1814 C1815 1.373 . S
C1814 C1816 1.354 1_554 S
C1815 H1794 0.950 . S
C1815 C1814 1.373 . S
C1815 C1831 1.377 1_655 S
C1816 C1814 1.354 1_556 S
C1816 C1817 1.563 . S
C1816 C1830 1.376 1_655 S
C1817 C1816 1.563 . S
C1817 C1818 1.397 . S
C1817 C1822 1.363 . S
C1818 H1795 0.950 . S
C1818 C1817 1.397 . S
C1818 C1819 1.334 . S
C1819 H1796 0.950 . S
C1819 C1818 1.334 . S
C1819 C1820 1.287 . S
C1820 C1819 1.287 . S
C1820 C1821 1.524 . S
C1820 H1839 0.913 . S
C1821 H1797 0.950 . S
C1821 C1820 1.524 . S
C1821 C1822 1.415 . S
C1822 H1798 0.950 . S
C1822 C1817 1.363 . S
C1822 C1821 1.415 . S
C1823 H1799 0.951 . S
C1823 C1824 1.366 . S
C1823 C1825 1.388 . S
C1824 C1823 1.366 . S
C1824 C1828 1.385 . S
C1825 H1800 0.951 . S
C1825 C1823 1.388 . S
C1825 C1826 1.366 . S
C1826 C1825 1.366 . S
C1826 C1827 1.414 . S
C1826 C1829 1.499 . S
C1827 H1801 0.950 1_554 S
C1827 C1826 1.414 . S
C1827 C1828 1.374 . S
C1828 H1802 0.950 1_554 S
C1828 C1824 1.385 . S
C1828 C1827 1.374 . S
C1829 C1826 1.499 . S
C1829 C1830 1.376 1_554 S
C1829 C1831 1.389 . S
C1830 H1803 0.948 . S
C1830 C1816 1.376 1_455 S
C1830 C1829 1.376 1_556 S
C1831 C1815 1.377 1_455 S
C1831 C1829 1.389 . S
C1831 C1832 1.524 . S
C1832 C1831 1.524 . S
C1832 C1833 1.397 . S
C1832 C1837 1.363 . S
C1833 H1804 0.950 . S
C1833 C1832 1.397 . S
C1833 C1834 1.334 . S
C1834 H1805 0.950 . S
C1834 C1833 1.334 . S
C1834 C1835 1.287 . S
C1835 C1834 1.287 . S
C1835 C1836 1.524 . S
C1835 H1838 0.999 . S
C1836 H1806 0.950 . S
C1836 C1835 1.524 . S
C1836 C1837 1.415 . S
C1837 H1807 0.957 1_455 S
C1837 C1832 1.363 . S
C1837 C1836 1.415 . S
H1838 C1835 0.999 . S
H1839 C1820 0.913 . S
C659 C21 1.488 . S
C674 C141 1.494 . S
C709 C61 1.489 . S
C724 C15 1.502 . S
C759 C55 1.503 . S
C774 C82 1.494 . S
C809 C135 1.504 . S
C824 C95 1.504 . S
C859 C301 1.492 . S
C874 C162 1.493 . S
C909 C175 1.503 . S
C924 C221 1.491 . S
C959 C261 1.495 . S
C974 C215 1.503 . S
C1009 C295 1.506 . S
C1024 C255 1.507 . S
C1059 C461 1.494 . S
C1074 C341 1.489 . S
C1109 C335 1.502 . S
C1124 C381 1.490 . S
C1159 C402 1.494 . S
C1174 C375 1.503 . S
C1209 C415 1.505 . S
C1224 C455 1.505 . S
C1259 C482 1.493 . S
C1274 C621 1.492 . S
C1309 C541 1.491 . S
C1324 C495 1.503 . S
C1359 C535 1.502 . S
C1374 C581 1.494 . S
C1409 C575 1.507 . S
C1424 C615 1.506 . S
C1459 C181 1.490 . S
C1474 C2 1.489 . S
C1509 C522 1.488 . S
C1524 C42 1.487 . S
C1559 C101 1.499 . S
C1574 C242 1.497 . S
C1609 C602 1.489 . S
C1624 C122 1.498 . S
C1659 C362 1.486 . S
C1674 C202 1.488 . S
C1709 C282 1.490 . S
C1724 C442 1.498 . S
C1759 C501 1.490 . S
C1774 C322 1.489 . S
C1809 C421 1.500 . S
C1824 C562 1.497 . S
