# Generated by pormake.
# Topology vcm, (7)-cn, num edge types: 1
# Building blocks:
#     Node 0, Type 0, BuildingBlock: HICVOG_clean_sbu_0, # of connection points: 7
#     Node 1, Type 0, BuildingBlock: HICVOG_clean_sbu_0, # of connection points: 7
#     Node 2, Type 0, BuildingBlock: HICVOG_clean_sbu_0, # of connection points: 7
#     Node 3, Type 0, BuildingBlock: HICVOG_clean_sbu_0, # of connection points: 7
#     Node 4, Type 0, BuildingBlock: HICVOG_clean_sbu_0, # of connection points: 7
#     Node 5, Type 0, BuildingBlock: HICVOG_clean_sbu_0, # of connection points: 7
#     Node 6, Type 0, BuildingBlock: HICVOG_clean_sbu_0, # of connection points: 7
#     Node 7, Type 0, BuildingBlock: HICVOG_clean_sbu_0, # of connection points: 7
#     Edge 8, Type (0, 0), BuildingBlock: XIVTED_clean_linker_0, # of connection points: 2
#     Edge 9, Type (0, 0), BuildingBlock: XIVTED_clean_linker_0, # of connection points: 2
#     Edge 10, Type (0, 0), BuildingBlock: XIVTED_clean_linker_0, # of connection points: 2
#     Edge 11, Type (0, 0), BuildingBlock: XIVTED_clean_linker_0, # of connection points: 2
#     Edge 12, Type (0, 0), BuildingBlock: XIVTED_clean_linker_0, # of connection points: 2
#     Edge 13, Type (0, 0), BuildingBlock: XIVTED_clean_linker_0, # of connection points: 2
#     Edge 14, Type (0, 0), BuildingBlock: XIVTED_clean_linker_0, # of connection points: 2
#     Edge 15, Type (0, 0), BuildingBlock: XIVTED_clean_linker_0, # of connection points: 2
#     Edge 16, Type (0, 0), BuildingBlock: XIVTED_clean_linker_0, # of connection points: 2
#     Edge 17, Type (0, 0), BuildingBlock: XIVTED_clean_linker_0, # of connection points: 2
#     Edge 18, Type (0, 0), BuildingBlock: XIVTED_clean_linker_0, # of connection points: 2
#     Edge 19, Type (0, 0), BuildingBlock: XIVTED_clean_linker_0, # of connection points: 2
#     Edge 20, Type (0, 0), BuildingBlock: XIVTED_clean_linker_0, # of connection points: 2
#     Edge 21, Type (0, 0), BuildingBlock: XIVTED_clean_linker_0, # of connection points: 2
#     Edge 22, Type (0, 0), BuildingBlock: XIVTED_clean_linker_0, # of connection points: 2
#     Edge 23, Type (0, 0), BuildingBlock: XIVTED_clean_linker_0, # of connection points: 2
#     Edge 24, Type (0, 0), BuildingBlock: XIVTED_clean_linker_0, # of connection points: 2
#     Edge 25, Type (0, 0), BuildingBlock: XIVTED_clean_linker_0, # of connection points: 2
#     Edge 26, Type (0, 0), BuildingBlock: XIVTED_clean_linker_0, # of connection points: 2
#     Edge 27, Type (0, 0), BuildingBlock: XIVTED_clean_linker_0, # of connection points: 2
#     Edge 28, Type (0, 0), BuildingBlock: XIVTED_clean_linker_0, # of connection points: 2
#     Edge 29, Type (0, 0), BuildingBlock: XIVTED_clean_linker_0, # of connection points: 2
#     Edge 30, Type (0, 0), BuildingBlock: XIVTED_clean_linker_0, # of connection points: 2
#     Edge 31, Type (0, 0), BuildingBlock: XIVTED_clean_linker_0, # of connection points: 2
#     Edge 32, Type (0, 0), BuildingBlock: XIVTED_clean_linker_0, # of connection points: 2
#     Edge 33, Type (0, 0), BuildingBlock: XIVTED_clean_linker_0, # of connection points: 2
#     Edge 34, Type (0, 0), BuildingBlock: XIVTED_clean_linker_0, # of connection points: 2
#     Edge 35, Type (0, 0), BuildingBlock: XIVTED_clean_linker_0, # of connection points: 2
# Relax obj value: 0.271
# Max RMSD: 0.254
# Mean RMSD: 0.254
data_MOF--net-vcm--node1-HICVOG_clean_sbu_0--edge1-XIVTED_clean_linker_0
_symmetry_space_group_name_H-M    P1
_symmetry_Int_Tables_number       1
_symmetry_cell_setting            triclinic
loop_
_symmetry_equiv_pos_as_xyz
'x, y, z'
_cell_length_a     40.078465
_cell_length_b     34.066259
_cell_length_c     26.702956
_cell_angle_alpha  90.015001
_cell_angle_beta   90.000973
_cell_angle_gamma 90.170975
loop_
_atom_site_label
_atom_site_type_symbol
_atom_site_fract_x
_atom_site_fract_y
_atom_site_fract_z
_atom_type_partial_charge
Zn0 Zn 1.0093 0.29941 0.19137 0.0
C1 C 0.04373 0.36811 0.08706 0.0
N2 N 0.02756 0.34235 0.05773 0.0
C3 C 0.0226 0.31144 0.08777 0.0
N4 N 0.03485 0.31808 0.13414 0.0
N5 N 0.04909 0.3533 0.13349 0.0
C6 C 0.05247 0.44252 0.22283 0.0
O7 O 0.02795 0.4188 0.23536 0.0
O8 O 1.00345 0.24088 0.18782 0.0
Zn9 Zn 0.08101 0.3707 0.18429 0.0
N10 N 0.96577 0.32521 0.18959 0.0
C11 C 0.93597 0.38227 0.16439 0.0
C12 C 0.96589 0.36235 0.17093 0.0
C13 C 0.93658 0.30753 0.2037 0.0
N14 N 0.90695 0.36453 0.17744 0.0
C15 C 0.90617 0.32775 0.1973 0.0
O16 O 0.07707 0.34464 0.25245 0.0
C17 C 0.057 0.32371 0.27803 0.0
O18 O 0.03103 0.30832 0.25877 0.0
H19 H 0.98905 0.37637 0.16066 0.0
H20 H 0.93698 0.278 0.2186 0.0
C21 C 0.15296 0.36862 0.18716 0.0
C22 C 0.18504 0.35963 0.16881 0.0
C23 C 0.16028 0.33243 0.09571 0.0
C24 C 0.12869 0.34072 0.11446 0.0
N25 N 0.12557 0.35899 0.15951 0.0
N26 N 0.18755 0.34196 0.12322 0.0
H27 H 0.14955 0.38328 0.22271 0.0
C28 C 0.02998 0.2207 0.19112 0.0
O29 O 0.05889 0.239 0.19202 0.0
O30 O 0.0773 0.4288 0.19903 0.0
H31 H 0.10688 0.33271 0.09301 0.0
H32 H 0.93579 0.41164 0.14901 0.0
H33 H 0.16313 0.31822 0.05974 0.0
Zn34 Zn 0.51961 0.62459 0.68408 0.0
C35 C 0.57729 0.68604 0.58857 0.0
N36 N 0.57316 0.65519 0.55817 0.0
C37 C 0.5573 0.62889 0.58707 0.0
N38 N 0.55123 0.64336 0.63348 0.0
N39 N 0.56475 0.67896 0.63466 0.0
C40 C 0.57029 0.77594 0.69218 0.0
O41 O 0.54112 0.75823 0.69173 0.0
O42 O 0.52413 0.56635 0.69771 0.0
Zn43 Zn 0.59035 0.69679 0.69204 0.0
N44 N 0.47488 0.63556 0.65925 0.0
C45 C 0.44015 0.65984 0.59398 0.0
C46 C 0.47173 0.65249 0.61335 0.0
C47 C 0.44748 0.62659 0.68724 0.0
N48 N 0.41287 0.65076 0.62168 0.0
C49 C 0.41541 0.63455 0.66812 0.0
O50 O 0.56881 0.68695 0.75928 0.0
C51 C 0.54328 0.67076 0.77879 0.0
O52 O 0.52332 0.64968 0.75313 0.0
H53 H 0.49349 0.66006 0.59159 0.0
H54 H 0.45079 0.61313 0.72358 0.0
C55 C 0.66244 0.68836 0.70613 0.0
C56 C 0.69312 0.66875 0.69997 0.0
C57 C 0.66457 0.61536 0.66198 0.0
C58 C 0.63435 0.63463 0.66849 0.0
N59 N 0.63375 0.67097 0.68958 0.0
N60 N 0.69313 0.63283 0.67765 0.0
H61 H 0.66141 0.71724 0.72296 0.0
C62 C 0.54974 0.55271 0.71968 0.0
O63 O 0.57453 0.57657 0.73052 0.0
O64 O 0.59656 0.75526 0.68954 0.0
H65 H 0.61157 0.62071 0.65637 0.0
H66 H 0.4373 0.6729 0.55732 0.0
H67 H 0.66535 0.58665 0.6447 0.0
Zn68 Zn 0.02054 0.70007 0.84742 0.0
C69 C 0.07084 0.63118 0.94049 0.0
N70 N 0.05909 0.6559 0.97543 0.0
C71 C 0.04651 0.68519 0.94762 0.0
N72 N 0.0499 0.6786 0.89809 0.0
N73 N 0.06582 0.64482 0.89363 0.0
C74 C 0.10662 0.56026 0.78351 0.0
O75 O 0.11858 0.58511 0.7504 0.0
O76 O 0.01926 0.75898 0.85147 0.0
Zn77 Zn 0.09519 0.63173 0.8384 0.0
N78 N 0.97578 0.67919 0.85955 0.0
C79 C 0.94177 0.63578 0.90752 0.0
C80 C 0.97307 0.65002 0.89414 0.0
C81 C 0.94811 0.69379 0.83635 0.0
N82 N 0.91426 0.65068 0.88513 0.0
C83 C 0.91633 0.67915 0.84951 0.0
O84 O 0.08244 0.65609 0.77248 0.0
C85 C 0.05901 0.67489 0.7513 0.0
O86 O 0.03468 0.68931 0.77583 0.0
H87 H 0.99498 0.63796 0.91173 0.0
H88 H 0.9508 0.7169 0.80882 0.0
C89 C 0.16779 0.63641 0.83506 0.0
C90 C 0.19912 0.6515 0.84965 0.0
C91 C 0.17198 0.69363 0.90751 0.0
C92 C 0.14112 0.67923 0.89218 0.0
N93 N 0.1395 0.65061 0.85671 0.0
N94 N 0.20012 0.67957 0.88592 0.0
H95 H 0.16586 0.61356 0.80718 0.0
C96 C 0.04633 0.77779 0.8448 0.0
O97 O 0.07436 0.75812 0.84074 0.0
O98 O 0.09593 0.57323 0.82523 0.0
H99 H 0.11863 0.69094 0.90855 0.0
H100 H 0.93933 0.61295 0.93545 0.0
H101 H 0.17358 0.71615 0.93599 0.0
Zn102 Zn 0.57731 0.29184 0.34859 0.0
C103 C 0.53198 0.36367 0.44353 0.0
N104 N 0.54392 0.33863 0.47793 0.0
C105 C 0.55481 0.30875 0.44952 0.0
N106 N 0.55001 0.31512 0.40032 0.0
N107 N 0.53519 0.34964 0.39649 0.0
C108 C 0.52955 0.43606 0.30069 0.0
O109 O 0.55315 0.41224 0.28529 0.0
O110 O 0.57972 0.23308 0.35572 0.0
Zn111 Zn 0.50544 0.36466 0.34242 0.0
N112 N 0.62209 0.31511 0.35329 0.0
C113 C 0.65534 0.36482 0.39163 0.0
C114 C 0.62442 0.34768 0.38263 0.0
C115 C 0.64986 0.2996 0.33115 0.0
N116 N 0.68292 0.34915 0.37038 0.0
C117 C 0.68134 0.31711 0.34003 0.0
O118 O 0.51426 0.3385 0.27612 0.0
C119 C 0.53462 0.31497 0.25557 0.0
O120 O 0.55793 0.29826 0.27974 0.0
H121 H 0.60249 0.36025 0.39954 0.0
H122 H 0.64755 0.27368 0.30796 0.0
C123 C 0.43329 0.36268 0.33756 0.0
C124 C 0.40118 0.35068 0.353 0.0
C125 C 0.42572 0.3136 0.41864 0.0
C126 C 0.45733 0.32488 0.4026 0.0
N127 N 0.4606 0.34958 0.36287 0.0
N128 N 0.39854 0.32663 0.39354 0.0
H129 H 0.43674 0.38223 0.30606 0.0
C130 C 0.55244 0.21466 0.34894 0.0
O131 O 0.52469 0.23486 0.3448 0.0
O132 O 0.50639 0.42262 0.32839 0.0
H133 H 0.47902 0.31373 0.42172 0.0
H134 H 0.65745 0.39045 0.41536 0.0
H135 H 0.42278 0.29424 0.45044 0.0
Zn136 Zn 0.50779 0.79491 0.19021 0.0
C137 C 0.54471 0.86285 0.08611 0.0
N138 N 0.52888 0.83715 0.05625 0.0
C139 C 0.5225 0.80684 0.08666 0.0
N140 N 0.53374 0.81362 0.13357 0.0
N141 N 0.54852 0.84852 0.13314 0.0
C142 C 0.55128 0.93786 0.22087 0.0
O143 O 0.52606 0.91448 0.23118 0.0
O144 O 0.50319 0.73634 0.18708 0.0
Zn145 Zn 0.57973 0.8657 0.18489 0.0
N146 N 0.46388 0.81943 0.18604 0.0
C147 C 0.43226 0.87278 0.15363 0.0
C148 C 0.46276 0.85456 0.1619 0.0
C149 C 0.43544 0.80237 0.20405 0.0
N150 N 0.40395 0.85557 0.17068 0.0
C151 C 0.40447 0.82095 0.19608 0.0
O152 O 0.57415 0.84086 0.25357 0.0
C153 C 0.55348 0.82049 0.27881 0.0
O154 O 0.52793 0.80485 0.25862 0.0
H155 H 0.48535 0.86832 0.14865 0.0
H156 H 0.43686 0.77451 0.22338 0.0
C157 C 0.65174 0.86366 0.18858 0.0
C158 C 0.6838 0.85398 0.17079 0.0
C159 C 0.65907 0.8234 0.09991 0.0
C160 C 0.62749 0.83245 0.11807 0.0
N161 N 0.62437 0.85275 0.16169 0.0
N162 N 0.68634 0.83428 0.12658 0.0
H163 H 0.64838 0.87989 0.22302 0.0
C164 C 0.53016 0.71695 0.18994 0.0
O165 O 0.5587 0.73605 0.19007 0.0
O166 O 0.57666 0.92387 0.1987 0.0
H167 H 0.60571 0.8234 0.09727 0.0
H168 H 0.43106 0.90046 0.13389 0.0
H169 H 0.66192 0.80758 0.06505 0.0
Zn170 Zn 0.01985 0.12954 0.68841 0.0
C171 C 0.0743 0.18169 0.58231 0.0
N172 N 0.06281 0.15212 0.55379 0.0
C173 C 0.04868 0.12809 0.58752 0.0
N174 N 0.05073 0.14258 0.63457 0.0
N175 N 0.06726 0.17621 0.63133 0.0
C176 C 0.07411 0.27657 0.69492 0.0
O177 O 0.04706 0.25803 0.70975 0.0
O178 O 0.02007 0.07199 0.70624 0.0
Zn179 Zn 0.09424 0.19782 0.68515 0.0
N180 N 0.97562 0.14366 0.66531 0.0
C181 C 0.94137 0.17599 0.60543 0.0
C182 C 0.97282 0.16634 0.6236 0.0
C183 C 0.94806 0.13107 0.69045 0.0
N184 N 0.9139 0.16344 0.63041 0.0
C185 C 0.91615 0.14145 0.67284 0.0
O186 O 0.076 0.18966 0.75569 0.0
C187 C 0.0502 0.17626 0.77783 0.0
O188 O 0.02797 0.15671 0.75459 0.0
H189 H 0.99476 0.17699 0.60445 0.0
H190 H 0.95116 0.11305 0.72347 0.0
C191 C 0.16653 0.19056 0.69887 0.0
C192 C 0.19767 0.17267 0.68998 0.0
C193 C 0.17046 0.12224 0.64406 0.0
C194 C 0.13978 0.13978 0.65318 0.0
N195 N 0.13829 0.17389 0.6796 0.0
N196 N 0.19856 0.13907 0.66243 0.0
H197 H 0.16479 0.21765 0.71989 0.0
C198 C 0.04383 0.05873 0.73286 0.0
O199 O 0.06841 0.08238 0.74538 0.0
O200 O 0.0985 0.2566 0.67841 0.0
H201 H 0.11736 0.12634 0.63873 0.0
H202 H 0.93877 0.19368 0.57203 0.0
H203 H 0.17196 0.09537 0.62257 0.0
Zn204 Zn 0.5224 0.19612 0.8482 0.0
C205 C 0.57102 0.12755 0.94378 0.0
N206 N 0.55715 0.15114 0.97812 0.0
C207 C 0.54491 0.18048 0.94996 0.0
N208 N 0.5504 0.17492 0.9007 0.0
N209 N 0.56732 0.14177 0.89695 0.0
C210 C 0.57369 0.05739 0.80141 0.0
O211 O 0.54947 0.08125 0.78853 0.0
O212 O 0.52117 0.25534 0.85049 0.0
Zn213 Zn 0.59748 0.12859 0.84321 0.0
N214 N 0.47754 0.17498 0.85828 0.0
C215 C 0.44374 0.12851 0.90168 0.0
C216 C 0.47498 0.14354 0.88949 0.0
C217 C 0.44979 0.19114 0.83709 0.0
N218 N 0.41614 0.14489 0.88133 0.0
C219 C 0.41806 0.17565 0.84895 0.0
O220 O 0.5874 0.15404 0.77725 0.0
C221 C 0.56375 0.17146 0.75476 0.0
O222 O 0.53818 0.18443 0.77771 0.0
H223 H 0.49699 0.13028 0.90533 0.0
H224 H 0.45237 0.21599 0.81215 0.0
C225 C 0.66935 0.13164 0.83997 0.0
C226 C 0.70116 0.14384 0.8563 0.0
C227 C 0.67567 0.18153 0.92052 0.0
C228 C 0.64431 0.17001 0.90361 0.0
N229 N 0.6417 0.14491 0.86416 0.0
N230 N 0.70323 0.16828 0.89654 0.0
H231 H 0.66642 0.11171 0.80872 0.0
C232 C 0.54815 0.27369 0.84114 0.0
O233 O 0.57588 0.25356 0.83627 0.0
O234 O 0.59756 0.07059 0.82798 0.0
H235 H 0.62227 0.18111 0.92193 0.0
H236 H 0.44141 0.10388 0.92701 0.0
H237 H 0.67812 0.20117 0.95215 0.0
Zn238 Zn 0.07658 0.80036 0.34424 0.0
C239 C 0.03222 0.86898 0.44344 0.0
N240 N 0.04659 0.84448 0.47629 0.0
C241 C 0.05738 0.81525 0.44682 0.0
N242 N 0.04989 0.82139 0.39824 0.0
N243 N 0.03358 0.85509 0.39604 0.0
C244 C 0.02528 0.93936 0.30036 0.0
O245 O 0.04939 0.91566 0.2865 0.0
O246 O 0.07853 0.74125 0.34705 0.0
Zn247 Zn 1.0019 0.86819 0.34357 0.0
N248 N 0.12136 0.82243 0.35128 0.0
C249 C 0.15489 0.87202 0.38921 0.0
C250 C 0.12375 0.85577 0.37914 0.0
C251 C 0.14916 0.80535 0.33144 0.0
N252 N 0.18256 0.85476 0.37028 0.0
C253 C 0.18078 0.82196 0.34128 0.0
O254 O 1.00977 0.84206 0.27651 0.0
C255 C 0.03291 0.82435 0.25306 0.0
O256 O 0.05888 0.81148 0.27496 0.0
H257 H 0.10167 0.8696 0.39392 0.0
H258 H 0.14672 0.77895 0.30918 0.0
C259 C 0.9301 0.8645 0.34167 0.0
C260 C 0.89833 0.85315 0.35925 0.0
C261 C 0.92412 0.82008 0.42725 0.0
C262 C 0.95542 0.83067 0.40912 0.0
N263 N 0.95786 0.85304 0.36709 0.0
N264 N 0.89646 0.83144 0.40198 0.0
H265 H 0.93295 0.88237 0.30847 0.0
C266 C 0.05142 0.72265 0.33957 0.0
O267 O 0.02349 0.74255 0.33586 0.0
O268 O 1.0019 0.926 0.32774 0.0
H269 H 0.97751 0.82095 0.42852 0.0
H270 H 0.1571 0.89825 0.41182 0.0
H271 H 0.92181 0.80259 0.46089 0.0
H272 H 0.19373 0.36383 0.27172 0.0
H273 H 0.39272 0.36821 0.25238 0.0
H274 H 0.24766 0.37195 0.132 0.0
H275 H 0.33851 0.35717 0.3915 0.0
H276 H 0.33998 0.37827 0.20867 0.0
H277 H 0.24635 0.3699 0.31679 0.0
C278 C 0.21644 0.36771 0.25036 0.0
C279 C 0.21607 0.36746 0.19774 0.0
C280 C 0.33967 0.37413 0.24887 0.0
C281 C 0.27676 0.37352 0.2495 0.0
C282 C 0.36991 0.36873 0.27404 0.0
C283 C 0.37021 0.36182 0.32592 0.0
C284 C 0.30949 0.37247 0.27563 0.0
C285 C 0.33954 0.36201 0.35147 0.0
C286 C 0.24663 0.37083 0.27626 0.0
C287 C 0.24667 0.37165 0.17251 0.0
N288 N 0.31049 0.36694 0.32608 0.0
N289 N 0.27571 0.37425 0.19856 0.0
H290 H 0.26113 0.65083 0.89152 0.0
H291 H 0.35401 0.61625 0.63121 0.0
H292 H 0.21003 0.62554 0.75278 0.0
H293 H 0.40558 0.63734 0.77066 0.0
H294 H 0.30142 0.61246 0.67689 0.0
H295 H 0.31433 0.63899 0.84984 0.0
C296 C 0.26102 0.64232 0.85243 0.0
C297 C 0.23091 0.63921 0.82577 0.0
C298 C 0.32427 0.61741 0.69763 0.0
C299 C 0.29197 0.6259 0.77757 0.0
C300 C 0.35436 0.61964 0.67155 0.0
C301 C 0.38437 0.62716 0.697 0.0
C302 C 0.32397 0.62322 0.74966 0.0
C303 C 0.38323 0.63104 0.74936 0.0
C304 C 0.29146 0.6355 0.82867 0.0
C305 C 0.23241 0.62785 0.77522 0.0
N306 N 0.35349 0.62944 0.77385 0.0
N307 N 0.26243 0.62201 0.75271 0.0
H308 H 0.70653 0.70695 0.78867 0.0
H309 H 0.90461 0.69418 0.74971 0.0
H310 H 0.75329 0.66545 0.65325 0.0
H311 H 0.85651 0.69243 0.89416 0.0
H312 H 0.84986 0.70325 0.71011 0.0
H313 H 0.76201 0.72125 0.82337 0.0
C314 C 0.72839 0.70186 0.76574 0.0
C315 C 0.72535 0.68481 0.71811 0.0
C316 C 0.85143 0.70163 0.75054 0.0
C317 C 0.78871 0.70084 0.75757 0.0
C318 C 0.88268 0.69679 0.77316 0.0
C319 C 0.88504 0.69237 0.82528 0.0
C320 C 0.8225 0.70246 0.78034 0.0
C321 C 0.85572 0.69539 0.8538 0.0
C322 C 0.76002 0.70971 0.78569 0.0
C323 C 0.75457 0.67828 0.69031 0.0
N324 N 0.82567 0.7 0.831 0.0
N325 N 0.785 0.68606 0.71052 0.0
H326 H 0.84828 0.33079 0.1448 0.0
H327 H 0.69233 0.29017 0.2438 0.0
H328 H 0.88893 0.28976 0.28465 0.0
H329 H 0.74251 0.31359 0.38355 0.0
H330 H 0.74683 0.28033 0.2038 0.0
H331 H 0.79222 0.31635 0.17531 0.0
C332 C 0.84538 0.3177 0.18153 0.0
C333 C 0.87331 0.31131 0.21214 0.0
C334 C 0.74589 0.2874 0.24329 0.0
C335 C 0.80893 0.29484 0.24775 0.0
C336 C 0.71473 0.29242 0.26629 0.0
C337 C 0.71289 0.30314 0.31697 0.0
C338 C 0.77532 0.29309 0.27127 0.0
C339 C 0.74282 0.3059 0.3442 0.0
C340 C 0.8133 0.30918 0.19886 0.0
C341 C 0.86812 0.2947 0.25961 0.0
N342 N 0.77273 0.30119 0.32101 0.0
N343 N 0.83649 0.28785 0.27638 0.0
H344 H 0.8361 0.86172 0.39888 0.0
H345 H 0.7458 0.86699 0.13246 0.0
H346 H 0.88859 0.86488 0.25767 0.0
H347 H 0.693 0.86087 0.27325 0.0
H348 H 0.7981 0.87429 0.17818 0.0
H349 H 0.7835 0.86939 0.354 0.0
C350 C 0.83666 0.86447 0.35847 0.0
C351 C 0.86698 0.86266 0.33219 0.0
C352 C 0.77505 0.87183 0.1991 0.0
C353 C 0.80661 0.8712 0.28041 0.0
C354 C 0.74512 0.8676 0.17301 0.0
C355 C 0.71482 0.86328 0.19889 0.0
C356 C 0.77488 0.87137 0.25164 0.0
C357 C 0.71555 0.86459 0.25148 0.0
C358 C 0.80656 0.8689 0.33288 0.0
C359 C 0.86606 0.86664 0.27982 0.0
N360 N 0.74513 0.86814 0.27608 0.0
N361 N 0.83636 0.87036 0.2557 0.0
H362 H 0.76286 0.13483 0.89724 0.0
H363 H 0.85457 0.12895 0.63273 0.0
H364 H 0.71095 0.12834 0.75576 0.0
H365 H 0.9064 0.13117 0.77448 0.0
H366 H 0.80191 0.12052 0.67735 0.0
H367 H 0.81558 0.12528 0.85333 0.0
C368 C 0.76248 0.13088 0.85698 0.0
C369 C 0.73235 0.13247 0.83025 0.0
C370 C 0.82484 0.12227 0.69869 0.0
C371 C 0.7928 0.1219 0.77956 0.0
C372 C 0.85495 0.12715 0.67323 0.0
C373 C 0.88504 0.13083 0.69978 0.0
C374 C 0.82467 0.12155 0.75123 0.0
C375 C 0.88399 0.12802 0.75224 0.0
C376 C 0.79263 0.12538 0.83193 0.0
C377 C 0.73341 0.12691 0.77815 0.0
N378 N 0.85425 0.124 0.77622 0.0
N379 N 0.76318 0.12233 0.75448 0.0
H380 H 0.35832 0.1856 0.89518 0.0
H381 H 0.25765 0.17624 0.64291 0.0
H382 H 0.406 0.19713 0.75118 0.0
H383 H 0.21045 0.20209 0.78416 0.0
H384 H 0.31207 0.1891 0.68083 0.0
H385 H 0.30424 0.19698 0.85558 0.0
C386 C 0.35743 0.19131 0.85529 0.0
C387 C 0.38668 0.19031 0.82641 0.0
C388 C 0.28984 0.19277 0.70337 0.0
C389 C 0.3247 0.20248 0.78055 0.0
C390 C 0.25875 0.18539 0.68175 0.0
C391 C 0.22951 0.188 0.71047 0.0
C392 C 0.29186 0.20191 0.75454 0.0
C393 C 0.23234 0.19998 0.76058 0.0
C394 C 0.32654 0.19785 0.8327 0.0
C395 C 0.38412 0.19791 0.77491 0.0
N396 N 0.26303 0.20577 0.78129 0.0
N397 N 0.35358 0.20294 0.75346 0.0
H398 H 0.19313 0.7958 0.24553 0.0
H399 H 0.39103 0.79012 0.28915 0.0
H400 H 0.24028 0.81409 0.38883 0.0
H401 H 0.34486 0.81817 0.14782 0.0
H402 H 0.33543 0.77792 0.32483 0.0
H403 H 0.24824 0.78307 0.20866 0.0
C404 C 0.21494 0.79602 0.26949 0.0
C405 C 0.21222 0.80619 0.32024 0.0
C406 C 0.33759 0.78595 0.28572 0.0
C407 C 0.27511 0.7919 0.27842 0.0
C408 C 0.36929 0.79257 0.26527 0.0
C409 C 0.37247 0.80533 0.21555 0.0
C410 C 0.30902 0.7917 0.25602 0.0
C411 C 0.34342 0.80865 0.18646 0.0
C412 C 0.24637 0.78908 0.24839 0.0
C413 C 0.24136 0.80664 0.34943 0.0
N414 N 0.31292 0.80215 0.20716 0.0
N415 N 0.27159 0.79988 0.3281 0.0
H416 H 0.99808 0.6726 0.33422 0.0
H417 H 0.10321 0.49645 0.21638 0.0
H418 H 0.10519 0.67593 0.31805 0.0
H419 H 1.0018 0.48299 0.26824 0.0
H420 H 0.10348 0.56374 0.2483 0.0
H421 H 0.99822 0.60414 0.3067 0.0
C422 C 0.02167 0.65883 0.3253 0.0
C423 C 0.05167 0.68007 0.32837 0.0
C424 C 0.08119 0.54604 0.25275 0.0
C425 C 0.05194 0.60183 0.29607 0.0
C426 C 0.08093 0.50767 0.23428 0.0
C427 C 0.05243 0.48397 0.23968 0.0
C428 C 0.05263 0.56104 0.2764 0.0
C429 C 0.02434 0.50014 0.26331 0.0
C430 C 0.02172 0.61975 0.30953 0.0
C431 C 0.08149 0.66067 0.31638 0.0
N432 N 0.02512 0.53767 0.28067 0.0
N433 N 0.08083 0.62277 0.30032 0.0
H434 H 0.49388 0.32094 0.82473 0.0
H435 H 0.60227 0.51207 0.75965 0.0
H436 H 0.60154 0.32293 0.8283 0.0
H437 H 0.49839 0.49929 0.72001 0.0
H438 H 0.60181 0.44502 0.79244 0.0
H439 H 0.49426 0.38904 0.79551 0.0
C440 C 0.51759 0.33581 0.81995 0.0
C441 C 0.54774 0.31611 0.82886 0.0
C442 C 0.57915 0.45686 0.77644 0.0
C443 C 0.54833 0.39402 0.79511 0.0
C444 C 0.57939 0.49514 0.75766 0.0
C445 C 0.55034 0.51137 0.73698 0.0
C446 C 0.54954 0.4347 0.77507 0.0
C447 C 0.52141 0.48799 0.73545 0.0
C448 C 0.51779 0.3746 0.8029 0.0
C449 C 0.5777 0.33687 0.82174 0.0
N450 N 0.52171 0.45095 0.75447 0.0
N451 N 0.57724 0.37464 0.80526 0.0
H452 H 0.13712 0.52065 0.70714 0.0
H453 H 0.03287 0.32367 0.7495 0.0
H454 H 0.06846 0.50421 0.82991 0.0
H455 H 0.12365 0.3265 0.66251 0.0
H456 H 0.04135 0.39255 0.77116 0.0
H457 H 0.12902 0.45184 0.6834 0.0
C458 C 0.12044 0.50254 0.72923 0.0
C459 C 0.10346 0.51818 0.77064 0.0
C460 C 0.05938 0.37814 0.74724 0.0
C461 C 0.09378 0.43968 0.74322 0.0
C462 C 0.05445 0.33886 0.73451 0.0
C463 C 0.07765 0.31921 0.7042 0.0
C464 C 0.08752 0.3982 0.72912 0.0
C465 C 0.1052 0.34046 0.6861 0.0
C466 C 0.11588 0.46329 0.71566 0.0
C467 C 0.0822 0.49334 0.79793 0.0
N468 N 0.10936 0.37887 0.6988 0.0
N469 N 0.07778 0.45541 0.78352 0.0
H470 H 0.58236 0.66563 0.1869 0.0
H471 H 0.48016 0.49054 0.31385 0.0
H472 H 0.47666 0.67137 0.21694 0.0
H473 H 0.57817 0.47581 0.24959 0.0
H474 H 0.47947 0.55816 0.28311 0.0
H475 H 0.5821 0.5968 0.21263 0.0
C476 C 0.55903 0.65232 0.1985 0.0
C477 C 0.52951 0.6743 0.19994 0.0
C478 C 0.50108 0.54009 0.27567 0.0
C479 C 0.52913 0.5957 0.2301 0.0
C480 C 0.50159 0.50156 0.29345 0.0
C481 C 0.52927 0.47748 0.28424 0.0
C482 C 0.52859 0.55477 0.24891 0.0
C483 C 0.55629 0.4933 0.25748 0.0
C484 C 0.55891 0.61303 0.21323 0.0
C485 C 0.49999 0.6555 0.21518 0.0
N486 N 0.55531 0.53097 0.24088 0.0
N487 N 0.50061 0.61737 0.23011 0.0
H488 H 0.60302 0.99066 0.21907 0.0
H489 H 0.49867 0.16546 0.34173 0.0
H490 H 0.50027 0.97844 0.26522 0.0
H491 H 0.60595 0.16744 0.32766 0.0
H492 H 0.49825 0.09776 0.31143 0.0
H493 H 0.60384 0.0569 0.25433 0.0
C494 C 0.58056 0.00196 0.23637 0.0
C495 C 0.55152 0.9789 0.23921 0.0
C496 C 0.52191 0.11287 0.31538 0.0
C497 C 0.55237 0.05473 0.27985 0.0
C498 C 0.52219 0.15152 0.3328 0.0
C499 C 0.55239 0.1722 0.33716 0.0
C500 C 0.55202 0.09486 0.30161 0.0
C501 C 0.58209 0.1526 0.32503 0.0
C502 C 0.58113 0.03971 0.25678 0.0
C503 C 0.52322 0.99511 0.26221 0.0
N504 N 0.58112 0.11516 0.30735 0.0
N505 N 0.52434 0.03203 0.28154 0.0
H506 H 0.09934 0.82844 0.84073 0.0
H507 H 0.99345 0.00442 0.72478 0.0
H508 H 0.99224 0.82419 0.82455 0.0
H509 H 0.09383 0.01902 0.78056 0.0
H510 H 0.99345 0.93685 0.7559 0.0
H511 H 0.09861 0.89733 0.81501 0.0
C512 C 0.07564 0.84209 0.83219 0.0
C513 C 0.04582 0.82049 0.8347 0.0
C514 C 0.01542 0.95491 0.76144 0.0
C515 C 0.04486 0.89916 0.80449 0.0
C516 C 0.01551 0.99342 0.74347 0.0
C517 C 0.04367 0.01745 0.75013 0.0
C518 C 0.04383 0.94016 0.78578 0.0
C519 C 0.07154 0.0016 0.77468 0.0
C520 C 0.07525 0.88141 0.81747 0.0
C521 C 0.01582 0.83973 0.82325 0.0
N522 N 0.07095 0.96393 0.79143 0.0
N523 N 0.01614 0.87785 0.80819 0.0
H524 H 0.62555 0.81933 0.7175 0.0
H525 H 0.52328 0.01877 0.7532 0.0
H526 H 0.51965 0.82943 0.69116 0.0
H527 H 0.62294 0.00197 0.81053 0.0
H528 H 0.52324 0.95122 0.72286 0.0
H529 H 0.62698 0.88836 0.74294 0.0
C530 C 0.60267 0.83615 0.71652 0.0
C531 C 0.57238 0.81853 0.7024 0.0
C532 C 0.54511 0.96226 0.74212 0.0
C533 C 0.57385 0.89739 0.73172 0.0
C534 C 0.54517 0.00086 0.75949 0.0
C535 C 0.57316 0.01606 0.78449 0.0
C536 C 0.57334 0.93866 0.74942 0.0
C537 C 0.60079 0.99143 0.79156 0.0
C538 C 0.60348 0.87547 0.73137 0.0
C539 C 0.54351 0.84173 0.70202 0.0
N540 N 0.60023 0.95395 0.77396 0.0
N541 N 0.54495 0.87991 0.71657 0.0
H542 H 0.0811 0.168 0.18739 0.0
H543 H 0.97594 0.99425 0.31222 0.0
H544 H 0.97557 0.17633 0.21765 0.0
H545 H 0.07426 0.97853 0.24942 0.0
H546 H 0.976 0.06196 0.28152 0.0
H547 H 0.07955 0.09902 0.21222 0.0
C548 C 0.05753 0.15522 0.19886 0.0
C549 C 0.02845 0.17799 0.20061 0.0
C550 C 0.99751 0.04363 0.27437 0.0
C551 C 0.02657 0.09914 0.22976 0.0
C552 C 0.99757 0.00505 0.2921 0.0
C553 C 0.02515 0.98068 0.2834 0.0
C554 C 0.02535 0.05806 0.24814 0.0
C555 C 0.05244 0.99622 0.25698 0.0
C556 C 0.05666 0.11583 0.21307 0.0
C557 C 0.99858 0.15984 0.21564 0.0
N558 N 0.05189 0.03392 0.24045 0.0
N559 N 0.99847 0.12156 0.2301 0.0
H560 H 0.06618 0.25065 0.08925 0.0
H561 H 0.09728 0.19754 0.84735 0.0
H562 H 0.97189 0.28712 0.02795 0.0
H563 H 0.99183 0.17475 0.83161 0.0
H564 H 0.08797 0.2161 0.9346 0.0
H565 H 0.0731 0.20536 0.01883 0.0
C566 C 0.04604 0.24752 0.06248 0.0
C567 C 0.01837 0.27258 0.06442 0.0
C568 C 0.06696 0.20604 0.91256 0.0
C569 C 0.02704 0.22279 0.98222 0.0
C570 C 0.07222 0.19595 0.86243 0.0
C571 C 0.0453 0.18473 0.83194 0.0
C572 C 0.03443 0.20553 0.93235 0.0
C573 C 1.01335 0.18318 0.85368 0.0
C574 C 0.05047 0.22251 0.02143 0.0
C575 C 0.99352 0.26814 0.02782 0.0
N576 N 1.00871 0.19423 0.90221 0.0
N577 N 0.9987 0.24433 0.98767 0.0
H578 H 0.53252 0.74532 0.58461 0.0
H579 H 0.61348 0.82155 0.32856 0.0
H580 H 0.63063 0.7119 0.5352 0.0
H581 H 0.50813 0.803 0.35228 0.0
H582 H 0.62381 0.80285 0.41607 0.0
H583 H 0.52844 0.79041 0.51336 0.0
C584 C 0.55404 0.74927 0.56054 0.0
C585 C 0.58205 0.72506 0.56589 0.0
C586 C 0.59842 0.80355 0.40221 0.0
C587 C 0.57713 0.77542 0.4835 0.0
C588 C 0.59248 0.8142 0.35234 0.0
C589 C 0.55991 0.81332 0.33285 0.0
C590 C 0.57156 0.79279 0.43312 0.0
C591 C 0.53367 0.80354 0.36548 0.0
C592 C 0.5514 0.77435 0.51923 0.0
C593 C 0.60875 0.73036 0.53254 0.0
N594 N 0.54007 0.79356 0.41387 0.0
N595 N 0.60544 0.75446 0.49221 0.0
H596 H 0.97532 0.80909 0.20129 0.0
H597 H 0.07498 0.75698 0.95122 0.0
H598 H 0.08167 0.82167 0.18205 0.0
H599 H 0.98965 0.69111 1.00205 0.0
H600 H 0.06624 0.80396 0.01957 0.0
H601 H 0.97082 0.78736 0.11366 0.0
C602 C 0.99758 0.8081 0.17831 0.0
C603 C 0.029 0.81659 0.19896 0.0
C604 C 0.04864 0.7801 1.01451 0.0
C605 C 0.02387 0.79285 0.09904 0.0
C606 C 0.05328 0.75372 0.97509 0.0
C607 C 0.03279 0.72051 0.97106 0.0
C608 C 0.0233 0.77305 0.04975 0.0
C609 C 1.00572 0.71669 1.0039 0.0
C610 C 0.99497 0.79574 0.12849 0.0
C611 C 0.05706 0.8148 0.1677 0.0
N612 N 1.00199 0.74235 0.04249 0.0
N613 N 0.05387 0.80297 0.11934 0.0
H614 H 0.52132 0.24024 0.45394 0.0
H615 H 0.62096 0.1794 0.69997 0.0
H616 H 0.61213 0.29701 0.50111 0.0
H617 H 0.51367 0.1795 0.68609 0.0
H618 H 0.6254 0.19895 0.61175 0.0
H619 H 0.52767 0.19256 0.52202 0.0
C620 C 0.54361 0.24121 0.4769 0.0
C621 C 0.56639 0.27219 0.47212 0.0
C622 C 0.60098 0.19383 0.62791 0.0
C623 C 0.57327 0.21894 0.5503 0.0
C624 C 0.59837 0.18278 0.67811 0.0
C625 C 0.56685 0.17853 0.70045 0.0
C626 C 0.5719 0.19977 0.59978 0.0
C627 C 0.53842 0.18318 0.67047 0.0
C628 C 0.54692 0.21446 0.51613 0.0
C629 C 0.59426 0.27318 0.50367 0.0
N630 N 0.54161 0.19377 0.62167 0.0
N631 N 0.59671 0.24725 0.54212 0.0
H632 H 0.56368 0.7441 0.08467 0.0
H633 H 0.48252 0.67277 0.82648 0.0
H634 H 0.46838 0.78494 0.03215 0.0
H635 H 0.58811 0.68527 0.85364 0.0
H636 H 0.47174 0.69211 0.9138 0.0
H637 H 0.56598 0.69822 1.0141 0.0
C638 C 0.54226 0.74166 0.0601 0.0
C639 C 0.51567 0.76811 0.06439 0.0
C640 C 0.49724 0.68988 0.90073 0.0
C641 C 0.51869 0.71688 0.98265 0.0
C642 C 0.50344 0.67888 0.85102 0.0
C643 C 0.53627 0.67794 0.8326 0.0
C644 C 0.5241 0.69908 0.9325 0.0
C645 C 0.56241 0.68617 0.86605 0.0
C646 C 0.54393 0.7161 0.01916 0.0
C647 C 0.48915 0.76473 0.03031 0.0
N648 N 0.55577 0.69648 0.91424 0.0
N649 N 0.49156 0.74014 0.99029 0.0
H650 H 0.04106 0.2506 0.58533 0.0
H651 H 0.11844 0.31576 0.32205 0.0
H652 H 0.12699 0.1946 0.5206 0.0
H653 H 1.01312 0.31202 0.35492 0.0
H654 H 0.1301 0.29363 0.40802 0.0
H655 H 0.0407 0.29749 0.51554 0.0
C656 C 0.06106 0.24967 0.55804 0.0
C657 C 0.08421 0.21891 0.55868 0.0
C658 C 0.10452 0.29847 0.39653 0.0
C659 C 0.08347 0.27157 0.47848 0.0
C660 C 0.09783 0.31107 0.34763 0.0
C661 C 0.06472 0.31524 0.33123 0.0
C662 C 0.07796 0.29105 0.42952 0.0
C663 C 0.03896 0.30867 0.36586 0.0
C664 C 0.06045 0.27592 0.51776 0.0
C665 C 0.10893 0.21818 0.52152 0.0
N666 N 0.04611 0.29683 0.41331 0.0
N667 N 0.10765 0.24373 0.48241 0.0
H668 H 0.56249 0.25758 0.95242 0.0
H669 H 0.52619 0.24041 0.22564 0.0
H670 H 0.48849 0.17523 1.00413 0.0
H671 H 0.52741 0.3592 0.17005 0.0
H672 H 0.51532 0.21671 0.14093 0.0
H673 H 0.55016 0.29978 0.02467 0.0
C674 C 0.5422 0.24963 0.97726 0.0
C675 C 0.52657 0.21293 0.97288 0.0
C676 C 0.51754 0.24803 0.14725 0.0
C677 C 0.5136 0.25962 0.05591 0.0
C678 C 0.52414 0.26144 0.19535 0.0
C679 C 0.52791 0.30163 0.20431 0.0
C680 C 0.5157 0.27488 0.1075 0.0
C681 C 0.52472 0.32791 0.16411 0.0
C682 C 0.53547 0.27344 0.01877 0.0
C683 C 0.50113 0.20332 1.00663 0.0
N684 N 0.51952 0.31399 0.11684 0.0
N685 N 0.49616 0.22588 0.04776 0.0
H686 H 0.02531 0.74544 0.44344 0.0
H687 H 1.00786 0.68777 0.6856 0.0
H688 H 0.11169 0.80318 0.50519 0.0
H689 H 0.11515 0.67963 0.69332 0.0
H690 H 1.01246 0.70732 0.59777 0.0
H691 H 0.02781 0.69694 0.51114 0.0
C692 C 0.04595 0.74654 0.46961 0.0
C693 C 0.06843 0.77811 0.46888 0.0
C694 C 0.03496 0.70015 0.61822 0.0
C695 C 0.07044 0.72431 0.54737 0.0
C696 C 0.03235 0.68949 0.66854 0.0
C697 C 0.06116 0.68232 0.69682 0.0
C698 C 0.06665 0.70452 0.59632 0.0
C699 C 0.0923 0.6849 0.6728 0.0
C700 C 0.04687 0.71946 0.50888 0.0
C701 C 0.09403 0.77905 0.50458 0.0
N702 N 0.09428 0.69679 0.62424 0.0
N703 N 0.09406 0.7529 0.54301 0.0
H704 H 0.09726 0.41738 0.11275 0.0
H705 H 0.05058 0.56563 0.89215 0.0
H706 H 1.01331 0.40656 1.01264 0.0
H707 H 0.10645 0.60474 0.02075 0.0
H708 H 0.05088 0.49911 0.92547 0.0
H709 H 0.11168 0.48021 0.07267 0.0
C710 C 0.08152 0.42837 0.08332 0.0
C711 C 0.05357 0.407 0.06707 0.0
C712 C 0.06386 0.52199 0.94589 0.0
C713 C 0.07102 0.4772 0.01907 0.0
C714 C 0.06439 0.5598 0.92619 0.0
C715 C 0.07929 0.59039 0.95308 0.0
C716 C 0.07776 0.51485 0.99334 0.0
C717 C 0.09503 0.58163 0.99872 0.0
C718 C 0.09011 0.46386 0.05979 0.0
C719 C 0.03508 0.4219 0.0267 0.0
N720 N 0.09357 0.54463 0.01786 0.0
N721 N 0.04415 0.45582 1.00417 0.0
H722 H 0.59101 0.591 0.51558 0.0
H723 H 0.49478 0.38967 0.5223 0.0
H724 H 0.50453 0.5778 0.61025 0.0
H725 H 0.55457 0.42915 0.39813 0.0
H726 H 0.49584 0.45666 0.5568 0.0
H727 H 0.57759 0.52959 0.47507 0.0
C728 C 0.56915 0.57504 0.52822 0.0
C729 C 0.54911 0.58952 0.56709 0.0
C730 C 0.50767 0.4509 0.5211 0.0
C731 C 0.53346 0.51841 0.52025 0.0
C732 C 0.50691 0.41288 0.5013 0.0
C733 C 0.5238 0.40438 0.45655 0.0
C734 C 0.52624 0.48004 0.49645 0.0
C735 C 0.54 0.43492 0.43141 0.0
C736 C 0.5614 0.53994 0.50471 0.0
C737 C 0.52125 0.56728 0.58174 0.0
N738 N 0.54119 0.47126 0.45202 0.0
N739 N 0.51429 0.53251 0.55847 0.0
H740 H 0.5982 0.91192 0.11272 0.0
H741 H 0.54913 0.06288 0.89637 0.0
H742 H 0.51442 0.90178 1.01216 0.0
H743 H 0.60749 0.10037 0.02299 0.0
H744 H 0.55022 0.99595 0.92778 0.0
H745 H 0.61235 0.97542 0.07385 0.0
C746 C 0.58246 0.9232 0.08342 0.0
C747 C 0.55461 0.90186 0.06668 0.0
C748 C 0.5636 0.0185 0.94823 0.0
C749 C 0.57172 0.97277 0.02014 0.0
C750 C 0.56382 0.05651 0.92934 0.0
C751 C 0.57943 0.08671 0.95593 0.0
C752 C 0.57821 0.01078 0.99504 0.0
C753 C 0.59571 0.07749 1.001 0.0
C754 C 0.59089 0.95906 0.06061 0.0
C755 C 0.53612 0.91708 0.02655 0.0
N756 N 0.5944 0.04028 0.0196 0.0
N757 N 0.54501 0.95135 1.00477 0.0
H758 H 0.05548 0.05681 0.63173 0.0
H759 H 0.99632 0.88431 0.527 0.0
H760 H 1.01138 0.11409 0.50454 0.0
H761 H 0.04257 0.94031 0.4002 0.0
H762 H 0.98984 0.94884 0.56676 0.0
H763 H 0.03766 0.99325 0.5982 0.0
C764 C 0.04014 0.05611 0.59851 0.0
C765 C 0.03308 0.09071 0.57252 0.0
C766 C 1.00022 0.94698 0.52937 0.0
C767 C 0.01548 0.01828 0.5313 0.0
C768 C 1.0037 0.91039 0.50654 0.0
C769 C 0.01906 0.90724 0.45949 0.0
C770 C 1.01216 0.98053 0.50481 0.0
C771 C 0.02895 0.94171 0.43503 0.0
C772 C 0.03066 0.01985 0.57867 0.0
C773 C 0.01655 0.08797 0.52626 0.0
N774 N 0.02552 0.97706 0.45813 0.0
N775 N 1.00892 0.05226 0.50651 0.0
loop_
_geom_bond_atom_site_label_1
_geom_bond_atom_site_label_2
_geom_bond_distance
_geom_bond_site_symmetry_2
_ccdc_geom_bond_type
Zn0 N4 2.020 . S
Zn0 O8 2.019 . S
Zn0 N10 2.119 1_455 S
Zn0 O18 1.975 . S
C1 N2 1.334 . S
C1 N5 1.336 . S
N2 C1 1.334 . S
N2 C3 1.334 . S
C3 N2 1.334 . S
C3 N4 1.336 . S
N4 Zn0 2.020 . S
N4 C3 1.336 . S
N4 N5 1.354 . S
N5 C1 1.336 . S
N5 N4 1.354 . S
N5 Zn9 2.020 . S
C6 O7 1.244 . S
C6 O30 1.257 . S
O7 C6 1.244 . S
O8 Zn0 2.019 . S
O8 C28 1.257 . S
Zn9 N5 2.020 . S
Zn9 O16 1.975 . S
Zn9 N25 2.119 . S
Zn9 O30 2.019 . S
N10 Zn0 2.119 1_655 S
N10 C12 1.334 . S
N10 C13 1.328 . S
C11 C12 1.391 . S
C11 N14 1.329 . S
C11 H32 0.930 . S
C12 N10 1.334 . S
C12 C11 1.391 . S
C12 H19 0.930 . S
C13 N10 1.328 . S
C13 C15 1.392 . S
C13 H20 0.930 . S
N14 C11 1.329 . S
N14 C15 1.331 . S
C15 C13 1.392 . S
C15 N14 1.331 . S
O16 Zn9 1.975 . S
O16 C17 1.252 . S
C17 O16 1.252 . S
C17 O18 1.252 . S
O18 Zn0 1.975 . S
O18 C17 1.252 . S
H19 C12 0.930 . S
H20 C13 0.930 . S
C21 C22 1.392 . S
C21 N25 1.328 . S
C21 H27 0.930 . S
C22 C21 1.392 . S
C22 N26 1.331 . S
C23 C24 1.391 . S
C23 N26 1.329 . S
C23 H33 0.930 . S
C24 C23 1.391 . S
C24 N25 1.334 . S
C24 H31 0.930 . S
N25 Zn9 2.119 . S
N25 C21 1.328 . S
N25 C24 1.334 . S
N26 C22 1.331 . S
N26 C23 1.329 . S
H27 C21 0.930 . S
C28 O8 1.257 . S
C28 O29 1.244 . S
O29 C28 1.244 . S
O30 C6 1.257 . S
O30 Zn9 2.019 . S
H31 C24 0.930 . S
H32 C11 0.930 . S
H33 C23 0.930 . S
Zn34 N38 2.020 . S
Zn34 O42 2.019 . S
Zn34 N44 2.119 . S
Zn34 O52 1.975 . S
C35 N36 1.334 . S
C35 N39 1.336 . S
N36 C35 1.334 . S
N36 C37 1.334 . S
C37 N36 1.334 . S
C37 N38 1.336 . S
N38 Zn34 2.020 . S
N38 C37 1.336 . S
N38 N39 1.354 . S
N39 C35 1.336 . S
N39 N38 1.354 . S
N39 Zn43 2.020 . S
C40 O41 1.244 . S
C40 O64 1.257 . S
O41 C40 1.244 . S
O42 Zn34 2.019 . S
O42 C62 1.257 . S
Zn43 N39 2.020 . S
Zn43 O50 1.975 . S
Zn43 N59 2.119 . S
Zn43 O64 2.019 . S
N44 Zn34 2.119 . S
N44 C46 1.334 . S
N44 C47 1.328 . S
C45 C46 1.391 . S
C45 N48 1.329 . S
C45 H66 0.930 . S
C46 N44 1.334 . S
C46 C45 1.391 . S
C46 H53 0.930 . S
C47 N44 1.328 . S
C47 C49 1.392 . S
C47 H54 0.930 . S
N48 C45 1.329 . S
N48 C49 1.331 . S
C49 C47 1.392 . S
C49 N48 1.331 . S
O50 Zn43 1.975 . S
O50 C51 1.252 . S
C51 O50 1.252 . S
C51 O52 1.252 . S
O52 Zn34 1.975 . S
O52 C51 1.252 . S
H53 C46 0.930 . S
H54 C47 0.930 . S
C55 C56 1.392 . S
C55 N59 1.328 . S
C55 H61 0.930 . S
C56 C55 1.392 . S
C56 N60 1.331 . S
C57 C58 1.391 . S
C57 N60 1.329 . S
C57 H67 0.930 . S
C58 C57 1.391 . S
C58 N59 1.334 . S
C58 H65 0.930 . S
N59 Zn43 2.119 . S
N59 C55 1.328 . S
N59 C58 1.334 . S
N60 C56 1.331 . S
N60 C57 1.329 . S
H61 C55 0.930 . S
C62 O42 1.257 . S
C62 O63 1.244 . S
O63 C62 1.244 . S
O64 C40 1.257 . S
O64 Zn43 2.019 . S
H65 C58 0.930 . S
H66 C45 0.930 . S
H67 C57 0.930 . S
Zn68 N72 2.020 . S
Zn68 O76 2.019 . S
Zn68 N78 2.119 1_455 S
Zn68 O86 1.975 . S
C69 N70 1.334 . S
C69 N73 1.336 . S
N70 C69 1.334 . S
N70 C71 1.334 . S
C71 N70 1.334 . S
C71 N72 1.336 . S
N72 Zn68 2.020 . S
N72 C71 1.336 . S
N72 N73 1.354 . S
N73 C69 1.336 . S
N73 N72 1.354 . S
N73 Zn77 2.020 . S
C74 O75 1.244 . S
C74 O98 1.257 . S
O75 C74 1.244 . S
O76 Zn68 2.019 . S
O76 C96 1.257 . S
Zn77 N73 2.020 . S
Zn77 O84 1.975 . S
Zn77 N93 2.119 . S
Zn77 O98 2.019 . S
N78 Zn68 2.119 1_655 S
N78 C80 1.334 . S
N78 C81 1.328 . S
C79 C80 1.391 . S
C79 N82 1.329 . S
C79 H100 0.930 . S
C80 N78 1.334 . S
C80 C79 1.391 . S
C80 H87 0.930 . S
C81 N78 1.328 . S
C81 C83 1.392 . S
C81 H88 0.930 . S
N82 C79 1.329 . S
N82 C83 1.331 . S
C83 C81 1.392 . S
C83 N82 1.331 . S
O84 Zn77 1.975 . S
O84 C85 1.252 . S
C85 O84 1.252 . S
C85 O86 1.252 . S
O86 Zn68 1.975 . S
O86 C85 1.252 . S
H87 C80 0.930 . S
H88 C81 0.930 . S
C89 C90 1.392 . S
C89 N93 1.328 . S
C89 H95 0.930 . S
C90 C89 1.392 . S
C90 N94 1.331 . S
C91 C92 1.391 . S
C91 N94 1.329 . S
C91 H101 0.930 . S
C92 C91 1.391 . S
C92 N93 1.334 . S
C92 H99 0.930 . S
N93 Zn77 2.119 . S
N93 C89 1.328 . S
N93 C92 1.334 . S
N94 C90 1.331 . S
N94 C91 1.329 . S
H95 C89 0.930 . S
C96 O76 1.257 . S
C96 O97 1.244 . S
O97 C96 1.244 . S
O98 C74 1.257 . S
O98 Zn77 2.019 . S
H99 C92 0.930 . S
H100 C79 0.930 . S
H101 C91 0.930 . S
Zn102 N106 2.020 . S
Zn102 O110 2.019 . S
Zn102 N112 2.119 . S
Zn102 O120 1.975 . S
C103 N104 1.334 . S
C103 N107 1.336 . S
N104 C103 1.334 . S
N104 C105 1.334 . S
C105 N104 1.334 . S
C105 N106 1.336 . S
N106 Zn102 2.020 . S
N106 C105 1.336 . S
N106 N107 1.354 . S
N107 C103 1.336 . S
N107 N106 1.354 . S
N107 Zn111 2.020 . S
C108 O109 1.244 . S
C108 O132 1.257 . S
O109 C108 1.244 . S
O110 Zn102 2.019 . S
O110 C130 1.257 . S
Zn111 N107 2.020 . S
Zn111 O118 1.975 . S
Zn111 N127 2.119 . S
Zn111 O132 2.019 . S
N112 Zn102 2.119 . S
N112 C114 1.334 . S
N112 C115 1.328 . S
C113 C114 1.391 . S
C113 N116 1.329 . S
C113 H134 0.930 . S
C114 N112 1.334 . S
C114 C113 1.391 . S
C114 H121 0.930 . S
C115 N112 1.328 . S
C115 C117 1.392 . S
C115 H122 0.930 . S
N116 C113 1.329 . S
N116 C117 1.331 . S
C117 C115 1.392 . S
C117 N116 1.331 . S
O118 Zn111 1.975 . S
O118 C119 1.252 . S
C119 O118 1.252 . S
C119 O120 1.252 . S
O120 Zn102 1.975 . S
O120 C119 1.252 . S
H121 C114 0.930 . S
H122 C115 0.930 . S
C123 C124 1.392 . S
C123 N127 1.328 . S
C123 H129 0.930 . S
C124 C123 1.392 . S
C124 N128 1.331 . S
C125 C126 1.391 . S
C125 N128 1.329 . S
C125 H135 0.930 . S
C126 C125 1.391 . S
C126 N127 1.334 . S
C126 H133 0.930 . S
N127 Zn111 2.119 . S
N127 C123 1.328 . S
N127 C126 1.334 . S
N128 C124 1.331 . S
N128 C125 1.329 . S
H129 C123 0.930 . S
C130 O110 1.257 . S
C130 O131 1.244 . S
O131 C130 1.244 . S
O132 C108 1.257 . S
O132 Zn111 2.019 . S
H133 C126 0.930 . S
H134 C113 0.930 . S
H135 C125 0.930 . S
Zn136 N140 2.020 . S
Zn136 O144 2.019 . S
Zn136 N146 2.119 . S
Zn136 O154 1.975 . S
C137 N138 1.334 . S
C137 N141 1.336 . S
N138 C137 1.334 . S
N138 C139 1.334 . S
C139 N138 1.334 . S
C139 N140 1.336 . S
N140 Zn136 2.020 . S
N140 C139 1.336 . S
N140 N141 1.354 . S
N141 C137 1.336 . S
N141 N140 1.354 . S
N141 Zn145 2.020 . S
C142 O143 1.244 . S
C142 O166 1.257 . S
O143 C142 1.244 . S
O144 Zn136 2.019 . S
O144 C164 1.257 . S
Zn145 N141 2.020 . S
Zn145 O152 1.975 . S
Zn145 N161 2.119 . S
Zn145 O166 2.019 . S
N146 Zn136 2.119 . S
N146 C148 1.334 . S
N146 C149 1.328 . S
C147 C148 1.391 . S
C147 N150 1.329 . S
C147 H168 0.930 . S
C148 N146 1.334 . S
C148 C147 1.391 . S
C148 H155 0.930 . S
C149 N146 1.328 . S
C149 C151 1.392 . S
C149 H156 0.930 . S
N150 C147 1.329 . S
N150 C151 1.331 . S
C151 C149 1.392 . S
C151 N150 1.331 . S
O152 Zn145 1.975 . S
O152 C153 1.252 . S
C153 O152 1.252 . S
C153 O154 1.252 . S
O154 Zn136 1.975 . S
O154 C153 1.252 . S
H155 C148 0.930 . S
H156 C149 0.930 . S
C157 C158 1.392 . S
C157 N161 1.328 . S
C157 H163 0.930 . S
C158 C157 1.392 . S
C158 N162 1.331 . S
C159 C160 1.391 . S
C159 N162 1.329 . S
C159 H169 0.930 . S
C160 C159 1.391 . S
C160 N161 1.334 . S
C160 H167 0.930 . S
N161 Zn145 2.119 . S
N161 C157 1.328 . S
N161 C160 1.334 . S
N162 C158 1.331 . S
N162 C159 1.329 . S
H163 C157 0.930 . S
C164 O144 1.257 . S
C164 O165 1.244 . S
O165 C164 1.244 . S
O166 C142 1.257 . S
O166 Zn145 2.019 . S
H167 C160 0.930 . S
H168 C147 0.930 . S
H169 C159 0.930 . S
Zn170 N174 2.020 . S
Zn170 O178 2.019 1_455 S
Zn170 N180 2.119 1_455 S
Zn170 O188 1.975 . S
C171 N172 1.334 . S
C171 N175 1.336 . S
N172 C171 1.334 . S
N172 C173 1.334 . S
C173 N172 1.334 . S
C173 N174 1.336 . S
N174 Zn170 2.020 . S
N174 C173 1.336 . S
N174 N175 1.354 . S
N175 C171 1.336 . S
N175 N174 1.354 . S
N175 Zn179 2.020 . S
C176 O177 1.244 . S
C176 O200 1.257 . S
O177 C176 1.244 . S
O178 Zn170 2.019 1_655 S
O178 C198 1.257 1_655 S
Zn179 N175 2.020 . S
Zn179 O186 1.975 . S
Zn179 N195 2.119 . S
Zn179 O200 2.019 . S
N180 Zn170 2.119 1_655 S
N180 C182 1.334 . S
N180 C183 1.328 . S
C181 C182 1.391 . S
C181 N184 1.329 . S
C181 H202 0.930 . S
C182 N180 1.334 . S
C182 C181 1.391 . S
C182 H189 0.930 . S
C183 N180 1.328 . S
C183 C185 1.392 . S
C183 H190 0.930 . S
N184 C181 1.329 . S
N184 C185 1.331 . S
C185 C183 1.392 . S
C185 N184 1.331 . S
O186 Zn179 1.975 . S
O186 C187 1.252 . S
C187 O186 1.252 . S
C187 O188 1.252 . S
O188 Zn170 1.975 . S
O188 C187 1.252 . S
H189 C182 0.930 . S
H190 C183 0.930 . S
C191 C192 1.392 . S
C191 N195 1.328 . S
C191 H197 0.930 . S
C192 C191 1.392 . S
C192 N196 1.331 . S
C193 C194 1.391 . S
C193 N196 1.329 . S
C193 H203 0.930 . S
C194 C193 1.391 . S
C194 N195 1.334 . S
C194 H201 0.930 . S
N195 Zn179 2.119 . S
N195 C191 1.328 . S
N195 C194 1.334 . S
N196 C192 1.331 . S
N196 C193 1.329 . S
H197 C191 0.930 . S
C198 O178 1.257 1_455 S
C198 O199 1.244 . S
O199 C198 1.244 . S
O200 C176 1.257 . S
O200 Zn179 2.019 . S
H201 C194 0.930 . S
H202 C181 0.930 . S
H203 C193 0.930 . S
Zn204 N208 2.020 . S
Zn204 O212 2.019 . S
Zn204 N214 2.119 . S
Zn204 O222 1.975 . S
C205 N206 1.334 . S
C205 N209 1.336 . S
N206 C205 1.334 . S
N206 C207 1.334 . S
C207 N206 1.334 . S
C207 N208 1.336 . S
N208 Zn204 2.020 . S
N208 C207 1.336 . S
N208 N209 1.354 . S
N209 C205 1.336 . S
N209 N208 1.354 . S
N209 Zn213 2.020 . S
C210 O211 1.244 . S
C210 O234 1.257 . S
O211 C210 1.244 . S
O212 Zn204 2.019 . S
O212 C232 1.257 . S
Zn213 N209 2.020 . S
Zn213 O220 1.975 . S
Zn213 N229 2.119 . S
Zn213 O234 2.019 . S
N214 Zn204 2.119 . S
N214 C216 1.334 . S
N214 C217 1.328 . S
C215 C216 1.391 . S
C215 N218 1.329 . S
C215 H236 0.930 . S
C216 N214 1.334 . S
C216 C215 1.391 . S
C216 H223 0.930 . S
C217 N214 1.328 . S
C217 C219 1.392 . S
C217 H224 0.930 . S
N218 C215 1.329 . S
N218 C219 1.331 . S
C219 C217 1.392 . S
C219 N218 1.331 . S
O220 Zn213 1.975 . S
O220 C221 1.252 . S
C221 O220 1.252 . S
C221 O222 1.252 . S
O222 Zn204 1.975 . S
O222 C221 1.252 . S
H223 C216 0.930 . S
H224 C217 0.930 . S
C225 C226 1.392 . S
C225 N229 1.328 . S
C225 H231 0.930 . S
C226 C225 1.392 . S
C226 N230 1.331 . S
C227 C228 1.391 . S
C227 N230 1.329 . S
C227 H237 0.930 . S
C228 C227 1.391 . S
C228 N229 1.334 . S
C228 H235 0.930 . S
N229 Zn213 2.119 . S
N229 C225 1.328 . S
N229 C228 1.334 . S
N230 C226 1.331 . S
N230 C227 1.329 . S
H231 C225 0.930 . S
C232 O212 1.257 . S
C232 O233 1.244 . S
O233 C232 1.244 . S
O234 C210 1.257 . S
O234 Zn213 2.019 . S
H235 C228 0.930 . S
H236 C215 0.930 . S
H237 C227 0.930 . S
Zn238 N242 2.020 . S
Zn238 O246 2.019 . S
Zn238 N248 2.119 . S
Zn238 O256 1.975 . S
C239 N240 1.334 . S
C239 N243 1.336 . S
N240 C239 1.334 . S
N240 C241 1.334 . S
C241 N240 1.334 . S
C241 N242 1.336 . S
N242 Zn238 2.020 . S
N242 C241 1.336 . S
N242 N243 1.354 . S
N243 C239 1.336 . S
N243 N242 1.354 . S
N243 Zn247 2.020 . S
C244 O245 1.244 . S
C244 O268 1.257 1_455 S
O245 C244 1.244 . S
O246 Zn238 2.019 . S
O246 C266 1.257 . S
Zn247 N243 2.020 . S
Zn247 O254 1.975 . S
Zn247 N263 2.119 1_455 S
Zn247 O268 2.019 1_455 S
N248 Zn238 2.119 . S
N248 C250 1.334 . S
N248 C251 1.328 . S
C249 C250 1.391 . S
C249 N252 1.329 . S
C249 H270 0.930 . S
C250 N248 1.334 . S
C250 C249 1.391 . S
C250 H257 0.930 . S
C251 N248 1.328 . S
C251 C253 1.392 . S
C251 H258 0.930 . S
N252 C249 1.329 . S
N252 C253 1.331 . S
C253 C251 1.392 . S
C253 N252 1.331 . S
O254 Zn247 1.975 . S
O254 C255 1.252 . S
C255 O254 1.252 . S
C255 O256 1.252 . S
O256 Zn238 1.975 . S
O256 C255 1.252 . S
H257 C250 0.930 . S
H258 C251 0.930 . S
C259 C260 1.392 . S
C259 N263 1.328 . S
C259 H265 0.930 . S
C260 C259 1.392 . S
C260 N264 1.331 . S
C261 C262 1.391 . S
C261 N264 1.329 . S
C261 H271 0.930 . S
C262 C261 1.391 . S
C262 N263 1.334 . S
C262 H269 0.930 . S
N263 Zn247 2.119 1_655 S
N263 C259 1.328 . S
N263 C262 1.334 . S
N264 C260 1.331 . S
N264 C261 1.329 . S
H265 C259 0.930 . S
C266 O246 1.257 . S
C266 O267 1.244 . S
O267 C266 1.244 . S
O268 C244 1.257 1_655 S
O268 Zn247 2.019 1_655 S
H269 C262 0.930 . S
H270 C249 0.930 . S
H271 C261 0.930 . S
H272 C278 0.930 . S
H273 C282 0.930 . S
H274 C287 0.929 . S
H275 C285 0.929 . S
H276 C280 0.929 . S
H277 C286 0.929 . S
C278 H272 0.930 . S
C278 C279 1.367 . S
C278 C286 1.378 . S
C279 C278 1.367 . S
C279 C287 1.433 . S
C280 H276 0.929 . S
C280 C282 1.378 . S
C280 C284 1.350 . S
C281 C284 1.463 . S
C281 C286 1.350 . S
C281 N289 1.427 . S
C282 H273 0.930 . S
C282 C280 1.378 . S
C282 C283 1.367 . S
C283 C282 1.367 . S
C283 C285 1.433 . S
C284 C280 1.350 . S
C284 C281 1.463 . S
C284 N288 1.427 . S
C285 H275 0.929 . S
C285 C283 1.433 . S
C285 N288 1.384 . S
C286 H277 0.929 . S
C286 C278 1.378 . S
C286 C281 1.350 . S
C287 H274 0.929 . S
C287 C279 1.433 . S
C287 N289 1.384 . S
N288 C284 1.427 . S
N288 C285 1.384 . S
N289 C281 1.427 . S
N289 C287 1.384 . S
H290 C296 0.930 . S
H291 C300 0.930 . S
H292 C305 0.929 . S
H293 C303 0.929 . S
H294 C298 0.929 . S
H295 C304 0.929 . S
C296 H290 0.930 . S
C296 C297 1.367 . S
C296 C304 1.378 . S
C297 C296 1.367 . S
C297 C305 1.433 . S
C298 H294 0.929 . S
C298 C300 1.378 . S
C298 C302 1.350 . S
C299 C302 1.463 . S
C299 C304 1.350 . S
C299 N307 1.427 . S
C300 H291 0.930 . S
C300 C298 1.378 . S
C300 C301 1.367 . S
C301 C300 1.367 . S
C301 C303 1.433 . S
C302 C298 1.350 . S
C302 C299 1.463 . S
C302 N306 1.427 . S
C303 H293 0.929 . S
C303 C301 1.433 . S
C303 N306 1.384 . S
C304 H295 0.929 . S
C304 C296 1.378 . S
C304 C299 1.350 . S
C305 H292 0.929 . S
C305 C297 1.433 . S
C305 N307 1.384 . S
N306 C302 1.427 . S
N306 C303 1.384 . S
N307 C299 1.427 . S
N307 C305 1.384 . S
H308 C314 0.930 . S
H309 C318 0.930 . S
H310 C323 0.929 . S
H311 C321 0.929 . S
H312 C316 0.929 . S
H313 C322 0.929 . S
C314 H308 0.930 . S
C314 C315 1.367 . S
C314 C322 1.378 . S
C315 C314 1.367 . S
C315 C323 1.433 . S
C316 H312 0.929 . S
C316 C318 1.378 . S
C316 C320 1.350 . S
C317 C320 1.463 . S
C317 C322 1.350 . S
C317 N325 1.427 . S
C318 H309 0.930 . S
C318 C316 1.378 . S
C318 C319 1.367 . S
C319 C318 1.367 . S
C319 C321 1.433 . S
C320 C316 1.350 . S
C320 C317 1.463 . S
C320 N324 1.427 . S
C321 H311 0.929 . S
C321 C319 1.433 . S
C321 N324 1.384 . S
C322 H313 0.929 . S
C322 C314 1.378 . S
C322 C317 1.350 . S
C323 H310 0.929 . S
C323 C315 1.433 . S
C323 N325 1.384 . S
N324 C320 1.427 . S
N324 C321 1.384 . S
N325 C317 1.427 . S
N325 C323 1.384 . S
H326 C332 0.930 . S
H327 C336 0.930 . S
H328 C341 0.929 . S
H329 C339 0.929 . S
H330 C334 0.929 . S
H331 C340 0.929 . S
C332 H326 0.930 . S
C332 C333 1.367 . S
C332 C340 1.378 . S
C333 C332 1.367 . S
C333 C341 1.433 . S
C334 H330 0.929 . S
C334 C336 1.378 . S
C334 C338 1.350 . S
C335 C338 1.463 . S
C335 C340 1.350 . S
C335 N343 1.427 . S
C336 H327 0.930 . S
C336 C334 1.378 . S
C336 C337 1.367 . S
C337 C336 1.367 . S
C337 C339 1.433 . S
C338 C334 1.350 . S
C338 C335 1.463 . S
C338 N342 1.427 . S
C339 H329 0.929 . S
C339 C337 1.433 . S
C339 N342 1.384 . S
C340 H331 0.929 . S
C340 C332 1.378 . S
C340 C335 1.350 . S
C341 H328 0.929 . S
C341 C333 1.433 . S
C341 N343 1.384 . S
N342 C338 1.427 . S
N342 C339 1.384 . S
N343 C335 1.427 . S
N343 C341 1.384 . S
H344 C350 0.930 . S
H345 C354 0.930 . S
H346 C359 0.929 . S
H347 C357 0.929 . S
H348 C352 0.929 . S
H349 C358 0.929 . S
C350 H344 0.930 . S
C350 C351 1.367 . S
C350 C358 1.378 . S
C351 C350 1.367 . S
C351 C359 1.433 . S
C352 H348 0.929 . S
C352 C354 1.378 . S
C352 C356 1.350 . S
C353 C356 1.463 . S
C353 C358 1.350 . S
C353 N361 1.427 . S
C354 H345 0.930 . S
C354 C352 1.378 . S
C354 C355 1.367 . S
C355 C354 1.367 . S
C355 C357 1.433 . S
C356 C352 1.350 . S
C356 C353 1.463 . S
C356 N360 1.427 . S
C357 H347 0.929 . S
C357 C355 1.433 . S
C357 N360 1.384 . S
C358 H349 0.929 . S
C358 C350 1.378 . S
C358 C353 1.350 . S
C359 H346 0.929 . S
C359 C351 1.433 . S
C359 N361 1.384 . S
N360 C356 1.427 . S
N360 C357 1.384 . S
N361 C353 1.427 . S
N361 C359 1.384 . S
H362 C368 0.930 . S
H363 C372 0.930 . S
H364 C377 0.929 . S
H365 C375 0.929 . S
H366 C370 0.929 . S
H367 C376 0.929 . S
C368 H362 0.930 . S
C368 C369 1.367 . S
C368 C376 1.378 . S
C369 C368 1.367 . S
C369 C377 1.433 . S
C370 H366 0.929 . S
C370 C372 1.378 . S
C370 C374 1.350 . S
C371 C374 1.463 . S
C371 C376 1.350 . S
C371 N379 1.427 . S
C372 H363 0.930 . S
C372 C370 1.378 . S
C372 C373 1.367 . S
C373 C372 1.367 . S
C373 C375 1.433 . S
C374 C370 1.350 . S
C374 C371 1.463 . S
C374 N378 1.427 . S
C375 H365 0.929 . S
C375 C373 1.433 . S
C375 N378 1.384 . S
C376 H367 0.929 . S
C376 C368 1.378 . S
C376 C371 1.350 . S
C377 H364 0.929 . S
C377 C369 1.433 . S
C377 N379 1.384 . S
N378 C374 1.427 . S
N378 C375 1.384 . S
N379 C371 1.427 . S
N379 C377 1.384 . S
H380 C386 0.930 . S
H381 C390 0.930 . S
H382 C395 0.929 . S
H383 C393 0.929 . S
H384 C388 0.929 . S
H385 C394 0.929 . S
C386 H380 0.930 . S
C386 C387 1.367 . S
C386 C394 1.378 . S
C387 C386 1.367 . S
C387 C395 1.433 . S
C388 H384 0.929 . S
C388 C390 1.378 . S
C388 C392 1.350 . S
C389 C392 1.463 . S
C389 C394 1.350 . S
C389 N397 1.427 . S
C390 H381 0.930 . S
C390 C388 1.378 . S
C390 C391 1.367 . S
C391 C390 1.367 . S
C391 C393 1.433 . S
C392 C388 1.350 . S
C392 C389 1.463 . S
C392 N396 1.427 . S
C393 H383 0.929 . S
C393 C391 1.433 . S
C393 N396 1.384 . S
C394 H385 0.929 . S
C394 C386 1.378 . S
C394 C389 1.350 . S
C395 H382 0.929 . S
C395 C387 1.433 . S
C395 N397 1.384 . S
N396 C392 1.427 . S
N396 C393 1.384 . S
N397 C389 1.427 . S
N397 C395 1.384 . S
H398 C404 0.930 . S
H399 C408 0.930 . S
H400 C413 0.929 . S
H401 C411 0.929 . S
H402 C406 0.929 . S
H403 C412 0.929 . S
C404 H398 0.930 . S
C404 C405 1.367 . S
C404 C412 1.378 . S
C405 C404 1.367 . S
C405 C413 1.433 . S
C406 H402 0.929 . S
C406 C408 1.378 . S
C406 C410 1.350 . S
C407 C410 1.463 . S
C407 C412 1.350 . S
C407 N415 1.427 . S
C408 H399 0.930 . S
C408 C406 1.378 . S
C408 C409 1.367 . S
C409 C408 1.367 . S
C409 C411 1.433 . S
C410 C406 1.350 . S
C410 C407 1.463 . S
C410 N414 1.427 . S
C411 H401 0.929 . S
C411 C409 1.433 . S
C411 N414 1.384 . S
C412 H403 0.929 . S
C412 C404 1.378 . S
C412 C407 1.350 . S
C413 H400 0.929 . S
C413 C405 1.433 . S
C413 N415 1.384 . S
N414 C410 1.427 . S
N414 C411 1.384 . S
N415 C407 1.427 . S
N415 C413 1.384 . S
H416 C422 0.930 . S
H417 C426 0.930 . S
H418 C431 0.929 . S
H419 C429 0.929 . S
H420 C424 0.929 . S
H421 C430 0.929 . S
C422 H416 0.930 . S
C422 C423 1.367 . S
C422 C430 1.378 . S
C423 C422 1.367 . S
C423 C431 1.433 . S
C424 H420 0.929 . S
C424 C426 1.378 . S
C424 C428 1.350 . S
C425 C428 1.463 . S
C425 C430 1.350 . S
C425 N433 1.427 . S
C426 H417 0.930 . S
C426 C424 1.378 . S
C426 C427 1.367 . S
C427 C426 1.367 . S
C427 C429 1.433 . S
C428 C424 1.350 . S
C428 C425 1.463 . S
C428 N432 1.427 . S
C429 H419 0.929 . S
C429 C427 1.433 . S
C429 N432 1.384 . S
C430 H421 0.929 . S
C430 C422 1.378 . S
C430 C425 1.350 . S
C431 H418 0.929 . S
C431 C423 1.433 . S
C431 N433 1.384 . S
N432 C428 1.427 . S
N432 C429 1.384 . S
N433 C425 1.427 . S
N433 C431 1.384 . S
H434 C440 0.930 . S
H435 C444 0.930 . S
H436 C449 0.929 . S
H437 C447 0.929 . S
H438 C442 0.929 . S
H439 C448 0.929 . S
C440 H434 0.930 . S
C440 C441 1.367 . S
C440 C448 1.378 . S
C441 C440 1.367 . S
C441 C449 1.433 . S
C442 H438 0.929 . S
C442 C444 1.378 . S
C442 C446 1.350 . S
C443 C446 1.463 . S
C443 C448 1.350 . S
C443 N451 1.427 . S
C444 H435 0.930 . S
C444 C442 1.378 . S
C444 C445 1.367 . S
C445 C444 1.367 . S
C445 C447 1.433 . S
C446 C442 1.350 . S
C446 C443 1.463 . S
C446 N450 1.427 . S
C447 H437 0.929 . S
C447 C445 1.433 . S
C447 N450 1.384 . S
C448 H439 0.929 . S
C448 C440 1.378 . S
C448 C443 1.350 . S
C449 H436 0.929 . S
C449 C441 1.433 . S
C449 N451 1.384 . S
N450 C446 1.427 . S
N450 C447 1.384 . S
N451 C443 1.427 . S
N451 C449 1.384 . S
H452 C458 0.930 . S
H453 C462 0.930 . S
H454 C467 0.929 . S
H455 C465 0.929 . S
H456 C460 0.929 . S
H457 C466 0.929 . S
C458 H452 0.930 . S
C458 C459 1.367 . S
C458 C466 1.378 . S
C459 C458 1.367 . S
C459 C467 1.433 . S
C460 H456 0.929 . S
C460 C462 1.378 . S
C460 C464 1.350 . S
C461 C464 1.463 . S
C461 C466 1.350 . S
C461 N469 1.427 . S
C462 H453 0.930 . S
C462 C460 1.378 . S
C462 C463 1.367 . S
C463 C462 1.367 . S
C463 C465 1.433 . S
C464 C460 1.350 . S
C464 C461 1.463 . S
C464 N468 1.427 . S
C465 H455 0.929 . S
C465 C463 1.433 . S
C465 N468 1.384 . S
C466 H457 0.929 . S
C466 C458 1.378 . S
C466 C461 1.350 . S
C467 H454 0.929 . S
C467 C459 1.433 . S
C467 N469 1.384 . S
N468 C464 1.427 . S
N468 C465 1.384 . S
N469 C461 1.427 . S
N469 C467 1.384 . S
H470 C476 0.930 . S
H471 C480 0.930 . S
H472 C485 0.929 . S
H473 C483 0.929 . S
H474 C478 0.929 . S
H475 C484 0.929 . S
C476 H470 0.930 . S
C476 C477 1.367 . S
C476 C484 1.378 . S
C477 C476 1.367 . S
C477 C485 1.433 . S
C478 H474 0.929 . S
C478 C480 1.378 . S
C478 C482 1.350 . S
C479 C482 1.463 . S
C479 C484 1.350 . S
C479 N487 1.427 . S
C480 H471 0.930 . S
C480 C478 1.378 . S
C480 C481 1.367 . S
C481 C480 1.367 . S
C481 C483 1.433 . S
C482 C478 1.350 . S
C482 C479 1.463 . S
C482 N486 1.427 . S
C483 H473 0.929 . S
C483 C481 1.433 . S
C483 N486 1.384 . S
C484 H475 0.929 . S
C484 C476 1.378 . S
C484 C479 1.350 . S
C485 H472 0.929 . S
C485 C477 1.433 . S
C485 N487 1.384 . S
N486 C482 1.427 . S
N486 C483 1.384 . S
N487 C479 1.427 . S
N487 C485 1.384 . S
H488 C494 0.930 . S
H489 C498 0.930 . S
H490 C503 0.929 1_565 S
H491 C501 0.929 . S
H492 C496 0.929 . S
H493 C502 0.929 . S
C494 H488 0.930 . S
C494 C495 1.367 . S
C494 C502 1.378 1_565 S
C495 C494 1.367 . S
C495 C503 1.433 1_565 S
C496 H492 0.929 . S
C496 C498 1.378 . S
C496 C500 1.350 . S
C497 C500 1.463 . S
C497 C502 1.350 . S
C497 N505 1.427 . S
C498 H489 0.930 . S
C498 C496 1.378 . S
C498 C499 1.367 . S
C499 C498 1.367 . S
C499 C501 1.433 . S
C500 C496 1.350 . S
C500 C497 1.463 . S
C500 N504 1.427 . S
C501 H491 0.929 . S
C501 C499 1.433 . S
C501 N504 1.384 . S
C502 H493 0.929 . S
C502 C494 1.378 1_545 S
C502 C497 1.350 . S
C503 H490 0.929 1_545 S
C503 C495 1.433 1_545 S
C503 N505 1.384 . S
N504 C500 1.427 . S
N504 C501 1.384 . S
N505 C497 1.427 . S
N505 C503 1.384 . S
H506 C512 0.930 . S
H507 C516 0.923 1_655 S
H508 C521 0.929 . S
H509 C519 0.929 . S
H510 C514 0.929 . S
H511 C520 0.929 . S
C512 H506 0.930 . S
C512 C513 1.367 . S
C512 C520 1.378 . S
C513 C512 1.367 . S
C513 C521 1.433 . S
C514 H510 0.929 . S
C514 C516 1.378 . S
C514 C518 1.350 . S
C515 C518 1.463 . S
C515 C520 1.350 . S
C515 N523 1.427 . S
C516 H507 0.923 1_455 S
C516 C514 1.378 . S
C516 C517 1.367 1_565 S
C517 C516 1.367 1_545 S
C517 C519 1.433 . S
C518 C514 1.350 . S
C518 C515 1.463 . S
C518 N522 1.427 . S
C519 H509 0.929 . S
C519 C517 1.433 . S
C519 N522 1.384 1_545 S
C520 H511 0.929 . S
C520 C512 1.378 . S
C520 C515 1.350 . S
C521 H508 0.929 . S
C521 C513 1.433 . S
C521 N523 1.384 . S
N522 C518 1.427 . S
N522 C519 1.384 1_565 S
N523 C515 1.427 . S
N523 C521 1.384 . S
H524 C530 0.930 . S
H525 C534 0.930 1_545 S
H526 C539 0.929 . S
H527 C537 0.929 . S
H528 C532 0.929 . S
H529 C538 0.929 . S
C530 H524 0.930 . S
C530 C531 1.367 . S
C530 C538 1.378 . S
C531 C530 1.367 . S
C531 C539 1.433 . S
C532 H528 0.929 . S
C532 C534 1.378 . S
C532 C536 1.350 . S
C533 C536 1.463 . S
C533 C538 1.350 . S
C533 N541 1.427 . S
C534 H525 0.930 1_565 S
C534 C532 1.378 . S
C534 C535 1.367 1_565 S
C535 C534 1.367 1_545 S
C535 C537 1.433 . S
C536 C532 1.350 . S
C536 C533 1.463 . S
C536 N540 1.427 . S
C537 H527 0.929 . S
C537 C535 1.433 . S
C537 N540 1.384 1_545 S
C538 H529 0.929 . S
C538 C530 1.378 . S
C538 C533 1.350 . S
C539 H526 0.929 . S
C539 C531 1.433 . S
C539 N541 1.384 . S
N540 C536 1.427 . S
N540 C537 1.384 1_565 S
N541 C533 1.427 . S
N541 C539 1.384 . S
H542 C548 0.930 . S
H543 C552 0.929 1_565 S
H544 C557 0.929 1_655 S
H545 C555 0.929 . S
H546 C550 0.929 . S
H547 C556 0.929 . S
C548 H542 0.930 . S
C548 C549 1.367 . S
C548 C556 1.378 . S
C549 C548 1.367 . S
C549 C557 1.433 . S
C550 H546 0.929 . S
C550 C552 1.378 . S
C550 C554 1.350 1_655 S
C551 C554 1.463 . S
C551 C556 1.350 . S
C551 N559 1.445 . S
C552 H543 0.929 1_545 S
C552 C550 1.378 . S
C552 C553 1.367 1_645 S
C553 C552 1.367 1_465 S
C553 C555 1.433 . S
C554 C550 1.350 1_455 S
C554 C551 1.463 . S
C554 N558 1.427 . S
C555 H545 0.929 . S
C555 C553 1.433 . S
C555 N558 1.384 1_565 S
C556 H547 0.929 . S
C556 C548 1.378 . S
C556 C551 1.350 . S
C557 H544 0.929 1_455 S
C557 C549 1.433 . S
C557 N559 1.386 . S
N558 C554 1.427 . S
N558 C555 1.384 1_545 S
N559 C551 1.445 . S
N559 C557 1.386 . S
H560 C566 0.930 . S
H561 C570 0.930 . S
H562 C575 0.929 . S
H563 C573 0.929 . S
H564 C568 0.929 . S
H565 C574 0.929 . S
C566 H560 0.930 . S
C566 C567 1.367 . S
C566 C574 1.378 . S
C567 C566 1.367 . S
C567 C575 1.433 . S
C568 H564 0.929 . S
C568 C570 1.378 . S
C568 C572 1.350 . S
C569 C572 1.463 . S
C569 C574 1.350 1_556 S
C569 N577 1.427 . S
C570 H561 0.930 . S
C570 C568 1.378 . S
C570 C571 1.367 . S
C571 C570 1.367 . S
C571 C573 1.433 . S
C572 C568 1.350 . S
C572 C569 1.463 . S
C572 N576 1.427 . S
C573 H563 0.929 . S
C573 C571 1.433 . S
C573 N576 1.384 . S
C574 H565 0.929 . S
C574 C566 1.378 . S
C574 C569 1.350 1_554 S
C575 H562 0.929 . S
C575 C567 1.433 . S
C575 N577 1.384 1_554 S
N576 C572 1.427 . S
N576 C573 1.384 . S
N577 C569 1.427 . S
N577 C575 1.384 1_556 S
H578 C584 0.930 . S
H579 C588 0.930 . S
H580 C593 0.929 . S
H581 C591 0.929 . S
H582 C586 0.929 . S
H583 C592 0.929 . S
C584 H578 0.930 . S
C584 C585 1.367 . S
C584 C592 1.378 . S
C585 C584 1.367 . S
C585 C593 1.433 . S
C586 H582 0.929 . S
C586 C588 1.378 . S
C586 C590 1.350 . S
C587 C590 1.463 . S
C587 C592 1.350 . S
C587 N595 1.427 . S
C588 H579 0.930 . S
C588 C586 1.378 . S
C588 C589 1.367 . S
C589 C588 1.367 . S
C589 C591 1.433 . S
C590 C586 1.350 . S
C590 C587 1.463 . S
C590 N594 1.427 . S
C591 H581 0.929 . S
C591 C589 1.433 . S
C591 N594 1.384 . S
C592 H583 0.929 . S
C592 C584 1.378 . S
C592 C587 1.350 . S
C593 H580 0.929 . S
C593 C585 1.433 . S
C593 N595 1.384 . S
N594 C590 1.427 . S
N594 C591 1.384 . S
N595 C587 1.427 . S
N595 C593 1.384 . S
H596 C602 0.930 1_655 S
H597 C606 0.930 . S
H598 C611 0.929 . S
H599 C609 0.929 1_655 S
H600 C604 0.929 . S
H601 C610 0.929 1_655 S
C602 H596 0.930 1_455 S
C602 C603 1.367 . S
C602 C610 1.378 . S
C603 C602 1.367 . S
C603 C611 1.433 . S
C604 H600 0.929 . S
C604 C606 1.378 . S
C604 C608 1.350 1_556 S
C605 C608 1.463 . S
C605 C610 1.350 . S
C605 N613 1.427 . S
C606 H597 0.930 . S
C606 C604 1.378 . S
C606 C607 1.367 . S
C607 C606 1.367 . S
C607 C609 1.433 . S
C608 C604 1.350 1_554 S
C608 C605 1.463 . S
C608 N612 1.427 . S
C609 H599 0.929 1_455 S
C609 C607 1.433 . S
C609 N612 1.384 1_556 S
C610 H601 0.929 1_455 S
C610 C602 1.378 . S
C610 C605 1.350 . S
C611 H598 0.929 . S
C611 C603 1.433 . S
C611 N613 1.384 . S
N612 C608 1.427 . S
N612 C609 1.384 1_554 S
N613 C605 1.427 . S
N613 C611 1.384 . S
H614 C620 0.930 . S
H615 C624 0.930 . S
H616 C629 0.929 . S
H617 C627 0.929 . S
H618 C622 0.929 . S
H619 C628 0.929 . S
C620 H614 0.930 . S
C620 C621 1.367 . S
C620 C628 1.378 . S
C621 C620 1.367 . S
C621 C629 1.433 . S
C622 H618 0.929 . S
C622 C624 1.378 . S
C622 C626 1.350 . S
C623 C626 1.463 . S
C623 C628 1.350 . S
C623 N631 1.427 . S
C624 H615 0.930 . S
C624 C622 1.378 . S
C624 C625 1.367 . S
C625 C624 1.367 . S
C625 C627 1.433 . S
C626 C622 1.350 . S
C626 C623 1.463 . S
C626 N630 1.427 . S
C627 H617 0.929 . S
C627 C625 1.433 . S
C627 N630 1.384 . S
C628 H619 0.929 . S
C628 C620 1.378 . S
C628 C623 1.350 . S
C629 H616 0.929 . S
C629 C621 1.433 . S
C629 N631 1.384 . S
N630 C626 1.427 . S
N630 C627 1.384 . S
N631 C623 1.427 . S
N631 C629 1.384 . S
H632 C638 0.930 . S
H633 C642 0.930 . S
H634 C647 0.929 . S
H635 C645 0.929 . S
H636 C640 0.929 . S
H637 C646 0.929 . S
C638 H632 0.930 . S
C638 C639 1.367 . S
C638 C646 1.378 . S
C639 C638 1.367 . S
C639 C647 1.433 . S
C640 H636 0.929 . S
C640 C642 1.378 . S
C640 C644 1.350 . S
C641 C644 1.463 . S
C641 C646 1.350 1_556 S
C641 N649 1.427 . S
C642 H633 0.930 . S
C642 C640 1.378 . S
C642 C643 1.367 . S
C643 C642 1.367 . S
C643 C645 1.433 . S
C644 C640 1.350 . S
C644 C641 1.463 . S
C644 N648 1.427 . S
C645 H635 0.929 . S
C645 C643 1.433 . S
C645 N648 1.384 . S
C646 H637 0.929 . S
C646 C638 1.378 . S
C646 C641 1.350 1_554 S
C647 H634 0.929 . S
C647 C639 1.433 . S
C647 N649 1.384 1_554 S
N648 C644 1.427 . S
N648 C645 1.384 . S
N649 C641 1.427 . S
N649 C647 1.384 1_556 S
H650 C656 0.930 . S
H651 C660 0.930 . S
H652 C665 0.929 . S
H653 C663 0.929 . S
H654 C658 0.929 . S
H655 C664 0.929 . S
C656 H650 0.930 . S
C656 C657 1.367 . S
C656 C664 1.378 . S
C657 C656 1.367 . S
C657 C665 1.433 . S
C658 H654 0.929 . S
C658 C660 1.378 . S
C658 C662 1.350 . S
C659 C662 1.463 . S
C659 C664 1.350 . S
C659 N667 1.427 . S
C660 H651 0.930 . S
C660 C658 1.378 . S
C660 C661 1.367 . S
C661 C660 1.367 . S
C661 C663 1.433 . S
C662 C658 1.350 . S
C662 C659 1.463 . S
C662 N666 1.427 . S
C663 H653 0.929 . S
C663 C661 1.433 . S
C663 N666 1.384 . S
C664 H655 0.929 . S
C664 C656 1.378 . S
C664 C659 1.350 . S
C665 H652 0.929 . S
C665 C657 1.433 . S
C665 N667 1.384 . S
N666 C662 1.427 . S
N666 C663 1.384 . S
N667 C659 1.427 . S
N667 C665 1.384 . S
H668 C674 0.930 . S
H669 C678 0.930 . S
H670 C683 0.929 . S
H671 C681 0.929 . S
H672 C676 0.929 . S
H673 C682 0.929 . S
C674 H668 0.930 . S
C674 C675 1.367 . S
C674 C682 1.378 . S
C675 C674 1.367 . S
C675 C683 1.433 . S
C676 H672 0.929 . S
C676 C678 1.378 . S
C676 C680 1.350 . S
C677 C680 1.463 . S
C677 C682 1.350 1_554 S
C677 N685 1.427 . S
C678 H669 0.930 . S
C678 C676 1.378 . S
C678 C679 1.367 . S
C679 C678 1.367 . S
C679 C681 1.433 . S
C680 C676 1.350 . S
C680 C677 1.463 . S
C680 N684 1.427 . S
C681 H671 0.929 . S
C681 C679 1.433 . S
C681 N684 1.384 . S
C682 H673 0.929 . S
C682 C674 1.378 . S
C682 C677 1.350 1_556 S
C683 H670 0.929 . S
C683 C675 1.433 . S
C683 N685 1.384 1_556 S
N684 C680 1.427 . S
N684 C681 1.384 . S
N685 C677 1.427 . S
N685 C683 1.384 1_554 S
H686 C692 0.930 . S
H687 C696 0.930 . S
H688 C701 0.929 . S
H689 C699 0.929 . S
H690 C694 0.929 . S
H691 C700 0.929 . S
C692 H686 0.930 . S
C692 C693 1.367 . S
C692 C700 1.378 . S
C693 C692 1.367 . S
C693 C701 1.433 . S
C694 H690 0.929 . S
C694 C696 1.378 . S
C694 C698 1.350 . S
C695 C698 1.463 . S
C695 C700 1.350 . S
C695 N703 1.427 . S
C696 H687 0.930 . S
C696 C694 1.378 . S
C696 C697 1.367 . S
C697 C696 1.367 . S
C697 C699 1.433 . S
C698 C694 1.350 . S
C698 C695 1.463 . S
C698 N702 1.427 . S
C699 H689 0.929 . S
C699 C697 1.433 . S
C699 N702 1.384 . S
C700 H691 0.929 . S
C700 C692 1.378 . S
C700 C695 1.350 . S
C701 H688 0.929 . S
C701 C693 1.433 . S
C701 N703 1.384 . S
N702 C698 1.427 . S
N702 C699 1.384 . S
N703 C695 1.427 . S
N703 C701 1.384 . S
H704 C710 0.930 . S
H705 C714 0.930 . S
H706 C719 0.929 . S
H707 C717 0.929 . S
H708 C712 0.929 . S
H709 C718 0.929 . S
C710 H704 0.930 . S
C710 C711 1.367 . S
C710 C718 1.378 . S
C711 C710 1.367 . S
C711 C719 1.433 . S
C712 H708 0.929 . S
C712 C714 1.378 . S
C712 C716 1.350 . S
C713 C716 1.463 1_554 S
C713 C718 1.350 . S
C713 N721 1.427 . S
C714 H705 0.930 . S
C714 C712 1.378 . S
C714 C715 1.367 . S
C715 C714 1.367 . S
C715 C717 1.433 . S
C716 C712 1.350 . S
C716 C713 1.463 1_556 S
C716 N720 1.427 . S
C717 H707 0.929 . S
C717 C715 1.433 . S
C717 N720 1.384 . S
C718 H709 0.929 . S
C718 C710 1.378 . S
C718 C713 1.350 . S
C719 H706 0.929 . S
C719 C711 1.433 . S
C719 N721 1.384 . S
N720 C716 1.427 . S
N720 C717 1.384 . S
N721 C713 1.427 . S
N721 C719 1.384 . S
H722 C728 0.930 . S
H723 C732 0.930 . S
H724 C737 0.929 . S
H725 C735 0.929 . S
H726 C730 0.929 . S
H727 C736 0.929 . S
C728 H722 0.930 . S
C728 C729 1.367 . S
C728 C736 1.378 . S
C729 C728 1.367 . S
C729 C737 1.433 . S
C730 H726 0.929 . S
C730 C732 1.378 . S
C730 C734 1.350 . S
C731 C734 1.463 . S
C731 C736 1.350 . S
C731 N739 1.427 . S
C732 H723 0.930 . S
C732 C730 1.378 . S
C732 C733 1.367 . S
C733 C732 1.367 . S
C733 C735 1.433 . S
C734 C730 1.350 . S
C734 C731 1.463 . S
C734 N738 1.427 . S
C735 H725 0.929 . S
C735 C733 1.433 . S
C735 N738 1.384 . S
C736 H727 0.929 . S
C736 C728 1.378 . S
C736 C731 1.350 . S
C737 H724 0.929 . S
C737 C729 1.433 . S
C737 N739 1.384 . S
N738 C734 1.427 . S
N738 C735 1.384 . S
N739 C731 1.427 . S
N739 C737 1.384 . S
H740 C746 0.930 . S
H741 C750 0.930 . S
H742 C755 0.929 . S
H743 C753 0.929 . S
H744 C748 0.929 1_565 S
H745 C754 0.929 1_545 S
C746 H740 0.930 . S
C746 C747 1.367 . S
C746 C754 1.378 . S
C747 C746 1.367 . S
C747 C755 1.433 . S
C748 H744 0.929 1_545 S
C748 C750 1.378 . S
C748 C752 1.350 . S
C749 C752 1.463 1_564 S
C749 C754 1.350 . S
C749 N757 1.421 1_554 S
C750 H741 0.930 . S
C750 C748 1.378 . S
C750 C751 1.367 . S
C751 C750 1.367 . S
C751 C753 1.433 . S
C752 C748 1.350 . S
C752 C749 1.463 1_546 S
C752 N756 1.421 1_556 S
C753 H743 0.929 . S
C753 C751 1.433 . S
C753 N756 1.373 1_556 S
C754 H745 0.929 1_565 S
C754 C746 1.378 . S
C754 C749 1.350 . S
C755 H742 0.929 . S
C755 C747 1.433 . S
C755 N757 1.373 1_554 S
N756 C752 1.421 1_554 S
N756 C753 1.373 1_554 S
N757 C749 1.421 1_556 S
N757 C755 1.373 1_556 S
H758 C764 0.930 . S
H759 C768 0.930 . S
H760 C773 0.929 . S
H761 C771 0.929 . S
H762 C766 0.929 . S
H763 C772 0.929 . S
C764 H758 0.930 . S
C764 C765 1.367 . S
C764 C772 1.378 . S
C765 C764 1.367 . S
C765 C773 1.433 1_455 S
C766 H762 0.929 . S
C766 C768 1.378 . S
C766 C770 1.350 1_655 S
C767 C770 1.463 1_545 S
C767 C772 1.350 . S
C767 N775 1.427 1_455 S
C768 H759 0.930 . S
C768 C766 1.378 . S
C768 C769 1.367 1_655 S
C769 C768 1.367 1_455 S
C769 C771 1.433 . S
C770 C766 1.350 1_455 S
C770 C767 1.463 1_565 S
C770 N774 1.427 . S
C771 H761 0.929 . S
C771 C769 1.433 . S
C771 N774 1.384 . S
C772 H763 0.929 . S
C772 C764 1.378 . S
C772 C767 1.350 . S
C773 H760 0.929 . S
C773 C765 1.433 1_655 S
C773 N775 1.384 . S
N774 C770 1.427 . S
N774 C771 1.384 . S
N775 C767 1.427 1_655 S
N775 C773 1.384 . S
C279 C22 1.299 . S
C283 C124 1.278 . S
C297 C90 1.280 . S
C301 C49 1.294 . S
C315 C56 2.015 . S
C319 C83 2.015 . S
C333 C15 2.010 . S
C337 C117 2.024 . S
C351 C260 1.289 . S
C355 C158 1.286 . S
C369 C226 1.281 . S
C373 C185 1.293 . S
C387 C219 2.021 . S
C391 C192 2.018 . S
C405 C253 2.022 . S
C409 C151 2.010 . S
C423 C266 1.011 . S
C427 C6 1.014 . S
C441 C232 1.001 . S
C445 C62 1.012 . S
C459 C74 1.014 . S
C463 C176 1.001 . S
C477 C164 1.012 . S
C481 C108 1.012 . S
C495 C142 1.014 . S
C499 C130 1.002 . S
C513 C96 1.012 . S
C517 C198 1.012 . S
C531 C40 1.011 . S
C535 C210 1.010 . S
C549 C28 1.011 . S
C553 C244 1.014 . S
C567 C3 1.501 . S
C571 C187 1.585 . S
C585 C35 1.483 . S
C589 C153 1.593 . S
C603 C255 1.586 . S
C607 C71 1.494 . S
C621 C105 1.483 . S
C625 C221 1.591 . S
C639 C139 1.501 . S
C643 C51 1.585 . S
C657 C171 1.490 . S
C661 C17 1.587 . S
C675 C207 1.500 . S
C679 C119 1.585 . S
C693 C241 1.498 . S
C697 C85 1.585 . S
C711 C1 1.947 . S
C715 C69 1.940 . S
C729 C37 1.934 . S
C733 C103 1.941 . S
C747 C137 1.947 . S
C751 C205 1.942 . S
C765 C173 1.934 . S
C769 C239 1.941 . S
