# Generated by pormake.
# Topology vcm, (7)-cn, num edge types: 1
# Building blocks:
#     Node 0, Type 0, BuildingBlock: HICVOG_clean_sbu_0, # of connection points: 7
#     Node 1, Type 0, BuildingBlock: HICVOG_clean_sbu_0, # of connection points: 7
#     Node 2, Type 0, BuildingBlock: HICVOG_clean_sbu_0, # of connection points: 7
#     Node 3, Type 0, BuildingBlock: HICVOG_clean_sbu_0, # of connection points: 7
#     Node 4, Type 0, BuildingBlock: HICVOG_clean_sbu_0, # of connection points: 7
#     Node 5, Type 0, BuildingBlock: HICVOG_clean_sbu_0, # of connection points: 7
#     Node 6, Type 0, BuildingBlock: HICVOG_clean_sbu_0, # of connection points: 7
#     Node 7, Type 0, BuildingBlock: HICVOG_clean_sbu_0, # of connection points: 7
#     Edge 8, Type (0, 0), BuildingBlock: ZUJKAS_clean_linker_0, # of connection points: 2
#     Edge 9, Type (0, 0), BuildingBlock: ZUJKAS_clean_linker_0, # of connection points: 2
#     Edge 10, Type (0, 0), BuildingBlock: ZUJKAS_clean_linker_0, # of connection points: 2
#     Edge 11, Type (0, 0), BuildingBlock: ZUJKAS_clean_linker_0, # of connection points: 2
#     Edge 12, Type (0, 0), BuildingBlock: ZUJKAS_clean_linker_0, # of connection points: 2
#     Edge 13, Type (0, 0), BuildingBlock: ZUJKAS_clean_linker_0, # of connection points: 2
#     Edge 14, Type (0, 0), BuildingBlock: ZUJKAS_clean_linker_0, # of connection points: 2
#     Edge 15, Type (0, 0), BuildingBlock: ZUJKAS_clean_linker_0, # of connection points: 2
#     Edge 16, Type (0, 0), BuildingBlock: ZUJKAS_clean_linker_0, # of connection points: 2
#     Edge 17, Type (0, 0), BuildingBlock: ZUJKAS_clean_linker_0, # of connection points: 2
#     Edge 18, Type (0, 0), BuildingBlock: ZUJKAS_clean_linker_0, # of connection points: 2
#     Edge 19, Type (0, 0), BuildingBlock: ZUJKAS_clean_linker_0, # of connection points: 2
#     Edge 20, Type (0, 0), BuildingBlock: ZUJKAS_clean_linker_0, # of connection points: 2
#     Edge 21, Type (0, 0), BuildingBlock: ZUJKAS_clean_linker_0, # of connection points: 2
#     Edge 22, Type (0, 0), BuildingBlock: ZUJKAS_clean_linker_0, # of connection points: 2
#     Edge 23, Type (0, 0), BuildingBlock: ZUJKAS_clean_linker_0, # of connection points: 2
#     Edge 24, Type (0, 0), BuildingBlock: ZUJKAS_clean_linker_0, # of connection points: 2
#     Edge 25, Type (0, 0), BuildingBlock: ZUJKAS_clean_linker_0, # of connection points: 2
#     Edge 26, Type (0, 0), BuildingBlock: ZUJKAS_clean_linker_0, # of connection points: 2
#     Edge 27, Type (0, 0), BuildingBlock: ZUJKAS_clean_linker_0, # of connection points: 2
#     Edge 28, Type (0, 0), BuildingBlock: ZUJKAS_clean_linker_0, # of connection points: 2
#     Edge 29, Type (0, 0), BuildingBlock: ZUJKAS_clean_linker_0, # of connection points: 2
#     Edge 30, Type (0, 0), BuildingBlock: ZUJKAS_clean_linker_0, # of connection points: 2
#     Edge 31, Type (0, 0), BuildingBlock: ZUJKAS_clean_linker_0, # of connection points: 2
#     Edge 32, Type (0, 0), BuildingBlock: ZUJKAS_clean_linker_0, # of connection points: 2
#     Edge 33, Type (0, 0), BuildingBlock: ZUJKAS_clean_linker_0, # of connection points: 2
#     Edge 34, Type (0, 0), BuildingBlock: ZUJKAS_clean_linker_0, # of connection points: 2
#     Edge 35, Type (0, 0), BuildingBlock: ZUJKAS_clean_linker_0, # of connection points: 2
# Relax obj value: 0.259
# Max RMSD: 0.251
# Mean RMSD: 0.251
data_MOF--net-vcm--node1-HICVOG_clean_sbu_0--edge1-ZUJKAS_clean_linker_0
_symmetry_space_group_name_H-M    P1
_symmetry_Int_Tables_number       1
_symmetry_cell_setting            triclinic
loop_
_symmetry_equiv_pos_as_xyz
'x, y, z'
_cell_length_a     49.118874
_cell_length_b     42.349592
_cell_length_c     35.120846
_cell_angle_alpha  89.998077
_cell_angle_beta   90.011305
_cell_angle_gamma 89.999286
loop_
_atom_site_label
_atom_site_type_symbol
_atom_site_fract_x
_atom_site_fract_y
_atom_site_fract_z
_atom_type_partial_charge
Zn0 Zn 0.01684 0.30671 0.18935 0.0
C1 C 0.05662 0.36285 0.11631 0.0
N2 N 0.04329 0.34594 0.08996 0.0
C3 C 0.03179 0.32292 0.11079 0.0
N4 N 0.03778 0.3256 0.14822 0.0
N5 N 0.05387 0.35062 0.15154 0.0
C6 C 0.08552 0.41776 0.23583 0.0
O7 O 0.0949 0.39719 0.26054 0.0
O8 O 1.00795 0.26119 0.17874 0.0
Zn9 Zn 0.07856 0.36106 0.19297 0.0
N10 N 0.98367 0.33154 0.19539 0.0
C11 C 0.96583 0.38372 0.19704 0.0
C12 C 0.9878 0.36323 0.19374 0.0
C13 C 0.95819 0.31936 0.20089 0.0
N14 N 0.94052 0.37175 0.20218 0.0
C15 C 0.93575 0.34011 0.20441 0.0
O16 O 0.07175 0.33819 0.24291 0.0
C17 C 0.05592 0.31815 0.25838 0.0
O18 O 0.03605 0.30604 0.24029 0.0
H19 H 1.0081 0.3725 0.18981 0.0
H20 H 0.95548 0.29402 0.2019 0.0
C21 C 0.13812 0.36043 0.19322 0.0
C22 C 0.16387 0.35059 0.17984 0.0
C23 C 0.14194 0.31929 0.1328 0.0
C24 C 0.11665 0.32852 0.14665 0.0
N25 N 0.11509 0.34925 0.17614 0.0
N26 N 0.16482 0.33043 0.14967 0.0
H27 H 0.13634 0.37678 0.21669 0.0
C28 C 0.02786 0.24219 0.18193 0.0
O29 O 0.05235 0.25384 0.18744 0.0
O30 O 0.07727 0.40799 0.20358 0.0
H31 H 0.09838 0.31909 0.13386 0.0
H32 H 0.96884 0.409 0.19557 0.0
H33 H 0.14342 0.30309 0.10908 0.0
Zn34 Zn 0.51386 0.63824 0.68865 0.0
C35 C 0.56234 0.6757 0.60811 0.0
N36 N 0.55132 0.65263 0.58691 0.0
C37 C 0.53794 0.63525 0.61275 0.0
N38 N 0.54004 0.64737 0.64819 0.0
N39 N 0.55587 0.67269 0.64537 0.0
C40 C 0.56332 0.75521 0.6804 0.0
O41 O 0.53916 0.74213 0.68362 0.0
O42 O 0.51197 0.59144 0.69926 0.0
Zn43 Zn 0.57671 0.69124 0.68694 0.0
N44 N 0.47836 0.65302 0.67106 0.0
C45 C 0.45375 0.68453 0.62676 0.0
C46 C 0.47823 0.67263 0.64038 0.0
C47 C 0.45471 0.64525 0.68921 0.0
N48 N 0.43028 0.67692 0.64479 0.0
C49 C 0.42976 0.65768 0.67586 0.0
O50 O 0.55771 0.69 0.73798 0.0
C51 C 0.53758 0.67813 0.75574 0.0
O52 O 0.52102 0.6593 0.73956 0.0
H53 H 0.49702 0.67939 0.62671 0.0
H54 H 0.45559 0.63038 0.71421 0.0
C55 C 0.63579 0.68009 0.69884 0.0
C56 C 0.65872 0.65989 0.70118 0.0
C57 C 0.6298 0.6159 0.68914 0.0
C58 C 0.60741 0.63583 0.6869 0.0
N59 N 0.61068 0.66745 0.69156 0.0
N60 N 0.65472 0.62833 0.69611 0.0
H61 H 0.63782 0.70537 0.70214 0.0
C62 C 0.53086 0.5791 0.71904 0.0
O63 O 0.55117 0.59697 0.73039 0.0
O64 O 0.5841 0.7374 0.67826 0.0
H65 H 0.58745 0.62617 0.68139 0.0
H66 H 0.45339 0.70006 0.60231 0.0
H67 H 0.62744 0.5907 0.68536 0.0
Zn68 Zn 0.0168 0.69107 0.83144 0.0
C69 C 0.05481 0.63298 0.9033 0.0
N70 N 0.04116 0.64937 0.9298 0.0
C71 C 0.03089 0.6736 0.90967 0.0
N72 N 0.03786 0.67199 0.87248 0.0
N73 N 0.05342 0.64659 0.86868 0.0
C74 C 0.06126 0.57671 0.8065 0.0
O75 O 0.03865 0.59274 0.80144 0.0
O76 O 0.01006 0.73731 0.84049 0.0
Zn77 Zn 0.07949 0.63785 0.8284 0.0
N78 N 0.98234 0.66798 0.82718 0.0
C79 C 0.96136 0.61754 0.83319 0.0
C80 C 0.98399 0.63698 0.83698 0.0
C81 C 0.95848 0.6805 0.81385 0.0
N82 N 0.93785 0.62974 0.81943 0.0
C83 C 0.93547 0.66071 0.80957 0.0
O84 O 0.07156 0.65811 0.77732 0.0
C85 C 0.05496 0.67715 0.7616 0.0
O86 O 0.03529 0.68945 0.77997 0.0
H87 H 1.00293 0.62723 0.84722 0.0
H88 H 0.95769 0.70511 0.80565 0.0
C89 C 0.13851 0.64576 0.82783 0.0
C90 C 0.16328 0.65883 0.8409 0.0
C91 C 0.13882 0.68672 0.8887 0.0
C92 C 0.11451 0.6741 0.87539 0.0
N93 N 0.11471 0.65371 0.84548 0.0
N94 N 0.16245 0.67892 0.87117 0.0
H95 H 0.13786 0.63019 0.80345 0.0
C96 C 0.03091 0.75497 0.83806 0.0
O97 O 0.05496 0.74174 0.83423 0.0
O98 O 0.0821 0.591 0.81927 0.0
H99 H 0.09558 0.68079 0.88877 0.0
H100 H 0.96254 0.59281 0.84073 0.0
H101 H 0.13893 0.70288 0.91255 0.0
Zn102 Zn 0.57753 0.3086 0.32914 0.0
C103 C 0.53639 0.36205 0.40405 0.0
N104 N 0.54974 0.34449 0.42976 0.0
C105 C 0.56184 0.32249 0.40811 0.0
N106 N 0.55615 0.32631 0.37072 0.0
N107 N 0.53963 0.35104 0.36824 0.0
C108 C 0.50586 0.41717 0.28298 0.0
O109 O 0.49645 0.39642 0.25848 0.0
O110 O 0.5854 0.2625 0.33762 0.0
Zn111 Zn 0.51416 0.3608 0.3271 0.0
N112 N 0.61123 0.33286 0.32488 0.0
C113 C 0.63093 0.38399 0.3302 0.0
C114 C 0.60866 0.36396 0.33371 0.0
C115 C 0.63553 0.32084 0.31256 0.0
N116 N 0.65494 0.37225 0.31757 0.0
C117 C 0.65817 0.3412 0.30851 0.0
O118 O 0.52087 0.338 0.27714 0.0
C119 C 0.53796 0.32007 0.26058 0.0
O120 O 0.55882 0.30951 0.27788 0.0
H121 H 0.58928 0.37326 0.34297 0.0
H122 H 0.63691 0.29612 0.30501 0.0
C123 C 0.45459 0.35983 0.32913 0.0
C124 C 0.42921 0.35006 0.34384 0.0
C125 C 0.45225 0.31819 0.38922 0.0
C126 C 0.47719 0.32746 0.37419 0.0
N127 N 0.47802 0.34848 0.34492 0.0
N128 N 0.42898 0.32964 0.37378 0.0
H129 H 0.45573 0.37639 0.30576 0.0
C130 C 0.56465 0.24458 0.33627 0.0
O131 O 0.5404 0.25755 0.33394 0.0
O132 O 0.51446 0.40759 0.31515 0.0
H133 H 0.49575 0.31787 0.3859 0.0
H134 H 0.6291 0.40881 0.33706 0.0
H135 H 0.45136 0.30177 0.41278 0.0
Zn136 Zn 0.51509 0.81001 0.18387 0.0
C137 C 0.55765 0.86579 0.11341 0.0
N138 N 0.54442 0.84977 0.08622 0.0
C139 C 0.53238 0.82642 0.10593 0.0
N140 N 0.5378 0.82821 0.14369 0.0
N141 N 0.55407 0.85294 0.14816 0.0
C142 C 0.56151 0.92304 0.21082 0.0
O143 O 0.53856 0.90755 0.21548 0.0
O144 O 0.50999 0.76307 0.17704 0.0
Zn145 Zn 0.57853 0.86142 0.19009 0.0
N146 N 0.47999 0.83163 0.18163 0.0
C147 C 0.45727 0.87878 0.1629 0.0
C148 C 0.4811 0.86153 0.16758 0.0
C149 C 0.45573 0.81849 0.19228 0.0
N150 N 0.43316 0.86566 0.17288 0.0
C151 C 0.43147 0.83601 0.18769 0.0
O152 O 0.56816 0.84241 0.24085 0.0
C153 C 0.54992 0.82559 0.25666 0.0
O154 O 0.53018 0.81407 0.23767 0.0
H155 H 0.50039 0.87191 0.15978 0.0
H156 H 0.45533 0.79466 0.20341 0.0
C157 C 0.63745 0.8548 0.19054 0.0
C158 C 0.6622 0.84025 0.17989 0.0
C159 C 0.63734 0.80499 0.14017 0.0
C160 C 0.61307 0.81907 0.1513 0.0
N161 N 0.61354 0.84375 0.17602 0.0
N162 N 0.66113 0.81577 0.15474 0.0
H163 H 0.63691 0.87461 0.2099 0.0
C164 C 0.53016 0.74596 0.18659 0.0
O165 O 0.5531 0.75984 0.19613 0.0
O166 O 0.5822 0.90823 0.19846 0.0
H167 H 0.59395 0.81027 0.14039 0.0
H168 H 0.4579 0.90247 0.15141 0.0
H169 H 0.6373 0.78541 0.12039 0.0
Zn170 Zn 0.01243 0.13798 0.69236 0.0
C171 C 0.06234 0.17064 0.61044 0.0
N172 N 0.05132 0.14651 0.59094 0.0
C173 C 0.03662 0.13161 0.61754 0.0
N174 N 0.03827 0.14589 0.65174 0.0
N175 N 0.05491 0.17034 0.64759 0.0
C176 C 0.0614 0.25299 0.68759 0.0
O177 O 0.03782 0.23913 0.69342 0.0
O178 O 1.00879 0.09122 0.70122 0.0
Zn179 Zn 0.07621 0.18917 0.68883 0.0
N180 N 0.97774 0.15541 0.67617 0.0
C181 C 0.95458 0.19267 0.63715 0.0
C182 C 0.97855 0.17808 0.64877 0.0
C183 C 0.95373 0.14672 0.6926 0.0
N184 N 0.93073 0.18434 0.65374 0.0
C185 C 0.92942 0.16173 0.68126 0.0
O186 O 0.05883 0.1864 0.74115 0.0
C187 C 0.0388 0.17496 0.75956 0.0
O188 O 0.02117 0.15747 0.74346 0.0
H189 H 0.99771 0.18514 0.63633 0.0
H190 H 0.9538 0.12916 0.71498 0.0
C191 C 0.13461 0.17936 0.70457 0.0
C192 C 0.15789 0.15997 0.70798 0.0
C193 C 0.13238 0.11664 0.68401 0.0
C194 C 0.10944 0.13569 0.68113 0.0
N195 N 0.11082 0.16658 0.6915 0.0
N196 N 0.15587 0.12909 0.69754 0.0
H197 H 0.13512 0.20386 0.7133 0.0
C198 C 0.02972 0.07655 0.71303 0.0
O199 O 0.05265 0.09217 0.71702 0.0
O200 O 0.08223 0.23586 0.68155 0.0
H201 H 0.09048 0.12574 0.67119 0.0
H202 H 0.95495 0.21078 0.61543 0.0
H203 H 0.13146 0.09199 0.67602 0.0
Zn204 Zn 0.51562 0.19066 0.82932 0.0
C205 C 0.55601 0.13527 0.90279 0.0
N206 N 0.54218 0.15181 0.92895 0.0
C207 C 0.53042 0.17459 0.90799 0.0
N208 N 0.53677 0.17214 0.87065 0.0
N209 N 0.55326 0.14746 0.86753 0.0
C210 C 0.56143 0.07789 0.80187 0.0
O211 O 0.53974 0.0946 0.79335 0.0
O212 O 0.50907 0.23713 0.83751 0.0
Zn213 Zn 0.57874 0.1384 0.82679 0.0
N214 N 0.48136 0.16744 0.82663 0.0
C215 C 0.46135 0.11657 0.83266 0.0
C216 C 0.4841 0.13601 0.83333 0.0
C217 C 0.45646 0.18037 0.81888 0.0
N218 N 0.43662 0.12928 0.82516 0.0
C219 C 0.43318 0.16067 0.81811 0.0
O220 O 0.57064 0.15851 0.77568 0.0
C221 C 0.55357 0.1766 0.75931 0.0
O222 O 0.53351 0.18842 0.77732 0.0
H223 H 0.5039 0.12611 0.83928 0.0
H224 H 0.45489 0.20552 0.81402 0.0
C225 C 0.63772 0.14346 0.82816 0.0
C226 C 0.66267 0.15696 0.83994 0.0
C227 C 0.63813 0.19111 0.88146 0.0
C228 C 0.61369 0.17811 0.86917 0.0
N229 N 0.6139 0.15448 0.84301 0.0
N230 N 0.66183 0.18038 0.86654 0.0
H231 H 0.63691 0.12453 0.8076 0.0
C232 C 0.53018 0.25449 0.83631 0.0
O233 O 0.55418 0.24088 0.83422 0.0
O234 O 0.58139 0.09152 0.81798 0.0
H235 H 0.59466 0.18698 0.8803 0.0
H236 H 0.46327 0.09152 0.83806 0.0
H237 H 0.6383 0.20985 0.90239 0.0
Zn238 Zn 0.07775 0.80997 0.33417 0.0
C239 C 0.03282 0.86463 0.40355 0.0
N240 N 0.04567 0.84855 0.43104 0.0
C241 C 0.05868 0.82586 0.41146 0.0
N242 N 0.05422 0.82809 0.3735 0.0
N243 N 0.03759 0.85248 0.36872 0.0
C244 C 0.99993 0.91621 0.28533 0.0
O245 O 0.99223 0.89482 0.26048 0.0
O246 O 0.08215 0.76307 0.34123 0.0
Zn247 Zn 0.01353 0.86028 0.32618 0.0
N248 N 0.11312 0.8309 0.33819 0.0
C249 C 0.13673 0.87607 0.36133 0.0
C250 C 0.11262 0.85964 0.35543 0.0
C251 C 0.13707 0.81815 0.32563 0.0
N252 N 0.16052 0.86335 0.34931 0.0
C253 C 0.16165 0.83487 0.33136 0.0
O254 O 0.02536 0.84111 0.27624 0.0
C255 C 0.04405 0.82493 0.26054 0.0
O256 O 0.06392 0.81388 0.27969 0.0
H257 H 0.09358 0.86979 0.36476 0.0
H258 H 0.13697 0.79523 0.31204 0.0
C259 C 0.95452 0.85057 0.32426 0.0
C260 C 0.93058 0.83384 0.33343 0.0
C261 C 0.95649 0.7998 0.37315 0.0
C262 C 0.9801 0.81603 0.3635 0.0
N263 N 0.97877 0.84109 0.33935 0.0
N264 N 0.93244 0.80889 0.35775 0.0
H265 H 0.95404 0.8701 0.30449 0.0
C266 C 0.06188 0.74632 0.33119 0.0
O267 O 0.03927 0.76057 0.32092 0.0
O268 O 0.00941 0.90721 0.31724 0.0
H269 H 0.99944 0.80833 0.37482 0.0
H270 H 0.13659 0.89883 0.37531 0.0
H271 H 0.95729 0.77981 0.39228 0.0
H272 H 0.21324 0.35655 0.1456 0.0
H273 H 0.2575 0.36473 0.17563 0.0
H274 H 0.21851 0.3744 0.28494 0.0
H275 H 0.17406 0.36555 0.25532 0.0
H276 H 0.27978 0.41397 0.2224 0.0
H277 H 0.27129 0.29904 0.29817 0.0
H278 H 0.24897 0.30982 0.25948 0.0
H279 H 0.24384 0.32634 0.30603 0.0
C280 C 0.21397 0.36074 0.17601 0.0
C281 C 0.18998 0.36028 0.19796 0.0
C282 C 0.23932 0.36555 0.19309 0.0
C283 C 0.24135 0.36976 0.23256 0.0
C284 C 0.21741 0.37084 0.25444 0.0
H285 H 0.3819 0.35972 0.38198 0.0
H286 H 0.33666 0.36896 0.35553 0.0
C287 C 0.19194 0.36611 0.23734 0.0
C288 C 0.26863 0.37083 0.25081 0.0
H289 H 0.31087 0.32883 0.30907 0.0
C290 C 0.28658 0.39548 0.24153 0.0
C291 C 0.27751 0.34655 0.27553 0.0
C292 C 0.25956 0.31876 0.28526 0.0
C293 C 0.31311 0.39665 0.25666 0.0
C294 C 0.32208 0.37216 0.28106 0.0
C295 C 0.30399 0.34767 0.29049 0.0
C296 C 0.35017 0.37089 0.29695 0.0
C297 C 0.33111 0.42431 0.24676 0.0
C298 C 0.37305 0.36946 0.27293 0.0
C299 C 0.39912 0.36441 0.28808 0.0
C300 C 0.40271 0.36029 0.32752 0.0
C301 C 0.37986 0.36271 0.35148 0.0
C302 C 0.35395 0.368 0.3364 0.0
H303 H 0.31897 0.44508 0.23754 0.0
H304 H 0.34398 0.4313 0.27136 0.0
H305 H 0.34472 0.41758 0.22289 0.0
H306 H 0.37063 0.37081 0.24233 0.0
H307 H 0.41614 0.36205 0.26871 0.0
H308 H 0.20789 0.69668 0.8423 0.0
H309 H 0.25256 0.68742 0.8147 0.0
H310 H 0.22532 0.59782 0.77069 0.0
H311 H 0.18023 0.60672 0.79852 0.0
H312 H 0.28903 0.63801 0.82886 0.0
H313 H 0.2577 0.64229 0.67659 0.0
H314 H 0.23596 0.65622 0.71446 0.0
H315 H 0.23998 0.61462 0.70649 0.0
C316 C 0.21121 0.67491 0.82679 0.0
C317 C 0.19014 0.65264 0.82246 0.0
C318 C 0.23688 0.66968 0.81101 0.0
C319 C 0.24228 0.64206 0.79038 0.0
C320 C 0.22147 0.61957 0.78598 0.0
H321 H 0.4133 0.60658 0.72035 0.0
H322 H 0.36832 0.59804 0.74879 0.0
C323 C 0.1956 0.6248 0.80181 0.0
C324 C 0.26984 0.6374 0.77376 0.0
H325 H 0.30435 0.63633 0.68934 0.0
C326 C 0.29242 0.63719 0.79835 0.0
C327 C 0.27418 0.63654 0.73397 0.0
C328 C 0.25077 0.63764 0.70617 0.0
C329 C 0.31921 0.63729 0.78424 0.0
C330 C 0.32355 0.63719 0.74443 0.0
C331 C 0.30097 0.63624 0.71986 0.0
C332 C 0.35107 0.64167 0.72762 0.0
C333 C 0.34262 0.63919 0.81197 0.0
C334 C 0.35627 0.66881 0.70602 0.0
C335 C 0.38185 0.67382 0.68988 0.0
C336 C 0.40305 0.6518 0.69483 0.0
C337 C 0.39781 0.62446 0.71653 0.0
C338 C 0.37201 0.61944 0.73272 0.0
H339 H 0.33567 0.64446 0.84139 0.0
H340 H 0.35354 0.61626 0.81239 0.0
H341 H 0.35732 0.6577 0.80306 0.0
H342 H 0.34049 0.68635 0.70179 0.0
H343 H 0.385 0.69522 0.67358 0.0
H344 H 0.7057 0.63143 0.67938 0.0
H345 H 0.7522 0.64475 0.69654 0.0
H346 H 0.72371 0.72694 0.757 0.0
H347 H 0.67655 0.71317 0.74084 0.0
H348 H 0.78411 0.69635 0.68237 0.0
H349 H 0.76828 0.68177 0.83839 0.0
H350 H 0.74337 0.66897 0.80393 0.0
H351 H 0.74695 0.71019 0.81483 0.0
C352 C 0.70912 0.65244 0.69631 0.0
C353 C 0.6871 0.67106 0.70879 0.0
C354 C 0.73589 0.66011 0.70597 0.0
C355 C 0.7416 0.6866 0.72856 0.0
C356 C 0.71986 0.70605 0.74009 0.0
H357 H 0.90809 0.71697 0.82238 0.0
H358 H 0.86151 0.73035 0.80167 0.0
C359 C 0.69284 0.69835 0.73036 0.0
C360 C 0.77035 0.69266 0.74042 0.0
H361 H 0.81303 0.69028 0.81747 0.0
C362 C 0.79034 0.69554 0.71198 0.0
C363 C 0.77864 0.6917 0.77908 0.0
C364 C 0.75831 0.68778 0.81093 0.0
C365 C 0.81825 0.69604 0.72096 0.0
C366 C 0.82655 0.69338 0.75938 0.0
C367 C 0.80663 0.69239 0.78803 0.0
C368 C 0.85548 0.68718 0.76981 0.0
C369 C 0.83873 0.69839 0.6891 0.0
C370 C 0.86755 0.65863 0.75872 0.0
C371 C 0.89384 0.6509 0.77065 0.0
C372 C 0.90894 0.67162 0.79379 0.0
C373 C 0.89718 0.70072 0.8041 0.0
C374 C 0.87052 0.70829 0.79251 0.0
H375 H 0.82967 0.70921 0.66322 0.0
H376 H 0.8567 0.71252 0.69793 0.0
H377 H 0.84585 0.67432 0.68152 0.0
H378 H 0.85627 0.64178 0.74169 0.0
H379 H 0.90224 0.6283 0.76224 0.0
H380 H 0.91658 0.28673 0.24208 0.0
H381 H 0.8689 0.27357 0.25623 0.0
H382 H 0.84269 0.35705 0.19632 0.0
H383 H 0.88972 0.36992 0.18147 0.0
H384 H 0.83228 0.30949 0.29775 0.0
H385 H 0.79158 0.2914 0.15295 0.0
H386 H 0.82765 0.29133 0.16295 0.0
H387 H 0.80972 0.32803 0.15624 0.0
C388 C 0.90064 0.30183 0.23106 0.0
C389 C 0.90711 0.32931 0.21031 0.0
C390 C 0.87337 0.29439 0.23944 0.0
C391 C 0.85208 0.31402 0.22681 0.0
C392 C 0.85857 0.34107 0.20563 0.0
H393 H 0.69325 0.37532 0.26554 0.0
H394 H 0.7394 0.36181 0.24601 0.0
C395 C 0.88563 0.34856 0.19744 0.0
C396 C 0.82317 0.30809 0.23782 0.0
H397 H 0.75872 0.30701 0.20099 0.0
C398 C 0.81621 0.30809 0.27664 0.0
C399 C 0.80213 0.30614 0.21033 0.0
C400 C 0.80818 0.30388 0.16831 0.0
C401 C 0.78881 0.30858 0.28851 0.0
C402 C 0.76783 0.30885 0.26088 0.0
C403 C 0.77479 0.30695 0.22218 0.0
C404 C 0.73896 0.31527 0.27126 0.0
C405 C 0.78242 0.31087 0.33043 0.0
C406 C 0.72303 0.29329 0.29139 0.0
C407 C 0.69629 0.30091 0.3025 0.0
C408 C 0.6852 0.33074 0.29387 0.0
C409 C 0.70113 0.35222 0.27292 0.0
C410 C 0.72755 0.34452 0.26159 0.0
H411 H 0.80108 0.31318 0.3481 0.0
H412 H 0.76903 0.3315 0.33593 0.0
H413 H 0.77129 0.28937 0.33959 0.0
H414 H 0.73139 0.27047 0.29894 0.0
H415 H 0.68475 0.28392 0.31893 0.0
H416 H 0.89073 0.79238 0.31532 0.0
H417 H 0.8455 0.80331 0.29026 0.0
H418 H 0.86334 0.90305 0.28937 0.0
H419 H 0.90918 0.89215 0.31389 0.0
H420 H 0.80531 0.83662 0.32242 0.0
H421 H 0.83295 0.89043 0.18331 0.0
H422 H 0.85741 0.8699 0.21257 0.0
H423 H 0.84721 0.90944 0.22445 0.0
C424 C 0.88516 0.81668 0.3096 0.0
C425 C 0.90368 0.84135 0.31638 0.0
C426 C 0.85924 0.82289 0.29526 0.0
C427 C 0.85101 0.85397 0.28759 0.0
C428 C 0.86941 0.87881 0.29427 0.0
H429 H 0.67459 0.8747 0.24561 0.0
H430 H 0.71959 0.8848 0.27216 0.0
C431 C 0.89562 0.87254 0.3083 0.0
C432 C 0.82284 0.85976 0.27369 0.0
H433 H 0.78622 0.88617 0.19735 0.0
C434 C 0.80109 0.84771 0.2952 0.0
C435 C 0.81739 0.87415 0.23813 0.0
C436 C 0.83993 0.88652 0.21304 0.0
C437 C 0.77424 0.84834 0.28151 0.0
C438 C 0.76878 0.86239 0.24573 0.0
C439 C 0.79039 0.87561 0.22488 0.0
C440 C 0.74146 0.86031 0.22756 0.0
C441 C 0.7523 0.83227 0.30458 0.0
C442 C 0.73877 0.8447 0.19258 0.0
C443 C 0.71311 0.83951 0.17674 0.0
C444 C 0.68931 0.84967 0.1955 0.0
C445 C 0.69215 0.8666 0.22986 0.0
C446 C 0.718 0.87207 0.24552 0.0
H447 H 0.76095 0.81658 0.32687 0.0
H448 H 0.73971 0.85044 0.31899 0.0
H449 H 0.73879 0.81796 0.28602 0.0
H450 H 0.75654 0.8355 0.17804 0.0
H451 H 0.71198 0.82674 0.15007 0.0
H452 H 0.67494 0.12293 0.77374 0.0
H453 H 0.71981 0.11213 0.74746 0.0
H454 H 0.75705 0.16129 0.84148 0.0
H455 H 0.71265 0.17068 0.86923 0.0
H456 H 0.75503 0.15238 0.72178 0.0
H457 H 0.80603 0.08692 0.83697 0.0
H458 H 0.76972 0.09345 0.83672 0.0
H459 H 0.79249 0.12312 0.85528 0.0
C460 C 0.69252 0.13065 0.78971 0.0
C461 C 0.68976 0.14754 0.82412 0.0
C462 C 0.71834 0.12461 0.77431 0.0
C463 C 0.74199 0.13532 0.79277 0.0
C464 C 0.73931 0.15183 0.82718 0.0
H465 H 0.88848 0.20314 0.69437 0.0
H466 H 0.8433 0.19264 0.71991 0.0
C467 C 0.71366 0.15758 0.84278 0.0
C468 C 0.76924 0.13223 0.77452 0.0
H469 H 0.83593 0.11537 0.79362 0.0
C470 C 0.7726 0.14372 0.73731 0.0
C471 C 0.79224 0.12033 0.79425 0.0
C472 C 0.78985 0.10494 0.83284 0.0
C473 C 0.7984 0.14543 0.72027 0.0
C474 C 0.82169 0.13638 0.74142 0.0
C475 C 0.81819 0.12299 0.77766 0.0
C476 C 0.84976 0.14245 0.72728 0.0
C477 C 0.80039 0.15721 0.6798 0.0
C478 C 0.86907 0.11803 0.72468 0.0
C479 C 0.8953 0.12411 0.71062 0.0
C480 C 0.90261 0.15476 0.69893 0.0
C481 C 0.88341 0.17919 0.70258 0.0
C482 C 0.85745 0.17318 0.71696 0.0
H483 H 0.78138 0.15224 0.66373 0.0
H484 H 0.80335 0.18318 0.68003 0.0
H485 H 0.81774 0.14619 0.66449 0.0
H486 H 0.86368 0.09416 0.73281 0.0
H487 H 0.90949 0.10469 0.70786 0.0
H488 H 0.3858 0.13411 0.84154 0.0
H489 H 0.33954 0.14781 0.82367 0.0
H490 H 0.36933 0.22719 0.75908 0.0
H491 H 0.41624 0.21292 0.77581 0.0
H492 H 0.30827 0.20006 0.83488 0.0
H493 H 0.32468 0.18009 0.67982 0.0
H494 H 0.34938 0.16829 0.71507 0.0
H495 H 0.34608 0.20913 0.70209 0.0
C496 C 0.38271 0.15457 0.82355 0.0
C497 C 0.40501 0.17222 0.81004 0.0
C498 C 0.35609 0.16248 0.8135 0.0
C499 C 0.35084 0.18825 0.78954 0.0
C500 C 0.37286 0.20683 0.77705 0.0
H501 H 0.18428 0.21677 0.69532 0.0
H502 H 0.23067 0.23109 0.71592 0.0
C503 C 0.39972 0.19886 0.78711 0.0
C504 C 0.32225 0.19435 0.77716 0.0
H505 H 0.27992 0.18955 0.69993 0.0
C506 C 0.30217 0.19833 0.80527 0.0
C507 C 0.31415 0.19214 0.73849 0.0
C508 C 0.33458 0.18696 0.70703 0.0
C509 C 0.27431 0.19856 0.79605 0.0
C510 C 0.26622 0.19465 0.75773 0.0
C511 C 0.28622 0.19266 0.72929 0.0
C512 C 0.23743 0.1879 0.74743 0.0
C513 C 0.25364 0.20176 0.82754 0.0
C514 C 0.2259 0.15902 0.75839 0.0
C515 C 0.19975 0.15074 0.74647 0.0
C516 C 0.1843 0.17125 0.72356 0.0
C517 C 0.19551 0.20067 0.71341 0.0
C518 C 0.22204 0.20878 0.72495 0.0
H519 H 0.26265 0.21272 0.85338 0.0
H520 H 0.23599 0.21618 0.8181 0.0
H521 H 0.24601 0.17797 0.83539 0.0
H522 H 0.2375 0.1424 0.77534 0.0
H523 H 0.19174 0.12792 0.75476 0.0
H524 H 0.2103 0.84433 0.36593 0.0
H525 H 0.25569 0.83462 0.34034 0.0
H526 H 0.22049 0.79079 0.24117 0.0
H527 H 0.17462 0.80044 0.2667 0.0
H528 H 0.27264 0.76122 0.27427 0.0
H529 H 0.27772 0.89008 0.24522 0.0
H530 H 0.26819 0.87956 0.29297 0.0
H531 H 0.24601 0.86982 0.25403 0.0
C532 C 0.21212 0.83212 0.33895 0.0
C533 C 0.18874 0.82338 0.31829 0.0
C534 C 0.23813 0.82654 0.32441 0.0
C535 C 0.24147 0.81232 0.28869 0.0
C536 C 0.21833 0.80176 0.26887 0.0
H537 H 0.384 0.84611 0.1505 0.0
H538 H 0.33791 0.83536 0.17274 0.0
C539 C 0.19212 0.80721 0.28356 0.0
C540 C 0.2689 0.81177 0.27076 0.0
H541 H 0.31829 0.86102 0.23693 0.0
C542 C 0.28263 0.78295 0.26583 0.0
C543 C 0.28179 0.84013 0.25952 0.0
C544 C 0.26767 0.87168 0.26284 0.0
C545 C 0.3092 0.78192 0.25058 0.0
C546 C 0.32237 0.81046 0.24039 0.0
C547 C 0.30833 0.83912 0.24483 0.0
C548 C 0.35049 0.8117 0.22442 0.0
C549 C 0.3228 0.75034 0.24506 0.0
C550 C 0.37313 0.80118 0.24547 0.0
C551 C 0.39974 0.80709 0.23253 0.0
C552 C 0.40409 0.824 0.19857 0.0
C553 C 0.38137 0.83316 0.17686 0.0
C554 C 0.35496 0.82701 0.18954 0.0
H555 H 0.30776 0.73074 0.24478 0.0
H556 H 0.33455 0.74982 0.21806 0.0
H557 H 0.33717 0.74612 0.26891 0.0
H558 H 0.3703 0.78988 0.27284 0.0
H559 H 0.41678 0.80015 0.25023 0.0
H560 H 0.0222 0.70462 0.31062 0.0
H561 H 0.02715 0.64828 0.29775 0.0
H562 H 0.11186 0.65295 0.32949 0.0
H563 H 0.10719 0.7096 0.34218 0.0
H564 H 0.10221 0.62345 0.25873 0.0
H565 H 0.03588 0.57393 0.37182 0.0
H566 H 0.01999 0.60415 0.34364 0.0
H567 H 0.04865 0.6139 0.37323 0.0
C568 C 0.04183 0.69364 0.31539 0.0
C569 C 0.06432 0.71163 0.32742 0.0
C570 C 0.04457 0.66137 0.30815 0.0
C571 C 0.0698 0.6464 0.31299 0.0
C572 C 0.09219 0.66409 0.32571 0.0
H573 H 0.09935 0.44481 0.30356 0.0
H574 H 0.09637 0.5004 0.3214 0.0
C575 C 0.08946 0.69641 0.33306 0.0
C576 C 0.07308 0.61268 0.30267 0.0
H577 H 0.0497 0.53862 0.32273 0.0
C578 C 0.09087 0.60485 0.27285 0.0
C579 C 0.05836 0.5885 0.32129 0.0
C580 C 0.03982 0.59541 0.35451 0.0
C581 C 0.09397 0.57347 0.26067 0.0
C582 C 0.07862 0.54941 0.27853 0.0
C583 C 0.06122 0.55718 0.30883 0.0
C584 C 0.08082 0.51587 0.2669 0.0
C585 C 0.11387 0.56625 0.22913 0.0
C586 C 0.07292 0.50611 0.23031 0.0
C587 C 0.07458 0.47425 0.21994 0.0
C588 C 0.0841 0.45164 0.24608 0.0
C589 C 0.09198 0.46158 0.28268 0.0
C590 C 0.09025 0.49335 0.293 0.0
H591 H 0.12852 0.58589 0.22466 0.0
H592 H 0.12546 0.54434 0.23539 0.0
H593 H 0.10251 0.56258 0.20218 0.0
H594 H 0.06516 0.52308 0.20994 0.0
H595 H 0.06827 0.46734 0.19158 0.0
H596 H 0.57091 0.29807 0.84004 0.0
H597 H 0.56855 0.35393 0.82307 0.0
H598 H 0.48235 0.3449 0.80232 0.0
H599 H 0.48443 0.28909 0.82011 0.0
H600 H 0.55432 0.37614 0.7536 0.0
H601 H 0.48504 0.42607 0.86292 0.0
H602 H 0.50061 0.38767 0.86786 0.0
H603 H 0.47117 0.39274 0.83801 0.0
C604 C 0.55133 0.30809 0.83259 0.0
C605 C 0.52787 0.28912 0.83138 0.0
C606 C 0.55003 0.34003 0.82281 0.0
C607 C 0.52526 0.35371 0.81162 0.0
C608 C 0.50159 0.33508 0.81157 0.0
H609 H 0.48876 0.5373 0.70928 0.0
H610 H 0.48667 0.48215 0.73052 0.0
C611 C 0.50284 0.30311 0.82164 0.0
C612 C 0.52479 0.38668 0.79715 0.0
H613 H 0.49625 0.45944 0.81073 0.0
C614 C 0.54169 0.39435 0.76623 0.0
C615 C 0.50816 0.41041 0.81345 0.0
C616 C 0.4904 0.40396 0.84761 0.0
C617 C 0.54244 0.42504 0.7512 0.0
C618 C 0.52598 0.44874 0.76763 0.0
C619 C 0.50878 0.4411 0.79816 0.0
C620 C 0.52725 0.48191 0.75438 0.0
C621 C 0.5607 0.43191 0.71767 0.0
C622 C 0.55074 0.49993 0.76088 0.0
C623 C 0.55197 0.53138 0.749 0.0
C624 C 0.52973 0.54541 0.73028 0.0
C625 C 0.50626 0.52718 0.72353 0.0
C626 C 0.50498 0.49573 0.73572 0.0
H627 H 0.56766 0.40994 0.70338 0.0
H628 H 0.55003 0.44695 0.69648 0.0
H629 H 0.57894 0.44497 0.72767 0.0
H630 H 0.56805 0.48972 0.77552 0.0
H631 H 0.57034 0.54472 0.75467 0.0
H632 H 0.10633 0.53854 0.80487 0.0
H633 H 0.10931 0.48435 0.78086 0.0
H634 H 0.02302 0.48474 0.75818 0.0
H635 H 0.01992 0.53898 0.78137 0.0
H636 H 0.08419 0.42977 0.80413 0.0
H637 H 0.05401 0.45806 0.656 0.0
H638 H 0.06333 0.48811 0.69003 0.0
H639 H 0.02967 0.47135 0.69054 0.0
C640 C 0.08797 0.52707 0.79481 0.0
C641 C 0.06293 0.5432 0.79466 0.0
C642 C 0.08973 0.49612 0.78106 0.0
C643 C 0.06651 0.48078 0.76687 0.0
C644 C 0.04134 0.49644 0.76796 0.0
H645 H 0.02033 0.29595 0.69348 0.0
H646 H 0.02402 0.35178 0.71026 0.0
C647 C 0.03958 0.52739 0.78152 0.0
C648 C 0.06845 0.44823 0.75143 0.0
H649 H 0.05405 0.40339 0.67306 0.0
C650 C 0.07793 0.42404 0.77533 0.0
C651 C 0.06037 0.44083 0.71375 0.0
C652 C 0.05154 0.466 0.68596 0.0
C653 C 0.07853 0.39247 0.76307 0.0
C654 C 0.06969 0.38502 0.72581 0.0
C655 C 0.06078 0.40924 0.70162 0.0
C656 C 0.06801 0.35194 0.71234 0.0
C657 C 0.08766 0.36714 0.79046 0.0
C658 C 0.09161 0.33382 0.70679 0.0
C659 C 0.08959 0.30187 0.69696 0.0
C660 C 0.06392 0.28756 0.69271 0.0
C661 C 0.0404 0.3062 0.69674 0.0
C662 C 0.04245 0.33811 0.70631 0.0
H663 H 0.08961 0.37617 0.82004 0.0
H664 H 0.07308 0.3471 0.79037 0.0
H665 H 0.10779 0.35796 0.78136 0.0
H666 H 0.11154 0.34424 0.71085 0.0
H667 H 0.10809 0.28816 0.69403 0.0
H668 H 0.48422 0.70987 0.17712 0.0
H669 H 0.47899 0.65343 0.19085 0.0
H670 H 0.56407 0.64755 0.22027 0.0
H671 H 0.56958 0.70365 0.20627 0.0
H672 H 0.5459 0.59705 0.17544 0.0
H673 H 0.47839 0.61758 0.29999 0.0
H674 H 0.46709 0.6352 0.2562 0.0
H675 H 0.49798 0.64877 0.27815 0.0
C676 C 0.50187 0.69649 0.18616 0.0
C677 C 0.52727 0.71133 0.1909 0.0
C678 C 0.4988 0.66431 0.19426 0.0
C679 C 0.52103 0.64647 0.20728 0.0
C680 C 0.54661 0.66093 0.21051 0.0
H681 H 0.52386 0.46683 0.32647 0.0
H682 H 0.52736 0.5224 0.30762 0.0
C683 C 0.5497 0.69304 0.20248 0.0
C684 C 0.51773 0.61288 0.21832 0.0
H685 H 0.4862 0.56442 0.28241 0.0
C686 C 0.53279 0.58988 0.19875 0.0
C687 C 0.50096 0.60369 0.24917 0.0
C688 C 0.48533 0.62756 0.27239 0.0
C689 C 0.53135 0.55786 0.20895 0.0
C690 C 0.51411 0.54858 0.23922 0.0
C691 C 0.49924 0.5716 0.25904 0.0
C692 C 0.5114 0.51506 0.25088 0.0
C693 C 0.54873 0.53431 0.18776 0.0
C694 C 0.50081 0.49267 0.22547 0.0
C695 C 0.49878 0.46097 0.23611 0.0
C696 C 0.50721 0.45103 0.27249 0.0
C697 C 0.5173 0.47365 0.2982 0.0
C698 C 0.51929 0.50542 0.2875 0.0
H699 H 0.56558 0.54601 0.17206 0.0
H700 H 0.55756 0.51663 0.20758 0.0
H701 H 0.53593 0.52157 0.16674 0.0
H702 H 0.49411 0.49972 0.19734 0.0
H703 H 0.49076 0.44424 0.21567 0.0
H704 H 0.60668 0.96109 0.20948 0.0
H705 H 0.61078 0.01493 0.23437 0.0
H706 H 0.52553 0.0145 0.26362 0.0
H707 H 0.5213 0.96068 0.23942 0.0
H708 H 0.58413 0.07033 0.21444 0.0
H709 H 0.56157 0.03849 0.3642 0.0
H710 H 0.56965 0.00934 0.32844 0.0
H711 H 0.53585 0.02554 0.33143 0.0
C712 C 0.58878 0.97248 0.22115 0.0
C713 C 0.56372 0.95645 0.22287 0.0
C714 C 0.59118 0.00323 0.23538 0.0
C715 C 0.56862 0.0184 0.2517 0.0
C716 C 0.54338 0.0029 0.25212 0.0
H717 H 0.52451 0.20015 0.3367 0.0
H718 H 0.5283 0.14462 0.31862 0.0
C719 C 0.54096 0.9722 0.23798 0.0
C720 C 0.57127 0.05059 0.26796 0.0
H721 H 0.56061 0.09348 0.349 0.0
C722 C 0.57933 0.07538 0.24397 0.0
C723 C 0.56511 0.05705 0.30657 0.0
C724 C 0.55782 0.03116 0.33428 0.0
C725 C 0.58025 0.10668 0.25713 0.0
C726 C 0.5733 0.11323 0.29542 0.0
C727 C 0.5659 0.08835 0.31966 0.0
C728 C 0.57188 0.14599 0.31006 0.0
C729 C 0.5876 0.13268 0.2296 0.0
C730 C 0.59531 0.16485 0.31257 0.0
C731 C 0.59325 0.19665 0.32307 0.0
C732 C 0.56768 0.21007 0.33111 0.0
C733 C 0.54448 0.19062 0.33044 0.0
C734 C 0.54659 0.15887 0.32013 0.0
H735 H 0.58758 0.12437 0.19959 0.0
H736 H 0.57316 0.15274 0.23223 0.0
H737 H 0.60829 0.14159 0.23637 0.0
H738 H 0.61509 0.15516 0.30552 0.0
H739 H 0.61152 0.21097 0.32341 0.0
H740 H 0.07137 0.79903 0.83719 0.0
H741 H 0.06753 0.85476 0.82027 0.0
H742 H 0.98043 0.84505 0.8106 0.0
H743 H 0.98406 0.78903 0.8274 0.0
H744 H 1.00647 0.87188 0.74578 0.0
H745 H 0.03815 0.93171 0.87908 0.0
H746 H 0.06094 0.90106 0.86383 0.0
H747 H 0.02683 0.89113 0.87798 0.0
C748 C 0.05132 0.80883 0.83216 0.0
C749 C 0.02802 0.78956 0.83354 0.0
C750 C 0.04916 0.84075 0.82265 0.0
C751 C 0.02368 0.85407 0.81444 0.0
C752 C 1.00027 0.83521 0.817 0.0
H753 H 0.98433 0.03896 0.71607 0.0
H754 H 0.98121 0.98488 0.74031 0.0
C755 C 1.00238 0.80325 0.82674 0.0
C756 C 0.02193 0.88695 0.80018 0.0
H757 H 0.03778 0.96315 0.8227 0.0
C758 C 0.01297 0.89194 0.76269 0.0
C759 C 0.03058 0.91296 0.82229 0.0
C760 C 0.03945 0.90909 0.86316 0.0
C761 C 0.0134 0.92216 0.74621 0.0
C762 C 0.02252 0.94812 0.76812 0.0
C763 C 0.0309 0.94319 0.8059 0.0
C764 C 0.0243 0.98049 0.75216 0.0
C765 C 1.0051 0.9258 0.70506 0.0
C766 C 0.04948 0.9961 0.75114 0.0
C767 C 0.0513 0.02704 0.73758 0.0
C768 C 0.02793 0.04306 0.72489 0.0
C769 C 1.00275 0.02723 0.72545 0.0
C770 C 1.00094 0.99627 0.73916 0.0
H771 H 1.00517 0.90283 0.68977 0.0
H772 H 0.98415 0.93554 0.70372 0.0
H773 H 0.01888 0.94237 0.68993 0.0
H774 H 0.06776 0.98436 0.76105 0.0
H775 H 0.07101 0.03851 0.73753 0.0
H776 H 0.61014 0.78885 0.69321 0.0
H777 H 0.61369 0.84477 0.71063 0.0
H778 H 0.52695 0.8553 0.69702 0.0
H779 H 0.52315 0.7996 0.67958 0.0
H780 H 0.56116 0.90623 0.66536 0.0
H781 H 0.58409 0.87631 0.81645 0.0
H782 H 0.60473 0.85783 0.78047 0.0
H783 H 0.56926 0.84814 0.7839 0.0
C784 C 0.59188 0.80319 0.69333 0.0
C785 C 0.56632 0.78973 0.68533 0.0
C786 C 0.59394 0.83505 0.70352 0.0
C787 C 0.57052 0.85394 0.70568 0.0
C788 C 0.54522 0.84101 0.69573 0.0
H789 H 0.52166 0.04168 0.76966 0.0
H790 H 0.52547 0.98758 0.74627 0.0
C791 C 0.54311 0.80918 0.68578 0.0
C792 C 0.57197 0.8868 0.71989 0.0
H793 H 0.58125 0.93021 0.80081 0.0
C794 C 0.5657 0.91156 0.6949 0.0
C795 C 0.57798 0.89356 0.75843 0.0
C796 C 0.58425 0.86765 0.78659 0.0
C797 C 0.56515 0.94302 0.70748 0.0
C798 C 0.5703 0.94974 0.74633 0.0
C799 C 0.5772 0.925 0.77111 0.0
C800 C 0.56782 0.98216 0.762 0.0
C801 C 0.55927 0.96877 0.67892 0.0
C802 C 0.59 0.99659 0.78026 0.0
C803 C 0.58779 0.02746 0.79414 0.0
C804 C 0.56332 0.0444 0.79004 0.0
C805 C 0.54089 0.02945 0.77289 0.0
C806 C 0.54309 0.99859 0.75922 0.0
H807 H 0.5641 0.96107 0.64944 0.0
H808 H 0.53729 0.97473 0.67995 0.0
H809 H 0.57112 0.99046 0.68534 0.0
H810 H 0.60918 0.98419 0.78312 0.0
H811 H 0.6054 0.03825 0.80739 0.0
H812 H 0.97925 0.21025 0.18015 0.0
H813 H 0.97173 0.15427 0.19436 0.0
H814 H 0.05827 0.14065 0.2069 0.0
H815 H 0.06603 0.19622 0.19215 0.0
H816 H 0.03333 0.09201 0.16776 0.0
H817 H 0.97876 0.11884 0.30253 0.0
H818 H 0.96438 0.13668 0.2607 0.0
H819 H 0.99769 0.14832 0.27654 0.0
C820 C 0.9967 0.19524 0.18545 0.0
C821 C 0.02323 0.20777 0.1854 0.0
C822 C 0.99234 0.16333 0.19388 0.0
C823 C 0.0144 0.1435 0.20255 0.0
C824 C 0.04094 0.1556 0.20061 0.0
H825 H 0.01992 0.96654 0.32584 0.0
H826 H 0.02229 0.02178 0.30526 0.0
C827 C 0.04533 0.18741 0.19215 0.0
C828 C 0.01004 0.11035 0.2147 0.0
H829 H 0.98203 0.06506 0.28505 0.0
C830 C 0.02202 0.08608 0.19331 0.0
C831 C 0.99567 0.10277 0.24843 0.0
C832 C 0.98357 0.12798 0.27365 0.0
C833 C 0.01998 0.05438 0.20464 0.0
C834 C 1.00511 0.04673 0.23791 0.0
C835 C 0.9932 0.071 0.2594 0.0
C836 C 1.00223 0.01367 0.25125 0.0
C837 C 0.03441 0.02948 0.18144 0.0
C838 C 0.9895 0.99103 0.22819 0.0
C839 C 0.98821 0.95952 0.23976 0.0
C840 C 0.99943 0.95006 0.27482 0.0
C841 C 0.0112 0.97303 0.29861 0.0
C842 C 0.01256 0.00459 0.2869 0.0
H843 H 0.05045 0.03987 0.16299 0.0
H844 H 0.04391 0.01144 0.20014 0.0
H845 H 0.01944 0.01744 0.16276 0.0
H846 H 0.98081 0.99768 0.201 0.0
H847 H 0.97875 0.94251 0.22092 0.0
H848 H 0.98549 0.32165 0.06932 0.0
H849 H 0.97802 0.2865 0.01508 0.0
H850 H 0.04669 0.23005 0.05021 0.0
H851 H 0.05336 0.26453 0.10511 0.0
H852 H 0.01555 0.28706 0.96283 0.0
H853 H 1.00033 0.16244 1.00411 0.0
H854 H 0.99554 0.19459 0.03724 0.0
H855 H 0.02913 0.17936 0.02792 0.0
C856 C 0.99777 0.30048 0.06682 0.0
C857 C 0.01962 0.29539 0.09179 0.0
C858 C 0.99377 0.28062 0.03549 0.0
C859 C 0.01186 0.25559 0.02821 0.0
C860 C 0.03205 0.24867 0.05536 0.0
H861 H 0.07319 0.20952 0.80483 0.0
H862 H 0.06573 0.22684 0.87034 0.0
C863 C 0.03576 0.26831 0.08706 0.0
C864 C 0.01304 0.24125 0.98941 0.0
H865 H 0.01818 0.17147 0.94081 0.0
C866 C 0.01568 0.26175 0.95813 0.0
C867 C 0.01326 0.20824 0.98292 0.0
C868 C 0.00913 0.18491 0.01483 0.0
C869 C 0.0192 0.25033 0.92095 0.0
C870 C 0.02087 0.21739 0.91469 0.0
C871 C 0.01735 0.19674 0.94566 0.0
C872 C 0.02642 0.20427 0.87612 0.0
C873 C 0.02103 0.27378 0.88867 0.0
C874 C 1.00733 0.18471 0.858 0.0
C875 C 0.01162 0.17452 0.8205 0.0
C876 C 0.03516 0.18364 0.80035 0.0
C877 C 0.05471 0.20226 0.8192 0.0
C878 C 0.05044 0.2123 0.85668 0.0
H879 H 0.01174 0.29683 0.89645 0.0
H880 H 0.04275 0.27806 0.88173 0.0
H881 H 0.01073 0.26472 0.86272 0.0
H882 H 0.98872 0.17808 0.87248 0.0
H883 H 0.99616 0.16011 0.80702 0.0
H884 H 0.53818 0.73288 0.60455 0.0
H885 H 0.54162 0.76782 0.54929 0.0
H886 H 0.6116 0.71576 0.51006 0.0
H887 H 0.60773 0.68037 0.56491 0.0
H888 H 0.57905 0.80546 0.50588 0.0
H889 H 0.55107 0.69339 0.43365 0.0
H890 H 0.55101 0.69749 0.48473 0.0
H891 H 0.58252 0.69169 0.45962 0.0
C892 C 0.55538 0.73021 0.58552 0.0
C893 C 0.57293 0.7042 0.58928 0.0
C894 C 0.55708 0.74992 0.55353 0.0
C895 C 0.57641 0.74386 0.52497 0.0
C896 C 0.59622 0.72053 0.53139 0.0
H897 H 0.59259 0.83893 0.30461 0.0
H898 H 0.59882 0.82165 0.37042 0.0
C899 C 0.5943 0.70063 0.5631 0.0
C900 C 0.57292 0.75784 0.48634 0.0
H901 H 0.55787 0.73774 0.39445 0.0
C902 C 0.57453 0.79071 0.48144 0.0
C903 C 0.56627 0.73864 0.4546 0.0
C904 C 0.56233 0.70339 0.4583 0.0
C905 C 0.57013 0.80478 0.44555 0.0
C906 C 0.56432 0.78542 0.41363 0.0
C907 C 0.56247 0.75262 0.41876 0.0
C908 C 0.55973 0.79833 0.37459 0.0
C909 C 0.57103 0.84028 0.44241 0.0
C910 C 0.53583 0.79071 0.35457 0.0
C911 C 0.53233 0.8002 0.31668 0.0
C912 C 0.55269 0.81757 0.29781 0.0
C913 C 0.57637 0.82577 0.3182 0.0
C914 C 0.57991 0.81609 0.35605 0.0
H915 H 0.56782 0.85179 0.47049 0.0
H916 H 0.59134 0.84756 0.43173 0.0
H917 H 0.55538 0.84909 0.42222 0.0
H918 H 0.51997 0.77692 0.36812 0.0
H919 H 0.51383 0.79343 0.30201 0.0
H920 H 1.0023 0.83985 0.21175 0.0
H921 H 0.99569 0.82165 0.14635 0.0
H922 H 0.07299 0.77358 0.1503 0.0
H923 H 0.07964 0.79119 0.21596 0.0
H924 H 0.02521 0.82761 0.07827 0.0
H925 H 0.01947 0.70278 0.12531 0.0
H926 H 0.0183 0.73536 0.15835 0.0
H927 H 0.05036 0.72222 0.13931 0.0
C928 C 0.01807 0.82564 0.19869 0.0
C929 C 0.04141 0.81672 0.21945 0.0
C930 C 0.01424 0.8153 0.16118 0.0
C931 C 0.03359 0.79578 0.1436 0.0
C932 C 0.05751 0.7881 0.16354 0.0
H933 H 0.05452 0.73107 0.91367 0.0
H934 H 0.05067 0.76634 0.96838 0.0
C935 C 0.06133 0.79832 0.20109 0.0
C936 C 0.02814 0.78208 0.10528 0.0
H937 H 0.02154 0.71174 0.05883 0.0
C938 C 0.02424 0.80228 0.07397 0.0
C939 C 0.0263 0.74905 0.09977 0.0
C940 C 0.02855 0.72606 0.1325 0.0
C941 C 0.01937 0.79027 0.03714 0.0
C942 C 0.01871 0.75717 0.03142 0.0
C943 C 0.02198 0.73712 0.063 0.0
C944 C 0.01601 0.74226 0.99309 0.0
C945 C 0.01476 0.81313 1.00487 0.0
C946 C 0.99708 0.71778 0.9875 0.0
C947 C 0.99941 0.69751 0.95622 0.0
C948 C 0.02043 0.70162 0.92965 0.0
C949 C 0.03748 0.72811 0.93291 0.0
C950 C 0.03541 0.74817 0.96452 0.0
H951 H 1.00683 0.83609 0.01543 0.0
H952 H 0.03444 0.81776 0.99037 0.0
H953 H 1.00026 0.80346 0.9836 0.0
H954 H 0.98191 0.71269 1.00904 0.0
H955 H 0.98647 0.67682 0.95485 0.0
H956 H 0.6092 0.32006 0.44717 0.0
H957 H 0.61692 0.28509 0.50154 0.0
H958 H 0.5465 0.23035 0.46943 0.0
H959 H 0.53952 0.26465 0.41453 0.0
H960 H 0.58047 0.2871 0.5551 0.0
H961 H 0.59189 0.16176 0.51495 0.0
H962 H 0.59686 0.19343 0.48122 0.0
H963 H 0.5631 0.17926 0.49173 0.0
C964 C 0.59658 0.29923 0.45028 0.0
C965 C 0.57416 0.29461 0.42617 0.0
C966 C 0.60072 0.27948 0.48173 0.0
C967 C 0.58224 0.25503 0.48994 0.0
C968 C 0.56145 0.24849 0.46355 0.0
H969 H 0.52065 0.2128 0.71376 0.0
H970 H 0.52891 0.2297 0.6483 0.0
C971 C 0.55757 0.26801 0.43179 0.0
C972 C 0.58134 0.24103 0.52897 0.0
H973 H 0.57454 0.17185 0.57843 0.0
C974 C 0.57965 0.26184 0.56008 0.0
C975 C 0.58024 0.2081 0.53586 0.0
C976 C 0.58341 0.18437 0.50415 0.0
C977 C 0.57609 0.25083 0.59744 0.0
C978 C 0.57343 0.21803 0.60409 0.0
C979 C 0.57613 0.19703 0.5733 0.0
C980 C 0.56748 0.20543 0.64282 0.0
C981 C 0.5752 0.27456 0.6295 0.0
C982 C 0.58588 0.18512 0.66116 0.0
C983 C 0.58113 0.17519 0.69867 0.0
C984 C 0.5578 0.1853 0.71861 0.0
C985 C 0.53895 0.20475 0.69958 0.0
C986 C 0.54369 0.21456 0.6621 0.0
H987 H 0.58521 0.29711 0.6214 0.0
H988 H 0.55366 0.27986 0.63656 0.0
H989 H 0.58529 0.26521 0.65545 0.0
H990 H 0.6043 0.17764 0.64681 0.0
H991 H 0.59605 0.16012 0.71228 0.0
H992 H 0.54326 0.76349 0.11157 0.0
H993 H 0.53618 0.72523 0.06021 0.0
H994 H 0.48892 0.79429 0.99868 0.0
H995 H 0.4944 0.83146 0.05107 0.0
H996 H 0.47284 0.73686 0.97909 0.0
H997 H 0.58586 0.7428 0.97272 0.0
H998 H 0.57255 0.72525 0.01529 0.0
H999 H 0.56636 0.76636 1.00549 0.0
C1000 C 0.5297 0.76959 0.08843 0.0
C1001 C 0.51901 0.80024 0.08558 0.0
C1002 C 0.52632 0.74804 0.05845 0.0
C1003 C 0.51294 0.75728 0.02479 0.0
C1004 C 0.49957 0.78658 0.02405 0.0
H1005 H 0.55835 0.72902 0.79363 0.0
H1006 H 0.55077 0.74432 0.85972 0.0
C1007 C 0.50256 0.80782 0.05418 0.0
C1008 C 0.51608 0.73926 0.98852 0.0
H1009 H 0.56386 0.7162 0.9234 0.0
C1010 C 0.49274 0.73197 0.96707 0.0
C1011 C 0.54209 0.73342 0.9724 0.0
C1012 C 0.56816 0.74258 0.99241 0.0
C1013 C 0.49464 0.72012 0.92968 0.0
C1014 C 0.52066 0.71443 0.91362 0.0
C1015 C 0.54393 0.72051 0.93566 0.0
C1016 C 0.52453 0.70473 0.87311 0.0
C1017 C 0.46879 0.71554 0.90712 0.0
C1018 C 0.51244 0.67725 0.85833 0.0
C1019 C 0.51643 0.66868 0.82015 0.0
C1020 C 0.53309 0.68704 0.79619 0.0
C1021 C 0.54551 0.71423 0.81125 0.0
C1022 C 0.54117 0.72301 0.84914 0.0
H1023 H 0.45139 0.72856 0.91985 0.0
H1024 H 0.4714 0.72357 0.87724 0.0
H1025 H 0.46348 0.69008 0.90676 0.0
H1026 H 0.50013 0.66222 0.87635 0.0
H1027 H 0.50679 0.64742 0.80955 0.0
H1028 H 0.04979 0.23322 0.61377 0.0
H1029 H 0.05651 0.27058 0.56145 0.0
H1030 H 0.10641 0.20203 0.50333 0.0
H1031 H 0.10131 0.16582 0.5568 0.0
H1032 H 0.12105 0.25974 0.48219 0.0
H1033 H 1.00842 0.24891 0.47343 0.0
H1034 H 0.02051 0.26782 0.51587 0.0
H1035 H 0.02828 0.22688 0.50733 0.0
C1036 C 0.06387 0.22714 0.59127 0.0
C1037 C 0.07541 0.19684 0.5897 0.0
C1038 C 0.06703 0.24813 0.56068 0.0
C1039 C 0.08106 0.23865 0.52766 0.0
C1040 C 0.09524 0.20987 0.52819 0.0
H1041 H 0.03657 0.26573 0.29479 0.0
H1042 H 0.04433 0.24963 0.36061 0.0
C1043 C 0.09248 0.18921 0.55896 0.0
C1044 C 0.07781 0.25579 0.49079 0.0
H1045 H 0.03006 0.27646 0.42443 0.0
C1046 C 0.10115 0.26373 0.46969 0.0
C1047 C 0.05182 0.26037 0.47402 0.0
C1048 C 0.02583 0.25032 0.49358 0.0
C1049 C 0.09928 0.27526 0.43215 0.0
C1050 C 0.07328 0.27993 0.41554 0.0
C1051 C 0.04998 0.27297 0.43711 0.0
C1052 C 0.06953 0.28986 0.37508 0.0
C1053 C 0.12522 0.28072 0.41009 0.0
C1054 C 0.08103 0.31791 0.36099 0.0
C1055 C 0.07695 0.32694 0.323 0.0
C1056 C 0.06077 0.30847 0.2985 0.0
C1057 C 0.04904 0.28061 0.31283 0.0
C1058 C 0.05347 0.27138 0.35056 0.0
H1059 H 0.14276 0.26807 0.423 0.0
H1060 H 0.12305 0.27287 0.38008 0.0
H1061 H 0.13004 0.30631 0.41014 0.0
H1062 H 0.09286 0.33309 0.37945 0.0
H1063 H 0.08608 0.34869 0.31303 0.0
H1064 H 0.55162 0.23306 0.91463 0.0
H1065 H 0.54474 0.26651 0.97055 0.0
H1066 H 0.47596 0.2095 1.00352 0.0
H1067 H 0.48343 0.17546 0.94813 0.0
H1068 H 0.50536 0.30087 0.0128 0.0
H1069 H 0.53418 0.18804 0.08283 0.0
H1070 H 0.53551 0.1933 0.03196 0.0
H1071 H 0.50349 0.18603 0.05519 0.0
C1072 C 0.53398 0.22891 0.93245 0.0
C1073 C 0.51786 0.2019 0.9269 0.0
C1074 C 0.53027 0.2478 0.96478 0.0
C1075 C 0.51034 0.23994 0.99184 0.0
C1076 C 0.49183 0.21562 0.98342 0.0
H1077 H 0.49304 0.33159 0.21584 0.0
H1078 H 0.48508 0.31424 0.15028 0.0
C1079 C 0.49579 0.19648 0.95142 0.0
C1080 C 0.51215 0.25303 0.03111 0.0
H1081 H 0.52621 0.23144 0.1228 0.0
C1082 C 0.50972 0.28573 0.03695 0.0
C1083 C 0.51854 0.23332 0.0625 0.0
C1084 C 0.52336 0.19828 0.05793 0.0
C1085 C 0.51339 0.29917 0.07333 0.0
C1086 C 0.51926 0.27931 0.10476 0.0
C1087 C 0.52156 0.24666 0.09882 0.0
C1088 C 0.52434 0.29164 0.14388 0.0
C1089 C 0.51187 0.33457 0.07751 0.0
C1090 C 0.54884 0.28429 0.16253 0.0
C1091 C 0.55331 0.29376 0.20016 0.0
C1092 C 0.53336 0.31089 0.22016 0.0
C1093 C 0.50892 0.31858 0.2013 0.0
C1094 C 0.50441 0.30889 0.16364 0.0
H1095 H 0.51428 0.34676 0.04969 0.0
H1096 H 0.49169 0.34111 0.08932 0.0
H1097 H 0.52779 0.34334 0.09732 0.0
H1098 H 0.56452 0.27093 0.148 0.0
H1099 H 0.57239 0.28745 0.21361 0.0
H1100 H 0.04835 0.76287 0.40592 0.0
H1101 H 0.05574 0.72472 0.4573 0.0
H1102 H 0.10224 0.79442 0.51893 0.0
H1103 H 0.09649 0.8315 0.46646 0.0
H1104 H 0.11883 0.73697 0.53847 0.0
H1105 H 1.00578 0.74201 0.54467 0.0
H1106 H 0.01921 0.72463 0.50208 0.0
H1107 H 0.02518 0.76576 0.51198 0.0
C1108 C 0.06186 0.76914 0.42905 0.0
C1109 C 0.07229 0.79991 0.43188 0.0
C1110 C 0.0654 0.74765 0.45906 0.0
C1111 C 0.07864 0.75709 0.49274 0.0
C1112 C 0.09171 0.78656 0.49352 0.0
H1113 H 0.03359 0.72785 0.72392 0.0
H1114 H 0.04089 0.74335 0.65784 0.0
C1115 C 0.08858 0.80774 0.46334 0.0
C1116 C 0.07559 0.73903 0.52898 0.0
H1117 H 0.02789 0.71537 0.5939 0.0
C1118 C 0.09895 0.73188 0.55044 0.0
C1119 C 0.0496 0.73294 0.54502 0.0
C1120 C 0.02349 0.74195 0.525 0.0
C1121 C 0.09709 0.71986 0.58775 0.0
C1122 C 0.07109 0.71388 0.60372 0.0
C1123 C 0.0478 0.71987 0.5817 0.0
C1124 C 0.06725 0.70396 0.64415 0.0
C1125 C 0.12294 0.71539 0.61033 0.0
C1126 C 0.07947 0.67648 0.65871 0.0
C1127 C 0.07563 0.66778 0.69687 0.0
C1128 C 0.05901 0.68601 0.72104 0.0
C1129 C 0.04642 0.71315 0.70615 0.0
C1130 C 0.05059 0.72207 0.66827 0.0
H1131 H 0.14028 0.72858 0.59769 0.0
H1132 H 0.12026 0.7233 0.64024 0.0
H1133 H 0.12839 0.68997 0.61059 0.0
H1134 H 0.0918 0.66159 0.64055 0.0
H1135 H 0.08543 0.64656 0.70732 0.0
H1136 H 0.03964 0.42221 0.13037 0.0
H1137 H 0.05224 0.4687 0.093 0.0
H1138 H 0.11772 0.41609 0.04107 0.0
H1139 H 0.10369 0.36895 0.07653 0.0
H1140 H 0.09167 0.50708 0.07821 0.0
H1141 H 0.0746 0.43452 0.94873 0.0
H1142 H 0.0681 0.41966 0.99584 0.0
H1143 H 0.10234 0.42089 0.9775 0.0
C1144 C 0.05733 0.421 0.11198 0.0
C1145 C 0.07081 0.39222 0.10634 0.0
C1146 C 0.06444 0.4475 0.09035 0.0
C1147 C 0.08531 0.44565 0.06299 0.0
C1148 C 0.10085 0.41782 0.06079 0.0
H1149 H 0.10442 0.62437 0.93612 0.0
H1150 H 0.11878 0.57689 0.97086 0.0
C1151 C 0.09324 0.39108 0.08165 0.0
C1152 C 0.08866 0.47161 0.0346 0.0
H1153 H 0.08564 0.4877 0.9392 0.0
C1154 C 0.09058 0.50283 0.04779 0.0
C1155 C 0.08682 0.46615 0.99478 0.0
C1156 C 0.08258 0.43356 0.97831 0.0
C1157 C 0.08958 0.52868 0.02267 0.0
C1158 C 0.08793 0.5232 0.98285 0.0
C1159 C 0.08721 0.49195 0.96959 0.0
C1160 C 0.08339 0.54931 0.955 0.0
C1161 C 0.08848 0.56149 0.03946 0.0
C1162 C 0.06029 0.5486 0.93133 0.0
C1163 C 0.0528 0.57519 0.91021 0.0
C1164 C 0.0682 0.60296 0.9125 0.0
C1165 C 0.0925 0.60296 0.9335 0.0
C1166 C 0.10035 0.57607 0.954 0.0
H1167 H 0.08313 0.56109 0.0702 0.0
H1168 H 0.10876 0.57279 0.03673 0.0
H1169 H 0.07329 0.57636 0.02439 0.0
H1170 H 0.04691 0.52826 0.93124 0.0
H1171 H 0.03368 0.57494 0.89478 0.0
H1172 H 0.545 0.57545 0.63899 0.0
H1173 H 0.53252 0.5272 0.60454 0.0
H1174 H 0.48796 0.58288 0.52277 0.0
H1175 H 0.49971 0.6309 0.55789 0.0
H1176 H 0.46542 0.5206 0.53523 0.0
H1177 H 0.57635 0.52087 0.50395 0.0
H1178 H 0.56786 0.51917 0.55366 0.0
H1179 H 0.55944 0.55375 0.52641 0.0
C1180 C 0.53113 0.57712 0.61512 0.0
C1181 C 0.52287 0.60672 0.60145 0.0
C1182 C 0.52441 0.54963 0.595 0.0
C1183 C 0.50974 0.55155 0.56067 0.0
C1184 C 0.49929 0.58083 0.54912 0.0
H1185 H 0.54221 0.42148 0.37608 0.0
H1186 H 0.52952 0.47021 0.4092 0.0
C1187 C 0.50594 0.60823 0.56926 0.0
C1188 C 0.50911 0.52449 0.53378 0.0
H1189 H 0.55067 0.47898 0.47856 0.0
C1190 C 0.48402 0.51139 0.52285 0.0
C1191 C 0.53334 0.51318 0.51675 0.0
C1192 C 0.56078 0.52759 0.52542 0.0
C1193 C 0.48264 0.48663 0.49611 0.0
C1194 C 0.50701 0.47459 0.48017 0.0
C1195 C 0.53197 0.48822 0.49061 0.0
C1196 C 0.50773 0.44658 0.45462 0.0
C1197 C 0.45514 0.47387 0.48485 0.0
C1198 C 0.49855 0.41721 0.46797 0.0
C1199 C 0.50533 0.38949 0.44857 0.0
C1200 C 0.52139 0.39061 0.41551 0.0
C1201 C 0.52882 0.42005 0.40051 0.0
C1202 C 0.52196 0.44786 0.41986 0.0
H1203 H 0.43884 0.49167 0.48939 0.0
H1204 H 0.45489 0.46641 0.45454 0.0
H1205 H 0.45034 0.453 0.50274 0.0
H1206 H 0.48814 0.41541 0.49505 0.0
H1207 H 0.49988 0.36697 0.46109 0.0
H1208 H 0.60569 0.87326 0.07651 0.0
H1209 H 0.62022 0.92113 0.04286 0.0
H1210 H 0.55232 0.97173 0.09158 0.0
H1211 H 0.53898 0.92448 0.12659 0.0
H1212 H 0.59407 0.94575 0.98894 0.0
H1213 H 0.60522 0.0408 0.09421 0.0
H1214 H 0.60339 -8e-05 0.10838 0.0
H1215 H 0.57271 0.02263 0.10101 0.0
C1216 C 0.59491 0.89519 0.08157 0.0
C1217 C 0.57171 0.89558 0.10485 0.0
C1218 C 0.60295 0.92244 0.06196 0.0
C1219 C 0.58755 0.95039 0.06464 0.0
C1220 C 0.56519 0.95105 0.08972 0.0
H1221 H 0.54044 0.07545 0.88839 0.0
H1222 H 0.55427 0.02904 0.92475 0.0
C1223 C 0.55752 0.92398 0.10988 0.0
C1224 C 0.59218 0.97701 0.03742 0.0
H1225 H 0.59056 0.05738 0.03073 0.0
C1226 C 0.59395 0.97016 0.99826 0.0
C1227 C 0.59264 0.00901 0.0491 0.0
C1228 C 0.59371 0.01842 0.09052 0.0
C1229 C 0.59446 0.9942 0.97064 0.0
C1230 C 0.592 0.0261 0.98221 0.0
C1231 C 0.59197 0.03301 0.02143 0.0
C1232 C 0.58725 0.05246 0.95463 0.0
C1233 C 0.59753 0.98492 0.92938 0.0
C1234 C 0.60121 0.0813 0.95857 0.0
C1235 C 0.59281 0.10804 0.93826 0.0
C1236 C 0.57075 0.10628 0.91298 0.0
C1237 C 0.55812 0.07706 0.90677 0.0
C1238 C 0.56608 0.05047 0.92768 0.0
H1239 H 0.61019 0.96329 0.92659 0.0
H1240 H 0.57719 0.97942 0.91734 0.0
H1241 H 0.60701 0.00402 0.91225 0.0
H1242 H 0.61756 0.08363 0.97908 0.0
H1243 H 0.60239 0.13057 0.94416 0.0
H1244 H 0.05694 0.07314 0.62498 0.0
H1245 H 0.04255 0.02712 0.58823 0.0
H1246 H 0.97071 0.07739 0.55163 0.0
H1247 H 0.98611 0.12417 0.58696 0.0
H1248 H 1.00286 0.98725 0.58043 0.0
H1249 H 1.00549 0.06269 0.45105 0.0
H1250 H 0.01605 0.07696 0.49702 0.0
H1251 H 0.98041 0.0742 0.48544 0.0
C1252 C 0.03755 0.07387 0.61026 0.0
C1253 C 0.02246 0.10192 0.60898 0.0
C1254 C 0.0294 0.04765 0.58895 0.0
C1255 C 1.00598 0.04904 0.56596 0.0
C1256 C 0.98934 0.07604 0.568 0.0
H1257 H 0.98461 0.87063 0.44054 0.0
H1258 H 0.97025 0.91753 0.47629 0.0
C1259 C 0.9978 0.10253 0.58884 0.0
C1260 C 1.00087 0.02344 0.53759 0.0
H1261 H 0.99703 0.00883 0.44188 0.0
C1262 C 1.00128 0.99197 0.55015 0.0
C1263 C 0.99921 0.02955 0.49791 0.0
C1264 C 1.00051 0.06262 0.48191 0.0
C1265 C 1.00139 0.96656 0.52437 0.0
C1266 C 0.99969 0.97265 0.48467 0.0
C1267 C 0.99803 0.0041 0.4722 0.0
C1268 C 1.00309 0.9471 0.45572 0.0
C1269 C 1.00527 0.93366 0.5401 0.0
C1270 C 0.02432 0.94911 0.4289 0.0
C1271 C 0.03166 0.92275 0.40716 0.0
C1272 C 0.01806 0.89395 0.41212 0.0
C1273 C 0.99518 0.89277 0.43598 0.0
C1274 C 0.98737 0.91937 0.45701 0.0
H1275 H 0.01295 0.93401 0.56986 0.0
H1276 H 0.98543 0.92114 0.54017 0.0
H1277 H 0.01984 0.91995 0.52249 0.0
H1278 H 0.03665 0.97025 0.42694 0.0
H1279 H 0.04972 0.92401 0.38949 0.0
loop_
_geom_bond_atom_site_label_1
_geom_bond_atom_site_label_2
_geom_bond_distance
_geom_bond_site_symmetry_2
_ccdc_geom_bond_type
Zn0 N4 2.020 . S
Zn0 O8 2.019 . S
Zn0 N10 2.119 1_455 S
Zn0 O18 1.975 . S
C1 N2 1.334 . S
C1 N5 1.336 . S
N2 C1 1.334 . S
N2 C3 1.334 . S
C3 N2 1.334 . S
C3 N4 1.336 . S
N4 Zn0 2.020 . S
N4 C3 1.336 . S
N4 N5 1.354 . S
N5 C1 1.336 . S
N5 N4 1.354 . S
N5 Zn9 2.020 . S
C6 O7 1.244 . S
C6 O30 1.257 . S
O7 C6 1.244 . S
O8 Zn0 2.019 . S
O8 C28 1.257 . S
Zn9 N5 2.020 . S
Zn9 O16 1.975 . S
Zn9 N25 2.119 . S
Zn9 O30 2.019 . S
N10 Zn0 2.119 1_655 S
N10 C12 1.334 . S
N10 C13 1.328 . S
C11 C12 1.391 . S
C11 N14 1.329 . S
C11 H32 0.930 . S
C12 N10 1.334 . S
C12 C11 1.391 . S
C12 H19 0.930 . S
C13 N10 1.328 . S
C13 C15 1.392 . S
C13 H20 0.930 . S
N14 C11 1.329 . S
N14 C15 1.331 . S
C15 C13 1.392 . S
C15 N14 1.331 . S
O16 Zn9 1.975 . S
O16 C17 1.252 . S
C17 O16 1.252 . S
C17 O18 1.252 . S
O18 Zn0 1.975 . S
O18 C17 1.252 . S
H19 C12 0.930 . S
H20 C13 0.930 . S
C21 C22 1.392 . S
C21 N25 1.328 . S
C21 H27 0.930 . S
C22 C21 1.392 . S
C22 N26 1.331 . S
C23 C24 1.391 . S
C23 N26 1.329 . S
C23 H33 0.930 . S
C24 C23 1.391 . S
C24 N25 1.334 . S
C24 H31 0.930 . S
N25 Zn9 2.119 . S
N25 C21 1.328 . S
N25 C24 1.334 . S
N26 C22 1.331 . S
N26 C23 1.329 . S
H27 C21 0.930 . S
C28 O8 1.257 . S
C28 O29 1.244 . S
O29 C28 1.244 . S
O30 C6 1.257 . S
O30 Zn9 2.019 . S
H31 C24 0.930 . S
H32 C11 0.930 . S
H33 C23 0.930 . S
Zn34 N38 2.020 . S
Zn34 O42 2.019 . S
Zn34 N44 2.119 . S
Zn34 O52 1.975 . S
C35 N36 1.334 . S
C35 N39 1.336 . S
N36 C35 1.334 . S
N36 C37 1.334 . S
C37 N36 1.334 . S
C37 N38 1.336 . S
N38 Zn34 2.020 . S
N38 C37 1.336 . S
N38 N39 1.354 . S
N39 C35 1.336 . S
N39 N38 1.354 . S
N39 Zn43 2.020 . S
C40 O41 1.244 . S
C40 O64 1.257 . S
O41 C40 1.244 . S
O42 Zn34 2.019 . S
O42 C62 1.257 . S
Zn43 N39 2.020 . S
Zn43 O50 1.975 . S
Zn43 N59 2.119 . S
Zn43 O64 2.019 . S
N44 Zn34 2.119 . S
N44 C46 1.334 . S
N44 C47 1.328 . S
C45 C46 1.391 . S
C45 N48 1.329 . S
C45 H66 0.930 . S
C46 N44 1.334 . S
C46 C45 1.391 . S
C46 H53 0.930 . S
C47 N44 1.328 . S
C47 C49 1.392 . S
C47 H54 0.930 . S
N48 C45 1.329 . S
N48 C49 1.331 . S
C49 C47 1.392 . S
C49 N48 1.331 . S
O50 Zn43 1.975 . S
O50 C51 1.252 . S
C51 O50 1.252 . S
C51 O52 1.252 . S
O52 Zn34 1.975 . S
O52 C51 1.252 . S
H53 C46 0.930 . S
H54 C47 0.930 . S
C55 C56 1.392 . S
C55 N59 1.328 . S
C55 H61 0.930 . S
C56 C55 1.392 . S
C56 N60 1.331 . S
C57 C58 1.391 . S
C57 N60 1.329 . S
C57 H67 0.930 . S
C58 C57 1.391 . S
C58 N59 1.334 . S
C58 H65 0.930 . S
N59 Zn43 2.119 . S
N59 C55 1.328 . S
N59 C58 1.334 . S
N60 C56 1.331 . S
N60 C57 1.329 . S
H61 C55 0.930 . S
C62 O42 1.257 . S
C62 O63 1.244 . S
O63 C62 1.244 . S
O64 C40 1.257 . S
O64 Zn43 2.019 . S
H65 C58 0.930 . S
H66 C45 0.930 . S
H67 C57 0.930 . S
Zn68 N72 2.020 . S
Zn68 O76 2.019 . S
Zn68 N78 2.119 1_455 S
Zn68 O86 1.975 . S
C69 N70 1.334 . S
C69 N73 1.336 . S
N70 C69 1.334 . S
N70 C71 1.334 . S
C71 N70 1.334 . S
C71 N72 1.336 . S
N72 Zn68 2.020 . S
N72 C71 1.336 . S
N72 N73 1.354 . S
N73 C69 1.336 . S
N73 N72 1.354 . S
N73 Zn77 2.020 . S
C74 O75 1.244 . S
C74 O98 1.257 . S
O75 C74 1.244 . S
O76 Zn68 2.019 . S
O76 C96 1.257 . S
Zn77 N73 2.020 . S
Zn77 O84 1.975 . S
Zn77 N93 2.119 . S
Zn77 O98 2.019 . S
N78 Zn68 2.119 1_655 S
N78 C80 1.334 . S
N78 C81 1.328 . S
C79 C80 1.391 . S
C79 N82 1.329 . S
C79 H100 0.930 . S
C80 N78 1.334 . S
C80 C79 1.391 . S
C80 H87 0.930 . S
C81 N78 1.328 . S
C81 C83 1.392 . S
C81 H88 0.930 . S
N82 C79 1.329 . S
N82 C83 1.331 . S
C83 C81 1.392 . S
C83 N82 1.331 . S
O84 Zn77 1.975 . S
O84 C85 1.252 . S
C85 O84 1.252 . S
C85 O86 1.252 . S
O86 Zn68 1.975 . S
O86 C85 1.252 . S
H87 C80 0.930 . S
H88 C81 0.930 . S
C89 C90 1.392 . S
C89 N93 1.328 . S
C89 H95 0.930 . S
C90 C89 1.392 . S
C90 N94 1.331 . S
C91 C92 1.391 . S
C91 N94 1.329 . S
C91 H101 0.930 . S
C92 C91 1.391 . S
C92 N93 1.334 . S
C92 H99 0.930 . S
N93 Zn77 2.119 . S
N93 C89 1.328 . S
N93 C92 1.334 . S
N94 C90 1.331 . S
N94 C91 1.329 . S
H95 C89 0.930 . S
C96 O76 1.257 . S
C96 O97 1.244 . S
O97 C96 1.244 . S
O98 C74 1.257 . S
O98 Zn77 2.019 . S
H99 C92 0.930 . S
H100 C79 0.930 . S
H101 C91 0.930 . S
Zn102 N106 2.020 . S
Zn102 O110 2.019 . S
Zn102 N112 2.119 . S
Zn102 O120 1.975 . S
C103 N104 1.334 . S
C103 N107 1.336 . S
N104 C103 1.334 . S
N104 C105 1.334 . S
C105 N104 1.334 . S
C105 N106 1.336 . S
N106 Zn102 2.020 . S
N106 C105 1.336 . S
N106 N107 1.354 . S
N107 C103 1.336 . S
N107 N106 1.354 . S
N107 Zn111 2.020 . S
C108 O109 1.244 . S
C108 O132 1.257 . S
O109 C108 1.244 . S
O110 Zn102 2.019 . S
O110 C130 1.257 . S
Zn111 N107 2.020 . S
Zn111 O118 1.975 . S
Zn111 N127 2.119 . S
Zn111 O132 2.019 . S
N112 Zn102 2.119 . S
N112 C114 1.334 . S
N112 C115 1.328 . S
C113 C114 1.391 . S
C113 N116 1.329 . S
C113 H134 0.930 . S
C114 N112 1.334 . S
C114 C113 1.391 . S
C114 H121 0.930 . S
C115 N112 1.328 . S
C115 C117 1.392 . S
C115 H122 0.930 . S
N116 C113 1.329 . S
N116 C117 1.331 . S
C117 C115 1.392 . S
C117 N116 1.331 . S
O118 Zn111 1.975 . S
O118 C119 1.252 . S
C119 O118 1.252 . S
C119 O120 1.252 . S
O120 Zn102 1.975 . S
O120 C119 1.252 . S
H121 C114 0.930 . S
H122 C115 0.930 . S
C123 C124 1.392 . S
C123 N127 1.328 . S
C123 H129 0.930 . S
C124 C123 1.392 . S
C124 N128 1.331 . S
C125 C126 1.391 . S
C125 N128 1.329 . S
C125 H135 0.930 . S
C126 C125 1.391 . S
C126 N127 1.334 . S
C126 H133 0.930 . S
N127 Zn111 2.119 . S
N127 C123 1.328 . S
N127 C126 1.334 . S
N128 C124 1.331 . S
N128 C125 1.329 . S
H129 C123 0.930 . S
C130 O110 1.257 . S
C130 O131 1.244 . S
O131 C130 1.244 . S
O132 C108 1.257 . S
O132 Zn111 2.019 . S
H133 C126 0.930 . S
H134 C113 0.930 . S
H135 C125 0.930 . S
Zn136 N140 2.020 . S
Zn136 O144 2.019 . S
Zn136 N146 2.119 . S
Zn136 O154 1.975 . S
C137 N138 1.334 . S
C137 N141 1.336 . S
N138 C137 1.334 . S
N138 C139 1.334 . S
C139 N138 1.334 . S
C139 N140 1.336 . S
N140 Zn136 2.020 . S
N140 C139 1.336 . S
N140 N141 1.354 . S
N141 C137 1.336 . S
N141 N140 1.354 . S
N141 Zn145 2.020 . S
C142 O143 1.244 . S
C142 O166 1.257 . S
O143 C142 1.244 . S
O144 Zn136 2.019 . S
O144 C164 1.257 . S
Zn145 N141 2.020 . S
Zn145 O152 1.975 . S
Zn145 N161 2.119 . S
Zn145 O166 2.019 . S
N146 Zn136 2.119 . S
N146 C148 1.334 . S
N146 C149 1.328 . S
C147 C148 1.391 . S
C147 N150 1.329 . S
C147 H168 0.930 . S
C148 N146 1.334 . S
C148 C147 1.391 . S
C148 H155 0.930 . S
C149 N146 1.328 . S
C149 C151 1.392 . S
C149 H156 0.930 . S
N150 C147 1.329 . S
N150 C151 1.331 . S
C151 C149 1.392 . S
C151 N150 1.331 . S
O152 Zn145 1.975 . S
O152 C153 1.252 . S
C153 O152 1.252 . S
C153 O154 1.252 . S
O154 Zn136 1.975 . S
O154 C153 1.252 . S
H155 C148 0.930 . S
H156 C149 0.930 . S
C157 C158 1.392 . S
C157 N161 1.328 . S
C157 H163 0.930 . S
C158 C157 1.392 . S
C158 N162 1.331 . S
C159 C160 1.391 . S
C159 N162 1.329 . S
C159 H169 0.930 . S
C160 C159 1.391 . S
C160 N161 1.334 . S
C160 H167 0.930 . S
N161 Zn145 2.119 . S
N161 C157 1.328 . S
N161 C160 1.334 . S
N162 C158 1.331 . S
N162 C159 1.329 . S
H163 C157 0.930 . S
C164 O144 1.257 . S
C164 O165 1.244 . S
O165 C164 1.244 . S
O166 C142 1.257 . S
O166 Zn145 2.019 . S
H167 C160 0.930 . S
H168 C147 0.930 . S
H169 C159 0.930 . S
Zn170 N174 2.020 . S
Zn170 O178 2.019 1_455 S
Zn170 N180 2.119 1_455 S
Zn170 O188 1.975 . S
C171 N172 1.334 . S
C171 N175 1.336 . S
N172 C171 1.334 . S
N172 C173 1.334 . S
C173 N172 1.334 . S
C173 N174 1.336 . S
N174 Zn170 2.020 . S
N174 C173 1.336 . S
N174 N175 1.354 . S
N175 C171 1.336 . S
N175 N174 1.354 . S
N175 Zn179 2.020 . S
C176 O177 1.244 . S
C176 O200 1.257 . S
O177 C176 1.244 . S
O178 Zn170 2.019 1_655 S
O178 C198 1.257 1_655 S
Zn179 N175 2.020 . S
Zn179 O186 1.975 . S
Zn179 N195 2.119 . S
Zn179 O200 2.019 . S
N180 Zn170 2.119 1_655 S
N180 C182 1.334 . S
N180 C183 1.328 . S
C181 C182 1.391 . S
C181 N184 1.329 . S
C181 H202 0.930 . S
C182 N180 1.334 . S
C182 C181 1.391 . S
C182 H189 0.930 . S
C183 N180 1.328 . S
C183 C185 1.392 . S
C183 H190 0.930 . S
N184 C181 1.329 . S
N184 C185 1.331 . S
C185 C183 1.392 . S
C185 N184 1.331 . S
O186 Zn179 1.975 . S
O186 C187 1.252 . S
C187 O186 1.252 . S
C187 O188 1.252 . S
O188 Zn170 1.975 . S
O188 C187 1.252 . S
H189 C182 0.930 . S
H190 C183 0.930 . S
C191 C192 1.392 . S
C191 N195 1.328 . S
C191 H197 0.930 . S
C192 C191 1.392 . S
C192 N196 1.331 . S
C193 C194 1.391 . S
C193 N196 1.329 . S
C193 H203 0.930 . S
C194 C193 1.391 . S
C194 N195 1.334 . S
C194 H201 0.930 . S
N195 Zn179 2.119 . S
N195 C191 1.328 . S
N195 C194 1.334 . S
N196 C192 1.331 . S
N196 C193 1.329 . S
H197 C191 0.930 . S
C198 O178 1.257 1_455 S
C198 O199 1.244 . S
O199 C198 1.244 . S
O200 C176 1.257 . S
O200 Zn179 2.019 . S
H201 C194 0.930 . S
H202 C181 0.930 . S
H203 C193 0.930 . S
Zn204 N208 2.020 . S
Zn204 O212 2.019 . S
Zn204 N214 2.119 . S
Zn204 O222 1.975 . S
C205 N206 1.334 . S
C205 N209 1.336 . S
N206 C205 1.334 . S
N206 C207 1.334 . S
C207 N206 1.334 . S
C207 N208 1.336 . S
N208 Zn204 2.020 . S
N208 C207 1.336 . S
N208 N209 1.354 . S
N209 C205 1.336 . S
N209 N208 1.354 . S
N209 Zn213 2.020 . S
C210 O211 1.244 . S
C210 O234 1.257 . S
O211 C210 1.244 . S
O212 Zn204 2.019 . S
O212 C232 1.257 . S
Zn213 N209 2.020 . S
Zn213 O220 1.975 . S
Zn213 N229 2.119 . S
Zn213 O234 2.019 . S
N214 Zn204 2.119 . S
N214 C216 1.334 . S
N214 C217 1.328 . S
C215 C216 1.391 . S
C215 N218 1.329 . S
C215 H236 0.930 . S
C216 N214 1.334 . S
C216 C215 1.391 . S
C216 H223 0.930 . S
C217 N214 1.328 . S
C217 C219 1.392 . S
C217 H224 0.930 . S
N218 C215 1.329 . S
N218 C219 1.331 . S
C219 C217 1.392 . S
C219 N218 1.331 . S
O220 Zn213 1.975 . S
O220 C221 1.252 . S
C221 O220 1.252 . S
C221 O222 1.252 . S
O222 Zn204 1.975 . S
O222 C221 1.252 . S
H223 C216 0.930 . S
H224 C217 0.930 . S
C225 C226 1.392 . S
C225 N229 1.328 . S
C225 H231 0.930 . S
C226 C225 1.392 . S
C226 N230 1.331 . S
C227 C228 1.391 . S
C227 N230 1.329 . S
C227 H237 0.930 . S
C228 C227 1.391 . S
C228 N229 1.334 . S
C228 H235 0.930 . S
N229 Zn213 2.119 . S
N229 C225 1.328 . S
N229 C228 1.334 . S
N230 C226 1.331 . S
N230 C227 1.329 . S
H231 C225 0.930 . S
C232 O212 1.257 . S
C232 O233 1.244 . S
O233 C232 1.244 . S
O234 C210 1.257 . S
O234 Zn213 2.019 . S
H235 C228 0.930 . S
H236 C215 0.930 . S
H237 C227 0.930 . S
Zn238 N242 2.020 . S
Zn238 O246 2.019 . S
Zn238 N248 2.119 . S
Zn238 O256 1.975 . S
C239 N240 1.334 . S
C239 N243 1.336 . S
N240 C239 1.334 . S
N240 C241 1.334 . S
C241 N240 1.334 . S
C241 N242 1.336 . S
N242 Zn238 2.020 . S
N242 C241 1.336 . S
N242 N243 1.354 . S
N243 C239 1.336 . S
N243 N242 1.354 . S
N243 Zn247 2.020 . S
C244 O245 1.244 . S
C244 O268 1.257 1_455 S
O245 C244 1.244 . S
O246 Zn238 2.019 . S
O246 C266 1.257 . S
Zn247 N243 2.020 . S
Zn247 O254 1.975 . S
Zn247 N263 2.119 1_455 S
Zn247 O268 2.019 1_455 S
N248 Zn238 2.119 . S
N248 C250 1.334 . S
N248 C251 1.328 . S
C249 C250 1.391 . S
C249 N252 1.329 . S
C249 H270 0.930 . S
C250 N248 1.334 . S
C250 C249 1.391 . S
C250 H257 0.930 . S
C251 N248 1.328 . S
C251 C253 1.392 . S
C251 H258 0.930 . S
N252 C249 1.329 . S
N252 C253 1.331 . S
C253 C251 1.392 . S
C253 N252 1.331 . S
O254 Zn247 1.975 . S
O254 C255 1.252 . S
C255 O254 1.252 . S
C255 O256 1.252 . S
O256 Zn238 1.975 . S
O256 C255 1.252 . S
H257 C250 0.930 . S
H258 C251 0.930 . S
C259 C260 1.392 . S
C259 N263 1.328 . S
C259 H265 0.930 . S
C260 C259 1.392 . S
C260 N264 1.331 . S
C261 C262 1.391 . S
C261 N264 1.329 . S
C261 H271 0.930 . S
C262 C261 1.391 . S
C262 N263 1.334 . S
C262 H269 0.930 . S
N263 Zn247 2.119 1_655 S
N263 C259 1.328 . S
N263 C262 1.334 . S
N264 C260 1.331 . S
N264 C261 1.329 . S
H265 C259 0.930 . S
C266 O246 1.257 . S
C266 O267 1.244 . S
O267 C266 1.244 . S
O268 C244 1.257 1_655 S
O268 Zn247 2.019 1_655 S
H269 C262 0.930 . S
H270 C249 0.930 . S
H271 C261 0.930 . S
H272 C280 0.929 . S
H273 C282 0.930 . S
H274 C284 0.930 . S
H275 C287 0.929 . S
H276 C290 0.930 . S
H277 C292 0.960 . S
H278 C292 0.960 . S
H279 C292 0.960 . S
C280 H272 0.929 . S
C280 C281 1.377 . S
C280 C282 1.384 . S
C281 C280 1.377 . S
C281 C287 1.390 . S
C282 H273 0.930 . S
C282 C280 1.384 . S
C282 C283 1.372 . S
C283 C282 1.372 . S
C283 C284 1.400 . S
C283 C288 1.490 . S
C284 H274 0.930 . S
C284 C283 1.400 . S
C284 C287 1.386 . S
H285 C301 0.930 . S
H286 C302 0.931 . S
C287 H275 0.929 . S
C287 C281 1.390 . S
C287 C284 1.386 . S
C288 C283 1.490 . S
C288 C290 1.395 . S
C288 C291 1.403 . S
H289 C295 0.930 . S
C290 H276 0.930 . S
C290 C288 1.395 . S
C290 C293 1.403 . S
C291 C288 1.403 . S
C291 C292 1.524 . S
C291 C295 1.400 . S
C292 H277 0.960 . S
C292 H278 0.960 . S
C292 H279 0.960 . S
C292 C291 1.524 . S
C293 C290 1.403 . S
C293 C294 1.392 . S
C293 C297 1.495 . S
C294 C293 1.392 . S
C294 C295 1.385 . S
C294 C296 1.478 . S
C295 H289 0.930 . S
C295 C291 1.400 . S
C295 C294 1.385 . S
C296 C294 1.478 . S
C296 C298 1.381 . S
C296 C302 1.383 . S
C297 C293 1.495 . S
C297 H303 0.959 . S
C297 H304 0.961 . S
C297 H305 0.960 . S
C298 C296 1.381 . S
C298 C299 1.394 . S
C298 H306 0.930 . S
C299 C298 1.394 . S
C299 C300 1.383 . S
C299 H307 0.929 . S
C300 C299 1.383 . S
C300 C301 1.377 . S
C301 H285 0.930 . S
C301 C300 1.377 . S
C301 C302 1.379 . S
C302 H286 0.931 . S
C302 C296 1.383 . S
C302 C301 1.379 . S
H303 C297 0.959 . S
H304 C297 0.961 . S
H305 C297 0.960 . S
H306 C298 0.930 . S
H307 C299 0.929 . S
H308 C316 0.929 . S
H309 C318 0.930 . S
H310 C320 0.930 . S
H311 C323 0.929 . S
H312 C326 0.930 . S
H313 C328 0.960 . S
H314 C328 0.960 . S
H315 C328 0.960 . S
C316 H308 0.929 . S
C316 C317 1.377 . S
C316 C318 1.384 . S
C317 C316 1.377 . S
C317 C323 1.390 . S
C318 H309 0.930 . S
C318 C316 1.384 . S
C318 C319 1.372 . S
C319 C318 1.372 . S
C319 C320 1.400 . S
C319 C324 1.490 . S
C320 H310 0.930 . S
C320 C319 1.400 . S
C320 C323 1.386 . S
H321 C337 0.930 . S
H322 C338 0.931 . S
C323 H311 0.929 . S
C323 C317 1.390 . S
C323 C320 1.386 . S
C324 C319 1.490 . S
C324 C326 1.395 . S
C324 C327 1.403 . S
H325 C331 0.930 . S
C326 H312 0.930 . S
C326 C324 1.395 . S
C326 C329 1.403 . S
C327 C324 1.403 . S
C327 C328 1.524 . S
C327 C331 1.400 . S
C328 H313 0.960 . S
C328 H314 0.960 . S
C328 H315 0.960 . S
C328 C327 1.524 . S
C329 C326 1.403 . S
C329 C330 1.392 . S
C329 C333 1.495 . S
C330 C329 1.392 . S
C330 C331 1.385 . S
C330 C332 1.478 . S
C331 H325 0.930 . S
C331 C327 1.400 . S
C331 C330 1.385 . S
C332 C330 1.478 . S
C332 C334 1.381 . S
C332 C338 1.383 . S
C333 C329 1.495 . S
C333 H339 0.959 . S
C333 H340 0.961 . S
C333 H341 0.960 . S
C334 C332 1.381 . S
C334 C335 1.394 . S
C334 H342 0.930 . S
C335 C334 1.394 . S
C335 C336 1.383 . S
C335 H343 0.929 . S
C336 C335 1.383 . S
C336 C337 1.377 . S
C337 H321 0.930 . S
C337 C336 1.377 . S
C337 C338 1.379 . S
C338 H322 0.931 . S
C338 C332 1.383 . S
C338 C337 1.379 . S
H339 C333 0.959 . S
H340 C333 0.961 . S
H341 C333 0.960 . S
H342 C334 0.930 . S
H343 C335 0.929 . S
H344 C352 0.929 . S
H345 C354 0.930 . S
H346 C356 0.930 . S
H347 C359 0.929 . S
H348 C362 0.930 . S
H349 C364 0.960 . S
H350 C364 0.960 . S
H351 C364 0.960 . S
C352 H344 0.929 . S
C352 C353 1.377 . S
C352 C354 1.384 . S
C353 C352 1.377 . S
C353 C359 1.390 . S
C354 H345 0.930 . S
C354 C352 1.384 . S
C354 C355 1.372 . S
C355 C354 1.372 . S
C355 C356 1.400 . S
C355 C360 1.490 . S
C356 H346 0.930 . S
C356 C355 1.400 . S
C356 C359 1.386 . S
H357 C373 0.930 . S
H358 C374 0.931 . S
C359 H347 0.929 . S
C359 C353 1.390 . S
C359 C356 1.386 . S
C360 C355 1.490 . S
C360 C362 1.395 . S
C360 C363 1.403 . S
H361 C367 0.930 . S
C362 H348 0.930 . S
C362 C360 1.395 . S
C362 C365 1.403 . S
C363 C360 1.403 . S
C363 C364 1.524 . S
C363 C367 1.400 . S
C364 H349 0.960 . S
C364 H350 0.960 . S
C364 H351 0.960 . S
C364 C363 1.524 . S
C365 C362 1.403 . S
C365 C366 1.392 . S
C365 C369 1.495 . S
C366 C365 1.392 . S
C366 C367 1.385 . S
C366 C368 1.478 . S
C367 H361 0.930 . S
C367 C363 1.400 . S
C367 C366 1.385 . S
C368 C366 1.478 . S
C368 C370 1.381 . S
C368 C374 1.383 . S
C369 C365 1.495 . S
C369 H375 0.959 . S
C369 H376 0.961 . S
C369 H377 0.960 . S
C370 C368 1.381 . S
C370 C371 1.394 . S
C370 H378 0.930 . S
C371 C370 1.394 . S
C371 C372 1.383 . S
C371 H379 0.929 . S
C372 C371 1.383 . S
C372 C373 1.377 . S
C373 H357 0.930 . S
C373 C372 1.377 . S
C373 C374 1.379 . S
C374 H358 0.931 . S
C374 C368 1.383 . S
C374 C373 1.379 . S
H375 C369 0.959 . S
H376 C369 0.961 . S
H377 C369 0.960 . S
H378 C370 0.930 . S
H379 C371 0.929 . S
H380 C388 0.929 . S
H381 C390 0.930 . S
H382 C392 0.930 . S
H383 C395 0.929 . S
H384 C398 0.930 . S
H385 C400 0.960 . S
H386 C400 0.960 . S
H387 C400 0.960 . S
C388 H380 0.929 . S
C388 C389 1.377 . S
C388 C390 1.384 . S
C389 C388 1.377 . S
C389 C395 1.390 . S
C390 H381 0.930 . S
C390 C388 1.384 . S
C390 C391 1.372 . S
C391 C390 1.372 . S
C391 C392 1.400 . S
C391 C396 1.490 . S
C392 H382 0.930 . S
C392 C391 1.400 . S
C392 C395 1.386 . S
H393 C409 0.930 . S
H394 C410 0.931 . S
C395 H383 0.929 . S
C395 C389 1.390 . S
C395 C392 1.386 . S
C396 C391 1.490 . S
C396 C398 1.395 . S
C396 C399 1.403 . S
H397 C403 0.930 . S
C398 H384 0.930 . S
C398 C396 1.395 . S
C398 C401 1.403 . S
C399 C396 1.403 . S
C399 C400 1.524 . S
C399 C403 1.400 . S
C400 H385 0.960 . S
C400 H386 0.960 . S
C400 H387 0.960 . S
C400 C399 1.524 . S
C401 C398 1.403 . S
C401 C402 1.392 . S
C401 C405 1.495 . S
C402 C401 1.392 . S
C402 C403 1.385 . S
C402 C404 1.478 . S
C403 H397 0.930 . S
C403 C399 1.400 . S
C403 C402 1.385 . S
C404 C402 1.478 . S
C404 C406 1.381 . S
C404 C410 1.383 . S
C405 C401 1.495 . S
C405 H411 0.959 . S
C405 H412 0.961 . S
C405 H413 0.960 . S
C406 C404 1.381 . S
C406 C407 1.394 . S
C406 H414 0.930 . S
C407 C406 1.394 . S
C407 C408 1.383 . S
C407 H415 0.929 . S
C408 C407 1.383 . S
C408 C409 1.377 . S
C409 H393 0.930 . S
C409 C408 1.377 . S
C409 C410 1.379 . S
C410 H394 0.931 . S
C410 C404 1.383 . S
C410 C409 1.379 . S
H411 C405 0.959 . S
H412 C405 0.961 . S
H413 C405 0.960 . S
H414 C406 0.930 . S
H415 C407 0.929 . S
H416 C424 0.929 . S
H417 C426 0.930 . S
H418 C428 0.930 . S
H419 C431 0.929 . S
H420 C434 0.930 . S
H421 C436 0.960 . S
H422 C436 0.960 . S
H423 C436 0.960 . S
C424 H416 0.929 . S
C424 C425 1.377 . S
C424 C426 1.384 . S
C425 C424 1.377 . S
C425 C431 1.390 . S
C426 H417 0.930 . S
C426 C424 1.384 . S
C426 C427 1.372 . S
C427 C426 1.372 . S
C427 C428 1.400 . S
C427 C432 1.490 . S
C428 H418 0.930 . S
C428 C427 1.400 . S
C428 C431 1.386 . S
H429 C445 0.930 . S
H430 C446 0.931 . S
C431 H419 0.929 . S
C431 C425 1.390 . S
C431 C428 1.386 . S
C432 C427 1.490 . S
C432 C434 1.395 . S
C432 C435 1.403 . S
H433 C439 0.930 . S
C434 H420 0.930 . S
C434 C432 1.395 . S
C434 C437 1.403 . S
C435 C432 1.403 . S
C435 C436 1.524 . S
C435 C439 1.400 . S
C436 H421 0.960 . S
C436 H422 0.960 . S
C436 H423 0.960 . S
C436 C435 1.524 . S
C437 C434 1.403 . S
C437 C438 1.392 . S
C437 C441 1.495 . S
C438 C437 1.392 . S
C438 C439 1.385 . S
C438 C440 1.478 . S
C439 H433 0.930 . S
C439 C435 1.400 . S
C439 C438 1.385 . S
C440 C438 1.478 . S
C440 C442 1.381 . S
C440 C446 1.383 . S
C441 C437 1.495 . S
C441 H447 0.959 . S
C441 H448 0.961 . S
C441 H449 0.960 . S
C442 C440 1.381 . S
C442 C443 1.394 . S
C442 H450 0.930 . S
C443 C442 1.394 . S
C443 C444 1.383 . S
C443 H451 0.929 . S
C444 C443 1.383 . S
C444 C445 1.377 . S
C445 H429 0.930 . S
C445 C444 1.377 . S
C445 C446 1.379 . S
C446 H430 0.931 . S
C446 C440 1.383 . S
C446 C445 1.379 . S
H447 C441 0.959 . S
H448 C441 0.961 . S
H449 C441 0.960 . S
H450 C442 0.930 . S
H451 C443 0.929 . S
H452 C460 0.929 . S
H453 C462 0.930 . S
H454 C464 0.930 . S
H455 C467 0.929 . S
H456 C470 0.930 . S
H457 C472 0.960 . S
H458 C472 0.960 . S
H459 C472 0.960 . S
C460 H452 0.929 . S
C460 C461 1.377 . S
C460 C462 1.384 . S
C461 C460 1.377 . S
C461 C467 1.390 . S
C462 H453 0.930 . S
C462 C460 1.384 . S
C462 C463 1.372 . S
C463 C462 1.372 . S
C463 C464 1.400 . S
C463 C468 1.490 . S
C464 H454 0.930 . S
C464 C463 1.400 . S
C464 C467 1.386 . S
H465 C481 0.930 . S
H466 C482 0.931 . S
C467 H455 0.929 . S
C467 C461 1.390 . S
C467 C464 1.386 . S
C468 C463 1.490 . S
C468 C470 1.395 . S
C468 C471 1.403 . S
H469 C475 0.930 . S
C470 H456 0.930 . S
C470 C468 1.395 . S
C470 C473 1.403 . S
C471 C468 1.403 . S
C471 C472 1.524 . S
C471 C475 1.400 . S
C472 H457 0.960 . S
C472 H458 0.960 . S
C472 H459 0.960 . S
C472 C471 1.524 . S
C473 C470 1.403 . S
C473 C474 1.392 . S
C473 C477 1.495 . S
C474 C473 1.392 . S
C474 C475 1.385 . S
C474 C476 1.478 . S
C475 H469 0.930 . S
C475 C471 1.400 . S
C475 C474 1.385 . S
C476 C474 1.478 . S
C476 C478 1.381 . S
C476 C482 1.383 . S
C477 C473 1.495 . S
C477 H483 0.959 . S
C477 H484 0.961 . S
C477 H485 0.960 . S
C478 C476 1.381 . S
C478 C479 1.394 . S
C478 H486 0.930 . S
C479 C478 1.394 . S
C479 C480 1.383 . S
C479 H487 0.929 . S
C480 C479 1.383 . S
C480 C481 1.377 . S
C481 H465 0.930 . S
C481 C480 1.377 . S
C481 C482 1.379 . S
C482 H466 0.931 . S
C482 C476 1.383 . S
C482 C481 1.379 . S
H483 C477 0.959 . S
H484 C477 0.961 . S
H485 C477 0.960 . S
H486 C478 0.930 . S
H487 C479 0.929 . S
H488 C496 0.929 . S
H489 C498 0.930 . S
H490 C500 0.930 . S
H491 C503 0.929 . S
H492 C506 0.930 . S
H493 C508 0.960 . S
H494 C508 0.960 . S
H495 C508 0.960 . S
C496 H488 0.929 . S
C496 C497 1.377 . S
C496 C498 1.384 . S
C497 C496 1.377 . S
C497 C503 1.390 . S
C498 H489 0.930 . S
C498 C496 1.384 . S
C498 C499 1.372 . S
C499 C498 1.372 . S
C499 C500 1.400 . S
C499 C504 1.490 . S
C500 H490 0.930 . S
C500 C499 1.400 . S
C500 C503 1.386 . S
H501 C517 0.930 . S
H502 C518 0.931 . S
C503 H491 0.929 . S
C503 C497 1.390 . S
C503 C500 1.386 . S
C504 C499 1.490 . S
C504 C506 1.395 . S
C504 C507 1.403 . S
H505 C511 0.930 . S
C506 H492 0.930 . S
C506 C504 1.395 . S
C506 C509 1.403 . S
C507 C504 1.403 . S
C507 C508 1.524 . S
C507 C511 1.400 . S
C508 H493 0.960 . S
C508 H494 0.960 . S
C508 H495 0.960 . S
C508 C507 1.524 . S
C509 C506 1.403 . S
C509 C510 1.392 . S
C509 C513 1.495 . S
C510 C509 1.392 . S
C510 C511 1.385 . S
C510 C512 1.478 . S
C511 H505 0.930 . S
C511 C507 1.400 . S
C511 C510 1.385 . S
C512 C510 1.478 . S
C512 C514 1.381 . S
C512 C518 1.383 . S
C513 C509 1.495 . S
C513 H519 0.959 . S
C513 H520 0.961 . S
C513 H521 0.960 . S
C514 C512 1.381 . S
C514 C515 1.394 . S
C514 H522 0.930 . S
C515 C514 1.394 . S
C515 C516 1.383 . S
C515 H523 0.929 . S
C516 C515 1.383 . S
C516 C517 1.377 . S
C517 H501 0.930 . S
C517 C516 1.377 . S
C517 C518 1.379 . S
C518 H502 0.931 . S
C518 C512 1.383 . S
C518 C517 1.379 . S
H519 C513 0.959 . S
H520 C513 0.961 . S
H521 C513 0.960 . S
H522 C514 0.930 . S
H523 C515 0.929 . S
H524 C532 0.929 . S
H525 C534 0.930 . S
H526 C536 0.930 . S
H527 C539 0.929 . S
H528 C542 0.930 . S
H529 C544 0.960 . S
H530 C544 0.960 . S
H531 C544 0.960 . S
C532 H524 0.929 . S
C532 C533 1.377 . S
C532 C534 1.384 . S
C533 C532 1.377 . S
C533 C539 1.390 . S
C534 H525 0.930 . S
C534 C532 1.384 . S
C534 C535 1.372 . S
C535 C534 1.372 . S
C535 C536 1.400 . S
C535 C540 1.490 . S
C536 H526 0.930 . S
C536 C535 1.400 . S
C536 C539 1.386 . S
H537 C553 0.930 . S
H538 C554 0.931 . S
C539 H527 0.929 . S
C539 C533 1.390 . S
C539 C536 1.386 . S
C540 C535 1.490 . S
C540 C542 1.395 . S
C540 C543 1.403 . S
H541 C547 0.930 . S
C542 H528 0.930 . S
C542 C540 1.395 . S
C542 C545 1.403 . S
C543 C540 1.403 . S
C543 C544 1.524 . S
C543 C547 1.400 . S
C544 H529 0.960 . S
C544 H530 0.960 . S
C544 H531 0.960 . S
C544 C543 1.524 . S
C545 C542 1.403 . S
C545 C546 1.392 . S
C545 C549 1.495 . S
C546 C545 1.392 . S
C546 C547 1.385 . S
C546 C548 1.478 . S
C547 H541 0.930 . S
C547 C543 1.400 . S
C547 C546 1.385 . S
C548 C546 1.478 . S
C548 C550 1.381 . S
C548 C554 1.383 . S
C549 C545 1.495 . S
C549 H555 0.959 . S
C549 H556 0.961 . S
C549 H557 0.960 . S
C550 C548 1.381 . S
C550 C551 1.394 . S
C550 H558 0.930 . S
C551 C550 1.394 . S
C551 C552 1.383 . S
C551 H559 0.929 . S
C552 C551 1.383 . S
C552 C553 1.377 . S
C553 H537 0.930 . S
C553 C552 1.377 . S
C553 C554 1.379 . S
C554 H538 0.931 . S
C554 C548 1.383 . S
C554 C553 1.379 . S
H555 C549 0.959 . S
H556 C549 0.961 . S
H557 C549 0.960 . S
H558 C550 0.930 . S
H559 C551 0.929 . S
H560 C568 0.929 . S
H561 C570 0.930 . S
H562 C572 0.930 . S
H563 C575 0.929 . S
H564 C578 0.930 . S
H565 C580 0.960 1_655 S
H566 C580 0.960 1_655 S
H567 C580 0.960 . S
C568 H560 0.929 . S
C568 C569 1.377 . S
C568 C570 1.384 . S
C569 C568 1.377 . S
C569 C575 1.390 . S
C570 H561 0.930 . S
C570 C568 1.384 . S
C570 C571 1.372 . S
C571 C570 1.372 . S
C571 C572 1.400 . S
C571 C576 1.490 . S
C572 H562 0.930 . S
C572 C571 1.400 . S
C572 C575 1.386 . S
H573 C589 0.930 . S
H574 C590 0.931 . S
C575 H563 0.929 . S
C575 C569 1.390 . S
C575 C572 1.386 . S
C576 C571 1.490 . S
C576 C578 1.395 . S
C576 C579 1.403 . S
H577 C583 0.930 . S
C578 H564 0.930 . S
C578 C576 1.395 . S
C578 C581 1.403 . S
C579 C576 1.403 . S
C579 C580 1.524 . S
C579 C583 1.400 . S
C580 H565 0.960 1_455 S
C580 H566 0.960 1_455 S
C580 H567 0.960 . S
C580 C579 1.524 . S
C581 C578 1.403 . S
C581 C582 1.392 . S
C581 C585 1.495 . S
C582 C581 1.392 . S
C582 C583 1.385 . S
C582 C584 1.478 . S
C583 H577 0.930 . S
C583 C579 1.400 . S
C583 C582 1.385 . S
C584 C582 1.478 . S
C584 C586 1.381 . S
C584 C590 1.383 . S
C585 C581 1.495 . S
C585 H591 0.959 . S
C585 H592 0.961 . S
C585 H593 0.960 . S
C586 C584 1.381 . S
C586 C587 1.394 . S
C586 H594 0.930 . S
C587 C586 1.394 . S
C587 C588 1.383 . S
C587 H595 0.929 . S
C588 C587 1.383 . S
C588 C589 1.377 . S
C589 H573 0.930 . S
C589 C588 1.377 . S
C589 C590 1.379 . S
C590 H574 0.931 . S
C590 C584 1.383 . S
C590 C589 1.379 . S
H591 C585 0.959 . S
H592 C585 0.961 . S
H593 C585 0.960 . S
H594 C586 0.930 . S
H595 C587 0.929 . S
H596 C604 0.929 . S
H597 C606 0.930 . S
H598 C608 0.930 . S
H599 C611 0.929 . S
H600 C614 0.930 . S
H601 C616 0.960 . S
H602 C616 0.960 . S
H603 C616 0.960 . S
C604 H596 0.929 . S
C604 C605 1.377 . S
C604 C606 1.384 . S
C605 C604 1.377 . S
C605 C611 1.390 . S
C606 H597 0.930 . S
C606 C604 1.384 . S
C606 C607 1.372 . S
C607 C606 1.372 . S
C607 C608 1.400 . S
C607 C612 1.490 . S
C608 H598 0.930 . S
C608 C607 1.400 . S
C608 C611 1.386 . S
H609 C625 0.930 . S
H610 C626 0.931 . S
C611 H599 0.929 . S
C611 C605 1.390 . S
C611 C608 1.386 . S
C612 C607 1.490 . S
C612 C614 1.395 . S
C612 C615 1.403 . S
H613 C619 0.930 . S
C614 H600 0.930 . S
C614 C612 1.395 . S
C614 C617 1.403 . S
C615 C612 1.403 . S
C615 C616 1.524 . S
C615 C619 1.400 . S
C616 H601 0.960 . S
C616 H602 0.960 . S
C616 H603 0.960 . S
C616 C615 1.524 . S
C617 C614 1.403 . S
C617 C618 1.392 . S
C617 C621 1.495 . S
C618 C617 1.392 . S
C618 C619 1.385 . S
C618 C620 1.478 . S
C619 H613 0.930 . S
C619 C615 1.400 . S
C619 C618 1.385 . S
C620 C618 1.478 . S
C620 C622 1.381 . S
C620 C626 1.383 . S
C621 C617 1.495 . S
C621 H627 0.959 . S
C621 H628 0.961 . S
C621 H629 0.960 . S
C622 C620 1.381 . S
C622 C623 1.394 . S
C622 H630 0.930 . S
C623 C622 1.394 . S
C623 C624 1.383 . S
C623 H631 0.929 . S
C624 C623 1.383 . S
C624 C625 1.377 . S
C625 H609 0.930 . S
C625 C624 1.377 . S
C625 C626 1.379 . S
C626 H610 0.931 . S
C626 C620 1.383 . S
C626 C625 1.379 . S
H627 C621 0.959 . S
H628 C621 0.961 . S
H629 C621 0.960 . S
H630 C622 0.930 . S
H631 C623 0.929 . S
H632 C640 0.929 . S
H633 C642 0.930 . S
H634 C644 0.930 . S
H635 C647 0.929 . S
H636 C650 0.930 . S
H637 C652 0.960 1_655 S
H638 C652 0.960 . S
H639 C652 0.960 1_655 S
C640 H632 0.929 . S
C640 C641 1.377 . S
C640 C642 1.384 . S
C641 C640 1.377 . S
C641 C647 1.390 . S
C642 H633 0.930 . S
C642 C640 1.384 . S
C642 C643 1.372 . S
C643 C642 1.372 . S
C643 C644 1.400 . S
C643 C648 1.490 . S
C644 H634 0.930 . S
C644 C643 1.400 . S
C644 C647 1.386 . S
H645 C661 0.930 . S
H646 C662 0.931 . S
C647 H635 0.929 . S
C647 C641 1.390 . S
C647 C644 1.386 . S
C648 C643 1.490 . S
C648 C650 1.395 . S
C648 C651 1.403 . S
H649 C655 0.930 . S
C650 H636 0.930 . S
C650 C648 1.395 . S
C650 C653 1.403 . S
C651 C648 1.403 . S
C651 C652 1.524 . S
C651 C655 1.400 . S
C652 H637 0.960 1_455 S
C652 H638 0.960 . S
C652 H639 0.960 1_455 S
C652 C651 1.524 . S
C653 C650 1.403 . S
C653 C654 1.392 . S
C653 C657 1.495 . S
C654 C653 1.392 . S
C654 C655 1.385 . S
C654 C656 1.478 . S
C655 H649 0.930 . S
C655 C651 1.400 . S
C655 C654 1.385 . S
C656 C654 1.478 . S
C656 C658 1.381 . S
C656 C662 1.383 . S
C657 C653 1.495 . S
C657 H663 0.959 . S
C657 H664 0.961 . S
C657 H665 0.960 . S
C658 C656 1.381 . S
C658 C659 1.394 . S
C658 H666 0.930 . S
C659 C658 1.394 . S
C659 C660 1.383 . S
C659 H667 0.929 . S
C660 C659 1.383 . S
C660 C661 1.377 . S
C661 H645 0.930 . S
C661 C660 1.377 . S
C661 C662 1.379 . S
C662 H646 0.931 . S
C662 C656 1.383 . S
C662 C661 1.379 . S
H663 C657 0.959 . S
H664 C657 0.961 . S
H665 C657 0.960 . S
H666 C658 0.930 . S
H667 C659 0.929 . S
H668 C676 0.929 . S
H669 C678 0.930 . S
H670 C680 0.930 . S
H671 C683 0.929 . S
H672 C686 0.930 . S
H673 C688 0.960 . S
H674 C688 0.960 . S
H675 C688 0.960 . S
C676 H668 0.929 . S
C676 C677 1.377 . S
C676 C678 1.384 . S
C677 C676 1.377 . S
C677 C683 1.390 . S
C678 H669 0.930 . S
C678 C676 1.384 . S
C678 C679 1.372 . S
C679 C678 1.372 . S
C679 C680 1.400 . S
C679 C684 1.490 . S
C680 H670 0.930 . S
C680 C679 1.400 . S
C680 C683 1.386 . S
H681 C697 0.930 . S
H682 C698 0.931 . S
C683 H671 0.929 . S
C683 C677 1.390 . S
C683 C680 1.386 . S
C684 C679 1.490 . S
C684 C686 1.395 . S
C684 C687 1.403 . S
H685 C691 0.930 . S
C686 H672 0.930 . S
C686 C684 1.395 . S
C686 C689 1.403 . S
C687 C684 1.403 . S
C687 C688 1.524 . S
C687 C691 1.400 . S
C688 H673 0.960 . S
C688 H674 0.960 . S
C688 H675 0.960 . S
C688 C687 1.524 . S
C689 C686 1.403 . S
C689 C690 1.392 . S
C689 C693 1.495 . S
C690 C689 1.392 . S
C690 C691 1.385 . S
C690 C692 1.478 . S
C691 H685 0.930 . S
C691 C687 1.400 . S
C691 C690 1.385 . S
C692 C690 1.478 . S
C692 C694 1.381 . S
C692 C698 1.383 . S
C693 C689 1.495 . S
C693 H699 0.959 . S
C693 H700 0.961 . S
C693 H701 0.960 . S
C694 C692 1.381 . S
C694 C695 1.394 . S
C694 H702 0.930 . S
C695 C694 1.394 . S
C695 C696 1.383 . S
C695 H703 0.929 . S
C696 C695 1.383 . S
C696 C697 1.377 . S
C697 H681 0.930 . S
C697 C696 1.377 . S
C697 C698 1.379 . S
C698 H682 0.931 . S
C698 C692 1.383 . S
C698 C697 1.379 . S
H699 C693 0.959 . S
H700 C693 0.961 . S
H701 C693 0.960 . S
H702 C694 0.930 . S
H703 C695 0.929 . S
H704 C712 0.929 . S
H705 C714 0.931 . S
H706 C716 0.930 1_545 S
H707 C719 0.929 . S
H708 C722 0.930 . S
H709 C724 0.960 . S
H710 C724 0.960 . S
H711 C724 0.960 . S
C712 H704 0.929 . S
C712 C713 1.377 . S
C712 C714 1.381 1_565 S
C713 C712 1.377 . S
C713 C719 1.390 . S
C714 H705 0.931 . S
C714 C712 1.381 1_545 S
C714 C715 1.373 . S
C715 C714 1.373 . S
C715 C716 1.400 1_545 S
C715 C720 1.490 . S
C716 H706 0.930 1_565 S
C716 C715 1.400 1_565 S
C716 C719 1.386 . S
H717 C733 0.930 . S
H718 C734 0.931 . S
C719 H707 0.929 . S
C719 C713 1.390 . S
C719 C716 1.386 . S
C720 C715 1.490 . S
C720 C722 1.395 . S
C720 C723 1.403 . S
H721 C727 0.930 . S
C722 H708 0.930 . S
C722 C720 1.395 . S
C722 C725 1.403 . S
C723 C720 1.403 . S
C723 C724 1.524 . S
C723 C727 1.400 . S
C724 H709 0.960 . S
C724 H710 0.960 . S
C724 H711 0.960 . S
C724 C723 1.524 . S
C725 C722 1.403 . S
C725 C726 1.392 . S
C725 C729 1.495 . S
C726 C725 1.392 . S
C726 C727 1.385 . S
C726 C728 1.478 . S
C727 H721 0.930 . S
C727 C723 1.400 . S
C727 C726 1.385 . S
C728 C726 1.478 . S
C728 C730 1.381 . S
C728 C734 1.383 . S
C729 C725 1.495 . S
C729 H735 0.959 . S
C729 H736 0.961 . S
C729 H737 0.960 . S
C730 C728 1.381 . S
C730 C731 1.394 . S
C730 H738 0.930 . S
C731 C730 1.394 . S
C731 C732 1.383 . S
C731 H739 0.929 . S
C732 C731 1.383 . S
C732 C733 1.377 . S
C733 H717 0.930 . S
C733 C732 1.377 . S
C733 C734 1.379 . S
C734 H718 0.931 . S
C734 C728 1.383 . S
C734 C733 1.379 . S
H735 C729 0.959 . S
H736 C729 0.961 . S
H737 C729 0.960 . S
H738 C730 0.930 . S
H739 C731 0.929 . S
H740 C748 0.929 . S
H741 C750 0.930 . S
H742 C752 0.930 . S
H743 C755 0.929 . S
H744 C758 0.930 . S
H745 C760 0.960 . S
H746 C760 0.960 . S
H747 C760 0.960 . S
C748 H740 0.929 . S
C748 C749 1.377 . S
C748 C750 1.384 . S
C749 C748 1.377 . S
C749 C755 1.390 . S
C750 H741 0.930 . S
C750 C748 1.384 . S
C750 C751 1.372 . S
C751 C750 1.372 . S
C751 C752 1.400 . S
C751 C756 1.490 . S
C752 H742 0.930 . S
C752 C751 1.400 . S
C752 C755 1.386 . S
H753 C769 0.949 . S
H754 C770 0.921 1_665 S
C755 H743 0.929 . S
C755 C749 1.390 . S
C755 C752 1.386 . S
C756 C751 1.490 . S
C756 C758 1.395 . S
C756 C759 1.403 . S
H757 C763 0.930 . S
C758 H744 0.930 . S
C758 C756 1.395 . S
C758 C761 1.403 . S
C759 C756 1.403 . S
C759 C760 1.524 . S
C759 C763 1.400 . S
C760 H745 0.960 . S
C760 H746 0.960 . S
C760 H747 0.960 . S
C760 C759 1.524 . S
C761 C758 1.403 . S
C761 C762 1.392 . S
C761 C765 1.495 1_455 S
C762 C761 1.392 . S
C762 C763 1.385 . S
C762 C764 1.478 . S
C763 H757 0.930 . S
C763 C759 1.400 . S
C763 C762 1.385 . S
C764 C762 1.478 . S
C764 C766 1.397 . S
C764 C770 1.394 1_565 S
C765 C761 1.495 1_655 S
C765 H771 0.959 . S
C765 H772 0.961 . S
C765 H773 0.960 1_655 S
C766 C764 1.397 . S
C766 C767 1.360 1_565 S
C766 H774 0.950 . S
C767 C766 1.360 1_545 S
C767 C768 1.383 . S
C767 H775 0.929 . S
C768 C767 1.383 . S
C768 C769 1.360 1_455 S
C769 H753 0.949 . S
C769 C768 1.360 1_655 S
C769 C770 1.378 1_655 S
C770 H754 0.921 1_445 S
C770 C764 1.394 1_545 S
C770 C769 1.378 1_455 S
H771 C765 0.959 . S
H772 C765 0.961 . S
H773 C765 0.960 1_455 S
H774 C766 0.950 . S
H775 C767 0.929 . S
H776 C784 0.929 . S
H777 C786 0.930 . S
H778 C788 0.930 . S
H779 C791 0.929 . S
H780 C794 0.930 . S
H781 C796 0.960 . S
H782 C796 0.960 . S
H783 C796 0.960 . S
C784 H776 0.929 . S
C784 C785 1.377 . S
C784 C786 1.384 . S
C785 C784 1.377 . S
C785 C791 1.390 . S
C786 H777 0.930 . S
C786 C784 1.384 . S
C786 C787 1.372 . S
C787 C786 1.372 . S
C787 C788 1.400 . S
C787 C792 1.490 . S
C788 H778 0.930 . S
C788 C787 1.400 . S
C788 C791 1.386 . S
H789 C805 0.930 . S
H790 C806 0.911 1_565 S
C791 H779 0.929 . S
C791 C785 1.390 . S
C791 C788 1.386 . S
C792 C787 1.490 . S
C792 C794 1.395 . S
C792 C795 1.403 . S
H793 C799 0.930 . S
C794 H780 0.930 . S
C794 C792 1.395 . S
C794 C797 1.403 . S
C795 C792 1.403 . S
C795 C796 1.524 . S
C795 C799 1.400 . S
C796 H781 0.960 . S
C796 H782 0.960 . S
C796 H783 0.960 . S
C796 C795 1.524 . S
C797 C794 1.403 . S
C797 C798 1.392 . S
C797 C801 1.495 . S
C798 C797 1.392 . S
C798 C799 1.385 . S
C798 C800 1.478 . S
C799 H793 0.930 . S
C799 C795 1.400 . S
C799 C798 1.385 . S
C800 C798 1.478 . S
C800 C802 1.381 1_565 S
C800 C806 1.368 1_565 S
C801 C797 1.495 . S
C801 H807 0.959 . S
C801 H808 0.961 . S
C801 H809 0.960 . S
C802 C800 1.381 1_545 S
C802 C803 1.394 . S
C802 H810 0.930 1_545 S
C803 C802 1.394 . S
C803 C804 1.383 . S
C803 H811 0.929 . S
C804 C803 1.383 . S
C804 C805 1.377 . S
C805 H789 0.930 . S
C805 C804 1.377 . S
C805 C806 1.414 . S
C806 H790 0.911 1_545 S
C806 C800 1.368 1_545 S
C806 C805 1.414 . S
H807 C801 0.959 . S
H808 C801 0.961 . S
H809 C801 0.960 . S
H810 C802 0.930 1_565 S
H811 C803 0.929 . S
H812 C820 0.929 . S
H813 C822 0.930 . S
H814 C824 0.930 . S
H815 C827 0.929 . S
H816 C830 0.930 . S
H817 C832 0.960 . S
H818 C832 0.960 . S
H819 C832 0.960 . S
C820 H812 0.929 . S
C820 C821 1.377 . S
C820 C822 1.384 . S
C821 C820 1.377 . S
C821 C827 1.390 . S
C822 H813 0.930 . S
C822 C820 1.384 . S
C822 C823 1.372 . S
C823 C822 1.372 . S
C823 C824 1.400 . S
C823 C828 1.490 . S
C824 H814 0.930 . S
C824 C823 1.400 . S
C824 C827 1.386 . S
H825 C841 0.930 . S
H826 C842 0.931 . S
C827 H815 0.929 . S
C827 C821 1.390 . S
C827 C824 1.386 . S
C828 C823 1.490 . S
C828 C830 1.395 . S
C828 C831 1.403 . S
H829 C835 0.930 1_655 S
C830 H816 0.930 . S
C830 C828 1.395 . S
C830 C833 1.403 . S
C831 C828 1.403 . S
C831 C832 1.524 1_455 S
C831 C835 1.400 . S
C832 H817 0.960 . S
C832 H818 0.960 . S
C832 H819 0.960 . S
C832 C831 1.524 1_655 S
C833 C830 1.403 . S
C833 C834 1.392 . S
C833 C837 1.495 . S
C834 C833 1.392 . S
C834 C835 1.385 . S
C834 C836 1.478 . S
C835 H829 0.930 1_455 S
C835 C831 1.400 . S
C835 C834 1.385 . S
C836 C834 1.478 . S
C836 C838 1.381 1_545 S
C836 C842 1.383 . S
C837 C833 1.495 . S
C837 H843 0.959 . S
C837 H844 0.961 . S
C837 H845 0.960 . S
C838 C836 1.381 1_565 S
C838 C839 1.394 . S
C838 H846 0.930 . S
C839 C838 1.394 . S
C839 C840 1.383 . S
C839 H847 0.929 . S
C840 C839 1.383 . S
C840 C841 1.377 . S
C841 H825 0.930 . S
C841 C840 1.377 . S
C841 C842 1.379 1_565 S
C842 H826 0.931 . S
C842 C836 1.383 . S
C842 C841 1.379 1_545 S
H843 C837 0.959 . S
H844 C837 0.961 . S
H845 C837 0.960 . S
H846 C838 0.930 . S
H847 C839 0.929 . S
H848 C856 0.929 1_655 S
H849 C858 0.930 1_655 S
H850 C860 0.930 . S
H851 C863 0.929 . S
H852 C866 0.930 1_655 S
H853 C868 0.960 1_556 S
H854 C868 0.960 . S
H855 C868 0.960 . S
C856 H848 0.929 1_455 S
C856 C857 1.377 . S
C856 C858 1.384 . S
C857 C856 1.377 . S
C857 C863 1.390 . S
C858 H849 0.930 1_455 S
C858 C856 1.384 . S
C858 C859 1.372 . S
C859 C858 1.372 . S
C859 C860 1.400 . S
C859 C864 1.490 1_554 S
C860 H850 0.930 . S
C860 C859 1.400 . S
C860 C863 1.386 . S
H861 C877 0.930 . S
H862 C878 0.931 . S
C863 H851 0.929 . S
C863 C857 1.390 . S
C863 C860 1.386 . S
C864 C859 1.490 1_556 S
C864 C866 1.395 . S
C864 C867 1.403 . S
H865 C871 0.930 . S
C866 H852 0.930 1_455 S
C866 C864 1.395 . S
C866 C869 1.403 . S
C867 C864 1.403 . S
C867 C868 1.524 1_556 S
C867 C871 1.400 . S
C868 H853 0.960 1_554 S
C868 H854 0.960 . S
C868 H855 0.960 . S
C868 C867 1.524 1_554 S
C869 C866 1.403 . S
C869 C870 1.392 . S
C869 C873 1.495 1_455 S
C870 C869 1.392 . S
C870 C871 1.385 . S
C870 C872 1.478 . S
C871 H865 0.930 . S
C871 C867 1.400 . S
C871 C870 1.385 . S
C872 C870 1.478 . S
C872 C874 1.381 . S
C872 C878 1.383 . S
C873 C869 1.495 1_655 S
C873 H879 0.959 . S
C873 H880 0.961 . S
C873 H881 0.960 . S
C874 C872 1.381 . S
C874 C875 1.394 . S
C874 H882 0.930 1_455 S
C875 C874 1.394 . S
C875 C876 1.383 . S
C875 H883 0.929 1_455 S
C876 C875 1.383 . S
C876 C877 1.377 . S
C877 H861 0.930 . S
C877 C876 1.377 . S
C877 C878 1.379 . S
C878 H862 0.931 . S
C878 C872 1.383 . S
C878 C877 1.379 . S
H879 C873 0.959 . S
H880 C873 0.961 . S
H881 C873 0.960 . S
H882 C874 0.930 1_655 S
H883 C875 0.929 1_655 S
H884 C892 0.929 . S
H885 C894 0.930 . S
H886 C896 0.930 . S
H887 C899 0.929 . S
H888 C902 0.930 . S
H889 C904 0.960 . S
H890 C904 0.960 . S
H891 C904 0.960 . S
C892 H884 0.929 . S
C892 C893 1.377 . S
C892 C894 1.384 . S
C893 C892 1.377 . S
C893 C899 1.390 . S
C894 H885 0.930 . S
C894 C892 1.384 . S
C894 C895 1.372 . S
C895 C894 1.372 . S
C895 C896 1.400 . S
C895 C900 1.490 . S
C896 H886 0.930 . S
C896 C895 1.400 . S
C896 C899 1.386 . S
H897 C913 0.930 . S
H898 C914 0.931 . S
C899 H887 0.929 . S
C899 C893 1.390 . S
C899 C896 1.386 . S
C900 C895 1.490 . S
C900 C902 1.395 . S
C900 C903 1.403 . S
H901 C907 0.930 . S
C902 H888 0.930 . S
C902 C900 1.395 . S
C902 C905 1.403 . S
C903 C900 1.403 . S
C903 C904 1.524 . S
C903 C907 1.400 . S
C904 H889 0.960 . S
C904 H890 0.960 . S
C904 H891 0.960 . S
C904 C903 1.524 . S
C905 C902 1.403 . S
C905 C906 1.392 . S
C905 C909 1.495 . S
C906 C905 1.392 . S
C906 C907 1.385 . S
C906 C908 1.478 . S
C907 H901 0.930 . S
C907 C903 1.400 . S
C907 C906 1.385 . S
C908 C906 1.478 . S
C908 C910 1.381 . S
C908 C914 1.383 . S
C909 C905 1.495 . S
C909 H915 0.959 . S
C909 H916 0.961 . S
C909 H917 0.960 . S
C910 C908 1.381 . S
C910 C911 1.394 . S
C910 H918 0.930 . S
C911 C910 1.394 . S
C911 C912 1.383 . S
C911 H919 0.929 . S
C912 C911 1.383 . S
C912 C913 1.377 . S
C913 H897 0.930 . S
C913 C912 1.377 . S
C913 C914 1.379 . S
C914 H898 0.931 . S
C914 C908 1.383 . S
C914 C913 1.379 . S
H915 C909 0.959 . S
H916 C909 0.961 . S
H917 C909 0.960 . S
H918 C910 0.930 . S
H919 C911 0.929 . S
H920 C928 0.929 1_655 S
H921 C930 0.930 1_655 S
H922 C932 0.930 . S
H923 C935 0.929 . S
H924 C938 0.930 1_655 S
H925 C940 0.960 . S
H926 C940 0.960 . S
H927 C940 0.960 . S
C928 H920 0.929 1_455 S
C928 C929 1.377 . S
C928 C930 1.384 . S
C929 C928 1.377 . S
C929 C935 1.390 . S
C930 H921 0.930 1_455 S
C930 C928 1.384 . S
C930 C931 1.372 . S
C931 C930 1.372 . S
C931 C932 1.400 . S
C931 C936 1.490 . S
C932 H922 0.930 . S
C932 C931 1.400 . S
C932 C935 1.386 . S
H933 C949 0.930 . S
H934 C950 0.931 . S
C935 H923 0.929 . S
C935 C929 1.390 . S
C935 C932 1.386 . S
C936 C931 1.490 . S
C936 C938 1.395 . S
C936 C939 1.403 . S
H937 C943 0.930 . S
C938 H924 0.930 1_455 S
C938 C936 1.395 . S
C938 C941 1.403 . S
C939 C936 1.403 . S
C939 C940 1.524 . S
C939 C943 1.400 . S
C940 H925 0.960 . S
C940 H926 0.960 . S
C940 H927 0.960 . S
C940 C939 1.524 . S
C941 C938 1.403 . S
C941 C942 1.392 . S
C941 C945 1.495 1_454 S
C942 C941 1.392 . S
C942 C943 1.385 . S
C942 C944 1.478 1_554 S
C943 H937 0.930 . S
C943 C939 1.400 . S
C943 C942 1.385 . S
C944 C942 1.478 1_556 S
C944 C946 1.381 . S
C944 C950 1.383 . S
C945 C941 1.495 1_656 S
C945 H951 0.959 1_556 S
C945 H952 0.961 . S
C945 H953 0.960 . S
C946 C944 1.381 . S
C946 C947 1.394 . S
C946 H954 0.930 1_455 S
C947 C946 1.394 . S
C947 C948 1.383 . S
C947 H955 0.929 1_455 S
C948 C947 1.383 . S
C948 C949 1.377 . S
C949 H933 0.930 . S
C949 C948 1.377 . S
C949 C950 1.379 . S
C950 H934 0.931 . S
C950 C944 1.383 . S
C950 C949 1.379 . S
H951 C945 0.959 1_554 S
H952 C945 0.961 . S
H953 C945 0.960 . S
H954 C946 0.930 1_655 S
H955 C947 0.929 1_655 S
H956 C964 0.929 . S
H957 C966 0.930 . S
H958 C968 0.930 . S
H959 C971 0.929 . S
H960 C974 0.930 . S
H961 C976 0.960 . S
H962 C976 0.960 . S
H963 C976 0.960 . S
C964 H956 0.929 . S
C964 C965 1.377 . S
C964 C966 1.384 . S
C965 C964 1.377 . S
C965 C971 1.390 . S
C966 H957 0.930 . S
C966 C964 1.384 . S
C966 C967 1.372 . S
C967 C966 1.372 . S
C967 C968 1.400 . S
C967 C972 1.490 . S
C968 H958 0.930 . S
C968 C967 1.400 . S
C968 C971 1.386 . S
H969 C985 0.930 . S
H970 C986 0.931 . S
C971 H959 0.929 . S
C971 C965 1.390 . S
C971 C968 1.386 . S
C972 C967 1.490 . S
C972 C974 1.395 . S
C972 C975 1.403 . S
H973 C979 0.930 . S
C974 H960 0.930 . S
C974 C972 1.395 . S
C974 C977 1.403 . S
C975 C972 1.403 . S
C975 C976 1.524 . S
C975 C979 1.400 . S
C976 H961 0.960 . S
C976 H962 0.960 . S
C976 H963 0.960 . S
C976 C975 1.524 . S
C977 C974 1.403 . S
C977 C978 1.392 . S
C977 C981 1.495 . S
C978 C977 1.392 . S
C978 C979 1.385 . S
C978 C980 1.478 . S
C979 H973 0.930 . S
C979 C975 1.400 . S
C979 C978 1.385 . S
C980 C978 1.478 . S
C980 C982 1.381 . S
C980 C986 1.383 . S
C981 C977 1.495 . S
C981 H987 0.959 . S
C981 H988 0.961 . S
C981 H989 0.960 . S
C982 C980 1.381 . S
C982 C983 1.394 . S
C982 H990 0.930 . S
C983 C982 1.394 . S
C983 C984 1.383 . S
C983 H991 0.929 . S
C984 C983 1.383 . S
C984 C985 1.377 . S
C985 H969 0.930 . S
C985 C984 1.377 . S
C985 C986 1.379 . S
C986 H970 0.931 . S
C986 C980 1.383 . S
C986 C985 1.379 . S
H987 C981 0.959 . S
H988 C981 0.961 . S
H989 C981 0.960 . S
H990 C982 0.930 . S
H991 C983 0.929 . S
H992 C1000 0.929 . S
H993 C1002 0.930 . S
H994 C1004 0.930 . S
H995 C1007 0.929 . S
H996 C1010 0.930 . S
H997 C1012 0.960 . S
H998 C1012 0.960 . S
H999 C1012 0.960 . S
C1000 H992 0.929 . S
C1000 C1001 1.377 . S
C1000 C1002 1.384 . S
C1001 C1000 1.377 . S
C1001 C1007 1.390 . S
C1002 H993 0.930 . S
C1002 C1000 1.384 . S
C1002 C1003 1.372 . S
C1003 C1002 1.372 . S
C1003 C1004 1.400 . S
C1003 C1008 1.490 1_554 S
C1004 H994 0.930 . S
C1004 C1003 1.400 . S
C1004 C1007 1.386 . S
H1005 C1021 0.930 . S
H1006 C1022 0.931 . S
C1007 H995 0.929 . S
C1007 C1001 1.390 . S
C1007 C1004 1.386 . S
C1008 C1003 1.490 1_556 S
C1008 C1010 1.395 . S
C1008 C1011 1.403 . S
H1009 C1015 0.930 . S
C1010 H996 0.930 . S
C1010 C1008 1.395 . S
C1010 C1013 1.403 . S
C1011 C1008 1.403 . S
C1011 C1012 1.524 . S
C1011 C1015 1.400 . S
C1012 H997 0.960 . S
C1012 H998 0.960 . S
C1012 H999 0.960 . S
C1012 C1011 1.524 . S
C1013 C1010 1.403 . S
C1013 C1014 1.392 . S
C1013 C1017 1.495 . S
C1014 C1013 1.392 . S
C1014 C1015 1.385 . S
C1014 C1016 1.478 . S
C1015 H1009 0.930 . S
C1015 C1011 1.400 . S
C1015 C1014 1.385 . S
C1016 C1014 1.478 . S
C1016 C1018 1.381 . S
C1016 C1022 1.383 . S
C1017 C1013 1.495 . S
C1017 H1023 0.959 . S
C1017 H1024 0.961 . S
C1017 H1025 0.960 . S
C1018 C1016 1.381 . S
C1018 C1019 1.394 . S
C1018 H1026 0.930 . S
C1019 C1018 1.394 . S
C1019 C1020 1.383 . S
C1019 H1027 0.929 . S
C1020 C1019 1.383 . S
C1020 C1021 1.377 . S
C1021 H1005 0.930 . S
C1021 C1020 1.377 . S
C1021 C1022 1.379 . S
C1022 H1006 0.931 . S
C1022 C1016 1.383 . S
C1022 C1021 1.379 . S
H1023 C1017 0.959 . S
H1024 C1017 0.961 . S
H1025 C1017 0.960 . S
H1026 C1018 0.930 . S
H1027 C1019 0.929 . S
H1028 C1036 0.929 . S
H1029 C1038 0.930 . S
H1030 C1040 0.930 . S
H1031 C1043 0.929 . S
H1032 C1046 0.930 . S
H1033 C1048 0.960 . S
H1034 C1048 0.960 1_655 S
H1035 C1048 0.960 . S
C1036 H1028 0.929 . S
C1036 C1037 1.377 . S
C1036 C1038 1.384 . S
C1037 C1036 1.377 . S
C1037 C1043 1.390 . S
C1038 H1029 0.930 . S
C1038 C1036 1.384 . S
C1038 C1039 1.372 . S
C1039 C1038 1.372 . S
C1039 C1040 1.400 . S
C1039 C1044 1.490 . S
C1040 H1030 0.930 . S
C1040 C1039 1.400 . S
C1040 C1043 1.386 . S
H1041 C1057 0.930 . S
H1042 C1058 0.931 . S
C1043 H1031 0.929 . S
C1043 C1037 1.390 . S
C1043 C1040 1.386 . S
C1044 C1039 1.490 . S
C1044 C1046 1.395 . S
C1044 C1047 1.403 . S
H1045 C1051 0.930 . S
C1046 H1032 0.930 . S
C1046 C1044 1.395 . S
C1046 C1049 1.403 . S
C1047 C1044 1.403 . S
C1047 C1048 1.524 . S
C1047 C1051 1.400 . S
C1048 H1033 0.960 . S
C1048 H1034 0.960 1_455 S
C1048 H1035 0.960 . S
C1048 C1047 1.524 . S
C1049 C1046 1.403 . S
C1049 C1050 1.392 . S
C1049 C1053 1.495 . S
C1050 C1049 1.392 . S
C1050 C1051 1.385 . S
C1050 C1052 1.478 . S
C1051 H1045 0.930 . S
C1051 C1047 1.400 . S
C1051 C1050 1.385 . S
C1052 C1050 1.478 . S
C1052 C1054 1.381 . S
C1052 C1058 1.383 . S
C1053 C1049 1.495 . S
C1053 H1059 0.959 . S
C1053 H1060 0.961 . S
C1053 H1061 0.960 . S
C1054 C1052 1.381 . S
C1054 C1055 1.394 . S
C1054 H1062 0.930 . S
C1055 C1054 1.394 . S
C1055 C1056 1.383 . S
C1055 H1063 0.929 . S
C1056 C1055 1.383 . S
C1056 C1057 1.377 . S
C1057 H1041 0.930 . S
C1057 C1056 1.377 . S
C1057 C1058 1.379 . S
C1058 H1042 0.931 . S
C1058 C1052 1.383 . S
C1058 C1057 1.379 . S
H1059 C1053 0.959 . S
H1060 C1053 0.961 . S
H1061 C1053 0.960 . S
H1062 C1054 0.930 . S
H1063 C1055 0.929 . S
H1064 C1072 0.929 . S
H1065 C1074 0.930 . S
H1066 C1076 0.930 . S
H1067 C1079 0.929 . S
H1068 C1082 0.930 1_556 S
H1069 C1084 0.960 . S
H1070 C1084 0.960 . S
H1071 C1084 0.960 . S
C1072 H1064 0.929 . S
C1072 C1073 1.377 . S
C1072 C1074 1.384 . S
C1073 C1072 1.377 . S
C1073 C1079 1.390 . S
C1074 H1065 0.930 . S
C1074 C1072 1.384 . S
C1074 C1075 1.372 . S
C1075 C1074 1.372 . S
C1075 C1076 1.400 . S
C1075 C1080 1.490 1_556 S
C1076 H1066 0.930 . S
C1076 C1075 1.400 . S
C1076 C1079 1.386 . S
H1077 C1093 0.930 . S
H1078 C1094 0.931 . S
C1079 H1067 0.929 . S
C1079 C1073 1.390 . S
C1079 C1076 1.386 . S
C1080 C1075 1.490 1_554 S
C1080 C1082 1.395 . S
C1080 C1083 1.403 . S
H1081 C1087 0.930 . S
C1082 H1068 0.930 1_554 S
C1082 C1080 1.395 . S
C1082 C1085 1.403 . S
C1083 C1080 1.403 . S
C1083 C1084 1.524 . S
C1083 C1087 1.400 . S
C1084 H1069 0.960 . S
C1084 H1070 0.960 . S
C1084 H1071 0.960 . S
C1084 C1083 1.524 . S
C1085 C1082 1.403 . S
C1085 C1086 1.392 . S
C1085 C1089 1.495 . S
C1086 C1085 1.392 . S
C1086 C1087 1.385 . S
C1086 C1088 1.478 . S
C1087 H1081 0.930 . S
C1087 C1083 1.400 . S
C1087 C1086 1.385 . S
C1088 C1086 1.478 . S
C1088 C1090 1.381 . S
C1088 C1094 1.383 . S
C1089 C1085 1.495 . S
C1089 H1095 0.959 . S
C1089 H1096 0.961 . S
C1089 H1097 0.960 . S
C1090 C1088 1.381 . S
C1090 C1091 1.394 . S
C1090 H1098 0.930 . S
C1091 C1090 1.394 . S
C1091 C1092 1.383 . S
C1091 H1099 0.929 . S
C1092 C1091 1.383 . S
C1092 C1093 1.377 . S
C1093 H1077 0.930 . S
C1093 C1092 1.377 . S
C1093 C1094 1.379 . S
C1094 H1078 0.931 . S
C1094 C1088 1.383 . S
C1094 C1093 1.379 . S
H1095 C1089 0.959 . S
H1096 C1089 0.961 . S
H1097 C1089 0.960 . S
H1098 C1090 0.930 . S
H1099 C1091 0.929 . S
H1100 C1108 0.929 . S
H1101 C1110 0.930 . S
H1102 C1112 0.930 . S
H1103 C1115 0.929 . S
H1104 C1118 0.930 . S
H1105 C1120 0.958 1_655 S
H1106 C1120 0.960 1_655 S
H1107 C1120 0.960 . S
C1108 H1100 0.929 . S
C1108 C1109 1.377 . S
C1108 C1110 1.384 . S
C1109 C1108 1.377 . S
C1109 C1115 1.390 . S
C1110 H1101 0.930 . S
C1110 C1108 1.384 . S
C1110 C1111 1.372 . S
C1111 C1110 1.372 . S
C1111 C1112 1.400 . S
C1111 C1116 1.490 . S
C1112 H1102 0.930 . S
C1112 C1111 1.400 . S
C1112 C1115 1.386 . S
H1113 C1129 0.930 . S
H1114 C1130 0.931 . S
C1115 H1103 0.929 . S
C1115 C1109 1.390 . S
C1115 C1112 1.386 . S
C1116 C1111 1.490 . S
C1116 C1118 1.395 . S
C1116 C1119 1.403 . S
H1117 C1123 0.930 . S
C1118 H1104 0.930 . S
C1118 C1116 1.395 . S
C1118 C1121 1.403 . S
C1119 C1116 1.403 . S
C1119 C1120 1.524 . S
C1119 C1123 1.400 . S
C1120 H1105 0.958 1_455 S
C1120 H1106 0.960 1_455 S
C1120 H1107 0.960 . S
C1120 C1119 1.524 . S
C1121 C1118 1.403 . S
C1121 C1122 1.392 . S
C1121 C1125 1.495 . S
C1122 C1121 1.392 . S
C1122 C1123 1.385 . S
C1122 C1124 1.478 . S
C1123 H1117 0.930 . S
C1123 C1119 1.400 . S
C1123 C1122 1.385 . S
C1124 C1122 1.478 . S
C1124 C1126 1.381 . S
C1124 C1130 1.383 . S
C1125 C1121 1.495 . S
C1125 H1131 0.959 . S
C1125 H1132 0.961 . S
C1125 H1133 0.960 . S
C1126 C1124 1.381 . S
C1126 C1127 1.394 . S
C1126 H1134 0.930 . S
C1127 C1126 1.394 . S
C1127 C1128 1.383 . S
C1127 H1135 0.929 . S
C1128 C1127 1.383 . S
C1128 C1129 1.377 . S
C1129 H1113 0.930 . S
C1129 C1128 1.377 . S
C1129 C1130 1.379 . S
C1130 H1114 0.931 . S
C1130 C1124 1.383 . S
C1130 C1129 1.379 . S
H1131 C1125 0.959 . S
H1132 C1125 0.961 . S
H1133 C1125 0.960 . S
H1134 C1126 0.930 . S
H1135 C1127 0.929 . S
H1136 C1144 0.929 . S
H1137 C1146 0.930 . S
H1138 C1148 0.930 . S
H1139 C1151 0.929 . S
H1140 C1154 0.930 . S
H1141 C1156 0.960 . S
H1142 C1156 0.960 . S
H1143 C1156 0.960 . S
C1144 H1136 0.929 . S
C1144 C1145 1.377 . S
C1144 C1146 1.384 . S
C1145 C1144 1.377 . S
C1145 C1151 1.390 . S
C1146 H1137 0.930 . S
C1146 C1144 1.384 . S
C1146 C1147 1.372 . S
C1147 C1146 1.372 . S
C1147 C1148 1.400 . S
C1147 C1152 1.490 . S
C1148 H1138 0.930 . S
C1148 C1147 1.400 . S
C1148 C1151 1.386 . S
H1149 C1165 0.930 . S
H1150 C1166 0.931 . S
C1151 H1139 0.929 . S
C1151 C1145 1.390 . S
C1151 C1148 1.386 . S
C1152 C1147 1.490 . S
C1152 C1154 1.395 . S
C1152 C1155 1.403 1_554 S
H1153 C1159 0.930 . S
C1154 H1140 0.930 . S
C1154 C1152 1.395 . S
C1154 C1157 1.403 . S
C1155 C1152 1.403 1_556 S
C1155 C1156 1.524 . S
C1155 C1159 1.400 . S
C1156 H1141 0.960 . S
C1156 H1142 0.960 . S
C1156 H1143 0.960 . S
C1156 C1155 1.524 . S
C1157 C1154 1.403 . S
C1157 C1158 1.392 1_554 S
C1157 C1161 1.495 . S
C1158 C1157 1.392 1_556 S
C1158 C1159 1.385 . S
C1158 C1160 1.478 . S
C1159 H1153 0.930 . S
C1159 C1155 1.400 . S
C1159 C1158 1.385 . S
C1160 C1158 1.478 . S
C1160 C1162 1.381 . S
C1160 C1166 1.383 . S
C1161 C1157 1.495 . S
C1161 H1167 0.959 . S
C1161 H1168 0.961 . S
C1161 H1169 0.960 . S
C1162 C1160 1.381 . S
C1162 C1163 1.394 . S
C1162 H1170 0.930 . S
C1163 C1162 1.394 . S
C1163 C1164 1.383 . S
C1163 H1171 0.929 . S
C1164 C1163 1.383 . S
C1164 C1165 1.377 . S
C1165 H1149 0.930 . S
C1165 C1164 1.377 . S
C1165 C1166 1.379 . S
C1166 H1150 0.931 . S
C1166 C1160 1.383 . S
C1166 C1165 1.379 . S
H1167 C1161 0.959 . S
H1168 C1161 0.961 . S
H1169 C1161 0.960 . S
H1170 C1162 0.930 . S
H1171 C1163 0.929 . S
H1172 C1180 0.929 . S
H1173 C1182 0.930 . S
H1174 C1184 0.930 . S
H1175 C1187 0.929 . S
H1176 C1190 0.930 . S
H1177 C1192 0.960 . S
H1178 C1192 0.960 . S
H1179 C1192 0.960 . S
C1180 H1172 0.929 . S
C1180 C1181 1.377 . S
C1180 C1182 1.384 . S
C1181 C1180 1.377 . S
C1181 C1187 1.390 . S
C1182 H1173 0.930 . S
C1182 C1180 1.384 . S
C1182 C1183 1.372 . S
C1183 C1182 1.372 . S
C1183 C1184 1.400 . S
C1183 C1188 1.490 . S
C1184 H1174 0.930 . S
C1184 C1183 1.400 . S
C1184 C1187 1.386 . S
H1185 C1201 0.930 . S
H1186 C1202 0.931 . S
C1187 H1175 0.929 . S
C1187 C1181 1.390 . S
C1187 C1184 1.386 . S
C1188 C1183 1.490 . S
C1188 C1190 1.395 . S
C1188 C1191 1.403 . S
H1189 C1195 0.930 . S
C1190 H1176 0.930 . S
C1190 C1188 1.395 . S
C1190 C1193 1.403 . S
C1191 C1188 1.403 . S
C1191 C1192 1.524 . S
C1191 C1195 1.400 . S
C1192 H1177 0.960 . S
C1192 H1178 0.960 . S
C1192 H1179 0.960 . S
C1192 C1191 1.524 . S
C1193 C1190 1.403 . S
C1193 C1194 1.392 . S
C1193 C1197 1.495 . S
C1194 C1193 1.392 . S
C1194 C1195 1.385 . S
C1194 C1196 1.478 . S
C1195 H1189 0.930 . S
C1195 C1191 1.400 . S
C1195 C1194 1.385 . S
C1196 C1194 1.478 . S
C1196 C1198 1.381 . S
C1196 C1202 1.383 . S
C1197 C1193 1.495 . S
C1197 H1203 0.959 . S
C1197 H1204 0.961 . S
C1197 H1205 0.960 . S
C1198 C1196 1.381 . S
C1198 C1199 1.394 . S
C1198 H1206 0.930 . S
C1199 C1198 1.394 . S
C1199 C1200 1.383 . S
C1199 H1207 0.929 . S
C1200 C1199 1.383 . S
C1200 C1201 1.377 . S
C1201 H1185 0.930 . S
C1201 C1200 1.377 . S
C1201 C1202 1.379 . S
C1202 H1186 0.931 . S
C1202 C1196 1.383 . S
C1202 C1201 1.379 . S
H1203 C1197 0.959 . S
H1204 C1197 0.961 . S
H1205 C1197 0.960 . S
H1206 C1198 0.930 . S
H1207 C1199 0.929 . S
H1208 C1216 0.929 . S
H1209 C1218 0.930 . S
H1210 C1220 0.930 . S
H1211 C1223 0.929 . S
H1212 C1226 0.930 . S
H1213 C1228 0.960 . S
H1214 C1228 0.960 . S
H1215 C1228 0.960 . S
C1216 H1208 0.929 . S
C1216 C1217 1.377 . S
C1216 C1218 1.384 . S
C1217 C1216 1.377 . S
C1217 C1223 1.390 . S
C1218 H1209 0.930 . S
C1218 C1216 1.384 . S
C1218 C1219 1.372 . S
C1219 C1218 1.372 . S
C1219 C1220 1.400 . S
C1219 C1224 1.490 . S
C1220 H1210 0.930 . S
C1220 C1219 1.400 . S
C1220 C1223 1.386 . S
H1221 C1237 0.930 . S
H1222 C1238 0.931 . S
C1223 H1211 0.929 . S
C1223 C1217 1.390 . S
C1223 C1220 1.386 . S
C1224 C1219 1.490 . S
C1224 C1226 1.395 1_554 S
C1224 C1227 1.403 1_565 S
H1225 C1231 0.930 . S
C1226 H1212 0.930 . S
C1226 C1224 1.395 1_556 S
C1226 C1229 1.403 . S
C1227 C1224 1.403 1_545 S
C1227 C1228 1.524 . S
C1227 C1231 1.400 . S
C1228 H1213 0.960 . S
C1228 H1214 0.960 . S
C1228 H1215 0.960 . S
C1228 C1227 1.524 . S
C1229 C1226 1.403 . S
C1229 C1230 1.392 1_565 S
C1229 C1233 1.495 . S
C1230 C1229 1.392 1_545 S
C1230 C1231 1.385 1_556 S
C1230 C1232 1.478 . S
C1231 H1225 0.930 . S
C1231 C1227 1.400 . S
C1231 C1230 1.385 1_554 S
C1232 C1230 1.478 . S
C1232 C1234 1.381 . S
C1232 C1238 1.383 . S
C1233 C1229 1.495 . S
C1233 H1239 0.959 . S
C1233 H1240 0.961 . S
C1233 H1241 0.960 . S
C1234 C1232 1.381 . S
C1234 C1235 1.394 . S
C1234 H1242 0.930 . S
C1235 C1234 1.394 . S
C1235 C1236 1.383 . S
C1235 H1243 0.929 . S
C1236 C1235 1.383 . S
C1236 C1237 1.377 . S
C1237 H1221 0.930 . S
C1237 C1236 1.377 . S
C1237 C1238 1.379 . S
C1238 H1222 0.931 . S
C1238 C1232 1.383 . S
C1238 C1237 1.379 . S
H1239 C1233 0.959 . S
H1240 C1233 0.961 . S
H1241 C1233 0.960 . S
H1242 C1234 0.930 . S
H1243 C1235 0.929 . S
H1244 C1252 0.929 . S
H1245 C1254 0.930 . S
H1246 C1256 0.930 . S
H1247 C1259 0.929 . S
H1248 C1262 0.930 . S
H1249 C1264 0.960 . S
H1250 C1264 0.960 . S
H1251 C1264 0.960 . S
C1252 H1244 0.929 . S
C1252 C1253 1.377 . S
C1252 C1254 1.384 . S
C1253 C1252 1.377 . S
C1253 C1259 1.390 1_455 S
C1254 H1245 0.930 . S
C1254 C1252 1.384 . S
C1254 C1255 1.372 . S
C1255 C1254 1.372 . S
C1255 C1256 1.400 1_455 S
C1255 C1260 1.490 . S
C1256 H1246 0.930 . S
C1256 C1255 1.400 1_655 S
C1256 C1259 1.386 . S
H1257 C1273 0.930 . S
H1258 C1274 0.931 . S
C1259 H1247 0.929 . S
C1259 C1253 1.390 1_655 S
C1259 C1256 1.386 . S
C1260 C1255 1.490 . S
C1260 C1262 1.395 . S
C1260 C1263 1.403 1_455 S
H1261 C1267 0.930 . S
C1262 H1248 0.930 . S
C1262 C1260 1.395 . S
C1262 C1265 1.403 1_545 S
C1263 C1260 1.403 1_655 S
C1263 C1264 1.524 . S
C1263 C1267 1.400 1_545 S
C1264 H1249 0.960 . S
C1264 H1250 0.960 . S
C1264 H1251 0.960 . S
C1264 C1263 1.524 . S
C1265 C1262 1.403 1_565 S
C1265 C1266 1.392 . S
C1265 C1269 1.495 . S
C1266 C1265 1.392 . S
C1266 C1267 1.385 1_455 S
C1266 C1268 1.478 . S
C1267 H1261 0.930 . S
C1267 C1263 1.400 1_565 S
C1267 C1266 1.385 1_655 S
C1268 C1266 1.478 . S
C1268 C1270 1.381 . S
C1268 C1274 1.383 1_455 S
C1269 C1265 1.495 . S
C1269 H1275 0.959 . S
C1269 H1276 0.961 . S
C1269 H1277 0.960 . S
C1270 C1268 1.381 . S
C1270 C1271 1.394 . S
C1270 H1278 0.930 . S
C1271 C1270 1.394 . S
C1271 C1272 1.383 . S
C1271 H1279 0.929 . S
C1272 C1271 1.383 . S
C1272 C1273 1.377 1_455 S
C1273 H1257 0.930 . S
C1273 C1272 1.377 1_655 S
C1273 C1274 1.379 . S
C1274 H1258 0.931 . S
C1274 C1268 1.383 1_655 S
C1274 C1273 1.379 . S
H1275 C1269 0.959 . S
H1276 C1269 0.961 . S
H1277 C1269 0.960 . S
H1278 C1270 0.930 . S
H1279 C1271 0.929 . S
C281 C22 1.182 . S
C300 C124 1.216 . S
C317 C90 1.184 . S
C336 C49 1.186 . S
C353 C56 2.113 . S
C372 C83 2.103 . S
C389 C15 2.123 . S
C408 C117 2.122 . S
C425 C260 1.191 . S
C444 C158 1.152 . S
C461 C226 1.198 . S
C480 C185 1.176 . S
C497 C219 2.113 . S
C516 C192 2.107 . S
C533 C253 2.118 . S
C552 C151 2.138 . S
C569 C266 0.909 . S
C588 C6 0.918 . S
C605 C232 0.914 . S
C624 C62 0.904 . S
C641 C74 0.914 . S
C660 C176 0.902 . S
C677 C164 0.914 . S
C696 C108 0.903 . S
C713 C142 0.916 . S
C732 C130 0.890 . S
C749 C96 0.911 . S
C768 C198 0.914 . S
C785 C40 0.910 . S
C804 C210 0.913 . S
C821 C28 0.913 . S
C840 C244 0.907 . S
C857 C3 1.434 . S
C876 C187 1.520 . S
C893 C35 1.419 . S
C912 C153 1.543 . S
C929 C255 1.531 . S
C948 C71 1.460 . S
C965 C105 1.429 . S
C984 C221 1.530 . S
C1001 C139 1.427 . S
C1020 C51 1.534 . S
C1037 C171 1.423 . S
C1056 C17 1.540 . S
C1073 C207 1.419 . S
C1092 C119 1.541 . S
C1109 C241 1.423 . S
C1128 C85 1.539 . S
C1145 C1 1.912 . S
C1164 C69 1.898 . S
C1181 C37 1.917 . S
C1200 C103 1.928 . S
C1217 C137 1.922 . S
C1236 C205 1.927 . S
C1253 C173 1.914 . S
C1272 C239 1.888 . S
