# Generated by pormake.
# Topology dei, (4)-cn, num edge types: 1
# Building blocks:
#     Node 0, Type 0, BuildingBlock: AZAVOO_clean_sbu_0, # of connection points: 4
#     Node 1, Type 0, BuildingBlock: AZAVOO_clean_sbu_0, # of connection points: 4
#     Node 2, Type 0, BuildingBlock: AZAVOO_clean_sbu_0, # of connection points: 4
#     Node 3, Type 0, BuildingBlock: AZAVOO_clean_sbu_0, # of connection points: 4
#     Node 4, Type 0, BuildingBlock: AZAVOO_clean_sbu_0, # of connection points: 4
#     Node 5, Type 0, BuildingBlock: AZAVOO_clean_sbu_0, # of connection points: 4
#     Node 6, Type 0, BuildingBlock: AZAVOO_clean_sbu_0, # of connection points: 4
#     Node 7, Type 0, BuildingBlock: AZAVOO_clean_sbu_0, # of connection points: 4
#     Node 8, Type 0, BuildingBlock: AZAVOO_clean_sbu_0, # of connection points: 4
#     Node 9, Type 0, BuildingBlock: AZAVOO_clean_sbu_0, # of connection points: 4
#     Node 10, Type 0, BuildingBlock: AZAVOO_clean_sbu_0, # of connection points: 4
#     Node 11, Type 0, BuildingBlock: AZAVOO_clean_sbu_0, # of connection points: 4
#     Node 12, Type 0, BuildingBlock: AZAVOO_clean_sbu_0, # of connection points: 4
#     Node 13, Type 0, BuildingBlock: AZAVOO_clean_sbu_0, # of connection points: 4
#     Node 14, Type 0, BuildingBlock: AZAVOO_clean_sbu_0, # of connection points: 4
#     Node 15, Type 0, BuildingBlock: AZAVOO_clean_sbu_0, # of connection points: 4
#     Node 16, Type 0, BuildingBlock: AZAVOO_clean_sbu_0, # of connection points: 4
#     Node 17, Type 0, BuildingBlock: AZAVOO_clean_sbu_0, # of connection points: 4
#     Node 18, Type 0, BuildingBlock: AZAVOO_clean_sbu_0, # of connection points: 4
#     Node 19, Type 0, BuildingBlock: AZAVOO_clean_sbu_0, # of connection points: 4
#     Node 20, Type 0, BuildingBlock: AZAVOO_clean_sbu_0, # of connection points: 4
#     Node 21, Type 0, BuildingBlock: AZAVOO_clean_sbu_0, # of connection points: 4
#     Node 22, Type 0, BuildingBlock: AZAVOO_clean_sbu_0, # of connection points: 4
#     Node 23, Type 0, BuildingBlock: AZAVOO_clean_sbu_0, # of connection points: 4
#     Node 24, Type 0, BuildingBlock: AZAVOO_clean_sbu_0, # of connection points: 4
#     Node 25, Type 0, BuildingBlock: AZAVOO_clean_sbu_0, # of connection points: 4
#     Node 26, Type 0, BuildingBlock: AZAVOO_clean_sbu_0, # of connection points: 4
#     Node 27, Type 0, BuildingBlock: AZAVOO_clean_sbu_0, # of connection points: 4
#     Node 28, Type 0, BuildingBlock: AZAVOO_clean_sbu_0, # of connection points: 4
#     Node 29, Type 0, BuildingBlock: AZAVOO_clean_sbu_0, # of connection points: 4
#     Node 30, Type 0, BuildingBlock: AZAVOO_clean_sbu_0, # of connection points: 4
#     Node 31, Type 0, BuildingBlock: AZAVOO_clean_sbu_0, # of connection points: 4
#     Edge 32, Type (0, 0), BuildingBlock: AJUNOK_clean_linker_0, # of connection points: 2
#     Edge 33, Type (0, 0), BuildingBlock: AJUNOK_clean_linker_0, # of connection points: 2
#     Edge 34, Type (0, 0), BuildingBlock: AJUNOK_clean_linker_0, # of connection points: 2
#     Edge 35, Type (0, 0), BuildingBlock: AJUNOK_clean_linker_0, # of connection points: 2
#     Edge 36, Type (0, 0), BuildingBlock: AJUNOK_clean_linker_0, # of connection points: 2
#     Edge 37, Type (0, 0), BuildingBlock: AJUNOK_clean_linker_0, # of connection points: 2
#     Edge 38, Type (0, 0), BuildingBlock: AJUNOK_clean_linker_0, # of connection points: 2
#     Edge 39, Type (0, 0), BuildingBlock: AJUNOK_clean_linker_0, # of connection points: 2
#     Edge 40, Type (0, 0), BuildingBlock: AJUNOK_clean_linker_0, # of connection points: 2
#     Edge 41, Type (0, 0), BuildingBlock: AJUNOK_clean_linker_0, # of connection points: 2
#     Edge 42, Type (0, 0), BuildingBlock: AJUNOK_clean_linker_0, # of connection points: 2
#     Edge 43, Type (0, 0), BuildingBlock: AJUNOK_clean_linker_0, # of connection points: 2
#     Edge 44, Type (0, 0), BuildingBlock: AJUNOK_clean_linker_0, # of connection points: 2
#     Edge 45, Type (0, 0), BuildingBlock: AJUNOK_clean_linker_0, # of connection points: 2
#     Edge 46, Type (0, 0), BuildingBlock: AJUNOK_clean_linker_0, # of connection points: 2
#     Edge 47, Type (0, 0), BuildingBlock: AJUNOK_clean_linker_0, # of connection points: 2
#     Edge 48, Type (0, 0), BuildingBlock: AJUNOK_clean_linker_0, # of connection points: 2
#     Edge 49, Type (0, 0), BuildingBlock: AJUNOK_clean_linker_0, # of connection points: 2
#     Edge 50, Type (0, 0), BuildingBlock: AJUNOK_clean_linker_0, # of connection points: 2
#     Edge 51, Type (0, 0), BuildingBlock: AJUNOK_clean_linker_0, # of connection points: 2
#     Edge 52, Type (0, 0), BuildingBlock: AJUNOK_clean_linker_0, # of connection points: 2
#     Edge 53, Type (0, 0), BuildingBlock: AJUNOK_clean_linker_0, # of connection points: 2
#     Edge 54, Type (0, 0), BuildingBlock: AJUNOK_clean_linker_0, # of connection points: 2
#     Edge 55, Type (0, 0), BuildingBlock: AJUNOK_clean_linker_0, # of connection points: 2
#     Edge 56, Type (0, 0), BuildingBlock: AJUNOK_clean_linker_0, # of connection points: 2
#     Edge 57, Type (0, 0), BuildingBlock: AJUNOK_clean_linker_0, # of connection points: 2
#     Edge 58, Type (0, 0), BuildingBlock: AJUNOK_clean_linker_0, # of connection points: 2
#     Edge 59, Type (0, 0), BuildingBlock: AJUNOK_clean_linker_0, # of connection points: 2
#     Edge 60, Type (0, 0), BuildingBlock: AJUNOK_clean_linker_0, # of connection points: 2
#     Edge 61, Type (0, 0), BuildingBlock: AJUNOK_clean_linker_0, # of connection points: 2
#     Edge 62, Type (0, 0), BuildingBlock: AJUNOK_clean_linker_0, # of connection points: 2
#     Edge 63, Type (0, 0), BuildingBlock: AJUNOK_clean_linker_0, # of connection points: 2
#     Edge 64, Type (0, 0), BuildingBlock: AJUNOK_clean_linker_0, # of connection points: 2
#     Edge 65, Type (0, 0), BuildingBlock: AJUNOK_clean_linker_0, # of connection points: 2
#     Edge 66, Type (0, 0), BuildingBlock: AJUNOK_clean_linker_0, # of connection points: 2
#     Edge 67, Type (0, 0), BuildingBlock: AJUNOK_clean_linker_0, # of connection points: 2
#     Edge 68, Type (0, 0), BuildingBlock: AJUNOK_clean_linker_0, # of connection points: 2
#     Edge 69, Type (0, 0), BuildingBlock: AJUNOK_clean_linker_0, # of connection points: 2
#     Edge 70, Type (0, 0), BuildingBlock: AJUNOK_clean_linker_0, # of connection points: 2
#     Edge 71, Type (0, 0), BuildingBlock: AJUNOK_clean_linker_0, # of connection points: 2
#     Edge 72, Type (0, 0), BuildingBlock: AJUNOK_clean_linker_0, # of connection points: 2
#     Edge 73, Type (0, 0), BuildingBlock: AJUNOK_clean_linker_0, # of connection points: 2
#     Edge 74, Type (0, 0), BuildingBlock: AJUNOK_clean_linker_0, # of connection points: 2
#     Edge 75, Type (0, 0), BuildingBlock: AJUNOK_clean_linker_0, # of connection points: 2
#     Edge 76, Type (0, 0), BuildingBlock: AJUNOK_clean_linker_0, # of connection points: 2
#     Edge 77, Type (0, 0), BuildingBlock: AJUNOK_clean_linker_0, # of connection points: 2
#     Edge 78, Type (0, 0), BuildingBlock: AJUNOK_clean_linker_0, # of connection points: 2
#     Edge 79, Type (0, 0), BuildingBlock: AJUNOK_clean_linker_0, # of connection points: 2
#     Edge 80, Type (0, 0), BuildingBlock: AJUNOK_clean_linker_0, # of connection points: 2
#     Edge 81, Type (0, 0), BuildingBlock: AJUNOK_clean_linker_0, # of connection points: 2
#     Edge 82, Type (0, 0), BuildingBlock: AJUNOK_clean_linker_0, # of connection points: 2
#     Edge 83, Type (0, 0), BuildingBlock: AJUNOK_clean_linker_0, # of connection points: 2
#     Edge 84, Type (0, 0), BuildingBlock: AJUNOK_clean_linker_0, # of connection points: 2
#     Edge 85, Type (0, 0), BuildingBlock: AJUNOK_clean_linker_0, # of connection points: 2
#     Edge 86, Type (0, 0), BuildingBlock: AJUNOK_clean_linker_0, # of connection points: 2
#     Edge 87, Type (0, 0), BuildingBlock: AJUNOK_clean_linker_0, # of connection points: 2
#     Edge 88, Type (0, 0), BuildingBlock: AJUNOK_clean_linker_0, # of connection points: 2
#     Edge 89, Type (0, 0), BuildingBlock: AJUNOK_clean_linker_0, # of connection points: 2
#     Edge 90, Type (0, 0), BuildingBlock: AJUNOK_clean_linker_0, # of connection points: 2
#     Edge 91, Type (0, 0), BuildingBlock: AJUNOK_clean_linker_0, # of connection points: 2
#     Edge 92, Type (0, 0), BuildingBlock: AJUNOK_clean_linker_0, # of connection points: 2
#     Edge 93, Type (0, 0), BuildingBlock: AJUNOK_clean_linker_0, # of connection points: 2
#     Edge 94, Type (0, 0), BuildingBlock: AJUNOK_clean_linker_0, # of connection points: 2
#     Edge 95, Type (0, 0), BuildingBlock: AJUNOK_clean_linker_0, # of connection points: 2
# Relax obj value: 0.223
# Max RMSD: 0.113
# Mean RMSD: 0.113
data_MOF--net-dei--node1-AZAVOO_clean_sbu_0--edge1-AJUNOK_clean_linker_0
_symmetry_space_group_name_H-M    P1
_symmetry_Int_Tables_number       1
_symmetry_cell_setting            triclinic
loop_
_symmetry_equiv_pos_as_xyz
'x, y, z'
_cell_length_a     38.335336
_cell_length_b     38.365332
_cell_length_c     77.930294
_cell_angle_alpha  89.866435
_cell_angle_beta   90.119315
_cell_angle_gamma 90.127929
loop_
_atom_site_label
_atom_site_type_symbol
_atom_site_fract_x
_atom_site_fract_y
_atom_site_fract_z
_atom_type_partial_charge
Mg0 Mg 0.14584 0.59893 0.03049 0.0
O1 O 0.08467 0.59901 0.03127 0.0
O2 O 0.07418 0.64121 0.05026 0.0
Mg3 Mg 0.12294 0.6699 0.05967 0.0
C4 C 0.06341 0.6177 0.03992 0.0
C5 C 0.16921 0.54465 0.0049 0.0
O6 O 0.19096 0.57076 0.00256 0.0
O7 O 0.15031 0.57337 0.05749 0.0
O8 O 0.14231 0.62139 0.07322 0.0
O9 O 0.14532 0.63881 0.00891 0.0
O10 O 0.14753 0.6518 0.03639 0.0
C11 C 0.15067 0.5894 0.07189 0.0
C12 C 0.14513 0.66224 0.0208 0.0
O13 O 0.14628 0.54718 0.01659 0.0
Mg14 Mg 0.62534 0.89661 0.28121 0.0
O15 O 0.62759 0.83609 0.27866 0.0
O16 O 0.58259 0.81519 0.29385 0.0
Mg17 Mg 0.55178 0.85971 0.30579 0.0
C18 C 0.60937 0.81069 0.28444 0.0
C19 C 0.67597 0.91792 0.25319 0.0
O20 O 0.64606 0.9314 0.24836 0.0
O21 O 0.64816 0.89287 0.30909 0.0
O22 O 0.59956 0.87214 0.32146 0.0
O23 O 0.58399 0.90196 0.25974 0.0
O24 O 0.57335 0.89534 0.28714 0.0
C25 C 0.631 0.88287 0.32237 0.0
C26 C 0.56149 0.89972 0.272 0.0
O27 O 0.67765 0.9019 0.26749 0.0
Mg28 Mg 0.32953 0.37164 0.52989 0.0
O29 O 0.39051 0.37293 0.53228 0.0
O30 O 0.40147 0.3276 0.54961 0.0
Mg31 Mg 0.35291 0.29605 0.55646 0.0
C32 C 0.41176 0.3539 0.54088 0.0
C33 C 0.30801 0.42509 0.504 0.0
O34 O 0.29097 0.39649 0.50001 0.0
O35 O 0.32381 0.3924 0.55787 0.0
O36 O 0.33331 0.34207 0.57172 0.0
O37 O 0.33269 0.33523 0.50694 0.0
O38 O 0.32921 0.31858 0.53395 0.0
C39 C 0.32433 0.37403 0.57165 0.0
C40 C 0.33282 0.31037 0.51814 0.0
O41 O 0.32736 0.42508 0.51731 0.0
Mg42 Mg 0.85336 0.07909 0.77999 0.0
O43 O 0.84827 0.13919 0.78036 0.0
O44 O 0.89182 0.15845 0.79707 0.0
Mg45 Mg 0.92608 0.11311 0.80602 0.0
C46 C 0.86502 0.16382 0.78769 0.0
C47 C 0.79518 0.05119 0.75645 0.0
O48 O 0.81903 0.02689 0.75483 0.0
O49 O 0.83262 0.07414 0.80796 0.0
O50 O 0.88169 0.09014 0.82152 0.0
O51 O 0.89041 0.08172 0.75735 0.0
O52 O 0.90653 0.08294 0.7845 0.0
C53 C 0.85084 0.07763 0.82167 0.0
C54 C 0.91499 0.08471 0.76864 0.0
O55 O 0.8001 0.07554 0.76724 0.0
Mg56 Mg 0.14514 0.37785 0.93094 0.0
O57 O 0.08386 0.37696 0.92985 0.0
O58 O 0.06893 0.32435 0.91967 0.0
Mg59 Mg 0.11543 0.30855 0.90367 0.0
C60 C 0.06118 0.35302 0.92703 0.0
C61 C 0.16834 0.43123 0.95608 0.0
O62 O 0.1896 0.4048 0.95826 0.0
O63 O 0.15316 0.3999 0.90361 0.0
O64 O 0.11175 0.36473 0.89434 0.0
O65 O 0.14315 0.33834 0.95239 0.0
O66 O 0.14874 0.32565 0.92485 0.0
C67 C 0.13682 0.3855 0.89125 0.0
C68 C 0.14618 0.31517 0.94045 0.0
O69 O 0.14483 0.42964 0.9446 0.0
Mg70 Mg 0.84925 0.89781 0.18089 0.0
O71 O 0.84721 0.83665 0.18077 0.0
O72 O 0.896 0.8172 0.168 0.0
Mg73 Mg 0.92776 0.86279 0.15748 0.0
C74 C 0.86716 0.81188 0.17576 0.0
C75 C 0.79672 0.91746 0.20834 0.0
O76 O 0.82631 0.93048 0.21395 0.0
O77 O 0.82536 0.90096 0.15294 0.0
O78 O 0.87726 0.88185 0.14767 0.0
O79 O 0.88675 0.89738 0.20366 0.0
O80 O 0.90459 0.8962 0.17692 0.0
C81 C 0.84851 0.8927 0.14199 0.0
C82 C 0.91211 0.89609 0.19287 0.0
O83 O 0.7962 0.90173 0.19397 0.0
Mg84 Mg 0.32885 0.59765 0.43158 0.0
O85 O 0.39019 0.59991 0.43106 0.0
O86 O 0.40007 0.64534 0.41375 0.0
Mg87 Mg 0.35091 0.67173 0.40362 0.0
C88 C 0.4112 0.62079 0.4234 0.0
C89 C 0.31086 0.54593 0.45932 0.0
O90 O 0.29681 0.57531 0.46442 0.0
O91 O 0.32545 0.57392 0.40402 0.0
O92 O 0.33394 0.62347 0.3893 0.0
O93 O 0.32687 0.63906 0.45305 0.0
O94 O 0.32473 0.64932 0.42542 0.0
C95 C 0.32574 0.59129 0.38991 0.0
C96 C 0.32445 0.66135 0.44065 0.0
O97 O 0.32793 0.54535 0.44534 0.0
Mg98 Mg 0.62455 0.07951 0.68302 0.0
O99 O 0.62382 0.14015 0.6808 0.0
O100 O 0.5809 0.15025 0.66194 0.0
Mg101 Mg 0.55111 0.10059 0.65471 0.0
C102 C 0.60571 0.16104 0.67157 0.0
C103 C 0.68299 0.05394 0.70615 0.0
O104 O 0.66162 0.02715 0.70542 0.0
O105 O 0.64805 0.07547 0.65559 0.0
O106 O 0.59916 0.08243 0.6401 0.0
O107 O 0.58643 0.0807 0.70507 0.0
O108 O 0.57177 0.07685 0.67775 0.0
C109 C 0.63153 0.07507 0.64127 0.0
C110 C 0.56236 0.07967 0.69345 0.0
O111 O 0.67668 0.08057 0.69689 0.0
Mg112 Mg 0.8285 0.38241 0.92895 0.0
O113 O 0.88983 0.37857 0.92957 0.0
O114 O 0.90585 0.33004 0.91526 0.0
Mg115 Mg 0.86009 0.30747 0.90007 0.0
C116 C 0.91292 0.35647 0.92469 0.0
C117 C 0.80676 0.4307 0.95755 0.0
O118 O 0.78697 0.40304 0.95971 0.0
O119 O 0.82706 0.41427 0.90292 0.0
O120 O 0.84352 0.36178 0.89943 0.0
O121 O 0.82505 0.33835 0.94852 0.0
O122 O 0.82639 0.32931 0.92065 0.0
C123 C 0.83542 0.39028 0.89259 0.0
C124 C 0.82445 0.3167 0.93585 0.0
O125 O 0.8281 0.43129 0.94508 0.0
Mg126 Mg 0.35241 0.07795 0.68133 0.0
O127 O 0.35071 0.13869 0.68197 0.0
O128 O 0.39427 0.15568 0.66466 0.0
Mg129 Mg 0.42586 0.10926 0.65515 0.0
C130 C 0.36846 0.16248 0.67441 0.0
C131 C 0.29901 0.05659 0.70796 0.0
O132 O 0.3281 0.04224 0.71334 0.0
O133 O 0.33007 0.07821 0.65369 0.0
O134 O 0.37831 0.094 0.63935 0.0
O135 O 0.38999 0.0767 0.70375 0.0
O136 O 0.40551 0.07937 0.67655 0.0
C137 C 0.34654 0.08406 0.63969 0.0
C138 C 0.41437 0.07941 0.69241 0.0
O139 O 0.299 0.07401 0.69406 0.0
Mg140 Mg 0.64516 0.59856 0.43226 0.0
O141 O 0.58423 0.60148 0.43145 0.0
O142 O 0.57417 0.64445 0.41269 0.0
Mg143 Mg 0.624 0.66849 0.40175 0.0
C144 C 0.56319 0.62119 0.42315 0.0
C145 C 0.66911 0.54343 0.45764 0.0
O146 O 0.694 0.567 0.45829 0.0
O147 O 0.64748 0.5707 0.40586 0.0
O148 O 0.63916 0.61766 0.38915 0.0
O149 O 0.64776 0.6425 0.4522 0.0
O150 O 0.65029 0.64921 0.42428 0.0
C151 C 0.6467 0.58555 0.39112 0.0
C152 C 0.6506 0.66313 0.43912 0.0
O153 O 0.64358 0.5483 0.44748 0.0
Mg154 Mg 0.12109 0.89225 0.18128 0.0
O155 O 0.11887 0.8312 0.17864 0.0
O156 O 0.0714 0.82363 0.16246 0.0
Mg157 Mg 0.04338 0.87406 0.15522 0.0
C158 C 0.09715 0.81122 0.1709 0.0
C159 C 0.1814 0.91826 0.20256 0.0
O160 O 0.15974 0.9447 0.20158 0.0
O161 O 0.1415 0.89929 0.15332 0.0
O162 O 0.09024 0.89249 0.13994 0.0
O163 O 0.08483 0.89008 0.20422 0.0
O164 O 0.06768 0.89711 0.17743 0.0
C165 C 0.12253 0.90055 0.13975 0.0
C166 C 0.05972 0.89343 0.19326 0.0
O167 O 0.17448 0.89077 0.19406 0.0
Mg168 Mg 0.8287 0.60171 0.02921 0.0
O169 O 0.89007 0.60149 0.02988 0.0
O170 O 0.90088 0.64856 0.04585 0.0
Mg171 Mg 0.85285 0.67846 0.05462 0.0
C172 C 0.91152 0.62255 0.0371 0.0
C173 C 0.80592 0.54735 0.00443 0.0
O174 O 0.78967 0.57599 -0.00015 0.0
O175 O 0.82533 0.58156 0.05726 0.0
O176 O 0.83488 0.63232 0.07064 0.0
O177 O 0.8291 0.63757 0.00595 0.0
O178 O 0.82744 0.65509 0.03282 0.0
C179 C 0.82629 0.60019 0.07087 0.0
C180 C 0.82953 0.66282 0.01687 0.0
O181 O 0.82608 0.54785 0.01741 0.0
Mg182 Mg 0.12465 0.07641 0.77974 0.0
O183 O 0.1274 0.13669 0.77981 0.0
O184 O 0.08395 0.15433 0.79693 0.0
Mg185 Mg 0.05285 0.1074 0.80688 0.0
C186 C 0.10994 0.1607 0.78718 0.0
C187 C 0.17922 0.05464 0.75334 0.0
O188 O 0.15159 0.03641 0.7489 0.0
O189 O 0.14782 0.07426 0.80721 0.0
O190 O 0.10001 0.0887 0.82209 0.0
O191 O 0.08663 0.07767 0.75751 0.0
O192 O 0.07168 0.07856 0.78483 0.0
C193 C 0.13151 0.0782 0.8214 0.0
C194 C 0.06256 0.08049 0.76901 0.0
O195 O 0.17752 0.07372 0.76664 0.0
Mg196 Mg 0.64415 0.37049 0.52863 0.0
O197 O 0.58346 0.37109 0.53122 0.0
O198 O 0.57284 0.32563 0.54851 0.0
Mg199 Mg 0.62177 0.29424 0.55487 0.0
C200 C 0.56241 0.35203 0.5399 0.0
C201 C 0.67024 0.42886 0.50618 0.0
O202 O 0.6948 0.40516 0.50514 0.0
O203 O 0.65001 0.39075 0.55671 0.0
O204 O 0.64136 0.34012 0.57048 0.0
O205 O 0.64111 0.33466 0.50555 0.0
O206 O 0.64527 0.31747 0.53249 0.0
C207 C 0.64995 0.37226 0.57046 0.0
C208 C 0.64147 0.30958 0.51664 0.0
O209 O 0.64439 0.42375 0.51607 0.0
Mg210 Mg 0.34617 0.894 0.27868 0.0
O211 O 0.35168 0.83247 0.28196 0.0
O212 O 0.40705 0.82498 0.29016 0.0
Mg213 Mg 0.41564 0.87136 0.30744 0.0
C214 C 0.37771 0.81254 0.28538 0.0
C215 C 0.28978 0.9172 0.25498 0.0
O216 O 0.31122 0.94372 0.25677 0.0
O217 O 0.32177 0.90125 0.30582 0.0
O218 O 0.35921 0.86191 0.3148 0.0
O219 O 0.3891 0.89565 0.25838 0.0
O220 O 0.39707 0.90285 0.28609 0.0
C221 C 0.33722 0.88557 0.31813 0.0
C222 C 0.41025 0.90122 0.27105 0.0
O223 O 0.29563 0.88962 0.26363 0.0
Mg224 Mg 0.6463 0.10186 0.53001 0.0
O225 O 0.58576 0.10008 0.53134 0.0
O226 O 0.57209 0.14458 0.54862 0.0
Mg227 Mg 0.61999 0.17696 0.55597 0.0
C228 C 0.56339 0.11831 0.5395 0.0
C229 C 0.67257 0.04676 0.50649 0.0
O230 O 0.69365 0.07362 0.50493 0.0
O231 O 0.65117 0.08149 0.55814 0.0
O232 O 0.64046 0.1316 0.57183 0.0
O233 O 0.64386 0.13762 0.50686 0.0
O234 O 0.6456 0.15507 0.53378 0.0
C235 C 0.65 0.09976 0.5719 0.0
C236 C 0.64262 0.16276 0.51784 0.0
O237 O 0.64845 0.04831 0.51765 0.0
Mg238 Mg 0.12639 0.39306 0.77957 0.0
O239 O 0.12635 0.33267 0.77824 0.0
O240 O 0.08377 0.31455 0.79582 0.0
Mg241 Mg 0.05603 0.36099 0.80778 0.0
C242 C 0.10866 0.30845 0.78543 0.0
C243 C 0.1804 0.42186 0.7545 0.0
O244 O 0.15639 0.44623 0.75478 0.0
O245 O 0.1531 0.39093 0.80637 0.0
O246 O 0.10613 0.37398 0.82148 0.0
O247 O 0.08228 0.39818 0.7596 0.0
O248 O 0.07576 0.39371 0.78745 0.0
C249 C 0.13791 0.38364 0.82059 0.0
C250 C 0.06174 0.39757 0.77275 0.0
O251 O 0.17676 0.39548 0.76426 0.0
Mg252 Mg 0.8322 0.8709 0.02779 0.0
O253 O 0.89306 0.86675 0.03052 0.0
O254 O 0.89977 0.81957 0.04708 0.0
Mg255 Mg 0.84841 0.79249 0.05369 0.0
C256 C 0.91251 0.84557 0.03893 0.0
C257 C 0.80741 0.93307 0.00741 0.0
O258 O 0.77951 0.91339 0.00899 0.0
O259 O 0.83022 0.89144 0.05592 0.0
O260 O 0.83677 0.84038 0.0696 0.0
O261 O 0.83183 0.83501 0.0047 0.0
O262 O 0.82658 0.81807 0.03162 0.0
C263 C 0.83128 0.87315 0.06972 0.0
C264 C 0.82968 0.80998 0.01577 0.0
O265 O 0.83546 0.9241 0.01497 0.0
Mg266 Mg 0.35203 0.58047 0.27933 0.0
O267 O 0.35385 0.64111 0.28247 0.0
O268 O 0.3968 0.64767 0.30151 0.0
Mg269 Mg 0.42508 0.59722 0.30849 0.0
C270 C 0.37287 0.66057 0.29202 0.0
C271 C 0.29284 0.55532 0.25684 0.0
O272 O 0.31178 0.52717 0.25907 0.0
O273 O 0.32742 0.57378 0.30652 0.0
O274 O 0.37634 0.57835 0.32215 0.0
O275 O 0.39062 0.58351 0.25751 0.0
O276 O 0.40479 0.57665 0.28475 0.0
C277 C 0.34388 0.57154 0.32084 0.0
C278 C 0.41449 0.58147 0.26919 0.0
O279 O 0.30074 0.58298 0.26494 0.0
Mg280 Mg 0.64618 0.87998 0.43155 0.0
O281 O 0.58508 0.87693 0.42999 0.0
O282 O 0.56814 0.82955 0.4149 0.0
Mg283 Mg 0.61522 0.80469 0.40151 0.0
C284 C 0.56147 0.85629 0.42416 0.0
C285 C 0.6728 0.93626 0.45568 0.0
O286 O 0.70116 0.91841 0.45229 0.0
O287 O 0.65252 0.91073 0.40518 0.0
O288 O 0.63579 0.85798 0.40333 0.0
O289 O 0.64715 0.835 0.45058 0.0
O290 O 0.64812 0.82742 0.42256 0.0
C291 C 0.64619 0.88482 0.39555 0.0
C292 C 0.64904 0.81407 0.43763 0.0
O293 O 0.64437 0.92809 0.44831 0.0
Mg294 Mg 0.3526 0.39438 0.68299 0.0
O295 O 0.35181 0.33401 0.68263 0.0
O296 O 0.39402 0.319 0.66425 0.0
Mg297 Mg 0.42544 0.36701 0.65582 0.0
C298 C 0.3689 0.3111 0.67428 0.0
C299 C 0.29199 0.42322 0.70405 0.0
O300 O 0.31221 0.45071 0.70237 0.0
O301 O 0.32973 0.39643 0.65537 0.0
O302 O 0.37844 0.38572 0.64038 0.0
O303 O 0.39021 0.3945 0.70525 0.0
O304 O 0.40543 0.39477 0.67793 0.0
C305 C 0.34642 0.39459 0.64116 0.0
C306 C 0.41445 0.39346 0.69376 0.0
O307 O 0.30015 0.39517 0.69641 0.0
Mg308 Mg 0.831 0.10133 0.93238 0.0
O309 O 0.89164 0.10283 0.93128 0.0
O310 O 0.90315 0.14279 0.91107 0.0
Mg311 Mg 0.85417 0.17136 0.90207 0.0
C312 C 0.91309 0.11943 0.9217 0.0
C313 C 0.80594 0.0469 0.95802 0.0
O314 O 0.78129 0.07063 0.95799 0.0
O315 O 0.82868 0.07462 0.90551 0.0
O316 O 0.83672 0.12202 0.88897 0.0
O317 O 0.82836 0.14563 0.95234 0.0
O318 O 0.82767 0.15173 0.92441 0.0
C319 C 0.82898 0.08992 0.89083 0.0
C320 C 0.82618 0.16596 0.93912 0.0
O321 O 0.83155 0.05078 0.94782 0.0
Mg322 Mg 0.12579 0.57825 0.18168 0.0
O323 O 0.12308 0.63923 0.17876 0.0
O324 O 0.07828 0.6454 0.16062 0.0
Mg325 Mg 0.0516 0.59437 0.15303 0.0
C326 C 0.10227 0.65851 0.17003 0.0
C327 C 0.18283 0.55542 0.20555 0.0
O328 O 0.15873 0.53107 0.2065 0.0
O329 O 0.14948 0.57141 0.1545 0.0
O330 O 0.10011 0.57575 0.13927 0.0
O331 O 0.0875 0.5806 0.20378 0.0
O332 O 0.07293 0.57391 0.17661 0.0
C333 C 0.13251 0.56873 0.14039 0.0
C334 C 0.06343 0.57854 0.19219 0.0
O335 O 0.17827 0.5805 0.19508 0.0
Mg336 Mg 0.3292 0.87521 0.43083 0.0
O337 O 0.38962 0.87414 0.43203 0.0
O338 O 0.40632 0.82858 0.41614 0.0
Mg339 Mg 0.35867 0.80169 0.40446 0.0
C340 C 0.41327 0.8546 0.42573 0.0
C341 C 0.30366 0.93135 0.45507 0.0
O342 O 0.27945 0.90713 0.45603 0.0
O343 O 0.33098 0.8989 0.4034 0.0
O344 O 0.34696 0.85065 0.38918 0.0
O345 O 0.32482 0.83455 0.45232 0.0
O346 O 0.32687 0.82356 0.42468 0.0
C347 C 0.33779 0.88258 0.38947 0.0
C348 C 0.32466 0.81197 0.44002 0.0
O349 O 0.32868 0.92713 0.4446 0.0
Mg350 Mg 0.85228 0.57901 0.18211 0.0
O351 O 0.84885 0.63959 0.18243 0.0
O352 O 0.89053 0.65789 0.16435 0.0
Mg353 Mg 0.92274 0.61181 0.15445 0.0
C354 C 0.86522 0.66391 0.17454 0.0
C355 C 0.80055 0.55711 0.20975 0.0
O356 O 0.83002 0.54286 0.21472 0.0
O357 O 0.82837 0.57685 0.15474 0.0
O358 O 0.87592 0.59153 0.13962 0.0
O359 O 0.89155 0.57939 0.20392 0.0
O360 O 0.90494 0.58209 0.17648 0.0
C361 C 0.84456 0.58054 0.14048 0.0
C362 C 0.91505 0.58259 0.19216 0.0
O363 O 0.79983 0.57395 0.19566 0.0
Mg364 Mg 0.1453 0.10314 0.93252 0.0
O365 O 0.08482 0.10274 0.93073 0.0
O366 O 0.07228 0.14638 0.91264 0.0
Mg367 Mg 0.12101 0.17761 0.90532 0.0
C368 C 0.06295 0.12073 0.92206 0.0
C369 C 0.16866 0.0468 0.95729 0.0
O370 O 0.19003 0.07277 0.9605 0.0
O371 O 0.15046 0.08142 0.90467 0.0
O372 O 0.14083 0.13137 0.8904 0.0
O373 O 0.14408 0.14268 0.95455 0.0
O374 O 0.14766 0.15518 0.92706 0.0
C375 C 0.15004 0.09946 0.89077 0.0
C376 C 0.14638 0.16586 0.94252 0.0
O377 O 0.14563 0.0501 0.94564 0.0
Mg378 Mg 0.62325 0.39392 0.68169 0.0
O379 O 0.62283 0.33327 0.68016 0.0
O380 O 0.57868 0.32204 0.66216 0.0
Mg381 Mg 0.54814 0.37119 0.65494 0.0
C382 C 0.60424 0.31188 0.67146 0.0
C383 C 0.68225 0.42011 0.70385 0.0
O384 O 0.65972 0.44588 0.70391 0.0
O385 O 0.64473 0.39705 0.65396 0.0
O386 O 0.59505 0.38907 0.63921 0.0
O387 O 0.58701 0.39313 0.70445 0.0
O388 O 0.5703 0.39598 0.67735 0.0
C389 C 0.62748 0.39659 0.63986 0.0
C390 C 0.56211 0.3936 0.69325 0.0
O391 O 0.67628 0.39383 0.69437 0.0
Mg392 Mg 0.32967 0.10085 0.52826 0.0
O393 O 0.39092 0.09971 0.531 0.0
O394 O 0.4072 0.14988 0.54345 0.0
Mg395 Mg 0.35859 0.17042 0.55596 0.0
C396 C 0.41448 0.12123 0.53602 0.0
C397 C 0.30251 0.04157 0.50601 0.0
O398 O 0.27497 0.06169 0.50729 0.0
O399 O 0.32047 0.07971 0.55588 0.0
O400 O 0.36049 0.11529 0.56671 0.0
O401 O 0.33354 0.13886 0.50629 0.0
O402 O 0.32911 0.15339 0.53363 0.0
C403 C 0.33675 0.09256 0.56873 0.0
C404 C 0.33316 0.16281 0.51794 0.0
O405 O 0.32972 0.04875 0.51468 0.0
Mg406 Mg 0.62451 0.5781 0.28055 0.0
O407 O 0.63058 0.63855 0.28012 0.0
O408 O 0.58901 0.65854 0.29769 0.0
Mg409 Mg 0.55413 0.61396 0.30728 0.0
C410 C 0.61486 0.66355 0.28769 0.0
C411 C 0.67689 0.55798 0.25274 0.0
O412 O 0.64676 0.54872 0.24611 0.0
O413 O 0.64654 0.57302 0.30832 0.0
O414 O 0.59839 0.58947 0.32233 0.0
O415 O 0.58639 0.58052 0.25829 0.0
O416 O 0.57156 0.58335 0.28553 0.0
C417 C 0.62895 0.57644 0.32218 0.0
C418 C 0.56242 0.58442 0.26973 0.0
O419 O 0.67757 0.57114 0.26772 0.0
Mg420 Mg 0.14472 0.87423 0.02934 0.0
O421 O 0.08381 0.87168 0.0323 0.0
O422 O 0.07811 0.82967 0.05197 0.0
Mg423 Mg 0.12884 0.80187 0.05906 0.0
C424 C 0.0648 0.85308 0.0423 0.0
C425 C 0.1665 0.92807 0.00349 0.0
O426 O 0.18821 0.90188 0.00174 0.0
O427 O 0.14919 0.89945 0.05638 0.0
O428 O 0.14567 0.85132 0.07263 0.0
O429 O 0.14339 0.83448 0.00773 0.0
O430 O 0.14889 0.82176 0.03515 0.0
C431 C 0.15122 0.88391 0.07092 0.0
C432 C 0.14528 0.81115 0.01967 0.0
O433 O 0.14331 0.92617 0.01514 0.0
Mg434 Mg 0.8448 0.39673 0.78181 0.0
O435 O 0.84542 0.33568 0.78243 0.0
O436 O 0.89113 0.31605 0.79799 0.0
Mg437 Mg 0.91812 0.36182 0.81148 0.0
C438 C 0.86447 0.31096 0.78837 0.0
C439 C 0.79169 0.42258 0.75538 0.0
O440 O 0.81291 0.44946 0.75629 0.0
O441 O 0.81315 0.40085 0.8078 0.0
O442 O 0.86495 0.38211 0.81097 0.0
O443 O 0.8894 0.39787 0.76259 0.0
O444 O 0.89767 0.39642 0.79054 0.0
C445 C 0.83723 0.39183 0.81804 0.0
C446 C 0.91075 0.39811 0.77545 0.0
O447 O 0.79651 0.39673 0.76531 0.0
C448 C 0.17531 0.58444 0.11792 0.0
C449 C 0.15002 0.56109 0.12401 0.0
C450 C 0.17957 0.58962 0.10022 0.0
C451 C 0.15878 0.57155 0.0882 0.0
H452 H 0.18839 0.60202 0.1267 0.0
H453 H 0.19614 0.61089 0.096 0.0
S454 S 0.09649 0.50048 0.0979 0.0
N455 N 0.10986 0.5142 0.11689 0.0
N456 N 0.11782 0.52417 0.0836 0.0
C457 C 0.13775 0.5442 0.09413 0.0
C458 C 0.13338 0.53895 0.11213 0.0
C459 C 0.6392 0.85419 0.36773 0.0
C460 C 0.64893 0.88477 0.37648 0.0
C461 C 0.63794 0.85286 0.34989 0.0
C462 C 0.64612 0.88209 0.33981 0.0
H463 H 0.63101 0.83114 0.37462 0.0
H464 H 0.62792 0.82934 0.34395 0.0
S465 S 0.68021 0.96637 0.35589 0.0
N466 N 0.67251 0.94346 0.37349 0.0
N467 N 0.66916 0.94111 0.33958 0.0
C468 C 0.65899 0.91195 0.34813 0.0
C469 C 0.6605 0.91331 0.36655 0.0
C470 C 0.34373 0.42182 0.61228 0.0
C471 C 0.32866 0.39924 0.62451 0.0
C472 C 0.33803 0.41707 0.59461 0.0
C473 C 0.3175 0.38921 0.58872 0.0
H474 H 0.36278 0.44106 0.61632 0.0
H475 H 0.35301 0.43257 0.58561 0.0
S476 S 0.26807 0.32633 0.61554 0.0
N477 N 0.28887 0.35111 0.62954 0.0
N478 N 0.27809 0.34207 0.59643 0.0
C479 C 0.29909 0.36919 0.60089 0.0
C480 C 0.30474 0.37416 0.61882 0.0
C481 C 0.80018 0.08308 0.86274 0.0
C482 C 0.82508 0.07073 0.87465 0.0
C483 C 0.80619 0.08128 0.84496 0.0
C484 C 0.83743 0.06726 0.8387 0.0
H485 H 0.77805 0.09803 0.86721 0.0
H486 H 0.78837 0.09447 0.83633 0.0
S487 S 0.90774 0.02601 0.86441 0.0
N488 N 0.87938 0.03971 0.8788 0.0
N489 N 0.89072 0.03588 0.84553 0.0
C490 C 0.86021 0.05087 0.8504 0.0
C491 C 0.85398 0.0526 0.8684 0.0
C492 C 0.1532 0.41757 0.86427 0.0
C493 C 0.15055 0.38626 0.87358 0.0
C494 C 0.15568 0.41705 0.84623 0.0
C495 C 0.1559 0.38527 0.83719 0.0
H496 H 0.14978 0.4423 0.87072 0.0
H497 H 0.15314 0.44141 0.83928 0.0
S498 S 0.15568 0.29666 0.85603 0.0
N499 N 0.15346 0.32302 0.8727 0.0
N500 N 0.15806 0.32229 0.83903 0.0
C501 C 0.15771 0.35418 0.8466 0.0
C502 C 0.15483 0.35462 0.86478 0.0
C503 C 0.8073 0.8975 0.0972 0.0
C504 C 0.83596 0.88949 0.08664 0.0
C505 C 0.81136 0.90062 0.11517 0.0
C506 C 0.84405 0.895 0.12302 0.0
H507 H 0.78138 0.899 0.0917 0.0
H508 H 0.78854 0.90541 0.12297 0.0
S509 S 0.92734 0.87554 0.10044 0.0
N510 N 0.89796 0.87826 0.08503 0.0
N511 N 0.906 0.88363 0.1183 0.0
C512 C 0.8731 0.88905 0.11226 0.0
C513 C 0.86894 0.88642 0.09421 0.0
C514 C 0.33779 0.54771 0.36704 0.0
C515 C 0.31739 0.57523 0.37319 0.0
C516 C 0.34194 0.54278 0.34929 0.0
C517 C 0.32578 0.56514 0.33726 0.0
H518 H 0.35391 0.53279 0.3758 0.0
H519 H 0.36113 0.52405 0.345 0.0
S520 S 0.26332 0.63563 0.34715 0.0
N521 N 0.2756 0.62062 0.3661 0.0
N522 N 0.28381 0.61152 0.33283 0.0
C523 C 0.30138 0.58926 0.34331 0.0
C524 C 0.29715 0.59429 0.36132 0.0
C525 C 0.66993 0.09968 0.61899 0.0
C526 C 0.64993 0.07141 0.62479 0.0
C527 C 0.67358 0.10625 0.60138 0.0
C528 C 0.65756 0.08466 0.58902 0.0
H529 H 0.67915 0.11913 0.628 0.0
H530 H 0.68615 0.13031 0.59747 0.0
S531 S 0.6098 0.00263 0.59784 0.0
N532 N 0.61936 0.01824 0.61704 0.0
N533 N 0.62669 0.03034 0.58386 0.0
C534 C 0.64176 0.0537 0.59466 0.0
C535 C 0.63777 0.04719 0.61262 0.0
C536 C 0.85864 0.37225 0.84651 0.0
C537 C 0.83456 0.39213 0.83702 0.0
C538 C 0.85906 0.37286 0.86441 0.0
C539 C 0.83576 0.39376 0.87369 0.0
H540 H 0.87738 0.35574 0.84008 0.0
H541 H 0.87788 0.35663 0.87105 0.0
S542 S 0.76726 0.4507 0.85518 0.0
N543 N 0.78645 0.43328 0.83828 0.0
N544 N 0.78757 0.43472 0.87219 0.0
C545 C 0.8116 0.41407 0.86449 0.0
C546 C 0.81082 0.41307 0.84609 0.0
C547 C 0.32992 0.05299 0.61289 0.0
C548 C 0.32873 0.0834 0.62299 0.0
C549 C 0.32805 0.05491 0.59483 0.0
C550 C 0.3251 0.08736 0.58658 0.0
H551 H 0.33595 0.02817 0.61884 0.0
H552 H 0.33253 0.03156 0.58738 0.0
S553 S 0.3175 0.17387 0.60738 0.0
N554 N 0.32154 0.14613 0.62349 0.0
N555 N 0.31723 0.14983 0.58985 0.0
C556 C 0.32029 0.11731 0.59669 0.0
C557 C 0.32237 0.11534 0.61487 0.0
C558 C 0.62351 0.54896 0.36804 0.0
C559 C 0.65233 0.56621 0.37513 0.0
C560 C 0.6186 0.54821 0.35024 0.0
C561 C 0.64236 0.56463 0.33901 0.0
H562 H 0.60236 0.54033 0.37624 0.0
H563 H 0.59409 0.53812 0.34535 0.0
S564 S 0.72669 0.60453 0.35128 0.0
N565 N 0.70854 0.59329 0.36971 0.0
N566 N 0.69925 0.59191 0.33611 0.0
C567 C 0.67387 0.57699 0.34582 0.0
C568 C 0.67887 0.5777 0.36399 0.0
C569 C 0.16912 0.89502 0.11739 0.0
C570 C 0.13727 0.90935 0.1227 0.0
C571 C 0.17681 0.8919 0.09982 0.0
C572 C 0.15312 0.9034 0.08715 0.0
H573 H 0.18623 0.88263 0.12664 0.0
H574 H 0.19944 0.87682 0.09612 0.0
S575 S 0.0701 0.94984 0.09468 0.0
N576 N 0.08511 0.941 0.11408 0.0
N577 N 0.09962 0.93476 0.08122 0.0
C578 C 0.12378 0.92219 0.09241 0.0
C579 C 0.1158 0.92519 0.1102 0.0
C580 C 0.83936 0.55763 0.09419 0.0
C581 C 0.81902 0.58526 0.08796 0.0
C582 C 0.84354 0.55263 0.11194 0.0
C583 C 0.82718 0.5748 0.12387 0.0
H584 H 0.85524 0.54251 0.08547 0.0
H585 H 0.8626 0.53378 0.11633 0.0
S586 S 0.76584 0.64626 0.1138 0.0
N587 N 0.77802 0.63131 0.09488 0.0
N588 N 0.78593 0.62173 0.12819 0.0
C589 C 0.8033 0.59941 0.11775 0.0
C590 C 0.79923 0.60469 0.09974 0.0
C591 C 0.13364 0.05077 0.85014 0.0
C592 C 0.14905 0.07342 0.83805 0.0
C593 C 0.13826 0.05587 0.86785 0.0
C594 C 0.15806 0.0841 0.87389 0.0
H595 H 0.11497 0.03132 0.84593 0.0
H596 H 0.12295 0.04036 0.87671 0.0
S597 S 0.20825 0.14719 0.84749 0.0
N598 N 0.18851 0.12192 0.83332 0.0
N599 N 0.19737 0.13162 0.86652 0.0
C600 C 0.17695 0.10416 0.8619 0.0
C601 C 0.17237 0.09884 0.84394 0.0
C602 C 0.63633 0.41619 0.593 0.0
C603 C 0.65632 0.38767 0.58756 0.0
C604 C 0.63058 0.422 0.61058 0.0
C605 C 0.64516 0.39993 0.62316 0.0
H606 H 0.62185 0.43152 0.58373 0.0
H607 H 0.61194 0.44179 0.61428 0.0
S608 S 0.70435 0.32559 0.61544 0.0
N609 N 0.69465 0.34029 0.59608 0.0
N610 N 0.684 0.35153 0.62901 0.0
C611 C 0.66858 0.37414 0.6179 0.0
C612 C 0.67414 0.36796 0.60007 0.0
C613 C 0.30406 0.89766 0.34526 0.0
C614 C 0.33555 0.89803 0.33606 0.0
C615 C 0.30425 0.89827 0.36335 0.0
C616 C 0.33586 0.8996 0.3726 0.0
H617 H 0.27961 0.89339 0.33859 0.0
H618 H 0.27994 0.89387 0.37009 0.0
S619 S 0.42461 0.90655 0.35435 0.0
N620 N 0.39857 0.90468 0.33748 0.0
N621 N 0.39871 0.9053 0.37125 0.0
C622 C 0.36696 0.90379 0.36345 0.0
C623 C 0.36685 0.90308 0.34521 0.0
C624 C 0.00655 0.64788 0.03916 0.0
C625 C 0.02503 0.61673 0.03665 0.0
C626 C 0.97036 0.64916 0.0383 0.0
C627 C 0.95015 0.61925 0.03505 0.0
H628 H 0.0201 0.67184 0.04222 0.0
H629 H 0.95813 0.6741 0.04072 0.0
S630 S 0.9856 0.53203 0.02408 0.0
N631 N 0.0207 0.55584 0.02813 0.0
N632 N 0.95169 0.55806 0.02674 0.0
C633 C 0.96811 0.5882 0.03103 0.0
C634 C 0.00571 0.58697 0.03179 0.0
C635 C 0.64034 0.72087 0.29596 0.0
C636 C 0.62359 0.70013 0.28358 0.0
C637 C 0.63904 0.75744 0.29501 0.0
C638 C 0.62066 0.77437 0.28177 0.0
H639 H 0.65225 0.7088 0.3071 0.0
H640 H 0.65 0.7725 0.30547 0.0
S641 S 0.57499 0.73184 0.24551 0.0
N642 N 0.59055 0.69907 0.25699 0.0
N643 N 0.58769 0.7678 0.25538 0.0
C644 C 0.606 0.75397 0.26868 0.0
C645 C 0.60758 0.71678 0.26956 0.0
C646 C 0.46842 0.37072 0.52619 0.0
C647 C 0.44985 0.36146 0.54114 0.0
C648 C 0.50534 0.37013 0.52594 0.0
C649 C 0.52453 0.36019 0.54062 0.0
H650 H 0.45446 0.37624 0.5144 0.0
H651 H 0.51873 0.37529 0.51397 0.0
S652 S 0.48827 0.34103 0.58372 0.0
N653 N 0.4537 0.3476 0.57151 0.0
N654 N 0.52223 0.34642 0.57102 0.0
C655 C 0.50614 0.35407 0.5559 0.0
C656 C 0.46903 0.35472 0.55617 0.0
C657 C 0.87156 0.25606 0.77185 0.0
C658 C 0.85477 0.27447 0.78501 0.0
C659 C 0.87153 0.21944 0.7717 0.0
C660 C 0.85488 0.20033 0.78476 0.0
H661 H 0.88699 0.26995 0.76241 0.0
H662 H 0.88698 0.20606 0.76214 0.0
S663 S 0.80361 0.23652 0.82072 0.0
N664 N 0.81805 0.27119 0.81028 0.0
N665 N 0.81826 0.20234 0.81008 0.0
C666 C 0.83563 0.21848 0.79711 0.0
C667 C 0.83551 0.25567 0.79722 0.0
C668 C 0.96953 0.38958 0.92495 0.0
C669 C 0.94969 0.36044 0.93006 0.0
C670 C 0.00632 0.38869 0.92554 0.0
C671 C 0.02398 0.3586 0.93121 0.0
H672 H 0.95677 0.41191 0.91919 0.0
H673 H 0.02087 0.41039 0.92021 0.0
S674 S 0.98353 0.2789 0.94937 0.0
N675 N 0.95015 0.30331 0.94347 0.0
N676 N 0.01883 0.30166 0.94461 0.0
C677 C 0.0042 0.331 0.93797 0.0
C678 C 0.96711 0.33191 0.93737 0.0
C679 C 0.84054 0.757 0.16498 0.0
C680 C 0.85697 0.77517 0.17841 0.0
C681 C 0.84036 0.72036 0.16458 0.0
C682 C 0.85639 0.70079 0.17767 0.0
H683 H 0.83014 0.77116 0.15407 0.0
H684 H 0.82971 0.70731 0.15342 0.0
S685 S 0.90064 0.73607 0.21622 0.0
N686 N 0.88777 0.77103 0.20554 0.0
N687 N 0.88706 0.7022 0.20494 0.0
C688 C 0.87071 0.71865 0.19174 0.0
C689 C 0.87111 0.75591 0.19207 0.0
C690 C 0.46906 0.64993 0.42346 0.0
C691 C 0.44978 0.61913 0.42612 0.0
C692 C 0.50542 0.65006 0.42337 0.0
C693 C 0.52475 0.61944 0.42601 0.0
H694 H 0.45595 0.67441 0.42094 0.0
H695 H 0.51851 0.67457 0.42077 0.0
S696 S 0.48758 0.53249 0.43646 0.0
N697 N 0.45296 0.55753 0.43358 0.0
N698 N 0.52201 0.55785 0.43349 0.0
C699 C 0.50617 0.58873 0.43009 0.0
C700 C 0.46857 0.58856 0.43013 0.0
C701 C 0.60479 0.21831 0.65671 0.0
C702 C 0.61264 0.19922 0.67164 0.0
C703 C 0.6044 0.2547 0.65669 0.0
C704 C 0.61186 0.27389 0.67159 0.0
H705 H 0.59752 0.20497 0.64499 0.0
H706 H 0.59684 0.26792 0.64496 0.0
S707 S 0.63909 0.23685 0.71356 0.0
N708 N 0.63197 0.20231 0.70138 0.0
N709 N 0.63126 0.27123 0.70132 0.0
C710 C 0.62263 0.25541 0.68632 0.0
C711 C 0.62301 0.21794 0.68635 0.0
C712 C 0.35179 0.25494 0.66103 0.0
C713 C 0.35986 0.27383 0.67594 0.0
C714 C 0.35129 0.21845 0.66114 0.0
C715 C 0.35895 0.19954 0.67614 0.0
H716 H 0.34779 0.26847 0.64897 0.0
H717 H 0.34707 0.20487 0.64913 0.0
S718 S 0.37938 0.23676 0.71883 0.0
N719 N 0.37339 0.2712 0.70637 0.0
N720 N 0.37271 0.20228 0.70655 0.0
C721 C 0.36471 0.21805 0.69143 0.0
C722 C 0.36511 0.25538 0.69133 0.0
C723 C 0.13245 0.71738 0.17477 0.0
C724 C 0.102 0.69728 0.1721 0.0
C725 C 0.13114 0.75437 0.17495 0.0
C726 C 0.09936 0.77233 0.17241 0.0
H727 H 0.15746 0.70457 0.17615 0.0
H728 H 0.15519 0.76889 0.17651 0.0
S729 S 0.01168 0.73144 0.16826 0.0
N730 N 0.03884 0.69836 0.16951 0.0
N731 N 0.03648 0.76648 0.16934 0.0
C732 C 0.06877 0.75218 0.17083 0.0
C733 C 0.07006 0.7151 0.17082 0.0
C734 C 0.09784 0.21549 0.77137 0.0
C735 C 0.11794 0.19753 0.78362 0.0
C736 C 0.09759 0.25207 0.77082 0.0
C737 C 0.11754 0.27167 0.78246 0.0
H738 H 0.08034 0.20123 0.76298 0.0
H739 H 0.07983 0.26506 0.76207 0.0
S740 S 0.17705 0.23691 0.81584 0.0
N741 N 0.16024 0.2018 0.80673 0.0
N742 N 0.15998 0.27063 0.80562 0.0
C743 C 0.13964 0.25397 0.79392 0.0
C744 C 0.13979 0.21678 0.79452 0.0
C745 C 0.35083 0.71692 0.27833 0.0
C746 C 0.37005 0.69952 0.29128 0.0
C747 C 0.35214 0.75368 0.27654 0.0
C748 C 0.37308 0.77413 0.2875 0.0
H749 H 0.33556 0.70205 0.2692 0.0
H750 H 0.33773 0.76595 0.2662 0.0
S751 S 0.42405 0.74225 0.325 0.0
N752 N 0.40732 0.70678 0.3164 0.0
N753 N 0.40997 0.77456 0.31292 0.0
C754 C 0.39069 0.75713 0.301 0.0
C755 C 0.38914 0.72025 0.30292 0.0
C756 C 0.47165 0.10698 0.52168 0.0
C757 C 0.45151 0.11089 0.53663 0.0
C758 C 0.50846 0.10628 0.52264 0.0
C759 C 0.52577 0.1098 0.53854 0.0
H760 H 0.45912 0.10691 0.50921 0.0
H761 H 0.52335 0.10562 0.51085 0.0
S762 S 0.48424 0.11483 0.58136 0.0
N763 N 0.45125 0.11364 0.56773 0.0
N764 N 0.51981 0.11278 0.5695 0.0
C765 C 0.50561 0.11079 0.55353 0.0
C766 C 0.46859 0.11122 0.55257 0.0
C767 C 0.97037 0.86879 0.02751 0.0
C768 C 0.95099 0.85145 0.04035 0.0
C769 C 0.00723 0.87093 0.02842 0.0
C770 C 0.02586 0.85616 0.04229 0.0
H771 H 0.95718 0.8795 0.01639 0.0
H772 H 0.02119 0.88299 0.01789 0.0
S773 S 0.98683 0.81311 0.08053 0.0
N774 N 0.95327 0.82263 0.06816 0.0
N775 N 0.02127 0.82766 0.07014 0.0
C776 C 0.00635 0.84108 0.05571 0.0
C777 C 0.96932 0.83844 0.05467 0.0
C778 C 0.46839 0.8865 0.41918 0.0
C779 C 0.45033 0.8619 0.42923 0.0
C780 C 0.50509 0.88688 0.41874 0.0
C781 C 0.52456 0.86263 0.42833 0.0
H782 H 0.45412 0.90374 0.41067 0.0
H783 H 0.51817 0.90444 0.40994 0.0
S784 S 0.48953 0.79661 0.45847 0.0
N785 N 0.4545 0.81554 0.45034 0.0
N786 N 0.52335 0.81624 0.44952 0.0
C787 C 0.50678 0.8399 0.43941 0.0
C788 C 0.4696 0.83954 0.43986 0.0
C789 C 0.00648 0.11065 0.93787 0.0
C790 C 0.02534 0.11196 0.92237 0.0
C791 C 0.96962 0.1104 0.9378 0.0
C792 C 0.95088 0.11146 0.92223 0.0
H793 H 0.02013 0.11222 0.95003 0.0
H794 H 0.95587 0.11176 0.94991 0.0
S795 S -0.01163 0.107 0.87849 0.0
N796 N 0.02265 0.10861 0.89132 0.0
N797 N 0.95395 0.10788 0.89117 0.0
C798 C 0.96965 0.10938 0.90682 0.0
C799 C 0.00677 0.10972 0.90689 0.0
C800 C 0.19076 0.48821 0.96641 0.0
C801 C 0.16847 0.45959 0.96858 0.0
C802 C 0.19134 0.51528 0.97845 0.0
C803 C 0.16966 0.51448 -0.00694 0.0
H804 H 0.20765 0.48977 0.9553 0.0
H805 H 0.20858 0.53718 0.97612 0.0
S806 S 0.10884 0.44293 0.00496 0.0
N807 N 0.12587 0.43043 -0.01346 0.0
N808 N 0.12677 0.48109 0.00932 0.0
C809 C 0.14797 0.48521 -0.00449 0.0
C810 C 0.14743 0.45779 -0.01679 0.0
C811 C 0.76941 0.91977 0.23734 0.0
C812 C 0.76545 0.91899 0.21937 0.0
C813 C 0.74036 0.91948 0.24824 0.0
C814 C 0.70632 0.91934 0.24154 0.0
H815 H 0.79518 0.91973 0.24308 0.0
H816 H 0.74459 0.91947 0.26199 0.0
S817 S 0.68187 0.91962 0.1954 0.0
N818 N 0.72494 0.91928 0.19537 0.0
N819 N 0.67025 0.91976 0.21579 0.0
C820 C 0.702 0.91972 0.22358 0.0
C821 C 0.73159 0.91923 0.21251 0.0
C822 C 0.31301 0.48924 0.49902 0.0
C823 C 0.30661 0.45572 0.49248 0.0
C824 C 0.31346 0.51842 0.48818 0.0
C825 C 0.30858 0.51492 0.47039 0.0
H826 H 0.31772 0.49297 0.5126 0.0
H827 H 0.31861 0.5438 0.49371 0.0
S828 S 0.28825 0.43347 0.44696 0.0
N829 N 0.29282 0.42111 0.46715 0.0
N830 N 0.29498 0.47601 0.44678 0.0
C831 C 0.3014 0.48179 0.4637 0.0
C832 C 0.30003 0.45215 0.47477 0.0
C833 C 0.75349 0.02163 0.73648 0.0
C834 C 0.76547 0.05245 0.7443 0.0
C835 C 0.72683 0.02236 0.72413 0.0
C836 C 0.71181 0.05403 0.7188 0.0
H837 H 0.76473 -0.0033 0.73997 0.0
H838 H 0.71822 -0.00205 0.71857 0.0
S839 S 0.73368 0.14202 0.73535 0.0
N840 N 0.75987 0.11551 0.74597 0.0
N841 N 0.71035 0.1169 0.72252 0.0
C842 C 0.72354 0.08503 0.72649 0.0
C843 C 0.75017 0.08423 0.73932 0.0
C844 C 0.8195 0.52071 0.97642 0.0
C845 C 0.80527 0.51731 -0.0071 0.0
C846 C 0.81971 0.49255 0.96506 0.0
C847 C 0.80499 0.46024 0.96968 0.0
H848 H 0.83103 0.54521 0.97239 0.0
H849 H 0.83145 0.49622 0.95255 0.0
S850 S 0.76155 0.43955 0.01108 0.0
N851 N 0.7746 0.4804 0.01318 0.0
N852 N 0.77395 0.42733 -0.00828 0.0
C853 C 0.78955 0.45701 -0.01398 0.0
C854 C 0.78999 0.48561 -0.00231 0.0
C855 C 0.2099 0.0369 0.72637 0.0
C856 C 0.21055 0.05488 0.74216 0.0
C857 C 0.23838 0.03802 0.7151 0.0
C858 C 0.26859 0.05676 0.71935 0.0
H859 H 0.18711 0.02206 0.72256 0.0
H860 H 0.23695 0.02382 0.70311 0.0
S861 S 0.2843 0.10807 0.75878 0.0
N862 N 0.24455 0.09214 0.76122 0.0
N863 N 0.29811 0.09343 0.74009 0.0
C864 C 0.26993 0.07447 0.73503 0.0
C865 C 0.2409 0.07375 0.74644 0.0
C866 C 0.69434 0.48462 0.49492 0.0
C867 C 0.66976 0.45763 0.49378 0.0
C868 C 0.69426 0.51206 0.483 0.0
C869 C 0.66983 0.51309 0.46944 0.0
H870 H 0.71341 0.48474 0.50521 0.0
H871 H 0.71321 0.53278 0.48459 0.0
S872 S 0.6035 0.44523 0.45971 0.0
N873 N 0.62266 0.43143 0.47746 0.0
N874 N 0.62265 0.48253 0.4548 0.0
C875 C 0.6461 0.48522 0.46784 0.0
C876 C 0.64604 0.45757 0.48008 0.0
C877 C 0.22201 0.88739 0.22256 0.0
C878 C 0.21014 0.91881 0.2153 0.0
C879 C 0.2471 0.8872 0.23566 0.0
C880 C 0.26175 0.91839 0.24185 0.0
H881 H 0.21131 0.86269 0.21835 0.0
H882 H 0.25537 0.86231 0.24082 0.0
S883 S 0.23995 0.00785 0.22697 0.0
N884 N 0.21499 0.98208 0.21523 0.0
N885 N 0.26256 0.98174 0.23964 0.0
C886 C 0.25031 0.95007 0.23461 0.0
C887 C 0.22442 0.95028 0.2214 0.0
C888 C 0.64762 -0.00771 0.4936 0.0
C889 C 0.67442 0.01746 0.49411 0.0
C890 C 0.64708 0.96626 0.481 0.0
C891 C 0.67365 0.96405 0.46867 0.0
H892 H 0.62645 -0.00692 0.50277 0.0
H893 H 0.62586 0.94755 0.48099 0.0
S894 S 0.74993 0.02272 0.4643 0.0
N895 N 0.72842 0.03805 0.48098 0.0
N896 N 0.72754 -0.01151 0.45767 0.0
C897 C 0.70098 -0.01168 0.4692 0.0
C898 C 0.70133 0.0152 0.48182 0.0
C899 C 0.22963 0.3936 0.7388 0.0
C900 C 0.20934 0.42347 0.74189 0.0
C901 C 0.25574 0.39357 0.72625 0.0
C902 C 0.26302 0.42358 0.7165 0.0
H903 H 0.22507 0.36979 0.74595 0.0
H904 H 0.27075 0.37 0.72438 0.0
S905 S 0.21808 0.50878 0.71958 0.0
N906 N 0.19857 0.48406 0.73405 0.0
N907 N 0.24826 0.48401 0.71075 0.0
C908 C 0.24341 0.45378 0.71957 0.0
C909 C 0.21641 0.45373 0.73218 0.0
C910 C 0.83237 0.96507 -0.01757 0.0
C911 C 0.80695 0.96262 -0.00468 0.0
C912 C 0.83136 -0.00807 0.97019 0.0
C913 C 0.80514 0.01761 0.97055 0.0
H914 H 0.85284 0.94572 -0.01839 0.0
H915 H 0.85144 -0.00739 0.96044 0.0
S916 S 0.73272 0.02254 0.00216 0.0
N917 N 0.75476 -0.0126 0.00781 0.0
N918 N 0.75311 0.03857 -0.01477 0.0
C919 C 0.77944 0.0152 -0.01654 0.0
C920 C 0.78028 -0.01249 -0.00427 0.0
C921 C 0.24186 0.52778 0.24233 0.0
C922 C 0.26544 0.55567 0.24359 0.0
C923 C 0.21567 0.52764 0.22975 0.0
C924 C 0.21259 0.55508 0.21776 0.0
H925 H 0.24324 0.50626 0.25133 0.0
H926 H 0.1975 0.50598 0.2296 0.0
S927 S 0.27189 0.63141 0.21417 0.0
N928 N 0.28656 0.60961 0.23098 0.0
N929 N 0.23791 0.60917 0.20706 0.0
C930 C 0.23727 0.58227 0.21843 0.0
C931 C 0.26354 0.58263 0.23142 0.0
C932 C 0.27398 -0.00754 0.49041 0.0
C933 C 0.30325 0.0139 0.49294 0.0
C934 C 0.27417 0.96621 0.47792 0.0
C935 C 0.30334 0.96101 0.46724 0.0
H936 H 0.25103 -0.00442 0.49835 0.0
H937 H 0.25129 0.94977 0.47673 0.0
S938 S 0.38476 0.0137 0.46744 0.0
N939 N 0.361 0.03035 0.48303 0.0
N940 N 0.36125 0.98164 0.45928 0.0
C941 C 0.33221 0.98343 0.46921 0.0
C942 C 0.3322 0.00969 0.48214 0.0
C943 C 0.70612 0.55833 0.22418 0.0
C944 C 0.7088 0.55587 0.24216 0.0
C945 C 0.73588 0.55849 0.21377 0.0
C946 C 0.76941 0.55535 0.22092 0.0
H947 H 0.68085 0.56109 0.21808 0.0
H948 H 0.73259 0.56112 0.20001 0.0
S949 S 0.79042 0.54561 0.26724 0.0
N950 N 0.74749 0.54881 0.26664 0.0
N951 N 0.80348 0.54815 0.2471 0.0
C952 C 0.77239 0.55163 0.23886 0.0
C953 C 0.74208 0.55219 0.24948 0.0
C954 C 0.1499 -0.0109 -0.00453 0.0
C955 C 0.16819 0.95832 -0.00839 0.0
C956 C 0.15026 0.01768 -0.01577 0.0
C957 C 0.16855 0.01631 0.96867 0.0
H958 H 0.13525 -0.00878 0.00729 0.0
H959 H 0.136 0.04098 -0.01232 0.0
S960 S 0.22143 0.94288 0.9525 0.0
N961 N 0.20598 0.92892 0.97107 0.0
N962 N 0.20608 0.98277 0.95 0.0
C963 C 0.18726 0.98616 0.96465 0.0
C964 C 0.18723 0.9571 0.97613 0.0
C965 C 0.74974 0.45246 0.73573 0.0
C966 C 0.7642 0.42138 0.74211 0.0
C967 C 0.72358 0.45184 0.72314 0.0
C968 C 0.71156 0.42015 0.71621 0.0
H969 H 0.75824 0.47743 0.74071 0.0
H970 H 0.71266 0.47639 0.71884 0.0
S971 S 0.74218 0.33159 0.72809 0.0
N972 N 0.7653 0.35811 0.7403 0.0
N973 N 0.71661 0.35695 0.71647 0.0
C974 C 0.72639 0.38894 0.72223 0.0
C975 C 0.75256 0.38955 0.73524 0.0
C976 C 0.16623 0.75476 0.00747 0.0
C977 C 0.14057 0.77372 0.01628 0.0
C978 C 0.16619 0.71805 0.00781 0.0
C979 C 0.14061 0.69959 0.01704 0.0
H980 H 0.1876 0.76829 0.00126 0.0
H981 H 0.1875 0.70418 0.00181 0.0
S982 S 0.06459 0.73742 0.03956 0.0
N983 N 0.08658 0.7714 0.03235 0.0
N984 N 0.08669 0.70295 0.03317 0.0
C985 C 0.11355 0.71838 0.02474 0.0
C986 C 0.11349 0.7554 0.02431 0.0
C987 C 0.50388 0.91025 0.28457 0.0
C988 C 0.52324 0.90227 0.26983 0.0
C989 C 0.46779 0.91079 0.28436 0.0
C990 C 0.44874 0.90298 0.26943 0.0
H991 H 0.51664 0.91612 0.29665 0.0
H992 H 0.45489 0.91723 0.29628 0.0
S993 S 0.48667 0.88621 0.22648 0.0
N994 N 0.52102 0.89067 0.23917 0.0
N995 N 0.45196 0.89114 0.2388 0.0
C996 C 0.4675 0.89698 0.25419 0.0
C997 C 0.505 0.89676 0.25438 0.0
C998 C 0.36303 0.21872 0.52374 0.0
C999 C 0.33884 0.19982 0.51393 0.0
C1000 C 0.36331 0.25504 0.52354 0.0
C1001 C 0.33909 0.27378 0.51368 0.0
H1002 H 0.38092 0.20554 0.53224 0.0
H1003 H 0.38139 0.26853 0.5319 0.0
S1004 S 0.27347 0.23661 0.48396 0.0
N1005 N 0.29271 0.20221 0.49256 0.0
N1006 N 0.29287 0.27113 0.49236 0.0
C1007 C 0.31681 0.25537 0.50262 0.0
C1008 C 0.31672 0.21811 0.50273 0.0
C1009 C 0.9714 0.11466 0.77314 0.0
C1010 C 0.95184 0.08975 0.76408 0.0
C1011 C 0.00782 0.1133 0.77343 0.0
C1012 C 0.02586 0.08709 0.76461 0.0
H1013 H 0.95844 0.13415 0.78085 0.0
H1014 H 0.02184 0.13184 0.78132 0.0
S1015 S 0.98688 0.01854 0.73722 0.0
N1016 N 0.95303 0.04036 0.74467 0.0
N1017 N 0.02191 0.038 0.7451 0.0
C1018 C 0.00683 0.06407 0.7542 0.0
C1019 C 0.96958 0.06538 0.75395 0.0
C1020 C 0.1721 0.22204 0.93468 0.0
C1021 C 0.14922 0.2036 0.94545 0.0
C1022 C 0.17164 0.25822 0.9339 0.0
C1023 C 0.14847 0.2776 0.94395 0.0
H1024 H 0.18964 0.20827 0.92617 0.0
H1025 H 0.18897 0.2711 0.9249 0.0
S1026 S 0.08426 0.24216 0.9749 0.0
N1027 N 0.10358 0.20723 0.96697 0.0
N1028 N 0.10299 0.27619 0.96563 0.0
C1029 C 0.12663 0.25984 0.95552 0.0
C1030 C 0.12696 0.22252 0.95626 0.0
C1031 C 0.96817 0.92511 0.19914 0.0
C1032 C 0.94877 0.89412 0.19808 0.0
C1033 C 0.00473 0.92442 0.19916 0.0
C1034 C 0.02284 0.89272 0.19817 0.0
H1035 H 0.95506 0.9501 0.19874 0.0
H1036 H 0.01887 0.9489 0.19881 0.0
S1037 S 0.98378 0.80455 0.19593 0.0
N1038 N 0.94995 0.83106 0.19664 0.0
N1039 N 0.01886 0.82964 0.19675 0.0
C1040 C 0.00373 0.86152 0.19791 0.0
C1041 C 0.96653 0.86226 0.19784 0.0
C1042 C 0.30931 0.71851 0.42862 0.0
C1043 C 0.32176 0.69954 0.4428 0.0
C1044 C 0.30951 0.75458 0.42843 0.0
C1045 C 0.32186 0.77387 0.44247 0.0
H1046 H 0.29973 0.70544 0.41723 0.0
H1047 H 0.30024 0.76742 0.41689 0.0
S1048 S 0.35209 0.73731 0.48398 0.0
N1049 N 0.34323 0.70261 0.47217 0.0
N1050 N 0.34325 0.77165 0.47187 0.0
C1051 C 0.33213 0.75565 0.45734 0.0
C1052 C 0.33213 0.71819 0.4575 0.0
C1053 C 0.46978 0.05371 0.70289 0.0
C1054 C 0.45125 0.08302 0.6971 0.0
C1055 C 0.50641 0.05374 0.7031 0.0
C1056 C 0.52525 0.08312 0.69757 0.0
H1057 H 0.456 0.02987 0.70607 0.0
H1058 H 0.51999 0.02994 0.70646 0.0
S1059 S 0.48866 0.1677 0.68348 0.0
N1060 N 0.45415 0.14313 0.68745 0.0
N1061 N 0.52295 0.14315 0.68779 0.0
C1062 C 0.50696 0.11326 0.69289 0.0
C1063 C 0.46984 0.11322 0.69268 0.0
C1064 C 0.83542 0.26121 0.95262 0.0
C1065 C 0.82208 0.27853 0.93805 0.0
C1066 C 0.83566 0.22443 0.95351 0.0
C1067 C 0.82235 0.20429 0.9399 0.0
H1068 H 0.84686 0.27603 0.96302 0.0
H1069 H 0.84743 0.21182 0.96453 0.0
S1070 S 0.77942 0.23759 0.90029 0.0
N1071 N 0.792 0.27279 0.91069 0.0
N1072 N 0.79149 0.20468 0.91253 0.0
C1073 C 0.80692 0.22165 0.92587 0.0
C1074 C 0.80707 0.25853 0.92489 0.0
C1075 C 0.63744 0.75739 0.4533 0.0
C1076 C 0.65187 0.77582 0.43936 0.0
C1077 C 0.63804 0.7206 0.45374 0.0
C1078 C 0.65325 0.70152 0.44029 0.0
H1079 H 0.6246 0.77134 0.46356 0.0
H1080 H 0.6255 0.70711 0.46429 0.0
S1081 S 0.69911 0.73797 0.40226 0.0
N1082 N 0.68481 0.77229 0.41276 0.0
N1083 N 0.68648 0.70408 0.41371 0.0
C1084 C 0.66946 0.71997 0.42686 0.0
C1085 C 0.66861 0.7569 0.42635 0.0
C1086 C 0.86138 0.71838 0.01978 0.0
C1087 C 0.83459 0.69934 0.01183 0.0
C1088 C 0.86146 0.75476 0.01942 0.0
C1089 C 0.83468 0.77328 0.01119 0.0
H1090 H 0.88129 0.70514 0.02719 0.0
H1091 H 0.88144 0.76846 0.02656 0.0
S1092 S 0.76052 0.73548 -0.01295 0.0
N1093 N 0.78233 0.70127 -0.00579 0.0
N1094 N 0.78234 0.77017 -0.00633 0.0
C1095 C 0.80928 0.75462 0.00202 0.0
C1096 C 0.80928 0.71738 0.00231 0.0
C1097 C 0.61009 0.25426 0.52113 0.0
C1098 C 0.63551 0.27301 0.51201 0.0
C1099 C 0.61054 0.21788 0.52156 0.0
C1100 C 0.63634 0.19911 0.51283 0.0
H1101 H 0.59111 0.26782 0.52891 0.0
H1102 H 0.59185 0.20446 0.52963 0.0
S1103 S 0.70589 0.2359 0.48529 0.0
N1104 N 0.68489 0.27038 0.49261 0.0
N1105 N 0.68558 0.2015 0.49331 0.0
C1106 C 0.65984 0.21736 0.50233 0.0
C1107 C 0.65946 0.25458 0.50194 0.0
C1108 C 0.96658 0.38894 0.75872 0.0
C1109 C 0.94906 0.40043 0.77356 0.0
C1110 C 0.0034 0.38916 0.75793 0.0
C1111 C 0.02338 0.40105 0.77192 0.0
H1112 H 0.95189 0.37871 0.74796 0.0
H1113 H 0.01618 0.37886 0.74665 0.0
S1114 S -0.01034 0.43919 0.81245 0.0
N1115 N 0.95457 0.42763 0.80162 0.0
N1116 N 0.02272 0.42857 0.80006 0.0
C1117 C 0.00586 0.4146 0.78628 0.0
C1118 C 0.96895 0.41413 0.78713 0.0
C1119 C 0.47076 0.56057 0.25725 0.0
C1120 C 0.45154 0.58694 0.26534 0.0
C1121 C 0.5074 0.56154 0.25721 0.0
C1122 C 0.52551 0.58885 0.2653 0.0
H1123 H 0.45755 0.53796 0.25202 0.0
H1124 H 0.52155 0.53956 0.25202 0.0
S1125 S 0.48682 0.6669 0.28557 0.0
N1126 N 0.45302 0.64311 0.27955 0.0
N1127 N 0.52166 0.64489 0.27955 0.0
C1128 C 0.50645 0.6166 0.27218 0.0
C1129 C 0.46939 0.61564 0.27219 0.0
C1130 C 0.4702 0.42055 0.70267 0.0
C1131 C 0.45142 0.39042 0.69824 0.0
C1132 C 0.50679 0.42059 0.70256 0.0
C1133 C 0.52536 0.39048 0.69805 0.0
H1134 H 0.4566 0.4448 0.70503 0.0
H1135 H 0.52052 0.44488 0.70482 0.0
S1136 S 0.48811 0.30418 0.68723 0.0
N1137 N 0.45376 0.32918 0.69061 0.0
N1138 N 0.52262 0.32924 0.69045 0.0
C1139 C 0.50686 0.35971 0.69467 0.0
C1140 C 0.46973 0.35968 0.69475 0.0
C1141 C 0.97191 0.61103 0.18662 0.0
C1142 C 0.95236 0.58673 0.19608 0.0
C1143 C 0.00832 0.6098 0.18652 0.0
C1144 C 0.02641 0.58445 0.19599 0.0
H1145 H 0.95899 0.63017 0.17862 0.0
H1146 H 0.02231 0.62781 0.17834 0.0
S1147 S 0.98749 0.51697 0.22408 0.0
N1148 N 0.95361 0.53825 0.21617 0.0
N1149 N 0.02251 0.53621 0.21609 0.0
C1150 C 0.00738 0.56172 0.20655 0.0
C1151 C 0.97013 0.56285 0.2066 0.0
loop_
_geom_bond_atom_site_label_1
_geom_bond_atom_site_label_2
_geom_bond_distance
_geom_bond_site_symmetry_2
_ccdc_geom_bond_type
Mg0 O1 2.028 . S
Mg0 O7 1.986 . S
Mg0 O9 2.114 . S
Mg0 O10 2.251 . S
Mg0 O13 2.010 . S
O1 Mg0 2.028 . S
O1 C4 1.250 . S
O2 Mg3 2.028 . S
O2 C4 1.248 . S
Mg3 O2 2.028 . S
Mg3 O8 2.032 . S
Mg3 O10 2.079 . S
C4 O1 1.250 . S
C4 O2 1.248 . S
C5 O6 1.264 . S
C5 O13 1.249 . S
O6 C5 1.264 . S
O7 Mg0 1.986 . S
O7 C11 1.246 . S
O8 Mg3 2.032 . S
O8 C11 1.259 . S
O9 Mg0 2.114 . S
O9 C12 1.252 . S
O10 Mg0 2.251 . S
O10 Mg3 2.079 . S
O10 C12 1.273 . S
C11 O7 1.246 . S
C11 O8 1.259 . S
C12 O9 1.252 . S
C12 O10 1.273 . S
O13 Mg0 2.010 . S
O13 C5 1.249 . S
Mg14 O15 2.028 . S
Mg14 O21 1.986 . S
Mg14 O23 2.114 . S
Mg14 O24 2.251 . S
Mg14 O27 2.010 . S
O15 Mg14 2.028 . S
O15 C18 1.250 . S
O16 Mg17 2.028 . S
O16 C18 1.248 . S
Mg17 O16 2.028 . S
Mg17 O22 2.032 . S
Mg17 O24 2.079 . S
C18 O15 1.250 . S
C18 O16 1.248 . S
C19 O20 1.264 . S
C19 O27 1.249 . S
O20 C19 1.264 . S
O21 Mg14 1.986 . S
O21 C25 1.246 . S
O22 Mg17 2.032 . S
O22 C25 1.259 . S
O23 Mg14 2.114 . S
O23 C26 1.252 . S
O24 Mg14 2.251 . S
O24 Mg17 2.079 . S
O24 C26 1.273 . S
C25 O21 1.246 . S
C25 O22 1.259 . S
C26 O23 1.252 . S
C26 O24 1.273 . S
O27 Mg14 2.010 . S
O27 C19 1.249 . S
Mg28 O29 2.028 . S
Mg28 O35 1.986 . S
Mg28 O37 2.114 . S
Mg28 O38 2.251 . S
Mg28 O41 2.010 . S
O29 Mg28 2.028 . S
O29 C32 1.250 . S
O30 Mg31 2.028 . S
O30 C32 1.248 . S
Mg31 O30 2.028 . S
Mg31 O36 2.032 . S
Mg31 O38 2.079 . S
C32 O29 1.250 . S
C32 O30 1.248 . S
C33 O34 1.264 . S
C33 O41 1.249 . S
O34 C33 1.264 . S
O35 Mg28 1.986 . S
O35 C39 1.246 . S
O36 Mg31 2.032 . S
O36 C39 1.259 . S
O37 Mg28 2.114 . S
O37 C40 1.252 . S
O38 Mg28 2.251 . S
O38 Mg31 2.079 . S
O38 C40 1.273 . S
C39 O35 1.246 . S
C39 O36 1.259 . S
C40 O37 1.252 . S
C40 O38 1.273 . S
O41 Mg28 2.010 . S
O41 C33 1.249 . S
Mg42 O43 2.028 . S
Mg42 O49 1.986 . S
Mg42 O51 2.114 . S
Mg42 O52 2.251 . S
Mg42 O55 2.010 . S
O43 Mg42 2.028 . S
O43 C46 1.250 . S
O44 Mg45 2.028 . S
O44 C46 1.248 . S
Mg45 O44 2.028 . S
Mg45 O50 2.032 . S
Mg45 O52 2.079 . S
C46 O43 1.250 . S
C46 O44 1.248 . S
C47 O48 1.264 . S
C47 O55 1.249 . S
O48 C47 1.264 . S
O49 Mg42 1.986 . S
O49 C53 1.246 . S
O50 Mg45 2.032 . S
O50 C53 1.259 . S
O51 Mg42 2.114 . S
O51 C54 1.252 . S
O52 Mg42 2.251 . S
O52 Mg45 2.079 . S
O52 C54 1.273 . S
C53 O49 1.246 . S
C53 O50 1.259 . S
C54 O51 1.252 . S
C54 O52 1.273 . S
O55 Mg42 2.010 . S
O55 C47 1.249 . S
Mg56 O57 2.028 . S
Mg56 O63 1.986 . S
Mg56 O65 2.114 . S
Mg56 O66 2.251 . S
Mg56 O69 2.010 . S
O57 Mg56 2.028 . S
O57 C60 1.250 . S
O58 Mg59 2.028 . S
O58 C60 1.248 . S
Mg59 O58 2.028 . S
Mg59 O64 2.032 . S
Mg59 O66 2.079 . S
C60 O57 1.250 . S
C60 O58 1.248 . S
C61 O62 1.264 . S
C61 O69 1.249 . S
O62 C61 1.264 . S
O63 Mg56 1.986 . S
O63 C67 1.246 . S
O64 Mg59 2.032 . S
O64 C67 1.259 . S
O65 Mg56 2.114 . S
O65 C68 1.252 . S
O66 Mg56 2.251 . S
O66 Mg59 2.079 . S
O66 C68 1.273 . S
C67 O63 1.246 . S
C67 O64 1.259 . S
C68 O65 1.252 . S
C68 O66 1.273 . S
O69 Mg56 2.010 . S
O69 C61 1.249 . S
Mg70 O71 2.028 . S
Mg70 O77 1.986 . S
Mg70 O79 2.114 . S
Mg70 O80 2.251 . S
Mg70 O83 2.010 . S
O71 Mg70 2.028 . S
O71 C74 1.250 . S
O72 Mg73 2.028 . S
O72 C74 1.248 . S
Mg73 O72 2.028 . S
Mg73 O78 2.032 . S
Mg73 O80 2.079 . S
C74 O71 1.250 . S
C74 O72 1.248 . S
C75 O76 1.264 . S
C75 O83 1.249 . S
O76 C75 1.264 . S
O77 Mg70 1.986 . S
O77 C81 1.246 . S
O78 Mg73 2.032 . S
O78 C81 1.259 . S
O79 Mg70 2.114 . S
O79 C82 1.252 . S
O80 Mg70 2.251 . S
O80 Mg73 2.079 . S
O80 C82 1.273 . S
C81 O77 1.246 . S
C81 O78 1.259 . S
C82 O79 1.252 . S
C82 O80 1.273 . S
O83 Mg70 2.010 . S
O83 C75 1.249 . S
Mg84 O85 2.028 . S
Mg84 O91 1.986 . S
Mg84 O93 2.114 . S
Mg84 O94 2.251 . S
Mg84 O97 2.010 . S
O85 Mg84 2.028 . S
O85 C88 1.250 . S
O86 Mg87 2.028 . S
O86 C88 1.248 . S
Mg87 O86 2.028 . S
Mg87 O92 2.032 . S
Mg87 O94 2.079 . S
C88 O85 1.250 . S
C88 O86 1.248 . S
C89 O90 1.264 . S
C89 O97 1.249 . S
O90 C89 1.264 . S
O91 Mg84 1.986 . S
O91 C95 1.246 . S
O92 Mg87 2.032 . S
O92 C95 1.259 . S
O93 Mg84 2.114 . S
O93 C96 1.252 . S
O94 Mg84 2.251 . S
O94 Mg87 2.079 . S
O94 C96 1.273 . S
C95 O91 1.246 . S
C95 O92 1.259 . S
C96 O93 1.252 . S
C96 O94 1.273 . S
O97 Mg84 2.010 . S
O97 C89 1.249 . S
Mg98 O99 2.028 . S
Mg98 O105 1.986 . S
Mg98 O107 2.114 . S
Mg98 O108 2.251 . S
Mg98 O111 2.010 . S
O99 Mg98 2.028 . S
O99 C102 1.250 . S
O100 Mg101 2.028 . S
O100 C102 1.248 . S
Mg101 O100 2.028 . S
Mg101 O106 2.032 . S
Mg101 O108 2.079 . S
C102 O99 1.250 . S
C102 O100 1.248 . S
C103 O104 1.264 . S
C103 O111 1.249 . S
O104 C103 1.264 . S
O105 Mg98 1.986 . S
O105 C109 1.246 . S
O106 Mg101 2.032 . S
O106 C109 1.259 . S
O107 Mg98 2.114 . S
O107 C110 1.252 . S
O108 Mg98 2.251 . S
O108 Mg101 2.079 . S
O108 C110 1.273 . S
C109 O105 1.246 . S
C109 O106 1.259 . S
C110 O107 1.252 . S
C110 O108 1.273 . S
O111 Mg98 2.010 . S
O111 C103 1.249 . S
Mg112 O113 2.028 . S
Mg112 O119 1.986 . S
Mg112 O121 2.114 . S
Mg112 O122 2.251 . S
Mg112 O125 2.010 . S
O113 Mg112 2.028 . S
O113 C116 1.250 . S
O114 Mg115 2.028 . S
O114 C116 1.248 . S
Mg115 O114 2.028 . S
Mg115 O120 2.032 . S
Mg115 O122 2.079 . S
C116 O113 1.250 . S
C116 O114 1.248 . S
C117 O118 1.264 . S
C117 O125 1.249 . S
O118 C117 1.264 . S
O119 Mg112 1.986 . S
O119 C123 1.246 . S
O120 Mg115 2.032 . S
O120 C123 1.259 . S
O121 Mg112 2.114 . S
O121 C124 1.252 . S
O122 Mg112 2.251 . S
O122 Mg115 2.079 . S
O122 C124 1.273 . S
C123 O119 1.246 . S
C123 O120 1.259 . S
C124 O121 1.252 . S
C124 O122 1.273 . S
O125 Mg112 2.010 . S
O125 C117 1.249 . S
Mg126 O127 2.028 . S
Mg126 O133 1.986 . S
Mg126 O135 2.114 . S
Mg126 O136 2.251 . S
Mg126 O139 2.010 . S
O127 Mg126 2.028 . S
O127 C130 1.250 . S
O128 Mg129 2.028 . S
O128 C130 1.248 . S
Mg129 O128 2.028 . S
Mg129 O134 2.032 . S
Mg129 O136 2.079 . S
C130 O127 1.250 . S
C130 O128 1.248 . S
C131 O132 1.264 . S
C131 O139 1.249 . S
O132 C131 1.264 . S
O133 Mg126 1.986 . S
O133 C137 1.246 . S
O134 Mg129 2.032 . S
O134 C137 1.259 . S
O135 Mg126 2.114 . S
O135 C138 1.252 . S
O136 Mg126 2.251 . S
O136 Mg129 2.079 . S
O136 C138 1.273 . S
C137 O133 1.246 . S
C137 O134 1.259 . S
C138 O135 1.252 . S
C138 O136 1.273 . S
O139 Mg126 2.010 . S
O139 C131 1.249 . S
Mg140 O141 2.028 . S
Mg140 O147 1.986 . S
Mg140 O149 2.114 . S
Mg140 O150 2.251 . S
Mg140 O153 2.010 . S
O141 Mg140 2.028 . S
O141 C144 1.250 . S
O142 Mg143 2.028 . S
O142 C144 1.248 . S
Mg143 O142 2.028 . S
Mg143 O148 2.032 . S
Mg143 O150 2.079 . S
C144 O141 1.250 . S
C144 O142 1.248 . S
C145 O146 1.264 . S
C145 O153 1.249 . S
O146 C145 1.264 . S
O147 Mg140 1.986 . S
O147 C151 1.246 . S
O148 Mg143 2.032 . S
O148 C151 1.259 . S
O149 Mg140 2.114 . S
O149 C152 1.252 . S
O150 Mg140 2.251 . S
O150 Mg143 2.079 . S
O150 C152 1.273 . S
C151 O147 1.246 . S
C151 O148 1.259 . S
C152 O149 1.252 . S
C152 O150 1.273 . S
O153 Mg140 2.010 . S
O153 C145 1.249 . S
Mg154 O155 2.028 . S
Mg154 O161 1.986 . S
Mg154 O163 2.114 . S
Mg154 O164 2.251 . S
Mg154 O167 2.010 . S
O155 Mg154 2.028 . S
O155 C158 1.250 . S
O156 Mg157 2.028 . S
O156 C158 1.248 . S
Mg157 O156 2.028 . S
Mg157 O162 2.032 . S
Mg157 O164 2.079 . S
C158 O155 1.250 . S
C158 O156 1.248 . S
C159 O160 1.264 . S
C159 O167 1.249 . S
O160 C159 1.264 . S
O161 Mg154 1.986 . S
O161 C165 1.246 . S
O162 Mg157 2.032 . S
O162 C165 1.259 . S
O163 Mg154 2.114 . S
O163 C166 1.252 . S
O164 Mg154 2.251 . S
O164 Mg157 2.079 . S
O164 C166 1.273 . S
C165 O161 1.246 . S
C165 O162 1.259 . S
C166 O163 1.252 . S
C166 O164 1.273 . S
O167 Mg154 2.010 . S
O167 C159 1.249 . S
Mg168 O169 2.028 . S
Mg168 O175 1.986 . S
Mg168 O177 2.114 . S
Mg168 O178 2.251 . S
Mg168 O181 2.010 . S
O169 Mg168 2.028 . S
O169 C172 1.250 . S
O170 Mg171 2.028 . S
O170 C172 1.248 . S
Mg171 O170 2.028 . S
Mg171 O176 2.032 . S
Mg171 O178 2.079 . S
C172 O169 1.250 . S
C172 O170 1.248 . S
C173 O174 1.264 . S
C173 O181 1.249 . S
O174 C173 1.264 . S
O175 Mg168 1.986 . S
O175 C179 1.246 . S
O176 Mg171 2.032 . S
O176 C179 1.259 . S
O177 Mg168 2.114 . S
O177 C180 1.252 . S
O178 Mg168 2.251 . S
O178 Mg171 2.079 . S
O178 C180 1.273 . S
C179 O175 1.246 . S
C179 O176 1.259 . S
C180 O177 1.252 . S
C180 O178 1.273 . S
O181 Mg168 2.010 . S
O181 C173 1.249 . S
Mg182 O183 2.028 . S
Mg182 O189 1.986 . S
Mg182 O191 2.114 . S
Mg182 O192 2.251 . S
Mg182 O195 2.010 . S
O183 Mg182 2.028 . S
O183 C186 1.250 . S
O184 Mg185 2.028 . S
O184 C186 1.248 . S
Mg185 O184 2.028 . S
Mg185 O190 2.032 . S
Mg185 O192 2.079 . S
C186 O183 1.250 . S
C186 O184 1.248 . S
C187 O188 1.264 . S
C187 O195 1.249 . S
O188 C187 1.264 . S
O189 Mg182 1.986 . S
O189 C193 1.246 . S
O190 Mg185 2.032 . S
O190 C193 1.259 . S
O191 Mg182 2.114 . S
O191 C194 1.252 . S
O192 Mg182 2.251 . S
O192 Mg185 2.079 . S
O192 C194 1.273 . S
C193 O189 1.246 . S
C193 O190 1.259 . S
C194 O191 1.252 . S
C194 O192 1.273 . S
O195 Mg182 2.010 . S
O195 C187 1.249 . S
Mg196 O197 2.028 . S
Mg196 O203 1.986 . S
Mg196 O205 2.114 . S
Mg196 O206 2.251 . S
Mg196 O209 2.010 . S
O197 Mg196 2.028 . S
O197 C200 1.250 . S
O198 Mg199 2.028 . S
O198 C200 1.248 . S
Mg199 O198 2.028 . S
Mg199 O204 2.032 . S
Mg199 O206 2.079 . S
C200 O197 1.250 . S
C200 O198 1.248 . S
C201 O202 1.264 . S
C201 O209 1.249 . S
O202 C201 1.264 . S
O203 Mg196 1.986 . S
O203 C207 1.246 . S
O204 Mg199 2.032 . S
O204 C207 1.259 . S
O205 Mg196 2.114 . S
O205 C208 1.252 . S
O206 Mg196 2.251 . S
O206 Mg199 2.079 . S
O206 C208 1.273 . S
C207 O203 1.246 . S
C207 O204 1.259 . S
C208 O205 1.252 . S
C208 O206 1.273 . S
O209 Mg196 2.010 . S
O209 C201 1.249 . S
Mg210 O211 2.028 . S
Mg210 O217 1.986 . S
Mg210 O219 2.114 . S
Mg210 O220 2.251 . S
Mg210 O223 2.010 . S
O211 Mg210 2.028 . S
O211 C214 1.250 . S
O212 Mg213 2.028 . S
O212 C214 1.248 . S
Mg213 O212 2.028 . S
Mg213 O218 2.032 . S
Mg213 O220 2.079 . S
C214 O211 1.250 . S
C214 O212 1.248 . S
C215 O216 1.264 . S
C215 O223 1.249 . S
O216 C215 1.264 . S
O217 Mg210 1.986 . S
O217 C221 1.246 . S
O218 Mg213 2.032 . S
O218 C221 1.259 . S
O219 Mg210 2.114 . S
O219 C222 1.252 . S
O220 Mg210 2.251 . S
O220 Mg213 2.079 . S
O220 C222 1.273 . S
C221 O217 1.246 . S
C221 O218 1.259 . S
C222 O219 1.252 . S
C222 O220 1.273 . S
O223 Mg210 2.010 . S
O223 C215 1.249 . S
Mg224 O225 2.028 . S
Mg224 O231 1.986 . S
Mg224 O233 2.114 . S
Mg224 O234 2.251 . S
Mg224 O237 2.010 . S
O225 Mg224 2.028 . S
O225 C228 1.250 . S
O226 Mg227 2.028 . S
O226 C228 1.248 . S
Mg227 O226 2.028 . S
Mg227 O232 2.032 . S
Mg227 O234 2.079 . S
C228 O225 1.250 . S
C228 O226 1.248 . S
C229 O230 1.264 . S
C229 O237 1.249 . S
O230 C229 1.264 . S
O231 Mg224 1.986 . S
O231 C235 1.246 . S
O232 Mg227 2.032 . S
O232 C235 1.259 . S
O233 Mg224 2.114 . S
O233 C236 1.252 . S
O234 Mg224 2.251 . S
O234 Mg227 2.079 . S
O234 C236 1.273 . S
C235 O231 1.246 . S
C235 O232 1.259 . S
C236 O233 1.252 . S
C236 O234 1.273 . S
O237 Mg224 2.010 . S
O237 C229 1.249 . S
Mg238 O239 2.028 . S
Mg238 O245 1.986 . S
Mg238 O247 2.114 . S
Mg238 O248 2.251 . S
Mg238 O251 2.010 . S
O239 Mg238 2.028 . S
O239 C242 1.250 . S
O240 Mg241 2.028 . S
O240 C242 1.248 . S
Mg241 O240 2.028 . S
Mg241 O246 2.032 . S
Mg241 O248 2.079 . S
C242 O239 1.250 . S
C242 O240 1.248 . S
C243 O244 1.264 . S
C243 O251 1.249 . S
O244 C243 1.264 . S
O245 Mg238 1.986 . S
O245 C249 1.246 . S
O246 Mg241 2.032 . S
O246 C249 1.259 . S
O247 Mg238 2.114 . S
O247 C250 1.252 . S
O248 Mg238 2.251 . S
O248 Mg241 2.079 . S
O248 C250 1.273 . S
C249 O245 1.246 . S
C249 O246 1.259 . S
C250 O247 1.252 . S
C250 O248 1.273 . S
O251 Mg238 2.010 . S
O251 C243 1.249 . S
Mg252 O253 2.028 . S
Mg252 O259 1.986 . S
Mg252 O261 2.114 . S
Mg252 O262 2.251 . S
Mg252 O265 2.010 . S
O253 Mg252 2.028 . S
O253 C256 1.250 . S
O254 Mg255 2.028 . S
O254 C256 1.248 . S
Mg255 O254 2.028 . S
Mg255 O260 2.032 . S
Mg255 O262 2.079 . S
C256 O253 1.250 . S
C256 O254 1.248 . S
C257 O258 1.264 . S
C257 O265 1.249 . S
O258 C257 1.264 . S
O259 Mg252 1.986 . S
O259 C263 1.246 . S
O260 Mg255 2.032 . S
O260 C263 1.259 . S
O261 Mg252 2.114 . S
O261 C264 1.252 . S
O262 Mg252 2.251 . S
O262 Mg255 2.079 . S
O262 C264 1.273 . S
C263 O259 1.246 . S
C263 O260 1.259 . S
C264 O261 1.252 . S
C264 O262 1.273 . S
O265 Mg252 2.010 . S
O265 C257 1.249 . S
Mg266 O267 2.028 . S
Mg266 O273 1.986 . S
Mg266 O275 2.114 . S
Mg266 O276 2.251 . S
Mg266 O279 2.010 . S
O267 Mg266 2.028 . S
O267 C270 1.250 . S
O268 Mg269 2.028 . S
O268 C270 1.248 . S
Mg269 O268 2.028 . S
Mg269 O274 2.032 . S
Mg269 O276 2.079 . S
C270 O267 1.250 . S
C270 O268 1.248 . S
C271 O272 1.264 . S
C271 O279 1.249 . S
O272 C271 1.264 . S
O273 Mg266 1.986 . S
O273 C277 1.246 . S
O274 Mg269 2.032 . S
O274 C277 1.259 . S
O275 Mg266 2.114 . S
O275 C278 1.252 . S
O276 Mg266 2.251 . S
O276 Mg269 2.079 . S
O276 C278 1.273 . S
C277 O273 1.246 . S
C277 O274 1.259 . S
C278 O275 1.252 . S
C278 O276 1.273 . S
O279 Mg266 2.010 . S
O279 C271 1.249 . S
Mg280 O281 2.028 . S
Mg280 O287 1.986 . S
Mg280 O289 2.114 . S
Mg280 O290 2.251 . S
Mg280 O293 2.010 . S
O281 Mg280 2.028 . S
O281 C284 1.250 . S
O282 Mg283 2.028 . S
O282 C284 1.248 . S
Mg283 O282 2.028 . S
Mg283 O288 2.032 . S
Mg283 O290 2.079 . S
C284 O281 1.250 . S
C284 O282 1.248 . S
C285 O286 1.264 . S
C285 O293 1.249 . S
O286 C285 1.264 . S
O287 Mg280 1.986 . S
O287 C291 1.246 . S
O288 Mg283 2.032 . S
O288 C291 1.259 . S
O289 Mg280 2.114 . S
O289 C292 1.252 . S
O290 Mg280 2.251 . S
O290 Mg283 2.079 . S
O290 C292 1.273 . S
C291 O287 1.246 . S
C291 O288 1.259 . S
C292 O289 1.252 . S
C292 O290 1.273 . S
O293 Mg280 2.010 . S
O293 C285 1.249 . S
Mg294 O295 2.028 . S
Mg294 O301 1.986 . S
Mg294 O303 2.114 . S
Mg294 O304 2.251 . S
Mg294 O307 2.010 . S
O295 Mg294 2.028 . S
O295 C298 1.250 . S
O296 Mg297 2.028 . S
O296 C298 1.248 . S
Mg297 O296 2.028 . S
Mg297 O302 2.032 . S
Mg297 O304 2.079 . S
C298 O295 1.250 . S
C298 O296 1.248 . S
C299 O300 1.264 . S
C299 O307 1.249 . S
O300 C299 1.264 . S
O301 Mg294 1.986 . S
O301 C305 1.246 . S
O302 Mg297 2.032 . S
O302 C305 1.259 . S
O303 Mg294 2.114 . S
O303 C306 1.252 . S
O304 Mg294 2.251 . S
O304 Mg297 2.079 . S
O304 C306 1.273 . S
C305 O301 1.246 . S
C305 O302 1.259 . S
C306 O303 1.252 . S
C306 O304 1.273 . S
O307 Mg294 2.010 . S
O307 C299 1.249 . S
Mg308 O309 2.028 . S
Mg308 O315 1.986 . S
Mg308 O317 2.114 . S
Mg308 O318 2.251 . S
Mg308 O321 2.010 . S
O309 Mg308 2.028 . S
O309 C312 1.250 . S
O310 Mg311 2.028 . S
O310 C312 1.248 . S
Mg311 O310 2.028 . S
Mg311 O316 2.032 . S
Mg311 O318 2.079 . S
C312 O309 1.250 . S
C312 O310 1.248 . S
C313 O314 1.264 . S
C313 O321 1.249 . S
O314 C313 1.264 . S
O315 Mg308 1.986 . S
O315 C319 1.246 . S
O316 Mg311 2.032 . S
O316 C319 1.259 . S
O317 Mg308 2.114 . S
O317 C320 1.252 . S
O318 Mg308 2.251 . S
O318 Mg311 2.079 . S
O318 C320 1.273 . S
C319 O315 1.246 . S
C319 O316 1.259 . S
C320 O317 1.252 . S
C320 O318 1.273 . S
O321 Mg308 2.010 . S
O321 C313 1.249 . S
Mg322 O323 2.028 . S
Mg322 O329 1.986 . S
Mg322 O331 2.114 . S
Mg322 O332 2.251 . S
Mg322 O335 2.010 . S
O323 Mg322 2.028 . S
O323 C326 1.250 . S
O324 Mg325 2.028 . S
O324 C326 1.248 . S
Mg325 O324 2.028 . S
Mg325 O330 2.032 . S
Mg325 O332 2.079 . S
C326 O323 1.250 . S
C326 O324 1.248 . S
C327 O328 1.264 . S
C327 O335 1.249 . S
O328 C327 1.264 . S
O329 Mg322 1.986 . S
O329 C333 1.246 . S
O330 Mg325 2.032 . S
O330 C333 1.259 . S
O331 Mg322 2.114 . S
O331 C334 1.252 . S
O332 Mg322 2.251 . S
O332 Mg325 2.079 . S
O332 C334 1.273 . S
C333 O329 1.246 . S
C333 O330 1.259 . S
C334 O331 1.252 . S
C334 O332 1.273 . S
O335 Mg322 2.010 . S
O335 C327 1.249 . S
Mg336 O337 2.028 . S
Mg336 O343 1.986 . S
Mg336 O345 2.114 . S
Mg336 O346 2.251 . S
Mg336 O349 2.010 . S
O337 Mg336 2.028 . S
O337 C340 1.250 . S
O338 Mg339 2.028 . S
O338 C340 1.248 . S
Mg339 O338 2.028 . S
Mg339 O344 2.032 . S
Mg339 O346 2.079 . S
C340 O337 1.250 . S
C340 O338 1.248 . S
C341 O342 1.264 . S
C341 O349 1.249 . S
O342 C341 1.264 . S
O343 Mg336 1.986 . S
O343 C347 1.246 . S
O344 Mg339 2.032 . S
O344 C347 1.259 . S
O345 Mg336 2.114 . S
O345 C348 1.252 . S
O346 Mg336 2.251 . S
O346 Mg339 2.079 . S
O346 C348 1.273 . S
C347 O343 1.246 . S
C347 O344 1.259 . S
C348 O345 1.252 . S
C348 O346 1.273 . S
O349 Mg336 2.010 . S
O349 C341 1.249 . S
Mg350 O351 2.028 . S
Mg350 O357 1.986 . S
Mg350 O359 2.114 . S
Mg350 O360 2.251 . S
Mg350 O363 2.010 . S
O351 Mg350 2.028 . S
O351 C354 1.250 . S
O352 Mg353 2.028 . S
O352 C354 1.248 . S
Mg353 O352 2.028 . S
Mg353 O358 2.032 . S
Mg353 O360 2.079 . S
C354 O351 1.250 . S
C354 O352 1.248 . S
C355 O356 1.264 . S
C355 O363 1.249 . S
O356 C355 1.264 . S
O357 Mg350 1.986 . S
O357 C361 1.246 . S
O358 Mg353 2.032 . S
O358 C361 1.259 . S
O359 Mg350 2.114 . S
O359 C362 1.252 . S
O360 Mg350 2.251 . S
O360 Mg353 2.079 . S
O360 C362 1.273 . S
C361 O357 1.246 . S
C361 O358 1.259 . S
C362 O359 1.252 . S
C362 O360 1.273 . S
O363 Mg350 2.010 . S
O363 C355 1.249 . S
Mg364 O365 2.028 . S
Mg364 O371 1.986 . S
Mg364 O373 2.114 . S
Mg364 O374 2.251 . S
Mg364 O377 2.010 . S
O365 Mg364 2.028 . S
O365 C368 1.250 . S
O366 Mg367 2.028 . S
O366 C368 1.248 . S
Mg367 O366 2.028 . S
Mg367 O372 2.032 . S
Mg367 O374 2.079 . S
C368 O365 1.250 . S
C368 O366 1.248 . S
C369 O370 1.264 . S
C369 O377 1.249 . S
O370 C369 1.264 . S
O371 Mg364 1.986 . S
O371 C375 1.246 . S
O372 Mg367 2.032 . S
O372 C375 1.259 . S
O373 Mg364 2.114 . S
O373 C376 1.252 . S
O374 Mg364 2.251 . S
O374 Mg367 2.079 . S
O374 C376 1.273 . S
C375 O371 1.246 . S
C375 O372 1.259 . S
C376 O373 1.252 . S
C376 O374 1.273 . S
O377 Mg364 2.010 . S
O377 C369 1.249 . S
Mg378 O379 2.028 . S
Mg378 O385 1.986 . S
Mg378 O387 2.114 . S
Mg378 O388 2.251 . S
Mg378 O391 2.010 . S
O379 Mg378 2.028 . S
O379 C382 1.250 . S
O380 Mg381 2.028 . S
O380 C382 1.248 . S
Mg381 O380 2.028 . S
Mg381 O386 2.032 . S
Mg381 O388 2.079 . S
C382 O379 1.250 . S
C382 O380 1.248 . S
C383 O384 1.264 . S
C383 O391 1.249 . S
O384 C383 1.264 . S
O385 Mg378 1.986 . S
O385 C389 1.246 . S
O386 Mg381 2.032 . S
O386 C389 1.259 . S
O387 Mg378 2.114 . S
O387 C390 1.252 . S
O388 Mg378 2.251 . S
O388 Mg381 2.079 . S
O388 C390 1.273 . S
C389 O385 1.246 . S
C389 O386 1.259 . S
C390 O387 1.252 . S
C390 O388 1.273 . S
O391 Mg378 2.010 . S
O391 C383 1.249 . S
Mg392 O393 2.028 . S
Mg392 O399 1.986 . S
Mg392 O401 2.114 . S
Mg392 O402 2.251 . S
Mg392 O405 2.010 . S
O393 Mg392 2.028 . S
O393 C396 1.250 . S
O394 Mg395 2.028 . S
O394 C396 1.248 . S
Mg395 O394 2.028 . S
Mg395 O400 2.032 . S
Mg395 O402 2.079 . S
C396 O393 1.250 . S
C396 O394 1.248 . S
C397 O398 1.264 . S
C397 O405 1.249 . S
O398 C397 1.264 . S
O399 Mg392 1.986 . S
O399 C403 1.246 . S
O400 Mg395 2.032 . S
O400 C403 1.259 . S
O401 Mg392 2.114 . S
O401 C404 1.252 . S
O402 Mg392 2.251 . S
O402 Mg395 2.079 . S
O402 C404 1.273 . S
C403 O399 1.246 . S
C403 O400 1.259 . S
C404 O401 1.252 . S
C404 O402 1.273 . S
O405 Mg392 2.010 . S
O405 C397 1.249 . S
Mg406 O407 2.028 . S
Mg406 O413 1.986 . S
Mg406 O415 2.114 . S
Mg406 O416 2.251 . S
Mg406 O419 2.010 . S
O407 Mg406 2.028 . S
O407 C410 1.250 . S
O408 Mg409 2.028 . S
O408 C410 1.248 . S
Mg409 O408 2.028 . S
Mg409 O414 2.032 . S
Mg409 O416 2.079 . S
C410 O407 1.250 . S
C410 O408 1.248 . S
C411 O412 1.264 . S
C411 O419 1.249 . S
O412 C411 1.264 . S
O413 Mg406 1.986 . S
O413 C417 1.246 . S
O414 Mg409 2.032 . S
O414 C417 1.259 . S
O415 Mg406 2.114 . S
O415 C418 1.252 . S
O416 Mg406 2.251 . S
O416 Mg409 2.079 . S
O416 C418 1.273 . S
C417 O413 1.246 . S
C417 O414 1.259 . S
C418 O415 1.252 . S
C418 O416 1.273 . S
O419 Mg406 2.010 . S
O419 C411 1.249 . S
Mg420 O421 2.028 . S
Mg420 O427 1.986 . S
Mg420 O429 2.114 . S
Mg420 O430 2.251 . S
Mg420 O433 2.010 . S
O421 Mg420 2.028 . S
O421 C424 1.250 . S
O422 Mg423 2.028 . S
O422 C424 1.248 . S
Mg423 O422 2.028 . S
Mg423 O428 2.032 . S
Mg423 O430 2.079 . S
C424 O421 1.250 . S
C424 O422 1.248 . S
C425 O426 1.264 . S
C425 O433 1.249 . S
O426 C425 1.264 . S
O427 Mg420 1.986 . S
O427 C431 1.246 . S
O428 Mg423 2.032 . S
O428 C431 1.259 . S
O429 Mg420 2.114 . S
O429 C432 1.252 . S
O430 Mg420 2.251 . S
O430 Mg423 2.079 . S
O430 C432 1.273 . S
C431 O427 1.246 . S
C431 O428 1.259 . S
C432 O429 1.252 . S
C432 O430 1.273 . S
O433 Mg420 2.010 . S
O433 C425 1.249 . S
Mg434 O435 2.028 . S
Mg434 O441 1.986 . S
Mg434 O443 2.114 . S
Mg434 O444 2.251 . S
Mg434 O447 2.010 . S
O435 Mg434 2.028 . S
O435 C438 1.250 . S
O436 Mg437 2.028 . S
O436 C438 1.248 . S
Mg437 O436 2.028 . S
Mg437 O442 2.032 . S
Mg437 O444 2.079 . S
C438 O435 1.250 . S
C438 O436 1.248 . S
C439 O440 1.264 . S
C439 O447 1.249 . S
O440 C439 1.264 . S
O441 Mg434 1.986 . S
O441 C445 1.246 . S
O442 Mg437 2.032 . S
O442 C445 1.259 . S
O443 Mg434 2.114 . S
O443 C446 1.252 . S
O444 Mg434 2.251 . S
O444 Mg437 2.079 . S
O444 C446 1.273 . S
C445 O441 1.246 . S
C445 O442 1.259 . S
C446 O443 1.252 . S
C446 O444 1.273 . S
O447 Mg434 2.010 . S
O447 C439 1.249 . S
C448 C449 1.369 . S
C448 C450 1.419 . S
C448 H452 0.930 . S
C449 C448 1.369 . S
C449 C458 1.429 . S
C450 C448 1.419 . S
C450 C451 1.363 . S
C450 H453 0.929 . S
C451 C450 1.363 . S
C451 C457 1.428 . S
H452 C448 0.930 . S
H453 C450 0.929 . S
S454 N455 1.613 . S
S454 N456 1.610 . S
N455 S454 1.613 . S
N455 C458 1.350 . S
N456 S454 1.610 . S
N456 C457 1.351 . S
C457 C451 1.428 . S
C457 N456 1.351 . S
C457 C458 1.434 . S
C458 C449 1.429 . S
C458 N455 1.350 . S
C458 C457 1.434 . S
C459 C460 1.369 . S
C459 C461 1.419 . S
C459 H463 0.930 . S
C460 C459 1.369 . S
C460 C469 1.429 . S
C461 C459 1.419 . S
C461 C462 1.363 . S
C461 H464 0.929 . S
C462 C461 1.363 . S
C462 C468 1.428 . S
H463 C459 0.930 . S
H464 C461 0.929 . S
S465 N466 1.613 . S
S465 N467 1.610 . S
N466 S465 1.613 . S
N466 C469 1.350 . S
N467 S465 1.610 . S
N467 C468 1.351 . S
C468 C462 1.428 . S
C468 N467 1.351 . S
C468 C469 1.434 . S
C469 C460 1.429 . S
C469 N466 1.350 . S
C469 C468 1.434 . S
C470 C471 1.369 . S
C470 C472 1.419 . S
C470 H474 0.930 . S
C471 C470 1.369 . S
C471 C480 1.429 . S
C472 C470 1.419 . S
C472 C473 1.363 . S
C472 H475 0.929 . S
C473 C472 1.363 . S
C473 C479 1.428 . S
H474 C470 0.930 . S
H475 C472 0.929 . S
S476 N477 1.613 . S
S476 N478 1.610 . S
N477 S476 1.613 . S
N477 C480 1.350 . S
N478 S476 1.610 . S
N478 C479 1.351 . S
C479 C473 1.428 . S
C479 N478 1.351 . S
C479 C480 1.434 . S
C480 C471 1.429 . S
C480 N477 1.350 . S
C480 C479 1.434 . S
C481 C482 1.369 . S
C481 C483 1.419 . S
C481 H485 0.930 . S
C482 C481 1.369 . S
C482 C491 1.429 . S
C483 C481 1.419 . S
C483 C484 1.363 . S
C483 H486 0.929 . S
C484 C483 1.363 . S
C484 C490 1.428 . S
H485 C481 0.930 . S
H486 C483 0.929 . S
S487 N488 1.613 . S
S487 N489 1.610 . S
N488 S487 1.613 . S
N488 C491 1.350 . S
N489 S487 1.610 . S
N489 C490 1.351 . S
C490 C484 1.428 . S
C490 N489 1.351 . S
C490 C491 1.434 . S
C491 C482 1.429 . S
C491 N488 1.350 . S
C491 C490 1.434 . S
C492 C493 1.369 . S
C492 C494 1.419 . S
C492 H496 0.930 . S
C493 C492 1.369 . S
C493 C502 1.429 . S
C494 C492 1.419 . S
C494 C495 1.363 . S
C494 H497 0.929 . S
C495 C494 1.363 . S
C495 C501 1.428 . S
H496 C492 0.930 . S
H497 C494 0.929 . S
S498 N499 1.613 . S
S498 N500 1.610 . S
N499 S498 1.613 . S
N499 C502 1.350 . S
N500 S498 1.610 . S
N500 C501 1.351 . S
C501 C495 1.428 . S
C501 N500 1.351 . S
C501 C502 1.434 . S
C502 C493 1.429 . S
C502 N499 1.350 . S
C502 C501 1.434 . S
C503 C504 1.369 . S
C503 C505 1.419 . S
C503 H507 0.930 . S
C504 C503 1.369 . S
C504 C513 1.429 . S
C505 C503 1.419 . S
C505 C506 1.363 . S
C505 H508 0.929 . S
C506 C505 1.363 . S
C506 C512 1.428 . S
H507 C503 0.930 . S
H508 C505 0.929 . S
S509 N510 1.613 . S
S509 N511 1.610 . S
N510 S509 1.613 . S
N510 C513 1.350 . S
N511 S509 1.610 . S
N511 C512 1.351 . S
C512 C506 1.428 . S
C512 N511 1.351 . S
C512 C513 1.434 . S
C513 C504 1.429 . S
C513 N510 1.350 . S
C513 C512 1.434 . S
C514 C515 1.369 . S
C514 C516 1.419 . S
C514 H518 0.930 . S
C515 C514 1.369 . S
C515 C524 1.429 . S
C516 C514 1.419 . S
C516 C517 1.363 . S
C516 H519 0.929 . S
C517 C516 1.363 . S
C517 C523 1.428 . S
H518 C514 0.930 . S
H519 C516 0.929 . S
S520 N521 1.613 . S
S520 N522 1.610 . S
N521 S520 1.613 . S
N521 C524 1.350 . S
N522 S520 1.610 . S
N522 C523 1.351 . S
C523 C517 1.428 . S
C523 N522 1.351 . S
C523 C524 1.434 . S
C524 C515 1.429 . S
C524 N521 1.350 . S
C524 C523 1.434 . S
C525 C526 1.369 . S
C525 C527 1.419 . S
C525 H529 0.930 . S
C526 C525 1.369 . S
C526 C535 1.429 . S
C527 C525 1.419 . S
C527 C528 1.363 . S
C527 H530 0.929 . S
C528 C527 1.363 . S
C528 C534 1.428 . S
H529 C525 0.930 . S
H530 C527 0.929 . S
S531 N532 1.613 1_565 S
S531 N533 1.610 1_565 S
N532 S531 1.613 1_545 S
N532 C535 1.350 . S
N533 S531 1.610 1_545 S
N533 C534 1.351 . S
C534 C528 1.428 . S
C534 N533 1.351 . S
C534 C535 1.434 . S
C535 C526 1.429 . S
C535 N532 1.350 . S
C535 C534 1.434 . S
C536 C537 1.369 . S
C536 C538 1.419 . S
C536 H540 0.930 . S
C537 C536 1.369 . S
C537 C546 1.429 . S
C538 C536 1.419 . S
C538 C539 1.363 . S
C538 H541 0.929 . S
C539 C538 1.363 . S
C539 C545 1.428 . S
H540 C536 0.930 . S
H541 C538 0.929 . S
S542 N543 1.613 . S
S542 N544 1.610 . S
N543 S542 1.613 . S
N543 C546 1.350 . S
N544 S542 1.610 . S
N544 C545 1.351 . S
C545 C539 1.428 . S
C545 N544 1.351 . S
C545 C546 1.434 . S
C546 C537 1.429 . S
C546 N543 1.350 . S
C546 C545 1.434 . S
C547 C548 1.369 . S
C547 C549 1.419 . S
C547 H551 0.930 . S
C548 C547 1.369 . S
C548 C557 1.429 . S
C549 C547 1.419 . S
C549 C550 1.363 . S
C549 H552 0.929 . S
C550 C549 1.363 . S
C550 C556 1.428 . S
H551 C547 0.930 . S
H552 C549 0.929 . S
S553 N554 1.613 . S
S553 N555 1.610 . S
N554 S553 1.613 . S
N554 C557 1.350 . S
N555 S553 1.610 . S
N555 C556 1.351 . S
C556 C550 1.428 . S
C556 N555 1.351 . S
C556 C557 1.434 . S
C557 C548 1.429 . S
C557 N554 1.350 . S
C557 C556 1.434 . S
C558 C559 1.369 . S
C558 C560 1.419 . S
C558 H562 0.930 . S
C559 C558 1.369 . S
C559 C568 1.429 . S
C560 C558 1.419 . S
C560 C561 1.363 . S
C560 H563 0.929 . S
C561 C560 1.363 . S
C561 C567 1.428 . S
H562 C558 0.930 . S
H563 C560 0.929 . S
S564 N565 1.613 . S
S564 N566 1.610 . S
N565 S564 1.613 . S
N565 C568 1.350 . S
N566 S564 1.610 . S
N566 C567 1.351 . S
C567 C561 1.428 . S
C567 N566 1.351 . S
C567 C568 1.434 . S
C568 C559 1.429 . S
C568 N565 1.350 . S
C568 C567 1.434 . S
C569 C570 1.369 . S
C569 C571 1.419 . S
C569 H573 0.930 . S
C570 C569 1.369 . S
C570 C579 1.429 . S
C571 C569 1.419 . S
C571 C572 1.363 . S
C571 H574 0.929 . S
C572 C571 1.363 . S
C572 C578 1.428 . S
H573 C569 0.930 . S
H574 C571 0.929 . S
S575 N576 1.613 . S
S575 N577 1.610 . S
N576 S575 1.613 . S
N576 C579 1.350 . S
N577 S575 1.610 . S
N577 C578 1.351 . S
C578 C572 1.428 . S
C578 N577 1.351 . S
C578 C579 1.434 . S
C579 C570 1.429 . S
C579 N576 1.350 . S
C579 C578 1.434 . S
C580 C581 1.369 . S
C580 C582 1.419 . S
C580 H584 0.930 . S
C581 C580 1.369 . S
C581 C590 1.429 . S
C582 C580 1.419 . S
C582 C583 1.363 . S
C582 H585 0.929 . S
C583 C582 1.363 . S
C583 C589 1.428 . S
H584 C580 0.930 . S
H585 C582 0.929 . S
S586 N587 1.613 . S
S586 N588 1.610 . S
N587 S586 1.613 . S
N587 C590 1.350 . S
N588 S586 1.610 . S
N588 C589 1.351 . S
C589 C583 1.428 . S
C589 N588 1.351 . S
C589 C590 1.434 . S
C590 C581 1.429 . S
C590 N587 1.350 . S
C590 C589 1.434 . S
C591 C592 1.369 . S
C591 C593 1.419 . S
C591 H595 0.930 . S
C592 C591 1.369 . S
C592 C601 1.429 . S
C593 C591 1.419 . S
C593 C594 1.363 . S
C593 H596 0.929 . S
C594 C593 1.363 . S
C594 C600 1.428 . S
H595 C591 0.930 . S
H596 C593 0.929 . S
S597 N598 1.613 . S
S597 N599 1.610 . S
N598 S597 1.613 . S
N598 C601 1.350 . S
N599 S597 1.610 . S
N599 C600 1.351 . S
C600 C594 1.428 . S
C600 N599 1.351 . S
C600 C601 1.434 . S
C601 C592 1.429 . S
C601 N598 1.350 . S
C601 C600 1.434 . S
C602 C603 1.369 . S
C602 C604 1.419 . S
C602 H606 0.930 . S
C603 C602 1.369 . S
C603 C612 1.429 . S
C604 C602 1.419 . S
C604 C605 1.363 . S
C604 H607 0.929 . S
C605 C604 1.363 . S
C605 C611 1.428 . S
H606 C602 0.930 . S
H607 C604 0.929 . S
S608 N609 1.613 . S
S608 N610 1.610 . S
N609 S608 1.613 . S
N609 C612 1.350 . S
N610 S608 1.610 . S
N610 C611 1.351 . S
C611 C605 1.428 . S
C611 N610 1.351 . S
C611 C612 1.434 . S
C612 C603 1.429 . S
C612 N609 1.350 . S
C612 C611 1.434 . S
C613 C614 1.369 . S
C613 C615 1.419 . S
C613 H617 0.930 . S
C614 C613 1.369 . S
C614 C623 1.429 . S
C615 C613 1.419 . S
C615 C616 1.363 . S
C615 H618 0.929 . S
C616 C615 1.363 . S
C616 C622 1.428 . S
H617 C613 0.930 . S
H618 C615 0.929 . S
S619 N620 1.613 . S
S619 N621 1.610 . S
N620 S619 1.613 . S
N620 C623 1.350 . S
N621 S619 1.610 . S
N621 C622 1.351 . S
C622 C616 1.428 . S
C622 N621 1.351 . S
C622 C623 1.434 . S
C623 C614 1.429 . S
C623 N620 1.350 . S
C623 C622 1.434 . S
C624 C625 1.369 . S
C624 C626 1.419 1_455 S
C624 H628 0.930 . S
C625 C624 1.369 . S
C625 C634 1.429 . S
C626 C624 1.419 1_655 S
C626 C627 1.363 . S
C626 H629 0.929 . S
C627 C626 1.363 . S
C627 C633 1.428 . S
H628 C624 0.930 . S
H629 C626 0.929 . S
S630 N631 1.615 1_655 S
S630 N632 1.609 . S
N631 S630 1.615 1_455 S
N631 C634 1.350 . S
N632 S630 1.609 . S
N632 C633 1.351 . S
C633 C627 1.428 . S
C633 N632 1.351 . S
C633 C634 1.434 1_655 S
C634 C625 1.429 . S
C634 N631 1.350 . S
C634 C633 1.434 1_455 S
C635 C636 1.369 . S
C635 C637 1.419 . S
C635 H639 0.930 . S
C636 C635 1.369 . S
C636 C645 1.429 . S
C637 C635 1.419 . S
C637 C638 1.363 . S
C637 H640 0.929 . S
C638 C637 1.363 . S
C638 C644 1.428 . S
H639 C635 0.930 . S
H640 C637 0.929 . S
S641 N642 1.613 . S
S641 N643 1.610 . S
N642 S641 1.613 . S
N642 C645 1.350 . S
N643 S641 1.610 . S
N643 C644 1.351 . S
C644 C638 1.428 . S
C644 N643 1.351 . S
C644 C645 1.434 . S
C645 C636 1.429 . S
C645 N642 1.350 . S
C645 C644 1.434 . S
C646 C647 1.369 . S
C646 C648 1.419 . S
C646 H650 0.930 . S
C647 C646 1.369 . S
C647 C656 1.429 . S
C648 C646 1.419 . S
C648 C649 1.363 . S
C648 H651 0.929 . S
C649 C648 1.363 . S
C649 C655 1.428 . S
H650 C646 0.930 . S
H651 C648 0.929 . S
S652 N653 1.613 . S
S652 N654 1.610 . S
N653 S652 1.613 . S
N653 C656 1.350 . S
N654 S652 1.610 . S
N654 C655 1.351 . S
C655 C649 1.428 . S
C655 N654 1.351 . S
C655 C656 1.434 . S
C656 C647 1.429 . S
C656 N653 1.350 . S
C656 C655 1.434 . S
C657 C658 1.369 . S
C657 C659 1.419 . S
C657 H661 0.930 . S
C658 C657 1.369 . S
C658 C667 1.429 . S
C659 C657 1.419 . S
C659 C660 1.363 . S
C659 H662 0.929 . S
C660 C659 1.363 . S
C660 C666 1.428 . S
H661 C657 0.930 . S
H662 C659 0.929 . S
S663 N664 1.613 . S
S663 N665 1.610 . S
N664 S663 1.613 . S
N664 C667 1.350 . S
N665 S663 1.610 . S
N665 C666 1.351 . S
C666 C660 1.428 . S
C666 N665 1.351 . S
C666 C667 1.434 . S
C667 C658 1.429 . S
C667 N664 1.350 . S
C667 C666 1.434 . S
C668 C669 1.369 . S
C668 C670 1.419 1_655 S
C668 H672 0.930 . S
C669 C668 1.369 . S
C669 C678 1.429 . S
C670 C668 1.419 1_455 S
C670 C671 1.363 . S
C670 H673 0.929 . S
C671 C670 1.363 . S
C671 C677 1.428 . S
H672 C668 0.930 . S
H673 C670 0.929 . S
S674 N675 1.615 1_455 S
S674 N676 1.608 . S
N675 S674 1.615 1_655 S
N675 C678 1.350 . S
N676 S674 1.608 . S
N676 C677 1.351 . S
C677 C671 1.428 . S
C677 N676 1.351 . S
C677 C678 1.434 1_455 S
C678 C669 1.429 . S
C678 N675 1.350 . S
C678 C677 1.434 1_655 S
C679 C680 1.369 . S
C679 C681 1.419 . S
C679 H683 0.930 . S
C680 C679 1.369 . S
C680 C689 1.429 . S
C681 C679 1.419 . S
C681 C682 1.363 . S
C681 H684 0.929 . S
C682 C681 1.363 . S
C682 C688 1.428 . S
H683 C679 0.930 . S
H684 C681 0.929 . S
S685 N686 1.613 . S
S685 N687 1.610 . S
N686 S685 1.613 . S
N686 C689 1.350 . S
N687 S685 1.610 . S
N687 C688 1.351 . S
C688 C682 1.428 . S
C688 N687 1.351 . S
C688 C689 1.434 . S
C689 C680 1.429 . S
C689 N686 1.350 . S
C689 C688 1.434 . S
C690 C691 1.369 . S
C690 C692 1.419 . S
C690 H694 0.930 . S
C691 C690 1.369 . S
C691 C700 1.429 . S
C692 C690 1.419 . S
C692 C693 1.363 . S
C692 H695 0.929 . S
C693 C692 1.363 . S
C693 C699 1.428 . S
H694 C690 0.930 . S
H695 C692 0.929 . S
S696 N697 1.613 . S
S696 N698 1.610 . S
N697 S696 1.613 . S
N697 C700 1.350 . S
N698 S696 1.610 . S
N698 C699 1.351 . S
C699 C693 1.428 . S
C699 N698 1.351 . S
C699 C700 1.434 . S
C700 C691 1.429 . S
C700 N697 1.350 . S
C700 C699 1.434 . S
C701 C702 1.369 . S
C701 C703 1.419 . S
C701 H705 0.930 . S
C702 C701 1.369 . S
C702 C711 1.429 . S
C703 C701 1.419 . S
C703 C704 1.363 . S
C703 H706 0.929 . S
C704 C703 1.363 . S
C704 C710 1.428 . S
H705 C701 0.930 . S
H706 C703 0.929 . S
S707 N708 1.613 . S
S707 N709 1.610 . S
N708 S707 1.613 . S
N708 C711 1.350 . S
N709 S707 1.610 . S
N709 C710 1.351 . S
C710 C704 1.428 . S
C710 N709 1.351 . S
C710 C711 1.434 . S
C711 C702 1.429 . S
C711 N708 1.350 . S
C711 C710 1.434 . S
C712 C713 1.369 . S
C712 C714 1.419 . S
C712 H716 0.930 . S
C713 C712 1.369 . S
C713 C722 1.429 . S
C714 C712 1.419 . S
C714 C715 1.363 . S
C714 H717 0.929 . S
C715 C714 1.363 . S
C715 C721 1.428 . S
H716 C712 0.930 . S
H717 C714 0.929 . S
S718 N719 1.613 . S
S718 N720 1.610 . S
N719 S718 1.613 . S
N719 C722 1.350 . S
N720 S718 1.610 . S
N720 C721 1.351 . S
C721 C715 1.428 . S
C721 N720 1.351 . S
C721 C722 1.434 . S
C722 C713 1.429 . S
C722 N719 1.350 . S
C722 C721 1.434 . S
C723 C724 1.369 . S
C723 C725 1.419 . S
C723 H727 0.930 . S
C724 C723 1.369 . S
C724 C733 1.429 . S
C725 C723 1.419 . S
C725 C726 1.363 . S
C725 H728 0.929 . S
C726 C725 1.363 . S
C726 C732 1.428 . S
H727 C723 0.930 . S
H728 C725 0.929 . S
S729 N730 1.613 . S
S729 N731 1.610 . S
N730 S729 1.613 . S
N730 C733 1.350 . S
N731 S729 1.610 . S
N731 C732 1.351 . S
C732 C726 1.428 . S
C732 N731 1.351 . S
C732 C733 1.434 . S
C733 C724 1.429 . S
C733 N730 1.350 . S
C733 C732 1.434 . S
C734 C735 1.369 . S
C734 C736 1.419 . S
C734 H738 0.930 . S
C735 C734 1.369 . S
C735 C744 1.429 . S
C736 C734 1.419 . S
C736 C737 1.363 . S
C736 H739 0.929 . S
C737 C736 1.363 . S
C737 C743 1.428 . S
H738 C734 0.930 . S
H739 C736 0.929 . S
S740 N741 1.613 . S
S740 N742 1.610 . S
N741 S740 1.613 . S
N741 C744 1.350 . S
N742 S740 1.610 . S
N742 C743 1.351 . S
C743 C737 1.428 . S
C743 N742 1.351 . S
C743 C744 1.434 . S
C744 C735 1.429 . S
C744 N741 1.350 . S
C744 C743 1.434 . S
C745 C746 1.369 . S
C745 C747 1.419 . S
C745 H749 0.930 . S
C746 C745 1.369 . S
C746 C755 1.429 . S
C747 C745 1.419 . S
C747 C748 1.363 . S
C747 H750 0.929 . S
C748 C747 1.363 . S
C748 C754 1.428 . S
H749 C745 0.930 . S
H750 C747 0.929 . S
S751 N752 1.613 . S
S751 N753 1.610 . S
N752 S751 1.613 . S
N752 C755 1.350 . S
N753 S751 1.610 . S
N753 C754 1.351 . S
C754 C748 1.428 . S
C754 N753 1.351 . S
C754 C755 1.434 . S
C755 C746 1.429 . S
C755 N752 1.350 . S
C755 C754 1.434 . S
C756 C757 1.369 . S
C756 C758 1.419 . S
C756 H760 0.930 . S
C757 C756 1.369 . S
C757 C766 1.429 . S
C758 C756 1.419 . S
C758 C759 1.363 . S
C758 H761 0.929 . S
C759 C758 1.363 . S
C759 C765 1.428 . S
H760 C756 0.930 . S
H761 C758 0.929 . S
S762 N763 1.613 . S
S762 N764 1.610 . S
N763 S762 1.613 . S
N763 C766 1.350 . S
N764 S762 1.610 . S
N764 C765 1.351 . S
C765 C759 1.428 . S
C765 N764 1.351 . S
C765 C766 1.434 . S
C766 C757 1.429 . S
C766 N763 1.350 . S
C766 C765 1.434 . S
C767 C768 1.369 . S
C767 C769 1.419 1_655 S
C767 H771 0.930 . S
C768 C767 1.369 . S
C768 C777 1.429 . S
C769 C767 1.419 1_455 S
C769 C770 1.363 . S
C769 H772 0.929 . S
C770 C769 1.363 . S
C770 C776 1.428 . S
H771 C767 0.930 . S
H772 C769 0.929 . S
S773 N774 1.615 1_455 S
S773 N775 1.608 . S
N774 S773 1.615 1_655 S
N774 C777 1.350 . S
N775 S773 1.608 . S
N775 C776 1.351 . S
C776 C770 1.428 . S
C776 N775 1.351 . S
C776 C777 1.434 1_455 S
C777 C768 1.429 . S
C777 N774 1.350 . S
C777 C776 1.434 1_655 S
C778 C779 1.369 . S
C778 C780 1.419 . S
C778 H782 0.930 . S
C779 C778 1.369 . S
C779 C788 1.429 . S
C780 C778 1.419 . S
C780 C781 1.363 . S
C780 H783 0.929 . S
C781 C780 1.363 . S
C781 C787 1.428 . S
H782 C778 0.930 . S
H783 C780 0.929 . S
S784 N785 1.613 . S
S784 N786 1.610 . S
N785 S784 1.613 . S
N785 C788 1.350 . S
N786 S784 1.610 . S
N786 C787 1.351 . S
C787 C781 1.428 . S
C787 N786 1.351 . S
C787 C788 1.434 . S
C788 C779 1.429 . S
C788 N785 1.350 . S
C788 C787 1.434 . S
C789 C790 1.369 . S
C789 C791 1.419 1_455 S
C789 H793 0.930 . S
C790 C789 1.369 . S
C790 C799 1.429 . S
C791 C789 1.419 1_655 S
C791 C792 1.363 . S
C791 H794 0.929 . S
C792 C791 1.363 . S
C792 C798 1.428 . S
H793 C789 0.930 . S
H794 C791 0.929 . S
S795 N796 1.615 1_655 S
S795 N797 1.608 . S
N796 S795 1.615 1_455 S
N796 C799 1.350 . S
N797 S795 1.608 . S
N797 C798 1.351 . S
C798 C792 1.428 . S
C798 N797 1.351 . S
C798 C799 1.434 1_655 S
C799 C790 1.429 . S
C799 N796 1.350 . S
C799 C798 1.434 1_455 S
C800 C801 1.369 . S
C800 C802 1.419 . S
C800 H804 0.930 . S
C801 C800 1.369 . S
C801 C810 1.429 1_556 S
C802 C800 1.419 . S
C802 C803 1.363 1_556 S
C802 H805 0.929 . S
C803 C802 1.363 1_554 S
C803 C809 1.428 . S
H804 C800 0.930 . S
H805 C802 0.929 . S
S806 N807 1.613 . S
S806 N808 1.610 . S
N807 S806 1.613 . S
N807 C810 1.350 . S
N808 S806 1.610 . S
N808 C809 1.351 . S
C809 C803 1.428 . S
C809 N808 1.351 . S
C809 C810 1.434 . S
C810 C801 1.429 1_554 S
C810 N807 1.350 . S
C810 C809 1.434 . S
C811 C812 1.369 . S
C811 C813 1.419 . S
C811 H815 0.930 . S
C812 C811 1.369 . S
C812 C821 1.429 . S
C813 C811 1.419 . S
C813 C814 1.363 . S
C813 H816 0.929 . S
C814 C813 1.363 . S
C814 C820 1.428 . S
H815 C811 0.930 . S
H816 C813 0.929 . S
S817 N818 1.613 . S
S817 N819 1.610 . S
N818 S817 1.613 . S
N818 C821 1.350 . S
N819 S817 1.610 . S
N819 C820 1.351 . S
C820 C814 1.428 . S
C820 N819 1.351 . S
C820 C821 1.434 . S
C821 C812 1.429 . S
C821 N818 1.350 . S
C821 C820 1.434 . S
C822 C823 1.369 . S
C822 C824 1.419 . S
C822 H826 0.930 . S
C823 C822 1.369 . S
C823 C832 1.429 . S
C824 C822 1.419 . S
C824 C825 1.363 . S
C824 H827 0.929 . S
C825 C824 1.363 . S
C825 C831 1.428 . S
H826 C822 0.930 . S
H827 C824 0.929 . S
S828 N829 1.613 . S
S828 N830 1.610 . S
N829 S828 1.613 . S
N829 C832 1.350 . S
N830 S828 1.610 . S
N830 C831 1.351 . S
C831 C825 1.428 . S
C831 N830 1.351 . S
C831 C832 1.434 . S
C832 C823 1.429 . S
C832 N829 1.350 . S
C832 C831 1.434 . S
C833 C834 1.369 . S
C833 C835 1.419 . S
C833 H837 0.930 . S
C834 C833 1.369 . S
C834 C843 1.429 . S
C835 C833 1.419 . S
C835 C836 1.363 . S
C835 H838 0.929 . S
C836 C835 1.363 . S
C836 C842 1.428 . S
H837 C833 0.930 . S
H838 C835 0.929 . S
S839 N840 1.613 . S
S839 N841 1.610 . S
N840 S839 1.613 . S
N840 C843 1.350 . S
N841 S839 1.610 . S
N841 C842 1.351 . S
C842 C836 1.428 . S
C842 N841 1.351 . S
C842 C843 1.434 . S
C843 C834 1.429 . S
C843 N840 1.350 . S
C843 C842 1.434 . S
C844 C845 1.369 1_556 S
C844 C846 1.419 . S
C844 H848 0.930 . S
C845 C844 1.369 1_554 S
C845 C854 1.429 . S
C846 C844 1.419 . S
C846 C847 1.363 . S
C846 H849 0.929 . S
C847 C846 1.363 . S
C847 C853 1.428 1_556 S
H848 C844 0.930 . S
H849 C846 0.929 . S
S850 N851 1.613 . S
S850 N852 1.610 . S
N851 S850 1.613 . S
N851 C854 1.350 . S
N852 S850 1.610 . S
N852 C853 1.351 . S
C853 C847 1.428 1_554 S
C853 N852 1.351 . S
C853 C854 1.434 . S
C854 C845 1.429 . S
C854 N851 1.350 . S
C854 C853 1.434 . S
C855 C856 1.369 . S
C855 C857 1.419 . S
C855 H859 0.930 . S
C856 C855 1.369 . S
C856 C865 1.429 . S
C857 C855 1.419 . S
C857 C858 1.363 . S
C857 H860 0.929 . S
C858 C857 1.363 . S
C858 C864 1.428 . S
H859 C855 0.930 . S
H860 C857 0.929 . S
S861 N862 1.613 . S
S861 N863 1.610 . S
N862 S861 1.613 . S
N862 C865 1.350 . S
N863 S861 1.610 . S
N863 C864 1.351 . S
C864 C858 1.428 . S
C864 N863 1.351 . S
C864 C865 1.434 . S
C865 C856 1.429 . S
C865 N862 1.350 . S
C865 C864 1.434 . S
C866 C867 1.369 . S
C866 C868 1.419 . S
C866 H870 0.930 . S
C867 C866 1.369 . S
C867 C876 1.429 . S
C868 C866 1.419 . S
C868 C869 1.363 . S
C868 H871 0.929 . S
C869 C868 1.363 . S
C869 C875 1.428 . S
H870 C866 0.930 . S
H871 C868 0.929 . S
S872 N873 1.613 . S
S872 N874 1.610 . S
N873 S872 1.613 . S
N873 C876 1.350 . S
N874 S872 1.610 . S
N874 C875 1.351 . S
C875 C869 1.428 . S
C875 N874 1.351 . S
C875 C876 1.434 . S
C876 C867 1.429 . S
C876 N873 1.350 . S
C876 C875 1.434 . S
C877 C878 1.369 . S
C877 C879 1.419 . S
C877 H881 0.930 . S
C878 C877 1.369 . S
C878 C887 1.429 . S
C879 C877 1.419 . S
C879 C880 1.363 . S
C879 H882 0.929 . S
C880 C879 1.363 . S
C880 C886 1.428 . S
H881 C877 0.930 . S
H882 C879 0.929 . S
S883 N884 1.613 1_545 S
S883 N885 1.610 1_545 S
N884 S883 1.613 1_565 S
N884 C887 1.350 . S
N885 S883 1.610 1_565 S
N885 C886 1.351 . S
C886 C880 1.428 . S
C886 N885 1.351 . S
C886 C887 1.434 . S
C887 C878 1.429 . S
C887 N884 1.350 . S
C887 C886 1.434 . S
C888 C889 1.369 . S
C888 C890 1.419 1_545 S
C888 H892 0.930 . S
C889 C888 1.369 . S
C889 C898 1.429 . S
C890 C888 1.419 1_565 S
C890 C891 1.363 . S
C890 H893 0.929 . S
C891 C890 1.363 . S
C891 C897 1.428 . S
H892 C888 0.930 . S
H893 C890 0.929 . S
S894 N895 1.613 . S
S894 N896 1.610 1_545 S
N895 S894 1.613 . S
N895 C898 1.350 . S
N896 S894 1.610 1_565 S
N896 C897 1.351 . S
C897 C891 1.428 . S
C897 N896 1.351 . S
C897 C898 1.434 1_565 S
C898 C889 1.429 . S
C898 N895 1.350 . S
C898 C897 1.434 1_545 S
C899 C900 1.369 . S
C899 C901 1.419 . S
C899 H903 0.930 . S
C900 C899 1.369 . S
C900 C909 1.429 . S
C901 C899 1.419 . S
C901 C902 1.363 . S
C901 H904 0.929 . S
C902 C901 1.363 . S
C902 C908 1.428 . S
H903 C899 0.930 . S
H904 C901 0.929 . S
S905 N906 1.613 . S
S905 N907 1.610 . S
N906 S905 1.613 . S
N906 C909 1.350 . S
N907 S905 1.610 . S
N907 C908 1.351 . S
C908 C902 1.428 . S
C908 N907 1.351 . S
C908 C909 1.434 . S
C909 C900 1.429 . S
C909 N906 1.350 . S
C909 C908 1.434 . S
C910 C911 1.369 1_556 S
C910 C912 1.419 1_565 S
C910 H914 0.930 . S
C911 C910 1.369 1_554 S
C911 C920 1.429 . S
C912 C910 1.419 1_545 S
C912 C913 1.363 . S
C912 H915 0.929 . S
C913 C912 1.363 . S
C913 C919 1.428 1_556 S
H914 C910 0.930 . S
H915 C912 0.929 . S
S916 N917 1.613 1_545 S
S916 N918 1.610 . S
N917 S916 1.613 1_565 S
N917 C920 1.350 . S
N918 S916 1.610 . S
N918 C919 1.351 . S
C919 C913 1.428 1_554 S
C919 N918 1.351 . S
C919 C920 1.434 1_545 S
C920 C911 1.429 . S
C920 N917 1.350 . S
C920 C919 1.434 1_565 S
C921 C922 1.369 . S
C921 C923 1.419 . S
C921 H925 0.930 . S
C922 C921 1.369 . S
C922 C931 1.429 . S
C923 C921 1.419 . S
C923 C924 1.363 . S
C923 H926 0.929 . S
C924 C923 1.363 . S
C924 C930 1.428 . S
H925 C921 0.930 . S
H926 C923 0.929 . S
S927 N928 1.613 . S
S927 N929 1.610 . S
N928 S927 1.613 . S
N928 C931 1.350 . S
N929 S927 1.610 . S
N929 C930 1.351 . S
C930 C924 1.428 . S
C930 N929 1.351 . S
C930 C931 1.434 . S
C931 C922 1.429 . S
C931 N928 1.350 . S
C931 C930 1.434 . S
C932 C933 1.369 . S
C932 C934 1.419 1_545 S
C932 H936 0.930 . S
C933 C932 1.369 . S
C933 C942 1.429 . S
C934 C932 1.419 1_565 S
C934 C935 1.363 . S
C934 H937 0.929 . S
C935 C934 1.363 . S
C935 C941 1.428 . S
H936 C932 0.930 . S
H937 C934 0.929 . S
S938 N939 1.613 . S
S938 N940 1.610 1_545 S
N939 S938 1.613 . S
N939 C942 1.350 . S
N940 S938 1.610 1_565 S
N940 C941 1.351 . S
C941 C935 1.428 . S
C941 N940 1.351 . S
C941 C942 1.434 1_565 S
C942 C933 1.429 . S
C942 N939 1.350 . S
C942 C941 1.434 1_545 S
C943 C944 1.369 . S
C943 C945 1.419 . S
C943 H947 0.930 . S
C944 C943 1.369 . S
C944 C953 1.429 . S
C945 C943 1.419 . S
C945 C946 1.363 . S
C945 H948 0.929 . S
C946 C945 1.363 . S
C946 C952 1.428 . S
H947 C943 0.930 . S
H948 C945 0.929 . S
S949 N950 1.613 . S
S949 N951 1.610 . S
N950 S949 1.613 . S
N950 C953 1.350 . S
N951 S949 1.610 . S
N951 C952 1.351 . S
C952 C946 1.428 . S
C952 N951 1.351 . S
C952 C953 1.434 . S
C953 C944 1.429 . S
C953 N950 1.350 . S
C953 C952 1.434 . S
C954 C955 1.354 1_545 S
C954 C956 1.433 . S
C954 H958 0.932 . S
C955 C954 1.354 1_565 S
C955 C964 1.429 1_554 S
C956 C954 1.433 . S
C956 C957 1.363 1_554 S
C956 H959 0.929 . S
C957 C956 1.363 1_556 S
C957 C963 1.428 1_545 S
H958 C954 0.932 . S
H959 C956 0.929 . S
S960 N961 1.613 . S
S960 N962 1.610 . S
N961 S960 1.613 . S
N961 C964 1.350 . S
N962 S960 1.610 . S
N962 C963 1.351 . S
C963 C957 1.428 1_565 S
C963 N962 1.351 . S
C963 C964 1.434 . S
C964 C955 1.429 1_556 S
C964 N961 1.350 . S
C964 C963 1.434 . S
C965 C966 1.369 . S
C965 C967 1.419 . S
C965 H969 0.930 . S
C966 C965 1.369 . S
C966 C975 1.429 . S
C967 C965 1.419 . S
C967 C968 1.363 . S
C967 H970 0.929 . S
C968 C967 1.363 . S
C968 C974 1.428 . S
H969 C965 0.930 . S
H970 C967 0.929 . S
S971 N972 1.613 . S
S971 N973 1.610 . S
N972 S971 1.613 . S
N972 C975 1.350 . S
N973 S971 1.610 . S
N973 C974 1.351 . S
C974 C968 1.428 . S
C974 N973 1.351 . S
C974 C975 1.434 . S
C975 C966 1.429 . S
C975 N972 1.350 . S
C975 C974 1.434 . S
C976 C977 1.369 . S
C976 C978 1.419 . S
C976 H980 0.930 . S
C977 C976 1.369 . S
C977 C986 1.429 . S
C978 C976 1.419 . S
C978 C979 1.363 . S
C978 H981 0.929 . S
C979 C978 1.363 . S
C979 C985 1.428 . S
H980 C976 0.930 . S
H981 C978 0.929 . S
S982 N983 1.613 . S
S982 N984 1.610 . S
N983 S982 1.613 . S
N983 C986 1.350 . S
N984 S982 1.610 . S
N984 C985 1.351 . S
C985 C979 1.428 . S
C985 N984 1.351 . S
C985 C986 1.434 . S
C986 C977 1.429 . S
C986 N983 1.350 . S
C986 C985 1.434 . S
C987 C988 1.369 . S
C987 C989 1.419 . S
C987 H991 0.930 . S
C988 C987 1.369 . S
C988 C997 1.429 . S
C989 C987 1.419 . S
C989 C990 1.363 . S
C989 H992 0.929 . S
C990 C989 1.363 . S
C990 C996 1.428 . S
H991 C987 0.930 . S
H992 C989 0.929 . S
S993 N994 1.613 . S
S993 N995 1.610 . S
N994 S993 1.613 . S
N994 C997 1.350 . S
N995 S993 1.610 . S
N995 C996 1.351 . S
C996 C990 1.428 . S
C996 N995 1.351 . S
C996 C997 1.434 . S
C997 C988 1.429 . S
C997 N994 1.350 . S
C997 C996 1.434 . S
C998 C999 1.369 . S
C998 C1000 1.419 . S
C998 H1002 0.930 . S
C999 C998 1.369 . S
C999 C1008 1.429 . S
C1000 C998 1.419 . S
C1000 C1001 1.363 . S
C1000 H1003 0.929 . S
C1001 C1000 1.363 . S
C1001 C1007 1.428 . S
H1002 C998 0.930 . S
H1003 C1000 0.929 . S
S1004 N1005 1.613 . S
S1004 N1006 1.610 . S
N1005 S1004 1.613 . S
N1005 C1008 1.350 . S
N1006 S1004 1.610 . S
N1006 C1007 1.351 . S
C1007 C1001 1.428 . S
C1007 N1006 1.351 . S
C1007 C1008 1.434 . S
C1008 C999 1.429 . S
C1008 N1005 1.350 . S
C1008 C1007 1.434 . S
C1009 C1010 1.369 . S
C1009 C1011 1.419 1_655 S
C1009 H1013 0.930 . S
C1010 C1009 1.369 . S
C1010 C1019 1.429 . S
C1011 C1009 1.419 1_455 S
C1011 C1012 1.363 . S
C1011 H1014 0.929 . S
C1012 C1011 1.363 . S
C1012 C1018 1.428 . S
H1013 C1009 0.930 . S
H1014 C1011 0.929 . S
S1015 N1016 1.616 1_455 S
S1015 N1017 1.608 . S
N1016 S1015 1.616 1_655 S
N1016 C1019 1.350 . S
N1017 S1015 1.608 . S
N1017 C1018 1.351 . S
C1018 C1012 1.428 . S
C1018 N1017 1.351 . S
C1018 C1019 1.434 1_455 S
C1019 C1010 1.429 . S
C1019 N1016 1.350 . S
C1019 C1018 1.434 1_655 S
C1020 C1021 1.369 . S
C1020 C1022 1.419 . S
C1020 H1024 0.930 . S
C1021 C1020 1.369 . S
C1021 C1030 1.429 . S
C1022 C1020 1.419 . S
C1022 C1023 1.363 . S
C1022 H1025 0.929 . S
C1023 C1022 1.363 . S
C1023 C1029 1.428 . S
H1024 C1020 0.930 . S
H1025 C1022 0.929 . S
S1026 N1027 1.613 . S
S1026 N1028 1.610 . S
N1027 S1026 1.613 . S
N1027 C1030 1.350 . S
N1028 S1026 1.610 . S
N1028 C1029 1.351 . S
C1029 C1023 1.428 . S
C1029 N1028 1.351 . S
C1029 C1030 1.434 . S
C1030 C1021 1.429 . S
C1030 N1027 1.350 . S
C1030 C1029 1.434 . S
C1031 C1032 1.369 . S
C1031 C1033 1.419 1_655 S
C1031 H1035 0.930 . S
C1032 C1031 1.369 . S
C1032 C1041 1.429 . S
C1033 C1031 1.419 1_455 S
C1033 C1034 1.363 . S
C1033 H1036 0.929 . S
C1034 C1033 1.363 . S
C1034 C1040 1.428 . S
H1035 C1031 0.930 . S
H1036 C1033 0.929 . S
S1037 N1038 1.616 1_455 S
S1037 N1039 1.608 . S
N1038 S1037 1.616 1_655 S
N1038 C1041 1.350 . S
N1039 S1037 1.608 . S
N1039 C1040 1.351 . S
C1040 C1034 1.428 . S
C1040 N1039 1.351 . S
C1040 C1041 1.434 1_455 S
C1041 C1032 1.429 . S
C1041 N1038 1.350 . S
C1041 C1040 1.434 1_655 S
C1042 C1043 1.369 . S
C1042 C1044 1.419 . S
C1042 H1046 0.930 . S
C1043 C1042 1.369 . S
C1043 C1052 1.429 . S
C1044 C1042 1.419 . S
C1044 C1045 1.363 . S
C1044 H1047 0.929 . S
C1045 C1044 1.363 . S
C1045 C1051 1.428 . S
H1046 C1042 0.930 . S
H1047 C1044 0.929 . S
S1048 N1049 1.613 . S
S1048 N1050 1.610 . S
N1049 S1048 1.613 . S
N1049 C1052 1.350 . S
N1050 S1048 1.610 . S
N1050 C1051 1.351 . S
C1051 C1045 1.428 . S
C1051 N1050 1.351 . S
C1051 C1052 1.434 . S
C1052 C1043 1.429 . S
C1052 N1049 1.350 . S
C1052 C1051 1.434 . S
C1053 C1054 1.369 . S
C1053 C1055 1.419 . S
C1053 H1057 0.930 . S
C1054 C1053 1.369 . S
C1054 C1063 1.429 . S
C1055 C1053 1.419 . S
C1055 C1056 1.363 . S
C1055 H1058 0.929 . S
C1056 C1055 1.363 . S
C1056 C1062 1.428 . S
H1057 C1053 0.930 . S
H1058 C1055 0.929 . S
S1059 N1060 1.613 . S
S1059 N1061 1.610 . S
N1060 S1059 1.613 . S
N1060 C1063 1.350 . S
N1061 S1059 1.610 . S
N1061 C1062 1.351 . S
C1062 C1056 1.428 . S
C1062 N1061 1.351 . S
C1062 C1063 1.434 . S
C1063 C1054 1.429 . S
C1063 N1060 1.350 . S
C1063 C1062 1.434 . S
C1064 C1065 1.369 . S
C1064 C1066 1.419 . S
C1064 H1068 0.930 . S
C1065 C1064 1.369 . S
C1065 C1074 1.429 . S
C1066 C1064 1.419 . S
C1066 C1067 1.363 . S
C1066 H1069 0.929 . S
C1067 C1066 1.363 . S
C1067 C1073 1.428 . S
H1068 C1064 0.930 . S
H1069 C1066 0.929 . S
S1070 N1071 1.613 . S
S1070 N1072 1.610 . S
N1071 S1070 1.613 . S
N1071 C1074 1.350 . S
N1072 S1070 1.610 . S
N1072 C1073 1.351 . S
C1073 C1067 1.428 . S
C1073 N1072 1.351 . S
C1073 C1074 1.434 . S
C1074 C1065 1.429 . S
C1074 N1071 1.350 . S
C1074 C1073 1.434 . S
C1075 C1076 1.369 . S
C1075 C1077 1.419 . S
C1075 H1079 0.930 . S
C1076 C1075 1.369 . S
C1076 C1085 1.429 . S
C1077 C1075 1.419 . S
C1077 C1078 1.363 . S
C1077 H1080 0.929 . S
C1078 C1077 1.363 . S
C1078 C1084 1.428 . S
H1079 C1075 0.930 . S
H1080 C1077 0.929 . S
S1081 N1082 1.613 . S
S1081 N1083 1.610 . S
N1082 S1081 1.613 . S
N1082 C1085 1.350 . S
N1083 S1081 1.610 . S
N1083 C1084 1.351 . S
C1084 C1078 1.428 . S
C1084 N1083 1.351 . S
C1084 C1085 1.434 . S
C1085 C1076 1.429 . S
C1085 N1082 1.350 . S
C1085 C1084 1.434 . S
C1086 C1087 1.369 . S
C1086 C1088 1.419 . S
C1086 H1090 0.930 . S
C1087 C1086 1.369 . S
C1087 C1096 1.429 . S
C1088 C1086 1.419 . S
C1088 C1089 1.363 . S
C1088 H1091 0.929 . S
C1089 C1088 1.363 . S
C1089 C1095 1.428 . S
H1090 C1086 0.930 . S
H1091 C1088 0.929 . S
S1092 N1093 1.613 . S
S1092 N1094 1.610 . S
N1093 S1092 1.613 . S
N1093 C1096 1.350 . S
N1094 S1092 1.610 . S
N1094 C1095 1.351 . S
C1095 C1089 1.428 . S
C1095 N1094 1.351 . S
C1095 C1096 1.434 . S
C1096 C1087 1.429 . S
C1096 N1093 1.350 . S
C1096 C1095 1.434 . S
C1097 C1098 1.369 . S
C1097 C1099 1.419 . S
C1097 H1101 0.930 . S
C1098 C1097 1.369 . S
C1098 C1107 1.429 . S
C1099 C1097 1.419 . S
C1099 C1100 1.363 . S
C1099 H1102 0.929 . S
C1100 C1099 1.363 . S
C1100 C1106 1.428 . S
H1101 C1097 0.930 . S
H1102 C1099 0.929 . S
S1103 N1104 1.613 . S
S1103 N1105 1.610 . S
N1104 S1103 1.613 . S
N1104 C1107 1.350 . S
N1105 S1103 1.610 . S
N1105 C1106 1.351 . S
C1106 C1100 1.428 . S
C1106 N1105 1.351 . S
C1106 C1107 1.434 . S
C1107 C1098 1.429 . S
C1107 N1104 1.350 . S
C1107 C1106 1.434 . S
C1108 C1109 1.369 . S
C1108 C1110 1.419 1_655 S
C1108 H1112 0.930 . S
C1109 C1108 1.369 . S
C1109 C1118 1.429 . S
C1110 C1108 1.419 1_455 S
C1110 C1111 1.363 . S
C1110 H1113 0.929 . S
C1111 C1110 1.363 . S
C1111 C1117 1.428 . S
H1112 C1108 0.930 . S
H1113 C1110 0.929 . S
S1114 N1115 1.615 1_455 S
S1114 N1116 1.608 . S
N1115 S1114 1.615 1_655 S
N1115 C1118 1.350 . S
N1116 S1114 1.608 . S
N1116 C1117 1.351 . S
C1117 C1111 1.428 . S
C1117 N1116 1.351 . S
C1117 C1118 1.434 1_455 S
C1118 C1109 1.429 . S
C1118 N1115 1.350 . S
C1118 C1117 1.434 1_655 S
C1119 C1120 1.369 . S
C1119 C1121 1.419 . S
C1119 H1123 0.930 . S
C1120 C1119 1.369 . S
C1120 C1129 1.429 . S
C1121 C1119 1.419 . S
C1121 C1122 1.363 . S
C1121 H1124 0.929 . S
C1122 C1121 1.363 . S
C1122 C1128 1.428 . S
H1123 C1119 0.930 . S
H1124 C1121 0.929 . S
S1125 N1126 1.613 . S
S1125 N1127 1.610 . S
N1126 S1125 1.613 . S
N1126 C1129 1.350 . S
N1127 S1125 1.610 . S
N1127 C1128 1.351 . S
C1128 C1122 1.428 . S
C1128 N1127 1.351 . S
C1128 C1129 1.434 . S
C1129 C1120 1.429 . S
C1129 N1126 1.350 . S
C1129 C1128 1.434 . S
C1130 C1131 1.369 . S
C1130 C1132 1.419 . S
C1130 H1134 0.930 . S
C1131 C1130 1.369 . S
C1131 C1140 1.429 . S
C1132 C1130 1.419 . S
C1132 C1133 1.363 . S
C1132 H1135 0.929 . S
C1133 C1132 1.363 . S
C1133 C1139 1.428 . S
H1134 C1130 0.930 . S
H1135 C1132 0.929 . S
S1136 N1137 1.613 . S
S1136 N1138 1.610 . S
N1137 S1136 1.613 . S
N1137 C1140 1.350 . S
N1138 S1136 1.610 . S
N1138 C1139 1.351 . S
C1139 C1133 1.428 . S
C1139 N1138 1.351 . S
C1139 C1140 1.434 . S
C1140 C1131 1.429 . S
C1140 N1137 1.350 . S
C1140 C1139 1.434 . S
C1141 C1142 1.369 . S
C1141 C1143 1.419 1_655 S
C1141 H1145 0.930 . S
C1142 C1141 1.369 . S
C1142 C1151 1.429 . S
C1143 C1141 1.419 1_455 S
C1143 C1144 1.363 . S
C1143 H1146 0.929 . S
C1144 C1143 1.363 . S
C1144 C1150 1.428 . S
H1145 C1141 0.930 . S
H1146 C1143 0.929 . S
S1147 N1148 1.616 1_455 S
S1147 N1149 1.607 . S
N1148 S1147 1.616 1_655 S
N1148 C1151 1.350 . S
N1149 S1147 1.607 . S
N1149 C1150 1.351 . S
C1150 C1144 1.428 . S
C1150 N1149 1.351 . S
C1150 C1151 1.434 1_455 S
C1151 C1142 1.429 . S
C1151 N1148 1.350 . S
C1151 C1150 1.434 1_655 S
C449 C333 1.412 . S
C451 C11 1.411 . S
C460 C291 1.414 . S
C462 C25 1.413 . S
C471 C305 1.404 . S
C473 C39 1.406 . S
C482 C319 1.404 . S
C484 C53 1.406 . S
C493 C67 1.405 . S
C495 C249 1.405 . S
C504 C263 1.403 . S
C506 C81 1.404 . S
C515 C95 1.411 . S
C517 C277 1.410 . S
C526 C109 1.414 . S
C528 C235 1.412 . S
C537 C445 1.414 . S
C539 C123 1.413 . S
C548 C137 1.405 . S
C550 C403 1.406 . S
C559 C151 1.411 . S
C561 C417 1.410 . S
C570 C165 1.404 . S
C572 C431 1.405 . S
C581 C179 1.406 . S
C583 C361 1.406 . S
C592 C193 1.409 . S
C594 C375 1.409 . S
C603 C207 1.405 . S
C605 C389 1.406 . S
C614 C221 1.403 . S
C616 C347 1.404 . S
C625 C4 1.598 . S
C627 C172 1.597 . S
C636 C410 1.596 . S
C638 C18 1.595 . S
C647 C32 1.590 . S
C649 C200 1.591 . S
C658 C438 1.591 . S
C660 C46 1.592 . S
C669 C116 1.593 . S
C671 C60 1.593 . S
C680 C74 1.593 . S
C682 C354 1.594 . S
C691 C88 1.598 . S
C693 C144 1.597 . S
C702 C102 1.597 . S
C704 C382 1.596 . S
C713 C298 1.594 . S
C715 C130 1.594 . S
C724 C326 1.590 . S
C726 C158 1.591 . S
C735 C186 1.592 . S
C737 C242 1.592 . S
C746 C270 1.590 . S
C748 C214 1.591 . S
C757 C396 1.590 . S
C759 C228 1.591 . S
C768 C256 1.590 . S
C770 C424 1.591 . S
C779 C340 1.595 . S
C781 C284 1.594 . S
C790 C368 1.590 . S
C792 C312 1.591 . S
C801 C61 1.201 . S
C803 C5 1.198 . S
C812 C75 1.190 . S
C814 C19 1.192 . S
C823 C33 1.194 . S
C825 C89 1.193 . S
C834 C47 1.200 . S
C836 C103 1.199 . S
C845 C173 1.191 . S
C847 C117 1.191 . S
C856 C187 1.200 . S
C858 C131 1.199 . S
C867 C201 1.197 . S
C869 C145 1.196 . S
C878 C159 1.186 . S
C880 C215 1.188 . S
C889 C229 1.189 . S
C891 C285 1.189 . S
C900 C243 1.188 . S
C902 C299 1.189 . S
C911 C257 1.185 . S
C913 C313 1.188 . S
C922 C271 1.201 . S
C924 C327 1.199 . S
C933 C397 1.199 . S
C935 C341 1.197 . S
C944 C411 1.195 . S
C946 C355 1.194 . S
C955 C425 1.187 . S
C957 C369 1.188 . S
C966 C439 1.201 . S
C968 C383 1.199 . S
C977 C432 1.276 . S
C979 C12 1.276 . S
C988 C26 1.281 . S
C990 C222 1.281 . S
C999 C404 1.280 . S
C1001 C40 1.280 . S
C1010 C54 1.282 . S
C1012 C194 1.281 . S
C1021 C376 1.277 . S
C1023 C68 1.278 . S
C1032 C82 1.277 . S
C1034 C166 1.277 . S
C1043 C96 1.281 . S
C1045 C348 1.280 . S
C1054 C138 1.275 . S
C1056 C110 1.276 . S
C1065 C124 1.278 . S
C1067 C320 1.278 . S
C1076 C292 1.276 . S
C1078 C152 1.277 . S
C1087 C180 1.281 . S
C1089 C264 1.281 . S
C1098 C208 1.280 . S
C1100 C236 1.280 . S
C1109 C446 1.277 . S
C1111 C250 1.277 . S
C1120 C278 1.275 . S
C1122 C418 1.276 . S
C1131 C306 1.277 . S
C1133 C390 1.277 . S
C1142 C362 1.281 . S
C1144 C334 1.281 . S
