# Generated by pormake.
# Topology upb, (4)-cn, num edge types: 1
# Building blocks:
#     Node 0, Type 0, BuildingBlock: KUFVIS_clean_sbu_0, # of connection points: 4
#     Node 1, Type 0, BuildingBlock: KUFVIS_clean_sbu_0, # of connection points: 4
#     Node 2, Type 0, BuildingBlock: KUFVIS_clean_sbu_0, # of connection points: 4
#     Node 3, Type 0, BuildingBlock: KUFVIS_clean_sbu_0, # of connection points: 4
#     Node 4, Type 0, BuildingBlock: KUFVIS_clean_sbu_0, # of connection points: 4
#     Node 5, Type 0, BuildingBlock: KUFVIS_clean_sbu_0, # of connection points: 4
#     Node 6, Type 0, BuildingBlock: KUFVIS_clean_sbu_0, # of connection points: 4
#     Node 7, Type 0, BuildingBlock: KUFVIS_clean_sbu_0, # of connection points: 4
#     Node 8, Type 0, BuildingBlock: KUFVIS_clean_sbu_0, # of connection points: 4
#     Node 9, Type 0, BuildingBlock: KUFVIS_clean_sbu_0, # of connection points: 4
#     Node 10, Type 0, BuildingBlock: KUFVIS_clean_sbu_0, # of connection points: 4
#     Node 11, Type 0, BuildingBlock: KUFVIS_clean_sbu_0, # of connection points: 4
#     Node 12, Type 0, BuildingBlock: KUFVIS_clean_sbu_0, # of connection points: 4
#     Node 13, Type 0, BuildingBlock: KUFVIS_clean_sbu_0, # of connection points: 4
#     Node 14, Type 0, BuildingBlock: KUFVIS_clean_sbu_0, # of connection points: 4
#     Node 15, Type 0, BuildingBlock: KUFVIS_clean_sbu_0, # of connection points: 4
#     Edge 16, Type (0, 0), BuildingBlock: XIVTED_clean_linker_0, # of connection points: 2
#     Edge 17, Type (0, 0), BuildingBlock: XIVTED_clean_linker_0, # of connection points: 2
#     Edge 18, Type (0, 0), BuildingBlock: XIVTED_clean_linker_0, # of connection points: 2
#     Edge 19, Type (0, 0), BuildingBlock: XIVTED_clean_linker_0, # of connection points: 2
#     Edge 20, Type (0, 0), BuildingBlock: XIVTED_clean_linker_0, # of connection points: 2
#     Edge 21, Type (0, 0), BuildingBlock: XIVTED_clean_linker_0, # of connection points: 2
#     Edge 22, Type (0, 0), BuildingBlock: XIVTED_clean_linker_0, # of connection points: 2
#     Edge 23, Type (0, 0), BuildingBlock: XIVTED_clean_linker_0, # of connection points: 2
#     Edge 24, Type (0, 0), BuildingBlock: XIVTED_clean_linker_0, # of connection points: 2
#     Edge 25, Type (0, 0), BuildingBlock: XIVTED_clean_linker_0, # of connection points: 2
#     Edge 26, Type (0, 0), BuildingBlock: XIVTED_clean_linker_0, # of connection points: 2
#     Edge 27, Type (0, 0), BuildingBlock: XIVTED_clean_linker_0, # of connection points: 2
#     Edge 28, Type (0, 0), BuildingBlock: XIVTED_clean_linker_0, # of connection points: 2
#     Edge 29, Type (0, 0), BuildingBlock: XIVTED_clean_linker_0, # of connection points: 2
#     Edge 30, Type (0, 0), BuildingBlock: XIVTED_clean_linker_0, # of connection points: 2
#     Edge 31, Type (0, 0), BuildingBlock: XIVTED_clean_linker_0, # of connection points: 2
#     Edge 32, Type (0, 0), BuildingBlock: XIVTED_clean_linker_0, # of connection points: 2
#     Edge 33, Type (0, 0), BuildingBlock: XIVTED_clean_linker_0, # of connection points: 2
#     Edge 34, Type (0, 0), BuildingBlock: XIVTED_clean_linker_0, # of connection points: 2
#     Edge 35, Type (0, 0), BuildingBlock: XIVTED_clean_linker_0, # of connection points: 2
#     Edge 36, Type (0, 0), BuildingBlock: XIVTED_clean_linker_0, # of connection points: 2
#     Edge 37, Type (0, 0), BuildingBlock: XIVTED_clean_linker_0, # of connection points: 2
#     Edge 38, Type (0, 0), BuildingBlock: XIVTED_clean_linker_0, # of connection points: 2
#     Edge 39, Type (0, 0), BuildingBlock: XIVTED_clean_linker_0, # of connection points: 2
#     Edge 40, Type (0, 0), BuildingBlock: XIVTED_clean_linker_0, # of connection points: 2
#     Edge 41, Type (0, 0), BuildingBlock: XIVTED_clean_linker_0, # of connection points: 2
#     Edge 42, Type (0, 0), BuildingBlock: XIVTED_clean_linker_0, # of connection points: 2
#     Edge 43, Type (0, 0), BuildingBlock: XIVTED_clean_linker_0, # of connection points: 2
#     Edge 44, Type (0, 0), BuildingBlock: XIVTED_clean_linker_0, # of connection points: 2
#     Edge 45, Type (0, 0), BuildingBlock: XIVTED_clean_linker_0, # of connection points: 2
#     Edge 46, Type (0, 0), BuildingBlock: XIVTED_clean_linker_0, # of connection points: 2
#     Edge 47, Type (0, 0), BuildingBlock: XIVTED_clean_linker_0, # of connection points: 2
# Relax obj value: 0.213
# Max RMSD: 0.081
# Mean RMSD: 0.081
data_MOF--net-upb--node1-KUFVIS_clean_sbu_0--edge1-XIVTED_clean_linker_0
_symmetry_space_group_name_H-M    P1
_symmetry_Int_Tables_number       1
_symmetry_cell_setting            triclinic
loop_
_symmetry_equiv_pos_as_xyz
'x, y, z'
_cell_length_a     44.427014
_cell_length_b     44.426754
_cell_length_c     32.636591
_cell_angle_alpha  90.022128
_cell_angle_beta   90.008924
_cell_angle_gamma 90.004553
loop_
_atom_site_label
_atom_site_type_symbol
_atom_site_fract_x
_atom_site_fract_y
_atom_site_fract_z
_atom_type_partial_charge
Mn0 Mn 0.03898 0.2158 0.28803 0.0
Mn1 Mn 0.09514 0.20832 0.35726 0.0
C2 C 0.02967 0.22377 0.35658 0.0
C3 C 0.00044 0.1945 0.2499 0.0
C4 C 0.08767 0.2631 0.30301 0.0
O5 O 0.07054 0.19266 0.25617 0.0
O6 O 0.10592 0.18755 0.30521 0.0
C7 C 0.09114 0.14243 0.37021 0.0
N8 N 0.09061 0.17092 0.38564 0.0
C9 C 0.08444 0.15231 0.45439 0.0
C10 C 0.08513 0.12277 0.43926 0.0
C11 C 0.08842 0.11783 0.39697 0.0
C12 C 0.08737 0.17593 0.42626 0.0
H13 H 0.09367 0.1385 0.33774 0.0
C14 C 0.09581 0.18287 0.26896 0.0
O15 O 0.01272 0.21971 0.23866 0.0
O16 O 0.01082 0.18162 0.28259 0.0
N17 N 0.08785 0.22683 0.40934 0.0
C18 C 0.08693 0.25667 0.41893 0.0
C19 C 0.08328 0.26545 0.45998 0.0
C20 C 0.08087 0.2435 0.49076 0.0
C21 C 0.08229 0.21294 0.48024 0.0
C22 C 0.08618 0.20553 0.43885 0.0
H23 H 0.08863 0.27364 0.39542 0.0
O24 O 0.01187 0.23498 0.32905 0.0
O25 O 0.05221 0.20784 0.34332 0.0
O26 O 0.06416 0.25425 0.28405 0.0
O27 O 0.10106 0.2476 0.33047 0.0
C28 C 0.07956 0.18953 0.50913 0.0
C29 C 0.08062 0.15924 0.49621 0.0
H30 H 0.08299 0.10374 0.45979 0.0
H31 H 0.08887 0.0951 0.38504 0.0
H32 H 0.08217 0.28909 0.46784 0.0
H33 H 0.07774 0.25036 0.52233 0.0
H34 H 0.07637 0.19457 0.54131 0.0
H35 H 0.07824 0.14145 0.51866 0.0
Mn36 Mn 0.78095 0.04105 0.28514 0.0
Mn37 Mn 0.78602 0.09569 0.357 0.0
C38 C 0.77238 0.02993 0.35307 0.0
C39 C 0.8036 0.00385 0.24596 0.0
C40 C 0.73235 0.08832 0.30065 0.0
O41 O 0.80379 0.07393 0.25537 0.0
O42 O 0.80741 0.10817 0.30617 0.0
C43 C 0.85173 0.09307 0.37208 0.0
N44 N 0.82299 0.09139 0.38645 0.0
C45 C 0.84051 0.08407 0.45553 0.0
C46 C 0.87029 0.08594 0.4415 0.0
C47 C 0.8759 0.09038 0.39958 0.0
C48 C 0.81734 0.08705 0.42672 0.0
H49 H 0.85617 0.09651 0.33989 0.0
C50 C 0.81284 0.09907 0.26961 0.0
O51 O 0.77831 0.0159 0.23458 0.0
O52 O 0.81584 0.01378 0.27939 0.0
N53 N 0.76677 0.08665 0.40804 0.0
C54 C 0.7368 0.08469 0.41652 0.0
C55 C 0.72737 0.07978 0.45704 0.0
C56 C 0.74882 0.07719 0.48847 0.0
C57 C 0.77952 0.07968 0.47912 0.0
C58 C 0.78756 0.08478 0.4382 0.0
H59 H 0.72022 0.08655 0.3925 0.0
O60 O 0.76189 0.01254 0.32453 0.0
O61 O 0.78784 0.05318 0.34114 0.0
O62 O 0.74199 0.0654 0.28109 0.0
O63 O 0.7471 0.10141 0.32914 0.0
C64 C 0.80246 0.07687 0.50869 0.0
C65 C 0.83294 0.07907 0.49691 0.0
H66 H 0.889 0.08386 0.46261 0.0
H67 H 0.89882 0.09176 0.38849 0.0
H68 H 0.70364 0.07785 0.46401 0.0
H69 H 0.74147 0.07311 0.51963 0.0
H70 H 0.79692 0.07276 0.54052 0.0
H71 H 0.85039 0.07668 0.51988 0.0
Mn72 Mn 0.95891 0.78436 0.27764 0.0
Mn73 Mn 0.90334 0.79095 0.34792 0.0
C74 C 0.96868 0.77516 0.34582 0.0
C75 C 0.99741 0.80579 0.23959 0.0
C76 C 0.91002 0.73711 0.29176 0.0
O77 O 0.92732 0.80839 0.24705 0.0
O78 O 0.89227 0.81259 0.29669 0.0
C79 C 0.90767 0.8566 0.36283 0.0
N80 N 0.90823 0.82786 0.37737 0.0
C81 C 0.91481 0.84536 0.44661 0.0
C82 C 0.91408 0.87513 0.43241 0.0
C83 C 0.91058 0.88076 0.39032 0.0
C84 C 0.91169 0.8222 0.41779 0.0
H85 H 0.90496 0.86106 0.33052 0.0
C86 C 0.90216 0.81797 0.26052 0.0
O87 O 0.98468 0.78094 0.22778 0.0
O88 O 0.98745 0.8183 0.27282 0.0
N89 N 0.91096 0.77159 0.39931 0.0
C90 C 0.91187 0.7416 0.40798 0.0
C91 C 0.91575 0.73215 0.4487 0.0
C92 C 0.9184 0.75359 0.48012 0.0
C93 C 0.91699 0.78432 0.47057 0.0
C94 C 0.91288 0.7924 0.42946 0.0
H95 H 0.90998 0.72501 0.38396 0.0
O96 O 0.98615 0.76423 0.31769 0.0
O97 O 0.94617 0.79149 0.33338 0.0
O98 O 0.93337 0.74622 0.2727 0.0
O99 O 0.89699 0.75213 0.32004 0.0
C100 C 0.9199 0.80726 0.50014 0.0
C101 C 0.91881 0.83775 0.48818 0.0
H102 H 0.91633 0.89383 0.45352 0.0
H103 H 0.9101 0.90367 0.3791 0.0
H104 H 0.91685 0.70838 0.45582 0.0
H105 H 0.92168 0.74621 0.51144 0.0
H106 H 0.92325 0.80169 0.53213 0.0
H107 H 0.92127 0.85518 0.51116 0.0
Mn108 Mn 0.21516 0.95886 0.27977 0.0
Mn109 Mn 0.20909 0.90212 0.34826 0.0
C110 C 0.222 0.96802 0.34866 0.0
C111 C 0.19307 0.99716 0.242 0.0
C112 C 0.26379 0.91153 0.29437 0.0
O113 O 0.19314 0.92679 0.24734 0.0
O114 O 0.18874 0.89101 0.29602 0.0
C115 C 0.1431 0.90339 0.36123 0.0
N116 N 0.17154 0.90502 0.37666 0.0
C117 C 0.1527 0.90967 0.44553 0.0
C118 C 0.12322 0.90783 0.4304 0.0
C119 C 0.11841 0.90475 0.38805 0.0
C120 C 0.17642 0.90801 0.41735 0.0
H121 H 0.13927 0.90098 0.32872 0.0
C122 C 0.1839 0.90122 0.25985 0.0
O123 O 0.21866 0.98561 0.23087 0.0
O124 O 0.18021 0.98608 0.27427 0.0
N125 N 0.22727 0.90999 0.40039 0.0
C126 C 0.25701 0.91282 0.40987 0.0
C127 C 0.26562 0.917 0.45089 0.0
C128 C 0.24361 0.91798 0.48176 0.0
C129 C 0.21317 0.91471 0.47133 0.0
C130 C 0.20595 0.91049 0.42995 0.0
H131 H 0.27401 0.91225 0.38628 0.0
O132 O 0.23314 0.98625 0.32159 0.0
O133 O 0.20709 0.94503 0.33472 0.0
O134 O 0.25439 0.93494 0.27574 0.0
O135 O 0.24858 0.89757 0.32157 0.0
C136 C 0.18967 0.91605 0.50029 0.0
C137 C 0.15946 0.9135 0.4874 0.0
H138 H 0.10412 0.90894 0.45097 0.0
H139 H 0.09572 0.90341 0.37612 0.0
H140 H 0.28915 0.91958 0.45868 0.0
H141 H 0.25032 0.92147 0.51332 0.0
H142 H 0.19457 0.91938 0.53248 0.0
H143 H 0.14159 0.91484 0.5099 0.0
Mn144 Mn 0.04051 0.78117 0.70761 0.0
Mn145 Mn 0.09652 0.78736 0.63795 0.0
C146 C 0.03084 0.77308 0.63913 0.0
C147 C 0.0025 0.803 0.74609 0.0
C148 C 0.08873 0.73337 0.69359 0.0
O149 O 0.07256 0.80415 0.73885 0.0
O150 O 0.10761 0.80893 0.68927 0.0
C151 C 0.09325 0.85303 0.6228 0.0
N152 N 0.09227 0.82428 0.60836 0.0
C153 C 0.08622 0.8417 0.53901 0.0
C154 C 0.08736 0.87149 0.55311 0.0
C155 C 0.09081 0.87717 0.59521 0.0
C156 C 0.08887 0.81856 0.56793 0.0
H157 H 0.09594 0.85752 0.65512 0.0
C158 C 0.09772 0.8139 0.72556 0.0
O159 O 0.01464 0.77773 0.7573 0.0
O160 O 0.01271 0.81567 0.71312 0.0
N161 N 0.08872 0.768 0.58659 0.0
C162 C 0.0872 0.73801 0.57807 0.0
C163 C 0.08313 0.72852 0.53738 0.0
C164 C 0.08097 0.74992 0.50585 0.0
C165 C 0.08303 0.78064 0.51528 0.0
C166 C 0.0872 0.78876 0.55637 0.0
H167 H 0.08877 0.72145 0.60216 0.0
O168 O 0.01298 0.76217 0.66682 0.0
O169 O 0.05368 0.78863 0.65223 0.0
O170 O 0.06513 0.74249 0.71199 0.0
O171 O 0.10233 0.7485 0.66596 0.0
C172 C 0.08064 0.80355 0.48559 0.0
C173 C 0.08223 0.83405 0.49745 0.0
H174 H 0.08545 0.89017 0.53194 0.0
H175 H 0.09162 0.9001 0.60635 0.0
H176 H 0.08156 0.70476 0.53036 0.0
H177 H 0.07757 0.74252 0.47456 0.0
H178 H 0.07727 0.79795 0.45361 0.0
H179 H 0.08014 0.85146 0.47439 0.0
Mn180 Mn 0.21502 0.04017 0.71048 0.0
Mn181 Mn 0.20874 0.09757 0.64306 0.0
C182 C 0.22208 0.03177 0.64147 0.0
C183 C 0.19329 0.00138 0.74764 0.0
C184 C 0.2633 0.08805 0.6972 0.0
O185 O 0.19268 0.07178 0.74337 0.0
O186 O 0.18804 0.10799 0.69531 0.0
C187 C 0.14283 0.0957 0.62943 0.0
N188 N 0.17137 0.09457 0.61424 0.0
C189 C 0.15291 0.09007 0.54515 0.0
C190 C 0.12334 0.09135 0.56004 0.0
C191 C 0.11829 0.09412 0.60237 0.0
C192 C 0.17648 0.0919 0.57356 0.0
H193 H 0.13882 0.09781 0.66193 0.0
C194 C 0.18322 0.09738 0.73127 0.0
O195 O 0.21875 0.0131 0.75896 0.0
O196 O 0.18032 0.01256 0.71549 0.0
N197 N 0.22726 0.09035 0.59099 0.0
C198 C 0.25707 0.08792 0.58176 0.0
C199 C 0.26593 0.08412 0.54077 0.0
C200 C 0.24408 0.08309 0.50968 0.0
C201 C 0.21356 0.08594 0.51986 0.0
C202 C 0.20609 0.08982 0.56122 0.0
H203 H 0.27395 0.08855 0.60552 0.0
O204 O 0.23328 0.01334 0.66824 0.0
O205 O 0.20698 0.05451 0.65579 0.0
O206 O 0.25402 0.0643 0.71511 0.0
O207 O 0.24808 0.10226 0.67024 0.0
C208 C 0.19022 0.0845 0.49067 0.0
C209 C 0.15992 0.08657 0.5033 0.0
H210 H 0.10435 0.08999 0.53929 0.0
H211 H 0.09553 0.09502 0.61411 0.0
H212 H 0.28953 0.08187 0.53317 0.0
H213 H 0.25098 0.07988 0.47815 0.0
H214 H 0.19531 0.08141 0.45848 0.0
H215 H 0.14216 0.08512 0.48063 0.0
Mn216 Mn 0.95823 0.21416 0.7184 0.0
Mn217 Mn 0.90248 0.20834 0.64826 0.0
C218 C 0.96814 0.22244 0.65005 0.0
C219 C 0.99642 0.1922 0.75651 0.0
C220 C 0.91044 0.26243 0.70367 0.0
O221 O 0.92609 0.19113 0.74941 0.0
O222 O 0.89094 0.18738 0.6998 0.0
C223 C 0.90519 0.1425 0.63427 0.0
N224 N 0.90646 0.1711 0.61933 0.0
C225 C 0.91253 0.15293 0.55033 0.0
C226 C 0.91106 0.1233 0.56494 0.0
C227 C 0.90747 0.11807 0.60711 0.0
C228 C 0.91004 0.17638 0.57883 0.0
H229 H 0.90238 0.13835 0.66664 0.0
C230 C 0.90069 0.18205 0.73606 0.0
O231 O 0.98425 0.21739 0.76808 0.0
O232 O 0.98599 0.17961 0.72361 0.0
N233 N 0.91058 0.22712 0.59661 0.0
C234 C 0.91227 0.25701 0.58754 0.0
C235 C 0.91643 0.26606 0.5467 0.0
C236 C 0.91849 0.24433 0.51556 0.0
C237 C 0.91623 0.21372 0.52553 0.0
C238 C 0.91197 0.20605 0.56676 0.0
H239 H 0.91079 0.27382 0.61133 0.0
O240 O 0.98588 0.23328 0.67794 0.0
O241 O 0.94525 0.20683 0.66284 0.0
O242 O 0.93359 0.25294 0.72284 0.0
O243 O 0.89708 0.2475 0.6756 0.0
C244 C 0.91848 0.1905 0.49626 0.0
C245 C 0.91663 0.16013 0.50865 0.0
H246 H 0.91281 0.10439 0.54409 0.0
H247 H 0.90642 0.09526 0.61865 0.0
H248 H 0.91816 0.28973 0.53926 0.0
H249 H 0.92197 0.25138 0.48415 0.0
H250 H 0.92192 0.19574 0.46419 0.0
H251 H 0.9186 0.14247 0.4859 0.0
Mn252 Mn 0.78364 0.95642 0.71397 0.0
Mn253 Mn 0.79048 0.90041 0.64437 0.0
C254 C 0.77561 0.96597 0.64548 0.0
C255 C 0.80539 0.99462 0.75231 0.0
C256 C 0.73592 0.90813 0.69898 0.0
O257 O 0.80663 0.9246 0.74552 0.0
O258 O 0.81129 0.88935 0.69623 0.0
C259 C 0.85637 0.90389 0.63115 0.0
N260 N 0.82785 0.90469 0.61585 0.0
C261 C 0.84636 0.91058 0.54701 0.0
C262 C 0.87593 0.90959 0.562 0.0
C263 C 0.88093 0.90633 0.60427 0.0
C264 C 0.82278 0.90797 0.57526 0.0
H265 H 0.86035 0.90134 0.66361 0.0
C266 C 0.81619 0.89931 0.73249 0.0
O267 O 0.78009 0.98252 0.76355 0.0
O268 O 0.81807 0.98429 0.71943 0.0
N269 N 0.77192 0.90798 0.59242 0.0
C270 C 0.74207 0.9092 0.58296 0.0
C271 C 0.73322 0.91298 0.54196 0.0
C272 C 0.75513 0.91513 0.51107 0.0
C273 C 0.7857 0.91334 0.52144 0.0
C274 C 0.79316 0.90945 0.5628 0.0
H275 H 0.72513 0.90763 0.60655 0.0
O276 O 0.7646 0.9838 0.67314 0.0
O277 O 0.79136 0.94327 0.65857 0.0
O278 O 0.74501 0.93152 0.71802 0.0
O279 O 0.75122 0.89472 0.67133 0.0
C280 C 0.80907 0.9157 0.49242 0.0
C281 C 0.83938 0.91432 0.5052 0.0
H282 H 0.89494 0.91146 0.54136 0.0
H283 H 0.90368 0.90565 0.6161 0.0
H284 H 0.70958 0.91433 0.53421 0.0
H285 H 0.74822 0.91831 0.47953 0.0
H286 H 0.80398 0.91885 0.46025 0.0
H287 H 0.85715 0.91636 0.48264 0.0
Mn288 Mn 0.53702 0.71738 0.7852 0.0
Mn289 Mn 0.59338 0.71189 0.85445 0.0
C290 C 0.52801 0.72726 0.85344 0.0
C291 C 0.4982 0.69492 0.7488 0.0
C292 C 0.58592 0.76495 0.79711 0.0
O293 O 0.5684 0.69315 0.75446 0.0
O294 O 0.60402 0.68968 0.80347 0.0
C295 C 0.58939 0.64644 0.87087 0.0
N296 N 0.58894 0.67534 0.88479 0.0
C297 C 0.58297 0.6587 0.9545 0.0
C298 C 0.5836 0.62875 0.94093 0.0
C299 C 0.58674 0.62261 0.89892 0.0
C300 C 0.58584 0.6815 0.92514 0.0
H301 H 0.5918 0.64159 0.83861 0.0
C302 C 0.59377 0.68385 0.76761 0.0
O303 O 0.51043 0.71975 0.73593 0.0
O304 O 0.50879 0.68311 0.7821 0.0
N305 N 0.58615 0.73187 0.90553 0.0
C306 C 0.585 0.76195 0.91351 0.0
C307 C 0.58143 0.77191 0.95407 0.0
C308 C 0.57927 0.75085 0.98603 0.0
C309 C 0.5808 0.72002 0.97714 0.0
C310 C 0.58463 0.71144 0.93617 0.0
H311 H 0.58642 0.77822 0.88908 0.0
O312 O 0.51015 0.73784 0.82552 0.0
O313 O 0.55048 0.71102 0.84071 0.0
O314 O 0.56237 0.7556 0.77866 0.0
O315 O 0.59921 0.75035 0.82555 0.0
C316 C 0.57818 0.69744 0.00726 0.0
C317 C 0.57925 0.66681 0.99594 0.0
H318 H 0.58152 0.61031 0.96246 0.0
H319 H 0.58714 0.59957 0.88818 0.0
H320 H 0.58017 0.79575 0.96066 0.0
H321 H 0.57618 0.75861 0.01722 0.0
H322 H 0.57502 0.7034 0.03916 0.0
H323 H 0.57696 0.64966 0.01933 0.0
Mn324 Mn 0.27932 0.53694 0.78719 0.0
Mn325 Mn 0.28379 0.59285 0.85726 0.0
C326 C 0.26927 0.52729 0.85522 0.0
C327 C 0.30219 0.49878 0.75008 0.0
C328 C 0.23134 0.58535 0.79888 0.0
O329 O 0.30332 0.5689 0.75722 0.0
O330 O 0.30656 0.60402 0.80697 0.0
C331 C 0.34905 0.58925 0.87529 0.0
N332 N 0.31997 0.58845 0.88847 0.0
C333 C 0.33572 0.58202 0.95849 0.0
C334 C 0.36584 0.58299 0.9457 0.0
C335 C 0.37251 0.58654 0.9039 0.0
C336 C 0.31329 0.58497 0.9286 0.0
H337 H 0.3543 0.59197 0.8432 0.0
C338 C 0.31254 0.59414 0.77095 0.0
O339 O 0.2773 0.51095 0.7374 0.0
O340 O 0.31387 0.50903 0.7837 0.0
N341 N 0.2632 0.58507 0.90772 0.0
C342 C 0.23302 0.58366 0.91491 0.0
C343 C 0.22255 0.57968 0.95515 0.0
C344 C 0.24319 0.57738 0.9876 0.0
C345 C 0.27413 0.5792 0.97953 0.0
C346 C 0.28323 0.58342 0.93884 0.0
H347 H 0.21706 0.58525 0.8901 0.0
O348 O 0.25902 0.50949 0.82697 0.0
O349 O 0.28525 0.55005 0.84293 0.0
O350 O 0.24091 0.56182 0.78067 0.0
O351 O 0.24566 0.59873 0.82751 0.0
C352 C 0.29632 0.57649 0.01017 0.0
C353 C 0.32709 0.57788 -0.00034 0.0
H354 H 0.384 0.58087 0.96766 0.0
H355 H 0.3957 0.58721 0.89377 0.0
H356 H 0.19864 0.57822 0.96111 0.0
H357 H 0.23505 0.57398 0.01854 0.0
H358 H 0.28996 0.57302 0.04186 0.0
H359 H 0.34394 0.57551 0.02344 0.0
Mn360 Mn 0.45937 0.28088 0.78351 0.0
Mn361 Mn 0.40266 0.28507 0.85235 0.0
C362 C 0.46846 0.2717 0.85193 0.0
C363 C 0.49745 0.3042 0.74675 0.0
C364 C 0.41164 0.23219 0.795 0.0
O365 O 0.42734 0.30403 0.75248 0.0
O366 O 0.3917 0.30723 0.8015 0.0
C367 C 0.40494 0.35053 0.8694 0.0
N368 N 0.40612 0.32158 0.88306 0.0
C369 C 0.41135 0.33805 0.95297 0.0
C370 C 0.40997 0.36803 0.93968 0.0
C371 C 0.40685 0.37428 0.89769 0.0
C372 C 0.40923 0.31532 0.92337 0.0
H373 H 0.40252 0.35546 0.83717 0.0
C374 C 0.40187 0.31306 0.76559 0.0
O375 O 0.48592 0.27894 0.73426 0.0
O376 O 0.48664 0.31592 0.78001 0.0
N377 N 0.41027 0.26505 0.90328 0.0
C378 C 0.41221 0.23497 0.91098 0.0
C379 C 0.416 0.22493 0.95146 0.0
C380 C 0.41752 0.24589 0.98363 0.0
C381 C 0.41512 0.27671 0.97503 0.0
C382 C 0.41121 0.28537 0.93411 0.0
H383 H 0.4112 0.21877 0.88639 0.0
O384 O 0.48675 0.26149 0.82424 0.0
O385 O 0.44556 0.28712 0.83885 0.0
O386 O 0.43523 0.24196 0.77713 0.0
O387 O 0.39773 0.24658 0.82309 0.0
C388 C 0.41695 0.2992 0.0054 0.0
C389 C 0.41507 0.32985 0.99437 0.0
H390 H 0.41145 0.38642 0.9614 0.0
H391 H 0.40587 0.39736 0.88718 0.0
H392 H 0.41788 0.20111 0.95782 0.0
H393 H 0.42074 0.23808 0.01476 0.0
H394 H 0.42012 0.29318 0.03727 0.0
H395 H 0.41676 0.34695 0.01794 0.0
Mn396 Mn 0.71622 0.45917 0.78328 0.0
Mn397 Mn 0.71122 0.40231 0.85181 0.0
C398 C 0.72523 0.46798 0.85179 0.0
C399 C 0.69349 0.49776 0.74676 0.0
C400 C 0.76469 0.41122 0.7956 0.0
O401 O 0.69294 0.42749 0.75174 0.0
O402 O 0.68984 0.39152 0.80028 0.0
C403 C 0.64551 0.40468 0.8669 0.0
N404 N 0.67424 0.40574 0.88144 0.0
C405 C 0.65667 0.4106 0.95089 0.0
C406 C 0.62691 0.40934 0.93669 0.0
C407 C 0.62132 0.40647 0.8945 0.0
C408 C 0.67986 0.40863 0.92196 0.0
H409 H 0.64108 0.40243 0.83452 0.0
C410 C 0.68411 0.40184 0.76444 0.0
O411 O 0.71865 0.48601 0.73431 0.0
O412 O 0.68148 0.48681 0.77972 0.0
N413 N 0.73044 0.40963 0.90341 0.0
C414 C 0.7604 0.41133 0.91205 0.0
C415 C 0.7698 0.4148 0.95287 0.0
C416 C 0.74835 0.41621 0.98441 0.0
C417 C 0.71766 0.41402 0.97485 0.0
C418 C 0.70964 0.41043 0.93363 0.0
H419 H 0.77698 0.41041 0.88795 0.0
O420 O 0.73573 0.48621 0.82426 0.0
O421 O 0.70955 0.44527 0.83855 0.0
O422 O 0.755 0.43463 0.77721 0.0
O423 O 0.75012 0.39748 0.82367 0.0
C424 C 0.69469 0.41572 0.00455 0.0
C425 C 0.66422 0.41402 0.99258 0.0
H426 H 0.60818 0.41071 0.95788 0.0
H427 H 0.59841 0.40558 0.88328 0.0
H428 H 0.79353 0.41652 0.95999 0.0
H429 H 0.75567 0.41918 0.01581 0.0
H430 H 0.70022 0.41863 0.03664 0.0
H431 H 0.64676 0.41558 0.01565 0.0
Mn432 Mn 0.53718 0.28201 0.21468 0.0
Mn433 Mn 0.59307 0.28695 0.14465 0.0
C434 C 0.52739 0.27262 0.14651 0.0
C435 C 0.49929 0.30493 0.25229 0.0
C436 C 0.58515 0.23372 0.20157 0.0
O437 O 0.56929 0.30541 0.24519 0.0
O438 O 0.60445 0.30882 0.19561 0.0
C439 C 0.59001 0.35252 0.1287 0.0
N440 N 0.58898 0.32368 0.1146 0.0
C441 C 0.58297 0.34066 0.04505 0.0
C442 C 0.5842 0.37055 0.05879 0.0
C443 C 0.58764 0.37649 0.10082 0.0
C444 C 0.58556 0.31771 0.07424 0.0
H445 H 0.59268 0.35722 0.16097 0.0
C446 C 0.59464 0.3145 0.23173 0.0
O447 O 0.51118 0.27977 0.26449 0.0
O448 O 0.50961 0.31677 0.21885 0.0
N449 N 0.58521 0.26728 0.09352 0.0
C450 C 0.58369 0.23723 0.08534 0.0
C451 C 0.57981 0.22748 0.04474 0.0
C452 C 0.57776 0.24868 0.01295 0.0
C453 C 0.57974 0.27947 0.02203 0.0
C454 C 0.58383 0.28784 0.06304 0.0
H455 H 0.58509 0.22085 0.10963 0.0
O456 O 0.50954 0.26231 0.17463 0.0
O457 O 0.55025 0.28843 0.15897 0.0
O458 O 0.56183 0.2433 0.22028 0.0
O459 O 0.59855 0.2483 0.17321 0.0
C460 C 0.57736 0.30218 0.99208 0.0
C461 C 0.57897 0.33276 0.00358 0.0
H462 H 0.58236 0.38909 0.03739 0.0
H463 H 0.5885 0.39949 0.11169 0.0
H464 H 0.57824 0.20369 0.03799 0.0
H465 H 0.57445 0.24109 0.98172 0.0
H466 H 0.57402 0.29639 0.96015 0.0
H467 H 0.57691 0.35003 0.98031 0.0
Mn468 Mn 0.71776 0.53739 0.21421 0.0
Mn469 Mn 0.712 0.59284 0.1437 0.0
C470 C 0.72712 0.5274 0.1461 0.0
C471 C 0.69543 0.49923 0.25194 0.0
C472 C 0.76536 0.58598 0.20069 0.0
O473 O 0.69395 0.56933 0.24448 0.0
O474 O 0.69003 0.6042 0.19458 0.0
C475 C 0.64648 0.58878 0.1278 0.0
N476 N 0.67533 0.58808 0.1137 0.0
C477 C 0.6584 0.58122 0.04425 0.0
C478 C 0.62851 0.5821 0.05799 0.0
C479 C 0.62254 0.58581 0.09997 0.0
C480 C 0.68133 0.58443 0.07339 0.0
H481 H 0.64177 0.59162 0.16003 0.0
C482 C 0.68453 0.59449 0.2308 0.0
O483 O 0.72041 0.51153 0.26413 0.0
O484 O 0.68339 0.50937 0.21853 0.0
N485 N 0.73177 0.58492 0.09267 0.0
C486 C 0.76182 0.58367 0.08452 0.0
C487 C 0.77161 0.57957 0.04398 0.0
C488 C 0.75043 0.57699 0.01222 0.0
C489 C 0.71963 0.57866 0.02127 0.0
C490 C 0.71122 0.58302 0.06221 0.0
H491 H 0.7782 0.58546 0.1088 0.0
O492 O 0.73778 0.50985 0.17432 0.0
O493 O 0.71108 0.55012 0.15846 0.0
O494 O 0.75613 0.5626 0.2196 0.0
O495 O 0.75058 0.59902 0.17221 0.0
C496 C 0.69694 0.57569 0.99136 0.0
C497 C 0.66635 0.57695 0.00285 0.0
H498 H 0.60999 0.57977 0.03664 0.0
H499 H 0.59954 0.58639 0.11084 0.0
H500 H 0.79543 0.57823 0.03726 0.0
H501 H 0.75806 0.57351 0.98105 0.0
H502 H 0.70277 0.57212 0.9595 0.0
H503 H 0.6491 0.5744 0.97963 0.0
Mn504 Mn 0.46057 0.71705 0.21653 0.0
Mn505 Mn 0.40418 0.71133 0.14738 0.0
C506 C 0.46967 0.72615 0.14813 0.0
C507 C 0.49919 0.69475 0.25343 0.0
C508 C 0.41208 0.7649 0.2038 0.0
O509 O 0.42897 0.69337 0.24768 0.0
O510 O 0.39339 0.68961 0.19865 0.0
C511 C 0.40778 0.64572 0.13192 0.0
N512 N 0.40837 0.6745 0.11757 0.0
C513 C 0.41414 0.65723 0.04809 0.0
C514 C 0.41335 0.62741 0.0621 0.0
C515 C 0.41025 0.62164 0.10422 0.0
C516 C 0.41149 0.6803 0.07713 0.0
H517 H 0.40539 0.64116 0.16425 0.0
C518 C 0.40358 0.68405 0.23462 0.0
O519 O 0.48711 0.71978 0.26579 0.0
O520 O 0.48855 0.68261 0.22036 0.0
N521 N 0.41153 0.73083 0.096 0.0
C522 C 0.41285 0.76084 0.08757 0.0
C523 C 0.41647 0.77042 0.04687 0.0
C524 C 0.41845 0.74909 0.01521 0.0
C525 C 0.41668 0.71834 0.02455 0.0
C526 C 0.41289 0.71013 0.06567 0.0
H527 H 0.41151 0.77733 0.11176 0.0
O528 O 0.48763 0.73686 0.17586 0.0
O529 O 0.44707 0.71023 0.16113 0.0
O530 O 0.43559 0.75555 0.22231 0.0
O531 O 0.3986 0.75009 0.17571 0.0
C532 C 0.41903 0.6955 0.99474 0.0
C533 C 0.41778 0.66496 0.00651 0.0
H534 H 0.41528 0.60877 0.04084 0.0
H535 H 0.40975 0.59869 0.11529 0.0
H536 H 0.41787 0.79419 0.03993 0.0
H537 H 0.42155 0.75655 0.98391 0.0
H538 H 0.42213 0.70116 0.96274 0.0
H539 H 0.41987 0.6476 0.98337 0.0
Mn540 Mn 0.28045 0.45987 0.21828 0.0
Mn541 Mn 0.28522 0.40322 0.14933 0.0
C542 C 0.2712 0.46886 0.14986 0.0
C543 C 0.30332 0.49838 0.25488 0.0
C544 C 0.23195 0.41193 0.20594 0.0
O545 O 0.30388 0.42811 0.24946 0.0
O546 O 0.30677 0.39227 0.20067 0.0
C547 C 0.35088 0.4057 0.13388 0.0
N548 N 0.32211 0.40674 0.11952 0.0
C549 C 0.33945 0.41176 0.04998 0.0
C550 C 0.36926 0.41052 0.06401 0.0
C551 C 0.37498 0.40757 0.10616 0.0
C552 C 0.31635 0.40971 0.07905 0.0
H553 H 0.35541 0.40339 0.16624 0.0
C554 C 0.31264 0.40249 0.23654 0.0
O555 O 0.2782 0.48658 0.26743 0.0
O556 O 0.3152 0.48752 0.22177 0.0
N557 N 0.26583 0.41066 0.0979 0.0
C558 C 0.23585 0.41238 0.08944 0.0
C559 C 0.22631 0.4159 0.04869 0.0
C560 C 0.24767 0.41736 0.01703 0.0
C561 C 0.27839 0.41517 0.02639 0.0
C562 C 0.28654 0.41152 0.06756 0.0
H563 H 0.21935 0.41145 0.11364 0.0
O564 O 0.26078 0.48701 0.17756 0.0
O565 O 0.28692 0.44614 0.16288 0.0
O566 O 0.24171 0.43527 0.22448 0.0
O567 O 0.24642 0.39831 0.17767 0.0
C568 C 0.30125 0.41693 0.99657 0.0
C569 C 0.33176 0.41524 0.00836 0.0
H570 H 0.38791 0.41195 0.04272 0.0
H571 H 0.39793 0.4067 0.11724 0.0
H572 H 0.20256 0.41763 0.04173 0.0
H573 H 0.24024 0.42037 0.98568 0.0
H574 H 0.29563 0.41989 0.96453 0.0
H575 H 0.34915 0.41686 0.98519 0.0
H576 H 0.07273 0.14315 0.21345 0.0
H577 H 0.2235 0.04627 0.21402 0.0
H578 H 0.15644 0.17265 0.26717 0.0
H579 H 0.13421 0.00973 0.22805 0.0
H580 H 0.20134 0.09611 0.20134 0.0
H581 H 0.09846 0.09855 0.18659 0.0
C582 C 0.09674 0.14082 0.21831 0.0
C583 C 0.11243 0.16125 0.24321 0.0
C584 C 0.18667 0.07691 0.20578 0.0
C585 C 0.14178 0.11062 0.21247 0.0
C586 C 0.19924 0.04854 0.21277 0.0
C587 C 0.18053 0.02418 0.22256 0.0
C588 C 0.15532 0.08052 0.20791 0.0
C589 C 0.14929 0.02818 0.22105 0.0
C590 C 0.11132 0.11534 0.20312 0.0
C591 C 0.14347 0.1571 0.2487 0.0
N592 N 0.13761 0.05596 0.21436 0.0
N593 N 0.1571 0.13197 0.23393 0.0
H594 H 0.98838 0.13595 0.23367 0.0
H595 H 0.82271 0.15974 0.27221 0.0
H596 H 0.95121 0.22517 0.22283 0.0
H597 H 0.85318 0.07835 0.21318 0.0
H598 H 0.86752 0.18572 0.24704 0.0
H599 H 0.9389 0.11476 0.21829 0.0
C600 C 0.96988 0.15103 0.2268 0.0
C601 C 0.97359 0.18223 0.22975 0.0
C602 C 0.86395 0.16243 0.23848 0.0
C603 C 0.91689 0.15834 0.2137 0.0
C604 C 0.83843 0.14759 0.25296 0.0
C605 C 0.83456 0.11675 0.24536 0.0
C606 C 0.88609 0.14605 0.2174 0.0
C607 C 0.85544 0.1021 0.22001 0.0
C608 C 0.94168 0.13898 0.21796 0.0
C609 C 0.94908 0.20094 0.22076 0.0
N610 N 0.88082 0.11666 0.20793 0.0
N611 N 0.92141 0.18869 0.21435 0.0
H612 H 0.77381 0.9557 0.21386 0.0
H613 H 0.92518 0.85977 0.20799 0.0
H614 H 0.86271 0.99197 0.23289 0.0
H615 H 0.84146 0.82767 0.25875 0.0
H616 H 0.89927 0.90525 0.18435 0.0
H617 H 0.7964 0.90654 0.19786 0.0
C618 C 0.79809 0.95357 0.21306 0.0
C619 C 0.81654 0.97758 0.22514 0.0
C620 C 0.88645 0.88773 0.19946 0.0
C621 C 0.84225 0.92206 0.20665 0.0
C622 C 0.90112 0.86174 0.21277 0.0
C623 C 0.88547 0.84026 0.23598 0.0
C624 C 0.85593 0.8919 0.20894 0.0
C625 C 0.85438 0.844 0.24152 0.0
C626 C 0.8109 0.9256 0.20416 0.0
C627 C 0.84782 0.97377 0.22413 0.0
N628 N 0.84066 0.8696 0.2286 0.0
N629 N 0.85974 0.94638 0.21549 0.0
H630 H 0.04546 0.77462 0.20981 0.0
H631 H 0.14408 0.92414 0.2044 0.0
H632 H 0.01072 0.86445 0.22565 0.0
H633 H 0.17372 0.84052 0.25821 0.0
H634 H 0.09893 0.89861 0.17905 0.0
H635 H 0.09534 0.79601 0.19491 0.0
C636 C 0.0481 0.79884 0.20852 0.0
C637 C 0.02429 0.81793 0.21939 0.0
C638 C 0.11587 0.88571 0.19521 0.0
C639 C 0.08061 0.84227 0.20211 0.0
C640 C 0.14169 0.90017 0.20952 0.0
C641 C 0.16231 0.88449 0.23415 0.0
C642 C 0.11099 0.85538 0.20516 0.0
C643 C 0.15804 0.8535 0.23996 0.0
C644 C 0.07648 0.81097 0.20024 0.0
C645 C 0.02875 0.8491 0.21781 0.0
N646 N 0.13256 0.84 0.22611 0.0
N647 N 0.05652 0.86035 0.20977 0.0
H648 H 0.07467 0.85404 0.78048 0.0
H649 H 0.22422 0.95281 0.77632 0.0
H650 H 0.15828 0.82472 0.72629 0.0
H651 H 0.1345 0.98794 0.76075 0.0
H652 H 0.20267 0.90283 0.79002 0.0
H653 H 0.10007 0.89936 0.80561 0.0
C654 C 0.09861 0.85656 0.77519 0.0
C655 C 0.11434 0.83595 0.75062 0.0
C656 C 0.18777 0.92177 0.78497 0.0
C657 C 0.1433 0.88741 0.77939 0.0
C658 C 0.19998 0.95021 0.77737 0.0
C659 C 0.18099 0.9742 0.76693 0.0
C660 C 0.15647 0.91774 0.78286 0.0
C661 C 0.1498 0.96978 0.76824 0.0
C662 C 0.11299 0.88247 0.78938 0.0
C663 C 0.14528 0.84039 0.74455 0.0
N664 N 0.13846 0.94195 0.77561 0.0
N665 N 0.15871 0.86591 0.75834 0.0
H666 H 0.14366 0.07368 0.78648 0.0
H667 H 0.04482 0.22314 0.78574 0.0
H668 H 0.17259 0.15797 0.73391 0.0
H669 H 0.00976 0.13343 0.7698 0.0
H670 H 0.09486 0.20163 0.79908 0.0
H671 H 0.09862 0.09879 0.81298 0.0
C672 C 0.14113 0.0977 0.78183 0.0
C673 C 0.16153 0.11371 0.75728 0.0
C674 C 0.07592 0.18672 0.79408 0.0
C675 C 0.11035 0.14234 0.7876 0.0
C676 C 0.04744 0.19891 0.78671 0.0
C677 C 0.02345 0.17991 0.77623 0.0
C678 C 0.08001 0.15543 0.79166 0.0
C679 C 0.02791 0.14873 0.77737 0.0
C680 C 0.11538 0.11192 0.7968 0.0
C681 C 0.15708 0.14474 0.75209 0.0
N682 N 0.05579 0.13741 0.78448 0.0
N683 N 0.13169 0.15801 0.7666 0.0
H684 H 0.83992 0.17287 0.73656 0.0
H685 H 0.86427 0.00636 0.76681 0.0
H686 H 0.92263 0.14077 0.79027 0.0
H687 H 0.77535 0.04338 0.78231 0.0
H688 H 0.88583 0.05541 0.78364 0.0
H689 H 0.81436 0.12766 0.76115 0.0
C690 C 0.85247 0.1567 0.75461 0.0
C691 C 0.88351 0.16024 0.76079 0.0
C692 C 0.86161 0.05267 0.78465 0.0
C693 C 0.85469 0.10823 0.78799 0.0
C694 C 0.84935 0.02471 0.77495 0.0
C695 C 0.81809 0.02111 0.77288 0.0
C696 C 0.8424 0.07737 0.7907 0.0
C697 C 0.79961 0.04543 0.7836 0.0
C698 C 0.83787 0.13094 0.76874 0.0
C699 C 0.8987 0.13877 0.78459 0.0
N700 N 0.81204 0.0729 0.79087 0.0
N701 N 0.88433 0.11318 0.79628 0.0
H702 H 0.85725 0.92252 0.78594 0.0
H703 H 0.95492 0.77246 0.77845 0.0
H704 H 0.82599 0.83862 0.73463 0.0
H705 H 0.98966 0.86193 0.75907 0.0
H706 H 0.90559 0.79429 0.79538 0.0
H707 H 0.90287 0.89698 0.80967 0.0
C708 C 0.85941 0.89849 0.7811 0.0
C709 C 0.83817 0.8827 0.7576 0.0
C710 C 0.92436 0.80908 0.78878 0.0
C711 C 0.88998 0.8536 0.78474 0.0
C712 C 0.95242 0.79671 0.77929 0.0
C713 C 0.97602 0.81554 0.76684 0.0
C714 C 0.92035 0.84037 0.78651 0.0
C715 C 0.97176 0.84675 0.76803 0.0
C716 C 0.88548 0.88402 0.79448 0.0
C717 C 0.84214 0.85165 0.75205 0.0
N718 N 0.94429 0.85824 0.77726 0.0
N719 N 0.86786 0.83814 0.76497 0.0
H720 H 0.57068 0.64197 0.71512 0.0
H721 H 0.72283 0.547 0.71697 0.0
H722 H 0.65448 0.67425 0.76552 0.0
H723 H 0.63427 0.50964 0.73494 0.0
H724 H 0.69981 0.59634 0.7033 0.0
H725 H 0.59674 0.59682 0.69061 0.0
C726 C 0.59476 0.6401 0.71971 0.0
C727 C 0.61042 0.66154 0.74301 0.0
C728 C 0.68547 0.57705 0.7089 0.0
C729 C 0.64014 0.61028 0.71496 0.0
C730 C 0.69853 0.54897 0.71646 0.0
C731 C 0.6803 0.52455 0.72752 0.0
C732 C 0.6541 0.58028 0.71169 0.0
C733 C 0.64899 0.52816 0.72694 0.0
C734 C 0.60953 0.6143 0.70589 0.0
C735 C 0.64155 0.65793 0.74825 0.0
N736 N 0.63683 0.55564 0.71958 0.0
N737 N 0.65537 0.63251 0.73482 0.0
H738 H 0.44855 0.72444 0.72074 0.0
H739 H 0.35413 0.57191 0.71736 0.0
H740 H 0.48655 0.63586 0.73561 0.0
H741 H 0.3222 0.65488 0.77063 0.0
H742 H 0.39892 0.59846 0.69264 0.0
H743 H 0.39911 0.70135 0.7078 0.0
C744 C 0.44668 0.70014 0.71964 0.0
C745 C 0.47133 0.68189 0.7296 0.0
C746 C 0.3816 0.61097 0.70864 0.0
C747 C 0.4155 0.65562 0.71466 0.0
C748 C 0.35601 0.59592 0.7226 0.0
C749 C 0.33477 0.61118 0.7467 0.0
C750 C 0.38562 0.64147 0.71838 0.0
C751 C 0.33837 0.64224 0.75274 0.0
C752 C 0.41855 0.68705 0.71252 0.0
C753 C 0.46786 0.65058 0.72838 0.0
N754 N 0.36358 0.65633 0.73913 0.0
N755 N 0.44032 0.63838 0.72148 0.0
H756 H 0.27287 0.4503 0.71801 0.0
H757 H 0.42477 0.35515 0.71341 0.0
H758 H 0.36145 0.48686 0.73878 0.0
H759 H 0.34108 0.32231 0.76345 0.0
H760 H 0.39865 0.40053 0.68993 0.0
H761 H 0.2958 0.4012 0.70245 0.0
C762 C 0.29717 0.44824 0.71775 0.0
C763 C 0.31542 0.47231 0.73011 0.0
C764 C 0.38589 0.38287 0.70485 0.0
C765 C 0.3415 0.41691 0.71204 0.0
C766 C 0.40069 0.35694 0.71807 0.0
C767 C 0.3851 0.33528 0.74106 0.0
C768 C 0.35533 0.38681 0.71419 0.0
C769 C 0.35396 0.33879 0.74642 0.0
C770 C 0.31016 0.4203 0.70907 0.0
C771 C 0.34671 0.4686 0.72978 0.0
N772 N 0.34012 0.36436 0.7336 0.0
N773 N 0.35881 0.44126 0.72129 0.0
H774 H 0.67563 0.34102 0.76165 0.0
H775 H 0.50846 0.36365 0.736 0.0
H776 H 0.64188 0.42449 0.71219 0.0
H777 H 0.54646 0.27579 0.7146 0.0
H778 H 0.55707 0.38637 0.71966 0.0
H779 H 0.63042 0.31546 0.73693 0.0
C780 C 0.65909 0.35376 0.74448 0.0
C781 C 0.66218 0.38496 0.73954 0.0
C782 C 0.55462 0.36217 0.71728 0.0
C783 C 0.61021 0.35612 0.71225 0.0
C784 C 0.52693 0.34925 0.72673 0.0
C785 C 0.52375 0.3179 0.72696 0.0
C786 C 0.57949 0.3435 0.70958 0.0
C787 C 0.54819 0.3001 0.71477 0.0
C788 C 0.63334 0.33916 0.73029 0.0
C789 C 0.64024 0.40042 0.71688 0.0
N790 N 0.57542 0.31312 0.70773 0.0
N791 N 0.61468 0.38601 0.70514 0.0
H792 H 0.72511 0.45001 0.28102 0.0
H793 H 0.57261 0.35579 0.2859 0.0
H794 H 0.63644 0.4878 0.26608 0.0
H795 H 0.65545 0.32373 0.23241 0.0
H796 H 0.5993 0.40045 0.3108 0.0
H797 H 0.70211 0.40072 0.29517 0.0
C798 C 0.70081 0.44815 0.28237 0.0
C799 C 0.68251 0.47266 0.27199 0.0
C800 C 0.61175 0.38311 0.29475 0.0
C801 C 0.65635 0.41701 0.28832 0.0
C802 C 0.59662 0.35759 0.28068 0.0
C803 C 0.61179 0.33639 0.2564 0.0
C804 C 0.64224 0.38709 0.28493 0.0
C805 C 0.64287 0.33988 0.25042 0.0
C806 C 0.68777 0.4201 0.2902 0.0
C807 C 0.6512 0.4692 0.27359 0.0
N808 N 0.65704 0.36504 0.2641 0.0
N809 N 0.63906 0.44175 0.28116 0.0
H810 H 0.54869 0.72455 0.28144 0.0
H811 H 0.64351 0.57236 0.28525 0.0
H812 H 0.51099 0.63577 0.26719 0.0
H813 H 0.67489 0.65522 0.23112 0.0
H814 H 0.59885 0.59891 0.31043 0.0
H815 H 0.59819 0.7017 0.29463 0.0
C816 C 0.55064 0.70026 0.28273 0.0
C817 C 0.52606 0.68188 0.27283 0.0
C818 C 0.61604 0.6114 0.29416 0.0
C819 C 0.58196 0.65589 0.28808 0.0
C820 C 0.64155 0.59636 0.27993 0.0
C821 C 0.66257 0.61157 0.25543 0.0
C822 C 0.61188 0.64185 0.28428 0.0
C823 C 0.65888 0.64261 0.24931 0.0
C824 C 0.5788 0.6873 0.29 0.0
C825 C 0.52963 0.65059 0.27433 0.0
N826 N 0.63374 0.6567 0.26317 0.0
N827 N 0.55719 0.63852 0.28137 0.0
H828 H 0.42657 0.64218 0.28711 0.0
H829 H 0.27415 0.54761 0.28509 0.0
H830 H 0.34282 0.67479 0.23703 0.0
H831 H 0.36259 0.51011 0.26655 0.0
H832 H 0.29732 0.59686 0.29903 0.0
H833 H 0.40039 0.59707 0.31151 0.0
C834 C 0.40247 0.64039 0.2826 0.0
C835 C 0.38686 0.66192 0.2594 0.0
C836 C 0.31159 0.57755 0.29325 0.0
C837 C 0.35701 0.6107 0.28731 0.0
C838 C 0.29846 0.54952 0.28552 0.0
C839 C 0.31661 0.52509 0.27424 0.0
C840 C 0.34297 0.58071 0.29039 0.0
C841 C 0.34792 0.52863 0.27473 0.0
C842 C 0.38764 0.61462 0.29634 0.0
C843 C 0.35571 0.65842 0.25424 0.0
N844 N 0.36016 0.55606 0.28226 0.0
N845 N 0.34182 0.63302 0.26758 0.0
H846 H 0.32111 0.34165 0.23873 0.0
H847 H 0.48838 0.36424 0.26446 0.0
H848 H 0.355 0.42488 0.28887 0.0
H849 H 0.45037 0.27618 0.28413 0.0
H850 H 0.4398 0.3868 0.28132 0.0
H851 H 0.36634 0.31595 0.26306 0.0
C852 C 0.33769 0.35431 0.25596 0.0
C853 C 0.33463 0.38549 0.2612 0.0
C854 C 0.44223 0.36258 0.28322 0.0
C855 C 0.38663 0.35649 0.28807 0.0
C856 C 0.46991 0.34975 0.27349 0.0
C857 C 0.47309 0.31841 0.27262 0.0
C858 C 0.41735 0.34385 0.29053 0.0
C859 C 0.44864 0.30049 0.28448 0.0
C860 C 0.36346 0.33963 0.26994 0.0
C861 C 0.35662 0.40083 0.28394 0.0
N862 N 0.42142 0.31344 0.29179 0.0
N863 N 0.38218 0.38635 0.29547 0.0
H864 H 0.12474 0.29859 0.34911 0.0
H865 H 0.19273 0.37889 0.16006 0.0
H866 H 0.08198 0.29357 0.23049 0.0
H867 H 0.20631 0.4137 0.28216 0.0
H868 H 0.15009 0.34968 0.18487 0.0
H869 H 0.15281 0.34261 0.3262 0.0
C870 C 0.12092 0.30701 0.31841 0.0
C871 C 0.10131 0.29214 0.29144 0.0
C872 C 0.16197 0.36419 0.20609 0.0
C873 C 0.13369 0.34225 0.26493 0.0
C874 C 0.1864 0.3808 0.19198 0.0
C875 C 0.20327 0.39847 0.21922 0.0
C876 C 0.15489 0.36459 0.24796 0.0
C877 C 0.19395 0.40023 0.26021 0.0
C878 C 0.13684 0.33226 0.30545 0.0
C879 C 0.09704 0.30423 0.25217 0.0
N880 N 0.17074 0.38291 0.27359 0.0
N881 N 0.11361 0.32825 0.23976 0.0
H882 H 0.69517 0.12374 0.34666 0.0
H883 H 0.61966 0.19552 0.15602 0.0
H884 H 0.7039 0.08405 0.22647 0.0
H885 H 0.58212 0.20696 0.27702 0.0
H886 H 0.6485 0.1526 0.18076 0.0
H887 H 0.65172 0.15223 0.32265 0.0
C888 C 0.68767 0.12067 0.31537 0.0
C889 C 0.70343 0.10184 0.28832 0.0
C890 C 0.63349 0.16409 0.20173 0.0
C891 C 0.65402 0.1347 0.26056 0.0
C892 C 0.61711 0.18869 0.18767 0.0
C893 C 0.59875 0.20504 0.21466 0.0
C894 C 0.63214 0.15627 0.24331 0.0
C895 C 0.59614 0.19504 0.25527 0.0
C896 C 0.66276 0.13683 0.30175 0.0
C897 C 0.69251 0.09849 0.24825 0.0
N898 N 0.61321 0.17164 0.26864 0.0
N899 N 0.66882 0.11529 0.23529 0.0
H900 H 0.79195 0.58396 0.27631 0.0
H901 H 0.91506 0.70782 0.21822 0.0
H902 H 0.80318 0.62062 0.15478 0.0
H903 H 0.8735 0.70081 0.33745 0.0
H904 H 0.88634 0.66364 0.19595 0.0
H905 H 0.83448 0.61472 0.29969 0.0
C906 C 0.80377 0.59792 0.25437 0.0
C907 C 0.7938 0.60012 0.21371 0.0
C908 C 0.884 0.67157 0.22718 0.0
C909 C 0.84229 0.63491 0.24007 0.0
C910 C 0.90037 0.69668 0.23993 0.0
C911 C 0.89627 0.70826 0.27953 0.0
C912 C 0.86383 0.65779 0.25445 0.0
C913 C 0.87699 0.69291 0.30645 0.0
C914 C 0.8279 0.61549 0.26775 0.0
C915 C 0.80988 0.61857 0.18652 0.0
N916 N 0.86131 0.66855 0.29332 0.0
N917 N 0.83323 0.63544 0.20027 0.0
H918 H 0.29278 0.91644 0.22068 0.0
H919 H 0.41582 0.7925 0.2787 0.0
H920 H 0.30104 0.87655 0.34077 0.0
H921 H 0.37711 0.8026 0.15813 0.0
H922 H 0.38639 0.83604 0.30184 0.0
H923 H 0.3367 0.88735 0.19827 0.0
C924 C 0.30422 0.90212 0.24256 0.0
C925 C 0.29299 0.89847 0.28242 0.0
C926 C 0.3849 0.82897 0.27014 0.0
C927 C 0.34308 0.86556 0.25716 0.0
C928 C 0.40168 0.80425 0.2569 0.0
C929 C 0.39852 0.79368 0.21662 0.0
C930 C 0.3653 0.84337 0.24267 0.0
C931 C 0.3799 0.80973 0.1896 0.0
C932 C 0.32915 0.88551 0.22973 0.0
C933 C 0.30867 0.87964 0.30957 0.0
N934 N 0.36381 0.83367 0.2032 0.0
N935 N 0.33281 0.86367 0.29634 0.0
H936 H 0.1926 0.62043 0.84277 0.0
H937 H 0.12622 0.69699 0.64941 0.0
H938 H 0.20629 0.58251 0.72241 0.0
H939 H 0.08247 0.70449 0.7671 0.0
H940 H 0.15424 0.65354 0.67464 0.0
H941 H 0.15061 0.64979 0.81607 0.0
C942 C 0.18645 0.61791 0.81085 0.0
C943 C 0.20314 0.59928 0.78462 0.0
C944 C 0.13807 0.66433 0.69467 0.0
C945 C 0.15552 0.63322 0.75377 0.0
C946 C 0.12219 0.68923 0.68039 0.0
C947 C 0.10231 0.70461 0.70642 0.0
C948 C 0.13456 0.65524 0.73555 0.0
C949 C 0.09773 0.6934 0.74611 0.0
C950 C 0.1624 0.63459 0.79567 0.0
C951 C 0.19406 0.59672 0.7436 0.0
N952 N 0.11425 0.66972 0.75979 0.0
N953 N 0.17122 0.61406 0.72916 0.0
H954 H 0.41551 0.20653 0.71894 0.0
H955 H 0.29242 0.08118 0.77048 0.0
H956 H 0.37695 0.19318 0.83898 0.0
H957 H 0.30016 0.12486 0.65278 0.0
H958 H 0.33633 0.10962 0.79431 0.0
H959 H 0.3859 0.16379 0.69359 0.0
C960 C 0.40139 0.19419 0.74016 0.0
C961 C 0.39829 0.20363 0.78096 0.0
C962 C 0.32866 0.11246 0.76305 0.0
C963 C 0.36484 0.15488 0.75236 0.0
C964 C 0.30372 0.09624 0.74939 0.0
C965 C 0.29236 0.10109 0.70983 0.0
C966 C 0.34249 0.13325 0.73672 0.0
C967 C 0.30789 0.12083 0.68374 0.0
C968 C 0.38449 0.16994 0.72565 0.0
C969 C 0.37967 0.1869 0.80717 0.0
N970 N 0.33206 0.13639 0.69776 0.0
N971 N 0.36346 0.16344 0.79234 0.0
H972 H 0.91577 0.29169 0.77718 0.0
H973 H 0.7913 0.41441 0.72005 0.0
H974 H 0.8746 0.29926 0.65776 0.0
H975 H 0.80332 0.37723 0.84114 0.0
H976 H 0.83451 0.38474 0.69634 0.0
H977 H 0.88703 0.33579 0.79964 0.0
C978 C 0.90119 0.30297 0.75546 0.0
C979 C 0.89714 0.29151 0.71578 0.0
C980 C 0.82795 0.38364 0.72827 0.0
C981 C 0.86463 0.34187 0.7411 0.0
C982 C 0.80344 0.40059 0.74183 0.0
C983 C 0.79348 0.39788 0.78245 0.0
C984 C 0.84274 0.36434 0.75574 0.0
C985 C 0.80998 0.37964 0.80943 0.0
C986 C 0.8848 0.32803 0.76831 0.0
C987 C 0.87802 0.30705 0.68884 0.0
N988 N 0.83368 0.36337 0.79552 0.0
N989 N 0.86226 0.33132 0.7021 0.0
H990 H 0.69997 0.8714 0.65301 0.0
H991 H 0.61999 0.8035 0.84265 0.0
H992 H 0.7059 0.91373 0.77186 0.0
H993 H 0.58439 0.79058 0.72085 0.0
H994 H 0.64969 0.84575 0.81767 0.0
H995 H 0.65595 0.84344 0.67626 0.0
C996 C 0.69175 0.87515 0.68383 0.0
C997 C 0.70687 0.89461 0.71076 0.0
C998 C 0.63492 0.83409 0.79655 0.0
C999 C 0.65678 0.86236 0.73764 0.0
C1000 C 0.61803 0.80988 0.81076 0.0
C1001 C 0.59995 0.79332 0.78366 0.0
C1002 C 0.63437 0.84127 0.75473 0.0
C1003 C 0.59815 0.8027 0.7427 0.0
C1004 C 0.66651 0.85929 0.69699 0.0
C1005 C 0.69504 0.89879 0.75021 0.0
N1006 N 0.61572 0.8257 0.72922 0.0
N1007 N 0.67102 0.88229 0.76278 0.0
H1008 H 0.01459 0.27249 0.40261 0.0
H1009 H 0.97552 0.17411 0.60077 0.0
H1010 H 0.02206 0.17588 0.40662 0.0
H1011 H 0.9844 0.27063 0.60365 0.0
H1012 H 0.99079 0.17422 0.52872 0.0
H1013 H -0.00018 0.27248 0.47513 0.0
C1014 C 0.0132 0.25134 0.41902 0.0
C1015 C 0.02067 0.22426 0.39966 0.0
C1016 C 0.98937 0.19542 0.54499 0.0
C1017 C 0.00336 0.22387 0.48156 0.0
C1018 C 0.9805 0.19534 0.58589 0.0
C1019 C 0.97767 0.22252 0.60717 0.0
C1020 C 0.99542 0.22293 0.52547 0.0
C1021 C 0.9856 0.24935 0.58756 0.0
C1022 C 0.00488 0.2513 0.46023 0.0
C1023 C 0.01759 0.19728 0.42131 0.0
N1024 N 0.99373 0.24897 0.54745 0.0
N1025 N 0.00933 0.19774 0.4613 0.0
H1026 H 0.82365 0.97364 0.59578 0.0
H1027 H 0.72412 0.01221 0.39835 0.0
H1028 H 0.72702 0.9811 0.59917 0.0
H1029 H 0.82048 0.02237 0.40268 0.0
H1030 H 0.72461 0.99608 0.47035 0.0
H1031 H 0.82306 0.98871 0.52365 0.0
C1032 C 0.8023 0.97823 0.58099 0.0
C1033 C 0.77525 0.97512 0.60246 0.0
C1034 C 0.74563 0.00197 0.4556 0.0
C1035 C 0.77428 0.99265 0.52069 0.0
C1036 C 0.74531 0.01107 0.4147 0.0
C1037 C 0.77214 0.01973 0.39565 0.0
C1038 C 0.7731 0.00091 0.47691 0.0
C1039 C 0.79923 0.01697 0.41717 0.0
C1040 C 0.80195 0.98699 0.54004 0.0
C1041 C 0.74823 0.98255 0.58294 0.0
N1042 N 0.79903 0.00797 0.45686 0.0
N1043 N 0.74835 0.99061 0.5428 0.0
H1044 H 0.02349 0.82185 0.59082 0.0
H1045 H 0.98408 0.72582 0.39048 0.0
H1046 H 0.01485 0.72529 0.59159 0.0
H1047 H 0.97683 0.82238 0.39689 0.0
H1048 H -0.00076 0.7249 0.46287 0.0
H1049 H 0.00837 0.82252 0.51875 0.0
C1050 C 0.01859 0.80078 0.57547 0.0
C1051 C 0.02142 0.77338 0.5962 0.0
C1052 C 0.99416 0.74627 0.44851 0.0
C1053 C 0.00384 0.77384 0.51441 0.0
C1054 C 0.98562 0.74676 0.40737 0.0
C1055 C 0.97809 0.77409 0.38873 0.0
C1056 C 0.99582 0.77343 0.47049 0.0
C1057 C 0.98135 0.80079 0.411 0.0
C1058 C 0.00982 0.80114 0.53454 0.0
C1059 C 0.01363 0.74675 0.57595 0.0
N1060 N 0.98981 0.79981 0.4509 0.0
N1061 N 0.00556 0.74756 0.53581 0.0
H1062 H 0.17217 0.02789 0.59462 0.0
H1063 H 0.17213 0.97189 0.3956 0.0
H1064 H 0.26797 0.01338 0.59204 0.0
H1065 H 0.26781 0.98725 0.39763 0.0
H1066 H 0.16916 0.98654 0.4672 0.0
H1067 H 0.16914 0.01363 0.52288 0.0
C1068 C 0.19259 0.02167 0.57858 0.0
C1069 C 0.22047 0.02278 0.59838 0.0
C1070 C 0.19085 0.98732 0.45229 0.0
C1071 C 0.21728 0.00465 0.51677 0.0
C1072 C 0.19254 0.9784 0.41149 0.0
C1073 C 0.22038 0.97738 0.3916 0.0
C1074 C 0.21725 0.99593 0.47303 0.0
C1075 C 0.24605 0.98713 0.41255 0.0
C1076 C 0.19087 0.01296 0.53768 0.0
C1077 C 0.24617 0.01341 0.5772 0.0
N1078 N 0.24393 0.99568 0.45242 0.0
N1079 N 0.24402 0.00504 0.53726 0.0
H1080 H 0.51252 0.77621 0.89913 0.0
H1081 H 0.47724 0.67797 0.09883 0.0
H1082 H 0.52061 0.67967 0.90381 0.0
H1083 H 0.4848 0.77461 0.10129 0.0
H1084 H 0.4914 0.67819 0.02643 0.0
H1085 H 0.49844 0.77641 0.97199 0.0
C1086 C 0.51136 0.75513 0.91572 0.0
C1087 C 0.51886 0.72801 0.89647 0.0
C1088 C 0.48994 0.6994 0.04266 0.0
C1089 C 0.50241 0.72786 0.97871 0.0
C1090 C 0.48172 0.69925 0.08379 0.0
C1091 C 0.47881 0.7264 0.10509 0.0
C1092 C 0.49523 0.72696 0.02287 0.0
C1093 C 0.48608 0.75333 0.08521 0.0
C1094 C 0.50345 0.75521 0.95711 0.0
C1095 C 0.51611 0.70111 0.91837 0.0
N1096 N 0.49355 0.75302 0.04483 0.0
N1097 N 0.50829 0.7017 0.95851 0.0
H1098 H 0.22047 0.51109 0.90084 0.0
H1099 H 0.3192 0.47554 0.10003 0.0
H1100 H 0.31697 0.51988 0.90538 0.0
H1101 H 0.2227 0.48448 0.10335 0.0
H1102 H 0.31878 0.48937 0.02752 0.0
H1103 H 0.2205 0.49674 0.97362 0.0
C1104 C 0.24159 0.51 0.91736 0.0
C1105 C 0.26862 0.51779 0.89811 0.0
C1106 C 0.29764 0.48828 0.04397 0.0
C1107 C 0.26903 0.50104 0.98025 0.0
C1108 C 0.29791 0.48025 0.08516 0.0
C1109 C 0.27084 0.47784 0.10676 0.0
C1110 C 0.27005 0.49389 0.02441 0.0
C1111 C 0.24391 0.48539 0.08706 0.0
C1112 C 0.24164 0.50194 0.95871 0.0
C1113 C 0.29558 0.51513 0.91994 0.0
N1114 N 0.2441 0.49268 0.04662 0.0
N1115 N 0.29512 0.50717 0.96002 0.0
H1116 H 0.51123 0.22353 0.10163 0.0
H1117 H 0.47487 0.32018 0.90098 0.0
H1118 H 0.52032 0.31994 0.09543 0.0
H1119 H 0.48458 0.22373 0.89916 0.0
H1120 H 0.48898 0.32054 0.97342 0.0
H1121 H 0.49683 0.22288 0.02889 0.0
C1122 C 0.51022 0.24449 0.08473 0.0
C1123 C 0.5181 0.27168 0.10352 0.0
C1124 C 0.48801 0.29924 0.95731 0.0
C1125 C 0.50127 0.27132 0.0214 0.0
C1126 C 0.47982 0.29906 0.91616 0.0
C1127 C 0.47756 0.27177 0.89501 0.0
C1128 C 0.49393 0.27189 0.97727 0.0
C1129 C 0.48538 0.24509 0.9151 0.0
C1130 C 0.50213 0.24415 0.04341 0.0
C1131 C 0.51552 0.29843 0.08123 0.0
N1132 N 0.49282 0.24572 0.95549 0.0
N1133 N 0.5075 0.29759 0.04116 0.0
H1134 H 0.67716 0.47444 0.90162 0.0
H1135 H 0.77587 0.51137 0.10045 0.0
H1136 H 0.77365 0.48357 0.8984 0.0
H1137 H 0.67931 0.51939 0.09619 0.0
H1138 H 0.77581 0.49655 0.02786 0.0
H1139 H 0.67752 0.48838 0.97413 0.0
C1140 C 0.69844 0.4792 0.91652 0.0
C1141 C 0.72553 0.47683 0.89495 0.0
C1142 C 0.75466 0.50168 0.04278 0.0
C1143 C 0.72624 0.49304 0.97726 0.0
C1144 C 0.75473 0.51002 0.08401 0.0
C1145 C 0.72769 0.51774 0.10327 0.0
C1146 C 0.72724 0.50043 0.02135 0.0
C1147 C 0.7007 0.51472 0.08159 0.0
C1148 C 0.69867 0.48729 0.9577 0.0
C1149 C 0.75243 0.48444 0.91467 0.0
N1150 N 0.70114 0.50649 0.04159 0.0
N1151 N 0.7522 0.49182 0.95507 0.0
loop_
_geom_bond_atom_site_label_1
_geom_bond_atom_site_label_2
_geom_bond_distance
_geom_bond_site_symmetry_2
_ccdc_geom_bond_type
Mn0 O5 2.095 . S
Mn0 O15 2.162 1_455 S
Mn0 O16 2.297 1_455 S
Mn0 O24 2.370 1_455 S
Mn0 O25 2.209 . S
Mn0 O26 2.094 . S
Mn1 O6 2.121 . S
Mn1 N8 2.257 . S
Mn1 N17 2.282 . S
Mn1 O25 2.215 . S
Mn1 O27 2.117 . S
C2 O24 1.213 1_455 S
C2 O25 1.283 . S
C3 O15 1.281 . S
C3 O16 1.236 . S
C4 O26 1.240 . S
C4 O27 1.264 . S
O5 Mn0 2.095 . S
O5 C14 1.250 . S
O6 Mn1 2.121 . S
O6 C14 1.258 . S
C7 N8 1.326 . S
C7 C11 1.460 . S
C7 H13 0.929 . S
N8 Mn1 2.257 . S
N8 C7 1.326 . S
N8 C12 1.362 . S
C9 C10 1.258 . S
C9 C12 1.431 . S
C9 C29 1.449 . S
C10 C9 1.258 . S
C10 C11 1.477 . S
C10 H30 0.931 . S
C11 C7 1.460 . S
C11 C10 1.477 . S
C11 H31 0.930 . S
C12 N8 1.362 . S
C12 C9 1.431 . S
C12 C22 1.476 . S
H13 C7 0.929 . S
C14 O5 1.250 . S
C14 O6 1.258 . S
O15 Mn0 2.162 1_655 S
O15 C3 1.281 . S
O16 Mn0 2.297 1_655 S
O16 C3 1.236 . S
N17 Mn1 2.282 . S
N17 C18 1.328 . S
N17 C22 1.318 . S
C18 N17 1.328 . S
C18 C19 1.457 . S
C18 H23 0.929 . S
C19 C18 1.457 . S
C19 C20 1.291 . S
C19 H32 0.931 . S
C20 C19 1.291 . S
C20 C21 1.373 . S
C20 H33 0.929 . S
C21 C20 1.373 . S
C21 C22 1.396 . S
C21 C28 1.403 . S
C22 C12 1.476 . S
C22 N17 1.318 . S
C22 C21 1.396 . S
H23 C18 0.929 . S
O24 Mn0 2.370 1_655 S
O24 C2 1.213 1_655 S
O25 Mn0 2.209 . S
O25 Mn1 2.215 . S
O25 C2 1.283 . S
O26 Mn0 2.094 . S
O26 C4 1.240 . S
O27 Mn1 2.117 . S
O27 C4 1.264 . S
C28 C21 1.403 . S
C28 C29 1.399 . S
C28 H34 0.929 . S
C29 C9 1.449 . S
C29 C28 1.399 . S
C29 H35 0.930 . S
H30 C10 0.931 . S
H31 C11 0.930 . S
H32 C19 0.931 . S
H33 C20 0.929 . S
H34 C28 0.929 . S
H35 C29 0.930 . S
Mn36 O41 2.095 . S
Mn36 O51 2.162 1_545 S
Mn36 O52 2.297 1_545 S
Mn36 O60 2.370 1_545 S
Mn36 O61 2.209 . S
Mn36 O62 2.094 . S
Mn37 O42 2.121 . S
Mn37 N44 2.257 . S
Mn37 N53 2.282 . S
Mn37 O61 2.215 . S
Mn37 O63 2.117 . S
C38 O60 1.213 1_545 S
C38 O61 1.283 . S
C39 O51 1.281 . S
C39 O52 1.236 . S
C40 O62 1.240 . S
C40 O63 1.264 . S
O41 Mn36 2.095 . S
O41 C50 1.250 . S
O42 Mn37 2.121 . S
O42 C50 1.258 . S
C43 N44 1.326 . S
C43 C47 1.460 . S
C43 H49 0.929 . S
N44 Mn37 2.257 . S
N44 C43 1.326 . S
N44 C48 1.362 . S
C45 C46 1.258 . S
C45 C48 1.431 . S
C45 C65 1.449 . S
C46 C45 1.258 . S
C46 C47 1.477 . S
C46 H66 0.931 . S
C47 C43 1.460 . S
C47 C46 1.477 . S
C47 H67 0.930 . S
C48 N44 1.362 . S
C48 C45 1.431 . S
C48 C58 1.476 . S
H49 C43 0.929 . S
C50 O41 1.250 . S
C50 O42 1.258 . S
O51 Mn36 2.162 1_565 S
O51 C39 1.281 . S
O52 Mn36 2.297 1_565 S
O52 C39 1.236 . S
N53 Mn37 2.282 . S
N53 C54 1.328 . S
N53 C58 1.318 . S
C54 N53 1.328 . S
C54 C55 1.457 . S
C54 H59 0.929 . S
C55 C54 1.457 . S
C55 C56 1.291 . S
C55 H68 0.931 . S
C56 C55 1.291 . S
C56 C57 1.373 . S
C56 H69 0.929 . S
C57 C56 1.373 . S
C57 C58 1.396 . S
C57 C64 1.403 . S
C58 C48 1.476 . S
C58 N53 1.318 . S
C58 C57 1.396 . S
H59 C54 0.929 . S
O60 Mn36 2.370 1_565 S
O60 C38 1.213 1_565 S
O61 Mn36 2.209 . S
O61 Mn37 2.215 . S
O61 C38 1.283 . S
O62 Mn36 2.094 . S
O62 C40 1.240 . S
O63 Mn37 2.117 . S
O63 C40 1.264 . S
C64 C57 1.403 . S
C64 C65 1.399 . S
C64 H70 0.929 . S
C65 C45 1.449 . S
C65 C64 1.399 . S
C65 H71 0.930 . S
H66 C46 0.931 . S
H67 C47 0.930 . S
H68 C55 0.931 . S
H69 C56 0.929 . S
H70 C64 0.929 . S
H71 C65 0.930 . S
Mn72 O77 2.095 . S
Mn72 O87 2.162 1_655 S
Mn72 O88 2.297 1_655 S
Mn72 O96 2.370 1_655 S
Mn72 O97 2.209 . S
Mn72 O98 2.094 . S
Mn73 O78 2.121 . S
Mn73 N80 2.257 . S
Mn73 N89 2.282 . S
Mn73 O97 2.215 . S
Mn73 O99 2.117 . S
C74 O96 1.213 1_655 S
C74 O97 1.283 . S
C75 O87 1.281 . S
C75 O88 1.236 . S
C76 O98 1.240 . S
C76 O99 1.264 . S
O77 Mn72 2.095 . S
O77 C86 1.250 . S
O78 Mn73 2.121 . S
O78 C86 1.258 . S
C79 N80 1.326 . S
C79 C83 1.460 . S
C79 H85 0.929 . S
N80 Mn73 2.257 . S
N80 C79 1.326 . S
N80 C84 1.362 . S
C81 C82 1.258 . S
C81 C84 1.431 . S
C81 C101 1.449 . S
C82 C81 1.258 . S
C82 C83 1.477 . S
C82 H102 0.931 . S
C83 C79 1.460 . S
C83 C82 1.477 . S
C83 H103 0.930 . S
C84 N80 1.362 . S
C84 C81 1.431 . S
C84 C94 1.476 . S
H85 C79 0.929 . S
C86 O77 1.250 . S
C86 O78 1.258 . S
O87 Mn72 2.162 1_455 S
O87 C75 1.281 . S
O88 Mn72 2.297 1_455 S
O88 C75 1.236 . S
N89 Mn73 2.282 . S
N89 C90 1.328 . S
N89 C94 1.318 . S
C90 N89 1.328 . S
C90 C91 1.457 . S
C90 H95 0.929 . S
C91 C90 1.457 . S
C91 C92 1.291 . S
C91 H104 0.931 . S
C92 C91 1.291 . S
C92 C93 1.373 . S
C92 H105 0.929 . S
C93 C92 1.373 . S
C93 C94 1.396 . S
C93 C100 1.403 . S
C94 C84 1.476 . S
C94 N89 1.318 . S
C94 C93 1.396 . S
H95 C90 0.929 . S
O96 Mn72 2.370 1_455 S
O96 C74 1.213 1_455 S
O97 Mn72 2.209 . S
O97 Mn73 2.215 . S
O97 C74 1.283 . S
O98 Mn72 2.094 . S
O98 C76 1.240 . S
O99 Mn73 2.117 . S
O99 C76 1.264 . S
C100 C93 1.403 . S
C100 C101 1.399 . S
C100 H106 0.929 . S
C101 C81 1.449 . S
C101 C100 1.399 . S
C101 H107 0.930 . S
H102 C82 0.931 . S
H103 C83 0.930 . S
H104 C91 0.931 . S
H105 C92 0.929 . S
H106 C100 0.929 . S
H107 C101 0.930 . S
Mn108 O113 2.095 . S
Mn108 O123 2.162 1_565 S
Mn108 O124 2.297 1_565 S
Mn108 O132 2.370 1_565 S
Mn108 O133 2.209 . S
Mn108 O134 2.094 . S
Mn109 O114 2.121 . S
Mn109 N116 2.257 . S
Mn109 N125 2.282 . S
Mn109 O133 2.215 . S
Mn109 O135 2.117 . S
C110 O132 1.213 1_565 S
C110 O133 1.283 . S
C111 O123 1.281 . S
C111 O124 1.236 . S
C112 O134 1.240 . S
C112 O135 1.264 . S
O113 Mn108 2.095 . S
O113 C122 1.250 . S
O114 Mn109 2.121 . S
O114 C122 1.258 . S
C115 N116 1.326 . S
C115 C119 1.460 . S
C115 H121 0.929 . S
N116 Mn109 2.257 . S
N116 C115 1.326 . S
N116 C120 1.362 . S
C117 C118 1.258 . S
C117 C120 1.431 . S
C117 C137 1.449 . S
C118 C117 1.258 . S
C118 C119 1.477 . S
C118 H138 0.931 . S
C119 C115 1.460 . S
C119 C118 1.477 . S
C119 H139 0.930 . S
C120 N116 1.362 . S
C120 C117 1.431 . S
C120 C130 1.476 . S
H121 C115 0.929 . S
C122 O113 1.250 . S
C122 O114 1.258 . S
O123 Mn108 2.162 1_545 S
O123 C111 1.281 . S
O124 Mn108 2.297 1_545 S
O124 C111 1.236 . S
N125 Mn109 2.282 . S
N125 C126 1.328 . S
N125 C130 1.318 . S
C126 N125 1.328 . S
C126 C127 1.457 . S
C126 H131 0.929 . S
C127 C126 1.457 . S
C127 C128 1.291 . S
C127 H140 0.931 . S
C128 C127 1.291 . S
C128 C129 1.373 . S
C128 H141 0.929 . S
C129 C128 1.373 . S
C129 C130 1.396 . S
C129 C136 1.403 . S
C130 C120 1.476 . S
C130 N125 1.318 . S
C130 C129 1.396 . S
H131 C126 0.929 . S
O132 Mn108 2.370 1_545 S
O132 C110 1.213 1_545 S
O133 Mn108 2.209 . S
O133 Mn109 2.215 . S
O133 C110 1.283 . S
O134 Mn108 2.094 . S
O134 C112 1.240 . S
O135 Mn109 2.117 . S
O135 C112 1.264 . S
C136 C129 1.403 . S
C136 C137 1.399 . S
C136 H142 0.929 . S
C137 C117 1.449 . S
C137 C136 1.399 . S
C137 H143 0.930 . S
H138 C118 0.931 . S
H139 C119 0.930 . S
H140 C127 0.931 . S
H141 C128 0.929 . S
H142 C136 0.929 . S
H143 C137 0.930 . S
Mn144 O149 2.095 . S
Mn144 O159 2.162 1_455 S
Mn144 O160 2.297 1_455 S
Mn144 O168 2.370 1_455 S
Mn144 O169 2.209 . S
Mn144 O170 2.094 . S
Mn145 O150 2.121 . S
Mn145 N152 2.257 . S
Mn145 N161 2.282 . S
Mn145 O169 2.215 . S
Mn145 O171 2.117 . S
C146 O168 1.213 1_455 S
C146 O169 1.283 . S
C147 O159 1.281 . S
C147 O160 1.236 . S
C148 O170 1.240 . S
C148 O171 1.264 . S
O149 Mn144 2.095 . S
O149 C158 1.250 . S
O150 Mn145 2.121 . S
O150 C158 1.258 . S
C151 N152 1.326 . S
C151 C155 1.460 . S
C151 H157 0.929 . S
N152 Mn145 2.257 . S
N152 C151 1.326 . S
N152 C156 1.362 . S
C153 C154 1.258 . S
C153 C156 1.431 . S
C153 C173 1.449 . S
C154 C153 1.258 . S
C154 C155 1.477 . S
C154 H174 0.931 . S
C155 C151 1.460 . S
C155 C154 1.477 . S
C155 H175 0.930 . S
C156 N152 1.362 . S
C156 C153 1.431 . S
C156 C166 1.476 . S
H157 C151 0.929 . S
C158 O149 1.250 . S
C158 O150 1.258 . S
O159 Mn144 2.162 1_655 S
O159 C147 1.281 . S
O160 Mn144 2.297 1_655 S
O160 C147 1.236 . S
N161 Mn145 2.282 . S
N161 C162 1.328 . S
N161 C166 1.318 . S
C162 N161 1.328 . S
C162 C163 1.457 . S
C162 H167 0.929 . S
C163 C162 1.457 . S
C163 C164 1.291 . S
C163 H176 0.931 . S
C164 C163 1.291 . S
C164 C165 1.373 . S
C164 H177 0.929 . S
C165 C164 1.373 . S
C165 C166 1.396 . S
C165 C172 1.403 . S
C166 C156 1.476 . S
C166 N161 1.318 . S
C166 C165 1.396 . S
H167 C162 0.929 . S
O168 Mn144 2.370 1_655 S
O168 C146 1.213 1_655 S
O169 Mn144 2.209 . S
O169 Mn145 2.215 . S
O169 C146 1.283 . S
O170 Mn144 2.094 . S
O170 C148 1.240 . S
O171 Mn145 2.117 . S
O171 C148 1.264 . S
C172 C165 1.403 . S
C172 C173 1.399 . S
C172 H178 0.929 . S
C173 C153 1.449 . S
C173 C172 1.399 . S
C173 H179 0.930 . S
H174 C154 0.931 . S
H175 C155 0.930 . S
H176 C163 0.931 . S
H177 C164 0.929 . S
H178 C172 0.929 . S
H179 C173 0.930 . S
Mn180 O185 2.095 . S
Mn180 O195 2.162 1_545 S
Mn180 O196 2.297 1_545 S
Mn180 O204 2.370 1_545 S
Mn180 O205 2.209 . S
Mn180 O206 2.094 . S
Mn181 O186 2.121 . S
Mn181 N188 2.257 . S
Mn181 N197 2.282 . S
Mn181 O205 2.215 . S
Mn181 O207 2.117 . S
C182 O204 1.213 1_545 S
C182 O205 1.283 . S
C183 O195 1.281 . S
C183 O196 1.236 . S
C184 O206 1.240 . S
C184 O207 1.264 . S
O185 Mn180 2.095 . S
O185 C194 1.250 . S
O186 Mn181 2.121 . S
O186 C194 1.258 . S
C187 N188 1.326 . S
C187 C191 1.460 . S
C187 H193 0.929 . S
N188 Mn181 2.257 . S
N188 C187 1.326 . S
N188 C192 1.362 . S
C189 C190 1.258 . S
C189 C192 1.431 . S
C189 C209 1.449 . S
C190 C189 1.258 . S
C190 C191 1.477 . S
C190 H210 0.931 . S
C191 C187 1.460 . S
C191 C190 1.477 . S
C191 H211 0.930 . S
C192 N188 1.362 . S
C192 C189 1.431 . S
C192 C202 1.476 . S
H193 C187 0.929 . S
C194 O185 1.250 . S
C194 O186 1.258 . S
O195 Mn180 2.162 1_565 S
O195 C183 1.281 . S
O196 Mn180 2.297 1_565 S
O196 C183 1.236 . S
N197 Mn181 2.282 . S
N197 C198 1.328 . S
N197 C202 1.318 . S
C198 N197 1.328 . S
C198 C199 1.457 . S
C198 H203 0.929 . S
C199 C198 1.457 . S
C199 C200 1.291 . S
C199 H212 0.931 . S
C200 C199 1.291 . S
C200 C201 1.373 . S
C200 H213 0.929 . S
C201 C200 1.373 . S
C201 C202 1.396 . S
C201 C208 1.403 . S
C202 C192 1.476 . S
C202 N197 1.318 . S
C202 C201 1.396 . S
H203 C198 0.929 . S
O204 Mn180 2.370 1_565 S
O204 C182 1.213 1_565 S
O205 Mn180 2.209 . S
O205 Mn181 2.215 . S
O205 C182 1.283 . S
O206 Mn180 2.094 . S
O206 C184 1.240 . S
O207 Mn181 2.117 . S
O207 C184 1.264 . S
C208 C201 1.403 . S
C208 C209 1.399 . S
C208 H214 0.929 . S
C209 C189 1.449 . S
C209 C208 1.399 . S
C209 H215 0.930 . S
H210 C190 0.931 . S
H211 C191 0.930 . S
H212 C199 0.931 . S
H213 C200 0.929 . S
H214 C208 0.929 . S
H215 C209 0.930 . S
Mn216 O221 2.095 . S
Mn216 O231 2.162 1_655 S
Mn216 O232 2.297 1_655 S
Mn216 O240 2.370 1_655 S
Mn216 O241 2.209 . S
Mn216 O242 2.094 . S
Mn217 O222 2.121 . S
Mn217 N224 2.257 . S
Mn217 N233 2.282 . S
Mn217 O241 2.215 . S
Mn217 O243 2.117 . S
C218 O240 1.213 1_655 S
C218 O241 1.283 . S
C219 O231 1.281 . S
C219 O232 1.236 . S
C220 O242 1.240 . S
C220 O243 1.264 . S
O221 Mn216 2.095 . S
O221 C230 1.250 . S
O222 Mn217 2.121 . S
O222 C230 1.258 . S
C223 N224 1.326 . S
C223 C227 1.460 . S
C223 H229 0.929 . S
N224 Mn217 2.257 . S
N224 C223 1.326 . S
N224 C228 1.362 . S
C225 C226 1.258 . S
C225 C228 1.431 . S
C225 C245 1.449 . S
C226 C225 1.258 . S
C226 C227 1.477 . S
C226 H246 0.931 . S
C227 C223 1.460 . S
C227 C226 1.477 . S
C227 H247 0.930 . S
C228 N224 1.362 . S
C228 C225 1.431 . S
C228 C238 1.476 . S
H229 C223 0.929 . S
C230 O221 1.250 . S
C230 O222 1.258 . S
O231 Mn216 2.162 1_455 S
O231 C219 1.281 . S
O232 Mn216 2.297 1_455 S
O232 C219 1.236 . S
N233 Mn217 2.282 . S
N233 C234 1.328 . S
N233 C238 1.318 . S
C234 N233 1.328 . S
C234 C235 1.457 . S
C234 H239 0.929 . S
C235 C234 1.457 . S
C235 C236 1.291 . S
C235 H248 0.931 . S
C236 C235 1.291 . S
C236 C237 1.373 . S
C236 H249 0.929 . S
C237 C236 1.373 . S
C237 C238 1.396 . S
C237 C244 1.403 . S
C238 C228 1.476 . S
C238 N233 1.318 . S
C238 C237 1.396 . S
H239 C234 0.929 . S
O240 Mn216 2.370 1_455 S
O240 C218 1.213 1_455 S
O241 Mn216 2.209 . S
O241 Mn217 2.215 . S
O241 C218 1.283 . S
O242 Mn216 2.094 . S
O242 C220 1.240 . S
O243 Mn217 2.117 . S
O243 C220 1.264 . S
C244 C237 1.403 . S
C244 C245 1.399 . S
C244 H250 0.929 . S
C245 C225 1.449 . S
C245 C244 1.399 . S
C245 H251 0.930 . S
H246 C226 0.931 . S
H247 C227 0.930 . S
H248 C235 0.931 . S
H249 C236 0.929 . S
H250 C244 0.929 . S
H251 C245 0.930 . S
Mn252 O257 2.095 . S
Mn252 O267 2.162 1_565 S
Mn252 O268 2.297 1_565 S
Mn252 O276 2.370 1_565 S
Mn252 O277 2.209 . S
Mn252 O278 2.094 . S
Mn253 O258 2.121 . S
Mn253 N260 2.257 . S
Mn253 N269 2.282 . S
Mn253 O277 2.215 . S
Mn253 O279 2.117 . S
C254 O276 1.213 1_565 S
C254 O277 1.283 . S
C255 O267 1.281 . S
C255 O268 1.236 . S
C256 O278 1.240 . S
C256 O279 1.264 . S
O257 Mn252 2.095 . S
O257 C266 1.250 . S
O258 Mn253 2.121 . S
O258 C266 1.258 . S
C259 N260 1.326 . S
C259 C263 1.460 . S
C259 H265 0.929 . S
N260 Mn253 2.257 . S
N260 C259 1.326 . S
N260 C264 1.362 . S
C261 C262 1.258 . S
C261 C264 1.431 . S
C261 C281 1.449 . S
C262 C261 1.258 . S
C262 C263 1.477 . S
C262 H282 0.931 . S
C263 C259 1.460 . S
C263 C262 1.477 . S
C263 H283 0.930 . S
C264 N260 1.362 . S
C264 C261 1.431 . S
C264 C274 1.476 . S
H265 C259 0.929 . S
C266 O257 1.250 . S
C266 O258 1.258 . S
O267 Mn252 2.162 1_545 S
O267 C255 1.281 . S
O268 Mn252 2.297 1_545 S
O268 C255 1.236 . S
N269 Mn253 2.282 . S
N269 C270 1.328 . S
N269 C274 1.318 . S
C270 N269 1.328 . S
C270 C271 1.457 . S
C270 H275 0.929 . S
C271 C270 1.457 . S
C271 C272 1.291 . S
C271 H284 0.931 . S
C272 C271 1.291 . S
C272 C273 1.373 . S
C272 H285 0.929 . S
C273 C272 1.373 . S
C273 C274 1.396 . S
C273 C280 1.403 . S
C274 C264 1.476 . S
C274 N269 1.318 . S
C274 C273 1.396 . S
H275 C270 0.929 . S
O276 Mn252 2.370 1_545 S
O276 C254 1.213 1_545 S
O277 Mn252 2.209 . S
O277 Mn253 2.215 . S
O277 C254 1.283 . S
O278 Mn252 2.094 . S
O278 C256 1.240 . S
O279 Mn253 2.117 . S
O279 C256 1.264 . S
C280 C273 1.403 . S
C280 C281 1.399 . S
C280 H286 0.929 . S
C281 C261 1.449 . S
C281 C280 1.399 . S
C281 H287 0.930 . S
H282 C262 0.931 . S
H283 C263 0.930 . S
H284 C271 0.931 . S
H285 C272 0.929 . S
H286 C280 0.929 . S
H287 C281 0.930 . S
Mn288 O293 2.095 . S
Mn288 O303 2.162 . S
Mn288 O304 2.297 . S
Mn288 O312 2.385 . S
Mn288 O313 2.209 . S
Mn288 O314 2.094 . S
Mn289 O294 2.121 . S
Mn289 N296 2.257 . S
Mn289 N305 2.282 . S
Mn289 O313 2.215 . S
Mn289 O315 2.117 . S
C290 O312 1.234 . S
C290 O313 1.283 . S
C291 O303 1.281 . S
C291 O304 1.236 . S
C292 O314 1.240 . S
C292 O315 1.264 . S
O293 Mn288 2.095 . S
O293 C302 1.250 . S
O294 Mn289 2.121 . S
O294 C302 1.258 . S
C295 N296 1.326 . S
C295 C299 1.460 . S
C295 H301 0.929 . S
N296 Mn289 2.257 . S
N296 C295 1.326 . S
N296 C300 1.362 . S
C297 C298 1.258 . S
C297 C300 1.431 . S
C297 C317 1.449 . S
C298 C297 1.258 . S
C298 C299 1.477 . S
C298 H318 0.931 . S
C299 C295 1.460 . S
C299 C298 1.477 . S
C299 H319 0.930 . S
C300 N296 1.362 . S
C300 C297 1.431 . S
C300 C310 1.476 . S
H301 C295 0.929 . S
C302 O293 1.250 . S
C302 O294 1.258 . S
O303 Mn288 2.162 . S
O303 C291 1.281 . S
O304 Mn288 2.297 . S
O304 C291 1.236 . S
N305 Mn289 2.282 . S
N305 C306 1.328 . S
N305 C310 1.318 . S
C306 N305 1.328 . S
C306 C307 1.457 . S
C306 H311 0.929 . S
C307 C306 1.457 . S
C307 C308 1.291 . S
C307 H320 0.931 . S
C308 C307 1.291 . S
C308 C309 1.373 . S
C308 H321 0.929 . S
C309 C308 1.373 . S
C309 C310 1.396 . S
C309 C316 1.403 . S
C310 C300 1.476 . S
C310 N305 1.318 . S
C310 C309 1.396 . S
H311 C306 0.929 . S
O312 Mn288 2.385 . S
O312 C290 1.234 . S
O313 Mn288 2.209 . S
O313 Mn289 2.215 . S
O313 C290 1.283 . S
O314 Mn288 2.094 . S
O314 C292 1.240 . S
O315 Mn289 2.117 . S
O315 C292 1.264 . S
C316 C309 1.403 . S
C316 C317 1.399 . S
C316 H322 0.929 1_556 S
C317 C297 1.449 . S
C317 C316 1.399 . S
C317 H323 0.930 1_556 S
H318 C298 0.931 . S
H319 C299 0.930 . S
H320 C307 0.931 . S
H321 C308 0.929 . S
H322 C316 0.929 1_554 S
H323 C317 0.930 1_554 S
Mn324 O329 2.095 . S
Mn324 O339 2.162 . S
Mn324 O340 2.297 . S
Mn324 O348 2.385 . S
Mn324 O349 2.209 . S
Mn324 O350 2.094 . S
Mn325 O330 2.121 . S
Mn325 N332 2.257 . S
Mn325 N341 2.282 . S
Mn325 O349 2.215 . S
Mn325 O351 2.117 . S
C326 O348 1.234 . S
C326 O349 1.283 . S
C327 O339 1.281 . S
C327 O340 1.236 . S
C328 O350 1.240 . S
C328 O351 1.264 . S
O329 Mn324 2.095 . S
O329 C338 1.250 . S
O330 Mn325 2.121 . S
O330 C338 1.258 . S
C331 N332 1.326 . S
C331 C335 1.460 . S
C331 H337 0.929 . S
N332 Mn325 2.257 . S
N332 C331 1.326 . S
N332 C336 1.362 . S
C333 C334 1.258 . S
C333 C336 1.431 . S
C333 C353 1.449 . S
C334 C333 1.258 . S
C334 C335 1.477 . S
C334 H354 0.931 . S
C335 C331 1.460 . S
C335 C334 1.477 . S
C335 H355 0.930 . S
C336 N332 1.362 . S
C336 C333 1.431 . S
C336 C346 1.476 . S
H337 C331 0.929 . S
C338 O329 1.250 . S
C338 O330 1.258 . S
O339 Mn324 2.162 . S
O339 C327 1.281 . S
O340 Mn324 2.297 . S
O340 C327 1.236 . S
N341 Mn325 2.282 . S
N341 C342 1.328 . S
N341 C346 1.318 . S
C342 N341 1.328 . S
C342 C343 1.457 . S
C342 H347 0.929 . S
C343 C342 1.457 . S
C343 C344 1.291 . S
C343 H356 0.931 . S
C344 C343 1.291 . S
C344 C345 1.373 . S
C344 H357 0.929 . S
C345 C344 1.373 . S
C345 C346 1.396 . S
C345 C352 1.403 . S
C346 C336 1.476 . S
C346 N341 1.318 . S
C346 C345 1.396 . S
H347 C342 0.929 . S
O348 Mn324 2.385 . S
O348 C326 1.234 . S
O349 Mn324 2.209 . S
O349 Mn325 2.215 . S
O349 C326 1.283 . S
O350 Mn324 2.094 . S
O350 C328 1.240 . S
O351 Mn325 2.117 . S
O351 C328 1.264 . S
C352 C345 1.403 . S
C352 C353 1.399 . S
C352 H358 0.929 1_556 S
C353 C333 1.449 . S
C353 C352 1.399 . S
C353 H359 0.930 1_556 S
H354 C334 0.931 . S
H355 C335 0.930 . S
H356 C343 0.931 . S
H357 C344 0.929 . S
H358 C352 0.929 1_554 S
H359 C353 0.930 1_554 S
Mn360 O365 2.095 . S
Mn360 O375 2.162 . S
Mn360 O376 2.297 . S
Mn360 O384 2.385 . S
Mn360 O385 2.209 . S
Mn360 O386 2.094 . S
Mn361 O366 2.121 . S
Mn361 N368 2.257 . S
Mn361 N377 2.282 . S
Mn361 O385 2.215 . S
Mn361 O387 2.117 . S
C362 O384 1.234 . S
C362 O385 1.283 . S
C363 O375 1.281 . S
C363 O376 1.236 . S
C364 O386 1.240 . S
C364 O387 1.264 . S
O365 Mn360 2.095 . S
O365 C374 1.250 . S
O366 Mn361 2.121 . S
O366 C374 1.258 . S
C367 N368 1.326 . S
C367 C371 1.460 . S
C367 H373 0.929 . S
N368 Mn361 2.257 . S
N368 C367 1.326 . S
N368 C372 1.362 . S
C369 C370 1.258 . S
C369 C372 1.431 . S
C369 C389 1.449 . S
C370 C369 1.258 . S
C370 C371 1.477 . S
C370 H390 0.931 . S
C371 C367 1.460 . S
C371 C370 1.477 . S
C371 H391 0.930 . S
C372 N368 1.362 . S
C372 C369 1.431 . S
C372 C382 1.476 . S
H373 C367 0.929 . S
C374 O365 1.250 . S
C374 O366 1.258 . S
O375 Mn360 2.162 . S
O375 C363 1.281 . S
O376 Mn360 2.297 . S
O376 C363 1.236 . S
N377 Mn361 2.282 . S
N377 C378 1.328 . S
N377 C382 1.318 . S
C378 N377 1.328 . S
C378 C379 1.457 . S
C378 H383 0.929 . S
C379 C378 1.457 . S
C379 C380 1.291 . S
C379 H392 0.931 . S
C380 C379 1.291 . S
C380 C381 1.373 . S
C380 H393 0.929 . S
C381 C380 1.373 . S
C381 C382 1.396 . S
C381 C388 1.403 . S
C382 C372 1.476 . S
C382 N377 1.318 . S
C382 C381 1.396 . S
H383 C378 0.929 . S
O384 Mn360 2.385 . S
O384 C362 1.234 . S
O385 Mn360 2.209 . S
O385 Mn361 2.215 . S
O385 C362 1.283 . S
O386 Mn360 2.094 . S
O386 C364 1.240 . S
O387 Mn361 2.117 . S
O387 C364 1.264 . S
C388 C381 1.403 . S
C388 C389 1.399 . S
C388 H394 0.929 1_556 S
C389 C369 1.449 . S
C389 C388 1.399 . S
C389 H395 0.930 1_556 S
H390 C370 0.931 . S
H391 C371 0.930 . S
H392 C379 0.931 . S
H393 C380 0.929 . S
H394 C388 0.929 1_554 S
H395 C389 0.930 1_554 S
Mn396 O401 2.095 . S
Mn396 O411 2.162 . S
Mn396 O412 2.297 . S
Mn396 O420 2.385 . S
Mn396 O421 2.209 . S
Mn396 O422 2.094 . S
Mn397 O402 2.121 . S
Mn397 N404 2.257 . S
Mn397 N413 2.282 . S
Mn397 O421 2.215 . S
Mn397 O423 2.117 . S
C398 O420 1.234 . S
C398 O421 1.283 . S
C399 O411 1.281 . S
C399 O412 1.236 . S
C400 O422 1.240 . S
C400 O423 1.264 . S
O401 Mn396 2.095 . S
O401 C410 1.250 . S
O402 Mn397 2.121 . S
O402 C410 1.258 . S
C403 N404 1.326 . S
C403 C407 1.460 . S
C403 H409 0.929 . S
N404 Mn397 2.257 . S
N404 C403 1.326 . S
N404 C408 1.362 . S
C405 C406 1.258 . S
C405 C408 1.431 . S
C405 C425 1.449 . S
C406 C405 1.258 . S
C406 C407 1.477 . S
C406 H426 0.931 . S
C407 C403 1.460 . S
C407 C406 1.477 . S
C407 H427 0.930 . S
C408 N404 1.362 . S
C408 C405 1.431 . S
C408 C418 1.476 . S
H409 C403 0.929 . S
C410 O401 1.250 . S
C410 O402 1.258 . S
O411 Mn396 2.162 . S
O411 C399 1.281 . S
O412 Mn396 2.297 . S
O412 C399 1.236 . S
N413 Mn397 2.282 . S
N413 C414 1.328 . S
N413 C418 1.318 . S
C414 N413 1.328 . S
C414 C415 1.457 . S
C414 H419 0.929 . S
C415 C414 1.457 . S
C415 C416 1.291 . S
C415 H428 0.931 . S
C416 C415 1.291 . S
C416 C417 1.373 . S
C416 H429 0.929 . S
C417 C416 1.373 . S
C417 C418 1.396 . S
C417 C424 1.403 . S
C418 C408 1.476 . S
C418 N413 1.318 . S
C418 C417 1.396 . S
H419 C414 0.929 . S
O420 Mn396 2.385 . S
O420 C398 1.234 . S
O421 Mn396 2.209 . S
O421 Mn397 2.215 . S
O421 C398 1.283 . S
O422 Mn396 2.094 . S
O422 C400 1.240 . S
O423 Mn397 2.117 . S
O423 C400 1.264 . S
C424 C417 1.403 . S
C424 C425 1.399 . S
C424 H430 0.929 1_556 S
C425 C405 1.449 . S
C425 C424 1.399 . S
C425 H431 0.930 1_556 S
H426 C406 0.931 . S
H427 C407 0.930 . S
H428 C415 0.931 . S
H429 C416 0.929 . S
H430 C424 0.929 1_554 S
H431 C425 0.930 1_554 S
Mn432 O437 2.095 . S
Mn432 O447 2.162 . S
Mn432 O448 2.297 . S
Mn432 O456 2.385 . S
Mn432 O457 2.209 . S
Mn432 O458 2.094 . S
Mn433 O438 2.121 . S
Mn433 N440 2.257 . S
Mn433 N449 2.282 . S
Mn433 O457 2.215 . S
Mn433 O459 2.117 . S
C434 O456 1.234 . S
C434 O457 1.283 . S
C435 O447 1.281 . S
C435 O448 1.236 . S
C436 O458 1.240 . S
C436 O459 1.264 . S
O437 Mn432 2.095 . S
O437 C446 1.250 . S
O438 Mn433 2.121 . S
O438 C446 1.258 . S
C439 N440 1.326 . S
C439 C443 1.460 . S
C439 H445 0.929 . S
N440 Mn433 2.257 . S
N440 C439 1.326 . S
N440 C444 1.362 . S
C441 C442 1.258 . S
C441 C444 1.431 . S
C441 C461 1.449 . S
C442 C441 1.258 . S
C442 C443 1.477 . S
C442 H462 0.931 . S
C443 C439 1.460 . S
C443 C442 1.477 . S
C443 H463 0.930 . S
C444 N440 1.362 . S
C444 C441 1.431 . S
C444 C454 1.476 . S
H445 C439 0.929 . S
C446 O437 1.250 . S
C446 O438 1.258 . S
O447 Mn432 2.162 . S
O447 C435 1.281 . S
O448 Mn432 2.297 . S
O448 C435 1.236 . S
N449 Mn433 2.282 . S
N449 C450 1.328 . S
N449 C454 1.318 . S
C450 N449 1.328 . S
C450 C451 1.457 . S
C450 H455 0.929 . S
C451 C450 1.457 . S
C451 C452 1.291 . S
C451 H464 0.931 . S
C452 C451 1.291 . S
C452 C453 1.373 . S
C452 H465 0.929 . S
C453 C452 1.373 . S
C453 C454 1.396 . S
C453 C460 1.403 . S
C454 C444 1.476 . S
C454 N449 1.318 . S
C454 C453 1.396 . S
H455 C450 0.929 . S
O456 Mn432 2.385 . S
O456 C434 1.234 . S
O457 Mn432 2.209 . S
O457 Mn433 2.215 . S
O457 C434 1.283 . S
O458 Mn432 2.094 . S
O458 C436 1.240 . S
O459 Mn433 2.117 . S
O459 C436 1.264 . S
C460 C453 1.403 . S
C460 C461 1.399 . S
C460 H466 0.929 1_554 S
C461 C441 1.449 . S
C461 C460 1.399 . S
C461 H467 0.930 1_554 S
H462 C442 0.931 . S
H463 C443 0.930 . S
H464 C451 0.931 . S
H465 C452 0.929 . S
H466 C460 0.929 1_556 S
H467 C461 0.930 1_556 S
Mn468 O473 2.095 . S
Mn468 O483 2.162 . S
Mn468 O484 2.297 . S
Mn468 O492 2.385 . S
Mn468 O493 2.209 . S
Mn468 O494 2.094 . S
Mn469 O474 2.121 . S
Mn469 N476 2.257 . S
Mn469 N485 2.282 . S
Mn469 O493 2.215 . S
Mn469 O495 2.117 . S
C470 O492 1.234 . S
C470 O493 1.283 . S
C471 O483 1.281 . S
C471 O484 1.236 . S
C472 O494 1.240 . S
C472 O495 1.264 . S
O473 Mn468 2.095 . S
O473 C482 1.250 . S
O474 Mn469 2.121 . S
O474 C482 1.258 . S
C475 N476 1.326 . S
C475 C479 1.460 . S
C475 H481 0.929 . S
N476 Mn469 2.257 . S
N476 C475 1.326 . S
N476 C480 1.362 . S
C477 C478 1.258 . S
C477 C480 1.431 . S
C477 C497 1.449 . S
C478 C477 1.258 . S
C478 C479 1.477 . S
C478 H498 0.931 . S
C479 C475 1.460 . S
C479 C478 1.477 . S
C479 H499 0.930 . S
C480 N476 1.362 . S
C480 C477 1.431 . S
C480 C490 1.476 . S
H481 C475 0.929 . S
C482 O473 1.250 . S
C482 O474 1.258 . S
O483 Mn468 2.162 . S
O483 C471 1.281 . S
O484 Mn468 2.297 . S
O484 C471 1.236 . S
N485 Mn469 2.282 . S
N485 C486 1.328 . S
N485 C490 1.318 . S
C486 N485 1.328 . S
C486 C487 1.457 . S
C486 H491 0.929 . S
C487 C486 1.457 . S
C487 C488 1.291 . S
C487 H500 0.931 . S
C488 C487 1.291 . S
C488 C489 1.373 . S
C488 H501 0.929 . S
C489 C488 1.373 . S
C489 C490 1.396 . S
C489 C496 1.403 . S
C490 C480 1.476 . S
C490 N485 1.318 . S
C490 C489 1.396 . S
H491 C486 0.929 . S
O492 Mn468 2.385 . S
O492 C470 1.234 . S
O493 Mn468 2.209 . S
O493 Mn469 2.215 . S
O493 C470 1.283 . S
O494 Mn468 2.094 . S
O494 C472 1.240 . S
O495 Mn469 2.117 . S
O495 C472 1.264 . S
C496 C489 1.403 . S
C496 C497 1.399 . S
C496 H502 0.929 1_554 S
C497 C477 1.449 . S
C497 C496 1.399 . S
C497 H503 0.930 1_554 S
H498 C478 0.931 . S
H499 C479 0.930 . S
H500 C487 0.931 . S
H501 C488 0.929 . S
H502 C496 0.929 1_556 S
H503 C497 0.930 1_556 S
Mn504 O509 2.095 . S
Mn504 O519 2.162 . S
Mn504 O520 2.297 . S
Mn504 O528 2.385 . S
Mn504 O529 2.209 . S
Mn504 O530 2.094 . S
Mn505 O510 2.121 . S
Mn505 N512 2.257 . S
Mn505 N521 2.282 . S
Mn505 O529 2.215 . S
Mn505 O531 2.117 . S
C506 O528 1.234 . S
C506 O529 1.283 . S
C507 O519 1.281 . S
C507 O520 1.236 . S
C508 O530 1.240 . S
C508 O531 1.264 . S
O509 Mn504 2.095 . S
O509 C518 1.250 . S
O510 Mn505 2.121 . S
O510 C518 1.258 . S
C511 N512 1.326 . S
C511 C515 1.460 . S
C511 H517 0.929 . S
N512 Mn505 2.257 . S
N512 C511 1.326 . S
N512 C516 1.362 . S
C513 C514 1.258 . S
C513 C516 1.431 . S
C513 C533 1.449 . S
C514 C513 1.258 . S
C514 C515 1.477 . S
C514 H534 0.931 . S
C515 C511 1.460 . S
C515 C514 1.477 . S
C515 H535 0.930 . S
C516 N512 1.362 . S
C516 C513 1.431 . S
C516 C526 1.476 . S
H517 C511 0.929 . S
C518 O509 1.250 . S
C518 O510 1.258 . S
O519 Mn504 2.162 . S
O519 C507 1.281 . S
O520 Mn504 2.297 . S
O520 C507 1.236 . S
N521 Mn505 2.282 . S
N521 C522 1.328 . S
N521 C526 1.318 . S
C522 N521 1.328 . S
C522 C523 1.457 . S
C522 H527 0.929 . S
C523 C522 1.457 . S
C523 C524 1.291 . S
C523 H536 0.931 . S
C524 C523 1.291 . S
C524 C525 1.373 . S
C524 H537 0.929 . S
C525 C524 1.373 . S
C525 C526 1.396 . S
C525 C532 1.403 . S
C526 C516 1.476 . S
C526 N521 1.318 . S
C526 C525 1.396 . S
H527 C522 0.929 . S
O528 Mn504 2.385 . S
O528 C506 1.234 . S
O529 Mn504 2.209 . S
O529 Mn505 2.215 . S
O529 C506 1.283 . S
O530 Mn504 2.094 . S
O530 C508 1.240 . S
O531 Mn505 2.117 . S
O531 C508 1.264 . S
C532 C525 1.403 . S
C532 C533 1.399 . S
C532 H538 0.929 1_554 S
C533 C513 1.449 . S
C533 C532 1.399 . S
C533 H539 0.930 1_554 S
H534 C514 0.931 . S
H535 C515 0.930 . S
H536 C523 0.931 . S
H537 C524 0.929 . S
H538 C532 0.929 1_556 S
H539 C533 0.930 1_556 S
Mn540 O545 2.095 . S
Mn540 O555 2.162 . S
Mn540 O556 2.297 . S
Mn540 O564 2.385 . S
Mn540 O565 2.209 . S
Mn540 O566 2.094 . S
Mn541 O546 2.121 . S
Mn541 N548 2.257 . S
Mn541 N557 2.282 . S
Mn541 O565 2.215 . S
Mn541 O567 2.117 . S
C542 O564 1.234 . S
C542 O565 1.283 . S
C543 O555 1.281 . S
C543 O556 1.236 . S
C544 O566 1.240 . S
C544 O567 1.264 . S
O545 Mn540 2.095 . S
O545 C554 1.250 . S
O546 Mn541 2.121 . S
O546 C554 1.258 . S
C547 N548 1.326 . S
C547 C551 1.460 . S
C547 H553 0.929 . S
N548 Mn541 2.257 . S
N548 C547 1.326 . S
N548 C552 1.362 . S
C549 C550 1.258 . S
C549 C552 1.431 . S
C549 C569 1.449 . S
C550 C549 1.258 . S
C550 C551 1.477 . S
C550 H570 0.931 . S
C551 C547 1.460 . S
C551 C550 1.477 . S
C551 H571 0.930 . S
C552 N548 1.362 . S
C552 C549 1.431 . S
C552 C562 1.476 . S
H553 C547 0.929 . S
C554 O545 1.250 . S
C554 O546 1.258 . S
O555 Mn540 2.162 . S
O555 C543 1.281 . S
O556 Mn540 2.297 . S
O556 C543 1.236 . S
N557 Mn541 2.282 . S
N557 C558 1.328 . S
N557 C562 1.318 . S
C558 N557 1.328 . S
C558 C559 1.457 . S
C558 H563 0.929 . S
C559 C558 1.457 . S
C559 C560 1.291 . S
C559 H572 0.931 . S
C560 C559 1.291 . S
C560 C561 1.373 . S
C560 H573 0.929 . S
C561 C560 1.373 . S
C561 C562 1.396 . S
C561 C568 1.403 . S
C562 C552 1.476 . S
C562 N557 1.318 . S
C562 C561 1.396 . S
H563 C558 0.929 . S
O564 Mn540 2.385 . S
O564 C542 1.234 . S
O565 Mn540 2.209 . S
O565 Mn541 2.215 . S
O565 C542 1.283 . S
O566 Mn540 2.094 . S
O566 C544 1.240 . S
O567 Mn541 2.117 . S
O567 C544 1.264 . S
C568 C561 1.403 . S
C568 C569 1.399 . S
C568 H574 0.929 1_554 S
C569 C549 1.449 . S
C569 C568 1.399 . S
C569 H575 0.930 1_554 S
H570 C550 0.931 . S
H571 C551 0.930 . S
H572 C559 0.931 . S
H573 C560 0.929 . S
H574 C568 0.929 1_556 S
H575 C569 0.930 1_556 S
H576 C582 0.930 . S
H577 C586 0.930 . S
H578 C591 0.929 . S
H579 C589 0.929 . S
H580 C584 0.929 . S
H581 C590 0.929 . S
C582 H576 0.930 . S
C582 C583 1.367 . S
C582 C590 1.378 . S
C583 C582 1.367 . S
C583 C591 1.433 . S
C584 H580 0.929 . S
C584 C586 1.378 . S
C584 C588 1.350 . S
C585 C588 1.463 . S
C585 C590 1.350 . S
C585 N593 1.427 . S
C586 H577 0.930 . S
C586 C584 1.378 . S
C586 C587 1.367 . S
C587 C586 1.367 . S
C587 C589 1.433 . S
C588 C584 1.350 . S
C588 C585 1.463 . S
C588 N592 1.427 . S
C589 H579 0.929 . S
C589 C587 1.433 . S
C589 N592 1.384 . S
C590 H581 0.929 . S
C590 C582 1.378 . S
C590 C585 1.350 . S
C591 H578 0.929 . S
C591 C583 1.433 . S
C591 N593 1.384 . S
N592 C588 1.427 . S
N592 C589 1.384 . S
N593 C585 1.427 . S
N593 C591 1.384 . S
H594 C600 0.930 . S
H595 C604 0.930 . S
H596 C609 0.929 . S
H597 C607 0.929 . S
H598 C602 0.929 . S
H599 C608 0.929 . S
C600 H594 0.930 . S
C600 C601 1.367 . S
C600 C608 1.378 . S
C601 C600 1.367 . S
C601 C609 1.433 . S
C602 H598 0.929 . S
C602 C604 1.378 . S
C602 C606 1.350 . S
C603 C606 1.463 . S
C603 C608 1.350 . S
C603 N611 1.427 . S
C604 H595 0.930 . S
C604 C602 1.378 . S
C604 C605 1.367 . S
C605 C604 1.367 . S
C605 C607 1.433 . S
C606 C602 1.350 . S
C606 C603 1.463 . S
C606 N610 1.427 . S
C607 H597 0.929 . S
C607 C605 1.433 . S
C607 N610 1.384 . S
C608 H599 0.929 . S
C608 C600 1.378 . S
C608 C603 1.350 . S
C609 H596 0.929 . S
C609 C601 1.433 . S
C609 N611 1.384 . S
N610 C606 1.427 . S
N610 C607 1.384 . S
N611 C603 1.427 . S
N611 C609 1.384 . S
H612 C618 0.930 . S
H613 C622 0.930 . S
H614 C627 0.929 . S
H615 C625 0.929 . S
H616 C620 0.929 . S
H617 C626 0.929 . S
C618 H612 0.930 . S
C618 C619 1.367 . S
C618 C626 1.378 . S
C619 C618 1.367 . S
C619 C627 1.433 . S
C620 H616 0.929 . S
C620 C622 1.378 . S
C620 C624 1.350 . S
C621 C624 1.463 . S
C621 C626 1.350 . S
C621 N629 1.427 . S
C622 H613 0.930 . S
C622 C620 1.378 . S
C622 C623 1.367 . S
C623 C622 1.367 . S
C623 C625 1.433 . S
C624 C620 1.350 . S
C624 C621 1.463 . S
C624 N628 1.427 . S
C625 H615 0.929 . S
C625 C623 1.433 . S
C625 N628 1.384 . S
C626 H617 0.929 . S
C626 C618 1.378 . S
C626 C621 1.350 . S
C627 H614 0.929 . S
C627 C619 1.433 . S
C627 N629 1.384 . S
N628 C624 1.427 . S
N628 C625 1.384 . S
N629 C621 1.427 . S
N629 C627 1.384 . S
H630 C636 0.930 . S
H631 C640 0.930 . S
H632 C645 0.929 . S
H633 C643 0.929 . S
H634 C638 0.929 . S
H635 C644 0.929 . S
C636 H630 0.930 . S
C636 C637 1.367 . S
C636 C644 1.378 . S
C637 C636 1.367 . S
C637 C645 1.433 . S
C638 H634 0.929 . S
C638 C640 1.378 . S
C638 C642 1.350 . S
C639 C642 1.463 . S
C639 C644 1.350 . S
C639 N647 1.427 . S
C640 H631 0.930 . S
C640 C638 1.378 . S
C640 C641 1.367 . S
C641 C640 1.367 . S
C641 C643 1.433 . S
C642 C638 1.350 . S
C642 C639 1.463 . S
C642 N646 1.427 . S
C643 H633 0.929 . S
C643 C641 1.433 . S
C643 N646 1.384 . S
C644 H635 0.929 . S
C644 C636 1.378 . S
C644 C639 1.350 . S
C645 H632 0.929 . S
C645 C637 1.433 . S
C645 N647 1.384 . S
N646 C642 1.427 . S
N646 C643 1.384 . S
N647 C639 1.427 . S
N647 C645 1.384 . S
H648 C654 0.930 . S
H649 C658 0.930 . S
H650 C663 0.929 . S
H651 C661 0.929 . S
H652 C656 0.929 . S
H653 C662 0.929 . S
C654 H648 0.930 . S
C654 C655 1.367 . S
C654 C662 1.378 . S
C655 C654 1.367 . S
C655 C663 1.433 . S
C656 H652 0.929 . S
C656 C658 1.378 . S
C656 C660 1.350 . S
C657 C660 1.463 . S
C657 C662 1.350 . S
C657 N665 1.427 . S
C658 H649 0.930 . S
C658 C656 1.378 . S
C658 C659 1.367 . S
C659 C658 1.367 . S
C659 C661 1.433 . S
C660 C656 1.350 . S
C660 C657 1.463 . S
C660 N664 1.427 . S
C661 H651 0.929 . S
C661 C659 1.433 . S
C661 N664 1.384 . S
C662 H653 0.929 . S
C662 C654 1.378 . S
C662 C657 1.350 . S
C663 H650 0.929 . S
C663 C655 1.433 . S
C663 N665 1.384 . S
N664 C660 1.427 . S
N664 C661 1.384 . S
N665 C657 1.427 . S
N665 C663 1.384 . S
H666 C672 0.930 . S
H667 C676 0.930 . S
H668 C681 0.929 . S
H669 C679 0.929 . S
H670 C674 0.929 . S
H671 C680 0.929 . S
C672 H666 0.930 . S
C672 C673 1.367 . S
C672 C680 1.378 . S
C673 C672 1.367 . S
C673 C681 1.433 . S
C674 H670 0.929 . S
C674 C676 1.378 . S
C674 C678 1.350 . S
C675 C678 1.463 . S
C675 C680 1.350 . S
C675 N683 1.427 . S
C676 H667 0.930 . S
C676 C674 1.378 . S
C676 C677 1.367 . S
C677 C676 1.367 . S
C677 C679 1.433 . S
C678 C674 1.350 . S
C678 C675 1.463 . S
C678 N682 1.427 . S
C679 H669 0.929 . S
C679 C677 1.433 . S
C679 N682 1.384 . S
C680 H671 0.929 . S
C680 C672 1.378 . S
C680 C675 1.350 . S
C681 H668 0.929 . S
C681 C673 1.433 . S
C681 N683 1.384 . S
N682 C678 1.427 . S
N682 C679 1.384 . S
N683 C675 1.427 . S
N683 C681 1.384 . S
H684 C690 0.930 . S
H685 C694 0.930 . S
H686 C699 0.929 . S
H687 C697 0.929 . S
H688 C692 0.929 . S
H689 C698 0.929 . S
C690 H684 0.930 . S
C690 C691 1.367 . S
C690 C698 1.378 . S
C691 C690 1.367 . S
C691 C699 1.433 . S
C692 H688 0.929 . S
C692 C694 1.378 . S
C692 C696 1.350 . S
C693 C696 1.463 . S
C693 C698 1.350 . S
C693 N701 1.427 . S
C694 H685 0.930 . S
C694 C692 1.378 . S
C694 C695 1.367 . S
C695 C694 1.367 . S
C695 C697 1.433 . S
C696 C692 1.350 . S
C696 C693 1.463 . S
C696 N700 1.427 . S
C697 H687 0.929 . S
C697 C695 1.433 . S
C697 N700 1.384 . S
C698 H689 0.929 . S
C698 C690 1.378 . S
C698 C693 1.350 . S
C699 H686 0.929 . S
C699 C691 1.433 . S
C699 N701 1.384 . S
N700 C696 1.427 . S
N700 C697 1.384 . S
N701 C693 1.427 . S
N701 C699 1.384 . S
H702 C708 0.930 . S
H703 C712 0.930 . S
H704 C717 0.929 . S
H705 C715 0.929 . S
H706 C710 0.929 . S
H707 C716 0.929 . S
C708 H702 0.930 . S
C708 C709 1.367 . S
C708 C716 1.378 . S
C709 C708 1.367 . S
C709 C717 1.433 . S
C710 H706 0.929 . S
C710 C712 1.378 . S
C710 C714 1.350 . S
C711 C714 1.463 . S
C711 C716 1.350 . S
C711 N719 1.427 . S
C712 H703 0.930 . S
C712 C710 1.378 . S
C712 C713 1.367 . S
C713 C712 1.367 . S
C713 C715 1.433 . S
C714 C710 1.350 . S
C714 C711 1.463 . S
C714 N718 1.427 . S
C715 H705 0.929 . S
C715 C713 1.433 . S
C715 N718 1.384 . S
C716 H707 0.929 . S
C716 C708 1.378 . S
C716 C711 1.350 . S
C717 H704 0.929 . S
C717 C709 1.433 . S
C717 N719 1.384 . S
N718 C714 1.427 . S
N718 C715 1.384 . S
N719 C711 1.427 . S
N719 C717 1.384 . S
H720 C726 0.930 . S
H721 C730 0.930 . S
H722 C735 0.929 . S
H723 C733 0.929 . S
H724 C728 0.929 . S
H725 C734 0.929 . S
C726 H720 0.930 . S
C726 C727 1.367 . S
C726 C734 1.378 . S
C727 C726 1.367 . S
C727 C735 1.433 . S
C728 H724 0.929 . S
C728 C730 1.378 . S
C728 C732 1.350 . S
C729 C732 1.463 . S
C729 C734 1.350 . S
C729 N737 1.427 . S
C730 H721 0.930 . S
C730 C728 1.378 . S
C730 C731 1.367 . S
C731 C730 1.367 . S
C731 C733 1.433 . S
C732 C728 1.350 . S
C732 C729 1.463 . S
C732 N736 1.427 . S
C733 H723 0.929 . S
C733 C731 1.433 . S
C733 N736 1.384 . S
C734 H725 0.929 . S
C734 C726 1.378 . S
C734 C729 1.350 . S
C735 H722 0.929 . S
C735 C727 1.433 . S
C735 N737 1.384 . S
N736 C732 1.427 . S
N736 C733 1.384 . S
N737 C729 1.427 . S
N737 C735 1.384 . S
H738 C744 0.930 . S
H739 C748 0.930 . S
H740 C753 0.929 . S
H741 C751 0.929 . S
H742 C746 0.929 . S
H743 C752 0.929 . S
C744 H738 0.930 . S
C744 C745 1.367 . S
C744 C752 1.378 . S
C745 C744 1.367 . S
C745 C753 1.433 . S
C746 H742 0.929 . S
C746 C748 1.378 . S
C746 C750 1.350 . S
C747 C750 1.463 . S
C747 C752 1.350 . S
C747 N755 1.427 . S
C748 H739 0.930 . S
C748 C746 1.378 . S
C748 C749 1.367 . S
C749 C748 1.367 . S
C749 C751 1.433 . S
C750 C746 1.350 . S
C750 C747 1.463 . S
C750 N754 1.427 . S
C751 H741 0.929 . S
C751 C749 1.433 . S
C751 N754 1.384 . S
C752 H743 0.929 . S
C752 C744 1.378 . S
C752 C747 1.350 . S
C753 H740 0.929 . S
C753 C745 1.433 . S
C753 N755 1.384 . S
N754 C750 1.427 . S
N754 C751 1.384 . S
N755 C747 1.427 . S
N755 C753 1.384 . S
H756 C762 0.930 . S
H757 C766 0.930 . S
H758 C771 0.929 . S
H759 C769 0.929 . S
H760 C764 0.929 . S
H761 C770 0.929 . S
C762 H756 0.930 . S
C762 C763 1.367 . S
C762 C770 1.378 . S
C763 C762 1.367 . S
C763 C771 1.433 . S
C764 H760 0.929 . S
C764 C766 1.378 . S
C764 C768 1.350 . S
C765 C768 1.463 . S
C765 C770 1.350 . S
C765 N773 1.427 . S
C766 H757 0.930 . S
C766 C764 1.378 . S
C766 C767 1.367 . S
C767 C766 1.367 . S
C767 C769 1.433 . S
C768 C764 1.350 . S
C768 C765 1.463 . S
C768 N772 1.427 . S
C769 H759 0.929 . S
C769 C767 1.433 . S
C769 N772 1.384 . S
C770 H761 0.929 . S
C770 C762 1.378 . S
C770 C765 1.350 . S
C771 H758 0.929 . S
C771 C763 1.433 . S
C771 N773 1.384 . S
N772 C768 1.427 . S
N772 C769 1.384 . S
N773 C765 1.427 . S
N773 C771 1.384 . S
H774 C780 0.930 . S
H775 C784 0.930 . S
H776 C789 0.929 . S
H777 C787 0.929 . S
H778 C782 0.929 . S
H779 C788 0.929 . S
C780 H774 0.930 . S
C780 C781 1.367 . S
C780 C788 1.378 . S
C781 C780 1.367 . S
C781 C789 1.433 . S
C782 H778 0.929 . S
C782 C784 1.378 . S
C782 C786 1.350 . S
C783 C786 1.463 . S
C783 C788 1.350 . S
C783 N791 1.427 . S
C784 H775 0.930 . S
C784 C782 1.378 . S
C784 C785 1.367 . S
C785 C784 1.367 . S
C785 C787 1.433 . S
C786 C782 1.350 . S
C786 C783 1.463 . S
C786 N790 1.427 . S
C787 H777 0.929 . S
C787 C785 1.433 . S
C787 N790 1.384 . S
C788 H779 0.929 . S
C788 C780 1.378 . S
C788 C783 1.350 . S
C789 H776 0.929 . S
C789 C781 1.433 . S
C789 N791 1.384 . S
N790 C786 1.427 . S
N790 C787 1.384 . S
N791 C783 1.427 . S
N791 C789 1.384 . S
H792 C798 0.930 . S
H793 C802 0.930 . S
H794 C807 0.929 . S
H795 C805 0.929 . S
H796 C800 0.929 . S
H797 C806 0.929 . S
C798 H792 0.930 . S
C798 C799 1.367 . S
C798 C806 1.378 . S
C799 C798 1.367 . S
C799 C807 1.433 . S
C800 H796 0.929 . S
C800 C802 1.378 . S
C800 C804 1.350 . S
C801 C804 1.463 . S
C801 C806 1.350 . S
C801 N809 1.427 . S
C802 H793 0.930 . S
C802 C800 1.378 . S
C802 C803 1.367 . S
C803 C802 1.367 . S
C803 C805 1.433 . S
C804 C800 1.350 . S
C804 C801 1.463 . S
C804 N808 1.427 . S
C805 H795 0.929 . S
C805 C803 1.433 . S
C805 N808 1.384 . S
C806 H797 0.929 . S
C806 C798 1.378 . S
C806 C801 1.350 . S
C807 H794 0.929 . S
C807 C799 1.433 . S
C807 N809 1.384 . S
N808 C804 1.427 . S
N808 C805 1.384 . S
N809 C801 1.427 . S
N809 C807 1.384 . S
H810 C816 0.930 . S
H811 C820 0.930 . S
H812 C825 0.929 . S
H813 C823 0.929 . S
H814 C818 0.929 . S
H815 C824 0.929 . S
C816 H810 0.930 . S
C816 C817 1.367 . S
C816 C824 1.378 . S
C817 C816 1.367 . S
C817 C825 1.433 . S
C818 H814 0.929 . S
C818 C820 1.378 . S
C818 C822 1.350 . S
C819 C822 1.463 . S
C819 C824 1.350 . S
C819 N827 1.427 . S
C820 H811 0.930 . S
C820 C818 1.378 . S
C820 C821 1.367 . S
C821 C820 1.367 . S
C821 C823 1.433 . S
C822 C818 1.350 . S
C822 C819 1.463 . S
C822 N826 1.427 . S
C823 H813 0.929 . S
C823 C821 1.433 . S
C823 N826 1.384 . S
C824 H815 0.929 . S
C824 C816 1.378 . S
C824 C819 1.350 . S
C825 H812 0.929 . S
C825 C817 1.433 . S
C825 N827 1.384 . S
N826 C822 1.427 . S
N826 C823 1.384 . S
N827 C819 1.427 . S
N827 C825 1.384 . S
H828 C834 0.930 . S
H829 C838 0.930 . S
H830 C843 0.929 . S
H831 C841 0.929 . S
H832 C836 0.929 . S
H833 C842 0.929 . S
C834 H828 0.930 . S
C834 C835 1.367 . S
C834 C842 1.378 . S
C835 C834 1.367 . S
C835 C843 1.433 . S
C836 H832 0.929 . S
C836 C838 1.378 . S
C836 C840 1.350 . S
C837 C840 1.463 . S
C837 C842 1.350 . S
C837 N845 1.427 . S
C838 H829 0.930 . S
C838 C836 1.378 . S
C838 C839 1.367 . S
C839 C838 1.367 . S
C839 C841 1.433 . S
C840 C836 1.350 . S
C840 C837 1.463 . S
C840 N844 1.427 . S
C841 H831 0.929 . S
C841 C839 1.433 . S
C841 N844 1.384 . S
C842 H833 0.929 . S
C842 C834 1.378 . S
C842 C837 1.350 . S
C843 H830 0.929 . S
C843 C835 1.433 . S
C843 N845 1.384 . S
N844 C840 1.427 . S
N844 C841 1.384 . S
N845 C837 1.427 . S
N845 C843 1.384 . S
H846 C852 0.930 . S
H847 C856 0.930 . S
H848 C861 0.929 . S
H849 C859 0.929 . S
H850 C854 0.929 . S
H851 C860 0.929 . S
C852 H846 0.930 . S
C852 C853 1.367 . S
C852 C860 1.378 . S
C853 C852 1.367 . S
C853 C861 1.433 . S
C854 H850 0.929 . S
C854 C856 1.378 . S
C854 C858 1.350 . S
C855 C858 1.463 . S
C855 C860 1.350 . S
C855 N863 1.427 . S
C856 H847 0.930 . S
C856 C854 1.378 . S
C856 C857 1.367 . S
C857 C856 1.367 . S
C857 C859 1.433 . S
C858 C854 1.350 . S
C858 C855 1.463 . S
C858 N862 1.427 . S
C859 H849 0.929 . S
C859 C857 1.433 . S
C859 N862 1.384 . S
C860 H851 0.929 . S
C860 C852 1.378 . S
C860 C855 1.350 . S
C861 H848 0.929 . S
C861 C853 1.433 . S
C861 N863 1.384 . S
N862 C858 1.427 . S
N862 C859 1.384 . S
N863 C855 1.427 . S
N863 C861 1.384 . S
H864 C870 0.930 . S
H865 C874 0.930 . S
H866 C879 0.929 . S
H867 C877 0.929 . S
H868 C872 0.929 . S
H869 C878 0.929 . S
C870 H864 0.930 . S
C870 C871 1.367 . S
C870 C878 1.378 . S
C871 C870 1.367 . S
C871 C879 1.433 . S
C872 H868 0.929 . S
C872 C874 1.378 . S
C872 C876 1.350 . S
C873 C876 1.463 . S
C873 C878 1.350 . S
C873 N881 1.427 . S
C874 H865 0.930 . S
C874 C872 1.378 . S
C874 C875 1.367 . S
C875 C874 1.367 . S
C875 C877 1.433 . S
C876 C872 1.350 . S
C876 C873 1.463 . S
C876 N880 1.427 . S
C877 H867 0.929 . S
C877 C875 1.433 . S
C877 N880 1.384 . S
C878 H869 0.929 . S
C878 C870 1.378 . S
C878 C873 1.350 . S
C879 H866 0.929 . S
C879 C871 1.433 . S
C879 N881 1.384 . S
N880 C876 1.427 . S
N880 C877 1.384 . S
N881 C873 1.427 . S
N881 C879 1.384 . S
H882 C888 0.930 . S
H883 C892 0.930 . S
H884 C897 0.929 . S
H885 C895 0.929 . S
H886 C890 0.929 . S
H887 C896 0.929 . S
C888 H882 0.930 . S
C888 C889 1.367 . S
C888 C896 1.378 . S
C889 C888 1.367 . S
C889 C897 1.433 . S
C890 H886 0.929 . S
C890 C892 1.378 . S
C890 C894 1.350 . S
C891 C894 1.463 . S
C891 C896 1.350 . S
C891 N899 1.427 . S
C892 H883 0.930 . S
C892 C890 1.378 . S
C892 C893 1.367 . S
C893 C892 1.367 . S
C893 C895 1.433 . S
C894 C890 1.350 . S
C894 C891 1.463 . S
C894 N898 1.427 . S
C895 H885 0.929 . S
C895 C893 1.433 . S
C895 N898 1.384 . S
C896 H887 0.929 . S
C896 C888 1.378 . S
C896 C891 1.350 . S
C897 H884 0.929 . S
C897 C889 1.433 . S
C897 N899 1.384 . S
N898 C894 1.427 . S
N898 C895 1.384 . S
N899 C891 1.427 . S
N899 C897 1.384 . S
H900 C906 0.930 . S
H901 C910 0.930 . S
H902 C915 0.929 . S
H903 C913 0.929 . S
H904 C908 0.929 . S
H905 C914 0.929 . S
C906 H900 0.930 . S
C906 C907 1.367 . S
C906 C914 1.378 . S
C907 C906 1.367 . S
C907 C915 1.433 . S
C908 H904 0.929 . S
C908 C910 1.378 . S
C908 C912 1.350 . S
C909 C912 1.463 . S
C909 C914 1.350 . S
C909 N917 1.427 . S
C910 H901 0.930 . S
C910 C908 1.378 . S
C910 C911 1.367 . S
C911 C910 1.367 . S
C911 C913 1.433 . S
C912 C908 1.350 . S
C912 C909 1.463 . S
C912 N916 1.427 . S
C913 H903 0.929 . S
C913 C911 1.433 . S
C913 N916 1.384 . S
C914 H905 0.929 . S
C914 C906 1.378 . S
C914 C909 1.350 . S
C915 H902 0.929 . S
C915 C907 1.433 . S
C915 N917 1.384 . S
N916 C912 1.427 . S
N916 C913 1.384 . S
N917 C909 1.427 . S
N917 C915 1.384 . S
H918 C924 0.930 . S
H919 C928 0.930 . S
H920 C933 0.929 . S
H921 C931 0.929 . S
H922 C926 0.929 . S
H923 C932 0.929 . S
C924 H918 0.930 . S
C924 C925 1.367 . S
C924 C932 1.378 . S
C925 C924 1.367 . S
C925 C933 1.433 . S
C926 H922 0.929 . S
C926 C928 1.378 . S
C926 C930 1.350 . S
C927 C930 1.463 . S
C927 C932 1.350 . S
C927 N935 1.427 . S
C928 H919 0.930 . S
C928 C926 1.378 . S
C928 C929 1.367 . S
C929 C928 1.367 . S
C929 C931 1.433 . S
C930 C926 1.350 . S
C930 C927 1.463 . S
C930 N934 1.427 . S
C931 H921 0.929 . S
C931 C929 1.433 . S
C931 N934 1.384 . S
C932 H923 0.929 . S
C932 C924 1.378 . S
C932 C927 1.350 . S
C933 H920 0.929 . S
C933 C925 1.433 . S
C933 N935 1.384 . S
N934 C930 1.427 . S
N934 C931 1.384 . S
N935 C927 1.427 . S
N935 C933 1.384 . S
H936 C942 0.930 . S
H937 C946 0.930 . S
H938 C951 0.929 . S
H939 C949 0.929 . S
H940 C944 0.929 . S
H941 C950 0.929 . S
C942 H936 0.930 . S
C942 C943 1.367 . S
C942 C950 1.378 . S
C943 C942 1.367 . S
C943 C951 1.433 . S
C944 H940 0.929 . S
C944 C946 1.378 . S
C944 C948 1.350 . S
C945 C948 1.463 . S
C945 C950 1.350 . S
C945 N953 1.427 . S
C946 H937 0.930 . S
C946 C944 1.378 . S
C946 C947 1.367 . S
C947 C946 1.367 . S
C947 C949 1.433 . S
C948 C944 1.350 . S
C948 C945 1.463 . S
C948 N952 1.427 . S
C949 H939 0.929 . S
C949 C947 1.433 . S
C949 N952 1.384 . S
C950 H941 0.929 . S
C950 C942 1.378 . S
C950 C945 1.350 . S
C951 H938 0.929 . S
C951 C943 1.433 . S
C951 N953 1.384 . S
N952 C948 1.427 . S
N952 C949 1.384 . S
N953 C945 1.427 . S
N953 C951 1.384 . S
H954 C960 0.930 . S
H955 C964 0.930 . S
H956 C969 0.929 . S
H957 C967 0.929 . S
H958 C962 0.929 . S
H959 C968 0.929 . S
C960 H954 0.930 . S
C960 C961 1.367 . S
C960 C968 1.378 . S
C961 C960 1.367 . S
C961 C969 1.433 . S
C962 H958 0.929 . S
C962 C964 1.378 . S
C962 C966 1.350 . S
C963 C966 1.463 . S
C963 C968 1.350 . S
C963 N971 1.427 . S
C964 H955 0.930 . S
C964 C962 1.378 . S
C964 C965 1.367 . S
C965 C964 1.367 . S
C965 C967 1.433 . S
C966 C962 1.350 . S
C966 C963 1.463 . S
C966 N970 1.427 . S
C967 H957 0.929 . S
C967 C965 1.433 . S
C967 N970 1.384 . S
C968 H959 0.929 . S
C968 C960 1.378 . S
C968 C963 1.350 . S
C969 H956 0.929 . S
C969 C961 1.433 . S
C969 N971 1.384 . S
N970 C966 1.427 . S
N970 C967 1.384 . S
N971 C963 1.427 . S
N971 C969 1.384 . S
H972 C978 0.930 . S
H973 C982 0.930 . S
H974 C987 0.929 . S
H975 C985 0.929 . S
H976 C980 0.929 . S
H977 C986 0.929 . S
C978 H972 0.930 . S
C978 C979 1.367 . S
C978 C986 1.378 . S
C979 C978 1.367 . S
C979 C987 1.433 . S
C980 H976 0.929 . S
C980 C982 1.378 . S
C980 C984 1.350 . S
C981 C984 1.463 . S
C981 C986 1.350 . S
C981 N989 1.427 . S
C982 H973 0.930 . S
C982 C980 1.378 . S
C982 C983 1.367 . S
C983 C982 1.367 . S
C983 C985 1.433 . S
C984 C980 1.350 . S
C984 C981 1.463 . S
C984 N988 1.427 . S
C985 H975 0.929 . S
C985 C983 1.433 . S
C985 N988 1.384 . S
C986 H977 0.929 . S
C986 C978 1.378 . S
C986 C981 1.350 . S
C987 H974 0.929 . S
C987 C979 1.433 . S
C987 N989 1.384 . S
N988 C984 1.427 . S
N988 C985 1.384 . S
N989 C981 1.427 . S
N989 C987 1.384 . S
H990 C996 0.930 . S
H991 C1000 0.930 . S
H992 C1005 0.929 . S
H993 C1003 0.929 . S
H994 C998 0.929 . S
H995 C1004 0.929 . S
C996 H990 0.930 . S
C996 C997 1.367 . S
C996 C1004 1.378 . S
C997 C996 1.367 . S
C997 C1005 1.433 . S
C998 H994 0.929 . S
C998 C1000 1.378 . S
C998 C1002 1.350 . S
C999 C1002 1.463 . S
C999 C1004 1.350 . S
C999 N1007 1.427 . S
C1000 H991 0.930 . S
C1000 C998 1.378 . S
C1000 C1001 1.367 . S
C1001 C1000 1.367 . S
C1001 C1003 1.433 . S
C1002 C998 1.350 . S
C1002 C999 1.463 . S
C1002 N1006 1.427 . S
C1003 H993 0.929 . S
C1003 C1001 1.433 . S
C1003 N1006 1.384 . S
C1004 H995 0.929 . S
C1004 C996 1.378 . S
C1004 C999 1.350 . S
C1005 H992 0.929 . S
C1005 C997 1.433 . S
C1005 N1007 1.384 . S
N1006 C1002 1.427 . S
N1006 C1003 1.384 . S
N1007 C999 1.427 . S
N1007 C1005 1.384 . S
H1008 C1014 0.930 . S
H1009 C1018 0.930 . S
H1010 C1023 0.929 . S
H1011 C1021 0.929 . S
H1012 C1016 0.929 . S
H1013 C1022 0.929 . S
C1014 H1008 0.930 . S
C1014 C1015 1.367 1_655 S
C1014 C1022 1.378 . S
C1015 C1014 1.367 1_455 S
C1015 C1023 1.433 . S
C1016 H1012 0.929 . S
C1016 C1018 1.378 . S
C1016 C1020 1.350 1_455 S
C1017 C1020 1.463 1_455 S
C1017 C1022 1.350 1_455 S
C1017 N1025 1.427 . S
C1018 H1009 0.930 . S
C1018 C1016 1.378 . S
C1018 C1019 1.367 1_455 S
C1019 C1018 1.367 1_655 S
C1019 C1021 1.433 . S
C1020 C1016 1.350 1_655 S
C1020 C1017 1.463 1_655 S
C1020 N1024 1.427 . S
C1021 H1011 0.929 . S
C1021 C1019 1.433 . S
C1021 N1024 1.384 . S
C1022 H1013 0.929 . S
C1022 C1014 1.378 . S
C1022 C1017 1.350 1_655 S
C1023 H1010 0.929 . S
C1023 C1015 1.433 . S
C1023 N1025 1.384 . S
N1024 C1020 1.427 . S
N1024 C1021 1.384 . S
N1025 C1017 1.427 . S
N1025 C1023 1.384 . S
H1026 C1032 0.930 . S
H1027 C1036 0.930 . S
H1028 C1041 0.929 . S
H1029 C1039 0.929 . S
H1030 C1034 0.929 . S
H1031 C1040 0.929 . S
C1032 H1026 0.930 . S
C1032 C1033 1.367 1_545 S
C1032 C1040 1.378 . S
C1033 C1032 1.367 1_565 S
C1033 C1041 1.433 . S
C1034 H1030 0.929 . S
C1034 C1036 1.378 . S
C1034 C1038 1.350 1_565 S
C1035 C1038 1.463 1_565 S
C1035 C1040 1.350 1_565 S
C1035 N1043 1.427 . S
C1036 H1027 0.930 . S
C1036 C1034 1.378 . S
C1036 C1037 1.367 1_565 S
C1037 C1036 1.367 1_545 S
C1037 C1039 1.433 . S
C1038 C1034 1.350 1_545 S
C1038 C1035 1.463 1_545 S
C1038 N1042 1.427 . S
C1039 H1029 0.929 . S
C1039 C1037 1.433 . S
C1039 N1042 1.384 . S
C1040 H1031 0.929 . S
C1040 C1032 1.378 . S
C1040 C1035 1.350 1_545 S
C1041 H1028 0.929 . S
C1041 C1033 1.433 . S
C1041 N1043 1.384 . S
N1042 C1038 1.427 . S
N1042 C1039 1.384 . S
N1043 C1035 1.427 . S
N1043 C1041 1.384 . S
H1044 C1050 0.930 . S
H1045 C1054 0.930 . S
H1046 C1059 0.929 . S
H1047 C1057 0.929 . S
H1048 C1052 0.929 . S
H1049 C1058 0.929 . S
C1050 H1044 0.930 . S
C1050 C1051 1.367 . S
C1050 C1058 1.378 . S
C1051 C1050 1.367 . S
C1051 C1059 1.433 1_455 S
C1052 H1048 0.929 . S
C1052 C1054 1.378 . S
C1052 C1056 1.350 . S
C1053 C1056 1.463 1_455 S
C1053 C1058 1.350 . S
C1053 N1061 1.427 1_455 S
C1054 H1045 0.930 . S
C1054 C1052 1.378 . S
C1054 C1055 1.367 . S
C1055 C1054 1.367 . S
C1055 C1057 1.433 1_655 S
C1056 C1052 1.350 . S
C1056 C1053 1.463 1_655 S
C1056 N1060 1.427 1_655 S
C1057 H1047 0.929 . S
C1057 C1055 1.433 1_455 S
C1057 N1060 1.384 . S
C1058 H1049 0.929 . S
C1058 C1050 1.378 . S
C1058 C1053 1.350 . S
C1059 H1046 0.929 . S
C1059 C1051 1.433 1_655 S
C1059 N1061 1.384 . S
N1060 C1056 1.427 1_455 S
N1060 C1057 1.384 . S
N1061 C1053 1.427 1_655 S
N1061 C1059 1.384 . S
H1062 C1068 0.930 . S
H1063 C1072 0.930 . S
H1064 C1077 0.929 . S
H1065 C1075 0.929 . S
H1066 C1070 0.929 . S
H1067 C1076 0.929 . S
C1068 H1062 0.930 . S
C1068 C1069 1.367 . S
C1068 C1076 1.378 . S
C1069 C1068 1.367 . S
C1069 C1077 1.433 1_545 S
C1070 H1066 0.929 . S
C1070 C1072 1.378 . S
C1070 C1074 1.350 . S
C1071 C1074 1.463 1_545 S
C1071 C1076 1.350 . S
C1071 N1079 1.427 1_545 S
C1072 H1063 0.930 . S
C1072 C1070 1.378 . S
C1072 C1073 1.367 . S
C1073 C1072 1.367 . S
C1073 C1075 1.433 1_565 S
C1074 C1070 1.350 . S
C1074 C1071 1.463 1_565 S
C1074 N1078 1.427 1_565 S
C1075 H1065 0.929 . S
C1075 C1073 1.433 1_545 S
C1075 N1078 1.384 . S
C1076 H1067 0.929 . S
C1076 C1068 1.378 . S
C1076 C1071 1.350 . S
C1077 H1064 0.929 . S
C1077 C1069 1.433 1_565 S
C1077 N1079 1.384 . S
N1078 C1074 1.427 1_545 S
N1078 C1075 1.384 . S
N1079 C1071 1.427 1_565 S
N1079 C1077 1.384 . S
H1080 C1086 0.930 . S
H1081 C1090 0.930 . S
H1082 C1095 0.929 . S
H1083 C1093 0.929 . S
H1084 C1088 0.929 . S
H1085 C1094 0.929 . S
C1086 H1080 0.930 . S
C1086 C1087 1.367 . S
C1086 C1094 1.378 . S
C1087 C1086 1.367 . S
C1087 C1095 1.433 . S
C1088 H1084 0.929 . S
C1088 C1090 1.378 . S
C1088 C1092 1.350 . S
C1089 C1092 1.463 1_556 S
C1089 C1094 1.350 . S
C1089 N1097 1.427 . S
C1090 H1081 0.930 . S
C1090 C1088 1.378 . S
C1090 C1091 1.367 . S
C1091 C1090 1.367 . S
C1091 C1093 1.433 . S
C1092 C1088 1.350 . S
C1092 C1089 1.463 1_554 S
C1092 N1096 1.427 . S
C1093 H1083 0.929 . S
C1093 C1091 1.433 . S
C1093 N1096 1.384 . S
C1094 H1085 0.929 . S
C1094 C1086 1.378 . S
C1094 C1089 1.350 . S
C1095 H1082 0.929 . S
C1095 C1087 1.433 . S
C1095 N1097 1.384 . S
N1096 C1092 1.427 . S
N1096 C1093 1.384 . S
N1097 C1089 1.427 . S
N1097 C1095 1.384 . S
H1098 C1104 0.930 . S
H1099 C1108 0.930 . S
H1100 C1113 0.929 . S
H1101 C1111 0.929 . S
H1102 C1106 0.929 . S
H1103 C1112 0.929 . S
C1104 H1098 0.930 . S
C1104 C1105 1.367 . S
C1104 C1112 1.378 . S
C1105 C1104 1.367 . S
C1105 C1113 1.433 . S
C1106 H1102 0.929 . S
C1106 C1108 1.378 . S
C1106 C1110 1.350 . S
C1107 C1110 1.463 1_556 S
C1107 C1112 1.350 . S
C1107 N1115 1.427 . S
C1108 H1099 0.930 . S
C1108 C1106 1.378 . S
C1108 C1109 1.367 . S
C1109 C1108 1.367 . S
C1109 C1111 1.433 . S
C1110 C1106 1.350 . S
C1110 C1107 1.463 1_554 S
C1110 N1114 1.427 . S
C1111 H1101 0.929 . S
C1111 C1109 1.433 . S
C1111 N1114 1.384 . S
C1112 H1103 0.929 . S
C1112 C1104 1.378 . S
C1112 C1107 1.350 . S
C1113 H1100 0.929 . S
C1113 C1105 1.433 . S
C1113 N1115 1.384 . S
N1114 C1110 1.427 . S
N1114 C1111 1.384 . S
N1115 C1107 1.427 . S
N1115 C1113 1.384 . S
H1116 C1122 0.930 . S
H1117 C1126 0.930 . S
H1118 C1131 0.929 . S
H1119 C1129 0.929 . S
H1120 C1124 0.929 . S
H1121 C1130 0.929 . S
C1122 H1116 0.930 . S
C1122 C1123 1.367 . S
C1122 C1130 1.378 . S
C1123 C1122 1.367 . S
C1123 C1131 1.433 . S
C1124 H1120 0.929 . S
C1124 C1126 1.378 . S
C1124 C1128 1.350 . S
C1125 C1128 1.463 1_554 S
C1125 C1130 1.350 . S
C1125 N1133 1.427 . S
C1126 H1117 0.930 . S
C1126 C1124 1.378 . S
C1126 C1127 1.367 . S
C1127 C1126 1.367 . S
C1127 C1129 1.433 . S
C1128 C1124 1.350 . S
C1128 C1125 1.463 1_556 S
C1128 N1132 1.427 . S
C1129 H1119 0.929 . S
C1129 C1127 1.433 . S
C1129 N1132 1.384 . S
C1130 H1121 0.929 . S
C1130 C1122 1.378 . S
C1130 C1125 1.350 . S
C1131 H1118 0.929 . S
C1131 C1123 1.433 . S
C1131 N1133 1.384 . S
N1132 C1128 1.427 . S
N1132 C1129 1.384 . S
N1133 C1125 1.427 . S
N1133 C1131 1.384 . S
H1134 C1140 0.930 . S
H1135 C1144 0.930 . S
H1136 C1149 0.929 . S
H1137 C1147 0.929 . S
H1138 C1142 0.929 . S
H1139 C1148 0.929 . S
C1140 H1134 0.930 . S
C1140 C1141 1.367 . S
C1140 C1148 1.378 . S
C1141 C1140 1.367 . S
C1141 C1149 1.433 . S
C1142 H1138 0.929 . S
C1142 C1144 1.378 . S
C1142 C1146 1.350 . S
C1143 C1146 1.463 1_556 S
C1143 C1148 1.350 . S
C1143 N1151 1.427 . S
C1144 H1135 0.930 . S
C1144 C1142 1.378 . S
C1144 C1145 1.367 . S
C1145 C1144 1.367 . S
C1145 C1147 1.433 . S
C1146 C1142 1.350 . S
C1146 C1143 1.463 1_554 S
C1146 N1150 1.427 . S
C1147 H1137 0.929 . S
C1147 C1145 1.433 . S
C1147 N1150 1.384 . S
C1148 H1139 0.929 . S
C1148 C1140 1.378 . S
C1148 C1143 1.350 . S
C1149 H1136 0.929 . S
C1149 C1141 1.433 . S
C1149 N1151 1.384 . S
N1150 C1146 1.427 . S
N1150 C1147 1.384 . S
N1151 C1143 1.427 . S
N1151 C1149 1.384 . S
C583 C14 1.405 . S
C587 C111 1.441 . S
C601 C3 1.433 . S
C605 C50 1.394 . S
C619 C39 1.431 . S
C623 C86 1.410 . S
C637 C75 1.434 . S
C641 C122 1.411 . S
C655 C158 1.405 . S
C659 C183 1.440 . S
C673 C194 1.400 . S
C677 C219 1.440 . S
C691 C230 1.394 . S
C695 C255 1.434 . S
C709 C266 1.404 . S
C713 C147 1.441 . S
C727 C302 1.403 . S
C731 C399 1.440 . S
C745 C291 1.438 . S
C749 C338 1.397 . S
C763 C327 1.437 . S
C767 C374 1.411 . S
C781 C410 1.395 . S
C785 C363 1.432 . S
C799 C471 1.438 . S
C803 C446 1.397 . S
C817 C507 1.435 . S
C821 C482 1.411 . S
C835 C518 1.402 . S
C839 C543 1.440 . S
C853 C554 1.395 . S
C857 C435 1.431 . S
C871 C4 1.166 . S
C875 C544 1.176 . S
C889 C40 1.162 . S
C893 C436 1.164 . S
C907 C472 1.172 . S
C911 C76 1.181 . S
C925 C112 1.168 . S
C929 C508 1.178 . S
C943 C328 1.163 . S
C947 C148 1.162 . S
C961 C364 1.182 . S
C965 C184 1.180 . S
C979 C220 1.182 . S
C983 C400 1.175 . S
C997 C256 1.161 . S
C1001 C292 1.164 . S
C1015 C2 1.603 . S
C1019 C218 1.601 . S
C1033 C254 1.601 . S
C1037 C38 1.602 . S
C1051 C146 1.601 . S
C1055 C74 1.603 . S
C1069 C182 1.603 . S
C1073 C110 1.603 . S
C1087 C290 1.603 . S
C1091 C506 1.601 . S
C1105 C326 1.603 . S
C1109 C542 1.602 . S
C1123 C434 1.603 . S
C1127 C362 1.602 . S
C1141 C398 1.601 . S
C1145 C470 1.602 . S
