# Generated by pormake.
# Topology umf, (4)-cn, num edge types: 1
# Building blocks:
#     Node 0, Type 0, BuildingBlock: GALJAG_clean_sbu_0, # of connection points: 4
#     Node 1, Type 0, BuildingBlock: GALJAG_clean_sbu_0, # of connection points: 4
#     Node 2, Type 0, BuildingBlock: GALJAG_clean_sbu_0, # of connection points: 4
#     Node 3, Type 0, BuildingBlock: GALJAG_clean_sbu_0, # of connection points: 4
#     Node 4, Type 0, BuildingBlock: GALJAG_clean_sbu_0, # of connection points: 4
#     Node 5, Type 0, BuildingBlock: GALJAG_clean_sbu_0, # of connection points: 4
#     Node 6, Type 0, BuildingBlock: GALJAG_clean_sbu_0, # of connection points: 4
#     Node 7, Type 0, BuildingBlock: GALJAG_clean_sbu_0, # of connection points: 4
#     Edge 8, Type (0, 0), BuildingBlock: AJUNOK_clean_linker_0, # of connection points: 2
#     Edge 9, Type (0, 0), BuildingBlock: AJUNOK_clean_linker_0, # of connection points: 2
#     Edge 10, Type (0, 0), BuildingBlock: AJUNOK_clean_linker_0, # of connection points: 2
#     Edge 11, Type (0, 0), BuildingBlock: AJUNOK_clean_linker_0, # of connection points: 2
#     Edge 12, Type (0, 0), BuildingBlock: AJUNOK_clean_linker_0, # of connection points: 2
#     Edge 13, Type (0, 0), BuildingBlock: AJUNOK_clean_linker_0, # of connection points: 2
#     Edge 14, Type (0, 0), BuildingBlock: AJUNOK_clean_linker_0, # of connection points: 2
#     Edge 15, Type (0, 0), BuildingBlock: AJUNOK_clean_linker_0, # of connection points: 2
#     Edge 16, Type (0, 0), BuildingBlock: AJUNOK_clean_linker_0, # of connection points: 2
#     Edge 17, Type (0, 0), BuildingBlock: AJUNOK_clean_linker_0, # of connection points: 2
#     Edge 18, Type (0, 0), BuildingBlock: AJUNOK_clean_linker_0, # of connection points: 2
#     Edge 19, Type (0, 0), BuildingBlock: AJUNOK_clean_linker_0, # of connection points: 2
#     Edge 20, Type (0, 0), BuildingBlock: AJUNOK_clean_linker_0, # of connection points: 2
#     Edge 21, Type (0, 0), BuildingBlock: AJUNOK_clean_linker_0, # of connection points: 2
#     Edge 22, Type (0, 0), BuildingBlock: AJUNOK_clean_linker_0, # of connection points: 2
#     Edge 23, Type (0, 0), BuildingBlock: AJUNOK_clean_linker_0, # of connection points: 2
# Relax obj value: 0.108
# Max RMSD: 0.235
# Mean RMSD: 0.235
data_MOF--net-umf--node1-GALJAG_clean_sbu_0--edge1-AJUNOK_clean_linker_0
_symmetry_space_group_name_H-M    P1
_symmetry_Int_Tables_number       1
_symmetry_cell_setting            triclinic
loop_
_symmetry_equiv_pos_as_xyz
'x, y, z'
_cell_length_a     21.472495
_cell_length_b     21.424909
_cell_length_c     38.867084
_cell_angle_alpha  90.016274
_cell_angle_beta   90.039118
_cell_angle_gamma 89.907569
loop_
_atom_site_label
_atom_site_type_symbol
_atom_site_fract_x
_atom_site_fract_y
_atom_site_fract_z
_atom_type_partial_charge
In0 In 0.0437 0.2325 0.15203 0.0
O1 O 0.07138 0.23334 0.09518 0.0
O2 O 0.97498 0.22695 0.10877 0.0
C3 C 0.12879 0.23261 0.20171 0.0
C4 C 0.01185 0.35101 0.16047 0.0
C5 C 0.01627 0.11379 0.16487 0.0
O6 O 0.14436 0.22642 0.17027 0.0
O7 O 0.07124 0.24085 0.20719 0.0
O8 O 0.97837 0.15746 0.17232 0.0
O9 O 0.06649 0.13066 0.1507 0.0
C10 C 0.01508 0.22955 0.08504 0.0
O11 O 0.97612 0.30688 0.16983 0.0
O12 O 0.06324 0.33462 0.14722 0.0
In13 In 0.73642 0.05109 0.65115 0.0
O14 O 0.73608 0.08193 0.59491 0.0
O15 O 0.73852 0.98427 0.6066 0.0
C16 C 0.73644 0.13463 0.70171 0.0
C17 C 0.61736 0.02335 0.66041 0.0
C18 C 0.85494 0.02127 0.66363 0.0
O19 O 0.74274 0.15134 0.67046 0.0
O20 O 0.7289 0.07671 0.70659 0.0
O21 O 0.81074 0.98445 0.67149 0.0
O22 O 0.83854 0.0717 0.6493 0.0
C23 C 0.73745 0.02613 0.58367 0.0
O24 O 0.66024 0.98482 0.66827 0.0
O25 O 0.63526 0.07457 0.64754 0.0
In26 In 0.92357 0.73367 0.1508 0.0
O27 O 0.89099 0.73597 0.09479 0.0
O28 O -0.01124 0.73597 0.10568 0.0
C29 C 0.84149 0.73377 0.20205 0.0
C30 C 0.95098 0.61392 0.15891 0.0
C31 C 0.95666 0.85115 0.16357 0.0
O32 O 0.8241 0.74154 0.171 0.0
O33 O 0.8993 0.72525 0.20641 0.0
O34 O -0.007 0.80584 0.17033 0.0
O35 O 0.90487 0.83635 0.15038 0.0
C36 C 0.94635 0.73678 0.0831 0.0
O37 O -0.01066 0.6565 0.16728 0.0
O38 O 0.8999 0.63246 0.14616 0.0
In39 In 0.23596 0.93458 0.65383 0.0
O40 O 0.31092 0.00117 0.67207 0.0
O41 O 0.33778 0.91395 0.64906 0.0
C42 C 0.11792 0.96462 0.66684 0.0
C43 C 0.23317 0.96084 0.58646 0.0
C44 C 0.23545 0.84851 0.70313 0.0
O45 O 0.16193 0.00257 0.67324 0.0
O46 O 0.13405 0.91313 0.65367 0.0
O47 O 0.22945 0.83353 0.67159 0.0
O48 O 0.24365 0.90607 0.70895 0.0
C49 C 0.35467 0.96494 0.66263 0.0
O50 O 0.23565 0.9048 0.59725 0.0
O51 O 0.23178 0.002 0.60974 0.0
In52 In 0.04451 0.7357 0.87103 0.0
O53 O 0.07156 0.73679 0.92796 0.0
O54 O 0.97507 0.73989 0.91398 0.0
C55 C 0.12782 0.73619 0.82057 0.0
C56 C 0.01883 0.61582 0.86295 0.0
C57 C 0.01513 0.85372 0.85775 0.0
O58 O 0.14439 0.74344 0.85182 0.0
O59 O 0.07017 0.72749 0.81566 0.0
O60 O 0.97749 0.8096 0.85087 0.0
O61 O 0.06595 0.83763 0.87168 0.0
C62 C 0.01505 0.73909 0.93788 0.0
O63 O 0.98066 0.65802 0.85355 0.0
O64 O 0.06898 0.63484 0.87655 0.0
In65 In 0.23189 0.04081 0.37208 0.0
O66 O 0.23303 0.07658 0.42754 0.0
O67 O 0.22868 0.97821 0.41837 0.0
C68 C 0.23339 0.12308 0.32073 0.0
C69 C 0.35004 0.00746 0.36374 0.0
C70 C 0.11369 0.0089 0.36029 0.0
O71 O 0.22619 0.14064 0.35177 0.0
O72 O 0.24048 0.06498 0.3164 0.0
O73 O 0.15834 0.97191 0.35342 0.0
O74 O 0.12945 0.06085 0.37302 0.0
C75 C 0.23069 0.02188 0.44021 0.0
O76 O 0.30568 0.97085 0.35592 0.0
O77 O 0.33405 0.06014 0.37561 0.0
In78 In 0.92551 0.23477 0.87188 0.0
O79 O 0.89246 0.23405 0.9278 0.0
O80 O -0.00981 0.23008 0.91722 0.0
C81 C 0.8416 0.23871 0.82151 0.0
C82 C 0.9589 0.35297 0.86401 0.0
C83 C 0.95611 0.11656 0.85843 0.0
O84 O 0.82517 0.23014 0.85262 0.0
O85 O 0.89938 0.24597 0.81667 0.0
O86 O -0.00708 0.16125 0.85153 0.0
O87 O 0.90498 0.1323 0.87204 0.0
C88 C 0.94764 0.23125 0.93966 0.0
O89 O -0.00507 0.30844 0.85546 0.0
O90 O 0.90678 0.33713 0.87645 0.0
In91 In 0.73249 0.92257 0.37231 0.0
O92 O 0.73325 0.89683 0.42941 0.0
O93 O 0.7354 -0.00677 0.41474 0.0
C94 C 0.73434 0.83932 0.32174 0.0
C95 C 0.61277 0.94785 0.36369 0.0
C96 C 0.85096 0.95053 0.36018 0.0
O97 O 0.73995 0.82254 0.35306 0.0
O98 O 0.72605 0.8972 0.31679 0.0
O99 O 0.8074 -0.0115 0.35256 0.0
O100 O 0.83406 0.90003 0.37422 0.0
C101 C 0.73491 0.95374 0.43891 0.0
O102 O 0.65477 -0.01387 0.35436 0.0
O103 O 0.63189 0.89777 0.3775 0.0
C104 C 0.04195 0.46298 0.16319 0.0
C105 C -0.0052 0.41743 0.16343 0.0
C106 C 0.02741 0.52668 0.16307 0.0
C107 C 0.96521 0.54693 0.1625 0.0
H108 H 0.09055 0.44935 0.16264 0.0
H109 H 0.06514 0.56015 0.16221 0.0
S110 S 0.82458 0.44644 0.16473 0.0
N111 N 0.88354 0.39688 0.16478 0.0
N112 N 0.85601 0.51671 0.16392 0.0
C113 C 0.91759 0.50192 0.16366 0.0
C114 C 0.93245 0.43707 0.16433 0.0
C115 C 0.4663 0.93336 0.66378 0.0
C116 C 0.4212 0.98102 0.66576 0.0
C117 C 0.52999 0.94723 0.66355 0.0
C118 C 0.55067 0.00929 0.66462 0.0
H119 H 0.45232 0.88492 0.66186 0.0
H120 H 0.56307 0.90923 0.6612 0.0
S121 S 0.45179 0.15087 0.67232 0.0
N122 N 0.40179 0.09245 0.67091 0.0
N123 N 0.52157 0.1187 0.66983 0.0
C124 C 0.50621 0.05729 0.66771 0.0
C125 C 0.44139 0.0431 0.66848 0.0
C126 C 0.92863 0.46476 0.85971 0.0
C127 C 0.97593 0.41924 0.86055 0.0
C128 C 0.94293 0.52843 0.85906 0.0
C129 C 0.00503 0.54873 0.85989 0.0
H130 H 0.88006 0.45115 0.85998 0.0
H131 H 0.90506 0.5619 0.85914 0.0
S132 S 0.14605 0.4483 0.86021 0.0
N133 N 0.08729 0.39869 0.86037 0.0
N134 N 0.11436 0.51857 0.8598 0.0
C135 C 0.05284 0.50373 0.85977 0.0
C136 C 0.03824 0.43885 0.85989 0.0
C137 C 0.46153 0.03788 0.3595 0.0
C138 C 0.4163 -0.00958 0.36037 0.0
C139 C 0.52515 0.02366 0.35914 0.0
C140 C 0.54575 0.96149 0.3603 0.0
H141 H 0.44772 0.08655 0.35956 0.0
H142 H 0.55834 0.0617 0.35923 0.0
S143 S 0.44624 0.81997 0.36066 0.0
N144 N 0.39642 0.87876 0.36045 0.0
N145 N 0.51619 0.85187 0.36043 0.0
C146 C 0.50107 0.9135 0.36016 0.0
C147 C 0.43623 0.928 0.35998 0.0
C148 C 0.02566 0.2325 0.98746 0.0
C149 C 0.96284 0.2301 0.97691 0.0
C150 C 0.04219 0.23206 0.02236 0.0
C151 C -0.00339 0.22903 0.0482 0.0
H152 H 0.06267 0.23508 0.96859 0.0
H153 H 0.0911 0.2343 0.02908 0.0
S154 S 0.82537 0.22071 0.03437 0.0
N155 N 0.85489 0.22382 0.99521 0.0
N156 N 0.88557 0.22279 0.06078 0.0
C157 C 0.93353 0.22616 0.03804 0.0
C158 C 0.91675 0.22678 1.00244 0.0
C159 C 0.73671 0.94629 0.53665 0.0
C160 C 0.73728 0.00963 0.54655 0.0
C161 C 0.73602 0.9286 0.50191 0.0
C162 C 0.73596 0.97348 0.47557 0.0
H163 H 0.73662 0.90976 0.55591 0.0
H164 H 0.73547 0.8793 0.49571 0.0
S165 S 0.73778 0.14573 0.4876 0.0
N166 N 0.73804 0.11737 0.52707 0.0
N167 N 0.73685 0.0845 0.46183 0.0
C168 C 0.73674 0.03709 0.48508 0.0
C169 C 0.73737 0.05506 0.52051 0.0
C170 C 0.02472 0.7347 0.03551 0.0
C171 C 0.96187 0.73817 0.04588 0.0
C172 C 0.04156 0.73543 1.00066 0.0
C173 C -0.00374 0.73975 0.97467 0.0
H174 H 0.06153 0.73105 0.05448 0.0
H175 H 0.09048 0.73226 0.99409 0.0
S176 S 0.82512 0.75164 0.98801 0.0
N177 N 0.85422 0.74715 0.02724 0.0
N178 N 0.88548 0.74869 0.96178 0.0
C179 C 0.93317 0.74379 0.98465 0.0
C180 C 0.91607 0.74294 0.0202 0.0
C181 C 0.22991 0.94591 0.48905 0.0
C182 C 0.23091 0.00841 0.47768 0.0
C183 C 0.23065 0.93092 0.52416 0.0
C184 C 0.23226 0.9778 0.54941 0.0
H185 H 0.22871 0.90791 0.47067 0.0
H186 H 0.2299 0.88216 0.53151 0.0
S187 S 0.23543 0.14892 0.53337 0.0
N188 N 0.23364 0.11754 0.49459 0.0
N189 N 0.23491 0.08974 0.56055 0.0
C190 C 0.23316 0.04061 0.53843 0.0
C191 C 0.23252 0.05582 0.50262 0.0
C192 C 0.15456 0.24077 0.26389 0.0
C193 C 0.17104 0.21956 0.23081 0.0
C194 C 0.18056 0.21394 0.29348 0.0
C195 C 0.22315 0.16439 0.29087 0.0
H196 H 0.11782 0.27504 0.26701 0.0
H197 H 0.16276 0.2281 0.31837 0.0
S198 S 0.29045 0.10014 0.21039 0.0
N199 N 0.23973 0.15302 0.19723 0.0
N200 N 0.28812 0.10196 0.25285 0.0
C201 C 0.24496 0.14748 0.25802 0.0
C202 C 0.21905 0.17535 0.2279 0.0
C203 C 0.75291 0.18348 0.79409 0.0
C204 C 0.79974 0.22891 0.79194 0.0
C205 C 0.72744 0.15732 0.76421 0.0
C206 C 0.74742 0.17636 0.73132 0.0
H207 H 0.74031 0.16361 0.81875 0.0
H208 H 0.69551 0.11851 0.76691 0.0
S209 S 0.85816 0.30425 0.71238 0.0
N210 N 0.8572 0.29961 0.7548 0.0
N211 N 0.80863 0.25091 0.69858 0.0
C212 C 0.78824 0.22726 0.72899 0.0
C213 C 0.81471 0.25341 0.7594 0.0
C214 C 0.72673 0.81575 0.25923 0.0
C215 C 0.7471 0.79777 0.29225 0.0
C216 C 0.75273 0.78941 0.22951 0.0
C217 C 0.8006 0.74493 0.23193 0.0
H218 H 0.6937 0.85367 0.25628 0.0
H219 H 0.73932 0.80821 0.20471 0.0
S220 S 0.86201 0.67365 0.31206 0.0
N221 N 0.81098 0.726 0.32548 0.0
N222 N 0.8605 0.67697 0.26962 0.0
C223 C 0.81664 0.72191 0.26467 0.0
C224 C 0.78962 0.74819 0.29491 0.0
C225 C 0.24244 0.82196 0.76529 0.0
C226 C 0.22286 0.80539 0.73192 0.0
C227 C 0.21638 0.79385 0.79446 0.0
C228 C 0.16925 0.74892 0.79113 0.0
H229 H 0.2748 0.86014 0.769 0.0
H230 H 0.22904 0.81167 0.8196 0.0
S231 S 0.11014 0.68093 0.70965 0.0
N232 N 0.16059 0.73451 0.6973 0.0
N233 N 0.11096 0.68216 0.75213 0.0
C234 C 0.15409 0.72732 0.75798 0.0
C235 C 0.18116 0.75542 0.72829 0.0
C236 C 0.93988 0.02672 0.16877 0.0
C237 C 0.00188 0.04713 0.16983 0.0
C238 C 0.92581 0.96295 0.16804 0.0
C239 C 0.97319 0.91737 0.16888 0.0
H240 H 0.9021 0.06011 0.16678 0.0
H241 H 0.8774 0.94934 0.16586 0.0
S242 S 0.14271 0.94715 0.17645 0.0
N243 N 0.11088 0.01731 0.17496 0.0
N244 N 0.08428 0.89728 0.1741 0.0
C245 C 0.03518 0.93724 0.17221 0.0
C246 C 0.04956 0.00222 0.1725 0.0
C247 C 0.0303 0.04089 0.66561 0.0
C248 C 0.0516 0.97998 0.67167 0.0
C249 C 0.9664 0.05398 0.6642 0.0
C250 C 0.92161 0.00679 0.66928 0.0
H251 H 0.06306 0.078 0.66015 0.0
H252 H 0.9521 0.10122 0.65813 0.0
S253 S 0.95442 0.84145 0.69115 0.0
N254 N 0.02384 0.87328 0.68624 0.0
N255 N 0.90361 0.89805 0.68421 0.0
C256 C 0.94256 0.94653 0.67766 0.0
C257 C 0.00764 0.93307 0.67865 0.0
C258 C 0.92447 0.00477 0.85587 0.0
C259 C 0.97176 0.05005 0.85306 0.0
C260 C 0.93833 0.94087 0.85526 0.0
C261 C 8e-05 0.92012 0.85235 0.0
H262 H 0.87642 0.01871 0.85958 0.0
H263 H 0.90085 0.90772 0.85888 0.0
S264 S 0.13998 0.01895 0.83981 0.0
N265 N 0.08206 0.06925 0.84373 0.0
N266 N 0.10826 0.94905 0.84313 0.0
C267 C 0.0474 0.96463 0.84759 0.0
C268 C 0.0332 0.02969 0.84776 0.0
C269 C 0.93829 0.0268 0.35684 0.0
C270 C 0.91753 0.96483 0.35525 0.0
C271 C 0.00204 0.04054 0.35728 0.0
C272 C 0.04726 -0.00714 0.3556 0.0
H273 H 0.9052 0.06476 0.3594 0.0
H274 H 0.01593 0.08891 0.35983 0.0
S275 S 0.01633 0.8234 0.34653 0.0
N276 N 0.94655 0.85564 0.34885 0.0
N277 N 0.06648 0.88159 0.34914 0.0
C278 C 0.02696 0.93095 0.35185 0.0
C279 C 0.96202 0.91691 0.35186 0.0
loop_
_geom_bond_atom_site_label_1
_geom_bond_atom_site_label_2
_geom_bond_distance
_geom_bond_site_symmetry_2
_ccdc_geom_bond_type
In0 O1 2.294 . S
In0 O2 2.326 . S
In0 O6 2.266 . S
In0 O7 2.326 . S
In0 O8 2.266 1_455 S
In0 O9 2.326 . S
In0 O11 2.294 1_455 S
In0 O12 2.326 . S
O1 In0 2.294 . S
O1 C10 1.240 . S
O2 In0 2.326 . S
O2 C10 1.252 . S
C3 O6 1.252 . S
C3 O7 1.260 . S
C4 O11 1.240 1_455 S
C4 O12 1.252 . S
C5 O8 1.252 1_455 S
C5 O9 1.260 . S
O6 In0 2.266 . S
O6 C3 1.252 . S
O7 In0 2.326 . S
O7 C3 1.260 . S
O8 In0 2.266 1_655 S
O8 C5 1.252 1_655 S
O9 In0 2.326 . S
O9 C5 1.260 . S
C10 O1 1.240 . S
C10 O2 1.252 . S
O11 In0 2.294 1_655 S
O11 C4 1.240 1_655 S
O12 In0 2.326 . S
O12 C4 1.252 . S
In13 O14 2.294 . S
In13 O15 2.326 . S
In13 O19 2.266 . S
In13 O20 2.326 . S
In13 O21 2.266 1_545 S
In13 O22 2.326 . S
In13 O24 2.294 1_545 S
In13 O25 2.326 . S
O14 In13 2.294 . S
O14 C23 1.240 . S
O15 In13 2.326 . S
O15 C23 1.252 . S
C16 O19 1.252 . S
C16 O20 1.260 . S
C17 O24 1.240 1_545 S
C17 O25 1.252 . S
C18 O21 1.252 1_545 S
C18 O22 1.260 . S
O19 In13 2.266 . S
O19 C16 1.252 . S
O20 In13 2.326 . S
O20 C16 1.260 . S
O21 In13 2.266 1_565 S
O21 C18 1.252 1_565 S
O22 In13 2.326 . S
O22 C18 1.260 . S
C23 O14 1.240 . S
C23 O15 1.252 . S
O24 In13 2.294 1_565 S
O24 C17 1.240 1_565 S
O25 In13 2.326 . S
O25 C17 1.252 . S
In26 O27 2.294 . S
In26 O28 2.326 . S
In26 O32 2.266 . S
In26 O33 2.326 . S
In26 O34 2.266 1_655 S
In26 O35 2.326 . S
In26 O37 2.294 1_655 S
In26 O38 2.326 . S
O27 In26 2.294 . S
O27 C36 1.240 . S
O28 In26 2.326 . S
O28 C36 1.252 . S
C29 O32 1.252 . S
C29 O33 1.260 . S
C30 O37 1.240 1_655 S
C30 O38 1.252 . S
C31 O34 1.252 1_655 S
C31 O35 1.260 . S
O32 In26 2.266 . S
O32 C29 1.252 . S
O33 In26 2.326 . S
O33 C29 1.260 . S
O34 In26 2.266 1_455 S
O34 C31 1.252 1_455 S
O35 In26 2.326 . S
O35 C31 1.260 . S
C36 O27 1.240 . S
C36 O28 1.252 . S
O37 In26 2.294 1_455 S
O37 C30 1.240 1_455 S
O38 In26 2.326 . S
O38 C30 1.252 . S
In39 O40 2.294 1_565 S
In39 O41 2.326 . S
In39 O45 2.266 1_565 S
In39 O46 2.326 . S
In39 O47 2.266 . S
In39 O48 2.326 . S
In39 O50 2.294 . S
In39 O51 2.326 . S
O40 In39 2.294 1_545 S
O40 C49 1.240 1_545 S
O41 In39 2.326 . S
O41 C49 1.252 . S
C42 O45 1.252 1_565 S
C42 O46 1.260 . S
C43 O50 1.240 . S
C43 O51 1.252 . S
C44 O47 1.252 . S
C44 O48 1.260 . S
O45 In39 2.266 1_545 S
O45 C42 1.252 1_545 S
O46 In39 2.326 . S
O46 C42 1.260 . S
O47 In39 2.266 . S
O47 C44 1.252 . S
O48 In39 2.326 . S
O48 C44 1.260 . S
C49 O40 1.240 1_565 S
C49 O41 1.252 . S
O50 In39 2.294 . S
O50 C43 1.240 . S
O51 In39 2.326 . S
O51 C43 1.252 . S
In52 O53 2.294 . S
In52 O54 2.326 . S
In52 O58 2.266 . S
In52 O59 2.326 . S
In52 O60 2.266 1_455 S
In52 O61 2.326 . S
In52 O63 2.294 1_455 S
In52 O64 2.326 . S
O53 In52 2.294 . S
O53 C62 1.240 . S
O54 In52 2.326 . S
O54 C62 1.252 . S
C55 O58 1.252 . S
C55 O59 1.260 . S
C56 O63 1.240 1_455 S
C56 O64 1.252 . S
C57 O60 1.252 1_455 S
C57 O61 1.260 . S
O58 In52 2.266 . S
O58 C55 1.252 . S
O59 In52 2.326 . S
O59 C55 1.260 . S
O60 In52 2.266 1_655 S
O60 C57 1.252 1_655 S
O61 In52 2.326 . S
O61 C57 1.260 . S
C62 O53 1.240 . S
C62 O54 1.252 . S
O63 In52 2.294 1_655 S
O63 C56 1.240 1_655 S
O64 In52 2.326 . S
O64 C56 1.252 . S
In65 O66 2.294 . S
In65 O67 2.326 . S
In65 O71 2.266 . S
In65 O72 2.326 . S
In65 O73 2.266 1_545 S
In65 O74 2.326 . S
In65 O76 2.294 1_545 S
In65 O77 2.326 . S
O66 In65 2.294 . S
O66 C75 1.240 . S
O67 In65 2.326 . S
O67 C75 1.252 . S
C68 O71 1.252 . S
C68 O72 1.260 . S
C69 O76 1.240 1_545 S
C69 O77 1.252 . S
C70 O73 1.252 1_545 S
C70 O74 1.260 . S
O71 In65 2.266 . S
O71 C68 1.252 . S
O72 In65 2.326 . S
O72 C68 1.260 . S
O73 In65 2.266 1_565 S
O73 C70 1.252 1_565 S
O74 In65 2.326 . S
O74 C70 1.260 . S
C75 O66 1.240 . S
C75 O67 1.252 . S
O76 In65 2.294 1_565 S
O76 C69 1.240 1_565 S
O77 In65 2.326 . S
O77 C69 1.252 . S
In78 O79 2.294 . S
In78 O80 2.326 . S
In78 O84 2.266 . S
In78 O85 2.326 . S
In78 O86 2.266 1_655 S
In78 O87 2.326 . S
In78 O89 2.294 1_655 S
In78 O90 2.326 . S
O79 In78 2.294 . S
O79 C88 1.240 . S
O80 In78 2.326 . S
O80 C88 1.252 . S
C81 O84 1.252 . S
C81 O85 1.260 . S
C82 O89 1.240 1_655 S
C82 O90 1.252 . S
C83 O86 1.252 1_655 S
C83 O87 1.260 . S
O84 In78 2.266 . S
O84 C81 1.252 . S
O85 In78 2.326 . S
O85 C81 1.260 . S
O86 In78 2.266 1_455 S
O86 C83 1.252 1_455 S
O87 In78 2.326 . S
O87 C83 1.260 . S
C88 O79 1.240 . S
C88 O80 1.252 . S
O89 In78 2.294 1_455 S
O89 C82 1.240 1_455 S
O90 In78 2.326 . S
O90 C82 1.252 . S
In91 O92 2.294 . S
In91 O93 2.326 . S
In91 O97 2.266 . S
In91 O98 2.326 . S
In91 O99 2.266 1_565 S
In91 O100 2.326 . S
In91 O102 2.294 1_565 S
In91 O103 2.326 . S
O92 In91 2.294 . S
O92 C101 1.240 . S
O93 In91 2.326 . S
O93 C101 1.252 . S
C94 O97 1.252 . S
C94 O98 1.260 . S
C95 O102 1.240 1_565 S
C95 O103 1.252 . S
C96 O99 1.252 1_565 S
C96 O100 1.260 . S
O97 In91 2.266 . S
O97 C94 1.252 . S
O98 In91 2.326 . S
O98 C94 1.260 . S
O99 In91 2.266 1_545 S
O99 C96 1.252 1_545 S
O100 In91 2.326 . S
O100 C96 1.260 . S
C101 O92 1.240 . S
C101 O93 1.252 . S
O102 In91 2.294 1_545 S
O102 C95 1.240 1_545 S
O103 In91 2.326 . S
O103 C95 1.252 . S
C104 C105 1.369 . S
C104 C106 1.419 . S
C104 H108 0.930 . S
C105 C104 1.369 . S
C105 C114 1.429 1_455 S
C106 C104 1.419 . S
C106 C107 1.363 1_455 S
C106 H109 0.929 . S
C107 C106 1.363 1_655 S
C107 C113 1.428 . S
H108 C104 0.930 . S
H109 C106 0.929 . S
S110 N111 1.613 . S
S110 N112 1.610 . S
N111 S110 1.613 . S
N111 C114 1.350 . S
N112 S110 1.610 . S
N112 C113 1.351 . S
C113 C107 1.428 . S
C113 N112 1.351 . S
C113 C114 1.434 . S
C114 C105 1.429 1_655 S
C114 N111 1.350 . S
C114 C113 1.434 . S
C115 C116 1.369 . S
C115 C117 1.419 . S
C115 H119 0.930 . S
C116 C115 1.369 . S
C116 C125 1.429 1_565 S
C117 C115 1.419 . S
C117 C118 1.363 1_565 S
C117 H120 0.929 . S
C118 C117 1.363 1_545 S
C118 C124 1.428 . S
H119 C115 0.930 . S
H120 C117 0.929 . S
S121 N122 1.613 . S
S121 N123 1.610 . S
N122 S121 1.613 . S
N122 C125 1.350 . S
N123 S121 1.610 . S
N123 C124 1.351 . S
C124 C118 1.428 . S
C124 N123 1.351 . S
C124 C125 1.434 . S
C125 C116 1.429 1_545 S
C125 N122 1.350 . S
C125 C124 1.434 . S
C126 C127 1.369 . S
C126 C128 1.419 . S
C126 H130 0.930 . S
C127 C126 1.369 . S
C127 C136 1.429 1_655 S
C128 C126 1.419 . S
C128 C129 1.363 1_655 S
C128 H131 0.929 . S
C129 C128 1.363 1_455 S
C129 C135 1.428 . S
H130 C126 0.930 . S
H131 C128 0.929 . S
S132 N133 1.613 . S
S132 N134 1.610 . S
N133 S132 1.613 . S
N133 C136 1.350 . S
N134 S132 1.610 . S
N134 C135 1.351 . S
C135 C129 1.428 . S
C135 N134 1.351 . S
C135 C136 1.434 . S
C136 C127 1.429 1_455 S
C136 N133 1.350 . S
C136 C135 1.434 . S
C137 C138 1.369 . S
C137 C139 1.419 . S
C137 H141 0.930 . S
C138 C137 1.369 . S
C138 C147 1.429 1_545 S
C139 C137 1.419 . S
C139 C140 1.363 1_545 S
C139 H142 0.929 . S
C140 C139 1.363 1_565 S
C140 C146 1.428 . S
H141 C137 0.930 . S
H142 C139 0.929 . S
S143 N144 1.613 . S
S143 N145 1.610 . S
N144 S143 1.613 . S
N144 C147 1.350 . S
N145 S143 1.610 . S
N145 C146 1.351 . S
C146 C140 1.428 . S
C146 N145 1.351 . S
C146 C147 1.434 . S
C147 C138 1.429 1_565 S
C147 N144 1.350 . S
C147 C146 1.434 . S
C148 C149 1.369 . S
C148 C150 1.419 1_656 S
C148 H152 0.930 . S
C149 C148 1.369 . S
C149 C158 1.429 . S
C150 C148 1.419 1_454 S
C150 C151 1.363 . S
C150 H153 0.929 . S
C151 C150 1.363 . S
C151 C157 1.428 . S
H152 C148 0.930 . S
H153 C150 0.929 . S
S154 N155 1.613 1_554 S
S154 N156 1.610 . S
N155 S154 1.613 1_556 S
N155 C158 1.350 . S
N156 S154 1.610 . S
N156 C157 1.351 1_655 S
C157 C151 1.428 . S
C157 N156 1.351 1_455 S
C157 C158 1.434 1_454 S
C158 C149 1.429 . S
C158 N155 1.350 . S
C158 C157 1.434 1_656 S
C159 C160 1.369 1_565 S
C159 C161 1.419 . S
C159 H163 0.930 . S
C160 C159 1.369 1_545 S
C160 C169 1.429 . S
C161 C159 1.419 . S
C161 C162 1.363 . S
C161 H164 0.929 . S
C162 C161 1.363 . S
C162 C168 1.428 1_565 S
H163 C159 0.930 . S
H164 C161 0.929 . S
S165 N166 1.613 . S
S165 N167 1.610 . S
N166 S165 1.613 . S
N166 C169 1.350 . S
N167 S165 1.610 . S
N167 C168 1.351 . S
C168 C162 1.428 1_545 S
C168 N167 1.351 . S
C168 C169 1.434 . S
C169 C160 1.429 . S
C169 N166 1.350 . S
C169 C168 1.434 . S
C170 C171 1.369 . S
C170 C172 1.419 1_654 S
C170 H174 0.930 . S
C171 C170 1.369 . S
C171 C180 1.429 . S
C172 C170 1.419 1_456 S
C172 C173 1.363 . S
C172 H175 0.929 . S
C173 C172 1.363 . S
C173 C179 1.428 . S
H174 C170 0.930 . S
H175 C172 0.929 . S
S176 N177 1.613 1_556 S
S176 N178 1.610 . S
N177 S176 1.613 1_554 S
N177 C180 1.350 . S
N178 S176 1.610 . S
N178 C179 1.351 1_655 S
C179 C173 1.428 . S
C179 N178 1.351 1_455 S
C179 C180 1.434 1_456 S
C180 C171 1.429 . S
C180 N177 1.350 . S
C180 C179 1.434 1_654 S
C181 C182 1.369 1_565 S
C181 C183 1.419 . S
C181 H185 0.930 . S
C182 C181 1.369 1_545 S
C182 C191 1.429 . S
C183 C181 1.419 . S
C183 C184 1.363 . S
C183 H186 0.929 . S
C184 C183 1.363 . S
C184 C190 1.428 1_565 S
H185 C181 0.930 . S
H186 C183 0.929 . S
S187 N188 1.613 . S
S187 N189 1.610 . S
N188 S187 1.613 . S
N188 C191 1.350 . S
N189 S187 1.610 . S
N189 C190 1.351 . S
C190 C184 1.428 1_545 S
C190 N189 1.351 . S
C190 C191 1.434 . S
C191 C182 1.429 . S
C191 N188 1.350 . S
C191 C190 1.434 . S
C192 C193 1.369 . S
C192 C194 1.419 . S
C192 H196 0.930 . S
C193 C192 1.369 . S
C193 C202 1.429 . S
C194 C192 1.419 . S
C194 C195 1.363 . S
C194 H197 0.929 . S
C195 C194 1.363 . S
C195 C201 1.428 . S
H196 C192 0.930 . S
H197 C194 0.929 . S
S198 N199 1.613 . S
S198 N200 1.610 . S
N199 S198 1.613 . S
N199 C202 1.350 . S
N200 S198 1.610 . S
N200 C201 1.351 . S
C201 C195 1.428 . S
C201 N200 1.351 . S
C201 C202 1.434 . S
C202 C193 1.429 . S
C202 N199 1.350 . S
C202 C201 1.434 . S
C203 C204 1.369 . S
C203 C205 1.419 . S
C203 H207 0.930 . S
C204 C203 1.369 . S
C204 C213 1.429 . S
C205 C203 1.419 . S
C205 C206 1.363 . S
C205 H208 0.929 . S
C206 C205 1.363 . S
C206 C212 1.428 . S
H207 C203 0.930 . S
H208 C205 0.929 . S
S209 N210 1.613 . S
S209 N211 1.610 . S
N210 S209 1.613 . S
N210 C213 1.350 . S
N211 S209 1.610 . S
N211 C212 1.351 . S
C212 C206 1.428 . S
C212 N211 1.351 . S
C212 C213 1.434 . S
C213 C204 1.429 . S
C213 N210 1.350 . S
C213 C212 1.434 . S
C214 C215 1.369 . S
C214 C216 1.419 . S
C214 H218 0.930 . S
C215 C214 1.369 . S
C215 C224 1.429 . S
C216 C214 1.419 . S
C216 C217 1.363 . S
C216 H219 0.929 . S
C217 C216 1.363 . S
C217 C223 1.428 . S
H218 C214 0.930 . S
H219 C216 0.929 . S
S220 N221 1.613 . S
S220 N222 1.610 . S
N221 S220 1.613 . S
N221 C224 1.350 . S
N222 S220 1.610 . S
N222 C223 1.351 . S
C223 C217 1.428 . S
C223 N222 1.351 . S
C223 C224 1.434 . S
C224 C215 1.429 . S
C224 N221 1.350 . S
C224 C223 1.434 . S
C225 C226 1.369 . S
C225 C227 1.419 . S
C225 H229 0.930 . S
C226 C225 1.369 . S
C226 C235 1.429 . S
C227 C225 1.419 . S
C227 C228 1.363 . S
C227 H230 0.929 . S
C228 C227 1.363 . S
C228 C234 1.428 . S
H229 C225 0.930 . S
H230 C227 0.929 . S
S231 N232 1.613 . S
S231 N233 1.610 . S
N232 S231 1.613 . S
N232 C235 1.350 . S
N233 S231 1.610 . S
N233 C234 1.351 . S
C234 C228 1.428 . S
C234 N233 1.351 . S
C234 C235 1.434 . S
C235 C226 1.429 . S
C235 N232 1.350 . S
C235 C234 1.434 . S
C236 C237 1.369 1_655 S
C236 C238 1.419 1_545 S
C236 H240 0.930 . S
C237 C236 1.369 1_455 S
C237 C246 1.429 . S
C238 C236 1.419 1_565 S
C238 C239 1.363 . S
C238 H241 0.929 . S
C239 C238 1.363 . S
C239 C245 1.428 1_655 S
H240 C236 0.930 . S
H241 C238 0.929 . S
S242 N243 1.613 1_565 S
S242 N244 1.610 . S
N243 S242 1.613 1_545 S
N243 C246 1.350 . S
N244 S242 1.610 . S
N244 C245 1.351 . S
C245 C239 1.428 1_455 S
C245 N244 1.351 . S
C245 C246 1.434 1_565 S
C246 C237 1.429 . S
C246 N243 1.350 . S
C246 C245 1.434 1_545 S
C247 C248 1.369 1_545 S
C247 C249 1.419 1_455 S
C247 H251 0.930 . S
C248 C247 1.369 1_565 S
C248 C257 1.429 . S
C249 C247 1.419 1_655 S
C249 C250 1.363 . S
C249 H252 0.929 . S
C250 C249 1.363 . S
C250 C256 1.428 1_545 S
H251 C247 0.930 . S
H252 C249 0.929 . S
S253 N254 1.613 1_655 S
S253 N255 1.610 . S
N254 S253 1.613 1_455 S
N254 C257 1.350 . S
N255 S253 1.610 . S
N255 C256 1.351 . S
C256 C250 1.428 1_565 S
C256 N255 1.351 . S
C256 C257 1.434 1_655 S
C257 C248 1.429 . S
C257 N254 1.350 . S
C257 C256 1.434 1_455 S
C258 C259 1.369 . S
C258 C260 1.419 1_545 S
C258 H262 0.930 . S
C259 C258 1.369 . S
C259 C268 1.429 1_655 S
C260 C258 1.419 1_565 S
C260 C261 1.363 1_655 S
C260 H263 0.929 . S
C261 C260 1.363 1_455 S
C261 C267 1.428 . S
H262 C258 0.930 . S
H263 C260 0.929 . S
S264 N265 1.613 . S
S264 N266 1.610 1_545 S
N265 S264 1.613 . S
N265 C268 1.350 . S
N266 S264 1.610 1_565 S
N266 C267 1.351 . S
C267 C261 1.428 . S
C267 N266 1.351 . S
C267 C268 1.434 1_565 S
C268 C259 1.429 1_455 S
C268 N265 1.350 . S
C268 C267 1.434 1_545 S
C269 C270 1.369 1_545 S
C269 C271 1.419 1_655 S
C269 H273 0.930 . S
C270 C269 1.369 1_565 S
C270 C279 1.429 . S
C271 C269 1.419 1_455 S
C271 C272 1.363 . S
C271 H274 0.929 . S
C272 C271 1.363 . S
C272 C278 1.428 1_545 S
H273 C269 0.930 . S
H274 C271 0.929 . S
S275 N276 1.613 1_455 S
S275 N277 1.610 . S
N276 S275 1.613 1_655 S
N276 C279 1.350 . S
N277 S275 1.610 . S
N277 C278 1.351 . S
C278 C272 1.428 1_565 S
C278 N277 1.351 . S
C278 C279 1.434 1_455 S
C279 C270 1.429 . S
C279 N276 1.350 . S
C279 C278 1.434 1_655 S
C105 C4 1.382 . S
C107 C30 1.382 . S
C116 C49 1.385 . S
C118 C17 1.382 . S
C127 C82 1.383 . S
C129 C56 1.382 . S
C138 C69 1.384 . S
C140 C95 1.382 . S
C149 C88 1.676 . S
C151 C10 1.669 . S
C160 C23 1.678 . S
C162 C101 1.668 . S
C171 C36 1.676 . S
C173 C62 1.669 . S
C182 C75 1.677 . S
C184 C43 1.668 . S
C193 C3 1.468 . S
C195 C68 1.466 . S
C204 C81 1.468 . S
C206 C16 1.473 . S
C215 C94 1.473 . S
C217 C29 1.470 . S
C226 C44 1.469 . S
C228 C55 1.466 . S
C237 C5 1.271 . S
C239 C31 1.277 . S
C248 C42 1.274 . S
C250 C18 1.278 . S
C259 C83 1.279 . S
C261 C57 1.274 . S
C270 C96 1.272 . S
C272 C70 1.279 . S
