# Generated by pormake.
# Topology wkb, (5)-cn, num edge types: 1
# Building blocks:
#     Node 0, Type 0, BuildingBlock: XOMCOT_clean_sbu_1, # of connection points: 5
#     Node 1, Type 0, BuildingBlock: XOMCOT_clean_sbu_1, # of connection points: 5
#     Node 2, Type 0, BuildingBlock: XOMCOT_clean_sbu_1, # of connection points: 5
#     Node 3, Type 0, BuildingBlock: XOMCOT_clean_sbu_1, # of connection points: 5
#     Node 4, Type 0, BuildingBlock: XOMCOT_clean_sbu_1, # of connection points: 5
#     Node 5, Type 0, BuildingBlock: XOMCOT_clean_sbu_1, # of connection points: 5
#     Node 6, Type 0, BuildingBlock: XOMCOT_clean_sbu_1, # of connection points: 5
#     Node 7, Type 0, BuildingBlock: XOMCOT_clean_sbu_1, # of connection points: 5
#     Node 8, Type 0, BuildingBlock: XOMCOT_clean_sbu_1, # of connection points: 5
#     Node 9, Type 0, BuildingBlock: XOMCOT_clean_sbu_1, # of connection points: 5
#     Node 10, Type 0, BuildingBlock: XOMCOT_clean_sbu_1, # of connection points: 5
#     Node 11, Type 0, BuildingBlock: XOMCOT_clean_sbu_1, # of connection points: 5
#     Edge 12, Type (0, 0), BuildingBlock: XUDNAN_clean_linker_2, # of connection points: 2
#     Edge 13, Type (0, 0), BuildingBlock: XUDNAN_clean_linker_2, # of connection points: 2
#     Edge 14, Type (0, 0), BuildingBlock: XUDNAN_clean_linker_2, # of connection points: 2
#     Edge 15, Type (0, 0), BuildingBlock: XUDNAN_clean_linker_2, # of connection points: 2
#     Edge 16, Type (0, 0), BuildingBlock: XUDNAN_clean_linker_2, # of connection points: 2
#     Edge 17, Type (0, 0), BuildingBlock: XUDNAN_clean_linker_2, # of connection points: 2
#     Edge 18, Type (0, 0), BuildingBlock: XUDNAN_clean_linker_2, # of connection points: 2
#     Edge 19, Type (0, 0), BuildingBlock: XUDNAN_clean_linker_2, # of connection points: 2
#     Edge 20, Type (0, 0), BuildingBlock: XUDNAN_clean_linker_2, # of connection points: 2
#     Edge 21, Type (0, 0), BuildingBlock: XUDNAN_clean_linker_2, # of connection points: 2
#     Edge 22, Type (0, 0), BuildingBlock: XUDNAN_clean_linker_2, # of connection points: 2
#     Edge 23, Type (0, 0), BuildingBlock: XUDNAN_clean_linker_2, # of connection points: 2
#     Edge 24, Type (0, 0), BuildingBlock: XUDNAN_clean_linker_2, # of connection points: 2
#     Edge 25, Type (0, 0), BuildingBlock: XUDNAN_clean_linker_2, # of connection points: 2
#     Edge 26, Type (0, 0), BuildingBlock: XUDNAN_clean_linker_2, # of connection points: 2
#     Edge 27, Type (0, 0), BuildingBlock: XUDNAN_clean_linker_2, # of connection points: 2
#     Edge 28, Type (0, 0), BuildingBlock: XUDNAN_clean_linker_2, # of connection points: 2
#     Edge 29, Type (0, 0), BuildingBlock: XUDNAN_clean_linker_2, # of connection points: 2
#     Edge 30, Type (0, 0), BuildingBlock: XUDNAN_clean_linker_2, # of connection points: 2
#     Edge 31, Type (0, 0), BuildingBlock: XUDNAN_clean_linker_2, # of connection points: 2
#     Edge 32, Type (0, 0), BuildingBlock: XUDNAN_clean_linker_2, # of connection points: 2
#     Edge 33, Type (0, 0), BuildingBlock: XUDNAN_clean_linker_2, # of connection points: 2
#     Edge 34, Type (0, 0), BuildingBlock: XUDNAN_clean_linker_2, # of connection points: 2
#     Edge 35, Type (0, 0), BuildingBlock: XUDNAN_clean_linker_2, # of connection points: 2
#     Edge 36, Type (0, 0), BuildingBlock: XUDNAN_clean_linker_2, # of connection points: 2
#     Edge 37, Type (0, 0), BuildingBlock: XUDNAN_clean_linker_2, # of connection points: 2
#     Edge 38, Type (0, 0), BuildingBlock: XUDNAN_clean_linker_2, # of connection points: 2
#     Edge 39, Type (0, 0), BuildingBlock: XUDNAN_clean_linker_2, # of connection points: 2
#     Edge 40, Type (0, 0), BuildingBlock: XUDNAN_clean_linker_2, # of connection points: 2
#     Edge 41, Type (0, 0), BuildingBlock: XUDNAN_clean_linker_2, # of connection points: 2
# Relax obj value: 0.068
# Max RMSD: 0.106
# Mean RMSD: 0.106
data_MOF--net-wkb--node1-XOMCOT_clean_sbu_1--edge1-XUDNAN_clean_linker_2
_symmetry_space_group_name_H-M    P1
_symmetry_Int_Tables_number       1
_symmetry_cell_setting            triclinic
loop_
_symmetry_equiv_pos_as_xyz
'x, y, z'
_cell_length_a     46.439017
_cell_length_b     46.443818
_cell_length_c     37.127877
_cell_angle_alpha  90.022011
_cell_angle_beta   90.022874
_cell_angle_gamma 120.01295
loop_
_atom_site_label
_atom_site_type_symbol
_atom_site_fract_x
_atom_site_fract_y
_atom_site_fract_z
_atom_type_partial_charge
C0 C 0.06946 0.36772 0.00952 0.0
C1 C 0.06318 0.36194 0.97335 0.0
N2 N 0.05918 0.33188 0.96592 0.0
N3 N 0.06867 0.34102 0.02511 0.0
C4 C 0.0628 0.31968 0.99748 0.0
H5 H 0.07448 0.39025 0.02325 0.0
Co6 Co 0.07623 0.33638 0.07394 0.0
C7 C 1.00542 0.2758 0.06452 0.0
O8 O 0.9964 0.28521 0.0353 0.0
N9 N 0.08332 0.33166 0.12275 0.0
C10 C 0.07095 0.32038 0.18067 0.0
C11 C 0.0584 0.31928 0.14713 0.0
C12 C 0.11109 0.34045 0.14243 0.0
N13 N 0.10413 0.33393 0.17798 0.0
O14 O 0.09877 0.31261 0.05957 0.0
H15 H 0.03254 0.31056 0.14116 0.0
H16 H 0.13588 0.35221 0.13114 0.0
O17 O 0.03419 0.29437 0.07809 0.0
C18 C 0.12878 0.33306 0.05057 0.0
O19 O 0.13976 0.36495 0.05531 0.0
N20 N 0.0577 0.36295 0.08754 0.0
C21 C 0.0433 0.41401 0.09926 0.0
C22 C 1.01764 0.38117 0.09315 0.0
C23 C 1.02538 0.35591 0.08706 0.0
C24 C 0.08261 0.3943 0.09547 0.0
C25 C 0.07604 0.42019 0.10105 0.0
H26 H 1.00549 0.33125 0.08102 0.0
H27 H 0.10808 0.39955 0.0957 0.0
H28 H 0.06076 0.29555 1.00048 0.0
H29 H 0.06199 0.37864 0.95384 0.0
H30 H 0.05656 0.31179 0.20522 0.0
H31 H 0.99199 0.37534 0.09169 0.0
H32 H 0.09654 0.445 0.10624 0.0
C33 C 0.71696 0.04796 0.17157 0.0
C34 C 0.7161 0.03961 0.13601 0.0
N35 N 0.74314 0.03708 0.12922 0.0
N36 N 0.74411 0.04999 0.1875 0.0
C37 C 0.7599 0.04369 0.16058 0.0
H38 H 0.69912 0.05302 0.18447 0.0
Co39 Co 0.75801 0.06246 0.23546 0.0
C40 C 0.74799 0.99178 0.23375 0.0
O41 O 0.73037 0.98166 0.20399 0.0
N42 N 0.77175 0.07425 0.28323 0.0
C43 C 0.7748 0.06676 0.34193 0.0
C44 C 0.75625 0.05383 0.31138 0.0
C45 C 0.79972 0.09976 0.29755 0.0
N46 N 0.80218 0.09549 0.33322 0.0
O47 O 0.80402 0.08378 0.21964 0.0
H48 H 0.73369 0.02998 0.30955 0.0
H49 H 0.81885 0.11991 0.28191 0.0
O50 O 0.75819 1.02115 0.24556 0.0
C51 C 0.81243 0.11063 0.20229 0.0
O52 O 0.79051 0.12052 0.19913 0.0
N53 N 0.71316 0.04506 0.24997 0.0
C54 C 0.64747 0.03093 0.25963 0.0
C55 C 0.65475 1.00521 0.25463 0.0
C56 C 0.68779 1.01278 0.24973 0.0
C57 C 0.70669 0.07013 0.25669 0.0
C58 C 0.67417 0.06368 0.26155 0.0
H59 H 0.69247 0.99277 0.24423 0.0
H60 H 0.72694 0.0956 0.25652 0.0
H61 H 0.78323 0.04404 0.16379 0.0
H62 H 0.6977 0.03678 0.11626 0.0
H63 H 0.76916 0.0554 0.36836 0.0
H64 H 0.63499 0.97955 0.25284 0.0
H65 H 0.66996 0.08433 0.26605 0.0
C66 C 0.67361 0.71917 0.34764 0.0
C67 C 0.67508 0.71589 0.31115 0.0
N68 N 0.70727 0.72957 0.30144 0.0
N69 N 0.70468 0.73473 0.36119 0.0
C70 C 0.7248 0.74099 0.33242 0.0
H71 H 0.65132 0.71164 0.36326 0.0
Co72 Co 0.71354 0.74709 0.40917 0.0
C73 C 0.78278 0.76385 0.42048 0.0
O74 O 0.78902 0.7932 0.43191 0.0
N75 N 0.72166 0.75918 0.45767 0.0
C76 C 0.73531 0.76029 0.51521 0.0
C77 C 0.7302 0.74394 0.48301 0.0
C78 C 0.72105 0.78434 0.47526 0.0
N79 N 0.72957 0.78569 0.5103 0.0
O80 O 0.73824 0.79331 0.39413 0.0
H81 H 0.73298 0.72247 0.47823 0.0
H82 H 0.71514 0.80169 0.4625 0.0
O83 O 0.7538 0.74325 0.40832 0.0
C84 C 0.71949 0.80389 0.38192 0.0
O85 O 0.68711 0.78435 0.38417 0.0
N86 N 0.68682 0.70212 0.42245 0.0
C87 C 0.63716 0.63574 0.43169 0.0
C88 C 0.66877 0.64381 0.41879 0.0
C89 C 0.69322 0.67724 0.41392 0.0
C90 C 0.65677 0.69477 0.43643 0.0
C91 C 0.63156 0.66179 0.44113 0.0
H92 H 0.71657 0.68293 0.40166 0.0
H93 H 0.65181 0.71471 0.44228 0.0
H94 H 0.75165 0.75405 0.33416 0.0
H95 H 0.65398 0.70527 0.29305 0.0
H96 H 0.74237 0.7538 0.5404 0.0
H97 H 0.674 0.62445 0.41084 0.0
H98 H 0.60764 0.65671 0.45141 0.0
C99 C 0.97429 0.65676 0.504 0.0
C100 C 0.97985 0.65886 0.46763 0.0
N101 N 0.99715 0.69123 0.45851 0.0
N102 N 0.98859 0.68764 0.51809 0.0
C103 C 1.00199 0.70828 0.4896 0.0
H104 H 0.95984 0.63413 0.51925 0.0
Co105 Co 0.98198 0.69531 0.56583 0.0
C106 C 0.05418 0.74651 0.58246 0.0
O107 O 0.05957 0.72386 0.59681 0.0
N108 N 0.97363 0.70261 0.6136 0.0
C109 C 0.97602 0.71191 0.67259 0.0
C110 C 0.99363 0.71202 0.64283 0.0
C111 C 0.94404 0.69697 0.62643 0.0
N112 N 0.94468 0.70238 0.66231 0.0
O113 O 0.96038 0.71921 0.54787 0.0
H114 H 1.01894 0.71717 0.64328 0.0
H115 H 0.92233 0.68867 0.60966 0.0
O116 O 1.02568 0.73814 0.56853 0.0
C117 C 0.93156 0.69812 0.53588 0.0
O118 O 0.92067 0.66641 0.54184 0.0
N119 N 0.99972 0.66771 0.58171 0.0
C120 C 1.01379 0.61676 0.59684 0.0
C121 C 1.0315 0.64039 0.57022 0.0
C122 C 1.02412 0.6656 0.56305 0.0
C123 C 0.98175 0.64411 0.60711 0.0
C124 C 0.98899 0.61908 0.61575 0.0
H125 H 0.03767 0.68313 0.5418 0.0
H126 H 0.96054 0.64346 0.61985 0.0
H127 H 1.01416 0.7351 0.49148 0.0
H128 H 0.97063 0.63814 0.44905 0.0
H129 H 0.98549 0.71735 0.69985 0.0
H130 H 0.05062 0.63913 0.55476 0.0
H131 H 0.97416 0.60067 0.63586 0.0
C132 C 0.34289 0.99647 0.66752 0.0
C133 C 0.34384 1.00137 0.63109 0.0
N134 N 0.31737 1.00416 0.62179 0.0
N135 N 0.31607 0.99649 0.68163 0.0
C136 C 0.30105 1.00143 0.65283 0.0
H137 H 0.35975 0.99107 0.68206 0.0
Co138 Co 0.29934 0.98221 0.72854 0.0
C139 C 0.30889 0.05258 0.72792 0.0
O140 O 0.32567 0.06218 0.69762 0.0
N141 N 0.28268 0.9677 0.77478 0.0
C142 C 0.27383 0.9677 0.83358 0.0
C143 C 0.29321 0.98609 0.80515 0.0
C144 C 0.25704 0.93815 0.78544 0.0
N145 N 0.25094 0.93753 0.82115 0.0
O146 O 0.25422 0.96133 0.70942 0.0
H147 H 0.31329 1.0116 0.80641 0.0
H148 H 0.243 0.91757 0.7673 0.0
O149 O 0.29876 0.02324 0.73983 0.0
C150 C 0.2471 0.9339 0.69401 0.0
O151 O 0.26952 0.92453 0.69499 0.0
N152 N 0.34319 0.99913 0.74634 0.0
C153 C 0.40909 1.01384 0.75698 0.0
C154 C 0.40123 0.03935 0.75342 0.0
C155 C 0.36818 0.03151 0.7479 0.0
C156 C 0.34993 0.97416 0.75258 0.0
C157 C 0.38256 0.98088 0.75768 0.0
H158 H 0.36331 0.05149 0.74305 0.0
H159 H 0.33001 0.9486 0.75084 0.0
H160 H 0.27741 1.0007 0.65417 0.0
H161 H 0.36181 1.00131 0.61255 0.0
H162 H 0.2758 0.97634 0.86103 0.0
H163 H 0.42054 0.06524 0.75364 0.0
H164 H 0.3869 0.96013 0.75988 0.0
C165 C 0.38577 0.33136 0.83222 0.0
C166 C 0.37733 0.32715 0.79657 0.0
N167 N 0.34453 0.30554 0.79389 0.0
N168 N 0.35839 0.31291 0.85236 0.0
C169 C 0.33339 0.29747 0.82811 0.0
H170 H 0.41085 0.34524 0.84248 0.0
Co171 Co 0.36077 0.30443 0.90122 0.0
C172 C 0.31379 0.32076 0.93799 0.0
O173 O 0.33847 0.34104 0.95884 0.0
N174 N 0.36376 0.29513 0.95097 0.0
C175 C 0.37396 0.29992 0.01015 0.0
C176 C 0.38012 0.31671 0.97823 0.0
C177 C 0.34837 0.26502 0.96757 0.0
N178 N 0.35403 0.26748 1.00342 0.0
O179 O 0.33483 0.2572 0.89059 0.0
H180 H 0.39459 0.34341 0.97608 0.0
H181 H 0.33257 0.24168 0.95407 0.0
O182 O 0.31906 0.30535 0.91237 0.0
C183 C 0.35195 0.24703 0.8735 0.0
O184 O 0.38381 0.26795 0.86862 0.0
N185 N 0.38942 0.35092 0.90835 0.0
C186 C 0.44039 0.41798 0.90652 0.0
C187 C 0.40691 0.40888 0.90056 0.0
C188 C 0.38199 0.37524 0.90054 0.0
C189 C 0.42176 0.35917 0.91345 0.0
C190 C 0.44742 0.39229 0.91296 0.0
H191 H 0.35701 0.36877 0.89293 0.0
H192 H 0.42778 0.33963 0.9168 0.0
H193 H 0.30831 0.27865 0.83519 0.0
H194 H 0.39434 0.33794 0.77415 0.0
H195 H 0.3834 0.31072 0.0364 0.0
H196 H 0.39987 0.42743 0.89516 0.0
H197 H 0.47269 0.39736 0.91613 0.0
C198 C 0.67483 0.98707 0.8409 0.0
C199 C 0.68387 0.99522 0.87609 0.0
N200 N 0.7161 1.00416 0.87945 0.0
N201 N 0.70134 0.99125 0.82168 0.0
C202 C 0.72637 1.00196 0.84604 0.0
H203 H 0.64975 0.97631 0.83077 0.0
Co204 Co 0.69797 0.97437 0.77515 0.0
C205 C 0.74508 0.0329 0.73112 0.0
O206 O 0.72056 0.02531 0.70858 0.0
N207 N 0.6939 0.95592 0.72794 0.0
C208 C 0.68105 0.94087 0.67041 0.0
C209 C 0.67711 0.95742 0.69879 0.0
C210 C 0.70764 0.93785 0.71604 0.0
N211 N 0.70022 0.92839 0.68121 0.0
O212 O 0.72373 0.95401 0.79118 0.0
H213 H 0.66364 0.97071 0.69711 0.0
H214 H 0.72268 0.93142 0.73261 0.0
O215 O 0.73971 1.01545 0.75981 0.0
C216 C 0.70736 0.92887 0.81178 0.0
O217 O 0.6761 0.91942 0.8186 0.0
N218 N 0.66955 0.99148 0.76274 0.0
C219 C 0.61911 1.00797 0.75797 0.0
C220 C 0.6526 0.03277 0.76239 0.0
C221 C 0.67737 0.02397 0.76548 0.0
C222 C 0.63707 0.9671 0.75921 0.0
C223 C 0.61165 0.97477 0.75623 0.0
H224 H 0.70247 0.04309 0.77182 0.0
H225 H 0.63078 0.9413 0.75951 0.0
H226 H 0.75055 1.00498 0.84014 0.0
H227 H 0.66743 0.99267 0.89808 0.0
H228 H 0.67111 0.93901 0.64361 0.0
H229 H 0.65947 0.05865 0.76505 0.0
H230 H 0.58628 0.95471 0.75296 0.0
C231 C 0.72458 0.67231 0.99912 0.0
C232 C 0.71998 0.67356 0.03531 0.0
N233 N 0.73848 0.70531 0.04631 0.0
N234 N 0.7455 0.70319 0.98676 0.0
C235 C 0.75428 0.72278 0.01642 0.0
H236 H 0.71409 0.6499 0.98312 0.0
Co237 Co 0.76057 0.71089 0.93924 0.0
C238 C 0.74821 0.77077 0.94798 0.0
O239 O 0.73044 0.76177 0.97765 0.0
N240 N 0.7753 0.71761 0.89167 0.0
C241 C 0.77574 0.72597 0.8327 0.0
C242 C 0.76316 0.72851 0.86517 0.0
C243 C 0.79546 0.70878 0.87464 0.0
N244 N 0.79597 0.71358 0.83873 0.0
O245 O 0.80614 0.73512 0.95694 0.0
H246 H 0.74489 0.73619 0.86891 0.0
H247 H 0.80792 0.69729 0.88789 0.0
O248 O 0.75892 0.75241 0.93489 0.0
C249 C 0.81571 0.71463 0.96588 0.0
O250 O 0.79507 0.68282 0.96018 0.0
N251 N 0.71628 0.68402 0.92265 0.0
C252 C 0.65135 0.63282 0.90871 0.0
C253 C 0.65763 0.66458 0.91886 0.0
C254 C 0.69032 0.68983 0.92613 0.0
C255 C 0.7107 0.65385 0.91075 0.0
C256 C 0.67847 0.62785 0.90399 0.0
H257 H 0.69422 0.71325 0.93601 0.0
H258 H 0.73134 0.64934 0.90862 0.0
H259 H 0.7721 0.74916 0.01614 0.0
H260 H 0.705 0.65239 0.05244 0.0
H261 H 0.76976 0.73183 0.80651 0.0
H262 H 0.6373 0.66937 0.9229 0.0
H263 H 0.67475 0.6038 0.89591 0.0
C264 C 0.09905 0.73309 0.16788 0.0
C265 C 0.09114 0.72955 0.20366 0.0
N266 N 0.06431 0.73307 0.20802 0.0
N267 N 0.07719 0.73848 0.14949 0.0
C268 C 0.05632 0.73876 0.17474 0.0
H269 H 0.11941 0.73155 0.15574 0.0
Co270 Co 0.08212 0.74309 0.1002 0.0
C271 C 1.01548 0.72426 0.06984 0.0
O272 O 1.01808 0.70257 0.04956 0.0
N273 N 0.08919 0.74828 0.04918 0.0
C274 C 0.09109 0.73829 0.9906 0.0
C275 C 0.08193 0.72435 0.02408 0.0
C276 C 0.10339 0.77684 0.02964 0.0
N277 N 0.10467 0.77129 0.99411 0.0
O278 O 0.10343 0.79078 0.10712 0.0
H279 H 0.06987 0.69796 0.02898 0.0
H280 H 0.11244 0.80133 0.04092 0.0
O281 O 0.03821 0.74106 0.09328 0.0
C282 C 0.13488 0.80501 0.11168 0.0
O283 O 0.14969 0.78765 0.10568 0.0
N284 N 0.06429 0.69633 0.09725 0.0
C285 C 0.04844 0.62945 0.10198 0.0
C286 C 1.02452 0.63889 0.10933 0.0
C287 C 0.03322 0.6725 0.10791 0.0
C288 C 0.08816 0.6879 0.0915 0.0
C289 C 0.08077 0.65483 0.09331 0.0
H290 H 1.01517 0.67934 0.11628 0.0
H291 H 0.11339 0.70725 0.08589 0.0
H292 H 0.03546 0.74229 0.16887 0.0
H293 H 0.10415 0.72484 0.225 0.0
H294 H 0.08851 0.7252 0.9656 0.0
H295 H 0.99931 0.62064 0.11665 0.0
H296 H 0.10072 0.64955 0.08904 0.0
C297 C 0.37644 0.04783 0.33272 0.0
C298 C 0.36497 0.03518 0.36624 0.0
N299 N 0.33347 0.02876 0.36907 0.0
N300 N 0.35209 0.04877 0.3137 0.0
C301 C 0.3262 0.03743 0.33701 0.0
H302 H 0.40163 0.05706 0.32373 0.0
Co303 Co 0.35712 0.06733 0.26757 0.0
C304 C 0.31178 1.01221 0.21944 0.0
O305 O 0.33671 0.02313 0.19673 0.0
N306 N 0.36254 0.08732 0.221 0.0
C307 C 0.37969 0.10811 0.16586 0.0
C308 C 0.3847 0.09251 0.19447 0.0
C309 C 0.34421 0.10007 0.20715 0.0
N310 N 0.35426 0.11299 0.17385 0.0
O311 O 0.33135 0.08749 0.28357 0.0
H312 H 0.40316 0.08497 0.19466 0.0
H313 H 0.32362 0.09977 0.22104 0.0
O314 O 0.31606 0.02684 0.25001 0.0
C315 C 0.35019 0.11728 0.29454 0.0
O316 O 0.38252 0.13004 0.29157 0.0
N317 N 0.3857 0.05039 0.25519 0.0
C318 C 0.43601 0.03349 0.25331 0.0
C319 C 0.40216 1.00877 0.25278 0.0
C320 C 0.37741 1.01768 0.25442 0.0
C321 C 0.41841 0.07461 0.25621 0.0
C322 C 0.44379 0.06682 0.25475 0.0
H323 H 0.35183 0.99822 0.25724 0.0
H324 H 0.4248 0.10028 0.25955 0.0
H325 H 0.30295 0.03653 0.33105 0.0
H326 H 0.37938 0.03279 0.38777 0.0
H327 H 0.39428 0.11597 0.14139 0.0
H328 H 0.39477 0.98266 0.25218 0.0
H329 H 0.46931 0.08684 0.25662 0.0
C330 C 0.35054 0.35738 0.51226 0.0
C331 C 0.34957 0.34417 0.54548 0.0
N332 N 0.322 0.31417 0.5473 0.0
N333 N 0.32402 0.33552 0.49256 0.0
C334 C 0.30673 0.30946 0.51511 0.0
H335 H 0.3689 0.38215 0.50396 0.0
Co336 Co 0.31221 0.3431 0.44647 0.0
C337 C 0.32271 0.29725 0.39851 0.0
O338 O 0.33938 0.32221 0.37645 0.0
N339 N 0.29974 0.35135 0.39986 0.0
C340 C 0.30068 0.36974 0.3439 0.0
C341 C 0.31956 0.36921 0.37198 0.0
C342 C 0.26867 0.34174 0.3876 0.0
N343 N 0.26867 0.3526 0.35383 0.0
O344 O 0.26565 0.31768 0.46074 0.0
H345 H 0.34634 0.38112 0.37128 0.0
H346 H 0.2462 0.32704 0.40291 0.0
O347 O 0.31085 0.30192 0.42778 0.0
C348 C 0.25709 0.33663 0.47679 0.0
O349 O 0.27922 0.36845 0.47914 0.0
N350 N 0.35802 0.3714 0.43579 0.0
C351 C 0.42493 0.42234 0.43258 0.0
C352 C 0.4162 0.38857 0.432 0.0
C353 C 0.38267 0.36348 0.43441 0.0
C354 C 0.36605 0.40395 0.43684 0.0
C355 C 0.39905 0.42962 0.43505 0.0
H356 H 0.3768 0.33794 0.43684 0.0
H357 H 0.34652 0.40997 0.44018 0.0
H358 H 0.28293 0.28798 0.50859 0.0
H359 H 0.3667 0.35651 0.5675 0.0
H360 H 0.30986 0.38259 0.31852 0.0
H361 H 0.43506 0.38143 0.43048 0.0
H362 H 0.40409 0.45497 0.4371 0.0
C363 C 0.97572 0.31628 0.67472 0.0
C364 C 0.98163 0.31689 0.71084 0.0
N365 N 1.0003 0.30257 0.71662 0.0
N366 N 0.99106 0.30228 0.65729 0.0
C367 C 1.00588 0.29401 0.68352 0.0
H368 H 0.96048 0.32487 0.66191 0.0
Co369 Co 0.98423 0.29371 0.60826 0.0
C370 C 0.05103 0.31301 0.57843 0.0
O371 O 0.04812 0.33441 0.558 0.0
N372 N 0.9755 0.28417 0.55776 0.0
C373 C 0.97091 0.28777 0.49816 0.0
C374 C 0.98334 0.30531 0.52949 0.0
C375 C 0.95831 0.25372 0.54219 0.0
N376 N 0.95503 0.25526 0.50618 0.0
O377 O 0.9628 0.24662 0.61973 0.0
H378 H 0.99742 0.33209 0.5308 0.0
H379 H 0.94754 0.2306 0.55689 0.0
O380 O 1.02816 0.29568 0.60151 0.0
C381 C 0.93205 0.23522 0.62705 0.0
O382 O 0.91959 0.25482 0.62188 0.0
N383 N 1.00185 0.34005 0.60068 0.0
C384 C 1.01651 0.40639 0.60333 0.0
C385 C 0.03948 0.39738 0.6158 0.0
C386 C 1.03153 0.36403 0.61464 0.0
C387 C 0.97892 0.34835 0.58949 0.0
C388 C 0.98606 0.38137 0.58961 0.0
H389 H 0.04847 0.35721 0.62671 0.0
H390 H 0.9544 0.32896 0.58142 0.0
H391 H 1.01915 0.28076 0.67859 0.0
H392 H 0.97261 0.32703 0.73129 0.0
H393 H 0.97351 0.29825 0.47152 0.0
H394 H 0.06298 0.4158 0.62738 0.0
H395 H 0.96713 0.38697 0.58094 0.0
H396 H 0.26027 0.34567 0.28135 0.0
H397 H 0.21438 0.35256 0.38022 0.0
H398 H 0.16834 0.3508 0.34502 0.0
H399 H 0.23937 0.39624 0.22635 0.0
H400 H 0.23076 0.37098 0.18654 0.0
H401 H 0.26028 0.37283 0.21929 0.0
H402 H 0.22717 0.30868 0.22551 0.0
H403 H 0.19775 0.30662 0.19252 0.0
H404 H 0.18349 0.28818 0.23631 0.0
H405 H 0.12906 0.35076 0.29954 0.0
H406 H 0.09484 0.34611 0.24707 0.0
H407 H 0.1643 0.33647 0.17686 0.0
C408 C 0.24049 0.34682 0.29549 0.0
C409 C 0.24082 0.34931 0.33349 0.0
C410 C 0.21436 0.3503 0.35119 0.0
C411 C 0.18832 0.34961 0.33141 0.0
C412 C 0.18899 0.34761 0.29398 0.0
C413 C 0.21409 0.34575 0.27616 0.0
C414 C 0.20818 0.34264 0.23577 0.0
C415 C 0.23632 0.37245 0.21582 0.0
C416 C 0.20388 0.30956 0.22171 0.0
C417 C 0.17586 0.3432 0.23368 0.0
C418 C 0.16553 0.34641 0.26761 0.0
C419 C 0.13664 0.3478 0.27289 0.0
C420 C 0.11726 0.34493 0.24282 0.0
C421 C 0.12648 0.34028 0.20779 0.0
C422 C 0.1566 0.34006 0.20319 0.0
H423 H 0.83651 0.16268 0.33975 0.0
H424 H 0.82862 0.07185 0.38121 0.0
H425 H 0.87083 0.10394 0.42753 0.0
H426 H 0.92708 0.21766 0.3577 0.0
H427 H 0.92182 0.25208 0.37096 0.0
H428 H 0.89422 0.22252 0.33814 0.0
H429 H 0.84359 0.2117 0.3773 0.0
H430 H 0.87099 0.24101 0.41028 0.0
H431 H 0.84164 0.19899 0.42354 0.0
H432 H 0.90951 0.1447 0.47258 0.0
H433 H 0.9431 0.19198 0.51313 0.0
H434 H 0.92501 0.25644 0.44365 0.0
C435 C 0.84448 0.14986 0.35802 0.0
C436 C 0.82957 0.11493 0.357 0.0
C437 C 0.83979 0.09864 0.3818 0.0
C438 C 0.8638 0.11665 0.40804 0.0
C439 C 0.87738 0.15097 0.40911 0.0
C440 C 0.86827 0.16751 0.38471 0.0
C441 C 0.88476 0.20421 0.39367 0.0
C442 C 0.90838 0.22536 0.36331 0.0
C443 C 0.85869 0.21456 0.40168 0.0
C444 C 0.90387 0.20546 0.42731 0.0
C445 C 0.89952 0.17455 0.43553 0.0
C446 C 0.9134 0.16914 0.46627 0.0
C447 C 0.93219 0.19608 0.48932 0.0
C448 C 0.9368 0.22798 0.48162 0.0
C449 C 0.92256 0.23259 0.44999 0.0
H450 H 0.69067 0.81368 0.51702 0.0
H451 H 0.77396 0.81014 0.56496 0.0
H452 H 0.77656 0.84772 0.61358 0.0
H453 H 0.71855 0.90048 0.53822 0.0
H454 H 0.67717 0.89245 0.548 0.0
H455 H 0.68323 0.86686 0.51591 0.0
H456 H 0.64301 0.81425 0.55227 0.0
H457 H 0.63692 0.83967 0.58451 0.0
H458 H 0.65098 0.81183 0.59938 0.0
H459 H 0.76918 0.88469 0.65769 0.0
H460 H 0.75212 0.9178 0.69435 0.0
H461 H 0.67196 0.89497 0.61879 0.0
C462 C 0.70976 0.8213 0.53744 0.0
C463 C 0.73216 0.80912 0.53727 0.0
C464 C 0.75641 0.81904 0.56483 0.0
C465 C 0.75818 0.84047 0.59242 0.0
C466 C 0.73539 0.85165 0.59214 0.0
C467 C 0.71162 0.8424 0.5654 0.0
C468 C 0.68917 0.85675 0.57224 0.0
C469 C 0.69223 0.88055 0.54178 0.0
C470 C 0.65288 0.82896 0.57741 0.0
C471 C 0.70395 0.87536 0.60704 0.0
C472 C 0.7307 0.87231 0.61796 0.0
C473 C 0.74821 0.88723 0.64943 0.0
C474 C 0.73812 0.90583 0.67028 0.0
C475 C 0.71057 0.90918 0.65974 0.0
C476 C 0.69338 0.89354 0.62762 0.0
H477 H 0.94854 0.72603 0.73076 0.0
H478 H 0.87835 0.66853 0.64609 0.0
H479 H 0.83244 0.66262 0.684 0.0
H480 H 0.8952 0.67729 0.80574 0.0
H481 H 0.90905 0.71322 0.83432 0.0
H482 H 0.9367 0.71223 0.80093 0.0
H483 H 0.94509 0.76723 0.77359 0.0
H484 H 0.91753 0.76842 0.80685 0.0
H485 H 0.90929 0.76988 0.75964 0.0
H486 H 0.79448 0.66615 0.72895 0.0
H487 H 0.7669 0.67794 0.77917 0.0
H488 H 0.86056 0.72958 0.83641 0.0
C489 C 0.92359 0.7117 0.72019 0.0
C490 C 0.91746 0.69795 0.68503 0.0
C491 C 0.88416 0.67988 0.67247 0.0
C492 C 0.85771 0.67607 0.694 0.0
C493 C 0.86477 0.69007 0.72829 0.0
C494 C 0.89683 0.7073 0.74147 0.0
C495 C 0.89769 0.72059 0.77901 0.0
C496 C 0.91041 0.70489 0.80663 0.0
C497 C 0.91864 0.75879 0.77979 0.0
C498 C 0.86111 0.70867 0.78455 0.0
C499 C 0.8426 0.69109 0.7549 0.0
C500 C 0.8086 0.67943 0.75252 0.0
C501 C 0.79319 0.68627 0.781 0.0
C502 C 0.81168 0.70429 0.81152 0.0
C503 C 0.84592 0.71515 0.81359 0.0
H504 H 0.24965 0.92658 0.89344 0.0
H505 H 0.19173 0.88836 0.79534 0.0
H506 H 0.14632 0.84355 0.83021 0.0
H507 H 0.22568 0.84855 0.93359 0.0
H508 H 0.22398 0.86186 0.97876 0.0
H509 H 0.25154 0.89156 0.9462 0.0
H510 H 0.22442 0.92781 0.95739 0.0
H511 H 0.19662 0.89806 0.98986 0.0
H512 H 0.18008 0.90968 0.95221 0.0
H513 H 0.10816 0.80177 0.87503 0.0
H514 H 0.08042 0.76472 0.92683 0.0
H515 H 0.16197 0.83083 0.99627 0.0
C516 C 0.22729 0.90909 0.87927 0.0
C517 C 0.22441 0.91111 0.84151 0.0
C518 C 0.19486 0.8872 0.82407 0.0
C519 C 0.16874 0.8618 0.84373 0.0
C520 C 0.17242 0.86069 0.88085 0.0
C521 C 0.20093 0.88366 0.89849 0.0
C522 C 0.19898 0.87621 0.93847 0.0
C523 C 0.22668 0.86912 0.94991 0.0
C524 C 0.20008 0.90464 0.96079 0.0
C525 C 0.16505 0.84517 0.94046 0.0
C526 C 0.15012 0.83678 0.90691 0.0
C527 C 0.11946 0.80823 0.90147 0.0
C528 C 0.10394 0.78734 0.93095 0.0
C529 C 0.11901 0.79511 0.96543 0.0
C530 C 0.14965 0.82474 0.97033 0.0
H531 H 0.35581 0.21031 0.99914 0.0
H532 H 0.3277 0.26737 0.06794 0.0
H533 H 0.31595 0.22756 0.11766 0.0
H534 H 0.29691 0.12545 0.03832 0.0
H535 H 0.3277 0.1128 0.03458 0.0
H536 H 0.32701 0.14151 1.00238 0.0
H537 H 0.38867 0.1836 0.01696 0.0
H538 H 0.3895 0.15526 0.04932 0.0
H539 H 0.40063 0.19683 0.0629 0.0
H540 H 0.31523 0.18686 0.162 0.0
H541 H 0.32724 0.14947 0.19808 0.0
H542 H 0.35668 0.11895 0.10098 0.0
C543 C 0.34589 0.21347 0.02427 0.0
C544 C 0.34211 0.24142 0.02979 0.0
C545 C 0.33041 0.24582 0.06336 0.0
C546 C 0.32357 0.2233 0.09159 0.0
C547 C 0.32864 0.19652 0.08582 0.0
C548 C 0.33942 0.1914 0.05293 0.0
C549 C 0.34706 0.16333 0.05519 0.0
C550 C 0.32324 0.13403 0.03119 0.0
C551 C 0.38363 0.1755 0.04554 0.0
C552 C 0.34029 0.1545 0.09475 0.0
C553 C 0.32898 0.17341 0.11177 0.0
C554 C 0.32342 0.17141 0.14884 0.0
C555 C 0.33021 0.15001 0.16914 0.0
C556 C 0.34285 0.13121 0.1524 0.0
C557 C 0.34712 0.13303 0.11459 0.0
H558 H 0.07459 0.47395 0.06426 0.0
H559 H 0.99689 0.41757 0.14208 0.0
H560 H 0.98821 0.46572 0.15019 0.0
H561 H 0.10971 0.55237 0.10755 0.0
H562 H 0.1178 0.57587 0.06648 0.0
H563 H 0.11698 0.53671 0.06615 0.0
H564 H 0.07202 0.51495 0.01613 0.0
H565 H 0.07282 0.55414 0.01619 0.0
H566 H 0.03414 0.516 0.02319 0.0
H567 H 0.99134 0.52219 0.15277 0.0
H568 H 1.00317 0.57993 0.14717 0.0
H569 H 0.07596 0.59765 0.06386 0.0
C570 C 0.05568 0.47171 0.08295 0.0
C571 C 0.03652 0.44207 0.10274 0.0
C572 C 1.01173 0.43997 0.12657 0.0
C573 C 1.00674 0.46724 0.13141 0.0
C574 C 1.02638 0.49627 0.11178 0.0
C575 C 0.05005 0.49846 0.08766 0.0
C576 C 0.0678 0.5323 0.0697 0.0
C577 C 0.10529 0.55037 0.07798 0.0
C578 C 0.0613 0.52915 0.02888 0.0
C579 C 0.05097 0.54917 0.088 0.0
C580 C 1.02721 0.52806 0.11223 0.0
C581 C 1.00951 0.5387 0.13339 0.0
C582 C 1.01629 0.57168 0.12975 0.0
C583 C 0.04042 0.59387 0.10482 0.0
C584 C 0.05763 0.58193 0.08353 0.0
H585 H 0.49854 0.06687 0.22253 0.0
H586 H 0.43561 0.98125 0.28915 0.0
H587 H 0.48172 0.96968 0.29588 0.0
H588 H 0.54407 0.03203 0.17795 0.0
H589 H 0.58282 0.07091 0.17851 0.0
H590 H 0.54399 0.07079 0.17665 0.0
H591 H 0.56072 0.10787 0.2337 0.0
H592 H 0.5995 0.10797 0.23585 0.0
H593 H 0.57195 0.09431 0.27413 0.0
H594 H 0.5363 0.96913 0.29788 0.0
H595 H 0.59407 0.97979 0.29473 0.0
H596 H 0.62131 0.06648 0.22818 0.0
C597 C 0.49429 0.0456 0.23851 0.0
C598 C 0.46311 0.02493 0.25513 0.0
C599 C 0.45884 0.99718 0.27548 0.0
C600 C 0.48506 0.99052 0.27972 0.0
C601 C 0.51555 1.01177 0.2635 0.0
C602 C 0.52021 0.0387 0.2432 0.0
C603 C 0.55568 0.05846 0.22961 0.0
C604 C 0.55669 0.058 0.18822 0.0
C605 C 0.57297 0.09427 0.24421 0.0
C606 C 0.57043 0.03874 0.24584 0.0
C607 C 0.54687 1.01175 0.26508 0.0
C608 C 0.55487 0.99013 0.28272 0.0
C609 C 0.58776 0.99631 0.28068 0.0
C610 C 0.61241 0.02405 0.26137 0.0
C611 C 0.60331 0.04533 0.24364 0.0
H612 H 0.57329 0.60983 0.40693 0.0
H613 H 0.6388 0.58208 0.46051 0.0
H614 H 0.59245 0.52384 0.46468 0.0
H615 H 0.50008 0.55804 0.45733 0.0
H616 H 0.47238 0.54753 0.41937 0.0
H617 H 0.51085 0.58659 0.42016 0.0
H618 H 0.52762 0.5723 0.35902 0.0
H619 H 0.48917 0.53318 0.35805 0.0
H620 H 0.52827 0.53399 0.35437 0.0
H621 H 0.53734 0.46899 0.46594 0.0
H622 H 0.47962 0.42246 0.4625 0.0
H623 H 0.45152 0.48568 0.40395 0.0
C624 C 0.57786 0.59151 0.41964 0.0
C625 C 0.60961 0.60053 0.43367 0.0
C626 C 0.61471 0.5757 0.44953 0.0
C627 C 0.58851 0.5426 0.45207 0.0
C628 C 0.55745 0.53459 0.43813 0.0
C629 C 0.55216 0.55834 0.42192 0.0
C630 C 0.51659 0.54339 0.40884 0.0
C631 C 0.49894 0.55987 0.42755 0.0
C632 C 0.51535 0.54586 0.36763 0.0
C633 C 0.50242 0.50763 0.42084 0.0
C634 C 0.52631 0.503 0.43771 0.0
C635 C 0.51859 0.47229 0.45231 0.0
C636 C 0.48562 0.44581 0.44992 0.0
C637 C 0.46055 0.44993 0.43279 0.0
C638 C 0.46959 0.48138 0.41767 0.0
H639 H 1.00599 0.56804 0.54972 0.0
H640 H 0.03376 0.60178 0.6597 0.0
H641 H 0.04151 0.55362 0.67212 0.0
H642 H 0.95767 0.48222 0.57159 0.0
H643 H 0.96909 0.46786 0.53192 0.0
H644 H 0.96893 0.50653 0.53081 0.0
H645 H 1.03039 0.53721 0.50995 0.0
H646 H 1.03075 0.49859 0.51099 0.0
H647 H 0.06116 0.53386 0.53638 0.0
H648 H 0.04508 0.50109 0.67268 0.0
H649 H 0.03961 0.44588 0.66318 0.0
H650 H 1.0063 0.44448 0.55371 0.0
C651 C 1.01423 0.56546 0.57621 0.0
C652 C 1.01982 0.58875 0.60369 0.0
C653 C 1.02967 0.58426 0.63832 0.0
C654 C 0.03419 0.55708 0.64552 0.0
C655 C 1.0283 0.53438 0.61791 0.0
C656 C 1.01822 0.5381 0.58403 0.0
C657 C 1.01115 0.50889 0.55992 0.0
C658 C 0.97454 0.49028 0.54786 0.0
C659 C 0.03478 0.52033 0.52739 0.0
C660 C 1.01861 0.48804 0.58556 0.0
C661 C 1.02897 0.50343 0.61869 0.0
C662 C 0.03709 0.48887 0.64681 0.0
C663 C 0.0341 0.45759 0.6411 0.0
C664 C 1.02266 0.44091 0.60769 0.0
C665 C 1.01507 0.45659 0.57955 0.0
H666 H 0.43615 0.97956 0.79131 0.0
H667 H 0.46273 0.06413 0.7212 0.0
H668 H 0.51978 0.07383 0.71695 0.0
H669 H 0.5158 1.01281 0.83765 0.0
H670 H 0.51419 0.97322 0.83857 0.0
H671 H 0.47621 0.97482 0.83902 0.0
H672 H 0.45556 0.93683 0.78268 0.0
H673 H 0.49349 0.93521 0.78197 0.0
H674 H 0.48094 0.94897 0.74268 0.0
H675 H 0.57376 0.07262 0.71739 0.0
H676 H 0.61936 0.05988 0.72207 0.0
H677 H 0.55709 0.97496 0.78975 0.0
C678 C 0.45383 1.00022 0.77508 0.0
C679 C 0.44452 1.0212 0.75689 0.0
C680 C 0.46899 0.04807 0.73625 0.0
C681 C 0.50158 0.05367 0.73336 0.0
C682 C 0.50961 0.03218 0.7511 0.0
C683 C 0.48642 1.00599 0.77158 0.0
C684 C 0.50093 0.98553 0.7865 0.0
C685 C 0.50184 0.98668 0.82789 0.0
C686 C 0.48158 0.94951 0.77262 0.0
C687 C 0.53573 1.00401 0.77078 0.0
C688 C 0.54038 0.03104 0.75071 0.0
C689 C 0.57041 0.0516 0.73322 0.0
C690 C 0.59626 0.04424 0.73614 0.0
C691 C 0.59195 1.01637 0.75617 0.0
C692 C 0.5612 0.99623 0.77385 0.0
H693 H 0.50098 0.4485 0.94243 0.0
H694 H 0.44357 0.4687 0.86429 0.0
H695 H 0.48976 0.52627 0.85874 0.0
H696 H 0.54326 0.52921 0.98477 0.0
H697 H 0.58203 0.52944 0.98911 0.0
H698 H 0.54329 0.49058 0.98937 0.0
H699 H 0.56396 0.46933 0.93639 0.0
H700 H 0.60275 0.50809 0.93596 0.0
H701 H 0.57804 0.49342 0.89554 0.0
H702 H 0.54339 0.58235 0.86098 0.0
H703 H 0.60051 0.63025 0.86847 0.0
H704 H 0.62411 0.57158 0.94056 0.0
C705 C 0.49791 0.46474 0.92391 0.0
C706 C 0.46803 0.45354 0.90408 0.0
C707 C 0.46551 0.47638 0.88065 0.0
C708 C 0.49187 0.50926 0.877 0.0
C709 C 0.52094 0.51915 0.89662 0.0
C710 C 0.52415 0.49743 0.91942 0.0
C711 C 0.55857 0.5136 0.93611 0.0
C712 C 0.55666 0.51584 0.97728 0.0
C713 C 0.57691 0.495 0.92534 0.0
C714 C 0.57435 0.54774 0.91891 0.0
C715 C 0.55213 0.55068 0.8966 0.0
C716 C 0.56099 0.58023 0.87829 0.0
C717 C 0.59341 0.60732 0.88273 0.0
C718 C 0.61676 0.60451 0.9048 0.0
C719 C 0.60691 0.57429 0.92314 0.0
H720 H 0.96909 0.29585 0.78022 0.0
H721 H 0.05519 0.29776 0.73245 0.0
H722 H 0.07594 0.29606 0.79355 0.0
H723 H 1.01179 0.35249 0.84643 0.0
H724 H 0.97966 0.33342 0.88006 0.0
H725 H 0.96881 0.32783 0.83314 0.0
H726 H 0.9385 0.26383 0.84138 0.0
H727 H 0.94936 0.26924 0.8885 0.0
H728 H 0.96063 0.24476 0.86042 0.0
H729 H 0.09046 0.3016 0.86085 0.0
H730 H 0.09842 0.31686 0.92584 0.0
H731 H 1.00452 0.31499 0.92721 0.0
C732 C 0.99217 0.29556 0.78237 0.0
C733 C 1.01063 0.29719 0.75145 0.0
C734 C 0.04045 0.29622 0.75571 0.0
C735 C 0.0524 0.29528 0.79034 0.0
C736 C 0.03407 0.29503 0.82031 0.0
C737 C 1.00448 0.29504 0.81645 0.0
C738 C 0.99113 0.29863 0.85226 0.0
C739 C 0.98768 0.32995 0.853 0.0
C740 C 0.95794 0.26724 0.86116 0.0
C741 C 1.01849 0.30209 0.87698 0.0
C742 C 0.0427 0.29907 0.8584 0.0
C743 C 0.07137 0.30344 0.87564 0.0
C744 C 0.07569 0.31194 0.91244 0.0
C745 C 0.05179 0.31655 0.9311 0.0
C746 C 1.02268 0.31092 0.91334 0.0
H747 H 0.69076 0.96507 0.93725 0.0
H748 H 0.77825 0.05272 0.89786 0.0
H749 H 0.8015 0.06505 0.95996 0.0
H750 H 0.67919 0.99987 0.0098 0.0
H751 H 0.66463 0.96457 0.03945 0.0
H752 H 0.65971 0.95827 0.99171 0.0
H753 H 0.69154 0.92567 0.99351 0.0
H754 H 0.69652 0.93177 0.04158 0.0
H755 H 0.73244 0.9446 0.01329 0.0
H756 H 0.80921 0.07322 0.02781 0.0
H757 H 0.79983 0.07716 0.09307 0.0
H758 H 0.70619 0.98508 0.08675 0.0
C759 C 0.7153 0.98627 0.94165 0.0
C760 C 0.73283 1.00805 0.91315 0.0
C761 C 0.76475 0.03565 0.91952 0.0
C762 C 0.77803 0.04272 0.95464 0.0
C763 C 0.75921 0.02152 0.98267 0.0
C764 C 0.72863 0.99355 0.97627 0.0
C765 C 0.71088 0.97719 0.01087 0.0
C766 C 0.67662 0.97489 0.01306 0.0
C767 C 0.70768 0.94277 0.01506 0.0
C768 C 0.73505 1.00156 0.03794 0.0
C769 C 0.76335 0.02642 0.02144 0.0
C770 C 0.78758 0.05342 0.04101 0.0
C771 C 0.78219 0.05549 0.07797 0.0
C772 C 0.75252 0.03111 0.0945 0.0
C773 C 0.7293 1.0035 0.0745 0.0
H774 H 0.69045 0.67796 0.09682 0.0
H775 H 0.79097 0.75867 0.07872 0.0
H776 H 0.79473 0.77494 0.14304 0.0
H777 H 0.66542 0.71971 0.16006 0.0
H778 H 0.64128 0.68271 0.18651 0.0
H779 H 0.64663 0.67934 0.13897 0.0
H780 H 0.67023 0.64025 0.15221 0.0
H781 H 0.66511 0.64362 0.19978 0.0
H782 H 0.70531 0.65403 0.1821 0.0
H783 H 0.787 0.78031 0.21138 0.0
H784 H 0.76808 0.77553 0.27468 0.0
H785 H 0.67407 0.68903 0.24555 0.0
C786 C 0.71338 0.69901 0.10624 0.0
C787 C 0.74052 0.71686 0.08278 0.0
C788 C 0.76977 0.74475 0.09616 0.0
C789 C 0.77217 0.75401 0.13268 0.0
C790 C 0.74505 0.73516 0.15525 0.0
C791 C 0.71619 0.70833 0.14227 0.0
C792 C 0.69065 0.69144 0.17155 0.0
C793 C 0.65914 0.69344 0.1638 0.0
C794 C 0.68236 0.6552 0.17671 0.0
C795 C 0.70955 0.71275 0.20334 0.0
C796 C 0.74085 0.73796 0.19369 0.0
C797 C 0.76252 0.76063 0.2191 0.0
C798 C 0.75166 0.75758 0.25505 0.0
C799 C 0.71946 0.73201 0.26518 0.0
C800 C 0.69855 0.70925 0.2388 0.0
H801 H 1.01526 0.66422 0.4053 0.0
H802 H 0.99945 0.74643 0.42997 0.0
H803 H 1.01126 0.76489 0.36618 0.0
H804 H 0.0828 0.70803 0.34452 0.0
H805 H 0.07011 0.67258 0.31546 0.0
H806 H 0.05994 0.66651 0.36263 0.0
H807 H 0.99758 0.62924 0.34637 0.0
H808 H 1.00753 0.6356 0.29912 0.0
H809 H 0.97769 0.6455 0.31776 0.0
H810 H 1.02441 0.77323 0.29798 0.0
H811 H 0.04343 0.77393 0.23509 0.0
H812 H 0.04997 0.68601 0.25768 0.0
C813 C 1.01413 0.68604 0.39727 0.0
C814 C 1.00629 0.70382 0.42241 0.0
C815 C 1.00568 0.73263 0.41109 0.0
C816 C 1.01202 0.74305 0.37489 0.0
C817 C 1.01905 0.72443 0.35059 0.0
C818 C 1.02048 0.69672 0.3616 0.0
C819 C 1.02963 0.68141 0.33103 0.0
C820 C 0.06258 0.6822 0.33888 0.0
C821 C 1.00142 0.64583 0.32311 0.0
C822 C 0.0334 0.70486 0.30094 0.0
C823 C 1.02688 0.72937 0.31235 0.0
C824 C 1.02948 0.75408 0.28885 0.0
C825 C 0.03999 0.75419 0.25321 0.0
C826 C 0.04804 0.73 0.24185 0.0
C827 C 0.04394 0.70476 0.26586 0.0
H828 H 0.32077 0.96938 0.56575 0.0
H829 H 0.29072 0.04047 0.59591 0.0
H830 H 0.28028 0.04678 0.53146 0.0
H831 H 0.36688 1.01082 0.49344 0.0
H832 H 0.3561 0.97468 0.46618 0.0
H833 H 0.35428 0.97122 0.51433 0.0
H834 H 0.29253 0.92446 0.51034 0.0
H835 H 0.29416 0.92793 0.46192 0.0
H836 H 0.26301 0.93198 0.48672 0.0
H837 H 0.28322 0.05232 0.46279 0.0
H838 H 0.30051 0.05744 0.39873 0.0
H839 H 0.32759 0.98189 0.41502 0.0
C840 C 0.31131 0.98574 0.55881 0.0
C841 C 0.3067 1.00462 0.58552 0.0
C842 C 0.29415 0.02567 0.57566 0.0
C843 C 0.28814 0.0293 0.5392 0.0
C844 C 0.29412 1.0111 0.51324 0.0
C845 C 0.30505 0.98938 0.52285 0.0
C846 C 0.31324 0.97534 0.49028 0.0
C847 C 0.34977 0.98354 0.49112 0.0
C848 C 0.2893 0.93769 0.48714 0.0
C849 C 0.30717 0.99397 0.46068 0.0
C850 C 0.29541 1.01395 0.47413 0.0
C851 C 0.29158 0.03612 0.45192 0.0
C852 C 0.30122 0.03877 0.41555 0.0
C853 C 0.31495 1.01972 0.40214 0.0
C854 C 0.31658 0.99621 0.42468 0.0
H855 H 0.35424 0.29232 0.58813 0.0
H856 H 0.26418 0.29743 0.58094 0.0
H857 H 0.25268 0.28227 0.6455 0.0
H858 H 0.32379 0.22405 0.66285 0.0
H859 H 0.3652 0.24498 0.68146 0.0
H860 H 0.35929 0.24512 0.63351 0.0
H861 H 0.39464 0.30966 0.63497 0.0
H862 H 0.39911 0.30932 0.68285 0.0
H863 H 0.38151 0.33258 0.66322 0.0
H864 H 0.25964 0.28189 0.71306 0.0
H865 H 0.28313 0.29395 0.77497 0.0
H866 H 0.36764 0.28711 0.73745 0.0
C867 C 0.33116 0.28822 0.59988 0.0
C868 C 0.30975 0.29531 0.57985 0.0
C869 C 0.28032 0.29115 0.59588 0.0
C870 C 0.27376 0.28271 0.63253 0.0
C871 C 0.29656 0.27782 0.65234 0.0
C872 C 0.3243 0.27959 0.63619 0.0
C873 C 0.34769 0.27849 0.66377 0.0
C874 C 0.34903 0.24622 0.66018 0.0
C875 C 0.38276 0.30935 0.66103 0.0
C876 C 0.33032 0.27866 0.6981 0.0
C877 C 0.30043 0.27741 0.69123 0.0
C878 C 0.28245 0.2818 0.71879 0.0
C879 C 0.29587 0.28863 0.75385 0.0
C880 C 0.32714 0.2915 0.7607 0.0
C881 C 0.34364 0.28498 0.73277 0.0
H882 H 0.30046 0.36586 0.96818 0.0
H883 H 0.25181 0.26474 0.92797 0.0
H884 H 0.19785 0.25569 0.95202 0.0
H885 H 0.2581 0.3499 0.04953 0.0
H886 H 0.25581 0.38751 0.04948 0.0
H887 H 0.28927 0.38636 0.02639 0.0
H888 H 0.27383 0.40478 0.967 0.0
H889 H 0.24066 0.40659 0.99007 0.0
H890 H 0.23187 0.3815 0.9501 0.0
H891 H 0.14938 0.25759 0.98631 0.0
H892 H 0.11226 0.27167 0.02105 0.0
H893 H 0.19495 0.37153 0.03732 0.0
C894 C 0.27838 0.34191 0.96382 0.0
C895 C 0.28033 0.31601 0.94612 0.0
C896 C 0.25082 0.28507 0.94105 0.0
C897 C 0.22014 0.27969 0.95491 0.0
C898 C 0.2194 0.30562 0.97335 0.0
C899 C 0.24785 0.3363 0.97714 0.0
C900 C 0.24128 0.36019 0.99839 0.0
C901 C 0.26236 0.37164 0.03299 0.0
C902 C 0.24725 0.39002 0.97499 0.0
C903 C 0.20479 0.33816 0.00684 0.0
C904 C 0.1923 0.30673 0.99229 0.0
C905 C 0.15905 0.28224 0.99752 0.0
C906 C 0.13815 0.29035 0.01752 0.0
C907 C 0.1506 0.32269 0.03203 0.0
C908 C 0.18446 0.34657 0.02663 0.0
H909 H 0.93707 0.24444 0.06126 0.0
H910 H 1.01792 0.24131 0.11614 0.0
H911 H 0.9773 0.19553 0.15465 0.0
H912 H 0.88954 0.23351 0.13878 0.0
H913 H 0.84979 0.20843 0.11725 0.0
H914 H 0.88486 0.23803 0.09125 0.0
H915 H 0.87712 0.19119 0.04743 0.0
H916 H 0.84192 0.16142 0.07332 0.0
H917 H 0.87627 0.15459 0.06502 0.0
H918 H 0.92698 0.15085 0.18933 0.0
H919 H 0.87243 0.11481 0.21883 0.0
H920 H 0.82568 0.14989 0.14318 0.0
C921 C 0.94622 0.23363 0.0808 0.0
C922 C 0.98074 0.24624 0.08529 0.0
C923 C 0.99161 0.23194 0.11196 0.0
C924 C 0.9687 0.20584 0.13396 0.0
C925 C 0.93485 0.19432 0.12923 0.0
C926 C 0.92369 0.20788 0.10333 0.0
C927 C 0.88631 0.19294 0.10549 0.0
C928 C 0.8771 0.21983 0.11369 0.0
C929 C 0.86942 0.17391 0.07075 0.0
C930 C 0.87824 0.16935 0.13698 0.0
C931 C 0.90638 0.16994 0.15 0.0
C932 C 0.9048 0.15021 0.17925 0.0
C933 C 0.87375 0.12975 0.19582 0.0
C934 C 0.84489 0.12971 0.18352 0.0
C935 C 0.84734 0.14956 0.15347 0.0
H936 H 0.69052 0.81584 0.32486 0.0
H937 H 0.77795 0.86314 0.393 0.0
H938 H 0.79652 0.91659 0.36085 0.0
H939 H 0.73214 0.86026 0.24251 0.0
H940 H 0.69629 0.86205 0.22696 0.0
H941 H 0.69095 0.82798 0.25486 0.0
H942 H 0.65667 0.84101 0.30035 0.0
H943 H 0.66198 0.87514 0.27271 0.0
H944 H 0.67455 0.88217 0.3193 0.0
H945 H 0.80189 0.96618 0.32436 0.0
H946 H 0.79673 1.00566 0.28372 0.0
H947 H 0.70789 0.92397 0.23667 0.0
C948 C 0.71369 0.83742 0.33295 0.0
C949 C 0.7327 0.83553 0.36166 0.0
C950 C 0.76308 0.86412 0.37107 0.0
C951 C 0.7737 0.89453 0.353 0.0
C952 C 0.75401 0.89562 0.32509 0.0
C953 C 0.72493 0.86756 0.31475 0.0
C954 C 0.7082 0.87489 0.28388 0.0
C955 C 0.70682 0.85512 0.25005 0.0
C956 C 0.67329 0.86789 0.29473 0.0
C957 C 0.7319 0.91174 0.27885 0.0
C958 C 0.75809 0.92338 0.30298 0.0
C959 C 0.78182 0.95712 0.30496 0.0
C960 C 0.77866 0.97939 0.2818 0.0
C961 C 0.75225 0.96785 0.25656 0.0
C962 C 0.72882 0.93349 0.25501 0.0
H963 H 0.83598 0.79181 0.46722 0.0
H964 H 0.78323 0.70925 0.39321 0.0
H965 H 0.81947 0.68695 0.41134 0.0
H966 H 0.91948 0.80071 0.45651 0.0
H967 H 0.92946 0.80974 0.50358 0.0
H968 H 0.90203 0.8214 0.48195 0.0
H969 H 0.85691 0.78846 0.52994 0.0
H970 H 0.88409 0.77659 0.55162 0.0
H971 H 0.84325 0.74511 0.5371 0.0
H972 H 0.85753 0.67102 0.4407 0.0
H973 H 0.89473 0.66157 0.47977 0.0
H974 H 0.92378 0.75404 0.53608 0.0
C975 C 0.83258 0.76948 0.45413 0.0
C976 C 0.80691 0.75247 0.42837 0.0
C977 C 0.80278 0.72284 0.41272 0.0
C978 C 0.82331 0.71003 0.42284 0.0
C979 C 0.8479 0.72706 0.44873 0.0
C980 C 0.85273 0.75618 0.46416 0.0
C981 C 0.87937 0.76818 0.4933 0.0
C982 C 0.90937 0.80202 0.48322 0.0
C983 C 0.86504 0.76966 0.53017 0.0
C984 C 0.88833 0.74087 0.49232 0.0
C985 C 0.86995 0.71763 0.46612 0.0
C986 C 0.87224 0.68919 0.46103 0.0
C987 C 0.89339 0.68401 0.48355 0.0
C988 C 0.91221 0.70706 0.51099 0.0
C989 C 0.91009 0.73625 0.51501 0.0
H990 H 0.23091 0.87825 0.65516 0.0
H991 H 0.1911 0.94095 0.68834 0.0
H992 H 0.13821 0.90307 0.65652 0.0
H993 H 0.19202 0.85599 0.56659 0.0
H994 H 0.18519 0.81429 0.56948 0.0
H995 H 0.22011 0.84785 0.59231 0.0
H996 H 0.20039 0.81598 0.65284 0.0
H997 H 0.16572 0.78226 0.63016 0.0
H998 H 0.15864 0.80201 0.66824 0.0
H999 H 0.08743 0.85421 0.62329 0.0
H1000 H 0.04526 0.8 0.59708 0.0
H1001 H 0.12067 0.7717 0.58659 0.0
C1002 C 0.2113 0.88441 0.65563 0.0
C1003 C 0.21528 0.9127 0.67438 0.0
C1004 C 0.18873 0.9195 0.67415 0.0
C1005 C 0.15864 0.89813 0.65602 0.0
C1006 C 0.1556 0.87025 0.63796 0.0
C1007 C 0.18147 0.86359 0.63776 0.0
C1008 C 0.17205 0.8314 0.61844 0.0
C1009 C 0.19363 0.83778 0.5847 0.0
C1010 C 0.17432 0.80645 0.64394 0.0
C1011 C 0.13644 0.82021 0.60842 0.0
C1012 C 0.12724 0.84297 0.61931 0.0
C1013 C 0.09467 0.83657 0.61433 0.0
C1014 C 0.07089 0.80583 0.59908 0.0
C1015 C 0.07976 0.78177 0.58938 0.0
C1016 C 0.1132 0.78972 0.59328 0.0
H1017 H 0.37173 0.23288 0.81047 0.0
H1018 H 0.29786 0.18736 0.89471 0.0
H1019 H 0.27619 0.13234 0.86486 0.0
H1020 H 0.31796 0.1818 0.73667 0.0
H1021 H 0.35181 0.1811 0.71375 0.0
H1022 H 0.35972 0.21622 0.74142 0.0
H1023 H 0.40292 0.2086 0.77814 0.0
H1024 H 0.39486 0.17328 0.75092 0.0
H1025 H 0.39045 0.16909 0.79917 0.0
H1026 H 0.26679 0.08137 0.82792 0.0
H1027 H 0.26762 0.04038 0.78593 0.0
H1028 H 0.34574 0.12081 0.72425 0.0
C1029 C 0.35085 0.21136 0.82261 0.0
C1030 C 0.33662 0.21425 0.85512 0.0
C1031 C 0.30906 0.18564 0.86981 0.0
C1032 C 0.2967 0.15435 0.85305 0.0
C1033 C 0.31175 0.15232 0.82122 0.0
C1034 C 0.33792 0.18029 0.80593 0.0
C1035 C 0.35001 0.17184 0.77179 0.0
C1036 C 0.34453 0.18872 0.73896 0.0
C1037 C 0.38673 0.18125 0.77524 0.0
C1038 C 0.3273 0.13448 0.77063 0.0
C1039 C 0.30538 0.12359 0.79935 0.0
C1040 C 0.28348 0.08978 0.80507 0.0
C1041 C 0.28418 0.06664 0.78107 0.0
C1042 C 0.30644 0.0773 0.75144 0.0
C1043 C 0.32794 0.11178 0.74613 0.0
H1044 H 0.71117 0.80193 0.95392 0.0
H1045 H 0.79062 0.80292 0.89155 0.0
H1046 H 0.79198 0.84652 0.85211 0.0
H1047 H 0.66784 0.80903 0.8801 0.0
H1048 H 0.65493 0.83498 0.90287 0.0
H1049 H 0.66275 0.80665 0.92834 0.0
H1050 H 0.70527 0.85546 0.96797 0.0
H1051 H 0.69752 0.88396 0.94259 0.0
H1052 H 0.7393 0.89125 0.94683 0.0
H1053 H 0.7828 0.88931 0.81748 0.0
H1054 H 0.76162 0.92387 0.78979 0.0
H1055 H 0.68685 0.89239 0.87354 0.0
C1056 C 0.72936 0.81176 0.93245 0.0
C1057 C 0.75104 0.79911 0.92618 0.0
C1058 C 0.77386 0.81224 0.89712 0.0
C1059 C 0.77487 0.83712 0.87457 0.0
C1060 C 0.7528 0.84868 0.88118 0.0
C1061 C 0.73043 0.83632 0.90945 0.0
C1062 C 0.70778 0.85109 0.90942 0.0
C1063 C 0.67117 0.82381 0.9049 0.0
C1064 C 0.71278 0.87166 0.94374 0.0
C1065 C 0.72044 0.87324 0.87644 0.0
C1066 C 0.74678 0.87204 0.86074 0.0
C1067 C 0.76222 0.89041 0.82969 0.0
C1068 C 0.75013 0.91007 0.81416 0.0
C1069 C 0.72251 0.91075 0.82932 0.0
C1070 C 0.70788 0.89228 0.86108 0.0
H1071 H 0.84408 0.67631 0.97555 0.0
H1072 H 0.86094 0.77532 0.99709 0.0
H1073 H 0.913 0.78873 0.02985 0.0
H1074 H 0.87273 0.66348 0.05994 0.0
H1075 H 0.89128 0.64111 0.04028 0.0
H1076 H 0.85591 0.64007 0.01901 0.0
H1077 H 0.88901 0.66164 0.95942 0.0
H1078 H 0.9243 0.66233 0.98035 0.0
H1079 H 0.92874 0.69949 0.95979 0.0
H1080 H 0.96445 0.78988 0.06161 0.0
H1081 H 1.00974 0.78018 0.08299 0.0
H1082 H 0.95652 0.68031 0.03928 0.0
C1083 C 0.85859 0.70093 0.98706 0.0
C1084 C 0.84826 0.72474 0.98371 0.0
C1085 C 0.86835 0.75667 0.9991 0.0
C1086 C 0.89787 0.7644 0.01796 0.0
C1087 C 0.90701 0.73996 0.02113 0.0
C1088 C 0.88785 0.70895 0.00569 0.0
C1089 C 0.90277 0.68692 0.01176 0.0
C1090 C 0.87927 0.65608 0.03408 0.0
C1091 C 0.91174 0.67703 0.97569 0.0
C1092 C 0.93354 0.71021 0.03297 0.0
C1093 C 0.93575 0.74068 0.03855 0.0
C1094 C 0.96273 0.76603 0.0573 0.0
C1095 C 0.98827 0.76025 0.06964 0.0
C1096 C 0.98675 0.72947 0.06293 0.0
C1097 C 0.95859 0.70416 0.04493 0.0
H1098 H 0.20145 0.84763 0.10515 0.0
H1099 H 0.11312 0.83791 0.15616 0.0
H1100 H 0.14818 0.89006 0.1903 0.0
H1101 H 0.25412 0.87684 0.18035 0.0
H1102 H 0.29062 0.90542 0.15535 0.0
H1103 H 0.25832 0.86874 0.13372 0.0
H1104 H 0.25276 0.90492 0.0841 0.0
H1105 H 0.28545 0.9417 0.10525 0.0
H1106 H 0.24562 0.93829 0.09685 0.0
H1107 H 0.1954 0.942 0.22319 0.0
H1108 H 0.24799 0.99056 0.24507 0.0
H1109 H 0.30354 0.96547 0.16999 0.0
C1110 C 0.18935 0.85673 0.12305 0.0
C1111 C 0.1545 0.83874 0.12786 0.0
C1112 C 0.13972 0.8515 0.15166 0.0
C1113 C 0.15952 0.88097 0.1714 0.0
C1114 C 0.19402 0.89763 0.16669 0.0
C1115 C 0.20861 0.88613 0.14249 0.0
C1116 C 0.24605 0.90813 0.1421 0.0
C1117 C 0.26327 0.88861 0.15357 0.0
C1118 C 0.25817 0.92422 0.10487 0.0
C1119 C 0.25053 0.93367 0.17019 0.0
C1120 C 0.22042 0.9273 0.18444 0.0
C1121 C 0.219 0.9473 0.21181 0.0
C1122 C 0.24899 0.97471 0.22429 0.0
C1123 C 0.27992 0.98205 0.20914 0.0
C1124 C 0.28037 0.96091 0.18195 0.0
H1125 H 0.3663 0.28806 0.3585 0.0
H1126 H 0.27374 0.23329 0.41722 0.0
H1127 H 0.26874 0.18015 0.39572 0.0
H1128 H 0.34415 0.23632 0.28156 0.0
H1129 H 0.38469 0.24053 0.27649 0.0
H1130 H 0.38065 0.27344 0.29706 0.0
H1131 H 0.41161 0.2707 0.35394 0.0
H1132 H 0.41614 0.23808 0.33334 0.0
H1133 H 0.39666 0.23156 0.37687 0.0
H1134 H 0.27363 0.13238 0.36348 0.0
H1135 H 0.29084 0.09658 0.33086 0.0
H1136 H 0.38098 0.18466 0.29636 0.0
C1137 C 0.34495 0.26492 0.36704 0.0
C1138 C 0.32026 0.26485 0.38938 0.0
C1139 C 0.29301 0.23396 0.40023 0.0
C1140 C 0.28991 0.20369 0.38792 0.0
C1141 C 0.31451 0.20479 0.36519 0.0
C1142 C 0.34177 0.2348 0.35547 0.0
C1143 C 0.36541 0.22992 0.33166 0.0
C1144 C 0.36891 0.246 0.2945 0.0
C1145 C 0.39946 0.24335 0.35006 0.0
C1146 C 0.34723 0.19242 0.32896 0.0
C1147 C 0.31775 0.17809 0.34811 0.0
C1148 C 0.29678 0.14354 0.34865 0.0
C1149 C 0.30659 0.12336 0.32983 0.0
C1150 C 0.33726 0.13779 0.31108 0.0
C1151 C 0.35746 0.17278 0.31055 0.0
H1152 H 0.11208 0.36098 0.55717 0.0
H1153 H 0.05623 0.2561 0.58317 0.0
H1154 H 0.10305 0.24947 0.5604 0.0
H1155 H 0.14502 0.35366 0.47582 0.0
H1156 H 0.18473 0.39094 0.48153 0.0
H1157 H 0.14835 0.38746 0.50285 0.0
H1158 H 0.17727 0.39932 0.56519 0.0
H1159 H 0.21403 0.40347 0.54397 0.0
H1160 H 0.19461 0.37429 0.5803 0.0
H1161 H 0.15597 0.25478 0.52802 0.0
H1162 H 0.20975 0.27236 0.49689 0.0
H1163 H 0.22876 0.37369 0.49406 0.0
C1164 C 0.10989 0.33667 0.55884 0.0
C1165 C 0.08055 0.30908 0.57216 0.0
C1166 C 0.07867 0.2777 0.57363 0.0
C1167 C 0.10506 0.27371 0.5604 0.0
C1168 C 0.13324 0.30142 0.54618 0.0
C1169 C 0.13584 0.33241 0.54607 0.0
C1170 C 0.16793 0.35835 0.52883 0.0
C1171 C 0.16108 0.37347 0.49528 0.0
C1172 C 0.18975 0.38545 0.55621 0.0
C1173 C 0.18309 0.33729 0.51866 0.0
C1174 C 0.16292 0.30445 0.52859 0.0
C1175 C 0.17193 0.28054 0.52056 0.0
C1176 C 0.20242 0.29065 0.50262 0.0
C1177 C 0.2236 0.32442 0.49309 0.0
C1178 C 0.2134 0.34772 0.50117 0.0
H1179 H 0.86467 0.19884 0.62408 0.0
H1180 H 0.95009 0.19667 0.66778 0.0
H1181 H 0.91212 0.14477 0.70103 0.0
H1182 H 0.81465 0.17174 0.70184 0.0
H1183 H 0.7763 0.14718 0.67759 0.0
H1184 H 0.81028 0.18288 0.65648 0.0
H1185 H 0.80932 0.14628 0.60324 0.0
H1186 H 0.77497 0.11054 0.6239 0.0
H1187 H 0.81221 0.10967 0.61227 0.0
H1188 H 0.86235 0.09367 0.73313 0.0
H1189 H 0.80788 0.04726 0.75417 0.0
H1190 H 0.75721 0.08447 0.68712 0.0
C1191 C 0.87552 0.1873 0.64029 0.0
C1192 C 0.9104 0.20182 0.64325 0.0
C1193 C 0.92345 0.18581 0.66476 0.0
C1194 C 0.90202 0.15647 0.68397 0.0
C1195 C 0.86761 0.14327 0.68108 0.0
C1196 C 0.85463 0.15809 0.65919 0.0
C1197 C 0.81703 0.13949 0.66014 0.0
C1198 C 0.80381 0.16165 0.6749 0.0
C1199 C 0.80254 0.12567 0.62267 0.0
C1200 C 0.81056 0.11188 0.68621 0.0
C1201 C 0.83983 0.11435 0.69841 0.0
C1202 C 0.8394 0.09154 0.7234 0.0
C1203 C 0.80836 0.06537 0.73545 0.0
C1204 C 0.7782 0.06204 0.72223 0.0
C1205 C 0.7797 0.08599 0.69762 0.0
loop_
_geom_bond_atom_site_label_1
_geom_bond_atom_site_label_2
_geom_bond_distance
_geom_bond_site_symmetry_2
_ccdc_geom_bond_type
C0 C1 1.351 . S
C0 N3 1.368 . S
C0 H5 0.931 . S
C1 C0 1.351 . S
C1 N2 1.373 . S
C1 H29 0.930 . S
N2 C1 1.373 . S
N2 C4 1.340 . S
N3 C0 1.368 . S
N3 C4 1.321 . S
N3 Co6 2.135 1_556 S
C4 N2 1.340 . S
C4 N3 1.321 . S
C4 H28 0.930 . S
H5 C0 0.931 . S
Co6 N3 2.135 1_554 S
Co6 N9 2.121 . S
Co6 O14 2.055 . S
Co6 O17 2.039 . S
Co6 N20 2.140 . S
C7 O8 1.227 . S
C7 O17 1.265 . S
O8 C7 1.227 . S
N9 Co6 2.121 . S
N9 C11 1.375 . S
N9 C12 1.313 . S
C10 C11 1.338 . S
C10 N13 1.377 . S
C10 H30 0.930 . S
C11 N9 1.375 . S
C11 C10 1.338 . S
C11 H15 0.931 . S
C12 N9 1.313 . S
C12 N13 1.344 . S
C12 H16 0.930 . S
N13 C10 1.377 . S
N13 C12 1.344 . S
O14 Co6 2.055 . S
O14 C18 1.253 . S
H15 C11 0.931 . S
H16 C12 0.930 . S
O17 Co6 2.039 . S
O17 C7 1.265 . S
C18 O14 1.253 . S
C18 O19 1.227 . S
O19 C18 1.227 . S
N20 Co6 2.140 . S
N20 C23 1.346 . S
N20 C24 1.345 . S
C21 C22 1.387 . S
C21 C25 1.391 . S
C22 C21 1.387 . S
C22 C23 1.369 . S
C22 H31 0.929 . S
C23 N20 1.346 . S
C23 C22 1.369 . S
C23 H26 0.928 . S
C24 N20 1.345 . S
C24 C25 1.371 . S
C24 H27 0.931 . S
C25 C21 1.391 . S
C25 C24 1.371 . S
C25 H32 0.930 . S
H26 C23 0.928 . S
H27 C24 0.931 . S
H28 C4 0.930 . S
H29 C1 0.930 . S
H30 C10 0.930 . S
H31 C22 0.929 . S
H32 C25 0.930 . S
C33 C34 1.351 . S
C33 N36 1.368 . S
C33 H38 0.931 . S
C34 C33 1.351 . S
C34 N35 1.373 . S
C34 H62 0.930 . S
N35 C34 1.373 . S
N35 C37 1.340 . S
N36 C33 1.368 . S
N36 C37 1.321 . S
N36 Co39 2.135 . S
C37 N35 1.340 . S
C37 N36 1.321 . S
C37 H61 0.930 . S
H38 C33 0.931 . S
Co39 N36 2.135 . S
Co39 N42 2.121 . S
Co39 O47 2.055 . S
Co39 O50 2.039 . S
Co39 N53 2.140 . S
C40 O41 1.227 . S
C40 O50 1.265 . S
O41 C40 1.227 . S
N42 Co39 2.121 . S
N42 C44 1.375 . S
N42 C45 1.313 . S
C43 C44 1.338 . S
C43 N46 1.377 . S
C43 H63 0.930 . S
C44 N42 1.375 . S
C44 C43 1.338 . S
C44 H48 0.931 . S
C45 N42 1.313 . S
C45 N46 1.344 . S
C45 H49 0.930 . S
N46 C43 1.377 . S
N46 C45 1.344 . S
O47 Co39 2.055 . S
O47 C51 1.253 . S
H48 C44 0.931 . S
H49 C45 0.930 . S
O50 Co39 2.039 . S
O50 C40 1.265 . S
C51 O47 1.253 . S
C51 O52 1.227 . S
O52 C51 1.227 . S
N53 Co39 2.140 . S
N53 C56 1.346 . S
N53 C57 1.345 . S
C54 C55 1.387 . S
C54 C58 1.391 . S
C55 C54 1.387 . S
C55 C56 1.369 . S
C55 H64 0.929 . S
C56 N53 1.346 . S
C56 C55 1.369 . S
C56 H59 0.928 . S
C57 N53 1.345 . S
C57 C58 1.371 . S
C57 H60 0.931 . S
C58 C54 1.391 . S
C58 C57 1.371 . S
C58 H65 0.930 . S
H59 C56 0.928 . S
H60 C57 0.931 . S
H61 C37 0.930 . S
H62 C34 0.930 . S
H63 C43 0.930 . S
H64 C55 0.929 . S
H65 C58 0.930 . S
C66 C67 1.351 . S
C66 N69 1.368 . S
C66 H71 0.931 . S
C67 C66 1.351 . S
C67 N68 1.373 . S
C67 H95 0.930 . S
N68 C67 1.373 . S
N68 C70 1.340 . S
N69 C66 1.368 . S
N69 C70 1.321 . S
N69 Co72 2.135 . S
C70 N68 1.340 . S
C70 N69 1.321 . S
C70 H94 0.930 . S
H71 C66 0.931 . S
Co72 N69 2.135 . S
Co72 N75 2.121 . S
Co72 O80 2.055 . S
Co72 O83 2.039 . S
Co72 N86 2.140 . S
C73 O74 1.227 . S
C73 O83 1.265 . S
O74 C73 1.227 . S
N75 Co72 2.121 . S
N75 C77 1.375 . S
N75 C78 1.313 . S
C76 C77 1.338 . S
C76 N79 1.377 . S
C76 H96 0.930 . S
C77 N75 1.375 . S
C77 C76 1.338 . S
C77 H81 0.931 . S
C78 N75 1.313 . S
C78 N79 1.344 . S
C78 H82 0.930 . S
N79 C76 1.377 . S
N79 C78 1.344 . S
O80 Co72 2.055 . S
O80 C84 1.253 . S
H81 C77 0.931 . S
H82 C78 0.930 . S
O83 Co72 2.039 . S
O83 C73 1.265 . S
C84 O80 1.253 . S
C84 O85 1.227 . S
O85 C84 1.227 . S
N86 Co72 2.140 . S
N86 C89 1.346 . S
N86 C90 1.345 . S
C87 C88 1.387 . S
C87 C91 1.391 . S
C88 C87 1.387 . S
C88 C89 1.369 . S
C88 H97 0.929 . S
C89 N86 1.346 . S
C89 C88 1.369 . S
C89 H92 0.928 . S
C90 N86 1.345 . S
C90 C91 1.371 . S
C90 H93 0.931 . S
C91 C87 1.391 . S
C91 C90 1.371 . S
C91 H98 0.930 . S
H92 C89 0.928 . S
H93 C90 0.931 . S
H94 C70 0.930 . S
H95 C67 0.930 . S
H96 C76 0.930 . S
H97 C88 0.929 . S
H98 C91 0.930 . S
C99 C100 1.351 . S
C99 N102 1.368 . S
C99 H104 0.931 . S
C100 C99 1.351 . S
C100 N101 1.373 . S
C100 H128 0.930 . S
N101 C100 1.373 . S
N101 C103 1.340 . S
N102 C99 1.368 . S
N102 C103 1.321 . S
N102 Co105 2.135 . S
C103 N101 1.340 . S
C103 N102 1.321 . S
C103 H127 0.930 . S
H104 C99 0.931 . S
Co105 N102 2.135 . S
Co105 N108 2.121 . S
Co105 O113 2.055 . S
Co105 O116 2.039 . S
Co105 N119 2.140 . S
C106 O107 1.227 . S
C106 O116 1.265 . S
O107 C106 1.227 . S
N108 Co105 2.121 . S
N108 C110 1.375 . S
N108 C111 1.313 . S
C109 C110 1.338 . S
C109 N112 1.377 . S
C109 H129 0.930 . S
C110 N108 1.375 . S
C110 C109 1.338 . S
C110 H114 0.931 . S
C111 N108 1.313 . S
C111 N112 1.344 . S
C111 H115 0.930 . S
N112 C109 1.377 . S
N112 C111 1.344 . S
O113 Co105 2.055 . S
O113 C117 1.253 . S
H114 C110 0.931 . S
H115 C111 0.930 . S
O116 Co105 2.039 . S
O116 C106 1.265 . S
C117 O113 1.253 . S
C117 O118 1.227 . S
O118 C117 1.227 . S
N119 Co105 2.140 . S
N119 C122 1.346 . S
N119 C123 1.345 . S
C120 C121 1.387 . S
C120 C124 1.391 . S
C121 C120 1.387 . S
C121 C122 1.369 . S
C121 H130 0.929 . S
C122 N119 1.346 . S
C122 C121 1.369 . S
C122 H125 0.928 . S
C123 N119 1.345 . S
C123 C124 1.371 . S
C123 H126 0.931 . S
C124 C120 1.391 . S
C124 C123 1.371 . S
C124 H131 0.930 . S
H125 C122 0.928 . S
H126 C123 0.931 . S
H127 C103 0.930 . S
H128 C100 0.930 . S
H129 C109 0.930 . S
H130 C121 0.929 . S
H131 C124 0.930 . S
C132 C133 1.351 . S
C132 N135 1.368 . S
C132 H137 0.931 . S
C133 C132 1.351 . S
C133 N134 1.373 . S
C133 H161 0.930 . S
N134 C133 1.373 . S
N134 C136 1.340 . S
N135 C132 1.368 . S
N135 C136 1.321 . S
N135 Co138 2.135 . S
C136 N134 1.340 . S
C136 N135 1.321 . S
C136 H160 0.930 . S
H137 C132 0.931 . S
Co138 N135 2.135 . S
Co138 N141 2.121 . S
Co138 O146 2.055 . S
Co138 O149 2.039 . S
Co138 N152 2.140 . S
C139 O140 1.227 . S
C139 O149 1.265 . S
O140 C139 1.227 . S
N141 Co138 2.121 . S
N141 C143 1.375 . S
N141 C144 1.313 . S
C142 C143 1.338 . S
C142 N145 1.377 . S
C142 H162 0.930 . S
C143 N141 1.375 . S
C143 C142 1.338 . S
C143 H147 0.931 . S
C144 N141 1.313 . S
C144 N145 1.344 . S
C144 H148 0.930 . S
N145 C142 1.377 . S
N145 C144 1.344 . S
O146 Co138 2.055 . S
O146 C150 1.253 . S
H147 C143 0.931 . S
H148 C144 0.930 . S
O149 Co138 2.039 . S
O149 C139 1.265 . S
C150 O146 1.253 . S
C150 O151 1.227 . S
O151 C150 1.227 . S
N152 Co138 2.140 . S
N152 C155 1.346 . S
N152 C156 1.345 . S
C153 C154 1.387 . S
C153 C157 1.391 . S
C154 C153 1.387 . S
C154 C155 1.369 . S
C154 H163 0.929 . S
C155 N152 1.346 . S
C155 C154 1.369 . S
C155 H158 0.928 . S
C156 N152 1.345 . S
C156 C157 1.371 . S
C156 H159 0.931 . S
C157 C153 1.391 . S
C157 C156 1.371 . S
C157 H164 0.930 . S
H158 C155 0.928 . S
H159 C156 0.931 . S
H160 C136 0.930 . S
H161 C133 0.930 . S
H162 C142 0.930 . S
H163 C154 0.929 . S
H164 C157 0.930 . S
C165 C166 1.351 . S
C165 N168 1.368 . S
C165 H170 0.931 . S
C166 C165 1.351 . S
C166 N167 1.373 . S
C166 H194 0.930 . S
N167 C166 1.373 . S
N167 C169 1.340 . S
N168 C165 1.368 . S
N168 C169 1.321 . S
N168 Co171 2.135 . S
C169 N167 1.340 . S
C169 N168 1.321 . S
C169 H193 0.930 . S
H170 C165 0.931 . S
Co171 N168 2.135 . S
Co171 N174 2.121 . S
Co171 O179 2.055 . S
Co171 O182 2.039 . S
Co171 N185 2.140 . S
C172 O173 1.227 . S
C172 O182 1.265 . S
O173 C172 1.227 . S
N174 Co171 2.121 . S
N174 C176 1.375 . S
N174 C177 1.313 . S
C175 C176 1.338 . S
C175 N178 1.377 . S
C175 H195 0.930 1_556 S
C176 N174 1.375 . S
C176 C175 1.338 . S
C176 H180 0.931 . S
C177 N174 1.313 . S
C177 N178 1.344 . S
C177 H181 0.930 . S
N178 C175 1.377 . S
N178 C177 1.344 . S
O179 Co171 2.055 . S
O179 C183 1.253 . S
H180 C176 0.931 . S
H181 C177 0.930 . S
O182 Co171 2.039 . S
O182 C172 1.265 . S
C183 O179 1.253 . S
C183 O184 1.227 . S
O184 C183 1.227 . S
N185 Co171 2.140 . S
N185 C188 1.346 . S
N185 C189 1.345 . S
C186 C187 1.387 . S
C186 C190 1.391 . S
C187 C186 1.387 . S
C187 C188 1.369 . S
C187 H196 0.929 . S
C188 N185 1.346 . S
C188 C187 1.369 . S
C188 H191 0.928 . S
C189 N185 1.345 . S
C189 C190 1.371 . S
C189 H192 0.931 . S
C190 C186 1.391 . S
C190 C189 1.371 . S
C190 H197 0.930 . S
H191 C188 0.928 . S
H192 C189 0.931 . S
H193 C169 0.930 . S
H194 C166 0.930 . S
H195 C175 0.930 1_554 S
H196 C187 0.929 . S
H197 C190 0.930 . S
C198 C199 1.351 . S
C198 N201 1.368 . S
C198 H203 0.931 . S
C199 C198 1.351 . S
C199 N200 1.373 . S
C199 H227 0.930 . S
N200 C199 1.373 . S
N200 C202 1.340 . S
N201 C198 1.368 . S
N201 C202 1.321 . S
N201 Co204 2.135 . S
C202 N200 1.340 . S
C202 N201 1.321 . S
C202 H226 0.930 . S
H203 C198 0.931 . S
Co204 N201 2.135 . S
Co204 N207 2.121 . S
Co204 O212 2.055 . S
Co204 O215 2.039 . S
Co204 N218 2.140 . S
C205 O206 1.227 . S
C205 O215 1.265 . S
O206 C205 1.227 . S
N207 Co204 2.121 . S
N207 C209 1.375 . S
N207 C210 1.313 . S
C208 C209 1.338 . S
C208 N211 1.377 . S
C208 H228 0.930 . S
C209 N207 1.375 . S
C209 C208 1.338 . S
C209 H213 0.931 . S
C210 N207 1.313 . S
C210 N211 1.344 . S
C210 H214 0.930 . S
N211 C208 1.377 . S
N211 C210 1.344 . S
O212 Co204 2.055 . S
O212 C216 1.253 . S
H213 C209 0.931 . S
H214 C210 0.930 . S
O215 Co204 2.039 . S
O215 C205 1.265 . S
C216 O212 1.253 . S
C216 O217 1.227 . S
O217 C216 1.227 . S
N218 Co204 2.140 . S
N218 C221 1.346 . S
N218 C222 1.345 . S
C219 C220 1.387 . S
C219 C223 1.391 . S
C220 C219 1.387 . S
C220 C221 1.369 . S
C220 H229 0.929 . S
C221 N218 1.346 . S
C221 C220 1.369 . S
C221 H224 0.928 . S
C222 N218 1.345 . S
C222 C223 1.371 . S
C222 H225 0.931 . S
C223 C219 1.391 . S
C223 C222 1.371 . S
C223 H230 0.930 . S
H224 C221 0.928 . S
H225 C222 0.931 . S
H226 C202 0.930 . S
H227 C199 0.930 . S
H228 C208 0.930 . S
H229 C220 0.929 . S
H230 C223 0.930 . S
C231 C232 1.351 . S
C231 N234 1.368 . S
C231 H236 0.931 . S
C232 C231 1.351 . S
C232 N233 1.373 . S
C232 H260 0.930 . S
N233 C232 1.373 . S
N233 C235 1.340 . S
N234 C231 1.368 . S
N234 C235 1.321 . S
N234 Co237 2.135 1_554 S
C235 N233 1.340 . S
C235 N234 1.321 . S
C235 H259 0.930 . S
H236 C231 0.931 . S
Co237 N234 2.135 1_556 S
Co237 N240 2.121 . S
Co237 O245 2.055 . S
Co237 O248 2.039 . S
Co237 N251 2.140 . S
C238 O239 1.227 . S
C238 O248 1.265 . S
O239 C238 1.227 . S
N240 Co237 2.121 . S
N240 C242 1.375 . S
N240 C243 1.313 . S
C241 C242 1.338 . S
C241 N244 1.377 . S
C241 H261 0.930 . S
C242 N240 1.375 . S
C242 C241 1.338 . S
C242 H246 0.931 . S
C243 N240 1.313 . S
C243 N244 1.344 . S
C243 H247 0.930 . S
N244 C241 1.377 . S
N244 C243 1.344 . S
O245 Co237 2.055 . S
O245 C249 1.253 . S
H246 C242 0.931 . S
H247 C243 0.930 . S
O248 Co237 2.039 . S
O248 C238 1.265 . S
C249 O245 1.253 . S
C249 O250 1.227 . S
O250 C249 1.227 . S
N251 Co237 2.140 . S
N251 C254 1.346 . S
N251 C255 1.345 . S
C252 C253 1.387 . S
C252 C256 1.391 . S
C253 C252 1.387 . S
C253 C254 1.369 . S
C253 H262 0.929 . S
C254 N251 1.346 . S
C254 C253 1.369 . S
C254 H257 0.928 . S
C255 N251 1.345 . S
C255 C256 1.371 . S
C255 H258 0.931 . S
C256 C252 1.391 . S
C256 C255 1.371 . S
C256 H263 0.930 . S
H257 C254 0.928 . S
H258 C255 0.931 . S
H259 C235 0.930 . S
H260 C232 0.930 . S
H261 C241 0.930 . S
H262 C253 0.929 . S
H263 C256 0.930 . S
C264 C265 1.351 . S
C264 N267 1.368 . S
C264 H269 0.931 . S
C265 C264 1.351 . S
C265 N266 1.373 . S
C265 H293 0.930 . S
N266 C265 1.373 . S
N266 C268 1.340 . S
N267 C264 1.368 . S
N267 C268 1.321 . S
N267 Co270 2.135 . S
C268 N266 1.340 . S
C268 N267 1.321 . S
C268 H292 0.930 . S
H269 C264 0.931 . S
Co270 N267 2.135 . S
Co270 N273 2.121 . S
Co270 O278 2.055 . S
Co270 O281 2.039 . S
Co270 N284 2.140 . S
C271 O272 1.227 . S
C271 O281 1.265 . S
O272 C271 1.227 . S
N273 Co270 2.121 . S
N273 C275 1.375 . S
N273 C276 1.313 . S
C274 C275 1.338 . S
C274 N277 1.377 . S
C274 H294 0.930 1_554 S
C275 N273 1.375 . S
C275 C274 1.338 . S
C275 H279 0.931 . S
C276 N273 1.313 . S
C276 N277 1.344 . S
C276 H280 0.930 . S
N277 C274 1.377 . S
N277 C276 1.344 . S
O278 Co270 2.055 . S
O278 C282 1.253 . S
H279 C275 0.931 . S
H280 C276 0.930 . S
O281 Co270 2.039 . S
O281 C271 1.265 . S
C282 O278 1.253 . S
C282 O283 1.227 . S
O283 C282 1.227 . S
N284 Co270 2.140 . S
N284 C287 1.346 . S
N284 C288 1.345 . S
C285 C286 1.387 . S
C285 C289 1.391 . S
C286 C285 1.387 . S
C286 C287 1.369 . S
C286 H295 0.929 . S
C287 N284 1.346 . S
C287 C286 1.369 . S
C287 H290 0.928 . S
C288 N284 1.345 . S
C288 C289 1.371 . S
C288 H291 0.931 . S
C289 C285 1.391 . S
C289 C288 1.371 . S
C289 H296 0.930 . S
H290 C287 0.928 . S
H291 C288 0.931 . S
H292 C268 0.930 . S
H293 C265 0.930 . S
H294 C274 0.930 1_556 S
H295 C286 0.929 . S
H296 C289 0.930 . S
C297 C298 1.351 . S
C297 N300 1.368 . S
C297 H302 0.931 . S
C298 C297 1.351 . S
C298 N299 1.373 . S
C298 H326 0.930 . S
N299 C298 1.373 . S
N299 C301 1.340 . S
N300 C297 1.368 . S
N300 C301 1.321 . S
N300 Co303 2.135 . S
C301 N299 1.340 . S
C301 N300 1.321 . S
C301 H325 0.930 . S
H302 C297 0.931 . S
Co303 N300 2.135 . S
Co303 N306 2.121 . S
Co303 O311 2.055 . S
Co303 O314 2.039 . S
Co303 N317 2.140 . S
C304 O305 1.227 . S
C304 O314 1.265 . S
O305 C304 1.227 . S
N306 Co303 2.121 . S
N306 C308 1.375 . S
N306 C309 1.313 . S
C307 C308 1.338 . S
C307 N310 1.377 . S
C307 H327 0.930 . S
C308 N306 1.375 . S
C308 C307 1.338 . S
C308 H312 0.931 . S
C309 N306 1.313 . S
C309 N310 1.344 . S
C309 H313 0.930 . S
N310 C307 1.377 . S
N310 C309 1.344 . S
O311 Co303 2.055 . S
O311 C315 1.253 . S
H312 C308 0.931 . S
H313 C309 0.930 . S
O314 Co303 2.039 . S
O314 C304 1.265 . S
C315 O311 1.253 . S
C315 O316 1.227 . S
O316 C315 1.227 . S
N317 Co303 2.140 . S
N317 C320 1.346 . S
N317 C321 1.345 . S
C318 C319 1.387 . S
C318 C322 1.391 . S
C319 C318 1.387 . S
C319 C320 1.369 . S
C319 H328 0.929 . S
C320 N317 1.346 . S
C320 C319 1.369 . S
C320 H323 0.928 . S
C321 N317 1.345 . S
C321 C322 1.371 . S
C321 H324 0.931 . S
C322 C318 1.391 . S
C322 C321 1.371 . S
C322 H329 0.930 . S
H323 C320 0.928 . S
H324 C321 0.931 . S
H325 C301 0.930 . S
H326 C298 0.930 . S
H327 C307 0.930 . S
H328 C319 0.929 . S
H329 C322 0.930 . S
C330 C331 1.351 . S
C330 N333 1.368 . S
C330 H335 0.931 . S
C331 C330 1.351 . S
C331 N332 1.373 . S
C331 H359 0.930 . S
N332 C331 1.373 . S
N332 C334 1.340 . S
N333 C330 1.368 . S
N333 C334 1.321 . S
N333 Co336 2.135 . S
C334 N332 1.340 . S
C334 N333 1.321 . S
C334 H358 0.930 . S
H335 C330 0.931 . S
Co336 N333 2.135 . S
Co336 N339 2.121 . S
Co336 O344 2.055 . S
Co336 O347 2.039 . S
Co336 N350 2.140 . S
C337 O338 1.227 . S
C337 O347 1.265 . S
O338 C337 1.227 . S
N339 Co336 2.121 . S
N339 C341 1.375 . S
N339 C342 1.313 . S
C340 C341 1.338 . S
C340 N343 1.377 . S
C340 H360 0.930 . S
C341 N339 1.375 . S
C341 C340 1.338 . S
C341 H345 0.931 . S
C342 N339 1.313 . S
C342 N343 1.344 . S
C342 H346 0.930 . S
N343 C340 1.377 . S
N343 C342 1.344 . S
O344 Co336 2.055 . S
O344 C348 1.253 . S
H345 C341 0.931 . S
H346 C342 0.930 . S
O347 Co336 2.039 . S
O347 C337 1.265 . S
C348 O344 1.253 . S
C348 O349 1.227 . S
O349 C348 1.227 . S
N350 Co336 2.140 . S
N350 C353 1.346 . S
N350 C354 1.345 . S
C351 C352 1.387 . S
C351 C355 1.391 . S
C352 C351 1.387 . S
C352 C353 1.369 . S
C352 H361 0.929 . S
C353 N350 1.346 . S
C353 C352 1.369 . S
C353 H356 0.928 . S
C354 N350 1.345 . S
C354 C355 1.371 . S
C354 H357 0.931 . S
C355 C351 1.391 . S
C355 C354 1.371 . S
C355 H362 0.930 . S
H356 C353 0.928 . S
H357 C354 0.931 . S
H358 C334 0.930 . S
H359 C331 0.930 . S
H360 C340 0.930 . S
H361 C352 0.929 . S
H362 C355 0.930 . S
C363 C364 1.351 . S
C363 N366 1.368 . S
C363 H368 0.931 . S
C364 C363 1.351 . S
C364 N365 1.373 . S
C364 H392 0.930 . S
N365 C364 1.373 . S
N365 C367 1.340 . S
N366 C363 1.368 . S
N366 C367 1.321 . S
N366 Co369 2.135 . S
C367 N365 1.340 . S
C367 N366 1.321 . S
C367 H391 0.930 . S
H368 C363 0.931 . S
Co369 N366 2.135 . S
Co369 N372 2.121 . S
Co369 O377 2.055 . S
Co369 O380 2.039 . S
Co369 N383 2.140 . S
C370 O371 1.227 . S
C370 O380 1.265 . S
O371 C370 1.227 . S
N372 Co369 2.121 . S
N372 C374 1.375 . S
N372 C375 1.313 . S
C373 C374 1.338 . S
C373 N376 1.377 . S
C373 H393 0.930 . S
C374 N372 1.375 . S
C374 C373 1.338 . S
C374 H378 0.931 . S
C375 N372 1.313 . S
C375 N376 1.344 . S
C375 H379 0.930 . S
N376 C373 1.377 . S
N376 C375 1.344 . S
O377 Co369 2.055 . S
O377 C381 1.253 . S
H378 C374 0.931 . S
H379 C375 0.930 . S
O380 Co369 2.039 . S
O380 C370 1.265 . S
C381 O377 1.253 . S
C381 O382 1.227 . S
O382 C381 1.227 . S
N383 Co369 2.140 . S
N383 C386 1.346 . S
N383 C387 1.345 . S
C384 C385 1.387 . S
C384 C388 1.391 . S
C385 C384 1.387 . S
C385 C386 1.369 . S
C385 H394 0.929 . S
C386 N383 1.346 . S
C386 C385 1.369 . S
C386 H389 0.928 . S
C387 N383 1.345 . S
C387 C388 1.371 . S
C387 H390 0.931 . S
C388 C384 1.391 . S
C388 C387 1.371 . S
C388 H395 0.930 . S
H389 C386 0.928 . S
H390 C387 0.931 . S
H391 C367 0.930 . S
H392 C364 0.930 . S
H393 C373 0.930 . S
H394 C385 0.929 . S
H395 C388 0.930 . S
H396 C408 0.930 . S
H397 C410 0.930 . S
H398 C411 0.930 . S
H399 C415 0.959 . S
H400 C415 0.959 . S
H401 C415 0.961 . S
H402 C416 0.960 . S
H403 C416 0.961 . S
H404 C416 0.959 . S
H405 C419 0.929 . S
H406 C420 0.931 . S
H407 C422 0.930 . S
C408 H396 0.930 . S
C408 C409 1.399 . S
C408 C413 1.399 . S
C409 C408 1.399 . S
C409 C410 1.376 . S
C410 H397 0.930 . S
C410 C409 1.376 . S
C410 C411 1.388 . S
C411 H398 0.930 . S
C411 C410 1.388 . S
C411 C412 1.390 . S
C412 C411 1.390 . S
C412 C413 1.394 . S
C412 C418 1.465 . S
C413 C408 1.399 . S
C413 C412 1.394 . S
C413 C414 1.516 . S
C414 C413 1.516 . S
C414 C415 1.502 . S
C414 C416 1.561 . S
C414 C417 1.526 . S
C415 H399 0.959 . S
C415 H400 0.959 . S
C415 H401 0.961 . S
C415 C414 1.502 . S
C416 H402 0.960 . S
C416 H403 0.961 . S
C416 H404 0.959 . S
C416 C414 1.561 . S
C417 C414 1.526 . S
C417 C418 1.396 . S
C417 C422 1.390 . S
C418 C412 1.465 . S
C418 C417 1.396 . S
C418 C419 1.399 . S
C419 H405 0.929 . S
C419 C418 1.399 . S
C419 C420 1.385 . S
C420 H406 0.931 . S
C420 C419 1.385 . S
C420 C421 1.389 . S
C421 C420 1.389 . S
C421 C422 1.387 . S
C422 H407 0.930 . S
C422 C417 1.390 . S
C422 C421 1.387 . S
H423 C435 0.930 . S
H424 C437 0.930 . S
H425 C438 0.930 . S
H426 C442 0.959 . S
H427 C442 0.959 . S
H428 C442 0.961 . S
H429 C443 0.960 . S
H430 C443 0.961 . S
H431 C443 0.959 . S
H432 C446 0.929 . S
H433 C447 0.931 . S
H434 C449 0.930 . S
C435 H423 0.930 . S
C435 C436 1.399 . S
C435 C440 1.399 . S
C436 C435 1.399 . S
C436 C437 1.376 . S
C437 H424 0.930 . S
C437 C436 1.376 . S
C437 C438 1.388 . S
C438 H425 0.930 . S
C438 C437 1.388 . S
C438 C439 1.390 . S
C439 C438 1.390 . S
C439 C440 1.394 . S
C439 C445 1.465 . S
C440 C435 1.399 . S
C440 C439 1.394 . S
C440 C441 1.516 . S
C441 C440 1.516 . S
C441 C442 1.502 . S
C441 C443 1.561 . S
C441 C444 1.526 . S
C442 H426 0.959 . S
C442 H427 0.959 . S
C442 H428 0.961 . S
C442 C441 1.502 . S
C443 H429 0.960 . S
C443 H430 0.961 . S
C443 H431 0.959 . S
C443 C441 1.561 . S
C444 C441 1.526 . S
C444 C445 1.396 . S
C444 C449 1.390 . S
C445 C439 1.465 . S
C445 C444 1.396 . S
C445 C446 1.399 . S
C446 H432 0.929 . S
C446 C445 1.399 . S
C446 C447 1.385 . S
C447 H433 0.931 . S
C447 C446 1.385 . S
C447 C448 1.389 . S
C448 C447 1.389 . S
C448 C449 1.387 . S
C449 H434 0.930 . S
C449 C444 1.390 . S
C449 C448 1.387 . S
H450 C462 0.930 . S
H451 C464 0.930 . S
H452 C465 0.930 . S
H453 C469 0.959 . S
H454 C469 0.959 . S
H455 C469 0.961 . S
H456 C470 0.960 . S
H457 C470 0.961 . S
H458 C470 0.959 . S
H459 C473 0.929 . S
H460 C474 0.931 . S
H461 C476 0.930 . S
C462 H450 0.930 . S
C462 C463 1.399 . S
C462 C467 1.399 . S
C463 C462 1.399 . S
C463 C464 1.376 . S
C464 H451 0.930 . S
C464 C463 1.376 . S
C464 C465 1.388 . S
C465 H452 0.930 . S
C465 C464 1.388 . S
C465 C466 1.390 . S
C466 C465 1.390 . S
C466 C467 1.394 . S
C466 C472 1.465 . S
C467 C462 1.399 . S
C467 C466 1.394 . S
C467 C468 1.516 . S
C468 C467 1.516 . S
C468 C469 1.502 . S
C468 C470 1.561 . S
C468 C471 1.526 . S
C469 H453 0.959 . S
C469 H454 0.959 . S
C469 H455 0.961 . S
C469 C468 1.502 . S
C470 H456 0.960 . S
C470 H457 0.961 . S
C470 H458 0.959 . S
C470 C468 1.561 . S
C471 C468 1.526 . S
C471 C472 1.396 . S
C471 C476 1.390 . S
C472 C466 1.465 . S
C472 C471 1.396 . S
C472 C473 1.399 . S
C473 H459 0.929 . S
C473 C472 1.399 . S
C473 C474 1.385 . S
C474 H460 0.931 . S
C474 C473 1.385 . S
C474 C475 1.389 . S
C475 C474 1.389 . S
C475 C476 1.387 . S
C476 H461 0.930 . S
C476 C471 1.390 . S
C476 C475 1.387 . S
H477 C489 0.930 . S
H478 C491 0.930 . S
H479 C492 0.930 . S
H480 C496 0.959 . S
H481 C496 0.959 . S
H482 C496 0.961 . S
H483 C497 0.960 . S
H484 C497 0.961 . S
H485 C497 0.959 . S
H486 C500 0.929 . S
H487 C501 0.931 . S
H488 C503 0.930 . S
C489 H477 0.930 . S
C489 C490 1.399 . S
C489 C494 1.399 . S
C490 C489 1.399 . S
C490 C491 1.376 . S
C491 H478 0.930 . S
C491 C490 1.376 . S
C491 C492 1.388 . S
C492 H479 0.930 . S
C492 C491 1.388 . S
C492 C493 1.390 . S
C493 C492 1.390 . S
C493 C494 1.394 . S
C493 C499 1.465 . S
C494 C489 1.399 . S
C494 C493 1.394 . S
C494 C495 1.516 . S
C495 C494 1.516 . S
C495 C496 1.502 . S
C495 C497 1.561 . S
C495 C498 1.526 . S
C496 H480 0.959 . S
C496 H481 0.959 . S
C496 H482 0.961 . S
C496 C495 1.502 . S
C497 H483 0.960 . S
C497 H484 0.961 . S
C497 H485 0.959 . S
C497 C495 1.561 . S
C498 C495 1.526 . S
C498 C499 1.396 . S
C498 C503 1.390 . S
C499 C493 1.465 . S
C499 C498 1.396 . S
C499 C500 1.399 . S
C500 H486 0.929 . S
C500 C499 1.399 . S
C500 C501 1.385 . S
C501 H487 0.931 . S
C501 C500 1.385 . S
C501 C502 1.389 . S
C502 C501 1.389 . S
C502 C503 1.387 . S
C503 H488 0.930 . S
C503 C498 1.390 . S
C503 C502 1.387 . S
H504 C516 0.930 . S
H505 C518 0.930 . S
H506 C519 0.930 . S
H507 C523 0.959 . S
H508 C523 0.959 . S
H509 C523 0.961 . S
H510 C524 0.960 . S
H511 C524 0.961 . S
H512 C524 0.959 . S
H513 C527 0.929 . S
H514 C528 0.931 . S
H515 C530 0.930 . S
C516 H504 0.930 . S
C516 C517 1.399 . S
C516 C521 1.399 . S
C517 C516 1.399 . S
C517 C518 1.376 . S
C518 H505 0.930 . S
C518 C517 1.376 . S
C518 C519 1.388 . S
C519 H506 0.930 . S
C519 C518 1.388 . S
C519 C520 1.390 . S
C520 C519 1.390 . S
C520 C521 1.394 . S
C520 C526 1.465 . S
C521 C516 1.399 . S
C521 C520 1.394 . S
C521 C522 1.516 . S
C522 C521 1.516 . S
C522 C523 1.502 . S
C522 C524 1.561 . S
C522 C525 1.526 . S
C523 H507 0.959 . S
C523 H508 0.959 . S
C523 H509 0.961 . S
C523 C522 1.502 . S
C524 H510 0.960 . S
C524 H511 0.961 . S
C524 H512 0.959 . S
C524 C522 1.561 . S
C525 C522 1.526 . S
C525 C526 1.396 . S
C525 C530 1.390 . S
C526 C520 1.465 . S
C526 C525 1.396 . S
C526 C527 1.399 . S
C527 H513 0.929 . S
C527 C526 1.399 . S
C527 C528 1.385 . S
C528 H514 0.931 . S
C528 C527 1.385 . S
C528 C529 1.389 . S
C529 C528 1.389 . S
C529 C530 1.387 . S
C530 H515 0.930 . S
C530 C525 1.390 . S
C530 C529 1.387 . S
H531 C543 0.945 . S
H532 C545 0.930 . S
H533 C546 0.930 . S
H534 C550 0.959 . S
H535 C550 0.959 . S
H536 C550 0.961 . S
H537 C551 0.960 . S
H538 C551 0.961 . S
H539 C551 0.959 . S
H540 C554 0.929 . S
H541 C555 0.931 . S
H542 C557 0.930 . S
C543 H531 0.945 . S
C543 C544 1.399 . S
C543 C548 1.399 . S
C544 C543 1.399 . S
C544 C545 1.376 . S
C545 H532 0.930 . S
C545 C544 1.376 . S
C545 C546 1.388 . S
C546 H533 0.930 . S
C546 C545 1.388 . S
C546 C547 1.390 . S
C547 C546 1.390 . S
C547 C548 1.394 . S
C547 C553 1.465 . S
C548 C543 1.399 . S
C548 C547 1.394 . S
C548 C549 1.516 . S
C549 C548 1.516 . S
C549 C550 1.502 . S
C549 C551 1.561 . S
C549 C552 1.526 . S
C550 H534 0.959 . S
C550 H535 0.959 . S
C550 H536 0.961 . S
C550 C549 1.502 . S
C551 H537 0.960 . S
C551 H538 0.961 . S
C551 H539 0.959 . S
C551 C549 1.561 . S
C552 C549 1.526 . S
C552 C553 1.396 . S
C552 C557 1.390 . S
C553 C547 1.465 . S
C553 C552 1.396 . S
C553 C554 1.399 . S
C554 H540 0.929 . S
C554 C553 1.399 . S
C554 C555 1.385 . S
C555 H541 0.931 . S
C555 C554 1.385 . S
C555 C556 1.389 . S
C556 C555 1.389 . S
C556 C557 1.387 . S
C557 H542 0.930 . S
C557 C552 1.390 . S
C557 C556 1.387 . S
H558 C570 0.930 . S
H559 C572 0.930 . S
H560 C573 0.930 . S
H561 C577 0.959 . S
H562 C577 0.959 . S
H563 C577 0.961 . S
H564 C578 0.960 1_556 S
H565 C578 0.961 1_556 S
H566 C578 0.959 . S
H567 C581 0.929 . S
H568 C582 0.931 . S
H569 C584 0.930 . S
C570 H558 0.930 . S
C570 C571 1.399 . S
C570 C575 1.399 . S
C571 C570 1.399 . S
C571 C572 1.376 . S
C572 H559 0.930 . S
C572 C571 1.376 . S
C572 C573 1.388 . S
C573 H560 0.930 . S
C573 C572 1.388 . S
C573 C574 1.390 . S
C574 C573 1.390 . S
C574 C575 1.394 . S
C574 C580 1.465 . S
C575 C570 1.399 . S
C575 C574 1.394 . S
C575 C576 1.516 . S
C576 C575 1.516 . S
C576 C577 1.502 . S
C576 C578 1.561 . S
C576 C579 1.526 . S
C577 H561 0.959 . S
C577 H562 0.959 . S
C577 H563 0.961 . S
C577 C576 1.502 . S
C578 H564 0.960 1_554 S
C578 H565 0.961 1_554 S
C578 H566 0.959 . S
C578 C576 1.561 . S
C579 C576 1.526 . S
C579 C580 1.396 . S
C579 C584 1.390 . S
C580 C574 1.465 . S
C580 C579 1.396 . S
C580 C581 1.399 . S
C581 H567 0.929 . S
C581 C580 1.399 . S
C581 C582 1.385 . S
C582 H568 0.931 . S
C582 C581 1.385 . S
C582 C583 1.389 . S
C583 C582 1.389 . S
C583 C584 1.387 . S
C584 H569 0.930 . S
C584 C579 1.390 . S
C584 C583 1.387 . S
H585 C597 0.930 . S
H586 C599 0.930 . S
H587 C600 0.930 . S
H588 C604 0.959 . S
H589 C604 0.959 . S
H590 C604 0.961 . S
H591 C605 0.960 . S
H592 C605 0.961 . S
H593 C605 0.959 . S
H594 C608 0.929 . S
H595 C609 0.931 . S
H596 C611 0.930 . S
C597 H585 0.930 . S
C597 C598 1.399 . S
C597 C602 1.399 . S
C598 C597 1.399 . S
C598 C599 1.376 . S
C599 H586 0.930 . S
C599 C598 1.376 . S
C599 C600 1.388 . S
C600 H587 0.930 . S
C600 C599 1.388 . S
C600 C601 1.390 . S
C601 C600 1.390 . S
C601 C602 1.394 . S
C601 C607 1.465 . S
C602 C597 1.399 . S
C602 C601 1.394 . S
C602 C603 1.516 . S
C603 C602 1.516 . S
C603 C604 1.502 . S
C603 C605 1.561 . S
C603 C606 1.526 . S
C604 H588 0.959 . S
C604 H589 0.959 . S
C604 H590 0.961 . S
C604 C603 1.502 . S
C605 H591 0.960 . S
C605 H592 0.961 . S
C605 H593 0.959 . S
C605 C603 1.561 . S
C606 C603 1.526 . S
C606 C607 1.396 . S
C606 C611 1.390 . S
C607 C601 1.465 . S
C607 C606 1.396 . S
C607 C608 1.399 . S
C608 H594 0.929 . S
C608 C607 1.399 . S
C608 C609 1.385 . S
C609 H595 0.931 . S
C609 C608 1.385 . S
C609 C610 1.389 . S
C610 C609 1.389 . S
C610 C611 1.387 . S
C611 H596 0.930 . S
C611 C606 1.390 . S
C611 C610 1.387 . S
H612 C624 0.930 . S
H613 C626 0.930 . S
H614 C627 0.930 . S
H615 C631 0.959 . S
H616 C631 0.959 . S
H617 C631 0.961 . S
H618 C632 0.960 . S
H619 C632 0.961 . S
H620 C632 0.959 . S
H621 C635 0.929 . S
H622 C636 0.931 . S
H623 C638 0.930 . S
C624 H612 0.930 . S
C624 C625 1.399 . S
C624 C629 1.399 . S
C625 C624 1.399 . S
C625 C626 1.376 . S
C626 H613 0.930 . S
C626 C625 1.376 . S
C626 C627 1.388 . S
C627 H614 0.930 . S
C627 C626 1.388 . S
C627 C628 1.390 . S
C628 C627 1.390 . S
C628 C629 1.394 . S
C628 C634 1.465 . S
C629 C624 1.399 . S
C629 C628 1.394 . S
C629 C630 1.516 . S
C630 C629 1.516 . S
C630 C631 1.502 . S
C630 C632 1.561 . S
C630 C633 1.526 . S
C631 H615 0.959 . S
C631 H616 0.959 . S
C631 H617 0.961 . S
C631 C630 1.502 . S
C632 H618 0.960 . S
C632 H619 0.961 . S
C632 H620 0.959 . S
C632 C630 1.561 . S
C633 C630 1.526 . S
C633 C634 1.396 . S
C633 C638 1.390 . S
C634 C628 1.465 . S
C634 C633 1.396 . S
C634 C635 1.399 . S
C635 H621 0.929 . S
C635 C634 1.399 . S
C635 C636 1.385 . S
C636 H622 0.931 . S
C636 C635 1.385 . S
C636 C637 1.389 . S
C637 C636 1.389 . S
C637 C638 1.387 . S
C638 H623 0.930 . S
C638 C633 1.390 . S
C638 C637 1.387 . S
H639 C651 0.930 . S
H640 C653 0.930 . S
H641 C654 0.930 . S
H642 C658 0.959 . S
H643 C658 0.959 . S
H644 C658 0.961 . S
H645 C659 0.960 . S
H646 C659 0.961 . S
H647 C659 0.959 . S
H648 C662 0.929 . S
H649 C663 0.931 . S
H650 C665 0.930 . S
C651 H639 0.930 . S
C651 C652 1.399 . S
C651 C656 1.399 . S
C652 C651 1.399 . S
C652 C653 1.376 . S
C653 H640 0.930 . S
C653 C652 1.376 . S
C653 C654 1.388 . S
C654 H641 0.930 . S
C654 C653 1.388 . S
C654 C655 1.390 . S
C655 C654 1.390 . S
C655 C656 1.394 . S
C655 C661 1.465 . S
C656 C651 1.399 . S
C656 C655 1.394 . S
C656 C657 1.516 . S
C657 C656 1.516 . S
C657 C658 1.502 . S
C657 C659 1.561 . S
C657 C660 1.526 . S
C658 H642 0.959 . S
C658 H643 0.959 . S
C658 H644 0.961 . S
C658 C657 1.502 . S
C659 H645 0.960 . S
C659 H646 0.961 . S
C659 H647 0.959 . S
C659 C657 1.561 . S
C660 C657 1.526 . S
C660 C661 1.396 . S
C660 C665 1.390 . S
C661 C655 1.465 . S
C661 C660 1.396 . S
C661 C662 1.399 . S
C662 H648 0.929 . S
C662 C661 1.399 . S
C662 C663 1.385 . S
C663 H649 0.931 . S
C663 C662 1.385 . S
C663 C664 1.389 . S
C664 C663 1.389 . S
C664 C665 1.387 . S
C665 H650 0.930 . S
C665 C660 1.390 . S
C665 C664 1.387 . S
H666 C678 0.930 . S
H667 C680 0.930 . S
H668 C681 0.930 . S
H669 C685 0.959 . S
H670 C685 0.959 . S
H671 C685 0.961 . S
H672 C686 0.960 . S
H673 C686 0.961 . S
H674 C686 0.959 . S
H675 C689 0.929 . S
H676 C690 0.931 . S
H677 C692 0.930 . S
C678 H666 0.930 . S
C678 C679 1.399 . S
C678 C683 1.399 . S
C679 C678 1.399 . S
C679 C680 1.376 . S
C680 H667 0.930 . S
C680 C679 1.376 . S
C680 C681 1.388 . S
C681 H668 0.930 . S
C681 C680 1.388 . S
C681 C682 1.390 . S
C682 C681 1.390 . S
C682 C683 1.394 . S
C682 C688 1.465 . S
C683 C678 1.399 . S
C683 C682 1.394 . S
C683 C684 1.516 . S
C684 C683 1.516 . S
C684 C685 1.502 . S
C684 C686 1.561 . S
C684 C687 1.526 . S
C685 H669 0.959 . S
C685 H670 0.959 . S
C685 H671 0.961 . S
C685 C684 1.502 . S
C686 H672 0.960 . S
C686 H673 0.961 . S
C686 H674 0.959 . S
C686 C684 1.561 . S
C687 C684 1.526 . S
C687 C688 1.396 . S
C687 C692 1.390 . S
C688 C682 1.465 . S
C688 C687 1.396 . S
C688 C689 1.399 . S
C689 H675 0.929 . S
C689 C688 1.399 . S
C689 C690 1.385 . S
C690 H676 0.931 . S
C690 C689 1.385 . S
C690 C691 1.389 . S
C691 C690 1.389 . S
C691 C692 1.387 . S
C692 H677 0.930 . S
C692 C687 1.390 . S
C692 C691 1.387 . S
H693 C705 0.930 . S
H694 C707 0.930 . S
H695 C708 0.930 . S
H696 C712 0.959 . S
H697 C712 0.959 . S
H698 C712 0.961 . S
H699 C713 0.960 . S
H700 C713 0.961 1_554 S
H701 C713 0.959 . S
H702 C716 0.929 . S
H703 C717 0.931 . S
H704 C719 0.930 . S
C705 H693 0.930 . S
C705 C706 1.399 . S
C705 C710 1.399 . S
C706 C705 1.399 . S
C706 C707 1.376 . S
C707 H694 0.930 . S
C707 C706 1.376 . S
C707 C708 1.388 . S
C708 H695 0.930 . S
C708 C707 1.388 . S
C708 C709 1.390 . S
C709 C708 1.390 . S
C709 C710 1.394 . S
C709 C715 1.465 . S
C710 C705 1.399 . S
C710 C709 1.394 . S
C710 C711 1.516 . S
C711 C710 1.516 . S
C711 C712 1.502 . S
C711 C713 1.561 . S
C711 C714 1.526 . S
C712 H696 0.959 . S
C712 H697 0.959 . S
C712 H698 0.961 . S
C712 C711 1.502 . S
C713 H699 0.960 . S
C713 H700 0.961 1_556 S
C713 H701 0.959 . S
C713 C711 1.561 . S
C714 C711 1.526 . S
C714 C715 1.396 . S
C714 C719 1.390 . S
C715 C709 1.465 . S
C715 C714 1.396 . S
C715 C716 1.399 . S
C716 H702 0.929 . S
C716 C715 1.399 . S
C716 C717 1.385 . S
C717 H703 0.931 . S
C717 C716 1.385 . S
C717 C718 1.389 . S
C718 C717 1.389 . S
C718 C719 1.387 . S
C719 H704 0.930 . S
C719 C714 1.390 . S
C719 C718 1.387 . S
H720 C732 0.930 . S
H721 C734 0.930 . S
H722 C735 0.930 . S
H723 C739 0.959 . S
H724 C739 0.959 . S
H725 C739 0.961 . S
H726 C740 0.960 . S
H727 C740 0.961 . S
H728 C740 0.959 . S
H729 C743 0.929 . S
H730 C744 0.931 . S
H731 C746 0.930 . S
C732 H720 0.930 . S
C732 C733 1.399 . S
C732 C737 1.399 . S
C733 C732 1.399 . S
C733 C734 1.376 1_655 S
C734 H721 0.930 . S
C734 C733 1.376 1_455 S
C734 C735 1.388 . S
C735 H722 0.930 . S
C735 C734 1.388 . S
C735 C736 1.390 . S
C736 C735 1.390 . S
C736 C737 1.394 1_455 S
C736 C742 1.465 . S
C737 C732 1.399 . S
C737 C736 1.394 1_655 S
C737 C738 1.516 . S
C738 C737 1.516 . S
C738 C739 1.502 . S
C738 C740 1.561 . S
C738 C741 1.526 . S
C739 H723 0.959 . S
C739 H724 0.959 . S
C739 H725 0.961 . S
C739 C738 1.502 . S
C740 H726 0.960 . S
C740 H727 0.961 . S
C740 H728 0.959 . S
C740 C738 1.561 . S
C741 C738 1.526 . S
C741 C742 1.396 1_655 S
C741 C746 1.390 . S
C742 C736 1.465 . S
C742 C741 1.396 1_455 S
C742 C743 1.399 . S
C743 H729 0.929 . S
C743 C742 1.399 . S
C743 C744 1.385 . S
C744 H730 0.931 . S
C744 C743 1.385 . S
C744 C745 1.389 . S
C745 C744 1.389 . S
C745 C746 1.387 1_455 S
C746 H731 0.930 . S
C746 C741 1.390 . S
C746 C745 1.387 1_655 S
H747 C759 0.930 . S
H748 C761 0.930 . S
H749 C762 0.930 . S
H750 C766 0.959 . S
H751 C766 0.959 . S
H752 C766 0.961 1_556 S
H753 C767 0.960 1_556 S
H754 C767 0.961 . S
H755 C767 0.959 . S
H756 C770 0.929 . S
H757 C771 0.931 . S
H758 C773 0.930 . S
C759 H747 0.930 . S
C759 C760 1.399 . S
C759 C764 1.399 . S
C760 C759 1.399 . S
C760 C761 1.376 1_565 S
C761 H748 0.930 . S
C761 C760 1.376 1_545 S
C761 C762 1.388 . S
C762 H749 0.930 . S
C762 C761 1.388 . S
C762 C763 1.390 . S
C763 C762 1.390 . S
C763 C764 1.394 1_545 S
C763 C769 1.465 1_556 S
C764 C759 1.399 . S
C764 C763 1.394 1_565 S
C764 C765 1.516 1_556 S
C765 C764 1.516 1_554 S
C765 C766 1.502 . S
C765 C767 1.561 . S
C765 C768 1.526 . S
C766 H750 0.959 . S
C766 H751 0.959 . S
C766 H752 0.961 1_554 S
C766 C765 1.502 . S
C767 H753 0.960 1_554 S
C767 H754 0.961 . S
C767 H755 0.959 . S
C767 C765 1.561 . S
C768 C765 1.526 . S
C768 C769 1.396 1_565 S
C768 C773 1.390 . S
C769 C763 1.465 1_554 S
C769 C768 1.396 1_545 S
C769 C770 1.399 . S
C770 H756 0.929 . S
C770 C769 1.399 . S
C770 C771 1.385 . S
C771 H757 0.931 . S
C771 C770 1.385 . S
C771 C772 1.389 . S
C772 C771 1.389 . S
C772 C773 1.387 1_545 S
C773 H758 0.930 . S
C773 C768 1.390 . S
C773 C772 1.387 1_565 S
H774 C786 0.930 . S
H775 C788 0.930 . S
H776 C789 0.930 . S
H777 C793 0.959 . S
H778 C793 0.959 . S
H779 C793 0.961 . S
H780 C794 0.960 . S
H781 C794 0.961 . S
H782 C794 0.959 . S
H783 C797 0.929 . S
H784 C798 0.931 . S
H785 C800 0.930 . S
C786 H774 0.930 . S
C786 C787 1.399 . S
C786 C791 1.399 . S
C787 C786 1.399 . S
C787 C788 1.376 . S
C788 H775 0.930 . S
C788 C787 1.376 . S
C788 C789 1.388 . S
C789 H776 0.930 . S
C789 C788 1.388 . S
C789 C790 1.390 . S
C790 C789 1.390 . S
C790 C791 1.394 . S
C790 C796 1.465 . S
C791 C786 1.399 . S
C791 C790 1.394 . S
C791 C792 1.516 . S
C792 C791 1.516 . S
C792 C793 1.502 . S
C792 C794 1.561 . S
C792 C795 1.526 . S
C793 H777 0.959 . S
C793 H778 0.959 . S
C793 H779 0.961 . S
C793 C792 1.502 . S
C794 H780 0.960 . S
C794 H781 0.961 . S
C794 H782 0.959 . S
C794 C792 1.561 . S
C795 C792 1.526 . S
C795 C796 1.396 . S
C795 C800 1.390 . S
C796 C790 1.465 . S
C796 C795 1.396 . S
C796 C797 1.399 . S
C797 H783 0.929 . S
C797 C796 1.399 . S
C797 C798 1.385 . S
C798 H784 0.931 . S
C798 C797 1.385 . S
C798 C799 1.389 . S
C799 C798 1.389 . S
C799 C800 1.387 . S
C800 H785 0.930 . S
C800 C795 1.390 . S
C800 C799 1.387 . S
H801 C813 0.930 . S
H802 C815 0.930 . S
H803 C816 0.934 1_455 S
H804 C820 0.959 . S
H805 C820 0.960 1_655 S
H806 C820 0.961 1_655 S
H807 C821 0.960 . S
H808 C821 0.961 . S
H809 C821 0.959 . S
H810 C824 0.929 . S
H811 C825 0.931 . S
H812 C827 0.930 . S
C813 H801 0.930 . S
C813 C814 1.399 . S
C813 C818 1.399 . S
C814 C813 1.399 . S
C814 C815 1.376 . S
C815 H802 0.930 . S
C815 C814 1.376 . S
C815 C816 1.391 . S
C816 H803 0.934 1_655 S
C816 C815 1.391 . S
C816 C817 1.384 . S
C817 C816 1.384 . S
C817 C818 1.394 . S
C817 C823 1.465 1_655 S
C818 C813 1.399 . S
C818 C817 1.394 . S
C818 C819 1.516 . S
C819 C818 1.516 . S
C819 C820 1.502 1_655 S
C819 C821 1.561 . S
C819 C822 1.527 . S
C820 H804 0.959 . S
C820 H805 0.960 1_455 S
C820 H806 0.961 1_455 S
C820 C819 1.502 1_455 S
C821 H807 0.960 . S
C821 H808 0.961 . S
C821 H809 0.959 . S
C821 C819 1.561 . S
C822 C819 1.527 . S
C822 C823 1.405 1_655 S
C822 C827 1.382 1_655 S
C823 C817 1.465 1_455 S
C823 C822 1.405 1_455 S
C823 C824 1.399 . S
C824 H810 0.929 . S
C824 C823 1.399 . S
C824 C825 1.385 . S
C825 H811 0.931 . S
C825 C824 1.385 . S
C825 C826 1.389 . S
C826 C825 1.389 . S
C826 C827 1.387 . S
C827 H812 0.930 . S
C827 C822 1.382 1_455 S
C827 C826 1.387 . S
H828 C840 0.930 . S
H829 C842 0.930 . S
H830 C843 0.930 . S
H831 C847 0.959 . S
H832 C847 0.959 . S
H833 C847 0.961 . S
H834 C848 0.960 . S
H835 C848 0.961 . S
H836 C848 0.959 . S
H837 C851 0.929 . S
H838 C852 0.931 . S
H839 C854 0.930 . S
C840 H828 0.930 . S
C840 C841 1.399 . S
C840 C845 1.399 . S
C841 C840 1.399 . S
C841 C842 1.376 1_565 S
C842 H829 0.930 . S
C842 C841 1.376 1_545 S
C842 C843 1.388 . S
C843 H830 0.930 . S
C843 C842 1.388 . S
C843 C844 1.390 . S
C844 C843 1.390 . S
C844 C845 1.394 1_545 S
C844 C850 1.465 . S
C845 C840 1.399 . S
C845 C844 1.394 1_565 S
C845 C846 1.516 . S
C846 C845 1.516 . S
C846 C847 1.502 . S
C846 C848 1.561 . S
C846 C849 1.526 . S
C847 H831 0.959 . S
C847 H832 0.959 . S
C847 H833 0.961 . S
C847 C846 1.502 . S
C848 H834 0.960 . S
C848 H835 0.961 . S
C848 H836 0.959 . S
C848 C846 1.561 . S
C849 C846 1.526 . S
C849 C850 1.396 1_565 S
C849 C854 1.390 . S
C850 C844 1.465 . S
C850 C849 1.396 1_545 S
C850 C851 1.399 . S
C851 H837 0.929 . S
C851 C850 1.399 . S
C851 C852 1.385 . S
C852 H838 0.931 . S
C852 C851 1.385 . S
C852 C853 1.389 . S
C853 C852 1.389 . S
C853 C854 1.387 1_545 S
C854 H839 0.930 . S
C854 C849 1.390 . S
C854 C853 1.387 1_565 S
H855 C867 0.930 . S
H856 C869 0.930 . S
H857 C870 0.930 . S
H858 C874 0.959 . S
H859 C874 0.959 . S
H860 C874 0.961 . S
H861 C875 0.960 . S
H862 C875 0.961 . S
H863 C875 0.959 . S
H864 C878 0.929 . S
H865 C879 0.931 . S
H866 C881 0.930 . S
C867 H855 0.930 . S
C867 C868 1.399 . S
C867 C872 1.399 . S
C868 C867 1.399 . S
C868 C869 1.376 . S
C869 H856 0.930 . S
C869 C868 1.376 . S
C869 C870 1.388 . S
C870 H857 0.930 . S
C870 C869 1.388 . S
C870 C871 1.390 . S
C871 C870 1.390 . S
C871 C872 1.394 . S
C871 C877 1.465 . S
C872 C867 1.399 . S
C872 C871 1.394 . S
C872 C873 1.516 . S
C873 C872 1.516 . S
C873 C874 1.502 . S
C873 C875 1.561 . S
C873 C876 1.526 . S
C874 H858 0.959 . S
C874 H859 0.959 . S
C874 H860 0.961 . S
C874 C873 1.502 . S
C875 H861 0.960 . S
C875 H862 0.961 . S
C875 H863 0.959 . S
C875 C873 1.561 . S
C876 C873 1.526 . S
C876 C877 1.396 . S
C876 C881 1.390 . S
C877 C871 1.465 . S
C877 C876 1.396 . S
C877 C878 1.399 . S
C878 H864 0.929 . S
C878 C877 1.399 . S
C878 C879 1.385 . S
C879 H865 0.931 . S
C879 C878 1.385 . S
C879 C880 1.389 . S
C880 C879 1.389 . S
C880 C881 1.387 . S
C881 H866 0.930 . S
C881 C876 1.390 . S
C881 C880 1.387 . S
H882 C894 0.930 . S
H883 C896 0.930 . S
H884 C897 0.930 . S
H885 C901 0.959 . S
H886 C901 0.959 . S
H887 C901 0.961 . S
H888 C902 0.960 . S
H889 C902 0.961 . S
H890 C902 0.959 . S
H891 C905 0.929 . S
H892 C906 0.931 . S
H893 C908 0.930 . S
C894 H882 0.930 . S
C894 C895 1.399 . S
C894 C899 1.399 . S
C895 C894 1.399 . S
C895 C896 1.376 . S
C896 H883 0.930 . S
C896 C895 1.376 . S
C896 C897 1.388 . S
C897 H884 0.930 . S
C897 C896 1.388 . S
C897 C898 1.390 . S
C898 C897 1.390 . S
C898 C899 1.394 . S
C898 C904 1.465 . S
C899 C894 1.399 . S
C899 C898 1.394 . S
C899 C900 1.516 . S
C900 C899 1.516 . S
C900 C901 1.502 1_556 S
C900 C902 1.561 . S
C900 C903 1.526 . S
C901 H885 0.959 . S
C901 H886 0.959 . S
C901 H887 0.961 . S
C901 C900 1.502 1_554 S
C902 H888 0.960 . S
C902 H889 0.961 . S
C902 H890 0.959 . S
C902 C900 1.561 . S
C903 C900 1.526 . S
C903 C904 1.396 . S
C903 C908 1.390 1_556 S
C904 C898 1.465 . S
C904 C903 1.396 . S
C904 C905 1.399 . S
C905 H891 0.929 . S
C905 C904 1.399 . S
C905 C906 1.385 . S
C906 H892 0.931 . S
C906 C905 1.385 . S
C906 C907 1.389 1_556 S
C907 C906 1.389 1_554 S
C907 C908 1.387 . S
C908 H893 0.930 . S
C908 C903 1.390 1_554 S
C908 C907 1.387 . S
H909 C921 0.930 . S
H910 C923 0.930 1_455 S
H911 C924 0.930 . S
H912 C928 0.959 . S
H913 C928 0.959 . S
H914 C928 0.961 . S
H915 C929 0.960 . S
H916 C929 0.961 . S
H917 C929 0.959 . S
H918 C932 0.929 . S
H919 C933 0.931 . S
H920 C935 0.930 . S
C921 H909 0.930 . S
C921 C922 1.399 . S
C921 C926 1.399 . S
C922 C921 1.399 . S
C922 C923 1.376 . S
C923 H910 0.930 1_655 S
C923 C922 1.376 . S
C923 C924 1.388 . S
C924 H911 0.930 . S
C924 C923 1.388 . S
C924 C925 1.390 . S
C925 C924 1.390 . S
C925 C926 1.394 . S
C925 C931 1.465 . S
C926 C921 1.399 . S
C926 C925 1.394 . S
C926 C927 1.516 . S
C927 C926 1.516 . S
C927 C928 1.502 . S
C927 C929 1.561 . S
C927 C930 1.526 . S
C928 H912 0.959 . S
C928 H913 0.959 . S
C928 H914 0.961 . S
C928 C927 1.502 . S
C929 H915 0.960 . S
C929 H916 0.961 . S
C929 H917 0.959 . S
C929 C927 1.561 . S
C930 C927 1.526 . S
C930 C931 1.396 . S
C930 C935 1.390 . S
C931 C925 1.465 . S
C931 C930 1.396 . S
C931 C932 1.399 . S
C932 H918 0.929 . S
C932 C931 1.399 . S
C932 C933 1.385 . S
C933 H919 0.931 . S
C933 C932 1.385 . S
C933 C934 1.389 . S
C934 C933 1.389 . S
C934 C935 1.387 . S
C935 H920 0.930 . S
C935 C930 1.390 . S
C935 C934 1.387 . S
H936 C948 0.930 . S
H937 C950 0.930 . S
H938 C951 0.930 . S
H939 C955 0.959 . S
H940 C955 0.959 . S
H941 C955 0.961 . S
H942 C956 0.960 . S
H943 C956 0.961 . S
H944 C956 0.959 . S
H945 C959 0.929 . S
H946 C960 0.931 . S
H947 C962 0.930 . S
C948 H936 0.930 . S
C948 C949 1.399 . S
C948 C953 1.399 . S
C949 C948 1.399 . S
C949 C950 1.376 . S
C950 H937 0.930 . S
C950 C949 1.376 . S
C950 C951 1.388 . S
C951 H938 0.930 . S
C951 C950 1.388 . S
C951 C952 1.390 . S
C952 C951 1.390 . S
C952 C953 1.394 . S
C952 C958 1.465 . S
C953 C948 1.399 . S
C953 C952 1.394 . S
C953 C954 1.516 . S
C954 C953 1.516 . S
C954 C955 1.502 . S
C954 C956 1.561 . S
C954 C957 1.526 . S
C955 H939 0.959 . S
C955 H940 0.959 . S
C955 H941 0.961 . S
C955 C954 1.502 . S
C956 H942 0.960 . S
C956 H943 0.961 . S
C956 H944 0.959 . S
C956 C954 1.561 . S
C957 C954 1.526 . S
C957 C958 1.396 . S
C957 C962 1.390 . S
C958 C952 1.465 . S
C958 C957 1.396 . S
C958 C959 1.399 . S
C959 H945 0.929 . S
C959 C958 1.399 . S
C959 C960 1.385 . S
C960 H946 0.931 . S
C960 C959 1.385 . S
C960 C961 1.389 . S
C961 C960 1.389 . S
C961 C962 1.387 . S
C962 H947 0.930 . S
C962 C957 1.390 . S
C962 C961 1.387 . S
H963 C975 0.930 . S
H964 C977 0.930 . S
H965 C978 0.930 . S
H966 C982 0.959 . S
H967 C982 0.959 . S
H968 C982 0.961 . S
H969 C983 0.960 . S
H970 C983 0.961 . S
H971 C983 0.959 . S
H972 C986 0.929 . S
H973 C987 0.931 . S
H974 C989 0.930 . S
C975 H963 0.930 . S
C975 C976 1.399 . S
C975 C980 1.399 . S
C976 C975 1.399 . S
C976 C977 1.376 . S
C977 H964 0.930 . S
C977 C976 1.376 . S
C977 C978 1.388 . S
C978 H965 0.930 . S
C978 C977 1.388 . S
C978 C979 1.390 . S
C979 C978 1.390 . S
C979 C980 1.394 . S
C979 C985 1.465 . S
C980 C975 1.399 . S
C980 C979 1.394 . S
C980 C981 1.516 . S
C981 C980 1.516 . S
C981 C982 1.502 . S
C981 C983 1.561 . S
C981 C984 1.526 . S
C982 H966 0.959 . S
C982 H967 0.959 . S
C982 H968 0.961 . S
C982 C981 1.502 . S
C983 H969 0.960 . S
C983 H970 0.961 . S
C983 H971 0.959 . S
C983 C981 1.561 . S
C984 C981 1.526 . S
C984 C985 1.396 . S
C984 C989 1.390 . S
C985 C979 1.465 . S
C985 C984 1.396 . S
C985 C986 1.399 . S
C986 H972 0.929 . S
C986 C985 1.399 . S
C986 C987 1.385 . S
C987 H973 0.931 . S
C987 C986 1.385 . S
C987 C988 1.389 . S
C988 C987 1.389 . S
C988 C989 1.387 . S
C989 H974 0.930 . S
C989 C984 1.390 . S
C989 C988 1.387 . S
H990 C1002 0.930 . S
H991 C1004 0.930 . S
H992 C1005 0.930 . S
H993 C1009 0.959 . S
H994 C1009 0.959 . S
H995 C1009 0.961 . S
H996 C1010 0.960 . S
H997 C1010 0.961 . S
H998 C1010 0.959 . S
H999 C1013 0.929 . S
H1000 C1014 0.931 . S
H1001 C1016 0.930 . S
C1002 H990 0.930 . S
C1002 C1003 1.399 . S
C1002 C1007 1.399 . S
C1003 C1002 1.399 . S
C1003 C1004 1.376 . S
C1004 H991 0.930 . S
C1004 C1003 1.376 . S
C1004 C1005 1.388 . S
C1005 H992 0.930 . S
C1005 C1004 1.388 . S
C1005 C1006 1.390 . S
C1006 C1005 1.390 . S
C1006 C1007 1.394 . S
C1006 C1012 1.465 . S
C1007 C1002 1.399 . S
C1007 C1006 1.394 . S
C1007 C1008 1.516 . S
C1008 C1007 1.516 . S
C1008 C1009 1.502 . S
C1008 C1010 1.561 . S
C1008 C1011 1.526 . S
C1009 H993 0.959 . S
C1009 H994 0.959 . S
C1009 H995 0.961 . S
C1009 C1008 1.502 . S
C1010 H996 0.960 . S
C1010 H997 0.961 . S
C1010 H998 0.959 . S
C1010 C1008 1.561 . S
C1011 C1008 1.526 . S
C1011 C1012 1.396 . S
C1011 C1016 1.390 . S
C1012 C1006 1.465 . S
C1012 C1011 1.396 . S
C1012 C1013 1.399 . S
C1013 H999 0.929 . S
C1013 C1012 1.399 . S
C1013 C1014 1.385 . S
C1014 H1000 0.931 . S
C1014 C1013 1.385 . S
C1014 C1015 1.389 . S
C1015 C1014 1.389 . S
C1015 C1016 1.387 . S
C1016 H1001 0.930 . S
C1016 C1011 1.390 . S
C1016 C1015 1.387 . S
H1017 C1029 0.930 . S
H1018 C1031 0.930 . S
H1019 C1032 0.930 . S
H1020 C1036 0.959 . S
H1021 C1036 0.959 . S
H1022 C1036 0.961 . S
H1023 C1037 0.960 . S
H1024 C1037 0.961 . S
H1025 C1037 0.959 . S
H1026 C1040 0.929 . S
H1027 C1041 0.931 . S
H1028 C1043 0.930 . S
C1029 H1017 0.930 . S
C1029 C1030 1.399 . S
C1029 C1034 1.399 . S
C1030 C1029 1.399 . S
C1030 C1031 1.376 . S
C1031 H1018 0.930 . S
C1031 C1030 1.376 . S
C1031 C1032 1.388 . S
C1032 H1019 0.930 . S
C1032 C1031 1.388 . S
C1032 C1033 1.390 . S
C1033 C1032 1.390 . S
C1033 C1034 1.394 . S
C1033 C1039 1.465 . S
C1034 C1029 1.399 . S
C1034 C1033 1.394 . S
C1034 C1035 1.516 . S
C1035 C1034 1.516 . S
C1035 C1036 1.502 . S
C1035 C1037 1.561 . S
C1035 C1038 1.526 . S
C1036 H1020 0.959 . S
C1036 H1021 0.959 . S
C1036 H1022 0.961 . S
C1036 C1035 1.502 . S
C1037 H1023 0.960 . S
C1037 H1024 0.961 . S
C1037 H1025 0.959 . S
C1037 C1035 1.561 . S
C1038 C1035 1.526 . S
C1038 C1039 1.396 . S
C1038 C1043 1.390 . S
C1039 C1033 1.465 . S
C1039 C1038 1.396 . S
C1039 C1040 1.399 . S
C1040 H1026 0.929 . S
C1040 C1039 1.399 . S
C1040 C1041 1.385 . S
C1041 H1027 0.931 . S
C1041 C1040 1.385 . S
C1041 C1042 1.389 . S
C1042 C1041 1.389 . S
C1042 C1043 1.387 . S
C1043 H1028 0.930 . S
C1043 C1038 1.390 . S
C1043 C1042 1.387 . S
H1044 C1056 0.930 . S
H1045 C1058 0.930 . S
H1046 C1059 0.930 . S
H1047 C1063 0.959 . S
H1048 C1063 0.959 . S
H1049 C1063 0.961 . S
H1050 C1064 0.960 . S
H1051 C1064 0.961 . S
H1052 C1064 0.959 . S
H1053 C1067 0.929 . S
H1054 C1068 0.931 . S
H1055 C1070 0.930 . S
C1056 H1044 0.930 . S
C1056 C1057 1.399 . S
C1056 C1061 1.399 . S
C1057 C1056 1.399 . S
C1057 C1058 1.376 . S
C1058 H1045 0.930 . S
C1058 C1057 1.376 . S
C1058 C1059 1.388 . S
C1059 H1046 0.930 . S
C1059 C1058 1.388 . S
C1059 C1060 1.390 . S
C1060 C1059 1.390 . S
C1060 C1061 1.394 . S
C1060 C1066 1.465 . S
C1061 C1056 1.399 . S
C1061 C1060 1.394 . S
C1061 C1062 1.516 . S
C1062 C1061 1.516 . S
C1062 C1063 1.502 . S
C1062 C1064 1.561 . S
C1062 C1065 1.526 . S
C1063 H1047 0.959 . S
C1063 H1048 0.959 . S
C1063 H1049 0.961 . S
C1063 C1062 1.502 . S
C1064 H1050 0.960 . S
C1064 H1051 0.961 . S
C1064 H1052 0.959 . S
C1064 C1062 1.561 . S
C1065 C1062 1.526 . S
C1065 C1066 1.396 . S
C1065 C1070 1.390 . S
C1066 C1060 1.465 . S
C1066 C1065 1.396 . S
C1066 C1067 1.399 . S
C1067 H1053 0.929 . S
C1067 C1066 1.399 . S
C1067 C1068 1.385 . S
C1068 H1054 0.931 . S
C1068 C1067 1.385 . S
C1068 C1069 1.389 . S
C1069 C1068 1.389 . S
C1069 C1070 1.387 . S
C1070 H1055 0.930 . S
C1070 C1065 1.390 . S
C1070 C1069 1.387 . S
H1071 C1083 0.930 . S
H1072 C1085 0.930 . S
H1073 C1086 0.930 . S
H1074 C1090 0.959 . S
H1075 C1090 0.959 . S
H1076 C1090 0.961 . S
H1077 C1091 0.960 . S
H1078 C1091 0.961 . S
H1079 C1091 0.959 . S
H1080 C1094 0.929 1_556 S
H1081 C1095 0.931 1_455 S
H1082 C1097 0.930 . S
C1083 H1071 0.930 . S
C1083 C1084 1.399 1_554 S
C1083 C1088 1.399 . S
C1084 C1083 1.399 1_556 S
C1084 C1085 1.376 . S
C1085 H1072 0.930 . S
C1085 C1084 1.376 . S
C1085 C1086 1.388 . S
C1086 H1073 0.930 . S
C1086 C1085 1.388 . S
C1086 C1087 1.390 1_556 S
C1087 C1086 1.390 1_554 S
C1087 C1088 1.394 . S
C1087 C1093 1.465 . S
C1088 C1083 1.399 . S
C1088 C1087 1.394 . S
C1088 C1089 1.516 . S
C1089 C1088 1.516 . S
C1089 C1090 1.502 . S
C1089 C1091 1.561 . S
C1089 C1092 1.526 . S
C1090 H1074 0.959 . S
C1090 H1075 0.959 . S
C1090 H1076 0.961 . S
C1090 C1089 1.502 . S
C1091 H1077 0.960 . S
C1091 H1078 0.961 . S
C1091 H1079 0.959 . S
C1091 C1089 1.561 . S
C1092 C1089 1.526 . S
C1092 C1093 1.396 . S
C1092 C1097 1.390 . S
C1093 C1087 1.465 . S
C1093 C1092 1.396 . S
C1093 C1094 1.399 . S
C1094 H1080 0.929 1_554 S
C1094 C1093 1.399 . S
C1094 C1095 1.385 . S
C1095 H1081 0.931 1_655 S
C1095 C1094 1.385 . S
C1095 C1096 1.389 . S
C1096 C1095 1.389 . S
C1096 C1097 1.387 . S
C1097 H1082 0.930 . S
C1097 C1092 1.390 . S
C1097 C1096 1.387 . S
H1098 C1110 0.930 . S
H1099 C1112 0.930 . S
H1100 C1113 0.930 . S
H1101 C1117 0.959 . S
H1102 C1117 0.959 . S
H1103 C1117 0.961 . S
H1104 C1118 0.960 . S
H1105 C1118 0.961 . S
H1106 C1118 0.959 . S
H1107 C1121 0.929 . S
H1108 C1122 0.931 . S
H1109 C1124 0.930 . S
C1110 H1098 0.930 . S
C1110 C1111 1.399 . S
C1110 C1115 1.399 . S
C1111 C1110 1.399 . S
C1111 C1112 1.376 . S
C1112 H1099 0.930 . S
C1112 C1111 1.376 . S
C1112 C1113 1.388 . S
C1113 H1100 0.930 . S
C1113 C1112 1.388 . S
C1113 C1114 1.390 . S
C1114 C1113 1.390 . S
C1114 C1115 1.394 . S
C1114 C1120 1.465 . S
C1115 C1110 1.399 . S
C1115 C1114 1.394 . S
C1115 C1116 1.516 . S
C1116 C1115 1.516 . S
C1116 C1117 1.502 . S
C1116 C1118 1.561 . S
C1116 C1119 1.526 . S
C1117 H1101 0.959 . S
C1117 H1102 0.959 . S
C1117 H1103 0.961 . S
C1117 C1116 1.502 . S
C1118 H1104 0.960 . S
C1118 H1105 0.961 . S
C1118 H1106 0.959 . S
C1118 C1116 1.561 . S
C1119 C1116 1.526 . S
C1119 C1120 1.396 . S
C1119 C1124 1.390 . S
C1120 C1114 1.465 . S
C1120 C1119 1.396 . S
C1120 C1121 1.399 . S
C1121 H1107 0.929 . S
C1121 C1120 1.399 . S
C1121 C1122 1.385 . S
C1122 H1108 0.931 . S
C1122 C1121 1.385 . S
C1122 C1123 1.389 . S
C1123 C1122 1.389 . S
C1123 C1124 1.387 . S
C1124 H1109 0.930 . S
C1124 C1119 1.390 . S
C1124 C1123 1.387 . S
H1125 C1137 0.930 . S
H1126 C1139 0.930 . S
H1127 C1140 0.930 . S
H1128 C1144 0.959 . S
H1129 C1144 0.959 . S
H1130 C1144 0.961 . S
H1131 C1145 0.960 . S
H1132 C1145 0.961 . S
H1133 C1145 0.959 . S
H1134 C1148 0.929 . S
H1135 C1149 0.931 . S
H1136 C1151 0.930 . S
C1137 H1125 0.930 . S
C1137 C1138 1.399 . S
C1137 C1142 1.399 . S
C1138 C1137 1.399 . S
C1138 C1139 1.376 . S
C1139 H1126 0.930 . S
C1139 C1138 1.376 . S
C1139 C1140 1.388 . S
C1140 H1127 0.930 . S
C1140 C1139 1.388 . S
C1140 C1141 1.390 . S
C1141 C1140 1.390 . S
C1141 C1142 1.394 . S
C1141 C1147 1.465 . S
C1142 C1137 1.399 . S
C1142 C1141 1.394 . S
C1142 C1143 1.516 . S
C1143 C1142 1.516 . S
C1143 C1144 1.502 . S
C1143 C1145 1.561 . S
C1143 C1146 1.526 . S
C1144 H1128 0.959 . S
C1144 H1129 0.959 . S
C1144 H1130 0.961 . S
C1144 C1143 1.502 . S
C1145 H1131 0.960 . S
C1145 H1132 0.961 . S
C1145 H1133 0.959 . S
C1145 C1143 1.561 . S
C1146 C1143 1.526 . S
C1146 C1147 1.396 . S
C1146 C1151 1.390 . S
C1147 C1141 1.465 . S
C1147 C1146 1.396 . S
C1147 C1148 1.399 . S
C1148 H1134 0.929 . S
C1148 C1147 1.399 . S
C1148 C1149 1.385 . S
C1149 H1135 0.931 . S
C1149 C1148 1.385 . S
C1149 C1150 1.389 . S
C1150 C1149 1.389 . S
C1150 C1151 1.387 . S
C1151 H1136 0.930 . S
C1151 C1146 1.390 . S
C1151 C1150 1.387 . S
H1152 C1164 0.930 . S
H1153 C1166 0.930 . S
H1154 C1167 0.930 . S
H1155 C1171 0.959 . S
H1156 C1171 0.959 . S
H1157 C1171 0.961 . S
H1158 C1172 0.960 . S
H1159 C1172 0.961 . S
H1160 C1172 0.959 . S
H1161 C1175 0.929 . S
H1162 C1176 0.931 . S
H1163 C1178 0.930 . S
C1164 H1152 0.930 . S
C1164 C1165 1.399 . S
C1164 C1169 1.399 . S
C1165 C1164 1.399 . S
C1165 C1166 1.376 . S
C1166 H1153 0.930 . S
C1166 C1165 1.376 . S
C1166 C1167 1.388 . S
C1167 H1154 0.930 . S
C1167 C1166 1.388 . S
C1167 C1168 1.390 . S
C1168 C1167 1.390 . S
C1168 C1169 1.394 . S
C1168 C1174 1.465 . S
C1169 C1164 1.399 . S
C1169 C1168 1.394 . S
C1169 C1170 1.516 . S
C1170 C1169 1.516 . S
C1170 C1171 1.502 . S
C1170 C1172 1.561 . S
C1170 C1173 1.526 . S
C1171 H1155 0.959 . S
C1171 H1156 0.959 . S
C1171 H1157 0.961 . S
C1171 C1170 1.502 . S
C1172 H1158 0.960 . S
C1172 H1159 0.961 . S
C1172 H1160 0.959 . S
C1172 C1170 1.561 . S
C1173 C1170 1.526 . S
C1173 C1174 1.396 . S
C1173 C1178 1.390 . S
C1174 C1168 1.465 . S
C1174 C1173 1.396 . S
C1174 C1175 1.399 . S
C1175 H1161 0.929 . S
C1175 C1174 1.399 . S
C1175 C1176 1.385 . S
C1176 H1162 0.931 . S
C1176 C1175 1.385 . S
C1176 C1177 1.389 . S
C1177 C1176 1.389 . S
C1177 C1178 1.387 . S
C1178 H1163 0.930 . S
C1178 C1173 1.390 . S
C1178 C1177 1.387 . S
H1179 C1191 0.930 . S
H1180 C1193 0.930 . S
H1181 C1194 0.930 . S
H1182 C1198 0.959 . S
H1183 C1198 0.959 . S
H1184 C1198 0.961 . S
H1185 C1199 0.960 . S
H1186 C1199 0.961 . S
H1187 C1199 0.959 . S
H1188 C1202 0.929 . S
H1189 C1203 0.931 . S
H1190 C1205 0.930 . S
C1191 H1179 0.930 . S
C1191 C1192 1.399 . S
C1191 C1196 1.399 . S
C1192 C1191 1.399 . S
C1192 C1193 1.376 . S
C1193 H1180 0.930 . S
C1193 C1192 1.376 . S
C1193 C1194 1.388 . S
C1194 H1181 0.930 . S
C1194 C1193 1.388 . S
C1194 C1195 1.390 . S
C1195 C1194 1.390 . S
C1195 C1196 1.394 . S
C1195 C1201 1.465 . S
C1196 C1191 1.399 . S
C1196 C1195 1.394 . S
C1196 C1197 1.516 . S
C1197 C1196 1.516 . S
C1197 C1198 1.502 . S
C1197 C1199 1.561 . S
C1197 C1200 1.526 . S
C1198 H1182 0.959 . S
C1198 H1183 0.959 . S
C1198 H1184 0.961 . S
C1198 C1197 1.502 . S
C1199 H1185 0.960 . S
C1199 H1186 0.961 . S
C1199 H1187 0.959 . S
C1199 C1197 1.561 . S
C1200 C1197 1.526 . S
C1200 C1201 1.396 . S
C1200 C1205 1.390 . S
C1201 C1195 1.465 . S
C1201 C1200 1.396 . S
C1201 C1202 1.399 . S
C1202 H1188 0.929 . S
C1202 C1201 1.399 . S
C1202 C1203 1.385 . S
C1203 H1189 0.931 . S
C1203 C1202 1.385 . S
C1203 C1204 1.389 . S
C1204 C1203 1.389 . S
C1204 C1205 1.387 . S
C1205 H1190 0.930 . S
C1205 C1200 1.390 . S
C1205 C1204 1.387 . S
C409 N343 1.074 . S
C421 N13 1.011 . S
C436 N46 1.014 . S
C448 N376 1.079 . S
C463 N79 1.008 . S
C475 N211 1.068 . S
C490 N112 1.089 . S
C502 N244 1.049 . S
C517 N145 1.019 . S
C529 N277 1.030 1_556 S
C544 N178 1.057 1_554 S
C556 N310 1.085 . S
C571 C21 1.430 . S
C583 C285 1.444 . S
C598 C318 1.453 . S
C610 C54 1.433 . S
C625 C87 1.430 . S
C637 C351 1.445 . S
C652 C120 1.430 . S
C664 C384 1.449 . S
C679 C153 1.445 . S
C691 C219 1.430 . S
C706 C186 1.454 . S
C718 C252 1.437 . S
C733 N365 1.255 . S
C745 N2 1.150 . S
C760 N200 1.215 . S
C772 N35 1.133 . S
C787 N233 1.159 . S
C799 N68 1.170 . S
C814 N101 1.164 . S
C826 N266 1.164 . S
C841 N134 1.213 . S
C853 N299 1.134 . S
C868 N332 1.233 . S
C880 N167 1.217 . S
C895 C172 1.975 . S
C907 C18 1.969 . S
C922 C7 1.977 1_655 S
C934 C51 1.974 . S
C949 C84 1.982 . S
C961 C40 1.958 1_565 S
C976 C73 1.953 . S
C988 C117 1.979 . S
C1003 C150 1.968 . S
C1015 C106 1.975 1_455 S
C1030 C183 1.982 . S
C1042 C139 1.959 1_545 S
C1057 C238 1.977 . S
C1069 C216 1.974 . S
C1084 C249 1.978 . S
C1096 C271 1.971 1_655 S
C1111 C282 1.969 . S
C1123 C304 1.977 1_565 S
C1138 C337 1.954 . S
C1150 C315 1.981 . S
C1165 C370 1.978 1_455 S
C1177 C348 1.970 . S
C1192 C381 1.968 . S
C1204 C205 1.974 1_545 S
