# Generated by pormake.
# Topology sni, (6)-cn, num edge types: 1
# Building blocks:
#     Node 0, Type 0, BuildingBlock: OJICUG_clean_sbu_0, # of connection points: 6
#     Node 1, Type 0, BuildingBlock: OJICUG_clean_sbu_0, # of connection points: 6
#     Node 2, Type 0, BuildingBlock: OJICUG_clean_sbu_0, # of connection points: 6
#     Node 3, Type 0, BuildingBlock: OJICUG_clean_sbu_0, # of connection points: 6
#     Node 4, Type 0, BuildingBlock: OJICUG_clean_sbu_0, # of connection points: 6
#     Node 5, Type 0, BuildingBlock: OJICUG_clean_sbu_0, # of connection points: 6
#     Node 6, Type 0, BuildingBlock: OJICUG_clean_sbu_0, # of connection points: 6
#     Node 7, Type 0, BuildingBlock: OJICUG_clean_sbu_0, # of connection points: 6
#     Edge 8, Type (0, 0), BuildingBlock: XUDNAN_clean_linker_2, # of connection points: 2
#     Edge 9, Type (0, 0), BuildingBlock: XUDNAN_clean_linker_2, # of connection points: 2
#     Edge 10, Type (0, 0), BuildingBlock: XUDNAN_clean_linker_2, # of connection points: 2
#     Edge 11, Type (0, 0), BuildingBlock: XUDNAN_clean_linker_2, # of connection points: 2
#     Edge 12, Type (0, 0), BuildingBlock: XUDNAN_clean_linker_2, # of connection points: 2
#     Edge 13, Type (0, 0), BuildingBlock: XUDNAN_clean_linker_2, # of connection points: 2
#     Edge 14, Type (0, 0), BuildingBlock: XUDNAN_clean_linker_2, # of connection points: 2
#     Edge 15, Type (0, 0), BuildingBlock: XUDNAN_clean_linker_2, # of connection points: 2
#     Edge 16, Type (0, 0), BuildingBlock: XUDNAN_clean_linker_2, # of connection points: 2
#     Edge 17, Type (0, 0), BuildingBlock: XUDNAN_clean_linker_2, # of connection points: 2
#     Edge 18, Type (0, 0), BuildingBlock: XUDNAN_clean_linker_2, # of connection points: 2
#     Edge 19, Type (0, 0), BuildingBlock: XUDNAN_clean_linker_2, # of connection points: 2
#     Edge 20, Type (0, 0), BuildingBlock: XUDNAN_clean_linker_2, # of connection points: 2
#     Edge 21, Type (0, 0), BuildingBlock: XUDNAN_clean_linker_2, # of connection points: 2
#     Edge 22, Type (0, 0), BuildingBlock: XUDNAN_clean_linker_2, # of connection points: 2
#     Edge 23, Type (0, 0), BuildingBlock: XUDNAN_clean_linker_2, # of connection points: 2
#     Edge 24, Type (0, 0), BuildingBlock: XUDNAN_clean_linker_2, # of connection points: 2
#     Edge 25, Type (0, 0), BuildingBlock: XUDNAN_clean_linker_2, # of connection points: 2
#     Edge 26, Type (0, 0), BuildingBlock: XUDNAN_clean_linker_2, # of connection points: 2
#     Edge 27, Type (0, 0), BuildingBlock: XUDNAN_clean_linker_2, # of connection points: 2
#     Edge 28, Type (0, 0), BuildingBlock: XUDNAN_clean_linker_2, # of connection points: 2
#     Edge 29, Type (0, 0), BuildingBlock: XUDNAN_clean_linker_2, # of connection points: 2
#     Edge 30, Type (0, 0), BuildingBlock: XUDNAN_clean_linker_2, # of connection points: 2
#     Edge 31, Type (0, 0), BuildingBlock: XUDNAN_clean_linker_2, # of connection points: 2
# Relax obj value: 0.093
# Max RMSD: 0.105
# Mean RMSD: 0.105
data_MOF--net-sni--node1-OJICUG_clean_sbu_0--edge1-XUDNAN_clean_linker_2
_symmetry_space_group_name_H-M    P1
_symmetry_Int_Tables_number       1
_symmetry_cell_setting            triclinic
loop_
_symmetry_equiv_pos_as_xyz
'x, y, z'
_cell_length_a     40.012678
_cell_length_b     40.369423
_cell_length_c     22.452568
_cell_angle_alpha  90.035
_cell_angle_beta   89.870769
_cell_angle_gamma 89.956924
loop_
_atom_site_label
_atom_site_type_symbol
_atom_site_fract_x
_atom_site_fract_y
_atom_site_fract_z
_atom_type_partial_charge
Sc0 Sc 0.61284 0.10215 0.98079 0.0
Sc1 Sc 0.69722 0.12548 -0.00294 0.0
Sc2 Sc 0.63534 0.18648 0.97622 0.0
O3 O 0.64846 0.13802 0.98463 0.0
C4 C 0.58806 0.15303 0.88046 0.0
C5 C 0.67237 0.07021 0.90564 0.0
C6 C 0.70403 0.18426 0.90361 0.0
C7 C 0.66089 0.07373 0.08192 0.0
C8 C 0.57614 0.15747 0.05725 0.0
C9 C 0.68918 0.18906 0.08015 0.0
O10 O 0.58837 0.12446 0.90451 0.0
O11 O 0.69556 0.08732 0.92924 0.0
O12 O 0.67574 0.19736 0.91462 0.0
O13 O 0.63254 0.0752 0.05651 0.0
O14 O 0.5934 0.18142 0.03682 0.0
O15 O 0.70401 0.16221 0.06637 0.0
O16 O 0.58067 0.12762 0.04145 0.0
O17 O 0.6858 0.0906 0.06493 0.0
O18 O 0.66468 0.20056 0.051 0.0
O19 O 0.64182 0.07319 0.92015 0.0
O20 O 0.60432 0.17738 0.90108 0.0
O21 O 0.71453 0.15872 0.93043 0.0
Sc22 Sc 0.89293 0.60857 0.01738 0.0
Sc23 Sc 0.87064 0.69203 -0.00602 0.0
Sc24 Sc 0.81048 0.62856 0.9838 0.0
O25 O 0.85812 0.64322 -0.00173 0.0
C26 C 0.85173 0.56955 0.92287 0.0
C27 C 0.93505 0.65908 0.93706 0.0
C28 C 0.82268 0.68081 0.88142 0.0
C29 C 0.90945 0.66588 0.10918 0.0
C30 C 0.82898 0.58367 0.09166 0.0
C31 C 0.79884 0.69698 0.05196 0.0
O32 O 0.88034 0.57814 0.94173 0.0
O33 O 0.91418 0.68271 0.94018 0.0
O34 O 0.81051 0.65373 0.90043 0.0
O35 O 0.90758 0.63559 0.09451 0.0
O36 O 0.80761 0.60213 0.06639 0.0
O37 O 0.82874 0.70713 0.04755 0.0
O38 O 0.85929 0.58159 0.07473 0.0
O39 O 0.8995 0.68962 0.07619 0.0
O40 O 0.78872 0.67044 0.02781 0.0
O41 O 0.93118 0.63176 0.96429 0.0
O42 O 0.82496 0.58412 0.93828 0.0
O43 O 0.8426 0.69883 0.91177 0.0
Sc44 Sc 0.30204 0.85584 0.98546 0.0
Sc45 Sc 0.36558 0.79569 -0.00495 0.0
Sc46 Sc 0.38615 0.88004 0.00236 0.0
O47 O 0.3512 0.84391 -0.00554 0.0
C48 C 0.33734 0.91143 0.90632 0.0
C49 C 0.31372 0.79847 0.88878 0.0
C50 C 0.42657 0.82854 0.92463 0.0
C51 C 0.29531 0.79094 0.06249 0.0
C52 C 0.32619 0.90771 0.08278 0.0
C53 C 0.40899 0.82597 0.09902 0.0
O54 O 0.31256 0.89386 0.922 0.0
O55 O 0.34006 0.78698 0.91281 0.0
O56 O 0.41952 0.8582 0.93846 0.0
O57 O 0.28506 0.81953 0.04818 0.0
O58 O 0.35667 0.90601 0.06701 0.0
O59 O 0.39241 0.80198 0.07713 0.0
O60 O 0.30315 0.89111 0.05775 0.0
O61 O 0.32299 0.77912 0.04491 0.0
O62 O 0.41011 0.85459 0.07518 0.0
O63 O 0.29642 0.82184 0.91149 0.0
O64 O 0.36591 0.90921 0.93055 0.0
O65 O 0.41027 0.80396 0.94432 0.0
Sc66 Sc 0.11041 0.39113 0.97319 0.0
Sc67 Sc 0.12969 0.30629 0.97986 0.0
Sc68 Sc 0.193 0.36611 0.00088 0.0
O69 O 0.14441 0.35442 0.98456 0.0
C70 C 0.17429 0.42322 0.91044 0.0
C71 C 0.09101 0.3401 0.87142 0.0
C72 C 0.20054 0.30468 0.91334 0.0
C73 C 0.06597 0.33786 0.04161 0.0
C74 C 0.15236 0.41653 0.08376 0.0
C75 C 0.18084 0.30471 0.08783 0.0
O76 O 0.14363 0.4217 0.92397 0.0
O77 O 0.10158 0.31515 0.90034 0.0
O78 O 0.21135 0.33092 0.93779 0.0
O79 O 0.07177 0.36619 0.01997 0.0
O80 O 0.17883 0.40194 0.06647 0.0
O81 O 0.15626 0.29318 0.05886 0.0
O82 O 0.12469 0.41462 0.05599 0.0
O83 O 0.08578 0.31349 0.03531 0.0
O84 O 0.19675 0.33053 0.07214 0.0
O85 O 0.0936 0.36978 0.89031 0.0
O86 O 0.19583 0.40335 0.93159 0.0
O87 O 0.17165 0.29282 0.92378 0.0
Sc88 Sc 0.63224 0.79519 0.49451 0.0
Sc89 Sc 0.69595 0.85517 0.48595 0.0
Sc90 Sc 0.61177 0.87958 0.50219 0.0
O91 O 0.64671 0.84336 0.49437 0.0
C92 C 0.57155 0.82834 0.4238 0.0
C93 C 0.68444 0.79834 0.3885 0.0
C94 C 0.6611 0.91122 0.40711 0.0
C95 C 0.70217 0.78991 0.56259 0.0
C96 C 0.58859 0.82543 0.59843 0.0
C97 C 0.67144 0.90681 0.58343 0.0
O98 O 0.5878 0.80369 0.44338 0.0
O99 O 0.70169 0.8216 0.41146 0.0
O100 O 0.63233 0.90874 0.43069 0.0
O101 O 0.67451 0.7783 0.54479 0.0
O102 O 0.5876 0.85409 0.57477 0.0
O103 O 0.69452 0.88997 0.55881 0.0
O104 O 0.60509 0.80138 0.57638 0.0
O105 O 0.71264 0.81843 0.54827 0.0
O106 O 0.64106 0.90545 0.56709 0.0
O107 O 0.65812 0.78668 0.41246 0.0
O108 O 0.57853 0.85794 0.438 0.0
O109 O 0.68587 0.89371 0.42307 0.0
Sc110 Sc 0.18763 0.62904 0.48153 0.0
Sc111 Sc 0.12754 0.69258 0.49431 0.0
Sc112 Sc 0.10525 0.60902 0.51584 0.0
O113 O 0.14006 0.64371 0.4972 0.0
C114 C 0.14588 0.57114 0.41879 0.0
C115 C 0.17507 0.68215 0.38089 0.0
C116 C 0.06299 0.66029 0.43737 0.0
C117 C 0.1994 0.69669 0.55219 0.0
C118 C 0.16952 0.58278 0.58763 0.0
C119 C 0.08924 0.66552 0.60947 0.0
O120 O 0.17282 0.58522 0.43446 0.0
O121 O 0.15533 0.70004 0.41198 0.0
O122 O 0.06676 0.63289 0.46438 0.0
O123 O 0.20949 0.67035 0.52709 0.0
O124 O 0.13909 0.58112 0.57138 0.0
O125 O 0.09877 0.6895 0.57665 0.0
O126 O 0.19078 0.60158 0.56284 0.0
O127 O 0.16955 0.70707 0.54798 0.0
O128 O 0.09119 0.63531 0.5942 0.0
O129 O 0.18741 0.65501 0.39914 0.0
O130 O 0.11739 0.57958 0.43866 0.0
O131 O 0.08399 0.68378 0.44048 0.0
Sc132 Sc 0.36436 0.18703 0.4797 0.0
Sc133 Sc 0.30214 0.12607 0.49763 0.0
Sc134 Sc 0.38636 0.10248 0.47909 0.0
O135 O 0.35095 0.13852 0.4853 0.0
C136 C 0.41101 0.15494 0.38089 0.0
C137 C 0.29502 0.18744 0.40995 0.0
C138 C 0.3264 0.07231 0.40284 0.0
C139 C 0.31116 0.18743 0.58555 0.0
C140 C 0.42382 0.15622 0.55722 0.0
C141 C 0.33838 0.07238 0.57867 0.0
O142 O 0.39488 0.17914 0.4028 0.0
O143 O 0.28457 0.1612 0.43458 0.0
O144 O 0.35694 0.0746 0.41766 0.0
O145 O 0.3356 0.19952 0.55674 0.0
O146 O 0.41896 0.12661 0.5405 0.0
O147 O 0.31346 0.08942 0.56235 0.0
O148 O 0.40668 0.18055 0.53817 0.0
O149 O 0.29604 0.1611 0.5699 0.0
O150 O 0.36687 0.07447 0.55378 0.0
O151 O 0.32361 0.19979 0.42066 0.0
O152 O 0.41058 0.12604 0.40367 0.0
O153 O 0.30337 0.08956 0.42691 0.0
Sc154 Sc 0.80706 0.36581 0.50078 0.0
Sc155 Sc 0.87079 0.30723 0.47116 0.0
Sc156 Sc 0.8897 0.39229 0.47926 0.0
O157 O 0.85582 0.35503 0.48371 0.0
C158 C 0.82659 0.42594 0.41698 0.0
C159 C 0.80081 0.3087 0.40347 0.0
C160 C 0.91131 0.3461 0.37112 0.0
C161 C 0.81824 0.3004 0.57757 0.0
C162 C 0.84592 0.41373 0.59054 0.0
C163 C 0.93197 0.336 0.54421 0.0
O164 O 0.80498 0.40562 0.43655 0.0
O165 O 0.82984 0.29675 0.41178 0.0
O166 O 0.90813 0.37449 0.39505 0.0
O167 O 0.80302 0.32734 0.56659 0.0
O168 O 0.8737 0.41314 0.56292 0.0
O169 O 0.91332 0.312 0.5291 0.0
O170 O 0.8199 0.39906 0.5717 0.0
O171 O 0.84278 0.29003 0.54671 0.0
O172 O 0.9268 0.36556 0.52767 0.0
O173 O 0.78949 0.33329 0.4325 0.0
O174 O 0.85724 0.42422 0.4307 0.0
O175 O 0.90063 0.31946 0.39445 0.0
H176 H 0.44728 0.11006 0.31443 0.0
H177 H 0.42367 0.2149 0.32861 0.0
H178 H 0.46209 0.2268 0.24571 0.0
H179 H 0.53346 0.11939 0.28361 0.0
H180 H 0.5355 0.08579 0.23083 0.0
H181 H 0.50484 0.08507 0.28958 0.0
H182 H 0.45754 0.07867 0.21169 0.0
H183 H 0.48812 0.07921 0.15268 0.0
H184 H 0.45403 0.10842 0.15218 0.0
H185 H 0.50579 0.22803 0.16561 0.0
H186 H 0.54957 0.21767 0.08996 0.0
H187 H 0.54347 0.11217 0.12674 0.0
C188 C 0.44993 0.13549 0.29984 0.0
C189 C 0.43243 0.16149 0.3283 0.0
C190 C 0.4367 0.19445 0.30763 0.0
C191 C 0.45852 0.20155 0.26054 0.0
C192 C 0.47573 0.17544 0.23413 0.0
C193 C 0.47147 0.14304 0.2526 0.0
C194 C 0.49334 0.11962 0.21711 0.0
C195 C 0.51826 0.10141 0.25771 0.0
C196 C 0.47198 0.09503 0.18129 0.0
C197 C 0.51093 0.14404 0.17665 0.0
C198 C 0.50044 0.1761 0.18711 0.0
C199 C 0.51401 0.20298 0.15653 0.0
C200 C 0.53893 0.19688 0.11383 0.0
C201 C 0.54983 0.16413 0.10207 0.0
C202 C 0.53548 0.13749 0.13405 0.0
H203 H 0.86779 0.56618 0.1849 0.0
H204 H 0.76744 0.55625 0.11472 0.0
H205 H 0.75303 0.51834 0.19787 0.0
H206 H 0.87955 0.48489 0.22489 0.0
H207 H 0.9026 0.49372 0.29192 0.0
H208 H 0.90317 0.52275 0.23133 0.0
H209 H 0.88195 0.56918 0.30189 0.0
H210 H 0.88144 0.54023 0.36296 0.0
H211 H 0.84412 0.56293 0.34415 0.0
H212 H 0.75264 0.47587 0.2823 0.0
H213 H 0.76567 0.4349 0.36113 0.0
H214 H 0.86568 0.47586 0.3753 0.0
C215 C 0.84263 0.55637 0.18743 0.0
C216 C 0.81876 0.5638 0.14347 0.0
C217 C 0.78601 0.55081 0.14835 0.0
C218 C 0.77765 0.52933 0.19532 0.0
C219 C 0.80215 0.52185 0.23735 0.0
C220 C 0.83383 0.53545 0.23412 0.0
C221 C 0.85634 0.52246 0.2825 0.0
C222 C 0.88721 0.50491 0.25605 0.0
C223 C 0.86655 0.55036 0.32542 0.0
C224 C 0.83291 0.49825 0.31208 0.0
C225 C 0.80164 0.49833 0.28612 0.0
C226 C 0.77685 0.47604 0.30367 0.0
C227 C 0.78448 0.45284 0.34838 0.0
C228 C 0.81669 0.45212 0.37446 0.0
C229 C 0.84075 0.47568 0.35662 0.0
H230 H 0.53881 0.87338 0.35315 0.0
H231 H 0.54181 0.76889 0.3992 0.0
H232 H 0.49739 0.7577 0.32613 0.0
H233 H 0.4482 0.87845 0.32672 0.0
H234 H 0.45311 0.9064 0.26477 0.0
H235 H 0.48298 0.90679 0.32471 0.0
H236 H 0.53101 0.89712 0.24893 0.0
H237 H 0.5013 0.89661 0.18891 0.0
H238 H 0.52914 0.86199 0.19944 0.0
H239 H 0.45515 0.75714 0.24452 0.0
H240 H 0.41904 0.76711 0.1575 0.0
H241 H 0.44416 0.87179 0.16385 0.0
C242 C 0.52978 0.84822 0.34859 0.0
C243 C 0.54375 0.82205 0.38207 0.0
C244 C 0.53155 0.78938 0.37403 0.0
C245 C 0.50621 0.78276 0.33284 0.0
C246 C 0.49329 0.80905 0.30009 0.0
C247 C 0.5046 0.84113 0.30746 0.0
C248 C 0.48796 0.86454 0.26403 0.0
C249 C 0.46681 0.89058 0.29705 0.0
C250 C 0.5139 0.88102 0.2229 0.0
C251 C 0.46612 0.84043 0.23027 0.0
C252 C 0.46923 0.80864 0.25226 0.0
C253 C 0.45228 0.78197 0.22711 0.0
C254 C 0.43184 0.7879 0.17766 0.0
C255 C 0.42877 0.82022 0.15364 0.0
C256 C 0.4459 0.84679 0.181 0.0
H257 H 0.10763 0.46252 0.12928 0.0
H258 H 0.2016 0.41251 0.16656 0.0
H259 H 0.20677 0.44354 0.25978 0.0
H260 H 0.13258 0.54128 0.18201 0.0
H261 H 0.09287 0.55195 0.21489 0.0
H262 H 0.09454 0.52389 0.15261 0.0
H263 H 0.06252 0.47976 0.21401 0.0
H264 H 0.0608 0.50772 0.27659 0.0
H265 H 0.07862 0.46699 0.28533 0.0
H266 H 0.20498 0.48172 0.34353 0.0
H267 H 0.19611 0.52663 0.41585 0.0
H268 H 0.1029 0.5526 0.32883 0.0
C269 C 0.12907 0.45789 0.15744 0.0
C270 C 0.15425 0.43516 0.14031 0.0
C271 C 0.18208 0.42998 0.1782 0.0
C272 C 0.1852 0.44731 0.2316 0.0
C273 C 0.16026 0.4697 0.24684 0.0
C274 C 0.13269 0.47516 0.21124 0.0
C275 C 0.11059 0.50213 0.2373 0.0
C276 C 0.10748 0.53155 0.19413 0.0
C277 C 0.07609 0.48831 0.25432 0.0
C278 C 0.13061 0.51135 0.29218 0.0
C279 C 0.15901 0.49202 0.2967 0.0
C280 C 0.18267 0.49683 0.34107 0.0
C281 C 0.17749 0.52247 0.38168 0.0
C282 C 0.14882 0.54289 0.37782 0.0
C283 C 0.12474 0.53693 0.33315 0.0
H284 H 0.55333 0.87133 0.66307 0.0
H285 H 0.5789 0.76669 0.65754 0.0
H286 H 0.54308 0.75695 0.7453 0.0
H287 H 0.54969 0.87869 0.82575 0.0
H288 H 0.51485 0.90699 0.82355 0.0
H289 H 0.54462 0.90622 0.76323 0.0
H290 H 0.49658 0.89599 0.6882 0.0
H291 H 0.46669 0.89667 0.74815 0.0
H292 H 0.4689 0.8613 0.69924 0.0
H293 H 0.50111 0.75771 0.82761 0.0
H294 H 0.45664 0.76907 0.90092 0.0
H295 H 0.45911 0.87336 0.85333 0.0
C296 C 0.55177 0.84638 0.68057 0.0
C297 C 0.56891 0.81976 0.65325 0.0
C298 C 0.56606 0.78752 0.67768 0.0
C299 C 0.54582 0.78172 0.72757 0.0
C300 C 0.52888 0.80845 0.75271 0.0
C301 C 0.53181 0.84018 0.73033 0.0
C302 C 0.50982 0.86433 0.76396 0.0
C303 C 0.53102 0.8906 0.79604 0.0
C304 C 0.48397 0.8805 0.7224 0.0
C305 C 0.49338 0.84102 0.80777 0.0
C306 C 0.50489 0.80896 0.80079 0.0
C307 C 0.49216 0.78276 0.83405 0.0
C308 C 0.4668 0.78948 0.87537 0.0
C309 C 0.45445 0.82214 0.88301 0.0
C310 C 0.46827 0.84822 0.84909 0.0
H311 H 0.13556 0.47367 0.87085 0.0
H312 H 0.23461 0.43099 0.85096 0.0
H313 H 0.24703 0.47187 0.77134 0.0
H314 H 0.11944 0.48265 0.72198 0.0
H315 H 0.09636 0.52079 0.72959 0.0
H316 H 0.09762 0.49188 0.79035 0.0
H317 H 0.12054 0.53776 0.86014 0.0
H318 H 0.11918 0.56696 0.79953 0.0
H319 H 0.15769 0.56016 0.83917 0.0
H320 H 0.24597 0.51509 0.68746 0.0
H321 H 0.23089 0.55406 0.60633 0.0
H322 H 0.13168 0.56465 0.68198 0.0
C323 C 0.16016 0.47301 0.85065 0.0
C324 C 0.18412 0.44903 0.8671 0.0
C325 C 0.21591 0.44924 0.83923 0.0
C326 C 0.22316 0.47238 0.7941 0.0
C327 C 0.19842 0.4951 0.77801 0.0
C328 C 0.1676 0.49553 0.80586 0.0
C329 C 0.144 0.52009 0.77777 0.0
C330 C 0.11253 0.5028 0.75347 0.0
C331 C 0.13483 0.54789 0.82178 0.0
C332 C 0.16588 0.53283 0.72821 0.0
C333 C 0.19743 0.5188 0.72948 0.0
C334 C 0.22144 0.52637 0.68645 0.0
C335 C 0.2127 0.54848 0.64067 0.0
C336 C 0.18007 0.56201 0.63797 0.0
C337 C 0.15671 0.5544 0.6828 0.0
H338 H 0.45414 0.1106 0.62922 0.0
H339 H 0.45313 0.21548 0.58588 0.0
H340 H 0.4972 0.22524 0.66068 0.0
H341 H 0.46388 0.12071 0.78511 0.0
H342 H 0.49076 0.08521 0.79397 0.0
H343 H 0.46059 0.08611 0.73465 0.0
H344 H 0.50776 0.07563 0.65764 0.0
H345 H 0.53814 0.07474 0.71672 0.0
H346 H 0.54329 0.10304 0.65532 0.0
H347 H 0.54038 0.22373 0.74017 0.0
H348 H 0.57798 0.2121 0.82385 0.0
H349 H 0.54986 0.10812 0.81765 0.0
C350 C 0.46339 0.1356 0.63494 0.0
C351 C 0.45036 0.16229 0.60143 0.0
C352 C 0.46275 0.19469 0.61104 0.0
C353 C 0.48786 0.20044 0.65319 0.0
C354 C 0.50009 0.17356 0.6854 0.0
C355 C 0.48818 0.14182 0.67707 0.0
C356 C 0.50448 0.11753 0.71946 0.0
C357 C 0.47837 0.10146 0.76074 0.0
C358 C 0.52461 0.09119 0.68523 0.0
C359 C 0.52725 0.1407 0.75338 0.0
C360 C 0.52454 0.1728 0.7325 0.0
C361 C 0.54277 0.19871 0.75692 0.0
C362 C 0.56411 0.19176 0.80452 0.0
C363 C 0.56688 0.15914 0.82764 0.0
C364 C 0.54835 0.13328 0.80115 0.0
H365 H 0.89609 0.54749 0.83733 0.0
H366 H 0.79943 0.52738 0.91779 0.0
H367 H 0.79024 0.48208 0.84656 0.0
H368 H 0.87027 0.53668 0.69033 0.0
H369 H 0.90795 0.51695 0.66402 0.0
H370 H 0.90964 0.545 0.72626 0.0
H371 H 0.93713 0.49937 0.79091 0.0
H372 H 0.93571 0.47119 0.72865 0.0
H373 H 0.91682 0.45975 0.7986 0.0
H374 H 0.78851 0.44324 0.76313 0.0
H375 H 0.79431 0.41191 0.66998 0.0
H376 H 0.89174 0.45668 0.64014 0.0
C377 C 0.87341 0.53297 0.84062 0.0
C378 C 0.84847 0.54082 0.88296 0.0
C379 C 0.81875 0.52184 0.88539 0.0
C380 C 0.81337 0.49593 0.84543 0.0
C381 C 0.83795 0.4893 0.80326 0.0
C382 C 0.86744 0.50706 0.80044 0.0
C383 C 0.88832 0.49635 0.74732 0.0
C384 C 0.89438 0.52548 0.70446 0.0
C385 C 0.92146 0.48074 0.7676 0.0
C386 C 0.86538 0.47062 0.72006 0.0
C387 C 0.83672 0.46673 0.7537 0.0
C388 C 0.81098 0.44571 0.73659 0.0
C389 C 0.81446 0.42817 0.68333 0.0
C390 C 0.84345 0.43187 0.64754 0.0
C391 C 0.86938 0.45316 0.66665 0.0
H392 H 0.94221 0.69643 0.8359 0.0
H393 H 0.99581 0.63053 0.95478 0.0
H394 H 0.04565 0.63439 0.89047 0.0
H395 H 0.97069 0.66071 0.70634 0.0
H396 H 0.97388 0.69844 0.6638 0.0
H397 H 0.9447 0.69581 0.72456 0.0
H398 H 0.97156 0.7476 0.77302 0.0
H399 H 0.00104 0.75027 0.71233 0.0
H400 H 0.01581 0.74795 0.788 0.0
H401 H 0.08608 0.63855 0.80876 0.0
H402 H 0.11367 0.63976 0.71056 0.0
H403 H 0.03489 0.70267 0.64205 0.0
C404 C 0.96479 0.68359 0.84909 0.0
C405 C 0.96535 0.66339 0.90044 0.0
C406 C 0.99492 0.64613 0.91557 0.0
C407 C 0.02343 0.64844 0.87966 0.0
C408 C 0.02195 0.66808 0.82876 0.0
C409 C 0.99339 0.68528 0.81319 0.0
C410 C 0.99703 0.70099 0.75217 0.0
C411 C 0.96999 0.6882 0.70921 0.0
C412 C 0.99632 0.73896 0.75668 0.0
C413 C 0.03149 0.68864 0.7348 0.0
C414 C 0.04566 0.67037 0.78042 0.0
C415 C 0.07571 0.65346 0.77326 0.0
C416 C 0.09119 0.65428 0.71747 0.0
C417 C 0.07662 0.67189 0.6697 0.0
C418 C 0.04697 0.69009 0.67876 0.0
H419 H 0.38549 0.0375 0.64393 0.0
H420 H 0.27851 0.05364 0.62486 0.0
H421 H 0.26773 0.01488 0.70631 0.0
H422 H 0.38041 0.95007 0.67778 0.0
H423 H 0.41342 0.95091 0.73226 0.0
H424 H 0.41353 0.98014 0.67167 0.0
H425 H 0.41625 0.02867 0.74706 0.0
H426 H 0.4161 -0.00042 0.80788 0.0
H427 H 0.38496 0.03181 0.8047 0.0
H428 H 0.26732 0.9746 0.7868 0.0
H429 H 0.27759 0.93443 0.86659 0.0
H430 H 0.38471 0.94372 0.83796 0.0
C431 C 0.35984 0.03278 0.65687 0.0
C432 C 0.3329 0.04871 0.62788 0.0
C433 C 0.29967 0.04198 0.64637 0.0
C434 C 0.29317 0.0199 0.69261 0.0
C435 C 0.32012 0.00474 0.72025 0.0
C436 C 0.3528 0.01079 0.70353 0.0
C437 C 0.37691 0.99105 0.74171 0.0
C438 C 0.39726 0.96659 0.70357 0.0
C439 C 0.39991 0.01417 0.77746 0.0
C440 C 0.35246 0.97304 0.78205 0.0
C441 C 0.3199 0.98137 0.76843 0.0
C442 C 0.29269 0.96782 0.79819 0.0
C443 C 0.29883 0.94493 0.84334 0.0
C444 C 0.33195 0.93591 0.85856 0.0
C445 C 0.35914 0.9503 0.82758 0.0
H446 H 0.96526 0.38196 0.61017 0.0
H447 H 0.96159 0.27655 0.57186 0.0
H448 H 0.00682 0.26706 0.64478 0.0
H449 H 0.05585 0.38817 0.63579 0.0
H450 H 0.05049 0.41743 0.69575 0.0
H451 H 0.02084 0.41632 0.63546 0.0
H452 H 0.97255 0.40805 0.71115 0.0
H453 H 0.00196 0.4091 0.77154 0.0
H454 H 0.97447 0.37406 0.76308 0.0
H455 H 0.04917 0.26874 0.72628 0.0
H456 H 0.08351 0.28057 0.81449 0.0
H457 H 0.0581 0.385 0.80072 0.0
C458 C 0.97439 0.35691 0.61607 0.0
C459 C 0.96014 0.32998 0.58499 0.0
C460 C 0.97225 0.29752 0.59512 0.0
C461 C 0.99802 0.29194 0.63613 0.0
C462 C 0.01122 0.31908 0.66645 0.0
C463 C -0.00024 0.35091 0.65701 0.0
C464 C 0.01595 0.37542 0.69893 0.0
C465 C 0.03704 0.40083 0.66441 0.0
C466 C 0.98967 0.39264 0.73851 0.0
C467 C 0.03779 0.35225 0.73457 0.0
C468 C 0.0351 0.31997 0.71449 0.0
C469 C 0.05171 0.29393 0.74212 0.0
C470 C 0.07109 0.30096 0.79234 0.0
C471 C 0.07343 0.33375 0.81477 0.0
C472 C 0.05702 0.35973 0.78459 0.0
H473 H 0.62847 0.03294 0.8419 0.0
H474 H 0.73465 0.05181 0.86328 0.0
H475 H 0.74684 0.01034 0.7847 0.0
H476 H 0.63429 0.94538 0.81704 0.0
H477 H 0.60103 0.94527 0.76306 0.0
H478 H 0.60123 0.97564 0.82181 0.0
H479 H 0.59822 0.02282 0.74358 0.0
H480 H 0.59791 0.99261 0.68464 0.0
H481 H 0.62919 0.02471 0.68525 0.0
H482 H 0.74658 0.96658 0.702 0.0
H483 H 0.73388 0.92653 0.62153 0.0
H484 H 0.62783 0.9384 0.65744 0.0
C485 C 0.6544 0.02841 0.83059 0.0
C486 C 0.68062 0.04561 0.859 0.0
C487 C 0.71412 0.03891 0.84218 0.0
C488 C 0.72128 0.01537 0.79773 0.0
C489 C 0.69465 -0.00111 0.77079 0.0
C490 C 0.6619 0.00526 0.7867 0.0
C491 C 0.63754 0.98511 0.75055 0.0
C492 C 0.61735 0.96145 0.79051 0.0
C493 C 0.61437 0.00766 0.71383 0.0
C494 C 0.66163 0.96642 0.71126 0.0
C495 C 0.69448 0.9744 0.72355 0.0
C496 C 0.72094 0.96015 0.6921 0.0
C497 C 0.71348 0.93741 0.6466 0.0
C498 C 0.67985 0.92942 0.63296 0.0
C499 C 0.65381 0.94403 0.66632 0.0
H500 H 0.05408 0.29907 0.14051 0.0
H501 H 0.00824 0.37057 0.02168 0.0
H502 H 0.95998 0.37516 0.08888 0.0
H503 H 0.9722 0.26005 0.19299 0.0
H504 H 0.98798 0.25524 0.26762 0.0
H505 H 0.0161 0.25252 0.20492 0.0
H506 H 0.05284 0.29848 0.25149 0.0
H507 H 0.02466 0.3018 0.3137 0.0
H508 H 0.03425 0.33793 0.26974 0.0
H509 H 0.92361 0.38145 0.17579 0.0
H510 H 0.89636 0.38322 0.27463 0.0
H511 H 0.96232 0.3054 0.33682 0.0
C512 C 0.03321 0.31459 0.1277 0.0
C513 C 0.03483 0.3345 0.07613 0.0
C514 C 0.00751 0.35524 0.06127 0.0
C515 C 0.97991 0.35794 0.09898 0.0
C516 C 0.97974 0.33939 0.15105 0.0
C517 C 0.00522 0.31755 0.16507 0.0
C518 C 1e-05 0.30294 0.22661 0.0
C519 C 0.99369 0.26546 0.22279 0.0
C520 C 0.0297 0.31078 0.26778 0.0
C521 C 0.96874 0.32136 0.24579 0.0
C522 C 0.95745 0.34212 0.20126 0.0
C523 C 0.93145 0.36455 0.21046 0.0
C524 C 0.91636 0.36563 0.26666 0.0
C525 C 0.9271 0.34414 0.31237 0.0
C526 C 0.95329 0.32146 0.30173 0.0
H527 H 0.61412 0.94269 0.33724 0.0
H528 H 0.7209 0.93602 0.37077 0.0
H529 H 0.73134 0.97747 0.29299 0.0
H530 H 0.6211 0.95053 0.17818 0.0
H531 H 0.58704 0.97951 0.17125 0.0
H532 H 0.58722 0.94991 0.23125 0.0
H533 H 0.58161 -0.00234 0.30776 0.0
H534 H 0.58142 0.02743 0.248 0.0
H535 H 0.61164 0.03093 0.30709 0.0
H536 H 0.73102 0.0189 0.21399 0.0
H537 H 0.72044 0.05758 0.13236 0.0
H538 H 0.61381 0.03766 0.14537 0.0
C539 C 0.63965 0.95012 0.32835 0.0
C540 C 0.6667 0.93615 0.36015 0.0
C541 C 0.69979 0.94623 0.34685 0.0
C542 C 0.70601 0.96987 0.30292 0.0
C543 C 0.67892 0.98306 0.27241 0.0
C544 C 0.64641 0.97358 0.28403 0.0
C545 C 0.62213 0.99122 0.24296 0.0
C546 C 0.60327 0.9663 0.20358 0.0
C547 C 0.59777 0.01311 0.27859 0.0
C548 C 0.64626 0.01201 0.20661 0.0
C549 C 0.67879 0.00693 0.22496 0.0
C550 C 0.70569 0.02315 0.19902 0.0
C551 C 0.6993 0.04517 0.15264 0.0
C552 C 0.66623 0.05073 0.13222 0.0
C553 C 0.63934 0.03389 0.15979 0.0
H554 H 0.96442 0.70238 0.14058 0.0
H555 H 0.88457 0.64142 0.21108 0.0
H556 H 0.91206 0.64051 0.30917 0.0
H557 H 0.02755 0.6601 0.20526 0.0
H558 H 0.05422 0.69473 0.22269 0.0
H559 H 0.02505 0.6977 0.16218 0.0
H560 H 0.99858 0.75007 0.20949 0.0
H561 H 0.02809 0.74758 0.26993 0.0
H562 H 0.98387 0.74866 0.2854 0.0
H563 H 0.95226 0.63653 0.39115 0.0
H564 H 0.00182 0.63277 0.45583 0.0
H565 H 0.05655 0.6968 0.33499 0.0
C566 C 0.95209 0.69033 0.17769 0.0
C567 C 0.92214 0.6726 0.16921 0.0
C568 C 0.90726 0.65563 0.21752 0.0
C569 C 0.92267 0.65499 0.27327 0.0
C570 C 0.95297 0.67148 0.27992 0.0
C571 C 0.96742 0.68925 0.23383 0.0
C572 C 0.00209 0.70111 0.25086 0.0
C573 C 0.02878 0.68759 0.20769 0.0
C574 C 0.00321 0.73912 0.25413 0.0
C575 C 0.0054 0.68581 0.31223 0.0
C576 C 0.97657 0.6692 0.3283 0.0
C577 C 0.97468 0.65017 0.37992 0.0
C578 C 0.00302 0.64794 0.4161 0.0
C579 C 0.03282 0.66473 0.4006 0.0
C580 C 0.0338 0.68434 0.34851 0.0
H581 H 0.36941 0.93642 0.16051 0.0
H582 H 0.26395 0.93069 0.11648 0.0
H583 H 0.25145 0.97163 0.19582 0.0
H584 H 0.35896 0.94455 0.31972 0.0
H585 H 0.39378 0.97259 0.3264 0.0
H586 H 0.39348 0.94189 0.26822 0.0
H587 H 0.40174 0.98811 0.18937 0.0
H588 H 0.40181 0.01898 0.24719 0.0
H589 H 0.37259 0.02215 0.18648 0.0
H590 H 0.25163 0.01591 0.27783 0.0
H591 H 0.26425 0.0573 0.35621 0.0
H592 H 0.36959 0.03205 0.34302 0.0
C593 C 0.34359 0.94356 0.16745 0.0
C594 C 0.31767 0.93049 0.13207 0.0
C595 C 0.28423 0.94037 0.14319 0.0
C596 C 0.27691 0.96363 0.18802 0.0
C597 C 0.30329 0.97642 0.22139 0.0
C598 C 0.33591 0.96645 0.21174 0.0
C599 C 0.36001 0.984 0.25247 0.0
C600 C 0.37757 0.95928 0.29418 0.0
C601 C 0.38552 0.00453 0.21673 0.0
C602 C 0.33599 0.00591 0.28613 0.0
C603 C 0.30335 0.00129 0.26802 0.0
C604 C 0.27709 0.01956 0.29257 0.0
C605 C 0.2845 0.04305 0.33691 0.0
C606 C 0.3179 0.04798 0.35593 0.0
C607 C 0.34375 0.02901 0.32988 0.0
H608 H 0.81541 0.25727 0.32674 0.0
H609 H 0.73616 0.32532 0.3786 0.0
H610 H 0.69901 0.30015 0.30448 0.0
H611 H 0.79793 0.25835 0.17085 0.0
H612 H 0.80701 0.21505 0.15954 0.0
H613 H 0.82749 0.2375 0.21837 0.0
H614 H 0.80612 0.19455 0.29524 0.0
H615 H 0.78549 0.17199 0.23663 0.0
H616 H 0.76198 0.18607 0.30038 0.0
H617 H 0.67091 0.2696 0.22457 0.0
H618 H 0.65302 0.23525 0.1403 0.0
H619 H 0.74976 0.18616 0.13863 0.0
C620 C 0.79021 0.26679 0.32272 0.0
C621 C 0.77876 0.29328 0.35866 0.0
C622 C 0.74562 0.30509 0.3517 0.0
C623 C 0.72422 0.29091 0.3098 0.0
C624 C 0.73627 0.26494 0.27525 0.0
C625 C 0.76841 0.25292 0.28099 0.0
C626 C 0.77513 0.22524 0.23687 0.0
C627 C 0.80357 0.23461 0.19386 0.0
C628 C 0.78261 0.19252 0.26923 0.0
C629 C 0.74177 0.22391 0.20519 0.0
C630 C 0.7198 0.24699 0.22842 0.0
C631 C 0.68778 0.25133 0.20599 0.0
C632 C 0.67794 0.23175 0.15793 0.0
C633 C 0.70005 0.20808 0.13273 0.0
C634 C 0.73227 0.20387 0.15722 0.0
H635 H 0.81308 0.74395 0.13655 0.0
H636 H 0.73096 0.69039 0.05477 0.0
H637 H 0.69194 0.71492 0.12725 0.0
H638 H 0.78856 0.73176 0.28176 0.0
H639 H 0.80063 0.77197 0.30921 0.0
H640 H 0.82165 0.7545 0.24565 0.0
H641 H 0.80705 0.80643 0.18306 0.0
H642 H 0.78626 0.82432 0.24674 0.0
H643 H 0.76413 0.81965 0.17741 0.0
H644 H 0.66337 0.73879 0.21489 0.0
H645 H 0.64606 0.76324 0.31056 0.0
H646 H 0.74632 0.80198 0.3358 0.0
C647 C 0.78676 0.73813 0.13281 0.0
C648 C 0.77507 0.71529 0.08999 0.0
C649 C 0.74051 0.70778 0.08729 0.0
C650 C 0.7181 0.72168 0.1281 0.0
C651 C 0.7306 0.7432 0.17098 0.0
C652 C 0.76401 0.75173 0.17333 0.0
C653 C 0.77132 0.77335 0.22687 0.0
C654 C 0.79705 0.7569 0.2683 0.0
C655 C 0.78287 0.808 0.20734 0.0
C656 C 0.73701 0.77459 0.25529 0.0
C657 C 0.71388 0.75727 0.22196 0.0
C658 C 0.68106 0.75291 0.24096 0.0
C659 C 0.67157 0.76667 0.29559 0.0
C660 C 0.69485 0.78455 0.33056 0.0
C661 C 0.72789 0.78879 0.3097 0.0
H662 H 0.25271 0.81009 0.15181 0.0
H663 H 0.28968 0.72413 0.05594 0.0
H664 H 0.25484 0.68779 0.1186 0.0
H665 H 0.25672 0.77403 0.29184 0.0
H666 H 0.21967 0.79351 0.32139 0.0
H667 H 0.24293 0.81337 0.26287 0.0
H668 H 0.18946 0.81582 0.19804 0.0
H669 H 0.16603 0.79575 0.25646 0.0
H670 H 0.16675 0.77823 0.1826 0.0
H671 H 0.22131 0.66061 0.19551 0.0
H672 H 0.1947 0.6431 0.28903 0.0
H673 H 0.18025 0.74603 0.33921 0.0
C674 C 0.25282 0.78367 0.14337 0.0
C675 C 0.2736 0.76979 0.09902 0.0
C676 C 0.27392 0.73512 0.08992 0.0
C677 C 0.25398 0.71436 0.12479 0.0
C678 C 0.23404 0.72869 0.16867 0.0
C679 C 0.23343 0.76248 0.17854 0.0
C680 C 0.21295 0.77096 0.23335 0.0
C681 C 0.23435 0.78902 0.28011 0.0
C682 C 0.18195 0.7914 0.21659 0.0
C683 C 0.20328 0.73654 0.25391 0.0
C684 C 0.21507 0.71268 0.21494 0.0
C685 C 0.21158 0.679 0.22607 0.0
C686 C 0.19658 0.66933 0.27944 0.0
C687 C 0.18554 0.69326 0.32129 0.0
C688 C 0.188 0.72728 0.30753 0.0
H689 H 0.30861 0.23958 0.33391 0.0
H690 H 0.22963 0.17242 0.39001 0.0
H691 H 0.19144 0.19783 0.31815 0.0
H692 H 0.25425 0.31157 0.3082 0.0
H693 H 0.27721 0.32491 0.24336 0.0
H694 H 0.29836 0.30304 0.30223 0.0
H695 H 0.31921 0.25926 0.22624 0.0
H696 H 0.29815 0.28097 0.16721 0.0
H697 H 0.28928 0.23781 0.18033 0.0
H698 H 0.16262 0.22726 0.23773 0.0
H699 H 0.14445 0.25982 0.15112 0.0
H700 H 0.24114 0.30877 0.14598 0.0
C701 C 0.28319 0.23049 0.33151 0.0
C702 C 0.27223 0.20397 0.36767 0.0
C703 C 0.23879 0.19261 0.36276 0.0
C704 C 0.21675 0.20696 0.32223 0.0
C705 C 0.22838 0.23275 0.28699 0.0
C706 C 0.2607 0.24455 0.29107 0.0
C707 C 0.26696 0.27167 0.24578 0.0
C708 C 0.27464 0.30476 0.27676 0.0
C709 C 0.29506 0.26182 0.20232 0.0
C710 C 0.2333 0.27262 0.21503 0.0
C711 C 0.21143 0.25009 0.23997 0.0
C712 C 0.17935 0.24524 0.21798 0.0
C713 C 0.16934 0.26375 0.16863 0.0
C714 C 0.19138 0.28683 0.14182 0.0
C715 C 0.22364 0.29157 0.1659 0.0
H716 H 0.18521 0.74366 0.63721 0.0
H717 H 0.26717 0.68899 0.55638 0.0
H718 H 0.30604 0.71298 0.62936 0.0
H719 H 0.23455 0.81865 0.67763 0.0
H720 H 0.21225 0.82389 0.74683 0.0
H721 H 0.19151 0.80586 0.68344 0.0
H722 H 0.17634 0.75437 0.74684 0.0
H723 H 0.19728 0.77203 0.81015 0.0
H724 H 0.20914 0.73156 0.78346 0.0
H725 H 0.33458 0.7371 0.7168 0.0
H726 H 0.35193 0.76233 0.81164 0.0
H727 H 0.25188 0.80206 0.83607 0.0
C728 C 0.21147 0.73742 0.63385 0.0
C729 C 0.22313 0.71448 0.59101 0.0
C730 C 0.25761 0.70646 0.58885 0.0
C731 C 0.27994 0.72003 0.62998 0.0
C732 C 0.26746 0.74174 0.67273 0.0
C733 C 0.23414 0.7507 0.6747 0.0
C734 C 0.22686 0.77269 0.72788 0.0
C735 C 0.21564 0.80733 0.70772 0.0
C736 C 0.20088 0.75669 0.76953 0.0
C737 C 0.26109 0.77377 0.75639 0.0
C738 C 0.28415 0.75595 0.72352 0.0
C739 C 0.31692 0.75156 0.74254 0.0
C740 C 0.32645 0.7658 0.7967 0.0
C741 C 0.30326 0.78421 0.83122 0.0
C742 C 0.27025 0.78846 0.81034 0.0
H743 H 0.25004 0.18515 0.64268 0.0
H744 H 0.34881 0.22957 0.65161 0.0
H745 H 0.33174 0.2614 0.73982 0.0
H746 H 0.20533 0.25777 0.68081 0.0
H747 H 0.17403 0.2371 0.72507 0.0
H748 H 0.19446 0.21531 0.66522 0.0
H749 H 0.21272 0.16924 0.73863 0.0
H750 H 0.19224 0.19088 0.79875 0.0
H751 H 0.23586 0.18021 0.80455 0.0
H752 H 0.30415 0.29065 0.82204 0.0
H753 H 0.26683 0.31666 0.89527 0.0
H754 H 0.18503 0.25438 0.83466 0.0
C755 C 0.26816 0.20121 0.66381 0.0
C756 C 0.30073 0.2049 0.64025 0.0
C757 C 0.32364 0.2265 0.66859 0.0
C758 C 0.31428 0.24458 0.71894 0.0
C759 C 0.28193 0.24082 0.74049 0.0
C760 C 0.25914 0.21974 0.71411 0.0
C761 C 0.2254 0.22189 0.74481 0.0
C762 C 0.19821 0.23373 0.70138 0.0
C763 C 0.21601 0.18857 0.77339 0.0
C764 C 0.23281 0.24787 0.79175 0.0
C765 C 0.26567 0.25815 0.78852 0.0
C766 C 0.27839 0.2827 0.82545 0.0
C767 C 0.25689 0.2974 0.86678 0.0
C768 C 0.22293 0.2876 0.87082 0.0
C769 C 0.21089 0.26224 0.83304 0.0
H770 H 0.76061 0.30753 0.64345 0.0
H771 H 0.85004 0.24698 0.6263 0.0
H772 H 0.83077 0.21209 0.70935 0.0
H773 H 0.75484 0.30415 0.80471 0.0
H774 H 0.70986 0.30172 0.80521 0.0
H775 H 0.73107 0.32292 0.74552 0.0
H776 H 0.70117 0.28547 0.6685 0.0
H777 H 0.67992 0.26411 0.72791 0.0
H778 H 0.70462 0.24108 0.6749 0.0
H779 H 0.80208 0.18329 0.79148 0.0
H780 H 0.76508 0.16109 0.86878 0.0
H781 H 0.69328 0.23961 0.83342 0.0
C782 C 0.77628 0.28708 0.65739 0.0
C783 C 0.80688 0.28002 0.62831 0.0
C784 C 0.82648 0.25285 0.64768 0.0
C785 C 0.81581 0.23292 0.69493 0.0
C786 C 0.7855 0.24045 0.72225 0.0
C787 C 0.76595 0.26679 0.70436 0.0
C788 C 0.73398 0.2688 0.74057 0.0
C789 C 0.73236 0.30133 0.77612 0.0
C790 C 0.7031 0.26461 0.70057 0.0
C791 C 0.7386 0.23926 0.78129 0.0
C792 C 0.7686 0.22347 0.76995 0.0
C793 C 0.77854 0.19544 0.801 0.0
C794 C 0.75721 0.18304 0.84489 0.0
C795 C 0.72613 0.19859 0.85741 0.0
C796 C 0.71682 0.22717 0.82509 0.0
H797 H 0.74491 0.80885 0.65174 0.0
H798 H 0.70686 0.72294 0.55753 0.0
H799 H 0.74094 0.6864 0.62095 0.0
H800 H 0.83019 0.77607 0.68233 0.0
H801 H 0.83127 0.79388 0.75594 0.0
H802 H 0.80789 0.81397 0.69765 0.0
H803 H 0.75457 0.81237 0.76333 0.0
H804 H 0.77778 0.79248 0.82176 0.0
H805 H 0.74047 0.7733 0.79304 0.0
H806 H 0.77438 0.6591 0.698 0.0
H807 H 0.80171 0.64166 0.79073 0.0
H808 H 0.8174 0.74464 0.83912 0.0
C809 C 0.74437 0.78239 0.64386 0.0
C810 C 0.72351 0.76861 0.59965 0.0
C811 C 0.72267 0.73389 0.59133 0.0
C812 C 0.74216 0.71299 0.62669 0.0
C813 C 0.7622 0.72723 0.67034 0.0
C814 C 0.76332 0.76106 0.67952 0.0
C815 C 0.78405 0.76952 0.73391 0.0
C816 C 0.8152 0.78954 0.71638 0.0
C817 C 0.76295 0.78799 0.78077 0.0
C818 C 0.79344 0.73506 0.75484 0.0
C819 C 0.78113 0.71117 0.71658 0.0
C820 C 0.78447 0.6775 0.72802 0.0
C821 C 0.79992 0.66788 0.78095 0.0
C822 C 0.81161 0.69183 0.82207 0.0
C823 C 0.80918 0.72585 0.808 0.0
loop_
_geom_bond_atom_site_label_1
_geom_bond_atom_site_label_2
_geom_bond_distance
_geom_bond_site_symmetry_2
_ccdc_geom_bond_type
Sc0 O3 2.025 . S
Sc0 O10 2.105 1_554 S
Sc0 O13 2.105 . S
Sc0 O16 2.105 . S
Sc0 O19 2.105 1_554 S
Sc1 O3 2.025 . S
Sc1 O11 2.105 1_554 S
Sc1 O15 2.105 . S
Sc1 O17 2.105 . S
Sc1 O21 2.105 1_554 S
Sc2 O3 2.025 . S
Sc2 O12 2.105 1_554 S
Sc2 O14 2.105 . S
Sc2 O18 2.105 . S
Sc2 O20 2.105 1_554 S
O3 Sc0 2.025 . S
O3 Sc1 2.025 . S
O3 Sc2 2.025 . S
C4 O10 1.268 . S
C4 O20 1.268 . S
C5 O11 1.268 . S
C5 O19 1.268 . S
C6 O12 1.268 . S
C6 O21 1.268 . S
C7 O13 1.268 . S
C7 O17 1.268 . S
C8 O14 1.268 . S
C8 O16 1.268 . S
C9 O15 1.268 . S
C9 O18 1.268 . S
O10 Sc0 2.105 1_556 S
O10 C4 1.268 . S
O11 Sc1 2.105 1_556 S
O11 C5 1.268 . S
O12 Sc2 2.105 1_556 S
O12 C6 1.268 . S
O13 Sc0 2.105 . S
O13 C7 1.268 . S
O14 Sc2 2.105 . S
O14 C8 1.268 . S
O15 Sc1 2.105 . S
O15 C9 1.268 . S
O16 Sc0 2.105 . S
O16 C8 1.268 . S
O17 Sc1 2.105 . S
O17 C7 1.268 . S
O18 Sc2 2.105 . S
O18 C9 1.268 . S
O19 Sc0 2.105 1_556 S
O19 C5 1.268 . S
O20 Sc2 2.105 1_556 S
O20 C4 1.268 . S
O21 Sc1 2.105 1_556 S
O21 C6 1.268 . S
Sc22 O25 2.025 . S
Sc22 O32 2.105 1_554 S
Sc22 O35 2.105 . S
Sc22 O38 2.105 . S
Sc22 O41 2.105 1_554 S
Sc23 O25 2.025 . S
Sc23 O33 2.105 1_554 S
Sc23 O37 2.105 . S
Sc23 O39 2.105 . S
Sc23 O43 2.105 1_554 S
Sc24 O25 2.025 . S
Sc24 O34 2.105 1_554 S
Sc24 O36 2.105 . S
Sc24 O40 2.105 . S
Sc24 O42 2.105 1_554 S
O25 Sc22 2.025 . S
O25 Sc23 2.025 . S
O25 Sc24 2.025 . S
C26 O32 1.268 . S
C26 O42 1.268 . S
C27 O33 1.268 . S
C27 O41 1.268 . S
C28 O34 1.268 . S
C28 O43 1.268 . S
C29 O35 1.268 . S
C29 O39 1.268 . S
C30 O36 1.268 . S
C30 O38 1.268 . S
C31 O37 1.268 . S
C31 O40 1.268 . S
O32 Sc22 2.105 1_556 S
O32 C26 1.268 . S
O33 Sc23 2.105 1_556 S
O33 C27 1.268 . S
O34 Sc24 2.105 1_556 S
O34 C28 1.268 . S
O35 Sc22 2.105 . S
O35 C29 1.268 . S
O36 Sc24 2.105 . S
O36 C30 1.268 . S
O37 Sc23 2.105 . S
O37 C31 1.268 . S
O38 Sc22 2.105 . S
O38 C30 1.268 . S
O39 Sc23 2.105 . S
O39 C29 1.268 . S
O40 Sc24 2.105 . S
O40 C31 1.268 . S
O41 Sc22 2.105 1_556 S
O41 C27 1.268 . S
O42 Sc24 2.105 1_556 S
O42 C26 1.268 . S
O43 Sc23 2.105 1_556 S
O43 C28 1.268 . S
Sc44 O47 2.025 . S
Sc44 O54 2.105 1_554 S
Sc44 O57 2.105 . S
Sc44 O60 2.105 . S
Sc44 O63 2.105 1_554 S
Sc45 O47 2.025 . S
Sc45 O55 2.105 1_554 S
Sc45 O59 2.105 . S
Sc45 O61 2.105 . S
Sc45 O65 2.105 1_554 S
Sc46 O47 2.025 . S
Sc46 O56 2.105 1_554 S
Sc46 O58 2.105 . S
Sc46 O62 2.105 . S
Sc46 O64 2.105 1_554 S
O47 Sc44 2.025 . S
O47 Sc45 2.025 . S
O47 Sc46 2.025 . S
C48 O54 1.268 . S
C48 O64 1.268 . S
C49 O55 1.268 . S
C49 O63 1.268 . S
C50 O56 1.268 . S
C50 O65 1.268 . S
C51 O57 1.268 . S
C51 O61 1.268 . S
C52 O58 1.268 . S
C52 O60 1.268 . S
C53 O59 1.268 . S
C53 O62 1.268 . S
O54 Sc44 2.105 1_556 S
O54 C48 1.268 . S
O55 Sc45 2.105 1_556 S
O55 C49 1.268 . S
O56 Sc46 2.105 1_556 S
O56 C50 1.268 . S
O57 Sc44 2.105 . S
O57 C51 1.268 . S
O58 Sc46 2.105 . S
O58 C52 1.268 . S
O59 Sc45 2.105 . S
O59 C53 1.268 . S
O60 Sc44 2.105 . S
O60 C52 1.268 . S
O61 Sc45 2.105 . S
O61 C51 1.268 . S
O62 Sc46 2.105 . S
O62 C53 1.268 . S
O63 Sc44 2.105 1_556 S
O63 C49 1.268 . S
O64 Sc46 2.105 1_556 S
O64 C48 1.268 . S
O65 Sc45 2.105 1_556 S
O65 C50 1.268 . S
Sc66 O69 2.025 . S
Sc66 O76 2.105 1_554 S
Sc66 O79 2.105 . S
Sc66 O82 2.105 . S
Sc66 O85 2.105 1_554 S
Sc67 O69 2.025 . S
Sc67 O77 2.105 1_554 S
Sc67 O81 2.105 . S
Sc67 O83 2.105 . S
Sc67 O87 2.105 1_554 S
Sc68 O69 2.025 . S
Sc68 O78 2.105 1_554 S
Sc68 O80 2.105 . S
Sc68 O84 2.105 . S
Sc68 O86 2.105 1_554 S
O69 Sc66 2.025 . S
O69 Sc67 2.025 . S
O69 Sc68 2.025 . S
C70 O76 1.268 . S
C70 O86 1.268 . S
C71 O77 1.268 . S
C71 O85 1.268 . S
C72 O78 1.268 . S
C72 O87 1.268 . S
C73 O79 1.268 . S
C73 O83 1.268 . S
C74 O80 1.268 . S
C74 O82 1.268 . S
C75 O81 1.268 . S
C75 O84 1.268 . S
O76 Sc66 2.105 1_556 S
O76 C70 1.268 . S
O77 Sc67 2.105 1_556 S
O77 C71 1.268 . S
O78 Sc68 2.105 1_556 S
O78 C72 1.268 . S
O79 Sc66 2.105 . S
O79 C73 1.268 . S
O80 Sc68 2.105 . S
O80 C74 1.268 . S
O81 Sc67 2.105 . S
O81 C75 1.268 . S
O82 Sc66 2.105 . S
O82 C74 1.268 . S
O83 Sc67 2.105 . S
O83 C73 1.268 . S
O84 Sc68 2.105 . S
O84 C75 1.268 . S
O85 Sc66 2.105 1_556 S
O85 C71 1.268 . S
O86 Sc68 2.105 1_556 S
O86 C70 1.268 . S
O87 Sc67 2.105 1_556 S
O87 C72 1.268 . S
Sc88 O91 2.025 . S
Sc88 O98 2.105 . S
Sc88 O101 2.105 . S
Sc88 O104 2.105 . S
Sc88 O107 2.105 . S
Sc89 O91 2.025 . S
Sc89 O99 2.105 . S
Sc89 O103 2.105 . S
Sc89 O105 2.105 . S
Sc89 O109 2.105 . S
Sc90 O91 2.025 . S
Sc90 O100 2.105 . S
Sc90 O102 2.105 . S
Sc90 O106 2.105 . S
Sc90 O108 2.105 . S
O91 Sc88 2.025 . S
O91 Sc89 2.025 . S
O91 Sc90 2.025 . S
C92 O98 1.268 . S
C92 O108 1.268 . S
C93 O99 1.268 . S
C93 O107 1.268 . S
C94 O100 1.268 . S
C94 O109 1.268 . S
C95 O101 1.268 . S
C95 O105 1.268 . S
C96 O102 1.268 . S
C96 O104 1.268 . S
C97 O103 1.268 . S
C97 O106 1.268 . S
O98 Sc88 2.105 . S
O98 C92 1.268 . S
O99 Sc89 2.105 . S
O99 C93 1.268 . S
O100 Sc90 2.105 . S
O100 C94 1.268 . S
O101 Sc88 2.105 . S
O101 C95 1.268 . S
O102 Sc90 2.105 . S
O102 C96 1.268 . S
O103 Sc89 2.105 . S
O103 C97 1.268 . S
O104 Sc88 2.105 . S
O104 C96 1.268 . S
O105 Sc89 2.105 . S
O105 C95 1.268 . S
O106 Sc90 2.105 . S
O106 C97 1.268 . S
O107 Sc88 2.105 . S
O107 C93 1.268 . S
O108 Sc90 2.105 . S
O108 C92 1.268 . S
O109 Sc89 2.105 . S
O109 C94 1.268 . S
Sc110 O113 2.025 . S
Sc110 O120 2.105 . S
Sc110 O123 2.105 . S
Sc110 O126 2.105 . S
Sc110 O129 2.105 . S
Sc111 O113 2.025 . S
Sc111 O121 2.105 . S
Sc111 O125 2.105 . S
Sc111 O127 2.105 . S
Sc111 O131 2.105 . S
Sc112 O113 2.025 . S
Sc112 O122 2.105 . S
Sc112 O124 2.105 . S
Sc112 O128 2.105 . S
Sc112 O130 2.105 . S
O113 Sc110 2.025 . S
O113 Sc111 2.025 . S
O113 Sc112 2.025 . S
C114 O120 1.268 . S
C114 O130 1.268 . S
C115 O121 1.268 . S
C115 O129 1.268 . S
C116 O122 1.268 . S
C116 O131 1.268 . S
C117 O123 1.268 . S
C117 O127 1.268 . S
C118 O124 1.268 . S
C118 O126 1.268 . S
C119 O125 1.268 . S
C119 O128 1.268 . S
O120 Sc110 2.105 . S
O120 C114 1.268 . S
O121 Sc111 2.105 . S
O121 C115 1.268 . S
O122 Sc112 2.105 . S
O122 C116 1.268 . S
O123 Sc110 2.105 . S
O123 C117 1.268 . S
O124 Sc112 2.105 . S
O124 C118 1.268 . S
O125 Sc111 2.105 . S
O125 C119 1.268 . S
O126 Sc110 2.105 . S
O126 C118 1.268 . S
O127 Sc111 2.105 . S
O127 C117 1.268 . S
O128 Sc112 2.105 . S
O128 C119 1.268 . S
O129 Sc110 2.105 . S
O129 C115 1.268 . S
O130 Sc112 2.105 . S
O130 C114 1.268 . S
O131 Sc111 2.105 . S
O131 C116 1.268 . S
Sc132 O135 2.025 . S
Sc132 O142 2.105 . S
Sc132 O145 2.105 . S
Sc132 O148 2.105 . S
Sc132 O151 2.105 . S
Sc133 O135 2.025 . S
Sc133 O143 2.105 . S
Sc133 O147 2.105 . S
Sc133 O149 2.105 . S
Sc133 O153 2.105 . S
Sc134 O135 2.025 . S
Sc134 O144 2.105 . S
Sc134 O146 2.105 . S
Sc134 O150 2.105 . S
Sc134 O152 2.105 . S
O135 Sc132 2.025 . S
O135 Sc133 2.025 . S
O135 Sc134 2.025 . S
C136 O142 1.268 . S
C136 O152 1.268 . S
C137 O143 1.268 . S
C137 O151 1.268 . S
C138 O144 1.268 . S
C138 O153 1.268 . S
C139 O145 1.268 . S
C139 O149 1.268 . S
C140 O146 1.268 . S
C140 O148 1.268 . S
C141 O147 1.268 . S
C141 O150 1.268 . S
O142 Sc132 2.105 . S
O142 C136 1.268 . S
O143 Sc133 2.105 . S
O143 C137 1.268 . S
O144 Sc134 2.105 . S
O144 C138 1.268 . S
O145 Sc132 2.105 . S
O145 C139 1.268 . S
O146 Sc134 2.105 . S
O146 C140 1.268 . S
O147 Sc133 2.105 . S
O147 C141 1.268 . S
O148 Sc132 2.105 . S
O148 C140 1.268 . S
O149 Sc133 2.105 . S
O149 C139 1.268 . S
O150 Sc134 2.105 . S
O150 C141 1.268 . S
O151 Sc132 2.105 . S
O151 C137 1.268 . S
O152 Sc134 2.105 . S
O152 C136 1.268 . S
O153 Sc133 2.105 . S
O153 C138 1.268 . S
Sc154 O157 2.025 . S
Sc154 O164 2.105 . S
Sc154 O167 2.105 . S
Sc154 O170 2.105 . S
Sc154 O173 2.105 . S
Sc155 O157 2.025 . S
Sc155 O165 2.105 . S
Sc155 O169 2.105 . S
Sc155 O171 2.105 . S
Sc155 O175 2.105 . S
Sc156 O157 2.025 . S
Sc156 O166 2.105 . S
Sc156 O168 2.105 . S
Sc156 O172 2.105 . S
Sc156 O174 2.105 . S
O157 Sc154 2.025 . S
O157 Sc155 2.025 . S
O157 Sc156 2.025 . S
C158 O164 1.268 . S
C158 O174 1.268 . S
C159 O165 1.268 . S
C159 O173 1.268 . S
C160 O166 1.268 . S
C160 O175 1.268 . S
C161 O167 1.268 . S
C161 O171 1.268 . S
C162 O168 1.268 . S
C162 O170 1.268 . S
C163 O169 1.268 . S
C163 O172 1.268 . S
O164 Sc154 2.105 . S
O164 C158 1.268 . S
O165 Sc155 2.105 . S
O165 C159 1.268 . S
O166 Sc156 2.105 . S
O166 C160 1.268 . S
O167 Sc154 2.105 . S
O167 C161 1.268 . S
O168 Sc156 2.105 . S
O168 C162 1.268 . S
O169 Sc155 2.105 . S
O169 C163 1.268 . S
O170 Sc154 2.105 . S
O170 C162 1.268 . S
O171 Sc155 2.105 . S
O171 C161 1.268 . S
O172 Sc156 2.105 . S
O172 C163 1.268 . S
O173 Sc154 2.105 . S
O173 C159 1.268 . S
O174 Sc156 2.105 . S
O174 C158 1.268 . S
O175 Sc155 2.105 . S
O175 C160 1.268 . S
H176 C188 0.930 . S
H177 C190 0.930 . S
H178 C191 0.930 . S
H179 C195 0.959 . S
H180 C195 0.959 . S
H181 C195 0.961 . S
H182 C196 0.960 . S
H183 C196 0.961 . S
H184 C196 0.959 . S
H185 C199 0.929 . S
H186 C200 0.931 . S
H187 C202 0.930 . S
C188 H176 0.930 . S
C188 C189 1.399 . S
C188 C193 1.399 . S
C189 C188 1.399 . S
C189 C190 1.376 . S
C190 H177 0.930 . S
C190 C189 1.376 . S
C190 C191 1.388 . S
C191 H178 0.930 . S
C191 C190 1.388 . S
C191 C192 1.390 . S
C192 C191 1.390 . S
C192 C193 1.394 . S
C192 C198 1.465 . S
C193 C188 1.399 . S
C193 C192 1.394 . S
C193 C194 1.516 . S
C194 C193 1.516 . S
C194 C195 1.502 . S
C194 C196 1.561 . S
C194 C197 1.526 . S
C195 H179 0.959 . S
C195 H180 0.959 . S
C195 H181 0.961 . S
C195 C194 1.502 . S
C196 H182 0.960 . S
C196 H183 0.961 . S
C196 H184 0.959 . S
C196 C194 1.561 . S
C197 C194 1.526 . S
C197 C198 1.396 . S
C197 C202 1.390 . S
C198 C192 1.465 . S
C198 C197 1.396 . S
C198 C199 1.399 . S
C199 H185 0.929 . S
C199 C198 1.399 . S
C199 C200 1.385 . S
C200 H186 0.931 . S
C200 C199 1.385 . S
C200 C201 1.389 . S
C201 C200 1.389 . S
C201 C202 1.387 . S
C202 H187 0.930 . S
C202 C197 1.390 . S
C202 C201 1.387 . S
H203 C215 0.930 . S
H204 C217 0.930 . S
H205 C218 0.930 . S
H206 C222 0.959 . S
H207 C222 0.959 . S
H208 C222 0.961 . S
H209 C223 0.960 . S
H210 C223 0.961 . S
H211 C223 0.959 . S
H212 C226 0.929 . S
H213 C227 0.931 . S
H214 C229 0.930 . S
C215 H203 0.930 . S
C215 C216 1.399 . S
C215 C220 1.399 . S
C216 C215 1.399 . S
C216 C217 1.376 . S
C217 H204 0.930 . S
C217 C216 1.376 . S
C217 C218 1.388 . S
C218 H205 0.930 . S
C218 C217 1.388 . S
C218 C219 1.390 . S
C219 C218 1.390 . S
C219 C220 1.394 . S
C219 C225 1.465 . S
C220 C215 1.399 . S
C220 C219 1.394 . S
C220 C221 1.516 . S
C221 C220 1.516 . S
C221 C222 1.502 . S
C221 C223 1.561 . S
C221 C224 1.526 . S
C222 H206 0.959 . S
C222 H207 0.959 . S
C222 H208 0.961 . S
C222 C221 1.502 . S
C223 H209 0.960 . S
C223 H210 0.961 . S
C223 H211 0.959 . S
C223 C221 1.561 . S
C224 C221 1.526 . S
C224 C225 1.396 . S
C224 C229 1.390 . S
C225 C219 1.465 . S
C225 C224 1.396 . S
C225 C226 1.399 . S
C226 H212 0.929 . S
C226 C225 1.399 . S
C226 C227 1.385 . S
C227 H213 0.931 . S
C227 C226 1.385 . S
C227 C228 1.389 . S
C228 C227 1.389 . S
C228 C229 1.387 . S
C229 H214 0.930 . S
C229 C224 1.390 . S
C229 C228 1.387 . S
H230 C242 0.930 . S
H231 C244 0.930 . S
H232 C245 0.930 . S
H233 C249 0.959 . S
H234 C249 0.959 . S
H235 C249 0.961 . S
H236 C250 0.960 . S
H237 C250 0.961 . S
H238 C250 0.959 . S
H239 C253 0.929 . S
H240 C254 0.931 . S
H241 C256 0.930 . S
C242 H230 0.930 . S
C242 C243 1.399 . S
C242 C247 1.399 . S
C243 C242 1.399 . S
C243 C244 1.376 . S
C244 H231 0.930 . S
C244 C243 1.376 . S
C244 C245 1.388 . S
C245 H232 0.930 . S
C245 C244 1.388 . S
C245 C246 1.390 . S
C246 C245 1.390 . S
C246 C247 1.394 . S
C246 C252 1.465 . S
C247 C242 1.399 . S
C247 C246 1.394 . S
C247 C248 1.516 . S
C248 C247 1.516 . S
C248 C249 1.502 . S
C248 C250 1.561 . S
C248 C251 1.526 . S
C249 H233 0.959 . S
C249 H234 0.959 . S
C249 H235 0.961 . S
C249 C248 1.502 . S
C250 H236 0.960 . S
C250 H237 0.961 . S
C250 H238 0.959 . S
C250 C248 1.561 . S
C251 C248 1.526 . S
C251 C252 1.396 . S
C251 C256 1.390 . S
C252 C246 1.465 . S
C252 C251 1.396 . S
C252 C253 1.399 . S
C253 H239 0.929 . S
C253 C252 1.399 . S
C253 C254 1.385 . S
C254 H240 0.931 . S
C254 C253 1.385 . S
C254 C255 1.389 . S
C255 C254 1.389 . S
C255 C256 1.387 . S
C256 H241 0.930 . S
C256 C251 1.390 . S
C256 C255 1.387 . S
H257 C269 0.930 . S
H258 C271 0.930 . S
H259 C272 0.930 . S
H260 C276 0.959 . S
H261 C276 0.959 . S
H262 C276 0.961 . S
H263 C277 0.960 . S
H264 C277 0.961 . S
H265 C277 0.959 . S
H266 C280 0.929 . S
H267 C281 0.931 . S
H268 C283 0.930 . S
C269 H257 0.930 . S
C269 C270 1.399 . S
C269 C274 1.399 . S
C270 C269 1.399 . S
C270 C271 1.376 . S
C271 H258 0.930 . S
C271 C270 1.376 . S
C271 C272 1.388 . S
C272 H259 0.930 . S
C272 C271 1.388 . S
C272 C273 1.390 . S
C273 C272 1.390 . S
C273 C274 1.394 . S
C273 C279 1.465 . S
C274 C269 1.399 . S
C274 C273 1.394 . S
C274 C275 1.516 . S
C275 C274 1.516 . S
C275 C276 1.502 . S
C275 C277 1.561 . S
C275 C278 1.526 . S
C276 H260 0.959 . S
C276 H261 0.959 . S
C276 H262 0.961 . S
C276 C275 1.502 . S
C277 H263 0.960 . S
C277 H264 0.961 . S
C277 H265 0.959 . S
C277 C275 1.561 . S
C278 C275 1.526 . S
C278 C279 1.396 . S
C278 C283 1.390 . S
C279 C273 1.465 . S
C279 C278 1.396 . S
C279 C280 1.399 . S
C280 H266 0.929 . S
C280 C279 1.399 . S
C280 C281 1.385 . S
C281 H267 0.931 . S
C281 C280 1.385 . S
C281 C282 1.389 . S
C282 C281 1.389 . S
C282 C283 1.387 . S
C283 H268 0.930 . S
C283 C278 1.390 . S
C283 C282 1.387 . S
H284 C296 0.930 . S
H285 C298 0.930 . S
H286 C299 0.930 . S
H287 C303 0.959 . S
H288 C303 0.959 . S
H289 C303 0.961 . S
H290 C304 0.960 . S
H291 C304 0.961 . S
H292 C304 0.959 . S
H293 C307 0.929 . S
H294 C308 0.931 . S
H295 C310 0.930 . S
C296 H284 0.930 . S
C296 C297 1.399 . S
C296 C301 1.399 . S
C297 C296 1.399 . S
C297 C298 1.376 . S
C298 H285 0.930 . S
C298 C297 1.376 . S
C298 C299 1.388 . S
C299 H286 0.930 . S
C299 C298 1.388 . S
C299 C300 1.390 . S
C300 C299 1.390 . S
C300 C301 1.394 . S
C300 C306 1.465 . S
C301 C296 1.399 . S
C301 C300 1.394 . S
C301 C302 1.516 . S
C302 C301 1.516 . S
C302 C303 1.502 . S
C302 C304 1.561 . S
C302 C305 1.526 . S
C303 H287 0.959 . S
C303 H288 0.959 . S
C303 H289 0.961 . S
C303 C302 1.502 . S
C304 H290 0.960 . S
C304 H291 0.961 . S
C304 H292 0.959 . S
C304 C302 1.561 . S
C305 C302 1.526 . S
C305 C306 1.396 . S
C305 C310 1.390 . S
C306 C300 1.465 . S
C306 C305 1.396 . S
C306 C307 1.399 . S
C307 H293 0.929 . S
C307 C306 1.399 . S
C307 C308 1.385 . S
C308 H294 0.931 . S
C308 C307 1.385 . S
C308 C309 1.389 . S
C309 C308 1.389 . S
C309 C310 1.387 . S
C310 H295 0.930 . S
C310 C305 1.390 . S
C310 C309 1.387 . S
H311 C323 0.930 . S
H312 C325 0.930 . S
H313 C326 0.930 . S
H314 C330 0.959 . S
H315 C330 0.959 . S
H316 C330 0.961 . S
H317 C331 0.960 . S
H318 C331 0.961 . S
H319 C331 0.959 . S
H320 C334 0.929 . S
H321 C335 0.931 . S
H322 C337 0.930 . S
C323 H311 0.930 . S
C323 C324 1.399 . S
C323 C328 1.399 . S
C324 C323 1.399 . S
C324 C325 1.376 . S
C325 H312 0.930 . S
C325 C324 1.376 . S
C325 C326 1.388 . S
C326 H313 0.930 . S
C326 C325 1.388 . S
C326 C327 1.390 . S
C327 C326 1.390 . S
C327 C328 1.394 . S
C327 C333 1.465 . S
C328 C323 1.399 . S
C328 C327 1.394 . S
C328 C329 1.516 . S
C329 C328 1.516 . S
C329 C330 1.502 . S
C329 C331 1.561 . S
C329 C332 1.526 . S
C330 H314 0.959 . S
C330 H315 0.959 . S
C330 H316 0.961 . S
C330 C329 1.502 . S
C331 H317 0.960 . S
C331 H318 0.961 . S
C331 H319 0.959 . S
C331 C329 1.561 . S
C332 C329 1.526 . S
C332 C333 1.396 . S
C332 C337 1.390 . S
C333 C327 1.465 . S
C333 C332 1.396 . S
C333 C334 1.399 . S
C334 H320 0.929 . S
C334 C333 1.399 . S
C334 C335 1.385 . S
C335 H321 0.931 . S
C335 C334 1.385 . S
C335 C336 1.389 . S
C336 C335 1.389 . S
C336 C337 1.387 . S
C337 H322 0.930 . S
C337 C332 1.390 . S
C337 C336 1.387 . S
H338 C350 0.930 . S
H339 C352 0.930 . S
H340 C353 0.930 . S
H341 C357 0.959 . S
H342 C357 0.959 . S
H343 C357 0.961 . S
H344 C358 0.960 . S
H345 C358 0.961 . S
H346 C358 0.959 . S
H347 C361 0.929 . S
H348 C362 0.931 . S
H349 C364 0.930 . S
C350 H338 0.930 . S
C350 C351 1.399 . S
C350 C355 1.399 . S
C351 C350 1.399 . S
C351 C352 1.376 . S
C352 H339 0.930 . S
C352 C351 1.376 . S
C352 C353 1.388 . S
C353 H340 0.930 . S
C353 C352 1.388 . S
C353 C354 1.390 . S
C354 C353 1.390 . S
C354 C355 1.394 . S
C354 C360 1.465 . S
C355 C350 1.399 . S
C355 C354 1.394 . S
C355 C356 1.516 . S
C356 C355 1.516 . S
C356 C357 1.502 . S
C356 C358 1.561 . S
C356 C359 1.526 . S
C357 H341 0.959 . S
C357 H342 0.959 . S
C357 H343 0.961 . S
C357 C356 1.502 . S
C358 H344 0.960 . S
C358 H345 0.961 . S
C358 H346 0.959 . S
C358 C356 1.561 . S
C359 C356 1.526 . S
C359 C360 1.396 . S
C359 C364 1.390 . S
C360 C354 1.465 . S
C360 C359 1.396 . S
C360 C361 1.399 . S
C361 H347 0.929 . S
C361 C360 1.399 . S
C361 C362 1.385 . S
C362 H348 0.931 . S
C362 C361 1.385 . S
C362 C363 1.389 . S
C363 C362 1.389 . S
C363 C364 1.387 . S
C364 H349 0.930 . S
C364 C359 1.390 . S
C364 C363 1.387 . S
H365 C377 0.930 . S
H366 C379 0.930 . S
H367 C380 0.930 . S
H368 C384 0.959 . S
H369 C384 0.959 . S
H370 C384 0.961 . S
H371 C385 0.960 . S
H372 C385 0.961 . S
H373 C385 0.959 . S
H374 C388 0.929 . S
H375 C389 0.931 . S
H376 C391 0.930 . S
C377 H365 0.930 . S
C377 C378 1.399 . S
C377 C382 1.399 . S
C378 C377 1.399 . S
C378 C379 1.376 . S
C379 H366 0.930 . S
C379 C378 1.376 . S
C379 C380 1.388 . S
C380 H367 0.930 . S
C380 C379 1.388 . S
C380 C381 1.390 . S
C381 C380 1.390 . S
C381 C382 1.394 . S
C381 C387 1.465 . S
C382 C377 1.399 . S
C382 C381 1.394 . S
C382 C383 1.516 . S
C383 C382 1.516 . S
C383 C384 1.502 . S
C383 C385 1.561 . S
C383 C386 1.526 . S
C384 H368 0.959 . S
C384 H369 0.959 . S
C384 H370 0.961 . S
C384 C383 1.502 . S
C385 H371 0.960 . S
C385 H372 0.961 . S
C385 H373 0.959 . S
C385 C383 1.561 . S
C386 C383 1.526 . S
C386 C387 1.396 . S
C386 C391 1.390 . S
C387 C381 1.465 . S
C387 C386 1.396 . S
C387 C388 1.399 . S
C388 H374 0.929 . S
C388 C387 1.399 . S
C388 C389 1.385 . S
C389 H375 0.931 . S
C389 C388 1.385 . S
C389 C390 1.389 . S
C390 C389 1.389 . S
C390 C391 1.387 . S
C391 H376 0.930 . S
C391 C386 1.390 . S
C391 C390 1.387 . S
H392 C404 0.930 . S
H393 C406 0.930 . S
H394 C407 0.930 . S
H395 C411 0.959 . S
H396 C411 0.959 . S
H397 C411 0.961 . S
H398 C412 0.960 . S
H399 C412 0.961 . S
H400 C412 0.959 . S
H401 C415 0.929 . S
H402 C416 0.931 . S
H403 C418 0.930 . S
C404 H392 0.930 . S
C404 C405 1.399 . S
C404 C409 1.399 . S
C405 C404 1.399 . S
C405 C406 1.376 . S
C406 H393 0.930 . S
C406 C405 1.376 . S
C406 C407 1.388 . S
C407 H394 0.930 . S
C407 C406 1.388 . S
C407 C408 1.390 . S
C408 C407 1.390 . S
C408 C409 1.394 . S
C408 C414 1.465 1_655 S
C409 C404 1.399 . S
C409 C408 1.394 . S
C409 C410 1.516 1_655 S
C410 C409 1.516 1_455 S
C410 C411 1.502 1_455 S
C410 C412 1.561 . S
C410 C413 1.526 . S
C411 H395 0.959 . S
C411 H396 0.959 . S
C411 H397 0.961 . S
C411 C410 1.502 1_655 S
C412 H398 0.960 . S
C412 H399 0.961 . S
C412 H400 0.959 . S
C412 C410 1.561 . S
C413 C410 1.526 . S
C413 C414 1.396 . S
C413 C418 1.390 . S
C414 C408 1.465 1_455 S
C414 C413 1.396 . S
C414 C415 1.399 . S
C415 H401 0.929 . S
C415 C414 1.399 . S
C415 C416 1.385 . S
C416 H402 0.931 . S
C416 C415 1.385 . S
C416 C417 1.389 . S
C417 C416 1.389 . S
C417 C418 1.387 . S
C418 H403 0.930 . S
C418 C413 1.390 . S
C418 C417 1.387 . S
H419 C431 0.930 . S
H420 C433 0.930 . S
H421 C434 0.930 . S
H422 C438 0.959 . S
H423 C438 0.959 . S
H424 C438 0.961 . S
H425 C439 0.960 . S
H426 C439 0.961 . S
H427 C439 0.959 . S
H428 C442 0.919 1_545 S
H429 C443 0.931 . S
H430 C445 0.930 . S
C431 H419 0.930 . S
C431 C432 1.399 . S
C431 C436 1.399 . S
C432 C431 1.399 . S
C432 C433 1.376 . S
C433 H420 0.930 . S
C433 C432 1.376 . S
C433 C434 1.388 . S
C434 H421 0.930 . S
C434 C433 1.388 . S
C434 C435 1.390 . S
C435 C434 1.390 . S
C435 C436 1.394 . S
C435 C441 1.465 1_545 S
C436 C431 1.399 . S
C436 C435 1.394 . S
C436 C437 1.516 1_545 S
C437 C436 1.516 1_565 S
C437 C438 1.502 . S
C437 C439 1.561 . S
C437 C440 1.526 . S
C438 H422 0.959 . S
C438 H423 0.959 . S
C438 H424 0.961 . S
C438 C437 1.502 . S
C439 H425 0.960 . S
C439 H426 0.961 . S
C439 H427 0.959 . S
C439 C437 1.561 . S
C440 C437 1.526 . S
C440 C441 1.396 . S
C440 C445 1.390 . S
C441 C435 1.465 1_565 S
C441 C440 1.396 . S
C441 C442 1.399 . S
C442 H428 0.919 1_565 S
C442 C441 1.399 . S
C442 C443 1.395 . S
C443 H429 0.931 . S
C443 C442 1.395 . S
C443 C444 1.389 . S
C444 C443 1.389 . S
C444 C445 1.387 . S
C445 H430 0.930 . S
C445 C440 1.390 . S
C445 C444 1.387 . S
H446 C458 0.930 . S
H447 C460 0.930 . S
H448 C461 0.930 . S
H449 C465 0.959 . S
H450 C465 0.959 . S
H451 C465 0.961 . S
H452 C466 0.960 . S
H453 C466 0.961 . S
H454 C466 0.959 . S
H455 C469 0.929 . S
H456 C470 0.931 . S
H457 C472 0.930 . S
C458 H446 0.930 . S
C458 C459 1.399 . S
C458 C463 1.399 . S
C459 C458 1.399 . S
C459 C460 1.376 . S
C460 H447 0.930 . S
C460 C459 1.376 . S
C460 C461 1.388 . S
C461 H448 0.930 . S
C461 C460 1.388 . S
C461 C462 1.390 . S
C462 C461 1.390 . S
C462 C463 1.394 . S
C462 C468 1.465 1_655 S
C463 C458 1.399 . S
C463 C462 1.394 . S
C463 C464 1.516 1_655 S
C464 C463 1.516 1_455 S
C464 C465 1.502 . S
C464 C466 1.561 1_455 S
C464 C467 1.526 . S
C465 H449 0.959 . S
C465 H450 0.959 . S
C465 H451 0.961 . S
C465 C464 1.502 . S
C466 H452 0.960 . S
C466 H453 0.961 . S
C466 H454 0.959 . S
C466 C464 1.561 1_655 S
C467 C464 1.526 . S
C467 C468 1.396 . S
C467 C472 1.390 . S
C468 C462 1.465 1_455 S
C468 C467 1.396 . S
C468 C469 1.399 . S
C469 H455 0.929 . S
C469 C468 1.399 . S
C469 C470 1.385 . S
C470 H456 0.931 . S
C470 C469 1.385 . S
C470 C471 1.389 . S
C471 C470 1.389 . S
C471 C472 1.387 . S
C472 H457 0.930 . S
C472 C467 1.390 . S
C472 C471 1.387 . S
H473 C485 0.930 . S
H474 C487 0.930 . S
H475 C488 0.929 1_565 S
H476 C492 0.959 1_565 S
H477 C492 0.959 . S
H478 C492 0.961 . S
H479 C493 0.960 . S
H480 C493 0.961 . S
H481 C493 0.959 . S
H482 C496 0.929 . S
H483 C497 0.931 . S
H484 C499 0.930 . S
C485 H473 0.930 . S
C485 C486 1.399 . S
C485 C490 1.399 . S
C486 C485 1.399 . S
C486 C487 1.376 . S
C487 H474 0.930 . S
C487 C486 1.376 . S
C487 C488 1.388 . S
C488 H475 0.929 1_545 S
C488 C487 1.388 . S
C488 C489 1.390 . S
C489 C488 1.390 . S
C489 C490 1.394 . S
C489 C495 1.465 1_545 S
C490 C485 1.399 . S
C490 C489 1.394 . S
C490 C491 1.516 . S
C491 C490 1.516 . S
C491 C492 1.502 . S
C491 C493 1.561 . S
C491 C494 1.526 1_545 S
C492 H476 0.959 1_545 S
C492 H477 0.959 . S
C492 H478 0.961 . S
C492 C491 1.502 . S
C493 H479 0.960 . S
C493 H480 0.961 . S
C493 H481 0.959 . S
C493 C491 1.561 . S
C494 C491 1.526 1_565 S
C494 C495 1.396 . S
C494 C499 1.390 . S
C495 C489 1.465 1_565 S
C495 C494 1.396 . S
C495 C496 1.399 . S
C496 H482 0.929 . S
C496 C495 1.399 . S
C496 C497 1.385 . S
C497 H483 0.931 . S
C497 C496 1.385 . S
C497 C498 1.389 . S
C498 C497 1.389 . S
C498 C499 1.387 . S
C499 H484 0.930 . S
C499 C494 1.390 . S
C499 C498 1.387 . S
H500 C512 0.930 . S
H501 C514 0.930 . S
H502 C515 0.930 . S
H503 C519 0.959 1_655 S
H504 C519 0.959 . S
H505 C519 0.961 . S
H506 C520 0.960 . S
H507 C520 0.961 . S
H508 C520 0.959 . S
H509 C523 0.929 . S
H510 C524 0.931 . S
H511 C526 0.930 . S
C512 H500 0.930 . S
C512 C513 1.399 . S
C512 C517 1.399 . S
C513 C512 1.399 . S
C513 C514 1.376 . S
C514 H501 0.930 . S
C514 C513 1.376 . S
C514 C515 1.388 . S
C515 H502 0.930 . S
C515 C514 1.388 . S
C515 C516 1.390 . S
C516 C515 1.390 . S
C516 C517 1.394 . S
C516 C522 1.465 1_455 S
C517 C512 1.399 . S
C517 C516 1.394 . S
C517 C518 1.516 . S
C518 C517 1.516 . S
C518 C519 1.502 . S
C518 C520 1.561 . S
C518 C521 1.526 1_455 S
C519 H503 0.959 1_455 S
C519 H504 0.959 . S
C519 H505 0.961 . S
C519 C518 1.502 . S
C520 H506 0.960 . S
C520 H507 0.961 . S
C520 H508 0.959 . S
C520 C518 1.561 . S
C521 C518 1.526 1_655 S
C521 C522 1.396 . S
C521 C526 1.390 . S
C522 C516 1.465 1_655 S
C522 C521 1.396 . S
C522 C523 1.399 . S
C523 H509 0.929 . S
C523 C522 1.399 . S
C523 C524 1.385 . S
C524 H510 0.931 . S
C524 C523 1.385 . S
C524 C525 1.389 . S
C525 C524 1.389 . S
C525 C526 1.387 . S
C526 H511 0.930 . S
C526 C521 1.390 . S
C526 C525 1.387 . S
H527 C539 0.930 . S
H528 C541 0.930 . S
H529 C542 0.930 . S
H530 C546 0.959 . S
H531 C546 0.959 . S
H532 C546 0.961 . S
H533 C547 0.960 . S
H534 C547 0.961 . S
H535 C547 0.959 . S
H536 C550 0.904 1_565 S
H537 C551 0.931 . S
H538 C553 0.930 . S
C539 H527 0.930 . S
C539 C540 1.399 . S
C539 C544 1.399 . S
C540 C539 1.399 . S
C540 C541 1.376 . S
C541 H528 0.930 . S
C541 C540 1.376 . S
C541 C542 1.388 . S
C542 H529 0.930 . S
C542 C541 1.388 . S
C542 C543 1.390 . S
C543 C542 1.390 . S
C543 C544 1.394 . S
C543 C549 1.465 1_565 S
C544 C539 1.399 . S
C544 C543 1.394 . S
C544 C545 1.516 1_565 S
C545 C544 1.516 1_545 S
C545 C546 1.502 . S
C545 C547 1.561 . S
C545 C548 1.526 . S
C546 H530 0.959 . S
C546 H531 0.959 . S
C546 H532 0.961 . S
C546 C545 1.502 . S
C547 H533 0.960 . S
C547 H534 0.961 . S
C547 H535 0.959 . S
C547 C545 1.561 . S
C548 C545 1.526 . S
C548 C549 1.396 . S
C548 C553 1.390 . S
C549 C543 1.465 1_545 S
C549 C548 1.396 . S
C549 C550 1.400 . S
C550 H536 0.904 1_545 S
C550 C549 1.400 . S
C550 C551 1.410 . S
C551 H537 0.931 . S
C551 C550 1.410 . S
C551 C552 1.389 . S
C552 C551 1.389 . S
C552 C553 1.387 . S
C553 H538 0.930 . S
C553 C548 1.390 . S
C553 C552 1.387 . S
H554 C566 0.930 . S
H555 C568 0.930 . S
H556 C569 0.930 . S
H557 C573 0.959 . S
H558 C573 0.959 . S
H559 C573 0.961 . S
H560 C574 0.960 . S
H561 C574 0.955 1_455 S
H562 C574 0.959 . S
H563 C577 0.929 . S
H564 C578 0.931 . S
H565 C580 0.930 . S
C566 H554 0.930 . S
C566 C567 1.399 . S
C566 C571 1.399 . S
C567 C566 1.399 . S
C567 C568 1.376 . S
C568 H555 0.930 . S
C568 C567 1.376 . S
C568 C569 1.388 . S
C569 H556 0.930 . S
C569 C568 1.388 . S
C569 C570 1.390 . S
C570 C569 1.390 . S
C570 C571 1.394 . S
C570 C576 1.465 1_655 S
C571 C566 1.399 . S
C571 C570 1.394 . S
C571 C572 1.516 1_655 S
C572 C571 1.516 1_455 S
C572 C573 1.502 . S
C572 C574 1.561 1_455 S
C572 C575 1.526 . S
C573 H557 0.959 . S
C573 H558 0.959 . S
C573 H559 0.961 . S
C573 C572 1.502 . S
C574 H560 0.960 . S
C574 H561 0.955 1_655 S
C574 H562 0.959 . S
C574 C572 1.561 1_655 S
C575 C572 1.526 . S
C575 C576 1.396 . S
C575 C580 1.390 . S
C576 C570 1.465 1_455 S
C576 C575 1.396 . S
C576 C577 1.399 . S
C577 H563 0.929 . S
C577 C576 1.399 . S
C577 C578 1.385 . S
C578 H564 0.931 . S
C578 C577 1.385 . S
C578 C579 1.389 . S
C579 C578 1.389 . S
C579 C580 1.387 . S
C580 H565 0.930 . S
C580 C575 1.390 . S
C580 C579 1.387 . S
H581 C593 0.930 . S
H582 C595 0.930 . S
H583 C596 0.930 1_545 S
H584 C600 0.959 . S
H585 C600 0.959 . S
H586 C600 0.961 . S
H587 C601 0.960 . S
H588 C601 0.961 . S
H589 C601 0.959 . S
H590 C604 0.929 . S
H591 C605 0.931 . S
H592 C607 0.930 . S
C593 H581 0.930 . S
C593 C594 1.399 . S
C593 C598 1.399 . S
C594 C593 1.399 . S
C594 C595 1.376 . S
C595 H582 0.930 . S
C595 C594 1.376 . S
C595 C596 1.388 . S
C596 H583 0.930 1_565 S
C596 C595 1.388 . S
C596 C597 1.390 . S
C597 C596 1.390 . S
C597 C598 1.394 . S
C597 C603 1.465 1_565 S
C598 C593 1.399 . S
C598 C597 1.394 . S
C598 C599 1.516 . S
C599 C598 1.516 . S
C599 C600 1.502 . S
C599 C601 1.561 . S
C599 C602 1.526 1_565 S
C600 H584 0.959 . S
C600 H585 0.959 . S
C600 H586 0.961 . S
C600 C599 1.502 . S
C601 H587 0.960 . S
C601 H588 0.961 . S
C601 H589 0.959 . S
C601 C599 1.561 . S
C602 C599 1.526 1_545 S
C602 C603 1.396 . S
C602 C607 1.390 . S
C603 C597 1.465 1_545 S
C603 C602 1.396 . S
C603 C604 1.399 . S
C604 H590 0.929 . S
C604 C603 1.399 . S
C604 C605 1.385 . S
C605 H591 0.931 . S
C605 C604 1.385 . S
C605 C606 1.389 . S
C606 C605 1.389 . S
C606 C607 1.387 . S
C607 H592 0.930 . S
C607 C602 1.390 . S
C607 C606 1.387 . S
H608 C620 0.930 . S
H609 C622 0.930 . S
H610 C623 0.930 . S
H611 C627 0.959 . S
H612 C627 0.959 . S
H613 C627 0.961 . S
H614 C628 0.960 . S
H615 C628 0.961 . S
H616 C628 0.959 . S
H617 C631 0.929 . S
H618 C632 0.931 . S
H619 C634 0.930 . S
C620 H608 0.930 . S
C620 C621 1.399 . S
C620 C625 1.399 . S
C621 C620 1.399 . S
C621 C622 1.376 . S
C622 H609 0.930 . S
C622 C621 1.376 . S
C622 C623 1.388 . S
C623 H610 0.930 . S
C623 C622 1.388 . S
C623 C624 1.390 . S
C624 C623 1.390 . S
C624 C625 1.394 . S
C624 C630 1.465 . S
C625 C620 1.399 . S
C625 C624 1.394 . S
C625 C626 1.516 . S
C626 C625 1.516 . S
C626 C627 1.502 . S
C626 C628 1.561 . S
C626 C629 1.526 . S
C627 H611 0.959 . S
C627 H612 0.959 . S
C627 H613 0.961 . S
C627 C626 1.502 . S
C628 H614 0.960 . S
C628 H615 0.961 . S
C628 H616 0.959 . S
C628 C626 1.561 . S
C629 C626 1.526 . S
C629 C630 1.396 . S
C629 C634 1.390 . S
C630 C624 1.465 . S
C630 C629 1.396 . S
C630 C631 1.399 . S
C631 H617 0.929 . S
C631 C630 1.399 . S
C631 C632 1.385 . S
C632 H618 0.931 . S
C632 C631 1.385 . S
C632 C633 1.389 . S
C633 C632 1.389 . S
C633 C634 1.387 . S
C634 H619 0.930 . S
C634 C629 1.390 . S
C634 C633 1.387 . S
H635 C647 0.930 . S
H636 C649 0.930 . S
H637 C650 0.930 . S
H638 C654 0.959 . S
H639 C654 0.959 . S
H640 C654 0.961 . S
H641 C655 0.960 . S
H642 C655 0.961 . S
H643 C655 0.959 . S
H644 C658 0.929 . S
H645 C659 0.931 . S
H646 C661 0.930 . S
C647 H635 0.930 . S
C647 C648 1.399 . S
C647 C652 1.399 . S
C648 C647 1.399 . S
C648 C649 1.376 . S
C649 H636 0.930 . S
C649 C648 1.376 . S
C649 C650 1.388 . S
C650 H637 0.930 . S
C650 C649 1.388 . S
C650 C651 1.390 . S
C651 C650 1.390 . S
C651 C652 1.394 . S
C651 C657 1.465 . S
C652 C647 1.399 . S
C652 C651 1.394 . S
C652 C653 1.516 . S
C653 C652 1.516 . S
C653 C654 1.502 . S
C653 C655 1.561 . S
C653 C656 1.526 . S
C654 H638 0.959 . S
C654 H639 0.959 . S
C654 H640 0.961 . S
C654 C653 1.502 . S
C655 H641 0.960 . S
C655 H642 0.961 . S
C655 H643 0.959 . S
C655 C653 1.561 . S
C656 C653 1.526 . S
C656 C657 1.396 . S
C656 C661 1.390 . S
C657 C651 1.465 . S
C657 C656 1.396 . S
C657 C658 1.399 . S
C658 H644 0.929 . S
C658 C657 1.399 . S
C658 C659 1.385 . S
C659 H645 0.931 . S
C659 C658 1.385 . S
C659 C660 1.389 . S
C660 C659 1.389 . S
C660 C661 1.387 . S
C661 H646 0.930 . S
C661 C656 1.390 . S
C661 C660 1.387 . S
H662 C674 0.930 . S
H663 C676 0.930 . S
H664 C677 0.930 . S
H665 C681 0.959 . S
H666 C681 0.959 . S
H667 C681 0.961 . S
H668 C682 0.960 . S
H669 C682 0.961 . S
H670 C682 0.959 . S
H671 C685 0.929 . S
H672 C686 0.931 . S
H673 C688 0.930 . S
C674 H662 0.930 . S
C674 C675 1.399 . S
C674 C679 1.399 . S
C675 C674 1.399 . S
C675 C676 1.376 . S
C676 H663 0.930 . S
C676 C675 1.376 . S
C676 C677 1.388 . S
C677 H664 0.930 . S
C677 C676 1.388 . S
C677 C678 1.390 . S
C678 C677 1.390 . S
C678 C679 1.394 . S
C678 C684 1.465 . S
C679 C674 1.399 . S
C679 C678 1.394 . S
C679 C680 1.516 . S
C680 C679 1.516 . S
C680 C681 1.502 . S
C680 C682 1.561 . S
C680 C683 1.526 . S
C681 H665 0.959 . S
C681 H666 0.959 . S
C681 H667 0.961 . S
C681 C680 1.502 . S
C682 H668 0.960 . S
C682 H669 0.961 . S
C682 H670 0.959 . S
C682 C680 1.561 . S
C683 C680 1.526 . S
C683 C684 1.396 . S
C683 C688 1.390 . S
C684 C678 1.465 . S
C684 C683 1.396 . S
C684 C685 1.399 . S
C685 H671 0.929 . S
C685 C684 1.399 . S
C685 C686 1.385 . S
C686 H672 0.931 . S
C686 C685 1.385 . S
C686 C687 1.389 . S
C687 C686 1.389 . S
C687 C688 1.387 . S
C688 H673 0.930 . S
C688 C683 1.390 . S
C688 C687 1.387 . S
H689 C701 0.930 . S
H690 C703 0.930 . S
H691 C704 0.930 . S
H692 C708 0.959 . S
H693 C708 0.959 . S
H694 C708 0.961 . S
H695 C709 0.960 . S
H696 C709 0.961 . S
H697 C709 0.959 . S
H698 C712 0.929 . S
H699 C713 0.931 . S
H700 C715 0.930 . S
C701 H689 0.930 . S
C701 C702 1.399 . S
C701 C706 1.399 . S
C702 C701 1.399 . S
C702 C703 1.376 . S
C703 H690 0.930 . S
C703 C702 1.376 . S
C703 C704 1.388 . S
C704 H691 0.930 . S
C704 C703 1.388 . S
C704 C705 1.390 . S
C705 C704 1.390 . S
C705 C706 1.394 . S
C705 C711 1.465 . S
C706 C701 1.399 . S
C706 C705 1.394 . S
C706 C707 1.516 . S
C707 C706 1.516 . S
C707 C708 1.502 . S
C707 C709 1.561 . S
C707 C710 1.526 . S
C708 H692 0.959 . S
C708 H693 0.959 . S
C708 H694 0.961 . S
C708 C707 1.502 . S
C709 H695 0.960 . S
C709 H696 0.961 . S
C709 H697 0.959 . S
C709 C707 1.561 . S
C710 C707 1.526 . S
C710 C711 1.396 . S
C710 C715 1.390 . S
C711 C705 1.465 . S
C711 C710 1.396 . S
C711 C712 1.399 . S
C712 H698 0.929 . S
C712 C711 1.399 . S
C712 C713 1.385 . S
C713 H699 0.931 . S
C713 C712 1.385 . S
C713 C714 1.389 . S
C714 C713 1.389 . S
C714 C715 1.387 . S
C715 H700 0.930 . S
C715 C710 1.390 . S
C715 C714 1.387 . S
H716 C728 0.930 . S
H717 C730 0.930 . S
H718 C731 0.930 . S
H719 C735 0.959 . S
H720 C735 0.959 . S
H721 C735 0.961 . S
H722 C736 0.960 . S
H723 C736 0.961 . S
H724 C736 0.959 . S
H725 C739 0.929 . S
H726 C740 0.931 . S
H727 C742 0.930 . S
C728 H716 0.930 . S
C728 C729 1.399 . S
C728 C733 1.399 . S
C729 C728 1.399 . S
C729 C730 1.376 . S
C730 H717 0.930 . S
C730 C729 1.376 . S
C730 C731 1.388 . S
C731 H718 0.930 . S
C731 C730 1.388 . S
C731 C732 1.390 . S
C732 C731 1.390 . S
C732 C733 1.394 . S
C732 C738 1.465 . S
C733 C728 1.399 . S
C733 C732 1.394 . S
C733 C734 1.516 . S
C734 C733 1.516 . S
C734 C735 1.502 . S
C734 C736 1.561 . S
C734 C737 1.526 . S
C735 H719 0.959 . S
C735 H720 0.959 . S
C735 H721 0.961 . S
C735 C734 1.502 . S
C736 H722 0.960 . S
C736 H723 0.961 . S
C736 H724 0.959 . S
C736 C734 1.561 . S
C737 C734 1.526 . S
C737 C738 1.396 . S
C737 C742 1.390 . S
C738 C732 1.465 . S
C738 C737 1.396 . S
C738 C739 1.399 . S
C739 H725 0.929 . S
C739 C738 1.399 . S
C739 C740 1.385 . S
C740 H726 0.931 . S
C740 C739 1.385 . S
C740 C741 1.389 . S
C741 C740 1.389 . S
C741 C742 1.387 . S
C742 H727 0.930 . S
C742 C737 1.390 . S
C742 C741 1.387 . S
H743 C755 0.930 . S
H744 C757 0.930 . S
H745 C758 0.930 . S
H746 C762 0.959 . S
H747 C762 0.959 . S
H748 C762 0.961 . S
H749 C763 0.960 . S
H750 C763 0.961 . S
H751 C763 0.959 . S
H752 C766 0.929 . S
H753 C767 0.931 . S
H754 C769 0.930 . S
C755 H743 0.930 . S
C755 C756 1.399 . S
C755 C760 1.399 . S
C756 C755 1.399 . S
C756 C757 1.376 . S
C757 H744 0.930 . S
C757 C756 1.376 . S
C757 C758 1.388 . S
C758 H745 0.930 . S
C758 C757 1.388 . S
C758 C759 1.390 . S
C759 C758 1.390 . S
C759 C760 1.394 . S
C759 C765 1.465 . S
C760 C755 1.399 . S
C760 C759 1.394 . S
C760 C761 1.516 . S
C761 C760 1.516 . S
C761 C762 1.502 . S
C761 C763 1.561 . S
C761 C764 1.526 . S
C762 H746 0.959 . S
C762 H747 0.959 . S
C762 H748 0.961 . S
C762 C761 1.502 . S
C763 H749 0.960 . S
C763 H750 0.961 . S
C763 H751 0.959 . S
C763 C761 1.561 . S
C764 C761 1.526 . S
C764 C765 1.396 . S
C764 C769 1.390 . S
C765 C759 1.465 . S
C765 C764 1.396 . S
C765 C766 1.399 . S
C766 H752 0.929 . S
C766 C765 1.399 . S
C766 C767 1.385 . S
C767 H753 0.931 . S
C767 C766 1.385 . S
C767 C768 1.389 . S
C768 C767 1.389 . S
C768 C769 1.387 . S
C769 H754 0.930 . S
C769 C764 1.390 . S
C769 C768 1.387 . S
H770 C782 0.930 . S
H771 C784 0.930 . S
H772 C785 0.930 . S
H773 C789 0.959 . S
H774 C789 0.959 . S
H775 C789 0.961 . S
H776 C790 0.960 . S
H777 C790 0.961 . S
H778 C790 0.959 . S
H779 C793 0.929 . S
H780 C794 0.931 . S
H781 C796 0.930 . S
C782 H770 0.930 . S
C782 C783 1.399 . S
C782 C787 1.399 . S
C783 C782 1.399 . S
C783 C784 1.376 . S
C784 H771 0.930 . S
C784 C783 1.376 . S
C784 C785 1.388 . S
C785 H772 0.930 . S
C785 C784 1.388 . S
C785 C786 1.390 . S
C786 C785 1.390 . S
C786 C787 1.394 . S
C786 C792 1.465 . S
C787 C782 1.399 . S
C787 C786 1.394 . S
C787 C788 1.516 . S
C788 C787 1.516 . S
C788 C789 1.502 . S
C788 C790 1.561 . S
C788 C791 1.526 . S
C789 H773 0.959 . S
C789 H774 0.959 . S
C789 H775 0.961 . S
C789 C788 1.502 . S
C790 H776 0.960 . S
C790 H777 0.961 . S
C790 H778 0.959 . S
C790 C788 1.561 . S
C791 C788 1.526 . S
C791 C792 1.396 . S
C791 C796 1.390 . S
C792 C786 1.465 . S
C792 C791 1.396 . S
C792 C793 1.399 . S
C793 H779 0.929 . S
C793 C792 1.399 . S
C793 C794 1.385 . S
C794 H780 0.931 . S
C794 C793 1.385 . S
C794 C795 1.389 . S
C795 C794 1.389 . S
C795 C796 1.387 . S
C796 H781 0.930 . S
C796 C791 1.390 . S
C796 C795 1.387 . S
H797 C809 0.930 . S
H798 C811 0.930 . S
H799 C812 0.930 . S
H800 C816 0.959 . S
H801 C816 0.959 . S
H802 C816 0.961 . S
H803 C817 0.960 . S
H804 C817 0.961 . S
H805 C817 0.959 . S
H806 C820 0.929 . S
H807 C821 0.931 . S
H808 C823 0.930 . S
C809 H797 0.930 . S
C809 C810 1.399 . S
C809 C814 1.399 . S
C810 C809 1.399 . S
C810 C811 1.376 . S
C811 H798 0.930 . S
C811 C810 1.376 . S
C811 C812 1.388 . S
C812 H799 0.930 . S
C812 C811 1.388 . S
C812 C813 1.390 . S
C813 C812 1.390 . S
C813 C814 1.394 . S
C813 C819 1.465 . S
C814 C809 1.399 . S
C814 C813 1.394 . S
C814 C815 1.516 . S
C815 C814 1.516 . S
C815 C816 1.502 . S
C815 C817 1.561 . S
C815 C818 1.526 . S
C816 H800 0.959 . S
C816 H801 0.959 . S
C816 H802 0.961 . S
C816 C815 1.502 . S
C817 H803 0.960 . S
C817 H804 0.961 . S
C817 H805 0.959 . S
C817 C815 1.561 . S
C818 C815 1.526 . S
C818 C819 1.396 . S
C818 C823 1.390 . S
C819 C813 1.465 . S
C819 C818 1.396 . S
C819 C820 1.399 . S
C820 H806 0.929 . S
C820 C819 1.399 . S
C820 C821 1.385 . S
C821 H807 0.931 . S
C821 C820 1.385 . S
C821 C822 1.389 . S
C822 C821 1.389 . S
C822 C823 1.387 . S
C823 H808 0.930 . S
C823 C818 1.390 . S
C823 C822 1.387 . S
C189 C136 1.404 . S
C201 C8 1.423 . S
C216 C30 1.401 . S
C228 C158 1.431 . S
C243 C92 1.446 . S
C255 C53 1.430 . S
C270 C74 1.423 . S
C282 C114 1.448 . S
C297 C96 1.419 . S
C309 C50 1.445 . S
C324 C70 1.448 . S
C336 C118 1.415 . S
C351 C140 1.403 . S
C363 C4 1.442 . S
C378 C26 1.424 . S
C390 C162 1.441 . S
C405 C27 1.406 . S
C417 C119 1.423 . S
C432 C141 1.443 . S
C444 C48 1.403 . S
C459 C163 1.448 . S
C471 C71 1.429 . S
C486 C5 1.430 . S
C498 C97 1.448 . S
C513 C73 1.414 . S
C525 C160 1.425 . S
C540 C94 1.451 . S
C552 C7 1.400 . S
C567 C29 1.434 . S
C579 C116 1.407 . S
C594 C52 1.403 . S
C606 C138 1.439 . S
C621 C159 1.203 . S
C633 C9 1.193 . S
C648 C31 1.194 . S
C660 C93 1.202 . S
C675 C51 1.181 . S
C687 C115 1.217 . S
C702 C137 1.224 . S
C714 C75 1.179 . S
C729 C117 1.223 . S
C741 C49 1.182 . S
C756 C139 1.200 . S
C768 C72 1.212 . S
C783 C161 1.180 . S
C795 C6 1.225 . S
C810 C95 1.207 . S
C822 C28 1.205 . S
