# Generated by pormake.
# Topology sxc, (6)-cn, num edge types: 1
# Building blocks:
#     Node 0, Type 0, BuildingBlock: GEDQOX_clean_sbu_0, # of connection points: 6
#     Node 1, Type 0, BuildingBlock: GEDQOX_clean_sbu_0, # of connection points: 6
#     Node 2, Type 0, BuildingBlock: GEDQOX_clean_sbu_0, # of connection points: 6
#     Edge 3, Type (0, 0), BuildingBlock: FUNLAD_clean_linker_0, # of connection points: 2
#     Edge 4, Type (0, 0), BuildingBlock: FUNLAD_clean_linker_0, # of connection points: 2
#     Edge 5, Type (0, 0), BuildingBlock: FUNLAD_clean_linker_0, # of connection points: 2
#     Edge 6, Type (0, 0), BuildingBlock: FUNLAD_clean_linker_0, # of connection points: 2
#     Edge 7, Type (0, 0), BuildingBlock: FUNLAD_clean_linker_0, # of connection points: 2
#     Edge 8, Type (0, 0), BuildingBlock: FUNLAD_clean_linker_0, # of connection points: 2
#     Edge 9, Type (0, 0), BuildingBlock: FUNLAD_clean_linker_0, # of connection points: 2
#     Edge 10, Type (0, 0), BuildingBlock: FUNLAD_clean_linker_0, # of connection points: 2
#     Edge 11, Type (0, 0), BuildingBlock: FUNLAD_clean_linker_0, # of connection points: 2
# Relax obj value: 0.245
# Max RMSD: 0.156
# Mean RMSD: 0.088
data_MOF--net-sxc--node1-GEDQOX_clean_sbu_0--edge1-FUNLAD_clean_linker_0
_symmetry_space_group_name_H-M    P1
_symmetry_Int_Tables_number       1
_symmetry_cell_setting            triclinic
loop_
_symmetry_equiv_pos_as_xyz
'x, y, z'
_cell_length_a     25.81462
_cell_length_b     19.594943
_cell_length_c     51.880276
_cell_angle_alpha  91.97426
_cell_angle_beta   90.652259
_cell_angle_gamma 134.71196
loop_
_atom_site_label
_atom_site_type_symbol
_atom_site_fract_x
_atom_site_fract_y
_atom_site_fract_z
_atom_type_partial_charge
Nd0 Nd 0.14235 0.21748 0.01391 0.0
Nd1 Nd 0.15249 1.08907 0.01343 0.0
C2 C 0.16005 0.36462 0.00454 0.0
C3 C 0.17814 0.41396 0.98069 0.0
C4 C 0.1818 0.37779 0.95771 0.0
C5 C 0.19434 0.42041 0.93451 0.0
C6 C 0.20419 0.50055 0.93404 0.0
C7 C 0.20303 0.53853 0.95734 0.0
C8 C 0.18992 0.49532 0.9805 0.0
C9 C 0.12791 0.15983 0.06373 0.0
C10 C 0.3041 0.30109 0.01828 0.0
C11 C 0.13778 0.94128 0.01206 0.0
C12 C 0.1177 0.87992 0.98902 0.0
C13 C 0.12252 0.81314 0.98928 0.0
C14 C 1.10928 0.7619 0.96638 0.0
C15 C 1.09199 0.77792 0.94296 0.0
C16 C 1.08562 0.84333 0.94299 0.0
C17 C 1.09794 0.89341 0.96585 0.0
C18 C 0.16585 0.14875 0.9638 0.0
C19 C 0.98861 1.00179 0.01116 0.0
O20 O 1.09653 0.27585 0.00381 0.0
O21 O 0.21139 0.37467 0.01493 0.0
O22 O 1.08934 0.17158 0.0531 0.0
O23 O 0.17441 0.18013 0.04848 0.0
O24 O 0.26421 0.30952 0.00582 0.0
O25 O 0.26979 0.21971 0.02912 0.0
O26 O 1.08697 0.93559 0.0197 0.0
O27 O 0.20082 1.03008 0.01146 0.0
O28 O 0.20756 0.14272 0.97455 0.0
O29 O 0.11868 1.12488 0.97924 0.0
O30 O 1.02922 0.98993 0.02067 0.0
O31 O 1.02139 1.08572 0.00245 0.0
H32 H 0.17343 0.31533 0.95768 0.0
H33 H 0.19518 0.38987 0.9169 0.0
H34 H 0.20922 0.59926 0.9575 0.0
H35 H 0.18734 0.52404 0.9981 0.0
H36 H 0.13806 0.8023 0.00697 0.0
H37 H 0.11521 0.71243 0.9668 0.0
H38 H 1.07184 0.85645 0.92528 0.0
H39 H 1.09359 0.94444 0.96533 0.0
Nd40 Nd 1.06679 1.08788 0.34133 0.0
Nd41 Nd 0.21512 0.22878 0.35687 0.0
C42 C 0.93842 0.98883 0.31759 0.0
C43 C 0.89314 1.00837 0.31507 0.0
C44 C 0.92309 1.09722 0.30685 0.0
C45 C 0.88454 1.12245 0.30907 0.0
C46 C 0.81566 1.05971 0.3197 0.0
C47 C 0.78393 0.96852 0.32647 0.0
C48 C 0.82242 0.94305 0.32413 0.0
C49 C 1.08624 1.10428 0.39435 0.0
C50 C 0.14485 0.31946 0.35052 0.0
C51 C 0.34455 0.32885 0.37984 0.0
C52 C 0.3918 0.3121 0.38081 0.0
C53 C 0.36435 0.22354 0.38806 0.0
C54 C 0.40435 0.20105 0.38421 0.0
C55 C 0.47222 0.26631 0.37291 0.0
C56 C 0.50161 0.35718 0.36715 0.0
C57 C 0.46166 0.37989 0.37112 0.0
C58 C 0.19482 0.21223 0.30392 0.0
C59 C 0.13685 0.99692 0.34789 0.0
O60 O 0.99963 1.04501 0.30571 0.0
O61 O 0.94597 0.97292 0.34092 0.0
O62 O 1.03977 1.02307 0.38083 0.0
O63 O 0.1204 0.17433 0.37995 0.0
O64 O 1.08795 0.2298 0.34061 0.0
O65 O 0.20128 0.33669 0.36042 0.0
O66 O 0.28365 0.26922 0.39183 0.0
O67 O 0.33572 0.34713 0.35714 0.0
O68 O 0.24075 0.2935 0.31741 0.0
O69 O 0.16161 0.1424 0.31835 0.0
O70 O 0.19422 1.08701 0.35742 0.0
O71 O 1.07994 0.97922 0.33834 0.0
H72 H 0.97758 0.14921 0.29975 0.0
H73 H 0.90971 0.19247 0.30326 0.0
H74 H 0.73111 0.91891 0.33489 0.0
H75 H 0.79853 0.87438 0.33066 0.0
H76 H 0.31062 0.16971 0.39563 0.0
H77 H 0.38105 1.13124 0.3893 0.0
H78 H 0.55362 0.40873 0.35828 0.0
H79 H 0.48366 0.44841 0.36532 0.0
Nd80 Nd 0.13424 0.22218 0.68886 0.0
Nd81 Nd 0.15112 1.07628 0.66953 0.0
C82 C 0.11683 0.31976 0.71615 0.0
C83 C 1.06533 0.32835 0.71248 0.0
C84 C 1.03244 0.32807 0.73384 0.0
C85 C 0.97194 0.31457 0.73017 0.0
C86 C 0.94362 0.3006 0.70508 0.0
C87 C 0.97984 0.30744 0.68378 0.0
C88 C 1.04 0.32077 0.68744 0.0
C89 C 0.12243 0.19354 0.6352 0.0
C90 C 0.98592 0.98979 0.67657 0.0
C91 C 0.16808 0.97839 0.64208 0.0
C92 C 0.21924 0.96919 0.64572 0.0
C93 C 0.25196 0.96915 0.62435 0.0
C94 C 0.31204 0.98174 0.628 0.0
C95 C 0.34014 0.99516 0.65309 0.0
C96 C 0.3041 0.9887 0.6744 0.0
C97 C 0.24434 0.97624 0.67075 0.0
C98 C 0.16331 1.10358 0.72319 0.0
C99 C 0.29952 0.30875 0.68183 0.0
O100 O 1.08618 0.23347 0.72157 0.0
O101 O 0.16679 0.35901 0.69899 0.0
O102 O 0.11551 0.24622 0.647 0.0
O103 O 0.13275 0.15962 0.65217 0.0
O104 O 1.015 1.07257 0.68821 0.0
O105 O 1.02619 0.97846 0.66581 0.0
O106 O 0.19903 1.06486 0.63677 0.0
O107 O 0.11806 0.93918 0.6592 0.0
O108 O 0.16837 1.04973 0.71084 0.0
O109 O 0.15335 0.13936 0.70667 0.0
O110 O 0.27047 0.22579 0.67032 0.0
O111 O 0.25924 0.32031 0.69245 0.0
H112 H 1.05085 0.33268 0.75328 0.0
H113 H 0.9447 0.30904 0.7469 0.0
H114 H 0.95965 0.29823 0.66425 0.0
H115 H 1.06415 0.31991 0.67066 0.0
H116 H 0.23372 0.96493 0.60491 0.0
H117 H 0.33917 0.98701 0.61127 0.0
H118 H 0.32416 0.99754 0.69392 0.0
H119 H 0.22033 0.97731 0.68754 0.0
C120 C 0.25652 0.63871 0.90712 0.0
C121 C 0.20834 0.5391 0.90924 0.0
C122 C 0.24857 0.67433 0.88629 0.0
C123 C 0.19171 0.61088 0.86743 0.0
C124 C 0.14909 0.51187 0.86796 0.0
C125 C 0.15732 0.47623 0.88875 0.0
C126 C 0.16822 0.64737 0.85151 0.0
C127 C 1.0991 0.60499 0.85349 0.0
C128 C 1.0859 0.64618 0.87362 0.0
C129 C 1.0432 0.58996 0.89426 0.0
C130 C 1.04323 0.63206 0.91652 0.0
C131 C 1.08491 0.73083 0.91835 0.0
H132 H 0.15756 0.78871 0.85915 0.0
C133 C 0.12349 0.78577 0.89697 0.0
C134 C 0.12433 0.7439 0.87482 0.0
H135 H 0.15615 0.8622 0.8979 0.0
H136 H 0.29733 0.68879 0.9224 0.0
H137 H 0.28249 0.75104 0.88627 0.0
H138 H 1.10568 0.46146 0.85342 0.0
H139 H 0.11971 0.39905 0.88979 0.0
H140 H 0.20982 0.72511 0.85038 0.0
H141 H 1.05647 0.52687 0.85137 0.0
H142 H 1.01355 0.51459 0.89387 0.0
H143 H 1.01237 0.58799 0.93261 0.0
C144 C 0.58541 0.30102 0.36863 0.0
C145 C 0.50933 0.23671 0.36529 0.0
C146 C 0.62027 0.27386 0.3603 0.0
C147 C 0.57945 0.18142 0.3486 0.0
C148 C 0.50357 1.11768 0.34509 0.0
C149 C 0.46876 0.14479 0.35341 0.0
C150 C 0.61391 0.14951 0.33923 0.0
C151 C 0.67805 0.18595 0.34913 0.0
C152 C 0.71179 0.15254 0.34023 0.0
C153 C 0.7874 0.21483 0.34427 0.0
C154 C 0.82123 0.18533 0.33703 0.0
C155 C 0.77992 1.09242 0.32573 0.0
H156 H 0.61159 1.00803 0.3262 0.0
C157 C 0.7042 1.02989 0.32165 0.0
C158 C 0.67031 1.05942 0.3289 0.0
H159 H 0.67104 0.95783 0.31304 0.0
H160 H 0.61802 0.37242 0.37764 0.0
H161 H 0.67913 0.32631 0.3626 0.0
H162 H 0.47101 1.04651 0.33589 0.0
H163 H 0.41018 1.09438 0.35003 0.0
H164 H 0.58412 1.09247 0.32404 0.0
H165 H 0.70782 0.24298 0.36432 0.0
H166 H 0.82043 0.28648 0.35321 0.0
H167 H 0.87953 0.2345 0.34094 0.0
C168 C 0.8585 0.91221 0.68674 0.0
C169 C 0.90441 0.90529 0.67566 0.0
C170 C 0.78222 0.83229 0.68614 0.0
C171 C 0.7493 0.74249 0.67446 0.0
C172 C 0.79541 0.73626 0.66326 0.0
C173 C 0.87143 0.8159 0.66388 0.0
C174 C 0.66794 0.654 0.67289 0.0
C175 C 0.61754 0.6444 0.68558 0.0
C176 C 0.53618 0.55593 0.684 0.0
C177 C 0.49008 0.56219 0.69519 0.0
C178 C 0.41405 0.4826 0.69455 0.0
C179 C 0.38105 0.39321 0.68276 0.0
H180 H 0.53563 0.45612 0.66378 0.0
C181 C 0.42694 0.38624 0.67169 0.0
C182 C 0.50324 0.46613 0.67231 0.0
H183 H 0.40399 0.31882 0.6625 0.0
H184 H 0.88143 0.97965 0.69592 0.0
H185 H 0.74982 0.84228 0.69468 0.0
H186 H 0.77253 0.66894 0.65399 0.0
H187 H 0.90433 0.80696 0.65509 0.0
H188 H 0.64948 0.59386 0.66058 0.0
H189 H 0.636 0.70453 0.69788 0.0
H190 H 0.51298 0.62951 0.70447 0.0
H191 H 0.38116 0.49156 0.70334 0.0
C192 C 0.81965 0.19056 0.68347 0.0
C193 C 0.8725 0.2689 0.70098 0.0
C194 C 0.75151 0.15773 0.67976 0.0
C195 C 0.73498 0.20332 0.69334 0.0
C196 C 0.78738 0.28059 0.7112 0.0
C197 C 0.85567 0.31325 0.715 0.0
C198 C 0.6631 0.17047 0.68994 0.0
C199 C 0.61968 1.12259 0.6683 0.0
C200 C 0.54799 1.09027 0.66488 0.0
C201 C 0.49532 1.01295 0.64707 0.0
C202 C 0.42728 0.98099 0.64325 0.0
C203 C 0.41097 1.02608 0.6572 0.0
H204 H 0.57198 0.1991 0.69138 0.0
C205 C 0.46409 1.10446 0.67465 0.0
C206 C 0.53197 1.13662 0.67837 0.0
H207 H 0.45373 0.14251 0.68504 0.0
H208 H 0.83041 0.15307 0.67301 0.0
H209 H 0.71174 1.09535 0.66669 0.0
H210 H 0.77565 0.31624 0.72211 0.0
H211 H 0.89542 0.37349 0.72871 0.0
H212 H 0.64636 0.18778 0.70584 0.0
H213 H 0.63634 1.10516 0.6524 0.0
H214 H 0.50667 0.97675 0.63622 0.0
H215 H 0.38731 0.92072 0.62958 0.0
C216 C 0.87088 0.83179 0.02029 0.0
C217 C 0.90676 0.92212 0.01095 0.0
C218 C 0.79406 0.75743 0.02025 0.0
C219 C 0.75051 0.77121 0.01087 0.0
C220 C 0.7868 0.8616 0.00147 0.0
C221 C 0.86337 0.93565 0.00151 0.0
C222 C 0.66788 0.69471 0.01003 0.0
C223 C 0.62496 0.60733 0.02031 0.0
C224 C 0.54229 0.53107 0.01947 0.0
C225 C 0.50576 0.44581 0.03221 0.0
C226 C 0.42909 0.37184 0.03195 0.0
C227 C 0.38596 0.3804 0.01892 0.0
H228 H 0.52313 0.60254 0.99612 0.0
C229 C 0.42207 0.46548 0.0062 0.0
C230 C 0.49885 0.53955 0.00641 0.0
H231 H 0.39094 0.47492 0.99587 0.0
H232 H 0.90221 0.81823 0.02766 0.0
H233 H 0.76971 0.68956 0.02744 0.0
H234 H 0.75568 0.8754 0.99401 0.0
H235 H 0.88853 1.00383 0.99413 0.0
H236 H 0.64185 0.71328 0.00059 0.0
H237 H 0.65109 0.5897 0.03028 0.0
H238 H 0.53676 0.436 0.04245 0.0
H239 H 0.40364 0.30768 0.04197 0.0
C240 C 1.08805 0.39028 0.34114 0.0
C241 C 0.14645 0.4022 0.35072 0.0
C242 C 1.09175 0.46792 0.34159 0.0
C243 C 0.15434 0.56342 0.35165 0.0
C244 C 0.21202 0.57425 0.36112 0.0
C245 C 0.20832 0.49743 0.36071 0.0
C246 C 0.16458 0.65392 0.35306 0.0
C247 C 0.11713 0.66246 0.34533 0.0
C248 C 0.12735 0.75294 0.34676 0.0
C249 C 1.06942 0.74192 0.33751 0.0
C250 C 1.07311 0.81873 0.33793 0.0
C251 C 0.13525 0.91418 0.3477 0.0
H252 H 0.23718 0.86439 0.36405 0.0
C253 C 0.19391 0.92631 0.35704 0.0
C254 C 0.1902 0.84866 0.3566 0.0
H255 H 0.24358 0.99671 0.36483 0.0
H256 H 1.0386 0.32006 0.33317 0.0
H257 H 1.04498 0.45236 0.33395 0.0
H258 H 0.26176 0.64421 0.36913 0.0
H259 H 0.25535 0.51361 0.3684 0.0
H260 H 0.21707 0.71979 0.36143 0.0
H261 H 1.06461 0.59657 0.33698 0.0
H262 H 1.01948 0.67179 0.32967 0.0
H263 H 1.02588 0.80238 0.33042 0.0
C264 C 0.13665 1.11649 0.26095 0.0
C265 C 0.19181 0.2046 0.27515 0.0
C266 C 0.13452 1.11161 0.23375 0.0
C267 C 0.18813 0.19475 0.22019 0.0
C268 C 0.24362 0.2821 0.23454 0.0
C269 C 0.24502 0.28723 0.26156 0.0
C270 C 0.18961 0.19371 0.1913 0.0
C271 C 0.12947 1.132 0.17524 0.0
C272 C 0.13078 0.13796 0.14647 0.0
C273 C 1.06952 1.10777 0.13294 0.0
C274 C 1.06887 1.11438 0.10616 0.0
C275 C 0.12887 0.14934 0.09199 0.0
H276 H 0.2382 0.19347 0.14188 0.0
C277 C 0.18945 0.17666 0.10527 0.0
C278 C 0.19067 0.1717 0.13226 0.0
H279 H 0.23643 0.20356 0.09489 0.0
H280 H 1.09498 1.05147 0.27085 0.0
H281 H 1.09168 1.04252 0.22345 0.0
H282 H 0.28587 0.34725 0.22477 0.0
H283 H 0.28842 0.35625 0.27184 0.0
H284 H 0.24189 0.25118 0.18306 0.0
H285 H 1.07633 1.08015 0.1835 0.0
H286 H 1.02234 1.08071 0.14322 0.0
H287 H 1.02116 1.09215 0.0965 0.0
C288 C 0.14636 0.19598 0.43765 0.0
C289 C 1.08641 1.11209 0.42302 0.0
C290 C 0.14554 0.20123 0.46477 0.0
C291 C 1.08392 1.12348 0.47771 0.0
C292 C 1.02387 1.04053 0.46298 0.0
C293 C 1.02554 1.03423 0.43607 0.0
C294 C 1.07859 1.12824 0.50628 0.0
C295 C 0.13459 0.16947 0.52357 0.0
C296 C 0.12763 0.17051 0.55218 0.0
C297 C 0.16819 0.16526 0.5687 0.0
C298 C 0.16462 0.16933 0.59564 0.0
C299 C 0.12182 0.18118 0.60672 0.0
H300 H 1.05329 0.18771 0.55127 0.0
C301 C 1.08187 0.18759 0.59027 0.0
C302 C 1.08404 0.18125 0.56332 0.0
H303 H 1.04906 0.1979 0.59827 0.0
H304 H 0.19398 0.25721 0.42815 0.0
H305 H 0.19224 0.26691 0.47551 0.0
H306 H 0.9755 0.97985 0.47235 0.0
H307 H 0.97833 0.9687 0.42541 0.0
H308 H 1.02509 1.09053 0.51332 0.0
H309 H 0.18613 0.19863 0.51665 0.0
H310 H 0.20292 0.15815 0.56075 0.0
H311 H 0.19758 0.16699 0.6078 0.0
C312 C 0.15565 0.16818 0.76487 0.0
C313 C 0.16653 1.11509 0.75189 0.0
C314 C 0.15769 0.175 0.79211 0.0
C315 C 0.17118 1.12919 0.80687 0.0
C316 C 0.18272 1.0773 0.79368 0.0
C317 C 0.18008 1.06994 0.76672 0.0
C318 C 0.17711 1.13579 0.83584 0.0
C319 C 0.15037 0.15991 0.85184 0.0
C320 C 0.15642 0.16131 0.88076 0.0
C321 C 1.10446 0.14591 0.89601 0.0
C322 C 1.10744 0.14295 0.92303 0.0
C323 C 0.16303 0.15643 0.93544 0.0
H324 H 0.25637 0.19427 0.88277 0.0
C325 C 0.21639 0.17536 0.92031 0.0
C326 C 0.2134 0.17815 0.89345 0.0
H327 H 0.26065 0.18754 0.92925 0.0
H328 H 0.14577 0.2045 0.75402 0.0
H329 H 0.15 0.21739 0.80144 0.0
H330 H 0.19372 1.04165 0.80432 0.0
H331 H 0.18891 1.02861 0.75746 0.0
H332 H 0.20209 1.11428 0.84438 0.0
H333 H 0.11968 0.17364 0.84371 0.0
H334 H 1.0605 1.1341 0.88694 0.0
H335 H 1.06583 1.12901 0.93415 0.0
loop_
_geom_bond_atom_site_label_1
_geom_bond_atom_site_label_2
_geom_bond_distance
_geom_bond_site_symmetry_2
_ccdc_geom_bond_type
Nd0 C2 2.836 1_655 S
Nd0 O20 2.500 1_654 S
Nd0 O21 2.492 . S
Nd0 O22 2.487 . S
Nd0 O23 2.682 1_645 S
Nd0 O24 2.410 1_655 S
Nd0 O29 2.414 1_654 S
Nd0 O31 2.424 1_545 S
Nd1 C11 2.836 1_456 S
Nd1 O23 2.414 1_556 S
Nd1 O25 2.424 1_566 S
Nd1 O26 2.500 1_556 S
Nd1 O27 2.492 . S
Nd1 O28 2.487 . S
Nd1 O29 2.682 1_565 S
Nd1 O30 2.410 1_455 S
C2 Nd0 2.836 1_455 S
C2 C3 1.498 . S
C2 O20 1.258 1_554 S
C2 O21 1.239 1_455 S
C3 C2 1.498 . S
C3 C4 1.366 1_554 S
C3 C8 1.407 . S
C4 C3 1.366 1_556 S
C4 C5 1.392 . S
C4 H32 0.930 . S
C5 C4 1.392 . S
C5 C6 1.398 1_556 S
C5 H33 0.929 . S
C6 C5 1.398 1_554 S
C6 C7 1.352 . S
C7 C6 1.352 . S
C7 C8 1.384 . S
C7 H34 0.930 . S
C8 C3 1.407 . S
C8 C7 1.384 . S
C8 H35 0.929 . S
C9 O22 1.241 . S
C9 O23 1.273 1_645 S
C10 O24 1.251 . S
C10 O25 1.269 . S
C11 Nd1 2.836 1_654 S
C11 C12 1.494 . S
C11 O26 1.259 1_655 S
C11 O27 1.237 1_654 S
C12 C11 1.494 . S
C12 C13 1.397 . S
C12 C17 1.381 1_554 S
C13 C12 1.397 . S
C13 C14 1.392 . S
C13 H36 0.930 . S
C14 C13 1.392 . S
C14 C15 1.398 . S
C14 H37 0.929 . S
C15 C14 1.398 . S
C15 C16 1.352 1_554 S
C16 C15 1.352 1_556 S
C16 C17 1.384 . S
C16 H38 0.930 . S
C17 C12 1.381 1_556 S
C17 C16 1.384 . S
C17 H39 0.929 . S
C18 O28 1.241 . S
C18 O29 1.273 1_565 S
C19 O30 1.239 1_554 S
C19 O31 1.272 . S
O20 Nd0 2.500 1_456 S
O20 C2 1.258 1_556 S
O21 Nd0 2.492 . S
O21 C2 1.239 1_655 S
O22 Nd0 2.487 . S
O22 C9 1.241 . S
O23 Nd0 2.682 1_465 S
O23 Nd1 2.414 1_554 S
O23 C9 1.273 1_465 S
O24 Nd0 2.410 1_455 S
O24 C10 1.251 . S
O25 Nd1 2.424 1_544 S
O25 C10 1.269 . S
O26 Nd1 2.500 1_554 S
O26 C11 1.259 1_455 S
O27 Nd1 2.492 . S
O27 C11 1.237 1_456 S
O28 Nd1 2.487 . S
O28 C18 1.241 . S
O29 Nd0 2.414 1_456 S
O29 Nd1 2.682 1_545 S
O29 C18 1.273 1_545 S
O30 Nd1 2.410 1_655 S
O30 C19 1.239 1_556 S
O31 Nd0 2.424 1_565 S
O31 C19 1.272 . S
H32 C4 0.930 . S
H33 C5 0.929 . S
H34 C7 0.930 . S
H35 C8 0.929 . S
H36 C13 0.930 . S
H37 C14 0.929 . S
H38 C16 0.930 . S
H39 C17 0.929 . S
Nd40 C42 2.836 . S
Nd40 O60 2.500 . S
Nd40 O61 2.492 . S
Nd40 O62 2.487 . S
Nd40 O63 2.682 1_665 S
Nd40 O64 2.410 1_665 S
Nd40 O69 2.414 1_665 S
Nd40 O71 2.424 . S
Nd41 C51 2.836 . S
Nd41 O63 2.414 . S
Nd41 O65 2.424 . S
Nd41 O66 2.500 . S
Nd41 O67 2.492 . S
Nd41 O68 2.487 . S
Nd41 O69 2.682 . S
Nd41 O70 2.410 1_545 S
C42 Nd40 2.836 . S
C42 C43 1.498 . S
C42 O60 1.258 . S
C42 O61 1.239 . S
C43 C42 1.498 . S
C43 C44 1.373 . S
C43 C48 1.407 . S
C44 C43 1.373 . S
C44 C45 1.385 1_565 S
C44 H72 0.931 1_565 S
C45 C44 1.385 1_545 S
C45 C46 1.398 1_545 S
C45 H73 0.929 . S
C46 C45 1.398 1_565 S
C46 C47 1.352 . S
C47 C46 1.352 . S
C47 C48 1.384 . S
C47 H74 0.930 . S
C48 C43 1.407 . S
C48 C47 1.384 . S
C48 H75 0.929 . S
C49 O62 1.241 1_445 S
C49 O63 1.273 . S
C50 O64 1.251 . S
C50 O65 1.268 . S
C51 Nd41 2.836 . S
C51 C52 1.498 . S
C51 O66 1.258 . S
C51 O67 1.239 . S
C52 C51 1.498 . S
C52 C53 1.366 . S
C52 C57 1.407 . S
C53 C52 1.366 . S
C53 C54 1.392 . S
C53 H76 0.930 . S
C54 C53 1.392 . S
C54 C55 1.398 . S
C54 H77 0.929 . S
C55 C54 1.398 . S
C55 C56 1.352 . S
C56 C55 1.352 . S
C56 C57 1.384 . S
C56 H78 0.930 . S
C57 C52 1.407 . S
C57 C56 1.384 . S
C57 H79 0.929 . S
C58 O68 1.241 . S
C58 O69 1.273 . S
C59 O70 1.251 . S
C59 O71 1.268 1_455 S
O60 Nd40 2.500 . S
O60 C42 1.258 . S
O61 Nd40 2.492 . S
O61 C42 1.239 . S
O62 Nd40 2.487 . S
O62 C49 1.241 1_665 S
O63 Nd40 2.682 1_445 S
O63 Nd41 2.414 . S
O63 C49 1.273 . S
O64 Nd40 2.410 1_445 S
O64 C50 1.251 . S
O65 Nd41 2.424 . S
O65 C50 1.268 . S
O66 Nd41 2.500 . S
O66 C51 1.258 . S
O67 Nd41 2.492 . S
O67 C51 1.239 . S
O68 Nd41 2.487 . S
O68 C58 1.241 . S
O69 Nd40 2.414 1_445 S
O69 Nd41 2.682 . S
O69 C58 1.273 . S
O70 Nd41 2.410 1_565 S
O70 C59 1.251 . S
O71 Nd40 2.424 . S
O71 C59 1.268 1_655 S
H72 C44 0.931 1_545 S
H73 C45 0.929 . S
H74 C47 0.930 . S
H75 C48 0.929 . S
H76 C53 0.930 . S
H77 C54 0.929 . S
H78 C56 0.930 . S
H79 C57 0.929 . S
Nd80 C82 2.836 1_455 S
Nd80 O100 2.500 1_455 S
Nd80 O101 2.492 1_455 S
Nd80 O102 2.487 . S
Nd80 O103 2.682 . S
Nd80 O104 2.410 1_445 S
Nd80 O109 2.414 . S
Nd80 O111 2.424 . S
Nd81 C91 2.836 . S
Nd81 O103 2.414 1_565 S
Nd81 O105 2.424 1_455 S
Nd81 O106 2.500 . S
Nd81 O107 2.492 . S
Nd81 O108 2.487 . S
Nd81 O109 2.682 1_565 S
Nd81 O110 2.410 1_565 S
C82 Nd80 2.836 1_655 S
C82 C83 1.498 . S
C82 O100 1.258 . S
C82 O101 1.239 . S
C83 C82 1.498 . S
C83 C84 1.366 1_545 S
C83 C88 1.407 . S
C84 C83 1.366 1_565 S
C84 C85 1.392 . S
C84 H112 0.930 . S
C85 C84 1.392 . S
C85 C86 1.398 . S
C85 H113 0.929 . S
C86 C85 1.398 . S
C86 C87 1.352 1_565 S
C87 C86 1.352 1_545 S
C87 C88 1.384 . S
C87 H114 0.930 . S
C88 C83 1.407 . S
C88 C87 1.384 . S
C88 H115 0.929 . S
C89 O102 1.241 . S
C89 O103 1.273 . S
C90 O104 1.251 . S
C90 O105 1.268 . S
C91 Nd81 2.836 . S
C91 C92 1.498 1_565 S
C91 O106 1.258 . S
C91 O107 1.239 . S
C92 C91 1.498 1_545 S
C92 C93 1.366 . S
C92 C97 1.407 1_545 S
C93 C92 1.366 . S
C93 C94 1.392 . S
C93 H116 0.930 . S
C94 C93 1.392 . S
C94 C95 1.398 . S
C94 H117 0.929 . S
C95 C94 1.398 . S
C95 C96 1.352 . S
C96 C95 1.352 . S
C96 C97 1.384 1_545 S
C96 H118 0.930 1_545 S
C97 C92 1.407 1_565 S
C97 C96 1.384 1_565 S
C97 H119 0.929 . S
C98 O108 1.241 1_545 S
C98 O109 1.273 . S
C99 O110 1.251 . S
C99 O111 1.268 . S
O100 Nd80 2.500 1_655 S
O100 C82 1.258 . S
O101 Nd80 2.492 1_655 S
O101 C82 1.239 . S
O102 Nd80 2.487 . S
O102 C89 1.241 . S
O103 Nd80 2.682 . S
O103 Nd81 2.414 1_545 S
O103 C89 1.273 . S
O104 Nd80 2.410 1_665 S
O104 C90 1.251 . S
O105 Nd81 2.424 1_655 S
O105 C90 1.268 . S
O106 Nd81 2.500 . S
O106 C91 1.258 . S
O107 Nd81 2.492 . S
O107 C91 1.239 . S
O108 Nd81 2.487 . S
O108 C98 1.241 1_565 S
O109 Nd80 2.414 . S
O109 Nd81 2.682 1_545 S
O109 C98 1.273 . S
O110 Nd81 2.410 1_545 S
O110 C99 1.251 . S
O111 Nd80 2.424 . S
O111 C99 1.268 . S
H112 C84 0.930 . S
H113 C85 0.929 . S
H114 C87 0.930 . S
H115 C88 0.929 . S
H116 C93 0.930 . S
H117 C94 0.929 . S
H118 C96 0.930 1_565 S
H119 C97 0.929 . S
C120 C121 1.386 . S
C120 C122 1.383 . S
C120 H136 0.951 . S
C121 C120 1.386 . S
C121 C125 1.383 1_554 S
C122 C120 1.383 . S
C122 C123 1.402 1_554 S
C122 H137 0.951 . S
C123 C122 1.402 1_556 S
C123 C124 1.375 . S
C123 C126 1.481 . S
C124 C123 1.375 . S
C124 C125 1.367 . S
C124 H138 0.951 . S
C125 C121 1.383 1_556 S
C125 C124 1.367 . S
C125 H139 0.950 . S
C126 C123 1.481 . S
C126 C127 1.297 1_556 S
C126 H140 0.950 . S
C127 C126 1.297 1_554 S
C127 C128 1.479 1_455 S
C127 H141 0.950 . S
C128 C127 1.479 1_655 S
C128 C129 1.375 . S
C128 C134 1.404 1_554 S
C129 C128 1.375 . S
C129 C130 1.369 . S
C129 H142 0.950 . S
C130 C129 1.369 . S
C130 C131 1.392 . S
C130 H143 0.951 . S
C131 C130 1.392 . S
C131 C133 1.384 1_554 S
H132 C134 0.949 . S
C133 C131 1.384 1_556 S
C133 C134 1.385 . S
C133 H135 0.950 . S
C134 C128 1.404 1_556 S
C134 H132 0.949 . S
C134 C133 1.385 . S
H135 C133 0.950 . S
H136 C120 0.951 . S
H137 C122 0.951 . S
H138 C124 0.951 . S
H139 C125 0.950 . S
H140 C126 0.950 . S
H141 C127 0.950 . S
H142 C129 0.950 . S
H143 C130 0.951 . S
C144 C145 1.386 . S
C144 C146 1.383 . S
C144 H160 0.951 . S
C145 C144 1.386 . S
C145 C149 1.383 1_545 S
C146 C144 1.383 . S
C146 C147 1.402 . S
C146 H161 0.951 . S
C147 C146 1.402 . S
C147 C148 1.375 1_545 S
C147 C150 1.481 1_545 S
C148 C147 1.375 1_565 S
C148 C149 1.367 . S
C148 H162 0.951 . S
C149 C145 1.383 1_565 S
C149 C148 1.367 . S
C149 H163 0.950 . S
C150 C147 1.481 1_565 S
C150 C151 1.297 1_565 S
C150 H164 0.950 . S
C151 C150 1.297 1_545 S
C151 C152 1.479 . S
C151 H165 0.950 . S
C152 C151 1.479 . S
C152 C153 1.375 . S
C152 C158 1.404 1_545 S
C153 C152 1.375 . S
C153 C154 1.369 . S
C153 H166 0.950 . S
C154 C153 1.369 . S
C154 C155 1.392 1_545 S
C154 H167 0.951 . S
C155 C154 1.392 1_565 S
C155 C157 1.384 . S
H156 C158 0.949 . S
C157 C155 1.384 . S
C157 C158 1.385 . S
C157 H159 0.950 . S
C158 C152 1.404 1_565 S
C158 H156 0.949 . S
C158 C157 1.385 . S
H159 C157 0.950 . S
H160 C144 0.951 . S
H161 C146 0.951 . S
H162 C148 0.951 . S
H163 C149 0.950 . S
H164 C150 0.950 . S
H165 C151 0.950 . S
H166 C153 0.950 . S
H167 C154 0.951 . S
C168 C169 1.386 . S
C168 C170 1.383 . S
C168 H184 0.951 . S
C169 C168 1.386 . S
C169 C173 1.383 . S
C170 C168 1.383 . S
C170 C171 1.402 . S
C170 H185 0.951 . S
C171 C170 1.402 . S
C171 C172 1.375 . S
C171 C174 1.481 . S
C172 C171 1.375 . S
C172 C173 1.367 . S
C172 H186 0.951 . S
C173 C169 1.383 . S
C173 C172 1.367 . S
C173 H187 0.950 . S
C174 C171 1.481 . S
C174 C175 1.297 . S
C174 H188 0.950 . S
C175 C174 1.297 . S
C175 C176 1.479 . S
C175 H189 0.950 . S
C176 C175 1.479 . S
C176 C177 1.375 . S
C176 C182 1.404 . S
C177 C176 1.375 . S
C177 C178 1.369 . S
C177 H190 0.950 . S
C178 C177 1.369 . S
C178 C179 1.392 . S
C178 H191 0.951 . S
C179 C178 1.392 . S
C179 C181 1.384 . S
H180 C182 0.949 . S
C181 C179 1.384 . S
C181 C182 1.385 . S
C181 H183 0.950 . S
C182 C176 1.404 . S
C182 H180 0.949 . S
C182 C181 1.385 . S
H183 C181 0.950 . S
H184 C168 0.951 . S
H185 C170 0.951 . S
H186 C172 0.951 . S
H187 C173 0.950 . S
H188 C174 0.950 . S
H189 C175 0.950 . S
H190 C177 0.950 . S
H191 C178 0.951 . S
C192 C193 1.386 . S
C192 C194 1.383 . S
C192 H208 0.951 . S
C193 C192 1.386 . S
C193 C197 1.383 . S
C194 C192 1.383 . S
C194 C195 1.402 . S
C194 H209 0.951 . S
C195 C194 1.402 . S
C195 C196 1.375 . S
C195 C198 1.481 . S
C196 C195 1.375 . S
C196 C197 1.367 . S
C196 H210 0.951 . S
C197 C193 1.383 . S
C197 C196 1.367 . S
C197 H211 0.950 . S
C198 C195 1.481 . S
C198 C199 1.297 . S
C198 H212 0.950 . S
C199 C198 1.297 . S
C199 C200 1.479 . S
C199 H213 0.950 . S
C200 C199 1.479 . S
C200 C201 1.375 1_565 S
C200 C206 1.404 . S
C201 C200 1.375 1_545 S
C201 C202 1.369 . S
C201 H214 0.950 . S
C202 C201 1.369 . S
C202 C203 1.392 . S
C202 H215 0.951 . S
C203 C202 1.392 . S
C203 C205 1.384 . S
H204 C206 0.949 . S
C205 C203 1.384 . S
C205 C206 1.385 1_545 S
C205 H207 0.950 . S
C206 C200 1.404 . S
C206 H204 0.949 . S
C206 C205 1.385 1_565 S
H207 C205 0.950 . S
H208 C192 0.951 . S
H209 C194 0.951 . S
H210 C196 0.951 . S
H211 C197 0.950 . S
H212 C198 0.950 . S
H213 C199 0.950 . S
H214 C201 0.950 . S
H215 C202 0.951 . S
C216 C217 1.386 . S
C216 C218 1.383 . S
C216 H232 0.951 . S
C217 C216 1.386 . S
C217 C221 1.383 1_554 S
C218 C216 1.383 . S
C218 C219 1.402 1_554 S
C218 H233 0.951 . S
C219 C218 1.402 1_556 S
C219 C220 1.375 . S
C219 C222 1.481 . S
C220 C219 1.375 . S
C220 C221 1.367 . S
C220 H234 0.951 . S
C221 C217 1.383 1_556 S
C221 C220 1.367 . S
C221 H235 0.950 . S
C222 C219 1.481 . S
C222 C223 1.297 1_556 S
C222 H236 0.950 . S
C223 C222 1.297 1_554 S
C223 C224 1.479 . S
C223 H237 0.950 . S
C224 C223 1.479 . S
C224 C225 1.375 . S
C224 C230 1.404 1_554 S
C225 C224 1.375 . S
C225 C226 1.369 . S
C225 H238 0.950 . S
C226 C225 1.369 . S
C226 C227 1.392 . S
C226 H239 0.951 . S
C227 C226 1.392 . S
C227 C229 1.384 1_554 S
H228 C230 0.949 . S
C229 C227 1.384 1_556 S
C229 C230 1.385 . S
C229 H231 0.950 . S
C230 C224 1.404 1_556 S
C230 H228 0.949 . S
C230 C229 1.385 . S
H231 C229 0.950 . S
H232 C216 0.951 . S
H233 C218 0.951 . S
H234 C220 0.951 . S
H235 C221 0.950 . S
H236 C222 0.950 . S
H237 C223 0.950 . S
H238 C225 0.950 . S
H239 C226 0.951 . S
C240 C241 1.386 . S
C240 C242 1.383 . S
C240 H256 0.951 . S
C241 C240 1.386 . S
C241 C245 1.383 . S
C242 C240 1.383 . S
C242 C243 1.402 . S
C242 H257 0.951 . S
C243 C242 1.402 . S
C243 C244 1.375 . S
C243 C246 1.481 . S
C244 C243 1.375 . S
C244 C245 1.367 . S
C244 H258 0.951 . S
C245 C241 1.383 . S
C245 C244 1.367 . S
C245 H259 0.950 . S
C246 C243 1.481 . S
C246 C247 1.297 . S
C246 H260 0.950 . S
C247 C246 1.297 . S
C247 C248 1.479 . S
C247 H261 0.950 1_455 S
C248 C247 1.479 . S
C248 C249 1.375 . S
C248 C254 1.404 . S
C249 C248 1.375 . S
C249 C250 1.369 . S
C249 H262 0.950 1_455 S
C250 C249 1.369 . S
C250 C251 1.392 . S
C250 H263 0.947 1_455 S
C251 C250 1.392 . S
C251 C253 1.384 . S
H252 C254 0.949 . S
C253 C251 1.384 . S
C253 C254 1.385 . S
C253 H255 0.950 . S
C254 C248 1.404 . S
C254 H252 0.949 . S
C254 C253 1.385 . S
H255 C253 0.950 . S
H256 C240 0.951 . S
H257 C242 0.951 . S
H258 C244 0.951 . S
H259 C245 0.950 . S
H260 C246 0.950 . S
H261 C247 0.950 1_655 S
H262 C249 0.950 1_655 S
H263 C250 0.947 1_655 S
C264 C265 1.386 1_665 S
C264 C266 1.383 . S
C264 H280 0.951 . S
C265 C264 1.386 1_445 S
C265 C269 1.383 . S
C266 C264 1.383 . S
C266 C267 1.402 1_665 S
C266 H281 0.951 . S
C267 C266 1.402 1_445 S
C267 C268 1.375 . S
C267 C270 1.481 . S
C268 C267 1.375 . S
C268 C269 1.367 . S
C268 H282 0.951 . S
C269 C265 1.383 . S
C269 C268 1.367 . S
C269 H283 0.950 . S
C270 C267 1.481 . S
C270 C271 1.297 1_455 S
C270 H284 0.950 . S
C271 C270 1.297 1_655 S
C271 C272 1.479 . S
C271 H285 0.950 1_545 S
C272 C271 1.479 . S
C272 C273 1.378 1_545 S
C272 C278 1.402 1_655 S
C273 C272 1.378 1_565 S
C273 C274 1.369 . S
C273 H286 0.950 . S
C274 C273 1.369 . S
C274 C275 1.392 1_665 S
C274 H287 0.951 . S
C275 C274 1.392 1_445 S
C275 C277 1.384 . S
H276 C278 0.949 . S
C277 C275 1.384 . S
C277 C278 1.385 . S
C277 H279 0.950 . S
C278 C272 1.402 1_455 S
C278 H276 0.949 . S
C278 C277 1.385 . S
H279 C277 0.950 . S
H280 C264 0.951 . S
H281 C266 0.951 . S
H282 C268 0.951 . S
H283 C269 0.950 . S
H284 C270 0.950 . S
H285 C271 0.950 1_565 S
H286 C273 0.950 . S
H287 C274 0.951 . S
C288 C289 1.386 . S
C288 C290 1.383 . S
C288 H304 0.951 . S
C289 C288 1.386 . S
C289 C293 1.383 1_445 S
C290 C288 1.383 . S
C290 C291 1.402 . S
C290 H305 0.951 . S
C291 C290 1.402 . S
C291 C292 1.375 1_445 S
C291 C294 1.481 . S
C292 C291 1.375 1_665 S
C292 C293 1.367 . S
C292 H306 0.951 . S
C293 C289 1.383 1_665 S
C293 C292 1.367 . S
C293 H307 0.950 . S
C294 C291 1.481 . S
C294 C295 1.297 . S
C294 H308 0.950 1_445 S
C295 C294 1.297 . S
C295 C296 1.479 . S
C295 H309 0.950 . S
C296 C295 1.479 . S
C296 C297 1.375 . S
C296 C302 1.404 . S
C297 C296 1.375 . S
C297 C298 1.369 . S
C297 H310 0.950 . S
C298 C297 1.369 . S
C298 C299 1.392 . S
C298 H311 0.951 . S
C299 C298 1.392 . S
C299 C301 1.384 . S
H300 C302 0.949 1_655 S
C301 C299 1.384 . S
C301 C302 1.385 . S
C301 H303 0.950 1_445 S
C302 C296 1.404 . S
C302 H300 0.949 1_455 S
C302 C301 1.385 . S
H303 C301 0.950 1_665 S
H304 C288 0.951 . S
H305 C290 0.951 . S
H306 C292 0.951 . S
H307 C293 0.950 . S
H308 C294 0.950 1_665 S
H309 C295 0.950 . S
H310 C297 0.950 . S
H311 C298 0.951 . S
C312 C313 1.386 1_665 S
C312 C314 1.383 . S
C312 H328 0.951 . S
C313 C312 1.386 1_445 S
C313 C317 1.383 . S
C314 C312 1.383 . S
C314 C315 1.402 1_665 S
C314 H329 0.951 . S
C315 C314 1.402 1_445 S
C315 C316 1.375 . S
C315 C318 1.481 . S
C316 C315 1.375 . S
C316 C317 1.367 . S
C316 H330 0.951 . S
C317 C313 1.383 . S
C317 C316 1.367 . S
C317 H331 0.950 . S
C318 C315 1.481 . S
C318 C319 1.297 1_545 S
C318 H332 0.950 . S
C319 C318 1.297 1_565 S
C319 C320 1.479 . S
C319 H333 0.950 1_455 S
C320 C319 1.479 . S
C320 C321 1.375 1_455 S
C320 C326 1.404 1_565 S
C321 C320 1.375 1_655 S
C321 C322 1.369 . S
C321 H334 0.950 . S
C322 C321 1.369 . S
C322 C323 1.392 1_655 S
C322 H335 0.951 . S
C323 C322 1.392 1_455 S
C323 C325 1.384 1_565 S
H324 C326 0.949 . S
C325 C323 1.384 1_545 S
C325 C326 1.385 . S
C325 H327 0.950 . S
C326 C320 1.404 1_545 S
C326 H324 0.949 . S
C326 C325 1.385 . S
H327 C325 0.950 . S
H328 C312 0.951 . S
H329 C314 0.951 . S
H330 C316 0.951 . S
H331 C317 0.950 . S
H332 C318 0.950 . S
H333 C319 0.950 1_655 S
H334 C321 0.950 . S
H335 C322 0.951 . S
C121 C6 0.894 . S
C131 C15 0.749 . S
C145 C55 0.644 . S
C155 C46 0.605 . S
C169 C90 2.986 . S
C179 C99 2.980 . S
C193 C86 0.661 . S
C203 C95 0.584 . S
C217 C19 3.034 . S
C227 C10 3.042 . S
C241 C50 4.848 . S
C251 C59 4.838 . S
C265 C58 1.455 . S
C275 C9 1.425 1_455 S
C289 C49 1.420 . S
C299 C89 1.402 . S
C313 C98 1.439 . S
C323 C18 1.390 . S
