# Generated by pormake.
# Topology uos, (4)-cn, num edge types: 1
# Building blocks:
#     Node 0, Type 0, BuildingBlock: QUQFOY_clean_sbu_3, # of connection points: 4
#     Node 1, Type 0, BuildingBlock: QUQFOY_clean_sbu_3, # of connection points: 4
#     Node 2, Type 0, BuildingBlock: QUQFOY_clean_sbu_3, # of connection points: 4
#     Node 3, Type 0, BuildingBlock: QUQFOY_clean_sbu_3, # of connection points: 4
#     Node 4, Type 0, BuildingBlock: QUQFOY_clean_sbu_3, # of connection points: 4
#     Node 5, Type 0, BuildingBlock: QUQFOY_clean_sbu_3, # of connection points: 4
#     Node 6, Type 0, BuildingBlock: QUQFOY_clean_sbu_3, # of connection points: 4
#     Node 7, Type 0, BuildingBlock: QUQFOY_clean_sbu_3, # of connection points: 4
#     Node 8, Type 0, BuildingBlock: QUQFOY_clean_sbu_3, # of connection points: 4
#     Node 9, Type 0, BuildingBlock: QUQFOY_clean_sbu_3, # of connection points: 4
#     Node 10, Type 0, BuildingBlock: QUQFOY_clean_sbu_3, # of connection points: 4
#     Node 11, Type 0, BuildingBlock: QUQFOY_clean_sbu_3, # of connection points: 4
#     Node 12, Type 0, BuildingBlock: QUQFOY_clean_sbu_3, # of connection points: 4
#     Node 13, Type 0, BuildingBlock: QUQFOY_clean_sbu_3, # of connection points: 4
#     Node 14, Type 0, BuildingBlock: QUQFOY_clean_sbu_3, # of connection points: 4
#     Node 15, Type 0, BuildingBlock: QUQFOY_clean_sbu_3, # of connection points: 4
#     Node 16, Type 0, BuildingBlock: QUQFOY_clean_sbu_3, # of connection points: 4
#     Node 17, Type 0, BuildingBlock: QUQFOY_clean_sbu_3, # of connection points: 4
#     Node 18, Type 0, BuildingBlock: QUQFOY_clean_sbu_3, # of connection points: 4
#     Node 19, Type 0, BuildingBlock: QUQFOY_clean_sbu_3, # of connection points: 4
#     Node 20, Type 0, BuildingBlock: QUQFOY_clean_sbu_3, # of connection points: 4
#     Node 21, Type 0, BuildingBlock: QUQFOY_clean_sbu_3, # of connection points: 4
#     Node 22, Type 0, BuildingBlock: QUQFOY_clean_sbu_3, # of connection points: 4
#     Node 23, Type 0, BuildingBlock: QUQFOY_clean_sbu_3, # of connection points: 4
#     Node 24, Type 0, BuildingBlock: QUQFOY_clean_sbu_3, # of connection points: 4
#     Node 25, Type 0, BuildingBlock: QUQFOY_clean_sbu_3, # of connection points: 4
#     Node 26, Type 0, BuildingBlock: QUQFOY_clean_sbu_3, # of connection points: 4
#     Node 27, Type 0, BuildingBlock: QUQFOY_clean_sbu_3, # of connection points: 4
#     Node 28, Type 0, BuildingBlock: QUQFOY_clean_sbu_3, # of connection points: 4
#     Node 29, Type 0, BuildingBlock: QUQFOY_clean_sbu_3, # of connection points: 4
#     Node 30, Type 0, BuildingBlock: QUQFOY_clean_sbu_3, # of connection points: 4
#     Node 31, Type 0, BuildingBlock: QUQFOY_clean_sbu_3, # of connection points: 4
#     Edge 32, Type (0, 0), BuildingBlock: MIFKUJ_clean_linker_0, # of connection points: 2
#     Edge 33, Type (0, 0), BuildingBlock: MIFKUJ_clean_linker_0, # of connection points: 2
#     Edge 34, Type (0, 0), BuildingBlock: MIFKUJ_clean_linker_0, # of connection points: 2
#     Edge 35, Type (0, 0), BuildingBlock: MIFKUJ_clean_linker_0, # of connection points: 2
#     Edge 36, Type (0, 0), BuildingBlock: MIFKUJ_clean_linker_0, # of connection points: 2
#     Edge 37, Type (0, 0), BuildingBlock: MIFKUJ_clean_linker_0, # of connection points: 2
#     Edge 38, Type (0, 0), BuildingBlock: MIFKUJ_clean_linker_0, # of connection points: 2
#     Edge 39, Type (0, 0), BuildingBlock: MIFKUJ_clean_linker_0, # of connection points: 2
#     Edge 40, Type (0, 0), BuildingBlock: MIFKUJ_clean_linker_0, # of connection points: 2
#     Edge 41, Type (0, 0), BuildingBlock: MIFKUJ_clean_linker_0, # of connection points: 2
#     Edge 42, Type (0, 0), BuildingBlock: MIFKUJ_clean_linker_0, # of connection points: 2
#     Edge 43, Type (0, 0), BuildingBlock: MIFKUJ_clean_linker_0, # of connection points: 2
#     Edge 44, Type (0, 0), BuildingBlock: MIFKUJ_clean_linker_0, # of connection points: 2
#     Edge 45, Type (0, 0), BuildingBlock: MIFKUJ_clean_linker_0, # of connection points: 2
#     Edge 46, Type (0, 0), BuildingBlock: MIFKUJ_clean_linker_0, # of connection points: 2
#     Edge 47, Type (0, 0), BuildingBlock: MIFKUJ_clean_linker_0, # of connection points: 2
#     Edge 48, Type (0, 0), BuildingBlock: MIFKUJ_clean_linker_0, # of connection points: 2
#     Edge 49, Type (0, 0), BuildingBlock: MIFKUJ_clean_linker_0, # of connection points: 2
#     Edge 50, Type (0, 0), BuildingBlock: MIFKUJ_clean_linker_0, # of connection points: 2
#     Edge 51, Type (0, 0), BuildingBlock: MIFKUJ_clean_linker_0, # of connection points: 2
#     Edge 52, Type (0, 0), BuildingBlock: MIFKUJ_clean_linker_0, # of connection points: 2
#     Edge 53, Type (0, 0), BuildingBlock: MIFKUJ_clean_linker_0, # of connection points: 2
#     Edge 54, Type (0, 0), BuildingBlock: MIFKUJ_clean_linker_0, # of connection points: 2
#     Edge 55, Type (0, 0), BuildingBlock: MIFKUJ_clean_linker_0, # of connection points: 2
#     Edge 56, Type (0, 0), BuildingBlock: MIFKUJ_clean_linker_0, # of connection points: 2
#     Edge 57, Type (0, 0), BuildingBlock: MIFKUJ_clean_linker_0, # of connection points: 2
#     Edge 58, Type (0, 0), BuildingBlock: MIFKUJ_clean_linker_0, # of connection points: 2
#     Edge 59, Type (0, 0), BuildingBlock: MIFKUJ_clean_linker_0, # of connection points: 2
#     Edge 60, Type (0, 0), BuildingBlock: MIFKUJ_clean_linker_0, # of connection points: 2
#     Edge 61, Type (0, 0), BuildingBlock: MIFKUJ_clean_linker_0, # of connection points: 2
#     Edge 62, Type (0, 0), BuildingBlock: MIFKUJ_clean_linker_0, # of connection points: 2
#     Edge 63, Type (0, 0), BuildingBlock: MIFKUJ_clean_linker_0, # of connection points: 2
#     Edge 64, Type (0, 0), BuildingBlock: MIFKUJ_clean_linker_0, # of connection points: 2
#     Edge 65, Type (0, 0), BuildingBlock: MIFKUJ_clean_linker_0, # of connection points: 2
#     Edge 66, Type (0, 0), BuildingBlock: MIFKUJ_clean_linker_0, # of connection points: 2
#     Edge 67, Type (0, 0), BuildingBlock: MIFKUJ_clean_linker_0, # of connection points: 2
#     Edge 68, Type (0, 0), BuildingBlock: MIFKUJ_clean_linker_0, # of connection points: 2
#     Edge 69, Type (0, 0), BuildingBlock: MIFKUJ_clean_linker_0, # of connection points: 2
#     Edge 70, Type (0, 0), BuildingBlock: MIFKUJ_clean_linker_0, # of connection points: 2
#     Edge 71, Type (0, 0), BuildingBlock: MIFKUJ_clean_linker_0, # of connection points: 2
#     Edge 72, Type (0, 0), BuildingBlock: MIFKUJ_clean_linker_0, # of connection points: 2
#     Edge 73, Type (0, 0), BuildingBlock: MIFKUJ_clean_linker_0, # of connection points: 2
#     Edge 74, Type (0, 0), BuildingBlock: MIFKUJ_clean_linker_0, # of connection points: 2
#     Edge 75, Type (0, 0), BuildingBlock: MIFKUJ_clean_linker_0, # of connection points: 2
#     Edge 76, Type (0, 0), BuildingBlock: MIFKUJ_clean_linker_0, # of connection points: 2
#     Edge 77, Type (0, 0), BuildingBlock: MIFKUJ_clean_linker_0, # of connection points: 2
#     Edge 78, Type (0, 0), BuildingBlock: MIFKUJ_clean_linker_0, # of connection points: 2
#     Edge 79, Type (0, 0), BuildingBlock: MIFKUJ_clean_linker_0, # of connection points: 2
#     Edge 80, Type (0, 0), BuildingBlock: MIFKUJ_clean_linker_0, # of connection points: 2
#     Edge 81, Type (0, 0), BuildingBlock: MIFKUJ_clean_linker_0, # of connection points: 2
#     Edge 82, Type (0, 0), BuildingBlock: MIFKUJ_clean_linker_0, # of connection points: 2
#     Edge 83, Type (0, 0), BuildingBlock: MIFKUJ_clean_linker_0, # of connection points: 2
#     Edge 84, Type (0, 0), BuildingBlock: MIFKUJ_clean_linker_0, # of connection points: 2
#     Edge 85, Type (0, 0), BuildingBlock: MIFKUJ_clean_linker_0, # of connection points: 2
#     Edge 86, Type (0, 0), BuildingBlock: MIFKUJ_clean_linker_0, # of connection points: 2
#     Edge 87, Type (0, 0), BuildingBlock: MIFKUJ_clean_linker_0, # of connection points: 2
#     Edge 88, Type (0, 0), BuildingBlock: MIFKUJ_clean_linker_0, # of connection points: 2
#     Edge 89, Type (0, 0), BuildingBlock: MIFKUJ_clean_linker_0, # of connection points: 2
#     Edge 90, Type (0, 0), BuildingBlock: MIFKUJ_clean_linker_0, # of connection points: 2
#     Edge 91, Type (0, 0), BuildingBlock: MIFKUJ_clean_linker_0, # of connection points: 2
#     Edge 92, Type (0, 0), BuildingBlock: MIFKUJ_clean_linker_0, # of connection points: 2
#     Edge 93, Type (0, 0), BuildingBlock: MIFKUJ_clean_linker_0, # of connection points: 2
#     Edge 94, Type (0, 0), BuildingBlock: MIFKUJ_clean_linker_0, # of connection points: 2
#     Edge 95, Type (0, 0), BuildingBlock: MIFKUJ_clean_linker_0, # of connection points: 2
# Relax obj value: 0.044
# Max RMSD: 0.062
# Mean RMSD: 0.062
data_MOF--net-uos--node1-QUQFOY_clean_sbu_3--edge1-MIFKUJ_clean_linker_0
_symmetry_space_group_name_H-M    P1
_symmetry_Int_Tables_number       1
_symmetry_cell_setting            triclinic
loop_
_symmetry_equiv_pos_as_xyz
'x, y, z'
_cell_length_a     112.54493
_cell_length_b     112.54509
_cell_length_c     30.962203
_cell_angle_alpha  90.008616
_cell_angle_beta   89.978864
_cell_angle_gamma 90.001862
loop_
_atom_site_label
_atom_site_type_symbol
_atom_site_fract_x
_atom_site_fract_y
_atom_site_fract_z
_atom_type_partial_charge
C0 C 0.15528 0.18699 0.14647 0.0
O1 O 0.15302 0.18386 0.18502 0.0
Cd2 Cd 0.15267 0.16417 0.21291 0.0
O3 O 0.15739 0.17924 0.11739 0.0
Cd4 Cd 0.15802 0.15719 0.11444 0.0
C5 C 0.18099 0.156 0.184 0.0
O6 O 0.14151 0.15313 0.16176 0.0
O7 O 0.15276 0.13817 0.14856 0.0
O8 O 0.14776 0.15715 0.04597 0.0
C9 C 0.14341 0.14212 0.16622 0.0
O10 O 0.17347 0.15793 0.21398 0.0
C11 C 0.15485 0.14996 0.02769 0.0
O12 O 0.17785 0.15609 0.14451 0.0
O13 O 0.16398 0.14683 0.04894 0.0
C14 C 0.05816 0.91299 0.3892 0.0
O15 O 0.05971 0.91141 0.42943 0.0
Cd16 Cd 0.07824 0.90971 0.46648 0.0
O17 O 0.06698 0.91368 0.36354 0.0
Cd18 Cd 0.08891 0.91304 0.37077 0.0
C19 C 0.08902 0.93698 0.4364 0.0
O20 O 0.09055 0.89726 0.42385 0.0
O21 O 0.10639 0.90756 0.41273 0.0
O22 O 0.09031 0.9016 0.30492 0.0
C23 C 0.10148 0.89887 0.43165 0.0
O24 O 0.08585 0.92995 0.46653 0.0
C25 C 0.0981 0.90818 0.28738 0.0
O26 O 0.08993 0.93336 0.39755 0.0
O27 O 0.10121 0.91744 0.30794 0.0
C28 C 0.33868 0.80571 0.63151 0.0
O29 O 0.34072 0.80666 0.67171 0.0
Cd30 Cd 0.3396 0.82437 0.71357 0.0
O31 O 0.33608 0.81481 0.60886 0.0
Cd32 Cd 0.33437 0.83658 0.62063 0.0
C33 C 0.31103 0.8329 0.688 0.0
O34 O 0.35044 0.83824 0.67177 0.0
O35 O 0.33975 0.85395 0.66495 0.0
O36 O 0.34502 0.83909 0.55356 0.0
C37 C 0.34866 0.84896 0.6821 0.0
O38 O 0.31854 0.8295 0.7162 0.0
C39 C 0.33803 0.84682 0.53787 0.0
O40 O 0.31428 0.83533 0.64959 0.0
O41 O 0.32891 0.84947 0.56009 0.0
C42 C 0.43768 0.09372 0.88226 0.0
O43 O 0.43579 0.09615 0.92174 0.0
Cd44 Cd 0.41732 0.09442 0.95956 0.0
O45 O 0.42924 0.09032 0.8578 0.0
Cd46 Cd 0.40751 0.08737 0.86437 0.0
C47 C 0.41035 0.06522 0.93668 0.0
O48 O 0.40287 0.10326 0.91448 0.0
O49 O 0.38901 0.09045 0.90375 0.0
O50 O 0.40488 0.09806 0.79781 0.0
C51 C 0.39237 0.09987 0.92251 0.0
O52 O 0.41273 0.07331 0.96416 0.0
C53 C 0.39807 0.09046 0.78039 0.0
O54 O 0.40903 0.06768 0.89676 0.0
O55 O 0.39627 0.08087 0.80107 0.0
C56 C 0.15892 0.80606 0.8641 0.0
O57 O 0.15685 0.80739 0.82408 0.0
Cd58 Cd 0.15917 0.82545 0.7848 0.0
O59 O 0.16209 0.81483 0.8874 0.0
Cd60 Cd 0.16487 0.83656 0.87761 0.0
C61 C 0.18814 0.8324 0.81175 0.0
O62 O 0.14887 0.83976 0.82662 0.0
O63 O 0.16129 0.85419 0.8329 0.0
O64 O 0.15378 0.8385 0.94364 0.0
C65 C 0.15172 0.85029 0.81674 0.0
O66 O 0.18044 0.82976 0.78315 0.0
C67 C 0.1604 0.84637 0.96043 0.0
O68 O 0.18507 0.83444 0.85066 0.0
O69 O 0.16966 0.84931 0.9395 0.0
C70 C 0.43565 0.92174 0.11632 0.0
O71 O 0.43496 0.92177 0.07537 0.0
Cd72 Cd 0.41765 0.91862 0.03253 0.0
O73 O 0.42641 0.92054 0.13973 0.0
Cd74 Cd 0.40473 0.91928 0.12538 0.0
C75 C 0.40338 0.94397 0.06254 0.0
O76 O 0.40658 0.90409 0.07057 0.0
O77 O 0.38894 0.911 0.07935 0.0
O78 O 0.40344 0.90741 0.19034 0.0
C79 C 0.39571 0.90365 0.06054 0.0
O80 O 0.40773 0.93763 0.03244 0.0
C81 C 0.39439 0.91267 0.20562 0.0
O82 O 0.40227 0.93988 0.10073 0.0
O83 O 0.39046 0.92151 0.18451 0.0
C84 C 0.3298 0.18164 0.34082 0.0
O85 O 0.33176 0.17877 0.30178 0.0
Cd86 Cd 0.33212 0.15915 0.27318 0.0
O87 O 0.32777 0.17371 0.36928 0.0
Cd88 Cd 0.32651 0.15165 0.37061 0.0
C89 C 0.30373 0.15097 0.3002 0.0
O90 O 0.34336 0.14818 0.32438 0.0
O91 O 0.33252 0.13284 0.33603 0.0
O92 O 0.33609 0.15244 0.44029 0.0
C93 C 0.34185 0.13715 0.31937 0.0
O94 O 0.3114 0.15284 0.27075 0.0
C95 C 0.32946 0.14472 0.45794 0.0
O96 O 0.30667 0.15101 0.33991 0.0
O97 O 0.32092 0.14068 0.43552 0.0
C98 C 0.05748 0.0832 0.59531 0.0
O99 O 0.05963 0.0857 0.55605 0.0
Cd100 Cd 0.07867 0.08801 0.52293 0.0
O101 O 0.06592 0.0818 0.62226 0.0
Cd102 Cd 0.08788 0.08247 0.62016 0.0
C103 C 0.08893 0.06013 0.54707 0.0
O104 O 0.09013 0.09925 0.57257 0.0
O105 O 0.10604 0.08924 0.58434 0.0
O106 O 0.08786 0.092 0.68987 0.0
C107 C 0.10117 0.09807 0.56622 0.0
O108 O 0.08616 0.06772 0.51822 0.0
C109 C 0.09566 0.08523 0.70637 0.0
O110 O 0.08932 0.06301 0.58684 0.0
O111 O 0.09939 0.07668 0.68327 0.0
C112 C 0.82941 0.80577 0.8511 0.0
O113 O 0.83008 0.80761 0.81068 0.0
Cd114 Cd 0.83046 0.82627 0.77451 0.0
O115 O 0.82873 0.81442 0.87763 0.0
Cd116 Cd 0.82871 0.83647 0.87291 0.0
C117 C 0.80399 0.83778 0.8107 0.0
O118 O 0.84381 0.83721 0.81817 0.0
O119 O 0.8361 0.85413 0.83347 0.0
O120 O 0.84009 0.83653 0.93932 0.0
C121 C 0.84365 0.84828 0.81182 0.0
O122 O 0.81039 0.83425 0.77928 0.0
C123 C 0.83402 0.84463 0.95741 0.0
O124 O 0.80825 0.83856 0.84869 0.0
O125 O 0.82511 0.84859 0.93676 0.0
C126 C 0.93488 0.08152 0.595 0.0
O127 O 0.93282 0.08465 0.55628 0.0
Cd128 Cd 0.91402 0.08791 0.52251 0.0
O129 O 0.9264 0.07985 0.62162 0.0
Cd130 Cd 0.90438 0.08089 0.61937 0.0
C131 C 0.90295 0.05989 0.541 0.0
O132 O 0.9025 0.09822 0.57421 0.0
O133 O 0.88635 0.08852 0.58505 0.0
O134 O 0.90432 0.08996 0.68984 0.0
C135 C 0.89143 0.09734 0.56767 0.0
O136 O 0.90614 0.06792 0.51439 0.0
C137 C 0.89627 0.08332 0.70545 0.0
O138 O 0.9024 0.06199 0.58144 0.0
O139 O 0.89259 0.07485 0.6818 0.0
C140 C 0.66216 0.18388 0.34701 0.0
O141 O 0.66053 0.18104 0.30777 0.0
Cd142 Cd 0.66213 0.16164 0.27801 0.0
O143 O 0.66452 0.17596 0.37519 0.0
Cd144 Cd 0.66673 0.15393 0.37562 0.0
C145 C 0.69068 0.15559 0.31091 0.0
O146 O 0.6511 0.14914 0.32486 0.0
O147 O 0.66329 0.13493 0.33833 0.0
O148 O 0.65548 0.15351 0.44227 0.0
C149 C 0.65387 0.13835 0.31973 0.0
O150 O 0.68332 0.1572 0.28023 0.0
C151 C 0.66235 0.14633 0.46165 0.0
O152 O 0.68716 0.15491 0.34993 0.0
O153 O 0.67171 0.14318 0.44178 0.0
C154 C 0.55725 0.90419 0.12068 0.0
O155 O 0.5589 0.90059 0.08227 0.0
Cd156 Cd 0.57673 0.9035 0.04181 0.0
O157 O 0.56569 0.90876 0.14248 0.0
Cd158 Cd 0.58742 0.91172 0.13452 0.0
C159 C 0.58176 0.93343 0.06329 0.0
O160 O 0.59199 0.8957 0.08556 0.0
O161 O 0.60549 0.90912 0.09158 0.0
O162 O 0.58934 0.90114 0.20131 0.0
C163 C 0.60222 0.89937 0.07492 0.0
O164 O 0.57935 0.92507 0.03687 0.0
C165 C 0.59696 0.90806 0.21799 0.0
O166 O 0.58431 0.93122 0.10261 0.0
O167 O 0.59965 0.91736 0.19678 0.0
C168 C 0.84202 0.18645 0.13126 0.0
O169 O 0.84466 0.18442 0.17046 0.0
Cd170 Cd 0.84274 0.16579 0.20661 0.0
O171 O 0.83833 0.17812 0.10683 0.0
Cd172 Cd 0.83502 0.1564 0.11269 0.0
C173 C 0.81322 0.15993 0.18612 0.0
O174 O 0.85159 0.15176 0.15932 0.0
O175 O 0.83867 0.13785 0.15193 0.0
O176 O 0.84463 0.15451 0.04363 0.0
C177 C 0.84849 0.1412 0.16774 0.0
O178 O 0.82144 0.16198 0.21341 0.0
C179 C 0.83701 0.14751 0.02736 0.0
O180 O 0.8156 0.15845 0.14623 0.0
O181 O 0.82794 0.1451 0.0502 0.0
C182 C 0.55894 0.08751 0.88721 0.0
O183 O 0.56047 0.08879 0.92756 0.0
Cd184 Cd 0.57821 0.0843 0.96583 0.0
O185 O 0.56744 0.08411 0.86297 0.0
Cd186 Cd 0.58899 0.07967 0.87153 0.0
C187 C 0.58294 0.05548 0.93057 0.0
O188 O 0.59349 0.09404 0.92728 0.0
O189 O 0.60676 0.08056 0.91772 0.0
O190 O 0.59199 0.0923 0.8097 0.0
C191 C 0.60362 0.08999 0.93696 0.0
O192 O 0.58076 0.06284 0.96084 0.0
C193 C 0.59927 0.08553 0.79044 0.0
O194 O 0.58538 0.05908 0.89255 0.0
O195 O 0.60138 0.07552 0.8079 0.0
C196 C 0.65603 0.811 0.6676 0.0
O197 O 0.65368 0.81472 0.70539 0.0
Cd198 Cd 0.65291 0.83488 0.72904 0.0
O199 O 0.65832 0.81827 0.63711 0.0
Cd200 Cd 0.65968 0.84017 0.62898 0.0
C201 C 0.68153 0.84267 0.7034 0.0
O202 O 0.64275 0.84499 0.67296 0.0
O203 O 0.65375 0.85984 0.6561 0.0
O204 O 0.6504 0.83884 0.55881 0.0
C205 C 0.64447 0.85608 0.67472 0.0
O206 O 0.67356 0.84134 0.73223 0.0
C207 C 0.65788 0.84547 0.53978 0.0
O208 O 0.67903 0.84172 0.66341 0.0
O209 O 0.66672 0.84901 0.56181 0.0
C210 C 0.93691 0.91561 0.38529 0.0
O211 O 0.93529 0.91513 0.42585 0.0
Cd212 Cd 0.91692 0.91288 0.46325 0.0
O213 O 0.92817 0.91491 0.35925 0.0
Cd214 Cd 0.90634 0.91309 0.36748 0.0
C215 C 0.90388 0.93827 0.42605 0.0
O216 O 0.90611 0.89832 0.42434 0.0
O217 O 0.88933 0.90669 0.41118 0.0
O218 O 0.90531 0.90021 0.30494 0.0
C219 C 0.89508 0.89888 0.43188 0.0
O220 O 0.90745 0.93221 0.45824 0.0
C221 C 0.8971 0.90601 0.2863 0.0
O222 O 0.90358 0.93379 0.3883 0.0
O223 O 0.89368 0.91554 0.30438 0.0
C224 C 0.65536 0.6846 0.65907 0.0
O225 O 0.65298 0.68042 0.69618 0.0
Cd226 Cd 0.65358 0.65998 0.71642 0.0
O227 O 0.65819 0.67773 0.62799 0.0
Cd228 Cd 0.66055 0.65604 0.61692 0.0
C229 C 0.68269 0.65447 0.68981 0.0
O230 O 0.64386 0.64957 0.6598 0.0
O231 O 0.65623 0.63585 0.6424 0.0
O232 O 0.65092 0.65812 0.54776 0.0
C233 C 0.64649 0.63864 0.66023 0.0
O234 O 0.67466 0.65501 0.71875 0.0
C235 C 0.65826 0.65168 0.52723 0.0
O236 O 0.68011 0.65553 0.64994 0.0
O237 O 0.66725 0.64794 0.54799 0.0
C238 C 0.55627 0.40559 0.87935 0.0
O239 O 0.55785 0.40319 0.91901 0.0
Cd240 Cd 0.57581 0.40569 0.95862 0.0
O241 O 0.56484 0.40919 0.85583 0.0
Cd242 Cd 0.58657 0.41233 0.86467 0.0
C243 C 0.58204 0.43498 0.93338 0.0
O244 O 0.59051 0.39652 0.9155 0.0
O245 O 0.60456 0.40928 0.90793 0.0
O246 O 0.58914 0.4014 0.79862 0.0
C247 C 0.60092 0.39977 0.92534 0.0
O248 O 0.57947 0.42704 0.9612 0.0
C249 C 0.59661 0.40847 0.78186 0.0
O250 O 0.58421 0.43223 0.89422 0.0
O251 O 0.59891 0.41794 0.80263 0.0
C252 C 0.83752 0.30817 0.13466 0.0
O253 O 0.8393 0.30998 0.1746 0.0
Cd254 Cd 0.83476 0.32796 0.21128 0.0
O255 O 0.83364 0.31645 0.11037 0.0
Cd256 Cd 0.8289 0.33799 0.11699 0.0
C257 C 0.80548 0.33151 0.17973 0.0
O258 O 0.84406 0.34298 0.16924 0.0
O259 O 0.83051 0.35625 0.16 0.0
O260 O 0.84016 0.34027 0.05131 0.0
C261 C 0.84026 0.35331 0.17754 0.0
O262 O 0.81309 0.32942 0.20922 0.0
C263 C 0.8329 0.34723 0.03287 0.0
O264 O 0.80875 0.3343 0.14169 0.0
O265 O 0.82336 0.34962 0.05302 0.0
C266 C 0.93585 0.58679 0.36691 0.0
O267 O 0.93504 0.59004 0.40607 0.0
Cd268 Cd 0.91797 0.58691 0.45037 0.0
O269 O 0.92693 0.58243 0.34715 0.0
Cd270 Cd 0.90549 0.5792 0.36109 0.0
C271 C 0.91262 0.55712 0.42876 0.0
O272 O 0.90184 0.59523 0.41167 0.0
O273 O 0.88829 0.58176 0.40793 0.0
O274 O 0.90226 0.58989 0.29521 0.0
C275 C 0.89173 0.59156 0.42369 0.0
O276 O 0.91568 0.56533 0.45484 0.0
C277 C 0.89461 0.5828 0.27966 0.0
O278 O 0.90908 0.55955 0.39068 0.0
O279 O 0.89238 0.57345 0.30122 0.0
C280 C 0.6539 0.30793 0.3525 0.0
O281 O 0.651 0.31022 0.31375 0.0
Cd282 Cd 0.65311 0.32889 0.27876 0.0
O283 O 0.6576 0.31614 0.37749 0.0
Cd284 Cd 0.66043 0.33806 0.37362 0.0
C285 C 0.68268 0.33371 0.30265 0.0
O286 O 0.64414 0.34285 0.32603 0.0
O287 O 0.65708 0.3567 0.3345 0.0
O288 O 0.65065 0.33967 0.44266 0.0
C289 C 0.64731 0.35342 0.31812 0.0
O290 O 0.67464 0.33153 0.27475 0.0
C291 C 0.6582 0.34669 0.45925 0.0
O292 O 0.68001 0.33589 0.34185 0.0
O293 O 0.66726 0.34924 0.43658 0.0
C294 C 0.93769 0.40335 0.61564 0.0
O295 O 0.93686 0.40145 0.57533 0.0
Cd296 Cd 0.92008 0.40633 0.53214 0.0
O297 O 0.92885 0.40727 0.63708 0.0
Cd298 Cd 0.90749 0.41158 0.62329 0.0
C299 C 0.91537 0.4354 0.56502 0.0
O300 O 0.90361 0.39726 0.56642 0.0
O301 O 0.89032 0.41083 0.57498 0.0
O302 O 0.90327 0.39913 0.68457 0.0
C303 C 0.89362 0.40148 0.55556 0.0
O304 O 0.91842 0.4279 0.53624 0.0
C305 C 0.89595 0.40616 0.70244 0.0
O306 O 0.9115 0.43199 0.60167 0.0
O307 O 0.89438 0.4162 0.6845 0.0
C308 C 0.83387 0.68415 0.85306 0.0
O309 O 0.83542 0.68239 0.81294 0.0
Cd310 Cd 0.834 0.66385 0.77638 0.0
O311 O 0.83154 0.67553 0.87838 0.0
Cd312 Cd 0.82941 0.65364 0.87128 0.0
C313 C 0.80564 0.65607 0.80598 0.0
O314 O 0.84521 0.65052 0.81961 0.0
O315 O 0.83361 0.63559 0.82917 0.0
O316 O 0.8402 0.65154 0.93825 0.0
C317 C 0.84281 0.63979 0.81124 0.0
O318 O 0.81294 0.65875 0.77607 0.0
C319 C 0.83299 0.64423 0.95523 0.0
O320 O 0.80917 0.65456 0.84463 0.0
O321 O 0.82373 0.64166 0.93372 0.0
C322 C 0.55834 0.58485 0.10133 0.0
O323 O 0.55976 0.58619 0.06091 0.0
Cd324 Cd 0.57811 0.58536 0.02228 0.0
O325 O 0.56723 0.58322 0.1261 0.0
Cd326 Cd 0.5891 0.58192 0.1186 0.0
C327 C 0.58653 0.55745 0.05677 0.0
O328 O 0.59188 0.59659 0.0628 0.0
O329 O 0.60695 0.58535 0.07509 0.0
O330 O 0.59059 0.59441 0.18139 0.0
C331 C 0.60255 0.59395 0.05411 0.0
O332 O 0.58371 0.5645 0.02624 0.0
C333 C 0.59834 0.58814 0.20055 0.0
O334 O 0.58813 0.56125 0.09514 0.0
O335 O 0.6014 0.57847 0.18245 0.0
C336 C 0.3317 0.30624 0.34624 0.0
O337 O 0.33279 0.30925 0.3069 0.0
Cd338 Cd 0.33239 0.3289 0.2786 0.0
O339 O 0.33028 0.31408 0.37554 0.0
Cd340 Cd 0.32912 0.33613 0.37722 0.0
C341 C 0.3048 0.33721 0.31419 0.0
O342 O 0.34478 0.34001 0.32578 0.0
O343 O 0.33385 0.35505 0.34125 0.0
O344 O 0.34053 0.33638 0.44341 0.0
C345 C 0.34289 0.35102 0.32178 0.0
O346 O 0.31174 0.33534 0.28241 0.0
C347 C 0.33366 0.34347 0.46323 0.0
O348 O 0.30867 0.33702 0.35281 0.0
O349 O 0.32424 0.3466 0.44377 0.0
C350 C 0.43779 0.57813 0.10082 0.0
O351 O 0.43659 0.57788 0.05999 0.0
Cd352 Cd 0.41889 0.57906 0.01765 0.0
O353 O 0.42878 0.57894 0.12564 0.0
Cd354 Cd 0.4069 0.57967 0.11556 0.0
C355 C 0.40598 0.55385 0.05822 0.0
O356 O 0.40729 0.59309 0.05505 0.0
O357 O 0.38993 0.58663 0.07201 0.0
O358 O 0.40519 0.59273 0.17758 0.0
C359 C 0.39626 0.59303 0.04749 0.0
O360 O 0.40991 0.55963 0.02588 0.0
C361 C 0.397 0.58678 0.19573 0.0
O362 O 0.40494 0.5587 0.09524 0.0
O363 O 0.39389 0.57714 0.17762 0.0
C364 C 0.15387 0.68573 0.86717 0.0
O365 O 0.15138 0.6845 0.82743 0.0
Cd366 Cd 0.15363 0.66673 0.78644 0.0
O367 O 0.1574 0.67691 0.88957 0.0
Cd368 Cd 0.16026 0.65526 0.878 0.0
C369 C 0.1829 0.66015 0.80959 0.0
O370 O 0.14417 0.65172 0.82747 0.0
O371 O 0.15704 0.63767 0.83291 0.0
O372 O 0.14946 0.65216 0.94417 0.0
C373 C 0.14738 0.64136 0.81673 0.0
O374 O 0.17493 0.66294 0.78222 0.0
C375 C 0.15663 0.64465 0.96013 0.0
O376 O 0.18019 0.65771 0.84856 0.0
O377 O 0.16605 0.64252 0.9388 0.0
C378 C 0.05739 0.40128 0.61549 0.0
O379 O 0.05848 0.3991 0.57543 0.0
Cd380 Cd 0.07579 0.40258 0.53274 0.0
O381 O 0.06617 0.4051 0.63746 0.0
Cd382 Cd 0.08754 0.40915 0.62471 0.0
C383 C 0.08088 0.43196 0.55918 0.0
O384 O 0.09167 0.39393 0.57161 0.0
O385 O 0.10503 0.40747 0.57813 0.0
O386 O 0.09177 0.39806 0.68915 0.0
C387 C 0.10174 0.39788 0.56033 0.0
O388 O 0.0784 0.42411 0.53093 0.0
C389 C 0.09891 0.40558 0.7052 0.0
O390 O 0.08366 0.42905 0.59764 0.0
O391 O 0.10025 0.4153 0.68485 0.0
C392 C 0.3332 0.68558 0.62768 0.0
O393 O 0.33509 0.6841 0.66778 0.0
Cd394 Cd 0.33362 0.66577 0.70617 0.0
O395 O 0.33056 0.67682 0.60338 0.0
Cd396 Cd 0.32847 0.65496 0.61007 0.0
C397 C 0.30504 0.65783 0.67746 0.0
O398 O 0.34432 0.65255 0.66143 0.0
O399 O 0.33414 0.63672 0.64936 0.0
O400 O 0.33923 0.6545 0.54282 0.0
C401 C 0.34277 0.64161 0.66869 0.0
O402 O 0.31256 0.66075 0.70634 0.0
C403 C 0.33283 0.64662 0.52504 0.0
O404 O 0.30828 0.65594 0.63861 0.0
O405 O 0.32388 0.64293 0.54623 0.0
C406 C 0.05544 0.58254 0.3818 0.0
O407 O 0.05663 0.58441 0.42201 0.0
Cd408 Cd 0.07482 0.58364 0.46125 0.0
O409 O 0.06443 0.58024 0.35823 0.0
Cd410 Cd 0.08617 0.57806 0.3686 0.0
C411 C 0.08209 0.55485 0.43577 0.0
O412 O 0.08908 0.59413 0.41948 0.0
O413 O 0.1037 0.58194 0.41335 0.0
O414 O 0.08859 0.58863 0.30138 0.0
C415 C 0.09961 0.59141 0.42977 0.0
O416 O 0.07946 0.56254 0.4644 0.0
C417 C 0.0963 0.58164 0.2856 0.0
O418 O 0.08412 0.55793 0.39685 0.0
O419 O 0.09898 0.57254 0.30781 0.0
C420 C 0.15762 0.31242 0.14804 0.0
O421 O 0.15436 0.31577 0.18541 0.0
Cd422 Cd 0.15352 0.33563 0.2122 0.0
O423 O 0.16072 0.31998 0.1195 0.0
Cd424 Cd 0.16231 0.34194 0.11459 0.0
C425 C 0.18279 0.34279 0.19459 0.0
O426 O 0.1447 0.34659 0.15519 0.0
O427 O 0.15609 0.36145 0.14237 0.0
O428 O 0.15483 0.34101 0.04159 0.0
C429 C 0.14652 0.35763 0.15881 0.0
O430 O 0.17433 0.34123 0.22139 0.0
C431 C 0.16262 0.34794 0.02584 0.0
O432 O 0.1809 0.34263 0.15403 0.0
O433 O 0.17074 0.35153 0.05113 0.0
C434 C 0.43502 0.40352 0.88717 0.0
O435 O 0.43342 0.40066 0.92642 0.0
Cd436 Cd 0.41513 0.40238 0.9651 0.0
O437 O 0.42639 0.4071 0.86397 0.0
Cd438 Cd 0.40462 0.4096 0.87127 0.0
C439 C 0.40825 0.43173 0.94284 0.0
O440 O 0.40059 0.39342 0.92054 0.0
O441 O 0.38637 0.40595 0.91189 0.0
O442 O 0.40323 0.39913 0.80394 0.0
C443 C 0.39005 0.39649 0.92951 0.0
O444 O 0.41094 0.42361 0.96984 0.0
C445 C 0.39567 0.40603 0.78681 0.0
O446 O 0.40631 0.42927 0.90326 0.0
O447 O 0.39269 0.4152 0.80824 0.0
H448 H 0.29469 0.14758 0.21928 0.0
H449 H 0.27381 0.14626 0.19859 0.0
H450 H 0.26346 0.14929 0.33233 0.0
H451 H 0.28434 0.15039 0.3535 0.0
H452 H 0.24979 0.13331 0.29009 0.0
H453 H 0.26319 0.17344 0.26741 0.0
H454 H 0.27633 0.18903 0.23821 0.0
H455 H 0.26784 0.17813 0.10893 0.0
H456 H 0.25477 0.16237 0.1374 0.0
H457 H 0.19092 0.15506 0.26456 0.0
H458 H 0.21181 0.15206 0.2827 0.0
H459 H 0.22036 0.14878 0.14738 0.0
H460 H 0.19951 0.15191 0.12879 0.0
H461 H 0.23503 0.16398 0.18821 0.0
H462 H 0.22039 0.12454 0.21205 0.0
H463 H 0.20704 0.10932 0.2425 0.0
H464 H 0.21753 0.11926 0.37084 0.0
H465 H 0.23082 0.13466 0.34118 0.0
C466 C 0.28798 0.14788 0.24437 0.0
C467 C 0.29116 0.14924 0.28801 0.0
C468 C 0.27606 0.14714 0.23247 0.0
C469 C 0.26711 0.14789 0.26389 0.0
C470 C 0.27025 0.14873 0.30761 0.0
C471 C 0.28218 0.1494 0.31961 0.0
C472 C 0.25447 0.14843 0.25099 0.0
C473 C 0.24652 0.14007 0.26812 0.0
C474 C 0.25029 0.15713 0.22173 0.0
C475 C 0.2581 0.16665 0.20454 0.0
C476 C 0.26419 0.17431 0.23276 0.0
C477 C 0.27162 0.18319 0.21634 0.0
C478 C 0.27295 0.18455 0.17175 0.0
C479 C 0.26682 0.17706 0.14347 0.0
C480 C 0.2594 0.16816 0.15972 0.0
C481 C 0.19722 0.15364 0.23862 0.0
C482 C 0.19355 0.15376 0.1952 0.0
C483 C 0.20915 0.15185 0.24908 0.0
C484 C 0.21759 0.15009 0.21638 0.0
C485 C 0.21396 0.15011 0.17307 0.0
C486 C 0.20204 0.15189 0.16255 0.0
C487 C 0.23032 0.14885 0.22725 0.0
C488 C 0.2383 0.15714 0.20987 0.0
C489 C 0.23448 0.14012 0.25644 0.0
C490 C 0.22653 0.13083 0.27438 0.0
C491 C 0.21978 0.12355 0.24678 0.0
C492 C 0.21224 0.11487 0.2639 0.0
C493 C 0.21142 0.11334 0.30858 0.0
C494 C 0.21817 0.12046 0.33624 0.0
C495 C 0.22572 0.12915 0.31928 0.0
H496 H 0.20557 0.10662 0.32177 0.0
H497 H 0.2787 0.19142 0.1591 0.0
H498 H 0.09225 0.95545 0.37998 0.0
H499 H 0.09415 0.97653 0.39764 0.0
H500 H 0.09267 0.96813 0.53351 0.0
H501 H 0.09056 0.9471 0.51624 0.0
H502 H 0.07752 0.98537 0.51379 0.0
H503 H 0.11862 0.97691 0.48485 0.0
H504 H 0.13557 0.96955 0.442 0.0
H505 H 0.12754 0.99465 0.34174 0.0
H506 H 0.11044 0.00205 0.38375 0.0
H507 H 0.09228 0.04105 0.60012 0.0
H508 H 0.09414 0.02023 0.57918 0.0
H509 H 0.09234 0.03012 0.44477 0.0
H510 H 0.09053 0.05104 0.46529 0.0
H511 H 0.10928 0.01242 0.46185 0.0
H512 H 0.06812 0.02062 0.48997 0.0
H513 H 0.05111 0.02802 0.53242 0.0
H514 H 0.05923 0.00328 0.63375 0.0
H515 H 0.0764 0.99585 0.59216 0.0
C516 C 0.09246 0.95807 0.41362 0.0
C517 C 0.09117 0.94961 0.44671 0.0
C518 C 0.09359 0.97012 0.42365 0.0
C519 C 0.0936 0.97387 0.46688 0.0
C520 C 0.09264 0.96541 0.49993 0.0
C521 C 0.09144 0.95339 0.48997 0.0
C522 C 0.09387 0.98666 0.47782 0.0
C523 C 0.08457 0.99124 0.50297 0.0
C524 C 0.10288 0.99436 0.46254 0.0
C525 C 0.11318 0.98995 0.43727 0.0
C526 C 0.12041 0.98079 0.45351 0.0
C527 C 0.13005 0.97663 0.4294 0.0
C528 C 0.13261 0.98161 0.38912 0.0
C529 C 0.12554 0.99079 0.37292 0.0
C530 C 0.11588 0.99498 0.39689 0.0
C531 C 0.0924 0.03883 0.56607 0.0
C532 C 0.09112 0.04768 0.53437 0.0
C533 C 0.09345 0.02694 0.55421 0.0
C534 C 0.09322 0.02368 0.5105 0.0
C535 C 0.0925 0.0325 0.47868 0.0
C536 C 0.0914 0.04442 0.4905 0.0
C537 C 0.09304 0.01101 0.49828 0.0
C538 C 0.10229 0.0065 0.47273 0.0
C539 C 0.08398 0.00334 0.51311 0.0
C540 C 0.07362 0.00776 0.53813 0.0
C541 C 0.06634 0.01683 0.52146 0.0
C542 C 0.05666 0.02101 0.54534 0.0
C543 C 0.05411 0.01614 0.5858 0.0
C544 C 0.06123 0.00706 0.60242 0.0
C545 C 0.07093 0.00285 0.5787 0.0
H546 H 0.04661 0.01939 0.60422 0.0
H547 H 0.14008 0.97838 0.37051 0.0
H548 H 0.19724 0.8338 0.73032 0.0
H549 H 0.21807 0.83481 0.70917 0.0
H550 H 0.22853 0.83339 0.84316 0.0
H551 H 0.20762 0.83277 0.86473 0.0
H552 H 0.24154 0.84912 0.80167 0.0
H553 H 0.23014 0.80867 0.77622 0.0
H554 H 0.21788 0.79244 0.74657 0.0
H555 H 0.22564 0.80415 0.61762 0.0
H556 H 0.23783 0.82055 0.64652 0.0
H557 H 0.30141 0.8312 0.76876 0.0
H558 H 0.28046 0.83219 0.78873 0.0
H559 H 0.27098 0.83768 0.65527 0.0
H560 H 0.29196 0.83668 0.6348 0.0
H561 H 0.25755 0.82024 0.69541 0.0
H562 H 0.2697 0.86045 0.72284 0.0
H563 H 0.28227 0.87618 0.75422 0.0
H564 H 0.27349 0.86419 0.88195 0.0
H565 H 0.26099 0.84827 0.85131 0.0
C566 C 0.20396 0.83369 0.75534 0.0
C567 C 0.20079 0.83311 0.79921 0.0
C568 C 0.21588 0.83423 0.74317 0.0
C569 C 0.22487 0.83395 0.77454 0.0
C570 C 0.22173 0.83358 0.81842 0.0
C571 C 0.20979 0.8332 0.83068 0.0
C572 C 0.23753 0.83401 0.76148 0.0
C573 C 0.24507 0.84271 0.77887 0.0
C574 C 0.24209 0.82579 0.73103 0.0
C575 C 0.2348 0.8159 0.71355 0.0
C576 C 0.22916 0.80783 0.74155 0.0
C577 C 0.22224 0.7986 0.72487 0.0
C578 C 0.22096 0.79728 0.68024 0.0
C579 C 0.22663 0.80519 0.65218 0.0
C580 C 0.23355 0.81444 0.66869 0.0
C581 C 0.2949 0.83266 0.7436 0.0
C582 C 0.29836 0.83385 0.70015 0.0
C583 C 0.28293 0.83328 0.75514 0.0
C584 C 0.27421 0.8351 0.7235 0.0
C585 C 0.27761 0.8363 0.68012 0.0
C586 C 0.28959 0.83576 0.66854 0.0
C587 C 0.26152 0.83533 0.73564 0.0
C588 C 0.25399 0.82667 0.71811 0.0
C589 C 0.25701 0.8435 0.76625 0.0
C590 C 0.26449 0.8531 0.78475 0.0
C591 C 0.27052 0.8611 0.75761 0.0
C592 C 0.27762 0.87006 0.77527 0.0
C593 C 0.2787 0.87116 0.82005 0.0
C594 C 0.27265 0.86332 0.84727 0.0
C595 C 0.26555 0.85433 0.82977 0.0
H596 H 0.2842 0.87811 0.83366 0.0
H597 H 0.21559 0.79013 0.6674 0.0
H598 H 0.40789 0.04503 0.88807 0.0
H599 H 0.40425 0.02485 0.91404 0.0
H600 H 0.40461 0.0375 0.04561 0.0
H601 H 0.40856 0.05761 0.02008 0.0
H602 H 0.41701 0.01794 0.03938 0.0
H603 H 0.37834 0.03022 0.99341 0.0
H604 H 0.36343 0.03837 0.94314 0.0
H605 H 0.37033 0.00995 0.85406 0.0
H606 H 0.38541 0.00172 0.90353 0.0
H607 H 0.39883 0.96198 0.12002 0.0
H608 H 0.39701 0.98319 0.10345 0.0
H609 H 0.39987 0.97544 0.96738 0.0
H610 H 0.40153 0.95434 0.98344 0.0
H611 H 0.384 0.9932 0.98273 0.0
H612 H 0.42423 0.98262 0.02439 0.0
H613 H 0.43934 0.97444 0.07383 0.0
H614 H 0.42936 -0.00015 0.17077 0.0
H615 H 0.41408 0.00808 0.12205 0.0
C616 C 0.40722 0.04351 0.92252 0.0
C617 C 0.40852 0.05292 0.95198 0.0
C618 C 0.40505 0.03199 0.93731 0.0
C619 C 0.40395 0.02972 0.98175 0.0
C620 C 0.40538 0.03907 0.01119 0.0
C621 C 0.40766 0.05055 -0.00351 0.0
C622 C 0.40168 0.01752 -0.00237 0.0
C623 C 0.40964 0.01262 0.02762 0.0
C624 C 0.39218 0.01052 0.98181 0.0
C625 C 0.38307 0.01541 0.95207 0.0
C626 C 0.37673 0.02576 0.96297 0.0
C627 C 0.36825 0.03038 0.93463 0.0
C628 C 0.36595 0.0247 0.89539 0.0
C629 C 0.37212 0.01435 0.88445 0.0
C630 C 0.38063 0.00969 0.91266 0.0
C631 C 0.39884 0.96478 0.08656 0.0
C632 C 0.40051 0.95651 0.05308 0.0
C633 C 0.39783 0.97689 0.07717 0.0
C634 C 0.3985 0.98086 0.03424 0.0
C635 C 0.39937 0.97255 0.00072 0.0
C636 C 0.4004 0.96049 0.01003 0.0
C637 C 0.39939 0.99365 0.02398 0.0
C638 C 0.39122 -0.00137 0.995 0.0
C639 C 0.40869 0.00075 0.04067 0.0
C640 C 0.41793 0.99587 0.06981 0.0
C641 C 0.42521 0.9864 0.05637 0.0
C642 C 0.43381 0.98177 0.08423 0.0
C643 C 0.43529 0.9866 0.12546 0.0
C644 C 0.42819 0.9961 0.13886 0.0
C645 C 0.41956 0.00075 0.11114 0.0
H646 H 0.44195 0.983 0.14699 0.0
H647 H 0.35938 0.02829 0.8735 0.0
H648 H 0.79239 0.83841 0.7333 0.0
H649 H 0.77147 0.84265 0.72044 0.0
H650 H 0.76614 0.8485 0.85678 0.0
H651 H 0.78712 0.84415 0.87016 0.0
H652 H 0.74984 0.83351 0.82322 0.0
H653 H 0.76525 0.87174 0.7881 0.0
H654 H 0.77857 0.88615 0.75275 0.0
H655 H 0.7662 0.8748 0.62824 0.0
H656 H 0.75292 0.86019 0.6628 0.0
H657 H 0.68967 0.84781 0.78443 0.0
H658 H 0.71028 0.85037 0.80718 0.0
H659 H 0.72199 0.8451 0.67585 0.0
H660 H 0.70139 0.84283 0.65258 0.0
H661 H 0.73475 0.86221 0.71464 0.0
H662 H 0.72193 0.82225 0.74862 0.0
H663 H 0.70891 0.80728 0.78247 0.0
H664 H 0.71684 0.82154 0.90783 0.0
H665 H 0.7298 0.8367 0.87462 0.0
C666 C 0.78682 0.84067 0.7606 0.0
C667 C 0.79142 0.84088 0.80281 0.0
C668 C 0.77487 0.84319 0.75312 0.0
C669 C 0.7673 0.84602 0.78761 0.0
C670 C 0.77187 0.84639 0.82973 0.0
C671 C 0.78385 0.84389 0.83728 0.0
C672 C 0.75446 0.84773 0.77976 0.0
C673 C 0.7465 0.83998 0.80023 0.0
C674 C 0.75019 0.85599 0.74904 0.0
C675 C 0.75814 0.8648 0.72808 0.0
C676 C 0.76543 0.87225 0.75317 0.0
C677 C 0.77297 0.88047 0.73326 0.0
C678 C 0.77325 0.88138 0.68827 0.0
C679 C 0.76597 0.87408 0.66309 0.0
C680 C 0.75843 0.86584 0.68282 0.0
C681 C 0.69662 0.8473 0.7603 0.0
C682 C 0.69391 0.84498 0.71676 0.0
C683 C 0.70839 0.84876 0.77339 0.0
C684 C 0.71766 0.84774 0.7433 0.0
C685 C 0.71496 0.84591 0.69958 0.0
C686 C 0.70318 0.84455 0.68638 0.0
C687 C 0.7302 0.84786 0.75754 0.0
C688 C 0.73809 0.85591 0.73822 0.0
C689 C 0.73445 0.83983 0.78913 0.0
C690 C 0.72671 0.83068 0.80912 0.0
C691 C 0.72082 0.82224 0.78337 0.0
C692 C 0.71347 0.81372 0.80244 0.0
C693 C 0.71202 0.81348 0.84726 0.0
C694 C 0.71796 0.82175 0.87311 0.0
C695 C 0.72531 0.8303 0.85419 0.0
H696 H 0.70632 0.80687 0.86196 0.0
H697 H 0.77909 0.88775 0.67293 0.0
H698 H 0.90121 0.95558 0.36472 0.0
H699 H 0.8979 0.97682 0.37709 0.0
H700 H 0.89594 0.97054 0.51434 0.0
H701 H 0.89926 0.94937 0.50242 0.0
H702 H 0.87911 0.98704 0.48478 0.0
H703 H 0.9213 0.97882 0.4739 0.0
H704 H 0.93927 0.97111 0.43789 0.0
H705 H 0.93329 0.99455 0.33066 0.0
H706 H 0.91517 0.00228 0.36582 0.0
H707 H 0.89721 0.04005 0.58767 0.0
H708 H 0.89421 0.01992 0.56037 0.0
H709 H 0.89955 0.03236 0.43 0.0
H710 H 0.90271 0.05249 0.45694 0.0
H711 H 0.91291 0.01335 0.44662 0.0
H712 H 0.87216 0.02372 0.46323 0.0
H713 H 0.8544 0.03147 0.50035 0.0
H714 H 0.85754 0.00428 0.59694 0.0
H715 H 0.87543 -0.00354 0.56075 0.0
C716 C 0.8999 0.9587 0.39747 0.0
C717 C 0.90063 0.95084 0.43265 0.0
C718 C 0.89802 0.97082 0.40444 0.0
C719 C 0.89678 0.9752 0.44662 0.0
C720 C 0.89688 0.9673 0.48156 0.0
C721 C 0.89886 0.95522 0.47468 0.0
C722 C 0.89636 0.9881 0.45496 0.0
C723 C 0.88648 0.99283 0.47658 0.0
C724 C 0.9059 0.99562 0.4433 0.0
C725 C 0.9168 0.99101 0.42221 0.0
C726 C 0.92376 0.98225 0.44246 0.0
C727 C 0.93398 0.97789 0.42225 0.0
C728 C 0.9374 0.98231 0.38194 0.0
C729 C 0.93062 0.99112 0.36183 0.0
C730 C 0.92037 0.99549 0.38189 0.0
C731 C 0.89763 0.03854 0.55315 0.0
C732 C 0.90027 0.04786 0.52453 0.0
C733 C 0.89584 0.02704 0.53758 0.0
C734 C 0.89656 0.02469 0.49313 0.0
C735 C 0.89894 0.03401 0.46441 0.0
C736 C 0.90075 0.04551 0.47992 0.0
C737 C 0.8957 0.01234 0.47708 0.0
C738 C 0.90538 0.00768 0.4541 0.0
C739 C 0.88598 0.00491 0.48755 0.0
C740 C 0.8752 0.00956 0.50941 0.0
C741 C 0.86912 0.01945 0.49257 0.0
C742 C 0.85901 0.02384 0.51341 0.0
C743 C 0.85485 0.01839 0.55102 0.0
C744 C 0.86078 0.0085 0.56781 0.0
C745 C 0.87089 0.00407 0.5471 0.0
H746 H 0.84703 0.02181 0.56712 0.0
H747 H 0.94532 0.97892 0.36635 0.0
H748 H 0.70937 0.15495 0.36761 0.0
H749 H 0.73058 0.1546 0.35004 0.0
H750 H 0.72214 0.15424 0.21416 0.0
H751 H 0.701 0.15451 0.23124 0.0
H752 H 0.73985 0.13848 0.23469 0.0
H753 H 0.73007 0.17963 0.26136 0.0
H754 H 0.72223 0.19635 0.30425 0.0
H755 H 0.74767 0.18913 0.40421 0.0
H756 H 0.75555 0.17225 0.36212 0.0
H757 H 0.79316 0.15747 0.13707 0.0
H758 H 0.7727 0.15569 0.16234 0.0
H759 H 0.78466 0.1583 0.29438 0.0
H760 H 0.80515 0.1603 0.26944 0.0
H761 H 0.76559 0.17194 0.28106 0.0
H762 H 0.77637 0.13164 0.25232 0.0
H763 H 0.78425 0.11492 0.20955 0.0
H764 H 0.75706 0.12028 0.11428 0.0
H765 H 0.74912 0.13715 0.15619 0.0
C766 C 0.71203 0.15472 0.334 0.0
C767 C 0.7035 0.15483 0.30082 0.0
C768 C 0.72414 0.15456 0.32405 0.0
C769 C 0.72789 0.1545 0.28082 0.0
C770 C 0.71941 0.15429 0.24772 0.0
C771 C 0.70733 0.1545 0.25759 0.0
C772 C 0.74066 0.15498 0.26977 0.0
C773 C 0.74548 0.14583 0.2445 0.0
C774 C 0.74802 0.16443 0.28358 0.0
C775 C 0.74331 0.1746 0.30883 0.0
C776 C 0.73393 0.18155 0.29265 0.0
C777 C 0.72949 0.19106 0.31678 0.0
C778 C 0.73442 0.19378 0.35699 0.0
C779 C 0.74384 0.187 0.37309 0.0
C780 C 0.7483 0.17746 0.34911 0.0
C781 C 0.79146 0.15767 0.17149 0.0
C782 C 0.8008 0.15902 0.20123 0.0
C783 C 0.77976 0.15659 0.18589 0.0
C784 C 0.77719 0.1567 0.23025 0.0
C785 C 0.78647 0.15817 0.26 0.0
C786 C 0.79817 0.1593 0.24565 0.0
C787 C 0.76478 0.15549 0.24548 0.0
C788 C 0.76002 0.16451 0.27155 0.0
C789 C 0.75748 0.1459 0.23247 0.0
C790 C 0.76221 0.13573 0.20724 0.0
C791 C 0.77213 0.12931 0.22209 0.0
C792 C 0.77659 0.1198 0.19802 0.0
C793 C 0.77117 0.11656 0.15917 0.0
C794 C 0.76125 0.12281 0.14436 0.0
C795 C 0.75676 0.13234 0.16828 0.0
H796 H 0.77465 0.10919 0.14059 0.0
H797 H 0.73098 0.20115 0.37562 0.0
H798 H 0.58219 0.04518 0.01007 0.0
H799 H 0.58247 0.02407 0.02738 0.0
H800 H 0.58375 0.01547 0.89173 0.0
H801 H 0.58353 0.03672 0.87383 0.0
H802 H 0.56691 0.00202 0.94072 0.0
H803 H 0.6081 0.01261 0.94465 0.0
H804 H 0.62544 0.02468 0.96561 0.0
H805 H 0.61885 0.01694 0.09928 0.0
H806 H 0.60135 0.00496 0.07916 0.0
H807 H 0.57973 0.94113 0.97993 0.0
H808 H 0.5802 0.96155 0.95371 0.0
H809 H 0.58412 0.97426 0.08442 0.0
H810 H 0.58394 0.95381 0.11095 0.0
H811 H 0.59908 0.98537 0.03214 0.0
H812 H 0.55742 0.97602 0.03005 0.0
H813 H 0.53963 0.96436 0.01093 0.0
H814 H 0.54659 0.9701 0.87618 0.0
H815 H 0.56452 0.98167 0.89449 0.0
C816 C 0.58251 0.03884 0.98378 0.0
C817 C 0.58287 0.04264 0.94052 0.0
C818 C 0.58271 0.02678 0.9938 0.0
C819 C 0.58324 0.01827 0.96084 0.0
C820 C 0.58338 0.02196 0.91756 0.0
C821 C 0.58329 0.03407 0.90745 0.0
C822 C 0.58361 0.00552 0.97211 0.0
C823 C 0.57404 -0.00172 0.96001 0.0
C824 C 0.59278 0.00081 -0.00183 0.0
C825 C 0.60335 0.00796 0.0104 0.0
C826 C 0.61029 0.01356 0.97854 0.0
C827 C 0.62016 0.02037 0.99027 0.0
C828 C 0.62323 0.0216 0.03376 0.0
C829 C 0.61645 0.01599 0.06561 0.0
C830 C 0.60656 0.00918 0.05405 0.0
C831 C 0.58065 0.94826 0.00319 0.0
C832 C 0.58176 0.94584 0.0476 0.0
C833 C 0.58087 0.95993 0.98811 0.0
C834 C 0.58205 0.96943 0.01715 0.0
C835 C 0.5832 0.96705 0.06146 0.0
C836 C 0.58306 0.95536 0.07657 0.0
C837 C 0.58228 0.98185 0.00132 0.0
C838 C 0.59198 0.98904 0.01255 0.0
C839 C 0.57317 0.98653 0.97472 0.0
C840 C 0.56238 0.9796 0.96364 0.0
C841 C 0.55521 0.97471 -0.00367 0.0
C842 C 0.54509 0.96813 0.98564 0.0
C843 C 0.542 0.96646 0.94236 0.0
C844 C 0.54901 0.97139 0.90968 0.0
C845 C 0.55914 0.97796 0.9202 0.0
H846 H 0.53416 0.96137 0.93415 0.0
H847 H 0.63087 0.02688 0.04277 0.0
H848 H 0.70246 0.6552 0.63849 0.0
H849 H 0.72316 0.65352 0.661 0.0
H850 H 0.71198 0.64825 0.79295 0.0
H851 H 0.69125 0.65017 0.7709 0.0
H852 H 0.72906 0.66436 0.78848 0.0
H853 H 0.72318 0.62523 0.73308 0.0
H854 H 0.71717 0.61004 0.68003 0.0
H855 H 0.74281 0.62347 0.58967 0.0
H856 H 0.74887 0.63886 0.64196 0.0
H857 H 0.7874 0.65084 0.86131 0.0
H858 H 0.76633 0.64879 0.84373 0.0
H859 H 0.77399 0.6561 0.70982 0.0
H860 H 0.79507 0.65805 0.72688 0.0
H861 H 0.75848 0.63756 0.71947 0.0
H862 H 0.76308 0.6776 0.77336 0.0
H863 H 0.76904 0.69275 0.82666 0.0
H864 H 0.74561 0.67726 0.92056 0.0
H865 H 0.73962 0.66192 0.86794 0.0
C866 C 0.70439 0.6536 0.67225 0.0
C867 C 0.6952 0.65285 0.70292 0.0
C868 C 0.71623 0.65257 0.68503 0.0
C869 C 0.71909 0.65063 0.72858 0.0
C870 C 0.70995 0.64973 0.75917 0.0
C871 C 0.69811 0.65082 0.74648 0.0
C872 C 0.73166 0.65022 0.74247 0.0
C873 C 0.73544 0.65834 0.77397 0.0
C874 C 0.74001 0.64252 0.72289 0.0
C875 C 0.73641 0.63326 0.69135 0.0
C876 C 0.72748 0.625 0.70178 0.0
C877 C 0.72407 0.61635 0.67186 0.0
C878 C 0.72959 0.61581 0.63147 0.0
C879 C 0.73854 0.62391 0.62095 0.0
C880 C 0.74197 0.63259 0.65074 0.0
C881 C 0.78461 0.65199 0.8281 0.0
C882 C 0.7929 0.65468 0.79553 0.0
C883 C 0.77258 0.65083 0.81815 0.0
C884 C 0.76863 0.6524 0.77556 0.0
C885 C 0.77689 0.65486 0.74288 0.0
C886 C 0.78892 0.65602 0.75276 0.0
C887 C 0.75584 0.65177 0.76507 0.0
C888 C 0.75203 0.64348 0.73423 0.0
C889 C 0.74745 0.65928 0.78531 0.0
C890 C 0.751 0.66854 0.81688 0.0
C891 C 0.75927 0.67737 0.80548 0.0
C892 C 0.76264 0.686 0.83555 0.0
C893 C 0.75774 0.68595 0.87701 0.0
C894 C 0.74942 0.67728 0.88845 0.0
C895 C 0.74603 0.66862 0.85852 0.0
H896 H 0.76036 0.69264 0.90024 0.0
H897 H 0.72694 0.6091 0.60835 0.0
H898 H 0.58009 0.44365 0.01542 0.0
H899 H 0.58181 0.46424 0.039 0.0
H900 H 0.58733 0.47533 0.90712 0.0
H901 H 0.58585 0.45467 0.88318 0.0
H902 H 0.60275 0.48599 0.96039 0.0
H903 H 0.56063 0.47946 0.95704 0.0
H904 H 0.54185 0.46919 0.97421 0.0
H905 H 0.54758 0.4754 0.10945 0.0
H906 H 0.56648 0.48556 0.09311 0.0
H907 H 0.58866 0.54708 0.97771 0.0
H908 H 0.58928 0.52592 0.96105 0.0
H909 H 0.58738 0.51763 0.09688 0.0
H910 H 0.58678 0.53889 0.11404 0.0
H911 H 0.57086 0.50531 0.04603 0.0
H912 H 0.61262 0.51314 0.04749 0.0
H913 H 0.63101 0.52382 0.02846 0.0
H914 H 0.62553 0.51563 0.89449 0.0
H915 H 0.60701 0.50503 0.91264 0.0
C916 C 0.58162 0.45046 0.99131 0.0
C917 C 0.58278 0.44752 0.94734 0.0
C918 C 0.58258 0.46223 0.00489 0.0
C919 C 0.58457 0.47131 0.97476 0.0
C920 C 0.58579 0.46843 0.93088 0.0
C921 C 0.58489 0.45663 0.91725 0.0
C922 C 0.58544 0.48382 0.98911 0.0
C923 C 0.59573 0.49026 0.97869 0.0
C924 C 0.5764 0.48926 0.01396 0.0
C925 C 0.56503 0.48316 0.02388 0.0
C926 C 0.55793 0.47854 0.99047 0.0
C927 C 0.54726 0.47276 4e-05 0.0
C928 C 0.54354 0.47162 0.0429 0.0
C929 C 0.55048 0.47628 0.07627 0.0
C930 C 0.56117 0.48206 0.06687 0.0
C931 C 0.58845 0.54078 0.00413 0.0
C932 C 0.58763 0.54465 0.04722 0.0
C933 C 0.58887 0.52869 0.99453 0.0
C934 C 0.58845 0.52026 0.02777 0.0
C935 C 0.58775 0.52405 0.07086 0.0
C936 C 0.58745 0.53617 0.08057 0.0
C937 C 0.58811 0.50748 0.01701 0.0
C938 C 0.57793 0.50099 0.02805 0.0
C939 C 0.5972 0.50204 0.99246 0.0
C940 C 0.60836 0.50837 0.98141 0.0
C941 C 0.61528 0.5137 0.01393 0.0
C942 C 0.62574 0.51972 0.00331 0.0
C943 C 0.62943 0.52043 0.96028 0.0
C944 C 0.62267 0.51508 0.9278 0.0
C945 C 0.61219 0.50905 0.93825 0.0
H946 H 0.63753 0.5251 0.95212 0.0
H947 H 0.53527 0.46714 0.05025 0.0
H948 H 0.69208 0.32404 0.22936 0.0
H949 H 0.713 0.32334 0.20815 0.0
H950 H 0.72262 0.3423 0.32403 0.0
H951 H 0.70172 0.34293 0.34586 0.0
H952 H 0.73339 0.35111 0.24701 0.0
H953 H 0.72735 0.31452 0.32427 0.0
H954 H 0.71756 0.29545 0.3407 0.0
H955 H 0.72573 0.28272 0.21338 0.0
H956 H 0.73542 0.3018 0.19594 0.0
H957 H 0.7953 0.32244 0.25262 0.0
H958 H 0.77427 0.32246 0.27208 0.0
H959 H 0.76569 0.3393 0.15094 0.0
H960 H 0.78674 0.33932 0.13103 0.0
H961 H 0.75447 0.31257 0.23223 0.0
H962 H 0.74378 0.36002 0.17432 0.0
H963 H 0.75402 0.37911 0.16192 0.0
H964 H 0.77992 0.37017 0.2584 0.0
H965 H 0.76974 0.35112 0.27177 0.0
C966 C 0.69864 0.32809 0.2503 0.0
C967 C 0.69527 0.33352 0.28935 0.0
C968 C 0.71057 0.32765 0.23817 0.0
C969 C 0.71929 0.33273 0.26466 0.0
C970 C 0.71597 0.33834 0.30324 0.0
C971 C 0.70405 0.33864 0.3157 0.0
C972 C 0.73193 0.33208 0.25229 0.0
C973 C 0.738 0.34269 0.24364 0.0
C974 C 0.73791 0.32109 0.24835 0.0
C975 C 0.73201 0.30964 0.25866 0.0
C976 C 0.72696 0.3077 0.29961 0.0
C977 C 0.72144 0.29688 0.30915 0.0
C978 C 0.72102 0.28789 0.27809 0.0
C979 C 0.72607 0.2897 0.2374 0.0
C980 C 0.73158 0.30052 0.22768 0.0
C981 C 0.78895 0.3261 0.22997 0.0
C982 C 0.79269 0.33095 0.19037 0.0
C983 C 0.77694 0.32605 0.24109 0.0
C984 C 0.76848 0.33095 0.21307 0.0
C985 C 0.77213 0.33556 0.1731 0.0
C986 C 0.78414 0.33554 0.16177 0.0
C987 C 0.7559 0.33159 0.22647 0.0
C988 C 0.74983 0.32098 0.23527 0.0
C989 C 0.74996 0.34259 0.23098 0.0
C990 C 0.75607 0.35409 0.22366 0.0
C991 C 0.75164 0.36215 0.19296 0.0
C992 C 0.75743 0.37296 0.18576 0.0
C993 C 0.76764 0.37583 0.20924 0.0
C994 C 0.77204 0.36792 0.2401 0.0
C995 C 0.76627 0.35711 0.24746 0.0
H996 H 0.77212 0.3842 0.2036 0.0
H997 H 0.71681 0.27949 0.28562 0.0
H998 H 0.90504 0.45393 0.6085 0.0
H999 H 0.90496 0.47492 0.58737 0.0
H1000 H 0.92692 0.46668 0.47717 0.0
H1001 H 0.92706 0.44577 0.49786 0.0
H1002 H 0.93415 0.48702 0.51942 0.0
H1003 H 0.89827 0.46964 0.46242 0.0
H1004 H 0.87934 0.45867 0.46696 0.0
H1005 H 0.86554 0.48483 0.55463 0.0
H1006 H 0.88447 0.49587 0.55108 0.0
H1007 H 0.9049 0.5373 0.38573 0.0
H1008 H 0.9057 0.51668 0.41057 0.0
H1009 H 0.92207 0.52806 0.52952 0.0
H1010 H 0.92138 0.54865 0.50505 0.0
H1011 H 0.89571 0.50608 0.48219 0.0
H1012 H 0.94262 0.50691 0.55768 0.0
H1013 H 0.96167 0.51746 0.54857 0.0
H1014 H 0.95364 0.52364 0.41487 0.0
H1015 H 0.93463 0.51298 0.42304 0.0
C1016 C 0.90995 0.45662 0.58003 0.0
C1017 C 0.916 0.44819 0.55468 0.0
C1018 C 0.90985 0.46858 0.56795 0.0
C1019 C 0.91585 0.47228 0.53055 0.0
C1020 C 0.92224 0.46397 0.50612 0.0
C1021 C 0.92226 0.45202 0.51792 0.0
C1022 C 0.91517 0.48474 0.51575 0.0
C1023 C 0.92575 0.49122 0.51151 0.0
C1024 C 0.90422 0.4901 0.5048 0.0
C1025 C 0.89282 0.4835 0.50685 0.0
C1026 C 0.89123 0.473 0.48295 0.0
C1027 C 0.8805 0.46678 0.48529 0.0
C1028 C 0.87125 0.47103 0.51117 0.0
C1029 C 0.87272 0.48153 0.53466 0.0
C1030 C 0.88344 0.48778 0.53248 0.0
C1031 C 0.9087 0.53542 0.41713 0.0
C1032 C 0.91312 0.54462 0.44332 0.0
C1033 C 0.90909 0.52365 0.43133 0.0
C1034 C 0.91401 0.52088 0.47171 0.0
C1035 C 0.91835 0.53003 0.49805 0.0
C1036 C 0.91792 0.54179 0.484 0.0
C1037 C 0.91468 0.50839 0.48623 0.0
C1038 C 0.90411 0.50191 0.49044 0.0
C1039 C 0.92566 0.50297 0.4966 0.0
C1040 C 0.93715 0.50925 0.49113 0.0
C1041 C 0.94494 0.51048 0.52631 0.0
C1042 C 0.95573 0.51649 0.52131 0.0
C1043 C 0.95885 0.52126 0.4812 0.0
C1044 C 0.9512 0.51998 0.44596 0.0
C1045 C 0.94041 0.51398 0.45078 0.0
H1046 H 0.9672 0.52591 0.47741 0.0
H1047 H 0.86295 0.46621 0.51293 0.0
H1048 H 0.29392 0.34043 0.23625 0.0
H1049 H 0.27286 0.3438 0.22259 0.0
H1050 H 0.26581 0.34283 0.35951 0.0
H1051 H 0.28691 0.33935 0.37362 0.0
H1052 H 0.25063 0.32882 0.31355 0.0
H1053 H 0.26458 0.36884 0.30761 0.0
H1054 H 0.27768 0.38522 0.28455 0.0
H1055 H 0.26713 0.37988 0.15271 0.0
H1056 H 0.25409 0.36335 0.17489 0.0
H1057 H 0.19022 0.34387 0.2787 0.0
H1058 H 0.21064 0.34534 0.30499 0.0
H1059 H 0.22342 0.34676 0.1737 0.0
H1060 H 0.20307 0.34548 0.14708 0.0
H1061 H 0.23527 0.3622 0.22499 0.0
H1062 H 0.2236 0.32092 0.22888 0.0
H1063 H 0.21096 0.30398 0.24991 0.0
H1064 H 0.21766 0.31131 0.38382 0.0
H1065 H 0.23022 0.3284 0.36356 0.0
C1066 C 0.28792 0.34097 0.26353 0.0
C1067 C 0.29209 0.33958 0.30603 0.0
C1068 C 0.27589 0.34299 0.25566 0.0
C1069 C 0.26783 0.34369 0.2901 0.0
C1070 C 0.27194 0.34236 0.33256 0.0
C1071 C 0.28399 0.34038 0.34051 0.0
C1072 C 0.25501 0.34521 0.28136 0.0
C1073 C 0.24721 0.33625 0.29501 0.0
C1074 C 0.25066 0.35479 0.25637 0.0
C1075 C 0.25842 0.36479 0.24291 0.0
C1076 C 0.26512 0.3711 0.27366 0.0
C1077 C 0.27252 0.38042 0.26075 0.0
C1078 C 0.27325 0.38357 0.21719 0.0
C1079 C 0.26656 0.37743 0.18645 0.0
C1080 C 0.25914 0.36809 0.19918 0.0
C1081 C 0.19736 0.34459 0.2554 0.0
C1082 C 0.19503 0.34443 0.21077 0.0
C1083 C 0.20902 0.34541 0.2705 0.0
C1084 C 0.21852 0.34601 0.24124 0.0
C1085 C 0.21619 0.3463 0.19678 0.0
C1086 C 0.20455 0.34551 0.18164 0.0
C1087 C 0.23094 0.34572 0.25665 0.0
C1088 C 0.23866 0.35489 0.24418 0.0
C1089 C 0.23526 0.3363 0.28251 0.0
C1090 C 0.22772 0.32602 0.29473 0.0
C1091 C 0.22229 0.31898 0.26282 0.0
C1092 C 0.21516 0.30934 0.27459 0.0
C1093 C 0.21348 0.30659 0.31818 0.0
C1094 C 0.21895 0.31346 0.35008 0.0
C1095 C 0.22608 0.32312 0.33847 0.0
H1096 H 0.20796 0.29912 0.32723 0.0
H1097 H 0.27899 0.39079 0.20725 0.0
H1098 H 0.40082 0.54244 0.9832 0.0
H1099 H 0.39865 0.52112 0.97194 0.0
H1100 H 0.40306 0.51507 0.10857 0.0
H1101 H 0.40518 0.53653 0.12027 0.0
H1102 H 0.41853 0.50187 0.05624 0.0
H1103 H 0.37702 0.50949 0.06712 0.0
H1104 H 0.35818 0.51984 0.05196 0.0
H1105 H 0.36086 0.51029 0.91805 0.0
H1106 H 0.37982 0.50003 0.93225 0.0
H1107 H 0.41065 0.43987 0.02549 0.0
H1108 H 0.40827 0.46019 0.05135 0.0
H1109 H 0.40081 0.47194 0.92153 0.0
H1110 H 0.40299 0.45156 0.8953 0.0
H1111 H 0.38555 0.48166 0.97935 0.0
H1112 H 0.42783 0.47644 0.96576 0.0
H1113 H 0.4471 0.46663 0.97844 0.0
H1114 H 0.44336 0.47223 0.11496 0.0
H1115 H 0.42397 0.48194 0.10311 0.0
C1116 C 0.40116 0.5366 0.01098 0.0
C1117 C 0.40324 0.54113 0.05259 0.0
C1118 C 0.39985 0.52443 0.00451 0.0
C1119 C 0.40065 0.51656 0.03946 0.0
C1120 C 0.40238 0.52105 0.08127 0.0
C1121 C 0.40354 0.53328 0.08788 0.0
C1122 C 0.40076 0.50364 0.03126 0.0
C1123 C 0.41122 0.49735 0.04038 0.0
C1124 C 0.39133 0.49792 0.00945 0.0
C1125 C 0.3799 0.50405 0.00073 0.0
C1126 C 0.37365 0.50967 0.03436 0.0
C1127 C 0.36293 0.51551 0.02595 0.0
C1128 C 0.35833 0.51574 0.98405 0.0
C1129 C 0.36443 0.51011 0.95049 0.0
C1130 C 0.37516 0.50426 0.95872 0.0
C1131 C 0.40852 0.44676 0.00232 0.0
C1132 C 0.40707 0.4441 0.95823 0.0
C1133 C 0.40718 0.45838 0.01722 0.0
C1134 C 0.40446 0.46756 0.9883 0.0
C1135 C 0.4029 0.46495 0.94436 0.0
C1136 C 0.40421 0.45332 0.9294 0.0
C1137 C 0.40339 0.47995 0.00376 0.0
C1138 C 0.39279 0.48612 -0.00412 0.0
C1139 C 0.41273 0.48562 0.0264 0.0
C1140 C 0.42438 0.47979 0.03359 0.0
C1141 C 0.43107 0.47549 -0.00148 0.0
C1142 C 0.44202 0.46996 0.00554 0.0
C1143 C 0.44643 0.46877 0.04749 0.0
C1144 C 0.43991 0.47313 0.08249 0.0
C1145 C 0.42895 0.47866 0.07564 0.0
H1146 H 0.45492 0.46449 0.05287 0.0
H1147 H 0.35004 0.52027 0.97761 0.0
H1148 H 0.28575 0.65689 0.62361 0.0
H1149 H 0.26475 0.65641 0.64442 0.0
H1150 H 0.27474 0.65618 0.77888 0.0
H1151 H 0.29569 0.6567 0.75857 0.0
H1152 H 0.25664 0.63989 0.75849 0.0
H1153 H 0.26642 0.68128 0.73666 0.0
H1154 H 0.27401 0.69837 0.69515 0.0
H1155 H 0.24772 0.69227 0.59715 0.0
H1156 H 0.24008 0.67503 0.63782 0.0
H1157 H 0.20274 0.65672 0.85941 0.0
H1158 H 0.22336 0.65552 0.83504 0.0
H1159 H 0.21198 0.66067 0.70329 0.0
H1160 H 0.19142 0.66216 0.72737 0.0
H1161 H 0.23069 0.67388 0.71951 0.0
H1162 H 0.22023 0.63313 0.74089 0.0
H1163 H 0.21256 0.61575 0.78051 0.0
H1164 H 0.23979 0.62001 0.87634 0.0
H1165 H 0.24754 0.63753 0.83759 0.0
C1166 C 0.28348 0.65665 0.65759 0.0
C1167 C 0.29237 0.65691 0.68945 0.0
C1168 C 0.27149 0.65641 0.66939 0.0
C1169 C 0.26825 0.65634 0.71315 0.0
C1170 C 0.2771 0.65623 0.74495 0.0
C1171 C 0.28905 0.65659 0.73324 0.0
C1172 C 0.25562 0.65677 0.72604 0.0
C1173 C 0.25097 0.64735 0.75036 0.0
C1174 C 0.24822 0.6664 0.71443 0.0
C1175 C 0.25277 0.67678 0.69004 0.0
C1176 C 0.26233 0.68352 0.70607 0.0
C1177 C 0.26663 0.69324 0.68274 0.0
C1178 C 0.26138 0.69638 0.64347 0.0
C1179 C 0.25179 0.68982 0.62753 0.0
C1180 C 0.24747 0.68007 0.65072 0.0
C1181 C 0.20462 0.6576 0.82526 0.0
C1182 C 0.19543 0.65952 0.79535 0.0
C1183 C 0.21641 0.65685 0.81135 0.0
C1184 C 0.21918 0.65785 0.76727 0.0
C1185 C 0.21004 0.65987 0.73744 0.0
C1186 C 0.19828 0.6607 0.75131 0.0
C1187 C 0.23164 0.657 0.75222 0.0
C1188 C 0.2363 0.66636 0.7275 0.0
C1189 C 0.23901 0.64726 0.76317 0.0
C1190 C 0.23439 0.63671 0.78654 0.0
C1191 C 0.22453 0.63042 0.7706 0.0
C1192 C 0.22017 0.62053 0.79286 0.0
C1193 C 0.22567 0.61679 0.83098 0.0
C1194 C 0.23554 0.62292 0.84684 0.0
C1195 C 0.23992 0.63283 0.82472 0.0
H1196 H 0.22228 0.60913 0.84817 0.0
H1197 H 0.26471 0.70392 0.62546 0.0
H1198 H 0.08234 0.45142 0.61198 0.0
H1199 H 0.08254 0.47234 0.59038 0.0
H1200 H 0.07954 0.46202 0.45666 0.0
H1201 H 0.07931 0.44112 0.47778 0.0
H1202 H 0.09715 0.47906 0.47181 0.0
H1203 H 0.05594 0.47221 0.50512 0.0
H1204 H 0.03929 0.46564 0.55102 0.0
H1205 H 0.04893 0.49137 0.64722 0.0
H1206 H 0.06577 0.49798 0.60216 0.0
H1207 H 0.08344 0.5355 0.38239 0.0
H1208 H 0.08334 0.51455 0.4033 0.0
H1209 H 0.08177 0.52464 0.53766 0.0
H1210 H 0.08157 0.54554 0.51708 0.0
H1211 H 0.06646 0.50753 0.52207 0.0
H1212 H 0.10763 0.51435 0.491 0.0
H1213 H 0.12481 0.52077 0.4474 0.0
H1214 H 0.11589 0.49517 0.3498 0.0
H1215 H 0.09856 0.4887 0.39259 0.0
C1216 C 0.0817 0.4536 0.57799 0.0
C1217 C 0.08077 0.44462 0.5466 0.0
C1218 C 0.08179 0.46554 0.56575 0.0
C1219 C 0.081 0.46867 0.52198 0.0
C1220 C 0.08016 0.45975 0.49059 0.0
C1221 C 0.07997 0.44782 0.50278 0.0
C1222 C 0.08111 0.48127 0.50885 0.0
C1223 C 0.09037 0.48528 0.48229 0.0
C1224 C 0.0724 0.48937 0.52353 0.0
C1225 C 0.06219 0.48551 0.55044 0.0
C1226 C 0.05457 0.47641 0.53621 0.0
C1227 C 0.04509 0.47268 0.56205 0.0
C1228 C 0.04307 0.47806 0.60206 0.0
C1229 C 0.05051 0.4872 0.61624 0.0
C1230 C 0.06002 0.49095 0.59055 0.0
C1231 C 0.08314 0.53325 0.41639 0.0
C1232 C 0.08252 0.54218 0.44807 0.0
C1233 C 0.08311 0.52128 0.42829 0.0
C1234 C 0.08266 0.51805 0.47207 0.0
C1235 C 0.0821 0.52694 0.5037 0.0
C1236 C 0.08202 0.53889 0.49185 0.0
C1237 C 0.08254 0.50538 0.485 0.0
C1238 C 0.07326 0.50134 0.51154 0.0
C1239 C 0.09129 0.49727 0.47057 0.0
C1240 C 0.10173 0.50112 0.44481 0.0
C1241 C 0.10928 0.51015 0.46009 0.0
C1242 C 0.11905 0.51379 0.43555 0.0
C1243 C 0.12142 0.5084 0.3958 0.0
C1244 C 0.11403 0.49935 0.38057 0.0
C1245 C 0.10424 0.49568 0.40496 0.0
H1246 H 0.12899 0.51123 0.37685 0.0
H1247 H 0.03572 0.47516 0.62203 0.0
H1248 H 0.16622 0.13147 0.98797 0.0
H1249 H 0.15772 0.11832 0.93312 0.0
H1250 H 0.12723 0.14135 0.9225 0.0
H1251 H 0.13561 0.1545 0.97719 0.0
H1252 H 0.12169 0.11799 0.94494 0.0
H1253 H 0.14603 0.13908 0.84071 0.0
H1254 H 0.16494 0.14655 0.81093 0.0
H1255 H 0.17824 0.11086 0.80236 0.0
H1256 H 0.15946 0.1032 0.83266 0.0
H1257 H 0.08866 0.10215 0.76358 0.0
H1258 H 0.10028 0.11023 0.82292 0.0
H1259 H 0.1272 0.08353 0.80206 0.0
H1260 H 0.11563 0.07545 0.74187 0.0
H1261 H 0.13658 0.10531 0.80139 0.0
H1262 H 0.11164 0.08382 0.8961 0.0
H1263 H 0.09297 0.0759 0.92616 0.0
H1264 H 0.08116 0.11132 0.95469 0.0
H1265 H 0.09969 0.11948 0.92423 0.0
C1266 C 0.15788 0.13392 0.97299 0.0
C1267 C 0.15149 0.14392 0.98727 0.0
C1268 C 0.15304 0.12639 0.94177 0.0
C1269 C 0.1418 0.12882 0.92439 0.0
C1270 C 0.13587 0.1393 0.93601 0.0
C1271 C 0.1407 0.14683 0.96707 0.0
C1272 C 0.13559 0.11993 0.89762 0.0
C1273 C 0.12487 0.11527 0.91335 0.0
C1274 C 0.14012 0.11596 0.8576 0.0
C1275 C 0.1514 0.12058 0.83946 0.0
C1276 C 0.15303 0.13284 0.83289 0.0
C1277 C 0.16371 0.1371 0.81581 0.0
C1278 C 0.1728 0.12919 0.80489 0.0
C1279 C 0.17121 0.11699 0.81091 0.0
C1280 C 0.16054 0.11268 0.82801 0.0
C1281 C 0.0969 0.0978 0.77228 0.0
C1282 C 0.10129 0.08825 0.74787 0.0
C1283 C 0.10352 0.10239 0.80637 0.0
C1284 C 0.1146 0.09747 0.8169 0.0
C1285 C 0.11867 0.08745 0.79435 0.0
C1286 C 0.11203 0.08282 0.76018 0.0
C1287 C 0.12238 0.10372 0.84791 0.0
C1288 C 0.13346 0.10784 0.83325 0.0
C1289 C 0.11824 0.10712 0.88917 0.0
C1290 C 0.10705 0.10227 0.90765 0.0
C1291 C 0.10503 0.08994 0.9085 0.0
C1292 C 0.09447 0.0854 0.92567 0.0
C1293 C 0.08588 0.0931 0.94228 0.0
C1294 C 0.08783 0.10536 0.94183 0.0
C1295 C 0.09837 0.10995 0.92468 0.0
H1296 H 0.07771 0.08957 0.95555 0.0
H1297 H 0.18106 0.13251 0.79166 0.0
H1298 H 0.16968 0.86684 0.99445 0.0
H1299 H 0.16047 0.87945 0.04972 0.0
H1300 H 0.13306 0.85317 0.06866 0.0
H1301 H 0.14211 0.8406 0.01365 0.0
H1302 H 0.12423 0.87531 0.04893 0.0
H1303 H 0.15345 0.85792 0.14503 0.0
H1304 H 0.17377 0.85301 0.16889 0.0
H1305 H 0.18257 0.89012 0.17306 0.0
H1306 H 0.16234 0.89524 0.14865 0.0
H1307 H 0.09305 0.88895 0.23744 0.0
H1308 H 0.10487 0.88104 0.17824 0.0
H1309 H 0.12875 0.91093 0.18754 0.0
H1310 H 0.11701 0.91886 0.24766 0.0
H1311 H 0.14072 0.89033 0.18706 0.0
H1312 H 0.1109 0.90793 0.09968 0.0
H1313 H 0.09062 0.91304 0.07611 0.0
H1314 H 0.08302 0.87615 0.05413 0.0
H1315 H 0.10321 0.87078 0.07816 0.0
C1316 C 0.16186 0.86363 0.0112 0.0
C1317 C 0.15653 0.8528 -0.00054 0.0
C1318 C 0.15661 0.87085 0.04265 0.0
C1319 C 0.14603 0.86727 0.06281 0.0
C1320 C 0.14116 0.85612 0.05308 0.0
C1321 C 0.14637 0.84894 0.02177 0.0
C1322 C 0.13939 0.87542 0.09138 0.0
C1323 C 0.12779 0.87854 0.07932 0.0
C1324 C 0.14427 0.88004 0.12991 0.0
C1325 C 0.15643 0.87695 0.14449 0.0
C1326 C 0.15976 0.86503 0.15062 0.0
C1327 C 0.17125 0.86221 0.16434 0.0
C1328 C 0.17947 0.87125 0.17234 0.0
C1329 C 0.1762 0.88313 0.16676 0.0
C1330 C 0.16472 0.88599 0.15301 0.0
C1331 C 0.10069 0.89398 0.22643 0.0
C1332 C 0.10413 0.90451 0.24727 0.0
C1333 C 0.10742 0.88946 0.19244 0.0
C1334 C 0.11765 0.89544 0.17833 0.0
C1335 C 0.12087 0.90619 0.19798 0.0
C1336 C 0.11413 0.91073 0.23211 0.0
C1337 C 0.12537 0.88986 0.14539 0.0
C1338 C 0.1372 0.88728 0.15638 0.0
C1339 C 0.12073 0.88577 0.10566 0.0
C1340 C 0.10857 0.88895 0.09096 0.0
C1341 C 0.10489 0.90089 0.0901 0.0
C1342 C 0.09341 0.90384 0.07661 0.0
C1343 C 0.08553 0.89492 0.06368 0.0
C1344 C 0.08913 0.88304 0.06414 0.0
C1345 C 0.1006 0.88005 0.07763 0.0
H1346 H 0.07665 0.89722 0.05326 0.0
H1347 H 0.18836 0.86905 0.18298 0.0
H1348 H 0.37336 0.92034 0.24037 0.0
H1349 H 0.36142 0.9102 0.29539 0.0
H1350 H 0.38895 0.88385 0.31022 0.0
H1351 H 0.40087 0.89384 0.25539 0.0
H1352 H 0.36699 0.87408 0.29447 0.0
H1353 H 0.38422 0.90424 0.38736 0.0
H1354 H 0.38853 0.92482 0.40981 0.0
H1355 H 0.35115 0.93211 0.41871 0.0
H1356 H 0.34663 0.9116 0.39575 0.0
H1357 H 0.35684 0.84266 0.48495 0.0
H1358 H 0.36356 0.85477 0.42464 0.0
H1359 H 0.33298 0.87755 0.43931 0.0
H1360 H 0.32627 0.86553 0.5007 0.0
H1361 H 0.35292 0.8903 0.43439 0.0
H1362 H 0.33556 0.85957 0.35084 0.0
H1363 H 0.33099 0.83904 0.32858 0.0
H1364 H 0.36785 0.8329 0.3006 0.0
H1365 H 0.37268 0.85334 0.32329 0.0
C1366 C 0.37695 0.91251 0.25597 0.0
C1367 C 0.38802 0.90783 0.24339 0.0
C1368 C 0.37012 0.90674 0.28732 0.0
C1369 C 0.37429 0.89625 0.30656 0.0
C1370 C 0.38555 0.89189 0.29544 0.0
C1371 C 0.39238 0.89764 0.26425 0.0
C1372 C 0.36673 0.88934 0.33645 0.0
C1373 C 0.36397 0.87758 0.32523 0.0
C1374 C 0.36236 0.89412 0.37556 0.0
C1375 C 0.36509 0.90644 0.38932 0.0
C1376 C 0.37692 0.91027 0.39371 0.0
C1377 C 0.3794 0.92191 0.40662 0.0
C1378 C 0.37012 0.92978 0.41554 0.0
C1379 C 0.35834 0.92601 0.4117 0.0
C1380 C 0.35581 0.91438 0.39877 0.0
C1381 C 0.35142 0.85012 0.47497 0.0
C1382 C 0.34104 0.85316 0.49763 0.0
C1383 C 0.35525 0.85701 0.44031 0.0
C1384 C 0.34871 0.867 0.42723 0.0
C1385 C 0.33813 0.86986 0.44887 0.0
C1386 C 0.33429 0.86295 0.48375 0.0
C1387 C 0.35354 0.87487 0.39314 0.0
C1388 C 0.35575 0.88683 0.40336 0.0
C1389 C 0.35734 0.8703 0.3529 0.0
C1390 C 0.35448 0.85799 0.339 0.0
C1391 C 0.3427 0.85382 0.34022 0.0
C1392 C 0.34006 0.8422 0.32748 0.0
C1393 C 0.34912 0.83467 0.31324 0.0
C1394 C 0.36084 0.83875 0.31163 0.0
C1395 C 0.36353 0.85036 0.32436 0.0
H1396 H 0.34706 0.82567 0.3034 0.0
H1397 H 0.37206 0.93879 0.42554 0.0
H1398 H 0.3797 0.07806 0.74386 0.0
H1399 H 0.36557 0.08564 0.69033 0.0
H1400 H 0.3865 0.11754 0.67694 0.0
H1401 H 0.40061 0.11008 0.73009 0.0
H1402 H 0.36287 0.12172 0.69953 0.0
H1403 H 0.3855 0.09835 0.59675 0.0
H1404 H 0.39421 0.07987 0.56795 0.0
H1405 H 0.35949 0.06419 0.56029 0.0
H1406 H 0.35059 0.08254 0.58962 0.0
H1407 H 0.34599 0.15283 0.5147 0.0
H1408 H 0.35448 0.14198 0.57524 0.0
H1409 H 0.329 0.11379 0.55648 0.0
H1410 H 0.3205 0.1246 0.49518 0.0
H1411 H 0.35135 0.10547 0.55668 0.0
H1412 H 0.32839 0.1299 0.64897 0.0
H1413 H 0.31957 0.14839 0.67711 0.0
H1414 H 0.35436 0.16197 0.70547 0.0
H1415 H 0.36341 0.14363 0.67692 0.0
C1416 C 0.38146 0.08654 0.72861 0.0
C1417 C 0.39118 0.09354 0.74148 0.0
C1418 C 0.37336 0.09087 0.6982 0.0
C1419 C 0.37494 0.1022 0.68029 0.0
C1420 C 0.38508 0.10882 0.69087 0.0
C1421 C 0.39316 0.10451 0.72106 0.0
C1422 C 0.36565 0.10769 0.65328 0.0
C1423 C 0.36038 0.11823 0.66814 0.0
C1424 C 0.36204 0.10279 0.61341 0.0
C1425 C 0.3674 0.09175 0.59592 0.0
C1426 C 0.37974 0.09092 0.58936 0.0
C1427 C 0.3847 0.08048 0.57283 0.0
C1428 C 0.37741 0.07084 0.56244 0.0
C1429 C 0.36513 0.07165 0.56844 0.0
C1430 C 0.36012 0.08206 0.58499 0.0
C1431 C 0.34198 0.14447 0.52412 0.0
C1432 C 0.33265 0.13952 0.50002 0.0
C1433 C 0.34681 0.13829 0.55888 0.0
C1434 C 0.34235 0.12708 0.57036 0.0
C1435 C 0.33255 0.12243 0.54806 0.0
C1436 C 0.32767 0.12865 0.51325 0.0
C1437 C 0.34889 0.11979 0.60215 0.0
C1438 C 0.35363 0.10887 0.58841 0.0
C1439 C 0.35198 0.12432 0.64321 0.0
C1440 C 0.34659 0.13539 0.66059 0.0
C1441 C 0.33417 0.13686 0.66093 0.0
C1442 C 0.32913 0.14731 0.677 0.0
C1443 C 0.3364 0.15636 0.69302 0.0
C1444 C 0.34874 0.15495 0.69306 0.0
C1445 C 0.35383 0.14452 0.67701 0.0
H1446 H 0.33248 0.16444 0.70545 0.0
H1447 H 0.38127 0.06277 0.54963 0.0
H1448 H 0.82517 0.86453 -0.00367 0.0
H1449 H 0.83409 0.87549 0.05639 0.0
H1450 H 0.86082 0.84827 0.06984 0.0
H1451 H 0.85196 0.83724 0.01004 0.0
H1452 H 0.85312 0.85717 0.14871 0.0
H1453 H 0.86672 0.87182 0.00995 0.0
H1454 H 0.86389 0.88008 0.93691 0.0
H1455 H 0.84632 0.91055 0.99076 0.0
H1456 H 0.84891 0.90236 0.06413 0.0
H1457 H 0.90168 0.88517 0.2447 0.0
H1458 H 0.88929 0.87546 0.19051 0.0
H1459 H 0.86582 0.90575 0.18891 0.0
H1460 H 0.87822 0.91561 0.24312 0.0
H1461 H 0.86983 0.8964 0.1074 0.0
H1462 H 0.85794 0.88277 0.24682 0.0
H1463 H 0.86081 0.87459 0.31994 0.0
H1464 H 0.87486 0.84239 0.26582 0.0
H1465 H 0.87225 0.85046 0.19233 0.0
C1466 C 0.83279 0.86076 0.01269 0.0
C1467 C 0.83797 0.85011 -0.0018 0.0
C1468 C 0.83789 0.86705 0.04685 0.0
C1469 C 0.8482 0.86276 0.06693 0.0
C1470 C 0.85287 0.85173 0.05456 0.0
C1471 C 0.84782 0.84546 0.02034 0.0
C1472 C 0.85477 0.87019 0.09814 0.0
C1473 C 0.85682 0.86572 0.13971 0.0
C1474 C 0.85936 0.88145 0.08648 0.0
C1475 C 0.85788 0.88642 0.04244 0.0
C1476 C 0.86217 0.88023 0.00618 0.0
C1477 C 0.86063 0.88491 0.96473 0.0
C1478 C 0.8549 0.89582 0.95918 0.0
C1479 C 0.85074 0.90209 0.9951 0.0
C1480 C 0.85224 0.89744 0.03661 0.0
C1481 C 0.894 0.88987 0.23232 0.0
C1482 C 0.89085 0.90111 0.24845 0.0
C1483 C 0.8869 0.88427 0.20157 0.0
C1484 C 0.87653 0.8898 0.18655 0.0
C1485 C 0.87375 0.90133 0.20047 0.0
C1486 C 0.88085 0.90694 0.23135 0.0
C1487 C 0.86835 0.88328 0.15775 0.0
C1488 C 0.866 0.88792 0.11666 0.0
C1489 C 0.86347 0.87219 0.1699 0.0
C1490 C 0.865 0.86726 0.21405 0.0
C1491 C 0.86173 0.87398 0.2505 0.0
C1492 C 0.8633 0.86936 0.29202 0.0
C1493 C 0.86804 0.85799 0.29753 0.0
C1494 C 0.8712 0.8512 0.2615 0.0
C1495 C 0.86967 0.85579 0.2199 0.0
H1496 H 0.86924 0.85442 0.3297 0.0
H1497 H 0.85371 0.89942 0.92707 0.0
H1498 H 0.8549 0.15213 0.97103 0.0
H1499 H 0.86159 0.13962 0.91194 0.0
H1500 H 0.83168 0.11624 0.93174 0.0
H1501 H 0.82501 0.12869 0.99204 0.0
H1502 H 0.85183 0.10399 0.93013 0.0
H1503 H 0.83408 0.13233 0.83801 0.0
H1504 H 0.82874 0.15213 0.81007 0.0
H1505 H 0.86548 0.15946 0.7837 0.0
H1506 H 0.87107 0.13977 0.81206 0.0
H1507 H 0.87595 0.07365 0.7392 0.0
H1508 H 0.86315 0.08278 0.79397 0.0
H1509 H 0.88953 0.10992 0.81574 0.0
H1510 H 0.90236 0.1009 0.76144 0.0
H1511 H 0.86694 0.1184 0.78907 0.0
H1512 H 0.88427 0.09074 0.89209 0.0
H1513 H 0.88911 0.07076 0.91959 0.0
H1514 H 0.85201 0.06187 0.92269 0.0
H1515 H 0.84696 0.08176 0.89464 0.0
C1516 C 0.84957 0.14449 0.96225 0.0
C1517 C 0.83947 0.14135 0.98632 0.0
C1518 C 0.85338 0.13736 0.92826 0.0
C1519 C 0.84709 0.12702 0.91726 0.0
C1520 C 0.83664 0.12419 0.93972 0.0
C1521 C 0.83281 0.13135 0.97394 0.0
C1522 C 0.85227 0.11869 0.8854 0.0
C1523 C 0.85487 0.10704 0.89878 0.0
C1524 C 0.8563 0.1227 0.84468 0.0
C1525 C 0.853 0.13456 0.82735 0.0
C1526 C 0.84104 0.13819 0.82651 0.0
C1527 C 0.83796 0.14939 0.81055 0.0
C1528 C 0.84677 0.15705 0.79515 0.0
C1529 C 0.85866 0.15351 0.79561 0.0
C1530 C 0.86179 0.14232 0.81155 0.0
C1531 C 0.87918 0.08134 0.75665 0.0
C1532 C 0.89008 0.08667 0.74563 0.0
C1533 C 0.87184 0.08656 0.78778 0.0
C1534 C 0.87536 0.0971 0.80823 0.0
C1535 C 0.88664 0.10184 0.79984 0.0
C1536 C 0.89397 0.09664 0.76896 0.0
C1537 C 0.86692 0.10398 0.83478 0.0
C1538 C 0.86367 0.11531 0.82007 0.0
C1539 C 0.8622 0.09963 0.87393 0.0
C1540 C 0.86525 0.08768 0.89073 0.0
C1541 C 0.87715 0.08448 0.8982 0.0
C1542 C 0.87993 0.07318 0.914 0.0
C1543 C 0.87088 0.06503 0.92273 0.0
C1544 C 0.85902 0.06818 0.91582 0.0
C1545 C 0.85619 0.07947 0.9 0.0
H1546 H 0.87305 0.05629 0.93497 0.0
H1547 H 0.84437 0.16572 0.78282 0.0
H1548 H 0.61879 0.07543 0.75217 0.0
H1549 H 0.6318 0.0847 0.6982 0.0
H1550 H 0.60788 0.11455 0.68977 0.0
H1551 H 0.59495 0.10547 0.74361 0.0
H1552 H 0.62896 0.09326 0.61382 0.0
H1553 H 0.62396 0.13976 0.69273 0.0
H1554 H 0.62002 0.14833 0.76467 0.0
H1555 H 0.63443 0.11714 0.82494 0.0
H1556 H 0.63862 0.10847 0.75341 0.0
H1557 H 0.64404 0.15283 0.51404 0.0
H1558 H 0.63574 0.14145 0.57399 0.0
H1559 H 0.66401 0.11578 0.56183 0.0
H1560 H 0.67237 0.12711 0.50153 0.0
H1561 H 0.64366 0.13346 0.65287 0.0
H1562 H 0.65069 0.088 0.57302 0.0
H1563 H 0.65412 0.07942 0.5007 0.0
H1564 H 0.63526 0.10848 0.4426 0.0
H1565 H 0.63158 0.11713 0.51457 0.0
C1566 C 0.6162 0.08386 0.73813 0.0
C1567 C 0.60593 0.08981 0.75247 0.0
C1568 C 0.62364 0.08914 0.70743 0.0
C1569 C 0.62091 0.10042 0.69089 0.0
C1570 C 0.61025 0.10595 0.70291 0.0
C1571 C 0.60285 0.10072 0.73353 0.0
C1572 C 0.62942 0.10681 0.66288 0.0
C1573 C 0.63239 0.10194 0.62266 0.0
C1574 C 0.63378 0.11818 0.67443 0.0
C1575 C 0.63152 0.12343 0.71766 0.0
C1576 C 0.62635 0.13476 0.72133 0.0
C1577 C 0.62406 0.13963 0.76204 0.0
C1578 C 0.62694 0.13327 0.79935 0.0
C1579 C 0.63216 0.12204 0.79602 0.0
C1580 C 0.63449 0.11714 0.7554 0.0
C1581 C 0.64864 0.14489 0.52467 0.0
C1582 C 0.65878 0.14079 0.50284 0.0
C1583 C 0.6439 0.13842 0.55897 0.0
C1584 C 0.64916 0.12769 0.57179 0.0
C1585 C 0.65974 0.12397 0.55197 0.0
C1586 C 0.66454 0.13049 0.51773 0.0
C1587 C 0.64297 0.12004 0.60341 0.0
C1588 C 0.64043 0.12468 0.64437 0.0
C1589 C 0.63901 0.10847 0.59252 0.0
C1590 C 0.64101 0.10328 0.54911 0.0
C1591 C 0.64726 0.09254 0.54479 0.0
C1592 C 0.64924 0.08766 0.50388 0.0
C1593 C 0.64495 0.09343 0.46707 0.0
C1594 C 0.63862 0.10405 0.47111 0.0
C1595 C 0.6366 0.10895 0.51195 0.0
H1596 H 0.64651 0.08964 0.43542 0.0
H1597 H 0.62515 0.13705 0.83083 0.0
H1598 H 0.63936 0.83987 0.48721 0.0
H1599 H 0.63236 0.85126 0.42561 0.0
H1600 H 0.66339 0.8737 0.43297 0.0
H1601 H 0.67036 0.86244 0.49569 0.0
H1602 H 0.64392 0.88666 0.43409 0.0
H1603 H 0.65834 0.85594 0.34368 0.0
H1604 H 0.66192 0.83544 0.31879 0.0
H1605 H 0.62439 0.8301 0.30317 0.0
H1606 H 0.62056 0.8505 0.32855 0.0
H1607 H 0.61807 0.91691 0.24797 0.0
H1608 H 0.63128 0.90725 0.3002 0.0
H1609 H 0.60433 0.88091 0.32591 0.0
H1610 H 0.59116 0.89042 0.27387 0.0
H1611 H 0.62562 0.8712 0.29974 0.0
H1612 H 0.61157 0.90104 0.40097 0.0
H1613 H 0.60818 0.92154 0.42625 0.0
H1614 H 0.64564 0.92854 0.42001 0.0
H1615 H 0.64925 0.90811 0.39414 0.0
C1616 C 0.64488 0.84701 0.47505 0.0
C1617 C 0.65534 0.85034 0.49656 0.0
C1618 C 0.64089 0.8535 0.43961 0.0
C1619 C 0.64736 0.86333 0.42463 0.0
C1620 C 0.65826 0.86615 0.44411 0.0
C1621 C 0.66225 0.85968 0.47977 0.0
C1622 C 0.64193 0.87141 0.39249 0.0
C1623 C 0.64018 0.88335 0.40413 0.0
C1624 C 0.63692 0.86706 0.35373 0.0
C1625 C 0.63916 0.85476 0.33822 0.0
C1626 C 0.65084 0.85037 0.3352 0.0
C1627 C 0.65291 0.83877 0.32096 0.0
C1628 C 0.64339 0.83147 0.30945 0.0
C1629 C 0.63176 0.83576 0.31208 0.0
C1630 C 0.62964 0.84736 0.32631 0.0
C1631 C 0.61484 0.90927 0.26575 0.0
C1632 C 0.60364 0.90433 0.25657 0.0
C1633 C 0.62241 0.90374 0.29539 0.0
C1634 C 0.61881 0.89329 0.31633 0.0
C1635 C 0.6073 0.8889 0.3096 0.0
C1636 C 0.59977 0.89438 0.28005 0.0
C1637 C 0.62725 0.88624 0.34237 0.0
C1638 C 0.62958 0.87453 0.32931 0.0
C1639 C 0.63284 0.89083 0.37962 0.0
C1640 C 0.63066 0.9031 0.39509 0.0
C1641 C 0.61907 0.90699 0.40458 0.0
C1642 C 0.61711 0.91858 0.41911 0.0
C1643 C 0.62668 0.92635 0.42458 0.0
C1644 C 0.63824 0.92252 0.41566 0.0
C1645 C 0.64024 0.91093 0.40109 0.0
H1646 H 0.62515 0.93532 0.43585 0.0
H1647 H 0.64501 0.82248 0.29845 0.0
H1648 H 0.66917 0.63367 0.48323 0.0
H1649 H 0.66057 0.62233 0.42359 0.0
H1650 H 0.63174 0.64748 0.41519 0.0
H1651 H 0.6402 0.6588 0.47489 0.0
H1652 H 0.62429 0.62477 0.43181 0.0
H1653 H 0.65097 0.64452 0.33327 0.0
H1654 H 0.6705 0.65105 0.30613 0.0
H1655 H 0.68175 0.61471 0.29537 0.0
H1656 H 0.66233 0.60796 0.32304 0.0
H1657 H 0.59215 0.60732 0.24883 0.0
H1658 H 0.6039 0.61687 0.30497 0.0
H1659 H 0.63015 0.58904 0.29577 0.0
H1660 H 0.61844 0.57943 0.23886 0.0
H1661 H 0.64012 0.611 0.29095 0.0
H1662 H 0.61336 0.59107 0.38496 0.0
H1663 H 0.59401 0.5842 0.41268 0.0
H1664 H 0.58323 0.62034 0.43372 0.0
H1665 H 0.60246 0.62744 0.40555 0.0
C1666 C 0.66122 0.63701 0.46769 0.0
C1667 C 0.65524 0.64701 0.48415 0.0
C1668 C 0.65632 0.63051 0.43365 0.0
C1669 C 0.64545 0.634 0.4155 0.0
C1670 C 0.64008 0.6446 0.42917 0.0
C1671 C 0.64496 0.65108 0.46315 0.0
C1672 C 0.63884 0.62589 0.38673 0.0
C1673 C 0.62768 0.62188 0.40072 0.0
C1674 C 0.64356 0.62169 0.34728 0.0
C1675 C 0.65524 0.62574 0.3307 0.0
C1676 C 0.65765 0.63792 0.32552 0.0
C1677 C 0.66869 0.64166 0.30995 0.0
C1678 C 0.67738 0.6333 0.29916 0.0
C1679 C 0.67502 0.62118 0.30381 0.0
C1680 C 0.66399 0.61739 0.3194 0.0
C1681 C 0.60031 0.60309 0.25927 0.0
C1682 C 0.6044 0.59265 0.23939 0.0
C1683 C 0.607 0.60855 0.29144 0.0
C1684 C 0.61787 0.60364 0.30455 0.0
C1685 C 0.62178 0.59295 0.286 0.0
C1686 C 0.61504 0.58745 0.25378 0.0
C1687 C 0.62541 0.61019 0.33549 0.0
C1688 C 0.63678 0.61383 0.32217 0.0
C1689 C 0.62093 0.61401 0.3758 0.0
C1690 C 0.60934 0.60979 0.39284 0.0
C1691 C 0.60683 0.59756 0.39518 0.0
C1692 C 0.59589 0.59362 0.41104 0.0
C1693 C 0.58738 0.60183 0.42488 0.0
C1694 C 0.58982 0.61399 0.42297 0.0
C1695 C 0.60075 0.61797 0.40712 0.0
H1696 H 0.57892 0.59876 0.43715 0.0
H1697 H 0.68592 0.63622 0.28709 0.0
H1698 H 0.61653 0.41901 0.74822 0.0
H1699 H 0.63016 0.41027 0.6951 0.0
H1700 H 0.60603 0.38091 0.67717 0.0
H1701 H 0.59243 0.38951 0.72982 0.0
H1702 H 0.62905 0.37416 0.70144 0.0
H1703 H 0.6094 0.40061 0.59946 0.0
H1704 H 0.60317 0.42023 0.57218 0.0
H1705 H 0.6396 0.43145 0.56666 0.0
H1706 H 0.64604 0.41194 0.59447 0.0
H1707 H 0.64073 0.34138 0.5166 0.0
H1708 H 0.63405 0.35349 0.57693 0.0
H1709 H 0.66304 0.37789 0.55554 0.0
H1710 H 0.66975 0.36581 0.4943 0.0
H1711 H 0.64217 0.38934 0.55884 0.0
H1712 H 0.66209 0.36182 0.64836 0.0
H1713 H 0.66859 0.34226 0.67525 0.0
H1714 H 0.6325 0.33321 0.70591 0.0
H1715 H 0.62574 0.35265 0.67863 0.0
C1716 C 0.614 0.41086 0.73207 0.0
C1717 C 0.60348 0.40487 0.74348 0.0
C1718 C 0.6218 0.40587 0.70191 0.0
C1719 C 0.61913 0.39488 0.68282 0.0
C1720 C 0.60828 0.38934 0.69203 0.0
C1721 C 0.6005 0.3943 0.72195 0.0
C1722 C 0.62792 0.38857 0.65587 0.0
C1723 C 0.63191 0.37743 0.67016 0.0
C1724 C 0.63208 0.39316 0.6162 0.0
C1725 C 0.62819 0.40488 0.59959 0.0
C1726 C 0.61607 0.40731 0.59285 0.0
C1727 C 0.6125 0.4184 0.57719 0.0
C1728 C 0.62098 0.4271 0.56785 0.0
C1729 C 0.63305 0.42472 0.57402 0.0
C1730 C 0.63666 0.41364 0.5897 0.0
C1731 C 0.64586 0.34917 0.52528 0.0
C1732 C 0.65572 0.35269 0.5006 0.0
C1733 C 0.64206 0.35607 0.55995 0.0
C1734 C 0.64809 0.36657 0.57085 0.0
C1735 C 0.6583 0.3698 0.54764 0.0
C1736 C 0.66214 0.36286 0.51288 0.0
C1737 C 0.64286 0.37463 0.60346 0.0
C1738 C 0.63958 0.38614 0.59052 0.0
C1739 C 0.6394 0.37042 0.6446 0.0
C1740 C 0.64341 0.3587 0.66127 0.0
C1741 C 0.65552 0.35563 0.66058 0.0
C1742 C 0.65925 0.34457 0.67593 0.0
C1743 C 0.65096 0.33649 0.69224 0.0
C1744 C 0.63891 0.33948 0.6933 0.0
C1745 C 0.63513 0.35053 0.67797 0.0
H1746 H 0.65387 0.32793 0.7041 0.0
H1747 H 0.6182 0.43568 0.55571 0.0
H1748 H 0.87624 0.41684 0.73719 0.0
H1749 H 0.86261 0.40826 0.79062 0.0
H1750 H 0.88571 0.37789 0.80399 0.0
H1751 H 0.89923 0.38628 0.75065 0.0
H1752 H 0.86294 0.37146 0.78733 0.0
H1753 H 0.88366 0.39879 0.88263 0.0
H1754 H 0.89052 0.41855 0.9064 0.0
H1755 H 0.85438 0.43064 0.9138 0.0
H1756 H 0.84732 0.41098 0.88953 0.0
H1757 H 0.85109 0.34151 0.97919 0.0
H1758 H 0.85835 0.35285 0.91771 0.0
H1759 H 0.82942 0.37769 0.93242 0.0
H1760 H 0.82211 0.36635 0.9947 0.0
H1761 H 0.85088 0.3888 0.92795 0.0
H1762 H 0.83017 0.3602 0.84444 0.0
H1763 H 0.82347 0.34027 0.82214 0.0
H1764 H 0.85942 0.33044 0.79254 0.0
H1765 H 0.86638 0.35025 0.81524 0.0
C1766 C 0.87851 0.40844 0.75219 0.0
C1767 C 0.88876 0.40218 0.73957 0.0
C1768 C 0.87071 0.40356 0.78259 0.0
C1769 C 0.87312 0.3924 0.80091 0.0
C1770 C 0.88364 0.38645 0.78985 0.0
C1771 C 0.89138 0.39129 0.75952 0.0
C1772 C 0.86452 0.38651 0.82995 0.0
C1773 C 0.86033 0.37522 0.81819 0.0
C1774 C 0.86072 0.39166 0.86923 0.0
C1775 C 0.86497 0.40347 0.88372 0.0
C1776 C 0.87718 0.4057 0.88893 0.0
C1777 C 0.8811 0.41687 0.90258 0.0
C1778 C 0.87289 0.42586 0.91145 0.0
C1779 C 0.86073 0.42368 0.90682 0.0
C1780 C 0.85677 0.41252 0.89314 0.0
C1781 C 0.84613 0.34926 0.96892 0.0
C1782 C 0.83606 0.35307 0.99181 0.0
C1783 C 0.85026 0.35571 0.93362 0.0
C1784 C 0.84437 0.36607 0.92035 0.0
C1785 C 0.83406 0.36969 0.94215 0.0
C1786 C 0.82987 0.36318 0.9775 0.0
C1787 C 0.84973 0.37352 0.88613 0.0
C1788 C 0.85326 0.38513 0.89671 0.0
C1789 C 0.85294 0.36866 0.84569 0.0
C1790 C 0.8488 0.35672 0.83174 0.0
C1791 C 0.83666 0.35377 0.83344 0.0
C1792 C 0.83282 0.34249 0.82068 0.0
C1793 C 0.84101 0.33409 0.80597 0.0
C1794 C 0.85308 0.33696 0.80392 0.0
C1795 C 0.85698 0.34822 0.81665 0.0
H1796 H 0.83801 0.32537 0.79612 0.0
H1797 H 0.87595 0.4345 0.92204 0.0
H1798 H 0.87406 0.5727 0.2493 0.0
H1799 H 0.86051 0.58134 0.19571 0.0
H1800 H 0.88568 0.60946 0.17155 0.0
H1801 H 0.8992 0.60096 0.22459 0.0
H1802 H 0.86308 0.61738 0.19661 0.0
H1803 H 0.8812 0.58912 0.0973 0.0
H1804 H 0.88653 0.56901 0.07232 0.0
H1805 H 0.84965 0.55922 0.07024 0.0
H1806 H 0.84412 0.57925 0.09578 0.0
H1807 H 0.85148 0.64894 0.00894 0.0
H1808 H 0.85834 0.63694 0.06927 0.0
H1809 H 0.82827 0.61353 0.05384 0.0
H1810 H 0.82139 0.62549 0.99258 0.0
H1811 H 0.84874 0.6013 0.0569 0.0
H1812 H 0.83039 0.63057 0.14387 0.0
H1813 H 0.82488 0.65068 0.1683 0.0
H1814 H 0.86148 0.65847 0.19516 0.0
H1815 H 0.86725 0.63848 0.1703 0.0
C1816 C 0.87682 0.58054 0.23169 0.0
C1817 C 0.88762 0.58624 0.24142 0.0
C1818 C 0.86906 0.58548 0.20128 0.0
C1819 C 0.87207 0.59611 0.18029 0.0
C1820 C 0.88317 0.60132 0.18788 0.0
C1821 C 0.8909 0.59642 0.21806 0.0
C1822 C 0.86341 0.60247 0.15302 0.0
C1823 C 0.85995 0.6139 0.16596 0.0
C1824 C 0.85892 0.59765 0.11422 0.0
C1825 C 0.86226 0.58562 0.09902 0.0
C1826 C 0.87424 0.58264 0.09196 0.0
C1827 C 0.87729 0.57127 0.07759 0.0
C1828 C 0.86844 0.56283 0.06986 0.0
C1829 C 0.8565 0.56576 0.07635 0.0
C1830 C 0.8534 0.57712 0.09075 0.0
C1831 C 0.84618 0.64138 0.01884 0.0
C1832 C 0.83593 0.63812 -0.00406 0.0
C1833 C 0.85009 0.63455 0.05351 0.0
C1834 C 0.84376 0.62438 0.06621 0.0
C1835 C 0.83325 0.62136 0.04454 0.0
C1836 C 0.82931 0.62822 0.00975 0.0
C1837 C 0.84887 0.61647 0.09949 0.0
C1838 C 0.85161 0.60471 0.08797 0.0
C1839 C 0.85266 0.62096 0.13983 0.0
C1840 C 0.84925 0.63301 0.15504 0.0
C1841 C 0.83728 0.63659 0.15473 0.0
C1842 C 0.83411 0.64797 0.16869 0.0
C1843 C 0.84282 0.65585 0.18324 0.0
C1844 C 0.85473 0.65236 0.18391 0.0
C1845 C 0.85796 0.64099 0.16996 0.0
H1846 H 0.84035 0.66466 0.19402 0.0
H1847 H 0.87082 0.55403 0.05871 0.0
H1848 H 0.35334 0.33851 0.51088 0.0
H1849 H 0.3614 0.3502 0.57012 0.0
H1850 H 0.33049 0.37287 0.56743 0.0
H1851 H 0.32241 0.36128 0.50731 0.0
H1852 H 0.35049 0.38565 0.56416 0.0
H1853 H 0.33557 0.35494 0.65404 0.0
H1854 H 0.33171 0.33442 0.67807 0.0
H1855 H 0.36918 0.32842 0.69236 0.0
H1856 H 0.37328 0.34886 0.66783 0.0
H1857 H 0.37491 0.41499 0.75431 0.0
H1858 H 0.36236 0.40562 0.6993 0.0
H1859 H 0.38966 0.3795 0.67571 0.0
H1860 H 0.40216 0.3887 0.73059 0.0
H1861 H 0.36829 0.36961 0.69852 0.0
H1862 H 0.38291 0.39982 0.60049 0.0
H1863 H 0.38653 0.42038 0.57637 0.0
H1864 H 0.34904 0.42741 0.57895 0.0
H1865 H 0.34521 0.40692 0.60366 0.0
C1866 C 0.34811 0.34581 0.52348 0.0
C1867 C 0.33728 0.34902 0.5043 0.0
C1868 C 0.35272 0.35247 0.55748 0.0
C1869 C 0.34652 0.36239 0.57324 0.0
C1870 C 0.3354 0.36526 0.55564 0.0
C1871 C 0.33078 0.35858 0.52151 0.0
C1872 C 0.35225 0.37027 0.60525 0.0
C1873 C 0.35416 0.38222 0.59407 0.0
C1874 C 0.35715 0.36574 0.64389 0.0
C1875 C 0.35473 0.35343 0.65885 0.0
C1876 C 0.34299 0.34923 0.66202 0.0
C1877 C 0.34076 0.33761 0.67578 0.0
C1878 C 0.35019 0.33012 0.68668 0.0
C1879 C 0.36188 0.33424 0.68392 0.0
C1880 C 0.36416 0.34585 0.67015 0.0
C1881 C 0.37836 0.40746 0.73645 0.0
C1882 C 0.38944 0.40247 0.74704 0.0
C1883 C 0.37118 0.40211 0.70516 0.0
C1884 C 0.37505 0.39179 0.68397 0.0
C1885 C 0.38648 0.38739 0.69214 0.0
C1886 C 0.39362 0.39269 0.72336 0.0
C1887 C 0.36688 0.38482 0.65658 0.0
C1888 C 0.36447 0.37307 0.66891 0.0
C1889 C 0.36148 0.38956 0.61921 0.0
C1890 C 0.36379 0.40188 0.60444 0.0
C1891 C 0.37545 0.40578 0.59633 0.0
C1892 C 0.37753 0.41742 0.58245 0.0
C1893 C 0.36802 0.42521 0.57628 0.0
C1894 C 0.3564 0.42137 0.58384 0.0
C1895 C 0.35426 0.40975 0.59775 0.0
H1896 H 0.36966 0.43421 0.56551 0.0
H1897 H 0.34844 0.32113 0.69732 0.0
H1898 H 0.35044 0.654 0.47129 0.0
H1899 H 0.359 0.6431 0.41093 0.0
H1900 H 0.3324 0.61578 0.42561 0.0
H1901 H 0.32382 0.62663 0.48679 0.0
H1902 H 0.3545 0.60663 0.4245 0.0
H1903 H 0.33245 0.63328 0.33631 0.0
H1904 H 0.32478 0.65261 0.31139 0.0
H1905 H 0.36029 0.66421 0.28327 0.0
H1906 H 0.36821 0.64501 0.30859 0.0
H1907 H 0.37779 0.57704 0.23654 0.0
H1908 H 0.36519 0.5865 0.29093 0.0
H1909 H 0.38867 0.61679 0.29346 0.0
H1910 H 0.40124 0.60747 0.23882 0.0
H1911 H 0.3657 0.62325 0.28183 0.0
H1912 H 0.3877 0.59743 0.37706 0.0
H1913 H 0.39545 0.57821 0.4029 0.0
H1914 H 0.35984 0.56514 0.41781 0.0
H1915 H 0.35188 0.58424 0.3915 0.0
C1916 C 0.34625 0.6458 0.46117 0.0
C1917 C 0.3365 0.64113 0.48391 0.0
C1918 C 0.35112 0.6396 0.4265 0.0
C1919 C 0.34631 0.62865 0.4137 0.0
C1920 C 0.33623 0.62422 0.43503 0.0
C1921 C 0.33131 0.63045 0.46978 0.0
C1922 C 0.35255 0.62142 0.38085 0.0
C1923 C 0.35672 0.61014 0.39288 0.0
C1924 C 0.35565 0.62614 0.34006 0.0
C1925 C 0.35093 0.63771 0.32463 0.0
C1926 C 0.33864 0.63998 0.32511 0.0
C1927 C 0.33424 0.65091 0.31086 0.0
C1928 C 0.34204 0.65964 0.29582 0.0
C1929 C 0.35426 0.65744 0.29493 0.0
C1930 C 0.3587 0.64652 0.30916 0.0
C1931 C 0.38039 0.58562 0.24925 0.0
C1932 C 0.39048 0.59154 0.23328 0.0
C1933 C 0.37317 0.59101 0.2803 0.0
C1934 C 0.37599 0.60236 0.29604 0.0
C1935 C 0.38632 0.60806 0.28146 0.0
C1936 C 0.39352 0.60269 0.25044 0.0
C1937 C 0.36786 0.60861 0.32593 0.0
C1938 C 0.36333 0.61968 0.31323 0.0
C1939 C 0.36442 0.6037 0.36606 0.0
C1940 C 0.3692 0.59221 0.38183 0.0
C1941 C 0.38153 0.59042 0.38547 0.0
C1942 C 0.38596 0.57955 0.40029 0.0
C1943 C 0.37815 0.57044 0.41186 0.0
C1944 C 0.36588 0.57219 0.40876 0.0
C1945 C 0.36141 0.58304 0.39393 0.0
H1946 H 0.38159 0.56204 0.42333 0.0
H1947 H 0.33862 0.6681 0.28481 0.0
H1948 H 0.16786 0.6251 0.99381 0.0
H1949 H 0.15973 0.61134 0.04783 0.0
H1950 H 0.12961 0.63449 0.06591 0.0
H1951 H 0.1376 0.64822 0.01246 0.0
H1952 H 0.15117 0.61391 0.13721 0.0
H1953 H 0.10515 0.61714 0.05447 0.0
H1954 H 0.09694 0.62097 0.98192 0.0
H1955 H 0.12898 0.60773 0.92397 0.0
H1956 H 0.13729 0.60363 -0.00389 0.0
H1957 H 0.09068 0.59908 0.22848 0.0
H1958 H 0.10292 0.60654 0.16954 0.0
H1959 H 0.12867 0.57889 0.19319 0.0
H1960 H 0.11645 0.57139 0.25283 0.0
H1961 H 0.1118 0.59774 0.09485 0.0
H1962 H 0.15652 0.59212 0.18035 0.0
H1963 H 0.16461 0.58947 0.25384 0.0
H1964 H 0.135 0.60862 0.30682 0.0
H1965 H 0.12683 0.61151 0.23364 0.0
C1966 C 0.15966 0.62739 0.01012 0.0
C1967 C 0.15328 0.63766 -0.00146 0.0
C1968 C 0.15504 0.61952 0.04085 0.0
C1969 C 0.14399 0.62183 0.06 0.0
C1970 C 0.13808 0.6325 0.05086 0.0
C1971 C 0.14267 0.64034 0.02039 0.0
C1972 C 0.13801 0.61282 0.08696 0.0
C1973 C 0.1427 0.61012 0.12767 0.0
C1974 C 0.12693 0.608 0.07437 0.0
C1975 C 0.12187 0.61016 0.03076 0.0
C1976 C 0.11041 0.61497 0.02625 0.0
C1977 C 0.10574 0.6172 0.98519 0.0
C1978 C 0.11245 0.61462 0.94836 0.0
C1979 C 0.12381 0.60976 0.95252 0.0
C1980 C 0.12851 0.60749 0.99349 0.0
C1981 C 0.09884 0.59445 0.22072 0.0
C1982 C 0.10267 0.58473 0.24553 0.0
C1983 C 0.10582 0.5987 0.18693 0.0
C1984 C 0.11677 0.59337 0.17745 0.0
C1985 C 0.1203 0.58321 0.20041 0.0
C1986 C 0.11328 0.5789 0.23426 0.0
C1987 C 0.12475 0.59912 0.14578 0.0
C1988 C 0.12042 0.60123 0.10404 0.0
C1989 C 0.13613 0.60343 0.15754 0.0
C1990 C 0.141 0.60188 0.20163 0.0
C1991 C 0.15176 0.59578 0.20771 0.0
C1992 C 0.15636 0.59424 0.24929 0.0
C1993 C 0.1503 0.59883 0.28499 0.0
C1994 C 0.13966 0.60502 0.27917 0.0
C1995 C 0.13504 0.6066 0.23766 0.0
H1996 H 0.15387 0.59762 0.31715 0.0
H1997 H 0.10883 0.61637 0.91661 0.0
H1998 H 0.11811 0.41768 0.73739 0.0
H1999 H 0.13298 0.40987 0.78798 0.0
H2000 H 0.11182 0.37831 0.80574 0.0
H2001 H 0.09699 0.38597 0.75572 0.0
H2002 H 0.13177 0.40028 0.87667 0.0
H2003 H 0.13032 0.35507 0.78766 0.0
H2004 H 0.12624 0.34747 0.71443 0.0
H2005 H 0.13723 0.38078 0.65986 0.0
H2006 H 0.14157 0.3885 0.73267 0.0
H2007 H 0.14716 0.34079 0.96354 0.0
H2008 H 0.14077 0.3524 0.90136 0.0
H2009 H 0.16793 0.37845 0.92799 0.0
H2010 H 0.17434 0.36689 0.99074 0.0
H2011 H 0.14952 0.36222 0.8273 0.0
H2012 H 0.15401 0.40584 0.92002 0.0
H2013 H 0.15654 0.41306 0.99479 0.0
H2014 H 0.13781 0.38255 0.0428 0.0
H2015 H 0.13504 0.37526 0.96833 0.0
C2016 C 0.1165 0.40922 0.75296 0.0
C2017 C 0.10648 0.40235 0.74221 0.0
C2018 C 0.12501 0.40477 0.78168 0.0
C2019 C 0.12357 0.39343 0.79961 0.0
C2020 C 0.11314 0.387 0.79151 0.0
C2021 C 0.10466 0.39142 0.76305 0.0
C2022 C 0.1332 0.38776 0.82442 0.0
C2023 C 0.13593 0.39214 0.86552 0.0
C2024 C 0.13848 0.37708 0.80976 0.0
C2025 C 0.13621 0.37238 0.7657 0.0
C2026 C 0.13196 0.36074 0.76002 0.0
C2027 C 0.12958 0.35642 0.71858 0.0
C2028 C 0.13145 0.36364 0.68252 0.0
C2029 C 0.13575 0.3752 0.68782 0.0
C2030 C 0.13816 0.37955 0.72918 0.0
C2031 C 0.15201 0.34881 0.95546 0.0
C2032 C 0.16109 0.35306 0.98242 0.0
C2033 C 0.14837 0.35542 0.91982 0.0
C2034 C 0.15372 0.36639 0.91074 0.0
C2035 C 0.16359 0.37007 0.93494 0.0
C2036 C 0.16727 0.36343 0.97064 0.0
C2037 C 0.14782 0.37454 0.88013 0.0
C2038 C 0.14573 0.37059 0.8379 0.0
C2039 C 0.14305 0.38556 0.89389 0.0
C2040 C 0.14448 0.38994 0.93872 0.0
C2041 C 0.15042 0.4007 0.94657 0.0
C2042 C 0.15189 0.4048 0.98887 0.0
C2043 C 0.14739 0.39824 0.02353 0.0
C2044 C 0.14134 0.3876 0.01595 0.0
C2045 C 0.13982 0.38348 0.97371 0.0
H2046 H 0.14855 0.40142 0.05625 0.0
H2047 H 0.12958 0.36029 0.65048 0.0
H2048 H 0.16403 0.30151 0.07199 0.0
H2049 H 0.16551 0.28008 0.05829 0.0
H2050 H 0.15381 0.273 0.18847 0.0
H2051 H 0.15237 0.29419 0.20251 0.0
H2052 H 0.17384 0.26048 0.16645 0.0
H2053 H 0.13508 0.27011 0.10438 0.0
H2054 H 0.1219 0.28054 0.05328 0.0
H2055 H 0.14125 0.26578 0.94644 0.0
H2056 H 0.15465 0.25538 -0.00302 0.0
H2057 H 0.14969 0.20542 0.19946 0.0
H2058 H 0.15207 0.22653 0.18554 0.0
H2059 H 0.16466 0.21896 0.05687 0.0
H2060 H 0.16223 0.19758 0.07042 0.0
H2061 H 0.14847 0.23859 0.06228 0.0
H2062 H 0.18478 0.2259 0.1256 0.0
H2063 H 0.19745 0.21514 0.17744 0.0
H2064 H 0.1829 0.23563 0.28178 0.0
H2065 H 0.17 0.24639 0.23068 0.0
C2066 C 0.16173 0.29537 0.09761 0.0
C2067 C 0.15812 0.29956 0.1384 0.0
C2068 C 0.16257 0.28315 0.08968 0.0
C2069 C 0.15979 0.275 0.12243 0.0
C2070 C 0.15607 0.27917 0.16287 0.0
C2071 C 0.15521 0.29131 0.17077 0.0
C2072 C 0.16086 0.26205 0.11569 0.0
C2073 C 0.16832 0.25569 0.1436 0.0
C2074 C 0.15401 0.25587 0.08467 0.0
C2075 C 0.14595 0.26211 0.05442 0.0
C2076 C 0.13659 0.26918 0.06999 0.0
C2077 C 0.12906 0.27507 0.04114 0.0
C2078 C 0.13076 0.27386 -0.00336 0.0
C2079 C 0.13997 0.26673 0.98091 0.0
C2080 C 0.14752 0.26084 0.00964 0.0
C2081 C 0.15291 0.20818 0.16805 0.0
C2082 C 0.1559 0.1998 0.1362 0.0
C2083 C 0.15428 0.22026 0.1602 0.0
C2084 C 0.15873 0.22425 0.12049 0.0
C2085 C 0.16127 0.216 0.08782 0.0
C2086 C 0.1599 0.20382 0.09566 0.0
C2087 C 0.16099 0.23707 0.11457 0.0
C2088 C 0.15424 0.24339 0.08425 0.0
C2089 C 0.16852 0.24327 0.14335 0.0
C2090 C 0.17639 0.23693 0.17425 0.0
C2091 C 0.18423 0.22807 0.15963 0.0
C2092 C 0.19146 0.22197 0.18889 0.0
C2093 C 0.19097 0.2247 0.23288 0.0
C2094 C 0.18327 0.23354 0.24769 0.0
C2095 C 0.17601 0.23966 0.21857 0.0
H2096 H 0.19657 0.21996 0.25548 0.0
H2097 H 0.12493 0.27842 0.97435 0.0
H2098 H 0.95634 0.92226 0.43106 0.0
H2099 H 0.97663 0.92431 0.40562 0.0
H2100 H 0.96572 0.91452 0.2769 0.0
H2101 H 0.9451 0.91243 0.30232 0.0
H2102 H 0.98578 0.902 0.30741 0.0
H2103 H 0.97442 0.94185 0.28849 0.0
H2104 H 0.96438 0.96072 0.30595 0.0
H2105 H 0.9862 0.96469 0.41872 0.0
H2106 H 0.99624 0.94576 0.40244 0.0
H2107 H 0.05018 0.91101 0.30557 0.0
H2108 H 0.02967 0.91371 0.27977 0.0
H2109 H 0.01837 0.92154 0.40981 0.0
H2110 H 0.03857 0.91873 0.43577 0.0
H2111 H 0.00958 0.93764 0.34502 0.0
H2112 H 0.01462 0.89474 0.37447 0.0
H2113 H 0.02398 0.87529 0.3605 0.0
H2114 H 0.0137 0.87738 0.22715 0.0
H2115 H 0.0044 0.89692 0.24033 0.0
C2116 C 0.95818 0.92059 0.39725 0.0
C2117 C 0.94911 0.91715 0.36872 0.0
C2118 C 0.96979 0.92186 0.38268 0.0
C2119 C 0.97262 0.91974 0.33926 0.0
C2120 C 0.96364 0.9163 0.31045 0.0
C2121 C 0.95191 0.91512 0.32501 0.0
C2122 C 0.9852 0.92046 0.32589 0.0
C2123 C 0.99098 0.90991 0.31399 0.0
C2124 C 0.99194 0.9308 0.33443 0.0
C2125 C 0.98611 0.94235 0.34413 0.0
C2126 C 0.97706 0.94672 0.3171 0.0
C2127 C 0.97136 0.95743 0.32681 0.0
C2128 C 0.97465 0.9639 0.36341 0.0
C2129 C 0.98367 0.95968 0.39033 0.0
C2130 C 0.9894 0.94897 0.3808 0.0
C2131 C 0.0433 0.91334 0.32853 0.0
C2132 C 0.04596 0.91459 0.37273 0.0
C2133 C 0.03164 0.9149 0.31374 0.0
C2134 C 0.02259 0.9179 0.34292 0.0
C2135 C 0.02528 0.91933 0.38679 0.0
C2136 C 0.03681 0.91761 0.40161 0.0
C2137 C 0.01008 0.91903 0.32926 0.0
C2138 C 0.00435 0.92993 0.33615 0.0
C2139 C 0.0034 0.90905 0.31601 0.0
C2140 C 0.00898 0.89734 0.30821 0.0
C2141 C 0.01446 0.89109 0.3421 0.0
C2142 C 0.01973 0.88005 0.33436 0.0
C2143 C 0.01948 0.87512 0.29293 0.0
C2144 C 0.01392 0.88122 0.25919 0.0
C2145 C 0.00865 0.89228 0.26677 0.0
H2146 H 0.02356 0.86657 0.28699 0.0
H2147 H 0.97021 0.97218 0.37091 0.0
H2148 H 0.32897 0.79847 0.55448 0.0
H2149 H 0.32873 0.77817 0.52514 0.0
H2150 H 0.3495 0.76612 0.63375 0.0
H2151 H 0.34973 0.78615 0.6631 0.0
H2152 H 0.35677 0.75607 0.55582 0.0
H2153 H 0.31983 0.76431 0.63695 0.0
H2154 H 0.30106 0.77522 0.64806 0.0
H2155 H 0.28951 0.76547 0.52069 0.0
H2156 H 0.3083 0.75462 0.50873 0.0
H2157 H 0.34493 0.70433 0.66245 0.0
H2158 H 0.3466 0.72437 0.63371 0.0
H2159 H 0.32577 0.71431 0.52266 0.0
H2160 H 0.32416 0.69397 0.55117 0.0
H2161 H 0.31795 0.73536 0.56658 0.0
H2162 H 0.35273 0.72078 0.50081 0.0
H2163 H 0.37134 0.70937 0.4946 0.0
H2164 H 0.38713 0.73062 0.59443 0.0
H2165 H 0.36856 0.74205 0.60178 0.0
C2166 C 0.33361 0.7915 0.5717 0.0
C2167 C 0.33926 0.79385 0.61132 0.0
C2168 C 0.33347 0.77994 0.5549 0.0
C2169 C 0.33909 0.77068 0.57734 0.0
C2170 C 0.34517 0.77317 0.61581 0.0
C2171 C 0.3452 0.78461 0.63276 0.0
C2172 C 0.33789 0.75815 0.56392 0.0
C2173 C 0.34828 0.75151 0.55748 0.0
C2174 C 0.32676 0.75232 0.56449 0.0
C2175 C 0.3155 0.75882 0.57173 0.0
C2176 C 0.31332 0.76458 0.61122 0.0
C2177 C 0.30268 0.77074 0.61769 0.0
C2178 C 0.29411 0.77108 0.58504 0.0
C2179 C 0.29616 0.76523 0.5459 0.0
C2180 C 0.30681 0.75908 0.53925 0.0
C2181 C 0.34075 0.70632 0.63179 0.0
C2182 C 0.33437 0.69759 0.60914 0.0
C2183 C 0.3418 0.71775 0.61522 0.0
C2184 C 0.33643 0.72075 0.57582 0.0
C2185 C 0.33005 0.7121 0.55292 0.0
C2186 C 0.32915 0.70053 0.56924 0.0
C2187 C 0.33692 0.73323 0.56128 0.0
C2188 C 0.32639 0.73988 0.56253 0.0
C2189 C 0.34795 0.73907 0.55614 0.0
C2190 C 0.35922 0.73229 0.5518 0.0
C2191 C 0.36014 0.72299 0.52161 0.0
C2192 C 0.37069 0.71652 0.51788 0.0
C2193 C 0.38041 0.71927 0.54409 0.0
C2194 C 0.3796 0.72851 0.57408 0.0
C2195 C 0.36907 0.73501 0.57797 0.0
H2196 H 0.38857 0.71425 0.54116 0.0
H2197 H 0.28587 0.77584 0.5901 0.0
H2198 H 0.45657 0.10461 0.92012 0.0
H2199 H 0.47699 0.10528 0.89464 0.0
H2200 H 0.46707 0.08581 0.78018 0.0
H2201 H 0.44642 0.08506 0.80564 0.0
H2202 H 0.48635 0.07617 0.82151 0.0
H2203 H 0.4759 0.11382 0.76725 0.0
H2204 H 0.46659 0.13364 0.76661 0.0
H2205 H 0.48872 0.14454 0.87235 0.0
H2206 H 0.49805 0.12473 0.87412 0.0
H2207 H 0.55009 0.08056 0.80844 0.0
H2208 H 0.52971 0.08327 0.78179 0.0
H2209 H 0.52083 0.10255 0.89785 0.0
H2210 H 0.54097 0.0999 0.92451 0.0
H2211 H 0.51102 0.1127 0.82446 0.0
H2212 H 0.51562 0.07322 0.8914 0.0
H2213 H 0.52448 0.0532 0.89536 0.0
H2214 H 0.51297 0.04596 0.76576 0.0
H2215 H 0.50416 0.06601 0.76094 0.0
C2216 C 0.45866 0.10056 0.88931 0.0
C2217 C 0.44988 0.09474 0.865 0.0
C2218 C 0.47033 0.10105 0.87457 0.0
C2219 C 0.4735 0.09574 0.83522 0.0
C2220 C 0.46476 0.09005 0.81045 0.0
C2221 C 0.45299 0.08963 0.82505 0.0
C2222 C 0.48619 0.09531 0.82283 0.0
C2223 C 0.49173 0.08417 0.82061 0.0
C2224 C 0.49318 0.10575 0.82178 0.0
C2225 C 0.48768 0.11775 0.8208 0.0
C2226 C 0.47874 0.12041 0.79053 0.0
C2227 C 0.47347 0.13166 0.78995 0.0
C2228 C 0.47706 0.14034 0.81942 0.0
C2229 C 0.48596 0.13781 0.84949 0.0
C2230 C 0.49127 0.12658 0.85022 0.0
C2231 C 0.54381 0.08551 0.82792 0.0
C2232 C 0.54708 0.08991 0.86878 0.0
C2233 C 0.5322 0.08705 0.81266 0.0
C2234 C 0.52379 0.09308 0.83794 0.0
C2235 C 0.52721 0.09792 0.87775 0.0
C2236 C 0.53871 0.0963 0.89312 0.0
C2237 C 0.5111 0.09358 0.82572 0.0
C2238 C 0.50559 0.10474 0.82332 0.0
C2239 C 0.50413 0.08317 0.8226 0.0
C2240 C 0.50939 0.07114 0.82559 0.0
C2241 C 0.51507 0.06738 0.86365 0.0
C2242 C 0.52006 0.05603 0.86608 0.0
C2243 C 0.51933 0.04832 0.83077 0.0
C2244 C 0.51356 0.05195 0.79303 0.0
C2245 C 0.50857 0.0633 0.79043 0.0
H2246 H 0.5232 0.03954 0.83271 0.0
H2247 H 0.47296 0.14904 0.81893 0.0
H2248 H 0.14618 0.78761 0.83195 0.0
H2249 H 0.14436 0.76765 0.86137 0.0
H2250 H 0.16655 0.77742 0.96924 0.0
H2251 H 0.16834 0.79766 0.94 0.0
H2252 H 0.17375 0.75656 0.92545 0.0
H2253 H 0.1393 0.77114 0.99352 0.0
H2254 H 0.12066 0.78247 0.00091 0.0
H2255 H 0.10438 0.7609 0.90308 0.0
H2256 H 0.12296 0.74955 0.89455 0.0
H2257 H 0.16388 0.69367 0.94274 0.0
H2258 H 0.16379 0.71413 0.97043 0.0
H2259 H 0.14169 0.72493 0.86359 0.0
H2260 H 0.14172 0.70471 0.83593 0.0
H2261 H 0.13511 0.73571 0.94024 0.0
H2262 H 0.17143 0.72722 0.85664 0.0
H2263 H 0.19019 0.7164 0.84419 0.0
H2264 H 0.20277 0.72697 0.96938 0.0
H2265 H 0.184 0.73774 0.9827 0.0
C2266 C 0.15061 0.78558 0.86212 0.0
C2267 C 0.15745 0.79418 0.88356 0.0
C2268 C 0.14947 0.77419 0.87911 0.0
C2269 C 0.1552 0.77113 0.91775 0.0
C2270 C 0.16198 0.77969 0.9396 0.0
C2271 C 0.16299 0.7912 0.92286 0.0
C2272 C 0.15481 0.75863 0.93224 0.0
C2273 C 0.16535 0.75201 0.93034 0.0
C2274 C 0.14384 0.75275 0.93836 0.0
C2275 C 0.13256 0.75948 0.94342 0.0
C2276 C 0.13177 0.76885 0.9734 0.0
C2277 C 0.12121 0.77527 0.97781 0.0
C2278 C 0.11134 0.7724 0.95249 0.0
C2279 C 0.11202 0.76309 0.92273 0.0
C2280 C 0.12256 0.75664 0.91817 0.0
C2281 C 0.15885 0.70039 0.92562 0.0
C2282 C 0.15292 0.69763 0.88688 0.0
C2283 C 0.15881 0.71204 0.94148 0.0
C2284 C 0.15277 0.72102 0.91894 0.0
C2285 C 0.14636 0.71812 0.88158 0.0
C2286 C 0.14648 0.70657 0.86559 0.0
C2287 C 0.15394 0.73368 0.93083 0.0
C2288 C 0.14355 0.7403 0.93761 0.0
C2289 C 0.16503 0.73958 0.92894 0.0
C2290 C 0.17628 0.73312 0.9209 0.0
C2291 C 0.17817 0.72715 0.88162 0.0
C2292 C 0.1888 0.72104 0.87438 0.0
C2293 C 0.19765 0.72096 0.90604 0.0
C2294 C 0.19589 0.72701 0.94494 0.0
C2295 C 0.18526 0.73311 0.95236 0.0
H2296 H 0.20588 0.71623 0.90038 0.0
H2297 H 0.10317 0.77739 0.95595 0.0
H2298 H 0.45445 0.93494 0.09073 0.0
H2299 H 0.4752 0.93183 0.11086 0.0
H2300 H 0.46448 0.90544 0.20412 0.0
H2301 H 0.44358 0.90892 0.18528 0.0
H2302 H 0.48547 0.917 0.22833 0.0
H2303 H 0.46973 0.89621 0.10618 0.0
H2304 H 0.45887 0.89438 0.03734 0.0
H2305 H 0.48392 0.91772 0.97609 0.0
H2306 H 0.49482 0.91984 0.0448 0.0
H2307 H 0.54033 0.8875 0.10595 0.0
H2308 H 0.51934 0.88861 0.12543 0.0
H2309 H 0.52579 0.92165 0.1924 0.0
H2310 H 0.54692 0.92017 0.17503 0.0
H2311 H 0.50589 0.90396 0.09439 0.0
H2312 H 0.50324 0.92884 0.25981 0.0
H2313 H 0.51345 0.92872 0.33026 0.0
H2314 H 0.52478 0.89278 0.30857 0.0
H2315 H 0.51449 0.89262 0.2383 0.0
C2316 C 0.45651 0.92878 0.11658 0.0
C2317 C 0.44751 0.92202 0.13605 0.0
C2318 C 0.46833 0.92702 0.12807 0.0
C2319 C 0.47135 0.91819 0.15813 0.0
C2320 C 0.46231 0.91225 0.18072 0.0
C2321 C 0.4504 0.91423 0.16988 0.0
C2322 C 0.48375 0.91386 0.16006 0.0
C2323 C 0.49 0.91412 0.19923 0.0
C2324 C 0.48945 0.90966 0.12231 0.0
C2325 C 0.48304 0.90825 0.0807 0.0
C2326 C 0.47288 0.901 0.07808 0.0
C2327 C 0.46672 0.89991 0.03909 0.0
C2328 C 0.47069 0.90594 0.00238 0.0
C2329 C 0.48085 0.91306 0.00457 0.0
C2330 C 0.48703 0.9142 0.04351 0.0
C2331 C 0.53729 0.89482 0.12587 0.0
C2332 C 0.54516 0.90381 0.13868 0.0
C2333 C 0.52531 0.89545 0.137 0.0
C2334 C 0.52093 0.90525 0.1602 0.0
C2335 C 0.52894 0.9139 0.17516 0.0
C2336 C 0.54101 0.91309 0.16496 0.0
C2337 C 0.50792 0.90732 0.16263 0.0
C2338 C 0.50147 0.90667 0.12394 0.0
C2339 C 0.50204 0.91078 0.20112 0.0
C2340 C 0.50816 0.91076 0.24357 0.0
C2341 C 0.50786 0.92089 0.27015 0.0
C2342 C 0.51367 0.92088 0.31004 0.0
C2343 C 0.51979 0.91076 0.32383 0.0
C2344 C 0.52007 0.90062 0.29779 0.0
C2345 C 0.51427 0.90059 0.25788 0.0
H2346 H 0.52429 0.91077 0.35471 0.0
H2347 H 0.4659 0.90509 0.97223 0.0
H2348 H 0.33364 0.2005 0.2877 0.0
H2349 H 0.33513 0.22135 0.30715 0.0
H2350 H 0.32847 0.21268 0.44067 0.0
H2351 H 0.32687 0.19156 0.4214 0.0
H2352 H 0.31566 0.23264 0.41094 0.0
H2353 H 0.35576 0.21965 0.41579 0.0
H2354 H 0.37363 0.20901 0.39082 0.0
H2355 H 0.3746 0.23051 0.27634 0.0
H2356 H 0.35663 0.24117 0.30027 0.0
H2357 H 0.32861 0.29586 0.42597 0.0
H2358 H 0.3295 0.27457 0.44317 0.0
H2359 H 0.33676 0.26673 0.30935 0.0
H2360 H 0.33598 0.28774 0.29199 0.0
H2361 H 0.35155 0.25476 0.36387 0.0
H2362 H 0.30903 0.26374 0.3513 0.0
H2363 H 0.29068 0.27405 0.37361 0.0
H2364 H 0.29435 0.25999 0.50185 0.0
H2365 H 0.31281 0.24971 0.48035 0.0
C2366 C 0.33248 0.20296 0.32126 0.0
C2367 C 0.33022 0.19433 0.35305 0.0
C2368 C 0.33338 0.21489 0.33234 0.0
C2369 C 0.33213 0.2185 0.37544 0.0
C2370 C 0.32956 0.21002 0.40727 0.0
C2371 C 0.32866 0.19799 0.39619 0.0
C2372 C 0.3335 0.23122 0.38617 0.0
C2373 C 0.32362 0.23748 0.40184 0.0
C2374 C 0.34389 0.23748 0.37422 0.0
C2375 C 0.35482 0.2312 0.35986 0.0
C2376 C 0.35975 0.22208 0.38519 0.0
C2377 C 0.3699 0.21604 0.37122 0.0
C2378 C 0.37525 0.21908 0.33202 0.0
C2379 C 0.37046 0.22818 0.30673 0.0
C2380 C 0.3603 0.23424 0.32054 0.0
C2381 C 0.33042 0.28958 0.40029 0.0
C2382 C 0.33221 0.2935 0.35759 0.0
C2383 C 0.33091 0.27745 0.41018 0.0
C2384 C 0.3332 0.26911 0.37751 0.0
C2385 C 0.33506 0.27303 0.33508 0.0
C2386 C 0.33455 0.28507 0.32519 0.0
C2387 C 0.3335 0.25621 0.38626 0.0
C2388 C 0.34374 0.24991 0.37441 0.0
C2389 C 0.32345 0.24995 0.40163 0.0
C2390 C 0.31236 0.2561 0.4144 0.0
C2391 C 0.30597 0.26293 0.38434 0.0
C2392 C 0.29554 0.26875 0.39681 0.0
C2393 C 0.29137 0.26771 0.43917 0.0
C2394 C 0.2976 0.26081 0.46909 0.0
C2395 C 0.30804 0.25499 0.45678 0.0
H2396 H 0.2833 0.27222 0.44876 0.0
H2397 H 0.38311 0.21439 0.32124 0.0
H2398 H 0.94376 0.07964 0.67746 0.0
H2399 H 0.96464 0.0768 0.69841 0.0
H2400 H 0.97469 0.07592 0.56398 0.0
H2401 H 0.95409 0.07881 0.5429 0.0
H2402 H 0.98546 0.05802 0.6137 0.0
H2403 H 0.97721 0.10103 0.61888 0.0
H2404 H 0.96677 0.11857 0.64802 0.0
H2405 H 0.97871 0.10983 0.77585 0.0
H2406 H 0.9891 0.09215 0.74744 0.0
H2407 H 0.03809 0.08106 0.54368 0.0
H2408 H 0.01762 0.0776 0.56528 0.0
H2409 H 0.02797 0.07785 0.69936 0.0
H2410 H 0.04874 0.08128 0.67795 0.0
H2411 H 0.00722 0.09209 0.6778 0.0
H2412 H 0.02077 0.05258 0.66556 0.0
H2413 H 0.03185 0.03585 0.63372 0.0
H2414 H 0.01033 0.03778 0.51946 0.0
H2415 H -0.00076 0.05467 0.55027 0.0
C2416 C 0.95044 0.07878 0.65246 0.0
C2417 C 0.9473 0.07953 0.60853 0.0
C2418 C 0.96232 0.07715 0.66448 0.0
C2419 C 0.97115 0.07612 0.63269 0.0
C2420 C 0.96798 0.07661 0.58897 0.0
C2421 C 0.9562 0.07836 0.577 0.0
C2422 C 0.98387 0.07519 0.64383 0.0
C2423 C 0.99024 0.06538 0.62821 0.0
C2424 C 0.99001 0.08461 0.66423 0.0
C2425 C 0.98377 0.0952 0.68118 0.0
C2426 C 0.97751 0.1028 0.65325 0.0
C2427 C 0.97163 0.11277 0.66961 0.0
C2428 C 0.97204 0.11529 0.71379 0.0
C2429 C 0.97837 0.10785 0.74167 0.0
C2430 C 0.98425 0.09786 0.72546 0.0
C2431 C 0.03608 0.08041 0.57781 0.0
C2432 C 0.04505 0.08143 0.60911 0.0
C2433 C 0.02437 0.07836 0.59007 0.0
C2434 C 0.02136 0.07731 0.63384 0.0
C2435 C 0.03019 0.07855 0.66542 0.0
C2436 C 0.04201 0.08049 0.65311 0.0
C2437 C 0.00882 0.07522 0.64541 0.0
C2438 C 0.00247 0.08445 0.6652 0.0
C2439 C 0.00269 0.06525 0.62889 0.0
C2440 C 0.00917 0.05493 0.6103 0.0
C2441 C 0.01843 0.04948 0.63356 0.0
C2442 C 0.02471 0.03997 0.61568 0.0
C2443 C 0.0218 0.03575 0.57458 0.0
C2444 C 0.01257 0.04104 0.55132 0.0
C2445 C 0.00626 0.05058 0.56903 0.0
H2446 H 0.02669 0.02839 0.56077 0.0
H2447 H 0.96748 0.12302 0.7264 0.0
H2448 H 0.84167 0.70368 0.81004 0.0
H2449 H 0.84246 0.72402 0.83567 0.0
H2450 H 0.82894 0.71302 0.95978 0.0
H2451 H 0.82802 0.69237 0.93407 0.0
H2452 H 0.81713 0.73254 0.92668 0.0
H2453 H 0.8569 0.72255 0.95655 0.0
H2454 H 0.87655 0.71344 0.94476 0.0
H2455 H 0.88205 0.73561 0.83372 0.0
H2456 H 0.86237 0.74474 0.84438 0.0
H2457 H 0.82498 0.79743 0.93318 0.0
H2458 H 0.82695 0.77681 0.95871 0.0
H2459 H 0.83769 0.76592 0.83097 0.0
H2460 H 0.83565 0.7862 0.80525 0.0
H2461 H 0.85265 0.7576 0.89994 0.0
H2462 H 0.81028 0.76161 0.85951 0.0
H2463 H 0.79036 0.77037 0.86926 0.0
H2464 H 0.79019 0.75929 0.00198 0.0
H2465 H 0.81018 0.75059 0.99306 0.0
C2466 C 0.83893 0.7055 0.84292 0.0
C2467 C 0.83477 0.69639 0.86999 0.0
C2468 C 0.83948 0.71715 0.85767 0.0
C2469 C 0.83595 0.71999 0.89987 0.0
C2470 C 0.83181 0.71096 0.92724 0.0
C2471 C 0.8313 0.6992 0.9125 0.0
C2472 C 0.83593 0.7326 0.91323 0.0
C2473 C 0.82498 0.73801 0.92238 0.0
C2474 C 0.84618 0.73971 0.90785 0.0
C2475 C 0.85813 0.73435 0.90137 0.0
C2476 C 0.86227 0.72546 0.9295 0.0
C2477 C 0.87342 0.72028 0.92301 0.0
C2478 C 0.88055 0.72395 0.88853 0.0
C2479 C 0.87653 0.7328 0.86048 0.0
C2480 C 0.86539 0.738 0.86681 0.0
C2481 C 0.82774 0.79061 0.91062 0.0
C2482 C 0.83014 0.79344 0.86717 0.0
C2483 C 0.82887 0.77889 0.92527 0.0
C2484 C 0.83256 0.76993 0.89673 0.0
C2485 C 0.83494 0.77276 0.85353 0.0
C2486 C 0.83368 0.78435 0.83883 0.0
C2487 C 0.83375 0.75744 0.91037 0.0
C2488 C 0.84494 0.75209 0.90638 0.0
C2489 C 0.82375 0.7504 0.92061 0.0
C2490 C 0.81176 0.75561 0.92581 0.0
C2491 C 0.80603 0.76115 0.89086 0.0
C2492 C 0.79472 0.76608 0.8962 0.0
C2493 C 0.78903 0.76543 0.93626 0.0
C2494 C 0.79462 0.75982 0.97101 0.0
C2495 C 0.80593 0.75488 0.96583 0.0
H2496 H 0.78027 0.76925 0.94034 0.0
H2497 H 0.88917 0.71992 0.88355 0.0
H2498 H 0.66629 0.19396 0.42667 0.0
H2499 H 0.66625 0.21523 0.44458 0.0
H2500 H 0.65677 0.22355 0.31303 0.0
H2501 H 0.65686 0.20257 0.29485 0.0
H2502 H 0.67528 0.23687 0.34128 0.0
H2503 H 0.63633 0.22414 0.39321 0.0
H2504 H 0.62295 0.21232 0.43944 0.0
H2505 H 0.63952 0.22677 0.5528 0.0
H2506 H 0.6531 0.23856 0.50715 0.0
H2507 H 0.64539 0.28877 0.30883 0.0
H2508 H 0.64807 0.26791 0.32677 0.0
H2509 H 0.665 0.2776 0.44655 0.0
H2510 H 0.66244 0.29873 0.42877 0.0
H2511 H 0.64685 0.2558 0.44275 0.0
H2512 H 0.68369 0.27134 0.38669 0.0
H2513 H 0.69547 0.28375 0.33688 0.0
H2514 H 0.68199 0.26403 0.22876 0.0
H2515 H 0.66998 0.25163 0.27787 0.0
C2516 C 0.66415 0.20034 0.40167 0.0
C2517 C 0.66163 0.19657 0.35928 0.0
C2518 C 0.66412 0.21246 0.41198 0.0
C2519 C 0.66156 0.22093 0.38005 0.0
C2520 C 0.65888 0.21715 0.33804 0.0
C2521 C 0.6589 0.20513 0.32776 0.0
C2522 C 0.66174 0.23383 0.38924 0.0
C2523 C 0.66915 0.241 0.36381 0.0
C2524 C 0.65398 0.23919 0.4195 0.0
C2525 C 0.64583 0.23209 0.44682 0.0
C2526 C 0.63719 0.2247 0.42799 0.0
C2527 C 0.62955 0.21803 0.45408 0.0
C2528 C 0.63041 0.21876 0.49903 0.0
C2529 C 0.63889 0.22619 0.51798 0.0
C2530 C 0.64655 0.23287 0.49202 0.0
C2531 C 0.64952 0.28654 0.33936 0.0
C2532 C 0.65387 0.29543 0.36708 0.0
C2533 C 0.651 0.2746 0.34959 0.0
C2534 C 0.65681 0.2713 0.38772 0.0
C2535 C 0.66048 0.28005 0.417 0.0
C2536 C 0.65904 0.29209 0.40668 0.0
C2537 C 0.66006 0.25872 0.39361 0.0
C2538 C 0.65331 0.25164 0.4216 0.0
C2539 C 0.66841 0.25339 0.36558 0.0
C2540 C 0.67589 0.2606 0.33598 0.0
C2541 C 0.68319 0.2697 0.35228 0.0
C2542 C 0.68991 0.27672 0.32417 0.0
C2543 C 0.68946 0.2747 0.27968 0.0
C2544 C 0.68233 0.26559 0.26323 0.0
C2545 C 0.67558 0.25855 0.2912 0.0
H2546 H 0.69463 0.28017 0.25793 0.0
H2547 H 0.62449 0.21359 0.51918 0.0
H2548 H 0.83003 0.29894 0.05717 0.0
H2549 H 0.83243 0.27842 0.03172 0.0
H2550 H 0.85245 0.27002 0.14651 0.0
H2551 H 0.85014 0.29033 0.17198 0.0
H2552 H 0.86193 0.2596 0.07338 0.0
H2553 H 0.82306 0.265 0.14321 0.0
H2554 H 0.80319 0.27414 0.14897 0.0
H2555 H 0.79475 0.26229 0.02074 0.0
H2556 H 0.81464 0.2532 0.01411 0.0
H2557 H 0.85346 0.20505 0.1689 0.0
H2558 H 0.85437 0.22551 0.14398 0.0
H2559 H 0.83413 0.21618 0.03062 0.0
H2560 H 0.83314 0.1955 0.05552 0.0
H2561 H 0.82502 0.23548 0.07341 0.0
H2562 H 0.86227 0.22449 0.0163 0.0
H2563 H 0.88194 0.21488 0.01439 0.0
H2564 H 0.89365 0.23681 0.11957 0.0
H2565 H 0.87399 0.24643 0.12261 0.0
C2566 C 0.83508 0.29275 0.07663 0.0
C2567 C 0.83978 0.29621 0.11682 0.0
C2568 C 0.83644 0.28105 0.06204 0.0
C2569 C 0.84257 0.27273 0.08736 0.0
C2570 C 0.84773 0.27633 0.12641 0.0
C2571 C 0.84631 0.28793 0.1411 0.0
C2572 C 0.84283 0.25997 0.076 0.0
C2573 C 0.85389 0.25429 0.07295 0.0
C2574 C 0.83229 0.25315 0.07389 0.0
C2575 C 0.82037 0.25859 0.07794 0.0
C2576 C 0.81699 0.26444 0.11614 0.0
C2577 C 0.80573 0.26959 0.11958 0.0
C2578 C 0.79773 0.26883 0.08518 0.0
C2579 C 0.80097 0.2629 0.04731 0.0
C2580 C 0.81223 0.25775 0.04369 0.0
C2581 C 0.84928 0.20728 0.13844 0.0
C2582 C 0.84317 0.19866 0.1143 0.0
C2583 C 0.84991 0.21897 0.12402 0.0
C2584 C 0.84446 0.22232 0.08515 0.0
C2585 C 0.83848 0.21373 0.06052 0.0
C2586 C 0.83793 0.20195 0.0748 0.0
C2587 C 0.84417 0.23503 0.07318 0.0
C2588 C 0.8331 0.24074 0.07188 0.0
C2589 C 0.85471 0.24187 0.07145 0.0
C2590 C 0.86662 0.23618 0.06968 0.0
C2591 C 0.86901 0.22722 0.03919 0.0
C2592 C 0.88017 0.22178 0.03789 0.0
C2593 C 0.88904 0.22524 0.06684 0.0
C2594 C 0.88677 0.23416 0.09712 0.0
C2595 C 0.87563 0.23963 0.09857 0.0
H2596 H 0.89767 0.221 0.06579 0.0
H2597 H 0.78901 0.27282 0.0879 0.0
H2598 H 0.6588 0.69698 0.58365 0.0
H2599 H 0.65817 0.71857 0.5737 0.0
H2600 H 0.65054 0.72308 0.7093 0.0
H2601 H 0.65095 0.70166 0.7194 0.0
H2602 H 0.63639 0.73667 0.66094 0.0
H2603 H 0.67856 0.72739 0.66745 0.0
H2604 H 0.69687 0.7174 0.64297 0.0
H2605 H 0.69311 0.7333 0.51764 0.0
H2606 H 0.67468 0.74327 0.54127 0.0
H2607 H 0.65273 0.79325 0.72616 0.0
H2608 H 0.65195 0.77198 0.7128 0.0
H2609 H 0.65822 0.77797 0.5771 0.0
H2610 H 0.65917 0.79944 0.59022 0.0
H2611 H 0.6715 0.75934 0.60978 0.0
H2612 H 0.63082 0.77116 0.60861 0.0
H2613 H 0.6129 0.78141 0.63524 0.0
H2614 H 0.61396 0.76081 0.75189 0.0
H2615 H 0.63199 0.75055 0.72626 0.0
C2616 C 0.65697 0.70258 0.61131 0.0
C2617 C 0.65493 0.69759 0.65233 0.0
C2618 C 0.65665 0.7149 0.60557 0.0
C2619 C 0.65438 0.72241 0.64082 0.0
C2620 C 0.65226 0.71744 0.68163 0.0
C2621 C 0.65254 0.70517 0.68736 0.0
C2622 C 0.65421 0.73548 0.63596 0.0
C2623 C 0.64408 0.74164 0.64986 0.0
C2624 C 0.66409 0.74192 0.62005 0.0
C2625 C 0.67517 0.73595 0.60594 0.0
C2626 C 0.68159 0.72867 0.63456 0.0
C2627 C 0.69199 0.72303 0.62087 0.0
C2628 C 0.69613 0.72468 0.57873 0.0
C2629 C 0.68988 0.73201 0.55024 0.0
C2630 C 0.67946 0.73766 0.56377 0.0
C2631 C 0.65395 0.7901 0.6934 0.0
C2632 C 0.65592 0.79807 0.65918 0.0
C2633 C 0.65346 0.77792 0.68582 0.0
C2634 C 0.65481 0.77344 0.64386 0.0
C2635 C 0.65708 0.78129 0.60967 0.0
C2636 C 0.65759 0.79354 0.61724 0.0
C2637 C 0.65385 0.7605 0.63641 0.0
C2638 C 0.66373 0.75438 0.62003 0.0
C2639 C 0.64374 0.75407 0.65019 0.0
C2640 C 0.6328 0.76012 0.66555 0.0
C2641 C 0.62727 0.76886 0.64005 0.0
C2642 C 0.61709 0.77467 0.65496 0.0
C2643 C 0.6123 0.77177 0.69525 0.0
C2644 C 0.61768 0.76304 0.72068 0.0
C2645 C 0.62787 0.75721 0.70594 0.0
H2646 H 0.60442 0.77629 0.70674 0.0
H2647 H 0.70419 0.72031 0.56819 0.0
H2648 H 0.53821 0.39225 0.91113 0.0
H2649 H 0.51788 0.39113 0.88495 0.0
H2650 H 0.52657 0.41484 0.78012 0.0
H2651 H 0.54717 0.41596 0.80622 0.0
H2652 H 0.5068 0.42192 0.82752 0.0
H2653 H 0.51902 0.38762 0.75313 0.0
H2654 H 0.52944 0.36864 0.74102 0.0
H2655 H 0.50867 0.35219 0.84077 0.0
H2656 H 0.49824 0.3711 0.854 0.0
H2657 H 0.44336 0.41388 0.81291 0.0
H2658 H 0.46384 0.41358 0.78561 0.0
H2659 H 0.47421 0.39112 0.89201 0.0
H2660 H 0.45393 0.39142 0.9195 0.0
H2661 H 0.48427 0.38424 0.8127 0.0
H2662 H 0.4778 0.42018 0.90013 0.0
H2663 H 0.46784 0.43925 0.91548 0.0
H2664 H 0.4782 0.45245 0.7909 0.0
H2665 H 0.48811 0.43338 0.77466 0.0
C2666 C 0.53587 0.39713 0.8822 0.0
C2667 C 0.54426 0.40425 0.86086 0.0
C2668 C 0.52426 0.39639 0.86703 0.0
C2669 C 0.52077 0.40279 0.8303 0.0
C2670 C 0.52915 0.40976 0.8083 0.0
C2671 C 0.54088 0.41038 0.82322 0.0
C2672 C 0.50805 0.40297 0.81847 0.0
C2673 C 0.50188 0.41374 0.82267 0.0
C2674 C 0.50166 0.39228 0.81238 0.0
C2675 C 0.50784 0.38081 0.80456 0.0
C2676 C 0.51671 0.37998 0.77267 0.0
C2677 C 0.52262 0.36922 0.76558 0.0
C2678 C 0.51971 0.35922 0.7901 0.0
C2679 C 0.51089 0.35994 0.82174 0.0
C2680 C 0.50496 0.37067 0.82898 0.0
C2681 C 0.44999 0.40878 0.83016 0.0
C2682 C 0.44708 0.40276 0.86859 0.0
C2683 C 0.46166 0.40861 0.8145 0.0
C2684 C 0.47049 0.40233 0.83685 0.0
C2685 C 0.46748 0.39596 0.87418 0.0
C2686 C 0.45591 0.39622 0.89005 0.0
C2687 C 0.48312 0.40306 0.82419 0.0
C2688 C 0.48923 0.39247 0.81545 0.0
C2689 C 0.48946 0.41389 0.82614 0.0
C2690 C 0.48353 0.42533 0.83595 0.0
C2691 C 0.47786 0.42712 0.87589 0.0
C2692 C 0.47224 0.43793 0.88478 0.0
C2693 C 0.47234 0.44704 0.85411 0.0
C2694 C 0.4781 0.44537 0.81456 0.0
C2695 C 0.48371 0.43457 0.8055 0.0
H2696 H 0.468 0.4554 0.86105 0.0
H2697 H 0.5243 0.3509 0.78458 0.0
H2698 H 0.95433 0.6013 0.38717 0.0
H2699 H 0.97451 0.60041 0.35888 0.0
H2700 H 0.96407 0.57277 0.27013 0.0
H2701 H 0.94369 0.5737 0.29811 0.0
H2702 H 0.98245 0.56632 0.32325 0.0
H2703 H 0.97439 0.59753 0.22702 0.0
H2704 H 0.96621 0.61664 0.20201 0.0
H2705 H 0.98856 0.63533 0.29152 0.0
H2706 H -0.00325 0.61633 0.3176 0.0
H2707 H 0.04923 0.58365 0.29606 0.0
H2708 H 0.02903 0.58345 0.26581 0.0
H2709 H 0.0145 0.5812 0.39443 0.0
H2710 H 0.03443 0.58154 0.42481 0.0
H2711 H 0.00924 0.59992 0.28734 0.0
H2712 H 0.99354 0.55976 0.39052 0.0
H2713 H 0.00172 0.54086 0.4176 0.0
H2714 H 0.0266 0.53998 0.31249 0.0
H2715 H 0.01844 0.55877 0.28433 0.0
C2716 C 0.95626 0.59521 0.36098 0.0
C2717 C 0.94749 0.58748 0.34515 0.0
C2718 C 0.96777 0.59479 0.34453 0.0
C2719 C 0.97075 0.58658 0.31219 0.0
C2720 C 0.96189 0.57923 0.29483 0.0
C2721 C 0.95029 0.57977 0.31087 0.0
C2722 C 0.98343 0.58454 0.30229 0.0
C2723 C 0.98831 0.57357 0.31435 0.0
C2724 C 0.99102 0.59395 0.28988 0.0
C2725 C 0.98619 0.60547 0.27428 0.0
C2726 C 0.97752 0.6057 0.24156 0.0
C2727 C 0.97289 0.61653 0.22717 0.0
C2728 C 0.97687 0.62719 0.24516 0.0
C2729 C 0.9855 0.62706 0.27756 0.0
C2730 C 0.99017 0.61626 0.29209 0.0
C2731 C 0.04171 0.58312 0.31781 0.0
C2732 C 0.04341 0.58262 0.36282 0.0
C2733 C 0.03022 0.58303 0.30048 0.0
C2734 C 0.02036 0.58218 0.32796 0.0
C2735 C 0.02205 0.58173 0.37276 0.0
C2736 C 0.03345 0.58198 0.39005 0.0
C2737 C 0.00812 0.58198 0.31098 0.0
C2738 C 0.00336 0.59253 0.29428 0.0
C2739 C 0.0006 0.57218 0.31909 0.0
C2740 C 0.00537 0.56071 0.33534 0.0
C2741 C 0.00068 0.55549 0.37294 0.0
C2742 C 0.00533 0.5448 0.38855 0.0
C2743 C 0.01468 0.53923 0.36681 0.0
C2744 C 0.01937 0.54432 0.32935 0.0
C2745 C 0.01474 0.555 0.31357 0.0
H2746 H 0.01828 0.53097 0.37898 0.0
H2747 H 0.97326 0.63556 0.23398 0.0
H2748 H 0.95559 0.3891 0.58817 0.0
H2749 H 0.97551 0.38745 0.61802 0.0
H2750 H 0.96605 0.41154 0.72086 0.0
H2751 H 0.94589 0.4132 0.69101 0.0
H2752 H 0.98619 0.41836 0.67638 0.0
H2753 H 0.97326 0.38404 0.74915 0.0
H2754 H 0.96272 0.36507 0.75982 0.0
H2755 H 0.98434 0.34865 0.6624 0.0
H2756 H 0.99491 0.36755 0.6506 0.0
H2757 H 0.04937 0.41103 0.69131 0.0
H2758 H 0.02906 0.41016 0.72011 0.0
H2759 H 0.01878 0.38727 0.61477 0.0
H2760 H 0.03888 0.38811 0.58589 0.0
H2761 H 0.00853 0.38064 0.69328 0.0
H2762 H 0.01527 0.41654 0.60553 0.0
H2763 H 0.02535 0.43556 0.59038 0.0
H2764 H 0.01489 0.44881 0.71479 0.0
H2765 H 0.00486 0.42979 0.73083 0.0
C2766 C 0.95766 0.39391 0.61754 0.0
C2767 C 0.94922 0.40134 0.63709 0.0
C2768 C 0.96902 0.39287 0.63482 0.0
C2769 C 0.97221 0.39927 0.67193 0.0
C2770 C 0.96371 0.40645 0.69242 0.0
C2771 C 0.95222 0.40738 0.67537 0.0
C2772 C 0.98483 0.39941 0.6853 0.0
C2773 C 0.99105 0.41017 0.68173 0.0
C2774 C 0.99115 0.38872 0.692 0.0
C2775 C 0.98489 0.37725 0.69901 0.0
C2776 C 0.97574 0.3764 0.72982 0.0
C2777 C 0.96976 0.36565 0.73609 0.0
C2778 C 0.97286 0.35566 0.71182 0.0
C2779 C 0.98196 0.35639 0.68124 0.0
C2780 C 0.98797 0.36712 0.67483 0.0
C2781 C 0.04281 0.40565 0.67478 0.0
C2782 C 0.04566 0.39975 0.63606 0.0
C2783 C 0.03124 0.40517 0.69127 0.0
C2784 C 0.02245 0.39869 0.66944 0.0
C2785 C 0.02547 0.39228 0.6322 0.0
C2786 C 0.03694 0.39285 0.61552 0.0
C2787 C 0.00979 0.39946 0.68185 0.0
C2788 C 0.00361 0.38888 0.69015 0.0
C2789 C 0.00348 0.4103 0.67931 0.0
C2790 C 0.00948 0.42171 0.66961 0.0
C2791 C 0.01521 0.42348 0.62977 0.0
C2792 C 0.02089 0.43426 0.621 0.0
C2793 C 0.0208 0.44337 0.65167 0.0
C2794 C 0.01499 0.44173 0.69112 0.0
C2795 C 0.0093 0.43096 0.70007 0.0
H2796 H 0.02521 0.45171 0.64481 0.0
H2797 H 0.96821 0.34735 0.7167 0.0
H2798 H 0.4451 0.58362 0.18329 0.0
H2799 H 0.46559 0.58352 0.21084 0.0
H2800 H 0.47805 0.57104 0.08707 0.0
H2801 H 0.45785 0.5711 0.05959 0.0
H2802 H 0.48889 0.55949 0.15448 0.0
H2803 H 0.47828 0.60032 0.11094 0.0
H2804 H 0.4665 0.61871 0.11801 0.0
H2805 H 0.47678 0.62165 0.25116 0.0
H2806 H 0.48853 0.60319 0.2449 0.0
H2807 H 0.53768 0.58364 0.05614 0.0
H2808 H 0.51763 0.58157 0.08447 0.0
H2809 H 0.53104 0.58323 0.21471 0.0
H2810 H 0.55141 0.58512 0.18658 0.0
H2811 H 0.50773 0.59878 0.17892 0.0
H2812 H 0.5236 0.56014 0.21042 0.0
H2813 H 0.53594 0.54252 0.19528 0.0
H2814 H 0.51593 0.53576 0.07982 0.0
H2815 H 0.50359 0.55345 0.09388 0.0
C2816 C 0.45222 0.58074 0.16221 0.0
C2817 C 0.44989 0.57746 0.11915 0.0
C2818 C 0.46389 0.58069 0.17798 0.0
C2819 C 0.4733 0.57726 0.15096 0.0
C2820 C 0.4709 0.57363 0.10855 0.0
C2821 C 0.45934 0.57377 0.09276 0.0
C2822 C 0.48585 0.57817 0.16462 0.0
C2823 C 0.49301 0.56803 0.16083 0.0
C2824 C 0.49118 0.58927 0.17396 0.0
C2825 C 0.48412 0.60032 0.17764 0.0
C2826 C 0.47794 0.60485 0.14179 0.0
C2827 C 0.47129 0.61528 0.14563 0.0
C2828 C 0.47085 0.62132 0.18506 0.0
C2829 C 0.4771 0.61694 0.22068 0.0
C2830 C 0.48375 0.6065 0.21701 0.0
C2831 C 0.53643 0.58367 0.09083 0.0
C2832 C 0.54616 0.5845 0.11911 0.0
C2833 C 0.52496 0.58247 0.10692 0.0
C2834 C 0.52294 0.5822 0.15153 0.0
C2835 C 0.5325 0.58341 0.18014 0.0
C2836 C 0.54409 0.58446 0.164 0.0
C2837 C 0.51072 0.58019 0.1668 0.0
C2838 C 0.5036 0.59012 0.17544 0.0
C2839 C 0.50542 0.56891 0.1616 0.0
C2840 C 0.5127 0.55815 0.15318 0.0
C2841 C 0.52188 0.55494 0.18164 0.0
C2842 C 0.52887 0.54494 0.17328 0.0
C2843 C 0.52673 0.53803 0.13659 0.0
C2844 C 0.51758 0.54111 0.10824 0.0
C2845 C 0.51057 0.55112 0.11645 0.0
H2846 H 0.53215 0.53029 0.13016 0.0
H2847 H 0.4657 0.6294 0.18797 0.0
H2848 H 0.12277 0.14796 0.20649 0.0
H2849 H 0.11509 0.13943 0.27341 0.0
H2850 H 0.14282 0.11296 0.27128 0.0
H2851 H 0.15042 0.12129 0.20374 0.0
H2852 H 0.12188 0.10429 0.30545 0.0
H2853 H 0.14767 0.1378 0.32377 0.0
H2854 H 0.15454 0.15824 0.30961 0.0
H2855 H 0.12174 0.17208 0.35952 0.0
H2856 H 0.11457 0.1517 0.37317 0.0
H2857 H 0.12245 0.09262 0.52891 0.0
H2858 H 0.13004 0.10019 0.46023 0.0
H2859 H 0.10064 0.12468 0.45258 0.0
H2860 H 0.09292 0.11713 0.52115 0.0
H2861 H 0.12304 0.13404 0.42398 0.0
H2862 H 0.09744 0.09987 0.4048 0.0
H2863 H 0.09127 0.07926 0.41989 0.0
H2864 H 0.1248 0.06642 0.37291 0.0
H2865 H 0.13127 0.087 0.35837 0.0
C2866 C 0.12705 0.14014 0.21969 0.0
C2867 C 0.13733 0.13542 0.20049 0.0
C2868 C 0.12267 0.1353 0.25789 0.0
C2869 C 0.1286 0.12579 0.27767 0.0
C2870 C 0.13819 0.12037 0.25654 0.0
C2871 C 0.14253 0.12515 0.21805 0.0
C2872 C 0.12566 0.12246 0.32249 0.0
C2873 C 0.12224 0.11074 0.33145 0.0
C2874 C 0.12614 0.13094 0.35627 0.0
C2875 C 0.13054 0.14322 0.34912 0.0
C2876 C 0.14189 0.1452 0.33149 0.0
C2877 C 0.14584 0.15677 0.32355 0.0
C2878 C 0.13857 0.16645 0.33359 0.0
C2879 C 0.12735 0.16457 0.35172 0.0
C2880 C 0.12334 0.15301 0.35957 0.0
C2881 C 0.11774 0.0998 0.51312 0.0
C2882 C 0.107 0.10418 0.52997 0.0
C2883 C 0.12207 0.10407 0.4739 0.0
C2884 C 0.11576 0.11282 0.45129 0.0
C2885 C 0.10557 0.11788 0.46966 0.0
C2886 C 0.10117 0.11354 0.5087 0.0
C2887 C 0.11915 0.11593 0.40678 0.0
C2888 C 0.12269 0.12759 0.39795 0.0
C2889 C 0.11889 0.10738 0.37326 0.0
C2890 C 0.11489 0.09498 0.38092 0.0
C2891 C 0.10353 0.09266 0.39797 0.0
C2892 C 0.09998 0.08099 0.40641 0.0
C2893 C 0.10765 0.07154 0.39746 0.0
C2894 C 0.11887 0.07375 0.37989 0.0
C2895 C 0.12249 0.08542 0.37154 0.0
H2896 H 0.10488 0.06251 0.40406 0.0
H2897 H 0.14164 0.1754 0.32739 0.0
H2898 H 0.09288 0.8805 0.47985 0.0
H2899 H 0.10156 0.8722 0.54571 0.0
H2900 H 0.13184 0.89538 0.5319 0.0
H2901 H 0.12326 0.90372 0.46606 0.0
H2902 H 0.12341 0.86112 0.56319 0.0
H2903 H 0.13805 0.90615 0.63409 0.0
H2904 H 0.13271 0.92736 0.62858 0.0
H2905 H 0.09687 0.91789 0.59572 0.0
H2906 H 0.10195 0.89664 0.60175 0.0
H2907 H 0.15918 0.87012 0.77364 0.0
H2908 H 0.15047 0.87863 0.7082 0.0
H2909 H 0.12186 0.85317 0.71462 0.0
H2910 H 0.13065 0.84444 0.77934 0.0
H2911 H 0.12964 0.88866 0.68643 0.0
H2912 H 0.11557 0.84333 0.61407 0.0
H2913 H 0.12144 0.82224 0.61845 0.0
H2914 H 0.15697 0.83246 0.65266 0.0
H2915 H 0.15137 0.8536 0.64781 0.0
C2916 C 0.10146 0.88372 0.49055 0.0
C2917 C 0.10734 0.89283 0.46809 0.0
C2918 C 0.1064 0.87896 0.52807 0.0
C2919 C 0.11723 0.88332 0.54382 0.0
C2920 C 0.12339 0.89203 0.52043 0.0
C2921 C 0.11849 0.89674 0.48279 0.0
C2922 C 0.12182 0.87914 0.58574 0.0
C2923 C 0.12465 0.86709 0.59034 0.0
C2924 C 0.12366 0.88704 0.62063 0.0
C2925 C 0.12043 0.89981 0.61791 0.0
C2926 C 0.12902 0.9086 0.62589 0.0
C2927 C 0.12604 0.92063 0.62266 0.0
C2928 C 0.11447 0.92397 0.61165 0.0
C2929 C 0.10584 0.91529 0.60408 0.0
C2930 C 0.10877 0.90326 0.60737 0.0
C2931 C 0.15096 0.86644 0.76138 0.0
C2932 C 0.14568 0.85651 0.78114 0.0
C2933 C 0.14599 0.87131 0.72407 0.0
C2934 C 0.13567 0.86636 0.70615 0.0
C2935 C 0.12998 0.85694 0.72744 0.0
C2936 C 0.13499 0.852 0.76447 0.0
C2937 C 0.1312 0.87061 0.66404 0.0
C2938 C 0.12841 0.88268 0.65933 0.0
C2939 C 0.12947 0.86273 0.6289 0.0
C2940 C 0.133 0.85004 0.63101 0.0
C2941 C 0.12465 0.84107 0.62232 0.0
C2942 C 0.12793 0.82911 0.62491 0.0
C2943 C 0.13956 0.82601 0.63597 0.0
C2944 C 0.14795 0.83487 0.64425 0.0
C2945 C 0.14473 0.84684 0.64161 0.0
H2946 H 0.14207 0.81674 0.63803 0.0
H2947 H 0.11219 0.93329 0.60908 0.0
H2948 H 0.37284 0.89916 0.03635 0.0
H2949 H 0.36617 0.88855 0.97165 0.0
H2950 H 0.40261 0.88183 0.93614 0.0
H2951 H 0.40936 0.89228 0.00086 0.0
H2952 H 0.38857 0.89181 0.86949 0.0
H2953 H 0.38787 0.85964 0.97125 0.0
H2954 H 0.38248 0.84966 0.03937 0.0
H2955 H 0.34547 0.85294 0.00791 0.0
H2956 H 0.35064 0.8631 0.93985 0.0
H2957 H 0.36491 0.83845 0.73483 0.0
H2958 H 0.37444 0.84701 0.7985 0.0
H2959 H 0.35657 0.8803 0.77514 0.0
H2960 H 0.34694 0.87179 0.71132 0.0
H2961 H 0.36298 0.8559 0.87089 0.0
H2962 H 0.37588 0.90248 0.80779 0.0
H2963 H 0.38183 0.91209 0.73951 0.0
H2964 H 0.39585 0.87897 0.69319 0.0
H2965 H 0.39014 0.8692 0.7614 0.0
C2966 C 0.37941 0.89532 0.01494 0.0
C2967 C 0.39161 0.89655 0.02351 0.0
C2968 C 0.3756 0.88927 0.97814 0.0
C2969 C 0.38393 0.88445 0.94934 0.0
C2970 C 0.39609 0.88552 0.95809 0.0
C2971 C 0.39991 0.89144 0.99511 0.0
C2972 C 0.37994 0.87867 0.90919 0.0
C2973 C 0.383 0.88394 0.86969 0.0
C2974 C 0.37278 0.86836 0.90977 0.0
C2975 C 0.36964 0.86224 0.95064 0.0
C2976 C 0.37858 0.85833 0.97903 0.0
C2977 C 0.37556 0.85262 0.0176 0.0
C2978 C 0.36364 0.85069 0.02802 0.0
C2979 C 0.3547 0.85445 -0.00017 0.0
C2980 C 0.35767 0.86018 0.96123 0.0
C2981 C 0.36309 0.84763 0.74297 0.0
C2982 C 0.35515 0.85446 0.71822 0.0
C2983 C 0.36851 0.85248 0.77941 0.0
C2984 C 0.36619 0.86426 0.79134 0.0
C2985 C 0.35851 0.8712 0.76615 0.0
C2986 C 0.35301 0.86633 0.72982 0.0
C2987 C 0.37147 0.86914 0.83115 0.0
C2988 C 0.3686 0.86374 0.87063 0.0
C2989 C 0.37887 0.87928 0.83053 0.0
C2990 C 0.38248 0.88509 0.78956 0.0
C2991 C 0.38028 0.89726 0.7831 0.0
C2992 C 0.3836 0.90273 0.7444 0.0
C2993 C 0.38918 0.89613 0.71198 0.0
C2994 C 0.39149 0.88406 0.71826 0.0
C2995 C 0.38819 0.87855 0.75691 0.0
H2996 H 0.39174 0.90038 0.68203 0.0
H2997 H 0.36132 0.84626 0.05789 0.0
H2998 H 0.39857 0.11836 0.97479 0.0
H2999 H 0.38954 0.12367 0.04393 0.0
H3000 H 0.36267 0.09681 0.02529 0.0
H3001 H 0.37149 0.0916 0.95572 0.0
H3002 H 0.35359 0.11664 0.06272 0.0
H3003 H 0.38656 0.09048 0.08434 0.0
H3004 H 0.40726 0.08371 0.07552 0.0
H3005 H 0.41981 0.11524 0.13891 0.0
H3006 H 0.39918 0.1223 0.14742 0.0
H3007 H 0.33612 0.11603 0.28097 0.0
H3008 H 0.34514 0.10773 0.21565 0.0
H3009 H 0.37155 0.13551 0.21685 0.0
H3010 H 0.36262 0.14385 0.28201 0.0
H3011 H 0.38044 0.11338 0.18947 0.0
H3012 H 0.34733 0.14001 0.16229 0.0
H3013 H 0.32657 0.14655 0.17155 0.0
H3014 H 0.3142 0.11349 0.11888 0.0
H3015 H 0.33491 0.10666 0.11008 0.0
C3016 C 0.39061 0.11374 0.98503 0.0
C3017 C 0.38583 0.10445 0.96021 0.0
C3018 C 0.38551 0.11673 0.02458 0.0
C3019 C 0.37563 0.11042 0.04003 0.0
C3020 C 0.37035 0.10171 0.01399 0.0
C3021 C 0.37542 0.09874 0.97432 0.0
C3022 C 0.37128 0.1124 0.08442 0.0
C3023 C 0.35941 0.11576 0.09048 0.0
C3024 C 0.37892 0.11129 0.12052 0.0
C3025 C 0.39133 0.10696 0.1162 0.0
C3026 C 0.39374 0.096 0.09617 0.0
C3027 C 0.40546 0.09211 0.09123 0.0
C3028 C 0.41484 0.09905 0.10658 0.0
C3029 C 0.41253 0.10988 0.12701 0.0
C3030 C 0.40082 0.11383 0.13192 0.0
C3031 C 0.34403 0.12019 0.26794 0.0
C3032 C 0.34857 0.1307 0.28603 0.0
C3033 C 0.34914 0.11545 0.23065 0.0
C3034 C 0.35886 0.12115 0.21125 0.0
C3035 C 0.36402 0.13104 0.23137 0.0
C3036 C 0.35888 0.13581 0.26843 0.0
C3037 C 0.36282 0.11775 0.16761 0.0
C3038 C 0.37461 0.11413 0.16169 0.0
C3039 C 0.3551 0.11857 0.13166 0.0
C3040 C 0.34266 0.12278 0.13597 0.0
C3041 C 0.34018 0.1341 0.15295 0.0
C3042 C 0.32843 0.13786 0.1581 0.0
C3043 C 0.31907 0.13043 0.14591 0.0
C3044 C 0.32146 0.11923 0.12838 0.0
C3045 C 0.3332 0.11541 0.12331 0.0
H3046 H 0.30998 0.13335 0.14997 0.0
H3047 H 0.42391 0.09603 0.10271 0.0
H3048 H 0.90644 0.88489 0.49053 0.0
H3049 H 0.89799 0.87579 0.55525 0.0
H3050 H 0.86348 0.88975 0.52216 0.0
H3051 H 0.87185 0.89888 0.45717 0.0
H3052 H 0.88704 0.88721 0.62347 0.0
H3053 H 0.84283 0.86906 0.55638 0.0
H3054 H 0.83455 0.86172 0.48758 0.0
H3055 H 0.8693 0.8505 0.44732 0.0
H3056 H 0.87775 0.85761 0.51611 0.0
H3057 H 0.84521 0.87177 0.78978 0.0
H3058 H 0.85465 0.88013 0.72514 0.0
H3059 H 0.86574 0.84503 0.68629 0.0
H3060 H 0.85645 0.83663 0.7506 0.0
H3061 H 0.85427 0.85772 0.62098 0.0
H3062 H 0.88576 0.86279 0.7249 0.0
H3063 H 0.89452 0.86972 0.79341 0.0
H3064 H 0.88642 0.90583 0.75966 0.0
H3065 H 0.87746 0.89909 0.69118 0.0
C3066 C 0.89703 0.88593 0.49679 0.0
C3067 C 0.88979 0.8926 0.46889 0.0
C3068 C 0.89225 0.88079 0.53386 0.0
C3069 C 0.88015 0.88213 0.54333 0.0
C3070 C 0.87284 0.88858 0.51514 0.0
C3071 C 0.87763 0.89378 0.47812 0.0
C3072 C 0.87524 0.87696 0.58327 0.0
C3073 C 0.87987 0.88077 0.62299 0.0
C3074 C 0.86594 0.86852 0.58237 0.0
C3075 C 0.86093 0.86398 0.54123 0.0
C3076 C 0.84869 0.86498 0.53292 0.0
C3077 C 0.84397 0.86086 0.49391 0.0
C3078 C 0.8514 0.85568 0.46304 0.0
C3079 C 0.86356 0.85455 0.47119 0.0
C3080 C 0.86832 0.85864 0.51017 0.0
C3081 C 0.84976 0.86587 0.76763 0.0
C3082 C 0.85008 0.85356 0.77511 0.0
C3083 C 0.85513 0.87064 0.73084 0.0
C3084 C 0.86083 0.86316 0.7011 0.0
C3085 C 0.86132 0.85091 0.70888 0.0
C3086 C 0.85606 0.84615 0.74572 0.0
C3087 C 0.86604 0.868 0.66116 0.0
C3088 C 0.86142 0.86418 0.62144 0.0
C3089 C 0.87541 0.87635 0.66205 0.0
C3090 C 0.88083 0.88042 0.70313 0.0
C3091 C 0.88575 0.8722 0.73226 0.0
C3092 C 0.89077 0.8761 0.77105 0.0
C3093 C 0.891 0.88821 0.78094 0.0
C3094 C 0.88623 0.89645 0.75199 0.0
C3095 C 0.88119 0.8926 0.71317 0.0
H3096 H 0.89489 0.89121 0.81099 0.0
H3097 H 0.84774 0.85252 0.43283 0.0
H3098 H 0.83974 0.12194 0.21076 0.0
H3099 H 0.84727 0.11365 0.27841 0.0
H3100 H 0.87733 0.13737 0.273 0.0
H3101 H 0.86983 0.14579 0.20548 0.0
H3102 H 0.88245 0.11361 0.30407 0.0
H3103 H 0.85511 0.14644 0.32613 0.0
H3104 H 0.83598 0.15663 0.31474 0.0
H3105 H 0.81751 0.12725 0.37239 0.0
H3106 H 0.83654 0.11677 0.38332 0.0
H3107 H 0.90102 0.1149 0.51812 0.0
H3108 H 0.89314 0.12256 0.45012 0.0
H3109 H 0.86133 0.1017 0.46734 0.0
H3110 H 0.86905 0.09413 0.53578 0.0
H3111 H 0.85666 0.12321 0.42958 0.0
H3112 H 0.88313 0.09044 0.41006 0.0
H3113 H 0.90178 0.0793 0.42025 0.0
H3114 H 0.92124 0.10711 0.35682 0.0
H3115 H 0.90272 0.11853 0.347 0.0
C3116 C 0.84809 0.1252 0.22343 0.0
C3117 C 0.85412 0.13463 0.2033 0.0
C3118 C 0.85236 0.12047 0.26204 0.0
C3119 C 0.86274 0.12505 0.28072 0.0
C3120 C 0.86928 0.13378 0.25895 0.0
C3121 C 0.86497 0.13859 0.22056 0.0
C3122 C 0.8661 0.12167 0.32498 0.0
C3123 C 0.8769 0.11578 0.3316 0.0
C3124 C 0.85865 0.12432 0.36053 0.0
C3125 C 0.84724 0.13077 0.35514 0.0
C3126 C 0.84697 0.14212 0.33612 0.0
C3127 C 0.83614 0.14795 0.32975 0.0
C3128 C 0.82553 0.14258 0.34274 0.0
C3129 C 0.82573 0.13139 0.36229 0.0
C3130 C 0.83654 0.1255 0.36858 0.0
C3131 C 0.89223 0.11215 0.50794 0.0
C3132 C 0.88574 0.10376 0.53179 0.0
C3133 C 0.88777 0.1165 0.46906 0.0
C3134 C 0.8768 0.11245 0.4534 0.0
C3135 C 0.86986 0.10484 0.47885 0.0
C3136 C 0.8743 0.10052 0.51786 0.0
C3137 C 0.87311 0.11525 0.40884 0.0
C3138 C 0.86223 0.12101 0.40212 0.0
C3139 C 0.88042 0.11235 0.37312 0.0
C3140 C 0.89155 0.1054 0.37817 0.0
C3141 C 0.8914 0.09422 0.39854 0.0
C3142 C 0.90195 0.08785 0.40425 0.0
C3143 C 0.91269 0.09251 0.38928 0.0
C3144 C 0.91291 0.10352 0.36845 0.0
C3145 C 0.90239 0.10995 0.3628 0.0
H3146 H 0.92085 0.08757 0.39373 0.0
H3147 H 0.81715 0.1471 0.33772 0.0
H3148 H 0.63413 0.14394 0.27342 0.0
H3149 H 0.62585 0.13313 0.21223 0.0
H3150 H 0.65212 0.10558 0.22883 0.0
H3151 H 0.66057 0.11644 0.29012 0.0
H3152 H 0.65112 0.11348 0.14614 0.0
H3153 H 0.62347 0.09974 0.25129 0.0
H3154 H 0.60919 0.10137 0.31139 0.0
H3155 H 0.58637 0.12303 0.23299 0.0
H3156 H 0.6006 0.12167 0.17259 0.0
H3157 H 0.62293 0.08006 0.97672 0.0
H3158 H 0.63201 0.08631 0.04486 0.0
H3159 H 0.60786 0.11603 0.05155 0.0
H3160 H 0.59862 0.10975 0.98403 0.0
H3161 H 0.60842 0.10402 0.1263 0.0
H3162 H 0.63708 0.1197 0.02489 0.0
H3163 H 0.65143 0.1185 0.96485 0.0
H3164 H 0.67233 0.0934 0.03651 0.0
H3165 H 0.658 0.09434 0.09679 0.0
C3166 C 0.63805 0.1355 0.26449 0.0
C3167 C 0.64803 0.13106 0.28638 0.0
C3168 C 0.63327 0.1293 0.22963 0.0
C3169 C 0.63834 0.11853 0.21622 0.0
C3170 C 0.64809 0.11388 0.2388 0.0
C3171 C 0.65287 0.12007 0.27382 0.0
C3172 C 0.63393 0.11266 0.17667 0.0
C3173 C 0.64183 0.11115 0.14204 0.0
C3174 C 0.62177 0.10986 0.17125 0.0
C3175 C 0.61315 0.11066 0.20747 0.0
C3176 C 0.61545 0.10492 0.24695 0.0
C3177 C 0.60736 0.10579 0.28106 0.0
C3178 C 0.59689 0.11231 0.27604 0.0
C3179 C 0.59448 0.11797 0.23684 0.0
C3180 C 0.60255 0.11715 0.20263 0.0
C3181 C 0.61965 0.088 0.99249 0.0
C3182 C 0.61003 0.0944 0.97521 0.0
C3183 C 0.62485 0.09156 0.03136 0.0
C3184 C 0.62058 0.10162 0.05319 0.0
C3185 C 0.61122 0.10819 0.0353 0.0
C3186 C 0.60599 0.10463 -0.00336 0.0
C3187 C 0.62555 0.10515 0.09546 0.0
C3188 C 0.61774 0.10618 0.13061 0.0
C3189 C 0.63778 0.10753 0.10131 0.0
C3190 C 0.6464 0.10698 0.06512 0.0
C3191 C 0.64468 0.11385 0.02769 0.0
C3192 C 0.65282 0.11323 0.99365 0.0
C3193 C 0.66277 0.10585 -0.0032 0.0
C3194 C 0.66461 0.0991 0.03407 0.0
C3195 C 0.65649 0.09967 0.06819 0.0
H3196 H 0.66906 0.10539 0.97042 0.0
H3197 H 0.59064 0.11297 0.30249 0.0
H3198 H 0.65065 0.87812 0.70426 0.0
H3199 H 0.64311 0.88781 0.76947 0.0
H3200 H 0.61717 0.8599 0.78492 0.0
H3201 H 0.6246 0.85019 0.71981 0.0
H3202 H 0.60864 0.88219 0.80923 0.0
H3203 H 0.64313 0.85698 0.83183 0.0
H3204 H 0.66378 0.85071 0.8179 0.0
H3205 H 0.6764 0.88504 0.85735 0.0
H3206 H 0.65579 0.89158 0.87078 0.0
H3207 H 0.59622 0.87966 0.02889 0.0
H3208 H 0.60399 0.87375 0.95847 0.0
H3209 H 0.62939 0.90244 0.96316 0.0
H3210 H 0.62179 0.90832 0.03403 0.0
H3211 H 0.63869 0.8821 0.92674 0.0
H3212 H 0.60432 0.90673 0.91101 0.0
H3213 H 0.58369 0.91288 0.9257 0.0
H3214 H 0.57085 0.87996 0.87343 0.0
H3215 H 0.59143 0.87351 0.85917 0.0
C3216 C 0.64314 0.87422 0.7209 0.0
C3217 C 0.63834 0.86329 0.70751 0.0
C3218 C 0.63887 0.87975 0.75814 0.0
C3219 C 0.62976 0.87442 0.78225 0.0
C3220 C 0.62426 0.8641 0.76676 0.0
C3221 C 0.62854 0.85855 0.72968 0.0
C3222 C 0.62688 0.8787 0.82597 0.0
C3223 C 0.61518 0.88215 0.83499 0.0
C3224 C 0.63551 0.87882 0.85922 0.0
C3225 C 0.64791 0.87481 0.85183 0.0
C3226 C 0.6503 0.86322 0.83723 0.0
C3227 C 0.662 0.85962 0.82944 0.0
C3228 C 0.67139 0.86749 0.83662 0.0
C3229 C 0.66911 0.87897 0.85172 0.0
C3230 C 0.65742 0.88263 0.85942 0.0
C3231 C 0.6036 0.88458 0.01532 0.0
C3232 C 0.60827 0.89456 0.03658 0.0
C3233 C 0.608 0.88122 0.97507 0.0
C3234 C 0.61705 0.88786 0.95536 0.0
C3235 C 0.62232 0.89729 0.97782 0.0
C3236 C 0.61796 0.90063 0.01823 0.0
C3237 C 0.6204 0.88542 0.91017 0.0
C3238 C 0.63218 0.88231 0.9009 0.0
C3239 C 0.61185 0.88564 0.87666 0.0
C3240 C 0.59943 0.8896 0.88431 0.0
C3241 C 0.5971 0.90077 0.90288 0.0
C3242 C 0.58542 0.90431 0.91113 0.0
C3243 C 0.57597 0.89681 0.90057 0.0
C3244 C 0.57818 0.88576 0.88162 0.0
C3245 C 0.58986 0.88216 0.87342 0.0
H3246 H 0.56692 0.89956 0.907 0.0
H3247 H 0.68044 0.86469 0.83061 0.0
H3248 H 0.59404 0.61058 -0.00171 0.0
H3249 H 0.60205 0.61574 0.92748 0.0
H3250 H 0.63173 0.59218 0.94853 0.0
H3251 H 0.62384 0.58706 0.01983 0.0
H3252 H 0.63839 0.61295 0.90944 0.0
H3253 H 0.60938 0.58269 0.88889 0.0
H3254 H 0.58992 0.57295 0.89778 0.0
H3255 H 0.57286 0.60216 0.8337 0.0
H3256 H 0.59221 0.61219 0.8251 0.0
H3257 H 0.65476 0.61746 0.69101 0.0
H3258 H 0.64707 0.6066 0.75351 0.0
H3259 H 0.61738 0.63075 0.76105 0.0
H3260 H 0.62502 0.64169 0.69882 0.0
H3261 H 0.61182 0.60665 0.78341 0.0
H3262 H 0.64074 0.63779 0.81393 0.0
H3263 H 0.66027 0.64739 0.80453 0.0
H3264 H 0.67764 0.61578 0.84975 0.0
H3265 H 0.6582 0.60591 0.85857 0.0
C3266 C 0.60235 0.60661 0.98813 0.0
C3267 C 0.60825 0.59831 0.01434 0.0
C3268 C 0.60688 0.60951 0.94761 0.0
C3269 C 0.61732 0.60411 0.93255 0.0
C3270 C 0.62359 0.59634 0.95956 0.0
C3271 C 0.61908 0.59344 0.00021 0.0
C3272 C 0.62141 0.60635 0.88802 0.0
C3273 C 0.63268 0.61136 0.8818 0.0
C3274 C 0.6139 0.60431 0.85209 0.0
C3275 C 0.60225 0.59824 0.85663 0.0
C3276 C 0.60147 0.58708 0.87694 0.0
C3277 C 0.59046 0.5815 0.88191 0.0
C3278 C 0.58016 0.58694 0.86637 0.0
C3279 C 0.58085 0.59796 0.84574 0.0
C3280 C 0.59184 0.6036 0.84077 0.0
C3281 C 0.64642 0.62025 0.70521 0.0
C3282 C 0.64058 0.63054 0.69068 0.0
C3283 C 0.64206 0.61404 0.74086 0.0
C3284 C 0.63179 0.61802 0.76204 0.0
C3285 C 0.62534 0.62759 0.74504 0.0
C3286 C 0.62975 0.63386 0.70969 0.0
C3287 C 0.62867 0.61343 0.8051 0.0
C3288 C 0.61759 0.60801 0.81103 0.0
C3289 C 0.63637 0.61504 0.84076 0.0
C3290 C 0.64803 0.62106 0.83642 0.0
C3291 C 0.64873 0.63286 0.82156 0.0
C3292 C 0.65978 0.63835 0.81635 0.0
C3293 C 0.67019 0.63218 0.82643 0.0
C3294 C 0.66957 0.62053 0.84187 0.0
C3295 C 0.65854 0.61498 0.84696 0.0
H3296 H 0.67874 0.63644 0.8224 0.0
H3297 H 0.57164 0.58261 0.87026 0.0
H3298 H 0.6268 0.3481 0.27575 0.0
H3299 H 0.61907 0.35766 0.21075 0.0
H3300 H 0.64719 0.38366 0.21662 0.0
H3301 H 0.65503 0.37413 0.28164 0.0
H3302 H 0.61152 0.3804 0.18922 0.0
H3303 H 0.65754 0.38687 0.11186 0.0
H3304 H 0.67784 0.37872 0.11744 0.0
H3305 H 0.66373 0.34527 0.16008 0.0
H3306 H 0.64335 0.35316 0.15406 0.0
H3307 H 0.62157 0.40735 0.96274 0.0
H3308 H 0.62998 0.4006 0.03135 0.0
H3309 H 0.60264 0.37387 0.04113 0.0
H3310 H 0.59409 0.38063 0.97299 0.0
H3311 H 0.63849 0.37931 0.06227 0.0
H3312 H 0.59256 0.37343 0.14438 0.0
H3313 H 0.57226 0.38153 0.13825 0.0
H3314 H 0.58618 0.41396 0.08557 0.0
H3315 H 0.60657 0.40614 0.09208 0.0
C3316 C 0.63122 0.35597 0.26362 0.0
C3317 C 0.6416 0.36028 0.28335 0.0
C3318 C 0.62678 0.36144 0.22661 0.0
C3319 C 0.63269 0.37123 0.20869 0.0
C3320 C 0.64262 0.37601 0.22981 0.0
C3321 C 0.64705 0.37057 0.26695 0.0
C3322 C 0.62897 0.37579 0.16615 0.0
C3323 C 0.61737 0.38011 0.16138 0.0
C3324 C 0.63674 0.3756 0.1302 0.0
C3325 C 0.64894 0.37066 0.13302 0.0
C3326 C 0.65877 0.37777 0.12226 0.0
C3327 C 0.67029 0.37319 0.1255 0.0
C3328 C 0.67207 0.3615 0.13927 0.0
C3329 C 0.66234 0.35434 0.14958 0.0
C3330 C 0.6508 0.35886 0.14629 0.0
C3331 C 0.61745 0.39993 0.97923 0.0
C3332 C 0.60708 0.39461 0.96288 0.0
C3333 C 0.62227 0.39609 0.01833 0.0
C3334 C 0.61677 0.38692 0.04156 0.0
C3335 C 0.60686 0.38112 0.02397 0.0
C3336 C 0.60202 0.38496 0.98499 0.0
C3337 C 0.62098 0.38377 0.08519 0.0
C3338 C 0.63267 0.37972 0.09018 0.0
C3339 C 0.6133 0.38423 0.12137 0.0
C3340 C 0.60108 0.38914 0.11836 0.0
C3341 C 0.59129 0.38232 0.13173 0.0
C3342 C 0.57977 0.38686 0.12816 0.0
C3343 C 0.57793 0.39824 0.11142 0.0
C3344 C 0.58762 0.40513 0.09841 0.0
C3345 C 0.59915 0.40064 0.10201 0.0
H3346 H 0.569 0.40172 0.10859 0.0
H3347 H 0.681 0.35798 0.14184 0.0
H3348 H 0.87228 0.40911 0.5241 0.0
H3349 H 0.86241 0.40265 0.45771 0.0
H3350 H 0.89063 0.37751 0.43435 0.0
H3351 H 0.90058 0.38393 0.50046 0.0
H3352 H 0.88542 0.39101 0.36296 0.0
H3353 H 0.86444 0.36797 0.46992 0.0
H3354 H 0.8526 0.36496 0.53604 0.0
H3355 H 0.8247 0.38668 0.48401 0.0
H3356 H 0.83646 0.38996 0.41777 0.0
H3357 H 0.8618 0.34989 0.21496 0.0
H3358 H 0.87019 0.3606 0.27628 0.0
H3359 H 0.83956 0.38363 0.27926 0.0
H3360 H 0.83106 0.37293 0.21761 0.0
H3361 H 0.84485 0.37379 0.35878 0.0
H3362 H 0.86511 0.39502 0.24818 0.0
H3363 H 0.87694 0.39763 0.18183 0.0
H3364 H 0.9062 0.37916 0.24021 0.0
H3365 H 0.89448 0.37628 0.30673 0.0
C3366 C 0.87634 0.40214 0.50497 0.0
C3367 C 0.88721 0.39703 0.51738 0.0
C3368 C 0.87068 0.39846 0.46715 0.0
C3369 C 0.87582 0.38961 0.44127 0.0
C3370 C 0.88658 0.38439 0.45389 0.0
C3371 C 0.89221 0.38803 0.49175 0.0
C3372 C 0.87013 0.38592 0.40049 0.0
C3373 C 0.87659 0.38716 0.362 0.0
C3374 C 0.85846 0.38128 0.39931 0.0
C3375 C 0.85139 0.37933 0.43913 0.0
C3376 C 0.85583 0.3722 0.47275 0.0
C3377 C 0.84913 0.37042 0.51021 0.0
C3378 C 0.83792 0.37566 0.51429 0.0
C3379 C 0.83339 0.38265 0.48085 0.0
C3380 C 0.84007 0.38447 0.44333 0.0
C3381 C 0.85691 0.35733 0.2283 0.0
C3382 C 0.84576 0.36056 0.21166 0.0
C3383 C 0.86174 0.36346 0.26319 0.0
C3384 C 0.85551 0.37293 0.28205 0.0
C3385 C 0.84449 0.37636 0.26498 0.0
C3386 C 0.83968 0.37027 0.22976 0.0
C3387 C 0.86025 0.37865 0.32134 0.0
C3388 C 0.85362 0.3778 0.35958 0.0
C3389 C 0.87177 0.38364 0.32231 0.0
C3390 C 0.87887 0.38536 0.28237 0.0
C3391 C 0.87403 0.39142 0.24677 0.0
C3392 C 0.88072 0.39297 0.20914 0.0
C3393 C 0.8923 0.38855 0.20678 0.0
C3394 C 0.89722 0.38258 0.24208 0.0
C3395 C 0.89057 0.381 0.27978 0.0
H3396 H 0.89747 0.38975 0.17762 0.0
H3397 H 0.83274 0.37426 0.5433 0.0
H3398 H 0.83627 0.61884 0.7735 0.0
H3399 H 0.84441 0.61016 0.70745 0.0
H3400 H 0.87059 0.63813 0.70118 0.0
H3401 H 0.86236 0.64699 0.76668 0.0
H3402 H 0.85934 0.63566 0.62599 0.0
H3403 H 0.87828 0.60968 0.7281 0.0
H3404 H 0.87917 0.59565 0.7892 0.0
H3405 H 0.85672 0.57127 0.72052 0.0
H3406 H 0.85558 0.58522 0.65921 0.0
H3407 H 0.89785 0.61175 0.46683 0.0
H3408 H 0.88862 0.61976 0.532 0.0
H3409 H 0.86228 0.59192 0.52839 0.0
H3410 H 0.87152 0.58378 0.46329 0.0
H3411 H 0.87271 0.59397 0.60747 0.0
H3412 H 0.85438 0.61974 0.50427 0.0
H3413 H 0.85368 0.63374 0.44309 0.0
H3414 H 0.87516 0.65855 0.51388 0.0
H3415 H 0.87612 0.64462 0.57529 0.0
C3416 C 0.84387 0.62304 0.7584 0.0
C3417 C 0.84864 0.63363 0.77504 0.0
C3418 C 0.84852 0.61806 0.72073 0.0
C3419 C 0.8581 0.62351 0.69951 0.0
C3420 C 0.86315 0.63383 0.71701 0.0
C3421 C 0.85848 0.63885 0.75449 0.0
C3422 C 0.86242 0.61889 0.65771 0.0
C3423 C 0.86242 0.62659 0.62205 0.0
C3424 C 0.86606 0.60695 0.65241 0.0
C3425 C 0.86675 0.59855 0.68925 0.0
C3426 C 0.87345 0.60137 0.72617 0.0
C3427 C 0.87402 0.59342 0.76082 0.0
C3428 C 0.86798 0.58259 0.7588 0.0
C3429 C 0.86138 0.57967 0.72207 0.0
C3430 C 0.86078 0.58759 0.68735 0.0
C3431 C 0.89001 0.60742 0.47959 0.0
C3432 C 0.88543 0.59712 0.46014 0.0
C3433 C 0.88473 0.61202 0.51673 0.0
C3434 C 0.87476 0.60643 0.53482 0.0
C3435 C 0.86998 0.59633 0.51485 0.0
C3436 C 0.87524 0.59173 0.47763 0.0
C3437 C 0.86975 0.61078 0.57595 0.0
C3438 C 0.86959 0.60303 0.61143 0.0
C3439 C 0.86598 0.62267 0.58112 0.0
C3440 C 0.86541 0.63108 0.54424 0.0
C3441 C 0.85904 0.62814 0.50666 0.0
C3442 C 0.85858 0.63607 0.47196 0.0
C3443 C 0.8644 0.64702 0.47455 0.0
C3444 C 0.87066 0.65006 0.5119 0.0
C3445 C 0.87116 0.64215 0.54668 0.0
H3446 H 0.86403 0.65315 0.44766 0.0
H3447 H 0.86843 0.57645 0.78565 0.0
H3448 H 0.33648 0.37261 0.28875 0.0
H3449 H 0.34461 0.38215 0.2241 0.0
H3450 H 0.37081 0.35434 0.21308 0.0
H3451 H 0.36279 0.34477 0.27756 0.0
H3452 H 0.37967 0.37687 0.19272 0.0
H3453 H 0.34584 0.35166 0.15946 0.0
H3454 H 0.32501 0.34529 0.16797 0.0
H3455 H 0.31302 0.37983 0.12836 0.0
H3456 H 0.33381 0.38647 0.12031 0.0
H3457 H 0.39637 0.37697 0.97613 0.0
H3458 H 0.38771 0.37029 0.04428 0.0
H3459 H 0.36114 0.39783 0.03583 0.0
H3460 H 0.36959 0.40441 0.96714 0.0
H3461 H 0.35194 0.37745 0.06798 0.0
H3462 H 0.38545 0.40239 0.09532 0.0
H3463 H 0.40618 0.40912 0.08726 0.0
H3464 H 0.41866 0.37599 0.13888 0.0
H3465 H 0.398 0.36897 0.14653 0.0
C3466 C 0.34412 0.36867 0.27305 0.0
C3467 C 0.34891 0.35787 0.28773 0.0
C3468 C 0.34872 0.37411 0.23615 0.0
C3469 C 0.35817 0.36882 0.21366 0.0
C3470 C 0.36349 0.35851 0.23002 0.0
C3471 C 0.35886 0.35304 0.26671 0.0
C3472 C 0.36185 0.37334 0.17104 0.0
C3473 C 0.37365 0.37696 0.16535 0.0
C3474 C 0.35387 0.37366 0.13577 0.0
C3475 C 0.34137 0.3696 0.13974 0.0
C3476 C 0.33876 0.35792 0.15284 0.0
C3477 C 0.32696 0.35426 0.15756 0.0
C3478 C 0.31769 0.36216 0.14883 0.0
C3479 C 0.32021 0.37373 0.13519 0.0
C3480 C 0.332 0.37744 0.13053 0.0
C3481 C 0.38857 0.38147 0.98841 0.0
C3482 C 0.38375 0.39131 0.96669 0.0
C3483 C 0.38367 0.37769 0.0274 0.0
C3484 C 0.37398 0.38377 0.04547 0.0
C3485 C 0.36868 0.3931 0.0225 0.0
C3486 C 0.37353 0.39684 0.98332 0.0
C3487 C 0.36985 0.38081 0.08941 0.0
C3488 C 0.35795 0.3775 0.09538 0.0
C3489 C 0.37773 0.38085 0.12504 0.0
C3490 C 0.39017 0.38511 0.12118 0.0
C3491 C 0.39262 0.3965 0.1047 0.0
C3492 C 0.40435 0.40038 0.10021 0.0
C3493 C 0.41373 0.39298 0.11248 0.0
C3494 C 0.41139 0.3817 0.12936 0.0
C3495 C 0.39967 0.37778 0.13381 0.0
H3496 H 0.42282 0.39599 0.10897 0.0
H3497 H 0.30856 0.35931 0.15254 0.0
H3498 H 0.37425 0.60221 0.03366 0.0
H3499 H 0.36609 0.60939 0.96523 0.0
H3500 H 0.39906 0.60057 0.90122 0.0
H3501 H 0.40749 0.59437 0.97014 0.0
H3502 H 0.3924 0.61924 0.86936 0.0
H3503 H 0.37208 0.58295 0.89454 0.0
H3504 H 0.36029 0.56815 0.93472 0.0
H3505 H 0.33098 0.59251 0.94107 0.0
H3506 H 0.34265 0.60751 0.90142 0.0
H3507 H 0.34428 0.61772 0.68337 0.0
H3508 H 0.35482 0.60778 0.74244 0.0
H3509 H 0.36597 0.6419 0.79175 0.0
H3510 H 0.35598 0.65176 0.73202 0.0
H3511 H 0.35173 0.60783 0.82372 0.0
H3512 H 0.39157 0.64092 0.84259 0.0
H3513 H 0.40466 0.6529 0.7958 0.0
H3514 H 0.39735 0.62969 0.68899 0.0
H3515 H 0.38437 0.61747 0.73525 0.0
C3516 C 0.37974 0.60193 0.00492 0.0
C3517 C 0.39146 0.59778 0.00695 0.0
C3518 C 0.37505 0.60589 0.96576 0.0
C3519 C 0.38184 0.60525 0.92768 0.0
C3520 C 0.39362 0.60117 0.93 0.0
C3521 C 0.39843 0.59761 0.96939 0.0
C3522 C 0.37679 0.60904 0.8856 0.0
C3523 C 0.38353 0.61667 0.85934 0.0
C3524 C 0.36537 0.6054 0.87158 0.0
C3525 C 0.35828 0.59638 0.89527 0.0
C3526 C 0.36315 0.58517 0.90472 0.0
C3527 C 0.35648 0.57674 0.92739 0.0
C3528 C 0.3449 0.57939 0.94051 0.0
C3529 C 0.33995 0.59047 0.93091 0.0
C3530 C 0.34658 0.59893 0.90829 0.0
C3531 C 0.34912 0.62305 0.70661 0.0
C3532 C 0.3494 0.63549 0.70305 0.0
C3533 C 0.35509 0.61738 0.74035 0.0
C3534 C 0.36133 0.62408 0.7712 0.0
C3535 C 0.36151 0.63651 0.76772 0.0
C3536 C 0.35574 0.64215 0.73367 0.0
C3537 C 0.36725 0.61821 0.80822 0.0
C3538 C 0.36066 0.61024 0.83354 0.0
C3539 C 0.37903 0.62106 0.82033 0.0
C3540 C 0.38692 0.62833 0.79237 0.0
C3541 C 0.3928 0.63834 0.80918 0.0
C3542 C 0.40019 0.64518 0.78273 0.0
C3543 C 0.40181 0.64208 0.73942 0.0
C3544 C 0.39606 0.63211 0.7225 0.0
C3545 C 0.38867 0.62523 0.74881 0.0
H3546 H 0.40753 0.64739 0.719 0.0
H3547 H 0.33975 0.57286 0.95807 0.0
H3548 H 0.12797 0.6484 0.77085 0.0
H3549 H 0.11991 0.63921 0.70572 0.0
H3550 H 0.14588 0.61112 0.71512 0.0
H3551 H 0.15409 0.62033 0.78015 0.0
H3552 H 0.14516 0.62083 0.63489 0.0
H3553 H 0.11718 0.60558 0.7375 0.0
H3554 H 0.10268 0.60674 0.79704 0.0
H3555 H 0.08023 0.62915 0.72 0.0
H3556 H 0.09469 0.62827 0.6602 0.0
H3557 H 0.11972 0.58423 0.47157 0.0
H3558 H 0.12814 0.59264 0.5375 0.0
H3559 H 0.10155 0.62028 0.53613 0.0
H3560 H 0.0929 0.61173 0.47077 0.0
H3561 H 0.1028 0.61021 0.61324 0.0
H3562 H 0.13089 0.62595 0.51141 0.0
H3563 H 0.14543 0.62507 0.45192 0.0
H3564 H 0.16766 0.60202 0.52728 0.0
H3565 H 0.15316 0.60264 0.58702 0.0
C3566 C 0.13187 0.64018 0.75939 0.0
C3567 C 0.14169 0.6351 0.78045 0.0
C3568 C 0.12724 0.63493 0.72225 0.0
C3569 C 0.13229 0.62448 0.70578 0.0
C3570 C 0.14189 0.61921 0.72738 0.0
C3571 C 0.14653 0.62445 0.76456 0.0
C3572 C 0.12792 0.61941 0.66477 0.0
C3573 C 0.13594 0.61832 0.63027 0.0
C3574 C 0.11584 0.61645 0.65865 0.0
C3575 C 0.10708 0.61694 0.69449 0.0
C3576 C 0.1092 0.61083 0.73336 0.0
C3577 C 0.10097 0.61142 0.76714 0.0
C3578 C 0.09055 0.61803 0.76234 0.0
C3579 C 0.08831 0.62404 0.72369 0.0
C3580 C 0.09652 0.62349 0.68983 0.0
C3581 C 0.11577 0.59219 0.48498 0.0
C3582 C 0.10562 0.5973 0.4662 0.0
C3583 C 0.12061 0.59701 0.52258 0.0
C3584 C 0.11549 0.60711 0.54159 0.0
C3585 C 0.1056 0.61245 0.52203 0.0
C3586 C 0.1007 0.60759 0.48464 0.0
C3587 C 0.12001 0.61171 0.58316 0.0
C3588 C 0.11203 0.6127 0.61781 0.0
C3589 C 0.13212 0.6146 0.58937 0.0
C3590 C 0.14088 0.61425 0.55353 0.0
C3591 C 0.13883 0.62062 0.51517 0.0
C3592 C 0.14708 0.62018 0.48142 0.0
C3593 C 0.15745 0.61347 0.48577 0.0
C3594 C 0.15962 0.60721 0.52393 0.0
C3595 C 0.15139 0.60761 0.55776 0.0
H3596 H 0.16382 0.61314 0.4596 0.0
H3597 H 0.08419 0.61848 0.78853 0.0
H3598 H 0.15274 0.37916 0.1928 0.0
H3599 H 0.14465 0.38818 0.25837 0.0
H3600 H 0.11798 0.36072 0.26521 0.0
H3601 H 0.126 0.35162 0.19977 0.0
H3602 H 0.10975 0.38322 0.29181 0.0
H3603 H 0.14268 0.35628 0.31606 0.0
H3604 H 0.16313 0.34913 0.30415 0.0
H3605 H 0.17697 0.38237 0.34998 0.0
H3606 H 0.15657 0.3898 0.36147 0.0
H3607 H 0.09511 0.37913 0.51021 0.0
H3608 H 0.10311 0.37372 0.43958 0.0
H3609 H 0.12956 0.4013 0.45065 0.0
H3610 H 0.1217 0.4067 0.52168 0.0
H3611 H 0.13838 0.38074 0.41355 0.0
H3612 H 0.10533 0.40704 0.39557 0.0
H3613 H 0.08484 0.41403 0.40769 0.0
H3614 H 0.07119 0.38211 0.35012 0.0
H3615 H 0.09162 0.37484 0.33834 0.0
C3616 C 0.14496 0.37522 0.2076 0.0
C3617 C 0.14012 0.36457 0.19171 0.0
C3618 C 0.14038 0.38037 0.24505 0.0
C3619 C 0.13088 0.37496 0.26683 0.0
C3620 C 0.12536 0.36497 0.24883 0.0
C3621 C 0.12997 0.35977 0.21157 0.0
C3622 C 0.1276 0.37879 0.31076 0.0
C3623 C 0.11597 0.38265 0.31849 0.0
C3624 C 0.13584 0.37818 0.34525 0.0
C3625 C 0.1481 0.37365 0.33915 0.0
C3626 C 0.15008 0.3621 0.3233 0.0
C3627 C 0.16167 0.35799 0.31664 0.0
C3628 C 0.17135 0.36531 0.32617 0.0
C3629 C 0.16946 0.37673 0.34253 0.0
C3630 C 0.15789 0.38089 0.34913 0.0
C3631 C 0.10275 0.38392 0.49795 0.0
C3632 C 0.10768 0.39345 0.52114 0.0
C3633 C 0.10727 0.38085 0.45757 0.0
C3634 C 0.11674 0.38729 0.43968 0.0
C3635 C 0.12218 0.3963 0.4639 0.0
C3636 C 0.11767 0.39937 0.50438 0.0
C3637 C 0.12047 0.38505 0.39474 0.0
C3638 C 0.13219 0.38147 0.38682 0.0
C3639 C 0.11231 0.38592 0.36007 0.0
C3640 C 0.10001 0.39035 0.36638 0.0
C3641 C 0.09796 0.40148 0.38574 0.0
C3642 C 0.08636 0.40549 0.39254 0.0
C3643 C 0.07672 0.39851 0.37975 0.0
C3644 C 0.07867 0.38751 0.36003 0.0
C3645 C 0.09026 0.38344 0.35326 0.0
H3646 H 0.06774 0.40162 0.38506 0.0
H3647 H 0.18031 0.36212 0.32098 0.0
loop_
_geom_bond_atom_site_label_1
_geom_bond_atom_site_label_2
_geom_bond_distance
_geom_bond_site_symmetry_2
_ccdc_geom_bond_type
C0 O1 1.306 . S
C0 O3 1.160 . S
O1 C0 1.306 . S
O1 Cd2 2.228 . S
Cd2 O1 2.228 . S
Cd2 O6 2.273 . S
Cd2 O10 2.277 . S
O3 C0 1.160 . S
O3 Cd4 2.203 . S
Cd4 O3 2.203 . S
Cd4 O6 2.411 . S
Cd4 O7 2.333 . S
Cd4 O8 2.352 . S
Cd4 O12 2.277 . S
Cd4 O13 2.356 . S
C5 O10 1.209 . S
C5 O12 1.226 . S
O6 Cd2 2.273 . S
O6 Cd4 2.411 . S
O6 C9 1.320 . S
O7 Cd4 2.333 . S
O7 C9 1.214 . S
O8 Cd4 2.352 . S
O8 C11 1.258 . S
C9 O6 1.320 . S
C9 O7 1.214 . S
O10 Cd2 2.277 . S
O10 C5 1.209 . S
C11 O8 1.258 . S
C11 O13 1.282 . S
O12 Cd4 2.277 . S
O12 C5 1.226 . S
O13 Cd4 2.356 . S
O13 C11 1.282 . S
C14 O15 1.306 . S
C14 O17 1.160 . S
O15 C14 1.306 . S
O15 Cd16 2.228 . S
Cd16 O15 2.228 . S
Cd16 O20 2.273 . S
Cd16 O24 2.277 . S
O17 C14 1.160 . S
O17 Cd18 2.203 . S
Cd18 O17 2.203 . S
Cd18 O20 2.411 . S
Cd18 O21 2.333 . S
Cd18 O22 2.352 . S
Cd18 O26 2.277 . S
Cd18 O27 2.356 . S
C19 O24 1.209 . S
C19 O26 1.226 . S
O20 Cd16 2.273 . S
O20 Cd18 2.411 . S
O20 C23 1.320 . S
O21 Cd18 2.333 . S
O21 C23 1.214 . S
O22 Cd18 2.352 . S
O22 C25 1.258 . S
C23 O20 1.320 . S
C23 O21 1.214 . S
O24 Cd16 2.277 . S
O24 C19 1.209 . S
C25 O22 1.258 . S
C25 O27 1.282 . S
O26 Cd18 2.277 . S
O26 C19 1.226 . S
O27 Cd18 2.356 . S
O27 C25 1.282 . S
C28 O29 1.306 . S
C28 O31 1.160 . S
O29 C28 1.306 . S
O29 Cd30 2.228 . S
Cd30 O29 2.228 . S
Cd30 O34 2.273 . S
Cd30 O38 2.277 . S
O31 C28 1.160 . S
O31 Cd32 2.203 . S
Cd32 O31 2.203 . S
Cd32 O34 2.411 . S
Cd32 O35 2.333 . S
Cd32 O36 2.352 . S
Cd32 O40 2.277 . S
Cd32 O41 2.356 . S
C33 O38 1.209 . S
C33 O40 1.226 . S
O34 Cd30 2.273 . S
O34 Cd32 2.411 . S
O34 C37 1.320 . S
O35 Cd32 2.333 . S
O35 C37 1.214 . S
O36 Cd32 2.352 . S
O36 C39 1.258 . S
C37 O34 1.320 . S
C37 O35 1.214 . S
O38 Cd30 2.277 . S
O38 C33 1.209 . S
C39 O36 1.258 . S
C39 O41 1.282 . S
O40 Cd32 2.277 . S
O40 C33 1.226 . S
O41 Cd32 2.356 . S
O41 C39 1.282 . S
C42 O43 1.306 . S
C42 O45 1.160 . S
O43 C42 1.306 . S
O43 Cd44 2.228 . S
Cd44 O43 2.228 . S
Cd44 O48 2.273 . S
Cd44 O52 2.277 . S
O45 C42 1.160 . S
O45 Cd46 2.203 . S
Cd46 O45 2.203 . S
Cd46 O48 2.411 . S
Cd46 O49 2.333 . S
Cd46 O50 2.352 . S
Cd46 O54 2.277 . S
Cd46 O55 2.356 . S
C47 O52 1.209 . S
C47 O54 1.226 . S
O48 Cd44 2.273 . S
O48 Cd46 2.411 . S
O48 C51 1.320 . S
O49 Cd46 2.333 . S
O49 C51 1.214 . S
O50 Cd46 2.352 . S
O50 C53 1.258 . S
C51 O48 1.320 . S
C51 O49 1.214 . S
O52 Cd44 2.277 . S
O52 C47 1.209 . S
C53 O50 1.258 . S
C53 O55 1.282 . S
O54 Cd46 2.277 . S
O54 C47 1.226 . S
O55 Cd46 2.356 . S
O55 C53 1.282 . S
C56 O57 1.306 . S
C56 O59 1.160 . S
O57 C56 1.306 . S
O57 Cd58 2.228 . S
Cd58 O57 2.228 . S
Cd58 O62 2.273 . S
Cd58 O66 2.277 . S
O59 C56 1.160 . S
O59 Cd60 2.203 . S
Cd60 O59 2.203 . S
Cd60 O62 2.411 . S
Cd60 O63 2.333 . S
Cd60 O64 2.352 . S
Cd60 O68 2.277 . S
Cd60 O69 2.356 . S
C61 O66 1.209 . S
C61 O68 1.226 . S
O62 Cd58 2.273 . S
O62 Cd60 2.411 . S
O62 C65 1.320 . S
O63 Cd60 2.333 . S
O63 C65 1.214 . S
O64 Cd60 2.352 . S
O64 C67 1.258 . S
C65 O62 1.320 . S
C65 O63 1.214 . S
O66 Cd58 2.277 . S
O66 C61 1.209 . S
C67 O64 1.258 . S
C67 O69 1.282 . S
O68 Cd60 2.277 . S
O68 C61 1.226 . S
O69 Cd60 2.356 . S
O69 C67 1.282 . S
C70 O71 1.306 . S
C70 O73 1.160 . S
O71 C70 1.306 . S
O71 Cd72 2.228 . S
Cd72 O71 2.228 . S
Cd72 O76 2.273 . S
Cd72 O80 2.277 . S
O73 C70 1.160 . S
O73 Cd74 2.203 . S
Cd74 O73 2.203 . S
Cd74 O76 2.411 . S
Cd74 O77 2.333 . S
Cd74 O78 2.352 . S
Cd74 O82 2.277 . S
Cd74 O83 2.356 . S
C75 O80 1.209 . S
C75 O82 1.226 . S
O76 Cd72 2.273 . S
O76 Cd74 2.411 . S
O76 C79 1.320 . S
O77 Cd74 2.333 . S
O77 C79 1.214 . S
O78 Cd74 2.352 . S
O78 C81 1.258 . S
C79 O76 1.320 . S
C79 O77 1.214 . S
O80 Cd72 2.277 . S
O80 C75 1.209 . S
C81 O78 1.258 . S
C81 O83 1.282 . S
O82 Cd74 2.277 . S
O82 C75 1.226 . S
O83 Cd74 2.356 . S
O83 C81 1.282 . S
C84 O85 1.306 . S
C84 O87 1.160 . S
O85 C84 1.306 . S
O85 Cd86 2.228 . S
Cd86 O85 2.228 . S
Cd86 O90 2.273 . S
Cd86 O94 2.277 . S
O87 C84 1.160 . S
O87 Cd88 2.203 . S
Cd88 O87 2.203 . S
Cd88 O90 2.411 . S
Cd88 O91 2.333 . S
Cd88 O92 2.352 . S
Cd88 O96 2.277 . S
Cd88 O97 2.356 . S
C89 O94 1.209 . S
C89 O96 1.226 . S
O90 Cd86 2.273 . S
O90 Cd88 2.411 . S
O90 C93 1.320 . S
O91 Cd88 2.333 . S
O91 C93 1.214 . S
O92 Cd88 2.352 . S
O92 C95 1.258 . S
C93 O90 1.320 . S
C93 O91 1.214 . S
O94 Cd86 2.277 . S
O94 C89 1.209 . S
C95 O92 1.258 . S
C95 O97 1.282 . S
O96 Cd88 2.277 . S
O96 C89 1.226 . S
O97 Cd88 2.356 . S
O97 C95 1.282 . S
C98 O99 1.306 . S
C98 O101 1.160 . S
O99 C98 1.306 . S
O99 Cd100 2.228 . S
Cd100 O99 2.228 . S
Cd100 O104 2.273 . S
Cd100 O108 2.277 . S
O101 C98 1.160 . S
O101 Cd102 2.203 . S
Cd102 O101 2.203 . S
Cd102 O104 2.411 . S
Cd102 O105 2.333 . S
Cd102 O106 2.352 . S
Cd102 O110 2.277 . S
Cd102 O111 2.356 . S
C103 O108 1.209 . S
C103 O110 1.226 . S
O104 Cd100 2.273 . S
O104 Cd102 2.411 . S
O104 C107 1.320 . S
O105 Cd102 2.333 . S
O105 C107 1.214 . S
O106 Cd102 2.352 . S
O106 C109 1.258 . S
C107 O104 1.320 . S
C107 O105 1.214 . S
O108 Cd100 2.277 . S
O108 C103 1.209 . S
C109 O106 1.258 . S
C109 O111 1.282 . S
O110 Cd102 2.277 . S
O110 C103 1.226 . S
O111 Cd102 2.356 . S
O111 C109 1.282 . S
C112 O113 1.306 . S
C112 O115 1.160 . S
O113 C112 1.306 . S
O113 Cd114 2.228 . S
Cd114 O113 2.228 . S
Cd114 O118 2.273 . S
Cd114 O122 2.277 . S
O115 C112 1.160 . S
O115 Cd116 2.203 . S
Cd116 O115 2.203 . S
Cd116 O118 2.411 . S
Cd116 O119 2.333 . S
Cd116 O120 2.352 . S
Cd116 O124 2.277 . S
Cd116 O125 2.356 . S
C117 O122 1.209 . S
C117 O124 1.226 . S
O118 Cd114 2.273 . S
O118 Cd116 2.411 . S
O118 C121 1.320 . S
O119 Cd116 2.333 . S
O119 C121 1.214 . S
O120 Cd116 2.352 . S
O120 C123 1.258 . S
C121 O118 1.320 . S
C121 O119 1.214 . S
O122 Cd114 2.277 . S
O122 C117 1.209 . S
C123 O120 1.258 . S
C123 O125 1.282 . S
O124 Cd116 2.277 . S
O124 C117 1.226 . S
O125 Cd116 2.356 . S
O125 C123 1.282 . S
C126 O127 1.306 . S
C126 O129 1.160 . S
O127 C126 1.306 . S
O127 Cd128 2.228 . S
Cd128 O127 2.228 . S
Cd128 O132 2.273 . S
Cd128 O136 2.277 . S
O129 C126 1.160 . S
O129 Cd130 2.203 . S
Cd130 O129 2.203 . S
Cd130 O132 2.411 . S
Cd130 O133 2.333 . S
Cd130 O134 2.352 . S
Cd130 O138 2.277 . S
Cd130 O139 2.356 . S
C131 O136 1.209 . S
C131 O138 1.226 . S
O132 Cd128 2.273 . S
O132 Cd130 2.411 . S
O132 C135 1.320 . S
O133 Cd130 2.333 . S
O133 C135 1.214 . S
O134 Cd130 2.352 . S
O134 C137 1.258 . S
C135 O132 1.320 . S
C135 O133 1.214 . S
O136 Cd128 2.277 . S
O136 C131 1.209 . S
C137 O134 1.258 . S
C137 O139 1.282 . S
O138 Cd130 2.277 . S
O138 C131 1.226 . S
O139 Cd130 2.356 . S
O139 C137 1.282 . S
C140 O141 1.306 . S
C140 O143 1.160 . S
O141 C140 1.306 . S
O141 Cd142 2.228 . S
Cd142 O141 2.228 . S
Cd142 O146 2.273 . S
Cd142 O150 2.277 . S
O143 C140 1.160 . S
O143 Cd144 2.203 . S
Cd144 O143 2.203 . S
Cd144 O146 2.411 . S
Cd144 O147 2.333 . S
Cd144 O148 2.352 . S
Cd144 O152 2.277 . S
Cd144 O153 2.356 . S
C145 O150 1.209 . S
C145 O152 1.226 . S
O146 Cd142 2.273 . S
O146 Cd144 2.411 . S
O146 C149 1.320 . S
O147 Cd144 2.333 . S
O147 C149 1.214 . S
O148 Cd144 2.352 . S
O148 C151 1.258 . S
C149 O146 1.320 . S
C149 O147 1.214 . S
O150 Cd142 2.277 . S
O150 C145 1.209 . S
C151 O148 1.258 . S
C151 O153 1.282 . S
O152 Cd144 2.277 . S
O152 C145 1.226 . S
O153 Cd144 2.356 . S
O153 C151 1.282 . S
C154 O155 1.306 . S
C154 O157 1.160 . S
O155 C154 1.306 . S
O155 Cd156 2.228 . S
Cd156 O155 2.228 . S
Cd156 O160 2.273 . S
Cd156 O164 2.277 . S
O157 C154 1.160 . S
O157 Cd158 2.203 . S
Cd158 O157 2.203 . S
Cd158 O160 2.411 . S
Cd158 O161 2.333 . S
Cd158 O162 2.352 . S
Cd158 O166 2.277 . S
Cd158 O167 2.356 . S
C159 O164 1.209 . S
C159 O166 1.226 . S
O160 Cd156 2.273 . S
O160 Cd158 2.411 . S
O160 C163 1.320 . S
O161 Cd158 2.333 . S
O161 C163 1.214 . S
O162 Cd158 2.352 . S
O162 C165 1.258 . S
C163 O160 1.320 . S
C163 O161 1.214 . S
O164 Cd156 2.277 . S
O164 C159 1.209 . S
C165 O162 1.258 . S
C165 O167 1.282 . S
O166 Cd158 2.277 . S
O166 C159 1.226 . S
O167 Cd158 2.356 . S
O167 C165 1.282 . S
C168 O169 1.306 . S
C168 O171 1.160 . S
O169 C168 1.306 . S
O169 Cd170 2.228 . S
Cd170 O169 2.228 . S
Cd170 O174 2.273 . S
Cd170 O178 2.277 . S
O171 C168 1.160 . S
O171 Cd172 2.203 . S
Cd172 O171 2.203 . S
Cd172 O174 2.411 . S
Cd172 O175 2.333 . S
Cd172 O176 2.352 . S
Cd172 O180 2.277 . S
Cd172 O181 2.356 . S
C173 O178 1.209 . S
C173 O180 1.226 . S
O174 Cd170 2.273 . S
O174 Cd172 2.411 . S
O174 C177 1.320 . S
O175 Cd172 2.333 . S
O175 C177 1.214 . S
O176 Cd172 2.352 . S
O176 C179 1.258 . S
C177 O174 1.320 . S
C177 O175 1.214 . S
O178 Cd170 2.277 . S
O178 C173 1.209 . S
C179 O176 1.258 . S
C179 O181 1.282 . S
O180 Cd172 2.277 . S
O180 C173 1.226 . S
O181 Cd172 2.356 . S
O181 C179 1.282 . S
C182 O183 1.306 . S
C182 O185 1.160 . S
O183 C182 1.306 . S
O183 Cd184 2.228 . S
Cd184 O183 2.228 . S
Cd184 O188 2.273 . S
Cd184 O192 2.277 . S
O185 C182 1.160 . S
O185 Cd186 2.203 . S
Cd186 O185 2.203 . S
Cd186 O188 2.411 . S
Cd186 O189 2.333 . S
Cd186 O190 2.352 . S
Cd186 O194 2.277 . S
Cd186 O195 2.356 . S
C187 O192 1.209 . S
C187 O194 1.226 . S
O188 Cd184 2.273 . S
O188 Cd186 2.411 . S
O188 C191 1.320 . S
O189 Cd186 2.333 . S
O189 C191 1.214 . S
O190 Cd186 2.352 . S
O190 C193 1.258 . S
C191 O188 1.320 . S
C191 O189 1.214 . S
O192 Cd184 2.277 . S
O192 C187 1.209 . S
C193 O190 1.258 . S
C193 O195 1.282 . S
O194 Cd186 2.277 . S
O194 C187 1.226 . S
O195 Cd186 2.356 . S
O195 C193 1.282 . S
C196 O197 1.306 . S
C196 O199 1.160 . S
O197 C196 1.306 . S
O197 Cd198 2.228 . S
Cd198 O197 2.228 . S
Cd198 O202 2.273 . S
Cd198 O206 2.277 . S
O199 C196 1.160 . S
O199 Cd200 2.203 . S
Cd200 O199 2.203 . S
Cd200 O202 2.411 . S
Cd200 O203 2.333 . S
Cd200 O204 2.352 . S
Cd200 O208 2.277 . S
Cd200 O209 2.356 . S
C201 O206 1.209 . S
C201 O208 1.226 . S
O202 Cd198 2.273 . S
O202 Cd200 2.411 . S
O202 C205 1.320 . S
O203 Cd200 2.333 . S
O203 C205 1.214 . S
O204 Cd200 2.352 . S
O204 C207 1.258 . S
C205 O202 1.320 . S
C205 O203 1.214 . S
O206 Cd198 2.277 . S
O206 C201 1.209 . S
C207 O204 1.258 . S
C207 O209 1.282 . S
O208 Cd200 2.277 . S
O208 C201 1.226 . S
O209 Cd200 2.356 . S
O209 C207 1.282 . S
C210 O211 1.306 . S
C210 O213 1.160 . S
O211 C210 1.306 . S
O211 Cd212 2.228 . S
Cd212 O211 2.228 . S
Cd212 O216 2.273 . S
Cd212 O220 2.277 . S
O213 C210 1.160 . S
O213 Cd214 2.203 . S
Cd214 O213 2.203 . S
Cd214 O216 2.411 . S
Cd214 O217 2.333 . S
Cd214 O218 2.352 . S
Cd214 O222 2.277 . S
Cd214 O223 2.356 . S
C215 O220 1.209 . S
C215 O222 1.226 . S
O216 Cd212 2.273 . S
O216 Cd214 2.411 . S
O216 C219 1.320 . S
O217 Cd214 2.333 . S
O217 C219 1.214 . S
O218 Cd214 2.352 . S
O218 C221 1.258 . S
C219 O216 1.320 . S
C219 O217 1.214 . S
O220 Cd212 2.277 . S
O220 C215 1.209 . S
C221 O218 1.258 . S
C221 O223 1.282 . S
O222 Cd214 2.277 . S
O222 C215 1.226 . S
O223 Cd214 2.356 . S
O223 C221 1.282 . S
C224 O225 1.306 . S
C224 O227 1.160 . S
O225 C224 1.306 . S
O225 Cd226 2.228 . S
Cd226 O225 2.228 . S
Cd226 O230 2.273 . S
Cd226 O234 2.277 . S
O227 C224 1.160 . S
O227 Cd228 2.203 . S
Cd228 O227 2.203 . S
Cd228 O230 2.411 . S
Cd228 O231 2.333 . S
Cd228 O232 2.352 . S
Cd228 O236 2.277 . S
Cd228 O237 2.356 . S
C229 O234 1.209 . S
C229 O236 1.226 . S
O230 Cd226 2.273 . S
O230 Cd228 2.411 . S
O230 C233 1.320 . S
O231 Cd228 2.333 . S
O231 C233 1.214 . S
O232 Cd228 2.352 . S
O232 C235 1.258 . S
C233 O230 1.320 . S
C233 O231 1.214 . S
O234 Cd226 2.277 . S
O234 C229 1.209 . S
C235 O232 1.258 . S
C235 O237 1.282 . S
O236 Cd228 2.277 . S
O236 C229 1.226 . S
O237 Cd228 2.356 . S
O237 C235 1.282 . S
C238 O239 1.306 . S
C238 O241 1.160 . S
O239 C238 1.306 . S
O239 Cd240 2.228 . S
Cd240 O239 2.228 . S
Cd240 O244 2.273 . S
Cd240 O248 2.277 . S
O241 C238 1.160 . S
O241 Cd242 2.203 . S
Cd242 O241 2.203 . S
Cd242 O244 2.411 . S
Cd242 O245 2.333 . S
Cd242 O246 2.352 . S
Cd242 O250 2.277 . S
Cd242 O251 2.356 . S
C243 O248 1.209 . S
C243 O250 1.226 . S
O244 Cd240 2.273 . S
O244 Cd242 2.411 . S
O244 C247 1.320 . S
O245 Cd242 2.333 . S
O245 C247 1.214 . S
O246 Cd242 2.352 . S
O246 C249 1.258 . S
C247 O244 1.320 . S
C247 O245 1.214 . S
O248 Cd240 2.277 . S
O248 C243 1.209 . S
C249 O246 1.258 . S
C249 O251 1.282 . S
O250 Cd242 2.277 . S
O250 C243 1.226 . S
O251 Cd242 2.356 . S
O251 C249 1.282 . S
C252 O253 1.306 . S
C252 O255 1.160 . S
O253 C252 1.306 . S
O253 Cd254 2.228 . S
Cd254 O253 2.228 . S
Cd254 O258 2.273 . S
Cd254 O262 2.277 . S
O255 C252 1.160 . S
O255 Cd256 2.203 . S
Cd256 O255 2.203 . S
Cd256 O258 2.411 . S
Cd256 O259 2.333 . S
Cd256 O260 2.352 . S
Cd256 O264 2.277 . S
Cd256 O265 2.356 . S
C257 O262 1.209 . S
C257 O264 1.226 . S
O258 Cd254 2.273 . S
O258 Cd256 2.411 . S
O258 C261 1.320 . S
O259 Cd256 2.333 . S
O259 C261 1.214 . S
O260 Cd256 2.352 . S
O260 C263 1.258 . S
C261 O258 1.320 . S
C261 O259 1.214 . S
O262 Cd254 2.277 . S
O262 C257 1.209 . S
C263 O260 1.258 . S
C263 O265 1.282 . S
O264 Cd256 2.277 . S
O264 C257 1.226 . S
O265 Cd256 2.356 . S
O265 C263 1.282 . S
C266 O267 1.306 . S
C266 O269 1.160 . S
O267 C266 1.306 . S
O267 Cd268 2.228 . S
Cd268 O267 2.228 . S
Cd268 O272 2.273 . S
Cd268 O276 2.277 . S
O269 C266 1.160 . S
O269 Cd270 2.203 . S
Cd270 O269 2.203 . S
Cd270 O272 2.411 . S
Cd270 O273 2.333 . S
Cd270 O274 2.352 . S
Cd270 O278 2.277 . S
Cd270 O279 2.356 . S
C271 O276 1.209 . S
C271 O278 1.226 . S
O272 Cd268 2.273 . S
O272 Cd270 2.411 . S
O272 C275 1.320 . S
O273 Cd270 2.333 . S
O273 C275 1.214 . S
O274 Cd270 2.352 . S
O274 C277 1.258 . S
C275 O272 1.320 . S
C275 O273 1.214 . S
O276 Cd268 2.277 . S
O276 C271 1.209 . S
C277 O274 1.258 . S
C277 O279 1.282 . S
O278 Cd270 2.277 . S
O278 C271 1.226 . S
O279 Cd270 2.356 . S
O279 C277 1.282 . S
C280 O281 1.306 . S
C280 O283 1.160 . S
O281 C280 1.306 . S
O281 Cd282 2.228 . S
Cd282 O281 2.228 . S
Cd282 O286 2.273 . S
Cd282 O290 2.277 . S
O283 C280 1.160 . S
O283 Cd284 2.203 . S
Cd284 O283 2.203 . S
Cd284 O286 2.411 . S
Cd284 O287 2.333 . S
Cd284 O288 2.352 . S
Cd284 O292 2.277 . S
Cd284 O293 2.356 . S
C285 O290 1.209 . S
C285 O292 1.226 . S
O286 Cd282 2.273 . S
O286 Cd284 2.411 . S
O286 C289 1.320 . S
O287 Cd284 2.333 . S
O287 C289 1.214 . S
O288 Cd284 2.352 . S
O288 C291 1.258 . S
C289 O286 1.320 . S
C289 O287 1.214 . S
O290 Cd282 2.277 . S
O290 C285 1.209 . S
C291 O288 1.258 . S
C291 O293 1.282 . S
O292 Cd284 2.277 . S
O292 C285 1.226 . S
O293 Cd284 2.356 . S
O293 C291 1.282 . S
C294 O295 1.306 . S
C294 O297 1.160 . S
O295 C294 1.306 . S
O295 Cd296 2.228 . S
Cd296 O295 2.228 . S
Cd296 O300 2.273 . S
Cd296 O304 2.277 . S
O297 C294 1.160 . S
O297 Cd298 2.203 . S
Cd298 O297 2.203 . S
Cd298 O300 2.411 . S
Cd298 O301 2.333 . S
Cd298 O302 2.352 . S
Cd298 O306 2.277 . S
Cd298 O307 2.356 . S
C299 O304 1.209 . S
C299 O306 1.226 . S
O300 Cd296 2.273 . S
O300 Cd298 2.411 . S
O300 C303 1.320 . S
O301 Cd298 2.333 . S
O301 C303 1.214 . S
O302 Cd298 2.352 . S
O302 C305 1.258 . S
C303 O300 1.320 . S
C303 O301 1.214 . S
O304 Cd296 2.277 . S
O304 C299 1.209 . S
C305 O302 1.258 . S
C305 O307 1.282 . S
O306 Cd298 2.277 . S
O306 C299 1.226 . S
O307 Cd298 2.356 . S
O307 C305 1.282 . S
C308 O309 1.306 . S
C308 O311 1.160 . S
O309 C308 1.306 . S
O309 Cd310 2.228 . S
Cd310 O309 2.228 . S
Cd310 O314 2.273 . S
Cd310 O318 2.277 . S
O311 C308 1.160 . S
O311 Cd312 2.203 . S
Cd312 O311 2.203 . S
Cd312 O314 2.411 . S
Cd312 O315 2.333 . S
Cd312 O316 2.352 . S
Cd312 O320 2.277 . S
Cd312 O321 2.356 . S
C313 O318 1.209 . S
C313 O320 1.226 . S
O314 Cd310 2.273 . S
O314 Cd312 2.411 . S
O314 C317 1.320 . S
O315 Cd312 2.333 . S
O315 C317 1.214 . S
O316 Cd312 2.352 . S
O316 C319 1.258 . S
C317 O314 1.320 . S
C317 O315 1.214 . S
O318 Cd310 2.277 . S
O318 C313 1.209 . S
C319 O316 1.258 . S
C319 O321 1.282 . S
O320 Cd312 2.277 . S
O320 C313 1.226 . S
O321 Cd312 2.356 . S
O321 C319 1.282 . S
C322 O323 1.306 . S
C322 O325 1.160 . S
O323 C322 1.306 . S
O323 Cd324 2.228 . S
Cd324 O323 2.228 . S
Cd324 O328 2.273 . S
Cd324 O332 2.277 . S
O325 C322 1.160 . S
O325 Cd326 2.203 . S
Cd326 O325 2.203 . S
Cd326 O328 2.411 . S
Cd326 O329 2.333 . S
Cd326 O330 2.352 . S
Cd326 O334 2.277 . S
Cd326 O335 2.356 . S
C327 O332 1.209 . S
C327 O334 1.226 . S
O328 Cd324 2.273 . S
O328 Cd326 2.411 . S
O328 C331 1.320 . S
O329 Cd326 2.333 . S
O329 C331 1.214 . S
O330 Cd326 2.352 . S
O330 C333 1.258 . S
C331 O328 1.320 . S
C331 O329 1.214 . S
O332 Cd324 2.277 . S
O332 C327 1.209 . S
C333 O330 1.258 . S
C333 O335 1.282 . S
O334 Cd326 2.277 . S
O334 C327 1.226 . S
O335 Cd326 2.356 . S
O335 C333 1.282 . S
C336 O337 1.306 . S
C336 O339 1.160 . S
O337 C336 1.306 . S
O337 Cd338 2.228 . S
Cd338 O337 2.228 . S
Cd338 O342 2.273 . S
Cd338 O346 2.277 . S
O339 C336 1.160 . S
O339 Cd340 2.203 . S
Cd340 O339 2.203 . S
Cd340 O342 2.411 . S
Cd340 O343 2.333 . S
Cd340 O344 2.352 . S
Cd340 O348 2.277 . S
Cd340 O349 2.356 . S
C341 O346 1.209 . S
C341 O348 1.226 . S
O342 Cd338 2.273 . S
O342 Cd340 2.411 . S
O342 C345 1.320 . S
O343 Cd340 2.333 . S
O343 C345 1.214 . S
O344 Cd340 2.352 . S
O344 C347 1.258 . S
C345 O342 1.320 . S
C345 O343 1.214 . S
O346 Cd338 2.277 . S
O346 C341 1.209 . S
C347 O344 1.258 . S
C347 O349 1.282 . S
O348 Cd340 2.277 . S
O348 C341 1.226 . S
O349 Cd340 2.356 . S
O349 C347 1.282 . S
C350 O351 1.306 . S
C350 O353 1.160 . S
O351 C350 1.306 . S
O351 Cd352 2.228 . S
Cd352 O351 2.228 . S
Cd352 O356 2.273 . S
Cd352 O360 2.277 . S
O353 C350 1.160 . S
O353 Cd354 2.203 . S
Cd354 O353 2.203 . S
Cd354 O356 2.411 . S
Cd354 O357 2.333 . S
Cd354 O358 2.352 . S
Cd354 O362 2.277 . S
Cd354 O363 2.356 . S
C355 O360 1.209 . S
C355 O362 1.226 . S
O356 Cd352 2.273 . S
O356 Cd354 2.411 . S
O356 C359 1.320 . S
O357 Cd354 2.333 . S
O357 C359 1.214 . S
O358 Cd354 2.352 . S
O358 C361 1.258 . S
C359 O356 1.320 . S
C359 O357 1.214 . S
O360 Cd352 2.277 . S
O360 C355 1.209 . S
C361 O358 1.258 . S
C361 O363 1.282 . S
O362 Cd354 2.277 . S
O362 C355 1.226 . S
O363 Cd354 2.356 . S
O363 C361 1.282 . S
C364 O365 1.306 . S
C364 O367 1.160 . S
O365 C364 1.306 . S
O365 Cd366 2.228 . S
Cd366 O365 2.228 . S
Cd366 O370 2.273 . S
Cd366 O374 2.277 . S
O367 C364 1.160 . S
O367 Cd368 2.203 . S
Cd368 O367 2.203 . S
Cd368 O370 2.411 . S
Cd368 O371 2.333 . S
Cd368 O372 2.352 . S
Cd368 O376 2.277 . S
Cd368 O377 2.356 . S
C369 O374 1.209 . S
C369 O376 1.226 . S
O370 Cd366 2.273 . S
O370 Cd368 2.411 . S
O370 C373 1.320 . S
O371 Cd368 2.333 . S
O371 C373 1.214 . S
O372 Cd368 2.352 . S
O372 C375 1.258 . S
C373 O370 1.320 . S
C373 O371 1.214 . S
O374 Cd366 2.277 . S
O374 C369 1.209 . S
C375 O372 1.258 . S
C375 O377 1.282 . S
O376 Cd368 2.277 . S
O376 C369 1.226 . S
O377 Cd368 2.356 . S
O377 C375 1.282 . S
C378 O379 1.306 . S
C378 O381 1.160 . S
O379 C378 1.306 . S
O379 Cd380 2.228 . S
Cd380 O379 2.228 . S
Cd380 O384 2.273 . S
Cd380 O388 2.277 . S
O381 C378 1.160 . S
O381 Cd382 2.203 . S
Cd382 O381 2.203 . S
Cd382 O384 2.411 . S
Cd382 O385 2.333 . S
Cd382 O386 2.352 . S
Cd382 O390 2.277 . S
Cd382 O391 2.356 . S
C383 O388 1.209 . S
C383 O390 1.226 . S
O384 Cd380 2.273 . S
O384 Cd382 2.411 . S
O384 C387 1.320 . S
O385 Cd382 2.333 . S
O385 C387 1.214 . S
O386 Cd382 2.352 . S
O386 C389 1.258 . S
C387 O384 1.320 . S
C387 O385 1.214 . S
O388 Cd380 2.277 . S
O388 C383 1.209 . S
C389 O386 1.258 . S
C389 O391 1.282 . S
O390 Cd382 2.277 . S
O390 C383 1.226 . S
O391 Cd382 2.356 . S
O391 C389 1.282 . S
C392 O393 1.306 . S
C392 O395 1.160 . S
O393 C392 1.306 . S
O393 Cd394 2.228 . S
Cd394 O393 2.228 . S
Cd394 O398 2.273 . S
Cd394 O402 2.277 . S
O395 C392 1.160 . S
O395 Cd396 2.203 . S
Cd396 O395 2.203 . S
Cd396 O398 2.411 . S
Cd396 O399 2.333 . S
Cd396 O400 2.352 . S
Cd396 O404 2.277 . S
Cd396 O405 2.356 . S
C397 O402 1.209 . S
C397 O404 1.226 . S
O398 Cd394 2.273 . S
O398 Cd396 2.411 . S
O398 C401 1.320 . S
O399 Cd396 2.333 . S
O399 C401 1.214 . S
O400 Cd396 2.352 . S
O400 C403 1.258 . S
C401 O398 1.320 . S
C401 O399 1.214 . S
O402 Cd394 2.277 . S
O402 C397 1.209 . S
C403 O400 1.258 . S
C403 O405 1.282 . S
O404 Cd396 2.277 . S
O404 C397 1.226 . S
O405 Cd396 2.356 . S
O405 C403 1.282 . S
C406 O407 1.306 . S
C406 O409 1.160 . S
O407 C406 1.306 . S
O407 Cd408 2.228 . S
Cd408 O407 2.228 . S
Cd408 O412 2.273 . S
Cd408 O416 2.277 . S
O409 C406 1.160 . S
O409 Cd410 2.203 . S
Cd410 O409 2.203 . S
Cd410 O412 2.411 . S
Cd410 O413 2.333 . S
Cd410 O414 2.352 . S
Cd410 O418 2.277 . S
Cd410 O419 2.356 . S
C411 O416 1.209 . S
C411 O418 1.226 . S
O412 Cd408 2.273 . S
O412 Cd410 2.411 . S
O412 C415 1.320 . S
O413 Cd410 2.333 . S
O413 C415 1.214 . S
O414 Cd410 2.352 . S
O414 C417 1.258 . S
C415 O412 1.320 . S
C415 O413 1.214 . S
O416 Cd408 2.277 . S
O416 C411 1.209 . S
C417 O414 1.258 . S
C417 O419 1.282 . S
O418 Cd410 2.277 . S
O418 C411 1.226 . S
O419 Cd410 2.356 . S
O419 C417 1.282 . S
C420 O421 1.306 . S
C420 O423 1.160 . S
O421 C420 1.306 . S
O421 Cd422 2.228 . S
Cd422 O421 2.228 . S
Cd422 O426 2.273 . S
Cd422 O430 2.277 . S
O423 C420 1.160 . S
O423 Cd424 2.203 . S
Cd424 O423 2.203 . S
Cd424 O426 2.411 . S
Cd424 O427 2.333 . S
Cd424 O428 2.352 . S
Cd424 O432 2.277 . S
Cd424 O433 2.356 . S
C425 O430 1.209 . S
C425 O432 1.226 . S
O426 Cd422 2.273 . S
O426 Cd424 2.411 . S
O426 C429 1.320 . S
O427 Cd424 2.333 . S
O427 C429 1.214 . S
O428 Cd424 2.352 . S
O428 C431 1.258 . S
C429 O426 1.320 . S
C429 O427 1.214 . S
O430 Cd422 2.277 . S
O430 C425 1.209 . S
C431 O428 1.258 . S
C431 O433 1.282 . S
O432 Cd424 2.277 . S
O432 C425 1.226 . S
O433 Cd424 2.356 . S
O433 C431 1.282 . S
C434 O435 1.306 . S
C434 O437 1.160 . S
O435 C434 1.306 . S
O435 Cd436 2.228 . S
Cd436 O435 2.228 . S
Cd436 O440 2.273 . S
Cd436 O444 2.277 . S
O437 C434 1.160 . S
O437 Cd438 2.203 . S
Cd438 O437 2.203 . S
Cd438 O440 2.411 . S
Cd438 O441 2.333 . S
Cd438 O442 2.352 . S
Cd438 O446 2.277 . S
Cd438 O447 2.356 . S
C439 O444 1.209 . S
C439 O446 1.226 . S
O440 Cd436 2.273 . S
O440 Cd438 2.411 . S
O440 C443 1.320 . S
O441 Cd438 2.333 . S
O441 C443 1.214 . S
O442 Cd438 2.352 . S
O442 C445 1.258 . S
C443 O440 1.320 . S
C443 O441 1.214 . S
O444 Cd436 2.277 . S
O444 C439 1.209 . S
C445 O442 1.258 . S
C445 O447 1.282 . S
O446 Cd438 2.277 . S
O446 C439 1.226 . S
O447 Cd438 2.356 . S
O447 C445 1.282 . S
H448 C466 0.951 . S
H449 C468 0.951 . S
H450 C470 0.950 . S
H451 C471 0.950 . S
H452 C473 0.950 . S
H453 C476 0.950 . S
H454 C477 0.950 . S
H455 C479 0.950 . S
H456 C480 0.950 . S
H457 C481 0.951 . S
H458 C483 0.951 . S
H459 C485 0.950 . S
H460 C486 0.950 . S
H461 C488 0.950 . S
H462 C491 0.950 . S
H463 C492 0.950 . S
H464 C494 0.950 . S
H465 C495 0.950 . S
C466 H448 0.951 . S
C466 C467 1.366 . S
C466 C468 1.388 . S
C467 C466 1.366 . S
C467 C471 1.385 . S
C468 H449 0.951 . S
C468 C466 1.388 . S
C468 C469 1.366 . S
C469 C468 1.366 . S
C469 C470 1.414 . S
C469 C472 1.499 . S
C470 H450 0.950 . S
C470 C469 1.414 . S
C470 C471 1.374 . S
C471 H451 0.950 . S
C471 C467 1.385 . S
C471 C470 1.374 . S
C472 C469 1.499 . S
C472 C473 1.373 . S
C472 C474 1.389 . S
C473 H452 0.950 . S
C473 C472 1.373 . S
C473 C489 1.377 . S
C474 C472 1.389 . S
C474 C475 1.524 . S
C474 C488 1.377 . S
C475 C474 1.524 . S
C475 C476 1.397 . S
C475 C480 1.363 . S
C476 H453 0.950 . S
C476 C475 1.397 . S
C476 C477 1.334 . S
C477 H454 0.950 . S
C477 C476 1.334 . S
C477 C478 1.287 . S
C478 C477 1.287 . S
C478 C479 1.524 . S
C478 H497 0.913 . S
C479 H455 0.950 . S
C479 C478 1.524 . S
C479 C480 1.415 . S
C480 H456 0.950 . S
C480 C475 1.363 . S
C480 C479 1.415 . S
C481 H457 0.951 . S
C481 C482 1.366 . S
C481 C483 1.388 . S
C482 C481 1.366 . S
C482 C486 1.385 . S
C483 H458 0.951 . S
C483 C481 1.388 . S
C483 C484 1.366 . S
C484 C483 1.366 . S
C484 C485 1.414 . S
C484 C487 1.499 . S
C485 H459 0.950 . S
C485 C484 1.414 . S
C485 C486 1.374 . S
C486 H460 0.950 . S
C486 C482 1.385 . S
C486 C485 1.374 . S
C487 C484 1.499 . S
C487 C488 1.373 . S
C487 C489 1.389 . S
C488 H461 0.950 . S
C488 C474 1.377 . S
C488 C487 1.373 . S
C489 C473 1.377 . S
C489 C487 1.389 . S
C489 C490 1.524 . S
C490 C489 1.524 . S
C490 C491 1.397 . S
C490 C495 1.363 . S
C491 H462 0.950 . S
C491 C490 1.397 . S
C491 C492 1.334 . S
C492 H463 0.950 . S
C492 C491 1.334 . S
C492 C493 1.287 . S
C493 C492 1.287 . S
C493 C494 1.524 . S
C493 H496 0.999 . S
C494 H464 0.950 . S
C494 C493 1.524 . S
C494 C495 1.415 . S
C495 H465 0.950 . S
C495 C490 1.363 . S
C495 C494 1.415 . S
H496 C493 0.999 . S
H497 C478 0.913 . S
H498 C516 0.951 . S
H499 C518 0.951 . S
H500 C520 0.950 . S
H501 C521 0.950 . S
H502 C523 0.950 . S
H503 C526 0.950 . S
H504 C527 0.950 . S
H505 C529 0.950 . S
H506 C530 0.950 . S
H507 C531 0.951 . S
H508 C533 0.951 . S
H509 C535 0.950 . S
H510 C536 0.950 . S
H511 C538 0.950 . S
H512 C541 0.950 . S
H513 C542 0.950 . S
H514 C544 0.950 . S
H515 C545 0.950 . S
C516 H498 0.951 . S
C516 C517 1.366 . S
C516 C518 1.388 . S
C517 C516 1.366 . S
C517 C521 1.385 . S
C518 H499 0.951 . S
C518 C516 1.388 . S
C518 C519 1.366 . S
C519 C518 1.366 . S
C519 C520 1.414 . S
C519 C522 1.499 . S
C520 H500 0.950 . S
C520 C519 1.414 . S
C520 C521 1.374 . S
C521 H501 0.950 . S
C521 C517 1.385 . S
C521 C520 1.374 . S
C522 C519 1.499 . S
C522 C523 1.373 . S
C522 C524 1.389 . S
C523 H502 0.950 . S
C523 C522 1.373 . S
C523 C539 1.377 1_565 S
C524 C522 1.389 . S
C524 C525 1.524 . S
C524 C538 1.377 1_565 S
C525 C524 1.524 . S
C525 C526 1.397 . S
C525 C530 1.363 1_565 S
C526 H503 0.950 . S
C526 C525 1.397 . S
C526 C527 1.334 . S
C527 H504 0.950 . S
C527 C526 1.334 . S
C527 C528 1.287 . S
C528 C527 1.287 . S
C528 C529 1.524 1_565 S
C528 H547 0.913 . S
C529 H505 0.950 . S
C529 C528 1.524 1_545 S
C529 C530 1.415 . S
C530 H506 0.950 . S
C530 C525 1.363 1_545 S
C530 C529 1.415 . S
C531 H507 0.951 . S
C531 C532 1.366 . S
C531 C533 1.388 . S
C532 C531 1.366 . S
C532 C536 1.385 . S
C533 H508 0.951 . S
C533 C531 1.388 . S
C533 C534 1.366 . S
C534 C533 1.366 . S
C534 C535 1.414 . S
C534 C537 1.499 . S
C535 H509 0.950 . S
C535 C534 1.414 . S
C535 C536 1.374 . S
C536 H510 0.950 . S
C536 C532 1.385 . S
C536 C535 1.374 . S
C537 C534 1.499 . S
C537 C538 1.373 . S
C537 C539 1.389 . S
C538 H511 0.950 . S
C538 C524 1.377 1_545 S
C538 C537 1.373 . S
C539 C523 1.377 1_545 S
C539 C537 1.389 . S
C539 C540 1.524 . S
C540 C539 1.524 . S
C540 C541 1.397 . S
C540 C545 1.363 1_545 S
C541 H512 0.950 . S
C541 C540 1.397 . S
C541 C542 1.334 . S
C542 H513 0.950 . S
C542 C541 1.334 . S
C542 C543 1.287 . S
C543 C542 1.287 . S
C543 C544 1.524 1_545 S
C543 H546 0.999 . S
C544 H514 0.950 . S
C544 C543 1.524 1_565 S
C544 C545 1.415 . S
C545 H515 0.950 . S
C545 C540 1.363 1_565 S
C545 C544 1.415 . S
H546 C543 0.999 . S
H547 C528 0.913 . S
H548 C566 0.951 . S
H549 C568 0.951 . S
H550 C570 0.950 . S
H551 C571 0.950 . S
H552 C573 0.950 . S
H553 C576 0.950 . S
H554 C577 0.950 . S
H555 C579 0.950 . S
H556 C580 0.950 . S
H557 C581 0.951 . S
H558 C583 0.951 . S
H559 C585 0.950 . S
H560 C586 0.950 . S
H561 C588 0.950 . S
H562 C591 0.950 . S
H563 C592 0.950 . S
H564 C594 0.950 . S
H565 C595 0.950 . S
C566 H548 0.951 . S
C566 C567 1.366 . S
C566 C568 1.388 . S
C567 C566 1.366 . S
C567 C571 1.385 . S
C568 H549 0.951 . S
C568 C566 1.388 . S
C568 C569 1.366 . S
C569 C568 1.366 . S
C569 C570 1.414 . S
C569 C572 1.499 . S
C570 H550 0.950 . S
C570 C569 1.414 . S
C570 C571 1.374 . S
C571 H551 0.950 . S
C571 C567 1.385 . S
C571 C570 1.374 . S
C572 C569 1.499 . S
C572 C573 1.373 . S
C572 C574 1.389 . S
C573 H552 0.950 . S
C573 C572 1.373 . S
C573 C589 1.377 . S
C574 C572 1.389 . S
C574 C575 1.524 . S
C574 C588 1.377 . S
C575 C574 1.524 . S
C575 C576 1.397 . S
C575 C580 1.363 . S
C576 H553 0.950 . S
C576 C575 1.397 . S
C576 C577 1.334 . S
C577 H554 0.950 . S
C577 C576 1.334 . S
C577 C578 1.287 . S
C578 C577 1.287 . S
C578 C579 1.524 . S
C578 H597 0.913 . S
C579 H555 0.950 . S
C579 C578 1.524 . S
C579 C580 1.415 . S
C580 H556 0.950 . S
C580 C575 1.363 . S
C580 C579 1.415 . S
C581 H557 0.951 . S
C581 C582 1.366 . S
C581 C583 1.388 . S
C582 C581 1.366 . S
C582 C586 1.385 . S
C583 H558 0.951 . S
C583 C581 1.388 . S
C583 C584 1.366 . S
C584 C583 1.366 . S
C584 C585 1.414 . S
C584 C587 1.499 . S
C585 H559 0.950 . S
C585 C584 1.414 . S
C585 C586 1.374 . S
C586 H560 0.950 . S
C586 C582 1.385 . S
C586 C585 1.374 . S
C587 C584 1.499 . S
C587 C588 1.373 . S
C587 C589 1.389 . S
C588 H561 0.950 . S
C588 C574 1.377 . S
C588 C587 1.373 . S
C589 C573 1.377 . S
C589 C587 1.389 . S
C589 C590 1.524 . S
C590 C589 1.524 . S
C590 C591 1.397 . S
C590 C595 1.363 . S
C591 H562 0.950 . S
C591 C590 1.397 . S
C591 C592 1.334 . S
C592 H563 0.950 . S
C592 C591 1.334 . S
C592 C593 1.287 . S
C593 C592 1.287 . S
C593 C594 1.524 . S
C593 H596 0.999 . S
C594 H564 0.950 . S
C594 C593 1.524 . S
C594 C595 1.415 . S
C595 H565 0.950 . S
C595 C590 1.363 . S
C595 C594 1.415 . S
H596 C593 0.999 . S
H597 C578 0.913 . S
H598 C616 0.951 . S
H599 C618 0.951 . S
H600 C620 0.950 . S
H601 C621 0.950 . S
H602 C623 0.950 . S
H603 C626 0.950 . S
H604 C627 0.950 . S
H605 C629 0.950 . S
H606 C630 0.950 . S
H607 C631 0.951 . S
H608 C633 0.951 . S
H609 C635 0.950 . S
H610 C636 0.950 . S
H611 C638 0.950 . S
H612 C641 0.950 . S
H613 C642 0.950 . S
H614 C644 0.950 . S
H615 C645 0.950 . S
C616 H598 0.951 . S
C616 C617 1.366 . S
C616 C618 1.388 . S
C617 C616 1.366 . S
C617 C621 1.385 . S
C618 H599 0.951 . S
C618 C616 1.388 . S
C618 C619 1.366 . S
C619 C618 1.366 . S
C619 C620 1.414 . S
C619 C622 1.499 . S
C620 H600 0.950 . S
C620 C619 1.414 . S
C620 C621 1.374 . S
C621 H601 0.950 . S
C621 C617 1.385 . S
C621 C620 1.374 . S
C622 C619 1.499 . S
C622 C623 1.373 1_556 S
C622 C624 1.389 . S
C623 H602 0.950 . S
C623 C622 1.373 1_554 S
C623 C639 1.377 1_545 S
C624 C622 1.389 . S
C624 C625 1.524 . S
C624 C638 1.377 1_545 S
C625 C624 1.524 . S
C625 C626 1.397 . S
C625 C630 1.363 1_545 S
C626 H603 0.950 . S
C626 C625 1.397 . S
C626 C627 1.334 . S
C627 H604 0.950 . S
C627 C626 1.334 . S
C627 C628 1.287 . S
C628 C627 1.287 . S
C628 C629 1.524 1_545 S
C628 H647 0.913 . S
C629 H605 0.950 . S
C629 C628 1.524 1_565 S
C629 C630 1.415 . S
C630 H606 0.950 . S
C630 C625 1.363 1_565 S
C630 C629 1.415 . S
C631 H607 0.951 . S
C631 C632 1.366 . S
C631 C633 1.388 . S
C632 C631 1.366 . S
C632 C636 1.385 . S
C633 H608 0.951 . S
C633 C631 1.388 . S
C633 C634 1.366 . S
C634 C633 1.366 . S
C634 C635 1.414 . S
C634 C637 1.499 . S
C635 H609 0.950 . S
C635 C634 1.414 . S
C635 C636 1.374 . S
C636 H610 0.950 . S
C636 C632 1.385 . S
C636 C635 1.374 . S
C637 C634 1.499 . S
C637 C638 1.373 1_554 S
C637 C639 1.389 . S
C638 H611 0.950 . S
C638 C624 1.377 1_565 S
C638 C637 1.373 1_556 S
C639 C623 1.377 1_565 S
C639 C637 1.389 . S
C639 C640 1.524 . S
C640 C639 1.524 . S
C640 C641 1.397 . S
C640 C645 1.363 1_565 S
C641 H612 0.950 . S
C641 C640 1.397 . S
C641 C642 1.334 . S
C642 H613 0.950 . S
C642 C641 1.334 . S
C642 C643 1.287 . S
C643 C642 1.287 . S
C643 C644 1.524 1_565 S
C643 H646 0.999 . S
C644 H614 0.950 . S
C644 C643 1.524 1_545 S
C644 C645 1.415 . S
C645 H615 0.950 . S
C645 C640 1.363 1_545 S
C645 C644 1.415 . S
H646 C643 0.999 . S
H647 C628 0.913 . S
H648 C666 0.951 . S
H649 C668 0.951 . S
H650 C670 0.950 . S
H651 C671 0.950 . S
H652 C673 0.950 . S
H653 C676 0.950 . S
H654 C677 0.950 . S
H655 C679 0.950 . S
H656 C680 0.950 . S
H657 C681 0.951 . S
H658 C683 0.951 . S
H659 C685 0.950 . S
H660 C686 0.950 . S
H661 C688 0.950 . S
H662 C691 0.950 . S
H663 C692 0.950 . S
H664 C694 0.950 . S
H665 C695 0.950 . S
C666 H648 0.951 . S
C666 C667 1.366 . S
C666 C668 1.388 . S
C667 C666 1.366 . S
C667 C671 1.385 . S
C668 H649 0.951 . S
C668 C666 1.388 . S
C668 C669 1.366 . S
C669 C668 1.366 . S
C669 C670 1.414 . S
C669 C672 1.499 . S
C670 H650 0.950 . S
C670 C669 1.414 . S
C670 C671 1.374 . S
C671 H651 0.950 . S
C671 C667 1.385 . S
C671 C670 1.374 . S
C672 C669 1.499 . S
C672 C673 1.373 . S
C672 C674 1.389 . S
C673 H652 0.950 . S
C673 C672 1.373 . S
C673 C689 1.377 . S
C674 C672 1.389 . S
C674 C675 1.524 . S
C674 C688 1.377 . S
C675 C674 1.524 . S
C675 C676 1.397 . S
C675 C680 1.363 . S
C676 H653 0.950 . S
C676 C675 1.397 . S
C676 C677 1.334 . S
C677 H654 0.950 . S
C677 C676 1.334 . S
C677 C678 1.287 . S
C678 C677 1.287 . S
C678 C679 1.524 . S
C678 H697 0.913 . S
C679 H655 0.950 . S
C679 C678 1.524 . S
C679 C680 1.415 . S
C680 H656 0.950 . S
C680 C675 1.363 . S
C680 C679 1.415 . S
C681 H657 0.951 . S
C681 C682 1.366 . S
C681 C683 1.388 . S
C682 C681 1.366 . S
C682 C686 1.385 . S
C683 H658 0.951 . S
C683 C681 1.388 . S
C683 C684 1.366 . S
C684 C683 1.366 . S
C684 C685 1.414 . S
C684 C687 1.499 . S
C685 H659 0.950 . S
C685 C684 1.414 . S
C685 C686 1.374 . S
C686 H660 0.950 . S
C686 C682 1.385 . S
C686 C685 1.374 . S
C687 C684 1.499 . S
C687 C688 1.373 . S
C687 C689 1.389 . S
C688 H661 0.950 . S
C688 C674 1.377 . S
C688 C687 1.373 . S
C689 C673 1.377 . S
C689 C687 1.389 . S
C689 C690 1.524 . S
C690 C689 1.524 . S
C690 C691 1.397 . S
C690 C695 1.363 . S
C691 H662 0.950 . S
C691 C690 1.397 . S
C691 C692 1.334 . S
C692 H663 0.950 . S
C692 C691 1.334 . S
C692 C693 1.287 . S
C693 C692 1.287 . S
C693 C694 1.524 . S
C693 H696 0.999 . S
C694 H664 0.950 . S
C694 C693 1.524 . S
C694 C695 1.415 . S
C695 H665 0.950 . S
C695 C690 1.363 . S
C695 C694 1.415 . S
H696 C693 0.999 . S
H697 C678 0.913 . S
H698 C716 0.951 . S
H699 C718 0.951 . S
H700 C720 0.950 . S
H701 C721 0.950 . S
H702 C723 0.950 . S
H703 C726 0.950 . S
H704 C727 0.950 . S
H705 C729 0.950 . S
H706 C730 0.950 . S
H707 C731 0.951 . S
H708 C733 0.951 . S
H709 C735 0.950 . S
H710 C736 0.950 . S
H711 C738 0.950 . S
H712 C741 0.950 . S
H713 C742 0.950 . S
H714 C744 0.950 . S
H715 C745 0.950 . S
C716 H698 0.951 . S
C716 C717 1.366 . S
C716 C718 1.388 . S
C717 C716 1.366 . S
C717 C721 1.385 . S
C718 H699 0.951 . S
C718 C716 1.388 . S
C718 C719 1.366 . S
C719 C718 1.366 . S
C719 C720 1.414 . S
C719 C722 1.499 . S
C720 H700 0.950 . S
C720 C719 1.414 . S
C720 C721 1.374 . S
C721 H701 0.950 . S
C721 C717 1.385 . S
C721 C720 1.374 . S
C722 C719 1.499 . S
C722 C723 1.373 . S
C722 C724 1.389 . S
C723 H702 0.950 . S
C723 C722 1.373 . S
C723 C739 1.377 1_565 S
C724 C722 1.389 . S
C724 C725 1.524 . S
C724 C738 1.377 1_565 S
C725 C724 1.524 . S
C725 C726 1.397 . S
C725 C730 1.363 . S
C726 H703 0.950 . S
C726 C725 1.397 . S
C726 C727 1.334 . S
C727 H704 0.950 . S
C727 C726 1.334 . S
C727 C728 1.287 . S
C728 C727 1.287 . S
C728 C729 1.524 . S
C728 H747 0.913 . S
C729 H705 0.950 . S
C729 C728 1.524 . S
C729 C730 1.415 . S
C730 H706 0.950 . S
C730 C725 1.363 . S
C730 C729 1.415 . S
C731 H707 0.951 . S
C731 C732 1.366 . S
C731 C733 1.388 . S
C732 C731 1.366 . S
C732 C736 1.385 . S
C733 H708 0.951 . S
C733 C731 1.388 . S
C733 C734 1.366 . S
C734 C733 1.366 . S
C734 C735 1.414 . S
C734 C737 1.499 . S
C735 H709 0.950 . S
C735 C734 1.414 . S
C735 C736 1.374 . S
C736 H710 0.950 . S
C736 C732 1.385 . S
C736 C735 1.374 . S
C737 C734 1.499 . S
C737 C738 1.373 . S
C737 C739 1.389 . S
C738 H711 0.950 . S
C738 C724 1.377 1_545 S
C738 C737 1.373 . S
C739 C723 1.377 1_545 S
C739 C737 1.389 . S
C739 C740 1.524 . S
C740 C739 1.524 . S
C740 C741 1.397 . S
C740 C745 1.363 . S
C741 H712 0.950 . S
C741 C740 1.397 . S
C741 C742 1.334 . S
C742 H713 0.950 . S
C742 C741 1.334 . S
C742 C743 1.287 . S
C743 C742 1.287 . S
C743 C744 1.524 . S
C743 H746 0.999 . S
C744 H714 0.950 . S
C744 C743 1.524 . S
C744 C745 1.415 . S
C745 H715 0.950 . S
C745 C740 1.363 . S
C745 C744 1.415 . S
H746 C743 0.999 . S
H747 C728 0.913 . S
H748 C766 0.951 . S
H749 C768 0.951 . S
H750 C770 0.950 . S
H751 C771 0.950 . S
H752 C773 0.950 . S
H753 C776 0.950 . S
H754 C777 0.950 . S
H755 C779 0.950 . S
H756 C780 0.950 . S
H757 C781 0.951 . S
H758 C783 0.951 . S
H759 C785 0.950 . S
H760 C786 0.950 . S
H761 C788 0.950 . S
H762 C791 0.950 . S
H763 C792 0.950 . S
H764 C794 0.950 . S
H765 C795 0.950 . S
C766 H748 0.951 . S
C766 C767 1.366 . S
C766 C768 1.388 . S
C767 C766 1.366 . S
C767 C771 1.385 . S
C768 H749 0.951 . S
C768 C766 1.388 . S
C768 C769 1.366 . S
C769 C768 1.366 . S
C769 C770 1.414 . S
C769 C772 1.499 . S
C770 H750 0.950 . S
C770 C769 1.414 . S
C770 C771 1.374 . S
C771 H751 0.950 . S
C771 C767 1.385 . S
C771 C770 1.374 . S
C772 C769 1.499 . S
C772 C773 1.373 . S
C772 C774 1.389 . S
C773 H752 0.950 . S
C773 C772 1.373 . S
C773 C789 1.377 . S
C774 C772 1.389 . S
C774 C775 1.524 . S
C774 C788 1.377 . S
C775 C774 1.524 . S
C775 C776 1.397 . S
C775 C780 1.363 . S
C776 H753 0.950 . S
C776 C775 1.397 . S
C776 C777 1.334 . S
C777 H754 0.950 . S
C777 C776 1.334 . S
C777 C778 1.287 . S
C778 C777 1.287 . S
C778 C779 1.524 . S
C778 H797 0.913 . S
C779 H755 0.950 . S
C779 C778 1.524 . S
C779 C780 1.415 . S
C780 H756 0.950 . S
C780 C775 1.363 . S
C780 C779 1.415 . S
C781 H757 0.951 . S
C781 C782 1.366 . S
C781 C783 1.388 . S
C782 C781 1.366 . S
C782 C786 1.385 . S
C783 H758 0.951 . S
C783 C781 1.388 . S
C783 C784 1.366 . S
C784 C783 1.366 . S
C784 C785 1.414 . S
C784 C787 1.499 . S
C785 H759 0.950 . S
C785 C784 1.414 . S
C785 C786 1.374 . S
C786 H760 0.950 . S
C786 C782 1.385 . S
C786 C785 1.374 . S
C787 C784 1.499 . S
C787 C788 1.373 . S
C787 C789 1.389 . S
C788 H761 0.950 . S
C788 C774 1.377 . S
C788 C787 1.373 . S
C789 C773 1.377 . S
C789 C787 1.389 . S
C789 C790 1.524 . S
C790 C789 1.524 . S
C790 C791 1.397 . S
C790 C795 1.363 . S
C791 H762 0.950 . S
C791 C790 1.397 . S
C791 C792 1.334 . S
C792 H763 0.950 . S
C792 C791 1.334 . S
C792 C793 1.287 . S
C793 C792 1.287 . S
C793 C794 1.524 . S
C793 H796 0.999 . S
C794 H764 0.950 . S
C794 C793 1.524 . S
C794 C795 1.415 . S
C795 H765 0.950 . S
C795 C790 1.363 . S
C795 C794 1.415 . S
H796 C793 0.999 . S
H797 C778 0.913 . S
H798 C816 0.951 . S
H799 C818 0.951 1_554 S
H800 C820 0.950 . S
H801 C821 0.950 . S
H802 C823 0.950 . S
H803 C826 0.950 . S
H804 C827 0.950 . S
H805 C829 0.950 . S
H806 C830 0.950 . S
H807 C831 0.951 . S
H808 C833 0.951 1_556 S
H809 C835 0.950 . S
H810 C836 0.950 . S
H811 C838 0.950 . S
H812 C841 0.950 . S
H813 C842 0.950 . S
H814 C844 0.950 . S
H815 C845 0.950 . S
C816 H798 0.951 . S
C816 C817 1.366 . S
C816 C818 1.388 . S
C817 C816 1.366 . S
C817 C821 1.385 . S
C818 H799 0.951 1_556 S
C818 C816 1.388 . S
C818 C819 1.366 . S
C819 C818 1.366 . S
C819 C820 1.414 . S
C819 C822 1.499 . S
C820 H800 0.950 . S
C820 C819 1.414 . S
C820 C821 1.374 . S
C821 H801 0.950 . S
C821 C817 1.385 . S
C821 C820 1.374 . S
C822 C819 1.499 . S
C822 C823 1.373 . S
C822 C824 1.378 1_556 S
C823 H802 0.950 . S
C823 C822 1.373 . S
C823 C839 1.388 1_545 S
C824 C822 1.378 1_554 S
C824 C825 1.524 . S
C824 C838 1.388 1_545 S
C825 C824 1.524 . S
C825 C826 1.380 1_554 S
C825 C830 1.379 . S
C826 H803 0.950 . S
C826 C825 1.380 1_556 S
C826 C827 1.334 . S
C827 H804 0.950 . S
C827 C826 1.334 . S
C827 C828 1.287 . S
C828 C827 1.287 . S
C828 C829 1.524 1_556 S
C828 H847 0.913 . S
C829 H805 0.950 . S
C829 C828 1.524 1_554 S
C829 C830 1.415 . S
C830 H806 0.950 . S
C830 C825 1.379 . S
C830 C829 1.415 . S
C831 H807 0.951 . S
C831 C832 1.366 . S
C831 C833 1.388 . S
C832 C831 1.366 . S
C832 C836 1.385 . S
C833 H808 0.951 1_554 S
C833 C831 1.388 . S
C833 C834 1.366 . S
C834 C833 1.366 . S
C834 C835 1.414 . S
C834 C837 1.499 . S
C835 H809 0.950 . S
C835 C834 1.414 . S
C835 C836 1.374 . S
C836 H810 0.950 . S
C836 C832 1.385 . S
C836 C835 1.374 . S
C837 C834 1.499 . S
C837 C838 1.373 . S
C837 C839 1.378 1_554 S
C838 H811 0.950 . S
C838 C824 1.388 1_565 S
C838 C837 1.373 . S
C839 C823 1.388 1_565 S
C839 C837 1.378 1_556 S
C839 C840 1.524 . S
C840 C839 1.524 . S
C840 C841 1.380 1_556 S
C840 C845 1.379 . S
C841 H812 0.950 . S
C841 C840 1.380 1_554 S
C841 C842 1.334 . S
C842 H813 0.950 . S
C842 C841 1.334 . S
C842 C843 1.287 . S
C843 C842 1.287 . S
C843 C844 1.524 1_554 S
C843 H846 0.999 . S
C844 H814 0.950 . S
C844 C843 1.524 1_556 S
C844 C845 1.415 . S
C845 H815 0.950 . S
C845 C840 1.379 . S
C845 C844 1.415 . S
H846 C843 0.999 . S
H847 C828 0.913 . S
H848 C866 0.951 . S
H849 C868 0.951 . S
H850 C870 0.950 . S
H851 C871 0.950 . S
H852 C873 0.950 . S
H853 C876 0.950 . S
H854 C877 0.950 . S
H855 C879 0.950 . S
H856 C880 0.950 . S
H857 C881 0.951 . S
H858 C883 0.951 . S
H859 C885 0.950 . S
H860 C886 0.950 . S
H861 C888 0.950 . S
H862 C891 0.950 . S
H863 C892 0.950 . S
H864 C894 0.950 . S
H865 C895 0.950 . S
C866 H848 0.951 . S
C866 C867 1.366 . S
C866 C868 1.388 . S
C867 C866 1.366 . S
C867 C871 1.385 . S
C868 H849 0.951 . S
C868 C866 1.388 . S
C868 C869 1.366 . S
C869 C868 1.366 . S
C869 C870 1.414 . S
C869 C872 1.499 . S
C870 H850 0.950 . S
C870 C869 1.414 . S
C870 C871 1.374 . S
C871 H851 0.950 . S
C871 C867 1.385 . S
C871 C870 1.374 . S
C872 C869 1.499 . S
C872 C873 1.373 . S
C872 C874 1.389 . S
C873 H852 0.950 . S
C873 C872 1.373 . S
C873 C889 1.377 . S
C874 C872 1.389 . S
C874 C875 1.524 . S
C874 C888 1.377 . S
C875 C874 1.524 . S
C875 C876 1.397 . S
C875 C880 1.363 . S
C876 H853 0.950 . S
C876 C875 1.397 . S
C876 C877 1.334 . S
C877 H854 0.950 . S
C877 C876 1.334 . S
C877 C878 1.287 . S
C878 C877 1.287 . S
C878 C879 1.524 . S
C878 H897 0.913 . S
C879 H855 0.950 . S
C879 C878 1.524 . S
C879 C880 1.415 . S
C880 H856 0.950 . S
C880 C875 1.363 . S
C880 C879 1.415 . S
C881 H857 0.951 . S
C881 C882 1.366 . S
C881 C883 1.388 . S
C882 C881 1.366 . S
C882 C886 1.385 . S
C883 H858 0.951 . S
C883 C881 1.388 . S
C883 C884 1.366 . S
C884 C883 1.366 . S
C884 C885 1.414 . S
C884 C887 1.499 . S
C885 H859 0.950 . S
C885 C884 1.414 . S
C885 C886 1.374 . S
C886 H860 0.950 . S
C886 C882 1.385 . S
C886 C885 1.374 . S
C887 C884 1.499 . S
C887 C888 1.373 . S
C887 C889 1.389 . S
C888 H861 0.950 . S
C888 C874 1.377 . S
C888 C887 1.373 . S
C889 C873 1.377 . S
C889 C887 1.389 . S
C889 C890 1.524 . S
C890 C889 1.524 . S
C890 C891 1.397 . S
C890 C895 1.363 . S
C891 H862 0.950 . S
C891 C890 1.397 . S
C891 C892 1.334 . S
C892 H863 0.950 . S
C892 C891 1.334 . S
C892 C893 1.287 . S
C893 C892 1.287 . S
C893 C894 1.524 . S
C893 H896 0.999 . S
C894 H864 0.950 . S
C894 C893 1.524 . S
C894 C895 1.415 . S
C895 H865 0.950 . S
C895 C890 1.363 . S
C895 C894 1.415 . S
H896 C893 0.999 . S
H897 C878 0.913 . S
H898 C916 0.951 . S
H899 C918 0.952 1_554 S
H900 C920 0.950 . S
H901 C921 0.950 . S
H902 C923 0.950 . S
H903 C926 0.950 . S
H904 C927 0.950 . S
H905 C929 0.950 . S
H906 C930 0.950 1_554 S
H907 C931 0.951 . S
H908 C933 0.952 1_556 S
H909 C935 0.950 . S
H910 C936 0.950 . S
H911 C938 0.950 . S
H912 C941 0.950 . S
H913 C942 0.950 . S
H914 C944 0.950 . S
H915 C945 0.950 1_556 S
C916 H898 0.951 . S
C916 C917 1.366 . S
C916 C918 1.388 . S
C917 C916 1.366 . S
C917 C921 1.385 . S
C918 H899 0.952 1_556 S
C918 C916 1.388 . S
C918 C919 1.366 . S
C919 C918 1.366 . S
C919 C920 1.414 . S
C919 C922 1.499 . S
C920 H900 0.950 . S
C920 C919 1.414 . S
C920 C921 1.374 . S
C921 H901 0.950 . S
C921 C917 1.385 . S
C921 C920 1.374 . S
C922 C919 1.499 . S
C922 C923 1.373 . S
C922 C924 1.389 . S
C923 H902 0.950 . S
C923 C922 1.373 . S
C923 C939 1.377 1_556 S
C924 C922 1.389 . S
C924 C925 1.524 . S
C924 C938 1.377 1_556 S
C925 C924 1.524 . S
C925 C926 1.397 . S
C925 C930 1.363 . S
C926 H903 0.950 . S
C926 C925 1.397 . S
C926 C927 1.334 . S
C927 H904 0.950 . S
C927 C926 1.334 . S
C927 C928 1.287 . S
C928 C927 1.287 . S
C928 C929 1.524 . S
C928 H947 0.913 . S
C929 H905 0.950 . S
C929 C928 1.524 . S
C929 C930 1.415 . S
C930 H906 0.950 1_556 S
C930 C925 1.363 . S
C930 C929 1.415 . S
C931 H907 0.951 . S
C931 C932 1.366 . S
C931 C933 1.388 . S
C932 C931 1.366 . S
C932 C936 1.385 . S
C933 H908 0.952 1_554 S
C933 C931 1.388 . S
C933 C934 1.366 . S
C934 C933 1.366 . S
C934 C935 1.414 . S
C934 C937 1.499 . S
C935 H909 0.950 . S
C935 C934 1.414 . S
C935 C936 1.374 . S
C936 H910 0.950 . S
C936 C932 1.385 . S
C936 C935 1.374 . S
C937 C934 1.499 . S
C937 C938 1.373 . S
C937 C939 1.389 . S
C938 H911 0.950 . S
C938 C924 1.377 1_554 S
C938 C937 1.373 . S
C939 C923 1.377 1_554 S
C939 C937 1.389 . S
C939 C940 1.524 . S
C940 C939 1.524 . S
C940 C941 1.397 . S
C940 C945 1.363 . S
C941 H912 0.950 . S
C941 C940 1.397 . S
C941 C942 1.334 . S
C942 H913 0.950 . S
C942 C941 1.334 . S
C942 C943 1.287 . S
C943 C942 1.287 . S
C943 C944 1.524 . S
C943 H946 0.999 . S
C944 H914 0.950 . S
C944 C943 1.524 . S
C944 C945 1.415 . S
C945 H915 0.950 1_554 S
C945 C940 1.363 . S
C945 C944 1.415 . S
H946 C943 0.999 . S
H947 C928 0.913 . S
H948 C966 0.951 . S
H949 C968 0.951 . S
H950 C970 0.950 . S
H951 C971 0.950 . S
H952 C973 0.950 . S
H953 C976 0.950 . S
H954 C977 0.950 . S
H955 C979 0.950 . S
H956 C980 0.950 . S
H957 C981 0.951 . S
H958 C983 0.951 . S
H959 C985 0.950 . S
H960 C986 0.950 . S
H961 C988 0.950 . S
H962 C991 0.950 . S
H963 C992 0.950 . S
H964 C994 0.950 . S
H965 C995 0.950 . S
C966 H948 0.951 . S
C966 C967 1.366 . S
C966 C968 1.388 . S
C967 C966 1.366 . S
C967 C971 1.385 . S
C968 H949 0.951 . S
C968 C966 1.388 . S
C968 C969 1.366 . S
C969 C968 1.366 . S
C969 C970 1.414 . S
C969 C972 1.499 . S
C970 H950 0.950 . S
C970 C969 1.414 . S
C970 C971 1.374 . S
C971 H951 0.950 . S
C971 C967 1.385 . S
C971 C970 1.374 . S
C972 C969 1.499 . S
C972 C973 1.373 . S
C972 C974 1.389 . S
C973 H952 0.950 . S
C973 C972 1.373 . S
C973 C989 1.377 . S
C974 C972 1.389 . S
C974 C975 1.524 . S
C974 C988 1.377 . S
C975 C974 1.524 . S
C975 C976 1.397 . S
C975 C980 1.363 . S
C976 H953 0.950 . S
C976 C975 1.397 . S
C976 C977 1.334 . S
C977 H954 0.950 . S
C977 C976 1.334 . S
C977 C978 1.287 . S
C978 C977 1.287 . S
C978 C979 1.524 . S
C978 H997 0.913 . S
C979 H955 0.950 . S
C979 C978 1.524 . S
C979 C980 1.415 . S
C980 H956 0.950 . S
C980 C975 1.363 . S
C980 C979 1.415 . S
C981 H957 0.951 . S
C981 C982 1.366 . S
C981 C983 1.388 . S
C982 C981 1.366 . S
C982 C986 1.385 . S
C983 H958 0.951 . S
C983 C981 1.388 . S
C983 C984 1.366 . S
C984 C983 1.366 . S
C984 C985 1.414 . S
C984 C987 1.499 . S
C985 H959 0.950 . S
C985 C984 1.414 . S
C985 C986 1.374 . S
C986 H960 0.950 . S
C986 C982 1.385 . S
C986 C985 1.374 . S
C987 C984 1.499 . S
C987 C988 1.373 . S
C987 C989 1.389 . S
C988 H961 0.950 . S
C988 C974 1.377 . S
C988 C987 1.373 . S
C989 C973 1.377 . S
C989 C987 1.389 . S
C989 C990 1.524 . S
C990 C989 1.524 . S
C990 C991 1.397 . S
C990 C995 1.363 . S
C991 H962 0.950 . S
C991 C990 1.397 . S
C991 C992 1.334 . S
C992 H963 0.950 . S
C992 C991 1.334 . S
C992 C993 1.287 . S
C993 C992 1.287 . S
C993 C994 1.524 . S
C993 H996 0.999 . S
C994 H964 0.950 . S
C994 C993 1.524 . S
C994 C995 1.415 . S
C995 H965 0.950 . S
C995 C990 1.363 . S
C995 C994 1.415 . S
H996 C993 0.999 . S
H997 C978 0.913 . S
H998 C1016 0.951 . S
H999 C1018 0.951 . S
H1000 C1020 0.950 . S
H1001 C1021 0.950 . S
H1002 C1023 0.950 . S
H1003 C1026 0.950 . S
H1004 C1027 0.950 . S
H1005 C1029 0.950 . S
H1006 C1030 0.950 . S
H1007 C1031 0.951 . S
H1008 C1033 0.951 . S
H1009 C1035 0.950 . S
H1010 C1036 0.950 . S
H1011 C1038 0.950 . S
H1012 C1041 0.950 . S
H1013 C1042 0.950 . S
H1014 C1044 0.950 . S
H1015 C1045 0.950 . S
C1016 H998 0.951 . S
C1016 C1017 1.366 . S
C1016 C1018 1.388 . S
C1017 C1016 1.366 . S
C1017 C1021 1.385 . S
C1018 H999 0.951 . S
C1018 C1016 1.388 . S
C1018 C1019 1.366 . S
C1019 C1018 1.366 . S
C1019 C1020 1.414 . S
C1019 C1022 1.499 . S
C1020 H1000 0.950 . S
C1020 C1019 1.414 . S
C1020 C1021 1.374 . S
C1021 H1001 0.950 . S
C1021 C1017 1.385 . S
C1021 C1020 1.374 . S
C1022 C1019 1.499 . S
C1022 C1023 1.373 . S
C1022 C1024 1.389 . S
C1023 H1002 0.950 . S
C1023 C1022 1.373 . S
C1023 C1039 1.377 . S
C1024 C1022 1.389 . S
C1024 C1025 1.524 . S
C1024 C1038 1.377 . S
C1025 C1024 1.524 . S
C1025 C1026 1.397 . S
C1025 C1030 1.363 . S
C1026 H1003 0.950 . S
C1026 C1025 1.397 . S
C1026 C1027 1.334 . S
C1027 H1004 0.950 . S
C1027 C1026 1.334 . S
C1027 C1028 1.287 . S
C1028 C1027 1.287 . S
C1028 C1029 1.524 . S
C1028 H1047 0.913 . S
C1029 H1005 0.950 . S
C1029 C1028 1.524 . S
C1029 C1030 1.415 . S
C1030 H1006 0.950 . S
C1030 C1025 1.363 . S
C1030 C1029 1.415 . S
C1031 H1007 0.951 . S
C1031 C1032 1.366 . S
C1031 C1033 1.388 . S
C1032 C1031 1.366 . S
C1032 C1036 1.385 . S
C1033 H1008 0.951 . S
C1033 C1031 1.388 . S
C1033 C1034 1.366 . S
C1034 C1033 1.366 . S
C1034 C1035 1.414 . S
C1034 C1037 1.499 . S
C1035 H1009 0.950 . S
C1035 C1034 1.414 . S
C1035 C1036 1.374 . S
C1036 H1010 0.950 . S
C1036 C1032 1.385 . S
C1036 C1035 1.374 . S
C1037 C1034 1.499 . S
C1037 C1038 1.373 . S
C1037 C1039 1.389 . S
C1038 H1011 0.950 . S
C1038 C1024 1.377 . S
C1038 C1037 1.373 . S
C1039 C1023 1.377 . S
C1039 C1037 1.389 . S
C1039 C1040 1.524 . S
C1040 C1039 1.524 . S
C1040 C1041 1.397 . S
C1040 C1045 1.363 . S
C1041 H1012 0.950 . S
C1041 C1040 1.397 . S
C1041 C1042 1.334 . S
C1042 H1013 0.950 . S
C1042 C1041 1.334 . S
C1042 C1043 1.287 . S
C1043 C1042 1.287 . S
C1043 C1044 1.524 . S
C1043 H1046 0.999 . S
C1044 H1014 0.950 . S
C1044 C1043 1.524 . S
C1044 C1045 1.415 . S
C1045 H1015 0.950 . S
C1045 C1040 1.363 . S
C1045 C1044 1.415 . S
H1046 C1043 0.999 . S
H1047 C1028 0.913 . S
H1048 C1066 0.951 . S
H1049 C1068 0.951 . S
H1050 C1070 0.950 . S
H1051 C1071 0.950 . S
H1052 C1073 0.950 . S
H1053 C1076 0.950 . S
H1054 C1077 0.950 . S
H1055 C1079 0.950 . S
H1056 C1080 0.950 . S
H1057 C1081 0.951 . S
H1058 C1083 0.951 . S
H1059 C1085 0.950 . S
H1060 C1086 0.950 . S
H1061 C1088 0.950 . S
H1062 C1091 0.950 . S
H1063 C1092 0.950 . S
H1064 C1094 0.950 . S
H1065 C1095 0.950 . S
C1066 H1048 0.951 . S
C1066 C1067 1.366 . S
C1066 C1068 1.388 . S
C1067 C1066 1.366 . S
C1067 C1071 1.385 . S
C1068 H1049 0.951 . S
C1068 C1066 1.388 . S
C1068 C1069 1.366 . S
C1069 C1068 1.366 . S
C1069 C1070 1.414 . S
C1069 C1072 1.499 . S
C1070 H1050 0.950 . S
C1070 C1069 1.414 . S
C1070 C1071 1.374 . S
C1071 H1051 0.950 . S
C1071 C1067 1.385 . S
C1071 C1070 1.374 . S
C1072 C1069 1.499 . S
C1072 C1073 1.373 . S
C1072 C1074 1.389 . S
C1073 H1052 0.950 . S
C1073 C1072 1.373 . S
C1073 C1089 1.377 . S
C1074 C1072 1.389 . S
C1074 C1075 1.524 . S
C1074 C1088 1.377 . S
C1075 C1074 1.524 . S
C1075 C1076 1.397 . S
C1075 C1080 1.363 . S
C1076 H1053 0.950 . S
C1076 C1075 1.397 . S
C1076 C1077 1.334 . S
C1077 H1054 0.950 . S
C1077 C1076 1.334 . S
C1077 C1078 1.287 . S
C1078 C1077 1.287 . S
C1078 C1079 1.524 . S
C1078 H1097 0.913 . S
C1079 H1055 0.950 . S
C1079 C1078 1.524 . S
C1079 C1080 1.415 . S
C1080 H1056 0.950 . S
C1080 C1075 1.363 . S
C1080 C1079 1.415 . S
C1081 H1057 0.951 . S
C1081 C1082 1.366 . S
C1081 C1083 1.388 . S
C1082 C1081 1.366 . S
C1082 C1086 1.385 . S
C1083 H1058 0.951 . S
C1083 C1081 1.388 . S
C1083 C1084 1.366 . S
C1084 C1083 1.366 . S
C1084 C1085 1.414 . S
C1084 C1087 1.499 . S
C1085 H1059 0.950 . S
C1085 C1084 1.414 . S
C1085 C1086 1.374 . S
C1086 H1060 0.950 . S
C1086 C1082 1.385 . S
C1086 C1085 1.374 . S
C1087 C1084 1.499 . S
C1087 C1088 1.373 . S
C1087 C1089 1.389 . S
C1088 H1061 0.950 . S
C1088 C1074 1.377 . S
C1088 C1087 1.373 . S
C1089 C1073 1.377 . S
C1089 C1087 1.389 . S
C1089 C1090 1.524 . S
C1090 C1089 1.524 . S
C1090 C1091 1.397 . S
C1090 C1095 1.363 . S
C1091 H1062 0.950 . S
C1091 C1090 1.397 . S
C1091 C1092 1.334 . S
C1092 H1063 0.950 . S
C1092 C1091 1.334 . S
C1092 C1093 1.287 . S
C1093 C1092 1.287 . S
C1093 C1094 1.524 . S
C1093 H1096 0.999 . S
C1094 H1064 0.950 . S
C1094 C1093 1.524 . S
C1094 C1095 1.415 . S
C1095 H1065 0.950 . S
C1095 C1090 1.363 . S
C1095 C1094 1.415 . S
H1096 C1093 0.999 . S
H1097 C1078 0.913 . S
H1098 C1116 0.951 . S
H1099 C1118 0.951 . S
H1100 C1120 0.950 . S
H1101 C1121 0.950 . S
H1102 C1123 0.951 . S
H1103 C1126 0.950 . S
H1104 C1127 0.950 . S
H1105 C1129 0.950 . S
H1106 C1130 0.950 1_556 S
H1107 C1131 0.951 . S
H1108 C1133 0.951 . S
H1109 C1135 0.950 . S
H1110 C1136 0.950 . S
H1111 C1138 0.951 . S
H1112 C1141 0.950 . S
H1113 C1142 0.950 . S
H1114 C1144 0.950 . S
H1115 C1145 0.950 1_554 S
C1116 H1098 0.951 . S
C1116 C1117 1.366 . S
C1116 C1118 1.388 . S
C1117 C1116 1.366 . S
C1117 C1121 1.385 . S
C1118 H1099 0.951 . S
C1118 C1116 1.388 . S
C1118 C1119 1.366 . S
C1119 C1118 1.366 . S
C1119 C1120 1.414 . S
C1119 C1122 1.499 . S
C1120 H1100 0.950 . S
C1120 C1119 1.414 . S
C1120 C1121 1.374 . S
C1121 H1101 0.950 . S
C1121 C1117 1.385 . S
C1121 C1120 1.374 . S
C1122 C1119 1.499 . S
C1122 C1123 1.384 . S
C1122 C1124 1.389 . S
C1123 H1102 0.951 . S
C1123 C1122 1.384 . S
C1123 C1139 1.365 1_554 S
C1124 C1122 1.389 . S
C1124 C1125 1.524 . S
C1124 C1138 1.365 1_554 S
C1125 C1124 1.524 . S
C1125 C1126 1.397 . S
C1125 C1130 1.363 . S
C1126 H1103 0.950 . S
C1126 C1125 1.397 . S
C1126 C1127 1.334 . S
C1127 H1104 0.950 . S
C1127 C1126 1.334 . S
C1127 C1128 1.287 . S
C1128 C1127 1.287 . S
C1128 C1129 1.524 . S
C1128 H1147 0.913 . S
C1129 H1105 0.950 . S
C1129 C1128 1.524 . S
C1129 C1130 1.415 . S
C1130 H1106 0.950 1_554 S
C1130 C1125 1.363 . S
C1130 C1129 1.415 . S
C1131 H1107 0.951 . S
C1131 C1132 1.366 . S
C1131 C1133 1.388 . S
C1132 C1131 1.366 . S
C1132 C1136 1.385 . S
C1133 H1108 0.951 . S
C1133 C1131 1.388 . S
C1133 C1134 1.366 . S
C1134 C1133 1.366 . S
C1134 C1135 1.414 . S
C1134 C1137 1.499 . S
C1135 H1109 0.950 . S
C1135 C1134 1.414 . S
C1135 C1136 1.374 . S
C1136 H1110 0.950 . S
C1136 C1132 1.385 . S
C1136 C1135 1.374 . S
C1137 C1134 1.499 . S
C1137 C1138 1.384 . S
C1137 C1139 1.389 . S
C1138 H1111 0.951 . S
C1138 C1124 1.365 1_556 S
C1138 C1137 1.384 . S
C1139 C1123 1.365 1_556 S
C1139 C1137 1.389 . S
C1139 C1140 1.524 . S
C1140 C1139 1.524 . S
C1140 C1141 1.397 . S
C1140 C1145 1.363 . S
C1141 H1112 0.950 . S
C1141 C1140 1.397 . S
C1141 C1142 1.334 . S
C1142 H1113 0.950 . S
C1142 C1141 1.334 . S
C1142 C1143 1.287 . S
C1143 C1142 1.287 . S
C1143 C1144 1.524 . S
C1143 H1146 0.999 . S
C1144 H1114 0.950 . S
C1144 C1143 1.524 . S
C1144 C1145 1.415 . S
C1145 H1115 0.950 1_556 S
C1145 C1140 1.363 . S
C1145 C1144 1.415 . S
H1146 C1143 0.999 . S
H1147 C1128 0.913 . S
H1148 C1166 0.951 . S
H1149 C1168 0.951 . S
H1150 C1170 0.950 . S
H1151 C1171 0.950 . S
H1152 C1173 0.950 . S
H1153 C1176 0.950 . S
H1154 C1177 0.950 . S
H1155 C1179 0.950 . S
H1156 C1180 0.950 . S
H1157 C1181 0.951 . S
H1158 C1183 0.951 . S
H1159 C1185 0.950 . S
H1160 C1186 0.950 . S
H1161 C1188 0.950 . S
H1162 C1191 0.950 . S
H1163 C1192 0.950 . S
H1164 C1194 0.950 . S
H1165 C1195 0.950 . S
C1166 H1148 0.951 . S
C1166 C1167 1.366 . S
C1166 C1168 1.388 . S
C1167 C1166 1.366 . S
C1167 C1171 1.385 . S
C1168 H1149 0.951 . S
C1168 C1166 1.388 . S
C1168 C1169 1.366 . S
C1169 C1168 1.366 . S
C1169 C1170 1.414 . S
C1169 C1172 1.499 . S
C1170 H1150 0.950 . S
C1170 C1169 1.414 . S
C1170 C1171 1.374 . S
C1171 H1151 0.950 . S
C1171 C1167 1.385 . S
C1171 C1170 1.374 . S
C1172 C1169 1.499 . S
C1172 C1173 1.373 . S
C1172 C1174 1.389 . S
C1173 H1152 0.950 . S
C1173 C1172 1.373 . S
C1173 C1189 1.377 . S
C1174 C1172 1.389 . S
C1174 C1175 1.524 . S
C1174 C1188 1.377 . S
C1175 C1174 1.524 . S
C1175 C1176 1.397 . S
C1175 C1180 1.363 . S
C1176 H1153 0.950 . S
C1176 C1175 1.397 . S
C1176 C1177 1.334 . S
C1177 H1154 0.950 . S
C1177 C1176 1.334 . S
C1177 C1178 1.287 . S
C1178 C1177 1.287 . S
C1178 C1179 1.524 . S
C1178 H1197 0.913 . S
C1179 H1155 0.950 . S
C1179 C1178 1.524 . S
C1179 C1180 1.415 . S
C1180 H1156 0.950 . S
C1180 C1175 1.363 . S
C1180 C1179 1.415 . S
C1181 H1157 0.951 . S
C1181 C1182 1.366 . S
C1181 C1183 1.388 . S
C1182 C1181 1.366 . S
C1182 C1186 1.385 . S
C1183 H1158 0.951 . S
C1183 C1181 1.388 . S
C1183 C1184 1.366 . S
C1184 C1183 1.366 . S
C1184 C1185 1.414 . S
C1184 C1187 1.499 . S
C1185 H1159 0.950 . S
C1185 C1184 1.414 . S
C1185 C1186 1.374 . S
C1186 H1160 0.950 . S
C1186 C1182 1.385 . S
C1186 C1185 1.374 . S
C1187 C1184 1.499 . S
C1187 C1188 1.373 . S
C1187 C1189 1.389 . S
C1188 H1161 0.950 . S
C1188 C1174 1.377 . S
C1188 C1187 1.373 . S
C1189 C1173 1.377 . S
C1189 C1187 1.389 . S
C1189 C1190 1.524 . S
C1190 C1189 1.524 . S
C1190 C1191 1.397 . S
C1190 C1195 1.363 . S
C1191 H1162 0.950 . S
C1191 C1190 1.397 . S
C1191 C1192 1.334 . S
C1192 H1163 0.950 . S
C1192 C1191 1.334 . S
C1192 C1193 1.287 . S
C1193 C1192 1.287 . S
C1193 C1194 1.524 . S
C1193 H1196 0.999 . S
C1194 H1164 0.950 . S
C1194 C1193 1.524 . S
C1194 C1195 1.415 . S
C1195 H1165 0.950 . S
C1195 C1190 1.363 . S
C1195 C1194 1.415 . S
H1196 C1193 0.999 . S
H1197 C1178 0.913 . S
H1198 C1216 0.951 . S
H1199 C1218 0.951 . S
H1200 C1220 0.950 . S
H1201 C1221 0.950 . S
H1202 C1223 0.950 . S
H1203 C1226 0.950 . S
H1204 C1227 0.950 . S
H1205 C1229 0.950 . S
H1206 C1230 0.950 . S
H1207 C1231 0.951 . S
H1208 C1233 0.951 . S
H1209 C1235 0.950 . S
H1210 C1236 0.950 . S
H1211 C1238 0.950 . S
H1212 C1241 0.950 . S
H1213 C1242 0.950 . S
H1214 C1244 0.950 . S
H1215 C1245 0.950 . S
C1216 H1198 0.951 . S
C1216 C1217 1.366 . S
C1216 C1218 1.388 . S
C1217 C1216 1.366 . S
C1217 C1221 1.385 . S
C1218 H1199 0.951 . S
C1218 C1216 1.388 . S
C1218 C1219 1.366 . S
C1219 C1218 1.366 . S
C1219 C1220 1.414 . S
C1219 C1222 1.499 . S
C1220 H1200 0.950 . S
C1220 C1219 1.414 . S
C1220 C1221 1.374 . S
C1221 H1201 0.950 . S
C1221 C1217 1.385 . S
C1221 C1220 1.374 . S
C1222 C1219 1.499 . S
C1222 C1223 1.373 . S
C1222 C1224 1.389 . S
C1223 H1202 0.950 . S
C1223 C1222 1.373 . S
C1223 C1239 1.377 . S
C1224 C1222 1.389 . S
C1224 C1225 1.524 . S
C1224 C1238 1.377 . S
C1225 C1224 1.524 . S
C1225 C1226 1.397 . S
C1225 C1230 1.363 . S
C1226 H1203 0.950 . S
C1226 C1225 1.397 . S
C1226 C1227 1.334 . S
C1227 H1204 0.950 . S
C1227 C1226 1.334 . S
C1227 C1228 1.287 . S
C1228 C1227 1.287 . S
C1228 C1229 1.524 . S
C1228 H1247 0.913 . S
C1229 H1205 0.950 . S
C1229 C1228 1.524 . S
C1229 C1230 1.415 . S
C1230 H1206 0.950 . S
C1230 C1225 1.363 . S
C1230 C1229 1.415 . S
C1231 H1207 0.951 . S
C1231 C1232 1.366 . S
C1231 C1233 1.388 . S
C1232 C1231 1.366 . S
C1232 C1236 1.385 . S
C1233 H1208 0.951 . S
C1233 C1231 1.388 . S
C1233 C1234 1.366 . S
C1234 C1233 1.366 . S
C1234 C1235 1.414 . S
C1234 C1237 1.499 . S
C1235 H1209 0.950 . S
C1235 C1234 1.414 . S
C1235 C1236 1.374 . S
C1236 H1210 0.950 . S
C1236 C1232 1.385 . S
C1236 C1235 1.374 . S
C1237 C1234 1.499 . S
C1237 C1238 1.373 . S
C1237 C1239 1.389 . S
C1238 H1211 0.950 . S
C1238 C1224 1.377 . S
C1238 C1237 1.373 . S
C1239 C1223 1.377 . S
C1239 C1237 1.389 . S
C1239 C1240 1.524 . S
C1240 C1239 1.524 . S
C1240 C1241 1.397 . S
C1240 C1245 1.363 . S
C1241 H1212 0.950 . S
C1241 C1240 1.397 . S
C1241 C1242 1.334 . S
C1242 H1213 0.950 . S
C1242 C1241 1.334 . S
C1242 C1243 1.287 . S
C1243 C1242 1.287 . S
C1243 C1244 1.524 . S
C1243 H1246 0.999 . S
C1244 H1214 0.950 . S
C1244 C1243 1.524 . S
C1244 C1245 1.415 . S
C1245 H1215 0.950 . S
C1245 C1240 1.363 . S
C1245 C1244 1.415 . S
H1246 C1243 0.999 . S
H1247 C1228 0.913 . S
H1248 C1266 0.952 . S
H1249 C1268 0.951 . S
H1250 C1270 0.950 . S
H1251 C1271 0.950 . S
H1252 C1273 0.950 . S
H1253 C1276 0.950 . S
H1254 C1277 0.950 . S
H1255 C1279 0.950 . S
H1256 C1280 0.950 . S
H1257 C1281 0.951 . S
H1258 C1283 0.951 . S
H1259 C1285 0.950 . S
H1260 C1286 0.950 . S
H1261 C1288 0.950 . S
H1262 C1291 0.950 . S
H1263 C1292 0.950 . S
H1264 C1294 0.950 . S
H1265 C1295 0.950 . S
C1266 H1248 0.952 . S
C1266 C1267 1.366 1_556 S
C1266 C1268 1.388 . S
C1267 C1266 1.366 1_554 S
C1267 C1271 1.385 . S
C1268 H1249 0.951 . S
C1268 C1266 1.388 . S
C1268 C1269 1.366 . S
C1269 C1268 1.366 . S
C1269 C1270 1.414 . S
C1269 C1272 1.499 . S
C1270 H1250 0.950 . S
C1270 C1269 1.414 . S
C1270 C1271 1.374 1_556 S
C1271 H1251 0.950 . S
C1271 C1267 1.385 . S
C1271 C1270 1.374 1_554 S
C1272 C1269 1.499 . S
C1272 C1273 1.373 . S
C1272 C1274 1.389 . S
C1273 H1252 0.950 . S
C1273 C1272 1.373 . S
C1273 C1289 1.377 . S
C1274 C1272 1.389 . S
C1274 C1275 1.524 . S
C1274 C1288 1.377 . S
C1275 C1274 1.524 . S
C1275 C1276 1.397 . S
C1275 C1280 1.363 . S
C1276 H1253 0.950 . S
C1276 C1275 1.397 . S
C1276 C1277 1.334 . S
C1277 H1254 0.950 . S
C1277 C1276 1.334 . S
C1277 C1278 1.287 . S
C1278 C1277 1.287 . S
C1278 C1279 1.524 . S
C1278 H1297 0.913 . S
C1279 H1255 0.950 . S
C1279 C1278 1.524 . S
C1279 C1280 1.415 . S
C1280 H1256 0.950 . S
C1280 C1275 1.363 . S
C1280 C1279 1.415 . S
C1281 H1257 0.951 . S
C1281 C1282 1.366 . S
C1281 C1283 1.388 . S
C1282 C1281 1.366 . S
C1282 C1286 1.385 . S
C1283 H1258 0.951 . S
C1283 C1281 1.388 . S
C1283 C1284 1.366 . S
C1284 C1283 1.366 . S
C1284 C1285 1.414 . S
C1284 C1287 1.499 . S
C1285 H1259 0.950 . S
C1285 C1284 1.414 . S
C1285 C1286 1.374 . S
C1286 H1260 0.950 . S
C1286 C1282 1.385 . S
C1286 C1285 1.374 . S
C1287 C1284 1.499 . S
C1287 C1288 1.373 . S
C1287 C1289 1.389 . S
C1288 H1261 0.950 . S
C1288 C1274 1.377 . S
C1288 C1287 1.373 . S
C1289 C1273 1.377 . S
C1289 C1287 1.389 . S
C1289 C1290 1.524 . S
C1290 C1289 1.524 . S
C1290 C1291 1.397 . S
C1290 C1295 1.363 . S
C1291 H1262 0.950 . S
C1291 C1290 1.397 . S
C1291 C1292 1.334 . S
C1292 H1263 0.950 . S
C1292 C1291 1.334 . S
C1292 C1293 1.287 . S
C1293 C1292 1.287 . S
C1293 C1294 1.524 . S
C1293 H1296 0.999 . S
C1294 H1264 0.950 . S
C1294 C1293 1.524 . S
C1294 C1295 1.415 . S
C1295 H1265 0.950 . S
C1295 C1290 1.363 . S
C1295 C1294 1.415 . S
H1296 C1293 0.999 . S
H1297 C1278 0.913 . S
H1298 C1316 0.951 . S
H1299 C1318 0.951 . S
H1300 C1320 0.950 . S
H1301 C1321 0.947 1_556 S
H1302 C1323 0.950 . S
H1303 C1326 0.950 . S
H1304 C1327 0.950 . S
H1305 C1329 0.950 . S
H1306 C1330 0.950 . S
H1307 C1331 0.951 . S
H1308 C1333 0.951 . S
H1309 C1335 0.950 . S
H1310 C1336 0.950 . S
H1311 C1338 0.950 . S
H1312 C1341 0.950 . S
H1313 C1342 0.950 . S
H1314 C1344 0.950 . S
H1315 C1345 0.950 . S
C1316 H1298 0.951 . S
C1316 C1317 1.366 . S
C1316 C1318 1.388 1_556 S
C1317 C1316 1.366 . S
C1317 C1321 1.385 1_556 S
C1318 H1299 0.951 . S
C1318 C1316 1.388 1_554 S
C1318 C1319 1.366 . S
C1319 C1318 1.366 . S
C1319 C1320 1.414 . S
C1319 C1322 1.499 . S
C1320 H1300 0.950 . S
C1320 C1319 1.414 . S
C1320 C1321 1.374 . S
C1321 H1301 0.947 1_554 S
C1321 C1317 1.385 1_554 S
C1321 C1320 1.374 . S
C1322 C1319 1.499 . S
C1322 C1323 1.373 . S
C1322 C1324 1.389 . S
C1323 H1302 0.950 . S
C1323 C1322 1.373 . S
C1323 C1339 1.377 . S
C1324 C1322 1.389 . S
C1324 C1325 1.524 . S
C1324 C1338 1.377 . S
C1325 C1324 1.524 . S
C1325 C1326 1.397 . S
C1325 C1330 1.363 . S
C1326 H1303 0.950 . S
C1326 C1325 1.397 . S
C1326 C1327 1.334 . S
C1327 H1304 0.950 . S
C1327 C1326 1.334 . S
C1327 C1328 1.287 . S
C1328 C1327 1.287 . S
C1328 C1329 1.524 . S
C1328 H1347 0.913 . S
C1329 H1305 0.950 . S
C1329 C1328 1.524 . S
C1329 C1330 1.415 . S
C1330 H1306 0.950 . S
C1330 C1325 1.363 . S
C1330 C1329 1.415 . S
C1331 H1307 0.951 . S
C1331 C1332 1.366 . S
C1331 C1333 1.388 . S
C1332 C1331 1.366 . S
C1332 C1336 1.385 . S
C1333 H1308 0.951 . S
C1333 C1331 1.388 . S
C1333 C1334 1.366 . S
C1334 C1333 1.366 . S
C1334 C1335 1.414 . S
C1334 C1337 1.499 . S
C1335 H1309 0.950 . S
C1335 C1334 1.414 . S
C1335 C1336 1.374 . S
C1336 H1310 0.950 . S
C1336 C1332 1.385 . S
C1336 C1335 1.374 . S
C1337 C1334 1.499 . S
C1337 C1338 1.373 . S
C1337 C1339 1.389 . S
C1338 H1311 0.950 . S
C1338 C1324 1.377 . S
C1338 C1337 1.373 . S
C1339 C1323 1.377 . S
C1339 C1337 1.389 . S
C1339 C1340 1.524 . S
C1340 C1339 1.524 . S
C1340 C1341 1.397 . S
C1340 C1345 1.363 . S
C1341 H1312 0.950 . S
C1341 C1340 1.397 . S
C1341 C1342 1.334 . S
C1342 H1313 0.950 . S
C1342 C1341 1.334 . S
C1342 C1343 1.287 . S
C1343 C1342 1.287 . S
C1343 C1344 1.524 . S
C1343 H1346 0.999 . S
C1344 H1314 0.950 . S
C1344 C1343 1.524 . S
C1344 C1345 1.415 . S
C1345 H1315 0.950 . S
C1345 C1340 1.363 . S
C1345 C1344 1.415 . S
H1346 C1343 0.999 . S
H1347 C1328 0.913 . S
H1348 C1366 0.951 . S
H1349 C1368 0.951 . S
H1350 C1370 0.950 . S
H1351 C1371 0.950 . S
H1352 C1373 0.950 . S
H1353 C1376 0.950 . S
H1354 C1377 0.950 . S
H1355 C1379 0.950 . S
H1356 C1380 0.950 . S
H1357 C1381 0.951 . S
H1358 C1383 0.951 . S
H1359 C1385 0.950 . S
H1360 C1386 0.950 . S
H1361 C1388 0.950 . S
H1362 C1391 0.950 . S
H1363 C1392 0.950 . S
H1364 C1394 0.950 . S
H1365 C1395 0.950 . S
C1366 H1348 0.951 . S
C1366 C1367 1.366 . S
C1366 C1368 1.388 . S
C1367 C1366 1.366 . S
C1367 C1371 1.385 . S
C1368 H1349 0.951 . S
C1368 C1366 1.388 . S
C1368 C1369 1.366 . S
C1369 C1368 1.366 . S
C1369 C1370 1.414 . S
C1369 C1372 1.499 . S
C1370 H1350 0.950 . S
C1370 C1369 1.414 . S
C1370 C1371 1.374 . S
C1371 H1351 0.950 . S
C1371 C1367 1.385 . S
C1371 C1370 1.374 . S
C1372 C1369 1.499 . S
C1372 C1373 1.373 . S
C1372 C1374 1.389 . S
C1373 H1352 0.950 . S
C1373 C1372 1.373 . S
C1373 C1389 1.377 . S
C1374 C1372 1.389 . S
C1374 C1375 1.524 . S
C1374 C1388 1.377 . S
C1375 C1374 1.524 . S
C1375 C1376 1.397 . S
C1375 C1380 1.363 . S
C1376 H1353 0.950 . S
C1376 C1375 1.397 . S
C1376 C1377 1.334 . S
C1377 H1354 0.950 . S
C1377 C1376 1.334 . S
C1377 C1378 1.287 . S
C1378 C1377 1.287 . S
C1378 C1379 1.524 . S
C1378 H1397 0.913 . S
C1379 H1355 0.950 . S
C1379 C1378 1.524 . S
C1379 C1380 1.415 . S
C1380 H1356 0.950 . S
C1380 C1375 1.363 . S
C1380 C1379 1.415 . S
C1381 H1357 0.951 . S
C1381 C1382 1.366 . S
C1381 C1383 1.388 . S
C1382 C1381 1.366 . S
C1382 C1386 1.385 . S
C1383 H1358 0.951 . S
C1383 C1381 1.388 . S
C1383 C1384 1.366 . S
C1384 C1383 1.366 . S
C1384 C1385 1.414 . S
C1384 C1387 1.499 . S
C1385 H1359 0.950 . S
C1385 C1384 1.414 . S
C1385 C1386 1.374 . S
C1386 H1360 0.950 . S
C1386 C1382 1.385 . S
C1386 C1385 1.374 . S
C1387 C1384 1.499 . S
C1387 C1388 1.373 . S
C1387 C1389 1.389 . S
C1388 H1361 0.950 . S
C1388 C1374 1.377 . S
C1388 C1387 1.373 . S
C1389 C1373 1.377 . S
C1389 C1387 1.389 . S
C1389 C1390 1.524 . S
C1390 C1389 1.524 . S
C1390 C1391 1.397 . S
C1390 C1395 1.363 . S
C1391 H1362 0.950 . S
C1391 C1390 1.397 . S
C1391 C1392 1.334 . S
C1392 H1363 0.950 . S
C1392 C1391 1.334 . S
C1392 C1393 1.287 . S
C1393 C1392 1.287 . S
C1393 C1394 1.524 . S
C1393 H1396 0.999 . S
C1394 H1364 0.950 . S
C1394 C1393 1.524 . S
C1394 C1395 1.415 . S
C1395 H1365 0.950 . S
C1395 C1390 1.363 . S
C1395 C1394 1.415 . S
H1396 C1393 0.999 . S
H1397 C1378 0.913 . S
H1398 C1416 0.951 . S
H1399 C1418 0.951 . S
H1400 C1420 0.950 . S
H1401 C1421 0.950 . S
H1402 C1423 0.950 . S
H1403 C1426 0.950 . S
H1404 C1427 0.950 . S
H1405 C1429 0.950 . S
H1406 C1430 0.950 . S
H1407 C1431 0.951 . S
H1408 C1433 0.951 . S
H1409 C1435 0.950 . S
H1410 C1436 0.950 . S
H1411 C1438 0.950 . S
H1412 C1441 0.950 . S
H1413 C1442 0.950 . S
H1414 C1444 0.950 . S
H1415 C1445 0.950 . S
C1416 H1398 0.951 . S
C1416 C1417 1.366 . S
C1416 C1418 1.388 . S
C1417 C1416 1.366 . S
C1417 C1421 1.385 . S
C1418 H1399 0.951 . S
C1418 C1416 1.388 . S
C1418 C1419 1.366 . S
C1419 C1418 1.366 . S
C1419 C1420 1.414 . S
C1419 C1422 1.499 . S
C1420 H1400 0.950 . S
C1420 C1419 1.414 . S
C1420 C1421 1.374 . S
C1421 H1401 0.950 . S
C1421 C1417 1.385 . S
C1421 C1420 1.374 . S
C1422 C1419 1.499 . S
C1422 C1423 1.373 . S
C1422 C1424 1.389 . S
C1423 H1402 0.950 . S
C1423 C1422 1.373 . S
C1423 C1439 1.377 . S
C1424 C1422 1.389 . S
C1424 C1425 1.524 . S
C1424 C1438 1.377 . S
C1425 C1424 1.524 . S
C1425 C1426 1.397 . S
C1425 C1430 1.363 . S
C1426 H1403 0.950 . S
C1426 C1425 1.397 . S
C1426 C1427 1.334 . S
C1427 H1404 0.950 . S
C1427 C1426 1.334 . S
C1427 C1428 1.287 . S
C1428 C1427 1.287 . S
C1428 C1429 1.524 . S
C1428 H1447 0.913 . S
C1429 H1405 0.950 . S
C1429 C1428 1.524 . S
C1429 C1430 1.415 . S
C1430 H1406 0.950 . S
C1430 C1425 1.363 . S
C1430 C1429 1.415 . S
C1431 H1407 0.951 . S
C1431 C1432 1.366 . S
C1431 C1433 1.388 . S
C1432 C1431 1.366 . S
C1432 C1436 1.385 . S
C1433 H1408 0.951 . S
C1433 C1431 1.388 . S
C1433 C1434 1.366 . S
C1434 C1433 1.366 . S
C1434 C1435 1.414 . S
C1434 C1437 1.499 . S
C1435 H1409 0.950 . S
C1435 C1434 1.414 . S
C1435 C1436 1.374 . S
C1436 H1410 0.950 . S
C1436 C1432 1.385 . S
C1436 C1435 1.374 . S
C1437 C1434 1.499 . S
C1437 C1438 1.373 . S
C1437 C1439 1.389 . S
C1438 H1411 0.950 . S
C1438 C1424 1.377 . S
C1438 C1437 1.373 . S
C1439 C1423 1.377 . S
C1439 C1437 1.389 . S
C1439 C1440 1.524 . S
C1440 C1439 1.524 . S
C1440 C1441 1.397 . S
C1440 C1445 1.363 . S
C1441 H1412 0.950 . S
C1441 C1440 1.397 . S
C1441 C1442 1.334 . S
C1442 H1413 0.950 . S
C1442 C1441 1.334 . S
C1442 C1443 1.287 . S
C1443 C1442 1.287 . S
C1443 C1444 1.524 . S
C1443 H1446 0.999 . S
C1444 H1414 0.950 . S
C1444 C1443 1.524 . S
C1444 C1445 1.415 . S
C1445 H1415 0.950 . S
C1445 C1440 1.363 . S
C1445 C1444 1.415 . S
H1446 C1443 0.999 . S
H1447 C1428 0.913 . S
H1448 C1466 0.951 . S
H1449 C1468 0.951 . S
H1450 C1470 0.950 . S
H1451 C1471 0.950 1_556 S
H1452 C1473 0.950 . S
H1453 C1476 0.950 . S
H1454 C1477 0.950 . S
H1455 C1479 0.950 . S
H1456 C1480 0.950 . S
H1457 C1481 0.951 . S
H1458 C1483 0.951 . S
H1459 C1485 0.950 . S
H1460 C1486 0.950 . S
H1461 C1488 0.950 . S
H1462 C1491 0.950 . S
H1463 C1492 0.950 . S
H1464 C1494 0.950 . S
H1465 C1495 0.950 . S
C1466 H1448 0.951 . S
C1466 C1467 1.366 . S
C1466 C1468 1.388 1_556 S
C1467 C1466 1.366 . S
C1467 C1471 1.385 1_556 S
C1468 H1449 0.951 . S
C1468 C1466 1.388 1_554 S
C1468 C1469 1.366 . S
C1469 C1468 1.366 . S
C1469 C1470 1.414 . S
C1469 C1472 1.499 . S
C1470 H1450 0.950 . S
C1470 C1469 1.414 . S
C1470 C1471 1.374 . S
C1471 H1451 0.950 1_554 S
C1471 C1467 1.385 1_554 S
C1471 C1470 1.374 . S
C1472 C1469 1.499 . S
C1472 C1473 1.373 . S
C1472 C1474 1.389 . S
C1473 H1452 0.950 . S
C1473 C1472 1.373 . S
C1473 C1489 1.377 . S
C1474 C1472 1.389 . S
C1474 C1475 1.524 . S
C1474 C1488 1.377 . S
C1475 C1474 1.524 . S
C1475 C1476 1.397 . S
C1475 C1480 1.363 . S
C1476 H1453 0.950 . S
C1476 C1475 1.397 . S
C1476 C1477 1.334 1_554 S
C1477 H1454 0.950 . S
C1477 C1476 1.334 1_556 S
C1477 C1478 1.287 . S
C1478 C1477 1.287 . S
C1478 C1479 1.524 1_556 S
C1478 H1497 0.913 . S
C1479 H1455 0.950 . S
C1479 C1478 1.524 1_554 S
C1479 C1480 1.415 . S
C1480 H1456 0.950 . S
C1480 C1475 1.363 . S
C1480 C1479 1.415 . S
C1481 H1457 0.951 . S
C1481 C1482 1.366 . S
C1481 C1483 1.388 . S
C1482 C1481 1.366 . S
C1482 C1486 1.385 . S
C1483 H1458 0.951 . S
C1483 C1481 1.388 . S
C1483 C1484 1.366 . S
C1484 C1483 1.366 . S
C1484 C1485 1.414 . S
C1484 C1487 1.499 . S
C1485 H1459 0.950 . S
C1485 C1484 1.414 . S
C1485 C1486 1.374 . S
C1486 H1460 0.950 . S
C1486 C1482 1.385 . S
C1486 C1485 1.374 . S
C1487 C1484 1.499 . S
C1487 C1488 1.373 . S
C1487 C1489 1.389 . S
C1488 H1461 0.950 . S
C1488 C1474 1.377 . S
C1488 C1487 1.373 . S
C1489 C1473 1.377 . S
C1489 C1487 1.389 . S
C1489 C1490 1.524 . S
C1490 C1489 1.524 . S
C1490 C1491 1.397 . S
C1490 C1495 1.363 . S
C1491 H1462 0.950 . S
C1491 C1490 1.397 . S
C1491 C1492 1.334 . S
C1492 H1463 0.950 . S
C1492 C1491 1.334 . S
C1492 C1493 1.287 . S
C1493 C1492 1.287 . S
C1493 C1494 1.524 . S
C1493 H1496 0.999 . S
C1494 H1464 0.950 . S
C1494 C1493 1.524 . S
C1494 C1495 1.415 . S
C1495 H1465 0.950 . S
C1495 C1490 1.363 . S
C1495 C1494 1.415 . S
H1496 C1493 0.999 . S
H1497 C1478 0.913 . S
H1498 C1516 0.951 . S
H1499 C1518 0.951 . S
H1500 C1520 0.950 . S
H1501 C1521 0.950 . S
H1502 C1523 0.950 . S
H1503 C1526 0.950 . S
H1504 C1527 0.950 . S
H1505 C1529 0.950 . S
H1506 C1530 0.950 . S
H1507 C1531 0.951 . S
H1508 C1533 0.951 . S
H1509 C1535 0.950 . S
H1510 C1536 0.950 . S
H1511 C1538 0.950 . S
H1512 C1541 0.950 . S
H1513 C1542 0.950 . S
H1514 C1544 0.950 . S
H1515 C1545 0.950 . S
C1516 H1498 0.951 . S
C1516 C1517 1.366 . S
C1516 C1518 1.388 1_554 S
C1517 C1516 1.366 . S
C1517 C1521 1.385 1_554 S
C1518 H1499 0.951 . S
C1518 C1516 1.388 1_556 S
C1518 C1519 1.366 . S
C1519 C1518 1.366 . S
C1519 C1520 1.414 . S
C1519 C1522 1.499 . S
C1520 H1500 0.950 . S
C1520 C1519 1.414 . S
C1520 C1521 1.374 . S
C1521 H1501 0.950 . S
C1521 C1517 1.385 1_556 S
C1521 C1520 1.374 . S
C1522 C1519 1.499 . S
C1522 C1523 1.373 . S
C1522 C1524 1.389 . S
C1523 H1502 0.950 . S
C1523 C1522 1.373 . S
C1523 C1539 1.377 . S
C1524 C1522 1.389 . S
C1524 C1525 1.524 . S
C1524 C1538 1.377 . S
C1525 C1524 1.524 . S
C1525 C1526 1.397 . S
C1525 C1530 1.363 . S
C1526 H1503 0.950 . S
C1526 C1525 1.397 . S
C1526 C1527 1.334 . S
C1527 H1504 0.950 . S
C1527 C1526 1.334 . S
C1527 C1528 1.287 . S
C1528 C1527 1.287 . S
C1528 C1529 1.524 . S
C1528 H1547 0.913 . S
C1529 H1505 0.950 . S
C1529 C1528 1.524 . S
C1529 C1530 1.415 . S
C1530 H1506 0.950 . S
C1530 C1525 1.363 . S
C1530 C1529 1.415 . S
C1531 H1507 0.951 . S
C1531 C1532 1.366 . S
C1531 C1533 1.388 . S
C1532 C1531 1.366 . S
C1532 C1536 1.385 . S
C1533 H1508 0.951 . S
C1533 C1531 1.388 . S
C1533 C1534 1.366 . S
C1534 C1533 1.366 . S
C1534 C1535 1.414 . S
C1534 C1537 1.499 . S
C1535 H1509 0.950 . S
C1535 C1534 1.414 . S
C1535 C1536 1.374 . S
C1536 H1510 0.950 . S
C1536 C1532 1.385 . S
C1536 C1535 1.374 . S
C1537 C1534 1.499 . S
C1537 C1538 1.373 . S
C1537 C1539 1.389 . S
C1538 H1511 0.950 . S
C1538 C1524 1.377 . S
C1538 C1537 1.373 . S
C1539 C1523 1.377 . S
C1539 C1537 1.389 . S
C1539 C1540 1.524 . S
C1540 C1539 1.524 . S
C1540 C1541 1.397 . S
C1540 C1545 1.363 . S
C1541 H1512 0.950 . S
C1541 C1540 1.397 . S
C1541 C1542 1.334 . S
C1542 H1513 0.950 . S
C1542 C1541 1.334 . S
C1542 C1543 1.287 . S
C1543 C1542 1.287 . S
C1543 C1544 1.524 . S
C1543 H1546 0.999 . S
C1544 H1514 0.950 . S
C1544 C1543 1.524 . S
C1544 C1545 1.415 . S
C1545 H1515 0.950 . S
C1545 C1540 1.363 . S
C1545 C1544 1.415 . S
H1546 C1543 0.999 . S
H1547 C1528 0.913 . S
H1548 C1566 0.951 . S
H1549 C1568 0.951 . S
H1550 C1570 0.950 . S
H1551 C1571 0.950 . S
H1552 C1573 0.950 . S
H1553 C1576 0.950 . S
H1554 C1577 0.950 . S
H1555 C1579 0.950 . S
H1556 C1580 0.950 . S
H1557 C1581 0.951 . S
H1558 C1583 0.951 . S
H1559 C1585 0.950 . S
H1560 C1586 0.950 . S
H1561 C1588 0.950 . S
H1562 C1591 0.950 . S
H1563 C1592 0.950 . S
H1564 C1594 0.950 . S
H1565 C1595 0.950 . S
C1566 H1548 0.951 . S
C1566 C1567 1.366 . S
C1566 C1568 1.388 . S
C1567 C1566 1.366 . S
C1567 C1571 1.385 . S
C1568 H1549 0.951 . S
C1568 C1566 1.388 . S
C1568 C1569 1.366 . S
C1569 C1568 1.366 . S
C1569 C1570 1.414 . S
C1569 C1572 1.499 . S
C1570 H1550 0.950 . S
C1570 C1569 1.414 . S
C1570 C1571 1.374 . S
C1571 H1551 0.950 . S
C1571 C1567 1.385 . S
C1571 C1570 1.374 . S
C1572 C1569 1.499 . S
C1572 C1573 1.373 . S
C1572 C1574 1.389 . S
C1573 H1552 0.950 . S
C1573 C1572 1.373 . S
C1573 C1589 1.377 . S
C1574 C1572 1.389 . S
C1574 C1575 1.524 . S
C1574 C1588 1.377 . S
C1575 C1574 1.524 . S
C1575 C1576 1.397 . S
C1575 C1580 1.363 . S
C1576 H1553 0.950 . S
C1576 C1575 1.397 . S
C1576 C1577 1.334 . S
C1577 H1554 0.950 . S
C1577 C1576 1.334 . S
C1577 C1578 1.287 . S
C1578 C1577 1.287 . S
C1578 C1579 1.524 . S
C1578 H1597 0.913 . S
C1579 H1555 0.950 . S
C1579 C1578 1.524 . S
C1579 C1580 1.415 . S
C1580 H1556 0.950 . S
C1580 C1575 1.363 . S
C1580 C1579 1.415 . S
C1581 H1557 0.951 . S
C1581 C1582 1.366 . S
C1581 C1583 1.388 . S
C1582 C1581 1.366 . S
C1582 C1586 1.385 . S
C1583 H1558 0.951 . S
C1583 C1581 1.388 . S
C1583 C1584 1.366 . S
C1584 C1583 1.366 . S
C1584 C1585 1.414 . S
C1584 C1587 1.499 . S
C1585 H1559 0.950 . S
C1585 C1584 1.414 . S
C1585 C1586 1.374 . S
C1586 H1560 0.950 . S
C1586 C1582 1.385 . S
C1586 C1585 1.374 . S
C1587 C1584 1.499 . S
C1587 C1588 1.373 . S
C1587 C1589 1.389 . S
C1588 H1561 0.950 . S
C1588 C1574 1.377 . S
C1588 C1587 1.373 . S
C1589 C1573 1.377 . S
C1589 C1587 1.389 . S
C1589 C1590 1.524 . S
C1590 C1589 1.524 . S
C1590 C1591 1.397 . S
C1590 C1595 1.363 . S
C1591 H1562 0.950 . S
C1591 C1590 1.397 . S
C1591 C1592 1.334 . S
C1592 H1563 0.950 . S
C1592 C1591 1.334 . S
C1592 C1593 1.287 . S
C1593 C1592 1.287 . S
C1593 C1594 1.524 . S
C1593 H1596 0.999 . S
C1594 H1564 0.950 . S
C1594 C1593 1.524 . S
C1594 C1595 1.415 . S
C1595 H1565 0.950 . S
C1595 C1590 1.363 . S
C1595 C1594 1.415 . S
H1596 C1593 0.999 . S
H1597 C1578 0.913 . S
H1598 C1616 0.951 . S
H1599 C1618 0.951 . S
H1600 C1620 0.950 . S
H1601 C1621 0.950 . S
H1602 C1623 0.950 . S
H1603 C1626 0.950 . S
H1604 C1627 0.950 . S
H1605 C1629 0.950 . S
H1606 C1630 0.950 . S
H1607 C1631 0.951 . S
H1608 C1633 0.951 . S
H1609 C1635 0.950 . S
H1610 C1636 0.950 . S
H1611 C1638 0.950 . S
H1612 C1641 0.950 . S
H1613 C1642 0.950 . S
H1614 C1644 0.950 . S
H1615 C1645 0.950 . S
C1616 H1598 0.951 . S
C1616 C1617 1.366 . S
C1616 C1618 1.388 . S
C1617 C1616 1.366 . S
C1617 C1621 1.385 . S
C1618 H1599 0.951 . S
C1618 C1616 1.388 . S
C1618 C1619 1.366 . S
C1619 C1618 1.366 . S
C1619 C1620 1.414 . S
C1619 C1622 1.499 . S
C1620 H1600 0.950 . S
C1620 C1619 1.414 . S
C1620 C1621 1.374 . S
C1621 H1601 0.950 . S
C1621 C1617 1.385 . S
C1621 C1620 1.374 . S
C1622 C1619 1.499 . S
C1622 C1623 1.373 . S
C1622 C1624 1.389 . S
C1623 H1602 0.950 . S
C1623 C1622 1.373 . S
C1623 C1639 1.377 . S
C1624 C1622 1.389 . S
C1624 C1625 1.524 . S
C1624 C1638 1.377 . S
C1625 C1624 1.524 . S
C1625 C1626 1.397 . S
C1625 C1630 1.363 . S
C1626 H1603 0.950 . S
C1626 C1625 1.397 . S
C1626 C1627 1.334 . S
C1627 H1604 0.950 . S
C1627 C1626 1.334 . S
C1627 C1628 1.287 . S
C1628 C1627 1.287 . S
C1628 C1629 1.524 . S
C1628 H1647 0.913 . S
C1629 H1605 0.950 . S
C1629 C1628 1.524 . S
C1629 C1630 1.415 . S
C1630 H1606 0.950 . S
C1630 C1625 1.363 . S
C1630 C1629 1.415 . S
C1631 H1607 0.951 . S
C1631 C1632 1.366 . S
C1631 C1633 1.388 . S
C1632 C1631 1.366 . S
C1632 C1636 1.385 . S
C1633 H1608 0.951 . S
C1633 C1631 1.388 . S
C1633 C1634 1.366 . S
C1634 C1633 1.366 . S
C1634 C1635 1.414 . S
C1634 C1637 1.499 . S
C1635 H1609 0.950 . S
C1635 C1634 1.414 . S
C1635 C1636 1.374 . S
C1636 H1610 0.950 . S
C1636 C1632 1.385 . S
C1636 C1635 1.374 . S
C1637 C1634 1.499 . S
C1637 C1638 1.373 . S
C1637 C1639 1.389 . S
C1638 H1611 0.950 . S
C1638 C1624 1.377 . S
C1638 C1637 1.373 . S
C1639 C1623 1.377 . S
C1639 C1637 1.389 . S
C1639 C1640 1.524 . S
C1640 C1639 1.524 . S
C1640 C1641 1.397 . S
C1640 C1645 1.363 . S
C1641 H1612 0.950 . S
C1641 C1640 1.397 . S
C1641 C1642 1.334 . S
C1642 H1613 0.950 . S
C1642 C1641 1.334 . S
C1642 C1643 1.287 . S
C1643 C1642 1.287 . S
C1643 C1644 1.524 . S
C1643 H1646 0.999 . S
C1644 H1614 0.950 . S
C1644 C1643 1.524 . S
C1644 C1645 1.415 . S
C1645 H1615 0.950 . S
C1645 C1640 1.363 . S
C1645 C1644 1.415 . S
H1646 C1643 0.999 . S
H1647 C1628 0.913 . S
H1648 C1666 0.951 . S
H1649 C1668 0.951 . S
H1650 C1670 0.950 . S
H1651 C1671 0.950 . S
H1652 C1673 0.950 . S
H1653 C1676 0.950 . S
H1654 C1677 0.950 . S
H1655 C1679 0.950 . S
H1656 C1680 0.950 . S
H1657 C1681 0.951 . S
H1658 C1683 0.951 . S
H1659 C1685 0.950 . S
H1660 C1686 0.950 . S
H1661 C1688 0.950 . S
H1662 C1691 0.950 . S
H1663 C1692 0.950 . S
H1664 C1694 0.950 . S
H1665 C1695 0.950 . S
C1666 H1648 0.951 . S
C1666 C1667 1.366 . S
C1666 C1668 1.388 . S
C1667 C1666 1.366 . S
C1667 C1671 1.385 . S
C1668 H1649 0.951 . S
C1668 C1666 1.388 . S
C1668 C1669 1.366 . S
C1669 C1668 1.366 . S
C1669 C1670 1.414 . S
C1669 C1672 1.499 . S
C1670 H1650 0.950 . S
C1670 C1669 1.414 . S
C1670 C1671 1.374 . S
C1671 H1651 0.950 . S
C1671 C1667 1.385 . S
C1671 C1670 1.374 . S
C1672 C1669 1.499 . S
C1672 C1673 1.373 . S
C1672 C1674 1.389 . S
C1673 H1652 0.950 . S
C1673 C1672 1.373 . S
C1673 C1689 1.377 . S
C1674 C1672 1.389 . S
C1674 C1675 1.524 . S
C1674 C1688 1.377 . S
C1675 C1674 1.524 . S
C1675 C1676 1.397 . S
C1675 C1680 1.363 . S
C1676 H1653 0.950 . S
C1676 C1675 1.397 . S
C1676 C1677 1.334 . S
C1677 H1654 0.950 . S
C1677 C1676 1.334 . S
C1677 C1678 1.287 . S
C1678 C1677 1.287 . S
C1678 C1679 1.524 . S
C1678 H1697 0.913 . S
C1679 H1655 0.950 . S
C1679 C1678 1.524 . S
C1679 C1680 1.415 . S
C1680 H1656 0.950 . S
C1680 C1675 1.363 . S
C1680 C1679 1.415 . S
C1681 H1657 0.951 . S
C1681 C1682 1.366 . S
C1681 C1683 1.388 . S
C1682 C1681 1.366 . S
C1682 C1686 1.385 . S
C1683 H1658 0.951 . S
C1683 C1681 1.388 . S
C1683 C1684 1.366 . S
C1684 C1683 1.366 . S
C1684 C1685 1.414 . S
C1684 C1687 1.499 . S
C1685 H1659 0.950 . S
C1685 C1684 1.414 . S
C1685 C1686 1.374 . S
C1686 H1660 0.950 . S
C1686 C1682 1.385 . S
C1686 C1685 1.374 . S
C1687 C1684 1.499 . S
C1687 C1688 1.373 . S
C1687 C1689 1.389 . S
C1688 H1661 0.950 . S
C1688 C1674 1.377 . S
C1688 C1687 1.373 . S
C1689 C1673 1.377 . S
C1689 C1687 1.389 . S
C1689 C1690 1.524 . S
C1690 C1689 1.524 . S
C1690 C1691 1.397 . S
C1690 C1695 1.363 . S
C1691 H1662 0.950 . S
C1691 C1690 1.397 . S
C1691 C1692 1.334 . S
C1692 H1663 0.950 . S
C1692 C1691 1.334 . S
C1692 C1693 1.287 . S
C1693 C1692 1.287 . S
C1693 C1694 1.524 . S
C1693 H1696 0.999 . S
C1694 H1664 0.950 . S
C1694 C1693 1.524 . S
C1694 C1695 1.415 . S
C1695 H1665 0.950 . S
C1695 C1690 1.363 . S
C1695 C1694 1.415 . S
H1696 C1693 0.999 . S
H1697 C1678 0.913 . S
H1698 C1716 0.951 . S
H1699 C1718 0.951 . S
H1700 C1720 0.950 . S
H1701 C1721 0.950 . S
H1702 C1723 0.950 . S
H1703 C1726 0.950 . S
H1704 C1727 0.950 . S
H1705 C1729 0.950 . S
H1706 C1730 0.950 . S
H1707 C1731 0.951 . S
H1708 C1733 0.951 . S
H1709 C1735 0.950 . S
H1710 C1736 0.950 . S
H1711 C1738 0.950 . S
H1712 C1741 0.950 . S
H1713 C1742 0.950 . S
H1714 C1744 0.950 . S
H1715 C1745 0.950 . S
C1716 H1698 0.951 . S
C1716 C1717 1.366 . S
C1716 C1718 1.388 . S
C1717 C1716 1.366 . S
C1717 C1721 1.385 . S
C1718 H1699 0.951 . S
C1718 C1716 1.388 . S
C1718 C1719 1.366 . S
C1719 C1718 1.366 . S
C1719 C1720 1.414 . S
C1719 C1722 1.499 . S
C1720 H1700 0.950 . S
C1720 C1719 1.414 . S
C1720 C1721 1.374 . S
C1721 H1701 0.950 . S
C1721 C1717 1.385 . S
C1721 C1720 1.374 . S
C1722 C1719 1.499 . S
C1722 C1723 1.373 . S
C1722 C1724 1.389 . S
C1723 H1702 0.950 . S
C1723 C1722 1.373 . S
C1723 C1739 1.377 . S
C1724 C1722 1.389 . S
C1724 C1725 1.524 . S
C1724 C1738 1.377 . S
C1725 C1724 1.524 . S
C1725 C1726 1.397 . S
C1725 C1730 1.363 . S
C1726 H1703 0.950 . S
C1726 C1725 1.397 . S
C1726 C1727 1.334 . S
C1727 H1704 0.950 . S
C1727 C1726 1.334 . S
C1727 C1728 1.287 . S
C1728 C1727 1.287 . S
C1728 C1729 1.524 . S
C1728 H1747 0.913 . S
C1729 H1705 0.950 . S
C1729 C1728 1.524 . S
C1729 C1730 1.415 . S
C1730 H1706 0.950 . S
C1730 C1725 1.363 . S
C1730 C1729 1.415 . S
C1731 H1707 0.951 . S
C1731 C1732 1.366 . S
C1731 C1733 1.388 . S
C1732 C1731 1.366 . S
C1732 C1736 1.385 . S
C1733 H1708 0.951 . S
C1733 C1731 1.388 . S
C1733 C1734 1.366 . S
C1734 C1733 1.366 . S
C1734 C1735 1.414 . S
C1734 C1737 1.499 . S
C1735 H1709 0.950 . S
C1735 C1734 1.414 . S
C1735 C1736 1.374 . S
C1736 H1710 0.950 . S
C1736 C1732 1.385 . S
C1736 C1735 1.374 . S
C1737 C1734 1.499 . S
C1737 C1738 1.373 . S
C1737 C1739 1.389 . S
C1738 H1711 0.950 . S
C1738 C1724 1.377 . S
C1738 C1737 1.373 . S
C1739 C1723 1.377 . S
C1739 C1737 1.389 . S
C1739 C1740 1.524 . S
C1740 C1739 1.524 . S
C1740 C1741 1.397 . S
C1740 C1745 1.363 . S
C1741 H1712 0.950 . S
C1741 C1740 1.397 . S
C1741 C1742 1.334 . S
C1742 H1713 0.950 . S
C1742 C1741 1.334 . S
C1742 C1743 1.287 . S
C1743 C1742 1.287 . S
C1743 C1744 1.524 . S
C1743 H1746 0.999 . S
C1744 H1714 0.950 . S
C1744 C1743 1.524 . S
C1744 C1745 1.415 . S
C1745 H1715 0.950 . S
C1745 C1740 1.363 . S
C1745 C1744 1.415 . S
H1746 C1743 0.999 . S
H1747 C1728 0.913 . S
H1748 C1766 0.951 . S
H1749 C1768 0.951 . S
H1750 C1770 0.950 . S
H1751 C1771 0.950 . S
H1752 C1773 0.950 . S
H1753 C1776 0.950 . S
H1754 C1777 0.950 . S
H1755 C1779 0.950 . S
H1756 C1780 0.950 . S
H1757 C1781 0.951 . S
H1758 C1783 0.951 . S
H1759 C1785 0.950 . S
H1760 C1786 0.950 . S
H1761 C1788 0.950 . S
H1762 C1791 0.950 . S
H1763 C1792 0.950 . S
H1764 C1794 0.950 . S
H1765 C1795 0.950 . S
C1766 H1748 0.951 . S
C1766 C1767 1.366 . S
C1766 C1768 1.388 . S
C1767 C1766 1.366 . S
C1767 C1771 1.385 . S
C1768 H1749 0.951 . S
C1768 C1766 1.388 . S
C1768 C1769 1.366 . S
C1769 C1768 1.366 . S
C1769 C1770 1.414 . S
C1769 C1772 1.499 . S
C1770 H1750 0.950 . S
C1770 C1769 1.414 . S
C1770 C1771 1.374 . S
C1771 H1751 0.950 . S
C1771 C1767 1.385 . S
C1771 C1770 1.374 . S
C1772 C1769 1.499 . S
C1772 C1773 1.373 . S
C1772 C1774 1.389 . S
C1773 H1752 0.950 . S
C1773 C1772 1.373 . S
C1773 C1789 1.377 . S
C1774 C1772 1.389 . S
C1774 C1775 1.524 . S
C1774 C1788 1.377 . S
C1775 C1774 1.524 . S
C1775 C1776 1.397 . S
C1775 C1780 1.363 . S
C1776 H1753 0.950 . S
C1776 C1775 1.397 . S
C1776 C1777 1.334 . S
C1777 H1754 0.950 . S
C1777 C1776 1.334 . S
C1777 C1778 1.287 . S
C1778 C1777 1.287 . S
C1778 C1779 1.524 . S
C1778 H1797 0.913 . S
C1779 H1755 0.950 . S
C1779 C1778 1.524 . S
C1779 C1780 1.415 . S
C1780 H1756 0.950 . S
C1780 C1775 1.363 . S
C1780 C1779 1.415 . S
C1781 H1757 0.951 . S
C1781 C1782 1.366 . S
C1781 C1783 1.388 1_554 S
C1782 C1781 1.366 . S
C1782 C1786 1.385 1_554 S
C1783 H1758 0.951 . S
C1783 C1781 1.388 1_556 S
C1783 C1784 1.366 . S
C1784 C1783 1.366 . S
C1784 C1785 1.414 . S
C1784 C1787 1.499 . S
C1785 H1759 0.950 . S
C1785 C1784 1.414 . S
C1785 C1786 1.374 . S
C1786 H1760 0.950 . S
C1786 C1782 1.385 1_556 S
C1786 C1785 1.374 . S
C1787 C1784 1.499 . S
C1787 C1788 1.373 . S
C1787 C1789 1.389 . S
C1788 H1761 0.950 . S
C1788 C1774 1.377 . S
C1788 C1787 1.373 . S
C1789 C1773 1.377 . S
C1789 C1787 1.389 . S
C1789 C1790 1.524 . S
C1790 C1789 1.524 . S
C1790 C1791 1.397 . S
C1790 C1795 1.363 . S
C1791 H1762 0.950 . S
C1791 C1790 1.397 . S
C1791 C1792 1.334 . S
C1792 H1763 0.950 . S
C1792 C1791 1.334 . S
C1792 C1793 1.287 . S
C1793 C1792 1.287 . S
C1793 C1794 1.524 . S
C1793 H1796 0.999 . S
C1794 H1764 0.950 . S
C1794 C1793 1.524 . S
C1794 C1795 1.415 . S
C1795 H1765 0.950 . S
C1795 C1790 1.363 . S
C1795 C1794 1.415 . S
H1796 C1793 0.999 . S
H1797 C1778 0.913 . S
H1798 C1816 0.951 . S
H1799 C1818 0.951 . S
H1800 C1820 0.950 . S
H1801 C1821 0.950 . S
H1802 C1823 0.950 . S
H1803 C1826 0.950 . S
H1804 C1827 0.950 . S
H1805 C1829 0.950 . S
H1806 C1830 0.950 . S
H1807 C1831 0.951 . S
H1808 C1833 0.951 . S
H1809 C1835 0.950 . S
H1810 C1836 0.950 1_556 S
H1811 C1838 0.950 . S
H1812 C1841 0.950 . S
H1813 C1842 0.950 . S
H1814 C1844 0.950 . S
H1815 C1845 0.950 . S
C1816 H1798 0.951 . S
C1816 C1817 1.366 . S
C1816 C1818 1.388 . S
C1817 C1816 1.366 . S
C1817 C1821 1.385 . S
C1818 H1799 0.951 . S
C1818 C1816 1.388 . S
C1818 C1819 1.366 . S
C1819 C1818 1.366 . S
C1819 C1820 1.414 . S
C1819 C1822 1.499 . S
C1820 H1800 0.950 . S
C1820 C1819 1.414 . S
C1820 C1821 1.374 . S
C1821 H1801 0.950 . S
C1821 C1817 1.385 . S
C1821 C1820 1.374 . S
C1822 C1819 1.499 . S
C1822 C1823 1.373 . S
C1822 C1824 1.389 . S
C1823 H1802 0.950 . S
C1823 C1822 1.373 . S
C1823 C1839 1.377 . S
C1824 C1822 1.389 . S
C1824 C1825 1.524 . S
C1824 C1838 1.377 . S
C1825 C1824 1.524 . S
C1825 C1826 1.397 . S
C1825 C1830 1.363 . S
C1826 H1803 0.950 . S
C1826 C1825 1.397 . S
C1826 C1827 1.334 . S
C1827 H1804 0.950 . S
C1827 C1826 1.334 . S
C1827 C1828 1.287 . S
C1828 C1827 1.287 . S
C1828 C1829 1.524 . S
C1828 H1847 0.913 . S
C1829 H1805 0.950 . S
C1829 C1828 1.524 . S
C1829 C1830 1.415 . S
C1830 H1806 0.950 . S
C1830 C1825 1.363 . S
C1830 C1829 1.415 . S
C1831 H1807 0.951 . S
C1831 C1832 1.366 . S
C1831 C1833 1.388 1_556 S
C1832 C1831 1.366 . S
C1832 C1836 1.385 1_556 S
C1833 H1808 0.951 . S
C1833 C1831 1.388 1_554 S
C1833 C1834 1.366 . S
C1834 C1833 1.366 . S
C1834 C1835 1.414 . S
C1834 C1837 1.499 . S
C1835 H1809 0.950 . S
C1835 C1834 1.414 . S
C1835 C1836 1.374 . S
C1836 H1810 0.950 1_554 S
C1836 C1832 1.385 1_554 S
C1836 C1835 1.374 . S
C1837 C1834 1.499 . S
C1837 C1838 1.373 . S
C1837 C1839 1.389 . S
C1838 H1811 0.950 . S
C1838 C1824 1.377 . S
C1838 C1837 1.373 . S
C1839 C1823 1.377 . S
C1839 C1837 1.389 . S
C1839 C1840 1.524 . S
C1840 C1839 1.524 . S
C1840 C1841 1.397 . S
C1840 C1845 1.363 . S
C1841 H1812 0.950 . S
C1841 C1840 1.397 . S
C1841 C1842 1.334 . S
C1842 H1813 0.950 . S
C1842 C1841 1.334 . S
C1842 C1843 1.287 . S
C1843 C1842 1.287 . S
C1843 C1844 1.524 . S
C1843 H1846 0.999 . S
C1844 H1814 0.950 . S
C1844 C1843 1.524 . S
C1844 C1845 1.415 . S
C1845 H1815 0.950 . S
C1845 C1840 1.363 . S
C1845 C1844 1.415 . S
H1846 C1843 0.999 . S
H1847 C1828 0.913 . S
H1848 C1866 0.951 . S
H1849 C1868 0.951 . S
H1850 C1870 0.950 . S
H1851 C1871 0.950 . S
H1852 C1873 0.950 . S
H1853 C1876 0.950 . S
H1854 C1877 0.950 . S
H1855 C1879 0.950 . S
H1856 C1880 0.950 . S
H1857 C1881 0.951 . S
H1858 C1883 0.951 . S
H1859 C1885 0.950 . S
H1860 C1886 0.950 . S
H1861 C1888 0.950 . S
H1862 C1891 0.950 . S
H1863 C1892 0.950 . S
H1864 C1894 0.950 . S
H1865 C1895 0.950 . S
C1866 H1848 0.951 . S
C1866 C1867 1.366 . S
C1866 C1868 1.388 . S
C1867 C1866 1.366 . S
C1867 C1871 1.385 . S
C1868 H1849 0.951 . S
C1868 C1866 1.388 . S
C1868 C1869 1.366 . S
C1869 C1868 1.366 . S
C1869 C1870 1.414 . S
C1869 C1872 1.499 . S
C1870 H1850 0.950 . S
C1870 C1869 1.414 . S
C1870 C1871 1.374 . S
C1871 H1851 0.950 . S
C1871 C1867 1.385 . S
C1871 C1870 1.374 . S
C1872 C1869 1.499 . S
C1872 C1873 1.373 . S
C1872 C1874 1.389 . S
C1873 H1852 0.950 . S
C1873 C1872 1.373 . S
C1873 C1889 1.377 . S
C1874 C1872 1.389 . S
C1874 C1875 1.524 . S
C1874 C1888 1.377 . S
C1875 C1874 1.524 . S
C1875 C1876 1.397 . S
C1875 C1880 1.363 . S
C1876 H1853 0.950 . S
C1876 C1875 1.397 . S
C1876 C1877 1.334 . S
C1877 H1854 0.950 . S
C1877 C1876 1.334 . S
C1877 C1878 1.287 . S
C1878 C1877 1.287 . S
C1878 C1879 1.524 . S
C1878 H1897 0.913 . S
C1879 H1855 0.950 . S
C1879 C1878 1.524 . S
C1879 C1880 1.415 . S
C1880 H1856 0.950 . S
C1880 C1875 1.363 . S
C1880 C1879 1.415 . S
C1881 H1857 0.951 . S
C1881 C1882 1.366 . S
C1881 C1883 1.388 . S
C1882 C1881 1.366 . S
C1882 C1886 1.385 . S
C1883 H1858 0.951 . S
C1883 C1881 1.388 . S
C1883 C1884 1.366 . S
C1884 C1883 1.366 . S
C1884 C1885 1.414 . S
C1884 C1887 1.499 . S
C1885 H1859 0.950 . S
C1885 C1884 1.414 . S
C1885 C1886 1.374 . S
C1886 H1860 0.950 . S
C1886 C1882 1.385 . S
C1886 C1885 1.374 . S
C1887 C1884 1.499 . S
C1887 C1888 1.373 . S
C1887 C1889 1.389 . S
C1888 H1861 0.950 . S
C1888 C1874 1.377 . S
C1888 C1887 1.373 . S
C1889 C1873 1.377 . S
C1889 C1887 1.389 . S
C1889 C1890 1.524 . S
C1890 C1889 1.524 . S
C1890 C1891 1.397 . S
C1890 C1895 1.363 . S
C1891 H1862 0.950 . S
C1891 C1890 1.397 . S
C1891 C1892 1.334 . S
C1892 H1863 0.950 . S
C1892 C1891 1.334 . S
C1892 C1893 1.287 . S
C1893 C1892 1.287 . S
C1893 C1894 1.524 . S
C1893 H1896 0.999 . S
C1894 H1864 0.950 . S
C1894 C1893 1.524 . S
C1894 C1895 1.415 . S
C1895 H1865 0.950 . S
C1895 C1890 1.363 . S
C1895 C1894 1.415 . S
H1896 C1893 0.999 . S
H1897 C1878 0.913 . S
H1898 C1916 0.951 . S
H1899 C1918 0.951 . S
H1900 C1920 0.950 . S
H1901 C1921 0.950 . S
H1902 C1923 0.950 . S
H1903 C1926 0.950 . S
H1904 C1927 0.950 . S
H1905 C1929 0.950 . S
H1906 C1930 0.950 . S
H1907 C1931 0.951 . S
H1908 C1933 0.951 . S
H1909 C1935 0.950 . S
H1910 C1936 0.950 . S
H1911 C1938 0.950 . S
H1912 C1941 0.950 . S
H1913 C1942 0.950 . S
H1914 C1944 0.950 . S
H1915 C1945 0.950 . S
C1916 H1898 0.951 . S
C1916 C1917 1.366 . S
C1916 C1918 1.388 . S
C1917 C1916 1.366 . S
C1917 C1921 1.385 . S
C1918 H1899 0.951 . S
C1918 C1916 1.388 . S
C1918 C1919 1.366 . S
C1919 C1918 1.366 . S
C1919 C1920 1.414 . S
C1919 C1922 1.499 . S
C1920 H1900 0.950 . S
C1920 C1919 1.414 . S
C1920 C1921 1.374 . S
C1921 H1901 0.950 . S
C1921 C1917 1.385 . S
C1921 C1920 1.374 . S
C1922 C1919 1.499 . S
C1922 C1923 1.373 . S
C1922 C1924 1.389 . S
C1923 H1902 0.950 . S
C1923 C1922 1.373 . S
C1923 C1939 1.377 . S
C1924 C1922 1.389 . S
C1924 C1925 1.524 . S
C1924 C1938 1.377 . S
C1925 C1924 1.524 . S
C1925 C1926 1.397 . S
C1925 C1930 1.363 . S
C1926 H1903 0.950 . S
C1926 C1925 1.397 . S
C1926 C1927 1.334 . S
C1927 H1904 0.950 . S
C1927 C1926 1.334 . S
C1927 C1928 1.287 . S
C1928 C1927 1.287 . S
C1928 C1929 1.524 . S
C1928 H1947 0.913 . S
C1929 H1905 0.950 . S
C1929 C1928 1.524 . S
C1929 C1930 1.415 . S
C1930 H1906 0.950 . S
C1930 C1925 1.363 . S
C1930 C1929 1.415 . S
C1931 H1907 0.951 . S
C1931 C1932 1.366 . S
C1931 C1933 1.388 . S
C1932 C1931 1.366 . S
C1932 C1936 1.385 . S
C1933 H1908 0.951 . S
C1933 C1931 1.388 . S
C1933 C1934 1.366 . S
C1934 C1933 1.366 . S
C1934 C1935 1.414 . S
C1934 C1937 1.499 . S
C1935 H1909 0.950 . S
C1935 C1934 1.414 . S
C1935 C1936 1.374 . S
C1936 H1910 0.950 . S
C1936 C1932 1.385 . S
C1936 C1935 1.374 . S
C1937 C1934 1.499 . S
C1937 C1938 1.373 . S
C1937 C1939 1.389 . S
C1938 H1911 0.950 . S
C1938 C1924 1.377 . S
C1938 C1937 1.373 . S
C1939 C1923 1.377 . S
C1939 C1937 1.389 . S
C1939 C1940 1.524 . S
C1940 C1939 1.524 . S
C1940 C1941 1.397 . S
C1940 C1945 1.363 . S
C1941 H1912 0.950 . S
C1941 C1940 1.397 . S
C1941 C1942 1.334 . S
C1942 H1913 0.950 . S
C1942 C1941 1.334 . S
C1942 C1943 1.287 . S
C1943 C1942 1.287 . S
C1943 C1944 1.524 . S
C1943 H1946 0.999 . S
C1944 H1914 0.950 . S
C1944 C1943 1.524 . S
C1944 C1945 1.415 . S
C1945 H1915 0.950 . S
C1945 C1940 1.363 . S
C1945 C1944 1.415 . S
H1946 C1943 0.999 . S
H1947 C1928 0.913 . S
H1948 C1966 0.951 . S
H1949 C1968 0.951 . S
H1950 C1970 0.950 . S
H1951 C1971 0.950 . S
H1952 C1973 0.950 . S
H1953 C1976 0.950 . S
H1954 C1977 0.950 . S
H1955 C1979 0.950 . S
H1956 C1980 0.950 . S
H1957 C1981 0.951 . S
H1958 C1983 0.951 . S
H1959 C1985 0.950 . S
H1960 C1986 0.950 . S
H1961 C1988 0.950 . S
H1962 C1991 0.950 . S
H1963 C1992 0.950 . S
H1964 C1994 0.950 . S
H1965 C1995 0.950 . S
C1966 H1948 0.951 . S
C1966 C1967 1.366 . S
C1966 C1968 1.388 1_556 S
C1967 C1966 1.366 . S
C1967 C1971 1.385 1_556 S
C1968 H1949 0.951 . S
C1968 C1966 1.388 1_554 S
C1968 C1969 1.366 . S
C1969 C1968 1.366 . S
C1969 C1970 1.414 . S
C1969 C1972 1.499 . S
C1970 H1950 0.950 . S
C1970 C1969 1.414 . S
C1970 C1971 1.374 . S
C1971 H1951 0.950 . S
C1971 C1967 1.385 1_554 S
C1971 C1970 1.374 . S
C1972 C1969 1.499 . S
C1972 C1973 1.373 . S
C1972 C1974 1.389 . S
C1973 H1952 0.950 . S
C1973 C1972 1.373 . S
C1973 C1989 1.377 . S
C1974 C1972 1.389 . S
C1974 C1975 1.524 . S
C1974 C1988 1.377 . S
C1975 C1974 1.524 . S
C1975 C1976 1.397 . S
C1975 C1980 1.363 . S
C1976 H1953 0.950 . S
C1976 C1975 1.397 . S
C1976 C1977 1.334 . S
C1977 H1954 0.950 . S
C1977 C1976 1.334 . S
C1977 C1978 1.287 . S
C1978 C1977 1.287 . S
C1978 C1979 1.524 . S
C1978 H1997 0.913 1_554 S
C1979 H1955 0.950 . S
C1979 C1978 1.524 . S
C1979 C1980 1.415 . S
C1980 H1956 0.950 . S
C1980 C1975 1.363 . S
C1980 C1979 1.415 . S
C1981 H1957 0.951 . S
C1981 C1982 1.366 . S
C1981 C1983 1.388 . S
C1982 C1981 1.366 . S
C1982 C1986 1.385 . S
C1983 H1958 0.951 . S
C1983 C1981 1.388 . S
C1983 C1984 1.366 . S
C1984 C1983 1.366 . S
C1984 C1985 1.414 . S
C1984 C1987 1.499 . S
C1985 H1959 0.950 . S
C1985 C1984 1.414 . S
C1985 C1986 1.374 . S
C1986 H1960 0.950 . S
C1986 C1982 1.385 . S
C1986 C1985 1.374 . S
C1987 C1984 1.499 . S
C1987 C1988 1.373 . S
C1987 C1989 1.389 . S
C1988 H1961 0.950 . S
C1988 C1974 1.377 . S
C1988 C1987 1.373 . S
C1989 C1973 1.377 . S
C1989 C1987 1.389 . S
C1989 C1990 1.524 . S
C1990 C1989 1.524 . S
C1990 C1991 1.397 . S
C1990 C1995 1.363 . S
C1991 H1962 0.950 . S
C1991 C1990 1.397 . S
C1991 C1992 1.334 . S
C1992 H1963 0.950 . S
C1992 C1991 1.334 . S
C1992 C1993 1.287 . S
C1993 C1992 1.287 . S
C1993 C1994 1.524 . S
C1993 H1996 0.999 . S
C1994 H1964 0.950 . S
C1994 C1993 1.524 . S
C1994 C1995 1.415 . S
C1995 H1965 0.950 . S
C1995 C1990 1.363 . S
C1995 C1994 1.415 . S
H1996 C1993 0.999 . S
H1997 C1978 0.913 1_556 S
H1998 C2016 0.951 . S
H1999 C2018 0.951 . S
H2000 C2020 0.950 . S
H2001 C2021 0.950 . S
H2002 C2023 0.950 . S
H2003 C2026 0.950 . S
H2004 C2027 0.950 . S
H2005 C2029 0.950 . S
H2006 C2030 0.950 . S
H2007 C2031 0.951 . S
H2008 C2033 0.951 . S
H2009 C2035 0.950 . S
H2010 C2036 0.950 . S
H2011 C2038 0.950 . S
H2012 C2041 0.950 . S
H2013 C2042 0.950 . S
H2014 C2044 0.950 1_554 S
H2015 C2045 0.950 . S
C2016 H1998 0.951 . S
C2016 C2017 1.366 . S
C2016 C2018 1.388 . S
C2017 C2016 1.366 . S
C2017 C2021 1.385 . S
C2018 H1999 0.951 . S
C2018 C2016 1.388 . S
C2018 C2019 1.366 . S
C2019 C2018 1.366 . S
C2019 C2020 1.414 . S
C2019 C2022 1.499 . S
C2020 H2000 0.950 . S
C2020 C2019 1.414 . S
C2020 C2021 1.374 . S
C2021 H2001 0.950 . S
C2021 C2017 1.385 . S
C2021 C2020 1.374 . S
C2022 C2019 1.499 . S
C2022 C2023 1.373 . S
C2022 C2024 1.389 . S
C2023 H2002 0.950 . S
C2023 C2022 1.373 . S
C2023 C2039 1.377 . S
C2024 C2022 1.389 . S
C2024 C2025 1.524 . S
C2024 C2038 1.377 . S
C2025 C2024 1.524 . S
C2025 C2026 1.397 . S
C2025 C2030 1.363 . S
C2026 H2003 0.950 . S
C2026 C2025 1.397 . S
C2026 C2027 1.334 . S
C2027 H2004 0.950 . S
C2027 C2026 1.334 . S
C2027 C2028 1.287 . S
C2028 C2027 1.287 . S
C2028 C2029 1.524 . S
C2028 H2047 0.913 . S
C2029 H2005 0.950 . S
C2029 C2028 1.524 . S
C2029 C2030 1.415 . S
C2030 H2006 0.950 . S
C2030 C2025 1.363 . S
C2030 C2029 1.415 . S
C2031 H2007 0.951 . S
C2031 C2032 1.366 . S
C2031 C2033 1.388 1_554 S
C2032 C2031 1.366 . S
C2032 C2036 1.385 1_554 S
C2033 H2008 0.951 . S
C2033 C2031 1.388 1_556 S
C2033 C2034 1.366 . S
C2034 C2033 1.366 . S
C2034 C2035 1.414 . S
C2034 C2037 1.499 . S
C2035 H2009 0.950 . S
C2035 C2034 1.414 . S
C2035 C2036 1.374 . S
C2036 H2010 0.950 . S
C2036 C2032 1.385 1_556 S
C2036 C2035 1.374 . S
C2037 C2034 1.499 . S
C2037 C2038 1.373 . S
C2037 C2039 1.389 . S
C2038 H2011 0.950 . S
C2038 C2024 1.377 . S
C2038 C2037 1.373 . S
C2039 C2023 1.377 . S
C2039 C2037 1.389 . S
C2039 C2040 1.524 . S
C2040 C2039 1.524 . S
C2040 C2041 1.397 . S
C2040 C2045 1.363 . S
C2041 H2012 0.950 . S
C2041 C2040 1.397 . S
C2041 C2042 1.334 . S
C2042 H2013 0.950 . S
C2042 C2041 1.334 . S
C2042 C2043 1.287 . S
C2043 C2042 1.287 . S
C2043 C2044 1.524 . S
C2043 H2046 0.999 1_556 S
C2044 H2014 0.950 1_556 S
C2044 C2043 1.524 . S
C2044 C2045 1.415 . S
C2045 H2015 0.950 . S
C2045 C2040 1.363 . S
C2045 C2044 1.415 . S
H2046 C2043 0.999 1_554 S
H2047 C2028 0.913 . S
H2048 C2066 0.951 . S
H2049 C2068 0.951 . S
H2050 C2070 0.950 . S
H2051 C2071 0.950 . S
H2052 C2073 0.950 . S
H2053 C2076 0.950 . S
H2054 C2077 0.950 . S
H2055 C2079 0.950 . S
H2056 C2080 0.950 . S
H2057 C2081 0.951 . S
H2058 C2083 0.951 . S
H2059 C2085 0.950 . S
H2060 C2086 0.950 . S
H2061 C2088 0.950 . S
H2062 C2091 0.950 . S
H2063 C2092 0.950 . S
H2064 C2094 0.950 . S
H2065 C2095 0.950 . S
C2066 H2048 0.951 . S
C2066 C2067 1.366 . S
C2066 C2068 1.388 . S
C2067 C2066 1.366 . S
C2067 C2071 1.385 . S
C2068 H2049 0.951 . S
C2068 C2066 1.388 . S
C2068 C2069 1.366 . S
C2069 C2068 1.366 . S
C2069 C2070 1.414 . S
C2069 C2072 1.499 . S
C2070 H2050 0.950 . S
C2070 C2069 1.414 . S
C2070 C2071 1.374 . S
C2071 H2051 0.950 . S
C2071 C2067 1.385 . S
C2071 C2070 1.374 . S
C2072 C2069 1.499 . S
C2072 C2073 1.373 . S
C2072 C2074 1.389 . S
C2073 H2052 0.950 . S
C2073 C2072 1.373 . S
C2073 C2089 1.377 . S
C2074 C2072 1.389 . S
C2074 C2075 1.524 . S
C2074 C2088 1.377 . S
C2075 C2074 1.524 . S
C2075 C2076 1.397 . S
C2075 C2080 1.363 . S
C2076 H2053 0.950 . S
C2076 C2075 1.397 . S
C2076 C2077 1.334 1_554 S
C2077 H2054 0.950 . S
C2077 C2076 1.334 1_556 S
C2077 C2078 1.287 . S
C2078 C2077 1.287 . S
C2078 C2079 1.524 . S
C2078 H2097 0.913 . S
C2079 H2055 0.950 . S
C2079 C2078 1.524 . S
C2079 C2080 1.415 1_556 S
C2080 H2056 0.950 . S
C2080 C2075 1.363 . S
C2080 C2079 1.415 1_554 S
C2081 H2057 0.951 . S
C2081 C2082 1.366 . S
C2081 C2083 1.388 . S
C2082 C2081 1.366 . S
C2082 C2086 1.385 . S
C2083 H2058 0.951 . S
C2083 C2081 1.388 . S
C2083 C2084 1.366 . S
C2084 C2083 1.366 . S
C2084 C2085 1.414 . S
C2084 C2087 1.499 . S
C2085 H2059 0.950 . S
C2085 C2084 1.414 . S
C2085 C2086 1.374 . S
C2086 H2060 0.950 . S
C2086 C2082 1.385 . S
C2086 C2085 1.374 . S
C2087 C2084 1.499 . S
C2087 C2088 1.373 . S
C2087 C2089 1.389 . S
C2088 H2061 0.950 . S
C2088 C2074 1.377 . S
C2088 C2087 1.373 . S
C2089 C2073 1.377 . S
C2089 C2087 1.389 . S
C2089 C2090 1.524 . S
C2090 C2089 1.524 . S
C2090 C2091 1.397 . S
C2090 C2095 1.363 . S
C2091 H2062 0.950 . S
C2091 C2090 1.397 . S
C2091 C2092 1.334 . S
C2092 H2063 0.950 . S
C2092 C2091 1.334 . S
C2092 C2093 1.287 . S
C2093 C2092 1.287 . S
C2093 C2094 1.524 . S
C2093 H2096 0.999 . S
C2094 H2064 0.950 . S
C2094 C2093 1.524 . S
C2094 C2095 1.415 . S
C2095 H2065 0.950 . S
C2095 C2090 1.363 . S
C2095 C2094 1.415 . S
H2096 C2093 0.999 . S
H2097 C2078 0.913 . S
H2098 C2116 0.951 . S
H2099 C2118 0.951 . S
H2100 C2120 0.950 . S
H2101 C2121 0.950 . S
H2102 C2123 0.950 . S
H2103 C2126 0.950 . S
H2104 C2127 0.950 . S
H2105 C2129 0.950 . S
H2106 C2130 0.950 . S
H2107 C2131 0.951 . S
H2108 C2133 0.951 . S
H2109 C2135 0.950 . S
H2110 C2136 0.950 . S
H2111 C2138 0.950 . S
H2112 C2141 0.950 . S
H2113 C2142 0.950 . S
H2114 C2144 0.950 . S
H2115 C2145 0.950 . S
C2116 H2098 0.951 . S
C2116 C2117 1.366 . S
C2116 C2118 1.388 . S
C2117 C2116 1.366 . S
C2117 C2121 1.385 . S
C2118 H2099 0.951 . S
C2118 C2116 1.388 . S
C2118 C2119 1.366 . S
C2119 C2118 1.366 . S
C2119 C2120 1.414 . S
C2119 C2122 1.499 . S
C2120 H2100 0.950 . S
C2120 C2119 1.414 . S
C2120 C2121 1.374 . S
C2121 H2101 0.950 . S
C2121 C2117 1.385 . S
C2121 C2120 1.374 . S
C2122 C2119 1.499 . S
C2122 C2123 1.373 . S
C2122 C2124 1.389 . S
C2123 H2102 0.950 . S
C2123 C2122 1.373 . S
C2123 C2139 1.377 1_655 S
C2124 C2122 1.389 . S
C2124 C2125 1.524 . S
C2124 C2138 1.377 1_655 S
C2125 C2124 1.524 . S
C2125 C2126 1.397 . S
C2125 C2130 1.363 . S
C2126 H2103 0.950 . S
C2126 C2125 1.397 . S
C2126 C2127 1.334 . S
C2127 H2104 0.950 . S
C2127 C2126 1.334 . S
C2127 C2128 1.287 . S
C2128 C2127 1.287 . S
C2128 C2129 1.524 . S
C2128 H2147 0.913 . S
C2129 H2105 0.950 . S
C2129 C2128 1.524 . S
C2129 C2130 1.415 . S
C2130 H2106 0.950 . S
C2130 C2125 1.363 . S
C2130 C2129 1.415 . S
C2131 H2107 0.951 . S
C2131 C2132 1.366 . S
C2131 C2133 1.388 . S
C2132 C2131 1.366 . S
C2132 C2136 1.385 . S
C2133 H2108 0.951 . S
C2133 C2131 1.388 . S
C2133 C2134 1.366 . S
C2134 C2133 1.366 . S
C2134 C2135 1.414 . S
C2134 C2137 1.499 . S
C2135 H2109 0.950 . S
C2135 C2134 1.414 . S
C2135 C2136 1.374 . S
C2136 H2110 0.950 . S
C2136 C2132 1.385 . S
C2136 C2135 1.374 . S
C2137 C2134 1.499 . S
C2137 C2138 1.373 . S
C2137 C2139 1.389 . S
C2138 H2111 0.950 . S
C2138 C2124 1.377 1_455 S
C2138 C2137 1.373 . S
C2139 C2123 1.377 1_455 S
C2139 C2137 1.389 . S
C2139 C2140 1.524 . S
C2140 C2139 1.524 . S
C2140 C2141 1.397 . S
C2140 C2145 1.363 . S
C2141 H2112 0.950 . S
C2141 C2140 1.397 . S
C2141 C2142 1.334 . S
C2142 H2113 0.950 . S
C2142 C2141 1.334 . S
C2142 C2143 1.287 . S
C2143 C2142 1.287 . S
C2143 C2144 1.524 . S
C2143 H2146 0.999 . S
C2144 H2114 0.950 . S
C2144 C2143 1.524 . S
C2144 C2145 1.415 . S
C2145 H2115 0.950 . S
C2145 C2140 1.363 . S
C2145 C2144 1.415 . S
H2146 C2143 0.999 . S
H2147 C2128 0.913 . S
H2148 C2166 0.951 . S
H2149 C2168 0.951 . S
H2150 C2170 0.950 . S
H2151 C2171 0.950 . S
H2152 C2173 0.950 . S
H2153 C2176 0.950 . S
H2154 C2177 0.950 . S
H2155 C2179 0.950 . S
H2156 C2180 0.950 . S
H2157 C2181 0.951 . S
H2158 C2183 0.951 . S
H2159 C2185 0.950 . S
H2160 C2186 0.950 . S
H2161 C2188 0.950 . S
H2162 C2191 0.950 . S
H2163 C2192 0.950 . S
H2164 C2194 0.950 . S
H2165 C2195 0.950 . S
C2166 H2148 0.951 . S
C2166 C2167 1.366 . S
C2166 C2168 1.388 . S
C2167 C2166 1.366 . S
C2167 C2171 1.385 . S
C2168 H2149 0.951 . S
C2168 C2166 1.388 . S
C2168 C2169 1.366 . S
C2169 C2168 1.366 . S
C2169 C2170 1.414 . S
C2169 C2172 1.499 . S
C2170 H2150 0.950 . S
C2170 C2169 1.414 . S
C2170 C2171 1.374 . S
C2171 H2151 0.950 . S
C2171 C2167 1.385 . S
C2171 C2170 1.374 . S
C2172 C2169 1.499 . S
C2172 C2173 1.373 . S
C2172 C2174 1.389 . S
C2173 H2152 0.950 . S
C2173 C2172 1.373 . S
C2173 C2189 1.377 . S
C2174 C2172 1.389 . S
C2174 C2175 1.524 . S
C2174 C2188 1.377 . S
C2175 C2174 1.524 . S
C2175 C2176 1.397 . S
C2175 C2180 1.363 . S
C2176 H2153 0.950 . S
C2176 C2175 1.397 . S
C2176 C2177 1.334 . S
C2177 H2154 0.950 . S
C2177 C2176 1.334 . S
C2177 C2178 1.287 . S
C2178 C2177 1.287 . S
C2178 C2179 1.524 . S
C2178 H2197 0.913 . S
C2179 H2155 0.950 . S
C2179 C2178 1.524 . S
C2179 C2180 1.415 . S
C2180 H2156 0.950 . S
C2180 C2175 1.363 . S
C2180 C2179 1.415 . S
C2181 H2157 0.951 . S
C2181 C2182 1.366 . S
C2181 C2183 1.388 . S
C2182 C2181 1.366 . S
C2182 C2186 1.385 . S
C2183 H2158 0.951 . S
C2183 C2181 1.388 . S
C2183 C2184 1.366 . S
C2184 C2183 1.366 . S
C2184 C2185 1.414 . S
C2184 C2187 1.499 . S
C2185 H2159 0.950 . S
C2185 C2184 1.414 . S
C2185 C2186 1.374 . S
C2186 H2160 0.950 . S
C2186 C2182 1.385 . S
C2186 C2185 1.374 . S
C2187 C2184 1.499 . S
C2187 C2188 1.373 . S
C2187 C2189 1.389 . S
C2188 H2161 0.950 . S
C2188 C2174 1.377 . S
C2188 C2187 1.373 . S
C2189 C2173 1.377 . S
C2189 C2187 1.389 . S
C2189 C2190 1.524 . S
C2190 C2189 1.524 . S
C2190 C2191 1.397 . S
C2190 C2195 1.363 . S
C2191 H2162 0.950 . S
C2191 C2190 1.397 . S
C2191 C2192 1.334 . S
C2192 H2163 0.950 . S
C2192 C2191 1.334 . S
C2192 C2193 1.287 . S
C2193 C2192 1.287 . S
C2193 C2194 1.524 . S
C2193 H2196 0.999 . S
C2194 H2164 0.950 . S
C2194 C2193 1.524 . S
C2194 C2195 1.415 . S
C2195 H2165 0.950 . S
C2195 C2190 1.363 . S
C2195 C2194 1.415 . S
H2196 C2193 0.999 . S
H2197 C2178 0.913 . S
H2198 C2216 0.951 . S
H2199 C2218 0.951 . S
H2200 C2220 0.950 . S
H2201 C2221 0.950 . S
H2202 C2223 0.950 . S
H2203 C2226 0.950 . S
H2204 C2227 0.950 . S
H2205 C2229 0.950 . S
H2206 C2230 0.950 . S
H2207 C2231 0.951 . S
H2208 C2233 0.951 . S
H2209 C2235 0.950 . S
H2210 C2236 0.950 . S
H2211 C2238 0.950 . S
H2212 C2241 0.950 . S
H2213 C2242 0.950 . S
H2214 C2244 0.950 . S
H2215 C2245 0.950 . S
C2216 H2198 0.951 . S
C2216 C2217 1.366 . S
C2216 C2218 1.388 . S
C2217 C2216 1.366 . S
C2217 C2221 1.385 . S
C2218 H2199 0.951 . S
C2218 C2216 1.388 . S
C2218 C2219 1.366 . S
C2219 C2218 1.366 . S
C2219 C2220 1.414 . S
C2219 C2222 1.499 . S
C2220 H2200 0.950 . S
C2220 C2219 1.414 . S
C2220 C2221 1.374 . S
C2221 H2201 0.950 . S
C2221 C2217 1.385 . S
C2221 C2220 1.374 . S
C2222 C2219 1.499 . S
C2222 C2223 1.373 . S
C2222 C2224 1.389 . S
C2223 H2202 0.950 . S
C2223 C2222 1.373 . S
C2223 C2239 1.377 . S
C2224 C2222 1.389 . S
C2224 C2225 1.524 . S
C2224 C2238 1.377 . S
C2225 C2224 1.524 . S
C2225 C2226 1.397 . S
C2225 C2230 1.363 . S
C2226 H2203 0.950 . S
C2226 C2225 1.397 . S
C2226 C2227 1.334 . S
C2227 H2204 0.950 . S
C2227 C2226 1.334 . S
C2227 C2228 1.287 . S
C2228 C2227 1.287 . S
C2228 C2229 1.524 . S
C2228 H2247 0.913 . S
C2229 H2205 0.950 . S
C2229 C2228 1.524 . S
C2229 C2230 1.415 . S
C2230 H2206 0.950 . S
C2230 C2225 1.363 . S
C2230 C2229 1.415 . S
C2231 H2207 0.951 . S
C2231 C2232 1.366 . S
C2231 C2233 1.388 . S
C2232 C2231 1.366 . S
C2232 C2236 1.385 . S
C2233 H2208 0.951 . S
C2233 C2231 1.388 . S
C2233 C2234 1.366 . S
C2234 C2233 1.366 . S
C2234 C2235 1.414 . S
C2234 C2237 1.499 . S
C2235 H2209 0.950 . S
C2235 C2234 1.414 . S
C2235 C2236 1.374 . S
C2236 H2210 0.950 . S
C2236 C2232 1.385 . S
C2236 C2235 1.374 . S
C2237 C2234 1.499 . S
C2237 C2238 1.373 . S
C2237 C2239 1.389 . S
C2238 H2211 0.950 . S
C2238 C2224 1.377 . S
C2238 C2237 1.373 . S
C2239 C2223 1.377 . S
C2239 C2237 1.389 . S
C2239 C2240 1.524 . S
C2240 C2239 1.524 . S
C2240 C2241 1.397 . S
C2240 C2245 1.363 . S
C2241 H2212 0.950 . S
C2241 C2240 1.397 . S
C2241 C2242 1.334 . S
C2242 H2213 0.950 . S
C2242 C2241 1.334 . S
C2242 C2243 1.287 . S
C2243 C2242 1.287 . S
C2243 C2244 1.524 . S
C2243 H2246 0.999 . S
C2244 H2214 0.950 . S
C2244 C2243 1.524 . S
C2244 C2245 1.415 . S
C2245 H2215 0.950 . S
C2245 C2240 1.363 . S
C2245 C2244 1.415 . S
H2246 C2243 0.999 . S
H2247 C2228 0.913 . S
H2248 C2266 0.951 . S
H2249 C2268 0.951 . S
H2250 C2270 0.950 . S
H2251 C2271 0.950 . S
H2252 C2273 0.950 . S
H2253 C2276 0.950 . S
H2254 C2277 0.950 . S
H2255 C2279 0.950 . S
H2256 C2280 0.950 . S
H2257 C2281 0.951 . S
H2258 C2283 0.951 . S
H2259 C2285 0.950 . S
H2260 C2286 0.950 . S
H2261 C2288 0.950 . S
H2262 C2291 0.950 . S
H2263 C2292 0.950 . S
H2264 C2294 0.950 . S
H2265 C2295 0.950 . S
C2266 H2248 0.951 . S
C2266 C2267 1.366 . S
C2266 C2268 1.388 . S
C2267 C2266 1.366 . S
C2267 C2271 1.385 . S
C2268 H2249 0.951 . S
C2268 C2266 1.388 . S
C2268 C2269 1.366 . S
C2269 C2268 1.366 . S
C2269 C2270 1.414 . S
C2269 C2272 1.499 . S
C2270 H2250 0.950 . S
C2270 C2269 1.414 . S
C2270 C2271 1.374 . S
C2271 H2251 0.950 . S
C2271 C2267 1.385 . S
C2271 C2270 1.374 . S
C2272 C2269 1.499 . S
C2272 C2273 1.373 . S
C2272 C2274 1.389 . S
C2273 H2252 0.950 . S
C2273 C2272 1.373 . S
C2273 C2289 1.377 . S
C2274 C2272 1.389 . S
C2274 C2275 1.524 . S
C2274 C2288 1.377 . S
C2275 C2274 1.524 . S
C2275 C2276 1.397 . S
C2275 C2280 1.363 . S
C2276 H2253 0.950 . S
C2276 C2275 1.397 . S
C2276 C2277 1.334 1_556 S
C2277 H2254 0.950 . S
C2277 C2276 1.334 1_554 S
C2277 C2278 1.287 . S
C2278 C2277 1.287 . S
C2278 C2279 1.524 . S
C2278 H2297 0.913 . S
C2279 H2255 0.950 . S
C2279 C2278 1.524 . S
C2279 C2280 1.415 1_554 S
C2280 H2256 0.950 . S
C2280 C2275 1.363 . S
C2280 C2279 1.415 1_556 S
C2281 H2257 0.951 . S
C2281 C2282 1.366 . S
C2281 C2283 1.388 . S
C2282 C2281 1.366 . S
C2282 C2286 1.385 . S
C2283 H2258 0.951 . S
C2283 C2281 1.388 . S
C2283 C2284 1.366 . S
C2284 C2283 1.366 . S
C2284 C2285 1.414 . S
C2284 C2287 1.499 . S
C2285 H2259 0.950 . S
C2285 C2284 1.414 . S
C2285 C2286 1.374 . S
C2286 H2260 0.950 . S
C2286 C2282 1.385 . S
C2286 C2285 1.374 . S
C2287 C2284 1.499 . S
C2287 C2288 1.373 . S
C2287 C2289 1.389 . S
C2288 H2261 0.950 . S
C2288 C2274 1.377 . S
C2288 C2287 1.373 . S
C2289 C2273 1.377 . S
C2289 C2287 1.389 . S
C2289 C2290 1.524 . S
C2290 C2289 1.524 . S
C2290 C2291 1.397 . S
C2290 C2295 1.363 . S
C2291 H2262 0.950 . S
C2291 C2290 1.397 . S
C2291 C2292 1.334 . S
C2292 H2263 0.950 . S
C2292 C2291 1.334 . S
C2292 C2293 1.287 . S
C2293 C2292 1.287 . S
C2293 C2294 1.524 . S
C2293 H2296 0.999 . S
C2294 H2264 0.950 . S
C2294 C2293 1.524 . S
C2294 C2295 1.415 . S
C2295 H2265 0.950 . S
C2295 C2290 1.363 . S
C2295 C2294 1.415 . S
H2296 C2293 0.999 . S
H2297 C2278 0.913 . S
H2298 C2316 0.951 . S
H2299 C2318 0.951 . S
H2300 C2320 0.950 . S
H2301 C2321 0.950 . S
H2302 C2323 0.950 . S
H2303 C2326 0.950 . S
H2304 C2327 0.950 . S
H2305 C2329 0.950 . S
H2306 C2330 0.950 . S
H2307 C2331 0.951 . S
H2308 C2333 0.951 . S
H2309 C2335 0.950 . S
H2310 C2336 0.950 . S
H2311 C2338 0.950 . S
H2312 C2341 0.950 . S
H2313 C2342 0.950 . S
H2314 C2344 0.950 . S
H2315 C2345 0.950 . S
C2316 H2298 0.951 . S
C2316 C2317 1.366 . S
C2316 C2318 1.388 . S
C2317 C2316 1.366 . S
C2317 C2321 1.385 . S
C2318 H2299 0.951 . S
C2318 C2316 1.388 . S
C2318 C2319 1.366 . S
C2319 C2318 1.366 . S
C2319 C2320 1.414 . S
C2319 C2322 1.499 . S
C2320 H2300 0.950 . S
C2320 C2319 1.414 . S
C2320 C2321 1.374 . S
C2321 H2301 0.950 . S
C2321 C2317 1.385 . S
C2321 C2320 1.374 . S
C2322 C2319 1.499 . S
C2322 C2323 1.373 . S
C2322 C2324 1.389 . S
C2323 H2302 0.950 . S
C2323 C2322 1.373 . S
C2323 C2339 1.377 . S
C2324 C2322 1.389 . S
C2324 C2325 1.524 . S
C2324 C2338 1.377 . S
C2325 C2324 1.524 . S
C2325 C2326 1.397 . S
C2325 C2330 1.363 . S
C2326 H2303 0.950 . S
C2326 C2325 1.397 . S
C2326 C2327 1.334 1_554 S
C2327 H2304 0.950 . S
C2327 C2326 1.334 1_556 S
C2327 C2328 1.287 . S
C2328 C2327 1.287 . S
C2328 C2329 1.524 . S
C2328 H2347 0.913 . S
C2329 H2305 0.950 . S
C2329 C2328 1.524 . S
C2329 C2330 1.415 1_556 S
C2330 H2306 0.950 . S
C2330 C2325 1.363 . S
C2330 C2329 1.415 1_554 S
C2331 H2307 0.951 . S
C2331 C2332 1.366 . S
C2331 C2333 1.388 . S
C2332 C2331 1.366 . S
C2332 C2336 1.385 . S
C2333 H2308 0.951 . S
C2333 C2331 1.388 . S
C2333 C2334 1.366 . S
C2334 C2333 1.366 . S
C2334 C2335 1.414 . S
C2334 C2337 1.499 . S
C2335 H2309 0.950 . S
C2335 C2334 1.414 . S
C2335 C2336 1.374 . S
C2336 H2310 0.950 . S
C2336 C2332 1.385 . S
C2336 C2335 1.374 . S
C2337 C2334 1.499 . S
C2337 C2338 1.373 . S
C2337 C2339 1.389 . S
C2338 H2311 0.950 . S
C2338 C2324 1.377 . S
C2338 C2337 1.373 . S
C2339 C2323 1.377 . S
C2339 C2337 1.389 . S
C2339 C2340 1.524 . S
C2340 C2339 1.524 . S
C2340 C2341 1.397 . S
C2340 C2345 1.363 . S
C2341 H2312 0.950 . S
C2341 C2340 1.397 . S
C2341 C2342 1.334 . S
C2342 H2313 0.950 . S
C2342 C2341 1.334 . S
C2342 C2343 1.287 . S
C2343 C2342 1.287 . S
C2343 C2344 1.524 . S
C2343 H2346 0.999 . S
C2344 H2314 0.950 . S
C2344 C2343 1.524 . S
C2344 C2345 1.415 . S
C2345 H2315 0.950 . S
C2345 C2340 1.363 . S
C2345 C2344 1.415 . S
H2346 C2343 0.999 . S
H2347 C2328 0.913 . S
H2348 C2366 0.951 . S
H2349 C2368 0.951 . S
H2350 C2370 0.950 . S
H2351 C2371 0.950 . S
H2352 C2373 0.950 . S
H2353 C2376 0.950 . S
H2354 C2377 0.950 . S
H2355 C2379 0.950 . S
H2356 C2380 0.950 . S
H2357 C2381 0.951 . S
H2358 C2383 0.951 . S
H2359 C2385 0.950 . S
H2360 C2386 0.950 . S
H2361 C2388 0.950 . S
H2362 C2391 0.950 . S
H2363 C2392 0.950 . S
H2364 C2394 0.950 . S
H2365 C2395 0.950 . S
C2366 H2348 0.951 . S
C2366 C2367 1.366 . S
C2366 C2368 1.388 . S
C2367 C2366 1.366 . S
C2367 C2371 1.385 . S
C2368 H2349 0.951 . S
C2368 C2366 1.388 . S
C2368 C2369 1.366 . S
C2369 C2368 1.366 . S
C2369 C2370 1.414 . S
C2369 C2372 1.499 . S
C2370 H2350 0.950 . S
C2370 C2369 1.414 . S
C2370 C2371 1.374 . S
C2371 H2351 0.950 . S
C2371 C2367 1.385 . S
C2371 C2370 1.374 . S
C2372 C2369 1.499 . S
C2372 C2373 1.373 . S
C2372 C2374 1.389 . S
C2373 H2352 0.950 . S
C2373 C2372 1.373 . S
C2373 C2389 1.377 . S
C2374 C2372 1.389 . S
C2374 C2375 1.524 . S
C2374 C2388 1.377 . S
C2375 C2374 1.524 . S
C2375 C2376 1.397 . S
C2375 C2380 1.363 . S
C2376 H2353 0.950 . S
C2376 C2375 1.397 . S
C2376 C2377 1.334 . S
C2377 H2354 0.950 . S
C2377 C2376 1.334 . S
C2377 C2378 1.287 . S
C2378 C2377 1.287 . S
C2378 C2379 1.524 . S
C2378 H2397 0.913 . S
C2379 H2355 0.950 . S
C2379 C2378 1.524 . S
C2379 C2380 1.415 . S
C2380 H2356 0.950 . S
C2380 C2375 1.363 . S
C2380 C2379 1.415 . S
C2381 H2357 0.951 . S
C2381 C2382 1.366 . S
C2381 C2383 1.388 . S
C2382 C2381 1.366 . S
C2382 C2386 1.385 . S
C2383 H2358 0.951 . S
C2383 C2381 1.388 . S
C2383 C2384 1.366 . S
C2384 C2383 1.366 . S
C2384 C2385 1.414 . S
C2384 C2387 1.499 . S
C2385 H2359 0.950 . S
C2385 C2384 1.414 . S
C2385 C2386 1.374 . S
C2386 H2360 0.950 . S
C2386 C2382 1.385 . S
C2386 C2385 1.374 . S
C2387 C2384 1.499 . S
C2387 C2388 1.373 . S
C2387 C2389 1.389 . S
C2388 H2361 0.950 . S
C2388 C2374 1.377 . S
C2388 C2387 1.373 . S
C2389 C2373 1.377 . S
C2389 C2387 1.389 . S
C2389 C2390 1.524 . S
C2390 C2389 1.524 . S
C2390 C2391 1.397 . S
C2390 C2395 1.363 . S
C2391 H2362 0.950 . S
C2391 C2390 1.397 . S
C2391 C2392 1.334 . S
C2392 H2363 0.950 . S
C2392 C2391 1.334 . S
C2392 C2393 1.287 . S
C2393 C2392 1.287 . S
C2393 C2394 1.524 . S
C2393 H2396 0.999 . S
C2394 H2364 0.950 . S
C2394 C2393 1.524 . S
C2394 C2395 1.415 . S
C2395 H2365 0.950 . S
C2395 C2390 1.363 . S
C2395 C2394 1.415 . S
H2396 C2393 0.999 . S
H2397 C2378 0.913 . S
H2398 C2416 0.951 . S
H2399 C2418 0.951 . S
H2400 C2420 0.950 . S
H2401 C2421 0.950 . S
H2402 C2423 0.950 . S
H2403 C2426 0.950 . S
H2404 C2427 0.950 . S
H2405 C2429 0.950 . S
H2406 C2430 0.950 . S
H2407 C2431 0.951 . S
H2408 C2433 0.951 . S
H2409 C2435 0.950 . S
H2410 C2436 0.950 . S
H2411 C2438 0.950 . S
H2412 C2441 0.950 . S
H2413 C2442 0.950 . S
H2414 C2444 0.950 . S
H2415 C2445 0.950 . S
C2416 H2398 0.951 . S
C2416 C2417 1.366 . S
C2416 C2418 1.388 . S
C2417 C2416 1.366 . S
C2417 C2421 1.385 . S
C2418 H2399 0.951 . S
C2418 C2416 1.388 . S
C2418 C2419 1.366 . S
C2419 C2418 1.366 . S
C2419 C2420 1.414 . S
C2419 C2422 1.499 . S
C2420 H2400 0.950 . S
C2420 C2419 1.414 . S
C2420 C2421 1.374 . S
C2421 H2401 0.950 . S
C2421 C2417 1.385 . S
C2421 C2420 1.374 . S
C2422 C2419 1.499 . S
C2422 C2423 1.373 . S
C2422 C2424 1.389 . S
C2423 H2402 0.950 . S
C2423 C2422 1.373 . S
C2423 C2439 1.377 1_655 S
C2424 C2422 1.389 . S
C2424 C2425 1.524 . S
C2424 C2438 1.377 1_655 S
C2425 C2424 1.524 . S
C2425 C2426 1.397 . S
C2425 C2430 1.363 . S
C2426 H2403 0.950 . S
C2426 C2425 1.397 . S
C2426 C2427 1.334 . S
C2427 H2404 0.950 . S
C2427 C2426 1.334 . S
C2427 C2428 1.287 . S
C2428 C2427 1.287 . S
C2428 C2429 1.524 . S
C2428 H2447 0.913 . S
C2429 H2405 0.950 . S
C2429 C2428 1.524 . S
C2429 C2430 1.415 . S
C2430 H2406 0.950 . S
C2430 C2425 1.363 . S
C2430 C2429 1.415 . S
C2431 H2407 0.951 . S
C2431 C2432 1.366 . S
C2431 C2433 1.388 . S
C2432 C2431 1.366 . S
C2432 C2436 1.385 . S
C2433 H2408 0.951 . S
C2433 C2431 1.388 . S
C2433 C2434 1.366 . S
C2434 C2433 1.366 . S
C2434 C2435 1.414 . S
C2434 C2437 1.499 . S
C2435 H2409 0.950 . S
C2435 C2434 1.414 . S
C2435 C2436 1.374 . S
C2436 H2410 0.950 . S
C2436 C2432 1.385 . S
C2436 C2435 1.374 . S
C2437 C2434 1.499 . S
C2437 C2438 1.373 . S
C2437 C2439 1.389 . S
C2438 H2411 0.950 . S
C2438 C2424 1.377 1_455 S
C2438 C2437 1.373 . S
C2439 C2423 1.377 1_455 S
C2439 C2437 1.389 . S
C2439 C2440 1.524 . S
C2440 C2439 1.524 . S
C2440 C2441 1.397 . S
C2440 C2445 1.363 . S
C2441 H2412 0.950 . S
C2441 C2440 1.397 . S
C2441 C2442 1.334 . S
C2442 H2413 0.950 . S
C2442 C2441 1.334 . S
C2442 C2443 1.287 . S
C2443 C2442 1.287 . S
C2443 C2444 1.524 . S
C2443 H2446 0.999 . S
C2444 H2414 0.950 . S
C2444 C2443 1.524 . S
C2444 C2445 1.415 . S
C2445 H2415 0.950 . S
C2445 C2440 1.363 . S
C2445 C2444 1.415 . S
H2446 C2443 0.999 . S
H2447 C2428 0.913 . S
H2448 C2466 0.951 . S
H2449 C2468 0.951 . S
H2450 C2470 0.950 . S
H2451 C2471 0.950 . S
H2452 C2473 0.950 . S
H2453 C2476 0.950 . S
H2454 C2477 0.950 . S
H2455 C2479 0.950 . S
H2456 C2480 0.950 . S
H2457 C2481 0.951 . S
H2458 C2483 0.951 . S
H2459 C2485 0.950 . S
H2460 C2486 0.950 . S
H2461 C2488 0.950 . S
H2462 C2491 0.950 . S
H2463 C2492 0.950 . S
H2464 C2494 0.950 . S
H2465 C2495 0.951 . S
C2466 H2448 0.951 . S
C2466 C2467 1.366 . S
C2466 C2468 1.388 . S
C2467 C2466 1.366 . S
C2467 C2471 1.385 . S
C2468 H2449 0.951 . S
C2468 C2466 1.388 . S
C2468 C2469 1.366 . S
C2469 C2468 1.366 . S
C2469 C2470 1.414 . S
C2469 C2472 1.499 . S
C2470 H2450 0.950 . S
C2470 C2469 1.414 . S
C2470 C2471 1.374 . S
C2471 H2451 0.950 . S
C2471 C2467 1.385 . S
C2471 C2470 1.374 . S
C2472 C2469 1.499 . S
C2472 C2473 1.373 . S
C2472 C2474 1.389 . S
C2473 H2452 0.950 . S
C2473 C2472 1.373 . S
C2473 C2489 1.377 . S
C2474 C2472 1.389 . S
C2474 C2475 1.524 . S
C2474 C2488 1.377 . S
C2475 C2474 1.524 . S
C2475 C2476 1.397 . S
C2475 C2480 1.363 . S
C2476 H2453 0.950 . S
C2476 C2475 1.397 . S
C2476 C2477 1.334 . S
C2477 H2454 0.950 . S
C2477 C2476 1.334 . S
C2477 C2478 1.287 . S
C2478 C2477 1.287 . S
C2478 C2479 1.524 . S
C2478 H2497 0.913 . S
C2479 H2455 0.950 . S
C2479 C2478 1.524 . S
C2479 C2480 1.415 . S
C2480 H2456 0.950 . S
C2480 C2475 1.363 . S
C2480 C2479 1.415 . S
C2481 H2457 0.951 . S
C2481 C2482 1.366 . S
C2481 C2483 1.388 . S
C2482 C2481 1.366 . S
C2482 C2486 1.385 . S
C2483 H2458 0.951 . S
C2483 C2481 1.388 . S
C2483 C2484 1.366 . S
C2484 C2483 1.366 . S
C2484 C2485 1.414 . S
C2484 C2487 1.499 . S
C2485 H2459 0.950 . S
C2485 C2484 1.414 . S
C2485 C2486 1.374 . S
C2486 H2460 0.950 . S
C2486 C2482 1.385 . S
C2486 C2485 1.374 . S
C2487 C2484 1.499 . S
C2487 C2488 1.373 . S
C2487 C2489 1.389 . S
C2488 H2461 0.950 . S
C2488 C2474 1.377 . S
C2488 C2487 1.373 . S
C2489 C2473 1.377 . S
C2489 C2487 1.389 . S
C2489 C2490 1.524 . S
C2490 C2489 1.524 . S
C2490 C2491 1.397 . S
C2490 C2495 1.358 1_556 S
C2491 H2462 0.950 . S
C2491 C2490 1.397 . S
C2491 C2492 1.334 . S
C2492 H2463 0.950 . S
C2492 C2491 1.334 . S
C2492 C2493 1.287 1_556 S
C2493 C2492 1.287 1_554 S
C2493 C2494 1.524 . S
C2493 H2496 0.999 . S
C2494 H2464 0.950 . S
C2494 C2493 1.524 . S
C2494 C2495 1.419 . S
C2495 H2465 0.951 . S
C2495 C2490 1.358 1_554 S
C2495 C2494 1.419 . S
H2496 C2493 0.999 . S
H2497 C2478 0.913 . S
H2498 C2516 0.951 . S
H2499 C2518 0.951 . S
H2500 C2520 0.950 . S
H2501 C2521 0.950 . S
H2502 C2523 0.950 . S
H2503 C2526 0.950 . S
H2504 C2527 0.950 . S
H2505 C2529 0.950 . S
H2506 C2530 0.950 . S
H2507 C2531 0.951 . S
H2508 C2533 0.951 . S
H2509 C2535 0.950 . S
H2510 C2536 0.950 . S
H2511 C2538 0.950 . S
H2512 C2541 0.950 . S
H2513 C2542 0.950 . S
H2514 C2544 0.950 . S
H2515 C2545 0.950 . S
C2516 H2498 0.951 . S
C2516 C2517 1.366 . S
C2516 C2518 1.388 . S
C2517 C2516 1.366 . S
C2517 C2521 1.385 . S
C2518 H2499 0.951 . S
C2518 C2516 1.388 . S
C2518 C2519 1.366 . S
C2519 C2518 1.366 . S
C2519 C2520 1.414 . S
C2519 C2522 1.499 . S
C2520 H2500 0.950 . S
C2520 C2519 1.414 . S
C2520 C2521 1.374 . S
C2521 H2501 0.950 . S
C2521 C2517 1.385 . S
C2521 C2520 1.374 . S
C2522 C2519 1.499 . S
C2522 C2523 1.373 . S
C2522 C2524 1.389 . S
C2523 H2502 0.950 . S
C2523 C2522 1.373 . S
C2523 C2539 1.377 . S
C2524 C2522 1.389 . S
C2524 C2525 1.524 . S
C2524 C2538 1.377 . S
C2525 C2524 1.524 . S
C2525 C2526 1.397 . S
C2525 C2530 1.363 . S
C2526 H2503 0.950 . S
C2526 C2525 1.397 . S
C2526 C2527 1.334 . S
C2527 H2504 0.950 . S
C2527 C2526 1.334 . S
C2527 C2528 1.287 . S
C2528 C2527 1.287 . S
C2528 C2529 1.524 . S
C2528 H2547 0.913 . S
C2529 H2505 0.950 . S
C2529 C2528 1.524 . S
C2529 C2530 1.415 . S
C2530 H2506 0.950 . S
C2530 C2525 1.363 . S
C2530 C2529 1.415 . S
C2531 H2507 0.951 . S
C2531 C2532 1.366 . S
C2531 C2533 1.388 . S
C2532 C2531 1.366 . S
C2532 C2536 1.385 . S
C2533 H2508 0.951 . S
C2533 C2531 1.388 . S
C2533 C2534 1.366 . S
C2534 C2533 1.366 . S
C2534 C2535 1.414 . S
C2534 C2537 1.499 . S
C2535 H2509 0.950 . S
C2535 C2534 1.414 . S
C2535 C2536 1.374 . S
C2536 H2510 0.950 . S
C2536 C2532 1.385 . S
C2536 C2535 1.374 . S
C2537 C2534 1.499 . S
C2537 C2538 1.373 . S
C2537 C2539 1.389 . S
C2538 H2511 0.950 . S
C2538 C2524 1.377 . S
C2538 C2537 1.373 . S
C2539 C2523 1.377 . S
C2539 C2537 1.389 . S
C2539 C2540 1.524 . S
C2540 C2539 1.524 . S
C2540 C2541 1.397 . S
C2540 C2545 1.363 . S
C2541 H2512 0.950 . S
C2541 C2540 1.397 . S
C2541 C2542 1.334 . S
C2542 H2513 0.950 . S
C2542 C2541 1.334 . S
C2542 C2543 1.287 . S
C2543 C2542 1.287 . S
C2543 C2544 1.524 . S
C2543 H2546 0.999 . S
C2544 H2514 0.950 . S
C2544 C2543 1.524 . S
C2544 C2545 1.415 . S
C2545 H2515 0.950 . S
C2545 C2540 1.363 . S
C2545 C2544 1.415 . S
H2546 C2543 0.999 . S
H2547 C2528 0.913 . S
H2548 C2566 0.951 . S
H2549 C2568 0.951 . S
H2550 C2570 0.950 . S
H2551 C2571 0.950 . S
H2552 C2573 0.950 . S
H2553 C2576 0.950 . S
H2554 C2577 0.950 . S
H2555 C2579 0.950 . S
H2556 C2580 0.950 . S
H2557 C2581 0.951 . S
H2558 C2583 0.951 . S
H2559 C2585 0.950 . S
H2560 C2586 0.950 . S
H2561 C2588 0.950 . S
H2562 C2591 0.950 . S
H2563 C2592 0.950 1_556 S
H2564 C2594 0.950 . S
H2565 C2595 0.950 . S
C2566 H2548 0.951 . S
C2566 C2567 1.366 . S
C2566 C2568 1.388 . S
C2567 C2566 1.366 . S
C2567 C2571 1.385 . S
C2568 H2549 0.951 . S
C2568 C2566 1.388 . S
C2568 C2569 1.366 . S
C2569 C2568 1.366 . S
C2569 C2570 1.414 . S
C2569 C2572 1.499 . S
C2570 H2550 0.950 . S
C2570 C2569 1.414 . S
C2570 C2571 1.374 . S
C2571 H2551 0.950 . S
C2571 C2567 1.385 . S
C2571 C2570 1.374 . S
C2572 C2569 1.499 . S
C2572 C2573 1.373 . S
C2572 C2574 1.389 . S
C2573 H2552 0.950 . S
C2573 C2572 1.373 . S
C2573 C2589 1.377 . S
C2574 C2572 1.389 . S
C2574 C2575 1.524 . S
C2574 C2588 1.377 . S
C2575 C2574 1.524 . S
C2575 C2576 1.397 . S
C2575 C2580 1.363 . S
C2576 H2553 0.950 . S
C2576 C2575 1.397 . S
C2576 C2577 1.334 . S
C2577 H2554 0.950 . S
C2577 C2576 1.334 . S
C2577 C2578 1.287 . S
C2578 C2577 1.287 . S
C2578 C2579 1.524 . S
C2578 H2597 0.913 . S
C2579 H2555 0.950 . S
C2579 C2578 1.524 . S
C2579 C2580 1.415 . S
C2580 H2556 0.950 . S
C2580 C2575 1.363 . S
C2580 C2579 1.415 . S
C2581 H2557 0.951 . S
C2581 C2582 1.366 . S
C2581 C2583 1.388 . S
C2582 C2581 1.366 . S
C2582 C2586 1.385 . S
C2583 H2558 0.951 . S
C2583 C2581 1.388 . S
C2583 C2584 1.366 . S
C2584 C2583 1.366 . S
C2584 C2585 1.414 . S
C2584 C2587 1.499 . S
C2585 H2559 0.950 . S
C2585 C2584 1.414 . S
C2585 C2586 1.374 . S
C2586 H2560 0.950 . S
C2586 C2582 1.385 . S
C2586 C2585 1.374 . S
C2587 C2584 1.499 . S
C2587 C2588 1.373 . S
C2587 C2589 1.389 . S
C2588 H2561 0.950 . S
C2588 C2574 1.377 . S
C2588 C2587 1.373 . S
C2589 C2573 1.377 . S
C2589 C2587 1.389 . S
C2589 C2590 1.524 . S
C2590 C2589 1.524 . S
C2590 C2591 1.397 . S
C2590 C2595 1.363 . S
C2591 H2562 0.950 . S
C2591 C2590 1.397 . S
C2591 C2592 1.334 . S
C2592 H2563 0.950 1_554 S
C2592 C2591 1.334 . S
C2592 C2593 1.287 . S
C2593 C2592 1.287 . S
C2593 C2594 1.524 . S
C2593 H2596 0.999 . S
C2594 H2564 0.950 . S
C2594 C2593 1.524 . S
C2594 C2595 1.415 . S
C2595 H2565 0.950 . S
C2595 C2590 1.363 . S
C2595 C2594 1.415 . S
H2596 C2593 0.999 . S
H2597 C2578 0.913 . S
H2598 C2616 0.951 . S
H2599 C2618 0.951 . S
H2600 C2620 0.950 . S
H2601 C2621 0.950 . S
H2602 C2623 0.950 . S
H2603 C2626 0.950 . S
H2604 C2627 0.950 . S
H2605 C2629 0.950 . S
H2606 C2630 0.950 . S
H2607 C2631 0.951 . S
H2608 C2633 0.951 . S
H2609 C2635 0.950 . S
H2610 C2636 0.950 . S
H2611 C2638 0.950 . S
H2612 C2641 0.950 . S
H2613 C2642 0.950 . S
H2614 C2644 0.950 . S
H2615 C2645 0.950 . S
C2616 H2598 0.951 . S
C2616 C2617 1.366 . S
C2616 C2618 1.388 . S
C2617 C2616 1.366 . S
C2617 C2621 1.385 . S
C2618 H2599 0.951 . S
C2618 C2616 1.388 . S
C2618 C2619 1.366 . S
C2619 C2618 1.366 . S
C2619 C2620 1.414 . S
C2619 C2622 1.499 . S
C2620 H2600 0.950 . S
C2620 C2619 1.414 . S
C2620 C2621 1.374 . S
C2621 H2601 0.950 . S
C2621 C2617 1.385 . S
C2621 C2620 1.374 . S
C2622 C2619 1.499 . S
C2622 C2623 1.373 . S
C2622 C2624 1.389 . S
C2623 H2602 0.950 . S
C2623 C2622 1.373 . S
C2623 C2639 1.377 . S
C2624 C2622 1.389 . S
C2624 C2625 1.524 . S
C2624 C2638 1.377 . S
C2625 C2624 1.524 . S
C2625 C2626 1.397 . S
C2625 C2630 1.363 . S
C2626 H2603 0.950 . S
C2626 C2625 1.397 . S
C2626 C2627 1.334 . S
C2627 H2604 0.950 . S
C2627 C2626 1.334 . S
C2627 C2628 1.287 . S
C2628 C2627 1.287 . S
C2628 C2629 1.524 . S
C2628 H2647 0.913 . S
C2629 H2605 0.950 . S
C2629 C2628 1.524 . S
C2629 C2630 1.415 . S
C2630 H2606 0.950 . S
C2630 C2625 1.363 . S
C2630 C2629 1.415 . S
C2631 H2607 0.951 . S
C2631 C2632 1.366 . S
C2631 C2633 1.388 . S
C2632 C2631 1.366 . S
C2632 C2636 1.385 . S
C2633 H2608 0.951 . S
C2633 C2631 1.388 . S
C2633 C2634 1.366 . S
C2634 C2633 1.366 . S
C2634 C2635 1.414 . S
C2634 C2637 1.499 . S
C2635 H2609 0.950 . S
C2635 C2634 1.414 . S
C2635 C2636 1.374 . S
C2636 H2610 0.950 . S
C2636 C2632 1.385 . S
C2636 C2635 1.374 . S
C2637 C2634 1.499 . S
C2637 C2638 1.373 . S
C2637 C2639 1.389 . S
C2638 H2611 0.950 . S
C2638 C2624 1.377 . S
C2638 C2637 1.373 . S
C2639 C2623 1.377 . S
C2639 C2637 1.389 . S
C2639 C2640 1.524 . S
C2640 C2639 1.524 . S
C2640 C2641 1.397 . S
C2640 C2645 1.363 . S
C2641 H2612 0.950 . S
C2641 C2640 1.397 . S
C2641 C2642 1.334 . S
C2642 H2613 0.950 . S
C2642 C2641 1.334 . S
C2642 C2643 1.287 . S
C2643 C2642 1.287 . S
C2643 C2644 1.524 . S
C2643 H2646 0.999 . S
C2644 H2614 0.950 . S
C2644 C2643 1.524 . S
C2644 C2645 1.415 . S
C2645 H2615 0.950 . S
C2645 C2640 1.363 . S
C2645 C2644 1.415 . S
H2646 C2643 0.999 . S
H2647 C2628 0.913 . S
H2648 C2666 0.951 . S
H2649 C2668 0.951 . S
H2650 C2670 0.950 . S
H2651 C2671 0.950 . S
H2652 C2673 0.950 . S
H2653 C2676 0.950 . S
H2654 C2677 0.950 . S
H2655 C2679 0.950 . S
H2656 C2680 0.950 . S
H2657 C2681 0.951 . S
H2658 C2683 0.951 . S
H2659 C2685 0.950 . S
H2660 C2686 0.950 . S
H2661 C2688 0.950 . S
H2662 C2691 0.950 . S
H2663 C2692 0.950 1_554 S
H2664 C2694 0.950 . S
H2665 C2695 0.950 . S
C2666 H2648 0.951 . S
C2666 C2667 1.366 . S
C2666 C2668 1.388 . S
C2667 C2666 1.366 . S
C2667 C2671 1.385 . S
C2668 H2649 0.951 . S
C2668 C2666 1.388 . S
C2668 C2669 1.366 . S
C2669 C2668 1.366 . S
C2669 C2670 1.414 . S
C2669 C2672 1.499 . S
C2670 H2650 0.950 . S
C2670 C2669 1.414 . S
C2670 C2671 1.374 . S
C2671 H2651 0.950 . S
C2671 C2667 1.385 . S
C2671 C2670 1.374 . S
C2672 C2669 1.499 . S
C2672 C2673 1.373 . S
C2672 C2674 1.389 . S
C2673 H2652 0.950 . S
C2673 C2672 1.373 . S
C2673 C2689 1.377 . S
C2674 C2672 1.389 . S
C2674 C2675 1.524 . S
C2674 C2688 1.377 . S
C2675 C2674 1.524 . S
C2675 C2676 1.397 . S
C2675 C2680 1.363 . S
C2676 H2653 0.950 . S
C2676 C2675 1.397 . S
C2676 C2677 1.334 . S
C2677 H2654 0.950 . S
C2677 C2676 1.334 . S
C2677 C2678 1.287 . S
C2678 C2677 1.287 . S
C2678 C2679 1.524 . S
C2678 H2697 0.913 . S
C2679 H2655 0.950 . S
C2679 C2678 1.524 . S
C2679 C2680 1.415 . S
C2680 H2656 0.950 . S
C2680 C2675 1.363 . S
C2680 C2679 1.415 . S
C2681 H2657 0.951 . S
C2681 C2682 1.366 . S
C2681 C2683 1.388 . S
C2682 C2681 1.366 . S
C2682 C2686 1.385 . S
C2683 H2658 0.951 . S
C2683 C2681 1.388 . S
C2683 C2684 1.366 . S
C2684 C2683 1.366 . S
C2684 C2685 1.414 . S
C2684 C2687 1.499 . S
C2685 H2659 0.950 . S
C2685 C2684 1.414 . S
C2685 C2686 1.374 . S
C2686 H2660 0.950 . S
C2686 C2682 1.385 . S
C2686 C2685 1.374 . S
C2687 C2684 1.499 . S
C2687 C2688 1.373 . S
C2687 C2689 1.389 . S
C2688 H2661 0.950 . S
C2688 C2674 1.377 . S
C2688 C2687 1.373 . S
C2689 C2673 1.377 . S
C2689 C2687 1.389 . S
C2689 C2690 1.524 . S
C2690 C2689 1.524 . S
C2690 C2691 1.397 . S
C2690 C2695 1.363 . S
C2691 H2662 0.950 . S
C2691 C2690 1.397 . S
C2691 C2692 1.334 . S
C2692 H2663 0.950 1_556 S
C2692 C2691 1.334 . S
C2692 C2693 1.287 . S
C2693 C2692 1.287 . S
C2693 C2694 1.524 . S
C2693 H2696 0.999 1_556 S
C2694 H2664 0.950 . S
C2694 C2693 1.524 . S
C2694 C2695 1.415 . S
C2695 H2665 0.950 . S
C2695 C2690 1.363 . S
C2695 C2694 1.415 . S
H2696 C2693 0.999 1_554 S
H2697 C2678 0.913 . S
H2698 C2716 0.951 . S
H2699 C2718 0.951 . S
H2700 C2720 0.950 . S
H2701 C2721 0.950 . S
H2702 C2723 0.950 . S
H2703 C2726 0.950 . S
H2704 C2727 0.950 . S
H2705 C2729 0.950 . S
H2706 C2730 0.950 . S
H2707 C2731 0.951 . S
H2708 C2733 0.951 . S
H2709 C2735 0.950 . S
H2710 C2736 0.950 . S
H2711 C2738 0.950 . S
H2712 C2741 0.950 . S
H2713 C2742 0.950 . S
H2714 C2744 0.950 . S
H2715 C2745 0.950 . S
C2716 H2698 0.951 . S
C2716 C2717 1.366 . S
C2716 C2718 1.388 . S
C2717 C2716 1.366 . S
C2717 C2721 1.385 . S
C2718 H2699 0.951 . S
C2718 C2716 1.388 . S
C2718 C2719 1.366 . S
C2719 C2718 1.366 . S
C2719 C2720 1.414 . S
C2719 C2722 1.499 . S
C2720 H2700 0.950 . S
C2720 C2719 1.414 . S
C2720 C2721 1.374 . S
C2721 H2701 0.950 . S
C2721 C2717 1.385 . S
C2721 C2720 1.374 . S
C2722 C2719 1.499 . S
C2722 C2723 1.373 . S
C2722 C2724 1.389 . S
C2723 H2702 0.950 . S
C2723 C2722 1.373 . S
C2723 C2739 1.377 1_655 S
C2724 C2722 1.389 . S
C2724 C2725 1.524 . S
C2724 C2738 1.377 1_655 S
C2725 C2724 1.524 . S
C2725 C2726 1.397 . S
C2725 C2730 1.363 . S
C2726 H2703 0.950 . S
C2726 C2725 1.397 . S
C2726 C2727 1.334 . S
C2727 H2704 0.950 . S
C2727 C2726 1.334 . S
C2727 C2728 1.287 . S
C2728 C2727 1.287 . S
C2728 C2729 1.524 . S
C2728 H2747 0.913 . S
C2729 H2705 0.950 . S
C2729 C2728 1.524 . S
C2729 C2730 1.415 . S
C2730 H2706 0.950 . S
C2730 C2725 1.363 . S
C2730 C2729 1.415 . S
C2731 H2707 0.951 . S
C2731 C2732 1.366 . S
C2731 C2733 1.388 . S
C2732 C2731 1.366 . S
C2732 C2736 1.385 . S
C2733 H2708 0.951 . S
C2733 C2731 1.388 . S
C2733 C2734 1.366 . S
C2734 C2733 1.366 . S
C2734 C2735 1.414 . S
C2734 C2737 1.499 . S
C2735 H2709 0.950 . S
C2735 C2734 1.414 . S
C2735 C2736 1.374 . S
C2736 H2710 0.950 . S
C2736 C2732 1.385 . S
C2736 C2735 1.374 . S
C2737 C2734 1.499 . S
C2737 C2738 1.373 . S
C2737 C2739 1.389 . S
C2738 H2711 0.950 . S
C2738 C2724 1.377 1_455 S
C2738 C2737 1.373 . S
C2739 C2723 1.377 1_455 S
C2739 C2737 1.389 . S
C2739 C2740 1.524 . S
C2740 C2739 1.524 . S
C2740 C2741 1.397 . S
C2740 C2745 1.363 . S
C2741 H2712 0.950 . S
C2741 C2740 1.397 . S
C2741 C2742 1.334 . S
C2742 H2713 0.950 . S
C2742 C2741 1.334 . S
C2742 C2743 1.287 . S
C2743 C2742 1.287 . S
C2743 C2744 1.524 . S
C2743 H2746 0.999 . S
C2744 H2714 0.950 . S
C2744 C2743 1.524 . S
C2744 C2745 1.415 . S
C2745 H2715 0.950 . S
C2745 C2740 1.363 . S
C2745 C2744 1.415 . S
H2746 C2743 0.999 . S
H2747 C2728 0.913 . S
H2748 C2766 0.951 . S
H2749 C2768 0.951 . S
H2750 C2770 0.950 . S
H2751 C2771 0.950 . S
H2752 C2773 0.950 . S
H2753 C2776 0.950 . S
H2754 C2777 0.950 . S
H2755 C2779 0.950 . S
H2756 C2780 0.950 . S
H2757 C2781 0.951 . S
H2758 C2783 0.951 . S
H2759 C2785 0.950 . S
H2760 C2786 0.950 . S
H2761 C2788 0.950 . S
H2762 C2791 0.950 . S
H2763 C2792 0.950 . S
H2764 C2794 0.950 . S
H2765 C2795 0.950 . S
C2766 H2748 0.951 . S
C2766 C2767 1.366 . S
C2766 C2768 1.388 . S
C2767 C2766 1.366 . S
C2767 C2771 1.385 . S
C2768 H2749 0.951 . S
C2768 C2766 1.388 . S
C2768 C2769 1.366 . S
C2769 C2768 1.366 . S
C2769 C2770 1.414 . S
C2769 C2772 1.499 . S
C2770 H2750 0.950 . S
C2770 C2769 1.414 . S
C2770 C2771 1.374 . S
C2771 H2751 0.950 . S
C2771 C2767 1.385 . S
C2771 C2770 1.374 . S
C2772 C2769 1.499 . S
C2772 C2773 1.373 . S
C2772 C2774 1.389 . S
C2773 H2752 0.950 . S
C2773 C2772 1.373 . S
C2773 C2789 1.377 1_655 S
C2774 C2772 1.389 . S
C2774 C2775 1.524 . S
C2774 C2788 1.377 1_655 S
C2775 C2774 1.524 . S
C2775 C2776 1.397 . S
C2775 C2780 1.363 . S
C2776 H2753 0.950 . S
C2776 C2775 1.397 . S
C2776 C2777 1.334 . S
C2777 H2754 0.950 . S
C2777 C2776 1.334 . S
C2777 C2778 1.287 . S
C2778 C2777 1.287 . S
C2778 C2779 1.524 . S
C2778 H2797 0.913 . S
C2779 H2755 0.950 . S
C2779 C2778 1.524 . S
C2779 C2780 1.415 . S
C2780 H2756 0.950 . S
C2780 C2775 1.363 . S
C2780 C2779 1.415 . S
C2781 H2757 0.951 . S
C2781 C2782 1.366 . S
C2781 C2783 1.388 . S
C2782 C2781 1.366 . S
C2782 C2786 1.385 . S
C2783 H2758 0.951 . S
C2783 C2781 1.388 . S
C2783 C2784 1.366 . S
C2784 C2783 1.366 . S
C2784 C2785 1.414 . S
C2784 C2787 1.499 . S
C2785 H2759 0.950 . S
C2785 C2784 1.414 . S
C2785 C2786 1.374 . S
C2786 H2760 0.950 . S
C2786 C2782 1.385 . S
C2786 C2785 1.374 . S
C2787 C2784 1.499 . S
C2787 C2788 1.373 . S
C2787 C2789 1.389 . S
C2788 H2761 0.950 . S
C2788 C2774 1.377 1_455 S
C2788 C2787 1.373 . S
C2789 C2773 1.377 1_455 S
C2789 C2787 1.389 . S
C2789 C2790 1.524 . S
C2790 C2789 1.524 . S
C2790 C2791 1.397 . S
C2790 C2795 1.363 . S
C2791 H2762 0.950 . S
C2791 C2790 1.397 . S
C2791 C2792 1.334 . S
C2792 H2763 0.950 . S
C2792 C2791 1.334 . S
C2792 C2793 1.287 . S
C2793 C2792 1.287 . S
C2793 C2794 1.524 . S
C2793 H2796 0.999 . S
C2794 H2764 0.950 . S
C2794 C2793 1.524 . S
C2794 C2795 1.415 . S
C2795 H2765 0.950 . S
C2795 C2790 1.363 . S
C2795 C2794 1.415 . S
H2796 C2793 0.999 . S
H2797 C2778 0.913 . S
H2798 C2816 0.951 . S
H2799 C2818 0.951 . S
H2800 C2820 0.950 . S
H2801 C2821 0.950 . S
H2802 C2823 0.950 . S
H2803 C2826 0.950 . S
H2804 C2827 0.950 . S
H2805 C2829 0.950 . S
H2806 C2830 0.950 . S
H2807 C2831 0.951 . S
H2808 C2833 0.951 . S
H2809 C2835 0.950 . S
H2810 C2836 0.950 . S
H2811 C2838 0.950 . S
H2812 C2841 0.950 . S
H2813 C2842 0.950 . S
H2814 C2844 0.950 . S
H2815 C2845 0.950 . S
C2816 H2798 0.951 . S
C2816 C2817 1.366 . S
C2816 C2818 1.388 . S
C2817 C2816 1.366 . S
C2817 C2821 1.385 . S
C2818 H2799 0.951 . S
C2818 C2816 1.388 . S
C2818 C2819 1.366 . S
C2819 C2818 1.366 . S
C2819 C2820 1.414 . S
C2819 C2822 1.499 . S
C2820 H2800 0.950 . S
C2820 C2819 1.414 . S
C2820 C2821 1.374 . S
C2821 H2801 0.950 . S
C2821 C2817 1.385 . S
C2821 C2820 1.374 . S
C2822 C2819 1.499 . S
C2822 C2823 1.373 . S
C2822 C2824 1.389 . S
C2823 H2802 0.950 . S
C2823 C2822 1.373 . S
C2823 C2839 1.377 . S
C2824 C2822 1.389 . S
C2824 C2825 1.524 . S
C2824 C2838 1.377 . S
C2825 C2824 1.524 . S
C2825 C2826 1.397 . S
C2825 C2830 1.363 . S
C2826 H2803 0.950 . S
C2826 C2825 1.397 . S
C2826 C2827 1.334 . S
C2827 H2804 0.950 . S
C2827 C2826 1.334 . S
C2827 C2828 1.287 . S
C2828 C2827 1.287 . S
C2828 C2829 1.524 . S
C2828 H2847 0.913 . S
C2829 H2805 0.950 . S
C2829 C2828 1.524 . S
C2829 C2830 1.415 . S
C2830 H2806 0.950 . S
C2830 C2825 1.363 . S
C2830 C2829 1.415 . S
C2831 H2807 0.951 . S
C2831 C2832 1.366 . S
C2831 C2833 1.388 . S
C2832 C2831 1.366 . S
C2832 C2836 1.385 . S
C2833 H2808 0.951 . S
C2833 C2831 1.388 . S
C2833 C2834 1.366 . S
C2834 C2833 1.366 . S
C2834 C2835 1.414 . S
C2834 C2837 1.499 . S
C2835 H2809 0.950 . S
C2835 C2834 1.414 . S
C2835 C2836 1.374 . S
C2836 H2810 0.950 . S
C2836 C2832 1.385 . S
C2836 C2835 1.374 . S
C2837 C2834 1.499 . S
C2837 C2838 1.373 . S
C2837 C2839 1.389 . S
C2838 H2811 0.950 . S
C2838 C2824 1.377 . S
C2838 C2837 1.373 . S
C2839 C2823 1.377 . S
C2839 C2837 1.389 . S
C2839 C2840 1.524 . S
C2840 C2839 1.524 . S
C2840 C2841 1.397 . S
C2840 C2845 1.363 . S
C2841 H2812 0.950 . S
C2841 C2840 1.397 . S
C2841 C2842 1.334 . S
C2842 H2813 0.950 . S
C2842 C2841 1.334 . S
C2842 C2843 1.287 . S
C2843 C2842 1.287 . S
C2843 C2844 1.524 . S
C2843 H2846 0.999 . S
C2844 H2814 0.950 . S
C2844 C2843 1.524 . S
C2844 C2845 1.415 . S
C2845 H2815 0.950 . S
C2845 C2840 1.363 . S
C2845 C2844 1.415 . S
H2846 C2843 0.999 . S
H2847 C2828 0.913 . S
H2848 C2866 0.951 . S
H2849 C2868 0.951 . S
H2850 C2870 0.950 . S
H2851 C2871 0.950 . S
H2852 C2873 0.950 . S
H2853 C2876 0.950 . S
H2854 C2877 0.950 . S
H2855 C2879 0.950 . S
H2856 C2880 0.950 . S
H2857 C2881 0.951 . S
H2858 C2883 0.951 . S
H2859 C2885 0.950 . S
H2860 C2886 0.950 . S
H2861 C2888 0.950 . S
H2862 C2891 0.950 . S
H2863 C2892 0.950 . S
H2864 C2894 0.950 . S
H2865 C2895 0.950 . S
C2866 H2848 0.951 . S
C2866 C2867 1.366 . S
C2866 C2868 1.388 . S
C2867 C2866 1.366 . S
C2867 C2871 1.385 . S
C2868 H2849 0.951 . S
C2868 C2866 1.388 . S
C2868 C2869 1.366 . S
C2869 C2868 1.366 . S
C2869 C2870 1.414 . S
C2869 C2872 1.499 . S
C2870 H2850 0.950 . S
C2870 C2869 1.414 . S
C2870 C2871 1.374 . S
C2871 H2851 0.950 . S
C2871 C2867 1.385 . S
C2871 C2870 1.374 . S
C2872 C2869 1.499 . S
C2872 C2873 1.373 . S
C2872 C2874 1.389 . S
C2873 H2852 0.950 . S
C2873 C2872 1.373 . S
C2873 C2889 1.377 . S
C2874 C2872 1.389 . S
C2874 C2875 1.524 . S
C2874 C2888 1.377 . S
C2875 C2874 1.524 . S
C2875 C2876 1.397 . S
C2875 C2880 1.363 . S
C2876 H2853 0.950 . S
C2876 C2875 1.397 . S
C2876 C2877 1.334 . S
C2877 H2854 0.950 . S
C2877 C2876 1.334 . S
C2877 C2878 1.287 . S
C2878 C2877 1.287 . S
C2878 C2879 1.524 . S
C2878 H2897 0.913 . S
C2879 H2855 0.950 . S
C2879 C2878 1.524 . S
C2879 C2880 1.415 . S
C2880 H2856 0.950 . S
C2880 C2875 1.363 . S
C2880 C2879 1.415 . S
C2881 H2857 0.951 . S
C2881 C2882 1.366 . S
C2881 C2883 1.388 . S
C2882 C2881 1.366 . S
C2882 C2886 1.385 . S
C2883 H2858 0.951 . S
C2883 C2881 1.388 . S
C2883 C2884 1.366 . S
C2884 C2883 1.366 . S
C2884 C2885 1.414 . S
C2884 C2887 1.499 . S
C2885 H2859 0.950 . S
C2885 C2884 1.414 . S
C2885 C2886 1.374 . S
C2886 H2860 0.950 . S
C2886 C2882 1.385 . S
C2886 C2885 1.374 . S
C2887 C2884 1.499 . S
C2887 C2888 1.373 . S
C2887 C2889 1.389 . S
C2888 H2861 0.950 . S
C2888 C2874 1.377 . S
C2888 C2887 1.373 . S
C2889 C2873 1.377 . S
C2889 C2887 1.389 . S
C2889 C2890 1.524 . S
C2890 C2889 1.524 . S
C2890 C2891 1.397 . S
C2890 C2895 1.363 . S
C2891 H2862 0.950 . S
C2891 C2890 1.397 . S
C2891 C2892 1.334 . S
C2892 H2863 0.950 . S
C2892 C2891 1.334 . S
C2892 C2893 1.287 . S
C2893 C2892 1.287 . S
C2893 C2894 1.524 . S
C2893 H2896 0.999 . S
C2894 H2864 0.950 . S
C2894 C2893 1.524 . S
C2894 C2895 1.415 . S
C2895 H2865 0.950 . S
C2895 C2890 1.363 . S
C2895 C2894 1.415 . S
H2896 C2893 0.999 . S
H2897 C2878 0.913 . S
H2898 C2916 0.951 . S
H2899 C2918 0.951 . S
H2900 C2920 0.950 . S
H2901 C2921 0.950 . S
H2902 C2923 0.950 . S
H2903 C2926 0.950 . S
H2904 C2927 0.950 . S
H2905 C2929 0.950 . S
H2906 C2930 0.950 . S
H2907 C2931 0.951 . S
H2908 C2933 0.951 . S
H2909 C2935 0.950 . S
H2910 C2936 0.950 . S
H2911 C2938 0.950 . S
H2912 C2941 0.950 . S
H2913 C2942 0.950 . S
H2914 C2944 0.950 . S
H2915 C2945 0.950 . S
C2916 H2898 0.951 . S
C2916 C2917 1.366 . S
C2916 C2918 1.388 . S
C2917 C2916 1.366 . S
C2917 C2921 1.385 . S
C2918 H2899 0.951 . S
C2918 C2916 1.388 . S
C2918 C2919 1.366 . S
C2919 C2918 1.366 . S
C2919 C2920 1.414 . S
C2919 C2922 1.499 . S
C2920 H2900 0.950 . S
C2920 C2919 1.414 . S
C2920 C2921 1.374 . S
C2921 H2901 0.950 . S
C2921 C2917 1.385 . S
C2921 C2920 1.374 . S
C2922 C2919 1.499 . S
C2922 C2923 1.373 . S
C2922 C2924 1.389 . S
C2923 H2902 0.950 . S
C2923 C2922 1.373 . S
C2923 C2939 1.377 . S
C2924 C2922 1.389 . S
C2924 C2925 1.524 . S
C2924 C2938 1.377 . S
C2925 C2924 1.524 . S
C2925 C2926 1.397 . S
C2925 C2930 1.363 . S
C2926 H2903 0.950 . S
C2926 C2925 1.397 . S
C2926 C2927 1.334 . S
C2927 H2904 0.950 . S
C2927 C2926 1.334 . S
C2927 C2928 1.287 . S
C2928 C2927 1.287 . S
C2928 C2929 1.524 . S
C2928 H2947 0.913 . S
C2929 H2905 0.950 . S
C2929 C2928 1.524 . S
C2929 C2930 1.415 . S
C2930 H2906 0.950 . S
C2930 C2925 1.363 . S
C2930 C2929 1.415 . S
C2931 H2907 0.951 . S
C2931 C2932 1.366 . S
C2931 C2933 1.388 . S
C2932 C2931 1.366 . S
C2932 C2936 1.385 . S
C2933 H2908 0.951 . S
C2933 C2931 1.388 . S
C2933 C2934 1.366 . S
C2934 C2933 1.366 . S
C2934 C2935 1.414 . S
C2934 C2937 1.499 . S
C2935 H2909 0.950 . S
C2935 C2934 1.414 . S
C2935 C2936 1.374 . S
C2936 H2910 0.950 . S
C2936 C2932 1.385 . S
C2936 C2935 1.374 . S
C2937 C2934 1.499 . S
C2937 C2938 1.373 . S
C2937 C2939 1.389 . S
C2938 H2911 0.950 . S
C2938 C2924 1.377 . S
C2938 C2937 1.373 . S
C2939 C2923 1.377 . S
C2939 C2937 1.389 . S
C2939 C2940 1.524 . S
C2940 C2939 1.524 . S
C2940 C2941 1.397 . S
C2940 C2945 1.363 . S
C2941 H2912 0.950 . S
C2941 C2940 1.397 . S
C2941 C2942 1.334 . S
C2942 H2913 0.950 . S
C2942 C2941 1.334 . S
C2942 C2943 1.287 . S
C2943 C2942 1.287 . S
C2943 C2944 1.524 . S
C2943 H2946 0.999 . S
C2944 H2914 0.950 . S
C2944 C2943 1.524 . S
C2944 C2945 1.415 . S
C2945 H2915 0.950 . S
C2945 C2940 1.363 . S
C2945 C2944 1.415 . S
H2946 C2943 0.999 . S
H2947 C2928 0.913 . S
H2948 C2966 0.951 . S
H2949 C2968 0.951 . S
H2950 C2970 0.950 . S
H2951 C2971 0.950 . S
H2952 C2973 0.950 . S
H2953 C2976 0.950 . S
H2954 C2977 0.950 . S
H2955 C2979 0.950 1_554 S
H2956 C2980 0.950 . S
H2957 C2981 0.951 . S
H2958 C2983 0.951 . S
H2959 C2985 0.950 . S
H2960 C2986 0.950 . S
H2961 C2988 0.950 . S
H2962 C2991 0.950 . S
H2963 C2992 0.950 . S
H2964 C2994 0.950 . S
H2965 C2995 0.950 . S
C2966 H2948 0.951 . S
C2966 C2967 1.366 . S
C2966 C2968 1.388 1_554 S
C2967 C2966 1.366 . S
C2967 C2971 1.385 1_554 S
C2968 H2949 0.951 . S
C2968 C2966 1.388 1_556 S
C2968 C2969 1.366 . S
C2969 C2968 1.366 . S
C2969 C2970 1.414 . S
C2969 C2972 1.499 . S
C2970 H2950 0.950 . S
C2970 C2969 1.414 . S
C2970 C2971 1.374 . S
C2971 H2951 0.950 . S
C2971 C2967 1.385 1_556 S
C2971 C2970 1.374 . S
C2972 C2969 1.499 . S
C2972 C2973 1.373 . S
C2972 C2974 1.389 . S
C2973 H2952 0.950 . S
C2973 C2972 1.373 . S
C2973 C2989 1.377 . S
C2974 C2972 1.389 . S
C2974 C2975 1.524 . S
C2974 C2988 1.377 . S
C2975 C2974 1.524 . S
C2975 C2976 1.397 . S
C2975 C2980 1.363 . S
C2976 H2953 0.950 . S
C2976 C2975 1.397 . S
C2976 C2977 1.334 . S
C2977 H2954 0.950 . S
C2977 C2976 1.334 . S
C2977 C2978 1.287 1_556 S
C2978 C2977 1.287 1_554 S
C2978 C2979 1.524 1_554 S
C2978 H2997 0.913 . S
C2979 H2955 0.950 1_556 S
C2979 C2978 1.524 1_556 S
C2979 C2980 1.415 . S
C2980 H2956 0.950 . S
C2980 C2975 1.363 . S
C2980 C2979 1.415 . S
C2981 H2957 0.951 . S
C2981 C2982 1.366 . S
C2981 C2983 1.388 . S
C2982 C2981 1.366 . S
C2982 C2986 1.385 . S
C2983 H2958 0.951 . S
C2983 C2981 1.388 . S
C2983 C2984 1.366 . S
C2984 C2983 1.366 . S
C2984 C2985 1.414 . S
C2984 C2987 1.499 . S
C2985 H2959 0.950 . S
C2985 C2984 1.414 . S
C2985 C2986 1.374 . S
C2986 H2960 0.950 . S
C2986 C2982 1.385 . S
C2986 C2985 1.374 . S
C2987 C2984 1.499 . S
C2987 C2988 1.373 . S
C2987 C2989 1.389 . S
C2988 H2961 0.950 . S
C2988 C2974 1.377 . S
C2988 C2987 1.373 . S
C2989 C2973 1.377 . S
C2989 C2987 1.389 . S
C2989 C2990 1.524 . S
C2990 C2989 1.524 . S
C2990 C2991 1.397 . S
C2990 C2995 1.363 . S
C2991 H2962 0.950 . S
C2991 C2990 1.397 . S
C2991 C2992 1.334 . S
C2992 H2963 0.950 . S
C2992 C2991 1.334 . S
C2992 C2993 1.287 . S
C2993 C2992 1.287 . S
C2993 C2994 1.524 . S
C2993 H2996 0.999 . S
C2994 H2964 0.950 . S
C2994 C2993 1.524 . S
C2994 C2995 1.415 . S
C2995 H2965 0.950 . S
C2995 C2990 1.363 . S
C2995 C2994 1.415 . S
H2996 C2993 0.999 . S
H2997 C2978 0.913 . S
H2998 C3016 0.951 . S
H2999 C3018 0.951 . S
H3000 C3020 0.950 . S
H3001 C3021 0.950 . S
H3002 C3023 0.950 . S
H3003 C3026 0.950 . S
H3004 C3027 0.950 . S
H3005 C3029 0.950 . S
H3006 C3030 0.950 . S
H3007 C3031 0.951 . S
H3008 C3033 0.951 . S
H3009 C3035 0.950 . S
H3010 C3036 0.950 . S
H3011 C3038 0.950 . S
H3012 C3041 0.950 . S
H3013 C3042 0.950 . S
H3014 C3044 0.950 . S
H3015 C3045 0.950 . S
C3016 H2998 0.951 . S
C3016 C3017 1.366 . S
C3016 C3018 1.388 1_556 S
C3017 C3016 1.366 . S
C3017 C3021 1.385 1_556 S
C3018 H2999 0.951 . S
C3018 C3016 1.388 1_554 S
C3018 C3019 1.366 . S
C3019 C3018 1.366 . S
C3019 C3020 1.414 . S
C3019 C3022 1.499 . S
C3020 H3000 0.950 . S
C3020 C3019 1.414 . S
C3020 C3021 1.374 . S
C3021 H3001 0.950 . S
C3021 C3017 1.385 1_554 S
C3021 C3020 1.374 . S
C3022 C3019 1.499 . S
C3022 C3023 1.373 . S
C3022 C3024 1.389 . S
C3023 H3002 0.950 . S
C3023 C3022 1.373 . S
C3023 C3039 1.377 . S
C3024 C3022 1.389 . S
C3024 C3025 1.524 . S
C3024 C3038 1.377 . S
C3025 C3024 1.524 . S
C3025 C3026 1.397 . S
C3025 C3030 1.363 . S
C3026 H3003 0.950 . S
C3026 C3025 1.397 . S
C3026 C3027 1.334 . S
C3027 H3004 0.950 . S
C3027 C3026 1.334 . S
C3027 C3028 1.287 . S
C3028 C3027 1.287 . S
C3028 C3029 1.524 . S
C3028 H3047 0.913 . S
C3029 H3005 0.950 . S
C3029 C3028 1.524 . S
C3029 C3030 1.415 . S
C3030 H3006 0.950 . S
C3030 C3025 1.363 . S
C3030 C3029 1.415 . S
C3031 H3007 0.951 . S
C3031 C3032 1.366 . S
C3031 C3033 1.388 . S
C3032 C3031 1.366 . S
C3032 C3036 1.385 . S
C3033 H3008 0.951 . S
C3033 C3031 1.388 . S
C3033 C3034 1.366 . S
C3034 C3033 1.366 . S
C3034 C3035 1.414 . S
C3034 C3037 1.499 . S
C3035 H3009 0.950 . S
C3035 C3034 1.414 . S
C3035 C3036 1.374 . S
C3036 H3010 0.950 . S
C3036 C3032 1.385 . S
C3036 C3035 1.374 . S
C3037 C3034 1.499 . S
C3037 C3038 1.373 . S
C3037 C3039 1.389 . S
C3038 H3011 0.950 . S
C3038 C3024 1.377 . S
C3038 C3037 1.373 . S
C3039 C3023 1.377 . S
C3039 C3037 1.389 . S
C3039 C3040 1.524 . S
C3040 C3039 1.524 . S
C3040 C3041 1.397 . S
C3040 C3045 1.363 . S
C3041 H3012 0.950 . S
C3041 C3040 1.397 . S
C3041 C3042 1.334 . S
C3042 H3013 0.950 . S
C3042 C3041 1.334 . S
C3042 C3043 1.287 . S
C3043 C3042 1.287 . S
C3043 C3044 1.524 . S
C3043 H3046 0.999 . S
C3044 H3014 0.950 . S
C3044 C3043 1.524 . S
C3044 C3045 1.415 . S
C3045 H3015 0.950 . S
C3045 C3040 1.363 . S
C3045 C3044 1.415 . S
H3046 C3043 0.999 . S
H3047 C3028 0.913 . S
H3048 C3066 0.951 . S
H3049 C3068 0.951 . S
H3050 C3070 0.950 . S
H3051 C3071 0.950 . S
H3052 C3073 0.950 . S
H3053 C3076 0.950 . S
H3054 C3077 0.950 . S
H3055 C3079 0.950 . S
H3056 C3080 0.950 . S
H3057 C3081 0.951 . S
H3058 C3083 0.951 . S
H3059 C3085 0.950 . S
H3060 C3086 0.950 . S
H3061 C3088 0.950 . S
H3062 C3091 0.950 . S
H3063 C3092 0.950 . S
H3064 C3094 0.950 . S
H3065 C3095 0.950 . S
C3066 H3048 0.951 . S
C3066 C3067 1.366 . S
C3066 C3068 1.388 . S
C3067 C3066 1.366 . S
C3067 C3071 1.385 . S
C3068 H3049 0.951 . S
C3068 C3066 1.388 . S
C3068 C3069 1.366 . S
C3069 C3068 1.366 . S
C3069 C3070 1.414 . S
C3069 C3072 1.499 . S
C3070 H3050 0.950 . S
C3070 C3069 1.414 . S
C3070 C3071 1.374 . S
C3071 H3051 0.950 . S
C3071 C3067 1.385 . S
C3071 C3070 1.374 . S
C3072 C3069 1.499 . S
C3072 C3073 1.373 . S
C3072 C3074 1.389 . S
C3073 H3052 0.950 . S
C3073 C3072 1.373 . S
C3073 C3089 1.377 . S
C3074 C3072 1.389 . S
C3074 C3075 1.524 . S
C3074 C3088 1.377 . S
C3075 C3074 1.524 . S
C3075 C3076 1.397 . S
C3075 C3080 1.363 . S
C3076 H3053 0.950 . S
C3076 C3075 1.397 . S
C3076 C3077 1.334 . S
C3077 H3054 0.950 . S
C3077 C3076 1.334 . S
C3077 C3078 1.287 . S
C3078 C3077 1.287 . S
C3078 C3079 1.524 . S
C3078 H3097 0.913 . S
C3079 H3055 0.950 . S
C3079 C3078 1.524 . S
C3079 C3080 1.415 . S
C3080 H3056 0.950 . S
C3080 C3075 1.363 . S
C3080 C3079 1.415 . S
C3081 H3057 0.951 . S
C3081 C3082 1.366 . S
C3081 C3083 1.388 . S
C3082 C3081 1.366 . S
C3082 C3086 1.385 . S
C3083 H3058 0.951 . S
C3083 C3081 1.388 . S
C3083 C3084 1.366 . S
C3084 C3083 1.366 . S
C3084 C3085 1.414 . S
C3084 C3087 1.499 . S
C3085 H3059 0.950 . S
C3085 C3084 1.414 . S
C3085 C3086 1.374 . S
C3086 H3060 0.950 . S
C3086 C3082 1.385 . S
C3086 C3085 1.374 . S
C3087 C3084 1.499 . S
C3087 C3088 1.373 . S
C3087 C3089 1.389 . S
C3088 H3061 0.950 . S
C3088 C3074 1.377 . S
C3088 C3087 1.373 . S
C3089 C3073 1.377 . S
C3089 C3087 1.389 . S
C3089 C3090 1.524 . S
C3090 C3089 1.524 . S
C3090 C3091 1.397 . S
C3090 C3095 1.363 . S
C3091 H3062 0.950 . S
C3091 C3090 1.397 . S
C3091 C3092 1.334 . S
C3092 H3063 0.950 . S
C3092 C3091 1.334 . S
C3092 C3093 1.287 . S
C3093 C3092 1.287 . S
C3093 C3094 1.524 . S
C3093 H3096 0.999 . S
C3094 H3064 0.950 . S
C3094 C3093 1.524 . S
C3094 C3095 1.415 . S
C3095 H3065 0.950 . S
C3095 C3090 1.363 . S
C3095 C3094 1.415 . S
H3096 C3093 0.999 . S
H3097 C3078 0.913 . S
H3098 C3116 0.951 . S
H3099 C3118 0.951 . S
H3100 C3120 0.950 . S
H3101 C3121 0.950 . S
H3102 C3123 0.950 . S
H3103 C3126 0.950 . S
H3104 C3127 0.950 . S
H3105 C3129 0.950 . S
H3106 C3130 0.950 . S
H3107 C3131 0.951 . S
H3108 C3133 0.951 . S
H3109 C3135 0.950 . S
H3110 C3136 0.950 . S
H3111 C3138 0.950 . S
H3112 C3141 0.950 . S
H3113 C3142 0.950 . S
H3114 C3144 0.950 . S
H3115 C3145 0.950 . S
C3116 H3098 0.951 . S
C3116 C3117 1.366 . S
C3116 C3118 1.388 . S
C3117 C3116 1.366 . S
C3117 C3121 1.385 . S
C3118 H3099 0.951 . S
C3118 C3116 1.388 . S
C3118 C3119 1.366 . S
C3119 C3118 1.366 . S
C3119 C3120 1.414 . S
C3119 C3122 1.499 . S
C3120 H3100 0.950 . S
C3120 C3119 1.414 . S
C3120 C3121 1.374 . S
C3121 H3101 0.950 . S
C3121 C3117 1.385 . S
C3121 C3120 1.374 . S
C3122 C3119 1.499 . S
C3122 C3123 1.373 . S
C3122 C3124 1.389 . S
C3123 H3102 0.950 . S
C3123 C3122 1.373 . S
C3123 C3139 1.377 . S
C3124 C3122 1.389 . S
C3124 C3125 1.524 . S
C3124 C3138 1.377 . S
C3125 C3124 1.524 . S
C3125 C3126 1.397 . S
C3125 C3130 1.363 . S
C3126 H3103 0.950 . S
C3126 C3125 1.397 . S
C3126 C3127 1.334 . S
C3127 H3104 0.950 . S
C3127 C3126 1.334 . S
C3127 C3128 1.287 . S
C3128 C3127 1.287 . S
C3128 C3129 1.524 . S
C3128 H3147 0.913 . S
C3129 H3105 0.950 . S
C3129 C3128 1.524 . S
C3129 C3130 1.415 . S
C3130 H3106 0.950 . S
C3130 C3125 1.363 . S
C3130 C3129 1.415 . S
C3131 H3107 0.951 . S
C3131 C3132 1.366 . S
C3131 C3133 1.388 . S
C3132 C3131 1.366 . S
C3132 C3136 1.385 . S
C3133 H3108 0.951 . S
C3133 C3131 1.388 . S
C3133 C3134 1.366 . S
C3134 C3133 1.366 . S
C3134 C3135 1.414 . S
C3134 C3137 1.499 . S
C3135 H3109 0.950 . S
C3135 C3134 1.414 . S
C3135 C3136 1.374 . S
C3136 H3110 0.950 . S
C3136 C3132 1.385 . S
C3136 C3135 1.374 . S
C3137 C3134 1.499 . S
C3137 C3138 1.373 . S
C3137 C3139 1.389 . S
C3138 H3111 0.950 . S
C3138 C3124 1.377 . S
C3138 C3137 1.373 . S
C3139 C3123 1.377 . S
C3139 C3137 1.389 . S
C3139 C3140 1.524 . S
C3140 C3139 1.524 . S
C3140 C3141 1.397 . S
C3140 C3145 1.363 . S
C3141 H3112 0.950 . S
C3141 C3140 1.397 . S
C3141 C3142 1.334 . S
C3142 H3113 0.950 . S
C3142 C3141 1.334 . S
C3142 C3143 1.287 . S
C3143 C3142 1.287 . S
C3143 C3144 1.524 . S
C3143 H3146 0.999 . S
C3144 H3114 0.950 . S
C3144 C3143 1.524 . S
C3144 C3145 1.415 . S
C3145 H3115 0.950 . S
C3145 C3140 1.363 . S
C3145 C3144 1.415 . S
H3146 C3143 0.999 . S
H3147 C3128 0.913 . S
H3148 C3166 0.951 . S
H3149 C3168 0.951 . S
H3150 C3170 0.950 . S
H3151 C3171 0.950 . S
H3152 C3173 0.950 . S
H3153 C3176 0.950 . S
H3154 C3177 0.950 . S
H3155 C3179 0.950 . S
H3156 C3180 0.950 . S
H3157 C3181 0.951 . S
H3158 C3183 0.951 . S
H3159 C3185 0.950 . S
H3160 C3186 0.950 . S
H3161 C3188 0.950 . S
H3162 C3191 0.950 . S
H3163 C3192 0.950 1_556 S
H3164 C3194 0.950 . S
H3165 C3195 0.950 . S
C3166 H3148 0.951 . S
C3166 C3167 1.366 . S
C3166 C3168 1.388 . S
C3167 C3166 1.366 . S
C3167 C3171 1.385 . S
C3168 H3149 0.951 . S
C3168 C3166 1.388 . S
C3168 C3169 1.366 . S
C3169 C3168 1.366 . S
C3169 C3170 1.414 . S
C3169 C3172 1.499 . S
C3170 H3150 0.950 . S
C3170 C3169 1.414 . S
C3170 C3171 1.374 . S
C3171 H3151 0.950 . S
C3171 C3167 1.385 . S
C3171 C3170 1.374 . S
C3172 C3169 1.499 . S
C3172 C3173 1.373 . S
C3172 C3174 1.389 . S
C3173 H3152 0.950 . S
C3173 C3172 1.373 . S
C3173 C3189 1.377 . S
C3174 C3172 1.389 . S
C3174 C3175 1.524 . S
C3174 C3188 1.377 . S
C3175 C3174 1.524 . S
C3175 C3176 1.397 . S
C3175 C3180 1.363 . S
C3176 H3153 0.950 . S
C3176 C3175 1.397 . S
C3176 C3177 1.334 . S
C3177 H3154 0.950 . S
C3177 C3176 1.334 . S
C3177 C3178 1.287 . S
C3178 C3177 1.287 . S
C3178 C3179 1.524 . S
C3178 H3197 0.913 . S
C3179 H3155 0.950 . S
C3179 C3178 1.524 . S
C3179 C3180 1.415 . S
C3180 H3156 0.950 . S
C3180 C3175 1.363 . S
C3180 C3179 1.415 . S
C3181 H3157 0.951 . S
C3181 C3182 1.366 1_554 S
C3181 C3183 1.388 . S
C3182 C3181 1.366 1_556 S
C3182 C3186 1.385 . S
C3183 H3158 0.951 . S
C3183 C3181 1.388 . S
C3183 C3184 1.366 . S
C3184 C3183 1.366 . S
C3184 C3185 1.414 . S
C3184 C3187 1.499 . S
C3185 H3159 0.950 . S
C3185 C3184 1.414 . S
C3185 C3186 1.374 1_554 S
C3186 H3160 0.950 . S
C3186 C3182 1.385 . S
C3186 C3185 1.374 1_556 S
C3187 C3184 1.499 . S
C3187 C3188 1.373 . S
C3187 C3189 1.389 . S
C3188 H3161 0.950 . S
C3188 C3174 1.377 . S
C3188 C3187 1.373 . S
C3189 C3173 1.377 . S
C3189 C3187 1.389 . S
C3189 C3190 1.524 . S
C3190 C3189 1.524 . S
C3190 C3191 1.397 . S
C3190 C3195 1.363 . S
C3191 H3162 0.950 . S
C3191 C3190 1.397 . S
C3191 C3192 1.334 . S
C3192 H3163 0.950 1_554 S
C3192 C3191 1.334 . S
C3192 C3193 1.287 . S
C3193 C3192 1.287 . S
C3193 C3194 1.524 . S
C3193 H3196 0.999 . S
C3194 H3164 0.950 . S
C3194 C3193 1.524 . S
C3194 C3195 1.415 . S
C3195 H3165 0.950 . S
C3195 C3190 1.363 . S
C3195 C3194 1.415 . S
H3196 C3193 0.999 . S
H3197 C3178 0.913 . S
H3198 C3216 0.951 . S
H3199 C3218 0.951 . S
H3200 C3220 0.950 . S
H3201 C3221 0.950 . S
H3202 C3223 0.950 . S
H3203 C3226 0.950 . S
H3204 C3227 0.950 . S
H3205 C3229 0.950 . S
H3206 C3230 0.950 . S
H3207 C3231 0.951 . S
H3208 C3233 0.951 . S
H3209 C3235 0.950 . S
H3210 C3236 0.950 . S
H3211 C3238 0.950 . S
H3212 C3241 0.950 . S
H3213 C3242 0.950 . S
H3214 C3244 0.950 . S
H3215 C3245 0.950 . S
C3216 H3198 0.951 . S
C3216 C3217 1.366 . S
C3216 C3218 1.388 . S
C3217 C3216 1.366 . S
C3217 C3221 1.385 . S
C3218 H3199 0.951 . S
C3218 C3216 1.388 . S
C3218 C3219 1.366 . S
C3219 C3218 1.366 . S
C3219 C3220 1.414 . S
C3219 C3222 1.499 . S
C3220 H3200 0.950 . S
C3220 C3219 1.414 . S
C3220 C3221 1.374 . S
C3221 H3201 0.950 . S
C3221 C3217 1.385 . S
C3221 C3220 1.374 . S
C3222 C3219 1.499 . S
C3222 C3223 1.373 . S
C3222 C3224 1.389 . S
C3223 H3202 0.950 . S
C3223 C3222 1.373 . S
C3223 C3239 1.377 . S
C3224 C3222 1.389 . S
C3224 C3225 1.524 . S
C3224 C3238 1.377 . S
C3225 C3224 1.524 . S
C3225 C3226 1.397 . S
C3225 C3230 1.363 . S
C3226 H3203 0.950 . S
C3226 C3225 1.397 . S
C3226 C3227 1.334 . S
C3227 H3204 0.950 . S
C3227 C3226 1.334 . S
C3227 C3228 1.287 . S
C3228 C3227 1.287 . S
C3228 C3229 1.524 . S
C3228 H3247 0.913 . S
C3229 H3205 0.950 . S
C3229 C3228 1.524 . S
C3229 C3230 1.415 . S
C3230 H3206 0.950 . S
C3230 C3225 1.363 . S
C3230 C3229 1.415 . S
C3231 H3207 0.951 . S
C3231 C3232 1.366 . S
C3231 C3233 1.388 1_554 S
C3232 C3231 1.366 . S
C3232 C3236 1.385 1_554 S
C3233 H3208 0.951 . S
C3233 C3231 1.388 1_556 S
C3233 C3234 1.366 . S
C3234 C3233 1.366 . S
C3234 C3235 1.414 . S
C3234 C3237 1.499 . S
C3235 H3209 0.950 . S
C3235 C3234 1.414 . S
C3235 C3236 1.374 . S
C3236 H3210 0.950 . S
C3236 C3232 1.385 1_556 S
C3236 C3235 1.374 . S
C3237 C3234 1.499 . S
C3237 C3238 1.373 . S
C3237 C3239 1.389 . S
C3238 H3211 0.950 . S
C3238 C3224 1.377 . S
C3238 C3237 1.373 . S
C3239 C3223 1.377 . S
C3239 C3237 1.389 . S
C3239 C3240 1.524 . S
C3240 C3239 1.524 . S
C3240 C3241 1.397 . S
C3240 C3245 1.363 . S
C3241 H3212 0.950 . S
C3241 C3240 1.397 . S
C3241 C3242 1.334 . S
C3242 H3213 0.950 . S
C3242 C3241 1.334 . S
C3242 C3243 1.287 . S
C3243 C3242 1.287 . S
C3243 C3244 1.524 . S
C3243 H3246 0.999 . S
C3244 H3214 0.950 . S
C3244 C3243 1.524 . S
C3244 C3245 1.415 . S
C3245 H3215 0.950 . S
C3245 C3240 1.363 . S
C3245 C3244 1.415 . S
H3246 C3243 0.999 . S
H3247 C3228 0.913 . S
H3248 C3266 0.951 . S
H3249 C3268 0.951 . S
H3250 C3270 0.950 . S
H3251 C3271 0.950 . S
H3252 C3273 0.950 . S
H3253 C3276 0.950 . S
H3254 C3277 0.950 . S
H3255 C3279 0.950 . S
H3256 C3280 0.950 . S
H3257 C3281 0.951 . S
H3258 C3283 0.951 . S
H3259 C3285 0.950 . S
H3260 C3286 0.950 . S
H3261 C3288 0.950 . S
H3262 C3291 0.950 . S
H3263 C3292 0.950 . S
H3264 C3294 0.950 . S
H3265 C3295 0.950 . S
C3266 H3248 0.951 . S
C3266 C3267 1.366 1_556 S
C3266 C3268 1.388 . S
C3267 C3266 1.366 1_554 S
C3267 C3271 1.385 . S
C3268 H3249 0.951 . S
C3268 C3266 1.388 . S
C3268 C3269 1.366 . S
C3269 C3268 1.366 . S
C3269 C3270 1.414 . S
C3269 C3272 1.499 . S
C3270 H3250 0.950 . S
C3270 C3269 1.414 . S
C3270 C3271 1.374 1_556 S
C3271 H3251 0.950 . S
C3271 C3267 1.385 . S
C3271 C3270 1.374 1_554 S
C3272 C3269 1.499 . S
C3272 C3273 1.373 . S
C3272 C3274 1.389 . S
C3273 H3252 0.950 . S
C3273 C3272 1.373 . S
C3273 C3289 1.377 . S
C3274 C3272 1.389 . S
C3274 C3275 1.524 . S
C3274 C3288 1.377 . S
C3275 C3274 1.524 . S
C3275 C3276 1.397 . S
C3275 C3280 1.363 . S
C3276 H3253 0.950 . S
C3276 C3275 1.397 . S
C3276 C3277 1.334 . S
C3277 H3254 0.950 . S
C3277 C3276 1.334 . S
C3277 C3278 1.287 . S
C3278 C3277 1.287 . S
C3278 C3279 1.524 . S
C3278 H3297 0.913 . S
C3279 H3255 0.950 . S
C3279 C3278 1.524 . S
C3279 C3280 1.415 . S
C3280 H3256 0.950 . S
C3280 C3275 1.363 . S
C3280 C3279 1.415 . S
C3281 H3257 0.951 . S
C3281 C3282 1.366 . S
C3281 C3283 1.388 . S
C3282 C3281 1.366 . S
C3282 C3286 1.385 . S
C3283 H3258 0.951 . S
C3283 C3281 1.388 . S
C3283 C3284 1.366 . S
C3284 C3283 1.366 . S
C3284 C3285 1.414 . S
C3284 C3287 1.499 . S
C3285 H3259 0.950 . S
C3285 C3284 1.414 . S
C3285 C3286 1.374 . S
C3286 H3260 0.950 . S
C3286 C3282 1.385 . S
C3286 C3285 1.374 . S
C3287 C3284 1.499 . S
C3287 C3288 1.373 . S
C3287 C3289 1.389 . S
C3288 H3261 0.950 . S
C3288 C3274 1.377 . S
C3288 C3287 1.373 . S
C3289 C3273 1.377 . S
C3289 C3287 1.389 . S
C3289 C3290 1.524 . S
C3290 C3289 1.524 . S
C3290 C3291 1.397 . S
C3290 C3295 1.363 . S
C3291 H3262 0.950 . S
C3291 C3290 1.397 . S
C3291 C3292 1.334 . S
C3292 H3263 0.950 . S
C3292 C3291 1.334 . S
C3292 C3293 1.287 . S
C3293 C3292 1.287 . S
C3293 C3294 1.524 . S
C3293 H3296 0.999 . S
C3294 H3264 0.950 . S
C3294 C3293 1.524 . S
C3294 C3295 1.415 . S
C3295 H3265 0.950 . S
C3295 C3290 1.363 . S
C3295 C3294 1.415 . S
H3296 C3293 0.999 . S
H3297 C3278 0.913 . S
H3298 C3316 0.951 . S
H3299 C3318 0.951 . S
H3300 C3320 0.950 . S
H3301 C3321 0.950 . S
H3302 C3323 0.950 . S
H3303 C3326 0.950 . S
H3304 C3327 0.950 . S
H3305 C3329 0.950 . S
H3306 C3330 0.950 . S
H3307 C3331 0.951 . S
H3308 C3333 0.951 . S
H3309 C3335 0.950 . S
H3310 C3336 0.950 . S
H3311 C3338 0.950 . S
H3312 C3341 0.950 . S
H3313 C3342 0.950 . S
H3314 C3344 0.950 . S
H3315 C3345 0.950 . S
C3316 H3298 0.951 . S
C3316 C3317 1.366 . S
C3316 C3318 1.388 . S
C3317 C3316 1.366 . S
C3317 C3321 1.385 . S
C3318 H3299 0.951 . S
C3318 C3316 1.388 . S
C3318 C3319 1.366 . S
C3319 C3318 1.366 . S
C3319 C3320 1.414 . S
C3319 C3322 1.499 . S
C3320 H3300 0.950 . S
C3320 C3319 1.414 . S
C3320 C3321 1.374 . S
C3321 H3301 0.950 . S
C3321 C3317 1.385 . S
C3321 C3320 1.374 . S
C3322 C3319 1.499 . S
C3322 C3323 1.373 . S
C3322 C3324 1.389 . S
C3323 H3302 0.950 . S
C3323 C3322 1.373 . S
C3323 C3339 1.377 . S
C3324 C3322 1.389 . S
C3324 C3325 1.524 . S
C3324 C3338 1.377 . S
C3325 C3324 1.524 . S
C3325 C3326 1.397 . S
C3325 C3330 1.363 . S
C3326 H3303 0.950 . S
C3326 C3325 1.397 . S
C3326 C3327 1.334 . S
C3327 H3304 0.950 . S
C3327 C3326 1.334 . S
C3327 C3328 1.287 . S
C3328 C3327 1.287 . S
C3328 C3329 1.524 . S
C3328 H3347 0.913 . S
C3329 H3305 0.950 . S
C3329 C3328 1.524 . S
C3329 C3330 1.415 . S
C3330 H3306 0.950 . S
C3330 C3325 1.363 . S
C3330 C3329 1.415 . S
C3331 H3307 0.951 . S
C3331 C3332 1.366 1_554 S
C3331 C3333 1.388 . S
C3332 C3331 1.366 1_556 S
C3332 C3336 1.385 . S
C3333 H3308 0.951 . S
C3333 C3331 1.388 . S
C3333 C3334 1.366 . S
C3334 C3333 1.366 . S
C3334 C3335 1.414 . S
C3334 C3337 1.499 . S
C3335 H3309 0.950 . S
C3335 C3334 1.414 . S
C3335 C3336 1.374 1_554 S
C3336 H3310 0.950 . S
C3336 C3332 1.385 . S
C3336 C3335 1.374 1_556 S
C3337 C3334 1.499 . S
C3337 C3338 1.373 . S
C3337 C3339 1.389 . S
C3338 H3311 0.950 . S
C3338 C3324 1.377 . S
C3338 C3337 1.373 . S
C3339 C3323 1.377 . S
C3339 C3337 1.389 . S
C3339 C3340 1.524 . S
C3340 C3339 1.524 . S
C3340 C3341 1.397 . S
C3340 C3345 1.363 . S
C3341 H3312 0.950 . S
C3341 C3340 1.397 . S
C3341 C3342 1.334 . S
C3342 H3313 0.950 . S
C3342 C3341 1.334 . S
C3342 C3343 1.287 . S
C3343 C3342 1.287 . S
C3343 C3344 1.524 . S
C3343 H3346 0.999 . S
C3344 H3314 0.950 . S
C3344 C3343 1.524 . S
C3344 C3345 1.415 . S
C3345 H3315 0.950 . S
C3345 C3340 1.363 . S
C3345 C3344 1.415 . S
H3346 C3343 0.999 . S
H3347 C3328 0.913 . S
H3348 C3366 0.951 . S
H3349 C3368 0.951 . S
H3350 C3370 0.950 . S
H3351 C3371 0.950 . S
H3352 C3373 0.950 . S
H3353 C3376 0.950 . S
H3354 C3377 0.950 . S
H3355 C3379 0.950 . S
H3356 C3380 0.950 . S
H3357 C3381 0.951 . S
H3358 C3383 0.951 . S
H3359 C3385 0.950 . S
H3360 C3386 0.950 . S
H3361 C3388 0.950 . S
H3362 C3391 0.950 . S
H3363 C3392 0.950 . S
H3364 C3394 0.950 . S
H3365 C3395 0.950 . S
C3366 H3348 0.951 . S
C3366 C3367 1.366 . S
C3366 C3368 1.388 . S
C3367 C3366 1.366 . S
C3367 C3371 1.385 . S
C3368 H3349 0.951 . S
C3368 C3366 1.388 . S
C3368 C3369 1.366 . S
C3369 C3368 1.366 . S
C3369 C3370 1.414 . S
C3369 C3372 1.499 . S
C3370 H3350 0.950 . S
C3370 C3369 1.414 . S
C3370 C3371 1.374 . S
C3371 H3351 0.950 . S
C3371 C3367 1.385 . S
C3371 C3370 1.374 . S
C3372 C3369 1.499 . S
C3372 C3373 1.373 . S
C3372 C3374 1.389 . S
C3373 H3352 0.950 . S
C3373 C3372 1.373 . S
C3373 C3389 1.377 . S
C3374 C3372 1.389 . S
C3374 C3375 1.524 . S
C3374 C3388 1.377 . S
C3375 C3374 1.524 . S
C3375 C3376 1.397 . S
C3375 C3380 1.363 . S
C3376 H3353 0.950 . S
C3376 C3375 1.397 . S
C3376 C3377 1.334 . S
C3377 H3354 0.950 . S
C3377 C3376 1.334 . S
C3377 C3378 1.287 . S
C3378 C3377 1.287 . S
C3378 C3379 1.524 . S
C3378 H3397 0.913 . S
C3379 H3355 0.950 . S
C3379 C3378 1.524 . S
C3379 C3380 1.415 . S
C3380 H3356 0.950 . S
C3380 C3375 1.363 . S
C3380 C3379 1.415 . S
C3381 H3357 0.951 . S
C3381 C3382 1.366 . S
C3381 C3383 1.388 . S
C3382 C3381 1.366 . S
C3382 C3386 1.385 . S
C3383 H3358 0.951 . S
C3383 C3381 1.388 . S
C3383 C3384 1.366 . S
C3384 C3383 1.366 . S
C3384 C3385 1.414 . S
C3384 C3387 1.499 . S
C3385 H3359 0.950 . S
C3385 C3384 1.414 . S
C3385 C3386 1.374 . S
C3386 H3360 0.950 . S
C3386 C3382 1.385 . S
C3386 C3385 1.374 . S
C3387 C3384 1.499 . S
C3387 C3388 1.373 . S
C3387 C3389 1.389 . S
C3388 H3361 0.950 . S
C3388 C3374 1.377 . S
C3388 C3387 1.373 . S
C3389 C3373 1.377 . S
C3389 C3387 1.389 . S
C3389 C3390 1.524 . S
C3390 C3389 1.524 . S
C3390 C3391 1.397 . S
C3390 C3395 1.363 . S
C3391 H3362 0.950 . S
C3391 C3390 1.397 . S
C3391 C3392 1.334 . S
C3392 H3363 0.950 . S
C3392 C3391 1.334 . S
C3392 C3393 1.287 . S
C3393 C3392 1.287 . S
C3393 C3394 1.524 . S
C3393 H3396 0.999 . S
C3394 H3364 0.950 . S
C3394 C3393 1.524 . S
C3394 C3395 1.415 . S
C3395 H3365 0.950 . S
C3395 C3390 1.363 . S
C3395 C3394 1.415 . S
H3396 C3393 0.999 . S
H3397 C3378 0.913 . S
H3398 C3416 0.951 . S
H3399 C3418 0.951 . S
H3400 C3420 0.950 . S
H3401 C3421 0.950 . S
H3402 C3423 0.950 . S
H3403 C3426 0.950 . S
H3404 C3427 0.950 . S
H3405 C3429 0.950 . S
H3406 C3430 0.950 . S
H3407 C3431 0.951 . S
H3408 C3433 0.951 . S
H3409 C3435 0.950 . S
H3410 C3436 0.950 . S
H3411 C3438 0.950 . S
H3412 C3441 0.950 . S
H3413 C3442 0.950 . S
H3414 C3444 0.950 . S
H3415 C3445 0.950 . S
C3416 H3398 0.951 . S
C3416 C3417 1.366 . S
C3416 C3418 1.388 . S
C3417 C3416 1.366 . S
C3417 C3421 1.385 . S
C3418 H3399 0.951 . S
C3418 C3416 1.388 . S
C3418 C3419 1.366 . S
C3419 C3418 1.366 . S
C3419 C3420 1.414 . S
C3419 C3422 1.499 . S
C3420 H3400 0.950 . S
C3420 C3419 1.414 . S
C3420 C3421 1.374 . S
C3421 H3401 0.950 . S
C3421 C3417 1.385 . S
C3421 C3420 1.374 . S
C3422 C3419 1.499 . S
C3422 C3423 1.373 . S
C3422 C3424 1.389 . S
C3423 H3402 0.950 . S
C3423 C3422 1.373 . S
C3423 C3439 1.377 . S
C3424 C3422 1.389 . S
C3424 C3425 1.524 . S
C3424 C3438 1.377 . S
C3425 C3424 1.524 . S
C3425 C3426 1.397 . S
C3425 C3430 1.363 . S
C3426 H3403 0.950 . S
C3426 C3425 1.397 . S
C3426 C3427 1.334 . S
C3427 H3404 0.950 . S
C3427 C3426 1.334 . S
C3427 C3428 1.287 . S
C3428 C3427 1.287 . S
C3428 C3429 1.524 . S
C3428 H3447 0.913 . S
C3429 H3405 0.950 . S
C3429 C3428 1.524 . S
C3429 C3430 1.415 . S
C3430 H3406 0.950 . S
C3430 C3425 1.363 . S
C3430 C3429 1.415 . S
C3431 H3407 0.951 . S
C3431 C3432 1.366 . S
C3431 C3433 1.388 . S
C3432 C3431 1.366 . S
C3432 C3436 1.385 . S
C3433 H3408 0.951 . S
C3433 C3431 1.388 . S
C3433 C3434 1.366 . S
C3434 C3433 1.366 . S
C3434 C3435 1.414 . S
C3434 C3437 1.499 . S
C3435 H3409 0.950 . S
C3435 C3434 1.414 . S
C3435 C3436 1.374 . S
C3436 H3410 0.950 . S
C3436 C3432 1.385 . S
C3436 C3435 1.374 . S
C3437 C3434 1.499 . S
C3437 C3438 1.373 . S
C3437 C3439 1.389 . S
C3438 H3411 0.950 . S
C3438 C3424 1.377 . S
C3438 C3437 1.373 . S
C3439 C3423 1.377 . S
C3439 C3437 1.389 . S
C3439 C3440 1.524 . S
C3440 C3439 1.524 . S
C3440 C3441 1.397 . S
C3440 C3445 1.363 . S
C3441 H3412 0.950 . S
C3441 C3440 1.397 . S
C3441 C3442 1.334 . S
C3442 H3413 0.950 . S
C3442 C3441 1.334 . S
C3442 C3443 1.287 . S
C3443 C3442 1.287 . S
C3443 C3444 1.524 . S
C3443 H3446 0.999 . S
C3444 H3414 0.950 . S
C3444 C3443 1.524 . S
C3444 C3445 1.415 . S
C3445 H3415 0.950 . S
C3445 C3440 1.363 . S
C3445 C3444 1.415 . S
H3446 C3443 0.999 . S
H3447 C3428 0.913 . S
H3448 C3466 0.951 . S
H3449 C3468 0.951 . S
H3450 C3470 0.950 . S
H3451 C3471 0.950 . S
H3452 C3473 0.950 . S
H3453 C3476 0.950 . S
H3454 C3477 0.950 . S
H3455 C3479 0.950 . S
H3456 C3480 0.950 . S
H3457 C3481 0.951 . S
H3458 C3483 0.951 . S
H3459 C3485 0.950 . S
H3460 C3486 0.950 . S
H3461 C3488 0.950 . S
H3462 C3491 0.950 . S
H3463 C3492 0.950 . S
H3464 C3494 0.950 . S
H3465 C3495 0.950 . S
C3466 H3448 0.951 . S
C3466 C3467 1.366 . S
C3466 C3468 1.388 . S
C3467 C3466 1.366 . S
C3467 C3471 1.385 . S
C3468 H3449 0.951 . S
C3468 C3466 1.388 . S
C3468 C3469 1.366 . S
C3469 C3468 1.366 . S
C3469 C3470 1.414 . S
C3469 C3472 1.499 . S
C3470 H3450 0.950 . S
C3470 C3469 1.414 . S
C3470 C3471 1.374 . S
C3471 H3451 0.950 . S
C3471 C3467 1.385 . S
C3471 C3470 1.374 . S
C3472 C3469 1.499 . S
C3472 C3473 1.373 . S
C3472 C3474 1.389 . S
C3473 H3452 0.950 . S
C3473 C3472 1.373 . S
C3473 C3489 1.377 . S
C3474 C3472 1.389 . S
C3474 C3475 1.524 . S
C3474 C3488 1.377 . S
C3475 C3474 1.524 . S
C3475 C3476 1.397 . S
C3475 C3480 1.363 . S
C3476 H3453 0.950 . S
C3476 C3475 1.397 . S
C3476 C3477 1.334 . S
C3477 H3454 0.950 . S
C3477 C3476 1.334 . S
C3477 C3478 1.287 . S
C3478 C3477 1.287 . S
C3478 C3479 1.524 . S
C3478 H3497 0.913 . S
C3479 H3455 0.950 . S
C3479 C3478 1.524 . S
C3479 C3480 1.415 . S
C3480 H3456 0.950 . S
C3480 C3475 1.363 . S
C3480 C3479 1.415 . S
C3481 H3457 0.951 . S
C3481 C3482 1.366 . S
C3481 C3483 1.388 1_556 S
C3482 C3481 1.366 . S
C3482 C3486 1.385 1_556 S
C3483 H3458 0.951 . S
C3483 C3481 1.388 1_554 S
C3483 C3484 1.366 . S
C3484 C3483 1.366 . S
C3484 C3485 1.414 . S
C3484 C3487 1.499 . S
C3485 H3459 0.950 . S
C3485 C3484 1.414 . S
C3485 C3486 1.374 . S
C3486 H3460 0.950 . S
C3486 C3482 1.385 1_554 S
C3486 C3485 1.374 . S
C3487 C3484 1.499 . S
C3487 C3488 1.373 . S
C3487 C3489 1.389 . S
C3488 H3461 0.950 . S
C3488 C3474 1.377 . S
C3488 C3487 1.373 . S
C3489 C3473 1.377 . S
C3489 C3487 1.389 . S
C3489 C3490 1.524 . S
C3490 C3489 1.524 . S
C3490 C3491 1.397 . S
C3490 C3495 1.363 . S
C3491 H3462 0.950 . S
C3491 C3490 1.397 . S
C3491 C3492 1.334 . S
C3492 H3463 0.950 . S
C3492 C3491 1.334 . S
C3492 C3493 1.287 . S
C3493 C3492 1.287 . S
C3493 C3494 1.524 . S
C3493 H3496 0.999 . S
C3494 H3464 0.950 . S
C3494 C3493 1.524 . S
C3494 C3495 1.415 . S
C3495 H3465 0.950 . S
C3495 C3490 1.363 . S
C3495 C3494 1.415 . S
H3496 C3493 0.999 . S
H3497 C3478 0.913 . S
H3498 C3516 0.951 . S
H3499 C3518 0.951 . S
H3500 C3520 0.950 . S
H3501 C3521 0.950 . S
H3502 C3523 0.950 . S
H3503 C3526 0.950 . S
H3504 C3527 0.950 . S
H3505 C3529 0.950 1_554 S
H3506 C3530 0.950 . S
H3507 C3531 0.951 . S
H3508 C3533 0.951 . S
H3509 C3535 0.950 . S
H3510 C3536 0.950 . S
H3511 C3538 0.950 . S
H3512 C3541 0.950 . S
H3513 C3542 0.950 . S
H3514 C3544 0.950 . S
H3515 C3545 0.950 . S
C3516 H3498 0.951 . S
C3516 C3517 1.366 . S
C3516 C3518 1.388 1_554 S
C3517 C3516 1.366 . S
C3517 C3521 1.385 1_554 S
C3518 H3499 0.951 . S
C3518 C3516 1.388 1_556 S
C3518 C3519 1.366 . S
C3519 C3518 1.366 . S
C3519 C3520 1.414 . S
C3519 C3522 1.499 . S
C3520 H3500 0.950 . S
C3520 C3519 1.414 . S
C3520 C3521 1.374 . S
C3521 H3501 0.950 . S
C3521 C3517 1.385 1_556 S
C3521 C3520 1.374 . S
C3522 C3519 1.499 . S
C3522 C3523 1.373 . S
C3522 C3524 1.389 . S
C3523 H3502 0.950 . S
C3523 C3522 1.373 . S
C3523 C3539 1.377 . S
C3524 C3522 1.389 . S
C3524 C3525 1.524 . S
C3524 C3538 1.377 . S
C3525 C3524 1.524 . S
C3525 C3526 1.397 . S
C3525 C3530 1.363 . S
C3526 H3503 0.950 . S
C3526 C3525 1.397 . S
C3526 C3527 1.334 . S
C3527 H3504 0.950 . S
C3527 C3526 1.334 . S
C3527 C3528 1.287 . S
C3528 C3527 1.287 . S
C3528 C3529 1.524 . S
C3528 H3547 0.913 1_556 S
C3529 H3505 0.950 1_556 S
C3529 C3528 1.524 . S
C3529 C3530 1.415 . S
C3530 H3506 0.950 . S
C3530 C3525 1.363 . S
C3530 C3529 1.415 . S
C3531 H3507 0.951 . S
C3531 C3532 1.366 . S
C3531 C3533 1.388 . S
C3532 C3531 1.366 . S
C3532 C3536 1.385 . S
C3533 H3508 0.951 . S
C3533 C3531 1.388 . S
C3533 C3534 1.366 . S
C3534 C3533 1.366 . S
C3534 C3535 1.414 . S
C3534 C3537 1.499 . S
C3535 H3509 0.950 . S
C3535 C3534 1.414 . S
C3535 C3536 1.374 . S
C3536 H3510 0.950 . S
C3536 C3532 1.385 . S
C3536 C3535 1.374 . S
C3537 C3534 1.499 . S
C3537 C3538 1.373 . S
C3537 C3539 1.389 . S
C3538 H3511 0.950 . S
C3538 C3524 1.377 . S
C3538 C3537 1.373 . S
C3539 C3523 1.377 . S
C3539 C3537 1.389 . S
C3539 C3540 1.524 . S
C3540 C3539 1.524 . S
C3540 C3541 1.397 . S
C3540 C3545 1.363 . S
C3541 H3512 0.950 . S
C3541 C3540 1.397 . S
C3541 C3542 1.334 . S
C3542 H3513 0.950 . S
C3542 C3541 1.334 . S
C3542 C3543 1.287 . S
C3543 C3542 1.287 . S
C3543 C3544 1.524 . S
C3543 H3546 0.999 . S
C3544 H3514 0.950 . S
C3544 C3543 1.524 . S
C3544 C3545 1.415 . S
C3545 H3515 0.950 . S
C3545 C3540 1.363 . S
C3545 C3544 1.415 . S
H3546 C3543 0.999 . S
H3547 C3528 0.913 1_554 S
H3548 C3566 0.951 . S
H3549 C3568 0.951 . S
H3550 C3570 0.950 . S
H3551 C3571 0.950 . S
H3552 C3573 0.950 . S
H3553 C3576 0.950 . S
H3554 C3577 0.950 . S
H3555 C3579 0.950 . S
H3556 C3580 0.950 . S
H3557 C3581 0.951 . S
H3558 C3583 0.951 . S
H3559 C3585 0.950 . S
H3560 C3586 0.950 . S
H3561 C3588 0.950 . S
H3562 C3591 0.950 . S
H3563 C3592 0.950 . S
H3564 C3594 0.950 . S
H3565 C3595 0.950 . S
C3566 H3548 0.951 . S
C3566 C3567 1.366 . S
C3566 C3568 1.388 . S
C3567 C3566 1.366 . S
C3567 C3571 1.385 . S
C3568 H3549 0.951 . S
C3568 C3566 1.388 . S
C3568 C3569 1.366 . S
C3569 C3568 1.366 . S
C3569 C3570 1.414 . S
C3569 C3572 1.499 . S
C3570 H3550 0.950 . S
C3570 C3569 1.414 . S
C3570 C3571 1.374 . S
C3571 H3551 0.950 . S
C3571 C3567 1.385 . S
C3571 C3570 1.374 . S
C3572 C3569 1.499 . S
C3572 C3573 1.373 . S
C3572 C3574 1.389 . S
C3573 H3552 0.950 . S
C3573 C3572 1.373 . S
C3573 C3589 1.377 . S
C3574 C3572 1.389 . S
C3574 C3575 1.524 . S
C3574 C3588 1.377 . S
C3575 C3574 1.524 . S
C3575 C3576 1.397 . S
C3575 C3580 1.363 . S
C3576 H3553 0.950 . S
C3576 C3575 1.397 . S
C3576 C3577 1.334 . S
C3577 H3554 0.950 . S
C3577 C3576 1.334 . S
C3577 C3578 1.287 . S
C3578 C3577 1.287 . S
C3578 C3579 1.524 . S
C3578 H3597 0.913 . S
C3579 H3555 0.950 . S
C3579 C3578 1.524 . S
C3579 C3580 1.415 . S
C3580 H3556 0.950 . S
C3580 C3575 1.363 . S
C3580 C3579 1.415 . S
C3581 H3557 0.951 . S
C3581 C3582 1.366 . S
C3581 C3583 1.388 . S
C3582 C3581 1.366 . S
C3582 C3586 1.385 . S
C3583 H3558 0.951 . S
C3583 C3581 1.388 . S
C3583 C3584 1.366 . S
C3584 C3583 1.366 . S
C3584 C3585 1.414 . S
C3584 C3587 1.499 . S
C3585 H3559 0.950 . S
C3585 C3584 1.414 . S
C3585 C3586 1.374 . S
C3586 H3560 0.950 . S
C3586 C3582 1.385 . S
C3586 C3585 1.374 . S
C3587 C3584 1.499 . S
C3587 C3588 1.373 . S
C3587 C3589 1.389 . S
C3588 H3561 0.950 . S
C3588 C3574 1.377 . S
C3588 C3587 1.373 . S
C3589 C3573 1.377 . S
C3589 C3587 1.389 . S
C3589 C3590 1.524 . S
C3590 C3589 1.524 . S
C3590 C3591 1.397 . S
C3590 C3595 1.363 . S
C3591 H3562 0.950 . S
C3591 C3590 1.397 . S
C3591 C3592 1.334 . S
C3592 H3563 0.950 . S
C3592 C3591 1.334 . S
C3592 C3593 1.287 . S
C3593 C3592 1.287 . S
C3593 C3594 1.524 . S
C3593 H3596 0.999 . S
C3594 H3564 0.950 . S
C3594 C3593 1.524 . S
C3594 C3595 1.415 . S
C3595 H3565 0.950 . S
C3595 C3590 1.363 . S
C3595 C3594 1.415 . S
H3596 C3593 0.999 . S
H3597 C3578 0.913 . S
H3598 C3616 0.951 . S
H3599 C3618 0.951 . S
H3600 C3620 0.950 . S
H3601 C3621 0.950 . S
H3602 C3623 0.950 . S
H3603 C3626 0.950 . S
H3604 C3627 0.950 . S
H3605 C3629 0.950 . S
H3606 C3630 0.950 . S
H3607 C3631 0.951 . S
H3608 C3633 0.951 . S
H3609 C3635 0.950 . S
H3610 C3636 0.950 . S
H3611 C3638 0.950 . S
H3612 C3641 0.950 . S
H3613 C3642 0.950 . S
H3614 C3644 0.950 . S
H3615 C3645 0.950 . S
C3616 H3598 0.951 . S
C3616 C3617 1.366 . S
C3616 C3618 1.388 . S
C3617 C3616 1.366 . S
C3617 C3621 1.385 . S
C3618 H3599 0.951 . S
C3618 C3616 1.388 . S
C3618 C3619 1.366 . S
C3619 C3618 1.366 . S
C3619 C3620 1.414 . S
C3619 C3622 1.499 . S
C3620 H3600 0.950 . S
C3620 C3619 1.414 . S
C3620 C3621 1.374 . S
C3621 H3601 0.950 . S
C3621 C3617 1.385 . S
C3621 C3620 1.374 . S
C3622 C3619 1.499 . S
C3622 C3623 1.373 . S
C3622 C3624 1.389 . S
C3623 H3602 0.950 . S
C3623 C3622 1.373 . S
C3623 C3639 1.377 . S
C3624 C3622 1.389 . S
C3624 C3625 1.524 . S
C3624 C3638 1.377 . S
C3625 C3624 1.524 . S
C3625 C3626 1.397 . S
C3625 C3630 1.363 . S
C3626 H3603 0.950 . S
C3626 C3625 1.397 . S
C3626 C3627 1.334 . S
C3627 H3604 0.950 . S
C3627 C3626 1.334 . S
C3627 C3628 1.287 . S
C3628 C3627 1.287 . S
C3628 C3629 1.524 . S
C3628 H3647 0.913 . S
C3629 H3605 0.950 . S
C3629 C3628 1.524 . S
C3629 C3630 1.415 . S
C3630 H3606 0.950 . S
C3630 C3625 1.363 . S
C3630 C3629 1.415 . S
C3631 H3607 0.951 . S
C3631 C3632 1.366 . S
C3631 C3633 1.388 . S
C3632 C3631 1.366 . S
C3632 C3636 1.385 . S
C3633 H3608 0.951 . S
C3633 C3631 1.388 . S
C3633 C3634 1.366 . S
C3634 C3633 1.366 . S
C3634 C3635 1.414 . S
C3634 C3637 1.499 . S
C3635 H3609 0.950 . S
C3635 C3634 1.414 . S
C3635 C3636 1.374 . S
C3636 H3610 0.950 . S
C3636 C3632 1.385 . S
C3636 C3635 1.374 . S
C3637 C3634 1.499 . S
C3637 C3638 1.373 . S
C3637 C3639 1.389 . S
C3638 H3611 0.950 . S
C3638 C3624 1.377 . S
C3638 C3637 1.373 . S
C3639 C3623 1.377 . S
C3639 C3637 1.389 . S
C3639 C3640 1.524 . S
C3640 C3639 1.524 . S
C3640 C3641 1.397 . S
C3640 C3645 1.363 . S
C3641 H3612 0.950 . S
C3641 C3640 1.397 . S
C3641 C3642 1.334 . S
C3642 H3613 0.950 . S
C3642 C3641 1.334 . S
C3642 C3643 1.287 . S
C3643 C3642 1.287 . S
C3643 C3644 1.524 . S
C3643 H3646 0.999 . S
C3644 H3614 0.950 . S
C3644 C3643 1.524 . S
C3644 C3645 1.415 . S
C3645 H3615 0.950 . S
C3645 C3640 1.363 . S
C3645 C3644 1.415 . S
H3646 C3643 0.999 . S
H3647 C3628 0.913 . S
C467 C89 1.485 . S
C482 C5 1.485 . S
C517 C19 1.484 . S
C532 C103 1.485 . S
C567 C61 1.485 . S
C582 C33 1.485 . S
C617 C47 1.484 . S
C632 C75 1.484 . S
C667 C117 1.485 . S
C682 C201 1.485 . S
C717 C215 1.485 . S
C732 C131 1.485 . S
C767 C145 1.485 . S
C782 C173 1.484 . S
C817 C187 1.484 . S
C832 C159 1.485 . S
C867 C229 1.484 . S
C882 C313 1.485 . S
C917 C243 1.485 . S
C932 C327 1.484 . S
C967 C285 1.485 . S
C982 C257 1.484 . S
C1017 C299 1.485 . S
C1032 C271 1.485 . S
C1067 C341 1.484 . S
C1082 C425 1.485 . S
C1117 C355 1.484 . S
C1132 C439 1.485 . S
C1167 C397 1.485 . S
C1182 C369 1.485 . S
C1217 C383 1.485 . S
C1232 C411 1.484 . S
C1267 C11 1.470 . S
C1282 C109 1.470 . S
C1317 C67 1.470 . S
C1332 C25 1.469 . S
C1367 C81 1.470 . S
C1382 C39 1.469 . S
C1417 C53 1.469 . S
C1432 C95 1.470 . S
C1467 C123 1.470 . S
C1482 C221 1.470 . S
C1517 C179 1.469 . S
C1532 C137 1.470 . S
C1567 C193 1.470 . S
C1582 C151 1.470 . S
C1617 C207 1.469 . S
C1632 C165 1.470 . S
C1667 C235 1.470 . S
C1682 C333 1.470 . S
C1717 C249 1.470 . S
C1732 C291 1.469 . S
C1767 C305 1.470 . S
C1782 C263 1.469 . S
C1817 C277 1.470 . S
C1832 C319 1.469 . S
C1867 C347 1.469 . S
C1882 C445 1.470 . S
C1917 C403 1.470 . S
C1932 C361 1.470 . S
C1967 C375 1.470 . S
C1982 C417 1.470 . S
C2017 C389 1.470 . S
C2032 C431 1.470 . S
C2067 C420 1.473 . S
C2082 C0 1.473 . S
C2117 C210 1.473 . S
C2132 C14 1.473 . S
C2167 C28 1.473 . S
C2182 C392 1.473 . S
C2217 C42 1.473 . S
C2232 C182 1.473 . S
C2267 C56 1.473 . S
C2282 C364 1.473 . S
C2317 C70 1.473 . S
C2332 C154 1.473 . S
C2367 C84 1.473 . S
C2382 C336 1.473 . S
C2417 C126 1.473 . S
C2432 C98 1.473 . S
C2467 C308 1.473 . S
C2482 C112 1.473 . S
C2517 C140 1.473 . S
C2532 C280 1.473 . S
C2567 C252 1.473 . S
C2582 C168 1.473 . S
C2617 C224 1.473 . S
C2632 C196 1.473 . S
C2667 C238 1.473 . S
C2682 C434 1.473 . S
C2717 C266 1.473 . S
C2732 C406 1.473 . S
C2767 C294 1.473 . S
C2782 C378 1.473 . S
C2817 C350 1.473 . S
C2832 C322 1.473 . S
C2867 C9 1.451 . S
C2882 C107 1.451 . S
C2917 C23 1.451 . S
C2932 C65 1.451 . S
C2967 C79 1.451 . S
C2982 C37 1.451 . S
C3017 C51 1.451 . S
C3032 C93 1.451 . S
C3067 C219 1.451 . S
C3082 C121 1.451 . S
C3117 C177 1.451 . S
C3132 C135 1.451 . S
C3167 C149 1.451 . S
C3182 C191 1.451 . S
C3217 C205 1.451 . S
C3232 C163 1.451 . S
C3267 C331 1.451 . S
C3282 C233 1.451 . S
C3317 C289 1.451 . S
C3332 C247 1.451 . S
C3367 C303 1.451 . S
C3382 C261 1.451 . S
C3417 C317 1.451 . S
C3432 C275 1.451 . S
C3467 C345 1.451 . S
C3482 C443 1.451 . S
C3517 C359 1.451 . S
C3532 C401 1.451 . S
C3567 C373 1.451 . S
C3582 C415 1.451 . S
C3617 C429 1.451 . S
C3632 C387 1.451 . S
