# Generated by pormake.
# Topology pcu-g, (3)-cn, num edge types: 1
# Building blocks:
#     Node 0, Type 0, BuildingBlock: OLANEW_clean_sbu_2, # of connection points: 3
#     Node 1, Type 0, BuildingBlock: OLANEW_clean_sbu_2, # of connection points: 3
#     Node 2, Type 0, BuildingBlock: OLANEW_clean_sbu_2, # of connection points: 3
#     Node 3, Type 0, BuildingBlock: OLANEW_clean_sbu_2, # of connection points: 3
#     Node 4, Type 0, BuildingBlock: OLANEW_clean_sbu_2, # of connection points: 3
#     Node 5, Type 0, BuildingBlock: OLANEW_clean_sbu_2, # of connection points: 3
#     Node 6, Type 0, BuildingBlock: OLANEW_clean_sbu_2, # of connection points: 3
#     Node 7, Type 0, BuildingBlock: OLANEW_clean_sbu_2, # of connection points: 3
#     Node 8, Type 0, BuildingBlock: OLANEW_clean_sbu_2, # of connection points: 3
#     Node 9, Type 0, BuildingBlock: OLANEW_clean_sbu_2, # of connection points: 3
#     Node 10, Type 0, BuildingBlock: OLANEW_clean_sbu_2, # of connection points: 3
#     Node 11, Type 0, BuildingBlock: OLANEW_clean_sbu_2, # of connection points: 3
#     Node 12, Type 0, BuildingBlock: OLANEW_clean_sbu_2, # of connection points: 3
#     Node 13, Type 0, BuildingBlock: OLANEW_clean_sbu_2, # of connection points: 3
#     Node 14, Type 0, BuildingBlock: OLANEW_clean_sbu_2, # of connection points: 3
#     Node 15, Type 0, BuildingBlock: OLANEW_clean_sbu_2, # of connection points: 3
#     Node 16, Type 0, BuildingBlock: OLANEW_clean_sbu_2, # of connection points: 3
#     Node 17, Type 0, BuildingBlock: OLANEW_clean_sbu_2, # of connection points: 3
#     Node 18, Type 0, BuildingBlock: OLANEW_clean_sbu_2, # of connection points: 3
#     Node 19, Type 0, BuildingBlock: OLANEW_clean_sbu_2, # of connection points: 3
#     Node 20, Type 0, BuildingBlock: OLANEW_clean_sbu_2, # of connection points: 3
#     Node 21, Type 0, BuildingBlock: OLANEW_clean_sbu_2, # of connection points: 3
#     Node 22, Type 0, BuildingBlock: OLANEW_clean_sbu_2, # of connection points: 3
#     Node 23, Type 0, BuildingBlock: OLANEW_clean_sbu_2, # of connection points: 3
#     Node 24, Type 0, BuildingBlock: OLANEW_clean_sbu_2, # of connection points: 3
#     Node 25, Type 0, BuildingBlock: OLANEW_clean_sbu_2, # of connection points: 3
#     Node 26, Type 0, BuildingBlock: OLANEW_clean_sbu_2, # of connection points: 3
#     Node 27, Type 0, BuildingBlock: OLANEW_clean_sbu_2, # of connection points: 3
#     Node 28, Type 0, BuildingBlock: OLANEW_clean_sbu_2, # of connection points: 3
#     Node 29, Type 0, BuildingBlock: OLANEW_clean_sbu_2, # of connection points: 3
#     Node 30, Type 0, BuildingBlock: OLANEW_clean_sbu_2, # of connection points: 3
#     Node 31, Type 0, BuildingBlock: OLANEW_clean_sbu_2, # of connection points: 3
#     Node 32, Type 0, BuildingBlock: OLANEW_clean_sbu_2, # of connection points: 3
#     Node 33, Type 0, BuildingBlock: OLANEW_clean_sbu_2, # of connection points: 3
#     Node 34, Type 0, BuildingBlock: OLANEW_clean_sbu_2, # of connection points: 3
#     Node 35, Type 0, BuildingBlock: OLANEW_clean_sbu_2, # of connection points: 3
#     Node 36, Type 0, BuildingBlock: OLANEW_clean_sbu_2, # of connection points: 3
#     Node 37, Type 0, BuildingBlock: OLANEW_clean_sbu_2, # of connection points: 3
#     Node 38, Type 0, BuildingBlock: OLANEW_clean_sbu_2, # of connection points: 3
#     Node 39, Type 0, BuildingBlock: OLANEW_clean_sbu_2, # of connection points: 3
#     Node 40, Type 0, BuildingBlock: OLANEW_clean_sbu_2, # of connection points: 3
#     Node 41, Type 0, BuildingBlock: OLANEW_clean_sbu_2, # of connection points: 3
#     Node 42, Type 0, BuildingBlock: OLANEW_clean_sbu_2, # of connection points: 3
#     Node 43, Type 0, BuildingBlock: OLANEW_clean_sbu_2, # of connection points: 3
#     Node 44, Type 0, BuildingBlock: OLANEW_clean_sbu_2, # of connection points: 3
#     Node 45, Type 0, BuildingBlock: OLANEW_clean_sbu_2, # of connection points: 3
#     Node 46, Type 0, BuildingBlock: OLANEW_clean_sbu_2, # of connection points: 3
#     Node 47, Type 0, BuildingBlock: OLANEW_clean_sbu_2, # of connection points: 3
#     Edge 48, Type (0, 0), None
#     Edge 49, Type (0, 0), None
#     Edge 50, Type (0, 0), None
#     Edge 51, Type (0, 0), None
#     Edge 52, Type (0, 0), None
#     Edge 53, Type (0, 0), None
#     Edge 54, Type (0, 0), None
#     Edge 55, Type (0, 0), None
#     Edge 56, Type (0, 0), None
#     Edge 57, Type (0, 0), None
#     Edge 58, Type (0, 0), None
#     Edge 59, Type (0, 0), None
#     Edge 60, Type (0, 0), None
#     Edge 61, Type (0, 0), None
#     Edge 62, Type (0, 0), None
#     Edge 63, Type (0, 0), None
#     Edge 64, Type (0, 0), None
#     Edge 65, Type (0, 0), None
#     Edge 66, Type (0, 0), None
#     Edge 67, Type (0, 0), None
#     Edge 68, Type (0, 0), None
#     Edge 69, Type (0, 0), None
#     Edge 70, Type (0, 0), None
#     Edge 71, Type (0, 0), None
#     Edge 72, Type (0, 0), None
#     Edge 73, Type (0, 0), None
#     Edge 74, Type (0, 0), None
#     Edge 75, Type (0, 0), None
#     Edge 76, Type (0, 0), None
#     Edge 77, Type (0, 0), None
#     Edge 78, Type (0, 0), None
#     Edge 79, Type (0, 0), None
#     Edge 80, Type (0, 0), None
#     Edge 81, Type (0, 0), None
#     Edge 82, Type (0, 0), None
#     Edge 83, Type (0, 0), None
#     Edge 84, Type (0, 0), None
#     Edge 85, Type (0, 0), None
#     Edge 86, Type (0, 0), None
#     Edge 87, Type (0, 0), None
#     Edge 88, Type (0, 0), None
#     Edge 89, Type (0, 0), None
#     Edge 90, Type (0, 0), None
#     Edge 91, Type (0, 0), None
#     Edge 92, Type (0, 0), None
#     Edge 93, Type (0, 0), None
#     Edge 94, Type (0, 0), None
#     Edge 95, Type (0, 0), None
#     Edge 96, Type (0, 0), None
#     Edge 97, Type (0, 0), None
#     Edge 98, Type (0, 0), None
#     Edge 99, Type (0, 0), None
#     Edge 100, Type (0, 0), None
#     Edge 101, Type (0, 0), None
#     Edge 102, Type (0, 0), None
#     Edge 103, Type (0, 0), None
#     Edge 104, Type (0, 0), None
#     Edge 105, Type (0, 0), None
#     Edge 106, Type (0, 0), None
#     Edge 107, Type (0, 0), None
#     Edge 108, Type (0, 0), None
#     Edge 109, Type (0, 0), None
#     Edge 110, Type (0, 0), None
#     Edge 111, Type (0, 0), None
#     Edge 112, Type (0, 0), None
#     Edge 113, Type (0, 0), None
#     Edge 114, Type (0, 0), None
#     Edge 115, Type (0, 0), None
#     Edge 116, Type (0, 0), None
#     Edge 117, Type (0, 0), None
#     Edge 118, Type (0, 0), None
#     Edge 119, Type (0, 0), None
# Relax obj value: 0.011
# Max RMSD: 0.082
# Mean RMSD: 0.052
data_MOF--net-pcu-g--node1-OLANEW_clean_sbu_2--edge1-none
_symmetry_space_group_name_H-M    P1
_symmetry_Int_Tables_number       1
_symmetry_cell_setting            triclinic
loop_
_symmetry_equiv_pos_as_xyz
'x, y, z'
_cell_length_a     38.970699
_cell_length_b     41.311044
_cell_length_c     42.503869
_cell_angle_alpha  87.468124
_cell_angle_beta   90.002986
_cell_angle_gamma 89.994354
loop_
_atom_site_label
_atom_site_type_symbol
_atom_site_fract_x
_atom_site_fract_y
_atom_site_fract_z
_atom_type_partial_charge
O0 O 0.10829 0.18832 0.54034 0.0
Cd1 Cd 0.09512 0.24493 0.54938 0.0
O2 O 0.07539 0.19165 0.49826 0.0
Cd3 Cd 0.05067 0.16544 0.46086 0.0
O4 O 0.02969 0.12421 0.43672 0.0
C5 C 0.02883 0.09703 0.45193 0.0
O6 O 0.04003 0.09491 0.48109 0.0
C7 C 0.09571 0.17552 0.51629 0.0
C8 C 0.06512 0.27368 0.4958 0.0
O9 O 0.09781 0.27183 0.49847 0.0
O10 O 0.04649 0.2624 0.51857 0.0
O11 O 0.02391 0.3709 0.40507 0.0
Cd12 Cd 0.01968 0.31203 0.41144 0.0
O13 O 0.97097 0.37671 0.42149 0.0
Cd14 Cd 0.92553 0.40531 0.4323 0.0
O15 O 0.88207 0.43519 0.44555 0.0
C16 C 0.85484 0.43689 0.42914 0.0
O17 O 0.85254 0.42035 0.40355 0.0
C18 C 0.99879 0.3892 0.41108 0.0
C19 C 0.04944 0.28756 0.46694 0.0
O20 O 0.06768 0.29359 0.44231 0.0
O21 O 0.01715 0.29324 0.46555 0.0
O22 O 0.1082 0.8067 0.95161 0.0
Cd23 Cd 0.09504 0.75009 0.94257 0.0
O24 O 0.07532 0.80337 0.9937 0.0
Cd25 Cd 0.05062 0.82959 0.03111 0.0
O26 O 0.02967 0.87082 0.05526 0.0
C27 C 0.02878 0.898 0.04004 0.0
O28 O 0.03997 0.90011 0.01087 0.0
C29 C 0.09563 0.81951 0.97566 0.0
C30 C 0.06504 0.72135 0.99616 0.0
O31 O 0.09773 0.7232 0.99349 0.0
O32 O 0.04641 0.73262 0.97339 0.0
O33 O 0.02386 0.62415 0.0869 0.0
Cd34 Cd 0.01961 0.68302 0.08051 0.0
O35 O 0.97091 0.61833 0.0705 0.0
Cd36 Cd 0.92547 0.58972 0.05971 0.0
O37 O 0.88202 0.55983 0.04647 0.0
C38 C 0.8548 0.55812 0.06288 0.0
O39 O 0.85249 0.57466 0.08848 0.0
C40 C 0.99874 0.60584 0.0809 0.0
C41 C 0.04937 0.70748 0.02501 0.0
O42 O 0.06761 0.70145 0.04965 0.0
O43 O 0.01708 0.70179 0.0264 0.0
O44 O 0.61755 0.99476 0.13166 0.0
Cd45 Cd 0.62436 0.95562 0.17576 0.0
O46 O 0.5692 0.97171 0.11847 0.0
Cd47 Cd 0.52224 0.96911 0.09046 0.0
O48 O 0.47631 0.96942 0.06102 0.0
C49 C 0.47912 0.96879 0.03128 0.0
O50 O 0.50972 0.96779 0.01844 0.0
C51 C 0.59122 0.99417 0.1141 0.0
C52 C 0.62465 0.98855 0.23148 0.0
O53 O 0.65283 0.9818 0.21771 0.0
O54 O 0.59641 0.97936 0.2193 0.0
O55 O 0.52916 0.53897 0.13809 0.0
Cd56 Cd 0.51067 0.48823 0.16423 0.0
O57 O 0.4881 0.54158 0.10241 0.0
Cd58 Cd 0.4719 0.49159 0.11212 0.0
O59 O 0.4782 0.44496 0.09051 0.0
C60 C 0.50789 0.43234 0.09199 0.0
O61 O 0.53184 0.44614 0.10853 0.0
C62 C 0.51406 0.554 0.11536 0.0
C63 C 0.50981 0.49529 0.22902 0.0
O64 O 0.53781 0.48939 0.21458 0.0
O65 O 0.48196 0.49743 0.21305 0.0
O66 O 0.61767 0.00019 0.36034 0.0
Cd67 Cd 0.62447 0.03933 0.31624 0.0
O68 O 0.5693 0.02322 0.37349 0.0
Cd69 Cd 0.52232 0.0258 0.40148 0.0
O70 O 0.47639 0.02548 0.43092 0.0
C71 C 0.47922 0.02549 0.46069 0.0
O72 O 0.50984 0.02585 0.47357 0.0
C73 C 0.59134 0.00077 0.37789 0.0
C74 C 0.62467 0.0064 0.26052 0.0
O75 O 0.65287 0.01313 0.27426 0.0
O76 O 0.59645 0.01561 0.27272 0.0
O77 O 0.52929 0.45592 0.35395 0.0
Cd78 Cd 0.51078 0.50665 0.32782 0.0
O79 O 0.48822 0.45328 0.38962 0.0
Cd80 Cd 0.472 0.50326 0.37992 0.0
O81 O 0.47824 0.54989 0.40154 0.0
C82 C 0.50793 0.56253 0.40009 0.0
O83 O 0.53189 0.54874 0.38356 0.0
C84 C 0.51419 0.44087 0.37668 0.0
C85 C 0.50983 0.49959 0.26304 0.0
O86 O 0.53785 0.50548 0.27744 0.0
O87 O 0.482 0.49745 0.27903 0.0
O88 O 0.09134 0.36511 0.02656 0.0
Cd89 Cd 0.1286 0.39131 0.06418 0.0
O90 O 0.07063 0.4108 0.00577 0.0
Cd91 Cd 0.08474 0.43713 0.04738 0.0
O92 O 0.06638 0.45294 0.09291 0.0
C93 C 0.06364 0.43168 0.11528 0.0
O94 O 0.07437 0.40206 0.11102 0.0
C95 C 0.0739 0.38023 0.00534 0.0
C96 C 0.18711 0.41513 0.03314 0.0
O97 O 0.18459 0.38515 0.04181 0.0
O98 O 0.16233 0.43414 0.03947 0.0
O99 O 0.0914 0.62989 0.46549 0.0
Cd100 Cd 0.12863 0.60367 0.42786 0.0
O101 O 0.07067 0.58421 0.48628 0.0
Cd102 Cd 0.08476 0.55788 0.44466 0.0
O103 O 0.06639 0.54209 0.39913 0.0
C104 C 0.06365 0.56336 0.37676 0.0
O105 O 0.07438 0.59298 0.38104 0.0
C106 C 0.07396 0.61478 0.48671 0.0
C107 C 0.18713 0.57978 0.4589 0.0
O108 O 0.18464 0.60977 0.45024 0.0
O109 O 0.16233 0.56079 0.45255 0.0
O110 O 0.82866 0.94292 0.50387 0.0
Cd111 Cd 0.77235 0.94982 0.47877 0.0
O112 O 0.85195 0.96177 0.45977 0.0
Cd113 Cd 0.89538 0.97327 0.42835 0.0
O114 O 0.93971 0.97901 0.39692 0.0
C115 C 0.94528 0.95719 0.37742 0.0
O116 O 0.92432 0.93235 0.37656 0.0
C117 C 0.85533 0.9499 0.48774 0.0
C118 C 0.7171 0.92719 0.51529 0.0
O119 O 0.73629 0.90758 0.50076 0.0
O120 O 0.72414 0.95749 0.51308 0.0
O121 O 0.32868 0.55207 0.48813 0.0
Cd122 Cd 0.27238 0.54517 0.51324 0.0
O123 O 0.35198 0.53322 0.53224 0.0
Cd124 Cd 0.39541 0.52172 0.56366 0.0
O125 O 0.43974 0.51597 0.59509 0.0
C126 C 0.44531 0.53779 0.61461 0.0
O127 O 0.42434 0.56262 0.61546 0.0
C128 C 0.35535 0.54509 0.50427 0.0
C129 C 0.21711 0.56779 0.47672 0.0
O130 O 0.2363 0.5874 0.49124 0.0
O131 O 0.22416 0.53748 0.47894 0.0
O132 O 0.04747 0.89464 0.57267 0.0
Cd133 Cd 0.06818 0.85756 0.53352 0.0
O134 O 0.99607 0.89556 0.55162 0.0
Cd135 Cd 0.94399 0.9144 0.54414 0.0
O136 O 0.89265 0.92861 0.52783 0.0
C137 C 0.88955 0.94275 0.50082 0.0
O138 O 0.91715 0.94911 0.48395 0.0
C139 C 0.01706 0.90573 0.57184 0.0
C140 C 0.04903 0.793 0.5424 0.0
O141 O 0.07629 0.80367 0.55524 0.0
O142 O 0.03033 0.81292 0.52601 0.0
O143 O 0.05395 0.66361 0.50775 0.0
Cd144 Cd 0.02486 0.69271 0.54907 0.0
O145 O 0.04388 0.61858 0.53528 0.0
Cd146 Cd 0.04874 0.56673 0.54646 0.0
O147 O 0.0579 0.52241 0.57489 0.0
C148 C 0.08562 0.52066 0.59055 0.0
O149 O 0.10782 0.54453 0.58778 0.0
C150 C 0.05656 0.633 0.51096 0.0
C151 C 0.04014 0.75854 0.5454 0.0
O152 O 0.05894 0.73861 0.56164 0.0
O153 O 0.01403 0.74751 0.53101 0.0
O154 O 0.04744 0.10043 0.91923 0.0
Cd155 Cd 0.06821 0.1375 0.95836 0.0
O156 O 0.99605 0.09952 0.94032 0.0
Cd157 Cd 0.94398 0.08071 0.94783 0.0
O158 O 0.89265 0.06651 0.96415 0.0
C159 C 0.88956 0.05236 0.99116 0.0
O160 O 0.91716 0.046 0.00802 0.0
C161 C 0.01703 0.08935 0.92008 0.0
C162 C 0.04898 0.20205 0.94956 0.0
O163 O 0.07622 0.19141 0.93666 0.0
O164 O 0.03033 0.18211 0.96597 0.0
O165 O 0.05384 0.33141 0.98431 0.0
Cd166 Cd 0.0247 0.30233 0.94301 0.0
O167 O 0.0438 0.37644 0.95678 0.0
Cd168 Cd 0.04868 0.42829 0.9456 0.0
O169 O 0.05787 0.47261 0.91717 0.0
C170 C 0.0856 0.47436 0.90153 0.0
O171 O 0.10779 0.45047 0.90431 0.0
C172 C 0.05648 0.36201 0.9811 0.0
C173 C 0.04005 0.23651 0.9466 0.0
O174 O 0.05881 0.25646 0.93035 0.0
O175 O 0.01397 0.2475 0.96105 0.0
O176 O 0.53795 0.07916 0.82787 0.0
Cd177 Cd 0.49456 0.06862 0.78794 0.0
O178 O 0.52916 0.02932 0.84544 0.0
Cd179 Cd 0.5329 0.98677 0.87761 0.0
O180 O 0.52978 0.93601 0.89395 0.0
C181 C 0.50171 0.9242 0.90445 0.0
O182 O 0.47487 0.94314 0.90682 0.0
C183 C 0.5436 0.05658 0.84846 0.0
C184 C 0.50178 0.01212 0.75501 0.0
O185 O 0.50848 0.03982 0.74169 0.0
O186 O 0.4926 0.01092 0.78395 0.0
O187 O 0.48207 0.43543 0.83913 0.0
Cd188 Cd 0.53581 0.44014 0.80966 0.0
O189 O 0.49644 0.48225 0.85724 0.0
Cd190 Cd 0.49273 0.5249 0.88568 0.0
O191 O 0.50568 0.56954 0.90874 0.0
C192 C 0.51693 0.56777 0.9368 0.0
O193 O 0.51935 0.53935 0.95174 0.0
C194 C 0.47568 0.45854 0.85698 0.0
C195 C 0.5332 0.48552 0.75933 0.0
O196 O 0.5295 0.45525 0.75484 0.0
O197 O 0.53778 0.49444 0.78749 0.0
O198 O 0.53798 0.91572 0.6641 0.0
Cd199 Cd 0.49459 0.92624 0.70403 0.0
O200 O 0.52921 0.96557 0.64655 0.0
Cd201 Cd 0.53296 0.00813 0.6144 0.0
O202 O 0.52984 0.05889 0.59806 0.0
C203 C 0.50178 0.0707 0.58753 0.0
O204 O 0.47495 0.05177 0.58512 0.0
C205 C 0.54364 0.93831 0.64351 0.0
C206 C 0.50179 0.98274 0.73696 0.0
O207 O 0.5085 0.95504 0.75027 0.0
O208 O 0.49261 0.98394 0.70802 0.0
O209 O 0.48205 0.55941 0.65294 0.0
Cd210 Cd 0.53579 0.55471 0.68242 0.0
O211 O 0.49645 0.5126 0.63482 0.0
Cd212 Cd 0.49276 0.46996 0.60637 0.0
O213 O 0.50574 0.42532 0.58331 0.0
C214 C 0.51701 0.42711 0.55525 0.0
O215 O 0.51942 0.45553 0.54032 0.0
C216 C 0.47567 0.5363 0.63509 0.0
C217 C 0.53319 0.50934 0.73275 0.0
O218 O 0.52948 0.5396 0.73723 0.0
O219 O 0.53778 0.50041 0.70458 0.0
O220 O 0.79911 0.53556 0.07007 0.0
Cd221 Cd 0.75404 0.49975 0.05194 0.0
O222 O 0.82815 0.52139 0.02873 0.0
Cd223 Cd 0.87315 0.52236 -0.00204 0.0
O224 O 0.91883 0.52381 0.96821 0.0
C225 C 0.9484 0.52557 0.9806 0.0
O226 O 0.95129 0.52655 0.01132 0.0
C227 C 0.82618 0.53755 0.05345 0.0
C228 C 0.70148 0.53281 0.01994 0.0
O229 O 0.69863 0.52498 0.04933 0.0
O230 O 0.72914 0.52532 0.0057 0.0
O231 O 0.79914 0.45942 0.42197 0.0
Cd232 Cd 0.75404 0.49521 0.4401 0.0
O233 O 0.82817 0.47361 0.4633 0.0
Cd234 Cd 0.87318 0.47265 0.49408 0.0
O235 O 0.91886 0.47121 0.52383 0.0
C236 C 0.94844 0.46976 0.51143 0.0
O237 O 0.95134 0.46908 0.48068 0.0
C238 C 0.8262 0.45745 0.43858 0.0
C239 C 0.70152 0.46212 0.47211 0.0
O240 O 0.69865 0.46996 0.44272 0.0
O241 O 0.72917 0.46963 0.48635 0.0
O242 O 0.11085 0.13542 0.4807 0.0
Cd243 Cd 0.11945 0.07849 0.46936 0.0
O244 O 0.10519 0.11989 0.5303 0.0
Cd245 Cd 0.08764 0.12498 0.57847 0.0
O246 O 0.05871 0.09301 0.6107 0.0
C247 C 0.02975 0.08347 0.60097 0.0
O248 O 0.01754 0.09587 0.57427 0.0
C249 C 0.10478 0.14233 0.50897 0.0
C250 C 0.17345 0.04931 0.50274 0.0
O251 O 0.17789 0.06103 0.47462 0.0
O252 O 0.14371 0.05162 0.51527 0.0
O253 O 0.61086 0.35955 0.51132 0.0
Cd254 Cd 0.61945 0.41648 0.52266 0.0
O255 O 0.6052 0.37508 0.46171 0.0
Cd256 Cd 0.58765 0.36999 0.41355 0.0
O257 O 0.55872 0.40197 0.38132 0.0
C258 C 0.52976 0.41151 0.39104 0.0
O259 O 0.51754 0.39911 0.41773 0.0
C260 C 0.6048 0.35265 0.48304 0.0
C261 C 0.67344 0.44567 0.48927 0.0
O262 O 0.67788 0.43395 0.51739 0.0
O263 O 0.64369 0.44335 0.47675 0.0
O264 O 0.60816 0.68824 0.04038 0.0
Cd265 Cd 0.59499 0.74485 0.04942 0.0
O266 O 0.57528 0.69157 -0.00171 0.0
Cd267 Cd 0.55058 0.66536 0.96088 0.0
O268 O 0.52963 0.62412 0.93673 0.0
C269 C 0.52876 0.59695 0.95196 0.0
O270 O 0.53994 0.59484 0.98112 0.0
C271 C 0.59559 0.67544 0.01633 0.0
C272 C 0.56503 0.7736 0.99582 0.0
O273 O 0.59771 0.77175 -0.00149 0.0
O274 O 0.54638 0.76233 0.01858 0.0
O275 O 0.52387 0.87082 0.90507 0.0
Cd276 Cd 0.51963 0.81195 0.91144 0.0
O277 O 0.47092 0.87664 0.92146 0.0
Cd278 Cd 0.42547 0.90524 0.93225 0.0
O279 O 0.38201 0.93513 0.94549 0.0
C280 C 0.35479 0.93684 0.92908 0.0
O281 O 0.35249 0.9203 0.90348 0.0
C282 C 0.49874 0.88913 0.91106 0.0
C283 C 0.54936 0.78748 0.96696 0.0
O284 O 0.56762 0.79351 0.94233 0.0
O285 O 0.51707 0.79317 0.96555 0.0
O286 O 0.60832 0.30665 0.45168 0.0
Cd287 Cd 0.59516 0.25004 0.44264 0.0
O288 O 0.57542 0.30332 0.49376 0.0
Cd289 Cd 0.5507 0.32953 0.53116 0.0
O290 O 0.52973 0.37076 0.55531 0.0
C291 C 0.52885 0.39794 0.54009 0.0
O292 O 0.54004 0.40006 0.51093 0.0
C293 C 0.59573 0.31945 0.47572 0.0
C294 C 0.56515 0.2213 0.49622 0.0
O295 O 0.59783 0.22315 0.49356 0.0
O296 O 0.54652 0.23257 0.47344 0.0
O297 O 0.52393 0.12408 0.58693 0.0
Cd298 Cd 0.51969 0.18295 0.58056 0.0
O299 O 0.47099 0.11827 0.5705 0.0
Cd300 Cd 0.42556 0.08967 0.55968 0.0
O301 O 0.3821 0.05979 0.54643 0.0
C302 C 0.35487 0.05809 0.56284 0.0
O303 O 0.35258 0.07464 0.58843 0.0
C304 C 0.49881 0.10578 0.58092 0.0
C305 C 0.54947 0.20742 0.52507 0.0
O306 O 0.5677 0.20139 0.54971 0.0
O307 O 0.51717 0.20174 0.52645 0.0
O308 O 0.11762 0.49478 0.63171 0.0
Cd309 Cd 0.12441 0.45565 0.67581 0.0
O310 O 0.06926 0.47175 0.61853 0.0
Cd311 Cd 0.0223 0.46917 0.59052 0.0
O312 O 0.97637 0.46949 0.56108 0.0
C313 C 0.97918 0.46913 0.53132 0.0
O314 O 0.0098 0.46841 0.51846 0.0
C315 C 0.0913 0.4942 0.61415 0.0
C316 C 0.12466 0.48858 0.73153 0.0
O317 O 0.15285 0.48183 0.71778 0.0
O318 O 0.09643 0.47939 0.71934 0.0
O319 O 0.02928 0.03906 0.63806 0.0
Cd320 Cd 0.01077 0.98833 0.66418 0.0
O321 O 0.98821 0.0417 0.60238 0.0
Cd322 Cd 0.97199 0.99173 0.61207 0.0
O323 O 0.97824 0.9451 0.59045 0.0
C324 C 0.00792 0.93246 0.59191 0.0
O325 O 0.03189 0.94625 0.60842 0.0
C326 C 0.01418 0.05411 0.61533 0.0
C327 C 0.00982 0.99539 0.72897 0.0
O328 O 0.03784 0.98949 0.71456 0.0
O329 O 0.98199 0.99752 0.71297 0.0
O330 O 0.11762 0.50023 0.86038 0.0
Cd331 Cd 0.12443 0.53937 0.81629 0.0
O332 O 0.06925 0.52328 0.87355 0.0
Cd333 Cd 0.02228 0.52587 0.90154 0.0
O334 O 0.97635 0.52555 0.93097 0.0
C335 C 0.97915 0.52621 0.96071 0.0
O336 O 0.00975 0.52724 0.97356 0.0
C337 C 0.09129 0.50082 0.87794 0.0
C338 C 0.12466 0.50643 0.76057 0.0
O339 O 0.15286 0.51317 0.77433 0.0
O340 O 0.09644 0.51564 0.77275 0.0
O341 O 0.02915 0.95599 0.8539 0.0
Cd342 Cd 0.01066 0.00673 0.82777 0.0
O343 O 0.9881 0.95338 0.88958 0.0
Cd344 Cd 0.9719 0.00337 0.87988 0.0
O345 O 0.97818 0.04999 0.9015 0.0
C346 C 0.00787 0.06262 0.90002 0.0
O347 O 0.03182 0.04883 0.88349 0.0
C348 C 0.01406 0.94096 0.87664 0.0
C349 C 0.0098 -0.00032 0.76298 0.0
O350 O 0.0378 0.00558 0.77742 0.0
O351 O 0.98195 0.99754 0.77895 0.0
O352 O 0.5914 0.86508 0.52653 0.0
Cd353 Cd 0.62864 0.8913 0.56416 0.0
O354 O 0.57068 0.91077 0.50574 0.0
Cd355 Cd 0.58477 0.9371 0.54736 0.0
O356 O 0.5664 0.95288 0.59289 0.0
C357 C 0.56365 0.93161 0.61525 0.0
O358 O 0.57438 0.90199 0.61097 0.0
C359 C 0.57396 0.88019 0.50531 0.0
C360 C 0.68712 0.91519 0.53312 0.0
O361 O 0.68464 0.8852 0.54176 0.0
O362 O 0.66232 0.93418 0.53947 0.0
O363 O 0.5913 0.12985 0.96545 0.0
Cd364 Cd 0.62856 0.10364 0.92783 0.0
O365 O 0.57059 0.08416 0.98623 0.0
Cd366 Cd 0.58471 0.05783 0.94463 0.0
O367 O 0.56635 0.04202 0.8991 0.0
C368 C 0.56361 0.06329 0.87673 0.0
O369 O 0.57433 0.09291 0.88099 0.0
C370 C 0.57385 0.11474 0.98666 0.0
C371 C 0.68708 0.07982 0.95888 0.0
O372 O 0.68456 0.1098 0.95021 0.0
O373 O 0.6623 0.06081 0.95255 0.0
O374 O 0.32868 0.44274 0.0039 0.0
Cd375 Cd 0.27238 0.44964 0.97878 0.0
O376 O 0.35198 0.4616 0.9598 0.0
Cd377 Cd 0.39541 0.47311 0.92839 0.0
O378 O 0.43974 0.47886 0.89696 0.0
C379 C 0.44532 0.45705 0.87745 0.0
O380 O 0.42437 0.4322 0.8766 0.0
C381 C 0.35535 0.44972 0.98777 0.0
C382 C 0.2171 0.42709 0.01531 0.0
O383 O 0.23628 0.40745 0.00081 0.0
O384 O 0.22417 0.45739 0.01307 0.0
O385 O 0.82866 0.05221 0.98812 0.0
Cd386 Cd 0.77236 0.04532 0.01324 0.0
O387 O 0.85197 0.03335 0.03221 0.0
Cd388 Cd 0.89541 0.02183 0.06362 0.0
O389 O 0.93974 0.01607 0.09505 0.0
C390 C 0.94532 0.03789 0.11456 0.0
O391 O 0.92437 0.06273 0.11542 0.0
C392 C 0.85534 0.04523 0.00424 0.0
C393 C 0.71708 0.06787 0.97671 0.0
O394 O 0.73625 0.08751 0.9912 0.0
O395 O 0.72415 0.03757 0.97895 0.0
O396 O 0.54747 0.39453 0.0728 0.0
Cd397 Cd 0.56827 0.35744 0.03369 0.0
O398 O 0.49609 0.39542 0.0517 0.0
Cd399 Cd 0.44401 0.41423 0.04419 0.0
O400 O 0.39267 0.42843 0.02786 0.0
C401 C 0.38958 0.44258 0.00086 0.0
O402 O 0.41718 0.44895 0.984 0.0
C403 C 0.51706 0.40561 0.07194 0.0
C404 C 0.54898 0.29292 0.04245 0.0
O405 O 0.57621 0.30352 0.05539 0.0
O406 O 0.53037 0.31287 0.02603 0.0
O407 O 0.55378 0.16356 0.00768 0.0
Cd408 Cd 0.52463 0.19265 0.04896 0.0
O409 O 0.54374 0.11853 0.03521 0.0
Cd410 Cd 0.54863 0.06669 0.04641 0.0
O411 O 0.55782 0.02237 0.07484 0.0
C412 C 0.58554 0.02063 0.0905 0.0
O413 O 0.60772 0.04452 0.08773 0.0
C414 C 0.55643 0.13296 0.01089 0.0
C415 C 0.54003 0.25846 0.0454 0.0
O416 O 0.55875 0.23849 0.06167 0.0
O417 O 0.51395 0.24749 0.03093 0.0
O418 O 0.54747 0.60035 0.41932 0.0
Cd419 Cd 0.56819 0.63742 0.45847 0.0
O420 O 0.49607 0.59942 0.44038 0.0
Cd421 Cd 0.444 0.58059 0.44787 0.0
O422 O 0.39267 0.56638 0.46418 0.0
C423 C 0.38958 0.55223 0.49119 0.0
O424 O 0.41718 0.54588 0.50806 0.0
C425 C 0.51706 0.58925 0.42015 0.0
C426 C 0.54903 0.70198 0.44961 0.0
O427 O 0.57628 0.69132 0.43675 0.0
O428 O 0.53033 0.68206 0.46599 0.0
O429 O 0.55394 0.83137 0.48427 0.0
Cd430 Cd 0.52484 0.80227 0.44295 0.0
O431 O 0.54388 0.8764 0.45674 0.0
Cd432 Cd 0.54875 0.92825 0.44556 0.0
O433 O 0.55793 0.97257 0.41713 0.0
C434 C 0.58566 0.97431 0.40148 0.0
O435 O 0.60786 0.95044 0.40427 0.0
C436 C 0.55656 0.86197 0.48106 0.0
C437 C 0.54013 0.73644 0.44661 0.0
O438 O 0.55893 0.75637 0.43037 0.0
O439 O 0.51403 0.74747 0.46101 0.0
O440 O 0.03799 0.57926 0.32791 0.0
Cd441 Cd 0.9946 0.56874 0.28797 0.0
O442 O 0.0292 0.52941 0.34546 0.0
Cd443 Cd 0.03294 0.48685 0.37762 0.0
O444 O 0.02982 0.43609 0.39395 0.0
C445 C 1.00176 0.42428 0.40447 0.0
O446 O 0.97492 0.44321 0.40686 0.0
C447 C 0.04363 0.55667 0.3485 0.0
C448 C 1.0018 0.51224 0.25504 0.0
O449 O 0.00852 0.53994 0.24173 0.0
O450 O 0.99262 0.51104 0.28398 0.0
O451 O 0.98203 0.93556 0.3391 0.0
Cd452 Cd 0.03577 0.94024 0.30963 0.0
O453 O 0.99642 0.98237 0.35721 0.0
Cd454 Cd 0.99273 0.02502 0.38566 0.0
O455 O 0.00571 0.06965 0.40872 0.0
C456 C 0.01699 0.06786 0.43677 0.0
O457 O 0.01941 0.03944 0.4517 0.0
C458 C 0.97565 0.95867 0.35695 0.0
C459 C 0.03319 0.9856 0.25929 0.0
O460 O 0.02948 0.95534 0.25481 0.0
O461 O 0.03777 0.99454 0.28745 0.0
O462 O 0.03797 0.41582 0.16414 0.0
Cd463 Cd 0.99458 0.42636 0.20406 0.0
O464 O 0.02918 0.46566 0.14656 0.0
Cd465 Cd 0.03292 0.5082 0.11438 0.0
O466 O 0.02978 0.55895 0.09804 0.0
C467 C 1.00172 0.57076 0.08753 0.0
O468 O 0.97488 0.55183 0.08515 0.0
C469 C 0.04362 0.43839 0.14354 0.0
C470 C 1.0018 0.48286 0.23699 0.0
O471 O 0.0085 0.45516 0.2503 0.0
O472 O 0.99263 0.48406 0.20805 0.0
O473 O 0.98207 0.05949 0.15289 0.0
Cd474 Cd 0.03581 0.05478 0.18236 0.0
O475 O 0.99645 0.01268 0.13477 0.0
Cd476 Cd 0.99274 0.97003 0.10632 0.0
O477 O 0.00571 0.9254 0.08326 0.0
C478 C 0.01696 0.92718 0.0552 0.0
O479 O 0.01937 0.9556 0.04026 0.0
C480 C 0.97568 0.03639 0.13504 0.0
C481 C 0.0332 0.00942 0.23271 0.0
O482 O 0.0295 0.03968 0.23718 0.0
O483 O 0.03778 0.00048 0.20454 0.0
O484 O 0.29918 0.03556 0.57002 0.0
Cd485 Cd 0.25408 -0.00023 0.55189 0.0
O486 O 0.3282 0.02137 0.52869 0.0
Cd487 Cd 0.3732 0.02232 0.49791 0.0
O488 O 0.41888 0.02375 0.46816 0.0
C489 C 0.44848 0.02486 0.48058 0.0
O490 O 0.4514 0.02519 0.51135 0.0
C491 C 0.32624 0.03753 0.55341 0.0
C492 C 0.20154 0.03286 0.5199 0.0
O493 O 0.19869 0.02502 0.54928 0.0
O494 O 0.2292 0.02536 0.50565 0.0
O495 O 0.2991 0.95939 0.92189 0.0
Cd496 Cd 0.25401 0.9952 0.94001 0.0
O497 O 0.32813 0.97357 0.96322 0.0
Cd498 Cd 0.37313 0.9726 0.99401 0.0
O499 O 0.4188 0.97115 0.02376 0.0
C500 C 0.44838 0.96943 0.01139 0.0
O501 O 0.45127 0.96848 0.98066 0.0
C502 C 0.32616 0.95741 0.93851 0.0
C503 C 0.20147 0.96214 0.97202 0.0
O504 O 0.19861 0.96997 0.94264 0.0
O505 O 0.22913 0.96964 0.98626 0.0
O506 O 0.61075 0.63534 0.98074 0.0
Cd507 Cd 0.61937 0.57841 0.96941 0.0
O508 O 0.60506 0.61981 0.03034 0.0
Cd509 Cd 0.58749 0.6249 0.0785 0.0
O510 O 0.55857 0.59292 0.11073 0.0
C511 C 0.52961 0.58337 0.101 0.0
O512 O 0.51739 0.59576 0.0743 0.0
C513 C 0.60467 0.64225 0.00901 0.0
C514 C 0.67338 0.54925 0.00278 0.0
O515 O 0.67781 0.56096 0.97466 0.0
O516 O 0.64364 0.55155 0.01532 0.0
O517 O 0.11078 0.8596 0.01125 0.0
Cd518 Cd 0.11939 0.91653 0.02257 0.0
O519 O 0.10508 0.87513 0.96164 0.0
Cd520 Cd 0.08751 0.87004 0.91349 0.0
O521 O 0.05857 0.90203 0.88126 0.0
C522 C 0.02962 0.91159 0.89099 0.0
O523 O 0.0174 0.89919 0.91769 0.0
C524 C 0.1047 0.8527 0.98297 0.0
C525 C 0.17339 0.9457 0.98919 0.0
O526 O 0.17783 0.93399 0.01731 0.0
O527 O 0.14364 0.94339 0.97666 0.0
loop_
_geom_bond_atom_site_label_1
_geom_bond_atom_site_label_2
_geom_bond_distance
_geom_bond_site_symmetry_2
_ccdc_geom_bond_type
O0 Cd1 2.300 . S
O0 C7 1.275 . S
Cd1 O0 2.300 . S
Cd1 O9 2.381 . S
Cd1 O10 2.378 . S
O2 Cd3 2.385 . S
O2 C7 1.255 . S
Cd3 O2 2.385 . S
Cd3 O4 2.317 . S
O4 Cd3 2.317 . S
O4 C5 1.232 . S
C5 O4 1.232 . S
C5 O6 1.218 . S
O6 C5 1.218 . S
C7 O0 1.275 . S
C7 O2 1.255 . S
C8 O9 1.258 . S
C8 O10 1.256 . S
O9 Cd1 2.381 . S
O9 C8 1.258 . S
O10 Cd1 2.378 . S
O10 C8 1.256 . S
O11 Cd12 2.300 . S
O11 C18 1.275 . S
Cd12 O11 2.300 . S
Cd12 O20 2.381 . S
Cd12 O21 2.378 . S
O13 Cd14 2.389 . S
O13 C18 1.255 . S
Cd14 O13 2.389 . S
Cd14 O15 2.296 1_455 S
O15 Cd14 2.296 1_655 S
O15 C16 1.232 . S
C16 O15 1.232 . S
C16 O17 1.218 . S
O17 C16 1.218 . S
C18 O11 1.275 . S
C18 O13 1.255 . S
C19 O20 1.258 . S
C19 O21 1.256 . S
O20 Cd12 2.381 . S
O20 C19 1.258 . S
O21 Cd12 2.378 . S
O21 C19 1.256 . S
O22 Cd23 2.300 1_556 S
O22 C29 1.258 1_556 S
Cd23 O22 2.300 1_554 S
Cd23 O31 2.381 . S
Cd23 O32 2.378 . S
O24 Cd25 2.385 . S
O24 C29 1.293 . S
Cd25 O24 2.385 . S
Cd25 O26 2.317 . S
O26 Cd25 2.317 . S
O26 C27 1.232 . S
C27 O26 1.232 . S
C27 O28 1.218 . S
O28 C27 1.218 . S
C29 O22 1.258 1_554 S
C29 O24 1.293 . S
C30 O31 1.258 . S
C30 O32 1.256 . S
O31 Cd23 2.381 . S
O31 C30 1.258 . S
O32 Cd23 2.378 . S
O32 C30 1.256 . S
O33 Cd34 2.300 . S
O33 C40 1.275 . S
Cd34 O33 2.300 . S
Cd34 O42 2.381 . S
Cd34 O43 2.378 1_554 S
O35 Cd36 2.389 1_554 S
O35 C40 1.255 . S
Cd36 O35 2.389 1_556 S
Cd36 O37 2.298 1_455 S
O37 Cd36 2.298 1_655 S
O37 C38 1.232 . S
C38 O37 1.232 . S
C38 O39 1.218 . S
O39 C38 1.218 . S
C40 O33 1.275 . S
C40 O35 1.255 . S
C41 O42 1.258 . S
C41 O43 1.256 1_554 S
O42 Cd34 2.381 . S
O42 C41 1.258 . S
O43 Cd34 2.378 1_556 S
O43 C41 1.256 1_556 S
O44 Cd45 2.300 . S
O44 C51 1.275 . S
Cd45 O44 2.300 . S
Cd45 O53 2.381 . S
Cd45 O54 2.371 1_545 S
O46 Cd47 2.385 . S
O46 C51 1.255 . S
Cd47 O46 2.385 . S
Cd47 O48 2.317 1_545 S
O48 Cd47 2.317 1_565 S
O48 C49 1.232 . S
C49 O48 1.232 . S
C49 O50 1.218 1_565 S
O50 C49 1.218 1_545 S
C51 O44 1.275 . S
C51 O46 1.255 . S
C52 O53 1.258 1_565 S
C52 O54 1.257 . S
O53 Cd45 2.381 . S
O53 C52 1.258 1_545 S
O54 Cd45 2.371 1_565 S
O54 C52 1.257 . S
O55 Cd56 2.300 . S
O55 C62 1.275 . S
Cd56 O55 2.300 . S
Cd56 O64 2.381 . S
Cd56 O65 2.378 . S
O57 Cd58 2.385 . S
O57 C62 1.255 . S
Cd58 O57 2.385 . S
Cd58 O59 2.317 . S
O59 Cd58 2.317 . S
O59 C60 1.232 . S
C60 O59 1.232 . S
C60 O61 1.218 . S
O61 C60 1.218 . S
C62 O55 1.275 . S
C62 O57 1.255 . S
C63 O64 1.258 . S
C63 O65 1.256 . S
O64 Cd56 2.381 . S
O64 C63 1.258 . S
O65 Cd56 2.378 . S
O65 C63 1.256 . S
O66 Cd67 2.300 . S
O66 C73 1.275 . S
Cd67 O66 2.300 . S
Cd67 O75 2.381 . S
Cd67 O76 2.378 . S
O68 Cd69 2.385 . S
O68 C73 1.255 . S
Cd69 O68 2.385 . S
Cd69 O70 2.317 1_565 S
O70 Cd69 2.317 1_545 S
O70 C71 1.232 . S
C71 O70 1.232 . S
C71 O72 1.218 1_545 S
O72 C71 1.218 1_565 S
C73 O66 1.275 . S
C73 O68 1.255 . S
C74 O75 1.262 . S
C74 O76 1.257 . S
O75 Cd67 2.381 . S
O75 C74 1.262 . S
O76 Cd67 2.378 . S
O76 C74 1.257 . S
O77 Cd78 2.300 . S
O77 C84 1.275 . S
Cd78 O77 2.300 . S
Cd78 O86 2.381 . S
Cd78 O87 2.378 . S
O79 Cd80 2.385 . S
O79 C84 1.255 . S
Cd80 O79 2.385 . S
Cd80 O81 2.317 . S
O81 Cd80 2.317 . S
O81 C82 1.232 . S
C82 O81 1.232 . S
C82 O83 1.218 . S
O83 C82 1.218 . S
C84 O77 1.275 . S
C84 O79 1.255 . S
C85 O86 1.258 . S
C85 O87 1.256 . S
O86 Cd78 2.381 . S
O86 C85 1.258 . S
O87 Cd78 2.378 . S
O87 C85 1.256 . S
O88 Cd89 2.300 1_556 S
O88 C95 1.276 . S
Cd89 O88 2.300 1_554 S
Cd89 O97 2.381 . S
Cd89 O98 2.378 . S
O90 Cd91 2.385 . S
O90 C95 1.254 1_554 S
Cd91 O90 2.385 . S
Cd91 O92 2.317 . S
O92 Cd91 2.317 . S
O92 C93 1.232 . S
C93 O92 1.232 . S
C93 O94 1.218 . S
O94 C93 1.218 . S
C95 O88 1.276 . S
C95 O90 1.254 1_556 S
C96 O97 1.258 . S
C96 O98 1.255 . S
O97 Cd89 2.381 . S
O97 C96 1.258 . S
O98 Cd89 2.378 . S
O98 C96 1.255 . S
O99 Cd100 2.300 . S
O99 C106 1.275 . S
Cd100 O99 2.300 . S
Cd100 O108 2.381 . S
Cd100 O109 2.378 . S
O101 Cd102 2.385 . S
O101 C106 1.255 . S
Cd102 O101 2.385 . S
Cd102 O103 2.317 . S
O103 Cd102 2.317 . S
O103 C104 1.232 . S
C104 O103 1.232 . S
C104 O105 1.218 . S
O105 C104 1.218 . S
C106 O99 1.275 . S
C106 O101 1.255 . S
C107 O108 1.258 . S
C107 O109 1.256 . S
O108 Cd100 2.381 . S
O108 C107 1.258 . S
O109 Cd100 2.378 . S
O109 C107 1.256 . S
O110 Cd111 2.300 . S
O110 C117 1.275 . S
Cd111 O110 2.300 . S
Cd111 O119 2.381 . S
Cd111 O120 2.378 . S
O112 Cd113 2.388 1_565 S
O112 C117 1.255 . S
Cd113 O112 2.388 1_545 S
Cd113 O114 2.318 1_545 S
O114 Cd113 2.318 1_565 S
O114 C115 1.232 . S
C115 O114 1.232 . S
C115 O116 1.218 . S
O116 C115 1.218 . S
C117 O110 1.275 . S
C117 O112 1.255 . S
C118 O119 1.258 . S
C118 O120 1.256 . S
O119 Cd111 2.381 . S
O119 C118 1.258 . S
O120 Cd111 2.378 . S
O120 C118 1.256 . S
O121 Cd122 2.300 . S
O121 C128 1.275 . S
Cd122 O121 2.300 . S
Cd122 O130 2.381 . S
Cd122 O131 2.378 . S
O123 Cd124 2.385 . S
O123 C128 1.255 . S
Cd124 O123 2.385 . S
Cd124 O125 2.317 . S
O125 Cd124 2.317 . S
O125 C126 1.232 . S
C126 O125 1.232 . S
C126 O127 1.218 . S
O127 C126 1.218 . S
C128 O121 1.275 . S
C128 O123 1.255 . S
C129 O130 1.258 . S
C129 O131 1.256 . S
O130 Cd122 2.381 . S
O130 C129 1.258 . S
O131 Cd122 2.378 . S
O131 C129 1.256 . S
O132 Cd133 2.300 1_455 S
O132 C139 1.275 . S
Cd133 O132 2.300 1_655 S
Cd133 O141 2.381 1_655 S
Cd133 O142 2.378 . S
O134 Cd135 2.385 . S
O134 C139 1.255 1_655 S
Cd135 O134 2.385 . S
Cd135 O136 2.317 . S
O136 Cd135 2.317 . S
O136 C137 1.232 . S
C137 O136 1.232 . S
C137 O138 1.218 . S
O138 C137 1.218 . S
C139 O132 1.275 . S
C139 O134 1.255 1_455 S
C140 O141 1.258 . S
C140 O142 1.256 1_455 S
O141 Cd133 2.381 1_455 S
O141 C140 1.258 . S
O142 Cd133 2.378 . S
O142 C140 1.256 1_655 S
O143 Cd144 2.300 . S
O143 C150 1.275 . S
Cd144 O143 2.300 . S
Cd144 O152 2.381 . S
Cd144 O153 2.378 1_455 S
O145 Cd146 2.385 1_455 S
O145 C150 1.255 . S
Cd146 O145 2.385 1_655 S
Cd146 O147 2.317 . S
O147 Cd146 2.317 . S
O147 C148 1.232 1_655 S
C148 O147 1.232 1_455 S
C148 O149 1.218 . S
O149 C148 1.218 . S
C150 O143 1.275 . S
C150 O145 1.255 . S
C151 O152 1.258 . S
C151 O153 1.256 1_455 S
O152 Cd144 2.381 . S
O152 C151 1.258 . S
O153 Cd144 2.378 1_655 S
O153 C151 1.256 1_655 S
O154 Cd155 2.300 1_455 S
O154 C161 1.275 . S
Cd155 O154 2.300 1_655 S
Cd155 O163 2.381 1_655 S
Cd155 O164 2.378 . S
O156 Cd157 2.385 . S
O156 C161 1.255 1_655 S
Cd157 O156 2.385 . S
Cd157 O158 2.317 . S
O158 Cd157 2.317 . S
O158 C159 1.232 . S
C159 O158 1.232 . S
C159 O160 1.218 . S
O160 C159 1.218 . S
C161 O154 1.275 . S
C161 O156 1.255 1_455 S
C162 O163 1.258 . S
C162 O164 1.256 1_455 S
O163 Cd155 2.381 1_455 S
O163 C162 1.258 . S
O164 Cd155 2.378 . S
O164 C162 1.256 1_655 S
O165 Cd166 2.300 . S
O165 C172 1.275 . S
Cd166 O165 2.300 . S
Cd166 O174 2.381 . S
Cd166 O175 2.378 1_455 S
O167 Cd168 2.385 1_455 S
O167 C172 1.255 . S
Cd168 O167 2.385 1_655 S
Cd168 O169 2.317 . S
O169 Cd168 2.317 . S
O169 C170 1.232 1_655 S
C170 O169 1.232 1_455 S
C170 O171 1.218 . S
O171 C170 1.218 . S
C172 O165 1.275 . S
C172 O167 1.255 . S
C173 O174 1.258 . S
C173 O175 1.256 1_455 S
O174 Cd166 2.381 . S
O174 C173 1.258 . S
O175 Cd166 2.378 1_655 S
O175 C173 1.256 1_655 S
O176 Cd177 2.300 1_545 S
O176 C183 1.275 . S
Cd177 O176 2.300 1_565 S
Cd177 O185 2.381 1_565 S
Cd177 O186 2.378 . S
O178 Cd179 2.385 . S
O178 C183 1.255 1_565 S
Cd179 O178 2.385 . S
Cd179 O180 2.317 . S
O180 Cd179 2.317 . S
O180 C181 1.232 . S
C181 O180 1.232 . S
C181 O182 1.218 . S
O182 C181 1.218 . S
C183 O176 1.275 . S
C183 O178 1.255 1_545 S
C184 O185 1.234 1_565 S
C184 O186 1.287 . S
O185 Cd177 2.381 1_545 S
O185 C184 1.234 1_545 S
O186 Cd177 2.378 . S
O186 C184 1.287 . S
O187 Cd188 2.300 . S
O187 C194 1.275 . S
Cd188 O187 2.300 . S
Cd188 O196 2.381 . S
Cd188 O197 2.378 . S
O189 Cd190 2.385 . S
O189 C194 1.255 . S
Cd190 O189 2.385 . S
Cd190 O191 2.317 . S
O191 Cd190 2.317 . S
O191 C192 1.232 . S
C192 O191 1.232 . S
C192 O193 1.218 . S
O193 C192 1.218 . S
C194 O187 1.275 . S
C194 O189 1.255 . S
C195 O196 1.258 . S
C195 O197 1.256 . S
O196 Cd188 2.381 . S
O196 C195 1.258 . S
O197 Cd188 2.378 . S
O197 C195 1.256 . S
O198 Cd199 2.300 1_565 S
O198 C205 1.275 . S
Cd199 O198 2.300 1_545 S
Cd199 O207 2.381 1_545 S
Cd199 O208 2.378 . S
O200 Cd201 2.385 . S
O200 C205 1.255 1_545 S
Cd201 O200 2.385 . S
Cd201 O202 2.317 . S
O202 Cd201 2.317 . S
O202 C203 1.232 . S
C203 O202 1.232 . S
C203 O204 1.218 . S
O204 C203 1.218 . S
C205 O198 1.275 . S
C205 O200 1.255 1_565 S
C206 O207 1.258 . S
C206 O208 1.256 1_565 S
O207 Cd199 2.381 1_565 S
O207 C206 1.258 . S
O208 Cd199 2.378 . S
O208 C206 1.256 1_545 S
O209 Cd210 2.300 . S
O209 C216 1.275 . S
Cd210 O209 2.300 . S
Cd210 O218 2.381 . S
Cd210 O219 2.378 . S
O211 Cd212 2.385 . S
O211 C216 1.255 . S
Cd212 O211 2.385 . S
Cd212 O213 2.317 . S
O213 Cd212 2.317 . S
O213 C214 1.232 . S
C214 O213 1.232 . S
C214 O215 1.218 . S
O215 C214 1.218 . S
C216 O209 1.275 . S
C216 O211 1.255 . S
C217 O218 1.258 . S
C217 O219 1.256 . S
O218 Cd210 2.381 . S
O218 C217 1.258 . S
O219 Cd210 2.378 . S
O219 C217 1.256 . S
O220 Cd221 2.300 1_554 S
O220 C227 1.275 . S
Cd221 O220 2.300 1_556 S
Cd221 O229 2.381 1_556 S
Cd221 O230 2.378 . S
O222 Cd223 2.385 . S
O222 C227 1.255 1_556 S
Cd223 O222 2.385 . S
Cd223 O224 2.317 . S
O224 Cd223 2.317 . S
O224 C225 1.232 . S
C225 O224 1.232 . S
C225 O226 1.218 . S
O226 C225 1.218 . S
C227 O220 1.275 . S
C227 O222 1.255 1_554 S
C228 O229 1.258 . S
C228 O230 1.256 1_554 S
O229 Cd221 2.381 1_554 S
O229 C228 1.258 . S
O230 Cd221 2.378 . S
O230 C228 1.256 1_556 S
O231 Cd232 2.300 . S
O231 C238 1.275 . S
Cd232 O231 2.300 . S
Cd232 O240 2.381 . S
Cd232 O241 2.378 . S
O233 Cd234 2.385 . S
O233 C238 1.255 . S
Cd234 O233 2.385 . S
Cd234 O235 2.317 . S
O235 Cd234 2.317 . S
O235 C236 1.232 . S
C236 O235 1.232 . S
C236 O237 1.218 . S
O237 C236 1.218 . S
C238 O231 1.275 . S
C238 O233 1.255 . S
C239 O240 1.258 . S
C239 O241 1.256 . S
O240 Cd232 2.381 . S
O240 C239 1.258 . S
O241 Cd232 2.378 . S
O241 C239 1.256 . S
O242 Cd243 2.300 . S
O242 C249 1.275 . S
Cd243 O242 2.300 . S
Cd243 O251 2.381 . S
Cd243 O252 2.378 . S
O244 Cd245 2.385 . S
O244 C249 1.255 . S
Cd245 O244 2.385 . S
Cd245 O246 2.317 . S
O246 Cd245 2.317 . S
O246 C247 1.232 . S
C247 O246 1.232 . S
C247 O248 1.218 . S
O248 C247 1.218 . S
C249 O242 1.275 . S
C249 O244 1.255 . S
C250 O251 1.258 . S
C250 O252 1.256 . S
O251 Cd243 2.381 . S
O251 C250 1.258 . S
O252 Cd243 2.378 . S
O252 C250 1.256 . S
O253 Cd254 2.300 . S
O253 C260 1.275 . S
Cd254 O253 2.300 . S
Cd254 O262 2.381 . S
Cd254 O263 2.378 . S
O255 Cd256 2.385 . S
O255 C260 1.255 . S
Cd256 O255 2.385 . S
Cd256 O257 2.317 . S
O257 Cd256 2.317 . S
O257 C258 1.232 . S
C258 O257 1.232 . S
C258 O259 1.218 . S
O259 C258 1.218 . S
C260 O253 1.275 . S
C260 O255 1.255 . S
C261 O262 1.258 . S
C261 O263 1.256 . S
O262 Cd254 2.381 . S
O262 C261 1.258 . S
O263 Cd254 2.378 . S
O263 C261 1.256 . S
O264 Cd265 2.300 1_554 S
O264 C271 1.275 1_554 S
Cd265 O264 2.300 1_556 S
Cd265 O273 2.381 . S
Cd265 O274 2.378 . S
O266 Cd267 2.385 . S
O266 C271 1.255 . S
Cd267 O266 2.385 . S
Cd267 O268 2.317 . S
O268 Cd267 2.317 . S
O268 C269 1.232 . S
C269 O268 1.232 . S
C269 O270 1.218 . S
O270 C269 1.218 . S
C271 O264 1.275 1_556 S
C271 O266 1.255 . S
C272 O273 1.258 . S
C272 O274 1.256 . S
O273 Cd265 2.381 . S
O273 C272 1.258 . S
O274 Cd265 2.378 . S
O274 C272 1.256 . S
O275 Cd276 2.300 . S
O275 C282 1.275 . S
Cd276 O275 2.300 . S
Cd276 O284 2.381 . S
Cd276 O285 2.378 . S
O277 Cd278 2.385 1_556 S
O277 C282 1.255 . S
Cd278 O277 2.385 1_554 S
Cd278 O279 2.317 . S
O279 Cd278 2.317 . S
O279 C280 1.232 . S
C280 O279 1.232 . S
C280 O281 1.218 . S
O281 C280 1.218 . S
C282 O275 1.275 . S
C282 O277 1.255 . S
C283 O284 1.258 . S
C283 O285 1.256 . S
O284 Cd276 2.381 . S
O284 C283 1.258 . S
O285 Cd276 2.378 . S
O285 C283 1.256 . S
O286 Cd287 2.300 . S
O286 C293 1.275 . S
Cd287 O286 2.300 . S
Cd287 O295 2.381 . S
Cd287 O296 2.378 . S
O288 Cd289 2.385 . S
O288 C293 1.255 . S
Cd289 O288 2.385 . S
Cd289 O290 2.317 . S
O290 Cd289 2.317 . S
O290 C291 1.232 . S
C291 O290 1.232 . S
C291 O292 1.218 . S
O292 C291 1.218 . S
C293 O286 1.275 . S
C293 O288 1.255 . S
C294 O295 1.258 . S
C294 O296 1.256 . S
O295 Cd287 2.381 . S
O295 C294 1.258 . S
O296 Cd287 2.378 . S
O296 C294 1.256 . S
O297 Cd298 2.300 . S
O297 C304 1.275 . S
Cd298 O297 2.300 . S
Cd298 O306 2.381 . S
Cd298 O307 2.378 . S
O299 Cd300 2.385 . S
O299 C304 1.255 . S
Cd300 O299 2.385 . S
Cd300 O301 2.317 . S
O301 Cd300 2.317 . S
O301 C302 1.232 . S
C302 O301 1.232 . S
C302 O303 1.218 . S
O303 C302 1.218 . S
C304 O297 1.275 . S
C304 O299 1.255 . S
C305 O306 1.258 . S
C305 O307 1.256 . S
O306 Cd298 2.381 . S
O306 C305 1.258 . S
O307 Cd298 2.378 . S
O307 C305 1.256 . S
O308 Cd309 2.300 1_455 S
O308 C315 1.275 . S
Cd309 O308 2.300 1_655 S
Cd309 O317 2.381 1_655 S
Cd309 O318 2.378 . S
O310 Cd311 2.385 . S
O310 C315 1.255 1_655 S
Cd311 O310 2.385 . S
Cd311 O312 2.317 . S
O312 Cd311 2.317 . S
O312 C313 1.232 . S
C313 O312 1.232 . S
C313 O314 1.218 . S
O314 C313 1.218 . S
C315 O308 1.275 . S
C315 O310 1.255 1_455 S
C316 O317 1.258 1_655 S
C316 O318 1.256 . S
O317 Cd309 2.381 1_455 S
O317 C316 1.258 1_455 S
O318 Cd309 2.378 . S
O318 C316 1.256 . S
O319 Cd320 2.300 . S
O319 C326 1.275 . S
Cd320 O319 2.300 . S
Cd320 O328 2.381 . S
Cd320 O329 2.378 1_445 S
O321 Cd322 2.385 1_445 S
O321 C326 1.255 . S
Cd322 O321 2.385 1_665 S
Cd322 O323 2.317 . S
O323 Cd322 2.317 . S
O323 C324 1.232 . S
C324 O323 1.232 . S
C324 O325 1.218 . S
O325 C324 1.218 . S
C326 O319 1.275 . S
C326 O321 1.255 . S
C327 O328 1.258 1_565 S
C327 O329 1.255 1_455 S
O328 Cd320 2.381 . S
O328 C327 1.258 1_545 S
O329 Cd320 2.378 1_665 S
O329 C327 1.255 1_655 S
O330 Cd331 2.300 1_455 S
O330 C337 1.275 . S
Cd331 O330 2.300 1_655 S
Cd331 O339 2.381 1_655 S
Cd331 O340 2.378 . S
O332 Cd333 2.385 . S
O332 C337 1.255 1_655 S
Cd333 O332 2.385 . S
Cd333 O334 2.317 . S
O334 Cd333 2.317 . S
O334 C335 1.232 . S
C335 O334 1.232 . S
C335 O336 1.218 . S
O336 C335 1.218 . S
C337 O330 1.275 . S
C337 O332 1.255 1_455 S
C338 O339 1.258 1_655 S
C338 O340 1.256 . S
O339 Cd331 2.381 1_455 S
O339 C338 1.258 1_455 S
O340 Cd331 2.378 . S
O340 C338 1.256 . S
O341 Cd342 2.300 . S
O341 C348 1.275 . S
Cd342 O341 2.300 . S
Cd342 O350 2.381 . S
Cd342 O351 2.378 1_465 S
O343 Cd344 2.385 1_465 S
O343 C348 1.255 . S
Cd344 O343 2.385 1_645 S
Cd344 O345 2.317 . S
O345 Cd344 2.317 . S
O345 C346 1.232 . S
C346 O345 1.232 . S
C346 O347 1.218 . S
O347 C346 1.218 . S
C348 O341 1.275 . S
C348 O343 1.255 . S
C349 O350 1.258 . S
C349 O351 1.256 1_465 S
O350 Cd342 2.381 . S
O350 C349 1.258 . S
O351 Cd342 2.378 1_645 S
O351 C349 1.256 1_645 S
O352 Cd353 2.300 . S
O352 C359 1.275 . S
Cd353 O352 2.300 . S
Cd353 O361 2.381 . S
Cd353 O362 2.378 . S
O354 Cd355 2.385 . S
O354 C359 1.255 . S
Cd355 O354 2.385 . S
Cd355 O356 2.317 . S
O356 Cd355 2.317 . S
O356 C357 1.232 . S
C357 O356 1.232 . S
C357 O358 1.218 . S
O358 C357 1.218 . S
C359 O352 1.275 . S
C359 O354 1.255 . S
C360 O361 1.258 . S
C360 O362 1.256 . S
O361 Cd353 2.381 . S
O361 C360 1.258 . S
O362 Cd353 2.378 . S
O362 C360 1.256 . S
O363 Cd364 2.300 . S
O363 C370 1.275 . S
Cd364 O363 2.300 . S
Cd364 O372 2.381 . S
Cd364 O373 2.378 . S
O365 Cd366 2.385 . S
O365 C370 1.255 . S
Cd366 O365 2.385 . S
Cd366 O367 2.317 . S
O367 Cd366 2.317 . S
O367 C368 1.232 . S
C368 O367 1.232 . S
C368 O369 1.218 . S
O369 C368 1.218 . S
C370 O363 1.275 . S
C370 O365 1.255 . S
C371 O372 1.258 . S
C371 O373 1.256 . S
O372 Cd364 2.381 . S
O372 C371 1.258 . S
O373 Cd364 2.378 . S
O373 C371 1.256 . S
O374 Cd375 2.300 . S
O374 C381 1.275 . S
Cd375 O374 2.300 . S
Cd375 O383 2.381 . S
Cd375 O384 2.378 . S
O376 Cd377 2.385 . S
O376 C381 1.255 . S
Cd377 O376 2.385 . S
Cd377 O378 2.317 . S
O378 Cd377 2.317 . S
O378 C379 1.232 . S
C379 O378 1.232 . S
C379 O380 1.218 . S
O380 C379 1.218 . S
C381 O374 1.275 . S
C381 O376 1.255 . S
C382 O383 1.258 . S
C382 O384 1.256 . S
O383 Cd375 2.381 . S
O383 C382 1.258 . S
O384 Cd375 2.378 . S
O384 C382 1.256 . S
O385 Cd386 2.300 . S
O385 C392 1.275 . S
Cd386 O385 2.300 . S
Cd386 O394 2.381 . S
Cd386 O395 2.378 . S
O387 Cd388 2.385 1_545 S
O387 C392 1.255 . S
Cd388 O387 2.385 1_565 S
Cd388 O389 2.317 1_565 S
O389 Cd388 2.317 1_545 S
O389 C390 1.232 . S
C390 O389 1.232 . S
C390 O391 1.218 . S
O391 C390 1.218 . S
C392 O385 1.275 . S
C392 O387 1.255 . S
C393 O394 1.258 . S
C393 O395 1.256 . S
O394 Cd386 2.381 . S
O394 C393 1.258 . S
O395 Cd386 2.378 . S
O395 C393 1.256 . S
O396 Cd397 2.300 . S
O396 C403 1.275 . S
Cd397 O396 2.300 . S
Cd397 O405 2.381 . S
Cd397 O406 2.378 . S
O398 Cd399 2.385 . S
O398 C403 1.255 . S
Cd399 O398 2.385 . S
Cd399 O400 2.317 . S
O400 Cd399 2.317 . S
O400 C401 1.232 . S
C401 O400 1.232 . S
C401 O402 1.218 . S
O402 C401 1.218 . S
C403 O396 1.275 . S
C403 O398 1.255 . S
C404 O405 1.258 . S
C404 O406 1.256 . S
O405 Cd397 2.381 . S
O405 C404 1.258 . S
O406 Cd397 2.378 . S
O406 C404 1.256 . S
O407 Cd408 2.300 . S
O407 C414 1.275 . S
Cd408 O407 2.300 . S
Cd408 O416 2.381 . S
Cd408 O417 2.378 . S
O409 Cd410 2.385 . S
O409 C414 1.255 . S
Cd410 O409 2.385 . S
Cd410 O411 2.317 . S
O411 Cd410 2.317 . S
O411 C412 1.232 . S
C412 O411 1.232 . S
C412 O413 1.218 . S
O413 C412 1.218 . S
C414 O407 1.275 . S
C414 O409 1.255 . S
C415 O416 1.258 . S
C415 O417 1.256 . S
O416 Cd408 2.381 . S
O416 C415 1.258 . S
O417 Cd408 2.378 . S
O417 C415 1.256 . S
O418 Cd419 2.300 . S
O418 C425 1.275 . S
Cd419 O418 2.300 . S
Cd419 O427 2.381 . S
Cd419 O428 2.378 . S
O420 Cd421 2.385 . S
O420 C425 1.255 . S
Cd421 O420 2.385 . S
Cd421 O422 2.317 . S
O422 Cd421 2.317 . S
O422 C423 1.232 . S
C423 O422 1.232 . S
C423 O424 1.218 . S
O424 C423 1.218 . S
C425 O418 1.275 . S
C425 O420 1.255 . S
C426 O427 1.258 . S
C426 O428 1.256 . S
O427 Cd419 2.381 . S
O427 C426 1.258 . S
O428 Cd419 2.378 . S
O428 C426 1.256 . S
O429 Cd430 2.300 . S
O429 C436 1.275 . S
Cd430 O429 2.300 . S
Cd430 O438 2.381 . S
Cd430 O439 2.378 . S
O431 Cd432 2.385 . S
O431 C436 1.255 . S
Cd432 O431 2.385 . S
Cd432 O433 2.317 . S
O433 Cd432 2.317 . S
O433 C434 1.232 . S
C434 O433 1.232 . S
C434 O435 1.218 . S
O435 C434 1.218 . S
C436 O429 1.275 . S
C436 O431 1.255 . S
C437 O438 1.258 . S
C437 O439 1.256 . S
O438 Cd430 2.381 . S
O438 C437 1.258 . S
O439 Cd430 2.378 . S
O439 C437 1.256 . S
O440 Cd441 2.300 . S
O440 C447 1.275 . S
Cd441 O440 2.300 . S
Cd441 O449 2.381 . S
Cd441 O450 2.378 . S
O442 Cd443 2.385 . S
O442 C447 1.255 . S
Cd443 O442 2.385 . S
Cd443 O444 2.317 . S
O444 Cd443 2.317 . S
O444 C445 1.232 . S
C445 O444 1.232 . S
C445 O446 1.218 . S
O446 C445 1.218 . S
C447 O440 1.275 . S
C447 O442 1.255 . S
C448 O449 1.258 . S
C448 O450 1.256 . S
O449 Cd441 2.381 . S
O449 C448 1.258 . S
O450 Cd441 2.378 . S
O450 C448 1.256 . S
O451 Cd452 2.300 1_565 S
O451 C458 1.275 . S
Cd452 O451 2.300 1_545 S
Cd452 O460 2.381 1_545 S
Cd452 O461 2.378 . S
O453 Cd454 2.385 . S
O453 C458 1.255 1_545 S
Cd454 O453 2.385 . S
Cd454 O455 2.317 . S
O455 Cd454 2.317 . S
O455 C456 1.232 . S
C456 O455 1.232 . S
C456 O457 1.218 . S
O457 C456 1.218 . S
C458 O451 1.275 . S
C458 O453 1.255 1_565 S
C459 O460 1.258 . S
C459 O461 1.256 1_565 S
O460 Cd452 2.381 1_565 S
O460 C459 1.258 . S
O461 Cd452 2.378 . S
O461 C459 1.256 1_545 S
O462 Cd463 2.300 . S
O462 C469 1.275 . S
Cd463 O462 2.300 . S
Cd463 O471 2.381 . S
Cd463 O472 2.378 . S
O464 Cd465 2.385 . S
O464 C469 1.255 . S
Cd465 O464 2.385 . S
Cd465 O466 2.317 . S
O466 Cd465 2.317 . S
O466 C467 1.232 . S
C467 O466 1.232 . S
C467 O468 1.218 . S
O468 C467 1.218 . S
C469 O462 1.275 . S
C469 O464 1.255 . S
C470 O471 1.258 . S
C470 O472 1.256 . S
O471 Cd463 2.381 . S
O471 C470 1.258 . S
O472 Cd463 2.378 . S
O472 C470 1.256 . S
O473 Cd474 2.300 1_545 S
O473 C480 1.275 . S
Cd474 O473 2.300 1_565 S
Cd474 O482 2.381 1_565 S
Cd474 O483 2.378 . S
O475 Cd476 2.385 . S
O475 C480 1.255 1_565 S
Cd476 O475 2.385 . S
Cd476 O477 2.317 . S
O477 Cd476 2.317 . S
O477 C478 1.232 . S
C478 O477 1.232 . S
C478 O479 1.218 . S
O479 C478 1.218 . S
C480 O473 1.275 . S
C480 O475 1.255 1_545 S
C481 O482 1.258 . S
C481 O483 1.256 1_545 S
O482 Cd474 2.381 1_545 S
O482 C481 1.258 . S
O483 Cd474 2.378 . S
O483 C481 1.256 1_565 S
O484 Cd485 2.300 . S
O484 C491 1.275 . S
Cd485 O484 2.300 . S
Cd485 O493 2.381 . S
Cd485 O494 2.378 . S
O486 Cd487 2.385 . S
O486 C491 1.255 . S
Cd487 O486 2.385 . S
Cd487 O488 2.317 . S
O488 Cd487 2.317 . S
O488 C489 1.232 . S
C489 O488 1.232 . S
C489 O490 1.218 . S
O490 C489 1.218 . S
C491 O484 1.275 . S
C491 O486 1.255 . S
C492 O493 1.258 . S
C492 O494 1.256 . S
O493 Cd485 2.381 . S
O493 C492 1.258 . S
O494 Cd485 2.378 . S
O494 C492 1.256 . S
O495 Cd496 2.300 1_556 S
O495 C502 1.275 . S
Cd496 O495 2.300 1_554 S
Cd496 O504 2.381 1_554 S
Cd496 O505 2.378 . S
O497 Cd498 2.385 . S
O497 C502 1.255 1_554 S
Cd498 O497 2.385 . S
Cd498 O499 2.317 . S
O499 Cd498 2.317 . S
O499 C500 1.232 . S
C500 O499 1.232 . S
C500 O501 1.218 . S
O501 C500 1.218 . S
C502 O495 1.275 . S
C502 O497 1.255 1_556 S
C503 O504 1.258 . S
C503 O505 1.256 1_556 S
O504 Cd496 2.381 1_556 S
O504 C503 1.258 . S
O505 Cd496 2.378 . S
O505 C503 1.256 1_554 S
O506 Cd507 2.300 . S
O506 C513 1.275 . S
Cd507 O506 2.300 . S
Cd507 O515 2.381 . S
Cd507 O516 2.378 . S
O508 Cd509 2.385 . S
O508 C513 1.255 . S
Cd509 O508 2.385 . S
Cd509 O510 2.317 . S
O510 Cd509 2.317 . S
O510 C511 1.232 . S
C511 O510 1.232 . S
C511 O512 1.218 . S
O512 C511 1.218 . S
C513 O506 1.275 . S
C513 O508 1.255 . S
C514 O515 1.258 . S
C514 O516 1.256 . S
O515 Cd507 2.381 . S
O515 C514 1.258 . S
O516 Cd507 2.378 . S
O516 C514 1.256 . S
O517 Cd518 2.300 . S
O517 C524 1.275 . S
Cd518 O517 2.300 . S
Cd518 O526 2.381 . S
Cd518 O527 2.378 . S
O519 Cd520 2.385 . S
O519 C524 1.255 . S
Cd520 O519 2.385 . S
Cd520 O521 2.317 . S
O521 Cd520 2.317 . S
O521 C522 1.232 . S
C522 O521 1.232 . S
C522 O523 1.218 . S
O523 C522 1.218 . S
C524 O517 1.275 . S
C524 O519 1.255 . S
C525 O526 1.258 . S
C525 O527 1.256 . S
O526 Cd518 2.381 . S
O526 C525 1.258 . S
O527 Cd518 2.378 . S
O527 C525 1.256 . S
C249 C7 1.465 . S
C238 C16 1.796 . S
C524 C29 1.441 1_556 S
C227 C38 1.794 1_554 S
C412 C51 1.363 . S
C403 C60 1.840 . S
C434 C73 1.362 . S
C82 C425 1.840 . S
C93 C469 1.627 . S
C447 C104 1.627 . S
C115 C458 1.196 . S
C216 C126 1.196 . S
C137 C117 0.980 . S
C150 C106 1.651 . S
C159 C392 0.980 1_556 S
C95 C172 1.658 . S
C181 C282 1.113 . S
C192 C269 1.334 . S
C203 C304 1.113 . S
C214 C291 1.335 . S
C335 C225 0.660 . S
C236 C313 0.659 . S
C247 C326 1.546 . S
C258 C84 1.546 . S
C271 C513 1.464 1_556 S
C502 C280 1.794 1_556 S
C293 C260 1.465 . S
C491 C302 1.795 . S
C148 C315 1.363 . S
C324 C139 1.840 1_655 S
C337 C170 1.363 . S
C346 C161 1.840 1_655 S
C357 C205 1.627 . S
C368 C183 1.627 . S
C194 C379 1.196 . S
C390 C480 1.196 . S
C381 C401 0.980 1_556 S
C414 C370 1.651 1_554 S
C128 C423 0.980 . S
C436 C359 1.652 . S
C445 C18 1.113 . S
C456 C5 1.336 1_655 S
C40 C467 1.113 . S
C27 C478 1.334 1_455 S
C71 C489 0.659 . S
C500 C49 0.659 . S
C62 C511 1.546 . S
C522 C348 1.546 . S
C19 C8 1.501 . S
C30 C41 1.501 . S
C52 C74 1.459 . S
C63 C85 1.666 . S
C382 C96 1.524 1_556 S
C107 C129 1.523 . S
C360 C118 1.523 . S
C140 C151 1.666 . S
C162 C173 1.666 . S
C184 C206 1.649 . S
C195 C217 1.550 . S
C514 C228 1.643 . S
C261 C239 1.644 . S
C250 C492 1.643 . S
C272 C283 1.501 . S
C294 C305 1.501 . S
C338 C316 1.456 . S
C349 C327 1.666 . S
C371 C393 1.522 1_556 S
C404 C415 1.666 . S
C437 C426 1.666 . S
C470 C448 1.645 . S
C459 C481 1.550 1_565 S
C503 C525 1.643 . S
