# Generated by pormake.
# Topology vmg, (6)-cn, num edge types: 1
# Building blocks:
#     Node 0, Type 0, BuildingBlock: IZENUY_clean_sbu_0, # of connection points: 6
#     Node 1, Type 0, BuildingBlock: IZENUY_clean_sbu_0, # of connection points: 6
#     Node 2, Type 0, BuildingBlock: IZENUY_clean_sbu_0, # of connection points: 6
#     Node 3, Type 0, BuildingBlock: IZENUY_clean_sbu_0, # of connection points: 6
#     Node 4, Type 0, BuildingBlock: IZENUY_clean_sbu_0, # of connection points: 6
#     Node 5, Type 0, BuildingBlock: IZENUY_clean_sbu_0, # of connection points: 6
#     Node 6, Type 0, BuildingBlock: IZENUY_clean_sbu_0, # of connection points: 6
#     Node 7, Type 0, BuildingBlock: IZENUY_clean_sbu_0, # of connection points: 6
#     Edge 8, Type (0, 0), BuildingBlock: MIFKUJ_clean_linker_0, # of connection points: 2
#     Edge 9, Type (0, 0), BuildingBlock: MIFKUJ_clean_linker_0, # of connection points: 2
#     Edge 10, Type (0, 0), BuildingBlock: MIFKUJ_clean_linker_0, # of connection points: 2
#     Edge 11, Type (0, 0), BuildingBlock: MIFKUJ_clean_linker_0, # of connection points: 2
#     Edge 12, Type (0, 0), BuildingBlock: MIFKUJ_clean_linker_0, # of connection points: 2
#     Edge 13, Type (0, 0), BuildingBlock: MIFKUJ_clean_linker_0, # of connection points: 2
#     Edge 14, Type (0, 0), BuildingBlock: MIFKUJ_clean_linker_0, # of connection points: 2
#     Edge 15, Type (0, 0), BuildingBlock: MIFKUJ_clean_linker_0, # of connection points: 2
#     Edge 16, Type (0, 0), BuildingBlock: MIFKUJ_clean_linker_0, # of connection points: 2
#     Edge 17, Type (0, 0), BuildingBlock: MIFKUJ_clean_linker_0, # of connection points: 2
#     Edge 18, Type (0, 0), BuildingBlock: MIFKUJ_clean_linker_0, # of connection points: 2
#     Edge 19, Type (0, 0), BuildingBlock: MIFKUJ_clean_linker_0, # of connection points: 2
#     Edge 20, Type (0, 0), BuildingBlock: MIFKUJ_clean_linker_0, # of connection points: 2
#     Edge 21, Type (0, 0), BuildingBlock: MIFKUJ_clean_linker_0, # of connection points: 2
#     Edge 22, Type (0, 0), BuildingBlock: MIFKUJ_clean_linker_0, # of connection points: 2
#     Edge 23, Type (0, 0), BuildingBlock: MIFKUJ_clean_linker_0, # of connection points: 2
#     Edge 24, Type (0, 0), BuildingBlock: MIFKUJ_clean_linker_0, # of connection points: 2
#     Edge 25, Type (0, 0), BuildingBlock: MIFKUJ_clean_linker_0, # of connection points: 2
#     Edge 26, Type (0, 0), BuildingBlock: MIFKUJ_clean_linker_0, # of connection points: 2
#     Edge 27, Type (0, 0), BuildingBlock: MIFKUJ_clean_linker_0, # of connection points: 2
#     Edge 28, Type (0, 0), BuildingBlock: MIFKUJ_clean_linker_0, # of connection points: 2
#     Edge 29, Type (0, 0), BuildingBlock: MIFKUJ_clean_linker_0, # of connection points: 2
#     Edge 30, Type (0, 0), BuildingBlock: MIFKUJ_clean_linker_0, # of connection points: 2
#     Edge 31, Type (0, 0), BuildingBlock: MIFKUJ_clean_linker_0, # of connection points: 2
# Relax obj value: 0.255
# Max RMSD: 0.237
# Mean RMSD: 0.237
data_MOF--net-vmg--node1-IZENUY_clean_sbu_0--edge1-MIFKUJ_clean_linker_0
_symmetry_space_group_name_H-M    P1
_symmetry_Int_Tables_number       1
_symmetry_cell_setting            triclinic
loop_
_symmetry_equiv_pos_as_xyz
'x, y, z'
_cell_length_a     36.141527
_cell_length_b     57.249623
_cell_length_c     34.107337
_cell_angle_alpha  89.977274
_cell_angle_beta   101.56136
_cell_angle_gamma 90.000493
loop_
_atom_site_label
_atom_site_type_symbol
_atom_site_fract_x
_atom_site_fract_y
_atom_site_fract_z
_atom_type_partial_charge
Fe0 Fe 0.2335 0.39072 0.1701 0.0
Fe1 Fe 0.18305 0.39953 0.08745 0.0
O2 O 0.21808 0.4093 0.12834 0.0
Fe3 Fe 0.23691 0.43787 0.1278 0.0
O4 O 0.2441 0.44227 0.18179 0.0
O5 O 0.21869 0.41157 0.20451 0.0
O6 O 0.18755 0.37643 0.16724 0.0
C7 C 0.15493 0.38391 0.15175 0.0
C8 C 0.3007 0.41353 0.1598 0.0
O9 O 0.14946 0.39556 0.11977 0.0
C10 C 0.22978 0.42288 0.04729 0.0
O11 O 0.2493 0.36848 0.1385 0.0
O12 O 0.19733 0.36892 0.09217 0.0
O13 O 0.28463 0.42665 0.13176 0.0
O14 O 0.28188 0.40206 0.1808 0.0
C15 C 0.16173 0.44558 0.09804 0.0
O16 O 0.2141 0.40357 0.05189 0.0
O17 O 0.23314 0.43865 0.07372 0.0
C18 C 0.22803 0.35931 0.10846 0.0
O19 O 0.16215 0.42813 0.07566 0.0
O20 O 0.19034 0.45108 0.12414 0.0
C21 C 0.22881 0.43272 0.20793 0.0
Fe22 Fe 0.75101 0.44204 0.36624 0.0
Fe23 Fe 0.76586 0.3931 0.33636 0.0
O24 O 0.77647 0.41531 0.37316 0.0
Fe25 Fe 0.81289 0.41132 0.41598 0.0
O26 O 0.82828 0.44166 0.41748 0.0
O27 O 0.79378 0.4584 0.36409 0.0
O28 O 0.74119 0.44124 0.31164 0.0
C29 C 0.75982 0.43185 0.2884 0.0
C30 C 0.76408 0.43623 0.45081 0.0
O31 O 0.77645 0.41263 0.29746 0.0
C32 C 0.77608 0.36717 0.40602 0.0
O33 O 0.70694 0.42706 0.36757 0.0
O34 O 0.71525 0.40005 0.32413 0.0
O35 O 0.78133 0.41707 0.45046 0.0
O36 O 0.75599 0.44841 0.4194 0.0
C37 C 0.84524 0.39203 0.35667 0.0
O38 O 0.7551 0.37205 0.37264 0.0
O39 O 0.80364 0.38015 0.42118 0.0
C40 C 0.69377 0.41126 0.34269 0.0
O41 O 0.81425 0.38226 0.34194 0.0
O42 O 0.8478 0.40597 0.38558 0.0
C43 C 0.8238 0.45704 0.39034 0.0
Fe44 Fe 0.75304 0.56997 0.88143 0.0
Fe45 Fe 0.75966 0.61701 0.83924 0.0
O46 O 0.77466 0.59778 0.88032 0.0
Fe47 Fe 0.81221 0.60626 0.91983 0.0
O48 O 0.83067 0.57699 0.93078 0.0
O49 O 0.79781 0.5547 0.88406 0.0
O50 O 0.74454 0.5655 0.82744 0.0
C51 C 0.75983 0.57463 0.80095 0.0
C52 C 0.76517 0.58512 0.96258 0.0
O53 O 0.77084 0.59563 0.80371 0.0
C54 C 0.77063 0.64808 0.90169 0.0
O55 O 0.70651 0.58279 0.87837 0.0
O56 O 0.71009 0.6078 0.83027 0.0
O57 O 0.7829 0.60356 0.95731 0.0
O58 O 0.75798 0.56958 0.93575 0.0
C59 C 0.83897 0.6208 0.85389 0.0
O60 O 0.74753 0.63974 0.87222 0.0
O61 O 0.80095 0.63744 0.91612 0.0
C62 C 0.69079 0.59647 0.85098 0.0
O63 O 0.80677 0.62954 0.84017 0.0
O64 O 0.84435 0.60874 0.88545 0.0
C65 C 0.82763 0.55896 0.90927 0.0
Fe66 Fe 0.23425 0.61399 0.67354 0.0
Fe67 Fe 0.17849 0.60607 0.59456 0.0
O68 O 0.21403 0.5954 0.63354 0.0
Fe69 Fe 0.22841 0.56596 0.63304 0.0
O70 O 0.21313 0.56029 0.6792 0.0
O71 O 0.24181 0.59043 0.71184 0.0
O72 O 0.18882 0.61835 0.68685 0.0
C73 C 0.1592 0.62505 0.66355 0.0
C74 C 0.29701 0.59049 0.66396 0.0
O75 O 0.15847 0.62675 0.62633 0.0
C76 C 0.22124 0.57537 0.55433 0.0
O77 O 0.23001 0.64087 0.64212 0.0
O78 O 0.21007 0.62753 0.58109 0.0
O79 O 0.27762 0.57179 0.65922 0.0
O80 O 0.28096 0.61012 0.66291 0.0
C81 C 0.14913 0.56355 0.60422 0.0
O82 O 0.1915 0.58694 0.55574 0.0
O83 O 0.24387 0.56991 0.58621 0.0
C84 C 0.2262 0.64315 0.60435 0.0
O85 O 0.14505 0.58527 0.60614 0.0
O86 O 0.18182 0.5548 0.60708 0.0
C87 C 0.22513 0.57085 0.71156 0.0
Fe88 Fe 0.74163 0.89225 0.17769 0.0
Fe89 Fe 0.68301 0.90216 0.10152 0.0
O90 O 0.72105 0.91162 0.13901 0.0
Fe91 Fe 0.73749 0.94059 0.13831 0.0
O92 O 0.72627 0.94648 0.18637 0.0
O93 O 0.75306 0.91516 0.21675 0.0
O94 O 0.69715 0.88916 0.19365 0.0
C95 C 0.66656 0.88292 0.17163 0.0
C96 C 0.80466 0.91391 0.16379 0.0
O97 O 0.66393 0.88145 0.13409 0.0
C98 C 0.72456 0.93211 0.05883 0.0
O99 O 0.73362 0.86584 0.14527 0.0
O100 O 0.71215 0.88013 0.08504 0.0
O101 O 0.78685 0.93316 0.16047 0.0
O102 O 0.78744 0.89478 0.1644 0.0
C103 C 0.65818 0.94518 0.11732 0.0
O104 O 0.69435 0.92159 0.06206 0.0
O105 O 0.74926 0.93658 0.08958 0.0
C106 C 0.72815 0.86398 0.1073 0.0
O107 O 0.65222 0.92354 0.11654 0.0
O108 O 0.69083 0.9531 0.11663 0.0
C109 C 0.73849 0.93528 0.21799 0.0
Fe110 Fe 0.26639 0.93687 0.37048 0.0
Fe111 Fe 0.26568 0.88798 0.33317 0.0
O112 O 0.28239 0.90759 0.37309 0.0
Fe113 Fe 0.31553 0.8981 0.41534 0.0
O114 O 0.34935 0.91943 0.4068 0.0
O115 O 0.31076 0.94935 0.39916 0.0
O116 O 0.28516 0.94195 0.32623 0.0
C117 C 0.2763 0.9307 0.29404 0.0
C118 C 0.26709 0.92867 0.4488 0.0
O119 O 0.26067 0.91074 0.29349 0.0
C120 C 0.27005 0.85983 0.40324 0.0
O121 O 0.2191 0.92994 0.34113 0.0
O122 O 0.21744 0.89158 0.33911 0.0
O123 O 0.29766 0.91731 0.45102 0.0
O124 O 0.24703 0.93365 0.41515 0.0
C125 C 0.34092 0.87744 0.35021 0.0
O126 O 0.26825 0.8617 0.36571 0.0
O127 O 0.28374 0.87605 0.42654 0.0
C128 C 0.2006 0.91097 0.3362 0.0
O129 O 0.31261 0.88339 0.32437 0.0
O130 O 0.34011 0.87771 0.38724 0.0
C131 C 0.34394 0.94108 0.40664 0.0
Fe132 Fe 0.26803 0.06847 0.8716 0.0
Fe133 Fe 0.26431 0.11697 0.83275 0.0
O134 O 0.28474 0.09741 0.87114 0.0
Fe135 Fe 0.32262 0.10667 0.90889 0.0
O136 O 0.35342 0.08517 0.8939 0.0
O137 O 0.31438 0.05588 0.89388 0.0
O138 O 0.27958 0.06264 0.82362 0.0
C139 C 0.26747 0.07392 0.79198 0.0
C140 C 0.28069 0.0768 0.95109 0.0
O141 O 0.25327 0.09416 0.79335 0.0
C142 C 0.27763 0.14492 0.90349 0.0
O143 O 0.21889 0.07591 0.84894 0.0
O144 O 0.21855 0.11427 0.84591 0.0
O145 O 0.31097 0.08713 0.94781 0.0
O146 O 0.25588 0.07248 0.92034 0.0
C147 C 0.3391 0.12693 0.83933 0.0
O148 O 0.27202 0.14321 0.86551 0.0
O149 O 0.29355 0.12866 0.92553 0.0
C150 C 0.20122 0.09518 0.84602 0.0
O151 O 0.30876 0.12054 0.81701 0.0
O152 O 0.34193 0.12748 0.87695 0.0
C153 C 0.34754 0.06355 0.89516 0.0
Fe154 Fe 0.74373 0.12047 0.67671 0.0
Fe155 Fe 0.68958 0.10987 0.5973 0.0
O156 O 0.72642 0.10106 0.6368 0.0
Fe157 Fe 0.74546 0.07266 0.63626 0.0
O158 O 0.73184 0.06524 0.68265 0.0
O159 O 0.75352 0.09716 0.71548 0.0
O160 O 0.69772 0.12287 0.68932 0.0
C161 C 0.66778 0.12861 0.66562 0.0
C162 C 0.80959 0.10054 0.66641 0.0
O163 O 0.66636 0.12913 0.62824 0.0
C164 C 0.7371 0.08242 0.55756 0.0
O165 O 0.73668 0.14712 0.64478 0.0
O166 O 0.71775 0.13333 0.58379 0.0
O167 O 0.79306 0.08095 0.66204 0.0
O168 O 0.79111 0.11915 0.66702 0.0
C169 C 0.66723 0.06563 0.60764 0.0
O170 O 0.70557 0.09193 0.55872 0.0
O171 O 0.76032 0.07829 0.5896 0.0
C172 C 0.73184 0.14958 0.60694 0.0
O173 O 0.65926 0.08694 0.60892 0.0
O174 O 0.70109 0.05914 0.61021 0.0
C175 C 0.742 0.07611 0.71513 0.0
H176 H 0.65676 0.38466 0.2808 0.0
H177 H 0.58986 0.38555 0.2502 0.0
H178 H 0.56956 0.43414 0.34008 0.0
H179 H 0.63701 0.43368 0.37096 0.0
H180 H 0.51472 0.39597 0.31975 0.0
H181 H 0.57678 0.45618 0.25712 0.0
H182 H 0.6266 0.47043 0.22319 0.0
H183 H 0.58919 0.42284 0.1261 0.0
H184 H 0.53951 0.40798 0.15982 0.0
H185 H 0.33398 0.43258 0.22985 0.0
H186 H 0.40126 0.4332 0.26006 0.0
H187 H 0.42621 0.39895 0.15558 0.0
H188 H 0.35852 0.39944 0.12444 0.0
H189 H 0.47984 0.42931 0.18286 0.0
H190 H 0.4202 0.36814 0.24203 0.0
H191 H 0.3728 0.35006 0.27538 0.0
H192 H 0.40736 0.39486 0.37706 0.0
H193 H 0.45464 0.41345 0.34407 0.0
C194 C 0.63817 0.39537 0.29453 0.0
C195 C 0.6524 0.40932 0.32819 0.0
C196 C 0.59991 0.39588 0.27683 0.0
C197 C 0.57503 0.41017 0.29255 0.0
C198 C 0.58853 0.42311 0.32743 0.0
C199 C 0.62702 0.42281 0.34502 0.0
C200 C 0.53524 0.41223 0.27144 0.0
C201 C 0.50692 0.40359 0.2901 0.0
C202 C 0.52552 0.42138 0.23214 0.0
C203 C 0.55461 0.43081 0.2112 0.0
C204 C 0.5793 0.44864 0.22865 0.0
C205 C 0.60751 0.45683 0.20945 0.0
C206 C 0.61113 0.4475 0.17257 0.0
C207 C 0.58638 0.43003 0.15471 0.0
C208 C 0.55816 0.42173 0.17384 0.0
C209 C 0.354 0.42552 0.21318 0.0
C210 C 0.34145 0.41588 0.17506 0.0
C211 C 0.39234 0.42572 0.23051 0.0
C212 C 0.41876 0.41554 0.21059 0.0
C213 C 0.40634 0.40677 0.17162 0.0
C214 C 0.36783 0.40702 0.15386 0.0
C215 C 0.4589 0.41329 0.23135 0.0
C216 C 0.48742 0.42178 0.21257 0.0
C217 C 0.46896 0.40357 0.27032 0.0
C218 C 0.44073 0.39233 0.29041 0.0
C219 C 0.41752 0.37424 0.27139 0.0
C220 C 0.3907 0.36389 0.29025 0.0
C221 C 0.38701 0.37135 0.32828 0.0
C222 C 0.41022 0.38913 0.34758 0.0
C223 C 0.43707 0.39956 0.32884 0.0
H224 H 0.36622 0.36331 0.34282 0.0
H225 H 0.63305 0.45382 0.15781 0.0
H226 H 0.64016 0.56305 0.86418 0.0
H227 H 0.57257 0.56116 0.83431 0.0
H228 H 0.57967 0.62813 0.77844 0.0
H229 H 0.64712 0.63007 0.80779 0.0
H230 H 0.51451 0.62289 0.81133 0.0
H231 H 0.58295 0.58134 0.72506 0.0
H232 H 0.62731 0.55146 0.71018 0.0
H233 H 0.55854 0.49738 0.74576 0.0
H234 H 0.51407 0.527 0.76149 0.0
H235 H 0.34867 0.62535 0.66408 0.0
H236 H 0.41534 0.62524 0.69662 0.0
H237 H 0.40567 0.55354 0.73224 0.0
H238 H 0.33916 0.55331 0.69856 0.0
H239 H 0.47173 0.55975 0.71299 0.0
H240 H 0.40224 0.6 0.79753 0.0
H241 H 0.35785 0.6292 0.8146 0.0
H242 H 0.42792 0.68461 0.78575 0.0
H243 H 0.47248 0.65573 0.76796 0.0
C244 C 0.62719 0.57756 0.84612 0.0
C245 C 0.64906 0.59666 0.83819 0.0
C246 C 0.58863 0.57638 0.82886 0.0
C247 C 0.57121 0.59439 0.80378 0.0
C248 C 0.59255 0.61402 0.79759 0.0
C249 C 0.63112 0.61507 0.81434 0.0
C250 C 0.53125 0.59241 0.78237 0.0
C251 C 0.50518 0.60921 0.78958 0.0
C252 C 0.51891 0.57423 0.75471 0.0
C253 C 0.54541 0.5564 0.74487 0.0
C254 C 0.57745 0.56309 0.73003 0.0
C255 C 0.60259 0.5462 0.72139 0.0
C256 C 0.5958 0.52254 0.72713 0.0
C257 C 0.5638 0.51572 0.7414 0.0
C258 C 0.53861 0.53255 0.75017 0.0
C259 C 0.36084 0.60945 0.67839 0.0
C260 C 0.33848 0.5894 0.67896 0.0
C261 C 0.39894 0.60945 0.69725 0.0
C262 C 0.4154 0.58957 0.71788 0.0
C263 C 0.39363 0.56915 0.7168 0.0
C264 C 0.35558 0.56904 0.69744 0.0
C265 C 0.45483 0.59039 0.74162 0.0
C266 C 0.48086 0.57337 0.73489 0.0
C267 C 0.46708 0.60826 0.77007 0.0
C268 C 0.44052 0.62569 0.78109 0.0
C269 C 0.40806 0.61841 0.79459 0.0
C270 C 0.38288 0.6349 0.80442 0.0
C271 C 0.39002 0.65874 0.80118 0.0
C272 C 0.42241 0.66614 0.78821 0.0
C273 C 0.44765 0.64971 0.77828 0.0
H274 H 0.37049 0.67148 0.80879 0.0
H275 H 0.6153 0.50949 0.72042 0.0
H276 H 0.1553 0.94944 0.31845 0.0
H277 H 0.0883 0.9503 0.28729 0.0
H278 H 0.08532 0.87497 0.28713 0.0
H279 H 0.15241 0.87389 0.31789 0.0
H280 H 0.05174 0.89265 0.21527 0.0
H281 H 0.04614 0.90559 0.35285 0.0
H282 H 0.06196 0.9249 0.41868 0.0
H283 H 0.01796 0.98976 0.36559 0.0
H284 H 0.00236 0.9709 0.29929 0.0
H285 H 0.85242 0.87631 0.17669 0.0
H286 H 0.92042 0.87674 0.20276 0.0
H287 H 0.91974 0.95208 0.20137 0.0
H288 H 0.8516 0.95188 0.1757 0.0
H289 H 0.95554 0.93523 0.27274 0.0
H290 H 0.9595 0.92166 0.13507 0.0
H291 H 0.9432 0.90188 0.06968 0.0
H292 H 0.98972 0.83771 0.12336 0.0
H293 H 0.00586 0.85703 0.18922 0.0
C294 C 0.14037 0.93303 0.31216 0.0
C295 C 0.1593 0.91159 0.32063 0.0
C296 C 0.10203 0.93357 0.29438 0.0
C297 C 0.08183 0.91269 0.28502 0.0
C298 C 0.10045 0.89128 0.294 0.0
C299 C 0.13877 0.89071 0.31176 0.0
C300 C 0.04148 0.91318 0.26494 0.0
C301 C 0.03059 0.90171 0.22805 0.0
C302 C 0.01413 0.9255 0.28118 0.0
C303 C 0.02345 0.93689 0.32102 0.0
C304 C 0.04014 0.92402 0.35514 0.0
C305 C 0.04901 0.93487 0.39256 0.0
C306 C 0.04107 0.95856 0.3963 0.0
C307 C 0.02415 0.97142 0.36264 0.0
C308 C 0.01526 0.96066 0.32514 0.0
C309 C 0.86675 0.89299 0.18138 0.0
C310 C 0.84646 0.91407 0.17435 0.0
C311 C 0.90569 0.89319 0.19617 0.0
C312 C 0.92514 0.91444 0.20395 0.0
C313 C 0.90523 0.93549 0.19567 0.0
C314 C 0.86629 0.93532 0.18084 0.0
C315 C 0.96576 0.91468 0.22307 0.0
C316 C 0.9767 0.92626 0.25984 0.0
C317 C 0.99311 0.90241 0.20676 0.0
C318 C 0.98359 0.89076 0.16716 0.0
C319 C 0.966 0.90329 0.133 0.0
C320 C 0.95684 0.89216 0.09583 0.0
C321 C 0.96534 0.86854 0.09239 0.0
C322 C 0.98312 0.856 0.12609 0.0
C323 C 0.99232 0.86704 0.16333 0.0
H324 H 0.95822 0.85995 0.06359 0.0
H325 H 0.04796 0.96693 0.4253 0.0
H326 H 0.15429 0.0577 0.82579 0.0
H327 H 0.08709 0.05876 0.79539 0.0
H328 H 0.08673 0.13363 0.80942 0.0
H329 H 0.15397 0.13284 0.83936 0.0
H330 H 0.02227 0.07406 0.81629 0.0
H331 H 0.03704 0.15727 0.72361 0.0
H332 H 0.08609 0.17765 0.69562 0.0
H333 H 0.14498 0.11285 0.69116 0.0
H334 H 0.09602 0.09207 0.71849 0.0
H335 H 0.85517 0.13832 0.69028 0.0
H336 H 0.92284 0.13764 0.719 0.0
H337 H 0.92578 0.06361 0.69652 0.0
H338 H 0.85826 0.06398 0.6681 0.0
H339 H 0.98885 0.12245 0.69333 0.0
H340 H 0.97675 0.03867 0.783 0.0
H341 H 0.92693 0.01589 0.80556 0.0
H342 H 0.8628 0.07855 0.8108 0.0
H343 H 0.91279 0.10178 0.78968 0.0
C344 C 0.1398 0.07436 0.82309 0.0
C345 C 0.1596 0.09524 0.83439 0.0
C346 C 0.10139 0.07491 0.80574 0.0
C347 C 0.08226 0.09631 0.79947 0.0
C348 C 0.10127 0.11699 0.81333 0.0
C349 C 0.13966 0.11648 0.83052 0.0
C350 C 0.04322 0.09723 0.77597 0.0
C351 C 0.015 0.08447 0.78925 0.0
C352 C 0.03385 0.1109 0.74074 0.0
C353 C 0.06307 0.12319 0.72353 0.0
C354 C 0.06037 0.14737 0.71649 0.0
C355 C 0.08817 0.15899 0.70075 0.0
C356 C 0.1187 0.14657 0.69175 0.0
C357 C 0.12141 0.12248 0.69828 0.0
C358 C 0.09366 0.11078 0.71393 0.0
C359 C 0.87031 0.12196 0.69083 0.0
C360 C 0.8512 0.10111 0.67769 0.0
C361 C 0.90897 0.12164 0.7071 0.0
C362 C 0.92894 0.1005 0.71049 0.0
C363 C 0.91058 0.08001 0.69468 0.0
C364 C 0.872 0.08029 0.6785 0.0
C365 C 0.96796 0.09943 0.73382 0.0
C366 C 0.99615 0.11214 0.72048 0.0
C367 C 0.97737 0.08546 0.76868 0.0
C368 C 0.94836 0.07192 0.78427 0.0
C369 C 0.95224 0.04762 0.78944 0.0
C370 C 0.92396 0.03463 0.80199 0.0
C371 C 0.89167 0.04575 0.80948 0.0
C372 C 0.88781 0.06994 0.80496 0.0
C373 C 0.91616 0.08303 0.79282 0.0
H374 H 0.86967 0.03563 0.81881 0.0
H375 H 0.14021 0.1556 0.67963 0.0
H376 H 0.17748 0.32617 0.07723 0.0
H377 H 0.18873 0.28994 0.0443 0.0
H378 H 0.30844 0.30424 0.0691 0.0
H379 H 0.29719 0.34044 0.10381 0.0
H380 H 0.21234 0.28334 0.98014 0.0
H381 H 0.35739 0.25287 0.0694 0.0
H382 H 0.39533 0.25486 0.13807 0.0
H383 H 0.29411 0.26154 0.18499 0.0
H384 H 0.25558 0.2593 0.11668 0.0
H385 H 0.27491 0.18932 0.87246 0.0
H386 H 0.26984 0.22607 0.90786 0.0
H387 H 0.2592 0.1874 0.01372 0.0
H388 H 0.26586 0.15086 0.97907 0.0
H389 H 0.30376 0.22145 0.03596 0.0
H390 H 0.18207 0.21491 0.94882 0.0
H391 H 0.13756 0.21034 0.88427 0.0
H392 H 0.18001 0.27326 0.84074 0.0
H393 H 0.22512 0.27804 0.9049 0.0
C394 C 0.20631 0.32146 0.07619 0.0
C395 C 0.23648 0.33614 0.0931 0.0
C396 C 0.21269 0.30077 0.05709 0.0
C397 C 0.24939 0.29428 0.05385 0.0
C398 C 0.27986 0.30866 0.07154 0.0
C399 C 0.27348 0.32932 0.09142 0.0
C400 C 0.25493 0.27283 0.03082 0.0
C401 C 0.23245 0.26986 0.9924 0.0
C402 C 0.28082 0.25503 0.04669 0.0
C403 C 0.30368 0.25621 0.0879 0.0
C404 C 0.34326 0.25471 0.09439 0.0
C405 C 0.36485 0.25589 0.13325 0.0
C406 C 0.34715 0.25842 0.16586 0.0
C407 C 0.3078 0.25969 0.1597 0.0
C408 C 0.28607 0.25849 0.12092 0.0
C409 C 0.2711 0.1887 0.90314 0.0
C410 C 0.2707 0.1672 0.92294 0.0
C411 C 0.26822 0.20972 0.92342 0.0
C412 C 0.26391 0.20962 0.96355 0.0
C413 C 0.26281 0.18807 0.98297 0.0
C414 C 0.26636 0.16715 0.963 0.0
C415 C 0.26065 0.23179 0.98563 0.0
C416 C 0.28378 0.23499 0.02366 0.0
C417 C 0.23441 0.24947 0.97001 0.0
C418 C 0.20723 0.24669 0.93148 0.0
C419 C 0.18208 0.22768 0.92537 0.0
C420 C 0.15673 0.22506 0.88888 0.0
C421 C 0.15604 0.24146 0.85838 0.0
C422 C 0.18062 0.26055 0.86437 0.0
C423 C 0.20607 0.26323 0.90079 0.0
H424 H 0.13639 0.2394 0.83015 0.0
H425 H 0.36392 0.25934 0.1959 0.0
H426 H 0.73822 0.32733 0.37576 0.0
H427 H 0.73105 0.29111 0.41174 0.0
H428 H 0.79182 0.32195 0.52135 0.0
H429 H 0.80042 0.35767 0.48526 0.0
H430 H 0.81546 0.28026 0.51853 0.0
H431 H 0.69166 0.31361 0.49883 0.0
H432 H 0.63278 0.33073 0.46049 0.0
H433 H 0.61039 0.26778 0.3914 0.0
H434 H 0.66941 0.25039 0.42899 0.0
H435 H 0.76089 0.19032 0.64454 0.0
H436 H 0.76856 0.22816 0.61303 0.0
H437 H 0.72485 0.19846 0.49685 0.0
H438 H 0.71718 0.16094 0.52763 0.0
H439 H 0.69186 0.24044 0.50654 0.0
H440 H 0.81797 0.20809 0.5271 0.0
H441 H 0.87627 0.19156 0.5677 0.0
H442 H 0.89289 0.25397 0.63885 0.0
H443 H 0.83437 0.27075 0.59898 0.0
C444 C 0.74989 0.3264 0.40755 0.0
C445 C 0.76992 0.3454 0.42758 0.0
C446 C 0.74564 0.3057 0.42821 0.0
C447 C 0.76045 0.30376 0.46957 0.0
C448 C 0.7802 0.32284 0.48953 0.0
C449 C 0.78502 0.34333 0.46881 0.0
C450 C 0.75607 0.28181 0.49199 0.0
C451 C 0.78825 0.27181 0.51631 0.0
C452 C 0.72077 0.27044 0.48897 0.0
C453 C 0.68513 0.28078 0.4665 0.0
C454 C 0.6743 0.30348 0.47529 0.0
C455 C 0.64088 0.31322 0.45372 0.0
C456 C 0.6179 0.30037 0.42347 0.0
C457 C 0.62824 0.27772 0.41481 0.0
C458 C 0.66164 0.2679 0.43627 0.0
C459 C 0.75309 0.19184 0.61229 0.0
C460 C 0.73837 0.1725 0.58875 0.0
C461 C 0.75752 0.21347 0.5943 0.0
C462 C 0.74726 0.21617 0.55251 0.0
C463 C 0.73277 0.19688 0.5291 0.0
C464 C 0.72857 0.17534 0.5469 0.0
C465 C 0.75119 0.23898 0.5327 0.0
C466 C 0.71893 0.24908 0.50888 0.0
C467 C 0.78629 0.25058 0.53657 0.0
C468 C 0.82158 0.24057 0.56034 0.0
C469 C 0.8339 0.21821 0.5516 0.0
C470 C 0.86701 0.20881 0.57444 0.0
C471 C 0.88821 0.22168 0.60591 0.0
C472 C 0.8764 0.24401 0.61451 0.0
C473 C 0.84328 0.25348 0.59179 0.0
H474 H 0.91383 0.21437 0.62356 0.0
H475 H 0.59206 0.30795 0.40678 0.0
H476 H 0.72978 0.81956 0.13818 0.0
H477 H 0.73517 0.78278 0.10299 0.0
H478 H 0.74883 0.82137 0.99806 0.0
H479 H 0.74172 0.85795 0.03244 0.0
H480 H 0.70438 0.78799 0.97434 0.0
H481 H 0.82432 0.79251 0.06426 0.0
H482 H 0.86798 0.79645 0.12948 0.0
H483 H 0.82198 0.73432 0.17163 0.0
H484 H 0.77769 0.73017 0.10678 0.0
H485 H 0.82416 0.67879 0.93694 0.0
H486 H 0.81561 0.7154 0.97023 0.0
H487 H 0.6947 0.70592 0.94093 0.0
H488 H 0.70328 0.6695 0.90572 0.0
H489 H 0.7912 0.72431 0.03246 0.0
H490 H 0.64973 0.7582 0.93899 0.0
H491 H 0.61364 0.75695 0.86945 0.0
H492 H 0.71639 0.74696 0.82652 0.0
H493 H 0.75309 0.74844 0.89572 0.0
C494 C 0.73435 0.82015 0.10776 0.0
C495 C 0.73538 0.84165 0.08811 0.0
C496 C 0.73745 0.7991 0.08761 0.0
C497 C 0.74267 0.79916 0.04777 0.0
C498 C 0.74451 0.82072 0.02857 0.0
C499 C 0.74069 0.84167 0.04838 0.0
C500 C 0.74572 0.77692 0.02567 0.0
C501 C 0.72338 0.77408 0.98714 0.0
C502 C 0.77081 0.75876 0.04185 0.0
C503 C 0.79743 0.76117 0.08083 0.0
C504 C 0.82334 0.77978 0.08754 0.0
C505 C 0.84822 0.78204 0.12442 0.0
C506 C 0.84768 0.76568 0.15472 0.0
C507 C 0.82232 0.74699 0.14815 0.0
C508 C 0.79734 0.74467 0.11134 0.0
C509 C 0.79567 0.68462 0.93713 0.0
C510 C 0.76436 0.67127 0.91861 0.0
C511 C 0.79081 0.70554 0.95644 0.0
C512 C 0.75452 0.7136 0.95832 0.0
C513 C 0.72303 0.70039 0.93945 0.0
C514 C 0.7279 0.67955 0.91933 0.0
C515 C 0.75024 0.7355 0.98087 0.0
C516 C 0.77213 0.7382 0.01966 0.0
C517 C 0.72584 0.75389 0.9643 0.0
C518 C 0.70406 0.75315 0.92256 0.0
C519 C 0.6646 0.75579 0.91468 0.0
C520 C 0.64405 0.75504 0.87534 0.0
C521 C 0.6627 0.75179 0.8436 0.0
C522 C 0.70196 0.74938 0.85113 0.0
C523 C 0.72264 0.75014 0.89041 0.0
H524 H 0.64673 0.7512 0.81317 0.0
H525 H 0.86697 0.76746 0.18325 0.0
H526 H 0.23221 0.65027 0.52703 0.0
H527 H 0.2405 0.68699 0.49402 0.0
H528 H 0.2495 0.72352 0.6061 0.0
H529 H 0.24062 0.6865 0.63963 0.0
H530 H 0.20065 0.74517 0.54558 0.0
H531 H 0.32684 0.71555 0.56466 0.0
H532 H 0.37615 0.68625 0.56151 0.0
H533 H 0.34326 0.68452 0.43339 0.0
H534 H 0.29337 0.71358 0.4358 0.0
H535 H 0.2632 0.8526 0.48036 0.0
H536 H 0.25545 0.8158 0.51331 0.0
H537 H 0.24891 0.77922 0.40161 0.0
H538 H 0.25743 0.81631 0.36818 0.0
H539 H 0.2965 0.7575 0.46184 0.0
H540 H 0.17039 0.7868 0.44231 0.0
H541 H 0.12052 0.81581 0.44492 0.0
H542 H 0.15251 0.81782 0.57309 0.0
H543 H 0.20296 0.78906 0.57123 0.0
C544 C 0.23629 0.66603 0.54493 0.0
C545 C 0.23562 0.6654 0.58607 0.0
C546 C 0.24122 0.68706 0.52593 0.0
C547 C 0.24588 0.70805 0.54753 0.0
C548 C 0.24599 0.70752 0.58881 0.0
C549 C 0.24116 0.68635 0.608 0.0
C550 C 0.24889 0.73052 0.52633 0.0
C551 C 0.22203 0.74803 0.52785 0.0
C552 C 0.27597 0.73397 0.50203 0.0
C553 C 0.30614 0.71661 0.50045 0.0
C554 C 0.32993 0.7088 0.53583 0.0
C555 C 0.35802 0.69226 0.53417 0.0
C556 C 0.36278 0.68349 0.49728 0.0
C557 C 0.33952 0.69131 0.46195 0.0
C558 C 0.31136 0.70784 0.46344 0.0
C559 C 0.25978 0.83681 0.46251 0.0
C560 C 0.26103 0.83747 0.4215 0.0
C561 C 0.25516 0.81572 0.48149 0.0
C562 C 0.25129 0.79469 0.45999 0.0
C563 C 0.2518 0.79524 0.41884 0.0
C564 C 0.25642 0.81646 0.3997 0.0
C565 C 0.24829 0.77219 0.48115 0.0
C566 C 0.27514 0.75466 0.4796 0.0
C567 C 0.22113 0.76869 0.50534 0.0
C568 C 0.19069 0.78592 0.5066 0.0
C569 C 0.16699 0.79356 0.47104 0.0
C570 C 0.13858 0.80994 0.47238 0.0
C571 C 0.1334 0.81869 0.50914 0.0
C572 C 0.15657 0.81104 0.54464 0.0
C573 C 0.18506 0.79468 0.54346 0.0
H574 H 0.11139 0.83137 0.51012 0.0
H575 H 0.38454 0.67068 0.49606 0.0
H576 H 0.82789 0.51263 0.92944 0.0
H577 H 0.88435 0.4899 0.95955 0.0
H578 H 0.95527 0.54721 0.93788 0.0
H579 H 0.89937 0.56959 0.90799 0.0
H580 H 0.98861 0.50644 0.92893 0.0
H581 H 0.92596 0.54277 0.02622 0.0
H582 H 0.87382 0.55049 0.06086 0.0
H583 H 0.86895 0.47765 0.08984 0.0
H584 H 0.92131 0.46952 0.05509 0.0
H585 H 0.15441 0.49136 0.07552 0.0
H586 H 0.09504 0.50984 0.04171 0.0
H587 H 0.03311 0.44909 0.06716 0.0
H588 H 0.09202 0.43084 0.10059 0.0
H589 H 0.99394 0.48857 0.07231 0.0
H590 H 0.06194 0.45308 0.98056 0.0
H591 H 0.11578 0.44622 0.94759 0.0
H592 H 0.11151 0.5177 0.90884 0.0
H593 H 0.05803 0.52512 0.9422 0.0
C594 C 0.85565 0.51986 0.9298 0.0
C595 C 0.8596 0.54272 0.91647 0.0
C596 C 0.88779 0.50705 0.94732 0.0
C597 C 0.92395 0.51708 0.95154 0.0
C598 C 0.92773 0.53914 0.93502 0.0
C599 C 0.89583 0.5519 0.9179 0.0
C600 C 0.95762 0.50608 0.97669 0.0
C601 C 0.98987 0.5026 0.96032 0.0
C602 C 0.9591 0.5008 0.01753 0.0
C603 C 0.92707 0.5055 0.03753 0.0
C604 C 0.91347 0.52836 0.03958 0.0
C605 C 0.88391 0.53281 0.05935 0.0
C606 C 0.86778 0.51454 0.07737 0.0
C607 C 0.88134 0.49178 0.07573 0.0
C608 C 0.91099 0.48724 0.05604 0.0
C609 C 0.1279 0.48248 0.07504 0.0
C610 C 0.12745 0.4598 0.09034 0.0
C611 C 0.09416 0.49284 0.05542 0.0
C612 C 0.05988 0.48053 0.05116 0.0
C613 C 0.05925 0.45878 0.06981 0.0
C614 C 0.09283 0.44844 0.08907 0.0
C615 C 0.02509 0.48924 0.02475 0.0
C616 C 0.99267 0.49221 0.04087 0.0
C617 C 0.02355 0.49404 0.98373 0.0
C618 C 0.05615 0.48971 0.9642 0.0
C619 C 0.0727 0.46741 0.96536 0.0
C620 C 0.1031 0.4634 0.94652 0.0
C621 C 0.11695 0.4815 0.92602 0.0
C622 C 0.10065 0.50369 0.92463 0.0
C623 C 0.07032 0.50781 0.94352 0.0
H624 H 0.14031 0.47835 0.91121 0.0
H625 H 0.84496 0.51799 0.09281 0.0
H626 H 0.0766 0.57542 0.60469 0.0
H627 H 0.02004 0.55829 0.56437 0.0
H628 H 0.08727 0.50384 0.52585 0.0
H629 H 0.14454 0.52133 0.56567 0.0
H630 H 0.04326 0.5251 0.4634 0.0
H631 H 0.02572 0.49265 0.58752 0.0
H632 H 0.02095 0.49293 0.65861 0.0
H633 H 0.92551 0.53893 0.63165 0.0
H634 H 0.93015 0.53943 0.56058 0.0
H635 H 0.89347 0.44951 0.37776 0.0
H636 H 0.94924 0.47185 0.40813 0.0
H637 H 0.87786 0.52505 0.44356 0.0
H638 H 0.82179 0.50228 0.41344 0.0
H639 H 0.92349 0.50627 0.50629 0.0
H640 H 0.93956 0.53696 0.38085 0.0
H641 H 0.94485 0.53626 0.30993 0.0
H642 H 0.04332 0.49283 0.33915 0.0
H643 H 0.03816 0.49272 0.41008 0.0
C644 C 0.07933 0.55949 0.58835 0.0
C645 C 0.11503 0.5498 0.58808 0.0
C646 C 0.04691 0.54968 0.56538 0.0
C647 C 0.04948 0.52984 0.54204 0.0
C648 C 0.0848 0.51923 0.5436 0.0
C649 C 0.1174 0.52908 0.56666 0.0
C650 C 0.01572 0.5215 0.51355 0.0
C651 C 0.01719 0.52058 0.47275 0.0
C652 C 0.98144 0.51652 0.52581 0.0
C653 C 0.97853 0.51624 0.56867 0.0
C654 C 0.00391 0.50302 0.59678 0.0
C655 C 0.00119 0.50301 0.6371 0.0
C656 C 0.97297 0.51599 0.64967 0.0
C657 C 0.94739 0.52896 0.62192 0.0
C658 C 0.95005 0.5291 0.5816 0.0
C659 C 0.88975 0.46658 0.39016 0.0
C660 C 0.85366 0.47444 0.39303 0.0
C661 C 0.92161 0.47932 0.40762 0.0
C662 C 0.91772 0.50009 0.42823 0.0
C663 C 0.8814 0.50907 0.42772 0.0
C664 C 0.84943 0.49627 0.41014 0.0
C665 C 0.95093 0.50981 0.45596 0.0
C666 C 0.94944 0.51092 0.49677 0.0
C667 C 0.9852 0.51484 0.44369 0.0
C668 C 0.98824 0.51468 0.40086 0.0
C669 C 0.9621 0.52702 0.37213 0.0
C670 C 0.9651 0.52678 0.33189 0.0
C671 C 0.99432 0.51441 0.32001 0.0
C672 C 0.02062 0.5023 0.34836 0.0
C673 C 0.01767 0.50239 0.3886 0.0
H674 H 0.99665 0.51428 0.28886 0.0
H675 H 0.97093 0.51601 0.6809 0.0
H676 H 0.65457 0.99078 0.09257 0.0
H677 H 0.59693 0.01216 0.06378 0.0
H678 H 0.52947 0.95566 0.09521 0.0
H679 H 0.58669 0.93433 0.1246 0.0
H680 H 0.52195 0.9645 0.01193 0.0
H681 H 0.51726 1.00413 0.13319 0.0
H682 H 0.54008 0.02774 0.19356 0.0
H683 H 0.55964 0.08572 0.12047 0.0
H684 H 0.53742 0.06235 0.05959 0.0
H685 H 0.34682 0.01773 0.91783 0.0
H686 H 0.39859 0.99708 0.96093 0.0
H687 H 0.47346 0.05461 0.95166 0.0
H688 H 0.42208 0.07544 0.90873 0.0
H689 H 0.47249 0.04385 0.02884 0.0
H690 H 0.48444 1.00312 0.90844 0.0
H691 H 0.46197 0.97979 0.84758 0.0
H692 H 0.43032 0.92422 0.91882 0.0
H693 H 0.45217 0.94736 0.98011 0.0
C694 C 0.62751 0.98328 0.09462 0.0
C695 C 0.62503 0.96064 0.10975 0.0
C696 C 0.59466 0.99553 0.07829 0.0
C697 C 0.55922 0.98525 0.07709 0.0
C698 C 0.55671 0.96371 0.09577 0.0
C699 C 0.58942 0.95156 0.11231 0.0
C700 C 0.5258 0.99477 0.05015 0.0
C701 C 0.51056 0.98168 0.01595 0.0
C702 C 0.51197 0.01736 0.0552 0.0
C703 C 0.52604 0.03137 0.09177 0.0
C704 C 0.52687 0.02181 0.12995 0.0
C705 C 0.53957 0.03519 0.16428 0.0
C706 C 0.55141 0.05819 0.16086 0.0
C707 C 0.5505 0.06789 0.12308 0.0
C708 C 0.53781 0.05458 0.08864 0.0
C709 C 0.37456 0.02571 0.92399 0.0
C710 C 0.38015 0.04844 0.91069 0.0
C711 C 0.40405 0.01391 0.94873 0.0
C712 C 0.43956 0.02454 0.95978 0.0
C713 C 0.44603 0.04632 0.94373 0.0
C714 C 0.41666 0.0581 0.91902 0.0
C715 C 0.46931 0.01379 0.9902 0.0
C716 C 0.48374 0.02662 0.02501 0.0
C717 C 0.48269 0.99101 0.98562 0.0
C718 C 0.46956 0.97707 0.94881 0.0
C719 C 0.47239 0.98601 0.9111 0.0
C720 C 0.45983 0.9728 0.87653 0.0
C721 C 0.44462 0.95056 0.87932 0.0
C722 C 0.44205 0.94146 0.9167 0.0
C723 C 0.45454 0.95461 0.95136 0.0
H724 H 0.43492 0.94036 0.85252 0.0
H725 H 0.5612 0.06853 0.18748 0.0
H726 H 0.34974 0.98879 0.40062 0.0
H727 H 0.40473 0.01303 0.42942 0.0
H728 H 0.46467 0.9513 0.47968 0.0
H729 H 0.41139 0.92723 0.45008 0.0
H730 H 0.44087 0.02085 0.50434 0.0
H731 H 0.55437 0.95302 0.47665 0.0
H732 H 0.56098 0.92373 0.42545 0.0
H733 H 0.48162 0.96156 0.33782 0.0
H734 H 0.47506 0.99124 0.388 0.0
H735 H 0.61101 0.04557 0.63851 0.0
H736 H 0.5553 0.02539 0.60023 0.0
H737 H 0.59846 0.03517 0.49191 0.0
H738 H 0.65508 0.05331 0.53071 0.0
H739 H 0.56838 0.99681 0.48645 0.0
H740 H 0.5279 0.07162 0.52352 0.0
H741 H 0.51981 0.10337 0.56996 0.0
H742 H 0.45199 0.05843 0.62771 0.0
H743 H 0.46027 0.02628 0.58214 0.0
C744 C 0.3749 0.98049 0.41745 0.0
C745 C 0.37649 0.95613 0.42257 0.0
C746 C 0.40611 0.9943 0.43397 0.0
C747 C 0.43895 0.98386 0.45597 0.0
C748 C 0.44001 0.95964 0.46186 0.0
C749 C 0.4094 0.9459 0.44491 0.0
C750 C 0.47251 0.99784 0.47346 0.0
C751 C 0.46879 0.01581 0.50027 0.0
C752 C 0.50874 0.99163 0.46714 0.0
C753 C 0.51393 0.97427 0.43628 0.0
C754 C 0.53857 0.9552 0.44634 0.0
C755 C 0.54224 0.93847 0.41747 0.0
C756 C 0.52148 0.94066 0.37842 0.0
C757 C 0.49748 0.95975 0.36803 0.0
C758 C 0.49378 0.97654 0.39668 0.0
C759 C 0.60874 0.04269 0.60672 0.0
C760 C 0.63706 0.05052 0.58732 0.0
C761 C 0.5768 0.0316 0.58476 0.0
C762 C 0.57217 0.02933 0.54296 0.0
C763 C 0.60126 0.03668 0.52403 0.0
C764 C 0.63361 0.04698 0.54614 0.0
C765 C 0.53712 0.01946 0.51859 0.0
C766 C 0.54057 1.00219 0.49035 0.0
C767 C 0.50067 0.02698 0.52263 0.0
C768 C 0.49497 0.04647 0.54957 0.0
C769 C 0.51141 0.06848 0.54624 0.0
C770 C 0.50681 0.08654 0.57243 0.0
C771 C 0.48547 0.08291 0.60181 0.0
C772 C 0.46856 0.06122 0.60497 0.0
C773 C 0.47318 0.04307 0.57895 0.0
H774 H 0.482 0.09691 0.6221 0.0
H775 H 0.52406 0.9276 0.35618 0.0
H776 H 0.07923 0.38562 0.12009 0.0
H777 H 0.02747 0.38448 0.15645 0.0
H778 H 0.10759 0.37452 0.26739 0.0
H779 H 0.15927 0.37463 0.23094 0.0
H780 H 0.04884 0.35006 0.27033 0.0
H781 H 0.06939 0.42814 0.23495 0.0
H782 H 0.077 0.46148 0.19155 0.0
H783 H 0.96234 0.45361 0.12861 0.0
H784 H 0.9543 0.41971 0.17083 0.0
H785 H 0.92004 0.39918 0.3897 0.0
H786 H 0.97399 0.39545 0.3563 0.0
H787 H 0.89895 0.37364 0.24788 0.0
H788 H 0.84513 0.37664 0.28113 0.0
H789 H 0.95634 0.41516 0.2472 0.0
H790 H 0.9418 0.33351 0.28466 0.0
H791 H 0.93778 0.30262 0.33405 0.0
H792 H 0.04676 0.32226 0.40151 0.0
H793 H 0.05114 0.35352 0.35278 0.0
C794 C 0.08573 0.3828 0.15214 0.0
C795 C 0.12331 0.38023 0.17266 0.0
C796 C 0.05615 0.38233 0.17296 0.0
C797 C 0.06364 0.37995 0.21484 0.0
C798 C 0.10104 0.37643 0.23514 0.0
C799 C 0.13058 0.37645 0.21423 0.0
C800 C 0.03269 0.38194 0.23757 0.0
C801 C 0.02892 0.36445 0.26543 0.0
C802 C 0.00667 0.4008 0.23154 0.0
C803 C 0.01134 0.4212 0.20593 0.0
C804 C 0.04587 0.43334 0.21163 0.0
C805 C 0.05027 0.45235 0.18725 0.0
C806 C 0.02015 0.45969 0.15748 0.0
C807 C 0.98563 0.44791 0.15176 0.0
C808 C 0.98116 0.42875 0.17587 0.0
C809 C 0.91513 0.39327 0.35893 0.0
C810 C 0.87838 0.38798 0.33817 0.0
C811 C 0.9459 0.39122 0.33992 0.0
C812 C 0.94026 0.38431 0.29971 0.0
C813 C 0.90374 0.37898 0.27896 0.0
C814 C 0.87311 0.38054 0.29812 0.0
C815 C 0.97233 0.38307 0.27886 0.0
C816 C 0.97639 0.40082 0.25172 0.0
C817 C 0.99915 0.36486 0.28626 0.0
C818 C 0.99658 0.34601 0.31537 0.0
C819 C 0.96472 0.3314 0.31025 0.0
C820 C 0.96242 0.31379 0.33807 0.0
C821 C 0.99194 0.31053 0.37097 0.0
C822 C 0.02388 0.32483 0.37606 0.0
C823 C 0.02629 0.34248 0.34834 0.0
H824 H 0.99012 0.29688 0.39247 0.0
H825 H 0.02358 0.47454 0.13893 0.0
H826 H 0.15009 0.6174 0.7399 0.0
H827 H 0.09183 0.61844 0.76536 0.0
H828 H 0.03063 0.64168 0.65034 0.0
H829 H 0.08918 0.64039 0.62403 0.0
H830 H 0.01252 0.66596 0.7203 0.0
H831 H 0.0162 0.58856 0.66767 0.0
H832 H 0.04528 0.55078 0.65671 0.0
H833 H 0.06884 0.5376 0.78315 0.0
H834 H 0.03981 0.57531 0.79494 0.0
H835 H 0.83641 0.64141 0.78066 0.0
H836 H 0.88734 0.64414 0.74315 0.0
H837 H 0.96361 0.61076 0.84049 0.0
H838 H 0.91296 0.60783 0.87799 0.0
H839 H 0.96889 0.59143 0.77006 0.0
H840 H 0.96761 0.66975 0.82271 0.0
H841 H 0.93855 0.70755 0.83365 0.0
H842 H 0.91097 0.71935 0.7068 0.0
H843 H 0.93945 0.68146 0.69508 0.0
C844 C 0.12446 0.62307 0.71995 0.0
C845 C 0.12446 0.62887 0.67982 0.0
C846 C 0.09108 0.6235 0.73459 0.0
C847 C 0.05686 0.62989 0.70965 0.0
C848 C 0.05678 0.63664 0.67003 0.0
C849 C 0.09027 0.63595 0.65511 0.0
C850 C 0.02139 0.62882 0.72532 0.0
C851 C 0.00245 0.64963 0.73049 0.0
C852 C 0.00866 0.60755 0.7391 0.0
C853 C 0.02613 0.58486 0.73221 0.0
C854 C 0.02784 0.5777 0.69317 0.0
C855 C 0.04428 0.55629 0.6868 0.0
C856 C 0.05912 0.54188 0.7192 0.0
C857 C 0.05738 0.5488 0.75807 0.0
C858 C 0.04082 0.57015 0.76461 0.0
C859 C 0.86414 0.6349 0.79432 0.0
C860 C 0.87053 0.62444 0.83247 0.0
C861 C 0.89324 0.63647 0.77278 0.0
C862 C 0.92941 0.62773 0.78901 0.0
C863 C 0.93594 0.61755 0.82724 0.0
C864 C 0.90692 0.61597 0.84875 0.0
C865 C 0.96042 0.62869 0.7661 0.0
C866 C 0.97855 0.60778 0.7595 0.0
C867 C 0.9723 0.64988 0.75099 0.0
C868 C 0.95526 0.67266 0.75801 0.0
C869 C 0.95506 0.68032 0.79714 0.0
C870 C 0.93875 0.70178 0.80348 0.0
C871 C 0.92281 0.71581 0.77094 0.0
C872 C 0.92326 0.70844 0.73198 0.0
C873 C 0.9395 0.68699 0.72547 0.0
H874 H 0.91021 0.73242 0.77591 0.0
H875 H 0.07183 0.52531 0.71416 0.0
H876 H 0.41081 0.89509 0.37898 0.0
H877 H 0.46562 0.8932 0.34658 0.0
H878 H 0.40491 0.84621 0.25764 0.0
H879 H 0.34939 0.84898 0.2888 0.0
H880 H 0.48712 0.83509 0.29251 0.0
H881 H 0.40246 0.89242 0.22729 0.0
H882 H 0.36055 0.92672 0.2191 0.0
H883 H 0.45493 0.9711 0.26512 0.0
H884 H 0.49726 0.93688 0.27551 0.0
H885 H 0.60281 0.85697 0.14246 0.0
H886 H 0.54672 0.85259 0.17262 0.0
H887 H 0.59825 0.89674 0.27081 0.0
H888 H 0.65449 0.90061 0.24181 0.0
H889 H 0.51748 0.90775 0.22601 0.0
H890 H 0.59992 0.84681 0.29543 0.0
H891 H 0.6394 0.81155 0.29714 0.0
H892 H 0.54438 0.77346 0.23189 0.0
H893 H 0.50448 0.80864 0.22929 0.0
C894 C 0.40957 0.88389 0.35315 0.0
C895 C 0.37612 0.87199 0.33653 0.0
C896 C 0.4407 0.88298 0.3345 0.0
C897 C 0.43911 0.86968 0.29961 0.0
C898 C 0.40661 0.85655 0.28454 0.0
C899 C 0.37506 0.85807 0.30239 0.0
C900 C 0.47052 0.87064 0.2776 0.0
C901 C 0.49352 0.8509 0.27764 0.0
C902 C 0.47859 0.89126 0.25793 0.0
C903 C 0.45299 0.91189 0.25318 0.0
C904 C 0.41421 0.90936 0.23676 0.0
C905 C 0.39036 0.92883 0.23156 0.0
C906 C 0.40502 0.95105 0.24191 0.0
C907 C 0.44357 0.95384 0.25745 0.0
C908 C 0.46749 0.93438 0.26319 0.0
C909 C 0.60226 0.86552 0.17066 0.0
C910 C 0.63322 0.87891 0.18995 0.0
C911 C 0.57026 0.86305 0.18778 0.0
C912 C 0.56845 0.87438 0.22388 0.0
C913 C 0.59915 0.88786 0.24296 0.0
C914 C 0.63137 0.88989 0.22644 0.0
C915 C 0.53452 0.87244 0.2419 0.0
C916 C 0.51096 0.89199 0.24095 0.0
C917 C 0.52547 0.85156 0.26 0.0
C918 C 0.54937 0.83042 0.26172 0.0
C919 C 0.58756 0.83099 0.28108 0.0
C920 C 0.60998 0.811 0.2823 0.0
C921 C 0.59444 0.79029 0.26451 0.0
C922 C 0.5564 0.78952 0.24558 0.0
C923 C 0.53387 0.80947 0.24424 0.0
H924 H 0.61185 0.77484 0.26549 0.0
H925 H 0.38658 0.96613 0.23761 0.0
H926 H 0.59417 0.12994 0.62545 0.0
H927 H 0.53778 0.13384 0.65439 0.0
H928 H 0.60809 0.14321 0.77147 0.0
H929 H 0.66445 0.13875 0.74296 0.0
H930 H 0.55569 0.11118 0.77337 0.0
H931 H 0.55672 0.1891 0.71898 0.0
H932 H 0.55789 0.21791 0.66544 0.0
H933 H 0.45453 0.18973 0.59767 0.0
H934 H 0.453 0.16057 0.6506 0.0
H935 H 0.41121 0.13768 0.87781 0.0
H936 H 0.46681 0.14223 0.84773 0.0
H937 H 0.39736 0.13291 0.73026 0.0
H938 H 0.34166 0.12872 0.75988 0.0
H939 H 0.44911 0.1658 0.72836 0.0
H940 H 0.44722 0.08796 0.77844 0.0
H941 H 0.44591 0.0564 0.82738 0.0
H942 H 0.54976 0.08153 0.89881 0.0
H943 H 0.55135 0.11353 0.85069 0.0
C944 C 0.59761 0.13328 0.65723 0.0
C945 C 0.63379 0.13408 0.6819 0.0
C946 C 0.56534 0.13553 0.67375 0.0
C947 C 0.5687 0.13899 0.7151 0.0
C948 C 0.60481 0.14052 0.73951 0.0
C949 C 0.63701 0.13804 0.72313 0.0
C950 C 0.53479 0.13952 0.7335 0.0
C951 C 0.53271 0.12344 0.76406 0.0
C952 C 0.50417 0.15489 0.72027 0.0
C953 C 0.5049 0.17256 0.68863 0.0
C954 C 0.53436 0.18897 0.69255 0.0
C955 C 0.53507 0.20537 0.66233 0.0
C956 C 0.50634 0.20562 0.62815 0.0
C957 C 0.47678 0.18951 0.62416 0.0
C958 C 0.47595 0.17307 0.65428 0.0
C959 C 0.40765 0.13699 0.84553 0.0
C960 C 0.37198 0.13274 0.82129 0.0
C961 C 0.4395 0.13944 0.82841 0.0
C962 C 0.4363 0.13754 0.78679 0.0
C963 C 0.4005 0.13439 0.76243 0.0
C964 C 0.36868 0.13197 0.77948 0.0
C965 C 0.47037 0.13772 0.76871 0.0
C966 C 0.47233 0.15376 0.73802 0.0
C967 C 0.50075 0.12209 0.78144 0.0
C968 C 0.4992 0.10331 0.81113 0.0
C969 C 0.46953 0.08695 0.80484 0.0
C970 C 0.46879 0.06894 0.83237 0.0
C971 C 0.49776 0.06695 0.86612 0.0
C972 C 0.52735 0.08309 0.87263 0.0
C973 C 0.52818 0.10118 0.84525 0.0
H974 H 0.49743 0.05281 0.88709 0.0
H975 H 0.50695 0.21833 0.60478 0.0
H976 H 0.29021 0.4462 0.03211 0.0
H977 H 0.29219 0.4695 0.97251 0.0
H978 H 0.18393 0.44161 0.9152 0.0
H979 H 0.1824 0.41776 0.97467 0.0
H980 H 0.2282 0.45005 0.86116 0.0
H981 H 0.19127 0.49189 0.96965 0.0
H982 H 0.19816 0.50693 0.03831 0.0
H983 H 0.29871 0.54372 0.02617 0.0
H984 H 0.29259 0.52874 0.95737 0.0
H985 H 0.17121 0.54071 0.72458 0.0
H986 H 0.17368 0.51443 0.78139 0.0
H987 H 0.28015 0.54465 0.8389 0.0
H988 H 0.27719 0.57161 0.78226 0.0
H989 H 0.23784 0.53478 0.8926 0.0
H990 H 0.27625 0.49313 0.78553 0.0
H991 H 0.26995 0.47887 0.71629 0.0
H992 H 0.16875 0.44197 0.7261 0.0
H993 H 0.17417 0.4563 0.79525 0.0
C994 C 0.26758 0.44435 0.00614 0.0
C995 C 0.23623 0.43017 0.00782 0.0
C996 C 0.26849 0.45787 0.97231 0.0
C997 C 0.23764 0.45787 0.93994 0.0
C998 C 0.20787 0.44206 0.94003 0.0
C999 C 0.20717 0.42825 0.97382 0.0
C1000 C 0.23493 0.47581 0.90797 0.0
C1001 C 0.22992 0.46857 0.86799 0.0
C1002 C 0.23791 0.50003 0.91695 0.0
C1003 C 0.24158 0.50904 0.95837 0.0
C1004 C 0.21492 0.5031 0.9816 0.0
C1005 C 0.21869 0.51162 0.02059 0.0
C1006 C 0.24889 0.52622 0.03666 0.0
C1007 C 0.27534 0.53239 0.01371 0.0
C1008 C 0.27171 0.5239 0.97468 0.0
C1009 C 0.19489 0.54199 0.74963 0.0
C1010 C 0.22422 0.55803 0.74892 0.0
C1011 C 0.19639 0.52685 0.78195 0.0
C1012 C 0.22765 0.52706 0.81387 0.0
C1013 C 0.25592 0.54402 0.81439 0.0
C1014 C 0.25417 0.55947 0.78216 0.0
C1015 C 0.2313 0.50903 0.8458 0.0
C1016 C 0.23632 0.51625 0.88577 0.0
C1017 C 0.22853 0.48482 0.83685 0.0
C1018 C 0.22546 0.47594 0.79545 0.0
C1019 C 0.25253 0.48209 0.77284 0.0
C1020 C 0.24913 0.47398 0.73362 0.0
C1021 C 0.21892 0.45956 0.71678 0.0
C1022 C 0.19212 0.45316 0.73917 0.0
C1023 C 0.19536 0.46125 0.77839 0.0
H1024 H 0.21633 0.45331 0.68641 0.0
H1025 H 0.25174 0.53279 0.06687 0.0
H1026 H 0.78208 0.41835 0.52774 0.0
H1027 H 0.78451 0.44008 0.59053 0.0
H1028 H 0.74454 0.50193 0.52316 0.0
H1029 H 0.74092 0.48061 0.46103 0.0
H1030 H 0.81332 0.50758 0.58614 0.0
H1031 H 0.68469 0.47682 0.56126 0.0
H1032 H 0.63792 0.4449 0.55002 0.0
H1033 H 0.68965 0.41391 0.66234 0.0
H1034 H 0.73707 0.44551 0.67396 0.0
H1035 H 0.76355 0.58871 0.72463 0.0
H1036 H 0.76705 0.56351 0.66732 0.0
H1037 H 0.77059 0.50263 0.74278 0.0
H1038 H 0.76526 0.52754 0.79916 0.0
H1039 H 0.72526 0.49397 0.6782 0.0
H1040 H 0.85038 0.52473 0.70836 0.0
H1041 H 0.89855 0.55577 0.72257 0.0
H1042 H 0.85945 0.58448 0.60528 0.0
H1043 H 0.81069 0.5538 0.59054 0.0
C1044 C 0.77325 0.43646 0.52637 0.0
C1045 C 0.76134 0.44766 0.48923 0.0
C1046 C 0.77491 0.44887 0.56219 0.0
C1047 C 0.7652 0.47268 0.56129 0.0
C1048 C 0.75257 0.48367 0.52443 0.0
C1049 C 0.75026 0.47129 0.48889 0.0
C1050 C 0.7677 0.48643 0.59849 0.0
C1051 C 0.79409 0.50471 0.60635 0.0
C1052 C 0.74323 0.48225 0.62518 0.0
C1053 C 0.71468 0.46334 0.61822 0.0
C1054 C 0.68631 0.46307 0.58336 0.0
C1055 C 0.65963 0.44507 0.57697 0.0
C1056 C 0.66089 0.42734 0.60538 0.0
C1057 C 0.68876 0.42762 0.64031 0.0
C1058 C 0.71552 0.44557 0.64682 0.0
C1059 C 0.7652 0.56996 0.72886 0.0
C1060 C 0.76381 0.56009 0.76623 0.0
C1061 C 0.76744 0.55555 0.6962 0.0
C1062 C 0.76947 0.53108 0.70072 0.0
C1063 C 0.76882 0.52137 0.73833 0.0
C1064 C 0.7658 0.53567 0.77058 0.0
C1065 C 0.77085 0.51543 0.66617 0.0
C1066 C 0.74506 0.49678 0.6586 0.0
C1067 C 0.79648 0.51902 0.64026 0.0
C1068 C 0.82657 0.53709 0.6485 0.0
C1069 C 0.85191 0.53773 0.68566 0.0
C1070 C 0.8793 0.55528 0.69384 0.0
C1071 C 0.88185 0.5722 0.66497 0.0
C1072 C 0.85729 0.57144 0.6277 0.0
C1073 C 0.82982 0.55394 0.61938 0.0
H1074 H 0.90307 0.58576 0.67137 0.0
H1075 H 0.64021 0.41343 0.60039 0.0
H1076 H 0.70078 0.45239 0.2395 0.0
H1077 H 0.70299 0.47929 0.18438 0.0
H1078 H 0.82266 0.46705 0.19795 0.0
H1079 H 0.82038 0.43958 0.25313 0.0
H1080 H 0.79824 0.51635 0.19919 0.0
H1081 H 0.77101 0.44662 0.11758 0.0
H1082 H 0.73468 0.41066 0.09698 0.0
H1083 H 0.63279 0.45088 0.06503 0.0
H1084 H 0.66849 0.48706 0.08572 0.0
H1085 H 0.82044 0.58313 0.02917 0.0
H1086 H 0.8196 0.55876 0.0875 0.0
H1087 H 0.70064 0.5456 0.04507 0.0
H1088 H 0.70232 0.56888 0.9854 0.0
H1089 H 0.72772 0.50749 0.05957 0.0
H1090 H 0.74777 0.57629 0.14096 0.0
H1091 H 0.77768 0.61337 0.16708 0.0
H1092 H 0.8836 0.57811 0.20561 0.0
H1093 H 0.85443 0.54086 0.17927 0.0
C1094 C 0.72739 0.45498 0.23004 0.0
C1095 C 0.76038 0.44382 0.25025 0.0
C1096 C 0.72864 0.47041 0.19868 0.0
C1097 C 0.76301 0.47524 0.18725 0.0
C1098 C 0.79588 0.46353 0.20644 0.0
C1099 C 0.7945 0.44769 0.23752 0.0
C1100 C 0.76442 0.49342 0.15656 0.0
C1101 C 0.78339 0.51441 0.1684 0.0
C1102 C 0.74362 0.49117 0.11706 0.0
C1103 C 0.7224 0.46952 0.10331 0.0
C1104 C 0.74084 0.44778 0.10622 0.0
C1105 C 0.72037 0.42737 0.09452 0.0
C1106 C 0.68145 0.42849 0.07973 0.0
C1107 C 0.66295 0.45004 0.07641 0.0
C1108 C 0.6833 0.47051 0.08802 0.0
C1109 C 0.79382 0.57578 0.03321 0.0
C1110 C 0.76136 0.57802 1.00307 0.0
C1111 C 0.79334 0.56162 0.06657 0.0
C1112 C 0.76019 0.54982 0.07091 0.0
C1113 C 0.72688 0.554 0.0424 0.0
C1114 C 0.72761 0.56763 0.00855 0.0
C1115 C 0.76108 0.53116 0.10195 0.0
C1116 C 0.74263 0.50984 0.09022 0.0
C1117 C 0.78137 0.53348 0.14198 0.0
C1118 C 0.79896 0.55583 0.1579 0.0
C1119 C 0.77749 0.57648 0.1548 0.0
C1120 C 0.79431 0.59752 0.16967 0.0
C1121 C 0.83253 0.5981 0.18793 0.0
C1122 C 0.854 0.57763 0.19144 0.0
C1123 C 0.83733 0.55655 0.17661 0.0
H1124 H 0.8455 0.61441 0.19941 0.0
H1125 H 0.66563 0.41265 0.07081 0.0
H1126 H 0.2096 0.41793 0.27849 0.0
H1127 H 0.20723 0.44182 0.33784 0.0
H1128 H 0.23697 0.50287 0.27668 0.0
H1129 H 0.24013 0.47936 0.21833 0.0
H1130 H 0.27842 0.50141 0.34801 0.0
H1131 H 0.1454 0.49383 0.29175 0.0
H1132 H 0.08651 0.47223 0.26638 0.0
H1133 H 0.09587 0.43796 0.37992 0.0
H1134 H 0.15488 0.45947 0.40606 0.0
H1135 H 0.17272 0.57753 0.48143 0.0
H1136 H 0.17339 0.55321 0.42266 0.0
H1137 H 0.27601 0.52013 0.48397 0.0
H1138 H 0.27607 0.54465 0.54241 0.0
H1139 H 0.1679 0.50701 0.41339 0.0
H1140 H 0.32873 0.5037 0.41763 0.0
H1141 H 0.38513 0.52851 0.43807 0.0
H1142 H 0.31575 0.58998 0.41937 0.0
H1143 H 0.25904 0.56557 0.39833 0.0
C1144 C 0.21554 0.43645 0.27778 0.0
C1145 C 0.22546 0.44664 0.24378 0.0
C1146 C 0.21403 0.45011 0.31163 0.0
C1147 C 0.22197 0.47419 0.31177 0.0
C1148 C 0.23109 0.48433 0.27753 0.0
C1149 C 0.23284 0.47078 0.24406 0.0
C1150 C 0.22201 0.48904 0.3476 0.0
C1151 C 0.25427 0.50253 0.36238 0.0
C1152 C 0.1904 0.4908 0.36611 0.0
C1153 C 0.15479 0.47802 0.35067 0.0
C1154 C 0.13504 0.48156 0.31121 0.0
C1155 C 0.10164 0.46932 0.29669 0.0
C1156 C 0.08767 0.45349 0.32134 0.0
C1157 C 0.10685 0.4501 0.36077 0.0
C1158 C 0.14021 0.46237 0.3755 0.0
C1159 C 0.19583 0.56539 0.4822 0.0
C1160 C 0.22443 0.56316 0.51671 0.0
C1161 C 0.19594 0.55131 0.44867 0.0
C1162 C 0.22471 0.53481 0.44883 0.0
C1163 C 0.2537 0.53289 0.4829 0.0
C1164 C 0.25372 0.547 0.51634 0.0
C1165 C 0.22427 0.51944 0.41356 0.0
C1166 C 0.19208 0.50578 0.3991 0.0
C1167 C 0.25564 0.5179 0.39465 0.0
C1168 C 0.28962 0.53277 0.40683 0.0
C1169 C 0.32555 0.52251 0.41776 0.0
C1170 C 0.35756 0.53651 0.42947 0.0
C1171 C 0.35401 0.5608 0.43015 0.0
C1172 C 0.31845 0.57116 0.41898 0.0
C1173 C 0.28636 0.55725 0.40722 0.0
H1174 H 0.37883 0.5716 0.43925 0.0
H1175 H 0.06181 0.44402 0.31 0.0
H1176 H 0.6663 0.94682 1.0001 0.0
H1177 H 0.66979 0.97206 0.94325 0.0
H1178 H 0.79153 0.97071 0.97523 0.0
H1179 H 0.78802 0.94638 0.0334 0.0
H1180 H 0.77146 0.01274 0.9573 0.0
H1181 H 0.73615 0.93912 0.89181 0.0
H1182 H 0.6971 0.90379 0.87511 0.0
H1183 H 0.6004 0.94637 0.82879 0.0
H1184 H 0.63879 0.98197 0.84563 0.0
H1185 H 0.75456 0.0297 0.72589 0.0
H1186 H 0.754 0.00638 0.78531 0.0
H1187 H 0.73167 0.0683 0.84893 0.0
H1188 H 0.73391 0.09206 0.78933 0.0
H1189 H 0.70066 0.99678 0.81982 0.0
H1190 H 0.75626 0.06029 0.94787 0.0
H1191 H 0.80109 0.09304 0.96456 0.0
H1192 H 0.86779 0.06597 0.88403 0.0
H1193 H 0.82305 0.0332 0.86643 0.0
C1194 C 0.69384 0.95153 0.9946 0.0
C1195 C 0.72692 0.94438 0.02106 0.0
C1196 C 0.69583 0.96604 0.96202 0.0
C1197 C 0.73096 0.9732 0.95442 0.0
C1198 C 0.76405 0.96557 0.98035 0.0
C1199 C 0.76205 0.95147 0.01343 0.0
C1200 C 0.73333 0.98904 0.92012 0.0
C1201 C 0.75601 0.00917 0.92722 0.0
C1202 C 0.7133 0.98458 0.8807 0.0
C1203 C 0.69026 0.96319 0.8703 0.0
C1204 C 0.70651 0.94094 0.87827 0.0
C1205 C 0.6845 0.92087 0.86875 0.0
C1206 C 0.64628 0.92284 0.85098 0.0
C1207 C 0.63 0.94488 0.84258 0.0
C1208 C 0.65187 0.965 0.85206 0.0
C1209 C 0.74985 0.03845 0.75262 0.0
C1210 C 0.74405 0.06274 0.75282 0.0
C1211 C 0.74945 0.02504 0.78667 0.0
C1212 C 0.7427 0.03541 0.82187 0.0
C1213 C 0.73753 0.05981 0.82248 0.0
C1214 C 0.73865 0.07341 0.78837 0.0
C1215 C 0.7395 0.02022 0.85675 0.0
C1216 C 0.71623 1.00033 0.84986 0.0
C1217 C 0.75968 0.02461 0.8961 0.0
C1218 C 0.78615 0.04449 0.90556 0.0
C1219 C 0.78042 0.06141 0.93359 0.0
C1220 C 0.80573 0.07999 0.9431 0.0
C1221 C 0.8371 0.08167 0.92507 0.0
C1222 C 0.84321 0.06478 0.8975 0.0
C1223 C 0.81782 0.04626 0.88763 0.0
H1224 H 0.85678 0.09599 0.93261 0.0
H1225 H 0.62928 0.90728 0.84366 0.0
H1226 H 0.22508 0.08411 0.71712 0.0
H1227 H 0.22216 0.06142 0.65531 0.0
H1228 H 0.30596 0.01386 0.71848 0.0
H1229 H 0.30929 0.03631 0.77958 0.0
H1230 H 0.31954 0.02414 0.6455 0.0
H1231 H 0.21193 1.00084 0.70213 0.0
H1232 H 0.15323 0.00872 0.72631 0.0
H1233 H 0.10135 0.03551 0.61073 0.0
H1234 H 0.15997 0.02807 0.58603 0.0
H1235 H 0.30486 0.92396 0.52656 0.0
H1236 H 0.30117 0.94974 0.58271 0.0
H1237 H 0.21129 0.98851 0.50837 0.0
H1238 H 0.214 0.96244 0.45242 0.0
H1239 H 0.19893 0.9862 0.58205 0.0
H1240 H 0.30376 0.0071 0.5232 0.0
H1241 H 0.36222 1.00019 0.49816 0.0
H1242 H 0.41954 0.97989 0.61589 0.0
H1243 H 0.36121 0.98634 0.64158 0.0
C1244 C 0.24314 0.06897 0.71761 0.0
C1245 C 0.26714 0.06191 0.75336 0.0
C1246 C 0.24132 0.05595 0.68237 0.0
C1247 C 0.26357 0.03576 0.68238 0.0
C1248 C 0.28849 0.02931 0.71769 0.0
C1249 C 0.29018 0.04214 0.75272 0.0
C1250 C 0.2604 0.02064 0.64639 0.0
C1251 C 0.29322 0.01574 0.63177 0.0
C1252 C 0.22587 0.01012 0.62777 0.0
C1253 C 0.19043 0.01413 0.64237 0.0
C1254 C 0.18806 0.00853 0.68195 0.0
C1255 C 0.15481 0.01291 0.69574 0.0
C1256 C 0.12362 0.02267 0.67011 0.0
C1257 C 0.12556 0.02798 0.63057 0.0
C1258 C 0.15877 0.02368 0.61666 0.0
C1259 C 0.28377 0.93767 0.52232 0.0
C1260 C 0.26007 0.94125 0.48473 0.0
C1261 C 0.2819 0.95254 0.55441 0.0
C1262 C 0.25669 0.97152 0.54948 0.0
C1263 C 0.23123 0.97415 0.51285 0.0
C1264 C 0.23283 0.95916 0.48083 0.0
C1265 C 0.25831 0.98927 0.58173 0.0
C1266 C 0.22522 0.99472 0.59553 0.0
C1267 C 0.29259 1.00047 0.59943 0.0
C1268 C 0.32796 0.99698 0.58424 0.0
C1269 C 0.32875 1.00102 0.54372 0.0
C1270 C 0.36188 0.99718 0.5294 0.0
C1271 C 0.39452 0.98946 0.55536 0.0
C1272 C 0.39419 0.98578 0.59578 0.0
C1273 C 0.36111 0.98955 0.61025 0.0
H1274 H 0.42008 0.98637 0.54421 0.0
H1275 H 0.09792 0.02608 0.68085 0.0
H1276 H 0.31124 0.97219 0.28752 0.0
H1277 H 0.3133 0.99442 0.22751 0.0
H1278 H 0.25472 0.93893 0.15486 0.0
H1279 H 0.25135 0.91662 0.21561 0.0
H1280 H 0.34283 0.98978 0.16574 0.0
H1281 H 0.19853 0.96307 0.07155 0.0
H1282 H 0.13708 0.94783 0.08119 0.0
H1283 H 0.1542 0.9798 0.19731 0.0
H1284 H 0.21548 0.99548 0.18811 0.0
H1285 H 0.33033 0.0427 0.9775 0.0
H1286 H 0.3299 0.01519 0.03172 0.0
H1287 H 0.23343 0.05074 0.06083 0.0
H1288 H 0.23169 0.07688 1.00317 0.0
H1289 H 0.22351 0.00839 0.07089 0.0
H1290 H 0.3342 0.05626 0.11625 0.0
H1291 H 0.39477 0.07456 0.11073 0.0
H1292 H 0.44333 0.00688 0.10101 0.0
H1293 H 0.38305 0.98819 0.10641 0.0
C1294 C 0.29872 0.96456 0.25887 0.0
C1295 C 0.28048 0.94272 0.25653 0.0
C1296 C 0.30018 0.97732 0.22442 0.0
C1297 C 0.28367 0.9686 0.18656 0.0
C1298 C 0.26703 0.94626 0.18379 0.0
C1299 C 0.26529 0.93346 0.21851 0.0
C1300 C 0.28287 0.98359 0.15064 0.0
C1301 C 0.31674 0.99377 0.1449 0.0
C1302 C 0.24883 0.98917 0.12372 0.0
C1303 C 0.21175 0.98019 0.12929 0.0
C1304 C 0.18909 0.9669 0.09906 0.0
C1305 C 0.15431 0.95819 0.10446 0.0
C1306 C 0.14181 0.96278 0.1399 0.0
C1307 C 0.16398 0.97619 0.16994 0.0
C1308 C 0.19874 0.98498 0.16465 0.0
C1309 C 0.30911 0.04464 0.99556 0.0
C1310 C 0.28135 0.06203 0.98661 0.0
C1311 C 0.30906 0.02902 0.02692 0.0
C1312 C 0.28242 0.03117 0.05158 0.0
C1313 C 0.25451 0.04868 0.04257 0.0
C1314 C 0.25365 0.06377 0.00993 0.0
C1315 C 0.28344 0.01501 0.08625 0.0
C1316 C 0.24966 1.00444 0.09162 0.0
C1317 C 0.31746 0.00963 0.11363 0.0
C1318 C 0.35404 0.02085 0.11146 0.0
C1319 C 0.3578 0.0453 0.11291 0.0
C1320 C 0.39209 0.05573 0.10982 0.0
C1321 C 0.42288 0.0419 0.1055 0.0
C1322 C 0.41951 0.01759 0.10445 0.0
C1323 C 0.38532 0.00706 0.10762 0.0
H1324 H 0.44934 0.05004 0.103 0.0
H1325 H 0.11491 0.95598 0.14405 0.0
H1326 H 0.79502 0.05352 0.54807 0.0
H1327 H 0.79709 0.02757 0.49204 0.0
H1328 H 0.69281 0.05707 0.42712 0.0
H1329 H 0.68993 0.08275 0.4837 0.0
H1330 H 0.68877 0.01121 0.42504 0.0
H1331 H 0.78013 0.06741 0.40077 0.0
H1332 H 0.83709 0.09202 0.41757 0.0
H1333 H 0.90609 0.03078 0.44475 0.0
H1334 H 0.84944 0.0058 0.42863 0.0
H1335 H 0.6907 0.96942 0.23112 0.0
H1336 H 0.69281 0.99233 0.29164 0.0
H1337 H 0.78781 0.9518 0.35232 0.0
H1338 H 0.78583 0.92852 0.29121 0.0
H1339 H 0.79858 1.00046 0.35983 0.0
H1340 H 0.70592 0.94428 0.37703 0.0
H1341 H 0.64852 0.92055 0.35574 0.0
H1342 H 0.58073 0.98271 0.33952 0.0
H1343 H 0.63786 0.00692 0.35968 0.0
C1344 C 0.77283 0.05488 0.52162 0.0
C1345 C 0.74219 0.07022 0.52057 0.0
C1346 C 0.7741 0.03997 0.48949 0.0
C1347 C 0.74513 0.04032 0.45524 0.0
C1348 C 0.7154 0.05637 0.45331 0.0
C1349 C 0.71396 0.0712 0.48558 0.0
C1350 C 0.74481 0.02313 0.42243 0.0
C1351 C 0.71261 0.0091 0.41044 0.0
C1352 C 0.77638 0.01976 0.40424 0.0
C1353 C 0.81049 0.03475 0.41389 0.0
C1354 C 0.80741 0.0592 0.41065 0.0
C1355 C 0.83965 0.07321 0.41999 0.0
C1356 C 0.87517 0.06298 0.43233 0.0
C1357 C 0.87854 0.03869 0.43525 0.0
C1358 C 0.84639 0.0246 0.42598 0.0
C1359 C 0.7119 0.96519 0.25742 0.0
C1360 C 0.73823 0.94721 0.25639 0.0
C1361 C 0.71294 0.97826 0.29205 0.0
C1362 C 0.74034 0.97373 0.32651 0.0
C1363 C 0.76638 0.95553 0.32598 0.0
C1364 C 0.7651 0.94218 0.29124 0.0
C1365 C 0.74241 0.98888 0.36217 0.0
C1366 C 0.7749 1.0025 0.3747 0.0
C1367 C 0.71098 0.99198 0.38063 0.0
C1368 C 0.67634 0.97746 0.36948 0.0
C1369 C 0.67884 0.95294 0.36861 0.0
C1370 C 0.64634 0.93939 0.35674 0.0
C1371 C 0.61106 0.95013 0.34607 0.0
C1372 C 0.60813 0.97443 0.34763 0.0
C1373 C 0.64059 0.98808 0.35928 0.0
H1374 H 0.58601 0.93961 0.33656 0.0
H1375 H 0.9001 0.07386 0.43955 0.0
loop_
_geom_bond_atom_site_label_1
_geom_bond_atom_site_label_2
_geom_bond_distance
_geom_bond_site_symmetry_2
_ccdc_geom_bond_type
Fe0 O2 1.918 . S
Fe0 O5 1.997 . S
Fe0 O6 2.002 . S
Fe0 O11 1.976 . S
Fe0 O14 1.996 . S
Fe1 O2 1.918 . S
Fe1 O9 1.997 . S
Fe1 O12 1.996 . S
Fe1 O16 1.976 . S
Fe1 O19 2.002 . S
O2 Fe0 1.918 . S
O2 Fe1 1.918 . S
O2 Fe3 1.918 . S
Fe3 O2 1.918 . S
Fe3 O4 2.002 . S
Fe3 O13 1.976 . S
Fe3 O17 1.996 . S
Fe3 O20 1.997 . S
O4 Fe3 2.002 . S
O4 C21 1.295 . S
O5 Fe0 1.997 . S
O5 C21 1.235 . S
O6 Fe0 2.002 . S
O6 C7 1.295 . S
C7 O6 1.295 . S
C7 O9 1.235 . S
C8 O13 1.287 . S
C8 O14 1.255 . S
O9 Fe1 1.997 . S
O9 C7 1.235 . S
C10 O16 1.287 . S
C10 O17 1.255 . S
O11 Fe0 1.976 . S
O11 C18 1.287 . S
O12 Fe1 1.996 . S
O12 C18 1.255 . S
O13 Fe3 1.976 . S
O13 C8 1.287 . S
O14 Fe0 1.996 . S
O14 C8 1.255 . S
C15 O19 1.295 . S
C15 O20 1.235 . S
O16 Fe1 1.976 . S
O16 C10 1.287 . S
O17 Fe3 1.996 . S
O17 C10 1.255 . S
C18 O11 1.287 . S
C18 O12 1.255 . S
O19 Fe1 2.002 . S
O19 C15 1.295 . S
O20 Fe3 1.997 . S
O20 C15 1.235 . S
C21 O4 1.295 . S
C21 O5 1.235 . S
Fe22 O24 1.918 . S
Fe22 O27 1.997 . S
Fe22 O28 2.002 . S
Fe22 O33 1.976 . S
Fe22 O36 1.996 . S
Fe23 O24 1.918 . S
Fe23 O31 1.997 . S
Fe23 O34 1.996 . S
Fe23 O38 1.976 . S
Fe23 O41 2.002 . S
O24 Fe22 1.918 . S
O24 Fe23 1.918 . S
O24 Fe25 1.918 . S
Fe25 O24 1.918 . S
Fe25 O26 2.002 . S
Fe25 O35 1.976 . S
Fe25 O39 1.996 . S
Fe25 O42 1.997 . S
O26 Fe25 2.002 . S
O26 C43 1.295 . S
O27 Fe22 1.997 . S
O27 C43 1.235 . S
O28 Fe22 2.002 . S
O28 C29 1.295 . S
C29 O28 1.295 . S
C29 O31 1.235 . S
C30 O35 1.287 . S
C30 O36 1.255 . S
O31 Fe23 1.997 . S
O31 C29 1.235 . S
C32 O38 1.287 . S
C32 O39 1.255 . S
O33 Fe22 1.976 . S
O33 C40 1.287 . S
O34 Fe23 1.996 . S
O34 C40 1.255 . S
O35 Fe25 1.976 . S
O35 C30 1.287 . S
O36 Fe22 1.996 . S
O36 C30 1.255 . S
C37 O41 1.295 . S
C37 O42 1.235 . S
O38 Fe23 1.976 . S
O38 C32 1.287 . S
O39 Fe25 1.996 . S
O39 C32 1.255 . S
C40 O33 1.287 . S
C40 O34 1.255 . S
O41 Fe23 2.002 . S
O41 C37 1.295 . S
O42 Fe25 1.997 . S
O42 C37 1.235 . S
C43 O26 1.295 . S
C43 O27 1.235 . S
Fe44 O46 1.918 . S
Fe44 O49 1.997 . S
Fe44 O50 2.002 . S
Fe44 O55 1.976 . S
Fe44 O58 1.996 . S
Fe45 O46 1.918 . S
Fe45 O53 1.997 . S
Fe45 O56 1.996 . S
Fe45 O60 1.976 . S
Fe45 O63 2.002 . S
O46 Fe44 1.918 . S
O46 Fe45 1.918 . S
O46 Fe47 1.918 . S
Fe47 O46 1.918 . S
Fe47 O48 2.002 . S
Fe47 O57 1.976 . S
Fe47 O61 1.996 . S
Fe47 O64 1.997 . S
O48 Fe47 2.002 . S
O48 C65 1.295 . S
O49 Fe44 1.997 . S
O49 C65 1.235 . S
O50 Fe44 2.002 . S
O50 C51 1.295 . S
C51 O50 1.295 . S
C51 O53 1.235 . S
C52 O57 1.287 . S
C52 O58 1.255 . S
O53 Fe45 1.997 . S
O53 C51 1.235 . S
C54 O60 1.287 . S
C54 O61 1.255 . S
O55 Fe44 1.976 . S
O55 C62 1.287 . S
O56 Fe45 1.996 . S
O56 C62 1.255 . S
O57 Fe47 1.976 . S
O57 C52 1.287 . S
O58 Fe44 1.996 . S
O58 C52 1.255 . S
C59 O63 1.295 . S
C59 O64 1.235 . S
O60 Fe45 1.976 . S
O60 C54 1.287 . S
O61 Fe47 1.996 . S
O61 C54 1.255 . S
C62 O55 1.287 . S
C62 O56 1.255 . S
O63 Fe45 2.002 . S
O63 C59 1.295 . S
O64 Fe47 1.997 . S
O64 C59 1.235 . S
C65 O48 1.295 . S
C65 O49 1.235 . S
Fe66 O68 1.918 . S
Fe66 O71 1.997 . S
Fe66 O72 2.002 . S
Fe66 O77 1.976 . S
Fe66 O80 1.996 . S
Fe67 O68 1.918 . S
Fe67 O75 1.997 . S
Fe67 O78 1.996 . S
Fe67 O82 1.976 . S
Fe67 O85 2.002 . S
O68 Fe66 1.918 . S
O68 Fe67 1.918 . S
O68 Fe69 1.918 . S
Fe69 O68 1.918 . S
Fe69 O70 2.002 . S
Fe69 O79 1.976 . S
Fe69 O83 1.996 . S
Fe69 O86 1.997 . S
O70 Fe69 2.002 . S
O70 C87 1.295 . S
O71 Fe66 1.997 . S
O71 C87 1.235 . S
O72 Fe66 2.002 . S
O72 C73 1.295 . S
C73 O72 1.295 . S
C73 O75 1.235 . S
C74 O79 1.287 . S
C74 O80 1.255 . S
O75 Fe67 1.997 . S
O75 C73 1.235 . S
C76 O82 1.287 . S
C76 O83 1.255 . S
O77 Fe66 1.976 . S
O77 C84 1.287 . S
O78 Fe67 1.996 . S
O78 C84 1.255 . S
O79 Fe69 1.976 . S
O79 C74 1.287 . S
O80 Fe66 1.996 . S
O80 C74 1.255 . S
C81 O85 1.295 . S
C81 O86 1.235 . S
O82 Fe67 1.976 . S
O82 C76 1.287 . S
O83 Fe69 1.996 . S
O83 C76 1.255 . S
C84 O77 1.287 . S
C84 O78 1.255 . S
O85 Fe67 2.002 . S
O85 C81 1.295 . S
O86 Fe69 1.997 . S
O86 C81 1.235 . S
C87 O70 1.295 . S
C87 O71 1.235 . S
Fe88 O90 1.918 . S
Fe88 O93 1.997 . S
Fe88 O94 2.002 . S
Fe88 O99 1.976 . S
Fe88 O102 1.996 . S
Fe89 O90 1.918 . S
Fe89 O97 1.997 . S
Fe89 O100 1.996 . S
Fe89 O104 1.976 . S
Fe89 O107 2.002 . S
O90 Fe88 1.918 . S
O90 Fe89 1.918 . S
O90 Fe91 1.918 . S
Fe91 O90 1.918 . S
Fe91 O92 2.002 . S
Fe91 O101 1.976 . S
Fe91 O105 1.996 . S
Fe91 O108 1.997 . S
O92 Fe91 2.002 . S
O92 C109 1.295 . S
O93 Fe88 1.997 . S
O93 C109 1.235 . S
O94 Fe88 2.002 . S
O94 C95 1.295 . S
C95 O94 1.295 . S
C95 O97 1.235 . S
C96 O101 1.287 . S
C96 O102 1.255 . S
O97 Fe89 1.997 . S
O97 C95 1.235 . S
C98 O104 1.287 . S
C98 O105 1.255 . S
O99 Fe88 1.976 . S
O99 C106 1.287 . S
O100 Fe89 1.996 . S
O100 C106 1.255 . S
O101 Fe91 1.976 . S
O101 C96 1.287 . S
O102 Fe88 1.996 . S
O102 C96 1.255 . S
C103 O107 1.295 . S
C103 O108 1.235 . S
O104 Fe89 1.976 . S
O104 C98 1.287 . S
O105 Fe91 1.996 . S
O105 C98 1.255 . S
C106 O99 1.287 . S
C106 O100 1.255 . S
O107 Fe89 2.002 . S
O107 C103 1.295 . S
O108 Fe91 1.997 . S
O108 C103 1.235 . S
C109 O92 1.295 . S
C109 O93 1.235 . S
Fe110 O112 1.918 . S
Fe110 O115 1.997 . S
Fe110 O116 2.002 . S
Fe110 O121 1.976 . S
Fe110 O124 1.996 . S
Fe111 O112 1.918 . S
Fe111 O119 1.997 . S
Fe111 O122 1.996 . S
Fe111 O126 1.976 . S
Fe111 O129 2.002 . S
O112 Fe110 1.918 . S
O112 Fe111 1.918 . S
O112 Fe113 1.918 . S
Fe113 O112 1.918 . S
Fe113 O114 2.002 . S
Fe113 O123 1.976 . S
Fe113 O127 1.996 . S
Fe113 O130 1.997 . S
O114 Fe113 2.002 . S
O114 C131 1.295 . S
O115 Fe110 1.997 . S
O115 C131 1.235 . S
O116 Fe110 2.002 . S
O116 C117 1.295 . S
C117 O116 1.295 . S
C117 O119 1.235 . S
C118 O123 1.287 . S
C118 O124 1.255 . S
O119 Fe111 1.997 . S
O119 C117 1.235 . S
C120 O126 1.287 . S
C120 O127 1.255 . S
O121 Fe110 1.976 . S
O121 C128 1.287 . S
O122 Fe111 1.996 . S
O122 C128 1.255 . S
O123 Fe113 1.976 . S
O123 C118 1.287 . S
O124 Fe110 1.996 . S
O124 C118 1.255 . S
C125 O129 1.295 . S
C125 O130 1.235 . S
O126 Fe111 1.976 . S
O126 C120 1.287 . S
O127 Fe113 1.996 . S
O127 C120 1.255 . S
C128 O121 1.287 . S
C128 O122 1.255 . S
O129 Fe111 2.002 . S
O129 C125 1.295 . S
O130 Fe113 1.997 . S
O130 C125 1.235 . S
C131 O114 1.295 . S
C131 O115 1.235 . S
Fe132 O134 1.918 . S
Fe132 O137 1.997 . S
Fe132 O138 2.002 . S
Fe132 O143 1.976 . S
Fe132 O146 1.996 . S
Fe133 O134 1.918 . S
Fe133 O141 1.997 . S
Fe133 O144 1.996 . S
Fe133 O148 1.976 . S
Fe133 O151 2.002 . S
O134 Fe132 1.918 . S
O134 Fe133 1.918 . S
O134 Fe135 1.918 . S
Fe135 O134 1.918 . S
Fe135 O136 2.002 . S
Fe135 O145 1.976 . S
Fe135 O149 1.996 . S
Fe135 O152 1.997 . S
O136 Fe135 2.002 . S
O136 C153 1.295 . S
O137 Fe132 1.997 . S
O137 C153 1.235 . S
O138 Fe132 2.002 . S
O138 C139 1.295 . S
C139 O138 1.295 . S
C139 O141 1.235 . S
C140 O145 1.287 . S
C140 O146 1.255 . S
O141 Fe133 1.997 . S
O141 C139 1.235 . S
C142 O148 1.287 . S
C142 O149 1.255 . S
O143 Fe132 1.976 . S
O143 C150 1.287 . S
O144 Fe133 1.996 . S
O144 C150 1.255 . S
O145 Fe135 1.976 . S
O145 C140 1.287 . S
O146 Fe132 1.996 . S
O146 C140 1.255 . S
C147 O151 1.295 . S
C147 O152 1.235 . S
O148 Fe133 1.976 . S
O148 C142 1.287 . S
O149 Fe135 1.996 . S
O149 C142 1.255 . S
C150 O143 1.287 . S
C150 O144 1.255 . S
O151 Fe133 2.002 . S
O151 C147 1.295 . S
O152 Fe135 1.997 . S
O152 C147 1.235 . S
C153 O136 1.295 . S
C153 O137 1.235 . S
Fe154 O156 1.918 . S
Fe154 O159 1.997 . S
Fe154 O160 2.002 . S
Fe154 O165 1.976 . S
Fe154 O168 1.996 . S
Fe155 O156 1.918 . S
Fe155 O163 1.997 . S
Fe155 O166 1.996 . S
Fe155 O170 1.976 . S
Fe155 O173 2.002 . S
O156 Fe154 1.918 . S
O156 Fe155 1.918 . S
O156 Fe157 1.918 . S
Fe157 O156 1.918 . S
Fe157 O158 2.002 . S
Fe157 O167 1.976 . S
Fe157 O171 1.996 . S
Fe157 O174 1.997 . S
O158 Fe157 2.002 . S
O158 C175 1.295 . S
O159 Fe154 1.997 . S
O159 C175 1.235 . S
O160 Fe154 2.002 . S
O160 C161 1.295 . S
C161 O160 1.295 . S
C161 O163 1.235 . S
C162 O167 1.287 . S
C162 O168 1.255 . S
O163 Fe155 1.997 . S
O163 C161 1.235 . S
C164 O170 1.287 . S
C164 O171 1.255 . S
O165 Fe154 1.976 . S
O165 C172 1.287 . S
O166 Fe155 1.996 . S
O166 C172 1.255 . S
O167 Fe157 1.976 . S
O167 C162 1.287 . S
O168 Fe154 1.996 . S
O168 C162 1.255 . S
C169 O173 1.295 . S
C169 O174 1.235 . S
O170 Fe155 1.976 . S
O170 C164 1.287 . S
O171 Fe157 1.996 . S
O171 C164 1.255 . S
C172 O165 1.287 . S
C172 O166 1.255 . S
O173 Fe155 2.002 . S
O173 C169 1.295 . S
O174 Fe157 1.997 . S
O174 C169 1.235 . S
C175 O158 1.295 . S
C175 O159 1.235 . S
H176 C194 0.951 . S
H177 C196 0.951 . S
H178 C198 0.950 . S
H179 C199 0.950 . S
H180 C201 0.950 . S
H181 C204 0.950 . S
H182 C205 0.950 . S
H183 C207 0.950 . S
H184 C208 0.950 . S
H185 C209 0.951 . S
H186 C211 0.951 . S
H187 C213 0.950 . S
H188 C214 0.950 . S
H189 C216 0.950 . S
H190 C219 0.950 . S
H191 C220 0.950 . S
H192 C222 0.950 . S
H193 C223 0.950 . S
C194 H176 0.951 . S
C194 C195 1.366 . S
C194 C196 1.388 . S
C195 C194 1.366 . S
C195 C199 1.385 . S
C196 H177 0.951 . S
C196 C194 1.388 . S
C196 C197 1.366 . S
C197 C196 1.366 . S
C197 C198 1.414 . S
C197 C200 1.499 . S
C198 H178 0.950 . S
C198 C197 1.414 . S
C198 C199 1.374 . S
C199 H179 0.950 . S
C199 C195 1.385 . S
C199 C198 1.374 . S
C200 C197 1.499 . S
C200 C201 1.373 . S
C200 C202 1.389 . S
C201 H180 0.950 . S
C201 C200 1.373 . S
C201 C217 1.377 . S
C202 C200 1.389 . S
C202 C203 1.524 . S
C202 C216 1.377 . S
C203 C202 1.524 . S
C203 C204 1.397 . S
C203 C208 1.363 . S
C204 H181 0.950 . S
C204 C203 1.397 . S
C204 C205 1.334 . S
C205 H182 0.950 . S
C205 C204 1.334 . S
C205 C206 1.287 . S
C206 C205 1.287 . S
C206 C207 1.524 . S
C206 H225 0.913 . S
C207 H183 0.950 . S
C207 C206 1.524 . S
C207 C208 1.415 . S
C208 H184 0.950 . S
C208 C203 1.363 . S
C208 C207 1.415 . S
C209 H185 0.951 . S
C209 C210 1.366 . S
C209 C211 1.388 . S
C210 C209 1.366 . S
C210 C214 1.385 . S
C211 H186 0.951 . S
C211 C209 1.388 . S
C211 C212 1.366 . S
C212 C211 1.366 . S
C212 C213 1.414 . S
C212 C215 1.499 . S
C213 H187 0.950 . S
C213 C212 1.414 . S
C213 C214 1.374 . S
C214 H188 0.950 . S
C214 C210 1.385 . S
C214 C213 1.374 . S
C215 C212 1.499 . S
C215 C216 1.373 . S
C215 C217 1.389 . S
C216 H189 0.950 . S
C216 C202 1.377 . S
C216 C215 1.373 . S
C217 C201 1.377 . S
C217 C215 1.389 . S
C217 C218 1.524 . S
C218 C217 1.524 . S
C218 C219 1.397 . S
C218 C223 1.363 . S
C219 H190 0.950 . S
C219 C218 1.397 . S
C219 C220 1.334 . S
C220 H191 0.950 . S
C220 C219 1.334 . S
C220 C221 1.287 . S
C221 C220 1.287 . S
C221 C222 1.524 . S
C221 H224 0.999 . S
C222 H192 0.950 . S
C222 C221 1.524 . S
C222 C223 1.415 . S
C223 H193 0.950 . S
C223 C218 1.363 . S
C223 C222 1.415 . S
H224 C221 0.999 . S
H225 C206 0.913 . S
H226 C244 0.951 . S
H227 C246 0.951 . S
H228 C248 0.950 . S
H229 C249 0.950 . S
H230 C251 0.950 . S
H231 C254 0.950 . S
H232 C255 0.950 . S
H233 C257 0.950 . S
H234 C258 0.950 . S
H235 C259 0.951 . S
H236 C261 0.951 . S
H237 C263 0.950 . S
H238 C264 0.950 . S
H239 C266 0.950 . S
H240 C269 0.950 . S
H241 C270 0.950 . S
H242 C272 0.950 . S
H243 C273 0.950 . S
C244 H226 0.951 . S
C244 C245 1.366 . S
C244 C246 1.388 . S
C245 C244 1.366 . S
C245 C249 1.385 . S
C246 H227 0.951 . S
C246 C244 1.388 . S
C246 C247 1.366 . S
C247 C246 1.366 . S
C247 C248 1.414 . S
C247 C250 1.499 . S
C248 H228 0.950 . S
C248 C247 1.414 . S
C248 C249 1.374 . S
C249 H229 0.950 . S
C249 C245 1.385 . S
C249 C248 1.374 . S
C250 C247 1.499 . S
C250 C251 1.373 . S
C250 C252 1.389 . S
C251 H230 0.950 . S
C251 C250 1.373 . S
C251 C267 1.377 . S
C252 C250 1.389 . S
C252 C253 1.524 . S
C252 C266 1.377 . S
C253 C252 1.524 . S
C253 C254 1.397 . S
C253 C258 1.363 . S
C254 H231 0.950 . S
C254 C253 1.397 . S
C254 C255 1.334 . S
C255 H232 0.950 . S
C255 C254 1.334 . S
C255 C256 1.287 . S
C256 C255 1.287 . S
C256 C257 1.524 . S
C256 H275 0.913 . S
C257 H233 0.950 . S
C257 C256 1.524 . S
C257 C258 1.415 . S
C258 H234 0.950 . S
C258 C253 1.363 . S
C258 C257 1.415 . S
C259 H235 0.951 . S
C259 C260 1.366 . S
C259 C261 1.388 . S
C260 C259 1.366 . S
C260 C264 1.385 . S
C261 H236 0.951 . S
C261 C259 1.388 . S
C261 C262 1.366 . S
C262 C261 1.366 . S
C262 C263 1.414 . S
C262 C265 1.499 . S
C263 H237 0.950 . S
C263 C262 1.414 . S
C263 C264 1.374 . S
C264 H238 0.950 . S
C264 C260 1.385 . S
C264 C263 1.374 . S
C265 C262 1.499 . S
C265 C266 1.373 . S
C265 C267 1.389 . S
C266 H239 0.950 . S
C266 C252 1.377 . S
C266 C265 1.373 . S
C267 C251 1.377 . S
C267 C265 1.389 . S
C267 C268 1.524 . S
C268 C267 1.524 . S
C268 C269 1.397 . S
C268 C273 1.363 . S
C269 H240 0.950 . S
C269 C268 1.397 . S
C269 C270 1.334 . S
C270 H241 0.950 . S
C270 C269 1.334 . S
C270 C271 1.287 . S
C271 C270 1.287 . S
C271 C272 1.524 . S
C271 H274 0.999 . S
C272 H242 0.950 . S
C272 C271 1.524 . S
C272 C273 1.415 . S
C273 H243 0.950 . S
C273 C268 1.363 . S
C273 C272 1.415 . S
H274 C271 0.999 . S
H275 C256 0.913 . S
H276 C294 0.951 . S
H277 C296 0.951 . S
H278 C298 0.950 . S
H279 C299 0.950 . S
H280 C301 0.950 . S
H281 C304 0.950 . S
H282 C305 0.950 . S
H283 C307 0.950 1_655 S
H284 C308 0.950 . S
H285 C309 0.951 . S
H286 C311 0.951 . S
H287 C313 0.950 . S
H288 C314 0.950 . S
H289 C316 0.950 . S
H290 C319 0.950 . S
H291 C320 0.950 . S
H292 C322 0.950 1_455 S
H293 C323 0.950 . S
C294 H276 0.951 . S
C294 C295 1.366 . S
C294 C296 1.388 . S
C295 C294 1.366 . S
C295 C299 1.385 . S
C296 H277 0.951 . S
C296 C294 1.388 . S
C296 C297 1.366 . S
C297 C296 1.366 . S
C297 C298 1.414 . S
C297 C300 1.499 . S
C298 H278 0.950 . S
C298 C297 1.414 . S
C298 C299 1.374 . S
C299 H279 0.950 . S
C299 C295 1.385 . S
C299 C298 1.374 . S
C300 C297 1.499 . S
C300 C301 1.373 . S
C300 C302 1.389 . S
C301 H280 0.950 . S
C301 C300 1.373 . S
C301 C317 1.377 1_455 S
C302 C300 1.389 . S
C302 C303 1.524 . S
C302 C316 1.377 1_455 S
C303 C302 1.524 . S
C303 C304 1.397 . S
C303 C308 1.363 1_455 S
C304 H281 0.950 . S
C304 C303 1.397 . S
C304 C305 1.334 . S
C305 H282 0.950 . S
C305 C304 1.334 . S
C305 C306 1.287 . S
C306 C305 1.287 . S
C306 C307 1.524 . S
C306 H325 0.913 . S
C307 H283 0.950 1_455 S
C307 C306 1.524 . S
C307 C308 1.415 1_455 S
C308 H284 0.950 . S
C308 C303 1.363 1_655 S
C308 C307 1.415 1_655 S
C309 H285 0.951 . S
C309 C310 1.366 . S
C309 C311 1.388 . S
C310 C309 1.366 . S
C310 C314 1.385 . S
C311 H286 0.951 . S
C311 C309 1.388 . S
C311 C312 1.366 . S
C312 C311 1.366 . S
C312 C313 1.414 . S
C312 C315 1.499 . S
C313 H287 0.950 . S
C313 C312 1.414 . S
C313 C314 1.374 . S
C314 H288 0.950 . S
C314 C310 1.385 . S
C314 C313 1.374 . S
C315 C312 1.499 . S
C315 C316 1.373 . S
C315 C317 1.389 . S
C316 H289 0.950 . S
C316 C302 1.377 1_655 S
C316 C315 1.373 . S
C317 C301 1.377 1_655 S
C317 C315 1.389 . S
C317 C318 1.524 . S
C318 C317 1.524 . S
C318 C319 1.397 . S
C318 C323 1.363 1_655 S
C319 H290 0.950 . S
C319 C318 1.397 . S
C319 C320 1.334 . S
C320 H291 0.950 . S
C320 C319 1.334 . S
C320 C321 1.287 . S
C321 C320 1.287 . S
C321 C322 1.524 . S
C321 H324 0.999 . S
C322 H292 0.950 1_655 S
C322 C321 1.524 . S
C322 C323 1.415 1_655 S
C323 H293 0.950 . S
C323 C318 1.363 1_455 S
C323 C322 1.415 1_455 S
H324 C321 0.999 . S
H325 C306 0.913 . S
H326 C344 0.951 . S
H327 C346 0.951 . S
H328 C348 0.950 . S
H329 C349 0.950 . S
H330 C351 0.950 . S
H331 C354 0.950 . S
H332 C355 0.950 . S
H333 C357 0.950 . S
H334 C358 0.950 . S
H335 C359 0.951 . S
H336 C361 0.951 . S
H337 C363 0.950 . S
H338 C364 0.950 . S
H339 C366 0.950 . S
H340 C369 0.950 . S
H341 C370 0.950 . S
H342 C372 0.950 . S
H343 C373 0.950 . S
C344 H326 0.951 . S
C344 C345 1.366 . S
C344 C346 1.388 . S
C345 C344 1.366 . S
C345 C349 1.385 . S
C346 H327 0.951 . S
C346 C344 1.388 . S
C346 C347 1.366 . S
C347 C346 1.366 . S
C347 C348 1.414 . S
C347 C350 1.499 . S
C348 H328 0.950 . S
C348 C347 1.414 . S
C348 C349 1.374 . S
C349 H329 0.950 . S
C349 C345 1.385 . S
C349 C348 1.374 . S
C350 C347 1.499 . S
C350 C351 1.373 . S
C350 C352 1.389 . S
C351 H330 0.950 . S
C351 C350 1.373 . S
C351 C367 1.377 1_455 S
C352 C350 1.389 . S
C352 C353 1.524 . S
C352 C366 1.377 1_455 S
C353 C352 1.524 . S
C353 C354 1.397 . S
C353 C358 1.363 . S
C354 H331 0.950 . S
C354 C353 1.397 . S
C354 C355 1.334 . S
C355 H332 0.950 . S
C355 C354 1.334 . S
C355 C356 1.287 . S
C356 C355 1.287 . S
C356 C357 1.524 . S
C356 H375 0.913 . S
C357 H333 0.950 . S
C357 C356 1.524 . S
C357 C358 1.415 . S
C358 H334 0.950 . S
C358 C353 1.363 . S
C358 C357 1.415 . S
C359 H335 0.951 . S
C359 C360 1.366 . S
C359 C361 1.388 . S
C360 C359 1.366 . S
C360 C364 1.385 . S
C361 H336 0.951 . S
C361 C359 1.388 . S
C361 C362 1.366 . S
C362 C361 1.366 . S
C362 C363 1.414 . S
C362 C365 1.499 . S
C363 H337 0.950 . S
C363 C362 1.414 . S
C363 C364 1.374 . S
C364 H338 0.950 . S
C364 C360 1.385 . S
C364 C363 1.374 . S
C365 C362 1.499 . S
C365 C366 1.373 . S
C365 C367 1.389 . S
C366 H339 0.950 . S
C366 C352 1.377 1_655 S
C366 C365 1.373 . S
C367 C351 1.377 1_655 S
C367 C365 1.389 . S
C367 C368 1.524 . S
C368 C367 1.524 . S
C368 C369 1.397 . S
C368 C373 1.363 . S
C369 H340 0.950 . S
C369 C368 1.397 . S
C369 C370 1.334 . S
C370 H341 0.950 . S
C370 C369 1.334 . S
C370 C371 1.287 . S
C371 C370 1.287 . S
C371 C372 1.524 . S
C371 H374 0.999 . S
C372 H342 0.950 . S
C372 C371 1.524 . S
C372 C373 1.415 . S
C373 H343 0.950 . S
C373 C368 1.363 . S
C373 C372 1.415 . S
H374 C371 0.999 . S
H375 C356 0.913 . S
H376 C394 0.951 . S
H377 C396 0.951 . S
H378 C398 0.950 . S
H379 C399 0.950 . S
H380 C401 0.950 . S
H381 C404 0.950 . S
H382 C405 0.950 . S
H383 C407 0.950 . S
H384 C408 0.950 . S
H385 C409 0.951 . S
H386 C411 0.951 . S
H387 C413 0.950 . S
H388 C414 0.950 . S
H389 C416 0.950 . S
H390 C419 0.950 . S
H391 C420 0.950 . S
H392 C422 0.950 . S
H393 C423 0.950 . S
C394 H376 0.951 . S
C394 C395 1.366 . S
C394 C396 1.388 . S
C395 C394 1.366 . S
C395 C399 1.385 . S
C396 H377 0.951 . S
C396 C394 1.388 . S
C396 C397 1.366 . S
C397 C396 1.366 . S
C397 C398 1.414 . S
C397 C400 1.499 . S
C398 H378 0.950 . S
C398 C397 1.414 . S
C398 C399 1.374 . S
C399 H379 0.950 . S
C399 C395 1.385 . S
C399 C398 1.374 . S
C400 C397 1.499 . S
C400 C401 1.373 1_554 S
C400 C402 1.389 . S
C401 H380 0.950 . S
C401 C400 1.373 1_556 S
C401 C417 1.377 . S
C402 C400 1.389 . S
C402 C403 1.524 . S
C402 C416 1.377 . S
C403 C402 1.524 . S
C403 C404 1.397 . S
C403 C408 1.363 . S
C404 H381 0.950 . S
C404 C403 1.397 . S
C404 C405 1.334 . S
C405 H382 0.950 . S
C405 C404 1.334 . S
C405 C406 1.287 . S
C406 C405 1.287 . S
C406 C407 1.524 . S
C406 H425 0.913 . S
C407 H383 0.950 . S
C407 C406 1.524 . S
C407 C408 1.415 . S
C408 H384 0.950 . S
C408 C403 1.363 . S
C408 C407 1.415 . S
C409 H385 0.951 . S
C409 C410 1.366 . S
C409 C411 1.388 . S
C410 C409 1.366 . S
C410 C414 1.385 . S
C411 H386 0.951 . S
C411 C409 1.388 . S
C411 C412 1.366 . S
C412 C411 1.366 . S
C412 C413 1.414 . S
C412 C415 1.499 . S
C413 H387 0.950 . S
C413 C412 1.414 . S
C413 C414 1.374 . S
C414 H388 0.950 . S
C414 C410 1.385 . S
C414 C413 1.374 . S
C415 C412 1.499 . S
C415 C416 1.373 1_556 S
C415 C417 1.389 . S
C416 H389 0.950 . S
C416 C402 1.377 . S
C416 C415 1.373 1_554 S
C417 C401 1.377 . S
C417 C415 1.389 . S
C417 C418 1.524 . S
C418 C417 1.524 . S
C418 C419 1.397 . S
C418 C423 1.363 . S
C419 H390 0.950 . S
C419 C418 1.397 . S
C419 C420 1.334 . S
C420 H391 0.950 . S
C420 C419 1.334 . S
C420 C421 1.287 . S
C421 C420 1.287 . S
C421 C422 1.524 . S
C421 H424 0.999 . S
C422 H392 0.950 . S
C422 C421 1.524 . S
C422 C423 1.415 . S
C423 H393 0.950 . S
C423 C418 1.363 . S
C423 C422 1.415 . S
H424 C421 0.999 . S
H425 C406 0.913 . S
H426 C444 0.951 . S
H427 C446 0.951 . S
H428 C448 0.950 . S
H429 C449 0.950 . S
H430 C451 0.950 . S
H431 C454 0.950 . S
H432 C455 0.950 . S
H433 C457 0.950 . S
H434 C458 0.950 . S
H435 C459 0.951 . S
H436 C461 0.951 . S
H437 C463 0.950 . S
H438 C464 0.950 . S
H439 C466 0.950 . S
H440 C469 0.950 . S
H441 C470 0.950 . S
H442 C472 0.950 . S
H443 C473 0.950 . S
C444 H426 0.951 . S
C444 C445 1.366 . S
C444 C446 1.388 . S
C445 C444 1.366 . S
C445 C449 1.385 . S
C446 H427 0.951 . S
C446 C444 1.388 . S
C446 C447 1.366 . S
C447 C446 1.366 . S
C447 C448 1.414 . S
C447 C450 1.499 . S
C448 H428 0.950 . S
C448 C447 1.414 . S
C448 C449 1.374 . S
C449 H429 0.950 . S
C449 C445 1.385 . S
C449 C448 1.374 . S
C450 C447 1.499 . S
C450 C451 1.373 . S
C450 C452 1.389 . S
C451 H430 0.950 . S
C451 C450 1.373 . S
C451 C467 1.377 . S
C452 C450 1.389 . S
C452 C453 1.524 . S
C452 C466 1.377 . S
C453 C452 1.524 . S
C453 C454 1.397 . S
C453 C458 1.363 . S
C454 H431 0.950 . S
C454 C453 1.397 . S
C454 C455 1.334 . S
C455 H432 0.950 . S
C455 C454 1.334 . S
C455 C456 1.287 . S
C456 C455 1.287 . S
C456 C457 1.524 . S
C456 H475 0.913 . S
C457 H433 0.950 . S
C457 C456 1.524 . S
C457 C458 1.415 . S
C458 H434 0.950 . S
C458 C453 1.363 . S
C458 C457 1.415 . S
C459 H435 0.951 . S
C459 C460 1.366 . S
C459 C461 1.388 . S
C460 C459 1.366 . S
C460 C464 1.385 . S
C461 H436 0.951 . S
C461 C459 1.388 . S
C461 C462 1.366 . S
C462 C461 1.366 . S
C462 C463 1.414 . S
C462 C465 1.499 . S
C463 H437 0.950 . S
C463 C462 1.414 . S
C463 C464 1.374 . S
C464 H438 0.950 . S
C464 C460 1.385 . S
C464 C463 1.374 . S
C465 C462 1.499 . S
C465 C466 1.373 . S
C465 C467 1.389 . S
C466 H439 0.950 . S
C466 C452 1.377 . S
C466 C465 1.373 . S
C467 C451 1.377 . S
C467 C465 1.389 . S
C467 C468 1.524 . S
C468 C467 1.524 . S
C468 C469 1.397 . S
C468 C473 1.363 . S
C469 H440 0.950 . S
C469 C468 1.397 . S
C469 C470 1.334 . S
C470 H441 0.950 . S
C470 C469 1.334 . S
C470 C471 1.287 . S
C471 C470 1.287 . S
C471 C472 1.524 . S
C471 H474 0.999 . S
C472 H442 0.950 . S
C472 C471 1.524 . S
C472 C473 1.415 . S
C473 H443 0.950 . S
C473 C468 1.363 . S
C473 C472 1.415 . S
H474 C471 0.999 . S
H475 C456 0.913 . S
H476 C494 0.951 . S
H477 C496 0.951 . S
H478 C498 0.950 . S
H479 C499 0.950 . S
H480 C501 0.950 . S
H481 C504 0.950 . S
H482 C505 0.950 . S
H483 C507 0.950 . S
H484 C508 0.950 . S
H485 C509 0.951 . S
H486 C511 0.951 . S
H487 C513 0.950 . S
H488 C514 0.950 . S
H489 C516 0.950 . S
H490 C519 0.950 . S
H491 C520 0.950 . S
H492 C522 0.950 . S
H493 C523 0.950 . S
C494 H476 0.951 . S
C494 C495 1.366 . S
C494 C496 1.388 . S
C495 C494 1.366 . S
C495 C499 1.385 . S
C496 H477 0.951 . S
C496 C494 1.388 . S
C496 C497 1.366 . S
C497 C496 1.366 . S
C497 C498 1.414 . S
C497 C500 1.499 . S
C498 H478 0.950 . S
C498 C497 1.414 . S
C498 C499 1.374 . S
C499 H479 0.950 . S
C499 C495 1.385 . S
C499 C498 1.374 . S
C500 C497 1.499 . S
C500 C501 1.373 1_554 S
C500 C502 1.389 . S
C501 H480 0.950 . S
C501 C500 1.373 1_556 S
C501 C517 1.377 . S
C502 C500 1.389 . S
C502 C503 1.524 . S
C502 C516 1.377 . S
C503 C502 1.524 . S
C503 C504 1.397 . S
C503 C508 1.363 . S
C504 H481 0.950 . S
C504 C503 1.397 . S
C504 C505 1.334 . S
C505 H482 0.950 . S
C505 C504 1.334 . S
C505 C506 1.287 . S
C506 C505 1.287 . S
C506 C507 1.524 . S
C506 H525 0.913 . S
C507 H483 0.950 . S
C507 C506 1.524 . S
C507 C508 1.415 . S
C508 H484 0.950 . S
C508 C503 1.363 . S
C508 C507 1.415 . S
C509 H485 0.951 . S
C509 C510 1.366 . S
C509 C511 1.388 . S
C510 C509 1.366 . S
C510 C514 1.385 . S
C511 H486 0.951 . S
C511 C509 1.388 . S
C511 C512 1.366 . S
C512 C511 1.366 . S
C512 C513 1.414 . S
C512 C515 1.499 . S
C513 H487 0.950 . S
C513 C512 1.414 . S
C513 C514 1.374 . S
C514 H488 0.950 . S
C514 C510 1.385 . S
C514 C513 1.374 . S
C515 C512 1.499 . S
C515 C516 1.373 1_556 S
C515 C517 1.389 . S
C516 H489 0.950 . S
C516 C502 1.377 . S
C516 C515 1.373 1_554 S
C517 C501 1.377 . S
C517 C515 1.389 . S
C517 C518 1.524 . S
C518 C517 1.524 . S
C518 C519 1.397 . S
C518 C523 1.363 . S
C519 H490 0.950 . S
C519 C518 1.397 . S
C519 C520 1.334 . S
C520 H491 0.950 . S
C520 C519 1.334 . S
C520 C521 1.287 . S
C521 C520 1.287 . S
C521 C522 1.524 . S
C521 H524 0.999 . S
C522 H492 0.950 . S
C522 C521 1.524 . S
C522 C523 1.415 . S
C523 H493 0.950 . S
C523 C518 1.363 . S
C523 C522 1.415 . S
H524 C521 0.999 . S
H525 C506 0.913 . S
H526 C544 0.951 . S
H527 C546 0.951 . S
H528 C548 0.950 . S
H529 C549 0.950 . S
H530 C551 0.950 . S
H531 C554 0.950 . S
H532 C555 0.950 . S
H533 C557 0.950 . S
H534 C558 0.950 . S
H535 C559 0.951 . S
H536 C561 0.951 . S
H537 C563 0.950 . S
H538 C564 0.950 . S
H539 C566 0.950 . S
H540 C569 0.950 . S
H541 C570 0.950 . S
H542 C572 0.950 . S
H543 C573 0.950 . S
C544 H526 0.951 . S
C544 C545 1.366 . S
C544 C546 1.388 . S
C545 C544 1.366 . S
C545 C549 1.385 . S
C546 H527 0.951 . S
C546 C544 1.388 . S
C546 C547 1.366 . S
C547 C546 1.366 . S
C547 C548 1.414 . S
C547 C550 1.499 . S
C548 H528 0.950 . S
C548 C547 1.414 . S
C548 C549 1.374 . S
C549 H529 0.950 . S
C549 C545 1.385 . S
C549 C548 1.374 . S
C550 C547 1.499 . S
C550 C551 1.373 . S
C550 C552 1.389 . S
C551 H530 0.950 . S
C551 C550 1.373 . S
C551 C567 1.377 . S
C552 C550 1.389 . S
C552 C553 1.524 . S
C552 C566 1.377 . S
C553 C552 1.524 . S
C553 C554 1.397 . S
C553 C558 1.363 . S
C554 H531 0.950 . S
C554 C553 1.397 . S
C554 C555 1.334 . S
C555 H532 0.950 . S
C555 C554 1.334 . S
C555 C556 1.287 . S
C556 C555 1.287 . S
C556 C557 1.524 . S
C556 H575 0.913 . S
C557 H533 0.950 . S
C557 C556 1.524 . S
C557 C558 1.415 . S
C558 H534 0.950 . S
C558 C553 1.363 . S
C558 C557 1.415 . S
C559 H535 0.951 . S
C559 C560 1.366 . S
C559 C561 1.388 . S
C560 C559 1.366 . S
C560 C564 1.385 . S
C561 H536 0.951 . S
C561 C559 1.388 . S
C561 C562 1.366 . S
C562 C561 1.366 . S
C562 C563 1.414 . S
C562 C565 1.499 . S
C563 H537 0.950 . S
C563 C562 1.414 . S
C563 C564 1.374 . S
C564 H538 0.950 . S
C564 C560 1.385 . S
C564 C563 1.374 . S
C565 C562 1.499 . S
C565 C566 1.373 . S
C565 C567 1.389 . S
C566 H539 0.950 . S
C566 C552 1.377 . S
C566 C565 1.373 . S
C567 C551 1.377 . S
C567 C565 1.389 . S
C567 C568 1.524 . S
C568 C567 1.524 . S
C568 C569 1.397 . S
C568 C573 1.363 . S
C569 H540 0.950 . S
C569 C568 1.397 . S
C569 C570 1.334 . S
C570 H541 0.950 . S
C570 C569 1.334 . S
C570 C571 1.287 . S
C571 C570 1.287 . S
C571 C572 1.524 . S
C571 H574 0.999 . S
C572 H542 0.950 . S
C572 C571 1.524 . S
C572 C573 1.415 . S
C573 H543 0.950 . S
C573 C568 1.363 . S
C573 C572 1.415 . S
H574 C571 0.999 . S
H575 C556 0.913 . S
H576 C594 0.951 . S
H577 C596 0.951 . S
H578 C598 0.950 . S
H579 C599 0.950 . S
H580 C601 0.950 . S
H581 C604 0.950 . S
H582 C605 0.950 . S
H583 C607 0.950 . S
H584 C608 0.950 . S
H585 C609 0.951 . S
H586 C611 0.951 . S
H587 C613 0.950 . S
H588 C614 0.950 . S
H589 C616 0.950 . S
H590 C619 0.950 . S
H591 C620 0.950 . S
H592 C622 0.950 . S
H593 C623 0.950 . S
C594 H576 0.951 . S
C594 C595 1.366 . S
C594 C596 1.388 . S
C595 C594 1.366 . S
C595 C599 1.385 . S
C596 H577 0.951 . S
C596 C594 1.388 . S
C596 C597 1.366 . S
C597 C596 1.366 . S
C597 C598 1.414 . S
C597 C600 1.499 . S
C598 H578 0.950 . S
C598 C597 1.414 . S
C598 C599 1.374 . S
C599 H579 0.950 . S
C599 C595 1.385 . S
C599 C598 1.374 . S
C600 C597 1.499 . S
C600 C601 1.373 . S
C600 C602 1.389 1_556 S
C601 H580 0.950 . S
C601 C600 1.373 . S
C601 C617 1.377 1_655 S
C602 C600 1.389 1_554 S
C602 C603 1.524 . S
C602 C616 1.377 1_655 S
C603 C602 1.524 . S
C603 C604 1.397 . S
C603 C608 1.363 . S
C604 H581 0.950 . S
C604 C603 1.397 . S
C604 C605 1.334 . S
C605 H582 0.950 . S
C605 C604 1.334 . S
C605 C606 1.287 . S
C606 C605 1.287 . S
C606 C607 1.524 . S
C606 H625 0.913 . S
C607 H583 0.950 . S
C607 C606 1.524 . S
C607 C608 1.415 . S
C608 H584 0.950 . S
C608 C603 1.363 . S
C608 C607 1.415 . S
C609 H585 0.951 . S
C609 C610 1.366 . S
C609 C611 1.388 . S
C610 C609 1.366 . S
C610 C614 1.385 . S
C611 H586 0.951 . S
C611 C609 1.388 . S
C611 C612 1.366 . S
C612 C611 1.366 . S
C612 C613 1.414 . S
C612 C615 1.499 . S
C613 H587 0.950 . S
C613 C612 1.414 . S
C613 C614 1.374 . S
C614 H588 0.950 . S
C614 C610 1.385 . S
C614 C613 1.374 . S
C615 C612 1.499 . S
C615 C616 1.373 . S
C615 C617 1.389 1_554 S
C616 H589 0.950 . S
C616 C602 1.377 1_455 S
C616 C615 1.373 . S
C617 C601 1.377 1_455 S
C617 C615 1.389 1_556 S
C617 C618 1.524 . S
C618 C617 1.524 . S
C618 C619 1.397 . S
C618 C623 1.363 . S
C619 H590 0.950 . S
C619 C618 1.397 . S
C619 C620 1.334 . S
C620 H591 0.950 . S
C620 C619 1.334 . S
C620 C621 1.287 . S
C621 C620 1.287 . S
C621 C622 1.524 . S
C621 H624 0.999 . S
C622 H592 0.950 . S
C622 C621 1.524 . S
C622 C623 1.415 . S
C623 H593 0.950 . S
C623 C618 1.363 . S
C623 C622 1.415 . S
H624 C621 0.999 . S
H625 C606 0.913 . S
H626 C644 0.951 . S
H627 C646 0.951 . S
H628 C648 0.950 . S
H629 C649 0.950 . S
H630 C651 0.950 . S
H631 C654 0.950 . S
H632 C655 0.950 . S
H633 C657 0.950 . S
H634 C658 0.950 . S
H635 C659 0.951 . S
H636 C661 0.951 . S
H637 C663 0.950 . S
H638 C664 0.950 . S
H639 C666 0.950 . S
H640 C669 0.950 . S
H641 C670 0.950 . S
H642 C672 0.950 . S
H643 C673 0.950 . S
C644 H626 0.951 . S
C644 C645 1.366 . S
C644 C646 1.388 . S
C645 C644 1.366 . S
C645 C649 1.385 . S
C646 H627 0.951 . S
C646 C644 1.388 . S
C646 C647 1.366 . S
C647 C646 1.366 . S
C647 C648 1.414 . S
C647 C650 1.499 . S
C648 H628 0.950 . S
C648 C647 1.414 . S
C648 C649 1.374 . S
C649 H629 0.950 . S
C649 C645 1.385 . S
C649 C648 1.374 . S
C650 C647 1.499 . S
C650 C651 1.373 . S
C650 C652 1.367 1_455 S
C651 H630 0.950 . S
C651 C650 1.373 . S
C651 C667 1.395 . S
C652 C650 1.367 1_655 S
C652 C653 1.530 . S
C652 C666 1.395 . S
C653 C652 1.530 . S
C653 C654 1.397 1_655 S
C653 C658 1.363 . S
C654 H631 0.950 . S
C654 C653 1.397 1_455 S
C654 C655 1.334 . S
C655 H632 0.950 . S
C655 C654 1.334 . S
C655 C656 1.287 1_455 S
C656 C655 1.287 1_655 S
C656 C657 1.524 . S
C656 H675 0.913 . S
C657 H633 0.950 . S
C657 C656 1.524 . S
C657 C658 1.415 . S
C658 H634 0.950 . S
C658 C653 1.363 . S
C658 C657 1.415 . S
C659 H635 0.951 . S
C659 C660 1.366 . S
C659 C661 1.388 . S
C660 C659 1.366 . S
C660 C664 1.385 . S
C661 H636 0.951 . S
C661 C659 1.388 . S
C661 C662 1.366 . S
C662 C661 1.366 . S
C662 C663 1.414 . S
C662 C665 1.499 . S
C663 H637 0.950 . S
C663 C662 1.414 . S
C663 C664 1.374 . S
C664 H638 0.950 . S
C664 C660 1.385 . S
C664 C663 1.374 . S
C665 C662 1.499 . S
C665 C666 1.373 . S
C665 C667 1.367 1_655 S
C666 H639 0.950 . S
C666 C652 1.395 . S
C666 C665 1.373 . S
C667 C651 1.395 . S
C667 C665 1.367 1_455 S
C667 C668 1.530 . S
C668 C667 1.530 . S
C668 C669 1.397 1_455 S
C668 C673 1.363 . S
C669 H640 0.950 . S
C669 C668 1.397 1_655 S
C669 C670 1.334 . S
C670 H641 0.950 . S
C670 C669 1.334 . S
C670 C671 1.287 1_655 S
C671 C670 1.287 1_455 S
C671 C672 1.524 . S
C671 H674 0.999 . S
C672 H642 0.950 . S
C672 C671 1.524 . S
C672 C673 1.415 . S
C673 H643 0.950 . S
C673 C668 1.363 . S
C673 C672 1.415 . S
H674 C671 0.999 . S
H675 C656 0.913 . S
H676 C694 0.951 . S
H677 C696 0.949 1_545 S
H678 C698 0.950 . S
H679 C699 0.950 . S
H680 C701 0.950 . S
H681 C704 0.950 . S
H682 C705 0.950 . S
H683 C707 0.950 . S
H684 C708 0.950 1_556 S
H685 C709 0.951 . S
H686 C711 0.949 1_565 S
H687 C713 0.950 . S
H688 C714 0.950 . S
H689 C716 0.950 . S
H690 C719 0.950 . S
H691 C720 0.950 . S
H692 C722 0.950 . S
H693 C723 0.950 1_554 S
C694 H676 0.951 . S
C694 C695 1.366 . S
C694 C696 1.388 . S
C695 C694 1.366 . S
C695 C699 1.385 . S
C696 H677 0.949 1_565 S
C696 C694 1.388 . S
C696 C697 1.366 . S
C697 C696 1.366 . S
C697 C698 1.414 . S
C697 C700 1.499 . S
C698 H678 0.950 . S
C698 C697 1.414 . S
C698 C699 1.374 . S
C699 H679 0.950 . S
C699 C695 1.385 . S
C699 C698 1.374 . S
C700 C697 1.499 . S
C700 C701 1.373 . S
C700 C702 1.389 1_565 S
C701 H680 0.950 . S
C701 C700 1.373 . S
C701 C717 1.377 1_554 S
C702 C700 1.389 1_545 S
C702 C703 1.524 . S
C702 C716 1.377 1_554 S
C703 C702 1.524 . S
C703 C704 1.397 . S
C703 C708 1.363 . S
C704 H681 0.950 . S
C704 C703 1.397 . S
C704 C705 1.334 . S
C705 H682 0.950 . S
C705 C704 1.334 . S
C705 C706 1.287 . S
C706 C705 1.287 . S
C706 C707 1.524 . S
C706 H725 0.913 . S
C707 H683 0.950 . S
C707 C706 1.524 . S
C707 C708 1.415 . S
C708 H684 0.950 1_554 S
C708 C703 1.363 . S
C708 C707 1.415 . S
C709 H685 0.951 . S
C709 C710 1.366 . S
C709 C711 1.388 . S
C710 C709 1.366 . S
C710 C714 1.385 . S
C711 H686 0.949 1_545 S
C711 C709 1.388 . S
C711 C712 1.366 . S
C712 C711 1.366 . S
C712 C713 1.414 . S
C712 C715 1.499 . S
C713 H687 0.950 . S
C713 C712 1.414 . S
C713 C714 1.374 . S
C714 H688 0.950 . S
C714 C710 1.385 . S
C714 C713 1.374 . S
C715 C712 1.499 . S
C715 C716 1.373 . S
C715 C717 1.389 1_545 S
C716 H689 0.950 . S
C716 C702 1.377 1_556 S
C716 C715 1.373 . S
C717 C701 1.377 1_556 S
C717 C715 1.389 1_565 S
C717 C718 1.524 . S
C718 C717 1.524 . S
C718 C719 1.397 . S
C718 C723 1.363 . S
C719 H690 0.950 . S
C719 C718 1.397 . S
C719 C720 1.334 . S
C720 H691 0.950 . S
C720 C719 1.334 . S
C720 C721 1.287 . S
C721 C720 1.287 . S
C721 C722 1.524 . S
C721 H724 0.999 . S
C722 H692 0.950 . S
C722 C721 1.524 . S
C722 C723 1.415 . S
C723 H693 0.950 1_556 S
C723 C718 1.363 . S
C723 C722 1.415 . S
H724 C721 0.999 . S
H725 C706 0.913 . S
H726 C744 0.951 . S
H727 C746 0.951 1_545 S
H728 C748 0.950 . S
H729 C749 0.950 . S
H730 C751 0.950 . S
H731 C754 0.950 . S
H732 C755 0.950 . S
H733 C757 0.950 . S
H734 C758 0.950 . S
H735 C759 0.951 . S
H736 C761 0.951 1_565 S
H737 C763 0.950 . S
H738 C764 0.950 . S
H739 C766 0.950 . S
H740 C769 0.950 . S
H741 C770 0.950 . S
H742 C772 0.950 . S
H743 C773 0.950 . S
C744 H726 0.951 . S
C744 C745 1.366 . S
C744 C746 1.388 . S
C745 C744 1.366 . S
C745 C749 1.385 . S
C746 H727 0.951 1_565 S
C746 C744 1.388 . S
C746 C747 1.366 . S
C747 C746 1.366 . S
C747 C748 1.414 . S
C747 C750 1.499 . S
C748 H728 0.950 . S
C748 C747 1.414 . S
C748 C749 1.374 . S
C749 H729 0.950 . S
C749 C745 1.385 . S
C749 C748 1.374 . S
C750 C747 1.499 . S
C750 C751 1.373 . S
C750 C752 1.389 . S
C751 H730 0.950 . S
C751 C750 1.373 . S
C751 C767 1.377 1_565 S
C752 C750 1.389 . S
C752 C753 1.524 . S
C752 C766 1.377 1_565 S
C753 C752 1.524 . S
C753 C754 1.397 . S
C753 C758 1.363 1_565 S
C754 H731 0.950 . S
C754 C753 1.397 . S
C754 C755 1.334 . S
C755 H732 0.950 . S
C755 C754 1.334 . S
C755 C756 1.287 . S
C756 C755 1.287 . S
C756 C757 1.524 1_565 S
C756 H775 0.913 . S
C757 H733 0.950 . S
C757 C756 1.524 1_545 S
C757 C758 1.415 . S
C758 H734 0.950 . S
C758 C753 1.363 1_545 S
C758 C757 1.415 . S
C759 H735 0.951 . S
C759 C760 1.366 . S
C759 C761 1.388 . S
C760 C759 1.366 . S
C760 C764 1.385 . S
C761 H736 0.951 1_545 S
C761 C759 1.388 . S
C761 C762 1.366 . S
C762 C761 1.366 . S
C762 C763 1.414 . S
C762 C765 1.499 . S
C763 H737 0.950 . S
C763 C762 1.414 . S
C763 C764 1.374 . S
C764 H738 0.950 . S
C764 C760 1.385 . S
C764 C763 1.374 . S
C765 C762 1.499 . S
C765 C766 1.373 . S
C765 C767 1.389 . S
C766 H739 0.950 . S
C766 C752 1.377 1_545 S
C766 C765 1.373 . S
C767 C751 1.377 1_545 S
C767 C765 1.389 . S
C767 C768 1.524 . S
C768 C767 1.524 . S
C768 C769 1.397 . S
C768 C773 1.363 1_545 S
C769 H740 0.950 . S
C769 C768 1.397 . S
C769 C770 1.334 . S
C770 H741 0.950 . S
C770 C769 1.334 . S
C770 C771 1.287 . S
C771 C770 1.287 . S
C771 C772 1.524 1_545 S
C771 H774 0.999 . S
C772 H742 0.950 . S
C772 C771 1.524 1_565 S
C772 C773 1.415 . S
C773 H743 0.950 . S
C773 C768 1.363 1_565 S
C773 C772 1.415 . S
H774 C771 0.999 . S
H775 C756 0.913 . S
H776 C794 0.951 . S
H777 C796 0.951 . S
H778 C798 0.950 . S
H779 C799 0.950 . S
H780 C801 0.950 . S
H781 C804 0.950 . S
H782 C805 0.950 . S
H783 C807 0.950 . S
H784 C808 0.950 . S
H785 C809 0.951 . S
H786 C811 0.951 . S
H787 C813 0.950 . S
H788 C814 0.950 . S
H789 C816 0.950 . S
H790 C819 0.950 . S
H791 C820 0.950 . S
H792 C822 0.950 . S
H793 C823 0.950 . S
C794 H776 0.951 . S
C794 C795 1.366 . S
C794 C796 1.388 . S
C795 C794 1.366 . S
C795 C799 1.385 . S
C796 H777 0.951 . S
C796 C794 1.388 . S
C796 C797 1.366 . S
C797 C796 1.366 . S
C797 C798 1.414 . S
C797 C800 1.499 . S
C798 H778 0.950 . S
C798 C797 1.414 . S
C798 C799 1.374 . S
C799 H779 0.950 . S
C799 C795 1.385 . S
C799 C798 1.374 . S
C800 C797 1.499 . S
C800 C801 1.373 . S
C800 C802 1.392 . S
C801 H780 0.950 . S
C801 C800 1.373 . S
C801 C817 1.373 1_455 S
C802 C800 1.392 . S
C802 C803 1.527 1_455 S
C802 C816 1.373 1_455 S
C803 C802 1.527 1_655 S
C803 C804 1.382 1_655 S
C803 C808 1.376 . S
C804 H781 0.950 . S
C804 C803 1.382 1_455 S
C804 C805 1.334 . S
C805 H782 0.950 . S
C805 C804 1.334 . S
C805 C806 1.287 . S
C806 C805 1.287 . S
C806 C807 1.524 1_455 S
C806 H825 0.913 . S
C807 H783 0.950 . S
C807 C806 1.524 1_655 S
C807 C808 1.415 . S
C808 H784 0.950 . S
C808 C803 1.376 . S
C808 C807 1.415 . S
C809 H785 0.951 . S
C809 C810 1.366 . S
C809 C811 1.388 . S
C810 C809 1.366 . S
C810 C814 1.385 . S
C811 H786 0.951 . S
C811 C809 1.388 . S
C811 C812 1.366 . S
C812 C811 1.366 . S
C812 C813 1.414 . S
C812 C815 1.499 . S
C813 H787 0.950 . S
C813 C812 1.414 . S
C813 C814 1.374 . S
C814 H788 0.950 . S
C814 C810 1.385 . S
C814 C813 1.374 . S
C815 C812 1.499 . S
C815 C816 1.373 . S
C815 C817 1.392 . S
C816 H789 0.950 . S
C816 C802 1.373 1_655 S
C816 C815 1.373 . S
C817 C801 1.373 1_655 S
C817 C815 1.392 . S
C817 C818 1.527 1_655 S
C818 C817 1.527 1_455 S
C818 C819 1.382 1_455 S
C818 C823 1.376 . S
C819 H790 0.950 . S
C819 C818 1.382 1_655 S
C819 C820 1.334 . S
C820 H791 0.950 . S
C820 C819 1.334 . S
C820 C821 1.287 . S
C821 C820 1.287 . S
C821 C822 1.524 1_655 S
C821 H824 0.999 . S
C822 H792 0.950 . S
C822 C821 1.524 1_455 S
C822 C823 1.415 . S
C823 H793 0.950 . S
C823 C818 1.376 . S
C823 C822 1.415 . S
H824 C821 0.999 . S
H825 C806 0.913 . S
H826 C844 0.951 . S
H827 C846 0.951 . S
H828 C848 0.950 . S
H829 C849 0.950 . S
H830 C851 0.950 . S
H831 C854 0.950 . S
H832 C855 0.950 . S
H833 C857 0.950 . S
H834 C858 0.950 . S
H835 C859 0.951 . S
H836 C861 0.951 . S
H837 C863 0.950 . S
H838 C864 0.950 . S
H839 C866 0.950 . S
H840 C869 0.950 . S
H841 C870 0.950 . S
H842 C872 0.950 . S
H843 C873 0.950 . S
C844 H826 0.951 . S
C844 C845 1.366 . S
C844 C846 1.388 . S
C845 C844 1.366 . S
C845 C849 1.385 . S
C846 H827 0.951 . S
C846 C844 1.388 . S
C846 C847 1.366 . S
C847 C846 1.366 . S
C847 C848 1.414 . S
C847 C850 1.499 . S
C848 H828 0.950 . S
C848 C847 1.414 . S
C848 C849 1.374 . S
C849 H829 0.950 . S
C849 C845 1.385 . S
C849 C848 1.374 . S
C850 C847 1.499 . S
C850 C851 1.373 . S
C850 C852 1.389 . S
C851 H830 0.950 . S
C851 C850 1.373 . S
C851 C867 1.377 1_455 S
C852 C850 1.389 . S
C852 C853 1.524 . S
C852 C866 1.377 1_455 S
C853 C852 1.524 . S
C853 C854 1.397 . S
C853 C858 1.363 . S
C854 H831 0.950 . S
C854 C853 1.397 . S
C854 C855 1.334 . S
C855 H832 0.950 . S
C855 C854 1.334 . S
C855 C856 1.287 . S
C856 C855 1.287 . S
C856 C857 1.524 . S
C856 H875 0.913 . S
C857 H833 0.950 . S
C857 C856 1.524 . S
C857 C858 1.415 . S
C858 H834 0.950 . S
C858 C853 1.363 . S
C858 C857 1.415 . S
C859 H835 0.951 . S
C859 C860 1.366 . S
C859 C861 1.388 . S
C860 C859 1.366 . S
C860 C864 1.385 . S
C861 H836 0.951 . S
C861 C859 1.388 . S
C861 C862 1.366 . S
C862 C861 1.366 . S
C862 C863 1.414 . S
C862 C865 1.499 . S
C863 H837 0.950 . S
C863 C862 1.414 . S
C863 C864 1.374 . S
C864 H838 0.950 . S
C864 C860 1.385 . S
C864 C863 1.374 . S
C865 C862 1.499 . S
C865 C866 1.373 . S
C865 C867 1.389 . S
C866 H839 0.950 . S
C866 C852 1.377 1_655 S
C866 C865 1.373 . S
C867 C851 1.377 1_655 S
C867 C865 1.389 . S
C867 C868 1.524 . S
C868 C867 1.524 . S
C868 C869 1.397 . S
C868 C873 1.363 . S
C869 H840 0.950 . S
C869 C868 1.397 . S
C869 C870 1.334 . S
C870 H841 0.950 . S
C870 C869 1.334 . S
C870 C871 1.287 . S
C871 C870 1.287 . S
C871 C872 1.524 . S
C871 H874 0.999 . S
C872 H842 0.950 . S
C872 C871 1.524 . S
C872 C873 1.415 . S
C873 H843 0.950 . S
C873 C868 1.363 . S
C873 C872 1.415 . S
H874 C871 0.999 . S
H875 C856 0.913 . S
H876 C894 0.951 . S
H877 C896 0.951 . S
H878 C898 0.950 . S
H879 C899 0.950 . S
H880 C901 0.950 . S
H881 C904 0.950 . S
H882 C905 0.950 . S
H883 C907 0.950 . S
H884 C908 0.950 . S
H885 C909 0.951 . S
H886 C911 0.951 . S
H887 C913 0.950 . S
H888 C914 0.950 . S
H889 C916 0.950 . S
H890 C919 0.950 . S
H891 C920 0.950 . S
H892 C922 0.950 . S
H893 C923 0.950 . S
C894 H876 0.951 . S
C894 C895 1.366 . S
C894 C896 1.388 . S
C895 C894 1.366 . S
C895 C899 1.385 . S
C896 H877 0.951 . S
C896 C894 1.388 . S
C896 C897 1.366 . S
C897 C896 1.366 . S
C897 C898 1.414 . S
C897 C900 1.499 . S
C898 H878 0.950 . S
C898 C897 1.414 . S
C898 C899 1.374 . S
C899 H879 0.950 . S
C899 C895 1.385 . S
C899 C898 1.374 . S
C900 C897 1.499 . S
C900 C901 1.373 . S
C900 C902 1.389 . S
C901 H880 0.950 . S
C901 C900 1.373 . S
C901 C917 1.377 . S
C902 C900 1.389 . S
C902 C903 1.524 . S
C902 C916 1.377 . S
C903 C902 1.524 . S
C903 C904 1.397 . S
C903 C908 1.363 . S
C904 H881 0.950 . S
C904 C903 1.397 . S
C904 C905 1.334 . S
C905 H882 0.950 . S
C905 C904 1.334 . S
C905 C906 1.287 . S
C906 C905 1.287 . S
C906 C907 1.524 . S
C906 H925 0.913 . S
C907 H883 0.950 . S
C907 C906 1.524 . S
C907 C908 1.415 . S
C908 H884 0.950 . S
C908 C903 1.363 . S
C908 C907 1.415 . S
C909 H885 0.951 . S
C909 C910 1.366 . S
C909 C911 1.388 . S
C910 C909 1.366 . S
C910 C914 1.385 . S
C911 H886 0.951 . S
C911 C909 1.388 . S
C911 C912 1.366 . S
C912 C911 1.366 . S
C912 C913 1.414 . S
C912 C915 1.499 . S
C913 H887 0.950 . S
C913 C912 1.414 . S
C913 C914 1.374 . S
C914 H888 0.950 . S
C914 C910 1.385 . S
C914 C913 1.374 . S
C915 C912 1.499 . S
C915 C916 1.373 . S
C915 C917 1.389 . S
C916 H889 0.950 . S
C916 C902 1.377 . S
C916 C915 1.373 . S
C917 C901 1.377 . S
C917 C915 1.389 . S
C917 C918 1.524 . S
C918 C917 1.524 . S
C918 C919 1.397 . S
C918 C923 1.363 . S
C919 H890 0.950 . S
C919 C918 1.397 . S
C919 C920 1.334 . S
C920 H891 0.950 . S
C920 C919 1.334 . S
C920 C921 1.287 . S
C921 C920 1.287 . S
C921 C922 1.524 . S
C921 H924 0.999 . S
C922 H892 0.950 . S
C922 C921 1.524 . S
C922 C923 1.415 . S
C923 H893 0.950 . S
C923 C918 1.363 . S
C923 C922 1.415 . S
H924 C921 0.999 . S
H925 C906 0.913 . S
H926 C944 0.951 . S
H927 C946 0.951 . S
H928 C948 0.950 . S
H929 C949 0.950 . S
H930 C951 0.950 . S
H931 C954 0.950 . S
H932 C955 0.950 . S
H933 C957 0.950 . S
H934 C958 0.950 . S
H935 C959 0.951 . S
H936 C961 0.951 . S
H937 C963 0.950 . S
H938 C964 0.950 . S
H939 C966 0.950 . S
H940 C969 0.950 . S
H941 C970 0.950 . S
H942 C972 0.950 . S
H943 C973 0.950 . S
C944 H926 0.951 . S
C944 C945 1.366 . S
C944 C946 1.388 . S
C945 C944 1.366 . S
C945 C949 1.385 . S
C946 H927 0.951 . S
C946 C944 1.388 . S
C946 C947 1.366 . S
C947 C946 1.366 . S
C947 C948 1.414 . S
C947 C950 1.499 . S
C948 H928 0.950 . S
C948 C947 1.414 . S
C948 C949 1.374 . S
C949 H929 0.950 . S
C949 C945 1.385 . S
C949 C948 1.374 . S
C950 C947 1.499 . S
C950 C951 1.373 . S
C950 C952 1.389 . S
C951 H930 0.950 . S
C951 C950 1.373 . S
C951 C967 1.377 . S
C952 C950 1.389 . S
C952 C953 1.524 . S
C952 C966 1.377 . S
C953 C952 1.524 . S
C953 C954 1.397 . S
C953 C958 1.363 . S
C954 H931 0.950 . S
C954 C953 1.397 . S
C954 C955 1.334 . S
C955 H932 0.950 . S
C955 C954 1.334 . S
C955 C956 1.287 . S
C956 C955 1.287 . S
C956 C957 1.524 . S
C956 H975 0.913 . S
C957 H933 0.950 . S
C957 C956 1.524 . S
C957 C958 1.415 . S
C958 H934 0.950 . S
C958 C953 1.363 . S
C958 C957 1.415 . S
C959 H935 0.951 . S
C959 C960 1.366 . S
C959 C961 1.388 . S
C960 C959 1.366 . S
C960 C964 1.385 . S
C961 H936 0.951 . S
C961 C959 1.388 . S
C961 C962 1.366 . S
C962 C961 1.366 . S
C962 C963 1.414 . S
C962 C965 1.499 . S
C963 H937 0.950 . S
C963 C962 1.414 . S
C963 C964 1.374 . S
C964 H938 0.950 . S
C964 C960 1.385 . S
C964 C963 1.374 . S
C965 C962 1.499 . S
C965 C966 1.373 . S
C965 C967 1.389 . S
C966 H939 0.950 . S
C966 C952 1.377 . S
C966 C965 1.373 . S
C967 C951 1.377 . S
C967 C965 1.389 . S
C967 C968 1.524 . S
C968 C967 1.524 . S
C968 C969 1.397 . S
C968 C973 1.363 . S
C969 H940 0.950 . S
C969 C968 1.397 . S
C969 C970 1.334 . S
C970 H941 0.950 . S
C970 C969 1.334 . S
C970 C971 1.287 . S
C971 C970 1.287 . S
C971 C972 1.524 . S
C971 H974 0.999 . S
C972 H942 0.950 . S
C972 C971 1.524 . S
C972 C973 1.415 . S
C973 H943 0.950 . S
C973 C968 1.363 . S
C973 C972 1.415 . S
H974 C971 0.999 . S
H975 C956 0.913 . S
H976 C994 0.945 1_554 S
H977 C996 0.951 . S
H978 C998 0.950 . S
H979 C999 0.950 . S
H980 C1001 0.950 . S
H981 C1004 0.950 . S
H982 C1005 0.950 . S
H983 C1007 0.954 . S
H984 C1008 0.950 . S
H985 C1009 0.951 . S
H986 C1011 0.951 . S
H987 C1013 0.950 . S
H988 C1014 0.950 . S
H989 C1016 0.950 . S
H990 C1019 0.950 . S
H991 C1020 0.950 . S
H992 C1022 0.950 . S
H993 C1023 0.950 . S
C994 H976 0.945 1_556 S
C994 C995 1.363 1_556 S
C994 C996 1.397 . S
C995 C994 1.363 1_554 S
C995 C999 1.385 1_554 S
C996 H977 0.951 . S
C996 C994 1.397 . S
C996 C997 1.366 . S
C997 C996 1.366 . S
C997 C998 1.414 . S
C997 C1000 1.499 . S
C998 H978 0.950 . S
C998 C997 1.414 . S
C998 C999 1.374 . S
C999 H979 0.950 . S
C999 C995 1.385 1_556 S
C999 C998 1.374 . S
C1000 C997 1.499 . S
C1000 C1001 1.373 . S
C1000 C1002 1.389 . S
C1001 H980 0.950 . S
C1001 C1000 1.373 . S
C1001 C1017 1.377 . S
C1002 C1000 1.389 . S
C1002 C1003 1.524 . S
C1002 C1016 1.377 . S
C1003 C1002 1.524 . S
C1003 C1004 1.397 . S
C1003 C1008 1.363 . S
C1004 H981 0.950 . S
C1004 C1003 1.397 . S
C1004 C1005 1.334 1_556 S
C1005 H982 0.950 . S
C1005 C1004 1.334 1_554 S
C1005 C1006 1.287 . S
C1006 C1005 1.287 . S
C1006 C1007 1.524 1_554 S
C1006 H1025 0.913 . S
C1007 H983 0.954 . S
C1007 C1006 1.524 1_556 S
C1007 C1008 1.415 . S
C1008 H984 0.950 . S
C1008 C1003 1.363 . S
C1008 C1007 1.415 . S
C1009 H985 0.951 . S
C1009 C1010 1.366 . S
C1009 C1011 1.388 . S
C1010 C1009 1.366 . S
C1010 C1014 1.385 . S
C1011 H986 0.951 . S
C1011 C1009 1.388 . S
C1011 C1012 1.366 . S
C1012 C1011 1.366 . S
C1012 C1013 1.414 . S
C1012 C1015 1.499 . S
C1013 H987 0.950 . S
C1013 C1012 1.414 . S
C1013 C1014 1.374 . S
C1014 H988 0.950 . S
C1014 C1010 1.385 . S
C1014 C1013 1.374 . S
C1015 C1012 1.499 . S
C1015 C1016 1.373 . S
C1015 C1017 1.389 . S
C1016 H989 0.950 . S
C1016 C1002 1.377 . S
C1016 C1015 1.373 . S
C1017 C1001 1.377 . S
C1017 C1015 1.389 . S
C1017 C1018 1.524 . S
C1018 C1017 1.524 . S
C1018 C1019 1.397 . S
C1018 C1023 1.363 . S
C1019 H990 0.950 . S
C1019 C1018 1.397 . S
C1019 C1020 1.334 . S
C1020 H991 0.950 . S
C1020 C1019 1.334 . S
C1020 C1021 1.287 . S
C1021 C1020 1.287 . S
C1021 C1022 1.524 . S
C1021 H1024 0.999 . S
C1022 H992 0.950 . S
C1022 C1021 1.524 . S
C1022 C1023 1.415 . S
C1023 H993 0.950 . S
C1023 C1018 1.363 . S
C1023 C1022 1.415 . S
H1024 C1021 0.999 . S
H1025 C1006 0.913 . S
H1026 C1044 0.951 . S
H1027 C1046 0.951 . S
H1028 C1048 0.950 . S
H1029 C1049 0.950 . S
H1030 C1051 0.950 . S
H1031 C1054 0.950 . S
H1032 C1055 0.950 . S
H1033 C1057 0.950 . S
H1034 C1058 0.950 . S
H1035 C1059 0.951 . S
H1036 C1061 0.951 . S
H1037 C1063 0.950 . S
H1038 C1064 0.950 . S
H1039 C1066 0.950 . S
H1040 C1069 0.950 . S
H1041 C1070 0.950 . S
H1042 C1072 0.950 . S
H1043 C1073 0.950 . S
C1044 H1026 0.951 . S
C1044 C1045 1.366 . S
C1044 C1046 1.388 . S
C1045 C1044 1.366 . S
C1045 C1049 1.385 . S
C1046 H1027 0.951 . S
C1046 C1044 1.388 . S
C1046 C1047 1.366 . S
C1047 C1046 1.366 . S
C1047 C1048 1.414 . S
C1047 C1050 1.499 . S
C1048 H1028 0.950 . S
C1048 C1047 1.414 . S
C1048 C1049 1.374 . S
C1049 H1029 0.950 . S
C1049 C1045 1.385 . S
C1049 C1048 1.374 . S
C1050 C1047 1.499 . S
C1050 C1051 1.373 . S
C1050 C1052 1.389 . S
C1051 H1030 0.950 . S
C1051 C1050 1.373 . S
C1051 C1067 1.377 . S
C1052 C1050 1.389 . S
C1052 C1053 1.524 . S
C1052 C1066 1.377 . S
C1053 C1052 1.524 . S
C1053 C1054 1.397 . S
C1053 C1058 1.363 . S
C1054 H1031 0.950 . S
C1054 C1053 1.397 . S
C1054 C1055 1.334 . S
C1055 H1032 0.950 . S
C1055 C1054 1.334 . S
C1055 C1056 1.287 . S
C1056 C1055 1.287 . S
C1056 C1057 1.524 . S
C1056 H1075 0.913 . S
C1057 H1033 0.950 . S
C1057 C1056 1.524 . S
C1057 C1058 1.415 . S
C1058 H1034 0.950 . S
C1058 C1053 1.363 . S
C1058 C1057 1.415 . S
C1059 H1035 0.951 . S
C1059 C1060 1.366 . S
C1059 C1061 1.388 . S
C1060 C1059 1.366 . S
C1060 C1064 1.385 . S
C1061 H1036 0.951 . S
C1061 C1059 1.388 . S
C1061 C1062 1.366 . S
C1062 C1061 1.366 . S
C1062 C1063 1.414 . S
C1062 C1065 1.499 . S
C1063 H1037 0.950 . S
C1063 C1062 1.414 . S
C1063 C1064 1.374 . S
C1064 H1038 0.950 . S
C1064 C1060 1.385 . S
C1064 C1063 1.374 . S
C1065 C1062 1.499 . S
C1065 C1066 1.373 . S
C1065 C1067 1.389 . S
C1066 H1039 0.950 . S
C1066 C1052 1.377 . S
C1066 C1065 1.373 . S
C1067 C1051 1.377 . S
C1067 C1065 1.389 . S
C1067 C1068 1.524 . S
C1068 C1067 1.524 . S
C1068 C1069 1.397 . S
C1068 C1073 1.363 . S
C1069 H1040 0.950 . S
C1069 C1068 1.397 . S
C1069 C1070 1.334 . S
C1070 H1041 0.950 . S
C1070 C1069 1.334 . S
C1070 C1071 1.287 . S
C1071 C1070 1.287 . S
C1071 C1072 1.524 . S
C1071 H1074 0.999 . S
C1072 H1042 0.950 . S
C1072 C1071 1.524 . S
C1072 C1073 1.415 . S
C1073 H1043 0.950 . S
C1073 C1068 1.363 . S
C1073 C1072 1.415 . S
H1074 C1071 0.999 . S
H1075 C1056 0.913 . S
H1076 C1094 0.951 . S
H1077 C1096 0.951 . S
H1078 C1098 0.950 . S
H1079 C1099 0.950 . S
H1080 C1101 0.950 . S
H1081 C1104 0.950 . S
H1082 C1105 0.950 . S
H1083 C1107 0.950 . S
H1084 C1108 0.950 . S
H1085 C1109 0.951 . S
H1086 C1111 0.951 . S
H1087 C1113 0.950 . S
H1088 C1114 0.958 . S
H1089 C1116 0.950 . S
H1090 C1119 0.950 . S
H1091 C1120 0.950 . S
H1092 C1122 0.950 . S
H1093 C1123 0.950 . S
C1094 H1076 0.951 . S
C1094 C1095 1.366 . S
C1094 C1096 1.388 . S
C1095 C1094 1.366 . S
C1095 C1099 1.385 . S
C1096 H1077 0.951 . S
C1096 C1094 1.388 . S
C1096 C1097 1.366 . S
C1097 C1096 1.366 . S
C1097 C1098 1.414 . S
C1097 C1100 1.499 . S
C1098 H1078 0.950 . S
C1098 C1097 1.414 . S
C1098 C1099 1.374 . S
C1099 H1079 0.950 . S
C1099 C1095 1.385 . S
C1099 C1098 1.374 . S
C1100 C1097 1.499 . S
C1100 C1101 1.373 . S
C1100 C1102 1.389 . S
C1101 H1080 0.950 . S
C1101 C1100 1.373 . S
C1101 C1117 1.377 . S
C1102 C1100 1.389 . S
C1102 C1103 1.524 . S
C1102 C1116 1.377 . S
C1103 C1102 1.524 . S
C1103 C1104 1.397 . S
C1103 C1108 1.363 . S
C1104 H1081 0.950 . S
C1104 C1103 1.397 . S
C1104 C1105 1.334 . S
C1105 H1082 0.950 . S
C1105 C1104 1.334 . S
C1105 C1106 1.287 . S
C1106 C1105 1.287 . S
C1106 C1107 1.524 . S
C1106 H1125 0.913 . S
C1107 H1083 0.950 . S
C1107 C1106 1.524 . S
C1107 C1108 1.415 . S
C1108 H1084 0.950 . S
C1108 C1103 1.363 . S
C1108 C1107 1.415 . S
C1109 H1085 0.951 . S
C1109 C1110 1.366 1_554 S
C1109 C1111 1.388 . S
C1110 C1109 1.366 1_556 S
C1110 C1114 1.385 1_556 S
C1111 H1086 0.951 . S
C1111 C1109 1.388 . S
C1111 C1112 1.366 . S
C1112 C1111 1.366 . S
C1112 C1113 1.414 . S
C1112 C1115 1.499 . S
C1113 H1087 0.950 . S
C1113 C1112 1.414 . S
C1113 C1114 1.374 . S
C1114 H1088 0.958 . S
C1114 C1110 1.385 1_554 S
C1114 C1113 1.374 . S
C1115 C1112 1.499 . S
C1115 C1116 1.373 . S
C1115 C1117 1.389 . S
C1116 H1089 0.950 . S
C1116 C1102 1.377 . S
C1116 C1115 1.373 . S
C1117 C1101 1.377 . S
C1117 C1115 1.389 . S
C1117 C1118 1.524 . S
C1118 C1117 1.524 . S
C1118 C1119 1.397 . S
C1118 C1123 1.363 . S
C1119 H1090 0.950 . S
C1119 C1118 1.397 . S
C1119 C1120 1.334 . S
C1120 H1091 0.950 . S
C1120 C1119 1.334 . S
C1120 C1121 1.287 . S
C1121 C1120 1.287 . S
C1121 C1122 1.524 . S
C1121 H1124 0.999 . S
C1122 H1092 0.950 . S
C1122 C1121 1.524 . S
C1122 C1123 1.415 . S
C1123 H1093 0.950 . S
C1123 C1118 1.363 . S
C1123 C1122 1.415 . S
H1124 C1121 0.999 . S
H1125 C1106 0.913 . S
H1126 C1144 0.951 . S
H1127 C1146 0.951 . S
H1128 C1148 0.950 . S
H1129 C1149 0.950 . S
H1130 C1151 0.950 . S
H1131 C1154 0.950 . S
H1132 C1155 0.950 . S
H1133 C1157 0.950 . S
H1134 C1158 0.950 . S
H1135 C1159 0.951 . S
H1136 C1161 0.951 . S
H1137 C1163 0.950 . S
H1138 C1164 0.950 . S
H1139 C1166 0.950 . S
H1140 C1169 0.950 . S
H1141 C1170 0.950 . S
H1142 C1172 0.950 . S
H1143 C1173 0.950 . S
C1144 H1126 0.951 . S
C1144 C1145 1.366 . S
C1144 C1146 1.388 . S
C1145 C1144 1.366 . S
C1145 C1149 1.385 . S
C1146 H1127 0.951 . S
C1146 C1144 1.388 . S
C1146 C1147 1.366 . S
C1147 C1146 1.366 . S
C1147 C1148 1.414 . S
C1147 C1150 1.499 . S
C1148 H1128 0.950 . S
C1148 C1147 1.414 . S
C1148 C1149 1.374 . S
C1149 H1129 0.950 . S
C1149 C1145 1.385 . S
C1149 C1148 1.374 . S
C1150 C1147 1.499 . S
C1150 C1151 1.373 . S
C1150 C1152 1.389 . S
C1151 H1130 0.950 . S
C1151 C1150 1.373 . S
C1151 C1167 1.377 . S
C1152 C1150 1.389 . S
C1152 C1153 1.524 . S
C1152 C1166 1.377 . S
C1153 C1152 1.524 . S
C1153 C1154 1.397 . S
C1153 C1158 1.363 . S
C1154 H1131 0.950 . S
C1154 C1153 1.397 . S
C1154 C1155 1.334 . S
C1155 H1132 0.950 . S
C1155 C1154 1.334 . S
C1155 C1156 1.287 . S
C1156 C1155 1.287 . S
C1156 C1157 1.524 . S
C1156 H1175 0.913 . S
C1157 H1133 0.950 . S
C1157 C1156 1.524 . S
C1157 C1158 1.415 . S
C1158 H1134 0.950 . S
C1158 C1153 1.363 . S
C1158 C1157 1.415 . S
C1159 H1135 0.951 . S
C1159 C1160 1.366 . S
C1159 C1161 1.388 . S
C1160 C1159 1.366 . S
C1160 C1164 1.385 . S
C1161 H1136 0.951 . S
C1161 C1159 1.388 . S
C1161 C1162 1.366 . S
C1162 C1161 1.366 . S
C1162 C1163 1.414 . S
C1162 C1165 1.499 . S
C1163 H1137 0.950 . S
C1163 C1162 1.414 . S
C1163 C1164 1.374 . S
C1164 H1138 0.950 . S
C1164 C1160 1.385 . S
C1164 C1163 1.374 . S
C1165 C1162 1.499 . S
C1165 C1166 1.373 . S
C1165 C1167 1.389 . S
C1166 H1139 0.950 . S
C1166 C1152 1.377 . S
C1166 C1165 1.373 . S
C1167 C1151 1.377 . S
C1167 C1165 1.389 . S
C1167 C1168 1.524 . S
C1168 C1167 1.524 . S
C1168 C1169 1.397 . S
C1168 C1173 1.363 . S
C1169 H1140 0.950 . S
C1169 C1168 1.397 . S
C1169 C1170 1.334 . S
C1170 H1141 0.950 . S
C1170 C1169 1.334 . S
C1170 C1171 1.287 . S
C1171 C1170 1.287 . S
C1171 C1172 1.524 . S
C1171 H1174 0.999 . S
C1172 H1142 0.950 . S
C1172 C1171 1.524 . S
C1172 C1173 1.415 . S
C1173 H1143 0.950 . S
C1173 C1168 1.363 . S
C1173 C1172 1.415 . S
H1174 C1171 0.999 . S
H1175 C1156 0.913 . S
H1176 C1194 0.951 1_554 S
H1177 C1196 0.951 . S
H1178 C1198 0.950 . S
H1179 C1199 0.950 . S
H1180 C1201 0.950 . S
H1181 C1204 0.950 . S
H1182 C1205 0.950 . S
H1183 C1207 0.950 1_545 S
H1184 C1208 0.950 1_545 S
H1185 C1209 0.951 . S
H1186 C1211 0.984 . S
H1187 C1213 0.950 . S
H1188 C1214 0.950 . S
H1189 C1216 0.950 . S
H1190 C1219 0.950 . S
H1191 C1220 0.950 . S
H1192 C1222 0.950 . S
H1193 C1223 0.950 . S
C1194 H1176 0.951 1_556 S
C1194 C1195 1.366 1_556 S
C1194 C1196 1.388 . S
C1195 C1194 1.366 1_554 S
C1195 C1199 1.385 1_554 S
C1196 H1177 0.951 . S
C1196 C1194 1.388 . S
C1196 C1197 1.366 . S
C1197 C1196 1.366 . S
C1197 C1198 1.414 . S
C1197 C1200 1.499 . S
C1198 H1178 0.950 . S
C1198 C1197 1.414 . S
C1198 C1199 1.374 . S
C1199 H1179 0.950 . S
C1199 C1195 1.385 1_556 S
C1199 C1198 1.374 . S
C1200 C1197 1.499 . S
C1200 C1201 1.373 . S
C1200 C1202 1.389 . S
C1201 H1180 0.950 . S
C1201 C1200 1.373 . S
C1201 C1217 1.377 . S
C1202 C1200 1.389 . S
C1202 C1203 1.524 . S
C1202 C1216 1.377 1_565 S
C1203 C1202 1.524 . S
C1203 C1204 1.397 . S
C1203 C1208 1.363 . S
C1204 H1181 0.950 . S
C1204 C1203 1.397 . S
C1204 C1205 1.334 . S
C1205 H1182 0.950 . S
C1205 C1204 1.334 . S
C1205 C1206 1.287 . S
C1206 C1205 1.287 . S
C1206 C1207 1.524 . S
C1206 H1225 0.913 . S
C1207 H1183 0.950 1_565 S
C1207 C1206 1.524 . S
C1207 C1208 1.415 . S
C1208 H1184 0.950 1_565 S
C1208 C1203 1.363 . S
C1208 C1207 1.415 . S
C1209 H1185 0.951 . S
C1209 C1210 1.366 . S
C1209 C1211 1.388 . S
C1210 C1209 1.366 . S
C1210 C1214 1.385 . S
C1211 H1186 0.984 . S
C1211 C1209 1.388 . S
C1211 C1212 1.366 . S
C1212 C1211 1.366 . S
C1212 C1213 1.414 . S
C1212 C1215 1.499 . S
C1213 H1187 0.950 . S
C1213 C1212 1.414 . S
C1213 C1214 1.374 . S
C1214 H1188 0.950 . S
C1214 C1210 1.385 . S
C1214 C1213 1.374 . S
C1215 C1212 1.499 . S
C1215 C1216 1.373 . S
C1215 C1217 1.389 1_545 S
C1216 H1189 0.950 . S
C1216 C1202 1.377 1_545 S
C1216 C1215 1.373 . S
C1217 C1201 1.377 . S
C1217 C1215 1.389 1_565 S
C1217 C1218 1.524 1_565 S
C1218 C1217 1.524 1_545 S
C1218 C1219 1.397 . S
C1218 C1223 1.363 1_545 S
C1219 H1190 0.950 . S
C1219 C1218 1.397 . S
C1219 C1220 1.334 . S
C1220 H1191 0.950 . S
C1220 C1219 1.334 . S
C1220 C1221 1.287 . S
C1221 C1220 1.287 . S
C1221 C1222 1.524 1_545 S
C1221 H1224 0.999 . S
C1222 H1192 0.950 . S
C1222 C1221 1.524 1_565 S
C1222 C1223 1.415 . S
C1223 H1193 0.950 . S
C1223 C1218 1.363 1_565 S
C1223 C1222 1.415 . S
H1224 C1221 0.999 . S
H1225 C1206 0.913 . S
H1226 C1244 0.951 . S
H1227 C1246 0.951 . S
H1228 C1248 0.950 1_565 S
H1229 C1249 0.950 . S
H1230 C1251 0.950 . S
H1231 C1254 0.950 1_565 S
H1232 C1255 0.950 . S
H1233 C1257 0.950 . S
H1234 C1258 0.950 . S
H1235 C1259 0.951 . S
H1236 C1261 0.951 . S
H1237 C1263 0.950 . S
H1238 C1264 0.950 . S
H1239 C1266 0.950 . S
H1240 C1269 0.950 . S
H1241 C1270 0.950 . S
H1242 C1272 0.950 . S
H1243 C1273 0.950 . S
C1244 H1226 0.951 . S
C1244 C1245 1.366 . S
C1244 C1246 1.388 . S
C1245 C1244 1.366 . S
C1245 C1249 1.385 . S
C1246 H1227 0.951 . S
C1246 C1244 1.388 . S
C1246 C1247 1.366 . S
C1247 C1246 1.366 . S
C1247 C1248 1.414 . S
C1247 C1250 1.499 . S
C1248 H1228 0.950 1_545 S
C1248 C1247 1.414 . S
C1248 C1249 1.374 . S
C1249 H1229 0.950 . S
C1249 C1245 1.385 . S
C1249 C1248 1.374 . S
C1250 C1247 1.499 . S
C1250 C1251 1.373 1_545 S
C1250 C1252 1.389 . S
C1251 H1230 0.950 . S
C1251 C1250 1.373 1_565 S
C1251 C1267 1.377 . S
C1252 C1250 1.389 . S
C1252 C1253 1.524 . S
C1252 C1266 1.377 1_545 S
C1253 C1252 1.524 . S
C1253 C1254 1.397 . S
C1253 C1258 1.363 . S
C1254 H1231 0.950 1_545 S
C1254 C1253 1.397 . S
C1254 C1255 1.334 . S
C1255 H1232 0.950 . S
C1255 C1254 1.334 . S
C1255 C1256 1.287 . S
C1256 C1255 1.287 . S
C1256 C1257 1.524 . S
C1256 H1275 0.913 . S
C1257 H1233 0.950 . S
C1257 C1256 1.524 . S
C1257 C1258 1.415 . S
C1258 H1234 0.950 . S
C1258 C1253 1.363 . S
C1258 C1257 1.415 . S
C1259 H1235 0.951 . S
C1259 C1260 1.366 . S
C1259 C1261 1.388 . S
C1260 C1259 1.366 . S
C1260 C1264 1.385 . S
C1261 H1236 0.951 . S
C1261 C1259 1.388 . S
C1261 C1262 1.366 . S
C1262 C1261 1.366 . S
C1262 C1263 1.414 . S
C1262 C1265 1.499 . S
C1263 H1237 0.950 . S
C1263 C1262 1.414 . S
C1263 C1264 1.374 . S
C1264 H1238 0.950 . S
C1264 C1260 1.385 . S
C1264 C1263 1.374 . S
C1265 C1262 1.499 . S
C1265 C1266 1.373 . S
C1265 C1267 1.389 . S
C1266 H1239 0.950 . S
C1266 C1252 1.377 1_565 S
C1266 C1265 1.373 . S
C1267 C1251 1.377 . S
C1267 C1265 1.389 . S
C1267 C1268 1.524 . S
C1268 C1267 1.524 . S
C1268 C1269 1.397 . S
C1268 C1273 1.363 . S
C1269 H1240 0.950 . S
C1269 C1268 1.397 . S
C1269 C1270 1.334 . S
C1270 H1241 0.950 . S
C1270 C1269 1.334 . S
C1270 C1271 1.287 . S
C1271 C1270 1.287 . S
C1271 C1272 1.524 . S
C1271 H1274 0.999 . S
C1272 H1242 0.950 . S
C1272 C1271 1.524 . S
C1272 C1273 1.415 . S
C1273 H1243 0.950 . S
C1273 C1268 1.363 . S
C1273 C1272 1.415 . S
H1274 C1271 0.999 . S
H1275 C1256 0.913 . S
H1276 C1294 0.951 . S
H1277 C1296 0.951 . S
H1278 C1298 0.950 . S
H1279 C1299 0.950 . S
H1280 C1301 0.950 1_565 S
H1281 C1304 0.950 . S
H1282 C1305 0.950 . S
H1283 C1307 0.950 1_545 S
H1284 C1308 0.950 . S
H1285 C1309 0.951 1_556 S
H1286 C1311 0.951 . S
H1287 C1313 0.950 . S
H1288 C1314 0.950 . S
H1289 C1316 0.950 . S
H1290 C1319 0.950 . S
H1291 C1320 0.950 . S
H1292 C1322 0.950 . S
H1293 C1323 0.950 1_565 S
C1294 H1276 0.951 . S
C1294 C1295 1.366 . S
C1294 C1296 1.388 . S
C1295 C1294 1.366 . S
C1295 C1299 1.385 . S
C1296 H1277 0.951 . S
C1296 C1294 1.388 . S
C1296 C1297 1.366 . S
C1297 C1296 1.366 . S
C1297 C1298 1.414 . S
C1297 C1300 1.499 . S
C1298 H1278 0.950 . S
C1298 C1297 1.414 . S
C1298 C1299 1.374 . S
C1299 H1279 0.950 . S
C1299 C1295 1.385 . S
C1299 C1298 1.374 . S
C1300 C1297 1.499 . S
C1300 C1301 1.373 1_565 S
C1300 C1302 1.393 . S
C1301 H1280 0.950 1_545 S
C1301 C1300 1.373 1_545 S
C1301 C1317 1.377 . S
C1302 C1300 1.393 . S
C1302 C1303 1.530 . S
C1302 C1316 1.368 1_565 S
C1303 C1302 1.530 . S
C1303 C1304 1.397 . S
C1303 C1308 1.363 1_565 S
C1304 H1281 0.950 . S
C1304 C1303 1.397 . S
C1304 C1305 1.334 . S
C1305 H1282 0.950 . S
C1305 C1304 1.334 . S
C1305 C1306 1.287 . S
C1306 C1305 1.287 . S
C1306 C1307 1.524 . S
C1306 H1325 0.913 . S
C1307 H1283 0.950 1_565 S
C1307 C1306 1.524 . S
C1307 C1308 1.415 1_565 S
C1308 H1284 0.950 . S
C1308 C1303 1.363 1_545 S
C1308 C1307 1.415 1_545 S
C1309 H1285 0.951 1_554 S
C1309 C1310 1.366 1_554 S
C1309 C1311 1.388 . S
C1310 C1309 1.366 1_556 S
C1310 C1314 1.385 1_556 S
C1311 H1286 0.951 . S
C1311 C1309 1.388 . S
C1311 C1312 1.366 . S
C1312 C1311 1.366 . S
C1312 C1313 1.414 . S
C1312 C1315 1.499 . S
C1313 H1287 0.950 . S
C1313 C1312 1.414 . S
C1313 C1314 1.374 . S
C1314 H1288 0.950 . S
C1314 C1310 1.385 1_554 S
C1314 C1313 1.374 . S
C1315 C1312 1.499 . S
C1315 C1316 1.373 . S
C1315 C1317 1.389 . S
C1316 H1289 0.950 . S
C1316 C1302 1.368 1_545 S
C1316 C1315 1.373 . S
C1317 C1301 1.377 . S
C1317 C1315 1.389 . S
C1317 C1318 1.524 . S
C1318 C1317 1.524 . S
C1318 C1319 1.397 . S
C1318 C1323 1.363 . S
C1319 H1290 0.950 . S
C1319 C1318 1.397 . S
C1319 C1320 1.334 . S
C1320 H1291 0.950 . S
C1320 C1319 1.334 . S
C1320 C1321 1.287 . S
C1321 C1320 1.287 . S
C1321 C1322 1.524 . S
C1321 H1324 0.999 . S
C1322 H1292 0.950 . S
C1322 C1321 1.524 . S
C1322 C1323 1.415 . S
C1323 H1293 0.950 1_545 S
C1323 C1318 1.363 . S
C1323 C1322 1.415 . S
H1324 C1321 0.999 . S
H1325 C1306 0.913 . S
H1326 C1344 0.951 . S
H1327 C1346 0.951 . S
H1328 C1348 0.950 . S
H1329 C1349 0.950 . S
H1330 C1351 0.950 1_565 S
H1331 C1354 0.950 . S
H1332 C1355 0.950 . S
H1333 C1357 0.950 . S
H1334 C1358 0.950 . S
H1335 C1359 0.951 . S
H1336 C1361 0.951 . S
H1337 C1363 0.950 . S
H1338 C1364 0.950 . S
H1339 C1366 0.950 . S
H1340 C1369 0.950 . S
H1341 C1370 0.950 . S
H1342 C1372 0.950 . S
H1343 C1373 0.950 . S
C1344 H1326 0.951 . S
C1344 C1345 1.366 . S
C1344 C1346 1.388 . S
C1345 C1344 1.366 . S
C1345 C1349 1.385 . S
C1346 H1327 0.951 . S
C1346 C1344 1.388 . S
C1346 C1347 1.366 . S
C1347 C1346 1.366 . S
C1347 C1348 1.414 . S
C1347 C1350 1.499 . S
C1348 H1328 0.950 . S
C1348 C1347 1.414 . S
C1348 C1349 1.374 . S
C1349 H1329 0.950 . S
C1349 C1345 1.385 . S
C1349 C1348 1.374 . S
C1350 C1347 1.499 . S
C1350 C1351 1.373 . S
C1350 C1352 1.389 . S
C1351 H1330 0.950 1_545 S
C1351 C1350 1.373 . S
C1351 C1367 1.377 1_545 S
C1352 C1350 1.389 . S
C1352 C1353 1.524 . S
C1352 C1366 1.377 . S
C1353 C1352 1.524 . S
C1353 C1354 1.397 . S
C1353 C1358 1.363 . S
C1354 H1331 0.950 . S
C1354 C1353 1.397 . S
C1354 C1355 1.334 . S
C1355 H1332 0.950 . S
C1355 C1354 1.334 . S
C1355 C1356 1.287 . S
C1356 C1355 1.287 . S
C1356 C1357 1.524 . S
C1356 H1375 0.913 . S
C1357 H1333 0.950 . S
C1357 C1356 1.524 . S
C1357 C1358 1.415 . S
C1358 H1334 0.950 . S
C1358 C1353 1.363 . S
C1358 C1357 1.415 . S
C1359 H1335 0.951 . S
C1359 C1360 1.366 . S
C1359 C1361 1.388 . S
C1360 C1359 1.366 . S
C1360 C1364 1.385 . S
C1361 H1336 0.951 . S
C1361 C1359 1.388 . S
C1361 C1362 1.366 . S
C1362 C1361 1.366 . S
C1362 C1363 1.414 . S
C1362 C1365 1.499 . S
C1363 H1337 0.950 . S
C1363 C1362 1.414 . S
C1363 C1364 1.374 . S
C1364 H1338 0.950 . S
C1364 C1360 1.385 . S
C1364 C1363 1.374 . S
C1365 C1362 1.499 . S
C1365 C1366 1.373 1_565 S
C1365 C1367 1.389 . S
C1366 H1339 0.950 . S
C1366 C1352 1.377 . S
C1366 C1365 1.373 1_545 S
C1367 C1351 1.377 1_565 S
C1367 C1365 1.389 . S
C1367 C1368 1.524 . S
C1368 C1367 1.524 . S
C1368 C1369 1.397 . S
C1368 C1373 1.363 . S
C1369 H1340 0.950 . S
C1369 C1368 1.397 . S
C1369 C1370 1.334 . S
C1370 H1341 0.950 . S
C1370 C1369 1.334 . S
C1370 C1371 1.287 . S
C1371 C1370 1.287 . S
C1371 C1372 1.524 . S
C1371 H1374 0.999 . S
C1372 H1342 0.950 . S
C1372 C1371 1.524 . S
C1372 C1373 1.415 . S
C1373 H1343 0.950 . S
C1373 C1368 1.363 . S
C1373 C1372 1.415 . S
H1374 C1371 0.999 . S
H1375 C1356 0.913 . S
C195 C40 1.310 . S
C210 C8 1.310 . S
C245 C62 1.310 . S
C260 C74 1.310 . S
C295 C128 1.309 . S
C310 C96 1.309 . S
C345 C150 1.310 . S
C360 C162 1.310 . S
C395 C18 1.625 . S
C410 C142 1.625 . S
C445 C32 1.625 . S
C460 C172 1.625 . S
C495 C106 1.625 . S
C510 C54 1.625 . S
C545 C84 1.626 . S
C560 C120 1.626 . S
C595 C65 0.810 . S
C610 C15 0.810 . S
C645 C81 0.809 . S
C660 C43 0.809 . S
C695 C103 0.808 . S
C710 C153 0.808 . S
C745 C131 0.809 . S
C760 C169 0.809 . S
C795 C7 1.435 . S
C810 C37 1.435 . S
C845 C73 1.435 . S
C860 C59 1.435 . S
C895 C125 1.435 . S
C910 C95 1.435 . S
C945 C161 1.435 . S
C960 C147 1.435 . S
C995 C10 1.174 . S
C1010 C87 1.207 . S
C1045 C30 1.173 . S
C1060 C51 1.207 . S
C1095 C29 1.207 . S
C1110 C52 1.173 . S
C1145 C21 1.207 . S
C1160 C76 1.173 . S
C1195 C98 1.174 . S
C1210 C175 1.207 . S
C1245 C139 1.207 . S
C1260 C118 1.174 . S
C1295 C117 1.207 . S
C1310 C140 1.173 . S
C1345 C164 1.173 . S
C1360 C109 1.207 . S
