# Generated by pormake.
# Topology pts-e, (5)-cn, num edge types: 1
# Building blocks:
#     Node 0, Type 0, BuildingBlock: XOMCOT_clean_sbu_0, # of connection points: 5
#     Node 1, Type 0, BuildingBlock: XOMCOT_clean_sbu_0, # of connection points: 5
#     Node 2, Type 0, BuildingBlock: XOMCOT_clean_sbu_0, # of connection points: 5
#     Node 3, Type 0, BuildingBlock: XOMCOT_clean_sbu_0, # of connection points: 5
#     Node 4, Type 0, BuildingBlock: XOMCOT_clean_sbu_0, # of connection points: 5
#     Node 5, Type 0, BuildingBlock: XOMCOT_clean_sbu_0, # of connection points: 5
#     Node 6, Type 0, BuildingBlock: XOMCOT_clean_sbu_0, # of connection points: 5
#     Node 7, Type 0, BuildingBlock: XOMCOT_clean_sbu_0, # of connection points: 5
#     Edge 8, Type (0, 0), BuildingBlock: TEMPAE_clean_linker_10, # of connection points: 2
#     Edge 9, Type (0, 0), BuildingBlock: TEMPAE_clean_linker_10, # of connection points: 2
#     Edge 10, Type (0, 0), BuildingBlock: TEMPAE_clean_linker_10, # of connection points: 2
#     Edge 11, Type (0, 0), BuildingBlock: TEMPAE_clean_linker_10, # of connection points: 2
#     Edge 12, Type (0, 0), BuildingBlock: TEMPAE_clean_linker_10, # of connection points: 2
#     Edge 13, Type (0, 0), BuildingBlock: TEMPAE_clean_linker_10, # of connection points: 2
#     Edge 14, Type (0, 0), BuildingBlock: TEMPAE_clean_linker_10, # of connection points: 2
#     Edge 15, Type (0, 0), BuildingBlock: TEMPAE_clean_linker_10, # of connection points: 2
#     Edge 16, Type (0, 0), BuildingBlock: TEMPAE_clean_linker_10, # of connection points: 2
#     Edge 17, Type (0, 0), BuildingBlock: TEMPAE_clean_linker_10, # of connection points: 2
#     Edge 18, Type (0, 0), BuildingBlock: TEMPAE_clean_linker_10, # of connection points: 2
#     Edge 19, Type (0, 0), BuildingBlock: TEMPAE_clean_linker_10, # of connection points: 2
#     Edge 20, Type (0, 0), BuildingBlock: TEMPAE_clean_linker_10, # of connection points: 2
#     Edge 21, Type (0, 0), BuildingBlock: TEMPAE_clean_linker_10, # of connection points: 2
#     Edge 22, Type (0, 0), BuildingBlock: TEMPAE_clean_linker_10, # of connection points: 2
#     Edge 23, Type (0, 0), BuildingBlock: TEMPAE_clean_linker_10, # of connection points: 2
#     Edge 24, Type (0, 0), BuildingBlock: TEMPAE_clean_linker_10, # of connection points: 2
#     Edge 25, Type (0, 0), BuildingBlock: TEMPAE_clean_linker_10, # of connection points: 2
#     Edge 26, Type (0, 0), BuildingBlock: TEMPAE_clean_linker_10, # of connection points: 2
#     Edge 27, Type (0, 0), BuildingBlock: TEMPAE_clean_linker_10, # of connection points: 2
# Relax obj value: 0.536
# Max RMSD: 0.259
# Mean RMSD: 0.259
data_MOF--net-pts-e--node1-XOMCOT_clean_sbu_0--edge1-TEMPAE_clean_linker_10
_symmetry_space_group_name_H-M    P1
_symmetry_Int_Tables_number       1
_symmetry_cell_setting            triclinic
loop_
_symmetry_equiv_pos_as_xyz
'x, y, z'
_cell_length_a     34.457089
_cell_length_b     34.548465
_cell_length_c     48.540183
_cell_angle_alpha  89.980314
_cell_angle_beta   89.990563
_cell_angle_gamma 90.074917
loop_
_atom_site_label
_atom_site_type_symbol
_atom_site_fract_x
_atom_site_fract_y
_atom_site_fract_z
_atom_type_partial_charge
Co0 Co 0.27844 0.00605 0.14111 0.0
C1 C 0.35882 0.99193 0.16064 0.0
C2 C 0.33279 0.94045 0.14459 0.0
C3 C 0.37093 0.93248 0.15123 0.0
N4 N 0.32533 0.97792 0.15042 0.0
N5 N 0.38693 0.96503 0.16149 0.0
H6 H 0.36404 0.0216 0.16589 0.0
H7 H 0.31233 0.92069 0.1352 0.0
C8 C 0.25607 0.95304 0.18701 0.0
O9 O 0.28943 0.96113 0.19879 0.0
N10 N 0.23197 0.03376 0.13137 0.0
C11 C 0.22887 0.07232 0.1277 0.0
C12 C 0.19024 0.08153 0.12483 0.0
C13 C 0.19551 0.01985 0.1301 0.0
N14 N 0.16954 0.0485 0.12629 0.0
C15 C 0.31182 0.0717 0.16846 0.0
C16 C 0.25666 0.07648 0.20936 0.0
C17 C 0.28427 0.10628 0.20703 0.0
C18 C 0.31284 0.10288 0.18666 0.0
C19 C 0.25748 0.04523 0.19132 0.0
N20 N 0.28516 0.04261 0.17129 0.0
H21 H 0.33157 0.07209 0.15121 0.0
H22 H 0.23342 0.02533 0.19202 0.0
H23 H 0.25286 0.09251 0.12823 0.0
H24 H 0.1879 0.98977 0.13326 0.0
O25 O 0.30637 0.03377 0.11299 0.0
O26 O 0.27545 0.97805 0.10683 0.0
O27 O 0.24685 0.96917 0.16425 0.0
C28 C 0.29586 0.0062 0.09639 0.0
H29 H 0.38602 0.90542 0.14794 0.0
H30 H 0.17817 0.11026 0.12248 0.0
H31 H 0.23252 0.07845 0.22355 0.0
H32 H 0.33466 0.12506 0.18372 0.0
Co33 Co 0.02469 0.27731 0.6501 0.0
C34 C 0.03581 0.35968 0.66563 0.0
C35 C 0.08898 0.33281 0.65322 0.0
C36 C 0.09656 0.37098 0.65951 0.0
N37 N 0.05079 0.32587 0.65701 0.0
N38 N 0.06301 0.38748 0.6675 0.0
H39 H 0.0056 0.36486 0.66963 0.0
H40 H 0.10979 0.31164 0.64612 0.0
C41 C 0.07271 0.2647 0.70058 0.0
O42 O 0.06238 0.29911 0.70944 0.0
N43 N -0.00026 0.22858 0.64293 0.0
C44 C 0.96253 0.22219 0.63573 0.0
C45 C 0.95692 0.18281 0.63336 0.0
C46 C 0.0163 0.19348 0.64471 0.0
N47 N 0.99077 0.16495 0.63916 0.0
C48 C 0.95447 0.31256 0.66854 0.0
C49 C 0.94452 0.26683 0.71456 0.0
C50 C 0.91381 0.29027 0.70565 0.0
C51 C 0.91947 0.31422 0.68286 0.0
C52 C 0.97894 0.26573 0.69949 0.0
N53 N 0.98379 0.28842 0.67668 0.0
H54 H 0.95695 0.32929 0.64986 0.0
H55 H -0.00019 0.24381 0.70484 0.0
H56 H 0.94098 0.2445 0.63268 0.0
H57 H 0.04657 0.18895 0.64965 0.0
O58 O 0.00038 0.2991 0.61804 0.0
O59 O 0.05733 0.26931 0.61815 0.0
O60 O 0.05897 0.25139 0.67807 0.0
C61 C 0.03027 0.28697 0.60429 0.0
H62 H 0.12431 0.38554 0.65801 0.0
H63 H 0.92993 0.16844 0.62828 0.0
H64 H 0.94063 0.24657 0.73139 0.0
H65 H 0.89609 0.33203 0.67501 0.0
Co66 Co 0.76908 0.03942 0.145 0.0
C67 C 0.68587 0.04426 0.15861 0.0
C68 C 0.7068 0.0981 0.14257 0.0
C69 C 0.66739 0.10139 0.14734 0.0
N70 N 0.71826 0.06217 0.14982 0.0
N71 N 0.6546 0.06742 0.15761 0.0
H72 H 0.68424 0.01432 0.16441 0.0
H73 H 0.72561 0.12008 0.13397 0.0
C74 C 0.779 0.09866 0.18995 0.0
O75 O 0.74328 0.09217 0.19821 0.0
N76 N 0.81944 0.01646 0.13978 0.0
C77 C 0.82742 0.97832 0.13817 0.0
C78 C 0.86696 0.97368 0.13652 0.0
C79 C 0.85401 0.03462 0.13845 0.0
N80 N 0.88342 0.00904 0.13665 0.0
C81 C 0.74088 0.96918 0.16876 0.0
C82 C 0.77777 0.9757 0.21888 0.0
C83 C 0.7605 0.94025 0.21182 0.0
C84 C 0.74066 0.93783 0.18673 0.0
C85 C 0.77858 0.00591 0.19984 0.0
N86 N 0.76021 0.00266 0.17499 0.0
H87 H 0.72701 0.96548 0.14903 0.0
H88 H 0.79659 0.03031 0.20473 0.0
H89 H 0.80611 0.95537 0.13841 0.0
H90 H 0.85767 0.06571 0.13943 0.0
O91 O 0.74908 0.009 0.11496 0.0
O92 O 0.77523 0.06733 0.11071 0.0
O93 O 0.79328 0.0794 0.1699 0.0
C94 C 0.75941 0.03732 0.099 0.0
H95 H 0.64954 0.12648 0.1432 0.0
H96 H 0.8825 0.94653 0.13521 0.0
H97 H 0.79305 0.97936 0.23819 0.0
H98 H 0.72749 0.91107 0.17986 0.0
Co99 Co 0.01889 0.76885 0.63954 0.0
C100 C 0.00708 0.68615 0.65433 0.0
C101 C 0.95596 0.71152 0.637 0.0
C102 C 0.94791 0.67352 0.64355 0.0
N103 N 0.99321 0.71931 0.64366 0.0
N104 N 0.98011 0.65803 0.6547 0.0
H105 H 0.03612 0.68194 0.66176 0.0
H106 H 0.93589 0.73213 0.62819 0.0
C107 C 0.96976 0.77608 0.69004 0.0
O108 O 0.98062 0.74113 0.69734 0.0
N109 N 0.04336 0.81845 0.63519 0.0
C110 C 0.08079 0.82596 0.62922 0.0
C111 C 0.08582 0.86554 0.62857 0.0
C112 C 0.02611 0.85308 0.63796 0.0
N113 N 0.0514 0.8824 0.63419 0.0
C114 C 0.08836 0.73187 0.65775 0.0
C115 C 0.09631 0.77294 0.70612 0.0
C116 C 0.12693 0.74943 0.69717 0.0
C117 C 0.12237 0.72804 0.67301 0.0
C118 C 0.06298 0.77635 0.69006 0.0
N119 N 0.05899 0.75571 0.66624 0.0
H120 H 0.0863 0.71652 0.63844 0.0
H121 H 0.04219 0.79819 0.69576 0.0
H122 H 0.10285 0.80425 0.62581 0.0
H123 H 0.99553 0.85671 0.64228 0.0
O124 O 0.04474 0.75051 0.60701 0.0
O125 O 0.98739 0.7795 0.60739 0.0
O126 O 0.98333 0.79157 0.66817 0.0
C127 C 0.01522 0.76352 0.59326 0.0
H128 H 0.9206 0.65857 0.64057 0.0
H129 H 0.11281 0.88069 0.62475 0.0
H130 H 0.09956 0.79141 0.72402 0.0
H131 H 0.14581 0.71033 0.66514 0.0
Co132 Co 0.28292 0.04087 0.84795 0.0
C133 C 0.36362 0.04478 0.82913 0.0
C134 C 0.34431 0.10016 0.84343 0.0
C135 C 0.38325 0.10273 0.83698 0.0
N136 N 0.33213 0.06376 0.83826 0.0
N137 N 0.39511 0.06777 0.82794 0.0
H138 H 0.36451 0.0141 0.82533 0.0
H139 H 0.32648 0.1228 0.85215 0.0
C140 C 0.26522 0.09909 0.80333 0.0
O141 O 0.29968 0.09346 0.79248 0.0
N142 N 0.23433 0.01718 0.85813 0.0
C143 C 0.22955 0.9806 0.86719 0.0
C144 C 0.19057 0.97363 0.87058 0.0
C145 C 0.19834 0.03207 0.85626 0.0
N146 N 0.17103 0.00596 0.86358 0.0
C147 C 0.30541 0.96829 0.8247 0.0
C148 C 0.2642 0.97448 0.77629 0.0
C149 C 0.28006 0.93848 0.78343 0.0
C150 C 0.30209 0.93608 0.80759 0.0
C151 C 0.26681 0.00547 0.79452 0.0
N152 N 0.28717 0.00238 0.81857 0.0
H153 H 0.3211 0.96483 0.84374 0.0
H154 H 0.24989 0.03053 0.78964 0.0
H155 H 0.25273 0.96009 0.87058 0.0
H156 H 0.19219 0.06131 0.84979 0.0
O157 O 0.30853 0.01287 0.87709 0.0
O158 O 0.28192 0.07088 0.8815 0.0
O159 O 0.25419 0.07929 0.82417 0.0
C160 C 0.30006 0.042 0.89285 0.0
H161 H 0.40162 0.12789 0.83965 0.0
H162 H 0.17757 0.94648 0.87685 0.0
H163 H 0.24756 0.97821 0.75756 0.0
H164 H 0.31455 0.90895 0.81436 0.0
Co165 Co 0.0119 0.27435 0.35253 0.0
C166 C 0.00446 0.35761 0.33748 0.0
C167 C 0.9508 0.33363 0.3517 0.0
C168 C 0.945 0.37221 0.34559 0.0
N169 N 0.9882 0.32453 0.34656 0.0
N170 N 0.97886 0.38689 0.33644 0.0
H171 H 0.03448 0.36131 0.33239 0.0
H172 H 0.92927 0.3136 0.35947 0.0
C173 C 0.95929 0.26388 0.3043 0.0
O174 O 0.97137 0.29753 0.29502 0.0
N175 N 0.03457 0.2243 0.3589 0.0
C176 C 0.07262 0.21582 0.36117 0.0
C177 C 0.07658 0.17621 0.36248 0.0
C178 C 0.01584 0.19013 0.35945 0.0
N179 N 0.04086 0.16035 0.36146 0.0
C180 C 0.08078 0.30631 0.32842 0.0
C181 C 0.08311 0.25715 0.28382 0.0
C182 C 0.11462 0.28227 0.28834 0.0
C183 C 0.11245 0.30794 0.3106 0.0
C184 C 0.0514 0.25748 0.30157 0.0
N185 N 0.05004 0.28225 0.32344 0.0
H186 H 0.08182 0.32358 0.34693 0.0
H187 H 0.02983 0.23516 0.299 0.0
H188 H 0.09588 0.23686 0.36099 0.0
H189 H 0.98472 0.18701 0.35728 0.0
O190 O 0.04127 0.29502 0.38282 0.0
O191 O 0.98257 0.26891 0.38619 0.0
O192 O 0.97313 0.25012 0.32667 0.0
C193 C 0.01228 0.28484 0.39832 0.0
H194 H 0.91817 0.38818 0.34777 0.0
H195 H 0.10354 0.16023 0.36371 0.0
H196 H 0.08391 0.23508 0.26802 0.0
H197 H 0.13583 0.32783 0.31523 0.0
Co198 Co 0.77093 0.99471 0.84851 0.0
C199 C 0.6892 0.98331 0.83276 0.0
C200 C 0.71199 0.93283 0.85258 0.0
C201 C 0.67316 0.92666 0.84702 0.0
N202 N 0.72188 0.96845 0.84355 0.0
N203 N 0.65922 0.95848 0.83437 0.0
H204 H 0.68642 0.01236 0.82505 0.0
H205 H 0.7314 0.91309 0.86301 0.0
C206 C 0.78506 0.93396 0.80533 0.0
O207 O 0.74914 0.93799 0.79677 0.0
N208 N 0.81939 0.02142 0.85394 0.0
C209 C 0.82362 0.0595 0.85908 0.0
C210 C 0.8625 0.06769 0.86137 0.0
C211 C 0.85558 0.00681 0.85329 0.0
N212 N 0.88253 0.03456 0.8577 0.0
C213 C 0.7404 0.06273 0.8231 0.0
C214 C 0.77933 0.05599 0.77377 0.0
C215 C 0.7618 0.09145 0.7803 0.0
C216 C 0.74066 0.0939 0.80488 0.0
C217 C 0.77989 0.0262 0.7931 0.0
N218 N 0.76085 0.02969 0.81767 0.0
H219 H 0.72549 0.06636 0.84245 0.0
H220 H 0.79842 0.00209 0.78867 0.0
H221 H 0.80009 0.07999 0.86099 0.0
H222 H 0.86203 0.97652 0.8501 0.0
O223 O 0.74809 0.0248 0.87775 0.0
O224 O 0.77801 0.96864 0.88339 0.0
O225 O 0.79815 0.95525 0.82477 0.0
C226 C 0.76009 -0.00206 0.89438 0.0
H227 H 0.65638 0.90124 0.85236 0.0
H228 H 0.87504 0.09596 0.86501 0.0
H229 H 0.79526 0.05213 0.75474 0.0
H230 H 0.72688 0.12058 0.81122 0.0
Co231 Co 0.01897 0.76814 0.34014 0.0
C232 C 0.03598 0.68606 0.32637 0.0
C233 C 0.08582 0.71521 0.34254 0.0
C234 C 0.09548 0.67704 0.33776 0.0
N235 N 0.04828 0.7207 0.33559 0.0
N236 N 0.064 0.65908 0.3274 0.0
H237 H 0.00696 0.67964 0.31978 0.0
H238 H 0.10469 0.73724 0.351 0.0
C239 C 0.06896 0.78124 0.29049 0.0
O240 O 0.06246 0.74538 0.28277 0.0
N241 N 0.99084 0.81575 0.34498 0.0
C242 C 0.9521 0.82141 0.34537 0.0
C243 C 0.94511 0.86052 0.34802 0.0
C244 C 0.00684 0.851 0.34796 0.0
N245 N 0.9796 0.87877 0.3498 0.0
C246 C 0.95242 0.72652 0.32165 0.0
C247 C 0.94109 0.76813 0.27389 0.0
C248 C 0.91155 0.74347 0.28333 0.0
C249 C 0.91823 0.72126 0.30686 0.0
C250 C 0.97496 0.77254 0.2893 0.0
N251 N 0.98024 0.75221 0.31314 0.0
H252 H 0.95549 0.71117 0.34089 0.0
H253 H 0.99467 0.79527 0.28337 0.0
H254 H 0.93043 0.79891 0.34362 0.0
H255 H 0.03782 0.8563 0.34822 0.0
O256 O 0.99443 0.74728 0.37248 0.0
O257 O 0.04948 0.78054 0.37244 0.0
O258 O 0.05274 0.79472 0.31209 0.0
C259 C 0.02279 0.7624 0.38639 0.0
H260 H 0.12313 0.66345 0.342 0.0
H261 H 0.91701 0.87446 0.34881 0.0
H262 H 0.93645 0.78701 0.25637 0.0
H263 H 0.89592 0.70233 0.315 0.0
C264 C 0.28183 0.98688 0.04808 0.0
C265 C 0.30384 0.00871 0.06668 0.0
C266 C 0.28543 0.99272 0.01964 0.0
C267 C 0.3122 0.02054 0.0097 0.0
C268 C 0.336 0.04117 0.02836 0.0
C269 C 0.33127 0.03526 0.05672 0.0
C270 C 0.25928 0.97042 0.00033 0.0
C271 C 0.36543 0.07043 0.01841 0.0
C272 C 0.33314 0.01286 0.9334 0.0
C273 C 0.30743 0.0404 0.92266 0.0
C274 C 0.33663 0.00746 0.9619 0.0
C275 C 0.31328 0.02965 0.97989 0.0
C276 C 0.2885 0.05865 0.96917 0.0
C277 C 0.28615 0.06393 0.94061 0.0
C278 C 0.36401 0.97691 0.97267 0.0
C279 C 0.26287 0.08262 0.98775 0.0
H280 H 0.2605 0.96645 0.05576 0.0
H281 H 0.34853 0.05197 0.07113 0.0
H282 H 0.2398 0.99079 0.98933 0.0
H283 H 0.27681 0.95521 0.98453 0.0
H284 H 0.24114 0.94876 0.01133 0.0
H285 H 0.38444 0.08091 0.03533 0.0
H286 H 0.38387 0.05769 0.00202 0.0
H287 H 0.35023 0.09566 0.00931 0.0
H288 H 0.34986 0.99485 0.91949 0.0
H289 H 0.26617 0.08515 0.93231 0.0
H290 H 0.34707 0.9524 0.98127 0.0
H291 H 0.3821 0.98877 0.98959 0.0
H292 H 0.38344 0.96556 0.95629 0.0
H293 H 0.24138 0.06356 -0.00191 0.0
H294 H 0.24693 0.10544 0.97627 0.0
H295 H 0.28042 0.09661 0.00411 0.0
C296 C 0.04273 0.31286 0.44031 0.0
C297 C 0.01437 0.28899 0.42845 0.0
C298 C 0.04692 0.31513 0.46897 0.0
C299 C 0.02256 0.29249 0.48603 0.0
C300 C 0.9936 0.26864 0.47416 0.0
C301 C 0.98963 0.26743 0.44544 0.0
C302 C 0.07761 0.34142 0.48098 0.0
C303 C 0.96734 0.24381 0.49176 0.0
C304 C 0.05512 0.26662 0.55832 0.0
C305 C 0.03168 0.29107 0.57416 0.0
C306 C 0.05304 0.26729 0.52946 0.0
C307 C 0.02739 0.29348 0.51635 0.0
C308 C 0.00501 0.31943 0.53229 0.0
C309 C 0.0072 0.31768 0.56106 0.0
C310 C 0.07706 0.23894 0.51306 0.0
C311 C 0.97791 0.34824 0.51899 0.0
H312 H 0.0618 0.32968 0.42716 0.0
H313 H 0.96789 0.24874 0.43628 0.0
H314 H 0.06421 0.36199 0.49572 0.0
H315 H 0.09912 0.32406 0.49263 0.0
H316 H 0.09318 0.35822 0.46487 0.0
H317 H 0.94637 0.22681 0.47928 0.0
H318 H 0.98502 0.22345 0.50421 0.0
H319 H 0.95087 0.26221 0.50637 0.0
H320 H 0.0739 0.24589 0.56846 0.0
H321 H 0.98925 0.33682 0.57333 0.0
H322 H 0.09474 0.2545 0.49749 0.0
H323 H 0.05761 0.21884 0.50175 0.0
H324 H 0.09676 0.22162 0.52633 0.0
H325 H 0.99364 0.36551 0.50327 0.0
H326 H 0.96483 0.36834 0.53424 0.0
H327 H 0.95416 0.33266 0.50825 0.0
C328 C 0.7299 0.00662 0.05769 0.0
C329 C 0.75516 0.03424 0.06892 0.0
C330 C 0.72774 0.00093 0.02916 0.0
C331 C 0.75197 0.02293 0.01159 0.0
C332 C 0.77693 0.05148 0.02279 0.0
C333 C 0.77796 0.05705 0.0514 0.0
C334 C 0.70021 0.97079 0.01789 0.0
C335 C 0.8035 0.07517 0.00465 0.0
C336 C 0.77896 0.98027 0.94228 0.0
C337 C 0.75583 0.00212 0.9244 0.0
C338 C 0.77779 0.98661 0.97079 0.0
C339 C 0.75239 0.01501 0.98158 0.0
C340 C 0.72803 0.03626 0.96367 0.0
C341 C 0.73029 0.02977 0.93521 0.0
C342 C 0.80448 0.96367 0.98929 0.0
C343 C 0.70008 0.06623 0.97452 0.0
H344 H 0.71204 0.98913 0.07125 0.0
H345 H 0.79766 0.07826 0.0601 0.0
H346 H 0.68145 0.98368 0.00175 0.0
H347 H 0.71695 0.94709 0.0081 0.0
H348 H 0.68141 0.95813 0.03417 0.0
H349 H 0.82031 0.09697 0.01653 0.0
H350 H 0.82419 0.05577 0.99389 0.0
H351 H 0.78644 0.09039 0.98859 0.0
H352 H 0.79891 0.95905 0.93393 0.0
H353 H 0.71223 0.04659 0.9214 0.0
H354 H 0.78734 0.9479 0.00506 0.0
H355 H 0.82432 0.98361 0.00039 0.0
H356 H 0.82221 0.94239 0.97765 0.0
H357 H 0.6809 0.0532 0.99038 0.0
H358 H 0.6817 0.07877 0.95797 0.0
H359 H 0.7164 0.09004 0.98457 0.0
C360 C 0.04684 0.78568 0.43193 0.0
C361 C 0.02317 0.76064 0.41669 0.0
C362 C 0.04517 0.78606 0.4608 0.0
C363 C 0.01962 0.7604 0.47458 0.0
C364 C 0.99627 0.73451 0.45926 0.0
C365 C -0.00184 0.73511 0.43045 0.0
C366 C 0.07029 0.81426 0.47654 0.0
C367 C 0.96915 0.70633 0.47329 0.0
C368 C 0.04131 0.73766 0.54926 0.0
C369 C 0.01461 0.7614 0.56298 0.0
C370 C 0.04291 0.73671 0.52046 0.0
C371 C 0.01749 0.76044 0.50507 0.0
C372 C 0.99017 0.78421 0.51879 0.0
C373 C 0.98887 0.78421 0.54769 0.0
C374 C 0.07201 0.71055 0.50651 0.0
C375 C 0.96283 0.81009 0.50297 0.0
H376 H 0.06599 0.80564 0.4213 0.0
H377 H 0.9799 0.71561 0.41868 0.0
H378 H 0.05179 0.83355 0.48923 0.0
H379 H 0.08966 0.79836 0.49085 0.0
H380 H 0.08844 0.83242 0.4627 0.0
H381 H 0.95357 0.68754 0.45836 0.0
H382 H 0.98566 0.68763 0.48771 0.0
H383 H 0.94739 0.72234 0.48567 0.0
H384 H 0.06114 0.71983 0.56106 0.0
H385 H 0.96837 0.80274 0.55828 0.0
H386 H 0.09253 0.7281 0.49407 0.0
H387 H 0.05691 0.69058 0.49217 0.0
H388 H 0.08893 0.69309 0.5215 0.0
H389 H 0.9797 0.83081 0.49022 0.0
H390 H 0.94325 0.82673 0.51675 0.0
H391 H 0.94484 0.79255 0.4887 0.0
C392 C 0.15038 0.26097 0.24612 0.0
C393 C 0.15145 0.27668 0.27274 0.0
C394 C 0.18283 0.24229 0.23511 0.0
C395 C 0.21792 0.24189 0.25031 0.0
C396 C 0.22125 0.2646 0.27436 0.0
C397 C 0.18768 0.28081 0.28584 0.0
C398 C 0.17807 0.21938 0.20879 0.0
C399 C 0.25927 0.26893 0.28945 0.0
C400 C 0.26015 0.14204 0.24836 0.0
C401 C 0.27888 0.1429 0.22274 0.0
C402 C 0.24256 0.17525 0.25902 0.0
C403 C 0.24642 0.2108 0.24468 0.0
C404 C 0.27146 0.21321 0.2217 0.0
C405 C 0.28656 0.17902 0.21046 0.0
C406 C 0.21654 0.17114 0.28395 0.0
C407 C 0.27996 0.25112 0.20749 0.0
H408 H 0.12319 0.26007 0.23492 0.0
H409 H 0.18977 0.29385 0.30606 0.0
H410 H 0.19902 0.22975 0.19312 0.0
H411 H 0.18416 0.18829 0.21264 0.0
H412 H 0.14839 0.22187 0.20004 0.0
H413 H 0.2621 0.29872 0.29781 0.0
H414 H 0.26002 0.24877 0.30722 0.0
H415 H 0.28453 0.26289 0.27591 0.0
H416 H 0.25624 0.11469 0.25895 0.0
H417 H 0.30181 0.18074 0.19099 0.0
H418 H 0.18655 0.18038 0.2788 0.0
H419 H 0.22715 0.18994 0.30082 0.0
H420 H 0.21533 0.14092 0.29176 0.0
H421 H 0.26309 0.2529 0.18808 0.0
H422 H 0.31115 0.25259 0.20178 0.0
H423 H 0.27285 0.27648 0.22058 0.0
C424 C 0.80865 0.13111 0.75309 0.0
C425 C 0.7714 0.12709 0.76441 0.0
C426 C 0.82116 0.16613 0.74189 0.0
C427 C 0.79632 0.19875 0.74279 0.0
C428 C 0.75815 0.19488 0.75314 0.0
C429 C 0.74586 0.1588 0.76339 0.0
C430 C 0.86206 0.16857 0.73059 0.0
C431 C 0.73057 0.22876 0.75401 0.0
C432 C 0.86807 0.27828 0.74444 0.0
C433 C 0.87436 0.28239 0.71611 0.0
C434 C 0.83694 0.25602 0.75414 0.0
C435 C 0.81271 0.23685 0.73491 0.0
C436 C 0.81489 0.24673 0.7067 0.0
C437 C 0.8459 0.26961 0.69755 0.0
C438 C 0.83407 0.24789 0.7846 0.0
C439 C 0.78873 0.22798 0.68568 0.0
H440 H 0.82922 0.10752 0.75425 0.0
H441 H 0.71667 0.15586 0.77142 0.0
H442 H 0.86194 0.18145 0.70965 0.0
H443 H 0.88003 0.18741 0.74401 0.0
H444 H 0.87627 0.13978 0.72935 0.0
H445 H 0.70609 0.22354 0.76845 0.0
H446 H 0.74571 0.25575 0.76021 0.0
H447 H 0.71829 0.23347 0.73316 0.0
H448 H 0.88963 0.28902 0.75881 0.0
H449 H 0.85043 0.27317 0.67558 0.0
H450 H 0.84911 0.22025 0.78926 0.0
H451 H 0.80332 0.24487 0.79106 0.0
H452 H 0.84796 0.27119 0.79693 0.0
H453 H 0.79994 0.19867 0.68079 0.0
H454 H 0.78772 0.24501 0.66627 0.0
H455 H 0.75884 0.2247 0.69381 0.0
C456 C 0.80578 0.89995 0.23974 0.0
C457 C 0.76906 0.90444 0.22774 0.0
C458 C 0.81773 0.86441 0.25036 0.0
C459 C 0.79282 0.83187 0.24817 0.0
C460 C 0.75496 0.83634 0.23744 0.0
C461 C 0.74322 0.87287 0.22784 0.0
C462 C 0.85823 0.86137 0.26227 0.0
C463 C 0.72716 0.80266 0.23541 0.0
C464 C 0.86525 0.75376 0.24462 0.0
C465 C 0.87167 0.74896 0.27288 0.0
C466 C 0.83362 0.77556 0.23533 0.0
C467 C 0.80895 0.79331 0.25493 0.0
C468 C 0.81089 0.78188 0.28282 0.0
C469 C 0.84251 0.75966 0.29159 0.0
C470 C 0.8308 0.78512 0.20508 0.0
C471 C 0.78391 0.79871 0.30412 0.0
H472 H 0.82647 0.92355 0.23944 0.0
H473 H 0.71432 0.87626 0.2194 0.0
H474 H 0.85738 0.84747 0.28286 0.0
H475 H 0.87661 0.84322 0.24867 0.0
H476 H 0.87247 0.89008 0.26449 0.0
H477 H 0.70369 0.80832 0.22024 0.0
H478 H 0.74234 0.7756 0.22949 0.0
H479 H 0.71346 0.79781 0.2558 0.0
H480 H 0.88721 0.74439 0.23008 0.0
H481 H 0.84691 0.7554 0.31349 0.0
H482 H 0.84553 0.81319 0.20115 0.0
H483 H 0.80005 0.78798 0.19862 0.0
H484 H 0.84507 0.76264 0.19224 0.0
H485 H 0.79441 0.82793 0.31006 0.0
H486 H 0.78288 0.78046 0.32295 0.0
H487 H 0.75413 0.80179 0.29576 0.0
C488 C 0.23123 0.89996 0.75723 0.0
C489 C 0.26879 0.90285 0.76816 0.0
C490 C 0.21809 0.86586 0.74502 0.0
C491 C 0.24254 0.83292 0.74458 0.0
C492 C 0.28061 0.83536 0.75535 0.0
C493 C 0.29356 0.87061 0.76656 0.0
C494 C 0.17728 0.86495 0.73345 0.0
C495 C 0.30768 0.80106 0.7553 0.0
C496 C 0.16976 0.7549 0.73828 0.0
C497 C 0.16562 0.75475 0.7096 0.0
C498 C 0.20052 0.77499 0.7506 0.0
C499 C 0.22639 0.79622 0.73369 0.0
C500 C 0.22627 0.79018 0.7049 0.0
C501 C 0.1957 0.76925 0.69308 0.0
C502 C 0.20148 0.77869 0.78154 0.0
C503 C 0.25429 0.81116 0.68626 0.0
H504 H 0.2112 0.92394 0.75905 0.0
H505 H 0.32287 0.8726 0.77452 0.0
H506 H 0.17749 0.85399 0.71197 0.0
H507 H 0.15894 0.84516 0.7459 0.0
H508 H 0.16342 0.89396 0.73346 0.0
H509 H 0.32971 0.80347 0.77192 0.0
H510 H 0.29177 0.77335 0.75784 0.0
H511 H 0.32333 0.80007 0.73534 0.0
H512 H 0.14692 0.74279 0.75103 0.0
H513 H 0.1928 0.76869 0.67084 0.0
H514 H 0.18616 0.80557 0.78771 0.0
H515 H 0.23182 0.7806 0.78912 0.0
H516 H 0.1868 0.7538 0.79164 0.0
H517 H 0.24451 0.84154 0.68362 0.0
H518 H 0.25583 0.79745 0.66559 0.0
H519 H 0.28377 0.81177 0.6954 0.0
C520 C 0.92629 0.78141 0.73119 0.0
C521 C 0.94321 0.79852 0.70789 0.0
C522 C 0.9007 0.80232 0.74805 0.0
C523 C 0.8919 0.84123 0.74143 0.0
C524 C 0.90909 0.85875 0.71806 0.0
C525 C 0.93455 0.8372 0.70159 0.0
C526 C 0.88296 0.78275 0.77287 0.0
C527 C 0.90063 0.90028 0.71043 0.0
C528 C 0.79858 0.88601 0.76793 0.0
C529 C 0.81207 0.90866 0.78992 0.0
C530 C 0.8242 0.86345 0.75225 0.0
C531 C 0.86426 0.86354 0.75872 0.0
C532 C 0.87797 0.8857 0.78122 0.0
C533 C 0.85172 0.90802 0.79653 0.0
C534 C 0.80851 0.84008 0.72842 0.0
C535 C 0.92048 0.88663 0.78876 0.0
H536 H 0.93282 0.75156 0.73622 0.0
H537 H 0.94765 0.85077 0.68372 0.0
H538 H 0.89031 0.79914 0.79182 0.0
H539 H 0.85087 0.7826 0.77101 0.0
H540 H 0.89311 0.75244 0.77534 0.0
H541 H 0.91452 0.9088 0.69068 0.0
H542 H 0.86886 0.90486 0.70861 0.0
H543 H 0.91133 0.9198 0.72691 0.0
H544 H 0.768 0.88621 0.76271 0.0
H545 H 0.86248 0.92542 0.81345 0.0
H546 H 0.81655 0.80918 0.73086 0.0
H547 H 0.82166 0.85038 0.70887 0.0
H548 H 0.77644 0.84216 0.72665 0.0
H549 H 0.93238 0.85685 0.78996 0.0
H550 H 0.92563 0.90134 0.80878 0.0
H551 H 0.93692 0.90225 0.77254 0.0
C552 C 0.23899 0.90633 0.2245 0.0
C553 C 0.22782 0.92751 0.20117 0.0
C554 C 0.21245 0.88242 0.23837 0.0
C555 C 0.17372 0.87979 0.22879 0.0
C556 C 0.16222 0.9011 0.20526 0.0
C557 C 0.18945 0.92458 0.19166 0.0
C558 C 0.22583 0.86007 0.26337 0.0
C559 C 0.12109 0.89932 0.19456 0.0
C560 C 0.11545 0.79188 0.25148 0.0
C561 C 0.09443 0.80674 0.27384 0.0
C562 C 0.14087 0.81551 0.23631 0.0
C563 C 0.14527 0.85495 0.24364 0.0
C564 C 0.12351 0.87032 0.2658 0.0
C565 C 0.09844 0.84604 0.28066 0.0
C566 C 0.1636 0.7981 0.21279 0.0
C567 C 0.12721 0.91229 0.27415 0.0
H568 H 0.26858 0.90833 0.23195 0.0
H569 H 0.18049 0.94098 0.17373 0.0
H570 H 0.20855 0.86871 0.28164 0.0
H571 H 0.22102 0.82864 0.26014 0.0
H572 H 0.25705 0.86492 0.26796 0.0
H573 H 0.1168 0.91774 0.17605 0.0
H574 H 0.11342 0.86904 0.18925 0.0
H575 H 0.1006 0.90891 0.21081 0.0
H576 H 0.11254 0.76159 0.24605 0.0
H577 H 0.08216 0.85788 0.2978 0.0
H578 H 0.19513 0.79991 0.21726 0.0
H579 H 0.15831 0.8147 0.19359 0.0
H580 H 0.15588 0.7673 0.2091 0.0
H581 H 0.1573 0.91827 0.28108 0.0
H582 H 0.10694 0.92015 0.29105 0.0
H583 H 0.12139 0.93136 0.25623 0.0
C584 C 0.10689 0.20216 0.70932 0.0
C585 C 0.09994 0.24076 0.71682 0.0
C586 C 0.13361 0.17939 0.72383 0.0
C587 C 0.15389 0.19559 0.7464 0.0
C588 C 0.14677 0.23439 0.75428 0.0
C589 C 0.11979 0.25651 0.73942 0.0
C590 C 0.14011 0.13799 0.71496 0.0
C591 C 0.16794 0.25263 0.77823 0.0
C592 C 0.19833 0.12632 0.79813 0.0
C593 C 0.23711 0.12488 0.78934 0.0
C594 C 0.17101 0.14949 0.78453 0.0
C595 C 0.18277 0.17194 0.76163 0.0
C596 C 0.22196 0.17115 0.75288 0.0
C597 C 0.24866 0.14755 0.76681 0.0
C598 C 0.12943 0.1494 0.7944 0.0
C599 C 0.23556 0.19482 0.72855 0.0
H600 H 0.09149 0.18963 0.69201 0.0
H601 H 0.11465 0.28633 0.7453 0.0
H602 H 0.17144 0.13264 0.71139 0.0
H603 H 0.13056 0.11807 0.73157 0.0
H604 H 0.124 0.13068 0.69583 0.0
H605 H 0.15882 0.28303 0.78187 0.0
H606 H 0.16262 0.23567 0.79728 0.0
H607 H 0.19967 0.25219 0.77435 0.0
H608 H 0.18903 0.10896 0.81547 0.0
H609 H 0.27858 0.14676 0.75992 0.0
H610 H 0.11042 0.13691 0.77823 0.0
H611 H 0.1194 0.17943 0.7982 0.0
H612 H 0.12559 0.13235 0.81362 0.0
H613 H 0.21988 0.18558 0.7097 0.0
H614 H 0.26724 0.19188 0.72487 0.0
H615 H 0.22879 0.22585 0.73192 0.0
C616 C 0.78986 0.14623 0.22816 0.0
C617 C 0.80469 0.12447 0.20617 0.0
C618 C 0.81428 0.16961 0.24429 0.0
C619 C 0.85447 0.17117 0.23832 0.0
C620 C 0.86958 0.14952 0.21603 0.0
C621 C 0.84451 0.12654 0.20018 0.0
C622 C 0.79712 0.19242 0.26785 0.0
C623 C 0.91232 0.15029 0.20908 0.0
C624 C 0.91392 0.25628 0.2644 0.0
C625 C 0.93187 0.24043 0.28775 0.0
C626 C 0.88841 0.23415 0.24825 0.0
C627 C 0.88084 0.19519 0.25554 0.0
C628 C 0.89881 0.17902 0.27911 0.0
C629 C 0.924 0.20187 0.29498 0.0
C630 C 0.86971 0.2524 0.22329 0.0
C631 C 0.8917 0.13748 0.28743 0.0
H632 H 0.75916 0.14487 0.23291 0.0
H633 H 0.85632 0.10978 0.18329 0.0
H634 H 0.81058 0.18323 0.28755 0.0
H635 H 0.80354 0.22368 0.26517 0.0
H636 H 0.76519 0.18861 0.26948 0.0
H637 H 0.91939 0.13194 0.19097 0.0
H638 H 0.92168 0.1804 0.20468 0.0
H639 H 0.92949 0.14 0.22696 0.0
H640 H 0.91975 0.28606 0.2587 0.0
H641 H 0.93786 0.18931 0.31291 0.0
H642 H 0.83765 0.25067 0.22504 0.0
H643 H 0.87811 0.23628 0.20445 0.0
H644 H 0.87815 0.28323 0.22068 0.0
H645 H 0.86028 0.13271 0.29112 0.0
H646 H 0.90789 0.12932 0.30635 0.0
H647 H 0.90052 0.11778 0.27051 0.0
C648 C 0.10603 0.07016 0.14317 0.0
C649 C 0.12811 0.04496 0.12694 0.0
C650 C 0.06567 0.06585 0.14514 0.0
C651 C 0.04705 0.03628 0.12986 0.0
C652 C 0.06924 0.01136 0.11288 0.0
C653 C 0.10968 0.01565 0.11198 0.0
C654 C 0.04313 0.09217 0.16411 0.0
C655 C 0.05029 0.9801 0.09579 0.0
C656 C 0.94964 -0.00312 0.15283 0.0
C657 C 0.92413 0.01731 0.13578 0.0
C658 C 0.98971 0.00359 0.15165 0.0
C659 C 0.00452 0.03052 0.13232 0.0
C660 C 0.97875 0.05129 0.11506 0.0
C661 C 0.93866 0.04483 0.11732 0.0
C662 C 0.01617 0.98174 0.17098 0.0
C663 C 0.99357 0.07949 0.09373 0.0
H664 H 0.12061 0.09245 0.155 0.0
H665 H 0.12702 0.99641 0.09937 0.0
H666 H 0.02028 0.10769 0.15244 0.0
H667 H 0.02832 0.0747 0.18018 0.0
H668 H 0.06201 0.11387 0.17441 0.0
H669 H 0.07141 0.9649 0.08231 0.0
H670 H 0.03635 0.95845 0.10948 0.0
H671 H 0.02715 0.99277 0.08271 0.0
H672 H 0.93803 0.97589 0.16724 0.0
H673 H 0.91866 0.06025 0.10405 0.0
H674 H 0.03458 0.00235 0.18269 0.0
H675 H 0.03592 0.96278 0.15903 0.0
H676 H -0.00022 0.96354 0.18585 0.0
H677 H 0.01097 0.10255 0.10376 0.0
H678 H 0.96967 0.09325 0.08192 0.0
H679 H 0.01301 0.06426 0.07908 0.0
C680 C 0.02622 0.10888 0.65774 0.0
C681 C -0.00163 0.12405 0.63965 0.0
C682 C 0.0348 0.06926 0.65797 0.0
C683 C 0.01532 0.04431 0.63945 0.0
C684 C 0.98678 0.05932 0.6214 0.0
C685 C 0.97856 0.09905 0.62179 0.0
C686 C 0.06509 0.05425 0.67776 0.0
C687 C 0.96542 0.0335 0.60139 0.0
C688 C 0.06367 0.94973 0.61985 0.0
C689 C 0.04308 0.9231 0.63601 0.0
C690 C 0.05504 0.98935 0.62087 0.0
C691 C 0.02526 0.00257 0.6386 0.0
C692 C 0.00481 0.97592 0.65533 0.0
C693 C 0.01388 0.93646 0.65375 0.0
C694 C 0.07747 0.017 0.60275 0.0
C695 C 0.97321 0.98903 0.67475 0.0
H696 H 0.04113 0.12801 0.67191 0.0
H697 H 0.95728 0.11075 0.60765 0.0
H698 H 0.05402 0.02858 0.68904 0.0
H699 H 0.09113 0.04498 0.66607 0.0
H700 H 0.07401 0.07648 0.69302 0.0
H701 H 0.94356 0.04962 0.58909 0.0
H702 H 0.98638 0.01977 0.58706 0.0
H703 H 0.95047 0.00987 0.61268 0.0
H704 H 0.08597 0.93945 0.60594 0.0
H705 H -0.00167 0.91605 0.66662 0.0
H706 H 0.09181 0.03941 0.61558 0.0
H707 H 0.05731 0.03217 0.58858 0.0
H708 H 0.09997 0.00207 0.59028 0.0
H709 H 0.9626 0.96518 0.68813 0.0
H710 H 0.94836 0.00046 0.66272 0.0
H711 H 0.98388 0.01287 0.68807 0.0
C712 C 0.94686 0.05495 0.87439 0.0
C713 C 0.92404 0.03015 0.85824 0.0
C714 C 0.98735 0.0515 0.87491 0.0
C715 C 0.00546 0.02252 0.85887 0.0
C716 C 0.98267 -0.00252 0.84239 0.0
C717 C 0.94216 0.00149 0.84236 0.0
C718 C 0.01073 0.0787 0.89277 0.0
C719 C 0.00108 0.96644 0.82483 0.0
C720 C 0.11253 0.03513 0.843 0.0
C721 C 0.12957 0.01061 0.86258 0.0
C722 C 0.07209 0.03892 0.84127 0.0
C723 C 0.04824 0.01802 0.85981 0.0
C724 C 0.06526 0.99332 0.87966 0.0
C725 C 0.10574 0.98988 0.88077 0.0
C726 C 0.05497 0.06543 0.81974 0.0
C727 C 0.04073 0.97071 0.89983 0.0
H728 H 0.93299 0.07679 0.88699 0.0
H729 H 0.9247 0.98261 0.82955 0.0
H730 H 0.02743 0.06193 0.90824 0.0
H731 H 0.03201 0.09476 0.87997 0.0
H732 H 0.99218 0.09995 0.90377 0.0
H733 H 0.97962 0.9516 0.81142 0.0
H734 H 0.02412 0.9791 0.81163 0.0
H735 H 0.01504 0.94453 0.83828 0.0
H736 H 0.1308 0.05081 0.82865 0.0
H737 H 0.11883 0.97127 0.89612 0.0
H738 H 0.04225 0.0912 0.82993 0.0
H739 H 0.03125 0.05064 0.80839 0.0
H740 H 0.07703 0.07539 0.80462 0.0
H741 H 0.02319 0.99086 0.91252 0.0
H742 H 0.05851 0.95245 0.9138 0.0
H743 H 0.02016 0.95176 0.88853 0.0
C744 C 0.96607 0.9458 0.33601 0.0
C745 C 0.98637 0.91951 0.35252 0.0
C746 C 0.97414 0.98556 0.33736 0.0
C747 C 0.00237 -0.00084 0.35624 0.0
C748 C 0.02211 0.97268 0.37351 0.0
C749 C 0.01424 0.93304 0.37113 0.0
C750 C 0.95326 0.01285 0.3181 0.0
C751 C 0.05167 0.98619 0.39438 0.0
C752 C 0.05289 0.09503 0.34356 0.0
C753 C 0.0314 0.11997 0.36036 0.0
C754 C 0.04326 0.05571 0.3416 0.0
C755 C 0.01206 0.04097 0.35746 0.0
C756 C 0.99055 0.06605 0.37473 0.0
C757 C 0.00018 0.10548 0.37565 0.0
C758 C 0.06621 0.03003 0.32242 0.0
C759 C 0.95776 0.05117 0.39246 0.0
H760 H 0.94483 0.935 0.32144 0.0
H761 H 0.02957 0.91246 0.38399 0.0
H762 H 0.93776 0.03541 0.33005 0.0
H763 H 0.97464 0.02792 0.30476 0.0
H764 H 0.93197 -0.0024 0.30477 0.0
H765 H 0.0627 0.96209 0.40734 0.0
H766 H 0.07664 -0.00016 0.38369 0.0
H767 H 0.0387 0.00847 0.40802 0.0
H768 H 0.07668 0.1066 0.33147 0.0
H769 H 0.98382 0.12498 0.38871 0.0
H770 H 0.04641 0.01573 0.30752 0.0
H771 H 0.08081 0.00682 0.33431 0.0
H772 H 0.0886 0.04638 0.31073 0.0
H773 H 0.93491 0.03805 0.37935 0.0
H774 H 0.94443 0.07439 0.40513 0.0
H775 H 0.9686 0.02812 0.4064 0.0
C776 C 0.45631 0.95764 0.15067 0.0
C777 C 0.42699 0.97324 0.16723 0.0
C778 C 0.4943 0.97217 0.15202 0.0
C779 C 0.50284 0.00298 0.17032 0.0
C780 C 0.47397 0.01685 0.18846 0.0
C781 C 0.43642 0.0016 0.18679 0.0
C782 C 0.52466 0.95621 0.13271 0.0
C783 C 0.482 0.04949 0.20836 0.0
C784 C 0.60867 0.02614 0.18293 0.0
C785 C 0.61548 0.05534 0.16338 0.0
C786 C 0.57195 0.00931 0.18586 0.0
C787 C 0.54116 0.02243 0.1691 0.0
C788 C 0.54723 0.05343 0.15045 0.0
C789 C 0.58444 0.06951 0.14777 0.0
C790 C 0.56654 0.97646 0.20606 0.0
C791 C 0.51477 0.06856 0.13256 0.0
H792 H 0.44903 0.93588 0.13545 0.0
H793 H 0.4138 0.01318 0.19991 0.0
H794 H 0.53244 0.97852 0.1172 0.0
H795 H 0.55149 0.94891 0.14422 0.0
H796 H 0.51439 0.92994 0.12169 0.0
H797 H 0.45759 0.05412 0.22295 0.0
H798 H 0.50875 0.04367 0.22036 0.0
H799 H 0.48683 0.07669 0.19668 0.0
H800 H 0.63246 0.01572 0.19548 0.0
H801 H 0.58962 0.0919 0.13258 0.0
H802 H 0.55961 0.94946 0.19469 0.0
H803 H 0.54175 0.98249 0.21998 0.0
H804 H 0.59285 0.97137 0.21876 0.0
H805 H 0.50509 0.04555 0.11816 0.0
H806 H 0.52371 0.09424 0.12032 0.0
H807 H 0.48943 0.07655 0.14546 0.0
C808 C 0.97094 0.58817 0.64823 0.0
C809 C 0.98667 0.6189 0.66329 0.0
C810 C 0.98311 0.55014 0.65313 0.0
C811 C 0.01147 0.54301 0.67364 0.0
C812 C 0.02523 0.57361 0.69028 0.0
C813 C 0.01259 0.61129 0.68489 0.0
C814 C 0.96752 0.51799 0.63518 0.0
C815 C 0.05504 0.56698 0.71258 0.0
C816 C 0.02542 0.43761 0.69123 0.0
C817 C 0.05535 0.42749 0.67305 0.0
C818 C 0.01201 0.47573 0.69282 0.0
C819 C 0.02914 0.5042 0.67581 0.0
C820 C 0.06132 0.49473 0.65896 0.0
C821 C 0.07414 0.45633 0.65782 0.0
C822 C 0.97802 0.48492 0.71132 0.0
C823 C 0.08055 0.52459 0.64076 0.0
H824 H 0.95099 0.59415 0.63151 0.0
H825 H 0.02407 0.63511 0.69691 0.0
H826 H 0.9911 0.50677 0.62182 0.0
H827 H 0.95715 0.49356 0.64808 0.0
H828 H 0.94327 0.52784 0.62184 0.0
H829 H 0.05871 0.59276 0.72601 0.0
H830 H 0.04682 0.54186 0.72558 0.0
H831 H 0.08347 0.56021 0.703 0.0
H832 H 0.01143 0.41529 0.70339 0.0
H833 H 0.09716 0.44845 0.6437 0.0
H834 H 0.95184 0.49005 0.69854 0.0
H835 H 0.98358 0.51173 0.72326 0.0
H836 H 0.97164 0.46097 0.72592 0.0
H837 H 0.05998 0.53386 0.62446 0.0
H838 H 0.1072 0.51328 0.63072 0.0
H839 H 0.08833 0.55065 0.65292 0.0
C840 C 0.44023 0.02281 0.80534 0.0
C841 C 0.43398 0.05457 0.8228 0.0
C842 C 0.4766 0.00499 0.80372 0.0
C843 C 0.50753 0.01964 0.81973 0.0
C844 C 0.50211 0.05318 0.83605 0.0
C845 C 0.46528 0.07025 0.83743 0.0
C846 C 0.4814 0.96944 0.78595 0.0
C847 C 0.53472 0.06993 0.8531 0.0
C848 C 0.58931 0.95552 0.84454 0.0
C849 C 0.61977 0.96784 0.82759 0.0
C850 C 0.55191 0.97079 0.84128 0.0
C851 C 0.54511 -0.00106 0.82061 0.0
C852 C 0.57514 0.00939 0.80223 0.0
C853 C 0.61211 0.99353 0.80589 0.0
C854 C 0.5203 0.95858 0.86102 0.0
C855 C 0.56892 0.03907 0.77981 0.0
H856 H 0.41621 0.01112 0.79357 0.0
H857 H 0.46057 0.09461 0.85105 0.0
H858 H 0.50711 0.97249 0.77237 0.0
H859 H 0.4864 0.94381 0.79925 0.0
H860 H 0.45547 0.96382 0.77294 0.0
H861 H 0.52643 0.09758 0.86318 0.0
H862 H 0.54323 0.04894 0.86932 0.0
H863 H 0.5606 0.07514 0.84002 0.0
H864 H 0.59521 0.9358 0.86137 0.0
H865 H 0.63557 0.00245 0.79243 0.0
H866 H 0.49372 0.95029 0.84953 0.0
H867 H 0.51261 0.98327 0.87457 0.0
H868 H 0.52929 0.93385 0.87417 0.0
H869 H 0.54234 0.03232 0.76785 0.0
H870 H 0.59393 0.0407 0.76541 0.0
H871 H 0.56474 0.06801 0.78926 0.0
C872 C 0.01767 0.4338 0.31021 0.0
C873 C 0.98819 0.42619 0.32942 0.0
C874 C 0.03189 0.47134 0.30631 0.0
C875 C 0.01588 0.50199 0.32182 0.0
C876 C 0.98448 0.49491 0.34 0.0
C877 C 0.97097 0.45695 0.3436 0.0
C878 C 0.06517 0.47786 0.28658 0.0
C879 C 0.96636 0.52715 0.35658 0.0
C880 C 0.07469 0.59094 0.3399 0.0
C881 C 0.05805 0.61855 0.32244 0.0
C882 C 0.06253 0.55223 0.33897 0.0
C883 C 0.0331 0.54119 0.32016 0.0
C884 C 0.01829 0.56839 0.30115 0.0
C885 C 0.03114 0.60675 0.30244 0.0
C886 C 0.07942 0.52371 0.35926 0.0
C887 C 0.98713 0.55762 0.28065 0.0
H888 H 0.03042 0.41009 0.29877 0.0
H889 H 0.94832 0.45109 0.3585 0.0
H890 H 0.05837 0.50182 0.27217 0.0
H891 H 0.09145 0.48647 0.2983 0.0
H892 H 0.07207 0.45153 0.27441 0.0
H893 H 0.94057 0.51723 0.36839 0.0
H894 H 0.988 0.53894 0.37129 0.0
H895 H 0.95747 0.55119 0.34281 0.0
H896 H 0.09535 0.60006 0.35542 0.0
H897 H 0.01886 0.62805 0.28857 0.0
H898 H 0.08903 0.4971 0.34846 0.0
H899 H 0.0568 0.51507 0.37434 0.0
H900 H 0.10447 0.53599 0.37073 0.0
H901 H 0.99505 0.53076 0.26948 0.0
H902 H 0.98191 0.58097 0.26536 0.0
H903 H 0.95957 0.55181 0.29175 0.0
loop_
_geom_bond_atom_site_label_1
_geom_bond_atom_site_label_2
_geom_bond_distance
_geom_bond_site_symmetry_2
_ccdc_geom_bond_type
Co0 N4 2.148 . S
Co0 N10 2.128 . S
Co0 N20 2.194 . S
Co0 O25 2.351 . S
Co0 O26 2.157 . S
Co0 O27 2.096 1_545 S
C1 N4 1.301 . S
C1 N5 1.328 . S
C1 H6 0.930 . S
C2 C3 1.333 . S
C2 N4 1.317 1_565 S
C2 H7 0.930 . S
C3 C2 1.333 . S
C3 N5 1.350 1_565 S
C3 H29 0.931 . S
N4 Co0 2.148 . S
N4 C1 1.301 . S
N4 C2 1.317 1_545 S
N5 C1 1.328 . S
N5 C3 1.350 1_545 S
H6 C1 0.930 . S
H7 C2 0.930 . S
C8 O9 1.224 . S
C8 O27 1.247 . S
O9 C8 1.224 . S
N10 Co0 2.128 . S
N10 C11 1.355 . S
N10 C13 1.311 . S
C11 N10 1.355 . S
C11 C12 1.363 . S
C11 H23 0.929 . S
C12 C11 1.363 . S
C12 N14 1.375 . S
C12 H30 0.931 . S
C13 N10 1.311 . S
C13 N14 1.347 . S
C13 H24 0.929 1_545 S
N14 C12 1.375 . S
N14 C13 1.347 . S
C15 C18 1.365 . S
C15 N20 1.328 . S
C15 H21 0.929 . S
C16 C17 1.362 . S
C16 C19 1.378 . S
C16 H31 0.929 . S
C17 C16 1.362 . S
C17 C18 1.366 . S
C18 C15 1.365 . S
C18 C17 1.366 . S
C18 H32 0.930 . S
C19 C16 1.378 . S
C19 N20 1.315 . S
C19 H22 0.930 . S
N20 Co0 2.194 . S
N20 C15 1.328 . S
N20 C19 1.315 . S
H21 C15 0.929 . S
H22 C19 0.930 . S
H23 C11 0.929 . S
H24 C13 0.929 1_565 S
O25 Co0 2.351 . S
O25 C28 1.244 . S
O26 Co0 2.157 . S
O26 C28 1.245 . S
O27 Co0 2.096 1_565 S
O27 C8 1.247 . S
C28 O25 1.244 . S
C28 O26 1.245 . S
H29 C3 0.931 . S
H30 C12 0.931 . S
H31 C16 0.929 . S
H32 C18 0.930 . S
Co33 N37 2.148 . S
Co33 N43 2.128 . S
Co33 N53 2.194 1_455 S
Co33 O58 2.351 1_455 S
Co33 O59 2.155 . S
Co33 O60 2.096 . S
C34 N37 1.301 . S
C34 N38 1.328 . S
C34 H39 0.930 1_455 S
C35 C36 1.333 . S
C35 N37 1.317 . S
C35 H40 0.930 . S
C36 C35 1.333 . S
C36 N38 1.350 . S
C36 H62 0.931 . S
N37 Co33 2.148 . S
N37 C34 1.301 . S
N37 C35 1.317 . S
N38 C34 1.328 . S
N38 C36 1.350 . S
H39 C34 0.930 1_655 S
H40 C35 0.930 . S
C41 O42 1.224 . S
C41 O60 1.247 . S
O42 C41 1.224 . S
N43 Co33 2.128 . S
N43 C44 1.355 1_455 S
N43 C46 1.311 . S
C44 N43 1.355 1_655 S
C44 C45 1.363 . S
C44 H56 0.929 . S
C45 C44 1.363 . S
C45 N47 1.375 1_655 S
C45 H63 0.931 . S
C46 N43 1.311 . S
C46 N47 1.347 . S
C46 H57 0.929 . S
N47 C45 1.375 1_455 S
N47 C46 1.347 . S
C48 C51 1.365 . S
C48 N53 1.328 . S
C48 H54 0.929 . S
C49 C50 1.362 . S
C49 C52 1.378 . S
C49 H64 0.929 . S
C50 C49 1.362 . S
C50 C51 1.366 . S
C51 C48 1.365 . S
C51 C50 1.366 . S
C51 H65 0.930 . S
C52 C49 1.378 . S
C52 N53 1.315 . S
C52 H55 0.930 . S
N53 Co33 2.194 1_655 S
N53 C48 1.328 . S
N53 C52 1.315 . S
H54 C48 0.929 . S
H55 C52 0.930 . S
H56 C44 0.929 . S
H57 C46 0.929 . S
O58 Co33 2.351 1_655 S
O58 C61 1.244 1_655 S
O59 Co33 2.155 . S
O59 C61 1.240 . S
O60 Co33 2.096 . S
O60 C41 1.247 . S
C61 O58 1.244 1_455 S
C61 O59 1.240 . S
H62 C36 0.931 . S
H63 C45 0.931 . S
H64 C49 0.929 . S
H65 C51 0.930 . S
Co66 N70 2.148 . S
Co66 N76 2.128 . S
Co66 N86 2.194 1_545 S
Co66 O91 2.351 1_545 S
Co66 O92 2.155 . S
Co66 O93 2.096 . S
C67 N70 1.301 . S
C67 N71 1.328 . S
C67 H72 0.930 1_545 S
C68 C69 1.333 . S
C68 N70 1.317 . S
C68 H73 0.930 . S
C69 C68 1.333 . S
C69 N71 1.350 . S
C69 H95 0.931 . S
N70 Co66 2.148 . S
N70 C67 1.301 . S
N70 C68 1.317 . S
N71 C67 1.328 . S
N71 C69 1.350 . S
H72 C67 0.930 1_565 S
H73 C68 0.930 . S
C74 O75 1.224 . S
C74 O93 1.247 . S
O75 C74 1.224 . S
N76 Co66 2.128 . S
N76 C77 1.355 1_545 S
N76 C79 1.311 . S
C77 N76 1.355 1_565 S
C77 C78 1.363 . S
C77 H89 0.929 . S
C78 C77 1.363 . S
C78 N80 1.375 1_565 S
C78 H96 0.931 . S
C79 N76 1.311 . S
C79 N80 1.347 . S
C79 H90 0.929 . S
N80 C78 1.375 1_545 S
N80 C79 1.347 . S
C81 C84 1.365 . S
C81 N86 1.328 . S
C81 H87 0.929 . S
C82 C83 1.362 . S
C82 C85 1.378 . S
C82 H97 0.929 . S
C83 C82 1.362 . S
C83 C84 1.366 . S
C84 C81 1.365 . S
C84 C83 1.366 . S
C84 H98 0.930 . S
C85 C82 1.378 . S
C85 N86 1.315 . S
C85 H88 0.930 . S
N86 Co66 2.194 1_565 S
N86 C81 1.328 . S
N86 C85 1.315 . S
H87 C81 0.929 . S
H88 C85 0.930 . S
H89 C77 0.929 . S
H90 C79 0.929 . S
O91 Co66 2.351 1_565 S
O91 C94 1.244 1_565 S
O92 Co66 2.155 . S
O92 C94 1.240 . S
O93 Co66 2.096 . S
O93 C74 1.247 . S
C94 O91 1.244 1_545 S
C94 O92 1.240 . S
H95 C69 0.931 . S
H96 C78 0.931 . S
H97 C82 0.929 . S
H98 C84 0.930 . S
Co99 N103 2.148 . S
Co99 N109 2.128 . S
Co99 N119 2.194 . S
Co99 O124 2.351 . S
Co99 O125 2.158 . S
Co99 O126 2.096 1_455 S
C100 N103 1.301 . S
C100 N104 1.328 . S
C100 H105 0.930 . S
C101 C102 1.333 . S
C101 N103 1.317 1_655 S
C101 H106 0.930 . S
C102 C101 1.333 . S
C102 N104 1.350 1_655 S
C102 H128 0.931 . S
N103 Co99 2.148 . S
N103 C100 1.301 . S
N103 C101 1.317 1_455 S
N104 C100 1.328 . S
N104 C102 1.350 1_455 S
H105 C100 0.930 . S
H106 C101 0.930 . S
C107 O108 1.224 . S
C107 O126 1.247 . S
O108 C107 1.224 . S
N109 Co99 2.128 . S
N109 C110 1.355 . S
N109 C112 1.311 . S
C110 N109 1.355 . S
C110 C111 1.363 . S
C110 H122 0.929 . S
C111 C110 1.363 . S
C111 N113 1.375 . S
C111 H129 0.931 . S
C112 N109 1.311 . S
C112 N113 1.347 . S
C112 H123 0.929 1_455 S
N113 C111 1.375 . S
N113 C112 1.347 . S
C114 C117 1.365 . S
C114 N119 1.328 . S
C114 H120 0.929 . S
C115 C116 1.362 . S
C115 C118 1.378 . S
C115 H130 0.929 . S
C116 C115 1.362 . S
C116 C117 1.366 . S
C117 C114 1.365 . S
C117 C116 1.366 . S
C117 H131 0.930 . S
C118 C115 1.378 . S
C118 N119 1.315 . S
C118 H121 0.930 . S
N119 Co99 2.194 . S
N119 C114 1.328 . S
N119 C118 1.315 . S
H120 C114 0.929 . S
H121 C118 0.930 . S
H122 C110 0.929 . S
H123 C112 0.929 1_655 S
O124 Co99 2.351 . S
O124 C127 1.244 . S
O125 Co99 2.158 . S
O125 C127 1.248 . S
O126 Co99 2.096 1_655 S
O126 C107 1.247 . S
C127 O124 1.244 . S
C127 O125 1.248 . S
H128 C102 0.931 . S
H129 C111 0.931 . S
H130 C115 0.929 . S
H131 C117 0.930 . S
Co132 N136 2.148 . S
Co132 N142 2.128 . S
Co132 N152 2.194 1_545 S
Co132 O157 2.351 1_545 S
Co132 O158 2.155 . S
Co132 O159 2.096 . S
C133 N136 1.301 . S
C133 N137 1.328 . S
C133 H138 0.930 1_545 S
C134 C135 1.333 . S
C134 N136 1.317 . S
C134 H139 0.930 . S
C135 C134 1.333 . S
C135 N137 1.350 . S
C135 H161 0.931 . S
N136 Co132 2.148 . S
N136 C133 1.301 . S
N136 C134 1.317 . S
N137 C133 1.328 . S
N137 C135 1.350 . S
H138 C133 0.930 1_565 S
H139 C134 0.930 . S
C140 O141 1.224 . S
C140 O159 1.247 . S
O141 C140 1.224 . S
N142 Co132 2.128 . S
N142 C143 1.355 1_545 S
N142 C145 1.311 . S
C143 N142 1.355 1_565 S
C143 C144 1.363 . S
C143 H155 0.929 . S
C144 C143 1.363 . S
C144 N146 1.375 1_565 S
C144 H162 0.931 . S
C145 N142 1.311 . S
C145 N146 1.347 . S
C145 H156 0.929 . S
N146 C144 1.375 1_545 S
N146 C145 1.347 . S
C147 C150 1.365 . S
C147 N152 1.328 . S
C147 H153 0.929 . S
C148 C149 1.362 . S
C148 C151 1.378 . S
C148 H163 0.929 . S
C149 C148 1.362 . S
C149 C150 1.366 . S
C150 C147 1.365 . S
C150 C149 1.366 . S
C150 H164 0.930 . S
C151 C148 1.378 . S
C151 N152 1.315 . S
C151 H154 0.930 . S
N152 Co132 2.194 1_565 S
N152 C147 1.328 . S
N152 C151 1.315 . S
H153 C147 0.929 . S
H154 C151 0.930 . S
H155 C143 0.929 . S
H156 C145 0.929 . S
O157 Co132 2.351 1_565 S
O157 C160 1.244 1_565 S
O158 Co132 2.155 . S
O158 C160 1.240 . S
O159 Co132 2.096 . S
O159 C140 1.247 . S
C160 O157 1.244 1_545 S
C160 O158 1.240 . S
H161 C135 0.931 . S
H162 C144 0.931 . S
H163 C148 0.929 . S
H164 C150 0.930 . S
Co165 N169 2.148 . S
Co165 N175 2.128 . S
Co165 N185 2.194 . S
Co165 O190 2.351 . S
Co165 O191 2.157 . S
Co165 O192 2.096 1_455 S
C166 N169 1.301 . S
C166 N170 1.328 . S
C166 H171 0.930 . S
C167 C168 1.333 . S
C167 N169 1.317 1_655 S
C167 H172 0.930 . S
C168 C167 1.333 . S
C168 N170 1.350 1_655 S
C168 H194 0.931 . S
N169 Co165 2.148 . S
N169 C166 1.301 . S
N169 C167 1.317 1_455 S
N170 C166 1.328 . S
N170 C168 1.350 1_455 S
H171 C166 0.930 . S
H172 C167 0.930 . S
C173 O174 1.224 . S
C173 O192 1.247 . S
O174 C173 1.224 . S
N175 Co165 2.128 . S
N175 C176 1.355 . S
N175 C178 1.311 . S
C176 N175 1.355 . S
C176 C177 1.363 . S
C176 H188 0.929 . S
C177 C176 1.363 . S
C177 N179 1.375 . S
C177 H195 0.931 . S
C178 N175 1.311 . S
C178 N179 1.347 . S
C178 H189 0.929 1_455 S
N179 C177 1.375 . S
N179 C178 1.347 . S
C180 C183 1.365 . S
C180 N185 1.328 . S
C180 H186 0.929 . S
C181 C182 1.362 . S
C181 C184 1.378 . S
C181 H196 0.929 . S
C182 C181 1.362 . S
C182 C183 1.366 . S
C183 C180 1.365 . S
C183 C182 1.366 . S
C183 H197 0.930 . S
C184 C181 1.378 . S
C184 N185 1.315 . S
C184 H187 0.930 . S
N185 Co165 2.194 . S
N185 C180 1.328 . S
N185 C184 1.315 . S
H186 C180 0.929 . S
H187 C184 0.930 . S
H188 C176 0.929 . S
H189 C178 0.929 1_655 S
O190 Co165 2.351 . S
O190 C193 1.244 . S
O191 Co165 2.157 . S
O191 C193 1.245 . S
O192 Co165 2.096 1_655 S
O192 C173 1.247 . S
C193 O190 1.244 . S
C193 O191 1.245 . S
H194 C168 0.931 . S
H195 C177 0.931 . S
H196 C181 0.929 . S
H197 C183 0.930 . S
Co198 N202 2.148 . S
Co198 N208 2.128 . S
Co198 N218 2.194 . S
Co198 O223 2.351 . S
Co198 O224 2.158 . S
Co198 O225 2.096 1_545 S
C199 N202 1.301 . S
C199 N203 1.328 . S
C199 H204 0.930 . S
C200 C201 1.333 . S
C200 N202 1.317 1_565 S
C200 H205 0.930 . S
C201 C200 1.333 . S
C201 N203 1.350 1_565 S
C201 H227 0.931 . S
N202 Co198 2.148 . S
N202 C199 1.301 . S
N202 C200 1.317 1_545 S
N203 C199 1.328 . S
N203 C201 1.350 1_545 S
H204 C199 0.930 . S
H205 C200 0.930 . S
C206 O207 1.224 . S
C206 O225 1.247 . S
O207 C206 1.224 . S
N208 Co198 2.128 . S
N208 C209 1.355 . S
N208 C211 1.311 . S
C209 N208 1.355 . S
C209 C210 1.363 . S
C209 H221 0.929 . S
C210 C209 1.363 . S
C210 N212 1.375 . S
C210 H228 0.931 . S
C211 N208 1.311 . S
C211 N212 1.347 . S
C211 H222 0.929 1_545 S
N212 C210 1.375 . S
N212 C211 1.347 . S
C213 C216 1.365 . S
C213 N218 1.328 . S
C213 H219 0.929 . S
C214 C215 1.362 . S
C214 C217 1.378 . S
C214 H229 0.929 . S
C215 C214 1.362 . S
C215 C216 1.366 . S
C216 C213 1.365 . S
C216 C215 1.366 . S
C216 H230 0.930 . S
C217 C214 1.378 . S
C217 N218 1.315 . S
C217 H220 0.930 . S
N218 Co198 2.194 . S
N218 C213 1.328 . S
N218 C217 1.315 . S
H219 C213 0.929 . S
H220 C217 0.930 . S
H221 C209 0.929 . S
H222 C211 0.929 1_565 S
O223 Co198 2.351 . S
O223 C226 1.244 . S
O224 Co198 2.158 . S
O224 C226 1.248 . S
O225 Co198 2.096 1_565 S
O225 C206 1.247 . S
C226 O223 1.244 . S
C226 O224 1.248 . S
H227 C201 0.931 . S
H228 C210 0.931 . S
H229 C214 0.929 . S
H230 C216 0.930 . S
Co231 N235 2.148 . S
Co231 N241 2.128 . S
Co231 N251 2.194 1_455 S
Co231 O256 2.351 1_455 S
Co231 O257 2.155 . S
Co231 O258 2.096 . S
C232 N235 1.301 . S
C232 N236 1.328 . S
C232 H237 0.930 1_455 S
C233 C234 1.333 . S
C233 N235 1.317 . S
C233 H238 0.930 . S
C234 C233 1.333 . S
C234 N236 1.350 . S
C234 H260 0.931 . S
N235 Co231 2.148 . S
N235 C232 1.301 . S
N235 C233 1.317 . S
N236 C232 1.328 . S
N236 C234 1.350 . S
H237 C232 0.930 1_655 S
H238 C233 0.930 . S
C239 O240 1.224 . S
C239 O258 1.247 . S
O240 C239 1.224 . S
N241 Co231 2.128 . S
N241 C242 1.355 1_455 S
N241 C244 1.311 . S
C242 N241 1.355 1_655 S
C242 C243 1.363 . S
C242 H254 0.929 . S
C243 C242 1.363 . S
C243 N245 1.375 1_655 S
C243 H261 0.931 . S
C244 N241 1.311 . S
C244 N245 1.347 . S
C244 H255 0.929 . S
N245 C243 1.375 1_455 S
N245 C244 1.347 . S
C246 C249 1.365 . S
C246 N251 1.328 . S
C246 H252 0.929 . S
C247 C248 1.362 . S
C247 C250 1.378 . S
C247 H262 0.929 . S
C248 C247 1.362 . S
C248 C249 1.366 . S
C249 C246 1.365 . S
C249 C248 1.366 . S
C249 H263 0.930 . S
C250 C247 1.378 . S
C250 N251 1.315 . S
C250 H253 0.930 . S
N251 Co231 2.194 1_655 S
N251 C246 1.328 . S
N251 C250 1.315 . S
H252 C246 0.929 . S
H253 C250 0.930 . S
H254 C242 0.929 . S
H255 C244 0.929 . S
O256 Co231 2.351 1_655 S
O256 C259 1.244 1_655 S
O257 Co231 2.155 . S
O257 C259 1.240 . S
O258 Co231 2.096 . S
O258 C239 1.247 . S
C259 O256 1.244 1_455 S
C259 O257 1.240 . S
H260 C234 0.931 . S
H261 C243 0.931 . S
H262 C247 0.929 . S
H263 C249 0.930 . S
C264 C265 1.391 1_565 S
C264 C266 1.394 . S
C264 H280 0.931 . S
C265 C264 1.391 1_545 S
C265 C269 1.376 . S
C266 C264 1.394 . S
C266 C267 1.369 1_565 S
C266 C270 1.531 . S
C267 C266 1.369 1_545 S
C267 C268 1.410 . S
C267 C275 1.503 1_554 S
C268 C267 1.410 . S
C268 C269 1.392 . S
C268 C271 1.511 . S
C269 C265 1.376 . S
C269 C268 1.392 . S
C269 H281 0.929 . S
C270 C266 1.531 . S
C270 H282 0.960 . S
C270 H283 0.962 . S
C270 H284 0.960 . S
C271 C268 1.511 . S
C271 H285 0.961 . S
C271 H286 0.961 1_554 S
C271 H287 0.961 . S
C272 C273 1.370 . S
C272 C274 1.363 . S
C272 H288 0.931 . S
C273 C272 1.370 . S
C273 C277 1.410 1_545 S
C274 C272 1.363 . S
C274 C275 1.370 . S
C274 C278 1.524 . S
C275 C267 1.503 1_556 S
C275 C274 1.370 . S
C275 C276 1.403 . S
C276 C275 1.403 . S
C276 C277 1.404 1_545 S
C276 C279 1.539 1_545 S
C277 C273 1.410 1_565 S
C277 C276 1.404 1_565 S
C277 H289 0.929 . S
C278 C274 1.524 . S
C278 H290 0.956 . S
C278 H291 0.982 . S
C278 H292 0.961 . S
C279 C276 1.539 1_565 S
C279 H293 0.958 . S
C279 H294 0.961 . S
C279 H295 0.938 1_556 S
H280 C264 0.931 . S
H281 C269 0.929 . S
H282 C270 0.960 . S
H283 C270 0.962 . S
H284 C270 0.960 . S
H285 C271 0.961 . S
H286 C271 0.961 1_556 S
H287 C271 0.961 . S
H288 C272 0.931 . S
H289 C277 0.929 . S
H290 C278 0.956 . S
H291 C278 0.982 . S
H292 C278 0.961 . S
H293 C279 0.958 . S
H294 C279 0.961 . S
H295 C279 0.938 1_554 S
C296 C297 1.391 . S
C296 C298 1.394 . S
C296 H312 0.931 . S
C297 C296 1.391 . S
C297 C301 1.376 . S
C298 C296 1.394 . S
C298 C299 1.369 . S
C298 C302 1.531 . S
C299 C298 1.369 . S
C299 C300 1.410 . S
C299 C307 1.503 . S
C300 C299 1.410 . S
C300 C301 1.392 . S
C300 C303 1.511 . S
C301 C297 1.376 . S
C301 C300 1.392 . S
C301 H313 0.929 . S
C302 C298 1.531 . S
C302 H314 0.960 . S
C302 H315 0.962 . S
C302 H316 0.960 . S
C303 C300 1.511 . S
C303 H317 0.961 . S
C303 H318 0.961 . S
C303 H319 0.961 1_455 S
C304 C305 1.370 . S
C304 C306 1.363 . S
C304 H320 0.931 . S
C305 C304 1.370 . S
C305 C309 1.408 1_455 S
C306 C304 1.363 . S
C306 C307 1.370 . S
C306 C310 1.524 . S
C307 C299 1.503 . S
C307 C306 1.370 . S
C307 C308 1.403 1_455 S
C308 C307 1.403 1_655 S
C308 C309 1.404 . S
C308 C311 1.539 . S
C309 C305 1.408 1_655 S
C309 C308 1.404 . S
C309 H321 0.930 . S
C310 C306 1.524 . S
C310 H322 0.956 . S
C310 H323 0.961 . S
C310 H324 0.961 . S
C311 C308 1.539 . S
C311 H325 0.958 . S
C311 H326 0.961 . S
C311 H327 0.960 . S
H312 C296 0.931 . S
H313 C301 0.929 . S
H314 C302 0.960 . S
H315 C302 0.962 . S
H316 C302 0.960 . S
H317 C303 0.961 . S
H318 C303 0.961 . S
H319 C303 0.961 1_655 S
H320 C304 0.931 . S
H321 C309 0.930 . S
H322 C310 0.956 . S
H323 C310 0.961 . S
H324 C310 0.961 . S
H325 C311 0.958 . S
H326 C311 0.961 . S
H327 C311 0.960 . S
C328 C329 1.391 . S
C328 C330 1.394 . S
C328 H344 0.931 . S
C329 C328 1.391 . S
C329 C333 1.376 . S
C330 C328 1.394 . S
C330 C331 1.369 . S
C330 C334 1.531 . S
C331 C330 1.369 . S
C331 C332 1.410 . S
C331 C339 1.503 1_554 S
C332 C331 1.410 . S
C332 C333 1.392 . S
C332 C335 1.511 . S
C333 C329 1.376 . S
C333 C332 1.392 . S
C333 H345 0.929 . S
C334 C330 1.531 . S
C334 H346 0.956 1_554 S
C334 H347 0.962 . S
C334 H348 0.960 . S
C335 C332 1.511 . S
C335 H349 0.961 1_545 S
C335 H350 0.953 1_544 S
C335 H351 0.961 . S
C336 C337 1.372 . S
C336 C338 1.363 1_545 S
C336 H352 0.929 1_545 S
C337 C336 1.372 . S
C337 C341 1.408 . S
C338 C336 1.363 1_565 S
C338 C339 1.358 1_565 S
C338 C342 1.537 . S
C339 C331 1.503 1_556 S
C339 C338 1.358 1_545 S
C339 C340 1.403 . S
C340 C339 1.403 . S
C340 C341 1.404 . S
C340 C343 1.539 . S
C341 C337 1.408 . S
C341 C340 1.404 . S
C341 H353 0.930 . S
C342 C338 1.537 . S
C342 H354 0.956 . S
C342 H355 0.961 . S
C342 H356 0.961 . S
C343 C340 1.539 . S
C343 H357 0.958 . S
C343 H358 0.961 . S
C343 H359 0.960 1_556 S
H344 C328 0.931 . S
H345 C333 0.929 . S
H346 C334 0.956 1_556 S
H347 C334 0.962 . S
H348 C334 0.960 . S
H349 C335 0.961 1_565 S
H350 C335 0.953 1_566 S
H351 C335 0.961 . S
H352 C336 0.929 1_565 S
H353 C341 0.930 . S
H354 C342 0.956 . S
H355 C342 0.961 . S
H356 C342 0.961 . S
H357 C343 0.958 . S
H358 C343 0.961 . S
H359 C343 0.960 1_554 S
C360 C361 1.391 . S
C360 C362 1.394 . S
C360 H376 0.931 . S
C361 C360 1.391 . S
C361 C365 1.376 1_455 S
C362 C360 1.394 . S
C362 C363 1.369 . S
C362 C366 1.531 . S
C363 C362 1.369 . S
C363 C364 1.410 1_455 S
C363 C371 1.503 . S
C364 C363 1.410 1_655 S
C364 C365 1.392 . S
C364 C367 1.511 . S
C365 C361 1.376 1_655 S
C365 C364 1.392 . S
C365 H377 0.929 . S
C366 C362 1.531 . S
C366 H378 0.960 . S
C366 H379 0.962 . S
C366 H380 0.960 . S
C367 C364 1.511 . S
C367 H381 0.961 . S
C367 H382 0.961 . S
C367 H383 0.961 . S
C368 C369 1.370 . S
C368 C370 1.363 . S
C368 H384 0.931 . S
C369 C368 1.370 . S
C369 C373 1.408 1_455 S
C370 C368 1.363 . S
C370 C371 1.370 . S
C370 C374 1.524 . S
C371 C363 1.503 . S
C371 C370 1.370 . S
C371 C372 1.403 1_455 S
C372 C371 1.403 1_655 S
C372 C373 1.404 . S
C372 C375 1.539 . S
C373 C369 1.408 1_655 S
C373 C372 1.404 . S
C373 H385 0.930 . S
C374 C370 1.524 . S
C374 H386 0.956 . S
C374 H387 0.961 . S
C374 H388 0.961 . S
C375 C372 1.539 . S
C375 H389 0.958 . S
C375 H390 0.961 . S
C375 H391 0.960 . S
H376 C360 0.931 . S
H377 C365 0.929 . S
H378 C366 0.960 . S
H379 C366 0.962 . S
H380 C366 0.960 . S
H381 C367 0.961 . S
H382 C367 0.961 . S
H383 C367 0.961 . S
H384 C368 0.931 . S
H385 C373 0.930 . S
H386 C374 0.956 . S
H387 C374 0.961 . S
H388 C374 0.961 . S
H389 C375 0.958 . S
H390 C375 0.961 . S
H391 C375 0.960 . S
C392 C393 1.391 . S
C392 C394 1.394 . S
C392 H408 0.931 . S
C393 C392 1.391 . S
C393 C397 1.376 . S
C394 C392 1.394 . S
C394 C395 1.369 . S
C394 C398 1.531 . S
C395 C394 1.369 . S
C395 C396 1.410 . S
C395 C403 1.503 . S
C396 C395 1.410 . S
C396 C397 1.392 . S
C396 C399 1.511 . S
C397 C393 1.376 . S
C397 C396 1.392 . S
C397 H409 0.929 . S
C398 C394 1.531 . S
C398 H410 0.960 . S
C398 H411 0.962 . S
C398 H412 0.960 . S
C399 C396 1.511 . S
C399 H413 0.961 . S
C399 H414 0.961 . S
C399 H415 0.961 . S
C400 C401 1.370 . S
C400 C402 1.363 . S
C400 H416 0.931 . S
C401 C400 1.370 . S
C401 C405 1.408 . S
C402 C400 1.363 . S
C402 C403 1.370 . S
C402 C406 1.524 . S
C403 C395 1.503 . S
C403 C402 1.370 . S
C403 C404 1.403 . S
C404 C403 1.403 . S
C404 C405 1.404 . S
C404 C407 1.539 . S
C405 C401 1.408 . S
C405 C404 1.404 . S
C405 H417 0.930 . S
C406 C402 1.524 . S
C406 H418 0.956 . S
C406 H419 0.961 . S
C406 H420 0.961 . S
C407 C404 1.539 . S
C407 H421 0.958 . S
C407 H422 0.961 . S
C407 H423 0.960 . S
H408 C392 0.931 . S
H409 C397 0.929 . S
H410 C398 0.960 . S
H411 C398 0.962 . S
H412 C398 0.960 . S
H413 C399 0.961 . S
H414 C399 0.961 . S
H415 C399 0.961 . S
H416 C400 0.931 . S
H417 C405 0.930 . S
H418 C406 0.956 . S
H419 C406 0.961 . S
H420 C406 0.961 . S
H421 C407 0.958 . S
H422 C407 0.961 . S
H423 C407 0.960 . S
C424 C425 1.391 . S
C424 C426 1.394 . S
C424 H440 0.931 . S
C425 C424 1.391 . S
C425 C429 1.376 . S
C426 C424 1.394 . S
C426 C427 1.369 . S
C426 C430 1.531 . S
C427 C426 1.369 . S
C427 C428 1.410 . S
C427 C435 1.503 . S
C428 C427 1.410 . S
C428 C429 1.392 . S
C428 C431 1.511 . S
C429 C425 1.376 . S
C429 C428 1.392 . S
C429 H441 0.929 . S
C430 C426 1.531 . S
C430 H442 0.960 . S
C430 H443 0.962 . S
C430 H444 0.960 . S
C431 C428 1.511 . S
C431 H445 0.961 . S
C431 H446 0.961 . S
C431 H447 0.961 . S
C432 C433 1.370 . S
C432 C434 1.363 . S
C432 H448 0.931 . S
C433 C432 1.370 . S
C433 C437 1.408 . S
C434 C432 1.363 . S
C434 C435 1.370 . S
C434 C438 1.524 . S
C435 C427 1.503 . S
C435 C434 1.370 . S
C435 C436 1.403 . S
C436 C435 1.403 . S
C436 C437 1.404 . S
C436 C439 1.539 . S
C437 C433 1.408 . S
C437 C436 1.404 . S
C437 H449 0.930 . S
C438 C434 1.524 . S
C438 H450 0.956 . S
C438 H451 0.961 . S
C438 H452 0.961 . S
C439 C436 1.539 . S
C439 H453 0.958 . S
C439 H454 0.961 . S
C439 H455 0.960 . S
H440 C424 0.931 . S
H441 C429 0.929 . S
H442 C430 0.960 . S
H443 C430 0.962 . S
H444 C430 0.960 . S
H445 C431 0.961 . S
H446 C431 0.961 . S
H447 C431 0.961 . S
H448 C432 0.931 . S
H449 C437 0.930 . S
H450 C438 0.956 . S
H451 C438 0.961 . S
H452 C438 0.961 . S
H453 C439 0.958 . S
H454 C439 0.961 . S
H455 C439 0.960 . S
C456 C457 1.391 . S
C456 C458 1.394 . S
C456 H472 0.931 . S
C457 C456 1.391 . S
C457 C461 1.376 . S
C458 C456 1.394 . S
C458 C459 1.369 . S
C458 C462 1.531 . S
C459 C458 1.369 . S
C459 C460 1.410 . S
C459 C467 1.503 . S
C460 C459 1.410 . S
C460 C461 1.392 . S
C460 C463 1.511 . S
C461 C457 1.376 . S
C461 C460 1.392 . S
C461 H473 0.929 . S
C462 C458 1.531 . S
C462 H474 0.960 . S
C462 H475 0.962 . S
C462 H476 0.960 . S
C463 C460 1.511 . S
C463 H477 0.961 . S
C463 H478 0.961 . S
C463 H479 0.961 . S
C464 C465 1.370 . S
C464 C466 1.363 . S
C464 H480 0.931 . S
C465 C464 1.370 . S
C465 C469 1.408 . S
C466 C464 1.363 . S
C466 C467 1.370 . S
C466 C470 1.524 . S
C467 C459 1.503 . S
C467 C466 1.370 . S
C467 C468 1.403 . S
C468 C467 1.403 . S
C468 C469 1.404 . S
C468 C471 1.539 . S
C469 C465 1.408 . S
C469 C468 1.404 . S
C469 H481 0.930 . S
C470 C466 1.524 . S
C470 H482 0.956 . S
C470 H483 0.961 . S
C470 H484 0.961 . S
C471 C468 1.539 . S
C471 H485 0.958 . S
C471 H486 0.961 . S
C471 H487 0.960 . S
H472 C456 0.931 . S
H473 C461 0.929 . S
H474 C462 0.960 . S
H475 C462 0.962 . S
H476 C462 0.960 . S
H477 C463 0.961 . S
H478 C463 0.961 . S
H479 C463 0.961 . S
H480 C464 0.931 . S
H481 C469 0.930 . S
H482 C470 0.956 . S
H483 C470 0.961 . S
H484 C470 0.961 . S
H485 C471 0.958 . S
H486 C471 0.961 . S
H487 C471 0.960 . S
C488 C489 1.391 . S
C488 C490 1.394 . S
C488 H504 0.931 . S
C489 C488 1.391 . S
C489 C493 1.376 . S
C490 C488 1.394 . S
C490 C491 1.369 . S
C490 C494 1.531 . S
C491 C490 1.369 . S
C491 C492 1.410 . S
C491 C499 1.503 . S
C492 C491 1.410 . S
C492 C493 1.392 . S
C492 C495 1.511 . S
C493 C489 1.376 . S
C493 C492 1.392 . S
C493 H505 0.929 . S
C494 C490 1.531 . S
C494 H506 0.960 . S
C494 H507 0.962 . S
C494 H508 0.960 . S
C495 C492 1.511 . S
C495 H509 0.961 . S
C495 H510 0.961 . S
C495 H511 0.961 . S
C496 C497 1.370 . S
C496 C498 1.363 . S
C496 H512 0.931 . S
C497 C496 1.370 . S
C497 C501 1.408 . S
C498 C496 1.363 . S
C498 C499 1.370 . S
C498 C502 1.524 . S
C499 C491 1.503 . S
C499 C498 1.370 . S
C499 C500 1.403 . S
C500 C499 1.403 . S
C500 C501 1.404 . S
C500 C503 1.539 . S
C501 C497 1.408 . S
C501 C500 1.404 . S
C501 H513 0.930 . S
C502 C498 1.524 . S
C502 H514 0.956 . S
C502 H515 0.961 . S
C502 H516 0.961 . S
C503 C500 1.539 . S
C503 H517 0.958 . S
C503 H518 0.961 . S
C503 H519 0.960 . S
H504 C488 0.931 . S
H505 C493 0.929 . S
H506 C494 0.960 . S
H507 C494 0.962 . S
H508 C494 0.960 . S
H509 C495 0.961 . S
H510 C495 0.961 . S
H511 C495 0.961 . S
H512 C496 0.931 . S
H513 C501 0.930 . S
H514 C502 0.956 . S
H515 C502 0.961 . S
H516 C502 0.961 . S
H517 C503 0.958 . S
H518 C503 0.961 . S
H519 C503 0.960 . S
C520 C521 1.391 . S
C520 C522 1.394 . S
C520 H536 0.931 . S
C521 C520 1.391 . S
C521 C525 1.376 . S
C522 C520 1.394 . S
C522 C523 1.369 . S
C522 C526 1.531 . S
C523 C522 1.369 . S
C523 C524 1.410 . S
C523 C531 1.503 . S
C524 C523 1.410 . S
C524 C525 1.392 . S
C524 C527 1.511 . S
C525 C521 1.376 . S
C525 C524 1.392 . S
C525 H537 0.929 . S
C526 C522 1.531 . S
C526 H538 0.960 . S
C526 H539 0.962 . S
C526 H540 0.960 . S
C527 C524 1.511 . S
C527 H541 0.961 . S
C527 H542 0.961 . S
C527 H543 0.961 . S
C528 C529 1.370 . S
C528 C530 1.363 . S
C528 H544 0.931 . S
C529 C528 1.370 . S
C529 C533 1.408 . S
C530 C528 1.363 . S
C530 C531 1.370 . S
C530 C534 1.524 . S
C531 C523 1.503 . S
C531 C530 1.370 . S
C531 C532 1.403 . S
C532 C531 1.403 . S
C532 C533 1.404 . S
C532 C535 1.539 . S
C533 C529 1.408 . S
C533 C532 1.404 . S
C533 H545 0.930 . S
C534 C530 1.524 . S
C534 H546 0.956 . S
C534 H547 0.961 . S
C534 H548 0.961 . S
C535 C532 1.539 . S
C535 H549 0.958 . S
C535 H550 0.961 . S
C535 H551 0.960 . S
H536 C520 0.931 . S
H537 C525 0.929 . S
H538 C526 0.960 . S
H539 C526 0.962 . S
H540 C526 0.960 . S
H541 C527 0.961 . S
H542 C527 0.961 . S
H543 C527 0.961 . S
H544 C528 0.931 . S
H545 C533 0.930 . S
H546 C534 0.956 . S
H547 C534 0.961 . S
H548 C534 0.961 . S
H549 C535 0.958 . S
H550 C535 0.961 . S
H551 C535 0.960 . S
C552 C553 1.391 . S
C552 C554 1.394 . S
C552 H568 0.931 . S
C553 C552 1.391 . S
C553 C557 1.376 . S
C554 C552 1.394 . S
C554 C555 1.369 . S
C554 C558 1.531 . S
C555 C554 1.369 . S
C555 C556 1.410 . S
C555 C563 1.503 . S
C556 C555 1.410 . S
C556 C557 1.392 . S
C556 C559 1.511 . S
C557 C553 1.376 . S
C557 C556 1.392 . S
C557 H569 0.929 . S
C558 C554 1.531 . S
C558 H570 0.960 . S
C558 H571 0.962 . S
C558 H572 0.960 . S
C559 C556 1.511 . S
C559 H573 0.961 . S
C559 H574 0.961 . S
C559 H575 0.961 . S
C560 C561 1.370 . S
C560 C562 1.363 . S
C560 H576 0.931 . S
C561 C560 1.370 . S
C561 C565 1.408 . S
C562 C560 1.363 . S
C562 C563 1.370 . S
C562 C566 1.524 . S
C563 C555 1.503 . S
C563 C562 1.370 . S
C563 C564 1.403 . S
C564 C563 1.403 . S
C564 C565 1.404 . S
C564 C567 1.539 . S
C565 C561 1.408 . S
C565 C564 1.404 . S
C565 H577 0.930 . S
C566 C562 1.524 . S
C566 H578 0.956 . S
C566 H579 0.961 . S
C566 H580 0.961 . S
C567 C564 1.539 . S
C567 H581 0.958 . S
C567 H582 0.961 . S
C567 H583 0.960 . S
H568 C552 0.931 . S
H569 C557 0.929 . S
H570 C558 0.960 . S
H571 C558 0.962 . S
H572 C558 0.960 . S
H573 C559 0.961 . S
H574 C559 0.961 . S
H575 C559 0.961 . S
H576 C560 0.931 . S
H577 C565 0.930 . S
H578 C566 0.956 . S
H579 C566 0.961 . S
H580 C566 0.961 . S
H581 C567 0.958 . S
H582 C567 0.961 . S
H583 C567 0.960 . S
C584 C585 1.391 . S
C584 C586 1.394 . S
C584 H600 0.931 . S
C585 C584 1.391 . S
C585 C589 1.376 . S
C586 C584 1.394 . S
C586 C587 1.369 . S
C586 C590 1.531 . S
C587 C586 1.369 . S
C587 C588 1.410 . S
C587 C595 1.503 . S
C588 C587 1.410 . S
C588 C589 1.392 . S
C588 C591 1.511 . S
C589 C585 1.376 . S
C589 C588 1.392 . S
C589 H601 0.929 . S
C590 C586 1.531 . S
C590 H602 0.960 . S
C590 H603 0.962 . S
C590 H604 0.960 . S
C591 C588 1.511 . S
C591 H605 0.961 . S
C591 H606 0.961 . S
C591 H607 0.961 . S
C592 C593 1.370 . S
C592 C594 1.363 . S
C592 H608 0.931 . S
C593 C592 1.370 . S
C593 C597 1.408 . S
C594 C592 1.363 . S
C594 C595 1.370 . S
C594 C598 1.524 . S
C595 C587 1.503 . S
C595 C594 1.370 . S
C595 C596 1.403 . S
C596 C595 1.403 . S
C596 C597 1.404 . S
C596 C599 1.539 . S
C597 C593 1.408 . S
C597 C596 1.404 . S
C597 H609 0.930 . S
C598 C594 1.524 . S
C598 H610 0.956 . S
C598 H611 0.961 . S
C598 H612 0.961 . S
C599 C596 1.539 . S
C599 H613 0.958 . S
C599 H614 0.961 . S
C599 H615 0.960 . S
H600 C584 0.931 . S
H601 C589 0.929 . S
H602 C590 0.960 . S
H603 C590 0.962 . S
H604 C590 0.960 . S
H605 C591 0.961 . S
H606 C591 0.961 . S
H607 C591 0.961 . S
H608 C592 0.931 . S
H609 C597 0.930 . S
H610 C598 0.956 . S
H611 C598 0.961 . S
H612 C598 0.961 . S
H613 C599 0.958 . S
H614 C599 0.961 . S
H615 C599 0.960 . S
C616 C617 1.391 . S
C616 C618 1.394 . S
C616 H632 0.931 . S
C617 C616 1.391 . S
C617 C621 1.376 . S
C618 C616 1.394 . S
C618 C619 1.369 . S
C618 C622 1.531 . S
C619 C618 1.369 . S
C619 C620 1.410 . S
C619 C627 1.503 . S
C620 C619 1.410 . S
C620 C621 1.392 . S
C620 C623 1.511 . S
C621 C617 1.376 . S
C621 C620 1.392 . S
C621 H633 0.929 . S
C622 C618 1.531 . S
C622 H634 0.960 . S
C622 H635 0.962 . S
C622 H636 0.960 . S
C623 C620 1.511 . S
C623 H637 0.961 . S
C623 H638 0.961 . S
C623 H639 0.961 . S
C624 C625 1.370 . S
C624 C626 1.363 . S
C624 H640 0.931 . S
C625 C624 1.370 . S
C625 C629 1.408 . S
C626 C624 1.363 . S
C626 C627 1.370 . S
C626 C630 1.524 . S
C627 C619 1.503 . S
C627 C626 1.370 . S
C627 C628 1.403 . S
C628 C627 1.403 . S
C628 C629 1.404 . S
C628 C631 1.539 . S
C629 C625 1.408 . S
C629 C628 1.404 . S
C629 H641 0.930 . S
C630 C626 1.524 . S
C630 H642 0.956 . S
C630 H643 0.961 . S
C630 H644 0.961 . S
C631 C628 1.539 . S
C631 H645 0.958 . S
C631 H646 0.961 . S
C631 H647 0.960 . S
H632 C616 0.931 . S
H633 C621 0.929 . S
H634 C622 0.960 . S
H635 C622 0.962 . S
H636 C622 0.960 . S
H637 C623 0.961 . S
H638 C623 0.961 . S
H639 C623 0.961 . S
H640 C624 0.931 . S
H641 C629 0.930 . S
H642 C630 0.956 . S
H643 C630 0.961 . S
H644 C630 0.961 . S
H645 C631 0.958 . S
H646 C631 0.961 . S
H647 C631 0.960 . S
C648 C649 1.391 . S
C648 C650 1.394 . S
C648 H664 0.931 . S
C649 C648 1.391 . S
C649 C653 1.376 1_545 S
C650 C648 1.394 . S
C650 C651 1.369 . S
C650 C654 1.531 . S
C651 C650 1.369 . S
C651 C652 1.410 1_545 S
C651 C659 1.503 . S
C652 C651 1.410 1_565 S
C652 C653 1.392 . S
C652 C655 1.511 . S
C653 C649 1.376 1_565 S
C653 C652 1.392 . S
C653 H665 0.929 . S
C654 C650 1.531 . S
C654 H666 0.960 . S
C654 H667 0.962 . S
C654 H668 0.960 . S
C655 C652 1.511 . S
C655 H669 0.961 . S
C655 H670 0.961 . S
C655 H671 0.961 . S
C656 C657 1.370 . S
C656 C658 1.363 . S
C656 H672 0.931 . S
C657 C656 1.370 . S
C657 C661 1.408 . S
C658 C656 1.363 . S
C658 C659 1.370 1_655 S
C658 C662 1.524 1_655 S
C659 C651 1.503 . S
C659 C658 1.370 1_455 S
C659 C660 1.403 1_455 S
C660 C659 1.403 1_655 S
C660 C661 1.404 . S
C660 C663 1.550 . S
C661 C657 1.408 . S
C661 C660 1.404 . S
C661 H673 0.930 . S
C662 C658 1.524 1_455 S
C662 H674 0.956 . S
C662 H675 0.961 1_545 S
C662 H676 0.961 1_455 S
C663 C660 1.550 . S
C663 H677 0.954 1_655 S
C663 H678 0.976 . S
C663 H679 0.938 1_655 S
H664 C648 0.931 . S
H665 C653 0.929 . S
H666 C654 0.960 . S
H667 C654 0.962 . S
H668 C654 0.960 . S
H669 C655 0.961 . S
H670 C655 0.961 . S
H671 C655 0.961 . S
H672 C656 0.931 . S
H673 C661 0.930 . S
H674 C662 0.956 . S
H675 C662 0.961 1_565 S
H676 C662 0.961 1_655 S
H677 C663 0.954 1_455 S
H678 C663 0.976 . S
H679 C663 0.938 1_455 S
C680 C681 1.391 . S
C680 C682 1.394 . S
C680 H696 0.931 . S
C681 C680 1.391 . S
C681 C685 1.376 1_455 S
C682 C680 1.394 . S
C682 C683 1.369 . S
C682 C686 1.531 . S
C683 C682 1.369 . S
C683 C684 1.410 1_455 S
C683 C691 1.503 . S
C684 C683 1.410 1_655 S
C684 C685 1.392 . S
C684 C687 1.511 . S
C685 C681 1.376 1_655 S
C685 C684 1.392 . S
C685 H697 0.929 . S
C686 C682 1.531 . S
C686 H698 0.960 . S
C686 H699 0.962 . S
C686 H700 0.960 . S
C687 C684 1.511 . S
C687 H701 0.961 . S
C687 H702 0.961 . S
C687 H703 0.961 . S
C688 C689 1.370 . S
C688 C690 1.363 . S
C688 H704 0.931 . S
C689 C688 1.370 . S
C689 C693 1.408 1_455 S
C690 C688 1.363 . S
C690 C691 1.370 1_565 S
C690 C694 1.524 1_565 S
C691 C683 1.503 . S
C691 C690 1.370 1_545 S
C691 C692 1.403 1_445 S
C692 C691 1.403 1_665 S
C692 C693 1.404 . S
C692 C695 1.534 1_565 S
C693 C689 1.408 1_655 S
C693 C692 1.404 . S
C693 H705 0.930 . S
C694 C690 1.524 1_545 S
C694 H706 0.956 . S
C694 H707 0.961 . S
C694 H708 0.961 1_545 S
C695 C692 1.534 1_545 S
C695 H709 0.960 . S
C695 H710 0.954 1_545 S
C695 H711 0.971 . S
H696 C680 0.931 . S
H697 C685 0.929 . S
H698 C686 0.960 . S
H699 C686 0.962 . S
H700 C686 0.960 . S
H701 C687 0.961 . S
H702 C687 0.961 . S
H703 C687 0.961 . S
H704 C688 0.931 . S
H705 C693 0.930 . S
H706 C694 0.956 . S
H707 C694 0.961 . S
H708 C694 0.961 1_565 S
H709 C695 0.960 . S
H710 C695 0.954 1_565 S
H711 C695 0.971 . S
C712 C713 1.391 . S
C712 C714 1.394 . S
C712 H728 0.931 . S
C713 C712 1.391 . S
C713 C717 1.376 1_545 S
C714 C712 1.394 . S
C714 C715 1.369 1_655 S
C714 C718 1.531 1_655 S
C715 C714 1.369 1_455 S
C715 C716 1.410 1_445 S
C715 C723 1.503 . S
C716 C715 1.410 1_665 S
C716 C717 1.392 . S
C716 C719 1.511 1_655 S
C717 C713 1.376 1_565 S
C717 C716 1.392 . S
C717 H729 0.929 . S
C718 C714 1.531 1_455 S
C718 H730 0.960 . S
C718 H731 0.962 . S
C718 H732 0.960 1_455 S
C719 C716 1.511 1_455 S
C719 H733 0.961 1_455 S
C719 H734 0.961 . S
C719 H735 0.961 . S
C720 C721 1.370 . S
C720 C722 1.363 . S
C720 H736 0.931 . S
C721 C720 1.370 . S
C721 C725 1.408 . S
C722 C720 1.363 . S
C722 C723 1.370 . S
C722 C726 1.524 . S
C723 C715 1.503 . S
C723 C722 1.370 . S
C723 C724 1.403 . S
C724 C723 1.403 . S
C724 C725 1.404 . S
C724 C727 1.539 . S
C725 C721 1.408 . S
C725 C724 1.404 . S
C725 H737 0.930 . S
C726 C722 1.524 . S
C726 H738 0.956 . S
C726 H739 0.961 . S
C726 H740 0.961 . S
C727 C724 1.539 . S
C727 H741 0.958 . S
C727 H742 0.961 . S
C727 H743 0.960 . S
H728 C712 0.931 . S
H729 C717 0.929 . S
H730 C718 0.960 . S
H731 C718 0.962 . S
H732 C718 0.960 1_655 S
H733 C719 0.961 1_655 S
H734 C719 0.961 . S
H735 C719 0.961 . S
H736 C720 0.931 . S
H737 C725 0.930 . S
H738 C726 0.956 . S
H739 C726 0.961 . S
H740 C726 0.961 . S
H741 C727 0.958 . S
H742 C727 0.961 . S
H743 C727 0.960 . S
C744 C745 1.391 . S
C744 C746 1.392 1_455 S
C744 H760 0.931 1_455 S
C745 C744 1.391 . S
C745 C749 1.376 . S
C746 C744 1.392 1_655 S
C746 C747 1.362 1_665 S
C746 C750 1.539 1_565 S
C747 C746 1.362 1_445 S
C747 C748 1.410 1_545 S
C747 C755 1.503 . S
C748 C747 1.410 1_565 S
C748 C749 1.392 . S
C748 C751 1.511 1_565 S
C749 C745 1.376 . S
C749 C748 1.392 . S
C749 H761 0.929 . S
C750 C746 1.539 1_545 S
C750 H762 0.960 . S
C750 H763 0.962 . S
C750 H764 0.960 1_545 S
C751 C748 1.511 1_545 S
C751 H765 0.961 1_545 S
C751 H766 0.961 . S
C751 H767 0.961 . S
C752 C753 1.370 . S
C752 C754 1.363 . S
C752 H768 0.931 . S
C753 C752 1.370 . S
C753 C757 1.408 1_455 S
C754 C752 1.363 . S
C754 C755 1.370 . S
C754 C758 1.524 . S
C755 C747 1.503 . S
C755 C754 1.370 . S
C755 C756 1.403 1_455 S
C756 C755 1.403 1_655 S
C756 C757 1.404 . S
C756 C759 1.539 . S
C757 C753 1.408 1_655 S
C757 C756 1.404 . S
C757 H769 0.930 . S
C758 C754 1.524 . S
C758 H770 0.956 . S
C758 H771 0.961 . S
C758 H772 0.961 . S
C759 C756 1.539 . S
C759 H773 0.958 . S
C759 H774 0.961 . S
C759 H775 0.960 . S
H760 C744 0.931 1_655 S
H761 C749 0.929 . S
H762 C750 0.960 . S
H763 C750 0.962 . S
H764 C750 0.960 1_565 S
H765 C751 0.961 1_565 S
H766 C751 0.961 . S
H767 C751 0.961 . S
H768 C752 0.931 . S
H769 C757 0.930 . S
H770 C758 0.956 . S
H771 C758 0.961 . S
H772 C758 0.961 . S
H773 C759 0.958 . S
H774 C759 0.961 . S
H775 C759 0.960 . S
C776 C777 1.391 1_565 S
C776 C778 1.394 . S
C776 H792 0.931 . S
C777 C776 1.391 1_545 S
C777 C781 1.376 . S
C778 C776 1.394 . S
C778 C779 1.369 1_565 S
C778 C782 1.531 . S
C779 C778 1.369 1_545 S
C779 C780 1.410 . S
C779 C787 1.503 . S
C780 C779 1.410 . S
C780 C781 1.392 . S
C780 C783 1.511 . S
C781 C777 1.376 . S
C781 C780 1.392 . S
C781 H793 0.929 . S
C782 C778 1.531 . S
C782 H794 0.960 . S
C782 H795 0.962 . S
C782 H796 0.960 . S
C783 C780 1.511 . S
C783 H797 0.961 . S
C783 H798 0.961 . S
C783 H799 0.961 . S
C784 C785 1.370 . S
C784 C786 1.363 . S
C784 H800 0.931 1_545 S
C785 C784 1.370 . S
C785 C789 1.408 . S
C786 C784 1.363 . S
C786 C787 1.370 . S
C786 C790 1.524 1_545 S
C787 C779 1.503 . S
C787 C786 1.370 . S
C787 C788 1.403 . S
C788 C787 1.403 . S
C788 C789 1.404 . S
C788 C791 1.539 . S
C789 C785 1.408 . S
C789 C788 1.404 . S
C789 H801 0.930 . S
C790 C786 1.524 1_565 S
C790 H802 0.956 . S
C790 H803 0.961 1_565 S
C790 H804 0.961 . S
C791 C788 1.539 . S
C791 H805 0.958 . S
C791 H806 0.961 . S
C791 H807 0.960 . S
H792 C776 0.931 . S
H793 C781 0.929 . S
H794 C782 0.960 . S
H795 C782 0.962 . S
H796 C782 0.960 . S
H797 C783 0.961 . S
H798 C783 0.961 . S
H799 C783 0.961 . S
H800 C784 0.931 1_565 S
H801 C789 0.930 . S
H802 C790 0.956 . S
H803 C790 0.961 1_545 S
H804 C790 0.961 . S
H805 C791 0.958 . S
H806 C791 0.961 . S
H807 C791 0.960 . S
C808 C809 1.391 . S
C808 C810 1.394 . S
C808 H824 0.939 . S
C809 C808 1.391 . S
C809 C813 1.376 . S
C810 C808 1.394 . S
C810 C811 1.369 . S
C810 C814 1.531 1_455 S
C811 C810 1.369 . S
C811 C812 1.410 . S
C811 C819 1.503 . S
C812 C811 1.410 . S
C812 C813 1.392 . S
C812 C815 1.511 . S
C813 C809 1.376 . S
C813 C812 1.392 . S
C813 H825 0.929 . S
C814 C810 1.531 1_655 S
C814 H826 0.960 1_655 S
C814 H827 0.962 . S
C814 H828 0.960 . S
C815 C812 1.511 . S
C815 H829 0.961 . S
C815 H830 0.961 . S
C815 H831 0.961 . S
C816 C817 1.370 1_655 S
C816 C818 1.363 . S
C816 H832 0.931 . S
C817 C816 1.370 1_455 S
C817 C821 1.408 . S
C818 C816 1.363 . S
C818 C819 1.370 1_655 S
C818 C822 1.524 . S
C819 C811 1.503 . S
C819 C818 1.370 1_455 S
C819 C820 1.403 . S
C820 C819 1.403 . S
C820 C821 1.404 . S
C820 C823 1.539 . S
C821 C817 1.408 . S
C821 C820 1.404 . S
C821 H833 0.930 . S
C822 C818 1.524 . S
C822 H834 0.956 . S
C822 H835 0.961 . S
C822 H836 0.961 . S
C823 C820 1.539 . S
C823 H837 0.958 . S
C823 H838 0.961 . S
C823 H839 0.960 . S
H824 C808 0.939 . S
H825 C813 0.929 . S
H826 C814 0.960 1_455 S
H827 C814 0.962 . S
H828 C814 0.960 . S
H829 C815 0.961 . S
H830 C815 0.961 . S
H831 C815 0.961 . S
H832 C816 0.931 . S
H833 C821 0.930 . S
H834 C822 0.956 . S
H835 C822 0.961 . S
H836 C822 0.961 . S
H837 C823 0.958 . S
H838 C823 0.961 . S
H839 C823 0.960 . S
C840 C841 1.391 1_565 S
C840 C842 1.394 . S
C840 H856 0.931 . S
C841 C840 1.391 1_545 S
C841 C845 1.376 . S
C842 C840 1.394 . S
C842 C843 1.369 1_565 S
C842 C846 1.531 . S
C843 C842 1.369 1_545 S
C843 C844 1.410 . S
C843 C851 1.503 . S
C844 C843 1.410 . S
C844 C845 1.392 . S
C844 C847 1.511 . S
C845 C841 1.376 . S
C845 C844 1.392 . S
C845 H857 0.929 . S
C846 C842 1.531 . S
C846 H858 0.960 . S
C846 H859 0.962 . S
C846 H860 0.960 . S
C847 C844 1.511 . S
C847 H861 0.961 . S
C847 H862 0.961 . S
C847 H863 0.961 . S
C848 C849 1.370 . S
C848 C850 1.363 . S
C848 H864 0.931 . S
C849 C848 1.370 . S
C849 C853 1.408 . S
C850 C848 1.363 . S
C850 C851 1.370 . S
C850 C854 1.524 . S
C851 C843 1.503 . S
C851 C850 1.370 . S
C851 C852 1.403 . S
C852 C851 1.403 . S
C852 C853 1.404 . S
C852 C855 1.539 . S
C853 C849 1.408 . S
C853 C852 1.404 . S
C853 H865 0.930 . S
C854 C850 1.524 . S
C854 H866 0.956 . S
C854 H867 0.961 . S
C854 H868 0.961 . S
C855 C852 1.539 . S
C855 H869 0.958 1_545 S
C855 H870 0.961 . S
C855 H871 0.960 . S
H856 C840 0.931 . S
H857 C845 0.929 . S
H858 C846 0.960 . S
H859 C846 0.962 . S
H860 C846 0.960 . S
H861 C847 0.961 . S
H862 C847 0.961 . S
H863 C847 0.961 . S
H864 C848 0.931 . S
H865 C853 0.930 . S
H866 C854 0.956 . S
H867 C854 0.961 . S
H868 C854 0.961 . S
H869 C855 0.958 1_565 S
H870 C855 0.961 . S
H871 C855 0.960 . S
C872 C873 1.391 . S
C872 C874 1.394 . S
C872 H888 0.931 . S
C873 C872 1.391 . S
C873 C877 1.376 1_455 S
C874 C872 1.394 . S
C874 C875 1.369 . S
C874 C878 1.531 . S
C875 C874 1.369 . S
C875 C876 1.410 1_455 S
C875 C883 1.503 . S
C876 C875 1.410 1_655 S
C876 C877 1.392 . S
C876 C879 1.511 . S
C877 C873 1.376 1_655 S
C877 C876 1.392 . S
C877 H889 0.929 . S
C878 C874 1.531 . S
C878 H890 0.960 . S
C878 H891 0.962 . S
C878 H892 0.960 . S
C879 C876 1.511 . S
C879 H893 0.961 . S
C879 H894 0.961 . S
C879 H895 0.961 . S
C880 C881 1.370 . S
C880 C882 1.363 . S
C880 H896 0.931 . S
C881 C880 1.370 . S
C881 C885 1.408 1_455 S
C882 C880 1.363 . S
C882 C883 1.370 . S
C882 C886 1.524 . S
C883 C875 1.503 . S
C883 C882 1.370 . S
C883 C884 1.403 1_455 S
C884 C883 1.403 1_655 S
C884 C885 1.404 . S
C884 C887 1.539 . S
C885 C881 1.408 1_655 S
C885 C884 1.404 . S
C885 H897 0.930 . S
C886 C882 1.524 . S
C886 H898 0.956 . S
C886 H899 0.961 . S
C886 H900 0.961 . S
C887 C884 1.539 . S
C887 H901 0.958 . S
C887 H902 0.961 . S
C887 H903 0.960 . S
H888 C872 0.931 . S
H889 C877 0.929 . S
H890 C878 0.960 . S
H891 C878 0.962 . S
H892 C878 0.960 . S
H893 C879 0.961 . S
H894 C879 0.961 . S
H895 C879 0.961 . S
H896 C880 0.931 . S
H897 C885 0.930 . S
H898 C886 0.956 . S
H899 C886 0.961 . S
H900 C886 0.961 . S
H901 C887 0.958 . S
H902 C887 0.961 . S
H903 C887 0.960 . S
C265 C28 1.646 . S
C273 C160 1.662 . S
C297 C193 1.660 . S
C305 C61 1.669 . S
C329 C94 1.653 . S
C337 C226 1.666 . S
C361 C259 1.660 . S
C369 C127 1.663 . S
C393 C182 0.488 . S
C401 C17 0.440 . S
C425 C215 0.385 . S
C433 C50 0.395 . S
C457 C83 0.434 . S
C465 C248 0.416 . S
C489 C149 0.439 . S
C497 C116 0.418 . S
C521 C107 1.278 . S
C529 C206 1.296 . S
C553 C8 1.309 . S
C561 C239 1.308 . S
C585 C41 1.314 . S
C593 C140 1.311 . S
C617 C74 1.275 . S
C625 C173 1.294 . S
C649 N14 0.674 . S
C657 N80 0.693 . S
C681 N47 0.678 . S
C689 N113 0.719 . S
C713 N212 0.685 . S
C721 N146 0.688 . S
C745 N245 0.645 . S
C753 N179 0.710 . S
C777 N5 1.068 . S
C785 N71 1.042 . S
C809 N104 1.077 . S
C817 N38 1.035 . S
C841 N137 1.040 . S
C849 N203 1.039 . S
C873 N170 1.013 . S
C881 N236 1.052 . S
