# Generated by pormake.
# Topology cag, (4)-cn, num edge types: 1
# Building blocks:
#     Node 0, Type 0, BuildingBlock: NAHDIM_clean_sbu_0, # of connection points: 4
#     Node 1, Type 0, BuildingBlock: NAHDIM_clean_sbu_0, # of connection points: 4
#     Node 2, Type 0, BuildingBlock: NAHDIM_clean_sbu_0, # of connection points: 4
#     Node 3, Type 0, BuildingBlock: NAHDIM_clean_sbu_0, # of connection points: 4
#     Node 4, Type 0, BuildingBlock: NAHDIM_clean_sbu_0, # of connection points: 4
#     Node 5, Type 0, BuildingBlock: NAHDIM_clean_sbu_0, # of connection points: 4
#     Node 6, Type 0, BuildingBlock: NAHDIM_clean_sbu_0, # of connection points: 4
#     Node 7, Type 0, BuildingBlock: NAHDIM_clean_sbu_0, # of connection points: 4
#     Node 8, Type 0, BuildingBlock: NAHDIM_clean_sbu_0, # of connection points: 4
#     Node 9, Type 0, BuildingBlock: NAHDIM_clean_sbu_0, # of connection points: 4
#     Node 10, Type 0, BuildingBlock: NAHDIM_clean_sbu_0, # of connection points: 4
#     Node 11, Type 0, BuildingBlock: NAHDIM_clean_sbu_0, # of connection points: 4
#     Node 12, Type 0, BuildingBlock: NAHDIM_clean_sbu_0, # of connection points: 4
#     Node 13, Type 0, BuildingBlock: NAHDIM_clean_sbu_0, # of connection points: 4
#     Node 14, Type 0, BuildingBlock: NAHDIM_clean_sbu_0, # of connection points: 4
#     Node 15, Type 0, BuildingBlock: NAHDIM_clean_sbu_0, # of connection points: 4
#     Edge 16, Type (0, 0), BuildingBlock: EZIPEK_clean_linker_0, # of connection points: 2
#     Edge 17, Type (0, 0), BuildingBlock: EZIPEK_clean_linker_0, # of connection points: 2
#     Edge 18, Type (0, 0), BuildingBlock: EZIPEK_clean_linker_0, # of connection points: 2
#     Edge 19, Type (0, 0), BuildingBlock: EZIPEK_clean_linker_0, # of connection points: 2
#     Edge 20, Type (0, 0), BuildingBlock: EZIPEK_clean_linker_0, # of connection points: 2
#     Edge 21, Type (0, 0), BuildingBlock: EZIPEK_clean_linker_0, # of connection points: 2
#     Edge 22, Type (0, 0), BuildingBlock: EZIPEK_clean_linker_0, # of connection points: 2
#     Edge 23, Type (0, 0), BuildingBlock: EZIPEK_clean_linker_0, # of connection points: 2
#     Edge 24, Type (0, 0), BuildingBlock: EZIPEK_clean_linker_0, # of connection points: 2
#     Edge 25, Type (0, 0), BuildingBlock: EZIPEK_clean_linker_0, # of connection points: 2
#     Edge 26, Type (0, 0), BuildingBlock: EZIPEK_clean_linker_0, # of connection points: 2
#     Edge 27, Type (0, 0), BuildingBlock: EZIPEK_clean_linker_0, # of connection points: 2
#     Edge 28, Type (0, 0), BuildingBlock: EZIPEK_clean_linker_0, # of connection points: 2
#     Edge 29, Type (0, 0), BuildingBlock: EZIPEK_clean_linker_0, # of connection points: 2
#     Edge 30, Type (0, 0), BuildingBlock: EZIPEK_clean_linker_0, # of connection points: 2
#     Edge 31, Type (0, 0), BuildingBlock: EZIPEK_clean_linker_0, # of connection points: 2
#     Edge 32, Type (0, 0), BuildingBlock: EZIPEK_clean_linker_0, # of connection points: 2
#     Edge 33, Type (0, 0), BuildingBlock: EZIPEK_clean_linker_0, # of connection points: 2
#     Edge 34, Type (0, 0), BuildingBlock: EZIPEK_clean_linker_0, # of connection points: 2
#     Edge 35, Type (0, 0), BuildingBlock: EZIPEK_clean_linker_0, # of connection points: 2
#     Edge 36, Type (0, 0), BuildingBlock: EZIPEK_clean_linker_0, # of connection points: 2
#     Edge 37, Type (0, 0), BuildingBlock: EZIPEK_clean_linker_0, # of connection points: 2
#     Edge 38, Type (0, 0), BuildingBlock: EZIPEK_clean_linker_0, # of connection points: 2
#     Edge 39, Type (0, 0), BuildingBlock: EZIPEK_clean_linker_0, # of connection points: 2
#     Edge 40, Type (0, 0), BuildingBlock: EZIPEK_clean_linker_0, # of connection points: 2
#     Edge 41, Type (0, 0), BuildingBlock: EZIPEK_clean_linker_0, # of connection points: 2
#     Edge 42, Type (0, 0), BuildingBlock: EZIPEK_clean_linker_0, # of connection points: 2
#     Edge 43, Type (0, 0), BuildingBlock: EZIPEK_clean_linker_0, # of connection points: 2
#     Edge 44, Type (0, 0), BuildingBlock: EZIPEK_clean_linker_0, # of connection points: 2
#     Edge 45, Type (0, 0), BuildingBlock: EZIPEK_clean_linker_0, # of connection points: 2
#     Edge 46, Type (0, 0), BuildingBlock: EZIPEK_clean_linker_0, # of connection points: 2
#     Edge 47, Type (0, 0), BuildingBlock: EZIPEK_clean_linker_0, # of connection points: 2
# Relax obj value: 0.040
# Max RMSD: 0.072
# Mean RMSD: 0.071
data_MOF--net-cag--node1-NAHDIM_clean_sbu_0--edge1-EZIPEK_clean_linker_0
_symmetry_space_group_name_H-M    P1
_symmetry_Int_Tables_number       1
_symmetry_cell_setting            triclinic
loop_
_symmetry_equiv_pos_as_xyz
'x, y, z'
_cell_length_a     30.604698
_cell_length_b     37.111646
_cell_length_c     31.585436
_cell_angle_alpha  89.988894
_cell_angle_beta   89.993375
_cell_angle_gamma 89.97652
loop_
_atom_site_label
_atom_site_type_symbol
_atom_site_fract_x
_atom_site_fract_y
_atom_site_fract_z
_atom_type_partial_charge
C0 C 0.29506 0.212 0.06891 0.0
O1 O 0.31413 0.21717 0.10565 0.0
O2 O 0.38142 0.14431 0.08825 0.0
Zn3 Zn 0.31577 0.13789 0.08591 0.0
O4 O 0.28837 0.13495 0.14407 0.0
C5 C 0.3289 0.06684 0.05233 0.0
O6 O 0.36379 0.06817 0.07648 0.0
O7 O 0.29115 0.18025 0.0544 0.0
C8 C 0.30499 0.11625 0.17368 0.0
O9 O 0.34076 0.09766 0.16658 0.0
C10 C 0.40268 0.15964 0.11774 0.0
O11 O 0.3821 0.17275 0.15076 0.0
O12 O 0.30231 0.09314 0.05217 0.0
C13 C 0.21105 0.79666 0.56532 0.0
O14 O 0.1795 0.78857 0.59184 0.0
O15 O 0.11868 0.85616 0.58002 0.0
Zn16 Zn 0.18266 0.8693 0.58194 0.0
O17 O 0.20138 0.87749 0.64231 0.0
C18 C 0.16041 0.93721 0.54474 0.0
O19 O 0.12427 0.9319 0.56629 0.0
O20 O 0.21867 0.82946 0.5565 0.0
C21 C 0.24157 0.88078 0.65157 0.0
O22 O 0.27103 0.87954 0.62136 0.0
C23 C 0.09816 0.84393 0.6119 0.0
O24 O 0.11911 0.83796 0.64751 0.0
O25 O 0.1913 0.91442 0.54732 0.0
C26 C 0.29288 0.79744 0.9346 0.0
O27 O 0.32304 0.79169 0.90582 0.0
O28 O 0.37655 0.86011 0.91996 0.0
Zn29 Zn 0.31198 0.86997 0.91339 0.0
O30 O 0.29325 0.86962 0.85177 0.0
C31 C 0.32348 0.94363 0.94128 0.0
O32 O 0.35648 0.94284 0.9148 0.0
O33 O 0.28148 0.82948 0.9434 0.0
C34 C 0.2946 0.89644 0.82674 0.0
O35 O 0.30861 0.92773 0.84049 0.0
C36 C 0.406 0.87041 0.89437 0.0
O37 O 0.39525 0.88797 0.85984 0.0
O38 O 0.29824 0.91653 0.94419 0.0
C39 C 0.19577 0.20855 0.43592 0.0
O40 O 0.16683 0.21582 0.40645 0.0
O41 O 0.11199 0.14807 0.41131 0.0
Zn42 Zn 0.17617 0.13649 0.41191 0.0
O43 O 0.20018 0.1338 0.35256 0.0
C44 C 0.16324 0.06208 0.43509 0.0
O45 O 0.13739 0.06203 0.40191 0.0
O46 O 0.20607 0.17609 0.44368 0.0
C47 C 0.23012 0.11185 0.34201 0.0
O48 O 0.24597 0.08928 0.37011 0.0
C49 C 0.08667 0.14105 0.38055 0.0
O50 O 0.10236 0.1259 0.34617 0.0
O51 O 0.18453 0.09035 0.4444 0.0
C52 C 0.7017 0.84754 0.82633 0.0
O53 O 0.66375 0.83106 0.82753 0.0
O54 O 0.61701 0.85857 0.90015 0.0
Zn55 Zn 0.68109 0.86385 0.91277 0.0
O56 O 0.70252 0.82286 0.94876 0.0
C57 C 0.66507 0.93751 0.93132 0.0
O58 O 0.63673 0.9332 0.90053 0.0
O59 O 0.71571 0.86374 0.85901 0.0
C60 C 0.71418 0.8268 0.98707 0.0
O61 O 0.71111 0.85852 0.00524 0.0
C62 C 0.59012 0.85356 0.93017 0.0
O63 O 0.60471 0.84947 0.96899 0.0
O64 O 0.68954 0.91142 0.94212 0.0
C65 C 0.80298 0.13228 0.31634 0.0
O66 O 0.8457 0.12917 0.31528 0.0
O67 O 0.87893 0.1333 0.40014 0.0
Zn68 Zn 0.8139 0.12816 0.40757 0.0
O69 O 0.78996 0.16685 0.44548 0.0
C70 C 0.83196 0.06599 0.45704 0.0
O71 O 0.86706 0.08488 0.46576 0.0
O72 O 0.78304 0.13204 0.3516 0.0
C73 C 0.80458 0.1738 0.48219 0.0
O74 O 0.83732 0.15511 0.49765 0.0
C75 C 0.90026 0.16232 0.39514 0.0
O76 O 0.87975 0.1934 0.39417 0.0
O77 O 0.80272 0.07923 0.43306 0.0
C78 C 0.70546 0.15042 0.16112 0.0
O79 O 0.68705 0.18126 0.15121 0.0
O80 O 0.60841 0.13662 0.08888 0.0
Zn81 Zn 0.67298 0.12871 0.07961 0.0
O82 O 0.70208 0.16877 0.04702 0.0
C83 C 0.66032 0.07586 0.01445 0.0
O84 O 0.63473 0.10072 0.99833 0.0
O85 O 0.70313 0.12404 0.13564 0.0
C86 C 0.68481 0.18612 0.01665 0.0
O87 O 0.64477 0.17858 0.00466 0.0
C88 C 0.58955 0.16679 0.09417 0.0
O89 O 0.6124 0.19673 0.09374 0.0
O90 O 0.68066 0.08192 0.04873 0.0
C91 C 0.80463 0.84442 0.67291 0.0
O92 O 0.83702 0.82163 0.66781 0.0
O93 O 0.88943 0.86 0.59353 0.0
Zn94 Zn 0.82408 0.86521 0.58656 0.0
O95 O 0.79741 0.82554 0.55203 0.0
C96 C 0.83622 0.92317 0.52828 0.0
O97 O 0.86735 0.90203 0.51406 0.0
O98 O 0.79416 0.86559 0.64302 0.0
C99 C 0.81473 0.8112 0.51963 0.0
O100 O 0.85335 0.82197 0.50668 0.0
C101 C 0.91059 0.83061 0.59616 0.0
O102 O 0.88976 0.7997 0.59477 0.0
O103 O 0.81228 0.91276 0.55873 0.0
C104 C 0.78958 0.70445 0.07326 0.0
O105 O 0.81413 0.70825 0.10705 0.0
O106 O 0.8786 0.63804 0.08182 0.0
Zn107 Zn 0.81365 0.63079 0.08372 0.0
O108 O 0.79387 0.62465 0.14377 0.0
C109 C 0.82138 0.58021 0.01692 0.0
O110 O 0.84854 0.60481 0.00276 0.0
O111 O 0.78402 0.67339 0.05728 0.0
C112 C 0.75438 0.61656 0.15149 0.0
O113 O 0.72672 0.61241 0.12008 0.0
C114 C 0.90108 0.65003 0.11248 0.0
O115 O 0.88198 0.65897 0.1482 0.0
O116 O 0.80055 0.5857 0.05109 0.0
C117 C 0.71923 0.28974 0.57175 0.0
O118 O 0.69671 0.28443 0.6066 0.0
O119 O 0.62342 0.34908 0.57909 0.0
Zn120 Zn 0.68763 0.36112 0.58347 0.0
O121 O 0.70681 0.36297 0.64468 0.0
C122 C 0.67335 0.43404 0.55288 0.0
O123 O 0.63992 0.43319 0.57883 0.0
O124 O 0.72069 0.32101 0.55547 0.0
C125 C 0.70544 0.39057 0.66841 0.0
O126 O 0.69142 0.42141 0.65327 0.0
C127 C 0.59491 0.36111 0.60469 0.0
O128 O 0.60691 0.38137 0.63668 0.0
O129 O 0.6993 0.40731 0.551 0.0
C130 C 0.78683 0.29679 0.93341 0.0
O131 O 0.81743 0.28792 0.90617 0.0
O132 O 0.87955 0.35882 0.91844 0.0
Zn133 Zn 0.81518 0.36901 0.91409 0.0
O134 O 0.79762 0.37385 0.85312 0.0
C135 C 0.82144 0.44408 0.92881 0.0
O136 O 0.84418 0.44223 0.89363 0.0
O137 O 0.78008 0.32978 0.94186 0.0
C138 C 0.75795 0.38003 0.8439 0.0
O139 O 0.72889 0.38312 0.8743 0.0
C140 C 0.90166 0.34482 0.88863 0.0
O141 O 0.88209 0.33482 0.85354 0.0
O142 O 0.80442 0.41573 0.9441 0.0
C143 C 0.71411 0.70112 0.43428 0.0
O144 O 0.68167 0.71074 0.40948 0.0
O145 O 0.62157 0.64427 0.41908 0.0
Zn146 Zn 0.6851 0.63034 0.41192 0.0
O147 O 0.70193 0.62971 0.3501 0.0
C148 C 0.66941 0.5572 0.4418 0.0
O149 O 0.63372 0.55951 0.41896 0.0
O150 O 0.72199 0.66791 0.44017 0.0
C151 C 0.70047 0.60225 0.32616 0.0
O152 O 0.68739 0.57115 0.34134 0.0
C153 C 0.59221 0.63398 0.39334 0.0
O154 O 0.60293 0.61404 0.36065 0.0
O155 O 0.69662 0.58307 0.44189 0.0
C156 C 0.19972 0.35066 0.84058 0.0
O157 O 0.16929 0.32635 0.84712 0.0
O158 O 0.10868 0.37058 0.91178 0.0
Zn159 Zn 0.17313 0.3756 0.92318 0.0
O160 O 0.19385 0.33529 0.96062 0.0
C161 C 0.16912 0.4272 0.98995 0.0
O162 O 0.14976 0.40034 0.00943 0.0
O163 O 0.20698 0.37456 0.8685 0.0
C164 C 0.23424 0.33268 0.96925 0.0
O165 O 0.26179 0.35654 0.95406 0.0
C166 C 0.08876 0.34056 0.91326 0.0
O167 O 0.11055 0.31092 0.9217 0.0
O168 O 0.18281 0.42307 0.95231 0.0
C169 C 0.29047 0.64629 0.34264 0.0
O170 O 0.30555 0.67756 0.35545 0.0
O171 O 0.38541 0.62842 0.41965 0.0
Zn172 Zn 0.32006 0.62367 0.42453 0.0
O173 O 0.29208 0.66555 0.45463 0.0
C174 C 0.32712 0.54991 0.4436 0.0
O175 O 0.35151 0.55128 0.40943 0.0
O176 O 0.29347 0.61897 0.36667 0.0
C177 C 0.3092 0.6815 0.48609 0.0
O178 O 0.34756 0.67109 0.50014 0.0
C179 C 0.40689 0.65711 0.41289 0.0
O180 O 0.38645 0.68804 0.40895 0.0
O181 O 0.30844 0.57828 0.4569 0.0
C182 C 0.19753 0.63221 0.18429 0.0
O183 O 0.15603 0.62333 0.18567 0.0
O184 O 0.11601 0.64629 0.11009 0.0
Zn185 Zn 0.17962 0.63953 0.09536 0.0
O186 O 0.19895 0.68087 0.05881 0.0
C187 C 0.17176 0.56356 0.07825 0.0
O188 O 0.15212 0.56374 0.11518 0.0
O189 O 0.21527 0.63971 0.149 0.0
C190 C 0.23102 0.67719 0.03368 0.0
O191 O 0.25163 0.64621 0.03148 0.0
C192 C 0.08673 0.64446 0.08171 0.0
O193 O 0.09821 0.64005 0.04199 0.0
O194 O 0.18759 0.59266 0.06366 0.0
C195 C 0.30195 0.34954 0.68628 0.0
O196 O 0.34231 0.33749 0.68674 0.0
O197 O 0.38388 0.3572 0.60807 0.0
Zn198 Zn 0.31929 0.36148 0.59716 0.0
O199 O 0.29855 0.32069 0.5602 0.0
C200 C 0.32203 0.41305 0.52975 0.0
O201 O 0.33797 0.3855 0.50885 0.0
O202 O 0.28548 0.36099 0.65189 0.0
C203 C 0.26342 0.32402 0.53917 0.0
O204 O 0.24059 0.35388 0.54206 0.0
C205 C 0.40918 0.34335 0.58067 0.0
O206 O 0.39297 0.32989 0.54559 0.0
O207 O 0.31025 0.4092 0.56805 0.0
C208 C 0.24727 0.26641 0.06026 0.0
C209 C 0.27979 0.24312 0.04365 0.0
C210 C 0.27996 0.27704 0.97706 0.0
C211 C 0.25033 0.30215 0.99504 0.0
N212 N 0.21179 0.32467 0.0562 0.0
N213 N 0.33327 0.23003 0.98956 0.0
C214 C 0.23559 0.29793 0.03735 0.0
C215 C 0.29787 0.24944 0.00293 0.0
N216 N 0.22628 0.2577 0.09708 0.0
N217 N 0.28968 0.27863 0.93483 0.0
H218 H 0.34772 0.20977 0.00765 0.0
H219 H 0.35082 0.23619 0.96225 0.0
H220 H 0.27713 0.29833 0.91468 0.0
H221 H 0.30704 0.25861 0.91898 0.0
H222 H 0.19902 0.27153 0.1083 0.0
H223 H 0.23356 0.23464 0.1146 0.0
H224 H 0.20416 0.3249 0.08833 0.0
H225 H 0.20307 0.34835 0.0406 0.0
C226 C 0.27766 0.71092 0.55106 0.0
C227 C 0.28562 0.71165 0.50677 0.0
C228 C 0.24105 0.76624 0.50045 0.0
C229 C 0.23711 0.76766 0.54521 0.0
N230 N 0.25998 0.74555 0.61365 0.0
N231 N 0.28326 0.74468 0.44089 0.0
C232 C 0.25782 0.74121 0.57073 0.0
C233 C 0.26974 0.74068 0.48187 0.0
N234 N 0.28698 0.68072 0.57413 0.0
N235 N 0.21595 0.78809 0.47547 0.0
H236 H 0.30555 0.72732 0.42649 0.0
H237 H 0.27603 0.76734 0.4227 0.0
H238 H 0.19325 0.80631 0.48761 0.0
H239 H 0.21435 0.78545 0.44266 0.0
H240 H 0.27756 0.67751 0.60561 0.0
H241 H 0.30008 0.65738 0.56086 0.0
H242 H 0.27866 0.72899 0.6332 0.0
H243 H 0.2468 0.76778 0.6293 0.0
C244 C 0.23876 0.74798 0.94684 0.0
C245 C 0.27638 0.76711 0.96022 0.0
C246 C 0.2854 0.72623 0.02058 0.0
C247 C 0.24643 0.70824 0.0085 0.0
N248 N 0.18298 0.70366 0.96355 0.0
N249 N 0.33277 0.77818 0.01187 0.0
C250 C 0.22212 0.71968 0.97264 0.0
C251 C 0.29898 0.75726 0.99769 0.0
N252 N 0.21973 0.75632 0.90889 0.0
N253 N 0.30961 0.71338 0.05374 0.0
H254 H 0.34439 0.80055 0.99534 0.0
H255 H 0.34752 0.77504 0.04132 0.0
H256 H 0.29953 0.692 0.07281 0.0
H257 H 0.34088 0.72244 0.06108 0.0
H258 H 0.19521 0.74102 0.89486 0.0
H259 H 0.23042 0.77752 0.88982 0.0
H260 H 0.16125 0.71323 0.94084 0.0
H261 H 0.17075 0.68177 0.98054 0.0
C262 C 0.2095 0.27442 0.52696 0.0
C263 C 0.247 0.29371 0.51328 0.0
C264 C 0.24951 0.25818 0.4478 0.0
C265 C 0.21345 0.23778 0.46247 0.0
N266 N 0.16176 0.22281 0.51731 0.0
N267 N 0.30666 0.30122 0.4641 0.0
C268 C 0.19418 0.24486 0.50247 0.0
C269 C 0.26825 0.28473 0.47471 0.0
N270 N 0.18839 0.28459 0.56324 0.0
N271 N 0.2652 0.25264 0.40775 0.0
H272 H 0.32069 0.32154 0.48227 0.0
H273 H 0.32637 0.29316 0.43898 0.0
H274 H 0.25314 0.23264 0.38771 0.0
H275 H 0.28808 0.26925 0.39316 0.0
H276 H 0.15799 0.27474 0.57235 0.0
H277 H 0.20024 0.30444 0.58359 0.0
H278 H 0.14968 0.22374 0.54808 0.0
H279 H 0.14849 0.20179 0.49957 0.0
C280 C 0.78928 0.74832 0.01318 0.0
C281 C 0.77109 0.73649 0.05209 0.0
C282 C 0.71443 0.78305 0.04765 0.0
C283 C 0.73414 0.79621 0.01004 0.0
N284 N 0.79516 0.79642 0.96161 0.0
N285 N 0.72119 0.74558 0.11023 0.0
C286 C 0.77284 0.78016 0.99394 0.0
C287 C 0.73524 0.7549 0.07062 0.0
N288 N 0.82231 0.72914 0.99461 0.0
N289 N 0.67476 0.79622 0.06027 0.0
H290 H 0.73468 0.72434 0.12743 0.0
H291 H 0.69848 0.7605 0.1274 0.0
H292 H 0.65826 0.81656 0.04403 0.0
H293 H 0.6564 0.78503 0.0847 0.0
H294 H 0.83309 0.73369 0.96381 0.0
H295 H 0.83738 0.7071 0.009 0.0
H296 H 0.82596 0.78825 0.95146 0.0
H297 H 0.78487 0.82031 0.94735 0.0
C298 C 0.73884 0.1994 0.51825 0.0
C299 C 0.78372 0.20244 0.50767 0.0
C300 C 0.78754 0.26034 0.54475 0.0
C301 C 0.7416 0.25927 0.55073 0.0
N302 N 0.67218 0.23055 0.5372 0.0
N303 N 0.84986 0.23781 0.5055 0.0
C304 C 0.71683 0.22947 0.53605 0.0
C305 C 0.80797 0.23338 0.51964 0.0
N306 N 0.71755 0.16738 0.51248 0.0
N307 N 0.81184 0.28644 0.5642 0.0
H308 H 0.86598 0.21876 0.48692 0.0
H309 H 0.86739 0.26164 0.50919 0.0
H310 H 0.79809 0.30641 0.58325 0.0
H311 H 0.84586 0.28638 0.56468 0.0
H312 H 0.68612 0.16243 0.5237 0.0
H313 H 0.73279 0.14453 0.50014 0.0
H314 H 0.65244 0.21135 0.52264 0.0
H315 H 0.65464 0.25234 0.54928 0.0
C316 C 0.75852 0.26724 0.99943 0.0
C317 C 0.76056 0.26848 0.95456 0.0
C318 C 0.71602 0.2137 0.95052 0.0
C319 C 0.71002 0.21485 0.99507 0.0
N320 N 0.71804 0.24733 0.0609 0.0
N321 N 0.73391 0.24716 0.88708 0.0
C322 C 0.72915 0.24294 0.01929 0.0
C323 C 0.73725 0.2429 0.92995 0.0
N324 N 0.78595 0.2881 0.0232 0.0
N325 N 0.70333 0.18405 0.92798 0.0
H326 H 0.74824 0.26854 0.87079 0.0
H327 H 0.71341 0.23149 0.86827 0.0
H328 H 0.68879 0.16158 0.94188 0.0
H329 H 0.71118 0.18024 0.8962 0.0
H330 H 0.78897 0.28544 0.05591 0.0
H331 H 0.80899 0.30547 0.00997 0.0
H332 H 0.72763 0.26954 0.0788 0.0
H333 H 0.69558 0.23084 0.0764 0.0
C334 C 0.78245 0.78521 0.45306 0.0
C335 C 0.79114 0.78214 0.49706 0.0
C336 C 0.74598 0.72775 0.50044 0.0
C337 C 0.74095 0.7288 0.45579 0.0
N338 N 0.7626 0.75411 0.38854 0.0
N339 N 0.78955 0.74592 0.56061 0.0
C340 C 0.76155 0.75627 0.43173 0.0
C341 C 0.77537 0.75205 0.5202 0.0
N342 N 0.79213 0.81635 0.43193 0.0
N343 N 0.72123 0.70478 0.52432 0.0
H344 H 0.81214 0.76245 0.57587 0.0
H345 H 0.78247 0.72243 0.57733 0.0
H346 H 0.69811 0.68734 0.51136 0.0
H347 H 0.72038 0.70565 0.55728 0.0
H348 H 0.78215 0.82135 0.40095 0.0
H349 H 0.80636 0.83866 0.44647 0.0
H350 H 0.78106 0.77146 0.36974 0.0
H351 H 0.74871 0.73285 0.37168 0.0
C352 C 0.32059 0.00035 0.04179 0.0
C353 C 0.32201 0.03545 0.02411 0.0
C354 C 0.3136 0.00975 0.95305 0.0
C355 C 0.31874 0.97474 0.97027 0.0
N356 N 0.33374 0.93677 0.03078 0.0
N357 N 0.32612 0.07364 0.96219 0.0
C358 C 0.32363 0.96994 0.01464 0.0
C359 C 0.31976 0.04028 0.97953 0.0
N360 N 0.31538 0.99606 0.08448 0.0
N361 N 0.30211 0.01379 0.9115 0.0
H362 H 0.33183 0.0967 0.98017 0.0
H363 H 0.32971 0.07795 0.92979 0.0
H364 H 0.29688 0.99192 0.89137 0.0
H365 H 0.29358 0.03849 0.89819 0.0
H366 H 0.30969 0.97116 0.09867 0.0
H367 H 0.31234 0.01777 0.10527 0.0
H368 H 0.34262 0.93266 0.06225 0.0
H369 H 0.33714 0.91376 0.01216 0.0
C370 C 0.1575 0.00404 0.53431 0.0
C371 C 0.16433 0.96926 0.51697 0.0
C372 C 0.1771 0.9962 0.44711 0.0
C373 C 0.16479 0.03031 0.46346 0.0
N374 N 0.13497 0.06547 0.52107 0.0
N375 N 0.1733 0.93143 0.45527 0.0
C376 C 0.15287 0.03399 0.50671 0.0
C377 C 0.17238 0.96505 0.47293 0.0
N378 N 0.15677 0.0087 0.57724 0.0
N379 N 0.19448 0.99365 0.40735 0.0
H380 H 0.16897 0.90785 0.47271 0.0
H381 H 0.17427 0.92702 0.42271 0.0
H382 H 0.19895 0.01595 0.3877 0.0
H383 H 0.20826 0.97007 0.39544 0.0
H384 H 0.15637 0.03396 0.59161 0.0
H385 H 0.16112 0.98752 0.59856 0.0
H386 H 0.12139 0.06821 0.55115 0.0
H387 H 0.12962 0.08782 0.50175 0.0
C388 C 0.65275 0.97477 0.99635 0.0
C389 C 0.66734 0.9724 0.95376 0.0
C390 C 0.68236 0.03735 0.95299 0.0
C391 C 0.66364 0.04019 0.99392 0.0
N392 N 0.62507 0.01306 0.05242 0.0
N393 N 0.69375 0.00102 0.8901 0.0
C394 C 0.64757 0.00925 0.01524 0.0
C395 C 0.68141 0.00362 0.93162 0.0
N396 N 0.64362 0.94414 0.01875 0.0
N397 N 0.70261 0.06658 0.93533 0.0
H398 H 0.69674 0.97647 0.87428 0.0
H399 H 0.69897 0.02322 0.87062 0.0
H400 H 0.70421 0.09162 0.95025 0.0
H401 H 0.72091 0.06548 0.90759 0.0
H402 H 0.63802 0.94391 0.05126 0.0
H403 H 0.64464 0.9184 0.00565 0.0
H404 H 0.60808 0.99215 0.06698 0.0
H405 H 0.62 0.03788 0.0671 0.0
C406 C 0.82503 0.99891 0.44826 0.0
C407 C 0.82729 0.02949 0.47518 0.0
C408 C 0.8357 0.99035 0.53701 0.0
C409 C 0.83085 0.95975 0.51046 0.0
N410 N 0.81103 0.93481 0.44263 0.0
N411 N 0.8239 0.05447 0.54554 0.0
C412 C 0.82248 0.964 0.46658 0.0
C413 C 0.82922 0.02523 0.51972 0.0
N414 N 0.82765 0.00296 0.40531 0.0
N415 N 0.8489 0.98636 0.57811 0.0
H416 H 0.81825 0.08038 0.53391 0.0
H417 H 0.82063 0.05248 0.57829 0.0
H418 H 0.85521 0.96139 0.59194 0.0
H419 H 0.8576 0.00796 0.59739 0.0
H420 H 0.83125 0.98138 0.38451 0.0
H421 H 0.82993 0.02797 0.39046 0.0
H422 H 0.8002 0.93681 0.41146 0.0
H423 H 0.80828 0.90889 0.45515 0.0
C424 C 0.84181 0.48167 0.99148 0.0
C425 C 0.81923 0.47837 0.95244 0.0
C426 C 0.79836 0.54212 0.95536 0.0
C427 C 0.81886 0.54488 0.99553 0.0
N428 N 0.85548 0.51683 0.05475 0.0
N429 N 0.77036 0.50294 0.90009 0.0
C430 C 0.8389 0.51441 0.01461 0.0
C431 C 0.79597 0.50794 0.93509 0.0
N432 N 0.86809 0.4542 0.00524 0.0
N433 N 0.78156 0.57226 0.93648 0.0
H434 H 0.76768 0.47818 0.88467 0.0
H435 H 0.74903 0.52232 0.88825 0.0
H436 H 0.78051 0.59733 0.95138 0.0
H437 H 0.77089 0.57302 0.9052 0.0
H438 H 0.88945 0.45645 0.03074 0.0
H439 H 0.87142 0.42983 0.98913 0.0
H440 H 0.8654 0.49458 0.07238 0.0
H441 H 0.85691 0.54085 0.07179 0.0
C442 C 0.6835 0.50009 0.5411 0.0
C443 C 0.6784 0.46508 0.52388 0.0
C444 C 0.67706 0.49062 0.45231 0.0
C445 C 0.67585 0.52574 0.46996 0.0
N446 N 0.6713 0.564 0.53177 0.0
N447 N 0.66415 0.42699 0.46339 0.0
C448 C 0.67769 0.5306 0.51453 0.0
C449 C 0.67391 0.46022 0.4795 0.0
N450 N 0.69466 0.50414 0.58272 0.0
N451 N 0.68214 0.48632 0.40962 0.0
H452 H 0.66097 0.40398 0.48207 0.0
H453 H 0.6555 0.42274 0.43189 0.0
H454 H 0.68503 0.50803 0.38883 0.0
H455 H 0.68774 0.46143 0.39538 0.0
H456 H 0.70317 0.52883 0.59605 0.0
H457 H 0.69967 0.48228 0.60293 0.0
H458 H 0.66738 0.56835 0.56412 0.0
H459 H 0.66586 0.58707 0.5137 0.0
C460 C 0.15139 0.52648 0.01465 0.0
C461 C 0.17437 0.5296 0.0536 0.0
C462 C 0.19889 0.46677 0.04733 0.0
C463 C 0.1723 0.46276 0.01087 0.0
N464 N 0.11863 0.48679 0.96262 0.0
N465 N 0.21867 0.50286 0.10845 0.0
C466 C 0.14765 0.49216 0.99498 0.0
C467 C 0.1977 0.49972 0.07039 0.0
N468 N 0.1328 0.55621 0.99649 0.0
N469 N 0.22652 0.43949 0.05889 0.0
H470 H 0.22176 0.52725 0.12457 0.0
H471 H 0.23139 0.48107 0.12514 0.0
H472 H 0.22845 0.41516 0.04246 0.0
H473 H 0.25007 0.44183 0.08249 0.0
H474 H 0.12063 0.55659 0.96571 0.0
H475 H 0.13213 0.5814 0.01088 0.0
H476 H 0.09582 0.50591 0.95296 0.0
H477 H 0.11461 0.46205 0.94746 0.0
C478 C 0.34675 0.51134 0.50564 0.0
C479 C 0.32321 0.51579 0.4673 0.0
C480 C 0.29421 0.45444 0.47337 0.0
C481 C 0.32092 0.4489 0.50948 0.0
N482 N 0.37779 0.46965 0.55648 0.0
N483 N 0.27744 0.49146 0.41215 0.0
C484 C 0.34832 0.47679 0.52499 0.0
C485 C 0.29777 0.48727 0.4504 0.0
N486 N 0.36783 0.54008 0.52345 0.0
N487 N 0.2644 0.42876 0.46193 0.0
H488 H 0.27728 0.51576 0.39554 0.0
H489 H 0.26284 0.47041 0.3956 0.0
H490 H 0.26085 0.40444 0.47812 0.0
H491 H 0.24077 0.43258 0.43868 0.0
H492 H 0.3811 0.53965 0.5538 0.0
H493 H 0.36955 0.56538 0.50915 0.0
H494 H 0.40218 0.48754 0.56572 0.0
H495 H 0.38049 0.44459 0.57119 0.0
C496 C 0.52474 0.15016 0.13836 0.0
C497 C 0.54188 0.16773 0.10206 0.0
C498 C 0.46787 0.18526 0.08064 0.0
C499 C 0.45058 0.16381 0.11383 0.0
N500 N 0.46185 0.12251 0.1718 0.0
N501 N 0.52999 0.19862 0.0358 0.0
C502 C 0.47881 0.14551 0.14224 0.0
C503 C 0.51355 0.18461 0.07252 0.0
N504 N 0.55234 0.13892 0.16975 0.0
N505 N 0.44074 0.2071 0.05771 0.0
H506 H 0.56324 0.19892 0.02873 0.0
H507 H 0.51048 0.20741 0.01083 0.0
H508 H 0.40719 0.20867 0.06325 0.0
H509 H 0.45188 0.22613 0.03602 0.0
H510 H 0.5416 0.12931 0.19893 0.0
H511 H 0.58615 0.14233 0.16828 0.0
H512 H 0.4809 0.10523 0.19008 0.0
H513 H 0.42839 0.11856 0.17586 0.0
C514 C 0.98652 0.81437 0.57209 0.0
C515 C 0.95866 0.83162 0.6018 0.0
C516 C 0.02232 0.85817 0.63703 0.0
C517 C 0.05027 0.83865 0.60947 0.0
N518 N 0.05938 0.79256 0.55635 0.0
N519 N 0.95036 0.86303 0.66825 0.0
C520 C 0.03248 0.81506 0.57862 0.0
C521 C 0.97666 0.85148 0.636 0.0
N522 N 0.96938 0.79886 0.53652 0.0
N523 N 0.03897 0.88447 0.6627 0.0
H524 H 0.91686 0.85801 0.6692 0.0
H525 H 0.9624 0.87434 0.69609 0.0
H526 H 0.07208 0.89099 0.66377 0.0
H527 H 0.01945 0.90221 0.6799 0.0
H528 H 0.98846 0.78955 0.5115 0.0
H529 H 0.93599 0.79813 0.53012 0.0
H530 H 0.04789 0.7721 0.53672 0.0
H531 H 0.09317 0.79203 0.56053 0.0
C532 C 0.47778 0.83986 0.88081 0.0
C533 C 0.45258 0.86462 0.90483 0.0
C534 C 0.51805 0.88356 0.94339 0.0
C535 C 0.54262 0.85672 0.922 0.0
N536 N 0.54485 0.80523 0.87548 0.0
N537 N 0.44681 0.90524 0.96442 0.0
C538 C 0.52224 0.83376 0.89197 0.0
C539 C 0.47206 0.8848 0.93799 0.0
N540 N 0.45925 0.82222 0.84732 0.0
N541 N 0.53887 0.90943 0.96673 0.0
H542 H 0.41315 0.90798 0.96098 0.0
H543 H 0.45873 0.91708 0.992 0.0
H544 H 0.57269 0.91059 0.97009 0.0
H545 H 0.52311 0.93198 0.97908 0.0
H546 H 0.47711 0.80718 0.82552 0.0
H547 H 0.42618 0.82434 0.83972 0.0
H548 H 0.53059 0.78534 0.85681 0.0
H549 H 0.57721 0.79959 0.88345 0.0
C550 C 0.016 0.13368 0.41974 0.0
C551 C 0.0392 0.14805 0.38467 0.0
C552 C 0.97084 0.17242 0.35584 0.0
C553 C 0.94851 0.16051 0.39264 0.0
N554 N 0.95206 0.13837 0.46434 0.0
N555 N 0.04048 0.18773 0.32409 0.0
C556 C 0.9718 0.14373 0.42605 0.0
C557 C 0.01715 0.16937 0.35402 0.0
N558 N 0.03532 0.109 0.44589 0.0
N559 N 0.94782 0.1852 0.32193 0.0
H560 H 0.07449 0.18679 0.32226 0.0
H561 H 0.0265 0.20655 0.30371 0.0
H562 H 0.91391 0.18785 0.32195 0.0
H563 H 0.96201 0.1904 0.29258 0.0
H564 H 0.01829 0.09497 0.46922 0.0
H565 H 0.06712 0.09963 0.44157 0.0
H566 H 0.96877 0.12939 0.49108 0.0
H567 H 0.92016 0.14667 0.47059 0.0
C568 C 0.01475 0.6761 0.07505 0.0
C569 C 0.03983 0.64774 0.09298 0.0
C570 C 0.97447 0.62393 0.12864 0.0
C571 C 0.94915 0.65108 0.10862 0.0
N572 N 0.94305 0.70142 0.06081 0.0
N573 N 0.04571 0.59706 0.14065 0.0
C574 C 0.96875 0.67683 0.08141 0.0
C575 C 0.02034 0.62249 0.12117 0.0
N576 N 0.0354 0.70341 0.05388 0.0
N577 N 0.954 0.59809 0.15244 0.0
H578 H 0.07844 0.59293 0.13334 0.0
H579 H 0.03526 0.58073 0.1654 0.0
H580 H 0.92059 0.59841 0.1589 0.0
H581 H 0.96912 0.57516 0.16434 0.0
H582 H 0.01992 0.72679 0.04361 0.0
H583 H 0.06918 0.70434 0.0496 0.0
H584 H 0.95405 0.71787 0.03636 0.0
H585 H 0.90967 0.70422 0.06667 0.0
C586 C 0.52709 0.37097 0.56182 0.0
C587 C 0.54793 0.35447 0.59703 0.0
C588 C 0.4783 0.3274 0.61886 0.0
C589 C 0.45699 0.34652 0.58593 0.0
N590 N 0.45917 0.39139 0.53067 0.0
N591 N 0.54386 0.31907 0.66098 0.0
C592 C 0.48088 0.36943 0.55841 0.0
C593 C 0.52362 0.33334 0.6262 0.0
N594 N 0.55134 0.38825 0.53163 0.0
N595 N 0.45547 0.30262 0.64208 0.0
H596 H 0.57751 0.32061 0.66585 0.0
H597 H 0.52721 0.30725 0.68613 0.0
H598 H 0.42225 0.29766 0.63753 0.0
H599 H 0.46987 0.28499 0.66358 0.0
H600 H 0.53857 0.39681 0.50277 0.0
H601 H 0.585 0.39184 0.53374 0.0
H602 H 0.47423 0.41182 0.51343 0.0
H603 H 0.42527 0.39157 0.52755 0.0
C604 C 0.01266 0.32473 0.93682 0.0
C605 C 0.04102 0.33929 0.90562 0.0
C606 C 0.97783 0.35856 0.8637 0.0
C607 C 0.94964 0.34136 0.89313 0.0
N608 N 0.94064 0.30126 0.95262 0.0
N609 N 0.05095 0.36254 0.83488 0.0
C610 C 0.9672 0.32236 0.9282 0.0
C611 C 0.0237 0.35396 0.86767 0.0
N612 N 0.02866 0.31489 0.97555 0.0
N613 N 0.96108 0.38086 0.83328 0.0
H614 H 0.08471 0.35884 0.83618 0.0
H615 H 0.0397 0.36984 0.80495 0.0
H616 H 0.92776 0.38588 0.82984 0.0
H617 H 0.9805 0.39712 0.81407 0.0
H618 H 0.00872 0.30783 0.00096 0.0
H619 H 0.06155 0.31705 0.98374 0.0
H620 H 0.95242 0.28393 0.97594 0.0
H621 H 0.90728 0.2983 0.94681 0.0
C622 C 0.52415 0.63174 0.43783 0.0
C623 C 0.5458 0.64343 0.40052 0.0
C624 C 0.4763 0.66499 0.37134 0.0
C625 C 0.45509 0.65509 0.40957 0.0
N626 N 0.46024 0.6367 0.48266 0.0
N627 N 0.54479 0.67861 0.33633 0.0
C628 C 0.4795 0.6408 0.4439 0.0
C629 C 0.52254 0.66234 0.36863 0.0
N630 N 0.54546 0.61042 0.46649 0.0
N631 N 0.45222 0.67507 0.33685 0.0
H632 H 0.57877 0.67784 0.33384 0.0
H633 H 0.53007 0.6958 0.31451 0.0
H634 H 0.41824 0.67696 0.33721 0.0
H635 H 0.46561 0.67857 0.30681 0.0
H636 H 0.52978 0.59755 0.49155 0.0
H637 H 0.57813 0.60298 0.46345 0.0
H638 H 0.47751 0.63001 0.50997 0.0
H639 H 0.42771 0.64341 0.48845 0.0
C640 C 0.26641 0.0827 0.23178 0.0
C641 C 0.28428 0.11545 0.21614 0.0
C642 C 0.26908 0.145 0.28408 0.0
C643 C 0.2486 0.11302 0.29867 0.0
N644 N 0.221 0.05341 0.28458 0.0
N645 N 0.29658 0.17938 0.22466 0.0
C646 C 0.24559 0.0823 0.2721 0.0
C647 C 0.28352 0.14714 0.24138 0.0
N648 N 0.26915 0.05198 0.208 0.0
N649 N 0.27693 0.17265 0.31172 0.0
H650 H 0.3095 0.18208 0.19434 0.0
H651 H 0.29162 0.20402 0.23969 0.0
H652 H 0.26775 0.17191 0.3435 0.0
H653 H 0.29609 0.19496 0.30436 0.0
H654 H 0.26194 0.02643 0.21966 0.0
H655 H 0.28086 0.05164 0.17699 0.0
H656 H 0.21349 0.03176 0.26495 0.0
H657 H 0.2048 0.05234 0.31361 0.0
C658 C 0.24815 0.91526 0.76494 0.0
C659 C 0.28085 0.89228 0.78194 0.0
C660 C 0.28419 0.85939 0.71466 0.0
C661 C 0.25516 0.88484 0.69636 0.0
N662 N 0.21563 0.94094 0.70187 0.0
N663 N 0.33616 0.8468 0.77042 0.0
C664 C 0.23877 0.91389 0.72089 0.0
C665 C 0.30058 0.86548 0.75613 0.0
N666 N 0.22466 0.93731 0.7911 0.0
N667 N 0.29476 0.82861 0.69318 0.0
H668 H 0.34986 0.85079 0.80025 0.0
H669 H 0.35468 0.82984 0.75121 0.0
H670 H 0.28285 0.82272 0.66305 0.0
H671 H 0.31188 0.80731 0.70686 0.0
H672 H 0.19737 0.95179 0.78112 0.0
H673 H 0.22962 0.93846 0.82374 0.0
H674 H 0.20694 0.96468 0.71733 0.0
H675 H 0.20869 0.94131 0.66954 0.0
C676 C 0.74386 0.87934 0.76934 0.0
C677 C 0.72853 0.84668 0.78738 0.0
C678 C 0.76015 0.81277 0.72837 0.0
C679 C 0.77945 0.84495 0.71288 0.0
N680 N 0.79758 0.90758 0.724 0.0
N681 N 0.73084 0.7816 0.78929 0.0
C682 C 0.77359 0.87792 0.7349 0.0
C683 C 0.73914 0.81314 0.76841 0.0
N684 N 0.72869 0.91174 0.78382 0.0
N685 N 0.75999 0.78225 0.70415 0.0
H686 H 0.71683 0.78064 0.81936 0.0
H687 H 0.74205 0.75666 0.7787 0.0
H688 H 0.77363 0.78101 0.67394 0.0
H689 H 0.74237 0.75923 0.71224 0.0
H690 H 0.73543 0.93613 0.76887 0.0
H691 H 0.70579 0.91404 0.80813 0.0
H692 H 0.79774 0.93123 0.74177 0.0
H693 H 0.82077 0.90737 0.6998 0.0
C694 C 0.78662 0.16711 0.25023 0.0
C695 C 0.77801 0.13703 0.27667 0.0
C696 C 0.71793 0.1188 0.23017 0.0
C697 C 0.72975 0.14646 0.20134 0.0
N698 N 0.78055 0.1929 0.1801 0.0
N699 N 0.74076 0.08056 0.28821 0.0
C700 C 0.76549 0.16961 0.21031 0.0
C701 C 0.74506 0.11183 0.2657 0.0
N702 N 0.81368 0.19403 0.26387 0.0
N703 N 0.67988 0.10009 0.22453 0.0
H704 H 0.76049 0.07414 0.31405 0.0
H705 H 0.72046 0.05949 0.27885 0.0
H706 H 0.65852 0.10498 0.19945 0.0
H707 H 0.66737 0.08224 0.24692 0.0
H708 H 0.81735 0.21839 0.24789 0.0
H709 H 0.82927 0.19356 0.29323 0.0
H710 H 0.80935 0.20759 0.18338 0.0
H711 H 0.7667 0.19509 0.15005 0.0
C712 C 0.69189 0.63034 0.25427 0.0
C713 C 0.71368 0.60545 0.28118 0.0
C714 C 0.75845 0.58499 0.22146 0.0
C715 C 0.73964 0.61225 0.19577 0.0
N716 N 0.69357 0.66471 0.18912 0.0
N717 N 0.77304 0.56367 0.29253 0.0
C718 C 0.70766 0.63595 0.2125 0.0
C719 C 0.74836 0.58391 0.26535 0.0
N720 N 0.65512 0.64768 0.26803 0.0
N721 N 0.78483 0.5594 0.20365 0.0
H722 H 0.76735 0.56265 0.32505 0.0
H723 H 0.80166 0.55056 0.28351 0.0
H724 H 0.79269 0.55909 0.17151 0.0
H725 H 0.79565 0.53663 0.21984 0.0
H726 H 0.63501 0.66286 0.24829 0.0
H727 H 0.64241 0.64443 0.29834 0.0
H728 H 0.67434 0.68536 0.20145 0.0
H729 H 0.70407 0.66968 0.15828 0.0
C730 C 0.69842 0.36229 0.74039 0.0
C731 C 0.71898 0.38775 0.71332 0.0
C732 C 0.76194 0.41046 0.77312 0.0
C733 C 0.74441 0.38281 0.79908 0.0
N734 N 0.70217 0.32821 0.80569 0.0
N735 N 0.77637 0.43129 0.70184 0.0
C736 C 0.71432 0.35755 0.78226 0.0
C737 C 0.7524 0.41059 0.72911 0.0
N738 N 0.66255 0.34364 0.7268 0.0
N739 N 0.78643 0.43735 0.79074 0.0
H740 H 0.77115 0.43157 0.66922 0.0
H741 H 0.80415 0.44551 0.71097 0.0
H742 H 0.79377 0.43838 0.82294 0.0
H743 H 0.79603 0.46032 0.77425 0.0
H744 H 0.64332 0.32786 0.74671 0.0
H745 H 0.64947 0.34643 0.69654 0.0
H746 H 0.68431 0.30677 0.79334 0.0
H747 H 0.71326 0.32362 0.83643 0.0
C748 C 0.25659 0.38239 0.74016 0.0
C749 C 0.27567 0.34977 0.72569 0.0
C750 C 0.24844 0.31856 0.7888 0.0
C751 C 0.22551 0.35021 0.80086 0.0
N752 N 0.20024 0.40998 0.78303 0.0
N753 N 0.28209 0.2851 0.73169 0.0
C754 C 0.22747 0.38154 0.77516 0.0
C755 C 0.26951 0.31733 0.74875 0.0
N756 N 0.26759 0.41443 0.72165 0.0
N757 N 0.2517 0.29017 0.8162 0.0
H758 H 0.29659 0.28285 0.70193 0.0
H759 H 0.27419 0.26032 0.74516 0.0
H760 H 0.23746 0.29011 0.84618 0.0
H761 H 0.27202 0.26811 0.81084 0.0
H762 H 0.25819 0.43934 0.73384 0.0
H763 H 0.28971 0.41643 0.69665 0.0
H764 H 0.19715 0.43191 0.76264 0.0
H765 H 0.17744 0.41006 0.80756 0.0
C766 C 0.22887 0.66353 0.29455 0.0
C767 C 0.26755 0.64331 0.30157 0.0
C768 C 0.25905 0.61411 0.2324 0.0
C769 C 0.2224 0.63644 0.22411 0.0
N770 N 0.1778 0.68756 0.24328 0.0
N771 N 0.32405 0.60414 0.27473 0.0
C772 C 0.20881 0.66264 0.25406 0.0
C773 C 0.28397 0.61989 0.2698 0.0
N774 N 0.21013 0.68232 0.32708 0.0
N775 N 0.26905 0.58653 0.20538 0.0
H776 H 0.34341 0.60801 0.30153 0.0
H777 H 0.33982 0.58988 0.25081 0.0
H778 H 0.25153 0.58145 0.17768 0.0
H779 H 0.29235 0.56689 0.21208 0.0
H780 H 0.17937 0.69422 0.32502 0.0
H781 H 0.22332 0.68328 0.3575 0.0
H782 H 0.17005 0.70967 0.26214 0.0
H783 H 0.16273 0.68819 0.21367 0.0
loop_
_geom_bond_atom_site_label_1
_geom_bond_atom_site_label_2
_geom_bond_distance
_geom_bond_site_symmetry_2
_ccdc_geom_bond_type
C0 O1 1.160 . S
C0 O7 1.185 . S
O1 C0 1.160 . S
O2 Zn3 1.899 . S
O2 C10 1.284 . S
Zn3 O2 1.899 . S
Zn3 O4 2.032 . S
Zn3 O7 2.086 . S
Zn3 O12 1.977 . S
O4 Zn3 2.032 . S
O4 C8 1.278 . S
C5 O6 1.203 . S
C5 O12 1.267 . S
O6 C5 1.203 . S
O7 C0 1.185 . S
O7 Zn3 2.086 . S
C8 O4 1.278 . S
C8 O9 1.211 . S
O9 C8 1.211 . S
C10 O2 1.284 . S
C10 O11 1.273 . S
O11 C10 1.273 . S
O12 Zn3 1.977 . S
O12 C5 1.267 . S
C13 O14 1.160 . S
C13 O20 1.185 . S
O14 C13 1.160 . S
O15 Zn16 1.899 . S
O15 C23 1.284 . S
Zn16 O15 1.899 . S
Zn16 O17 2.032 . S
Zn16 O20 2.086 . S
Zn16 O25 1.977 . S
O17 Zn16 2.032 . S
O17 C21 1.278 . S
C18 O19 1.203 . S
C18 O25 1.267 . S
O19 C18 1.203 . S
O20 C13 1.185 . S
O20 Zn16 2.086 . S
C21 O17 1.278 . S
C21 O22 1.211 . S
O22 C21 1.211 . S
C23 O15 1.284 . S
C23 O24 1.273 . S
O24 C23 1.273 . S
O25 Zn16 1.977 . S
O25 C18 1.267 . S
C26 O27 1.160 . S
C26 O33 1.185 . S
O27 C26 1.160 . S
O28 Zn29 1.899 . S
O28 C36 1.284 . S
Zn29 O28 1.899 . S
Zn29 O30 2.032 . S
Zn29 O33 2.086 . S
Zn29 O38 1.977 . S
O30 Zn29 2.032 . S
O30 C34 1.278 . S
C31 O32 1.203 . S
C31 O38 1.267 . S
O32 C31 1.203 . S
O33 C26 1.185 . S
O33 Zn29 2.086 . S
C34 O30 1.278 . S
C34 O35 1.211 . S
O35 C34 1.211 . S
C36 O28 1.284 . S
C36 O37 1.273 . S
O37 C36 1.273 . S
O38 Zn29 1.977 . S
O38 C31 1.267 . S
C39 O40 1.160 . S
C39 O46 1.185 . S
O40 C39 1.160 . S
O41 Zn42 1.899 . S
O41 C49 1.284 . S
Zn42 O41 1.899 . S
Zn42 O43 2.032 . S
Zn42 O46 2.086 . S
Zn42 O51 1.977 . S
O43 Zn42 2.032 . S
O43 C47 1.278 . S
C44 O45 1.203 . S
C44 O51 1.267 . S
O45 C44 1.203 . S
O46 C39 1.185 . S
O46 Zn42 2.086 . S
C47 O43 1.278 . S
C47 O48 1.211 . S
O48 C47 1.211 . S
C49 O41 1.284 . S
C49 O50 1.273 . S
O50 C49 1.273 . S
O51 Zn42 1.977 . S
O51 C44 1.267 . S
C52 O53 1.160 . S
C52 O59 1.185 . S
O53 C52 1.160 . S
O54 Zn55 1.899 . S
O54 C62 1.284 . S
Zn55 O54 1.899 . S
Zn55 O56 2.032 . S
Zn55 O59 2.086 . S
Zn55 O64 1.977 . S
O56 Zn55 2.032 . S
O56 C60 1.278 . S
C57 O58 1.203 . S
C57 O64 1.267 . S
O58 C57 1.203 . S
O59 C52 1.185 . S
O59 Zn55 2.086 . S
C60 O56 1.278 . S
C60 O61 1.211 . S
O61 C60 1.211 . S
C62 O54 1.284 . S
C62 O63 1.273 . S
O63 C62 1.273 . S
O64 Zn55 1.977 . S
O64 C57 1.267 . S
C65 O66 1.160 . S
C65 O72 1.185 . S
O66 C65 1.160 . S
O67 Zn68 1.899 . S
O67 C75 1.284 . S
Zn68 O67 1.899 . S
Zn68 O69 2.032 . S
Zn68 O72 2.086 . S
Zn68 O77 1.977 . S
O69 Zn68 2.032 . S
O69 C73 1.278 . S
C70 O71 1.203 . S
C70 O77 1.267 . S
O71 C70 1.203 . S
O72 C65 1.185 . S
O72 Zn68 2.086 . S
C73 O69 1.278 . S
C73 O74 1.211 . S
O74 C73 1.211 . S
C75 O67 1.284 . S
C75 O76 1.273 . S
O76 C75 1.273 . S
O77 Zn68 1.977 . S
O77 C70 1.267 . S
C78 O79 1.160 . S
C78 O85 1.185 . S
O79 C78 1.160 . S
O80 Zn81 1.899 . S
O80 C88 1.284 . S
Zn81 O80 1.899 . S
Zn81 O82 2.032 . S
Zn81 O85 2.086 . S
Zn81 O90 1.977 . S
O82 Zn81 2.032 . S
O82 C86 1.278 . S
C83 O84 1.203 . S
C83 O90 1.267 . S
O84 C83 1.203 . S
O85 C78 1.185 . S
O85 Zn81 2.086 . S
C86 O82 1.278 . S
C86 O87 1.211 . S
O87 C86 1.211 . S
C88 O80 1.284 . S
C88 O89 1.273 . S
O89 C88 1.273 . S
O90 Zn81 1.977 . S
O90 C83 1.267 . S
C91 O92 1.160 . S
C91 O98 1.185 . S
O92 C91 1.160 . S
O93 Zn94 1.899 . S
O93 C101 1.284 . S
Zn94 O93 1.899 . S
Zn94 O95 2.032 . S
Zn94 O98 2.086 . S
Zn94 O103 1.977 . S
O95 Zn94 2.032 . S
O95 C99 1.278 . S
C96 O97 1.203 . S
C96 O103 1.267 . S
O97 C96 1.203 . S
O98 C91 1.185 . S
O98 Zn94 2.086 . S
C99 O95 1.278 . S
C99 O100 1.211 . S
O100 C99 1.211 . S
C101 O93 1.284 . S
C101 O102 1.273 . S
O102 C101 1.273 . S
O103 Zn94 1.977 . S
O103 C96 1.267 . S
C104 O105 1.160 . S
C104 O111 1.185 . S
O105 C104 1.160 . S
O106 Zn107 1.899 . S
O106 C114 1.284 . S
Zn107 O106 1.899 . S
Zn107 O108 2.032 . S
Zn107 O111 2.086 . S
Zn107 O116 1.977 . S
O108 Zn107 2.032 . S
O108 C112 1.278 . S
C109 O110 1.203 . S
C109 O116 1.267 . S
O110 C109 1.203 . S
O111 C104 1.185 . S
O111 Zn107 2.086 . S
C112 O108 1.278 . S
C112 O113 1.211 . S
O113 C112 1.211 . S
C114 O106 1.284 . S
C114 O115 1.273 . S
O115 C114 1.273 . S
O116 Zn107 1.977 . S
O116 C109 1.267 . S
C117 O118 1.160 . S
C117 O124 1.185 . S
O118 C117 1.160 . S
O119 Zn120 1.899 . S
O119 C127 1.284 . S
Zn120 O119 1.899 . S
Zn120 O121 2.032 . S
Zn120 O124 2.086 . S
Zn120 O129 1.977 . S
O121 Zn120 2.032 . S
O121 C125 1.278 . S
C122 O123 1.203 . S
C122 O129 1.267 . S
O123 C122 1.203 . S
O124 C117 1.185 . S
O124 Zn120 2.086 . S
C125 O121 1.278 . S
C125 O126 1.211 . S
O126 C125 1.211 . S
C127 O119 1.284 . S
C127 O128 1.273 . S
O128 C127 1.273 . S
O129 Zn120 1.977 . S
O129 C122 1.267 . S
C130 O131 1.160 . S
C130 O137 1.185 . S
O131 C130 1.160 . S
O132 Zn133 1.899 . S
O132 C140 1.284 . S
Zn133 O132 1.899 . S
Zn133 O134 2.032 . S
Zn133 O137 2.086 . S
Zn133 O142 1.977 . S
O134 Zn133 2.032 . S
O134 C138 1.278 . S
C135 O136 1.203 . S
C135 O142 1.267 . S
O136 C135 1.203 . S
O137 C130 1.185 . S
O137 Zn133 2.086 . S
C138 O134 1.278 . S
C138 O139 1.211 . S
O139 C138 1.211 . S
C140 O132 1.284 . S
C140 O141 1.273 . S
O141 C140 1.273 . S
O142 Zn133 1.977 . S
O142 C135 1.267 . S
C143 O144 1.160 . S
C143 O150 1.185 . S
O144 C143 1.160 . S
O145 Zn146 1.899 . S
O145 C153 1.284 . S
Zn146 O145 1.899 . S
Zn146 O147 2.032 . S
Zn146 O150 2.086 . S
Zn146 O155 1.977 . S
O147 Zn146 2.032 . S
O147 C151 1.278 . S
C148 O149 1.203 . S
C148 O155 1.267 . S
O149 C148 1.203 . S
O150 C143 1.185 . S
O150 Zn146 2.086 . S
C151 O147 1.278 . S
C151 O152 1.211 . S
O152 C151 1.211 . S
C153 O145 1.284 . S
C153 O154 1.273 . S
O154 C153 1.273 . S
O155 Zn146 1.977 . S
O155 C148 1.267 . S
C156 O157 1.160 . S
C156 O163 1.185 . S
O157 C156 1.160 . S
O158 Zn159 1.899 . S
O158 C166 1.284 . S
Zn159 O158 1.899 . S
Zn159 O160 2.032 . S
Zn159 O163 2.086 . S
Zn159 O168 1.977 . S
O160 Zn159 2.032 . S
O160 C164 1.278 . S
C161 O162 1.203 . S
C161 O168 1.267 . S
O162 C161 1.203 . S
O163 C156 1.185 . S
O163 Zn159 2.086 . S
C164 O160 1.278 . S
C164 O165 1.211 . S
O165 C164 1.211 . S
C166 O158 1.284 . S
C166 O167 1.273 . S
O167 C166 1.273 . S
O168 Zn159 1.977 . S
O168 C161 1.267 . S
C169 O170 1.160 . S
C169 O176 1.185 . S
O170 C169 1.160 . S
O171 Zn172 1.899 . S
O171 C179 1.284 . S
Zn172 O171 1.899 . S
Zn172 O173 2.032 . S
Zn172 O176 2.086 . S
Zn172 O181 1.977 . S
O173 Zn172 2.032 . S
O173 C177 1.278 . S
C174 O175 1.203 . S
C174 O181 1.267 . S
O175 C174 1.203 . S
O176 C169 1.185 . S
O176 Zn172 2.086 . S
C177 O173 1.278 . S
C177 O178 1.211 . S
O178 C177 1.211 . S
C179 O171 1.284 . S
C179 O180 1.273 . S
O180 C179 1.273 . S
O181 Zn172 1.977 . S
O181 C174 1.267 . S
C182 O183 1.160 . S
C182 O189 1.185 . S
O183 C182 1.160 . S
O184 Zn185 1.899 . S
O184 C192 1.284 . S
Zn185 O184 1.899 . S
Zn185 O186 2.032 . S
Zn185 O189 2.086 . S
Zn185 O194 1.977 . S
O186 Zn185 2.032 . S
O186 C190 1.278 . S
C187 O188 1.203 . S
C187 O194 1.267 . S
O188 C187 1.203 . S
O189 C182 1.185 . S
O189 Zn185 2.086 . S
C190 O186 1.278 . S
C190 O191 1.211 . S
O191 C190 1.211 . S
C192 O184 1.284 . S
C192 O193 1.273 . S
O193 C192 1.273 . S
O194 Zn185 1.977 . S
O194 C187 1.267 . S
C195 O196 1.160 . S
C195 O202 1.185 . S
O196 C195 1.160 . S
O197 Zn198 1.899 . S
O197 C205 1.284 . S
Zn198 O197 1.899 . S
Zn198 O199 2.032 . S
Zn198 O202 2.086 . S
Zn198 O207 1.977 . S
O199 Zn198 2.032 . S
O199 C203 1.278 . S
C200 O201 1.203 . S
C200 O207 1.267 . S
O201 C200 1.203 . S
O202 C195 1.185 . S
O202 Zn198 2.086 . S
C203 O199 1.278 . S
C203 O204 1.211 . S
O204 C203 1.211 . S
C205 O197 1.284 . S
C205 O206 1.273 . S
O206 C205 1.273 . S
O207 Zn198 1.977 . S
O207 C200 1.267 . S
C208 C209 1.363 . S
C208 C214 1.379 . S
C208 N216 1.356 . S
C209 C208 1.363 . S
C209 C215 1.363 1_554 S
C210 C211 1.363 . S
C210 C215 1.379 . S
C210 N217 1.356 . S
C211 C210 1.363 . S
C211 C214 1.363 1_556 S
N212 C214 1.356 . S
N212 H224 0.984 . S
N212 H225 0.985 1_554 S
N213 C215 1.356 . S
N213 H218 0.984 1_556 S
N213 H219 0.985 . S
C214 C208 1.379 . S
C214 C211 1.363 1_554 S
C214 N212 1.356 . S
C215 C209 1.363 1_556 S
C215 C210 1.379 . S
C215 N213 1.356 . S
N216 C208 1.356 . S
N216 H222 0.984 . S
N216 H223 0.984 . S
N217 C210 1.356 . S
N217 H220 0.984 . S
N217 H221 0.985 . S
H218 N213 0.984 1_554 S
H219 N213 0.985 . S
H220 N217 0.984 . S
H221 N217 0.985 . S
H222 N216 0.984 . S
H223 N216 0.984 . S
H224 N212 0.984 . S
H225 N212 0.985 1_556 S
C226 C227 1.363 . S
C226 C232 1.379 . S
C226 N234 1.356 . S
C227 C226 1.363 . S
C227 C233 1.363 . S
C228 C229 1.363 . S
C228 C233 1.379 . S
C228 N235 1.356 . S
C229 C228 1.363 . S
C229 C232 1.363 . S
N230 C232 1.356 . S
N230 H242 0.984 . S
N230 H243 0.985 . S
N231 C233 1.356 . S
N231 H236 0.984 . S
N231 H237 0.985 . S
C232 C226 1.379 . S
C232 C229 1.363 . S
C232 N230 1.356 . S
C233 C227 1.363 . S
C233 C228 1.379 . S
C233 N231 1.356 . S
N234 C226 1.356 . S
N234 H240 0.984 . S
N234 H241 0.984 . S
N235 C228 1.356 . S
N235 H238 0.984 . S
N235 H239 0.985 . S
H236 N231 0.984 . S
H237 N231 0.985 . S
H238 N235 0.984 . S
H239 N235 0.985 . S
H240 N234 0.984 . S
H241 N234 0.984 . S
H242 N230 0.984 . S
H243 N230 0.985 . S
C244 C245 1.363 . S
C244 C250 1.379 . S
C244 N252 1.356 . S
C245 C244 1.363 . S
C245 C251 1.363 1_556 S
C246 C247 1.363 . S
C246 C251 1.379 . S
C246 N253 1.356 . S
C247 C246 1.363 . S
C247 C250 1.363 1_554 S
N248 C250 1.356 . S
N248 H260 0.984 . S
N248 H261 0.985 1_556 S
N249 C251 1.356 . S
N249 H254 0.984 1_554 S
N249 H255 0.985 . S
C250 C244 1.379 . S
C250 C247 1.363 1_556 S
C250 N248 1.356 . S
C251 C245 1.363 1_554 S
C251 C246 1.379 . S
C251 N249 1.356 . S
N252 C244 1.356 . S
N252 H258 0.984 . S
N252 H259 0.984 . S
N253 C246 1.356 . S
N253 H256 0.984 . S
N253 H257 0.985 . S
H254 N249 0.984 1_556 S
H255 N249 0.985 . S
H256 N253 0.984 . S
H257 N253 0.985 . S
H258 N252 0.984 . S
H259 N252 0.984 . S
H260 N248 0.984 . S
H261 N248 0.985 1_554 S
C262 C263 1.363 . S
C262 C268 1.379 . S
C262 N270 1.356 . S
C263 C262 1.363 . S
C263 C269 1.363 . S
C264 C265 1.363 . S
C264 C269 1.379 . S
C264 N271 1.356 . S
C265 C264 1.363 . S
C265 C268 1.363 . S
N266 C268 1.356 . S
N266 H278 0.984 . S
N266 H279 0.985 . S
N267 C269 1.356 . S
N267 H272 0.984 . S
N267 H273 0.985 . S
C268 C262 1.379 . S
C268 C265 1.363 . S
C268 N266 1.356 . S
C269 C263 1.363 . S
C269 C264 1.379 . S
C269 N267 1.356 . S
N270 C262 1.356 . S
N270 H276 0.984 . S
N270 H277 0.984 . S
N271 C264 1.356 . S
N271 H274 0.984 . S
N271 H275 0.985 . S
H272 N267 0.984 . S
H273 N267 0.985 . S
H274 N271 0.984 . S
H275 N271 0.985 . S
H276 N270 0.984 . S
H277 N270 0.984 . S
H278 N266 0.984 . S
H279 N266 0.985 . S
C280 C281 1.363 1_556 S
C280 C286 1.379 . S
C280 N288 1.356 . S
C281 C280 1.363 1_554 S
C281 C287 1.363 . S
C282 C283 1.363 1_554 S
C282 C287 1.379 . S
C282 N289 1.356 . S
C283 C282 1.363 1_556 S
C283 C286 1.363 . S
N284 C286 1.356 . S
N284 H296 0.984 . S
N284 H297 0.985 . S
N285 C287 1.356 . S
N285 H290 0.984 . S
N285 H291 0.985 . S
C286 C280 1.379 . S
C286 C283 1.363 . S
C286 N284 1.356 . S
C287 C281 1.363 . S
C287 C282 1.379 . S
C287 N285 1.356 . S
N288 C280 1.356 . S
N288 H294 0.984 . S
N288 H295 0.984 1_556 S
N289 C282 1.356 . S
N289 H292 0.985 . S
N289 H293 0.985 . S
H290 N285 0.984 . S
H291 N285 0.985 . S
H292 N289 0.985 . S
H293 N289 0.985 . S
H294 N288 0.984 . S
H295 N288 0.984 1_554 S
H296 N284 0.984 . S
H297 N284 0.985 . S
C298 C299 1.363 . S
C298 C304 1.379 . S
C298 N306 1.356 . S
C299 C298 1.363 . S
C299 C305 1.363 . S
C300 C301 1.363 . S
C300 C305 1.379 . S
C300 N307 1.356 . S
C301 C300 1.363 . S
C301 C304 1.363 . S
N302 C304 1.356 . S
N302 H314 0.984 . S
N302 H315 0.985 . S
N303 C305 1.356 . S
N303 H308 0.984 . S
N303 H309 0.985 . S
C304 C298 1.379 . S
C304 C301 1.363 . S
C304 N302 1.356 . S
C305 C299 1.363 . S
C305 C300 1.379 . S
C305 N303 1.356 . S
N306 C298 1.356 . S
N306 H312 0.984 . S
N306 H313 0.984 . S
N307 C300 1.356 . S
N307 H310 0.984 . S
N307 H311 0.985 . S
H308 N303 0.984 . S
H309 N303 0.985 . S
H310 N307 0.984 . S
H311 N307 0.985 . S
H312 N306 0.984 . S
H313 N306 0.984 . S
H314 N302 0.984 . S
H315 N302 0.985 . S
C316 C317 1.363 1_554 S
C316 C322 1.379 . S
C316 N324 1.356 . S
C317 C316 1.363 1_556 S
C317 C323 1.363 . S
C318 C319 1.363 1_556 S
C318 C323 1.379 . S
C318 N325 1.356 . S
C319 C318 1.363 1_554 S
C319 C322 1.363 . S
N320 C322 1.356 . S
N320 H332 0.984 . S
N320 H333 0.985 . S
N321 C323 1.356 . S
N321 H326 0.984 . S
N321 H327 0.985 . S
C322 C316 1.379 . S
C322 C319 1.363 . S
C322 N320 1.356 . S
C323 C317 1.363 . S
C323 C318 1.379 . S
C323 N321 1.356 . S
N324 C316 1.356 . S
N324 H330 0.984 . S
N324 H331 0.984 . S
N325 C318 1.356 . S
N325 H328 0.984 . S
N325 H329 0.985 . S
H326 N321 0.984 . S
H327 N321 0.985 . S
H328 N325 0.984 . S
H329 N325 0.985 . S
H330 N324 0.984 . S
H331 N324 0.984 . S
H332 N320 0.984 . S
H333 N320 0.985 . S
C334 C335 1.363 . S
C334 C340 1.379 . S
C334 N342 1.356 . S
C335 C334 1.363 . S
C335 C341 1.363 . S
C336 C337 1.363 . S
C336 C341 1.379 . S
C336 N343 1.356 . S
C337 C336 1.363 . S
C337 C340 1.363 . S
N338 C340 1.356 . S
N338 H350 0.984 . S
N338 H351 0.985 . S
N339 C341 1.356 . S
N339 H344 0.984 . S
N339 H345 0.985 . S
C340 C334 1.379 . S
C340 C337 1.363 . S
C340 N338 1.356 . S
C341 C335 1.363 . S
C341 C336 1.379 . S
C341 N339 1.356 . S
N342 C334 1.356 . S
N342 H348 0.984 . S
N342 H349 0.984 . S
N343 C336 1.356 . S
N343 H346 0.984 . S
N343 H347 0.985 . S
H344 N339 0.984 . S
H345 N339 0.985 . S
H346 N343 0.984 . S
H347 N343 0.985 . S
H348 N342 0.984 . S
H349 N342 0.984 . S
H350 N338 0.984 . S
H351 N338 0.985 . S
C352 C353 1.363 1_565 S
C352 C358 1.379 . S
C352 N360 1.356 1_565 S
C353 C352 1.363 1_545 S
C353 C359 1.363 1_554 S
C354 C355 1.363 1_545 S
C354 C359 1.379 . S
C354 N361 1.356 1_545 S
C355 C354 1.363 1_565 S
C355 C358 1.363 1_556 S
N356 C358 1.356 . S
N356 H368 0.984 . S
N356 H369 0.985 1_554 S
N357 C359 1.356 . S
N357 H362 0.984 1_556 S
N357 H363 0.985 . S
C358 C352 1.379 . S
C358 C355 1.363 1_554 S
C358 N356 1.356 . S
C359 C353 1.363 1_556 S
C359 C354 1.379 . S
C359 N357 1.356 . S
N360 C352 1.356 1_545 S
N360 H366 0.984 1_545 S
N360 H367 0.984 . S
N361 C354 1.356 1_565 S
N361 H364 0.984 . S
N361 H365 0.985 1_565 S
H362 N357 0.984 1_554 S
H363 N357 0.985 . S
H364 N361 0.984 . S
H365 N361 0.985 1_545 S
H366 N360 0.984 1_565 S
H367 N360 0.984 . S
H368 N356 0.984 . S
H369 N356 0.985 1_556 S
C370 C371 1.363 1_545 S
C370 C376 1.379 . S
C370 N378 1.356 1_545 S
C371 C370 1.363 1_565 S
C371 C377 1.363 . S
C372 C373 1.363 1_565 S
C372 C377 1.379 . S
C372 N379 1.356 1_565 S
C373 C372 1.363 1_545 S
C373 C376 1.363 . S
N374 C376 1.356 . S
N374 H386 0.984 . S
N374 H387 0.985 . S
N375 C377 1.356 . S
N375 H380 0.984 . S
N375 H381 0.985 . S
C376 C370 1.379 . S
C376 C373 1.363 . S
C376 N374 1.356 . S
C377 C371 1.363 . S
C377 C372 1.379 . S
C377 N375 1.356 . S
N378 C370 1.356 1_565 S
N378 H384 0.984 1_565 S
N378 H385 0.984 . S
N379 C372 1.356 1_545 S
N379 H382 0.984 . S
N379 H383 0.985 1_545 S
H380 N375 0.984 . S
H381 N375 0.985 . S
H382 N379 0.984 . S
H383 N379 0.985 1_565 S
H384 N378 0.984 1_545 S
H385 N378 0.984 . S
H386 N374 0.984 . S
H387 N374 0.985 . S
C388 C389 1.363 1_554 S
C388 C394 1.379 1_565 S
C388 N396 1.356 . S
C389 C388 1.363 1_556 S
C389 C395 1.363 . S
C390 C391 1.363 1_556 S
C390 C395 1.379 1_545 S
C390 N397 1.356 . S
C391 C390 1.363 1_554 S
C391 C394 1.363 . S
N392 C394 1.356 . S
N392 H404 0.984 . S
N392 H405 0.985 . S
N393 C395 1.356 . S
N393 H398 0.984 . S
N393 H399 0.985 . S
C394 C388 1.379 1_545 S
C394 C391 1.363 . S
C394 N392 1.356 . S
C395 C389 1.363 . S
C395 C390 1.379 1_565 S
C395 N393 1.356 . S
N396 C388 1.356 . S
N396 H402 0.984 . S
N396 H403 0.984 . S
N397 C390 1.356 . S
N397 H400 0.984 . S
N397 H401 0.985 . S
H398 N393 0.984 . S
H399 N393 0.985 . S
H400 N397 0.984 . S
H401 N397 0.985 . S
H402 N396 0.984 . S
H403 N396 0.984 . S
H404 N392 0.984 . S
H405 N392 0.985 . S
C406 C407 1.363 . S
C406 C412 1.379 1_545 S
C406 N414 1.356 . S
C407 C406 1.363 . S
C407 C413 1.363 . S
C408 C409 1.363 . S
C408 C413 1.379 1_565 S
C408 N415 1.356 . S
C409 C408 1.363 . S
C409 C412 1.363 . S
N410 C412 1.356 . S
N410 H422 0.984 . S
N410 H423 0.985 . S
N411 C413 1.356 . S
N411 H416 0.984 . S
N411 H417 0.985 . S
C412 C406 1.379 1_565 S
C412 C409 1.363 . S
C412 N410 1.356 . S
C413 C407 1.363 . S
C413 C408 1.379 1_545 S
C413 N411 1.356 . S
N414 C406 1.356 . S
N414 H420 0.984 . S
N414 H421 0.984 . S
N415 C408 1.356 . S
N415 H418 0.984 . S
N415 H419 0.985 . S
H416 N411 0.984 . S
H417 N411 0.985 . S
H418 N415 0.984 . S
H419 N415 0.985 . S
H420 N414 0.984 . S
H421 N414 0.984 . S
H422 N410 0.984 . S
H423 N410 0.985 . S
C424 C425 1.363 1_554 S
C424 C430 1.379 . S
C424 N432 1.356 . S
C425 C424 1.363 1_556 S
C425 C431 1.363 . S
C426 C427 1.363 1_556 S
C426 C431 1.379 . S
C426 N433 1.356 . S
C427 C426 1.363 1_554 S
C427 C430 1.363 . S
N428 C430 1.356 . S
N428 H440 0.984 . S
N428 H441 0.985 . S
N429 C431 1.356 . S
N429 H434 0.984 . S
N429 H435 0.985 . S
C430 C424 1.379 . S
C430 C427 1.363 . S
C430 N428 1.356 . S
C431 C425 1.363 . S
C431 C426 1.379 . S
C431 N429 1.356 . S
N432 C424 1.356 . S
N432 H438 0.984 . S
N432 H439 0.984 1_554 S
N433 C426 1.356 . S
N433 H436 0.984 1_556 S
N433 H437 0.985 . S
H434 N429 0.984 . S
H435 N429 0.985 . S
H436 N433 0.984 1_554 S
H437 N433 0.985 . S
H438 N432 0.984 . S
H439 N432 0.984 1_556 S
H440 N428 0.984 . S
H441 N428 0.985 . S
C442 C443 1.363 . S
C442 C448 1.379 . S
C442 N450 1.356 . S
C443 C442 1.363 . S
C443 C449 1.363 . S
C444 C445 1.363 . S
C444 C449 1.379 . S
C444 N451 1.356 . S
C445 C444 1.363 . S
C445 C448 1.363 . S
N446 C448 1.356 . S
N446 H458 0.984 . S
N446 H459 0.985 . S
N447 C449 1.356 . S
N447 H452 0.984 . S
N447 H453 0.985 . S
C448 C442 1.379 . S
C448 C445 1.363 . S
C448 N446 1.356 . S
C449 C443 1.363 . S
C449 C444 1.379 . S
C449 N447 1.356 . S
N450 C442 1.356 . S
N450 H456 0.984 . S
N450 H457 0.984 . S
N451 C444 1.356 . S
N451 H454 0.984 . S
N451 H455 0.985 . S
H452 N447 0.984 . S
H453 N447 0.985 . S
H454 N451 0.984 . S
H455 N451 0.985 . S
H456 N450 0.984 . S
H457 N450 0.984 . S
H458 N446 0.984 . S
H459 N446 0.985 . S
C460 C461 1.363 1_556 S
C460 C466 1.379 . S
C460 N468 1.356 . S
C461 C460 1.363 1_554 S
C461 C467 1.363 . S
C462 C463 1.363 1_554 S
C462 C467 1.379 . S
C462 N469 1.356 . S
C463 C462 1.363 1_556 S
C463 C466 1.363 . S
N464 C466 1.356 . S
N464 H476 0.984 . S
N464 H477 0.985 . S
N465 C467 1.356 . S
N465 H470 0.984 . S
N465 H471 0.985 . S
C466 C460 1.379 . S
C466 C463 1.363 . S
C466 N464 1.356 . S
C467 C461 1.363 . S
C467 C462 1.379 . S
C467 N465 1.356 . S
N468 C460 1.356 . S
N468 H474 0.984 . S
N468 H475 0.984 . S
N469 C462 1.356 . S
N469 H472 0.984 . S
N469 H473 0.985 . S
H470 N465 0.984 . S
H471 N465 0.985 . S
H472 N469 0.984 . S
H473 N469 0.985 . S
H474 N468 0.984 . S
H475 N468 0.984 . S
H476 N464 0.984 . S
H477 N464 0.985 . S
C478 C479 1.363 . S
C478 C484 1.379 . S
C478 N486 1.356 . S
C479 C478 1.363 . S
C479 C485 1.363 . S
C480 C481 1.363 . S
C480 C485 1.379 . S
C480 N487 1.356 . S
C481 C480 1.363 . S
C481 C484 1.363 . S
N482 C484 1.356 . S
N482 H494 0.984 . S
N482 H495 0.985 . S
N483 C485 1.356 . S
N483 H488 0.984 . S
N483 H489 0.985 . S
C484 C478 1.379 . S
C484 C481 1.363 . S
C484 N482 1.356 . S
C485 C479 1.363 . S
C485 C480 1.379 . S
C485 N483 1.356 . S
N486 C478 1.356 . S
N486 H492 0.984 . S
N486 H493 0.984 . S
N487 C480 1.356 . S
N487 H490 0.984 . S
N487 H491 0.985 . S
H488 N483 0.984 . S
H489 N483 0.985 . S
H490 N487 0.984 . S
H491 N487 0.985 . S
H492 N486 0.984 . S
H493 N486 0.984 . S
H494 N482 0.984 . S
H495 N482 0.985 . S
C496 C497 1.363 . S
C496 C502 1.379 . S
C496 N504 1.356 . S
C497 C496 1.363 . S
C497 C503 1.363 . S
C498 C499 1.363 . S
C498 C503 1.379 . S
C498 N505 1.356 . S
C499 C498 1.363 . S
C499 C502 1.363 . S
N500 C502 1.356 . S
N500 H512 0.984 . S
N500 H513 0.985 . S
N501 C503 1.356 . S
N501 H506 0.984 . S
N501 H507 0.985 . S
C502 C496 1.379 . S
C502 C499 1.363 . S
C502 N500 1.356 . S
C503 C497 1.363 . S
C503 C498 1.379 . S
C503 N501 1.356 . S
N504 C496 1.356 . S
N504 H510 0.984 . S
N504 H511 0.984 . S
N505 C498 1.356 . S
N505 H508 0.984 . S
N505 H509 0.985 . S
H506 N501 0.984 . S
H507 N501 0.985 . S
H508 N505 0.984 . S
H509 N505 0.985 . S
H510 N504 0.984 . S
H511 N504 0.984 . S
H512 N500 0.984 . S
H513 N500 0.985 . S
C514 C515 1.363 . S
C514 C520 1.379 1_655 S
C514 N522 1.356 . S
C515 C514 1.363 . S
C515 C521 1.363 . S
C516 C517 1.363 . S
C516 C521 1.379 1_455 S
C516 N523 1.356 . S
C517 C516 1.363 . S
C517 C520 1.363 . S
N518 C520 1.356 . S
N518 H530 0.984 . S
N518 H531 0.985 . S
N519 C521 1.356 . S
N519 H524 0.984 . S
N519 H525 0.985 . S
C520 C514 1.379 1_455 S
C520 C517 1.363 . S
C520 N518 1.356 . S
C521 C515 1.363 . S
C521 C516 1.379 1_655 S
C521 N519 1.356 . S
N522 C514 1.356 . S
N522 H528 0.984 . S
N522 H529 0.984 . S
N523 C516 1.356 . S
N523 H526 0.984 . S
N523 H527 0.985 . S
H524 N519 0.984 . S
H525 N519 0.985 . S
H526 N523 0.984 . S
H527 N523 0.985 . S
H528 N522 0.984 . S
H529 N522 0.984 . S
H530 N518 0.984 . S
H531 N518 0.985 . S
C532 C533 1.363 . S
C532 C538 1.379 . S
C532 N540 1.356 . S
C533 C532 1.363 . S
C533 C539 1.363 . S
C534 C535 1.363 . S
C534 C539 1.379 . S
C534 N541 1.356 . S
C535 C534 1.363 . S
C535 C538 1.363 . S
N536 C538 1.356 . S
N536 H548 0.984 . S
N536 H549 0.985 . S
N537 C539 1.356 . S
N537 H542 0.984 . S
N537 H543 0.985 . S
C538 C532 1.379 . S
C538 C535 1.363 . S
C538 N536 1.356 . S
C539 C533 1.363 . S
C539 C534 1.379 . S
C539 N537 1.356 . S
N540 C532 1.356 . S
N540 H546 0.984 . S
N540 H547 0.984 . S
N541 C534 1.356 . S
N541 H544 0.984 . S
N541 H545 0.985 . S
H542 N537 0.984 . S
H543 N537 0.985 . S
H544 N541 0.984 . S
H545 N541 0.985 . S
H546 N540 0.984 . S
H547 N540 0.984 . S
H548 N536 0.984 . S
H549 N536 0.985 . S
C550 C551 1.363 . S
C550 C556 1.379 1_455 S
C550 N558 1.356 . S
C551 C550 1.363 . S
C551 C557 1.363 . S
C552 C553 1.363 . S
C552 C557 1.379 1_655 S
C552 N559 1.356 . S
C553 C552 1.363 . S
C553 C556 1.363 . S
N554 C556 1.356 . S
N554 H566 0.984 . S
N554 H567 0.985 . S
N555 C557 1.356 . S
N555 H560 0.984 . S
N555 H561 0.985 . S
C556 C550 1.379 1_655 S
C556 C553 1.363 . S
C556 N554 1.356 . S
C557 C551 1.363 . S
C557 C552 1.379 1_455 S
C557 N555 1.356 . S
N558 C550 1.356 . S
N558 H564 0.984 . S
N558 H565 0.984 . S
N559 C552 1.356 . S
N559 H562 0.984 . S
N559 H563 0.985 . S
H560 N555 0.984 . S
H561 N555 0.985 . S
H562 N559 0.984 . S
H563 N559 0.985 . S
H564 N558 0.984 . S
H565 N558 0.984 . S
H566 N554 0.984 . S
H567 N554 0.985 . S
C568 C569 1.363 . S
C568 C574 1.379 1_455 S
C568 N576 1.356 . S
C569 C568 1.363 . S
C569 C575 1.363 . S
C570 C571 1.363 . S
C570 C575 1.379 1_655 S
C570 N577 1.356 . S
C571 C570 1.363 . S
C571 C574 1.363 . S
N572 C574 1.356 . S
N572 H584 0.984 . S
N572 H585 0.985 . S
N573 C575 1.356 . S
N573 H578 0.984 . S
N573 H579 0.985 . S
C574 C568 1.379 1_655 S
C574 C571 1.363 . S
C574 N572 1.356 . S
C575 C569 1.363 . S
C575 C570 1.379 1_455 S
C575 N573 1.356 . S
N576 C568 1.356 . S
N576 H582 0.984 . S
N576 H583 0.984 . S
N577 C570 1.356 . S
N577 H580 0.984 . S
N577 H581 0.985 . S
H578 N573 0.984 . S
H579 N573 0.985 . S
H580 N577 0.984 . S
H581 N577 0.985 . S
H582 N576 0.984 . S
H583 N576 0.984 . S
H584 N572 0.984 . S
H585 N572 0.985 . S
C586 C587 1.363 . S
C586 C592 1.379 . S
C586 N594 1.356 . S
C587 C586 1.363 . S
C587 C593 1.363 . S
C588 C589 1.363 . S
C588 C593 1.379 . S
C588 N595 1.356 . S
C589 C588 1.363 . S
C589 C592 1.363 . S
N590 C592 1.356 . S
N590 H602 0.984 . S
N590 H603 0.985 . S
N591 C593 1.356 . S
N591 H596 0.984 . S
N591 H597 0.985 . S
C592 C586 1.379 . S
C592 C589 1.363 . S
C592 N590 1.356 . S
C593 C587 1.363 . S
C593 C588 1.379 . S
C593 N591 1.356 . S
N594 C586 1.356 . S
N594 H600 0.984 . S
N594 H601 0.984 . S
N595 C588 1.356 . S
N595 H598 0.984 . S
N595 H599 0.985 . S
H596 N591 0.984 . S
H597 N591 0.985 . S
H598 N595 0.984 . S
H599 N595 0.985 . S
H600 N594 0.984 . S
H601 N594 0.984 . S
H602 N590 0.984 . S
H603 N590 0.985 . S
C604 C605 1.363 . S
C604 C610 1.379 1_455 S
C604 N612 1.356 . S
C605 C604 1.363 . S
C605 C611 1.363 . S
C606 C607 1.363 . S
C606 C611 1.379 1_655 S
C606 N613 1.356 . S
C607 C606 1.363 . S
C607 C610 1.363 . S
N608 C610 1.356 . S
N608 H620 0.984 . S
N608 H621 0.985 . S
N609 C611 1.356 . S
N609 H614 0.984 . S
N609 H615 0.985 . S
C610 C604 1.379 1_655 S
C610 C607 1.363 . S
C610 N608 1.356 . S
C611 C605 1.363 . S
C611 C606 1.379 1_455 S
C611 N609 1.356 . S
N612 C604 1.356 . S
N612 H618 0.984 . S
N612 H619 0.984 . S
N613 C606 1.356 . S
N613 H616 0.984 . S
N613 H617 0.985 . S
H614 N609 0.984 . S
H615 N609 0.985 . S
H616 N613 0.984 . S
H617 N613 0.985 . S
H618 N612 0.984 . S
H619 N612 0.984 . S
H620 N608 0.984 . S
H621 N608 0.985 . S
C622 C623 1.363 . S
C622 C628 1.379 . S
C622 N630 1.356 . S
C623 C622 1.363 . S
C623 C629 1.363 . S
C624 C625 1.363 . S
C624 C629 1.379 . S
C624 N631 1.356 . S
C625 C624 1.363 . S
C625 C628 1.363 . S
N626 C628 1.356 . S
N626 H638 0.984 . S
N626 H639 0.985 . S
N627 C629 1.356 . S
N627 H632 0.984 . S
N627 H633 0.985 . S
C628 C622 1.379 . S
C628 C625 1.363 . S
C628 N626 1.356 . S
C629 C623 1.363 . S
C629 C624 1.379 . S
C629 N627 1.356 . S
N630 C622 1.356 . S
N630 H636 0.984 . S
N630 H637 0.984 . S
N631 C624 1.356 . S
N631 H634 0.984 . S
N631 H635 0.985 . S
H632 N627 0.984 . S
H633 N627 0.985 . S
H634 N631 0.984 . S
H635 N631 0.985 . S
H636 N630 0.984 . S
H637 N630 0.984 . S
H638 N626 0.984 . S
H639 N626 0.985 . S
C640 C641 1.363 . S
C640 C646 1.379 . S
C640 N648 1.356 . S
C641 C640 1.363 . S
C641 C647 1.363 . S
C642 C643 1.363 . S
C642 C647 1.379 . S
C642 N649 1.356 . S
C643 C642 1.363 . S
C643 C646 1.363 . S
N644 C646 1.356 . S
N644 H656 0.984 . S
N644 H657 0.985 . S
N645 C647 1.356 . S
N645 H650 0.984 . S
N645 H651 0.985 . S
C646 C640 1.379 . S
C646 C643 1.363 . S
C646 N644 1.356 . S
C647 C641 1.363 . S
C647 C642 1.379 . S
C647 N645 1.356 . S
N648 C640 1.356 . S
N648 H654 0.984 . S
N648 H655 0.984 . S
N649 C642 1.356 . S
N649 H652 0.984 . S
N649 H653 0.985 . S
H650 N645 0.984 . S
H651 N645 0.985 . S
H652 N649 0.984 . S
H653 N649 0.985 . S
H654 N648 0.984 . S
H655 N648 0.984 . S
H656 N644 0.984 . S
H657 N644 0.985 . S
C658 C659 1.363 . S
C658 C664 1.379 . S
C658 N666 1.356 . S
C659 C658 1.363 . S
C659 C665 1.363 . S
C660 C661 1.363 . S
C660 C665 1.379 . S
C660 N667 1.356 . S
C661 C660 1.363 . S
C661 C664 1.363 . S
N662 C664 1.356 . S
N662 H674 0.984 . S
N662 H675 0.985 . S
N663 C665 1.356 . S
N663 H668 0.984 . S
N663 H669 0.985 . S
C664 C658 1.379 . S
C664 C661 1.363 . S
C664 N662 1.356 . S
C665 C659 1.363 . S
C665 C660 1.379 . S
C665 N663 1.356 . S
N666 C658 1.356 . S
N666 H672 0.984 . S
N666 H673 0.984 . S
N667 C660 1.356 . S
N667 H670 0.984 . S
N667 H671 0.985 . S
H668 N663 0.984 . S
H669 N663 0.985 . S
H670 N667 0.984 . S
H671 N667 0.985 . S
H672 N666 0.984 . S
H673 N666 0.984 . S
H674 N662 0.984 . S
H675 N662 0.985 . S
C676 C677 1.363 . S
C676 C682 1.379 . S
C676 N684 1.356 . S
C677 C676 1.363 . S
C677 C683 1.363 . S
C678 C679 1.363 . S
C678 C683 1.379 . S
C678 N685 1.356 . S
C679 C678 1.363 . S
C679 C682 1.363 . S
N680 C682 1.356 . S
N680 H692 0.984 . S
N680 H693 0.985 . S
N681 C683 1.356 . S
N681 H686 0.984 . S
N681 H687 0.985 . S
C682 C676 1.379 . S
C682 C679 1.363 . S
C682 N680 1.356 . S
C683 C677 1.363 . S
C683 C678 1.379 . S
C683 N681 1.356 . S
N684 C676 1.356 . S
N684 H690 0.984 . S
N684 H691 0.984 . S
N685 C678 1.356 . S
N685 H688 0.984 . S
N685 H689 0.985 . S
H686 N681 0.984 . S
H687 N681 0.985 . S
H688 N685 0.984 . S
H689 N685 0.985 . S
H690 N684 0.984 . S
H691 N684 0.984 . S
H692 N680 0.984 . S
H693 N680 0.985 . S
C694 C695 1.363 . S
C694 C700 1.379 . S
C694 N702 1.356 . S
C695 C694 1.363 . S
C695 C701 1.363 . S
C696 C697 1.363 . S
C696 C701 1.379 . S
C696 N703 1.356 . S
C697 C696 1.363 . S
C697 C700 1.363 . S
N698 C700 1.356 . S
N698 H710 0.984 . S
N698 H711 0.985 . S
N699 C701 1.356 . S
N699 H704 0.984 . S
N699 H705 0.985 . S
C700 C694 1.379 . S
C700 C697 1.363 . S
C700 N698 1.356 . S
C701 C695 1.363 . S
C701 C696 1.379 . S
C701 N699 1.356 . S
N702 C694 1.356 . S
N702 H708 0.984 . S
N702 H709 0.984 . S
N703 C696 1.356 . S
N703 H706 0.984 . S
N703 H707 0.985 . S
H704 N699 0.984 . S
H705 N699 0.985 . S
H706 N703 0.984 . S
H707 N703 0.985 . S
H708 N702 0.984 . S
H709 N702 0.984 . S
H710 N698 0.984 . S
H711 N698 0.985 . S
C712 C713 1.363 . S
C712 C718 1.379 . S
C712 N720 1.356 . S
C713 C712 1.363 . S
C713 C719 1.363 . S
C714 C715 1.363 . S
C714 C719 1.379 . S
C714 N721 1.356 . S
C715 C714 1.363 . S
C715 C718 1.363 . S
N716 C718 1.356 . S
N716 H728 0.984 . S
N716 H729 0.985 . S
N717 C719 1.356 . S
N717 H722 0.984 . S
N717 H723 0.985 . S
C718 C712 1.379 . S
C718 C715 1.363 . S
C718 N716 1.356 . S
C719 C713 1.363 . S
C719 C714 1.379 . S
C719 N717 1.356 . S
N720 C712 1.356 . S
N720 H726 0.984 . S
N720 H727 0.984 . S
N721 C714 1.356 . S
N721 H724 0.984 . S
N721 H725 0.985 . S
H722 N717 0.984 . S
H723 N717 0.985 . S
H724 N721 0.984 . S
H725 N721 0.985 . S
H726 N720 0.984 . S
H727 N720 0.984 . S
H728 N716 0.984 . S
H729 N716 0.985 . S
C730 C731 1.363 . S
C730 C736 1.379 . S
C730 N738 1.356 . S
C731 C730 1.363 . S
C731 C737 1.363 . S
C732 C733 1.363 . S
C732 C737 1.379 . S
C732 N739 1.356 . S
C733 C732 1.363 . S
C733 C736 1.363 . S
N734 C736 1.356 . S
N734 H746 0.984 . S
N734 H747 0.985 . S
N735 C737 1.356 . S
N735 H740 0.984 . S
N735 H741 0.985 . S
C736 C730 1.379 . S
C736 C733 1.363 . S
C736 N734 1.356 . S
C737 C731 1.363 . S
C737 C732 1.379 . S
C737 N735 1.356 . S
N738 C730 1.356 . S
N738 H744 0.984 . S
N738 H745 0.984 . S
N739 C732 1.356 . S
N739 H742 0.984 . S
N739 H743 0.985 . S
H740 N735 0.984 . S
H741 N735 0.985 . S
H742 N739 0.984 . S
H743 N739 0.985 . S
H744 N738 0.984 . S
H745 N738 0.984 . S
H746 N734 0.984 . S
H747 N734 0.985 . S
C748 C749 1.363 . S
C748 C754 1.379 . S
C748 N756 1.356 . S
C749 C748 1.363 . S
C749 C755 1.363 . S
C750 C751 1.363 . S
C750 C755 1.379 . S
C750 N757 1.356 . S
C751 C750 1.363 . S
C751 C754 1.363 . S
N752 C754 1.356 . S
N752 H764 0.984 . S
N752 H765 0.985 . S
N753 C755 1.356 . S
N753 H758 0.984 . S
N753 H759 0.985 . S
C754 C748 1.379 . S
C754 C751 1.363 . S
C754 N752 1.356 . S
C755 C749 1.363 . S
C755 C750 1.379 . S
C755 N753 1.356 . S
N756 C748 1.356 . S
N756 H762 0.984 . S
N756 H763 0.984 . S
N757 C750 1.356 . S
N757 H760 0.984 . S
N757 H761 0.985 . S
H758 N753 0.984 . S
H759 N753 0.985 . S
H760 N757 0.984 . S
H761 N757 0.985 . S
H762 N756 0.984 . S
H763 N756 0.984 . S
H764 N752 0.984 . S
H765 N752 0.985 . S
C766 C767 1.363 . S
C766 C772 1.379 . S
C766 N774 1.356 . S
C767 C766 1.363 . S
C767 C773 1.363 . S
C768 C769 1.363 . S
C768 C773 1.379 . S
C768 N775 1.356 . S
C769 C768 1.363 . S
C769 C772 1.363 . S
N770 C772 1.356 . S
N770 H782 0.984 . S
N770 H783 0.985 . S
N771 C773 1.356 . S
N771 H776 0.984 . S
N771 H777 0.985 . S
C772 C766 1.379 . S
C772 C769 1.363 . S
C772 N770 1.356 . S
C773 C767 1.363 . S
C773 C768 1.379 . S
C773 N771 1.356 . S
N774 C766 1.356 . S
N774 H780 0.984 . S
N774 H781 0.984 . S
N775 C768 1.356 . S
N775 H778 0.984 . S
N775 H779 0.985 . S
H776 N771 0.984 . S
H777 N771 0.985 . S
H778 N775 0.984 . S
H779 N775 0.985 . S
H780 N774 0.984 . S
H781 N774 0.984 . S
H782 N770 0.984 . S
H783 N770 0.985 . S
C209 C0 1.419 . S
C211 C164 1.426 . S
C227 C177 1.426 . S
C229 C13 1.419 . S
C245 C26 1.419 . S
C247 C190 1.426 . S
C263 C203 1.426 . S
C265 C39 1.419 . S
C281 C104 1.419 . S
C283 C60 1.426 . S
C299 C73 1.426 . S
C301 C117 1.419 . S
C317 C130 1.419 . S
C319 C86 1.426 . S
C335 C99 1.426 . S
C337 C143 1.419 . S
C353 C5 1.542 . S
C355 C31 1.542 . S
C371 C18 1.542 . S
C373 C44 1.542 . S
C389 C57 1.395 . S
C391 C83 1.395 . S
C407 C70 1.395 . S
C409 C96 1.395 . S
C425 C135 1.542 . S
C427 C109 1.542 . S
C443 C122 1.542 . S
C445 C148 1.542 . S
C461 C187 1.395 . S
C463 C161 1.395 . S
C479 C174 1.395 . S
C481 C200 1.395 . S
C497 C88 1.472 . S
C499 C10 1.472 . S
C515 C101 1.472 . S
C517 C23 1.472 . S
C533 C36 1.472 . S
C535 C62 1.472 . S
C551 C49 1.472 . S
C553 C75 1.472 . S
C569 C192 1.472 . S
C571 C114 1.472 . S
C587 C127 1.472 . S
C589 C205 1.472 . S
C605 C166 1.472 . S
C607 C140 1.472 . S
C623 C153 1.472 . S
C625 C179 1.472 . S
C641 C8 1.552 . S
C643 C47 1.552 . S
C659 C34 1.552 . S
C661 C21 1.552 . S
C677 C52 1.314 . S
C679 C91 1.314 . S
C695 C65 1.314 . S
C697 C78 1.314 . S
C713 C151 1.552 . S
C715 C112 1.552 . S
C731 C125 1.552 . S
C733 C138 1.552 . S
C749 C195 1.314 . S
C751 C156 1.314 . S
C767 C169 1.314 . S
C769 C182 1.314 . S
