# Generated by pormake.
# Topology wio, (6)-cn, num edge types: 1
# Building blocks:
#     Node 0, Type 0, BuildingBlock: GEDQOX_clean_sbu_0, # of connection points: 6
#     Node 1, Type 0, BuildingBlock: GEDQOX_clean_sbu_0, # of connection points: 6
#     Node 2, Type 0, BuildingBlock: GEDQOX_clean_sbu_0, # of connection points: 6
#     Node 3, Type 0, BuildingBlock: GEDQOX_clean_sbu_0, # of connection points: 6
#     Node 4, Type 0, BuildingBlock: GEDQOX_clean_sbu_0, # of connection points: 6
#     Node 5, Type 0, BuildingBlock: GEDQOX_clean_sbu_0, # of connection points: 6
#     Node 6, Type 0, BuildingBlock: GEDQOX_clean_sbu_0, # of connection points: 6
#     Node 7, Type 0, BuildingBlock: GEDQOX_clean_sbu_0, # of connection points: 6
#     Node 8, Type 0, BuildingBlock: GEDQOX_clean_sbu_0, # of connection points: 6
#     Node 9, Type 0, BuildingBlock: GEDQOX_clean_sbu_0, # of connection points: 6
#     Node 10, Type 0, BuildingBlock: GEDQOX_clean_sbu_0, # of connection points: 6
#     Node 11, Type 0, BuildingBlock: GEDQOX_clean_sbu_0, # of connection points: 6
#     Node 12, Type 0, BuildingBlock: GEDQOX_clean_sbu_0, # of connection points: 6
#     Node 13, Type 0, BuildingBlock: GEDQOX_clean_sbu_0, # of connection points: 6
#     Node 14, Type 0, BuildingBlock: GEDQOX_clean_sbu_0, # of connection points: 6
#     Node 15, Type 0, BuildingBlock: GEDQOX_clean_sbu_0, # of connection points: 6
#     Node 16, Type 0, BuildingBlock: GEDQOX_clean_sbu_0, # of connection points: 6
#     Node 17, Type 0, BuildingBlock: GEDQOX_clean_sbu_0, # of connection points: 6
#     Node 18, Type 0, BuildingBlock: GEDQOX_clean_sbu_0, # of connection points: 6
#     Node 19, Type 0, BuildingBlock: GEDQOX_clean_sbu_0, # of connection points: 6
#     Node 20, Type 0, BuildingBlock: GEDQOX_clean_sbu_0, # of connection points: 6
#     Node 21, Type 0, BuildingBlock: GEDQOX_clean_sbu_0, # of connection points: 6
#     Node 22, Type 0, BuildingBlock: GEDQOX_clean_sbu_0, # of connection points: 6
#     Node 23, Type 0, BuildingBlock: GEDQOX_clean_sbu_0, # of connection points: 6
#     Node 24, Type 0, BuildingBlock: GEDQOX_clean_sbu_0, # of connection points: 6
#     Node 25, Type 0, BuildingBlock: GEDQOX_clean_sbu_0, # of connection points: 6
#     Node 26, Type 0, BuildingBlock: GEDQOX_clean_sbu_0, # of connection points: 6
#     Node 27, Type 0, BuildingBlock: GEDQOX_clean_sbu_0, # of connection points: 6
#     Node 28, Type 0, BuildingBlock: GEDQOX_clean_sbu_0, # of connection points: 6
#     Node 29, Type 0, BuildingBlock: GEDQOX_clean_sbu_0, # of connection points: 6
#     Node 30, Type 0, BuildingBlock: GEDQOX_clean_sbu_0, # of connection points: 6
#     Node 31, Type 0, BuildingBlock: GEDQOX_clean_sbu_0, # of connection points: 6
#     Edge 32, Type (0, 0), BuildingBlock: OJICUG_clean_linker_0, # of connection points: 2
#     Edge 33, Type (0, 0), BuildingBlock: OJICUG_clean_linker_0, # of connection points: 2
#     Edge 34, Type (0, 0), BuildingBlock: OJICUG_clean_linker_0, # of connection points: 2
#     Edge 35, Type (0, 0), BuildingBlock: OJICUG_clean_linker_0, # of connection points: 2
#     Edge 36, Type (0, 0), BuildingBlock: OJICUG_clean_linker_0, # of connection points: 2
#     Edge 37, Type (0, 0), BuildingBlock: OJICUG_clean_linker_0, # of connection points: 2
#     Edge 38, Type (0, 0), BuildingBlock: OJICUG_clean_linker_0, # of connection points: 2
#     Edge 39, Type (0, 0), BuildingBlock: OJICUG_clean_linker_0, # of connection points: 2
#     Edge 40, Type (0, 0), BuildingBlock: OJICUG_clean_linker_0, # of connection points: 2
#     Edge 41, Type (0, 0), BuildingBlock: OJICUG_clean_linker_0, # of connection points: 2
#     Edge 42, Type (0, 0), BuildingBlock: OJICUG_clean_linker_0, # of connection points: 2
#     Edge 43, Type (0, 0), BuildingBlock: OJICUG_clean_linker_0, # of connection points: 2
#     Edge 44, Type (0, 0), BuildingBlock: OJICUG_clean_linker_0, # of connection points: 2
#     Edge 45, Type (0, 0), BuildingBlock: OJICUG_clean_linker_0, # of connection points: 2
#     Edge 46, Type (0, 0), BuildingBlock: OJICUG_clean_linker_0, # of connection points: 2
#     Edge 47, Type (0, 0), BuildingBlock: OJICUG_clean_linker_0, # of connection points: 2
#     Edge 48, Type (0, 0), BuildingBlock: OJICUG_clean_linker_0, # of connection points: 2
#     Edge 49, Type (0, 0), BuildingBlock: OJICUG_clean_linker_0, # of connection points: 2
#     Edge 50, Type (0, 0), BuildingBlock: OJICUG_clean_linker_0, # of connection points: 2
#     Edge 51, Type (0, 0), BuildingBlock: OJICUG_clean_linker_0, # of connection points: 2
#     Edge 52, Type (0, 0), BuildingBlock: OJICUG_clean_linker_0, # of connection points: 2
#     Edge 53, Type (0, 0), BuildingBlock: OJICUG_clean_linker_0, # of connection points: 2
#     Edge 54, Type (0, 0), BuildingBlock: OJICUG_clean_linker_0, # of connection points: 2
#     Edge 55, Type (0, 0), BuildingBlock: OJICUG_clean_linker_0, # of connection points: 2
#     Edge 56, Type (0, 0), BuildingBlock: OJICUG_clean_linker_0, # of connection points: 2
#     Edge 57, Type (0, 0), BuildingBlock: OJICUG_clean_linker_0, # of connection points: 2
#     Edge 58, Type (0, 0), BuildingBlock: OJICUG_clean_linker_0, # of connection points: 2
#     Edge 59, Type (0, 0), BuildingBlock: OJICUG_clean_linker_0, # of connection points: 2
#     Edge 60, Type (0, 0), BuildingBlock: OJICUG_clean_linker_0, # of connection points: 2
#     Edge 61, Type (0, 0), BuildingBlock: OJICUG_clean_linker_0, # of connection points: 2
#     Edge 62, Type (0, 0), BuildingBlock: OJICUG_clean_linker_0, # of connection points: 2
#     Edge 63, Type (0, 0), BuildingBlock: OJICUG_clean_linker_0, # of connection points: 2
#     Edge 64, Type (0, 0), BuildingBlock: OJICUG_clean_linker_0, # of connection points: 2
#     Edge 65, Type (0, 0), BuildingBlock: OJICUG_clean_linker_0, # of connection points: 2
#     Edge 66, Type (0, 0), BuildingBlock: OJICUG_clean_linker_0, # of connection points: 2
#     Edge 67, Type (0, 0), BuildingBlock: OJICUG_clean_linker_0, # of connection points: 2
#     Edge 68, Type (0, 0), BuildingBlock: OJICUG_clean_linker_0, # of connection points: 2
#     Edge 69, Type (0, 0), BuildingBlock: OJICUG_clean_linker_0, # of connection points: 2
#     Edge 70, Type (0, 0), BuildingBlock: OJICUG_clean_linker_0, # of connection points: 2
#     Edge 71, Type (0, 0), BuildingBlock: OJICUG_clean_linker_0, # of connection points: 2
#     Edge 72, Type (0, 0), BuildingBlock: OJICUG_clean_linker_0, # of connection points: 2
#     Edge 73, Type (0, 0), BuildingBlock: OJICUG_clean_linker_0, # of connection points: 2
#     Edge 74, Type (0, 0), BuildingBlock: OJICUG_clean_linker_0, # of connection points: 2
#     Edge 75, Type (0, 0), BuildingBlock: OJICUG_clean_linker_0, # of connection points: 2
#     Edge 76, Type (0, 0), BuildingBlock: OJICUG_clean_linker_0, # of connection points: 2
#     Edge 77, Type (0, 0), BuildingBlock: OJICUG_clean_linker_0, # of connection points: 2
#     Edge 78, Type (0, 0), BuildingBlock: OJICUG_clean_linker_0, # of connection points: 2
#     Edge 79, Type (0, 0), BuildingBlock: OJICUG_clean_linker_0, # of connection points: 2
#     Edge 80, Type (0, 0), BuildingBlock: OJICUG_clean_linker_0, # of connection points: 2
#     Edge 81, Type (0, 0), BuildingBlock: OJICUG_clean_linker_0, # of connection points: 2
#     Edge 82, Type (0, 0), BuildingBlock: OJICUG_clean_linker_0, # of connection points: 2
#     Edge 83, Type (0, 0), BuildingBlock: OJICUG_clean_linker_0, # of connection points: 2
#     Edge 84, Type (0, 0), BuildingBlock: OJICUG_clean_linker_0, # of connection points: 2
#     Edge 85, Type (0, 0), BuildingBlock: OJICUG_clean_linker_0, # of connection points: 2
#     Edge 86, Type (0, 0), BuildingBlock: OJICUG_clean_linker_0, # of connection points: 2
#     Edge 87, Type (0, 0), BuildingBlock: OJICUG_clean_linker_0, # of connection points: 2
#     Edge 88, Type (0, 0), BuildingBlock: OJICUG_clean_linker_0, # of connection points: 2
#     Edge 89, Type (0, 0), BuildingBlock: OJICUG_clean_linker_0, # of connection points: 2
#     Edge 90, Type (0, 0), BuildingBlock: OJICUG_clean_linker_0, # of connection points: 2
#     Edge 91, Type (0, 0), BuildingBlock: OJICUG_clean_linker_0, # of connection points: 2
#     Edge 92, Type (0, 0), BuildingBlock: OJICUG_clean_linker_0, # of connection points: 2
#     Edge 93, Type (0, 0), BuildingBlock: OJICUG_clean_linker_0, # of connection points: 2
#     Edge 94, Type (0, 0), BuildingBlock: OJICUG_clean_linker_0, # of connection points: 2
#     Edge 95, Type (0, 0), BuildingBlock: OJICUG_clean_linker_0, # of connection points: 2
#     Edge 96, Type (0, 0), BuildingBlock: OJICUG_clean_linker_0, # of connection points: 2
#     Edge 97, Type (0, 0), BuildingBlock: OJICUG_clean_linker_0, # of connection points: 2
#     Edge 98, Type (0, 0), BuildingBlock: OJICUG_clean_linker_0, # of connection points: 2
#     Edge 99, Type (0, 0), BuildingBlock: OJICUG_clean_linker_0, # of connection points: 2
#     Edge 100, Type (0, 0), BuildingBlock: OJICUG_clean_linker_0, # of connection points: 2
#     Edge 101, Type (0, 0), BuildingBlock: OJICUG_clean_linker_0, # of connection points: 2
#     Edge 102, Type (0, 0), BuildingBlock: OJICUG_clean_linker_0, # of connection points: 2
#     Edge 103, Type (0, 0), BuildingBlock: OJICUG_clean_linker_0, # of connection points: 2
#     Edge 104, Type (0, 0), BuildingBlock: OJICUG_clean_linker_0, # of connection points: 2
#     Edge 105, Type (0, 0), BuildingBlock: OJICUG_clean_linker_0, # of connection points: 2
#     Edge 106, Type (0, 0), BuildingBlock: OJICUG_clean_linker_0, # of connection points: 2
#     Edge 107, Type (0, 0), BuildingBlock: OJICUG_clean_linker_0, # of connection points: 2
#     Edge 108, Type (0, 0), BuildingBlock: OJICUG_clean_linker_0, # of connection points: 2
#     Edge 109, Type (0, 0), BuildingBlock: OJICUG_clean_linker_0, # of connection points: 2
#     Edge 110, Type (0, 0), BuildingBlock: OJICUG_clean_linker_0, # of connection points: 2
#     Edge 111, Type (0, 0), BuildingBlock: OJICUG_clean_linker_0, # of connection points: 2
#     Edge 112, Type (0, 0), BuildingBlock: OJICUG_clean_linker_0, # of connection points: 2
#     Edge 113, Type (0, 0), BuildingBlock: OJICUG_clean_linker_0, # of connection points: 2
#     Edge 114, Type (0, 0), BuildingBlock: OJICUG_clean_linker_0, # of connection points: 2
#     Edge 115, Type (0, 0), BuildingBlock: OJICUG_clean_linker_0, # of connection points: 2
#     Edge 116, Type (0, 0), BuildingBlock: OJICUG_clean_linker_0, # of connection points: 2
#     Edge 117, Type (0, 0), BuildingBlock: OJICUG_clean_linker_0, # of connection points: 2
#     Edge 118, Type (0, 0), BuildingBlock: OJICUG_clean_linker_0, # of connection points: 2
#     Edge 119, Type (0, 0), BuildingBlock: OJICUG_clean_linker_0, # of connection points: 2
#     Edge 120, Type (0, 0), BuildingBlock: OJICUG_clean_linker_0, # of connection points: 2
#     Edge 121, Type (0, 0), BuildingBlock: OJICUG_clean_linker_0, # of connection points: 2
#     Edge 122, Type (0, 0), BuildingBlock: OJICUG_clean_linker_0, # of connection points: 2
#     Edge 123, Type (0, 0), BuildingBlock: OJICUG_clean_linker_0, # of connection points: 2
#     Edge 124, Type (0, 0), BuildingBlock: OJICUG_clean_linker_0, # of connection points: 2
#     Edge 125, Type (0, 0), BuildingBlock: OJICUG_clean_linker_0, # of connection points: 2
#     Edge 126, Type (0, 0), BuildingBlock: OJICUG_clean_linker_0, # of connection points: 2
#     Edge 127, Type (0, 0), BuildingBlock: OJICUG_clean_linker_0, # of connection points: 2
# Relax obj value: 0.180
# Max RMSD: 0.228
# Mean RMSD: 0.228
data_MOF--net-wio--node1-GEDQOX_clean_sbu_0--edge1-OJICUG_clean_linker_0
_symmetry_space_group_name_H-M    P1
_symmetry_Int_Tables_number       1
_symmetry_cell_setting            triclinic
loop_
_symmetry_equiv_pos_as_xyz
'x, y, z'
_cell_length_a     37.147661
_cell_length_b     37.296824
_cell_length_c     52.653919
_cell_angle_alpha  90.015693
_cell_angle_beta   90.122768
_cell_angle_gamma 90.018181
loop_
_atom_site_label
_atom_site_type_symbol
_atom_site_fract_x
_atom_site_fract_y
_atom_site_fract_z
_atom_type_partial_charge
Nd0 Nd 0.08385 0.12773 0.3232 0.0
Nd1 Nd 0.13026 0.09099 0.36063 0.0
C2 C 0.05025 0.1521 0.2823 0.0
C3 C 0.05845 0.15731 0.25528 0.0
C4 C 0.08443 0.13628 0.24294 0.0
C5 C 0.09285 0.14274 0.21746 0.0
C6 C 0.07565 0.17053 0.20405 0.0
C7 C 0.04958 0.19138 0.21654 0.0
C8 C 0.04106 0.18478 0.24193 0.0
C9 C 0.10901 0.17246 0.36108 0.0
C10 C 0.16979 0.11801 0.30984 0.0
C11 C 0.16451 0.06401 0.40085 0.0
C12 C 0.15987 0.0524 0.42755 0.0
C13 C 0.19047 0.04545 0.44243 0.0
C14 C 0.1873 0.02898 0.46627 0.0
C15 C 0.15336 0.0189 0.47576 0.0
C16 C 0.12256 0.02762 0.46128 0.0
C17 C 0.12578 0.04414 0.43743 0.0
C18 C 0.11219 0.04751 0.32019 0.0
C19 C 0.04406 0.10791 0.37436 0.0
O20 O 0.04759 0.11901 0.29029 0.0
O21 O 0.06787 0.17266 0.29806 0.0
O22 O 0.07613 0.17238 0.35279 0.0
O23 O 0.12781 0.14934 0.3496 0.0
O24 O 0.13672 0.12193 0.30114 0.0
O25 O 0.17588 0.10985 0.33395 0.0
O26 O 0.16379 0.09831 0.39564 0.0
O27 O 0.14818 0.04473 0.38364 0.0
O28 O 0.14324 0.04824 0.33134 0.0
O29 O 0.09016 0.06853 0.33126 0.0
O30 O 0.07713 0.10211 0.38288 0.0
O31 O 0.03814 0.1128 0.34998 0.0
H32 H 0.09842 0.11514 0.25305 0.0
H33 H 0.11331 0.1265 0.20841 0.0
H34 H 0.0356 0.21269 0.20663 0.0
H35 H 0.02106 0.20134 0.25121 0.0
H36 H 0.21707 0.05133 0.43511 0.0
H37 H 0.21165 0.02241 0.47661 0.0
H38 H 0.09594 0.02079 0.46808 0.0
H39 H 0.10175 0.04923 0.4263 0.0
Nd40 Nd 0.143 0.83265 0.57377 0.0
Nd41 Nd 0.18122 0.87876 0.61063 0.0
C42 C 0.11841 0.79735 0.53359 0.0
C43 C 0.11611 0.80229 0.50597 0.0
C44 C 0.10909 0.77274 0.49031 0.0
C45 C 0.10549 0.77724 0.46406 0.0
C46 C 0.10876 0.81147 0.45305 0.0
C47 C 0.11642 0.84095 0.46888 0.0
C48 C 0.12018 0.83634 0.49508 0.0
C49 C 0.09899 0.85856 0.61199 0.0
C50 C 0.1538 0.91791 0.55957 0.0
C51 C 0.21055 0.91292 0.64995 0.0
C52 C 0.22005 0.91297 0.67736 0.0
C53 C 0.22291 0.94593 0.69005 0.0
C54 C 0.23841 0.94796 0.7143 0.0
C55 C 0.25146 0.91699 0.72654 0.0
C56 C 0.24651 0.88362 0.71443 0.0
C57 C 0.2311 0.88164 0.69005 0.0
C58 C 0.22364 0.86155 0.56941 0.0
C59 C 0.16226 0.7938 0.62554 0.0
O60 O 0.15062 0.79261 0.54302 0.0
O61 O 0.09867 0.81878 0.54739 0.0
O62 O 0.09812 0.82588 0.60358 0.0
O63 O 0.12237 0.87672 0.60029 0.0
O64 O 0.14883 0.88495 0.55119 0.0
O65 O 0.163 0.92414 0.5835 0.0
O66 O 0.17703 0.9177 0.64296 0.0
O67 O 0.22788 0.89055 0.63531 0.0
O68 O 0.22337 0.8921 0.581 0.0
O69 O 0.20288 0.83931 0.58056 0.0
O70 O 0.16809 0.82688 0.63374 0.0
O71 O 0.15766 0.78757 0.60118 0.0
H72 H 0.10611 0.7462 0.49841 0.0
H73 H 0.10018 0.7539 0.45241 0.0
H74 H 0.11866 0.86775 0.46114 0.0
H75 H 0.12577 0.85943 0.50687 0.0
H76 H 0.21474 0.97049 0.68067 0.0
H77 H 0.24135 0.97404 0.72313 0.0
H78 H 0.25645 0.85926 0.72315 0.0
H79 H 0.22937 0.85585 0.68066 0.0
Nd80 Nd 0.43598 0.89571 0.81851 0.0
Nd81 Nd 0.39706 0.93158 0.86142 0.0
C82 C 0.46395 0.87089 0.77575 0.0
C83 C 0.45835 0.86954 0.7482 0.0
C84 C 0.42947 0.88729 0.73643 0.0
C85 C 0.42302 0.8825 0.7104 0.0
C86 C 0.44518 0.85966 0.69598 0.0
C87 C 0.47467 0.84295 0.70784 0.0
C88 C 0.48114 0.84785 0.7337 0.0
C89 C 0.40911 0.84932 0.85465 0.0
C90 C 0.35316 0.91852 0.80964 0.0
C91 C 0.3661 0.94998 0.90533 0.0
C92 C 0.37085 0.96918 0.92983 0.0
C93 C 0.34151 0.972 0.94649 0.0
C94 C 0.34431 0.99159 0.96919 0.0
C95 C 0.37661 1.00903 0.97585 0.0
C96 C 0.40633 1.00533 0.95931 0.0
C97 C 0.40347 0.98568 0.93657 0.0
C98 C 0.42034 0.97958 0.82505 0.0
C99 C 0.48348 0.9076 0.86838 0.0
O100 O 0.47315 0.90167 0.78576 0.0
O101 O 0.44079 0.85316 0.78951 0.0
O102 O 0.44102 0.84701 0.84499 0.0
O103 O 0.39211 0.87571 0.84554 0.0
O104 O 0.38531 0.91744 0.79933 0.0
O105 O 0.3493 0.91691 0.83464 0.0
O106 O 0.3837 0.92002 0.9019 0.0
O107 O 0.36449 0.96932 0.88469 0.0
O108 O 0.39157 0.98331 0.83864 0.0
O109 O 0.43842 0.95272 0.83273 0.0
O110 O 0.45331 0.91856 0.87939 0.0
O111 O 0.48504 0.90111 0.84386 0.0
H112 H 0.41152 0.90404 0.74745 0.0
H113 H 0.40003 0.89561 0.70177 0.0
H114 H 0.49255 0.8257 0.69716 0.0
H115 H 0.50354 0.83398 0.74252 0.0
H116 H 0.31602 0.95957 0.94169 0.0
H117 H 0.32067 0.9941 0.98105 0.0
H118 H 0.43184 0.01786 0.96383 0.0
H119 H 0.42654 0.98379 0.92409 0.0
Nd120 Nd 0.38055 0.19838 0.07099 0.0
Nd121 Nd 0.34318 0.14743 0.11269 0.0
C122 C 0.38883 0.23794 0.02987 0.0
C123 C 0.39299 0.23024 1.00269 0.0
C124 C 0.37735 0.19958 0.99179 0.0
C125 C 0.38262 0.19189 0.96609 0.0
C126 C 0.40377 0.21464 0.95089 0.0
C127 C 0.41933 0.24532 0.96198 0.0
C128 C 0.41393 0.25304 0.98764 0.0
C129 C 0.43219 0.16689 0.1025 0.0
C130 C 0.37262 0.11175 0.05945 0.0
C131 C 0.31738 0.11346 0.153 0.0
C132 C 0.30835 0.11734 0.18026 0.0
C133 C 0.30282 0.08648 0.19501 0.0
C134 C 0.28633 0.08882 0.21891 0.0
C135 C 0.27475 0.12212 0.22846 0.0
C136 C 0.28263 0.15326 0.21435 0.0
C137 C 0.29927 0.15091 0.19052 0.0
C138 C 0.30081 0.1664 0.07176 0.0
C139 C 0.36471 0.23364 0.12602 0.0
O140 O 0.35738 0.23059 0.03974 0.0
O141 O 0.41572 0.2283 0.04441 0.0
O142 O 0.44 0.18819 0.08376 0.0
O143 O 0.39855 0.16326 0.10312 0.0
O144 O 0.37554 0.14473 0.05045 0.0
O145 O 0.36473 0.10498 0.08374 0.0
O146 O 0.35126 0.11102 0.1461 0.0
O147 O 0.29787 0.13255 0.13731 0.0
O148 O 0.29907 0.136 0.0836 0.0
O149 O 0.32321 0.18692 0.08292 0.0
O150 O 0.35435 0.20137 0.13407 0.0
O151 O 0.37269 0.24022 0.10203 0.0
H152 H 0.36122 0.18148 1.00315 0.0
H153 H 0.36996 0.16826 0.95812 0.0
H154 H 0.4363 0.26305 0.95096 0.0
H155 H 0.42647 0.27662 0.99583 0.0
H156 H 0.30928 0.06027 0.1874 0.0
H157 H 0.28048 0.06429 0.22911 0.0
H158 H 0.27453 0.17939 0.22126 0.0
H159 H 0.30321 0.17514 0.17952 0.0
Nd160 Nd 0.0882 0.88678 0.22779 0.0
Nd161 Nd 0.12715 0.93046 0.18304 0.0
C162 C 0.05524 0.87454 0.27132 0.0
C163 C 0.0643 0.85998 0.29641 0.0
C164 C 0.10032 0.85551 0.30382 0.0
C165 C 0.10866 0.84476 0.32859 0.0
C166 C 0.08109 0.83829 0.34631 0.0
C167 C 0.04502 0.84187 0.33846 0.0
C168 C 0.03674 0.85266 0.31372 0.0
C169 C 0.12258 0.83935 0.19507 0.0
C170 C 0.1748 0.90411 0.23262 0.0
C171 C 0.15453 0.96042 0.14158 0.0
C172 C 0.15229 0.96889 0.11407 0.0
C173 C 0.11907 0.97387 0.10178 0.0
C174 C 0.11762 0.98899 0.07735 0.0
C175 C 0.14932 0.99982 0.06471 0.0
C176 C 0.18259 0.99265 0.07655 0.0
C177 C 0.184 0.97742 0.10091 0.0
C178 C 0.1062 0.96988 0.22502 0.0
C179 C 0.04326 0.89844 0.17542 0.0
O180 O 0.07065 0.90506 0.26561 0.0
O181 O 0.05452 0.85187 0.25231 0.0
O182 O 0.10553 0.82948 0.21547 0.0
O183 O 0.1216 0.87312 0.19357 0.0
O184 O 0.1445 0.89498 0.24397 0.0
O185 O 0.17627 0.91549 0.20863 0.0
O186 O 0.16346 0.92804 0.14909 0.0
O187 O 0.1312 0.97605 0.15655 0.0
O188 O 0.13534 0.97556 0.21214 0.0
O189 O 0.08845 0.94451 0.21485 0.0
O190 O 0.07238 0.91296 0.16491 0.0
O191 O 0.04165 0.8897 0.1997 0.0
H192 H 0.12197 0.86105 0.29064 0.0
H193 H 0.13668 0.84181 0.33391 0.0
H194 H 0.02314 0.83756 0.35168 0.0
H195 H 1.0088 0.85618 0.30831 0.0
H196 H 0.09418 0.96757 0.11148 0.0
H197 H 0.09149 0.99341 0.06876 0.0
H198 H 0.20757 1.00085 0.06773 0.0
H199 H 0.20994 0.97417 0.11007 0.0
Nd200 Nd 0.38357 0.83315 0.46994 0.0
Nd201 Nd 0.34502 0.88079 0.43371 0.0
C202 C 0.40795 0.8001 0.51094 0.0
C203 C 0.41194 0.80951 0.53791 0.0
C204 C 0.3899 0.83562 0.54919 0.0
C205 C 0.39436 0.84453 0.57483 0.0
C206 C 0.42098 0.82751 0.58957 0.0
C207 C 0.44328 0.80176 0.57796 0.0
C208 C 0.43874 0.79284 0.5524 0.0
C209 C 0.42686 0.85807 0.43118 0.0
C210 C 0.37575 0.91884 0.48398 0.0
C211 C 0.31596 0.91407 0.39381 0.0
C212 C 0.30255 0.90806 0.36741 0.0
C213 C 0.31589 0.92878 0.3472 0.0
C214 C 0.3006 0.92634 0.32278 0.0
C215 C 0.27135 0.90319 0.31795 0.0
C216 C 0.25859 0.88197 0.33822 0.0
C217 C 0.274 0.88426 0.36248 0.0
C218 C 0.3037 0.86098 0.47503 0.0
C219 C 0.36032 0.79484 0.41915 0.0
O220 O 0.37501 0.79658 0.50249 0.0
O221 O 0.42875 0.81746 0.49522 0.0
O222 O 0.42724 0.82536 0.43961 0.0
O223 O 0.40426 0.87695 0.4432 0.0
O224 O 0.37963 0.88572 0.49219 0.0
O225 O 0.36595 0.92569 0.46026 0.0
O226 O 0.35068 0.91324 0.3981 0.0
O227 O 0.29747 0.89979 0.4123 0.0
O228 O 0.30409 0.89265 0.46496 0.0
O229 O 0.32418 0.83996 0.4627 0.0
O230 O 0.35537 0.82804 0.41091 0.0
O231 O 0.36594 0.78837 0.44336 0.0
H232 H 0.36915 0.84899 0.53824 0.0
H233 H 0.37658 0.86427 0.58317 0.0
H234 H 0.46453 0.78867 0.58858 0.0
H235 H 0.45626 0.77297 0.54391 0.0
H236 H 0.33769 0.94757 0.35041 0.0
H237 H 0.31154 0.94287 0.30777 0.0
H238 H 0.23568 0.86438 0.3357 0.0
H239 H 0.26272 0.86805 0.37756 0.0
Nd240 Nd 0.43976 0.137 0.72635 0.0
Nd241 Nd 0.40276 0.093 0.68646 0.0
C242 C 0.46744 0.16317 0.76881 0.0
C243 C 0.45681 0.16928 0.79528 0.0
C244 C 0.4315 0.14718 0.80738 0.0
C245 C 0.42151 0.15402 0.83252 0.0
C246 C 0.43643 0.18324 0.84577 0.0
C247 C 0.46169 0.20526 0.83347 0.0
C248 C 0.4718 0.19829 0.80846 0.0
C249 C 0.41331 0.17776 0.6868 0.0
C250 C 0.35402 0.1191 0.7338 0.0
C251 C 0.3743 0.06233 0.64532 0.0
C252 C 0.38111 0.04571 0.62003 0.0
C253 C 0.37316 0.06443 0.59748 0.0
C254 C 0.3752 0.04729 0.57374 0.0
C255 C 0.38509 1.01092 0.57195 0.0
C256 C 0.3934 0.99245 0.59457 0.0
C257 C 0.39146 1.00954 0.61819 0.0
C258 C 0.42397 0.05392 0.72857 0.0
C259 C 0.4878 0.11959 0.67753 0.0
O260 O 0.47151 0.12983 0.76162 0.0
O261 O 0.45119 0.18291 0.75183 0.0
O262 O 0.44364 0.18367 0.69835 0.0
O263 O 0.39698 0.15146 0.69675 0.0
O264 O 0.38472 0.12783 0.74474 0.0
O265 O 0.35245 0.10857 0.70982 0.0
O266 O 0.37767 0.09706 0.64794 0.0
O267 O 0.38461 0.04477 0.66553 0.0
O268 O 0.39375 0.0497 0.71666 0.0
O269 O 0.44272 0.07791 0.7177 0.0
O270 O 0.45811 0.10588 0.66742 0.0
O271 O 0.48897 0.12986 0.70142 0.0
H272 H 0.41938 0.12481 0.79738 0.0
H273 H 0.40176 0.13681 0.84146 0.0
H274 H 0.47398 0.22768 0.84331 0.0
H275 H 0.49132 0.21562 0.79936 0.0
H276 H 0.36452 0.09214 0.59822 0.0
H277 H 0.36881 0.06251 0.55681 0.0
H278 H 0.40028 0.96425 0.59422 0.0
H279 H 0.39706 0.99394 0.63508 0.0
Nd280 Nd 0.14279 0.19129 0.97793 0.0
Nd281 Nd 0.18288 0.14847 0.9333 0.0
C282 C 0.13214 0.2264 1.02087 0.0
C283 C 0.12391 0.21719 0.04741 0.0
C284 C 0.13922 0.18689 0.05903 0.0
C285 C 0.13168 0.17897 0.08441 0.0
C286 C 0.10849 0.20104 0.09861 0.0
C287 C 0.09283 0.23104 0.0867 0.0
C288 C 0.10057 0.23906 0.06137 0.0
C289 C 0.09292 0.15894 0.94559 0.0
C290 C 0.15449 0.1046 0.98386 0.0
C291 C 0.20902 0.11845 0.89151 0.0
C292 C 0.22035 0.12423 0.86477 0.0
C293 C 0.20985 0.09979 0.84585 0.0
C294 C 0.22553 0.10085 0.82161 0.0
C295 C 0.25244 0.12621 0.81577 0.0
C296 C 0.26165 0.15163 0.83453 0.0
C297 C 0.24573 0.15078 0.85858 0.0
C298 C 0.22468 0.16506 0.97495 0.0
C299 C 0.15638 0.23387 0.92472 0.0
O300 O 0.16399 0.21715 1.01259 0.0
O301 O 0.10658 0.22081 1.00421 0.0
O302 O 0.08396 0.17696 0.96575 0.0
O303 O 0.12671 0.15826 0.94434 0.0
O304 O 0.14986 0.13584 0.99521 0.0
O305 O 0.16319 0.10163 0.95935 0.0
O306 O 0.17464 0.1175 0.89719 0.0
O307 O 0.22867 0.13368 0.90911 0.0
O308 O 0.22773 0.13628 0.96135 0.0
O309 O 0.20102 0.18579 0.96528 0.0
O310 O 0.17148 0.20453 0.91505 0.0
O311 O 0.14576 0.23612 0.94861 0.0
H312 H 0.15722 0.16948 0.04856 0.0
H313 H 0.14451 0.15589 0.09301 0.0
H314 H 0.07432 0.24823 0.09688 0.0
H315 H 0.08831 0.2624 0.05267 0.0
H316 H 0.19051 0.07891 0.85012 0.0
H317 H 0.21714 0.08119 0.80767 0.0
H318 H 0.28259 0.17125 0.83121 0.0
H319 H 0.25464 0.16996 0.87272 0.0
Nd320 Nd 0.89841 0.93589 0.68462 0.0
Nd321 Nd 0.93928 0.89551 0.73024 0.0
C322 C 0.87 0.96169 0.64186 0.0
C323 C 0.87757 0.97663 0.61611 0.0
C324 C 0.86227 0.96084 0.59435 0.0
C325 C 0.8647 0.97769 0.5705 0.0
C326 C 0.88231 1.01099 0.56779 0.0
C327 C 0.89832 0.0262 0.5896 0.0
C328 C 0.89613 1.00927 0.61328 0.0
C329 C 0.91749 0.97793 0.72559 0.0
C330 C 0.98398 0.90841 0.67777 0.0
C331 C 0.97337 0.88615 0.77382 0.0
C332 C 0.96611 0.87216 0.79934 0.0
C333 C 0.9859 0.88566 0.81989 0.0
C334 C 0.9778 0.87499 0.84463 0.0
C335 C 0.94976 0.85055 0.84924 0.0
C336 C 0.9303 0.83657 0.82853 0.0
C337 C 0.93827 0.84749 0.80373 0.0
C338 C 0.9053 0.84601 0.69863 0.0
C339 C 0.85225 0.90872 0.73457 0.0
O340 O 0.87382 0.92726 0.64606 0.0
O341 O 0.87933 0.98124 0.66139 0.0
O342 O 0.88878 0.98226 0.71192 0.0
O343 O 0.93684 0.95295 0.7163 0.0
O344 O 0.95518 0.92396 0.66748 0.0
O345 O 0.98521 0.89802 0.70174 0.0
O346 O 0.95614 0.91557 0.76789 0.0
O347 O 0.97481 0.86299 0.75512 0.0
O348 O 0.92284 0.8371 0.71912 0.0
O349 O 0.90563 0.87968 0.6968 0.0
O350 O 0.88311 0.9032 0.74642 0.0
O351 O 0.85019 0.91747 0.71001 0.0
H352 H 0.84746 0.93592 0.59591 0.0
H353 H 0.85236 0.96477 0.55425 0.0
H354 H 0.91144 0.05208 0.58873 0.0
H355 H 0.90793 0.02259 0.62958 0.0
H356 H 1.0073 0.90492 0.81682 0.0
H357 H 0.99351 0.88589 0.86018 0.0
H358 H 0.90834 0.81795 0.83156 0.0
H359 H 0.92235 0.8372 0.78807 0.0
Nd360 Nd 0.84383 0.14819 0.43144 0.0
Nd361 Nd 0.88445 0.19546 0.47397 0.0
C362 C 0.8149 0.1173 0.39087 0.0
C363 C 0.80662 0.11821 0.36326 0.0
C364 C 0.80623 0.08589 0.3496 0.0
C365 C 0.79108 0.08421 0.32523 0.0
C366 C 0.77582 0.11485 0.31386 0.0
C367 C 0.7785 0.14777 0.32687 0.0
C368 C 0.79363 0.14942 0.35133 0.0
C369 C 0.80305 0.16889 0.47275 0.0
C370 C 0.86949 0.2331 0.41935 0.0
C371 C 0.89449 0.23079 0.51696 0.0
C372 C 0.90896 0.2225 0.54232 0.0
C373 C 0.91328 0.24994 0.56025 0.0
C374 C 0.92373 0.24187 0.58516 0.0
C375 C 0.92981 0.20613 0.5926 0.0
C376 C 0.92635 0.1788 0.5743 0.0
C377 C 0.91607 0.18692 0.5494 0.0
C378 C 0.93429 0.16076 0.44314 0.0
C379 C 0.87462 0.10781 0.4823 0.0
O380 O 0.84764 0.10982 0.39875 0.0
O381 O 0.79811 0.1404 0.40536 0.0
O382 O 0.79976 0.13858 0.46093 0.0
O383 O 0.82658 0.18815 0.46173 0.0
O384 O 0.85927 0.20115 0.41071 0.0
O385 O 0.87648 0.239 0.44367 0.0
O386 O 0.86448 0.21431 0.51109 0.0
O387 O 0.91749 0.23176 0.49813 0.0
O388 O 0.94317 0.18118 0.46219 0.0
O389 O 0.90045 0.15956 0.44177 0.0
O390 O 0.88075 0.13984 0.49222 0.0
O391 O 0.86349 0.10298 0.45847 0.0
H392 H 0.8159 0.06142 0.35835 0.0
H393 H 0.78999 0.0585 0.31567 0.0
H394 H 0.76686 0.17187 0.31885 0.0
H395 H 0.79342 0.17474 0.36142 0.0
H396 H 0.90769 0.27753 0.55515 0.0
H397 H 0.92581 0.26351 0.59881 0.0
H398 H 0.93132 0.15106 0.57929 0.0
H399 H 0.91291 0.16534 0.5358 0.0
Nd400 Nd 0.63135 0.09298 0.17869 0.0
Nd401 Nd 0.58605 0.12604 0.22598 0.0
C402 C 0.66305 0.08019 0.13429 0.0
C403 C 0.65972 0.05715 0.11156 0.0
C404 C 0.68562 0.05947 0.09227 0.0
C405 C 0.68344 0.03741 0.07076 0.0
C406 C 0.65527 0.01243 0.06809 0.0
C407 C 0.62894 1.01073 0.08735 0.0
C408 C 0.63117 0.03284 0.10886 0.0
C409 C 0.60646 0.04329 0.21352 0.0
C410 C 0.54475 0.11727 0.1712 0.0
C411 C 0.55188 0.13091 0.26988 0.0
C412 C 0.55936 0.1432 0.29592 0.0
C413 C 0.53997 0.12826 0.31611 0.0
C414 C 0.54822 0.13751 0.34118 0.0
C415 C 0.57607 0.16194 0.34655 0.0
C416 C 0.59524 0.1772 0.32619 0.0
C417 C 0.58707 0.16775 0.30107 0.0
C418 C 0.62343 0.17929 0.19917 0.0
C419 C 0.67246 0.11088 0.23184 0.0
O420 O 0.63805 0.10438 0.13757 0.0
O421 O 0.67241 0.06455 0.15553 0.0
O422 O 0.63381 0.03842 0.19863 0.0
O423 O 0.59004 0.07173 0.20687 0.0
O424 O 0.57551 0.10591 0.16114 0.0
O425 O 0.54093 0.12364 0.19585 0.0
O426 O 0.56979 0.10249 0.26271 0.0
O427 O 0.54949 0.15536 0.25206 0.0
O428 O 0.60345 0.18601 0.21887 0.0
O429 O 0.62308 0.14597 0.19596 0.0
O430 O 0.64062 0.11068 0.24296 0.0
O431 O 0.67623 0.11155 0.20671 0.0
H432 H 0.70786 0.07814 0.09399 0.0
H433 H 0.70442 0.03923 0.05657 0.0
H434 H 0.60658 0.99222 0.08585 0.0
H435 H 0.61074 0.0308 0.12345 0.0
H436 H 0.51868 0.10905 0.31248 0.0
H437 H 0.53267 0.12561 0.35638 0.0
H438 H 0.61708 0.1958 0.3297 0.0
H439 H 0.60272 0.17916 0.28573 0.0
Nd440 Nd 0.68179 0.87403 0.9319 0.0
Nd441 Nd 0.64517 0.82539 0.96785 0.0
C442 C 0.70784 0.91114 0.89269 0.0
C443 C 0.71801 0.90931 0.86549 0.0
C444 C 0.72042 0.87652 0.85251 0.0
C445 C 0.73544 0.87501 0.82804 0.0
C446 C 0.74867 0.90623 0.81604 0.0
C447 C 0.74451 0.93921 0.82876 0.0
C448 C 0.72941 0.94067 0.85315 0.0
C449 C 0.72631 0.8536 0.97133 0.0
C450 C 0.66626 0.78892 0.91605 0.0
C451 C 0.61906 0.78944 1.00708 0.0
C452 C 0.61617 0.79469 0.03465 0.0
C453 C 0.64193 0.81471 0.04808 0.0
C454 C 0.63761 0.82103 0.07407 0.0
C455 C 0.6073 0.80771 0.08704 0.0
C456 C 0.58174 0.78746 0.07342 0.0
C457 C 0.5862 0.78099 0.04749 0.0
C458 C 0.6003 0.8537 0.93098 0.0
C459 C 0.65778 0.90871 0.98523 0.0
O460 O 0.6737 0.91086 0.89878 0.0
O461 O 0.72753 0.89245 0.9084 0.0
O462 O 0.72599 0.88489 0.96073 0.0
O463 O 0.70462 0.8324 0.96003 0.0
O464 O 0.66976 0.82244 0.90813 0.0
O465 O 0.66262 0.78179 0.94031 0.0
O466 O 0.65133 0.78424 0.99791 0.0
O467 O 0.59976 0.81106 0.99313 0.0
O468 O 0.60056 0.82023 0.93759 0.0
O469 O 0.62354 0.87125 0.94334 0.0
O470 O 0.65495 0.87501 0.99244 0.0
O471 O 0.66361 0.91693 0.96108 0.0
H472 H 0.71187 0.85192 0.86163 0.0
H473 H 0.73759 0.84916 0.81881 0.0
H474 H 0.7547 0.96378 0.82052 0.0
H475 H 0.72811 0.96625 0.86286 0.0
H476 H 0.66516 0.82577 0.03844 0.0
H477 H 0.65804 0.83636 0.08397 0.0
H478 H 0.55776 0.77733 0.08263 0.0
H479 H 0.56587 0.7658 0.03735 0.0
Nd480 Nd 0.89683 0.09382 0.86168 0.0
Nd481 Nd 0.94534 0.13157 0.81777 0.0
C482 C 0.86455 0.07467 0.90472 0.0
C483 C 0.86956 0.05135 0.92746 0.0
C484 C 0.87119 0.06669 0.95186 0.0
C485 C 0.87381 0.04504 0.97362 0.0
C486 C 0.87477 1.0074 0.97158 0.0
C487 C 0.87315 0.99216 0.94708 0.0
C488 C 0.87064 0.01378 0.92537 0.0
C489 C 0.92264 0.04841 0.82431 0.0
C490 C 0.98369 0.11553 0.87258 0.0
C491 C 0.98156 0.13943 0.77498 0.0
C492 C 0.97373 0.15222 0.74908 0.0
C493 C 0.93838 0.15191 0.73959 0.0
C494 C 0.93142 0.16176 0.71444 0.0
C495 C 0.95967 0.17225 0.69828 0.0
C496 C 0.99493 0.1734 0.70809 0.0
C497 C 1.00188 0.16337 0.73326 0.0
C498 C 0.9091 0.18261 0.84702 0.0
C499 C 0.85819 0.1209 0.80886 0.0
O500 O 0.885 0.10307 0.90269 0.0
O501 O 0.85874 0.05911 0.88282 0.0
O502 O 0.894 0.04252 0.83772 0.0
O503 O 0.93897 0.07552 0.83337 0.0
O504 O 0.95251 0.1026 0.88101 0.0
O505 O 0.98863 0.12574 0.84872 0.0
O506 O 0.9655 0.10959 0.78158 0.0
O507 O 0.98184 0.16352 0.79311 0.0
O508 O 0.9301 0.19074 0.82811 0.0
O509 O 0.90786 0.14896 0.84856 0.0
O510 O 0.89064 0.12363 0.79879 0.0
O511 O 0.8529 0.11455 0.83351 0.0
H512 H 0.87012 0.09554 0.95412 0.0
H513 H 0.87533 0.05787 0.99204 0.0
H514 H 0.87309 0.96334 0.94459 0.0
H515 H 0.86908 1.00092 0.90695 0.0
H516 H 0.91621 0.14351 0.75151 0.0
H517 H 0.90389 0.16111 0.70763 0.0
H518 H 0.01731 0.18107 0.69611 0.0
H519 H 0.02934 0.1637 0.74023 0.0
Nd520 Nd 0.68444 0.14422 0.60926 0.0
Nd521 Nd 0.64605 0.19055 0.57187 0.0
C522 C 0.71205 0.11067 0.64959 0.0
C523 C 0.72348 0.1152 0.67645 0.0
C524 C 0.73064 0.08468 0.69124 0.0
C525 C 0.74681 0.0878 0.71527 0.0
C526 C 0.7564 0.12161 0.72512 0.0
C527 C 0.74747 0.1523 0.7107 0.0
C528 C 0.73128 0.14913 0.68665 0.0
C529 C 0.72699 0.16264 0.56845 0.0
C530 C 0.66719 0.23032 0.6231 0.0
C531 C 0.6215 0.22337 0.53064 0.0
C532 C 0.6175 0.21505 0.50345 0.0
C533 C 0.63446 0.18506 0.4927 0.0
C534 C 0.62913 0.17665 0.46706 0.0
C535 C 0.60687 0.1982 0.45168 0.0
C536 C 0.59031 0.22846 0.46255 0.0
C537 C 0.59553 0.23673 0.48821 0.0
C538 C 0.60271 0.16536 0.61046 0.0
C539 C 0.65638 0.10477 0.55845 0.0
O540 O 0.67764 0.11057 0.64417 0.0
O541 O 0.73114 0.12745 0.63253 0.0
O542 O 0.72722 0.13187 0.5798 0.0
O543 O 0.70565 0.18427 0.57958 0.0
O544 O 0.67412 0.19747 0.63138 0.0
O545 O 0.66056 0.23622 0.5989 0.0
O546 O 0.65439 0.22706 0.53915 0.0
O547 O 0.60108 0.20505 0.54607 0.0
O548 O 0.60173 0.19794 0.60186 0.0
O549 O 0.62571 0.1468 0.59864 0.0
O550 O 0.65113 0.1376 0.55 0.0
O551 O 0.66603 0.0986 0.5823 0.0
H552 H 0.72513 0.05819 0.68372 0.0
H553 H 0.75353 0.06352 0.7255 0.0
H554 H 0.75387 0.17884 0.71772 0.0
H555 H 0.72604 0.17312 0.67564 0.0
H556 H 0.65167 0.16806 0.50413 0.0
H557 H 0.64259 0.15339 0.45924 0.0
H558 H 0.57263 0.24533 0.45136 0.0
H559 H 0.58207 0.25987 0.49623 0.0
Nd560 Nd 0.6262 0.93318 0.35452 0.0
Nd561 Nd 0.5855 0.88854 0.31133 0.0
C562 C 0.65413 0.96457 0.39551 0.0
C563 C 0.64818 0.97886 0.4217 0.0
C564 C 0.66309 0.96172 0.4431 0.0
C565 C 0.66191 0.978 0.46724 0.0
C566 C 0.64603 0.01203 0.47059 0.0
C567 C 0.6307 0.02875 0.44912 0.0
C568 C 0.63166 0.01245 0.42519 0.0
C569 C 0.6065 0.97101 0.31163 0.0
C570 C 0.54138 0.90403 0.36344 0.0
C571 C 0.55203 0.87478 0.26811 0.0
C572 C 0.56226 0.86231 0.24263 0.0
C573 C 0.59616 0.87065 0.23244 0.0
C574 C 0.60481 0.86042 0.20767 0.0
C575 C 0.57983 0.84141 0.19274 0.0
C576 C 0.54629 0.8323 0.20328 0.0
C577 C 0.53756 0.84276 0.22801 0.0
C578 C 0.61991 0.84155 0.3445 0.0
C579 C 0.67218 0.90372 0.30535 0.0
O580 O 0.65632 0.92988 0.39151 0.0
O581 O 0.63862 0.98163 0.37675 0.0
O582 O 0.63601 0.97605 0.3243 0.0
O583 O 0.58747 0.94708 0.32245 0.0
O584 O 0.57028 0.92046 0.3729 0.0
O585 O 0.53977 0.89206 0.33987 0.0
O586 O 0.56367 0.90666 0.27451 0.0
O587 O 0.55435 0.85142 0.28658 0.0
O588 O 0.60209 0.83142 0.32447 0.0
O589 O 0.61972 0.8754 0.34549 0.0
O590 O 0.64119 0.89615 0.29428 0.0
O591 O 0.67459 0.91474 0.32942 0.0
H592 H 0.67653 0.93611 0.44108 0.0
H593 H 0.67379 0.96403 0.4832 0.0
H594 H 0.61904 0.05528 0.45047 0.0
H595 H 0.6205 0.027 0.40921 0.0
H596 H 0.61578 0.8855 0.24349 0.0
H597 H 0.63103 0.8674 0.20018 0.0
H598 H 0.5264 0.81793 0.19216 0.0
H599 H 0.5113 0.83609 0.23558 0.0
Nd600 Nd 0.84473 0.87128 0.10794 0.0
Nd601 Nd 0.88356 0.82222 0.07243 0.0
C602 C 0.81566 0.90754 0.14642 0.0
C603 C 0.80526 0.90577 0.17358 0.0
C604 C 0.80338 0.87306 0.1867 0.0
C605 C 0.78835 0.87152 0.21116 0.0
C606 C 0.77465 0.90264 0.22302 0.0
C607 C 0.77825 0.93556 0.21017 0.0
C608 C 0.79333 0.93705 0.18577 0.0
C609 C 0.80343 0.85037 0.06669 0.0
C610 C 0.86159 0.78627 0.12466 0.0
C611 C 0.90715 0.78653 0.03232 0.0
C612 C 0.91005 0.79407 1.00503 0.0
C613 C 0.89101 0.8227 0.99413 0.0
C614 C 0.89564 0.83114 0.96849 0.0
C615 C 0.91924 0.81093 0.95331 0.0
C616 C 0.93766 0.78179 0.96423 0.0
C617 C 0.93318 0.77353 0.98993 0.0
C618 C 0.92661 0.84891 0.11076 0.0
C619 C 0.87456 0.90755 0.0566 0.0
O620 O 0.84987 0.90936 0.14061 0.0
O621 O 0.79743 0.88725 0.13078 0.0
O622 O 0.80339 0.88211 0.07663 0.0
O623 O 0.82419 0.82981 0.07924 0.0
O624 O 0.85558 0.81974 0.13201 0.0
O625 O 0.86754 0.77879 0.10062 0.0
O626 O 0.87451 0.78327 0.04129 0.0
O627 O 0.92806 0.80557 0.04705 0.0
O628 O 0.92759 0.81599 0.1028 0.0
O629 O 0.90385 0.86712 0.09834 0.0
O630 O 0.87959 0.87414 0.04922 0.0
O631 O 0.86445 0.9151 0.08013 0.0
H632 H 0.81239 0.84853 0.1777 0.0
H633 H 0.78662 0.84573 0.22051 0.0
H634 H 0.76768 0.96002 0.21833 0.0
H635 H 0.79424 0.96256 0.17596 0.0
H636 H 0.87285 0.83877 1.00547 0.0
H637 H 0.88079 0.8535 0.96057 0.0
H638 H 0.95633 0.766 0.95308 0.0
H639 H 0.9482 0.75145 0.9981 0.0
Nd640 Nd 0.59043 0.62307 0.81748 0.0
Nd641 Nd 0.63357 0.59044 0.86052 0.0
C642 C 0.56061 0.63932 0.7732 0.0
C643 C 0.57166 0.64934 0.74732 0.0
C644 C 0.60275 0.63497 0.73606 0.0
C645 C 0.61214 0.64452 0.71121 0.0
C646 C 0.59079 0.66881 0.69735 0.0
C647 C 0.55996 0.68337 0.7089 0.0
C648 C 0.55051 0.67368 0.73362 0.0
C649 C 0.6169 0.67279 0.85178 0.0
C650 C 0.6771 0.61188 0.80938 0.0
C651 C 0.66476 0.57351 0.90471 0.0
C652 C 0.6592 0.55438 0.92909 0.0
C653 C 0.68463 0.5582 0.9487 0.0
C654 C 0.6817 0.53818 0.9712 0.0
C655 C 0.65326 0.5137 0.97458 0.0
C656 C 0.62704 0.51104 0.95518 0.0
C657 C 0.63002 0.53107 0.93269 0.0
C658 C 0.61232 0.54109 0.8243 0.0
C659 C 0.5459 0.60862 0.86806 0.0
O660 O 0.5674 0.6065 0.78048 0.0
O661 O 0.56659 0.66294 0.79102 0.0
O662 O 0.58567 0.67498 0.84081 0.0
O663 O 0.63406 0.6458 0.84374 0.0
O664 O 0.64512 0.61431 0.79872 0.0
O665 O 0.68084 0.60753 0.83426 0.0
O666 O 0.64675 0.6031 0.90092 0.0
O667 O 0.66705 0.554 0.88418 0.0
O668 O 0.64193 0.53947 0.83727 0.0
O669 O 0.5928 0.56654 0.83256 0.0
O670 O 0.57773 0.60267 0.8787 0.0
O671 O 0.54254 0.61186 0.84327 0.0
H672 H 0.61966 0.61631 0.74638 0.0
H673 H 0.63622 0.63312 0.70292 0.0
H674 H 0.5427 0.70177 0.69863 0.0
H675 H 0.52644 0.68503 0.74199 0.0
H676 H 0.7074 0.57604 0.94634 0.0
H677 H 0.70258 0.5408 0.98546 0.0
H678 H 0.6044 0.49297 0.95718 0.0
H679 H 0.60994 0.52781 0.91792 0.0
Nd680 Nd 0.64567 0.3261 0.07449 0.0
Nd681 Nd 0.68484 0.37467 0.11099 0.0
C682 C 0.62249 0.29071 0.03395 0.0
C683 C 0.6166 0.29826 1.00676 0.0
C684 C 0.62473 0.272 0.9886 0.0
C685 C 0.61934 0.2788 0.96273 0.0
C686 C 0.60598 0.31216 0.95455 0.0
C687 C 0.59797 0.33847 0.97283 0.0
C688 C 0.60301 0.3315 0.99868 0.0
C689 C 0.60193 0.35436 0.11196 0.0
C690 C 0.65684 0.4111 0.05863 0.0
C691 C 0.71371 0.40998 0.1501 0.0
C692 C 0.72439 0.4069 0.17722 0.0
C693 C 0.73076 0.37342 0.18859 0.0
C694 C 0.74656 0.37128 0.21283 0.0
C695 C 0.7565 0.40255 0.22626 0.0
C696 C 0.74828 0.436 0.21526 0.0
C697 C 0.7325 0.43809 0.19104 0.0
C698 C 0.72664 0.35328 0.0703 0.0
C699 C 0.66607 0.28987 0.12719 0.0
O700 O 0.65594 0.28989 0.0417 0.0
O701 O 0.6012 0.30697 0.04996 0.0
O702 O 0.59882 0.32219 0.10281 0.0
O703 O 0.62627 0.37149 0.10035 0.0
O704 O 0.65147 0.37768 0.05135 0.0
O705 O 0.66614 0.41867 0.08244 0.0
O706 O 0.67946 0.41171 0.14429 0.0
O707 O 0.73206 0.39071 0.13396 0.0
O708 O 0.72748 0.38469 0.08075 0.0
O709 O 0.70505 0.33294 0.08239 0.0
O710 O 0.67244 0.32319 0.13475 0.0
O711 O 0.66062 0.28255 0.10302 0.0
H712 H 0.63526 0.24619 0.99445 0.0
H713 H 0.62605 0.25811 0.9491 0.0
H714 H 0.58721 0.36426 0.96718 0.0
H715 H 0.59612 0.35203 1.01237 0.0
H716 H 0.72478 0.34893 0.17836 0.0
H717 H 0.7519 0.34502 0.22075 0.0
H718 H 0.7558 0.46067 0.22472 0.0
H719 H 0.72811 0.46423 0.1826 0.0
Nd720 Nd 0.94552 0.39604 0.31806 0.0
Nd721 Nd 0.89708 0.43251 0.36271 0.0
C722 C 0.98051 0.38939 0.27465 0.0
C723 C 0.97199 0.37609 0.249 0.0
C724 C 0.93617 0.37002 0.24165 0.0
C725 C 0.928 0.35976 0.21673 0.0
C726 C 0.95554 0.35533 0.19867 0.0
C727 C 0.99149 0.36079 0.20634 0.0
C728 C 0.99959 0.37113 0.23127 0.0
C729 C 0.91025 0.34418 0.34712 0.0
C730 C 0.85797 0.40576 0.31 0.0
C731 C 0.86496 0.45043 0.40607 0.0
C732 C 0.87019 0.47266 0.42927 0.0
C733 C 0.86448 0.45752 0.45338 0.0
C734 C 0.86711 0.47852 0.47547 0.0
C735 C 0.87547 0.5153 0.47401 0.0
C736 C 0.88142 0.53027 0.44976 0.0
C737 C 0.87892 0.50926 0.42774 0.0
C738 C 0.92221 0.47863 0.32555 0.0
C739 C 0.98443 0.41194 0.37274 0.0
O740 O 0.96349 0.4186 0.28146 0.0
O741 O 0.98239 0.36547 0.29285 0.0
O742 O 0.93119 0.33652 0.32807 0.0
O743 O 0.90855 0.37779 0.34884 0.0
O744 O 0.89028 0.40345 0.29967 0.0
O745 O 0.85295 0.41185 0.3347 0.0
O746 O 0.88498 0.42182 0.40352 0.0
O747 O 0.85971 0.46711 0.38452 0.0
O748 O 0.89352 0.48403 0.33903 0.0
O749 O 0.93878 0.45158 0.3344 0.0
O750 O 0.95318 0.42429 0.38146 0.0
O751 O 0.98921 0.40209 0.34876 0.0
H752 H 0.91447 0.37369 0.25508 0.0
H753 H 0.90009 0.35531 0.21162 0.0
H754 H 1.01334 0.35803 0.1929 0.0
H755 H 0.02738 0.37588 0.23657 0.0
H756 H 0.85759 0.4294 0.45513 0.0
H757 H 0.86271 0.46583 0.49369 0.0
H758 H 0.88725 0.55855 0.44765 0.0
H759 H 0.88331 0.52188 0.40948 0.0
Nd760 Nd 0.88101 0.70381 0.56866 0.0
Nd761 Nd 0.84058 0.65352 0.60942 0.0
C762 C 0.8913 0.74227 0.52713 0.0
C763 C 0.90649 0.73567 0.50182 0.0
C764 C 0.91598 0.70083 0.4944 0.0
C765 C 0.92721 0.69401 0.46955 0.0
C766 C 0.9292 0.72196 0.45164 0.0
C767 C 0.92053 0.75704 0.45942 0.0
C768 C 0.90921 0.76379 0.4843 0.0
C769 C 0.93075 0.66936 0.59988 0.0
C770 C 0.8729 0.61658 0.55775 0.0
C771 C 0.8127 0.61882 0.64869 0.0
C772 C 0.80558 0.619 0.67634 0.0
C773 C 0.80368 0.65115 0.69016 0.0
C774 C 0.78998 0.65132 0.71499 0.0
C775 C 0.77776 0.61939 0.72648 0.0
C776 C 0.78189 0.58701 0.71306 0.0
C777 C 0.79558 0.58688 0.68827 0.0
C778 C 0.8 0.67581 0.5682 0.0
C779 C 0.86411 0.73828 0.62399 0.0
O780 O 0.86143 0.72498 0.53201 0.0
O781 O 0.91389 0.74224 0.54628 0.0
O782 O 0.93979 0.69057 0.58133 0.0
O783 O 0.89695 0.66711 0.60035 0.0
O784 O 0.87874 0.64923 0.5488 0.0
O785 O 0.86159 0.61038 0.58133 0.0
O786 O 0.8456 0.61305 0.64057 0.0
O787 O 0.79514 0.64247 0.63508 0.0
O788 O 0.79703 0.64482 0.57911 0.0
O789 O 0.82309 0.69469 0.58006 0.0
O790 O 0.85433 0.70576 0.63175 0.0
O791 O 0.87131 0.74548 0.59991 0.0
H792 H 0.91383 0.67876 0.50766 0.0
H793 H 0.93317 0.66662 0.46418 0.0
H794 H 0.92224 0.77924 0.44623 0.0
H795 H 0.90192 0.79085 0.48973 0.0
H796 H 0.81121 0.6763 0.68136 0.0
H797 H 0.78771 0.6767 0.72484 0.0
H798 H 0.77243 0.56197 0.72104 0.0
H799 H 0.7965 0.5618 0.67789 0.0
Nd800 Nd 0.58659 0.38588 0.72819 0.0
Nd801 Nd 0.62793 0.42966 0.68435 0.0
C802 C 0.55333 0.37348 0.77166 0.0
C803 C 0.5631 0.36151 0.79742 0.0
C804 C 0.59707 0.36938 0.8078 0.0
C805 C 0.60511 0.36002 0.83289 0.0
C806 C 0.57944 0.3424 0.84803 0.0
C807 C 0.54581 0.33371 0.83731 0.0
C808 C 0.53771 0.34328 0.81224 0.0
C809 C 0.62123 0.33852 0.69552 0.0
C810 C 0.67356 0.40111 0.73418 0.0
C811 C 0.6563 0.45982 0.64323 0.0
C812 C 0.65167 0.47113 0.61631 0.0
C813 C 0.68187 0.47263 0.6003 0.0
C814 C 0.68011 0.49021 0.57671 0.0
C815 C 0.64811 0.50697 0.56866 0.0
C816 C 0.61729 0.50341 0.58407 0.0
C817 C 0.61904 0.48574 0.60758 0.0
C818 C 0.6081 0.46819 0.72689 0.0
C819 C 0.54297 0.40043 0.67545 0.0
O820 O 0.56548 0.40502 0.76492 0.0
O821 O 0.55525 0.34965 0.75344 0.0
O822 O 0.60323 0.32855 0.71548 0.0
O823 O 0.62081 0.37233 0.69434 0.0
O824 O 0.64254 0.39337 0.74511 0.0
O825 O 0.67609 0.41218 0.71014 0.0
O826 O 0.66116 0.42586 0.64884 0.0
O827 O 0.63722 0.47696 0.66021 0.0
O828 O 0.63744 0.47342 0.71413 0.0
O829 O 0.58936 0.44395 0.71618 0.0
O830 O 0.5723 0.41581 0.66585 0.0
O831 O 0.54094 0.38949 0.6993 0.0
H832 H 0.6172 0.38325 0.79663 0.0
H833 H 0.63143 0.36662 0.84047 0.0
H834 H 0.52535 0.32043 0.84852 0.0
H835 H 0.51136 0.33702 0.80458 0.0
H836 H 0.70746 0.46191 0.60665 0.0
H837 H 0.70443 0.49255 0.56553 0.0
H838 H 0.59201 0.51545 0.57836 0.0
H839 H 0.59527 0.48503 0.61946 0.0
Nd840 Nd 0.88463 0.3325 0.97198 0.0
Nd841 Nd 0.84512 0.37743 0.93355 0.0
C842 C 0.90783 0.29963 1.01368 0.0
C843 C 0.91189 0.30719 0.04099 0.0
C844 C 0.92264 0.27973 0.05749 0.0
C845 C 0.92842 0.28684 0.08328 0.0
C846 C 0.92368 0.32167 0.09306 0.0
C847 C 0.9123 0.34901 0.07642 0.0
C848 C 0.90639 0.34179 0.05066 0.0
C849 C 0.92893 0.36012 0.93462 0.0
C850 C 0.87155 0.41827 0.98442 0.0
C851 C 0.81611 0.41062 0.89361 0.0
C852 C 0.80645 0.40779 0.86633 0.0
C853 C 0.79502 0.43864 0.85335 0.0
C854 C 0.78012 0.43622 0.82889 0.0
C855 C 0.7762 0.40277 0.81677 0.0
C856 C 0.78953 0.37207 0.82938 0.0
C857 C 0.80436 0.37453 0.85391 0.0
C858 C 0.80298 0.35794 0.97436 0.0
C859 C 0.86714 0.29284 0.91957 0.0
O860 O 0.87499 0.29658 1.00499 0.0
O861 O 0.92865 0.31784 0.99846 0.0
O862 O 0.9326 0.32852 0.94463 0.0
O863 O 0.90342 0.37692 0.94514 0.0
O864 O 0.8775 0.38571 0.99324 0.0
O865 O 0.86201 0.42371 0.96044 0.0
O866 O 0.85002 0.41402 0.90001 0.0
O867 O 0.79818 0.39022 0.90928 0.0
O868 O 0.80177 0.38849 0.96275 0.0
O869 O 0.82512 0.33692 0.96339 0.0
O870 O 0.85924 0.32541 0.91123 0.0
O871 O 0.87313 0.28695 0.9439 0.0
H872 H 0.92689 0.2528 0.05038 0.0
H873 H 0.93655 0.265 0.09556 0.0
H874 H 0.90876 0.37623 0.08315 0.0
H875 H 0.89804 0.36333 0.03826 0.0
H876 H 0.79608 0.46456 0.86261 0.0
H877 H 0.76985 0.46041 0.82013 0.0
H878 H 0.78755 0.34588 0.8206 0.0
H879 H 0.81297 0.35032 0.86352 0.0
Nd880 Nd 0.94245 0.63046 0.22957 0.0
Nd881 Nd 0.9001 0.58932 0.18484 0.0
C882 C 0.97789 0.64169 0.27246 0.0
C883 C 0.9717 0.65838 0.29734 0.0
C884 C 1.00088 0.66432 0.3137 0.0
C885 C 0.99517 0.67738 0.33825 0.0
C886 C 0.96009 0.68465 0.3469 0.0
C887 C 0.93097 0.67953 0.33011 0.0
C888 C 0.93674 0.66652 0.30553 0.0
C889 C 0.90792 0.67945 0.19793 0.0
C890 C 0.85542 0.61667 0.23536 0.0
C891 C 0.87009 0.5615 0.14349 0.0
C892 C 0.87291 0.55287 0.11607 0.0
C893 C 0.84133 0.54588 0.10223 0.0
C894 C 0.84293 0.53019 0.07803 0.0
C895 C 0.87626 0.52097 0.06713 0.0
C896 C 0.90796 0.53026 0.08042 0.0
C897 C 0.90631 0.54593 0.10464 0.0
C898 C 0.91823 0.54854 0.22664 0.0
C899 C 0.98489 0.61758 0.1761 0.0
O900 O 0.95912 0.6127 0.26779 0.0
O901 O 0.98016 0.66316 0.25284 0.0
O902 O 0.92591 0.68863 0.21814 0.0
O903 O 0.90827 0.64577 0.19625 0.0
O904 O 0.88645 0.62391 0.24655 0.0
O905 O 0.85268 0.60652 0.21113 0.0
O906 O 0.86416 0.59466 0.15076 0.0
O907 O 0.89153 0.5439 0.15882 0.0
O908 O 0.8894 0.54436 0.21307 0.0
O909 O 0.93821 0.57256 0.21678 0.0
O910 O 0.95497 0.60399 0.16608 0.0
O911 O 0.98772 0.62621 0.20038 0.0
H912 H 0.02805 0.6582 0.30764 0.0
H913 H 0.01822 0.68153 0.35054 0.0
H914 H 0.90359 0.68443 0.33621 0.0
H915 H 0.91385 0.66198 0.29314 0.0
H916 H 0.81524 0.55065 0.11074 0.0
H917 H 0.81795 0.52321 0.06862 0.0
H918 H 0.93414 0.52417 0.07251 0.0
H919 H 0.93109 0.551 0.11492 0.0
Nd920 Nd 0.64177 0.69443 0.47067 0.0
Nd921 Nd 0.67998 0.64778 0.43333 0.0
C922 C 0.61801 0.72758 0.51183 0.0
C923 C 0.6181 0.72084 0.53932 0.0
C924 C 0.64275 0.69692 0.55037 0.0
C925 C 0.641 0.68924 0.57636 0.0
C926 C 0.61453 0.70533 0.59171 0.0
C927 C 0.59014 0.7295 0.58046 0.0
C928 C 0.59194 0.73715 0.55453 0.0
C929 C 0.59694 0.66597 0.43375 0.0
C930 C 0.65525 0.61027 0.48566 0.0
C931 C 0.70507 0.61279 0.39285 0.0
C932 C 0.7212 0.61818 0.36726 0.0
C933 C 0.70774 0.59907 0.34627 0.0
C934 C 0.72497 0.60079 0.32255 0.0
C935 C 0.75628 0.62162 0.31923 0.0
C936 C 0.76918 0.64133 0.34025 0.0
C937 C 0.75187 0.63973 0.36386 0.0
C938 C 0.724 0.66958 0.47257 0.0
C939 C 0.66158 0.7336 0.41867 0.0
O940 O 0.64908 0.73459 0.50131 0.0
O941 O 0.5983 0.70576 0.49828 0.0
O942 O 0.59407 0.69813 0.44289 0.0
O943 O 0.62186 0.64903 0.44493 0.0
O944 O 0.65262 0.64357 0.49376 0.0
O945 O 0.66116 0.60332 0.4613 0.0
O946 O 0.67101 0.62032 0.39602 0.0
O947 O 0.72457 0.6216 0.41254 0.0
O948 O 0.72529 0.63859 0.46155 0.0
O949 O 0.70112 0.68988 0.46161 0.0
O950 O 0.67085 0.70106 0.41088 0.0
O951 O 0.65311 0.7396 0.44256 0.0
H952 H 0.66308 0.68392 0.53888 0.0
H953 H 0.66038 0.67076 0.58443 0.0
H954 H 0.569 0.74187 0.59155 0.0
H955 H 0.57248 0.75538 0.54624 0.0
H956 H 0.68425 0.58211 0.34835 0.0
H957 H 0.71387 0.58555 0.30689 0.0
H958 H 0.79352 0.65716 0.33882 0.0
H959 H 0.76315 0.65466 0.37962 0.0
Nd960 Nd 0.4001 0.43369 0.1841 0.0
Nd961 Nd 0.44429 0.39398 0.22832 0.0
C962 C 0.3719 0.46338 0.1427 0.0
C963 C 0.37677 0.47443 0.11571 0.0
C964 C 0.35198 0.46339 0.09707 0.0
C965 C 0.35234 0.47865 0.07264 0.0
C966 C 0.37732 0.50568 0.06627 0.0
C967 C 0.40289 0.51568 0.08482 0.0
C968 C 0.40273 0.50021 0.10905 0.0
C969 C 0.4196 0.47486 0.22567 0.0
C970 C 0.48551 0.40684 0.17503 0.0
C971 C 0.47743 0.38588 0.27232 0.0
C972 C 0.4686 0.37209 0.29767 0.0
C973 C 0.48523 0.3875 0.31892 0.0
C974 C 0.47495 0.3774 0.34337 0.0
C975 C 0.44786 0.35158 0.347 0.0
C976 C 0.43163 0.33567 0.32563 0.0
C977 C 0.44174 0.34605 0.30111 0.0
C978 C 0.41138 0.34355 0.19703 0.0
C979 C 0.35596 0.40343 0.23318 0.0
O980 O 0.36675 0.42953 0.14854 0.0
O981 O 0.39064 0.48071 0.15983 0.0
O982 O 0.38923 0.47746 0.21368 0.0
O983 O 0.4391 0.45123 0.21507 0.0
O984 O 0.4542 0.41703 0.16508 0.0
O985 O 0.48985 0.40101 0.19961 0.0
O986 O 0.4603 0.41513 0.26584 0.0
O987 O 0.48006 0.36259 0.25375 0.0
O988 O 0.43069 0.3352 0.21682 0.0
O989 O 0.41018 0.37725 0.19519 0.0
O990 O 0.38729 0.39809 0.24457 0.0
O991 O 0.35289 0.41367 0.20906 0.0
H992 H 0.33142 0.44385 0.10166 0.0
H993 H 0.33252 0.46972 0.05893 0.0
H994 H 0.42218 0.53679 0.08115 0.0
H995 H 0.42207 0.50976 0.12291 0.0
H996 H 0.50575 0.40789 0.31659 0.0
H997 H 0.48819 0.38981 0.35948 0.0
H998 H 0.41048 0.31593 0.32788 0.0
H999 H 0.42814 0.33431 0.28489 0.0
Nd1000 Nd 0.34242 0.64939 0.93303 0.0
Nd1001 Nd 0.38965 0.68687 0.97012 0.0
C1002 C 0.30824 0.6203 0.89359 0.0
C1003 C 0.29748 0.62415 0.8666 0.0
C1004 C 0.28995 0.59319 0.85238 0.0
C1005 C 0.27457 0.5957 0.8281 0.0
C1006 C 0.26626 0.62932 0.81745 0.0
C1007 C 0.27565 0.66039 0.83128 0.0
C1008 C 0.29103 0.65784 0.85561 0.0
C1009 C 0.30628 0.66999 0.97647 0.0
C1010 C 0.36796 0.73384 0.92209 0.0
C1011 C 0.42177 0.71491 1.01033 0.0
C1012 C 0.42578 0.70686 0.03744 0.0
C1013 C 0.39817 0.68998 0.05111 0.0
C1014 C 0.40255 0.68282 0.07698 0.0
C1015 C 0.43473 0.69215 0.08951 0.0
C1016 C 0.46252 0.70842 0.07551 0.0
C1017 C 0.458 0.71579 0.04972 0.0
C1018 C 0.42692 0.661 0.92852 0.0
C1019 C 0.36959 0.60282 0.98127 0.0
O1020 O 0.342 0.61362 0.89894 0.0
O1021 O 0.29308 0.64178 0.91002 0.0
O1022 O 0.30143 0.63985 0.96478 0.0
O1023 O 0.3293 0.68912 0.96487 0.0
O1024 O 0.35581 0.70335 0.91233 0.0
O1025 O 0.37829 0.73574 0.94592 0.0
O1026 O 0.38972 0.72454 1.00258 0.0
O1027 O 0.43774 0.69283 0.99475 0.0
O1028 O 0.43296 0.69157 0.93943 0.0
O1029 O 0.4022 0.6443 0.9401 0.0
O1030 O 0.37998 0.63378 0.99077 0.0
O1031 O 0.35689 0.60012 0.95783 0.0
H1032 H 0.29452 0.5669 0.86052 0.0
H1033 H 0.26741 0.57117 0.81831 0.0
H1034 H 0.27018 0.68677 0.8236 0.0
H1035 H 0.2967 0.68215 0.86616 0.0
H1036 H 0.37317 0.68258 0.04185 0.0
H1037 H 0.38048 0.67059 0.08722 0.0
H1038 H 0.4879 0.7153 0.08442 0.0
H1039 H 0.47973 0.72846 0.03935 0.0
Nd1040 Nd 0.12443 0.59364 0.68364 0.0
Nd1041 Nd 0.07668 0.63378 0.72578 0.0
C1042 C 0.15463 0.56402 0.64294 0.0
C1043 C 0.14958 0.55238 0.61602 0.0
C1044 C 0.17398 0.56334 0.59717 0.0
C1045 C 0.1733 0.54781 0.5728 0.0
C1046 C 0.14837 0.52056 0.56665 0.0
C1047 C 0.12318 0.51065 0.58541 0.0
C1048 C 0.12366 0.52638 0.60958 0.0
C1049 C 0.10338 0.55309 0.72498 0.0
C1050 C 0.03888 0.61912 0.67137 0.0
C1051 C 0.04137 0.64237 0.76889 0.0
C1052 C 0.04958 0.65495 0.79474 0.0
C1053 C 0.02945 0.64164 0.81514 0.0
C1054 C 0.03869 0.65057 0.84009 0.0
C1055 C 0.06823 0.67309 0.84511 0.0
C1056 C 0.08805 0.6869 0.82456 0.0
C1057 C 0.07894 0.67769 0.79956 0.0
C1058 C 0.11111 0.68388 0.69505 0.0
C1059 C 0.16474 0.62529 0.73413 0.0
O1060 O 0.15829 0.59819 0.64843 0.0
O1061 O 0.1368 0.54631 0.66028 0.0
O1062 O 0.13433 0.55056 0.71383 0.0
O1063 O 0.08398 0.57618 0.71358 0.0
O1064 O 0.07075 0.60802 0.66295 0.0
O1065 O 0.03296 0.62659 0.69556 0.0
O1066 O 0.05713 0.6124 0.76239 0.0
O1067 O 0.04116 0.66629 0.75064 0.0
O1068 O 0.09037 0.69242 0.71401 0.0
O1069 O 0.11283 0.65015 0.6937 0.0
O1070 O 0.13244 0.63033 0.74406 0.0
O1071 O 0.16975 0.6147 0.71022 0.0
H1072 H 0.19447 0.58308 0.60155 0.0
H1073 H 0.19283 0.55676 0.55895 0.0
H1074 H 0.10393 0.48941 0.58197 0.0
H1075 H 0.10457 0.51693 0.62358 0.0
H1076 H 1.00692 0.62378 0.81178 0.0
H1077 H 0.02269 0.63983 0.85549 0.0
H1078 H 0.11115 0.70401 0.82785 0.0
H1079 H 0.0952 0.68774 0.78405 0.0
Nd1080 Nd 0.18475 0.37388 0.43414 0.0
Nd1081 Nd 0.14106 0.33423 0.47837 0.0
C1082 C 0.21346 0.40178 0.39239 0.0
C1083 C 0.2259 0.39518 0.36592 0.0
C1084 C 0.21123 0.41489 0.34562 0.0
C1085 C 0.2267 0.41333 0.3213 0.0
C1086 C 0.25749 0.39222 0.3167 0.0
C1087 C 0.27129 0.37161 0.33695 0.0
C1088 C 0.25569 0.37295 0.3611 0.0
C1089 C 0.22434 0.35219 0.47588 0.0
C1090 C 0.1551 0.28957 0.42614 0.0
C1091 C 0.12985 0.29983 0.52137 0.0
C1092 C 0.11609 0.30791 0.54676 0.0
C1093 C 0.13023 0.28926 0.56757 0.0
C1094 C 0.12038 0.29873 0.5922 0.0
C1095 C 0.09612 0.327 0.59638 0.0
C1096 C 0.08127 0.34516 0.57545 0.0
C1097 C 0.09142 0.33584 0.55075 0.0
C1098 C 0.09339 0.36852 0.44579 0.0
C1099 C 0.15649 0.42075 0.48336 0.0
O1100 O 0.17887 0.40341 0.39727 0.0
O1101 O 0.23202 0.38704 0.41077 0.0
O1102 O 0.22977 0.38174 0.4635 0.0
O1103 O 0.19894 0.33464 0.46549 0.0
O1104 O 0.17127 0.31811 0.41615 0.0
O1105 O 0.14382 0.2885 0.44988 0.0
O1106 O 0.16038 0.31538 0.51571 0.0
O1107 O 0.10665 0.29984 0.50257 0.0
O1108 O 0.08341 0.35126 0.46607 0.0
O1109 O 0.12728 0.36781 0.44442 0.0
O1110 O 0.14836 0.39036 0.4949 0.0
O1111 O 0.1675 0.42237 0.4593 0.0
H1112 H 0.1885 0.43252 0.34876 0.0
H1113 H 0.21488 0.42924 0.30625 0.0
H1114 H 0.29532 0.35556 0.3346 0.0
H1115 H 0.26805 0.35763 0.37625 0.0
H1116 H 0.14952 0.26783 0.56477 0.0
H1117 H 0.13189 0.28407 0.60801 0.0
H1118 H 0.06273 0.36722 0.57821 0.0
H1119 H 0.08067 0.3509 0.53486 0.0
Nd1120 Nd 0.39267 0.59712 0.35916 0.0
Nd1121 Nd 0.4377 0.632 0.31935 0.0
C1122 C 0.36004 0.57795 0.40216 0.0
C1123 C 0.36561 0.55657 0.42564 0.0
C1124 C 0.35262 0.56949 0.44898 0.0
C1125 C 0.35465 0.54837 0.47103 0.0
C1126 C 0.36951 0.51371 0.47015 0.0
C1127 C 0.38378 0.50146 0.4469 0.0
C1128 C 0.38189 0.52261 0.42494 0.0
C1129 C 0.41489 0.54913 0.32253 0.0
C1130 C 0.47953 0.61537 0.37065 0.0
C1131 C 0.47059 0.65351 0.2775 0.0
C1132 C 0.46302 0.65787 0.25012 0.0
C1133 C 0.4663 0.62889 0.23319 0.0
C1134 C 0.46071 0.63389 0.20716 0.0
C1135 C 0.45185 0.66796 0.19756 0.0
C1136 C 0.4481 0.69673 0.21459 0.0
C1137 C 0.45384 0.69179 0.24053 0.0
C1138 C 0.40968 0.6793 0.35473 0.0
C1139 C 0.35296 0.61851 0.30662 0.0
O1140 O 0.37857 0.60746 0.3997 0.0
O1141 O 0.35686 0.56054 0.38074 0.0
O1142 O 0.385 0.5471 0.335 0.0
O1143 O 0.43454 0.57404 0.33162 0.0
O1144 O 0.4472 0.60815 0.37991 0.0
O1145 O 0.4843 0.62062 0.34622 0.0
O1146 O 0.47308 0.62088 0.28642 0.0
O1147 O 0.45384 0.67519 0.29296 0.0
O1148 O 0.44204 0.68111 0.34562 0.0
O1149 O 0.39251 0.65366 0.34468 0.0
O1150 O 0.38584 0.62039 0.29748 0.0
O1151 O 0.34722 0.61485 0.33137 0.0
H1152 H 0.33997 0.59562 0.45001 0.0
H1153 H 0.34324 0.5586 0.4885 0.0
H1154 H 0.39596 0.47514 0.44558 0.0
H1155 H 0.39246 0.51204 0.4073 0.0
H1156 H 0.47365 0.60245 0.23994 0.0
H1157 H 0.46423 0.61126 0.19452 0.0
H1158 H 0.44075 0.72319 0.20788 0.0
H1159 H 0.45134 0.71469 0.25306 0.0
Nd1160 Nd 0.1778 0.64447 0.10695 0.0
Nd1161 Nd 0.14194 0.69274 0.07 0.0
C1162 C 0.199 0.60949 0.14858 0.0
C1163 C 0.21837 0.61507 0.17313 0.0
C1164 C 0.20154 0.60644 0.19625 0.0
C1165 C 0.2203 0.6091 0.21941 0.0
C1166 C 0.25649 0.62041 0.22006 0.0
C1167 C 0.27313 0.62919 0.1968 0.0
C1168 C 0.25437 0.62667 0.17374 0.0
C1169 C 0.22425 0.66591 0.06915 0.0
C1170 C 0.16445 0.73135 0.12139 0.0
C1171 C 0.11699 0.72719 0.02953 0.0
C1172 C 0.1137 0.72073 1.00207 0.0
C1173 C 0.13101 0.69154 0.99053 0.0
C1174 C 0.12557 0.68429 0.96473 0.0
C1175 C 0.10299 0.70634 0.94997 0.0
C1176 C 0.0864 0.73605 0.96154 0.0
C1177 C 0.09162 0.74306 0.98738 0.0
C1178 C 0.09689 0.66558 0.10704 0.0
C1179 C 0.15346 0.60857 0.05422 0.0
O1180 O 0.16695 0.6235 0.14599 0.0
O1181 O 0.21778 0.61137 0.12768 0.0
O1182 O 0.22486 0.63502 0.08033 0.0
O1183 O 0.20118 0.68657 0.07952 0.0
O1184 O 0.17194 0.69838 0.12921 0.0
O1185 O 0.15635 0.7377 0.09749 0.0
O1186 O 0.14953 0.73157 0.03851 0.0
O1187 O 0.09709 0.70692 0.04405 0.0
O1188 O 0.09737 0.6989 0.10003 0.0
O1189 O 0.11984 0.64749 0.09482 0.0
O1190 O 0.15177 0.64208 0.04648 0.0
O1191 O 0.15835 0.60093 0.07857 0.0
H1192 H 0.1739 0.59717 0.19639 0.0
H1193 H 0.20636 0.60238 0.23681 0.0
H1194 H 0.30112 0.63724 0.19622 0.0
H1195 H 0.2684 0.63325 0.15635 0.0
H1196 H 0.14839 0.67414 1.00151 0.0
H1197 H 0.13901 0.66143 0.95633 0.0
H1198 H 0.06855 0.75329 0.95077 0.0
H1199 H 0.07792 0.76562 0.99601 0.0
Nd1200 Nd 0.13081 0.42755 0.857 0.0
Nd1201 Nd 0.08214 0.39357 0.82004 0.0
C1202 C 0.16607 0.44864 0.89866 0.0
C1203 C 0.16081 0.47026 0.92226 0.0
C1204 C 0.15963 0.4535 0.94621 0.0
C1205 C 0.15668 0.47383 0.96863 0.0
C1206 C 0.15492 0.51154 0.9677 0.0
C1207 C 0.15631 0.52818 0.94367 0.0
C1208 C 0.15918 0.50792 0.92135 0.0
C1209 C 0.10898 0.47531 0.81994 0.0
C1210 C 0.04406 0.41406 0.87145 0.0
C1211 C 0.04524 0.3699 0.78036 0.0
C1212 C 0.04976 0.36877 0.75278 0.0
C1213 C 0.07624 0.3896 0.74088 0.0
C1214 C 0.08237 0.38598 0.71486 0.0
C1215 C 0.06196 0.3616 0.70039 0.0
C1216 C 0.03468 0.34166 0.71231 0.0
C1217 C 0.02873 0.34516 0.73836 0.0
C1218 C 0.10923 0.34705 0.85633 0.0
C1219 C 0.16597 0.40435 0.80384 0.0
O1220 O 0.14938 0.4179 0.89683 0.0
O1221 O 0.16697 0.46567 0.87702 0.0
O1222 O 0.14009 0.47536 0.831 0.0
O1223 O 0.08837 0.45218 0.83019 0.0
O1224 O 0.07738 0.41909 0.87971 0.0
O1225 O 0.03755 0.40923 0.84721 0.0
O1226 O 0.0405 0.40157 0.79042 0.0
O1227 O 0.0675 0.34998 0.79339 0.0
O1228 O 0.0757 0.34849 0.84956 0.0
O1229 O 0.12763 0.37004 0.84441 0.0
O1230 O 0.13224 0.40472 0.79612 0.0
O1231 O 0.17371 0.40706 0.82839 0.0
H1232 H 0.16125 0.42457 0.94764 0.0
H1233 H 0.15548 0.45994 0.98666 0.0
H1234 H 0.15587 0.55712 0.94202 0.0
H1235 H 0.16056 0.52195 0.90337 0.0
H1236 H 0.09258 0.40812 0.75178 0.0
H1237 H 0.10333 0.40192 0.70611 0.0
H1238 H 0.01885 0.32238 0.70169 0.0
H1239 H 1.00828 0.32882 0.74735 0.0
Nd1240 Nd 0.34789 0.37844 0.60877 0.0
Nd1241 Nd 0.38095 0.32962 0.57084 0.0
C1242 C 0.32898 0.41428 0.65059 0.0
C1243 C 0.31032 0.40855 0.67515 0.0
C1244 C 0.31167 0.4352 0.69398 0.0
C1245 C 0.29147 0.43188 0.71638 0.0
C1246 C 0.26926 0.40182 0.72044 0.0
C1247 C 0.26906 0.37453 0.70185 0.0
C1248 C 0.28933 0.37786 0.67948 0.0
C1249 C 0.29897 0.35678 0.57237 0.0
C1250 C 0.36051 0.29154 0.62234 0.0
C1251 C 0.40451 0.29439 0.53043 0.0
C1252 C 0.40543 0.29958 0.50282 0.0
C1253 C 0.38327 0.32508 0.49103 0.0
C1254 C 0.38699 0.33226 0.4651 0.0
C1255 C 0.41272 0.31375 0.45055 0.0
C1256 C 0.43399 0.28735 0.46234 0.0
C1257 C 0.43046 0.28045 0.48829 0.0
C1258 C 0.42839 0.35612 0.60682 0.0
C1259 C 0.36662 0.41281 0.55472 0.0
O1260 O 0.36051 0.39939 0.64755 0.0
O1261 O 0.30918 0.41216 0.63015 0.0
O1262 O 0.2989 0.38762 0.58364 0.0
O1263 O 0.32271 0.33634 0.58217 0.0
O1264 O 0.35585 0.32468 0.63081 0.0
O1265 O 0.36521 0.28516 0.59805 0.0
O1266 O 0.37294 0.28888 0.54065 0.0
O1267 O 0.42439 0.31646 0.54365 0.0
O1268 O 0.42674 0.32282 0.59992 0.0
O1269 O 0.40511 0.37466 0.59517 0.0
O1270 O 0.36655 0.37908 0.54738 0.0
O1271 O 0.36636 0.42096 0.57925 0.0
H1272 H 0.32761 0.45917 0.69103 0.0
H1273 H 0.29213 0.4536 0.73002 0.0
H1274 H 0.25276 0.35073 0.70439 0.0
H1275 H 0.28795 0.35685 0.6653 0.0
H1276 H 0.3636 0.33984 0.50197 0.0
H1277 H 0.36999 0.3525 0.45648 0.0
H1278 H 0.45431 0.27295 0.45171 0.0
H1279 H 0.44789 0.26078 0.49716 0.0
C1280 C 0.23157 0.10217 0.29295 0.0
C1281 C 0.19955 0.12212 0.29123 0.0
H1282 H 0.28062 0.08626 0.27438 0.0
C1283 C 0.1941 0.14391 0.26976 0.0
H1284 H 0.23638 0.08488 0.30913 0.0
C1285 C 0.2193 0.14496 0.25014 0.0
C1286 C 0.25064 0.1239 0.25116 0.0
H1287 H 0.16971 0.15962 0.26778 0.0
H1288 H 0.21332 0.16111 0.23356 0.0
C1289 C 0.25673 0.10278 0.27297 0.0
C1290 C 0.1265 0.96709 0.49974 0.0
C1291 C 0.15049 0.99626 0.49922 0.0
H1292 H 0.10837 0.92029 0.51935 0.0
C1293 C 0.17331 1.00154 0.52039 0.0
H1294 H 0.10881 0.96172 0.48382 0.0
C1295 C 0.17305 0.97744 0.54098 0.0
C1296 C 0.15029 0.94734 0.54067 0.0
H1297 H 0.19194 0.02387 0.52079 0.0
H1298 H 0.19188 0.98136 0.55647 0.0
C1299 C 0.12648 0.94303 0.52009 0.0
C1300 C 0.32448 0.94746 0.77236 0.0
C1301 C 0.32229 0.922 0.79194 0.0
H1302 H 0.304 0.96598 0.73676 0.0
C1303 C 0.29452 0.89643 0.79116 0.0
H1304 H 0.34598 0.96713 0.77228 0.0
C1305 C 0.27059 0.89529 0.77037 0.0
C1306 C 0.27366 0.92008 0.75024 0.0
H1307 H 0.29271 0.87604 0.80574 0.0
H1308 H 0.25027 0.87447 0.76971 0.0
C1309 C 0.30036 0.94675 0.75195 0.0
C1310 C 0.35987 0.02494 1.02158 0.0
C1311 C 0.37844 0.03302 0.99885 0.0
H1312 H 0.34385 0.04289 0.05886 0.0
C1313 C 0.39731 0.06563 0.99764 0.0
H1314 H 0.34527 0.99995 0.0234 0.0
C1315 C 0.39665 0.08986 1.0179 0.0
C1316 C 0.37716 0.08251 0.04026 0.0
H1317 H 0.41148 0.07333 0.98054 0.0
H1318 H 0.41075 0.1151 1.01567 0.0
C1319 C 0.35937 0.04934 0.04209 0.0
C1320 C 0.23662 0.87032 0.28373 0.0
C1321 C 0.25274 0.9022 0.29252 0.0
H1322 H 0.19974 0.84603 0.25752 0.0
C1323 C 0.2481 0.93355 0.27779 0.0
H1324 H 0.24023 0.84536 0.29391 0.0
C1325 C 0.22577 0.93347 0.25614 0.0
C1326 C 0.20733 0.9022 0.24892 0.0
H1327 H 0.25973 0.95875 0.28386 0.0
H1328 H 0.22055 0.95852 0.2464 0.0
C1329 C 0.2139 0.87046 0.2625 0.0
C1330 C 0.35747 0.97596 0.50625 0.0
C1331 C 0.38183 0.94755 0.50301 0.0
H1332 H 0.33884 0.018 0.53083 0.0
C1333 C 0.40931 0.9428 0.52107 0.0
H1334 H 0.33565 0.97982 0.49286 0.0
C1335 C 0.41144 0.96464 0.54256 0.0
C1336 C 0.38569 0.99156 0.54697 0.0
H1337 H 0.42852 0.92113 0.51906 0.0
H1338 H 0.43276 0.9596 0.55615 0.0
C1339 C 0.3593 0.99771 0.5281 0.0
C1340 C 0.28129 0.09164 0.7796 0.0
C1341 C 0.27291 0.12474 0.79121 0.0
H1342 H 0.31299 0.06402 0.75159 0.0
C1343 C 0.28732 0.15621 0.78043 0.0
H1344 H 0.27129 0.0667 0.78737 0.0
C1345 C 0.31174 0.15441 0.76027 0.0
C1346 C 0.32148 0.12128 0.74975 0.0
H1347 H 0.28094 0.1823 0.78822 0.0
H1348 H 0.32432 0.17889 0.75362 0.0
C1349 C 0.30519 0.08998 0.759 0.0
C1350 C 0.17402 0.01994 1.02178 0.0
C1351 C 0.1476 0.02226 0.04101 0.0
H1352 H 0.1966 0.04366 0.98798 0.0
C1353 C 0.12108 0.04898 0.03871 0.0
H1354 H 0.19474 0.99958 0.02273 0.0
C1355 C 0.12212 0.07381 1.01885 0.0
C1356 C 0.1495 0.07274 1.00046 0.0
H1357 H 0.10062 0.05227 0.05314 0.0
H1358 H 0.10231 0.09514 1.0186 0.0
C1359 C 0.17486 0.04486 1.00163 0.0
C1360 C 0.81886 0.8759 0.76809 0.0
C1361 C 0.81977 0.90453 0.75072 0.0
H1362 H 0.79634 0.85398 0.80194 0.0
C1363 C 0.79409 0.93195 0.75314 0.0
H1364 H 0.83862 0.85459 0.76692 0.0
C1365 C 0.76959 0.93176 0.77357 0.0
C1366 C 0.77017 0.90405 0.7919 0.0
H1367 H 0.79457 0.95468 0.74035 0.0
H1368 H 0.75108 0.954 0.7755 0.0
C1369 C 0.79443 0.87556 0.78826 0.0
C1370 C 0.90997 0.07656 0.51577 0.0
C1371 C 0.87952 0.07713 0.49992 0.0
H1372 H 0.93564 0.05439 0.54851 0.0
C1373 C 0.85149 0.0528 0.50476 0.0
H1374 H 0.93195 0.09512 0.51255 0.0
C1375 C 0.85293 0.0301 0.52612 0.0
C1376 C 0.88266 0.03096 0.54292 0.0
H1377 H 0.82737 0.05319 0.49317 0.0
H1378 H 0.82979 0.01346 0.53021 0.0
C1379 C 0.91176 0.05352 0.5367 0.0
C1380 C 0.70442 0.08181 0.26769 0.0
C1381 C 0.70394 0.10878 0.24909 0.0
H1382 H 0.72733 0.06242 0.30228 0.0
C1383 C 0.72951 0.13647 0.25053 0.0
H1384 H 0.68459 0.0605 0.26727 0.0
C1385 C 0.75392 0.13799 0.27103 0.0
C1386 C 0.75349 0.11156 0.29022 0.0
H1387 H 0.72919 0.15799 0.23673 0.0
H1388 H 0.77246 0.16034 0.27224 0.0
C1389 C 0.729 0.08296 0.2878 0.0
C1390 C 0.66468 0.97264 1.00124 0.0
C1391 C 0.65552 0.93656 1.0055 0.0
H1392 H 0.6716 0.02507 1.01753 0.0
C1393 C 0.64528 0.92624 0.03021 0.0
H1394 H 0.67274 0.98152 0.98252 0.0
C1395 C 0.64476 0.95091 0.05014 0.0
C1396 C 0.65442 0.98687 0.04615 0.0
H1397 H 0.63799 0.89876 0.0344 0.0
H1398 H 0.63764 0.94142 0.06891 0.0
C1399 C 0.66426 0.99751 1.02137 0.0
C1400 C 0.79806 0.10162 0.79051 0.0
C1401 C 0.82774 0.125 0.79063 0.0
H1402 H 0.75204 0.08211 0.76981 0.0
C1403 C 0.83155 0.14924 0.77034 0.0
H1404 H 0.79468 0.08227 0.80566 0.0
C1405 C 0.80749 0.14913 0.74988 0.0
C1406 C 0.7788 0.12455 0.74887 0.0
H1407 H 0.85421 0.16752 0.76977 0.0
H1408 H 0.81267 0.16714 0.73418 0.0
C1409 C 0.77395 0.10126 0.76977 0.0
C1410 C 0.62074 0.07653 0.52385 0.0
C1411 C 0.65111 0.07544 0.53975 0.0
H1412 H 0.5944 0.05652 0.49068 0.0
C1413 C 0.67841 0.05053 0.53437 0.0
H1414 H 0.59932 0.09557 0.52748 0.0
C1415 C 0.67623 0.0287 0.51255 0.0
C1416 C 0.64653 0.03114 0.4958 0.0
H1417 H 0.70247 0.04964 0.54601 0.0
H1418 H 0.69876 1.01141 0.50812 0.0
C1419 C 0.61822 0.05442 0.50246 0.0
C1420 C 0.75382 0.928 0.26556 0.0
C1421 C 0.75328 0.90032 0.2472 0.0
H1422 H 0.72916 0.95051 0.29903 0.0
C1423 C 0.7293 0.87162 0.2509 0.0
H1424 H 0.7721 0.95042 0.26354 0.0
C1425 C 0.70516 0.87163 0.27123 0.0
C1426 C 0.70426 0.90014 0.28871 0.0
H1427 H 0.72745 0.85006 0.23718 0.0
H1428 H 0.68567 0.85007 0.27249 0.0
C1429 C 0.72963 0.92784 0.28617 0.0
C1430 C 0.85888 0.99228 1.01739 0.0
C1431 C 0.87723 0.98387 0.99468 0.0
H1432 H 0.84379 0.97511 0.05497 0.0
C1433 C 0.89717 0.95185 0.99386 0.0
H1434 H 0.84301 0.01654 1.01877 0.0
C1435 C 0.89741 0.92823 1.01446 0.0
C1436 C 0.878 0.93585 0.03675 0.0
H1437 H 0.91243 0.94469 0.97711 0.0
H1438 H 0.91239 0.90344 1.01265 0.0
C1439 C 0.85933 0.96857 0.03822 0.0
C1440 C 0.70676 0.64556 0.77473 0.0
C1441 C 0.70821 0.61721 0.79226 0.0
H1442 H 0.72736 0.66857 0.74062 0.0
C1443 C 0.73538 0.59131 0.78971 0.0
H1444 H 0.68575 0.66563 0.77606 0.0
C1445 C 0.75932 0.59274 0.76902 0.0
C1446 C 0.75671 0.62033 0.75072 0.0
H1447 H 0.73662 0.5688 0.80268 0.0
H1448 H 0.77906 0.57161 0.76687 0.0
C1449 C 0.73076 0.64726 0.75439 0.0
C1450 C 0.6427 0.45288 0.99354 0.0
C1451 C 0.6525 0.48887 0.99706 0.0
H1452 H 0.6366 0.4011 1.00955 0.0
C1453 C 0.66296 0.49986 1.02171 0.0
H1454 H 0.63539 0.44293 0.9749 0.0
C1455 C 0.66363 0.4753 0.04215 0.0
C1456 C 0.65411 0.43916 0.03832 0.0
H1457 H 0.67065 0.52743 0.02521 0.0
H1458 H 0.67217 0.48444 0.06073 0.0
C1459 C 0.64355 0.42862 1.01368 0.0
C1460 C 0.80643 0.37494 0.25211 0.0
C1461 C 0.77861 0.40038 0.25018 0.0
H1462 H 0.85247 0.35644 0.27275 0.0
C1463 C 0.77445 0.42519 0.27027 0.0
H1464 H 0.81106 0.35575 0.23704 0.0
C1465 C 0.79846 0.42543 0.29107 0.0
C1466 C 0.82732 0.40113 0.29205 0.0
H1467 H 0.75322 0.44505 0.2696 0.0
H1468 H 0.79572 0.44592 0.30552 0.0
C1469 C 0.8304 0.37542 0.27263 0.0
C1470 C 0.90219 0.59046 0.51935 0.0
C1471 C 0.87714 0.5868 0.53917 0.0
H1472 H 0.9221 0.57064 0.48399 0.0
C1473 C 0.85338 0.55748 0.53862 0.0
H1474 H 0.9211 0.61258 0.51928 0.0
C1475 C 0.85344 0.53356 0.51791 0.0
C1476 C 0.87744 0.53831 0.49741 0.0
H1477 H 0.83342 0.55422 0.5534 0.0
H1478 H 0.83355 0.51235 0.51747 0.0
C1479 C 0.90251 0.56653 0.49891 0.0
C1480 C 0.73128 0.42554 0.753 0.0
C1481 C 0.70557 0.39804 0.75106 0.0
H1482 H 0.77408 0.44868 0.77517 0.0
C1483 C 0.70624 0.37032 0.76917 0.0
H1484 H 0.73105 0.44759 0.73961 0.0
C1485 C 0.73046 0.37097 0.78952 0.0
C1486 C 0.75477 0.39956 0.7926 0.0
H1487 H 0.68656 0.34889 0.76835 0.0
H1488 H 0.72843 0.35007 0.80371 0.0
C1489 C 0.75555 0.42638 0.77363 0.0
C1490 C 0.85312 0.50238 0.02346 0.0
C1491 C 0.87777 0.4981 0.0437 0.0
H1492 H 0.83215 0.48096 0.98836 0.0
C1493 C 0.90232 0.46946 0.04249 0.0
H1494 H 0.83395 0.52424 0.02363 0.0
C1495 C 0.90124 0.44498 0.02242 0.0
C1496 C 0.87573 0.44829 1.00279 0.0
H1497 H 0.92136 0.46477 0.05773 0.0
H1498 H 0.91988 0.42265 0.02268 0.0
C1499 C 0.85228 0.47784 1.0031 0.0
C1500 C 0.8031 0.58951 0.25851 0.0
C1501 C 0.82337 0.61986 0.25187 0.0
H1502 H 0.76652 0.56588 0.28517 0.0
C1503 C 0.81844 0.65163 0.26575 0.0
H1504 H 0.80716 0.56439 0.24858 0.0
C1505 C 0.79506 0.65273 0.28654 0.0
C1506 C 0.77653 0.62177 0.29451 0.0
H1507 H 0.83411 0.67529 0.26124 0.0
H1508 H 0.79259 0.67765 0.29694 0.0
C1509 C 0.77996 0.59041 0.27964 0.0
C1510 C 0.66607 0.52291 0.52324 0.0
C1511 C 0.6478 0.53137 0.54597 0.0
H1512 H 0.68227 0.54068 0.48594 0.0
C1513 C 0.63064 0.56486 0.54766 0.0
H1514 H 0.67956 0.49733 0.52124 0.0
C1515 C 0.6324 0.58946 0.5277 0.0
C1516 C 0.65113 0.58149 0.50516 0.0
H1517 H 0.61686 0.57277 0.56488 0.0
H1518 H 0.61942 0.61523 0.5302 0.0
C1519 C 0.66744 0.5476 0.50293 0.0
C1520 C 0.29602 0.36317 0.28292 0.0
C1521 C 0.27692 0.39335 0.29169 0.0
H1522 H 0.33588 0.34285 0.25728 0.0
C1523 C 0.2796 0.42545 0.27758 0.0
H1524 H 0.29405 0.33768 0.29265 0.0
C1525 C 0.30271 0.42788 0.25654 0.0
C1526 C 0.32388 0.39843 0.24935 0.0
H1527 H 0.26574 0.44945 0.28371 0.0
H1528 H 0.30616 0.45353 0.24721 0.0
C1529 C 0.31958 0.36586 0.26232 0.0
C1530 C 0.34234 0.5326 0.02928 0.0
C1531 C 0.3756 0.52521 0.04127 0.0
H1532 H 0.31443 0.56239 1.00025 0.0
C1533 C 0.40705 0.53949 0.03026 0.0
H1534 H 0.3174 0.52265 0.03718 0.0
C1535 C 0.40509 0.56272 1.00942 0.0
C1536 C 0.37182 0.57146 0.99841 0.0
H1537 H 0.43329 0.53383 0.03828 0.0
H1538 H 0.42959 0.57512 1.00254 0.0
C1539 C 0.34053 0.55534 1.008 0.0
C1540 C 0.2248 0.60676 0.75262 0.0
C1541 C 0.19539 0.63041 0.75196 0.0
H1542 H 0.27059 0.58784 0.77377 0.0
C1543 C 0.19203 0.65598 0.77146 0.0
H1544 H 0.22785 0.58648 0.73805 0.0
C1545 C 0.21615 0.65672 0.79185 0.0
C1546 C 0.24438 0.63173 0.79352 0.0
H1547 H 0.16958 0.67453 0.77158 0.0
H1548 H 0.21125 0.67563 0.80706 0.0
C1549 C 0.24897 0.60729 0.77328 0.0
C1550 C 0.18295 0.49379 0.52944 0.0
C1551 C 0.14986 0.5007 0.5417 0.0
H1552 H 0.21086 0.46388 0.50056 0.0
C1553 C 0.11847 0.48555 0.53105 0.0
H1554 H 0.20788 0.50441 0.53699 0.0
C1555 C 0.12046 0.46182 0.51045 0.0
C1556 C 0.15367 0.4534 0.49929 0.0
H1557 H 0.09229 0.4908 0.53923 0.0
H1558 H 0.09611 0.44859 0.50402 0.0
C1559 C 0.18477 0.47056 0.5084 0.0
C1560 C 0.30374 0.64921 0.24789 0.0
C1561 C 0.27736 0.62252 0.24454 0.0
H1562 H 0.34771 0.66885 0.27024 0.0
C1563 C 0.27287 0.59699 0.26413 0.0
H1564 H 0.30753 0.66997 0.23378 0.0
C1565 C 0.29557 0.59703 0.28565 0.0
C1566 C 0.32331 0.62244 0.28788 0.0
H1567 H 0.25307 0.57585 0.26229 0.0
H1568 H 0.29289 0.57592 0.29964 0.0
C1569 C 0.32654 0.64891 0.26904 0.0
C1570 C 0.17032 0.52498 1.014 0.0
C1571 C 0.15174 0.5338 0.9914 0.0
H1572 H 0.18532 0.54138 0.05189 0.0
C1573 C 0.13095 0.56531 0.99118 0.0
H1574 H 0.18674 0.50103 1.01494 0.0
C1575 C 0.13038 0.58826 1.01214 0.0
C1576 C 0.15024 0.58044 0.03425 0.0
H1577 H 0.11539 0.57269 0.97457 0.0
H1578 H 0.11482 0.61275 1.0108 0.0
C1579 C 0.1695 0.54803 0.03525 0.0
C1580 C 0.25459 0.41255 0.76717 0.0
C1581 C 0.2443 0.40021 0.74283 0.0
H1582 H 0.23838 0.42307 0.80579 0.0
C1583 C 0.20891 0.38767 0.73957 0.0
H1584 H 0.28169 0.4222 0.77047 0.0
C1585 C 0.18439 0.38818 0.75965 0.0
C1586 C 0.19424 0.40115 0.78382 0.0
H1587 H 0.19961 0.37848 0.72118 0.0
H1588 H 0.15728 0.37877 0.75601 0.0
C1589 C 0.22989 0.4128 0.7875 0.0
C1590 C 0.35651 0.42948 0.5094 0.0
C1591 C 0.36567 0.44043 0.5342 0.0
H1592 H 0.35033 0.44352 0.47035 0.0
C1593 C 0.37476 0.47663 0.53817 0.0
H1594 H 0.34835 0.40218 0.5055 0.0
C1595 C 0.37573 0.50083 0.51756 0.0
C1596 C 0.36782 0.48918 0.49263 0.0
H1597 H 0.38183 0.48603 0.55699 0.0
H1598 H 0.38348 0.5284 0.52102 0.0
C1599 C 0.35769 0.4533 0.48903 0.0
C1600 C 0.16736 0.24645 0.38975 0.0
C1601 C 0.14535 0.25844 0.40976 0.0
H1602 H 0.17377 0.20863 0.35908 0.0
C1603 C 0.11241 0.24078 0.41401 0.0
H1604 H 0.19285 0.2595 0.386 0.0
C1605 C 0.10118 0.21264 0.39834 0.0
C1606 C 0.12304 0.20053 0.37845 0.0
H1607 H 0.09461 0.24947 0.42908 0.0
H1608 H 0.07519 0.20035 0.40175 0.0
C1609 C 0.15656 0.21726 0.37449 0.0
C1610 C 0.05939 0.85238 0.64987 0.0
C1611 C 0.07145 0.87336 0.6295 0.0
H1612 H 0.02324 0.84752 0.68124 0.0
C1613 C 0.05537 0.90708 0.62538 0.0
H1614 H 0.07121 0.82629 0.65344 0.0
C1615 C 0.02683 0.91891 0.6409 0.0
C1616 C 0.01491 0.89782 0.66138 0.0
H1617 H 0.06398 0.92366 0.60963 0.0
H1618 H 0.01418 0.94447 0.63693 0.0
C1619 C 0.03196 0.86467 0.66582 0.0
C1620 C 0.41388 0.81653 0.89552 0.0
C1621 C 0.39486 0.82281 0.87296 0.0
H1622 H 0.41965 0.78437 0.92884 0.0
C1623 C 0.36535 0.80069 0.86696 0.0
H1624 H 0.43701 0.83291 0.90037 0.0
C1625 C 0.35595 0.77184 0.88293 0.0
C1626 C 0.37527 0.76542 0.90551 0.0
H1627 H 0.35066 0.80468 0.84939 0.0
H1628 H 0.33392 0.75439 0.8775 0.0
C1629 C 0.40386 0.78865 0.91179 0.0
C1630 C 0.49486 0.14611 0.1114 0.0
C1631 C 0.45933 0.1506 0.1199 0.0
H1632 H 0.549 0.13133 0.12047 0.0
C1633 C 0.45128 0.1418 0.14525 0.0
H1634 H 0.50196 0.15266 0.092 0.0
C1635 C 0.47866 0.13019 0.16196 0.0
C1636 C 0.51445 0.12624 0.15346 0.0
H1637 H 0.42419 0.14526 0.15241 0.0
H1638 H 0.47191 0.12481 0.18158 0.0
C1639 C 0.52187 0.1337 0.12779 0.0
C1640 C 0.14406 0.82293 0.15094 0.0
C1641 C 0.1385 0.81371 0.17652 0.0
H1642 H 0.1566 0.80422 0.11334 0.0
C1643 C 0.14521 0.77816 0.18408 0.0
H1644 H 0.13893 0.85003 0.14449 0.0
C1645 C 0.15588 0.7521 0.16645 0.0
C1646 C 0.15953 0.76062 0.14056 0.0
H1647 H 0.14125 0.77017 0.20366 0.0
H1648 H 0.15951 0.72481 0.17301 0.0
C1649 C 0.15415 0.7966 0.13311 0.0
C1650 C 0.49799 0.91727 0.39961 0.0
C1651 C 0.51085 0.89429 0.38045 0.0
H1652 H 0.46009 0.92444 0.43022 0.0
C1653 C 0.49486 0.86029 0.37778 0.0
H1654 H 0.50981 0.94357 0.40218 0.0
C1655 C 0.46751 0.84905 0.39416 0.0
C1656 C 0.45435 0.87189 0.41316 0.0
H1657 H 0.50435 0.84174 0.36344 0.0
H1658 H 0.4567 0.82224 0.39201 0.0
C1659 C 0.46946 0.9064 0.41554 0.0
C1660 C 0.36323 0.22586 0.63375 0.0
C1661 C 0.36803 0.26207 0.64064 0.0
H1662 H 0.37295 0.17057 0.64337 0.0
C1663 C 0.38523 0.26984 0.66379 0.0
H1664 H 0.35034 0.219 0.61593 0.0
C1665 C 0.39919 0.24227 0.67893 0.0
C1666 C 0.39532 0.20618 0.67171 0.0
H1667 H 0.38984 0.29736 0.66954 0.0
H1668 H 0.41365 0.24925 0.69612 0.0
C1669 C 0.37622 0.19813 0.64939 0.0
C1670 C 0.07559 0.13863 0.90138 0.0
C1671 C 0.06677 0.14352 0.9271 0.0
H1672 H 0.05631 0.12623 0.86382 0.0
C1673 C 0.03135 0.1363 0.93491 0.0
H1674 H 0.10257 0.1443 0.89475 0.0
C1675 C 1.00509 0.1253 0.91741 0.0
C1676 C 1.01324 0.122 0.89141 0.0
H1677 H 0.0237 0.13984 0.9546 0.0
H1678 H 0.97791 0.12095 0.92417 0.0
C1679 C 0.04901 0.12839 0.88366 0.0
C1680 C 0.88506 0.82927 0.65431 0.0
C1681 C 0.89058 0.81986 0.67987 0.0
H1682 H 0.87254 0.81109 0.61658 0.0
C1683 C 0.88473 0.78405 0.68714 0.0
H1684 H 0.88974 0.85651 0.64805 0.0
C1685 C 0.87444 0.75806 0.66925 0.0
C1686 C 0.87039 0.76699 0.64342 0.0
H1687 H 0.8888 0.7759 0.70668 0.0
H1688 H 0.87107 0.73064 0.67557 0.0
C1689 C 0.87536 0.80311 0.63626 0.0
C1690 C 0.02292 0.12484 0.41806 0.0
C1691 C 0.01452 0.11588 0.39278 0.0
H1692 H 1.0043 0.14626 0.45344 0.0
C1693 C 0.97837 0.11906 0.38477 0.0
H1694 H 0.05036 0.12309 0.42495 0.0
C1695 C 0.95167 0.13198 0.40138 0.0
C1696 C 0.96071 0.1427 0.42618 0.0
H1697 H 0.97089 0.11256 0.36541 0.0
H1698 H 0.92437 0.1351 0.39447 0.0
C1699 C 0.99648 0.13838 0.43441 0.0
C1700 C 0.65099 0.26975 0.17171 0.0
C1701 C 0.65992 0.261 0.14647 0.0
H1702 H 0.63219 0.25096 0.20792 0.0
C1703 C 0.65935 0.22457 0.13937 0.0
H1704 H 0.65085 0.29745 0.17791 0.0
C1705 C 0.64916 0.19783 0.15678 0.0
C1706 C 0.63855 0.20683 0.18159 0.0
H1707 H 0.66603 0.21672 0.12014 0.0
H1708 H 0.6483 0.17026 0.15051 0.0
C1709 C 0.64013 0.24307 0.18894 0.0
C1710 C 0.53112 0.8629 0.87858 0.0
C1711 C 0.51464 0.89595 0.88412 0.0
H1712 H 0.57026 0.82353 0.88941 0.0
C1713 C 0.52739 0.91589 0.90495 0.0
H1714 H 0.52162 0.84666 0.86287 0.0
C1715 C 0.55643 0.90309 0.91968 0.0
C1716 C 0.57207 0.86949 0.91441 0.0
H1717 H 0.51509 0.94133 0.90974 0.0
H1718 H 0.5658 0.91882 0.93567 0.0
C1719 C 0.55896 0.84957 0.89379 0.0
C1720 C 0.87905 0.27169 0.87489 0.0
C1721 C 0.87361 0.26342 0.9007 0.0
H1722 H 0.89467 0.25281 0.83802 0.0
C1723 C 0.87732 0.22734 0.90832 0.0
H1724 H 0.87667 0.29905 0.86821 0.0
C1725 C 0.88706 0.20056 0.89072 0.0
C1726 C 0.89401 0.20932 0.86522 0.0
H1727 H 0.87344 0.21989 0.928 0.0
H1728 H 0.89074 0.17336 0.89733 0.0
C1729 C 0.88947 0.24513 0.85752 0.0
C1730 C 0.52891 0.10784 0.63996 0.0
C1731 C 0.51912 0.12874 0.66111 0.0
H1732 H 0.56426 0.10232 0.60775 0.0
C1733 C 0.53844 0.16052 0.66595 0.0
H1734 H 0.51447 0.08334 0.63568 0.0
C1735 C 0.56587 0.17185 0.64964 0.0
C1736 C 0.57566 0.15113 0.62854 0.0
H1737 H 0.53139 0.1775 0.68187 0.0
H1738 H 0.57936 0.19707 0.65345 0.0
C1739 C 0.55744 0.11861 0.62408 0.0
C1740 C 0.6405 0.82515 0.38898 0.0
C1741 C 0.63565 0.816 0.36329 0.0
H1742 H 0.65229 0.80638 0.42674 0.0
C1743 C 0.64269 0.78048 0.3558 0.0
H1744 H 0.63504 0.85219 0.3954 0.0
C1745 C 0.65313 0.75442 0.37354 0.0
C1746 C 0.65615 0.76287 0.39951 0.0
H1747 H 0.63924 0.77252 0.33615 0.0
H1748 H 0.6572 0.7272 0.36699 0.0
C1749 C 0.65029 0.79879 0.40693 0.0
C1750 C 0.97195 0.89656 0.12285 0.0
C1751 C 0.95441 0.86389 0.12804 0.0
H1752 H 0.01475 0.93284 0.13331 0.0
C1753 C 0.96561 0.84371 0.14908 0.0
H1754 H 0.96407 0.91243 0.10654 0.0
C1755 C 0.99364 0.85578 0.16468 0.0
C1756 C 1.01212 0.88781 0.15919 0.0
H1757 H 0.9527 0.81838 0.15343 0.0
H1758 H 1.00164 0.8393 0.18067 0.0
C1759 C 1.00104 0.9081 0.13804 0.0
C1760 C 0.62251 0.73825 0.86182 0.0
C1761 C 0.633 0.70268 0.86668 0.0
H1762 H 0.62635 0.79352 0.87283 0.0
C1763 C 0.65762 0.69613 0.88645 0.0
H1764 H 0.60379 0.74421 0.8466 0.0
C1765 C 0.66957 0.72432 0.9021 0.0
C1766 C 0.65849 0.75982 0.89751 0.0
H1767 H 0.66643 0.6691 0.89049 0.0
H1768 H 0.687 0.71829 0.91805 0.0
C1769 C 0.63565 0.76655 0.87674 0.0
C1770 C 0.58023 0.38766 0.15054 0.0
C1771 C 0.5729 0.37149 0.127 0.0
H1772 H 0.55828 0.4112 0.18444 0.0
C1773 C 0.53701 0.36946 0.11865 0.0
H1774 H 0.60764 0.38924 0.1575 0.0
C1775 C 0.5089 0.38292 0.13363 0.0
C1776 C 0.5159 0.3977 0.15773 0.0
H1777 H 0.53064 0.35699 0.1006 0.0
H1778 H 0.48148 0.38017 0.12684 0.0
C1779 C 0.55197 0.40015 0.16593 0.0
C1780 C 0.8893 0.32557 0.39089 0.0
C1781 C 0.89579 0.31712 0.36529 0.0
H1782 H 0.87626 0.30586 0.42814 0.0
C1783 C 0.89133 0.28137 0.35741 0.0
H1784 H 0.89301 0.3527 0.39763 0.0
C1785 C 0.88126 0.25458 0.37472 0.0
C1786 C 0.87613 0.26259 0.4006 0.0
H1787 H 0.89624 0.27393 0.33783 0.0
H1788 H 0.87883 0.22728 0.36791 0.0
C1789 C 0.87992 0.29859 0.4084 0.0
C1790 C 0.94726 0.64297 0.64258 0.0
C1791 C 0.95683 0.65222 0.61761 0.0
H1792 H 0.96566 0.62554 0.67932 0.0
C1793 C 0.9928 0.64758 0.61004 0.0
H1794 H 0.9198 0.64647 0.64901 0.0
C1795 C 0.01884 0.63489 0.62711 0.0
C1796 C 1.00986 0.62729 0.6525 0.0
H1797 H 1.00102 0.65445 0.59091 0.0
H1798 H 0.04642 0.63263 0.62067 0.0
C1799 C 0.97358 0.63107 0.65994 0.0
C1800 C 0.64432 0.32198 0.65177 0.0
C1801 C 0.63794 0.31292 0.67728 0.0
H1802 H 0.65848 0.30305 0.61449 0.0
C1803 C 0.64469 0.2775 0.68511 0.0
H1804 H 0.63916 0.34897 0.64512 0.0
C1805 C 0.65629 0.25141 0.66781 0.0
C1806 C 0.66085 0.25974 0.64195 0.0
H1807 H 0.64012 0.26963 0.70464 0.0
H1808 H 0.66004 0.22425 0.67458 0.0
C1809 C 0.65534 0.29559 0.63423 0.0
C1810 C 0.95037 0.39895 0.8986 0.0
C1811 C 0.9581 0.37768 0.91993 0.0
H1812 H 0.97162 0.42701 0.86624 0.0
C1813 C 0.99431 0.37188 0.92658 0.0
H1814 H 0.92273 0.40372 0.89301 0.0
C1815 C 0.02224 0.38634 0.91191 0.0
C1816 C 0.01464 0.40591 0.88972 0.0
H1817 H 1.00105 0.35571 0.943 0.0
H1818 H 0.04981 0.3804 0.91716 0.0
C1819 C 0.97836 0.41237 0.88336 0.0
C1820 C 0.87152 0.72141 0.13704 0.0
C1821 C 0.868 0.75774 0.1441 0.0
H1822 H 0.88637 0.66799 0.14853 0.0
C1823 C 0.87485 0.76709 0.16955 0.0
H1824 H 0.8666 0.71317 0.11762 0.0
C1825 C 0.88667 0.7413 0.18706 0.0
C1826 C 0.8914 0.70531 0.17979 0.0
H1827 H 0.87273 0.7947 0.17574 0.0
H1828 H 0.89299 0.74978 0.20624 0.0
C1829 C 0.88282 0.69544 0.15474 0.0
C1830 C 0.53184 0.65089 0.4274 0.0
C1831 C 0.56762 0.64875 0.41892 0.0
H1832 H 0.47613 0.64076 0.41926 0.0
C1833 C 0.57453 0.63259 0.39534 0.0
H1834 H 0.52577 0.66335 0.44548 0.0
C1835 C 0.54602 0.62034 0.38001 0.0
C1836 C 0.51007 0.6231 0.38825 0.0
H1837 H 0.60175 0.63104 0.38819 0.0
H1838 H 0.55207 0.6095 0.36141 0.0
C1839 C 0.50345 0.63772 0.41244 0.0
C1840 C 0.37483 0.2989 0.13715 0.0
C1841 C 0.37149 0.26283 0.14493 0.0
H1842 H 0.38936 0.35288 0.14754 0.0
C1843 C 0.37864 0.2545 0.1705 0.0
H1844 H 0.36959 0.30637 0.11762 0.0
C1845 C 0.3906 0.28105 0.18743 0.0
C1846 C 0.39503 0.3168 0.17945 0.0
H1847 H 0.37666 0.22711 0.17719 0.0
H1848 H 0.39715 0.27339 0.20673 0.0
C1849 C 0.38612 0.32564 0.15428 0.0
C1850 C 0.51949 0.62782 0.9098 0.0
C1851 C 0.51422 0.61675 0.88451 0.0
H1852 H 0.49601 0.65082 0.94326 0.0
C1853 C 0.47893 0.61752 0.87453 0.0
H1854 H 0.54618 0.62793 0.91812 0.0
C1855 C 0.44996 0.63012 0.88924 0.0
C1856 C 0.45585 0.64288 0.91398 0.0
H1857 H 0.47386 0.60931 0.85512 0.0
H1858 H 0.42331 0.6314 0.88089 0.0
C1859 C 0.49076 0.64111 0.92421 0.0
C1860 C 0.15199 0.7283 0.63641 0.0
C1861 C 0.15426 0.76449 0.64414 0.0
H1862 H 0.13725 0.67422 0.64648 0.0
C1863 C 0.14476 0.77295 0.66928 0.0
H1864 H 0.15892 0.72074 0.61718 0.0
C1865 C 0.13175 0.74645 0.6858 0.0
C1866 C 0.12849 0.71056 0.67789 0.0
H1867 H 0.14577 0.80041 0.67594 0.0
H1868 H 0.12349 0.75429 0.70472 0.0
C1869 C 0.13959 0.70157 0.65319 0.0
C1870 C 1.00651 0.404 0.41756 0.0
C1871 C 0.01424 0.40574 0.39142 0.0
H1872 H 0.0253 0.39073 0.45489 0.0
C1873 C 0.04972 0.3981 0.38354 0.0
H1874 H 0.97961 0.40942 0.42447 0.0
C1875 C 0.07631 0.38792 0.40128 0.0
C1876 C 0.06776 0.38443 0.42717 0.0
H1877 H 0.05673 0.39908 0.3636 0.0
H1878 H 0.103 0.38112 0.39458 0.0
C1879 C 0.03274 0.39313 0.43508 0.0
C1880 C 0.3891 0.77274 0.37923 0.0
C1881 C 0.36773 0.76565 0.40065 0.0
H1882 H 0.41997 0.75088 0.34849 0.0
C1883 C 0.35795 0.72992 0.40576 0.0
H1884 H 0.39737 0.79991 0.3749 0.0
C1885 C 0.36981 0.70188 0.38998 0.0
C1886 C 0.39307 0.70887 0.36955 0.0
H1887 H 0.3417 0.72362 0.42222 0.0
H1888 H 0.36216 0.67465 0.39448 0.0
C1889 C 0.40223 0.74464 0.36419 0.0
C1890 C 0.06153 0.67104 0.14709 0.0
C1891 C 0.07041 0.65095 0.12546 0.0
H1892 H 0.02855 0.67563 0.18024 0.0
C1893 C 0.05204 0.61852 0.12099 0.0
H1894 H 0.07517 0.69615 0.15098 0.0
C1895 C 0.02427 0.60724 0.13739 0.0
C1896 C 0.01541 0.62748 0.15908 0.0
H1897 H 0.05816 0.60267 0.10431 0.0
H1898 H 1.00971 0.58281 0.13309 0.0
C1899 C 0.03488 0.65916 0.1639 0.0
C1900 C 0.10192 0.3089 0.89482 0.0
C1901 C 0.12351 0.31993 0.87444 0.0
H1902 H 0.09589 0.27408 0.9268 0.0
C1903 C 0.15716 0.30323 0.87096 0.0
H1904 H 0.07583 0.3211 0.89792 0.0
C1905 C 0.16828 0.27513 0.88714 0.0
C1906 C 0.14656 0.26429 0.90764 0.0
H1907 H 0.17421 0.311 0.85524 0.0
H1908 H 0.1938 0.26198 0.88367 0.0
C1909 C 0.11353 0.28196 0.91142 0.0
C1910 C 0.49312 0.35919 0.66242 0.0
C1911 C 0.51211 0.39136 0.6584 0.0
H1912 H 0.45252 0.32286 0.64906 0.0
C1913 C 0.50206 0.41307 0.63767 0.0
H1914 H 0.50029 0.34161 0.678 0.0
C1915 C 0.47358 0.40273 0.62145 0.0
C1916 C 0.45563 0.36988 0.62513 0.0
H1917 H 0.51618 0.43794 0.63402 0.0
H1918 H 0.46654 0.4197 0.60551 0.0
C1919 C 0.46575 0.34835 0.6458 0.0
C1920 C 0.07509 0.02608 0.28179 0.0
C1921 C 0.1058 0.02403 0.29752 0.0
H1922 H 0.05046 1.00971 0.24632 0.0
C1923 C 0.13354 1.0004 0.29039 0.0
H1924 H 0.05325 0.044 0.28663 0.0
C1925 C 0.13194 0.98117 0.2677 0.0
C1926 C 0.10233 0.98416 0.25133 0.0
H1927 H 0.1576 0.99772 0.3019 0.0
H1928 H 0.15487 0.965 0.26243 0.0
C1929 C 0.07337 1.00622 0.25883 0.0
C1930 C 0.24366 0.82725 0.52937 0.0
C1931 C 0.2476 0.85564 0.54688 0.0
H1932 H 0.25897 0.80593 0.49265 0.0
C1933 C 0.27342 0.88222 0.54156 0.0
H1934 H 0.22399 0.80639 0.53275 0.0
C1935 C 0.29289 0.88207 0.51895 0.0
C1936 C 0.28793 0.85504 0.50077 0.0
H1937 H 0.27769 0.90442 0.5545 0.0
H1938 H 0.31101 0.90421 0.51526 0.0
C1939 C 0.26381 0.8269 0.50646 0.0
C1940 C 0.45436 0.9953 0.78421 0.0
C1941 C 0.42638 1.00166 0.80169 0.0
H1942 H 0.47629 1.00764 0.74719 0.0
C1943 C 0.40104 0.02847 0.79584 0.0
H1944 H 0.47434 0.97492 0.78808 0.0
C1945 C 0.40211 0.0468 0.77275 0.0
C1946 C 0.42898 0.03975 0.75479 0.0
H1947 H 0.37909 0.03436 0.8087 0.0
H1948 H 0.38078 0.06559 0.76856 0.0
C1949 C 0.45567 0.01428 0.76092 0.0
C1950 C 0.24861 0.201 1.01341 0.0
C1951 C 0.24533 0.16896 0.9993 0.0
H1952 H 0.2696 0.22608 0.04755 0.0
C1953 C 0.26324 0.1383 1.00839 0.0
H1954 H 0.23581 0.22531 1.00675 0.0
C1955 C 0.28247 0.13886 0.03109 0.0
C1956 C 0.28503 0.17013 0.04577 0.0
H1957 H 0.26185 0.1131 0.9982 0.0
H1958 H 0.29481 0.11411 0.03747 0.0
C1959 C 0.26843 0.20159 0.03653 0.0
C1960 C 0.89293 0.03257 0.78366 0.0
C1961 C 0.92489 0.0342 0.79784 0.0
H1962 H 0.86593 0.01406 0.75048 0.0
C1963 C 0.95595 0.01777 0.78775 0.0
H1964 H 0.86841 0.04453 0.79088 0.0
C1965 C 0.95443 0.99927 0.76421 0.0
C1966 C 0.92187 0.99718 0.75041 0.0
H1967 H 0.98088 0.01806 0.79844 0.0
H1968 H 0.97845 0.98643 0.75696 0.0
C1969 C 0.89151 0.01475 0.76039 0.0
C1970 C 0.74707 0.19963 0.52977 0.0
C1971 C 0.75002 0.16926 0.5456 0.0
H1972 H 0.76236 0.22408 0.49407 0.0
C1973 C 0.7742 0.14206 0.53845 0.0
H1974 H 0.72875 0.22109 0.53467 0.0
C1975 C 0.79305 0.14376 0.51562 0.0
C1976 C 0.78909 0.17297 0.49912 0.0
H1977 H 0.7776 0.11831 0.55005 0.0
H1978 H 0.80966 0.12115 0.51035 0.0
C1979 C 0.76655 0.20149 0.50665 0.0
C1980 C 0.57176 0.02173 0.25296 0.0
C1981 C 0.60322 0.02293 0.238 0.0
H1982 H 0.5474 1.00342 0.288 0.0
C1983 C 0.63354 1.0038 0.2466 0.0
H1984 H 0.54773 0.03564 0.24676 0.0
C1985 C 0.63336 0.98574 0.26982 0.0
C1986 C 0.60259 0.9852 0.28522 0.0
H1987 H 0.65828 1.00373 0.23574 0.0
H1988 H 0.65795 0.9728 0.27606 0.0
C1989 C 0.57141 1.00286 0.27637 0.0
C1990 C 0.777 0.87152 0.99932 0.0
C1991 C 0.74991 0.84632 0.99384 0.0
H1992 H 0.81451 0.89223 0.02615 0.0
C1993 C 0.74403 0.81843 1.01146 0.0
H1994 H 0.78267 0.89329 0.9863 0.0
C1995 C 0.76345 0.81744 0.0347 0.0
C1996 C 0.78883 0.84439 0.04059 0.0
H1997 H 0.72325 0.79869 1.00796 0.0
H1998 H 0.75698 0.79711 0.04864 0.0
C1999 C 0.79572 0.87078 0.02227 0.0
C2000 C 0.57586 0.51992 0.78553 0.0
C2001 C 0.60732 0.51939 0.80058 0.0
H2002 H 0.5507 0.50314 0.75033 0.0
C2003 C 0.63648 0.49845 0.79221 0.0
H2004 H 0.55277 0.53549 0.79147 0.0
C2005 C 0.63534 0.4804 0.76901 0.0
C2006 C 0.6047 0.48175 0.75344 0.0
H2007 H 0.66118 0.49705 0.80314 0.0
H2008 H 0.65922 0.46629 0.76283 0.0
C2009 C 0.57451 0.50107 0.76214 0.0
C2010 C 0.75583 0.3784 1.00431 0.0
C2011 C 0.78021 0.35128 0.9974 0.0
H2012 H 0.72062 0.39992 0.03211 0.0
C2013 C 0.78336 0.32126 1.01361 0.0
H2014 H 0.75216 0.4019 0.99249 0.0
C2015 C 0.76384 0.31976 0.0368 0.0
C2016 C 0.74112 0.34833 0.04405 0.0
H2017 H 0.80175 0.29978 1.00891 0.0
H2018 H 0.76812 0.29745 0.04961 0.0
C2019 C 0.73711 0.37712 0.02715 0.0
C2020 C 0.89126 0.51392 0.26208 0.0
C2021 C 0.92218 0.53005 0.25174 0.0
H2022 H 0.86751 0.48515 0.29277 0.0
C2023 C 0.95483 0.52692 0.26529 0.0
H2024 H 0.86557 0.5155 0.25236 0.0
C2025 C 0.95601 0.50849 0.28887 0.0
C2026 C 0.92448 0.49335 0.29924 0.0
H2027 H 0.97923 0.53869 0.25777 0.0
H2028 H 0.98111 0.50716 0.29931 0.0
C2029 C 0.89234 0.49623 0.28537 0.0
C2030 C 0.77492 0.65297 0.50088 0.0
C2031 C 0.74734 0.67754 0.49514 0.0
H2032 H 0.81275 0.63352 0.52802 0.0
C2033 C 0.74097 0.70568 0.51245 0.0
H2034 H 0.78095 0.631 0.48812 0.0
C2035 C 0.76032 0.7075 0.53568 0.0
C2036 C 0.7863 0.68127 0.54183 0.0
H2037 H 0.71992 0.72502 0.50873 0.0
H2038 H 0.75334 0.72792 0.54944 0.0
C2039 C 0.79369 0.6546 0.52382 0.0
C2040 C 0.45088 0.5305 0.28293 0.0
C2041 C 0.42082 0.52707 0.29908 0.0
H2042 H 0.47478 0.51592 0.2469 0.0
C2043 C 0.39332 0.50314 0.29181 0.0
H2044 H 0.47264 0.54847 0.28794 0.0
C2045 C 0.3945 0.48496 0.26867 0.0
C2046 C 0.42352 0.48924 0.25199 0.0
H2047 H 0.36976 0.49939 0.3036 0.0
H2048 H 0.37179 0.46834 0.26342 0.0
C2049 C 0.45227 0.5116 0.25956 0.0
C2050 C 0.26295 0.70144 1.00638 0.0
C2051 C 0.29086 0.6765 1.00217 0.0
H2052 H 0.21978 0.71835 0.03114 0.0
C2053 C 0.29881 0.65183 1.02145 0.0
H2054 H 0.2556 0.72025 0.99159 0.0
C2055 C 0.27856 0.65068 0.04375 0.0
C2056 C 0.24916 0.67388 0.04754 0.0
H2057 H 0.31965 0.63196 1.01877 0.0
H2058 H 0.28494 0.63012 0.05757 0.0
C2059 C 0.24229 0.70023 0.02897 0.0
C2060 C 0.0728 0.49405 0.78043 0.0
C2061 C 0.10161 0.49911 0.79756 0.0
H2062 H 0.05003 0.50787 0.74384 0.0
C2063 C 0.12724 0.52568 0.79177 0.0
H2064 H 0.05268 0.47375 0.78417 0.0
C2065 C 0.12582 0.54478 0.76899 0.0
C2066 C 0.09833 0.53872 0.75121 0.0
H2067 H 0.14978 0.53067 0.80438 0.0
H2068 H 0.1475 0.56321 0.76476 0.0
C2069 C 0.07116 0.51376 0.75741 0.0
C2070 C 0.26193 0.31986 0.50923 0.0
C2071 C 0.23819 0.34771 0.50227 0.0
H2072 H 0.30016 0.30034 0.53705 0.0
C2073 C 0.23263 0.37573 0.51953 0.0
H2074 H 0.26739 0.29826 0.49604 0.0
C2075 C 0.2509 0.37683 0.5427 0.0
C2076 C 0.27616 0.35031 0.54934 0.0
H2077 H 0.21517 0.39785 0.51468 0.0
H2078 H 0.24627 0.39969 0.55496 0.0
C2079 C 0.28087 0.32116 0.53262 0.0
C2080 C 0.09761 0.22096 0.14353 0.0
C2081 C 0.10077 0.193 0.12574 0.0
H2082 H 0.0876 0.23574 0.18215 0.0
C2083 C 0.09636 0.15743 0.1341 0.0
H2084 H 0.1016 0.2486 0.13793 0.0
C2085 C 0.08865 0.15006 0.15955 0.0
C2086 C 0.08495 0.1781 0.17718 0.0
H2087 H 0.09814 0.13526 0.12087 0.0
H2088 H 0.0848 0.12245 0.16533 0.0
C2089 C 0.08968 0.2136 0.16891 0.0
C2090 C 0.12441 0.84115 0.41163 0.0
C2091 C 0.10316 0.81668 0.42531 0.0
H2092 H 0.13398 0.86735 0.37616 0.0
C2093 C 0.07568 0.79807 0.41244 0.0
H2094 H 0.1461 0.8556 0.42085 0.0
C2095 C 0.06909 0.8044 0.38669 0.0
C2096 C 0.08976 0.82954 0.37319 0.0
H2097 H 0.05856 0.77927 0.42241 0.0
H2098 H 0.04759 0.78976 0.3774 0.0
C2099 C 0.11777 0.84754 0.3859 0.0
C2100 C 0.43891 0.81634 0.66002 0.0
C2101 C 0.43711 0.85181 0.66891 0.0
H2102 H 0.43447 0.78086 0.62834 0.0
C2103 C 0.42837 0.87931 0.65173 0.0
H2104 H 0.44479 0.79446 0.67291 0.0
C2105 C 0.42269 0.87153 0.62599 0.0
C2106 C 0.42543 0.83606 0.61701 0.0
H2107 H 0.42693 0.90691 0.65804 0.0
H2108 H 0.41707 0.89339 0.61304 0.0
C2109 C 0.43308 0.80856 0.63444 0.0
C2110 C 0.42417 0.16309 0.89038 0.0
C2111 C 0.42603 0.19084 0.87239 0.0
H2112 H 0.41638 0.14887 0.92935 0.0
C2113 C 0.41905 0.22618 0.88017 0.0
H2114 H 0.42977 0.13564 0.88496 0.0
C2115 C 0.41113 0.23377 0.9055 0.0
C2116 C 0.41021 0.2062 0.92369 0.0
H2117 H 0.4197 0.24803 0.86663 0.0
H2118 H 0.40572 0.26129 0.91083 0.0
C2119 C 0.41644 0.1707 0.91579 0.0
C2120 C 0.93475 0.80425 0.88219 0.0
C2121 C 0.94062 0.84031 0.87567 0.0
H2122 H 0.92334 0.76665 0.91189 0.0
C2123 C 0.93834 0.86665 0.8947 0.0
H2124 H 0.9365 0.78338 0.86794 0.0
C2125 C 0.93082 0.85712 0.91977 0.0
C2126 C 0.92563 0.82101 0.92642 0.0
H2127 H 0.94235 0.8947 0.89017 0.0
H2128 H 0.92984 0.878 0.93406 0.0
C2129 C 0.92752 0.79467 0.90736 0.0
C2130 C 0.92856 0.15975 0.65682 0.0
C2131 C 0.9524 0.18097 0.67116 0.0
H2132 H 0.90269 0.15108 0.621 0.0
C2133 C 0.96926 0.21031 0.65933 0.0
H2134 H 0.91545 0.1367 0.66523 0.0
C2135 C 0.96214 0.21843 0.63384 0.0
C2136 C 0.9382 0.19722 0.61954 0.0
H2137 H 0.9876 0.22732 0.66989 0.0
H2138 H 0.97557 0.24118 0.62528 0.0
C2139 C 0.92159 0.16773 0.63134 0.0
C2140 C 0.59931 0.21559 0.40578 0.0
C2141 C 0.60027 0.1888 0.42458 0.0
H2142 H 0.5909 0.22819 0.3665 0.0
C2143 C 0.59407 0.15302 0.41736 0.0
H2144 H 0.60434 0.24336 0.41064 0.0
C2145 C 0.58651 0.14432 0.39207 0.0
C2146 C 0.58513 0.17117 0.37332 0.0
H2147 H 0.59433 0.13175 0.43137 0.0
H2148 H 0.58181 0.1165 0.38717 0.0
C2149 C 0.59195 0.20686 0.38044 0.0
C2150 C 0.58652 0.78999 0.13075 0.0
C2151 C 0.60171 0.81575 0.11444 0.0
H2152 H 0.56798 0.77778 0.16827 0.0
C2153 C 0.61054 0.84966 0.12437 0.0
H2154 H 0.57995 0.7634 0.12389 0.0
C2155 C 0.604 0.85772 0.14985 0.0
C2156 C 0.58825 0.83217 0.16599 0.0
H2157 H 0.62164 0.8704 0.1123 0.0
H2158 H 0.61037 0.88434 0.15676 0.0
C2159 C 0.57974 0.79816 0.1562 0.0
C2160 C 0.59675 0.71415 0.66242 0.0
C2161 C 0.59989 0.67849 0.67075 0.0
H2162 H 0.59976 0.75071 0.63122 0.0
C2163 C 0.61009 0.652 0.65318 0.0
H2164 H 0.58957 0.73528 0.67559 0.0
C2165 C 0.61574 0.6608 0.62766 0.0
C2166 C 0.61144 0.69632 0.61917 0.0
H2167 H 0.61241 0.62423 0.65896 0.0
H2168 H 0.62219 0.63952 0.61443 0.0
C2169 C 0.60253 0.72297 0.63698 0.0
C2170 C 0.57715 0.301 0.88572 0.0
C2171 C 0.58725 0.33411 0.87512 0.0
H2172 H 0.57515 0.26812 0.91905 0.0
C2173 C 0.60413 0.35967 0.89077 0.0
H2174 H 0.56433 0.28065 0.87413 0.0
C2175 C 0.61035 0.35248 0.91647 0.0
C2176 C 0.60008 0.31946 0.9271 0.0
H2177 H 0.61191 0.38557 0.88327 0.0
H2178 H 0.62335 0.37276 0.92803 0.0
C2179 C 0.58363 0.2937 0.91139 0.0
C2180 C 0.96079 0.31371 0.13277 0.0
C2181 C 0.93126 0.32959 0.12033 0.0
H2182 H 0.99132 0.30891 0.16714 0.0
C2183 C 0.90942 0.35352 0.13406 0.0
H2184 H 0.97846 0.29548 0.12276 0.0
C2185 C 0.91709 0.36157 0.15947 0.0
C2186 C 0.9468 0.34591 0.17183 0.0
H2187 H 0.88624 0.36597 0.12522 0.0
H2188 H 0.90005 0.3806 0.16928 0.0
C2189 C 0.96845 0.32176 0.15817 0.0
C2190 C 0.97302 0.67998 0.39367 0.0
C2191 C 0.95372 0.69596 0.37364 0.0
H2192 H 0.98089 0.67599 0.43385 0.0
C2193 C 0.92743 0.72178 0.37947 0.0
H2194 H 0.99321 0.65972 0.38992 0.0
C2195 C 0.92006 0.73079 0.40471 0.0
C2196 C 0.93879 0.71419 0.42476 0.0
H2197 H 0.91235 0.73491 0.3645 0.0
H2198 H 0.89894 0.75006 0.40852 0.0
C2199 C 0.96566 0.68899 0.4189 0.0
C2200 C 0.43046 0.36855 0.39133 0.0
C2201 C 0.43651 0.34174 0.37307 0.0
H2202 H 0.41803 0.38068 0.43006 0.0
C2203 C 0.43271 0.30561 0.38011 0.0
H2204 H 0.4328 0.39663 0.38636 0.0
C2205 C 0.42422 0.29646 0.40515 0.0
C2206 C 0.41895 0.32328 0.42355 0.0
H2207 H 0.43732 0.28441 0.36643 0.0
H2208 H 0.42205 0.26838 0.41018 0.0
C2209 C 0.42164 0.35942 0.41628 0.0
C2210 C 0.42983 0.64837 0.15454 0.0
C2211 C 0.44745 0.67383 0.16985 0.0
H2212 H 0.41242 0.63386 0.11715 0.0
C2213 C 0.46099 0.70514 0.15848 0.0
H2214 H 0.41883 0.62411 0.16274 0.0
C2215 C 0.45676 0.71103 0.13251 0.0
C2216 C 0.43915 0.68562 0.11716 0.0
H2217 H 0.47519 0.72506 0.16963 0.0
H2218 H 0.467 0.73575 0.12451 0.0
C2219 C 0.42577 0.65417 0.12847 0.0
C2220 C 0.07955 0.65434 0.8902 0.0
C2221 C 0.0785 0.68157 0.87175 0.0
H2222 H 0.08818 0.64079 0.92926 0.0
C2223 C 0.08673 0.71689 0.87904 0.0
H2224 H 0.07372 0.6268 0.88511 0.0
C2225 C 0.09503 0.72492 0.90435 0.0
C2226 C 0.09568 0.69773 0.92286 0.0
H2227 H 0.08599 0.73845 0.86526 0.0
H2228 H 0.10097 0.75244 0.90945 0.0
C2229 C 0.08819 0.6623 0.91543 0.0
C2230 C 0.10652 0.35084 0.66576 0.0
C2231 C 0.07056 0.35523 0.67332 0.0
H2232 H 0.14269 0.33857 0.63543 0.0
C2233 C 0.04301 0.35167 0.65515 0.0
H2234 H 0.12829 0.35307 0.6794 0.0
C2235 C 0.05128 0.34327 0.62996 0.0
C2236 C 0.0872 0.33791 0.62262 0.0
H2237 H 0.01507 0.35515 0.66045 0.0
H2238 H 0.02957 0.34004 0.61638 0.0
C2239 C 0.11474 0.34216 0.64068 0.0
loop_
_geom_bond_atom_site_label_1
_geom_bond_atom_site_label_2
_geom_bond_distance
_geom_bond_site_symmetry_2
_ccdc_geom_bond_type
Nd0 C2 2.836 . S
Nd0 O20 2.500 . S
Nd0 O21 2.492 . S
Nd0 O22 2.487 . S
Nd0 O23 2.682 . S
Nd0 O24 2.410 . S
Nd0 O29 2.414 . S
Nd0 O31 2.424 . S
Nd1 C11 2.836 . S
Nd1 O23 2.414 . S
Nd1 O25 2.424 . S
Nd1 O26 2.500 . S
Nd1 O27 2.492 . S
Nd1 O28 2.487 . S
Nd1 O29 2.682 . S
Nd1 O30 2.410 . S
C2 Nd0 2.836 . S
C2 C3 1.498 . S
C2 O20 1.258 . S
C2 O21 1.239 . S
C3 C2 1.498 . S
C3 C4 1.366 . S
C3 C8 1.407 . S
C4 C3 1.366 . S
C4 C5 1.392 . S
C4 H32 0.930 . S
C5 C4 1.392 . S
C5 C6 1.398 . S
C5 H33 0.929 . S
C6 C5 1.398 . S
C6 C7 1.352 . S
C7 C6 1.352 . S
C7 C8 1.384 . S
C7 H34 0.930 . S
C8 C3 1.407 . S
C8 C7 1.384 . S
C8 H35 0.929 . S
C9 O22 1.241 . S
C9 O23 1.273 . S
C10 O24 1.251 . S
C10 O25 1.268 . S
C11 Nd1 2.836 . S
C11 C12 1.498 . S
C11 O26 1.258 . S
C11 O27 1.239 . S
C12 C11 1.498 . S
C12 C13 1.366 . S
C12 C17 1.407 1_545 S
C13 C12 1.366 . S
C13 C14 1.392 . S
C13 H36 0.930 . S
C14 C13 1.392 . S
C14 C15 1.419 . S
C14 H37 0.929 . S
C15 C14 1.419 . S
C15 C16 1.339 1_545 S
C16 C15 1.339 1_565 S
C16 C17 1.384 . S
C16 H38 0.930 . S
C17 C12 1.407 1_565 S
C17 C16 1.384 . S
C17 H39 0.929 . S
C18 O28 1.241 . S
C18 O29 1.273 . S
C19 O30 1.251 . S
C19 O31 1.268 . S
O20 Nd0 2.500 . S
O20 C2 1.258 . S
O21 Nd0 2.492 . S
O21 C2 1.239 . S
O22 Nd0 2.487 . S
O22 C9 1.241 . S
O23 Nd0 2.682 . S
O23 Nd1 2.414 . S
O23 C9 1.273 . S
O24 Nd0 2.410 . S
O24 C10 1.251 . S
O25 Nd1 2.424 . S
O25 C10 1.268 . S
O26 Nd1 2.500 . S
O26 C11 1.258 . S
O27 Nd1 2.492 . S
O27 C11 1.239 . S
O28 Nd1 2.487 . S
O28 C18 1.241 . S
O29 Nd0 2.414 . S
O29 Nd1 2.682 . S
O29 C18 1.273 . S
O30 Nd1 2.410 . S
O30 C19 1.251 . S
O31 Nd0 2.424 . S
O31 C19 1.268 . S
H32 C4 0.930 . S
H33 C5 0.929 . S
H34 C7 0.930 . S
H35 C8 0.929 . S
H36 C13 0.930 . S
H37 C14 0.929 . S
H38 C16 0.930 . S
H39 C17 0.929 . S
Nd40 C42 2.836 . S
Nd40 O60 2.500 . S
Nd40 O61 2.492 . S
Nd40 O62 2.487 . S
Nd40 O63 2.682 . S
Nd40 O64 2.410 . S
Nd40 O69 2.414 . S
Nd40 O71 2.424 . S
Nd41 C51 2.836 . S
Nd41 O63 2.414 . S
Nd41 O65 2.424 . S
Nd41 O66 2.500 . S
Nd41 O67 2.492 . S
Nd41 O68 2.487 . S
Nd41 O69 2.682 . S
Nd41 O70 2.410 . S
C42 Nd40 2.836 . S
C42 C43 1.498 . S
C42 O60 1.258 . S
C42 O61 1.239 . S
C43 C42 1.498 . S
C43 C44 1.366 . S
C43 C48 1.407 . S
C44 C43 1.366 . S
C44 C45 1.392 . S
C44 H72 0.930 . S
C45 C44 1.392 . S
C45 C46 1.398 . S
C45 H73 0.929 . S
C46 C45 1.398 . S
C46 C47 1.352 . S
C47 C46 1.352 . S
C47 C48 1.384 . S
C47 H74 0.930 . S
C48 C43 1.407 . S
C48 C47 1.384 . S
C48 H75 0.929 . S
C49 O62 1.241 . S
C49 O63 1.273 . S
C50 O64 1.251 . S
C50 O65 1.268 . S
C51 Nd41 2.836 . S
C51 C52 1.498 . S
C51 O66 1.258 . S
C51 O67 1.239 . S
C52 C51 1.498 . S
C52 C53 1.366 . S
C52 C57 1.407 . S
C53 C52 1.366 . S
C53 C54 1.392 . S
C53 H76 0.930 . S
C54 C53 1.392 . S
C54 C55 1.398 . S
C54 H77 0.929 . S
C55 C54 1.398 . S
C55 C56 1.352 . S
C56 C55 1.352 . S
C56 C57 1.384 . S
C56 H78 0.930 . S
C57 C52 1.407 . S
C57 C56 1.384 . S
C57 H79 0.929 . S
C58 O68 1.241 . S
C58 O69 1.273 . S
C59 O70 1.251 . S
C59 O71 1.268 . S
O60 Nd40 2.500 . S
O60 C42 1.258 . S
O61 Nd40 2.492 . S
O61 C42 1.239 . S
O62 Nd40 2.487 . S
O62 C49 1.241 . S
O63 Nd40 2.682 . S
O63 Nd41 2.414 . S
O63 C49 1.273 . S
O64 Nd40 2.410 . S
O64 C50 1.251 . S
O65 Nd41 2.424 . S
O65 C50 1.268 . S
O66 Nd41 2.500 . S
O66 C51 1.258 . S
O67 Nd41 2.492 . S
O67 C51 1.239 . S
O68 Nd41 2.487 . S
O68 C58 1.241 . S
O69 Nd40 2.414 . S
O69 Nd41 2.682 . S
O69 C58 1.273 . S
O70 Nd41 2.410 . S
O70 C59 1.251 . S
O71 Nd40 2.424 . S
O71 C59 1.268 . S
H72 C44 0.930 . S
H73 C45 0.929 . S
H74 C47 0.930 . S
H75 C48 0.929 . S
H76 C53 0.930 . S
H77 C54 0.929 . S
H78 C56 0.930 . S
H79 C57 0.929 . S
Nd80 C82 2.836 . S
Nd80 O100 2.500 . S
Nd80 O101 2.492 . S
Nd80 O102 2.487 . S
Nd80 O103 2.682 . S
Nd80 O104 2.410 . S
Nd80 O109 2.414 . S
Nd80 O111 2.424 . S
Nd81 C91 2.836 . S
Nd81 O103 2.414 . S
Nd81 O105 2.424 . S
Nd81 O106 2.500 . S
Nd81 O107 2.492 . S
Nd81 O108 2.487 . S
Nd81 O109 2.682 . S
Nd81 O110 2.410 . S
C82 Nd80 2.836 . S
C82 C83 1.498 . S
C82 O100 1.258 . S
C82 O101 1.239 . S
C83 C82 1.498 . S
C83 C84 1.366 . S
C83 C88 1.407 . S
C84 C83 1.366 . S
C84 C85 1.392 . S
C84 H112 0.930 . S
C85 C84 1.392 . S
C85 C86 1.398 . S
C85 H113 0.929 . S
C86 C85 1.398 . S
C86 C87 1.352 . S
C87 C86 1.352 . S
C87 C88 1.384 . S
C87 H114 0.930 . S
C88 C83 1.407 . S
C88 C87 1.384 . S
C88 H115 0.929 . S
C89 O102 1.241 . S
C89 O103 1.273 . S
C90 O104 1.251 . S
C90 O105 1.268 . S
C91 Nd81 2.836 . S
C91 C92 1.498 . S
C91 O106 1.258 . S
C91 O107 1.239 . S
C92 C91 1.498 . S
C92 C93 1.366 . S
C92 C97 1.407 1_565 S
C93 C92 1.366 . S
C93 C94 1.392 . S
C93 H116 0.930 . S
C94 C93 1.392 . S
C94 C95 1.419 . S
C94 H117 0.929 . S
C95 C94 1.419 . S
C95 C96 1.339 1_565 S
C96 C95 1.339 1_545 S
C96 C97 1.384 . S
C96 H118 0.930 . S
C97 C92 1.407 1_545 S
C97 C96 1.384 . S
C97 H119 0.929 . S
C98 O108 1.241 . S
C98 O109 1.273 . S
C99 O110 1.251 . S
C99 O111 1.268 . S
O100 Nd80 2.500 . S
O100 C82 1.258 . S
O101 Nd80 2.492 . S
O101 C82 1.239 . S
O102 Nd80 2.487 . S
O102 C89 1.241 . S
O103 Nd80 2.682 . S
O103 Nd81 2.414 . S
O103 C89 1.273 . S
O104 Nd80 2.410 . S
O104 C90 1.251 . S
O105 Nd81 2.424 . S
O105 C90 1.268 . S
O106 Nd81 2.500 . S
O106 C91 1.258 . S
O107 Nd81 2.492 . S
O107 C91 1.239 . S
O108 Nd81 2.487 . S
O108 C98 1.241 . S
O109 Nd80 2.414 . S
O109 Nd81 2.682 . S
O109 C98 1.273 . S
O110 Nd81 2.410 . S
O110 C99 1.251 . S
O111 Nd80 2.424 . S
O111 C99 1.268 . S
H112 C84 0.930 . S
H113 C85 0.929 . S
H114 C87 0.930 . S
H115 C88 0.929 . S
H116 C93 0.930 . S
H117 C94 0.929 . S
H118 C96 0.930 . S
H119 C97 0.929 . S
Nd120 C122 2.836 1_554 S
Nd120 O140 2.500 1_554 S
Nd120 O141 2.492 . S
Nd120 O142 2.487 . S
Nd120 O143 2.682 . S
Nd120 O144 2.410 . S
Nd120 O149 2.414 . S
Nd120 O151 2.424 . S
Nd121 C131 2.836 . S
Nd121 O143 2.414 . S
Nd121 O145 2.424 . S
Nd121 O146 2.500 . S
Nd121 O147 2.492 . S
Nd121 O148 2.487 . S
Nd121 O149 2.682 . S
Nd121 O150 2.410 . S
C122 Nd120 2.836 1_556 S
C122 C123 1.498 . S
C122 O140 1.258 . S
C122 O141 1.239 1_556 S
C123 C122 1.498 . S
C123 C124 1.366 . S
C123 C128 1.407 . S
C124 C123 1.366 . S
C124 C125 1.392 . S
C124 H152 0.930 . S
C125 C124 1.392 . S
C125 C126 1.398 . S
C125 H153 0.929 . S
C126 C125 1.398 . S
C126 C127 1.352 . S
C127 C126 1.352 . S
C127 C128 1.384 . S
C127 H154 0.930 . S
C128 C123 1.407 . S
C128 C127 1.384 . S
C128 H155 0.929 . S
C129 O142 1.241 . S
C129 O143 1.273 . S
C130 O144 1.251 . S
C130 O145 1.268 . S
C131 Nd121 2.836 . S
C131 C132 1.498 . S
C131 O146 1.258 . S
C131 O147 1.239 . S
C132 C131 1.498 . S
C132 C133 1.366 . S
C132 C137 1.407 . S
C133 C132 1.366 . S
C133 C134 1.392 . S
C133 H156 0.930 . S
C134 C133 1.392 . S
C134 C135 1.398 . S
C134 H157 0.929 . S
C135 C134 1.398 . S
C135 C136 1.352 . S
C136 C135 1.352 . S
C136 C137 1.384 . S
C136 H158 0.930 . S
C137 C132 1.407 . S
C137 C136 1.384 . S
C137 H159 0.929 . S
C138 O148 1.241 . S
C138 O149 1.273 . S
C139 O150 1.251 . S
C139 O151 1.268 . S
O140 Nd120 2.500 1_556 S
O140 C122 1.258 . S
O141 Nd120 2.492 . S
O141 C122 1.239 1_554 S
O142 Nd120 2.487 . S
O142 C129 1.241 . S
O143 Nd120 2.682 . S
O143 Nd121 2.414 . S
O143 C129 1.273 . S
O144 Nd120 2.410 . S
O144 C130 1.251 . S
O145 Nd121 2.424 . S
O145 C130 1.268 . S
O146 Nd121 2.500 . S
O146 C131 1.258 . S
O147 Nd121 2.492 . S
O147 C131 1.239 . S
O148 Nd121 2.487 . S
O148 C138 1.241 . S
O149 Nd120 2.414 . S
O149 Nd121 2.682 . S
O149 C138 1.273 . S
O150 Nd121 2.410 . S
O150 C139 1.251 . S
O151 Nd120 2.424 . S
O151 C139 1.268 . S
H152 C124 0.930 . S
H153 C125 0.929 . S
H154 C127 0.930 . S
H155 C128 0.929 . S
H156 C133 0.930 . S
H157 C134 0.929 . S
H158 C136 0.930 . S
H159 C137 0.929 . S
Nd160 C162 2.836 . S
Nd160 O180 2.500 . S
Nd160 O181 2.492 . S
Nd160 O182 2.487 . S
Nd160 O183 2.682 . S
Nd160 O184 2.410 . S
Nd160 O189 2.414 . S
Nd160 O191 2.424 . S
Nd161 C171 2.836 . S
Nd161 O183 2.414 . S
Nd161 O185 2.424 . S
Nd161 O186 2.500 . S
Nd161 O187 2.492 . S
Nd161 O188 2.487 . S
Nd161 O189 2.682 . S
Nd161 O190 2.410 . S
C162 Nd160 2.836 . S
C162 C163 1.498 . S
C162 O180 1.258 . S
C162 O181 1.239 . S
C163 C162 1.498 . S
C163 C164 1.366 . S
C163 C168 1.407 . S
C164 C163 1.366 . S
C164 C165 1.392 . S
C164 H192 0.930 . S
C165 C164 1.392 . S
C165 C166 1.398 . S
C165 H193 0.929 . S
C166 C165 1.398 . S
C166 C167 1.352 . S
C167 C166 1.352 . S
C167 C168 1.384 . S
C167 H194 0.930 . S
C168 C163 1.407 . S
C168 C167 1.384 . S
C168 H195 0.929 . S
C169 O182 1.241 . S
C169 O183 1.273 . S
C170 O184 1.251 . S
C170 O185 1.268 . S
C171 Nd161 2.836 . S
C171 C172 1.498 . S
C171 O186 1.258 . S
C171 O187 1.239 . S
C172 C171 1.498 . S
C172 C173 1.366 . S
C172 C177 1.407 1_565 S
C173 C172 1.366 . S
C173 C174 1.392 . S
C173 H196 0.930 . S
C174 C173 1.392 . S
C174 C175 1.419 . S
C174 H197 0.929 . S
C175 C174 1.419 . S
C175 C176 1.339 1_565 S
C176 C175 1.339 1_545 S
C176 C177 1.384 . S
C176 H198 0.930 . S
C177 C172 1.407 1_545 S
C177 C176 1.384 . S
C177 H199 0.929 . S
C178 O188 1.241 . S
C178 O189 1.273 . S
C179 O190 1.251 . S
C179 O191 1.268 . S
O180 Nd160 2.500 . S
O180 C162 1.258 . S
O181 Nd160 2.492 . S
O181 C162 1.239 . S
O182 Nd160 2.487 . S
O182 C169 1.241 . S
O183 Nd160 2.682 . S
O183 Nd161 2.414 . S
O183 C169 1.273 . S
O184 Nd160 2.410 . S
O184 C170 1.251 . S
O185 Nd161 2.424 . S
O185 C170 1.268 . S
O186 Nd161 2.500 . S
O186 C171 1.258 . S
O187 Nd161 2.492 . S
O187 C171 1.239 . S
O188 Nd161 2.487 . S
O188 C178 1.241 . S
O189 Nd160 2.414 . S
O189 Nd161 2.682 . S
O189 C178 1.273 . S
O190 Nd161 2.410 . S
O190 C179 1.251 . S
O191 Nd160 2.424 . S
O191 C179 1.268 . S
H192 C164 0.930 . S
H193 C165 0.929 . S
H194 C167 0.930 . S
H195 C168 0.929 . S
H196 C173 0.930 . S
H197 C174 0.929 . S
H198 C176 0.930 . S
H199 C177 0.929 . S
Nd200 C202 2.836 . S
Nd200 O220 2.500 . S
Nd200 O221 2.492 . S
Nd200 O222 2.487 . S
Nd200 O223 2.682 . S
Nd200 O224 2.410 . S
Nd200 O229 2.414 . S
Nd200 O231 2.424 . S
Nd201 C211 2.836 . S
Nd201 O223 2.414 . S
Nd201 O225 2.424 . S
Nd201 O226 2.500 . S
Nd201 O227 2.492 . S
Nd201 O228 2.487 . S
Nd201 O229 2.682 . S
Nd201 O230 2.410 . S
C202 Nd200 2.836 . S
C202 C203 1.498 . S
C202 O220 1.258 . S
C202 O221 1.239 . S
C203 C202 1.498 . S
C203 C204 1.366 . S
C203 C208 1.407 . S
C204 C203 1.366 . S
C204 C205 1.392 . S
C204 H232 0.930 . S
C205 C204 1.392 . S
C205 C206 1.398 . S
C205 H233 0.929 . S
C206 C205 1.398 . S
C206 C207 1.352 . S
C207 C206 1.352 . S
C207 C208 1.384 . S
C207 H234 0.930 . S
C208 C203 1.407 . S
C208 C207 1.384 . S
C208 H235 0.929 . S
C209 O222 1.241 . S
C209 O223 1.273 . S
C210 O224 1.251 . S
C210 O225 1.268 . S
C211 Nd201 2.836 . S
C211 C212 1.498 . S
C211 O226 1.258 . S
C211 O227 1.239 . S
C212 C211 1.498 . S
C212 C213 1.366 . S
C212 C217 1.407 . S
C213 C212 1.366 . S
C213 C214 1.392 . S
C213 H236 0.930 . S
C214 C213 1.392 . S
C214 C215 1.398 . S
C214 H237 0.929 . S
C215 C214 1.398 . S
C215 C216 1.352 . S
C216 C215 1.352 . S
C216 C217 1.384 . S
C216 H238 0.930 . S
C217 C212 1.407 . S
C217 C216 1.384 . S
C217 H239 0.929 . S
C218 O228 1.241 . S
C218 O229 1.273 . S
C219 O230 1.251 . S
C219 O231 1.268 . S
O220 Nd200 2.500 . S
O220 C202 1.258 . S
O221 Nd200 2.492 . S
O221 C202 1.239 . S
O222 Nd200 2.487 . S
O222 C209 1.241 . S
O223 Nd200 2.682 . S
O223 Nd201 2.414 . S
O223 C209 1.273 . S
O224 Nd200 2.410 . S
O224 C210 1.251 . S
O225 Nd201 2.424 . S
O225 C210 1.268 . S
O226 Nd201 2.500 . S
O226 C211 1.258 . S
O227 Nd201 2.492 . S
O227 C211 1.239 . S
O228 Nd201 2.487 . S
O228 C218 1.241 . S
O229 Nd200 2.414 . S
O229 Nd201 2.682 . S
O229 C218 1.273 . S
O230 Nd201 2.410 . S
O230 C219 1.251 . S
O231 Nd200 2.424 . S
O231 C219 1.268 . S
H232 C204 0.930 . S
H233 C205 0.929 . S
H234 C207 0.930 . S
H235 C208 0.929 . S
H236 C213 0.930 . S
H237 C214 0.929 . S
H238 C216 0.930 . S
H239 C217 0.929 . S
Nd240 C242 2.836 . S
Nd240 O260 2.500 . S
Nd240 O261 2.492 . S
Nd240 O262 2.487 . S
Nd240 O263 2.682 . S
Nd240 O264 2.410 . S
Nd240 O269 2.414 . S
Nd240 O271 2.424 . S
Nd241 C251 2.836 . S
Nd241 O263 2.414 . S
Nd241 O265 2.424 . S
Nd241 O266 2.500 . S
Nd241 O267 2.492 . S
Nd241 O268 2.487 . S
Nd241 O269 2.682 . S
Nd241 O270 2.410 . S
C242 Nd240 2.836 . S
C242 C243 1.498 . S
C242 O260 1.258 . S
C242 O261 1.239 . S
C243 C242 1.498 . S
C243 C244 1.366 . S
C243 C248 1.407 . S
C244 C243 1.366 . S
C244 C245 1.392 . S
C244 H272 0.930 . S
C245 C244 1.392 . S
C245 C246 1.398 . S
C245 H273 0.929 . S
C246 C245 1.398 . S
C246 C247 1.352 . S
C247 C246 1.352 . S
C247 C248 1.384 . S
C247 H274 0.930 . S
C248 C243 1.407 . S
C248 C247 1.384 . S
C248 H275 0.929 . S
C249 O262 1.241 . S
C249 O263 1.273 . S
C250 O264 1.251 . S
C250 O265 1.268 . S
C251 Nd241 2.836 . S
C251 C252 1.498 . S
C251 O266 1.258 . S
C251 O267 1.239 . S
C252 C251 1.498 . S
C252 C253 1.366 . S
C252 C257 1.407 1_545 S
C253 C252 1.366 . S
C253 C254 1.392 . S
C253 H276 0.930 . S
C254 C253 1.392 . S
C254 C255 1.420 . S
C254 H277 0.929 . S
C255 C254 1.420 . S
C255 C256 1.339 1_545 S
C256 C255 1.339 1_565 S
C256 C257 1.384 . S
C256 H278 0.930 . S
C257 C252 1.407 1_565 S
C257 C256 1.384 . S
C257 H279 0.929 . S
C258 O268 1.241 . S
C258 O269 1.273 . S
C259 O270 1.251 . S
C259 O271 1.268 . S
O260 Nd240 2.500 . S
O260 C242 1.258 . S
O261 Nd240 2.492 . S
O261 C242 1.239 . S
O262 Nd240 2.487 . S
O262 C249 1.241 . S
O263 Nd240 2.682 . S
O263 Nd241 2.414 . S
O263 C249 1.273 . S
O264 Nd240 2.410 . S
O264 C250 1.251 . S
O265 Nd241 2.424 . S
O265 C250 1.268 . S
O266 Nd241 2.500 . S
O266 C251 1.258 . S
O267 Nd241 2.492 . S
O267 C251 1.239 . S
O268 Nd241 2.487 . S
O268 C258 1.241 . S
O269 Nd240 2.414 . S
O269 Nd241 2.682 . S
O269 C258 1.273 . S
O270 Nd241 2.410 . S
O270 C259 1.251 . S
O271 Nd240 2.424 . S
O271 C259 1.268 . S
H272 C244 0.930 . S
H273 C245 0.929 . S
H274 C247 0.930 . S
H275 C248 0.929 . S
H276 C253 0.930 . S
H277 C254 0.929 . S
H278 C256 0.930 . S
H279 C257 0.929 . S
Nd280 C282 2.836 1_556 S
Nd280 O300 2.500 1_556 S
Nd280 O301 2.492 . S
Nd280 O302 2.487 . S
Nd280 O303 2.682 . S
Nd280 O304 2.410 . S
Nd280 O309 2.414 . S
Nd280 O311 2.424 . S
Nd281 C291 2.836 . S
Nd281 O303 2.414 . S
Nd281 O305 2.424 . S
Nd281 O306 2.500 . S
Nd281 O307 2.492 . S
Nd281 O308 2.487 . S
Nd281 O309 2.682 . S
Nd281 O310 2.410 . S
C282 Nd280 2.836 1_554 S
C282 C283 1.498 . S
C282 O300 1.258 . S
C282 O301 1.239 1_554 S
C283 C282 1.498 . S
C283 C284 1.366 . S
C283 C288 1.407 . S
C284 C283 1.366 . S
C284 C285 1.392 . S
C284 H312 0.930 . S
C285 C284 1.392 . S
C285 C286 1.398 . S
C285 H313 0.929 . S
C286 C285 1.398 . S
C286 C287 1.352 . S
C287 C286 1.352 . S
C287 C288 1.384 . S
C287 H314 0.930 . S
C288 C283 1.407 . S
C288 C287 1.384 . S
C288 H315 0.929 . S
C289 O302 1.241 . S
C289 O303 1.273 . S
C290 O304 1.251 . S
C290 O305 1.268 . S
C291 Nd281 2.836 . S
C291 C292 1.498 . S
C291 O306 1.258 . S
C291 O307 1.239 . S
C292 C291 1.498 . S
C292 C293 1.366 . S
C292 C297 1.407 . S
C293 C292 1.366 . S
C293 C294 1.392 . S
C293 H316 0.930 . S
C294 C293 1.392 . S
C294 C295 1.398 . S
C294 H317 0.929 . S
C295 C294 1.398 . S
C295 C296 1.352 . S
C296 C295 1.352 . S
C296 C297 1.384 . S
C296 H318 0.930 . S
C297 C292 1.407 . S
C297 C296 1.384 . S
C297 H319 0.929 . S
C298 O308 1.241 . S
C298 O309 1.273 . S
C299 O310 1.251 . S
C299 O311 1.268 . S
O300 Nd280 2.500 1_554 S
O300 C282 1.258 . S
O301 Nd280 2.492 . S
O301 C282 1.239 1_556 S
O302 Nd280 2.487 . S
O302 C289 1.241 . S
O303 Nd280 2.682 . S
O303 Nd281 2.414 . S
O303 C289 1.273 . S
O304 Nd280 2.410 . S
O304 C290 1.251 . S
O305 Nd281 2.424 . S
O305 C290 1.268 . S
O306 Nd281 2.500 . S
O306 C291 1.258 . S
O307 Nd281 2.492 . S
O307 C291 1.239 . S
O308 Nd281 2.487 . S
O308 C298 1.241 . S
O309 Nd280 2.414 . S
O309 Nd281 2.682 . S
O309 C298 1.273 . S
O310 Nd281 2.410 . S
O310 C299 1.251 . S
O311 Nd280 2.424 . S
O311 C299 1.268 . S
H312 C284 0.930 . S
H313 C285 0.929 . S
H314 C287 0.930 . S
H315 C288 0.929 . S
H316 C293 0.930 . S
H317 C294 0.929 . S
H318 C296 0.930 . S
H319 C297 0.929 . S
Nd320 C322 2.836 . S
Nd320 O340 2.500 . S
Nd320 O341 2.492 . S
Nd320 O342 2.487 . S
Nd320 O343 2.682 . S
Nd320 O344 2.410 . S
Nd320 O349 2.414 . S
Nd320 O351 2.424 . S
Nd321 C331 2.836 . S
Nd321 O343 2.414 . S
Nd321 O345 2.424 . S
Nd321 O346 2.500 . S
Nd321 O347 2.492 . S
Nd321 O348 2.487 . S
Nd321 O349 2.682 . S
Nd321 O350 2.410 . S
C322 Nd320 2.836 . S
C322 C323 1.498 . S
C322 O340 1.258 . S
C322 O341 1.239 . S
C323 C322 1.498 . S
C323 C324 1.366 . S
C323 C328 1.407 1_565 S
C324 C323 1.366 . S
C324 C325 1.392 . S
C324 H352 0.930 . S
C325 C324 1.392 . S
C325 C326 1.419 . S
C325 H353 0.929 . S
C326 C325 1.419 . S
C326 C327 1.339 1_565 S
C327 C326 1.339 1_545 S
C327 C328 1.384 . S
C327 H354 0.930 . S
C328 C323 1.407 1_545 S
C328 C327 1.384 . S
C328 H355 0.929 . S
C329 O342 1.241 . S
C329 O343 1.273 . S
C330 O344 1.251 . S
C330 O345 1.268 . S
C331 Nd321 2.836 . S
C331 C332 1.498 . S
C331 O346 1.258 . S
C331 O347 1.239 . S
C332 C331 1.498 . S
C332 C333 1.366 . S
C332 C337 1.407 . S
C333 C332 1.366 . S
C333 C334 1.392 . S
C333 H356 0.930 . S
C334 C333 1.392 . S
C334 C335 1.398 . S
C334 H357 0.929 . S
C335 C334 1.398 . S
C335 C336 1.352 . S
C336 C335 1.352 . S
C336 C337 1.384 . S
C336 H358 0.930 . S
C337 C332 1.407 . S
C337 C336 1.384 . S
C337 H359 0.929 . S
C338 O348 1.241 . S
C338 O349 1.273 . S
C339 O350 1.251 . S
C339 O351 1.268 . S
O340 Nd320 2.500 . S
O340 C322 1.258 . S
O341 Nd320 2.492 . S
O341 C322 1.239 . S
O342 Nd320 2.487 . S
O342 C329 1.241 . S
O343 Nd320 2.682 . S
O343 Nd321 2.414 . S
O343 C329 1.273 . S
O344 Nd320 2.410 . S
O344 C330 1.251 . S
O345 Nd321 2.424 . S
O345 C330 1.268 . S
O346 Nd321 2.500 . S
O346 C331 1.258 . S
O347 Nd321 2.492 . S
O347 C331 1.239 . S
O348 Nd321 2.487 . S
O348 C338 1.241 . S
O349 Nd320 2.414 . S
O349 Nd321 2.682 . S
O349 C338 1.273 . S
O350 Nd321 2.410 . S
O350 C339 1.251 . S
O351 Nd320 2.424 . S
O351 C339 1.268 . S
H352 C324 0.930 . S
H353 C325 0.929 . S
H354 C327 0.930 . S
H355 C328 0.929 . S
H356 C333 0.930 . S
H357 C334 0.929 . S
H358 C336 0.930 . S
H359 C337 0.929 . S
Nd360 C362 2.836 . S
Nd360 O380 2.500 . S
Nd360 O381 2.492 . S
Nd360 O382 2.487 . S
Nd360 O383 2.682 . S
Nd360 O384 2.410 . S
Nd360 O389 2.414 . S
Nd360 O391 2.424 . S
Nd361 C371 2.836 . S
Nd361 O383 2.414 . S
Nd361 O385 2.424 . S
Nd361 O386 2.500 . S
Nd361 O387 2.492 . S
Nd361 O388 2.487 . S
Nd361 O389 2.682 . S
Nd361 O390 2.410 . S
C362 Nd360 2.836 . S
C362 C363 1.498 . S
C362 O380 1.258 . S
C362 O381 1.239 . S
C363 C362 1.498 . S
C363 C364 1.366 . S
C363 C368 1.407 . S
C364 C363 1.366 . S
C364 C365 1.392 . S
C364 H392 0.930 . S
C365 C364 1.392 . S
C365 C366 1.398 . S
C365 H393 0.929 . S
C366 C365 1.398 . S
C366 C367 1.352 . S
C367 C366 1.352 . S
C367 C368 1.384 . S
C367 H394 0.930 . S
C368 C363 1.407 . S
C368 C367 1.384 . S
C368 H395 0.929 . S
C369 O382 1.241 . S
C369 O383 1.273 . S
C370 O384 1.251 . S
C370 O385 1.268 . S
C371 Nd361 2.836 . S
C371 C372 1.498 . S
C371 O386 1.258 . S
C371 O387 1.239 . S
C372 C371 1.498 . S
C372 C373 1.366 . S
C372 C377 1.407 . S
C373 C372 1.366 . S
C373 C374 1.392 . S
C373 H396 0.930 . S
C374 C373 1.392 . S
C374 C375 1.398 . S
C374 H397 0.929 . S
C375 C374 1.398 . S
C375 C376 1.352 . S
C376 C375 1.352 . S
C376 C377 1.384 . S
C376 H398 0.930 . S
C377 C372 1.407 . S
C377 C376 1.384 . S
C377 H399 0.929 . S
C378 O388 1.241 . S
C378 O389 1.273 . S
C379 O390 1.251 . S
C379 O391 1.268 . S
O380 Nd360 2.500 . S
O380 C362 1.258 . S
O381 Nd360 2.492 . S
O381 C362 1.239 . S
O382 Nd360 2.487 . S
O382 C369 1.241 . S
O383 Nd360 2.682 . S
O383 Nd361 2.414 . S
O383 C369 1.273 . S
O384 Nd360 2.410 . S
O384 C370 1.251 . S
O385 Nd361 2.424 . S
O385 C370 1.268 . S
O386 Nd361 2.500 . S
O386 C371 1.258 . S
O387 Nd361 2.492 . S
O387 C371 1.239 . S
O388 Nd361 2.487 . S
O388 C378 1.241 . S
O389 Nd360 2.414 . S
O389 Nd361 2.682 . S
O389 C378 1.273 . S
O390 Nd361 2.410 . S
O390 C379 1.251 . S
O391 Nd360 2.424 . S
O391 C379 1.268 . S
H392 C364 0.930 . S
H393 C365 0.929 . S
H394 C367 0.930 . S
H395 C368 0.929 . S
H396 C373 0.930 . S
H397 C374 0.929 . S
H398 C376 0.930 . S
H399 C377 0.929 . S
Nd400 C402 2.836 . S
Nd400 O420 2.500 . S
Nd400 O421 2.492 . S
Nd400 O422 2.487 . S
Nd400 O423 2.682 . S
Nd400 O424 2.410 . S
Nd400 O429 2.414 . S
Nd400 O431 2.424 . S
Nd401 C411 2.836 . S
Nd401 O423 2.414 . S
Nd401 O425 2.424 . S
Nd401 O426 2.500 . S
Nd401 O427 2.492 . S
Nd401 O428 2.487 . S
Nd401 O429 2.682 . S
Nd401 O430 2.410 . S
C402 Nd400 2.836 . S
C402 C403 1.498 . S
C402 O420 1.258 . S
C402 O421 1.239 . S
C403 C402 1.498 . S
C403 C404 1.366 . S
C403 C408 1.407 1_545 S
C404 C403 1.366 . S
C404 C405 1.392 . S
C404 H432 0.930 . S
C405 C404 1.392 . S
C405 C406 1.419 . S
C405 H433 0.929 . S
C406 C405 1.419 . S
C406 C407 1.339 1_545 S
C407 C406 1.339 1_565 S
C407 C408 1.384 . S
C407 H434 0.930 . S
C408 C403 1.407 1_565 S
C408 C407 1.384 . S
C408 H435 0.929 . S
C409 O422 1.241 . S
C409 O423 1.273 . S
C410 O424 1.251 . S
C410 O425 1.268 . S
C411 Nd401 2.836 . S
C411 C412 1.498 . S
C411 O426 1.258 . S
C411 O427 1.239 . S
C412 C411 1.498 . S
C412 C413 1.366 . S
C412 C417 1.407 . S
C413 C412 1.366 . S
C413 C414 1.392 . S
C413 H436 0.930 . S
C414 C413 1.392 . S
C414 C415 1.398 . S
C414 H437 0.929 . S
C415 C414 1.398 . S
C415 C416 1.352 . S
C416 C415 1.352 . S
C416 C417 1.384 . S
C416 H438 0.930 . S
C417 C412 1.407 . S
C417 C416 1.384 . S
C417 H439 0.929 . S
C418 O428 1.241 . S
C418 O429 1.273 . S
C419 O430 1.251 . S
C419 O431 1.268 . S
O420 Nd400 2.500 . S
O420 C402 1.258 . S
O421 Nd400 2.492 . S
O421 C402 1.239 . S
O422 Nd400 2.487 . S
O422 C409 1.241 . S
O423 Nd400 2.682 . S
O423 Nd401 2.414 . S
O423 C409 1.273 . S
O424 Nd400 2.410 . S
O424 C410 1.251 . S
O425 Nd401 2.424 . S
O425 C410 1.268 . S
O426 Nd401 2.500 . S
O426 C411 1.258 . S
O427 Nd401 2.492 . S
O427 C411 1.239 . S
O428 Nd401 2.487 . S
O428 C418 1.241 . S
O429 Nd400 2.414 . S
O429 Nd401 2.682 . S
O429 C418 1.273 . S
O430 Nd401 2.410 . S
O430 C419 1.251 . S
O431 Nd400 2.424 . S
O431 C419 1.268 . S
H432 C404 0.930 . S
H433 C405 0.929 . S
H434 C407 0.930 . S
H435 C408 0.929 . S
H436 C413 0.930 . S
H437 C414 0.929 . S
H438 C416 0.930 . S
H439 C417 0.929 . S
Nd440 C442 2.836 . S
Nd440 O460 2.500 . S
Nd440 O461 2.492 . S
Nd440 O462 2.487 . S
Nd440 O463 2.682 . S
Nd440 O464 2.410 . S
Nd440 O469 2.414 . S
Nd440 O471 2.424 . S
Nd441 C451 2.836 1_556 S
Nd441 O463 2.414 . S
Nd441 O465 2.424 . S
Nd441 O466 2.500 1_556 S
Nd441 O467 2.492 . S
Nd441 O468 2.487 . S
Nd441 O469 2.682 . S
Nd441 O470 2.410 . S
C442 Nd440 2.836 . S
C442 C443 1.498 . S
C442 O460 1.258 . S
C442 O461 1.239 . S
C443 C442 1.498 . S
C443 C444 1.366 . S
C443 C448 1.407 . S
C444 C443 1.366 . S
C444 C445 1.392 . S
C444 H472 0.930 . S
C445 C444 1.392 . S
C445 C446 1.398 . S
C445 H473 0.929 . S
C446 C445 1.398 . S
C446 C447 1.352 . S
C447 C446 1.352 . S
C447 C448 1.384 . S
C447 H474 0.930 . S
C448 C443 1.407 . S
C448 C447 1.384 . S
C448 H475 0.929 . S
C449 O462 1.241 . S
C449 O463 1.273 . S
C450 O464 1.251 . S
C450 O465 1.268 . S
C451 Nd441 2.836 1_554 S
C451 C452 1.498 . S
C451 O466 1.258 . S
C451 O467 1.239 1_554 S
C452 C451 1.498 . S
C452 C453 1.366 . S
C452 C457 1.407 . S
C453 C452 1.366 . S
C453 C454 1.392 . S
C453 H476 0.930 . S
C454 C453 1.392 . S
C454 C455 1.398 . S
C454 H477 0.929 . S
C455 C454 1.398 . S
C455 C456 1.352 . S
C456 C455 1.352 . S
C456 C457 1.384 . S
C456 H478 0.930 . S
C457 C452 1.407 . S
C457 C456 1.384 . S
C457 H479 0.929 . S
C458 O468 1.241 . S
C458 O469 1.273 . S
C459 O470 1.251 . S
C459 O471 1.268 . S
O460 Nd440 2.500 . S
O460 C442 1.258 . S
O461 Nd440 2.492 . S
O461 C442 1.239 . S
O462 Nd440 2.487 . S
O462 C449 1.241 . S
O463 Nd440 2.682 . S
O463 Nd441 2.414 . S
O463 C449 1.273 . S
O464 Nd440 2.410 . S
O464 C450 1.251 . S
O465 Nd441 2.424 . S
O465 C450 1.268 . S
O466 Nd441 2.500 1_554 S
O466 C451 1.258 . S
O467 Nd441 2.492 . S
O467 C451 1.239 1_556 S
O468 Nd441 2.487 . S
O468 C458 1.241 . S
O469 Nd440 2.414 . S
O469 Nd441 2.682 . S
O469 C458 1.273 . S
O470 Nd441 2.410 . S
O470 C459 1.251 . S
O471 Nd440 2.424 . S
O471 C459 1.268 . S
H472 C444 0.930 . S
H473 C445 0.929 . S
H474 C447 0.930 . S
H475 C448 0.929 . S
H476 C453 0.930 . S
H477 C454 0.929 . S
H478 C456 0.930 . S
H479 C457 0.929 . S
Nd480 C482 2.836 . S
Nd480 O500 2.500 . S
Nd480 O501 2.492 . S
Nd480 O502 2.487 . S
Nd480 O503 2.682 . S
Nd480 O504 2.410 . S
Nd480 O509 2.414 . S
Nd480 O511 2.424 . S
Nd481 C491 2.836 . S
Nd481 O503 2.414 . S
Nd481 O505 2.424 . S
Nd481 O506 2.500 . S
Nd481 O507 2.492 . S
Nd481 O508 2.487 . S
Nd481 O509 2.682 . S
Nd481 O510 2.410 . S
C482 Nd480 2.836 . S
C482 C483 1.498 . S
C482 O500 1.258 . S
C482 O501 1.239 . S
C483 C482 1.498 . S
C483 C484 1.366 . S
C483 C488 1.407 1_545 S
C484 C483 1.366 . S
C484 C485 1.392 . S
C484 H512 0.930 . S
C485 C484 1.392 . S
C485 C486 1.419 . S
C485 H513 0.929 . S
C486 C485 1.419 . S
C486 C487 1.339 1_545 S
C487 C486 1.339 1_565 S
C487 C488 1.384 . S
C487 H514 0.930 . S
C488 C483 1.407 1_565 S
C488 C487 1.384 . S
C488 H515 0.929 . S
C489 O502 1.241 . S
C489 O503 1.273 . S
C490 O504 1.251 . S
C490 O505 1.268 . S
C491 Nd481 2.836 . S
C491 C492 1.498 . S
C491 O506 1.258 . S
C491 O507 1.239 . S
C492 C491 1.498 . S
C492 C493 1.366 . S
C492 C497 1.407 . S
C493 C492 1.366 . S
C493 C494 1.392 . S
C493 H516 0.930 . S
C494 C493 1.392 . S
C494 C495 1.398 . S
C494 H517 0.929 . S
C495 C494 1.398 . S
C495 C496 1.352 . S
C496 C495 1.352 . S
C496 C497 1.384 . S
C496 H518 0.930 . S
C497 C492 1.407 . S
C497 C496 1.384 . S
C497 H519 0.929 . S
C498 O508 1.241 . S
C498 O509 1.273 . S
C499 O510 1.251 . S
C499 O511 1.268 . S
O500 Nd480 2.500 . S
O500 C482 1.258 . S
O501 Nd480 2.492 . S
O501 C482 1.239 . S
O502 Nd480 2.487 . S
O502 C489 1.241 . S
O503 Nd480 2.682 . S
O503 Nd481 2.414 . S
O503 C489 1.273 . S
O504 Nd480 2.410 . S
O504 C490 1.251 . S
O505 Nd481 2.424 . S
O505 C490 1.268 . S
O506 Nd481 2.500 . S
O506 C491 1.258 . S
O507 Nd481 2.492 . S
O507 C491 1.239 . S
O508 Nd481 2.487 . S
O508 C498 1.241 . S
O509 Nd480 2.414 . S
O509 Nd481 2.682 . S
O509 C498 1.273 . S
O510 Nd481 2.410 . S
O510 C499 1.251 . S
O511 Nd480 2.424 . S
O511 C499 1.268 . S
H512 C484 0.930 . S
H513 C485 0.929 . S
H514 C487 0.930 . S
H515 C488 0.929 . S
H516 C493 0.930 . S
H517 C494 0.929 . S
H518 C496 0.930 . S
H519 C497 0.929 . S
Nd520 C522 2.836 . S
Nd520 O540 2.500 . S
Nd520 O541 2.492 . S
Nd520 O542 2.487 . S
Nd520 O543 2.682 . S
Nd520 O544 2.410 . S
Nd520 O549 2.414 . S
Nd520 O551 2.424 . S
Nd521 C531 2.836 . S
Nd521 O543 2.414 . S
Nd521 O545 2.424 . S
Nd521 O546 2.500 . S
Nd521 O547 2.492 . S
Nd521 O548 2.487 . S
Nd521 O549 2.682 . S
Nd521 O550 2.410 . S
C522 Nd520 2.836 . S
C522 C523 1.498 . S
C522 O540 1.258 . S
C522 O541 1.239 . S
C523 C522 1.498 . S
C523 C524 1.366 . S
C523 C528 1.407 . S
C524 C523 1.366 . S
C524 C525 1.392 . S
C524 H552 0.930 . S
C525 C524 1.392 . S
C525 C526 1.398 . S
C525 H553 0.929 . S
C526 C525 1.398 . S
C526 C527 1.352 . S
C527 C526 1.352 . S
C527 C528 1.384 . S
C527 H554 0.930 . S
C528 C523 1.407 . S
C528 C527 1.384 . S
C528 H555 0.929 . S
C529 O542 1.241 . S
C529 O543 1.273 . S
C530 O544 1.251 . S
C530 O545 1.268 . S
C531 Nd521 2.836 . S
C531 C532 1.498 . S
C531 O546 1.258 . S
C531 O547 1.239 . S
C532 C531 1.498 . S
C532 C533 1.366 . S
C532 C537 1.407 . S
C533 C532 1.366 . S
C533 C534 1.392 . S
C533 H556 0.930 . S
C534 C533 1.392 . S
C534 C535 1.398 . S
C534 H557 0.929 . S
C535 C534 1.398 . S
C535 C536 1.352 . S
C536 C535 1.352 . S
C536 C537 1.384 . S
C536 H558 0.930 . S
C537 C532 1.407 . S
C537 C536 1.384 . S
C537 H559 0.929 . S
C538 O548 1.241 . S
C538 O549 1.273 . S
C539 O550 1.251 . S
C539 O551 1.268 . S
O540 Nd520 2.500 . S
O540 C522 1.258 . S
O541 Nd520 2.492 . S
O541 C522 1.239 . S
O542 Nd520 2.487 . S
O542 C529 1.241 . S
O543 Nd520 2.682 . S
O543 Nd521 2.414 . S
O543 C529 1.273 . S
O544 Nd520 2.410 . S
O544 C530 1.251 . S
O545 Nd521 2.424 . S
O545 C530 1.268 . S
O546 Nd521 2.500 . S
O546 C531 1.258 . S
O547 Nd521 2.492 . S
O547 C531 1.239 . S
O548 Nd521 2.487 . S
O548 C538 1.241 . S
O549 Nd520 2.414 . S
O549 Nd521 2.682 . S
O549 C538 1.273 . S
O550 Nd521 2.410 . S
O550 C539 1.251 . S
O551 Nd520 2.424 . S
O551 C539 1.268 . S
H552 C524 0.930 . S
H553 C525 0.929 . S
H554 C527 0.930 . S
H555 C528 0.929 . S
H556 C533 0.930 . S
H557 C534 0.929 . S
H558 C536 0.930 . S
H559 C537 0.929 . S
Nd560 C562 2.836 . S
Nd560 O580 2.500 . S
Nd560 O581 2.492 . S
Nd560 O582 2.487 . S
Nd560 O583 2.682 . S
Nd560 O584 2.410 . S
Nd560 O589 2.414 . S
Nd560 O591 2.424 . S
Nd561 C571 2.836 . S
Nd561 O583 2.414 . S
Nd561 O585 2.424 . S
Nd561 O586 2.500 . S
Nd561 O587 2.492 . S
Nd561 O588 2.487 . S
Nd561 O589 2.682 . S
Nd561 O590 2.410 . S
C562 Nd560 2.836 . S
C562 C563 1.498 . S
C562 O580 1.258 . S
C562 O581 1.239 . S
C563 C562 1.498 . S
C563 C564 1.366 . S
C563 C568 1.407 1_565 S
C564 C563 1.366 . S
C564 C565 1.392 . S
C564 H592 0.930 . S
C565 C564 1.392 . S
C565 C566 1.420 . S
C565 H593 0.929 . S
C566 C565 1.420 . S
C566 C567 1.339 1_565 S
C567 C566 1.339 1_545 S
C567 C568 1.384 . S
C567 H594 0.930 . S
C568 C563 1.407 1_545 S
C568 C567 1.384 . S
C568 H595 0.929 . S
C569 O582 1.241 . S
C569 O583 1.273 . S
C570 O584 1.251 . S
C570 O585 1.268 . S
C571 Nd561 2.836 . S
C571 C572 1.498 . S
C571 O586 1.258 . S
C571 O587 1.239 . S
C572 C571 1.498 . S
C572 C573 1.366 . S
C572 C577 1.407 . S
C573 C572 1.366 . S
C573 C574 1.392 . S
C573 H596 0.930 . S
C574 C573 1.392 . S
C574 C575 1.398 . S
C574 H597 0.929 . S
C575 C574 1.398 . S
C575 C576 1.352 . S
C576 C575 1.352 . S
C576 C577 1.384 . S
C576 H598 0.930 . S
C577 C572 1.407 . S
C577 C576 1.384 . S
C577 H599 0.929 . S
C578 O588 1.241 . S
C578 O589 1.273 . S
C579 O590 1.251 . S
C579 O591 1.268 . S
O580 Nd560 2.500 . S
O580 C562 1.258 . S
O581 Nd560 2.492 . S
O581 C562 1.239 . S
O582 Nd560 2.487 . S
O582 C569 1.241 . S
O583 Nd560 2.682 . S
O583 Nd561 2.414 . S
O583 C569 1.273 . S
O584 Nd560 2.410 . S
O584 C570 1.251 . S
O585 Nd561 2.424 . S
O585 C570 1.268 . S
O586 Nd561 2.500 . S
O586 C571 1.258 . S
O587 Nd561 2.492 . S
O587 C571 1.239 . S
O588 Nd561 2.487 . S
O588 C578 1.241 . S
O589 Nd560 2.414 . S
O589 Nd561 2.682 . S
O589 C578 1.273 . S
O590 Nd561 2.410 . S
O590 C579 1.251 . S
O591 Nd560 2.424 . S
O591 C579 1.268 . S
H592 C564 0.930 . S
H593 C565 0.929 . S
H594 C567 0.930 . S
H595 C568 0.929 . S
H596 C573 0.930 . S
H597 C574 0.929 . S
H598 C576 0.930 . S
H599 C577 0.929 . S
Nd600 C602 2.836 . S
Nd600 O620 2.500 . S
Nd600 O621 2.492 . S
Nd600 O622 2.487 . S
Nd600 O623 2.682 . S
Nd600 O624 2.410 . S
Nd600 O629 2.414 . S
Nd600 O631 2.424 . S
Nd601 C611 2.836 1_554 S
Nd601 O623 2.414 . S
Nd601 O625 2.424 . S
Nd601 O626 2.500 1_554 S
Nd601 O627 2.492 . S
Nd601 O628 2.487 . S
Nd601 O629 2.682 . S
Nd601 O630 2.410 . S
C602 Nd600 2.836 . S
C602 C603 1.498 . S
C602 O620 1.258 . S
C602 O621 1.239 . S
C603 C602 1.498 . S
C603 C604 1.366 . S
C603 C608 1.407 . S
C604 C603 1.366 . S
C604 C605 1.392 . S
C604 H632 0.930 . S
C605 C604 1.392 . S
C605 C606 1.398 . S
C605 H633 0.929 . S
C606 C605 1.398 . S
C606 C607 1.352 . S
C607 C606 1.352 . S
C607 C608 1.384 . S
C607 H634 0.930 . S
C608 C603 1.407 . S
C608 C607 1.384 . S
C608 H635 0.929 . S
C609 O622 1.241 . S
C609 O623 1.273 . S
C610 O624 1.251 . S
C610 O625 1.268 . S
C611 Nd601 2.836 1_556 S
C611 C612 1.498 . S
C611 O626 1.258 . S
C611 O627 1.239 1_556 S
C612 C611 1.498 . S
C612 C613 1.366 . S
C612 C617 1.407 . S
C613 C612 1.366 . S
C613 C614 1.392 . S
C613 H636 0.930 . S
C614 C613 1.392 . S
C614 C615 1.398 . S
C614 H637 0.929 . S
C615 C614 1.398 . S
C615 C616 1.352 . S
C616 C615 1.352 . S
C616 C617 1.384 . S
C616 H638 0.930 . S
C617 C612 1.407 . S
C617 C616 1.384 . S
C617 H639 0.929 . S
C618 O628 1.241 . S
C618 O629 1.273 . S
C619 O630 1.251 . S
C619 O631 1.268 . S
O620 Nd600 2.500 . S
O620 C602 1.258 . S
O621 Nd600 2.492 . S
O621 C602 1.239 . S
O622 Nd600 2.487 . S
O622 C609 1.241 . S
O623 Nd600 2.682 . S
O623 Nd601 2.414 . S
O623 C609 1.273 . S
O624 Nd600 2.410 . S
O624 C610 1.251 . S
O625 Nd601 2.424 . S
O625 C610 1.268 . S
O626 Nd601 2.500 1_556 S
O626 C611 1.258 . S
O627 Nd601 2.492 . S
O627 C611 1.239 1_554 S
O628 Nd601 2.487 . S
O628 C618 1.241 . S
O629 Nd600 2.414 . S
O629 Nd601 2.682 . S
O629 C618 1.273 . S
O630 Nd601 2.410 . S
O630 C619 1.251 . S
O631 Nd600 2.424 . S
O631 C619 1.268 . S
H632 C604 0.930 . S
H633 C605 0.929 . S
H634 C607 0.930 . S
H635 C608 0.929 . S
H636 C613 0.930 . S
H637 C614 0.929 . S
H638 C616 0.930 . S
H639 C617 0.929 . S
Nd640 C642 2.836 . S
Nd640 O660 2.500 . S
Nd640 O661 2.492 . S
Nd640 O662 2.487 . S
Nd640 O663 2.682 . S
Nd640 O664 2.410 . S
Nd640 O669 2.414 . S
Nd640 O671 2.424 . S
Nd641 C651 2.836 . S
Nd641 O663 2.414 . S
Nd641 O665 2.424 . S
Nd641 O666 2.500 . S
Nd641 O667 2.492 . S
Nd641 O668 2.487 . S
Nd641 O669 2.682 . S
Nd641 O670 2.410 . S
C642 Nd640 2.836 . S
C642 C643 1.498 . S
C642 O660 1.258 . S
C642 O661 1.239 . S
C643 C642 1.498 . S
C643 C644 1.366 . S
C643 C648 1.407 . S
C644 C643 1.366 . S
C644 C645 1.392 . S
C644 H672 0.930 . S
C645 C644 1.392 . S
C645 C646 1.398 . S
C645 H673 0.929 . S
C646 C645 1.398 . S
C646 C647 1.352 . S
C647 C646 1.352 . S
C647 C648 1.384 . S
C647 H674 0.930 . S
C648 C643 1.407 . S
C648 C647 1.384 . S
C648 H675 0.929 . S
C649 O662 1.241 . S
C649 O663 1.273 . S
C650 O664 1.251 . S
C650 O665 1.268 . S
C651 Nd641 2.836 . S
C651 C652 1.498 . S
C651 O666 1.258 . S
C651 O667 1.239 . S
C652 C651 1.498 . S
C652 C653 1.366 . S
C652 C657 1.407 . S
C653 C652 1.366 . S
C653 C654 1.392 . S
C653 H676 0.930 . S
C654 C653 1.392 . S
C654 C655 1.398 . S
C654 H677 0.929 . S
C655 C654 1.398 . S
C655 C656 1.352 . S
C656 C655 1.352 . S
C656 C657 1.384 . S
C656 H678 0.930 . S
C657 C652 1.407 . S
C657 C656 1.384 . S
C657 H679 0.929 . S
C658 O668 1.241 . S
C658 O669 1.273 . S
C659 O670 1.251 . S
C659 O671 1.268 . S
O660 Nd640 2.500 . S
O660 C642 1.258 . S
O661 Nd640 2.492 . S
O661 C642 1.239 . S
O662 Nd640 2.487 . S
O662 C649 1.241 . S
O663 Nd640 2.682 . S
O663 Nd641 2.414 . S
O663 C649 1.273 . S
O664 Nd640 2.410 . S
O664 C650 1.251 . S
O665 Nd641 2.424 . S
O665 C650 1.268 . S
O666 Nd641 2.500 . S
O666 C651 1.258 . S
O667 Nd641 2.492 . S
O667 C651 1.239 . S
O668 Nd641 2.487 . S
O668 C658 1.241 . S
O669 Nd640 2.414 . S
O669 Nd641 2.682 . S
O669 C658 1.273 . S
O670 Nd641 2.410 . S
O670 C659 1.251 . S
O671 Nd640 2.424 . S
O671 C659 1.268 . S
H672 C644 0.930 . S
H673 C645 0.929 . S
H674 C647 0.930 . S
H675 C648 0.929 . S
H676 C653 0.930 . S
H677 C654 0.929 . S
H678 C656 0.930 . S
H679 C657 0.929 . S
Nd680 C682 2.836 1_554 S
Nd680 O700 2.500 1_554 S
Nd680 O701 2.492 . S
Nd680 O702 2.487 . S
Nd680 O703 2.682 . S
Nd680 O704 2.410 . S
Nd680 O709 2.414 . S
Nd680 O711 2.424 . S
Nd681 C691 2.836 . S
Nd681 O703 2.414 . S
Nd681 O705 2.424 . S
Nd681 O706 2.500 . S
Nd681 O707 2.492 . S
Nd681 O708 2.487 . S
Nd681 O709 2.682 . S
Nd681 O710 2.410 . S
C682 Nd680 2.836 1_556 S
C682 C683 1.498 . S
C682 O700 1.258 . S
C682 O701 1.239 1_556 S
C683 C682 1.498 . S
C683 C684 1.366 . S
C683 C688 1.407 . S
C684 C683 1.366 . S
C684 C685 1.392 . S
C684 H712 0.930 . S
C685 C684 1.392 . S
C685 C686 1.398 . S
C685 H713 0.929 . S
C686 C685 1.398 . S
C686 C687 1.352 . S
C687 C686 1.352 . S
C687 C688 1.384 . S
C687 H714 0.930 . S
C688 C683 1.407 . S
C688 C687 1.384 . S
C688 H715 0.929 . S
C689 O702 1.241 . S
C689 O703 1.273 . S
C690 O704 1.251 . S
C690 O705 1.268 . S
C691 Nd681 2.836 . S
C691 C692 1.498 . S
C691 O706 1.258 . S
C691 O707 1.239 . S
C692 C691 1.498 . S
C692 C693 1.366 . S
C692 C697 1.407 . S
C693 C692 1.366 . S
C693 C694 1.392 . S
C693 H716 0.930 . S
C694 C693 1.392 . S
C694 C695 1.398 . S
C694 H717 0.929 . S
C695 C694 1.398 . S
C695 C696 1.352 . S
C696 C695 1.352 . S
C696 C697 1.384 . S
C696 H718 0.930 . S
C697 C692 1.407 . S
C697 C696 1.384 . S
C697 H719 0.929 . S
C698 O708 1.241 . S
C698 O709 1.273 . S
C699 O710 1.251 . S
C699 O711 1.268 . S
O700 Nd680 2.500 1_556 S
O700 C682 1.258 . S
O701 Nd680 2.492 . S
O701 C682 1.239 1_554 S
O702 Nd680 2.487 . S
O702 C689 1.241 . S
O703 Nd680 2.682 . S
O703 Nd681 2.414 . S
O703 C689 1.273 . S
O704 Nd680 2.410 . S
O704 C690 1.251 . S
O705 Nd681 2.424 . S
O705 C690 1.268 . S
O706 Nd681 2.500 . S
O706 C691 1.258 . S
O707 Nd681 2.492 . S
O707 C691 1.239 . S
O708 Nd681 2.487 . S
O708 C698 1.241 . S
O709 Nd680 2.414 . S
O709 Nd681 2.682 . S
O709 C698 1.273 . S
O710 Nd681 2.410 . S
O710 C699 1.251 . S
O711 Nd680 2.424 . S
O711 C699 1.268 . S
H712 C684 0.930 . S
H713 C685 0.929 . S
H714 C687 0.930 . S
H715 C688 0.929 . S
H716 C693 0.930 . S
H717 C694 0.929 . S
H718 C696 0.930 . S
H719 C697 0.929 . S
Nd720 C722 2.836 . S
Nd720 O740 2.500 . S
Nd720 O741 2.492 . S
Nd720 O742 2.487 . S
Nd720 O743 2.682 . S
Nd720 O744 2.410 . S
Nd720 O749 2.414 . S
Nd720 O751 2.424 . S
Nd721 C731 2.836 . S
Nd721 O743 2.414 . S
Nd721 O745 2.424 . S
Nd721 O746 2.500 . S
Nd721 O747 2.492 . S
Nd721 O748 2.487 . S
Nd721 O749 2.682 . S
Nd721 O750 2.410 . S
C722 Nd720 2.836 . S
C722 C723 1.498 . S
C722 O740 1.258 . S
C722 O741 1.239 . S
C723 C722 1.498 . S
C723 C724 1.366 . S
C723 C728 1.407 . S
C724 C723 1.366 . S
C724 C725 1.392 . S
C724 H752 0.930 . S
C725 C724 1.392 . S
C725 C726 1.398 . S
C725 H753 0.929 . S
C726 C725 1.398 . S
C726 C727 1.352 . S
C727 C726 1.352 . S
C727 C728 1.384 . S
C727 H754 0.930 . S
C728 C723 1.407 . S
C728 C727 1.384 . S
C728 H755 0.929 . S
C729 O742 1.241 . S
C729 O743 1.273 . S
C730 O744 1.251 . S
C730 O745 1.268 . S
C731 Nd721 2.836 . S
C731 C732 1.498 . S
C731 O746 1.258 . S
C731 O747 1.239 . S
C732 C731 1.498 . S
C732 C733 1.366 . S
C732 C737 1.407 . S
C733 C732 1.366 . S
C733 C734 1.392 . S
C733 H756 0.930 . S
C734 C733 1.392 . S
C734 C735 1.398 . S
C734 H757 0.929 . S
C735 C734 1.398 . S
C735 C736 1.352 . S
C736 C735 1.352 . S
C736 C737 1.384 . S
C736 H758 0.930 . S
C737 C732 1.407 . S
C737 C736 1.384 . S
C737 H759 0.929 . S
C738 O748 1.241 . S
C738 O749 1.273 . S
C739 O750 1.251 . S
C739 O751 1.268 . S
O740 Nd720 2.500 . S
O740 C722 1.258 . S
O741 Nd720 2.492 . S
O741 C722 1.239 . S
O742 Nd720 2.487 . S
O742 C729 1.241 . S
O743 Nd720 2.682 . S
O743 Nd721 2.414 . S
O743 C729 1.273 . S
O744 Nd720 2.410 . S
O744 C730 1.251 . S
O745 Nd721 2.424 . S
O745 C730 1.268 . S
O746 Nd721 2.500 . S
O746 C731 1.258 . S
O747 Nd721 2.492 . S
O747 C731 1.239 . S
O748 Nd721 2.487 . S
O748 C738 1.241 . S
O749 Nd720 2.414 . S
O749 Nd721 2.682 . S
O749 C738 1.273 . S
O750 Nd721 2.410 . S
O750 C739 1.251 . S
O751 Nd720 2.424 . S
O751 C739 1.268 . S
H752 C724 0.930 . S
H753 C725 0.929 . S
H754 C727 0.930 . S
H755 C728 0.929 . S
H756 C733 0.930 . S
H757 C734 0.929 . S
H758 C736 0.930 . S
H759 C737 0.929 . S
Nd760 C762 2.836 . S
Nd760 O780 2.500 . S
Nd760 O781 2.492 . S
Nd760 O782 2.487 . S
Nd760 O783 2.682 . S
Nd760 O784 2.410 . S
Nd760 O789 2.414 . S
Nd760 O791 2.424 . S
Nd761 C771 2.836 . S
Nd761 O783 2.414 . S
Nd761 O785 2.424 . S
Nd761 O786 2.500 . S
Nd761 O787 2.492 . S
Nd761 O788 2.487 . S
Nd761 O789 2.682 . S
Nd761 O790 2.410 . S
C762 Nd760 2.836 . S
C762 C763 1.498 . S
C762 O780 1.258 . S
C762 O781 1.239 . S
C763 C762 1.498 . S
C763 C764 1.366 . S
C763 C768 1.407 . S
C764 C763 1.366 . S
C764 C765 1.392 . S
C764 H792 0.930 . S
C765 C764 1.392 . S
C765 C766 1.398 . S
C765 H793 0.929 . S
C766 C765 1.398 . S
C766 C767 1.352 . S
C767 C766 1.352 . S
C767 C768 1.384 . S
C767 H794 0.930 . S
C768 C763 1.407 . S
C768 C767 1.384 . S
C768 H795 0.929 . S
C769 O782 1.241 . S
C769 O783 1.273 . S
C770 O784 1.251 . S
C770 O785 1.268 . S
C771 Nd761 2.836 . S
C771 C772 1.498 . S
C771 O786 1.258 . S
C771 O787 1.239 . S
C772 C771 1.498 . S
C772 C773 1.366 . S
C772 C777 1.407 . S
C773 C772 1.366 . S
C773 C774 1.392 . S
C773 H796 0.930 . S
C774 C773 1.392 . S
C774 C775 1.398 . S
C774 H797 0.929 . S
C775 C774 1.398 . S
C775 C776 1.352 . S
C776 C775 1.352 . S
C776 C777 1.384 . S
C776 H798 0.930 . S
C777 C772 1.407 . S
C777 C776 1.384 . S
C777 H799 0.929 . S
C778 O788 1.241 . S
C778 O789 1.273 . S
C779 O790 1.251 . S
C779 O791 1.268 . S
O780 Nd760 2.500 . S
O780 C762 1.258 . S
O781 Nd760 2.492 . S
O781 C762 1.239 . S
O782 Nd760 2.487 . S
O782 C769 1.241 . S
O783 Nd760 2.682 . S
O783 Nd761 2.414 . S
O783 C769 1.273 . S
O784 Nd760 2.410 . S
O784 C770 1.251 . S
O785 Nd761 2.424 . S
O785 C770 1.268 . S
O786 Nd761 2.500 . S
O786 C771 1.258 . S
O787 Nd761 2.492 . S
O787 C771 1.239 . S
O788 Nd761 2.487 . S
O788 C778 1.241 . S
O789 Nd760 2.414 . S
O789 Nd761 2.682 . S
O789 C778 1.273 . S
O790 Nd761 2.410 . S
O790 C779 1.251 . S
O791 Nd760 2.424 . S
O791 C779 1.268 . S
H792 C764 0.930 . S
H793 C765 0.929 . S
H794 C767 0.930 . S
H795 C768 0.929 . S
H796 C773 0.930 . S
H797 C774 0.929 . S
H798 C776 0.930 . S
H799 C777 0.929 . S
Nd800 C802 2.836 . S
Nd800 O820 2.500 . S
Nd800 O821 2.492 . S
Nd800 O822 2.487 . S
Nd800 O823 2.682 . S
Nd800 O824 2.410 . S
Nd800 O829 2.414 . S
Nd800 O831 2.424 . S
Nd801 C811 2.836 . S
Nd801 O823 2.414 . S
Nd801 O825 2.424 . S
Nd801 O826 2.500 . S
Nd801 O827 2.492 . S
Nd801 O828 2.487 . S
Nd801 O829 2.682 . S
Nd801 O830 2.410 . S
C802 Nd800 2.836 . S
C802 C803 1.498 . S
C802 O820 1.258 . S
C802 O821 1.239 . S
C803 C802 1.498 . S
C803 C804 1.366 . S
C803 C808 1.407 . S
C804 C803 1.366 . S
C804 C805 1.392 . S
C804 H832 0.930 . S
C805 C804 1.392 . S
C805 C806 1.398 . S
C805 H833 0.929 . S
C806 C805 1.398 . S
C806 C807 1.352 . S
C807 C806 1.352 . S
C807 C808 1.384 . S
C807 H834 0.930 . S
C808 C803 1.407 . S
C808 C807 1.384 . S
C808 H835 0.929 . S
C809 O822 1.241 . S
C809 O823 1.273 . S
C810 O824 1.251 . S
C810 O825 1.268 . S
C811 Nd801 2.836 . S
C811 C812 1.498 . S
C811 O826 1.258 . S
C811 O827 1.239 . S
C812 C811 1.498 . S
C812 C813 1.366 . S
C812 C817 1.407 . S
C813 C812 1.366 . S
C813 C814 1.392 . S
C813 H836 0.930 . S
C814 C813 1.392 . S
C814 C815 1.398 . S
C814 H837 0.929 . S
C815 C814 1.398 . S
C815 C816 1.352 . S
C816 C815 1.352 . S
C816 C817 1.384 . S
C816 H838 0.930 . S
C817 C812 1.407 . S
C817 C816 1.384 . S
C817 H839 0.929 . S
C818 O828 1.241 . S
C818 O829 1.273 . S
C819 O830 1.251 . S
C819 O831 1.268 . S
O820 Nd800 2.500 . S
O820 C802 1.258 . S
O821 Nd800 2.492 . S
O821 C802 1.239 . S
O822 Nd800 2.487 . S
O822 C809 1.241 . S
O823 Nd800 2.682 . S
O823 Nd801 2.414 . S
O823 C809 1.273 . S
O824 Nd800 2.410 . S
O824 C810 1.251 . S
O825 Nd801 2.424 . S
O825 C810 1.268 . S
O826 Nd801 2.500 . S
O826 C811 1.258 . S
O827 Nd801 2.492 . S
O827 C811 1.239 . S
O828 Nd801 2.487 . S
O828 C818 1.241 . S
O829 Nd800 2.414 . S
O829 Nd801 2.682 . S
O829 C818 1.273 . S
O830 Nd801 2.410 . S
O830 C819 1.251 . S
O831 Nd800 2.424 . S
O831 C819 1.268 . S
H832 C804 0.930 . S
H833 C805 0.929 . S
H834 C807 0.930 . S
H835 C808 0.929 . S
H836 C813 0.930 . S
H837 C814 0.929 . S
H838 C816 0.930 . S
H839 C817 0.929 . S
Nd840 C842 2.836 1_556 S
Nd840 O860 2.500 1_556 S
Nd840 O861 2.492 . S
Nd840 O862 2.487 . S
Nd840 O863 2.682 . S
Nd840 O864 2.410 . S
Nd840 O869 2.414 . S
Nd840 O871 2.424 . S
Nd841 C851 2.836 . S
Nd841 O863 2.414 . S
Nd841 O865 2.424 . S
Nd841 O866 2.500 . S
Nd841 O867 2.492 . S
Nd841 O868 2.487 . S
Nd841 O869 2.682 . S
Nd841 O870 2.410 . S
C842 Nd840 2.836 1_554 S
C842 C843 1.498 . S
C842 O860 1.258 . S
C842 O861 1.239 1_554 S
C843 C842 1.498 . S
C843 C844 1.366 . S
C843 C848 1.407 . S
C844 C843 1.366 . S
C844 C845 1.392 . S
C844 H872 0.930 . S
C845 C844 1.392 . S
C845 C846 1.398 . S
C845 H873 0.929 . S
C846 C845 1.398 . S
C846 C847 1.352 . S
C847 C846 1.352 . S
C847 C848 1.384 . S
C847 H874 0.930 . S
C848 C843 1.407 . S
C848 C847 1.384 . S
C848 H875 0.929 . S
C849 O862 1.241 . S
C849 O863 1.273 . S
C850 O864 1.251 . S
C850 O865 1.268 . S
C851 Nd841 2.836 . S
C851 C852 1.498 . S
C851 O866 1.258 . S
C851 O867 1.239 . S
C852 C851 1.498 . S
C852 C853 1.366 . S
C852 C857 1.407 . S
C853 C852 1.366 . S
C853 C854 1.392 . S
C853 H876 0.930 . S
C854 C853 1.392 . S
C854 C855 1.398 . S
C854 H877 0.929 . S
C855 C854 1.398 . S
C855 C856 1.352 . S
C856 C855 1.352 . S
C856 C857 1.384 . S
C856 H878 0.930 . S
C857 C852 1.407 . S
C857 C856 1.384 . S
C857 H879 0.929 . S
C858 O868 1.241 . S
C858 O869 1.273 . S
C859 O870 1.251 . S
C859 O871 1.268 . S
O860 Nd840 2.500 1_554 S
O860 C842 1.258 . S
O861 Nd840 2.492 . S
O861 C842 1.239 1_556 S
O862 Nd840 2.487 . S
O862 C849 1.241 . S
O863 Nd840 2.682 . S
O863 Nd841 2.414 . S
O863 C849 1.273 . S
O864 Nd840 2.410 . S
O864 C850 1.251 . S
O865 Nd841 2.424 . S
O865 C850 1.268 . S
O866 Nd841 2.500 . S
O866 C851 1.258 . S
O867 Nd841 2.492 . S
O867 C851 1.239 . S
O868 Nd841 2.487 . S
O868 C858 1.241 . S
O869 Nd840 2.414 . S
O869 Nd841 2.682 . S
O869 C858 1.273 . S
O870 Nd841 2.410 . S
O870 C859 1.251 . S
O871 Nd840 2.424 . S
O871 C859 1.268 . S
H872 C844 0.930 . S
H873 C845 0.929 . S
H874 C847 0.930 . S
H875 C848 0.929 . S
H876 C853 0.930 . S
H877 C854 0.929 . S
H878 C856 0.930 . S
H879 C857 0.929 . S
Nd880 C882 2.836 . S
Nd880 O900 2.500 . S
Nd880 O901 2.492 . S
Nd880 O902 2.487 . S
Nd880 O903 2.682 . S
Nd880 O904 2.410 . S
Nd880 O909 2.414 . S
Nd880 O911 2.424 . S
Nd881 C891 2.836 . S
Nd881 O903 2.414 . S
Nd881 O905 2.424 . S
Nd881 O906 2.500 . S
Nd881 O907 2.492 . S
Nd881 O908 2.487 . S
Nd881 O909 2.682 . S
Nd881 O910 2.410 . S
C882 Nd880 2.836 . S
C882 C883 1.498 . S
C882 O900 1.258 . S
C882 O901 1.239 . S
C883 C882 1.498 . S
C883 C884 1.366 . S
C883 C888 1.407 . S
C884 C883 1.366 . S
C884 C885 1.392 . S
C884 H912 0.930 . S
C885 C884 1.392 . S
C885 C886 1.398 . S
C885 H913 0.929 . S
C886 C885 1.398 . S
C886 C887 1.352 . S
C887 C886 1.352 . S
C887 C888 1.384 . S
C887 H914 0.930 . S
C888 C883 1.407 . S
C888 C887 1.384 . S
C888 H915 0.929 . S
C889 O902 1.241 . S
C889 O903 1.273 . S
C890 O904 1.251 . S
C890 O905 1.268 . S
C891 Nd881 2.836 . S
C891 C892 1.498 . S
C891 O906 1.258 . S
C891 O907 1.239 . S
C892 C891 1.498 . S
C892 C893 1.366 . S
C892 C897 1.407 . S
C893 C892 1.366 . S
C893 C894 1.392 . S
C893 H916 0.930 . S
C894 C893 1.392 . S
C894 C895 1.398 . S
C894 H917 0.929 . S
C895 C894 1.398 . S
C895 C896 1.352 . S
C896 C895 1.352 . S
C896 C897 1.384 . S
C896 H918 0.930 . S
C897 C892 1.407 . S
C897 C896 1.384 . S
C897 H919 0.929 . S
C898 O908 1.241 . S
C898 O909 1.273 . S
C899 O910 1.251 . S
C899 O911 1.268 . S
O900 Nd880 2.500 . S
O900 C882 1.258 . S
O901 Nd880 2.492 . S
O901 C882 1.239 . S
O902 Nd880 2.487 . S
O902 C889 1.241 . S
O903 Nd880 2.682 . S
O903 Nd881 2.414 . S
O903 C889 1.273 . S
O904 Nd880 2.410 . S
O904 C890 1.251 . S
O905 Nd881 2.424 . S
O905 C890 1.268 . S
O906 Nd881 2.500 . S
O906 C891 1.258 . S
O907 Nd881 2.492 . S
O907 C891 1.239 . S
O908 Nd881 2.487 . S
O908 C898 1.241 . S
O909 Nd880 2.414 . S
O909 Nd881 2.682 . S
O909 C898 1.273 . S
O910 Nd881 2.410 . S
O910 C899 1.251 . S
O911 Nd880 2.424 . S
O911 C899 1.268 . S
H912 C884 0.930 . S
H913 C885 0.929 . S
H914 C887 0.930 . S
H915 C888 0.929 . S
H916 C893 0.930 . S
H917 C894 0.929 . S
H918 C896 0.930 . S
H919 C897 0.929 . S
Nd920 C922 2.836 . S
Nd920 O940 2.500 . S
Nd920 O941 2.492 . S
Nd920 O942 2.487 . S
Nd920 O943 2.682 . S
Nd920 O944 2.410 . S
Nd920 O949 2.414 . S
Nd920 O951 2.424 . S
Nd921 C931 2.836 . S
Nd921 O943 2.414 . S
Nd921 O945 2.424 . S
Nd921 O946 2.500 . S
Nd921 O947 2.492 . S
Nd921 O948 2.487 . S
Nd921 O949 2.682 . S
Nd921 O950 2.410 . S
C922 Nd920 2.836 . S
C922 C923 1.498 . S
C922 O940 1.258 . S
C922 O941 1.239 . S
C923 C922 1.498 . S
C923 C924 1.366 . S
C923 C928 1.407 . S
C924 C923 1.366 . S
C924 C925 1.392 . S
C924 H952 0.930 . S
C925 C924 1.392 . S
C925 C926 1.398 . S
C925 H953 0.929 . S
C926 C925 1.398 . S
C926 C927 1.352 . S
C927 C926 1.352 . S
C927 C928 1.384 . S
C927 H954 0.930 . S
C928 C923 1.407 . S
C928 C927 1.384 . S
C928 H955 0.929 . S
C929 O942 1.241 . S
C929 O943 1.273 . S
C930 O944 1.251 . S
C930 O945 1.268 . S
C931 Nd921 2.836 . S
C931 C932 1.498 . S
C931 O946 1.258 . S
C931 O947 1.239 . S
C932 C931 1.498 . S
C932 C933 1.366 . S
C932 C937 1.407 . S
C933 C932 1.366 . S
C933 C934 1.392 . S
C933 H956 0.930 . S
C934 C933 1.392 . S
C934 C935 1.398 . S
C934 H957 0.929 . S
C935 C934 1.398 . S
C935 C936 1.352 . S
C936 C935 1.352 . S
C936 C937 1.384 . S
C936 H958 0.930 . S
C937 C932 1.407 . S
C937 C936 1.384 . S
C937 H959 0.929 . S
C938 O948 1.241 . S
C938 O949 1.273 . S
C939 O950 1.251 . S
C939 O951 1.268 . S
O940 Nd920 2.500 . S
O940 C922 1.258 . S
O941 Nd920 2.492 . S
O941 C922 1.239 . S
O942 Nd920 2.487 . S
O942 C929 1.241 . S
O943 Nd920 2.682 . S
O943 Nd921 2.414 . S
O943 C929 1.273 . S
O944 Nd920 2.410 . S
O944 C930 1.251 . S
O945 Nd921 2.424 . S
O945 C930 1.268 . S
O946 Nd921 2.500 . S
O946 C931 1.258 . S
O947 Nd921 2.492 . S
O947 C931 1.239 . S
O948 Nd921 2.487 . S
O948 C938 1.241 . S
O949 Nd920 2.414 . S
O949 Nd921 2.682 . S
O949 C938 1.273 . S
O950 Nd921 2.410 . S
O950 C939 1.251 . S
O951 Nd920 2.424 . S
O951 C939 1.268 . S
H952 C924 0.930 . S
H953 C925 0.929 . S
H954 C927 0.930 . S
H955 C928 0.929 . S
H956 C933 0.930 . S
H957 C934 0.929 . S
H958 C936 0.930 . S
H959 C937 0.929 . S
Nd960 C962 2.836 . S
Nd960 O980 2.500 . S
Nd960 O981 2.492 . S
Nd960 O982 2.487 . S
Nd960 O983 2.682 . S
Nd960 O984 2.410 . S
Nd960 O989 2.414 . S
Nd960 O991 2.424 . S
Nd961 C971 2.836 . S
Nd961 O983 2.414 . S
Nd961 O985 2.424 . S
Nd961 O986 2.500 . S
Nd961 O987 2.492 . S
Nd961 O988 2.487 . S
Nd961 O989 2.682 . S
Nd961 O990 2.410 . S
C962 Nd960 2.836 . S
C962 C963 1.498 . S
C962 O980 1.258 . S
C962 O981 1.239 . S
C963 C962 1.498 . S
C963 C964 1.366 . S
C963 C968 1.407 . S
C964 C963 1.366 . S
C964 C965 1.392 . S
C964 H992 0.930 . S
C965 C964 1.392 . S
C965 C966 1.398 . S
C965 H993 0.929 . S
C966 C965 1.398 . S
C966 C967 1.352 . S
C967 C966 1.352 . S
C967 C968 1.384 . S
C967 H994 0.930 . S
C968 C963 1.407 . S
C968 C967 1.384 . S
C968 H995 0.929 . S
C969 O982 1.241 . S
C969 O983 1.273 . S
C970 O984 1.251 . S
C970 O985 1.268 . S
C971 Nd961 2.836 . S
C971 C972 1.498 . S
C971 O986 1.258 . S
C971 O987 1.239 . S
C972 C971 1.498 . S
C972 C973 1.366 . S
C972 C977 1.407 . S
C973 C972 1.366 . S
C973 C974 1.392 . S
C973 H996 0.930 . S
C974 C973 1.392 . S
C974 C975 1.398 . S
C974 H997 0.929 . S
C975 C974 1.398 . S
C975 C976 1.352 . S
C976 C975 1.352 . S
C976 C977 1.384 . S
C976 H998 0.930 . S
C977 C972 1.407 . S
C977 C976 1.384 . S
C977 H999 0.929 . S
C978 O988 1.241 . S
C978 O989 1.273 . S
C979 O990 1.251 . S
C979 O991 1.268 . S
O980 Nd960 2.500 . S
O980 C962 1.258 . S
O981 Nd960 2.492 . S
O981 C962 1.239 . S
O982 Nd960 2.487 . S
O982 C969 1.241 . S
O983 Nd960 2.682 . S
O983 Nd961 2.414 . S
O983 C969 1.273 . S
O984 Nd960 2.410 . S
O984 C970 1.251 . S
O985 Nd961 2.424 . S
O985 C970 1.268 . S
O986 Nd961 2.500 . S
O986 C971 1.258 . S
O987 Nd961 2.492 . S
O987 C971 1.239 . S
O988 Nd961 2.487 . S
O988 C978 1.241 . S
O989 Nd960 2.414 . S
O989 Nd961 2.682 . S
O989 C978 1.273 . S
O990 Nd961 2.410 . S
O990 C979 1.251 . S
O991 Nd960 2.424 . S
O991 C979 1.268 . S
H992 C964 0.930 . S
H993 C965 0.929 . S
H994 C967 0.930 . S
H995 C968 0.929 . S
H996 C973 0.930 . S
H997 C974 0.929 . S
H998 C976 0.930 . S
H999 C977 0.929 . S
Nd1000 C1002 2.836 . S
Nd1000 O1020 2.500 . S
Nd1000 O1021 2.492 . S
Nd1000 O1022 2.487 . S
Nd1000 O1023 2.682 . S
Nd1000 O1024 2.410 . S
Nd1000 O1029 2.414 . S
Nd1000 O1031 2.424 . S
Nd1001 C1011 2.836 1_556 S
Nd1001 O1023 2.414 . S
Nd1001 O1025 2.424 . S
Nd1001 O1026 2.500 1_556 S
Nd1001 O1027 2.492 . S
Nd1001 O1028 2.487 . S
Nd1001 O1029 2.682 . S
Nd1001 O1030 2.410 . S
C1002 Nd1000 2.836 . S
C1002 C1003 1.498 . S
C1002 O1020 1.258 . S
C1002 O1021 1.239 . S
C1003 C1002 1.498 . S
C1003 C1004 1.366 . S
C1003 C1008 1.407 . S
C1004 C1003 1.366 . S
C1004 C1005 1.392 . S
C1004 H1032 0.930 . S
C1005 C1004 1.392 . S
C1005 C1006 1.398 . S
C1005 H1033 0.929 . S
C1006 C1005 1.398 . S
C1006 C1007 1.352 . S
C1007 C1006 1.352 . S
C1007 C1008 1.384 . S
C1007 H1034 0.930 . S
C1008 C1003 1.407 . S
C1008 C1007 1.384 . S
C1008 H1035 0.929 . S
C1009 O1022 1.241 . S
C1009 O1023 1.273 . S
C1010 O1024 1.251 . S
C1010 O1025 1.268 . S
C1011 Nd1001 2.836 1_554 S
C1011 C1012 1.498 . S
C1011 O1026 1.258 . S
C1011 O1027 1.239 1_554 S
C1012 C1011 1.498 . S
C1012 C1013 1.366 . S
C1012 C1017 1.407 . S
C1013 C1012 1.366 . S
C1013 C1014 1.392 . S
C1013 H1036 0.930 . S
C1014 C1013 1.392 . S
C1014 C1015 1.398 . S
C1014 H1037 0.929 . S
C1015 C1014 1.398 . S
C1015 C1016 1.352 . S
C1016 C1015 1.352 . S
C1016 C1017 1.384 . S
C1016 H1038 0.930 . S
C1017 C1012 1.407 . S
C1017 C1016 1.384 . S
C1017 H1039 0.929 . S
C1018 O1028 1.241 . S
C1018 O1029 1.273 . S
C1019 O1030 1.251 . S
C1019 O1031 1.268 . S
O1020 Nd1000 2.500 . S
O1020 C1002 1.258 . S
O1021 Nd1000 2.492 . S
O1021 C1002 1.239 . S
O1022 Nd1000 2.487 . S
O1022 C1009 1.241 . S
O1023 Nd1000 2.682 . S
O1023 Nd1001 2.414 . S
O1023 C1009 1.273 . S
O1024 Nd1000 2.410 . S
O1024 C1010 1.251 . S
O1025 Nd1001 2.424 . S
O1025 C1010 1.268 . S
O1026 Nd1001 2.500 1_554 S
O1026 C1011 1.258 . S
O1027 Nd1001 2.492 . S
O1027 C1011 1.239 1_556 S
O1028 Nd1001 2.487 . S
O1028 C1018 1.241 . S
O1029 Nd1000 2.414 . S
O1029 Nd1001 2.682 . S
O1029 C1018 1.273 . S
O1030 Nd1001 2.410 . S
O1030 C1019 1.251 . S
O1031 Nd1000 2.424 . S
O1031 C1019 1.268 . S
H1032 C1004 0.930 . S
H1033 C1005 0.929 . S
H1034 C1007 0.930 . S
H1035 C1008 0.929 . S
H1036 C1013 0.930 . S
H1037 C1014 0.929 . S
H1038 C1016 0.930 . S
H1039 C1017 0.929 . S
Nd1040 C1042 2.836 . S
Nd1040 O1060 2.500 . S
Nd1040 O1061 2.492 . S
Nd1040 O1062 2.487 . S
Nd1040 O1063 2.682 . S
Nd1040 O1064 2.410 . S
Nd1040 O1069 2.414 . S
Nd1040 O1071 2.424 . S
Nd1041 C1051 2.836 . S
Nd1041 O1063 2.414 . S
Nd1041 O1065 2.424 . S
Nd1041 O1066 2.500 . S
Nd1041 O1067 2.492 . S
Nd1041 O1068 2.487 . S
Nd1041 O1069 2.682 . S
Nd1041 O1070 2.410 . S
C1042 Nd1040 2.836 . S
C1042 C1043 1.498 . S
C1042 O1060 1.258 . S
C1042 O1061 1.239 . S
C1043 C1042 1.498 . S
C1043 C1044 1.366 . S
C1043 C1048 1.407 . S
C1044 C1043 1.366 . S
C1044 C1045 1.392 . S
C1044 H1072 0.930 . S
C1045 C1044 1.392 . S
C1045 C1046 1.398 . S
C1045 H1073 0.929 . S
C1046 C1045 1.398 . S
C1046 C1047 1.352 . S
C1047 C1046 1.352 . S
C1047 C1048 1.384 . S
C1047 H1074 0.930 . S
C1048 C1043 1.407 . S
C1048 C1047 1.384 . S
C1048 H1075 0.929 . S
C1049 O1062 1.241 . S
C1049 O1063 1.273 . S
C1050 O1064 1.251 . S
C1050 O1065 1.268 . S
C1051 Nd1041 2.836 . S
C1051 C1052 1.498 . S
C1051 O1066 1.258 . S
C1051 O1067 1.239 . S
C1052 C1051 1.498 . S
C1052 C1053 1.366 . S
C1052 C1057 1.407 . S
C1053 C1052 1.366 . S
C1053 C1054 1.392 . S
C1053 H1076 0.930 . S
C1054 C1053 1.392 . S
C1054 C1055 1.398 . S
C1054 H1077 0.929 . S
C1055 C1054 1.398 . S
C1055 C1056 1.352 . S
C1056 C1055 1.352 . S
C1056 C1057 1.384 . S
C1056 H1078 0.930 . S
C1057 C1052 1.407 . S
C1057 C1056 1.384 . S
C1057 H1079 0.929 . S
C1058 O1068 1.241 . S
C1058 O1069 1.273 . S
C1059 O1070 1.251 . S
C1059 O1071 1.268 . S
O1060 Nd1040 2.500 . S
O1060 C1042 1.258 . S
O1061 Nd1040 2.492 . S
O1061 C1042 1.239 . S
O1062 Nd1040 2.487 . S
O1062 C1049 1.241 . S
O1063 Nd1040 2.682 . S
O1063 Nd1041 2.414 . S
O1063 C1049 1.273 . S
O1064 Nd1040 2.410 . S
O1064 C1050 1.251 . S
O1065 Nd1041 2.424 . S
O1065 C1050 1.268 . S
O1066 Nd1041 2.500 . S
O1066 C1051 1.258 . S
O1067 Nd1041 2.492 . S
O1067 C1051 1.239 . S
O1068 Nd1041 2.487 . S
O1068 C1058 1.241 . S
O1069 Nd1040 2.414 . S
O1069 Nd1041 2.682 . S
O1069 C1058 1.273 . S
O1070 Nd1041 2.410 . S
O1070 C1059 1.251 . S
O1071 Nd1040 2.424 . S
O1071 C1059 1.268 . S
H1072 C1044 0.930 . S
H1073 C1045 0.929 . S
H1074 C1047 0.930 . S
H1075 C1048 0.929 . S
H1076 C1053 0.930 . S
H1077 C1054 0.929 . S
H1078 C1056 0.930 . S
H1079 C1057 0.929 . S
Nd1080 C1082 2.836 . S
Nd1080 O1100 2.500 . S
Nd1080 O1101 2.492 . S
Nd1080 O1102 2.487 . S
Nd1080 O1103 2.682 . S
Nd1080 O1104 2.410 . S
Nd1080 O1109 2.414 . S
Nd1080 O1111 2.424 . S
Nd1081 C1091 2.836 . S
Nd1081 O1103 2.414 . S
Nd1081 O1105 2.424 . S
Nd1081 O1106 2.500 . S
Nd1081 O1107 2.492 . S
Nd1081 O1108 2.487 . S
Nd1081 O1109 2.682 . S
Nd1081 O1110 2.410 . S
C1082 Nd1080 2.836 . S
C1082 C1083 1.498 . S
C1082 O1100 1.258 . S
C1082 O1101 1.239 . S
C1083 C1082 1.498 . S
C1083 C1084 1.366 . S
C1083 C1088 1.407 . S
C1084 C1083 1.366 . S
C1084 C1085 1.392 . S
C1084 H1112 0.930 . S
C1085 C1084 1.392 . S
C1085 C1086 1.398 . S
C1085 H1113 0.929 . S
C1086 C1085 1.398 . S
C1086 C1087 1.352 . S
C1087 C1086 1.352 . S
C1087 C1088 1.384 . S
C1087 H1114 0.930 . S
C1088 C1083 1.407 . S
C1088 C1087 1.384 . S
C1088 H1115 0.929 . S
C1089 O1102 1.241 . S
C1089 O1103 1.273 . S
C1090 O1104 1.251 . S
C1090 O1105 1.268 . S
C1091 Nd1081 2.836 . S
C1091 C1092 1.498 . S
C1091 O1106 1.258 . S
C1091 O1107 1.239 . S
C1092 C1091 1.498 . S
C1092 C1093 1.366 . S
C1092 C1097 1.407 . S
C1093 C1092 1.366 . S
C1093 C1094 1.392 . S
C1093 H1116 0.930 . S
C1094 C1093 1.392 . S
C1094 C1095 1.398 . S
C1094 H1117 0.929 . S
C1095 C1094 1.398 . S
C1095 C1096 1.352 . S
C1096 C1095 1.352 . S
C1096 C1097 1.384 . S
C1096 H1118 0.930 . S
C1097 C1092 1.407 . S
C1097 C1096 1.384 . S
C1097 H1119 0.929 . S
C1098 O1108 1.241 . S
C1098 O1109 1.273 . S
C1099 O1110 1.251 . S
C1099 O1111 1.268 . S
O1100 Nd1080 2.500 . S
O1100 C1082 1.258 . S
O1101 Nd1080 2.492 . S
O1101 C1082 1.239 . S
O1102 Nd1080 2.487 . S
O1102 C1089 1.241 . S
O1103 Nd1080 2.682 . S
O1103 Nd1081 2.414 . S
O1103 C1089 1.273 . S
O1104 Nd1080 2.410 . S
O1104 C1090 1.251 . S
O1105 Nd1081 2.424 . S
O1105 C1090 1.268 . S
O1106 Nd1081 2.500 . S
O1106 C1091 1.258 . S
O1107 Nd1081 2.492 . S
O1107 C1091 1.239 . S
O1108 Nd1081 2.487 . S
O1108 C1098 1.241 . S
O1109 Nd1080 2.414 . S
O1109 Nd1081 2.682 . S
O1109 C1098 1.273 . S
O1110 Nd1081 2.410 . S
O1110 C1099 1.251 . S
O1111 Nd1080 2.424 . S
O1111 C1099 1.268 . S
H1112 C1084 0.930 . S
H1113 C1085 0.929 . S
H1114 C1087 0.930 . S
H1115 C1088 0.929 . S
H1116 C1093 0.930 . S
H1117 C1094 0.929 . S
H1118 C1096 0.930 . S
H1119 C1097 0.929 . S
Nd1120 C1122 2.836 . S
Nd1120 O1140 2.500 . S
Nd1120 O1141 2.492 . S
Nd1120 O1142 2.487 . S
Nd1120 O1143 2.682 . S
Nd1120 O1144 2.410 . S
Nd1120 O1149 2.414 . S
Nd1120 O1151 2.424 . S
Nd1121 C1131 2.836 . S
Nd1121 O1143 2.414 . S
Nd1121 O1145 2.424 . S
Nd1121 O1146 2.500 . S
Nd1121 O1147 2.492 . S
Nd1121 O1148 2.487 . S
Nd1121 O1149 2.682 . S
Nd1121 O1150 2.410 . S
C1122 Nd1120 2.836 . S
C1122 C1123 1.498 . S
C1122 O1140 1.258 . S
C1122 O1141 1.239 . S
C1123 C1122 1.498 . S
C1123 C1124 1.366 . S
C1123 C1128 1.407 . S
C1124 C1123 1.366 . S
C1124 C1125 1.392 . S
C1124 H1152 0.930 . S
C1125 C1124 1.392 . S
C1125 C1126 1.398 . S
C1125 H1153 0.929 . S
C1126 C1125 1.398 . S
C1126 C1127 1.352 . S
C1127 C1126 1.352 . S
C1127 C1128 1.384 . S
C1127 H1154 0.930 . S
C1128 C1123 1.407 . S
C1128 C1127 1.384 . S
C1128 H1155 0.929 . S
C1129 O1142 1.241 . S
C1129 O1143 1.273 . S
C1130 O1144 1.251 . S
C1130 O1145 1.268 . S
C1131 Nd1121 2.836 . S
C1131 C1132 1.498 . S
C1131 O1146 1.258 . S
C1131 O1147 1.239 . S
C1132 C1131 1.498 . S
C1132 C1133 1.366 . S
C1132 C1137 1.407 . S
C1133 C1132 1.366 . S
C1133 C1134 1.392 . S
C1133 H1156 0.930 . S
C1134 C1133 1.392 . S
C1134 C1135 1.398 . S
C1134 H1157 0.929 . S
C1135 C1134 1.398 . S
C1135 C1136 1.352 . S
C1136 C1135 1.352 . S
C1136 C1137 1.384 . S
C1136 H1158 0.930 . S
C1137 C1132 1.407 . S
C1137 C1136 1.384 . S
C1137 H1159 0.929 . S
C1138 O1148 1.241 . S
C1138 O1149 1.273 . S
C1139 O1150 1.251 . S
C1139 O1151 1.268 . S
O1140 Nd1120 2.500 . S
O1140 C1122 1.258 . S
O1141 Nd1120 2.492 . S
O1141 C1122 1.239 . S
O1142 Nd1120 2.487 . S
O1142 C1129 1.241 . S
O1143 Nd1120 2.682 . S
O1143 Nd1121 2.414 . S
O1143 C1129 1.273 . S
O1144 Nd1120 2.410 . S
O1144 C1130 1.251 . S
O1145 Nd1121 2.424 . S
O1145 C1130 1.268 . S
O1146 Nd1121 2.500 . S
O1146 C1131 1.258 . S
O1147 Nd1121 2.492 . S
O1147 C1131 1.239 . S
O1148 Nd1121 2.487 . S
O1148 C1138 1.241 . S
O1149 Nd1120 2.414 . S
O1149 Nd1121 2.682 . S
O1149 C1138 1.273 . S
O1150 Nd1121 2.410 . S
O1150 C1139 1.251 . S
O1151 Nd1120 2.424 . S
O1151 C1139 1.268 . S
H1152 C1124 0.930 . S
H1153 C1125 0.929 . S
H1154 C1127 0.930 . S
H1155 C1128 0.929 . S
H1156 C1133 0.930 . S
H1157 C1134 0.929 . S
H1158 C1136 0.930 . S
H1159 C1137 0.929 . S
Nd1160 C1162 2.836 . S
Nd1160 O1180 2.500 . S
Nd1160 O1181 2.492 . S
Nd1160 O1182 2.487 . S
Nd1160 O1183 2.682 . S
Nd1160 O1184 2.410 . S
Nd1160 O1189 2.414 . S
Nd1160 O1191 2.424 . S
Nd1161 C1171 2.836 1_554 S
Nd1161 O1183 2.414 . S
Nd1161 O1185 2.424 . S
Nd1161 O1186 2.500 1_554 S
Nd1161 O1187 2.492 . S
Nd1161 O1188 2.487 . S
Nd1161 O1189 2.682 . S
Nd1161 O1190 2.410 . S
C1162 Nd1160 2.836 . S
C1162 C1163 1.498 . S
C1162 O1180 1.258 . S
C1162 O1181 1.239 . S
C1163 C1162 1.498 . S
C1163 C1164 1.366 . S
C1163 C1168 1.407 . S
C1164 C1163 1.366 . S
C1164 C1165 1.392 . S
C1164 H1192 0.930 . S
C1165 C1164 1.392 . S
C1165 C1166 1.398 . S
C1165 H1193 0.929 . S
C1166 C1165 1.398 . S
C1166 C1167 1.352 . S
C1167 C1166 1.352 . S
C1167 C1168 1.384 . S
C1167 H1194 0.930 . S
C1168 C1163 1.407 . S
C1168 C1167 1.384 . S
C1168 H1195 0.929 . S
C1169 O1182 1.241 . S
C1169 O1183 1.273 . S
C1170 O1184 1.251 . S
C1170 O1185 1.268 . S
C1171 Nd1161 2.836 1_556 S
C1171 C1172 1.498 . S
C1171 O1186 1.258 . S
C1171 O1187 1.239 1_556 S
C1172 C1171 1.498 . S
C1172 C1173 1.366 . S
C1172 C1177 1.407 . S
C1173 C1172 1.366 . S
C1173 C1174 1.392 . S
C1173 H1196 0.930 . S
C1174 C1173 1.392 . S
C1174 C1175 1.398 . S
C1174 H1197 0.929 . S
C1175 C1174 1.398 . S
C1175 C1176 1.352 . S
C1176 C1175 1.352 . S
C1176 C1177 1.384 . S
C1176 H1198 0.930 . S
C1177 C1172 1.407 . S
C1177 C1176 1.384 . S
C1177 H1199 0.929 . S
C1178 O1188 1.241 . S
C1178 O1189 1.273 . S
C1179 O1190 1.251 . S
C1179 O1191 1.268 . S
O1180 Nd1160 2.500 . S
O1180 C1162 1.258 . S
O1181 Nd1160 2.492 . S
O1181 C1162 1.239 . S
O1182 Nd1160 2.487 . S
O1182 C1169 1.241 . S
O1183 Nd1160 2.682 . S
O1183 Nd1161 2.414 . S
O1183 C1169 1.273 . S
O1184 Nd1160 2.410 . S
O1184 C1170 1.251 . S
O1185 Nd1161 2.424 . S
O1185 C1170 1.268 . S
O1186 Nd1161 2.500 1_556 S
O1186 C1171 1.258 . S
O1187 Nd1161 2.492 . S
O1187 C1171 1.239 1_554 S
O1188 Nd1161 2.487 . S
O1188 C1178 1.241 . S
O1189 Nd1160 2.414 . S
O1189 Nd1161 2.682 . S
O1189 C1178 1.273 . S
O1190 Nd1161 2.410 . S
O1190 C1179 1.251 . S
O1191 Nd1160 2.424 . S
O1191 C1179 1.268 . S
H1192 C1164 0.930 . S
H1193 C1165 0.929 . S
H1194 C1167 0.930 . S
H1195 C1168 0.929 . S
H1196 C1173 0.930 . S
H1197 C1174 0.929 . S
H1198 C1176 0.930 . S
H1199 C1177 0.929 . S
Nd1200 C1202 2.836 . S
Nd1200 O1220 2.500 . S
Nd1200 O1221 2.492 . S
Nd1200 O1222 2.487 . S
Nd1200 O1223 2.682 . S
Nd1200 O1224 2.410 . S
Nd1200 O1229 2.414 . S
Nd1200 O1231 2.424 . S
Nd1201 C1211 2.836 . S
Nd1201 O1223 2.414 . S
Nd1201 O1225 2.424 . S
Nd1201 O1226 2.500 . S
Nd1201 O1227 2.492 . S
Nd1201 O1228 2.487 . S
Nd1201 O1229 2.682 . S
Nd1201 O1230 2.410 . S
C1202 Nd1200 2.836 . S
C1202 C1203 1.498 . S
C1202 O1220 1.258 . S
C1202 O1221 1.239 . S
C1203 C1202 1.498 . S
C1203 C1204 1.366 . S
C1203 C1208 1.407 . S
C1204 C1203 1.366 . S
C1204 C1205 1.392 . S
C1204 H1232 0.930 . S
C1205 C1204 1.392 . S
C1205 C1206 1.398 . S
C1205 H1233 0.929 . S
C1206 C1205 1.398 . S
C1206 C1207 1.352 . S
C1207 C1206 1.352 . S
C1207 C1208 1.384 . S
C1207 H1234 0.930 . S
C1208 C1203 1.407 . S
C1208 C1207 1.384 . S
C1208 H1235 0.929 . S
C1209 O1222 1.241 . S
C1209 O1223 1.273 . S
C1210 O1224 1.251 . S
C1210 O1225 1.268 . S
C1211 Nd1201 2.836 . S
C1211 C1212 1.498 . S
C1211 O1226 1.258 . S
C1211 O1227 1.239 . S
C1212 C1211 1.498 . S
C1212 C1213 1.366 . S
C1212 C1217 1.407 . S
C1213 C1212 1.366 . S
C1213 C1214 1.392 . S
C1213 H1236 0.930 . S
C1214 C1213 1.392 . S
C1214 C1215 1.398 . S
C1214 H1237 0.929 . S
C1215 C1214 1.398 . S
C1215 C1216 1.352 . S
C1216 C1215 1.352 . S
C1216 C1217 1.384 . S
C1216 H1238 0.930 . S
C1217 C1212 1.407 . S
C1217 C1216 1.384 . S
C1217 H1239 0.929 . S
C1218 O1228 1.241 . S
C1218 O1229 1.273 . S
C1219 O1230 1.251 . S
C1219 O1231 1.268 . S
O1220 Nd1200 2.500 . S
O1220 C1202 1.258 . S
O1221 Nd1200 2.492 . S
O1221 C1202 1.239 . S
O1222 Nd1200 2.487 . S
O1222 C1209 1.241 . S
O1223 Nd1200 2.682 . S
O1223 Nd1201 2.414 . S
O1223 C1209 1.273 . S
O1224 Nd1200 2.410 . S
O1224 C1210 1.251 . S
O1225 Nd1201 2.424 . S
O1225 C1210 1.268 . S
O1226 Nd1201 2.500 . S
O1226 C1211 1.258 . S
O1227 Nd1201 2.492 . S
O1227 C1211 1.239 . S
O1228 Nd1201 2.487 . S
O1228 C1218 1.241 . S
O1229 Nd1200 2.414 . S
O1229 Nd1201 2.682 . S
O1229 C1218 1.273 . S
O1230 Nd1201 2.410 . S
O1230 C1219 1.251 . S
O1231 Nd1200 2.424 . S
O1231 C1219 1.268 . S
H1232 C1204 0.930 . S
H1233 C1205 0.929 . S
H1234 C1207 0.930 . S
H1235 C1208 0.929 . S
H1236 C1213 0.930 . S
H1237 C1214 0.929 . S
H1238 C1216 0.930 . S
H1239 C1217 0.929 . S
Nd1240 C1242 2.836 . S
Nd1240 O1260 2.500 . S
Nd1240 O1261 2.492 . S
Nd1240 O1262 2.487 . S
Nd1240 O1263 2.682 . S
Nd1240 O1264 2.410 . S
Nd1240 O1269 2.414 . S
Nd1240 O1271 2.424 . S
Nd1241 C1251 2.836 . S
Nd1241 O1263 2.414 . S
Nd1241 O1265 2.424 . S
Nd1241 O1266 2.500 . S
Nd1241 O1267 2.492 . S
Nd1241 O1268 2.487 . S
Nd1241 O1269 2.682 . S
Nd1241 O1270 2.410 . S
C1242 Nd1240 2.836 . S
C1242 C1243 1.498 . S
C1242 O1260 1.258 . S
C1242 O1261 1.239 . S
C1243 C1242 1.498 . S
C1243 C1244 1.366 . S
C1243 C1248 1.407 . S
C1244 C1243 1.366 . S
C1244 C1245 1.392 . S
C1244 H1272 0.930 . S
C1245 C1244 1.392 . S
C1245 C1246 1.398 . S
C1245 H1273 0.929 . S
C1246 C1245 1.398 . S
C1246 C1247 1.352 . S
C1247 C1246 1.352 . S
C1247 C1248 1.384 . S
C1247 H1274 0.930 . S
C1248 C1243 1.407 . S
C1248 C1247 1.384 . S
C1248 H1275 0.929 . S
C1249 O1262 1.241 . S
C1249 O1263 1.273 . S
C1250 O1264 1.251 . S
C1250 O1265 1.268 . S
C1251 Nd1241 2.836 . S
C1251 C1252 1.498 . S
C1251 O1266 1.258 . S
C1251 O1267 1.239 . S
C1252 C1251 1.498 . S
C1252 C1253 1.366 . S
C1252 C1257 1.407 . S
C1253 C1252 1.366 . S
C1253 C1254 1.392 . S
C1253 H1276 0.930 . S
C1254 C1253 1.392 . S
C1254 C1255 1.398 . S
C1254 H1277 0.929 . S
C1255 C1254 1.398 . S
C1255 C1256 1.352 . S
C1256 C1255 1.352 . S
C1256 C1257 1.384 . S
C1256 H1278 0.930 . S
C1257 C1252 1.407 . S
C1257 C1256 1.384 . S
C1257 H1279 0.929 . S
C1258 O1268 1.241 . S
C1258 O1269 1.273 . S
C1259 O1270 1.251 . S
C1259 O1271 1.268 . S
O1260 Nd1240 2.500 . S
O1260 C1242 1.258 . S
O1261 Nd1240 2.492 . S
O1261 C1242 1.239 . S
O1262 Nd1240 2.487 . S
O1262 C1249 1.241 . S
O1263 Nd1240 2.682 . S
O1263 Nd1241 2.414 . S
O1263 C1249 1.273 . S
O1264 Nd1240 2.410 . S
O1264 C1250 1.251 . S
O1265 Nd1241 2.424 . S
O1265 C1250 1.268 . S
O1266 Nd1241 2.500 . S
O1266 C1251 1.258 . S
O1267 Nd1241 2.492 . S
O1267 C1251 1.239 . S
O1268 Nd1241 2.487 . S
O1268 C1258 1.241 . S
O1269 Nd1240 2.414 . S
O1269 Nd1241 2.682 . S
O1269 C1258 1.273 . S
O1270 Nd1241 2.410 . S
O1270 C1259 1.251 . S
O1271 Nd1240 2.424 . S
O1271 C1259 1.268 . S
H1272 C1244 0.930 . S
H1273 C1245 0.929 . S
H1274 C1247 0.930 . S
H1275 C1248 0.929 . S
H1276 C1253 0.930 . S
H1277 C1254 0.929 . S
H1278 C1256 0.930 . S
H1279 C1257 0.929 . S
C1280 C1281 1.387 . S
C1280 H1284 0.950 . S
C1280 C1289 1.390 . S
C1281 C1280 1.387 . S
C1281 C1283 1.387 . S
H1282 C1289 0.950 . S
C1283 C1281 1.387 . S
C1283 C1285 1.390 . S
C1283 H1287 0.950 . S
H1284 C1280 0.950 . S
C1285 C1283 1.390 . S
C1285 C1286 1.387 . S
C1285 H1288 0.950 . S
C1286 C1285 1.387 . S
C1286 C1289 1.387 . S
H1287 C1283 0.950 . S
H1288 C1285 0.950 . S
C1289 C1280 1.390 . S
C1289 H1282 0.950 . S
C1289 C1286 1.387 . S
C1290 C1291 1.387 . S
C1290 H1294 0.950 . S
C1290 C1299 1.390 . S
C1291 C1290 1.387 . S
C1291 C1293 1.387 . S
H1292 C1299 0.950 . S
C1293 C1291 1.387 . S
C1293 C1295 1.390 . S
C1293 H1297 0.950 . S
H1294 C1290 0.950 . S
C1295 C1293 1.390 . S
C1295 C1296 1.387 . S
C1295 H1298 0.950 . S
C1296 C1295 1.387 . S
C1296 C1299 1.387 . S
H1297 C1293 0.950 . S
H1298 C1295 0.950 . S
C1299 C1290 1.390 . S
C1299 H1292 0.950 . S
C1299 C1296 1.387 . S
C1300 C1301 1.387 . S
C1300 H1304 0.950 . S
C1300 C1309 1.390 . S
C1301 C1300 1.387 . S
C1301 C1303 1.387 . S
H1302 C1309 0.950 . S
C1303 C1301 1.387 . S
C1303 C1305 1.390 . S
C1303 H1307 0.950 . S
H1304 C1300 0.950 . S
C1305 C1303 1.390 . S
C1305 C1306 1.387 . S
C1305 H1308 0.950 . S
C1306 C1305 1.387 . S
C1306 C1309 1.387 . S
H1307 C1303 0.950 . S
H1308 C1305 0.950 . S
C1309 C1300 1.390 . S
C1309 H1302 0.950 . S
C1309 C1306 1.387 . S
C1310 C1311 1.387 1_554 S
C1310 H1314 0.950 . S
C1310 C1319 1.390 . S
C1311 C1310 1.387 1_556 S
C1311 C1313 1.387 . S
H1312 C1319 0.950 . S
C1313 C1311 1.387 . S
C1313 C1315 1.390 . S
C1313 H1317 0.950 . S
H1314 C1310 0.950 . S
C1315 C1313 1.390 . S
C1315 C1316 1.387 1_556 S
C1315 H1318 0.950 . S
C1316 C1315 1.387 1_554 S
C1316 C1319 1.387 . S
H1317 C1313 0.950 . S
H1318 C1315 0.950 . S
C1319 C1310 1.390 . S
C1319 H1312 0.950 . S
C1319 C1316 1.387 . S
C1320 C1321 1.387 . S
C1320 H1324 0.950 . S
C1320 C1329 1.390 . S
C1321 C1320 1.387 . S
C1321 C1323 1.387 . S
H1322 C1329 0.950 . S
C1323 C1321 1.387 . S
C1323 C1325 1.390 . S
C1323 H1327 0.950 . S
H1324 C1320 0.950 . S
C1325 C1323 1.390 . S
C1325 C1326 1.387 . S
C1325 H1328 0.950 . S
C1326 C1325 1.387 . S
C1326 C1329 1.387 . S
H1327 C1323 0.950 . S
H1328 C1325 0.950 . S
C1329 C1320 1.390 . S
C1329 H1322 0.950 . S
C1329 C1326 1.387 . S
C1330 C1331 1.387 . S
C1330 H1334 0.950 . S
C1330 C1339 1.390 . S
C1331 C1330 1.387 . S
C1331 C1333 1.387 . S
H1332 C1339 0.950 1_545 S
C1333 C1331 1.387 . S
C1333 C1335 1.390 . S
C1333 H1337 0.950 . S
H1334 C1330 0.950 . S
C1335 C1333 1.390 . S
C1335 C1336 1.387 . S
C1335 H1338 0.950 . S
C1336 C1335 1.387 . S
C1336 C1339 1.387 . S
H1337 C1333 0.950 . S
H1338 C1335 0.950 . S
C1339 C1330 1.390 . S
C1339 H1332 0.950 1_565 S
C1339 C1336 1.387 . S
C1340 C1341 1.387 . S
C1340 H1344 0.950 . S
C1340 C1349 1.390 . S
C1341 C1340 1.387 . S
C1341 C1343 1.387 . S
H1342 C1349 0.950 . S
C1343 C1341 1.387 . S
C1343 C1345 1.390 . S
C1343 H1347 0.950 . S
H1344 C1340 0.950 . S
C1345 C1343 1.390 . S
C1345 C1346 1.387 . S
C1345 H1348 0.950 . S
C1346 C1345 1.387 . S
C1346 C1349 1.387 . S
H1347 C1343 0.950 . S
H1348 C1345 0.950 . S
C1349 C1340 1.390 . S
C1349 H1342 0.950 . S
C1349 C1346 1.387 . S
C1350 C1351 1.387 . S
C1350 H1354 0.950 . S
C1350 C1359 1.390 . S
C1351 C1350 1.387 . S
C1351 C1353 1.387 1_554 S
H1352 C1359 0.950 . S
C1353 C1351 1.387 1_556 S
C1353 C1355 1.390 . S
C1353 H1357 0.950 . S
H1354 C1350 0.950 . S
C1355 C1353 1.390 . S
C1355 C1356 1.387 . S
C1355 H1358 0.950 . S
C1356 C1355 1.387 . S
C1356 C1359 1.387 1_556 S
H1357 C1353 0.950 . S
H1358 C1355 0.950 . S
C1359 C1350 1.390 . S
C1359 H1352 0.950 . S
C1359 C1356 1.387 1_554 S
C1360 C1361 1.387 . S
C1360 H1364 0.950 . S
C1360 C1369 1.390 . S
C1361 C1360 1.387 . S
C1361 C1363 1.387 . S
H1362 C1369 0.950 . S
C1363 C1361 1.387 . S
C1363 C1365 1.390 . S
C1363 H1367 0.950 . S
H1364 C1360 0.950 . S
C1365 C1363 1.390 . S
C1365 C1366 1.387 . S
C1365 H1368 0.950 . S
C1366 C1365 1.387 . S
C1366 C1369 1.387 . S
H1367 C1363 0.950 . S
H1368 C1365 0.950 . S
C1369 C1360 1.390 . S
C1369 H1362 0.950 . S
C1369 C1366 1.387 . S
C1370 C1371 1.387 . S
C1370 H1374 0.950 . S
C1370 C1379 1.390 . S
C1371 C1370 1.387 . S
C1371 C1373 1.387 . S
H1372 C1379 0.950 . S
C1373 C1371 1.387 . S
C1373 C1375 1.390 . S
C1373 H1377 0.950 . S
H1374 C1370 0.950 . S
C1375 C1373 1.390 . S
C1375 C1376 1.387 . S
C1375 H1378 0.950 . S
C1376 C1375 1.387 . S
C1376 C1379 1.387 . S
H1377 C1373 0.950 . S
H1378 C1375 0.950 . S
C1379 C1370 1.390 . S
C1379 H1372 0.950 . S
C1379 C1376 1.387 . S
C1380 C1381 1.387 . S
C1380 H1384 0.950 . S
C1380 C1389 1.390 . S
C1381 C1380 1.387 . S
C1381 C1383 1.387 . S
H1382 C1389 0.950 . S
C1383 C1381 1.387 . S
C1383 C1385 1.390 . S
C1383 H1387 0.950 . S
H1384 C1380 0.950 . S
C1385 C1383 1.390 . S
C1385 C1386 1.387 . S
C1385 H1388 0.950 . S
C1386 C1385 1.387 . S
C1386 C1389 1.387 . S
H1387 C1383 0.950 . S
H1388 C1385 0.950 . S
C1389 C1380 1.390 . S
C1389 H1382 0.950 . S
C1389 C1386 1.387 . S
C1390 C1391 1.387 . S
C1390 H1394 0.950 . S
C1390 C1399 1.390 . S
C1391 C1390 1.387 . S
C1391 C1393 1.387 1_556 S
H1392 C1399 0.963 . S
C1393 C1391 1.387 1_554 S
C1393 C1395 1.390 . S
C1393 H1397 0.950 . S
H1394 C1390 0.950 . S
C1395 C1393 1.390 . S
C1395 C1396 1.387 . S
C1395 H1398 0.950 . S
C1396 C1395 1.387 . S
C1396 C1399 1.387 1_554 S
H1397 C1393 0.950 . S
H1398 C1395 0.950 . S
C1399 C1390 1.390 . S
C1399 H1392 0.963 . S
C1399 C1396 1.387 1_556 S
C1400 C1401 1.387 . S
C1400 H1404 0.950 . S
C1400 C1409 1.390 . S
C1401 C1400 1.387 . S
C1401 C1403 1.387 . S
H1402 C1409 0.950 . S
C1403 C1401 1.387 . S
C1403 C1405 1.390 . S
C1403 H1407 0.950 . S
H1404 C1400 0.950 . S
C1405 C1403 1.390 . S
C1405 C1406 1.387 . S
C1405 H1408 0.950 . S
C1406 C1405 1.387 . S
C1406 C1409 1.387 . S
H1407 C1403 0.950 . S
H1408 C1405 0.950 . S
C1409 C1400 1.390 . S
C1409 H1402 0.950 . S
C1409 C1406 1.387 . S
C1410 C1411 1.387 . S
C1410 H1414 0.950 . S
C1410 C1419 1.390 . S
C1411 C1410 1.387 . S
C1411 C1413 1.387 . S
H1412 C1419 0.950 . S
C1413 C1411 1.387 . S
C1413 C1415 1.390 . S
C1413 H1417 0.950 . S
H1414 C1410 0.950 . S
C1415 C1413 1.390 . S
C1415 C1416 1.387 . S
C1415 H1418 0.950 1_545 S
C1416 C1415 1.387 . S
C1416 C1419 1.387 . S
H1417 C1413 0.950 . S
H1418 C1415 0.950 1_565 S
C1419 C1410 1.390 . S
C1419 H1412 0.950 . S
C1419 C1416 1.387 . S
C1420 C1421 1.387 . S
C1420 H1424 0.950 . S
C1420 C1429 1.390 . S
C1421 C1420 1.387 . S
C1421 C1423 1.387 . S
H1422 C1429 0.950 . S
C1423 C1421 1.387 . S
C1423 C1425 1.390 . S
C1423 H1427 0.950 . S
H1424 C1420 0.950 . S
C1425 C1423 1.390 . S
C1425 C1426 1.387 . S
C1425 H1428 0.950 . S
C1426 C1425 1.387 . S
C1426 C1429 1.387 . S
H1427 C1423 0.950 . S
H1428 C1425 0.950 . S
C1429 C1420 1.390 . S
C1429 H1422 0.950 . S
C1429 C1426 1.387 . S
C1430 C1431 1.387 1_554 S
C1430 H1434 0.950 1_565 S
C1430 C1439 1.390 . S
C1431 C1430 1.387 1_556 S
C1431 C1433 1.387 . S
H1432 C1439 0.950 . S
C1433 C1431 1.387 . S
C1433 C1435 1.390 . S
C1433 H1437 0.950 . S
H1434 C1430 0.950 1_545 S
C1435 C1433 1.390 . S
C1435 C1436 1.387 1_556 S
C1435 H1438 0.950 . S
C1436 C1435 1.387 1_554 S
C1436 C1439 1.387 . S
H1437 C1433 0.950 . S
H1438 C1435 0.950 . S
C1439 C1430 1.390 . S
C1439 H1432 0.950 . S
C1439 C1436 1.387 . S
C1440 C1441 1.387 . S
C1440 H1444 0.950 . S
C1440 C1449 1.390 . S
C1441 C1440 1.387 . S
C1441 C1443 1.387 . S
H1442 C1449 0.950 . S
C1443 C1441 1.387 . S
C1443 C1445 1.390 . S
C1443 H1447 0.950 . S
H1444 C1440 0.950 . S
C1445 C1443 1.390 . S
C1445 C1446 1.387 . S
C1445 H1448 0.950 . S
C1446 C1445 1.387 . S
C1446 C1449 1.387 . S
H1447 C1443 0.950 . S
H1448 C1445 0.950 . S
C1449 C1440 1.390 . S
C1449 H1442 0.950 . S
C1449 C1446 1.387 . S
C1450 C1451 1.387 . S
C1450 H1454 0.950 . S
C1450 C1459 1.390 . S
C1451 C1450 1.387 . S
C1451 C1453 1.387 1_556 S
H1452 C1459 0.950 . S
C1453 C1451 1.387 1_554 S
C1453 C1455 1.390 . S
C1453 H1457 0.950 . S
H1454 C1450 0.950 . S
C1455 C1453 1.390 . S
C1455 C1456 1.387 . S
C1455 H1458 0.950 . S
C1456 C1455 1.387 . S
C1456 C1459 1.387 1_554 S
H1457 C1453 0.950 . S
H1458 C1455 0.950 . S
C1459 C1450 1.390 . S
C1459 H1452 0.950 . S
C1459 C1456 1.387 1_556 S
C1460 C1461 1.387 . S
C1460 H1464 0.950 . S
C1460 C1469 1.390 . S
C1461 C1460 1.387 . S
C1461 C1463 1.387 . S
H1462 C1469 0.950 . S
C1463 C1461 1.387 . S
C1463 C1465 1.390 . S
C1463 H1467 0.950 . S
H1464 C1460 0.950 . S
C1465 C1463 1.390 . S
C1465 C1466 1.387 . S
C1465 H1468 0.950 . S
C1466 C1465 1.387 . S
C1466 C1469 1.387 . S
H1467 C1463 0.950 . S
H1468 C1465 0.950 . S
C1469 C1460 1.390 . S
C1469 H1462 0.950 . S
C1469 C1466 1.387 . S
C1470 C1471 1.387 . S
C1470 H1474 0.950 . S
C1470 C1479 1.390 . S
C1471 C1470 1.387 . S
C1471 C1473 1.387 . S
H1472 C1479 0.950 . S
C1473 C1471 1.387 . S
C1473 C1475 1.390 . S
C1473 H1477 0.950 . S
H1474 C1470 0.950 . S
C1475 C1473 1.390 . S
C1475 C1476 1.387 . S
C1475 H1478 0.950 . S
C1476 C1475 1.387 . S
C1476 C1479 1.387 . S
H1477 C1473 0.950 . S
H1478 C1475 0.950 . S
C1479 C1470 1.390 . S
C1479 H1472 0.950 . S
C1479 C1476 1.387 . S
C1480 C1481 1.387 . S
C1480 H1484 0.950 . S
C1480 C1489 1.390 . S
C1481 C1480 1.387 . S
C1481 C1483 1.387 . S
H1482 C1489 0.950 . S
C1483 C1481 1.387 . S
C1483 C1485 1.390 . S
C1483 H1487 0.950 . S
H1484 C1480 0.950 . S
C1485 C1483 1.390 . S
C1485 C1486 1.387 . S
C1485 H1488 0.950 . S
C1486 C1485 1.387 . S
C1486 C1489 1.387 . S
H1487 C1483 0.950 . S
H1488 C1485 0.950 . S
C1489 C1480 1.390 . S
C1489 H1482 0.950 . S
C1489 C1486 1.387 . S
C1490 C1491 1.387 1_556 S
C1490 H1494 0.950 . S
C1490 C1499 1.390 . S
C1491 C1490 1.387 1_554 S
C1491 C1493 1.387 . S
H1492 C1499 0.950 . S
C1493 C1491 1.387 . S
C1493 C1495 1.390 . S
C1493 H1497 0.950 . S
H1494 C1490 0.950 . S
C1495 C1493 1.390 . S
C1495 C1496 1.387 1_554 S
C1495 H1498 0.950 . S
C1496 C1495 1.387 1_556 S
C1496 C1499 1.387 . S
H1497 C1493 0.950 . S
H1498 C1495 0.950 . S
C1499 C1490 1.390 . S
C1499 H1492 0.950 . S
C1499 C1496 1.387 . S
C1500 C1501 1.387 . S
C1500 H1504 0.950 . S
C1500 C1509 1.390 . S
C1501 C1500 1.387 . S
C1501 C1503 1.387 . S
H1502 C1509 0.950 . S
C1503 C1501 1.387 . S
C1503 C1505 1.390 . S
C1503 H1507 0.950 . S
H1504 C1500 0.950 . S
C1505 C1503 1.390 . S
C1505 C1506 1.387 . S
C1505 H1508 0.950 . S
C1506 C1505 1.387 . S
C1506 C1509 1.387 . S
H1507 C1503 0.950 . S
H1508 C1505 0.950 . S
C1509 C1500 1.390 . S
C1509 H1502 0.950 . S
C1509 C1506 1.387 . S
C1510 C1511 1.387 . S
C1510 H1514 0.950 . S
C1510 C1519 1.390 . S
C1511 C1510 1.387 . S
C1511 C1513 1.387 . S
H1512 C1519 0.950 . S
C1513 C1511 1.387 . S
C1513 C1515 1.390 . S
C1513 H1517 0.950 . S
H1514 C1510 0.950 . S
C1515 C1513 1.390 . S
C1515 C1516 1.387 . S
C1515 H1518 0.950 . S
C1516 C1515 1.387 . S
C1516 C1519 1.387 . S
H1517 C1513 0.950 . S
H1518 C1515 0.950 . S
C1519 C1510 1.390 . S
C1519 H1512 0.950 . S
C1519 C1516 1.387 . S
C1520 C1521 1.387 . S
C1520 H1524 0.950 . S
C1520 C1529 1.390 . S
C1521 C1520 1.387 . S
C1521 C1523 1.387 . S
H1522 C1529 0.950 . S
C1523 C1521 1.387 . S
C1523 C1525 1.390 . S
C1523 H1527 0.950 . S
H1524 C1520 0.950 . S
C1525 C1523 1.390 . S
C1525 C1526 1.387 . S
C1525 H1528 0.950 . S
C1526 C1525 1.387 . S
C1526 C1529 1.387 . S
H1527 C1523 0.950 . S
H1528 C1525 0.950 . S
C1529 C1520 1.390 . S
C1529 H1522 0.950 . S
C1529 C1526 1.387 . S
C1530 C1531 1.387 1_556 S
C1530 H1534 0.950 . S
C1530 C1539 1.390 . S
C1531 C1530 1.387 1_554 S
C1531 C1533 1.387 . S
H1532 C1539 0.950 . S
C1533 C1531 1.387 . S
C1533 C1535 1.390 . S
C1533 H1537 0.950 . S
H1534 C1530 0.950 . S
C1535 C1533 1.390 . S
C1535 C1536 1.387 1_554 S
C1535 H1538 0.950 . S
C1536 C1535 1.387 1_556 S
C1536 C1539 1.387 . S
H1537 C1533 0.950 . S
H1538 C1535 0.950 . S
C1539 C1530 1.390 . S
C1539 H1532 0.950 . S
C1539 C1536 1.387 . S
C1540 C1541 1.387 . S
C1540 H1544 0.950 . S
C1540 C1549 1.390 . S
C1541 C1540 1.387 . S
C1541 C1543 1.387 . S
H1542 C1549 0.950 . S
C1543 C1541 1.387 . S
C1543 C1545 1.390 . S
C1543 H1547 0.950 . S
H1544 C1540 0.950 . S
C1545 C1543 1.390 . S
C1545 C1546 1.387 . S
C1545 H1548 0.950 . S
C1546 C1545 1.387 . S
C1546 C1549 1.387 . S
H1547 C1543 0.950 . S
H1548 C1545 0.950 . S
C1549 C1540 1.390 . S
C1549 H1542 0.950 . S
C1549 C1546 1.387 . S
C1550 C1551 1.387 . S
C1550 H1554 0.950 . S
C1550 C1559 1.390 . S
C1551 C1550 1.387 . S
C1551 C1553 1.387 . S
H1552 C1559 0.950 . S
C1553 C1551 1.387 . S
C1553 C1555 1.390 . S
C1553 H1557 0.950 . S
H1554 C1550 0.950 . S
C1555 C1553 1.390 . S
C1555 C1556 1.387 . S
C1555 H1558 0.950 . S
C1556 C1555 1.387 . S
C1556 C1559 1.387 . S
H1557 C1553 0.950 . S
H1558 C1555 0.950 . S
C1559 C1550 1.390 . S
C1559 H1552 0.950 . S
C1559 C1556 1.387 . S
C1560 C1561 1.387 . S
C1560 H1564 0.950 . S
C1560 C1569 1.390 . S
C1561 C1560 1.387 . S
C1561 C1563 1.387 . S
H1562 C1569 0.950 . S
C1563 C1561 1.387 . S
C1563 C1565 1.390 . S
C1563 H1567 0.950 . S
H1564 C1560 0.950 . S
C1565 C1563 1.390 . S
C1565 C1566 1.387 . S
C1565 H1568 0.950 . S
C1566 C1565 1.387 . S
C1566 C1569 1.387 . S
H1567 C1563 0.950 . S
H1568 C1565 0.950 . S
C1569 C1560 1.390 . S
C1569 H1562 0.950 . S
C1569 C1566 1.387 . S
C1570 C1571 1.387 1_554 S
C1570 H1574 0.950 . S
C1570 C1579 1.390 . S
C1571 C1570 1.387 1_556 S
C1571 C1573 1.387 . S
H1572 C1579 0.950 . S
C1573 C1571 1.387 . S
C1573 C1575 1.390 . S
C1573 H1577 0.950 . S
H1574 C1570 0.950 . S
C1575 C1573 1.390 . S
C1575 C1576 1.387 1_556 S
C1575 H1578 0.950 . S
C1576 C1575 1.387 1_554 S
C1576 C1579 1.387 . S
H1577 C1573 0.950 . S
H1578 C1575 0.950 . S
C1579 C1570 1.390 . S
C1579 H1572 0.950 . S
C1579 C1576 1.387 . S
C1580 C1581 1.387 . S
C1580 H1584 0.950 . S
C1580 C1589 1.390 . S
C1581 C1580 1.387 . S
C1581 C1583 1.387 . S
H1582 C1589 0.950 . S
C1583 C1581 1.387 . S
C1583 C1585 1.390 . S
C1583 H1587 0.950 . S
H1584 C1580 0.950 . S
C1585 C1583 1.390 . S
C1585 C1586 1.387 . S
C1585 H1588 0.950 . S
C1586 C1585 1.387 . S
C1586 C1589 1.387 . S
H1587 C1583 0.950 . S
H1588 C1585 0.950 . S
C1589 C1580 1.390 . S
C1589 H1582 0.950 . S
C1589 C1586 1.387 . S
C1590 C1591 1.387 . S
C1590 H1594 0.950 . S
C1590 C1599 1.390 . S
C1591 C1590 1.387 . S
C1591 C1593 1.387 . S
H1592 C1599 0.950 . S
C1593 C1591 1.387 . S
C1593 C1595 1.390 . S
C1593 H1597 0.950 . S
H1594 C1590 0.950 . S
C1595 C1593 1.390 . S
C1595 C1596 1.387 . S
C1595 H1598 0.950 . S
C1596 C1595 1.387 . S
C1596 C1599 1.387 . S
H1597 C1593 0.950 . S
H1598 C1595 0.950 . S
C1599 C1590 1.390 . S
C1599 H1592 0.950 . S
C1599 C1596 1.387 . S
C1600 C1601 1.387 . S
C1600 H1604 0.950 . S
C1600 C1609 1.390 . S
C1601 C1600 1.387 . S
C1601 C1603 1.387 . S
H1602 C1609 0.950 . S
C1603 C1601 1.387 . S
C1603 C1605 1.390 . S
C1603 H1607 0.950 . S
H1604 C1600 0.950 . S
C1605 C1603 1.390 . S
C1605 C1606 1.387 . S
C1605 H1608 0.950 . S
C1606 C1605 1.387 . S
C1606 C1609 1.387 . S
H1607 C1603 0.950 . S
H1608 C1605 0.950 . S
C1609 C1600 1.390 . S
C1609 H1602 0.950 . S
C1609 C1606 1.387 . S
C1610 C1611 1.387 . S
C1610 H1614 0.950 . S
C1610 C1619 1.390 . S
C1611 C1610 1.387 . S
C1611 C1613 1.387 . S
H1612 C1619 0.950 . S
C1613 C1611 1.387 . S
C1613 C1615 1.411 . S
C1613 H1617 0.950 . S
H1614 C1610 0.950 . S
C1615 C1613 1.411 . S
C1615 C1616 1.394 . S
C1615 H1618 0.923 1_455 S
C1616 C1615 1.394 . S
C1616 C1619 1.387 . S
H1617 C1613 0.950 . S
H1618 C1615 0.923 1_655 S
C1619 C1610 1.390 . S
C1619 H1612 0.950 . S
C1619 C1616 1.387 . S
C1620 C1621 1.387 . S
C1620 H1624 0.950 . S
C1620 C1629 1.390 . S
C1621 C1620 1.387 . S
C1621 C1623 1.387 . S
H1622 C1629 0.950 . S
C1623 C1621 1.387 . S
C1623 C1625 1.390 . S
C1623 H1627 0.950 . S
H1624 C1620 0.950 . S
C1625 C1623 1.390 . S
C1625 C1626 1.387 . S
C1625 H1628 0.950 . S
C1626 C1625 1.387 . S
C1626 C1629 1.387 . S
H1627 C1623 0.950 . S
H1628 C1625 0.950 . S
C1629 C1620 1.390 . S
C1629 H1622 0.950 . S
C1629 C1626 1.387 . S
C1630 C1631 1.387 . S
C1630 H1634 0.950 . S
C1630 C1639 1.390 . S
C1631 C1630 1.387 . S
C1631 C1633 1.387 . S
H1632 C1639 0.950 . S
C1633 C1631 1.387 . S
C1633 C1635 1.390 . S
C1633 H1637 0.950 . S
H1634 C1630 0.950 . S
C1635 C1633 1.390 . S
C1635 C1636 1.387 . S
C1635 H1638 0.950 . S
C1636 C1635 1.387 . S
C1636 C1639 1.387 . S
H1637 C1633 0.950 . S
H1638 C1635 0.950 . S
C1639 C1630 1.390 . S
C1639 H1632 0.950 . S
C1639 C1636 1.387 . S
C1640 C1641 1.387 . S
C1640 H1644 0.950 . S
C1640 C1649 1.390 . S
C1641 C1640 1.387 . S
C1641 C1643 1.387 . S
H1642 C1649 0.950 . S
C1643 C1641 1.387 . S
C1643 C1645 1.390 . S
C1643 H1647 0.950 . S
H1644 C1640 0.950 . S
C1645 C1643 1.390 . S
C1645 C1646 1.387 . S
C1645 H1648 0.950 . S
C1646 C1645 1.387 . S
C1646 C1649 1.387 . S
H1647 C1643 0.950 . S
H1648 C1645 0.950 . S
C1649 C1640 1.390 . S
C1649 H1642 0.950 . S
C1649 C1646 1.387 . S
C1650 C1651 1.387 . S
C1650 H1654 0.950 . S
C1650 C1659 1.390 . S
C1651 C1650 1.387 . S
C1651 C1653 1.387 . S
H1652 C1659 0.950 . S
C1653 C1651 1.387 . S
C1653 C1655 1.390 . S
C1653 H1657 0.950 . S
H1654 C1650 0.950 . S
C1655 C1653 1.390 . S
C1655 C1656 1.387 . S
C1655 H1658 0.950 . S
C1656 C1655 1.387 . S
C1656 C1659 1.387 . S
H1657 C1653 0.950 . S
H1658 C1655 0.950 . S
C1659 C1650 1.390 . S
C1659 H1652 0.950 . S
C1659 C1656 1.387 . S
C1660 C1661 1.387 . S
C1660 H1664 0.950 . S
C1660 C1669 1.390 . S
C1661 C1660 1.387 . S
C1661 C1663 1.387 . S
H1662 C1669 0.950 . S
C1663 C1661 1.387 . S
C1663 C1665 1.390 . S
C1663 H1667 0.950 . S
H1664 C1660 0.950 . S
C1665 C1663 1.390 . S
C1665 C1666 1.387 . S
C1665 H1668 0.950 . S
C1666 C1665 1.387 . S
C1666 C1669 1.387 . S
H1667 C1663 0.950 . S
H1668 C1665 0.950 . S
C1669 C1660 1.390 . S
C1669 H1662 0.950 . S
C1669 C1666 1.387 . S
C1670 C1671 1.387 . S
C1670 H1674 0.950 . S
C1670 C1679 1.390 . S
C1671 C1670 1.387 . S
C1671 C1673 1.387 . S
H1672 C1679 0.950 . S
C1673 C1671 1.387 . S
C1673 C1675 1.390 . S
C1673 H1677 0.950 . S
H1674 C1670 0.950 . S
C1675 C1673 1.390 . S
C1675 C1676 1.387 . S
C1675 H1678 0.950 1_455 S
C1676 C1675 1.387 . S
C1676 C1679 1.387 . S
H1677 C1673 0.950 . S
H1678 C1675 0.950 1_655 S
C1679 C1670 1.390 . S
C1679 H1672 0.950 . S
C1679 C1676 1.387 . S
C1680 C1681 1.387 . S
C1680 H1684 0.950 . S
C1680 C1689 1.390 . S
C1681 C1680 1.387 . S
C1681 C1683 1.387 . S
H1682 C1689 0.950 . S
C1683 C1681 1.387 . S
C1683 C1685 1.390 . S
C1683 H1687 0.950 . S
H1684 C1680 0.950 . S
C1685 C1683 1.390 . S
C1685 C1686 1.387 . S
C1685 H1688 0.950 . S
C1686 C1685 1.387 . S
C1686 C1689 1.387 . S
H1687 C1683 0.950 . S
H1688 C1685 0.950 . S
C1689 C1680 1.390 . S
C1689 H1682 0.950 . S
C1689 C1686 1.387 . S
C1690 C1691 1.382 1_455 S
C1690 H1694 0.969 . S
C1690 C1699 1.376 1_455 S
C1691 C1690 1.382 1_655 S
C1691 C1693 1.387 . S
H1692 C1699 0.950 . S
C1693 C1691 1.387 . S
C1693 C1695 1.390 . S
C1693 H1697 0.950 . S
H1694 C1690 0.969 . S
C1695 C1693 1.390 . S
C1695 C1696 1.387 . S
C1695 H1698 0.950 . S
C1696 C1695 1.387 . S
C1696 C1699 1.387 . S
H1697 C1693 0.950 . S
H1698 C1695 0.950 . S
C1699 C1690 1.376 1_655 S
C1699 H1692 0.950 . S
C1699 C1696 1.387 . S
C1700 C1701 1.387 . S
C1700 H1704 0.950 . S
C1700 C1709 1.390 . S
C1701 C1700 1.387 . S
C1701 C1703 1.387 . S
H1702 C1709 0.950 . S
C1703 C1701 1.387 . S
C1703 C1705 1.390 . S
C1703 H1707 0.950 . S
H1704 C1700 0.950 . S
C1705 C1703 1.390 . S
C1705 C1706 1.387 . S
C1705 H1708 0.950 . S
C1706 C1705 1.387 . S
C1706 C1709 1.387 . S
H1707 C1703 0.950 . S
H1708 C1705 0.950 . S
C1709 C1700 1.390 . S
C1709 H1702 0.950 . S
C1709 C1706 1.387 . S
C1710 C1711 1.387 . S
C1710 H1714 0.950 . S
C1710 C1719 1.390 . S
C1711 C1710 1.387 . S
C1711 C1713 1.387 . S
H1712 C1719 0.950 . S
C1713 C1711 1.387 . S
C1713 C1715 1.390 . S
C1713 H1717 0.950 . S
H1714 C1710 0.950 . S
C1715 C1713 1.390 . S
C1715 C1716 1.387 . S
C1715 H1718 0.950 . S
C1716 C1715 1.387 . S
C1716 C1719 1.387 . S
H1717 C1713 0.950 . S
H1718 C1715 0.950 . S
C1719 C1710 1.390 . S
C1719 H1712 0.950 . S
C1719 C1716 1.387 . S
C1720 C1721 1.387 . S
C1720 H1724 0.950 . S
C1720 C1729 1.390 . S
C1721 C1720 1.387 . S
C1721 C1723 1.387 . S
H1722 C1729 0.950 . S
C1723 C1721 1.387 . S
C1723 C1725 1.390 . S
C1723 H1727 0.950 . S
H1724 C1720 0.950 . S
C1725 C1723 1.390 . S
C1725 C1726 1.387 . S
C1725 H1728 0.950 . S
C1726 C1725 1.387 . S
C1726 C1729 1.387 . S
H1727 C1723 0.950 . S
H1728 C1725 0.950 . S
C1729 C1720 1.390 . S
C1729 H1722 0.950 . S
C1729 C1726 1.387 . S
C1730 C1731 1.387 . S
C1730 H1734 0.950 . S
C1730 C1739 1.390 . S
C1731 C1730 1.387 . S
C1731 C1733 1.387 . S
H1732 C1739 0.950 . S
C1733 C1731 1.387 . S
C1733 C1735 1.390 . S
C1733 H1737 0.950 . S
H1734 C1730 0.950 . S
C1735 C1733 1.390 . S
C1735 C1736 1.387 . S
C1735 H1738 0.950 . S
C1736 C1735 1.387 . S
C1736 C1739 1.387 . S
H1737 C1733 0.950 . S
H1738 C1735 0.950 . S
C1739 C1730 1.390 . S
C1739 H1732 0.950 . S
C1739 C1736 1.387 . S
C1740 C1741 1.387 . S
C1740 H1744 0.950 . S
C1740 C1749 1.390 . S
C1741 C1740 1.387 . S
C1741 C1743 1.387 . S
H1742 C1749 0.950 . S
C1743 C1741 1.387 . S
C1743 C1745 1.390 . S
C1743 H1747 0.950 . S
H1744 C1740 0.950 . S
C1745 C1743 1.390 . S
C1745 C1746 1.387 . S
C1745 H1748 0.950 . S
C1746 C1745 1.387 . S
C1746 C1749 1.387 . S
H1747 C1743 0.950 . S
H1748 C1745 0.950 . S
C1749 C1740 1.390 . S
C1749 H1742 0.950 . S
C1749 C1746 1.387 . S
C1750 C1751 1.387 . S
C1750 H1754 0.950 . S
C1750 C1759 1.390 . S
C1751 C1750 1.387 . S
C1751 C1753 1.387 . S
H1752 C1759 0.950 . S
C1753 C1751 1.387 . S
C1753 C1755 1.390 . S
C1753 H1757 0.950 . S
H1754 C1750 0.950 . S
C1755 C1753 1.390 . S
C1755 C1756 1.387 . S
C1755 H1758 0.950 1_655 S
C1756 C1755 1.387 . S
C1756 C1759 1.387 . S
H1757 C1753 0.950 . S
H1758 C1755 0.950 1_455 S
C1759 C1750 1.390 . S
C1759 H1752 0.950 . S
C1759 C1756 1.387 . S
C1760 C1761 1.387 . S
C1760 H1764 0.950 . S
C1760 C1769 1.390 . S
C1761 C1760 1.387 . S
C1761 C1763 1.387 . S
H1762 C1769 0.950 . S
C1763 C1761 1.387 . S
C1763 C1765 1.390 . S
C1763 H1767 0.950 . S
H1764 C1760 0.950 . S
C1765 C1763 1.390 . S
C1765 C1766 1.387 . S
C1765 H1768 0.950 . S
C1766 C1765 1.387 . S
C1766 C1769 1.387 . S
H1767 C1763 0.950 . S
H1768 C1765 0.950 . S
C1769 C1760 1.390 . S
C1769 H1762 0.950 . S
C1769 C1766 1.387 . S
C1770 C1771 1.387 . S
C1770 H1774 0.950 . S
C1770 C1779 1.390 . S
C1771 C1770 1.387 . S
C1771 C1773 1.387 . S
H1772 C1779 0.950 . S
C1773 C1771 1.387 . S
C1773 C1775 1.390 . S
C1773 H1777 0.950 . S
H1774 C1770 0.950 . S
C1775 C1773 1.390 . S
C1775 C1776 1.387 . S
C1775 H1778 0.950 . S
C1776 C1775 1.387 . S
C1776 C1779 1.387 . S
H1777 C1773 0.950 . S
H1778 C1775 0.950 . S
C1779 C1770 1.390 . S
C1779 H1772 0.950 . S
C1779 C1776 1.387 . S
C1780 C1781 1.387 . S
C1780 H1784 0.950 . S
C1780 C1789 1.390 . S
C1781 C1780 1.387 . S
C1781 C1783 1.387 . S
H1782 C1789 0.950 . S
C1783 C1781 1.387 . S
C1783 C1785 1.390 . S
C1783 H1787 0.950 . S
H1784 C1780 0.950 . S
C1785 C1783 1.390 . S
C1785 C1786 1.387 . S
C1785 H1788 0.950 . S
C1786 C1785 1.387 . S
C1786 C1789 1.387 . S
H1787 C1783 0.950 . S
H1788 C1785 0.950 . S
C1789 C1780 1.390 . S
C1789 H1782 0.950 . S
C1789 C1786 1.387 . S
C1790 C1791 1.387 . S
C1790 H1794 0.950 . S
C1790 C1799 1.390 . S
C1791 C1790 1.387 . S
C1791 C1793 1.387 . S
H1792 C1799 0.950 . S
C1793 C1791 1.387 . S
C1793 C1795 1.390 . S
C1793 H1797 0.950 . S
H1794 C1790 0.950 . S
C1795 C1793 1.390 . S
C1795 C1796 1.387 . S
C1795 H1798 0.950 . S
C1796 C1795 1.387 . S
C1796 C1799 1.387 . S
H1797 C1793 0.950 . S
H1798 C1795 0.950 . S
C1799 C1790 1.390 . S
C1799 H1792 0.950 . S
C1799 C1796 1.387 . S
C1800 C1801 1.387 . S
C1800 H1804 0.950 . S
C1800 C1809 1.390 . S
C1801 C1800 1.387 . S
C1801 C1803 1.387 . S
H1802 C1809 0.950 . S
C1803 C1801 1.387 . S
C1803 C1805 1.390 . S
C1803 H1807 0.950 . S
H1804 C1800 0.950 . S
C1805 C1803 1.390 . S
C1805 C1806 1.387 . S
C1805 H1808 0.950 . S
C1806 C1805 1.387 . S
C1806 C1809 1.387 . S
H1807 C1803 0.950 . S
H1808 C1805 0.950 . S
C1809 C1800 1.390 . S
C1809 H1802 0.950 . S
C1809 C1806 1.387 . S
C1810 C1811 1.387 . S
C1810 H1814 0.950 . S
C1810 C1819 1.390 . S
C1811 C1810 1.387 . S
C1811 C1813 1.387 . S
H1812 C1819 0.950 . S
C1813 C1811 1.387 . S
C1813 C1815 1.374 1_655 S
C1813 H1817 0.950 . S
H1814 C1810 0.950 . S
C1815 C1813 1.374 1_455 S
C1815 C1816 1.382 1_455 S
C1815 H1818 0.972 . S
C1816 C1815 1.382 1_655 S
C1816 C1819 1.387 . S
H1817 C1813 0.950 . S
H1818 C1815 0.972 . S
C1819 C1810 1.390 . S
C1819 H1812 0.950 . S
C1819 C1816 1.387 . S
C1820 C1821 1.387 . S
C1820 H1824 0.950 . S
C1820 C1829 1.390 . S
C1821 C1820 1.387 . S
C1821 C1823 1.387 . S
H1822 C1829 0.950 . S
C1823 C1821 1.387 . S
C1823 C1825 1.390 . S
C1823 H1827 0.950 . S
H1824 C1820 0.950 . S
C1825 C1823 1.390 . S
C1825 C1826 1.387 . S
C1825 H1828 0.950 . S
C1826 C1825 1.387 . S
C1826 C1829 1.387 . S
H1827 C1823 0.950 . S
H1828 C1825 0.950 . S
C1829 C1820 1.390 . S
C1829 H1822 0.950 . S
C1829 C1826 1.387 . S
C1830 C1831 1.387 . S
C1830 H1834 0.950 . S
C1830 C1839 1.390 . S
C1831 C1830 1.387 . S
C1831 C1833 1.387 . S
H1832 C1839 0.950 . S
C1833 C1831 1.387 . S
C1833 C1835 1.390 . S
C1833 H1837 0.950 . S
H1834 C1830 0.950 . S
C1835 C1833 1.390 . S
C1835 C1836 1.387 . S
C1835 H1838 0.950 . S
C1836 C1835 1.387 . S
C1836 C1839 1.387 . S
H1837 C1833 0.950 . S
H1838 C1835 0.950 . S
C1839 C1830 1.390 . S
C1839 H1832 0.950 . S
C1839 C1836 1.387 . S
C1840 C1841 1.387 . S
C1840 H1844 0.950 . S
C1840 C1849 1.390 . S
C1841 C1840 1.387 . S
C1841 C1843 1.387 . S
H1842 C1849 0.950 . S
C1843 C1841 1.387 . S
C1843 C1845 1.390 . S
C1843 H1847 0.950 . S
H1844 C1840 0.950 . S
C1845 C1843 1.390 . S
C1845 C1846 1.387 . S
C1845 H1848 0.950 . S
C1846 C1845 1.387 . S
C1846 C1849 1.387 . S
H1847 C1843 0.950 . S
H1848 C1845 0.950 . S
C1849 C1840 1.390 . S
C1849 H1842 0.950 . S
C1849 C1846 1.387 . S
C1850 C1851 1.387 . S
C1850 H1854 0.950 . S
C1850 C1859 1.390 . S
C1851 C1850 1.387 . S
C1851 C1853 1.387 . S
H1852 C1859 0.950 . S
C1853 C1851 1.387 . S
C1853 C1855 1.390 . S
C1853 H1857 0.950 . S
H1854 C1850 0.950 . S
C1855 C1853 1.390 . S
C1855 C1856 1.387 . S
C1855 H1858 0.950 . S
C1856 C1855 1.387 . S
C1856 C1859 1.387 . S
H1857 C1853 0.950 . S
H1858 C1855 0.950 . S
C1859 C1850 1.390 . S
C1859 H1852 0.950 . S
C1859 C1856 1.387 . S
C1860 C1861 1.387 . S
C1860 H1864 0.950 . S
C1860 C1869 1.390 . S
C1861 C1860 1.387 . S
C1861 C1863 1.387 . S
H1862 C1869 0.950 . S
C1863 C1861 1.387 . S
C1863 C1865 1.390 . S
C1863 H1867 0.950 . S
H1864 C1860 0.950 . S
C1865 C1863 1.390 . S
C1865 C1866 1.387 . S
C1865 H1868 0.950 . S
C1866 C1865 1.387 . S
C1866 C1869 1.387 . S
H1867 C1863 0.950 . S
H1868 C1865 0.950 . S
C1869 C1860 1.390 . S
C1869 H1862 0.950 . S
C1869 C1866 1.387 . S
C1870 C1871 1.387 . S
C1870 H1874 0.950 . S
C1870 C1879 1.390 . S
C1871 C1870 1.387 . S
C1871 C1873 1.387 . S
H1872 C1879 0.950 . S
C1873 C1871 1.387 . S
C1873 C1875 1.390 . S
C1873 H1877 0.950 . S
H1874 C1870 0.950 . S
C1875 C1873 1.390 . S
C1875 C1876 1.387 . S
C1875 H1878 0.950 . S
C1876 C1875 1.387 . S
C1876 C1879 1.387 . S
H1877 C1873 0.950 . S
H1878 C1875 0.950 . S
C1879 C1870 1.390 . S
C1879 H1872 0.950 . S
C1879 C1876 1.387 . S
C1880 C1881 1.387 . S
C1880 H1884 0.950 . S
C1880 C1889 1.390 . S
C1881 C1880 1.387 . S
C1881 C1883 1.387 . S
H1882 C1889 0.950 . S
C1883 C1881 1.387 . S
C1883 C1885 1.390 . S
C1883 H1887 0.950 . S
H1884 C1880 0.950 . S
C1885 C1883 1.390 . S
C1885 C1886 1.387 . S
C1885 H1888 0.950 . S
C1886 C1885 1.387 . S
C1886 C1889 1.387 . S
H1887 C1883 0.950 . S
H1888 C1885 0.950 . S
C1889 C1880 1.390 . S
C1889 H1882 0.950 . S
C1889 C1886 1.387 . S
C1890 C1891 1.387 . S
C1890 H1894 0.950 . S
C1890 C1899 1.390 . S
C1891 C1890 1.387 . S
C1891 C1893 1.387 . S
H1892 C1899 0.950 1_655 S
C1893 C1891 1.387 . S
C1893 C1895 1.390 . S
C1893 H1897 0.950 . S
H1894 C1890 0.950 . S
C1895 C1893 1.390 . S
C1895 C1896 1.387 . S
C1895 H1898 0.950 . S
C1896 C1895 1.387 . S
C1896 C1899 1.387 . S
H1897 C1893 0.950 . S
H1898 C1895 0.950 . S
C1899 C1890 1.390 . S
C1899 H1892 0.950 1_455 S
C1899 C1896 1.387 . S
C1900 C1901 1.387 . S
C1900 H1904 0.950 . S
C1900 C1909 1.390 . S
C1901 C1900 1.387 . S
C1901 C1903 1.387 . S
H1902 C1909 0.950 . S
C1903 C1901 1.387 . S
C1903 C1905 1.390 . S
C1903 H1907 0.950 . S
H1904 C1900 0.950 . S
C1905 C1903 1.390 . S
C1905 C1906 1.387 . S
C1905 H1908 0.950 . S
C1906 C1905 1.387 . S
C1906 C1909 1.387 . S
H1907 C1903 0.950 . S
H1908 C1905 0.950 . S
C1909 C1900 1.390 . S
C1909 H1902 0.950 . S
C1909 C1906 1.387 . S
C1910 C1911 1.387 . S
C1910 H1914 0.950 . S
C1910 C1919 1.390 . S
C1911 C1910 1.387 . S
C1911 C1913 1.387 . S
H1912 C1919 0.950 . S
C1913 C1911 1.387 . S
C1913 C1915 1.390 . S
C1913 H1917 0.950 . S
H1914 C1910 0.950 . S
C1915 C1913 1.390 . S
C1915 C1916 1.387 . S
C1915 H1918 0.950 . S
C1916 C1915 1.387 . S
C1916 C1919 1.387 . S
H1917 C1913 0.950 . S
H1918 C1915 0.950 . S
C1919 C1910 1.390 . S
C1919 H1912 0.950 . S
C1919 C1916 1.387 . S
C1920 C1921 1.387 . S
C1920 H1924 0.950 . S
C1920 C1929 1.390 1_545 S
C1921 C1920 1.387 . S
C1921 C1923 1.387 . S
H1922 C1929 0.950 . S
C1923 C1921 1.387 . S
C1923 C1925 1.390 1_545 S
C1923 H1927 0.950 . S
H1924 C1920 0.950 . S
C1925 C1923 1.390 1_565 S
C1925 C1926 1.387 . S
C1925 H1928 0.950 . S
C1926 C1925 1.387 . S
C1926 C1929 1.387 . S
H1927 C1923 0.950 . S
H1928 C1925 0.950 . S
C1929 C1920 1.390 1_565 S
C1929 H1922 0.950 . S
C1929 C1926 1.387 . S
C1930 C1931 1.387 . S
C1930 H1934 0.950 . S
C1930 C1939 1.390 . S
C1931 C1930 1.387 . S
C1931 C1933 1.387 . S
H1932 C1939 0.950 . S
C1933 C1931 1.387 . S
C1933 C1935 1.390 . S
C1933 H1937 0.950 . S
H1934 C1930 0.950 . S
C1935 C1933 1.390 . S
C1935 C1936 1.387 . S
C1935 H1938 0.950 . S
C1936 C1935 1.387 . S
C1936 C1939 1.387 . S
H1937 C1933 0.950 . S
H1938 C1935 0.950 . S
C1939 C1930 1.390 . S
C1939 H1932 0.950 . S
C1939 C1936 1.387 . S
C1940 C1941 1.387 . S
C1940 H1944 0.950 . S
C1940 C1949 1.390 1_565 S
C1941 C1940 1.387 . S
C1941 C1943 1.387 . S
H1942 C1949 0.950 . S
C1943 C1941 1.387 . S
C1943 C1945 1.390 1_565 S
C1943 H1947 0.950 . S
H1944 C1940 0.950 . S
C1945 C1943 1.390 1_545 S
C1945 C1946 1.387 . S
C1945 H1948 0.950 . S
C1946 C1945 1.387 . S
C1946 C1949 1.387 . S
H1947 C1943 0.950 . S
H1948 C1945 0.950 . S
C1949 C1940 1.390 1_545 S
C1949 H1942 0.950 . S
C1949 C1946 1.387 . S
C1950 C1951 1.387 . S
C1950 H1954 0.950 . S
C1950 C1959 1.390 1_556 S
C1951 C1950 1.387 . S
C1951 C1953 1.387 . S
H1952 C1959 0.950 . S
C1953 C1951 1.387 . S
C1953 C1955 1.390 1_556 S
C1953 H1957 0.950 . S
H1954 C1950 0.950 . S
C1955 C1953 1.390 1_554 S
C1955 C1956 1.387 . S
C1955 H1958 0.950 . S
C1956 C1955 1.387 . S
C1956 C1959 1.387 . S
H1957 C1953 0.950 . S
H1958 C1955 0.950 . S
C1959 C1950 1.390 1_554 S
C1959 H1952 0.950 . S
C1959 C1956 1.387 . S
C1960 C1961 1.387 . S
C1960 H1964 0.950 . S
C1960 C1969 1.390 1_545 S
C1961 C1960 1.387 . S
C1961 C1963 1.387 . S
H1962 C1969 0.950 . S
C1963 C1961 1.387 . S
C1963 C1965 1.390 1_545 S
C1963 H1967 0.950 . S
H1964 C1960 0.950 . S
C1965 C1963 1.390 1_565 S
C1965 C1966 1.387 . S
C1965 H1968 0.950 . S
C1966 C1965 1.387 . S
C1966 C1969 1.387 . S
H1967 C1963 0.950 . S
H1968 C1965 0.950 . S
C1969 C1960 1.390 1_565 S
C1969 H1962 0.950 . S
C1969 C1966 1.387 . S
C1970 C1971 1.387 . S
C1970 H1974 0.950 . S
C1970 C1979 1.390 . S
C1971 C1970 1.387 . S
C1971 C1973 1.387 . S
H1972 C1979 0.950 . S
C1973 C1971 1.387 . S
C1973 C1975 1.390 . S
C1973 H1977 0.950 . S
H1974 C1970 0.950 . S
C1975 C1973 1.390 . S
C1975 C1976 1.387 . S
C1975 H1978 0.950 . S
C1976 C1975 1.387 . S
C1976 C1979 1.387 . S
H1977 C1973 0.950 . S
H1978 C1975 0.950 . S
C1979 C1970 1.390 . S
C1979 H1972 0.950 . S
C1979 C1976 1.387 . S
C1980 C1981 1.387 . S
C1980 H1984 0.950 . S
C1980 C1989 1.390 1_545 S
C1981 C1980 1.387 . S
C1981 C1983 1.387 . S
H1982 C1989 0.950 . S
C1983 C1981 1.387 . S
C1983 C1985 1.390 1_545 S
C1983 H1987 0.950 . S
H1984 C1980 0.950 . S
C1985 C1983 1.390 1_565 S
C1985 C1986 1.387 . S
C1985 H1988 0.950 . S
C1986 C1985 1.387 . S
C1986 C1989 1.387 . S
H1987 C1983 0.950 . S
H1988 C1985 0.950 . S
C1989 C1980 1.390 1_565 S
C1989 H1982 0.950 . S
C1989 C1986 1.387 . S
C1990 C1991 1.387 . S
C1990 H1994 0.950 . S
C1990 C1999 1.390 1_556 S
C1991 C1990 1.387 . S
C1991 C1993 1.387 . S
H1992 C1999 0.950 . S
C1993 C1991 1.387 . S
C1993 C1995 1.390 1_556 S
C1993 H1997 0.950 . S
H1994 C1990 0.950 . S
C1995 C1993 1.390 1_554 S
C1995 C1996 1.387 . S
C1995 H1998 0.950 . S
C1996 C1995 1.387 . S
C1996 C1999 1.387 . S
H1997 C1993 0.950 . S
H1998 C1995 0.950 . S
C1999 C1990 1.390 1_554 S
C1999 H1992 0.950 . S
C1999 C1996 1.387 . S
C2000 C2001 1.387 . S
C2000 H2004 0.950 . S
C2000 C2009 1.390 . S
C2001 C2000 1.387 . S
C2001 C2003 1.387 . S
H2002 C2009 0.950 . S
C2003 C2001 1.387 . S
C2003 C2005 1.390 . S
C2003 H2007 0.950 . S
H2004 C2000 0.950 . S
C2005 C2003 1.390 . S
C2005 C2006 1.387 . S
C2005 H2008 0.950 . S
C2006 C2005 1.387 . S
C2006 C2009 1.387 . S
H2007 C2003 0.950 . S
H2008 C2005 0.950 . S
C2009 C2000 1.390 . S
C2009 H2002 0.950 . S
C2009 C2006 1.387 . S
C2010 C2011 1.387 . S
C2010 H2014 0.950 . S
C2010 C2019 1.390 1_556 S
C2011 C2010 1.387 . S
C2011 C2013 1.387 . S
H2012 C2019 0.950 . S
C2013 C2011 1.387 . S
C2013 C2015 1.390 1_556 S
C2013 H2017 0.950 . S
H2014 C2010 0.950 . S
C2015 C2013 1.390 1_554 S
C2015 C2016 1.387 . S
C2015 H2018 0.950 . S
C2016 C2015 1.387 . S
C2016 C2019 1.387 . S
H2017 C2013 0.950 . S
H2018 C2015 0.950 . S
C2019 C2010 1.390 1_554 S
C2019 H2012 0.950 . S
C2019 C2016 1.387 . S
C2020 C2021 1.387 . S
C2020 H2024 0.950 . S
C2020 C2029 1.390 . S
C2021 C2020 1.387 . S
C2021 C2023 1.387 . S
H2022 C2029 0.950 . S
C2023 C2021 1.387 . S
C2023 C2025 1.390 . S
C2023 H2027 0.950 . S
H2024 C2020 0.950 . S
C2025 C2023 1.390 . S
C2025 C2026 1.387 . S
C2025 H2028 0.950 . S
C2026 C2025 1.387 . S
C2026 C2029 1.387 . S
H2027 C2023 0.950 . S
H2028 C2025 0.950 . S
C2029 C2020 1.390 . S
C2029 H2022 0.950 . S
C2029 C2026 1.387 . S
C2030 C2031 1.387 . S
C2030 H2034 0.950 . S
C2030 C2039 1.390 . S
C2031 C2030 1.387 . S
C2031 C2033 1.387 . S
H2032 C2039 0.950 . S
C2033 C2031 1.387 . S
C2033 C2035 1.390 . S
C2033 H2037 0.950 . S
H2034 C2030 0.950 . S
C2035 C2033 1.390 . S
C2035 C2036 1.387 . S
C2035 H2038 0.950 . S
C2036 C2035 1.387 . S
C2036 C2039 1.387 . S
H2037 C2033 0.950 . S
H2038 C2035 0.950 . S
C2039 C2030 1.390 . S
C2039 H2032 0.950 . S
C2039 C2036 1.387 . S
C2040 C2041 1.387 . S
C2040 H2044 0.950 . S
C2040 C2049 1.390 . S
C2041 C2040 1.387 . S
C2041 C2043 1.387 . S
H2042 C2049 0.950 . S
C2043 C2041 1.387 . S
C2043 C2045 1.390 . S
C2043 H2047 0.950 . S
H2044 C2040 0.950 . S
C2045 C2043 1.390 . S
C2045 C2046 1.387 . S
C2045 H2048 0.950 . S
C2046 C2045 1.387 . S
C2046 C2049 1.387 . S
H2047 C2043 0.950 . S
H2048 C2045 0.950 . S
C2049 C2040 1.390 . S
C2049 H2042 0.950 . S
C2049 C2046 1.387 . S
C2050 C2051 1.387 . S
C2050 H2054 0.950 . S
C2050 C2059 1.390 1_556 S
C2051 C2050 1.387 . S
C2051 C2053 1.387 . S
H2052 C2059 0.950 . S
C2053 C2051 1.387 . S
C2053 C2055 1.390 1_556 S
C2053 H2057 0.950 . S
H2054 C2050 0.950 . S
C2055 C2053 1.390 1_554 S
C2055 C2056 1.387 . S
C2055 H2058 0.950 . S
C2056 C2055 1.387 . S
C2056 C2059 1.387 . S
H2057 C2053 0.950 . S
H2058 C2055 0.950 . S
C2059 C2050 1.390 1_554 S
C2059 H2052 0.950 . S
C2059 C2056 1.387 . S
C2060 C2061 1.387 . S
C2060 H2064 0.950 . S
C2060 C2069 1.390 . S
C2061 C2060 1.387 . S
C2061 C2063 1.387 . S
H2062 C2069 0.950 . S
C2063 C2061 1.387 . S
C2063 C2065 1.390 . S
C2063 H2067 0.950 . S
H2064 C2060 0.950 . S
C2065 C2063 1.390 . S
C2065 C2066 1.387 . S
C2065 H2068 0.950 . S
C2066 C2065 1.387 . S
C2066 C2069 1.387 . S
H2067 C2063 0.950 . S
H2068 C2065 0.950 . S
C2069 C2060 1.390 . S
C2069 H2062 0.950 . S
C2069 C2066 1.387 . S
C2070 C2071 1.387 . S
C2070 H2074 0.950 . S
C2070 C2079 1.390 . S
C2071 C2070 1.387 . S
C2071 C2073 1.387 . S
H2072 C2079 0.950 . S
C2073 C2071 1.387 . S
C2073 C2075 1.390 . S
C2073 H2077 0.950 . S
H2074 C2070 0.950 . S
C2075 C2073 1.390 . S
C2075 C2076 1.387 . S
C2075 H2078 0.950 . S
C2076 C2075 1.387 . S
C2076 C2079 1.387 . S
H2077 C2073 0.950 . S
H2078 C2075 0.950 . S
C2079 C2070 1.390 . S
C2079 H2072 0.950 . S
C2079 C2076 1.387 . S
C2080 C2081 1.387 . S
C2080 H2084 0.950 . S
C2080 C2089 1.390 . S
C2081 C2080 1.387 . S
C2081 C2083 1.387 . S
H2082 C2089 0.950 . S
C2083 C2081 1.387 . S
C2083 C2085 1.390 . S
C2083 H2087 0.950 . S
H2084 C2080 0.950 . S
C2085 C2083 1.390 . S
C2085 C2086 1.387 . S
C2085 H2088 0.950 . S
C2086 C2085 1.387 . S
C2086 C2089 1.387 . S
H2087 C2083 0.950 . S
H2088 C2085 0.950 . S
C2089 C2080 1.390 . S
C2089 H2082 0.950 . S
C2089 C2086 1.387 . S
C2090 C2091 1.387 . S
C2090 H2094 0.950 . S
C2090 C2099 1.390 . S
C2091 C2090 1.387 . S
C2091 C2093 1.387 . S
H2092 C2099 0.950 . S
C2093 C2091 1.387 . S
C2093 C2095 1.390 . S
C2093 H2097 0.950 . S
H2094 C2090 0.950 . S
C2095 C2093 1.390 . S
C2095 C2096 1.387 . S
C2095 H2098 0.950 . S
C2096 C2095 1.387 . S
C2096 C2099 1.387 . S
H2097 C2093 0.950 . S
H2098 C2095 0.950 . S
C2099 C2090 1.390 . S
C2099 H2092 0.950 . S
C2099 C2096 1.387 . S
C2100 C2101 1.387 . S
C2100 H2104 0.950 . S
C2100 C2109 1.390 . S
C2101 C2100 1.387 . S
C2101 C2103 1.387 . S
H2102 C2109 0.950 . S
C2103 C2101 1.387 . S
C2103 C2105 1.390 . S
C2103 H2107 0.950 . S
H2104 C2100 0.950 . S
C2105 C2103 1.390 . S
C2105 C2106 1.387 . S
C2105 H2108 0.950 . S
C2106 C2105 1.387 . S
C2106 C2109 1.387 . S
H2107 C2103 0.950 . S
H2108 C2105 0.950 . S
C2109 C2100 1.390 . S
C2109 H2102 0.950 . S
C2109 C2106 1.387 . S
C2110 C2111 1.387 . S
C2110 H2114 0.950 . S
C2110 C2119 1.390 . S
C2111 C2110 1.387 . S
C2111 C2113 1.387 . S
H2112 C2119 0.950 . S
C2113 C2111 1.387 . S
C2113 C2115 1.390 . S
C2113 H2117 0.950 . S
H2114 C2110 0.950 . S
C2115 C2113 1.390 . S
C2115 C2116 1.387 . S
C2115 H2118 0.950 . S
C2116 C2115 1.387 . S
C2116 C2119 1.387 . S
H2117 C2113 0.950 . S
H2118 C2115 0.950 . S
C2119 C2110 1.390 . S
C2119 H2112 0.950 . S
C2119 C2116 1.387 . S
C2120 C2121 1.387 . S
C2120 H2124 0.950 . S
C2120 C2129 1.390 . S
C2121 C2120 1.387 . S
C2121 C2123 1.387 . S
H2122 C2129 0.950 . S
C2123 C2121 1.387 . S
C2123 C2125 1.390 . S
C2123 H2127 0.950 . S
H2124 C2120 0.950 . S
C2125 C2123 1.390 . S
C2125 C2126 1.387 . S
C2125 H2128 0.950 . S
C2126 C2125 1.387 . S
C2126 C2129 1.387 . S
H2127 C2123 0.950 . S
H2128 C2125 0.950 . S
C2129 C2120 1.390 . S
C2129 H2122 0.950 . S
C2129 C2126 1.387 . S
C2130 C2131 1.387 . S
C2130 H2134 0.950 . S
C2130 C2139 1.390 . S
C2131 C2130 1.387 . S
C2131 C2133 1.387 . S
H2132 C2139 0.950 . S
C2133 C2131 1.387 . S
C2133 C2135 1.390 . S
C2133 H2137 0.950 . S
H2134 C2130 0.950 . S
C2135 C2133 1.390 . S
C2135 C2136 1.387 . S
C2135 H2138 0.950 . S
C2136 C2135 1.387 . S
C2136 C2139 1.387 . S
H2137 C2133 0.950 . S
H2138 C2135 0.950 . S
C2139 C2130 1.390 . S
C2139 H2132 0.950 . S
C2139 C2136 1.387 . S
C2140 C2141 1.387 . S
C2140 H2144 0.950 . S
C2140 C2149 1.390 . S
C2141 C2140 1.387 . S
C2141 C2143 1.387 . S
H2142 C2149 0.950 . S
C2143 C2141 1.387 . S
C2143 C2145 1.390 . S
C2143 H2147 0.950 . S
H2144 C2140 0.950 . S
C2145 C2143 1.390 . S
C2145 C2146 1.387 . S
C2145 H2148 0.950 . S
C2146 C2145 1.387 . S
C2146 C2149 1.387 . S
H2147 C2143 0.950 . S
H2148 C2145 0.950 . S
C2149 C2140 1.390 . S
C2149 H2142 0.950 . S
C2149 C2146 1.387 . S
C2150 C2151 1.387 . S
C2150 H2154 0.950 . S
C2150 C2159 1.390 . S
C2151 C2150 1.387 . S
C2151 C2153 1.387 . S
H2152 C2159 0.950 . S
C2153 C2151 1.387 . S
C2153 C2155 1.390 . S
C2153 H2157 0.950 . S
H2154 C2150 0.950 . S
C2155 C2153 1.390 . S
C2155 C2156 1.387 . S
C2155 H2158 0.950 . S
C2156 C2155 1.387 . S
C2156 C2159 1.387 . S
H2157 C2153 0.950 . S
H2158 C2155 0.950 . S
C2159 C2150 1.390 . S
C2159 H2152 0.950 . S
C2159 C2156 1.387 . S
C2160 C2161 1.387 . S
C2160 H2164 0.950 . S
C2160 C2169 1.390 . S
C2161 C2160 1.387 . S
C2161 C2163 1.387 . S
H2162 C2169 0.950 . S
C2163 C2161 1.387 . S
C2163 C2165 1.390 . S
C2163 H2167 0.950 . S
H2164 C2160 0.950 . S
C2165 C2163 1.390 . S
C2165 C2166 1.387 . S
C2165 H2168 0.950 . S
C2166 C2165 1.387 . S
C2166 C2169 1.387 . S
H2167 C2163 0.950 . S
H2168 C2165 0.950 . S
C2169 C2160 1.390 . S
C2169 H2162 0.950 . S
C2169 C2166 1.387 . S
C2170 C2171 1.387 . S
C2170 H2174 0.950 . S
C2170 C2179 1.390 . S
C2171 C2170 1.387 . S
C2171 C2173 1.387 . S
H2172 C2179 0.950 . S
C2173 C2171 1.387 . S
C2173 C2175 1.390 . S
C2173 H2177 0.950 . S
H2174 C2170 0.950 . S
C2175 C2173 1.390 . S
C2175 C2176 1.387 . S
C2175 H2178 0.950 . S
C2176 C2175 1.387 . S
C2176 C2179 1.387 . S
H2177 C2173 0.950 . S
H2178 C2175 0.950 . S
C2179 C2170 1.390 . S
C2179 H2172 0.950 . S
C2179 C2176 1.387 . S
C2180 C2181 1.387 . S
C2180 H2184 0.950 . S
C2180 C2189 1.390 . S
C2181 C2180 1.387 . S
C2181 C2183 1.387 . S
H2182 C2189 0.950 . S
C2183 C2181 1.387 . S
C2183 C2185 1.390 . S
C2183 H2187 0.950 . S
H2184 C2180 0.950 . S
C2185 C2183 1.390 . S
C2185 C2186 1.387 . S
C2185 H2188 0.950 . S
C2186 C2185 1.387 . S
C2186 C2189 1.387 . S
H2187 C2183 0.950 . S
H2188 C2185 0.950 . S
C2189 C2180 1.390 . S
C2189 H2182 0.950 . S
C2189 C2186 1.387 . S
C2190 C2191 1.387 . S
C2190 H2194 0.950 . S
C2190 C2199 1.390 . S
C2191 C2190 1.387 . S
C2191 C2193 1.387 . S
H2192 C2199 0.950 . S
C2193 C2191 1.387 . S
C2193 C2195 1.390 . S
C2193 H2197 0.950 . S
H2194 C2190 0.950 . S
C2195 C2193 1.390 . S
C2195 C2196 1.387 . S
C2195 H2198 0.950 . S
C2196 C2195 1.387 . S
C2196 C2199 1.387 . S
H2197 C2193 0.950 . S
H2198 C2195 0.950 . S
C2199 C2190 1.390 . S
C2199 H2192 0.950 . S
C2199 C2196 1.387 . S
C2200 C2201 1.387 . S
C2200 H2204 0.950 . S
C2200 C2209 1.390 . S
C2201 C2200 1.387 . S
C2201 C2203 1.387 . S
H2202 C2209 0.950 . S
C2203 C2201 1.387 . S
C2203 C2205 1.390 . S
C2203 H2207 0.950 . S
H2204 C2200 0.950 . S
C2205 C2203 1.390 . S
C2205 C2206 1.387 . S
C2205 H2208 0.950 . S
C2206 C2205 1.387 . S
C2206 C2209 1.387 . S
H2207 C2203 0.950 . S
H2208 C2205 0.950 . S
C2209 C2200 1.390 . S
C2209 H2202 0.950 . S
C2209 C2206 1.387 . S
C2210 C2211 1.387 . S
C2210 H2214 0.950 . S
C2210 C2219 1.390 . S
C2211 C2210 1.387 . S
C2211 C2213 1.387 . S
H2212 C2219 0.950 . S
C2213 C2211 1.387 . S
C2213 C2215 1.390 . S
C2213 H2217 0.950 . S
H2214 C2210 0.950 . S
C2215 C2213 1.390 . S
C2215 C2216 1.387 . S
C2215 H2218 0.950 . S
C2216 C2215 1.387 . S
C2216 C2219 1.387 . S
H2217 C2213 0.950 . S
H2218 C2215 0.950 . S
C2219 C2210 1.390 . S
C2219 H2212 0.950 . S
C2219 C2216 1.387 . S
C2220 C2221 1.387 . S
C2220 H2224 0.950 . S
C2220 C2229 1.390 . S
C2221 C2220 1.387 . S
C2221 C2223 1.387 . S
H2222 C2229 0.950 . S
C2223 C2221 1.387 . S
C2223 C2225 1.390 . S
C2223 H2227 0.950 . S
H2224 C2220 0.950 . S
C2225 C2223 1.390 . S
C2225 C2226 1.387 . S
C2225 H2228 0.950 . S
C2226 C2225 1.387 . S
C2226 C2229 1.387 . S
H2227 C2223 0.950 . S
H2228 C2225 0.950 . S
C2229 C2220 1.390 . S
C2229 H2222 0.950 . S
C2229 C2226 1.387 . S
C2230 C2231 1.387 . S
C2230 H2234 0.950 . S
C2230 C2239 1.390 . S
C2231 C2230 1.387 . S
C2231 C2233 1.387 . S
H2232 C2239 0.950 . S
C2233 C2231 1.387 . S
C2233 C2235 1.390 . S
C2233 H2237 0.950 . S
H2234 C2230 0.950 . S
C2235 C2233 1.390 . S
C2235 C2236 1.387 . S
C2235 H2238 0.950 . S
C2236 C2235 1.387 . S
C2236 C2239 1.387 . S
H2237 C2233 0.950 . S
H2238 C2235 0.950 . S
C2239 C2230 1.390 . S
C2239 H2232 0.950 . S
C2239 C2236 1.387 . S
C1281 C10 1.917 . S
C1286 C135 1.872 . S
C1291 C15 1.859 1_565 S
C1296 C50 1.918 . S
C1301 C90 1.917 . S
C1306 C55 1.871 . S
C1311 C95 1.859 1_545 S
C1316 C130 1.917 . S
C1321 C215 1.873 . S
C1326 C170 1.917 . S
C1331 C210 1.916 . S
C1336 C255 1.857 1_565 S
C1341 C295 1.870 . S
C1346 C250 1.916 . S
C1351 C175 1.860 1_545 S
C1356 C290 1.918 . S
C1361 C339 1.917 . S
C1366 C446 1.871 . S
C1371 C379 1.917 . S
C1376 C326 1.858 1_545 S
C1381 C419 1.917 . S
C1386 C366 1.873 . S
C1391 C459 1.919 . S
C1396 C406 1.860 1_565 S
C1401 C499 1.917 . S
C1406 C526 1.871 . S
C1411 C539 1.916 . S
C1416 C566 1.857 1_545 S
C1421 C606 1.873 . S
C1426 C579 1.917 . S
C1431 C486 1.861 1_565 S
C1436 C619 1.918 . S
C1441 C650 1.916 . S
C1446 C775 1.871 . S
C1451 C655 1.873 . S
C1456 C690 1.918 . S
C1461 C695 1.872 . S
C1466 C730 1.917 . S
C1471 C770 1.918 . S
C1476 C735 1.873 . S
C1481 C810 1.916 . S
C1486 C855 1.871 . S
C1491 C895 1.872 . S
C1496 C850 1.917 . S
C1501 C890 1.916 . S
C1506 C935 1.870 . S
C1511 C815 1.871 . S
C1516 C930 1.916 . S
C1521 C1086 1.870 . S
C1526 C979 1.916 . S
C1531 C966 1.873 . S
C1536 C1019 1.919 . S
C1541 C1059 1.917 . S
C1546 C1006 1.871 . S
C1551 C1046 1.873 . S
C1556 C1099 1.918 . S
C1561 C1166 1.871 . S
C1566 C1139 1.917 . S
C1571 C1206 1.873 . S
C1576 C1179 1.918 . S
C1581 C1246 1.871 . S
C1586 C1219 1.917 . S
C1591 C1259 1.916 . S
C1596 C1126 1.871 . S
C1601 C1090 1.706 . S
C1606 C9 1.736 . S
C1611 C49 1.735 . S
C1616 C330 1.705 1_455 S
C1621 C89 1.734 . S
C1626 C1010 1.705 . S
C1631 C129 1.734 . S
C1636 C410 1.703 . S
C1641 C169 1.735 . S
C1646 C1170 1.706 . S
C1651 C570 1.705 . S
C1656 C209 1.735 . S
C1661 C1250 1.705 . S
C1666 C249 1.735 . S
C1671 C289 1.734 . S
C1676 C490 1.705 1_455 S
C1681 C338 1.735 . S
C1686 C779 1.704 . S
C1691 C19 1.705 1_655 S
C1696 C378 1.735 . S
C1701 C699 1.706 . S
C1706 C418 1.736 . S
C1711 C99 1.705 . S
C1716 C458 1.735 . S
C1721 C859 1.706 . S
C1726 C498 1.735 . S
C1731 C259 1.704 . S
C1736 C538 1.733 . S
C1741 C578 1.735 . S
C1746 C939 1.704 . S
C1751 C618 1.733 . S
C1756 C179 1.703 1_655 S
C1761 C649 1.736 . S
C1766 C450 1.706 . S
C1771 C689 1.735 . S
C1776 C970 1.705 . S
C1781 C729 1.735 . S
C1786 C370 1.706 . S
C1791 C769 1.734 . S
C1796 C1050 1.704 1_655 S
C1801 C809 1.735 . S
C1806 C530 1.706 . S
C1811 C849 1.734 . S
C1816 C1210 1.705 1_655 S
C1821 C610 1.706 . S
C1826 C889 1.736 . S
C1831 C929 1.733 . S
C1836 C1130 1.702 . S
C1841 C139 1.704 . S
C1846 C978 1.735 . S
C1851 C659 1.704 . S
C1856 C1018 1.734 . S
C1861 C59 1.704 . S
C1866 C1058 1.735 . S
C1871 C739 1.704 1_455 S
C1876 C1098 1.733 . S
C1881 C219 1.706 . S
C1886 C1138 1.736 . S
C1891 C1178 1.735 . S
C1896 C899 1.704 1_455 S
C1901 C1218 1.736 . S
C1906 C299 1.706 . S
C1911 C819 1.704 . S
C1916 C1258 1.735 . S
C1921 C18 1.550 . S
C1926 C178 1.550 . S
C1931 C58 1.550 . S
C1936 C218 1.550 . S
C1941 C98 1.551 . S
C1946 C258 1.551 . S
C1951 C298 1.550 . S
C1956 C138 1.550 . S
C1961 C489 1.550 . S
C1966 C329 1.550 . S
C1971 C529 1.549 . S
C1976 C369 1.549 . S
C1981 C409 1.550 . S
C1986 C569 1.550 . S
C1991 C449 1.550 . S
C1996 C609 1.550 . S
C2001 C658 1.551 . S
C2006 C818 1.551 . S
C2011 C858 1.549 . S
C2016 C698 1.549 . S
C2021 C898 1.550 . S
C2026 C738 1.550 . S
C2031 C938 1.549 . S
C2036 C778 1.549 . S
C2041 C1129 1.550 . S
C2046 C969 1.550 . S
C2051 C1009 1.549 . S
C2056 C1169 1.549 . S
C2061 C1209 1.550 . S
C2066 C1049 1.550 . S
C2071 C1089 1.549 . S
C2076 C1249 1.549 . S
C2081 C286 1.413 . S
C2086 C6 1.414 . S
C2091 C46 1.417 . S
C2096 C166 1.416 . S
C2101 C86 1.415 . S
C2106 C206 1.413 . S
C2111 C246 1.416 . S
C2116 C126 1.417 . S
C2121 C335 1.416 . S
C2126 C615 1.417 . S
C2131 C495 1.415 . S
C2136 C375 1.414 . S
C2141 C535 1.417 . S
C2146 C415 1.416 . S
C2151 C455 1.417 . S
C2156 C575 1.416 . S
C2161 C646 1.414 . S
C2166 C926 1.413 . S
C2171 C806 1.415 . S
C2176 C686 1.414 . S
C2181 C846 1.414 . S
C2186 C726 1.415 . S
C2191 C886 1.417 . S
C2196 C766 1.417 . S
C2201 C975 1.414 . S
C2206 C1255 1.413 . S
C2211 C1135 1.414 . S
C2216 C1015 1.413 . S
C2221 C1055 1.414 . S
C2226 C1175 1.413 . S
C2231 C1215 1.413 . S
C2236 C1095 1.414 . S
