# Generated by pormake.
# Topology vcn, (7)-cn, num edge types: 1
# Building blocks:
#     Node 0, Type 0, BuildingBlock: HICVOG_clean_sbu_0, # of connection points: 7
#     Node 1, Type 0, BuildingBlock: HICVOG_clean_sbu_0, # of connection points: 7
#     Node 2, Type 0, BuildingBlock: HICVOG_clean_sbu_0, # of connection points: 7
#     Node 3, Type 0, BuildingBlock: HICVOG_clean_sbu_0, # of connection points: 7
#     Node 4, Type 0, BuildingBlock: HICVOG_clean_sbu_0, # of connection points: 7
#     Node 5, Type 0, BuildingBlock: HICVOG_clean_sbu_0, # of connection points: 7
#     Node 6, Type 0, BuildingBlock: HICVOG_clean_sbu_0, # of connection points: 7
#     Node 7, Type 0, BuildingBlock: HICVOG_clean_sbu_0, # of connection points: 7
#     Edge 8, Type (0, 0), BuildingBlock: XIVTED_clean_linker_0, # of connection points: 2
#     Edge 9, Type (0, 0), BuildingBlock: XIVTED_clean_linker_0, # of connection points: 2
#     Edge 10, Type (0, 0), BuildingBlock: XIVTED_clean_linker_0, # of connection points: 2
#     Edge 11, Type (0, 0), BuildingBlock: XIVTED_clean_linker_0, # of connection points: 2
#     Edge 12, Type (0, 0), BuildingBlock: XIVTED_clean_linker_0, # of connection points: 2
#     Edge 13, Type (0, 0), BuildingBlock: XIVTED_clean_linker_0, # of connection points: 2
#     Edge 14, Type (0, 0), BuildingBlock: XIVTED_clean_linker_0, # of connection points: 2
#     Edge 15, Type (0, 0), BuildingBlock: XIVTED_clean_linker_0, # of connection points: 2
#     Edge 16, Type (0, 0), BuildingBlock: XIVTED_clean_linker_0, # of connection points: 2
#     Edge 17, Type (0, 0), BuildingBlock: XIVTED_clean_linker_0, # of connection points: 2
#     Edge 18, Type (0, 0), BuildingBlock: XIVTED_clean_linker_0, # of connection points: 2
#     Edge 19, Type (0, 0), BuildingBlock: XIVTED_clean_linker_0, # of connection points: 2
#     Edge 20, Type (0, 0), BuildingBlock: XIVTED_clean_linker_0, # of connection points: 2
#     Edge 21, Type (0, 0), BuildingBlock: XIVTED_clean_linker_0, # of connection points: 2
#     Edge 22, Type (0, 0), BuildingBlock: XIVTED_clean_linker_0, # of connection points: 2
#     Edge 23, Type (0, 0), BuildingBlock: XIVTED_clean_linker_0, # of connection points: 2
#     Edge 24, Type (0, 0), BuildingBlock: XIVTED_clean_linker_0, # of connection points: 2
#     Edge 25, Type (0, 0), BuildingBlock: XIVTED_clean_linker_0, # of connection points: 2
#     Edge 26, Type (0, 0), BuildingBlock: XIVTED_clean_linker_0, # of connection points: 2
#     Edge 27, Type (0, 0), BuildingBlock: XIVTED_clean_linker_0, # of connection points: 2
#     Edge 28, Type (0, 0), BuildingBlock: XIVTED_clean_linker_0, # of connection points: 2
#     Edge 29, Type (0, 0), BuildingBlock: XIVTED_clean_linker_0, # of connection points: 2
#     Edge 30, Type (0, 0), BuildingBlock: XIVTED_clean_linker_0, # of connection points: 2
#     Edge 31, Type (0, 0), BuildingBlock: XIVTED_clean_linker_0, # of connection points: 2
#     Edge 32, Type (0, 0), BuildingBlock: XIVTED_clean_linker_0, # of connection points: 2
#     Edge 33, Type (0, 0), BuildingBlock: XIVTED_clean_linker_0, # of connection points: 2
#     Edge 34, Type (0, 0), BuildingBlock: XIVTED_clean_linker_0, # of connection points: 2
#     Edge 35, Type (0, 0), BuildingBlock: XIVTED_clean_linker_0, # of connection points: 2
# Relax obj value: 0.238
# Max RMSD: 0.224
# Mean RMSD: 0.224
data_MOF--net-vcn--node1-HICVOG_clean_sbu_0--edge1-XIVTED_clean_linker_0
_symmetry_space_group_name_H-M    P1
_symmetry_Int_Tables_number       1
_symmetry_cell_setting            triclinic
loop_
_symmetry_equiv_pos_as_xyz
'x, y, z'
_cell_length_a     40.446556
_cell_length_b     63.286981
_cell_length_c     14.460586
_cell_angle_alpha  89.904934
_cell_angle_beta   90.007262
_cell_angle_gamma 90.007324
loop_
_atom_site_label
_atom_site_type_symbol
_atom_site_fract_x
_atom_site_fract_y
_atom_site_fract_z
_atom_type_partial_charge
Zn0 Zn 0.11985 0.38176 0.12648 0.0
C1 C 0.0678 0.33434 0.02001 0.0
N2 N 0.07395 0.3441 0.93931 0.0
C3 C 0.08689 0.3626 0.96629 0.0
N4 N 0.08925 0.36402 0.05916 0.0
N5 N 0.0764 0.34641 0.09307 0.0
C6 C 0.07876 0.31175 0.30006 0.0
O7 O 0.10392 0.32481 0.29347 0.0
O8 O 0.11879 0.4113 0.0756 0.0
Zn9 Zn 0.05014 0.34595 0.20511 0.0
N10 N 0.16388 0.37005 0.10894 0.0
C11 C 0.19787 0.34374 0.03986 0.0
C12 C 0.16678 0.35219 0.05736 0.0
C13 C 0.19103 0.37945 0.14662 0.0
N14 N 0.22491 0.35316 0.07666 0.0
C15 C 0.22257 0.37073 0.13044 0.0
O16 O 0.06656 0.3657 0.30447 0.0
C17 C 0.08956 0.3787 0.32391 0.0
O18 O 0.11104 0.38442 0.26452 0.0
H19 H 0.14521 0.3445 0.02932 0.0
H20 H 0.188 0.39357 0.18785 0.0
C21 C 0.97666 0.34534 0.19725 0.0
C22 C 0.94636 0.35244 0.15953 0.0
C23 C 0.97565 0.37744 0.06827 0.0
C24 C 1.00532 0.37053 0.10599 0.0
N25 N 1.00553 0.35447 0.16852 0.0
N26 N 0.94704 0.36825 0.09562 0.0
H27 H 0.97735 0.33257 0.24711 0.0
C28 C 0.09242 0.42204 0.08398 0.0
O29 O 0.06625 0.4131 0.121 0.0
O30 O 0.05125 0.31697 0.2638 0.0
H31 H 0.02819 0.37783 0.08466 0.0
H32 H 0.20052 0.3297 0.99799 0.0
H33 H 0.9753 0.39005 0.01767 0.0
Zn34 Zn 0.53907 0.6189 0.61704 0.0
C35 C 0.59412 0.66527 0.51082 0.0
N36 N 0.58703 0.6559 0.43007 0.0
C37 C 0.57267 0.63779 0.45714 0.0
N38 N 0.57041 0.63628 0.55003 0.0
N39 N 0.5845 0.6535 0.58379 0.0
C40 C 0.57847 0.68939 0.77986 0.0
O41 O 0.55315 0.67692 0.76355 0.0
O42 O 0.53984 0.58912 0.56818 0.0
Zn43 Zn 0.60919 0.65434 0.69796 0.0
N44 N 0.49546 0.63099 0.59634 0.0
C45 C 0.46311 0.65817 0.52697 0.0
C46 C 0.49374 0.64949 0.54845 0.0
C47 C 0.4675 0.62123 0.62712 0.0
N48 N 0.43528 0.64832 0.55633 0.0
C49 C 0.43644 0.63015 0.60665 0.0
O50 O 0.59163 0.63486 0.79685 0.0
C51 C 0.56825 0.62209 0.8157 0.0
O52 O 0.54698 0.61647 0.7556 0.0
H53 H 0.51591 0.65746 0.52605 0.0
H54 H 0.46947 0.60665 0.66595 0.0
C55 C 0.68284 0.65499 0.69337 0.0
C56 C 0.71322 0.64758 0.65746 0.0
C57 C 0.68417 0.62186 0.56991 0.0
C58 C 0.65441 0.62908 0.60575 0.0
N59 N 0.65406 0.64563 0.66555 0.0
N60 N 0.71271 0.63126 0.59627 0.0
H61 H 0.68205 0.66817 0.74093 0.0
C62 C 0.56592 0.57819 0.57917 0.0
O63 O 0.59195 0.58708 0.61709 0.0
O64 O 0.60715 0.68353 0.7542 0.0
H65 H 0.63155 0.62169 0.58495 0.0
H66 H 0.46143 0.6727 0.48775 0.0
H67 H 0.68464 0.60886 0.52145 0.0
Zn68 Zn 0.04803 0.65372 0.81988 0.0
C69 C 0.08388 0.63702 0.06021 0.0
N70 N 0.07119 0.65565 0.08654 0.0
C71 C 0.06527 0.66531 1.00549 0.0
N72 N 0.07378 0.65308 0.93291 0.0
N73 N 0.08629 0.63542 0.96739 0.0
C74 C 0.08929 0.57771 0.9517 0.0
O75 O 0.06217 0.58695 0.92227 0.0
O76 O 0.04997 0.68269 0.76112 0.0
Zn77 Zn 0.11706 0.61763 0.901 0.0
N78 N 1.00309 0.64559 0.85525 0.0
C79 C 0.97253 0.62318 0.95636 0.0
C80 C 1.00242 0.62975 0.91884 0.0
C81 C 0.97446 0.65482 0.82523 0.0
N82 N 0.94417 0.63248 0.9278 0.0
C83 C 0.94395 0.64806 0.86282 0.0
O84 O 0.10855 0.61494 0.7629 0.0
C85 C 0.08746 0.62074 0.70254 0.0
O86 O 0.06452 0.63385 0.7209 0.0
H87 H 0.02508 0.62238 0.94125 0.0
H88 H 0.97549 0.6674 0.77455 0.0
C89 C 0.18816 0.62008 0.88091 0.0
C90 C 0.21969 0.62876 0.89734 0.0
C91 C 0.19504 0.65557 0.98895 0.0
C92 C 0.16394 0.64716 0.97125 0.0
N93 N 0.16102 0.62939 0.919 0.0
N94 N 0.22206 0.64623 0.95174 0.0
H95 H 0.18511 0.60603 0.83919 0.0
C96 C 0.07775 0.68771 0.726 0.0
O97 O 0.10267 0.67451 0.73398 0.0
O98 O 0.11617 0.5881 0.9522 0.0
H99 H 0.14238 0.65478 0.99963 0.0
H100 H 0.97183 0.61076 1.0078 0.0
H101 H 0.19771 0.66954 0.03131 0.0
Zn102 Zn 0.61138 0.3459 0.32973 0.0
C103 C 0.57597 0.36255 0.57144 0.0
N104 N 0.58956 0.34414 0.59779 0.0
C105 C 0.59601 0.33472 0.5167 0.0
N106 N 0.58677 0.34679 0.44426 0.0
N107 N 0.5735 0.36421 0.47862 0.0
C108 C 0.56909 0.42193 0.4601 0.0
O109 O 0.59627 0.41273 0.431 0.0
O110 O 0.60887 0.31674 0.27326 0.0
Zn111 Zn 0.5419 0.3816 0.41258 0.0
N112 N 0.65651 0.35429 0.36171 0.0
C113 C 0.68725 0.37735 0.45921 0.0
C114 C 0.65728 0.37045 0.4235 0.0
C115 C 0.68511 0.34505 0.3317 0.0
N116 N 0.71559 0.36804 0.43074 0.0
C117 C 0.7157 0.35213 0.36752 0.0
O118 O 0.54963 0.38411 0.27396 0.0
C119 C 0.57058 0.37841 0.21311 0.0
O120 O 0.59387 0.36551 0.23108 0.0
H121 H 0.63461 0.3778 0.44597 0.0
H122 H 0.68401 0.3322 0.2825 0.0
C123 C 0.47039 0.37892 0.40163 0.0
C124 C 0.43936 0.36996 0.42218 0.0
C125 C 0.46612 0.34229 0.5039 0.0
C126 C 0.49672 0.35102 0.48245 0.0
N127 N 0.49838 0.36936 0.43343 0.0
N128 N 0.43826 0.35194 0.47354 0.0
H129 H 0.47231 0.39339 0.36197 0.0
C130 C 0.58022 0.31121 0.246 0.0
O131 O 0.55516 0.32399 0.26052 0.0
O132 O 0.54237 0.41136 0.4619 0.0
H133 H 0.5189 0.3432 0.50572 0.0
H134 H 0.68804 0.39003 0.50924 0.0
H135 H 0.46449 0.32787 0.54394 0.0
Zn136 Zn 0.61811 0.88152 0.1177 0.0
C137 C 0.56461 0.83441 1.01243 0.0
N138 N 0.57088 0.84401 0.93149 0.0
C139 C 0.58457 0.86234 0.95814 0.0
N140 N 0.58723 0.86378 0.05097 0.0
N141 N 0.57398 0.84631 0.08514 0.0
C142 C 0.58066 0.81098 0.28613 0.0
O143 O 0.60513 0.82444 0.27544 0.0
O144 O 0.61705 0.91124 0.06774 0.0
Zn145 Zn 0.54922 0.84516 0.19941 0.0
N146 N 0.66211 0.86977 0.09957 0.0
C147 C 0.69598 0.84358 0.0292 0.0
C148 C 0.66494 0.8521 0.04667 0.0
C149 C 0.68927 0.87885 0.1387 0.0
N150 N 0.72303 0.85268 0.06742 0.0
C151 C 0.72075 0.87003 0.12261 0.0
O152 O 0.56614 0.86481 0.29859 0.0
C153 C 0.589 0.87801 0.31662 0.0
O154 O 0.60978 0.884 0.25585 0.0
H155 H 0.64335 0.84463 0.01772 0.0
H156 H 0.68629 0.89279 0.18111 0.0
C157 C 0.4755 0.84383 0.19605 0.0
C158 C 0.44484 0.85099 0.16074 0.0
C159 C 0.47316 0.87677 0.07125 0.0
C160 C 0.50317 0.86982 0.10662 0.0
N161 N 0.50403 0.85335 0.16707 0.0
N162 N 0.44488 0.86722 0.09883 0.0
H163 H 0.4767 0.83075 0.24423 0.0
C164 C 0.59087 0.92211 0.07762 0.0
O165 O 0.56474 0.9132 0.11497 0.0
O166 O 0.55219 0.81591 0.25529 0.0
H167 H 0.52581 0.8774 0.0851 0.0
H168 H 0.69858 0.82969 0.9863 0.0
H169 H 0.4723 0.8897 0.02229 0.0
Zn170 Zn 0.03863 0.11761 0.61056 0.0
C171 C 0.09321 0.16418 0.5043 0.0
N172 N 0.08661 0.15469 0.42346 0.0
C173 C 0.07246 0.13649 0.45044 0.0
N174 N 0.06983 0.13505 0.54332 0.0
N175 N 0.08362 0.15236 0.57706 0.0
C176 C 0.10778 0.18774 0.82736 0.0
O177 O 0.118 0.17267 0.88303 0.0
O178 O 0.03987 0.08787 0.56234 0.0
Zn179 Zn 0.10761 0.15403 0.69216 0.0
N180 N 0.99466 0.12928 0.59048 0.0
C181 C 0.96096 0.15511 0.51645 0.0
C182 C 0.992 0.14686 0.5367 0.0
C183 C 0.9673 0.12011 0.62831 0.0
N184 N 0.93373 0.14585 0.55297 0.0
C185 C 0.93585 0.12864 0.60926 0.0
O186 O 0.09007 0.13472 0.79179 0.0
C187 C 0.06722 0.12151 0.80988 0.0
O188 O 0.04665 0.11535 0.7489 0.0
H189 H 0.01372 0.15444 0.50898 0.0
H190 H 0.97006 0.10629 0.6718 0.0
C191 C 0.18145 0.15541 0.69328 0.0
C192 C 0.21233 0.14829 0.65945 0.0
C193 C 0.18459 0.12263 0.56826 0.0
C194 C 0.15436 0.12956 0.60204 0.0
N195 N 0.1531 0.14594 0.66264 0.0
N196 N 0.21269 0.13214 0.59742 0.0
H197 H 0.17994 0.16843 0.74151 0.0
C198 C 0.06667 0.07749 0.56857 0.0
O199 O 0.09312 0.08692 0.60129 0.0
O200 O 0.10367 0.18369 0.74197 0.0
H201 H 0.13188 0.12204 0.57909 0.0
H202 H 0.95852 0.16889 0.47264 0.0
H203 H 0.18577 0.10977 0.51921 0.0
Zn204 Zn 0.54731 0.15492 0.83084 0.0
C205 C 0.58396 0.13792 0.07084 0.0
N206 N 0.57068 0.15636 0.09775 0.0
C207 C 0.56399 0.16589 0.01694 0.0
N208 N 0.57271 0.15384 0.9441 0.0
N209 N 0.58599 0.13634 0.97791 0.0
C210 C 0.58889 0.07856 0.96026 0.0
O211 O 0.56164 0.08801 0.93317 0.0
O212 O 0.55023 0.18403 0.77377 0.0
Zn213 Zn 0.61668 0.11862 0.91026 0.0
N214 N 0.50206 0.14707 0.8649 0.0
C215 C 0.47092 0.1249 0.96565 0.0
C216 C 0.50103 0.13141 0.92934 0.0
C217 C 0.47359 0.15615 0.83287 0.0
N218 N 0.44271 0.13403 0.935 0.0
C219 C 0.44283 0.14943 0.86913 0.0
O220 O 0.60776 0.11611 0.77234 0.0
C221 C 0.58648 0.12198 0.71263 0.0
O222 O 0.56365 0.13512 0.73169 0.0
H223 H 0.52357 0.12413 0.95326 0.0
H224 H 0.47492 0.16858 0.7815 0.0
C225 C 0.68797 0.121 0.88997 0.0
C226 C 0.71951 0.12955 0.90763 0.0
C227 C 0.69479 0.15638 0.99879 0.0
C228 C 0.66367 0.14809 0.98009 0.0
N229 N 0.66077 0.13034 0.92774 0.0
N230 N 0.72188 0.14695 0.9624 0.0
H231 H 0.68504 0.10702 0.84774 0.0
C232 C 0.5789 0.18938 0.74596 0.0
O233 O 0.6038 0.17645 0.76029 0.0
O234 O 0.61584 0.08888 0.96007 0.0
H235 H 0.64209 0.15577 1.00797 0.0
H236 H 0.46993 0.11262 0.01772 0.0
H237 H 0.69742 0.17032 0.04141 0.0
Zn238 Zn 0.10909 0.84488 0.32835 0.0
C239 C 0.0742 0.86224 0.5707 0.0
N240 N 0.08847 0.84407 0.59757 0.0
C241 C 0.09519 0.83464 0.5167 0.0
N242 N 0.08554 0.84647 0.44407 0.0
N243 N 0.07163 0.86373 0.47783 0.0
C244 C 0.06639 0.92113 0.45526 0.0
O245 O 0.09334 0.91207 0.42373 0.0
O246 O 0.10509 0.8153 0.27777 0.0
Zn247 Zn 0.03965 0.8807 0.41125 0.0
N248 N 0.1546 0.85307 0.35683 0.0
C249 C 0.18609 0.87661 0.45015 0.0
C250 C 0.15587 0.86961 0.41658 0.0
C251 C 0.18295 0.84351 0.32674 0.0
N252 N 0.21418 0.86701 0.42162 0.0
C253 C 0.21381 0.8507 0.36039 0.0
O254 O 0.04727 0.88314 0.27266 0.0
C255 C 0.06796 0.87722 0.21156 0.0
O256 O 0.0911 0.86421 0.22944 0.0
H257 H 0.13337 0.87719 0.4391 0.0
H258 H 0.18145 0.83036 0.27918 0.0
C259 C 0.96818 0.87763 0.39981 0.0
C260 C 0.93722 0.86857 0.42045 0.0
C261 C 0.96422 0.84131 0.50424 0.0
C262 C 0.99475 0.85012 0.48264 0.0
N263 N 0.99625 0.86832 0.43253 0.0
N264 N 0.93628 0.85071 0.4729 0.0
H265 H 0.97 0.89199 0.35935 0.0
C266 C 0.10972 0.8115 0.19238 0.0
O267 O 0.12055 0.82668 0.13823 0.0
O268 O 0.03987 0.91042 0.45984 0.0
H269 H 0.01701 0.84251 0.50665 0.0
H270 H 0.18728 0.8896 0.49858 0.0
H271 H 0.9627 0.82701 0.54516 0.0
H272 H 0.38086 0.37249 0.51322 0.0
H273 H 0.23072 0.38935 0.30171 0.0
H274 H 0.42591 0.38616 0.24959 0.0
H275 H 0.28444 0.37084 0.057 0.0
H276 H 0.28325 0.39694 0.37843 0.0
H277 H 0.32673 0.37971 0.44666 0.0
C278 C 0.37936 0.37761 0.44179 0.0
C279 C 0.40788 0.37873 0.38687 0.0
C280 C 0.28354 0.39128 0.30786 0.0
C281 C 0.34583 0.38706 0.30959 0.0
C282 C 0.25348 0.38726 0.26342 0.0
C283 C 0.25318 0.37917 0.17306 0.0
C284 C 0.31343 0.38705 0.26169 0.0
C285 C 0.28355 0.37669 0.12728 0.0
C286 C 0.34839 0.38192 0.40386 0.0
C287 C 0.40457 0.3853 0.29461 0.0
N288 N 0.31242 0.38043 0.17231 0.0
N289 N 0.37399 0.38876 0.2583 0.0
H290 H 0.22779 0.61049 0.72536 0.0
H291 H 0.37802 0.62772 0.51504 0.0
H292 H 0.28154 0.62843 0.97089 0.0
H293 H 0.42295 0.61345 0.77825 0.0
H294 H 0.32387 0.6203 0.58101 0.0
H295 H 0.28032 0.60298 0.64845 0.0
C296 C 0.25056 0.61247 0.76377 0.0
C297 C 0.25028 0.62038 0.85444 0.0
C298 C 0.34551 0.618 0.62381 0.0
C299 C 0.31051 0.61258 0.76565 0.0
C300 C 0.37649 0.62242 0.58621 0.0
C301 C 0.40499 0.6212 0.64123 0.0
C302 C 0.34291 0.61264 0.71784 0.0
C303 C 0.40164 0.61439 0.73315 0.0
C304 C 0.28061 0.60849 0.71925 0.0
C305 C 0.28064 0.62272 0.90038 0.0
N306 N 0.37105 0.61083 0.76916 0.0
N307 N 0.3095 0.61903 0.85528 0.0
H308 H 0.76681 0.65352 0.54737 0.0
H309 H 0.89049 0.65573 0.97123 0.0
H310 H 0.7347 0.66016 0.83015 0.0
H311 H 0.92268 0.65866 0.68725 0.0
H312 H 0.8338 0.66227 0.92104 0.0
H313 H 0.82362 0.66029 0.59589 0.0
C314 C 0.77166 0.65682 0.61961 0.0
C315 C 0.74595 0.65616 0.68486 0.0
C316 C 0.85325 0.6619 0.86964 0.0
C317 C 0.81129 0.66352 0.74143 0.0
C318 C 0.88569 0.65817 0.89827 0.0
C319 C 0.91137 0.65653 0.83331 0.0
C320 C 0.84616 0.66361 0.77492 0.0
C321 C 0.90372 0.65991 0.73978 0.0
C322 C 0.80416 0.66068 0.64729 0.0
C323 C 0.75367 0.66063 0.7774 0.0
N324 N 0.87172 0.66291 0.71326 0.0
N325 N 0.78573 0.66375 0.80316 0.0
H326 H 0.89251 0.34636 0.05046 0.0
H327 H 0.76932 0.34478 0.47573 0.0
H328 H 0.92494 0.34049 0.33343 0.0
H329 H 0.73674 0.34123 0.1923 0.0
H330 H 0.826 0.33834 0.42527 0.0
H331 H 0.83576 0.33971 0.09991 0.0
C332 C 0.88775 0.34327 0.12297 0.0
C333 C 0.91355 0.34411 0.18794 0.0
C334 C 0.80647 0.33855 0.37405 0.0
C335 C 0.84827 0.33684 0.24552 0.0
C336 C 0.77404 0.34221 0.40285 0.0
C337 C 0.74825 0.34364 0.3381 0.0
C338 C 0.81344 0.3367 0.27935 0.0
C339 C 0.75579 0.34013 0.24466 0.0
C340 C 0.85528 0.33947 0.15117 0.0
C341 C 0.90592 0.33989 0.28084 0.0
N342 N 0.78779 0.3372 0.21792 0.0
N343 N 0.8739 0.3368 0.30703 0.0
H344 H 0.72862 0.88795 0.29547 0.0
H345 H 0.87834 0.87066 0.50992 0.0
H346 H 0.7829 0.87001 0.0509 0.0
H347 H 0.92399 0.88467 0.24742 0.0
H348 H 0.82433 0.87774 0.4423 0.0
H349 H 0.781 0.89505 0.37392 0.0
C350 C 0.75147 0.88588 0.25761 0.0
C351 C 0.75136 0.87811 0.16669 0.0
C352 C 0.84609 0.88004 0.39997 0.0
C353 C 0.81144 0.88543 0.25727 0.0
C354 C 0.877 0.8758 0.43851 0.0
C355 C 0.90568 0.87709 0.38427 0.0
C356 C 0.84374 0.88529 0.30578 0.0
C357 C 0.90254 0.8837 0.29199 0.0
C358 C 0.78145 0.88961 0.30302 0.0
C359 C 0.78185 0.87562 0.12154 0.0
N360 N 0.87203 0.88711 0.25511 0.0
N361 N 0.81062 0.87909 0.16746 0.0
H362 H 0.926 0.11427 0.7869 0.0
H363 H 0.72909 0.11472 0.73082 0.0
H364 H 0.87542 0.12513 0.52848 0.0
H365 H 0.7799 0.12592 0.98844 0.0
H366 H 0.7825 0.10756 0.65688 0.0
H367 H 0.8725 0.10755 0.86109 0.0
C368 C 0.90377 0.11465 0.7452 0.0
C369 C 0.90509 0.12039 0.65149 0.0
C370 C 0.78183 0.11117 0.73004 0.0
C371 C 0.84396 0.11292 0.73596 0.0
C372 C 0.75135 0.11508 0.77242 0.0
C373 C 0.75014 0.12104 0.86579 0.0
C374 C 0.81114 0.11307 0.78164 0.0
C375 C 0.77982 0.12158 0.91603 0.0
C376 C 0.87324 0.11099 0.78773 0.0
C377 C 0.87542 0.12096 0.60114 0.0
N378 N 0.80913 0.11782 0.87324 0.0
N379 N 0.84606 0.11745 0.64409 0.0
H380 H 0.23162 0.16127 0.83381 0.0
H381 H 0.42334 0.16077 0.69255 0.0
H382 H 0.2673 0.15411 0.55455 0.0
H383 H 0.38777 0.15595 0.97299 0.0
H384 H 0.36645 0.16714 0.64057 0.0
H385 H 0.28851 0.16814 0.88479 0.0
C386 C 0.25123 0.16172 0.78285 0.0
C387 C 0.24471 0.15696 0.68986 0.0
C388 C 0.37121 0.16506 0.71371 0.0
C389 C 0.30989 0.16449 0.74778 0.0
C390 C 0.40376 0.16162 0.74348 0.0
C391 C 0.41033 0.15767 0.83723 0.0
C392 C 0.34511 0.16462 0.77816 0.0
C393 C 0.38379 0.15867 0.89989 0.0
C394 C 0.28377 0.16545 0.81206 0.0
C395 C 0.27125 0.15747 0.62712 0.0
N396 N 0.35241 0.16184 0.86924 0.0
N397 N 0.30262 0.16093 0.65723 0.0
H398 H 0.4247 0.83773 0.33405 0.0
H399 H 0.23364 0.83828 0.18595 0.0
H400 H 0.39033 0.84539 0.05363 0.0
H401 H 0.26815 0.84415 0.46691 0.0
H402 H 0.29074 0.83156 0.13627 0.0
H403 H 0.36761 0.83077 0.38278 0.0
C404 C 0.40534 0.83737 0.28234 0.0
C405 C 0.41229 0.8423 0.1897 0.0
C406 C 0.28569 0.83392 0.20906 0.0
C407 C 0.34686 0.83466 0.24508 0.0
C408 C 0.25304 0.83755 0.2375 0.0
C409 C 0.24616 0.84193 0.33062 0.0
C410 C 0.31153 0.83457 0.2743 0.0
C411 C 0.27241 0.84108 0.39424 0.0
C412 C 0.37268 0.83359 0.31028 0.0
C413 C 0.38604 0.8419 0.12597 0.0
N414 N 0.30389 0.83771 0.3649 0.0
N415 N 0.35454 0.83838 0.15487 0.0
H416 H 0.03573 0.55176 0.97422 0.0
H417 H 0.14453 0.44701 0.0317 0.0
H418 H 0.14242 0.55185 0.9833 0.0
H419 H 0.03938 0.44891 0.08241 0.0
H420 H 0.14373 0.48502 1.00165 0.0
H421 H 0.03614 0.51373 1.00458 0.0
C422 C 0.05924 0.5438 0.98298 0.0
C423 C 0.08909 0.555 0.97605 0.0
C424 C 0.12083 0.47711 0.01929 0.0
C425 C 0.08973 0.51145 1.00987 0.0
C426 C 0.12123 0.45539 0.03599 0.0
C427 C 0.09198 0.44476 0.05987 0.0
C428 C 0.09093 0.4883 0.02582 0.0
C429 C 0.06254 0.45646 0.06452 0.0
C430 C 0.05945 0.52209 1.00028 0.0
C431 C 0.11881 0.54387 0.98822 0.0
N432 N 0.06276 0.4776 0.04763 0.0
N433 N 0.11837 0.5227 1.00399 0.0
H434 H 0.62245 0.44805 0.4814 0.0
H435 H 0.51372 0.55313 0.52799 0.0
H436 H 0.51576 0.44786 0.48853 0.0
H437 H 0.61871 0.55115 0.58108 0.0
H438 H 0.51437 0.51497 0.50124 0.0
H439 H 0.62189 0.48617 0.50852 0.0
C440 C 0.5989 0.456 0.48906 0.0
C441 C 0.5691 0.44474 0.48257 0.0
C442 C 0.53726 0.5229 0.51868 0.0
C443 C 0.56829 0.48844 0.51269 0.0
C444 C 0.53695 0.54471 0.53346 0.0
C445 C 0.5662 0.55536 0.55702 0.0
C446 C 0.56708 0.51166 0.52676 0.0
C447 C 0.59555 0.54359 0.56336 0.0
C448 C 0.5986 0.47778 0.50452 0.0
C449 C 0.53933 0.45589 0.49324 0.0
N450 N 0.59524 0.5224 0.54827 0.0
N451 N 0.53968 0.47713 0.50722 0.0
H452 H 0.53527 0.05268 0.98337 0.0
H453 H 0.64312 0.94708 0.02574 0.0
H454 H 0.64199 0.05228 0.98621 0.0
H455 H 0.53822 0.9493 0.0799 0.0
H456 H 0.64271 0.98525 0.99929 0.0
H457 H 0.53546 0.01451 1.00982 0.0
C458 C 0.55875 0.04459 0.98996 0.0
C459 C 0.58866 0.05571 0.98245 0.0
C460 C 0.61978 0.97738 0.01687 0.0
C461 C 0.58905 0.01195 1.01178 0.0
C462 C 0.61995 0.95556 0.0315 0.0
C463 C 0.59066 0.94496 0.05531 0.0
C464 C 0.59006 0.9887 0.02542 0.0
C465 C 0.56141 0.9568 0.06197 0.0
C466 C 0.55883 0.02279 1.00501 0.0
C467 C 0.61833 0.04438 0.99172 0.0
N468 N 0.56185 0.97802 0.0471 0.0
N469 N 0.61777 0.02312 1.00537 0.0
H470 H 0.01312 0.94637 0.49365 0.0
H471 H 0.12052 0.05137 0.56087 0.0
H472 H 0.11936 0.94796 0.46561 0.0
H473 H 0.01437 0.05147 0.52947 0.0
H474 H 0.12074 0.01318 0.53574 0.0
H475 H 0.01326 0.98452 0.51942 0.0
C476 C 0.03651 0.95471 0.49351 0.0
C477 C 0.06628 0.94395 0.47716 0.0
C478 C 0.09742 0.02158 0.53398 0.0
C479 C 0.06657 0.98766 0.5063 0.0
C480 C 0.09727 0.04339 0.54827 0.0
C481 C 0.06737 0.05464 0.54738 0.0
C482 C 0.06743 0.01089 0.51949 0.0
C483 C 0.03801 0.04345 0.5306 0.0
C484 C 0.03654 0.97652 0.50772 0.0
C485 C 0.09582 0.95561 0.47758 0.0
N486 N 0.03876 0.02219 0.51783 0.0
N487 N 0.09522 0.97683 0.49191 0.0
H488 H 0.10178 0.30556 0.12238 0.0
H489 H 0.07172 0.2187 0.74222 0.0
H490 H 0.02662 0.31112 0.913 0.0
H491 H 0.12119 0.20412 0.99901 0.0
H492 H 0.05467 0.25259 0.80637 0.0
H493 H 0.10686 0.26791 0.08772 0.0
C494 C 0.08497 0.29859 0.07293 0.0
C495 C 0.06301 0.3113 0.02251 0.0
C496 C 0.06907 0.24194 0.84905 0.0
C497 C 0.07055 0.26867 0.97695 0.0
C498 C 0.07912 0.22265 0.81203 0.0
C499 C 0.09817 0.2086 0.86499 0.0
C500 C 0.07849 0.24744 0.93937 0.0
C501 C 0.10665 0.21451 0.95556 0.0
C502 C 0.08845 0.27718 0.05139 0.0
C503 C 0.04351 0.30175 0.95426 0.0
N504 N 0.09703 0.23359 0.98963 0.0
N505 N 0.04812 0.28109 0.93236 0.0
H506 H 0.64602 0.68541 0.43134 0.0
H507 H 0.64006 0.79323 0.33181 0.0
H508 H 0.55658 0.69619 0.58543 0.0
H509 H 0.5349 0.78245 0.35043 0.0
H510 H 0.64972 0.75948 0.40965 0.0
H511 H 0.64715 0.72283 0.38869 0.0
C512 C 0.62754 0.69595 0.45984 0.0
C513 C 0.60171 0.68794 0.51396 0.0
C514 C 0.62455 0.76443 0.3962 0.0
C515 C 0.60192 0.73051 0.46278 0.0
C516 C 0.61897 0.78375 0.35208 0.0
C517 C 0.58659 0.79056 0.33346 0.0
C518 C 0.59754 0.75186 0.42242 0.0
C519 C 0.56026 0.77769 0.36225 0.0
C520 C 0.62803 0.71729 0.43512 0.0
C521 C 0.57751 0.70197 0.5462 0.0
N522 N 0.56632 0.75897 0.40542 0.0
N523 N 0.57777 0.72251 0.51834 0.0
H524 H 0.12424 0.79557 0.02073 0.0
H525 H 0.02307 0.68874 0.10824 0.0
H526 H 0.07205 0.78065 0.27288 0.0
H527 H 0.1006 0.69385 0.90551 0.0
H528 H 0.0297 0.72632 0.14357 0.0
H529 H 0.10635 0.76163 0.95593 0.0
C530 C 0.10903 0.78518 0.06245 0.0
C531 C 0.09993 0.79086 0.1528 0.0
C532 C 0.04457 0.71938 0.08926 0.0
C533 C 0.07884 0.75233 0.07833 0.0
C534 C 0.04045 0.69804 0.06822 0.0
C535 C 0.06074 0.68836 1.0022 0.0
C536 C 0.06942 0.73105 0.04455 0.0
C537 C 0.08354 0.70092 0.95397 0.0
C538 C 0.09876 0.76588 0.02526 0.0
C539 C 0.08001 0.77684 0.20344 0.0
N540 N 0.08759 0.7216 0.97689 0.0
N541 N 0.07014 0.75826 0.1655 0.0
H542 H 0.63738 0.21026 0.72251 0.0
H543 H 0.55692 0.30536 0.43611 0.0
H544 H 0.5334 0.21458 0.65843 0.0
H545 H 0.6452 0.31244 0.5996 0.0
H546 H 0.55525 0.26779 0.47698 0.0
H547 H 0.64645 0.24396 0.64289 0.0
C548 C 0.61647 0.21824 0.69126 0.0
C549 C 0.58451 0.2097 0.69776 0.0
C550 C 0.57554 0.27743 0.50168 0.0
C551 C 0.59491 0.248 0.60512 0.0
C552 C 0.57692 0.29874 0.47665 0.0
C553 C 0.60168 0.31181 0.51293 0.0
C554 C 0.59908 0.26924 0.56346 0.0
C555 C 0.62604 0.30272 0.5692 0.0
C556 C 0.62172 0.23743 0.64579 0.0
C557 C 0.55836 0.22072 0.65591 0.0
N558 N 0.62402 0.28199 0.59343 0.0
N559 N 0.56414 0.2393 0.61123 0.0
H560 H 0.52059 0.71099 0.80174 0.0
H561 H 0.60227 0.80443 0.09482 0.0
H562 H 0.62435 0.71379 0.87011 0.0
H563 H 0.51529 0.81287 0.92707 0.0
H564 H 0.60314 0.76691 0.05281 0.0
H565 H 0.51219 0.74457 0.88225 0.0
C566 C 0.54159 0.71861 0.83407 0.0
C567 C 0.5733 0.70968 0.82848 0.0
C568 C 0.58331 0.77684 0.02739 0.0
C569 C 0.56365 0.74786 0.92219 0.0
C570 C 0.58239 0.79812 0.05297 0.0
C571 C 0.55827 0.81157 0.01566 0.0
C572 C 0.55991 0.76906 0.96428 0.0
C573 C 0.53398 0.80287 0.95812 0.0
C574 C 0.53673 0.73774 0.88009 0.0
C575 C 0.59958 0.72024 0.87184 0.0
N576 N 0.53553 0.78217 0.93351 0.0
N577 N 0.59416 0.73878 0.91699 0.0
H578 H 0.03128 0.2863 0.3767 0.0
H579 H 0.14193 0.18563 0.41533 0.0
H580 H 0.1363 0.29015 0.3273 0.0
H581 H 0.05741 0.19414 0.59253 0.0
H582 H 0.14128 0.22357 0.38033 0.0
H583 H 0.03955 0.25175 0.45043 0.0
C584 C 0.05604 0.27987 0.38149 0.0
C585 C 0.08313 0.29103 0.34563 0.0
C586 C 0.12348 0.21725 0.42902 0.0
C587 C 0.09272 0.25161 0.42914 0.0
C588 C 0.12406 0.19569 0.44955 0.0
C589 C 0.10005 0.18695 0.50795 0.0
C590 C 0.09795 0.22989 0.46454 0.0
C591 C 0.07676 0.20044 0.54865 0.0
C592 C 0.06079 0.26029 0.42427 0.0
C593 C 0.11475 0.28207 0.3542 0.0
N594 N 0.07579 0.22121 0.52455 0.0
N595 N 0.11864 0.26275 0.39392 0.0
H596 H 0.52198 0.29002 0.22391 0.0
H597 H 0.60264 0.19547 0.93573 0.0
H598 H 0.62585 0.28624 0.15797 0.0
H599 H 0.51489 0.18791 0.10106 0.0
H600 H 0.60415 0.233 0.97698 0.0
H601 H 0.51312 0.25631 0.14466 0.0
C602 C 0.54291 0.28215 0.19235 0.0
C603 C 0.57478 0.29085 0.19818 0.0
C604 C 0.58401 0.22327 1.00202 0.0
C605 C 0.56462 0.25254 0.10596 0.0
C606 C 0.58272 0.20198 0.9768 0.0
C607 C 0.55816 0.18879 1.01348 0.0
C608 C 0.56057 0.23131 0.06434 0.0
C609 C 0.53389 0.19773 0.07036 0.0
C610 C 0.53779 0.26296 0.14708 0.0
C611 C 0.60096 0.27998 0.15595 0.0
N612 N 0.53581 0.21844 0.09471 0.0
N613 N 0.59529 0.26139 0.11147 0.0
H614 H 0.03095 0.71336 0.64726 0.0
H615 H 0.14356 0.81303 0.60636 0.0
H616 H 0.13579 0.70877 0.69862 0.0
H617 H 0.05933 0.80478 0.42777 0.0
H618 H 0.14222 0.77516 0.64246 0.0
H619 H 0.04009 0.74763 0.57185 0.0
C620 C 0.05586 0.71956 0.64258 0.0
C621 C 0.08263 0.70829 0.67952 0.0
C622 C 0.12465 0.7815 0.5932 0.0
C623 C 0.09322 0.74739 0.59402 0.0
C624 C 0.12563 0.80303 0.57201 0.0
C625 C 0.10187 0.81184 0.513 0.0
C626 C 0.09896 0.76898 0.5577 0.0
C627 C 0.07849 0.79842 0.47215 0.0
C628 C 0.0611 0.73898 0.59882 0.0
C629 C 0.11446 0.71696 0.67098 0.0
N630 N 0.0771 0.7777 0.49693 0.0
N631 N 0.11883 0.73614 0.63027 0.0
H632 H 0.14511 0.36379 0.87283 0.0
H633 H 0.03972 0.38687 0.44518 0.0
H634 H 0.05053 0.39443 0.89585 0.0
H635 H 0.14602 0.3864 0.42349 0.0
H636 H 0.04462 0.39316 0.61122 0.0
H637 H 0.14968 0.3764 0.71357 0.0
C638 C 0.12619 0.37424 0.84608 0.0
C639 C 0.09755 0.37828 0.89765 0.0
C640 C 0.06694 0.39216 0.57008 0.0
C641 C 0.1015 0.39156 0.7137 0.0
C642 C 0.06412 0.38843 0.47534 0.0
C643 C 0.0925 0.38591 0.42083 0.0
C644 C 0.09837 0.39271 0.61138 0.0
C645 C 0.12352 0.38822 0.46326 0.0
C646 C 0.12854 0.38118 0.75447 0.0
C647 C 0.07317 0.39121 0.85842 0.0
N648 N 0.12567 0.39097 0.55652 0.0
N649 N 0.07519 0.39686 0.76782 0.0
H650 H 0.51453 0.63881 0.36349 0.0
H651 H 0.61748 0.61258 0.93695 0.0
H652 H 0.6061 0.60465 0.38733 0.0
H653 H 0.51131 0.61575 0.91491 0.0
H654 H 0.61214 0.60627 0.10297 0.0
H655 H 0.50874 0.62626 0.20462 0.0
C656 C 0.53242 0.62763 0.33703 0.0
C657 C 0.56066 0.62255 0.38865 0.0
C658 C 0.58992 0.60786 0.06175 0.0
C659 C 0.55542 0.60931 0.20518 0.0
C660 C 0.593 0.6116 0.96706 0.0
C661 C 0.56481 0.61488 0.91251 0.0
C662 C 0.55846 0.60809 0.10293 0.0
C663 C 0.53365 0.61333 0.95478 0.0
C664 C 0.5294 0.62072 0.24566 0.0
C665 C 0.58379 0.60869 0.34981 0.0
N666 N 0.5313 0.61057 0.04803 0.0
N667 N 0.58122 0.60307 0.25938 0.0
H668 H 0.04709 0.60512 0.12808 0.0
H669 H 0.14459 0.61265 0.60688 0.0
H670 H 0.14147 0.6358 0.15699 0.0
H671 H 0.03849 0.61307 0.57742 0.0
H672 H 0.14974 0.607 0.43917 0.0
H673 H 0.05138 0.59265 0.28824 0.0
C674 C 0.06963 0.60815 0.16644 0.0
C675 C 0.0941 0.62133 0.12935 0.0
C676 C 0.12538 0.60781 0.47007 0.0
C677 C 0.09868 0.60781 0.31279 0.0
C678 C 0.1224 0.61099 0.56554 0.0
C679 C 0.09105 0.61359 0.60566 0.0
C680 C 0.09679 0.60677 0.41509 0.0
C681 C 0.06311 0.61142 0.54895 0.0
C682 C 0.0718 0.60135 0.25822 0.0
C683 C 0.12232 0.62541 0.18274 0.0
N684 N 0.06664 0.60826 0.45654 0.0
N685 N 0.12362 0.61901 0.27254 0.0
H686 H 0.61051 0.39541 0.63935 0.0
H687 H 0.51307 0.38524 0.11728 0.0
H688 H 0.51833 0.36208 0.66787 0.0
H689 H 0.61913 0.38732 0.08845 0.0
H690 H 0.50771 0.3909 0.94948 0.0
H691 H 0.60514 0.40781 0.79921 0.0
C692 C 0.58817 0.39175 0.67754 0.0
C693 C 0.56468 0.37788 0.64051 0.0
C694 C 0.53207 0.39063 0.98056 0.0
C695 C 0.55889 0.39132 0.82352 0.0
C696 C 0.53516 0.38746 0.07604 0.0
C697 C 0.56661 0.38555 0.1163 0.0
C698 C 0.56062 0.39239 0.92578 0.0
C699 C 0.59445 0.38842 0.05981 0.0
C700 C 0.58538 0.39852 0.76913 0.0
C701 C 0.53669 0.37302 0.69364 0.0
N702 N 0.59081 0.39157 0.9674 0.0
N703 N 0.53482 0.37941 0.78326 0.0
H704 H 0.54898 0.89479 0.89038 0.0
H705 H 0.64626 0.8859 0.4119 0.0
H706 H 0.64228 0.86279 0.86181 0.0
H707 H 0.54017 0.88598 0.44164 0.0
H708 H 0.65155 0.89175 0.57948 0.0
H709 H 0.55373 0.90715 0.73015 0.0
C710 C 0.57142 0.89144 0.85211 0.0
C711 C 0.59541 0.87792 0.88928 0.0
C712 C 0.62717 0.891 0.54864 0.0
C713 C 0.60052 0.89134 0.70587 0.0
C714 C 0.62411 0.8877 0.45328 0.0
C715 C 0.59272 0.88519 0.41335 0.0
C716 C 0.59862 0.89227 0.60362 0.0
C717 C 0.56483 0.88755 0.47003 0.0
C718 C 0.57385 0.89819 0.76031 0.0
C719 C 0.62352 0.87345 0.83604 0.0
N720 N 0.56842 0.89085 0.56232 0.0
N721 N 0.62506 0.87982 0.74623 0.0
H722 H 0.10726 0.10372 0.38306 0.0
H723 H 0.00996 0.11338 0.90489 0.0
H724 H 0.01467 0.13659 0.35434 0.0
H725 H 0.11604 0.11365 0.93498 0.0
H726 H 1.00468 0.10725 0.07242 0.0
H727 H 0.10215 0.09144 0.22298 0.0
C728 C 0.08487 0.10727 0.34485 0.0
C729 C 0.06122 0.12102 0.3819 0.0
C730 C 0.02905 0.10813 0.04161 0.0
C731 C 0.0557 0.10767 0.19877 0.0
C732 C 0.0321 0.1116 0.94634 0.0
C733 C 0.06349 0.1143 0.90659 0.0
C734 C 0.05761 0.10686 0.0966 0.0
C735 C 0.09139 0.11195 0.96327 0.0
C736 C 0.08224 0.10056 0.25315 0.0
C737 C 0.03317 0.12574 0.32874 0.0
N738 N 0.0878 0.10847 0.05546 0.0
N739 N 0.03143 0.1194 0.23905 0.0
H740 H 0.64204 0.13724 0.16506 0.0
H741 H 0.53673 0.11388 0.59095 0.0
H742 H 0.54816 0.10576 0.1406 0.0
H743 H 0.64301 0.11409 0.61383 0.0
H744 H 0.54183 0.10749 0.42501 0.0
H745 H 0.64669 0.12454 0.32414 0.0
C746 C 0.62332 0.12659 0.19143 0.0
C747 C 0.59484 0.12233 0.13953 0.0
C748 C 0.56409 0.10845 0.46642 0.0
C749 C 0.59884 0.10896 0.32328 0.0
C750 C 0.56116 0.11223 0.56107 0.0
C751 C 0.58949 0.11471 0.61585 0.0
C752 C 0.59558 0.10781 0.42551 0.0
C753 C 0.62056 0.11231 0.57383 0.0
C754 C 0.62571 0.1196 0.28294 0.0
C755 C 0.57069 0.10915 0.1783 0.0
N756 N 0.62282 0.10951 0.48063 0.0
N757 N 0.57271 0.10346 0.26885 0.0
H758 H 0.10799 0.89538 0.63871 0.0
H759 H 0.01049 0.88446 0.11608 0.0
H760 H 0.01635 0.8614 0.66622 0.0
H761 H 0.11657 0.88586 0.0869 0.0
H762 H 1.00515 0.89042 0.94843 0.0
H763 H 0.1023 0.90759 0.79874 0.0
C764 C 0.08566 0.89155 0.67669 0.0
C765 C 0.06247 0.87753 0.63935 0.0
C766 C 0.02952 0.88995 0.97945 0.0
C767 C 0.05632 0.89078 0.82246 0.0
C768 C 0.0326 0.88658 0.0748 0.0
C769 C 0.06404 0.8844 0.11486 0.0
C770 C 0.05808 0.89164 0.92468 0.0
C771 C 0.0919 0.88717 0.05838 0.0
C772 C 0.08271 0.89822 0.76836 0.0
C773 C 0.0345 0.87245 0.69219 0.0
N774 N 0.08827 0.89053 0.96613 0.0
N775 N 0.03246 0.87875 0.7819 0.0
loop_
_geom_bond_atom_site_label_1
_geom_bond_atom_site_label_2
_geom_bond_distance
_geom_bond_site_symmetry_2
_ccdc_geom_bond_type
Zn0 N4 2.020 . S
Zn0 O8 2.019 . S
Zn0 N10 2.119 . S
Zn0 O18 1.975 . S
C1 N2 1.334 1_554 S
C1 N5 1.336 . S
N2 C1 1.334 1_556 S
N2 C3 1.334 . S
C3 N2 1.334 . S
C3 N4 1.336 1_556 S
N4 Zn0 2.020 . S
N4 C3 1.336 1_554 S
N4 N5 1.354 . S
N5 C1 1.336 . S
N5 N4 1.354 . S
N5 Zn9 2.020 . S
C6 O7 1.244 . S
C6 O30 1.257 . S
O7 C6 1.244 . S
O8 Zn0 2.019 . S
O8 C28 1.257 . S
Zn9 N5 2.020 . S
Zn9 O16 1.975 . S
Zn9 N25 2.119 . S
Zn9 O30 2.019 . S
N10 Zn0 2.119 . S
N10 C12 1.334 . S
N10 C13 1.328 . S
C11 C12 1.391 . S
C11 N14 1.329 . S
C11 H32 0.930 . S
C12 N10 1.334 . S
C12 C11 1.391 . S
C12 H19 0.930 . S
C13 N10 1.328 . S
C13 C15 1.392 . S
C13 H20 0.930 . S
N14 C11 1.329 . S
N14 C15 1.331 . S
C15 C13 1.392 . S
C15 N14 1.331 . S
O16 Zn9 1.975 . S
O16 C17 1.252 . S
C17 O16 1.252 . S
C17 O18 1.252 . S
O18 Zn0 1.975 . S
O18 C17 1.252 . S
H19 C12 0.930 . S
H20 C13 0.930 . S
C21 C22 1.392 . S
C21 N25 1.328 1_655 S
C21 H27 0.930 1_655 S
C22 C21 1.392 . S
C22 N26 1.331 . S
C23 C24 1.391 1_655 S
C23 N26 1.329 . S
C23 H33 0.930 . S
C24 C23 1.391 1_455 S
C24 N25 1.334 . S
C24 H31 0.930 . S
N25 Zn9 2.119 . S
N25 C21 1.328 1_455 S
N25 C24 1.334 . S
N26 C22 1.331 . S
N26 C23 1.329 . S
H27 C21 0.930 1_455 S
C28 O8 1.257 . S
C28 O29 1.244 . S
O29 C28 1.244 . S
O30 C6 1.257 . S
O30 Zn9 2.019 . S
H31 C24 0.930 . S
H32 C11 0.930 . S
H33 C23 0.930 . S
Zn34 N38 2.020 . S
Zn34 O42 2.019 . S
Zn34 N44 2.119 . S
Zn34 O52 1.975 . S
C35 N36 1.334 . S
C35 N39 1.336 . S
N36 C35 1.334 . S
N36 C37 1.334 . S
C37 N36 1.334 . S
C37 N38 1.336 . S
N38 Zn34 2.020 . S
N38 C37 1.336 . S
N38 N39 1.354 . S
N39 C35 1.336 . S
N39 N38 1.354 . S
N39 Zn43 2.020 . S
C40 O41 1.244 . S
C40 O64 1.257 . S
O41 C40 1.244 . S
O42 Zn34 2.019 . S
O42 C62 1.257 . S
Zn43 N39 2.020 . S
Zn43 O50 1.975 . S
Zn43 N59 2.119 . S
Zn43 O64 2.019 . S
N44 Zn34 2.119 . S
N44 C46 1.334 . S
N44 C47 1.328 . S
C45 C46 1.391 . S
C45 N48 1.329 . S
C45 H66 0.930 . S
C46 N44 1.334 . S
C46 C45 1.391 . S
C46 H53 0.930 . S
C47 N44 1.328 . S
C47 C49 1.392 . S
C47 H54 0.930 . S
N48 C45 1.329 . S
N48 C49 1.331 . S
C49 C47 1.392 . S
C49 N48 1.331 . S
O50 Zn43 1.975 . S
O50 C51 1.252 . S
C51 O50 1.252 . S
C51 O52 1.252 . S
O52 Zn34 1.975 . S
O52 C51 1.252 . S
H53 C46 0.930 . S
H54 C47 0.930 . S
C55 C56 1.392 . S
C55 N59 1.328 . S
C55 H61 0.930 . S
C56 C55 1.392 . S
C56 N60 1.331 . S
C57 C58 1.391 . S
C57 N60 1.329 . S
C57 H67 0.930 . S
C58 C57 1.391 . S
C58 N59 1.334 . S
C58 H65 0.930 . S
N59 Zn43 2.119 . S
N59 C55 1.328 . S
N59 C58 1.334 . S
N60 C56 1.331 . S
N60 C57 1.329 . S
H61 C55 0.930 . S
C62 O42 1.257 . S
C62 O63 1.244 . S
O63 C62 1.244 . S
O64 C40 1.257 . S
O64 Zn43 2.019 . S
H65 C58 0.930 . S
H66 C45 0.930 . S
H67 C57 0.930 . S
Zn68 N72 2.020 . S
Zn68 O76 2.019 . S
Zn68 N78 2.119 . S
Zn68 O86 1.975 . S
C69 N70 1.334 . S
C69 N73 1.336 1_554 S
N70 C69 1.334 . S
N70 C71 1.334 1_554 S
C71 N70 1.334 1_556 S
C71 N72 1.336 . S
N72 Zn68 2.020 . S
N72 C71 1.336 . S
N72 N73 1.354 . S
N73 C69 1.336 1_556 S
N73 N72 1.354 . S
N73 Zn77 2.020 . S
C74 O75 1.244 . S
C74 O98 1.257 . S
O75 C74 1.244 . S
O76 Zn68 2.019 . S
O76 C96 1.257 . S
Zn77 N73 2.020 . S
Zn77 O84 1.975 . S
Zn77 N93 2.119 . S
Zn77 O98 2.019 . S
N78 Zn68 2.119 . S
N78 C80 1.334 . S
N78 C81 1.328 1_455 S
C79 C80 1.391 1_655 S
C79 N82 1.329 . S
C79 H100 0.930 . S
C80 N78 1.334 . S
C80 C79 1.391 1_455 S
C80 H87 0.930 . S
C81 N78 1.328 1_655 S
C81 C83 1.392 . S
C81 H88 0.930 1_655 S
N82 C79 1.329 . S
N82 C83 1.331 . S
C83 C81 1.392 . S
C83 N82 1.331 . S
O84 Zn77 1.975 . S
O84 C85 1.252 . S
C85 O84 1.252 . S
C85 O86 1.252 . S
O86 Zn68 1.975 . S
O86 C85 1.252 . S
H87 C80 0.930 . S
H88 C81 0.930 1_455 S
C89 C90 1.392 . S
C89 N93 1.328 . S
C89 H95 0.930 . S
C90 C89 1.392 . S
C90 N94 1.331 . S
C91 C92 1.391 . S
C91 N94 1.329 . S
C91 H101 0.930 . S
C92 C91 1.391 . S
C92 N93 1.334 . S
C92 H99 0.930 . S
N93 Zn77 2.119 . S
N93 C89 1.328 . S
N93 C92 1.334 . S
N94 C90 1.331 . S
N94 C91 1.329 . S
H95 C89 0.930 . S
C96 O76 1.257 . S
C96 O97 1.244 . S
O97 C96 1.244 . S
O98 C74 1.257 . S
O98 Zn77 2.019 . S
H99 C92 0.930 . S
H100 C79 0.930 . S
H101 C91 0.930 . S
Zn102 N106 2.020 . S
Zn102 O110 2.019 . S
Zn102 N112 2.119 . S
Zn102 O120 1.975 . S
C103 N104 1.334 . S
C103 N107 1.336 . S
N104 C103 1.334 . S
N104 C105 1.334 . S
C105 N104 1.334 . S
C105 N106 1.336 . S
N106 Zn102 2.020 . S
N106 C105 1.336 . S
N106 N107 1.354 . S
N107 C103 1.336 . S
N107 N106 1.354 . S
N107 Zn111 2.020 . S
C108 O109 1.244 . S
C108 O132 1.257 . S
O109 C108 1.244 . S
O110 Zn102 2.019 . S
O110 C130 1.257 . S
Zn111 N107 2.020 . S
Zn111 O118 1.975 . S
Zn111 N127 2.119 . S
Zn111 O132 2.019 . S
N112 Zn102 2.119 . S
N112 C114 1.334 . S
N112 C115 1.328 . S
C113 C114 1.391 . S
C113 N116 1.329 . S
C113 H134 0.930 . S
C114 N112 1.334 . S
C114 C113 1.391 . S
C114 H121 0.930 . S
C115 N112 1.328 . S
C115 C117 1.392 . S
C115 H122 0.930 . S
N116 C113 1.329 . S
N116 C117 1.331 . S
C117 C115 1.392 . S
C117 N116 1.331 . S
O118 Zn111 1.975 . S
O118 C119 1.252 . S
C119 O118 1.252 . S
C119 O120 1.252 . S
O120 Zn102 1.975 . S
O120 C119 1.252 . S
H121 C114 0.930 . S
H122 C115 0.930 . S
C123 C124 1.392 . S
C123 N127 1.328 . S
C123 H129 0.930 . S
C124 C123 1.392 . S
C124 N128 1.331 . S
C125 C126 1.391 . S
C125 N128 1.329 . S
C125 H135 0.930 . S
C126 C125 1.391 . S
C126 N127 1.334 . S
C126 H133 0.930 . S
N127 Zn111 2.119 . S
N127 C123 1.328 . S
N127 C126 1.334 . S
N128 C124 1.331 . S
N128 C125 1.329 . S
H129 C123 0.930 . S
C130 O110 1.257 . S
C130 O131 1.244 . S
O131 C130 1.244 . S
O132 C108 1.257 . S
O132 Zn111 2.019 . S
H133 C126 0.930 . S
H134 C113 0.930 . S
H135 C125 0.930 . S
Zn136 N140 2.020 . S
Zn136 O144 2.019 . S
Zn136 N146 2.119 . S
Zn136 O154 1.975 . S
C137 N138 1.334 1_554 S
C137 N141 1.336 . S
N138 C137 1.334 1_556 S
N138 C139 1.334 . S
C139 N138 1.334 . S
C139 N140 1.336 1_556 S
N140 Zn136 2.020 . S
N140 C139 1.336 1_554 S
N140 N141 1.354 . S
N141 C137 1.336 . S
N141 N140 1.354 . S
N141 Zn145 2.020 . S
C142 O143 1.244 . S
C142 O166 1.257 . S
O143 C142 1.244 . S
O144 Zn136 2.019 . S
O144 C164 1.257 . S
Zn145 N141 2.020 . S
Zn145 O152 1.975 . S
Zn145 N161 2.119 . S
Zn145 O166 2.019 . S
N146 Zn136 2.119 . S
N146 C148 1.334 . S
N146 C149 1.328 . S
C147 C148 1.391 . S
C147 N150 1.329 . S
C147 H168 0.930 . S
C148 N146 1.334 . S
C148 C147 1.391 . S
C148 H155 0.930 . S
C149 N146 1.328 . S
C149 C151 1.392 . S
C149 H156 0.930 . S
N150 C147 1.329 . S
N150 C151 1.331 . S
C151 C149 1.392 . S
C151 N150 1.331 . S
O152 Zn145 1.975 . S
O152 C153 1.252 . S
C153 O152 1.252 . S
C153 O154 1.252 . S
O154 Zn136 1.975 . S
O154 C153 1.252 . S
H155 C148 0.930 . S
H156 C149 0.930 . S
C157 C158 1.392 . S
C157 N161 1.328 . S
C157 H163 0.930 . S
C158 C157 1.392 . S
C158 N162 1.331 . S
C159 C160 1.391 . S
C159 N162 1.329 . S
C159 H169 0.930 . S
C160 C159 1.391 . S
C160 N161 1.334 . S
C160 H167 0.930 . S
N161 Zn145 2.119 . S
N161 C157 1.328 . S
N161 C160 1.334 . S
N162 C158 1.331 . S
N162 C159 1.329 . S
H163 C157 0.930 . S
C164 O144 1.257 . S
C164 O165 1.244 . S
O165 C164 1.244 . S
O166 C142 1.257 . S
O166 Zn145 2.019 . S
H167 C160 0.930 . S
H168 C147 0.930 . S
H169 C159 0.930 . S
Zn170 N174 2.020 . S
Zn170 O178 2.028 . S
Zn170 N180 2.119 1_455 S
Zn170 O188 1.975 . S
C171 N172 1.334 . S
C171 N175 1.336 . S
N172 C171 1.334 . S
N172 C173 1.334 . S
C173 N172 1.334 . S
C173 N174 1.336 . S
N174 Zn170 2.020 . S
N174 C173 1.336 . S
N174 N175 1.354 . S
N175 C171 1.336 . S
N175 N174 1.354 . S
N175 Zn179 2.020 . S
C176 O177 1.244 . S
C176 O200 1.257 . S
O177 C176 1.244 . S
O178 Zn170 2.028 . S
O178 C198 1.277 . S
Zn179 N175 2.020 . S
Zn179 O186 1.975 . S
Zn179 N195 2.119 . S
Zn179 O200 2.019 . S
N180 Zn170 2.119 1_655 S
N180 C182 1.334 . S
N180 C183 1.328 . S
C181 C182 1.391 . S
C181 N184 1.329 . S
C181 H202 0.930 . S
C182 N180 1.334 . S
C182 C181 1.391 . S
C182 H189 0.930 . S
C183 N180 1.328 . S
C183 C185 1.392 . S
C183 H190 0.930 . S
N184 C181 1.329 . S
N184 C185 1.331 . S
C185 C183 1.392 . S
C185 N184 1.331 . S
O186 Zn179 1.975 . S
O186 C187 1.252 . S
C187 O186 1.252 . S
C187 O188 1.252 . S
O188 Zn170 1.975 . S
O188 C187 1.252 . S
H189 C182 0.930 . S
H190 C183 0.930 . S
C191 C192 1.392 . S
C191 N195 1.328 . S
C191 H197 0.930 . S
C192 C191 1.392 . S
C192 N196 1.331 . S
C193 C194 1.391 . S
C193 N196 1.329 . S
C193 H203 0.930 . S
C194 C193 1.391 . S
C194 N195 1.334 . S
C194 H201 0.930 . S
N195 Zn179 2.119 . S
N195 C191 1.328 . S
N195 C194 1.334 . S
N196 C192 1.331 . S
N196 C193 1.329 . S
H197 C191 0.930 . S
C198 O178 1.277 . S
C198 O199 1.244 . S
O199 C198 1.244 . S
O200 C176 1.257 . S
O200 Zn179 2.019 . S
H201 C194 0.930 . S
H202 C181 0.930 . S
H203 C193 0.930 . S
Zn204 N208 2.020 . S
Zn204 O212 2.019 . S
Zn204 N214 2.119 . S
Zn204 O222 1.975 . S
C205 N206 1.334 . S
C205 N209 1.336 1_554 S
N206 C205 1.334 . S
N206 C207 1.334 1_554 S
C207 N206 1.334 1_556 S
C207 N208 1.336 . S
N208 Zn204 2.020 . S
N208 C207 1.336 . S
N208 N209 1.354 . S
N209 C205 1.336 1_556 S
N209 N208 1.354 . S
N209 Zn213 2.020 . S
C210 O211 1.244 . S
C210 O234 1.257 . S
O211 C210 1.244 . S
O212 Zn204 2.019 . S
O212 C232 1.257 . S
Zn213 N209 2.020 . S
Zn213 O220 1.975 . S
Zn213 N229 2.119 . S
Zn213 O234 2.019 . S
N214 Zn204 2.119 . S
N214 C216 1.334 . S
N214 C217 1.328 . S
C215 C216 1.391 . S
C215 N218 1.329 . S
C215 H236 0.930 . S
C216 N214 1.334 . S
C216 C215 1.391 . S
C216 H223 0.930 . S
C217 N214 1.328 . S
C217 C219 1.392 . S
C217 H224 0.930 . S
N218 C215 1.329 . S
N218 C219 1.331 . S
C219 C217 1.392 . S
C219 N218 1.331 . S
O220 Zn213 1.975 . S
O220 C221 1.252 . S
C221 O220 1.252 . S
C221 O222 1.252 . S
O222 Zn204 1.975 . S
O222 C221 1.252 . S
H223 C216 0.930 . S
H224 C217 0.930 . S
C225 C226 1.392 . S
C225 N229 1.328 . S
C225 H231 0.930 . S
C226 C225 1.392 . S
C226 N230 1.331 . S
C227 C228 1.391 . S
C227 N230 1.329 . S
C227 H237 0.930 . S
C228 C227 1.391 . S
C228 N229 1.334 . S
C228 H235 0.930 . S
N229 Zn213 2.119 . S
N229 C225 1.328 . S
N229 C228 1.334 . S
N230 C226 1.331 . S
N230 C227 1.329 . S
H231 C225 0.930 . S
C232 O212 1.257 . S
C232 O233 1.244 . S
O233 C232 1.244 . S
O234 C210 1.257 . S
O234 Zn213 2.019 . S
H235 C228 0.930 . S
H236 C215 0.930 . S
H237 C227 0.930 . S
Zn238 N242 2.020 . S
Zn238 O246 2.019 . S
Zn238 N248 2.119 . S
Zn238 O256 1.975 . S
C239 N240 1.334 . S
C239 N243 1.336 . S
N240 C239 1.334 . S
N240 C241 1.334 . S
C241 N240 1.334 . S
C241 N242 1.336 . S
N242 Zn238 2.020 . S
N242 C241 1.336 . S
N242 N243 1.354 . S
N243 C239 1.336 . S
N243 N242 1.354 . S
N243 Zn247 2.020 . S
C244 O245 1.244 . S
C244 O268 1.277 . S
O245 C244 1.244 . S
O246 Zn238 2.019 . S
O246 C266 1.257 . S
Zn247 N243 2.020 . S
Zn247 O254 1.975 . S
Zn247 N263 2.119 1_455 S
Zn247 O268 2.028 . S
N248 Zn238 2.119 . S
N248 C250 1.334 . S
N248 C251 1.328 . S
C249 C250 1.391 . S
C249 N252 1.329 . S
C249 H270 0.930 . S
C250 N248 1.334 . S
C250 C249 1.391 . S
C250 H257 0.930 . S
C251 N248 1.328 . S
C251 C253 1.392 . S
C251 H258 0.930 . S
N252 C249 1.329 . S
N252 C253 1.331 . S
C253 C251 1.392 . S
C253 N252 1.331 . S
O254 Zn247 1.975 . S
O254 C255 1.252 . S
C255 O254 1.252 . S
C255 O256 1.252 . S
O256 Zn238 1.975 . S
O256 C255 1.252 . S
H257 C250 0.930 . S
H258 C251 0.930 . S
C259 C260 1.392 . S
C259 N263 1.328 . S
C259 H265 0.930 . S
C260 C259 1.392 . S
C260 N264 1.331 . S
C261 C262 1.391 . S
C261 N264 1.329 . S
C261 H271 0.930 . S
C262 C261 1.391 . S
C262 N263 1.334 . S
C262 H269 0.930 . S
N263 Zn247 2.119 1_655 S
N263 C259 1.328 . S
N263 C262 1.334 . S
N264 C260 1.331 . S
N264 C261 1.329 . S
H265 C259 0.930 . S
C266 O246 1.257 . S
C266 O267 1.244 . S
O267 C266 1.244 . S
O268 C244 1.277 . S
O268 Zn247 2.028 . S
H269 C262 0.930 . S
H270 C249 0.930 . S
H271 C261 0.930 . S
H272 C278 0.930 . S
H273 C282 0.930 . S
H274 C287 0.929 . S
H275 C285 0.929 . S
H276 C280 0.929 . S
H277 C286 0.929 . S
C278 H272 0.930 . S
C278 C279 1.367 . S
C278 C286 1.378 . S
C279 C278 1.367 . S
C279 C287 1.433 . S
C280 H276 0.929 . S
C280 C282 1.378 . S
C280 C284 1.350 . S
C281 C284 1.463 . S
C281 C286 1.350 . S
C281 N289 1.427 . S
C282 H273 0.930 . S
C282 C280 1.378 . S
C282 C283 1.367 . S
C283 C282 1.367 . S
C283 C285 1.433 . S
C284 C280 1.350 . S
C284 C281 1.463 . S
C284 N288 1.427 . S
C285 H275 0.929 . S
C285 C283 1.433 . S
C285 N288 1.384 . S
C286 H277 0.929 . S
C286 C278 1.378 . S
C286 C281 1.350 . S
C287 H274 0.929 . S
C287 C279 1.433 . S
C287 N289 1.384 . S
N288 C284 1.427 . S
N288 C285 1.384 . S
N289 C281 1.427 . S
N289 C287 1.384 . S
H290 C296 0.930 . S
H291 C300 0.930 . S
H292 C305 0.929 . S
H293 C303 0.929 . S
H294 C298 0.929 . S
H295 C304 0.929 . S
C296 H290 0.930 . S
C296 C297 1.367 . S
C296 C304 1.378 . S
C297 C296 1.367 . S
C297 C305 1.433 . S
C298 H294 0.929 . S
C298 C300 1.378 . S
C298 C302 1.350 . S
C299 C302 1.463 . S
C299 C304 1.350 . S
C299 N307 1.427 . S
C300 H291 0.930 . S
C300 C298 1.378 . S
C300 C301 1.367 . S
C301 C300 1.367 . S
C301 C303 1.433 . S
C302 C298 1.350 . S
C302 C299 1.463 . S
C302 N306 1.427 . S
C303 H293 0.929 . S
C303 C301 1.433 . S
C303 N306 1.384 . S
C304 H295 0.929 . S
C304 C296 1.378 . S
C304 C299 1.350 . S
C305 H292 0.929 . S
C305 C297 1.433 . S
C305 N307 1.384 . S
N306 C302 1.427 . S
N306 C303 1.384 . S
N307 C299 1.427 . S
N307 C305 1.384 . S
H308 C314 0.930 . S
H309 C318 0.930 . S
H310 C323 0.929 . S
H311 C321 0.929 . S
H312 C316 0.929 . S
H313 C322 0.929 . S
C314 H308 0.930 . S
C314 C315 1.367 . S
C314 C322 1.378 . S
C315 C314 1.367 . S
C315 C323 1.433 . S
C316 H312 0.929 . S
C316 C318 1.378 . S
C316 C320 1.350 . S
C317 C320 1.463 . S
C317 C322 1.350 . S
C317 N325 1.427 . S
C318 H309 0.930 . S
C318 C316 1.378 . S
C318 C319 1.367 . S
C319 C318 1.367 . S
C319 C321 1.433 . S
C320 C316 1.350 . S
C320 C317 1.463 . S
C320 N324 1.427 . S
C321 H311 0.929 . S
C321 C319 1.433 . S
C321 N324 1.384 . S
C322 H313 0.929 . S
C322 C314 1.378 . S
C322 C317 1.350 . S
C323 H310 0.929 . S
C323 C315 1.433 . S
C323 N325 1.384 . S
N324 C320 1.427 . S
N324 C321 1.384 . S
N325 C317 1.427 . S
N325 C323 1.384 . S
H326 C332 0.930 . S
H327 C336 0.930 . S
H328 C341 0.929 . S
H329 C339 0.929 . S
H330 C334 0.929 . S
H331 C340 0.929 . S
C332 H326 0.930 . S
C332 C333 1.367 . S
C332 C340 1.378 . S
C333 C332 1.367 . S
C333 C341 1.433 . S
C334 H330 0.929 . S
C334 C336 1.378 . S
C334 C338 1.350 . S
C335 C338 1.463 . S
C335 C340 1.350 . S
C335 N343 1.427 . S
C336 H327 0.930 . S
C336 C334 1.378 . S
C336 C337 1.367 . S
C337 C336 1.367 . S
C337 C339 1.433 . S
C338 C334 1.350 . S
C338 C335 1.463 . S
C338 N342 1.427 . S
C339 H329 0.929 . S
C339 C337 1.433 . S
C339 N342 1.384 . S
C340 H331 0.929 . S
C340 C332 1.378 . S
C340 C335 1.350 . S
C341 H328 0.929 . S
C341 C333 1.433 . S
C341 N343 1.384 . S
N342 C338 1.427 . S
N342 C339 1.384 . S
N343 C335 1.427 . S
N343 C341 1.384 . S
H344 C350 0.930 . S
H345 C354 0.930 . S
H346 C359 0.929 . S
H347 C357 0.929 . S
H348 C352 0.929 . S
H349 C358 0.929 . S
C350 H344 0.930 . S
C350 C351 1.367 . S
C350 C358 1.378 . S
C351 C350 1.367 . S
C351 C359 1.433 . S
C352 H348 0.929 . S
C352 C354 1.378 . S
C352 C356 1.350 . S
C353 C356 1.463 . S
C353 C358 1.350 . S
C353 N361 1.427 . S
C354 H345 0.930 . S
C354 C352 1.378 . S
C354 C355 1.367 . S
C355 C354 1.367 . S
C355 C357 1.433 . S
C356 C352 1.350 . S
C356 C353 1.463 . S
C356 N360 1.427 . S
C357 H347 0.929 . S
C357 C355 1.433 . S
C357 N360 1.384 . S
C358 H349 0.929 . S
C358 C350 1.378 . S
C358 C353 1.350 . S
C359 H346 0.929 . S
C359 C351 1.433 . S
C359 N361 1.384 . S
N360 C356 1.427 . S
N360 C357 1.384 . S
N361 C353 1.427 . S
N361 C359 1.384 . S
H362 C368 0.930 . S
H363 C372 0.930 . S
H364 C377 0.929 . S
H365 C375 0.929 . S
H366 C370 0.929 . S
H367 C376 0.929 . S
C368 H362 0.930 . S
C368 C369 1.367 . S
C368 C376 1.378 . S
C369 C368 1.367 . S
C369 C377 1.433 . S
C370 H366 0.929 . S
C370 C372 1.378 . S
C370 C374 1.350 . S
C371 C374 1.463 . S
C371 C376 1.350 . S
C371 N379 1.427 . S
C372 H363 0.930 . S
C372 C370 1.378 . S
C372 C373 1.367 . S
C373 C372 1.367 . S
C373 C375 1.433 . S
C374 C370 1.350 . S
C374 C371 1.463 . S
C374 N378 1.427 . S
C375 H365 0.929 . S
C375 C373 1.433 . S
C375 N378 1.384 . S
C376 H367 0.929 . S
C376 C368 1.378 . S
C376 C371 1.350 . S
C377 H364 0.929 . S
C377 C369 1.433 . S
C377 N379 1.384 . S
N378 C374 1.427 . S
N378 C375 1.384 . S
N379 C371 1.427 . S
N379 C377 1.384 . S
H380 C386 0.930 . S
H381 C390 0.930 . S
H382 C395 0.929 . S
H383 C393 0.929 . S
H384 C388 0.929 . S
H385 C394 0.929 . S
C386 H380 0.930 . S
C386 C387 1.367 . S
C386 C394 1.378 . S
C387 C386 1.367 . S
C387 C395 1.433 . S
C388 H384 0.929 . S
C388 C390 1.378 . S
C388 C392 1.350 . S
C389 C392 1.463 . S
C389 C394 1.350 . S
C389 N397 1.427 . S
C390 H381 0.930 . S
C390 C388 1.378 . S
C390 C391 1.367 . S
C391 C390 1.367 . S
C391 C393 1.433 . S
C392 C388 1.350 . S
C392 C389 1.463 . S
C392 N396 1.427 . S
C393 H383 0.929 . S
C393 C391 1.433 . S
C393 N396 1.384 . S
C394 H385 0.929 . S
C394 C386 1.378 . S
C394 C389 1.350 . S
C395 H382 0.929 . S
C395 C387 1.433 . S
C395 N397 1.384 . S
N396 C392 1.427 . S
N396 C393 1.384 . S
N397 C389 1.427 . S
N397 C395 1.384 . S
H398 C404 0.930 . S
H399 C408 0.930 . S
H400 C413 0.929 . S
H401 C411 0.929 . S
H402 C406 0.929 . S
H403 C412 0.929 . S
C404 H398 0.930 . S
C404 C405 1.367 . S
C404 C412 1.378 . S
C405 C404 1.367 . S
C405 C413 1.433 . S
C406 H402 0.929 . S
C406 C408 1.378 . S
C406 C410 1.350 . S
C407 C410 1.463 . S
C407 C412 1.350 . S
C407 N415 1.427 . S
C408 H399 0.930 . S
C408 C406 1.378 . S
C408 C409 1.367 . S
C409 C408 1.367 . S
C409 C411 1.433 . S
C410 C406 1.350 . S
C410 C407 1.463 . S
C410 N414 1.427 . S
C411 H401 0.929 . S
C411 C409 1.433 . S
C411 N414 1.384 . S
C412 H403 0.929 . S
C412 C404 1.378 . S
C412 C407 1.350 . S
C413 H400 0.929 . S
C413 C405 1.433 . S
C413 N415 1.384 . S
N414 C410 1.427 . S
N414 C411 1.384 . S
N415 C407 1.427 . S
N415 C413 1.384 . S
H416 C422 0.930 . S
H417 C426 0.930 . S
H418 C431 0.929 . S
H419 C429 0.929 . S
H420 C424 0.929 . S
H421 C430 0.929 . S
C422 H416 0.930 . S
C422 C423 1.367 1_554 S
C422 C430 1.378 . S
C423 C422 1.367 1_556 S
C423 C431 1.433 . S
C424 H420 0.929 . S
C424 C426 1.378 . S
C424 C428 1.350 1_556 S
C425 C428 1.463 1_556 S
C425 C430 1.350 1_556 S
C425 N433 1.427 . S
C426 H417 0.930 . S
C426 C424 1.378 . S
C426 C427 1.367 1_556 S
C427 C426 1.367 1_554 S
C427 C429 1.433 . S
C428 C424 1.350 1_554 S
C428 C425 1.463 1_554 S
C428 N432 1.427 . S
C429 H419 0.929 . S
C429 C427 1.433 . S
C429 N432 1.384 . S
C430 H421 0.929 . S
C430 C422 1.378 . S
C430 C425 1.350 1_554 S
C431 H418 0.929 . S
C431 C423 1.433 . S
C431 N433 1.384 . S
N432 C428 1.427 . S
N432 C429 1.384 . S
N433 C425 1.427 . S
N433 C431 1.384 . S
H434 C440 0.930 . S
H435 C444 0.930 . S
H436 C449 0.929 . S
H437 C447 0.929 . S
H438 C442 0.929 . S
H439 C448 0.929 . S
C440 H434 0.930 . S
C440 C441 1.367 . S
C440 C448 1.378 . S
C441 C440 1.367 . S
C441 C449 1.433 . S
C442 H438 0.929 . S
C442 C444 1.378 . S
C442 C446 1.350 . S
C443 C446 1.463 . S
C443 C448 1.350 . S
C443 N451 1.427 . S
C444 H435 0.930 . S
C444 C442 1.378 . S
C444 C445 1.367 . S
C445 C444 1.367 . S
C445 C447 1.433 . S
C446 C442 1.350 . S
C446 C443 1.463 . S
C446 N450 1.427 . S
C447 H437 0.929 . S
C447 C445 1.433 . S
C447 N450 1.384 . S
C448 H439 0.929 . S
C448 C440 1.378 . S
C448 C443 1.350 . S
C449 H436 0.929 . S
C449 C441 1.433 . S
C449 N451 1.384 . S
N450 C446 1.427 . S
N450 C447 1.384 . S
N451 C443 1.427 . S
N451 C449 1.384 . S
H452 C458 0.930 . S
H453 C462 0.930 . S
H454 C467 0.929 . S
H455 C465 0.929 . S
H456 C460 0.929 . S
H457 C466 0.929 . S
C458 H452 0.930 . S
C458 C459 1.367 1_554 S
C458 C466 1.378 . S
C459 C458 1.367 1_556 S
C459 C467 1.433 . S
C460 H456 0.929 . S
C460 C462 1.378 . S
C460 C464 1.350 1_556 S
C461 C464 1.463 1_546 S
C461 C466 1.350 1_556 S
C461 N469 1.427 . S
C462 H453 0.930 . S
C462 C460 1.378 . S
C462 C463 1.367 1_556 S
C463 C462 1.367 1_554 S
C463 C465 1.433 . S
C464 C460 1.350 1_554 S
C464 C461 1.463 1_564 S
C464 N468 1.427 . S
C465 H455 0.929 . S
C465 C463 1.433 . S
C465 N468 1.384 . S
C466 H457 0.929 . S
C466 C458 1.378 . S
C466 C461 1.350 1_554 S
C467 H454 0.929 . S
C467 C459 1.433 . S
C467 N469 1.384 . S
N468 C464 1.427 . S
N468 C465 1.384 . S
N469 C461 1.427 . S
N469 C467 1.384 . S
H470 C476 0.930 1_655 S
H471 C480 0.930 . S
H472 C485 0.929 . S
H473 C483 0.929 1_655 S
H474 C478 0.929 . S
H475 C484 0.929 1_655 S
C476 H470 0.930 1_455 S
C476 C477 1.367 . S
C476 C484 1.378 . S
C477 C476 1.367 . S
C477 C485 1.433 . S
C478 H474 0.929 . S
C478 C480 1.378 . S
C478 C482 1.350 . S
C479 C482 1.463 1_565 S
C479 C484 1.350 . S
C479 N487 1.427 . S
C480 H471 0.930 . S
C480 C478 1.378 . S
C480 C481 1.367 . S
C481 C480 1.367 . S
C481 C483 1.433 . S
C482 C478 1.350 . S
C482 C479 1.463 1_545 S
C482 N486 1.427 . S
C483 H473 0.929 1_455 S
C483 C481 1.433 . S
C483 N486 1.384 . S
C484 H475 0.929 1_455 S
C484 C476 1.378 . S
C484 C479 1.350 . S
C485 H472 0.929 . S
C485 C477 1.433 . S
C485 N487 1.384 . S
N486 C482 1.427 . S
N486 C483 1.384 . S
N487 C479 1.427 . S
N487 C485 1.384 . S
H488 C494 0.930 . S
H489 C498 0.930 . S
H490 C503 0.929 . S
H491 C501 0.929 . S
H492 C496 0.929 . S
H493 C502 0.929 . S
C494 H488 0.930 . S
C494 C495 1.367 . S
C494 C502 1.378 . S
C495 C494 1.367 . S
C495 C503 1.433 1_554 S
C496 H492 0.929 . S
C496 C498 1.378 . S
C496 C500 1.350 . S
C497 C500 1.463 . S
C497 C502 1.350 1_556 S
C497 N505 1.427 . S
C498 H489 0.930 . S
C498 C496 1.378 . S
C498 C499 1.367 . S
C499 C498 1.367 . S
C499 C501 1.433 . S
C500 C496 1.350 . S
C500 C497 1.463 . S
C500 N504 1.427 . S
C501 H491 0.929 . S
C501 C499 1.433 . S
C501 N504 1.384 . S
C502 H493 0.929 . S
C502 C494 1.378 . S
C502 C497 1.350 1_554 S
C503 H490 0.929 . S
C503 C495 1.433 1_556 S
C503 N505 1.384 . S
N504 C500 1.427 . S
N504 C501 1.384 . S
N505 C497 1.427 . S
N505 C503 1.384 . S
H506 C512 0.930 . S
H507 C516 0.930 . S
H508 C521 0.929 . S
H509 C519 0.929 . S
H510 C514 0.929 . S
H511 C520 0.929 . S
C512 H506 0.930 . S
C512 C513 1.367 . S
C512 C520 1.378 . S
C513 C512 1.367 . S
C513 C521 1.433 . S
C514 H510 0.929 . S
C514 C516 1.378 . S
C514 C518 1.350 . S
C515 C518 1.463 . S
C515 C520 1.350 . S
C515 N523 1.427 . S
C516 H507 0.930 . S
C516 C514 1.378 . S
C516 C517 1.367 . S
C517 C516 1.367 . S
C517 C519 1.433 . S
C518 C514 1.350 . S
C518 C515 1.463 . S
C518 N522 1.427 . S
C519 H509 0.929 . S
C519 C517 1.433 . S
C519 N522 1.384 . S
C520 H511 0.929 . S
C520 C512 1.378 . S
C520 C515 1.350 . S
C521 H508 0.929 . S
C521 C513 1.433 . S
C521 N523 1.384 . S
N522 C518 1.427 . S
N522 C519 1.384 . S
N523 C515 1.427 . S
N523 C521 1.384 . S
H524 C530 0.930 . S
H525 C534 0.930 . S
H526 C539 0.929 . S
H527 C537 0.929 . S
H528 C532 0.929 . S
H529 C538 0.929 1_556 S
C530 H524 0.930 . S
C530 C531 1.367 . S
C530 C538 1.378 . S
C531 C530 1.367 . S
C531 C539 1.433 . S
C532 H528 0.929 . S
C532 C534 1.378 . S
C532 C536 1.350 . S
C533 C536 1.463 . S
C533 C538 1.350 . S
C533 N541 1.427 . S
C534 H525 0.930 . S
C534 C532 1.378 . S
C534 C535 1.364 1_554 S
C535 C534 1.364 1_556 S
C535 C537 1.435 . S
C536 C532 1.350 . S
C536 C533 1.463 . S
C536 N540 1.427 1_554 S
C537 H527 0.929 . S
C537 C535 1.435 . S
C537 N540 1.384 . S
C538 H529 0.929 1_554 S
C538 C530 1.378 . S
C538 C533 1.350 . S
C539 H526 0.929 . S
C539 C531 1.433 . S
C539 N541 1.384 . S
N540 C536 1.427 1_556 S
N540 C537 1.384 . S
N541 C533 1.427 . S
N541 C539 1.384 . S
H542 C548 0.930 . S
H543 C552 0.930 . S
H544 C557 0.929 . S
H545 C555 0.929 . S
H546 C550 0.929 . S
H547 C556 0.929 . S
C548 H542 0.930 . S
C548 C549 1.367 . S
C548 C556 1.378 . S
C549 C548 1.367 . S
C549 C557 1.433 . S
C550 H546 0.929 . S
C550 C552 1.378 . S
C550 C554 1.350 . S
C551 C554 1.463 . S
C551 C556 1.350 . S
C551 N559 1.427 . S
C552 H543 0.930 . S
C552 C550 1.378 . S
C552 C553 1.367 . S
C553 C552 1.367 . S
C553 C555 1.433 . S
C554 C550 1.350 . S
C554 C551 1.463 . S
C554 N558 1.427 . S
C555 H545 0.929 . S
C555 C553 1.433 . S
C555 N558 1.384 . S
C556 H547 0.929 . S
C556 C548 1.378 . S
C556 C551 1.350 . S
C557 H544 0.929 . S
C557 C549 1.433 . S
C557 N559 1.384 . S
N558 C554 1.427 . S
N558 C555 1.384 . S
N559 C551 1.427 . S
N559 C557 1.384 . S
H560 C566 0.930 . S
H561 C570 0.930 . S
H562 C575 0.929 . S
H563 C573 0.929 . S
H564 C568 0.929 . S
H565 C574 0.929 . S
C566 H560 0.930 . S
C566 C567 1.367 . S
C566 C574 1.378 . S
C567 C566 1.367 . S
C567 C575 1.433 . S
C568 H564 0.929 . S
C568 C570 1.378 . S
C568 C572 1.350 1_554 S
C569 C572 1.463 . S
C569 C574 1.350 . S
C569 N577 1.427 . S
C570 H561 0.930 . S
C570 C568 1.378 . S
C570 C571 1.367 . S
C571 C570 1.367 . S
C571 C573 1.433 1_554 S
C572 C568 1.350 1_556 S
C572 C569 1.463 . S
C572 N576 1.427 . S
C573 H563 0.929 . S
C573 C571 1.433 1_556 S
C573 N576 1.384 . S
C574 H565 0.929 . S
C574 C566 1.378 . S
C574 C569 1.350 . S
C575 H562 0.929 . S
C575 C567 1.433 . S
C575 N577 1.384 . S
N576 C572 1.427 . S
N576 C573 1.384 . S
N577 C569 1.427 . S
N577 C575 1.384 . S
H578 C584 0.930 . S
H579 C588 0.930 . S
H580 C593 0.929 . S
H581 C591 0.929 . S
H582 C586 0.929 . S
H583 C592 0.929 . S
C584 H578 0.930 . S
C584 C585 1.367 . S
C584 C592 1.378 . S
C585 C584 1.367 . S
C585 C593 1.433 . S
C586 H582 0.929 . S
C586 C588 1.378 . S
C586 C590 1.350 . S
C587 C590 1.463 . S
C587 C592 1.350 . S
C587 N595 1.427 . S
C588 H579 0.930 . S
C588 C586 1.378 . S
C588 C589 1.367 . S
C589 C588 1.367 . S
C589 C591 1.433 . S
C590 C586 1.350 . S
C590 C587 1.463 . S
C590 N594 1.427 . S
C591 H581 0.929 . S
C591 C589 1.433 . S
C591 N594 1.384 . S
C592 H583 0.929 . S
C592 C584 1.378 . S
C592 C587 1.350 . S
C593 H580 0.929 . S
C593 C585 1.433 . S
C593 N595 1.384 . S
N594 C590 1.427 . S
N594 C591 1.384 . S
N595 C587 1.427 . S
N595 C593 1.384 . S
H596 C602 0.930 . S
H597 C606 0.930 . S
H598 C611 0.929 . S
H599 C609 0.929 . S
H600 C604 0.929 1_556 S
H601 C610 0.929 . S
C602 H596 0.930 . S
C602 C603 1.367 . S
C602 C610 1.378 . S
C603 C602 1.367 . S
C603 C611 1.433 . S
C604 H600 0.929 1_554 S
C604 C606 1.378 1_554 S
C604 C608 1.350 . S
C605 C608 1.463 . S
C605 C610 1.350 . S
C605 N613 1.427 . S
C606 H597 0.930 . S
C606 C604 1.378 1_556 S
C606 C607 1.367 . S
C607 C606 1.367 . S
C607 C609 1.433 1_556 S
C608 C604 1.350 . S
C608 C605 1.463 . S
C608 N612 1.427 . S
C609 H599 0.929 . S
C609 C607 1.433 1_554 S
C609 N612 1.384 . S
C610 H601 0.929 . S
C610 C602 1.378 . S
C610 C605 1.350 . S
C611 H598 0.929 . S
C611 C603 1.433 . S
C611 N613 1.384 . S
N612 C608 1.427 . S
N612 C609 1.384 . S
N613 C605 1.427 . S
N613 C611 1.384 . S
H614 C620 0.930 . S
H615 C624 0.930 . S
H616 C629 0.929 . S
H617 C627 0.929 . S
H618 C622 0.929 . S
H619 C628 0.929 . S
C620 H614 0.930 . S
C620 C621 1.367 . S
C620 C628 1.378 . S
C621 C620 1.367 . S
C621 C629 1.433 . S
C622 H618 0.929 . S
C622 C624 1.378 . S
C622 C626 1.350 . S
C623 C626 1.463 . S
C623 C628 1.350 . S
C623 N631 1.427 . S
C624 H615 0.930 . S
C624 C622 1.378 . S
C624 C625 1.367 . S
C625 C624 1.367 . S
C625 C627 1.433 . S
C626 C622 1.350 . S
C626 C623 1.463 . S
C626 N630 1.427 . S
C627 H617 0.929 . S
C627 C625 1.433 . S
C627 N630 1.384 . S
C628 H619 0.929 . S
C628 C620 1.378 . S
C628 C623 1.350 . S
C629 H616 0.929 . S
C629 C621 1.433 . S
C629 N631 1.384 . S
N630 C626 1.427 . S
N630 C627 1.384 . S
N631 C623 1.427 . S
N631 C629 1.384 . S
H632 C638 0.930 . S
H633 C642 0.930 . S
H634 C647 0.929 . S
H635 C645 0.929 . S
H636 C640 0.929 . S
H637 C646 0.929 . S
C638 H632 0.930 . S
C638 C639 1.367 . S
C638 C646 1.378 . S
C639 C638 1.367 . S
C639 C647 1.433 . S
C640 H636 0.929 . S
C640 C642 1.378 . S
C640 C644 1.350 . S
C641 C644 1.463 . S
C641 C646 1.350 . S
C641 N649 1.427 . S
C642 H633 0.930 . S
C642 C640 1.378 . S
C642 C643 1.367 . S
C643 C642 1.367 . S
C643 C645 1.433 . S
C644 C640 1.350 . S
C644 C641 1.463 . S
C644 N648 1.427 . S
C645 H635 0.929 . S
C645 C643 1.433 . S
C645 N648 1.384 . S
C646 H637 0.929 . S
C646 C638 1.378 . S
C646 C641 1.350 . S
C647 H634 0.929 . S
C647 C639 1.433 . S
C647 N649 1.384 . S
N648 C644 1.427 . S
N648 C645 1.384 . S
N649 C641 1.427 . S
N649 C647 1.384 . S
H650 C656 0.930 . S
H651 C660 0.930 . S
H652 C665 0.929 . S
H653 C663 0.929 . S
H654 C658 0.929 . S
H655 C664 0.929 . S
C656 H650 0.930 . S
C656 C657 1.367 . S
C656 C664 1.378 . S
C657 C656 1.367 . S
C657 C665 1.433 . S
C658 H654 0.929 . S
C658 C660 1.378 1_554 S
C658 C662 1.350 . S
C659 C662 1.463 . S
C659 C664 1.350 . S
C659 N667 1.427 . S
C660 H651 0.930 . S
C660 C658 1.378 1_556 S
C660 C661 1.367 . S
C661 C660 1.367 . S
C661 C663 1.433 . S
C662 C658 1.350 . S
C662 C659 1.463 . S
C662 N666 1.427 . S
C663 H653 0.929 . S
C663 C661 1.433 . S
C663 N666 1.384 1_556 S
C664 H655 0.929 . S
C664 C656 1.378 . S
C664 C659 1.350 . S
C665 H652 0.929 . S
C665 C657 1.433 . S
C665 N667 1.384 . S
N666 C662 1.427 . S
N666 C663 1.384 1_554 S
N667 C659 1.427 . S
N667 C665 1.384 . S
H668 C674 0.930 . S
H669 C678 0.930 . S
H670 C683 0.929 . S
H671 C681 0.929 . S
H672 C676 0.929 . S
H673 C682 0.929 . S
C674 H668 0.930 . S
C674 C675 1.367 . S
C674 C682 1.378 . S
C675 C674 1.367 . S
C675 C683 1.433 . S
C676 H672 0.929 . S
C676 C678 1.378 . S
C676 C680 1.350 . S
C677 C680 1.463 . S
C677 C682 1.350 . S
C677 N685 1.427 . S
C678 H669 0.930 . S
C678 C676 1.378 . S
C678 C679 1.367 . S
C679 C678 1.367 . S
C679 C681 1.433 . S
C680 C676 1.350 . S
C680 C677 1.463 . S
C680 N684 1.427 . S
C681 H671 0.929 . S
C681 C679 1.433 . S
C681 N684 1.384 . S
C682 H673 0.929 . S
C682 C674 1.378 . S
C682 C677 1.350 . S
C683 H670 0.929 . S
C683 C675 1.433 . S
C683 N685 1.384 . S
N684 C680 1.427 . S
N684 C681 1.384 . S
N685 C677 1.427 . S
N685 C683 1.384 . S
H686 C692 0.930 . S
H687 C696 0.930 . S
H688 C701 0.929 . S
H689 C699 0.929 . S
H690 C694 0.929 . S
H691 C700 0.929 . S
C692 H686 0.930 . S
C692 C693 1.367 . S
C692 C700 1.378 . S
C693 C692 1.367 . S
C693 C701 1.433 . S
C694 H690 0.929 . S
C694 C696 1.378 1_556 S
C694 C698 1.350 . S
C695 C698 1.463 . S
C695 C700 1.350 . S
C695 N703 1.427 . S
C696 H687 0.930 . S
C696 C694 1.378 1_554 S
C696 C697 1.367 . S
C697 C696 1.367 . S
C697 C699 1.433 . S
C698 C694 1.350 . S
C698 C695 1.463 . S
C698 N702 1.427 . S
C699 H689 0.929 . S
C699 C697 1.433 . S
C699 N702 1.384 1_554 S
C700 H691 0.929 . S
C700 C692 1.378 . S
C700 C695 1.350 . S
C701 H688 0.929 . S
C701 C693 1.433 . S
C701 N703 1.384 . S
N702 C698 1.427 . S
N702 C699 1.384 1_556 S
N703 C695 1.427 . S
N703 C701 1.384 . S
H704 C710 0.930 . S
H705 C714 0.930 . S
H706 C719 0.929 . S
H707 C717 0.929 . S
H708 C712 0.929 . S
H709 C718 0.929 . S
C710 H704 0.930 . S
C710 C711 1.367 . S
C710 C718 1.378 . S
C711 C710 1.367 . S
C711 C719 1.433 . S
C712 H708 0.929 . S
C712 C714 1.378 . S
C712 C716 1.350 . S
C713 C716 1.463 . S
C713 C718 1.350 . S
C713 N721 1.427 . S
C714 H705 0.930 . S
C714 C712 1.378 . S
C714 C715 1.367 . S
C715 C714 1.367 . S
C715 C717 1.433 . S
C716 C712 1.350 . S
C716 C713 1.463 . S
C716 N720 1.427 . S
C717 H707 0.929 . S
C717 C715 1.433 . S
C717 N720 1.384 . S
C718 H709 0.929 . S
C718 C710 1.378 . S
C718 C713 1.350 . S
C719 H706 0.929 . S
C719 C711 1.433 . S
C719 N721 1.384 . S
N720 C716 1.427 . S
N720 C717 1.384 . S
N721 C713 1.427 . S
N721 C719 1.384 . S
H722 C728 0.930 . S
H723 C732 0.930 . S
H724 C737 0.929 1_655 S
H725 C735 0.929 . S
H726 C730 0.929 . S
H727 C736 0.929 . S
C728 H722 0.930 . S
C728 C729 1.367 . S
C728 C736 1.378 . S
C729 C728 1.367 . S
C729 C737 1.433 . S
C730 H726 0.929 . S
C730 C732 1.378 1_554 S
C730 C734 1.350 . S
C731 C734 1.463 . S
C731 C736 1.350 . S
C731 N739 1.427 . S
C732 H723 0.930 . S
C732 C730 1.378 1_556 S
C732 C733 1.367 . S
C733 C732 1.367 . S
C733 C735 1.433 . S
C734 C730 1.350 . S
C734 C731 1.463 . S
C734 N738 1.427 . S
C735 H725 0.929 . S
C735 C733 1.433 . S
C735 N738 1.384 1_556 S
C736 H727 0.929 . S
C736 C728 1.378 . S
C736 C731 1.350 . S
C737 H724 0.929 1_455 S
C737 C729 1.433 . S
C737 N739 1.384 . S
N738 C734 1.427 . S
N738 C735 1.384 1_554 S
N739 C731 1.427 . S
N739 C737 1.384 . S
H740 C746 0.930 . S
H741 C750 0.930 . S
H742 C755 0.929 . S
H743 C753 0.929 . S
H744 C748 0.929 . S
H745 C754 0.929 . S
C746 H740 0.930 . S
C746 C747 1.367 . S
C746 C754 1.378 . S
C747 C746 1.367 . S
C747 C755 1.433 . S
C748 H744 0.929 . S
C748 C750 1.378 . S
C748 C752 1.350 . S
C749 C752 1.463 . S
C749 C754 1.350 . S
C749 N757 1.427 . S
C750 H741 0.930 . S
C750 C748 1.378 . S
C750 C751 1.367 . S
C751 C750 1.367 . S
C751 C753 1.433 . S
C752 C748 1.350 . S
C752 C749 1.463 . S
C752 N756 1.427 . S
C753 H743 0.929 . S
C753 C751 1.433 . S
C753 N756 1.384 . S
C754 H745 0.929 . S
C754 C746 1.378 . S
C754 C749 1.350 . S
C755 H742 0.929 . S
C755 C747 1.433 . S
C755 N757 1.384 . S
N756 C752 1.427 . S
N756 C753 1.384 . S
N757 C749 1.427 . S
N757 C755 1.384 . S
H758 C764 0.930 . S
H759 C768 0.930 . S
H760 C773 0.929 1_655 S
H761 C771 0.929 . S
H762 C766 0.929 . S
H763 C772 0.929 . S
C764 H758 0.930 . S
C764 C765 1.367 . S
C764 C772 1.378 . S
C765 C764 1.367 . S
C765 C773 1.433 . S
C766 H762 0.929 . S
C766 C768 1.378 1_556 S
C766 C770 1.350 . S
C767 C770 1.463 . S
C767 C772 1.350 . S
C767 N775 1.427 . S
C768 H759 0.930 . S
C768 C766 1.378 1_554 S
C768 C769 1.367 . S
C769 C768 1.367 . S
C769 C771 1.433 . S
C770 C766 1.350 . S
C770 C767 1.463 . S
C770 N774 1.427 . S
C771 H761 0.929 . S
C771 C769 1.433 . S
C771 N774 1.384 1_554 S
C772 H763 0.929 . S
C772 C764 1.378 . S
C772 C767 1.350 . S
C773 H760 0.929 1_455 S
C773 C765 1.433 . S
C773 N775 1.384 . S
N774 C770 1.427 . S
N774 C771 1.384 1_556 S
N775 C767 1.427 . S
N775 C773 1.384 . S
C279 C124 0.764 . S
C283 C15 0.796 . S
C297 C90 0.797 . S
C301 C49 0.766 . S
C315 C56 2.604 . S
C319 C83 2.596 . S
C333 C22 2.599 . S
C337 C117 2.598 . S
C351 C151 0.796 . S
C355 C260 0.764 . S
C369 C185 0.775 . S
C373 C226 0.763 . S
C387 C192 2.596 . S
C391 C219 2.605 . S
C405 C158 2.606 . S
C409 C253 2.597 . S
C423 C74 1.494 . S
C427 C28 1.496 . S
C441 C108 1.494 . S
C445 C62 1.495 . S
C459 C210 1.495 . S
C463 C164 1.495 . S
C477 C244 1.496 . S
C481 C198 1.495 . S
C495 C1 1.189 . S
C499 C176 1.242 . S
C513 C35 1.169 . S
C517 C142 1.243 . S
C531 C266 1.244 . S
C535 C71 1.173 . S
C549 C232 1.241 . S
C553 C105 1.179 . S
C567 C40 1.241 . S
C571 C137 1.178 . S
C585 C6 1.244 . S
C589 C171 1.176 . S
C603 C130 1.241 . S
C607 C207 1.175 . S
C621 C96 1.244 . S
C625 C241 1.180 . S
C639 C3 1.506 . S
C643 C17 1.653 . S
C657 C37 1.509 . S
C661 C51 1.651 . S
C675 C69 1.503 . S
C679 C85 1.647 . S
C693 C103 1.488 . S
C697 C119 1.652 . S
C711 C139 1.499 . S
C715 C153 1.647 . S
C729 C173 1.486 . S
C733 C187 1.655 . S
C747 C205 1.510 . S
C751 C221 1.649 . S
C765 C239 1.487 . S
C769 C255 1.656 . S
