# Generated by pormake.
# Topology hjm, (4)-cn, num edge types: 1
# Building blocks:
#     Node 0, Type 0, BuildingBlock: GALJAG_clean_sbu_0, # of connection points: 4
#     Node 1, Type 0, BuildingBlock: GALJAG_clean_sbu_0, # of connection points: 4
#     Node 2, Type 0, BuildingBlock: GALJAG_clean_sbu_0, # of connection points: 4
#     Node 3, Type 0, BuildingBlock: GALJAG_clean_sbu_0, # of connection points: 4
#     Node 4, Type 0, BuildingBlock: GALJAG_clean_sbu_0, # of connection points: 4
#     Node 5, Type 0, BuildingBlock: GALJAG_clean_sbu_0, # of connection points: 4
#     Node 6, Type 0, BuildingBlock: GALJAG_clean_sbu_0, # of connection points: 4
#     Node 7, Type 0, BuildingBlock: GALJAG_clean_sbu_0, # of connection points: 4
#     Edge 8, Type (0, 0), BuildingBlock: CIFDUS_clean_linker_0, # of connection points: 2
#     Edge 9, Type (0, 0), BuildingBlock: CIFDUS_clean_linker_0, # of connection points: 2
#     Edge 10, Type (0, 0), BuildingBlock: CIFDUS_clean_linker_0, # of connection points: 2
#     Edge 11, Type (0, 0), BuildingBlock: CIFDUS_clean_linker_0, # of connection points: 2
#     Edge 12, Type (0, 0), BuildingBlock: CIFDUS_clean_linker_0, # of connection points: 2
#     Edge 13, Type (0, 0), BuildingBlock: CIFDUS_clean_linker_0, # of connection points: 2
#     Edge 14, Type (0, 0), BuildingBlock: CIFDUS_clean_linker_0, # of connection points: 2
#     Edge 15, Type (0, 0), BuildingBlock: CIFDUS_clean_linker_0, # of connection points: 2
#     Edge 16, Type (0, 0), BuildingBlock: CIFDUS_clean_linker_0, # of connection points: 2
#     Edge 17, Type (0, 0), BuildingBlock: CIFDUS_clean_linker_0, # of connection points: 2
#     Edge 18, Type (0, 0), BuildingBlock: CIFDUS_clean_linker_0, # of connection points: 2
#     Edge 19, Type (0, 0), BuildingBlock: CIFDUS_clean_linker_0, # of connection points: 2
#     Edge 20, Type (0, 0), BuildingBlock: CIFDUS_clean_linker_0, # of connection points: 2
#     Edge 21, Type (0, 0), BuildingBlock: CIFDUS_clean_linker_0, # of connection points: 2
#     Edge 22, Type (0, 0), BuildingBlock: CIFDUS_clean_linker_0, # of connection points: 2
#     Edge 23, Type (0, 0), BuildingBlock: CIFDUS_clean_linker_0, # of connection points: 2
# Relax obj value: 0.069
# Max RMSD: 0.136
# Mean RMSD: 0.136
data_MOF--net-hjm--node1-GALJAG_clean_sbu_0--edge1-CIFDUS_clean_linker_0
_symmetry_space_group_name_H-M    P1
_symmetry_Int_Tables_number       1
_symmetry_cell_setting            triclinic
loop_
_symmetry_equiv_pos_as_xyz
'x, y, z'
_cell_length_a     22.183655
_cell_length_b     18.62351
_cell_length_c     22.266019
_cell_angle_alpha  89.881305
_cell_angle_beta   68.552174
_cell_angle_gamma 90.161413
loop_
_atom_site_label
_atom_site_type_symbol
_atom_site_fract_x
_atom_site_fract_y
_atom_site_fract_z
_atom_type_partial_charge
In0 In 0.18326 0.12057 0.3174 0.0
O1 O 0.08327 0.17207 0.35419 0.0
O2 O 0.14681 0.19702 0.40317 0.0
C3 C 0.20053 0.15057 0.19343 0.0
C4 C 0.1339 0.99667 0.3783 0.0
C5 C 0.30795 0.13557 0.30509 0.0
O6 O 0.18743 0.19724 0.23715 0.0
O7 O 0.20304 0.08699 0.21236 0.0
O8 O 0.28314 0.07567 0.30112 0.0
O9 O 0.2697 0.18812 0.31607 0.0
C10 C 0.09177 0.2056 0.39965 0.0
O11 O 0.17243 0.03594 0.39351 0.0
O12 O 0.12174 0.01841 0.33009 0.0
In13 In 0.80627 0.24785 0.19822 0.0
O14 O 0.89497 0.31901 0.17443 0.0
O15 O 0.83257 0.33786 0.1229 0.0
C16 C 0.79173 0.26344 0.32278 0.0
C17 C 0.87169 0.13993 0.12199 0.0
C18 C 0.67974 0.23465 0.21729 0.0
O19 O 0.78253 0.31406 0.2894 0.0
O20 O 0.80897 0.20483 0.29307 0.0
O21 O 0.71262 0.18384 0.22698 0.0
O22 O 0.71101 0.29207 0.19684 0.0
C23 C 0.884 0.35478 0.13143 0.0
O24 O 0.82922 0.1761 0.11038 0.0
O25 O 0.87998 0.15675 0.1733 0.0
In26 In 0.81117 0.61814 0.69306 0.0
O27 O 0.89194 0.53817 0.68176 0.0
O28 O 0.82686 0.51536 0.63392 0.0
C29 C 0.79309 0.63145 0.81919 0.0
C30 C 0.88747 0.70847 0.60113 0.0
C31 C 0.68574 0.63207 0.70815 0.0
O32 O 0.79312 0.57168 0.7928 0.0
O33 O 0.80365 0.6848 0.78166 0.0
O34 O 0.72013 0.68423 0.71268 0.0
O35 O 0.71502 0.57289 0.6946 0.0
C36 C 0.87653 0.49666 0.64493 0.0
O37 O 0.83889 0.67725 0.59659 0.0
O38 O 0.89669 0.69558 0.65274 0.0
In39 In 0.18772 0.75019 0.82204 0.0
O40 O 0.16753 0.81996 0.91136 0.0
O41 O 0.11369 0.84015 0.85141 0.0
C42 C 0.31323 0.7318 0.80551 0.0
C43 C 0.10649 0.64368 0.88456 0.0
C44 C 0.20578 0.76854 0.69671 0.0
O45 O 0.28484 0.79135 0.82088 0.0
O46 O 0.27796 0.68107 0.79972 0.0
O47 O 0.19146 0.70864 0.72499 0.0
O48 O 0.20988 0.81981 0.73202 0.0
C49 C 0.12375 0.85608 0.90201 0.0
O50 O 0.09825 0.67998 0.84035 0.0
O51 O 0.15652 0.65993 0.89595 0.0
In52 In 0.69825 0.74903 0.31303 0.0
O53 O 0.62102 0.83669 0.33913 0.0
O54 O 0.66741 0.81336 0.40538 0.0
C55 C 0.71197 0.73219 0.18847 0.0
C56 C 0.62685 0.63612 0.37834 0.0
C57 C 0.82194 0.78698 0.29294 0.0
O58 O 0.68679 0.7875 0.22049 0.0
O59 O 0.72977 0.68526 0.21947 0.0
O60 O 0.80184 0.72308 0.30627 0.0
O61 O 0.7797 0.83083 0.2906 0.0
C62 C 0.62585 0.85021 0.39279 0.0
O63 O 0.678 0.65569 0.38641 0.0
O64 O 0.61387 0.67168 0.33643 0.0
In65 In 0.32341 0.87817 0.19884 0.0
O66 O 0.39155 0.97148 0.19004 0.0
O67 O 0.33806 0.97213 0.12795 0.0
C68 C 0.30205 0.86872 0.32558 0.0
C69 C 0.41605 0.79118 0.12023 0.0
C70 C 0.2013 0.84418 0.20931 0.0
O71 O 0.30111 0.92774 0.29815 0.0
O72 O 0.31463 0.8148 0.28895 0.0
O73 O 0.24571 0.79854 0.19913 0.0
O74 O 0.21886 0.90837 0.21171 0.0
C75 C 0.38047 0.00241 0.14474 0.0
O76 O 0.37047 0.81578 0.10523 0.0
O77 O 0.41445 0.80966 0.17524 0.0
In78 In 0.3156 0.24547 0.69139 0.0
O79 O 0.39569 0.1632 0.65516 0.0
O80 O 0.33117 0.17241 0.60458 0.0
C81 C 0.2969 0.20543 0.81384 0.0
C82 C 0.39722 0.35395 0.63054 0.0
C83 C 0.18997 0.26729 0.70792 0.0
O84 O 0.30234 0.16094 0.76961 0.0
O85 O 0.30197 0.27039 0.79619 0.0
O86 O 0.22431 0.31507 0.72011 0.0
O87 O 0.21935 0.20949 0.68642 0.0
C88 C 0.3802 0.14197 0.60894 0.0
O89 O 0.35139 0.33258 0.61432 0.0
O90 O 0.40046 0.32276 0.67962 0.0
In91 In 0.69116 0.3804 0.81683 0.0
O92 O 0.59865 0.31352 0.84205 0.0
O93 O 0.64923 0.30905 0.90639 0.0
C94 C 0.71146 0.36723 0.69062 0.0
C95 C 0.63249 0.50286 0.87202 0.0
C96 C 0.81657 0.36666 0.80453 0.0
O97 O 0.7073 0.3138 0.7268 0.0
O98 O 0.70466 0.42727 0.7183 0.0
O99 O 0.78855 0.42651 0.8118 0.0
O100 O 0.78081 0.31354 0.80571 0.0
C101 C 0.60072 0.28887 0.89395 0.0
O102 O 0.67003 0.46876 0.89284 0.0
O103 O 0.62642 0.47633 0.82241 0.0
H104 H 0.03435 0.91683 0.36927 0.0
H105 H 0.15599 0.94159 0.481 0.0
H106 H 0.09355 0.85069 0.55712 0.0
H107 H 0.99847 0.77229 0.59757 0.0
H108 H 0.87315 0.75001 0.48927 0.0
H109 H 0.94235 0.83199 0.40655 0.0
C110 C 0.04784 0.90122 0.40957 0.0
C111 C 0.10034 0.93523 0.41896 0.0
C112 C 0.01013 0.85042 0.45456 0.0
C113 C 0.1166 0.91535 0.47203 0.0
C114 C 0.08038 0.86391 0.51608 0.0
C115 C 0.98639 0.78519 0.55578 0.0
C116 C 0.93041 0.75591 0.54995 0.0
C117 C 0.02611 0.83245 0.50871 0.0
C118 C 0.91575 0.77246 0.49515 0.0
C119 C 0.95533 0.81922 0.44778 0.0
H120 H 0.01997 0.92786 0.89718 0.0
H121 H 0.13876 0.90299 0.01198 0.0
H122 H 0.06973 0.98699 0.09183 0.0
H123 H 0.97529 0.06745 0.12877 0.0
H124 H 0.8573 0.09158 0.01296 0.0
H125 H 0.92606 0.00725 0.93399 0.0
C126 C 0.03098 0.94112 0.93948 0.0
C127 C 0.08439 0.90953 0.94862 0.0
C128 C 0.99095 0.98885 0.98521 0.0
C129 C 0.0979 0.92684 1.00384 0.0
C130 C 0.05839 0.97467 0.04957 0.0
C131 C 0.96448 0.05386 0.08643 0.0
C132 C 0.91129 0.08556 0.07671 0.0
C133 C 0.00461 0.0058 0.04083 0.0
C134 C 0.89795 0.06779 0.02154 0.0
C135 C 0.93733 0.01977 0.97626 0.0
H136 H 0.402 0.4183 0.52012 0.0
H137 H 0.50239 0.40775 0.65319 0.0
H138 H 0.58488 0.4914 0.58528 0.0
H139 H 0.62762 0.56913 0.48802 0.0
H140 H 0.52504 0.57755 0.35652 0.0
H141 H 0.44489 0.49271 0.42353 0.0
C142 C 0.4417 0.43452 0.53458 0.0
C143 C 0.44572 0.40723 0.59185 0.0
C144 C 0.48895 0.482 0.49526 0.0
C145 C 0.49788 0.42839 0.60951 0.0
C146 C 0.5452 0.47602 0.57059 0.0
C147 C 0.58803 0.55179 0.47386 0.0
C148 C 0.58237 0.57971 0.41729 0.0
C149 C 0.54126 0.50323 0.51323 0.0
C150 C 0.53058 0.55705 0.39978 0.0
C151 C 0.4845 0.50863 0.43818 0.0
H152 H 0.4232 0.73765 1.0048 0.0
H153 H 0.52223 0.73757 0.13938 0.0
H154 H 0.60193 0.65282 0.0713 0.0
H155 H 0.63896 0.57239 0.97708 0.0
H156 H 0.53585 0.56898 0.84625 0.0
H157 H 0.46306 0.66216 0.90852 0.0
C158 C 0.46245 0.71946 0.01905 0.0
C159 C 0.4664 0.74323 0.07734 0.0
C160 C 0.50761 0.67026 0.9801 0.0
C161 C 0.51777 0.71949 0.09498 0.0
C162 C 0.56343 0.67112 0.05603 0.0
C163 C 0.60112 0.59283 0.96178 0.0
C164 C 0.5933 0.56441 0.90661 0.0
C165 C 0.5582 0.6452 0.999 0.0
C166 C 0.54373 0.59097 0.88768 0.0
C167 C 0.50162 0.64379 0.92369 0.0
H168 H 0.87894 0.42777 0.02725 0.0
H169 H 0.99247 0.40343 0.1475 0.0
H170 H 0.07192 0.4893 0.0806 0.0
H171 H 0.10965 0.57049 0.98805 0.0
H172 H 0.99736 0.59604 0.86692 0.0
H173 H 0.9172 0.50986 0.93369 0.0
C174 C 0.92093 0.44161 0.03891 0.0
C175 C 0.92981 0.40946 0.09226 0.0
C176 C 0.96682 0.49072 0.99988 0.0
C177 C 0.98452 0.42754 0.1067 0.0
C178 C 0.03008 0.47649 0.06841 0.0
C179 C 0.06779 0.55698 0.97606 0.0
C180 C 0.05947 0.58935 0.92267 0.0
C181 C 0.02186 0.5081 0.0148 0.0
C182 C 0.00484 0.57166 0.90785 0.0
C183 C 0.95892 0.5226 0.94608 0.0
H184 H 0.09531 0.27326 0.50627 0.0
H185 H 0.97544 0.24249 0.39321 0.0
H186 H 0.89544 0.3256 0.4627 0.0
H187 H 0.86248 0.41222 0.55169 0.0
H188 H 0.98413 0.44624 0.66226 0.0
H189 H 0.05937 0.35503 0.59911 0.0
C190 C 0.05142 0.28434 0.49718 0.0
C191 C 0.04164 0.25237 0.44431 0.0
C192 C 0.00553 0.33214 0.53739 0.0
C193 C 0.98429 0.26672 0.43342 0.0
C194 C 0.93837 0.31407 0.47327 0.0
C195 C 0.90489 0.39883 0.56263 0.0
C196 C 0.91754 0.43565 0.61181 0.0
C197 C 0.94886 0.34778 0.52488 0.0
C198 C 0.97307 0.41826 0.62498 0.0
C199 C 0.01638 0.36649 0.58854 0.0
H200 H 0.59386 0.23375 0.00887 0.0
H201 H 0.49376 0.23626 0.87528 0.0
H202 H 0.41234 0.15288 0.94445 0.0
H203 H 0.37397 0.07279 0.03957 0.0
H204 H 0.47827 0.06736 0.16928 0.0
H205 H 0.55253 0.15938 0.10611 0.0
C206 C 0.55414 0.21623 0.99497 0.0
C207 C 0.55027 0.24045 0.93676 0.0
C208 C 0.5079 0.16805 0.03463 0.0
C209 C 0.49814 0.21782 0.91967 0.0
C210 C 0.45151 0.17022 0.95921 0.0
C211 C 0.41233 0.09265 0.05445 0.0
C212 C 0.42001 0.06395 0.10966 0.0
C213 C 0.45645 0.14409 0.01638 0.0
C214 C 0.47044 0.08959 0.12789 0.0
C215 C 0.51351 0.14165 0.09126 0.0
H216 H 0.52043 0.92081 0.38731 0.0
H217 H 0.64137 0.90002 0.50051 0.0
H218 H 0.57543 0.98775 0.57739 0.0
H219 H 0.48417 0.07025 0.61253 0.0
H220 H 0.3609 0.091 0.50193 0.0
H221 H 0.42648 0.00258 0.42438 0.0
C222 C 0.53232 0.93571 0.42874 0.0
C223 C 0.58578 0.90422 0.43815 0.0
C224 C 0.49371 0.98581 0.4733 0.0
C225 C 0.60046 0.92354 0.49222 0.0
C226 C 0.5628 0.97367 0.53624 0.0
C227 C 0.47156 0.05546 0.57148 0.0
C228 C 0.41798 0.08718 0.56285 0.0
C229 C 0.50939 0.00504 0.52727 0.0
C230 C 0.40208 0.06731 0.50955 0.0
C231 C 0.43965 0.01698 0.46511 0.0
H232 H 0.26293 0.74988 0.39875 0.0
H233 H 0.30653 0.97428 0.40886 0.0
H234 H 0.28076 0.96328 0.52512 0.0
H235 H 0.24452 0.88956 0.62404 0.0
H236 H 0.19807 0.66583 0.61328 0.0
H237 H 0.22503 0.67719 0.49721 0.0
C238 C 0.26707 0.79625 0.42642 0.0
C239 C 0.28726 0.86253 0.39542 0.0
C240 C 0.25081 0.78984 0.49317 0.0
C241 C 0.29172 0.92251 0.43171 0.0
C242 C 0.27674 0.91629 0.49817 0.0
C243 C 0.24009 0.84342 0.59626 0.0
C244 C 0.21942 0.77695 0.6271 0.0
C245 C 0.2559 0.85024 0.52945 0.0
C246 C 0.2139 0.71758 0.59061 0.0
C247 C 0.22944 0.72395 0.52424 0.0
H248 H 0.75129 0.74954 0.8934 0.0
H249 H 0.80404 0.52803 0.90123 0.0
H250 H 0.78371 0.53945 0.01631 0.0
H251 H 0.75179 0.61302 0.11457 0.0
H252 H 0.69346 0.83283 0.10792 0.0
H253 H 0.71417 0.82127 0.99279 0.0
C254 C 0.75855 0.70394 0.92035 0.0
C255 C 0.78015 0.63841 0.8888 0.0
C256 C 0.74529 0.71049 0.98677 0.0
C257 C 0.78809 0.57923 0.92439 0.0
C258 C 0.7763 0.5857 0.99021 0.0
C259 C 0.74354 0.65834 0.08791 0.0
C260 C 0.72164 0.72386 0.11956 0.0
C261 C 0.75506 0.65114 0.02186 0.0
C262 C 0.7105 0.78189 0.08459 0.0
C263 C 0.72247 0.77538 0.01874 0.0
H264 H 0.75409 0.38362 0.3952 0.0
H265 H 0.8059 0.16183 0.40487 0.0
H266 H 0.78501 0.17448 0.51993 0.0
H267 H 0.75092 0.24808 0.6178 0.0
H268 H 0.70113 0.4704 0.60784 0.0
H269 H 0.72196 0.45798 0.49276 0.0
C270 C 0.76093 0.3381 0.42248 0.0
C271 C 0.78128 0.27183 0.39172 0.0
C272 C 0.74885 0.34576 0.48851 0.0
C273 C 0.79013 0.21336 0.42756 0.0
C274 C 0.77808 0.2205 0.49332 0.0
C275 C 0.74442 0.2937 0.59044 0.0
C276 C 0.72409 0.35988 0.62121 0.0
C277 C 0.7571 0.28631 0.52432 0.0
C278 C 0.71658 0.41884 0.58517 0.0
C279 C 0.72856 0.41179 0.5194 0.0
H280 H 0.23609 0.06272 0.088 0.0
H281 H 0.19849 0.28428 0.14592 0.0
H282 H 0.22702 0.32083 0.03388 0.0
H283 H 0.26285 0.2907 0.91931 0.0
H284 H 0.29844 0.06963 0.85994 0.0
H285 H 0.27107 0.03224 0.97227 0.0
C286 C 0.23385 0.11888 0.07599 0.0
C287 C 0.2151 0.17062 0.12526 0.0
C288 C 0.25043 0.13979 0.01112 0.0
C289 C 0.21267 0.24327 0.10898 0.0
C290 C 0.22917 0.26437 0.04484 0.0
C291 C 0.26494 0.23439 0.93092 0.0
C292 C 0.28282 0.18312 0.88143 0.0
C293 C 0.24833 0.21322 0.99552 0.0
C294 C 0.28483 0.11023 0.89725 0.0
C295 C 0.26908 0.08877 0.96147 0.0
H296 H 0.38227 0.25403 0.2635 0.0
H297 H 0.38825 0.03443 0.32261 0.0
H298 H 0.50369 0.04643 0.30273 0.0
H299 H 0.60359 0.11812 0.26456 0.0
H300 H 0.5989 0.33619 0.20046 0.0
H301 H 0.48249 0.32564 0.22482 0.0
C302 C 0.40889 0.20909 0.27244 0.0
C303 C 0.37695 0.14371 0.29508 0.0
C304 C 0.47556 0.21578 0.25895 0.0
C305 C 0.41185 0.08544 0.30572 0.0
C306 C 0.47785 0.09222 0.29413 0.0
C307 C 0.57709 0.16333 0.25591 0.0
C308 C 0.60972 0.22782 0.23074 0.0
C309 C 0.51033 0.15687 0.26997 0.0
C310 C 0.57482 0.28594 0.21976 0.0
C311 C 0.50828 0.28002 0.23381 0.0
H312 H 0.61086 0.74761 0.75723 0.0
H313 H 0.60425 0.53231 0.6887 0.0
H314 H 0.48772 0.54376 0.71369 0.0
H315 H 0.38772 0.61493 0.75598 0.0
H316 H 0.39513 0.8298 0.82536 0.0
H317 H 0.51144 0.81815 0.79983 0.0
C318 C 0.58402 0.70338 0.74728 0.0
C319 C 0.61606 0.63947 0.72069 0.0
C320 C 0.51718 0.71004 0.76247 0.0
C321 C 0.58064 0.58229 0.70866 0.0
C322 C 0.51404 0.5887 0.72316 0.0
C323 C 0.4148 0.65906 0.76571 0.0
C324 C 0.38296 0.72313 0.79249 0.0
C325 C 0.48178 0.65223 0.75038 0.0
C326 C 0.41861 0.77997 0.80467 0.0
C327 C 0.4851 0.77344 0.78995 0.0
H328 H 0.09716 0.93103 0.22784 0.0
H329 H 0.15309 0.70851 0.22036 0.0
H330 H 0.04082 0.67109 0.24752 0.0
H331 H 0.92623 0.70111 0.27424 0.0
H332 H 0.87008 0.92326 0.27948 0.0
H333 H 0.98243 0.96109 0.25286 0.0
C334 C 0.08474 0.87439 0.2318 0.0
C335 C 0.13345 0.82271 0.22202 0.0
C336 C 0.01986 0.85306 0.24748 0.0
C337 C 0.11659 0.74948 0.22744 0.0
C338 C 0.0523 0.72793 0.24324 0.0
C339 C 0.93859 0.75777 0.26982 0.0
C340 C 0.88987 0.8092 0.27901 0.0
C341 C 0.00345 0.77919 0.25367 0.0
C342 C 0.9067 0.88249 0.27267 0.0
C343 C 0.97097 0.90423 0.25733 0.0
H344 H 0.11469 0.38397 0.75886 0.0
H345 H 0.10855 0.17096 0.68517 0.0
H346 H 0.99244 0.1825 0.71004 0.0
H347 H 0.89231 0.25197 0.75399 0.0
H348 H 0.89791 0.46649 0.82433 0.0
H349 H 0.01426 0.45517 0.80045 0.0
C350 C 0.08792 0.34021 0.7481 0.0
C351 C 0.1202 0.2766 0.72042 0.0
C352 C 0.02094 0.34712 0.76266 0.0
C353 C 0.08489 0.22044 0.70659 0.0
C354 C 0.01842 0.22688 0.72095 0.0
C355 C 0.91893 0.29603 0.76455 0.0
C356 C 0.88647 0.35953 0.79176 0.0
C357 C 0.98589 0.28968 0.74941 0.0
C358 C 0.92172 0.41673 0.80407 0.0
C359 C 0.98828 0.41037 0.79022 0.0
loop_
_geom_bond_atom_site_label_1
_geom_bond_atom_site_label_2
_geom_bond_distance
_geom_bond_site_symmetry_2
_ccdc_geom_bond_type
In0 O1 2.294 . S
In0 O2 2.326 . S
In0 O6 2.266 . S
In0 O7 2.326 . S
In0 O8 2.266 . S
In0 O9 2.326 . S
In0 O11 2.294 . S
In0 O12 2.326 . S
O1 In0 2.294 . S
O1 C10 1.240 . S
O2 In0 2.326 . S
O2 C10 1.252 . S
C3 O6 1.252 . S
C3 O7 1.260 . S
C4 O11 1.240 . S
C4 O12 1.252 . S
C5 O8 1.252 . S
C5 O9 1.260 . S
O6 In0 2.266 . S
O6 C3 1.252 . S
O7 In0 2.326 . S
O7 C3 1.260 . S
O8 In0 2.266 . S
O8 C5 1.252 . S
O9 In0 2.326 . S
O9 C5 1.260 . S
C10 O1 1.240 . S
C10 O2 1.252 . S
O11 In0 2.294 . S
O11 C4 1.240 . S
O12 In0 2.326 . S
O12 C4 1.252 . S
In13 O14 2.294 . S
In13 O15 2.326 . S
In13 O19 2.266 . S
In13 O20 2.326 . S
In13 O21 2.266 . S
In13 O22 2.326 . S
In13 O24 2.294 . S
In13 O25 2.326 . S
O14 In13 2.294 . S
O14 C23 1.240 . S
O15 In13 2.326 . S
O15 C23 1.252 . S
C16 O19 1.252 . S
C16 O20 1.260 . S
C17 O24 1.240 . S
C17 O25 1.252 . S
C18 O21 1.252 . S
C18 O22 1.260 . S
O19 In13 2.266 . S
O19 C16 1.252 . S
O20 In13 2.326 . S
O20 C16 1.260 . S
O21 In13 2.266 . S
O21 C18 1.252 . S
O22 In13 2.326 . S
O22 C18 1.260 . S
C23 O14 1.240 . S
C23 O15 1.252 . S
O24 In13 2.294 . S
O24 C17 1.240 . S
O25 In13 2.326 . S
O25 C17 1.252 . S
In26 O27 2.294 . S
In26 O28 2.326 . S
In26 O32 2.266 . S
In26 O33 2.326 . S
In26 O34 2.266 . S
In26 O35 2.326 . S
In26 O37 2.294 . S
In26 O38 2.326 . S
O27 In26 2.294 . S
O27 C36 1.240 . S
O28 In26 2.326 . S
O28 C36 1.252 . S
C29 O32 1.252 . S
C29 O33 1.260 . S
C30 O37 1.240 . S
C30 O38 1.252 . S
C31 O34 1.252 . S
C31 O35 1.260 . S
O32 In26 2.266 . S
O32 C29 1.252 . S
O33 In26 2.326 . S
O33 C29 1.260 . S
O34 In26 2.266 . S
O34 C31 1.252 . S
O35 In26 2.326 . S
O35 C31 1.260 . S
C36 O27 1.240 . S
C36 O28 1.252 . S
O37 In26 2.294 . S
O37 C30 1.240 . S
O38 In26 2.326 . S
O38 C30 1.252 . S
In39 O40 2.294 . S
In39 O41 2.326 . S
In39 O45 2.266 . S
In39 O46 2.326 . S
In39 O47 2.266 . S
In39 O48 2.326 . S
In39 O50 2.294 . S
In39 O51 2.326 . S
O40 In39 2.294 . S
O40 C49 1.240 . S
O41 In39 2.326 . S
O41 C49 1.252 . S
C42 O45 1.252 . S
C42 O46 1.260 . S
C43 O50 1.240 . S
C43 O51 1.252 . S
C44 O47 1.252 . S
C44 O48 1.260 . S
O45 In39 2.266 . S
O45 C42 1.252 . S
O46 In39 2.326 . S
O46 C42 1.260 . S
O47 In39 2.266 . S
O47 C44 1.252 . S
O48 In39 2.326 . S
O48 C44 1.260 . S
C49 O40 1.240 . S
C49 O41 1.252 . S
O50 In39 2.294 . S
O50 C43 1.240 . S
O51 In39 2.326 . S
O51 C43 1.252 . S
In52 O53 2.294 . S
In52 O54 2.326 . S
In52 O58 2.266 . S
In52 O59 2.326 . S
In52 O60 2.266 . S
In52 O61 2.326 . S
In52 O63 2.294 . S
In52 O64 2.326 . S
O53 In52 2.294 . S
O53 C62 1.240 . S
O54 In52 2.326 . S
O54 C62 1.252 . S
C55 O58 1.252 . S
C55 O59 1.260 . S
C56 O63 1.240 . S
C56 O64 1.252 . S
C57 O60 1.252 . S
C57 O61 1.260 . S
O58 In52 2.266 . S
O58 C55 1.252 . S
O59 In52 2.326 . S
O59 C55 1.260 . S
O60 In52 2.266 . S
O60 C57 1.252 . S
O61 In52 2.326 . S
O61 C57 1.260 . S
C62 O53 1.240 . S
C62 O54 1.252 . S
O63 In52 2.294 . S
O63 C56 1.240 . S
O64 In52 2.326 . S
O64 C56 1.252 . S
In65 O66 2.294 . S
In65 O67 2.326 . S
In65 O71 2.266 . S
In65 O72 2.326 . S
In65 O73 2.266 . S
In65 O74 2.326 . S
In65 O76 2.294 . S
In65 O77 2.326 . S
O66 In65 2.294 . S
O66 C75 1.240 . S
O67 In65 2.326 . S
O67 C75 1.252 . S
C68 O71 1.252 . S
C68 O72 1.260 . S
C69 O76 1.240 . S
C69 O77 1.252 . S
C70 O73 1.252 . S
C70 O74 1.260 . S
O71 In65 2.266 . S
O71 C68 1.252 . S
O72 In65 2.326 . S
O72 C68 1.260 . S
O73 In65 2.266 . S
O73 C70 1.252 . S
O74 In65 2.326 . S
O74 C70 1.260 . S
C75 O66 1.240 . S
C75 O67 1.252 . S
O76 In65 2.294 . S
O76 C69 1.240 . S
O77 In65 2.326 . S
O77 C69 1.252 . S
In78 O79 2.294 . S
In78 O80 2.326 . S
In78 O84 2.266 . S
In78 O85 2.326 . S
In78 O86 2.266 . S
In78 O87 2.326 . S
In78 O89 2.294 . S
In78 O90 2.326 . S
O79 In78 2.294 . S
O79 C88 1.240 . S
O80 In78 2.326 . S
O80 C88 1.252 . S
C81 O84 1.252 . S
C81 O85 1.260 . S
C82 O89 1.240 . S
C82 O90 1.252 . S
C83 O86 1.252 . S
C83 O87 1.260 . S
O84 In78 2.266 . S
O84 C81 1.252 . S
O85 In78 2.326 . S
O85 C81 1.260 . S
O86 In78 2.266 . S
O86 C83 1.252 . S
O87 In78 2.326 . S
O87 C83 1.260 . S
C88 O79 1.240 . S
C88 O80 1.252 . S
O89 In78 2.294 . S
O89 C82 1.240 . S
O90 In78 2.326 . S
O90 C82 1.252 . S
In91 O92 2.294 . S
In91 O93 2.326 . S
In91 O97 2.266 . S
In91 O98 2.326 . S
In91 O99 2.266 . S
In91 O100 2.326 . S
In91 O102 2.294 . S
In91 O103 2.326 . S
O92 In91 2.294 . S
O92 C101 1.240 . S
O93 In91 2.326 . S
O93 C101 1.252 . S
C94 O97 1.252 . S
C94 O98 1.260 . S
C95 O102 1.240 . S
C95 O103 1.252 . S
C96 O99 1.252 . S
C96 O100 1.260 . S
O97 In91 2.266 . S
O97 C94 1.252 . S
O98 In91 2.326 . S
O98 C94 1.260 . S
O99 In91 2.266 . S
O99 C96 1.252 . S
O100 In91 2.326 . S
O100 C96 1.260 . S
C101 O92 1.240 . S
C101 O93 1.252 . S
O102 In91 2.294 . S
O102 C95 1.240 . S
O103 In91 2.326 . S
O103 C95 1.252 . S
H104 C110 0.930 . S
H105 C113 0.930 . S
H106 C114 0.930 . S
H107 C115 0.930 . S
H108 C118 0.930 . S
H109 C119 0.930 . S
C110 H104 0.930 . S
C110 C111 1.355 . S
C110 C112 1.415 1_545 S
C111 C110 1.355 . S
C111 C113 1.419 . S
C112 C110 1.415 1_565 S
C112 C117 1.425 1_465 S
C112 C119 1.409 1_455 S
C113 H105 0.930 . S
C113 C111 1.419 . S
C113 C114 1.362 . S
C114 H106 0.930 . S
C114 C113 1.362 . S
C114 C117 1.409 1_455 S
C115 H107 0.930 . S
C115 C116 1.355 . S
C115 C117 1.415 1_565 S
C116 C115 1.355 . S
C116 C118 1.419 . S
C117 C112 1.425 1_645 S
C117 C114 1.409 1_655 S
C117 C115 1.415 1_545 S
C118 H108 0.930 . S
C118 C116 1.419 . S
C118 C119 1.362 . S
C119 H109 0.930 . S
C119 C112 1.409 1_655 S
C119 C118 1.362 . S
H120 C126 0.930 . S
H121 C129 0.930 1_554 S
H122 C130 0.930 . S
H123 C131 0.930 . S
H124 C134 0.930 1_556 S
H125 C135 0.930 . S
C126 H120 0.930 . S
C126 C127 1.355 . S
C126 C128 1.415 1_565 S
C127 C126 1.355 . S
C127 C129 1.419 . S
C128 C126 1.415 1_545 S
C128 C133 1.425 1_446 S
C128 C135 1.409 1_455 S
C129 H121 0.930 1_556 S
C129 C127 1.419 . S
C129 C130 1.362 1_556 S
C130 H122 0.930 . S
C130 C129 1.362 1_554 S
C130 C133 1.409 1_455 S
C131 H123 0.930 . S
C131 C132 1.355 . S
C131 C133 1.415 1_545 S
C132 C131 1.355 . S
C132 C134 1.419 . S
C133 C128 1.425 1_664 S
C133 C130 1.409 1_655 S
C133 C131 1.415 1_565 S
C134 H124 0.930 1_554 S
C134 C132 1.419 . S
C134 C135 1.362 1_554 S
C135 H125 0.930 . S
C135 C128 1.409 1_655 S
C135 C134 1.362 1_556 S
H136 C142 0.930 . S
H137 C145 0.930 . S
H138 C146 0.930 . S
H139 C147 0.930 . S
H140 C150 0.930 . S
H141 C151 0.930 . S
C142 H136 0.930 . S
C142 C143 1.355 . S
C142 C144 1.415 . S
C143 C142 1.355 . S
C143 C145 1.419 . S
C144 C142 1.415 . S
C144 C149 1.425 . S
C144 C151 1.409 . S
C145 H137 0.930 . S
C145 C143 1.419 . S
C145 C146 1.362 . S
C146 H138 0.930 . S
C146 C145 1.362 . S
C146 C149 1.409 . S
C147 H139 0.930 . S
C147 C148 1.355 . S
C147 C149 1.415 . S
C148 C147 1.355 . S
C148 C150 1.419 . S
C149 C144 1.425 . S
C149 C146 1.409 . S
C149 C147 1.415 . S
C150 H140 0.930 . S
C150 C148 1.419 . S
C150 C151 1.362 . S
C151 H141 0.930 . S
C151 C144 1.409 . S
C151 C150 1.362 . S
H152 C158 0.930 . S
H153 C161 0.930 . S
H154 C162 0.930 . S
H155 C163 0.930 . S
H156 C166 0.930 . S
H157 C167 0.930 . S
C158 H152 0.930 . S
C158 C159 1.355 . S
C158 C160 1.415 . S
C159 C158 1.355 . S
C159 C161 1.419 . S
C160 C158 1.415 . S
C160 C165 1.425 1_554 S
C160 C167 1.409 1_554 S
C161 H153 0.930 . S
C161 C159 1.419 . S
C161 C162 1.362 . S
C162 H154 0.930 . S
C162 C161 1.362 . S
C162 C165 1.409 1_554 S
C163 H155 0.930 . S
C163 C164 1.355 . S
C163 C165 1.415 . S
C164 C163 1.355 . S
C164 C166 1.419 . S
C165 C160 1.425 1_556 S
C165 C162 1.409 1_556 S
C165 C163 1.415 . S
C166 H156 0.930 . S
C166 C164 1.419 . S
C166 C167 1.362 . S
C167 H157 0.930 . S
C167 C160 1.409 1_556 S
C167 C166 1.362 . S
H168 C174 0.930 . S
H169 C177 0.930 . S
H170 C178 0.930 . S
H171 C179 0.930 . S
H172 C182 0.930 . S
H173 C183 0.930 . S
C174 H168 0.930 . S
C174 C175 1.355 . S
C174 C176 1.415 1_554 S
C175 C174 1.355 . S
C175 C177 1.419 . S
C176 C174 1.415 1_556 S
C176 C181 1.425 1_656 S
C176 C183 1.409 . S
C177 H169 0.930 . S
C177 C175 1.419 . S
C177 C178 1.362 1_655 S
C178 H170 0.930 . S
C178 C177 1.362 1_455 S
C178 C181 1.409 . S
C179 H171 0.930 . S
C179 C180 1.355 . S
C179 C181 1.415 1_556 S
C180 C179 1.355 . S
C180 C182 1.419 . S
C181 C176 1.425 1_454 S
C181 C178 1.409 . S
C181 C179 1.415 1_554 S
C182 H172 0.930 . S
C182 C180 1.419 . S
C182 C183 1.362 1_455 S
C183 H173 0.930 . S
C183 C176 1.409 . S
C183 C182 1.362 1_655 S
H184 C190 0.930 . S
H185 C193 0.930 . S
H186 C194 0.930 . S
H187 C195 0.930 . S
H188 C198 0.930 . S
H189 C199 0.930 . S
C190 H184 0.930 . S
C190 C191 1.355 . S
C190 C192 1.415 . S
C191 C190 1.355 . S
C191 C193 1.419 . S
C192 C190 1.415 . S
C192 C197 1.425 1_455 S
C192 C199 1.409 . S
C193 H185 0.930 . S
C193 C191 1.419 . S
C193 C194 1.362 1_455 S
C194 H186 0.930 . S
C194 C193 1.362 1_655 S
C194 C197 1.409 . S
C195 H187 0.930 . S
C195 C196 1.355 . S
C195 C197 1.415 . S
C196 C195 1.355 . S
C196 C198 1.419 . S
C197 C192 1.425 1_655 S
C197 C194 1.409 . S
C197 C195 1.415 . S
C198 H188 0.930 . S
C198 C196 1.419 . S
C198 C199 1.362 1_655 S
C199 H189 0.930 . S
C199 C192 1.409 . S
C199 C198 1.362 1_455 S
H200 C206 0.930 . S
H201 C209 0.930 . S
H202 C210 0.930 . S
H203 C211 0.930 . S
H204 C214 0.930 . S
H205 C215 0.930 . S
C206 H200 0.930 . S
C206 C207 1.355 . S
C206 C208 1.415 1_546 S
C207 C206 1.355 . S
C207 C209 1.419 . S
C208 C206 1.415 1_564 S
C208 C213 1.425 1_564 S
C208 C215 1.409 . S
C209 H201 0.930 . S
C209 C207 1.419 . S
C209 C210 1.362 . S
C210 H202 0.930 . S
C210 C209 1.362 . S
C210 C213 1.409 . S
C211 H203 0.930 . S
C211 C212 1.355 . S
C211 C213 1.415 1_564 S
C212 C211 1.355 . S
C212 C214 1.419 . S
C213 C208 1.425 1_546 S
C213 C210 1.409 . S
C213 C211 1.415 1_546 S
C214 H204 0.930 . S
C214 C212 1.419 . S
C214 C215 1.362 . S
C215 H205 0.930 . S
C215 C208 1.409 . S
C215 C214 1.362 . S
H216 C222 0.930 . S
H217 C225 0.930 . S
H218 C226 0.930 . S
H219 C227 0.930 . S
H220 C230 0.930 . S
H221 C231 0.930 . S
C222 H216 0.930 . S
C222 C223 1.355 . S
C222 C224 1.415 1_565 S
C223 C222 1.355 . S
C223 C225 1.419 . S
C224 C222 1.415 1_545 S
C224 C229 1.425 1_545 S
C224 C231 1.409 . S
C225 H217 0.930 . S
C225 C223 1.419 . S
C225 C226 1.362 . S
C226 H218 0.930 . S
C226 C225 1.362 . S
C226 C229 1.409 . S
C227 H219 0.930 . S
C227 C228 1.355 . S
C227 C229 1.415 1_545 S
C228 C227 1.355 . S
C228 C230 1.419 . S
C229 C224 1.425 1_565 S
C229 C226 1.409 . S
C229 C227 1.415 1_565 S
C230 H220 0.930 . S
C230 C228 1.419 . S
C230 C231 1.362 . S
C231 H221 0.930 . S
C231 C224 1.409 . S
C231 C230 1.362 . S
H232 C238 0.930 . S
H233 C241 0.930 . S
H234 C242 0.930 . S
H235 C243 0.930 . S
H236 C246 0.930 . S
H237 C247 0.930 . S
C238 H232 0.930 . S
C238 C239 1.355 . S
C238 C240 1.415 . S
C239 C238 1.355 . S
C239 C241 1.419 . S
C240 C238 1.415 . S
C240 C245 1.425 . S
C240 C247 1.409 . S
C241 H233 0.930 . S
C241 C239 1.419 . S
C241 C242 1.362 . S
C242 H234 0.930 . S
C242 C241 1.362 . S
C242 C245 1.409 . S
C243 H235 0.930 . S
C243 C244 1.355 . S
C243 C245 1.415 . S
C244 C243 1.355 . S
C244 C246 1.419 . S
C245 C240 1.425 . S
C245 C242 1.409 . S
C245 C243 1.415 . S
C246 H236 0.930 . S
C246 C244 1.419 . S
C246 C247 1.362 . S
C247 H237 0.930 . S
C247 C240 1.409 . S
C247 C246 1.362 . S
H248 C254 0.930 . S
H249 C257 0.930 . S
H250 C258 0.930 . S
H251 C259 0.930 . S
H252 C262 0.930 . S
H253 C263 0.930 . S
C254 H248 0.930 . S
C254 C255 1.355 . S
C254 C256 1.415 . S
C255 C254 1.355 . S
C255 C257 1.419 . S
C256 C254 1.415 . S
C256 C261 1.425 1_556 S
C256 C263 1.409 1_556 S
C257 H249 0.930 . S
C257 C255 1.419 . S
C257 C258 1.362 . S
C258 H250 0.930 . S
C258 C257 1.362 . S
C258 C261 1.409 1_556 S
C259 H251 0.930 . S
C259 C260 1.355 . S
C259 C261 1.415 . S
C260 C259 1.355 . S
C260 C262 1.419 . S
C261 C256 1.425 1_554 S
C261 C258 1.409 1_554 S
C261 C259 1.415 . S
C262 H252 0.930 . S
C262 C260 1.419 . S
C262 C263 1.362 . S
C263 H253 0.930 . S
C263 C256 1.409 1_554 S
C263 C262 1.362 . S
H264 C270 0.930 . S
H265 C273 0.930 . S
H266 C274 0.930 . S
H267 C275 0.930 . S
H268 C278 0.930 . S
H269 C279 0.930 . S
C270 H264 0.930 . S
C270 C271 1.355 . S
C270 C272 1.415 . S
C271 C270 1.355 . S
C271 C273 1.419 . S
C272 C270 1.415 . S
C272 C277 1.425 . S
C272 C279 1.409 . S
C273 H265 0.930 . S
C273 C271 1.419 . S
C273 C274 1.362 . S
C274 H266 0.930 . S
C274 C273 1.362 . S
C274 C277 1.409 . S
C275 H267 0.930 . S
C275 C276 1.355 . S
C275 C277 1.415 . S
C276 C275 1.355 . S
C276 C278 1.419 . S
C277 C272 1.425 . S
C277 C274 1.409 . S
C277 C275 1.415 . S
C278 H268 0.930 . S
C278 C276 1.419 . S
C278 C279 1.362 . S
C279 H269 0.930 . S
C279 C272 1.409 . S
C279 C278 1.362 . S
H280 C286 0.930 . S
H281 C289 0.930 . S
H282 C290 0.930 . S
H283 C291 0.930 . S
H284 C294 0.930 . S
H285 C295 0.930 . S
C286 H280 0.930 . S
C286 C287 1.355 . S
C286 C288 1.415 . S
C287 C286 1.355 . S
C287 C289 1.419 . S
C288 C286 1.415 . S
C288 C293 1.425 1_554 S
C288 C295 1.409 1_554 S
C289 H281 0.930 . S
C289 C287 1.419 . S
C289 C290 1.362 . S
C290 H282 0.930 . S
C290 C289 1.362 . S
C290 C293 1.409 1_554 S
C291 H283 0.930 . S
C291 C292 1.355 . S
C291 C293 1.415 . S
C292 C291 1.355 . S
C292 C294 1.419 . S
C293 C288 1.425 1_556 S
C293 C290 1.409 1_556 S
C293 C291 1.415 . S
C294 H284 0.930 . S
C294 C292 1.419 . S
C294 C295 1.362 . S
C295 H285 0.930 . S
C295 C288 1.409 1_556 S
C295 C294 1.362 . S
H296 C302 0.930 . S
H297 C305 0.930 . S
H298 C306 0.930 . S
H299 C307 0.930 . S
H300 C310 0.930 . S
H301 C311 0.930 . S
C302 H296 0.930 . S
C302 C303 1.355 . S
C302 C304 1.415 . S
C303 C302 1.355 . S
C303 C305 1.419 . S
C304 C302 1.415 . S
C304 C309 1.425 . S
C304 C311 1.409 . S
C305 H297 0.930 . S
C305 C303 1.419 . S
C305 C306 1.362 . S
C306 H298 0.930 . S
C306 C305 1.362 . S
C306 C309 1.409 . S
C307 H299 0.930 . S
C307 C308 1.355 . S
C307 C309 1.415 . S
C308 C307 1.355 . S
C308 C310 1.419 . S
C309 C304 1.425 . S
C309 C306 1.409 . S
C309 C307 1.415 . S
C310 H300 0.930 . S
C310 C308 1.419 . S
C310 C311 1.362 . S
C311 H301 0.930 . S
C311 C304 1.409 . S
C311 C310 1.362 . S
H312 C318 0.930 . S
H313 C321 0.930 . S
H314 C322 0.930 . S
H315 C323 0.930 . S
H316 C326 0.930 . S
H317 C327 0.930 . S
C318 H312 0.930 . S
C318 C319 1.355 . S
C318 C320 1.415 . S
C319 C318 1.355 . S
C319 C321 1.419 . S
C320 C318 1.415 . S
C320 C325 1.425 . S
C320 C327 1.409 . S
C321 H313 0.930 . S
C321 C319 1.419 . S
C321 C322 1.362 . S
C322 H314 0.930 . S
C322 C321 1.362 . S
C322 C325 1.409 . S
C323 H315 0.930 . S
C323 C324 1.355 . S
C323 C325 1.415 . S
C324 C323 1.355 . S
C324 C326 1.419 . S
C325 C320 1.425 . S
C325 C322 1.409 . S
C325 C323 1.415 . S
C326 H316 0.930 . S
C326 C324 1.419 . S
C326 C327 1.362 . S
C327 H317 0.930 . S
C327 C320 1.409 . S
C327 C326 1.362 . S
H328 C334 0.930 . S
H329 C337 0.930 . S
H330 C338 0.930 . S
H331 C339 0.930 . S
H332 C342 0.930 . S
H333 C343 0.930 . S
C334 H328 0.930 . S
C334 C335 1.355 . S
C334 C336 1.415 . S
C335 C334 1.355 . S
C335 C337 1.419 . S
C336 C334 1.415 . S
C336 C341 1.425 1_455 S
C336 C343 1.409 1_455 S
C337 H329 0.930 . S
C337 C335 1.419 . S
C337 C338 1.362 . S
C338 H330 0.930 . S
C338 C337 1.362 . S
C338 C341 1.409 1_455 S
C339 H331 0.930 . S
C339 C340 1.355 . S
C339 C341 1.415 . S
C340 C339 1.355 . S
C340 C342 1.419 . S
C341 C336 1.425 1_655 S
C341 C338 1.409 1_655 S
C341 C339 1.415 . S
C342 H332 0.930 . S
C342 C340 1.419 . S
C342 C343 1.362 . S
C343 H333 0.930 . S
C343 C336 1.409 1_655 S
C343 C342 1.362 . S
H344 C350 0.930 . S
H345 C353 0.930 . S
H346 C354 0.930 . S
H347 C355 0.930 . S
H348 C358 0.930 . S
H349 C359 0.930 . S
C350 H344 0.930 . S
C350 C351 1.355 . S
C350 C352 1.415 . S
C351 C350 1.355 . S
C351 C353 1.419 . S
C352 C350 1.415 . S
C352 C357 1.425 1_455 S
C352 C359 1.409 1_455 S
C353 H345 0.930 . S
C353 C351 1.419 . S
C353 C354 1.362 . S
C354 H346 0.930 . S
C354 C353 1.362 . S
C354 C357 1.409 1_455 S
C355 H347 0.930 . S
C355 C356 1.355 . S
C355 C357 1.415 . S
C356 C355 1.355 . S
C356 C358 1.419 . S
C357 C352 1.425 1_655 S
C357 C354 1.409 1_655 S
C357 C355 1.415 . S
C358 H348 0.930 . S
C358 C356 1.419 . S
C358 C359 1.362 . S
C359 H349 0.930 . S
C359 C352 1.409 1_655 S
C359 C358 1.362 . S
C111 C4 1.801 . S
C116 C30 1.801 . S
C127 C49 1.794 . S
C132 C17 1.794 . S
C143 C82 1.817 . S
C148 C56 1.817 . S
C159 C69 1.824 . S
C164 C95 1.824 . S
C175 C23 1.254 . S
C180 C43 1.254 . S
C191 C10 1.251 . S
C196 C36 1.251 . S
C207 C101 1.251 . S
C212 C75 1.251 . S
C223 C62 1.286 . S
C228 C88 1.286 . S
C239 C68 1.521 . S
C244 C44 1.521 . S
C255 C29 1.516 . S
C260 C55 1.516 . S
C271 C16 1.530 . S
C276 C94 1.530 . S
C287 C3 1.520 . S
C292 C81 1.520 . S
C303 C5 1.535 . S
C308 C18 1.555 . S
C319 C31 1.555 . S
C324 C42 1.535 . S
C335 C70 1.535 . S
C340 C57 1.555 . S
C351 C83 1.553 . S
C356 C96 1.537 . S
