# Generated by pormake.
# Topology wmc, (6)-cn, num edge types: 1
# Building blocks:
#     Node 0, Type 0, BuildingBlock: UKALOJ_clean_sbu_0, # of connection points: 6
#     Node 1, Type 0, BuildingBlock: UKALOJ_clean_sbu_0, # of connection points: 6
#     Node 2, Type 0, BuildingBlock: UKALOJ_clean_sbu_0, # of connection points: 6
#     Node 3, Type 0, BuildingBlock: UKALOJ_clean_sbu_0, # of connection points: 6
#     Node 4, Type 0, BuildingBlock: UKALOJ_clean_sbu_0, # of connection points: 6
#     Node 5, Type 0, BuildingBlock: UKALOJ_clean_sbu_0, # of connection points: 6
#     Node 6, Type 0, BuildingBlock: UKALOJ_clean_sbu_0, # of connection points: 6
#     Node 7, Type 0, BuildingBlock: UKALOJ_clean_sbu_0, # of connection points: 6
#     Node 8, Type 0, BuildingBlock: UKALOJ_clean_sbu_0, # of connection points: 6
#     Node 9, Type 0, BuildingBlock: UKALOJ_clean_sbu_0, # of connection points: 6
#     Node 10, Type 0, BuildingBlock: UKALOJ_clean_sbu_0, # of connection points: 6
#     Node 11, Type 0, BuildingBlock: UKALOJ_clean_sbu_0, # of connection points: 6
#     Node 12, Type 0, BuildingBlock: UKALOJ_clean_sbu_0, # of connection points: 6
#     Node 13, Type 0, BuildingBlock: UKALOJ_clean_sbu_0, # of connection points: 6
#     Node 14, Type 0, BuildingBlock: UKALOJ_clean_sbu_0, # of connection points: 6
#     Node 15, Type 0, BuildingBlock: UKALOJ_clean_sbu_0, # of connection points: 6
#     Node 16, Type 0, BuildingBlock: UKALOJ_clean_sbu_0, # of connection points: 6
#     Node 17, Type 0, BuildingBlock: UKALOJ_clean_sbu_0, # of connection points: 6
#     Edge 18, Type (0, 0), BuildingBlock: CIFDUS_clean_linker_0, # of connection points: 2
#     Edge 19, Type (0, 0), BuildingBlock: CIFDUS_clean_linker_0, # of connection points: 2
#     Edge 20, Type (0, 0), BuildingBlock: CIFDUS_clean_linker_0, # of connection points: 2
#     Edge 21, Type (0, 0), BuildingBlock: CIFDUS_clean_linker_0, # of connection points: 2
#     Edge 22, Type (0, 0), BuildingBlock: CIFDUS_clean_linker_0, # of connection points: 2
#     Edge 23, Type (0, 0), BuildingBlock: CIFDUS_clean_linker_0, # of connection points: 2
#     Edge 24, Type (0, 0), BuildingBlock: CIFDUS_clean_linker_0, # of connection points: 2
#     Edge 25, Type (0, 0), BuildingBlock: CIFDUS_clean_linker_0, # of connection points: 2
#     Edge 26, Type (0, 0), BuildingBlock: CIFDUS_clean_linker_0, # of connection points: 2
#     Edge 27, Type (0, 0), BuildingBlock: CIFDUS_clean_linker_0, # of connection points: 2
#     Edge 28, Type (0, 0), BuildingBlock: CIFDUS_clean_linker_0, # of connection points: 2
#     Edge 29, Type (0, 0), BuildingBlock: CIFDUS_clean_linker_0, # of connection points: 2
#     Edge 30, Type (0, 0), BuildingBlock: CIFDUS_clean_linker_0, # of connection points: 2
#     Edge 31, Type (0, 0), BuildingBlock: CIFDUS_clean_linker_0, # of connection points: 2
#     Edge 32, Type (0, 0), BuildingBlock: CIFDUS_clean_linker_0, # of connection points: 2
#     Edge 33, Type (0, 0), BuildingBlock: CIFDUS_clean_linker_0, # of connection points: 2
#     Edge 34, Type (0, 0), BuildingBlock: CIFDUS_clean_linker_0, # of connection points: 2
#     Edge 35, Type (0, 0), BuildingBlock: CIFDUS_clean_linker_0, # of connection points: 2
#     Edge 36, Type (0, 0), BuildingBlock: CIFDUS_clean_linker_0, # of connection points: 2
#     Edge 37, Type (0, 0), BuildingBlock: CIFDUS_clean_linker_0, # of connection points: 2
#     Edge 38, Type (0, 0), BuildingBlock: CIFDUS_clean_linker_0, # of connection points: 2
#     Edge 39, Type (0, 0), BuildingBlock: CIFDUS_clean_linker_0, # of connection points: 2
#     Edge 40, Type (0, 0), BuildingBlock: CIFDUS_clean_linker_0, # of connection points: 2
#     Edge 41, Type (0, 0), BuildingBlock: CIFDUS_clean_linker_0, # of connection points: 2
#     Edge 42, Type (0, 0), BuildingBlock: CIFDUS_clean_linker_0, # of connection points: 2
#     Edge 43, Type (0, 0), BuildingBlock: CIFDUS_clean_linker_0, # of connection points: 2
#     Edge 44, Type (0, 0), BuildingBlock: CIFDUS_clean_linker_0, # of connection points: 2
#     Edge 45, Type (0, 0), BuildingBlock: CIFDUS_clean_linker_0, # of connection points: 2
#     Edge 46, Type (0, 0), BuildingBlock: CIFDUS_clean_linker_0, # of connection points: 2
#     Edge 47, Type (0, 0), BuildingBlock: CIFDUS_clean_linker_0, # of connection points: 2
#     Edge 48, Type (0, 0), BuildingBlock: CIFDUS_clean_linker_0, # of connection points: 2
#     Edge 49, Type (0, 0), BuildingBlock: CIFDUS_clean_linker_0, # of connection points: 2
#     Edge 50, Type (0, 0), BuildingBlock: CIFDUS_clean_linker_0, # of connection points: 2
#     Edge 51, Type (0, 0), BuildingBlock: CIFDUS_clean_linker_0, # of connection points: 2
#     Edge 52, Type (0, 0), BuildingBlock: CIFDUS_clean_linker_0, # of connection points: 2
#     Edge 53, Type (0, 0), BuildingBlock: CIFDUS_clean_linker_0, # of connection points: 2
#     Edge 54, Type (0, 0), BuildingBlock: CIFDUS_clean_linker_0, # of connection points: 2
#     Edge 55, Type (0, 0), BuildingBlock: CIFDUS_clean_linker_0, # of connection points: 2
#     Edge 56, Type (0, 0), BuildingBlock: CIFDUS_clean_linker_0, # of connection points: 2
#     Edge 57, Type (0, 0), BuildingBlock: CIFDUS_clean_linker_0, # of connection points: 2
#     Edge 58, Type (0, 0), BuildingBlock: CIFDUS_clean_linker_0, # of connection points: 2
#     Edge 59, Type (0, 0), BuildingBlock: CIFDUS_clean_linker_0, # of connection points: 2
#     Edge 60, Type (0, 0), BuildingBlock: CIFDUS_clean_linker_0, # of connection points: 2
#     Edge 61, Type (0, 0), BuildingBlock: CIFDUS_clean_linker_0, # of connection points: 2
#     Edge 62, Type (0, 0), BuildingBlock: CIFDUS_clean_linker_0, # of connection points: 2
#     Edge 63, Type (0, 0), BuildingBlock: CIFDUS_clean_linker_0, # of connection points: 2
#     Edge 64, Type (0, 0), BuildingBlock: CIFDUS_clean_linker_0, # of connection points: 2
#     Edge 65, Type (0, 0), BuildingBlock: CIFDUS_clean_linker_0, # of connection points: 2
#     Edge 66, Type (0, 0), BuildingBlock: CIFDUS_clean_linker_0, # of connection points: 2
#     Edge 67, Type (0, 0), BuildingBlock: CIFDUS_clean_linker_0, # of connection points: 2
#     Edge 68, Type (0, 0), BuildingBlock: CIFDUS_clean_linker_0, # of connection points: 2
#     Edge 69, Type (0, 0), BuildingBlock: CIFDUS_clean_linker_0, # of connection points: 2
#     Edge 70, Type (0, 0), BuildingBlock: CIFDUS_clean_linker_0, # of connection points: 2
#     Edge 71, Type (0, 0), BuildingBlock: CIFDUS_clean_linker_0, # of connection points: 2
# Relax obj value: 0.403
# Max RMSD: 0.231
# Mean RMSD: 0.231
data_MOF--net-wmc--node1-UKALOJ_clean_sbu_0--edge1-CIFDUS_clean_linker_0
_symmetry_space_group_name_H-M    P1
_symmetry_Int_Tables_number       1
_symmetry_cell_setting            triclinic
loop_
_symmetry_equiv_pos_as_xyz
'x, y, z'
_cell_length_a     46.128092
_cell_length_b     46.189287
_cell_length_c     25.372848
_cell_angle_alpha  90.08374
_cell_angle_beta   90.023083
_cell_angle_gamma 119.90559
loop_
_atom_site_label
_atom_site_type_symbol
_atom_site_fract_x
_atom_site_fract_y
_atom_site_fract_z
_atom_type_partial_charge
Zn0 Zn 0.58459 0.09398 0.00996 0.0
O1 O 0.55967 0.12308 -0.00446 0.0
C2 C 0.60953 0.11295 0.90084 0.0
Zn3 Zn 0.63086 0.144 0.00694 0.0
C4 C 0.57589 0.15487 0.99197 0.0
O5 O 0.60739 0.17028 -0.00426 0.0
C6 C 0.64522 0.08831 0.0292 0.0
O7 O 0.62679 0.14842 0.09145 0.0
O8 O 0.58003 0.09997 0.08955 0.0
N9 N 0.67681 0.18556 0.00218 0.0
C10 C 0.6895 0.21825 0.01274 0.0
C11 C 0.72872 0.21244 0.97918 0.0
N12 N 0.70127 0.18209 0.9815 0.0
N13 N 0.72206 0.23566 -0.00163 0.0
C14 C 0.51019 0.04082 0.97981 0.0
C15 C 0.49969 0.99976 0.02974 0.0
N16 N 0.53825 0.04955 0.00847 0.0
N17 N 0.53155 0.02384 0.03924 0.0
N18 N 0.48559 1.00959 0.99241 0.0
H19 H 0.52931 0.08014 0.92184 0.0
H20 H 0.50012 0.08072 0.96835 0.0
H21 H 0.4852 0.05132 0.91577 0.0
C22 C 0.50598 0.06433 0.94402 0.0
C23 C 0.67036 0.23248 0.0393 0.0
H24 H 0.65738 0.23916 0.00899 0.0
H25 H 0.68742 0.25527 0.062 0.0
H26 H 0.65119 0.21374 0.06603 0.0
O27 O 0.65615 0.11862 0.01846 0.0
O28 O 0.61354 0.06836 0.02938 0.0
C29 C 0.60092 0.12569 0.11501 0.0
O30 O 0.58867 0.08862 0.92854 0.0
O31 O 0.6315 0.13943 0.92345 0.0
Zn32 Zn 0.93015 0.49146 0.01186 0.0
O33 O 0.89983 0.4377 0.00018 0.0
C34 C 0.91075 0.49853 0.90406 0.0
Zn35 Zn 0.88097 0.49052 0.01056 0.0
C36 C 0.86813 0.42338 -0.00495 0.0
O37 O 0.85383 0.44066 -0.00309 0.0
C38 C 0.93817 0.5589 0.03137 0.0
O39 O 0.87602 0.48103 0.09359 0.0
O40 O 0.92469 0.48282 0.09218 0.0
N41 N 0.83965 0.49565 0.00593 0.0
C42 C 0.8068 0.47551 0.01514 0.0
C43 C 0.81271 0.52032 0.98103 0.0
N44 N 0.84321 0.5235 0.98501 0.0
N45 N 0.7893 0.49036 -0.00063 0.0
C46 C 0.98213 0.46747 0.98327 0.0
C47 C 0.02383 0.49846 0.03195 0.0
N48 N 0.97416 0.48798 0.01041 0.0
N49 N 1.00032 0.50723 0.04035 0.0
N50 N 1.01329 0.4736 -0.00391 0.0
H51 H 0.94193 0.41754 0.97391 0.0
H52 H 0.97073 0.43131 0.92028 0.0
H53 H 0.9418 0.44656 0.92688 0.0
C54 C 0.958 0.43934 0.94871 0.0
C55 C 0.79244 0.44234 0.04203 0.0
H56 H 0.78555 0.42252 0.012 0.0
H57 H 0.76967 0.43692 0.06456 0.0
H58 H 0.81114 0.44186 0.06895 0.0
O59 O 0.90717 0.54039 0.02474 0.0
O60 O 0.95746 0.54644 0.02738 0.0
C61 C 0.89885 0.47812 0.11733 0.0
O62 O 0.93408 0.4986 0.93065 0.0
O63 O 0.88619 0.49775 0.92798 0.0
Zn64 Zn 0.53172 0.43902 0.00649 0.0
O65 O 0.58514 0.46162 0.98955 0.0
C66 C 0.52114 0.40935 0.89993 0.0
Zn67 Zn 0.53377 0.39159 0.00612 0.0
C68 C 0.6001 0.44472 0.98651 0.0
O69 O 0.58351 0.41333 0.99179 0.0
C70 C 0.46534 0.38136 0.03018 0.0
O71 O 0.54405 0.39771 0.0891 0.0
O72 O 0.54393 0.44534 0.086 0.0
N73 N 0.52754 0.34478 0.00431 0.0
C74 C 0.54746 0.33176 0.01334 0.0
C75 C 0.5011 0.29244 0.98391 0.0
N76 N 0.49873 0.32024 0.98635 0.0
N77 N 0.53149 0.29895 0.00039 0.0
C78 C 0.54948 0.50952 0.96183 0.0
C79 C 0.54015 0.53343 0.02601 0.0
N80 N 0.53717 0.48701 0.0017 0.0
N81 N 0.53163 0.50216 0.04162 0.0
N82 N 0.55155 0.53876 0.97603 0.0
H83 H 0.58053 0.52781 0.8923 0.0
H84 H 0.54 0.49166 0.88232 0.0
H85 H 0.57248 0.4875 0.91432 0.0
C86 C 0.56147 0.50382 0.90992 0.0
C87 C 0.58165 0.35086 0.03723 0.0
H88 H 0.60035 0.36293 0.00544 0.0
H89 H 0.58775 0.33394 0.05955 0.0
H90 H 0.58325 0.37069 0.06381 0.0
O91 O 0.48368 0.36888 0.02108 0.0
O92 O 0.4778 0.41308 0.02745 0.0
C93 C 0.54825 0.42423 0.11185 0.0
O94 O 0.51977 0.43195 0.92625 0.0
O95 O 0.526 0.38797 0.92359 0.0
Zn96 Zn 0.93372 0.4444 0.51026 0.0
O97 O 0.9041 0.46947 0.50244 0.0
C98 C 0.90826 0.41776 0.40496 0.0
Zn99 Zn 0.88277 0.39891 0.51482 0.0
C100 C 0.87234 0.45434 0.50687 0.0
O101 O 0.85618 0.423 0.51243 0.0
C102 C 0.93939 0.38397 0.52447 0.0
O103 O 0.88409 0.40315 0.59891 0.0
O104 O 0.93296 0.4495 0.59082 0.0
N105 N 0.84075 0.35298 0.51377 0.0
C106 C 0.80827 0.34056 0.52598 0.0
C107 C 0.81295 0.30119 0.49048 0.0
N108 N 0.84349 0.32839 0.49198 0.0
N109 N 0.79021 0.30803 0.51132 0.0
C110 C 0.98405 0.51853 0.47465 0.0
C111 C 0.02757 0.53158 0.52026 0.0
N112 N 0.97777 0.49113 0.50327 0.0
N113 N 1.00505 0.49943 0.53126 0.0
N114 N 1.01521 0.54433 0.48466 0.0
H115 H 0.94392 0.52878 0.46712 0.0
H116 H 0.96965 0.53975 0.41002 0.0
H117 H 0.9409 0.4966 0.42333 0.0
C118 C 0.95834 0.52098 0.44159 0.0
C119 C 0.79505 0.36 0.55444 0.0
H120 H 0.78908 0.37422 0.52541 0.0
H121 H 0.77212 0.34313 0.57689 0.0
H122 H 0.8143 0.37819 0.58185 0.0
O123 O 0.90858 0.37346 0.5192 0.0
O124 O 0.95997 0.41546 0.5226 0.0
C125 C 0.9092 0.42853 0.61942 0.0
O126 O 0.93425 0.43878 0.42937 0.0
O127 O 0.88232 0.39759 0.43061 0.0
Zn128 Zn 0.58282 0.48688 0.50832 0.0
O129 O 0.55303 0.43476 0.48626 0.0
C130 C 0.60866 0.49258 0.40148 0.0
Zn131 Zn 0.62567 0.47748 0.50809 0.0
C132 C 0.56532 0.41557 0.48954 0.0
O133 O 0.59597 0.42753 0.49963 0.0
C134 C 0.648 0.54892 0.53121 0.0
O135 O 0.62128 0.46976 0.59162 0.0
O136 O 0.57526 0.47304 0.58695 0.0
N137 N 0.66665 0.47184 0.50142 0.0
C138 C 0.69414 0.48089 0.53108 0.0
C139 C 0.70089 0.4615 0.45865 0.0
N140 N 0.67096 0.45979 0.45656 0.0
N141 N 0.71608 0.47485 0.50482 0.0
C142 C 0.50658 0.46705 0.50491 0.0
C143 C 0.50974 0.51077 0.47225 0.0
N144 N 0.53944 0.49096 0.50525 0.0
N145 N 0.54104 0.51824 0.48558 0.0
N146 N 0.48741 0.47872 0.48393 0.0
H147 H 0.50999 0.42992 0.5517 0.0
H148 H 0.468 0.42201 0.54018 0.0
H149 H 0.49018 0.41582 0.48759 0.0
C150 C 0.49311 0.43167 0.52235 0.0
C151 C 0.70011 0.49716 0.58413 0.0
H152 H 0.68927 0.47745 0.61476 0.0
H153 H 0.72729 0.5131 0.59189 0.0
H154 H 0.68772 0.51238 0.5871 0.0
O155 O 0.65681 0.52803 0.51788 0.0
O156 O 0.61672 0.53956 0.53276 0.0
C157 C 0.59515 0.46718 0.61352 0.0
O158 O 0.59002 0.49981 0.42845 0.0
O159 O 0.62648 0.48266 0.42473 0.0
Zn160 Zn 0.53529 0.14637 0.50712 0.0
O161 O 0.54288 0.14979 0.59237 0.0
C162 C 0.4666 0.08728 0.52783 0.0
Zn163 Zn 0.53406 0.09767 0.50871 0.0
C164 C 0.54768 0.12767 0.6147 0.0
O165 O 0.54502 0.10327 0.58782 0.0
C166 C 0.52621 0.11646 0.40042 0.0
O167 O 0.58801 0.13017 0.49381 0.0
O168 O 0.58471 0.17594 0.49761 0.0
N169 N 0.54078 0.05599 0.50443 0.0
C170 C 0.55419 0.04653 0.46507 0.0
C171 C 0.54265 0.01181 0.52756 0.0
N172 N 0.53388 0.0344 0.54335 0.0
N173 N 0.55556 0.01891 0.47852 0.0
C174 C 0.53828 0.21555 0.52447 0.0
C175 C 0.49759 0.20699 0.47428 0.0
N176 N 0.5261 0.18492 0.50324 0.0
N177 N 0.50085 0.17976 0.47228 0.0
N178 N 0.52061 0.2299 0.5069 0.0
H179 H 0.58323 0.21896 0.55665 0.0
H180 H 0.58394 0.2584 0.55088 0.0
H181 H 0.55956 0.22894 0.60157 0.0
C182 C 0.56815 0.23146 0.56013 0.0
C183 C 0.56765 0.06514 0.41429 0.0
H184 H 0.58764 0.06092 0.39836 0.0
H185 H 0.54716 0.05593 0.38484 0.0
H186 H 0.57791 0.09226 0.41955 0.0
O187 O 0.52316 0.0923 0.42801 0.0
O188 O 0.53108 0.14299 0.42317 0.0
C189 C 0.60223 0.16205 0.49279 0.0
O190 O 0.48482 0.11775 0.51706 0.0
O191 O 0.47979 0.06857 0.52887 0.0
Zn192 Zn 0.25409 0.43137 0.35704 0.0
O193 O 0.2341 0.46394 0.33556 0.0
C194 C 0.28255 0.44485 0.24975 0.0
Zn195 Zn 0.30287 0.47917 0.35317 0.0
C196 C 0.25223 0.4956 0.33141 0.0
O197 O 0.28357 0.50905 0.33657 0.0
C198 C 0.30961 0.41968 0.38359 0.0
O199 O 0.29842 0.48637 0.43633 0.0
O200 O 0.24874 0.44092 0.43484 0.0
N201 N 0.35084 0.51771 0.34838 0.0
C202 C 0.36805 0.54964 0.36515 0.0
C203 C 0.40164 0.54023 0.32036 0.0
N204 N 0.37187 0.51199 0.32087 0.0
N205 N 0.40012 0.56434 0.34794 0.0
C206 C 0.18263 0.38066 0.31302 0.0
C207 C 0.15736 0.34852 0.37752 0.0
N208 N 0.20484 0.39052 0.3535 0.0
N209 N 0.18884 0.37054 0.39362 0.0
N210 N 0.15275 0.35435 0.32698 0.0
H211 H 0.16582 0.39433 0.24268 0.0
H212 H 0.20007 0.3867 0.23342 0.0
H213 H 0.20717 0.42479 0.26373 0.0
C214 C 0.18932 0.39777 0.26046 0.0
C215 C 0.35291 0.56641 0.39621 0.0
H216 H 0.3253 0.55208 0.39467 0.0
H217 H 0.362 0.59211 0.38138 0.0
H218 H 0.36037 0.56795 0.43813 0.0
O219 O 0.32335 0.44994 0.37008 0.0
O220 O 0.27762 0.40203 0.3836 0.0
C221 C 0.27117 0.46609 0.45966 0.0
O222 O 0.26014 0.42236 0.27815 0.0
O223 O 0.30452 0.47183 0.27098 0.0
Zn224 Zn 0.59297 0.82273 0.32668 0.0
O225 O 0.56805 0.76983 0.30729 0.0
C226 C 0.57438 0.83179 0.2206 0.0
Zn227 Zn 0.54147 0.81608 0.32598 0.0
C228 C 0.53631 0.75212 0.30787 0.0
O229 O 0.51878 0.76577 0.31515 0.0
C230 C 0.59385 0.88636 0.35089 0.0
O231 O 0.5371 0.80709 0.40897 0.0
O232 O 0.58588 0.80926 0.40495 0.0
N233 N 0.49597 0.8133 0.31896 0.0
C234 C 0.47704 0.82086 0.35027 0.0
C235 C 0.45254 0.80601 0.27572 0.0
N236 N 0.48064 0.80413 0.27275 0.0
N237 N 0.44971 0.81665 0.32382 0.0
C238 C 0.65066 0.81085 0.28648 0.0
C239 C 0.68129 0.81962 0.35408 0.0
N240 N 0.63824 0.82191 0.32518 0.0
N241 N 0.65733 0.82712 0.3672 0.0
N242 N 0.67761 0.8092 0.30359 0.0
H243 H 0.64163 0.78118 0.21579 0.0
H244 H 0.64474 0.82124 0.2063 0.0
H245 H 0.60765 0.78739 0.23443 0.0
C246 C 0.63516 0.79934 0.23292 0.0
C247 C 0.48641 0.8341 0.40526 0.0
H248 H 0.51391 0.85032 0.40864 0.0
H249 H 0.47853 0.81282 0.43278 0.0
H250 H 0.47393 0.8484 0.41678 0.0
O251 O 0.56361 0.86673 0.3384 0.0
O252 O 0.61466 0.87556 0.3508 0.0
C253 C 0.56028 0.80406 0.43118 0.0
O254 O 0.59941 0.83637 0.24755 0.0
O255 O 0.54678 0.82296 0.24343 0.0
Zn256 Zn 0.19692 0.77496 0.33433 0.0
O257 O 0.25169 0.80148 0.32615 0.0
C258 C 0.19597 0.74864 0.22946 0.0
Zn259 Zn 0.2038 0.73037 0.33961 0.0
C260 C 0.26901 0.78701 0.33046 0.0
O261 O 0.25452 0.7557 0.33611 0.0
C262 C 0.13177 0.71382 0.3495 0.0
O263 O 0.20758 0.73489 0.42354 0.0
O264 O 0.20293 0.77998 0.41463 0.0
N265 N 0.20158 0.68521 0.33802 0.0
C266 C 0.22196 0.67342 0.35183 0.0
C267 C 0.17955 0.63383 0.31337 0.0
N268 N 0.17528 0.6605 0.31433 0.0
N269 N 0.20871 0.64113 0.33639 0.0
C270 C 0.21783 0.84872 0.30145 0.0
C271 C 0.18602 0.85924 0.34853 0.0
N272 N 0.19756 0.82057 0.32901 0.0
N273 N 0.17773 0.82726 0.35791 0.0
N274 N 0.21109 0.87342 0.31309 0.0
H275 H 0.26884 0.86125 0.29308 0.0
H276 H 0.25298 0.87202 0.23693 0.0
H277 H 0.24049 0.82905 0.24859 0.0
C278 C 0.24643 0.85292 0.26779 0.0
C279 C 0.25369 0.69322 0.38243 0.0
H280 H 0.27463 0.70745 0.35464 0.0
H281 H 0.25931 0.67658 0.40649 0.0
H282 H 0.25168 0.71142 0.40856 0.0
O283 O 0.15248 0.70369 0.34513 0.0
O284 O 0.14212 0.74514 0.3466 0.0
C285 C 0.20705 0.75998 0.44366 0.0
O286 O 0.19076 0.76964 0.2535 0.0
O287 O 0.2021 0.72882 0.2555 0.0
Zn288 Zn 0.54555 0.73443 0.8257 0.0
O289 O 0.54214 0.73952 0.9081 0.0
C290 C 0.59426 0.7119 0.85033 0.0
Zn291 Zn 0.59769 0.77742 0.82679 0.0
C292 C 0.56539 0.76521 0.93102 0.0
O293 O 0.59155 0.78521 0.90559 0.0
C294 C 0.57703 0.75022 0.72014 0.0
O295 O 0.57604 0.80797 0.80513 0.0
O296 O 0.52567 0.76488 0.81548 0.0
N297 N 0.64553 0.8199 0.8245 0.0
C298 C 0.65586 0.85305 0.82558 0.0
C299 C 0.69837 0.84856 0.80662 0.0
N300 N 0.67217 0.81738 0.81275 0.0
N301 N 0.68872 0.87144 0.81375 0.0
C302 C 0.48165 0.66676 0.85201 0.0
C303 C 0.45349 0.65825 0.78128 0.0
N304 N 0.49895 0.69361 0.82081 0.0
N305 N 0.48139 0.68823 0.77696 0.0
N306 N 0.45312 0.64415 0.82785 0.0
H307 H 0.52113 0.67493 0.90638 0.0
H308 H 0.48478 0.67278 0.93563 0.0
H309 H 0.48325 0.63504 0.91301 0.0
C310 C 0.49351 0.66198 0.90458 0.0
C311 C 0.63453 0.86769 0.84103 0.0
H312 H 0.61529 0.85139 0.86999 0.0
H313 H 0.65007 0.8929 0.85849 0.0
H314 H 0.62213 0.87038 0.8054 0.0
O315 O 0.60287 0.76974 0.74659 0.0
O316 O 0.54957 0.73215 0.74371 0.0
C317 C 0.5445 0.79565 0.80651 0.0
O318 O 0.56462 0.70303 0.83664 0.0
O319 O 0.61606 0.74312 0.85147 0.0
Zn320 Zn 0.2539 0.81928 0.83566 0.0
O321 O 0.22328 0.76601 0.82594 0.0
C322 C 0.28137 0.82283 0.72798 0.0
Zn323 Zn 0.29799 0.81118 0.83459 0.0
C324 C 0.23644 0.74773 0.8206 0.0
O325 O 0.26788 0.76077 0.82197 0.0
C326 C 0.31867 0.88269 0.85336 0.0
O327 O 0.29162 0.80246 0.91763 0.0
O328 O 0.2488 0.81118 0.91607 0.0
N329 N 0.33858 0.80482 0.83183 0.0
C330 C 0.36978 0.8215 0.85214 0.0
C331 C 0.36855 0.78606 0.79681 0.0
N332 N 0.33793 0.78276 0.79776 0.0
N333 N 0.38907 0.81035 0.8302 0.0
C334 C 0.18413 0.80728 0.79607 0.0
C335 C 0.16836 0.82849 0.85622 0.0
N336 N 0.20947 0.82146 0.83166 0.0
N337 N 0.19935 0.83442 0.86915 0.0
N338 N 0.15818 0.81127 0.81063 0.0
H339 H 0.15837 0.76457 0.74543 0.0
H340 H 0.18635 0.80249 0.7126 0.0
H341 H 0.20272 0.78041 0.74878 0.0
C342 C 0.18322 0.78753 0.7484 0.0
C343 C 0.38187 0.85059 0.88916 0.0
H344 H 0.36138 0.84724 0.91585 0.0
H345 H 0.40347 0.85387 0.91284 0.0
H346 H 0.39012 0.87372 0.8659 0.0
O347 O 0.32825 0.86161 0.84688 0.0
O348 O 0.28745 0.87331 0.85018 0.0
C349 C 0.26763 0.80326 0.94133 0.0
O350 O 0.25977 0.82642 0.75373 0.0
O351 O 0.30239 0.81794 0.75274 0.0
Zn352 Zn 0.21393 0.48246 0.86138 0.0
O353 O 0.21594 0.47848 0.94426 0.0
C354 C 0.14174 0.43032 0.87045 0.0
Zn355 Zn 0.20663 0.43126 0.85448 0.0
C356 C 0.21859 0.45471 0.96458 0.0
O357 O 0.21538 0.43084 0.93552 0.0
C358 C 0.20621 0.45955 0.7505 0.0
O359 O 0.26072 0.45682 0.84259 0.0
O360 O 0.26471 0.50513 0.8606 0.0
N361 N 0.20525 0.38544 0.84382 0.0
C362 C 0.22405 0.37749 0.81218 0.0
C363 C 0.19481 0.33532 0.8608 0.0
N364 N 0.18698 0.35899 0.87365 0.0
N365 N 0.21799 0.34613 0.82217 0.0
C366 C 0.20594 0.54379 0.83845 0.0
C367 C 0.22835 0.57436 0.90604 0.0
N368 N 0.21696 0.52766 0.86957 0.0
N369 N 0.23066 0.54659 0.91175 0.0
N370 N 0.21272 0.573 0.86052 0.0
H371 H 0.17207 0.54241 0.77841 0.0
H372 H 0.20532 0.53605 0.75527 0.0
H373 H 0.17043 0.50306 0.79006 0.0
C374 C 0.18719 0.53046 0.78774 0.0
C375 C 0.25103 0.4017 0.77604 0.0
H376 H 0.27518 0.41377 0.79763 0.0
H377 H 0.2541 0.38915 0.74119 0.0
H378 H 0.24565 0.42118 0.76203 0.0
O379 O 0.19857 0.43238 0.77365 0.0
O380 O 0.21468 0.48576 0.7775 0.0
C381 C 0.27859 0.48812 0.85046 0.0
O382 O 0.1626 0.46095 0.86417 0.0
O383 O 0.15194 0.40905 0.8698 0.0
Zn384 Zn 0.91937 0.76969 0.67397 0.0
O385 O 0.89042 0.7943 0.65494 0.0
C386 C 0.94761 0.78907 0.56873 0.0
Zn387 Zn 0.96345 0.82111 0.67355 0.0
C388 C 0.90416 0.82603 0.65606 0.0
O389 O 0.9353 0.8436 0.66351 0.0
C390 C 0.98277 0.76956 0.69691 0.0
O391 O 0.95903 0.82498 0.75569 0.0
O392 O 0.9127 0.77612 0.75193 0.0
N393 N 1.0055 0.86627 0.66816 0.0
C394 C 0.03239 0.88348 0.69945 0.0
C395 C 0.04186 0.9104 0.62733 0.0
N396 N 1.01148 0.88305 0.62345 0.0
N397 N 0.05563 0.91113 0.67442 0.0
C398 C 0.85093 0.71121 0.63246 0.0
C399 C 0.82939 0.68001 0.69939 0.0
N400 N 0.87402 0.72404 0.67166 0.0
N401 N 0.86034 0.7046 0.71327 0.0
N402 N 0.8228 0.68366 0.64884 0.0
H403 H 0.83008 0.71934 0.5613 0.0
H404 H 0.86815 0.7181 0.55275 0.0
H405 H 0.86931 0.75429 0.58123 0.0
C406 C 0.85479 0.72675 0.57909 0.0
C407 C 0.03648 0.87233 0.75299 0.0
H408 H 0.02432 0.88052 0.78256 0.0
H409 H 0.06332 0.88343 0.76332 0.0
H410 H 0.02423 0.84475 0.75474 0.0
O411 O 0.9926 0.7996 0.68469 0.0
O412 O 0.9513 0.74842 0.69751 0.0
C413 C 0.93317 0.80171 0.77801 0.0
O414 O 0.92717 0.76392 0.59515 0.0
O415 O 0.9657 0.81669 0.59178 0.0
Zn416 Zn 0.26301 0.16041 0.6736 0.0
O417 O 0.237 0.10627 0.67083 0.0
C418 C 0.22821 0.15527 0.57307 0.0
Zn419 Zn 0.21145 0.1532 0.68531 0.0
C420 C 0.20597 0.08854 0.681 0.0
O421 O 0.18865 0.10239 0.68916 0.0
C422 C 0.26486 0.22536 0.68413 0.0
O423 O 0.22023 0.15461 0.76745 0.0
O424 O 0.26908 0.15814 0.75325 0.0
N425 N 0.16654 0.15125 0.69828 0.0
C426 C 0.14909 0.16137 0.66825 0.0
C427 C 0.1214 0.14133 0.73895 0.0
N428 N 0.14937 0.13903 0.74239 0.0
N429 N 0.12077 0.15544 0.69287 0.0
C430 C 0.31392 0.14115 0.62288 0.0
C431 C 0.35454 0.16115 0.67709 0.0
N432 N 0.30751 0.15899 0.65908 0.0
N433 N 0.33291 0.17123 0.69271 0.0
N434 N 0.34318 0.14207 0.63338 0.0
H435 H 0.2911 0.09688 0.57455 0.0
H436 H 0.29909 0.13449 0.54199 0.0
H437 H 0.26457 0.11443 0.58658 0.0
C438 C 0.29056 0.12048 0.57949 0.0
C439 C 0.16038 0.17853 0.61602 0.0
H440 H 0.14843 0.19376 0.60758 0.0
H441 H 0.15305 0.15944 0.58452 0.0
H442 H 0.18791 0.19491 0.61537 0.0
O443 O 0.23392 0.20432 0.68361 0.0
O444 O 0.2862 0.21531 0.68061 0.0
C445 C 0.24668 0.1557 0.78479 0.0
O446 O 0.25613 0.16279 0.59375 0.0
O447 O 0.20367 0.14951 0.60253 0.0
Zn448 Zn 0.87207 0.11478 0.68039 0.0
O449 O 0.92611 0.14564 0.6674 0.0
C450 C 0.86362 0.08364 0.57727 0.0
Zn451 Zn 0.88262 0.0721 0.68372 0.0
C452 C 0.94472 0.13278 0.66194 0.0
O453 O 0.93207 0.10156 0.66542 0.0
C454 C 0.811 0.0503 0.70825 0.0
O455 O 0.89468 0.08207 0.76626 0.0
O456 O 0.88166 0.12189 0.75894 0.0
N457 N 0.88982 0.03163 0.68097 0.0
C458 C 0.87506 1.00077 0.70245 0.0
C459 C 0.90893 1.00253 0.64362 0.0
N460 N 0.91087 0.03252 0.64468 0.0
N461 N 0.88646 0.98198 0.67913 0.0
C462 C 0.8865 0.18582 0.64169 0.0
C463 C 0.86545 0.20115 0.70249 0.0
N464 N 0.8699 0.15932 0.67476 0.0
N465 N 0.85675 0.16909 0.71223 0.0
N466 N 0.88442 0.21272 0.65855 0.0
H467 H 0.93088 0.20869 0.59368 0.0
H468 H 0.89209 0.18529 0.55816 0.0
H469 H 0.90902 0.16368 0.5922 0.0
C470 C 0.90591 0.18578 0.59422 0.0
C471 C 0.84744 0.9884 0.74217 0.0
H472 H 0.85184 1.00883 0.76982 0.0
H473 H 0.84511 0.96676 0.76448 0.0
H474 H 0.82344 0.98029 0.72132 0.0
O475 O 0.83326 0.04213 0.70273 0.0
O476 O 0.81825 0.08056 0.69914 0.0
C477 C 0.89121 0.10544 0.78687 0.0
O478 O 0.8617 0.10666 0.60112 0.0
O479 O 0.87154 0.06483 0.60237 0.0
Zn480 Zn 0.21101 0.06886 0.17854 0.0
O481 O 0.21156 0.07593 0.26218 0.0
C482 C 0.26108 0.04603 0.18913 0.0
Zn483 Zn 0.26386 0.11146 0.17583 0.0
C484 C 0.23865 0.0981 0.2837 0.0
O485 O 0.26451 0.11532 0.25587 0.0
C486 C 0.23665 0.08524 0.07031 0.0
O487 O 0.2415 0.14305 0.17342 0.0
O488 O 0.19115 0.09952 0.16877 0.0
N489 N 0.31056 0.15546 0.16988 0.0
C490 C 0.31989 0.18329 0.14024 0.0
C491 C 0.35855 0.19523 0.19613 0.0
N492 N 0.33487 0.1631 0.20429 0.0
N493 N 0.34994 0.20889 0.1563 0.0
C494 C 0.14884 0.99811 0.19983 0.0
C495 C 0.11417 0.99935 0.14549 0.0
N496 N 0.16363 0.02889 0.17823 0.0
N497 N 0.14193 0.02955 0.14475 0.0
N498 N 0.11792 0.97908 0.17938 0.0
H499 H 0.1844 1.0069 0.26147 0.0
H500 H 0.14753 0.96572 0.26239 0.0
H501 H 0.17917 0.97591 0.2134 0.0
C502 C 0.16585 0.986 0.23677 0.0
C503 C 0.29894 0.1858 0.09708 0.0
H504 H 0.27331 0.16444 0.09591 0.0
H505 H 0.29793 0.20919 0.10132 0.0
H506 H 0.31037 0.18613 0.0585 0.0
O507 O 0.26227 0.10689 0.09485 0.0
O508 O 0.2113 0.06418 0.09606 0.0
C509 C 0.21013 0.1308 0.16904 0.0
O510 O 0.23049 0.03775 0.18798 0.0
O511 O 0.28362 0.07675 0.18319 0.0
Zn512 Zn 0.91995 0.15597 0.18316 0.0
O513 O 0.89345 0.10263 0.17069 0.0
C514 C 0.95227 0.15829 0.08052 0.0
Zn515 Zn 0.96566 0.15139 0.19083 0.0
C516 C 0.90776 0.08563 0.17904 0.0
O517 O 0.93871 0.10027 0.18935 0.0
C518 C 0.9819 0.22202 0.20174 0.0
O519 O 0.95852 0.14918 0.27227 0.0
O520 O 0.90994 0.14671 0.26328 0.0
N521 N 1.00866 0.15005 0.20208 0.0
C522 C 0.03696 0.16248 0.17341 0.0
C523 C 0.04376 0.13936 0.24123 0.0
N524 N 1.01304 0.13591 0.24441 0.0
N525 N 0.05929 0.15613 0.19718 0.0
C526 C 0.85049 0.13916 0.1324 0.0
C527 C 0.82795 0.15417 0.19147 0.0
N528 N 0.87369 0.15429 0.1711 0.0
N529 N 0.85935 0.16341 0.20776 0.0
N530 N 0.82163 0.13873 0.14426 0.0
H531 H 0.87448 0.11577 0.08997 0.0
H532 H 0.83092 0.09942 0.07503 0.0
H533 H 0.86156 0.13953 0.05064 0.0
C534 C 0.85478 0.12239 0.0847 0.0
C535 C 0.04348 0.1822 0.1236 0.0
H536 H 0.07074 0.1985 0.11707 0.0
H537 H 0.03293 0.16474 0.08977 0.0
H538 H 0.03152 0.19786 0.12505 0.0
O539 O 0.99308 0.20231 0.19427 0.0
O540 O 0.95016 0.21049 0.20056 0.0
C541 C 0.93147 0.14498 0.2923 0.0
O542 O 0.93102 0.16433 0.10236 0.0
O543 O 0.97073 0.15156 0.10893 0.0
Zn544 Zn 0.88249 0.81717 0.17347 0.0
O545 O 0.89066 0.82164 0.25548 0.0
C546 C 0.81115 0.76547 0.19456 0.0
Zn547 Zn 0.87508 0.76544 0.17579 0.0
C548 C 0.8919 0.79808 0.27952 0.0
O549 O 0.88573 0.77161 0.25496 0.0
C550 C 0.86838 0.78482 0.06904 0.0
O551 O 0.92883 0.79073 0.16192 0.0
O552 O 0.93311 0.84013 0.16348 0.0
N553 N 0.87481 0.71954 0.17402 0.0
C554 C 0.89394 0.71057 0.14508 0.0
C555 C 0.86506 0.67055 0.19758 0.0
N556 N 0.85678 0.6944 0.2063 0.0
N557 N 0.88834 0.67985 0.15925 0.0
C558 C 0.87571 0.8797 0.19718 0.0
C559 C 0.89334 0.90599 0.12459 0.0
N560 N 0.8853 0.86212 0.16662 0.0
N561 N 0.8962 0.8785 0.1216 0.0
N562 N 0.88031 0.90722 0.17142 0.0
H563 H 0.8451 0.84146 0.25306 0.0
H564 H 0.88067 0.87746 0.2805 0.0
H565 H 0.84462 0.88022 0.26035 0.0
C566 C 0.8604 0.86902 0.25075 0.0
C567 C 0.92079 0.73363 0.10759 0.0
H568 H 0.9445 0.74818 0.12979 0.0
H569 H 0.92583 0.72041 0.07598 0.0
H570 H 0.91398 0.75095 0.08861 0.0
O571 O 0.86463 0.76 0.09555 0.0
O572 O 0.87592 0.812 0.0921 0.0
C573 C 0.94672 0.82234 0.1599 0.0
O574 O 0.83196 0.79563 0.18425 0.0
O575 O 0.82098 0.74389 0.19477 0.0
H576 H 0.60401 0.21794 0.95796 0.0
H577 H 0.51121 0.13747 0.01794 0.0
H578 H 0.48897 0.1758 0.02604 0.0
H579 H 0.49814 0.23349 0.0221 0.0
H580 H 0.59191 0.3129 0.96337 0.0
H581 H 0.61231 0.27387 0.95089 0.0
C582 C 0.57882 0.20864 0.97267 0.0
C583 C 0.55938 0.17507 0.98795 0.0
C584 C 0.56689 0.23086 0.97892 0.0
C585 C 0.52657 0.16322 0.00576 0.0
C586 C 0.51407 0.1852 0.01097 0.0
C587 C 0.52309 0.2421 0.00693 0.0
C588 C 0.54406 0.27622 -0.00427 0.0
C589 C 0.53438 0.21927 -0.00111 0.0
C590 C 0.57602 0.28715 0.97488 0.0
C591 C 0.58742 0.26472 0.96674 0.0
H592 H 0.78758 0.2668 0.01956 0.0
H593 H 0.70788 0.28327 0.96825 0.0
H594 H 0.74726 0.34282 0.95874 0.0
H595 H 0.80384 0.38969 0.96471 0.0
H596 H 0.88438 0.37495 0.01803 0.0
H597 H 0.84544 0.31464 0.0244 0.0
C598 C 0.77898 0.28363 0.00673 0.0
C599 C 0.74476 0.27098 -0.00362 0.0
C600 C 0.80194 0.31775 0.00048 0.0
C601 C 0.73377 0.29266 0.97876 0.0
C602 C 0.75639 0.32658 0.97239 0.0
C603 C 0.81298 0.37339 0.97794 0.0
C604 C 0.84684 0.38678 0.99155 0.0
C605 C 0.79042 0.3393 0.98323 0.0
C606 C 0.85844 0.3652 0.00718 0.0
C607 C 0.83613 0.33083 0.01136 0.0
H608 H 0.63523 0.41484 0.95963 0.0
H609 H 0.64737 0.51022 0.00573 0.0
H610 H 0.70791 0.53292 0.0143 0.0
H611 H 0.75661 0.524 0.01454 0.0
H612 H 0.7429 0.42802 0.96893 0.0
H613 H 0.68326 0.40659 0.95661 0.0
C614 C 0.65105 0.44065 0.9715 0.0
C615 C 0.63683 0.46072 0.9827 0.0
C616 C 0.68532 0.45303 0.97793 0.0
C617 C 0.65777 0.49431 -0.00324 0.0
C618 C 0.69227 0.50714 0.00223 0.0
C619 C 0.74039 0.49835 0.00225 0.0
C620 C 0.75386 0.4772 -0.00522 0.0
C621 C 0.70617 0.48645 0.99409 0.0
C622 C 0.7329 0.44425 0.97765 0.0
C623 C 0.69891 0.4322 0.96957 0.0
H624 H 0.77248 0.50259 0.44851 0.0
H625 H 0.72952 0.45401 0.59584 0.0
H626 H 0.77882 0.44879 0.61415 0.0
H627 H 0.82902 0.44943 0.58066 0.0
H628 H 0.87194 0.49679 0.4325 0.0
H629 H 0.82816 0.51189 0.42204 0.0
C630 C 0.77452 0.49171 0.48519 0.0
C631 C 0.74763 0.47866 0.52087 0.0
C632 C 0.8027 0.4884 0.49484 0.0
C633 C 0.75018 0.46458 0.56832 0.0
C634 C 0.77817 0.46131 0.57844 0.0
C635 C 0.8293 0.46401 0.54694 0.0
C636 C 0.8533 0.47198 0.50722 0.0
C637 C 0.80388 0.47194 0.54101 0.0
C638 C 0.85373 0.49075 0.46361 0.0
C639 C 0.82852 0.49899 0.45746 0.0
H640 H 0.51042 0.26643 0.43561 0.0
H641 H 0.5388 0.26633 0.59757 0.0
H642 H 0.5502 0.32358 0.6083 0.0
H643 H 0.55764 0.37518 0.56869 0.0
H644 H 0.5295 0.37583 0.40704 0.0
H645 H 0.51067 0.31595 0.39943 0.0
C646 C 0.51881 0.27887 0.47339 0.0
C647 C 0.52535 0.26279 0.51503 0.0
C648 C 0.52467 0.31148 0.4794 0.0
C649 C 0.53549 0.27882 0.56409 0.0
C650 C 0.5414 0.31132 0.57049 0.0
C651 C 0.54636 0.36179 0.53237 0.0
C652 C 0.54464 0.3793 0.48848 0.0
C653 C 0.53689 0.32809 0.52802 0.0
C654 C 0.53042 0.36237 0.44134 0.0
C655 C 0.52022 0.32842 0.4369 0.0
H656 H 0.63576 0.22836 0.47668 0.0
H657 H 0.65102 0.145 0.50759 0.0
H658 H 0.71121 0.18371 0.51847 0.0
H659 H 0.75879 0.2416 0.52283 0.0
H660 H 0.74214 0.32371 0.48954 0.0
H661 H 0.68263 0.28501 0.4782 0.0
C662 C 0.65217 0.21846 0.4855 0.0
C663 C 0.63893 0.18382 0.49156 0.0
C664 C 0.68624 0.24071 0.49282 0.0
C665 C 0.66065 0.17153 0.50244 0.0
C666 C 0.69494 0.19366 0.50919 0.0
C667 C 0.74197 0.25092 0.51359 0.0
C668 C 0.7547 0.28561 0.50916 0.0
C669 C 0.70787 0.22834 0.50533 0.0
C670 C 0.73288 0.29742 0.49598 0.0
C671 C 0.69891 0.2752 0.48835 0.0
H672 H 0.17385 0.57468 0.34645 0.0
H673 H 0.27348 0.65742 0.32232 0.0
H674 H 0.29514 0.61904 0.31624 0.0
H675 H 0.28581 0.56232 0.31686 0.0
H676 H 0.18614 0.47864 0.33802 0.0
H677 H 0.1641 0.51709 0.3438 0.0
C678 C 0.20035 0.58424 0.34027 0.0
C679 C 0.2222 0.61897 0.33691 0.0
C680 C 0.21241 0.56188 0.33495 0.0
C681 C 0.25636 0.63106 0.32782 0.0
C682 C 0.26866 0.60903 0.32322 0.0
C683 C 0.25916 0.55232 0.32233 0.0
C684 C 0.23762 0.51762 0.32716 0.0
C685 C 0.24689 0.57446 0.32661 0.0
C686 C 0.20321 0.50521 0.33392 0.0
C687 C 0.19068 0.52719 0.33772 0.0
H688 H 0.50201 0.71523 0.3893 0.0
H689 H 0.5312 0.70836 0.23065 0.0
H690 H 0.49166 0.64782 0.23031 0.0
H691 H 0.4447 0.5987 0.27251 0.0
H692 H 0.41715 0.60615 0.43224 0.0
H693 H 0.4599 0.66506 0.43485 0.0
C694 C 0.50015 0.70019 0.35514 0.0
C695 C 0.51922 0.71568 0.3101 0.0
C696 C 0.47716 0.66597 0.35512 0.0
C697 C 0.51687 0.69652 0.26582 0.0
C698 C 0.49407 0.66215 0.26555 0.0
C699 C 0.44827 0.6132 0.308 0.0
C700 C 0.42673 0.59849 0.35131 0.0
C701 C 0.47342 0.64687 0.30948 0.0
C702 C 0.43203 0.6173 0.39742 0.0
C703 C 0.45688 0.65084 0.39922 0.0
H704 H 0.41919 0.84458 0.27259 0.0
H705 H 0.4148 0.79034 0.41305 0.0
H706 H 0.35887 0.78111 0.43232 0.0
H707 H 0.30826 0.78043 0.40092 0.0
H708 H 0.31136 0.83342 0.25955 0.0
H709 H 0.37106 0.85183 0.24889 0.0
C710 C 0.4062 0.83158 0.30812 0.0
C711 C 0.42095 0.81821 0.34152 0.0
C712 C 0.37384 0.82589 0.31823 0.0
C713 C 0.40413 0.80131 0.3874 0.0
C714 C 0.37203 0.7957 0.398 0.0
C715 C 0.32235 0.7968 0.3686 0.0
C716 C 0.30574 0.80545 0.33076 0.0
C717 C 0.35622 0.80674 0.36258 0.0
C718 C 0.3239 0.8267 0.28915 0.0
C719 C 0.35785 0.83689 0.28289 0.0
H720 H 0.51967 0.81211 0.88799 0.0
H721 H 0.53139 0.82149 0.71955 0.0
H722 H 0.48562 0.8339 0.7135 0.0
H723 H 0.43482 0.82885 0.75452 0.0
H724 H 0.41981 0.81274 0.92163 0.0
H725 H 0.47451 0.81674 0.9307 0.0
C726 C 0.51313 0.81851 0.85037 0.0
C727 C 0.52877 0.81633 0.8043 0.0
C728 C 0.48572 0.82365 0.84717 0.0
C729 C 0.51993 0.82375 0.75544 0.0
C730 C 0.49344 0.83025 0.75202 0.0
C731 C 0.44423 0.82736 0.79299 0.0
C732 C 0.42375 0.82087 0.83746 0.0
C733 C 0.47498 0.82828 0.79729 0.0
C734 C 0.43562 0.81854 0.88723 0.0
C735 C 0.46666 0.8204 0.8922 0.0
H736 H 0.18253 0.60442 0.90152 0.0
H737 H 0.23916 0.60232 0.76836 0.0
H738 H 0.24525 0.65496 0.73615 0.0
H739 H 0.24323 0.70589 0.75559 0.0
H740 H 0.18711 0.70887 0.88902 0.0
H741 H 0.17077 0.65104 0.91082 0.0
C742 C 0.19541 0.6153 0.86484 0.0
C743 C 0.21064 0.6001 0.83732 0.0
C744 C 0.19879 0.64553 0.84683 0.0
C745 C 0.22721 0.61384 0.78972 0.0
C746 C 0.23079 0.6439 0.77156 0.0
C747 C 0.22627 0.69327 0.78809 0.0
C748 C 0.21645 0.71126 0.82092 0.0
C749 C 0.21784 0.66057 0.80096 0.0
C750 C 0.19461 0.69513 0.86304 0.0
C751 C 0.18577 0.66232 0.87596 0.0
H752 H 0.32095 0.53103 0.92114 0.0
H753 H 0.31714 0.48675 0.76997 0.0
H754 H 0.37493 0.53059 0.75205 0.0
H755 H 0.42193 0.58697 0.77341 0.0
H756 H 0.42342 0.63193 0.92296 0.0
H757 H 0.37131 0.58222 0.94829 0.0
C758 C 0.33331 0.53042 0.88509 0.0
C759 C 0.31516 0.50607 0.84674 0.0
C760 C 0.36583 0.55612 0.87466 0.0
C761 C 0.33098 0.50521 0.80011 0.0
C762 C 0.36377 0.53052 0.78967 0.0
C763 C 0.41108 0.58535 0.81196 0.0
C764 C 0.42634 0.61286 0.84642 0.0
C765 C 0.38075 0.55695 0.82562 0.0
C766 C 0.41236 0.61082 0.8963 0.0
C767 C 0.38243 0.58255 0.91051 0.0
H768 H 0.86743 0.93468 0.60538 0.0
H769 H 0.88982 0.95426 0.77059 0.0
H770 H 0.88939 0.90131 0.78025 0.0
H771 H 0.89345 0.85559 0.73787 0.0
H772 H 0.8755 0.8381 0.57128 0.0
H773 H 0.86258 0.88353 0.56553 0.0
C774 C 0.87113 0.92665 0.64369 0.0
C775 C 0.87824 0.94796 0.68741 0.0
C776 C 0.87188 0.89672 0.64833 0.0
C777 C 0.88348 0.93782 0.73685 0.0
C778 C 0.88366 0.90778 0.74211 0.0
C779 C 0.88526 0.8609 0.70082 0.0
C780 C 0.88492 0.84349 0.65513 0.0
C781 C 0.87926 0.88778 0.6977 0.0
C782 C 0.87518 0.85083 0.60698 0.0
C783 C 0.86832 0.8771 0.60368 0.0
H784 H 0.16332 0.04925 0.75475 0.0
H785 H 0.2099 0.04681 0.60897 0.0
H786 H 0.16889 0.98725 0.5985 0.0
H787 H 0.11352 0.93994 0.62254 0.0
H788 H 0.06626 0.94391 0.76649 0.0
H789 H 0.11417 0.99867 0.78712 0.0
C790 C 0.165 0.03529 0.72157 0.0
C791 C 0.18897 0.05203 0.68222 0.0
C792 C 0.14106 1.00157 0.71547 0.0
C793 C 0.19149 0.0341 0.63959 0.0
C794 C 0.16789 1.00025 0.63344 0.0
C795 C 0.11441 0.95253 0.65912 0.0
C796 C 0.08664 0.93828 0.69297 0.0
C797 C 0.14161 0.98428 0.6698 0.0
C798 C 0.08763 0.95439 0.74036 0.0
C799 C 0.1148 0.9858 0.75175 0.0
H800 H 0.9852 0.12518 0.59474 0.0
H801 H 0.9855 0.18252 0.72887 0.0
H802 H 0.04347 0.19786 0.74854 0.0
H803 H 0.08977 0.18558 0.7367 0.0
H804 H 0.08846 0.12768 0.60274 0.0
H805 H 0.03529 0.12187 0.57341 0.0
C806 C 0.99857 0.14226 0.62686 0.0
C807 C 0.98138 0.1528 0.66032 0.0
C808 C 0.03137 0.15005 0.63863 0.0
C809 C 0.99854 0.17459 0.70217 0.0
C810 C 0.03145 0.18281 0.71395 0.0
C811 C 0.07801 0.17239 0.70054 0.0
C812 C 0.09264 0.15693 0.67187 0.0
C813 C 0.04744 0.16922 0.68402 0.0
C814 C 0.07758 0.13993 0.62498 0.0
C815 C 0.04719 0.1365 0.60842 0.0
H816 H 0.1663 0.12948 0.09903 0.0
H817 H 0.21721 0.176 0.24362 0.0
H818 H 0.17543 0.19259 0.26286 0.0
H819 H 0.11835 0.18312 0.24651 0.0
H820 H 0.06746 0.13528 0.1026 0.0
H821 H 0.11532 0.13016 0.07431 0.0
C822 C 0.16891 0.14452 0.13355 0.0
C823 C 0.19442 0.15156 0.17 0.0
C824 C 0.1444 0.15302 0.14482 0.0
C825 C 0.19782 0.17076 0.21486 0.0
C826 C 0.17366 0.17973 0.2262 0.0
C827 C 0.11839 0.17246 0.20843 0.0
C828 C 0.08971 0.15949 0.1766 0.0
C829 C 0.1459 0.16935 0.19282 0.0
C830 C 0.08956 0.14569 0.12725 0.0
C831 C 0.11677 0.14256 0.11133 0.0
H832 H 0.85286 0.93706 0.11777 0.0
H833 H 0.90203 0.93999 0.26359 0.0
H834 H 0.90935 0.99498 0.28372 0.0
H835 H 0.91123 0.04577 0.2514 0.0
H836 H 0.86418 0.04449 0.10404 0.0
H837 H 0.84592 0.98498 0.09276 0.0
C838 C 0.86426 0.94951 0.15458 0.0
C839 C 0.87693 0.9348 0.18924 0.0
C840 C 0.86913 0.98142 0.16499 0.0
C841 C 0.89168 0.95075 0.23689 0.0
C842 C 0.89623 0.98231 0.248 0.0
C843 C 0.89621 0.0321 0.21753 0.0
C844 C 0.88937 0.04911 0.17811 0.0
C845 C 0.88644 0.99841 0.21116 0.0
C846 C 0.86963 0.03156 0.13466 0.0
C847 C 0.85949 0.99775 0.12811 0.0
H848 H 0.09034 0.93139 0.10648 0.0
H849 H 0.089 0.9513 0.27183 0.0
H850 H 0.03733 0.89772 0.28289 0.0
H851 H 0.98738 0.85165 0.24144 0.0
H852 H 0.98658 0.83391 0.07473 0.0
H853 H 0.0446 0.87961 0.06779 0.0
C854 C 0.07915 0.92326 0.14511 0.0
C855 C 0.09327 0.94484 0.18842 0.0
C856 C 0.04902 0.89299 0.15054 0.0
C857 C 0.07874 0.93464 0.23835 0.0
C858 C 0.04906 0.90425 0.24443 0.0
C859 C 1.00059 0.85695 0.20415 0.0
C860 C 0.98327 0.83952 0.1587 0.0
C861 C 0.03326 0.88401 0.20034 0.0
C862 C 0.9999 0.84677 0.1102 0.0
C863 C 0.03282 0.87317 0.10622 0.0
H864 H 0.57496 0.1654 0.34202 0.0
H865 H 0.49185 0.06473 0.33336 0.0
H866 H 0.50861 0.05869 0.24446 0.0
H867 H 0.54839 0.08059 0.1722 0.0
H868 H 0.63325 0.18049 0.18039 0.0
H869 H 0.61481 0.18803 0.26746 0.0
C870 C 0.56001 0.14255 0.31986 0.0
C871 C 0.53173 0.11576 0.34343 0.0
C872 C 0.57069 0.13881 0.26965 0.0
C873 C 0.51325 0.08583 0.31539 0.0
C874 C 0.5231 0.08226 0.26496 0.0
C875 C 0.56307 0.10407 0.1929 0.0
C876 C 0.59235 0.12989 0.16979 0.0
C877 C 0.55213 0.1083 0.24227 0.0
C878 C 0.61086 0.16008 0.19743 0.0
C879 C 0.60013 0.16449 0.24698 0.0
H880 H 0.86052 0.4216 0.34917 0.0
H881 H 0.95534 0.42512 0.33483 0.0
H882 H 0.9606 0.44443 0.24387 0.0
H883 H 0.94055 0.46418 0.17182 0.0
H884 H 0.84685 0.46341 0.18538 0.0
H885 H 0.83909 0.43977 0.27417 0.0
C886 C 0.88175 0.42565 0.32536 0.0
C887 C 0.90725 0.4214 0.3478 0.0
C888 C 0.88525 0.43814 0.2739 0.0
C889 C 0.93526 0.42776 0.31767 0.0
C890 C 0.93843 0.43914 0.26606 0.0
C891 C 0.9184 0.45901 0.19405 0.0
C892 C 0.89447 0.4659 0.17217 0.0
C893 C 0.91402 0.44524 0.24439 0.0
C894 C 0.86583 0.45869 0.20156 0.0
C895 C 0.86127 0.44494 0.2521 0.0
H896 H 0.6082 0.44415 0.3415 0.0
H897 H 0.59475 0.53001 0.33469 0.0
H898 H 0.57474 0.51609 0.24379 0.0
H899 H 0.55766 0.47765 0.16922 0.0
H900 H 0.56792 0.38978 0.17702 0.0
H901 H 0.59198 0.40597 0.26548 0.0
C902 C 0.60174 0.46028 0.31953 0.0
C903 C 0.60346 0.4884 0.34417 0.0
C904 C 0.58887 0.45125 0.26826 0.0
C905 C 0.59403 0.50854 0.31607 0.0
C906 C 0.58229 0.50037 0.26443 0.0
C907 C 0.56507 0.4619 0.19016 0.0
C908 C 0.56078 0.4324 0.16661 0.0
C909 C 0.57889 0.47139 0.24067 0.0
C910 C 0.57063 0.41243 0.19442 0.0
C911 C 0.58463 0.42182 0.2448 0.0
H912 H 0.95134 0.48391 0.84737 0.0
H913 H 0.86356 0.49415 0.83369 0.0
H914 H 0.85305 0.46963 0.74533 0.0
H915 H 0.86812 0.44362 0.67296 0.0
H916 H 0.95572 0.43361 0.68829 0.0
H917 H 0.96621 0.45834 0.77649 0.0
C918 C 0.93011 0.48125 0.82497 0.0
C919 C 0.9083 0.49092 0.84715 0.0
C920 C 0.92355 0.46605 0.77535 0.0
C921 C 0.8809 0.48716 0.81738 0.0
C922 C 0.87461 0.47271 0.76718 0.0
C923 C 0.88889 0.44608 0.69651 0.0
C924 C 0.91064 0.43607 0.67551 0.0
C925 C 0.89538 0.46142 0.74627 0.0
C926 C 0.93831 0.44047 0.70481 0.0
C927 C 0.94454 0.45502 0.75467 0.0
H928 H 0.54265 0.46175 0.66884 0.0
H929 H 0.62549 0.4433 0.67983 0.0
H930 H 0.60642 0.41876 0.76733 0.0
H931 H 0.56738 0.40472 0.84183 0.0
H932 H 0.4871 0.42683 0.83197 0.0
H933 H 0.50336 0.44683 0.7416 0.0
C934 C 0.55669 0.45246 0.69026 0.0
C935 C 0.58562 0.45456 0.66793 0.0
C936 C 0.54558 0.43841 0.74015 0.0
C937 C 0.60336 0.4423 0.69634 0.0
C938 C 0.5923 0.42802 0.74613 0.0
C939 C 0.55287 0.41296 0.81915 0.0
C940 C 0.52561 0.41364 0.84269 0.0
C941 C 0.56344 0.42596 0.76837 0.0
C942 C 0.50772 0.42552 0.81397 0.0
C943 C 0.51729 0.43732 0.76273 0.0
H944 H 0.61097 0.16305 0.84368 0.0
H945 H 0.59009 0.06125 0.83272 0.0
H946 H 0.56802 0.05687 0.74361 0.0
H947 H 0.55222 0.08075 0.67144 0.0
H948 H 0.57044 0.18178 0.68183 0.0
H949 H 0.59518 0.18745 0.76964 0.0
C950 C 0.60243 0.14027 0.82106 0.0
C951 C 0.60288 0.11271 0.844 0.0
C952 C 0.58845 0.13752 0.7707 0.0
C953 C 0.59057 0.0829 0.81531 0.0
C954 C 0.57762 0.0803 0.76473 0.0
C955 C 0.56148 0.1041 0.69277 0.0
C956 C 0.55937 0.13082 0.67002 0.0
C957 C 0.57589 0.10722 0.74253 0.0
C958 C 0.57142 0.16073 0.69857 0.0
C959 C 0.58587 0.16406 0.74851 0.0
H960 H 0.21425 0.42848 0.51384 0.0
H961 H 0.3114 0.51695 0.52804 0.0
H962 H 0.29773 0.52549 0.61814 0.0
H963 H 0.25904 0.50547 0.69452 0.0
H964 H 0.16367 0.41521 0.67944 0.0
H965 H 0.1754 0.41017 0.58703 0.0
C966 C 0.23259 0.44974 0.53639 0.0
C967 C 0.26399 0.47187 0.51434 0.0
C968 C 0.22459 0.45438 0.58767 0.0
C969 C 0.28718 0.49936 0.54424 0.0
C970 C 0.27929 0.50433 0.59561 0.0
C971 C 0.24053 0.48532 0.67034 0.0
C972 C 0.2103 0.461 0.69306 0.0
C973 C 0.24813 0.48182 0.61785 0.0
C974 C 0.18686 0.43436 0.66225 0.0
C975 C 0.19371 0.43133 0.60973 0.0
H976 H 0.60741 0.79942 0.4873 0.0
H977 H 0.50619 0.78125 0.49737 0.0
H978 H 0.50115 0.75841 0.58613 0.0
H979 H 0.52641 0.74571 0.66142 0.0
H980 H 0.62865 0.76715 0.65223 0.0
H981 H 0.63205 0.78569 0.561 0.0
C982 C 0.58416 0.7905 0.50875 0.0
C983 C 0.55723 0.79218 0.48589 0.0
C984 C 0.58148 0.77745 0.55926 0.0
C985 C 0.52737 0.78052 0.51433 0.0
C986 C 0.5244 0.76723 0.56482 0.0
C987 C 0.54914 0.75361 0.63892 0.0
C988 C 0.57715 0.75466 0.66291 0.0
C989 C 0.55133 0.76562 0.58759 0.0
C990 C 0.60675 0.76583 0.6341 0.0
C991 C 0.60876 0.77671 0.58231 0.0
H992 H 0.23646 0.82724 0.66533 0.0
H993 H 0.31476 0.80199 0.66268 0.0
H994 H 0.29666 0.77717 0.5752 0.0
H995 H 0.2562 0.75971 0.50149 0.0
H996 H 0.17672 0.78313 0.50763 0.0
H997 H 0.19625 0.80964 0.59359 0.0
C998 C 0.2496 0.81633 0.64571 0.0
C999 C 0.2765 0.816 0.67089 0.0
C1000 C 0.23801 0.8006 0.59698 0.0
C1001 C 0.29393 0.80265 0.64415 0.0
C1002 C 0.28327 0.78794 0.5945 0.0
C1003 C 0.24278 0.76987 0.5225 0.0
C1004 C 0.21477 0.76901 0.49923 0.0
C1005 C 0.25473 0.78591 0.57124 0.0
C1006 C 0.19807 0.78317 0.52558 0.0
C1007 C 0.20947 0.79869 0.57422 0.0
H1008 H 0.61069 0.8173 0.98912 0.0
H1009 H 0.51026 0.73293 0.99418 0.0
H1010 H 0.50257 0.74965 0.08217 0.0
H1011 H 0.52539 0.78668 0.15884 0.0
H1012 H 0.62703 0.86847 0.1558 0.0
H1013 H 0.63295 0.85494 0.06457 0.0
C1014 C 0.5871 0.80246 0.00942 0.0
C1015 C 0.56116 0.77376 0.98534 0.0
C1016 C 0.58291 0.81215 0.05976 0.0
C1017 C 0.53073 0.75493 0.01212 0.0
C1018 C 0.52623 0.76462 0.0622 0.0
C1019 C 0.54848 0.8021 0.13759 0.0
C1020 C 0.5756 0.82884 0.16328 0.0
C1021 C 0.55219 0.79312 0.08637 0.0
C1022 C 0.60576 0.84806 0.1362 0.0
C1023 C 0.60923 0.84009 0.08445 0.0
H1024 H 0.2137 0.79484 -0.00448 0.0
H1025 H 0.3013 0.78434 0.00982 0.0
H1026 H 0.284 0.76168 0.09878 0.0
H1027 H 0.24497 0.74718 0.17366 0.0
H1028 H 0.15915 0.76041 0.15901 0.0
H1029 H 0.17422 0.77873 0.06784 0.0
C1030 C 0.22921 0.78777 0.018 0.0
C1031 C 0.25895 0.79161 -0.00374 0.0
C1032 C 0.21901 0.77462 0.06853 0.0
C1033 C 0.27846 0.78195 0.02589 0.0
C1034 C 0.26845 0.76877 0.07654 0.0
C1035 C 0.22913 0.75316 0.14982 0.0
C1036 C 0.20074 0.75201 0.17227 0.0
C1037 C 0.23878 0.76504 0.09825 0.0
C1038 C 0.18086 0.76076 0.14194 0.0
C1039 C 0.18967 0.77156 0.09019 0.0
H1040 H 0.22531 0.40815 0.02044 0.0
H1041 H 0.2393 0.50768 0.03147 0.0
H1042 H 0.26529 0.51493 0.11778 0.0
H1043 H 0.28314 0.49286 0.19068 0.0
H1044 H 0.26497 0.39196 0.18394 0.0
H1045 H 0.24252 0.38568 0.09436 0.0
C1046 C 0.2338 0.43134 0.04189 0.0
C1047 C 0.23024 0.45728 0.01954 0.0
C1048 C 0.24875 0.43538 0.09156 0.0
C1049 C 0.24142 0.48717 0.04788 0.0
C1050 C 0.25662 0.4915 0.09703 0.0
C1051 C 0.27522 0.46988 0.16884 0.0
C1052 C 0.27661 0.44323 0.19278 0.0
C1053 C 0.26062 0.4659 0.11901 0.0
C1054 C 0.2649 0.41303 0.16537 0.0
C1055 C 0.25164 0.40932 0.11465 0.0
H1056 H 0.88416 0.75367 0.83598 0.0
H1057 H 0.96341 0.85665 0.8422 0.0
H1058 H 0.94657 0.86162 0.9317 0.0
H1059 H 0.9108 0.83583 0.00854 0.0
H1060 H 0.83427 0.73191 0.00352 0.0
H1061 H 0.84787 0.72841 0.91139 0.0
C1062 C 0.89782 0.77727 0.85679 0.0
C1063 C 0.92505 0.80474 0.83281 0.0
C1064 C 0.88807 0.77988 0.90766 0.0
C1065 C 0.94254 0.83509 0.86023 0.0
C1066 C 0.93276 0.83801 0.91106 0.0
C1067 C 0.89655 0.81269 0.98673 0.0
C1068 C 0.87133 0.78423 0.01194 0.0
C1069 C 0.9056 0.81052 0.93505 0.0
C1070 C 0.85355 0.7541 0.98423 0.0
C1071 C 0.86154 0.75206 0.932 0.0
H1072 H 0.19802 0.1088 0.84441 0.0
H1073 H 0.30213 0.18498 0.84557 0.0
H1074 H 0.30916 0.16666 0.93267 0.0
H1075 H 0.28579 0.12904 0.00712 0.0
H1076 H 0.18162 0.05239 0.00679 0.0
H1077 H 0.17487 0.06971 0.91879 0.0
C1078 C 0.22199 0.12175 0.86447 0.0
C1079 C 0.24938 0.14859 0.83988 0.0
C1080 C 0.22606 0.11029 0.91336 0.0
C1081 C 0.28068 0.16461 0.86477 0.0
C1082 C 0.28477 0.1539 0.914 0.0
C1083 C 0.26166 0.11579 0.98764 0.0
C1084 C 0.23419 0.08967 0.01351 0.0
C1085 C 0.25771 0.12658 0.93828 0.0
C1086 C 0.2032 0.07253 0.98752 0.0
C1087 C 0.19919 0.08272 0.93762 0.0
H1088 H 0.93649 0.10073 0.85083 0.0
H1089 H 0.86375 0.1336 0.84627 0.0
H1090 H 0.88041 0.15769 0.93364 0.0
H1091 H 0.91504 0.16948 0.01094 0.0
H1092 H 0.98483 0.13326 0.02166 0.0
H1093 H 0.97143 0.11224 0.93116 0.0
C1094 C 0.92407 0.11273 0.86949 0.0
C1095 C 0.89895 0.11535 0.84235 0.0
C1096 C 0.9339 0.12683 0.92004 0.0
C1097 C 0.88326 0.13136 0.86644 0.0
C1098 C 0.89288 0.14537 0.91622 0.0
C1099 C 0.92739 0.15701 0.9936 0.0
C1100 C 0.95044 0.15251 0.0232 0.0
C1101 C 0.91827 0.14345 0.94313 0.0
C1102 C 0.96692 0.13711 -0.00039 0.0
C1103 C 0.95894 0.12464 0.94815 0.0
H1104 H 0.18752 0.09059 0.34721 0.0
H1105 H 0.294 0.12776 0.34387 0.0
H1106 H 0.30027 0.15343 0.42974 0.0
H1107 H 0.27645 0.16656 0.50389 0.0
H1108 H 0.16968 0.1252 0.51541 0.0
H1109 H 0.16274 0.10173 0.42638 0.0
C1110 C 0.21189 0.10372 0.36594 0.0
C1111 C 0.24026 0.10732 0.33939 0.0
C1112 C 0.21544 0.11866 0.4156 0.0
C1113 C 0.27182 0.12474 0.36358 0.0
C1114 C 0.27552 0.1397 0.4124 0.0
C1115 C 0.25155 0.15233 0.48721 0.0
C1116 C 0.22363 0.14727 0.51642 0.0
C1117 C 0.24763 0.13721 0.43825 0.0
C1118 C 0.19166 0.12956 0.49354 0.0
C1119 C 0.18764 0.1157 0.44306 0.0
H1120 H 0.8748 0.13025 0.34533 0.0
H1121 H 0.96897 0.13195 0.36074 0.0
H1122 H 0.95255 0.10631 0.44739 0.0
H1123 H 0.91283 0.08593 0.52013 0.0
H1124 H 0.82131 0.0892 0.50912 0.0
H1125 H 0.83455 0.10899 0.41795 0.0
C1126 C 0.89183 0.12522 0.36778 0.0
C1127 C 0.92311 0.13319 0.34685 0.0
C1128 C 0.88228 0.11049 0.41752 0.0
C1129 C 0.94485 0.12637 0.37624 0.0
C1130 C 0.93538 0.11138 0.42552 0.0
C1131 C 0.89529 0.08986 0.49694 0.0
C1132 C 0.86585 0.08547 0.52009 0.0
C1133 C 0.90418 0.10332 0.44642 0.0
C1134 C 0.84377 0.09182 0.49103 0.0
C1135 C 0.85161 0.10361 0.4395 0.0
H1136 H 0.89772 0.75271 0.33806 0.0
H1137 H 0.9141 0.85333 0.34247 0.0
H1138 H 0.93826 0.86106 0.4307 0.0
H1139 H 0.95224 0.83821 0.50729 0.0
H1140 H 0.93253 0.73657 0.50415 0.0
H1141 H 0.91322 0.73061 0.41289 0.0
C1142 C 0.90647 0.77637 0.35823 0.0
C1143 C 0.90393 0.80235 0.33405 0.0
C1144 C 0.92037 0.78064 0.40835 0.0
C1145 C 0.91549 0.83284 0.36063 0.0
C1146 C 0.92956 0.83737 0.41074 0.0
C1147 C 0.94465 0.81512 0.48599 0.0
C1148 C 0.94411 0.78795 0.51158 0.0
C1149 C 0.93207 0.81141 0.43487 0.0
C1150 C 0.93342 0.75782 0.48452 0.0
C1151 C 0.92204 0.75432 0.43283 0.0
H1152 H 0.33322 0.90817 0.95192 0.0
H1153 H 0.36579 0.92979 0.79073 0.0
H1154 H 0.42143 0.97286 0.81963 0.0
H1155 H 0.46316 0.99747 0.89122 0.0
H1156 H 0.43082 0.97626 0.0527 0.0
H1157 H 0.37318 0.93915 0.02365 0.0
C1158 C 0.35199 0.92362 0.92318 0.0
C1159 C 0.34498 0.91657 0.86913 0.0
C1160 C 0.38443 0.9475 0.94034 0.0
C1161 C 0.37015 0.93558 0.83239 0.0
C1162 C 0.40223 0.95973 0.84902 0.0
C1163 C 0.4433 0.98599 0.92006 0.0
C1164 C 0.45126 0.99045 0.97423 0.0
C1165 C 0.41004 0.965 0.90295 0.0
C1166 C 0.42534 0.97351 0.01089 0.0
C1167 C 0.39235 0.95238 0.99426 0.0
H1168 H 0.0255 0.45996 0.89644 0.0
H1169 H 0.04494 0.45213 0.06026 0.0
H1170 H 0.08199 0.43058 0.03583 0.0
H1171 H 0.11417 0.42048 0.96754 0.0
H1172 H 0.09522 0.42891 0.80391 0.0
H1173 H 0.05143 0.44165 0.82819 0.0
C1174 C 0.03661 0.45215 0.92683 0.0
C1175 C 0.0317 0.45701 0.98036 0.0
C1176 C 0.05789 0.4395 0.91235 0.0
C1177 C 0.04805 0.44846 0.01893 0.0
C1178 C 0.06921 0.43604 0.00492 0.0
C1179 C 0.09915 0.42326 0.93723 0.0
C1180 C 0.10724 0.42249 0.88383 0.0
C1181 C 0.07488 0.43204 0.95173 0.0
C1182 C 0.0887 0.42803 0.84514 0.0
C1183 C 0.06411 0.43608 0.85913 0.0
H1184 H 0.56568 0.64846 0.81617 0.0
H1185 H 0.6323 0.71416 0.9359 0.0
H1186 H 0.62557 0.66562 0.98597 0.0
H1187 H 0.59499 0.60362 0.00027 0.0
H1188 H 0.52721 0.53952 0.88023 0.0
H1189 H 0.53963 0.58803 0.82615 0.0
C1190 C 0.57956 0.65227 0.85251 0.0
C1191 C 0.5997 0.68501 0.87198 0.0
C1192 C 0.57459 0.6243 0.8817 0.0
C1193 C 0.61721 0.68939 0.91938 0.0
C1194 C 0.61282 0.66153 0.94849 0.0
C1195 C 0.58324 0.60046 0.96207 0.0
C1196 C 0.56035 0.56793 0.94404 0.0
C1197 C 0.59064 0.62877 0.93091 0.0
C1198 C 0.54524 0.56413 0.89453 0.0
C1199 C 0.55229 0.59191 0.86368 0.0
H1200 H 0.02304 0.56813 0.38424 0.0
H1201 H 0.04668 0.59874 0.54631 0.0
H1202 H 0.07955 0.65718 0.51896 0.0
H1203 H 0.10718 0.69858 0.44809 0.0
H1204 H 0.08344 0.6679 0.28629 0.0
H1205 H 0.04309 0.61111 0.31422 0.0
C1206 C 0.03396 0.58764 0.41377 0.0
C1207 C 0.03159 0.57893 0.46756 0.0
C1208 C 0.05252 0.62142 0.39767 0.0
C1209 C 0.04791 0.60468 0.50482 0.0
C1210 C 0.0666 0.63816 0.48916 0.0
C1211 C 0.09167 0.67994 0.4191 0.0
C1212 C 0.09764 0.68788 0.3651 0.0
C1213 C 0.06963 0.64683 0.43561 0.0
C1214 C 0.07852 0.66288 0.32802 0.0
C1215 C 0.05602 0.63011 0.34405 0.0
H1216 H 0.42596 0.4442 0.52984 0.0
H1217 H 0.47665 0.47059 0.38028 0.0
H1218 H 0.42306 0.44446 0.33392 0.0
H1219 H 0.36274 0.42264 0.33614 0.0
H1220 H 0.31103 0.39973 0.48452 0.0
H1221 H 0.36318 0.41405 0.53097 0.0
C1222 C 0.42504 0.44355 0.48715 0.0
C1223 C 0.45522 0.45964 0.45836 0.0
C1224 C 0.39379 0.42869 0.46056 0.0
C1225 C 0.45377 0.45873 0.40307 0.0
C1226 C 0.42313 0.44366 0.37661 0.0
C1227 C 0.36253 0.41902 0.37843 0.0
C1228 C 0.33282 0.40962 0.40662 0.0
C1229 C 0.39303 0.42949 0.40488 0.0
C1230 C 0.33319 0.40598 0.4616 0.0
C1231 C 0.36335 0.41512 0.4883 0.0
H1232 H 0.56962 0.92474 0.31542 0.0
H1233 H 0.63154 0.91969 0.43796 0.0
H1234 H 0.62602 0.962 0.48897 0.0
H1235 H 0.59699 0.99503 0.50335 0.0
H1236 H 0.53305 0.99654 0.38089 0.0
H1237 H 0.54543 0.96082 0.32562 0.0
C1238 C 0.58286 0.93371 0.35256 0.0
C1239 C 0.60121 0.91925 0.37261 0.0
C1240 C 0.57835 0.95682 0.38235 0.0
C1241 C 0.61787 0.93086 0.42104 0.0
C1242 C 0.61411 0.95459 0.45068 0.0
C1243 C 0.5861 0.98767 0.46437 0.0
C1244 C 0.56435 0.99871 0.44596 0.0
C1245 C 0.59333 0.9668 0.43262 0.0
C1246 C 0.5503 0.98895 0.39546 0.0
C1247 C 0.5573 0.96841 0.36393 0.0
H1248 H 0.08754 0.33275 0.35004 0.0
H1249 H 0.15242 0.32966 0.23079 0.0
H1250 H 0.10432 0.29459 0.17529 0.0
H1251 H 0.04401 0.25986 0.16446 0.0
H1252 H 0.97745 0.25803 0.28496 0.0
H1253 H 0.02548 0.30081 0.33495 0.0
C1254 C 0.09098 0.32456 0.31169 0.0
C1255 C 0.12369 0.3343 0.29425 0.0
C1256 C 0.06282 0.30383 0.27988 0.0
C1257 C 0.12776 0.32332 0.24459 0.0
C1258 C 0.10018 0.30309 0.2129 0.0
C1259 C 0.03987 0.26974 0.20076 0.0
C1260 C 1.00706 0.25595 0.22057 0.0
C1261 C 0.06763 0.29281 0.2304 0.0
C1262 C 1.00224 0.26868 0.26807 0.0
C1263 C 0.02987 0.29262 0.29726 0.0
H1264 H 0.69853 0.76605 0.33321 0.0
H1265 H 0.70535 0.83255 0.20882 0.0
H1266 H 0.74208 0.81877 0.15883 0.0
H1267 H 0.77614 0.79204 0.15371 0.0
H1268 H 0.77332 0.72784 0.27887 0.0
H1269 H 0.73027 0.73518 0.3243 0.0
C1270 C 0.708 0.77727 0.29502 0.0
C1271 C 0.69895 0.80013 0.27447 0.0
C1272 C 0.72941 0.7692 0.26633 0.0
C1273 C 0.71143 0.81455 0.22501 0.0
C1274 C 0.73249 0.80669 0.19648 0.0
C1275 C 0.7653 0.77871 0.19014 0.0
C1276 C 0.77772 0.75908 0.21249 0.0
C1277 C 0.74192 0.78438 0.21695 0.0
C1278 C 0.76373 0.74241 0.26008 0.0
C1279 C 0.7396 0.74724 0.28659 0.0
H1280 H 0.2257 0.89923 0.21396 0.0
H1281 H 0.2329 0.92619 0.37791 0.0
H1282 H 0.25674 0.98503 0.35395 0.0
H1283 H 0.26937 0.02773 0.28588 0.0
H1284 H 0.26189 1.00083 0.12208 0.0
H1285 H 0.24656 0.94362 0.14614 0.0
C1286 C 0.23389 0.91811 0.2445 0.0
C1287 C 0.22822 0.9083 0.29786 0.0
C1288 C 0.248 0.95209 0.23032 0.0
C1289 C 0.23717 0.93308 0.33669 0.0
C1290 C 0.25094 0.96675 0.32298 0.0
C1291 C 0.26624 1.00979 0.25557 0.0
C1292 C 0.26796 0.01888 0.20222 0.0
C1293 C 0.25595 0.97652 0.26988 0.0
C1294 C 0.26203 0.99485 0.16332 0.0
C1295 C 0.25248 0.96189 0.17717 0.0
H1296 H 0.80489 0.01929 0.799 0.0
H1297 H 0.74687 0.02025 0.66693 0.0
H1298 H 0.70088 0.96475 0.69241 0.0
H1299 H 0.6813 0.91215 0.74483 0.0
H1300 H 0.74417 0.91051 0.8688 0.0
H1301 H 0.78438 0.96963 0.85389 0.0
C1302 C 0.78167 1.0078 0.77678 0.0
C1303 C 0.7791 0.02413 0.73163 0.0
C1304 C 0.75661 0.97521 0.78963 0.0
C1305 C 0.74918 1.0087 0.70259 0.0
C1306 C 0.72318 0.97663 0.71667 0.0
C1307 C 0.70349 0.92513 0.76913 0.0
C1308 C 0.70979 0.90718 0.80827 0.0
C1309 C 0.72717 0.95906 0.75892 0.0
C1310 C 0.7389 0.92391 0.83881 0.0
C1311 C 0.76181 0.95766 0.83023 0.0
H1312 H 0.04413 0.79332 0.65669 0.0
H1313 H 0.98173 0.73415 0.78494 0.0
H1314 H 0.03143 0.74149 0.83255 0.0
H1315 H 0.09396 0.7711 0.84183 0.0
H1316 H 0.15481 0.8319 0.71352 0.0
H1317 H 0.10474 0.81821 0.66216 0.0
C1318 C 0.04126 0.78105 0.69434 0.0
C1319 C 1.00917 0.76288 0.71691 0.0
C1320 C 0.06996 0.78663 0.72215 0.0
C1321 C 1.00595 0.74756 0.76605 0.0
C1322 C 0.03452 0.7524 0.79374 0.0
C1323 C 0.09601 0.78113 0.80255 0.0
C1324 C 0.12802 0.80249 0.78129 0.0
C1325 C 0.06681 0.77297 0.77302 0.0
C1326 C 0.1305 0.81522 0.73031 0.0
C1327 C 0.10187 0.80739 0.70101 0.0
H1328 H 0.27937 0.2536 0.78029 0.0
H1329 H 0.26257 0.27069 0.61946 0.0
H1330 H 0.24723 0.31184 0.64832 0.0
H1331 H 0.22835 0.33464 0.72049 0.0
H1332 H 0.24425 0.31682 0.8816 0.0
H1333 H 0.26885 0.28333 0.85194 0.0
C1334 C 0.27429 0.26783 0.75144 0.0
C1335 C 0.27322 0.25982 0.69758 0.0
C1336 C 0.26372 0.29018 0.76873 0.0
C1337 C 0.26483 0.27724 0.66088 0.0
C1338 C 0.2552 0.30019 0.67757 0.0
C1339 C 0.23855 0.32472 0.74905 0.0
C1340 C 0.23508 0.32892 0.80335 0.0
C1341 C 0.25306 0.30571 0.73155 0.0
C1342 C 0.2467 0.31407 0.83971 0.0
C1343 C 0.26094 0.29507 0.82272 0.0
H1344 H 0.7112 0.58264 0.49586 0.0
H1345 H 0.64665 0.58676 0.61464 0.0
H1346 H 0.69579 0.62993 0.66223 0.0
H1347 H 0.75807 0.66212 0.67461 0.0
H1348 H 0.82099 0.65527 0.55569 0.0
H1349 H 0.77177 0.61721 0.5041 0.0
C1350 C 0.70775 0.59362 0.53147 0.0
C1351 C 0.67517 0.58158 0.5514 0.0
C1352 C 0.73605 0.61739 0.5593 0.0
C1353 C 0.67127 0.59595 0.59779 0.0
C1354 C 0.69948 0.62022 0.6255 0.0
C1355 C 0.76079 0.65231 0.63727 0.0
C1356 C 0.79318 0.6616 0.61877 0.0
C1357 C 0.7321 0.63035 0.60752 0.0
C1358 C 0.79645 0.64882 0.57032 0.0
C1359 C 0.76829 0.62704 0.54089 0.0
H1360 H 0.36874 0.10488 0.67307 0.0
H1361 H 0.35524 0.14595 0.52897 0.0
H1362 H 0.38524 0.12352 0.47998 0.0
H1363 H 0.42167 0.09901 0.47991 0.0
H1364 H 0.43893 0.06068 0.62373 0.0
H1365 H 0.40014 0.0736 0.67044 0.0
C1366 C 0.37211 0.10851 0.63085 0.0
C1367 C 0.35947 0.12692 0.60464 0.0
C1368 C 0.38972 0.09552 0.60274 0.0
C1369 C 0.36405 0.13143 0.54992 0.0
C1370 C 0.38137 0.11867 0.52191 0.0
C1371 C 0.41562 0.0919 0.52092 0.0
C1372 C 0.43286 0.0783 0.54793 0.0
C1373 C 0.39484 0.10124 0.54799 0.0
C1374 C 0.42541 0.07017 0.60145 0.0
C1375 C 0.40385 0.07846 0.62851 0.0
H1376 H 0.94618 0.3677 0.62374 0.0
H1377 H 0.94416 0.33894 0.46195 0.0
H1378 H 0.92692 0.28182 0.4892 0.0
H1379 H 0.90248 0.23827 0.55761 0.0
H1380 H 0.90477 0.26713 0.72009 0.0
H1381 H 0.93035 0.32548 0.69379 0.0
C1382 C 0.94395 0.34942 0.59472 0.0
C1383 C 0.94763 0.3581 0.54085 0.0
C1384 C 0.93232 0.31606 0.61069 0.0
C1385 C 0.94284 0.33346 0.50368 0.0
C1386 C 0.93205 0.30045 0.51928 0.0
C1387 C 0.90971 0.25707 0.58786 0.0
C1388 C 0.90176 0.24757 0.64132 0.0
C1389 C 0.92521 0.29108 0.57253 0.0
C1390 C 0.91017 0.27317 0.67875 0.0
C1391 C 0.92514 0.30678 0.66377 0.0
H1392 H 0.35374 0.23812 0.05952 0.0
H1393 H 0.38843 0.26067 0.2204 0.0
H1394 H 0.42191 0.31966 0.19818 0.0
H1395 H 0.44659 0.36376 0.13069 0.0
H1396 H 0.4112 0.34123 0.97083 0.0
H1397 H 0.37062 0.28394 -0.00399 0.0
C1398 C 0.36717 0.25569 0.09063 0.0
C1399 C 0.36776 0.24424 0.14214 0.0
C1400 C 0.38595 0.29005 0.07787 0.0
C1401 C 0.3874 0.26826 0.18042 0.0
C1402 C 0.40643 0.30222 0.16786 0.0
C1403 C 0.42855 0.34689 0.10208 0.0
C1404 C 0.43142 0.35721 0.04912 0.0
C1405 C 0.4064 0.31339 0.11649 0.0
C1406 C 0.40884 0.33444 0.01211 0.0
C1407 C 0.38622 0.3013 0.02631 0.0
H1408 H 0.75778 0.09863 0.17768 0.0
H1409 H 0.81654 0.15082 0.04182 0.0
H1410 H 0.76572 0.13197 0.98981 0.0
H1411 H 0.70485 0.10662 0.9856 0.0
H1412 H 0.64479 0.05697 0.1215 0.0
H1413 H 0.69523 0.06742 0.17004 0.0
C1414 C 0.75931 0.10551 0.13653 0.0
C1415 C 0.79109 0.12591 0.11353 0.0
C1416 C 0.72961 0.0946 0.10666 0.0
C1417 C 0.79265 0.13465 0.06019 0.0
C1418 C 0.76349 0.12397 0.03047 0.0
C1419 C 0.70261 0.09675 0.02513 0.0
C1420 C 0.67087 0.08051 0.04947 0.0
C1421 C 0.73187 0.10443 0.05345 0.0
C1422 C 0.66859 0.06865 0.10116 0.0
C1423 C 0.69766 0.07541 0.12936 0.0
H1424 H 0.94775 0.58413 0.13021 0.0
H1425 H 0.94512 0.6083 0.96726 0.0
H1426 H 0.92819 0.64874 0.99255 0.0
H1427 H 0.90273 0.6678 0.05971 0.0
H1428 H 0.9096 0.64792 0.22367 0.0
H1429 H 0.93415 0.61346 0.1993 0.0
C1430 C 0.94562 0.59984 0.1005 0.0
C1431 C 0.9485 0.59361 0.04683 0.0
C1432 C 0.93474 0.62242 0.11545 0.0
C1433 C 0.94415 0.61325 0.00881 0.0
C1434 C 0.93351 0.63576 0.02326 0.0
C1435 C 0.91161 0.65798 0.09049 0.0
C1436 C 0.90535 0.66177 0.14382 0.0
C1437 C 0.92715 0.63935 0.07629 0.0
C1438 C 0.91427 0.64574 0.18244 0.0
C1439 C 0.92858 0.62621 0.16852 0.0
loop_
_geom_bond_atom_site_label_1
_geom_bond_atom_site_label_2
_geom_bond_distance
_geom_bond_site_symmetry_2
_ccdc_geom_bond_type
Zn0 O1 2.055 . S
Zn0 O8 2.046 . S
Zn0 N16 2.036 . S
Zn0 O28 2.053 . S
Zn0 O30 2.066 1_554 S
O1 Zn0 2.055 . S
O1 C4 1.259 1_554 S
C2 O30 1.256 . S
C2 O31 1.244 . S
Zn3 O5 2.046 . S
Zn3 O7 2.055 . S
Zn3 N9 2.036 . S
Zn3 O27 2.066 . S
Zn3 O31 2.053 1_554 S
C4 O1 1.259 1_556 S
C4 O5 1.254 1_556 S
O5 Zn3 2.046 . S
O5 C4 1.254 1_554 S
C6 O27 1.256 . S
C6 O28 1.244 . S
O7 Zn3 2.055 . S
O7 C29 1.259 . S
O8 Zn0 2.046 . S
O8 C29 1.254 . S
N9 Zn3 2.036 . S
N9 C10 1.298 . S
N9 N12 1.398 1_554 S
C10 N9 1.298 . S
C10 N13 1.367 . S
C10 C23 1.481 . S
C11 N12 1.299 . S
C11 N13 1.379 1_556 S
N12 N9 1.398 1_556 S
N12 C11 1.299 . S
N13 C10 1.367 . S
N13 C11 1.379 1_554 S
C14 N16 1.298 1_556 S
C14 N18 1.367 . S
C14 C22 1.481 . S
C15 N17 1.299 . S
C15 N18 1.379 1_554 S
N16 Zn0 2.036 . S
N16 C14 1.298 1_554 S
N16 N17 1.398 . S
N17 C15 1.299 . S
N17 N16 1.398 . S
N18 C14 1.367 . S
N18 C15 1.379 1_556 S
H19 C22 0.980 . S
H20 C22 0.981 . S
H21 C22 0.981 . S
C22 C14 1.481 . S
C22 H19 0.980 . S
C22 H20 0.981 . S
C22 H21 0.981 . S
C23 C10 1.481 . S
C23 H24 0.980 . S
C23 H25 0.981 . S
C23 H26 0.981 . S
H24 C23 0.980 . S
H25 C23 0.981 . S
H26 C23 0.981 . S
O27 Zn3 2.066 . S
O27 C6 1.256 . S
O28 Zn0 2.053 . S
O28 C6 1.244 . S
C29 O7 1.259 . S
C29 O8 1.254 . S
O30 Zn0 2.066 1_556 S
O30 C2 1.256 . S
O31 C2 1.244 . S
O31 Zn3 2.053 1_556 S
Zn32 O33 2.055 . S
Zn32 O40 2.046 . S
Zn32 N48 2.036 . S
Zn32 O60 2.053 . S
Zn32 O62 2.066 1_554 S
O33 Zn32 2.055 . S
O33 C36 1.259 1_554 S
C34 O62 1.256 . S
C34 O63 1.244 . S
Zn35 O37 2.046 . S
Zn35 O39 2.055 . S
Zn35 N41 2.036 . S
Zn35 O59 2.066 . S
Zn35 O63 2.053 1_554 S
C36 O33 1.259 1_556 S
C36 O37 1.254 1_556 S
O37 Zn35 2.046 . S
O37 C36 1.254 1_554 S
C38 O59 1.256 . S
C38 O60 1.244 . S
O39 Zn35 2.055 . S
O39 C61 1.259 . S
O40 Zn32 2.046 . S
O40 C61 1.254 . S
N41 Zn35 2.036 . S
N41 C42 1.298 . S
N41 N44 1.398 1_554 S
C42 N41 1.298 . S
C42 N45 1.367 . S
C42 C55 1.481 . S
C43 N44 1.299 . S
C43 N45 1.379 1_556 S
N44 N41 1.398 1_556 S
N44 C43 1.299 . S
N45 C42 1.367 . S
N45 C43 1.379 1_554 S
C46 N48 1.298 1_556 S
C46 N50 1.367 . S
C46 C54 1.481 . S
C47 N49 1.299 . S
C47 N50 1.379 1_554 S
N48 Zn32 2.036 . S
N48 C46 1.298 1_554 S
N48 N49 1.398 . S
N49 C47 1.299 . S
N49 N48 1.398 . S
N50 C46 1.367 . S
N50 C47 1.379 1_556 S
H51 C54 0.980 . S
H52 C54 0.981 . S
H53 C54 0.981 . S
C54 C46 1.481 . S
C54 H51 0.980 . S
C54 H52 0.981 . S
C54 H53 0.981 . S
C55 C42 1.481 . S
C55 H56 0.980 . S
C55 H57 0.981 . S
C55 H58 0.981 . S
H56 C55 0.980 . S
H57 C55 0.981 . S
H58 C55 0.981 . S
O59 Zn35 2.066 . S
O59 C38 1.256 . S
O60 Zn32 2.053 . S
O60 C38 1.244 . S
C61 O39 1.259 . S
C61 O40 1.254 . S
O62 Zn32 2.066 1_556 S
O62 C34 1.256 . S
O63 C34 1.244 . S
O63 Zn35 2.053 1_556 S
Zn64 O65 2.055 . S
Zn64 O72 2.046 . S
Zn64 N80 2.036 . S
Zn64 O92 2.053 . S
Zn64 O94 2.066 1_554 S
O65 Zn64 2.055 . S
O65 C68 1.259 1_554 S
C66 O94 1.256 . S
C66 O95 1.244 . S
Zn67 O69 2.046 . S
Zn67 O71 2.055 . S
Zn67 N73 2.036 . S
Zn67 O91 2.066 . S
Zn67 O95 2.053 1_554 S
C68 O65 1.259 1_556 S
C68 O69 1.254 1_556 S
O69 Zn67 2.046 . S
O69 C68 1.254 1_554 S
C70 O91 1.256 . S
C70 O92 1.244 . S
O71 Zn67 2.055 . S
O71 C93 1.259 . S
O72 Zn64 2.046 . S
O72 C93 1.254 . S
N73 Zn67 2.036 . S
N73 C74 1.298 . S
N73 N76 1.398 1_554 S
C74 N73 1.298 . S
C74 N77 1.367 . S
C74 C87 1.481 . S
C75 N76 1.299 . S
C75 N77 1.379 1_556 S
N76 N73 1.398 1_556 S
N76 C75 1.299 . S
N77 C74 1.367 . S
N77 C75 1.379 1_554 S
C78 N80 1.298 1_556 S
C78 N82 1.367 . S
C78 C86 1.481 . S
C79 N81 1.299 . S
C79 N82 1.379 1_554 S
N80 Zn64 2.036 . S
N80 C78 1.298 1_554 S
N80 N81 1.398 . S
N81 C79 1.299 . S
N81 N80 1.398 . S
N82 C78 1.367 . S
N82 C79 1.379 1_556 S
H83 C86 0.980 . S
H84 C86 0.981 . S
H85 C86 0.981 . S
C86 C78 1.481 . S
C86 H83 0.980 . S
C86 H84 0.981 . S
C86 H85 0.981 . S
C87 C74 1.481 . S
C87 H88 0.980 . S
C87 H89 0.981 . S
C87 H90 0.981 . S
H88 C87 0.980 . S
H89 C87 0.981 . S
H90 C87 0.981 . S
O91 Zn67 2.066 . S
O91 C70 1.256 . S
O92 Zn64 2.053 . S
O92 C70 1.244 . S
C93 O71 1.259 . S
C93 O72 1.254 . S
O94 Zn64 2.066 1_556 S
O94 C66 1.256 . S
O95 C66 1.244 . S
O95 Zn67 2.053 1_556 S
Zn96 O97 2.055 . S
Zn96 O104 2.046 . S
Zn96 N112 2.036 . S
Zn96 O124 2.053 . S
Zn96 O126 2.066 . S
O97 Zn96 2.055 . S
O97 C100 1.259 . S
C98 O126 1.256 . S
C98 O127 1.244 . S
Zn99 O101 2.046 . S
Zn99 O103 2.055 . S
Zn99 N105 2.036 . S
Zn99 O123 2.066 . S
Zn99 O127 2.053 . S
C100 O97 1.259 . S
C100 O101 1.254 . S
O101 Zn99 2.046 . S
O101 C100 1.254 . S
C102 O123 1.256 . S
C102 O124 1.244 . S
O103 Zn99 2.055 . S
O103 C125 1.259 . S
O104 Zn96 2.046 . S
O104 C125 1.254 . S
N105 Zn99 2.036 . S
N105 C106 1.298 . S
N105 N108 1.398 . S
C106 N105 1.298 . S
C106 N109 1.367 . S
C106 C119 1.481 . S
C107 N108 1.299 . S
C107 N109 1.379 . S
N108 N105 1.398 . S
N108 C107 1.299 . S
N109 C106 1.367 . S
N109 C107 1.379 . S
C110 N112 1.298 . S
C110 N114 1.367 . S
C110 C118 1.481 . S
C111 N113 1.299 . S
C111 N114 1.379 . S
N112 Zn96 2.036 . S
N112 C110 1.298 . S
N112 N113 1.398 . S
N113 C111 1.299 . S
N113 N112 1.398 . S
N114 C110 1.367 . S
N114 C111 1.379 . S
H115 C118 0.980 . S
H116 C118 0.981 . S
H117 C118 0.981 . S
C118 C110 1.481 . S
C118 H115 0.980 . S
C118 H116 0.981 . S
C118 H117 0.981 . S
C119 C106 1.481 . S
C119 H120 0.980 . S
C119 H121 0.981 . S
C119 H122 0.981 . S
H120 C119 0.980 . S
H121 C119 0.981 . S
H122 C119 0.981 . S
O123 Zn99 2.066 . S
O123 C102 1.256 . S
O124 Zn96 2.053 . S
O124 C102 1.244 . S
C125 O103 1.259 . S
C125 O104 1.254 . S
O126 Zn96 2.066 . S
O126 C98 1.256 . S
O127 C98 1.244 . S
O127 Zn99 2.053 . S
Zn128 O129 2.055 . S
Zn128 O136 2.046 . S
Zn128 N144 2.036 . S
Zn128 O156 2.053 . S
Zn128 O158 2.066 . S
O129 Zn128 2.055 . S
O129 C132 1.259 . S
C130 O158 1.256 . S
C130 O159 1.244 . S
Zn131 O133 2.046 . S
Zn131 O135 2.055 . S
Zn131 N137 2.036 . S
Zn131 O155 2.066 . S
Zn131 O159 2.053 . S
C132 O129 1.259 . S
C132 O133 1.254 . S
O133 Zn131 2.046 . S
O133 C132 1.254 . S
C134 O155 1.256 . S
C134 O156 1.244 . S
O135 Zn131 2.055 . S
O135 C157 1.259 . S
O136 Zn128 2.046 . S
O136 C157 1.254 . S
N137 Zn131 2.036 . S
N137 C138 1.298 . S
N137 N140 1.398 . S
C138 N137 1.298 . S
C138 N141 1.367 . S
C138 C151 1.481 . S
C139 N140 1.299 . S
C139 N141 1.379 . S
N140 N137 1.398 . S
N140 C139 1.299 . S
N141 C138 1.367 . S
N141 C139 1.379 . S
C142 N144 1.298 . S
C142 N146 1.367 . S
C142 C150 1.481 . S
C143 N145 1.299 . S
C143 N146 1.379 . S
N144 Zn128 2.036 . S
N144 C142 1.298 . S
N144 N145 1.398 . S
N145 C143 1.299 . S
N145 N144 1.398 . S
N146 C142 1.367 . S
N146 C143 1.379 . S
H147 C150 0.980 . S
H148 C150 0.981 . S
H149 C150 0.981 . S
C150 C142 1.481 . S
C150 H147 0.980 . S
C150 H148 0.981 . S
C150 H149 0.981 . S
C151 C138 1.481 . S
C151 H152 0.980 . S
C151 H153 0.981 . S
C151 H154 0.981 . S
H152 C151 0.980 . S
H153 C151 0.981 . S
H154 C151 0.981 . S
O155 Zn131 2.066 . S
O155 C134 1.256 . S
O156 Zn128 2.053 . S
O156 C134 1.244 . S
C157 O135 1.259 . S
C157 O136 1.254 . S
O158 Zn128 2.066 . S
O158 C130 1.256 . S
O159 C130 1.244 . S
O159 Zn131 2.053 . S
Zn160 O161 2.055 . S
Zn160 O168 2.046 . S
Zn160 N176 2.036 . S
Zn160 O188 2.053 . S
Zn160 O190 2.066 . S
O161 Zn160 2.055 . S
O161 C164 1.259 . S
C162 O190 1.256 . S
C162 O191 1.244 . S
Zn163 O165 2.046 . S
Zn163 O167 2.055 . S
Zn163 N169 2.036 . S
Zn163 O187 2.066 . S
Zn163 O191 2.053 . S
C164 O161 1.259 . S
C164 O165 1.254 . S
O165 Zn163 2.046 . S
O165 C164 1.254 . S
C166 O187 1.256 . S
C166 O188 1.244 . S
O167 Zn163 2.055 . S
O167 C189 1.259 . S
O168 Zn160 2.046 . S
O168 C189 1.254 . S
N169 Zn163 2.036 . S
N169 C170 1.298 . S
N169 N172 1.398 . S
C170 N169 1.298 . S
C170 N173 1.367 . S
C170 C183 1.481 . S
C171 N172 1.299 . S
C171 N173 1.379 . S
N172 N169 1.398 . S
N172 C171 1.299 . S
N173 C170 1.367 . S
N173 C171 1.379 . S
C174 N176 1.298 . S
C174 N178 1.367 . S
C174 C182 1.481 . S
C175 N177 1.299 . S
C175 N178 1.379 . S
N176 Zn160 2.036 . S
N176 C174 1.298 . S
N176 N177 1.398 . S
N177 C175 1.299 . S
N177 N176 1.398 . S
N178 C174 1.367 . S
N178 C175 1.379 . S
H179 C182 0.980 . S
H180 C182 0.981 . S
H181 C182 0.981 . S
C182 C174 1.481 . S
C182 H179 0.980 . S
C182 H180 0.981 . S
C182 H181 0.981 . S
C183 C170 1.481 . S
C183 H184 0.980 . S
C183 H185 0.981 . S
C183 H186 0.981 . S
H184 C183 0.980 . S
H185 C183 0.981 . S
H186 C183 0.981 . S
O187 Zn163 2.066 . S
O187 C166 1.256 . S
O188 Zn160 2.053 . S
O188 C166 1.244 . S
C189 O167 1.259 . S
C189 O168 1.254 . S
O190 Zn160 2.066 . S
O190 C162 1.256 . S
O191 C162 1.244 . S
O191 Zn163 2.053 . S
Zn192 O193 2.055 . S
Zn192 O200 2.046 . S
Zn192 N208 2.036 . S
Zn192 O220 2.053 . S
Zn192 O222 2.066 . S
O193 Zn192 2.055 . S
O193 C196 1.259 . S
C194 O222 1.256 . S
C194 O223 1.244 . S
Zn195 O197 2.046 . S
Zn195 O199 2.055 . S
Zn195 N201 2.036 . S
Zn195 O219 2.066 . S
Zn195 O223 2.053 . S
C196 O193 1.259 . S
C196 O197 1.254 . S
O197 Zn195 2.046 . S
O197 C196 1.254 . S
C198 O219 1.256 . S
C198 O220 1.244 . S
O199 Zn195 2.055 . S
O199 C221 1.259 . S
O200 Zn192 2.046 . S
O200 C221 1.254 . S
N201 Zn195 2.036 . S
N201 C202 1.298 . S
N201 N204 1.398 . S
C202 N201 1.298 . S
C202 N205 1.367 . S
C202 C215 1.481 . S
C203 N204 1.299 . S
C203 N205 1.379 . S
N204 N201 1.398 . S
N204 C203 1.299 . S
N205 C202 1.367 . S
N205 C203 1.379 . S
C206 N208 1.298 . S
C206 N210 1.367 . S
C206 C214 1.481 . S
C207 N209 1.299 . S
C207 N210 1.379 . S
N208 Zn192 2.036 . S
N208 C206 1.298 . S
N208 N209 1.398 . S
N209 C207 1.299 . S
N209 N208 1.398 . S
N210 C206 1.367 . S
N210 C207 1.379 . S
H211 C214 0.980 . S
H212 C214 0.981 . S
H213 C214 0.981 . S
C214 C206 1.481 . S
C214 H211 0.980 . S
C214 H212 0.981 . S
C214 H213 0.981 . S
C215 C202 1.481 . S
C215 H216 0.980 . S
C215 H217 0.981 . S
C215 H218 0.981 . S
H216 C215 0.980 . S
H217 C215 0.981 . S
H218 C215 0.981 . S
O219 Zn195 2.066 . S
O219 C198 1.256 . S
O220 Zn192 2.053 . S
O220 C198 1.244 . S
C221 O199 1.259 . S
C221 O200 1.254 . S
O222 Zn192 2.066 . S
O222 C194 1.256 . S
O223 C194 1.244 . S
O223 Zn195 2.053 . S
Zn224 O225 2.055 . S
Zn224 O232 2.046 . S
Zn224 N240 2.036 . S
Zn224 O252 2.053 . S
Zn224 O254 2.066 . S
O225 Zn224 2.055 . S
O225 C228 1.259 . S
C226 O254 1.256 . S
C226 O255 1.244 . S
Zn227 O229 2.046 . S
Zn227 O231 2.055 . S
Zn227 N233 2.036 . S
Zn227 O251 2.066 . S
Zn227 O255 2.053 . S
C228 O225 1.259 . S
C228 O229 1.254 . S
O229 Zn227 2.046 . S
O229 C228 1.254 . S
C230 O251 1.256 . S
C230 O252 1.244 . S
O231 Zn227 2.055 . S
O231 C253 1.259 . S
O232 Zn224 2.046 . S
O232 C253 1.254 . S
N233 Zn227 2.036 . S
N233 C234 1.298 . S
N233 N236 1.398 . S
C234 N233 1.298 . S
C234 N237 1.367 . S
C234 C247 1.481 . S
C235 N236 1.299 . S
C235 N237 1.379 . S
N236 N233 1.398 . S
N236 C235 1.299 . S
N237 C234 1.367 . S
N237 C235 1.379 . S
C238 N240 1.298 . S
C238 N242 1.367 . S
C238 C246 1.481 . S
C239 N241 1.299 . S
C239 N242 1.379 . S
N240 Zn224 2.036 . S
N240 C238 1.298 . S
N240 N241 1.398 . S
N241 C239 1.299 . S
N241 N240 1.398 . S
N242 C238 1.367 . S
N242 C239 1.379 . S
H243 C246 0.980 . S
H244 C246 0.981 . S
H245 C246 0.981 . S
C246 C238 1.481 . S
C246 H243 0.980 . S
C246 H244 0.981 . S
C246 H245 0.981 . S
C247 C234 1.481 . S
C247 H248 0.980 . S
C247 H249 0.981 . S
C247 H250 0.981 . S
H248 C247 0.980 . S
H249 C247 0.981 . S
H250 C247 0.981 . S
O251 Zn227 2.066 . S
O251 C230 1.256 . S
O252 Zn224 2.053 . S
O252 C230 1.244 . S
C253 O231 1.259 . S
C253 O232 1.254 . S
O254 Zn224 2.066 . S
O254 C226 1.256 . S
O255 C226 1.244 . S
O255 Zn227 2.053 . S
Zn256 O257 2.055 . S
Zn256 O264 2.046 . S
Zn256 N272 2.036 . S
Zn256 O284 2.053 . S
Zn256 O286 2.066 . S
O257 Zn256 2.055 . S
O257 C260 1.259 . S
C258 O286 1.256 . S
C258 O287 1.244 . S
Zn259 O261 2.046 . S
Zn259 O263 2.055 . S
Zn259 N265 2.036 . S
Zn259 O283 2.066 . S
Zn259 O287 2.053 . S
C260 O257 1.259 . S
C260 O261 1.254 . S
O261 Zn259 2.046 . S
O261 C260 1.254 . S
C262 O283 1.256 . S
C262 O284 1.244 . S
O263 Zn259 2.055 . S
O263 C285 1.259 . S
O264 Zn256 2.046 . S
O264 C285 1.254 . S
N265 Zn259 2.036 . S
N265 C266 1.298 . S
N265 N268 1.398 . S
C266 N265 1.298 . S
C266 N269 1.367 . S
C266 C279 1.481 . S
C267 N268 1.299 . S
C267 N269 1.379 . S
N268 N265 1.398 . S
N268 C267 1.299 . S
N269 C266 1.367 . S
N269 C267 1.379 . S
C270 N272 1.298 . S
C270 N274 1.367 . S
C270 C278 1.481 . S
C271 N273 1.299 . S
C271 N274 1.379 . S
N272 Zn256 2.036 . S
N272 C270 1.298 . S
N272 N273 1.398 . S
N273 C271 1.299 . S
N273 N272 1.398 . S
N274 C270 1.367 . S
N274 C271 1.379 . S
H275 C278 0.980 . S
H276 C278 0.981 . S
H277 C278 0.981 . S
C278 C270 1.481 . S
C278 H275 0.980 . S
C278 H276 0.981 . S
C278 H277 0.981 . S
C279 C266 1.481 . S
C279 H280 0.980 . S
C279 H281 0.981 . S
C279 H282 0.981 . S
H280 C279 0.980 . S
H281 C279 0.981 . S
H282 C279 0.981 . S
O283 Zn259 2.066 . S
O283 C262 1.256 . S
O284 Zn256 2.053 . S
O284 C262 1.244 . S
C285 O263 1.259 . S
C285 O264 1.254 . S
O286 Zn256 2.066 . S
O286 C258 1.256 . S
O287 C258 1.244 . S
O287 Zn259 2.053 . S
Zn288 O289 2.055 . S
Zn288 O296 2.046 . S
Zn288 N304 2.036 . S
Zn288 O316 2.053 . S
Zn288 O318 2.066 . S
O289 Zn288 2.055 . S
O289 C292 1.259 . S
C290 O318 1.256 . S
C290 O319 1.244 . S
Zn291 O293 2.046 . S
Zn291 O295 2.055 . S
Zn291 N297 2.036 . S
Zn291 O315 2.066 . S
Zn291 O319 2.053 . S
C292 O289 1.259 . S
C292 O293 1.254 . S
O293 Zn291 2.046 . S
O293 C292 1.254 . S
C294 O315 1.256 . S
C294 O316 1.244 . S
O295 Zn291 2.055 . S
O295 C317 1.259 . S
O296 Zn288 2.046 . S
O296 C317 1.254 . S
N297 Zn291 2.036 . S
N297 C298 1.298 . S
N297 N300 1.398 . S
C298 N297 1.298 . S
C298 N301 1.367 . S
C298 C311 1.481 . S
C299 N300 1.299 . S
C299 N301 1.379 . S
N300 N297 1.398 . S
N300 C299 1.299 . S
N301 C298 1.367 . S
N301 C299 1.379 . S
C302 N304 1.298 . S
C302 N306 1.367 . S
C302 C310 1.481 . S
C303 N305 1.299 . S
C303 N306 1.379 . S
N304 Zn288 2.036 . S
N304 C302 1.298 . S
N304 N305 1.398 . S
N305 C303 1.299 . S
N305 N304 1.398 . S
N306 C302 1.367 . S
N306 C303 1.379 . S
H307 C310 0.980 . S
H308 C310 0.981 . S
H309 C310 0.981 . S
C310 C302 1.481 . S
C310 H307 0.980 . S
C310 H308 0.981 . S
C310 H309 0.981 . S
C311 C298 1.481 . S
C311 H312 0.980 . S
C311 H313 0.981 . S
C311 H314 0.981 . S
H312 C311 0.980 . S
H313 C311 0.981 . S
H314 C311 0.981 . S
O315 Zn291 2.066 . S
O315 C294 1.256 . S
O316 Zn288 2.053 . S
O316 C294 1.244 . S
C317 O295 1.259 . S
C317 O296 1.254 . S
O318 Zn288 2.066 . S
O318 C290 1.256 . S
O319 C290 1.244 . S
O319 Zn291 2.053 . S
Zn320 O321 2.055 . S
Zn320 O328 2.046 . S
Zn320 N336 2.036 . S
Zn320 O348 2.053 . S
Zn320 O350 2.066 . S
O321 Zn320 2.055 . S
O321 C324 1.259 . S
C322 O350 1.256 . S
C322 O351 1.244 . S
Zn323 O325 2.046 . S
Zn323 O327 2.055 . S
Zn323 N329 2.036 . S
Zn323 O347 2.066 . S
Zn323 O351 2.053 . S
C324 O321 1.259 . S
C324 O325 1.254 . S
O325 Zn323 2.046 . S
O325 C324 1.254 . S
C326 O347 1.256 . S
C326 O348 1.244 . S
O327 Zn323 2.055 . S
O327 C349 1.259 . S
O328 Zn320 2.046 . S
O328 C349 1.254 . S
N329 Zn323 2.036 . S
N329 C330 1.298 . S
N329 N332 1.398 . S
C330 N329 1.298 . S
C330 N333 1.367 . S
C330 C343 1.481 . S
C331 N332 1.299 . S
C331 N333 1.379 . S
N332 N329 1.398 . S
N332 C331 1.299 . S
N333 C330 1.367 . S
N333 C331 1.379 . S
C334 N336 1.298 . S
C334 N338 1.367 . S
C334 C342 1.481 . S
C335 N337 1.299 . S
C335 N338 1.379 . S
N336 Zn320 2.036 . S
N336 C334 1.298 . S
N336 N337 1.398 . S
N337 C335 1.299 . S
N337 N336 1.398 . S
N338 C334 1.367 . S
N338 C335 1.379 . S
H339 C342 0.980 . S
H340 C342 0.981 . S
H341 C342 0.981 . S
C342 C334 1.481 . S
C342 H339 0.980 . S
C342 H340 0.981 . S
C342 H341 0.981 . S
C343 C330 1.481 . S
C343 H344 0.980 . S
C343 H345 0.981 . S
C343 H346 0.981 . S
H344 C343 0.980 . S
H345 C343 0.981 . S
H346 C343 0.981 . S
O347 Zn323 2.066 . S
O347 C326 1.256 . S
O348 Zn320 2.053 . S
O348 C326 1.244 . S
C349 O327 1.259 . S
C349 O328 1.254 . S
O350 Zn320 2.066 . S
O350 C322 1.256 . S
O351 C322 1.244 . S
O351 Zn323 2.053 . S
Zn352 O353 2.055 . S
Zn352 O360 2.046 . S
Zn352 N368 2.036 . S
Zn352 O380 2.053 . S
Zn352 O382 2.066 . S
O353 Zn352 2.055 . S
O353 C356 1.259 . S
C354 O382 1.256 . S
C354 O383 1.244 . S
Zn355 O357 2.046 . S
Zn355 O359 2.055 . S
Zn355 N361 2.036 . S
Zn355 O379 2.066 . S
Zn355 O383 2.053 . S
C356 O353 1.259 . S
C356 O357 1.254 . S
O357 Zn355 2.046 . S
O357 C356 1.254 . S
C358 O379 1.256 . S
C358 O380 1.244 . S
O359 Zn355 2.055 . S
O359 C381 1.259 . S
O360 Zn352 2.046 . S
O360 C381 1.254 . S
N361 Zn355 2.036 . S
N361 C362 1.298 . S
N361 N364 1.398 . S
C362 N361 1.298 . S
C362 N365 1.367 . S
C362 C375 1.481 . S
C363 N364 1.299 . S
C363 N365 1.379 . S
N364 N361 1.398 . S
N364 C363 1.299 . S
N365 C362 1.367 . S
N365 C363 1.379 . S
C366 N368 1.298 . S
C366 N370 1.367 . S
C366 C374 1.481 . S
C367 N369 1.299 . S
C367 N370 1.379 . S
N368 Zn352 2.036 . S
N368 C366 1.298 . S
N368 N369 1.398 . S
N369 C367 1.299 . S
N369 N368 1.398 . S
N370 C366 1.367 . S
N370 C367 1.379 . S
H371 C374 0.980 . S
H372 C374 0.981 . S
H373 C374 0.981 . S
C374 C366 1.481 . S
C374 H371 0.980 . S
C374 H372 0.981 . S
C374 H373 0.981 . S
C375 C362 1.481 . S
C375 H376 0.980 . S
C375 H377 0.981 . S
C375 H378 0.981 . S
H376 C375 0.980 . S
H377 C375 0.981 . S
H378 C375 0.981 . S
O379 Zn355 2.066 . S
O379 C358 1.256 . S
O380 Zn352 2.053 . S
O380 C358 1.244 . S
C381 O359 1.259 . S
C381 O360 1.254 . S
O382 Zn352 2.066 . S
O382 C354 1.256 . S
O383 C354 1.244 . S
O383 Zn355 2.053 . S
Zn384 O385 2.055 . S
Zn384 O392 2.046 . S
Zn384 N400 2.036 . S
Zn384 O412 2.053 . S
Zn384 O414 2.066 . S
O385 Zn384 2.055 . S
O385 C388 1.259 . S
C386 O414 1.256 . S
C386 O415 1.244 . S
Zn387 O389 2.046 . S
Zn387 O391 2.055 . S
Zn387 N393 2.036 . S
Zn387 O411 2.066 . S
Zn387 O415 2.053 . S
C388 O385 1.259 . S
C388 O389 1.254 . S
O389 Zn387 2.046 . S
O389 C388 1.254 . S
C390 O411 1.256 . S
C390 O412 1.244 . S
O391 Zn387 2.055 . S
O391 C413 1.259 . S
O392 Zn384 2.046 . S
O392 C413 1.254 . S
N393 Zn387 2.036 . S
N393 C394 1.298 1_655 S
N393 N396 1.398 1_655 S
C394 N393 1.298 1_455 S
C394 N397 1.367 . S
C394 C407 1.481 . S
C395 N396 1.299 . S
C395 N397 1.379 . S
N396 N393 1.398 1_455 S
N396 C395 1.299 . S
N397 C394 1.367 . S
N397 C395 1.379 . S
C398 N400 1.298 . S
C398 N402 1.367 . S
C398 C406 1.481 . S
C399 N401 1.299 . S
C399 N402 1.379 . S
N400 Zn384 2.036 . S
N400 C398 1.298 . S
N400 N401 1.398 . S
N401 C399 1.299 . S
N401 N400 1.398 . S
N402 C398 1.367 . S
N402 C399 1.379 . S
H403 C406 0.980 . S
H404 C406 0.981 . S
H405 C406 0.981 . S
C406 C398 1.481 . S
C406 H403 0.980 . S
C406 H404 0.981 . S
C406 H405 0.981 . S
C407 C394 1.481 . S
C407 H408 0.980 . S
C407 H409 0.981 . S
C407 H410 0.981 . S
H408 C407 0.980 . S
H409 C407 0.981 . S
H410 C407 0.981 . S
O411 Zn387 2.066 . S
O411 C390 1.256 . S
O412 Zn384 2.053 . S
O412 C390 1.244 . S
C413 O391 1.259 . S
C413 O392 1.254 . S
O414 Zn384 2.066 . S
O414 C386 1.256 . S
O415 C386 1.244 . S
O415 Zn387 2.053 . S
Zn416 O417 2.055 . S
Zn416 O424 2.046 . S
Zn416 N432 2.036 . S
Zn416 O444 2.053 . S
Zn416 O446 2.066 . S
O417 Zn416 2.055 . S
O417 C420 1.259 . S
C418 O446 1.256 . S
C418 O447 1.244 . S
Zn419 O421 2.046 . S
Zn419 O423 2.055 . S
Zn419 N425 2.036 . S
Zn419 O443 2.066 . S
Zn419 O447 2.053 . S
C420 O417 1.259 . S
C420 O421 1.254 . S
O421 Zn419 2.046 . S
O421 C420 1.254 . S
C422 O443 1.256 . S
C422 O444 1.244 . S
O423 Zn419 2.055 . S
O423 C445 1.259 . S
O424 Zn416 2.046 . S
O424 C445 1.254 . S
N425 Zn419 2.036 . S
N425 C426 1.298 . S
N425 N428 1.398 . S
C426 N425 1.298 . S
C426 N429 1.367 . S
C426 C439 1.481 . S
C427 N428 1.299 . S
C427 N429 1.379 . S
N428 N425 1.398 . S
N428 C427 1.299 . S
N429 C426 1.367 . S
N429 C427 1.379 . S
C430 N432 1.298 . S
C430 N434 1.367 . S
C430 C438 1.481 . S
C431 N433 1.299 . S
C431 N434 1.379 . S
N432 Zn416 2.036 . S
N432 C430 1.298 . S
N432 N433 1.398 . S
N433 C431 1.299 . S
N433 N432 1.398 . S
N434 C430 1.367 . S
N434 C431 1.379 . S
H435 C438 0.980 . S
H436 C438 0.981 . S
H437 C438 0.981 . S
C438 C430 1.481 . S
C438 H435 0.980 . S
C438 H436 0.981 . S
C438 H437 0.981 . S
C439 C426 1.481 . S
C439 H440 0.980 . S
C439 H441 0.981 . S
C439 H442 0.981 . S
H440 C439 0.980 . S
H441 C439 0.981 . S
H442 C439 0.981 . S
O443 Zn419 2.066 . S
O443 C422 1.256 . S
O444 Zn416 2.053 . S
O444 C422 1.244 . S
C445 O423 1.259 . S
C445 O424 1.254 . S
O446 Zn416 2.066 . S
O446 C418 1.256 . S
O447 C418 1.244 . S
O447 Zn419 2.053 . S
Zn448 O449 2.055 . S
Zn448 O456 2.046 . S
Zn448 N464 2.036 . S
Zn448 O476 2.053 . S
Zn448 O478 2.066 . S
O449 Zn448 2.055 . S
O449 C452 1.259 . S
C450 O478 1.256 . S
C450 O479 1.244 . S
Zn451 O453 2.046 . S
Zn451 O455 2.055 . S
Zn451 N457 2.036 . S
Zn451 O475 2.066 . S
Zn451 O479 2.053 . S
C452 O449 1.259 . S
C452 O453 1.254 . S
O453 Zn451 2.046 . S
O453 C452 1.254 . S
C454 O475 1.256 . S
C454 O476 1.244 . S
O455 Zn451 2.055 . S
O455 C477 1.259 . S
O456 Zn448 2.046 . S
O456 C477 1.254 . S
N457 Zn451 2.036 . S
N457 C458 1.298 1_545 S
N457 N460 1.398 1_545 S
C458 N457 1.298 1_565 S
C458 N461 1.367 . S
C458 C471 1.481 . S
C459 N460 1.299 . S
C459 N461 1.379 . S
N460 N457 1.398 1_565 S
N460 C459 1.299 . S
N461 C458 1.367 . S
N461 C459 1.379 . S
C462 N464 1.298 . S
C462 N466 1.367 . S
C462 C470 1.481 . S
C463 N465 1.299 . S
C463 N466 1.379 . S
N464 Zn448 2.036 . S
N464 C462 1.298 . S
N464 N465 1.398 . S
N465 C463 1.299 . S
N465 N464 1.398 . S
N466 C462 1.367 . S
N466 C463 1.379 . S
H467 C470 0.980 . S
H468 C470 0.981 . S
H469 C470 0.981 . S
C470 C462 1.481 . S
C470 H467 0.980 . S
C470 H468 0.981 . S
C470 H469 0.981 . S
C471 C458 1.481 . S
C471 H472 0.980 . S
C471 H473 0.981 . S
C471 H474 0.981 . S
H472 C471 0.980 . S
H473 C471 0.981 . S
H474 C471 0.981 . S
O475 Zn451 2.066 . S
O475 C454 1.256 . S
O476 Zn448 2.053 . S
O476 C454 1.244 . S
C477 O455 1.259 . S
C477 O456 1.254 . S
O478 Zn448 2.066 . S
O478 C450 1.256 . S
O479 C450 1.244 . S
O479 Zn451 2.053 . S
Zn480 O481 2.055 . S
Zn480 O488 2.046 . S
Zn480 N496 2.036 . S
Zn480 O508 2.053 . S
Zn480 O510 2.066 . S
O481 Zn480 2.055 . S
O481 C484 1.259 . S
C482 O510 1.256 . S
C482 O511 1.244 . S
Zn483 O485 2.046 . S
Zn483 O487 2.055 . S
Zn483 N489 2.036 . S
Zn483 O507 2.066 . S
Zn483 O511 2.053 . S
C484 O481 1.259 . S
C484 O485 1.254 . S
O485 Zn483 2.046 . S
O485 C484 1.254 . S
C486 O507 1.256 . S
C486 O508 1.244 . S
O487 Zn483 2.055 . S
O487 C509 1.259 . S
O488 Zn480 2.046 . S
O488 C509 1.254 . S
N489 Zn483 2.036 . S
N489 C490 1.298 . S
N489 N492 1.398 . S
C490 N489 1.298 . S
C490 N493 1.367 . S
C490 C503 1.481 . S
C491 N492 1.299 . S
C491 N493 1.379 . S
N492 N489 1.398 . S
N492 C491 1.299 . S
N493 C490 1.367 . S
N493 C491 1.379 . S
C494 N496 1.298 1_565 S
C494 N498 1.367 . S
C494 C502 1.481 . S
C495 N497 1.299 . S
C495 N498 1.379 . S
N496 Zn480 2.036 . S
N496 C494 1.298 1_545 S
N496 N497 1.398 1_545 S
N497 C495 1.299 . S
N497 N496 1.398 1_565 S
N498 C494 1.367 . S
N498 C495 1.379 . S
H499 C502 0.980 . S
H500 C502 0.981 . S
H501 C502 0.981 . S
C502 C494 1.481 . S
C502 H499 0.980 . S
C502 H500 0.981 . S
C502 H501 0.981 . S
C503 C490 1.481 . S
C503 H504 0.980 . S
C503 H505 0.981 . S
C503 H506 0.981 . S
H504 C503 0.980 . S
H505 C503 0.981 . S
H506 C503 0.981 . S
O507 Zn483 2.066 . S
O507 C486 1.256 . S
O508 Zn480 2.053 . S
O508 C486 1.244 . S
C509 O487 1.259 . S
C509 O488 1.254 . S
O510 Zn480 2.066 . S
O510 C482 1.256 . S
O511 C482 1.244 . S
O511 Zn483 2.053 . S
Zn512 O513 2.055 . S
Zn512 O520 2.046 . S
Zn512 N528 2.036 . S
Zn512 O540 2.053 . S
Zn512 O542 2.066 . S
O513 Zn512 2.055 . S
O513 C516 1.259 . S
C514 O542 1.256 . S
C514 O543 1.244 . S
Zn515 O517 2.046 . S
Zn515 O519 2.055 . S
Zn515 N521 2.036 . S
Zn515 O539 2.066 . S
Zn515 O543 2.053 . S
C516 O513 1.259 . S
C516 O517 1.254 . S
O517 Zn515 2.046 . S
O517 C516 1.254 . S
C518 O539 1.256 . S
C518 O540 1.244 . S
O519 Zn515 2.055 . S
O519 C541 1.259 . S
O520 Zn512 2.046 . S
O520 C541 1.254 . S
N521 Zn515 2.036 . S
N521 C522 1.298 1_655 S
N521 N524 1.398 1_655 S
C522 N521 1.298 1_455 S
C522 N525 1.367 . S
C522 C535 1.481 . S
C523 N524 1.299 . S
C523 N525 1.379 . S
N524 N521 1.398 1_455 S
N524 C523 1.299 . S
N525 C522 1.367 . S
N525 C523 1.379 . S
C526 N528 1.298 . S
C526 N530 1.367 . S
C526 C534 1.481 . S
C527 N529 1.299 . S
C527 N530 1.379 . S
N528 Zn512 2.036 . S
N528 C526 1.298 . S
N528 N529 1.398 . S
N529 C527 1.299 . S
N529 N528 1.398 . S
N530 C526 1.367 . S
N530 C527 1.379 . S
H531 C534 0.980 . S
H532 C534 0.981 . S
H533 C534 0.981 . S
C534 C526 1.481 . S
C534 H531 0.980 . S
C534 H532 0.981 . S
C534 H533 0.981 . S
C535 C522 1.481 . S
C535 H536 0.980 . S
C535 H537 0.981 . S
C535 H538 0.981 . S
H536 C535 0.980 . S
H537 C535 0.981 . S
H538 C535 0.981 . S
O539 Zn515 2.066 . S
O539 C518 1.256 . S
O540 Zn512 2.053 . S
O540 C518 1.244 . S
C541 O519 1.259 . S
C541 O520 1.254 . S
O542 Zn512 2.066 . S
O542 C514 1.256 . S
O543 C514 1.244 . S
O543 Zn515 2.053 . S
Zn544 O545 2.055 . S
Zn544 O552 2.046 . S
Zn544 N560 2.036 . S
Zn544 O572 2.053 . S
Zn544 O574 2.066 . S
O545 Zn544 2.055 . S
O545 C548 1.259 . S
C546 O574 1.256 . S
C546 O575 1.244 . S
Zn547 O549 2.046 . S
Zn547 O551 2.055 . S
Zn547 N553 2.036 . S
Zn547 O571 2.066 . S
Zn547 O575 2.053 . S
C548 O545 1.259 . S
C548 O549 1.254 . S
O549 Zn547 2.046 . S
O549 C548 1.254 . S
C550 O571 1.256 . S
C550 O572 1.244 . S
O551 Zn547 2.055 . S
O551 C573 1.259 . S
O552 Zn544 2.046 . S
O552 C573 1.254 . S
N553 Zn547 2.036 . S
N553 C554 1.298 . S
N553 N556 1.398 . S
C554 N553 1.298 . S
C554 N557 1.367 . S
C554 C567 1.481 . S
C555 N556 1.299 . S
C555 N557 1.379 . S
N556 N553 1.398 . S
N556 C555 1.299 . S
N557 C554 1.367 . S
N557 C555 1.379 . S
C558 N560 1.298 . S
C558 N562 1.367 . S
C558 C566 1.481 . S
C559 N561 1.299 . S
C559 N562 1.379 . S
N560 Zn544 2.036 . S
N560 C558 1.298 . S
N560 N561 1.398 . S
N561 C559 1.299 . S
N561 N560 1.398 . S
N562 C558 1.367 . S
N562 C559 1.379 . S
H563 C566 0.980 . S
H564 C566 0.981 . S
H565 C566 0.981 . S
C566 C558 1.481 . S
C566 H563 0.980 . S
C566 H564 0.981 . S
C566 H565 0.981 . S
C567 C554 1.481 . S
C567 H568 0.980 . S
C567 H569 0.981 . S
C567 H570 0.981 . S
H568 C567 0.980 . S
H569 C567 0.981 . S
H570 C567 0.981 . S
O571 Zn547 2.066 . S
O571 C550 1.256 . S
O572 Zn544 2.053 . S
O572 C550 1.244 . S
C573 O551 1.259 . S
C573 O552 1.254 . S
O574 Zn544 2.066 . S
O574 C546 1.256 . S
O575 C546 1.244 . S
O575 Zn547 2.053 . S
H576 C582 0.930 . S
H577 C585 0.930 . S
H578 C586 0.930 . S
H579 C587 0.930 . S
H580 C590 0.930 1_556 S
H581 C591 0.930 . S
C582 H576 0.930 . S
C582 C583 1.355 . S
C582 C584 1.415 . S
C583 C582 1.355 . S
C583 C585 1.419 1_556 S
C584 C582 1.415 . S
C584 C589 1.425 1_556 S
C584 C591 1.409 . S
C585 H577 0.930 . S
C585 C583 1.419 1_554 S
C585 C586 1.362 . S
C586 H578 0.930 . S
C586 C585 1.362 . S
C586 C589 1.409 . S
C587 H579 0.930 . S
C587 C588 1.355 . S
C587 C589 1.415 . S
C588 C587 1.355 . S
C588 C590 1.419 . S
C589 C584 1.425 1_554 S
C589 C586 1.409 . S
C589 C587 1.415 . S
C590 H580 0.930 1_554 S
C590 C588 1.419 . S
C590 C591 1.362 1_554 S
C591 H581 0.930 . S
C591 C584 1.409 . S
C591 C590 1.362 1_556 S
H592 C598 0.930 . S
H593 C601 0.930 . S
H594 C602 0.930 . S
H595 C603 0.930 . S
H596 C606 0.930 . S
H597 C607 0.930 . S
C598 H592 0.930 . S
C598 C599 1.355 . S
C598 C600 1.415 . S
C599 C598 1.355 . S
C599 C601 1.419 1_554 S
C600 C598 1.415 . S
C600 C605 1.425 1_554 S
C600 C607 1.409 . S
C601 H593 0.930 . S
C601 C599 1.419 1_556 S
C601 C602 1.362 . S
C602 H594 0.930 . S
C602 C601 1.362 . S
C602 C605 1.409 . S
C603 H595 0.930 . S
C603 C604 1.355 . S
C603 C605 1.415 . S
C604 C603 1.355 . S
C604 C606 1.419 1_556 S
C605 C600 1.425 1_556 S
C605 C602 1.409 . S
C605 C603 1.415 . S
C606 H596 0.930 . S
C606 C604 1.419 1_554 S
C606 C607 1.362 . S
C607 H597 0.930 . S
C607 C600 1.409 . S
C607 C606 1.362 . S
H608 C614 0.930 . S
H609 C617 0.930 . S
H610 C618 0.930 . S
H611 C619 0.930 . S
H612 C622 0.930 . S
H613 C623 0.930 . S
C614 H608 0.930 . S
C614 C615 1.355 . S
C614 C616 1.415 . S
C615 C614 1.355 . S
C615 C617 1.419 1_556 S
C616 C614 1.415 . S
C616 C621 1.425 1_556 S
C616 C623 1.409 . S
C617 H609 0.930 . S
C617 C615 1.419 1_554 S
C617 C618 1.362 . S
C618 H610 0.930 . S
C618 C617 1.362 . S
C618 C621 1.409 . S
C619 H611 0.930 . S
C619 C620 1.355 . S
C619 C621 1.415 . S
C620 C619 1.355 . S
C620 C622 1.419 1_554 S
C621 C616 1.425 1_554 S
C621 C618 1.409 . S
C621 C619 1.415 . S
C622 H612 0.930 . S
C622 C620 1.419 1_556 S
C622 C623 1.362 . S
C623 H613 0.930 . S
C623 C616 1.409 . S
C623 C622 1.362 . S
H624 C630 0.930 . S
H625 C633 0.930 . S
H626 C634 0.930 . S
H627 C635 0.930 . S
H628 C638 0.930 . S
H629 C639 0.930 . S
C630 H624 0.930 . S
C630 C631 1.355 . S
C630 C632 1.415 . S
C631 C630 1.355 . S
C631 C633 1.419 . S
C632 C630 1.415 . S
C632 C637 1.425 . S
C632 C639 1.409 . S
C633 H625 0.930 . S
C633 C631 1.419 . S
C633 C634 1.362 . S
C634 H626 0.930 . S
C634 C633 1.362 . S
C634 C637 1.409 . S
C635 H627 0.930 . S
C635 C636 1.355 . S
C635 C637 1.415 . S
C636 C635 1.355 . S
C636 C638 1.419 . S
C637 C632 1.425 . S
C637 C634 1.409 . S
C637 C635 1.415 . S
C638 H628 0.930 . S
C638 C636 1.419 . S
C638 C639 1.362 . S
C639 H629 0.930 . S
C639 C632 1.409 . S
C639 C638 1.362 . S
H640 C646 0.930 . S
H641 C649 0.930 . S
H642 C650 0.930 . S
H643 C651 0.930 . S
H644 C654 0.930 . S
H645 C655 0.930 . S
C646 H640 0.930 . S
C646 C647 1.355 . S
C646 C648 1.415 . S
C647 C646 1.355 . S
C647 C649 1.419 . S
C648 C646 1.415 . S
C648 C653 1.425 . S
C648 C655 1.409 . S
C649 H641 0.930 . S
C649 C647 1.419 . S
C649 C650 1.362 . S
C650 H642 0.930 . S
C650 C649 1.362 . S
C650 C653 1.409 . S
C651 H643 0.930 . S
C651 C652 1.355 . S
C651 C653 1.415 . S
C652 C651 1.355 . S
C652 C654 1.419 . S
C653 C648 1.425 . S
C653 C650 1.409 . S
C653 C651 1.415 . S
C654 H644 0.930 . S
C654 C652 1.419 . S
C654 C655 1.362 . S
C655 H645 0.930 . S
C655 C648 1.409 . S
C655 C654 1.362 . S
H656 C662 0.930 . S
H657 C665 0.930 . S
H658 C666 0.930 . S
H659 C667 0.930 . S
H660 C670 0.930 . S
H661 C671 0.930 . S
C662 H656 0.930 . S
C662 C663 1.355 . S
C662 C664 1.415 . S
C663 C662 1.355 . S
C663 C665 1.419 . S
C664 C662 1.415 . S
C664 C669 1.425 . S
C664 C671 1.409 . S
C665 H657 0.930 . S
C665 C663 1.419 . S
C665 C666 1.362 . S
C666 H658 0.930 . S
C666 C665 1.362 . S
C666 C669 1.409 . S
C667 H659 0.930 . S
C667 C668 1.355 . S
C667 C669 1.415 . S
C668 C667 1.355 . S
C668 C670 1.419 . S
C669 C664 1.425 . S
C669 C666 1.409 . S
C669 C667 1.415 . S
C670 H660 0.930 . S
C670 C668 1.419 . S
C670 C671 1.362 . S
C671 H661 0.930 . S
C671 C664 1.409 . S
C671 C670 1.362 . S
H672 C678 0.930 . S
H673 C681 0.930 . S
H674 C682 0.930 . S
H675 C683 0.930 . S
H676 C686 0.930 . S
H677 C687 0.930 . S
C678 H672 0.930 . S
C678 C679 1.355 . S
C678 C680 1.415 . S
C679 C678 1.355 . S
C679 C681 1.419 . S
C680 C678 1.415 . S
C680 C685 1.425 . S
C680 C687 1.409 . S
C681 H673 0.930 . S
C681 C679 1.419 . S
C681 C682 1.362 . S
C682 H674 0.930 . S
C682 C681 1.362 . S
C682 C685 1.409 . S
C683 H675 0.930 . S
C683 C684 1.355 . S
C683 C685 1.415 . S
C684 C683 1.355 . S
C684 C686 1.419 . S
C685 C680 1.425 . S
C685 C682 1.409 . S
C685 C683 1.415 . S
C686 H676 0.930 . S
C686 C684 1.419 . S
C686 C687 1.362 . S
C687 H677 0.930 . S
C687 C680 1.409 . S
C687 C686 1.362 . S
H688 C694 0.930 . S
H689 C697 0.930 . S
H690 C698 0.930 . S
H691 C699 0.930 . S
H692 C702 0.930 . S
H693 C703 0.930 . S
C694 H688 0.930 . S
C694 C695 1.355 . S
C694 C696 1.415 . S
C695 C694 1.355 . S
C695 C697 1.419 . S
C696 C694 1.415 . S
C696 C701 1.425 . S
C696 C703 1.409 . S
C697 H689 0.930 . S
C697 C695 1.419 . S
C697 C698 1.362 . S
C698 H690 0.930 . S
C698 C697 1.362 . S
C698 C701 1.409 . S
C699 H691 0.930 . S
C699 C700 1.355 . S
C699 C701 1.415 . S
C700 C699 1.355 . S
C700 C702 1.419 . S
C701 C696 1.425 . S
C701 C698 1.409 . S
C701 C699 1.415 . S
C702 H692 0.930 . S
C702 C700 1.419 . S
C702 C703 1.362 . S
C703 H693 0.930 . S
C703 C696 1.409 . S
C703 C702 1.362 . S
H704 C710 0.930 . S
H705 C713 0.930 . S
H706 C714 0.930 . S
H707 C715 0.930 . S
H708 C718 0.930 . S
H709 C719 0.930 . S
C710 H704 0.930 . S
C710 C711 1.355 . S
C710 C712 1.415 . S
C711 C710 1.355 . S
C711 C713 1.419 . S
C712 C710 1.415 . S
C712 C717 1.425 . S
C712 C719 1.409 . S
C713 H705 0.930 . S
C713 C711 1.419 . S
C713 C714 1.362 . S
C714 H706 0.930 . S
C714 C713 1.362 . S
C714 C717 1.409 . S
C715 H707 0.930 . S
C715 C716 1.355 . S
C715 C717 1.415 . S
C716 C715 1.355 . S
C716 C718 1.419 . S
C717 C712 1.425 . S
C717 C714 1.409 . S
C717 C715 1.415 . S
C718 H708 0.930 . S
C718 C716 1.419 . S
C718 C719 1.362 . S
C719 H709 0.930 . S
C719 C712 1.409 . S
C719 C718 1.362 . S
H720 C726 0.930 . S
H721 C729 0.930 . S
H722 C730 0.930 . S
H723 C731 0.930 . S
H724 C734 0.930 . S
H725 C735 0.930 . S
C726 H720 0.930 . S
C726 C727 1.355 . S
C726 C728 1.415 . S
C727 C726 1.355 . S
C727 C729 1.419 . S
C728 C726 1.415 . S
C728 C733 1.425 . S
C728 C735 1.409 . S
C729 H721 0.930 . S
C729 C727 1.419 . S
C729 C730 1.362 . S
C730 H722 0.930 . S
C730 C729 1.362 . S
C730 C733 1.409 . S
C731 H723 0.930 . S
C731 C732 1.355 . S
C731 C733 1.415 . S
C732 C731 1.355 . S
C732 C734 1.419 . S
C733 C728 1.425 . S
C733 C730 1.409 . S
C733 C731 1.415 . S
C734 H724 0.930 . S
C734 C732 1.419 . S
C734 C735 1.362 . S
C735 H725 0.930 . S
C735 C728 1.409 . S
C735 C734 1.362 . S
H736 C742 0.930 . S
H737 C745 0.930 . S
H738 C746 0.930 . S
H739 C747 0.930 . S
H740 C750 0.930 . S
H741 C751 0.930 . S
C742 H736 0.930 . S
C742 C743 1.355 . S
C742 C744 1.415 . S
C743 C742 1.355 . S
C743 C745 1.419 . S
C744 C742 1.415 . S
C744 C749 1.425 . S
C744 C751 1.409 . S
C745 H737 0.930 . S
C745 C743 1.419 . S
C745 C746 1.362 . S
C746 H738 0.930 . S
C746 C745 1.362 . S
C746 C749 1.409 . S
C747 H739 0.930 . S
C747 C748 1.355 . S
C747 C749 1.415 . S
C748 C747 1.355 . S
C748 C750 1.419 . S
C749 C744 1.425 . S
C749 C746 1.409 . S
C749 C747 1.415 . S
C750 H740 0.930 . S
C750 C748 1.419 . S
C750 C751 1.362 . S
C751 H741 0.930 . S
C751 C744 1.409 . S
C751 C750 1.362 . S
H752 C758 0.930 . S
H753 C761 0.930 . S
H754 C762 0.930 . S
H755 C763 0.930 . S
H756 C766 0.930 . S
H757 C767 0.930 . S
C758 H752 0.930 . S
C758 C759 1.355 . S
C758 C760 1.415 . S
C759 C758 1.355 . S
C759 C761 1.419 . S
C760 C758 1.415 . S
C760 C765 1.425 . S
C760 C767 1.409 . S
C761 H753 0.930 . S
C761 C759 1.419 . S
C761 C762 1.362 . S
C762 H754 0.930 . S
C762 C761 1.362 . S
C762 C765 1.409 . S
C763 H755 0.930 . S
C763 C764 1.355 . S
C763 C765 1.415 . S
C764 C763 1.355 . S
C764 C766 1.419 . S
C765 C760 1.425 . S
C765 C762 1.409 . S
C765 C763 1.415 . S
C766 H756 0.930 . S
C766 C764 1.419 . S
C766 C767 1.362 . S
C767 H757 0.930 . S
C767 C760 1.409 . S
C767 C766 1.362 . S
H768 C774 0.930 . S
H769 C777 0.930 . S
H770 C778 0.930 . S
H771 C779 0.930 . S
H772 C782 0.930 . S
H773 C783 0.930 . S
C774 H768 0.930 . S
C774 C775 1.355 . S
C774 C776 1.415 . S
C775 C774 1.355 . S
C775 C777 1.419 . S
C776 C774 1.415 . S
C776 C781 1.425 . S
C776 C783 1.409 . S
C777 H769 0.930 . S
C777 C775 1.419 . S
C777 C778 1.362 . S
C778 H770 0.930 . S
C778 C777 1.362 . S
C778 C781 1.409 . S
C779 H771 0.930 . S
C779 C780 1.355 . S
C779 C781 1.415 . S
C780 C779 1.355 . S
C780 C782 1.419 . S
C781 C776 1.425 . S
C781 C778 1.409 . S
C781 C779 1.415 . S
C782 H772 0.930 . S
C782 C780 1.419 . S
C782 C783 1.362 . S
C783 H773 0.930 . S
C783 C776 1.409 . S
C783 C782 1.362 . S
H784 C790 0.930 . S
H785 C793 0.930 . S
H786 C794 0.930 . S
H787 C795 0.930 . S
H788 C798 0.930 . S
H789 C799 0.930 1_545 S
C790 H784 0.930 . S
C790 C791 1.355 . S
C790 C792 1.415 . S
C791 C790 1.355 . S
C791 C793 1.419 . S
C792 C790 1.415 . S
C792 C797 1.425 1_545 S
C792 C799 1.409 1_545 S
C793 H785 0.930 . S
C793 C791 1.419 . S
C793 C794 1.362 1_545 S
C794 H786 0.930 . S
C794 C793 1.362 1_565 S
C794 C797 1.409 . S
C795 H787 0.930 . S
C795 C796 1.355 . S
C795 C797 1.415 . S
C796 C795 1.355 . S
C796 C798 1.419 . S
C797 C792 1.425 1_565 S
C797 C794 1.409 . S
C797 C795 1.415 . S
C798 H788 0.930 . S
C798 C796 1.419 . S
C798 C799 1.362 . S
C799 H789 0.930 1_565 S
C799 C792 1.409 1_565 S
C799 C798 1.362 . S
H800 C806 0.930 . S
H801 C809 0.930 . S
H802 C810 0.930 . S
H803 C811 0.930 . S
H804 C814 0.930 . S
H805 C815 0.930 . S
C806 H800 0.930 . S
C806 C807 1.355 . S
C806 C808 1.415 1_655 S
C807 C806 1.355 . S
C807 C809 1.419 . S
C808 C806 1.415 1_455 S
C808 C813 1.425 . S
C808 C815 1.409 . S
C809 H801 0.930 . S
C809 C807 1.419 . S
C809 C810 1.362 . S
C810 H802 0.930 . S
C810 C809 1.362 . S
C810 C813 1.409 1_655 S
C811 H803 0.930 . S
C811 C812 1.355 . S
C811 C813 1.415 . S
C812 C811 1.355 . S
C812 C814 1.419 . S
C813 C808 1.425 . S
C813 C810 1.409 1_455 S
C813 C811 1.415 . S
C814 H804 0.930 . S
C814 C812 1.419 . S
C814 C815 1.362 . S
C815 H805 0.930 . S
C815 C808 1.409 . S
C815 C814 1.362 . S
H816 C822 0.930 . S
H817 C825 0.930 . S
H818 C826 0.930 . S
H819 C827 0.930 . S
H820 C830 0.930 . S
H821 C831 0.930 . S
C822 H816 0.930 . S
C822 C823 1.355 . S
C822 C824 1.415 . S
C823 C822 1.355 . S
C823 C825 1.419 . S
C824 C822 1.415 . S
C824 C829 1.425 . S
C824 C831 1.409 . S
C825 H817 0.930 . S
C825 C823 1.419 . S
C825 C826 1.362 . S
C826 H818 0.930 . S
C826 C825 1.362 . S
C826 C829 1.409 . S
C827 H819 0.930 . S
C827 C828 1.355 . S
C827 C829 1.415 . S
C828 C827 1.355 . S
C828 C830 1.419 . S
C829 C824 1.425 . S
C829 C826 1.409 . S
C829 C827 1.415 . S
C830 H820 0.930 . S
C830 C828 1.419 . S
C830 C831 1.362 . S
C831 H821 0.930 . S
C831 C824 1.409 . S
C831 C830 1.362 . S
H832 C838 0.930 . S
H833 C841 0.930 . S
H834 C842 0.930 . S
H835 C843 0.930 . S
H836 C846 0.930 . S
H837 C847 0.930 . S
C838 H832 0.930 . S
C838 C839 1.355 . S
C838 C840 1.415 . S
C839 C838 1.355 . S
C839 C841 1.419 . S
C840 C838 1.415 . S
C840 C845 1.425 . S
C840 C847 1.409 . S
C841 H833 0.930 . S
C841 C839 1.419 . S
C841 C842 1.362 . S
C842 H834 0.930 . S
C842 C841 1.362 . S
C842 C845 1.409 . S
C843 H835 0.930 . S
C843 C844 1.355 . S
C843 C845 1.415 1_545 S
C844 C843 1.355 . S
C844 C846 1.419 . S
C845 C840 1.425 . S
C845 C842 1.409 . S
C845 C843 1.415 1_565 S
C846 H836 0.930 . S
C846 C844 1.419 . S
C846 C847 1.362 1_545 S
C847 H837 0.930 . S
C847 C840 1.409 . S
C847 C846 1.362 1_565 S
H848 C854 0.930 . S
H849 C857 0.930 . S
H850 C858 0.930 1_655 S
H851 C859 0.930 . S
H852 C862 0.930 . S
H853 C863 0.930 . S
C854 H848 0.930 . S
C854 C855 1.355 . S
C854 C856 1.415 . S
C855 C854 1.355 . S
C855 C857 1.419 . S
C856 C854 1.415 . S
C856 C861 1.425 1_455 S
C856 C863 1.409 . S
C857 H849 0.930 . S
C857 C855 1.419 . S
C857 C858 1.362 . S
C858 H850 0.930 1_455 S
C858 C857 1.362 . S
C858 C861 1.409 1_455 S
C859 H851 0.930 . S
C859 C860 1.355 . S
C859 C861 1.415 . S
C860 C859 1.355 . S
C860 C862 1.419 . S
C861 C856 1.425 1_655 S
C861 C858 1.409 1_655 S
C861 C859 1.415 . S
C862 H852 0.930 . S
C862 C860 1.419 . S
C862 C863 1.362 1_655 S
C863 H853 0.930 . S
C863 C856 1.409 . S
C863 C862 1.362 1_455 S
H864 C870 0.930 . S
H865 C873 0.930 . S
H866 C874 0.930 . S
H867 C875 0.930 . S
H868 C878 0.930 . S
H869 C879 0.930 . S
C870 H864 0.930 . S
C870 C871 1.355 . S
C870 C872 1.415 . S
C871 C870 1.355 . S
C871 C873 1.419 . S
C872 C870 1.415 . S
C872 C877 1.425 . S
C872 C879 1.409 . S
C873 H865 0.930 . S
C873 C871 1.419 . S
C873 C874 1.362 . S
C874 H866 0.930 . S
C874 C873 1.362 . S
C874 C877 1.409 . S
C875 H867 0.930 . S
C875 C876 1.355 . S
C875 C877 1.415 . S
C876 C875 1.355 . S
C876 C878 1.419 . S
C877 C872 1.425 . S
C877 C874 1.409 . S
C877 C875 1.415 . S
C878 H868 0.930 . S
C878 C876 1.419 . S
C878 C879 1.362 . S
C879 H869 0.930 . S
C879 C872 1.409 . S
C879 C878 1.362 . S
H880 C886 0.930 . S
H881 C889 0.930 . S
H882 C890 0.930 . S
H883 C891 0.930 . S
H884 C894 0.930 . S
H885 C895 0.930 . S
C886 H880 0.930 . S
C886 C887 1.355 . S
C886 C888 1.415 . S
C887 C886 1.355 . S
C887 C889 1.419 . S
C888 C886 1.415 . S
C888 C893 1.425 . S
C888 C895 1.409 . S
C889 H881 0.930 . S
C889 C887 1.419 . S
C889 C890 1.362 . S
C890 H882 0.930 . S
C890 C889 1.362 . S
C890 C893 1.409 . S
C891 H883 0.930 . S
C891 C892 1.355 . S
C891 C893 1.415 . S
C892 C891 1.355 . S
C892 C894 1.419 . S
C893 C888 1.425 . S
C893 C890 1.409 . S
C893 C891 1.415 . S
C894 H884 0.930 . S
C894 C892 1.419 . S
C894 C895 1.362 . S
C895 H885 0.930 . S
C895 C888 1.409 . S
C895 C894 1.362 . S
H896 C902 0.930 . S
H897 C905 0.930 . S
H898 C906 0.930 . S
H899 C907 0.930 . S
H900 C910 0.930 . S
H901 C911 0.930 . S
C902 H896 0.930 . S
C902 C903 1.355 . S
C902 C904 1.415 . S
C903 C902 1.355 . S
C903 C905 1.419 . S
C904 C902 1.415 . S
C904 C909 1.425 . S
C904 C911 1.409 . S
C905 H897 0.930 . S
C905 C903 1.419 . S
C905 C906 1.362 . S
C906 H898 0.930 . S
C906 C905 1.362 . S
C906 C909 1.409 . S
C907 H899 0.930 . S
C907 C908 1.355 . S
C907 C909 1.415 . S
C908 C907 1.355 . S
C908 C910 1.419 . S
C909 C904 1.425 . S
C909 C906 1.409 . S
C909 C907 1.415 . S
C910 H900 0.930 . S
C910 C908 1.419 . S
C910 C911 1.362 . S
C911 H901 0.930 . S
C911 C904 1.409 . S
C911 C910 1.362 . S
H912 C918 0.930 . S
H913 C921 0.930 . S
H914 C922 0.930 . S
H915 C923 0.930 . S
H916 C926 0.930 . S
H917 C927 0.930 . S
C918 H912 0.930 . S
C918 C919 1.355 . S
C918 C920 1.415 . S
C919 C918 1.355 . S
C919 C921 1.419 . S
C920 C918 1.415 . S
C920 C925 1.425 . S
C920 C927 1.409 . S
C921 H913 0.930 . S
C921 C919 1.419 . S
C921 C922 1.362 . S
C922 H914 0.930 . S
C922 C921 1.362 . S
C922 C925 1.409 . S
C923 H915 0.930 . S
C923 C924 1.355 . S
C923 C925 1.415 . S
C924 C923 1.355 . S
C924 C926 1.419 . S
C925 C920 1.425 . S
C925 C922 1.409 . S
C925 C923 1.415 . S
C926 H916 0.930 . S
C926 C924 1.419 . S
C926 C927 1.362 . S
C927 H917 0.930 . S
C927 C920 1.409 . S
C927 C926 1.362 . S
H928 C934 0.930 . S
H929 C937 0.930 . S
H930 C938 0.930 . S
H931 C939 0.930 . S
H932 C942 0.930 . S
H933 C943 0.930 . S
C934 H928 0.930 . S
C934 C935 1.355 . S
C934 C936 1.415 . S
C935 C934 1.355 . S
C935 C937 1.419 . S
C936 C934 1.415 . S
C936 C941 1.425 . S
C936 C943 1.409 . S
C937 H929 0.930 . S
C937 C935 1.419 . S
C937 C938 1.362 . S
C938 H930 0.930 . S
C938 C937 1.362 . S
C938 C941 1.409 . S
C939 H931 0.930 . S
C939 C940 1.355 . S
C939 C941 1.415 . S
C940 C939 1.355 . S
C940 C942 1.419 . S
C941 C936 1.425 . S
C941 C938 1.409 . S
C941 C939 1.415 . S
C942 H932 0.930 . S
C942 C940 1.419 . S
C942 C943 1.362 . S
C943 H933 0.930 . S
C943 C936 1.409 . S
C943 C942 1.362 . S
H944 C950 0.930 . S
H945 C953 0.930 . S
H946 C954 0.930 . S
H947 C955 0.930 . S
H948 C958 0.930 . S
H949 C959 0.930 . S
C950 H944 0.930 . S
C950 C951 1.355 . S
C950 C952 1.415 . S
C951 C950 1.355 . S
C951 C953 1.419 . S
C952 C950 1.415 . S
C952 C957 1.425 . S
C952 C959 1.409 . S
C953 H945 0.930 . S
C953 C951 1.419 . S
C953 C954 1.362 . S
C954 H946 0.930 . S
C954 C953 1.362 . S
C954 C957 1.409 . S
C955 H947 0.930 . S
C955 C956 1.355 . S
C955 C957 1.415 . S
C956 C955 1.355 . S
C956 C958 1.419 . S
C957 C952 1.425 . S
C957 C954 1.409 . S
C957 C955 1.415 . S
C958 H948 0.930 . S
C958 C956 1.419 . S
C958 C959 1.362 . S
C959 H949 0.930 . S
C959 C952 1.409 . S
C959 C958 1.362 . S
H960 C966 0.930 . S
H961 C969 0.930 . S
H962 C970 0.930 . S
H963 C971 0.930 . S
H964 C974 0.930 . S
H965 C975 0.930 . S
C966 H960 0.930 . S
C966 C967 1.355 . S
C966 C968 1.415 . S
C967 C966 1.355 . S
C967 C969 1.419 . S
C968 C966 1.415 . S
C968 C973 1.425 . S
C968 C975 1.409 . S
C969 H961 0.930 . S
C969 C967 1.419 . S
C969 C970 1.362 . S
C970 H962 0.930 . S
C970 C969 1.362 . S
C970 C973 1.409 . S
C971 H963 0.930 . S
C971 C972 1.355 . S
C971 C973 1.415 . S
C972 C971 1.355 . S
C972 C974 1.419 . S
C973 C968 1.425 . S
C973 C970 1.409 . S
C973 C971 1.415 . S
C974 H964 0.930 . S
C974 C972 1.419 . S
C974 C975 1.362 . S
C975 H965 0.930 . S
C975 C968 1.409 . S
C975 C974 1.362 . S
H976 C982 0.930 . S
H977 C985 0.930 . S
H978 C986 0.930 . S
H979 C987 0.930 . S
H980 C990 0.930 . S
H981 C991 0.930 . S
C982 H976 0.930 . S
C982 C983 1.355 . S
C982 C984 1.415 . S
C983 C982 1.355 . S
C983 C985 1.419 . S
C984 C982 1.415 . S
C984 C989 1.425 . S
C984 C991 1.409 . S
C985 H977 0.930 . S
C985 C983 1.419 . S
C985 C986 1.362 . S
C986 H978 0.930 . S
C986 C985 1.362 . S
C986 C989 1.409 . S
C987 H979 0.930 . S
C987 C988 1.355 . S
C987 C989 1.415 . S
C988 C987 1.355 . S
C988 C990 1.419 . S
C989 C984 1.425 . S
C989 C986 1.409 . S
C989 C987 1.415 . S
C990 H980 0.930 . S
C990 C988 1.419 . S
C990 C991 1.362 . S
C991 H981 0.930 . S
C991 C984 1.409 . S
C991 C990 1.362 . S
H992 C998 0.930 . S
H993 C1001 0.930 . S
H994 C1002 0.930 . S
H995 C1003 0.930 . S
H996 C1006 0.930 . S
H997 C1007 0.930 . S
C998 H992 0.930 . S
C998 C999 1.355 . S
C998 C1000 1.415 . S
C999 C998 1.355 . S
C999 C1001 1.419 . S
C1000 C998 1.415 . S
C1000 C1005 1.425 . S
C1000 C1007 1.409 . S
C1001 H993 0.930 . S
C1001 C999 1.419 . S
C1001 C1002 1.362 . S
C1002 H994 0.930 . S
C1002 C1001 1.362 . S
C1002 C1005 1.409 . S
C1003 H995 0.930 . S
C1003 C1004 1.355 . S
C1003 C1005 1.415 . S
C1004 C1003 1.355 . S
C1004 C1006 1.419 . S
C1005 C1000 1.425 . S
C1005 C1002 1.409 . S
C1005 C1003 1.415 . S
C1006 H996 0.930 . S
C1006 C1004 1.419 . S
C1006 C1007 1.362 . S
C1007 H997 0.930 . S
C1007 C1000 1.409 . S
C1007 C1006 1.362 . S
H1008 C1014 0.930 . S
H1009 C1017 0.930 . S
H1010 C1018 0.930 . S
H1011 C1019 0.930 . S
H1012 C1022 0.930 . S
H1013 C1023 0.930 . S
C1014 H1008 0.930 . S
C1014 C1015 1.355 . S
C1014 C1016 1.415 . S
C1015 C1014 1.355 . S
C1015 C1017 1.419 . S
C1016 C1014 1.415 . S
C1016 C1021 1.425 . S
C1016 C1023 1.409 . S
C1017 H1009 0.930 . S
C1017 C1015 1.419 . S
C1017 C1018 1.362 . S
C1018 H1010 0.930 . S
C1018 C1017 1.362 . S
C1018 C1021 1.409 . S
C1019 H1011 0.930 . S
C1019 C1020 1.355 . S
C1019 C1021 1.415 . S
C1020 C1019 1.355 . S
C1020 C1022 1.419 . S
C1021 C1016 1.425 . S
C1021 C1018 1.409 . S
C1021 C1019 1.415 . S
C1022 H1012 0.930 . S
C1022 C1020 1.419 . S
C1022 C1023 1.362 . S
C1023 H1013 0.930 . S
C1023 C1016 1.409 . S
C1023 C1022 1.362 . S
H1024 C1030 0.930 . S
H1025 C1033 0.930 . S
H1026 C1034 0.930 . S
H1027 C1035 0.930 . S
H1028 C1038 0.930 . S
H1029 C1039 0.930 . S
C1030 H1024 0.930 . S
C1030 C1031 1.355 . S
C1030 C1032 1.415 . S
C1031 C1030 1.355 . S
C1031 C1033 1.419 . S
C1032 C1030 1.415 . S
C1032 C1037 1.425 . S
C1032 C1039 1.409 . S
C1033 H1025 0.930 . S
C1033 C1031 1.419 . S
C1033 C1034 1.362 . S
C1034 H1026 0.930 . S
C1034 C1033 1.362 . S
C1034 C1037 1.409 . S
C1035 H1027 0.930 . S
C1035 C1036 1.355 . S
C1035 C1037 1.415 . S
C1036 C1035 1.355 . S
C1036 C1038 1.419 . S
C1037 C1032 1.425 . S
C1037 C1034 1.409 . S
C1037 C1035 1.415 . S
C1038 H1028 0.930 . S
C1038 C1036 1.419 . S
C1038 C1039 1.362 . S
C1039 H1029 0.930 . S
C1039 C1032 1.409 . S
C1039 C1038 1.362 . S
H1040 C1046 0.935 . S
H1041 C1049 0.930 . S
H1042 C1050 0.930 . S
H1043 C1051 0.930 . S
H1044 C1054 0.930 . S
H1045 C1055 0.930 . S
C1046 H1040 0.935 . S
C1046 C1047 1.355 . S
C1046 C1048 1.415 . S
C1047 C1046 1.355 . S
C1047 C1049 1.419 . S
C1048 C1046 1.415 . S
C1048 C1053 1.425 . S
C1048 C1055 1.409 . S
C1049 H1041 0.930 . S
C1049 C1047 1.419 . S
C1049 C1050 1.362 . S
C1050 H1042 0.930 . S
C1050 C1049 1.362 . S
C1050 C1053 1.409 . S
C1051 H1043 0.930 . S
C1051 C1052 1.355 . S
C1051 C1053 1.415 . S
C1052 C1051 1.355 . S
C1052 C1054 1.419 . S
C1053 C1048 1.425 . S
C1053 C1050 1.409 . S
C1053 C1051 1.415 . S
C1054 H1044 0.930 . S
C1054 C1052 1.419 . S
C1054 C1055 1.362 . S
C1055 H1045 0.930 . S
C1055 C1048 1.409 . S
C1055 C1054 1.362 . S
H1056 C1062 0.930 . S
H1057 C1065 0.930 . S
H1058 C1066 0.930 . S
H1059 C1067 0.930 . S
H1060 C1070 0.930 . S
H1061 C1071 0.930 . S
C1062 H1056 0.930 . S
C1062 C1063 1.355 . S
C1062 C1064 1.415 . S
C1063 C1062 1.355 . S
C1063 C1065 1.419 . S
C1064 C1062 1.415 . S
C1064 C1069 1.425 . S
C1064 C1071 1.409 . S
C1065 H1057 0.930 . S
C1065 C1063 1.419 . S
C1065 C1066 1.362 . S
C1066 H1058 0.930 . S
C1066 C1065 1.362 . S
C1066 C1069 1.409 . S
C1067 H1059 0.930 . S
C1067 C1068 1.355 . S
C1067 C1069 1.415 1_554 S
C1068 C1067 1.355 . S
C1068 C1070 1.419 1_554 S
C1069 C1064 1.425 . S
C1069 C1066 1.409 . S
C1069 C1067 1.415 1_556 S
C1070 H1060 0.930 . S
C1070 C1068 1.419 1_556 S
C1070 C1071 1.362 . S
C1071 H1061 0.930 . S
C1071 C1064 1.409 . S
C1071 C1070 1.362 . S
H1072 C1078 0.930 . S
H1073 C1081 0.930 . S
H1074 C1082 0.930 . S
H1075 C1083 0.930 . S
H1076 C1086 0.930 . S
H1077 C1087 0.930 . S
C1078 H1072 0.930 . S
C1078 C1079 1.355 . S
C1078 C1080 1.415 . S
C1079 C1078 1.355 . S
C1079 C1081 1.419 . S
C1080 C1078 1.415 . S
C1080 C1085 1.425 . S
C1080 C1087 1.409 . S
C1081 H1073 0.930 . S
C1081 C1079 1.419 . S
C1081 C1082 1.362 . S
C1082 H1074 0.930 . S
C1082 C1081 1.362 . S
C1082 C1085 1.409 . S
C1083 H1075 0.930 . S
C1083 C1084 1.355 1_556 S
C1083 C1085 1.415 . S
C1084 C1083 1.355 1_554 S
C1084 C1086 1.419 . S
C1085 C1080 1.425 . S
C1085 C1082 1.409 . S
C1085 C1083 1.415 . S
C1086 H1076 0.930 . S
C1086 C1084 1.419 . S
C1086 C1087 1.362 1_554 S
C1087 H1077 0.930 . S
C1087 C1080 1.409 . S
C1087 C1086 1.362 1_556 S
H1088 C1094 0.930 . S
H1089 C1097 0.930 . S
H1090 C1098 0.930 . S
H1091 C1099 0.930 . S
H1092 C1102 0.930 . S
H1093 C1103 0.930 . S
C1094 H1088 0.930 . S
C1094 C1095 1.355 . S
C1094 C1096 1.415 . S
C1095 C1094 1.355 . S
C1095 C1097 1.419 . S
C1096 C1094 1.415 . S
C1096 C1101 1.425 . S
C1096 C1103 1.409 . S
C1097 H1089 0.930 . S
C1097 C1095 1.419 . S
C1097 C1098 1.362 . S
C1098 H1090 0.930 . S
C1098 C1097 1.362 . S
C1098 C1101 1.409 . S
C1099 H1091 0.930 . S
C1099 C1100 1.355 1_556 S
C1099 C1101 1.415 . S
C1100 C1099 1.355 1_554 S
C1100 C1102 1.419 . S
C1101 C1096 1.425 . S
C1101 C1098 1.409 . S
C1101 C1099 1.415 . S
C1102 H1092 0.930 . S
C1102 C1100 1.419 . S
C1102 C1103 1.362 1_554 S
C1103 H1093 0.930 . S
C1103 C1096 1.409 . S
C1103 C1102 1.362 1_556 S
H1104 C1110 0.930 . S
H1105 C1113 0.930 . S
H1106 C1114 0.930 . S
H1107 C1115 0.930 . S
H1108 C1118 0.930 . S
H1109 C1119 0.930 . S
C1110 H1104 0.930 . S
C1110 C1111 1.355 . S
C1110 C1112 1.415 . S
C1111 C1110 1.355 . S
C1111 C1113 1.419 . S
C1112 C1110 1.415 . S
C1112 C1117 1.425 . S
C1112 C1119 1.409 . S
C1113 H1105 0.930 . S
C1113 C1111 1.419 . S
C1113 C1114 1.362 . S
C1114 H1106 0.930 . S
C1114 C1113 1.362 . S
C1114 C1117 1.409 . S
C1115 H1107 0.930 . S
C1115 C1116 1.355 . S
C1115 C1117 1.415 . S
C1116 C1115 1.355 . S
C1116 C1118 1.419 . S
C1117 C1112 1.425 . S
C1117 C1114 1.409 . S
C1117 C1115 1.415 . S
C1118 H1108 0.930 . S
C1118 C1116 1.419 . S
C1118 C1119 1.362 . S
C1119 H1109 0.930 . S
C1119 C1112 1.409 . S
C1119 C1118 1.362 . S
H1120 C1126 0.930 . S
H1121 C1129 0.930 . S
H1122 C1130 0.930 . S
H1123 C1131 0.930 . S
H1124 C1134 0.930 . S
H1125 C1135 0.930 . S
C1126 H1120 0.930 . S
C1126 C1127 1.355 . S
C1126 C1128 1.415 . S
C1127 C1126 1.355 . S
C1127 C1129 1.419 . S
C1128 C1126 1.415 . S
C1128 C1133 1.425 . S
C1128 C1135 1.409 . S
C1129 H1121 0.930 . S
C1129 C1127 1.419 . S
C1129 C1130 1.362 . S
C1130 H1122 0.930 . S
C1130 C1129 1.362 . S
C1130 C1133 1.409 . S
C1131 H1123 0.930 . S
C1131 C1132 1.355 . S
C1131 C1133 1.415 . S
C1132 C1131 1.355 . S
C1132 C1134 1.419 . S
C1133 C1128 1.425 . S
C1133 C1130 1.409 . S
C1133 C1131 1.415 . S
C1134 H1124 0.930 . S
C1134 C1132 1.419 . S
C1134 C1135 1.362 . S
C1135 H1125 0.930 . S
C1135 C1128 1.409 . S
C1135 C1134 1.362 . S
H1136 C1142 0.930 . S
H1137 C1145 0.930 . S
H1138 C1146 0.930 . S
H1139 C1147 0.930 . S
H1140 C1150 0.930 . S
H1141 C1151 0.930 . S
C1142 H1136 0.930 . S
C1142 C1143 1.355 . S
C1142 C1144 1.415 . S
C1143 C1142 1.355 . S
C1143 C1145 1.419 . S
C1144 C1142 1.415 . S
C1144 C1149 1.425 . S
C1144 C1151 1.409 . S
C1145 H1137 0.930 . S
C1145 C1143 1.419 . S
C1145 C1146 1.362 . S
C1146 H1138 0.930 . S
C1146 C1145 1.362 . S
C1146 C1149 1.409 . S
C1147 H1139 0.930 . S
C1147 C1148 1.355 . S
C1147 C1149 1.415 . S
C1148 C1147 1.355 . S
C1148 C1150 1.419 . S
C1149 C1144 1.425 . S
C1149 C1146 1.409 . S
C1149 C1147 1.415 . S
C1150 H1140 0.930 . S
C1150 C1148 1.419 . S
C1150 C1151 1.362 . S
C1151 H1141 0.930 . S
C1151 C1144 1.409 . S
C1151 C1150 1.362 . S
H1152 C1158 0.930 . S
H1153 C1161 0.930 . S
H1154 C1162 0.930 . S
H1155 C1163 0.930 . S
H1156 C1166 0.930 1_545 S
H1157 C1167 0.930 . S
C1158 H1152 0.930 . S
C1158 C1159 1.355 . S
C1158 C1160 1.415 . S
C1159 C1158 1.355 . S
C1159 C1161 1.419 . S
C1160 C1158 1.415 . S
C1160 C1165 1.425 . S
C1160 C1167 1.409 . S
C1161 H1153 0.930 . S
C1161 C1159 1.419 . S
C1161 C1162 1.362 . S
C1162 H1154 0.930 . S
C1162 C1161 1.362 . S
C1162 C1165 1.409 . S
C1163 H1155 0.930 . S
C1163 C1164 1.355 . S
C1163 C1165 1.415 . S
C1164 C1163 1.355 . S
C1164 C1166 1.419 . S
C1165 C1160 1.425 . S
C1165 C1162 1.409 . S
C1165 C1163 1.415 . S
C1166 H1156 0.930 1_565 S
C1166 C1164 1.419 . S
C1166 C1167 1.362 . S
C1167 H1157 0.930 . S
C1167 C1160 1.409 . S
C1167 C1166 1.362 . S
H1168 C1174 0.930 . S
H1169 C1177 0.930 1_554 S
H1170 C1178 0.930 1_554 S
H1171 C1179 0.930 . S
H1172 C1182 0.930 . S
H1173 C1183 0.930 . S
C1174 H1168 0.930 . S
C1174 C1175 1.355 . S
C1174 C1176 1.415 . S
C1175 C1174 1.355 . S
C1175 C1177 1.419 . S
C1176 C1174 1.415 . S
C1176 C1181 1.425 . S
C1176 C1183 1.409 . S
C1177 H1169 0.930 1_556 S
C1177 C1175 1.419 . S
C1177 C1178 1.362 . S
C1178 H1170 0.930 1_556 S
C1178 C1177 1.362 . S
C1178 C1181 1.409 . S
C1179 H1171 0.930 . S
C1179 C1180 1.355 . S
C1179 C1181 1.415 . S
C1180 C1179 1.355 . S
C1180 C1182 1.419 . S
C1181 C1176 1.425 . S
C1181 C1178 1.409 . S
C1181 C1179 1.415 . S
C1182 H1172 0.930 . S
C1182 C1180 1.419 . S
C1182 C1183 1.362 . S
C1183 H1173 0.930 . S
C1183 C1176 1.409 . S
C1183 C1182 1.362 . S
H1184 C1190 0.930 . S
H1185 C1193 0.930 . S
H1186 C1194 0.930 . S
H1187 C1195 0.930 . S
H1188 C1198 0.930 . S
H1189 C1199 0.930 . S
C1190 H1184 0.930 . S
C1190 C1191 1.355 . S
C1190 C1192 1.415 . S
C1191 C1190 1.355 . S
C1191 C1193 1.419 . S
C1192 C1190 1.415 . S
C1192 C1197 1.425 . S
C1192 C1199 1.409 . S
C1193 H1185 0.930 . S
C1193 C1191 1.419 . S
C1193 C1194 1.362 . S
C1194 H1186 0.930 . S
C1194 C1193 1.362 . S
C1194 C1197 1.409 . S
C1195 H1187 0.930 . S
C1195 C1196 1.355 . S
C1195 C1197 1.415 . S
C1196 C1195 1.355 . S
C1196 C1198 1.419 . S
C1197 C1192 1.425 . S
C1197 C1194 1.409 . S
C1197 C1195 1.415 . S
C1198 H1188 0.930 . S
C1198 C1196 1.419 . S
C1198 C1199 1.362 . S
C1199 H1189 0.930 . S
C1199 C1192 1.409 . S
C1199 C1198 1.362 . S
H1200 C1206 0.930 . S
H1201 C1209 0.930 . S
H1202 C1210 0.930 . S
H1203 C1211 0.930 . S
H1204 C1214 0.930 . S
H1205 C1215 0.930 . S
C1206 H1200 0.930 . S
C1206 C1207 1.355 . S
C1206 C1208 1.415 . S
C1207 C1206 1.355 . S
C1207 C1209 1.419 . S
C1208 C1206 1.415 . S
C1208 C1213 1.425 . S
C1208 C1215 1.409 . S
C1209 H1201 0.930 . S
C1209 C1207 1.419 . S
C1209 C1210 1.362 . S
C1210 H1202 0.930 . S
C1210 C1209 1.362 . S
C1210 C1213 1.409 . S
C1211 H1203 0.930 . S
C1211 C1212 1.355 . S
C1211 C1213 1.415 . S
C1212 C1211 1.355 . S
C1212 C1214 1.419 . S
C1213 C1208 1.425 . S
C1213 C1210 1.409 . S
C1213 C1211 1.415 . S
C1214 H1204 0.930 . S
C1214 C1212 1.419 . S
C1214 C1215 1.362 . S
C1215 H1205 0.930 . S
C1215 C1208 1.409 . S
C1215 C1214 1.362 . S
H1216 C1222 0.930 . S
H1217 C1225 0.930 . S
H1218 C1226 0.930 . S
H1219 C1227 0.930 . S
H1220 C1230 0.930 . S
H1221 C1231 0.930 . S
C1222 H1216 0.930 . S
C1222 C1223 1.355 . S
C1222 C1224 1.415 . S
C1223 C1222 1.355 . S
C1223 C1225 1.419 . S
C1224 C1222 1.415 . S
C1224 C1229 1.425 . S
C1224 C1231 1.409 . S
C1225 H1217 0.930 . S
C1225 C1223 1.419 . S
C1225 C1226 1.362 . S
C1226 H1218 0.930 . S
C1226 C1225 1.362 . S
C1226 C1229 1.409 . S
C1227 H1219 0.930 . S
C1227 C1228 1.355 . S
C1227 C1229 1.415 . S
C1228 C1227 1.355 . S
C1228 C1230 1.419 . S
C1229 C1224 1.425 . S
C1229 C1226 1.409 . S
C1229 C1227 1.415 . S
C1230 H1220 0.930 . S
C1230 C1228 1.419 . S
C1230 C1231 1.362 . S
C1231 H1221 0.930 . S
C1231 C1224 1.409 . S
C1231 C1230 1.362 . S
H1232 C1238 0.930 . S
H1233 C1241 0.930 . S
H1234 C1242 0.930 . S
H1235 C1243 0.930 . S
H1236 C1246 0.930 . S
H1237 C1247 0.930 . S
C1238 H1232 0.930 . S
C1238 C1239 1.355 . S
C1238 C1240 1.415 . S
C1239 C1238 1.355 . S
C1239 C1241 1.419 . S
C1240 C1238 1.415 . S
C1240 C1245 1.425 . S
C1240 C1247 1.409 . S
C1241 H1233 0.930 . S
C1241 C1239 1.419 . S
C1241 C1242 1.362 . S
C1242 H1234 0.930 . S
C1242 C1241 1.362 . S
C1242 C1245 1.409 . S
C1243 H1235 0.930 . S
C1243 C1244 1.355 . S
C1243 C1245 1.415 . S
C1244 C1243 1.355 . S
C1244 C1246 1.419 . S
C1245 C1240 1.425 . S
C1245 C1242 1.409 . S
C1245 C1243 1.415 . S
C1246 H1236 0.930 . S
C1246 C1244 1.419 . S
C1246 C1247 1.362 . S
C1247 H1237 0.930 . S
C1247 C1240 1.409 . S
C1247 C1246 1.362 . S
H1248 C1254 0.930 . S
H1249 C1257 0.930 . S
H1250 C1258 0.930 . S
H1251 C1259 0.930 . S
H1252 C1262 0.914 1_655 S
H1253 C1263 0.930 . S
C1254 H1248 0.930 . S
C1254 C1255 1.355 . S
C1254 C1256 1.415 . S
C1255 C1254 1.355 . S
C1255 C1257 1.419 . S
C1256 C1254 1.415 . S
C1256 C1261 1.425 . S
C1256 C1263 1.409 . S
C1257 H1249 0.930 . S
C1257 C1255 1.419 . S
C1257 C1258 1.362 . S
C1258 H1250 0.930 . S
C1258 C1257 1.362 . S
C1258 C1261 1.409 . S
C1259 H1251 0.930 . S
C1259 C1260 1.355 . S
C1259 C1261 1.415 . S
C1260 C1259 1.355 . S
C1260 C1262 1.428 . S
C1261 C1256 1.425 . S
C1261 C1258 1.409 . S
C1261 C1259 1.415 . S
C1262 H1252 0.914 1_455 S
C1262 C1260 1.428 . S
C1262 C1263 1.370 . S
C1263 H1253 0.930 . S
C1263 C1256 1.409 . S
C1263 C1262 1.370 . S
H1264 C1270 0.930 . S
H1265 C1273 0.930 . S
H1266 C1274 0.930 . S
H1267 C1275 0.930 . S
H1268 C1278 0.930 . S
H1269 C1279 0.930 . S
C1270 H1264 0.930 . S
C1270 C1271 1.355 . S
C1270 C1272 1.415 . S
C1271 C1270 1.355 . S
C1271 C1273 1.419 . S
C1272 C1270 1.415 . S
C1272 C1277 1.425 . S
C1272 C1279 1.409 . S
C1273 H1265 0.930 . S
C1273 C1271 1.419 . S
C1273 C1274 1.362 . S
C1274 H1266 0.930 . S
C1274 C1273 1.362 . S
C1274 C1277 1.409 . S
C1275 H1267 0.930 . S
C1275 C1276 1.355 . S
C1275 C1277 1.415 . S
C1276 C1275 1.355 . S
C1276 C1278 1.419 . S
C1277 C1272 1.425 . S
C1277 C1274 1.409 . S
C1277 C1275 1.415 . S
C1278 H1268 0.930 . S
C1278 C1276 1.419 . S
C1278 C1279 1.362 . S
C1279 H1269 0.930 . S
C1279 C1272 1.409 . S
C1279 C1278 1.362 . S
H1280 C1286 0.930 . S
H1281 C1289 0.930 . S
H1282 C1290 0.930 . S
H1283 C1291 0.930 1_545 S
H1284 C1294 0.930 . S
H1285 C1295 0.930 . S
C1286 H1280 0.930 . S
C1286 C1287 1.355 . S
C1286 C1288 1.415 . S
C1287 C1286 1.355 . S
C1287 C1289 1.419 . S
C1288 C1286 1.415 . S
C1288 C1293 1.425 . S
C1288 C1295 1.409 . S
C1289 H1281 0.930 . S
C1289 C1287 1.419 . S
C1289 C1290 1.362 . S
C1290 H1282 0.930 . S
C1290 C1289 1.362 . S
C1290 C1293 1.409 . S
C1291 H1283 0.930 1_565 S
C1291 C1292 1.355 . S
C1291 C1293 1.415 . S
C1292 C1291 1.355 . S
C1292 C1294 1.419 . S
C1293 C1288 1.425 . S
C1293 C1290 1.409 . S
C1293 C1291 1.415 . S
C1294 H1284 0.930 . S
C1294 C1292 1.419 . S
C1294 C1295 1.362 . S
C1295 H1285 0.930 . S
C1295 C1288 1.409 . S
C1295 C1294 1.362 . S
H1296 C1302 0.930 . S
H1297 C1305 0.930 . S
H1298 C1306 0.930 . S
H1299 C1307 0.930 . S
H1300 C1310 0.930 . S
H1301 C1311 0.930 . S
C1302 H1296 0.930 . S
C1302 C1303 1.355 . S
C1302 C1304 1.415 . S
C1303 C1302 1.355 . S
C1303 C1305 1.419 . S
C1304 C1302 1.415 . S
C1304 C1309 1.425 . S
C1304 C1311 1.409 . S
C1305 H1297 0.930 . S
C1305 C1303 1.419 . S
C1305 C1306 1.362 . S
C1306 H1298 0.930 . S
C1306 C1305 1.362 . S
C1306 C1309 1.409 . S
C1307 H1299 0.930 . S
C1307 C1308 1.355 . S
C1307 C1309 1.415 . S
C1308 C1307 1.355 . S
C1308 C1310 1.419 . S
C1309 C1304 1.425 . S
C1309 C1306 1.409 . S
C1309 C1307 1.415 . S
C1310 H1300 0.930 . S
C1310 C1308 1.419 . S
C1310 C1311 1.362 . S
C1311 H1301 0.930 . S
C1311 C1304 1.409 . S
C1311 C1310 1.362 . S
H1312 C1318 0.930 . S
H1313 C1321 0.930 1_655 S
H1314 C1322 0.930 . S
H1315 C1323 0.930 . S
H1316 C1326 0.930 . S
H1317 C1327 0.930 . S
C1318 H1312 0.930 . S
C1318 C1319 1.355 . S
C1318 C1320 1.415 . S
C1319 C1318 1.355 . S
C1319 C1321 1.419 . S
C1320 C1318 1.415 . S
C1320 C1325 1.425 . S
C1320 C1327 1.409 . S
C1321 H1313 0.930 1_455 S
C1321 C1319 1.419 . S
C1321 C1322 1.362 . S
C1322 H1314 0.930 . S
C1322 C1321 1.362 . S
C1322 C1325 1.409 . S
C1323 H1315 0.930 . S
C1323 C1324 1.355 . S
C1323 C1325 1.415 . S
C1324 C1323 1.355 . S
C1324 C1326 1.419 . S
C1325 C1320 1.425 . S
C1325 C1322 1.409 . S
C1325 C1323 1.415 . S
C1326 H1316 0.930 . S
C1326 C1324 1.419 . S
C1326 C1327 1.362 . S
C1327 H1317 0.930 . S
C1327 C1320 1.409 . S
C1327 C1326 1.362 . S
H1328 C1334 0.930 . S
H1329 C1337 0.930 . S
H1330 C1338 0.930 . S
H1331 C1339 0.930 . S
H1332 C1342 0.930 . S
H1333 C1343 0.930 . S
C1334 H1328 0.930 . S
C1334 C1335 1.355 . S
C1334 C1336 1.415 . S
C1335 C1334 1.355 . S
C1335 C1337 1.419 . S
C1336 C1334 1.415 . S
C1336 C1341 1.425 . S
C1336 C1343 1.409 . S
C1337 H1329 0.930 . S
C1337 C1335 1.419 . S
C1337 C1338 1.362 . S
C1338 H1330 0.930 . S
C1338 C1337 1.362 . S
C1338 C1341 1.409 . S
C1339 H1331 0.930 . S
C1339 C1340 1.355 . S
C1339 C1341 1.415 . S
C1340 C1339 1.355 . S
C1340 C1342 1.419 . S
C1341 C1336 1.425 . S
C1341 C1338 1.409 . S
C1341 C1339 1.415 . S
C1342 H1332 0.930 . S
C1342 C1340 1.419 . S
C1342 C1343 1.362 . S
C1343 H1333 0.930 . S
C1343 C1336 1.409 . S
C1343 C1342 1.362 . S
H1344 C1350 0.930 . S
H1345 C1353 0.930 . S
H1346 C1354 0.930 . S
H1347 C1355 0.930 . S
H1348 C1358 0.930 . S
H1349 C1359 0.930 . S
C1350 H1344 0.930 . S
C1350 C1351 1.355 . S
C1350 C1352 1.415 . S
C1351 C1350 1.355 . S
C1351 C1353 1.419 . S
C1352 C1350 1.415 . S
C1352 C1357 1.425 . S
C1352 C1359 1.409 . S
C1353 H1345 0.930 . S
C1353 C1351 1.419 . S
C1353 C1354 1.362 . S
C1354 H1346 0.930 . S
C1354 C1353 1.362 . S
C1354 C1357 1.409 . S
C1355 H1347 0.930 . S
C1355 C1356 1.355 . S
C1355 C1357 1.415 . S
C1356 C1355 1.355 . S
C1356 C1358 1.419 . S
C1357 C1352 1.425 . S
C1357 C1354 1.409 . S
C1357 C1355 1.415 . S
C1358 H1348 0.930 . S
C1358 C1356 1.419 . S
C1358 C1359 1.362 . S
C1359 H1349 0.930 . S
C1359 C1352 1.409 . S
C1359 C1358 1.362 . S
H1360 C1366 0.930 . S
H1361 C1369 0.930 . S
H1362 C1370 0.930 . S
H1363 C1371 0.930 . S
H1364 C1374 0.930 . S
H1365 C1375 0.930 . S
C1366 H1360 0.930 . S
C1366 C1367 1.355 . S
C1366 C1368 1.415 . S
C1367 C1366 1.355 . S
C1367 C1369 1.419 . S
C1368 C1366 1.415 . S
C1368 C1373 1.425 . S
C1368 C1375 1.409 . S
C1369 H1361 0.930 . S
C1369 C1367 1.419 . S
C1369 C1370 1.362 . S
C1370 H1362 0.930 . S
C1370 C1369 1.362 . S
C1370 C1373 1.409 . S
C1371 H1363 0.930 . S
C1371 C1372 1.355 . S
C1371 C1373 1.415 . S
C1372 C1371 1.355 . S
C1372 C1374 1.419 . S
C1373 C1368 1.425 . S
C1373 C1370 1.409 . S
C1373 C1371 1.415 . S
C1374 H1364 0.930 . S
C1374 C1372 1.419 . S
C1374 C1375 1.362 . S
C1375 H1365 0.930 . S
C1375 C1368 1.409 . S
C1375 C1374 1.362 . S
H1376 C1382 0.930 . S
H1377 C1385 0.930 . S
H1378 C1386 0.930 . S
H1379 C1387 0.930 . S
H1380 C1390 0.930 . S
H1381 C1391 0.930 . S
C1382 H1376 0.930 . S
C1382 C1383 1.355 . S
C1382 C1384 1.415 . S
C1383 C1382 1.355 . S
C1383 C1385 1.419 . S
C1384 C1382 1.415 . S
C1384 C1389 1.425 . S
C1384 C1391 1.409 . S
C1385 H1377 0.930 . S
C1385 C1383 1.419 . S
C1385 C1386 1.362 . S
C1386 H1378 0.930 . S
C1386 C1385 1.362 . S
C1386 C1389 1.409 . S
C1387 H1379 0.930 . S
C1387 C1388 1.355 . S
C1387 C1389 1.415 . S
C1388 C1387 1.355 . S
C1388 C1390 1.419 . S
C1389 C1384 1.425 . S
C1389 C1386 1.409 . S
C1389 C1387 1.415 . S
C1390 H1380 0.930 . S
C1390 C1388 1.419 . S
C1390 C1391 1.362 . S
C1391 H1381 0.930 . S
C1391 C1384 1.409 . S
C1391 C1390 1.362 . S
H1392 C1398 0.930 . S
H1393 C1401 0.930 . S
H1394 C1402 0.930 . S
H1395 C1403 0.930 . S
H1396 C1406 0.930 . S
H1397 C1407 0.930 . S
C1398 H1392 0.930 . S
C1398 C1399 1.355 . S
C1398 C1400 1.415 . S
C1399 C1398 1.355 . S
C1399 C1401 1.419 . S
C1400 C1398 1.415 . S
C1400 C1405 1.425 . S
C1400 C1407 1.409 . S
C1401 H1393 0.930 . S
C1401 C1399 1.419 . S
C1401 C1402 1.362 . S
C1402 H1394 0.930 . S
C1402 C1401 1.362 . S
C1402 C1405 1.409 . S
C1403 H1395 0.930 . S
C1403 C1404 1.355 . S
C1403 C1405 1.415 . S
C1404 C1403 1.355 . S
C1404 C1406 1.419 . S
C1405 C1400 1.425 . S
C1405 C1402 1.409 . S
C1405 C1403 1.415 . S
C1406 H1396 0.930 . S
C1406 C1404 1.419 . S
C1406 C1407 1.362 . S
C1407 H1397 0.930 . S
C1407 C1400 1.409 . S
C1407 C1406 1.362 . S
H1408 C1414 0.930 . S
H1409 C1417 0.930 . S
H1410 C1418 0.930 . S
H1411 C1419 0.930 . S
H1412 C1422 0.930 . S
H1413 C1423 0.930 . S
C1414 H1408 0.930 . S
C1414 C1415 1.355 . S
C1414 C1416 1.415 . S
C1415 C1414 1.355 . S
C1415 C1417 1.419 . S
C1416 C1414 1.415 . S
C1416 C1421 1.425 . S
C1416 C1423 1.409 . S
C1417 H1409 0.930 . S
C1417 C1415 1.419 . S
C1417 C1418 1.362 . S
C1418 H1410 0.930 . S
C1418 C1417 1.362 . S
C1418 C1421 1.409 . S
C1419 H1411 0.930 . S
C1419 C1420 1.355 . S
C1419 C1421 1.415 . S
C1420 C1419 1.355 . S
C1420 C1422 1.419 . S
C1421 C1416 1.425 . S
C1421 C1418 1.409 . S
C1421 C1419 1.415 . S
C1422 H1412 0.930 . S
C1422 C1420 1.419 . S
C1422 C1423 1.362 . S
C1423 H1413 0.930 . S
C1423 C1416 1.409 . S
C1423 C1422 1.362 . S
H1424 C1430 0.930 . S
H1425 C1433 0.930 1_556 S
H1426 C1434 0.930 . S
H1427 C1435 0.930 . S
H1428 C1438 0.930 . S
H1429 C1439 0.930 . S
C1430 H1424 0.930 . S
C1430 C1431 1.355 . S
C1430 C1432 1.415 . S
C1431 C1430 1.355 . S
C1431 C1433 1.419 . S
C1432 C1430 1.415 . S
C1432 C1437 1.425 . S
C1432 C1439 1.409 . S
C1433 H1425 0.930 1_554 S
C1433 C1431 1.419 . S
C1433 C1434 1.362 . S
C1434 H1426 0.930 . S
C1434 C1433 1.362 . S
C1434 C1437 1.409 . S
C1435 H1427 0.930 . S
C1435 C1436 1.355 . S
C1435 C1437 1.415 . S
C1436 C1435 1.355 . S
C1436 C1438 1.419 . S
C1437 C1432 1.425 . S
C1437 C1434 1.409 . S
C1437 C1435 1.415 . S
C1438 H1428 0.930 . S
C1438 C1436 1.419 . S
C1438 C1439 1.362 . S
C1439 H1429 0.930 . S
C1439 C1432 1.409 . S
C1439 C1438 1.362 . S
C583 C4 0.798 . S
C588 N77 0.693 . S
C599 N13 0.711 . S
C604 C36 0.833 . S
C615 C68 0.761 . S
C620 N45 0.696 . S
C631 N141 0.747 . S
C636 C100 0.857 . S
C647 N178 0.852 . S
C652 C132 0.735 . S
C663 C189 0.848 . S
C668 N109 0.729 . S
C679 N269 0.743 . S
C684 C196 0.856 . S
C695 C228 0.746 . S
C700 N205 0.858 . S
C711 N237 0.865 . S
C716 C260 0.807 . S
C727 C317 0.774 . S
C732 N333 0.867 . S
C743 N370 0.834 . S
C748 C324 0.715 . S
C759 C381 0.844 . S
C764 N306 0.843 . S
C775 N461 0.863 . S
C780 C388 0.759 . S
C791 C420 0.836 . S
C796 N397 0.714 . S
C807 C452 0.697 . S
C812 N429 0.794 . S
C823 C509 0.774 . S
C828 N525 0.693 . S
C839 N562 0.814 . S
C844 C516 0.861 . S
C855 N498 0.721 . S
C860 C573 0.842 . S
C871 C166 1.438 . S
C876 C29 1.399 . S
C887 C98 1.471 . S
C892 C61 1.449 . S
C903 C130 1.470 . S
C908 C93 1.447 . S
C919 C34 1.477 . S
C924 C125 1.458 . S
C935 C157 1.458 . S
C940 C66 1.477 . S
C951 C2 1.455 . S
C956 C164 1.426 . S
C967 C221 1.447 . S
C972 C358 1.470 . S
C983 C253 1.432 . S
C988 C294 1.459 . S
C999 C322 1.452 . S
C1004 C285 1.418 . S
C1015 C292 1.456 1_554 S
C1020 C226 1.476 . S
C1031 C349 1.438 1_554 S
C1036 C258 1.464 . S
C1047 C356 1.457 1_554 S
C1052 C194 1.476 . S
C1063 C413 1.452 . S
C1068 C550 1.473 . S
C1079 C445 1.395 . S
C1084 C486 1.436 . S
C1095 C477 1.416 . S
C1100 C514 1.450 . S
C1111 C484 1.383 . S
C1116 C418 1.428 . S
C1127 C541 1.457 . S
C1132 C450 1.477 . S
C1143 C548 1.384 . S
C1148 C386 1.428 . S
C1159 C326 1.810 . S
C1164 N18 1.920 1_565 S
C1175 N50 1.911 1_455 S
C1180 C354 1.842 . S
C1191 C290 1.808 . S
C1196 N82 1.922 . S
C1207 N114 1.915 1_455 S
C1212 C262 1.871 . S
C1223 N146 1.921 . S
C1228 C198 1.808 . S
C1239 C230 1.848 . S
C1244 N173 1.927 1_565 S
C1255 N210 1.917 . S
C1260 C518 1.872 1_455 S
C1271 N242 1.928 . S
C1276 C546 1.840 . S
C1287 N274 1.920 . S
C1292 C482 1.810 1_565 S
C1303 C454 1.859 1_565 S
C1308 N301 1.911 . S
C1319 C390 1.836 1_455 S
C1324 N338 1.928 . S
C1335 C422 1.851 . S
C1340 N365 1.911 . S
C1351 C134 1.808 . S
C1356 N402 1.923 . S
C1367 N434 1.927 . S
C1372 C162 1.849 . S
C1383 C102 1.870 . S
C1388 N466 1.914 . S
C1399 N493 1.917 . S
C1404 C70 1.872 . S
C1415 N530 1.919 . S
C1420 C6 1.811 . S
C1431 C38 1.815 . S
C1436 N557 1.917 . S
