# Generated by pormake.
# Topology kag, (6)-cn, num edge types: 1
# Building blocks:
#     Node 0, Type 0, BuildingBlock: BETGAK_clean_sbu_0, # of connection points: 6
#     Node 1, Type 0, BuildingBlock: BETGAK_clean_sbu_0, # of connection points: 6
#     Node 2, Type 0, BuildingBlock: BETGAK_clean_sbu_0, # of connection points: 6
#     Edge 3, Type (0, 0), BuildingBlock: FUNLAD_clean_linker_0, # of connection points: 2
#     Edge 4, Type (0, 0), BuildingBlock: FUNLAD_clean_linker_0, # of connection points: 2
#     Edge 5, Type (0, 0), BuildingBlock: FUNLAD_clean_linker_0, # of connection points: 2
#     Edge 6, Type (0, 0), BuildingBlock: FUNLAD_clean_linker_0, # of connection points: 2
#     Edge 7, Type (0, 0), BuildingBlock: FUNLAD_clean_linker_0, # of connection points: 2
#     Edge 8, Type (0, 0), BuildingBlock: FUNLAD_clean_linker_0, # of connection points: 2
#     Edge 9, Type (0, 0), BuildingBlock: FUNLAD_clean_linker_0, # of connection points: 2
#     Edge 10, Type (0, 0), BuildingBlock: FUNLAD_clean_linker_0, # of connection points: 2
#     Edge 11, Type (0, 0), BuildingBlock: FUNLAD_clean_linker_0, # of connection points: 2
# Relax obj value: 0.063
# Max RMSD: 0.177
# Mean RMSD: 0.094
data_MOF--net-kag--node1-BETGAK_clean_sbu_0--edge1-FUNLAD_clean_linker_0
_symmetry_space_group_name_H-M    P1
_symmetry_Int_Tables_number       1
_symmetry_cell_setting            triclinic
loop_
_symmetry_equiv_pos_as_xyz
'x, y, z'
_cell_length_a     37.028576
_cell_length_b     47.373169
_cell_length_c     17.21662
_cell_angle_alpha  95.081507
_cell_angle_beta   91.351105
_cell_angle_gamma 100.33661
loop_
_atom_site_label
_atom_site_type_symbol
_atom_site_fract_x
_atom_site_fract_y
_atom_site_fract_z
_atom_type_partial_charge
La0 La 1.04253 0.47705 0.01219 0.0
La1 La 0.05531 0.53958 0.00689 0.0
C2 C 1.02192 0.42618 0.04808 0.0
C3 C 0.98886 0.40325 0.04294 0.0
C4 C 0.96715 0.39538 0.97363 0.0
C5 C 0.93788 0.3719 0.96891 0.0
C6 C 0.92959 0.35593 0.03348 0.0
C7 C 0.95085 0.36443 0.10326 0.0
C8 C 0.98015 0.38776 0.1078 0.0
C9 C 0.04972 0.49352 0.86911 0.0
C10 C 0.9721 0.50879 1.00329 0.0
C11 C 0.07584 0.59048 0.97101 0.0
C12 C 0.10823 0.61413 0.97941 0.0
C13 C 0.12526 0.6248 0.05265 0.0
C14 C 0.15347 0.64905 0.05962 0.0
C15 C 0.16539 0.66309 0.99356 0.0
C16 C 0.14896 0.65181 0.92014 0.0
C17 C 0.12067 0.62767 0.91326 0.0
C18 C 0.04819 0.52308 0.15007 0.0
C19 C 0.1257 0.50739 0.01682 0.0
O20 O 1.03736 0.43254 0.98281 0.0
O21 O 1.02122 0.44919 0.09563 0.0
O22 O 0.06124 0.47145 0.8931 0.0
O23 O 1.03274 0.50454 0.9233 0.0
O24 O 0.98546 0.48569 0.02019 0.0
O25 O 0.99494 0.53214 0.98568 0.0
O26 O 0.05856 0.584 0.03421 0.0
O27 O 0.07844 0.56748 0.92498 0.0
O28 O 1.03692 0.54529 0.12633 0.0
O29 O 0.06512 0.51215 0.09569 0.0
O30 O 0.11286 0.53085 1.00053 0.0
O31 O 0.10246 0.48417 0.03346 0.0
H32 H 0.97314 0.40706 0.92275 0.0
H33 H 0.9218 0.36617 0.91461 0.0
H34 H 0.94561 0.35246 0.15383 0.0
H35 H 0.99661 0.39334 0.16171 0.0
H36 H 0.11636 0.61477 0.10478 0.0
H37 H 0.16585 0.65689 0.11689 0.0
H38 H 0.15711 0.6622 0.86813 0.0
H39 H 0.10783 0.61999 0.85625 0.0
La40 La 0.58021 0.01746 1.00502 0.0
La41 La 0.5015 1.00821 0.02044 0.0
C42 C 0.64526 0.0363 0.96835 0.0
C43 C 0.66827 0.06509 0.96469 0.0
C44 C 0.70378 0.07092 0.99948 0.0
C45 C 0.72577 0.09821 0.99923 0.0
C46 C 0.71273 0.12035 0.96402 0.0
C47 C 0.67719 0.11438 0.92855 0.0
C48 C 0.65517 0.08705 0.92892 0.0
C49 C 0.55988 1.00791 0.14858 0.0
C50 C 0.53953 0.07224 0.03197 0.0
C51 C 0.43645 0.98935 0.05711 0.0
C52 C 0.41279 0.96063 0.05733 0.0
C53 C 0.37663 0.95634 0.02651 0.0
C54 C 0.35375 0.92933 0.02482 0.0
C55 C 0.36653 0.90591 0.05403 0.0
C56 C 0.40292 0.91026 0.08466 0.0
C57 C 0.42578 0.93734 0.08644 0.0
C58 C 0.522 0.01776 0.87685 0.0
C59 C 0.5422 0.95338 0.99319 0.0
O60 O 0.63632 0.02944 0.03803 0.0
O61 O 0.61754 0.02858 0.91774 0.0
O62 O 0.58631 0.99809 0.11373 0.0
O63 O 0.54616 0.02341 0.10369 0.0
O64 O 0.56842 0.06166 0.00691 0.0
O65 O 0.50974 0.05476 0.05106 0.0
O66 O 0.44514 0.99761 0.98857 0.0
O67 O 0.46451 0.99563 0.10717 0.0
O68 O 0.49552 0.02757 0.91155 0.0
O69 O 0.53552 1.00221 0.92183 0.0
O70 O 0.51295 0.96385 0.01648 0.0
O71 O 0.57231 0.97089 0.97595 0.0
H72 H 0.71451 0.05432 0.02726 0.0
H73 H 0.75316 0.10188 0.02605 0.0
H74 H 0.66611 0.13099 0.90167 0.0
H75 H 0.6278 0.08324 0.90194 0.0
H76 H 0.36606 0.97391 1.00331 0.0
H77 H 0.32614 0.92673 0.99968 0.0
H78 H 0.41361 0.89285 0.10838 0.0
H79 H 0.45359 0.94 0.11058 0.0
La80 La 0.55929 0.54666 0.99906 0.0
La81 La 0.54294 0.48367 1.00184 0.0
C82 C 0.56581 0.59871 0.96604 0.0
C83 C 0.55612 0.62812 0.97905 0.0
C84 C 0.56767 0.64626 0.04775 0.0
C85 C 0.56519 0.67566 0.05298 0.0
C86 C 0.55123 0.68798 0.98962 0.0
C87 C 0.53817 0.66948 0.92223 0.0
C88 C 0.54074 0.64007 0.91697 0.0
C89 C 0.56511 0.52975 0.14202 0.0
C90 C 0.47416 0.51487 0.00941 0.0
C91 C 0.53962 0.43079 0.02036 0.0
C92 C 0.53807 0.39928 0.02795 0.0
C93 C 0.54565 0.38089 0.96397 0.0
C94 C 0.5441 0.35129 0.96979 0.0
C95 C 0.5349 0.33893 0.03989 0.0
C96 C 0.52732 0.35742 0.10404 0.0
C97 C 0.52891 0.38712 0.09816 0.0
C98 C 0.53574 0.50184 0.86101 0.0
C99 C 0.62676 0.51546 0.99331 0.0
O100 O 0.58525 0.58997 0.02029 0.0
O101 O 0.54248 0.57731 0.92953 0.0
O102 O 0.5848 0.5521 0.11644 0.0
O103 O 0.54099 0.51861 0.08952 0.0
O104 O 0.49804 0.53871 0.99849 0.0
O105 O 0.48595 0.49039 0.01875 0.0
O106 O 0.54824 0.4421 0.95532 0.0
O107 O 0.5329 0.44955 0.07632 0.0
O108 O 0.51402 0.48084 0.88845 0.0
O109 O 0.56113 0.51182 0.9119 0.0
O110 O 0.60406 0.49409 0.02159 0.0
O111 O 0.61296 0.53672 0.96593 0.0
H112 H 0.57998 0.63805 0.0967 0.0
H113 H 0.57494 0.68889 0.10647 0.0
H114 H 0.52756 0.67796 0.8718 0.0
H115 H 0.53221 0.62694 0.86266 0.0
H116 H 0.55266 0.38934 0.90875 0.0
H117 H 0.54953 0.33799 0.91852 0.0
H118 H 0.52055 0.34903 0.1594 0.0
H119 H 0.52298 0.40056 0.14874 0.0
C120 C 0.06575 0.48355 0.72941 0.0
C121 C 0.04902 0.4998 0.78566 0.0
C122 C 0.06463 0.4886 0.65025 0.0
C123 C 0.04656 0.51013 0.62473 0.0
C124 C 1.03029 0.52662 0.68157 0.0
C125 C 1.03141 0.52152 0.7608 0.0
C126 C 0.04457 0.51665 0.54065 0.0
C127 C 0.05352 0.49986 0.47846 0.0
C128 C 0.0515 0.5064 0.39438 0.0
C129 C 0.06786 0.48998 0.33751 0.0
C130 C 0.06671 0.4951 0.25829 0.0
C131 C 0.04897 0.51676 0.23349 0.0
H132 H 1.01948 0.5407 0.40918 0.0
C133 C 1.03215 0.53293 0.28977 0.0
C134 C 1.03331 0.52786 0.36891 0.0
H135 H 1.01799 0.54967 0.27264 0.0
H136 H 0.0798 0.46676 0.74659 0.0
H137 H 0.07836 0.47568 0.61 0.0
H138 H 1.01637 0.54351 0.66458 0.0
H139 H 1.01833 0.5345 0.8025 0.0
H140 H 1.03501 0.53638 0.53047 0.0
H141 H 0.0631 0.48014 0.48862 0.0
H142 H 0.08188 0.47315 0.35447 0.0
H143 H 0.07987 0.48219 0.21656 0.0
C144 C 0.53298 0.02399 0.27664 0.0
C145 C 0.55448 1.0068 0.23432 0.0
C146 C 0.53024 0.02336 0.3583 0.0
C147 C 0.54891 1.00539 0.39968 0.0
C148 C 0.56965 0.98788 0.35638 0.0
C149 C 0.57251 0.98865 0.27549 0.0
C150 C 0.54735 1.0034 0.4868 0.0
C151 C 0.53491 0.02231 0.53872 0.0
C152 C 0.5333 0.02032 0.62585 0.0
C153 C 0.51267 0.03792 0.66909 0.0
C154 C 0.50971 0.03715 0.74996 0.0
C155 C 0.52754 0.01888 0.79115 0.0
H156 H 0.56868 0.9887 0.63746 0.0
C157 C 0.54895 1.0016 0.7489 0.0
C158 C 0.55178 1.00224 0.66726 0.0
H159 H 0.56317 0.98735 0.77875 0.0
H160 H 0.51861 0.03815 0.24682 0.0
H161 H 0.51325 0.03682 0.38815 0.0
H162 H 0.58416 0.97361 0.38545 0.0
H163 H 0.58918 0.97498 0.24507 0.0
H164 H 0.55753 0.9854 0.50869 0.0
H165 H 0.52476 0.04031 0.51682 0.0
H166 H 0.4983 0.05228 0.64 0.0
H167 H 0.49312 0.05089 0.78033 0.0
C168 C 0.56637 0.52249 0.74218 0.0
C169 C 0.53629 0.50602 0.77578 0.0
C170 C 0.56688 0.52434 0.6607 0.0
C171 C 0.53719 0.50976 0.61068 0.0
C172 C 0.50694 0.49394 0.64526 0.0
C173 C 0.50654 0.49201 0.72609 0.0
C174 C 0.53571 0.51057 0.52302 0.0
C175 C 0.56467 0.52008 0.47945 0.0
C176 C 0.56319 0.5211 0.39193 0.0
C177 C 0.59291 0.53784 0.35809 0.0
C178 C 0.59337 0.54002 0.27743 0.0
C179 C 0.56428 0.52529 0.22706 0.0
H180 H 0.51097 0.49213 0.36389 0.0
C181 C 0.53475 0.50788 0.25988 0.0
C182 C 0.53412 0.50584 0.34134 0.0
H183 H 0.51192 0.49617 0.22282 0.0
H184 H 0.58972 0.53363 0.7787 0.0
H185 H 0.59052 0.53735 0.63778 0.0
H186 H 0.48346 0.48263 0.60936 0.0
H187 H 0.48281 0.47922 0.74967 0.0
H188 H 0.50919 0.50258 0.49338 0.0
H189 H 0.59117 0.52813 0.509 0.0
H190 H 0.61591 0.5497 0.39447 0.0
H191 H 0.61668 0.55353 0.25445 0.0
C192 C 0.19343 0.53094 1.00195 0.0
C193 C 0.16685 0.50701 0.01849 0.0
C194 C 0.23161 0.52986 1.00277 0.0
C195 C 0.24477 0.50472 0.02019 0.0
C196 C 0.21802 0.48101 0.03676 0.0
C197 C 0.18014 0.48209 0.036 0.0
C198 C 0.2853 0.50154 0.02159 0.0
C199 C 0.315 0.52226 0.00966 0.0
C200 C 0.3555 0.51897 0.01119 0.0
C201 C 0.38267 0.54321 1.00048 0.0
C202 C 0.42049 0.54181 1.00045 0.0
C203 C 0.43324 0.51602 0.01108 0.0
H204 H 0.34894 0.47359 0.0304 0.0
C205 C 0.40622 0.49162 0.02201 0.0
C206 C 0.36816 0.49303 0.02211 0.0
H207 H 0.41444 0.47125 0.03026 0.0
H208 H 0.18474 0.5506 0.988 0.0
H209 H 0.25052 0.5488 0.98932 0.0
H210 H 0.22645 0.4612 0.05045 0.0
H211 H 0.16114 0.46308 0.04905 0.0
H212 H 0.29059 0.48056 0.03378 0.0
H213 H 0.30976 0.54334 0.99825 0.0
H214 H 0.37463 0.56362 0.99181 0.0
H215 H 0.43984 0.56119 0.99167 0.0
C216 C 0.75777 0.16209 0.03113 0.0
C217 C 0.73621 0.14947 0.96437 0.0
C218 C 0.78054 0.18908 0.03105 0.0
C219 C 0.78223 0.20429 0.96411 0.0
C220 C 0.76072 0.19164 0.89741 0.0
C221 C 0.73784 0.16468 0.8976 0.0
C222 C 0.80736 0.23254 0.96034 0.0
C223 C 0.82027 0.25068 0.02387 0.0
C224 C 0.84672 0.27839 0.0216 0.0
C225 C 0.85069 0.2987 0.08729 0.0
C226 C 0.87682 0.32412 0.09033 0.0
C227 C 0.89989 0.3299 0.02776 0.0
H228 H 0.86814 0.26908 0.90735 0.0
C229 C 0.89556 0.30985 0.96133 0.0
C230 C 0.86943 0.28435 0.95831 0.0
H231 H 0.91329 0.31335 0.91263 0.0
H232 H 0.75704 0.15108 0.08375 0.0
H233 H 0.79734 0.19753 0.08305 0.0
H234 H 0.7617 0.20263 0.84471 0.0
H235 H 0.72202 0.15546 0.8448 0.0
H236 H 0.81444 0.23878 0.90271 0.0
H237 H 0.81048 0.24547 0.08074 0.0
H238 H 0.83373 0.29476 0.13703 0.0
H239 H 0.87908 0.3392 0.14205 0.0
C240 C 0.57245 0.90908 0.97877 0.0
C241 C 0.54063 0.92135 0.98777 0.0
C242 C 0.57058 0.879 0.97663 0.0
C243 C 0.53672 0.86027 0.98318 0.0
C244 C 0.505 0.87263 0.99078 0.0
C245 C 0.5069 0.90256 0.99343 0.0
C246 C 0.53271 0.82789 0.98014 0.0
C247 C 0.56036 0.81349 0.99424 0.0
C248 C 0.55613 0.78115 0.99365 0.0
C249 C 0.58422 0.76962 0.0289 0.0
C250 C 0.58229 0.73971 0.02855 0.0
C251 C 0.55224 0.72008 0.99229 0.0
H252 H 0.50388 0.76917 0.92799 0.0
C253 C 0.52407 0.73155 0.95665 0.0
C254 C 0.52592 0.76157 0.95733 0.0
H255 H 0.50039 0.7173 0.92826 0.0
H256 H 0.59892 0.92275 0.97399 0.0
H257 H 0.59568 0.8706 0.9688 0.0
H258 H 0.47841 0.85904 0.99527 0.0
H259 H 0.48169 0.91095 0.9996 0.0
H260 H 0.50509 0.81562 0.96935 0.0
H261 H 0.58746 0.82593 0.01042 0.0
H262 H 0.60805 0.78386 0.05682 0.0
H263 H 0.60496 0.73201 0.05534 0.0
C264 C 0.91436 0.53132 0.9843 0.0
C265 C 0.93065 0.50775 1.00253 0.0
C266 C 0.87567 0.52998 0.9849 0.0
C267 C 0.85163 0.50495 1.00386 0.0
C268 C 0.86815 0.48154 0.02189 0.0
C269 C 0.90658 0.48286 0.02119 0.0
C270 C 0.80971 0.50183 0.00685 0.0
C271 C 0.78891 0.52144 0.98699 0.0
C272 C 0.74698 0.51831 0.9895 0.0
C273 C 0.73013 0.54018 0.96181 0.0
C274 C 0.69175 0.53904 0.96284 0.0
C275 C 0.66806 0.51593 0.99187 0.0
H276 H 0.73433 0.47758 0.04107 0.0
C277 C 0.68465 0.49389 0.01973 0.0
C278 C 0.72331 0.495 0.01858 0.0
H279 H 0.66775 0.47568 0.0428 0.0
H280 H 0.93156 0.55098 0.96972 0.0
H281 H 0.86497 0.54877 0.97088 0.0
H282 H 0.85115 0.46184 0.03691 0.0
H283 H 0.91742 0.46413 0.03572 0.0
H284 H 0.79539 0.4818 0.02611 0.0
H285 H 0.80317 0.54126 0.96649 0.0
H286 H 0.74685 0.55855 0.93898 0.0
H287 H 0.68067 0.55657 0.94083 0.0
C288 C 0.19337 0.71147 0.06287 0.0
C289 C 0.19382 0.68997 1.00122 0.0
C290 C 0.21896 0.7373 0.0681 0.0
C291 C 0.24563 0.74235 0.01145 0.0
C292 C 0.24668 0.72052 0.95114 0.0
C293 C 0.22103 0.69475 0.94578 0.0
C294 C 0.27306 0.76977 0.01367 0.0
C295 C 0.26776 0.79508 0.05007 0.0
C296 C 0.29408 0.82299 0.05006 0.0
C297 C 0.28113 0.84875 0.06911 0.0
C298 C 0.30455 0.87549 0.07041 0.0
C299 C 0.34178 0.87726 0.05312 0.0
H300 H 0.343 0.80543 0.02067 0.0
C301 C 0.35498 0.85147 0.03507 0.0
C302 C 0.33149 0.82466 0.03366 0.0
H303 H 0.38345 0.85198 0.02117 0.0
H304 H 0.17274 0.70861 0.10646 0.0
H305 H 0.21777 0.75305 0.11698 0.0
H306 H 0.26715 0.72356 0.90722 0.0
H307 H 0.2226 0.6785 0.89824 0.0
H308 H 0.29737 0.76922 0.98003 0.0
H309 H 0.24197 0.79597 0.07804 0.0
H310 H 0.25263 0.84826 0.08286 0.0
H311 H 0.2935 0.8948 0.08601 0.0
C312 C 0.5573 0.29172 1.0053 0.0
C313 C 0.5329 0.307 0.0454 0.0
C314 C 0.55487 0.26184 0.00872 0.0
C315 C 0.52796 0.2461 0.05281 0.0
C316 C 0.50364 0.2614 0.09283 0.0
C317 C 0.5061 0.29126 0.08948 0.0
C318 C 0.52334 0.21387 0.0569 0.0
C319 C 0.5487 0.19756 0.03494 0.0
C320 C 0.54482 0.16535 0.03804 0.0
C321 C 0.57565 0.15256 0.0218 0.0
C322 C 0.57387 0.12271 0.02117 0.0
C323 C 0.54108 0.10429 0.03653 0.0
H324 H 0.48719 0.15549 0.06634 0.0
C325 C 0.51012 0.11692 0.05363 0.0
C326 C 0.51189 0.14699 0.05427 0.0
H327 H 0.4843 0.10353 0.06547 0.0
H328 H 0.57859 0.30287 0.97123 0.0
H329 H 0.57387 0.25129 0.97545 0.0
H330 H 0.48237 0.25016 0.12687 0.0
H331 H 0.48636 0.30188 0.12032 0.0
H332 H 0.49813 0.2035 0.08101 0.0
H333 H 0.57461 0.20834 0.01466 0.0
H334 H 0.60149 0.16576 0.00899 0.0
H335 H 0.59843 0.1141 0.00815 0.0
loop_
_geom_bond_atom_site_label_1
_geom_bond_atom_site_label_2
_geom_bond_distance
_geom_bond_site_symmetry_2
_ccdc_geom_bond_type
La0 C2 2.928 . S
La0 O20 2.521 . S
La0 O21 2.628 1_556 S
La0 O22 2.554 . S
La0 O23 2.757 1_655 S
La0 O24 2.470 . S
La0 O29 2.482 1_556 S
La0 O31 2.503 1_655 S
La1 C11 2.928 . S
La1 O23 2.482 1_554 S
La1 O25 2.503 1_455 S
La1 O26 2.521 . S
La1 O27 2.628 1_554 S
La1 O28 2.554 . S
La1 O29 2.757 1_455 S
La1 O30 2.470 . S
C2 La0 2.928 . S
C2 C3 1.503 . S
C2 O20 1.261 . S
C2 O21 1.243 1_556 S
C3 C2 1.503 . S
C3 C4 1.394 . S
C3 C8 1.373 1_556 S
C4 C3 1.394 . S
C4 C5 1.380 . S
C4 H32 0.930 . S
C5 C4 1.380 . S
C5 C6 1.376 . S
C5 H33 0.930 . S
C6 C5 1.376 . S
C6 C7 1.370 1_556 S
C7 C6 1.370 1_554 S
C7 C8 1.396 . S
C7 H34 0.929 . S
C8 C3 1.373 1_554 S
C8 C7 1.396 . S
C8 H35 0.929 . S
C9 O22 1.240 1_455 S
C9 O23 1.289 . S
C10 O24 1.258 . S
C10 O25 1.256 1_556 S
C11 La1 2.928 . S
C11 C12 1.503 . S
C11 O26 1.261 . S
C11 O27 1.243 1_554 S
C12 C11 1.503 . S
C12 C13 1.394 . S
C12 C17 1.373 1_554 S
C13 C12 1.394 . S
C13 C14 1.380 . S
C13 H36 0.930 . S
C14 C13 1.380 . S
C14 C15 1.376 . S
C14 H37 0.930 . S
C15 C14 1.376 . S
C15 C16 1.370 1_554 S
C16 C15 1.370 1_556 S
C16 C17 1.396 . S
C16 H38 0.929 . S
C17 C12 1.373 1_556 S
C17 C16 1.396 . S
C17 H39 0.929 . S
C18 O28 1.240 . S
C18 O29 1.289 1_455 S
C19 O30 1.258 . S
C19 O31 1.256 1_554 S
O20 La0 2.521 . S
O20 C2 1.261 . S
O21 La0 2.628 1_554 S
O21 C2 1.243 1_554 S
O22 La0 2.554 . S
O22 C9 1.240 1_655 S
O23 La0 2.757 1_455 S
O23 La1 2.482 1_556 S
O23 C9 1.289 . S
O24 La0 2.470 . S
O24 C10 1.258 . S
O25 La1 2.503 1_655 S
O25 C10 1.256 1_554 S
O26 La1 2.521 . S
O26 C11 1.261 . S
O27 La1 2.628 1_556 S
O27 C11 1.243 1_556 S
O28 La1 2.554 . S
O28 C18 1.240 . S
O29 La0 2.482 1_554 S
O29 La1 2.757 1_655 S
O29 C18 1.289 1_655 S
O30 La1 2.470 . S
O30 C19 1.258 . S
O31 La0 2.503 1_455 S
O31 C19 1.256 1_556 S
H32 C4 0.930 . S
H33 C5 0.930 . S
H34 C7 0.929 . S
H35 C8 0.929 . S
H36 C13 0.930 . S
H37 C14 0.930 . S
H38 C16 0.929 . S
H39 C17 0.929 . S
La40 C42 2.927 1_554 S
La40 O60 2.521 . S
La40 O61 2.628 1_554 S
La40 O62 2.554 . S
La40 O63 2.757 1_545 S
La40 O64 2.470 . S
La40 O69 2.482 1_554 S
La40 O71 2.503 1_544 S
La41 C51 2.926 1_556 S
La41 O63 2.482 1_556 S
La41 O65 2.503 1_566 S
La41 O66 2.521 . S
La41 O67 2.628 1_556 S
La41 O68 2.554 . S
La41 O69 2.757 1_565 S
La41 O70 2.470 . S
C42 La40 2.927 1_556 S
C42 C43 1.504 . S
C42 O60 1.254 1_556 S
C42 O61 1.249 . S
C43 C42 1.504 . S
C43 C44 1.394 1_556 S
C43 C48 1.373 . S
C44 C43 1.394 1_554 S
C44 C45 1.380 . S
C44 H72 0.930 . S
C45 C44 1.380 . S
C45 C46 1.376 1_554 S
C45 H73 0.930 . S
C46 C45 1.376 1_556 S
C46 C47 1.370 . S
C47 C46 1.370 . S
C47 C48 1.396 . S
C47 H74 0.929 . S
C48 C43 1.373 . S
C48 C47 1.396 . S
C48 H75 0.929 . S
C49 O62 1.240 . S
C49 O63 1.289 1_545 S
C50 O64 1.258 . S
C50 O65 1.256 . S
C51 La41 2.926 1_554 S
C51 C52 1.504 . S
C51 O66 1.250 1_554 S
C51 O67 1.252 . S
C52 C51 1.504 . S
C52 C53 1.394 1_554 S
C52 C57 1.373 . S
C53 C52 1.394 1_556 S
C53 C54 1.380 . S
C53 H76 0.930 . S
C54 C53 1.380 . S
C54 C55 1.376 1_556 S
C54 H77 0.930 . S
C55 C54 1.376 1_554 S
C55 C56 1.370 . S
C56 C55 1.370 . S
C56 C57 1.396 . S
C56 H78 0.929 . S
C57 C52 1.373 . S
C57 C56 1.396 . S
C57 H79 0.929 . S
C58 O68 1.240 . S
C58 O69 1.289 1_565 S
C59 O70 1.258 . S
C59 O71 1.256 . S
O60 La40 2.521 . S
O60 C42 1.254 1_554 S
O61 La40 2.628 1_556 S
O61 C42 1.249 . S
O62 La40 2.554 . S
O62 C49 1.240 . S
O63 La40 2.757 1_565 S
O63 La41 2.482 1_554 S
O63 C49 1.289 1_565 S
O64 La40 2.470 . S
O64 C50 1.258 . S
O65 La41 2.503 1_544 S
O65 C50 1.256 . S
O66 La41 2.521 . S
O66 C51 1.250 1_556 S
O67 La41 2.628 1_554 S
O67 C51 1.252 . S
O68 La41 2.554 . S
O68 C58 1.240 . S
O69 La40 2.482 1_556 S
O69 La41 2.757 1_545 S
O69 C58 1.289 1_545 S
O70 La41 2.470 . S
O70 C59 1.258 . S
O71 La40 2.503 1_566 S
O71 C59 1.256 . S
H72 C44 0.930 . S
H73 C45 0.930 . S
H74 C47 0.929 . S
H75 C48 0.929 . S
H76 C53 0.930 . S
H77 C54 0.930 . S
H78 C56 0.929 . S
H79 C57 0.929 . S
La80 C82 2.928 . S
La80 O100 2.521 . S
La80 O101 2.628 1_554 S
La80 O102 2.554 . S
La80 O103 2.757 . S
La80 O104 2.470 . S
La80 O109 2.482 1_554 S
La80 O111 2.503 . S
La81 C91 2.928 . S
La81 O103 2.482 1_556 S
La81 O105 2.503 . S
La81 O106 2.521 . S
La81 O107 2.628 1_556 S
La81 O108 2.554 . S
La81 O109 2.757 . S
La81 O110 2.470 . S
C82 La80 2.928 . S
C82 C83 1.503 . S
C82 O100 1.261 . S
C82 O101 1.243 1_554 S
C83 C82 1.503 . S
C83 C84 1.394 . S
C83 C88 1.373 1_554 S
C84 C83 1.394 . S
C84 C85 1.380 . S
C84 H112 0.930 . S
C85 C84 1.380 . S
C85 C86 1.382 . S
C85 H113 0.930 . S
C86 C85 1.382 . S
C86 C87 1.365 1_554 S
C87 C86 1.365 1_556 S
C87 C88 1.396 . S
C87 H114 0.929 . S
C88 C83 1.373 1_556 S
C88 C87 1.396 . S
C88 H115 0.929 . S
C89 O102 1.240 . S
C89 O103 1.289 . S
C90 O104 1.258 . S
C90 O105 1.256 1_554 S
C91 La81 2.928 . S
C91 C92 1.503 . S
C91 O106 1.261 . S
C91 O107 1.243 1_556 S
C92 C91 1.503 . S
C92 C93 1.394 . S
C92 C97 1.373 1_556 S
C93 C92 1.394 . S
C93 C94 1.380 . S
C93 H116 0.930 . S
C94 C93 1.380 . S
C94 C95 1.378 . S
C94 H117 0.930 . S
C95 C94 1.378 . S
C95 C96 1.369 1_556 S
C96 C95 1.369 1_554 S
C96 C97 1.396 . S
C96 H118 0.929 . S
C97 C92 1.373 1_554 S
C97 C96 1.396 . S
C97 H119 0.929 . S
C98 O108 1.240 . S
C98 O109 1.289 . S
C99 O110 1.258 . S
C99 O111 1.256 1_556 S
O100 La80 2.521 . S
O100 C82 1.261 . S
O101 La80 2.628 1_556 S
O101 C82 1.243 1_556 S
O102 La80 2.554 . S
O102 C89 1.240 . S
O103 La80 2.757 . S
O103 La81 2.482 1_554 S
O103 C89 1.289 . S
O104 La80 2.470 . S
O104 C90 1.258 . S
O105 La81 2.503 . S
O105 C90 1.256 1_556 S
O106 La81 2.521 . S
O106 C91 1.261 . S
O107 La81 2.628 1_554 S
O107 C91 1.243 1_554 S
O108 La81 2.554 . S
O108 C98 1.240 . S
O109 La80 2.482 1_556 S
O109 La81 2.757 . S
O109 C98 1.289 . S
O110 La81 2.470 . S
O110 C99 1.258 . S
O111 La80 2.503 . S
O111 C99 1.256 1_554 S
H112 C84 0.930 . S
H113 C85 0.930 . S
H114 C87 0.929 . S
H115 C88 0.929 . S
H116 C93 0.930 . S
H117 C94 0.930 . S
H118 C96 0.929 . S
H119 C97 0.929 . S
C120 C121 1.402 . S
C120 C122 1.383 . S
C120 H136 0.951 . S
C121 C120 1.402 . S
C121 C125 1.365 1_455 S
C122 C120 1.383 . S
C122 C123 1.402 1_455 S
C122 H137 0.951 . S
C123 C122 1.402 1_655 S
C123 C124 1.375 . S
C123 C126 1.481 . S
C124 C123 1.375 . S
C124 C125 1.367 . S
C124 H138 0.951 . S
C125 C121 1.365 1_655 S
C125 C124 1.367 . S
C125 H139 0.950 . S
C126 C123 1.481 . S
C126 C127 1.297 1_655 S
C126 H140 0.950 . S
C127 C126 1.297 1_455 S
C127 C128 1.479 . S
C127 H141 0.950 . S
C128 C127 1.479 . S
C128 C129 1.375 . S
C128 C134 1.404 1_455 S
C129 C128 1.375 . S
C129 C130 1.369 . S
C129 H142 0.950 . S
C130 C129 1.369 . S
C130 C131 1.394 . S
C130 H143 0.951 . S
C131 C130 1.394 . S
C131 C133 1.383 1_455 S
H132 C134 0.949 . S
C133 C131 1.383 1_655 S
C133 C134 1.385 . S
C133 H135 0.950 . S
C134 C128 1.404 1_655 S
C134 H132 0.949 . S
C134 C133 1.385 . S
H135 C133 0.950 . S
H136 C120 0.951 . S
H137 C122 0.951 . S
H138 C124 0.951 . S
H139 C125 0.950 . S
H140 C126 0.950 . S
H141 C127 0.950 . S
H142 C129 0.950 . S
H143 C130 0.951 . S
C144 C145 1.385 . S
C144 C146 1.383 . S
C144 H160 0.951 . S
C145 C144 1.385 . S
C145 C149 1.390 . S
C146 C144 1.383 . S
C146 C147 1.402 . S
C146 H161 0.951 . S
C147 C146 1.402 . S
C147 C148 1.375 . S
C147 C150 1.481 . S
C148 C147 1.375 . S
C148 C149 1.367 . S
C148 H162 0.951 . S
C149 C145 1.390 . S
C149 C148 1.367 . S
C149 H163 0.949 . S
C150 C147 1.481 . S
C150 C151 1.297 . S
C150 H164 0.950 . S
C151 C150 1.297 . S
C151 C152 1.479 . S
C151 H165 0.950 . S
C152 C151 1.479 . S
C152 C153 1.375 . S
C152 C158 1.404 . S
C153 C152 1.375 . S
C153 C154 1.369 . S
C153 H166 0.950 . S
C154 C153 1.369 . S
C154 C155 1.392 . S
C154 H167 0.951 . S
C155 C154 1.392 . S
C155 C157 1.384 . S
H156 C158 0.949 . S
C157 C155 1.384 . S
C157 C158 1.385 . S
C157 H159 0.950 . S
C158 C152 1.404 . S
C158 H156 0.949 . S
C158 C157 1.385 . S
H159 C157 0.950 . S
H160 C144 0.951 . S
H161 C146 0.951 . S
H162 C148 0.951 . S
H163 C149 0.949 . S
H164 C150 0.950 . S
H165 C151 0.950 . S
H166 C153 0.950 . S
H167 C154 0.951 . S
C168 C169 1.386 . S
C168 C170 1.383 . S
C168 H184 0.951 . S
C169 C168 1.386 . S
C169 C173 1.383 . S
C170 C168 1.383 . S
C170 C171 1.402 . S
C170 H185 0.951 . S
C171 C170 1.402 . S
C171 C172 1.375 . S
C171 C174 1.481 . S
C172 C171 1.375 . S
C172 C173 1.367 . S
C172 H186 0.951 . S
C173 C169 1.383 . S
C173 C172 1.367 . S
C173 H187 0.950 . S
C174 C171 1.481 . S
C174 C175 1.297 . S
C174 H188 0.950 . S
C175 C174 1.297 . S
C175 C176 1.479 . S
C175 H189 0.950 . S
C176 C175 1.479 . S
C176 C177 1.375 . S
C176 C182 1.404 . S
C177 C176 1.375 . S
C177 C178 1.369 . S
C177 H190 0.950 . S
C178 C177 1.369 . S
C178 C179 1.392 . S
C178 H191 0.951 . S
C179 C178 1.392 . S
C179 C181 1.384 . S
H180 C182 0.949 . S
C181 C179 1.384 . S
C181 C182 1.385 . S
C181 H183 0.950 . S
C182 C176 1.404 . S
C182 H180 0.949 . S
C182 C181 1.385 . S
H183 C181 0.950 . S
H184 C168 0.951 . S
H185 C170 0.951 . S
H186 C172 0.951 . S
H187 C173 0.950 . S
H188 C174 0.950 . S
H189 C175 0.950 . S
H190 C177 0.950 . S
H191 C178 0.951 . S
C192 C193 1.386 . S
C192 C194 1.383 1_556 S
C192 H208 0.951 . S
C193 C192 1.386 . S
C193 C197 1.381 1_556 S
C194 C192 1.383 1_554 S
C194 C195 1.402 . S
C194 H209 0.951 . S
C195 C194 1.402 . S
C195 C196 1.375 . S
C195 C198 1.481 . S
C196 C195 1.375 . S
C196 C197 1.367 . S
C196 H210 0.951 . S
C197 C193 1.381 1_554 S
C197 C196 1.367 . S
C197 H211 0.950 . S
C198 C195 1.481 . S
C198 C199 1.297 . S
C198 H212 0.950 . S
C199 C198 1.297 . S
C199 C200 1.479 . S
C199 H213 0.950 . S
C200 C199 1.479 . S
C200 C201 1.375 . S
C200 C206 1.404 . S
C201 C200 1.375 . S
C201 C202 1.369 . S
C201 H214 0.950 . S
C202 C201 1.369 . S
C202 C203 1.392 . S
C202 H215 0.951 1_554 S
C203 C202 1.392 . S
C203 C205 1.384 . S
H204 C206 0.949 . S
C205 C203 1.384 . S
C205 C206 1.385 . S
C205 H207 0.950 . S
C206 C200 1.404 . S
C206 H204 0.949 . S
C206 C205 1.385 . S
H207 C205 0.950 . S
H208 C192 0.951 . S
H209 C194 0.951 . S
H210 C196 0.951 . S
H211 C197 0.950 . S
H212 C198 0.950 . S
H213 C199 0.950 . S
H214 C201 0.950 . S
H215 C202 0.951 1_556 S
C216 C217 1.386 1_554 S
C216 C218 1.383 . S
C216 H232 0.951 . S
C217 C216 1.386 1_556 S
C217 C221 1.383 . S
C218 C216 1.383 . S
C218 C219 1.402 1_554 S
C218 H233 0.951 . S
C219 C218 1.402 1_556 S
C219 C220 1.375 . S
C219 C222 1.481 . S
C220 C219 1.375 . S
C220 C221 1.367 . S
C220 H234 0.951 . S
C221 C217 1.383 . S
C221 C220 1.367 . S
C221 H235 0.950 . S
C222 C219 1.481 . S
C222 C223 1.297 1_556 S
C222 H236 0.950 . S
C223 C222 1.297 1_554 S
C223 C224 1.479 . S
C223 H237 0.950 . S
C224 C223 1.479 . S
C224 C225 1.375 . S
C224 C230 1.404 1_554 S
C225 C224 1.375 . S
C225 C226 1.369 . S
C225 H238 0.950 . S
C226 C225 1.369 . S
C226 C227 1.392 . S
C226 H239 0.951 . S
C227 C226 1.392 . S
C227 C229 1.384 1_554 S
H228 C230 0.949 . S
C229 C227 1.384 1_556 S
C229 C230 1.385 . S
C229 H231 0.950 . S
C230 C224 1.404 1_556 S
C230 H228 0.949 . S
C230 C229 1.385 . S
H231 C229 0.950 . S
H232 C216 0.951 . S
H233 C218 0.951 . S
H234 C220 0.951 . S
H235 C221 0.950 . S
H236 C222 0.950 . S
H237 C223 0.950 . S
H238 C225 0.950 . S
H239 C226 0.951 . S
C240 C241 1.386 1_554 S
C240 C242 1.383 . S
C240 H256 0.951 . S
C241 C240 1.386 1_556 S
C241 C245 1.383 . S
C242 C240 1.383 . S
C242 C243 1.402 1_554 S
C242 H257 0.951 . S
C243 C242 1.402 1_556 S
C243 C244 1.375 . S
C243 C246 1.481 . S
C244 C243 1.375 . S
C244 C245 1.367 . S
C244 H258 0.951 . S
C245 C241 1.383 . S
C245 C244 1.367 . S
C245 H259 0.950 . S
C246 C243 1.481 . S
C246 C247 1.297 1_556 S
C246 H260 0.950 . S
C247 C246 1.297 1_554 S
C247 C248 1.479 . S
C247 H261 0.950 . S
C248 C247 1.479 . S
C248 C249 1.375 . S
C248 C254 1.404 1_554 S
C249 C248 1.375 . S
C249 C250 1.369 . S
C249 H262 0.950 . S
C250 C249 1.369 . S
C250 C251 1.392 . S
C250 H263 0.951 . S
C251 C250 1.392 . S
C251 C253 1.384 1_554 S
H252 C254 0.949 . S
C253 C251 1.384 1_556 S
C253 C254 1.385 . S
C253 H255 0.950 . S
C254 C248 1.404 1_556 S
C254 H252 0.949 . S
C254 C253 1.385 . S
H255 C253 0.950 . S
H256 C240 0.951 . S
H257 C242 0.951 . S
H258 C244 0.951 . S
H259 C245 0.950 . S
H260 C246 0.950 . S
H261 C247 0.950 . S
H262 C249 0.950 . S
H263 C250 0.951 . S
C264 C265 1.386 . S
C264 C266 1.382 1_554 S
C264 H280 0.951 . S
C265 C264 1.386 . S
C265 C269 1.382 1_554 S
C266 C264 1.382 1_556 S
C266 C267 1.403 . S
C266 H281 0.950 1_556 S
C267 C266 1.403 . S
C267 C268 1.375 . S
C267 C270 1.481 . S
C268 C267 1.375 . S
C268 C269 1.367 . S
C268 H282 0.951 . S
C269 C265 1.382 1_556 S
C269 C268 1.367 . S
C269 H283 0.950 . S
C270 C267 1.481 . S
C270 C271 1.297 . S
C270 H284 0.950 . S
C271 C270 1.297 . S
C271 C272 1.479 . S
C271 H285 0.950 . S
C272 C271 1.479 . S
C272 C273 1.375 . S
C272 C278 1.404 . S
C273 C272 1.375 . S
C273 C274 1.369 1_556 S
C273 H286 0.950 1_556 S
C274 C273 1.369 1_554 S
C274 C275 1.392 1_554 S
C274 H287 0.951 . S
C275 C274 1.392 1_556 S
C275 C277 1.384 . S
H276 C278 0.949 . S
C277 C275 1.384 . S
C277 C278 1.385 . S
C277 H279 0.950 . S
C278 C272 1.404 . S
C278 H276 0.949 . S
C278 C277 1.385 . S
H279 C277 0.950 . S
H280 C264 0.951 . S
H281 C266 0.950 1_554 S
H282 C268 0.951 . S
H283 C269 0.950 . S
H284 C270 0.950 . S
H285 C271 0.950 . S
H286 C273 0.950 1_554 S
H287 C274 0.951 . S
C288 C289 1.386 . S
C288 C290 1.383 . S
C288 H304 0.951 . S
C289 C288 1.386 . S
C289 C293 1.383 1_554 S
C290 C288 1.383 . S
C290 C291 1.402 . S
C290 H305 0.951 . S
C291 C290 1.402 . S
C291 C292 1.375 . S
C291 C294 1.481 . S
C292 C291 1.375 . S
C292 C293 1.367 1_554 S
C292 H306 0.951 1_554 S
C293 C289 1.383 1_556 S
C293 C292 1.367 1_556 S
C293 H307 0.950 . S
C294 C291 1.481 . S
C294 C295 1.297 . S
C294 H308 0.950 . S
C295 C294 1.297 . S
C295 C296 1.479 . S
C295 H309 0.950 . S
C296 C295 1.479 . S
C296 C297 1.375 . S
C296 C302 1.404 . S
C297 C296 1.375 . S
C297 C298 1.369 . S
C297 H310 0.950 . S
C298 C297 1.369 . S
C298 C299 1.392 . S
C298 H311 0.951 . S
C299 C298 1.392 . S
C299 C301 1.384 . S
H300 C302 0.949 . S
C301 C299 1.384 . S
C301 C302 1.385 . S
C301 H303 0.950 . S
C302 C296 1.404 . S
C302 H300 0.949 . S
C302 C301 1.385 . S
H303 C301 0.950 . S
H304 C288 0.951 . S
H305 C290 0.951 . S
H306 C292 0.951 1_556 S
H307 C293 0.950 . S
H308 C294 0.950 . S
H309 C295 0.950 . S
H310 C297 0.950 . S
H311 C298 0.951 . S
C312 C313 1.386 1_556 S
C312 C314 1.383 . S
C312 H328 0.951 . S
C313 C312 1.386 1_554 S
C313 C317 1.383 . S
C314 C312 1.383 . S
C314 C315 1.402 1_556 S
C314 H329 0.951 . S
C315 C314 1.402 1_554 S
C315 C316 1.375 . S
C315 C318 1.481 . S
C316 C315 1.375 . S
C316 C317 1.367 . S
C316 H330 0.951 . S
C317 C313 1.383 . S
C317 C316 1.367 . S
C317 H331 0.950 . S
C318 C315 1.481 . S
C318 C319 1.297 . S
C318 H332 0.950 . S
C319 C318 1.297 . S
C319 C320 1.479 . S
C319 H333 0.950 1_554 S
C320 C319 1.479 . S
C320 C321 1.375 1_554 S
C320 C326 1.404 . S
C321 C320 1.375 1_556 S
C321 C322 1.369 . S
C321 H334 0.950 . S
C322 C321 1.369 . S
C322 C323 1.392 1_556 S
C322 H335 0.951 . S
C323 C322 1.392 1_554 S
C323 C325 1.384 . S
H324 C326 0.949 . S
C325 C323 1.384 . S
C325 C326 1.385 . S
C325 H327 0.950 . S
C326 C320 1.404 . S
C326 H324 0.949 . S
C326 C325 1.385 . S
H327 C325 0.950 . S
H328 C312 0.951 . S
H329 C314 0.951 . S
H330 C316 0.951 . S
H331 C317 0.950 . S
H332 C318 0.950 . S
H333 C319 0.950 1_556 S
H334 C321 0.950 . S
H335 C322 0.951 . S
C121 C9 1.427 . S
C131 C18 1.486 . S
C145 C49 1.422 1_565 S
C155 C58 1.421 . S
C169 C98 1.422 . S
C179 C89 1.473 . S
C193 C19 2.590 1_556 S
C203 C90 2.535 . S
C217 C46 0.865 . S
C227 C6 0.824 1_554 S
C241 C59 1.940 . S
C251 C86 1.925 . S
C265 C10 2.594 1_554 S
C275 C99 2.526 . S
C289 C15 0.864 . S
C299 C55 0.852 . S
C313 C95 1.916 1_554 S
C323 C50 1.918 . S
