# Generated by pormake.
# Topology lcy-a, (4)-cn, num edge types: 1
# Building blocks:
#     Node 0, Type 0, BuildingBlock: CEKHIL_clean_sbu_0, # of connection points: 4
#     Node 1, Type 0, BuildingBlock: CEKHIL_clean_sbu_0, # of connection points: 4
#     Node 2, Type 0, BuildingBlock: CEKHIL_clean_sbu_0, # of connection points: 4
#     Node 3, Type 0, BuildingBlock: CEKHIL_clean_sbu_0, # of connection points: 4
#     Node 4, Type 0, BuildingBlock: CEKHIL_clean_sbu_0, # of connection points: 4
#     Node 5, Type 0, BuildingBlock: CEKHIL_clean_sbu_0, # of connection points: 4
#     Node 6, Type 0, BuildingBlock: CEKHIL_clean_sbu_0, # of connection points: 4
#     Node 7, Type 0, BuildingBlock: CEKHIL_clean_sbu_0, # of connection points: 4
#     Node 8, Type 0, BuildingBlock: CEKHIL_clean_sbu_0, # of connection points: 4
#     Node 9, Type 0, BuildingBlock: CEKHIL_clean_sbu_0, # of connection points: 4
#     Node 10, Type 0, BuildingBlock: CEKHIL_clean_sbu_0, # of connection points: 4
#     Node 11, Type 0, BuildingBlock: CEKHIL_clean_sbu_0, # of connection points: 4
#     Node 12, Type 0, BuildingBlock: CEKHIL_clean_sbu_0, # of connection points: 4
#     Node 13, Type 0, BuildingBlock: CEKHIL_clean_sbu_0, # of connection points: 4
#     Node 14, Type 0, BuildingBlock: CEKHIL_clean_sbu_0, # of connection points: 4
#     Node 15, Type 0, BuildingBlock: CEKHIL_clean_sbu_0, # of connection points: 4
#     Node 16, Type 0, BuildingBlock: CEKHIL_clean_sbu_0, # of connection points: 4
#     Node 17, Type 0, BuildingBlock: CEKHIL_clean_sbu_0, # of connection points: 4
#     Node 18, Type 0, BuildingBlock: CEKHIL_clean_sbu_0, # of connection points: 4
#     Node 19, Type 0, BuildingBlock: CEKHIL_clean_sbu_0, # of connection points: 4
#     Node 20, Type 0, BuildingBlock: CEKHIL_clean_sbu_0, # of connection points: 4
#     Node 21, Type 0, BuildingBlock: CEKHIL_clean_sbu_0, # of connection points: 4
#     Node 22, Type 0, BuildingBlock: CEKHIL_clean_sbu_0, # of connection points: 4
#     Node 23, Type 0, BuildingBlock: CEKHIL_clean_sbu_0, # of connection points: 4
#     Edge 24, Type (0, 0), BuildingBlock: TEMPAE_clean_linker_10, # of connection points: 2
#     Edge 25, Type (0, 0), BuildingBlock: TEMPAE_clean_linker_10, # of connection points: 2
#     Edge 26, Type (0, 0), BuildingBlock: TEMPAE_clean_linker_10, # of connection points: 2
#     Edge 27, Type (0, 0), BuildingBlock: TEMPAE_clean_linker_10, # of connection points: 2
#     Edge 28, Type (0, 0), BuildingBlock: TEMPAE_clean_linker_10, # of connection points: 2
#     Edge 29, Type (0, 0), BuildingBlock: TEMPAE_clean_linker_10, # of connection points: 2
#     Edge 30, Type (0, 0), BuildingBlock: TEMPAE_clean_linker_10, # of connection points: 2
#     Edge 31, Type (0, 0), BuildingBlock: TEMPAE_clean_linker_10, # of connection points: 2
#     Edge 32, Type (0, 0), BuildingBlock: TEMPAE_clean_linker_10, # of connection points: 2
#     Edge 33, Type (0, 0), BuildingBlock: TEMPAE_clean_linker_10, # of connection points: 2
#     Edge 34, Type (0, 0), BuildingBlock: TEMPAE_clean_linker_10, # of connection points: 2
#     Edge 35, Type (0, 0), BuildingBlock: TEMPAE_clean_linker_10, # of connection points: 2
#     Edge 36, Type (0, 0), BuildingBlock: TEMPAE_clean_linker_10, # of connection points: 2
#     Edge 37, Type (0, 0), BuildingBlock: TEMPAE_clean_linker_10, # of connection points: 2
#     Edge 38, Type (0, 0), BuildingBlock: TEMPAE_clean_linker_10, # of connection points: 2
#     Edge 39, Type (0, 0), BuildingBlock: TEMPAE_clean_linker_10, # of connection points: 2
#     Edge 40, Type (0, 0), BuildingBlock: TEMPAE_clean_linker_10, # of connection points: 2
#     Edge 41, Type (0, 0), BuildingBlock: TEMPAE_clean_linker_10, # of connection points: 2
#     Edge 42, Type (0, 0), BuildingBlock: TEMPAE_clean_linker_10, # of connection points: 2
#     Edge 43, Type (0, 0), BuildingBlock: TEMPAE_clean_linker_10, # of connection points: 2
#     Edge 44, Type (0, 0), BuildingBlock: TEMPAE_clean_linker_10, # of connection points: 2
#     Edge 45, Type (0, 0), BuildingBlock: TEMPAE_clean_linker_10, # of connection points: 2
#     Edge 46, Type (0, 0), BuildingBlock: TEMPAE_clean_linker_10, # of connection points: 2
#     Edge 47, Type (0, 0), BuildingBlock: TEMPAE_clean_linker_10, # of connection points: 2
#     Edge 48, Type (0, 0), BuildingBlock: TEMPAE_clean_linker_10, # of connection points: 2
#     Edge 49, Type (0, 0), BuildingBlock: TEMPAE_clean_linker_10, # of connection points: 2
#     Edge 50, Type (0, 0), BuildingBlock: TEMPAE_clean_linker_10, # of connection points: 2
#     Edge 51, Type (0, 0), BuildingBlock: TEMPAE_clean_linker_10, # of connection points: 2
#     Edge 52, Type (0, 0), BuildingBlock: TEMPAE_clean_linker_10, # of connection points: 2
#     Edge 53, Type (0, 0), BuildingBlock: TEMPAE_clean_linker_10, # of connection points: 2
#     Edge 54, Type (0, 0), BuildingBlock: TEMPAE_clean_linker_10, # of connection points: 2
#     Edge 55, Type (0, 0), BuildingBlock: TEMPAE_clean_linker_10, # of connection points: 2
#     Edge 56, Type (0, 0), BuildingBlock: TEMPAE_clean_linker_10, # of connection points: 2
#     Edge 57, Type (0, 0), BuildingBlock: TEMPAE_clean_linker_10, # of connection points: 2
#     Edge 58, Type (0, 0), BuildingBlock: TEMPAE_clean_linker_10, # of connection points: 2
#     Edge 59, Type (0, 0), BuildingBlock: TEMPAE_clean_linker_10, # of connection points: 2
#     Edge 60, Type (0, 0), BuildingBlock: TEMPAE_clean_linker_10, # of connection points: 2
#     Edge 61, Type (0, 0), BuildingBlock: TEMPAE_clean_linker_10, # of connection points: 2
#     Edge 62, Type (0, 0), BuildingBlock: TEMPAE_clean_linker_10, # of connection points: 2
#     Edge 63, Type (0, 0), BuildingBlock: TEMPAE_clean_linker_10, # of connection points: 2
#     Edge 64, Type (0, 0), BuildingBlock: TEMPAE_clean_linker_10, # of connection points: 2
#     Edge 65, Type (0, 0), BuildingBlock: TEMPAE_clean_linker_10, # of connection points: 2
#     Edge 66, Type (0, 0), BuildingBlock: TEMPAE_clean_linker_10, # of connection points: 2
#     Edge 67, Type (0, 0), BuildingBlock: TEMPAE_clean_linker_10, # of connection points: 2
#     Edge 68, Type (0, 0), BuildingBlock: TEMPAE_clean_linker_10, # of connection points: 2
#     Edge 69, Type (0, 0), BuildingBlock: TEMPAE_clean_linker_10, # of connection points: 2
#     Edge 70, Type (0, 0), BuildingBlock: TEMPAE_clean_linker_10, # of connection points: 2
#     Edge 71, Type (0, 0), BuildingBlock: TEMPAE_clean_linker_10, # of connection points: 2
# Relax obj value: 0.422
# Max RMSD: 0.178
# Mean RMSD: 0.178
data_MOF--net-lcy-a--node1-CEKHIL_clean_sbu_0--edge1-TEMPAE_clean_linker_10
_symmetry_space_group_name_H-M    P1
_symmetry_Int_Tables_number       1
_symmetry_cell_setting            triclinic
loop_
_symmetry_equiv_pos_as_xyz
'x, y, z'
_cell_length_a     56.473333
_cell_length_b     56.525177
_cell_length_c     56.550834
_cell_angle_alpha  89.978355
_cell_angle_beta   90.088636
_cell_angle_gamma 89.956637
loop_
_atom_site_label
_atom_site_type_symbol
_atom_site_fract_x
_atom_site_fract_y
_atom_site_fract_z
_atom_type_partial_charge
Co0 Co 0.22729 0.28666 0.42979 0.0
O1 O 0.21135 0.27399 0.4571 0.0
O2 O 0.19409 0.29311 0.42739 0.0
C3 C 0.25006 0.25526 0.4207 0.0
O4 O 0.23666 0.30098 0.39837 0.0
Co5 Co 0.2817 0.29423 0.4278 0.0
O6 O 0.2761 0.30025 0.39356 0.0
C7 C 0.2518 0.32729 0.45499 0.0
C8 C 0.19201 0.2818 0.44726 0.0
C9 C 0.25524 0.30372 0.38563 0.0
O10 O 0.23289 0.3177 0.44659 0.0
O11 O 0.27256 0.31894 0.45139 0.0
O12 O 0.22784 0.25559 0.41465 0.0
O13 O 0.2566 0.27205 0.4347 0.0
Co14 Co -0.00069 0.98211 0.65938 0.0
O15 O 0.01914 0.96295 0.67954 0.0
O16 O 0.9858 0.95122 0.66225 0.0
C17 C 0.02738 -0.00174 0.63615 0.0
O18 O 0.97485 -0.0047 0.63674 0.0
Co19 Co 0.00112 0.0367 0.6589 0.0
O20 O 0.98002 0.03419 0.63082 0.0
C21 C 0.97519 0.0128 0.69704 0.0
C22 C 0.0037 0.94627 0.67577 0.0
C23 C 0.96979 0.01469 0.62601 0.0
O24 O 0.97987 0.99281 0.68727 0.0
O25 O 0.98327 0.03247 0.68927 0.0
O26 O 0.02035 0.97664 0.63272 0.0
O27 O 0.01988 0.00798 0.65552 0.0
Co28 Co 0.2526 0.72664 0.90658 0.0
O29 O 0.26705 0.74964 0.92716 0.0
O30 O 0.28596 0.72065 0.90856 0.0
C31 C 0.22989 0.7511 0.88484 0.0
O32 O 0.24494 0.70086 0.88299 0.0
Co33 Co 0.19856 0.71692 0.90581 0.0
O34 O 0.20579 0.69896 0.87638 0.0
C35 C 0.22783 0.69657 0.94397 0.0
C36 C 0.28689 0.73896 0.92238 0.0
C37 C 0.22701 0.69316 0.87133 0.0
O38 O 0.24674 0.70426 0.93385 0.0
O39 O 0.20698 0.7017 0.93666 0.0
O40 O 0.2524 0.74919 0.88042 0.0
O41 O 0.22284 0.74101 0.90407 0.0
Co42 Co 0.48489 0.99396 0.17492 0.0
O43 O 0.46337 0.0018 0.20031 0.0
O44 O 0.49019 0.02589 0.18452 0.0
C45 C 0.45995 0.97547 0.15009 0.0
O46 O 0.50881 0.9938 0.14828 0.0
Co47 Co 0.49736 0.94251 0.161 0.0
O48 O 0.51316 0.95734 0.13322 0.0
C49 C 0.5183 0.9629 0.20396 0.0
C50 C 0.47377 0.02235 0.20013 0.0
C51 C 0.51688 0.97957 0.13256 0.0
O52 O 0.50952 0.98316 0.19845 0.0
O53 O 0.51375 0.944 0.19236 0.0
O54 O 0.46022 -0.00151 0.15109 0.0
O55 O 0.47178 0.96481 0.16648 0.0
Co56 Co 0.70862 0.20539 0.58588 0.0
O57 O 0.69442 0.22592 0.56275 0.0
O58 O 0.67475 0.20191 0.58682 0.0
C59 C 0.73402 0.23182 0.6017 0.0
O60 O 0.71654 0.18252 0.61255 0.0
Co61 Co 0.76243 0.19325 0.58563 0.0
O62 O 0.75593 0.18095 0.61781 0.0
C63 C 0.72978 0.16965 0.55197 0.0
C64 C 0.67425 0.21775 0.57016 0.0
C65 C 0.73491 0.17617 0.62446 0.0
O66 O 0.71149 0.17946 0.56136 0.0
O67 O 0.75111 0.17407 0.55823 0.0
O68 O 0.712 0.23154 0.60837 0.0
O69 O 0.7391 0.21815 0.58421 0.0
Co70 Co 0.98778 0.47139 0.83044 0.0
O71 O 0.96564 0.45882 0.80764 0.0
O72 O 0.99422 0.43855 0.82571 0.0
C73 C 0.96298 0.4927 0.85314 0.0
O74 O 0.01301 0.47688 0.85524 0.0
Co75 Co -0.00186 0.52498 0.83495 0.0
O76 O 0.01726 0.51554 0.86306 0.0
C77 C 0.01897 0.49837 0.79552 0.0
C78 C 0.97714 0.43903 0.81034 0.0
C79 C 0.02206 0.49389 0.86723 0.0
O80 O 0.01092 0.47908 0.80445 0.0
O81 O 0.01398 0.5188 0.80389 0.0
O82 O 0.9644 0.46986 0.85589 0.0
O83 O 0.97362 0.50097 0.83472 0.0
Co84 Co 0.78087 0.78413 0.06868 0.0
O85 O 0.79718 0.76975 0.04258 0.0
O86 O 0.81349 0.79364 0.06923 0.0
C87 C 0.7614 0.75203 0.08194 0.0
O88 O 0.77066 0.80129 0.09842 0.0
Co89 Co 0.72602 0.78688 0.07073 0.0
O90 O 0.73148 0.79735 0.10388 0.0
C91 C 0.75237 0.81825 0.03849 0.0
C92 C 0.81594 0.78037 0.05064 0.0
C93 C 0.75193 0.80371 0.11105 0.0
O94 O 0.77207 0.81216 0.04826 0.0
O95 O 0.73261 0.8083 0.04335 0.0
O96 O 0.78351 0.75519 0.08752 0.0
O97 O 0.75308 0.76643 0.0663 0.0
Co98 Co 0.50107 0.52096 0.32984 0.0
O99 O 0.51672 0.52418 0.29988 0.0
O100 O 0.49841 0.55309 0.31935 0.0
C101 C 0.52932 0.5 0.34879 0.0
O102 O 0.48352 0.52475 0.36099 0.0
Co103 Co 0.48728 0.47134 0.34903 0.0
O104 O 0.47913 0.4892 0.37811 0.0
C105 C 0.45973 0.49266 0.31012 0.0
C106 C 0.51004 0.54615 0.30079 0.0
C107 C 0.4772 0.51168 0.37848 0.0
O108 O 0.47071 0.51243 0.31286 0.0
O109 O 0.46534 0.4738 0.32135 0.0
O110 O 0.53117 0.52289 0.34726 0.0
O111 O 0.51237 0.49082 0.33662 0.0
Co112 Co 0.42496 0.21221 0.28692 0.0
O113 O 0.44549 0.19478 0.26618 0.0
O114 O 0.42427 0.17924 0.2953 0.0
C115 C 0.40637 0.23415 0.25929 0.0
O116 O 0.40074 0.2236 0.31069 0.0
Co117 Co 0.42768 0.26686 0.2919 0.0
O118 O 0.39643 0.26298 0.30782 0.0
C119 C 0.46397 0.23693 0.31452 0.0
C120 C 0.43866 0.17607 0.27768 0.0
C121 C 0.38962 0.24285 0.31543 0.0
O122 O 0.45171 0.21823 0.31004 0.0
O123 O 0.45866 0.25743 0.30643 0.0
O124 O 0.39992 0.21239 0.26296 0.0
O125 O 0.42539 0.24066 0.27011 0.0
Co126 Co 0.02186 0.16067 0.49158 0.0
O127 O 0.02913 0.19171 0.47958 0.0
O128 O 0.05494 0.16675 0.49582 0.0
C129 C -0.00047 0.14806 0.46092 0.0
O130 O 0.02178 0.12759 0.50547 0.0
Co131 Co 0.97041 0.14471 0.50232 0.0
O132 O 0.98491 0.1132 0.50815 0.0
C133 C 0.99483 0.17789 0.53462 0.0
C134 C 0.05072 0.1872 0.48622 0.0
C135 C 0.00726 0.11076 0.51015 0.0
O136 O 0.01452 0.17472 0.52361 0.0
O137 O 0.97513 0.16919 0.52748 0.0
O138 O 0.0225 0.14691 0.45964 0.0
O139 O 0.99133 0.15875 0.47928 0.0
Co140 Co 0.05449 0.74979 0.74593 0.0
O141 O 0.03083 0.76323 0.72525 0.0
O142 O 0.05215 0.78301 0.75175 0.0
C143 C 0.07413 0.72726 0.71976 0.0
O144 O 0.08123 0.74343 0.76888 0.0
Co145 Co 0.05793 0.69613 0.75662 0.0
O146 O 0.08857 0.70453 0.77202 0.0
C147 C 0.02135 0.72458 0.78026 0.0
C148 C 0.03614 0.78326 0.73527 0.0
C149 C 0.09387 0.72604 0.77624 0.0
O150 O 0.03025 0.74357 0.7714 0.0
O151 O 0.0284 0.70384 0.77452 0.0
O152 O 0.07788 0.74995 0.72056 0.0
O153 O 0.05629 0.71987 0.73194 0.0
Co154 Co 0.4738 0.83219 0.98042 0.0
O155 O 0.46145 0.81089 0.95668 0.0
O156 O 0.44152 0.82505 0.98745 0.0
C157 C 0.49259 0.8585 0.95723 0.0
O158 O 0.4787 0.85508 0.0074 0.0
Co159 Co 0.52733 0.83971 0.98946 0.0
O160 O 0.51679 0.86583 0.01066 0.0
C161 C 0.50466 0.79606 0.00614 0.0
C162 C 0.44187 0.81171 0.96879 0.0
C163 C 0.49507 0.868 0.01636 0.0
O164 O 0.48425 0.80462 0.00067 0.0
O165 O 0.52412 0.80635 0.00084 0.0
O166 O 0.46968 0.85954 0.95963 0.0
O167 O 0.50246 0.83973 0.96574 0.0
Co168 Co 0.92139 0.25109 0.72457 0.0
O169 O 0.94496 0.26533 0.74449 0.0
O170 O 0.92536 0.2837 0.71579 0.0
C171 C 0.90053 0.23269 0.75294 0.0
O172 O 0.89476 0.24323 0.70176 0.0
Co173 Co 0.91611 0.19661 0.72037 0.0
O174 O 0.88543 0.20472 0.70503 0.0
C175 C 0.95474 0.22061 0.69497 0.0
C176 C 0.94051 0.28479 0.73307 0.0
C177 C 0.88106 0.22556 0.69754 0.0
O178 O 0.94617 0.24093 0.70081 0.0
O179 O 0.94655 0.20105 0.7029 0.0
O180 O 0.89747 0.25516 0.74914 0.0
O181 O 0.91808 0.22315 0.74188 0.0
Co182 Co 0.98693 0.66867 0.9872 0.0
O183 O 0.98012 0.69779 0.00345 0.0
O184 O 0.95348 0.67424 0.98651 0.0
C185 C 0.01176 0.65223 0.01364 0.0
O186 O 0.98679 0.63734 0.96959 0.0
Co187 Co 0.03782 0.65725 0.97001 0.0
O188 O 0.02409 0.62592 0.96187 0.0
C189 C 0.00895 0.69187 0.9438 0.0
C190 C 0.95813 0.69349 -0.00183 0.0
C191 C 0.00183 0.62215 0.96179 0.0
O192 O 0.99087 0.6866 0.95657 0.0
O193 O 0.0297 0.68369 0.94786 0.0
O194 O 0.98901 0.65108 0.01689 0.0
O195 O 0.01849 0.66605 -0.00324 0.0
Co196 Co 0.57423 0.7103 0.19449 0.0
O197 O 0.54727 0.6941 0.20721 0.0
O198 O 0.57464 0.67796 0.18406 0.0
C199 C 0.58653 0.7284 0.22773 0.0
O200 O 0.60491 0.72067 0.17901 0.0
Co201 Co 0.57689 0.76515 0.19368 0.0
O202 O 0.61047 0.75961 0.18477 0.0
C203 C 0.54656 0.74021 0.15927 0.0
C204 C 0.55551 0.67547 0.19656 0.0
C205 C 0.61778 0.73939 0.17795 0.0
O206 O 0.55517 0.72018 0.16589 0.0
O207 O 0.55142 0.75974 0.16966 0.0
O208 O 0.59173 0.70631 0.22404 0.0
O209 O 0.57154 0.73751 0.21306 0.0
Co210 Co 0.51437 0.34297 0.49817 0.0
O211 O 0.51725 0.31475 0.51714 0.0
O212 O 0.54716 0.3349 0.5014 0.0
C213 C 0.48831 0.36288 0.52091 0.0
O214 O 0.51916 0.3728 0.4787 0.0
Co215 Co 0.46675 0.35844 0.47538 0.0
O216 O 0.48381 0.38864 0.46988 0.0
C217 C 0.49393 0.31881 0.45462 0.0
C218 C 0.53993 0.31707 0.51394 0.0
C219 C 0.50633 0.38986 0.47084 0.0
O220 O 0.51149 0.32284 0.46864 0.0
O221 O 0.47418 0.32985 0.45601 0.0
O222 O 0.51073 0.36302 0.52621 0.0
O223 O 0.48234 0.34866 0.50415 0.0
Co224 Co 0.27866 0.41549 0.22015 0.0
O225 O 0.26057 0.43865 0.20295 0.0
O226 O 0.28826 0.41536 0.18755 0.0
C227 C 0.2491 0.3979 0.24014 0.0
O228 O 0.30005 0.38896 0.23155 0.0
Co229 Co 0.28147 0.41636 0.27499 0.0
O230 O 0.29746 0.38523 0.27104 0.0
C231 C 0.30756 0.4518 0.24738 0.0
C232 C 0.27241 0.43175 0.1845 0.0
C233 C 0.30462 0.37796 0.25093 0.0
O234 O 0.30333 0.44016 0.22825 0.0
O235 O 0.29808 0.44663 0.26726 0.0
O236 O 0.25296 0.3924 0.21816 0.0
O237 O 0.26066 0.41602 0.24782 0.0
Co238 Co 0.77575 0.05456 0.77926 0.0
O239 O 0.76275 0.02847 0.79702 0.0
O240 O 0.78493 0.05728 0.81175 0.0
C241 C 0.74311 0.06535 0.75886 0.0
O242 O 0.79088 0.08492 0.76814 0.0
Co243 Co 0.77899 0.05524 0.72443 0.0
O244 O 0.7879 0.08902 0.72877 0.0
C245 C 0.81436 0.02837 0.75207 0.0
C246 C 0.77229 0.03848 0.81546 0.0
C247 C 0.79318 0.09708 0.74914 0.0
O248 O 0.80568 0.03627 0.77163 0.0
O249 O 0.80475 0.03215 0.73191 0.0
O250 O 0.74557 0.07139 0.78089 0.0
O251 O 0.75842 0.05018 0.75126 0.0
Co252 Co 0.17245 0.49807 0.00569 0.0
O253 O 0.19931 0.47866 0.01408 0.0
O254 O 0.17826 0.50071 0.03896 0.0
C255 C 0.15226 0.47204 0.98322 0.0
O256 O 0.14372 0.51952 0.00451 0.0
Co257 Co 0.16174 0.51224 0.95368 0.0
O258 O 0.13178 0.52501 0.96704 0.0
C259 C 0.19975 0.53671 0.9799 0.0
C260 C 0.19561 0.48603 0.03554 0.0
C261 C 0.12895 0.52766 0.98925 0.0
O262 O 0.19392 0.52592 -0.00091 0.0
O263 O 0.19056 0.53188 0.95976 0.0
O264 O 0.15113 0.47085 0.00615 0.0
O265 O 0.16805 0.48632 0.97502 0.0
Co266 Co 0.71163 0.90507 0.28151 0.0
O267 O 0.72634 0.92991 0.29919 0.0
O268 O 0.70326 0.9019 0.31434 0.0
C269 C 0.74307 0.89377 0.25985 0.0
O270 O 0.69418 0.87628 0.2693 0.0
Co271 Co 0.70697 0.90819 0.22683 0.0
O272 O 0.69632 0.87477 0.22966 0.0
C273 C 0.67569 0.93686 0.2571 0.0
C274 C 0.71625 0.92059 0.31762 0.0
C275 C 0.69069 0.86567 0.24952 0.0
O276 O 0.68307 0.92573 0.27556 0.0
O277 O 0.68485 0.93407 0.23658 0.0
O278 O 0.7408 0.88636 0.2815 0.0
O279 O 0.72831 0.90998 0.25348 0.0
Co280 Co 0.33015 0.51958 0.50709 0.0
O281 O 0.30443 0.53876 0.51908 0.0
O282 O 0.32366 0.5105 0.53876 0.0
C283 C 0.35242 0.54726 0.4891 0.0
O284 O 0.35728 0.49684 0.50268 0.0
Co285 Co 0.34024 0.51207 0.454 0.0
O286 O 0.36829 0.49351 0.46484 0.0
C287 C 0.29959 0.48815 0.47548 0.0
C288 C 0.30666 0.52588 0.53809 0.0
C289 C 0.37104 0.48867 0.48668 0.0
O290 O 0.30671 0.49515 0.4959 0.0
O291 O 0.30937 0.49476 0.45618 0.0
O292 O 0.35331 0.54485 0.512 0.0
O293 O 0.33571 0.53559 0.47872 0.0
Co294 Co 0.21199 0.55325 0.72377 0.0
O295 O 0.23146 0.52898 0.7098 0.0
O296 O 0.20502 0.55109 0.69079 0.0
C297 C 0.23987 0.572 0.74509 0.0
O298 O 0.19026 0.58078 0.73044 0.0
Co299 Co 0.20329 0.55844 0.77759 0.0
O300 O 0.18983 0.58992 0.76903 0.0
C301 C 0.17743 0.52193 0.75065 0.0
C302 C 0.22132 0.53494 0.68997 0.0
C303 C 0.18474 0.59458 0.74756 0.0
O304 O 0.18596 0.52993 0.73112 0.0
O305 O 0.18395 0.52952 0.77097 0.0
O306 O 0.23822 0.57561 0.72244 0.0
O307 O 0.22711 0.55488 0.75321 0.0
Co308 Co 0.65628 0.00645 0.99094 0.0
O309 O 0.68235 0.02729 0.98381 0.0
O310 O 0.66304 0.00479 0.95786 0.0
C311 C 0.63414 0.03 0.01411 0.0
O312 O 0.62868 0.98357 0.99074 0.0
Co313 Co 0.64641 0.98917 0.04199 0.0
O314 O 0.61775 0.9744 0.02778 0.0
C315 C 0.68757 0.97073 0.01633 0.0
C316 C 0.68008 0.01953 0.96227 0.0
C317 C 0.61465 0.97349 0.00547 0.0
O318 O 0.67964 0.98008 -0.00285 0.0
O319 O 0.67813 0.97446 0.03654 0.0
O320 O 0.6332 0.03232 0.99121 0.0
O321 O 0.65087 0.01654 0.02188 0.0
Co322 Co 0.82698 0.01803 0.46497 0.0
O323 O 0.79995 -0.00233 0.46884 0.0
O324 O 0.82058 0.00231 0.43569 0.0
C325 C 0.84606 0.00734 0.49814 0.0
O326 O 0.85629 0.03636 0.45434 0.0
Co327 Co 0.83908 0.05765 0.50101 0.0
O328 O 0.87083 0.05415 0.48672 0.0
C329 C 0.80038 0.06469 0.46626 0.0
C330 C 0.8031 0.99226 0.44676 0.0
C331 C 0.87325 0.04648 0.46569 0.0
O332 O 0.80493 0.04486 0.45612 0.0
O333 O 0.81131 0.07219 0.48463 0.0
O334 O 0.84786 0.99447 0.47918 0.0
O335 O 0.83118 0.02464 0.49707 0.0
C336 C 0.09226 0.19641 0.47625 0.0
C337 C 0.06982 0.20439 0.48288 0.0
C338 C 0.11072 0.2124 0.47235 0.0
C339 C 0.10681 0.23687 0.47614 0.0
C340 C 0.08434 0.24495 0.48375 0.0
C341 C 0.06587 0.22857 0.48654 0.0
C342 C 0.13424 0.20312 0.46361 0.0
C343 C 0.07986 0.27076 0.48893 0.0
C344 C 0.16579 0.26781 0.47989 0.0
C345 C 0.16854 0.27531 0.45645 0.0
C346 C 0.14453 0.25744 0.48739 0.0
C347 C 0.12611 0.25377 0.47078 0.0
C348 C 0.12821 0.26294 0.44759 0.0
C349 C 0.14932 0.27395 0.44082 0.0
C350 C 0.14247 0.24887 0.51258 0.0
C351 C 0.1092 0.259 0.42918 0.0
H352 H 0.09517 0.17766 0.47341 0.0
H353 H 0.04849 0.23458 0.49203 0.0
H354 H 0.13893 0.21178 0.44663 0.0
H355 H 0.14841 0.20741 0.47651 0.0
H356 H 0.13406 0.18366 0.46086 0.0
H357 H 0.0622 0.27374 0.49701 0.0
H358 H 0.09367 0.27769 0.50108 0.0
H359 H 0.08093 0.2812 0.47236 0.0
H360 H 0.18054 0.26921 0.49211 0.0
H361 H 0.15139 0.2798 0.42268 0.0
H362 H 0.1455 0.22949 0.51317 0.0
H363 H 0.12447 0.25231 0.51964 0.0
H364 H 0.1557 0.2575 0.5243 0.0
H365 H 0.10895 0.24003 0.42413 0.0
H366 H 0.11226 0.2697 0.41298 0.0
H367 H 0.09148 0.26342 0.43631 0.0
C368 C 0.98622 0.90856 0.69004 0.0
C369 C 0.00632 0.9225 0.68598 0.0
C370 C 0.98835 0.88548 0.69884 0.0
C371 C 0.01117 0.87599 0.70297 0.0
C372 C 0.03153 0.89005 0.6989 0.0
C373 C 0.02883 0.91333 0.69076 0.0
C374 C 0.96625 0.87127 0.7037 0.0
C375 C 0.05617 0.88035 0.7027 0.0
C376 C 0.02309 0.82427 0.74362 0.0
C377 C 0.0259 0.8058 0.72739 0.0
C378 C 0.01672 0.84697 0.73602 0.0
C379 C 0.01394 0.85136 0.71154 0.0
C380 C 0.01577 0.83249 0.69516 0.0
C381 C 0.02141 0.80975 0.70337 0.0
C382 C 0.01406 0.86647 0.75408 0.0
C383 C 0.01331 0.83659 0.66889 0.0
H384 H 0.96878 0.91579 0.68649 0.0
H385 H 0.04435 0.9241 0.68744 0.0
H386 H 0.96584 0.85538 0.6922 0.0
H387 H 0.96631 0.86497 0.72229 0.0
H388 H 0.94984 0.88167 0.70059 0.0
H389 H 0.07014 0.89338 0.69808 0.0
H390 H 0.05853 0.8751 0.72145 0.0
H391 H 0.05875 0.86424 0.69178 0.0
H392 H 0.02638 0.82106 0.76225 0.0
H393 H 0.02378 0.79541 0.69086 0.0
H394 H -0.0024 0.87668 0.75078 0.0
H395 H 0.02914 0.87894 0.75257 0.0
H396 H 0.01362 0.85949 0.77244 0.0
H397 H -0.00335 0.8462 0.66492 0.0
H398 H 0.01346 0.81979 0.65871 0.0
H399 H 0.02816 0.84782 0.66265 0.0
C400 C 0.31255 0.77206 0.93587 0.0
C401 C 0.30976 0.74795 0.93102 0.0
C402 C 0.33479 0.78126 0.94193 0.0
C403 C 0.35446 0.76581 0.94382 0.0
C404 C 0.35152 0.74129 0.93974 0.0
C405 C 0.32922 0.73269 0.93302 0.0
C406 C 0.33734 0.80758 0.94578 0.0
C407 C 0.37192 0.7242 0.94237 0.0
C408 C 0.41539 0.79359 0.93843 0.0
C409 C 0.42076 0.79801 0.96218 0.0
C410 C 0.39397 0.78266 0.93214 0.0
C411 C 0.37806 0.77546 0.95012 0.0
C412 C 0.38411 0.77876 0.97417 0.0
C413 C 0.40525 0.79034 0.97989 0.0
C414 C 0.38789 0.77977 0.9063 0.0
C415 C 0.36798 0.77064 0.99384 0.0
H416 H 0.29752 0.78388 0.9341 0.0
H417 H 0.32698 0.71399 0.92939 0.0
H418 H 0.34379 0.81111 0.96397 0.0
H419 H 0.35069 0.81486 0.93337 0.0
H420 H 0.32039 0.81721 0.94315 0.0
H421 H 0.36636 0.70553 0.93977 0.0
H422 H 0.38591 0.72843 0.9293 0.0
H423 H 0.37994 0.72594 0.96021 0.0
H424 H 0.42742 0.79962 0.92478 0.0
H425 H 0.40962 0.7935 -0.0017 0.0
H426 H 0.37198 0.7905 0.90202 0.0
H427 H 0.38351 0.76106 0.90239 0.0
H428 H 0.4026 0.78538 0.89454 0.0
H429 H 0.35153 0.78136 0.99377 0.0
H430 H 0.37644 0.77229 0.01152 0.0
H431 H 0.36277 0.75191 0.9911 0.0
C432 C 0.48647 0.05341 0.22806 0.0
C433 C 0.46801 0.041 0.21717 0.0
C434 C 0.48188 0.07357 0.24167 0.0
C435 C 0.45835 0.08193 0.24359 0.0
C436 C 0.43949 0.06865 0.23367 0.0
C437 C 0.44456 0.04802 0.2208 0.0
C438 C 0.50239 0.08671 0.25267 0.0
C439 C 0.4142 0.07721 0.23501 0.0
C440 C 0.44333 0.1327 0.28501 0.0
C441 C 0.44521 0.15214 0.26972 0.0
C442 C 0.44799 0.10966 0.27695 0.0
C443 C 0.45396 0.10607 0.25292 0.0
C444 C 0.45596 0.12569 0.23749 0.0
C445 C 0.45188 0.14852 0.24617 0.0
C446 C 0.44646 0.08922 0.29406 0.0
C447 C 0.46198 0.12257 0.21164 0.0
H448 H 0.5046 0.04766 0.2254 0.0
H449 H 0.43037 0.03832 0.21224 0.0
H450 H 0.50605 0.10296 0.24231 0.0
H451 H 0.49805 0.09223 0.27099 0.0
H452 H 0.51876 0.0758 0.25308 0.0
H453 H 0.40143 0.0636 0.22884 0.0
H454 H 0.40961 0.08231 0.25337 0.0
H455 H 0.41214 0.0932 0.2238 0.0
H456 H 0.43824 0.13551 0.30327 0.0
H457 H 0.45312 0.1635 0.23426 0.0
H458 H 0.4633 0.07909 0.29399 0.0
H459 H 0.43224 0.07689 0.28848 0.0
H460 H 0.44277 0.09515 0.31242 0.0
H461 H 0.47971 0.11432 0.20985 0.0
H462 H 0.46201 0.13961 0.20185 0.0
H463 H 0.449 0.11052 0.20315 0.0
C464 C 0.65039 0.23589 0.53794 0.0
C465 C 0.65179 0.2273 0.56111 0.0
C466 C 0.62999 0.24755 0.52993 0.0
C467 C 0.61102 0.25146 0.54581 0.0
C468 C 0.61198 0.24191 0.56894 0.0
C469 C 0.6323 0.22958 0.57621 0.0
C470 C 0.62926 0.25674 0.50486 0.0
C471 C 0.59237 0.24618 0.58655 0.0
C472 C 0.57798 0.30842 0.5338 0.0
C473 C 0.55697 0.30011 0.52373 0.0
C474 C 0.59523 0.29264 0.54201 0.0
C475 C 0.59172 0.268 0.53913 0.0
C476 C 0.57039 0.25951 0.52904 0.0
C477 C 0.55299 0.27575 0.52182 0.0
C478 C 0.61741 0.30238 0.55336 0.0
C479 C 0.5664 0.23343 0.52495 0.0
H480 H 0.66541 0.23383 0.5262 0.0
H481 H 0.63348 0.22299 0.59418 0.0
H482 H 0.61199 0.25256 0.49648 0.0
H483 H 0.63119 0.27627 0.50496 0.0
H484 H 0.64366 0.24915 0.49385 0.0
H485 H 0.59462 0.23541 0.60284 0.0
H486 H 0.59221 0.26515 0.59159 0.0
H487 H 0.57488 0.2421 0.57863 0.0
H488 H 0.58087 0.32733 0.53532 0.0
H489 H 0.53675 0.26947 0.51371 0.0
H490 H 0.63293 0.29859 0.54197 0.0
H491 H 0.62059 0.29366 0.57066 0.0
H492 H 0.61639 0.3218 0.5562 0.0
H493 H 0.57945 0.2268 0.51187 0.0
H494 H 0.5483 0.22964 0.51824 0.0
H495 H 0.56925 0.22334 0.54153 0.0
C496 C 0.95636 0.3102 0.76513 0.0
C497 C 0.94974 0.30767 0.7414 0.0
C498 C 0.96156 0.33251 0.77454 0.0
C499 C 0.96078 0.35263 0.75964 0.0
C500 C 0.95549 0.34997 0.73531 0.0
C501 C 0.94963 0.3275 0.72653 0.0
C502 C 0.96682 0.33466 0.80066 0.0
C503 C 0.9554 0.37091 0.71873 0.0
C504 C 0.94937 0.41079 0.79101 0.0
C505 C 0.97251 0.41832 0.79546 0.0
C506 C 0.94521 0.38965 0.77866 0.0
C507 C 0.96468 0.37642 0.76995 0.0
C508 C 0.98801 0.38493 0.77312 0.0
C509 C 0.99167 0.40558 0.78627 0.0
C510 C 0.92011 0.38084 0.77605 0.0
C511 C 0.00916 0.37185 0.76331 0.0
H512 H 0.95628 0.29491 0.77671 0.0
H513 H 0.94462 0.3255 0.70812 0.0
H514 H 0.98433 0.3431 0.8034 0.0
H515 H 0.95337 0.34617 0.80916 0.0
H516 H 0.96684 0.31724 0.80976 0.0
H517 H 0.95374 0.36544 0.69993 0.0
H518 H 0.94036 0.38275 0.72308 0.0
H519 H 0.9719 0.38135 0.72086 0.0
H520 H 0.93464 0.4208 0.79815 0.0
H521 H 0.00957 0.41179 0.78944 0.0
H522 H 0.91804 0.36399 0.7859 0.0
H523 H 0.91609 0.37712 0.75722 0.0
H524 H 0.90692 0.39375 0.78283 0.0
H525 H 0.01198 0.35529 0.77345 0.0
H526 H 0.02561 0.38258 0.76431 0.0
H527 H 0.006 0.36683 0.7446 0.0
C528 C 0.84188 0.76917 0.01697 0.0
C529 C 0.83942 0.77521 0.04083 0.0
C530 C 0.86332 0.76008 0.00844 0.0
C531 C 0.8822 0.75605 0.02445 0.0
C532 C 0.88027 0.76366 0.04821 0.0
C533 C 0.85893 0.77355 0.05603 0.0
C534 C 0.86512 0.75318 0.98272 0.0
C535 C 0.89976 0.75918 0.06598 0.0
C536 C 0.91745 0.70048 0.01258 0.0
C537 C 0.93911 0.7097 0.00506 0.0
C538 C 0.89897 0.7155 0.01929 0.0
C539 C 0.90199 0.74031 0.0175 0.0
C540 C 0.92373 0.74973 0.0094 0.0
C541 C 0.9423 0.73423 0.00371 0.0
C542 C 0.87627 0.70476 0.02848 0.0
C543 C 0.92719 0.77604 0.00637 0.0
H544 H 0.82681 0.7708 0.00517 0.0
H545 H 0.85694 0.77821 0.07453 0.0
H546 H 0.88273 0.75797 0.97547 0.0
H547 H 0.86309 0.73374 0.98101 0.0
H548 H 0.85117 0.76182 0.97186 0.0
H549 H 0.89683 0.76899 0.08275 0.0
H550 H 0.90049 0.73999 0.07006 0.0
H551 H 0.91723 0.76429 0.0587 0.0
H552 H 0.91516 0.68146 0.01367 0.0
H553 H 0.95907 0.74123 -0.00244 0.0
H554 H 0.8614 0.70918 0.01643 0.0
H555 H 0.87197 0.71222 0.04611 0.0
H556 H 0.87737 0.6852 0.03006 0.0
H557 H 0.91365 0.78313 0.99401 0.0
H558 H 0.94504 0.78044 -0.00058 0.0
H559 H 0.92471 0.78522 0.02351 0.0
C560 C 0.52191 0.64949 0.20773 0.0
C561 C 0.54584 0.65201 0.20189 0.0
C562 C 0.51382 0.62892 0.21892 0.0
C563 C 0.53034 0.6112 0.22531 0.0
C564 C 0.55402 0.61269 0.21727 0.0
C565 C 0.56141 0.63303 0.20523 0.0
C566 C 0.48809 0.62719 0.22588 0.0
C567 C 0.57222 0.59423 0.22383 0.0
C568 C 0.52145 0.58581 0.28644 0.0
C569 C 0.51503 0.56252 0.28137 0.0
C570 C 0.52664 0.60169 0.26823 0.0
C571 C 0.52433 0.59429 0.24438 0.0
C572 C 0.51698 0.57094 0.23917 0.0
C573 C 0.51298 0.55508 0.25784 0.0
C574 C 0.53494 0.62631 0.27458 0.0
C575 C 0.51339 0.56261 0.21406 0.0
H576 H 0.5098 0.66409 0.20472 0.0
H577 H 0.57994 0.63502 0.20063 0.0
H578 H 0.48152 0.60882 0.22368 0.0
H579 H 0.48613 0.63202 0.24479 0.0
H580 H 0.47684 0.63932 0.21523 0.0
H581 H 0.58896 0.59645 0.21377 0.0
H582 H 0.57628 0.59564 0.24299 0.0
H583 H 0.56527 0.5762 0.22058 0.0
H584 H 0.523 0.59141 0.30472 0.0
H585 H 0.50768 0.53703 0.25405 0.0
H586 H 0.52202 0.6396 0.26807 0.0
H587 H 0.55216 0.63007 0.26593 0.0
H588 H 0.53707 0.62872 0.29396 0.0
H589 H 0.50559 0.57676 0.20289 0.0
H590 H 0.50171 0.54682 0.21328 0.0
H591 H 0.53073 0.55767 0.20632 0.0
C592 C 0.26664 0.42541 0.14145 0.0
C593 C 0.26668 0.44082 0.16082 0.0
C594 C 0.25767 0.43272 0.11949 0.0
C595 C 0.2494 0.45623 0.11678 0.0
C596 C 0.25123 0.47235 0.13587 0.0
C597 C 0.25937 0.46428 0.15787 0.0
C598 C 0.25536 0.4148 0.09983 0.0
C599 C 0.24345 0.49779 0.13339 0.0
C600 C 0.23446 0.47853 0.05507 0.0
C601 C 0.20972 0.47747 0.05554 0.0
C602 C 0.2478 0.47184 0.07498 0.0
C603 C 0.23598 0.46306 0.09525 0.0
C604 C 0.21097 0.4612 0.09531 0.0
C605 C 0.19812 0.46894 0.0756 0.0
C606 C 0.27434 0.47491 0.07465 0.0
C607 C 0.19774 0.45118 0.11624 0.0
H608 H 0.27219 0.4072 0.14386 0.0
H609 H 0.25968 0.47622 0.17287 0.0
H610 H 0.23636 0.41065 0.09702 0.0
H611 H 0.26228 0.42204 0.08298 0.0
H612 H 0.26489 0.39808 0.1039 0.0
H613 H 0.24963 0.50884 0.14843 0.0
H614 H 0.25028 0.50549 0.11668 0.0
H615 H 0.22384 0.49867 0.13271 0.0
H616 H 0.24327 0.48541 0.03949 0.0
H617 H 0.17893 0.46806 0.07573 0.0
H618 H 0.28327 0.45793 0.07884 0.0
H619 H 0.27965 0.48778 0.08849 0.0
H620 H 0.28085 0.48133 0.05727 0.0
H621 H 0.20511 0.43363 0.12113 0.0
H622 H 0.1785 0.44915 0.11262 0.0
H623 H 0.19992 0.46298 0.13175 0.0
C624 C 0.71978 0.01268 0.94542 0.0
C625 C 0.69789 0.02423 0.94416 0.0
C626 C 0.73547 0.01317 0.92621 0.0
C627 C 0.72912 0.02592 0.90559 0.0
C628 C 0.70738 0.03848 0.9048 0.0
C629 C 0.6918 0.03712 0.924 0.0
C630 C 0.75815 -0.00092 0.92751 0.0
C631 C 0.70021 0.05271 0.88333 0.0
C632 C 0.77228 0.04604 0.85881 0.0
C633 C 0.7658 0.03149 0.83977 0.0
C634 C 0.76168 0.04337 0.88104 0.0
C635 C 0.74448 0.02551 0.88432 0.0
C636 C 0.73969 0.00926 0.86586 0.0
C637 C 0.75032 0.01255 0.84368 0.0
C638 C 0.76732 0.06101 0.90028 0.0
C639 C 0.72197 0.98952 0.86893 0.0
H640 H 0.72406 0.00225 0.96096 0.0
H641 H 0.67464 0.04571 0.92311 0.0
H642 H 0.75718 0.98403 0.91494 0.0
H643 H 0.77347 0.01012 0.9222 0.0
H644 H 0.76144 0.99193 0.94552 0.0
H645 H 0.68361 0.06285 0.88627 0.0
H646 H 0.71448 0.06529 0.8785 0.0
H647 H 0.69751 0.0407 0.86804 0.0
H648 H 0.78442 0.06061 0.85599 0.0
H649 H 0.74546 0.00108 0.82911 0.0
H650 H 0.76981 0.052 0.91752 0.0
H651 H 0.75225 0.07347 0.90222 0.0
H652 H 0.78351 0.07141 0.89623 0.0
H653 H 0.72472 0.98038 0.88608 0.0
H654 H 0.72311 0.97629 0.85445 0.0
H655 H 0.7038 -0.00299 0.86903 0.0
C656 C 0.72084 0.9152 0.36113 0.0
C657 C 0.72084 0.93012 0.34133 0.0
C658 C 0.73002 0.92307 0.38282 0.0
C659 C 0.73901 0.94637 0.38453 0.0
C660 C 0.73653 0.96217 0.36525 0.0
C661 C 0.72771 0.95374 0.34375 0.0
C662 C 0.73208 0.9058 0.40307 0.0
C663 C 0.7452 0.98741 0.3666 0.0
C664 C 0.76246 0.97723 0.43893 0.0
C665 C 0.78678 0.97656 0.43416 0.0
C666 C 0.74633 0.96576 0.42393 0.0
C667 C 0.75499 0.95311 0.40415 0.0
C668 C 0.77971 0.95044 0.40085 0.0
C669 C 0.79532 0.96255 0.41571 0.0
C670 C 0.72014 0.96896 0.42809 0.0
C671 C 0.7897 0.93641 0.38042 0.0
H672 H 0.71531 0.89693 0.35926 0.0
H673 H 0.72721 0.96539 0.32852 0.0
H674 H 0.75022 0.89825 0.40332 0.0
H675 H 0.72908 0.91467 0.4203 0.0
H676 H 0.71929 0.89099 0.4012 0.0
H677 H 0.73884 -0.00178 0.35145 0.0
H678 H 0.73926 -0.00412 0.38326 0.0
H679 H 0.76486 0.98757 0.36652 0.0
H680 H 0.75593 0.98808 0.45334 0.0
H681 H 0.81421 0.96175 0.41239 0.0
H682 H 0.71013 0.95271 0.42351 0.0
H683 H 0.7135 0.98347 0.41663 0.0
H684 H 0.71637 0.97373 0.44677 0.0
H685 H 0.78069 0.91904 0.37894 0.0
H686 H 0.80904 0.93332 0.38234 0.0
H687 H 0.78659 0.94618 0.36367 0.0
C688 C 0.25417 0.52091 0.66453 0.0
C689 C 0.23025 0.52684 0.66698 0.0
C690 C 0.26441 0.51904 0.64206 0.0
C691 C 0.25016 0.52264 0.62173 0.0
C692 C 0.22554 0.52648 0.62415 0.0
C693 C 0.2159 0.52885 0.64684 0.0
C694 C 0.29076 0.5149 0.64013 0.0
C695 C 0.20964 0.52942 0.60287 0.0
C696 C 0.28336 0.547 0.56891 0.0
C697 C 0.28924 0.5261 0.55718 0.0
C698 C 0.26974 0.54623 0.58964 0.0
C699 C 0.26147 0.52411 0.59817 0.0
C700 C 0.26593 0.50322 0.58521 0.0
C701 C 0.28013 0.50444 0.56503 0.0
C702 C 0.26541 0.56884 0.60315 0.0
C703 C 0.25673 0.47946 0.59322 0.0
H704 H 0.26528 0.51947 0.68012 0.0
H705 H 0.19731 0.53324 0.64879 0.0
H706 H 0.29444 0.49979 0.62818 0.0
H707 H 0.29933 0.53076 0.63236 0.0
H708 H 0.29907 0.51123 0.65758 0.0
H709 H 0.1906 0.52846 0.60769 0.0
H710 H 0.21301 0.54687 0.59454 0.0
H711 H 0.21346 0.51564 0.58944 0.0
H712 H 0.29054 0.56366 0.56269 0.0
H713 H 0.28457 0.48833 0.5556 0.0
H714 H 0.27456 0.56794 0.62052 0.0
H715 H 0.24623 0.57109 0.60671 0.0
H716 H 0.27189 0.58467 0.59348 0.0
H717 H 0.26705 0.47335 0.60877 0.0
H718 H 0.25824 0.46586 0.57911 0.0
H719 H 0.23793 0.48078 0.59871 0.0
C720 C 0.27016 0.46125 0.49499 0.0
C721 C 0.28172 0.46899 0.47441 0.0
C722 C 0.25793 0.43963 0.49534 0.0
C723 C 0.25784 0.42529 0.47484 0.0
C724 C 0.26709 0.43432 0.45339 0.0
C725 C 0.27871 0.45618 0.45339 0.0
C726 C 0.24702 0.43128 0.51819 0.0
C727 C 0.26715 0.41977 0.43097 0.0
C728 C 0.27072 0.3602 0.4772 0.0
C729 C 0.25038 0.3508 0.4665 0.0
C730 C 0.27253 0.38437 0.48207 0.0
C731 C 0.25326 0.39948 0.47663 0.0
C732 C 0.23156 0.38965 0.46883 0.0
C733 C 0.23041 0.36534 0.46361 0.0
C734 C 0.29601 0.39398 0.49062 0.0
C735 C 0.2102 0.40494 0.46404 0.0
H736 H 0.2718 0.47136 0.5112 0.0
H737 H 0.28713 0.4622 0.43727 0.0
H738 H 0.23087 0.42061 0.51485 0.0
H739 H 0.25989 0.41997 0.52782 0.0
H740 H 0.2424 0.44643 0.52983 0.0
H741 H 0.27295 0.4302 0.41536 0.0
H742 H 0.27935 0.40451 0.43312 0.0
H743 H 0.24924 0.41261 0.42735 0.0
H744 H 0.28602 0.34898 0.48014 0.0
H745 H 0.21443 0.35819 0.45575 0.0
H746 H 0.29341 0.40567 0.50613 0.0
H747 H 0.30426 0.40473 0.47642 0.0
H748 H 0.30857 0.3797 0.49565 0.0
H749 H 0.20967 0.4205 0.47599 0.0
H750 H 0.19356 0.39469 0.46614 0.0
H751 H 0.21088 0.41148 0.44555 0.0
C752 C 0.94898 0.99237 0.72645 0.0
C753 C 0.95655 0.01335 0.7155 0.0
C754 C 0.92755 0.99158 0.73904 0.0
C755 C 0.91314 0.01204 0.74009 0.0
C756 C 0.9219 0.03378 0.7312 0.0
C757 C 0.94363 0.03421 0.71927 0.0
C758 C 0.91946 0.96836 0.74938 0.0
C759 C 0.90719 0.0561 0.73194 0.0
C760 C 0.84719 0.00835 0.73056 0.0
C761 C 0.83844 0.01775 0.7518 0.0
C762 C 0.87146 0.00478 0.72716 0.0
C763 C 0.88746 0.01005 0.74573 0.0
C764 C 0.87854 0.0167 0.76817 0.0
C765 C 0.85408 0.02072 0.77091 0.0
C766 C 0.88007 -0.00243 0.7029 0.0
C767 C 0.89487 0.02136 0.78876 0.0
H768 H 0.95908 0.97623 0.72407 0.0
H769 H 0.9494 0.05057 0.7111 0.0
H770 H 0.90955 0.97115 0.76608 0.0
H771 H 0.90745 0.9594 0.73669 0.0
H772 H 0.93468 0.95638 0.75289 0.0
H773 H 0.91747 0.07195 0.7265 0.0
H774 H 0.89181 0.05423 0.71984 0.0
H775 H 0.90017 0.05913 0.74998 0.0
H776 H 0.83523 0.00544 0.71583 0.0
H777 H 0.84754 0.02769 0.78751 0.0
H778 H 0.89225 0.98224 0.70421 0.0
H779 H 0.89009 0.0124 0.69482 0.0
H780 H 0.86528 0.99279 0.69083 0.0
H781 H 0.91037 0.00927 0.7885 0.0
H782 H 0.88548 0.0193 0.80588 0.0
H783 H 0.90156 0.03977 0.78771 0.0
C784 C 0.20914 0.66704 0.97083 0.0
C785 C 0.22985 0.67745 0.9619 0.0
C786 C 0.20953 0.64422 0.98043 0.0
C787 C 0.23129 0.63181 0.98177 0.0
C788 C 0.25266 0.64385 0.97678 0.0
C789 C 0.25172 0.66651 0.96653 0.0
C790 C 0.18626 0.63237 0.98617 0.0
C791 C 0.27635 0.63195 0.97995 0.0
C792 C 0.21939 0.5694 0.00293 0.0
C793 C 0.21479 0.55821 0.98122 0.0
C794 C 0.22759 0.5929 0.00365 0.0
C795 C 0.23064 0.60549 0.98221 0.0
C796 C 0.22859 0.59336 0.96038 0.0
C797 C 0.22107 0.5698 0.96021 0.0
C798 C 0.23104 0.60459 0.02736 0.0
C799 C 0.23179 0.6059 0.93696 0.0
H800 H 0.1922 0.67568 0.96819 0.0
H801 H 0.26797 0.67468 0.96045 0.0
H802 H 0.18254 0.61839 0.97288 0.0
H803 H 0.18715 0.62375 0.00375 0.0
H804 H 0.17122 0.64505 0.98617 0.0
H805 H 0.29061 0.64519 0.98271 0.0
H806 H 0.27608 0.61955 -0.00482 0.0
H807 H 0.28069 0.62167 0.96383 0.0
H808 H 0.2151 0.56048 0.01934 0.0
H809 H 0.21826 0.56111 0.94336 0.0
H810 H 0.21369 0.61085 0.03409 0.0
H811 H 0.24324 0.61993 0.02632 0.0
H812 H 0.23813 0.5917 0.04042 0.0
H813 H 0.21798 0.61974 0.9349 0.0
H814 H 0.23053 0.59363 0.92167 0.0
H815 H 0.24926 0.61478 0.93632 0.0
C816 C 0.54421 0.98222 0.23454 0.0
C817 C 0.53711 0.96182 0.22225 0.0
C818 C 0.56545 0.98255 0.24753 0.0
C819 C 0.58006 0.9622 0.24766 0.0
C820 C 0.57172 0.9409 0.2374 0.0
C821 C 0.55022 0.94093 0.22509 0.0
C822 C 0.57297 0.00523 0.25939 0.0
C823 C 0.58659 0.91864 0.23724 0.0
C824 C 0.64561 0.96307 0.23838 0.0
C825 C 0.65334 0.95055 0.25837 0.0
C826 C 0.62185 0.96957 0.2358 0.0
C827 C 0.60556 0.96385 0.25391 0.0
C828 C 0.61397 0.9547 0.27565 0.0
C829 C 0.63784 0.94788 0.27759 0.0
C830 C 0.6138 0.97985 0.21246 0.0
C831 C 0.59742 0.9499 0.29598 0.0
H832 H 0.53391 -0.00165 0.233 0.0
H833 H 0.54469 0.9249 0.21615 0.0
H834 H 0.58479 0.00185 0.27472 0.0
H835 H 0.58265 0.0164 0.24651 0.0
H836 H 0.5573 0.01542 0.26549 0.0
H837 H 0.57684 0.90323 0.2299 0.0
H838 H 0.60267 0.92154 0.22636 0.0
H839 H 0.59248 0.91416 0.2554 0.0
H840 H 0.65766 0.96597 0.22375 0.0
H841 H 0.64376 0.9388 0.29342 0.0
H842 H 0.60226 -0.00457 0.21539 0.0
H843 H 0.60328 0.96644 0.20267 0.0
H844 H 0.62892 0.98531 0.20117 0.0
H845 H 0.58291 0.96314 0.29662 0.0
H846 H 0.60705 0.95005 0.31313 0.0
H847 H 0.58933 0.93216 0.29376 0.0
C848 C 0.74074 0.13071 0.53651 0.0
C849 C 0.72694 0.15105 0.53402 0.0
C850 C 0.74427 0.11531 0.51758 0.0
C851 C 0.73348 0.12034 0.49542 0.0
C852 C 0.71709 0.13932 0.4937 0.0
C853 C 0.7141 0.15469 0.51311 0.0
C854 C 0.76164 0.09518 0.52092 0.0
C855 C 0.70387 0.14454 0.47113 0.0
C856 C 0.78268 0.1033 0.45725 0.0
C857 C 0.77979 0.07878 0.45888 0.0
C858 C 0.76458 0.11854 0.46463 0.0
C859 C 0.74357 0.10869 0.47407 0.0
C860 C 0.73859 0.08452 0.46991 0.0
C861 C 0.75707 0.06953 0.46256 0.0
C862 C 0.76987 0.14461 0.46667 0.0
C863 C 0.7153 0.07386 0.47725 0.0
H864 H 0.75023 0.12774 0.55295 0.0
H865 H 0.70311 0.17032 0.51132 0.0
H866 H 0.75363 0.0782 0.51533 0.0
H867 H 0.7776 0.09833 0.50998 0.0
H868 H 0.76744 0.09326 0.5396 0.0
H869 H 0.68512 0.14887 0.47517 0.0
H870 H 0.71169 0.16035 0.46253 0.0
H871 H 0.70431 0.12952 0.4585 0.0
H872 H 0.80014 0.11044 0.45365 0.0
H873 H 0.7546 0.05051 0.46319 0.0
H874 H 0.77428 0.14895 0.48531 0.0
H875 H 0.75417 0.1552 0.46149 0.0
H876 H 0.78505 0.14986 0.45536 0.0
H877 H 0.71638 0.06814 0.496 0.0
H878 H 0.71109 0.05807 0.46634 0.0
H879 H 0.70073 0.08697 0.47563 0.0
C880 C 0.1468 0.498 0.77127 0.0
C881 C 0.1562 0.50652 0.74996 0.0
C882 C 0.1231 0.49098 0.77279 0.0
C883 C 0.10864 0.49194 0.75232 0.0
C884 C 0.11906 0.49672 0.73009 0.0
C885 C 0.14277 0.50423 0.72916 0.0
C886 C 0.11293 0.48549 0.79688 0.0
C887 C 0.10468 0.49625 0.70761 0.0
C888 C 0.04671 0.47473 0.7701 0.0
C889 C 0.03801 0.49681 0.77754 0.0
C890 C 0.06881 0.47289 0.75886 0.0
C891 C 0.08257 0.49352 0.75552 0.0
C892 C 0.07251 0.516 0.76024 0.0
C893 C 0.05023 0.51736 0.77092 0.0
C894 C 0.07817 0.44869 0.75264 0.0
C895 C 0.08635 0.53859 0.75661 0.0
H896 H 0.15728 0.49891 0.78733 0.0
H897 H 0.15002 0.51015 0.71243 0.0
H898 H 0.10091 0.50003 0.80239 0.0
H899 H 0.10238 0.46898 0.79628 0.0
H900 H 0.12691 0.48346 0.81058 0.0
H901 H 0.11604 0.49209 0.69214 0.0
H902 H 0.09016 0.48307 0.70863 0.0
H903 H 0.09668 0.51393 0.7046 0.0
H904 H 0.03712 0.45871 0.77449 0.0
H905 H 0.04341 0.53456 0.77596 0.0
H906 H 0.08742 0.44107 0.76819 0.0
H907 H 0.09088 0.44946 0.73771 0.0
H908 H 0.06345 0.43654 0.74789 0.0
H909 H 0.10144 0.53917 0.76922 0.0
H910 H 0.07531 0.55463 0.75941 0.0
H911 H 0.09375 0.53927 0.73849 0.0
C912 C 0.71692 0.94641 0.99326 0.0
C913 C 0.70654 0.95264 0.01495 0.0
C914 C 0.73129 0.92617 0.99138 0.0
C915 C 0.73472 0.91162 0.01149 0.0
C916 C 0.72619 0.91917 0.0338 0.0
C917 C 0.71251 0.93971 0.03527 0.0
C918 C 0.74127 0.9197 0.96753 0.0
C919 C 0.72948 0.90439 0.05588 0.0
C920 C 0.72999 0.84584 0.01245 0.0
C921 C 0.75132 0.83994 0.02378 0.0
C922 C 0.72537 0.86907 0.00531 0.0
C923 C 0.74275 0.8867 0.00913 0.0
C924 C 0.7657 0.88001 0.01668 0.0
C925 C 0.7697 0.85665 0.02427 0.0
C926 C 0.7008 0.87522 -0.00335 0.0
C927 C 0.78527 0.89798 0.01908 0.0
H928 H 0.71298 0.95665 0.97752 0.0
H929 H 0.70512 0.94465 0.05224 0.0
H930 H 0.75698 0.90798 0.96904 0.0
H931 H 0.72752 0.91043 0.95702 0.0
H932 H 0.74633 0.93588 0.95758 0.0
H933 H 0.72257 0.91331 0.07195 0.0
H934 H 0.7201 0.88725 0.05383 0.0
H935 H 0.7485 0.90046 0.05874 0.0
H936 H 0.71598 0.8328 0.0111 0.0
H937 H 0.78654 0.85212 0.03231 0.0
H938 H 0.70178 0.88631 0.98052 0.0
H939 H 0.69138 0.88557 0.01042 0.0
H940 H 0.69014 0.85922 0.99256 0.0
H941 H 0.78374 0.91194 0.00535 0.0
H942 H 0.80294 0.88944 0.01767 0.0
H943 H 0.78413 0.90659 0.03666 0.0
C944 C 0.34562 0.46787 0.23142 0.0
C945 C 0.32716 0.46919 0.24794 0.0
C946 C 0.3678 0.47796 0.23645 0.0
C947 C 0.37143 0.48925 0.2585 0.0
C948 C 0.35181 0.49389 0.27331 0.0
C949 C 0.32983 0.48385 0.26779 0.0
C950 C 0.38804 0.47386 0.21959 0.0
C951 C 0.35469 0.50652 0.29665 0.0
C952 C 0.42516 0.47076 0.29369 0.0
C953 C 0.43857 0.49162 0.29453 0.0
C954 C 0.40379 0.46971 0.28128 0.0
C955 C 0.39559 0.48995 0.26896 0.0
C956 C 0.40959 0.51073 0.26856 0.0
C957 C 0.43086 0.51141 0.28158 0.0
C958 C 0.38946 0.44712 0.28233 0.0
C959 C 0.40182 0.53256 0.2553 0.0
H960 H 0.34357 0.45706 0.21572 0.0
H961 H 0.31537 0.48564 0.28026 0.0
H962 H 0.40015 0.48931 0.2193 0.0
H963 H 0.39838 0.45824 0.22551 0.0
H964 H 0.38156 0.47041 0.20135 0.0
H965 H 0.33739 0.51224 0.30403 0.0
H966 H 0.36325 0.49441 0.30956 0.0
H967 H 0.36623 0.52225 0.29468 0.0
H968 H 0.43092 0.45528 0.30344 0.0
H969 H 0.44116 0.52758 0.28194 0.0
H970 H 0.38586 0.44053 0.26421 0.0
H971 H 0.37215 0.45059 0.29092 0.0
H972 H 0.39861 0.43289 0.29237 0.0
H973 H 0.39136 0.52804 0.23931 0.0
H974 H 0.41729 0.54343 0.24993 0.0
H975 H 0.39056 0.54356 0.267 0.0
C976 C 0.47949 0.30137 0.41694 0.0
C977 C 0.49642 0.30142 0.43511 0.0
C978 C 0.48092 0.28557 0.39805 0.0
C979 C 0.49982 0.26908 0.39709 0.0
C980 C 0.51714 0.26896 0.41526 0.0
C981 C 0.51523 0.28516 0.43414 0.0
C982 C 0.46209 0.28677 0.37899 0.0
C983 C 0.53739 0.25155 0.41517 0.0
C984 C 0.47664 0.22453 0.35472 0.0
C985 C 0.48181 0.23651 0.33365 0.0
C986 C 0.48606 0.23251 0.37631 0.0
C987 C 0.50086 0.25272 0.37648 0.0
C988 C 0.50987 0.26146 0.35484 0.0
C989 C 0.5 0.25339 0.33356 0.0
C990 C 0.47701 0.2219 0.39901 0.0
C991 C 0.52679 0.28207 0.35419 0.0
H992 H 0.46502 0.31397 0.41727 0.0
H993 H 0.52834 0.28498 0.44816 0.0
H994 H 0.47035 0.29083 0.36167 0.0
H995 H 0.45298 0.26947 0.37738 0.0
H996 H 0.4485 0.30051 0.38262 0.0
H997 H 0.55258 0.25809 0.42583 0.0
H998 H 0.53132 0.23465 0.42307 0.0
H999 H 0.5436 0.24775 0.39695 0.0
H1000 H 0.46288 0.21115 0.35486 0.0
H1001 H 0.50452 0.26225 0.31716 0.0
H1002 H 0.4621 0.2328 0.40572 0.0
H1003 H 0.49108 0.22174 0.41272 0.0
H1004 H 0.47048 0.20356 0.39627 0.0
H1005 H 0.51665 0.29879 0.35618 0.0
H1006 H 0.53651 0.2828 0.33714 0.0
H1007 H 0.53976 0.28103 0.36891 0.0
C1008 C 0.01587 0.19626 0.56943 0.0
C1009 C 0.99473 0.19051 0.55764 0.0
C1010 C 0.01552 0.20512 0.5927 0.0
C1011 C 0.99355 0.20792 0.60444 0.0
C1012 C 0.97219 0.20348 0.59207 0.0
C1013 C 0.97306 0.19504 0.56886 0.0
C1014 C 0.0387 0.21019 0.60497 0.0
C1015 C 0.94828 0.20623 0.6038 0.0
C1016 C 0.98093 0.19691 0.66851 0.0
C1017 C 0.97211 0.21912 0.67533 0.0
C1018 C 0.9908 0.19347 0.64607 0.0
C1019 C 0.99226 0.21281 0.63025 0.0
C1020 C 0.98684 0.23586 0.63838 0.0
C1021 C 0.9766 0.23878 0.66084 0.0
C1022 C -0.0032 0.16861 0.63834 0.0
C1023 C 0.98945 0.2571 0.62245 0.0
H1024 H 0.03273 0.19301 0.56089 0.0
H1025 H 0.95658 0.19107 0.55985 0.0
H1026 H 0.03698 0.22487 0.61787 0.0
H1027 H 0.04452 0.19417 0.61472 0.0
H1028 H 0.05275 0.21473 0.59201 0.0
H1029 H 0.93337 0.20285 0.59142 0.0
H1030 H 0.94682 0.19366 0.61882 0.0
H1031 H 0.9463 0.22436 0.61102 0.0
H1032 H 0.97826 0.18168 0.67985 0.0
H1033 H 0.97044 0.25614 0.66613 0.0
H1034 H 0.01386 0.16827 0.62868 0.0
H1035 H 0.98287 0.1621 0.62609 0.0
H1036 H -0.00203 0.15621 0.65355 0.0
H1037 H 0.00563 0.25561 0.61143 0.0
H1038 H 0.99025 0.27379 0.63279 0.0
H1039 H 0.97398 0.25811 0.61036 0.0
C1040 C 0.02449 0.70913 0.90635 0.0
C1041 C 0.00533 0.70558 0.9217 0.0
C1042 C 0.02098 0.71725 0.88326 0.0
C1043 C -0.00227 0.72249 0.87535 0.0
C1044 C 0.97862 0.72138 0.89147 0.0
C1045 C 0.98259 0.71268 0.91445 0.0
C1046 C 0.04204 0.71831 0.86678 0.0
C1047 C 0.95373 0.72783 0.88422 0.0
C1048 C 0.00514 0.74757 0.81447 0.0
C1049 C 0.00601 0.72644 0.80144 0.0
C1050 C -0.00117 0.74732 0.8385 0.0
C1051 C 0.9937 0.72546 0.84954 0.0
C1052 C 0.99075 0.70494 0.83552 0.0
C1053 C -0.00327 0.70574 0.81152 0.0
C1054 C 0.00047 0.7699 0.85258 0.0
C1055 C 0.98456 0.68135 0.84641 0.0
H1056 H 0.04221 0.70418 0.91185 0.0
H1057 H 0.96768 0.71044 0.92628 0.0
H1058 H 0.03984 0.70513 0.8524 0.0
H1059 H 0.04327 0.73602 0.85845 0.0
H1060 H 0.05902 0.71462 0.87601 0.0
H1061 H 0.94365 0.73498 0.89949 0.0
H1062 H 0.95349 0.74106 0.86972 0.0
H1063 H 0.94441 0.71171 0.87801 0.0
H1064 H 0.01159 0.76387 0.8067 0.0
H1065 H -0.00351 0.68948 0.80135 0.0
H1066 H 0.01827 0.77116 0.86081 0.0
H1067 H 0.98711 0.77021 0.86695 0.0
H1068 H -0.00209 0.78566 0.84111 0.0
H1069 H -7e-05 0.6747 0.85673 0.0
H1070 H 0.97994 0.66792 0.83282 0.0
H1071 H 0.96944 0.68321 0.85874 0.0
C1072 C 0.52844 0.72135 0.12315 0.0
C1073 C 0.53258 0.74152 0.13706 0.0
C1074 C 0.51914 0.72342 0.10014 0.0
C1075 C 0.51447 0.74619 0.09078 0.0
C1076 C 0.51679 0.76635 0.10547 0.0
C1077 C 0.52551 0.76371 0.12846 0.0
C1078 C 0.51582 0.70132 0.08558 0.0
C1079 C 0.51196 0.79106 0.09635 0.0
C1080 C 0.52824 0.76715 0.02971 0.0
C1081 C 0.50599 0.77585 0.02283 0.0
C1082 C 0.53096 0.75442 0.05078 0.0
C1083 C 0.51087 0.74997 0.06502 0.0
C1084 C 0.48801 0.7551 0.05612 0.0
C1085 C 0.48579 0.76826 0.03514 0.0
C1086 C 0.55568 0.74863 0.05923 0.0
C1087 C 0.46607 0.74907 0.07002 0.0
H1088 H 0.5334 0.70403 0.12976 0.0
H1089 H 0.52813 0.7794 0.13915 0.0
H1090 H 0.50213 0.70367 0.07168 0.0
H1091 H 0.5328 0.69671 0.07688 0.0
H1092 H 0.51075 0.68616 0.097 0.0
H1093 H 0.5138 0.80472 0.11036 0.0
H1094 H 0.52454 0.79535 0.08191 0.0
H1095 H 0.49381 0.79222 0.08897 0.0
H1096 H 0.54391 0.77215 0.01986 0.0
H1097 H 0.4684 0.77423 0.02961 0.0
H1098 H 0.55651 0.73028 0.06608 0.0
H1099 H 0.56055 0.7607 0.07394 0.0
H1100 H 0.56903 0.75059 0.04496 0.0
H1101 H 0.46825 0.73202 0.07952 0.0
H1102 H 0.45027 0.74798 0.05834 0.0
H1103 H 0.46278 0.76306 0.08338 0.0
C1104 C 0.23001 0.31015 0.34981 0.0
C1105 C 0.25207 0.31226 0.36112 0.0
C1106 C 0.22599 0.32041 0.32755 0.0
C1107 C 0.24437 0.33331 0.31657 0.0
C1108 C 0.26704 0.33426 0.3273 0.0
C1109 C 0.27063 0.3237 0.34942 0.0
C1110 C 0.20182 0.31837 0.31633 0.0
C1111 C 0.2872 0.34759 0.31606 0.0
C1112 C 0.24497 0.35606 0.2535 0.0
C1113 C 0.24071 0.3802 0.25733 0.0
C1114 C 0.24449 0.33993 0.27242 0.0
C1115 C 0.23943 0.34826 0.29549 0.0
C1116 C 0.23274 0.37217 0.29887 0.0
C1117 C 0.23354 0.38786 0.27973 0.0
C1118 C 0.25168 0.3146 0.26799 0.0
C1119 C 0.22694 0.38174 0.32312 0.0
H1120 H 0.21568 0.30091 0.35858 0.0
H1121 H 0.28772 0.32538 0.35802 0.0
H1122 H 0.19268 0.33573 0.31717 0.0
H1123 H 0.20343 0.31351 0.29739 0.0
H1124 H 0.1906 0.305 0.32536 0.0
H1125 H 0.28361 0.36687 0.31702 0.0
H1126 H 0.30441 0.34395 0.32488 0.0
H1127 H 0.28867 0.34276 0.29715 0.0
H1128 H 0.25078 0.35008 0.23624 0.0
H1129 H 0.23022 0.40654 0.28266 0.0
H1130 H 0.24169 0.30222 0.27947 0.0
H1131 H 0.2708 0.31249 0.27204 0.0
H1132 H 0.24885 0.30954 0.24921 0.0
H1133 H 0.21403 0.37011 0.33221 0.0
H1134 H 0.21951 0.39993 0.32232 0.0
H1135 H 0.24328 0.38216 0.33405 0.0
C1136 C 0.85793 0.01494 0.53966 0.0
C1137 C 0.86382 0.00654 0.51714 0.0
C1138 C 0.87511 0.01665 0.55746 0.0
C1139 C 0.89881 0.01037 0.55235 0.0
C1140 C 0.9049 0.00206 0.52953 0.0
C1141 C 0.8872 -5e-05 0.51222 0.0
C1142 C 0.86789 0.02519 0.58171 0.0
C1143 C 0.93017 -0.00397 0.52323 0.0
C1144 C 0.9463 0.03406 0.5936 0.0
C1145 C 0.95134 0.01403 0.60739 0.0
C1146 C 0.92955 0.03305 0.57525 0.0
C1147 C 0.91705 0.01174 0.57118 0.0
C1148 C 0.92162 0.99168 0.5854 0.0
C1149 C 0.93883 0.993 0.60317 0.0
C1150 C 0.9254 0.0547 0.56012 0.0
C1151 C 0.90829 0.96878 0.58186 0.0
H1152 H 0.83985 0.02025 0.5433 0.0
H1153 H 0.89185 0.99408 0.49458 0.0
H1154 H 0.87248 0.01167 0.5952 0.0
H1155 H 0.87777 0.04152 0.58628 0.0
H1156 H 0.84863 0.02899 0.58286 0.0
H1157 H 0.93178 0.98893 0.50499 0.0
H1158 H 0.94132 0.01212 0.52467 0.0
H1159 H 0.9374 0.98279 0.53581 0.0
H1160 H 0.9558 0.05041 0.59677 0.0
H1161 H 0.94238 0.97745 0.61383 0.0
H1162 H 0.90715 0.06137 0.56288 0.0
H1163 H 0.92709 0.05012 0.54111 0.0
H1164 H 0.93807 0.06916 0.56424 0.0
H1165 H 0.88897 0.97194 0.58356 0.0
H1166 H 0.91358 0.95497 0.59481 0.0
H1167 H 0.91149 0.96192 0.56377 0.0
C1168 C 0.25067 0.58603 0.78516 0.0
C1169 C 0.2468 0.59123 0.76126 0.0
C1170 C 0.25029 0.60394 0.80227 0.0
C1171 C 0.24573 0.62755 0.79524 0.0
C1172 C 0.24368 0.63315 0.77092 0.0
C1173 C 0.24443 0.61488 0.75413 0.0
C1174 C 0.2529 0.5973 0.82801 0.0
C1175 C 0.23862 0.65807 0.76271 0.0
C1176 C 0.21306 0.66404 0.84101 0.0
C1177 C 0.23152 0.6771 0.85116 0.0
C1178 C 0.21735 0.64848 0.82219 0.0
C1179 C 0.24072 0.64571 0.81353 0.0
C1180 C 0.25934 0.65922 0.82333 0.0
C1181 C 0.25453 0.67476 0.84202 0.0
C1182 C 0.19695 0.63461 0.81194 0.0
C1183 C 0.28441 0.65692 0.81436 0.0
H1184 H 0.25249 0.56774 0.79066 0.0
H1185 H 0.24112 0.61896 0.73569 0.0
H1186 H 0.26565 0.60925 0.83696 0.0
H1187 H 0.23558 0.59931 0.83703 0.0
H1188 H 0.25901 0.57875 0.83031 0.0
H1189 H 0.24201 0.66025 0.74348 0.0
H1190 H 0.21974 0.66231 0.76609 0.0
H1191 H 0.24951 0.67107 0.77259 0.0
H1192 H 0.1953 0.66559 0.84806 0.0
H1193 H 0.26889 0.68501 0.84956 0.0
H1194 H 0.19943 0.6155 0.81573 0.0
H1195 H 0.19651 0.63673 0.79246 0.0
H1196 H 0.17959 0.64029 0.81922 0.0
H1197 H 0.29103 0.63874 0.81776 0.0
H1198 H 0.29662 0.66971 0.82294 0.0
H1199 H 0.28489 0.65977 0.79495 0.0
C1200 C 0.5472 0.97584 0.10062 0.0
C1201 C 0.53079 0.98972 0.11288 0.0
C1202 C 0.56127 0.98567 0.08272 0.0
C1203 C 0.55889 0.00997 0.07694 0.0
C1204 C 0.54164 0.02382 0.08859 0.0
C1205 C 0.52786 0.01356 0.10651 0.0
C1206 C 0.57914 0.97016 0.07044 0.0
C1207 C 0.53818 0.04961 0.08257 0.0
C1208 C 0.61615 0.03524 0.05352 0.0
C1209 C 0.61299 0.03294 0.02908 0.0
C1210 C 0.59792 0.02956 0.06931 0.0
C1211 C 0.57605 0.02114 0.06038 0.0
C1212 C 0.57202 0.02088 0.03563 0.0
C1213 C 0.59056 0.02701 0.02021 0.0
C1214 C 0.60289 0.03041 0.09554 0.0
C1215 C 0.54905 0.01196 0.0253 0.0
H1216 H 0.54959 0.95745 0.10549 0.0
H1217 H 0.51486 0.0243 0.11566 0.0
H1218 H 0.57628 0.97109 0.05109 0.0
H1219 H 0.5973 0.97668 0.07415 0.0
H1220 H 0.57794 0.95136 0.07606 0.0
H1221 H 0.52259 0.05736 0.09169 0.0
H1222 H 0.55416 0.05977 0.08773 0.0
H1223 H 0.53585 0.05179 0.0632 0.0
H1224 H 0.63353 0.03972 0.06037 0.0
H1225 H 0.58814 0.02482 0.00131 0.0
H1226 H 0.60435 0.0121 0.1025 0.0
H1227 H 0.58815 0.03921 0.10505 0.0
H1228 H 0.61961 0.03994 0.09962 0.0
H1229 H 0.54942 0.99234 0.02481 0.0
H1230 H 0.54642 0.01843 0.00692 0.0
H1231 H 0.53368 0.01743 0.0362 0.0
C1232 C 0.70891 0.15616 0.65451 0.0
C1233 C 0.73165 0.16191 0.64624 0.0
C1234 C 0.70587 0.1415 0.67438 0.0
C1235 C 0.72602 0.13237 0.68616 0.0
C1236 C 0.74894 0.13886 0.6784 0.0
C1237 C 0.75146 0.15344 0.65857 0.0
C1238 C 0.68116 0.13529 0.68236 0.0
C1239 C 0.77094 0.12974 0.69053 0.0
C1240 C 0.72797 0.10527 0.74737 0.0
C1241 C 0.73143 0.08134 0.74175 0.0
C1242 C 0.72415 0.12211 0.72949 0.0
C1243 C 0.72359 0.11474 0.70556 0.0
C1244 C 0.72453 0.09031 0.70012 0.0
C1245 C 0.72849 0.0739 0.7183 0.0
C1246 C 0.72318 0.14796 0.7361 0.0
C1247 C 0.72372 0.08163 0.67489 0.0
H1248 H 0.69344 0.16278 0.64526 0.0
H1249 H 0.7691 0.15772 0.65242 0.0
H1250 H 0.67786 0.11618 0.6793 0.0
H1251 H 0.67924 0.13851 0.70162 0.0
H1252 H 0.66741 0.14562 0.6728 0.0
H1253 H 0.77243 0.11038 0.68764 0.0
H1254 H 0.78731 0.13831 0.68382 0.0
H1255 H 0.76977 0.13283 0.70984 0.0
H1256 H 0.73031 0.11118 0.76546 0.0
H1257 H 0.731 0.05539 0.71393 0.0
H1258 H 0.7101 0.15761 0.72506 0.0
H1259 H 0.74079 0.15608 0.733 0.0
H1260 H 0.71857 0.15043 0.75503 0.0
H1261 H 0.70922 0.09044 0.66497 0.0
H1262 H 0.72115 0.06217 0.67387 0.0
H1263 H 0.74061 0.08612 0.66595 0.0
C1264 C 0.1087 0.46924 0.97717 0.0
C1265 C 0.13166 0.46615 0.96831 0.0
C1266 C 0.08924 0.47104 0.96178 0.0
C1267 C 0.09286 0.46904 0.93708 0.0
C1268 C 0.11571 0.46367 0.92831 0.0
C1269 C 0.13491 0.4626 0.94403 0.0
C1270 C 0.06532 0.47745 0.9718 0.0
C1271 C 0.12023 0.46091 0.90215 0.0
C1272 C 0.04077 0.46455 0.89469 0.0
C1273 C 0.03922 0.48784 0.88612 0.0
C1274 C 0.05782 0.4582 0.91164 0.0
C1275 C 0.07362 0.47555 0.92028 0.0
C1276 C 0.07175 0.49919 0.91211 0.0
C1277 C 0.0547 0.50501 0.89504 0.0
C1278 C 0.05927 0.43284 0.9199 0.0
C1279 C 0.08826 0.51828 0.9208 0.0
H1280 H 0.10618 0.47244 -0.0041 0.0
H1281 H 0.15269 0.46031 0.93718 0.0
H1282 H 0.06161 0.49638 0.96805 0.0
H1283 H 0.0511 0.46688 0.96336 0.0
H1284 H 0.06458 0.47475 0.99125 0.0
H1285 H 0.13802 0.45332 0.89853 0.0
H1286 H 0.10663 0.44936 0.89395 0.0
H1287 H 0.11908 0.47847 0.89343 0.0
H1288 H 0.02879 0.45116 0.88799 0.0
H1289 H 0.0539 0.52293 0.88827 0.0
H1290 H 0.05804 0.43201 0.93946 0.0
H1291 H 0.07666 0.42522 0.91486 0.0
H1292 H 0.04503 0.42168 0.9122 0.0
H1293 H 0.09087 0.51678 0.94014 0.0
H1294 H 0.08151 0.53629 0.91668 0.0
H1295 H 0.1058 0.51609 0.91228 0.0
C1296 C 0.75979 0.88967 0.21969 0.0
C1297 C 0.75444 0.87923 0.24148 0.0
C1298 C 0.76345 0.8758 0.19952 0.0
C1299 C 0.76149 0.85089 0.20123 0.0
C1300 C 0.75835 0.84017 0.22365 0.0
C1301 C 0.75495 0.85453 0.24364 0.0
C1302 C 0.76709 0.88795 0.17602 0.0
C1303 C 0.75619 0.81369 0.22626 0.0
C1304 C 0.73433 0.82309 0.14665 0.0
C1305 C 0.75432 0.81452 0.13478 0.0
C1306 C 0.73641 0.83404 0.16877 0.0
C1307 C 0.75907 0.83672 0.17922 0.0
C1308 C 0.77926 0.82751 0.16769 0.0
C1309 C 0.77666 0.81654 0.14557 0.0
C1310 C 0.71439 0.84339 0.18063 0.0
C1311 C 0.80363 0.82975 0.17845 0.0
H1312 H 0.75944 0.90879 0.21806 0.0
H1313 H 0.75059 0.84639 0.26044 0.0
H1314 H 0.78148 0.87925 0.1659 0.0
H1315 H 0.75064 0.88657 0.16535 0.0
H1316 H 0.77151 0.90698 0.17816 0.0
H1317 H 0.75916 0.80797 0.24483 0.0
H1318 H 0.7381 0.80815 0.22094 0.0
H1319 H 0.76895 0.80436 0.21464 0.0
H1320 H 0.71705 0.8218 0.1384 0.0
H1321 H 0.79219 0.8097 0.13664 0.0
H1322 H 0.71509 0.86299 0.18136 0.0
H1323 H 0.71346 0.83682 0.19907 0.0
H1324 H 0.69794 0.83807 0.17123 0.0
H1325 H 0.80885 0.84866 0.17905 0.0
H1326 H 0.81721 0.81983 0.16828 0.0
H1327 H 0.80355 0.82315 0.19693 0.0
C1328 C 0.39579 0.55662 0.48586 0.0
C1329 C 0.37345 0.55441 0.4752 0.0
C1330 C 0.41656 0.55586 0.47213 0.0
C1331 C 0.41478 0.55225 0.4474 0.0
C1332 C 0.39223 0.55289 0.43643 0.0
C1333 C 0.37188 0.55432 0.45046 0.0
C1334 C 0.44029 0.55641 0.48437 0.0
C1335 C 0.38938 0.54934 0.4101 0.0
C1336 C 0.46329 0.54746 0.40123 0.0
C1337 C 0.46502 0.52276 0.39892 0.0
C1338 C 0.44864 0.55769 0.41859 0.0
C1339 C 0.43524 0.54286 0.43367 0.0
C1340 C 0.43863 0.51805 0.43267 0.0
C1341 C 0.45324 0.50838 0.41525 0.0
C1342 C 0.4465 0.58427 0.41973 0.0
C1343 C 0.42501 0.50125 0.44824 0.0
H1344 H 0.39718 0.55708 0.50498 0.0
H1345 H 0.35464 0.5532 0.44206 0.0
H1346 H 0.45362 0.56577 0.47342 0.0
H1347 H 0.43911 0.56519 0.5019 0.0
H1348 H 0.44662 0.53803 0.48714 0.0
H1349 H 0.37093 0.55261 0.40408 0.0
H1350 H 0.40137 0.56129 0.40022 0.0
H1351 H 0.39423 0.53088 0.40546 0.0
H1352 H 0.47262 0.55883 0.38894 0.0
H1353 H 0.45418 0.48931 0.41361 0.0
H1354 H 0.44322 0.5904 0.43808 0.0
H1355 H 0.43138 0.59007 0.40861 0.0
H1356 H 0.46273 0.593 0.41291 0.0
H1357 H 0.4228 0.50825 0.46639 0.0
H1358 H 0.4339 0.48374 0.44942 0.0
H1359 H 0.4072 0.49858 0.44042 0.0
C1360 C 0.2912 0.24159 0.41444 0.0
C1361 C 0.26809 0.24386 0.40572 0.0
C1362 C 0.31032 0.23802 0.39911 0.0
C1363 C 0.30618 0.23683 0.37445 0.0
C1364 C 0.28265 0.23701 0.36572 0.0
C1365 C 0.26379 0.24042 0.38154 0.0
C1366 C 0.3351 0.23761 0.40917 0.0
C1367 C 0.27746 0.23577 0.33956 0.0
C1368 C 0.35596 0.26187 0.33713 0.0
C1369 C 0.36787 0.24132 0.33001 0.0
C1370 C 0.33539 0.26057 0.35092 0.0
C1371 C 0.32658 0.23817 0.35793 0.0
C1372 C 0.33817 0.21734 0.35038 0.0
C1373 C 0.35868 0.21915 0.33654 0.0
C1374 C 0.32332 0.28321 0.35836 0.0
C1375 C 0.3291 0.19317 0.35723 0.0
H1376 H 0.29451 0.24424 0.43315 0.0
H1377 H 0.24597 0.24244 0.37467 0.0
H1378 H 0.34541 0.22273 0.40158 0.0
H1379 H 0.34436 0.25425 0.40438 0.0
H1380 H 0.33513 0.23591 0.42875 0.0
H1381 H 0.28118 0.25323 0.3314 0.0
H1382 H 0.28893 0.22251 0.33075 0.0
H1383 H 0.25863 0.23127 0.33605 0.0
H1384 H 0.36285 0.27905 0.33218 0.0
H1385 H 0.36756 0.20311 0.33091 0.0
H1386 H 0.32429 0.28508 0.37787 0.0
H1387 H 0.30433 0.28264 0.35341 0.0
H1388 H 0.33145 0.2991 0.35013 0.0
H1389 H 0.33023 0.19094 0.37669 0.0
H1390 H 0.33927 0.17869 0.3487 0.0
H1391 H 0.31017 0.1914 0.35223 0.0
C1392 C 0.03443 0.03736 0.61705 0.0
C1393 C 0.03575 0.01265 0.61594 0.0
C1394 C 0.03506 0.05104 0.5964 0.0
C1395 C 0.0384 0.03981 0.57423 0.0
C1396 C 0.04316 0.01524 0.57345 0.0
C1397 C 0.04136 0.00185 0.59431 0.0
C1398 C 0.02962 0.07717 0.59817 0.0
C1399 C 0.04844 0.00262 0.55057 0.0
C1400 C 0.00114 0.07109 0.52877 0.0
C1401 C 0.01667 0.08893 0.52133 0.0
C1402 C 0.00882 0.05315 0.54409 0.0
C1403 C 0.03251 0.05319 0.55232 0.0
C1404 C 0.04896 0.06919 0.54243 0.0
C1405 C 0.04083 0.08704 0.52714 0.0
C1406 C 0.99117 0.03506 0.55265 0.0
C1407 C 0.0748 0.06843 0.54914 0.0
H1408 H 0.03083 0.04592 0.63378 0.0
H1409 H 0.04309 0.98276 0.59338 0.0
H1410 H 0.04335 0.08768 0.58895 0.0
H1411 H 0.0124 0.08091 0.58942 0.0
H1412 H 0.02857 0.08333 0.61679 0.0
H1413 H 0.03211 0.99389 0.54405 0.0
H1414 H 0.05503 0.01481 0.53669 0.0
H1415 H 0.06185 0.98852 0.55351 0.0
H1416 H 0.98262 0.07191 0.52385 0.0
H1417 H 0.05323 0.10026 0.52089 0.0
H1418 H 0.99068 0.03487 0.57224 0.0
H1419 H -0.00329 0.0172 0.54676 0.0
H1420 H 0.97308 0.03845 0.54575 0.0
H1421 H 0.07741 0.07756 0.5663 0.0
H1422 H 0.08598 0.0774 0.53571 0.0
H1423 H 0.08096 0.04988 0.55122 0.0
C1424 C 0.21788 0.74847 0.84252 0.0
C1425 C 0.21259 0.75526 0.86577 0.0
C1426 C 0.19978 0.74556 0.82572 0.0
C1427 C 0.176 0.74998 0.83233 0.0
C1428 C 0.1709 0.75882 0.85518 0.0
C1429 C 0.18927 0.76118 0.87169 0.0
C1430 C 0.20593 0.73582 0.80164 0.0
C1431 C 0.14583 0.76412 0.86278 0.0
C1432 C 0.12625 0.75393 0.78738 0.0
C1433 C 0.11561 0.7316 0.78972 0.0
C1434 C 0.14643 0.75994 0.80054 0.0
C1435 C 0.15618 0.74323 0.8164 0.0
C1436 C 0.14596 0.72041 0.81828 0.0
C1437 C 0.12568 0.71493 0.80503 0.0
C1438 C 0.15699 0.78432 0.79786 0.0
C1439 C 0.15609 0.70199 0.83475 0.0
H1440 H 0.23585 0.74349 0.83798 0.0
H1441 H 0.18519 0.76636 0.8897 0.0
H1442 H 0.20135 0.71674 0.80102 0.0
H1443 H 0.19566 0.74485 0.78754 0.0
H1444 H 0.22512 0.73764 0.79773 0.0
H1445 H 0.14516 0.77327 0.88015 0.0
H1446 H 0.13678 0.77531 0.84942 0.0
H1447 H 0.13574 0.74734 0.8642 0.0
H1448 H 0.11873 0.76681 0.77531 0.0
H1449 H 0.11741 0.69775 0.80708 0.0
H1450 H 0.17616 0.78298 0.7938 0.0
H1451 H 0.15531 0.79414 0.81476 0.0
H1452 H 0.1482 0.79473 0.78367 0.0
H1453 H 0.1754 0.70022 0.83181 0.0
H1454 H 0.1477 0.68438 0.8323 0.0
H1455 H 0.15349 0.70765 0.85335 0.0
C1456 C 0.45199 0.93849 0.12813 0.0
C1457 C 0.45617 0.96289 0.12756 0.0
C1458 C 0.45594 0.92441 0.10814 0.0
C1459 C 0.46455 0.935 0.08716 0.0
C1460 C 0.46701 0.95991 0.08592 0.0
C1461 C 0.46254 0.97364 0.10614 0.0
C1462 C 0.45275 0.89795 0.11011 0.0
C1463 C 0.47641 0.97191 0.064 0.0
C1464 C 0.50378 0.89442 0.05079 0.0
C1465 C 0.48793 0.88631 0.03358 0.0
C1466 C 0.49663 0.91106 0.06775 0.0
C1467 C 0.47304 0.91966 0.06755 0.0
C1468 C 0.4572 0.9121 0.04973 0.0
C1469 C 0.46481 0.89548 0.03298 0.0
C1470 C 0.51414 0.91893 0.08629 0.0
C1471 C 0.43205 0.92112 0.04871 0.0
H1472 H 0.44718 0.93017 0.14473 0.0
H1473 H 0.46622 0.99246 0.10573 0.0
H1474 H 0.44244 0.89112 0.09487 0.0
H1475 H 0.47034 0.88919 0.10977 0.0
H1476 H 0.44358 0.89281 0.1267 0.0
H1477 H 0.4959 0.96949 0.06319 0.0
H1478 H 0.46872 0.96401 0.04776 0.0
H1479 H 0.47264 0.9912 0.06408 0.0
H1480 H 0.52159 0.8873 0.0514 0.0
H1481 H 0.45257 0.88953 0.01946 0.0
H1482 H 0.50844 0.91247 0.10392 0.0
H1483 H 0.51461 0.9385 0.08705 0.0
H1484 H 0.53233 0.91232 0.08276 0.0
H1485 H 0.42224 0.91508 0.06458 0.0
H1486 H 0.4225 0.91485 0.03271 0.0
H1487 H 0.43188 0.94075 0.04885 0.0
C1488 C 0.77548 0.24465 0.60735 0.0
C1489 C 0.75328 0.23995 0.61729 0.0
C1490 C 0.79583 0.24583 0.62147 0.0
C1491 C 0.79391 0.24192 0.64611 0.0
C1492 C 0.77127 0.23905 0.65649 0.0
C1493 C 0.75111 0.23822 0.6419 0.0
C1494 C 0.81958 0.24922 0.60972 0.0
C1495 C 0.7685 0.23474 0.68269 0.0
C1496 C 0.84693 0.21104 0.6734 0.0
C1497 C 0.85887 0.22984 0.68425 0.0
C1498 C 0.8254 0.21469 0.66158 0.0
C1499 C 0.81574 0.23779 0.66025 0.0
C1500 C 0.82765 0.25686 0.67122 0.0
C1501 C 0.8491 0.25267 0.6831 0.0
C1502 C 0.81315 0.19382 0.65025 0.0
C1503 C 0.8178 0.28168 0.67028 0.0
H1504 H 0.77713 0.24597 0.58828 0.0
H1505 H 0.73399 0.23426 0.6496 0.0
H1506 H 0.83032 0.26245 0.61946 0.0
H1507 H 0.8295 0.23226 0.60999 0.0
H1508 H 0.81778 0.25507 0.59105 0.0
H1509 H 0.74988 0.2372 0.68853 0.0
H1510 H 0.77389 0.21631 0.68684 0.0
H1511 H 0.78008 0.24674 0.69304 0.0
H1512 H 0.85452 0.19344 0.67397 0.0
H1513 H 0.8581 0.26726 0.69168 0.0
H1514 H 0.81268 0.19619 0.63077 0.0
H1515 H 0.79456 0.19277 0.65644 0.0
H1516 H 0.8221 0.17679 0.65431 0.0
H1517 H 0.81687 0.28778 0.65166 0.0
H1518 H 0.82873 0.29441 0.68053 0.0
H1519 H 0.79949 0.28194 0.67736 0.0
C1520 C 0.96345 0.50155 0.89644 0.0
C1521 C 0.95848 0.50877 0.87323 0.0
C1522 C 0.96683 0.51834 0.91449 0.0
C1523 C 0.96508 0.54277 0.90908 0.0
C1524 C 0.95755 0.54987 0.88626 0.0
C1525 C 0.95437 0.53277 0.86861 0.0
C1526 C 0.9746 0.50997 0.93862 0.0
C1527 C 0.95523 0.57568 0.87972 0.0
C1528 C 0.96924 0.59296 0.95367 0.0
C1529 C 0.99287 0.60012 0.95073 0.0
C1530 C 0.96013 0.57339 0.94129 0.0
C1531 C 0.97495 0.56087 0.92548 0.0
C1532 C -0.00091 0.56734 0.92339 0.0
C1533 C 0.00769 0.58687 0.93594 0.0
C1534 C 0.93446 0.56672 0.9444 0.0
C1535 C 0.01562 0.55443 0.9069 0.0
H1536 H 0.9668 0.48302 0.9001 0.0
H1537 H 0.95041 0.53836 0.85069 0.0
H1538 H 0.99416 0.51126 0.93996 0.0
H1539 H 0.96688 0.52112 0.95279 0.0
H1540 H 0.96951 0.49125 0.94173 0.0
H1541 H 0.94617 0.57815 0.86244 0.0
H1542 H 0.94524 0.58546 0.89347 0.0
H1543 H 0.97312 0.58371 0.87857 0.0
H1544 H 0.95769 0.60296 0.96526 0.0
H1545 H 0.02589 0.59233 0.93333 0.0
H1546 H 0.93265 0.54732 0.94682 0.0
H1547 H 0.92438 0.57159 0.92826 0.0
H1548 H 0.92629 0.57584 0.95976 0.0
H1549 H 0.01448 0.53509 0.90991 0.0
H1550 H 0.03435 0.56 0.9092 0.0
H1551 H 0.01029 0.55792 0.88832 0.0
C1552 C 0.65313 0.71546 0.16584 0.0
C1553 C 0.64177 0.7375 0.16765 0.0
C1554 C 0.67521 0.71333 0.15464 0.0
C1555 C 0.68597 0.73366 0.14482 0.0
C1556 C 0.6751 0.75608 0.14763 0.0
C1557 C 0.65313 0.7577 0.15895 0.0
C1558 C 0.68659 0.68926 0.15256 0.0
C1559 C 0.68611 0.77827 0.1377 0.0
C1560 C 0.7488 0.73982 0.12239 0.0
C1561 C 0.74476 0.73995 0.09792 0.0
C1562 C 0.7301 0.73572 0.13824 0.0
C1563 C 0.70705 0.73154 0.12924 0.0
C1564 C 0.70358 0.72914 0.10456 0.0
C1565 C 0.7225 0.73346 0.0892 0.0
C1566 C 0.73463 0.73828 0.16441 0.0
C1567 C 0.67937 0.72445 0.0942 0.0
H1568 H 0.64461 0.6998 0.17289 0.0
H1569 H 0.64447 0.77477 0.16019 0.0
H1570 H 0.68573 0.6832 0.13392 0.0
H1571 H 0.70558 0.69018 0.15757 0.0
H1572 H 0.67769 0.67589 0.16386 0.0
H1573 H 0.67668 0.79453 0.14346 0.0
H1574 H 0.70486 0.77956 0.14333 0.0
H1575 H 0.68581 0.77751 0.11809 0.0
H1576 H 0.76597 0.74505 0.12921 0.0
H1577 H 0.71942 0.7335 0.07026 0.0
H1578 H 0.72354 0.72588 0.17481 0.0
H1579 H 0.73008 0.75655 0.16997 0.0
H1580 H 0.75356 0.73513 0.16879 0.0
H1581 H 0.67054 0.7097 0.10364 0.0
H1582 H 0.68024 0.72004 0.07508 0.0
H1583 H 0.66814 0.74043 0.09635 0.0
C1584 C 0.53725 0.46151 0.36767 0.0
C1585 C 0.53983 0.48613 0.36829 0.0
C1586 C 0.53882 0.44804 0.38833 0.0
C1587 C 0.54392 0.45943 0.41005 0.0
C1588 C 0.55028 0.48369 0.41008 0.0
C1589 C 0.54778 0.49696 0.38914 0.0
C1590 C 0.53223 0.42214 0.38718 0.0
C1591 C 0.55748 0.49617 0.43252 0.0
C1592 C 0.50432 0.43061 0.45429 0.0
C1593 C 0.51804 0.41103 0.46076 0.0
C1594 C 0.51366 0.4486 0.44018 0.0
C1595 C 0.5374 0.44699 0.43229 0.0
C1596 C 0.55232 0.4292 0.44173 0.0
C1597 C 0.54239 0.41118 0.45571 0.0
C1598 C 0.49693 0.46738 0.43124 0.0
C1599 C 0.57822 0.42795 0.43544 0.0
H1600 H 0.53175 0.45301 0.35138 0.0
H1601 H 0.55023 0.51598 0.38964 0.0
H1602 H 0.54615 0.41117 0.3956 0.0
H1603 H 0.51549 0.41913 0.39698 0.0
H1604 H 0.52975 0.41586 0.36872 0.0
H1605 H 0.57002 0.51079 0.42863 0.0
H1606 H 0.5416 0.50405 0.44094 0.0
H1607 H 0.56584 0.48383 0.44533 0.0
H1608 H 0.48573 0.43117 0.45885 0.0
H1609 H 0.55345 0.39655 0.46138 0.0
H1610 H 0.49014 0.4618 0.41371 0.0
H1611 H 0.5058 0.48471 0.42918 0.0
H1612 H 0.48156 0.46967 0.44328 0.0
H1613 H 0.58051 0.41686 0.41943 0.0
H1614 H 0.58859 0.41969 0.44997 0.0
H1615 H 0.58555 0.44578 0.43168 0.0
C1616 C 0.36521 0.24944 0.25397 0.0
C1617 C 0.38965 0.25231 0.25078 0.0
C1618 C 0.34974 0.2688 0.25171 0.0
C1619 C 0.35901 0.29135 0.24589 0.0
C1620 C 0.38344 0.29383 0.2409 0.0
C1621 C 0.39847 0.27429 0.24354 0.0
C1622 C 0.32383 0.26547 0.25733 0.0
C1623 C 0.394 0.3175 0.23444 0.0
C1624 C 0.3193 0.34276 0.22849 0.0
C1625 C 0.31826 0.35564 0.24968 0.0
C1626 C 0.33199 0.32145 0.22709 0.0
C1627 C 0.34388 0.31282 0.24736 0.0
C1628 C 0.34255 0.32553 0.2689 0.0
C1629 C 0.32996 0.34689 0.26973 0.0
C1630 C 0.33291 0.3083 0.20388 0.0
C1631 C 0.35473 0.31673 0.29102 0.0
H1632 H 0.35837 0.23254 0.2599 0.0
H1633 H 0.41739 0.2765 0.2411 0.0
H1634 H 0.32003 0.27301 0.27504 0.0
H1635 H 0.31254 0.27493 0.24434 0.0
H1636 H 0.31877 0.24648 0.2575 0.0
H1637 H 0.41273 0.31593 0.22866 0.0
H1638 H 0.38362 0.32596 0.22006 0.0
H1639 H 0.3933 0.32945 0.24999 0.0
H1640 H 0.3101 0.3493 0.21296 0.0
H1641 H 0.32948 0.35689 0.28607 0.0
H1642 H 0.32681 0.28981 0.20636 0.0
H1643 H 0.35145 0.30749 0.19746 0.0
H1644 H 0.3218 0.3168 0.19004 0.0
H1645 H 0.34904 0.29838 0.29493 0.0
H1646 H 0.35083 0.32796 0.30666 0.0
H1647 H 0.37418 0.31637 0.28826 0.0
C1648 C 0.80175 0.13334 0.77272 0.0
C1649 C 0.80345 0.12094 0.75128 0.0
C1650 C 0.81389 0.1547 0.7761 0.0
C1651 C 0.82821 0.16363 0.75769 0.0
C1652 C 0.82869 0.15199 0.73551 0.0
C1653 C 0.81633 0.13072 0.73258 0.0
C1654 C 0.81241 0.16698 0.79974 0.0
C1655 C 0.84343 0.16119 0.7153 0.0
C1656 C 0.85747 0.22385 0.75603 0.0
C1657 C 0.88098 0.21756 0.76102 0.0
C1658 C 0.83944 0.20677 0.75648 0.0
C1659 C 0.8452 0.18309 0.76234 0.0
C1660 C 0.86847 0.17733 0.76972 0.0
C1661 C 0.88613 0.19465 0.76883 0.0
C1662 C 0.8149 0.21368 0.74843 0.0
C1663 C 0.87528 0.15236 0.77643 0.0
H1664 H 0.79142 0.12601 0.78711 0.0
H1665 H 0.81771 0.12119 0.71601 0.0
H1666 H 0.82936 0.16464 0.80941 0.0
H1667 H 0.80962 0.18627 0.7973 0.0
H1668 H 0.79786 0.15983 0.81084 0.0
H1669 H 0.83925 0.15217 0.69835 0.0
H1670 H 0.8405 0.18043 0.71306 0.0
H1671 H 0.86248 0.15848 0.71934 0.0
H1672 H 0.85349 0.24152 0.7497 0.0
H1673 H 0.90433 0.18985 0.7727 0.0
H1674 H 0.80108 0.20369 0.75814 0.0
H1675 H 0.81296 0.20959 0.72933 0.0
H1676 H 0.81171 0.23293 0.75082 0.0
H1677 H 0.86247 0.14496 0.7893 0.0
H1678 H 0.89331 0.15141 0.78424 0.0
H1679 H 0.87483 0.14096 0.76045 0.0
C1680 C 0.01878 0.61029 0.02542 0.0
C1681 C 0.02768 0.6331 0.02147 0.0
C1682 C 0.03394 0.59057 0.02515 0.0
C1683 C 0.05843 0.59396 0.02101 0.0
C1684 C 0.06772 0.61719 0.01979 0.0
C1685 C 0.05218 0.6365 0.01994 0.0
C1686 C 0.02335 0.56613 0.02676 0.0
C1687 C 0.09378 0.62163 0.01579 0.0
C1688 C 0.10537 0.54593 0.02215 0.0
C1689 C 0.10871 0.54198 -0.00217 0.0
C1690 C 0.08803 0.5618 0.03026 0.0
C1691 C 0.07366 0.57383 0.01366 0.0
C1692 C 0.07588 0.56866 0.98927 0.0
C1693 C 0.09352 0.55306 0.98166 0.0
C1694 C 0.08603 0.56663 0.05642 0.0
C1695 C 0.06057 0.58068 0.97096 0.0
H1696 H -0.00018 0.60756 0.02655 0.0
H1697 H 0.05907 0.65417 0.01706 0.0
H1698 H 0.02074 0.55904 0.00864 0.0
H1699 H 0.03526 0.55383 0.03638 0.0
H1700 H 0.00587 0.56645 0.03574 0.0
H1701 H 0.09856 0.64047 0.01865 0.0
H1702 H 0.10466 0.61049 0.02776 0.0
H1703 H 0.09843 0.6168 -0.00265 0.0
H1704 H 0.11687 0.53732 0.03488 0.0
H1705 H 0.096 0.5504 0.96289 0.0
H1706 H 0.06719 0.56737 0.06192 0.0
H1707 H 0.09403 0.5841 0.06044 0.0
H1708 H 0.09529 0.55299 0.06714 0.0
H1709 H 0.04169 0.57996 0.97626 0.0
H1710 H 0.06238 0.57243 0.95321 0.0
H1711 H 0.06569 0.59957 0.96958 0.0
C1712 C 0.6753 0.83024 0.27126 0.0
C1713 C 0.67868 0.84242 0.24986 0.0
C1714 C 0.66223 0.80914 0.27202 0.0
C1715 C 0.65232 0.80009 0.25092 0.0
C1716 C 0.65666 0.81169 0.22915 0.0
C1717 C 0.66963 0.83277 0.22891 0.0
C1718 C 0.65827 0.79705 0.29549 0.0
C1719 C 0.64675 0.80238 0.20617 0.0
C1720 C 0.62697 0.73885 0.24181 0.0
C1721 C 0.60273 0.74412 0.24072 0.0
C1722 C 0.64356 0.7566 0.24702 0.0
C1723 C 0.63553 0.7799 0.25152 0.0
C1724 C 0.61094 0.78457 0.25294 0.0
C1725 C 0.59482 0.76661 0.24736 0.0
C1726 C 0.6696 0.75087 0.24528 0.0
C1727 C 0.60164 0.80909 0.25807 0.0
H1728 H 0.68247 0.83742 0.28753 0.0
H1729 H 0.67195 0.84209 0.21234 0.0
H1730 H 0.6394 0.79879 0.30063 0.0
H1731 H 0.6622 0.77787 0.29407 0.0
H1732 H 0.6694 0.80474 0.30976 0.0
H1733 H 0.65372 0.81207 0.19056 0.0
H1734 H 0.65112 0.78337 0.2042 0.0
H1735 H 0.62716 0.80401 0.20627 0.0
H1736 H 0.63318 0.7215 0.23647 0.0
H1737 H 0.57605 0.77063 0.24658 0.0
H1738 H 0.67999 0.76062 0.25878 0.0
H1739 H 0.67619 0.75629 0.22761 0.0
H1740 H 0.67293 0.73161 0.24739 0.0
H1741 H 0.61104 0.81699 0.27337 0.0
H1742 H 0.58233 0.80903 0.26184 0.0
H1743 H 0.60484 0.82066 0.24253 0.0
C1744 C 0.40086 0.45695 0.4783 0.0
C1745 C 0.39022 0.4725 0.49433 0.0
C1746 C 0.41808 0.44068 0.48581 0.0
C1747 C 0.42447 0.43962 0.51006 0.0
C1748 C 0.41399 0.45547 0.5263 0.0
C1749 C 0.39709 0.47179 0.51822 0.0
C1750 C 0.4286 0.42402 0.46782 0.0
C1751 C 0.41989 0.45456 0.55233 0.0
C1752 C 0.44823 0.37935 0.5268 0.0
C1753 C 0.47271 0.38315 0.52587 0.0
C1754 C 0.43226 0.39805 0.52354 0.0
C1755 C 0.44104 0.42094 0.51849 0.0
C1756 C 0.46576 0.4252 0.51917 0.0
C1757 C 0.48135 0.40625 0.52337 0.0
C1758 C 0.40603 0.39288 0.52362 0.0
C1759 C 0.47578 0.44925 0.51334 0.0
H1760 H 0.3954 0.45713 0.45991 0.0
H1761 H 0.38895 0.48377 0.53078 0.0
H1762 H 0.44762 0.42091 0.47134 0.0
H1763 H 0.41943 0.40671 0.46891 0.0
H1764 H 0.4266 0.43089 0.44951 0.0
H1765 H 0.41117 0.46899 0.56243 0.0
H1766 H 0.41411 0.43734 0.55977 0.0
H1767 H 0.4393 0.45582 0.55503 0.0
H1768 H 0.44159 0.36143 0.52858 0.0
H1769 H 0.50029 0.40913 0.52224 0.0
H1770 H 0.39921 0.39323 0.50521 0.0
H1771 H 0.3963 0.40657 0.53377 0.0
H1772 H 0.40205 0.37525 0.53135 0.0
H1773 H 0.47066 0.45429 0.49505 0.0
H1774 H 0.4954 0.4497 0.51474 0.0
H1775 H 0.46827 0.4628 0.52537 0.0
C1776 C 0.15803 0.62817 0.75842 0.0
C1777 C 0.17201 0.61662 0.7416 0.0
C1778 C 0.1446 0.64811 0.7522 0.0
C1779 C 0.14516 0.65662 0.72862 0.0
C1780 C 0.16014 0.6457 0.71188 0.0
C1781 C 0.17334 0.62579 0.71855 0.0
C1782 C 0.1291 0.65951 0.77065 0.0
C1783 C 0.16159 0.65455 0.68673 0.0
C1784 C 0.08812 0.68676 0.71088 0.0
C1785 C 0.09358 0.71056 0.71495 0.0
C1786 C 0.10529 0.66911 0.71375 0.0
C1787 C 0.1284 0.67546 0.72111 0.0
C1788 C 0.13453 0.69965 0.72336 0.0
C1789 C 0.11702 0.717 0.72003 0.0
C1790 C 0.09814 0.64353 0.7108 0.0
C1791 C 0.15889 0.70719 0.73138 0.0
H1792 H 0.15694 0.62117 0.77623 0.0
H1793 H 0.1845 0.61718 0.70555 0.0
H1794 H 0.13178 0.67891 0.7705 0.0
H1795 H 0.11022 0.6561 0.7664 0.0
H1796 H 0.13284 0.65274 0.78872 0.0
H1797 H 0.17575 0.64552 0.67651 0.0
H1798 H 0.14442 0.65153 0.67766 0.0
H1799 H 0.16499 0.67388 0.6865 0.0
H1800 H 0.06997 0.68181 0.70702 0.0
H1801 H 0.12125 0.73537 0.72357 0.0
H1802 H 0.09795 0.63473 0.72835 0.0
H1803 H 0.11115 0.63401 0.69962 0.0
H1804 H 0.08031 0.6417 0.70269 0.0
H1805 H 0.1603 0.70492 0.75082 0.0
H1806 H 0.16236 0.72608 0.72719 0.0
H1807 H 0.17286 0.69617 0.72308 0.0
C1808 C 0.53109 0.87781 0.94931 0.0
C1809 C 0.50709 0.88011 0.95508 0.0
C1810 C 0.5473 0.89582 0.95462 0.0
C1811 C 0.53928 0.91658 0.96611 0.0
C1812 C 0.51471 0.91992 0.96996 0.0
C1813 C 0.49883 0.90163 0.96425 0.0
C1814 C 0.57329 0.89158 0.94999 0.0
C1815 C 0.50538 0.94171 0.98223 0.0
C1816 C 0.58402 0.94194 0.00925 0.0
C1817 C 0.59424 0.96013 -0.00403 0.0
C1818 C 0.56549 0.9283 2e-05 0.0
C1819 C 0.55693 0.93291 0.9769 0.0
C1820 C 0.5666 0.95182 0.9637 0.0
C1821 C 0.58525 0.96516 0.97335 0.0
C1822 C 0.55559 0.90844 0.01478 0.0
C1823 C 0.55764 0.95759 0.93921 0.0
H1824 H 0.5375 0.86116 0.94226 0.0
H1825 H 0.48034 0.9034 0.96906 0.0
H1826 H 0.58148 0.90735 0.94168 0.0
H1827 H 0.58255 0.8884 0.96702 0.0
H1828 H 0.57628 0.87605 0.93833 0.0
H1829 H 0.48616 0.94425 0.97885 0.0
H1830 H 0.50797 0.9398 0.0016 0.0
H1831 H 0.51503 0.9578 0.97646 0.0
H1832 H 0.591 0.93784 0.02665 0.0
H1833 H 0.59289 0.97945 0.9631 0.0
H1834 H 0.53606 0.90994 0.01556 0.0
H1835 H 0.56266 0.90847 0.03313 0.0
H1836 H 0.55995 0.89122 0.00644 0.0
H1837 H 0.56187 0.94282 0.92701 0.0
H1838 H 0.5656 0.97408 0.93209 0.0
H1839 H 0.53809 0.95958 0.93941 0.0
C1840 C 0.91643 0.05229 0.46787 0.0
C1841 C 0.89596 0.05158 0.45396 0.0
C1842 C 0.93666 0.06413 0.46007 0.0
C1843 C 0.93632 0.07549 0.43771 0.0
C1844 C 0.9172 0.07118 0.42203 0.0
C1845 C 0.89693 0.0594 0.43046 0.0
C1846 C 0.9567 0.06753 0.47742 0.0
C1847 C 0.91694 0.08111 0.39729 0.0
C1848 C 0.95917 0.13644 0.44905 0.0
C1849 C 0.98359 0.13276 0.44697 0.0
C1850 C 0.94307 0.1186 0.44332 0.0
C1851 C 0.95162 0.0967 0.43461 0.0
C1852 C 0.9759 0.09442 0.42871 0.0
C1853 C 0.99182 0.11241 0.43538 0.0
C1854 C 0.91725 0.12231 0.44935 0.0
C1855 C 0.98539 0.07227 0.41731 0.0
H1856 H 0.91592 0.04541 0.48579 0.0
H1857 H 0.88129 0.05825 0.41937 0.0
H1858 H 0.97413 0.06593 0.46863 0.0
H1859 H 0.9554 0.08552 0.4851 0.0
H1860 H 0.95598 0.05448 0.4921 0.0
H1861 H 0.90816 0.06855 0.38499 0.0
H1862 H 0.90655 0.09777 0.397 0.0
H1863 H 0.93507 0.08489 0.39076 0.0
H1864 H 0.95271 0.15253 0.45727 0.0
H1865 H 0.01069 0.10971 0.43314 0.0
H1866 H 0.91199 0.11012 0.46381 0.0
H1867 H 0.90597 0.11837 0.4338 0.0
H1868 H 0.91348 0.14072 0.45512 0.0
H1869 H 0.99114 0.05964 0.43119 0.0
H1870 H 0.00105 0.07635 0.40617 0.0
H1871 H 0.97172 0.0635 0.40624 0.0
loop_
_geom_bond_atom_site_label_1
_geom_bond_atom_site_label_2
_geom_bond_distance
_geom_bond_site_symmetry_2
_ccdc_geom_bond_type
Co0 O1 2.216 . S
Co0 O2 2.091 . S
Co0 O4 2.004 . S
Co0 O10 2.021 . S
Co0 O12 2.137 . S
Co0 O13 2.244 . S
O1 Co0 2.216 . S
O1 C8 1.247 . S
O2 Co0 2.091 . S
O2 C8 1.261 . S
C3 O12 1.247 . S
C3 O13 1.272 . S
O4 Co0 2.004 . S
O4 C9 1.259 . S
Co5 O6 2.061 . S
Co5 O11 2.052 . S
Co5 O13 2.135 . S
O6 Co5 2.061 . S
O6 C9 1.235 . S
C7 O10 1.238 . S
C7 O11 1.241 . S
C8 O1 1.247 . S
C8 O2 1.261 . S
C9 O4 1.259 . S
C9 O6 1.235 . S
O10 Co0 2.021 . S
O10 C7 1.238 . S
O11 Co5 2.052 . S
O11 C7 1.241 . S
O12 Co0 2.137 . S
O12 C3 1.247 . S
O13 Co0 2.244 . S
O13 C3 1.272 . S
O13 Co5 2.135 . S
Co14 O15 2.216 . S
Co14 O16 2.091 . S
Co14 O18 2.004 . S
Co14 O24 2.021 . S
Co14 O26 2.137 . S
Co14 O27 2.244 . S
O15 Co14 2.216 . S
O15 C22 1.247 . S
O16 Co14 2.091 . S
O16 C22 1.261 . S
C17 O26 1.247 . S
C17 O27 1.272 . S
O18 Co14 2.004 . S
O18 C23 1.259 . S
Co19 O20 2.061 . S
Co19 O25 2.052 . S
Co19 O27 2.135 . S
O20 Co19 2.061 . S
O20 C23 1.235 . S
C21 O24 1.238 . S
C21 O25 1.241 . S
C22 O15 1.247 . S
C22 O16 1.261 . S
C23 O18 1.259 . S
C23 O20 1.235 . S
O24 Co14 2.021 . S
O24 C21 1.238 . S
O25 Co19 2.052 . S
O25 C21 1.241 . S
O26 Co14 2.137 . S
O26 C17 1.247 . S
O27 Co14 2.244 . S
O27 C17 1.272 . S
O27 Co19 2.135 . S
Co28 O29 2.216 . S
Co28 O30 2.091 . S
Co28 O32 2.004 . S
Co28 O38 2.021 . S
Co28 O40 2.137 . S
Co28 O41 2.244 . S
O29 Co28 2.216 . S
O29 C36 1.247 . S
O30 Co28 2.091 . S
O30 C36 1.261 . S
C31 O40 1.247 . S
C31 O41 1.272 . S
O32 Co28 2.004 . S
O32 C37 1.259 . S
Co33 O34 2.061 . S
Co33 O39 2.052 . S
Co33 O41 2.135 . S
O34 Co33 2.061 . S
O34 C37 1.235 . S
C35 O38 1.238 . S
C35 O39 1.241 . S
C36 O29 1.247 . S
C36 O30 1.261 . S
C37 O32 1.259 . S
C37 O34 1.235 . S
O38 Co28 2.021 . S
O38 C35 1.238 . S
O39 Co33 2.052 . S
O39 C35 1.241 . S
O40 Co28 2.137 . S
O40 C31 1.247 . S
O41 Co28 2.244 . S
O41 C31 1.272 . S
O41 Co33 2.135 . S
Co42 O43 2.216 . S
Co42 O44 2.091 . S
Co42 O46 2.004 . S
Co42 O52 2.021 . S
Co42 O54 2.137 . S
Co42 O55 2.244 . S
O43 Co42 2.216 . S
O43 C50 1.247 . S
O44 Co42 2.091 . S
O44 C50 1.261 . S
C45 O54 1.247 . S
C45 O55 1.272 . S
O46 Co42 2.004 . S
O46 C51 1.259 . S
Co47 O48 2.061 . S
Co47 O53 2.052 . S
Co47 O55 2.135 . S
O48 Co47 2.061 . S
O48 C51 1.235 . S
C49 O52 1.238 . S
C49 O53 1.241 . S
C50 O43 1.247 . S
C50 O44 1.261 . S
C51 O46 1.259 . S
C51 O48 1.235 . S
O52 Co42 2.021 . S
O52 C49 1.238 . S
O53 Co47 2.052 . S
O53 C49 1.241 . S
O54 Co42 2.137 . S
O54 C45 1.247 . S
O55 Co42 2.244 . S
O55 C45 1.272 . S
O55 Co47 2.135 . S
Co56 O57 2.216 . S
Co56 O58 2.091 . S
Co56 O60 2.004 . S
Co56 O66 2.021 . S
Co56 O68 2.137 . S
Co56 O69 2.244 . S
O57 Co56 2.216 . S
O57 C64 1.247 . S
O58 Co56 2.091 . S
O58 C64 1.261 . S
C59 O68 1.247 . S
C59 O69 1.272 . S
O60 Co56 2.004 . S
O60 C65 1.259 . S
Co61 O62 2.061 . S
Co61 O67 2.052 . S
Co61 O69 2.135 . S
O62 Co61 2.061 . S
O62 C65 1.235 . S
C63 O66 1.238 . S
C63 O67 1.241 . S
C64 O57 1.247 . S
C64 O58 1.261 . S
C65 O60 1.259 . S
C65 O62 1.235 . S
O66 Co56 2.021 . S
O66 C63 1.238 . S
O67 Co61 2.052 . S
O67 C63 1.241 . S
O68 Co56 2.137 . S
O68 C59 1.247 . S
O69 Co56 2.244 . S
O69 C59 1.272 . S
O69 Co61 2.135 . S
Co70 O71 2.216 . S
Co70 O72 2.091 . S
Co70 O74 2.004 . S
Co70 O80 2.021 . S
Co70 O82 2.137 . S
Co70 O83 2.244 . S
O71 Co70 2.216 . S
O71 C78 1.247 . S
O72 Co70 2.091 . S
O72 C78 1.261 . S
C73 O82 1.247 . S
C73 O83 1.272 . S
O74 Co70 2.004 . S
O74 C79 1.259 . S
Co75 O76 2.061 . S
Co75 O81 2.052 . S
Co75 O83 2.135 . S
O76 Co75 2.061 . S
O76 C79 1.235 . S
C77 O80 1.238 . S
C77 O81 1.241 . S
C78 O71 1.247 . S
C78 O72 1.261 . S
C79 O74 1.259 . S
C79 O76 1.235 . S
O80 Co70 2.021 . S
O80 C77 1.238 . S
O81 Co75 2.052 . S
O81 C77 1.241 . S
O82 Co70 2.137 . S
O82 C73 1.247 . S
O83 Co70 2.244 . S
O83 C73 1.272 . S
O83 Co75 2.135 . S
Co84 O85 2.216 . S
Co84 O86 2.091 . S
Co84 O88 2.004 . S
Co84 O94 2.021 . S
Co84 O96 2.137 . S
Co84 O97 2.244 . S
O85 Co84 2.216 . S
O85 C92 1.247 . S
O86 Co84 2.091 . S
O86 C92 1.261 . S
C87 O96 1.247 . S
C87 O97 1.272 . S
O88 Co84 2.004 . S
O88 C93 1.259 . S
Co89 O90 2.061 . S
Co89 O95 2.052 . S
Co89 O97 2.135 . S
O90 Co89 2.061 . S
O90 C93 1.235 . S
C91 O94 1.238 . S
C91 O95 1.241 . S
C92 O85 1.247 . S
C92 O86 1.261 . S
C93 O88 1.259 . S
C93 O90 1.235 . S
O94 Co84 2.021 . S
O94 C91 1.238 . S
O95 Co89 2.052 . S
O95 C91 1.241 . S
O96 Co84 2.137 . S
O96 C87 1.247 . S
O97 Co84 2.244 . S
O97 C87 1.272 . S
O97 Co89 2.135 . S
Co98 O99 2.216 . S
Co98 O100 2.091 . S
Co98 O102 2.004 . S
Co98 O108 2.021 . S
Co98 O110 2.137 . S
Co98 O111 2.244 . S
O99 Co98 2.216 . S
O99 C106 1.247 . S
O100 Co98 2.091 . S
O100 C106 1.261 . S
C101 O110 1.247 . S
C101 O111 1.272 . S
O102 Co98 2.004 . S
O102 C107 1.259 . S
Co103 O104 2.061 . S
Co103 O109 2.052 . S
Co103 O111 2.135 . S
O104 Co103 2.061 . S
O104 C107 1.235 . S
C105 O108 1.238 . S
C105 O109 1.241 . S
C106 O99 1.247 . S
C106 O100 1.261 . S
C107 O102 1.259 . S
C107 O104 1.235 . S
O108 Co98 2.021 . S
O108 C105 1.238 . S
O109 Co103 2.052 . S
O109 C105 1.241 . S
O110 Co98 2.137 . S
O110 C101 1.247 . S
O111 Co98 2.244 . S
O111 C101 1.272 . S
O111 Co103 2.135 . S
Co112 O113 2.216 . S
Co112 O114 2.091 . S
Co112 O116 2.004 . S
Co112 O122 2.021 . S
Co112 O124 2.137 . S
Co112 O125 2.244 . S
O113 Co112 2.216 . S
O113 C120 1.247 . S
O114 Co112 2.091 . S
O114 C120 1.261 . S
C115 O124 1.247 . S
C115 O125 1.272 . S
O116 Co112 2.004 . S
O116 C121 1.259 . S
Co117 O118 2.061 . S
Co117 O123 2.052 . S
Co117 O125 2.135 . S
O118 Co117 2.061 . S
O118 C121 1.235 . S
C119 O122 1.238 . S
C119 O123 1.241 . S
C120 O113 1.247 . S
C120 O114 1.261 . S
C121 O116 1.259 . S
C121 O118 1.235 . S
O122 Co112 2.021 . S
O122 C119 1.238 . S
O123 Co117 2.052 . S
O123 C119 1.241 . S
O124 Co112 2.137 . S
O124 C115 1.247 . S
O125 Co112 2.244 . S
O125 C115 1.272 . S
O125 Co117 2.135 . S
Co126 O127 2.216 . S
Co126 O128 2.091 . S
Co126 O130 2.004 . S
Co126 O136 2.021 . S
Co126 O138 2.137 . S
Co126 O139 2.244 . S
O127 Co126 2.216 . S
O127 C134 1.247 . S
O128 Co126 2.091 . S
O128 C134 1.261 . S
C129 O138 1.247 . S
C129 O139 1.272 . S
O130 Co126 2.004 . S
O130 C135 1.259 . S
Co131 O132 2.061 . S
Co131 O137 2.052 . S
Co131 O139 2.135 . S
O132 Co131 2.061 . S
O132 C135 1.235 . S
C133 O136 1.238 . S
C133 O137 1.241 . S
C134 O127 1.247 . S
C134 O128 1.261 . S
C135 O130 1.259 . S
C135 O132 1.235 . S
O136 Co126 2.021 . S
O136 C133 1.238 . S
O137 Co131 2.052 . S
O137 C133 1.241 . S
O138 Co126 2.137 . S
O138 C129 1.247 . S
O139 Co126 2.244 . S
O139 C129 1.272 . S
O139 Co131 2.135 . S
Co140 O141 2.216 . S
Co140 O142 2.091 . S
Co140 O144 2.004 . S
Co140 O150 2.021 . S
Co140 O152 2.137 . S
Co140 O153 2.244 . S
O141 Co140 2.216 . S
O141 C148 1.247 . S
O142 Co140 2.091 . S
O142 C148 1.261 . S
C143 O152 1.247 . S
C143 O153 1.272 . S
O144 Co140 2.004 . S
O144 C149 1.259 . S
Co145 O146 2.061 . S
Co145 O151 2.052 . S
Co145 O153 2.135 . S
O146 Co145 2.061 . S
O146 C149 1.235 . S
C147 O150 1.238 . S
C147 O151 1.241 . S
C148 O141 1.247 . S
C148 O142 1.261 . S
C149 O144 1.259 . S
C149 O146 1.235 . S
O150 Co140 2.021 . S
O150 C147 1.238 . S
O151 Co145 2.052 . S
O151 C147 1.241 . S
O152 Co140 2.137 . S
O152 C143 1.247 . S
O153 Co140 2.244 . S
O153 C143 1.272 . S
O153 Co145 2.135 . S
Co154 O155 2.216 . S
Co154 O156 2.091 . S
Co154 O158 2.004 . S
Co154 O164 2.021 . S
Co154 O166 2.137 . S
Co154 O167 2.244 . S
O155 Co154 2.216 . S
O155 C162 1.247 . S
O156 Co154 2.091 . S
O156 C162 1.261 . S
C157 O166 1.247 . S
C157 O167 1.272 . S
O158 Co154 2.004 . S
O158 C163 1.259 . S
Co159 O160 2.061 . S
Co159 O165 2.052 . S
Co159 O167 2.135 . S
O160 Co159 2.061 . S
O160 C163 1.235 . S
C161 O164 1.238 . S
C161 O165 1.241 . S
C162 O155 1.247 . S
C162 O156 1.261 . S
C163 O158 1.259 . S
C163 O160 1.235 . S
O164 Co154 2.021 . S
O164 C161 1.238 . S
O165 Co159 2.052 . S
O165 C161 1.241 . S
O166 Co154 2.137 . S
O166 C157 1.247 . S
O167 Co154 2.244 . S
O167 C157 1.272 . S
O167 Co159 2.135 . S
Co168 O169 2.216 . S
Co168 O170 2.091 . S
Co168 O172 2.004 . S
Co168 O178 2.021 . S
Co168 O180 2.137 . S
Co168 O181 2.244 . S
O169 Co168 2.216 . S
O169 C176 1.247 . S
O170 Co168 2.091 . S
O170 C176 1.261 . S
C171 O180 1.247 . S
C171 O181 1.272 . S
O172 Co168 2.004 . S
O172 C177 1.259 . S
Co173 O174 2.061 . S
Co173 O179 2.052 . S
Co173 O181 2.135 . S
O174 Co173 2.061 . S
O174 C177 1.235 . S
C175 O178 1.238 . S
C175 O179 1.241 . S
C176 O169 1.247 . S
C176 O170 1.261 . S
C177 O172 1.259 . S
C177 O174 1.235 . S
O178 Co168 2.021 . S
O178 C175 1.238 . S
O179 Co173 2.052 . S
O179 C175 1.241 . S
O180 Co168 2.137 . S
O180 C171 1.247 . S
O181 Co168 2.244 . S
O181 C171 1.272 . S
O181 Co173 2.135 . S
Co182 O183 2.216 . S
Co182 O184 2.091 . S
Co182 O186 2.004 . S
Co182 O192 2.021 . S
Co182 O194 2.137 . S
Co182 O195 2.244 . S
O183 Co182 2.216 . S
O183 C190 1.247 . S
O184 Co182 2.091 . S
O184 C190 1.261 . S
C185 O194 1.247 . S
C185 O195 1.272 . S
O186 Co182 2.004 . S
O186 C191 1.259 . S
Co187 O188 2.061 . S
Co187 O193 2.052 . S
Co187 O195 2.135 . S
O188 Co187 2.061 . S
O188 C191 1.235 . S
C189 O192 1.238 . S
C189 O193 1.241 . S
C190 O183 1.247 . S
C190 O184 1.261 . S
C191 O186 1.259 . S
C191 O188 1.235 . S
O192 Co182 2.021 . S
O192 C189 1.238 . S
O193 Co187 2.052 . S
O193 C189 1.241 . S
O194 Co182 2.137 . S
O194 C185 1.247 . S
O195 Co182 2.244 . S
O195 C185 1.272 . S
O195 Co187 2.135 . S
Co196 O197 2.216 . S
Co196 O198 2.091 . S
Co196 O200 2.004 . S
Co196 O206 2.021 . S
Co196 O208 2.137 . S
Co196 O209 2.244 . S
O197 Co196 2.216 . S
O197 C204 1.247 . S
O198 Co196 2.091 . S
O198 C204 1.261 . S
C199 O208 1.247 . S
C199 O209 1.272 . S
O200 Co196 2.004 . S
O200 C205 1.259 . S
Co201 O202 2.061 . S
Co201 O207 2.052 . S
Co201 O209 2.135 . S
O202 Co201 2.061 . S
O202 C205 1.235 . S
C203 O206 1.238 . S
C203 O207 1.241 . S
C204 O197 1.247 . S
C204 O198 1.261 . S
C205 O200 1.259 . S
C205 O202 1.235 . S
O206 Co196 2.021 . S
O206 C203 1.238 . S
O207 Co201 2.052 . S
O207 C203 1.241 . S
O208 Co196 2.137 . S
O208 C199 1.247 . S
O209 Co196 2.244 . S
O209 C199 1.272 . S
O209 Co201 2.135 . S
Co210 O211 2.216 . S
Co210 O212 2.091 . S
Co210 O214 2.004 . S
Co210 O220 2.021 . S
Co210 O222 2.137 . S
Co210 O223 2.244 . S
O211 Co210 2.216 . S
O211 C218 1.247 . S
O212 Co210 2.091 . S
O212 C218 1.261 . S
C213 O222 1.247 . S
C213 O223 1.272 . S
O214 Co210 2.004 . S
O214 C219 1.259 . S
Co215 O216 2.061 . S
Co215 O221 2.052 . S
Co215 O223 2.135 . S
O216 Co215 2.061 . S
O216 C219 1.235 . S
C217 O220 1.238 . S
C217 O221 1.241 . S
C218 O211 1.247 . S
C218 O212 1.261 . S
C219 O214 1.259 . S
C219 O216 1.235 . S
O220 Co210 2.021 . S
O220 C217 1.238 . S
O221 Co215 2.052 . S
O221 C217 1.241 . S
O222 Co210 2.137 . S
O222 C213 1.247 . S
O223 Co210 2.244 . S
O223 C213 1.272 . S
O223 Co215 2.135 . S
Co224 O225 2.216 . S
Co224 O226 2.091 . S
Co224 O228 2.004 . S
Co224 O234 2.021 . S
Co224 O236 2.137 . S
Co224 O237 2.244 . S
O225 Co224 2.216 . S
O225 C232 1.247 . S
O226 Co224 2.091 . S
O226 C232 1.261 . S
C227 O236 1.247 . S
C227 O237 1.272 . S
O228 Co224 2.004 . S
O228 C233 1.259 . S
Co229 O230 2.061 . S
Co229 O235 2.052 . S
Co229 O237 2.135 . S
O230 Co229 2.061 . S
O230 C233 1.235 . S
C231 O234 1.238 . S
C231 O235 1.241 . S
C232 O225 1.247 . S
C232 O226 1.261 . S
C233 O228 1.259 . S
C233 O230 1.235 . S
O234 Co224 2.021 . S
O234 C231 1.238 . S
O235 Co229 2.052 . S
O235 C231 1.241 . S
O236 Co224 2.137 . S
O236 C227 1.247 . S
O237 Co224 2.244 . S
O237 C227 1.272 . S
O237 Co229 2.135 . S
Co238 O239 2.216 . S
Co238 O240 2.091 . S
Co238 O242 2.004 . S
Co238 O248 2.021 . S
Co238 O250 2.137 . S
Co238 O251 2.244 . S
O239 Co238 2.216 . S
O239 C246 1.247 . S
O240 Co238 2.091 . S
O240 C246 1.261 . S
C241 O250 1.247 . S
C241 O251 1.272 . S
O242 Co238 2.004 . S
O242 C247 1.259 . S
Co243 O244 2.061 . S
Co243 O249 2.052 . S
Co243 O251 2.135 . S
O244 Co243 2.061 . S
O244 C247 1.235 . S
C245 O248 1.238 . S
C245 O249 1.241 . S
C246 O239 1.247 . S
C246 O240 1.261 . S
C247 O242 1.259 . S
C247 O244 1.235 . S
O248 Co238 2.021 . S
O248 C245 1.238 . S
O249 Co243 2.052 . S
O249 C245 1.241 . S
O250 Co238 2.137 . S
O250 C241 1.247 . S
O251 Co238 2.244 . S
O251 C241 1.272 . S
O251 Co243 2.135 . S
Co252 O253 2.216 . S
Co252 O254 2.091 . S
Co252 O256 2.004 . S
Co252 O262 2.021 . S
Co252 O264 2.137 . S
Co252 O265 2.244 . S
O253 Co252 2.216 . S
O253 C260 1.247 . S
O254 Co252 2.091 . S
O254 C260 1.261 . S
C255 O264 1.247 . S
C255 O265 1.272 . S
O256 Co252 2.004 . S
O256 C261 1.259 . S
Co257 O258 2.061 . S
Co257 O263 2.052 . S
Co257 O265 2.135 . S
O258 Co257 2.061 . S
O258 C261 1.235 . S
C259 O262 1.238 . S
C259 O263 1.241 . S
C260 O253 1.247 . S
C260 O254 1.261 . S
C261 O256 1.259 . S
C261 O258 1.235 . S
O262 Co252 2.021 . S
O262 C259 1.238 . S
O263 Co257 2.052 . S
O263 C259 1.241 . S
O264 Co252 2.137 . S
O264 C255 1.247 . S
O265 Co252 2.244 . S
O265 C255 1.272 . S
O265 Co257 2.135 . S
Co266 O267 2.216 . S
Co266 O268 2.091 . S
Co266 O270 2.004 . S
Co266 O276 2.021 . S
Co266 O278 2.137 . S
Co266 O279 2.244 . S
O267 Co266 2.216 . S
O267 C274 1.247 . S
O268 Co266 2.091 . S
O268 C274 1.261 . S
C269 O278 1.247 . S
C269 O279 1.272 . S
O270 Co266 2.004 . S
O270 C275 1.259 . S
Co271 O272 2.061 . S
Co271 O277 2.052 . S
Co271 O279 2.135 . S
O272 Co271 2.061 . S
O272 C275 1.235 . S
C273 O276 1.238 . S
C273 O277 1.241 . S
C274 O267 1.247 . S
C274 O268 1.261 . S
C275 O270 1.259 . S
C275 O272 1.235 . S
O276 Co266 2.021 . S
O276 C273 1.238 . S
O277 Co271 2.052 . S
O277 C273 1.241 . S
O278 Co266 2.137 . S
O278 C269 1.247 . S
O279 Co266 2.244 . S
O279 C269 1.272 . S
O279 Co271 2.135 . S
Co280 O281 2.216 . S
Co280 O282 2.091 . S
Co280 O284 2.004 . S
Co280 O290 2.021 . S
Co280 O292 2.137 . S
Co280 O293 2.244 . S
O281 Co280 2.216 . S
O281 C288 1.247 . S
O282 Co280 2.091 . S
O282 C288 1.261 . S
C283 O292 1.247 . S
C283 O293 1.272 . S
O284 Co280 2.004 . S
O284 C289 1.259 . S
Co285 O286 2.061 . S
Co285 O291 2.052 . S
Co285 O293 2.135 . S
O286 Co285 2.061 . S
O286 C289 1.235 . S
C287 O290 1.238 . S
C287 O291 1.241 . S
C288 O281 1.247 . S
C288 O282 1.261 . S
C289 O284 1.259 . S
C289 O286 1.235 . S
O290 Co280 2.021 . S
O290 C287 1.238 . S
O291 Co285 2.052 . S
O291 C287 1.241 . S
O292 Co280 2.137 . S
O292 C283 1.247 . S
O293 Co280 2.244 . S
O293 C283 1.272 . S
O293 Co285 2.135 . S
Co294 O295 2.216 . S
Co294 O296 2.091 . S
Co294 O298 2.004 . S
Co294 O304 2.021 . S
Co294 O306 2.137 . S
Co294 O307 2.244 . S
O295 Co294 2.216 . S
O295 C302 1.247 . S
O296 Co294 2.091 . S
O296 C302 1.261 . S
C297 O306 1.247 . S
C297 O307 1.272 . S
O298 Co294 2.004 . S
O298 C303 1.259 . S
Co299 O300 2.061 . S
Co299 O305 2.052 . S
Co299 O307 2.135 . S
O300 Co299 2.061 . S
O300 C303 1.235 . S
C301 O304 1.238 . S
C301 O305 1.241 . S
C302 O295 1.247 . S
C302 O296 1.261 . S
C303 O298 1.259 . S
C303 O300 1.235 . S
O304 Co294 2.021 . S
O304 C301 1.238 . S
O305 Co299 2.052 . S
O305 C301 1.241 . S
O306 Co294 2.137 . S
O306 C297 1.247 . S
O307 Co294 2.244 . S
O307 C297 1.272 . S
O307 Co299 2.135 . S
Co308 O309 2.216 . S
Co308 O310 2.091 . S
Co308 O312 2.004 . S
Co308 O318 2.021 . S
Co308 O320 2.137 . S
Co308 O321 2.244 . S
O309 Co308 2.216 . S
O309 C316 1.247 . S
O310 Co308 2.091 . S
O310 C316 1.261 . S
C311 O320 1.247 . S
C311 O321 1.272 . S
O312 Co308 2.004 . S
O312 C317 1.259 . S
Co313 O314 2.061 . S
Co313 O319 2.052 . S
Co313 O321 2.135 . S
O314 Co313 2.061 . S
O314 C317 1.235 . S
C315 O318 1.238 . S
C315 O319 1.241 . S
C316 O309 1.247 . S
C316 O310 1.261 . S
C317 O312 1.259 . S
C317 O314 1.235 . S
O318 Co308 2.021 . S
O318 C315 1.238 . S
O319 Co313 2.052 . S
O319 C315 1.241 . S
O320 Co308 2.137 . S
O320 C311 1.247 . S
O321 Co308 2.244 . S
O321 C311 1.272 . S
O321 Co313 2.135 . S
Co322 O323 2.216 . S
Co322 O324 2.091 . S
Co322 O326 2.004 . S
Co322 O332 2.021 . S
Co322 O334 2.137 . S
Co322 O335 2.244 . S
O323 Co322 2.216 . S
O323 C330 1.247 . S
O324 Co322 2.091 . S
O324 C330 1.261 . S
C325 O334 1.247 . S
C325 O335 1.272 . S
O326 Co322 2.004 . S
O326 C331 1.259 . S
Co327 O328 2.061 . S
Co327 O333 2.052 . S
Co327 O335 2.135 . S
O328 Co327 2.061 . S
O328 C331 1.235 . S
C329 O332 1.238 . S
C329 O333 1.241 . S
C330 O323 1.247 . S
C330 O324 1.261 . S
C331 O326 1.259 . S
C331 O328 1.235 . S
O332 Co322 2.021 . S
O332 C329 1.238 . S
O333 Co327 2.052 . S
O333 C329 1.241 . S
O334 Co322 2.137 . S
O334 C325 1.247 . S
O335 Co322 2.244 . S
O335 C325 1.272 . S
O335 Co327 2.135 . S
C336 C337 1.391 . S
C336 C338 1.394 . S
C336 H352 0.931 . S
C337 C336 1.391 . S
C337 C341 1.376 . S
C338 C336 1.394 . S
C338 C339 1.369 . S
C338 C342 1.531 . S
C339 C338 1.369 . S
C339 C340 1.410 . S
C339 C347 1.503 . S
C340 C339 1.410 . S
C340 C341 1.392 . S
C340 C343 1.511 . S
C341 C337 1.376 . S
C341 C340 1.392 . S
C341 H353 0.929 . S
C342 C338 1.531 . S
C342 H354 0.960 . S
C342 H355 0.962 . S
C342 H356 0.960 . S
C343 C340 1.511 . S
C343 H357 0.961 . S
C343 H358 0.961 . S
C343 H359 0.961 . S
C344 C345 1.370 . S
C344 C346 1.363 . S
C344 H360 0.931 . S
C345 C344 1.370 . S
C345 C349 1.408 . S
C346 C344 1.363 . S
C346 C347 1.370 . S
C346 C350 1.524 . S
C347 C339 1.503 . S
C347 C346 1.370 . S
C347 C348 1.403 . S
C348 C347 1.403 . S
C348 C349 1.404 . S
C348 C351 1.539 . S
C349 C345 1.408 . S
C349 C348 1.404 . S
C349 H361 0.930 . S
C350 C346 1.524 . S
C350 H362 0.956 . S
C350 H363 0.961 . S
C350 H364 0.961 . S
C351 C348 1.539 . S
C351 H365 0.958 . S
C351 H366 0.961 . S
C351 H367 0.960 . S
H352 C336 0.931 . S
H353 C341 0.929 . S
H354 C342 0.960 . S
H355 C342 0.962 . S
H356 C342 0.960 . S
H357 C343 0.961 . S
H358 C343 0.961 . S
H359 C343 0.961 . S
H360 C344 0.931 . S
H361 C349 0.930 . S
H362 C350 0.956 . S
H363 C350 0.961 . S
H364 C350 0.961 . S
H365 C351 0.958 . S
H366 C351 0.961 . S
H367 C351 0.960 . S
C368 C369 1.391 . S
C368 C370 1.394 . S
C368 H384 0.931 . S
C369 C368 1.391 . S
C369 C373 1.376 1_655 S
C370 C368 1.394 . S
C370 C371 1.369 1_655 S
C370 C374 1.531 . S
C371 C370 1.369 1_455 S
C371 C372 1.410 . S
C371 C379 1.503 . S
C372 C371 1.410 . S
C372 C373 1.392 . S
C372 C375 1.511 . S
C373 C369 1.376 1_455 S
C373 C372 1.392 . S
C373 H385 0.929 . S
C374 C370 1.531 . S
C374 H386 0.960 . S
C374 H387 0.962 . S
C374 H388 0.960 . S
C375 C372 1.511 . S
C375 H389 0.961 . S
C375 H390 0.961 . S
C375 H391 0.961 . S
C376 C377 1.370 . S
C376 C378 1.363 . S
C376 H392 0.931 . S
C377 C376 1.370 . S
C377 C381 1.408 . S
C378 C376 1.363 . S
C378 C379 1.370 . S
C378 C382 1.524 . S
C379 C371 1.503 . S
C379 C378 1.370 . S
C379 C380 1.403 . S
C380 C379 1.403 . S
C380 C381 1.404 . S
C380 C383 1.539 . S
C381 C377 1.408 . S
C381 C380 1.404 . S
C381 H393 0.930 . S
C382 C378 1.524 . S
C382 H394 0.956 . S
C382 H395 0.961 . S
C382 H396 0.961 . S
C383 C380 1.539 . S
C383 H397 0.958 . S
C383 H398 0.961 . S
C383 H399 0.960 . S
H384 C368 0.931 . S
H385 C373 0.929 . S
H386 C374 0.960 . S
H387 C374 0.962 . S
H388 C374 0.960 . S
H389 C375 0.961 . S
H390 C375 0.961 . S
H391 C375 0.961 . S
H392 C376 0.931 . S
H393 C381 0.930 . S
H394 C382 0.956 . S
H395 C382 0.961 . S
H396 C382 0.961 . S
H397 C383 0.958 . S
H398 C383 0.961 . S
H399 C383 0.960 . S
C400 C401 1.391 . S
C400 C402 1.394 . S
C400 H416 0.931 . S
C401 C400 1.391 . S
C401 C405 1.376 . S
C402 C400 1.394 . S
C402 C403 1.369 . S
C402 C406 1.531 . S
C403 C402 1.369 . S
C403 C404 1.410 . S
C403 C411 1.503 . S
C404 C403 1.410 . S
C404 C405 1.392 . S
C404 C407 1.511 . S
C405 C401 1.376 . S
C405 C404 1.392 . S
C405 H417 0.929 . S
C406 C402 1.531 . S
C406 H418 0.960 . S
C406 H419 0.962 . S
C406 H420 0.960 . S
C407 C404 1.511 . S
C407 H421 0.961 . S
C407 H422 0.961 . S
C407 H423 0.961 1_556 S
C408 C409 1.370 1_556 S
C408 C410 1.363 . S
C408 H424 0.931 . S
C409 C408 1.370 1_554 S
C409 C413 1.408 . S
C410 C408 1.363 . S
C410 C411 1.370 . S
C410 C414 1.524 . S
C411 C403 1.503 . S
C411 C410 1.370 . S
C411 C412 1.403 1_556 S
C412 C411 1.403 1_554 S
C412 C413 1.404 . S
C412 C415 1.539 . S
C413 C409 1.408 . S
C413 C412 1.404 . S
C413 H425 0.930 . S
C414 C410 1.524 . S
C414 H426 0.956 . S
C414 H427 0.961 . S
C414 H428 0.961 . S
C415 C412 1.539 . S
C415 H429 0.958 . S
C415 H430 0.961 . S
C415 H431 0.960 . S
H416 C400 0.931 . S
H417 C405 0.929 . S
H418 C406 0.960 . S
H419 C406 0.962 . S
H420 C406 0.960 . S
H421 C407 0.961 . S
H422 C407 0.961 . S
H423 C407 0.961 1_554 S
H424 C408 0.931 . S
H425 C413 0.930 . S
H426 C414 0.956 . S
H427 C414 0.961 . S
H428 C414 0.961 . S
H429 C415 0.958 . S
H430 C415 0.961 . S
H431 C415 0.960 . S
C432 C433 1.391 . S
C432 C434 1.394 . S
C432 H448 0.931 . S
C433 C432 1.391 . S
C433 C437 1.376 . S
C434 C432 1.394 . S
C434 C435 1.369 . S
C434 C438 1.531 . S
C435 C434 1.369 . S
C435 C436 1.410 . S
C435 C443 1.503 . S
C436 C435 1.410 . S
C436 C437 1.392 . S
C436 C439 1.511 . S
C437 C433 1.376 . S
C437 C436 1.392 . S
C437 H449 0.929 . S
C438 C434 1.531 . S
C438 H450 0.960 . S
C438 H451 0.962 . S
C438 H452 0.960 . S
C439 C436 1.511 . S
C439 H453 0.961 . S
C439 H454 0.961 . S
C439 H455 0.961 . S
C440 C441 1.370 . S
C440 C442 1.363 . S
C440 H456 0.931 . S
C441 C440 1.370 . S
C441 C445 1.408 . S
C442 C440 1.363 . S
C442 C443 1.370 . S
C442 C446 1.524 . S
C443 C435 1.503 . S
C443 C442 1.370 . S
C443 C444 1.403 . S
C444 C443 1.403 . S
C444 C445 1.404 . S
C444 C447 1.539 . S
C445 C441 1.408 . S
C445 C444 1.404 . S
C445 H457 0.930 . S
C446 C442 1.524 . S
C446 H458 0.956 . S
C446 H459 0.961 . S
C446 H460 0.961 . S
C447 C444 1.539 . S
C447 H461 0.958 . S
C447 H462 0.961 . S
C447 H463 0.960 . S
H448 C432 0.931 . S
H449 C437 0.929 . S
H450 C438 0.960 . S
H451 C438 0.962 . S
H452 C438 0.960 . S
H453 C439 0.961 . S
H454 C439 0.961 . S
H455 C439 0.961 . S
H456 C440 0.931 . S
H457 C445 0.930 . S
H458 C446 0.956 . S
H459 C446 0.961 . S
H460 C446 0.961 . S
H461 C447 0.958 . S
H462 C447 0.961 . S
H463 C447 0.960 . S
C464 C465 1.391 . S
C464 C466 1.394 . S
C464 H480 0.931 . S
C465 C464 1.391 . S
C465 C469 1.376 . S
C466 C464 1.394 . S
C466 C467 1.369 . S
C466 C470 1.531 . S
C467 C466 1.369 . S
C467 C468 1.410 . S
C467 C475 1.503 . S
C468 C467 1.410 . S
C468 C469 1.392 . S
C468 C471 1.511 . S
C469 C465 1.376 . S
C469 C468 1.392 . S
C469 H481 0.929 . S
C470 C466 1.531 . S
C470 H482 0.960 . S
C470 H483 0.962 . S
C470 H484 0.960 . S
C471 C468 1.511 . S
C471 H485 0.961 . S
C471 H486 0.961 . S
C471 H487 0.961 . S
C472 C473 1.370 . S
C472 C474 1.363 . S
C472 H488 0.931 . S
C473 C472 1.370 . S
C473 C477 1.408 . S
C474 C472 1.363 . S
C474 C475 1.370 . S
C474 C478 1.524 . S
C475 C467 1.503 . S
C475 C474 1.370 . S
C475 C476 1.403 . S
C476 C475 1.403 . S
C476 C477 1.404 . S
C476 C479 1.539 . S
C477 C473 1.408 . S
C477 C476 1.404 . S
C477 H489 0.930 . S
C478 C474 1.524 . S
C478 H490 0.956 . S
C478 H491 0.961 . S
C478 H492 0.961 . S
C479 C476 1.539 . S
C479 H493 0.958 . S
C479 H494 0.961 . S
C479 H495 0.960 . S
H480 C464 0.931 . S
H481 C469 0.929 . S
H482 C470 0.960 . S
H483 C470 0.962 . S
H484 C470 0.960 . S
H485 C471 0.961 . S
H486 C471 0.961 . S
H487 C471 0.961 . S
H488 C472 0.931 . S
H489 C477 0.930 . S
H490 C478 0.956 . S
H491 C478 0.961 . S
H492 C478 0.961 . S
H493 C479 0.958 . S
H494 C479 0.961 . S
H495 C479 0.960 . S
C496 C497 1.391 . S
C496 C498 1.394 . S
C496 H512 0.931 . S
C497 C496 1.391 . S
C497 C501 1.376 . S
C498 C496 1.394 . S
C498 C499 1.369 . S
C498 C502 1.531 . S
C499 C498 1.369 . S
C499 C500 1.410 . S
C499 C507 1.503 . S
C500 C499 1.410 . S
C500 C501 1.392 . S
C500 C503 1.511 . S
C501 C497 1.376 . S
C501 C500 1.392 . S
C501 H513 0.929 . S
C502 C498 1.531 . S
C502 H514 0.960 . S
C502 H515 0.962 . S
C502 H516 0.960 . S
C503 C500 1.511 . S
C503 H517 0.961 . S
C503 H518 0.961 . S
C503 H519 0.961 . S
C504 C505 1.370 1_655 S
C504 C506 1.363 . S
C504 H520 0.931 . S
C505 C504 1.370 1_455 S
C505 C509 1.408 . S
C506 C504 1.363 . S
C506 C507 1.370 . S
C506 C510 1.524 . S
C507 C499 1.503 . S
C507 C506 1.370 . S
C507 C508 1.403 1_655 S
C508 C507 1.403 1_455 S
C508 C509 1.404 . S
C508 C511 1.539 . S
C509 C505 1.408 . S
C509 C508 1.404 . S
C509 H521 0.930 . S
C510 C506 1.524 . S
C510 H522 0.956 . S
C510 H523 0.961 . S
C510 H524 0.961 . S
C511 C508 1.539 . S
C511 H525 0.958 . S
C511 H526 0.961 . S
C511 H527 0.960 . S
H512 C496 0.931 . S
H513 C501 0.929 . S
H514 C502 0.960 . S
H515 C502 0.962 . S
H516 C502 0.960 . S
H517 C503 0.961 . S
H518 C503 0.961 . S
H519 C503 0.961 . S
H520 C504 0.931 . S
H521 C509 0.930 . S
H522 C510 0.956 . S
H523 C510 0.961 . S
H524 C510 0.961 . S
H525 C511 0.958 . S
H526 C511 0.961 . S
H527 C511 0.960 . S
C528 C529 1.391 . S
C528 C530 1.394 . S
C528 H544 0.931 . S
C529 C528 1.391 . S
C529 C533 1.376 . S
C530 C528 1.394 . S
C530 C531 1.369 . S
C530 C534 1.557 . S
C531 C530 1.369 . S
C531 C532 1.410 . S
C531 C539 1.503 . S
C532 C531 1.410 . S
C532 C533 1.392 . S
C532 C535 1.511 . S
C533 C529 1.376 . S
C533 C532 1.392 . S
C533 H545 0.929 . S
C534 C530 1.557 . S
C534 H546 0.944 1_554 S
C534 H547 0.958 1_554 S
C534 H548 0.955 1_554 S
C535 C532 1.511 . S
C535 H549 0.961 . S
C535 H550 0.961 . S
C535 H551 0.961 . S
C536 C537 1.370 . S
C536 C538 1.363 1_556 S
C536 H552 0.931 . S
C537 C536 1.370 . S
C537 C541 1.408 . S
C538 C536 1.363 1_554 S
C538 C539 1.370 . S
C538 C542 1.524 . S
C539 C531 1.503 . S
C539 C538 1.370 . S
C539 C540 1.403 . S
C540 C539 1.403 . S
C540 C541 1.404 1_554 S
C540 C543 1.539 . S
C541 C537 1.408 . S
C541 C540 1.404 1_556 S
C541 H553 0.930 . S
C542 C538 1.524 . S
C542 H554 0.956 . S
C542 H555 0.961 . S
C542 H556 0.961 . S
C543 C540 1.539 . S
C543 H557 0.958 1_554 S
C543 H558 0.961 . S
C543 H559 0.960 . S
H544 C528 0.931 . S
H545 C533 0.929 . S
H546 C534 0.944 1_556 S
H547 C534 0.958 1_556 S
H548 C534 0.955 1_556 S
H549 C535 0.961 . S
H550 C535 0.961 . S
H551 C535 0.961 . S
H552 C536 0.931 . S
H553 C541 0.930 . S
H554 C542 0.956 . S
H555 C542 0.961 . S
H556 C542 0.961 . S
H557 C543 0.958 1_556 S
H558 C543 0.961 . S
H559 C543 0.960 . S
C560 C561 1.391 . S
C560 C562 1.394 . S
C560 H576 0.931 . S
C561 C560 1.391 . S
C561 C565 1.376 . S
C562 C560 1.394 . S
C562 C563 1.369 . S
C562 C566 1.531 . S
C563 C562 1.369 . S
C563 C564 1.410 . S
C563 C571 1.503 . S
C564 C563 1.410 . S
C564 C565 1.392 . S
C564 C567 1.511 . S
C565 C561 1.376 . S
C565 C564 1.392 . S
C565 H577 0.929 . S
C566 C562 1.531 . S
C566 H578 0.960 . S
C566 H579 0.962 . S
C566 H580 0.960 . S
C567 C564 1.511 . S
C567 H581 0.961 . S
C567 H582 0.961 . S
C567 H583 0.961 . S
C568 C569 1.370 . S
C568 C570 1.363 . S
C568 H584 0.931 . S
C569 C568 1.370 . S
C569 C573 1.408 . S
C570 C568 1.363 . S
C570 C571 1.370 . S
C570 C574 1.524 . S
C571 C563 1.503 . S
C571 C570 1.370 . S
C571 C572 1.403 . S
C572 C571 1.403 . S
C572 C573 1.404 . S
C572 C575 1.539 . S
C573 C569 1.408 . S
C573 C572 1.404 . S
C573 H585 0.930 . S
C574 C570 1.524 . S
C574 H586 0.956 . S
C574 H587 0.961 . S
C574 H588 0.961 . S
C575 C572 1.539 . S
C575 H589 0.958 . S
C575 H590 0.961 . S
C575 H591 0.960 . S
H576 C560 0.931 . S
H577 C565 0.929 . S
H578 C566 0.960 . S
H579 C566 0.962 . S
H580 C566 0.960 . S
H581 C567 0.961 . S
H582 C567 0.961 . S
H583 C567 0.961 . S
H584 C568 0.931 . S
H585 C573 0.930 . S
H586 C574 0.956 . S
H587 C574 0.961 . S
H588 C574 0.961 . S
H589 C575 0.958 . S
H590 C575 0.961 . S
H591 C575 0.960 . S
C592 C593 1.391 . S
C592 C594 1.394 . S
C592 H608 0.931 . S
C593 C592 1.391 . S
C593 C597 1.376 . S
C594 C592 1.394 . S
C594 C595 1.369 . S
C594 C598 1.531 . S
C595 C594 1.369 . S
C595 C596 1.410 . S
C595 C603 1.503 . S
C596 C595 1.410 . S
C596 C597 1.392 . S
C596 C599 1.511 . S
C597 C593 1.376 . S
C597 C596 1.392 . S
C597 H609 0.929 . S
C598 C594 1.531 . S
C598 H610 0.960 . S
C598 H611 0.962 . S
C598 H612 0.960 . S
C599 C596 1.511 . S
C599 H613 0.961 . S
C599 H614 0.961 . S
C599 H615 0.961 . S
C600 C601 1.370 . S
C600 C602 1.363 . S
C600 H616 0.931 . S
C601 C600 1.370 . S
C601 C605 1.408 . S
C602 C600 1.363 . S
C602 C603 1.370 . S
C602 C606 1.524 . S
C603 C595 1.503 . S
C603 C602 1.370 . S
C603 C604 1.403 . S
C604 C603 1.403 . S
C604 C605 1.404 . S
C604 C607 1.539 . S
C605 C601 1.408 . S
C605 C604 1.404 . S
C605 H617 0.930 . S
C606 C602 1.524 . S
C606 H618 0.956 . S
C606 H619 0.961 . S
C606 H620 0.961 . S
C607 C604 1.539 . S
C607 H621 0.958 . S
C607 H622 0.961 . S
C607 H623 0.960 . S
H608 C592 0.931 . S
H609 C597 0.929 . S
H610 C598 0.960 . S
H611 C598 0.962 . S
H612 C598 0.960 . S
H613 C599 0.961 . S
H614 C599 0.961 . S
H615 C599 0.961 . S
H616 C600 0.931 . S
H617 C605 0.930 . S
H618 C606 0.956 . S
H619 C606 0.961 . S
H620 C606 0.961 . S
H621 C607 0.958 . S
H622 C607 0.961 . S
H623 C607 0.960 . S
C624 C625 1.391 . S
C624 C626 1.394 . S
C624 H640 0.931 . S
C625 C624 1.391 . S
C625 C629 1.376 1_565 S
C626 C624 1.394 . S
C626 C627 1.369 1_565 S
C626 C630 1.531 . S
C627 C626 1.369 1_545 S
C627 C628 1.410 . S
C627 C635 1.503 . S
C628 C627 1.410 . S
C628 C629 1.392 . S
C628 C631 1.511 . S
C629 C625 1.376 1_545 S
C629 C628 1.392 . S
C629 H641 0.929 . S
C630 C626 1.531 . S
C630 H642 0.960 . S
C630 H643 0.962 . S
C630 H644 0.960 . S
C631 C628 1.511 . S
C631 H645 0.961 . S
C631 H646 0.961 . S
C631 H647 0.961 . S
C632 C633 1.370 . S
C632 C634 1.363 . S
C632 H648 0.931 . S
C633 C632 1.370 . S
C633 C637 1.408 . S
C634 C632 1.363 . S
C634 C635 1.370 . S
C634 C638 1.524 . S
C635 C627 1.503 . S
C635 C634 1.370 . S
C635 C636 1.403 . S
C636 C635 1.403 . S
C636 C637 1.404 . S
C636 C639 1.539 . S
C637 C633 1.408 . S
C637 C636 1.404 . S
C637 H649 0.930 . S
C638 C634 1.524 . S
C638 H650 0.956 . S
C638 H651 0.961 . S
C638 H652 0.961 . S
C639 C636 1.539 . S
C639 H653 0.958 . S
C639 H654 0.961 . S
C639 H655 0.960 . S
H640 C624 0.931 . S
H641 C629 0.929 . S
H642 C630 0.960 . S
H643 C630 0.962 . S
H644 C630 0.960 . S
H645 C631 0.961 . S
H646 C631 0.961 . S
H647 C631 0.961 . S
H648 C632 0.931 . S
H649 C637 0.930 . S
H650 C638 0.956 . S
H651 C638 0.961 . S
H652 C638 0.961 . S
H653 C639 0.958 . S
H654 C639 0.961 . S
H655 C639 0.960 . S
C656 C657 1.391 . S
C656 C658 1.394 . S
C656 H672 0.931 . S
C657 C656 1.391 . S
C657 C661 1.376 . S
C658 C656 1.394 . S
C658 C659 1.369 . S
C658 C662 1.531 . S
C659 C658 1.369 . S
C659 C660 1.410 . S
C659 C667 1.503 . S
C660 C659 1.410 . S
C660 C661 1.392 . S
C660 C663 1.511 . S
C661 C657 1.376 . S
C661 C660 1.392 . S
C661 H673 0.929 . S
C662 C658 1.531 . S
C662 H674 0.960 . S
C662 H675 0.962 . S
C662 H676 0.960 . S
C663 C660 1.511 . S
C663 H677 0.961 . S
C663 H678 0.961 1_565 S
C663 H679 0.961 1_565 S
C664 C665 1.370 1_565 S
C664 C666 1.363 . S
C664 H680 0.931 . S
C665 C664 1.370 1_545 S
C665 C669 1.408 . S
C666 C664 1.363 . S
C666 C667 1.370 . S
C666 C670 1.524 . S
C667 C659 1.503 . S
C667 C666 1.370 . S
C667 C668 1.403 1_565 S
C668 C667 1.403 1_545 S
C668 C669 1.404 . S
C668 C671 1.539 . S
C669 C665 1.408 . S
C669 C668 1.404 . S
C669 H681 0.930 . S
C670 C666 1.524 . S
C670 H682 0.956 . S
C670 H683 0.961 . S
C670 H684 0.961 . S
C671 C668 1.539 . S
C671 H685 0.958 1_545 S
C671 H686 0.961 . S
C671 H687 0.946 1_545 S
H672 C656 0.931 . S
H673 C661 0.929 . S
H674 C662 0.960 . S
H675 C662 0.962 . S
H676 C662 0.960 . S
H677 C663 0.961 . S
H678 C663 0.961 1_545 S
H679 C663 0.961 1_545 S
H680 C664 0.931 . S
H681 C669 0.930 . S
H682 C670 0.956 . S
H683 C670 0.961 . S
H684 C670 0.961 . S
H685 C671 0.958 1_565 S
H686 C671 0.961 . S
H687 C671 0.946 1_565 S
C688 C689 1.391 . S
C688 C690 1.394 . S
C688 H704 0.931 . S
C689 C688 1.391 . S
C689 C693 1.376 . S
C690 C688 1.394 . S
C690 C691 1.369 . S
C690 C694 1.531 . S
C691 C690 1.369 . S
C691 C692 1.410 . S
C691 C699 1.503 . S
C692 C691 1.410 . S
C692 C693 1.392 . S
C692 C695 1.511 . S
C693 C689 1.376 . S
C693 C692 1.392 . S
C693 H705 0.929 . S
C694 C690 1.531 . S
C694 H706 0.960 . S
C694 H707 0.962 . S
C694 H708 0.960 . S
C695 C692 1.511 . S
C695 H709 0.961 . S
C695 H710 0.961 . S
C695 H711 0.961 . S
C696 C697 1.370 . S
C696 C698 1.363 . S
C696 H712 0.931 . S
C697 C696 1.370 . S
C697 C701 1.408 . S
C698 C696 1.363 . S
C698 C699 1.370 . S
C698 C702 1.524 . S
C699 C691 1.503 . S
C699 C698 1.370 . S
C699 C700 1.403 . S
C700 C699 1.403 . S
C700 C701 1.404 . S
C700 C703 1.539 . S
C701 C697 1.408 . S
C701 C700 1.404 . S
C701 H713 0.930 . S
C702 C698 1.524 . S
C702 H714 0.956 . S
C702 H715 0.961 . S
C702 H716 0.961 . S
C703 C700 1.539 . S
C703 H717 0.958 . S
C703 H718 0.961 . S
C703 H719 0.960 . S
H704 C688 0.931 . S
H705 C693 0.929 . S
H706 C694 0.960 . S
H707 C694 0.962 . S
H708 C694 0.960 . S
H709 C695 0.961 . S
H710 C695 0.961 . S
H711 C695 0.961 . S
H712 C696 0.931 . S
H713 C701 0.930 . S
H714 C702 0.956 . S
H715 C702 0.961 . S
H716 C702 0.961 . S
H717 C703 0.958 . S
H718 C703 0.961 . S
H719 C703 0.960 . S
C720 C721 1.391 . S
C720 C722 1.394 . S
C720 H736 0.931 . S
C721 C720 1.391 . S
C721 C725 1.376 . S
C722 C720 1.394 . S
C722 C723 1.369 . S
C722 C726 1.531 . S
C723 C722 1.369 . S
C723 C724 1.410 . S
C723 C731 1.503 . S
C724 C723 1.410 . S
C724 C725 1.392 . S
C724 C727 1.511 . S
C725 C721 1.376 . S
C725 C724 1.392 . S
C725 H737 0.929 . S
C726 C722 1.531 . S
C726 H738 0.960 . S
C726 H739 0.962 . S
C726 H740 0.960 . S
C727 C724 1.511 . S
C727 H741 0.961 . S
C727 H742 0.961 . S
C727 H743 0.961 . S
C728 C729 1.370 . S
C728 C730 1.363 . S
C728 H744 0.931 . S
C729 C728 1.370 . S
C729 C733 1.408 . S
C730 C728 1.363 . S
C730 C731 1.370 . S
C730 C734 1.524 . S
C731 C723 1.503 . S
C731 C730 1.370 . S
C731 C732 1.403 . S
C732 C731 1.403 . S
C732 C733 1.404 . S
C732 C735 1.539 . S
C733 C729 1.408 . S
C733 C732 1.404 . S
C733 H745 0.930 . S
C734 C730 1.524 . S
C734 H746 0.956 . S
C734 H747 0.961 . S
C734 H748 0.961 . S
C735 C732 1.539 . S
C735 H749 0.958 . S
C735 H750 0.961 . S
C735 H751 0.960 . S
H736 C720 0.931 . S
H737 C725 0.929 . S
H738 C726 0.960 . S
H739 C726 0.962 . S
H740 C726 0.960 . S
H741 C727 0.961 . S
H742 C727 0.961 . S
H743 C727 0.961 . S
H744 C728 0.931 . S
H745 C733 0.930 . S
H746 C734 0.956 . S
H747 C734 0.961 . S
H748 C734 0.961 . S
H749 C735 0.958 . S
H750 C735 0.961 . S
H751 C735 0.960 . S
C752 C753 1.391 . S
C752 C754 1.394 . S
C752 H768 0.931 . S
C753 C752 1.391 . S
C753 C757 1.376 . S
C754 C752 1.394 . S
C754 C755 1.396 . S
C754 C758 1.531 . S
C755 C754 1.396 . S
C755 C756 1.409 . S
C755 C763 1.474 1_565 S
C756 C755 1.409 . S
C756 C757 1.401 . S
C756 C759 1.502 1_565 S
C757 C753 1.376 . S
C757 C756 1.401 . S
C757 H769 0.929 . S
C758 C754 1.531 . S
C758 H770 0.960 . S
C758 H771 0.962 . S
C758 H772 0.960 . S
C759 C756 1.502 1_545 S
C759 H773 0.961 . S
C759 H774 0.961 . S
C759 H775 0.961 . S
C760 C761 1.370 . S
C760 C762 1.363 . S
C760 H776 0.931 . S
C761 C760 1.370 . S
C761 C765 1.408 . S
C762 C760 1.363 . S
C762 C763 1.370 . S
C762 C766 1.524 . S
C763 C755 1.474 1_545 S
C763 C762 1.370 . S
C763 C764 1.403 . S
C764 C763 1.403 . S
C764 C765 1.404 . S
C764 C767 1.539 1_545 S
C765 C761 1.408 . S
C765 C764 1.404 . S
C765 H777 0.930 . S
C766 C762 1.524 . S
C766 H778 0.956 . S
C766 H779 0.961 . S
C766 H780 0.961 . S
C767 C764 1.539 1_565 S
C767 H781 0.958 . S
C767 H782 0.961 . S
C767 H783 0.960 . S
H768 C752 0.931 . S
H769 C757 0.929 . S
H770 C758 0.960 . S
H771 C758 0.962 . S
H772 C758 0.960 . S
H773 C759 0.961 . S
H774 C759 0.961 . S
H775 C759 0.961 . S
H776 C760 0.931 . S
H777 C765 0.930 . S
H778 C766 0.956 . S
H779 C766 0.961 . S
H780 C766 0.961 . S
H781 C767 0.958 . S
H782 C767 0.961 . S
H783 C767 0.960 . S
C784 C785 1.391 . S
C784 C786 1.394 . S
C784 H800 0.931 . S
C785 C784 1.391 . S
C785 C789 1.376 . S
C786 C784 1.394 . S
C786 C787 1.369 . S
C786 C790 1.531 1_556 S
C787 C786 1.369 . S
C787 C788 1.410 . S
C787 C795 1.503 . S
C788 C787 1.410 . S
C788 C789 1.392 . S
C788 C791 1.511 . S
C789 C785 1.376 . S
C789 C788 1.392 . S
C789 H801 0.929 . S
C790 C786 1.531 1_554 S
C790 H802 0.960 . S
C790 H803 0.962 . S
C790 H804 0.960 . S
C791 C788 1.511 . S
C791 H805 0.961 . S
C791 H806 0.961 . S
C791 H807 0.961 . S
C792 C793 1.370 . S
C792 C794 1.363 . S
C792 H808 0.931 . S
C793 C792 1.370 . S
C793 C797 1.408 . S
C794 C792 1.363 . S
C794 C795 1.370 1_554 S
C794 C798 1.524 1_554 S
C795 C787 1.503 . S
C795 C794 1.370 1_556 S
C795 C796 1.403 1_556 S
C796 C795 1.403 1_554 S
C796 C797 1.404 . S
C796 C799 1.539 . S
C797 C793 1.408 . S
C797 C796 1.404 . S
C797 H809 0.930 . S
C798 C794 1.524 1_556 S
C798 H810 0.956 . S
C798 H811 0.961 . S
C798 H812 0.961 . S
C799 C796 1.539 . S
C799 H813 0.958 . S
C799 H814 0.961 . S
C799 H815 0.960 1_554 S
H800 C784 0.931 . S
H801 C789 0.929 . S
H802 C790 0.960 . S
H803 C790 0.962 . S
H804 C790 0.960 . S
H805 C791 0.961 . S
H806 C791 0.961 . S
H807 C791 0.961 . S
H808 C792 0.931 . S
H809 C797 0.930 . S
H810 C798 0.956 . S
H811 C798 0.961 . S
H812 C798 0.961 . S
H813 C799 0.958 . S
H814 C799 0.961 . S
H815 C799 0.960 1_556 S
C816 C817 1.391 . S
C816 C818 1.394 . S
C816 H832 0.931 . S
C817 C816 1.391 . S
C817 C821 1.376 . S
C818 C816 1.394 . S
C818 C819 1.389 . S
C818 C822 1.531 . S
C819 C818 1.389 . S
C819 C820 1.407 1_545 S
C819 C827 1.484 1_545 S
C820 C819 1.407 1_565 S
C820 C821 1.392 1_565 S
C820 C823 1.511 . S
C821 C817 1.376 . S
C821 C820 1.392 1_545 S
C821 H833 0.929 . S
C822 C818 1.531 . S
C822 H834 0.960 . S
C822 H835 0.962 . S
C822 H836 0.960 . S
C823 C820 1.511 . S
C823 H837 0.961 . S
C823 H838 0.961 . S
C823 H839 0.961 . S
C824 C825 1.370 . S
C824 C826 1.363 . S
C824 H840 0.931 . S
C825 C824 1.370 . S
C825 C829 1.408 . S
C826 C824 1.363 . S
C826 C827 1.370 . S
C826 C830 1.524 . S
C827 C819 1.484 1_565 S
C827 C826 1.370 . S
C827 C828 1.403 . S
C828 C827 1.403 . S
C828 C829 1.404 . S
C828 C831 1.539 1_565 S
C829 C825 1.408 . S
C829 C828 1.404 . S
C829 H841 0.930 . S
C830 C826 1.524 . S
C830 H842 0.956 . S
C830 H843 0.961 . S
C830 H844 0.961 . S
C831 C828 1.539 1_545 S
C831 H845 0.958 . S
C831 H846 0.961 . S
C831 H847 0.960 . S
H832 C816 0.931 . S
H833 C821 0.929 . S
H834 C822 0.960 . S
H835 C822 0.962 . S
H836 C822 0.960 . S
H837 C823 0.961 . S
H838 C823 0.961 . S
H839 C823 0.961 . S
H840 C824 0.931 . S
H841 C829 0.930 . S
H842 C830 0.956 . S
H843 C830 0.961 . S
H844 C830 0.961 . S
H845 C831 0.958 . S
H846 C831 0.961 . S
H847 C831 0.960 . S
C848 C849 1.391 . S
C848 C850 1.394 . S
C848 H864 0.931 . S
C849 C848 1.391 . S
C849 C853 1.376 . S
C850 C848 1.394 . S
C850 C851 1.369 . S
C850 C854 1.531 . S
C851 C850 1.369 . S
C851 C852 1.410 . S
C851 C859 1.503 . S
C852 C851 1.410 . S
C852 C853 1.392 . S
C852 C855 1.511 . S
C853 C849 1.376 . S
C853 C852 1.392 . S
C853 H865 0.929 . S
C854 C850 1.531 . S
C854 H866 0.960 . S
C854 H867 0.962 . S
C854 H868 0.960 . S
C855 C852 1.511 . S
C855 H869 0.961 . S
C855 H870 0.961 . S
C855 H871 0.961 . S
C856 C857 1.370 . S
C856 C858 1.363 . S
C856 H872 0.931 . S
C857 C856 1.370 . S
C857 C861 1.408 . S
C858 C856 1.363 . S
C858 C859 1.370 . S
C858 C862 1.524 . S
C859 C851 1.503 . S
C859 C858 1.370 . S
C859 C860 1.403 . S
C860 C859 1.403 . S
C860 C861 1.404 . S
C860 C863 1.539 . S
C861 C857 1.408 . S
C861 C860 1.404 . S
C861 H873 0.930 . S
C862 C858 1.524 . S
C862 H874 0.956 . S
C862 H875 0.961 . S
C862 H876 0.961 . S
C863 C860 1.539 . S
C863 H877 0.958 . S
C863 H878 0.961 . S
C863 H879 0.960 . S
H864 C848 0.931 . S
H865 C853 0.929 . S
H866 C854 0.960 . S
H867 C854 0.962 . S
H868 C854 0.960 . S
H869 C855 0.961 . S
H870 C855 0.961 . S
H871 C855 0.961 . S
H872 C856 0.931 . S
H873 C861 0.930 . S
H874 C862 0.956 . S
H875 C862 0.961 . S
H876 C862 0.961 . S
H877 C863 0.958 . S
H878 C863 0.961 . S
H879 C863 0.960 . S
C880 C881 1.391 . S
C880 C882 1.394 . S
C880 H896 0.931 . S
C881 C880 1.391 . S
C881 C885 1.376 . S
C882 C880 1.394 . S
C882 C883 1.369 . S
C882 C886 1.531 . S
C883 C882 1.369 . S
C883 C884 1.410 . S
C883 C891 1.503 . S
C884 C883 1.410 . S
C884 C885 1.392 . S
C884 C887 1.511 . S
C885 C881 1.376 . S
C885 C884 1.392 . S
C885 H897 0.929 . S
C886 C882 1.531 . S
C886 H898 0.960 . S
C886 H899 0.962 . S
C886 H900 0.960 . S
C887 C884 1.511 . S
C887 H901 0.961 . S
C887 H902 0.961 . S
C887 H903 0.961 . S
C888 C889 1.370 . S
C888 C890 1.363 . S
C888 H904 0.931 . S
C889 C888 1.370 . S
C889 C893 1.408 . S
C890 C888 1.363 . S
C890 C891 1.370 . S
C890 C894 1.524 . S
C891 C883 1.503 . S
C891 C890 1.370 . S
C891 C892 1.403 . S
C892 C891 1.403 . S
C892 C893 1.404 . S
C892 C895 1.539 . S
C893 C889 1.408 . S
C893 C892 1.404 . S
C893 H905 0.930 . S
C894 C890 1.524 . S
C894 H906 0.956 . S
C894 H907 0.961 . S
C894 H908 0.961 . S
C895 C892 1.539 . S
C895 H909 0.958 . S
C895 H910 0.961 . S
C895 H911 0.960 . S
H896 C880 0.931 . S
H897 C885 0.929 . S
H898 C886 0.960 . S
H899 C886 0.962 . S
H900 C886 0.960 . S
H901 C887 0.961 . S
H902 C887 0.961 . S
H903 C887 0.961 . S
H904 C888 0.931 . S
H905 C893 0.930 . S
H906 C894 0.956 . S
H907 C894 0.961 . S
H908 C894 0.961 . S
H909 C895 0.958 . S
H910 C895 0.961 . S
H911 C895 0.960 . S
C912 C913 1.391 . S
C912 C914 1.394 . S
C912 H928 0.931 . S
C913 C912 1.391 . S
C913 C917 1.376 . S
C914 C912 1.394 . S
C914 C915 1.369 1_556 S
C914 C918 1.531 . S
C915 C914 1.369 1_554 S
C915 C916 1.410 . S
C915 C923 1.503 . S
C916 C915 1.410 . S
C916 C917 1.392 1_554 S
C916 C919 1.511 . S
C917 C913 1.376 . S
C917 C916 1.392 1_556 S
C917 H929 0.929 . S
C918 C914 1.531 . S
C918 H930 0.960 1_556 S
C918 H931 0.962 . S
C918 H932 0.960 . S
C919 C916 1.511 . S
C919 H933 0.961 . S
C919 H934 0.961 . S
C919 H935 0.961 . S
C920 C921 1.370 . S
C920 C922 1.363 . S
C920 H936 0.931 . S
C921 C920 1.370 . S
C921 C925 1.408 . S
C922 C920 1.363 . S
C922 C923 1.370 . S
C922 C926 1.524 1_554 S
C923 C915 1.503 . S
C923 C922 1.370 . S
C923 C924 1.403 . S
C924 C923 1.403 . S
C924 C925 1.404 . S
C924 C927 1.539 . S
C925 C921 1.408 . S
C925 C924 1.404 . S
C925 H937 0.930 . S
C926 C922 1.524 1_556 S
C926 H938 0.956 . S
C926 H939 0.961 . S
C926 H940 0.961 . S
C927 C924 1.539 . S
C927 H941 0.958 . S
C927 H942 0.961 . S
C927 H943 0.960 . S
H928 C912 0.931 . S
H929 C917 0.929 . S
H930 C918 0.960 1_554 S
H931 C918 0.962 . S
H932 C918 0.960 . S
H933 C919 0.961 . S
H934 C919 0.961 . S
H935 C919 0.961 . S
H936 C920 0.931 . S
H937 C925 0.930 . S
H938 C926 0.956 . S
H939 C926 0.961 . S
H940 C926 0.961 . S
H941 C927 0.958 . S
H942 C927 0.961 . S
H943 C927 0.960 . S
C944 C945 1.391 . S
C944 C946 1.394 . S
C944 H960 0.931 . S
C945 C944 1.391 . S
C945 C949 1.376 . S
C946 C944 1.394 . S
C946 C947 1.369 . S
C946 C950 1.531 . S
C947 C946 1.369 . S
C947 C948 1.410 . S
C947 C955 1.503 . S
C948 C947 1.410 . S
C948 C949 1.392 . S
C948 C951 1.511 . S
C949 C945 1.376 . S
C949 C948 1.392 . S
C949 H961 0.929 . S
C950 C946 1.531 . S
C950 H962 0.960 . S
C950 H963 0.962 . S
C950 H964 0.960 . S
C951 C948 1.511 . S
C951 H965 0.961 . S
C951 H966 0.961 . S
C951 H967 0.961 . S
C952 C953 1.370 . S
C952 C954 1.363 . S
C952 H968 0.931 . S
C953 C952 1.370 . S
C953 C957 1.408 . S
C954 C952 1.363 . S
C954 C955 1.370 . S
C954 C958 1.524 . S
C955 C947 1.503 . S
C955 C954 1.370 . S
C955 C956 1.403 . S
C956 C955 1.403 . S
C956 C957 1.404 . S
C956 C959 1.539 . S
C957 C953 1.408 . S
C957 C956 1.404 . S
C957 H969 0.930 . S
C958 C954 1.524 . S
C958 H970 0.956 . S
C958 H971 0.961 . S
C958 H972 0.961 . S
C959 C956 1.539 . S
C959 H973 0.958 . S
C959 H974 0.961 . S
C959 H975 0.960 . S
H960 C944 0.931 . S
H961 C949 0.929 . S
H962 C950 0.960 . S
H963 C950 0.962 . S
H964 C950 0.960 . S
H965 C951 0.961 . S
H966 C951 0.961 . S
H967 C951 0.961 . S
H968 C952 0.931 . S
H969 C957 0.930 . S
H970 C958 0.956 . S
H971 C958 0.961 . S
H972 C958 0.961 . S
H973 C959 0.958 . S
H974 C959 0.961 . S
H975 C959 0.960 . S
C976 C977 1.391 . S
C976 C978 1.394 . S
C976 H992 0.931 . S
C977 C976 1.391 . S
C977 C981 1.376 . S
C978 C976 1.394 . S
C978 C979 1.369 . S
C978 C982 1.531 . S
C979 C978 1.369 . S
C979 C980 1.410 . S
C979 C987 1.503 . S
C980 C979 1.410 . S
C980 C981 1.392 . S
C980 C983 1.511 . S
C981 C977 1.376 . S
C981 C980 1.392 . S
C981 H993 0.929 . S
C982 C978 1.531 . S
C982 H994 0.960 . S
C982 H995 0.962 . S
C982 H996 0.960 . S
C983 C980 1.511 . S
C983 H997 0.961 . S
C983 H998 0.961 . S
C983 H999 0.961 . S
C984 C985 1.370 . S
C984 C986 1.363 . S
C984 H1000 0.931 . S
C985 C984 1.370 . S
C985 C989 1.408 . S
C986 C984 1.363 . S
C986 C987 1.370 . S
C986 C990 1.524 . S
C987 C979 1.503 . S
C987 C986 1.370 . S
C987 C988 1.403 . S
C988 C987 1.403 . S
C988 C989 1.404 . S
C988 C991 1.539 . S
C989 C985 1.408 . S
C989 C988 1.404 . S
C989 H1001 0.930 . S
C990 C986 1.524 . S
C990 H1002 0.956 . S
C990 H1003 0.961 . S
C990 H1004 0.961 . S
C991 C988 1.539 . S
C991 H1005 0.958 . S
C991 H1006 0.961 . S
C991 H1007 0.960 . S
H992 C976 0.931 . S
H993 C981 0.929 . S
H994 C982 0.960 . S
H995 C982 0.962 . S
H996 C982 0.960 . S
H997 C983 0.961 . S
H998 C983 0.961 . S
H999 C983 0.961 . S
H1000 C984 0.931 . S
H1001 C989 0.930 . S
H1002 C990 0.956 . S
H1003 C990 0.961 . S
H1004 C990 0.961 . S
H1005 C991 0.958 . S
H1006 C991 0.961 . S
H1007 C991 0.960 . S
C1008 C1009 1.391 . S
C1008 C1010 1.394 . S
C1008 H1024 0.931 . S
C1009 C1008 1.391 . S
C1009 C1013 1.376 . S
C1010 C1008 1.394 . S
C1010 C1011 1.360 1_455 S
C1010 C1014 1.531 . S
C1011 C1010 1.360 1_655 S
C1011 C1012 1.412 . S
C1011 C1019 1.510 . S
C1012 C1011 1.412 . S
C1012 C1013 1.392 1_655 S
C1012 C1015 1.511 . S
C1013 C1009 1.376 . S
C1013 C1012 1.392 1_455 S
C1013 H1025 0.929 . S
C1014 C1010 1.531 . S
C1014 H1026 0.960 . S
C1014 H1027 0.962 . S
C1014 H1028 0.960 . S
C1015 C1012 1.511 . S
C1015 H1029 0.961 . S
C1015 H1030 0.961 . S
C1015 H1031 0.961 . S
C1016 C1017 1.370 . S
C1016 C1018 1.363 . S
C1016 H1032 0.931 . S
C1017 C1016 1.370 . S
C1017 C1021 1.408 . S
C1018 C1016 1.363 . S
C1018 C1019 1.370 . S
C1018 C1022 1.524 . S
C1019 C1011 1.510 . S
C1019 C1018 1.370 . S
C1019 C1020 1.403 . S
C1020 C1019 1.403 . S
C1020 C1021 1.404 . S
C1020 C1023 1.542 . S
C1021 C1017 1.408 . S
C1021 C1020 1.404 . S
C1021 H1033 0.930 . S
C1022 C1018 1.524 . S
C1022 H1034 0.956 . S
C1022 H1035 0.961 . S
C1022 H1036 0.961 . S
C1023 C1020 1.542 . S
C1023 H1037 0.955 1_655 S
C1023 H1038 0.963 . S
C1023 H1039 0.958 1_655 S
H1024 C1008 0.931 . S
H1025 C1013 0.929 . S
H1026 C1014 0.960 . S
H1027 C1014 0.962 . S
H1028 C1014 0.960 . S
H1029 C1015 0.961 . S
H1030 C1015 0.961 . S
H1031 C1015 0.961 . S
H1032 C1016 0.931 . S
H1033 C1021 0.930 . S
H1034 C1022 0.956 . S
H1035 C1022 0.961 . S
H1036 C1022 0.961 . S
H1037 C1023 0.955 1_455 S
H1038 C1023 0.963 . S
H1039 C1023 0.958 1_455 S
C1040 C1041 1.391 . S
C1040 C1042 1.394 . S
C1040 H1056 0.931 . S
C1041 C1040 1.391 . S
C1041 C1045 1.376 . S
C1042 C1040 1.394 . S
C1042 C1043 1.369 . S
C1042 C1046 1.531 1_655 S
C1043 C1042 1.369 . S
C1043 C1044 1.410 . S
C1043 C1051 1.503 1_655 S
C1044 C1043 1.410 . S
C1044 C1045 1.392 . S
C1044 C1047 1.511 . S
C1045 C1041 1.376 . S
C1045 C1044 1.392 . S
C1045 H1057 0.929 . S
C1046 C1042 1.531 1_455 S
C1046 H1058 0.960 . S
C1046 H1059 0.962 . S
C1046 H1060 0.960 1_455 S
C1047 C1044 1.511 . S
C1047 H1061 0.961 . S
C1047 H1062 0.961 1_655 S
C1047 H1063 0.961 . S
C1048 C1049 1.370 . S
C1048 C1050 1.363 . S
C1048 H1064 0.931 . S
C1049 C1048 1.370 . S
C1049 C1053 1.408 . S
C1050 C1048 1.363 . S
C1050 C1051 1.370 . S
C1050 C1054 1.524 . S
C1051 C1043 1.503 1_455 S
C1051 C1050 1.370 . S
C1051 C1052 1.403 . S
C1052 C1051 1.403 . S
C1052 C1053 1.404 . S
C1052 C1055 1.539 1_455 S
C1053 C1049 1.408 . S
C1053 C1052 1.404 . S
C1053 H1065 0.930 . S
C1054 C1050 1.524 . S
C1054 H1066 0.956 . S
C1054 H1067 0.961 . S
C1054 H1068 0.961 . S
C1055 C1052 1.539 1_655 S
C1055 H1069 0.958 . S
C1055 H1070 0.961 . S
C1055 H1071 0.960 . S
H1056 C1040 0.931 . S
H1057 C1045 0.929 . S
H1058 C1046 0.960 . S
H1059 C1046 0.962 . S
H1060 C1046 0.960 1_655 S
H1061 C1047 0.961 . S
H1062 C1047 0.961 1_455 S
H1063 C1047 0.961 . S
H1064 C1048 0.931 . S
H1065 C1053 0.930 . S
H1066 C1054 0.956 . S
H1067 C1054 0.961 . S
H1068 C1054 0.961 . S
H1069 C1055 0.958 . S
H1070 C1055 0.961 . S
H1071 C1055 0.960 . S
C1072 C1073 1.391 . S
C1072 C1074 1.394 . S
C1072 H1088 0.931 . S
C1073 C1072 1.391 . S
C1073 C1077 1.376 . S
C1074 C1072 1.394 . S
C1074 C1075 1.369 . S
C1074 C1078 1.531 . S
C1075 C1074 1.369 . S
C1075 C1076 1.410 . S
C1075 C1083 1.503 . S
C1076 C1075 1.410 . S
C1076 C1077 1.392 . S
C1076 C1079 1.511 . S
C1077 C1073 1.376 . S
C1077 C1076 1.392 . S
C1077 H1089 0.929 . S
C1078 C1074 1.531 . S
C1078 H1090 0.960 . S
C1078 H1091 0.962 . S
C1078 H1092 0.960 . S
C1079 C1076 1.511 . S
C1079 H1093 0.961 . S
C1079 H1094 0.961 . S
C1079 H1095 0.961 . S
C1080 C1081 1.370 . S
C1080 C1082 1.363 . S
C1080 H1096 0.931 . S
C1081 C1080 1.370 . S
C1081 C1085 1.408 . S
C1082 C1080 1.363 . S
C1082 C1083 1.370 . S
C1082 C1086 1.524 . S
C1083 C1075 1.503 . S
C1083 C1082 1.370 . S
C1083 C1084 1.403 . S
C1084 C1083 1.403 . S
C1084 C1085 1.404 . S
C1084 C1087 1.539 . S
C1085 C1081 1.408 . S
C1085 C1084 1.404 . S
C1085 H1097 0.930 . S
C1086 C1082 1.524 . S
C1086 H1098 0.956 . S
C1086 H1099 0.961 . S
C1086 H1100 0.961 . S
C1087 C1084 1.539 . S
C1087 H1101 0.958 . S
C1087 H1102 0.961 . S
C1087 H1103 0.960 . S
H1088 C1072 0.931 . S
H1089 C1077 0.929 . S
H1090 C1078 0.960 . S
H1091 C1078 0.962 . S
H1092 C1078 0.960 . S
H1093 C1079 0.961 . S
H1094 C1079 0.961 . S
H1095 C1079 0.961 . S
H1096 C1080 0.931 . S
H1097 C1085 0.930 . S
H1098 C1086 0.956 . S
H1099 C1086 0.961 . S
H1100 C1086 0.961 . S
H1101 C1087 0.958 . S
H1102 C1087 0.961 . S
H1103 C1087 0.960 . S
C1104 C1105 1.391 . S
C1104 C1106 1.394 . S
C1104 H1120 0.931 . S
C1105 C1104 1.391 . S
C1105 C1109 1.376 . S
C1106 C1104 1.394 . S
C1106 C1107 1.369 . S
C1106 C1110 1.531 . S
C1107 C1106 1.369 . S
C1107 C1108 1.410 . S
C1107 C1115 1.503 . S
C1108 C1107 1.410 . S
C1108 C1109 1.392 . S
C1108 C1111 1.511 . S
C1109 C1105 1.376 . S
C1109 C1108 1.392 . S
C1109 H1121 0.929 . S
C1110 C1106 1.531 . S
C1110 H1122 0.960 . S
C1110 H1123 0.962 . S
C1110 H1124 0.960 . S
C1111 C1108 1.511 . S
C1111 H1125 0.961 . S
C1111 H1126 0.961 . S
C1111 H1127 0.961 . S
C1112 C1113 1.370 . S
C1112 C1114 1.363 . S
C1112 H1128 0.931 . S
C1113 C1112 1.370 . S
C1113 C1117 1.408 . S
C1114 C1112 1.363 . S
C1114 C1115 1.370 . S
C1114 C1118 1.524 . S
C1115 C1107 1.503 . S
C1115 C1114 1.370 . S
C1115 C1116 1.403 . S
C1116 C1115 1.403 . S
C1116 C1117 1.404 . S
C1116 C1119 1.539 . S
C1117 C1113 1.408 . S
C1117 C1116 1.404 . S
C1117 H1129 0.930 . S
C1118 C1114 1.524 . S
C1118 H1130 0.956 . S
C1118 H1131 0.961 . S
C1118 H1132 0.961 . S
C1119 C1116 1.539 . S
C1119 H1133 0.958 . S
C1119 H1134 0.961 . S
C1119 H1135 0.960 . S
H1120 C1104 0.931 . S
H1121 C1109 0.929 . S
H1122 C1110 0.960 . S
H1123 C1110 0.962 . S
H1124 C1110 0.960 . S
H1125 C1111 0.961 . S
H1126 C1111 0.961 . S
H1127 C1111 0.961 . S
H1128 C1112 0.931 . S
H1129 C1117 0.930 . S
H1130 C1118 0.956 . S
H1131 C1118 0.961 . S
H1132 C1118 0.961 . S
H1133 C1119 0.958 . S
H1134 C1119 0.961 . S
H1135 C1119 0.960 . S
C1136 C1137 1.391 . S
C1136 C1138 1.394 . S
C1136 H1152 0.931 . S
C1137 C1136 1.391 . S
C1137 C1141 1.376 1_545 S
C1138 C1136 1.394 . S
C1138 C1139 1.369 1_545 S
C1138 C1142 1.531 . S
C1139 C1138 1.369 1_565 S
C1139 C1140 1.410 . S
C1139 C1147 1.503 . S
C1140 C1139 1.410 . S
C1140 C1141 1.392 . S
C1140 C1143 1.511 . S
C1141 C1137 1.376 1_565 S
C1141 C1140 1.392 . S
C1141 H1153 0.929 . S
C1142 C1138 1.531 . S
C1142 H1154 0.960 . S
C1142 H1155 0.962 . S
C1142 H1156 0.960 . S
C1143 C1140 1.511 . S
C1143 H1157 0.961 . S
C1143 H1158 0.961 . S
C1143 H1159 0.961 . S
C1144 C1145 1.370 . S
C1144 C1146 1.363 . S
C1144 H1160 0.931 . S
C1145 C1144 1.370 . S
C1145 C1149 1.408 . S
C1146 C1144 1.363 . S
C1146 C1147 1.370 . S
C1146 C1150 1.524 . S
C1147 C1139 1.503 . S
C1147 C1146 1.370 . S
C1147 C1148 1.403 . S
C1148 C1147 1.403 . S
C1148 C1149 1.404 . S
C1148 C1151 1.539 . S
C1149 C1145 1.408 . S
C1149 C1148 1.404 . S
C1149 H1161 0.930 . S
C1150 C1146 1.524 . S
C1150 H1162 0.956 . S
C1150 H1163 0.961 . S
C1150 H1164 0.961 . S
C1151 C1148 1.539 . S
C1151 H1165 0.958 1_565 S
C1151 H1166 0.961 . S
C1151 H1167 0.960 . S
H1152 C1136 0.931 . S
H1153 C1141 0.929 . S
H1154 C1142 0.960 . S
H1155 C1142 0.962 . S
H1156 C1142 0.960 . S
H1157 C1143 0.961 . S
H1158 C1143 0.961 . S
H1159 C1143 0.961 . S
H1160 C1144 0.931 . S
H1161 C1149 0.930 . S
H1162 C1150 0.956 . S
H1163 C1150 0.961 . S
H1164 C1150 0.961 . S
H1165 C1151 0.958 1_545 S
H1166 C1151 0.961 . S
H1167 C1151 0.960 . S
C1168 C1169 1.391 . S
C1168 C1170 1.394 . S
C1168 H1184 0.931 . S
C1169 C1168 1.391 . S
C1169 C1173 1.376 . S
C1170 C1168 1.394 . S
C1170 C1171 1.369 . S
C1170 C1174 1.531 . S
C1171 C1170 1.369 . S
C1171 C1172 1.410 . S
C1171 C1179 1.503 . S
C1172 C1171 1.410 . S
C1172 C1173 1.392 . S
C1172 C1175 1.511 . S
C1173 C1169 1.376 . S
C1173 C1172 1.392 . S
C1173 H1185 0.929 . S
C1174 C1170 1.531 . S
C1174 H1186 0.960 . S
C1174 H1187 0.962 . S
C1174 H1188 0.960 . S
C1175 C1172 1.511 . S
C1175 H1189 0.961 . S
C1175 H1190 0.961 . S
C1175 H1191 0.961 . S
C1176 C1177 1.370 . S
C1176 C1178 1.363 . S
C1176 H1192 0.931 . S
C1177 C1176 1.370 . S
C1177 C1181 1.408 . S
C1178 C1176 1.363 . S
C1178 C1179 1.370 . S
C1178 C1182 1.524 . S
C1179 C1171 1.503 . S
C1179 C1178 1.370 . S
C1179 C1180 1.403 . S
C1180 C1179 1.403 . S
C1180 C1181 1.404 . S
C1180 C1183 1.539 . S
C1181 C1177 1.408 . S
C1181 C1180 1.404 . S
C1181 H1193 0.930 . S
C1182 C1178 1.524 . S
C1182 H1194 0.956 . S
C1182 H1195 0.961 . S
C1182 H1196 0.961 . S
C1183 C1180 1.539 . S
C1183 H1197 0.958 . S
C1183 H1198 0.961 . S
C1183 H1199 0.960 . S
H1184 C1168 0.931 . S
H1185 C1173 0.929 . S
H1186 C1174 0.960 . S
H1187 C1174 0.962 . S
H1188 C1174 0.960 . S
H1189 C1175 0.961 . S
H1190 C1175 0.961 . S
H1191 C1175 0.961 . S
H1192 C1176 0.931 . S
H1193 C1181 0.930 . S
H1194 C1182 0.956 . S
H1195 C1182 0.961 . S
H1196 C1182 0.961 . S
H1197 C1183 0.958 . S
H1198 C1183 0.961 . S
H1199 C1183 0.960 . S
C1200 C1201 1.391 . S
C1200 C1202 1.394 . S
C1200 H1216 0.931 . S
C1201 C1200 1.391 . S
C1201 C1205 1.376 . S
C1202 C1200 1.394 . S
C1202 C1203 1.369 . S
C1202 C1206 1.531 1_545 S
C1203 C1202 1.369 . S
C1203 C1204 1.410 . S
C1203 C1211 1.503 . S
C1204 C1203 1.410 . S
C1204 C1205 1.392 . S
C1204 C1207 1.511 . S
C1205 C1201 1.376 . S
C1205 C1204 1.392 . S
C1205 H1217 0.929 . S
C1206 C1202 1.531 1_565 S
C1206 H1218 0.960 . S
C1206 H1219 0.962 . S
C1206 H1220 0.960 . S
C1207 C1204 1.511 . S
C1207 H1221 0.961 . S
C1207 H1222 0.961 . S
C1207 H1223 0.961 . S
C1208 C1209 1.370 1_545 S
C1208 C1210 1.363 1_556 S
C1208 H1224 0.931 . S
C1209 C1208 1.370 1_565 S
C1209 C1213 1.408 . S
C1210 C1208 1.363 1_554 S
C1210 C1211 1.370 . S
C1210 C1214 1.524 . S
C1211 C1203 1.503 . S
C1211 C1210 1.370 . S
C1211 C1212 1.403 1_545 S
C1212 C1211 1.403 1_565 S
C1212 C1213 1.404 1_554 S
C1212 C1215 1.539 . S
C1213 C1209 1.408 . S
C1213 C1212 1.404 1_556 S
C1213 H1225 0.930 . S
C1214 C1210 1.524 . S
C1214 H1226 0.956 . S
C1214 H1227 0.961 . S
C1214 H1228 0.961 . S
C1215 C1212 1.539 . S
C1215 H1229 0.958 . S
C1215 H1230 0.961 . S
C1215 H1231 0.960 1_565 S
H1216 C1200 0.931 . S
H1217 C1205 0.929 . S
H1218 C1206 0.960 . S
H1219 C1206 0.962 . S
H1220 C1206 0.960 . S
H1221 C1207 0.961 . S
H1222 C1207 0.961 . S
H1223 C1207 0.961 . S
H1224 C1208 0.931 . S
H1225 C1213 0.930 . S
H1226 C1214 0.956 . S
H1227 C1214 0.961 . S
H1228 C1214 0.961 . S
H1229 C1215 0.958 . S
H1230 C1215 0.961 . S
H1231 C1215 0.960 1_545 S
C1232 C1233 1.391 . S
C1232 C1234 1.394 . S
C1232 H1248 0.931 . S
C1233 C1232 1.391 . S
C1233 C1237 1.376 . S
C1234 C1232 1.394 . S
C1234 C1235 1.369 . S
C1234 C1238 1.531 . S
C1235 C1234 1.369 . S
C1235 C1236 1.410 . S
C1235 C1243 1.503 . S
C1236 C1235 1.410 . S
C1236 C1237 1.392 . S
C1236 C1239 1.511 . S
C1237 C1233 1.376 . S
C1237 C1236 1.392 . S
C1237 H1249 0.929 . S
C1238 C1234 1.531 . S
C1238 H1250 0.960 . S
C1238 H1251 0.962 . S
C1238 H1252 0.960 . S
C1239 C1236 1.511 . S
C1239 H1253 0.961 . S
C1239 H1254 0.961 . S
C1239 H1255 0.961 . S
C1240 C1241 1.370 . S
C1240 C1242 1.363 . S
C1240 H1256 0.931 . S
C1241 C1240 1.370 . S
C1241 C1245 1.408 . S
C1242 C1240 1.363 . S
C1242 C1243 1.370 . S
C1242 C1246 1.524 . S
C1243 C1235 1.503 . S
C1243 C1242 1.370 . S
C1243 C1244 1.403 . S
C1244 C1243 1.403 . S
C1244 C1245 1.404 . S
C1244 C1247 1.539 . S
C1245 C1241 1.408 . S
C1245 C1244 1.404 . S
C1245 H1257 0.930 . S
C1246 C1242 1.524 . S
C1246 H1258 0.956 . S
C1246 H1259 0.961 . S
C1246 H1260 0.961 . S
C1247 C1244 1.539 . S
C1247 H1261 0.958 . S
C1247 H1262 0.961 . S
C1247 H1263 0.960 . S
H1248 C1232 0.931 . S
H1249 C1237 0.929 . S
H1250 C1238 0.960 . S
H1251 C1238 0.962 . S
H1252 C1238 0.960 . S
H1253 C1239 0.961 . S
H1254 C1239 0.961 . S
H1255 C1239 0.961 . S
H1256 C1240 0.931 . S
H1257 C1245 0.930 . S
H1258 C1246 0.956 . S
H1259 C1246 0.961 . S
H1260 C1246 0.961 . S
H1261 C1247 0.958 . S
H1262 C1247 0.961 . S
H1263 C1247 0.960 . S
C1264 C1265 1.391 . S
C1264 C1266 1.394 1_554 S
C1264 H1280 0.931 . S
C1265 C1264 1.391 . S
C1265 C1269 1.342 1_554 S
C1266 C1264 1.394 1_556 S
C1266 C1267 1.369 . S
C1266 C1270 1.531 . S
C1267 C1266 1.369 . S
C1267 C1268 1.410 . S
C1267 C1275 1.503 . S
C1268 C1267 1.410 . S
C1268 C1269 1.429 . S
C1268 C1271 1.511 . S
C1269 C1265 1.342 1_556 S
C1269 C1268 1.429 . S
C1269 H1281 0.927 1_556 S
C1270 C1266 1.531 . S
C1270 H1282 0.960 . S
C1270 H1283 0.962 . S
C1270 H1284 0.960 1_556 S
C1271 C1268 1.511 . S
C1271 H1285 0.961 . S
C1271 H1286 0.961 . S
C1271 H1287 0.961 . S
C1272 C1273 1.370 . S
C1272 C1274 1.363 . S
C1272 H1288 0.931 . S
C1273 C1272 1.370 . S
C1273 C1277 1.408 . S
C1274 C1272 1.363 . S
C1274 C1275 1.370 . S
C1274 C1278 1.524 . S
C1275 C1267 1.503 . S
C1275 C1274 1.370 . S
C1275 C1276 1.403 . S
C1276 C1275 1.403 . S
C1276 C1277 1.404 . S
C1276 C1279 1.539 . S
C1277 C1273 1.408 . S
C1277 C1276 1.404 . S
C1277 H1289 0.930 . S
C1278 C1274 1.524 . S
C1278 H1290 0.956 . S
C1278 H1291 0.961 . S
C1278 H1292 0.961 . S
C1279 C1276 1.539 . S
C1279 H1293 0.958 . S
C1279 H1294 0.961 . S
C1279 H1295 0.960 . S
H1280 C1264 0.931 . S
H1281 C1269 0.927 1_554 S
H1282 C1270 0.960 . S
H1283 C1270 0.962 . S
H1284 C1270 0.960 1_554 S
H1285 C1271 0.961 . S
H1286 C1271 0.961 . S
H1287 C1271 0.961 . S
H1288 C1272 0.931 . S
H1289 C1277 0.930 . S
H1290 C1278 0.956 . S
H1291 C1278 0.961 . S
H1292 C1278 0.961 . S
H1293 C1279 0.958 . S
H1294 C1279 0.961 . S
H1295 C1279 0.960 . S
C1296 C1297 1.391 . S
C1296 C1298 1.394 . S
C1296 H1312 0.931 . S
C1297 C1296 1.391 . S
C1297 C1301 1.376 . S
C1298 C1296 1.394 . S
C1298 C1299 1.369 . S
C1298 C1302 1.531 . S
C1299 C1298 1.369 . S
C1299 C1300 1.410 . S
C1299 C1307 1.503 . S
C1300 C1299 1.410 . S
C1300 C1301 1.392 . S
C1300 C1303 1.511 . S
C1301 C1297 1.376 . S
C1301 C1300 1.392 . S
C1301 H1313 0.929 . S
C1302 C1298 1.531 . S
C1302 H1314 0.960 . S
C1302 H1315 0.962 . S
C1302 H1316 0.960 . S
C1303 C1300 1.511 . S
C1303 H1317 0.961 . S
C1303 H1318 0.961 . S
C1303 H1319 0.961 . S
C1304 C1305 1.370 . S
C1304 C1306 1.363 . S
C1304 H1320 0.931 . S
C1305 C1304 1.370 . S
C1305 C1309 1.408 . S
C1306 C1304 1.363 . S
C1306 C1307 1.370 . S
C1306 C1310 1.524 . S
C1307 C1299 1.503 . S
C1307 C1306 1.370 . S
C1307 C1308 1.403 . S
C1308 C1307 1.403 . S
C1308 C1309 1.404 . S
C1308 C1311 1.539 . S
C1309 C1305 1.408 . S
C1309 C1308 1.404 . S
C1309 H1321 0.930 . S
C1310 C1306 1.524 . S
C1310 H1322 0.956 . S
C1310 H1323 0.961 . S
C1310 H1324 0.961 . S
C1311 C1308 1.539 . S
C1311 H1325 0.958 . S
C1311 H1326 0.961 . S
C1311 H1327 0.960 . S
H1312 C1296 0.931 . S
H1313 C1301 0.929 . S
H1314 C1302 0.960 . S
H1315 C1302 0.962 . S
H1316 C1302 0.960 . S
H1317 C1303 0.961 . S
H1318 C1303 0.961 . S
H1319 C1303 0.961 . S
H1320 C1304 0.931 . S
H1321 C1309 0.930 . S
H1322 C1310 0.956 . S
H1323 C1310 0.961 . S
H1324 C1310 0.961 . S
H1325 C1311 0.958 . S
H1326 C1311 0.961 . S
H1327 C1311 0.960 . S
C1328 C1329 1.391 . S
C1328 C1330 1.394 . S
C1328 H1344 0.931 . S
C1329 C1328 1.391 . S
C1329 C1333 1.376 . S
C1330 C1328 1.394 . S
C1330 C1331 1.369 . S
C1330 C1334 1.531 . S
C1331 C1330 1.369 . S
C1331 C1332 1.410 . S
C1331 C1339 1.503 . S
C1332 C1331 1.410 . S
C1332 C1333 1.392 . S
C1332 C1335 1.511 . S
C1333 C1329 1.376 . S
C1333 C1332 1.392 . S
C1333 H1345 0.929 . S
C1334 C1330 1.531 . S
C1334 H1346 0.960 . S
C1334 H1347 0.962 . S
C1334 H1348 0.960 . S
C1335 C1332 1.511 . S
C1335 H1349 0.961 . S
C1335 H1350 0.961 . S
C1335 H1351 0.961 . S
C1336 C1337 1.370 . S
C1336 C1338 1.363 . S
C1336 H1352 0.931 . S
C1337 C1336 1.370 . S
C1337 C1341 1.408 . S
C1338 C1336 1.363 . S
C1338 C1339 1.370 . S
C1338 C1342 1.524 . S
C1339 C1331 1.503 . S
C1339 C1338 1.370 . S
C1339 C1340 1.403 . S
C1340 C1339 1.403 . S
C1340 C1341 1.404 . S
C1340 C1343 1.539 . S
C1341 C1337 1.408 . S
C1341 C1340 1.404 . S
C1341 H1353 0.930 . S
C1342 C1338 1.524 . S
C1342 H1354 0.956 . S
C1342 H1355 0.961 . S
C1342 H1356 0.961 . S
C1343 C1340 1.539 . S
C1343 H1357 0.958 . S
C1343 H1358 0.961 . S
C1343 H1359 0.960 . S
H1344 C1328 0.931 . S
H1345 C1333 0.929 . S
H1346 C1334 0.960 . S
H1347 C1334 0.962 . S
H1348 C1334 0.960 . S
H1349 C1335 0.961 . S
H1350 C1335 0.961 . S
H1351 C1335 0.961 . S
H1352 C1336 0.931 . S
H1353 C1341 0.930 . S
H1354 C1342 0.956 . S
H1355 C1342 0.961 . S
H1356 C1342 0.961 . S
H1357 C1343 0.958 . S
H1358 C1343 0.961 . S
H1359 C1343 0.960 . S
C1360 C1361 1.391 . S
C1360 C1362 1.394 . S
C1360 H1376 0.931 . S
C1361 C1360 1.391 . S
C1361 C1365 1.376 . S
C1362 C1360 1.394 . S
C1362 C1363 1.369 . S
C1362 C1366 1.531 . S
C1363 C1362 1.369 . S
C1363 C1364 1.410 . S
C1363 C1371 1.503 . S
C1364 C1363 1.410 . S
C1364 C1365 1.392 . S
C1364 C1367 1.511 . S
C1365 C1361 1.376 . S
C1365 C1364 1.392 . S
C1365 H1377 0.929 . S
C1366 C1362 1.531 . S
C1366 H1378 0.960 . S
C1366 H1379 0.962 . S
C1366 H1380 0.960 . S
C1367 C1364 1.511 . S
C1367 H1381 0.961 . S
C1367 H1382 0.961 . S
C1367 H1383 0.961 . S
C1368 C1369 1.370 . S
C1368 C1370 1.363 . S
C1368 H1384 0.931 . S
C1369 C1368 1.370 . S
C1369 C1373 1.408 . S
C1370 C1368 1.363 . S
C1370 C1371 1.370 . S
C1370 C1374 1.524 . S
C1371 C1363 1.503 . S
C1371 C1370 1.370 . S
C1371 C1372 1.403 . S
C1372 C1371 1.403 . S
C1372 C1373 1.404 . S
C1372 C1375 1.539 . S
C1373 C1369 1.408 . S
C1373 C1372 1.404 . S
C1373 H1385 0.930 . S
C1374 C1370 1.524 . S
C1374 H1386 0.956 . S
C1374 H1387 0.961 . S
C1374 H1388 0.961 . S
C1375 C1372 1.539 . S
C1375 H1389 0.958 . S
C1375 H1390 0.961 . S
C1375 H1391 0.960 . S
H1376 C1360 0.931 . S
H1377 C1365 0.929 . S
H1378 C1366 0.960 . S
H1379 C1366 0.962 . S
H1380 C1366 0.960 . S
H1381 C1367 0.961 . S
H1382 C1367 0.961 . S
H1383 C1367 0.961 . S
H1384 C1368 0.931 . S
H1385 C1373 0.930 . S
H1386 C1374 0.956 . S
H1387 C1374 0.961 . S
H1388 C1374 0.961 . S
H1389 C1375 0.958 . S
H1390 C1375 0.961 . S
H1391 C1375 0.960 . S
C1392 C1393 1.391 1_545 S
C1392 C1394 1.394 . S
C1392 H1408 0.931 . S
C1393 C1392 1.391 1_565 S
C1393 C1397 1.376 1_655 S
C1394 C1392 1.394 . S
C1394 C1395 1.369 1_655 S
C1394 C1398 1.531 . S
C1395 C1394 1.369 1_455 S
C1395 C1396 1.410 . S
C1395 C1403 1.503 . S
C1396 C1395 1.410 . S
C1396 C1397 1.392 1_545 S
C1396 C1399 1.513 . S
C1397 C1393 1.376 1_455 S
C1397 C1396 1.392 1_565 S
C1397 H1409 0.929 . S
C1398 C1394 1.531 . S
C1398 H1410 0.953 1_655 S
C1398 H1411 0.962 . S
C1398 H1412 0.960 . S
C1399 C1396 1.513 . S
C1399 H1413 0.944 1_545 S
C1399 H1414 0.978 . S
C1399 H1415 0.959 1_545 S
C1400 C1401 1.370 . S
C1400 C1402 1.363 . S
C1400 H1416 0.931 . S
C1401 C1400 1.370 . S
C1401 C1405 1.408 . S
C1402 C1400 1.363 . S
C1402 C1403 1.370 . S
C1402 C1406 1.524 . S
C1403 C1395 1.503 . S
C1403 C1402 1.370 . S
C1403 C1404 1.403 . S
C1404 C1403 1.403 . S
C1404 C1405 1.404 . S
C1404 C1407 1.539 . S
C1405 C1401 1.408 . S
C1405 C1404 1.404 . S
C1405 H1417 0.930 . S
C1406 C1402 1.524 . S
C1406 H1418 0.956 1_455 S
C1406 H1419 0.961 . S
C1406 H1420 0.961 . S
C1407 C1404 1.539 . S
C1407 H1421 0.958 . S
C1407 H1422 0.961 . S
C1407 H1423 0.960 . S
H1408 C1392 0.931 . S
H1409 C1397 0.929 . S
H1410 C1398 0.953 1_455 S
H1411 C1398 0.962 . S
H1412 C1398 0.960 . S
H1413 C1399 0.944 1_565 S
H1414 C1399 0.978 . S
H1415 C1399 0.959 1_565 S
H1416 C1400 0.931 . S
H1417 C1405 0.930 . S
H1418 C1406 0.956 1_655 S
H1419 C1406 0.961 . S
H1420 C1406 0.961 . S
H1421 C1407 0.958 . S
H1422 C1407 0.961 . S
H1423 C1407 0.960 . S
C1424 C1425 1.391 . S
C1424 C1426 1.394 . S
C1424 H1440 0.931 . S
C1425 C1424 1.391 . S
C1425 C1429 1.376 . S
C1426 C1424 1.394 . S
C1426 C1427 1.369 . S
C1426 C1430 1.531 . S
C1427 C1426 1.369 . S
C1427 C1428 1.410 . S
C1427 C1435 1.503 . S
C1428 C1427 1.410 . S
C1428 C1429 1.392 . S
C1428 C1431 1.511 . S
C1429 C1425 1.376 . S
C1429 C1428 1.392 . S
C1429 H1441 0.929 . S
C1430 C1426 1.531 . S
C1430 H1442 0.960 . S
C1430 H1443 0.962 . S
C1430 H1444 0.960 . S
C1431 C1428 1.511 . S
C1431 H1445 0.961 . S
C1431 H1446 0.961 . S
C1431 H1447 0.961 . S
C1432 C1433 1.370 . S
C1432 C1434 1.363 . S
C1432 H1448 0.931 . S
C1433 C1432 1.370 . S
C1433 C1437 1.408 . S
C1434 C1432 1.363 . S
C1434 C1435 1.370 . S
C1434 C1438 1.524 . S
C1435 C1427 1.503 . S
C1435 C1434 1.370 . S
C1435 C1436 1.403 . S
C1436 C1435 1.403 . S
C1436 C1437 1.404 . S
C1436 C1439 1.539 . S
C1437 C1433 1.408 . S
C1437 C1436 1.404 . S
C1437 H1449 0.930 . S
C1438 C1434 1.524 . S
C1438 H1450 0.956 . S
C1438 H1451 0.961 . S
C1438 H1452 0.961 . S
C1439 C1436 1.539 . S
C1439 H1453 0.958 . S
C1439 H1454 0.961 . S
C1439 H1455 0.960 . S
H1440 C1424 0.931 . S
H1441 C1429 0.929 . S
H1442 C1430 0.960 . S
H1443 C1430 0.962 . S
H1444 C1430 0.960 . S
H1445 C1431 0.961 . S
H1446 C1431 0.961 . S
H1447 C1431 0.961 . S
H1448 C1432 0.931 . S
H1449 C1437 0.930 . S
H1450 C1438 0.956 . S
H1451 C1438 0.961 . S
H1452 C1438 0.961 . S
H1453 C1439 0.958 . S
H1454 C1439 0.961 . S
H1455 C1439 0.960 . S
C1456 C1457 1.391 1_565 S
C1456 C1458 1.394 . S
C1456 H1472 0.931 . S
C1457 C1456 1.391 1_545 S
C1457 C1461 1.376 . S
C1458 C1456 1.394 . S
C1458 C1459 1.369 . S
C1458 C1462 1.531 . S
C1459 C1458 1.369 . S
C1459 C1460 1.410 . S
C1459 C1467 1.503 . S
C1460 C1459 1.410 . S
C1460 C1461 1.392 1_565 S
C1460 C1463 1.513 . S
C1461 C1457 1.376 . S
C1461 C1460 1.392 1_545 S
C1461 H1473 0.929 . S
C1462 C1458 1.531 . S
C1462 H1474 0.960 . S
C1462 H1475 0.962 . S
C1462 H1476 0.960 . S
C1463 C1460 1.513 . S
C1463 H1477 0.945 1_565 S
C1463 H1478 0.977 . S
C1463 H1479 0.958 1_565 S
C1464 C1465 1.370 . S
C1464 C1466 1.363 . S
C1464 H1480 0.931 . S
C1465 C1464 1.370 . S
C1465 C1469 1.408 . S
C1466 C1464 1.363 . S
C1466 C1467 1.370 . S
C1466 C1470 1.524 . S
C1467 C1459 1.503 . S
C1467 C1466 1.370 . S
C1467 C1468 1.403 . S
C1468 C1467 1.403 . S
C1468 C1469 1.404 . S
C1468 C1471 1.539 . S
C1469 C1465 1.408 . S
C1469 C1468 1.404 . S
C1469 H1481 0.930 . S
C1470 C1466 1.524 . S
C1470 H1482 0.956 . S
C1470 H1483 0.961 . S
C1470 H1484 0.961 . S
C1471 C1468 1.539 . S
C1471 H1485 0.958 . S
C1471 H1486 0.961 . S
C1471 H1487 0.960 . S
H1472 C1456 0.931 . S
H1473 C1461 0.929 . S
H1474 C1462 0.960 . S
H1475 C1462 0.962 . S
H1476 C1462 0.960 . S
H1477 C1463 0.945 1_545 S
H1478 C1463 0.977 . S
H1479 C1463 0.958 1_545 S
H1480 C1464 0.931 . S
H1481 C1469 0.930 . S
H1482 C1470 0.956 . S
H1483 C1470 0.961 . S
H1484 C1470 0.961 . S
H1485 C1471 0.958 . S
H1486 C1471 0.961 . S
H1487 C1471 0.960 . S
C1488 C1489 1.391 . S
C1488 C1490 1.394 . S
C1488 H1504 0.931 . S
C1489 C1488 1.391 . S
C1489 C1493 1.376 . S
C1490 C1488 1.394 . S
C1490 C1491 1.369 . S
C1490 C1494 1.531 . S
C1491 C1490 1.369 . S
C1491 C1492 1.410 . S
C1491 C1499 1.503 . S
C1492 C1491 1.410 . S
C1492 C1493 1.392 . S
C1492 C1495 1.511 . S
C1493 C1489 1.376 . S
C1493 C1492 1.392 . S
C1493 H1505 0.929 . S
C1494 C1490 1.531 . S
C1494 H1506 0.960 . S
C1494 H1507 0.962 . S
C1494 H1508 0.960 . S
C1495 C1492 1.511 . S
C1495 H1509 0.961 . S
C1495 H1510 0.961 . S
C1495 H1511 0.961 . S
C1496 C1497 1.370 . S
C1496 C1498 1.363 . S
C1496 H1512 0.931 . S
C1497 C1496 1.370 . S
C1497 C1501 1.408 . S
C1498 C1496 1.363 . S
C1498 C1499 1.370 . S
C1498 C1502 1.524 . S
C1499 C1491 1.503 . S
C1499 C1498 1.370 . S
C1499 C1500 1.403 . S
C1500 C1499 1.403 . S
C1500 C1501 1.404 . S
C1500 C1503 1.539 . S
C1501 C1497 1.408 . S
C1501 C1500 1.404 . S
C1501 H1513 0.930 . S
C1502 C1498 1.524 . S
C1502 H1514 0.956 . S
C1502 H1515 0.961 . S
C1502 H1516 0.961 . S
C1503 C1500 1.539 . S
C1503 H1517 0.958 . S
C1503 H1518 0.961 . S
C1503 H1519 0.960 . S
H1504 C1488 0.931 . S
H1505 C1493 0.929 . S
H1506 C1494 0.960 . S
H1507 C1494 0.962 . S
H1508 C1494 0.960 . S
H1509 C1495 0.961 . S
H1510 C1495 0.961 . S
H1511 C1495 0.961 . S
H1512 C1496 0.931 . S
H1513 C1501 0.930 . S
H1514 C1502 0.956 . S
H1515 C1502 0.961 . S
H1516 C1502 0.961 . S
H1517 C1503 0.958 . S
H1518 C1503 0.961 . S
H1519 C1503 0.960 . S
C1520 C1521 1.391 1_655 S
C1520 C1522 1.394 . S
C1520 H1536 0.931 . S
C1521 C1520 1.391 1_455 S
C1521 C1525 1.376 . S
C1522 C1520 1.394 . S
C1522 C1523 1.369 . S
C1522 C1526 1.531 . S
C1523 C1522 1.369 . S
C1523 C1524 1.410 1_655 S
C1523 C1531 1.503 . S
C1524 C1523 1.410 1_455 S
C1524 C1525 1.392 . S
C1524 C1527 1.511 . S
C1525 C1521 1.376 . S
C1525 C1524 1.392 . S
C1525 H1537 0.929 . S
C1526 C1522 1.531 . S
C1526 H1538 0.960 . S
C1526 H1539 0.962 . S
C1526 H1540 0.960 . S
C1527 C1524 1.511 . S
C1527 H1541 0.961 . S
C1527 H1542 0.961 . S
C1527 H1543 0.961 . S
C1528 C1529 1.370 . S
C1528 C1530 1.363 . S
C1528 H1544 0.931 . S
C1529 C1528 1.370 . S
C1529 C1533 1.408 . S
C1530 C1528 1.363 . S
C1530 C1531 1.370 . S
C1530 C1534 1.524 . S
C1531 C1523 1.503 . S
C1531 C1530 1.370 . S
C1531 C1532 1.403 . S
C1532 C1531 1.403 . S
C1532 C1533 1.404 . S
C1532 C1535 1.539 . S
C1533 C1529 1.408 . S
C1533 C1532 1.404 . S
C1533 H1545 0.930 . S
C1534 C1530 1.524 . S
C1534 H1546 0.956 . S
C1534 H1547 0.961 . S
C1534 H1548 0.961 . S
C1535 C1532 1.539 . S
C1535 H1549 0.958 . S
C1535 H1550 0.961 . S
C1535 H1551 0.960 . S
H1536 C1520 0.931 . S
H1537 C1525 0.929 . S
H1538 C1526 0.960 . S
H1539 C1526 0.962 . S
H1540 C1526 0.960 . S
H1541 C1527 0.961 . S
H1542 C1527 0.961 . S
H1543 C1527 0.961 . S
H1544 C1528 0.931 . S
H1545 C1533 0.930 . S
H1546 C1534 0.956 . S
H1547 C1534 0.961 . S
H1548 C1534 0.961 . S
H1549 C1535 0.958 . S
H1550 C1535 0.961 . S
H1551 C1535 0.960 . S
C1552 C1553 1.391 . S
C1552 C1554 1.394 . S
C1552 H1568 0.931 . S
C1553 C1552 1.391 . S
C1553 C1557 1.376 . S
C1554 C1552 1.394 . S
C1554 C1555 1.369 . S
C1554 C1558 1.531 . S
C1555 C1554 1.369 . S
C1555 C1556 1.410 . S
C1555 C1563 1.503 . S
C1556 C1555 1.410 . S
C1556 C1557 1.392 . S
C1556 C1559 1.511 . S
C1557 C1553 1.376 . S
C1557 C1556 1.392 . S
C1557 H1569 0.929 . S
C1558 C1554 1.531 . S
C1558 H1570 0.960 . S
C1558 H1571 0.962 . S
C1558 H1572 0.960 . S
C1559 C1556 1.511 . S
C1559 H1573 0.961 . S
C1559 H1574 0.961 . S
C1559 H1575 0.961 . S
C1560 C1561 1.370 . S
C1560 C1562 1.363 . S
C1560 H1576 0.931 . S
C1561 C1560 1.370 . S
C1561 C1565 1.408 . S
C1562 C1560 1.363 . S
C1562 C1563 1.370 . S
C1562 C1566 1.524 . S
C1563 C1555 1.503 . S
C1563 C1562 1.370 . S
C1563 C1564 1.403 . S
C1564 C1563 1.403 . S
C1564 C1565 1.404 . S
C1564 C1567 1.539 . S
C1565 C1561 1.408 . S
C1565 C1564 1.404 . S
C1565 H1577 0.930 . S
C1566 C1562 1.524 . S
C1566 H1578 0.956 . S
C1566 H1579 0.961 . S
C1566 H1580 0.961 . S
C1567 C1564 1.539 . S
C1567 H1581 0.958 . S
C1567 H1582 0.961 . S
C1567 H1583 0.960 . S
H1568 C1552 0.931 . S
H1569 C1557 0.929 . S
H1570 C1558 0.960 . S
H1571 C1558 0.962 . S
H1572 C1558 0.960 . S
H1573 C1559 0.961 . S
H1574 C1559 0.961 . S
H1575 C1559 0.961 . S
H1576 C1560 0.931 . S
H1577 C1565 0.930 . S
H1578 C1566 0.956 . S
H1579 C1566 0.961 . S
H1580 C1566 0.961 . S
H1581 C1567 0.958 . S
H1582 C1567 0.961 . S
H1583 C1567 0.960 . S
C1584 C1585 1.391 . S
C1584 C1586 1.394 . S
C1584 H1600 0.931 . S
C1585 C1584 1.391 . S
C1585 C1589 1.376 . S
C1586 C1584 1.394 . S
C1586 C1587 1.369 . S
C1586 C1590 1.531 . S
C1587 C1586 1.369 . S
C1587 C1588 1.410 . S
C1587 C1595 1.503 . S
C1588 C1587 1.410 . S
C1588 C1589 1.392 . S
C1588 C1591 1.511 . S
C1589 C1585 1.376 . S
C1589 C1588 1.392 . S
C1589 H1601 0.929 . S
C1590 C1586 1.531 . S
C1590 H1602 0.960 . S
C1590 H1603 0.962 . S
C1590 H1604 0.960 . S
C1591 C1588 1.511 . S
C1591 H1605 0.961 . S
C1591 H1606 0.961 . S
C1591 H1607 0.961 . S
C1592 C1593 1.370 . S
C1592 C1594 1.363 . S
C1592 H1608 0.931 . S
C1593 C1592 1.370 . S
C1593 C1597 1.408 . S
C1594 C1592 1.363 . S
C1594 C1595 1.370 . S
C1594 C1598 1.524 . S
C1595 C1587 1.503 . S
C1595 C1594 1.370 . S
C1595 C1596 1.403 . S
C1596 C1595 1.403 . S
C1596 C1597 1.404 . S
C1596 C1599 1.539 . S
C1597 C1593 1.408 . S
C1597 C1596 1.404 . S
C1597 H1609 0.930 . S
C1598 C1594 1.524 . S
C1598 H1610 0.956 . S
C1598 H1611 0.961 . S
C1598 H1612 0.961 . S
C1599 C1596 1.539 . S
C1599 H1613 0.958 . S
C1599 H1614 0.961 . S
C1599 H1615 0.960 . S
H1600 C1584 0.931 . S
H1601 C1589 0.929 . S
H1602 C1590 0.960 . S
H1603 C1590 0.962 . S
H1604 C1590 0.960 . S
H1605 C1591 0.961 . S
H1606 C1591 0.961 . S
H1607 C1591 0.961 . S
H1608 C1592 0.931 . S
H1609 C1597 0.930 . S
H1610 C1598 0.956 . S
H1611 C1598 0.961 . S
H1612 C1598 0.961 . S
H1613 C1599 0.958 . S
H1614 C1599 0.961 . S
H1615 C1599 0.960 . S
C1616 C1617 1.391 . S
C1616 C1618 1.394 . S
C1616 H1632 0.931 . S
C1617 C1616 1.391 . S
C1617 C1621 1.376 . S
C1618 C1616 1.394 . S
C1618 C1619 1.369 . S
C1618 C1622 1.531 . S
C1619 C1618 1.369 . S
C1619 C1620 1.410 . S
C1619 C1627 1.503 . S
C1620 C1619 1.410 . S
C1620 C1621 1.392 . S
C1620 C1623 1.511 . S
C1621 C1617 1.376 . S
C1621 C1620 1.392 . S
C1621 H1633 0.929 . S
C1622 C1618 1.531 . S
C1622 H1634 0.960 . S
C1622 H1635 0.962 . S
C1622 H1636 0.960 . S
C1623 C1620 1.511 . S
C1623 H1637 0.961 . S
C1623 H1638 0.961 . S
C1623 H1639 0.961 . S
C1624 C1625 1.370 . S
C1624 C1626 1.363 . S
C1624 H1640 0.931 . S
C1625 C1624 1.370 . S
C1625 C1629 1.408 . S
C1626 C1624 1.363 . S
C1626 C1627 1.370 . S
C1626 C1630 1.524 . S
C1627 C1619 1.503 . S
C1627 C1626 1.370 . S
C1627 C1628 1.403 . S
C1628 C1627 1.403 . S
C1628 C1629 1.404 . S
C1628 C1631 1.539 . S
C1629 C1625 1.408 . S
C1629 C1628 1.404 . S
C1629 H1641 0.930 . S
C1630 C1626 1.524 . S
C1630 H1642 0.956 . S
C1630 H1643 0.961 . S
C1630 H1644 0.961 . S
C1631 C1628 1.539 . S
C1631 H1645 0.958 . S
C1631 H1646 0.961 . S
C1631 H1647 0.960 . S
H1632 C1616 0.931 . S
H1633 C1621 0.929 . S
H1634 C1622 0.960 . S
H1635 C1622 0.962 . S
H1636 C1622 0.960 . S
H1637 C1623 0.961 . S
H1638 C1623 0.961 . S
H1639 C1623 0.961 . S
H1640 C1624 0.931 . S
H1641 C1629 0.930 . S
H1642 C1630 0.956 . S
H1643 C1630 0.961 . S
H1644 C1630 0.961 . S
H1645 C1631 0.958 . S
H1646 C1631 0.961 . S
H1647 C1631 0.960 . S
C1648 C1649 1.391 . S
C1648 C1650 1.394 . S
C1648 H1664 0.931 . S
C1649 C1648 1.391 . S
C1649 C1653 1.376 . S
C1650 C1648 1.394 . S
C1650 C1651 1.369 . S
C1650 C1654 1.531 . S
C1651 C1650 1.369 . S
C1651 C1652 1.410 . S
C1651 C1659 1.503 . S
C1652 C1651 1.410 . S
C1652 C1653 1.392 . S
C1652 C1655 1.511 . S
C1653 C1649 1.376 . S
C1653 C1652 1.392 . S
C1653 H1665 0.929 . S
C1654 C1650 1.531 . S
C1654 H1666 0.960 . S
C1654 H1667 0.962 . S
C1654 H1668 0.960 . S
C1655 C1652 1.511 . S
C1655 H1669 0.961 . S
C1655 H1670 0.961 . S
C1655 H1671 0.961 . S
C1656 C1657 1.370 . S
C1656 C1658 1.363 . S
C1656 H1672 0.931 . S
C1657 C1656 1.370 . S
C1657 C1661 1.408 . S
C1658 C1656 1.363 . S
C1658 C1659 1.370 . S
C1658 C1662 1.524 . S
C1659 C1651 1.503 . S
C1659 C1658 1.370 . S
C1659 C1660 1.403 . S
C1660 C1659 1.403 . S
C1660 C1661 1.404 . S
C1660 C1663 1.539 . S
C1661 C1657 1.408 . S
C1661 C1660 1.404 . S
C1661 H1673 0.930 . S
C1662 C1658 1.524 . S
C1662 H1674 0.956 . S
C1662 H1675 0.961 . S
C1662 H1676 0.961 . S
C1663 C1660 1.539 . S
C1663 H1677 0.958 . S
C1663 H1678 0.961 . S
C1663 H1679 0.960 . S
H1664 C1648 0.931 . S
H1665 C1653 0.929 . S
H1666 C1654 0.960 . S
H1667 C1654 0.962 . S
H1668 C1654 0.960 . S
H1669 C1655 0.961 . S
H1670 C1655 0.961 . S
H1671 C1655 0.961 . S
H1672 C1656 0.931 . S
H1673 C1661 0.930 . S
H1674 C1662 0.956 . S
H1675 C1662 0.961 . S
H1676 C1662 0.961 . S
H1677 C1663 0.958 . S
H1678 C1663 0.961 . S
H1679 C1663 0.960 . S
C1680 C1681 1.391 1_554 S
C1680 C1682 1.394 1_655 S
C1680 H1696 0.931 . S
C1681 C1680 1.391 1_556 S
C1681 C1685 1.376 1_655 S
C1682 C1680 1.394 1_455 S
C1682 C1683 1.369 . S
C1682 C1686 1.531 . S
C1683 C1682 1.369 . S
C1683 C1684 1.405 1_554 S
C1683 C1691 1.503 . S
C1684 C1683 1.405 1_556 S
C1684 C1685 1.396 . S
C1684 C1687 1.512 . S
C1685 C1681 1.376 1_455 S
C1685 C1684 1.396 . S
C1685 H1697 0.929 . S
C1686 C1682 1.531 . S
C1686 H1698 0.960 . S
C1686 H1699 0.962 . S
C1686 H1700 0.960 1_455 S
C1687 C1684 1.512 . S
C1687 H1701 0.961 . S
C1687 H1702 0.961 1_556 S
C1687 H1703 0.961 . S
C1688 C1689 1.370 . S
C1688 C1690 1.363 . S
C1688 H1704 0.931 . S
C1689 C1688 1.370 . S
C1689 C1693 1.408 . S
C1690 C1688 1.363 . S
C1690 C1691 1.370 . S
C1690 C1694 1.524 . S
C1691 C1683 1.503 . S
C1691 C1690 1.370 . S
C1691 C1692 1.403 . S
C1692 C1691 1.403 . S
C1692 C1693 1.404 . S
C1692 C1695 1.539 1_554 S
C1693 C1689 1.408 . S
C1693 C1692 1.404 . S
C1693 H1705 0.930 . S
C1694 C1690 1.524 . S
C1694 H1706 0.956 . S
C1694 H1707 0.961 . S
C1694 H1708 0.961 . S
C1695 C1692 1.539 1_556 S
C1695 H1709 0.958 . S
C1695 H1710 0.961 . S
C1695 H1711 0.960 . S
H1696 C1680 0.931 . S
H1697 C1685 0.929 . S
H1698 C1686 0.960 . S
H1699 C1686 0.962 . S
H1700 C1686 0.960 1_655 S
H1701 C1687 0.961 . S
H1702 C1687 0.961 1_554 S
H1703 C1687 0.961 . S
H1704 C1688 0.931 . S
H1705 C1693 0.930 . S
H1706 C1694 0.956 . S
H1707 C1694 0.961 . S
H1708 C1694 0.961 . S
H1709 C1695 0.958 . S
H1710 C1695 0.961 . S
H1711 C1695 0.960 . S
C1712 C1713 1.391 . S
C1712 C1714 1.394 . S
C1712 H1728 0.931 . S
C1713 C1712 1.391 . S
C1713 C1717 1.376 . S
C1714 C1712 1.394 . S
C1714 C1715 1.369 . S
C1714 C1718 1.531 . S
C1715 C1714 1.369 . S
C1715 C1716 1.410 . S
C1715 C1723 1.503 . S
C1716 C1715 1.410 . S
C1716 C1717 1.392 . S
C1716 C1719 1.511 . S
C1717 C1713 1.376 . S
C1717 C1716 1.392 . S
C1717 H1729 0.929 . S
C1718 C1714 1.531 . S
C1718 H1730 0.960 . S
C1718 H1731 0.962 . S
C1718 H1732 0.960 . S
C1719 C1716 1.511 . S
C1719 H1733 0.961 . S
C1719 H1734 0.961 . S
C1719 H1735 0.961 . S
C1720 C1721 1.370 . S
C1720 C1722 1.363 . S
C1720 H1736 0.931 . S
C1721 C1720 1.370 . S
C1721 C1725 1.408 . S
C1722 C1720 1.363 . S
C1722 C1723 1.370 . S
C1722 C1726 1.524 . S
C1723 C1715 1.503 . S
C1723 C1722 1.370 . S
C1723 C1724 1.403 . S
C1724 C1723 1.403 . S
C1724 C1725 1.404 . S
C1724 C1727 1.539 . S
C1725 C1721 1.408 . S
C1725 C1724 1.404 . S
C1725 H1737 0.930 . S
C1726 C1722 1.524 . S
C1726 H1738 0.956 . S
C1726 H1739 0.961 . S
C1726 H1740 0.961 . S
C1727 C1724 1.539 . S
C1727 H1741 0.958 . S
C1727 H1742 0.961 . S
C1727 H1743 0.960 . S
H1728 C1712 0.931 . S
H1729 C1717 0.929 . S
H1730 C1718 0.960 . S
H1731 C1718 0.962 . S
H1732 C1718 0.960 . S
H1733 C1719 0.961 . S
H1734 C1719 0.961 . S
H1735 C1719 0.961 . S
H1736 C1720 0.931 . S
H1737 C1725 0.930 . S
H1738 C1726 0.956 . S
H1739 C1726 0.961 . S
H1740 C1726 0.961 . S
H1741 C1727 0.958 . S
H1742 C1727 0.961 . S
H1743 C1727 0.960 . S
C1744 C1745 1.391 . S
C1744 C1746 1.394 . S
C1744 H1760 0.931 . S
C1745 C1744 1.391 . S
C1745 C1749 1.376 . S
C1746 C1744 1.394 . S
C1746 C1747 1.369 . S
C1746 C1750 1.531 . S
C1747 C1746 1.369 . S
C1747 C1748 1.410 . S
C1747 C1755 1.503 . S
C1748 C1747 1.410 . S
C1748 C1749 1.392 . S
C1748 C1751 1.511 . S
C1749 C1745 1.376 . S
C1749 C1748 1.392 . S
C1749 H1761 0.929 . S
C1750 C1746 1.531 . S
C1750 H1762 0.960 . S
C1750 H1763 0.962 . S
C1750 H1764 0.960 . S
C1751 C1748 1.511 . S
C1751 H1765 0.961 . S
C1751 H1766 0.961 . S
C1751 H1767 0.961 . S
C1752 C1753 1.370 . S
C1752 C1754 1.363 . S
C1752 H1768 0.931 . S
C1753 C1752 1.370 . S
C1753 C1757 1.408 . S
C1754 C1752 1.363 . S
C1754 C1755 1.370 . S
C1754 C1758 1.524 . S
C1755 C1747 1.503 . S
C1755 C1754 1.370 . S
C1755 C1756 1.403 . S
C1756 C1755 1.403 . S
C1756 C1757 1.404 . S
C1756 C1759 1.539 . S
C1757 C1753 1.408 . S
C1757 C1756 1.404 . S
C1757 H1769 0.930 . S
C1758 C1754 1.524 . S
C1758 H1770 0.956 . S
C1758 H1771 0.961 . S
C1758 H1772 0.961 . S
C1759 C1756 1.539 . S
C1759 H1773 0.958 . S
C1759 H1774 0.961 . S
C1759 H1775 0.960 . S
H1760 C1744 0.931 . S
H1761 C1749 0.929 . S
H1762 C1750 0.960 . S
H1763 C1750 0.962 . S
H1764 C1750 0.960 . S
H1765 C1751 0.961 . S
H1766 C1751 0.961 . S
H1767 C1751 0.961 . S
H1768 C1752 0.931 . S
H1769 C1757 0.930 . S
H1770 C1758 0.956 . S
H1771 C1758 0.961 . S
H1772 C1758 0.961 . S
H1773 C1759 0.958 . S
H1774 C1759 0.961 . S
H1775 C1759 0.960 . S
C1776 C1777 1.391 . S
C1776 C1778 1.394 . S
C1776 H1792 0.931 . S
C1777 C1776 1.391 . S
C1777 C1781 1.376 . S
C1778 C1776 1.394 . S
C1778 C1779 1.369 . S
C1778 C1782 1.531 . S
C1779 C1778 1.369 . S
C1779 C1780 1.410 . S
C1779 C1787 1.503 . S
C1780 C1779 1.410 . S
C1780 C1781 1.392 . S
C1780 C1783 1.511 . S
C1781 C1777 1.376 . S
C1781 C1780 1.392 . S
C1781 H1793 0.929 . S
C1782 C1778 1.531 . S
C1782 H1794 0.960 . S
C1782 H1795 0.962 . S
C1782 H1796 0.960 . S
C1783 C1780 1.511 . S
C1783 H1797 0.961 . S
C1783 H1798 0.961 . S
C1783 H1799 0.961 . S
C1784 C1785 1.370 . S
C1784 C1786 1.363 . S
C1784 H1800 0.931 . S
C1785 C1784 1.370 . S
C1785 C1789 1.408 . S
C1786 C1784 1.363 . S
C1786 C1787 1.370 . S
C1786 C1790 1.524 . S
C1787 C1779 1.503 . S
C1787 C1786 1.370 . S
C1787 C1788 1.403 . S
C1788 C1787 1.403 . S
C1788 C1789 1.404 . S
C1788 C1791 1.539 . S
C1789 C1785 1.408 . S
C1789 C1788 1.404 . S
C1789 H1801 0.930 . S
C1790 C1786 1.524 . S
C1790 H1802 0.956 . S
C1790 H1803 0.961 . S
C1790 H1804 0.961 . S
C1791 C1788 1.539 . S
C1791 H1805 0.958 . S
C1791 H1806 0.961 . S
C1791 H1807 0.960 . S
H1792 C1776 0.931 . S
H1793 C1781 0.929 . S
H1794 C1782 0.960 . S
H1795 C1782 0.962 . S
H1796 C1782 0.960 . S
H1797 C1783 0.961 . S
H1798 C1783 0.961 . S
H1799 C1783 0.961 . S
H1800 C1784 0.931 . S
H1801 C1789 0.930 . S
H1802 C1790 0.956 . S
H1803 C1790 0.961 . S
H1804 C1790 0.961 . S
H1805 C1791 0.958 . S
H1806 C1791 0.961 . S
H1807 C1791 0.960 . S
C1808 C1809 1.391 . S
C1808 C1810 1.394 . S
C1808 H1824 0.931 . S
C1809 C1808 1.391 . S
C1809 C1813 1.376 1_554 S
C1810 C1808 1.394 . S
C1810 C1811 1.369 1_554 S
C1810 C1814 1.531 . S
C1811 C1810 1.369 1_556 S
C1811 C1812 1.410 . S
C1811 C1819 1.503 . S
C1812 C1811 1.410 . S
C1812 C1813 1.392 . S
C1812 C1815 1.511 . S
C1813 C1809 1.376 1_556 S
C1813 C1812 1.392 . S
C1813 H1825 0.929 . S
C1814 C1810 1.531 . S
C1814 H1826 0.960 . S
C1814 H1827 0.962 . S
C1814 H1828 0.960 . S
C1815 C1812 1.511 . S
C1815 H1829 0.961 . S
C1815 H1830 0.961 . S
C1815 H1831 0.961 . S
C1816 C1817 1.370 . S
C1816 C1818 1.363 . S
C1816 H1832 0.931 . S
C1817 C1816 1.370 . S
C1817 C1821 1.408 . S
C1818 C1816 1.363 . S
C1818 C1819 1.370 . S
C1818 C1822 1.524 . S
C1819 C1811 1.503 . S
C1819 C1818 1.370 . S
C1819 C1820 1.403 . S
C1820 C1819 1.403 . S
C1820 C1821 1.404 . S
C1820 C1823 1.539 . S
C1821 C1817 1.408 . S
C1821 C1820 1.404 . S
C1821 H1833 0.930 . S
C1822 C1818 1.524 . S
C1822 H1834 0.956 1_556 S
C1822 H1835 0.961 . S
C1822 H1836 0.961 . S
C1823 C1820 1.539 . S
C1823 H1837 0.958 . S
C1823 H1838 0.961 . S
C1823 H1839 0.960 . S
H1824 C1808 0.931 . S
H1825 C1813 0.929 . S
H1826 C1814 0.960 . S
H1827 C1814 0.962 . S
H1828 C1814 0.960 . S
H1829 C1815 0.961 . S
H1830 C1815 0.961 . S
H1831 C1815 0.961 . S
H1832 C1816 0.931 . S
H1833 C1821 0.930 . S
H1834 C1822 0.956 1_554 S
H1835 C1822 0.961 . S
H1836 C1822 0.961 . S
H1837 C1823 0.958 . S
H1838 C1823 0.961 . S
H1839 C1823 0.960 . S
C1840 C1841 1.391 . S
C1840 C1842 1.394 . S
C1840 H1856 0.931 . S
C1841 C1840 1.391 . S
C1841 C1845 1.376 . S
C1842 C1840 1.394 . S
C1842 C1843 1.369 . S
C1842 C1846 1.531 . S
C1843 C1842 1.369 . S
C1843 C1844 1.410 . S
C1843 C1851 1.503 . S
C1844 C1843 1.410 . S
C1844 C1845 1.392 . S
C1844 C1847 1.511 . S
C1845 C1841 1.376 . S
C1845 C1844 1.392 . S
C1845 H1857 0.929 . S
C1846 C1842 1.531 . S
C1846 H1858 0.960 . S
C1846 H1859 0.962 . S
C1846 H1860 0.960 . S
C1847 C1844 1.511 . S
C1847 H1861 0.961 . S
C1847 H1862 0.961 . S
C1847 H1863 0.961 . S
C1848 C1849 1.370 1_655 S
C1848 C1850 1.363 . S
C1848 H1864 0.931 . S
C1849 C1848 1.370 1_455 S
C1849 C1853 1.408 . S
C1850 C1848 1.363 . S
C1850 C1851 1.370 . S
C1850 C1854 1.524 . S
C1851 C1843 1.503 . S
C1851 C1850 1.370 . S
C1851 C1852 1.403 . S
C1852 C1851 1.403 . S
C1852 C1853 1.404 1_655 S
C1852 C1855 1.539 . S
C1853 C1849 1.408 . S
C1853 C1852 1.404 1_455 S
C1853 H1865 0.930 . S
C1854 C1850 1.524 . S
C1854 H1866 0.956 . S
C1854 H1867 0.961 . S
C1854 H1868 0.961 . S
C1855 C1852 1.539 . S
C1855 H1869 0.958 . S
C1855 H1870 0.961 1_655 S
C1855 H1871 0.960 . S
H1856 C1840 0.931 . S
H1857 C1845 0.929 . S
H1858 C1846 0.960 . S
H1859 C1846 0.962 . S
H1860 C1846 0.960 . S
H1861 C1847 0.961 . S
H1862 C1847 0.961 . S
H1863 C1847 0.961 . S
H1864 C1848 0.931 . S
H1865 C1853 0.930 . S
H1866 C1854 0.956 . S
H1867 C1854 0.961 . S
H1868 C1854 0.961 . S
H1869 C1855 0.958 . S
H1870 C1855 0.961 1_455 S
H1871 C1855 0.960 . S
C337 C134 1.186 . S
C345 C8 1.190 . S
C369 C22 1.210 . S
C377 C148 1.181 . S
C401 C36 1.168 . S
C409 C162 1.201 . S
C433 C50 1.195 . S
C441 C120 1.187 . S
C465 C64 1.211 . S
C473 C218 1.181 . S
C497 C176 1.176 . S
C505 C78 1.199 . S
C529 C92 1.214 . S
C537 C190 1.182 . S
C561 C204 1.216 . S
C569 C106 1.180 . S
C593 C232 1.160 . S
C601 C260 1.202 . S
C625 C316 1.216 . S
C633 C246 1.180 . S
C657 C274 1.162 . S
C665 C330 1.203 . S
C689 C302 1.181 . S
C697 C288 1.197 . S
C721 C287 1.660 . S
C729 C7 1.691 . S
C753 C21 1.724 . S
C761 C245 1.712 . S
C785 C35 1.671 . S
C793 C259 1.697 . S
C817 C49 1.722 . S
C825 C273 1.712 . S
C849 C63 1.708 . S
C857 C329 1.693 . S
C881 C301 1.720 . S
C889 C77 1.699 . S
C913 C315 1.658 . S
C921 C91 1.689 . S
C945 C231 1.713 . S
C953 C105 1.695 . S
C977 C217 1.723 . S
C985 C119 1.701 . S
C1009 C133 1.713 . S
C1017 C175 1.711 . S
C1041 C189 1.729 . S
C1049 C147 1.708 . S
C1073 C203 1.718 . S
C1081 C161 1.698 . S
C1105 C9 1.076 . S
C1113 C227 1.133 . S
C1137 C325 1.116 . S
C1145 C23 1.050 . S
C1169 C297 1.126 . S
C1177 C37 1.067 . S
C1201 C51 0.993 . S
C1209 C311 1.140 . S
C1233 C65 1.042 . S
C1241 C241 1.130 . S
C1265 C255 1.151 . S
C1273 C79 1.040 . S
C1297 C269 1.155 . S
C1305 C93 1.075 . S
C1329 C283 1.156 . S
C1337 C107 1.048 . S
C1361 C3 1.147 . S
C1369 C121 1.078 . S
C1393 C17 1.139 . S
C1401 C135 1.077 . S
C1425 C31 1.120 . S
C1433 C149 1.026 . S
C1457 C45 1.139 . S
C1465 C163 1.077 . S
C1489 C59 1.128 . S
C1497 C177 1.070 . S
C1521 C73 1.148 . S
C1529 C191 1.036 . S
C1553 C205 1.114 . S
C1561 C87 1.142 . S
C1585 C101 1.139 . S
C1593 C219 1.077 . S
C1617 C115 1.156 . S
C1625 C233 1.048 . S
C1649 C247 0.984 . S
C1657 C171 1.134 . S
C1681 C185 1.122 . S
C1689 C261 1.025 . S
C1713 C275 1.093 . S
C1721 C199 1.136 . S
C1745 C289 1.003 . S
C1753 C213 1.142 . S
C1777 C303 1.074 . S
C1785 C143 1.149 . S
C1809 C157 1.138 . S
C1817 C317 1.076 . S
C1841 C331 1.039 . S
C1849 C129 1.147 . S
