# Generated by pormake.
# Topology sml, (6)-cn, num edge types: 1
# Building blocks:
#     Node 0, Type 0, BuildingBlock: PAMTUU_clean_sbu_0, # of connection points: 6
#     Node 1, Type 0, BuildingBlock: PAMTUU_clean_sbu_0, # of connection points: 6
#     Node 2, Type 0, BuildingBlock: PAMTUU_clean_sbu_0, # of connection points: 6
#     Node 3, Type 0, BuildingBlock: PAMTUU_clean_sbu_0, # of connection points: 6
#     Node 4, Type 0, BuildingBlock: PAMTUU_clean_sbu_0, # of connection points: 6
#     Node 5, Type 0, BuildingBlock: PAMTUU_clean_sbu_0, # of connection points: 6
#     Edge 6, Type (0, 0), BuildingBlock: TEMPAE_clean_linker_10, # of connection points: 2
#     Edge 7, Type (0, 0), BuildingBlock: TEMPAE_clean_linker_10, # of connection points: 2
#     Edge 8, Type (0, 0), BuildingBlock: TEMPAE_clean_linker_10, # of connection points: 2
#     Edge 9, Type (0, 0), BuildingBlock: TEMPAE_clean_linker_10, # of connection points: 2
#     Edge 10, Type (0, 0), BuildingBlock: TEMPAE_clean_linker_10, # of connection points: 2
#     Edge 11, Type (0, 0), BuildingBlock: TEMPAE_clean_linker_10, # of connection points: 2
#     Edge 12, Type (0, 0), BuildingBlock: TEMPAE_clean_linker_10, # of connection points: 2
#     Edge 13, Type (0, 0), BuildingBlock: TEMPAE_clean_linker_10, # of connection points: 2
#     Edge 14, Type (0, 0), BuildingBlock: TEMPAE_clean_linker_10, # of connection points: 2
#     Edge 15, Type (0, 0), BuildingBlock: TEMPAE_clean_linker_10, # of connection points: 2
#     Edge 16, Type (0, 0), BuildingBlock: TEMPAE_clean_linker_10, # of connection points: 2
#     Edge 17, Type (0, 0), BuildingBlock: TEMPAE_clean_linker_10, # of connection points: 2
#     Edge 18, Type (0, 0), BuildingBlock: TEMPAE_clean_linker_10, # of connection points: 2
#     Edge 19, Type (0, 0), BuildingBlock: TEMPAE_clean_linker_10, # of connection points: 2
#     Edge 20, Type (0, 0), BuildingBlock: TEMPAE_clean_linker_10, # of connection points: 2
#     Edge 21, Type (0, 0), BuildingBlock: TEMPAE_clean_linker_10, # of connection points: 2
#     Edge 22, Type (0, 0), BuildingBlock: TEMPAE_clean_linker_10, # of connection points: 2
#     Edge 23, Type (0, 0), BuildingBlock: TEMPAE_clean_linker_10, # of connection points: 2
# Relax obj value: 0.192
# Max RMSD: 0.233
# Mean RMSD: 0.233
data_MOF--net-sml--node1-PAMTUU_clean_sbu_0--edge1-TEMPAE_clean_linker_10
_symmetry_space_group_name_H-M    P1
_symmetry_Int_Tables_number       1
_symmetry_cell_setting            triclinic
loop_
_symmetry_equiv_pos_as_xyz
'x, y, z'
_cell_length_a     33.544659
_cell_length_b     33.658681
_cell_length_c     24.959191
_cell_angle_alpha  90.091377
_cell_angle_beta   90.005146
_cell_angle_gamma 119.69093
loop_
_atom_site_label
_atom_site_type_symbol
_atom_site_fract_x
_atom_site_fract_y
_atom_site_fract_z
_atom_type_partial_charge
Tb0 Tb 0.19755 0.39868 0.06432 0.0
Tb1 Tb 0.13493 0.39529 0.95933 0.0
C2 C 0.24067 0.46255 0.96423 0.0
C3 C 0.22347 0.39608 0.20742 0.0
C4 C 0.19746 0.39006 0.31613 0.0
C5 C 0.24179 0.39893 0.302 0.0
C6 C 0.25466 0.40201 0.24815 0.0
C7 C 0.17897 0.38648 0.2211 0.0
C8 C 0.1661 0.38357 0.27494 0.0
C9 C 0.23804 0.40189 0.15096 0.0
O10 O 0.14832 0.41826 0.08999 0.0
O11 O 0.14188 0.45016 1.01228 0.0
O12 O 0.08784 0.35306 0.02128 0.0
O13 O 0.13646 0.33219 0.05985 0.0
O14 O 0.11972 0.42997 0.89999 0.0
O15 O 0.08198 0.35635 0.90468 0.0
O16 O 0.1567 0.34485 0.94662 0.0
O17 O 0.22114 0.37254 1.00022 0.0
O18 O 0.24041 0.45929 1.01676 0.0
O19 O 0.20557 0.43465 0.93461 0.0
C20 C 0.14027 0.44759 0.06484 0.0
O21 O 0.21762 0.36556 0.12075 0.0
O22 O 0.24085 0.43766 0.12725 0.0
C23 C 0.095 0.3255 0.05187 0.0
C24 C 0.09923 0.38926 0.81871 0.0
C25 C 0.11662 0.38534 0.70855 0.0
C26 C 0.07608 0.38433 0.72556 0.0
C27 C 0.0675 0.38628 0.78016 0.0
C28 C 0.13955 0.38994 0.80212 0.0
C29 C 0.14819 0.38804 0.7476 0.0
C30 C 0.09058 0.3921 0.87605 0.0
C31 C 0.19537 0.3466 0.9608 0.0
H32 H 0.26659 0.40342 0.3326 0.0
H33 H 0.28913 0.40942 0.23833 0.0
H34 H 0.15439 0.38189 0.19015 0.0
H35 H 0.13195 0.37732 0.28427 0.0
H36 H 0.05076 0.38166 0.69668 0.0
H37 H 0.03613 0.38554 0.79227 0.0
H38 H 0.16451 0.39228 0.83136 0.0
H39 H 0.18 0.3895 0.73603 0.0
Tb40 Tb 0.82807 0.23967 0.43118 0.0
Tb41 Tb 0.76623 0.18095 0.32595 0.0
C42 C 0.82318 0.28621 0.32549 0.0
C43 C 0.86185 0.26813 0.5723 0.0
C44 C 0.8438 0.24515 0.68191 0.0
C45 C 0.88267 0.28624 0.66602 0.0
C46 C 0.89156 0.2976 0.6117 0.0
C47 C 0.82329 0.22691 0.58776 0.0
C48 C 0.81432 0.21553 0.64201 0.0
C49 C 0.8706 0.2806 0.51526 0.0
O50 O 0.75721 0.20491 0.45589 0.0
O51 O 0.72385 0.19992 0.37398 0.0
O52 O 0.74469 0.1316 0.39017 0.0
O53 O 0.81045 0.1687 0.44139 0.0
O54 O 0.72254 0.17649 0.26321 0.0
O55 O 0.74551 0.12717 0.2704 0.0
O56 O 0.82894 0.17748 0.32817 0.0
O57 O 0.87627 0.24564 0.36976 0.0
O58 O 0.81991 0.28669 0.37793 0.0
O59 O 0.81492 0.2491 0.29972 0.0
C60 C 0.72247 0.19932 0.42659 0.0
O61 O 0.88141 0.2552 0.48601 0.0
O62 O 0.84023 0.28796 0.49151 0.0
C63 C 0.77181 0.13183 0.42837 0.0
C64 C 0.73905 0.15061 0.18335 0.0
C65 C 0.76397 0.16801 0.07411 0.0
C66 C 0.72059 0.13192 0.08927 0.0
C67 C 0.70826 0.12341 0.14337 0.0
C68 C 0.78268 0.18607 0.16869 0.0
C69 C 0.79501 0.19475 0.11461 0.0
C70 C 0.72497 0.14302 0.24001 0.0
C71 C 0.87003 0.21192 0.3379 0.0
H72 H 0.90644 0.30953 0.69556 0.0
H73 H 0.92157 0.32948 0.60047 0.0
H74 H 0.79989 0.2037 0.55784 0.0
H75 H 0.7838 0.18392 0.65268 0.0
H76 H 0.69611 0.11017 0.05929 0.0
H77 H 0.67449 0.09582 0.15395 0.0
H78 H 0.80696 0.20751 0.19904 0.0
H79 H 0.82844 0.22312 0.10454 0.0
Tb80 Tb 0.56853 0.82292 0.77036 0.0
Tb81 Tb 0.56356 0.75698 0.6665 0.0
C82 C 0.51263 0.81337 0.66769 0.0
C83 C 0.56407 0.85062 0.91237 0.0
C84 C 0.55741 0.82597 0.02177 0.0
C85 C 0.56113 0.86796 1.00648 0.0
C86 C 0.56453 0.88017 0.95229 0.0
C87 C 0.55973 0.80843 0.92727 0.0
C88 C 0.55651 0.79626 0.98138 0.0
C89 C 0.5693 0.8642 0.85547 0.0
O90 O 0.50702 0.75663 0.77498 0.0
O91 O 0.52911 0.71024 0.73224 0.0
O92 O 0.62067 0.76534 0.71495 0.0
O93 O 0.59994 0.78322 0.79567 0.0
O94 O 0.52235 0.70575 0.61098 0.0
O95 O 0.59606 0.74105 0.60497 0.0
O96 O 0.60263 0.82712 0.64092 0.0
O97 O 0.62769 0.86585 0.72114 0.0
O98 O 0.53945 0.84254 0.70423 0.0
O99 O 0.50845 0.77269 0.66292 0.0
C100 C 0.50344 0.71639 0.76732 0.0
O101 O 0.60609 0.86885 0.83206 0.0
O102 O 0.53309 0.84163 0.82535 0.0
C103 C 0.62467 0.77056 0.76716 0.0
C104 C 0.55448 0.72443 0.52428 0.0
C105 C 0.55114 0.74576 0.4152 0.0
C106 C 0.5449 0.70267 0.43015 0.0
C107 C 0.54658 0.69216 0.48416 0.0
C108 C 0.56028 0.76727 0.50972 0.0
C109 C 0.55858 0.77781 0.45582 0.0
C110 C 0.55741 0.71379 0.58104 0.0
C111 C 0.63095 0.86314 0.66896 0.0
H112 H 0.56241 0.89185 0.03646 0.0
H113 H 0.56799 0.91292 0.94161 0.0
H114 H 0.55913 0.78502 0.89701 0.0
H115 H 0.55307 0.76344 0.99157 0.0
H116 H 0.53964 0.67735 0.40001 0.0
H117 H 0.54215 0.65897 0.49455 0.0
H118 H 0.56635 0.7927 0.54006 0.0
H119 H 0.56285 0.81103 0.44599 0.0
Tb120 Tb 0.75247 0.56037 0.08303 0.0
Tb121 Tb 0.81254 0.56356 0.97605 0.0
C122 C 0.70708 0.50202 0.98046 0.0
C123 C 0.72361 0.5636 0.22459 0.0
C124 C 0.74801 0.57197 0.33385 0.0
C125 C 0.70499 0.56582 0.31809 0.0
C126 C 0.6929 0.56161 0.26389 0.0
C127 C 0.76681 0.5704 0.23989 0.0
C128 C 0.77889 0.57448 0.29403 0.0
C129 C 0.71024 0.55758 0.16786 0.0
O130 O 0.79638 0.53377 0.10734 0.0
O131 O 0.80273 0.50589 0.02576 0.0
O132 O 0.86194 0.5984 0.03878 0.0
O133 O 0.8195 0.62169 0.0884 0.0
O134 O 0.82298 0.52763 0.91399 0.0
O135 O 0.86585 0.60083 0.92141 0.0
O136 O 0.79966 0.62086 0.97082 0.0
O137 O 0.73355 0.59225 0.02073 0.0
O138 O 0.70893 0.50115 0.033 0.0
O139 O 0.74171 0.53144 0.95174 0.0
C140 C 0.80522 0.50669 0.07836 0.0
O141 O 0.73169 0.59391 0.13798 0.0
O142 O 0.70773 0.52162 0.14481 0.0
C143 C 0.85885 0.62468 0.07547 0.0
C144 C 0.84608 0.57009 0.83453 0.0
C145 C 0.82858 0.57626 0.7252 0.0
C146 C 0.86738 0.5734 0.74105 0.0
C147 C 0.87599 0.57029 0.79528 0.0
C148 C 0.8077 0.57359 0.81914 0.0
C149 C 0.79899 0.57661 0.76497 0.0
C150 C 0.85423 0.56504 0.89127 0.0
C151 C 0.7615 0.62032 0.98436 0.0
H152 H 0.68068 0.56439 0.34765 0.0
H153 H 0.65949 0.55653 0.25268 0.0
H154 H 0.79095 0.57199 0.20995 0.0
H155 H 0.81204 0.57863 0.30471 0.0
H156 H 0.89118 0.57369 0.71153 0.0
H157 H 0.90583 0.56772 0.80656 0.0
H158 H 0.78417 0.5734 0.84903 0.0
H159 H 0.76853 0.57819 0.7542 0.0
Tb160 Tb 0.17648 0.7482 0.40992 0.0
Tb161 Tb 0.23978 0.80826 0.30488 0.0
C162 C 0.18643 0.70163 0.30835 0.0
C163 C 0.15296 0.71504 0.55177 0.0
C164 C 0.17959 0.7329 0.66055 0.0
C165 C 0.1405 0.69174 0.6452 0.0
C166 C 0.1273 0.68295 0.59129 0.0
C167 C 0.19237 0.75584 0.56668 0.0
C168 C 0.20555 0.76471 0.62053 0.0
C169 C 0.13832 0.7063 0.49525 0.0
O170 O 0.24633 0.76094 0.41566 0.0
O171 O 0.28673 0.82915 0.37233 0.0
O172 O 0.2273 0.85601 0.35029 0.0
O173 O 0.20757 0.81926 0.43231 0.0
O174 O 0.29343 0.82047 0.25186 0.0
O175 O 0.25311 0.85366 0.24105 0.0
O176 O 0.16876 0.77657 0.28007 0.0
O177 O 0.13009 0.75995 0.36093 0.0
O178 O 0.15703 0.70037 0.34381 0.0
O179 O 0.22683 0.73821 0.30236 0.0
C180 C 0.28326 0.8011 0.41072 0.0
O181 O 0.13059 0.73683 0.4729 0.0
O182 O 0.16224 0.69492 0.46404 0.0
C183 C 0.21837 0.85488 0.40174 0.0
C184 C 0.27529 0.8304 0.16332 0.0
C185 C 0.25685 0.80503 0.05423 0.0
C186 C 0.29549 0.84668 0.06925 0.0
C187 C 0.30453 0.85926 0.1233 0.0
C188 C 0.23713 0.78846 0.14874 0.0
C189 C 0.22798 0.7759 0.09473 0.0
C190 C 0.28344 0.84492 0.21986 0.0
C191 C 0.13222 0.76671 0.3089 0.0
H192 H 0.11953 0.66673 0.67502 0.0
H193 H 0.09677 0.6513 0.58053 0.0
H194 H 0.21279 0.78098 0.53667 0.0
H195 H 0.23616 0.79643 0.63083 0.0
H196 H 0.31812 0.87014 0.03913 0.0
H197 H 0.33399 0.89186 0.1338 0.0
H198 H 0.21414 0.76568 0.17914 0.0
H199 H 0.1983 0.74335 0.08466 0.0
Tb200 Tb 0.40357 0.16539 0.74463 0.0
Tb201 Tb 0.4094 0.22719 0.63893 0.0
C202 C 0.46524 0.17762 0.64547 0.0
C203 C 0.40115 0.13364 0.88631 0.0
C204 C 0.39976 0.1526 0.99618 0.0
C205 C 0.37473 0.10747 0.97689 0.0
C206 C 0.37559 0.09807 0.92238 0.0
C207 C 0.42552 0.17886 0.90538 0.0
C208 C 0.42506 0.18819 0.95984 0.0
C209 C 0.40196 0.12347 0.82899 0.0
O210 O 0.43302 0.23502 0.77172 0.0
O211 O 0.46657 0.26961 0.69245 0.0
O212 O 0.37337 0.24313 0.699 0.0
O213 O 0.34501 0.17655 0.74747 0.0
O214 O 0.45085 0.27514 0.58127 0.0
O215 O 0.37732 0.24706 0.58074 0.0
O216 O 0.34866 0.16023 0.63034 0.0
O217 O 0.37051 0.11701 0.68046 0.0
O218 O 0.46447 0.18012 0.69793 0.0
O219 O 0.43732 0.18437 0.61542 0.0
C220 C 0.46369 0.27024 0.74493 0.0
O221 O 0.36531 0.11431 0.80151 0.0
O222 O 0.43938 0.1511 0.80321 0.0
C223 C 0.3443 0.21391 0.7337 0.0
C224 C 0.4138 0.25841 0.49691 0.0
C225 C 0.40746 0.23294 0.38793 0.0
C226 C 0.38187 0.25257 0.40792 0.0
C227 C 0.38515 0.2653 0.46182 0.0
C228 C 0.43925 0.23862 0.47722 0.0
C229 C 0.43634 0.22632 0.42329 0.0
C230 C 0.41547 0.27032 0.55412 0.0
C231 C 0.34527 0.12076 0.6428 0.0
H232 H 0.35511 0.07939 1.0041 0.0
H233 H 0.35642 0.06303 0.9084 0.0
H234 H 0.44505 0.20704 0.87825 0.0
H235 H 0.44416 0.22334 0.97349 0.0
H236 H 0.35874 0.25751 0.38213 0.0
H237 H 0.36489 0.28008 0.47628 0.0
H238 H 0.46138 0.2325 0.50344 0.0
H239 H 0.45709 0.21197 0.40927 0.0
C240 C 0.31367 0.26669 0.75006 0.0
C241 C 0.31341 0.22596 0.76244 0.0
C242 C 0.28957 0.28204 0.78159 0.0
C243 C 0.26452 0.25584 0.82631 0.0
C244 C 0.26187 0.2134 0.83724 0.0
C245 C 0.28647 0.19891 0.80511 0.0
C246 C 0.29304 0.32752 0.76877 0.0
C247 C 0.23504 0.1845 0.88444 0.0
C248 C 0.25488 0.32541 0.93889 0.0
C249 C 0.21128 0.32002 0.92946 0.0
C250 C 0.272 0.30334 0.90655 0.0
C251 C 0.24467 0.27506 0.86409 0.0
C252 C 0.19997 0.26798 0.85563 0.0
C253 C 0.1838 0.29072 0.88839 0.0
C254 C 0.32003 0.31175 0.91648 0.0
C255 C 0.16992 0.23776 0.81083 0.0
H256 H 0.33407 0.28757 0.71685 0.0
H257 H 0.28589 0.16724 0.81474 0.0
H258 H 0.25838 0.32394 0.76672 0.0
H259 H 0.31216 0.35239 0.80116 0.0
H260 H 0.31094 0.34188 0.73021 0.0
H261 H 0.23197 0.15009 0.88365 0.0
H262 H 0.25242 0.20187 0.92222 0.0
H263 H 0.2001 0.18034 0.88521 0.0
H264 H 0.27627 0.34791 0.97061 0.0
H265 H 0.14993 0.28615 0.88106 0.0
H266 H 0.34218 0.32977 0.88164 0.0
H267 H 0.31967 0.27878 0.92085 0.0
H268 H 0.33577 0.33268 0.95298 0.0
H269 H 0.18494 0.25364 0.77165 0.0
H270 H 0.13447 0.23229 0.81299 0.0
H271 H 0.16825 0.20402 0.81195 0.0
C272 C 0.01576 0.29113 0.0881 0.0
C273 C 0.05813 0.2925 0.08668 0.0
C274 C 0.98488 0.26883 0.12984 0.0
C275 C -0.00305 0.24751 0.17064 0.0
C276 C 0.03743 0.24472 0.16639 0.0
C277 C 0.06765 0.26727 0.12422 0.0
C278 C 0.94128 0.27157 0.13267 0.0
C279 C 0.05089 0.22152 0.2087 0.0
C280 C 0.94936 0.25795 0.30267 0.0
C281 C 0.90786 0.21655 0.30389 0.0
C282 C 0.98081 0.26711 0.2613 0.0
C283 C 0.97022 0.23393 0.22068 0.0
C284 C 0.93085 0.19031 0.22493 0.0
C285 C 0.90002 0.18206 0.26673 0.0
C286 C 0.02323 0.3138 0.25852 0.0
C287 C 0.91915 0.1538 0.18295 0.0
H288 H 0.00794 0.30997 0.05873 0.0
H289 H 0.10006 0.26748 0.12285 0.0
H290 H 0.91138 0.23742 0.14108 0.0
H291 H 0.94393 0.29466 0.16598 0.0
H292 H 0.9346 0.28478 0.09495 0.0
H293 H 0.0773 0.21348 0.19374 0.0
H294 H 0.06532 0.24457 0.24385 0.0
H295 H 0.02069 0.18945 0.22264 0.0
H296 H 0.95592 0.28446 0.33176 0.0
H297 H 0.86836 0.14954 0.26808 0.0
H298 H 0.01926 0.33381 0.22571 0.0
H299 H 0.05394 0.31073 0.24939 0.0
H300 H 0.02942 0.33325 0.29652 0.0
H301 H 0.90462 0.16169 0.14723 0.0
H302 H 0.89339 0.11941 0.1978 0.0
H303 H 0.95022 0.15275 0.16991 0.0
C304 C 0.78862 0.08522 0.49187 0.0
C305 C 0.75662 0.09103 0.46173 0.0
C306 C 0.77421 0.04857 0.52747 0.0
C307 C 0.72677 0.01779 0.53344 0.0
C308 C 0.69435 0.02321 0.50263 0.0
C309 C 0.70976 0.05965 0.46667 0.0
C310 C 0.80957 0.04316 0.55916 0.0
C311 C 0.64334 -0.00882 0.50855 0.0
C312 C 0.67729 0.89853 0.58778 0.0
C313 C 0.6634 0.90384 0.63896 0.0
C314 C 0.70106 0.93616 0.5541 0.0
C315 C 0.71047 0.9798 0.57204 0.0
C316 C 0.69934 0.98586 0.62502 0.0
C317 C 0.67608 0.9476 0.6582 0.0
C318 C 0.71317 0.92863 0.49812 0.0
C319 C 0.70871 0.03204 0.64521 0.0
H320 H 0.82493 0.1095 0.48788 0.0
H321 H 0.68498 0.06448 0.44387 0.0
H322 H 0.80499 0.04674 0.60258 0.0
H323 H 0.80487 0.00845 0.55287 0.0
H324 H 0.84523 0.06886 0.54785 0.0
H325 H 0.62277 0.00042 0.48171 0.0
H326 H 0.63491 0.95559 0.49942 0.0
H327 H 0.63278 -0.00825 0.55055 0.0
H328 H 0.66793 0.86463 0.57321 0.0
H329 H 0.66522 0.95163 0.69777 0.0
H330 H 0.74888 0.95483 0.488 0.0
H331 H 0.69013 0.932 0.46884 0.0
H332 H 0.70955 0.89417 0.49323 0.0
H333 H 0.74452 0.05864 0.63626 0.0
H334 H 0.70287 0.03192 0.68904 0.0
H335 H 0.68573 0.04195 0.62433 0.0
C336 C 0.66542 0.72576 0.7726 0.0
C337 C 0.6544 0.75703 0.7958 0.0
C338 C 0.68835 0.70788 0.80223 0.0
C339 C 0.70112 0.72235 0.85585 0.0
C340 C 0.69289 0.75627 0.87819 0.0
C341 C 0.66917 0.77292 0.84799 0.0
C342 C 0.69598 0.67122 0.77739 0.0
C343 C 0.70683 0.77308 0.93494 0.0
C344 C 0.70043 0.63524 0.95137 0.0
C345 C 0.74707 0.64837 0.95379 0.0
C346 C 0.6852 0.65926 0.91969 0.0
C347 C 0.71755 0.69784 0.89051 0.0
C348 C 0.76484 0.71199 0.8937 0.0
C349 C 0.77907 0.68669 0.925 0.0
C350 C 0.63433 0.64268 0.91653 0.0
C351 C 0.8002 0.75345 0.8637 0.0
H352 H 0.654 0.71338 0.73224 0.0
H353 H 0.66122 0.7976 0.86575 0.0
H354 H 0.73192 0.67912 0.78348 0.0
H355 H 0.67343 0.63801 0.79726 0.0
H356 H 0.68837 0.66723 0.73376 0.0
H357 H 0.70385 0.80391 0.94356 0.0
H358 H 0.68449 0.74576 0.96339 0.0
H359 H 0.74269 0.78129 0.94261 0.0
H360 H 0.6755 0.60526 0.97303 0.0
H361 H 0.81518 0.69691 0.92695 0.0
H362 H 0.62244 0.63419 0.87442 0.0
H363 H 0.62732 0.6701 0.9298 0.0
H364 H 0.61376 0.61193 0.94162 0.0
H365 H 0.79435 0.74777 0.81994 0.0
H366 H 0.83581 0.76131 0.87276 0.0
H367 H 0.79681 0.78372 0.87404 0.0
C368 C 0.04718 0.72558 0.30086 0.0
C369 C 0.09021 0.7571 0.28016 0.0
C370 C 0.00766 0.70966 0.26934 0.0
C371 C 0.0116 0.72638 0.21648 0.0
C372 C 0.05434 0.76128 0.19731 0.0
C373 C 0.09335 0.77598 0.22932 0.0
C374 C 0.96262 0.67202 0.29085 0.0
C375 C 0.05958 0.78044 0.14146 0.0
C376 C 0.93377 0.64155 0.11338 0.0
C377 C 0.89933 0.65333 0.10847 0.0
C378 C 0.97045 0.66518 0.14858 0.0
C379 C 0.97319 0.70216 0.1786 0.0
C380 C 0.93926 0.71513 0.17278 0.0
C381 C 0.90223 0.69008 0.13806 0.0
C382 C 0.00563 0.64979 0.15457 0.0
C383 C 0.94178 0.7549 0.20369 0.0
H384 H 0.04473 0.71099 0.34024 0.0
H385 H 0.12662 0.80097 0.21367 0.0
H386 H 0.93428 0.67897 0.28182 0.0
H387 H 0.95429 0.63924 0.27107 0.0
H388 H 0.96389 0.6677 0.33483 0.0
H389 H 0.09288 0.81247 0.1362 0.0
H390 H 0.05782 0.75495 0.11192 0.0
H391 H 0.03131 0.78746 0.13214 0.0
H392 H 0.93123 0.61269 0.09114 0.0
H393 H 0.87551 0.69912 0.1342 0.0
H394 H 0.00687 0.64023 0.19682 0.0
H395 H 0.04025 0.67819 0.14423 0.0
H396 H -0.002 0.61998 0.12864 0.0
H397 H 0.93903 0.7475 0.24724 0.0
H398 H 0.91408 0.76221 0.19213 0.0
H399 H 0.97545 0.78606 0.19692 0.0
C400 C 0.28523 0.08158 0.5726 0.0
C401 C 0.3172 0.08105 0.60838 0.0
C402 C 0.26223 0.04608 0.5355 0.0
C403 C 0.27223 0.00996 0.53389 0.0
C404 C 0.30358 0.00869 0.57086 0.0
C405 C 0.32539 0.04411 0.608 0.0
C406 C 0.22825 0.04782 0.49726 0.0
C407 C 0.3153 0.9707 0.57009 0.0
C408 C 0.20012 0.89335 0.47429 0.0
C409 C 0.22558 0.89672 0.42837 0.0
C410 C 0.21218 0.93158 0.50659 0.0
C411 C 0.25119 0.97362 0.49301 0.0
C412 C 0.27466 0.97805 0.44427 0.0
C413 C 0.26121 0.93935 0.41207 0.0
C414 C 0.18568 0.92592 0.5576 0.0
C415 C 0.31669 0.02238 0.42878 0.0
H416 H 0.2787 0.11007 0.57297 0.0
H417 H 0.35029 0.04367 0.63532 0.0
H418 H 0.24203 0.05339 0.45588 0.0
H419 H 0.19556 0.01478 0.49744 0.0
H420 H 0.22088 0.07569 0.50743 0.0
H421 H 0.34046 0.97495 0.60168 0.0
H422 H 0.28382 0.93716 0.57594 0.0
H423 H 0.3299 0.96968 0.53054 0.0
H424 H 0.17201 0.86033 0.48627 0.0
H425 H 0.28079 0.94181 0.37644 0.0
H426 H 0.1805 0.95565 0.56423 0.0
H427 H 0.20548 0.92403 0.59217 0.0
H428 H 0.15167 0.89421 0.55701 0.0
H429 H 0.3108 0.05173 0.43464 0.0
H430 H 0.32673 0.02206 0.38643 0.0
H431 H 0.34582 0.02806 0.45493 0.0
C432 C 0.14594 0.35831 0.63191 0.0
C433 C 0.12632 0.3842 0.65037 0.0
C434 C 0.15644 0.35796 0.57745 0.0
C435 C 0.14708 0.38408 0.54032 0.0
C436 C 0.12677 0.40984 0.55852 0.0
C437 C 0.11668 0.40961 0.61323 0.0
C438 C 0.17797 0.32994 0.55971 0.0
C439 C 0.11639 0.43828 0.52031 0.0
C440 C 0.21553 0.41999 0.41053 0.0
C441 C 0.18434 0.38837 0.37357 0.0
C442 C 0.20383 0.41895 0.46475 0.0
C443 C 0.15977 0.38552 0.48272 0.0
C444 C 0.128 0.3536 0.44566 0.0
C445 C 0.14065 0.3554 0.39161 0.0
C446 C 0.23863 0.45377 0.50284 0.0
C447 C 0.08071 0.3174 0.46316 0.0
H448 H 0.15291 0.33804 0.6601 0.0
H449 H 0.1021 0.4302 0.62711 0.0
H450 H 0.15656 0.30526 0.52821 0.0
H451 H 0.21219 0.35263 0.54191 0.0
H452 H 0.18215 0.31071 0.59333 0.0
H453 H 0.09921 0.4552 0.54048 0.0
H454 H 0.14867 0.465 0.50184 0.0
H455 H 0.09399 0.41651 0.48735 0.0
H456 H 0.24905 0.44609 0.39689 0.0
H457 H 0.11646 0.33052 0.36355 0.0
H458 H 0.24596 0.43616 0.53571 0.0
H459 H 0.22458 0.4742 0.52144 0.0
H460 H 0.27143 0.47747 0.48258 0.0
H461 H 0.08354 0.29521 0.49399 0.0
H462 H 0.05976 0.29559 0.42928 0.0
H463 H 0.06231 0.33368 0.48178 0.0
C464 C 0.82076 0.19124 0.99829 0.0
C465 C 0.77632 0.17833 1.01635 0.0
C466 C 0.83291 0.20182 0.94413 0.0
C467 C 0.79985 0.19934 0.90692 0.0
C468 C 0.7549 0.1861 0.92478 0.0
C469 C 0.74375 0.17588 0.97916 0.0
C470 C 0.88119 0.21577 0.92674 0.0
C471 C 0.71866 0.18315 0.8865 0.0
C472 C 0.83988 0.26736 0.77723 0.0
C473 C 0.8336 0.23353 0.73983 0.0
C474 C 0.82952 0.2568 0.83171 0.0
C475 C 0.81234 0.21124 0.84944 0.0
C476 C 0.80617 0.17696 0.81202 0.0
C477 C 0.8169 0.1885 0.75777 0.0
C478 C 0.83641 0.29434 0.87022 0.0
C479 C 0.78796 0.12799 0.82924 0.0
H480 H 0.84604 0.19272 0.02648 0.0
H481 H 0.70957 0.16673 0.99273 0.0
H482 H 0.88043 0.19192 0.89549 0.0
H483 H 0.89757 0.25041 0.9087 0.0
H484 H 0.90287 0.21607 0.96057 0.0
H485 H 0.68508 0.17146 0.90651 0.0
H486 H 0.72995 0.21714 0.86831 0.0
H487 H 0.71378 0.15916 0.85335 0.0
H488 H 0.85208 0.30209 0.76373 0.0
H489 H 0.81249 0.16222 0.72938 0.0
H490 H 0.85964 0.2967 0.90324 0.0
H491 H 0.80311 0.28626 0.88857 0.0
H492 H 0.85114 0.32822 0.85036 0.0
H493 H 0.81057 0.12626 0.86049 0.0
H494 H 0.78552 0.10546 0.79532 0.0
H495 H 0.75338 0.11444 0.8472 0.0
C496 C 0.51876 0.72527 0.32165 0.0
C497 C 0.55073 0.75751 0.35752 0.0
C498 C 0.51856 0.73574 0.26711 0.0
C499 C 0.55118 0.77951 0.24768 0.0
C500 C 0.58334 0.81229 0.28371 0.0
C501 C 0.58272 0.80093 0.33804 0.0
C502 C 0.48351 0.69986 0.23019 0.0
C503 C 0.61881 0.85929 0.26474 0.0
C504 C 0.58037 0.79331 0.09874 0.0
C505 C 0.55522 0.81351 0.07958 0.0
C506 C 0.57922 0.78195 0.15315 0.0
C507 C 0.55215 0.79083 0.18956 0.0
C508 C 0.52644 0.81094 0.17047 0.0
C509 C 0.52836 0.82211 0.11585 0.0
C510 C 0.60734 0.76079 0.17177 0.0
C511 C 0.49691 0.82072 0.20779 0.0
H512 H 0.4935 0.69187 0.33635 0.0
H513 H 0.60798 0.82591 0.36514 0.0
H514 H 0.46267 0.71309 0.21077 0.0
H515 H 0.50112 0.69186 0.19783 0.0
H516 H 0.46009 0.6677 0.2516 0.0
H517 H 0.6409 0.88116 0.29791 0.0
H518 H 0.64099 0.85628 0.23389 0.0
H519 H 0.60168 0.87666 0.24572 0.0
H520 H 0.60171 0.78708 0.07127 0.0
H521 H 0.50836 0.83717 0.10138 0.0
H522 H 0.58476 0.72726 0.19091 0.0
H523 H 0.63253 0.78302 0.20243 0.0
H524 H 0.62621 0.75561 0.13839 0.0
H525 H 0.47117 0.78866 0.2275 0.0
H526 H 0.47861 0.83601 0.18663 0.0
H527 H 0.51843 0.84455 0.2399 0.0
C528 C 0.80205 0.60663 0.64949 0.0
C529 C 0.81841 0.57782 0.66743 0.0
C530 C 0.7911 0.60739 0.59532 0.0
C531 C 0.79674 0.57875 0.55813 0.0
C532 C 0.81369 0.54997 0.57585 0.0
C533 C 0.82423 0.54979 0.63024 0.0
C534 C 0.77313 0.63856 0.57796 0.0
C535 C 0.82012 0.51887 0.53744 0.0
C536 C 0.72765 0.54554 0.42896 0.0
C537 C 0.76026 0.57473 0.3916 0.0
C538 C 0.73893 0.5469 0.48334 0.0
C539 C 0.78399 0.57807 0.50086 0.0
C540 C 0.81701 0.60786 0.4635 0.0
C541 C 0.80474 0.60589 0.40936 0.0
C542 C 0.70277 0.51452 0.52193 0.0
C543 C 0.86541 0.64157 0.48065 0.0
H544 H 0.79802 0.62883 0.67781 0.0
H545 H 0.83618 0.52693 0.64385 0.0
H546 H 0.79553 0.6622 0.54633 0.0
H547 H 0.73833 0.61804 0.56043 0.0
H548 H 0.77126 0.65913 0.61171 0.0
H549 H 0.83483 0.4995 0.55733 0.0
H550 H 0.78664 0.49409 0.51937 0.0
H551 H 0.84317 0.53916 0.50422 0.0
H552 H 0.69343 0.52088 0.4155 0.0
H553 H 0.82997 0.62898 0.38092 0.0
H554 H 0.69838 0.53405 0.55504 0.0
H555 H 0.71384 0.4915 0.54014 0.0
H556 H 0.669 0.49324 0.50217 0.0
H557 H 0.8649 0.66471 0.51201 0.0
H558 H 0.88689 0.66264 0.44673 0.0
H559 H 0.88186 0.62307 0.49845 0.0
C560 C 0.19103 0.70923 0.7523 0.0
C561 C 0.19259 0.74307 0.71815 0.0
C562 C 0.20225 0.7182 0.80695 0.0
C563 C 0.21507 0.76199 0.82816 0.0
C564 C 0.217 0.79637 0.79382 0.0
C565 C 0.20587 0.78654 0.73931 0.0
C566 C 0.20017 0.68073 0.84206 0.0
C567 C 0.23021 0.84341 0.81482 0.0
C568 C 0.20084 0.77397 0.97772 0.0
C569 C 0.24605 0.79266 0.99654 0.0
C570 C 0.19026 0.76349 0.92321 0.0
C571 C 0.22569 0.77169 0.88644 0.0
C572 C 0.27131 0.78999 0.90525 0.0
C573 C 0.28095 0.80034 0.95997 0.0
C574 C 0.14121 0.74426 0.90484 0.0
C575 C 0.31002 0.79891 0.86747 0.0
H576 H 0.18136 0.67574 0.73616 0.0
H577 H 0.20661 0.81272 0.71339 0.0
H578 H 0.23399 0.69232 0.86131 0.0
H579 H 0.17482 0.6728 0.87462 0.0
H580 H 0.19046 0.64884 0.81925 0.0
H581 H 0.23077 0.86655 0.78277 0.0
H582 H 0.20558 0.84074 0.8462 0.0
H583 H 0.26465 0.85915 0.83372 0.0
H584 H 0.17375 0.76848 1.0055 0.0
H585 H 0.31587 0.81422 0.97425 0.0
H586 H 0.12934 0.71104 0.88422 0.0
H587 H 0.13899 0.76781 0.87548 0.0
H588 H 0.11751 0.73902 0.93859 0.0
H589 H 0.30238 0.76691 0.84625 0.0
H590 H 0.34341 0.81228 0.88857 0.0
H591 H 0.31339 0.82405 0.83657 0.0
C592 C 0.40493 0.17959 0.31568 0.0
C593 C 0.40425 0.21953 0.33047 0.0
C594 C 0.40341 0.16732 0.26162 0.0
C595 C 0.40047 0.19528 0.2213 0.0
C596 C 0.39885 0.23511 0.23589 0.0
C597 C 0.40108 0.24692 0.29021 0.0
C598 C 0.40551 0.12472 0.24765 0.0
C599 C 0.3953 0.26559 0.19405 0.0
C600 C 0.44128 0.1912 0.0805 0.0
C601 C 0.39983 0.16269 0.05406 0.0
C602 C 0.442 0.20159 0.13508 0.0
C603 C 0.40018 0.18349 0.16374 0.0
C604 C 0.3582 0.15464 0.13725 0.0
C605 C 0.35856 0.14433 0.08276 0.0
C606 C 0.48751 0.23195 0.16206 0.0
C607 C 0.3129 0.1352 0.16629 0.0
H608 H 0.40648 0.1577 0.34642 0.0
H609 H 0.40118 0.27816 0.30104 0.0
H610 H 0.37481 0.10096 0.22404 0.0
H611 H 0.43601 0.13384 0.2223 0.0
H612 H 0.40741 0.10649 0.28379 0.0
H613 H 0.39224 0.29415 0.21209 0.0
H614 H 0.4261 0.28022 0.16797 0.0
H615 H 0.36503 0.24531 0.16801 0.0
H616 H 0.47327 0.20502 0.05852 0.0
H617 H 0.32645 0.12262 0.06225 0.0
H618 H 0.49193 0.21387 0.19672 0.0
H619 H 0.48835 0.26319 0.17781 0.0
H620 H 0.51698 0.2424 0.13439 0.0
H621 H 0.31269 0.11479 0.20124 0.0
H622 H 0.28334 0.11311 0.14001 0.0
H623 H 0.30812 0.16345 0.1819 0.0
C624 C 0.12885 0.47431 0.15348 0.0
C625 C 0.13348 0.48035 0.09772 0.0
C626 C 0.13115 0.50864 0.18713 0.0
C627 C 0.13761 0.54988 0.16446 0.0
C628 C 0.13845 0.55476 0.10802 0.0
C629 C 0.13655 0.51989 0.07517 0.0
C630 C 0.13027 0.50206 0.24709 0.0
C631 C 0.14441 0.59799 0.08246 0.0
C632 C 0.12729 0.6324 0.25989 0.0
C633 C 0.1735 0.66222 0.27254 0.0
C634 C 0.11493 0.5964 0.2233 0.0
C635 C 0.14961 0.58968 0.19995 0.0
C636 C 0.19628 0.61976 0.21274 0.0
C637 C 0.20766 0.65594 0.24846 0.0
C638 C 0.06492 0.56566 0.20963 0.0
C639 C 0.23426 0.61334 0.18931 0.0
H640 H 0.12569 0.44353 0.17133 0.0
H641 H 0.1398 0.52466 0.03213 0.0
H642 H 0.1648 0.52534 0.26392 0.0
H643 H 0.10585 0.51089 0.26628 0.0
H644 H 0.12049 0.46639 0.2581 0.0
H645 H 0.13712 0.59365 0.03877 0.0
H646 H 0.12153 0.60888 0.10165 0.0
H647 H 0.18024 0.62596 0.08832 0.0
H648 H 0.10086 0.63779 0.2777 0.0
H649 H 0.2434 0.67908 0.25804 0.0
H650 H 0.05362 0.53028 0.22319 0.0
H651 H 0.05998 0.56432 0.16557 0.0
H652 H 0.0425 0.57735 0.2285 0.0
H653 H 0.22925 0.57933 0.20081 0.0
H654 H 0.26879 0.64 0.20307 0.0
H655 H 0.23329 0.61431 0.14493 0.0
C656 C 0.65745 0.21306 0.44416 0.0
C657 C 0.67985 0.18826 0.45437 0.0
C658 C 0.62033 0.20671 0.47608 0.0
C659 C 0.60475 0.17373 0.51768 0.0
C660 C 0.62568 0.14663 0.52571 0.0
C661 C 0.66368 0.1549 0.49454 0.0
C662 C 0.59929 0.23677 0.46701 0.0
C663 C 0.60885 0.10987 0.5681 0.0
C664 C 0.5459 0.19552 0.63431 0.0
C665 C 0.5 0.17063 0.61839 0.0
C666 C 0.58049 0.19591 0.60241 0.0
C667 C 0.56836 0.16962 0.55463 0.0
C668 C 0.52164 0.14188 0.54059 0.0
C669 C 0.48797 0.1434 0.57223 0.0
C670 C 0.63005 0.22656 0.61809 0.0
C671 C 0.50729 0.11208 0.49111 0.0
H672 H 0.67045 0.239 0.41316 0.0
H673 H 0.68111 0.13554 0.50182 0.0
H674 H 0.56188 0.21549 0.45978 0.0
H675 H 0.60383 0.25758 0.50342 0.0
H676 H 0.61495 0.2602 0.43244 0.0
H677 H 0.62498 0.08804 0.56435 0.0
H678 H 0.61686 0.12586 0.60843 0.0
H679 H 0.57103 0.08778 0.56551 0.0
H680 H 0.55496 0.21694 0.66977 0.0
H681 H 0.45221 0.12403 0.56028 0.0
H682 H 0.64758 0.25324 0.58704 0.0
H683 H 0.64815 0.20657 0.62036 0.0
H684 H 0.63357 0.24367 0.65731 0.0
H685 H 0.51659 0.13385 0.45483 0.0
H686 H 0.46973 0.08786 0.49021 0.0
H687 H 0.52559 0.09224 0.48892 0.0
C688 C 0.32427 0.52096 0.9636 0.0
C689 C 0.28212 0.4976 0.9367 0.0
C690 C 0.36356 0.55434 0.9372 0.0
C691 C 0.36021 0.56483 0.88307 0.0
C692 C 0.31796 0.54073 0.85551 0.0
C693 C 0.27949 0.50727 0.88259 0.0
C694 C 0.40832 0.57915 0.96752 0.0
C695 C 0.3129 0.55145 0.79796 0.0
C696 C 0.43825 0.68399 0.83146 0.0
C697 C 0.46824 0.6774 0.79821 0.0
C698 C 0.40382 0.64781 0.86044 0.0
C699 C 0.39942 0.60392 0.85648 0.0
C700 C 0.43031 0.59713 0.82434 0.0
C701 C 0.46438 0.63404 0.79527 0.0
C702 C 0.37128 0.65633 0.89402 0.0
C703 C 0.42674 0.55074 0.81982 0.0
H704 H 0.32661 0.5132 1.00522 0.0
H705 H 0.24703 0.48933 0.86148 0.0
H706 H 0.43624 0.57853 0.94436 0.0
H707 H 0.41795 0.61554 0.97295 0.0
H708 H 0.40624 0.56395 1.00762 0.0
H709 H 0.27835 0.52765 0.78141 0.0
H710 H 0.31875 0.58684 0.7952 0.0
H711 H 0.33905 0.54965 0.77247 0.0
H712 H 0.44107 0.71742 0.83436 0.0
H713 H 0.48776 0.62885 0.77013 0.0
H714 H 0.37088 0.64514 0.93588 0.0
H715 H 0.33586 0.63597 0.87808 0.0
H716 H 0.38065 0.69295 0.8945 0.0
H717 H 0.42611 0.53682 0.86028 0.0
H718 H 0.45566 0.55199 0.79674 0.0
H719 H 0.39411 0.52653 0.79965 0.0
C720 C 0.85873 0.33558 0.24628 0.0
C721 C 0.83269 0.32639 0.29321 0.0
C722 C 0.86164 0.36841 0.20964 0.0
C723 C 0.83654 0.39125 0.21945 0.0
C724 C 0.81169 0.38336 0.26795 0.0
C725 C 0.81065 0.35138 0.30476 0.0
C726 C 0.88987 0.37707 0.15942 0.0
C727 C 0.78381 0.40647 0.2794 0.0
C728 C 0.854 0.49643 0.1447 0.0
C729 C 0.81852 0.4771 0.10692 0.0
C730 C 0.86238 0.4687 0.1794 0.0
C731 C 0.83323 0.42072 0.17752 0.0
C732 C 0.79838 0.40104 0.13791 0.0
C733 C 0.79188 0.42963 0.10239 0.0
C734 C 0.90105 0.49089 0.21951 0.0
C735 C 0.76605 0.35006 0.13526 0.0
H736 H 0.87588 0.31617 0.23757 0.0
H737 H 0.79006 0.34371 0.34078 0.0
H738 H 0.86678 0.36232 0.12436 0.0
H739 H 0.91153 0.41435 0.15231 0.0
H740 H 0.91235 0.36156 0.16157 0.0
H741 H 0.76766 0.39775 0.31969 0.0
H742 H 0.80574 0.44414 0.27672 0.0
H743 H 0.75633 0.39596 0.24885 0.0
H744 H 0.87445 0.53336 0.14795 0.0
H745 H 0.76408 0.41504 0.07349 0.0
H746 H 0.92124 0.4729 0.22036 0.0
H747 H 0.88674 0.48844 0.2602 0.0
H748 H 0.92454 0.52758 0.21036 0.0
H749 H 0.78566 0.33161 0.13194 0.0
H750 H 0.74199 0.34015 0.10082 0.0
H751 H 0.74571 0.33847 0.17278 0.0
C752 C 0.31145 0.78968 0.49809 0.0
C753 C 0.32053 0.81447 0.45027 0.0
C754 C 0.34612 0.79976 0.53559 0.0
C755 C 0.39127 0.83523 0.52479 0.0
C756 C 0.40018 0.86236 0.47823 0.0
C757 C 0.36453 0.85169 0.4414 0.0
C758 C 0.33486 0.77033 0.58511 0.0
C759 C 0.44778 0.90086 0.46581 0.0
C760 C 0.47243 0.85677 0.64127 0.0
C761 C 0.48707 0.82539 0.62909 0.0
C762 C 0.44347 0.86317 0.60575 0.0
C763 C 0.42951 0.8378 0.55729 0.0
C764 C 0.44734 0.80894 0.54325 0.0
C765 C 0.47564 0.80299 0.57939 0.0
C766 C 0.42565 0.8948 0.62156 0.0
C767 C 0.43401 0.78167 0.49171 0.0
H768 H 0.27724 0.7616 0.50596 0.0
H769 H 0.37153 0.8715 0.40493 0.0
H770 H 0.3506 0.74817 0.58179 0.0
H771 H 0.34927 0.79191 0.62135 0.0
H772 H 0.29727 0.74811 0.59077 0.0
H773 H 0.44732 0.924 0.43444 0.0
H774 H 0.46443 0.9212 0.50234 0.0
H775 H 0.46924 0.88643 0.45128 0.0
H776 H 0.48173 0.87455 0.67942 0.0
H777 H 0.48779 0.7795 0.5692 0.0
H778 H 0.38994 0.87427 0.63642 0.0
H779 H 0.42496 0.91477 0.58661 0.0
H780 H 0.44678 0.91885 0.6538 0.0
H781 H 0.39728 0.75492 0.49346 0.0
H782 H 0.45471 0.76468 0.48438 0.0
H783 H 0.43833 0.80404 0.45707 0.0
C784 C 0.64948 0.48691 0.91024 0.0
C785 C 0.66514 0.47029 0.95185 0.0
C786 C 0.61343 0.4569 0.87704 0.0
C787 C 0.59393 0.40924 0.88468 0.0
C788 C 0.60868 0.39237 0.9279 0.0
C789 C 0.64387 0.42335 0.96166 0.0
C790 C 0.59743 0.47618 0.83269 0.0
C791 C 0.58915 0.34169 0.93664 0.0
C792 C 0.48133 0.32334 0.82124 0.0
C793 C 0.49651 0.31012 0.77589 0.0
C794 C 0.51261 0.35722 0.85583 0.0
C795 C 0.56013 0.37698 0.8456 0.0
C796 C 0.57555 0.36452 0.79897 0.0
C797 C 0.54332 0.33158 0.76406 0.0
C798 C 0.49486 0.37083 0.90404 0.0
C799 C 0.62606 0.3843 0.78736 0.0
H800 H 0.66606 0.52347 0.90315 0.0
H801 H 0.65657 0.41082 0.99366 0.0
H802 H 0.6078 0.46886 0.79335 0.0
H803 H 0.55944 0.45968 0.83272 0.0
H804 H 0.61213 0.51378 0.83649 0.0
H805 H 0.6033 0.33426 0.97311 0.0
H806 H 0.55127 0.32441 0.94033 0.0
H807 H 0.59702 0.32654 0.90147 0.0
H808 H 0.4449 0.30662 0.83004 0.0
H809 H 0.55483 0.32074 0.72924 0.0
H810 H 0.51133 0.40863 0.90675 0.0
H811 H 0.50369 0.35878 0.94113 0.0
H812 H 0.45702 0.35617 0.90267 0.0
H813 H 0.64321 0.42213 0.78535 0.0
H814 H 0.63226 0.37133 0.7491 0.0
H815 H 0.64249 0.37552 0.82037 0.0
loop_
_geom_bond_atom_site_label_1
_geom_bond_atom_site_label_2
_geom_bond_distance
_geom_bond_site_symmetry_2
_ccdc_geom_bond_type
Tb0 C9 2.764 . S
Tb0 O10 2.325 . S
Tb0 O13 2.303 . S
Tb0 O17 2.322 . S
Tb0 O18 2.349 . S
Tb0 O21 2.415 . S
Tb0 O22 2.399 . S
Tb1 O11 2.322 1_556 S
Tb1 O12 2.349 . S
Tb1 O14 2.415 . S
Tb1 O15 2.399 . S
Tb1 O16 2.325 . S
Tb1 O19 2.303 . S
Tb1 C30 2.764 . S
C2 O18 1.261 1_556 S
C2 O19 1.257 . S
C3 C6 1.358 . S
C3 C7 1.332 . S
C3 C9 1.504 . S
C4 C5 1.373 . S
C4 C8 1.308 . S
C5 C4 1.373 . S
C5 C6 1.429 . S
C5 H32 0.932 . S
C6 C3 1.358 . S
C6 C5 1.429 . S
C6 H33 0.930 . S
C7 C3 1.332 . S
C7 C8 1.394 . S
C7 H34 0.932 . S
C8 C4 1.308 . S
C8 C7 1.394 . S
C8 H35 0.929 . S
C9 Tb0 2.764 . S
C9 C3 1.504 . S
C9 O21 1.239 . S
C9 O22 1.263 . S
O10 Tb0 2.325 . S
O10 C20 1.236 . S
O11 Tb1 2.322 1_554 S
O11 C20 1.257 . S
O12 Tb1 2.349 . S
O12 C23 1.261 1_556 S
O13 Tb0 2.303 . S
O13 C23 1.257 . S
O14 Tb1 2.415 . S
O14 C30 1.239 . S
O15 Tb1 2.399 . S
O15 C30 1.263 . S
O16 Tb1 2.325 . S
O16 C31 1.236 . S
O17 Tb0 2.322 . S
O17 C31 1.257 1_554 S
O18 Tb0 2.349 . S
O18 C2 1.261 1_554 S
O19 Tb1 2.303 . S
O19 C2 1.257 . S
C20 O10 1.236 . S
C20 O11 1.257 . S
O21 Tb0 2.415 . S
O21 C9 1.239 . S
O22 Tb0 2.399 . S
O22 C9 1.263 . S
C23 O12 1.261 1_554 S
C23 O13 1.257 . S
C24 C27 1.358 . S
C24 C28 1.332 . S
C24 C30 1.504 . S
C25 C26 1.373 . S
C25 C29 1.308 . S
C26 C25 1.373 . S
C26 C27 1.429 . S
C26 H36 0.932 . S
C27 C24 1.358 . S
C27 C26 1.429 . S
C27 H37 0.930 . S
C28 C24 1.332 . S
C28 C29 1.394 . S
C28 H38 0.932 . S
C29 C25 1.308 . S
C29 C28 1.394 . S
C29 H39 0.929 . S
C30 Tb1 2.764 . S
C30 O14 1.239 . S
C30 O15 1.263 . S
C30 C24 1.504 . S
C31 O16 1.236 . S
C31 O17 1.257 1_556 S
H32 C5 0.932 . S
H33 C6 0.930 . S
H34 C7 0.932 . S
H35 C8 0.929 . S
H36 C26 0.932 . S
H37 C27 0.930 . S
H38 C28 0.932 . S
H39 C29 0.929 . S
Tb40 C49 2.764 . S
Tb40 O50 2.325 . S
Tb40 O53 2.303 . S
Tb40 O57 2.322 . S
Tb40 O58 2.349 . S
Tb40 O61 2.415 . S
Tb40 O62 2.399 . S
Tb41 O51 2.322 . S
Tb41 O52 2.349 . S
Tb41 O54 2.415 . S
Tb41 O55 2.399 . S
Tb41 O56 2.325 . S
Tb41 O59 2.303 . S
Tb41 C70 2.764 . S
C42 O58 1.261 . S
C42 O59 1.257 . S
C43 C46 1.358 . S
C43 C47 1.332 . S
C43 C49 1.504 . S
C44 C45 1.373 . S
C44 C48 1.308 . S
C45 C44 1.373 . S
C45 C46 1.429 . S
C45 H72 0.932 . S
C46 C43 1.358 . S
C46 C45 1.429 . S
C46 H73 0.930 . S
C47 C43 1.332 . S
C47 C48 1.394 . S
C47 H74 0.932 . S
C48 C44 1.308 . S
C48 C47 1.394 . S
C48 H75 0.929 . S
C49 Tb40 2.764 . S
C49 C43 1.504 . S
C49 O61 1.239 . S
C49 O62 1.263 . S
O50 Tb40 2.325 . S
O50 C60 1.236 . S
O51 Tb41 2.322 . S
O51 C60 1.257 . S
O52 Tb41 2.349 . S
O52 C63 1.261 . S
O53 Tb40 2.303 . S
O53 C63 1.257 . S
O54 Tb41 2.415 . S
O54 C70 1.239 . S
O55 Tb41 2.399 . S
O55 C70 1.263 . S
O56 Tb41 2.325 . S
O56 C71 1.236 . S
O57 Tb40 2.322 . S
O57 C71 1.257 . S
O58 Tb40 2.349 . S
O58 C42 1.261 . S
O59 Tb41 2.303 . S
O59 C42 1.257 . S
C60 O50 1.236 . S
C60 O51 1.257 . S
O61 Tb40 2.415 . S
O61 C49 1.239 . S
O62 Tb40 2.399 . S
O62 C49 1.263 . S
C63 O52 1.261 . S
C63 O53 1.257 . S
C64 C67 1.358 . S
C64 C68 1.332 . S
C64 C70 1.504 . S
C65 C66 1.373 . S
C65 C69 1.308 . S
C66 C65 1.373 . S
C66 C67 1.429 . S
C66 H76 0.932 . S
C67 C64 1.358 . S
C67 C66 1.429 . S
C67 H77 0.930 . S
C68 C64 1.332 . S
C68 C69 1.394 . S
C68 H78 0.932 . S
C69 C65 1.308 . S
C69 C68 1.394 . S
C69 H79 0.929 . S
C70 Tb41 2.764 . S
C70 O54 1.239 . S
C70 O55 1.263 . S
C70 C64 1.504 . S
C71 O56 1.236 . S
C71 O57 1.257 . S
H72 C45 0.932 . S
H73 C46 0.930 . S
H74 C47 0.932 . S
H75 C48 0.929 . S
H76 C66 0.932 . S
H77 C67 0.930 . S
H78 C68 0.932 . S
H79 C69 0.929 . S
Tb80 C89 2.764 . S
Tb80 O90 2.325 . S
Tb80 O93 2.303 . S
Tb80 O97 2.322 . S
Tb80 O98 2.349 . S
Tb80 O101 2.415 . S
Tb80 O102 2.399 . S
Tb81 O91 2.322 . S
Tb81 O92 2.349 . S
Tb81 O94 2.415 . S
Tb81 O95 2.399 . S
Tb81 O96 2.325 . S
Tb81 O99 2.303 . S
Tb81 C110 2.764 . S
C82 O98 1.261 . S
C82 O99 1.257 . S
C83 C86 1.358 . S
C83 C87 1.332 . S
C83 C89 1.504 . S
C84 C85 1.373 1_554 S
C84 C88 1.308 1_554 S
C85 C84 1.373 1_556 S
C85 C86 1.429 . S
C85 H112 0.932 . S
C86 C83 1.358 . S
C86 C85 1.429 . S
C86 H113 0.930 . S
C87 C83 1.332 . S
C87 C88 1.394 . S
C87 H114 0.932 . S
C88 C84 1.308 1_556 S
C88 C87 1.394 . S
C88 H115 0.929 1_556 S
C89 Tb80 2.764 . S
C89 C83 1.504 . S
C89 O101 1.239 . S
C89 O102 1.263 . S
O90 Tb80 2.325 . S
O90 C100 1.236 . S
O91 Tb81 2.322 . S
O91 C100 1.257 . S
O92 Tb81 2.349 . S
O92 C103 1.261 . S
O93 Tb80 2.303 . S
O93 C103 1.257 . S
O94 Tb81 2.415 . S
O94 C110 1.239 . S
O95 Tb81 2.399 . S
O95 C110 1.263 . S
O96 Tb81 2.325 . S
O96 C111 1.236 . S
O97 Tb80 2.322 . S
O97 C111 1.257 . S
O98 Tb80 2.349 . S
O98 C82 1.261 . S
O99 Tb81 2.303 . S
O99 C82 1.257 . S
C100 O90 1.236 . S
C100 O91 1.257 . S
O101 Tb80 2.415 . S
O101 C89 1.239 . S
O102 Tb80 2.399 . S
O102 C89 1.263 . S
C103 O92 1.261 . S
C103 O93 1.257 . S
C104 C107 1.358 . S
C104 C108 1.332 . S
C104 C110 1.504 . S
C105 C106 1.373 . S
C105 C109 1.308 . S
C106 C105 1.373 . S
C106 C107 1.429 . S
C106 H116 0.932 . S
C107 C104 1.358 . S
C107 C106 1.429 . S
C107 H117 0.930 . S
C108 C104 1.332 . S
C108 C109 1.394 . S
C108 H118 0.932 . S
C109 C105 1.308 . S
C109 C108 1.394 . S
C109 H119 0.929 . S
C110 Tb81 2.764 . S
C110 O94 1.239 . S
C110 O95 1.263 . S
C110 C104 1.504 . S
C111 O96 1.236 . S
C111 O97 1.257 . S
H112 C85 0.932 . S
H113 C86 0.930 . S
H114 C87 0.932 . S
H115 C88 0.929 1_554 S
H116 C106 0.932 . S
H117 C107 0.930 . S
H118 C108 0.932 . S
H119 C109 0.929 . S
Tb120 C129 2.764 . S
Tb120 O130 2.325 . S
Tb120 O133 2.303 . S
Tb120 O137 2.322 . S
Tb120 O138 2.349 . S
Tb120 O141 2.415 . S
Tb120 O142 2.399 . S
Tb121 O131 2.322 1_556 S
Tb121 O132 2.349 . S
Tb121 O134 2.415 . S
Tb121 O135 2.399 . S
Tb121 O136 2.325 . S
Tb121 O139 2.303 . S
Tb121 C150 2.764 . S
C122 O138 1.261 1_556 S
C122 O139 1.257 . S
C123 C126 1.358 . S
C123 C127 1.332 . S
C123 C129 1.504 . S
C124 C125 1.373 . S
C124 C128 1.308 . S
C125 C124 1.373 . S
C125 C126 1.429 . S
C125 H152 0.932 . S
C126 C123 1.358 . S
C126 C125 1.429 . S
C126 H153 0.930 . S
C127 C123 1.332 . S
C127 C128 1.394 . S
C127 H154 0.932 . S
C128 C124 1.308 . S
C128 C127 1.394 . S
C128 H155 0.929 . S
C129 Tb120 2.764 . S
C129 C123 1.504 . S
C129 O141 1.239 . S
C129 O142 1.263 . S
O130 Tb120 2.325 . S
O130 C140 1.236 . S
O131 Tb121 2.322 1_554 S
O131 C140 1.257 . S
O132 Tb121 2.349 . S
O132 C143 1.261 1_556 S
O133 Tb120 2.303 . S
O133 C143 1.257 . S
O134 Tb121 2.415 . S
O134 C150 1.239 . S
O135 Tb121 2.399 . S
O135 C150 1.263 . S
O136 Tb121 2.325 . S
O136 C151 1.236 . S
O137 Tb120 2.322 . S
O137 C151 1.257 1_554 S
O138 Tb120 2.349 . S
O138 C122 1.261 1_554 S
O139 Tb121 2.303 . S
O139 C122 1.257 . S
C140 O130 1.236 . S
C140 O131 1.257 . S
O141 Tb120 2.415 . S
O141 C129 1.239 . S
O142 Tb120 2.399 . S
O142 C129 1.263 . S
C143 O132 1.261 1_554 S
C143 O133 1.257 . S
C144 C147 1.358 . S
C144 C148 1.332 . S
C144 C150 1.504 . S
C145 C146 1.373 . S
C145 C149 1.308 . S
C146 C145 1.373 . S
C146 C147 1.429 . S
C146 H156 0.932 . S
C147 C144 1.358 . S
C147 C146 1.429 . S
C147 H157 0.930 . S
C148 C144 1.332 . S
C148 C149 1.394 . S
C148 H158 0.932 . S
C149 C145 1.308 . S
C149 C148 1.394 . S
C149 H159 0.929 . S
C150 Tb121 2.764 . S
C150 O134 1.239 . S
C150 O135 1.263 . S
C150 C144 1.504 . S
C151 O136 1.236 . S
C151 O137 1.257 1_556 S
H152 C125 0.932 . S
H153 C126 0.930 . S
H154 C127 0.932 . S
H155 C128 0.929 . S
H156 C146 0.932 . S
H157 C147 0.930 . S
H158 C148 0.932 . S
H159 C149 0.929 . S
Tb160 C169 2.764 . S
Tb160 O170 2.325 . S
Tb160 O173 2.303 . S
Tb160 O177 2.322 . S
Tb160 O178 2.349 . S
Tb160 O181 2.415 . S
Tb160 O182 2.399 . S
Tb161 O171 2.322 . S
Tb161 O172 2.349 . S
Tb161 O174 2.415 . S
Tb161 O175 2.399 . S
Tb161 O176 2.325 . S
Tb161 O179 2.303 . S
Tb161 C190 2.764 . S
C162 O178 1.261 . S
C162 O179 1.257 . S
C163 C166 1.358 . S
C163 C167 1.332 . S
C163 C169 1.504 . S
C164 C165 1.373 . S
C164 C168 1.308 . S
C165 C164 1.373 . S
C165 C166 1.429 . S
C165 H192 0.932 . S
C166 C163 1.358 . S
C166 C165 1.429 . S
C166 H193 0.930 . S
C167 C163 1.332 . S
C167 C168 1.394 . S
C167 H194 0.932 . S
C168 C164 1.308 . S
C168 C167 1.394 . S
C168 H195 0.929 . S
C169 Tb160 2.764 . S
C169 C163 1.504 . S
C169 O181 1.239 . S
C169 O182 1.263 . S
O170 Tb160 2.325 . S
O170 C180 1.236 . S
O171 Tb161 2.322 . S
O171 C180 1.257 . S
O172 Tb161 2.349 . S
O172 C183 1.261 . S
O173 Tb160 2.303 . S
O173 C183 1.257 . S
O174 Tb161 2.415 . S
O174 C190 1.239 . S
O175 Tb161 2.399 . S
O175 C190 1.263 . S
O176 Tb161 2.325 . S
O176 C191 1.236 . S
O177 Tb160 2.322 . S
O177 C191 1.257 . S
O178 Tb160 2.349 . S
O178 C162 1.261 . S
O179 Tb161 2.303 . S
O179 C162 1.257 . S
C180 O170 1.236 . S
C180 O171 1.257 . S
O181 Tb160 2.415 . S
O181 C169 1.239 . S
O182 Tb160 2.399 . S
O182 C169 1.263 . S
C183 O172 1.261 . S
C183 O173 1.257 . S
C184 C187 1.358 . S
C184 C188 1.332 . S
C184 C190 1.504 . S
C185 C186 1.373 . S
C185 C189 1.308 . S
C186 C185 1.373 . S
C186 C187 1.429 . S
C186 H196 0.932 . S
C187 C184 1.358 . S
C187 C186 1.429 . S
C187 H197 0.930 . S
C188 C184 1.332 . S
C188 C189 1.394 . S
C188 H198 0.932 . S
C189 C185 1.308 . S
C189 C188 1.394 . S
C189 H199 0.929 . S
C190 Tb161 2.764 . S
C190 O174 1.239 . S
C190 O175 1.263 . S
C190 C184 1.504 . S
C191 O176 1.236 . S
C191 O177 1.257 . S
H192 C165 0.932 . S
H193 C166 0.930 . S
H194 C167 0.932 . S
H195 C168 0.929 . S
H196 C186 0.932 . S
H197 C187 0.930 . S
H198 C188 0.932 . S
H199 C189 0.929 . S
Tb200 C209 2.764 . S
Tb200 O210 2.325 . S
Tb200 O213 2.303 . S
Tb200 O217 2.322 . S
Tb200 O218 2.349 . S
Tb200 O221 2.415 . S
Tb200 O222 2.399 . S
Tb201 O211 2.322 . S
Tb201 O212 2.349 . S
Tb201 O214 2.415 . S
Tb201 O215 2.399 . S
Tb201 O216 2.325 . S
Tb201 O219 2.303 . S
Tb201 C230 2.764 . S
C202 O218 1.261 . S
C202 O219 1.257 . S
C203 C206 1.358 . S
C203 C207 1.332 . S
C203 C209 1.504 . S
C204 C205 1.373 1_554 S
C204 C208 1.308 1_554 S
C205 C204 1.373 1_556 S
C205 C206 1.429 . S
C205 H232 0.932 . S
C206 C203 1.358 . S
C206 C205 1.429 . S
C206 H233 0.930 . S
C207 C203 1.332 . S
C207 C208 1.394 . S
C207 H234 0.932 . S
C208 C204 1.308 1_556 S
C208 C207 1.394 . S
C208 H235 0.929 1_556 S
C209 Tb200 2.764 . S
C209 C203 1.504 . S
C209 O221 1.239 . S
C209 O222 1.263 . S
O210 Tb200 2.325 . S
O210 C220 1.236 . S
O211 Tb201 2.322 . S
O211 C220 1.257 . S
O212 Tb201 2.349 . S
O212 C223 1.261 . S
O213 Tb200 2.303 . S
O213 C223 1.257 . S
O214 Tb201 2.415 . S
O214 C230 1.239 . S
O215 Tb201 2.399 . S
O215 C230 1.263 . S
O216 Tb201 2.325 . S
O216 C231 1.236 . S
O217 Tb200 2.322 . S
O217 C231 1.257 . S
O218 Tb200 2.349 . S
O218 C202 1.261 . S
O219 Tb201 2.303 . S
O219 C202 1.257 . S
C220 O210 1.236 . S
C220 O211 1.257 . S
O221 Tb200 2.415 . S
O221 C209 1.239 . S
O222 Tb200 2.399 . S
O222 C209 1.263 . S
C223 O212 1.261 . S
C223 O213 1.257 . S
C224 C227 1.358 . S
C224 C228 1.332 . S
C224 C230 1.504 . S
C225 C226 1.373 . S
C225 C229 1.308 . S
C226 C225 1.373 . S
C226 C227 1.429 . S
C226 H236 0.932 . S
C227 C224 1.358 . S
C227 C226 1.429 . S
C227 H237 0.930 . S
C228 C224 1.332 . S
C228 C229 1.394 . S
C228 H238 0.932 . S
C229 C225 1.308 . S
C229 C228 1.394 . S
C229 H239 0.929 . S
C230 Tb201 2.764 . S
C230 O214 1.239 . S
C230 O215 1.263 . S
C230 C224 1.504 . S
C231 O216 1.236 . S
C231 O217 1.257 . S
H232 C205 0.932 . S
H233 C206 0.930 . S
H234 C207 0.932 . S
H235 C208 0.929 1_554 S
H236 C226 0.932 . S
H237 C227 0.930 . S
H238 C228 0.932 . S
H239 C229 0.929 . S
C240 C241 1.391 . S
C240 C242 1.394 . S
C240 H256 0.931 . S
C241 C240 1.391 . S
C241 C245 1.376 . S
C242 C240 1.394 . S
C242 C243 1.369 . S
C242 C246 1.531 . S
C243 C242 1.369 . S
C243 C244 1.410 . S
C243 C251 1.503 . S
C244 C243 1.410 . S
C244 C245 1.392 . S
C244 C247 1.511 . S
C245 C241 1.376 . S
C245 C244 1.392 . S
C245 H257 0.929 . S
C246 C242 1.531 . S
C246 H258 0.960 . S
C246 H259 0.962 . S
C246 H260 0.960 . S
C247 C244 1.511 . S
C247 H261 0.961 . S
C247 H262 0.961 . S
C247 H263 0.961 . S
C248 C249 1.370 . S
C248 C250 1.363 . S
C248 H264 0.931 . S
C249 C248 1.370 . S
C249 C253 1.408 . S
C250 C248 1.363 . S
C250 C251 1.370 . S
C250 C254 1.524 . S
C251 C243 1.503 . S
C251 C250 1.370 . S
C251 C252 1.403 . S
C252 C251 1.403 . S
C252 C253 1.404 . S
C252 C255 1.539 . S
C253 C249 1.408 . S
C253 C252 1.404 . S
C253 H265 0.930 . S
C254 C250 1.524 . S
C254 H266 0.956 . S
C254 H267 0.961 . S
C254 H268 0.961 . S
C255 C252 1.539 . S
C255 H269 0.958 . S
C255 H270 0.961 . S
C255 H271 0.960 . S
H256 C240 0.931 . S
H257 C245 0.929 . S
H258 C246 0.960 . S
H259 C246 0.962 . S
H260 C246 0.960 . S
H261 C247 0.961 . S
H262 C247 0.961 . S
H263 C247 0.961 . S
H264 C248 0.931 . S
H265 C253 0.930 . S
H266 C254 0.956 . S
H267 C254 0.961 . S
H268 C254 0.961 . S
H269 C255 0.958 . S
H270 C255 0.961 . S
H271 C255 0.960 . S
C272 C273 1.391 . S
C272 C274 1.394 . S
C272 H288 0.931 . S
C273 C272 1.391 . S
C273 C277 1.376 . S
C274 C272 1.394 . S
C274 C275 1.369 . S
C274 C278 1.531 1_455 S
C275 C274 1.369 . S
C275 C276 1.410 . S
C275 C283 1.503 1_455 S
C276 C275 1.410 . S
C276 C277 1.392 . S
C276 C279 1.511 . S
C277 C273 1.376 . S
C277 C276 1.392 . S
C277 H289 0.929 . S
C278 C274 1.531 1_655 S
C278 H290 0.960 . S
C278 H291 0.962 . S
C278 H292 0.960 . S
C279 C276 1.511 . S
C279 H293 0.961 . S
C279 H294 0.961 . S
C279 H295 0.961 . S
C280 C281 1.370 . S
C280 C282 1.363 . S
C280 H296 0.931 . S
C281 C280 1.370 . S
C281 C285 1.408 . S
C282 C280 1.363 . S
C282 C283 1.370 . S
C282 C286 1.524 1_655 S
C283 C275 1.503 1_655 S
C283 C282 1.370 . S
C283 C284 1.403 . S
C284 C283 1.403 . S
C284 C285 1.404 . S
C284 C287 1.539 . S
C285 C281 1.408 . S
C285 C284 1.404 . S
C285 H297 0.930 . S
C286 C282 1.524 1_455 S
C286 H298 0.956 1_455 S
C286 H299 0.961 . S
C286 H300 0.961 1_455 S
C287 C284 1.539 . S
C287 H301 0.958 . S
C287 H302 0.961 . S
C287 H303 0.960 . S
H288 C272 0.931 . S
H289 C277 0.929 . S
H290 C278 0.960 . S
H291 C278 0.962 . S
H292 C278 0.960 . S
H293 C279 0.961 . S
H294 C279 0.961 . S
H295 C279 0.961 . S
H296 C280 0.931 . S
H297 C285 0.930 . S
H298 C286 0.956 1_655 S
H299 C286 0.961 . S
H300 C286 0.961 1_655 S
H301 C287 0.958 . S
H302 C287 0.961 . S
H303 C287 0.960 . S
C304 C305 1.391 . S
C304 C306 1.394 . S
C304 H320 0.931 . S
C305 C304 1.391 . S
C305 C309 1.376 . S
C306 C304 1.394 . S
C306 C307 1.369 . S
C306 C310 1.531 . S
C307 C306 1.369 . S
C307 C308 1.410 . S
C307 C315 1.503 1_545 S
C308 C307 1.410 . S
C308 C309 1.392 . S
C308 C311 1.511 1_545 S
C309 C305 1.376 . S
C309 C308 1.392 . S
C309 H321 0.929 . S
C310 C306 1.531 . S
C310 H322 0.960 . S
C310 H323 0.962 . S
C310 H324 0.960 . S
C311 C308 1.511 1_565 S
C311 H325 0.961 . S
C311 H326 0.961 . S
C311 H327 0.961 . S
C312 C313 1.370 . S
C312 C314 1.363 . S
C312 H328 0.931 . S
C313 C312 1.370 . S
C313 C317 1.408 . S
C314 C312 1.363 . S
C314 C315 1.370 . S
C314 C318 1.524 . S
C315 C307 1.503 1_565 S
C315 C314 1.370 . S
C315 C316 1.403 . S
C316 C315 1.403 . S
C316 C317 1.404 . S
C316 C319 1.532 1_565 S
C317 C313 1.408 . S
C317 C316 1.404 . S
C317 H329 0.930 . S
C318 C314 1.524 . S
C318 H330 0.956 . S
C318 H331 0.961 . S
C318 H332 0.961 . S
C319 C316 1.532 1_545 S
C319 H333 0.963 . S
C319 H334 0.960 1_545 S
C319 H335 0.963 . S
H320 C304 0.931 . S
H321 C309 0.929 . S
H322 C310 0.960 . S
H323 C310 0.962 . S
H324 C310 0.960 . S
H325 C311 0.961 . S
H326 C311 0.961 . S
H327 C311 0.961 . S
H328 C312 0.931 . S
H329 C317 0.930 . S
H330 C318 0.956 . S
H331 C318 0.961 . S
H332 C318 0.961 . S
H333 C319 0.963 . S
H334 C319 0.960 1_565 S
H335 C319 0.963 . S
C336 C337 1.391 . S
C336 C338 1.394 . S
C336 H352 0.931 . S
C337 C336 1.391 . S
C337 C341 1.376 . S
C338 C336 1.394 . S
C338 C339 1.369 . S
C338 C342 1.531 . S
C339 C338 1.369 . S
C339 C340 1.410 . S
C339 C347 1.503 . S
C340 C339 1.410 . S
C340 C341 1.392 . S
C340 C343 1.511 . S
C341 C337 1.376 . S
C341 C340 1.392 . S
C341 H353 0.929 . S
C342 C338 1.531 . S
C342 H354 0.960 . S
C342 H355 0.962 . S
C342 H356 0.960 . S
C343 C340 1.511 . S
C343 H357 0.961 . S
C343 H358 0.961 . S
C343 H359 0.961 . S
C344 C345 1.370 . S
C344 C346 1.363 . S
C344 H360 0.931 . S
C345 C344 1.370 . S
C345 C349 1.408 . S
C346 C344 1.363 . S
C346 C347 1.370 . S
C346 C350 1.524 . S
C347 C339 1.503 . S
C347 C346 1.370 . S
C347 C348 1.403 . S
C348 C347 1.403 . S
C348 C349 1.404 . S
C348 C351 1.539 . S
C349 C345 1.408 . S
C349 C348 1.404 . S
C349 H361 0.930 . S
C350 C346 1.524 . S
C350 H362 0.956 . S
C350 H363 0.961 . S
C350 H364 0.961 . S
C351 C348 1.539 . S
C351 H365 0.958 . S
C351 H366 0.961 . S
C351 H367 0.960 . S
H352 C336 0.931 . S
H353 C341 0.929 . S
H354 C342 0.960 . S
H355 C342 0.962 . S
H356 C342 0.960 . S
H357 C343 0.961 . S
H358 C343 0.961 . S
H359 C343 0.961 . S
H360 C344 0.931 . S
H361 C349 0.930 . S
H362 C350 0.956 . S
H363 C350 0.961 . S
H364 C350 0.961 . S
H365 C351 0.958 . S
H366 C351 0.961 . S
H367 C351 0.960 . S
C368 C369 1.391 . S
C368 C370 1.394 . S
C368 H384 0.931 . S
C369 C368 1.391 . S
C369 C373 1.376 . S
C370 C368 1.394 . S
C370 C371 1.369 . S
C370 C374 1.531 . S
C371 C370 1.369 . S
C371 C372 1.410 . S
C371 C379 1.503 1_455 S
C372 C371 1.410 . S
C372 C373 1.392 . S
C372 C375 1.511 . S
C373 C369 1.376 . S
C373 C372 1.392 . S
C373 H385 0.929 . S
C374 C370 1.531 . S
C374 H386 0.960 1_455 S
C374 H387 0.962 . S
C374 H388 0.960 . S
C375 C372 1.511 . S
C375 H389 0.961 . S
C375 H390 0.961 1_455 S
C375 H391 0.961 1_455 S
C376 C377 1.370 . S
C376 C378 1.363 . S
C376 H392 0.931 . S
C377 C376 1.370 . S
C377 C381 1.408 . S
C378 C376 1.363 . S
C378 C379 1.370 . S
C378 C382 1.524 1_655 S
C379 C371 1.503 1_655 S
C379 C378 1.370 . S
C379 C380 1.403 . S
C380 C379 1.403 . S
C380 C381 1.404 . S
C380 C383 1.539 . S
C381 C377 1.408 . S
C381 C380 1.404 . S
C381 H393 0.930 . S
C382 C378 1.524 1_455 S
C382 H394 0.956 . S
C382 H395 0.961 . S
C382 H396 0.961 . S
C383 C380 1.539 . S
C383 H397 0.958 . S
C383 H398 0.961 . S
C383 H399 0.960 . S
H384 C368 0.931 . S
H385 C373 0.929 . S
H386 C374 0.960 1_655 S
H387 C374 0.962 . S
H388 C374 0.960 . S
H389 C375 0.961 . S
H390 C375 0.961 1_655 S
H391 C375 0.961 1_655 S
H392 C376 0.931 . S
H393 C381 0.930 . S
H394 C382 0.956 . S
H395 C382 0.961 . S
H396 C382 0.961 . S
H397 C383 0.958 . S
H398 C383 0.961 . S
H399 C383 0.960 . S
C400 C401 1.391 . S
C400 C402 1.394 . S
C400 H416 0.931 . S
C401 C400 1.391 . S
C401 C405 1.376 . S
C402 C400 1.394 . S
C402 C403 1.369 . S
C402 C406 1.531 . S
C403 C402 1.369 . S
C403 C404 1.410 . S
C403 C411 1.503 1_545 S
C404 C403 1.410 . S
C404 C405 1.392 . S
C404 C407 1.511 1_545 S
C405 C401 1.376 . S
C405 C404 1.392 . S
C405 H417 0.929 . S
C406 C402 1.531 . S
C406 H418 0.960 . S
C406 H419 0.962 . S
C406 H420 0.960 . S
C407 C404 1.511 1_565 S
C407 H421 0.961 . S
C407 H422 0.961 . S
C407 H423 0.961 . S
C408 C409 1.370 . S
C408 C410 1.363 . S
C408 H424 0.931 . S
C409 C408 1.370 . S
C409 C413 1.408 . S
C410 C408 1.363 . S
C410 C411 1.370 . S
C410 C414 1.545 . S
C411 C403 1.503 1_565 S
C411 C410 1.370 . S
C411 C412 1.403 . S
C412 C411 1.403 . S
C412 C413 1.404 . S
C412 C415 1.539 . S
C413 C409 1.408 . S
C413 C412 1.404 . S
C413 H425 0.930 . S
C414 C410 1.545 . S
C414 H426 0.937 1_565 S
C414 H427 0.960 . S
C414 H428 0.960 . S
C415 C412 1.539 . S
C415 H429 0.958 . S
C415 H430 0.961 . S
C415 H431 0.960 . S
H416 C400 0.931 . S
H417 C405 0.929 . S
H418 C406 0.960 . S
H419 C406 0.962 . S
H420 C406 0.960 . S
H421 C407 0.961 . S
H422 C407 0.961 . S
H423 C407 0.961 . S
H424 C408 0.931 . S
H425 C413 0.930 . S
H426 C414 0.937 1_545 S
H427 C414 0.960 . S
H428 C414 0.960 . S
H429 C415 0.958 . S
H430 C415 0.961 . S
H431 C415 0.960 . S
C432 C433 1.391 . S
C432 C434 1.394 . S
C432 H448 0.931 . S
C433 C432 1.391 . S
C433 C437 1.376 . S
C434 C432 1.394 . S
C434 C435 1.369 . S
C434 C438 1.531 . S
C435 C434 1.369 . S
C435 C436 1.410 . S
C435 C443 1.503 . S
C436 C435 1.410 . S
C436 C437 1.392 . S
C436 C439 1.511 . S
C437 C433 1.376 . S
C437 C436 1.392 . S
C437 H449 0.929 . S
C438 C434 1.531 . S
C438 H450 0.960 . S
C438 H451 0.962 . S
C438 H452 0.960 . S
C439 C436 1.511 . S
C439 H453 0.961 . S
C439 H454 0.961 . S
C439 H455 0.961 . S
C440 C441 1.370 . S
C440 C442 1.363 . S
C440 H456 0.931 . S
C441 C440 1.370 . S
C441 C445 1.408 . S
C442 C440 1.363 . S
C442 C443 1.370 . S
C442 C446 1.524 . S
C443 C435 1.503 . S
C443 C442 1.370 . S
C443 C444 1.403 . S
C444 C443 1.403 . S
C444 C445 1.404 . S
C444 C447 1.539 . S
C445 C441 1.408 . S
C445 C444 1.404 . S
C445 H457 0.930 . S
C446 C442 1.524 . S
C446 H458 0.956 . S
C446 H459 0.961 . S
C446 H460 0.961 . S
C447 C444 1.539 . S
C447 H461 0.958 . S
C447 H462 0.961 . S
C447 H463 0.960 . S
H448 C432 0.931 . S
H449 C437 0.929 . S
H450 C438 0.960 . S
H451 C438 0.962 . S
H452 C438 0.960 . S
H453 C439 0.961 . S
H454 C439 0.961 . S
H455 C439 0.961 . S
H456 C440 0.931 . S
H457 C445 0.930 . S
H458 C446 0.956 . S
H459 C446 0.961 . S
H460 C446 0.961 . S
H461 C447 0.958 . S
H462 C447 0.961 . S
H463 C447 0.960 . S
C464 C465 1.391 . S
C464 C466 1.394 . S
C464 H480 0.931 . S
C465 C464 1.391 . S
C465 C469 1.376 . S
C466 C464 1.394 . S
C466 C467 1.369 . S
C466 C470 1.531 . S
C467 C466 1.369 . S
C467 C468 1.410 . S
C467 C475 1.503 . S
C468 C467 1.410 . S
C468 C469 1.392 . S
C468 C471 1.511 . S
C469 C465 1.376 . S
C469 C468 1.392 . S
C469 H481 0.929 . S
C470 C466 1.531 . S
C470 H482 0.960 . S
C470 H483 0.962 . S
C470 H484 0.960 . S
C471 C468 1.511 . S
C471 H485 0.961 . S
C471 H486 0.961 . S
C471 H487 0.961 . S
C472 C473 1.370 . S
C472 C474 1.363 . S
C472 H488 0.931 . S
C473 C472 1.370 . S
C473 C477 1.408 . S
C474 C472 1.363 . S
C474 C475 1.370 . S
C474 C478 1.524 . S
C475 C467 1.503 . S
C475 C474 1.370 . S
C475 C476 1.403 . S
C476 C475 1.403 . S
C476 C477 1.404 . S
C476 C479 1.539 . S
C477 C473 1.408 . S
C477 C476 1.404 . S
C477 H489 0.930 . S
C478 C474 1.524 . S
C478 H490 0.956 . S
C478 H491 0.961 . S
C478 H492 0.961 . S
C479 C476 1.539 . S
C479 H493 0.958 . S
C479 H494 0.961 . S
C479 H495 0.960 . S
H480 C464 0.931 . S
H481 C469 0.929 . S
H482 C470 0.960 . S
H483 C470 0.962 . S
H484 C470 0.960 . S
H485 C471 0.961 . S
H486 C471 0.961 . S
H487 C471 0.961 . S
H488 C472 0.931 . S
H489 C477 0.930 . S
H490 C478 0.956 . S
H491 C478 0.961 . S
H492 C478 0.961 . S
H493 C479 0.958 . S
H494 C479 0.961 . S
H495 C479 0.960 . S
C496 C497 1.391 . S
C496 C498 1.394 . S
C496 H512 0.931 . S
C497 C496 1.391 . S
C497 C501 1.376 . S
C498 C496 1.394 . S
C498 C499 1.369 . S
C498 C502 1.531 . S
C499 C498 1.369 . S
C499 C500 1.410 . S
C499 C507 1.503 . S
C500 C499 1.410 . S
C500 C501 1.392 . S
C500 C503 1.511 . S
C501 C497 1.376 . S
C501 C500 1.392 . S
C501 H513 0.929 . S
C502 C498 1.531 . S
C502 H514 0.960 . S
C502 H515 0.962 . S
C502 H516 0.960 . S
C503 C500 1.511 . S
C503 H517 0.961 . S
C503 H518 0.961 . S
C503 H519 0.961 . S
C504 C505 1.370 . S
C504 C506 1.363 . S
C504 H520 0.931 . S
C505 C504 1.370 . S
C505 C509 1.408 . S
C506 C504 1.363 . S
C506 C507 1.370 . S
C506 C510 1.524 . S
C507 C499 1.503 . S
C507 C506 1.370 . S
C507 C508 1.403 . S
C508 C507 1.403 . S
C508 C509 1.404 . S
C508 C511 1.539 . S
C509 C505 1.408 . S
C509 C508 1.404 . S
C509 H521 0.930 . S
C510 C506 1.524 . S
C510 H522 0.956 . S
C510 H523 0.961 . S
C510 H524 0.961 . S
C511 C508 1.539 . S
C511 H525 0.958 . S
C511 H526 0.961 . S
C511 H527 0.960 . S
H512 C496 0.931 . S
H513 C501 0.929 . S
H514 C502 0.960 . S
H515 C502 0.962 . S
H516 C502 0.960 . S
H517 C503 0.961 . S
H518 C503 0.961 . S
H519 C503 0.961 . S
H520 C504 0.931 . S
H521 C509 0.930 . S
H522 C510 0.956 . S
H523 C510 0.961 . S
H524 C510 0.961 . S
H525 C511 0.958 . S
H526 C511 0.961 . S
H527 C511 0.960 . S
C528 C529 1.391 . S
C528 C530 1.394 . S
C528 H544 0.931 . S
C529 C528 1.391 . S
C529 C533 1.376 . S
C530 C528 1.394 . S
C530 C531 1.369 . S
C530 C534 1.531 . S
C531 C530 1.369 . S
C531 C532 1.410 . S
C531 C539 1.503 . S
C532 C531 1.410 . S
C532 C533 1.392 . S
C532 C535 1.511 . S
C533 C529 1.376 . S
C533 C532 1.392 . S
C533 H545 0.929 . S
C534 C530 1.531 . S
C534 H546 0.960 . S
C534 H547 0.962 . S
C534 H548 0.960 . S
C535 C532 1.511 . S
C535 H549 0.961 . S
C535 H550 0.961 . S
C535 H551 0.961 . S
C536 C537 1.370 . S
C536 C538 1.363 . S
C536 H552 0.931 . S
C537 C536 1.370 . S
C537 C541 1.408 . S
C538 C536 1.363 . S
C538 C539 1.370 . S
C538 C542 1.524 . S
C539 C531 1.503 . S
C539 C538 1.370 . S
C539 C540 1.403 . S
C540 C539 1.403 . S
C540 C541 1.404 . S
C540 C543 1.539 . S
C541 C537 1.408 . S
C541 C540 1.404 . S
C541 H553 0.930 . S
C542 C538 1.524 . S
C542 H554 0.956 . S
C542 H555 0.961 . S
C542 H556 0.961 . S
C543 C540 1.539 . S
C543 H557 0.958 . S
C543 H558 0.961 . S
C543 H559 0.960 . S
H544 C528 0.931 . S
H545 C533 0.929 . S
H546 C534 0.960 . S
H547 C534 0.962 . S
H548 C534 0.960 . S
H549 C535 0.961 . S
H550 C535 0.961 . S
H551 C535 0.961 . S
H552 C536 0.931 . S
H553 C541 0.930 . S
H554 C542 0.956 . S
H555 C542 0.961 . S
H556 C542 0.961 . S
H557 C543 0.958 . S
H558 C543 0.961 . S
H559 C543 0.960 . S
C560 C561 1.391 . S
C560 C562 1.394 . S
C560 H576 0.931 . S
C561 C560 1.391 . S
C561 C565 1.376 . S
C562 C560 1.394 . S
C562 C563 1.369 . S
C562 C566 1.531 . S
C563 C562 1.369 . S
C563 C564 1.410 . S
C563 C571 1.503 . S
C564 C563 1.410 . S
C564 C565 1.392 . S
C564 C567 1.511 . S
C565 C561 1.376 . S
C565 C564 1.392 . S
C565 H577 0.929 . S
C566 C562 1.531 . S
C566 H578 0.960 . S
C566 H579 0.962 . S
C566 H580 0.960 . S
C567 C564 1.511 . S
C567 H581 0.961 . S
C567 H582 0.961 . S
C567 H583 0.961 . S
C568 C569 1.370 . S
C568 C570 1.363 . S
C568 H584 0.931 . S
C569 C568 1.370 . S
C569 C573 1.408 . S
C570 C568 1.363 . S
C570 C571 1.370 . S
C570 C574 1.524 . S
C571 C563 1.503 . S
C571 C570 1.370 . S
C571 C572 1.403 . S
C572 C571 1.403 . S
C572 C573 1.404 . S
C572 C575 1.539 . S
C573 C569 1.408 . S
C573 C572 1.404 . S
C573 H585 0.930 . S
C574 C570 1.524 . S
C574 H586 0.956 . S
C574 H587 0.961 . S
C574 H588 0.961 . S
C575 C572 1.539 . S
C575 H589 0.958 . S
C575 H590 0.961 . S
C575 H591 0.960 . S
H576 C560 0.931 . S
H577 C565 0.929 . S
H578 C566 0.960 . S
H579 C566 0.962 . S
H580 C566 0.960 . S
H581 C567 0.961 . S
H582 C567 0.961 . S
H583 C567 0.961 . S
H584 C568 0.931 . S
H585 C573 0.930 . S
H586 C574 0.956 . S
H587 C574 0.961 . S
H588 C574 0.961 . S
H589 C575 0.958 . S
H590 C575 0.961 . S
H591 C575 0.960 . S
C592 C593 1.391 . S
C592 C594 1.394 . S
C592 H608 0.931 . S
C593 C592 1.391 . S
C593 C597 1.376 . S
C594 C592 1.394 . S
C594 C595 1.369 . S
C594 C598 1.531 . S
C595 C594 1.369 . S
C595 C596 1.410 . S
C595 C603 1.503 . S
C596 C595 1.410 . S
C596 C597 1.392 . S
C596 C599 1.511 . S
C597 C593 1.376 . S
C597 C596 1.392 . S
C597 H609 0.929 . S
C598 C594 1.531 . S
C598 H610 0.960 . S
C598 H611 0.962 . S
C598 H612 0.960 . S
C599 C596 1.511 . S
C599 H613 0.961 . S
C599 H614 0.961 . S
C599 H615 0.961 . S
C600 C601 1.370 . S
C600 C602 1.363 . S
C600 H616 0.931 . S
C601 C600 1.370 . S
C601 C605 1.408 . S
C602 C600 1.363 . S
C602 C603 1.370 . S
C602 C606 1.524 . S
C603 C595 1.503 . S
C603 C602 1.370 . S
C603 C604 1.403 . S
C604 C603 1.403 . S
C604 C605 1.404 . S
C604 C607 1.539 . S
C605 C601 1.408 . S
C605 C604 1.404 . S
C605 H617 0.930 . S
C606 C602 1.524 . S
C606 H618 0.956 . S
C606 H619 0.961 . S
C606 H620 0.961 . S
C607 C604 1.539 . S
C607 H621 0.958 . S
C607 H622 0.961 . S
C607 H623 0.960 . S
H608 C592 0.931 . S
H609 C597 0.929 . S
H610 C598 0.960 . S
H611 C598 0.962 . S
H612 C598 0.960 . S
H613 C599 0.961 . S
H614 C599 0.961 . S
H615 C599 0.961 . S
H616 C600 0.931 . S
H617 C605 0.930 . S
H618 C606 0.956 . S
H619 C606 0.961 . S
H620 C606 0.961 . S
H621 C607 0.958 . S
H622 C607 0.961 . S
H623 C607 0.960 . S
C624 C625 1.391 . S
C624 C626 1.394 . S
C624 H640 0.931 . S
C625 C624 1.391 . S
C625 C629 1.376 . S
C626 C624 1.394 . S
C626 C627 1.369 . S
C626 C630 1.531 . S
C627 C626 1.369 . S
C627 C628 1.410 . S
C627 C635 1.503 . S
C628 C627 1.410 . S
C628 C629 1.392 . S
C628 C631 1.511 . S
C629 C625 1.376 . S
C629 C628 1.392 . S
C629 H641 0.929 . S
C630 C626 1.531 . S
C630 H642 0.960 . S
C630 H643 0.962 . S
C630 H644 0.960 . S
C631 C628 1.511 . S
C631 H645 0.961 . S
C631 H646 0.961 . S
C631 H647 0.961 . S
C632 C633 1.370 . S
C632 C634 1.363 . S
C632 H648 0.931 . S
C633 C632 1.370 . S
C633 C637 1.408 . S
C634 C632 1.363 . S
C634 C635 1.370 . S
C634 C638 1.524 . S
C635 C627 1.503 . S
C635 C634 1.370 . S
C635 C636 1.403 . S
C636 C635 1.403 . S
C636 C637 1.404 . S
C636 C639 1.539 . S
C637 C633 1.408 . S
C637 C636 1.404 . S
C637 H649 0.930 . S
C638 C634 1.524 . S
C638 H650 0.956 . S
C638 H651 0.961 . S
C638 H652 0.961 . S
C639 C636 1.539 . S
C639 H653 0.958 . S
C639 H654 0.961 . S
C639 H655 0.960 . S
H640 C624 0.931 . S
H641 C629 0.929 . S
H642 C630 0.960 . S
H643 C630 0.962 . S
H644 C630 0.960 . S
H645 C631 0.961 . S
H646 C631 0.961 . S
H647 C631 0.961 . S
H648 C632 0.931 . S
H649 C637 0.930 . S
H650 C638 0.956 . S
H651 C638 0.961 . S
H652 C638 0.961 . S
H653 C639 0.958 . S
H654 C639 0.961 . S
H655 C639 0.960 . S
C656 C657 1.391 . S
C656 C658 1.394 . S
C656 H672 0.931 . S
C657 C656 1.391 . S
C657 C661 1.376 . S
C658 C656 1.394 . S
C658 C659 1.369 . S
C658 C662 1.531 . S
C659 C658 1.369 . S
C659 C660 1.410 . S
C659 C667 1.503 . S
C660 C659 1.410 . S
C660 C661 1.392 . S
C660 C663 1.511 . S
C661 C657 1.376 . S
C661 C660 1.392 . S
C661 H673 0.929 . S
C662 C658 1.531 . S
C662 H674 0.960 . S
C662 H675 0.962 . S
C662 H676 0.960 . S
C663 C660 1.511 . S
C663 H677 0.961 . S
C663 H678 0.961 . S
C663 H679 0.961 . S
C664 C665 1.370 . S
C664 C666 1.363 . S
C664 H680 0.931 . S
C665 C664 1.370 . S
C665 C669 1.408 . S
C666 C664 1.363 . S
C666 C667 1.370 . S
C666 C670 1.524 . S
C667 C659 1.503 . S
C667 C666 1.370 . S
C667 C668 1.403 . S
C668 C667 1.403 . S
C668 C669 1.404 . S
C668 C671 1.539 . S
C669 C665 1.408 . S
C669 C668 1.404 . S
C669 H681 0.930 . S
C670 C666 1.524 . S
C670 H682 0.956 . S
C670 H683 0.961 . S
C670 H684 0.961 . S
C671 C668 1.539 . S
C671 H685 0.958 . S
C671 H686 0.961 . S
C671 H687 0.960 . S
H672 C656 0.931 . S
H673 C661 0.929 . S
H674 C662 0.960 . S
H675 C662 0.962 . S
H676 C662 0.960 . S
H677 C663 0.961 . S
H678 C663 0.961 . S
H679 C663 0.961 . S
H680 C664 0.931 . S
H681 C669 0.930 . S
H682 C670 0.956 . S
H683 C670 0.961 . S
H684 C670 0.961 . S
H685 C671 0.958 . S
H686 C671 0.961 . S
H687 C671 0.960 . S
C688 C689 1.391 . S
C688 C690 1.394 . S
C688 H704 0.931 . S
C689 C688 1.391 . S
C689 C693 1.376 . S
C690 C688 1.394 . S
C690 C691 1.369 . S
C690 C694 1.531 . S
C691 C690 1.369 . S
C691 C692 1.410 . S
C691 C699 1.503 . S
C692 C691 1.410 . S
C692 C693 1.392 . S
C692 C695 1.511 . S
C693 C689 1.376 . S
C693 C692 1.392 . S
C693 H705 0.929 . S
C694 C690 1.531 . S
C694 H706 0.960 . S
C694 H707 0.962 . S
C694 H708 0.960 . S
C695 C692 1.511 . S
C695 H709 0.961 . S
C695 H710 0.961 . S
C695 H711 0.961 . S
C696 C697 1.370 . S
C696 C698 1.363 . S
C696 H712 0.931 . S
C697 C696 1.370 . S
C697 C701 1.408 . S
C698 C696 1.363 . S
C698 C699 1.370 . S
C698 C702 1.524 . S
C699 C691 1.503 . S
C699 C698 1.370 . S
C699 C700 1.403 . S
C700 C699 1.403 . S
C700 C701 1.404 . S
C700 C703 1.539 . S
C701 C697 1.408 . S
C701 C700 1.404 . S
C701 H713 0.930 . S
C702 C698 1.524 . S
C702 H714 0.956 . S
C702 H715 0.961 . S
C702 H716 0.961 . S
C703 C700 1.539 . S
C703 H717 0.958 . S
C703 H718 0.961 . S
C703 H719 0.960 . S
H704 C688 0.931 . S
H705 C693 0.929 . S
H706 C694 0.960 . S
H707 C694 0.962 . S
H708 C694 0.960 . S
H709 C695 0.961 . S
H710 C695 0.961 . S
H711 C695 0.961 . S
H712 C696 0.931 . S
H713 C701 0.930 . S
H714 C702 0.956 . S
H715 C702 0.961 . S
H716 C702 0.961 . S
H717 C703 0.958 . S
H718 C703 0.961 . S
H719 C703 0.960 . S
C720 C721 1.391 . S
C720 C722 1.394 . S
C720 H736 0.931 . S
C721 C720 1.391 . S
C721 C725 1.376 . S
C722 C720 1.394 . S
C722 C723 1.369 . S
C722 C726 1.531 . S
C723 C722 1.369 . S
C723 C724 1.410 . S
C723 C731 1.503 . S
C724 C723 1.410 . S
C724 C725 1.392 . S
C724 C727 1.511 . S
C725 C721 1.376 . S
C725 C724 1.392 . S
C725 H737 0.929 . S
C726 C722 1.531 . S
C726 H738 0.960 . S
C726 H739 0.962 . S
C726 H740 0.960 . S
C727 C724 1.511 . S
C727 H741 0.961 . S
C727 H742 0.961 . S
C727 H743 0.961 . S
C728 C729 1.370 . S
C728 C730 1.363 . S
C728 H744 0.931 . S
C729 C728 1.370 . S
C729 C733 1.408 . S
C730 C728 1.363 . S
C730 C731 1.370 . S
C730 C734 1.524 . S
C731 C723 1.503 . S
C731 C730 1.370 . S
C731 C732 1.403 . S
C732 C731 1.403 . S
C732 C733 1.404 . S
C732 C735 1.539 . S
C733 C729 1.408 . S
C733 C732 1.404 . S
C733 H745 0.930 . S
C734 C730 1.524 . S
C734 H746 0.956 . S
C734 H747 0.961 . S
C734 H748 0.961 . S
C735 C732 1.539 . S
C735 H749 0.958 . S
C735 H750 0.961 . S
C735 H751 0.960 . S
H736 C720 0.931 . S
H737 C725 0.929 . S
H738 C726 0.960 . S
H739 C726 0.962 . S
H740 C726 0.960 . S
H741 C727 0.961 . S
H742 C727 0.961 . S
H743 C727 0.961 . S
H744 C728 0.931 . S
H745 C733 0.930 . S
H746 C734 0.956 . S
H747 C734 0.961 . S
H748 C734 0.961 . S
H749 C735 0.958 . S
H750 C735 0.961 . S
H751 C735 0.960 . S
C752 C753 1.391 . S
C752 C754 1.394 . S
C752 H768 0.931 . S
C753 C752 1.391 . S
C753 C757 1.376 . S
C754 C752 1.394 . S
C754 C755 1.369 . S
C754 C758 1.531 . S
C755 C754 1.369 . S
C755 C756 1.410 . S
C755 C763 1.503 . S
C756 C755 1.410 . S
C756 C757 1.392 . S
C756 C759 1.511 . S
C757 C753 1.376 . S
C757 C756 1.392 . S
C757 H769 0.929 . S
C758 C754 1.531 . S
C758 H770 0.960 . S
C758 H771 0.962 . S
C758 H772 0.960 . S
C759 C756 1.511 . S
C759 H773 0.961 . S
C759 H774 0.961 . S
C759 H775 0.961 . S
C760 C761 1.370 . S
C760 C762 1.363 . S
C760 H776 0.931 . S
C761 C760 1.370 . S
C761 C765 1.408 . S
C762 C760 1.363 . S
C762 C763 1.370 . S
C762 C766 1.524 . S
C763 C755 1.503 . S
C763 C762 1.370 . S
C763 C764 1.403 . S
C764 C763 1.403 . S
C764 C765 1.404 . S
C764 C767 1.539 . S
C765 C761 1.408 . S
C765 C764 1.404 . S
C765 H777 0.930 . S
C766 C762 1.524 . S
C766 H778 0.956 . S
C766 H779 0.961 . S
C766 H780 0.961 . S
C767 C764 1.539 . S
C767 H781 0.958 . S
C767 H782 0.961 . S
C767 H783 0.960 . S
H768 C752 0.931 . S
H769 C757 0.929 . S
H770 C758 0.960 . S
H771 C758 0.962 . S
H772 C758 0.960 . S
H773 C759 0.961 . S
H774 C759 0.961 . S
H775 C759 0.961 . S
H776 C760 0.931 . S
H777 C765 0.930 . S
H778 C766 0.956 . S
H779 C766 0.961 . S
H780 C766 0.961 . S
H781 C767 0.958 . S
H782 C767 0.961 . S
H783 C767 0.960 . S
C784 C785 1.391 . S
C784 C786 1.394 . S
C784 H800 0.931 . S
C785 C784 1.391 . S
C785 C789 1.376 . S
C786 C784 1.394 . S
C786 C787 1.369 . S
C786 C790 1.531 . S
C787 C786 1.369 . S
C787 C788 1.410 . S
C787 C795 1.503 . S
C788 C787 1.410 . S
C788 C789 1.392 . S
C788 C791 1.511 . S
C789 C785 1.376 . S
C789 C788 1.392 . S
C789 H801 0.929 . S
C790 C786 1.531 . S
C790 H802 0.960 . S
C790 H803 0.962 . S
C790 H804 0.960 . S
C791 C788 1.511 . S
C791 H805 0.961 . S
C791 H806 0.961 . S
C791 H807 0.961 . S
C792 C793 1.370 . S
C792 C794 1.363 . S
C792 H808 0.931 . S
C793 C792 1.370 . S
C793 C797 1.408 . S
C794 C792 1.363 . S
C794 C795 1.370 . S
C794 C798 1.524 . S
C795 C787 1.503 . S
C795 C794 1.370 . S
C795 C796 1.403 . S
C796 C795 1.403 . S
C796 C797 1.404 . S
C796 C799 1.539 . S
C797 C793 1.408 . S
C797 C796 1.404 . S
C797 H809 0.930 . S
C798 C794 1.524 . S
C798 H810 0.956 . S
C798 H811 0.961 . S
C798 H812 0.961 . S
C799 C796 1.539 . S
C799 H813 0.958 . S
C799 H814 0.961 . S
C799 H815 0.960 . S
H800 C784 0.931 . S
H801 C789 0.929 . S
H802 C790 0.960 . S
H803 C790 0.962 . S
H804 C790 0.960 . S
H805 C791 0.961 . S
H806 C791 0.961 . S
H807 C791 0.961 . S
H808 C792 0.931 . S
H809 C797 0.930 . S
H810 C798 0.956 . S
H811 C798 0.961 . S
H812 C798 0.961 . S
H813 C799 0.958 . S
H814 C799 0.961 . S
H815 C799 0.960 . S
C241 C223 1.410 . S
C249 C31 1.413 . S
C273 C23 1.405 . S
C281 C71 1.411 . S
C305 C63 1.371 . S
C313 C111 1.405 . S
C337 C103 1.378 . S
C345 C151 1.406 . S
C369 C191 1.410 . S
C377 C143 1.395 . S
C401 C231 1.397 . S
C409 C183 1.384 . S
C433 C25 1.478 . S
C441 C4 1.434 . S
C465 C65 1.490 1_556 S
C473 C44 1.431 . S
C497 C105 1.414 . S
C505 C84 1.465 . S
C529 C145 1.487 . S
C537 C124 1.431 . S
C561 C164 1.407 . S
C569 C185 1.467 1_556 S
C593 C225 1.457 . S
C601 C204 1.442 . S
C625 C20 1.615 . S
C633 C162 1.646 . S
C657 C60 1.643 . S
C665 C202 1.648 . S
C689 C2 1.648 . S
C697 C100 1.636 . S
C721 C42 1.645 . S
C729 C140 1.629 . S
C753 C180 1.618 . S
C761 C82 1.648 . S
C785 C122 1.646 . S
C793 C220 1.631 . S
