# Generated by pormake.
# Topology ukg, (4)-cn, num edge types: 1
# Building blocks:
#     Node 0, Type 0, BuildingBlock: MUDLON_clean_sbu_0, # of connection points: 4
#     Node 1, Type 0, BuildingBlock: MUDLON_clean_sbu_0, # of connection points: 4
#     Node 2, Type 0, BuildingBlock: MUDLON_clean_sbu_0, # of connection points: 4
#     Node 3, Type 0, BuildingBlock: MUDLON_clean_sbu_0, # of connection points: 4
#     Node 4, Type 0, BuildingBlock: MUDLON_clean_sbu_0, # of connection points: 4
#     Node 5, Type 0, BuildingBlock: MUDLON_clean_sbu_0, # of connection points: 4
#     Node 6, Type 0, BuildingBlock: MUDLON_clean_sbu_0, # of connection points: 4
#     Node 7, Type 0, BuildingBlock: MUDLON_clean_sbu_0, # of connection points: 4
#     Edge 8, Type (0, 0), BuildingBlock: FUNLAD_clean_linker_0, # of connection points: 2
#     Edge 9, Type (0, 0), BuildingBlock: FUNLAD_clean_linker_0, # of connection points: 2
#     Edge 10, Type (0, 0), BuildingBlock: FUNLAD_clean_linker_0, # of connection points: 2
#     Edge 11, Type (0, 0), BuildingBlock: FUNLAD_clean_linker_0, # of connection points: 2
#     Edge 12, Type (0, 0), BuildingBlock: FUNLAD_clean_linker_0, # of connection points: 2
#     Edge 13, Type (0, 0), BuildingBlock: FUNLAD_clean_linker_0, # of connection points: 2
#     Edge 14, Type (0, 0), BuildingBlock: FUNLAD_clean_linker_0, # of connection points: 2
#     Edge 15, Type (0, 0), BuildingBlock: FUNLAD_clean_linker_0, # of connection points: 2
#     Edge 16, Type (0, 0), BuildingBlock: FUNLAD_clean_linker_0, # of connection points: 2
#     Edge 17, Type (0, 0), BuildingBlock: FUNLAD_clean_linker_0, # of connection points: 2
#     Edge 18, Type (0, 0), BuildingBlock: FUNLAD_clean_linker_0, # of connection points: 2
#     Edge 19, Type (0, 0), BuildingBlock: FUNLAD_clean_linker_0, # of connection points: 2
#     Edge 20, Type (0, 0), BuildingBlock: FUNLAD_clean_linker_0, # of connection points: 2
#     Edge 21, Type (0, 0), BuildingBlock: FUNLAD_clean_linker_0, # of connection points: 2
#     Edge 22, Type (0, 0), BuildingBlock: FUNLAD_clean_linker_0, # of connection points: 2
#     Edge 23, Type (0, 0), BuildingBlock: FUNLAD_clean_linker_0, # of connection points: 2
# Relax obj value: 0.086
# Max RMSD: 0.239
# Mean RMSD: 0.239
data_MOF--net-ukg--node1-MUDLON_clean_sbu_0--edge1-FUNLAD_clean_linker_0
_symmetry_space_group_name_H-M    P1
_symmetry_Int_Tables_number       1
_symmetry_cell_setting            triclinic
loop_
_symmetry_equiv_pos_as_xyz
'x, y, z'
_cell_length_a     37.442018
_cell_length_b     37.771244
_cell_length_c     43.130986
_cell_angle_alpha  89.742895
_cell_angle_beta   89.965819
_cell_angle_gamma 90.138406
loop_
_atom_site_label
_atom_site_type_symbol
_atom_site_fract_x
_atom_site_fract_y
_atom_site_fract_z
_atom_type_partial_charge
Mg0 Mg 0.03811 0.6806 0.1613 0.0
C1 C 0.99559 0.6291 0.20102 0.0
O2 O 0.99267 0.61287 0.17427 0.0
C3 C 0.10983 0.70332 0.14043 0.0
O4 O 0.09006 0.70813 0.11561 0.0
C5 C 0.04635 0.62091 0.11593 0.0
O6 O 0.07235 0.61374 0.13541 0.0
O7 O 0.0271 0.64808 0.12072 0.0
O8 O 1.01501 0.65669 0.20275 0.0
O9 O 1.01246 0.73205 0.15891 0.0
C10 C 0.02455 0.75491 0.17779 0.0
O11 O 0.05214 0.74641 0.19509 0.0
O12 O 0.09525 0.69047 0.16464 0.0
Mg13 Mg 0.35673 0.543 0.67396 0.0
C14 C 0.41442 0.50968 0.71453 0.0
O15 O 0.43422 0.51571 0.68991 0.0
C16 C 0.31658 0.60897 0.66299 0.0
O17 O 0.30193 0.58668 0.64341 0.0
C18 C 0.40099 0.50938 0.62194 0.0
O19 O 0.38757 0.47989 0.63332 0.0
O20 O 0.39189 0.53877 0.63382 0.0
O21 O 0.38226 0.52038 0.71475 0.0
O22 O 0.3066 0.51422 0.66994 0.0
C23 C 0.30469 0.48242 0.67956 0.0
O24 O 0.33418 0.46631 0.68807 0.0
O25 O 0.34209 0.59817 0.68001 0.0
Mg26 Mg 0.49509 0.83906 0.16341 0.0
C27 C 0.55401 0.85754 0.20509 0.0
O28 O 0.56857 0.83644 0.18452 0.0
C29 C 0.42424 0.80848 0.15036 0.0
O30 O 0.44478 0.79472 0.12885 0.0
C31 C 0.49629 0.90361 0.1231 0.0
O32 O 0.48204 0.916 0.14869 0.0
O33 O 0.50478 0.87102 0.12207 0.0
O34 O 0.52097 0.86483 0.20253 0.0
O35 O 0.51934 0.78679 0.16135 0.0
C36 C 0.50808 0.76486 0.1816 0.0
O37 O 0.48209 0.77462 0.20015 0.0
O38 O 0.43798 0.83032 0.16933 0.0
Mg39 Mg 0.17635 0.98684 0.66485 0.0
C40 C 0.15468 0.01533 0.72738 0.0
O41 O 0.18949 0.01493 0.73119 0.0
C42 C 0.19743 0.91453 0.64363 0.0
O43 O 0.19519 0.93138 0.61699 0.0
C44 C 0.13149 0.02622 0.61812 0.0
O45 O 0.13516 0.05086 0.63931 0.0
O46 O 0.14721 0.99673 0.622 0.0
O47 O 0.14156 1.00328 0.70235 0.0
O48 O 0.22471 0.0184 0.66959 0.0
C49 C 0.25578 1.00556 0.66581 0.0
O50 O 0.25901 0.97298 0.6557 0.0
O51 O 0.19023 0.93116 0.66842 0.0
Mg52 Mg 0.99729 0.33758 0.86453 0.0
C53 C 1.00595 0.26241 0.84799 0.0
O54 O 0.98293 0.27407 0.82738 0.0
C55 C 1.00414 0.40276 0.90336 0.0
O56 O 0.99655 0.41651 0.87611 0.0
C57 C 0.92345 0.31052 0.87141 0.0
O58 O 0.94105 0.29275 0.89272 0.0
O59 O 0.94025 0.33338 0.85523 0.0
O60 O 0.01668 0.28348 0.86897 0.0
O61 O 0.02808 0.36002 0.82611 0.0
C62 C 0.05955 0.34768 0.82355 0.0
O63 O 0.07052 0.32421 0.84396 0.0
O64 O 1.00636 0.36926 0.90591 0.0
Mg65 Mg 0.67739 0.48252 0.36627 0.0
C66 C 0.73809 0.53655 0.35676 0.0
O67 O 0.71176 0.55925 0.35374 0.0
C68 C 0.62692 0.51886 0.41056 0.0
O69 O 0.62389 0.53997 0.38641 0.0
C70 C 0.68536 0.40696 0.38638 0.0
O71 O 0.67882 0.42214 0.41313 0.0
O72 O 0.6849 0.42576 0.36186 0.0
O73 O 0.73099 0.50454 0.36368 0.0
O74 O 0.64549 0.50424 0.32865 0.0
C75 C 0.65873 0.51504 0.30314 0.0
O76 O 0.69303 0.51087 0.29795 0.0
O77 O 0.64897 0.49332 0.40936 0.0
Mg78 Mg 0.53564 0.18294 0.86562 0.0
C79 C 0.47958 0.24131 0.8584 0.0
O80 O 0.45855 0.2143 0.85253 0.0
C81 C 0.54234 0.12281 0.91018 0.0
O82 O 0.55777 0.11014 0.88521 0.0
C83 C 0.60552 0.22097 0.86064 0.0
O84 O 0.58433 0.2461 0.87067 0.0
O85 O 0.59241 0.19037 0.85567 0.0
O86 O 0.51179 0.23556 0.86621 0.0
O87 O 0.50707 0.15299 0.83023 0.0
C88 C 0.47927 0.13658 0.83943 0.0
O89 O 0.47133 0.1372 0.8691 0.0
O90 O 0.53036 0.15431 0.90943 0.0
Mg91 Mg 0.84866 0.03874 0.36129 0.0
C92 C 0.77053 0.02827 0.34976 0.0
O93 O 0.77544 0.06046 0.33893 0.0
C94 C 0.90878 0.04834 0.40541 0.0
O95 O 0.91592 0.07204 0.38388 0.0
C96 C 0.82496 0.11039 0.3799 0.0
O97 O 0.8197 0.09183 0.40534 0.0
O98 O 0.83877 0.09515 0.35657 0.0
O99 O 0.79678 0.01226 0.36224 0.0
O100 O 0.87881 0.01739 0.32245 0.0
C101 C 0.86405 0.9959 0.30375 0.0
O102 O 0.82988 0.98884 0.30695 0.0
O103 O 0.88062 0.02966 0.40275 0.0
C104 C 1.00848 0.46317 0.92697 0.0
C105 C 1.01006 0.42617 0.93046 0.0
C106 C 1.01423 0.48549 0.95229 0.0
C107 C 0.02145 0.47131 0.98188 0.0
C108 C 0.02333 0.43432 0.98526 0.0
C109 C 0.01759 0.41199 0.95991 0.0
C110 C 0.02862 0.4941 1.00937 0.0
C111 C 0.01791 0.52812 1.01167 0.0
C112 C 0.02556 0.55112 0.03892 0.0
C113 C 1.00441 0.58131 0.04372 0.0
C114 C 1.01105 0.60399 0.06865 0.0
C115 C 0.03925 0.59715 0.0893 0.0
H116 H 0.07179 0.52229 0.05611 0.0
C117 C 0.0607 0.56718 0.08434 0.0
C118 C 0.05405 0.5445 0.05943 0.0
H119 H 0.08284 0.56125 0.09963 0.0
H120 H 1.00307 0.47504 0.90456 0.0
H121 H 1.01369 0.51376 0.94828 0.0
H122 H 0.02917 0.4226 1.00766 0.0
H123 H 0.01913 0.38362 0.96341 0.0
H124 H 0.04211 0.48171 0.02884 0.0
H125 H 1.00162 0.53953 0.99339 0.0
H126 H 0.98251 0.58733 0.02817 0.0
H127 H 0.99406 0.62688 0.07172 0.0
C128 C 0.44574 0.53949 0.58728 0.0
C129 C 0.42831 0.50834 0.597 0.0
C130 C 0.4726 0.53837 0.56472 0.0
C131 C 0.48246 0.50601 0.55104 0.0
C132 C 0.46497 0.47493 0.56082 0.0
C133 C 0.43821 0.47604 0.58345 0.0
C134 C 0.51136 0.50322 0.5273 0.0
C135 C 0.52368 0.53083 0.51039 0.0
C136 C 0.55158 0.52759 0.48587 0.0
C137 C 0.55307 0.55342 0.46237 0.0
C138 C 0.57803 0.55099 0.43836 0.0
C139 C 0.60244 0.52279 0.4374 0.0
H140 H 0.57742 0.48016 0.50369 0.0
C141 C 0.60186 0.49757 0.46148 0.0
C142 C 0.57677 0.49994 0.48549 0.0
H143 H 0.62046 0.47564 0.46158 0.0
H144 H 0.43908 0.56479 0.59747 0.0
H145 H 0.48592 0.56287 0.55872 0.0
H146 H 0.47205 0.44958 0.55092 0.0
H147 H 0.42546 0.45151 0.59046 0.0
H148 H 0.52156 0.4769 0.52266 0.0
H149 H 0.51148 0.55666 0.51303 0.0
H150 H 0.53435 0.57525 0.46222 0.0
H151 H 0.57781 0.571 0.4203 0.0
C152 C 0.49219 0.96323 0.09756 0.0
C153 C 0.50243 0.92748 0.09617 0.0
C154 C 0.49793 0.986 0.07236 0.0
C155 C 0.51436 0.97359 0.04511 0.0
C156 C 0.52424 0.93774 0.04368 0.0
C157 C 0.51846 0.91496 0.06889 0.0
C158 C 0.52073 0.99662 0.0174 0.0
C159 C 0.52084 0.0324 0.01796 0.0
C160 C 0.52703 0.05508 0.99005 0.0
C161 C 0.5147 0.09021 0.99019 0.0
C162 C 0.51981 0.11238 0.96444 0.0
C163 C 0.53768 0.09997 0.93799 0.0
H164 H 0.55668 0.01655 0.96295 0.0
C165 C 0.55068 0.06507 0.93806 0.0
C166 C 0.54556 0.04292 0.96376 0.0
H167 H 0.56489 0.05471 0.9182 0.0
H168 H 0.47948 0.97372 0.11812 0.0
H169 H 0.4888 0.01301 0.07436 0.0
H170 H 0.53667 0.92728 0.02297 0.0
H171 H 0.5266 0.88756 0.06698 0.0
H172 H 0.52566 0.98312 0.99567 0.0
H173 H 0.51568 0.04609 0.03954 0.0
H174 H 0.50068 0.10048 1.0102 0.0
H175 H 0.50956 0.13915 0.96522 0.0
C176 C 0.96453 0.06442 0.43422 0.0
C177 C 0.93403 0.04286 0.4315 0.0
C178 C 0.98913 0.05889 0.45811 0.0
C179 C 0.98376 0.0317 0.48006 0.0
C180 C 0.95338 1.01001 0.47724 0.0
C181 C 0.92866 0.01563 0.45335 0.0
C182 C 1.00989 0.02445 0.50535 0.0
C183 C 0.03197 0.04935 0.51701 0.0
C184 C 0.05789 0.0425 0.54249 0.0
C185 C 0.06852 0.07083 0.56135 0.0
C186 C 0.09268 0.06561 0.58564 0.0
C187 C 0.10728 0.03196 0.59135 0.0
H188 H 0.0663 0.98663 0.5332 0.0
C189 C 0.09743 1.00373 0.57196 0.0
C190 C 0.07296 1.0089 0.54781 0.0
H191 H 0.10829 0.97749 0.57564 0.0
H192 H 0.9697 0.08546 0.41767 0.0
H193 H 1.01269 0.07551 0.45878 0.0
H194 H 0.94869 0.98868 0.49362 0.0
H195 H 0.90556 0.9984 0.45184 0.0
H196 H 1.00965 0.99813 0.51559 0.0
H197 H 0.02977 0.07649 0.50884 0.0
H198 H 0.05769 0.09708 0.55758 0.0
H199 H 0.0998 0.08798 0.60001 0.0
C200 C 0.16826 0.7146 0.1676 0.0
C201 C 0.14791 0.71416 0.1402 0.0
C202 C 0.20389 0.72611 0.16712 0.0
C203 C 0.21985 0.73737 0.13916 0.0
C204 C 0.19959 0.73628 0.11181 0.0
C205 C 0.16405 0.72505 0.11232 0.0
C206 C 0.25775 0.74911 0.13705 0.0
C207 C 0.27677 0.7621 0.16102 0.0
C208 C 0.3146 0.77398 0.15783 0.0
C209 C 0.32834 0.79928 0.17847 0.0
C210 C 0.36383 0.81089 0.17602 0.0
C211 C 0.3864 0.79716 0.15297 0.0
H212 H 0.32846 0.73944 0.11945 0.0
C213 C 0.37276 0.77151 0.13262 0.0
C214 C 0.33744 0.75992 0.13509 0.0
H215 H 0.38949 0.75998 0.11485 0.0
H216 H 0.15663 0.70626 0.18944 0.0
H217 H 0.21887 0.7256 0.18855 0.0
H218 H 0.21123 0.74444 0.08989 0.0
H219 H 0.14925 0.72492 0.09075 0.0
H220 H 0.2698 0.74862 0.11415 0.0
H221 H 0.2639 0.76585 0.18332 0.0
H222 H 0.3115 0.81031 0.19642 0.0
H223 H 0.37356 0.83049 0.19221 0.0
C224 C 0.27375 0.65626 0.64696 0.0
C225 C 0.30322 0.64579 0.66492 0.0
C226 C 0.26095 0.6909 0.64828 0.0
C227 C 0.27757 0.71613 0.6674 0.0
C228 C 0.30657 0.70548 0.68587 0.0
C229 C 0.31938 0.6707 0.68458 0.0
C230 C 0.26484 0.7534 0.66902 0.0
C231 C 0.2475 0.76942 0.64543 0.0
C232 C 0.23488 0.80673 0.64607 0.0
C233 C 0.22845 0.824 0.61774 0.0
C234 C 0.21618 0.85888 0.61701 0.0
C235 C 0.20968 0.87728 0.64467 0.0
H236 H 0.23155 0.8123 0.69616 0.0
C237 C 0.21554 0.85989 0.67311 0.0
C238 C 0.22797 0.82496 0.67384 0.0
H239 H 0.2106 0.87327 0.69485 0.0
H240 H 0.26032 0.63764 0.63188 0.0
H241 H 0.2377 0.69753 0.63457 0.0
H242 H 0.31963 0.72423 0.70108 0.0
H243 H 0.34199 0.66342 0.69887 0.0
H244 H 0.27167 0.76841 0.68959 0.0
H245 H 0.2438 0.75525 0.62382 0.0
H246 H 0.23318 0.81055 0.59599 0.0
H247 H 0.21184 0.87139 0.59469 0.0
C248 C 0.65737 0.2628 0.86102 0.0
C249 C 0.64424 0.22821 0.85701 0.0
C250 C 0.69399 0.2698 0.85974 0.0
C251 C 0.71848 0.24234 0.85426 0.0
C252 C 0.70533 0.20783 0.84983 0.0
C253 C 0.66858 0.20083 0.85099 0.0
C254 C 0.75779 0.24828 0.85555 0.0
C255 C 0.77342 0.2801 0.85083 0.0
C256 C 0.81228 0.28664 0.85543 0.0
C257 C 0.82877 0.31513 0.83993 0.0
C258 C 0.86492 0.32293 0.84487 0.0
C259 C 0.88519 0.30266 0.86581 0.0
H260 H 0.8207 0.24504 0.88963 0.0
C261 C 0.86858 0.27435 0.8815 0.0
C262 C 0.83261 0.26644 0.87642 0.0
H263 H 0.88334 0.25825 0.89789 0.0
H264 H 0.6394 0.28453 0.86581 0.0
H265 H 0.70289 0.29656 0.8642 0.0
H266 H 0.72358 0.1861 0.84584 0.0
H267 H 0.65937 0.17388 0.8479 0.0
H268 H 0.77436 0.22538 0.86046 0.0
H269 H 0.75742 0.3023 0.84291 0.0
H270 H 0.81364 0.33142 0.82393 0.0
H271 H 0.87687 0.34497 0.83248 0.0
C272 C 0.71155 0.35489 0.35841 0.0
C273 C 0.69658 0.36941 0.38542 0.0
C274 C 0.72501 0.32034 0.35854 0.0
C275 C 0.72367 0.29959 0.38573 0.0
C276 C 0.70739 0.31367 0.41226 0.0
C277 C 0.69423 0.34823 0.41221 0.0
C278 C 0.73866 0.26321 0.38756 0.0
C279 C 0.76546 0.25146 0.36942 0.0
C280 C 0.7815 0.21562 0.37287 0.0
C281 C 0.79841 0.20005 0.34727 0.0
C282 C 0.81323 0.16614 0.34958 0.0
C283 C 0.81171 0.14723 0.3777 0.0
H284 H 0.76973 0.20866 0.42195 0.0
C285 C 0.79588 0.1633 0.40359 0.0
C286 C 0.78109 0.19712 0.40128 0.0
H287 H 0.79463 0.14967 0.42571 0.0
H288 H 0.71355 0.37046 0.33733 0.0
H289 H 0.73625 0.31007 0.33731 0.0
H290 H 0.70561 0.29817 0.43341 0.0
H291 H 0.68265 0.35849 0.43335 0.0
H292 H 0.72784 0.24602 0.40549 0.0
H293 H 0.77617 0.2684 0.35126 0.0
H294 H 0.7996 0.21389 0.32523 0.0
H295 H 0.82535 0.15457 0.32921 0.0
C296 C 0.7824 0.58028 0.33526 0.0
C297 C 0.77483 0.54628 0.34697 0.0
C298 C 0.81564 0.5878 0.32183 0.0
C299 C 0.8421 0.56144 0.31992 0.0
C300 C 0.83499 0.52797 0.3328 0.0
C301 C 0.80188 0.52051 0.34633 0.0
C302 C 0.8756 0.56651 0.3018 0.0
C303 C 0.89001 0.59839 0.29521 0.0
C304 C 0.92021 0.60333 0.27312 0.0
C305 C 0.9415 0.63387 0.27523 0.0
C306 C 0.96742 0.64135 0.25271 0.0
C307 C 0.97217 0.61868 0.22727 0.0
H308 H 0.90956 0.55658 0.2453 0.0
C309 C 0.95165 0.58754 0.22567 0.0
C310 C 0.92597 0.57993 0.24828 0.0
H311 H 0.95454 0.56957 0.20633 0.0
H312 H 0.76215 0.60071 0.33527 0.0
H313 H 0.81966 0.6137 0.31159 0.0
H314 H 0.85476 0.50712 0.33158 0.0
H315 H 0.79705 0.49403 0.35514 0.0
H316 H 0.8886 0.5428 0.29325 0.0
H317 H 0.87926 0.62195 0.30608 0.0
H318 H 0.93749 0.65247 0.29396 0.0
H319 H 0.98265 0.66566 0.2546 0.0
C320 C 0.40465 0.47539 0.76381 0.0
C321 C 0.42747 0.48597 0.73955 0.0
C322 C 0.41528 0.44932 0.785 0.0
C323 C 0.44896 0.43312 0.78226 0.0
C324 C 0.47252 0.44531 0.7592 0.0
C325 C 0.46188 0.47132 0.73799 0.0
C326 C 0.46001 0.40259 0.80198 0.0
C327 C 0.43655 0.37982 0.8151 0.0
C328 C 0.44731 0.34571 0.82977 0.0
C329 C 0.42266 0.31764 0.83018 0.0
C330 C 0.43267 0.28406 0.84073 0.0
C331 C 0.46756 0.27786 0.8514 0.0
H332 H 0.501 0.3613 0.84337 0.0
C333 C 0.49163 0.30646 0.85281 0.0
C334 C 0.48162 0.34006 0.84218 0.0
H335 H 0.5186 0.30271 0.86125 0.0
H336 H 0.3781 0.48644 0.76592 0.0
H337 H 0.39683 0.44169 0.80316 0.0
H338 H 0.49879 0.43367 0.75676 0.0
H339 H 0.48026 0.47903 0.71976 0.0
H340 H 0.48834 0.39659 0.80268 0.0
H341 H 0.40813 0.38415 0.81202 0.0
H342 H 0.39591 0.3213 0.82116 0.0
H343 H 0.41335 0.26272 0.83955 0.0
C344 C 0.5638 0.89979 0.24939 0.0
C345 C 0.57643 0.87271 0.23002 0.0
C346 C 0.58634 0.91513 0.27159 0.0
C347 C 0.62195 0.90359 0.27479 0.0
C348 C 0.63387 0.87558 0.25624 0.0
C349 C 0.61154 0.86048 0.23407 0.0
C350 C 0.64812 0.92037 0.29619 0.0
C351 C 0.64543 0.95386 0.30658 0.0
C352 C 0.67557 0.97262 0.32201 0.0
C353 C 0.67799 1.00952 0.31873 0.0
C354 C 0.70816 0.02777 0.32909 0.0
C355 C 0.73655 1.00954 0.34324 0.0
H356 H 0.70136 0.92643 0.34228 0.0
C357 C 0.73308 0.97297 0.34858 0.0
C358 C 0.70284 0.95467 0.33816 0.0
H359 H 0.75426 0.95822 0.35979 0.0
H360 H 0.53675 0.90954 0.24703 0.0
H361 H 0.57573 0.93595 0.28603 0.0
H362 H 0.66099 0.8659 0.2583 0.0
H363 H 0.62207 0.83939 0.21982 0.0
H364 H 0.67256 0.90576 0.30051 0.0
H365 H 0.62237 0.96964 0.3002 0.0
H366 H 0.65722 0.02414 0.3068 0.0
H367 H 0.70973 0.05604 0.32495 0.0
C368 C 1.0078 0.20338 0.8223 0.0
C369 C 0.02216 0.22701 0.84407 0.0
C370 C 0.02541 0.1719 0.81519 0.0
C371 C 0.05785 0.1632 0.82982 0.0
C372 C 0.0715 0.18624 0.85244 0.0
C373 C 0.05373 0.21773 0.85967 0.0
C374 C 0.08003 0.13279 0.81945 0.0
C375 C 0.06667 0.10454 0.80427 0.0
C376 C 0.08917 0.07823 0.78769 0.0
C377 C 0.07385 0.05937 0.76303 0.0
C378 C 0.09478 0.03768 0.74422 0.0
C379 C 0.13157 0.03414 0.7498 0.0
H380 H 0.13821 0.08578 0.81395 0.0
C381 C 0.14651 0.05114 0.77568 0.0
C382 C 0.12555 0.07289 0.7945 0.0
H383 H 0.17468 0.04857 0.7809 0.0
H384 H 0.98354 0.20976 0.80983 0.0
H385 H 1.01434 0.15561 0.79701 0.0
H386 H 0.09656 0.18039 0.86389 0.0
H387 H 0.06557 0.23546 0.87647 0.0
H388 H 0.10862 0.13529 0.82284 0.0
H389 H 0.03797 0.10207 0.80142 0.0
H390 H 0.04583 0.0626 0.75742 0.0
H391 H 0.08232 0.02473 0.72464 0.0
C392 C 0.07841 0.39043 0.78151 0.0
C393 C 0.084 0.35901 0.79839 0.0
C394 C 0.10342 0.40169 0.75927 0.0
C395 C 0.13427 0.38144 0.7534 0.0
C396 C 0.13881 0.34936 0.76937 0.0
C397 C 0.11422 0.33842 0.79174 0.0
C398 C 0.16311 0.39287 0.73179 0.0
C399 C 0.17057 0.42698 0.72505 0.0
C400 C 0.20406 0.43851 0.70916 0.0
C401 C 0.20562 0.47243 0.69574 0.0
C402 C 0.23791 0.48604 0.68436 0.0
C403 C 0.26951 0.46611 0.68652 0.0
H404 H 0.23597 0.39215 0.72087 0.0
C405 C 0.26768 0.43161 0.69872 0.0
C406 C 0.23545 0.418 0.71001 0.0
H407 H 0.29151 0.41558 0.70085 0.0
H408 H 0.0552 0.4067 0.78598 0.0
H409 H 0.09847 0.42613 0.74685 0.0
H410 H 0.16212 0.33308 0.76522 0.0
H411 H 0.11913 0.31384 0.80403 0.0
H412 H 0.18071 0.37227 0.72334 0.0
H413 H 0.15279 0.44768 0.73305 0.0
H414 H 0.182 0.48893 0.69492 0.0
H415 H 0.23836 0.51277 0.67517 0.0
C416 C 0.65208 0.5542 0.25629 0.0
C417 C 0.63647 0.53595 0.28138 0.0
C418 C 0.63167 0.57718 0.23795 0.0
C419 C 0.59517 0.58236 0.24437 0.0
C420 C 0.57928 0.56258 0.26834 0.0
C421 C 0.59967 0.53981 0.28675 0.0
C422 C 0.57292 0.60902 0.22781 0.0
C423 C 0.58633 0.63812 0.2137 0.0
C424 C 0.56381 0.66816 0.20278 0.0
C425 C 0.57785 0.69217 0.18093 0.0
C426 C 0.55913 0.72292 0.17286 0.0
C427 C 0.52611 0.7305 0.18682 0.0
H428 H 0.51871 0.6583 0.23358 0.0
C429 C 0.5116 0.70602 0.20799 0.0
C430 C 0.53018 0.67531 0.21596 0.0
H431 H 0.48626 0.71108 0.21926 0.0
H432 H 0.6803 0.55156 0.25133 0.0
H433 H 0.64475 0.59096 0.21905 0.0
H434 H 0.55118 0.56572 0.27365 0.0
H435 H 0.5867 0.52594 0.30571 0.0
H436 H 0.54418 0.60578 0.22958 0.0
H437 H 0.61501 0.64136 0.21143 0.0
H438 H 0.60381 0.68755 0.17062 0.0
H439 H 0.57113 0.74133 0.15657 0.0
C440 C 0.46043 0.12066 0.78508 0.0
C441 C 0.45376 0.12063 0.81719 0.0
C442 C 0.43465 0.10784 0.76433 0.0
C443 C 0.40169 0.09491 0.77541 0.0
C444 C 0.39541 0.0945 0.80746 0.0
C445 C 0.42114 0.10693 0.82809 0.0
C446 C 0.37233 0.08326 0.7546 0.0
C447 C 0.37705 0.07051 0.72577 0.0
C448 C 0.34653 0.05667 0.70736 0.0
C449 C 0.35126 0.02666 0.68876 0.0
C450 C 0.32199 1.01078 0.67411 0.0
C451 C 0.2875 0.02499 0.67741 0.0
H452 H 0.3081 0.09595 0.72245 0.0
C453 C 0.28327 0.05645 0.69431 0.0
C454 C 0.31244 0.07211 0.70914 0.0
H455 H 0.25717 0.06835 0.69709 0.0
H456 H 0.48524 0.13121 0.77594 0.0
H457 H 0.44018 0.10917 0.73973 0.0
H458 H 0.37028 0.08475 0.81665 0.0
H459 H 0.41499 0.1065 0.85263 0.0
H460 H 0.34558 0.08315 0.76443 0.0
H461 H 0.40385 0.06705 0.71666 0.0
H462 H 0.37734 0.01453 0.68669 0.0
H463 H 0.32624 0.98674 0.66104 0.0
C464 C 0.01856 0.81249 0.20557 0.0
C465 C 1.00567 0.78876 0.18319 0.0
C466 C 0.99894 0.84245 0.21367 0.0
C467 C 0.96598 0.84972 0.19928 0.0
C468 C 0.95377 0.82663 0.17608 0.0
C469 C 0.9734 0.79653 0.16803 0.0
C470 C 0.94205 0.87873 0.21 0.0
C471 C 0.95299 0.90592 0.2279 0.0
C472 C 0.92857 0.93127 0.24376 0.0
C473 C 0.94369 0.96006 0.25967 0.0
C474 C 0.92261 0.98199 0.27821 0.0
C475 C 0.88579 0.97566 0.28125 0.0
H476 H 0.87833 0.90385 0.23466 0.0
C477 C 0.87032 0.94788 0.26431 0.0
C478 C 0.89139 0.92582 0.24593 0.0
H479 H 0.84202 0.94221 0.26615 0.0
H480 H 0.04329 0.8073 0.21778 0.0
H481 H 1.00918 0.85871 0.23222 0.0
H482 H 0.92841 0.83134 0.16471 0.0
H483 H 0.9627 0.77878 0.15069 0.0
H484 H 0.9142 0.87665 0.20341 0.0
H485 H 0.9813 0.90943 0.23222 0.0
H486 H 0.97219 0.96498 0.25858 0.0
H487 H 0.93539 1.00323 0.29087 0.0
loop_
_geom_bond_atom_site_label_1
_geom_bond_atom_site_label_2
_geom_bond_distance
_geom_bond_site_symmetry_2
_ccdc_geom_bond_type
Mg0 O7 2.141 . S
Mg0 O8 2.048 1_455 S
Mg0 O9 2.048 . S
Mg0 O12 2.141 . S
C1 O2 1.313 . S
C1 O8 1.195 . S
O2 C1 1.313 . S
C3 O4 1.245 . S
C3 O12 1.289 . S
O4 C3 1.245 . S
C5 O6 1.245 . S
C5 O7 1.289 . S
O6 C5 1.245 . S
O7 Mg0 2.141 . S
O7 C5 1.289 . S
O8 Mg0 2.048 1_655 S
O8 C1 1.195 . S
O9 Mg0 2.048 . S
O9 C10 1.195 . S
C10 O9 1.195 . S
C10 O11 1.313 1_455 S
O11 C10 1.313 1_655 S
O12 Mg0 2.141 . S
O12 C3 1.289 . S
Mg13 O20 2.141 . S
Mg13 O21 2.048 . S
Mg13 O22 2.048 . S
Mg13 O25 2.141 . S
C14 O15 1.313 . S
C14 O21 1.195 . S
O15 C14 1.313 . S
C16 O17 1.245 . S
C16 O25 1.289 . S
O17 C16 1.245 . S
C18 O19 1.245 . S
C18 O20 1.289 . S
O19 C18 1.245 . S
O20 Mg13 2.141 . S
O20 C18 1.289 . S
O21 Mg13 2.048 . S
O21 C14 1.195 . S
O22 Mg13 2.048 . S
O22 C23 1.195 . S
C23 O22 1.195 . S
C23 O24 1.313 . S
O24 C23 1.313 . S
O25 Mg13 2.141 . S
O25 C16 1.289 . S
Mg26 O33 2.141 . S
Mg26 O34 2.048 . S
Mg26 O35 2.048 . S
Mg26 O38 2.141 . S
C27 O28 1.313 . S
C27 O34 1.195 . S
O28 C27 1.313 . S
C29 O30 1.245 . S
C29 O38 1.289 . S
O30 C29 1.245 . S
C31 O32 1.245 . S
C31 O33 1.289 . S
O32 C31 1.245 . S
O33 Mg26 2.141 . S
O33 C31 1.289 . S
O34 Mg26 2.048 . S
O34 C27 1.195 . S
O35 Mg26 2.048 . S
O35 C36 1.195 . S
C36 O35 1.195 . S
C36 O37 1.313 . S
O37 C36 1.313 . S
O38 Mg26 2.141 . S
O38 C29 1.289 . S
Mg39 O46 2.141 . S
Mg39 O47 2.048 1_565 S
Mg39 O48 2.048 . S
Mg39 O51 2.141 . S
C40 O41 1.313 . S
C40 O47 1.195 . S
O41 C40 1.313 . S
C42 O43 1.245 . S
C42 O51 1.289 . S
O43 C42 1.245 . S
C44 O45 1.245 . S
C44 O46 1.289 . S
O45 C44 1.245 . S
O46 Mg39 2.141 . S
O46 C44 1.289 . S
O47 Mg39 2.048 1_545 S
O47 C40 1.195 . S
O48 Mg39 2.048 . S
O48 C49 1.195 . S
C49 O48 1.195 . S
C49 O50 1.313 1_565 S
O50 C49 1.313 1_545 S
O51 Mg39 2.141 . S
O51 C42 1.289 . S
Mg52 O59 2.141 . S
Mg52 O60 2.048 . S
Mg52 O61 2.048 1_655 S
Mg52 O64 2.141 . S
C53 O54 1.313 1_655 S
C53 O60 1.195 . S
O54 C53 1.313 1_455 S
C55 O56 1.245 . S
C55 O64 1.289 . S
O56 C55 1.245 . S
C57 O58 1.245 . S
C57 O59 1.289 . S
O58 C57 1.245 . S
O59 Mg52 2.141 . S
O59 C57 1.289 . S
O60 Mg52 2.048 . S
O60 C53 1.195 . S
O61 Mg52 2.048 1_455 S
O61 C62 1.195 . S
C62 O61 1.195 . S
C62 O63 1.313 . S
O63 C62 1.313 . S
O64 Mg52 2.141 . S
O64 C55 1.289 . S
Mg65 O72 2.141 . S
Mg65 O73 2.048 . S
Mg65 O74 2.048 . S
Mg65 O77 2.141 . S
C66 O67 1.313 . S
C66 O73 1.195 . S
O67 C66 1.313 . S
C68 O69 1.245 . S
C68 O77 1.289 . S
O69 C68 1.245 . S
C70 O71 1.245 . S
C70 O72 1.289 . S
O71 C70 1.245 . S
O72 Mg65 2.141 . S
O72 C70 1.289 . S
O73 Mg65 2.048 . S
O73 C66 1.195 . S
O74 Mg65 2.048 . S
O74 C75 1.195 . S
C75 O74 1.195 . S
C75 O76 1.313 . S
O76 C75 1.313 . S
O77 Mg65 2.141 . S
O77 C68 1.289 . S
Mg78 O85 2.141 . S
Mg78 O86 2.048 . S
Mg78 O87 2.048 . S
Mg78 O90 2.141 . S
C79 O80 1.313 . S
C79 O86 1.195 . S
O80 C79 1.313 . S
C81 O82 1.245 . S
C81 O90 1.289 . S
O82 C81 1.245 . S
C83 O84 1.245 . S
C83 O85 1.289 . S
O84 C83 1.245 . S
O85 Mg78 2.141 . S
O85 C83 1.289 . S
O86 Mg78 2.048 . S
O86 C79 1.195 . S
O87 Mg78 2.048 . S
O87 C88 1.195 . S
C88 O87 1.195 . S
C88 O89 1.313 . S
O89 C88 1.313 . S
O90 Mg78 2.141 . S
O90 C81 1.289 . S
Mg91 O98 2.141 . S
Mg91 O99 2.048 . S
Mg91 O100 2.048 1_545 S
Mg91 O103 2.141 . S
C92 O93 1.313 1_545 S
C92 O99 1.195 . S
O93 C92 1.313 1_565 S
C94 O95 1.245 . S
C94 O103 1.289 . S
O95 C94 1.245 . S
C96 O97 1.245 . S
C96 O98 1.289 . S
O97 C96 1.245 . S
O98 Mg91 2.141 . S
O98 C96 1.289 . S
O99 Mg91 2.048 . S
O99 C92 1.195 . S
O100 Mg91 2.048 1_565 S
O100 C101 1.195 . S
C101 O100 1.195 . S
C101 O102 1.313 . S
O102 C101 1.313 . S
O103 Mg91 2.141 . S
O103 C94 1.289 . S
C104 C105 1.397 . S
C104 C106 1.381 1_655 S
C104 H120 0.941 1_655 S
C105 C104 1.397 . S
C105 C109 1.383 . S
C106 C104 1.381 1_455 S
C106 C107 1.402 1_455 S
C106 H121 0.951 . S
C107 C106 1.402 1_655 S
C107 C108 1.375 . S
C107 C110 1.481 . S
C108 C107 1.375 . S
C108 C109 1.367 . S
C108 H122 0.951 . S
C109 C105 1.383 . S
C109 C108 1.367 . S
C109 H123 0.950 . S
C110 C107 1.481 . S
C110 C111 1.304 1_655 S
C110 H124 0.950 1_556 S
C111 C110 1.304 1_455 S
C111 C112 1.455 1_556 S
C111 H125 0.971 . S
C112 C111 1.455 1_554 S
C112 C113 1.375 . S
C112 C118 1.404 1_455 S
C113 C112 1.375 . S
C113 C114 1.369 . S
C113 H126 0.950 . S
C114 C113 1.369 . S
C114 C115 1.392 . S
C114 H127 0.951 . S
C115 C114 1.392 . S
C115 C117 1.384 1_455 S
H116 C118 0.949 . S
C117 C115 1.384 1_655 S
C117 C118 1.385 . S
C117 H119 0.950 . S
C118 C112 1.404 1_655 S
C118 H116 0.949 . S
C118 C117 1.385 . S
H119 C117 0.950 . S
H120 C104 0.941 1_455 S
H121 C106 0.951 . S
H122 C108 0.951 . S
H123 C109 0.950 . S
H124 C110 0.950 1_554 S
H125 C111 0.971 . S
H126 C113 0.950 . S
H127 C114 0.951 . S
C128 C129 1.386 . S
C128 C130 1.383 . S
C128 H144 0.951 . S
C129 C128 1.386 . S
C129 C133 1.383 . S
C130 C128 1.383 . S
C130 C131 1.402 . S
C130 H145 0.951 . S
C131 C130 1.402 . S
C131 C132 1.375 . S
C131 C134 1.481 . S
C132 C131 1.375 . S
C132 C133 1.367 . S
C132 H146 0.951 . S
C133 C129 1.383 . S
C133 C132 1.367 . S
C133 H147 0.950 . S
C134 C131 1.481 . S
C134 C135 1.297 . S
C134 H148 0.950 . S
C135 C134 1.297 . S
C135 C136 1.479 . S
C135 H149 0.950 . S
C136 C135 1.479 . S
C136 C137 1.375 . S
C136 C142 1.404 . S
C137 C136 1.375 . S
C137 C138 1.369 . S
C137 H150 0.950 . S
C138 C137 1.369 . S
C138 C139 1.392 . S
C138 H151 0.951 . S
C139 C138 1.392 . S
C139 C141 1.384 . S
H140 C142 0.949 . S
C141 C139 1.384 . S
C141 C142 1.385 . S
C141 H143 0.950 . S
C142 C136 1.404 . S
C142 H140 0.949 . S
C142 C141 1.385 . S
H143 C141 0.950 . S
H144 C128 0.951 . S
H145 C130 0.951 . S
H146 C132 0.951 . S
H147 C133 0.950 . S
H148 C134 0.950 . S
H149 C135 0.950 . S
H150 C137 0.950 . S
H151 C138 0.951 . S
C152 C153 1.386 . S
C152 C154 1.383 . S
C152 H168 0.951 . S
C153 C152 1.386 . S
C153 C157 1.383 . S
C154 C152 1.383 . S
C154 C155 1.402 . S
C154 H169 0.951 . S
C155 C154 1.402 . S
C155 C156 1.375 . S
C155 C158 1.481 1_565 S
C156 C155 1.375 . S
C156 C157 1.367 . S
C156 H170 0.951 . S
C157 C153 1.383 . S
C157 C156 1.367 . S
C157 H171 0.950 . S
C158 C155 1.481 1_545 S
C158 C159 1.297 1_554 S
C158 H172 0.950 . S
C159 C158 1.297 1_556 S
C159 C160 1.479 . S
C159 H173 0.950 . S
C160 C159 1.479 . S
C160 C161 1.375 . S
C160 C166 1.404 . S
C161 C160 1.375 . S
C161 C162 1.369 . S
C161 H174 0.950 . S
C162 C161 1.369 . S
C162 C163 1.392 . S
C162 H175 0.951 . S
C163 C162 1.392 . S
C163 C165 1.384 . S
H164 C166 0.949 . S
C165 C163 1.384 . S
C165 C166 1.385 . S
C165 H167 0.950 . S
C166 C160 1.404 . S
C166 H164 0.949 . S
C166 C165 1.385 . S
H167 C165 0.950 . S
H168 C152 0.951 . S
H169 C154 0.951 . S
H170 C156 0.951 . S
H171 C157 0.950 . S
H172 C158 0.950 . S
H173 C159 0.950 . S
H174 C161 0.950 . S
H175 C162 0.951 . S
C176 C177 1.386 . S
C176 C178 1.383 . S
C176 H192 0.951 . S
C177 C176 1.386 . S
C177 C181 1.383 1_545 S
C178 C176 1.383 . S
C178 C179 1.423 . S
C178 H193 0.951 . S
C179 C178 1.423 . S
C179 C180 1.362 1_545 S
C179 C182 1.473 1_545 S
C180 C179 1.362 1_565 S
C180 C181 1.367 . S
C180 H194 0.951 . S
C181 C177 1.383 1_565 S
C181 C180 1.367 . S
C181 H195 0.950 . S
C182 C179 1.473 1_565 S
C182 C183 1.297 1_565 S
C182 H196 0.950 . S
C183 C182 1.297 1_545 S
C183 C184 1.479 1_645 S
C183 H197 0.950 . S
C184 C183 1.479 1_465 S
C184 C185 1.375 1_565 S
C184 C190 1.404 . S
C185 C184 1.375 1_545 S
C185 C186 1.369 . S
C185 H198 0.950 . S
C186 C185 1.369 . S
C186 C187 1.392 1_545 S
C186 H199 0.951 . S
C187 C186 1.392 1_565 S
C187 C189 1.384 . S
H188 C190 0.949 . S
C189 C187 1.384 . S
C189 C190 1.385 . S
C189 H191 0.950 . S
C190 C184 1.404 . S
C190 H188 0.949 . S
C190 C189 1.385 . S
H191 C189 0.950 . S
H192 C176 0.951 . S
H193 C178 0.951 . S
H194 C180 0.951 . S
H195 C181 0.950 . S
H196 C182 0.950 . S
H197 C183 0.950 . S
H198 C185 0.950 . S
H199 C186 0.951 . S
C200 C201 1.386 . S
C200 C202 1.383 . S
C200 H216 0.951 . S
C201 C200 1.386 . S
C201 C205 1.383 . S
C202 C200 1.383 . S
C202 C203 1.402 . S
C202 H217 0.951 . S
C203 C202 1.402 . S
C203 C204 1.375 . S
C203 C206 1.481 . S
C204 C203 1.375 . S
C204 C205 1.367 . S
C204 H218 0.951 . S
C205 C201 1.383 . S
C205 C204 1.367 . S
C205 H219 0.950 . S
C206 C203 1.481 . S
C206 C207 1.297 . S
C206 H220 0.950 . S
C207 C206 1.297 . S
C207 C208 1.479 . S
C207 H221 0.950 . S
C208 C207 1.479 . S
C208 C209 1.375 . S
C208 C214 1.404 . S
C209 C208 1.375 . S
C209 C210 1.369 . S
C209 H222 0.950 . S
C210 C209 1.369 . S
C210 C211 1.392 . S
C210 H223 0.951 . S
C211 C210 1.392 . S
C211 C213 1.384 . S
H212 C214 0.949 . S
C213 C211 1.384 . S
C213 C214 1.385 . S
C213 H215 0.950 . S
C214 C208 1.404 . S
C214 H212 0.949 . S
C214 C213 1.385 . S
H215 C213 0.950 . S
H216 C200 0.951 . S
H217 C202 0.951 . S
H218 C204 0.951 . S
H219 C205 0.950 . S
H220 C206 0.950 . S
H221 C207 0.950 . S
H222 C209 0.950 . S
H223 C210 0.951 . S
C224 C225 1.386 . S
C224 C226 1.383 . S
C224 H240 0.951 . S
C225 C224 1.386 . S
C225 C229 1.383 . S
C226 C224 1.383 . S
C226 C227 1.402 . S
C226 H241 0.951 . S
C227 C226 1.402 . S
C227 C228 1.375 . S
C227 C230 1.481 . S
C228 C227 1.375 . S
C228 C229 1.367 . S
C228 H242 0.951 . S
C229 C225 1.383 . S
C229 C228 1.367 . S
C229 H243 0.950 . S
C230 C227 1.481 . S
C230 C231 1.297 . S
C230 H244 0.950 . S
C231 C230 1.297 . S
C231 C232 1.479 . S
C231 H245 0.950 . S
C232 C231 1.479 . S
C232 C233 1.375 . S
C232 C238 1.404 . S
C233 C232 1.375 . S
C233 C234 1.369 . S
C233 H246 0.950 . S
C234 C233 1.369 . S
C234 C235 1.392 . S
C234 H247 0.951 . S
C235 C234 1.392 . S
C235 C237 1.384 . S
H236 C238 0.949 . S
C237 C235 1.384 . S
C237 C238 1.385 . S
C237 H239 0.950 . S
C238 C232 1.404 . S
C238 H236 0.949 . S
C238 C237 1.385 . S
H239 C237 0.950 . S
H240 C224 0.951 . S
H241 C226 0.951 . S
H242 C228 0.951 . S
H243 C229 0.950 . S
H244 C230 0.950 . S
H245 C231 0.950 . S
H246 C233 0.950 . S
H247 C234 0.951 . S
C248 C249 1.386 . S
C248 C250 1.383 . S
C248 H264 0.951 . S
C249 C248 1.386 . S
C249 C253 1.383 . S
C250 C248 1.383 . S
C250 C251 1.402 . S
C250 H265 0.951 . S
C251 C250 1.402 . S
C251 C252 1.375 . S
C251 C254 1.481 . S
C252 C251 1.375 . S
C252 C253 1.367 . S
C252 H266 0.951 . S
C253 C249 1.383 . S
C253 C252 1.367 . S
C253 H267 0.950 . S
C254 C251 1.481 . S
C254 C255 1.297 . S
C254 H268 0.950 . S
C255 C254 1.297 . S
C255 C256 1.479 . S
C255 H269 0.950 . S
C256 C255 1.479 . S
C256 C257 1.375 . S
C256 C262 1.404 . S
C257 C256 1.375 . S
C257 C258 1.369 . S
C257 H270 0.950 . S
C258 C257 1.369 . S
C258 C259 1.392 . S
C258 H271 0.951 . S
C259 C258 1.392 . S
C259 C261 1.384 . S
H260 C262 0.949 . S
C261 C259 1.384 . S
C261 C262 1.385 . S
C261 H263 0.950 . S
C262 C256 1.404 . S
C262 H260 0.949 . S
C262 C261 1.385 . S
H263 C261 0.950 . S
H264 C248 0.951 . S
H265 C250 0.951 . S
H266 C252 0.951 . S
H267 C253 0.950 . S
H268 C254 0.950 . S
H269 C255 0.950 . S
H270 C257 0.950 . S
H271 C258 0.951 . S
C272 C273 1.386 . S
C272 C274 1.383 . S
C272 H288 0.951 . S
C273 C272 1.386 . S
C273 C277 1.383 . S
C274 C272 1.383 . S
C274 C275 1.402 . S
C274 H289 0.951 . S
C275 C274 1.402 . S
C275 C276 1.375 . S
C275 C278 1.481 . S
C276 C275 1.375 . S
C276 C277 1.367 . S
C276 H290 0.951 . S
C277 C273 1.383 . S
C277 C276 1.367 . S
C277 H291 0.950 . S
C278 C275 1.481 . S
C278 C279 1.297 . S
C278 H292 0.950 . S
C279 C278 1.297 . S
C279 C280 1.479 . S
C279 H293 0.950 . S
C280 C279 1.479 . S
C280 C281 1.375 . S
C280 C286 1.404 . S
C281 C280 1.375 . S
C281 C282 1.369 . S
C281 H294 0.950 . S
C282 C281 1.369 . S
C282 C283 1.392 . S
C282 H295 0.951 . S
C283 C282 1.392 . S
C283 C285 1.384 . S
H284 C286 0.949 . S
C285 C283 1.384 . S
C285 C286 1.385 . S
C285 H287 0.950 . S
C286 C280 1.404 . S
C286 H284 0.949 . S
C286 C285 1.385 . S
H287 C285 0.950 . S
H288 C272 0.951 . S
H289 C274 0.951 . S
H290 C276 0.951 . S
H291 C277 0.950 . S
H292 C278 0.950 . S
H293 C279 0.950 . S
H294 C281 0.950 . S
H295 C282 0.951 . S
C296 C297 1.386 . S
C296 C298 1.383 . S
C296 H312 0.951 . S
C297 C296 1.386 . S
C297 C301 1.383 . S
C298 C296 1.383 . S
C298 C299 1.402 . S
C298 H313 0.951 . S
C299 C298 1.402 . S
C299 C300 1.375 . S
C299 C302 1.481 . S
C300 C299 1.375 . S
C300 C301 1.367 . S
C300 H314 0.951 . S
C301 C297 1.383 . S
C301 C300 1.367 . S
C301 H315 0.950 . S
C302 C299 1.481 . S
C302 C303 1.297 . S
C302 H316 0.950 . S
C303 C302 1.297 . S
C303 C304 1.479 . S
C303 H317 0.950 . S
C304 C303 1.479 . S
C304 C305 1.375 . S
C304 C310 1.404 . S
C305 C304 1.375 . S
C305 C306 1.369 . S
C305 H318 0.950 . S
C306 C305 1.369 . S
C306 C307 1.392 . S
C306 H319 0.951 . S
C307 C306 1.392 . S
C307 C309 1.384 . S
H308 C310 0.949 . S
C309 C307 1.384 . S
C309 C310 1.385 . S
C309 H311 0.950 . S
C310 C304 1.404 . S
C310 H308 0.949 . S
C310 C309 1.385 . S
H311 C309 0.950 . S
H312 C296 0.951 . S
H313 C298 0.951 . S
H314 C300 0.951 . S
H315 C301 0.950 . S
H316 C302 0.950 . S
H317 C303 0.950 . S
H318 C305 0.950 . S
H319 C306 0.951 . S
C320 C321 1.386 . S
C320 C322 1.383 . S
C320 H336 0.951 . S
C321 C320 1.386 . S
C321 C325 1.383 . S
C322 C320 1.383 . S
C322 C323 1.402 . S
C322 H337 0.951 . S
C323 C322 1.402 . S
C323 C324 1.375 . S
C323 C326 1.481 . S
C324 C323 1.375 . S
C324 C325 1.367 . S
C324 H338 0.951 . S
C325 C321 1.383 . S
C325 C324 1.367 . S
C325 H339 0.950 . S
C326 C323 1.481 . S
C326 C327 1.297 . S
C326 H340 0.950 . S
C327 C326 1.297 . S
C327 C328 1.479 . S
C327 H341 0.950 . S
C328 C327 1.479 . S
C328 C329 1.375 . S
C328 C334 1.404 . S
C329 C328 1.375 . S
C329 C330 1.369 . S
C329 H342 0.950 . S
C330 C329 1.369 . S
C330 C331 1.392 . S
C330 H343 0.951 . S
C331 C330 1.392 . S
C331 C333 1.384 . S
H332 C334 0.949 . S
C333 C331 1.384 . S
C333 C334 1.385 . S
C333 H335 0.950 . S
C334 C328 1.404 . S
C334 H332 0.949 . S
C334 C333 1.385 . S
H335 C333 0.950 . S
H336 C320 0.951 . S
H337 C322 0.951 . S
H338 C324 0.951 . S
H339 C325 0.950 . S
H340 C326 0.950 . S
H341 C327 0.950 . S
H342 C329 0.950 . S
H343 C330 0.951 . S
C344 C345 1.386 . S
C344 C346 1.383 . S
C344 H360 0.951 . S
C345 C344 1.386 . S
C345 C349 1.383 . S
C346 C344 1.383 . S
C346 C347 1.402 . S
C346 H361 0.951 . S
C347 C346 1.402 . S
C347 C348 1.375 . S
C347 C350 1.481 . S
C348 C347 1.375 . S
C348 C349 1.367 . S
C348 H362 0.951 . S
C349 C345 1.383 . S
C349 C348 1.367 . S
C349 H363 0.950 . S
C350 C347 1.481 . S
C350 C351 1.297 . S
C350 H364 0.950 . S
C351 C350 1.297 . S
C351 C352 1.479 . S
C351 H365 0.950 . S
C352 C351 1.479 . S
C352 C353 1.375 . S
C352 C358 1.404 . S
C353 C352 1.375 . S
C353 C354 1.369 1_565 S
C353 H366 0.945 1_565 S
C354 C353 1.369 1_545 S
C354 C355 1.392 1_545 S
C354 H367 0.951 . S
C355 C354 1.392 1_565 S
C355 C357 1.384 . S
H356 C358 0.949 . S
C357 C355 1.384 . S
C357 C358 1.385 . S
C357 H359 0.950 . S
C358 C352 1.404 . S
C358 H356 0.949 . S
C358 C357 1.385 . S
H359 C357 0.950 . S
H360 C344 0.951 . S
H361 C346 0.951 . S
H362 C348 0.951 . S
H363 C349 0.950 . S
H364 C350 0.950 . S
H365 C351 0.950 . S
H366 C353 0.945 1_545 S
H367 C354 0.951 . S
C368 C369 1.386 1_655 S
C368 C370 1.383 1_655 S
C368 H384 0.951 . S
C369 C368 1.386 1_455 S
C369 C373 1.383 . S
C370 C368 1.383 1_455 S
C370 C371 1.402 . S
C370 H385 0.951 . S
C371 C370 1.402 . S
C371 C372 1.375 . S
C371 C374 1.481 . S
C372 C371 1.375 . S
C372 C373 1.367 . S
C372 H386 0.951 . S
C373 C369 1.383 . S
C373 C372 1.367 . S
C373 H387 0.950 . S
C374 C371 1.481 . S
C374 C375 1.297 . S
C374 H388 0.950 . S
C375 C374 1.297 . S
C375 C376 1.479 . S
C375 H389 0.950 . S
C376 C375 1.479 . S
C376 C377 1.375 . S
C376 C382 1.404 . S
C377 C376 1.375 . S
C377 C378 1.369 . S
C377 H390 0.950 . S
C378 C377 1.369 . S
C378 C379 1.392 . S
C378 H391 0.951 . S
C379 C378 1.392 . S
C379 C381 1.384 . S
H380 C382 0.949 . S
C381 C379 1.384 . S
C381 C382 1.385 . S
C381 H383 0.950 . S
C382 C376 1.404 . S
C382 H380 0.949 . S
C382 C381 1.385 . S
H383 C381 0.950 . S
H384 C368 0.951 . S
H385 C370 0.951 . S
H386 C372 0.951 . S
H387 C373 0.950 . S
H388 C374 0.950 . S
H389 C375 0.950 . S
H390 C377 0.950 . S
H391 C378 0.951 . S
C392 C393 1.386 . S
C392 C394 1.383 . S
C392 H408 0.951 . S
C393 C392 1.386 . S
C393 C397 1.383 . S
C394 C392 1.383 . S
C394 C395 1.402 . S
C394 H409 0.951 . S
C395 C394 1.402 . S
C395 C396 1.375 . S
C395 C398 1.481 . S
C396 C395 1.375 . S
C396 C397 1.367 . S
C396 H410 0.951 . S
C397 C393 1.383 . S
C397 C396 1.367 . S
C397 H411 0.950 . S
C398 C395 1.481 . S
C398 C399 1.297 . S
C398 H412 0.950 . S
C399 C398 1.297 . S
C399 C400 1.479 . S
C399 H413 0.950 . S
C400 C399 1.479 . S
C400 C401 1.375 . S
C400 C406 1.404 . S
C401 C400 1.375 . S
C401 C402 1.369 . S
C401 H414 0.950 . S
C402 C401 1.369 . S
C402 C403 1.392 . S
C402 H415 0.951 . S
C403 C402 1.392 . S
C403 C405 1.384 . S
H404 C406 0.949 . S
C405 C403 1.384 . S
C405 C406 1.385 . S
C405 H407 0.950 . S
C406 C400 1.404 . S
C406 H404 0.949 . S
C406 C405 1.385 . S
H407 C405 0.950 . S
H408 C392 0.951 . S
H409 C394 0.951 . S
H410 C396 0.951 . S
H411 C397 0.950 . S
H412 C398 0.950 . S
H413 C399 0.950 . S
H414 C401 0.950 . S
H415 C402 0.951 . S
C416 C417 1.386 . S
C416 C418 1.383 . S
C416 H432 0.951 . S
C417 C416 1.386 . S
C417 C421 1.383 . S
C418 C416 1.383 . S
C418 C419 1.402 . S
C418 H433 0.951 . S
C419 C418 1.402 . S
C419 C420 1.375 . S
C419 C422 1.481 . S
C420 C419 1.375 . S
C420 C421 1.367 . S
C420 H434 0.951 . S
C421 C417 1.383 . S
C421 C420 1.367 . S
C421 H435 0.950 . S
C422 C419 1.481 . S
C422 C423 1.297 . S
C422 H436 0.950 . S
C423 C422 1.297 . S
C423 C424 1.479 . S
C423 H437 0.950 . S
C424 C423 1.479 . S
C424 C425 1.375 . S
C424 C430 1.404 . S
C425 C424 1.375 . S
C425 C426 1.369 . S
C425 H438 0.950 . S
C426 C425 1.369 . S
C426 C427 1.392 . S
C426 H439 0.951 . S
C427 C426 1.392 . S
C427 C429 1.384 . S
H428 C430 0.949 . S
C429 C427 1.384 . S
C429 C430 1.385 . S
C429 H431 0.950 . S
C430 C424 1.404 . S
C430 H428 0.949 . S
C430 C429 1.385 . S
H431 C429 0.950 . S
H432 C416 0.951 . S
H433 C418 0.951 . S
H434 C420 0.951 . S
H435 C421 0.950 . S
H436 C422 0.950 . S
H437 C423 0.950 . S
H438 C425 0.950 . S
H439 C426 0.951 . S
C440 C441 1.386 . S
C440 C442 1.383 . S
C440 H456 0.951 . S
C441 C440 1.386 . S
C441 C445 1.383 . S
C442 C440 1.383 . S
C442 C443 1.402 . S
C442 H457 0.951 . S
C443 C442 1.402 . S
C443 C444 1.375 . S
C443 C446 1.481 . S
C444 C443 1.375 . S
C444 C445 1.367 . S
C444 H458 0.951 . S
C445 C441 1.383 . S
C445 C444 1.367 . S
C445 H459 0.950 . S
C446 C443 1.481 . S
C446 C447 1.297 . S
C446 H460 0.950 . S
C447 C446 1.297 . S
C447 C448 1.479 . S
C447 H461 0.950 . S
C448 C447 1.479 . S
C448 C449 1.375 . S
C448 C454 1.404 . S
C449 C448 1.375 . S
C449 C450 1.369 . S
C449 H462 0.950 . S
C450 C449 1.369 . S
C450 C451 1.392 1_545 S
C450 H463 0.951 . S
C451 C450 1.392 1_565 S
C451 C453 1.384 . S
H452 C454 0.949 . S
C453 C451 1.384 . S
C453 C454 1.385 1_565 S
C453 H455 0.950 . S
C454 C448 1.404 . S
C454 H452 0.949 . S
C454 C453 1.385 1_545 S
H455 C453 0.950 . S
H456 C440 0.951 . S
H457 C442 0.951 . S
H458 C444 0.951 . S
H459 C445 0.950 . S
H460 C446 0.950 . S
H461 C447 0.950 . S
H462 C449 0.950 . S
H463 C450 0.951 . S
C464 C465 1.386 1_455 S
C464 C466 1.383 1_455 S
C464 H480 0.951 . S
C465 C464 1.386 1_655 S
C465 C469 1.383 . S
C466 C464 1.383 1_655 S
C466 C467 1.402 . S
C466 H481 0.951 1_655 S
C467 C466 1.402 . S
C467 C468 1.375 . S
C467 C470 1.481 . S
C468 C467 1.375 . S
C468 C469 1.367 . S
C468 H482 0.951 . S
C469 C465 1.383 . S
C469 C468 1.367 . S
C469 H483 0.950 . S
C470 C467 1.481 . S
C470 C471 1.297 . S
C470 H484 0.950 . S
C471 C470 1.297 . S
C471 C472 1.479 . S
C471 H485 0.950 . S
C472 C471 1.479 . S
C472 C473 1.375 . S
C472 C478 1.404 . S
C473 C472 1.375 . S
C473 C474 1.369 . S
C473 H486 0.950 . S
C474 C473 1.369 . S
C474 C475 1.392 . S
C474 H487 0.951 . S
C475 C474 1.392 . S
C475 C477 1.384 . S
H476 C478 0.949 . S
C477 C475 1.384 . S
C477 C478 1.385 . S
C477 H479 0.950 . S
C478 C472 1.404 . S
C478 H476 0.949 . S
C478 C477 1.385 . S
H479 C477 0.950 . S
H480 C464 0.951 . S
H481 C466 0.951 1_455 S
H482 C468 0.951 . S
H483 C469 0.950 . S
H484 C470 0.950 . S
H485 C471 0.950 . S
H486 C473 0.950 . S
H487 C474 0.951 . S
C105 C55 1.848 . S
C115 C5 1.769 . S
C129 C18 1.812 . S
C139 C68 1.786 . S
C153 C31 1.833 . S
C163 C81 1.765 . S
C177 C94 1.795 . S
C187 C44 1.852 . S
C201 C3 1.986 . S
C211 C29 1.970 . S
C225 C16 1.981 . S
C235 C42 1.977 . S
C249 C83 1.985 . S
C259 C57 1.977 . S
C273 C70 1.984 . S
C283 C96 1.978 . S
C297 C66 1.445 . S
C307 C1 1.456 . S
C321 C14 1.474 . S
C331 C79 1.386 . S
C345 C27 1.464 . S
C355 C92 1.370 1_565 S
C369 C53 1.438 1_455 S
C379 C40 1.476 . S
C393 C62 1.467 . S
C403 C23 1.436 . S
C417 C75 1.468 . S
C427 C36 1.375 . S
C441 C88 1.478 . S
C451 C49 1.445 . S
C465 C10 1.395 1_655 S
C475 C101 1.451 . S
