# Generated by pormake.
# Topology zni, (4)-cn, num edge types: 1
# Building blocks:
#     Node 0, Type 0, BuildingBlock: NAHDIM_clean_sbu_0, # of connection points: 4
#     Node 1, Type 0, BuildingBlock: NAHDIM_clean_sbu_0, # of connection points: 4
#     Node 2, Type 0, BuildingBlock: NAHDIM_clean_sbu_0, # of connection points: 4
#     Node 3, Type 0, BuildingBlock: NAHDIM_clean_sbu_0, # of connection points: 4
#     Node 4, Type 0, BuildingBlock: NAHDIM_clean_sbu_0, # of connection points: 4
#     Node 5, Type 0, BuildingBlock: NAHDIM_clean_sbu_0, # of connection points: 4
#     Node 6, Type 0, BuildingBlock: NAHDIM_clean_sbu_0, # of connection points: 4
#     Node 7, Type 0, BuildingBlock: NAHDIM_clean_sbu_0, # of connection points: 4
#     Node 8, Type 0, BuildingBlock: NAHDIM_clean_sbu_0, # of connection points: 4
#     Node 9, Type 0, BuildingBlock: NAHDIM_clean_sbu_0, # of connection points: 4
#     Node 10, Type 0, BuildingBlock: NAHDIM_clean_sbu_0, # of connection points: 4
#     Node 11, Type 0, BuildingBlock: NAHDIM_clean_sbu_0, # of connection points: 4
#     Node 12, Type 0, BuildingBlock: NAHDIM_clean_sbu_0, # of connection points: 4
#     Node 13, Type 0, BuildingBlock: NAHDIM_clean_sbu_0, # of connection points: 4
#     Node 14, Type 0, BuildingBlock: NAHDIM_clean_sbu_0, # of connection points: 4
#     Node 15, Type 0, BuildingBlock: NAHDIM_clean_sbu_0, # of connection points: 4
#     Node 16, Type 0, BuildingBlock: NAHDIM_clean_sbu_0, # of connection points: 4
#     Node 17, Type 0, BuildingBlock: NAHDIM_clean_sbu_0, # of connection points: 4
#     Node 18, Type 0, BuildingBlock: NAHDIM_clean_sbu_0, # of connection points: 4
#     Node 19, Type 0, BuildingBlock: NAHDIM_clean_sbu_0, # of connection points: 4
#     Node 20, Type 0, BuildingBlock: NAHDIM_clean_sbu_0, # of connection points: 4
#     Node 21, Type 0, BuildingBlock: NAHDIM_clean_sbu_0, # of connection points: 4
#     Node 22, Type 0, BuildingBlock: NAHDIM_clean_sbu_0, # of connection points: 4
#     Node 23, Type 0, BuildingBlock: NAHDIM_clean_sbu_0, # of connection points: 4
#     Node 24, Type 0, BuildingBlock: NAHDIM_clean_sbu_0, # of connection points: 4
#     Node 25, Type 0, BuildingBlock: NAHDIM_clean_sbu_0, # of connection points: 4
#     Node 26, Type 0, BuildingBlock: NAHDIM_clean_sbu_0, # of connection points: 4
#     Node 27, Type 0, BuildingBlock: NAHDIM_clean_sbu_0, # of connection points: 4
#     Node 28, Type 0, BuildingBlock: NAHDIM_clean_sbu_0, # of connection points: 4
#     Node 29, Type 0, BuildingBlock: NAHDIM_clean_sbu_0, # of connection points: 4
#     Node 30, Type 0, BuildingBlock: NAHDIM_clean_sbu_0, # of connection points: 4
#     Node 31, Type 0, BuildingBlock: NAHDIM_clean_sbu_0, # of connection points: 4
#     Edge 32, Type (0, 0), BuildingBlock: OJICUG_clean_linker_0, # of connection points: 2
#     Edge 33, Type (0, 0), BuildingBlock: OJICUG_clean_linker_0, # of connection points: 2
#     Edge 34, Type (0, 0), BuildingBlock: OJICUG_clean_linker_0, # of connection points: 2
#     Edge 35, Type (0, 0), BuildingBlock: OJICUG_clean_linker_0, # of connection points: 2
#     Edge 36, Type (0, 0), BuildingBlock: OJICUG_clean_linker_0, # of connection points: 2
#     Edge 37, Type (0, 0), BuildingBlock: OJICUG_clean_linker_0, # of connection points: 2
#     Edge 38, Type (0, 0), BuildingBlock: OJICUG_clean_linker_0, # of connection points: 2
#     Edge 39, Type (0, 0), BuildingBlock: OJICUG_clean_linker_0, # of connection points: 2
#     Edge 40, Type (0, 0), BuildingBlock: OJICUG_clean_linker_0, # of connection points: 2
#     Edge 41, Type (0, 0), BuildingBlock: OJICUG_clean_linker_0, # of connection points: 2
#     Edge 42, Type (0, 0), BuildingBlock: OJICUG_clean_linker_0, # of connection points: 2
#     Edge 43, Type (0, 0), BuildingBlock: OJICUG_clean_linker_0, # of connection points: 2
#     Edge 44, Type (0, 0), BuildingBlock: OJICUG_clean_linker_0, # of connection points: 2
#     Edge 45, Type (0, 0), BuildingBlock: OJICUG_clean_linker_0, # of connection points: 2
#     Edge 46, Type (0, 0), BuildingBlock: OJICUG_clean_linker_0, # of connection points: 2
#     Edge 47, Type (0, 0), BuildingBlock: OJICUG_clean_linker_0, # of connection points: 2
#     Edge 48, Type (0, 0), BuildingBlock: OJICUG_clean_linker_0, # of connection points: 2
#     Edge 49, Type (0, 0), BuildingBlock: OJICUG_clean_linker_0, # of connection points: 2
#     Edge 50, Type (0, 0), BuildingBlock: OJICUG_clean_linker_0, # of connection points: 2
#     Edge 51, Type (0, 0), BuildingBlock: OJICUG_clean_linker_0, # of connection points: 2
#     Edge 52, Type (0, 0), BuildingBlock: OJICUG_clean_linker_0, # of connection points: 2
#     Edge 53, Type (0, 0), BuildingBlock: OJICUG_clean_linker_0, # of connection points: 2
#     Edge 54, Type (0, 0), BuildingBlock: OJICUG_clean_linker_0, # of connection points: 2
#     Edge 55, Type (0, 0), BuildingBlock: OJICUG_clean_linker_0, # of connection points: 2
#     Edge 56, Type (0, 0), BuildingBlock: OJICUG_clean_linker_0, # of connection points: 2
#     Edge 57, Type (0, 0), BuildingBlock: OJICUG_clean_linker_0, # of connection points: 2
#     Edge 58, Type (0, 0), BuildingBlock: OJICUG_clean_linker_0, # of connection points: 2
#     Edge 59, Type (0, 0), BuildingBlock: OJICUG_clean_linker_0, # of connection points: 2
#     Edge 60, Type (0, 0), BuildingBlock: OJICUG_clean_linker_0, # of connection points: 2
#     Edge 61, Type (0, 0), BuildingBlock: OJICUG_clean_linker_0, # of connection points: 2
#     Edge 62, Type (0, 0), BuildingBlock: OJICUG_clean_linker_0, # of connection points: 2
#     Edge 63, Type (0, 0), BuildingBlock: OJICUG_clean_linker_0, # of connection points: 2
#     Edge 64, Type (0, 0), BuildingBlock: OJICUG_clean_linker_0, # of connection points: 2
#     Edge 65, Type (0, 0), BuildingBlock: OJICUG_clean_linker_0, # of connection points: 2
#     Edge 66, Type (0, 0), BuildingBlock: OJICUG_clean_linker_0, # of connection points: 2
#     Edge 67, Type (0, 0), BuildingBlock: OJICUG_clean_linker_0, # of connection points: 2
#     Edge 68, Type (0, 0), BuildingBlock: OJICUG_clean_linker_0, # of connection points: 2
#     Edge 69, Type (0, 0), BuildingBlock: OJICUG_clean_linker_0, # of connection points: 2
#     Edge 70, Type (0, 0), BuildingBlock: OJICUG_clean_linker_0, # of connection points: 2
#     Edge 71, Type (0, 0), BuildingBlock: OJICUG_clean_linker_0, # of connection points: 2
#     Edge 72, Type (0, 0), BuildingBlock: OJICUG_clean_linker_0, # of connection points: 2
#     Edge 73, Type (0, 0), BuildingBlock: OJICUG_clean_linker_0, # of connection points: 2
#     Edge 74, Type (0, 0), BuildingBlock: OJICUG_clean_linker_0, # of connection points: 2
#     Edge 75, Type (0, 0), BuildingBlock: OJICUG_clean_linker_0, # of connection points: 2
#     Edge 76, Type (0, 0), BuildingBlock: OJICUG_clean_linker_0, # of connection points: 2
#     Edge 77, Type (0, 0), BuildingBlock: OJICUG_clean_linker_0, # of connection points: 2
#     Edge 78, Type (0, 0), BuildingBlock: OJICUG_clean_linker_0, # of connection points: 2
#     Edge 79, Type (0, 0), BuildingBlock: OJICUG_clean_linker_0, # of connection points: 2
#     Edge 80, Type (0, 0), BuildingBlock: OJICUG_clean_linker_0, # of connection points: 2
#     Edge 81, Type (0, 0), BuildingBlock: OJICUG_clean_linker_0, # of connection points: 2
#     Edge 82, Type (0, 0), BuildingBlock: OJICUG_clean_linker_0, # of connection points: 2
#     Edge 83, Type (0, 0), BuildingBlock: OJICUG_clean_linker_0, # of connection points: 2
#     Edge 84, Type (0, 0), BuildingBlock: OJICUG_clean_linker_0, # of connection points: 2
#     Edge 85, Type (0, 0), BuildingBlock: OJICUG_clean_linker_0, # of connection points: 2
#     Edge 86, Type (0, 0), BuildingBlock: OJICUG_clean_linker_0, # of connection points: 2
#     Edge 87, Type (0, 0), BuildingBlock: OJICUG_clean_linker_0, # of connection points: 2
#     Edge 88, Type (0, 0), BuildingBlock: OJICUG_clean_linker_0, # of connection points: 2
#     Edge 89, Type (0, 0), BuildingBlock: OJICUG_clean_linker_0, # of connection points: 2
#     Edge 90, Type (0, 0), BuildingBlock: OJICUG_clean_linker_0, # of connection points: 2
#     Edge 91, Type (0, 0), BuildingBlock: OJICUG_clean_linker_0, # of connection points: 2
#     Edge 92, Type (0, 0), BuildingBlock: OJICUG_clean_linker_0, # of connection points: 2
#     Edge 93, Type (0, 0), BuildingBlock: OJICUG_clean_linker_0, # of connection points: 2
#     Edge 94, Type (0, 0), BuildingBlock: OJICUG_clean_linker_0, # of connection points: 2
#     Edge 95, Type (0, 0), BuildingBlock: OJICUG_clean_linker_0, # of connection points: 2
# Relax obj value: 0.184
# Max RMSD: 0.102
# Mean RMSD: 0.102
data_MOF--net-zni--node1-NAHDIM_clean_sbu_0--edge1-OJICUG_clean_linker_0
_symmetry_space_group_name_H-M    P1
_symmetry_Int_Tables_number       1
_symmetry_cell_setting            triclinic
loop_
_symmetry_equiv_pos_as_xyz
'x, y, z'
_cell_length_a     40.361356
_cell_length_b     40.377056
_cell_length_c     23.108787
_cell_angle_alpha  89.992328
_cell_angle_beta   90.011535
_cell_angle_gamma 89.988767
loop_
_atom_site_label
_atom_site_type_symbol
_atom_site_fract_x
_atom_site_fract_y
_atom_site_fract_z
_atom_type_partial_charge
C0 C 0.16868 0.05124 0.33732 0.0
O1 O 0.16613 0.04134 0.39128 0.0
O2 O 0.15495 0.10502 0.46265 0.0
Zn3 Zn 0.13622 0.1097 0.38199 0.0
O4 O 0.08804 0.09667 0.38188 0.0
C5 C 0.15539 0.17925 0.38272 0.0
O6 O 0.17427 0.17016 0.42622 0.0
O7 O 0.15923 0.08031 0.32412 0.0
C8 C 0.06681 0.11299 0.41076 0.0
O9 O 0.07681 0.13809 0.44246 0.0
C10 C 0.14272 0.08503 0.49941 0.0
O11 O 0.1182 0.0656 0.48376 0.0
O12 O 0.13809 0.15756 0.35671 0.0
C13 C 0.20494 0.92063 0.5921 0.0
O14 O 0.21498 0.91748 0.64589 0.0
O15 O 0.14917 0.90449 0.71583 0.0
Zn16 Zn 0.14697 0.88611 0.63478 0.0
O17 O 0.16128 0.83825 0.63435 0.0
C18 C 0.07869 0.90822 0.62585 0.0
O19 O 0.08885 0.93192 0.66052 0.0
O20 O 0.1761 0.91065 0.57851 0.0
C21 C 0.14779 0.81717 0.66772 0.0
O22 O 0.12507 0.82719 0.70447 0.0
C23 C 0.16918 0.89358 0.7538 0.0
O24 O 0.19088 0.87082 0.73916 0.0
O25 O 0.09941 0.88678 0.60815 0.0
C26 C 0.33345 0.95532 0.84415 0.0
O27 O 0.33723 0.96514 0.89793 0.0
O28 O 0.34751 0.90039 0.96815 0.0
Zn29 Zn 0.3649 0.89568 0.88671 0.0
O30 O 0.41362 0.90672 0.88469 0.0
C31 C 0.3461 0.82626 0.89132 0.0
O32 O 0.33182 0.83512 0.93999 0.0
O33 O 0.34197 0.92605 0.83043 0.0
C34 C 0.43453 0.88877 0.91132 0.0
O35 O 0.42384 0.86348 0.94184 0.0
C36 C 0.36113 0.91896 0.00565 0.0
O37 O 0.38632 0.93758 0.99026 0.0
O38 O 0.36061 0.84809 0.86081 0.0
C39 C 0.29942 0.07804 0.09388 0.0
O40 O 0.28808 0.08132 0.14684 0.0
O41 O 0.35333 0.09565 0.22106 0.0
Zn42 Zn 0.35594 0.11381 0.13981 0.0
O43 O 0.33994 0.16115 0.13837 0.0
C44 C 0.42464 0.09294 0.13136 0.0
O45 O 0.4146 0.06843 0.16439 0.0
O46 O 0.32843 0.08833 0.08228 0.0
C47 C 0.35141 0.18283 0.17284 0.0
O48 O 0.37353 0.17393 0.21157 0.0
C49 C 0.33244 0.10607 0.25798 0.0
O50 O 0.31004 0.12782 0.24191 0.0
O51 O 0.40378 0.11452 0.11473 0.0
C52 C 0.16709 0.95507 0.15562 0.0
O53 O 0.16284 0.96485 0.10191 0.0
O54 O 0.15342 0.89916 0.03232 0.0
Zn55 Zn 0.13526 0.89578 0.11339 0.0
O56 O 0.0869 0.90824 0.11415 0.0
C57 C 0.15881 0.82785 0.11937 0.0
O58 O 0.18125 0.83843 0.08256 0.0
O59 O 0.15874 0.92578 0.16959 0.0
C60 C 0.06588 0.89093 0.08653 0.0
O61 O 0.07635 0.86563 0.05577 0.0
C62 C 0.14075 0.91806 0.99429 0.0
O63 O 0.11607 0.93758 0.00883 0.0
O64 O 0.13774 0.84822 0.13946 0.0
C65 C 0.30005 0.92227 0.40918 0.0
O66 O 0.28983 0.91841 0.35565 0.0
O67 O 0.35524 0.90604 0.28461 0.0
Zn68 Zn 0.35785 0.88815 0.36604 0.0
O69 O 0.34278 0.84056 0.36825 0.0
C70 C 0.4264 0.90952 0.37318 0.0
O71 O 0.41629 0.93304 0.33808 0.0
O72 O 0.32922 0.91315 0.42249 0.0
C73 C 0.35504 0.81851 0.33537 0.0
O74 O 0.37747 0.82712 0.297 0.0
C75 C 0.33494 0.89511 0.24715 0.0
O76 O 0.31323 0.87251 0.26244 0.0
O77 O 0.40557 0.88844 0.39177 0.0
C78 C 0.33294 0.05109 0.6618 0.0
O79 O 0.33577 0.04115 0.60791 0.0
O80 O 0.34747 0.10547 0.53685 0.0
Zn81 Zn 0.36552 0.10982 0.61799 0.0
O82 O 0.41392 0.09749 0.61906 0.0
C83 C 0.34294 0.17825 0.62081 0.0
O84 O 0.32235 0.16827 0.58038 0.0
O85 O 0.34235 0.08015 0.6751 0.0
C86 C 0.43505 0.11426 0.59071 0.0
O87 O 0.4248 0.13929 0.55906 0.0
C88 C 0.36018 0.08585 0.49999 0.0
O89 O 0.38468 0.06645 0.51591 0.0
O90 O 0.36265 0.15746 0.64365 0.0
C91 C 0.20833 0.0761 0.90488 0.0
O92 O 0.21959 0.08078 0.85219 0.0
O93 O 0.15274 0.09186 0.77824 0.0
Zn94 Zn 0.15045 0.10967 0.85977 0.0
O95 O 0.16585 0.15718 0.86124 0.0
C96 C 0.08167 0.08876 0.86828 0.0
O97 O 0.09136 0.06491 0.8335 0.0
O98 O 0.17874 0.08455 0.91661 0.0
C99 C 0.15403 0.17876 0.82692 0.0
O100 O 0.13191 0.16965 0.78834 0.0
C101 C 0.17316 0.10281 0.74097 0.0
O102 O 0.19541 0.12474 0.75688 0.0
O103 O 0.10276 0.10985 0.88587 0.0
C104 C 0.83856 0.95239 0.65831 0.0
O105 O 0.84291 0.9628 0.60499 0.0
O106 O 0.8508 0.89602 0.53319 0.0
Zn107 Zn 0.86916 0.89271 0.61424 0.0
O108 O 0.91756 0.90497 0.61446 0.0
C109 C 0.84436 0.82535 0.6229 0.0
O110 O 0.82164 0.83607 0.58674 0.0
O111 O 0.84624 0.92275 0.67101 0.0
C112 C 0.93868 0.88726 0.58788 0.0
O113 O 0.92837 0.86138 0.55848 0.0
C114 C 0.86337 0.91505 0.49526 0.0
O115 O 0.88785 0.93476 0.51003 0.0
O116 O 0.86629 0.84536 0.64117 0.0
C117 C 0.79877 0.08101 0.40936 0.0
O118 O 0.78889 0.08629 0.35599 0.0
O119 O 0.85636 0.09408 0.28588 0.0
Zn120 Zn 0.85857 0.11192 0.36744 0.0
O121 O 0.8454 0.16005 0.36835 0.0
C122 C 0.92704 0.09007 0.37411 0.0
O123 O 0.91724 0.06789 0.3362 0.0
O124 O 0.82842 0.08814 0.42312 0.0
C125 C 0.86189 0.18127 0.33973 0.0
O126 O 0.88678 0.17114 0.30763 0.0
C127 C 0.83769 0.10657 0.24731 0.0
O128 O 0.81727 0.13054 0.26163 0.0
O129 O 0.906 0.11031 0.39472 0.0
C130 C 0.66552 0.0485 0.15795 0.0
O131 O 0.66127 0.03804 0.10464 0.0
O132 O 0.65209 0.10327 0.03213 0.0
Zn133 Zn 0.63427 0.10766 0.1134 0.0
O134 O 0.5858 0.09565 0.11512 0.0
C135 C 0.65591 0.17626 0.11273 0.0
O136 O 0.67507 0.16617 0.0703 0.0
O137 O 0.65748 0.07806 0.17061 0.0
C138 C 0.56445 0.11398 0.09042 0.0
O139 O 0.57456 0.14024 0.06185 0.0
C140 C 0.63877 0.08474 0.99425 0.0
O141 O 0.61364 0.0659 0.0091 0.0
O142 O 0.63746 0.1554 0.13842 0.0
C143 C 0.70188 0.91689 0.9097 0.0
O144 O 0.71218 0.9122 0.85641 0.0
O145 O 0.64629 0.90223 0.78449 0.0
Zn146 Zn 0.64324 0.88455 0.86613 0.0
O147 O 0.65756 0.83674 0.86901 0.0
C148 C 0.57493 0.907 0.87238 0.0
O149 O 0.58542 0.93005 0.83669 0.0
O150 O 0.67232 0.90903 0.92274 0.0
C151 C 0.64584 0.81459 0.83574 0.0
O152 O 0.62417 0.82308 0.79597 0.0
C153 C 0.66625 0.89085 0.74685 0.0
O154 O 0.6875 0.86776 0.76195 0.0
O155 O 0.59543 0.88577 0.89162 0.0
C156 C 0.84036 0.0466 0.84319 0.0
O157 O 0.84469 0.03607 0.89645 0.0
O158 O 0.85422 0.10157 0.96857 0.0
Zn159 Zn 0.87226 0.10546 0.88739 0.0
O160 O 0.9206 0.09284 0.88573 0.0
C161 C 0.84945 0.17362 0.8846 0.0
O162 O 0.82861 0.16326 0.92434 0.0
O163 O 0.84866 0.07606 0.83045 0.0
C164 C 0.94217 0.11056 0.91115 0.0
O165 O 0.9324 0.13663 0.9406 0.0
C166 C 0.86698 0.0828 0.00669 0.0
O167 O 0.89186 0.0635 0.99231 0.0
O168 O 0.86947 0.1531 0.86187 0.0
C169 C 0.70238 0.08214 0.59088 0.0
O170 O 0.71238 0.08602 0.64454 0.0
O171 O 0.64636 0.09721 0.71509 0.0
Zn172 Zn 0.64359 0.11505 0.63358 0.0
O173 O 0.65699 0.16314 0.63194 0.0
C174 C 0.57512 0.09303 0.6279 0.0
O175 O 0.58521 0.07067 0.66526 0.0
O176 O 0.67316 0.09095 0.57731 0.0
C177 C 0.64219 0.1845 0.66298 0.0
O178 O 0.61875 0.17463 0.69848 0.0
C179 C 0.66586 0.10902 0.75303 0.0
O180 O 0.68676 0.13246 0.73816 0.0
O181 O 0.59595 0.11351 0.60736 0.0
C182 C 0.66625 0.95391 0.34245 0.0
O183 O 0.66125 0.96426 0.39562 0.0
O184 O 0.65383 0.89768 0.46752 0.0
Zn185 Zn 0.63606 0.89398 0.38605 0.0
O186 O 0.5876 0.90601 0.38485 0.0
C187 C 0.65681 0.82502 0.38521 0.0
O188 O 0.67507 0.83418 0.42946 0.0
O189 O 0.65911 0.92415 0.3296 0.0
C190 C 0.56642 0.88827 0.41118 0.0
O191 O 0.57666 0.86248 0.4409 0.0
C192 C 0.64052 0.9162 0.50545 0.0
O193 O 0.61566 0.93537 0.49046 0.0
O194 O 0.63921 0.84651 0.35927 0.0
C195 C 0.79778 0.916 0.09226 0.0
O196 O 0.78787 0.91177 0.14589 0.0
O197 O 0.85519 0.90336 0.21595 0.0
Zn198 Zn 0.85798 0.88521 0.13469 0.0
O199 O 0.84621 0.83669 0.13509 0.0
C200 C 0.92574 0.90931 0.12665 0.0
O201 O 0.91543 0.93159 0.16396 0.0
O202 O 0.82725 0.90806 0.07866 0.0
C203 C 0.86414 0.8162 0.16275 0.0
O204 O 0.88961 0.82733 0.19237 0.0
C205 C 0.83637 0.89066 0.25406 0.0
O206 O 0.8164 0.8664 0.23926 0.0
O207 O 0.9053 0.88812 0.10717 0.0
C208 C 0.63293 0.54731 0.83975 0.0
O209 O 0.60875 0.54593 0.87766 0.0
O210 O 0.65987 0.60428 0.97393 0.0
Zn211 Zn 0.63973 0.60946 0.89468 0.0
O212 O 0.5898 0.60977 0.90148 0.0
C213 C 0.66514 0.67672 0.89135 0.0
O214 O 0.6761 0.66934 0.9433 0.0
O215 O 0.65216 0.57225 0.83971 0.0
C216 C 0.57454 0.61416 0.85399 0.0
O217 O 0.59197 0.61843 0.80653 0.0
C218 C 0.64797 0.58427 0.01089 0.0
O219 O 0.62341 0.5648 0.99562 0.0
O220 O 0.65096 0.6544 0.86149 0.0
C221 C 0.70119 0.4163 0.08444 0.0
O222 O 0.70954 0.41244 0.13896 0.0
O223 O 0.64455 0.4033 0.2052 0.0
Zn224 Zn 0.64038 0.38609 0.12342 0.0
O225 O 0.65093 0.33724 0.12085 0.0
C226 C 0.57022 0.3905 0.13547 0.0
O227 O 0.57886 0.38746 0.19 0.0
O228 O 0.67204 0.40855 0.06857 0.0
C229 C 0.63748 0.31617 0.1543 0.0
O230 O 0.61636 0.32638 0.19367 0.0
C231 C 0.66297 0.39005 0.24335 0.0
O232 O 0.68263 0.36554 0.22849 0.0
O233 O 0.59277 0.39152 0.09704 0.0
C234 C 0.84343 0.4506 0.34899 0.0
O235 O 0.84944 0.4603 0.40222 0.0
O236 O 0.85172 0.39181 0.4722 0.0
Zn237 Zn 0.86981 0.38834 0.39104 0.0
O238 O 0.91903 0.39701 0.39175 0.0
C239 C 0.84401 0.32096 0.38346 0.0
O240 O 0.82325 0.33094 0.42362 0.0
O241 O 0.84861 0.42054 0.33544 0.0
C242 C 0.93329 0.40037 0.34308 0.0
O243 O 0.91527 0.39916 0.29577 0.0
C244 C 0.86563 0.40986 0.51016 0.0
O245 O 0.89118 0.4281 0.49518 0.0
O246 O 0.86468 0.34146 0.36249 0.0
C247 C 0.78979 0.58943 0.60266 0.0
O248 O 0.78019 0.59839 0.65467 0.0
O249 O 0.8485 0.59817 0.72447 0.0
Zn250 Zn 0.85184 0.61575 0.64278 0.0
O251 O 0.84122 0.66452 0.64085 0.0
C252 C 0.92248 0.60725 0.6502 0.0
O253 O 0.91539 0.6051 0.70554 0.0
O254 O 0.82005 0.593 0.58872 0.0
C255 C 0.85891 0.68534 0.66816 0.0
O256 O 0.88361 0.67457 0.70004 0.0
C257 C 0.8315 0.61217 0.76379 0.0
O258 O 0.81321 0.63798 0.75043 0.0
O259 O 0.89901 0.61091 0.61402 0.0
C260 C 0.62763 0.45323 0.65301 0.0
O261 O 0.60404 0.45622 0.61423 0.0
O262 O 0.64589 0.39312 0.52238 0.0
Zn263 Zn 0.62742 0.38956 0.60319 0.0
O264 O 0.57742 0.39245 0.60099 0.0
C265 C 0.65677 0.32366 0.61227 0.0
O266 O 0.67367 0.33278 0.56639 0.0
O267 O 0.6439 0.4263 0.65558 0.0
C268 C 0.56317 0.3921 0.65004 0.0
O269 O 0.5815 0.38965 0.69686 0.0
C270 C 0.63247 0.41125 0.48402 0.0
O271 O 0.60661 0.42932 0.49797 0.0
O272 O 0.63736 0.34433 0.63622 0.0
C273 C 0.80251 0.41496 0.91095 0.0
O274 O 0.79411 0.41186 0.85631 0.0
O275 O 0.85816 0.40054 0.78964 0.0
Zn276 Zn 0.86264 0.38341 0.87149 0.0
O277 O 0.85194 0.33461 0.87423 0.0
C278 C 0.93295 0.38812 0.85933 0.0
O279 O 0.92447 0.38614 0.80456 0.0
O280 O 0.83137 0.40613 0.92672 0.0
C281 C 0.8664 0.31361 0.84196 0.0
O282 O 0.88833 0.32397 0.80409 0.0
C283 C 0.83938 0.38724 0.75208 0.0
O284 O 0.81991 0.36273 0.76761 0.0
O285 O 0.9103 0.38849 0.89761 0.0
C286 C 0.84205 0.54753 0.16728 0.0
O287 O 0.84636 0.53752 0.11373 0.0
O288 O 0.85038 0.60456 0.04208 0.0
Zn289 Zn 0.87033 0.60778 0.12204 0.0
O290 O 0.91868 0.59548 0.11929 0.0
C291 C 0.84633 0.67542 0.12954 0.0
O292 O 0.82323 0.66445 0.09436 0.0
O293 O 0.84873 0.57741 0.18012 0.0
C294 C 0.93922 0.61218 0.08954 0.0
O295 O 0.92837 0.6372 0.0585 0.0
C296 C 0.86211 0.58577 0.003 0.0
O297 O 0.88685 0.56591 0.01577 0.0
O298 O 0.8681 0.65537 0.14836 0.0
C299 C 0.69428 0.58371 0.41948 0.0
O300 O 0.70508 0.58392 0.36587 0.0
O301 O 0.64879 0.59684 0.28813 0.0
Zn302 Zn 0.63825 0.61576 0.36684 0.0
O303 O 0.64943 0.66447 0.37006 0.0
C304 C 0.57008 0.61197 0.336 0.0
O305 O 0.58371 0.61431 0.28457 0.0
O306 O 0.66514 0.59411 0.42991 0.0
C307 C 0.638 0.68604 0.3353 0.0
O308 O 0.61843 0.67661 0.293 0.0
C309 C 0.66909 0.60965 0.25257 0.0
O310 O 0.68686 0.63529 0.26873 0.0
O311 O 0.58875 0.61122 0.38039 0.0
C312 C 0.36557 0.45034 0.16644 0.0
O313 O 0.39047 0.44982 0.12992 0.0
O314 O 0.34233 0.38961 0.03633 0.0
Zn315 Zn 0.35984 0.38685 0.11793 0.0
O316 O 0.40988 0.38612 0.11882 0.0
C317 C 0.33019 0.32132 0.12555 0.0
O318 O 0.31658 0.32957 0.07597 0.0
O319 O 0.34591 0.42573 0.1681 0.0
C320 C 0.43065 0.38897 0.07776 0.0
O321 O 0.42006 0.39228 0.02433 0.0
C322 C 0.34339 0.41458 0.00294 0.0
O323 O 0.3564 0.44241 0.0216 0.0
O324 O 0.34725 0.34272 0.15282 0.0
C325 C 0.30744 0.58298 0.91877 0.0
O326 O 0.29782 0.58207 0.8645 0.0
O327 O 0.35313 0.59934 0.78946 0.0
Zn328 Zn 0.36351 0.61686 0.86918 0.0
O329 O 0.35324 0.66571 0.87446 0.0
C330 C 0.43147 0.61372 0.83873 0.0
O331 O 0.41778 0.61838 0.78783 0.0
O332 O 0.33588 0.59469 0.93072 0.0
C333 C 0.36267 0.68739 0.83812 0.0
O334 O 0.37961 0.6781 0.79241 0.0
C335 C 0.33254 0.61225 0.7545 0.0
O336 O 0.31415 0.6372 0.77182 0.0
O337 O 0.41285 0.61126 0.88299 0.0
C338 C 0.1313 0.54866 0.66012 0.0
O339 O 0.10603 0.54834 0.62438 0.0
O340 O 0.14748 0.61066 0.53127 0.0
Zn341 Zn 0.13215 0.6127 0.61434 0.0
O342 O 0.08226 0.61067 0.6202 0.0
C343 C 0.16327 0.67762 0.6225 0.0
O344 O 0.17878 0.66823 0.5753 0.0
O345 O 0.14948 0.57436 0.66249 0.0
C346 C 0.06016 0.61577 0.58205 0.0
O347 O 0.06894 0.62419 0.52933 0.0
C348 C 0.13856 0.58941 0.49383 0.0
O349 O 0.11813 0.56561 0.50888 0.0
O350 O 0.14422 0.65724 0.64804 0.0
C351 C 0.20246 0.41726 0.40438 0.0
O352 O 0.21404 0.41175 0.35214 0.0
O353 O 0.15618 0.40469 0.27346 0.0
Zn354 Zn 0.14391 0.38932 0.35384 0.0
O355 O 0.15191 0.34016 0.36198 0.0
C356 C 0.07605 0.40057 0.32281 0.0
O357 O 0.08912 0.3989 0.27086 0.0
O358 O 0.17207 0.41137 0.41467 0.0
C359 C 0.13688 0.31842 0.33211 0.0
O360 O 0.11529 0.32796 0.29294 0.0
C361 C 0.1742 0.38783 0.23932 0.0
O362 O 0.188 0.3604 0.25813 0.0
O363 O 0.0949 0.39783 0.36673 0.0
C364 C 0.36629 0.55047 0.34376 0.0
O365 O 0.39077 0.54923 0.38111 0.0
O366 O 0.34255 0.60965 0.47531 0.0
Zn367 Zn 0.36192 0.61368 0.39526 0.0
O368 O 0.41194 0.6129 0.40053 0.0
C369 C 0.33494 0.68045 0.38862 0.0
O370 O 0.32141 0.67272 0.43851 0.0
O371 O 0.34787 0.57601 0.3424 0.0
C372 C 0.42706 0.61573 0.35254 0.0
O373 O 0.40951 0.61926 0.30503 0.0
C374 C 0.35444 0.58953 0.51212 0.0
O375 O 0.37866 0.56973 0.49649 0.0
O376 O 0.3512 0.65853 0.36119 0.0
C377 C 0.20868 0.58949 0.09614 0.0
O378 O 0.21738 0.59798 0.14886 0.0
O379 O 0.14881 0.6015 0.21465 0.0
Zn380 Zn 0.14695 0.61806 0.13236 0.0
O381 O 0.15849 0.66659 0.13003 0.0
C382 C 0.0797 0.59321 0.12393 0.0
O383 O 0.09023 0.57159 0.16225 0.0
O384 O 0.1789 0.59413 0.08013 0.0
C385 C 0.14031 0.68747 0.1562 0.0
O386 O 0.11469 0.67677 0.18589 0.0
C387 C 0.166 0.6158 0.25336 0.0
O388 O 0.18477 0.64106 0.23888 0.0
O389 O 0.09996 0.61426 0.10347 0.0
C390 C 0.1368 0.44597 0.83269 0.0
O391 O 0.11194 0.44491 0.86927 0.0
O392 O 0.15968 0.38562 0.96284 0.0
Zn393 Zn 0.1432 0.3826 0.88059 0.0
O394 O 0.09316 0.38131 0.87829 0.0
C395 C 0.17367 0.31746 0.87392 0.0
O396 O 0.18671 0.32587 0.92388 0.0
O397 O 0.15691 0.42173 0.83075 0.0
C398 C 0.07219 0.38414 0.91903 0.0
O399 O 0.08253 0.38748 0.97261 0.0
C400 C 0.15893 0.41099 0.99533 0.0
O401 O 0.14717 0.43902 0.97511 0.0
O402 O 0.15665 0.33866 0.8461 0.0
C403 C 0.2938 0.41649 0.59439 0.0
O404 O 0.28223 0.41111 0.64667 0.0
O405 O 0.34118 0.40521 0.72504 0.0
Zn406 Zn 0.35214 0.38829 0.64503 0.0
O407 O 0.34299 0.33921 0.63934 0.0
C408 C 0.42057 0.39663 0.67386 0.0
O409 O 0.40782 0.39554 0.7261 0.0
O410 O 0.32412 0.41032 0.58401 0.0
C411 C 0.3586 0.31788 0.66926 0.0
O412 O 0.3809 0.32797 0.70671 0.0
C413 C 0.32336 0.38918 0.76069 0.0
O414 O 0.30882 0.36175 0.74369 0.0
O415 O 0.40128 0.39497 0.63038 0.0
C416 C 0.17642 0.037 0.23266 0.0
C417 C 0.1758 0.02697 0.29093 0.0
H418 H 0.17476 0.02205 0.14392 0.0
C419 C 0.17788 0.99301 0.30384 0.0
H420 H 0.17532 0.063 0.22124 0.0
C421 C 0.17737 0.9695 0.25948 0.0
C422 C 0.17498 0.9795 0.20135 0.0
H423 H 0.17788 0.98443 0.34826 0.0
H424 H 0.17704 0.94349 0.27098 0.0
C425 C 0.17612 0.01349 0.18829 0.0
C426 C 0.2186 0.93069 0.48788 0.0
C427 C 0.22893 0.92899 0.54591 0.0
H428 H 0.23307 0.9306 0.39887 0.0
C429 C 0.26296 0.93105 0.55842 0.0
H430 H 0.19254 0.92968 0.47679 0.0
C431 C 0.28625 0.9314 0.51367 0.0
C432 C 0.27594 0.92991 0.45559 0.0
H433 H 0.27176 0.93024 0.60268 0.0
H434 H 0.31233 0.93089 0.52473 0.0
C435 C 0.24188 0.93127 0.44315 0.0
C436 C 0.32453 0.03708 0.76638 0.0
C437 C 0.32552 0.02692 0.70819 0.0
H438 H 0.32567 0.02232 0.85526 0.0
C439 C 0.32351 0.99294 0.69547 0.0
H440 H 0.32554 0.0631 0.77764 0.0
C441 C 0.32375 0.96953 0.74002 0.0
C442 C 0.32581 0.97966 0.79813 0.0
H443 H 0.32378 0.98427 0.65112 0.0
H444 H 0.32414 0.9435 0.72871 0.0
C445 C 0.32457 0.01367 0.81093 0.0
C446 C 0.22006 0.06628 0.00996 0.0
C447 C 0.23157 0.06838 0.95262 0.0
H448 H 0.23261 0.06709 0.09988 0.0
C449 C 0.26589 0.0676 0.9424 0.0
H450 H 0.19377 0.06631 0.01932 0.0
C451 C 0.28819 0.0682 0.98866 0.0
C452 C 0.2766 0.06941 0.04601 0.0
H453 H 0.27561 0.06871 0.89875 0.0
H454 H 0.31445 0.0697 0.97931 0.0
C455 C 0.24238 0.0667 0.05622 0.0
C456 C 0.83037 0.01049 0.69335 0.0
C457 C 0.83151 0.97637 0.7052 0.0
H458 H 0.83193 0.05961 0.72788 0.0
C459 C 0.83001 0.96574 0.76311 0.0
H460 H 0.83106 0.01953 0.64923 0.0
C461 C 0.8304 0.98876 0.80827 0.0
C462 C 0.83244 0.02283 0.79639 0.0
H463 H 0.83037 0.93962 0.77373 0.0
H464 H 0.8311 0.9797 0.85238 0.0
C465 C 0.83089 0.0335 0.73851 0.0
C466 C 0.78414 0.07166 0.51348 0.0
C467 C 0.77422 0.0737 0.45525 0.0
H468 H 0.76912 0.0722 0.60224 0.0
C469 C 0.74021 0.07289 0.44216 0.0
H470 H 0.81015 0.07177 0.52506 0.0
C471 C 0.71665 0.07325 0.48648 0.0
C472 C 0.72664 0.07429 0.54476 0.0
H473 H 0.73169 0.07399 0.39774 0.0
H474 H 0.69067 0.07458 0.47493 0.0
C475 C 0.76058 0.07189 0.5578 0.0
C476 C 0.67532 0.96747 0.23783 0.0
C477 C 0.67349 0.97798 0.29577 0.0
H478 H 0.67477 0.98159 0.14862 0.0
C479 C 0.67453 0.01209 0.30781 0.0
H480 H 0.67503 0.94136 0.22706 0.0
C481 C 0.67428 0.03519 0.26276 0.0
C482 C 0.6731 0.02463 0.20479 0.0
H483 H 0.67359 0.02104 0.35197 0.0
H484 H 0.67319 0.06128 0.27351 0.0
C485 C 0.67519 0.99057 0.19279 0.0
C486 C 0.76011 0.92596 0.94352 0.0
C487 C 0.72608 0.9242 0.95619 0.0
H488 H 0.80957 0.92507 0.97673 0.0
C489 C 0.71594 0.92522 0.01439 0.0
H490 H 0.76879 0.92565 0.89917 0.0
C491 C 0.73938 0.92498 0.05895 0.0
C492 C 0.77341 0.9236 0.04617 0.0
H493 H 0.68991 0.92433 0.02566 0.0
H494 H 0.73072 0.92392 0.10328 0.0
C495 C 0.78353 0.92559 0.98806 0.0
C496 C 0.60135 0.49374 0.71896 0.0
C497 C 0.63029 0.47808 0.69942 0.0
H498 H 0.57974 0.52737 0.77954 0.0
C499 C 0.66075 0.48566 0.72585 0.0
H500 H 0.57752 0.48813 0.69972 0.0
C501 C 0.66212 0.50896 0.77089 0.0
C502 C 0.63288 0.52382 0.79116 0.0
H503 H 0.68336 0.47381 0.71141 0.0
H504 H 0.68574 0.51472 0.79074 0.0
C505 C 0.60258 0.516 0.76487 0.0
C506 C 0.78533 0.42362 0.01404 0.0
C507 C 0.77694 0.42237 0.95503 0.0
H508 H 0.76789 0.42326 0.10142 0.0
C509 C 0.74338 0.42437 0.93916 0.0
H510 H 0.81098 0.42254 0.02773 0.0
C511 C 0.71863 0.42464 0.98144 0.0
C512 C 0.72697 0.42308 0.04044 0.0
H513 H 0.73606 0.42382 0.89407 0.0
H514 H 0.69296 0.42433 0.96774 0.0
C515 C 0.76058 0.42406 0.05633 0.0
C516 C 0.83597 0.50932 0.31638 0.0
C517 C 0.83657 0.47534 0.30317 0.0
H518 H 0.83684 0.55891 0.28375 0.0
C519 C 0.83412 0.46551 0.24495 0.0
H520 H 0.83746 0.51776 0.3608 0.0
C521 C 0.8337 0.48913 0.20073 0.0
C522 C 0.83578 0.52307 0.21379 0.0
H523 H 0.83416 0.43953 0.23327 0.0
H524 H 0.83344 0.48066 0.15626 0.0
C525 C 0.83559 0.53295 0.27215 0.0
C526 C 0.70756 0.5823 0.5254 0.0
C527 C 0.7178 0.57816 0.46771 0.0
H528 H 0.72233 0.5887 0.61359 0.0
C529 C 0.75157 0.57273 0.45621 0.0
H530 H 0.68169 0.58619 0.53583 0.0
C531 C 0.77491 0.57428 0.5008 0.0
C532 C 0.76492 0.58118 0.55782 0.0
H533 H 0.76028 0.5691 0.41233 0.0
H534 H 0.8009 0.57175 0.49002 0.0
C535 C 0.7309 0.58375 0.57003 0.0
C536 C 0.33444 0.48755 0.23511 0.0
C537 C 0.36442 0.47653 0.21082 0.0
H538 H 0.31133 0.52079 0.29591 0.0
C539 C 0.39436 0.49032 0.23007 0.0
H540 H 0.31105 0.47725 0.22082 0.0
C541 C 0.39456 0.51413 0.27352 0.0
C542 C 0.36477 0.52541 0.29766 0.0
H543 H 0.41786 0.48215 0.21244 0.0
H544 H 0.41813 0.52402 0.28788 0.0
C545 C 0.33458 0.51237 0.2777 0.0
C546 C 0.22537 0.57376 0.99543 0.0
C547 C 0.2343 0.58075 0.05293 0.0
H548 H 0.24162 0.56836 0.9079 0.0
C549 C 0.2681 0.58312 0.06712 0.0
H550 H 0.19957 0.57137 0.98318 0.0
C551 C 0.29225 0.58151 0.02387 0.0
C552 C 0.28308 0.57735 0.96564 0.0
H553 H 0.27587 0.58813 0.11112 0.0
H554 H 0.31793 0.58533 0.03576 0.0
C555 C 0.24952 0.57199 0.95224 0.0
C556 C 0.16628 0.48651 0.76766 0.0
C557 C 0.13689 0.47186 0.78789 0.0
H558 H 0.18764 0.52348 0.71168 0.0
C559 C 0.1064 0.48225 0.76521 0.0
H560 H 0.19006 0.47881 0.78472 0.0
C561 C 0.10509 0.50669 0.72297 0.0
C562 C 0.13419 0.52203 0.70342 0.0
H563 H 0.0834 0.47116 0.77973 0.0
H564 H 0.08106 0.51409 0.70649 0.0
C565 C 0.16488 0.51197 0.72625 0.0
C566 C 0.25995 0.42517 0.44259 0.0
C567 C 0.22562 0.42391 0.4527 0.0
H568 H 0.30854 0.42416 0.47954 0.0
C569 C 0.21405 0.4252 0.51002 0.0
H570 H 0.26971 0.42457 0.39894 0.0
C571 C 0.23636 0.42502 0.55629 0.0
C572 C 0.27067 0.42349 0.54616 0.0
H573 H 0.18775 0.42461 0.51932 0.0
H574 H 0.22659 0.42431 0.59993 0.0
C575 C 0.28225 0.42493 0.48886 0.0
C576 C 0.13033 0.22484 0.32321 0.0
C577 C 0.15226 0.21472 0.36711 0.0
H578 H 0.1083 0.26544 0.27767 0.0
C579 C 0.17007 0.23896 0.39771 0.0
H580 H 0.11625 0.20682 0.29873 0.0
C581 C 0.16548 0.27258 0.38566 0.0
C582 C 0.14296 0.28274 0.34273 0.0
H583 H 0.18719 0.23204 0.43172 0.0
H584 H 0.17926 0.29061 0.41066 0.0
C585 C 0.12574 0.25848 0.31117 0.0
C586 C 0.99808 0.87317 0.56809 0.0
C587 C 0.97455 0.89429 0.59353 0.0
H588 H 0.04936 0.86105 0.55804 0.0
C589 C 0.98569 0.92132 0.62663 0.0
H590 H 0.99037 0.85219 0.54216 0.0
C591 C 0.01956 0.92644 0.63568 0.0
C592 C 0.04304 0.90463 0.6119 0.0
H593 H 0.96823 0.93817 0.64662 0.0
H594 H 0.02725 0.94706 0.66248 0.0
C595 C 0.03194 0.87826 0.5772 0.0
C596 C 0.3345 0.76645 0.91144 0.0
C597 C 0.34793 0.79085 0.87499 0.0
H598 H 0.32851 0.71473 0.92838 0.0
C599 C 0.36465 0.78094 0.82449 0.0
H600 H 0.32141 0.77321 0.95061 0.0
C601 C 0.36872 0.74733 0.8117 0.0
C602 C 0.35622 0.72293 0.84918 0.0
H603 H 0.37522 0.79911 0.79538 0.0
H604 H 0.38229 0.74052 0.77306 0.0
C605 C 0.33861 0.73288 0.89871 0.0
C606 C 0.47113 0.12371 0.08348 0.0
C607 C 0.46024 0.09685 0.11723 0.0
H608 H 0.51247 0.15008 0.0483 0.0
C609 C 0.48387 0.07463 0.13943 0.0
H610 H 0.4536 0.14124 0.06555 0.0
C611 C 0.51767 0.07973 0.12957 0.0
C612 C 0.5286 0.10714 0.09723 0.0
H613 H 0.47634 0.05364 0.16546 0.0
H614 H 0.53525 0.0625 0.14825 0.0
C615 C 0.50492 0.12878 0.07357 0.0
C616 C 0.12575 0.74654 0.17742 0.0
C617 C 0.14673 0.72343 0.15049 0.0
H618 H 0.11322 0.79758 0.18909 0.0
C619 C 0.17304 0.73507 0.11619 0.0
H620 H 0.10533 0.73844 0.20433 0.0
C621 C 0.17759 0.76904 0.10746 0.0
C622 C 0.15594 0.7921 0.13286 0.0
H623 H 0.18975 0.71793 0.09502 0.0
H624 H 0.19765 0.77714 0.07973 0.0
C625 C 0.13031 0.78049 0.16872 0.0
C626 C 0.51947 0.92213 0.3716 0.0
C627 C 0.53055 0.89529 0.40522 0.0
H628 H 0.47796 0.94782 0.3354 0.0
C629 C 0.50698 0.87437 0.43105 0.0
H630 H 0.53697 0.93881 0.35127 0.0
C631 C 0.47313 0.87954 0.42195 0.0
C632 C 0.46208 0.90577 0.38684 0.0
H633 H 0.51464 0.85354 0.45738 0.0
H634 H 0.45566 0.86253 0.4415 0.0
C635 C 0.48561 0.92732 0.36253 0.0
C636 C 0.32549 0.23738 0.60763 0.0
C637 C 0.34513 0.21378 0.63633 0.0
H638 H 0.31425 0.28872 0.59556 0.0
C639 C 0.36802 0.22464 0.6781 0.0
H640 H 0.30757 0.22987 0.57531 0.0
C641 C 0.37185 0.25839 0.68973 0.0
C642 C 0.35291 0.28205 0.6598 0.0
H643 H 0.38349 0.20711 0.70114 0.0
H644 H 0.39013 0.26593 0.72142 0.0
C645 C 0.32935 0.27115 0.61921 0.0
C646 C 0.02226 0.07114 0.85982 0.0
C647 C 0.04615 0.09268 0.88308 0.0
H648 H 0.97073 0.05976 0.85058 0.0
C649 C 0.0356 0.11901 0.91842 0.0
H650 H 0.02952 0.05056 0.83256 0.0
C651 C 0.00189 0.12427 0.92878 0.0
C652 C 0.97794 0.10336 0.90401 0.0
H653 H 0.05335 0.13601 0.93721 0.0
H654 H 0.99461 0.14518 0.95525 0.0
C655 C 0.98852 0.07642 0.87015 0.0
C656 C 0.87467 0.74438 0.68673 0.0
C657 C 0.85335 0.72132 0.66051 0.0
H658 H 0.8885 0.79525 0.69566 0.0
C659 C 0.82771 0.73297 0.62467 0.0
H660 H 0.89461 0.73627 0.71474 0.0
C661 C 0.82417 0.76685 0.61377 0.0
C662 C 0.84622 0.78981 0.6384 0.0
H663 H 0.81076 0.71588 0.60397 0.0
H664 H 0.80461 0.77494 0.58493 0.0
C665 C 0.87117 0.77823 0.67576 0.0
C666 C 0.98644 0.07351 0.36121 0.0
C667 C 0.96268 0.09385 0.38792 0.0
H668 H 0.03792 0.06348 0.3476 0.0
C669 C 0.97348 0.11919 0.42518 0.0
H670 H 0.97899 0.05371 0.3324 0.0
C671 C 0.00729 0.12481 0.43388 0.0
C672 C 0.03106 0.10525 0.40549 0.0
H673 H 0.95584 0.13526 0.44659 0.0
H674 H 0.01476 0.14502 0.4618 0.0
C675 C 0.02026 0.07915 0.36988 0.0
C676 C 0.62745 0.25681 0.18064 0.0
C677 C 0.64418 0.28038 0.14676 0.0
H678 H 0.61813 0.20547 0.19673 0.0
C679 C 0.66639 0.26936 0.10403 0.0
H680 H 0.61027 0.26446 0.21407 0.0
C681 C 0.67097 0.23551 0.09417 0.0
C682 C 0.65339 0.21195 0.12675 0.0
H683 H 0.67981 0.28686 0.07734 0.0
H684 H 0.68771 0.22788 0.06007 0.0
C685 C 0.63197 0.22297 0.1707 0.0
C686 C 0.51602 0.92576 0.86125 0.0
C687 C 0.53918 0.90398 0.88611 0.0
H688 H 0.46487 0.93814 0.84981 0.0
C689 C 0.52767 0.87829 0.92194 0.0
H690 H 0.52402 0.94586 0.83356 0.0
C691 C 0.49374 0.87386 0.93127 0.0
C692 C 0.47052 0.895 0.90495 0.0
H693 H 0.54484 0.86112 0.94192 0.0
H694 H 0.48571 0.85342 0.95819 0.0
C695 C 0.48207 0.92131 0.87055 0.0
C696 C 0.83669 0.26654 0.89009 0.0
C697 C 0.86012 0.27775 0.84955 0.0
H698 H 0.81475 0.22489 0.93264 0.0
C699 C 0.87851 0.25432 0.81808 0.0
H700 H 0.82199 0.28394 0.91486 0.0
C701 C 0.8744 0.22047 0.82835 0.0
C702 C 0.85172 0.20928 0.87019 0.0
H703 H 0.89668 0.26211 0.78639 0.0
H704 H 0.88951 0.2031 0.80427 0.0
C705 C 0.8325 0.23267 0.90023 0.0
C706 C 0.52833 0.12181 0.57712 0.0
C707 C 0.53941 0.09653 0.61426 0.0
H708 H 0.48677 0.14714 0.54036 0.0
C709 C 0.51587 0.07585 0.6408 0.0
H710 H 0.54579 0.13813 0.55583 0.0
C711 C 0.48199 0.08106 0.63197 0.0
C712 C 0.4709 0.10706 0.59638 0.0
H713 H 0.52354 0.05609 0.66952 0.0
H714 H 0.46451 0.06513 0.65407 0.0
C715 C 0.49446 0.127 0.56827 0.0
C716 C 0.66603 0.7317 0.3901 0.0
C717 C 0.64499 0.72162 0.3449 0.0
H718 H 0.68647 0.77218 0.43797 0.0
C719 C 0.62955 0.74593 0.31071 0.0
H720 H 0.67845 0.71362 0.4171 0.0
C721 C 0.63412 0.77956 0.32275 0.0
C722 C 0.65431 0.7896 0.36914 0.0
H723 H 0.61329 0.73903 0.27544 0.0
H724 H 0.62125 0.79764 0.29641 0.0
C725 C 0.67067 0.76531 0.40203 0.0
C726 C 0.98466 0.92805 0.13752 0.0
C727 C 0.96138 0.90668 0.11198 0.0
H728 H 0.03589 0.93997 0.14936 0.0
C729 C 0.97272 0.88148 0.07494 0.0
H730 H 0.97678 0.94779 0.16612 0.0
C731 C 0.00662 0.87699 0.06534 0.0
C732 C 0.02996 0.89758 0.09258 0.0
H733 H 0.95546 0.86464 0.05439 0.0
H734 H 0.01451 0.85685 0.03763 0.0
C735 C 0.01858 0.92355 0.12793 0.0
C736 C 0.67421 0.76998 0.89259 0.0
C737 C 0.65424 0.7793 0.84544 0.0
H738 H 0.69358 0.73028 0.94373 0.0
C739 C 0.64079 0.75445 0.80993 0.0
H740 H 0.68516 0.78849 0.92061 0.0
C741 C 0.64579 0.72099 0.82304 0.0
C742 C 0.66423 0.71171 0.8721 0.0
H743 H 0.62551 0.76078 0.77301 0.0
H744 H 0.63406 0.70247 0.79603 0.0
C745 C 0.67908 0.73656 0.90584 0.0
C746 C 0.47697 0.38792 0.14935 0.0
C747 C 0.46651 0.38967 0.09141 0.0
H748 H 0.51755 0.38703 0.20843 0.0
C749 C 0.49055 0.39237 0.0476 0.0
H750 H 0.4592 0.38598 0.1843 0.0
C751 C 0.52435 0.393 0.06159 0.0
C752 C 0.53467 0.39101 0.11965 0.0
H753 H 0.48329 0.39387 0.00255 0.0
H754 H 0.54234 0.39484 0.02698 0.0
C755 C 0.51055 0.38861 0.16326 0.0
C756 C 0.83005 0.22814 0.38432 0.0
C757 C 0.85496 0.21709 0.3464 0.0
H758 H 0.80687 0.2696 0.42549 0.0
C759 C 0.87442 0.24066 0.31734 0.0
H760 H 0.81449 0.21064 0.40719 0.0
C761 C 0.87002 0.27447 0.32778 0.0
C762 C 0.84606 0.28547 0.36756 0.0
H763 H 0.8937 0.23301 0.2876 0.0
H764 H 0.88608 0.2919 0.30582 0.0
C765 C 0.82565 0.26197 0.39479 0.0
C766 C 0.96611 0.61496 0.57359 0.0
C767 C 0.95751 0.60774 0.63123 0.0
H768 H 0.00533 0.62331 0.51266 0.0
C769 C 0.98288 0.6023 0.67172 0.0
H770 H 0.94712 0.61931 0.54135 0.0
C771 C 0.01606 0.60456 0.65536 0.0
C772 C 0.02478 0.61245 0.59809 0.0
H773 H 0.97718 0.5966 0.71643 0.0
H774 H 0.03488 0.60045 0.68801 0.0
C775 C 0.99945 0.61735 0.55719 0.0
C776 C 0.63127 0.24407 0.68679 0.0
C777 C 0.64899 0.22027 0.65499 0.0
H778 H 0.62009 0.2954 0.69878 0.0
C779 C 0.67172 0.23104 0.61288 0.0
H780 H 0.61374 0.23664 0.71981 0.0
C781 C 0.67538 0.26478 0.60079 0.0
C782 C 0.65642 0.28848 0.63059 0.0
H783 H 0.68594 0.21337 0.58784 0.0
H784 H 0.69226 0.27215 0.56671 0.0
C785 C 0.63497 0.2778 0.67477 0.0
C786 C 0.01219 0.38765 0.94836 0.0
C787 C 0.03642 0.38529 0.90482 0.0
H788 H 0.96034 0.39049 0.9683 0.0
C789 C 0.02624 0.38451 0.84666 0.0
H790 H 0.01922 0.38841 0.99357 0.0
C791 C 0.99274 0.38587 0.83226 0.0
C792 C 0.96843 0.38796 0.8756 0.0
H793 H 0.04418 0.38288 0.81191 0.0
H794 H 0.98594 0.38505 0.78694 0.0
C795 C 0.97848 0.38893 0.93388 0.0
C796 C 0.87923 0.75738 0.18519 0.0
C797 C 0.85784 0.78015 0.15832 0.0
H798 H 0.8923 0.70651 0.19751 0.0
C799 C 0.83129 0.76807 0.12506 0.0
H800 H 0.89985 0.76583 0.2113 0.0
C801 C 0.82691 0.73401 0.11723 0.0
C802 C 0.84901 0.71127 0.14242 0.0
H803 H 0.81425 0.78493 0.10399 0.0
H804 H 0.80666 0.72557 0.09024 0.0
C805 C 0.87488 0.72333 0.1773 0.0
C806 C 0.51387 0.61421 0.29127 0.0
C807 C 0.53351 0.61192 0.34132 0.0
H808 H 0.46518 0.61729 0.25564 0.0
C809 C 0.51783 0.61046 0.3956 0.0
H810 H 0.52505 0.61537 0.24871 0.0
C811 C 0.48319 0.61156 0.39958 0.0
C812 C 0.46366 0.61422 0.34935 0.0
H813 H 0.53228 0.6087 0.43498 0.0
H814 H 0.47176 0.61052 0.44194 0.0
C815 C 0.47943 0.61539 0.29523 0.0
C816 C 0.35087 0.2761 0.19066 0.0
C817 C 0.33121 0.2861 0.14351 0.0
H818 H 0.37263 0.23567 0.23698 0.0
C819 C 0.31552 0.26171 0.10985 0.0
H820 H 0.36322 0.29423 0.21765 0.0
C821 C 0.32097 0.2281 0.12091 0.0
C822 C 0.34226 0.21815 0.16584 0.0
H823 H 0.30007 0.26851 0.07341 0.0
H824 H 0.30944 0.20998 0.09282 0.0
C825 C 0.35636 0.24249 0.20165 0.0
C826 C 0.48755 0.61661 0.79378 0.0
C827 C 0.46803 0.61287 0.84371 0.0
H828 H 0.53614 0.62002 0.75798 0.0
C829 C 0.48385 0.60919 0.89756 0.0
H830 H 0.47625 0.6195 0.75156 0.0
C831 C 0.51852 0.6095 0.90124 0.0
C832 C 0.53792 0.61356 0.85115 0.0
H833 H 0.4695 0.60628 0.93682 0.0
H834 H 0.53009 0.60672 0.94326 0.0
C835 C 0.522 0.61698 0.79746 0.0
C836 C 0.14288 0.72402 0.68521 0.0
C837 C 0.16328 0.71296 0.63982 0.0
H838 H 0.12207 0.76556 0.72977 0.0
C839 C 0.18109 0.73646 0.60747 0.0
H840 H 0.12892 0.70659 0.71119 0.0
C841 C 0.17712 0.77033 0.6181 0.0
C842 C 0.15524 0.78142 0.6613 0.0
H843 H 0.19715 0.72881 0.57239 0.0
H844 H 0.19033 0.7878 0.59104 0.0
C845 C 0.13888 0.75788 0.69579 0.0
C846 C 0.02446 0.40112 0.38392 0.0
C847 C 0.03963 0.40316 0.32927 0.0
H848 H 0.97886 0.39875 0.43134 0.0
C849 C 0.01953 0.40621 0.27989 0.0
H850 H 0.03925 0.39882 0.42282 0.0
C851 C 0.98507 0.40617 0.28473 0.0
C852 C 0.96982 0.40307 0.33909 0.0
H853 H 0.03035 0.40802 0.23712 0.0
H854 H 0.97041 0.40793 0.24558 0.0
C855 C 0.98986 0.40107 0.38878 0.0
C856 C 0.35597 0.72495 0.32236 0.0
C857 C 0.33614 0.71548 0.36959 0.0
H858 H 0.37747 0.7649 0.27441 0.0
C859 C 0.32007 0.74021 0.40192 0.0
H860 H 0.36864 0.70655 0.29642 0.0
C861 C 0.32514 0.77368 0.38927 0.0
C862 C 0.34646 0.78318 0.34411 0.0
H863 H 0.30447 0.73379 0.43837 0.0
H864 H 0.31322 0.79209 0.41627 0.0
C865 C 0.36112 0.75845 0.30982 0.0
C866 C 0.99823 0.62532 0.06468 0.0
C867 C 0.97518 0.60518 0.09364 0.0
H868 H 0.0493 0.63722 0.05113 0.0
C869 C 0.98691 0.57937 0.12899 0.0
H870 H 0.99004 0.64532 0.03689 0.0
C871 C 0.02091 0.57468 0.13711 0.0
C872 C 0.04394 0.5957 0.11007 0.0
H873 H 0.96982 0.56326 0.15167 0.0
H874 H 0.02907 0.55514 0.1659 0.0
C875 C 0.03223 0.62064 0.07282 0.0
C876 C 0.18379 0.22435 0.87909 0.0
C877 C 0.16282 0.21415 0.83389 0.0
H878 H 0.20406 0.26501 0.92674 0.0
C879 C 0.14867 0.23832 0.79775 0.0
H880 H 0.19534 0.20637 0.90745 0.0
C881 C 0.15381 0.27199 0.80866 0.0
C882 C 0.17312 0.28222 0.85607 0.0
H883 H 0.13265 0.23131 0.7622 0.0
H884 H 0.14142 0.28996 0.78139 0.0
C885 C 0.18887 0.25802 0.89009 0.0
C886 C 0.47172 0.39608 0.61148 0.0
C887 C 0.45702 0.39727 0.66662 0.0
H888 H 0.5169 0.39352 0.56278 0.0
C889 C 0.47757 0.39774 0.71571 0.0
H890 H 0.45656 0.39569 0.5728 0.0
C891 C 0.51194 0.39636 0.71001 0.0
C892 C 0.52669 0.39455 0.65507 0.0
H893 H 0.46715 0.39872 0.75886 0.0
H894 H 0.52691 0.39645 0.74891 0.0
C895 C 0.50626 0.39478 0.60575 0.0
C896 C 0.13662 0.06791 0.60302 0.0
C897 C 0.15351 0.08626 0.56059 0.0
H898 H 0.12973 0.05854 0.69334 0.0
C899 C 0.17927 0.10753 0.57779 0.0
H900 H 0.1168 0.05114 0.59122 0.0
C901 C 0.18679 0.11166 0.63639 0.0
C902 C 0.16862 0.09473 0.67901 0.0
H903 H 0.19294 0.12184 0.54615 0.0
H904 H 0.20599 0.12913 0.64828 0.0
C905 C 0.14405 0.07215 0.66162 0.0
C906 C 0.14081 0.92647 0.8312 0.0
C907 C 0.16504 0.9032 0.81516 0.0
H908 H 0.11434 0.94968 0.90039 0.0
C909 C 0.18343 0.88729 0.8587 0.0
H910 H 0.12636 0.93934 0.79872 0.0
C911 C 0.17646 0.89315 0.91704 0.0
C912 C 0.15105 0.91514 0.93305 0.0
H913 H 0.20238 0.86935 0.84783 0.0
H914 H 0.1903 0.87961 0.94951 0.0
C915 C 0.13393 0.93242 0.88954 0.0
C916 C 0.32573 0.89492 0.08418 0.0
C917 C 0.35142 0.91635 0.06724 0.0
H918 H 0.30015 0.87163 0.1543 0.0
C919 C 0.36942 0.93323 0.11013 0.0
H920 H 0.31123 0.88169 0.05223 0.0
C921 C 0.3631 0.92741 0.16871 0.0
C922 C 0.33859 0.90463 0.18563 0.0
H923 H 0.38924 0.95006 0.09857 0.0
H924 H 0.37822 0.93994 0.20066 0.0
C925 C 0.31936 0.88916 0.14276 0.0
C926 C 0.32439 0.10894 0.42106 0.0
C927 C 0.3501 0.08766 0.43849 0.0
H928 H 0.29835 0.13115 0.35035 0.0
C929 C 0.36767 0.06995 0.39607 0.0
H930 H 0.31021 0.12277 0.45267 0.0
C931 C 0.36094 0.07483 0.33736 0.0
C932 C 0.33639 0.09741 0.31984 0.0
H933 H 0.3875 0.05321 0.40802 0.0
H934 H 0.37576 0.06171 0.30571 0.0
C935 C 0.31755 0.1137 0.36235 0.0
C936 C 0.82222 0.88332 0.35882 0.0
C937 C 0.84006 0.90013 0.31563 0.0
H938 H 0.81542 0.87497 0.44947 0.0
C939 C 0.86333 0.92423 0.33221 0.0
H940 H 0.80398 0.86473 0.34755 0.0
C941 C 0.86987 0.93014 0.39071 0.0
C942 C 0.85332 0.91203 0.43386 0.0
H943 H 0.87737 0.93778 0.30003 0.0
H944 H 0.88876 0.94807 0.40196 0.0
C945 C 0.8288 0.88918 0.41731 0.0
C946 C 0.87312 0.06788 0.11143 0.0
C947 C 0.85651 0.08565 0.0679 0.0
H948 H 0.88006 0.06035 0.20228 0.0
C949 C 0.83141 0.10801 0.0839 0.0
H950 H 0.89246 0.05034 0.1006 0.0
C951 C 0.82426 0.11372 0.14222 0.0
C952 C 0.84209 0.09723 0.18583 0.0
H953 H 0.81797 0.12195 0.05144 0.0
H954 H 0.80555 0.13192 0.15306 0.0
C955 C 0.866 0.07362 0.16977 0.0
C956 C 0.63794 0.07618 0.83111 0.0
C957 C 0.66203 0.09949 0.81455 0.0
H958 H 0.6119 0.053 0.90084 0.0
C959 C 0.68061 0.11547 0.85774 0.0
H960 H 0.62332 0.06327 0.79892 0.0
C961 C 0.67402 0.1096 0.91623 0.0
C962 C 0.64875 0.08759 0.93278 0.0
H963 H 0.69947 0.13343 0.8465 0.0
H964 H 0.68802 0.1232 0.94841 0.0
C965 C 0.63139 0.07027 0.8896 0.0
C966 C 0.63256 0.93016 0.61015 0.0
C967 C 0.65013 0.913 0.56705 0.0
H968 H 0.62398 0.93679 0.70077 0.0
C969 C 0.67525 0.89083 0.58376 0.0
H970 H 0.61317 0.94754 0.5988 0.0
C971 C 0.68149 0.8847 0.64229 0.0
C972 C 0.66271 0.90055 0.68536 0.0
H973 H 0.68939 0.87734 0.55164 0.0
H974 H 0.70026 0.86666 0.65364 0.0
C975 C 0.63875 0.92397 0.66868 0.0
C976 C 0.68089 0.61088 0.09025 0.0
C977 C 0.65787 0.58681 0.07239 0.0
H978 H 0.7028 0.63679 0.16141 0.0
C979 C 0.64195 0.56743 0.11453 0.0
H980 H 0.6938 0.62606 0.05886 0.0
C981 C 0.64713 0.57359 0.1733 0.0
C982 C 0.66835 0.59925 0.19118 0.0
H983 H 0.62432 0.54848 0.10226 0.0
H984 H 0.63331 0.55919 0.20463 0.0
C985 C 0.68608 0.61703 0.14909 0.0
C986 C 0.62718 0.42743 0.37984 0.0
C987 C 0.6434 0.40904 0.42301 0.0
H988 H 0.62088 0.43614 0.28924 0.0
C989 C 0.66856 0.38681 0.40674 0.0
H990 H 0.60787 0.44494 0.39091 0.0
C991 C 0.67605 0.38176 0.34834 0.0
C992 C 0.65857 0.39885 0.30504 0.0
H993 H 0.68169 0.3724 0.43895 0.0
H994 H 0.69471 0.36357 0.33717 0.0
C995 C 0.63469 0.4224 0.32149 0.0
C996 C 0.82463 0.37937 0.64763 0.0
C997 C 0.8428 0.39628 0.69028 0.0
H998 H 0.81739 0.37054 0.5572 0.0
C999 C 0.86626 0.42004 0.67295 0.0
H1000 H 0.80626 0.36104 0.6595 0.0
C1001 C 0.87266 0.42547 0.61429 0.0
C1002 C 0.85575 0.40728 0.57169 0.0
H1003 H 0.88057 0.43365 0.70468 0.0
H1004 H 0.89169 0.44314 0.6025 0.0
C1005 C 0.83103 0.38482 0.58894 0.0
C1006 C 0.82704 0.61328 0.92742 0.0
C1007 C 0.85091 0.58937 0.9423 0.0
H1008 H 0.80198 0.63908 0.85938 0.0
C1009 C 0.86585 0.57076 0.89803 0.0
H1010 H 0.81492 0.62794 0.96049 0.0
C1011 C 0.8584 0.57714 0.84002 0.0
C1012 C 0.83587 0.60229 0.82503 0.0
H1013 H 0.88418 0.55201 0.90798 0.0
H1014 H 0.87124 0.56314 0.80692 0.0
C1015 C 0.81961 0.61968 0.8694 0.0
C1016 C 0.31153 0.37623 0.86447 0.0
C1017 C 0.3237 0.39836 0.82265 0.0
H1018 H 0.30819 0.36406 0.95434 0.0
C1019 C 0.33916 0.42775 0.84104 0.0
H1020 H 0.29937 0.35344 0.85181 0.0
C1021 C 0.34405 0.43394 0.89995 0.0
C1022 C 0.33385 0.41071 0.94153 0.0
H1023 H 0.34862 0.44542 0.80987 0.0
H1024 H 0.35719 0.45618 0.91264 0.0
C1025 C 0.3167 0.38227 0.92328 0.0
C1026 C 0.35469 0.57719 0.67416 0.0
C1027 C 0.33359 0.60279 0.69269 0.0
H1028 H 0.37757 0.55271 0.60256 0.0
C1029 C 0.3163 0.62135 0.65104 0.0
H1030 H 0.36818 0.56222 0.70513 0.0
C1031 C 0.32175 0.61591 0.59205 0.0
C1032 C 0.34456 0.59177 0.57364 0.0
H1033 H 0.29972 0.64113 0.66389 0.0
H1034 H 0.30915 0.6316 0.56103 0.0
C1035 C 0.3601 0.57173 0.61527 0.0
C1036 C 0.17044 0.61908 0.41675 0.0
C1037 C 0.14841 0.59368 0.43263 0.0
H1038 H 0.19353 0.64576 0.34776 0.0
C1039 C 0.13442 0.5738 0.38912 0.0
H1040 H 0.18184 0.63471 0.44923 0.0
C1041 C 0.14108 0.5802 0.33083 0.0
C1042 C 0.16197 0.60654 0.31489 0.0
H1043 H 0.11748 0.55394 0.39991 0.0
H1044 H 0.1291 0.56508 0.29825 0.0
C1045 C 0.17719 0.62539 0.35852 0.0
C1046 C 0.1607 0.42581 0.15688 0.0
C1047 C 0.17505 0.39624 0.17705 0.0
H1048 H 0.1447 0.4539 0.08343 0.0
C1049 C 0.1873 0.3733 0.13666 0.0
H1050 H 0.15121 0.44408 0.18693 0.0
C1051 C 0.1833 0.37881 0.0774 0.0
C1052 C 0.16729 0.40751 0.05731 0.0
H1053 H 0.19861 0.35034 0.15072 0.0
H1054 H 0.19183 0.36003 0.04741 0.0
C1055 C 0.157 0.43147 0.09755 0.0
loop_
_geom_bond_atom_site_label_1
_geom_bond_atom_site_label_2
_geom_bond_distance
_geom_bond_site_symmetry_2
_ccdc_geom_bond_type
C0 O1 1.160 . S
C0 O7 1.185 . S
O1 C0 1.160 . S
O2 Zn3 1.899 . S
O2 C10 1.284 . S
Zn3 O2 1.899 . S
Zn3 O4 2.032 . S
Zn3 O7 2.086 . S
Zn3 O12 1.977 . S
O4 Zn3 2.032 . S
O4 C8 1.278 . S
C5 O6 1.203 . S
C5 O12 1.267 . S
O6 C5 1.203 . S
O7 C0 1.185 . S
O7 Zn3 2.086 . S
C8 O4 1.278 . S
C8 O9 1.211 . S
O9 C8 1.211 . S
C10 O2 1.284 . S
C10 O11 1.273 . S
O11 C10 1.273 . S
O12 Zn3 1.977 . S
O12 C5 1.267 . S
C13 O14 1.160 . S
C13 O20 1.185 . S
O14 C13 1.160 . S
O15 Zn16 1.899 . S
O15 C23 1.284 . S
Zn16 O15 1.899 . S
Zn16 O17 2.032 . S
Zn16 O20 2.086 . S
Zn16 O25 1.977 . S
O17 Zn16 2.032 . S
O17 C21 1.278 . S
C18 O19 1.203 . S
C18 O25 1.267 . S
O19 C18 1.203 . S
O20 C13 1.185 . S
O20 Zn16 2.086 . S
C21 O17 1.278 . S
C21 O22 1.211 . S
O22 C21 1.211 . S
C23 O15 1.284 . S
C23 O24 1.273 . S
O24 C23 1.273 . S
O25 Zn16 1.977 . S
O25 C18 1.267 . S
C26 O27 1.160 . S
C26 O33 1.185 . S
O27 C26 1.160 . S
O28 Zn29 1.899 . S
O28 C36 1.284 1_556 S
Zn29 O28 1.899 . S
Zn29 O30 2.032 . S
Zn29 O33 2.086 . S
Zn29 O38 1.977 . S
O30 Zn29 2.032 . S
O30 C34 1.278 . S
C31 O32 1.203 . S
C31 O38 1.267 . S
O32 C31 1.203 . S
O33 C26 1.185 . S
O33 Zn29 2.086 . S
C34 O30 1.278 . S
C34 O35 1.211 . S
O35 C34 1.211 . S
C36 O28 1.284 1_554 S
C36 O37 1.273 . S
O37 C36 1.273 . S
O38 Zn29 1.977 . S
O38 C31 1.267 . S
C39 O40 1.160 . S
C39 O46 1.185 . S
O40 C39 1.160 . S
O41 Zn42 1.899 . S
O41 C49 1.284 . S
Zn42 O41 1.899 . S
Zn42 O43 2.032 . S
Zn42 O46 2.086 . S
Zn42 O51 1.977 . S
O43 Zn42 2.032 . S
O43 C47 1.278 . S
C44 O45 1.203 . S
C44 O51 1.267 . S
O45 C44 1.203 . S
O46 C39 1.185 . S
O46 Zn42 2.086 . S
C47 O43 1.278 . S
C47 O48 1.211 . S
O48 C47 1.211 . S
C49 O41 1.284 . S
C49 O50 1.273 . S
O50 C49 1.273 . S
O51 Zn42 1.977 . S
O51 C44 1.267 . S
C52 O53 1.160 . S
C52 O59 1.185 . S
O53 C52 1.160 . S
O54 Zn55 1.899 . S
O54 C62 1.284 1_554 S
Zn55 O54 1.899 . S
Zn55 O56 2.032 . S
Zn55 O59 2.086 . S
Zn55 O64 1.977 . S
O56 Zn55 2.032 . S
O56 C60 1.278 . S
C57 O58 1.203 . S
C57 O64 1.267 . S
O58 C57 1.203 . S
O59 C52 1.185 . S
O59 Zn55 2.086 . S
C60 O56 1.278 . S
C60 O61 1.211 . S
O61 C60 1.211 . S
C62 O54 1.284 1_556 S
C62 O63 1.273 . S
O63 C62 1.273 . S
O64 Zn55 1.977 . S
O64 C57 1.267 . S
C65 O66 1.160 . S
C65 O72 1.185 . S
O66 C65 1.160 . S
O67 Zn68 1.899 . S
O67 C75 1.284 . S
Zn68 O67 1.899 . S
Zn68 O69 2.032 . S
Zn68 O72 2.086 . S
Zn68 O77 1.977 . S
O69 Zn68 2.032 . S
O69 C73 1.278 . S
C70 O71 1.203 . S
C70 O77 1.267 . S
O71 C70 1.203 . S
O72 C65 1.185 . S
O72 Zn68 2.086 . S
C73 O69 1.278 . S
C73 O74 1.211 . S
O74 C73 1.211 . S
C75 O67 1.284 . S
C75 O76 1.273 . S
O76 C75 1.273 . S
O77 Zn68 1.977 . S
O77 C70 1.267 . S
C78 O79 1.160 . S
C78 O85 1.185 . S
O79 C78 1.160 . S
O80 Zn81 1.899 . S
O80 C88 1.284 . S
Zn81 O80 1.899 . S
Zn81 O82 2.032 . S
Zn81 O85 2.086 . S
Zn81 O90 1.977 . S
O82 Zn81 2.032 . S
O82 C86 1.278 . S
C83 O84 1.203 . S
C83 O90 1.267 . S
O84 C83 1.203 . S
O85 C78 1.185 . S
O85 Zn81 2.086 . S
C86 O82 1.278 . S
C86 O87 1.211 . S
O87 C86 1.211 . S
C88 O80 1.284 . S
C88 O89 1.273 . S
O89 C88 1.273 . S
O90 Zn81 1.977 . S
O90 C83 1.267 . S
C91 O92 1.160 . S
C91 O98 1.185 . S
O92 C91 1.160 . S
O93 Zn94 1.899 . S
O93 C101 1.284 . S
Zn94 O93 1.899 . S
Zn94 O95 2.032 . S
Zn94 O98 2.086 . S
Zn94 O103 1.977 . S
O95 Zn94 2.032 . S
O95 C99 1.278 . S
C96 O97 1.203 . S
C96 O103 1.267 . S
O97 C96 1.203 . S
O98 C91 1.185 . S
O98 Zn94 2.086 . S
C99 O95 1.278 . S
C99 O100 1.211 . S
O100 C99 1.211 . S
C101 O93 1.284 . S
C101 O102 1.273 . S
O102 C101 1.273 . S
O103 Zn94 1.977 . S
O103 C96 1.267 . S
C104 O105 1.160 . S
C104 O111 1.185 . S
O105 C104 1.160 . S
O106 Zn107 1.899 . S
O106 C114 1.284 . S
Zn107 O106 1.899 . S
Zn107 O108 2.032 . S
Zn107 O111 2.086 . S
Zn107 O116 1.977 . S
O108 Zn107 2.032 . S
O108 C112 1.278 . S
C109 O110 1.203 . S
C109 O116 1.267 . S
O110 C109 1.203 . S
O111 C104 1.185 . S
O111 Zn107 2.086 . S
C112 O108 1.278 . S
C112 O113 1.211 . S
O113 C112 1.211 . S
C114 O106 1.284 . S
C114 O115 1.273 . S
O115 C114 1.273 . S
O116 Zn107 1.977 . S
O116 C109 1.267 . S
C117 O118 1.160 . S
C117 O124 1.185 . S
O118 C117 1.160 . S
O119 Zn120 1.899 . S
O119 C127 1.284 . S
Zn120 O119 1.899 . S
Zn120 O121 2.032 . S
Zn120 O124 2.086 . S
Zn120 O129 1.977 . S
O121 Zn120 2.032 . S
O121 C125 1.278 . S
C122 O123 1.203 . S
C122 O129 1.267 . S
O123 C122 1.203 . S
O124 C117 1.185 . S
O124 Zn120 2.086 . S
C125 O121 1.278 . S
C125 O126 1.211 . S
O126 C125 1.211 . S
C127 O119 1.284 . S
C127 O128 1.273 . S
O128 C127 1.273 . S
O129 Zn120 1.977 . S
O129 C122 1.267 . S
C130 O131 1.160 . S
C130 O137 1.185 . S
O131 C130 1.160 . S
O132 Zn133 1.899 . S
O132 C140 1.284 1_554 S
Zn133 O132 1.899 . S
Zn133 O134 2.032 . S
Zn133 O137 2.086 . S
Zn133 O142 1.977 . S
O134 Zn133 2.032 . S
O134 C138 1.278 . S
C135 O136 1.203 . S
C135 O142 1.267 . S
O136 C135 1.203 . S
O137 C130 1.185 . S
O137 Zn133 2.086 . S
C138 O134 1.278 . S
C138 O139 1.211 . S
O139 C138 1.211 . S
C140 O132 1.284 1_556 S
C140 O141 1.273 . S
O141 C140 1.273 . S
O142 Zn133 1.977 . S
O142 C135 1.267 . S
C143 O144 1.160 . S
C143 O150 1.185 . S
O144 C143 1.160 . S
O145 Zn146 1.899 . S
O145 C153 1.284 . S
Zn146 O145 1.899 . S
Zn146 O147 2.032 . S
Zn146 O150 2.086 . S
Zn146 O155 1.977 . S
O147 Zn146 2.032 . S
O147 C151 1.278 . S
C148 O149 1.203 . S
C148 O155 1.267 . S
O149 C148 1.203 . S
O150 C143 1.185 . S
O150 Zn146 2.086 . S
C151 O147 1.278 . S
C151 O152 1.211 . S
O152 C151 1.211 . S
C153 O145 1.284 . S
C153 O154 1.273 . S
O154 C153 1.273 . S
O155 Zn146 1.977 . S
O155 C148 1.267 . S
C156 O157 1.160 . S
C156 O163 1.185 . S
O157 C156 1.160 . S
O158 Zn159 1.899 . S
O158 C166 1.284 1_556 S
Zn159 O158 1.899 . S
Zn159 O160 2.032 . S
Zn159 O163 2.086 . S
Zn159 O168 1.977 . S
O160 Zn159 2.032 . S
O160 C164 1.278 . S
C161 O162 1.203 . S
C161 O168 1.267 . S
O162 C161 1.203 . S
O163 C156 1.185 . S
O163 Zn159 2.086 . S
C164 O160 1.278 . S
C164 O165 1.211 . S
O165 C164 1.211 . S
C166 O158 1.284 1_554 S
C166 O167 1.273 . S
O167 C166 1.273 . S
O168 Zn159 1.977 . S
O168 C161 1.267 . S
C169 O170 1.160 . S
C169 O176 1.185 . S
O170 C169 1.160 . S
O171 Zn172 1.899 . S
O171 C179 1.284 . S
Zn172 O171 1.899 . S
Zn172 O173 2.032 . S
Zn172 O176 2.086 . S
Zn172 O181 1.977 . S
O173 Zn172 2.032 . S
O173 C177 1.278 . S
C174 O175 1.203 . S
C174 O181 1.267 . S
O175 C174 1.203 . S
O176 C169 1.185 . S
O176 Zn172 2.086 . S
C177 O173 1.278 . S
C177 O178 1.211 . S
O178 C177 1.211 . S
C179 O171 1.284 . S
C179 O180 1.273 . S
O180 C179 1.273 . S
O181 Zn172 1.977 . S
O181 C174 1.267 . S
C182 O183 1.160 . S
C182 O189 1.185 . S
O183 C182 1.160 . S
O184 Zn185 1.899 . S
O184 C192 1.284 . S
Zn185 O184 1.899 . S
Zn185 O186 2.032 . S
Zn185 O189 2.086 . S
Zn185 O194 1.977 . S
O186 Zn185 2.032 . S
O186 C190 1.278 . S
C187 O188 1.203 . S
C187 O194 1.267 . S
O188 C187 1.203 . S
O189 C182 1.185 . S
O189 Zn185 2.086 . S
C190 O186 1.278 . S
C190 O191 1.211 . S
O191 C190 1.211 . S
C192 O184 1.284 . S
C192 O193 1.273 . S
O193 C192 1.273 . S
O194 Zn185 1.977 . S
O194 C187 1.267 . S
C195 O196 1.160 . S
C195 O202 1.185 . S
O196 C195 1.160 . S
O197 Zn198 1.899 . S
O197 C205 1.284 . S
Zn198 O197 1.899 . S
Zn198 O199 2.032 . S
Zn198 O202 2.086 . S
Zn198 O207 1.977 . S
O199 Zn198 2.032 . S
O199 C203 1.278 . S
C200 O201 1.203 . S
C200 O207 1.267 . S
O201 C200 1.203 . S
O202 C195 1.185 . S
O202 Zn198 2.086 . S
C203 O199 1.278 . S
C203 O204 1.211 . S
O204 C203 1.211 . S
C205 O197 1.284 . S
C205 O206 1.273 . S
O206 C205 1.273 . S
O207 Zn198 1.977 . S
O207 C200 1.267 . S
C208 O209 1.160 . S
C208 O215 1.185 . S
O209 C208 1.160 . S
O210 Zn211 1.899 . S
O210 C218 1.284 1_556 S
Zn211 O210 1.899 . S
Zn211 O212 2.032 . S
Zn211 O215 2.086 . S
Zn211 O220 1.977 . S
O212 Zn211 2.032 . S
O212 C216 1.278 . S
C213 O214 1.203 . S
C213 O220 1.267 . S
O214 C213 1.203 . S
O215 C208 1.185 . S
O215 Zn211 2.086 . S
C216 O212 1.278 . S
C216 O217 1.211 . S
O217 C216 1.211 . S
C218 O210 1.284 1_554 S
C218 O219 1.273 . S
O219 C218 1.273 . S
O220 Zn211 1.977 . S
O220 C213 1.267 . S
C221 O222 1.160 . S
C221 O228 1.185 . S
O222 C221 1.160 . S
O223 Zn224 1.899 . S
O223 C231 1.284 . S
Zn224 O223 1.899 . S
Zn224 O225 2.032 . S
Zn224 O228 2.086 . S
Zn224 O233 1.977 . S
O225 Zn224 2.032 . S
O225 C229 1.278 . S
C226 O227 1.203 . S
C226 O233 1.267 . S
O227 C226 1.203 . S
O228 C221 1.185 . S
O228 Zn224 2.086 . S
C229 O225 1.278 . S
C229 O230 1.211 . S
O230 C229 1.211 . S
C231 O223 1.284 . S
C231 O232 1.273 . S
O232 C231 1.273 . S
O233 Zn224 1.977 . S
O233 C226 1.267 . S
C234 O235 1.160 . S
C234 O241 1.185 . S
O235 C234 1.160 . S
O236 Zn237 1.899 . S
O236 C244 1.284 . S
Zn237 O236 1.899 . S
Zn237 O238 2.032 . S
Zn237 O241 2.086 . S
Zn237 O246 1.977 . S
O238 Zn237 2.032 . S
O238 C242 1.278 . S
C239 O240 1.203 . S
C239 O246 1.267 . S
O240 C239 1.203 . S
O241 C234 1.185 . S
O241 Zn237 2.086 . S
C242 O238 1.278 . S
C242 O243 1.211 . S
O243 C242 1.211 . S
C244 O236 1.284 . S
C244 O245 1.273 . S
O245 C244 1.273 . S
O246 Zn237 1.977 . S
O246 C239 1.267 . S
C247 O248 1.160 . S
C247 O254 1.185 . S
O248 C247 1.160 . S
O249 Zn250 1.899 . S
O249 C257 1.284 . S
Zn250 O249 1.899 . S
Zn250 O251 2.032 . S
Zn250 O254 2.086 . S
Zn250 O259 1.977 . S
O251 Zn250 2.032 . S
O251 C255 1.278 . S
C252 O253 1.203 . S
C252 O259 1.267 . S
O253 C252 1.203 . S
O254 C247 1.185 . S
O254 Zn250 2.086 . S
C255 O251 1.278 . S
C255 O256 1.211 . S
O256 C255 1.211 . S
C257 O249 1.284 . S
C257 O258 1.273 . S
O258 C257 1.273 . S
O259 Zn250 1.977 . S
O259 C252 1.267 . S
C260 O261 1.160 . S
C260 O267 1.185 . S
O261 C260 1.160 . S
O262 Zn263 1.899 . S
O262 C270 1.284 . S
Zn263 O262 1.899 . S
Zn263 O264 2.032 . S
Zn263 O267 2.086 . S
Zn263 O272 1.977 . S
O264 Zn263 2.032 . S
O264 C268 1.278 . S
C265 O266 1.203 . S
C265 O272 1.267 . S
O266 C265 1.203 . S
O267 C260 1.185 . S
O267 Zn263 2.086 . S
C268 O264 1.278 . S
C268 O269 1.211 . S
O269 C268 1.211 . S
C270 O262 1.284 . S
C270 O271 1.273 . S
O271 C270 1.273 . S
O272 Zn263 1.977 . S
O272 C265 1.267 . S
C273 O274 1.160 . S
C273 O280 1.185 . S
O274 C273 1.160 . S
O275 Zn276 1.899 . S
O275 C283 1.284 . S
Zn276 O275 1.899 . S
Zn276 O277 2.032 . S
Zn276 O280 2.086 . S
Zn276 O285 1.977 . S
O277 Zn276 2.032 . S
O277 C281 1.278 . S
C278 O279 1.203 . S
C278 O285 1.267 . S
O279 C278 1.203 . S
O280 C273 1.185 . S
O280 Zn276 2.086 . S
C281 O277 1.278 . S
C281 O282 1.211 . S
O282 C281 1.211 . S
C283 O275 1.284 . S
C283 O284 1.273 . S
O284 C283 1.273 . S
O285 Zn276 1.977 . S
O285 C278 1.267 . S
C286 O287 1.160 . S
C286 O293 1.185 . S
O287 C286 1.160 . S
O288 Zn289 1.899 . S
O288 C296 1.284 1_554 S
Zn289 O288 1.899 . S
Zn289 O290 2.032 . S
Zn289 O293 2.086 . S
Zn289 O298 1.977 . S
O290 Zn289 2.032 . S
O290 C294 1.278 . S
C291 O292 1.203 . S
C291 O298 1.267 . S
O292 C291 1.203 . S
O293 C286 1.185 . S
O293 Zn289 2.086 . S
C294 O290 1.278 . S
C294 O295 1.211 . S
O295 C294 1.211 . S
C296 O288 1.284 1_556 S
C296 O297 1.273 . S
O297 C296 1.273 . S
O298 Zn289 1.977 . S
O298 C291 1.267 . S
C299 O300 1.160 . S
C299 O306 1.185 . S
O300 C299 1.160 . S
O301 Zn302 1.899 . S
O301 C309 1.284 . S
Zn302 O301 1.899 . S
Zn302 O303 2.032 . S
Zn302 O306 2.086 . S
Zn302 O311 1.977 . S
O303 Zn302 2.032 . S
O303 C307 1.278 . S
C304 O305 1.203 . S
C304 O311 1.267 . S
O305 C304 1.203 . S
O306 C299 1.185 . S
O306 Zn302 2.086 . S
C307 O303 1.278 . S
C307 O308 1.211 . S
O308 C307 1.211 . S
C309 O301 1.284 . S
C309 O310 1.273 . S
O310 C309 1.273 . S
O311 Zn302 1.977 . S
O311 C304 1.267 . S
C312 O313 1.160 . S
C312 O319 1.185 . S
O313 C312 1.160 . S
O314 Zn315 1.899 . S
O314 C322 1.284 1_554 S
Zn315 O314 1.899 . S
Zn315 O316 2.032 . S
Zn315 O319 2.086 . S
Zn315 O324 1.977 . S
O316 Zn315 2.032 . S
O316 C320 1.278 . S
C317 O318 1.203 . S
C317 O324 1.267 . S
O318 C317 1.203 . S
O319 C312 1.185 . S
O319 Zn315 2.086 . S
C320 O316 1.278 . S
C320 O321 1.211 . S
O321 C320 1.211 . S
C322 O314 1.284 1_556 S
C322 O323 1.273 . S
O323 C322 1.273 . S
O324 Zn315 1.977 . S
O324 C317 1.267 . S
C325 O326 1.160 . S
C325 O332 1.185 . S
O326 C325 1.160 . S
O327 Zn328 1.899 . S
O327 C335 1.284 . S
Zn328 O327 1.899 . S
Zn328 O329 2.032 . S
Zn328 O332 2.086 . S
Zn328 O337 1.977 . S
O329 Zn328 2.032 . S
O329 C333 1.278 . S
C330 O331 1.203 . S
C330 O337 1.267 . S
O331 C330 1.203 . S
O332 C325 1.185 . S
O332 Zn328 2.086 . S
C333 O329 1.278 . S
C333 O334 1.211 . S
O334 C333 1.211 . S
C335 O327 1.284 . S
C335 O336 1.273 . S
O336 C335 1.273 . S
O337 Zn328 1.977 . S
O337 C330 1.267 . S
C338 O339 1.160 . S
C338 O345 1.185 . S
O339 C338 1.160 . S
O340 Zn341 1.899 . S
O340 C348 1.284 . S
Zn341 O340 1.899 . S
Zn341 O342 2.032 . S
Zn341 O345 2.086 . S
Zn341 O350 1.977 . S
O342 Zn341 2.032 . S
O342 C346 1.278 . S
C343 O344 1.203 . S
C343 O350 1.267 . S
O344 C343 1.203 . S
O345 C338 1.185 . S
O345 Zn341 2.086 . S
C346 O342 1.278 . S
C346 O347 1.211 . S
O347 C346 1.211 . S
C348 O340 1.284 . S
C348 O349 1.273 . S
O349 C348 1.273 . S
O350 Zn341 1.977 . S
O350 C343 1.267 . S
C351 O352 1.160 . S
C351 O358 1.185 . S
O352 C351 1.160 . S
O353 Zn354 1.899 . S
O353 C361 1.284 . S
Zn354 O353 1.899 . S
Zn354 O355 2.032 . S
Zn354 O358 2.086 . S
Zn354 O363 1.977 . S
O355 Zn354 2.032 . S
O355 C359 1.278 . S
C356 O357 1.203 . S
C356 O363 1.267 . S
O357 C356 1.203 . S
O358 C351 1.185 . S
O358 Zn354 2.086 . S
C359 O355 1.278 . S
C359 O360 1.211 . S
O360 C359 1.211 . S
C361 O353 1.284 . S
C361 O362 1.273 . S
O362 C361 1.273 . S
O363 Zn354 1.977 . S
O363 C356 1.267 . S
C364 O365 1.160 . S
C364 O371 1.185 . S
O365 C364 1.160 . S
O366 Zn367 1.899 . S
O366 C374 1.284 . S
Zn367 O366 1.899 . S
Zn367 O368 2.032 . S
Zn367 O371 2.086 . S
Zn367 O376 1.977 . S
O368 Zn367 2.032 . S
O368 C372 1.278 . S
C369 O370 1.203 . S
C369 O376 1.267 . S
O370 C369 1.203 . S
O371 C364 1.185 . S
O371 Zn367 2.086 . S
C372 O368 1.278 . S
C372 O373 1.211 . S
O373 C372 1.211 . S
C374 O366 1.284 . S
C374 O375 1.273 . S
O375 C374 1.273 . S
O376 Zn367 1.977 . S
O376 C369 1.267 . S
C377 O378 1.160 . S
C377 O384 1.185 . S
O378 C377 1.160 . S
O379 Zn380 1.899 . S
O379 C387 1.284 . S
Zn380 O379 1.899 . S
Zn380 O381 2.032 . S
Zn380 O384 2.086 . S
Zn380 O389 1.977 . S
O381 Zn380 2.032 . S
O381 C385 1.278 . S
C382 O383 1.203 . S
C382 O389 1.267 . S
O383 C382 1.203 . S
O384 C377 1.185 . S
O384 Zn380 2.086 . S
C385 O381 1.278 . S
C385 O386 1.211 . S
O386 C385 1.211 . S
C387 O379 1.284 . S
C387 O388 1.273 . S
O388 C387 1.273 . S
O389 Zn380 1.977 . S
O389 C382 1.267 . S
C390 O391 1.160 . S
C390 O397 1.185 . S
O391 C390 1.160 . S
O392 Zn393 1.899 . S
O392 C400 1.284 1_556 S
Zn393 O392 1.899 . S
Zn393 O394 2.032 . S
Zn393 O397 2.086 . S
Zn393 O402 1.977 . S
O394 Zn393 2.032 . S
O394 C398 1.278 . S
C395 O396 1.203 . S
C395 O402 1.267 . S
O396 C395 1.203 . S
O397 C390 1.185 . S
O397 Zn393 2.086 . S
C398 O394 1.278 . S
C398 O399 1.211 . S
O399 C398 1.211 . S
C400 O392 1.284 1_554 S
C400 O401 1.273 . S
O401 C400 1.273 . S
O402 Zn393 1.977 . S
O402 C395 1.267 . S
C403 O404 1.160 . S
C403 O410 1.185 . S
O404 C403 1.160 . S
O405 Zn406 1.899 . S
O405 C413 1.284 . S
Zn406 O405 1.899 . S
Zn406 O407 2.032 . S
Zn406 O410 2.086 . S
Zn406 O415 1.977 . S
O407 Zn406 2.032 . S
O407 C411 1.278 . S
C408 O409 1.203 . S
C408 O415 1.267 . S
O409 C408 1.203 . S
O410 C403 1.185 . S
O410 Zn406 2.086 . S
C411 O407 1.278 . S
C411 O412 1.211 . S
O412 C411 1.211 . S
C413 O405 1.284 . S
C413 O414 1.273 . S
O414 C413 1.273 . S
O415 Zn406 1.977 . S
O415 C408 1.267 . S
C416 C417 1.387 . S
C416 H420 0.950 . S
C416 C425 1.390 1_545 S
C417 C416 1.387 . S
C417 C419 1.387 . S
H418 C425 0.950 . S
C419 C417 1.387 . S
C419 C421 1.390 1_545 S
C419 H423 0.950 . S
H420 C416 0.950 . S
C421 C419 1.390 1_565 S
C421 C422 1.387 . S
C421 H424 0.950 . S
C422 C421 1.387 . S
C422 C425 1.387 . S
H423 C419 0.950 . S
H424 C421 0.950 . S
C425 C416 1.390 1_565 S
C425 H418 0.950 . S
C425 C422 1.387 . S
C426 C427 1.387 . S
C426 H430 0.950 . S
C426 C435 1.390 . S
C427 C426 1.387 . S
C427 C429 1.387 . S
H428 C435 0.950 . S
C429 C427 1.387 . S
C429 C431 1.390 . S
C429 H433 0.950 . S
H430 C426 0.950 . S
C431 C429 1.390 . S
C431 C432 1.387 . S
C431 H434 0.950 . S
C432 C431 1.387 . S
C432 C435 1.387 . S
H433 C429 0.950 . S
H434 C431 0.950 . S
C435 C426 1.390 . S
C435 H428 0.950 . S
C435 C432 1.387 . S
C436 C437 1.387 . S
C436 H440 0.950 . S
C436 C445 1.390 1_545 S
C437 C436 1.387 . S
C437 C439 1.387 . S
H438 C445 0.950 . S
C439 C437 1.387 . S
C439 C441 1.390 1_545 S
C439 H443 0.950 . S
H440 C436 0.950 . S
C441 C439 1.390 1_565 S
C441 C442 1.387 . S
C441 H444 0.950 . S
C442 C441 1.387 . S
C442 C445 1.387 . S
H443 C439 0.950 . S
H444 C441 0.950 . S
C445 C436 1.390 1_565 S
C445 H438 0.950 . S
C445 C442 1.387 . S
C446 C447 1.387 . S
C446 H450 0.950 . S
C446 C455 1.390 1_556 S
C447 C446 1.387 . S
C447 C449 1.387 . S
H448 C455 0.950 . S
C449 C447 1.387 . S
C449 C451 1.390 1_556 S
C449 H453 0.950 . S
H450 C446 0.950 . S
C451 C449 1.390 1_554 S
C451 C452 1.387 . S
C451 H454 0.950 . S
C452 C451 1.387 . S
C452 C455 1.387 . S
H453 C449 0.950 . S
H454 C451 0.950 . S
C455 C446 1.390 1_554 S
C455 H448 0.950 . S
C455 C452 1.387 . S
C456 C457 1.387 . S
C456 H460 0.950 . S
C456 C465 1.390 1_565 S
C457 C456 1.387 . S
C457 C459 1.387 . S
H458 C465 0.950 . S
C459 C457 1.387 . S
C459 C461 1.390 1_565 S
C459 H463 0.950 . S
H460 C456 0.950 . S
C461 C459 1.390 1_545 S
C461 C462 1.387 . S
C461 H464 0.950 . S
C462 C461 1.387 . S
C462 C465 1.387 . S
H463 C459 0.950 . S
H464 C461 0.950 . S
C465 C456 1.390 1_545 S
C465 H458 0.950 . S
C465 C462 1.387 . S
C466 C467 1.387 . S
C466 H470 0.950 . S
C466 C475 1.390 . S
C467 C466 1.387 . S
C467 C469 1.387 . S
H468 C475 0.950 . S
C469 C467 1.387 . S
C469 C471 1.390 . S
C469 H473 0.950 . S
H470 C466 0.950 . S
C471 C469 1.390 . S
C471 C472 1.387 . S
C471 H474 0.950 . S
C472 C471 1.387 . S
C472 C475 1.387 . S
H473 C469 0.950 . S
H474 C471 0.950 . S
C475 C466 1.390 . S
C475 H468 0.950 . S
C475 C472 1.387 . S
C476 C477 1.387 . S
C476 H480 0.950 . S
C476 C485 1.390 1_565 S
C477 C476 1.387 . S
C477 C479 1.387 . S
H478 C485 0.950 . S
C479 C477 1.387 . S
C479 C481 1.390 1_565 S
C479 H483 0.950 . S
H480 C476 0.950 . S
C481 C479 1.390 1_545 S
C481 C482 1.387 . S
C481 H484 0.950 . S
C482 C481 1.387 . S
C482 C485 1.387 . S
H483 C479 0.950 . S
H484 C481 0.950 . S
C485 C476 1.390 1_545 S
C485 H478 0.950 . S
C485 C482 1.387 . S
C486 C487 1.387 . S
C486 H490 0.950 . S
C486 C495 1.390 1_556 S
C487 C486 1.387 . S
C487 C489 1.387 . S
H488 C495 0.950 . S
C489 C487 1.387 . S
C489 C491 1.390 1_556 S
C489 H493 0.950 . S
H490 C486 0.950 . S
C491 C489 1.390 1_554 S
C491 C492 1.387 . S
C491 H494 0.950 . S
C492 C491 1.387 . S
C492 C495 1.387 . S
H493 C489 0.950 . S
H494 C491 0.950 . S
C495 C486 1.390 1_554 S
C495 H488 0.950 . S
C495 C492 1.387 . S
C496 C497 1.387 . S
C496 H500 0.950 . S
C496 C505 1.390 . S
C497 C496 1.387 . S
C497 C499 1.387 . S
H498 C505 0.950 . S
C499 C497 1.387 . S
C499 C501 1.390 . S
C499 H503 0.950 . S
H500 C496 0.950 . S
C501 C499 1.390 . S
C501 C502 1.387 . S
C501 H504 0.950 . S
C502 C501 1.387 . S
C502 C505 1.387 . S
H503 C499 0.950 . S
H504 C501 0.950 . S
C505 C496 1.390 . S
C505 H498 0.950 . S
C505 C502 1.387 . S
C506 C507 1.387 . S
C506 H510 0.950 . S
C506 C515 1.390 1_556 S
C507 C506 1.387 . S
C507 C509 1.387 . S
H508 C515 0.950 . S
C509 C507 1.387 . S
C509 C511 1.390 1_556 S
C509 H513 0.950 . S
H510 C506 0.950 . S
C511 C509 1.390 1_554 S
C511 C512 1.387 . S
C511 H514 0.950 . S
C512 C511 1.387 . S
C512 C515 1.387 . S
H513 C509 0.950 . S
H514 C511 0.950 . S
C515 C506 1.390 1_554 S
C515 H508 0.950 . S
C515 C512 1.387 . S
C516 C517 1.387 . S
C516 H520 0.950 . S
C516 C525 1.390 . S
C517 C516 1.387 . S
C517 C519 1.387 . S
H518 C525 0.950 . S
C519 C517 1.387 . S
C519 C521 1.390 . S
C519 H523 0.950 . S
H520 C516 0.950 . S
C521 C519 1.390 . S
C521 C522 1.387 . S
C521 H524 0.950 . S
C522 C521 1.387 . S
C522 C525 1.387 . S
H523 C519 0.950 . S
H524 C521 0.950 . S
C525 C516 1.390 . S
C525 H518 0.950 . S
C525 C522 1.387 . S
C526 C527 1.387 . S
C526 H530 0.950 . S
C526 C535 1.390 . S
C527 C526 1.387 . S
C527 C529 1.387 . S
H528 C535 0.950 . S
C529 C527 1.387 . S
C529 C531 1.390 . S
C529 H533 0.950 . S
H530 C526 0.950 . S
C531 C529 1.390 . S
C531 C532 1.387 . S
C531 H534 0.950 . S
C532 C531 1.387 . S
C532 C535 1.387 . S
H533 C529 0.950 . S
H534 C531 0.950 . S
C535 C526 1.390 . S
C535 H528 0.950 . S
C535 C532 1.387 . S
C536 C537 1.387 . S
C536 H540 0.950 . S
C536 C545 1.390 . S
C537 C536 1.387 . S
C537 C539 1.387 . S
H538 C545 0.950 . S
C539 C537 1.387 . S
C539 C541 1.390 . S
C539 H543 0.950 . S
H540 C536 0.950 . S
C541 C539 1.390 . S
C541 C542 1.387 . S
C541 H544 0.950 . S
C542 C541 1.387 . S
C542 C545 1.387 . S
H543 C539 0.950 . S
H544 C541 0.950 . S
C545 C536 1.390 . S
C545 H538 0.950 . S
C545 C542 1.387 . S
C546 C547 1.387 . S
C546 H550 0.950 . S
C546 C555 1.390 1_554 S
C547 C546 1.387 . S
C547 C549 1.387 . S
H548 C555 0.950 . S
C549 C547 1.387 . S
C549 C551 1.390 1_554 S
C549 H553 0.950 . S
H550 C546 0.950 . S
C551 C549 1.390 1_556 S
C551 C552 1.387 . S
C551 H554 0.950 . S
C552 C551 1.387 . S
C552 C555 1.387 . S
H553 C549 0.950 . S
H554 C551 0.950 . S
C555 C546 1.390 1_556 S
C555 H548 0.950 . S
C555 C552 1.387 . S
C556 C557 1.387 . S
C556 H560 0.950 . S
C556 C565 1.390 . S
C557 C556 1.387 . S
C557 C559 1.387 . S
H558 C565 0.950 . S
C559 C557 1.387 . S
C559 C561 1.390 . S
C559 H563 0.950 . S
H560 C556 0.950 . S
C561 C559 1.390 . S
C561 C562 1.387 . S
C561 H564 0.950 . S
C562 C561 1.387 . S
C562 C565 1.387 . S
H563 C559 0.950 . S
H564 C561 0.950 . S
C565 C556 1.390 . S
C565 H558 0.950 . S
C565 C562 1.387 . S
C566 C567 1.387 . S
C566 H570 0.950 . S
C566 C575 1.390 . S
C567 C566 1.387 . S
C567 C569 1.387 . S
H568 C575 0.950 . S
C569 C567 1.387 . S
C569 C571 1.390 . S
C569 H573 0.950 . S
H570 C566 0.950 . S
C571 C569 1.390 . S
C571 C572 1.387 . S
C571 H574 0.950 . S
C572 C571 1.387 . S
C572 C575 1.387 . S
H573 C569 0.950 . S
H574 C571 0.950 . S
C575 C566 1.390 . S
C575 H568 0.950 . S
C575 C572 1.387 . S
C576 C577 1.387 . S
C576 H580 0.950 . S
C576 C585 1.390 . S
C577 C576 1.387 . S
C577 C579 1.387 . S
H578 C585 0.950 . S
C579 C577 1.387 . S
C579 C581 1.390 . S
C579 H583 0.950 . S
H580 C576 0.950 . S
C581 C579 1.390 . S
C581 C582 1.387 . S
C581 H584 0.950 . S
C582 C581 1.387 . S
C582 C585 1.387 . S
H583 C579 0.950 . S
H584 C581 0.950 . S
C585 C576 1.390 . S
C585 H578 0.950 . S
C585 C582 1.387 . S
C586 C587 1.387 . S
C586 H590 0.950 . S
C586 C595 1.390 1_655 S
C587 C586 1.387 . S
C587 C589 1.387 . S
H588 C595 0.950 . S
C589 C587 1.387 . S
C589 C591 1.390 1_655 S
C589 H593 0.950 . S
H590 C586 0.950 . S
C591 C589 1.390 1_455 S
C591 C592 1.387 . S
C591 H594 0.950 . S
C592 C591 1.387 . S
C592 C595 1.387 . S
H593 C589 0.950 . S
H594 C591 0.950 . S
C595 C586 1.390 1_455 S
C595 H588 0.950 . S
C595 C592 1.387 . S
C596 C597 1.387 . S
C596 H600 0.950 . S
C596 C605 1.390 . S
C597 C596 1.387 . S
C597 C599 1.387 . S
H598 C605 0.950 . S
C599 C597 1.387 . S
C599 C601 1.390 . S
C599 H603 0.950 . S
H600 C596 0.950 . S
C601 C599 1.390 . S
C601 C602 1.387 . S
C601 H604 0.950 . S
C602 C601 1.387 . S
C602 C605 1.387 . S
H603 C599 0.950 . S
H604 C601 0.950 . S
C605 C596 1.390 . S
C605 H598 0.950 . S
C605 C602 1.387 . S
C606 C607 1.387 . S
C606 H610 0.950 . S
C606 C615 1.390 . S
C607 C606 1.387 . S
C607 C609 1.387 . S
H608 C615 0.950 . S
C609 C607 1.387 . S
C609 C611 1.390 . S
C609 H613 0.950 . S
H610 C606 0.950 . S
C611 C609 1.390 . S
C611 C612 1.387 . S
C611 H614 0.950 . S
C612 C611 1.387 . S
C612 C615 1.387 . S
H613 C609 0.950 . S
H614 C611 0.950 . S
C615 C606 1.390 . S
C615 H608 0.950 . S
C615 C612 1.387 . S
C616 C617 1.387 . S
C616 H620 0.950 . S
C616 C625 1.390 . S
C617 C616 1.387 . S
C617 C619 1.387 . S
H618 C625 0.950 . S
C619 C617 1.387 . S
C619 C621 1.390 . S
C619 H623 0.950 . S
H620 C616 0.950 . S
C621 C619 1.390 . S
C621 C622 1.387 . S
C621 H624 0.950 . S
C622 C621 1.387 . S
C622 C625 1.387 . S
H623 C619 0.950 . S
H624 C621 0.950 . S
C625 C616 1.390 . S
C625 H618 0.950 . S
C625 C622 1.387 . S
C626 C627 1.387 . S
C626 H630 0.950 . S
C626 C635 1.390 . S
C627 C626 1.387 . S
C627 C629 1.387 . S
H628 C635 0.950 . S
C629 C627 1.387 . S
C629 C631 1.390 . S
C629 H633 0.950 . S
H630 C626 0.950 . S
C631 C629 1.390 . S
C631 C632 1.387 . S
C631 H634 0.950 . S
C632 C631 1.387 . S
C632 C635 1.387 . S
H633 C629 0.950 . S
H634 C631 0.950 . S
C635 C626 1.390 . S
C635 H628 0.950 . S
C635 C632 1.387 . S
C636 C637 1.387 . S
C636 H640 0.950 . S
C636 C645 1.390 . S
C637 C636 1.387 . S
C637 C639 1.387 . S
H638 C645 0.950 . S
C639 C637 1.387 . S
C639 C641 1.390 . S
C639 H643 0.950 . S
H640 C636 0.950 . S
C641 C639 1.390 . S
C641 C642 1.387 . S
C641 H644 0.950 . S
C642 C641 1.387 . S
C642 C645 1.387 . S
H643 C639 0.950 . S
H644 C641 0.950 . S
C645 C636 1.390 . S
C645 H638 0.950 . S
C645 C642 1.387 . S
C646 C647 1.387 . S
C646 H650 0.950 . S
C646 C655 1.390 1_455 S
C647 C646 1.387 . S
C647 C649 1.387 . S
H648 C655 0.950 . S
C649 C647 1.387 . S
C649 C651 1.390 1_455 S
C649 H653 0.950 . S
H650 C646 0.950 . S
C651 C649 1.390 1_655 S
C651 C652 1.387 . S
C651 H654 0.950 . S
C652 C651 1.387 . S
C652 C655 1.387 . S
H653 C649 0.950 . S
H654 C651 0.950 . S
C655 C646 1.390 1_655 S
C655 H648 0.950 . S
C655 C652 1.387 . S
C656 C657 1.387 . S
C656 H660 0.950 . S
C656 C665 1.390 . S
C657 C656 1.387 . S
C657 C659 1.387 . S
H658 C665 0.950 . S
C659 C657 1.387 . S
C659 C661 1.390 . S
C659 H663 0.950 . S
H660 C656 0.950 . S
C661 C659 1.390 . S
C661 C662 1.387 . S
C661 H664 0.950 . S
C662 C661 1.387 . S
C662 C665 1.387 . S
H663 C659 0.950 . S
H664 C661 0.950 . S
C665 C656 1.390 . S
C665 H658 0.950 . S
C665 C662 1.387 . S
C666 C667 1.387 . S
C666 H670 0.950 . S
C666 C675 1.390 1_655 S
C667 C666 1.387 . S
C667 C669 1.387 . S
H668 C675 0.950 . S
C669 C667 1.387 . S
C669 C671 1.390 1_655 S
C669 H673 0.950 . S
H670 C666 0.950 . S
C671 C669 1.390 1_455 S
C671 C672 1.387 . S
C671 H674 0.950 . S
C672 C671 1.387 . S
C672 C675 1.387 . S
H673 C669 0.950 . S
H674 C671 0.950 . S
C675 C666 1.390 1_455 S
C675 H668 0.950 . S
C675 C672 1.387 . S
C676 C677 1.387 . S
C676 H680 0.950 . S
C676 C685 1.390 . S
C677 C676 1.387 . S
C677 C679 1.387 . S
H678 C685 0.950 . S
C679 C677 1.387 . S
C679 C681 1.390 . S
C679 H683 0.950 . S
H680 C676 0.950 . S
C681 C679 1.390 . S
C681 C682 1.387 . S
C681 H684 0.950 . S
C682 C681 1.387 . S
C682 C685 1.387 . S
H683 C679 0.950 . S
H684 C681 0.950 . S
C685 C676 1.390 . S
C685 H678 0.950 . S
C685 C682 1.387 . S
C686 C687 1.387 . S
C686 H690 0.950 . S
C686 C695 1.390 . S
C687 C686 1.387 . S
C687 C689 1.387 . S
H688 C695 0.950 . S
C689 C687 1.387 . S
C689 C691 1.390 . S
C689 H693 0.950 . S
H690 C686 0.950 . S
C691 C689 1.390 . S
C691 C692 1.387 . S
C691 H694 0.950 . S
C692 C691 1.387 . S
C692 C695 1.387 . S
H693 C689 0.950 . S
H694 C691 0.950 . S
C695 C686 1.390 . S
C695 H688 0.950 . S
C695 C692 1.387 . S
C696 C697 1.387 . S
C696 H700 0.950 . S
C696 C705 1.390 . S
C697 C696 1.387 . S
C697 C699 1.387 . S
H698 C705 0.950 . S
C699 C697 1.387 . S
C699 C701 1.390 . S
C699 H703 0.950 . S
H700 C696 0.950 . S
C701 C699 1.390 . S
C701 C702 1.387 . S
C701 H704 0.950 . S
C702 C701 1.387 . S
C702 C705 1.387 . S
H703 C699 0.950 . S
H704 C701 0.950 . S
C705 C696 1.390 . S
C705 H698 0.950 . S
C705 C702 1.387 . S
C706 C707 1.387 . S
C706 H710 0.950 . S
C706 C715 1.390 . S
C707 C706 1.387 . S
C707 C709 1.387 . S
H708 C715 0.950 . S
C709 C707 1.387 . S
C709 C711 1.390 . S
C709 H713 0.950 . S
H710 C706 0.950 . S
C711 C709 1.390 . S
C711 C712 1.387 . S
C711 H714 0.950 . S
C712 C711 1.387 . S
C712 C715 1.387 . S
H713 C709 0.950 . S
H714 C711 0.950 . S
C715 C706 1.390 . S
C715 H708 0.950 . S
C715 C712 1.387 . S
C716 C717 1.387 . S
C716 H720 0.950 . S
C716 C725 1.390 . S
C717 C716 1.387 . S
C717 C719 1.387 . S
H718 C725 0.950 . S
C719 C717 1.387 . S
C719 C721 1.390 . S
C719 H723 0.950 . S
H720 C716 0.950 . S
C721 C719 1.390 . S
C721 C722 1.387 . S
C721 H724 0.950 . S
C722 C721 1.387 . S
C722 C725 1.387 . S
H723 C719 0.950 . S
H724 C721 0.950 . S
C725 C716 1.390 . S
C725 H718 0.950 . S
C725 C722 1.387 . S
C726 C727 1.387 . S
C726 H730 0.950 . S
C726 C735 1.390 1_655 S
C727 C726 1.387 . S
C727 C729 1.387 . S
H728 C735 0.950 . S
C729 C727 1.387 . S
C729 C731 1.390 1_655 S
C729 H733 0.950 . S
H730 C726 0.950 . S
C731 C729 1.390 1_455 S
C731 C732 1.387 . S
C731 H734 0.950 . S
C732 C731 1.387 . S
C732 C735 1.387 . S
H733 C729 0.950 . S
H734 C731 0.950 . S
C735 C726 1.390 1_455 S
C735 H728 0.950 . S
C735 C732 1.387 . S
C736 C737 1.387 . S
C736 H740 0.950 . S
C736 C745 1.390 . S
C737 C736 1.387 . S
C737 C739 1.387 . S
H738 C745 0.950 . S
C739 C737 1.387 . S
C739 C741 1.390 . S
C739 H743 0.950 . S
H740 C736 0.950 . S
C741 C739 1.390 . S
C741 C742 1.387 . S
C741 H744 0.950 . S
C742 C741 1.387 . S
C742 C745 1.387 . S
H743 C739 0.950 . S
H744 C741 0.950 . S
C745 C736 1.390 . S
C745 H738 0.950 . S
C745 C742 1.387 . S
C746 C747 1.387 . S
C746 H750 0.950 . S
C746 C755 1.390 . S
C747 C746 1.387 . S
C747 C749 1.387 . S
H748 C755 0.950 . S
C749 C747 1.387 . S
C749 C751 1.390 . S
C749 H753 0.950 . S
H750 C746 0.950 . S
C751 C749 1.390 . S
C751 C752 1.387 . S
C751 H754 0.950 . S
C752 C751 1.387 . S
C752 C755 1.387 . S
H753 C749 0.950 . S
H754 C751 0.950 . S
C755 C746 1.390 . S
C755 H748 0.950 . S
C755 C752 1.387 . S
C756 C757 1.387 . S
C756 H760 0.950 . S
C756 C765 1.390 . S
C757 C756 1.387 . S
C757 C759 1.387 . S
H758 C765 0.950 . S
C759 C757 1.387 . S
C759 C761 1.390 . S
C759 H763 0.950 . S
H760 C756 0.950 . S
C761 C759 1.390 . S
C761 C762 1.387 . S
C761 H764 0.950 . S
C762 C761 1.387 . S
C762 C765 1.387 . S
H763 C759 0.950 . S
H764 C761 0.950 . S
C765 C756 1.390 . S
C765 H758 0.950 . S
C765 C762 1.387 . S
C766 C767 1.387 . S
C766 H770 0.950 . S
C766 C775 1.390 1_655 S
C767 C766 1.387 . S
C767 C769 1.387 . S
H768 C775 0.950 . S
C769 C767 1.387 . S
C769 C771 1.390 1_655 S
C769 H773 0.950 . S
H770 C766 0.950 . S
C771 C769 1.390 1_455 S
C771 C772 1.387 . S
C771 H774 0.950 . S
C772 C771 1.387 . S
C772 C775 1.387 . S
H773 C769 0.950 . S
H774 C771 0.950 . S
C775 C766 1.390 1_455 S
C775 H768 0.950 . S
C775 C772 1.387 . S
C776 C777 1.387 . S
C776 H780 0.950 . S
C776 C785 1.390 . S
C777 C776 1.387 . S
C777 C779 1.387 . S
H778 C785 0.950 . S
C779 C777 1.387 . S
C779 C781 1.390 . S
C779 H783 0.950 . S
H780 C776 0.950 . S
C781 C779 1.390 . S
C781 C782 1.387 . S
C781 H784 0.950 . S
C782 C781 1.387 . S
C782 C785 1.387 . S
H783 C779 0.950 . S
H784 C781 0.950 . S
C785 C776 1.390 . S
C785 H778 0.950 . S
C785 C782 1.387 . S
C786 C787 1.387 . S
C786 H790 0.950 . S
C786 C795 1.390 1_455 S
C787 C786 1.387 . S
C787 C789 1.387 . S
H788 C795 0.950 . S
C789 C787 1.387 . S
C789 C791 1.390 1_455 S
C789 H793 0.950 . S
H790 C786 0.950 . S
C791 C789 1.390 1_655 S
C791 C792 1.387 . S
C791 H794 0.950 . S
C792 C791 1.387 . S
C792 C795 1.387 . S
H793 C789 0.950 . S
H794 C791 0.950 . S
C795 C786 1.390 1_655 S
C795 H788 0.950 . S
C795 C792 1.387 . S
C796 C797 1.387 . S
C796 H800 0.950 . S
C796 C805 1.390 . S
C797 C796 1.387 . S
C797 C799 1.387 . S
H798 C805 0.950 . S
C799 C797 1.387 . S
C799 C801 1.390 . S
C799 H803 0.950 . S
H800 C796 0.950 . S
C801 C799 1.390 . S
C801 C802 1.387 . S
C801 H804 0.950 . S
C802 C801 1.387 . S
C802 C805 1.387 . S
H803 C799 0.950 . S
H804 C801 0.950 . S
C805 C796 1.390 . S
C805 H798 0.950 . S
C805 C802 1.387 . S
C806 C807 1.387 . S
C806 H810 0.950 . S
C806 C815 1.390 . S
C807 C806 1.387 . S
C807 C809 1.387 . S
H808 C815 0.950 . S
C809 C807 1.387 . S
C809 C811 1.390 . S
C809 H813 0.950 . S
H810 C806 0.950 . S
C811 C809 1.390 . S
C811 C812 1.387 . S
C811 H814 0.950 . S
C812 C811 1.387 . S
C812 C815 1.387 . S
H813 C809 0.950 . S
H814 C811 0.950 . S
C815 C806 1.390 . S
C815 H808 0.950 . S
C815 C812 1.387 . S
C816 C817 1.387 . S
C816 H820 0.950 . S
C816 C825 1.390 . S
C817 C816 1.387 . S
C817 C819 1.387 . S
H818 C825 0.950 . S
C819 C817 1.387 . S
C819 C821 1.390 . S
C819 H823 0.950 . S
H820 C816 0.950 . S
C821 C819 1.390 . S
C821 C822 1.387 . S
C821 H824 0.950 . S
C822 C821 1.387 . S
C822 C825 1.387 . S
H823 C819 0.950 . S
H824 C821 0.950 . S
C825 C816 1.390 . S
C825 H818 0.950 . S
C825 C822 1.387 . S
C826 C827 1.387 . S
C826 H830 0.950 . S
C826 C835 1.390 . S
C827 C826 1.387 . S
C827 C829 1.387 . S
H828 C835 0.950 . S
C829 C827 1.387 . S
C829 C831 1.390 . S
C829 H833 0.950 . S
H830 C826 0.950 . S
C831 C829 1.390 . S
C831 C832 1.387 . S
C831 H834 0.950 . S
C832 C831 1.387 . S
C832 C835 1.387 . S
H833 C829 0.950 . S
H834 C831 0.950 . S
C835 C826 1.390 . S
C835 H828 0.950 . S
C835 C832 1.387 . S
C836 C837 1.387 . S
C836 H840 0.950 . S
C836 C845 1.390 . S
C837 C836 1.387 . S
C837 C839 1.387 . S
H838 C845 0.950 . S
C839 C837 1.387 . S
C839 C841 1.390 . S
C839 H843 0.950 . S
H840 C836 0.950 . S
C841 C839 1.390 . S
C841 C842 1.387 . S
C841 H844 0.950 . S
C842 C841 1.387 . S
C842 C845 1.387 . S
H843 C839 0.950 . S
H844 C841 0.950 . S
C845 C836 1.390 . S
C845 H838 0.950 . S
C845 C842 1.387 . S
C846 C847 1.387 . S
C846 H850 0.950 . S
C846 C855 1.390 1_455 S
C847 C846 1.387 . S
C847 C849 1.387 . S
H848 C855 0.950 . S
C849 C847 1.387 . S
C849 C851 1.390 1_455 S
C849 H853 0.950 . S
H850 C846 0.950 . S
C851 C849 1.390 1_655 S
C851 C852 1.387 . S
C851 H854 0.950 . S
C852 C851 1.387 . S
C852 C855 1.387 . S
H853 C849 0.950 . S
H854 C851 0.950 . S
C855 C846 1.390 1_655 S
C855 H848 0.950 . S
C855 C852 1.387 . S
C856 C857 1.387 . S
C856 H860 0.950 . S
C856 C865 1.390 . S
C857 C856 1.387 . S
C857 C859 1.387 . S
H858 C865 0.950 . S
C859 C857 1.387 . S
C859 C861 1.390 . S
C859 H863 0.950 . S
H860 C856 0.950 . S
C861 C859 1.390 . S
C861 C862 1.387 . S
C861 H864 0.950 . S
C862 C861 1.387 . S
C862 C865 1.387 . S
H863 C859 0.950 . S
H864 C861 0.950 . S
C865 C856 1.390 . S
C865 H858 0.950 . S
C865 C862 1.387 . S
C866 C867 1.387 . S
C866 H870 0.950 . S
C866 C875 1.390 1_655 S
C867 C866 1.387 . S
C867 C869 1.387 . S
H868 C875 0.950 . S
C869 C867 1.387 . S
C869 C871 1.390 1_655 S
C869 H873 0.950 . S
H870 C866 0.950 . S
C871 C869 1.390 1_455 S
C871 C872 1.387 . S
C871 H874 0.950 . S
C872 C871 1.387 . S
C872 C875 1.387 . S
H873 C869 0.950 . S
H874 C871 0.950 . S
C875 C866 1.390 1_455 S
C875 H868 0.950 . S
C875 C872 1.387 . S
C876 C877 1.387 . S
C876 H880 0.950 . S
C876 C885 1.390 . S
C877 C876 1.387 . S
C877 C879 1.387 . S
H878 C885 0.950 . S
C879 C877 1.387 . S
C879 C881 1.390 . S
C879 H883 0.950 . S
H880 C876 0.950 . S
C881 C879 1.390 . S
C881 C882 1.387 . S
C881 H884 0.950 . S
C882 C881 1.387 . S
C882 C885 1.387 . S
H883 C879 0.950 . S
H884 C881 0.950 . S
C885 C876 1.390 . S
C885 H878 0.950 . S
C885 C882 1.387 . S
C886 C887 1.387 . S
C886 H890 0.950 . S
C886 C895 1.390 . S
C887 C886 1.387 . S
C887 C889 1.387 . S
H888 C895 0.950 . S
C889 C887 1.387 . S
C889 C891 1.390 . S
C889 H893 0.950 . S
H890 C886 0.950 . S
C891 C889 1.390 . S
C891 C892 1.387 . S
C891 H894 0.950 . S
C892 C891 1.387 . S
C892 C895 1.387 . S
H893 C889 0.950 . S
H894 C891 0.950 . S
C895 C886 1.390 . S
C895 H888 0.950 . S
C895 C892 1.387 . S
C896 C897 1.387 . S
C896 H900 0.950 . S
C896 C905 1.390 . S
C897 C896 1.387 . S
C897 C899 1.387 . S
H898 C905 0.950 . S
C899 C897 1.387 . S
C899 C901 1.390 . S
C899 H903 0.950 . S
H900 C896 0.950 . S
C901 C899 1.390 . S
C901 C902 1.387 . S
C901 H904 0.950 . S
C902 C901 1.387 . S
C902 C905 1.387 . S
H903 C899 0.950 . S
H904 C901 0.950 . S
C905 C896 1.390 . S
C905 H898 0.950 . S
C905 C902 1.387 . S
C906 C907 1.387 . S
C906 H910 0.950 . S
C906 C915 1.390 . S
C907 C906 1.387 . S
C907 C909 1.387 . S
H908 C915 0.950 . S
C909 C907 1.387 . S
C909 C911 1.390 . S
C909 H913 0.950 . S
H910 C906 0.950 . S
C911 C909 1.390 . S
C911 C912 1.387 . S
C911 H914 0.950 . S
C912 C911 1.387 . S
C912 C915 1.387 . S
H913 C909 0.950 . S
H914 C911 0.950 . S
C915 C906 1.390 . S
C915 H908 0.950 . S
C915 C912 1.387 . S
C916 C917 1.387 . S
C916 H920 0.950 . S
C916 C925 1.390 . S
C917 C916 1.387 . S
C917 C919 1.387 . S
H918 C925 0.950 . S
C919 C917 1.387 . S
C919 C921 1.390 . S
C919 H923 0.950 . S
H920 C916 0.950 . S
C921 C919 1.390 . S
C921 C922 1.387 . S
C921 H924 0.950 . S
C922 C921 1.387 . S
C922 C925 1.387 . S
H923 C919 0.950 . S
H924 C921 0.950 . S
C925 C916 1.390 . S
C925 H918 0.950 . S
C925 C922 1.387 . S
C926 C927 1.387 . S
C926 H930 0.950 . S
C926 C935 1.390 . S
C927 C926 1.387 . S
C927 C929 1.387 . S
H928 C935 0.950 . S
C929 C927 1.387 . S
C929 C931 1.390 . S
C929 H933 0.950 . S
H930 C926 0.950 . S
C931 C929 1.390 . S
C931 C932 1.387 . S
C931 H934 0.950 . S
C932 C931 1.387 . S
C932 C935 1.387 . S
H933 C929 0.950 . S
H934 C931 0.950 . S
C935 C926 1.390 . S
C935 H928 0.950 . S
C935 C932 1.387 . S
C936 C937 1.387 . S
C936 H940 0.950 . S
C936 C945 1.390 . S
C937 C936 1.387 . S
C937 C939 1.387 . S
H938 C945 0.950 . S
C939 C937 1.387 . S
C939 C941 1.390 . S
C939 H943 0.950 . S
H940 C936 0.950 . S
C941 C939 1.390 . S
C941 C942 1.387 . S
C941 H944 0.950 . S
C942 C941 1.387 . S
C942 C945 1.387 . S
H943 C939 0.950 . S
H944 C941 0.950 . S
C945 C936 1.390 . S
C945 H938 0.950 . S
C945 C942 1.387 . S
C946 C947 1.387 . S
C946 H950 0.950 . S
C946 C955 1.390 . S
C947 C946 1.387 . S
C947 C949 1.387 . S
H948 C955 0.950 . S
C949 C947 1.387 . S
C949 C951 1.390 . S
C949 H953 0.950 . S
H950 C946 0.950 . S
C951 C949 1.390 . S
C951 C952 1.387 . S
C951 H954 0.950 . S
C952 C951 1.387 . S
C952 C955 1.387 . S
H953 C949 0.950 . S
H954 C951 0.950 . S
C955 C946 1.390 . S
C955 H948 0.950 . S
C955 C952 1.387 . S
C956 C957 1.387 . S
C956 H960 0.950 . S
C956 C965 1.390 . S
C957 C956 1.387 . S
C957 C959 1.387 . S
H958 C965 0.950 . S
C959 C957 1.387 . S
C959 C961 1.390 . S
C959 H963 0.950 . S
H960 C956 0.950 . S
C961 C959 1.390 . S
C961 C962 1.387 . S
C961 H964 0.950 . S
C962 C961 1.387 . S
C962 C965 1.387 . S
H963 C959 0.950 . S
H964 C961 0.950 . S
C965 C956 1.390 . S
C965 H958 0.950 . S
C965 C962 1.387 . S
C966 C967 1.387 . S
C966 H970 0.950 . S
C966 C975 1.390 . S
C967 C966 1.387 . S
C967 C969 1.387 . S
H968 C975 0.950 . S
C969 C967 1.387 . S
C969 C971 1.390 . S
C969 H973 0.950 . S
H970 C966 0.950 . S
C971 C969 1.390 . S
C971 C972 1.387 . S
C971 H974 0.950 . S
C972 C971 1.387 . S
C972 C975 1.387 . S
H973 C969 0.950 . S
H974 C971 0.950 . S
C975 C966 1.390 . S
C975 H968 0.950 . S
C975 C972 1.387 . S
C976 C977 1.387 . S
C976 H980 0.950 . S
C976 C985 1.390 . S
C977 C976 1.387 . S
C977 C979 1.387 . S
H978 C985 0.950 . S
C979 C977 1.387 . S
C979 C981 1.390 . S
C979 H983 0.950 . S
H980 C976 0.950 . S
C981 C979 1.390 . S
C981 C982 1.387 . S
C981 H984 0.950 . S
C982 C981 1.387 . S
C982 C985 1.387 . S
H983 C979 0.950 . S
H984 C981 0.950 . S
C985 C976 1.390 . S
C985 H978 0.950 . S
C985 C982 1.387 . S
C986 C987 1.387 . S
C986 H990 0.950 . S
C986 C995 1.390 . S
C987 C986 1.387 . S
C987 C989 1.387 . S
H988 C995 0.950 . S
C989 C987 1.387 . S
C989 C991 1.390 . S
C989 H993 0.950 . S
H990 C986 0.950 . S
C991 C989 1.390 . S
C991 C992 1.387 . S
C991 H994 0.950 . S
C992 C991 1.387 . S
C992 C995 1.387 . S
H993 C989 0.950 . S
H994 C991 0.950 . S
C995 C986 1.390 . S
C995 H988 0.950 . S
C995 C992 1.387 . S
C996 C997 1.387 . S
C996 H1000 0.950 . S
C996 C1005 1.390 . S
C997 C996 1.387 . S
C997 C999 1.387 . S
H998 C1005 0.950 . S
C999 C997 1.387 . S
C999 C1001 1.390 . S
C999 H1003 0.950 . S
H1000 C996 0.950 . S
C1001 C999 1.390 . S
C1001 C1002 1.387 . S
C1001 H1004 0.950 . S
C1002 C1001 1.387 . S
C1002 C1005 1.387 . S
H1003 C999 0.950 . S
H1004 C1001 0.950 . S
C1005 C996 1.390 . S
C1005 H998 0.950 . S
C1005 C1002 1.387 . S
C1006 C1007 1.387 . S
C1006 H1010 0.950 . S
C1006 C1015 1.390 . S
C1007 C1006 1.387 . S
C1007 C1009 1.387 . S
H1008 C1015 0.950 . S
C1009 C1007 1.387 . S
C1009 C1011 1.390 . S
C1009 H1013 0.950 . S
H1010 C1006 0.950 . S
C1011 C1009 1.390 . S
C1011 C1012 1.387 . S
C1011 H1014 0.950 . S
C1012 C1011 1.387 . S
C1012 C1015 1.387 . S
H1013 C1009 0.950 . S
H1014 C1011 0.950 . S
C1015 C1006 1.390 . S
C1015 H1008 0.950 . S
C1015 C1012 1.387 . S
C1016 C1017 1.387 . S
C1016 H1020 0.950 . S
C1016 C1025 1.390 . S
C1017 C1016 1.387 . S
C1017 C1019 1.387 . S
H1018 C1025 0.950 . S
C1019 C1017 1.387 . S
C1019 C1021 1.390 . S
C1019 H1023 0.950 . S
H1020 C1016 0.950 . S
C1021 C1019 1.390 . S
C1021 C1022 1.387 . S
C1021 H1024 0.950 . S
C1022 C1021 1.387 . S
C1022 C1025 1.387 . S
H1023 C1019 0.950 . S
H1024 C1021 0.950 . S
C1025 C1016 1.390 . S
C1025 H1018 0.950 . S
C1025 C1022 1.387 . S
C1026 C1027 1.387 . S
C1026 H1030 0.950 . S
C1026 C1035 1.390 . S
C1027 C1026 1.387 . S
C1027 C1029 1.387 . S
H1028 C1035 0.950 . S
C1029 C1027 1.387 . S
C1029 C1031 1.390 . S
C1029 H1033 0.950 . S
H1030 C1026 0.950 . S
C1031 C1029 1.390 . S
C1031 C1032 1.387 . S
C1031 H1034 0.950 . S
C1032 C1031 1.387 . S
C1032 C1035 1.387 . S
H1033 C1029 0.950 . S
H1034 C1031 0.950 . S
C1035 C1026 1.390 . S
C1035 H1028 0.950 . S
C1035 C1032 1.387 . S
C1036 C1037 1.387 . S
C1036 H1040 0.950 . S
C1036 C1045 1.390 . S
C1037 C1036 1.387 . S
C1037 C1039 1.387 . S
H1038 C1045 0.950 . S
C1039 C1037 1.387 . S
C1039 C1041 1.390 . S
C1039 H1043 0.950 . S
H1040 C1036 0.950 . S
C1041 C1039 1.390 . S
C1041 C1042 1.387 . S
C1041 H1044 0.950 . S
C1042 C1041 1.387 . S
C1042 C1045 1.387 . S
H1043 C1039 0.950 . S
H1044 C1041 0.950 . S
C1045 C1036 1.390 . S
C1045 H1038 0.950 . S
C1045 C1042 1.387 . S
C1046 C1047 1.387 . S
C1046 H1050 0.950 . S
C1046 C1055 1.390 . S
C1047 C1046 1.387 . S
C1047 C1049 1.387 . S
H1048 C1055 0.950 . S
C1049 C1047 1.387 . S
C1049 C1051 1.390 . S
C1049 H1053 0.950 . S
H1050 C1046 0.950 . S
C1051 C1049 1.390 . S
C1051 C1052 1.387 . S
C1051 H1054 0.950 . S
C1052 C1051 1.387 . S
C1052 C1055 1.387 . S
H1053 C1049 0.950 . S
H1054 C1051 0.950 . S
C1055 C1046 1.390 . S
C1055 H1048 0.950 . S
C1055 C1052 1.387 . S
C417 C0 1.409 . S
C422 C52 1.409 . S
C427 C13 1.409 . S
C432 C65 1.409 . S
C437 C78 1.409 . S
C442 C26 1.409 . S
C447 C91 1.410 . S
C452 C39 1.410 . S
C457 C104 1.409 . S
C462 C156 1.409 . S
C467 C117 1.410 . S
C472 C169 1.410 . S
C477 C182 1.410 . S
C482 C130 1.410 . S
C487 C143 1.410 . S
C492 C195 1.410 . S
C497 C260 1.409 . S
C502 C208 1.409 . S
C507 C273 1.409 . S
C512 C221 1.409 . S
C517 C234 1.409 . S
C522 C286 1.409 . S
C527 C299 1.409 . S
C532 C247 1.409 . S
C537 C312 1.409 . S
C542 C364 1.409 . S
C547 C377 1.409 . S
C552 C325 1.409 . S
C557 C390 1.409 . S
C562 C338 1.409 . S
C567 C351 1.410 . S
C572 C403 1.410 . S
C577 C5 1.419 . S
C582 C359 1.501 . S
C587 C112 1.502 . S
C592 C18 1.418 . S
C597 C31 1.416 . S
C602 C333 1.502 . S
C607 C44 1.418 . S
C612 C138 1.501 . S
C617 C385 1.501 . S
C622 C57 1.418 . S
C627 C190 1.502 . S
C632 C70 1.416 . S
C637 C83 1.415 . S
C642 C411 1.502 . S
C647 C96 1.417 . S
C652 C164 1.502 . S
C657 C255 1.502 . S
C662 C109 1.416 . S
C667 C122 1.418 . S
C672 C8 1.502 . S
C677 C229 1.502 . S
C682 C135 1.416 . S
C687 C148 1.418 . S
C692 C34 1.501 . S
C697 C281 1.501 . S
C702 C161 1.418 . S
C707 C174 1.417 . S
C712 C86 1.502 . S
C717 C307 1.501 . S
C722 C187 1.418 . S
C727 C200 1.418 . S
C732 C60 1.501 . S
C737 C151 1.502 . S
C742 C213 1.417 . S
C747 C320 1.502 . S
C752 C226 1.417 . S
C757 C125 1.502 . S
C762 C239 1.416 . S
C767 C252 1.417 . S
C772 C346 1.501 . S
C777 C177 1.501 . S
C782 C265 1.418 . S
C787 C398 1.501 . S
C792 C278 1.418 . S
C797 C203 1.501 . S
C802 C291 1.419 . S
C807 C304 1.418 . S
C812 C372 1.502 . S
C817 C317 1.416 . S
C822 C47 1.502 . S
C827 C330 1.417 . S
C832 C216 1.501 . S
C837 C343 1.417 . S
C842 C21 1.502 . S
C847 C356 1.418 . S
C852 C242 1.502 . S
C857 C369 1.416 . S
C862 C73 1.502 . S
C867 C294 1.502 . S
C872 C382 1.416 . S
C877 C99 1.501 . S
C882 C395 1.418 . S
C887 C408 1.417 . S
C892 C268 1.502 . S
C897 C10 1.276 . S
C902 C101 1.279 . S
C907 C23 1.279 . S
C912 C62 1.276 . S
C917 C36 1.278 . S
C922 C75 1.276 . S
C927 C88 1.279 . S
C932 C49 1.276 . S
C937 C205 1.278 . S
C942 C114 1.277 . S
C947 C166 1.279 . S
C952 C127 1.277 . S
C957 C179 1.278 . S
C962 C140 1.279 . S
C967 C192 1.279 . S
C972 C153 1.276 . S
C977 C218 1.279 . S
C982 C309 1.278 . S
C987 C270 1.276 . S
C992 C231 1.279 . S
C997 C283 1.278 . S
C1002 C244 1.279 . S
C1007 C296 1.277 . S
C1012 C257 1.277 . S
C1017 C413 1.278 . S
C1022 C322 1.276 . S
C1027 C335 1.277 . S
C1032 C374 1.279 . S
C1037 C348 1.276 . S
C1042 C387 1.278 . S
C1047 C361 1.277 . S
C1052 C400 1.279 . S
