# Generated by pormake.
# Topology vbb, (4)-cn, num edge types: 1
# Building blocks:
#     Node 0, Type 0, BuildingBlock: ESEHIV_clean_sbu_0, # of connection points: 4
#     Node 1, Type 0, BuildingBlock: ESEHIV_clean_sbu_0, # of connection points: 4
#     Node 2, Type 0, BuildingBlock: ESEHIV_clean_sbu_0, # of connection points: 4
#     Node 3, Type 0, BuildingBlock: ESEHIV_clean_sbu_0, # of connection points: 4
#     Node 4, Type 0, BuildingBlock: ESEHIV_clean_sbu_0, # of connection points: 4
#     Node 5, Type 0, BuildingBlock: ESEHIV_clean_sbu_0, # of connection points: 4
#     Node 6, Type 0, BuildingBlock: ESEHIV_clean_sbu_0, # of connection points: 4
#     Node 7, Type 0, BuildingBlock: ESEHIV_clean_sbu_0, # of connection points: 4
#     Node 8, Type 0, BuildingBlock: ESEHIV_clean_sbu_0, # of connection points: 4
#     Node 9, Type 0, BuildingBlock: ESEHIV_clean_sbu_0, # of connection points: 4
#     Node 10, Type 0, BuildingBlock: ESEHIV_clean_sbu_0, # of connection points: 4
#     Node 11, Type 0, BuildingBlock: ESEHIV_clean_sbu_0, # of connection points: 4
#     Node 12, Type 0, BuildingBlock: ESEHIV_clean_sbu_0, # of connection points: 4
#     Node 13, Type 0, BuildingBlock: ESEHIV_clean_sbu_0, # of connection points: 4
#     Node 14, Type 0, BuildingBlock: ESEHIV_clean_sbu_0, # of connection points: 4
#     Node 15, Type 0, BuildingBlock: ESEHIV_clean_sbu_0, # of connection points: 4
#     Node 16, Type 0, BuildingBlock: ESEHIV_clean_sbu_0, # of connection points: 4
#     Node 17, Type 0, BuildingBlock: ESEHIV_clean_sbu_0, # of connection points: 4
#     Node 18, Type 0, BuildingBlock: ESEHIV_clean_sbu_0, # of connection points: 4
#     Node 19, Type 0, BuildingBlock: ESEHIV_clean_sbu_0, # of connection points: 4
#     Node 20, Type 0, BuildingBlock: ESEHIV_clean_sbu_0, # of connection points: 4
#     Node 21, Type 0, BuildingBlock: ESEHIV_clean_sbu_0, # of connection points: 4
#     Node 22, Type 0, BuildingBlock: ESEHIV_clean_sbu_0, # of connection points: 4
#     Node 23, Type 0, BuildingBlock: ESEHIV_clean_sbu_0, # of connection points: 4
#     Node 24, Type 0, BuildingBlock: ESEHIV_clean_sbu_0, # of connection points: 4
#     Node 25, Type 0, BuildingBlock: ESEHIV_clean_sbu_0, # of connection points: 4
#     Node 26, Type 0, BuildingBlock: ESEHIV_clean_sbu_0, # of connection points: 4
#     Node 27, Type 0, BuildingBlock: ESEHIV_clean_sbu_0, # of connection points: 4
#     Node 28, Type 0, BuildingBlock: ESEHIV_clean_sbu_0, # of connection points: 4
#     Node 29, Type 0, BuildingBlock: ESEHIV_clean_sbu_0, # of connection points: 4
#     Node 30, Type 0, BuildingBlock: ESEHIV_clean_sbu_0, # of connection points: 4
#     Node 31, Type 0, BuildingBlock: ESEHIV_clean_sbu_0, # of connection points: 4
#     Edge 32, Type (0, 0), BuildingBlock: KIFKEQ_clean_linker_1, # of connection points: 2
#     Edge 33, Type (0, 0), BuildingBlock: KIFKEQ_clean_linker_1, # of connection points: 2
#     Edge 34, Type (0, 0), BuildingBlock: KIFKEQ_clean_linker_1, # of connection points: 2
#     Edge 35, Type (0, 0), BuildingBlock: KIFKEQ_clean_linker_1, # of connection points: 2
#     Edge 36, Type (0, 0), BuildingBlock: KIFKEQ_clean_linker_1, # of connection points: 2
#     Edge 37, Type (0, 0), BuildingBlock: KIFKEQ_clean_linker_1, # of connection points: 2
#     Edge 38, Type (0, 0), BuildingBlock: KIFKEQ_clean_linker_1, # of connection points: 2
#     Edge 39, Type (0, 0), BuildingBlock: KIFKEQ_clean_linker_1, # of connection points: 2
#     Edge 40, Type (0, 0), BuildingBlock: KIFKEQ_clean_linker_1, # of connection points: 2
#     Edge 41, Type (0, 0), BuildingBlock: KIFKEQ_clean_linker_1, # of connection points: 2
#     Edge 42, Type (0, 0), BuildingBlock: KIFKEQ_clean_linker_1, # of connection points: 2
#     Edge 43, Type (0, 0), BuildingBlock: KIFKEQ_clean_linker_1, # of connection points: 2
#     Edge 44, Type (0, 0), BuildingBlock: KIFKEQ_clean_linker_1, # of connection points: 2
#     Edge 45, Type (0, 0), BuildingBlock: KIFKEQ_clean_linker_1, # of connection points: 2
#     Edge 46, Type (0, 0), BuildingBlock: KIFKEQ_clean_linker_1, # of connection points: 2
#     Edge 47, Type (0, 0), BuildingBlock: KIFKEQ_clean_linker_1, # of connection points: 2
#     Edge 48, Type (0, 0), BuildingBlock: KIFKEQ_clean_linker_1, # of connection points: 2
#     Edge 49, Type (0, 0), BuildingBlock: KIFKEQ_clean_linker_1, # of connection points: 2
#     Edge 50, Type (0, 0), BuildingBlock: KIFKEQ_clean_linker_1, # of connection points: 2
#     Edge 51, Type (0, 0), BuildingBlock: KIFKEQ_clean_linker_1, # of connection points: 2
#     Edge 52, Type (0, 0), BuildingBlock: KIFKEQ_clean_linker_1, # of connection points: 2
#     Edge 53, Type (0, 0), BuildingBlock: KIFKEQ_clean_linker_1, # of connection points: 2
#     Edge 54, Type (0, 0), BuildingBlock: KIFKEQ_clean_linker_1, # of connection points: 2
#     Edge 55, Type (0, 0), BuildingBlock: KIFKEQ_clean_linker_1, # of connection points: 2
#     Edge 56, Type (0, 0), BuildingBlock: KIFKEQ_clean_linker_1, # of connection points: 2
#     Edge 57, Type (0, 0), BuildingBlock: KIFKEQ_clean_linker_1, # of connection points: 2
#     Edge 58, Type (0, 0), BuildingBlock: KIFKEQ_clean_linker_1, # of connection points: 2
#     Edge 59, Type (0, 0), BuildingBlock: KIFKEQ_clean_linker_1, # of connection points: 2
#     Edge 60, Type (0, 0), BuildingBlock: KIFKEQ_clean_linker_1, # of connection points: 2
#     Edge 61, Type (0, 0), BuildingBlock: KIFKEQ_clean_linker_1, # of connection points: 2
#     Edge 62, Type (0, 0), BuildingBlock: KIFKEQ_clean_linker_1, # of connection points: 2
#     Edge 63, Type (0, 0), BuildingBlock: KIFKEQ_clean_linker_1, # of connection points: 2
#     Edge 64, Type (0, 0), BuildingBlock: KIFKEQ_clean_linker_1, # of connection points: 2
#     Edge 65, Type (0, 0), BuildingBlock: KIFKEQ_clean_linker_1, # of connection points: 2
#     Edge 66, Type (0, 0), BuildingBlock: KIFKEQ_clean_linker_1, # of connection points: 2
#     Edge 67, Type (0, 0), BuildingBlock: KIFKEQ_clean_linker_1, # of connection points: 2
#     Edge 68, Type (0, 0), BuildingBlock: KIFKEQ_clean_linker_1, # of connection points: 2
#     Edge 69, Type (0, 0), BuildingBlock: KIFKEQ_clean_linker_1, # of connection points: 2
#     Edge 70, Type (0, 0), BuildingBlock: KIFKEQ_clean_linker_1, # of connection points: 2
#     Edge 71, Type (0, 0), BuildingBlock: KIFKEQ_clean_linker_1, # of connection points: 2
#     Edge 72, Type (0, 0), BuildingBlock: KIFKEQ_clean_linker_1, # of connection points: 2
#     Edge 73, Type (0, 0), BuildingBlock: KIFKEQ_clean_linker_1, # of connection points: 2
#     Edge 74, Type (0, 0), BuildingBlock: KIFKEQ_clean_linker_1, # of connection points: 2
#     Edge 75, Type (0, 0), BuildingBlock: KIFKEQ_clean_linker_1, # of connection points: 2
#     Edge 76, Type (0, 0), BuildingBlock: KIFKEQ_clean_linker_1, # of connection points: 2
#     Edge 77, Type (0, 0), BuildingBlock: KIFKEQ_clean_linker_1, # of connection points: 2
#     Edge 78, Type (0, 0), BuildingBlock: KIFKEQ_clean_linker_1, # of connection points: 2
#     Edge 79, Type (0, 0), BuildingBlock: KIFKEQ_clean_linker_1, # of connection points: 2
#     Edge 80, Type (0, 0), BuildingBlock: KIFKEQ_clean_linker_1, # of connection points: 2
#     Edge 81, Type (0, 0), BuildingBlock: KIFKEQ_clean_linker_1, # of connection points: 2
#     Edge 82, Type (0, 0), BuildingBlock: KIFKEQ_clean_linker_1, # of connection points: 2
#     Edge 83, Type (0, 0), BuildingBlock: KIFKEQ_clean_linker_1, # of connection points: 2
#     Edge 84, Type (0, 0), BuildingBlock: KIFKEQ_clean_linker_1, # of connection points: 2
#     Edge 85, Type (0, 0), BuildingBlock: KIFKEQ_clean_linker_1, # of connection points: 2
#     Edge 86, Type (0, 0), BuildingBlock: KIFKEQ_clean_linker_1, # of connection points: 2
#     Edge 87, Type (0, 0), BuildingBlock: KIFKEQ_clean_linker_1, # of connection points: 2
#     Edge 88, Type (0, 0), BuildingBlock: KIFKEQ_clean_linker_1, # of connection points: 2
#     Edge 89, Type (0, 0), BuildingBlock: KIFKEQ_clean_linker_1, # of connection points: 2
#     Edge 90, Type (0, 0), BuildingBlock: KIFKEQ_clean_linker_1, # of connection points: 2
#     Edge 91, Type (0, 0), BuildingBlock: KIFKEQ_clean_linker_1, # of connection points: 2
#     Edge 92, Type (0, 0), BuildingBlock: KIFKEQ_clean_linker_1, # of connection points: 2
#     Edge 93, Type (0, 0), BuildingBlock: KIFKEQ_clean_linker_1, # of connection points: 2
#     Edge 94, Type (0, 0), BuildingBlock: KIFKEQ_clean_linker_1, # of connection points: 2
#     Edge 95, Type (0, 0), BuildingBlock: KIFKEQ_clean_linker_1, # of connection points: 2
# Relax obj value: 0.029
# Max RMSD: 0.075
# Mean RMSD: 0.075
data_MOF--net-vbb--node1-ESEHIV_clean_sbu_0--edge1-KIFKEQ_clean_linker_1
_symmetry_space_group_name_H-M    P1
_symmetry_Int_Tables_number       1
_symmetry_cell_setting            triclinic
loop_
_symmetry_equiv_pos_as_xyz
'x, y, z'
_cell_length_a     59.461856
_cell_length_b     36.032965
_cell_length_c     111.27107
_cell_angle_alpha  90.136683
_cell_angle_beta   89.90228
_cell_angle_gamma 89.995375
loop_
_atom_site_label
_atom_site_type_symbol
_atom_site_fract_x
_atom_site_fract_y
_atom_site_fract_z
_atom_type_partial_charge
Cu0 Cu 0.52481 0.0172 0.09139 0.0
N1 N 0.55583 0.01947 0.09428 0.0
N2 N 0.59007 0.04465 0.09654 0.0
C3 C 0.56803 0.05097 0.09441 0.0
C4 C 0.59178 1.00741 0.09767 0.0
C5 C 0.57069 0.992 0.09622 0.0
O6 O 0.51016 0.04982 0.10294 0.0
C7 C 0.5275 1.00154 0.06734 0.0
O8 O 0.53673 0.97198 0.07217 0.0
H9 H 0.5609 0.07792 0.09262 0.0
H10 H 0.56664 0.96278 0.0964 0.0
N11 N 0.51237 0.97078 0.09485 0.0
N12 N 0.48475 0.92923 0.09728 0.0
C13 C 0.49148 0.96041 0.0916 0.0
C14 C 0.51915 0.94533 0.10289 0.0
C15 C 0.50223 0.91953 0.10435 0.0
C16 C 0.51174 0.08474 0.10437 0.0
O17 O 0.52205 0.10484 0.09622 0.0
H18 H 0.48081 0.97713 0.08589 0.0
H19 H 0.53459 0.94676 0.10798 0.0
O20 O 0.52022 0.02704 0.07432 0.0
H21 H 0.6071 0.99222 0.09944 0.0
H22 H 0.50245 0.89639 0.11052 0.0
Cu23 Cu 0.78163 0.24918 0.09125 0.0
N24 N 0.75051 0.25216 0.09388 0.0
N25 N 0.71497 0.23253 0.09621 0.0
C26 C 0.73701 0.22396 0.09723 0.0
C27 C 0.71465 0.26794 0.09223 0.0
C28 C 0.73655 0.27986 0.09077 0.0
O29 O 0.7945 0.21373 0.1025 0.0
C30 C 0.77299 0.22288 0.06748 0.0
O31 O 0.7563 0.20466 0.07247 0.0
H32 H 0.74322 0.19679 0.09954 0.0
H33 H 0.74189 0.30616 0.08706 0.0
N34 N 0.79592 0.29395 0.09476 0.0
N35 N 0.82442 0.33391 0.09701 0.0
C36 C 0.818 0.30013 0.09301 0.0
C37 C 0.78794 0.32483 0.10007 0.0
C38 C 0.80548 0.34964 0.10142 0.0
C39 C 0.79059 0.17912 0.10327 0.0
O40 O 0.77872 0.16255 0.09488 0.0
H41 H 0.82912 0.27993 0.08892 0.0
H42 H 0.77076 0.32871 0.10302 0.0
O43 O 0.78684 0.24023 0.07416 0.0
H44 H 0.69974 0.28377 0.09008 0.0
H45 H 0.80446 0.37663 0.10567 0.0
Cu46 Cu 0.52198 0.24951 0.20197 0.0
N47 N 0.55212 0.24819 0.19729 0.0
N48 N 0.58636 0.22367 0.19479 0.0
C49 C 0.56695 0.22259 0.20108 0.0
C50 C 0.58374 0.25165 0.18685 0.0
C51 C 0.56252 0.26659 0.18837 0.0
O52 O 0.50609 0.2162 0.19114 0.0
C53 C 0.53268 0.25934 0.22569 0.0
O54 O 0.545 0.28492 0.22046 0.0
H55 H 0.56311 0.20256 0.20802 0.0
H56 H 0.5548 0.2879 0.18294 0.0
N57 N 0.50886 0.29593 0.19977 0.0
N58 N 0.48117 0.3377 0.1983 0.0
C59 C 0.48651 0.30143 0.19935 0.0
C60 C 0.51818 0.32982 0.19893 0.0
C61 C 0.50112 0.35569 0.19799 0.0
C62 C 0.51307 0.18394 0.18834 0.0
O63 O 0.5292 0.16878 0.19471 0.0
H64 H 0.47446 0.27899 0.19982 0.0
H65 H 0.53605 0.33537 0.19921 0.0
O66 O 0.52044 0.2385 0.21911 0.0
H67 H 0.59574 0.25935 0.17997 0.0
H68 H 0.50328 0.38546 0.19743 0.0
Cu69 Cu 0.78027 0.02321 0.20319 0.0
N70 N 0.74913 0.02003 0.20161 0.0
N71 N 0.71402 0.04179 0.20007 0.0
C72 C 0.73614 0.05011 0.19994 0.0
C73 C 0.71308 1.00472 0.20182 0.0
C74 C 0.73481 0.99137 0.20284 0.0
O75 O 0.78842 0.06273 0.19198 0.0
C76 C 0.78171 1.0046 0.22709 0.0
O77 O 0.77498 0.97339 0.22214 0.0
H78 H 0.74294 0.07773 0.1988 0.0
H79 H 0.73972 0.96308 0.20471 0.0
N80 N 0.79504 0.97936 0.19877 0.0
N81 N 0.82305 0.93855 0.19678 0.0
C82 C 0.81688 0.9722 0.20092 0.0
C83 C 0.78704 0.94897 0.19315 0.0
C84 C 0.80434 0.92357 0.19196 0.0
C85 C 0.8059 0.06397 0.18534 0.0
O86 O 0.82269 0.04129 0.18744 0.0
H87 H 0.82807 0.99138 0.20544 0.0
H88 H 0.76996 0.94563 0.19002 0.0
O89 O 0.78592 0.03217 0.22026 0.0
H90 H 0.69783 0.98859 0.20275 0.0
H91 H 0.80342 0.8967 0.18762 0.0
Cu92 Cu 0.53339 1.00284 0.95239 0.0
N93 N 0.50246 1.00097 0.94907 0.0
N94 N 0.46782 0.97695 0.94742 0.0
C95 C 0.48907 0.97162 0.95133 0.0
C96 C 0.46775 0.01145 0.94271 0.0
C97 C 0.4891 0.0262 0.94375 0.0
O98 O 0.54823 0.96866 0.94138 0.0
C99 C 0.52633 0.01686 0.9763 0.0
O100 O 0.51416 0.04281 0.97118 0.0
H101 H 0.49482 0.94691 0.95587 0.0
H102 H 0.49443 0.05328 0.94075 0.0
N103 N 0.5465 0.04844 0.94855 0.0
N104 N 0.57544 0.0875 0.94618 0.0
C105 C 0.56624 0.06058 0.95304 0.0
C106 C 0.54311 0.06844 0.93851 0.0
C107 C 0.56084 0.09268 0.93707 0.0
C108 C 0.5433 0.93495 0.93923 0.0
O109 O 0.52951 0.91727 0.94644 0.0
H110 H 0.57481 0.04721 0.96044 0.0
H111 H 0.52995 0.06325 0.93204 0.0
O112 O 0.53725 0.99444 0.96958 0.0
H113 H 0.45349 0.02482 0.93853 0.0
H114 H 0.56352 0.1109 0.92948 0.0
Cu115 Cu 0.27325 0.77549 0.95258 0.0
N116 N 0.30424 0.77338 0.94992 0.0
N117 N 0.33944 0.79501 0.9485 0.0
C118 C 0.31765 0.80338 0.9506 0.0
C119 C 0.33969 0.75806 0.94637 0.0
C120 C 0.31793 0.74476 0.94729 0.0
O121 O 0.26351 0.81704 0.94269 0.0
C122 C 0.27752 0.75473 0.97609 0.0
O123 O 0.28673 0.7265 0.97043 0.0
H124 H 0.31137 0.83097 0.95249 0.0
H125 H 0.31255 0.71627 0.94624 0.0
N126 N 0.2582 0.73261 0.94754 0.0
N127 N 0.22923 0.69386 0.94473 0.0
C128 C 0.23782 0.72167 0.95149 0.0
C129 C 0.26289 0.71071 0.93806 0.0
C130 C 0.24509 0.68672 0.93633 0.0
C131 C 0.24613 0.81698 0.93601 0.0
O132 O 0.23064 0.79149 0.9376 0.0
H133 H 0.22875 0.7359 0.95857 0.0
H134 H 0.2776 0.71339 0.93241 0.0
O135 O 0.26925 0.78107 0.96987 0.0
H136 H 0.35453 0.74165 0.9445 0.0
H137 H 0.24363 0.66654 0.92915 0.0
Cu138 Cu 0.53311 0.77079 0.84153 0.0
N139 N 0.50272 0.77092 0.84591 0.0
N140 N 0.468 0.79389 0.84828 0.0
C141 C 0.48758 0.79613 0.84215 0.0
C142 C 0.47088 0.76567 0.8561 0.0
C143 C 0.49236 0.75174 0.85467 0.0
O144 O 0.54826 0.80533 0.85225 0.0
C145 C 0.52613 0.75588 0.81772 0.0
O146 O 0.51632 0.72749 0.82295 0.0
H147 H 0.49127 0.81678 0.83538 0.0
H148 H 0.50027 0.73065 0.86012 0.0
N149 N 0.54732 0.72532 0.84422 0.0
N150 N 0.57599 0.68542 0.84605 0.0
C151 C 0.56979 0.72095 0.84407 0.0
C152 C 0.53881 0.69138 0.84635 0.0
C153 C 0.55646 0.66668 0.84748 0.0
C154 C 0.54075 0.83714 0.85519 0.0
O155 O 0.52407 0.85159 0.84905 0.0
H156 H 0.58131 0.74352 0.84228 0.0
H157 H 0.52108 0.68496 0.84693 0.0
O158 O 0.5351 0.78073 0.82434 0.0
H159 H 0.45886 0.75721 0.86288 0.0
H160 H 0.55496 0.6373 0.84929 0.0
Cu161 Cu 0.27293 0.99401 0.84122 0.0
N162 N 0.30303 0.99419 0.84622 0.0
N163 N 0.33788 0.97199 0.84875 0.0
C164 C 0.31895 0.97084 0.84207 0.0
C165 C 0.33383 0.99779 0.85731 0.0
C166 C 0.31227 0.01126 0.85577 0.0
O167 O 0.2575 0.95703 0.85095 0.0
C168 C 0.28502 1.00782 0.81779 0.0
O169 O 0.29809 0.03117 0.82358 0.0
H170 H 0.3162 0.95199 0.83463 0.0
H171 H 0.3035 0.0304 0.86163 0.0
N172 N 0.25814 0.03868 0.84434 0.0
N173 N 0.22916 0.07796 0.84619 0.0
C174 C 0.23565 0.04263 0.84404 0.0
C175 C 0.26635 0.07267 0.84675 0.0
C176 C 0.24848 0.09697 0.84794 0.0
C177 C 0.26644 0.92614 0.85372 0.0
O178 O 0.28446 0.9151 0.84788 0.0
H179 H 0.22429 0.0198 0.84229 0.0
H180 H 0.28403 0.07941 0.8474 0.0
O181 O 0.27206 0.98672 0.82386 0.0
H182 H 0.34504 1.00464 0.86464 0.0
H183 H 0.2497 0.12646 0.84968 0.0
Cu184 Cu 0.52056 0.52274 0.59073 0.0
N185 N 0.55157 0.51926 0.59306 0.0
N186 N 0.58678 0.54033 0.59482 0.0
C187 C 0.56474 0.54912 0.59485 0.0
C188 C 0.58754 0.50331 0.59295 0.0
C189 C 0.56575 0.49034 0.59189 0.0
O190 O 0.51166 0.56369 0.60127 0.0
C191 C 0.52271 0.50352 0.5669 0.0
O192 O 0.52989 0.47311 0.57213 0.0
H193 H 0.55824 0.57711 0.59554 0.0
H194 H 0.56072 0.46212 0.58996 0.0
N195 N 0.50539 0.47929 0.5951 0.0
N196 N 0.47709 0.43909 0.59726 0.0
C197 C 0.48363 0.47204 0.59273 0.0
C198 C 0.51297 0.44965 0.60123 0.0
C199 C 0.49552 0.42465 0.60252 0.0
C200 C 0.49479 0.56409 0.60836 0.0
O201 O 0.4791 0.53874 0.60724 0.0
H202 H 0.4727 0.4909 0.58793 0.0
H203 H 0.52984 0.44672 0.60471 0.0
O204 O 0.5164 0.53056 0.57352 0.0
H205 H 0.60272 0.48689 0.59219 0.0
H206 H 0.49609 0.39857 0.60732 0.0
Cu207 Cu 0.7784 0.75155 0.59357 0.0
N208 N 0.74719 0.75037 0.59636 0.0
N209 N 0.71243 0.72651 0.597 0.0
C210 C 0.73378 0.72188 0.59317 0.0
C211 C 0.71214 0.75991 0.60249 0.0
C212 C 0.73357 0.77461 0.60206 0.0
O213 O 0.79263 0.71596 0.60442 0.0
C214 C 0.7727 0.76777 0.56979 0.0
O215 O 0.76134 0.79441 0.57513 0.0
H216 H 0.73957 0.69811 0.5881 0.0
H217 H 0.7387 0.80091 0.60578 0.0
N218 N 0.79175 0.7969 0.59761 0.0
N219 N 0.8201 0.83729 0.59986 0.0
C220 C 0.81208 0.80793 0.59361 0.0
C221 C 0.78675 0.81997 0.60676 0.0
C222 C 0.80402 0.84511 0.60807 0.0
C223 C 0.78567 0.68328 0.60666 0.0
O224 O 0.7701 0.6685 0.59983 0.0
H225 H 0.82156 0.79267 0.58692 0.0
H226 H 0.77257 0.81702 0.61274 0.0
O227 O 0.78272 0.7439 0.57634 0.0
H228 H 0.6977 0.77226 0.60688 0.0
H229 H 0.80508 0.86625 0.61497 0.0
Cu230 Cu 0.52234 0.74927 0.70276 0.0
N231 N 0.55292 0.74877 0.69876 0.0
N232 N 0.58766 0.7254 0.69715 0.0
C233 C 0.56785 0.72409 0.70307 0.0
C234 C 0.58528 0.75268 0.68895 0.0
C235 C 0.56375 0.76691 0.68992 0.0
O236 O 0.50748 0.7137 0.69218 0.0
C237 C 0.53126 0.76165 0.72665 0.0
O238 O 0.54401 0.78684 0.72151 0.0
H239 H 0.56381 0.70423 0.71003 0.0
H240 H 0.55614 0.78742 0.68413 0.0
N241 N 0.50881 0.79501 0.6998 0.0
N242 N 0.48097 0.83633 0.6978 0.0
C243 C 0.48643 0.80025 0.6993 0.0
C244 C 0.518 0.82889 0.69858 0.0
C245 C 0.50085 0.85446 0.6973 0.0
C246 C 0.51604 0.68232 0.68956 0.0
O247 O 0.53324 0.67023 0.69581 0.0
H248 H 0.47444 0.77781 0.70009 0.0
H249 H 0.53583 0.8347 0.69888 0.0
O250 O 0.51963 0.74016 0.71997 0.0
H251 H 0.59764 0.7601 0.68222 0.0
H252 H 0.50292 0.88417 0.69644 0.0
Cu253 Cu 0.78131 0.52651 0.70549 0.0
N254 N 0.75015 0.52243 0.70429 0.0
N255 N 0.71461 0.54218 0.70291 0.0
C256 C 0.73646 0.55035 0.70099 0.0
C257 C 0.71456 0.50754 0.70754 0.0
C258 C 0.73655 0.49541 0.70837 0.0
O259 O 0.78919 0.5688 0.69542 0.0
C260 C 0.77616 0.54441 0.73037 0.0
O261 O 0.75877 0.56404 0.72685 0.0
H262 H 0.74254 0.57715 0.69805 0.0
H263 H 0.74229 0.4696 0.71225 0.0
N264 N 0.79574 0.48451 0.69941 0.0
N265 N 0.82402 0.4448 0.69597 0.0
C266 C 0.81583 0.47191 0.70318 0.0
C267 C 0.79074 0.46452 0.68957 0.0
C268 C 0.80811 0.43993 0.68743 0.0
C269 C 0.80637 0.5701 0.68856 0.0
O270 O 0.82259 0.54579 0.69 0.0
H271 H 0.82457 0.48369 0.7108 0.0
H272 H 0.77608 0.46885 0.684 0.0
O273 O 0.78892 0.52957 0.7225 0.0
H274 H 0.69978 0.49252 0.71046 0.0
H275 H 0.80938 0.42139 0.6798 0.0
Cu276 Cu 0.53139 0.49944 0.45218 0.0
N277 N 0.50041 0.50346 0.45005 0.0
N278 N 0.46508 0.48302 0.44806 0.0
C279 C 0.48703 0.4737 0.44863 0.0
C280 C 0.46467 0.52038 0.44922 0.0
C281 C 0.48655 0.53294 0.45044 0.0
O282 O 0.5397 0.45894 0.4415 0.0
C283 C 0.53247 0.51942 0.47609 0.0
O284 O 0.52732 0.55132 0.47111 0.0
H285 H 0.49335 0.44554 0.44846 0.0
H286 H 0.4919 0.56134 0.45175 0.0
N287 N 0.54692 0.54192 0.4473 0.0
N288 N 0.57554 0.58153 0.44481 0.0
C289 C 0.56797 0.55108 0.45062 0.0
C290 C 0.5408 0.56746 0.43915 0.0
C291 C 0.55838 0.59202 0.43762 0.0
C292 C 0.5586 0.45372 0.43638 0.0
O293 O 0.57631 0.47256 0.4399 0.0
H294 H 0.57762 0.5352 0.45704 0.0
H295 H 0.52496 0.56753 0.43439 0.0
O296 O 0.53604 0.49143 0.46931 0.0
H297 H 0.44969 0.53742 0.44925 0.0
H298 H 0.55877 0.61492 0.43135 0.0
Cu299 Cu 0.27256 0.27633 0.45302 0.0
N300 N 0.30349 0.27574 0.45026 0.0
N301 N 0.3381 0.29907 0.44795 0.0
C302 C 0.31621 0.3066 0.45008 0.0
C303 C 0.33914 0.26176 0.44678 0.0
C304 C 0.31772 0.24743 0.44818 0.0
O305 O 0.26211 0.31796 0.44338 0.0
C306 C 0.27643 0.25454 0.47659 0.0
O307 O 0.28606 0.22657 0.47099 0.0
H308 H 0.30945 0.33405 0.4517 0.0
H309 H 0.3129 0.21852 0.44774 0.0
N310 N 0.25851 0.23303 0.44764 0.0
N311 N 0.23051 0.19273 0.44452 0.0
C312 C 0.23861 0.22005 0.45163 0.0
C313 C 0.26337 0.21295 0.43776 0.0
C314 C 0.24612 0.18804 0.43582 0.0
C315 C 0.24523 0.31694 0.43635 0.0
O316 O 0.23049 0.29002 0.43743 0.0
H317 H 0.22944 0.23253 0.45901 0.0
H318 H 0.27775 0.21762 0.432 0.0
O319 O 0.26827 0.28088 0.47032 0.0
H320 H 0.35421 0.24591 0.44491 0.0
H321 H 0.24478 0.16898 0.42832 0.0
Cu322 Cu 0.53247 0.27563 0.34034 0.0
N323 N 0.5014 0.27378 0.34239 0.0
N324 N 0.46649 0.29642 0.34422 0.0
C325 C 0.48825 0.30406 0.34175 0.0
C326 C 0.46602 0.25951 0.34641 0.0
C327 C 0.48761 0.24563 0.34529 0.0
O328 O 0.54143 0.3175 0.35027 0.0
C329 C 0.53223 0.25236 0.31676 0.0
O330 O 0.52401 0.22297 0.32219 0.0
H331 H 0.49475 0.33121 0.33952 0.0
H332 H 0.49289 0.21725 0.34668 0.0
N333 N 0.54682 0.23337 0.34624 0.0
N334 N 0.57483 0.19357 0.34986 0.0
C335 C 0.56685 0.22021 0.34249 0.0
C336 C 0.54185 0.2143 0.35627 0.0
C337 C 0.55909 0.18966 0.35852 0.0
C338 C 0.55982 0.32053 0.35604 0.0
O339 O 0.57664 0.29819 0.35355 0.0
H340 H 0.57609 0.23186 0.33501 0.0
H341 H 0.52731 0.21936 0.3619 0.0
O342 O 0.53806 0.28017 0.32315 0.0
H343 H 0.4513 0.2437 0.34895 0.0
H344 H 0.56027 0.17121 0.36616 0.0
Cu345 Cu 0.27245 0.49764 0.34183 0.0
N346 N 0.30258 0.49925 0.34651 0.0
N347 N 0.33755 0.47711 0.34862 0.0
C348 C 0.31909 0.47868 0.34155 0.0
C349 C 0.3325 0.49848 0.35826 0.0
C350 C 0.31091 0.51187 0.35696 0.0
O351 O 0.25793 0.46005 0.35171 0.0
C352 C 0.27831 0.51613 0.31803 0.0
O353 O 0.28562 0.54637 0.32336 0.0
H354 H 0.31678 0.4629 0.33337 0.0
H355 H 0.30133 0.52702 0.36363 0.0
N356 N 0.25746 0.54189 0.34525 0.0
N357 N 0.22862 0.58114 0.34757 0.0
C358 C 0.23507 0.54651 0.3444 0.0
C359 C 0.26562 0.57466 0.34906 0.0
C360 C 0.24786 0.59897 0.35048 0.0
C361 C 0.26797 0.43044 0.35485 0.0
O362 O 0.28679 0.42122 0.34942 0.0
H363 H 0.22384 0.52482 0.34138 0.0
H364 H 0.2832 0.58045 0.35069 0.0
O365 O 0.2713 0.48939 0.32453 0.0
H366 H 0.34285 0.50178 0.36618 0.0
H367 H 0.24907 0.62737 0.35359 0.0
Cu368 Cu 1.01851 0.02472 0.59117 0.0
N369 N 0.04957 0.02432 0.59348 0.0
N370 N 0.0842 0.04813 0.59503 0.0
C371 C 0.06207 0.0554 0.59371 0.0
C372 C 0.08561 0.01075 0.59571 0.0
C373 C 0.0642 0.99611 0.59473 0.0
O374 O 1.00825 0.06519 0.60152 0.0
C375 C 1.02243 1.00576 0.56737 0.0
O376 O 0.03276 0.978 0.57264 0.0
H377 H 0.0549 0.08289 0.59293 0.0
H378 H 0.05971 0.96703 0.59468 0.0
N379 N 1.0049 0.98036 0.59591 0.0
N380 N 0.97759 0.93838 0.59849 0.0
C381 C 0.98436 0.96888 0.59244 0.0
C382 C 1.01157 0.95615 0.60436 0.0
C383 C 0.99479 0.93017 0.60595 0.0
C384 C 0.99227 0.06286 0.60913 0.0
O385 O 0.97825 0.03478 0.60855 0.0
H386 H 0.97404 0.98419 0.58617 0.0
H387 H 1.02709 0.95817 0.60937 0.0
O388 O 1.01371 0.03103 0.57395 0.0
H389 H 0.10101 0.99498 0.59654 0.0
H390 H 0.99505 0.90764 0.61236 0.0
Cu391 Cu 0.27728 0.25167 0.5914 0.0
N392 N 0.24605 0.2548 0.59254 0.0
N393 N 0.21098 0.23248 0.59359 0.0
C394 C 0.23311 0.22493 0.59469 0.0
C395 C 0.20998 0.26888 0.59074 0.0
C396 C 0.23168 0.28253 0.59002 0.0
O397 O 0.28505 0.21401 0.60314 0.0
C398 C 0.28081 0.26858 0.56747 0.0
O399 O 0.27505 0.30076 0.57211 0.0
H400 H 0.23999 0.19786 0.59669 0.0
H401 H 0.23658 0.31018 0.58732 0.0
N402 N 0.292 0.29548 0.59581 0.0
N403 N 0.32029 0.33553 0.59826 0.0
C404 C 0.31435 0.30084 0.59501 0.0
C405 C 0.28346 0.32793 0.59975 0.0
C406 C 0.30092 0.35284 0.6012 0.0
C407 C 0.30417 0.20259 0.60667 0.0
O408 O 0.32247 0.2123 0.60087 0.0
H409 H 0.326 0.28004 0.59176 0.0
H410 H 0.26582 0.33324 0.60135 0.0
O411 O 0.28377 0.24115 0.57453 0.0
H412 H 0.19478 0.28414 0.58873 0.0
H413 H 0.29953 0.38131 0.60424 0.0
Cu414 Cu 1.02203 0.24811 0.70317 0.0
N415 N 0.05227 0.24868 0.69855 0.0
N416 N 0.08703 0.22582 0.69626 0.0
C417 C 0.06834 0.22663 0.70319 0.0
C418 C 0.08267 0.24907 0.68705 0.0
C419 C 0.06118 0.26289 0.68844 0.0
O420 O 1.00717 0.21102 0.69314 0.0
C421 C 0.02819 0.26614 0.72708 0.0
O422 O 0.03627 0.29595 0.72185 0.0
H423 H 0.06566 0.20946 0.71102 0.0
H424 H 0.05208 0.27966 0.68203 0.0
N425 N 1.00764 0.29299 0.69985 0.0
N426 N 0.9794 0.33347 0.69751 0.0
C427 C 0.9853 0.29856 0.70064 0.0
C428 C 1.01634 0.32543 0.69614 0.0
C429 C 0.99898 0.35044 0.69468 0.0
C430 C 1.01678 0.18088 0.69006 0.0
O431 O 0.03526 0.17083 0.69561 0.0
H432 H 0.97372 0.27728 0.70358 0.0
H433 H 0.03402 0.33057 0.69459 0.0
O434 O 1.02061 0.23995 0.72049 0.0
H435 H 0.09348 0.25347 0.67935 0.0
H436 H 1.00075 0.37874 0.6916 0.0
Cu437 Cu 0.28235 0.02872 0.70374 0.0
N438 N 0.25125 0.02468 0.70184 0.0
N439 N 0.21595 0.04567 0.70023 0.0
C440 C 0.23802 0.05364 0.699 0.0
C441 C 0.21532 1.0098 0.70375 0.0
C442 C 0.23716 0.99696 0.7048 0.0
O443 O 0.29074 0.0694 0.69318 0.0
C444 C 0.27439 0.04822 0.72822 0.0
O445 O 0.25552 0.06213 0.72409 0.0
H446 H 0.24463 0.08064 0.69665 0.0
H447 H 0.24238 0.97013 0.70811 0.0
N448 N 0.29723 0.98585 0.69868 0.0
N449 N 0.32557 0.946 0.69575 0.0
C450 C 0.31853 0.97689 0.70154 0.0
C451 C 0.29034 0.95955 0.69093 0.0
C452 C 0.30779 0.93481 0.68913 0.0
C453 C 0.30899 0.07264 0.68727 0.0
O454 O 0.32613 0.05104 0.68976 0.0
H455 H 0.32878 0.9933 0.70757 0.0
H456 H 0.27404 0.95903 0.68663 0.0
O457 O 0.28892 0.03564 0.72081 0.0
H458 H 0.20026 0.99458 0.70612 0.0
H459 H 0.30765 0.9113 0.68306 0.0
Cu460 Cu 0.03179 1.00368 0.45244 0.0
N461 N 1.00148 1.00297 0.44809 0.0
N462 N 0.96698 0.97896 0.4461 0.0
C463 C 0.98636 0.97858 0.45241 0.0
C464 C 0.96994 1.00513 0.43758 0.0
C465 C 0.99131 0.01966 0.43876 0.0
O466 O 0.04701 0.96916 0.44171 0.0
C467 C 1.02564 0.01908 0.47635 0.0
O468 O 1.01733 0.04895 0.47127 0.0
H469 H 0.99003 0.95954 0.45965 0.0
H470 H 0.99935 0.03911 0.43274 0.0
N471 N 0.04561 0.04945 0.4497 0.0
N472 N 0.07372 0.09027 0.44785 0.0
C473 C 0.06788 0.05524 0.45076 0.0
C474 C 0.03694 0.08201 0.44604 0.0
C475 C 0.05429 0.10726 0.44484 0.0
C476 C 0.03953 0.93718 0.43896 0.0
O477 O 1.02307 0.92284 0.44532 0.0
H478 H 0.07963 0.03377 0.45336 0.0
H479 H 1.01931 0.08708 0.44434 0.0
O480 O 0.03355 0.99347 0.46962 0.0
H481 H 0.95813 0.01151 0.43048 0.0
H482 H 0.0527 0.13589 0.44205 0.0
Cu483 Cu 0.77227 0.77919 0.45478 0.0
N484 N 0.80337 0.77673 0.45283 0.0
N485 N 0.83853 0.7984 0.45131 0.0
C486 C 0.81645 0.80701 0.45186 0.0
C487 C 0.83928 0.76094 0.4519 0.0
C488 C 0.81754 0.74764 0.45288 0.0
O489 O 0.76331 0.81999 0.44428 0.0
C490 C 0.77189 0.75835 0.47861 0.0
O491 O 0.77886 0.72764 0.47342 0.0
H492 H 0.80972 0.83488 0.45161 0.0
H493 H 0.81247 0.71896 0.45381 0.0
N494 N 0.7579 0.73571 0.44972 0.0
N495 N 0.73007 0.69484 0.44681 0.0
C496 C 0.73714 0.72486 0.45306 0.0
C497 C 0.7644 0.71156 0.44116 0.0
C498 C 0.7473 0.68623 0.43938 0.0
C499 C 0.74657 0.8194 0.43713 0.0
O500 O 0.7312 0.79353 0.43835 0.0
H501 H 0.7272 0.73963 0.45966 0.0
H502 H 0.78004 0.71322 0.43622 0.0
O503 O 0.76701 0.78608 0.47198 0.0
H504 H 0.85443 0.7443 0.45198 0.0
H505 H 0.74718 0.66437 0.43269 0.0
Cu506 Cu 0.02979 0.77013 0.34176 0.0
N507 N 0.99939 0.77112 0.34595 0.0
N508 N 0.96494 0.79533 0.34793 0.0
C509 C 0.98458 0.79629 0.34183 0.0
C510 C 0.96742 0.768 0.3561 0.0
C511 C 0.98876 0.75331 0.35492 0.0
O512 O 0.04508 0.80432 0.35255 0.0
C513 C 1.02422 0.75462 0.31782 0.0
O514 O 1.01533 0.72516 0.32289 0.0
H515 H 0.98862 0.81616 0.33487 0.0
H516 H 0.99644 0.73285 0.3607 0.0
N517 N 0.04332 0.72422 0.34455 0.0
N518 N 0.07133 0.68322 0.34635 0.0
C519 C 0.06565 0.71866 0.34391 0.0
C520 C 0.0344 0.69112 0.34748 0.0
C521 C 0.05169 0.66575 0.34865 0.0
C522 C 0.0379 0.83646 0.35535 0.0
O523 O 1.02152 0.85129 0.34909 0.0
H524 H 0.07752 0.74052 0.34184 0.0
H525 H 1.01664 0.6857 0.34859 0.0
O526 O 0.03213 0.78013 0.32458 0.0
H527 H 0.95528 0.76083 0.36297 0.0
H528 H 0.0499 0.63664 0.35082 0.0
Cu529 Cu 0.77281 1.00065 0.34198 0.0
N530 N 0.8032 1.00136 0.34628 0.0
N531 N 0.83811 0.97892 0.34812 0.0
C532 C 0.81899 0.97879 0.34159 0.0
C533 C 0.83433 1.00327 0.35714 0.0
C534 C 0.81272 0.01685 0.35604 0.0
O535 O 0.75822 0.9643 0.3524 0.0
C536 C 0.78145 0.01536 0.31821 0.0
O537 O 0.79232 0.04243 0.3236 0.0
H538 H 0.81588 0.9607 0.33399 0.0
H539 H 0.80404 0.0345 0.3624 0.0
N540 N 0.75864 0.04588 0.34506 0.0
N541 N 0.73056 0.08667 0.34712 0.0
C542 C 0.73633 0.05157 0.34419 0.0
C543 C 0.76739 0.07856 0.34859 0.0
C544 C 0.75007 0.10378 0.34992 0.0
C545 C 0.76781 0.93412 0.35542 0.0
O546 O 0.78587 0.92346 0.34956 0.0
H547 H 0.72453 0.03006 0.34166 0.0
H548 H 0.78508 0.08376 0.35005 0.0
O549 O 0.771 0.99177 0.32469 0.0
H550 H 0.84566 1.00863 0.36455 0.0
H551 H 0.75173 0.13254 0.3526 0.0
Cu552 Cu 1.02439 0.52307 0.09055 0.0
N553 N 0.05478 0.52184 0.09479 0.0
N554 N 0.08964 0.5444 0.09678 0.0
C555 C 0.07052 0.54474 0.09025 0.0
C556 C 0.08594 0.51948 0.10562 0.0
C557 C 0.06436 0.50582 0.10441 0.0
O558 O 1.01003 0.55989 0.10091 0.0
C559 C 0.03052 0.50641 0.06661 0.0
O560 O 0.03908 0.4768 0.07173 0.0
H561 H 0.06736 0.56322 0.08279 0.0
H562 H 0.05572 0.48773 0.11064 0.0
N563 N 1.00977 0.47826 0.09368 0.0
N564 N 0.98125 0.43828 0.09578 0.0
C565 C 0.98733 0.47357 0.09331 0.0
C566 C 1.01832 0.44482 0.09647 0.0
C567 C 1.00075 0.42009 0.09781 0.0
C568 C 1.0196 0.59019 0.10383 0.0
O569 O 0.03771 0.60059 0.09798 0.0
H570 H 0.97572 0.49586 0.09135 0.0
H571 H 0.03605 0.43874 0.09733 0.0
O572 O 1.0226 0.53211 0.07331 0.0
H573 H 0.09732 0.51375 0.11297 0.0
H574 H 1.00229 0.39087 0.09987 0.0
Cu575 Cu 0.28411 0.74476 0.09071 0.0
N576 N 0.253 0.74776 0.09247 0.0
N577 N 0.2178 0.72596 0.09351 0.0
C578 C 0.23991 0.71747 0.0933 0.0
C579 C 0.21703 0.76343 0.09287 0.0
C580 C 0.23882 0.77681 0.09219 0.0
O581 O 0.29244 0.70441 0.10136 0.0
C582 C 0.28558 0.76519 0.06697 0.0
O583 O 0.27957 0.79654 0.0721 0.0
H584 H 0.24667 0.68962 0.09362 0.0
H585 H 0.24389 0.80547 0.09123 0.0
N586 N 0.29904 0.78761 0.0958 0.0
N587 N 0.32744 0.8274 0.09863 0.0
C588 C 0.32001 0.7974 0.09251 0.0
C589 C 0.29281 0.81234 0.10424 0.0
C590 C 0.3103 0.83697 0.106 0.0
C591 C 0.31108 0.70026 0.1068 0.0
O592 O 0.3286 0.72013 0.10363 0.0
H593 H 0.33001 0.78154 0.08619 0.0
H594 H 0.27697 0.81177 0.10903 0.0
O595 O 0.28955 0.73716 0.07362 0.0
H596 H 0.20187 0.77999 0.09254 0.0
H597 H 0.31048 0.85972 0.11236 0.0
Cu598 Cu 1.02232 0.74852 0.20285 0.0
N599 N 0.05336 0.75082 0.20032 0.0
N600 N 0.08831 0.7287 0.19811 0.0
C601 C 0.06625 0.72036 0.19908 0.0
C602 C 0.0893 0.76612 0.19877 0.0
C603 C 0.06771 0.7797 0.20013 0.0
O604 O 1.01272 0.7081 0.19227 0.0
C605 C 1.02599 0.76604 0.22677 0.0
O606 O 0.03562 0.7948 0.22167 0.0
H607 H 0.05951 0.69247 0.19934 0.0
H608 H 0.06295 0.80846 0.20123 0.0
N609 N 1.00751 0.79251 0.19875 0.0
N610 N 0.97936 0.83316 0.19705 0.0
C611 C 0.98592 0.80013 0.20148 0.0
C612 C 1.01491 0.82195 0.19244 0.0
C613 C 0.99755 0.84725 0.19144 0.0
C614 C 0.99659 0.70957 0.18475 0.0
O615 O 0.98204 0.73686 0.1854 0.0
H616 H 0.97508 0.78137 0.2064 0.0
H617 H 0.0315 0.82447 0.18856 0.0
O618 O 1.01792 0.74059 0.22004 0.0
H619 H 0.1045 0.78258 0.19839 0.0
H620 H 0.99797 0.87321 0.18657 0.0
Cu621 Cu 0.28139 0.52654 0.20321 0.0
N622 N 0.25042 0.52372 0.20073 0.0
N623 N 0.21542 0.54523 0.19834 0.0
C624 C 0.23726 0.55397 0.20003 0.0
C625 C 0.21485 0.50774 0.19801 0.0
C626 C 0.23651 0.49452 0.19946 0.0
O627 O 0.29051 0.56743 0.19295 0.0
C628 C 0.2781 0.50719 0.22696 0.0
O629 O 0.26824 0.47893 0.22167 0.0
H630 H 0.24367 0.58192 0.20099 0.0
H631 H 0.2417 0.46576 0.19966 0.0
N632 N 0.29655 0.48393 0.19816 0.0
N633 N 0.32533 0.4449 0.1954 0.0
C634 C 0.31752 0.47462 0.20152 0.0
C635 C 0.29071 0.45913 0.18967 0.0
C636 C 0.30841 0.43485 0.18799 0.0
C637 C 0.30935 0.57147 0.18766 0.0
O638 O 0.32662 0.55105 0.19083 0.0
H639 H 0.32708 0.49015 0.2081 0.0
H640 H 0.2751 0.45961 0.1847 0.0
O641 O 0.28616 0.53302 0.22042 0.0
H642 H 0.19992 0.49103 0.19673 0.0
H643 H 0.30915 0.41269 0.18142 0.0
Cu644 Cu 0.02946 0.51117 0.95155 0.0
N645 N 0.99826 0.5102 0.94931 0.0
N646 N 0.96376 0.48572 0.94803 0.0
C647 C 0.98608 0.4789 0.94805 0.0
C648 C 0.96181 0.52286 0.94927 0.0
C649 C 0.98312 0.53791 0.95003 0.0
O650 O 0.04209 0.47973 0.93905 0.0
C651 C 1.02612 0.52196 0.97566 0.0
O652 O 1.01533 0.55055 0.97117 0.0
H653 H 0.99343 0.45144 0.94777 0.0
H654 H 0.98722 0.5668 0.95148 0.0
N655 N 0.0424 0.55762 0.94881 0.0
N656 N 0.07031 0.59893 0.947 0.0
C657 C 0.06386 0.56592 0.95157 0.0
C658 C 0.03488 0.58636 0.94226 0.0
C659 C 0.05205 0.61197 0.94115 0.0
C660 C 0.043 0.4446 0.93819 0.0
O661 O 0.03723 0.42385 0.94738 0.0
H662 H 0.07492 0.54687 0.9562 0.0
H663 H 1.01851 0.58779 0.93807 0.0
O664 O 0.03502 0.49875 0.96838 0.0
H665 H 0.94611 0.53799 0.94981 0.0
H666 H 0.05132 0.63762 0.93613 0.0
Cu667 Cu 0.77512 0.27116 0.95492 0.0
N668 N 0.80556 0.27145 0.95066 0.0
N669 N 0.8399 0.29551 0.94804 0.0
C670 C 0.81979 0.29912 0.95354 0.0
C671 C 0.83846 0.26383 0.94158 0.0
C672 C 0.81715 0.24915 0.94316 0.0
O673 O 0.76002 0.30424 0.94371 0.0
C674 C 0.75688 0.27749 0.97872 0.0
O675 O 0.73759 0.26861 0.97377 0.0
H676 H 0.81521 0.32218 0.95929 0.0
H677 H 0.81029 0.22499 0.9387 0.0
N678 N 0.76147 0.22487 0.95277 0.0
N679 N 0.73338 0.18395 0.95102 0.0
C680 C 0.7391 0.22008 0.95174 0.0
C681 C 0.77032 0.19048 0.95261 0.0
C682 C 0.75298 0.16511 0.95145 0.0
C683 C 0.76647 0.33694 0.94114 0.0
O684 O 0.78145 0.3533 0.948 0.0
H685 H 0.72719 0.2428 0.95164 0.0
H686 H 0.78802 0.18424 0.95355 0.0
O687 O 0.77387 0.28337 0.97201 0.0
H688 H 0.85139 0.25321 0.93564 0.0
H689 H 0.75458 0.13518 0.95135 0.0
Cu690 Cu 0.02785 0.26165 0.84226 0.0
N691 N 0.99667 0.26108 0.84469 0.0
N692 N 0.96203 0.28477 0.84636 0.0
C693 C 0.9843 0.29171 0.84688 0.0
C694 C 0.96026 0.24828 0.84381 0.0
C695 C 0.98167 0.23365 0.84285 0.0
O696 O 0.03997 0.29346 0.85477 0.0
C697 C 1.02499 0.25079 0.81809 0.0
O698 O 1.01541 0.22098 0.82254 0.0
H699 H 0.99149 0.31907 0.84806 0.0
H700 H 0.98592 0.20546 0.84039 0.0
N701 N 0.04185 0.21596 0.84484 0.0
N702 N 0.07072 0.17646 0.84666 0.0
C703 C 0.06389 0.21018 0.84283 0.0
C704 C 0.03427 0.18483 0.85012 0.0
C705 C 0.05203 0.16029 0.85118 0.0
C706 C 0.04158 0.32854 0.85554 0.0
O707 O 0.03668 0.34935 0.84623 0.0
H708 H 0.07476 0.23087 0.83885 0.0
H709 H 1.01731 0.18079 0.85339 0.0
O710 O 0.03299 0.27475 0.82541 0.0
H711 H 0.94463 0.23352 0.84239 0.0
H712 H 0.05138 0.13334 0.85544 0.0
Cu713 Cu 0.77559 0.49767 0.8418 0.0
N714 N 0.80691 0.50074 0.84336 0.0
N715 N 0.84223 0.47973 0.84456 0.0
C716 C 0.82054 0.47385 0.84759 0.0
C717 C 0.84234 0.51184 0.83835 0.0
C718 C 0.82054 0.52482 0.83768 0.0
O719 O 0.76373 0.46668 0.85461 0.0
C720 C 0.78291 0.46992 0.81808 0.0
O721 O 0.80171 0.45662 0.8225 0.0
H722 H 0.81449 0.44864 0.85173 0.0
H723 H 0.81479 0.54839 0.83252 0.0
N724 N 0.76193 0.54365 0.8442 0.0
N725 N 0.73386 0.58474 0.8458 0.0
C726 C 0.7399 0.55014 0.8424 0.0
C727 C 0.77027 0.57518 0.8489 0.0
C728 C 0.75296 0.60064 0.8499 0.0
C729 C 0.76651 0.43217 0.85644 0.0
O730 O 0.77672 0.41181 0.84828 0.0
H731 H 0.72838 0.52923 0.8391 0.0
H732 H 0.78753 0.57907 0.85167 0.0
O733 O 0.76841 0.48394 0.82522 0.0
H734 H 0.85691 0.52383 0.83399 0.0
H735 H 0.75433 0.62852 0.85346 0.0
H736 H 0.51668 0.15681 0.11212 0.0
H737 H 0.49349 0.04897 0.12372 0.0
H738 H 0.51248 0.18012 0.13265 0.0
H739 H 0.48936 0.07234 0.14415 0.0
H740 H 0.52254 0.1143 0.17991 0.0
H741 H 0.51777 0.09112 0.15946 0.0
H742 H 0.48523 0.19357 0.14945 0.0
H743 H 0.48992 0.21684 0.16993 0.0
C744 C 0.51027 0.13827 0.11897 0.0
C745 C 0.50565 0.10091 0.11625 0.0
C746 C 0.50781 0.15166 0.13074 0.0
C747 C 0.50082 0.12794 0.14006 0.0
C748 C 0.4951 0.09115 0.13721 0.0
C749 C 0.49737 0.07785 0.12546 0.0
C750 C 0.51396 0.13163 0.17343 0.0
C751 C 0.5067 0.16747 0.17658 0.0
C752 C 0.51117 0.1183 0.1617 0.0
C753 C 0.50126 0.14063 0.1528 0.0
C754 C 0.49314 0.17587 0.15607 0.0
C755 C 0.49568 0.18905 0.16784 0.0
H756 H 0.76912 0.09348 0.17418 0.0
H757 H 0.84106 0.08109 0.17036 0.0
H758 H 0.76713 0.11988 0.15403 0.0
H759 H 0.839 0.10826 0.15022 0.0
H760 H 0.8223 0.19783 0.12 0.0
H761 H 0.82726 0.17133 0.14007 0.0
H762 H 0.7748 0.09177 0.13273 0.0
H763 H 0.77006 0.11773 0.11261 0.0
C764 C 0.78458 0.09699 0.16915 0.0
C765 C 0.80527 0.08512 0.1739 0.0
C766 C 0.78338 0.11177 0.15755 0.0
C767 C 0.80287 0.11568 0.15051 0.0
C768 C 0.82371 0.10548 0.15545 0.0
C769 C 0.82488 0.09001 0.16698 0.0
C770 C 0.81209 0.17426 0.1226 0.0
C771 C 0.79581 0.15983 0.1147 0.0
C772 C 0.81494 0.15914 0.13408 0.0
C773 C 0.80125 0.12979 0.138 0.0
C774 C 0.78542 0.11467 0.12999 0.0
C775 C 0.78287 0.1293 0.11842 0.0
H776 H 0.53139 0.90677 0.86373 0.0
H777 H 0.56419 0.80413 0.87343 0.0
H778 H 0.53662 0.92978 0.8842 0.0
H779 H 0.56915 0.8271 0.89392 0.0
H780 H 0.53655 0.86376 0.93118 0.0
H781 H 0.54052 0.84087 0.91058 0.0
H782 H 0.5666 0.94729 0.89959 0.0
H783 H 0.5629 0.97017 0.92013 0.0
C784 C 0.54008 0.8894 0.87015 0.0
C785 C 0.54729 0.85358 0.86692 0.0
C786 C 0.54311 0.90261 0.88188 0.0
C787 C 0.55315 0.88011 0.89069 0.0
C788 C 0.56118 0.84491 0.88735 0.0
C789 C 0.55847 0.83191 0.87557 0.0
C790 C 0.54358 0.88204 0.92443 0.0
C791 C 0.54926 0.91886 0.92733 0.0
C792 C 0.5459 0.8689 0.91263 0.0
C793 C 0.55368 0.89243 0.90345 0.0
C794 C 0.56033 0.92866 0.90645 0.0
C795 C 0.55832 0.94164 0.91826 0.0
H796 H 0.28945 0.87207 0.86561 0.0
H797 H 0.22938 0.93929 0.86793 0.0
H798 H 0.28264 0.84915 0.88585 0.0
H799 H 0.22246 0.91567 0.88825 0.0
H800 H 0.21193 0.82569 0.91971 0.0
H801 H 0.21469 0.85222 0.89951 0.0
H802 H 0.28354 0.88323 0.90645 0.0
H803 H 0.28085 0.85732 0.9266 0.0
C804 C 0.27456 0.88148 0.87033 0.0
C805 C 0.26002 0.90768 0.86513 0.0
C806 C 0.27079 0.86858 0.88198 0.0
C807 C 0.25223 0.88111 0.88868 0.0
C808 C 0.23695 0.90569 0.88329 0.0
C809 C 0.2409 0.91911 0.87166 0.0
C810 C 0.22751 0.83887 0.91702 0.0
C811 C 0.24621 0.83913 0.92477 0.0
C812 C 0.22907 0.85399 0.90545 0.0
C813 C 0.24944 0.86915 0.90136 0.0
C814 C 0.26774 0.87114 0.90931 0.0
C815 C 0.2661 0.85657 0.9209 0.0
H816 H 0.46095 0.57654 0.62467 0.0
H817 H 0.53041 0.60352 0.61722 0.0
H818 H 0.46424 0.60594 0.64446 0.0
H819 H 0.53363 0.63232 0.63699 0.0
H820 H 0.53886 0.62689 0.67813 0.0
H821 H 0.53215 0.60201 0.65808 0.0
H822 H 0.47296 0.67045 0.65477 0.0
H823 H 0.4798 0.69605 0.67488 0.0
C824 C 0.47678 0.58928 0.62715 0.0
C825 C 0.49544 0.58748 0.61936 0.0
C826 C 0.47864 0.60608 0.63848 0.0
C827 C 0.49927 0.62087 0.64232 0.0
C828 C 0.5176 0.62063 0.63433 0.0
C829 C 0.51568 0.60439 0.62295 0.0
C830 C 0.52423 0.63639 0.67323 0.0
C831 C 0.5099 0.66357 0.67813 0.0
C832 C 0.52053 0.62235 0.66169 0.0
C833 C 0.50223 0.6347 0.65481 0.0
C834 C 0.48724 0.66055 0.65987 0.0
C835 C 0.49114 0.67511 0.67139 0.0
H836 H 0.84057 0.58428 0.67263 0.0
H837 H 0.77004 0.60587 0.67898 0.0
H838 H 0.83738 0.61233 0.65266 0.0
H839 H 0.76692 0.63322 0.65904 0.0
H840 H 0.76417 0.62592 0.61777 0.0
H841 H 0.77059 0.60207 0.63795 0.0
H842 H 0.82702 0.67618 0.64217 0.0
H843 H 0.82042 0.70076 0.62194 0.0
C844 C 0.8245 0.59554 0.66987 0.0
C845 C 0.80555 0.59268 0.67741 0.0
C846 C 0.8227 0.61155 0.65843 0.0
C847 C 0.80183 0.62442 0.65424 0.0
C848 C 0.78314 0.62303 0.66198 0.0
C849 C 0.78501 0.60764 0.67345 0.0
C850 C 0.77816 0.63687 0.62289 0.0
C851 C 0.79176 0.66533 0.61822 0.0
C852 C 0.78168 0.62341 0.63451 0.0
C853 C 0.79912 0.63761 0.64168 0.0
C854 C 0.81342 0.66481 0.63684 0.0
C855 C 0.80965 0.67881 0.62526 0.0
H856 H 0.52488 0.44676 0.42023 0.0
H857 H 0.59384 0.41502 0.42638 0.0
H858 H 0.52596 0.41826 0.40059 0.0
H859 H 0.59456 0.38311 0.40696 0.0
H860 H 0.59595 0.35327 0.36718 0.0
H861 H 0.59617 0.38604 0.38644 0.0
H862 H 0.5247 0.36559 0.39003 0.0
H863 H 0.52442 0.33621 0.37052 0.0
C864 C 0.54016 0.43267 0.41748 0.0
C865 C 0.5592 0.43276 0.42492 0.0
C866 C 0.54079 0.41598 0.40616 0.0
C867 C 0.56028 0.39764 0.40204 0.0
C868 C 0.57931 0.39734 0.40961 0.0
C869 C 0.57887 0.4152 0.42084 0.0
C870 C 0.58029 0.35659 0.37205 0.0
C871 C 0.56013 0.34278 0.36725 0.0
C872 C 0.5804 0.37493 0.3832 0.0
C873 C 0.56043 0.37887 0.38997 0.0
C874 C 0.54037 0.36452 0.38508 0.0
C875 C 0.54017 0.34735 0.37383 0.0
H876 H 0.29209 0.37895 0.36729 0.0
H877 H 0.22955 0.44005 0.36831 0.0
H878 H 0.28458 0.35515 0.38735 0.0
H879 H 0.22196 0.41556 0.38846 0.0
H880 H 0.21205 0.32368 0.41937 0.0
H881 H 0.2155 0.35147 0.39938 0.0
H882 H 0.28264 0.38812 0.40802 0.0
H883 H 0.27925 0.36092 0.42796 0.0
C884 C 0.27654 0.38685 0.37169 0.0
C885 C 0.26147 0.41157 0.36618 0.0
C886 C 0.27237 0.37346 0.38325 0.0
C887 C 0.25287 0.384 0.38953 0.0
C888 C 0.23717 0.40713 0.38383 0.0
C889 C 0.24151 0.42104 0.37229 0.0
C890 C 0.22736 0.33837 0.4171 0.0
C891 C 0.24542 0.33981 0.42526 0.0
C892 C 0.22932 0.35422 0.40565 0.0
C893 C 0.24948 0.37134 0.4021 0.0
C894 C 0.26704 0.37453 0.41047 0.0
C895 C 0.26499 0.3592 0.42194 0.0
H896 H 0.95977 0.06983 0.62653 0.0
H897 H 1.02638 0.1077 0.61694 0.0
H898 H 0.96371 0.09911 0.64632 0.0
H899 H 0.03028 0.13632 0.6367 0.0
H900 H 0.04067 0.12898 0.67757 0.0
H901 H 0.03282 0.10422 0.65764 0.0
H902 H 0.97033 0.16493 0.65668 0.0
H903 H 0.9783 0.19051 0.67669 0.0
C904 C 0.97506 0.08495 0.62854 0.0
C905 C 0.99279 0.08623 0.62015 0.0
C906 C 0.97729 0.10167 0.63987 0.0
C907 C 0.99742 0.11946 0.64309 0.0
C908 C 1.01469 0.12232 0.63451 0.0
C909 C 1.01235 0.10617 0.62314 0.0
C910 C 1.02509 0.13679 0.67323 0.0
C911 C 1.01014 0.16185 0.67875 0.0
C912 C 1.02072 0.12283 0.66175 0.0
C913 C 1.00113 0.13308 0.65555 0.0
C914 C 0.98559 0.15669 0.66125 0.0
C915 C 0.99015 0.17124 0.6727 0.0
H916 H 0.27408 0.20622 0.62496 0.0
H917 H 0.33767 0.15684 0.61515 0.0
H918 H 0.27646 0.17864 0.64467 0.0
H919 H 0.33944 0.12654 0.63479 0.0
H920 H 0.34533 0.09931 0.67467 0.0
H921 H 0.34497 0.13178 0.65541 0.0
H922 H 0.27231 0.12491 0.65493 0.0
H923 H 0.27278 0.09523 0.67436 0.0
C924 C 0.28842 0.18872 0.62694 0.0
C925 C 0.30558 0.18339 0.61842 0.0
C926 C 0.28975 0.17261 0.6383 0.0
C927 C 0.308 0.14971 0.64142 0.0
C928 C 0.32523 0.14431 0.63285 0.0
C929 C 0.32415 0.16133 0.62152 0.0
C930 C 0.32932 0.10545 0.6705 0.0
C931 C 0.3091 0.09512 0.67612 0.0
C932 C 0.32908 0.12366 0.65936 0.0
C933 C 0.3086 0.13123 0.65347 0.0
C934 C 0.28844 0.12074 0.6592 0.0
C935 C 0.28868 0.10344 0.67041 0.0
H936 H 0.06009 0.80298 0.37394 0.0
H937 H 0.02985 0.90704 0.36348 0.0
H938 H 0.06493 0.82658 0.39436 0.0
H939 H 0.03504 0.9307 0.3839 0.0
H940 H 0.06137 0.97026 0.42015 0.0
H941 H 0.06539 0.94658 0.39968 0.0
H942 H 0.03524 0.84296 0.41048 0.0
H943 H 0.03087 0.86671 0.43096 0.0
C944 C 0.05494 0.83119 0.3759 0.0
C945 C 0.04447 0.85309 0.36706 0.0
C946 C 0.0576 0.84456 0.38763 0.0
C947 C 0.05025 0.88036 0.39074 0.0
C948 C 0.04099 0.90305 0.38175 0.0
C949 C 0.03797 0.88947 0.37006 0.0
C950 C 0.056 0.94213 0.41825 0.0
C951 C 0.04569 0.92041 0.4272 0.0
C952 C 0.05818 0.92872 0.40649 0.0
C953 C 0.05051 0.89305 0.40347 0.0
C954 C 0.04143 0.87051 0.41256 0.0
C955 C 0.03889 0.88414 0.42429 0.0
H956 H 0.78175 0.85983 0.42821 0.0
H957 H 0.71297 0.82924 0.42056 0.0
H958 H 0.78497 0.88759 0.40832 0.0
H959 H 0.71624 0.85755 0.40064 0.0
H960 H 0.73072 0.9462 0.36978 0.0
H961 H 0.72385 0.92133 0.38996 0.0
H962 H 0.78478 0.85675 0.3874 0.0
H963 H 0.79154 0.88091 0.36731 0.0
C964 C 0.76715 0.85967 0.42241 0.0
C965 C 0.74712 0.84208 0.42599 0.0
C966 C 0.76908 0.87531 0.41096 0.0
C967 C 0.75096 0.87426 0.40287 0.0
C968 C 0.73049 0.85872 0.40668 0.0
C969 C 0.72864 0.84253 0.41809 0.0
C970 C 0.74246 0.92625 0.37345 0.0
C971 C 0.7617 0.91563 0.3669 0.0
C972 C 0.73853 0.91209 0.38501 0.0
C973 C 0.75397 0.88757 0.39032 0.0
C974 C 0.77278 0.8761 0.38362 0.0
C975 C 0.77652 0.88972 0.37204 0.0
H976 H 0.03137 0.66655 0.17664 0.0
H977 H 0.96364 0.70026 0.16781 0.0
H978 H 0.03507 0.63742 0.15693 0.0
H979 H 0.96739 0.67057 0.14808 0.0
H980 H 0.98185 0.57985 0.11777 0.0
H981 H 0.97449 0.60563 0.13783 0.0
H982 H 0.03639 0.66782 0.13588 0.0
H983 H 0.04363 0.64277 0.1159 0.0
C984 C 1.01708 0.66707 0.17062 0.0
C985 C 0.99724 0.68596 0.1738 0.0
C986 C 1.0193 0.65065 0.15928 0.0
C987 C 1.00163 0.65221 0.15092 0.0
C988 C 0.98128 0.669 0.15434 0.0
C989 C 0.97916 0.68597 0.16564 0.0
C990 C 0.9937 0.59946 0.12155 0.0
C991 C 1.01334 0.6092 0.11522 0.0
C992 C 0.9895 0.61412 0.13303 0.0
C993 C 1.00505 0.63824 0.13847 0.0
C994 C 1.02429 0.6488 0.13199 0.0
C995 C 0.02831 0.63469 0.12048 0.0
H996 H 0.27491 0.58296 0.17223 0.0
H997 H 0.3455 0.60608 0.17709 0.0
H998 H 0.27602 0.61103 0.15258 0.0
H999 H 0.34641 0.63753 0.15764 0.0
H1000 H 0.34647 0.6643 0.11756 0.0
H1001 H 0.34653 0.63321 0.13707 0.0
H1002 H 0.27663 0.66353 0.14195 0.0
H1003 H 0.27631 0.69123 0.12223 0.0
C1004 C 0.29059 0.59511 0.16921 0.0
C1005 C 0.31007 0.59267 0.17628 0.0
C1006 C 0.29126 0.61154 0.15788 0.0
C1007 C 0.31126 0.62724 0.15338 0.0
C1008 C 0.33073 0.62534 0.1606 0.0
C1009 C 0.3302 0.60776 0.17184 0.0
C1010 C 0.33109 0.66357 0.12279 0.0
C1011 C 0.31131 0.67956 0.11828 0.0
C1012 C 0.33114 0.64619 0.13407 0.0
C1013 C 0.31154 0.64541 0.14125 0.0
C1014 C 0.29192 0.66213 0.13669 0.0
C1015 C 0.29172 0.67835 0.12532 0.0
H1016 H 0.03592 0.29594 0.87734 0.0
H1017 H 0.05635 0.399 0.86093 0.0
H1018 H 0.03901 0.32376 0.89705 0.0
H1019 H 0.06105 0.42659 0.88083 0.0
H1020 H 0.03892 0.47817 0.91642 0.0
H1021 H 0.04122 0.45034 0.89667 0.0
H1022 H 0.05982 0.34554 0.91277 0.0
H1023 H 0.05589 0.37325 0.9327 0.0
C1024 C 0.0416 0.32445 0.87796 0.0
C1025 C 0.04579 0.34531 0.86753 0.0
C1026 C 0.04358 0.34045 0.88936 0.0
C1027 C 0.05028 0.37768 0.89072 0.0
C1028 C 0.05532 0.39815 0.88024 0.0
C1029 C 0.05283 0.38229 0.86879 0.0
C1030 C 0.0437 0.44923 0.91577 0.0
C1031 C 0.0471 0.42787 0.92617 0.0
C1032 C 0.0452 0.4332 0.90435 0.0
C1033 C 0.05063 0.39541 0.90294 0.0
C1034 C 0.05503 0.37445 0.91339 0.0
C1035 C 0.053 0.39036 0.92486 0.0
H1036 H 0.77637 0.40631 0.93265 0.0
H1037 H 0.74469 0.3031 0.92238 0.0
H1038 H 0.77276 0.42865 0.91207 0.0
H1039 H 0.74111 0.32556 0.90179 0.0
H1040 H 0.77256 0.3609 0.86462 0.0
H1041 H 0.76865 0.33863 0.88525 0.0
H1042 H 0.74526 0.44683 0.89637 0.0
H1043 H 0.74915 0.46914 0.87584 0.0
C1044 C 0.76825 0.38864 0.92607 0.0
C1045 C 0.7609 0.35286 0.9292 0.0
C1046 C 0.76615 0.40148 0.91426 0.0
C1047 C 0.75681 0.37875 0.90526 0.0
C1048 C 0.74863 0.34355 0.90848 0.0
C1049 C 0.75052 0.33084 0.92032 0.0
C1050 C 0.76625 0.37978 0.87142 0.0
C1051 C 0.76135 0.41688 0.86855 0.0
C1052 C 0.76393 0.36698 0.88325 0.0
C1053 C 0.75682 0.39108 0.89248 0.0
C1054 C 0.75107 0.42772 0.88951 0.0
C1055 C 0.75321 0.44042 0.8777 0.0
H1056 H 0.34931 0.86448 0.11639 0.0
H1057 H 0.35636 0.82642 0.07974 0.0
H1058 H 0.38744 0.8892 0.11577 0.0
H1059 H 0.39477 0.8501 0.07925 0.0
H1060 H 0.45445 0.93175 0.07911 0.0
H1061 H 0.41597 0.90819 0.07929 0.0
H1062 H 0.42602 0.86613 0.11519 0.0
H1063 H 0.46417 0.89066 0.11515 0.0
C1064 C 0.35891 0.86157 0.10817 0.0
C1065 C 0.34972 0.84336 0.09812 0.0
C1066 C 0.38091 0.87534 0.10787 0.0
C1067 C 0.39425 0.87142 0.09749 0.0
C1068 C 0.38493 0.8538 0.08737 0.0
C1069 C 0.36297 0.8399 0.08769 0.0
C1070 C 0.44843 0.91759 0.08705 0.0
C1071 C 0.46246 0.91321 0.09711 0.0
C1072 C 0.42642 0.9038 0.08712 0.0
C1073 C 0.41784 0.8854 0.09728 0.0
C1074 C 0.43197 0.88059 0.10728 0.0
C1075 C 0.45399 0.89425 0.10719 0.0
H1076 H 0.86383 0.29575 0.09664 0.0
H1077 H 0.83636 0.40671 0.09744 0.0
H1078 H 0.90168 0.32118 0.09623 0.0
H1079 H 0.87436 0.43219 0.09752 0.0
H1080 H 0.94463 0.46401 0.08386 0.0
H1081 H 0.90662 0.43903 0.08436 0.0
H1082 H 0.92839 0.35344 0.10884 0.0
H1083 H 0.96647 0.37842 0.10831 0.0
C1084 C 0.86581 0.32559 0.0967 0.0
C1085 C 0.84692 0.34913 0.097 0.0
C1086 C 0.88759 0.34019 0.09663 0.0
C1087 C 0.89113 0.37876 0.09686 0.0
C1088 C 0.87227 0.40235 0.0972 0.0
C1089 C 0.85045 0.38772 0.09729 0.0
C1090 C 0.94132 0.44009 0.08945 0.0
C1091 C 0.9587 0.42331 0.09606 0.0
C1092 C 0.91946 0.42575 0.08974 0.0
C1093 C 0.91438 0.39423 0.09665 0.0
C1094 C 0.93175 0.37743 0.10327 0.0
C1095 C 0.95363 0.39176 0.10297 0.0
H1096 H 0.46883 0.40462 0.18915 0.0
H1097 H 0.44248 0.30696 0.2067 0.0
H1098 H 0.43101 0.43076 0.18839 0.0
H1099 H 0.40482 0.3329 0.20581 0.0
H1100 H 0.33773 0.37408 0.19048 0.0
H1101 H 0.37572 0.34834 0.19094 0.0
H1102 H 0.40171 0.45498 0.202 0.0
H1103 H 0.3639 0.48087 0.20123 0.0
C1104 C 0.45508 0.38878 0.19291 0.0
C1105 C 0.45883 0.35352 0.19793 0.0
C1106 C 0.43337 0.40378 0.19247 0.0
C1107 C 0.41487 0.38383 0.19699 0.0
C1108 C 0.41862 0.3487 0.20205 0.0
C1109 C 0.4403 0.3338 0.20254 0.0
C1110 C 0.35157 0.39204 0.19294 0.0
C1111 C 0.34772 0.42948 0.19587 0.0
C1112 C 0.37332 0.37724 0.19331 0.0
C1113 C 0.39176 0.39961 0.19652 0.0
C1114 C 0.38792 0.43708 0.19939 0.0
C1115 C 0.36617 0.4518 0.19909 0.0
H1116 H 0.86146 0.97411 0.19132 0.0
H1117 H 0.83484 0.86844 0.20238 0.0
H1118 H 0.89934 0.94849 0.19114 0.0
H1119 H 0.87283 0.84289 0.20312 0.0
H1120 H 0.94086 0.79624 0.19279 0.0
H1121 H 0.90293 0.82161 0.19241 0.0
H1122 H 0.92947 0.92947 0.20215 0.0
H1123 H 0.96749 0.904 0.20161 0.0
C1124 C 0.86389 0.94542 0.19389 0.0
C1125 C 0.84536 0.92317 0.19686 0.0
C1126 C 0.88563 0.93067 0.19389 0.0
C1127 C 0.88947 0.89345 0.19718 0.0
C1128 C 0.87073 0.87137 0.20027 0.0
C1129 C 0.84892 0.88596 0.19995 0.0
C1130 C 0.93843 0.82535 0.19485 0.0
C1131 C 0.95698 0.84824 0.19723 0.0
C1132 C 0.91665 0.83998 0.19473 0.0
C1133 C 0.91281 0.87779 0.19729 0.0
C1134 C 0.93156 0.90049 0.19985 0.0
C1135 C 0.95339 0.88596 0.19965 0.0
H1136 H 0.71914 0.12309 0.93891 0.0
H1137 H 0.69671 0.21102 0.96241 0.0
H1138 H 0.68056 0.09907 0.93789 0.0
H1139 H 0.65828 0.18697 0.96149 0.0
H1140 H 0.5981 0.10475 0.96648 0.0
H1141 H 0.63694 0.12742 0.96797 0.0
H1142 H 0.64286 0.12407 0.92932 0.0
H1143 H 0.60412 0.1018 0.92785 0.0
C1144 C 0.70599 0.13708 0.94391 0.0
C1145 C 0.71088 0.16903 0.95067 0.0
C1146 C 0.68393 0.12352 0.94328 0.0
C1147 C 0.66643 0.14121 0.9496 0.0
C1148 C 0.67144 0.17268 0.95657 0.0
C1149 C 0.69338 0.18661 0.95702 0.0
C1150 C 0.60774 0.10899 0.95833 0.0
C1151 C 0.59804 0.10182 0.94706 0.0
C1152 C 0.62989 0.12202 0.95917 0.0
C1153 C 0.64292 0.12739 0.94876 0.0
C1154 C 0.63327 0.11994 0.9375 0.0
C1155 C 0.61102 0.10759 0.93665 0.0
H1156 H 0.20244 0.68918 0.96444 0.0
H1157 H 0.2045 0.66524 0.92641 0.0
H1158 H 0.16354 0.66762 0.96526 0.0
H1159 H 0.16593 0.64274 0.9273 0.0
H1160 H 0.08943 0.64412 0.93034 0.0
H1161 H 0.12794 0.66733 0.93011 0.0
H1162 H 0.14113 0.61084 0.96355 0.0
H1163 H 0.1024 0.58852 0.96395 0.0
C1164 C 0.19464 0.67922 0.95626 0.0
C1165 C 0.20667 0.67902 0.94536 0.0
C1166 C 0.17239 0.66658 0.95675 0.0
C1167 C 0.16154 0.65359 0.94633 0.0
C1168 C 0.17365 0.65301 0.93546 0.0
C1169 C 0.19592 0.66547 0.93499 0.0
C1170 C 0.10041 0.63707 0.93773 0.0
C1171 C 0.09276 0.61434 0.94715 0.0
C1172 C 0.1226 0.65 0.93752 0.0
C1173 C 0.13771 0.64073 0.94676 0.0
C1174 C 0.12994 0.61869 0.95632 0.0
C1175 C 0.10777 0.60561 0.9565 0.0
H1176 H 0.58924 0.61397 0.84235 0.0
H1177 H 0.6146 0.72358 0.85041 0.0
H1178 H 0.62748 0.58982 0.84256 0.0
H1179 H 0.65281 0.69981 0.85005 0.0
H1180 H 0.71689 0.6377 0.86067 0.0
H1181 H 0.67859 0.66181 0.861 0.0
H1182 H 0.66153 0.59106 0.83097 0.0
H1183 H 0.69974 0.56676 0.83075 0.0
C1184 C 0.6029 0.63297 0.84418 0.0
C1185 C 0.59867 0.67084 0.84632 0.0
C1186 C 0.62492 0.61917 0.84416 0.0
C1187 C 0.64333 0.64286 0.84626 0.0
C1188 C 0.63909 0.68063 0.8485 0.0
C1189 C 0.61709 0.6944 0.84856 0.0
C1190 C 0.70504 0.62756 0.85407 0.0
C1191 C 0.71143 0.60018 0.84571 0.0
C1192 C 0.68302 0.64138 0.85425 0.0
C1193 C 0.66685 0.62831 0.84604 0.0
C1194 C 0.67335 0.60126 0.83759 0.0
C1195 C 0.69532 0.58736 0.83744 0.0
H1196 H 0.10966 0.21607 0.84599 0.0
H1197 H 0.08376 0.10415 0.84743 0.0
H1198 H 0.14783 0.19213 0.84572 0.0
H1199 H 0.12212 0.08019 0.84769 0.0
H1200 H 0.19289 0.04969 0.83452 0.0
H1201 H 0.15456 0.07324 0.83479 0.0
H1202 H 0.17513 0.16227 0.85839 0.0
H1203 H 0.21358 0.13871 0.85808 0.0
C1204 C 0.11203 0.18632 0.84621 0.0
C1205 C 0.09346 0.16209 0.84665 0.0
C1206 C 0.13402 0.17258 0.84623 0.0
C1207 C 0.13814 0.1342 0.84671 0.0
C1208 C 0.11961 0.10991 0.84718 0.0
C1209 C 0.09757 0.12368 0.84716 0.0
C1210 C 0.18925 0.07407 0.83987 0.0
C1211 C 0.20641 0.0922 0.84631 0.0
C1212 C 0.1672 0.08759 0.84003 0.0
C1213 C 0.16166 0.11964 0.84663 0.0
C1214 C 0.17881 0.13782 0.85306 0.0
C1215 C 0.2009 0.12431 0.85289 0.0
H1216 H 0.43864 0.47693 0.60097 0.0
H1217 H 0.46495 0.36767 0.59387 0.0
H1218 H 0.40061 0.45201 0.60166 0.0
H1219 H 0.42683 0.34253 0.59377 0.0
H1220 H 0.35826 0.30087 0.60519 0.0
H1221 H 0.39628 0.32604 0.60526 0.0
H1222 H 0.37094 0.42922 0.59074 0.0
H1223 H 0.33283 0.40432 0.59143 0.0
C1224 C 0.43614 0.44757 0.59936 0.0
C1225 C 0.45465 0.42418 0.59735 0.0
C1226 C 0.41432 0.43319 0.59968 0.0
C1227 C 0.41037 0.39509 0.59772 0.0
C1228 C 0.42904 0.37182 0.59558 0.0
C1229 C 0.45093 0.38615 0.59554 0.0
C1230 C 0.36094 0.32895 0.60205 0.0
C1231 C 0.34267 0.35073 0.59834 0.0
C1232 C 0.38277 0.3434 0.60199 0.0
C1233 C 0.38696 0.37979 0.59795 0.0
C1234 C 0.36852 0.40142 0.59416 0.0
C1235 C 0.34663 0.38718 0.59449 0.0
H1236 H 0.84311 0.87257 0.61764 0.0
H1237 H 0.84839 0.83693 0.58064 0.0
H1238 H 0.88124 0.89634 0.61682 0.0
H1239 H 0.88708 0.85945 0.57998 0.0
H1240 H 0.9476 0.93992 0.58009 0.0
H1241 H 0.90926 0.916 0.58015 0.0
H1242 H 0.91925 0.87336 0.61599 0.0
H1243 H 0.95715 0.89858 0.61614 0.0
C1244 C 0.85229 0.86995 0.60929 0.0
C1245 C 0.84252 0.85275 0.5992 0.0
C1246 C 0.87437 0.88315 0.60888 0.0
C1247 C 0.88737 0.87951 0.59837 0.0
C1248 C 0.87753 0.86289 0.58821 0.0
C1249 C 0.8554 0.84966 0.58862 0.0
C1250 C 0.94161 0.92561 0.58801 0.0
C1251 C 0.95553 0.92151 0.59814 0.0
C1252 C 0.91967 0.91153 0.58799 0.0
C1253 C 0.91107 0.89298 0.59811 0.0
C1254 C 0.92517 0.88804 0.60811 0.0
C1255 C 0.94709 0.90211 0.60813 0.0
H1256 H 0.46847 0.90201 0.68784 0.0
H1257 H 0.4424 0.80669 0.70679 0.0
H1258 H 0.43075 0.9285 0.68716 0.0
H1259 H 0.40481 0.83304 0.70603 0.0
H1260 H 0.33706 0.87419 0.69164 0.0
H1261 H 0.37483 0.84757 0.69175 0.0
H1262 H 0.40246 0.95498 0.70066 0.0
H1263 H 0.36488 0.98173 0.7002 0.0
C1264 C 0.45479 0.88676 0.69192 0.0
C1265 C 0.45861 0.85209 0.69734 0.0
C1266 C 0.43313 0.90196 0.69153 0.0
C1267 C 0.41472 0.88286 0.69652 0.0
C1268 C 0.41852 0.84821 0.70192 0.0
C1269 C 0.44016 0.83307 0.70234 0.0
C1270 C 0.3512 0.89215 0.69354 0.0
C1271 C 0.34787 0.93007 0.69596 0.0
C1272 C 0.37284 0.87684 0.69371 0.0
C1273 C 0.39169 0.89913 0.69623 0.0
C1274 C 0.38836 0.93708 0.69858 0.0
C1275 C 0.36674 0.95233 0.69847 0.0
H1276 H 0.83781 0.38102 0.685 0.0
H1277 H 0.86091 0.46978 0.7081 0.0
H1278 H 0.87538 0.35434 0.68508 0.0
H1279 H 0.89793 0.44198 0.70872 0.0
H1280 H 0.96784 0.40664 0.69722 0.0
H1281 H 0.93026 0.4328 0.6966 0.0
H1282 H 0.90192 0.32242 0.69723 0.0
H1283 H 0.93949 0.29616 0.69715 0.0
C1284 C 0.85077 0.39486 0.69014 0.0
C1285 C 0.84608 0.42778 0.6965 0.0
C1286 C 0.87234 0.37925 0.6903 0.0
C1287 C 0.88982 0.396 0.69688 0.0
C1288 C 0.88505 0.42857 0.70338 0.0
C1289 C 0.86356 0.44429 0.70316 0.0
C1290 C 0.95369 0.38781 0.69709 0.0
C1291 C 0.95695 0.34912 0.69725 0.0
C1292 C 0.93201 0.4029 0.69689 0.0
C1293 C 0.91293 0.3798 0.69693 0.0
C1294 C 0.91616 0.34114 0.69707 0.0
C1295 C 0.93784 0.32603 0.69719 0.0
H1296 H 0.58739 0.65242 0.43949 0.0
H1297 H 0.61435 0.54776 0.45168 0.0
H1298 H 0.62494 0.67936 0.4401 0.0
H1299 H 0.65169 0.57511 0.45276 0.0
H1300 H 0.71885 0.62465 0.44017 0.0
H1301 H 0.68136 0.59732 0.43976 0.0
H1302 H 0.65359 0.69904 0.45406 0.0
H1303 H 0.69083 0.72682 0.454 0.0
C1304 C 0.60128 0.63514 0.44232 0.0
C1305 C 0.59772 0.59786 0.44553 0.0
C1306 C 0.62282 0.65073 0.4428 0.0
C1307 C 0.6414 0.62945 0.4465 0.0
C1308 C 0.63784 0.59223 0.44975 0.0
C1309 C 0.6163 0.57665 0.44928 0.0
C1310 C 0.70476 0.64127 0.44317 0.0
C1311 C 0.70799 0.678 0.44711 0.0
C1312 C 0.68325 0.62545 0.44305 0.0
C1313 C 0.66439 0.64597 0.44687 0.0
C1314 C 0.66766 0.68255 0.45092 0.0
C1315 C 0.68914 0.69835 0.45104 0.0
H1316 H 0.08981 0.14363 0.43301 0.0
H1317 H 0.10854 0.07157 0.46226 0.0
H1318 H 0.12814 0.16815 0.43234 0.0
H1319 H 0.1469 0.09568 0.4615 0.0
H1320 H 0.20593 0.17934 0.46454 0.0
H1321 H 0.1676 0.15491 0.46553 0.0
H1322 H 0.16655 0.14483 0.42687 0.0
H1323 H 0.20471 0.16965 0.42588 0.0
C1324 C 0.10206 0.13321 0.43934 0.0
C1325 C 0.09614 0.1056 0.44767 0.0
C1326 C 0.12407 0.14696 0.43888 0.0
C1327 C 0.14057 0.13373 0.44684 0.0
C1328 C 0.13455 0.10657 0.45529 0.0
C1329 C 0.11262 0.09254 0.45566 0.0
C1330 C 0.1975 0.17188 0.45627 0.0
C1331 C 0.20839 0.17637 0.44514 0.0
C1332 C 0.17561 0.15769 0.45683 0.0
C1333 C 0.16401 0.14807 0.44627 0.0
C1334 C 0.17495 0.15233 0.43515 0.0
C1335 C 0.19692 0.16614 0.4346 0.0
H1336 H 0.71491 0.14104 0.36178 0.0
H1337 H 0.69544 0.06753 0.33293 0.0
H1338 H 0.67683 0.16655 0.36234 0.0
H1339 H 0.6573 0.09264 0.3336 0.0
H1340 H 0.59938 0.17811 0.32997 0.0
H1341 H 0.6374 0.1523 0.32918 0.0
H1342 H 0.63814 0.14495 0.3679 0.0
H1343 H 0.6003 0.17118 0.36868 0.0
C1344 C 0.70254 0.13047 0.35552 0.0
C1345 C 0.7082 0.10222 0.34733 0.0
C1346 C 0.68067 0.14481 0.35592 0.0
C1347 C 0.66404 0.13152 0.34804 0.0
C1348 C 0.66977 0.1036 0.33974 0.0
C1349 C 0.69156 0.08899 0.33943 0.0
C1350 C 0.60769 0.171 0.3383 0.0
C1351 C 0.59681 0.17666 0.34938 0.0
C1352 C 0.62938 0.15599 0.33785 0.0
C1353 C 0.64079 0.14669 0.34848 0.0
C1354 C 0.62987 0.15216 0.35956 0.0
C1355 C 0.60809 0.16679 0.36 0.0
H1356 H 0.21587 0.65353 0.34642 0.0
H1357 H 0.18959 0.54206 0.34913 0.0
H1358 H 0.17772 0.67794 0.34654 0.0
H1359 H 0.15149 0.56634 0.34864 0.0
H1360 H 0.08632 0.62531 0.35967 0.0
H1361 H 0.12453 0.60059 0.36031 0.0
H1362 H 0.14527 0.6812 0.33383 0.0
H1363 H 0.10724 0.70602 0.33332 0.0
C1364 C 0.20202 0.63417 0.34706 0.0
C1365 C 0.20596 0.59574 0.34773 0.0
C1366 C 0.18008 0.64817 0.34698 0.0
C1367 C 0.16146 0.62413 0.34753 0.0
C1368 C 0.16538 0.58574 0.34831 0.0
C1369 C 0.18732 0.57175 0.34843 0.0
C1370 C 0.09901 0.63753 0.35393 0.0
C1371 C 0.09373 0.66777 0.34649 0.0
C1372 C 0.12093 0.62337 0.35429 0.0
C1373 C 0.13807 0.639 0.34717 0.0
C1374 C 0.13266 0.66896 0.33963 0.0
C1375 C 0.11081 0.68318 0.33931 0.0
H1376 H 0.53411 0.9463 0.05104 0.0
H1377 H 0.51871 0.06318 0.05351 0.0
H1378 H 0.5339 0.95003 0.02928 0.0
H1379 H 0.51929 0.06736 0.03157 0.0
H1380 H 0.49962 0.05394 0.99219 0.0
H1381 H 0.49956 0.0506 1.01396 0.0
H1382 H 0.55443 0.97198 1.01258 0.0
H1383 H 0.55388 0.97439 0.99063 0.0
C1384 C 0.53078 0.97295 0.04693 0.0
C1385 C 0.52643 1.00448 0.05404 0.0
C1386 C 0.53086 0.97514 0.03439 0.0
C1387 C 0.52678 1.00903 0.02857 0.0
C1388 C 0.52225 0.04063 0.0357 0.0
C1389 C 0.52197 0.03833 0.04829 0.0
C1390 C 0.51171 0.03588 0.9965 0.0
C1391 C 0.52675 0.01435 0.98963 0.0
C1392 C 0.51178 0.0342 1.00905 0.0
C1393 C 0.52702 0.01113 1.01513 0.0
C1394 C 0.54218 0.98967 1.00825 0.0
C1395 C 0.54198 0.99114 0.99565 0.0
H1396 H 0.74685 0.18863 0.05058 0.0
H1397 H 0.79908 0.27109 0.05442 0.0
H1398 H 0.74368 0.20344 0.02932 0.0
H1399 H 0.79548 0.28668 0.03319 0.0
H1400 H 0.79607 0.28061 0.99169 0.0
H1401 H 0.80129 0.26627 1.01291 0.0
H1402 H 0.72952 0.25216 1.01695 0.0
H1403 H 0.72438 0.26545 0.9957 0.0
C1404 C 0.75778 0.20978 0.04688 0.0
C1405 C 0.77318 0.22869 0.05425 0.0
C1406 C 0.75578 0.21859 0.03469 0.0
C1407 C 0.76905 0.24674 0.02952 0.0
C1408 C 0.78505 0.26474 0.0368 0.0
C1409 C 0.78712 0.25578 0.04901 0.0
C1410 C 0.78136 0.27488 0.99713 0.0
C1411 C 0.75979 0.27404 0.99194 0.0
C1412 C 0.78436 0.26666 1.00933 0.0
C1413 C 0.76587 0.2575 1.01666 0.0
C1414 C 0.74423 0.25815 1.01155 0.0
C1415 C 0.74124 0.2662 0.99936 0.0
H1416 H 0.56135 0.2938 0.24112 0.0
H1417 H 0.50488 0.21843 0.24043 0.0
H1418 H 0.5618 0.29156 0.2629 0.0
H1419 H 0.50489 0.21698 0.26242 0.0
H1420 H 0.52512 0.19472 0.30132 0.0
H1421 H 0.52549 0.19539 0.27947 0.0
H1422 H 0.54141 0.31239 0.28005 0.0
H1423 H 0.54167 0.31141 0.30199 0.0
C1424 C 0.54892 0.27679 0.24562 0.0
C1425 C 0.53302 0.25632 0.239 0.0
C1426 C 0.54909 0.27575 0.25817 0.0
C1427 C 0.53328 0.25436 0.26449 0.0
C1428 C 0.51749 0.23349 0.25787 0.0
C1429 C 0.5174 0.23438 0.24526 0.0
C1430 C 0.5288 0.22062 0.2968 0.0
C1431 C 0.5334 0.25304 0.30343 0.0
C1432 C 0.52882 0.22103 0.28423 0.0
C1433 C 0.53336 0.25394 0.27792 0.0
C1434 C 0.53813 0.28638 0.28457 0.0
C1435 C 0.53822 0.2859 0.29717 0.0
H1436 H 0.78602 0.06686 0.24137 0.0
H1437 H 0.7801 0.94752 0.24299 0.0
H1438 H 0.78539 0.06965 0.26335 0.0
H1439 H 0.78013 0.95012 0.26478 0.0
H1440 H 0.75728 0.96878 0.30342 0.0
H1441 H 0.75735 0.96735 0.28145 0.0
H1442 H 0.80658 0.05555 0.28092 0.0
H1443 H 0.80597 0.05769 0.30273 0.0
C1444 C 0.78486 0.04124 0.24641 0.0
C1445 C 0.78304 1.00703 0.2404 0.0
C1446 C 0.78453 0.04276 0.25902 0.0
C1447 C 0.78252 1.01008 0.26591 0.0
C1448 C 0.78117 0.97592 0.25984 0.0
C1449 C 0.78136 0.97444 0.24729 0.0
C1450 C 0.7681 0.98782 0.2986 0.0
C1451 C 0.78159 0.01331 0.30486 0.0
C1452 C 0.76825 0.98694 0.28599 0.0
C1453 C 0.78199 0.01138 0.27934 0.0
C1454 C 0.7955 0.03675 0.28567 0.0
C1455 C 0.79526 0.03775 0.29823 0.0
H1456 H 0.25703 0.80463 0.99136 0.0
H1457 H 0.29954 0.70742 0.99103 0.0
H1458 H 0.2589 0.80609 1.0133 0.0
H1459 H 0.30212 0.70963 1.01277 0.0
H1460 H 0.28532 0.70265 0.05277 0.0
H1461 H 0.28233 0.69973 0.03089 0.0
H1462 H 0.28385 0.81957 0.02928 0.0
H1463 H 0.28601 0.82235 0.05107 0.0
C1464 C 0.26682 0.78369 0.99596 0.0
C1465 C 0.27809 0.75594 0.98943 0.0
C1466 C 0.26805 0.78461 1.00854 0.0
C1467 C 0.28074 0.75799 1.01487 0.0
C1468 C 0.29189 0.73022 1.00828 0.0
C1469 C 0.29051 0.72912 0.99576 0.0
C1470 C 0.28518 0.7283 0.04772 0.0
C1471 C 0.28586 0.76269 0.05366 0.0
C1472 C 0.28349 0.7267 0.03516 0.0
C1473 C 0.28266 0.75946 0.02826 0.0
C1474 C 0.28389 0.79377 0.03426 0.0
C1475 C 0.28536 0.79536 0.04678 0.0
H1476 H 0.50074 0.72498 0.74095 0.0
H1477 H 0.55988 0.79435 0.74251 0.0
H1478 H 0.49883 0.72506 0.76289 0.0
H1479 H 0.55856 0.79334 0.76431 0.0
H1480 H 0.53857 0.81431 0.80324 0.0
H1481 H 0.53897 0.81596 0.78127 0.0
H1482 H 0.51652 0.70189 0.78023 0.0
H1483 H 0.51531 0.70083 0.80201 0.0
C1484 C 0.51346 0.73989 0.74597 0.0
C1485 C 0.53042 0.75968 0.73997 0.0
C1486 C 0.51245 0.73989 0.75857 0.0
C1487 C 0.52852 0.75935 0.76546 0.0
C1488 C 0.5456 0.7787 0.75938 0.0
C1489 C 0.54647 0.779 0.74683 0.0
C1490 C 0.53369 0.78968 0.79829 0.0
C1491 C 0.52687 0.75752 0.80439 0.0
C1492 C 0.53402 0.79049 0.78568 0.0
C1493 C 0.52774 0.75903 0.77889 0.0
C1494 C 0.52103 0.7269 0.78507 0.0
C1495 C 0.52051 0.72623 0.79762 0.0
H1496 H 0.24312 0.05968 0.74582 0.0
H1497 H 0.31156 0.02286 0.74034 0.0
H1498 H 0.24627 0.04606 0.76718 0.0
H1499 H 0.31466 1.00931 0.76182 0.0
H1500 H 0.3169 0.03638 0.80294 0.0
H1501 H 0.315 0.04464 0.78125 0.0
H1502 H 0.25025 0.99045 0.7807 0.0
H1503 H 0.25214 0.98211 0.80255 0.0
C1504 C 0.25891 0.0489 0.74917 0.0
C1505 C 0.27713 0.0425 0.74135 0.0
C1506 C 0.26061 0.04071 0.76141 0.0
C1507 C 0.28063 0.02628 0.76618 0.0
C1508 C 0.29901 0.02048 0.75842 0.0
C1509 C 0.29725 0.0283 0.74612 0.0
C1510 C 0.30233 0.02584 0.7982 0.0
C1511 C 0.2846 1.00873 0.80448 0.0
C1512 C 0.30132 0.03044 0.78574 0.0
C1513 C 0.28243 0.01842 0.77927 0.0
C1514 C 0.26493 1.00036 0.78548 0.0
C1515 C 0.26608 0.99532 0.79796 0.0
H1516 H 0.52991 0.45641 0.48987 0.0
H1517 H 0.53421 0.57577 0.49239 0.0
H1518 H 0.5264 0.45263 0.51169 0.0
H1519 H 0.53166 0.57209 0.51415 0.0
H1520 H 0.50466 0.55725 0.55217 0.0
H1521 H 0.50681 0.56033 0.53024 0.0
H1522 H 0.546 0.45927 0.5298 0.0
H1523 H 0.54302 0.45548 0.55147 0.0
C1524 C 0.53046 0.48178 0.4951 0.0
C1525 C 0.53233 0.51635 0.48939 0.0
C1526 C 0.52849 0.4797 0.50763 0.0
C1527 C 0.52862 0.51211 0.51477 0.0
C1528 C 0.53096 0.54658 0.50901 0.0
C1529 C 0.53267 0.54866 0.4965 0.0
C1530 C 0.51362 0.53566 0.54735 0.0
C1531 C 0.52357 0.50609 0.55359 0.0
C1532 C 0.51501 0.5375 0.53477 0.0
C1533 C 0.5266 0.51001 0.52816 0.0
C1534 C 0.53655 0.48056 0.53447 0.0
C1535 C 0.53495 0.47854 0.54697 0.0
H1536 H 0.74836 0.80999 0.5543 0.0
H1537 H 0.79761 0.72192 0.55499 0.0
H1538 H 0.74789 0.80789 0.53252 0.0
H1539 H 0.79774 0.72062 0.533 0.0
H1540 H 0.77506 0.70095 0.49438 0.0
H1541 H 0.77557 0.70319 0.51619 0.0
H1542 H 0.76858 0.82252 0.51501 0.0
H1543 H 0.76732 0.82003 0.49307 0.0
C1544 C 0.75928 0.79029 0.54979 0.0
C1545 C 0.77303 0.76606 0.55643 0.0
C1546 C 0.75912 0.78931 0.53724 0.0
C1547 C 0.77282 0.76422 0.5309 0.0
C1548 C 0.7867 0.74001 0.53754 0.0
C1549 C 0.78675 0.74084 0.55016 0.0
C1550 C 0.77353 0.72772 0.49875 0.0
C1551 C 0.7711 0.76035 0.49195 0.0
C1552 C 0.77404 0.72902 0.51131 0.0
C1553 C 0.77229 0.76302 0.51746 0.0
C1554 C 0.7697 0.79571 0.51063 0.0
C1555 C 0.76902 0.79437 0.49803 0.0
H1556 H 0.81547 0.46052 0.80102 0.0
H1557 H 0.74625 0.49439 0.80533 0.0
H1558 H 0.81452 0.4792 0.78011 0.0
H1559 H 0.74487 0.51151 0.78414 0.0
H1560 H 0.75597 0.57708 0.74983 0.0
H1561 H 0.75728 0.55724 0.77073 0.0
H1562 H 0.80178 0.4673 0.76079 0.0
H1563 H 0.80127 0.48833 0.74005 0.0
C1564 C 0.79983 0.47117 0.79744 0.0
C1565 C 0.78094 0.47598 0.80491 0.0
C1566 C 0.79926 0.48187 0.78537 0.0
C1567 C 0.77967 0.49726 0.78033 0.0
C1568 C 0.76046 0.50064 0.78771 0.0
C1569 C 0.76113 0.49036 0.79985 0.0
C1570 C 0.76626 0.55335 0.75215 0.0
C1571 C 0.77861 0.53446 0.74326 0.0
C1572 C 0.7668 0.54161 0.76414 0.0
C1573 C 0.77947 0.51032 0.76755 0.0
C1574 C 0.79207 0.49179 0.75864 0.0
C1575 C 0.79176 0.50385 0.74668 0.0
H1576 H 0.29692 0.20612 0.49185 0.0
H1577 H 0.25593 0.30509 0.49157 0.0
H1578 H 0.29863 0.20853 0.51365 0.0
H1579 H 0.25699 0.30684 0.51351 0.0
H1580 H 0.28368 0.32421 0.55115 0.0
H1581 H 0.28233 0.32 0.5294 0.0
H1582 H 0.27795 0.20052 0.53182 0.0
H1583 H 0.28001 0.20481 0.55375 0.0
C1584 C 0.28805 0.22826 0.49645 0.0
C1585 C 0.27635 0.25556 0.48993 0.0
C1586 C 0.28893 0.22947 0.509 0.0
C1587 C 0.27803 0.25791 0.51541 0.0
C1588 C 0.26596 0.28487 0.50889 0.0
C1589 C 0.2652 0.28378 0.4963 0.0
C1590 C 0.28257 0.29695 0.54706 0.0
C1591 C 0.28191 0.26481 0.5542 0.0
C1592 C 0.28157 0.29458 0.53455 0.0
C1593 C 0.27969 0.25998 0.52879 0.0
C1594 C 0.27954 0.22766 0.53592 0.0
C1595 C 0.28072 0.23005 0.5485 0.0
H1596 H 0.27382 0.45453 0.30361 0.0
H1597 H 0.28317 0.57328 0.3023 0.0
H1598 H 0.27518 0.45195 0.28169 0.0
H1599 H 0.28354 0.57109 0.2805 0.0
H1600 H 0.30333 0.55304 0.24147 0.0
H1601 H 0.30437 0.55396 0.26343 0.0
H1602 H 0.25465 0.46644 0.2644 0.0
H1603 H 0.25443 0.46453 0.24262 0.0
C1604 C 0.27595 0.4801 0.29864 0.0
C1605 C 0.2784 0.51405 0.30471 0.0
C1606 C 0.27664 0.47872 0.28605 0.0
C1607 C 0.2795 0.51135 0.27923 0.0
C1608 C 0.28179 0.54528 0.28537 0.0
C1609 C 0.28138 0.54657 0.29792 0.0
C1610 C 0.2927 0.53399 0.24641 0.0
C1611 C 0.27886 0.50869 0.24028 0.0
C1612 C 0.29317 0.53459 0.25901 0.0
C1613 C 0.27959 0.51021 0.26578 0.0
C1614 C 0.26571 0.4851 0.25958 0.0
C1615 C 0.26545 0.48422 0.24703 0.0
H1616 H 1.01963 0.075 0.49246 0.0
H1617 H 0.03097 0.95682 0.49035 0.0
H1618 H 1.01844 0.07155 0.51422 0.0
H1619 H 0.02879 0.9529 0.51225 0.0
H1620 H 0.04724 0.96436 0.55177 0.0
H1621 H 0.04799 0.96712 0.53001 0.0
H1622 H 0.99705 0.05274 0.53081 0.0
H1623 H 0.9971 0.05101 0.55277 0.0
C1624 C 1.0217 0.04813 0.49666 0.0
C1625 C 1.02543 0.01616 0.48965 0.0
C1626 C 1.02081 0.0461 0.50918 0.0
C1627 C 1.02335 0.01193 0.5151 0.0
C1628 C 1.02708 0.97985 0.50807 0.0
C1629 C 0.02826 0.98199 0.49549 0.0
C1630 C 0.03614 0.9838 0.54733 0.0
C1631 C 1.02212 1.00755 0.55404 0.0
C1632 C 0.03645 0.98517 0.53478 0.0
C1633 C 1.02255 1.01005 0.52854 0.0
C1634 C 1.0083 0.0336 0.53527 0.0
C1635 C 1.0082 0.03252 0.54787 0.0
H1636 H 1.02067 0.20514 0.74131 0.0
H1637 H 0.03554 0.32231 0.74306 0.0
H1638 H 1.02111 0.20217 0.76321 0.0
H1639 H 0.03506 0.31982 0.76489 0.0
H1640 H 0.05216 0.2965 0.8044 0.0
H1641 H 0.05386 0.29971 0.78241 0.0
H1642 H 1.00006 0.21932 0.78007 0.0
H1643 H 0.99908 0.21515 0.80176 0.0
C1644 C 1.02383 0.23032 0.74637 0.0
C1645 C 0.02801 0.26392 0.74041 0.0
C1646 C 1.02399 0.22874 0.75895 0.0
C1647 C 0.02802 0.26084 0.76592 0.0
C1648 C 0.03224 0.29439 0.75991 0.0
C1649 C 0.03234 0.29587 0.74734 0.0
C1650 C 0.04072 0.27965 0.79914 0.0
C1651 C 1.02563 0.25539 0.80484 0.0
C1652 C 0.04161 0.2815 0.78653 0.0
C1653 C 1.02725 0.25944 0.77937 0.0
C1654 C 1.01184 0.23597 0.78518 0.0
C1655 C 1.01115 0.23382 0.79769 0.0
H1656 H 0.0506 0.80666 0.24258 0.0
H1657 H 1.00015 0.72062 0.24109 0.0
H1658 H 0.05032 0.80412 0.26435 0.0
H1659 H 0.99904 0.71914 0.26305 0.0
H1660 H 1.01879 0.69819 0.30186 0.0
H1661 H 1.0191 0.70075 0.28008 0.0
H1662 H 0.0302 0.81926 0.28174 0.0
H1663 H 0.03091 0.81619 0.30367 0.0
C1664 C 0.03924 0.78737 0.24692 0.0
C1665 C 1.02539 0.76379 0.24008 0.0
C1666 C 0.03895 0.78614 0.25947 0.0
C1667 C 1.02458 0.76159 0.26558 0.0
C1668 C 1.01061 0.73804 0.25871 0.0
C1669 C 1.01113 0.73895 0.2461 0.0
C1670 C 1.02134 0.72484 0.29759 0.0
C1671 C 1.02485 0.75702 0.30452 0.0
C1672 C 1.02133 0.72636 0.28504 0.0
C1673 C 1.02453 0.76022 0.27903 0.0
C1674 C 0.02802 0.79251 0.28599 0.0
C1675 C 0.02834 0.79088 0.29859 0.0
H1676 H 0.05449 0.47821 0.98924 0.0
H1677 H 0.99982 0.55662 0.99211 0.0
H1678 H 0.05654 0.47523 1.01121 0.0
H1679 H 1.00118 0.55265 1.0138 0.0
H1680 H 1.02184 0.56735 0.05255 0.0
H1681 H 1.02208 0.57072 0.03064 0.0
H1682 H 0.03803 0.4538 0.0287 0.0
H1683 H 0.03868 0.45093 0.05051 0.0
C1684 C 0.0428 0.49448 0.99455 0.0
C1685 C 1.02712 0.5178 0.98892 0.0
C1686 C 0.04388 0.49275 1.00715 0.0
C1687 C 0.02914 0.514 1.01437 0.0
C1688 C 1.01322 0.53664 1.00864 0.0
C1689 C 1.01232 0.53866 0.99613 0.0
C1690 C 1.0254 0.54242 0.04743 0.0
C1691 C 0.03019 0.50891 0.05329 0.0
C1692 C 1.02545 0.54423 0.03484 0.0
C1693 C 0.03001 0.51245 0.0278 0.0
C1694 C 0.03482 0.47899 0.03374 0.0
C1695 C 0.03501 0.4773 0.04629 0.0
H1696 H 0.63518 0.03303 0.09421 0.0
H1697 H 0.58577 0.11901 0.10048 0.0
H1698 H 0.66494 0.07936 0.09498 0.0
H1699 H 0.61555 0.1652 0.10099 0.0
H1700 H 0.67341 0.23867 0.08609 0.0
H1701 H 0.643 0.19355 0.08683 0.0
H1702 H 0.68331 0.12277 0.10943 0.0
H1703 H 0.71364 0.16813 0.10892 0.0
C1704 C 0.63058 0.06163 0.09584 0.0
C1705 C 0.60788 0.07201 0.09721 0.0
C1706 C 0.64771 0.08825 0.09628 0.0
C1707 C 0.64261 0.126 0.09802 0.0
C1708 C 0.62001 0.13642 0.09946 0.0
C1709 C 0.60289 0.1098 0.09913 0.0
C1710 C 0.67576 0.21389 0.0914 0.0
C1711 C 0.6962 0.20716 0.09738 0.0
C1712 C 0.65827 0.18791 0.09179 0.0
C1713 C 0.66079 0.15442 0.09811 0.0
C1714 C 0.68098 0.148 0.1043 0.0
C1715 C 0.6984 0.17409 0.104 0.0
H1716 H 0.6299 0.23545 0.18854 0.0
H1717 H 0.58459 0.15215 0.2024 0.0
H1718 H 0.66078 0.19086 0.18936 0.0
H1719 H 0.61549 0.10819 0.20364 0.0
H1720 H 0.67147 0.02754 0.19249 0.0
H1721 H 0.64043 0.07167 0.19092 0.0
H1722 H 0.68359 0.15894 0.20422 0.0
H1723 H 0.71443 0.11507 0.2058 0.0
C1724 C 0.62652 0.2077 0.19177 0.0
C1725 C 0.60476 0.19757 0.19547 0.0
C1726 C 0.64425 0.18221 0.19235 0.0
C1727 C 0.64063 0.14592 0.19659 0.0
C1728 C 0.61885 0.13576 0.20022 0.0
C1729 C 0.60116 0.16123 0.19967 0.0
C1730 C 0.67428 0.05607 0.19514 0.0
C1731 C 0.69553 0.06768 0.1992 0.0
C1732 C 0.6565 0.0814 0.19424 0.0
C1733 C 0.65954 0.11892 0.19739 0.0
C1734 C 0.68076 0.13044 0.20149 0.0
C1735 C 0.69849 0.10519 0.20239 0.0
H1736 H 0.47073 0.90172 0.94844 0.0
H1737 H 0.42304 0.99202 0.947 0.0
H1738 H 0.43989 0.85737 0.94902 0.0
H1739 H 0.39218 0.94754 0.9471 0.0
H1740 H 0.34255 0.86034 0.96059 0.0
H1741 H 0.37365 0.9041 0.96036 0.0
H1742 H 0.4105 0.83162 0.93644 0.0
H1743 H 0.37927 0.78768 0.93668 0.0
C1744 C 0.45369 0.91221 0.9483 0.0
C1745 C 0.44946 0.95062 0.94774 0.0
C1746 C 0.43597 0.88666 0.94847 0.0
C1747 C 0.4135 0.89879 0.9481 0.0
C1748 C 0.40925 0.93718 0.94754 0.0
C1749 C 0.42699 0.96273 0.94735 0.0
C1750 C 0.35716 0.85378 0.95519 0.0
C1751 C 0.35826 0.82046 0.94859 0.0
C1752 C 0.37505 0.87897 0.95506 0.0
C1753 C 0.39458 0.87158 0.94833 0.0
C1754 C 0.39583 0.83806 0.94183 0.0
C1755 C 0.3779 0.81281 0.94197 0.0
H1756 H 0.46894 0.86649 0.84175 0.0
H1757 H 0.42444 0.77943 0.85378 0.0
H1758 H 0.43748 0.90981 0.84134 0.0
H1759 H 0.39301 0.82309 0.85368 0.0
H1760 H 0.33809 0.90131 0.84022 0.0
H1761 H 0.36971 0.85846 0.83959 0.0
H1762 H 0.41236 0.9421 0.85552 0.0
H1763 H 0.38073 0.98546 0.85586 0.0
C1764 C 0.45242 0.85645 0.84421 0.0
C1765 C 0.44922 0.81932 0.84774 0.0
C1766 C 0.43442 0.88147 0.84413 0.0
C1767 C 0.41271 0.87 0.8475 0.0
C1768 C 0.40946 0.8328 0.85092 0.0
C1769 C 0.42751 0.80782 0.85108 0.0
C1770 C 0.35426 0.91086 0.84342 0.0
C1771 C 0.35686 0.94701 0.84803 0.0
C1772 C 0.37235 0.88605 0.8432 0.0
C1773 C 0.39358 0.89675 0.84753 0.0
C1774 C 0.39629 0.93304 0.85201 0.0
C1775 C 0.37813 0.95781 0.8523 0.0
H1776 H 0.66766 0.74036 0.59599 0.0
H1777 H 0.7164 0.65167 0.59683 0.0
H1778 H 0.63729 0.6948 0.59542 0.0
H1779 H 0.68622 0.60615 0.59651 0.0
H1780 H 0.62749 0.53412 0.58398 0.0
H1781 H 0.65792 0.57947 0.58418 0.0
H1782 H 0.61858 0.65015 0.60759 0.0
H1783 H 0.58805 0.60507 0.60713 0.0
C1784 C 0.67187 0.71114 0.59611 0.0
C1785 C 0.69444 0.69969 0.59638 0.0
C1786 C 0.65448 0.68496 0.59583 0.0
C1787 C 0.65924 0.64666 0.59593 0.0
C1788 C 0.68186 0.63531 0.59619 0.0
C1789 C 0.69922 0.66146 0.59638 0.0
C1790 C 0.62546 0.55916 0.58926 0.0
C1791 C 0.60534 0.56603 0.59552 0.0
C1792 C 0.64291 0.58524 0.58939 0.0
C1793 C 0.64073 0.61868 0.59586 0.0
C1794 C 0.62071 0.62515 0.60229 0.0
C1795 C 0.60323 0.59922 0.60208 0.0
H1796 H 0.63192 0.73847 0.69322 0.0
H1797 H 0.58474 0.65265 0.70294 0.0
H1798 H 0.66274 0.69378 0.69458 0.0
H1799 H 0.61518 0.60784 0.704 0.0
H1800 H 0.67706 0.54489 0.71672 0.0
H1801 H 0.64654 0.58978 0.71549 0.0
H1802 H 0.67902 0.64136 0.68501 0.0
H1803 H 0.70982 0.5969 0.68652 0.0
C1804 C 0.62815 0.71002 0.69559 0.0
C1805 C 0.60594 0.69923 0.69809 0.0
C1806 C 0.64577 0.68429 0.69631 0.0
C1807 C 0.64155 0.64704 0.69942 0.0
C1808 C 0.61924 0.63635 0.70184 0.0
C1809 C 0.60171 0.66211 0.70123 0.0
C1810 C 0.67754 0.56555 0.70968 0.0
C1811 C 0.69585 0.5673 0.70171 0.0
C1812 C 0.66002 0.59137 0.70895 0.0
C1813 C 0.66023 0.6194 0.70015 0.0
C1814 C 0.67843 0.62072 0.69206 0.0
C1815 C 0.69605 0.5951 0.69287 0.0
H1816 H 0.42226 0.49399 0.45595 0.0
H1817 H 0.46514 0.41424 0.43811 0.0
H1818 H 0.39134 0.44948 0.45549 0.0
H1819 H 0.43433 0.36984 0.43769 0.0
H1820 H 0.38245 0.28637 0.45215 0.0
H1821 H 0.41294 0.33157 0.45165 0.0
H1822 H 0.36575 0.41735 0.44182 0.0
H1823 H 0.33531 0.37221 0.44226 0.0
C1824 C 0.42505 0.46719 0.45181 0.0
C1825 C 0.4463 0.45769 0.44716 0.0
C1826 C 0.40731 0.44161 0.45155 0.0
C1827 C 0.41039 0.40593 0.44663 0.0
C1828 C 0.43149 0.39676 0.44176 0.0
C1829 C 0.44918 0.4223 0.442 0.0
C1830 C 0.37858 0.31474 0.44975 0.0
C1831 C 0.35634 0.32555 0.44731 0.0
C1832 C 0.39608 0.34072 0.44947 0.0
C1833 C 0.3918 0.37817 0.44673 0.0
C1834 C 0.3696 0.3889 0.44417 0.0
C1835 C 0.35212 0.36294 0.44443 0.0
H1836 H 0.42161 0.28128 0.34333 0.0
H1837 H 0.46908 0.37168 0.34637 0.0
H1838 H 0.39072 0.32545 0.34438 0.0
H1839 H 0.43836 0.4157 0.34668 0.0
H1840 H 0.37804 0.48237 0.35984 0.0
H1841 H 0.40893 0.43828 0.35898 0.0
H1842 H 0.37211 0.37237 0.33318 0.0
H1843 H 0.34076 0.41508 0.33456 0.0
C1844 C 0.42555 0.31046 0.34419 0.0
C1845 C 0.44802 0.32261 0.34472 0.0
C1846 C 0.40778 0.33594 0.34463 0.0
C1847 C 0.41197 0.3743 0.34557 0.0
C1848 C 0.43441 0.38642 0.3461 0.0
C1849 C 0.45214 0.36099 0.34574 0.0
C1850 C 0.37641 0.4584 0.35403 0.0
C1851 C 0.35668 0.45251 0.34733 0.0
C1852 C 0.3943 0.43322 0.35344 0.0
C1853 C 0.39306 0.40155 0.34604 0.0
C1854 C 0.37356 0.39605 0.33914 0.0
C1855 C 0.35562 0.42108 0.33979 0.0
H1856 H 0.12571 0.03951 0.60484 0.0
H1857 H 0.08413 0.11766 0.58561 0.0
H1858 H 0.15631 0.08459 0.60505 0.0
H1859 H 0.11459 0.16259 0.58588 0.0
H1860 H 0.16707 0.24706 0.59856 0.0
H1861 H 0.13614 0.20253 0.59943 0.0
H1862 H 0.1823 0.11369 0.59095 0.0
H1863 H 0.21302 0.15789 0.59002 0.0
C1864 C 0.12309 0.06615 0.60061 0.0
C1865 C 0.10236 0.07482 0.59523 0.0
C1866 C 0.14064 0.09205 0.60074 0.0
C1867 C 0.13789 0.12728 0.5955 0.0
C1868 C 0.11715 0.13599 0.59018 0.0
C1869 C 0.09965 0.11012 0.59003 0.0
C1870 C 0.1706 0.21808 0.59683 0.0
C1871 C 0.19263 0.20621 0.59428 0.0
C1872 C 0.15287 0.19253 0.59733 0.0
C1873 C 0.15675 0.15449 0.5953 0.0
C1874 C 0.17877 0.14265 0.59279 0.0
C1875 C 0.19644 0.16813 0.59227 0.0
H1876 H 0.17204 0.02985 0.69581 0.0
H1877 H 0.21751 0.12054 0.70321 0.0
H1878 H 0.14073 0.07367 0.6949 0.0
H1879 H 0.18642 0.16402 0.70228 0.0
H1880 H 0.12922 0.23564 0.68756 0.0
H1881 H 0.16031 0.19149 0.68815 0.0
H1882 H 0.1187 0.11446 0.70788 0.0
H1883 H 0.08746 0.15794 0.70692 0.0
C1884 C 0.17538 0.05903 0.69727 0.0
C1885 C 0.1974 0.07152 0.69949 0.0
C1886 C 0.15743 0.08418 0.69677 0.0
C1887 C 0.16106 0.12244 0.69848 0.0
C1888 C 0.18305 0.13488 0.70069 0.0
C1889 C 0.20095 0.10981 0.7012 0.0
C1890 C 0.12669 0.20926 0.69199 0.0
C1891 C 0.10582 0.20054 0.69723 0.0
C1892 C 0.14457 0.18402 0.69241 0.0
C1893 C 0.14202 0.14935 0.69805 0.0
C1894 C 0.1212 0.14071 0.70334 0.0
C1895 C 0.10334 0.16597 0.70295 0.0
H1896 H 0.96851 0.90795 0.45417 0.0
H1897 H 0.92345 0.99118 0.44015 0.0
H1898 H 0.93741 0.86415 0.45554 0.0
H1899 H 0.89236 0.94696 0.44124 0.0
H1900 H 0.83865 0.8712 0.45788 0.0
H1901 H 0.86967 0.91478 0.45654 0.0
H1902 H 0.91229 0.82828 0.44223 0.0
H1903 H 0.88107 0.78447 0.44342 0.0
C1904 C 0.95194 0.91705 0.45146 0.0
C1905 C 0.94845 0.95325 0.44712 0.0
C1906 C 0.93415 0.89172 0.4521 0.0
C1907 C 0.9124 0.902 0.44849 0.0
C1908 C 0.90887 0.93825 0.4442 0.0
C1909 C 0.92671 0.96351 0.44348 0.0
C1910 C 0.85448 0.86137 0.4543 0.0
C1911 C 0.85718 0.82414 0.45068 0.0
C1912 C 0.87233 0.88649 0.45355 0.0
C1913 C 0.89344 0.8751 0.44924 0.0
C1914 C 0.89629 0.83786 0.44572 0.0
C1915 C 0.87837 0.81271 0.44641 0.0
H1916 H 0.96725 0.86739 0.34097 0.0
H1917 H 0.92111 0.78305 0.35326 0.0
H1918 H 0.93659 0.91217 0.34025 0.0
H1919 H 0.89045 0.8282 0.35282 0.0
H1920 H 0.83716 0.90882 0.33913 0.0
H1921 H 0.86805 0.86452 0.33838 0.0
H1922 H 0.91209 0.94573 0.35456 0.0
H1923 H 0.88119 0.9905 0.35504 0.0
C1924 C 0.95053 0.85826 0.3434 0.0
C1925 C 0.94662 0.8215 0.34712 0.0
C1926 C 0.93299 0.8841 0.34313 0.0
C1927 C 0.91108 0.87381 0.34649 0.0
C1928 C 0.9071 0.83695 0.35006 0.0
C1929 C 0.92469 0.81115 0.35042 0.0
C1930 C 0.8535 0.91754 0.34234 0.0
C1931 C 0.85673 0.95337 0.3471 0.0
C1932 C 0.87115 0.89192 0.34205 0.0
C1933 C 0.89251 0.90151 0.34645 0.0
C1934 C 0.89588 0.93754 0.35101 0.0
C1935 C 0.87816 0.96312 0.35137 0.0
H1936 H 0.17472 0.73955 0.1006 0.0
H1937 H 0.21832 0.65312 0.08698 0.0
H1938 H 0.1436 0.6954 0.10126 0.0
H1939 H 0.18742 0.60923 0.08781 0.0
H1940 H 0.13283 0.53251 0.10344 0.0
H1941 H 0.16388 0.57698 0.10279 0.0
H1942 H 0.11953 0.65907 0.08747 0.0
H1943 H 0.0885 0.61506 0.08839 0.0
C1944 C 0.17771 0.71131 0.09769 0.0
C1945 C 0.19919 0.70007 0.09382 0.0
C1946 C 0.15985 0.68597 0.09808 0.0
C1947 C 0.16306 0.64872 0.09465 0.0
C1948 C 0.18447 0.63753 0.09073 0.0
C1949 C 0.20225 0.66284 0.09027 0.0
C1950 C 0.12974 0.56006 0.09995 0.0
C1951 C 0.10822 0.57006 0.0959 0.0
C1952 C 0.14754 0.58547 0.0995 0.0
C1953 C 0.14417 0.62161 0.09508 0.0
C1954 C 0.12265 0.6316 0.09103 0.0
C1955 C 0.10492 0.60613 0.0914 0.0
H1956 H 0.13167 0.73986 0.20492 0.0
H1957 H 0.08701 0.65815 0.18949 0.0
H1958 H 0.1623 0.69499 0.20439 0.0
H1959 H 0.11762 0.61325 0.18903 0.0
H1960 H 0.17147 0.53231 0.20365 0.0
H1961 H 0.14059 0.57691 0.20301 0.0
H1962 H 0.18633 0.66126 0.19029 0.0
H1963 H 0.21708 0.6168 0.19086 0.0
C1964 C 0.1284 0.71252 0.20129 0.0
C1965 C 0.10677 0.7027 0.19731 0.0
C1966 C 0.14599 0.68673 0.20099 0.0
C1967 C 0.1424 0.65044 0.19671 0.0
C1968 C 0.12087 0.64075 0.19258 0.0
C1969 C 0.1033 0.66655 0.19285 0.0
C1970 C 0.17489 0.56022 0.20058 0.0
C1971 C 0.19685 0.57095 0.19741 0.0
C1972 C 0.15719 0.58582 0.20022 0.0
C1973 C 0.16101 0.62277 0.19668 0.0
C1974 C 0.18287 0.63326 0.19328 0.0
C1975 C 0.20053 0.6077 0.19362 0.0
H1976 H 0.8357 0.37011 0.94871 0.0
H1977 H 0.88468 0.28206 0.94683 0.0
H1978 H 0.86561 0.41601 0.9483 0.0
H1979 H 0.91499 0.32794 0.94691 0.0
H1980 H 0.96356 0.42021 0.93608 0.0
H1981 H 0.93364 0.37387 0.9358 0.0
H1982 H 0.89408 0.44281 0.95968 0.0
H1983 H 0.92367 0.48946 0.9595 0.0
C1984 C 0.85295 0.36058 0.9484 0.0
C1985 C 0.85785 0.32246 0.9479 0.0
C1986 C 0.87019 0.38693 0.9482 0.0
C1987 C 0.8929 0.37594 0.94767 0.0
C1988 C 0.89777 0.33766 0.94714 0.0
C1989 C 0.88043 0.31126 0.94716 0.0
C1990 C 0.94843 0.42535 0.94125 0.0
C1991 C 0.94592 0.45857 0.94775 0.0
C1992 C 0.93128 0.39869 0.94115 0.0
C1993 C 0.91127 0.40435 0.94771 0.0
C1994 C 0.90893 0.43762 0.95429 0.0
C1995 C 0.92594 0.46445 0.95423 0.0
H1996 H 0.92538 0.28813 0.83209 0.0
H1997 H 0.95872 0.34305 0.86157 0.0
H1998 H 0.89641 0.33662 0.83203 0.0
H1999 H 0.92936 0.39111 0.86173 0.0
H2000 H 0.85277 0.43743 0.86375 0.0
H2001 H 0.8822 0.38949 0.8648 0.0
H2002 H 0.90077 0.41267 0.82809 0.0
H2003 H 0.87188 0.46112 0.82717 0.0
C2004 C 0.92629 0.31028 0.83867 0.0
C2005 C 0.94423 0.31187 0.84686 0.0
C2006 C 0.90984 0.33807 0.83858 0.0
C2007 C 0.91073 0.3675 0.84687 0.0
C2008 C 0.9283 0.36861 0.85528 0.0
C2009 C 0.94507 0.34129 0.85517 0.0
C2010 C 0.86335 0.43243 0.85598 0.0
C2011 C 0.86024 0.45312 0.84543 0.0
C2012 C 0.88012 0.40516 0.85658 0.0
C2013 C 0.89363 0.39743 0.8465 0.0
C2014 C 0.89051 0.41809 0.83595 0.0
C2015 C 0.87415 0.44595 0.83546 0.0
loop_
_geom_bond_atom_site_label_1
_geom_bond_atom_site_label_2
_geom_bond_distance
_geom_bond_site_symmetry_2
_ccdc_geom_bond_type
Cu0 N1 1.999 . S
Cu0 O6 1.974 . S
Cu0 N11 1.985 1_545 S
Cu0 O20 1.959 1_545 S
N1 Cu0 1.999 . S
N1 C3 1.263 . S
N1 C5 1.389 . S
N2 C3 1.358 . S
N2 C4 1.400 . S
C3 N1 1.263 . S
C3 N2 1.358 . S
C3 H9 0.930 . S
C4 N2 1.400 . S
C4 C5 1.351 . S
C4 H21 0.930 . S
C5 N1 1.389 . S
C5 C4 1.351 . S
C5 H10 0.930 1_545 S
O6 Cu0 1.974 . S
O6 C16 1.282 . S
C7 O8 1.261 . S
C7 O20 1.251 1_545 S
O8 C7 1.261 . S
H9 C3 0.930 . S
H10 C5 0.930 1_565 S
N11 Cu0 1.985 1_565 S
N11 C13 1.335 . S
N11 C14 1.395 . S
N12 C13 1.345 . S
N12 C15 1.336 . S
C13 N11 1.335 . S
C13 N12 1.345 . S
C13 H18 0.930 . S
C14 N11 1.395 . S
C14 C15 1.356 . S
C14 H19 0.918 1_565 S
C15 N12 1.336 . S
C15 C14 1.356 . S
C15 H22 0.929 . S
C16 O6 1.282 . S
C16 O17 1.216 . S
O17 C16 1.216 . S
H18 C13 0.930 . S
H19 C14 0.918 1_545 S
O20 Cu0 1.959 1_565 S
O20 C7 1.251 1_565 S
H21 C4 0.930 . S
H22 C15 0.929 . S
Cu23 N24 1.999 . S
Cu23 O29 1.974 . S
Cu23 N34 1.985 . S
Cu23 O43 1.959 . S
N24 Cu23 1.999 . S
N24 C26 1.263 . S
N24 C28 1.389 . S
N25 C26 1.358 . S
N25 C27 1.400 . S
C26 N24 1.263 . S
C26 N25 1.358 . S
C26 H32 0.930 . S
C27 N25 1.400 . S
C27 C28 1.351 . S
C27 H44 0.930 . S
C28 N24 1.389 . S
C28 C27 1.351 . S
C28 H33 0.930 . S
O29 Cu23 1.974 . S
O29 C39 1.282 . S
C30 O31 1.261 . S
C30 O43 1.251 . S
O31 C30 1.261 . S
H32 C26 0.930 . S
H33 C28 0.930 . S
N34 Cu23 1.985 . S
N34 C36 1.335 . S
N34 C37 1.390 . S
N35 C36 1.345 . S
N35 C38 1.336 . S
C36 N34 1.335 . S
C36 N35 1.345 . S
C36 H41 0.930 . S
C37 N34 1.390 . S
C37 C38 1.346 . S
C37 H42 0.930 . S
C38 N35 1.336 . S
C38 C37 1.346 . S
C38 H45 0.929 . S
C39 O29 1.282 . S
C39 O40 1.216 . S
O40 C39 1.216 . S
H41 C36 0.930 . S
H42 C37 0.930 . S
O43 Cu23 1.959 . S
O43 C30 1.251 . S
H44 C27 0.930 . S
H45 C38 0.929 . S
Cu46 N47 1.999 . S
Cu46 O52 1.974 . S
Cu46 N57 1.985 . S
Cu46 O66 1.959 . S
N47 Cu46 1.999 . S
N47 C49 1.263 . S
N47 C51 1.389 . S
N48 C49 1.358 . S
N48 C50 1.400 . S
C49 N47 1.263 . S
C49 N48 1.358 . S
C49 H55 0.930 . S
C50 N48 1.400 . S
C50 C51 1.351 . S
C50 H67 0.930 . S
C51 N47 1.389 . S
C51 C50 1.351 . S
C51 H56 0.930 . S
O52 Cu46 1.974 . S
O52 C62 1.282 . S
C53 O54 1.261 . S
C53 O66 1.251 . S
O54 C53 1.261 . S
H55 C49 0.930 . S
H56 C51 0.930 . S
N57 Cu46 1.985 . S
N57 C59 1.335 . S
N57 C60 1.390 . S
N58 C59 1.345 . S
N58 C61 1.336 . S
C59 N57 1.335 . S
C59 N58 1.345 . S
C59 H64 0.930 . S
C60 N57 1.390 . S
C60 C61 1.346 . S
C60 H65 0.930 . S
C61 N58 1.336 . S
C61 C60 1.346 . S
C61 H68 0.929 . S
C62 O52 1.282 . S
C62 O63 1.216 . S
O63 C62 1.216 . S
H64 C59 0.930 . S
H65 C60 0.930 . S
O66 Cu46 1.959 . S
O66 C53 1.251 . S
H67 C50 0.930 . S
H68 C61 0.929 . S
Cu69 N70 1.999 . S
Cu69 O75 1.974 . S
Cu69 N80 1.985 1_545 S
Cu69 O89 1.959 1_545 S
N70 Cu69 1.999 . S
N70 C72 1.263 . S
N70 C74 1.389 . S
N71 C72 1.358 . S
N71 C73 1.400 . S
C72 N70 1.263 . S
C72 N71 1.358 . S
C72 H78 0.930 . S
C73 N71 1.400 . S
C73 C74 1.351 . S
C73 H90 0.930 . S
C74 N70 1.389 . S
C74 C73 1.351 . S
C74 H79 0.930 1_545 S
O75 Cu69 1.974 . S
O75 C85 1.282 . S
C76 O77 1.261 . S
C76 O89 1.251 1_545 S
O77 C76 1.261 . S
H78 C72 0.930 . S
H79 C74 0.930 1_565 S
N80 Cu69 1.985 1_565 S
N80 C82 1.335 . S
N80 C83 1.397 . S
N81 C82 1.345 . S
N81 C84 1.336 . S
C82 N80 1.335 . S
C82 N81 1.345 . S
C82 H87 0.930 . S
C83 N80 1.397 . S
C83 C84 1.359 . S
C83 H88 0.915 1_565 S
C84 N81 1.336 . S
C84 C83 1.359 . S
C84 H91 0.929 . S
C85 O75 1.282 . S
C85 O86 1.216 . S
O86 C85 1.216 . S
H87 C82 0.930 . S
H88 C83 0.915 1_545 S
O89 Cu69 1.959 1_565 S
O89 C76 1.251 1_565 S
H90 C73 0.930 . S
H91 C84 0.929 . S
Cu92 N93 1.999 . S
Cu92 O98 1.974 . S
Cu92 N103 1.985 1_565 S
Cu92 O112 1.959 1_565 S
N93 Cu92 1.999 . S
N93 C95 1.263 . S
N93 C97 1.389 . S
N94 C95 1.358 . S
N94 C96 1.400 . S
C95 N93 1.263 . S
C95 N94 1.358 . S
C95 H101 0.930 . S
C96 N94 1.400 . S
C96 C97 1.351 . S
C96 H113 0.930 . S
C97 N93 1.389 . S
C97 C96 1.351 . S
C97 H102 0.930 1_565 S
O98 Cu92 1.974 . S
O98 C108 1.282 . S
C99 O100 1.261 . S
C99 O112 1.251 1_565 S
O100 C99 1.261 . S
H101 C95 0.930 . S
H102 C97 0.930 1_545 S
N103 Cu92 1.985 1_545 S
N103 C105 1.335 . S
N103 C106 1.395 . S
N104 C105 1.345 . S
N104 C107 1.336 . S
C105 N103 1.335 . S
C105 N104 1.345 . S
C105 H110 0.930 . S
C106 N103 1.395 . S
C106 C107 1.356 . S
C106 H111 0.918 1_545 S
C107 N104 1.336 . S
C107 C106 1.356 . S
C107 H114 0.929 . S
C108 O98 1.282 . S
C108 O109 1.216 . S
O109 C108 1.216 . S
H110 C105 0.930 . S
H111 C106 0.918 1_565 S
O112 Cu92 1.959 1_545 S
O112 C99 1.251 1_545 S
H113 C96 0.930 . S
H114 C107 0.929 . S
Cu115 N116 1.999 . S
Cu115 O121 1.974 . S
Cu115 N126 1.985 . S
Cu115 O135 1.959 . S
N116 Cu115 1.999 . S
N116 C118 1.263 . S
N116 C120 1.389 . S
N117 C118 1.358 . S
N117 C119 1.400 . S
C118 N116 1.263 . S
C118 N117 1.358 . S
C118 H124 0.930 . S
C119 N117 1.400 . S
C119 C120 1.351 . S
C119 H136 0.930 . S
C120 N116 1.389 . S
C120 C119 1.351 . S
C120 H125 0.930 . S
O121 Cu115 1.974 . S
O121 C131 1.282 . S
C122 O123 1.261 . S
C122 O135 1.251 . S
O123 C122 1.261 . S
H124 C118 0.930 . S
H125 C120 0.930 . S
N126 Cu115 1.985 . S
N126 C128 1.335 . S
N126 C129 1.390 . S
N127 C128 1.345 . S
N127 C130 1.336 . S
C128 N126 1.335 . S
C128 N127 1.345 . S
C128 H133 0.930 . S
C129 N126 1.390 . S
C129 C130 1.346 . S
C129 H134 0.930 . S
C130 N127 1.336 . S
C130 C129 1.346 . S
C130 H137 0.929 . S
C131 O121 1.282 . S
C131 O132 1.216 . S
O132 C131 1.216 . S
H133 C128 0.930 . S
H134 C129 0.930 . S
O135 Cu115 1.959 . S
O135 C122 1.251 . S
H136 C119 0.930 . S
H137 C130 0.929 . S
Cu138 N139 1.999 . S
Cu138 O144 1.974 . S
Cu138 N149 1.985 . S
Cu138 O158 1.959 . S
N139 Cu138 1.999 . S
N139 C141 1.263 . S
N139 C143 1.389 . S
N140 C141 1.358 . S
N140 C142 1.400 . S
C141 N139 1.263 . S
C141 N140 1.358 . S
C141 H147 0.930 . S
C142 N140 1.400 . S
C142 C143 1.351 . S
C142 H159 0.930 . S
C143 N139 1.389 . S
C143 C142 1.351 . S
C143 H148 0.930 . S
O144 Cu138 1.974 . S
O144 C154 1.282 . S
C145 O146 1.261 . S
C145 O158 1.251 . S
O146 C145 1.261 . S
H147 C141 0.930 . S
H148 C143 0.930 . S
N149 Cu138 1.985 . S
N149 C151 1.335 . S
N149 C152 1.390 . S
N150 C151 1.345 . S
N150 C153 1.336 . S
C151 N149 1.335 . S
C151 N150 1.345 . S
C151 H156 0.930 . S
C152 N149 1.390 . S
C152 C153 1.346 . S
C152 H157 0.930 . S
C153 N150 1.336 . S
C153 C152 1.346 . S
C153 H160 0.929 . S
C154 O144 1.282 . S
C154 O155 1.216 . S
O155 C154 1.216 . S
H156 C151 0.930 . S
H157 C152 0.930 . S
O158 Cu138 1.959 . S
O158 C145 1.251 . S
H159 C142 0.930 . S
H160 C153 0.929 . S
Cu161 N162 1.999 . S
Cu161 O167 1.974 . S
Cu161 N172 1.985 1_565 S
Cu161 O181 1.959 1_565 S
N162 Cu161 1.999 . S
N162 C164 1.263 . S
N162 C166 1.389 . S
N163 C164 1.358 . S
N163 C165 1.400 . S
C164 N162 1.263 . S
C164 N163 1.358 . S
C164 H170 0.930 . S
C165 N163 1.400 . S
C165 C166 1.351 . S
C165 H182 0.930 . S
C166 N162 1.389 . S
C166 C165 1.351 . S
C166 H171 0.930 1_565 S
O167 Cu161 1.974 . S
O167 C177 1.282 . S
C168 O169 1.261 . S
C168 O181 1.251 1_565 S
O169 C168 1.261 . S
H170 C164 0.930 . S
H171 C166 0.930 1_545 S
N172 Cu161 1.985 1_545 S
N172 C174 1.335 . S
N172 C175 1.397 . S
N173 C174 1.345 . S
N173 C176 1.336 . S
C174 N172 1.335 . S
C174 N173 1.345 . S
C174 H179 0.930 . S
C175 N172 1.397 . S
C175 C176 1.359 . S
C175 H180 0.915 1_545 S
C176 N173 1.336 . S
C176 C175 1.359 . S
C176 H183 0.929 . S
C177 O167 1.282 . S
C177 O178 1.216 . S
O178 C177 1.216 . S
H179 C174 0.930 . S
H180 C175 0.915 1_565 S
O181 Cu161 1.959 1_545 S
O181 C168 1.251 1_545 S
H182 C165 0.930 . S
H183 C176 0.929 . S
Cu184 N185 1.999 . S
Cu184 O190 1.974 . S
Cu184 N195 1.985 . S
Cu184 O204 1.959 . S
N185 Cu184 1.999 . S
N185 C187 1.263 . S
N185 C189 1.389 . S
N186 C187 1.358 . S
N186 C188 1.400 . S
C187 N185 1.263 . S
C187 N186 1.358 . S
C187 H193 0.930 . S
C188 N186 1.400 . S
C188 C189 1.351 . S
C188 H205 0.930 . S
C189 N185 1.389 . S
C189 C188 1.351 . S
C189 H194 0.930 . S
O190 Cu184 1.974 . S
O190 C200 1.282 . S
C191 O192 1.261 . S
C191 O204 1.251 . S
O192 C191 1.261 . S
H193 C187 0.930 . S
H194 C189 0.930 . S
N195 Cu184 1.985 . S
N195 C197 1.335 . S
N195 C198 1.390 . S
N196 C197 1.345 . S
N196 C199 1.336 . S
C197 N195 1.335 . S
C197 N196 1.345 . S
C197 H202 0.930 . S
C198 N195 1.390 . S
C198 C199 1.346 . S
C198 H203 0.930 . S
C199 N196 1.336 . S
C199 C198 1.346 . S
C199 H206 0.929 . S
C200 O190 1.282 . S
C200 O201 1.216 . S
O201 C200 1.216 . S
H202 C197 0.930 . S
H203 C198 0.930 . S
O204 Cu184 1.959 . S
O204 C191 1.251 . S
H205 C188 0.930 . S
H206 C199 0.929 . S
Cu207 N208 1.999 . S
Cu207 O213 1.974 . S
Cu207 N218 1.985 . S
Cu207 O227 1.959 . S
N208 Cu207 1.999 . S
N208 C210 1.263 . S
N208 C212 1.389 . S
N209 C210 1.358 . S
N209 C211 1.400 . S
C210 N208 1.263 . S
C210 N209 1.358 . S
C210 H216 0.930 . S
C211 N209 1.400 . S
C211 C212 1.351 . S
C211 H228 0.930 . S
C212 N208 1.389 . S
C212 C211 1.351 . S
C212 H217 0.930 . S
O213 Cu207 1.974 . S
O213 C223 1.282 . S
C214 O215 1.261 . S
C214 O227 1.251 . S
O215 C214 1.261 . S
H216 C210 0.930 . S
H217 C212 0.930 . S
N218 Cu207 1.985 . S
N218 C220 1.335 . S
N218 C221 1.390 . S
N219 C220 1.345 . S
N219 C222 1.336 . S
C220 N218 1.335 . S
C220 N219 1.345 . S
C220 H225 0.930 . S
C221 N218 1.390 . S
C221 C222 1.346 . S
C221 H226 0.930 . S
C222 N219 1.336 . S
C222 C221 1.346 . S
C222 H229 0.929 . S
C223 O213 1.282 . S
C223 O224 1.216 . S
O224 C223 1.216 . S
H225 C220 0.930 . S
H226 C221 0.930 . S
O227 Cu207 1.959 . S
O227 C214 1.251 . S
H228 C211 0.930 . S
H229 C222 0.929 . S
Cu230 N231 1.999 . S
Cu230 O236 1.974 . S
Cu230 N241 1.985 . S
Cu230 O250 1.959 . S
N231 Cu230 1.999 . S
N231 C233 1.263 . S
N231 C235 1.389 . S
N232 C233 1.358 . S
N232 C234 1.400 . S
C233 N231 1.263 . S
C233 N232 1.358 . S
C233 H239 0.930 . S
C234 N232 1.400 . S
C234 C235 1.351 . S
C234 H251 0.930 . S
C235 N231 1.389 . S
C235 C234 1.351 . S
C235 H240 0.930 . S
O236 Cu230 1.974 . S
O236 C246 1.282 . S
C237 O238 1.261 . S
C237 O250 1.251 . S
O238 C237 1.261 . S
H239 C233 0.930 . S
H240 C235 0.930 . S
N241 Cu230 1.985 . S
N241 C243 1.335 . S
N241 C244 1.390 . S
N242 C243 1.345 . S
N242 C245 1.336 . S
C243 N241 1.335 . S
C243 N242 1.345 . S
C243 H248 0.930 . S
C244 N241 1.390 . S
C244 C245 1.346 . S
C244 H249 0.930 . S
C245 N242 1.336 . S
C245 C244 1.346 . S
C245 H252 0.929 . S
C246 O236 1.282 . S
C246 O247 1.216 . S
O247 C246 1.216 . S
H248 C243 0.930 . S
H249 C244 0.930 . S
O250 Cu230 1.959 . S
O250 C237 1.251 . S
H251 C234 0.930 . S
H252 C245 0.929 . S
Cu253 N254 1.999 . S
Cu253 O259 1.974 . S
Cu253 N264 1.985 . S
Cu253 O273 1.959 . S
N254 Cu253 1.999 . S
N254 C256 1.263 . S
N254 C258 1.389 . S
N255 C256 1.358 . S
N255 C257 1.400 . S
C256 N254 1.263 . S
C256 N255 1.358 . S
C256 H262 0.930 . S
C257 N255 1.400 . S
C257 C258 1.351 . S
C257 H274 0.930 . S
C258 N254 1.389 . S
C258 C257 1.351 . S
C258 H263 0.930 . S
O259 Cu253 1.974 . S
O259 C269 1.282 . S
C260 O261 1.261 . S
C260 O273 1.251 . S
O261 C260 1.261 . S
H262 C256 0.930 . S
H263 C258 0.930 . S
N264 Cu253 1.985 . S
N264 C266 1.335 . S
N264 C267 1.390 . S
N265 C266 1.345 . S
N265 C268 1.336 . S
C266 N264 1.335 . S
C266 N265 1.345 . S
C266 H271 0.930 . S
C267 N264 1.390 . S
C267 C268 1.346 . S
C267 H272 0.930 . S
C268 N265 1.336 . S
C268 C267 1.346 . S
C268 H275 0.929 . S
C269 O259 1.282 . S
C269 O270 1.216 . S
O270 C269 1.216 . S
H271 C266 0.930 . S
H272 C267 0.930 . S
O273 Cu253 1.959 . S
O273 C260 1.251 . S
H274 C257 0.930 . S
H275 C268 0.929 . S
Cu276 N277 1.999 . S
Cu276 O282 1.974 . S
Cu276 N287 1.985 . S
Cu276 O296 1.959 . S
N277 Cu276 1.999 . S
N277 C279 1.263 . S
N277 C281 1.389 . S
N278 C279 1.358 . S
N278 C280 1.400 . S
C279 N277 1.263 . S
C279 N278 1.358 . S
C279 H285 0.930 . S
C280 N278 1.400 . S
C280 C281 1.351 . S
C280 H297 0.930 . S
C281 N277 1.389 . S
C281 C280 1.351 . S
C281 H286 0.930 . S
O282 Cu276 1.974 . S
O282 C292 1.282 . S
C283 O284 1.261 . S
C283 O296 1.251 . S
O284 C283 1.261 . S
H285 C279 0.930 . S
H286 C281 0.930 . S
N287 Cu276 1.985 . S
N287 C289 1.335 . S
N287 C290 1.390 . S
N288 C289 1.345 . S
N288 C291 1.336 . S
C289 N287 1.335 . S
C289 N288 1.345 . S
C289 H294 0.930 . S
C290 N287 1.390 . S
C290 C291 1.346 . S
C290 H295 0.930 . S
C291 N288 1.336 . S
C291 C290 1.346 . S
C291 H298 0.929 . S
C292 O282 1.282 . S
C292 O293 1.216 . S
O293 C292 1.216 . S
H294 C289 0.930 . S
H295 C290 0.930 . S
O296 Cu276 1.959 . S
O296 C283 1.251 . S
H297 C280 0.930 . S
H298 C291 0.929 . S
Cu299 N300 1.999 . S
Cu299 O305 1.974 . S
Cu299 N310 1.985 . S
Cu299 O319 1.959 . S
N300 Cu299 1.999 . S
N300 C302 1.263 . S
N300 C304 1.389 . S
N301 C302 1.358 . S
N301 C303 1.400 . S
C302 N300 1.263 . S
C302 N301 1.358 . S
C302 H308 0.930 . S
C303 N301 1.400 . S
C303 C304 1.351 . S
C303 H320 0.930 . S
C304 N300 1.389 . S
C304 C303 1.351 . S
C304 H309 0.930 . S
O305 Cu299 1.974 . S
O305 C315 1.282 . S
C306 O307 1.261 . S
C306 O319 1.251 . S
O307 C306 1.261 . S
H308 C302 0.930 . S
H309 C304 0.930 . S
N310 Cu299 1.985 . S
N310 C312 1.335 . S
N310 C313 1.390 . S
N311 C312 1.345 . S
N311 C314 1.336 . S
C312 N310 1.335 . S
C312 N311 1.345 . S
C312 H317 0.930 . S
C313 N310 1.390 . S
C313 C314 1.346 . S
C313 H318 0.930 . S
C314 N311 1.336 . S
C314 C313 1.346 . S
C314 H321 0.929 . S
C315 O305 1.282 . S
C315 O316 1.216 . S
O316 C315 1.216 . S
H317 C312 0.930 . S
H318 C313 0.930 . S
O319 Cu299 1.959 . S
O319 C306 1.251 . S
H320 C303 0.930 . S
H321 C314 0.929 . S
Cu322 N323 1.999 . S
Cu322 O328 1.974 . S
Cu322 N333 1.985 . S
Cu322 O342 1.959 . S
N323 Cu322 1.999 . S
N323 C325 1.263 . S
N323 C327 1.389 . S
N324 C325 1.358 . S
N324 C326 1.400 . S
C325 N323 1.263 . S
C325 N324 1.358 . S
C325 H331 0.930 . S
C326 N324 1.400 . S
C326 C327 1.351 . S
C326 H343 0.930 . S
C327 N323 1.389 . S
C327 C326 1.351 . S
C327 H332 0.930 . S
O328 Cu322 1.974 . S
O328 C338 1.282 . S
C329 O330 1.261 . S
C329 O342 1.251 . S
O330 C329 1.261 . S
H331 C325 0.930 . S
H332 C327 0.930 . S
N333 Cu322 1.985 . S
N333 C335 1.335 . S
N333 C336 1.390 . S
N334 C335 1.345 . S
N334 C337 1.336 . S
C335 N333 1.335 . S
C335 N334 1.345 . S
C335 H340 0.930 . S
C336 N333 1.390 . S
C336 C337 1.346 . S
C336 H341 0.930 . S
C337 N334 1.336 . S
C337 C336 1.346 . S
C337 H344 0.929 . S
C338 O328 1.282 . S
C338 O339 1.216 . S
O339 C338 1.216 . S
H340 C335 0.930 . S
H341 C336 0.930 . S
O342 Cu322 1.959 . S
O342 C329 1.251 . S
H343 C326 0.930 . S
H344 C337 0.929 . S
Cu345 N346 1.999 . S
Cu345 O351 1.974 . S
Cu345 N356 1.985 . S
Cu345 O365 1.959 . S
N346 Cu345 1.999 . S
N346 C348 1.263 . S
N346 C350 1.389 . S
N347 C348 1.358 . S
N347 C349 1.400 . S
C348 N346 1.263 . S
C348 N347 1.358 . S
C348 H354 0.930 . S
C349 N347 1.400 . S
C349 C350 1.351 . S
C349 H366 0.930 . S
C350 N346 1.389 . S
C350 C349 1.351 . S
C350 H355 0.930 . S
O351 Cu345 1.974 . S
O351 C361 1.282 . S
C352 O353 1.261 . S
C352 O365 1.251 . S
O353 C352 1.261 . S
H354 C348 0.930 . S
H355 C350 0.930 . S
N356 Cu345 1.985 . S
N356 C358 1.335 . S
N356 C359 1.390 . S
N357 C358 1.345 . S
N357 C360 1.336 . S
C358 N356 1.335 . S
C358 N357 1.345 . S
C358 H363 0.930 . S
C359 N356 1.390 . S
C359 C360 1.346 . S
C359 H364 0.930 . S
C360 N357 1.336 . S
C360 C359 1.346 . S
C360 H367 0.929 . S
C361 O351 1.282 . S
C361 O362 1.216 . S
O362 C361 1.216 . S
H363 C358 0.930 . S
H364 C359 0.930 . S
O365 Cu345 1.959 . S
O365 C352 1.251 . S
H366 C349 0.930 . S
H367 C360 0.929 . S
Cu368 N369 1.999 . S
Cu368 O374 1.974 . S
Cu368 N379 1.985 1_445 S
Cu368 O388 1.959 1_545 S
N369 Cu368 1.999 . S
N369 C371 1.263 . S
N369 C373 1.389 . S
N370 C371 1.358 . S
N370 C372 1.400 . S
C371 N369 1.263 . S
C371 N370 1.358 . S
C371 H377 0.930 . S
C372 N370 1.400 . S
C372 C373 1.351 . S
C372 H389 0.930 . S
C373 N369 1.389 . S
C373 C372 1.351 . S
C373 H378 0.930 1_545 S
O374 Cu368 1.974 . S
O374 C384 1.282 1_455 S
C375 O376 1.261 . S
C375 O388 1.251 1_645 S
O376 C375 1.261 . S
H377 C371 0.930 . S
H378 C373 0.930 1_565 S
N379 Cu368 1.985 1_665 S
N379 C381 1.335 . S
N379 C382 1.389 . S
N380 C381 1.345 . S
N380 C383 1.336 . S
C381 N379 1.335 . S
C381 N380 1.345 . S
C381 H386 0.930 . S
C382 N379 1.389 . S
C382 C383 1.345 . S
C382 H387 0.931 1_565 S
C383 N380 1.336 . S
C383 C382 1.345 . S
C383 H390 0.929 . S
C384 O374 1.282 1_655 S
C384 O385 1.216 . S
O385 C384 1.216 . S
H386 C381 0.930 . S
H387 C382 0.931 1_545 S
O388 Cu368 1.959 1_565 S
O388 C375 1.251 1_465 S
H389 C372 0.930 . S
H390 C383 0.929 . S
Cu391 N392 1.999 . S
Cu391 O397 1.974 . S
Cu391 N402 1.985 . S
Cu391 O411 1.959 . S
N392 Cu391 1.999 . S
N392 C394 1.263 . S
N392 C396 1.389 . S
N393 C394 1.358 . S
N393 C395 1.400 . S
C394 N392 1.263 . S
C394 N393 1.358 . S
C394 H400 0.930 . S
C395 N393 1.400 . S
C395 C396 1.351 . S
C395 H412 0.930 . S
C396 N392 1.389 . S
C396 C395 1.351 . S
C396 H401 0.930 . S
O397 Cu391 1.974 . S
O397 C407 1.282 . S
C398 O399 1.261 . S
C398 O411 1.251 . S
O399 C398 1.261 . S
H400 C394 0.930 . S
H401 C396 0.930 . S
N402 Cu391 1.985 . S
N402 C404 1.335 . S
N402 C405 1.390 . S
N403 C404 1.345 . S
N403 C406 1.336 . S
C404 N402 1.335 . S
C404 N403 1.345 . S
C404 H409 0.930 . S
C405 N402 1.390 . S
C405 C406 1.346 . S
C405 H410 0.930 . S
C406 N403 1.336 . S
C406 C405 1.346 . S
C406 H413 0.929 . S
C407 O397 1.282 . S
C407 O408 1.216 . S
O408 C407 1.216 . S
H409 C404 0.930 . S
H410 C405 0.930 . S
O411 Cu391 1.959 . S
O411 C398 1.251 . S
H412 C395 0.930 . S
H413 C406 0.929 . S
Cu414 N415 1.999 . S
Cu414 O420 1.974 . S
Cu414 N425 1.985 1_455 S
Cu414 O434 1.959 . S
N415 Cu414 1.999 . S
N415 C417 1.263 . S
N415 C419 1.389 . S
N416 C417 1.358 . S
N416 C418 1.400 . S
C417 N415 1.263 . S
C417 N416 1.358 . S
C417 H423 0.930 . S
C418 N416 1.400 . S
C418 C419 1.351 . S
C418 H435 0.930 . S
C419 N415 1.389 . S
C419 C418 1.351 . S
C419 H424 0.930 . S
O420 Cu414 1.974 . S
O420 C430 1.282 1_455 S
C421 O422 1.261 . S
C421 O434 1.251 1_655 S
O422 C421 1.261 . S
H423 C417 0.930 . S
H424 C419 0.930 . S
N425 Cu414 1.985 1_655 S
N425 C427 1.335 . S
N425 C428 1.390 . S
N426 C427 1.345 . S
N426 C429 1.336 . S
C427 N425 1.335 . S
C427 N426 1.345 . S
C427 H432 0.930 . S
C428 N425 1.390 . S
C428 C429 1.346 . S
C428 H433 0.930 . S
C429 N426 1.336 . S
C429 C428 1.346 . S
C429 H436 0.929 . S
C430 O420 1.282 1_655 S
C430 O431 1.216 . S
O431 C430 1.216 . S
H432 C427 0.930 . S
H433 C428 0.930 . S
O434 Cu414 1.959 . S
O434 C421 1.251 1_455 S
H435 C418 0.930 . S
H436 C429 0.929 . S
Cu437 N438 1.999 . S
Cu437 O443 1.974 . S
Cu437 N448 1.985 1_545 S
Cu437 O457 1.959 1_545 S
N438 Cu437 1.999 . S
N438 C440 1.263 . S
N438 C442 1.389 . S
N439 C440 1.358 . S
N439 C441 1.400 . S
C440 N438 1.263 . S
C440 N439 1.358 . S
C440 H446 0.930 . S
C441 N439 1.400 . S
C441 C442 1.351 . S
C441 H458 0.930 . S
C442 N438 1.389 . S
C442 C441 1.351 . S
C442 H447 0.930 1_545 S
O443 Cu437 1.974 . S
O443 C453 1.282 . S
C444 O445 1.261 . S
C444 O457 1.251 1_545 S
O445 C444 1.261 . S
H446 C440 0.930 . S
H447 C442 0.930 1_565 S
N448 Cu437 1.985 1_565 S
N448 C450 1.335 . S
N448 C451 1.390 . S
N449 C450 1.345 . S
N449 C452 1.336 . S
C450 N448 1.335 . S
C450 N449 1.345 . S
C450 H455 0.930 . S
C451 N448 1.390 . S
C451 C452 1.346 . S
C451 H456 0.930 1_565 S
C452 N449 1.336 . S
C452 C451 1.346 . S
C452 H459 0.929 . S
C453 O443 1.282 . S
C453 O454 1.216 . S
O454 C453 1.216 . S
H455 C450 0.930 . S
H456 C451 0.930 1_545 S
O457 Cu437 1.959 1_565 S
O457 C444 1.251 1_565 S
H458 C441 0.930 . S
H459 C452 0.929 . S
Cu460 N461 1.999 . S
Cu460 O466 1.974 . S
Cu460 N471 1.985 1_665 S
Cu460 O480 1.959 1_565 S
N461 Cu460 1.999 . S
N461 C463 1.263 . S
N461 C465 1.389 . S
N462 C463 1.358 . S
N462 C464 1.400 . S
C463 N461 1.263 . S
C463 N462 1.358 . S
C463 H469 0.930 . S
C464 N462 1.400 . S
C464 C465 1.351 . S
C464 H481 0.930 . S
C465 N461 1.389 . S
C465 C464 1.351 . S
C465 H470 0.930 1_565 S
O466 Cu460 1.974 . S
O466 C476 1.282 1_655 S
C467 O468 1.261 . S
C467 O480 1.251 1_465 S
O468 C467 1.261 . S
H469 C463 0.930 . S
H470 C465 0.930 1_545 S
N471 Cu460 1.985 1_445 S
N471 C473 1.335 . S
N471 C474 1.389 . S
N472 C473 1.345 . S
N472 C475 1.336 . S
C473 N471 1.335 . S
C473 N472 1.345 . S
C473 H478 0.930 . S
C474 N471 1.389 . S
C474 C475 1.345 . S
C474 H479 0.931 1_545 S
C475 N472 1.336 . S
C475 C474 1.345 . S
C475 H482 0.929 . S
C476 O466 1.282 1_455 S
C476 O477 1.216 . S
O477 C476 1.216 . S
H478 C473 0.930 . S
H479 C474 0.931 1_565 S
O480 Cu460 1.959 1_545 S
O480 C467 1.251 1_645 S
H481 C464 0.930 . S
H482 C475 0.929 . S
Cu483 N484 1.999 . S
Cu483 O489 1.974 . S
Cu483 N494 1.985 . S
Cu483 O503 1.959 . S
N484 Cu483 1.999 . S
N484 C486 1.263 . S
N484 C488 1.389 . S
N485 C486 1.358 . S
N485 C487 1.400 . S
C486 N484 1.263 . S
C486 N485 1.358 . S
C486 H492 0.930 . S
C487 N485 1.400 . S
C487 C488 1.351 . S
C487 H504 0.930 . S
C488 N484 1.389 . S
C488 C487 1.351 . S
C488 H493 0.930 . S
O489 Cu483 1.974 . S
O489 C499 1.282 . S
C490 O491 1.261 . S
C490 O503 1.251 . S
O491 C490 1.261 . S
H492 C486 0.930 . S
H493 C488 0.930 . S
N494 Cu483 1.985 . S
N494 C496 1.335 . S
N494 C497 1.390 . S
N495 C496 1.345 . S
N495 C498 1.336 . S
C496 N494 1.335 . S
C496 N495 1.345 . S
C496 H501 0.930 . S
C497 N494 1.390 . S
C497 C498 1.346 . S
C497 H502 0.930 . S
C498 N495 1.336 . S
C498 C497 1.346 . S
C498 H505 0.929 . S
C499 O489 1.282 . S
C499 O500 1.216 . S
O500 C499 1.216 . S
H501 C496 0.930 . S
H502 C497 0.930 . S
O503 Cu483 1.959 . S
O503 C490 1.251 . S
H504 C487 0.930 . S
H505 C498 0.929 . S
Cu506 N507 1.999 . S
Cu506 O512 1.974 . S
Cu506 N517 1.985 1_655 S
Cu506 O526 1.959 . S
N507 Cu506 1.999 . S
N507 C509 1.263 . S
N507 C511 1.389 . S
N508 C509 1.358 . S
N508 C510 1.400 . S
C509 N507 1.263 . S
C509 N508 1.358 . S
C509 H515 0.930 . S
C510 N508 1.400 . S
C510 C511 1.351 . S
C510 H527 0.930 . S
C511 N507 1.389 . S
C511 C510 1.351 . S
C511 H516 0.930 . S
O512 Cu506 1.974 . S
O512 C522 1.282 1_655 S
C513 O514 1.261 . S
C513 O526 1.251 1_455 S
O514 C513 1.261 . S
H515 C509 0.930 . S
H516 C511 0.930 . S
N517 Cu506 1.985 1_455 S
N517 C519 1.335 . S
N517 C520 1.390 . S
N518 C519 1.345 . S
N518 C521 1.336 . S
C519 N517 1.335 . S
C519 N518 1.345 . S
C519 H524 0.930 . S
C520 N517 1.390 . S
C520 C521 1.346 . S
C520 H525 0.930 . S
C521 N518 1.336 . S
C521 C520 1.346 . S
C521 H528 0.929 . S
C522 O512 1.282 1_455 S
C522 O523 1.216 . S
O523 C522 1.216 . S
H524 C519 0.930 . S
H525 C520 0.930 . S
O526 Cu506 1.959 . S
O526 C513 1.251 1_655 S
H527 C510 0.930 . S
H528 C521 0.929 . S
Cu529 N530 1.999 . S
Cu529 O535 1.974 . S
Cu529 N540 1.985 1_565 S
Cu529 O549 1.959 1_565 S
N530 Cu529 1.999 . S
N530 C532 1.263 . S
N530 C534 1.389 . S
N531 C532 1.358 . S
N531 C533 1.400 . S
C532 N530 1.263 . S
C532 N531 1.358 . S
C532 H538 0.930 . S
C533 N531 1.400 . S
C533 C534 1.351 . S
C533 H550 0.930 . S
C534 N530 1.389 . S
C534 C533 1.351 . S
C534 H539 0.930 1_565 S
O535 Cu529 1.974 . S
O535 C545 1.282 . S
C536 O537 1.261 . S
C536 O549 1.251 1_565 S
O537 C536 1.261 . S
H538 C532 0.930 . S
H539 C534 0.930 1_545 S
N540 Cu529 1.985 1_545 S
N540 C542 1.335 . S
N540 C543 1.390 . S
N541 C542 1.345 . S
N541 C544 1.336 . S
C542 N540 1.335 . S
C542 N541 1.345 . S
C542 H547 0.930 . S
C543 N540 1.390 . S
C543 C544 1.346 . S
C543 H548 0.930 1_545 S
C544 N541 1.336 . S
C544 C543 1.346 . S
C544 H551 0.929 . S
C545 O535 1.282 . S
C545 O546 1.216 . S
O546 C545 1.216 . S
H547 C542 0.930 . S
H548 C543 0.930 1_565 S
O549 Cu529 1.959 1_545 S
O549 C536 1.251 1_545 S
H550 C533 0.930 . S
H551 C544 0.929 . S
Cu552 N553 1.999 . S
Cu552 O558 1.974 . S
Cu552 N563 1.985 1_455 S
Cu552 O572 1.959 . S
N553 Cu552 1.999 . S
N553 C555 1.263 . S
N553 C557 1.389 . S
N554 C555 1.358 . S
N554 C556 1.400 . S
C555 N553 1.263 . S
C555 N554 1.358 . S
C555 H561 0.930 . S
C556 N554 1.400 . S
C556 C557 1.351 . S
C556 H573 0.930 . S
C557 N553 1.389 . S
C557 C556 1.351 . S
C557 H562 0.930 . S
O558 Cu552 1.974 . S
O558 C568 1.282 1_455 S
C559 O560 1.261 . S
C559 O572 1.251 1_655 S
O560 C559 1.261 . S
H561 C555 0.930 . S
H562 C557 0.930 . S
N563 Cu552 1.985 1_655 S
N563 C565 1.335 . S
N563 C566 1.390 . S
N564 C565 1.345 . S
N564 C567 1.336 . S
C565 N563 1.335 . S
C565 N564 1.345 . S
C565 H570 0.930 . S
C566 N563 1.390 . S
C566 C567 1.346 . S
C566 H571 0.930 . S
C567 N564 1.336 . S
C567 C566 1.346 . S
C567 H574 0.929 . S
C568 O558 1.282 1_655 S
C568 O569 1.216 . S
O569 C568 1.216 . S
H570 C565 0.930 . S
H571 C566 0.930 . S
O572 Cu552 1.959 . S
O572 C559 1.251 1_455 S
H573 C556 0.930 . S
H574 C567 0.929 . S
Cu575 N576 1.999 . S
Cu575 O581 1.974 . S
Cu575 N586 1.985 . S
Cu575 O595 1.959 . S
N576 Cu575 1.999 . S
N576 C578 1.263 . S
N576 C580 1.389 . S
N577 C578 1.358 . S
N577 C579 1.400 . S
C578 N576 1.263 . S
C578 N577 1.358 . S
C578 H584 0.930 . S
C579 N577 1.400 . S
C579 C580 1.351 . S
C579 H596 0.930 . S
C580 N576 1.389 . S
C580 C579 1.351 . S
C580 H585 0.930 . S
O581 Cu575 1.974 . S
O581 C591 1.282 . S
C582 O583 1.261 . S
C582 O595 1.251 . S
O583 C582 1.261 . S
H584 C578 0.930 . S
H585 C580 0.930 . S
N586 Cu575 1.985 . S
N586 C588 1.335 . S
N586 C589 1.390 . S
N587 C588 1.345 . S
N587 C590 1.336 . S
C588 N586 1.335 . S
C588 N587 1.345 . S
C588 H593 0.930 . S
C589 N586 1.390 . S
C589 C590 1.346 . S
C589 H594 0.930 . S
C590 N587 1.336 . S
C590 C589 1.346 . S
C590 H597 0.929 . S
C591 O581 1.282 . S
C591 O592 1.216 . S
O592 C591 1.216 . S
H593 C588 0.930 . S
H594 C589 0.930 . S
O595 Cu575 1.959 . S
O595 C582 1.251 . S
H596 C579 0.930 . S
H597 C590 0.929 . S
Cu598 N599 1.999 . S
Cu598 O604 1.974 . S
Cu598 N609 1.985 1_455 S
Cu598 O618 1.959 . S
N599 Cu598 1.999 . S
N599 C601 1.263 . S
N599 C603 1.389 . S
N600 C601 1.358 . S
N600 C602 1.400 . S
C601 N599 1.263 . S
C601 N600 1.358 . S
C601 H607 0.930 . S
C602 N600 1.400 . S
C602 C603 1.351 . S
C602 H619 0.930 . S
C603 N599 1.389 . S
C603 C602 1.351 . S
C603 H608 0.930 . S
O604 Cu598 1.974 . S
O604 C614 1.282 1_455 S
C605 O606 1.261 . S
C605 O618 1.251 1_655 S
O606 C605 1.261 . S
H607 C601 0.930 . S
H608 C603 0.930 . S
N609 Cu598 1.985 1_655 S
N609 C611 1.335 . S
N609 C612 1.390 . S
N610 C611 1.345 . S
N610 C613 1.336 . S
C611 N609 1.335 . S
C611 N610 1.345 . S
C611 H616 0.930 . S
C612 N609 1.390 . S
C612 C613 1.346 . S
C612 H617 0.930 . S
C613 N610 1.336 . S
C613 C612 1.346 . S
C613 H620 0.929 . S
C614 O604 1.282 1_655 S
C614 O615 1.216 . S
O615 C614 1.216 . S
H616 C611 0.930 . S
H617 C612 0.930 . S
O618 Cu598 1.959 . S
O618 C605 1.251 1_455 S
H619 C602 0.930 . S
H620 C613 0.929 . S
Cu621 N622 1.999 . S
Cu621 O627 1.974 . S
Cu621 N632 1.985 . S
Cu621 O641 1.959 . S
N622 Cu621 1.999 . S
N622 C624 1.263 . S
N622 C626 1.389 . S
N623 C624 1.358 . S
N623 C625 1.400 . S
C624 N622 1.263 . S
C624 N623 1.358 . S
C624 H630 0.930 . S
C625 N623 1.400 . S
C625 C626 1.351 . S
C625 H642 0.930 . S
C626 N622 1.389 . S
C626 C625 1.351 . S
C626 H631 0.930 . S
O627 Cu621 1.974 . S
O627 C637 1.282 . S
C628 O629 1.261 . S
C628 O641 1.251 . S
O629 C628 1.261 . S
H630 C624 0.930 . S
H631 C626 0.930 . S
N632 Cu621 1.985 . S
N632 C634 1.335 . S
N632 C635 1.390 . S
N633 C634 1.345 . S
N633 C636 1.336 . S
C634 N632 1.335 . S
C634 N633 1.345 . S
C634 H639 0.930 . S
C635 N632 1.390 . S
C635 C636 1.346 . S
C635 H640 0.930 . S
C636 N633 1.336 . S
C636 C635 1.346 . S
C636 H643 0.929 . S
C637 O627 1.282 . S
C637 O638 1.216 . S
O638 C637 1.216 . S
H639 C634 0.930 . S
H640 C635 0.930 . S
O641 Cu621 1.959 . S
O641 C628 1.251 . S
H642 C625 0.930 . S
H643 C636 0.929 . S
Cu644 N645 1.999 . S
Cu644 O650 1.974 . S
Cu644 N655 1.985 1_655 S
Cu644 O664 1.959 . S
N645 Cu644 1.999 . S
N645 C647 1.263 . S
N645 C649 1.389 . S
N646 C647 1.358 . S
N646 C648 1.400 . S
C647 N645 1.263 . S
C647 N646 1.358 . S
C647 H653 0.930 . S
C648 N646 1.400 . S
C648 C649 1.351 . S
C648 H665 0.930 . S
C649 N645 1.389 . S
C649 C648 1.351 . S
C649 H654 0.930 . S
O650 Cu644 1.974 . S
O650 C660 1.282 1_655 S
C651 O652 1.261 . S
C651 O664 1.251 1_455 S
O652 C651 1.261 . S
H653 C647 0.930 . S
H654 C649 0.930 . S
N655 Cu644 1.985 1_455 S
N655 C657 1.335 . S
N655 C658 1.390 . S
N656 C657 1.345 . S
N656 C659 1.336 . S
C657 N655 1.335 . S
C657 N656 1.345 . S
C657 H662 0.930 . S
C658 N655 1.390 . S
C658 C659 1.346 . S
C658 H663 0.930 . S
C659 N656 1.336 . S
C659 C658 1.346 . S
C659 H666 0.929 . S
C660 O650 1.282 1_455 S
C660 O661 1.216 . S
O661 C660 1.216 . S
H662 C657 0.930 . S
H663 C658 0.930 . S
O664 Cu644 1.959 . S
O664 C651 1.251 1_655 S
H665 C648 0.930 . S
H666 C659 0.929 . S
Cu667 N668 1.999 . S
Cu667 O673 1.974 . S
Cu667 N678 1.985 . S
Cu667 O687 1.959 . S
N668 Cu667 1.999 . S
N668 C670 1.263 . S
N668 C672 1.389 . S
N669 C670 1.358 . S
N669 C671 1.400 . S
C670 N668 1.263 . S
C670 N669 1.358 . S
C670 H676 0.930 . S
C671 N669 1.400 . S
C671 C672 1.351 . S
C671 H688 0.930 . S
C672 N668 1.389 . S
C672 C671 1.351 . S
C672 H677 0.930 . S
O673 Cu667 1.974 . S
O673 C683 1.282 . S
C674 O675 1.261 . S
C674 O687 1.251 . S
O675 C674 1.261 . S
H676 C670 0.930 . S
H677 C672 0.930 . S
N678 Cu667 1.985 . S
N678 C680 1.335 . S
N678 C681 1.390 . S
N679 C680 1.345 . S
N679 C682 1.336 . S
C680 N678 1.335 . S
C680 N679 1.345 . S
C680 H685 0.930 . S
C681 N678 1.390 . S
C681 C682 1.346 . S
C681 H686 0.930 . S
C682 N679 1.336 . S
C682 C681 1.346 . S
C682 H689 0.929 . S
C683 O673 1.282 . S
C683 O684 1.216 . S
O684 C683 1.216 . S
H685 C680 0.930 . S
H686 C681 0.930 . S
O687 Cu667 1.959 . S
O687 C674 1.251 . S
H688 C671 0.930 . S
H689 C682 0.929 . S
Cu690 N691 1.999 . S
Cu690 O696 1.974 . S
Cu690 N701 1.985 1_655 S
Cu690 O710 1.959 . S
N691 Cu690 1.999 . S
N691 C693 1.263 . S
N691 C695 1.389 . S
N692 C693 1.358 . S
N692 C694 1.400 . S
C693 N691 1.263 . S
C693 N692 1.358 . S
C693 H699 0.930 . S
C694 N692 1.400 . S
C694 C695 1.351 . S
C694 H711 0.930 . S
C695 N691 1.389 . S
C695 C694 1.351 . S
C695 H700 0.930 . S
O696 Cu690 1.974 . S
O696 C706 1.282 1_655 S
C697 O698 1.261 . S
C697 O710 1.251 1_455 S
O698 C697 1.261 . S
H699 C693 0.930 . S
H700 C695 0.930 . S
N701 Cu690 1.985 1_455 S
N701 C703 1.335 . S
N701 C704 1.390 . S
N702 C703 1.345 . S
N702 C705 1.336 . S
C703 N701 1.335 . S
C703 N702 1.345 . S
C703 H708 0.930 . S
C704 N701 1.390 . S
C704 C705 1.346 . S
C704 H709 0.930 . S
C705 N702 1.336 . S
C705 C704 1.346 . S
C705 H712 0.929 . S
C706 O696 1.282 1_455 S
C706 O707 1.216 . S
O707 C706 1.216 . S
H708 C703 0.930 . S
H709 C704 0.930 . S
O710 Cu690 1.959 . S
O710 C697 1.251 1_655 S
H711 C694 0.930 . S
H712 C705 0.929 . S
Cu713 N714 1.999 . S
Cu713 O719 1.974 . S
Cu713 N724 1.985 . S
Cu713 O733 1.959 . S
N714 Cu713 1.999 . S
N714 C716 1.263 . S
N714 C718 1.389 . S
N715 C716 1.358 . S
N715 C717 1.400 . S
C716 N714 1.263 . S
C716 N715 1.358 . S
C716 H722 0.930 . S
C717 N715 1.400 . S
C717 C718 1.351 . S
C717 H734 0.930 . S
C718 N714 1.389 . S
C718 C717 1.351 . S
C718 H723 0.930 . S
O719 Cu713 1.974 . S
O719 C729 1.282 . S
C720 O721 1.261 . S
C720 O733 1.251 . S
O721 C720 1.261 . S
H722 C716 0.930 . S
H723 C718 0.930 . S
N724 Cu713 1.985 . S
N724 C726 1.335 . S
N724 C727 1.390 . S
N725 C726 1.345 . S
N725 C728 1.336 . S
C726 N724 1.335 . S
C726 N725 1.345 . S
C726 H731 0.930 . S
C727 N724 1.390 . S
C727 C728 1.346 . S
C727 H732 0.930 . S
C728 N725 1.336 . S
C728 C727 1.346 . S
C728 H735 0.929 . S
C729 O719 1.282 . S
C729 O730 1.216 . S
O730 C729 1.216 . S
H731 C726 0.930 . S
H732 C727 0.930 . S
O733 Cu713 1.959 . S
O733 C720 1.251 . S
H734 C717 0.930 . S
H735 C728 0.929 . S
H736 C744 0.950 . S
H737 C749 0.950 . S
H738 C746 0.950 . S
H739 C748 0.950 . S
H740 C750 0.950 . S
H741 C752 0.950 . S
H742 C754 0.950 . S
H743 C755 0.950 . S
C744 H736 0.950 . S
C744 C745 1.386 . S
C744 C746 1.391 . S
C745 C744 1.386 . S
C745 C749 1.393 . S
C746 H738 0.950 . S
C746 C744 1.391 . S
C746 C747 1.400 . S
C747 C746 1.400 . S
C747 C748 1.398 . S
C747 C753 1.491 . S
C748 H739 0.950 . S
C748 C747 1.398 . S
C748 C749 1.391 . S
C749 H737 0.950 . S
C749 C745 1.393 . S
C749 C748 1.391 . S
C750 H740 0.950 . S
C750 C751 1.386 . S
C750 C752 1.391 . S
C751 C750 1.386 . S
C751 C755 1.393 . S
C752 H741 0.950 . S
C752 C750 1.391 . S
C752 C753 1.400 . S
C753 C747 1.491 . S
C753 C752 1.400 . S
C753 C754 1.398 . S
C754 H742 0.950 . S
C754 C753 1.398 . S
C754 C755 1.391 . S
C755 H743 0.950 . S
C755 C751 1.393 . S
C755 C754 1.391 . S
H756 C764 0.950 . S
H757 C769 0.950 . S
H758 C766 0.950 . S
H759 C768 0.950 . S
H760 C770 0.950 . S
H761 C772 0.950 . S
H762 C774 0.950 . S
H763 C775 0.950 . S
C764 H756 0.950 . S
C764 C765 1.386 . S
C764 C766 1.391 . S
C765 C764 1.386 . S
C765 C769 1.393 . S
C766 H758 0.950 . S
C766 C764 1.391 . S
C766 C767 1.400 . S
C767 C766 1.400 . S
C767 C768 1.398 . S
C767 C773 1.491 . S
C768 H759 0.950 . S
C768 C767 1.398 . S
C768 C769 1.391 . S
C769 H757 0.950 . S
C769 C765 1.393 . S
C769 C768 1.391 . S
C770 H760 0.950 . S
C770 C771 1.386 . S
C770 C772 1.391 . S
C771 C770 1.386 . S
C771 C775 1.393 . S
C772 H761 0.950 . S
C772 C770 1.391 . S
C772 C773 1.400 . S
C773 C767 1.491 . S
C773 C772 1.400 . S
C773 C774 1.398 . S
C774 H762 0.950 . S
C774 C773 1.398 . S
C774 C775 1.391 . S
C775 H763 0.950 . S
C775 C771 1.393 . S
C775 C774 1.391 . S
H776 C784 0.950 . S
H777 C789 0.950 . S
H778 C786 0.950 . S
H779 C788 0.950 . S
H780 C790 0.950 . S
H781 C792 0.950 . S
H782 C794 0.950 . S
H783 C795 0.950 . S
C784 H776 0.950 . S
C784 C785 1.386 . S
C784 C786 1.391 . S
C785 C784 1.386 . S
C785 C789 1.393 . S
C786 H778 0.950 . S
C786 C784 1.391 . S
C786 C787 1.400 . S
C787 C786 1.400 . S
C787 C788 1.398 . S
C787 C793 1.491 . S
C788 H779 0.950 . S
C788 C787 1.398 . S
C788 C789 1.391 . S
C789 H777 0.950 . S
C789 C785 1.393 . S
C789 C788 1.391 . S
C790 H780 0.950 . S
C790 C791 1.386 . S
C790 C792 1.391 . S
C791 C790 1.386 . S
C791 C795 1.393 . S
C792 H781 0.950 . S
C792 C790 1.391 . S
C792 C793 1.400 . S
C793 C787 1.491 . S
C793 C792 1.400 . S
C793 C794 1.398 . S
C794 H782 0.950 . S
C794 C793 1.398 . S
C794 C795 1.391 . S
C795 H783 0.950 . S
C795 C791 1.393 . S
C795 C794 1.391 . S
H796 C804 0.950 . S
H797 C809 0.950 . S
H798 C806 0.950 . S
H799 C808 0.950 . S
H800 C810 0.950 . S
H801 C812 0.950 . S
H802 C814 0.950 . S
H803 C815 0.950 . S
C804 H796 0.950 . S
C804 C805 1.386 . S
C804 C806 1.391 . S
C805 C804 1.386 . S
C805 C809 1.393 . S
C806 H798 0.950 . S
C806 C804 1.391 . S
C806 C807 1.400 . S
C807 C806 1.400 . S
C807 C808 1.398 . S
C807 C813 1.491 . S
C808 H799 0.950 . S
C808 C807 1.398 . S
C808 C809 1.391 . S
C809 H797 0.950 . S
C809 C805 1.393 . S
C809 C808 1.391 . S
C810 H800 0.950 . S
C810 C811 1.386 . S
C810 C812 1.391 . S
C811 C810 1.386 . S
C811 C815 1.393 . S
C812 H801 0.950 . S
C812 C810 1.391 . S
C812 C813 1.400 . S
C813 C807 1.491 . S
C813 C812 1.400 . S
C813 C814 1.398 . S
C814 H802 0.950 . S
C814 C813 1.398 . S
C814 C815 1.391 . S
C815 H803 0.950 . S
C815 C811 1.393 . S
C815 C814 1.391 . S
H816 C824 0.950 . S
H817 C829 0.950 . S
H818 C826 0.950 . S
H819 C828 0.950 . S
H820 C830 0.950 . S
H821 C832 0.950 . S
H822 C834 0.950 . S
H823 C835 0.950 . S
C824 H816 0.950 . S
C824 C825 1.386 . S
C824 C826 1.391 . S
C825 C824 1.386 . S
C825 C829 1.393 . S
C826 H818 0.950 . S
C826 C824 1.391 . S
C826 C827 1.400 . S
C827 C826 1.400 . S
C827 C828 1.398 . S
C827 C833 1.491 . S
C828 H819 0.950 . S
C828 C827 1.398 . S
C828 C829 1.391 . S
C829 H817 0.950 . S
C829 C825 1.393 . S
C829 C828 1.391 . S
C830 H820 0.950 . S
C830 C831 1.386 . S
C830 C832 1.391 . S
C831 C830 1.386 . S
C831 C835 1.393 . S
C832 H821 0.950 . S
C832 C830 1.391 . S
C832 C833 1.400 . S
C833 C827 1.491 . S
C833 C832 1.400 . S
C833 C834 1.398 . S
C834 H822 0.950 . S
C834 C833 1.398 . S
C834 C835 1.391 . S
C835 H823 0.950 . S
C835 C831 1.393 . S
C835 C834 1.391 . S
H836 C844 0.950 . S
H837 C849 0.950 . S
H838 C846 0.950 . S
H839 C848 0.950 . S
H840 C850 0.950 . S
H841 C852 0.950 . S
H842 C854 0.950 . S
H843 C855 0.950 . S
C844 H836 0.950 . S
C844 C845 1.386 . S
C844 C846 1.391 . S
C845 C844 1.386 . S
C845 C849 1.393 . S
C846 H838 0.950 . S
C846 C844 1.391 . S
C846 C847 1.400 . S
C847 C846 1.400 . S
C847 C848 1.398 . S
C847 C853 1.491 . S
C848 H839 0.950 . S
C848 C847 1.398 . S
C848 C849 1.391 . S
C849 H837 0.950 . S
C849 C845 1.393 . S
C849 C848 1.391 . S
C850 H840 0.950 . S
C850 C851 1.386 . S
C850 C852 1.391 . S
C851 C850 1.386 . S
C851 C855 1.393 . S
C852 H841 0.950 . S
C852 C850 1.391 . S
C852 C853 1.400 . S
C853 C847 1.491 . S
C853 C852 1.400 . S
C853 C854 1.398 . S
C854 H842 0.950 . S
C854 C853 1.398 . S
C854 C855 1.391 . S
C855 H843 0.950 . S
C855 C851 1.393 . S
C855 C854 1.391 . S
H856 C864 0.950 . S
H857 C869 0.950 . S
H858 C866 0.950 . S
H859 C868 0.950 . S
H860 C870 0.950 . S
H861 C872 0.950 . S
H862 C874 0.950 . S
H863 C875 0.950 . S
C864 H856 0.950 . S
C864 C865 1.386 . S
C864 C866 1.391 . S
C865 C864 1.386 . S
C865 C869 1.393 . S
C866 H858 0.950 . S
C866 C864 1.391 . S
C866 C867 1.400 . S
C867 C866 1.400 . S
C867 C868 1.398 . S
C867 C873 1.491 . S
C868 H859 0.950 . S
C868 C867 1.398 . S
C868 C869 1.391 . S
C869 H857 0.950 . S
C869 C865 1.393 . S
C869 C868 1.391 . S
C870 H860 0.950 . S
C870 C871 1.386 . S
C870 C872 1.391 . S
C871 C870 1.386 . S
C871 C875 1.393 . S
C872 H861 0.950 . S
C872 C870 1.391 . S
C872 C873 1.400 . S
C873 C867 1.491 . S
C873 C872 1.400 . S
C873 C874 1.398 . S
C874 H862 0.950 . S
C874 C873 1.398 . S
C874 C875 1.391 . S
C875 H863 0.950 . S
C875 C871 1.393 . S
C875 C874 1.391 . S
H876 C884 0.950 . S
H877 C889 0.950 . S
H878 C886 0.950 . S
H879 C888 0.950 . S
H880 C890 0.950 . S
H881 C892 0.950 . S
H882 C894 0.950 . S
H883 C895 0.950 . S
C884 H876 0.950 . S
C884 C885 1.386 . S
C884 C886 1.391 . S
C885 C884 1.386 . S
C885 C889 1.393 . S
C886 H878 0.950 . S
C886 C884 1.391 . S
C886 C887 1.400 . S
C887 C886 1.400 . S
C887 C888 1.398 . S
C887 C893 1.491 . S
C888 H879 0.950 . S
C888 C887 1.398 . S
C888 C889 1.391 . S
C889 H877 0.950 . S
C889 C885 1.393 . S
C889 C888 1.391 . S
C890 H880 0.950 . S
C890 C891 1.386 . S
C890 C892 1.391 . S
C891 C890 1.386 . S
C891 C895 1.393 . S
C892 H881 0.950 . S
C892 C890 1.391 . S
C892 C893 1.400 . S
C893 C887 1.491 . S
C893 C892 1.400 . S
C893 C894 1.398 . S
C894 H882 0.950 . S
C894 C893 1.398 . S
C894 C895 1.391 . S
C895 H883 0.950 . S
C895 C891 1.393 . S
C895 C894 1.391 . S
H896 C904 0.950 . S
H897 C909 0.950 . S
H898 C906 0.950 . S
H899 C908 0.950 . S
H900 C910 0.950 . S
H901 C912 0.950 . S
H902 C914 0.950 . S
H903 C915 0.950 . S
C904 H896 0.950 . S
C904 C905 1.402 . S
C904 C906 1.391 . S
C905 C904 1.402 . S
C905 C909 1.377 1_655 S
C906 H898 0.950 . S
C906 C904 1.391 . S
C906 C907 1.409 . S
C907 C906 1.409 . S
C907 C908 1.390 1_655 S
C907 C913 1.490 1_655 S
C908 H899 0.950 . S
C908 C907 1.390 1_455 S
C908 C909 1.391 . S
C909 H897 0.950 . S
C909 C905 1.377 1_455 S
C909 C908 1.391 . S
C910 H900 0.950 . S
C910 C911 1.395 . S
C910 C912 1.391 . S
C911 C910 1.395 . S
C911 C915 1.384 1_455 S
C912 H901 0.950 . S
C912 C910 1.391 . S
C912 C913 1.401 . S
C913 C907 1.490 1_455 S
C913 C912 1.401 . S
C913 C914 1.397 1_455 S
C914 H902 0.950 . S
C914 C913 1.397 1_655 S
C914 C915 1.391 . S
C915 H903 0.950 . S
C915 C911 1.384 1_655 S
C915 C914 1.391 . S
H916 C924 0.950 . S
H917 C929 0.950 . S
H918 C926 0.950 . S
H919 C928 0.950 . S
H920 C930 0.950 . S
H921 C932 0.950 . S
H922 C934 0.950 . S
H923 C935 0.950 . S
C924 H916 0.950 . S
C924 C925 1.386 . S
C924 C926 1.391 . S
C925 C924 1.386 . S
C925 C929 1.393 . S
C926 H918 0.950 . S
C926 C924 1.391 . S
C926 C927 1.400 . S
C927 C926 1.400 . S
C927 C928 1.398 . S
C927 C933 1.491 . S
C928 H919 0.950 . S
C928 C927 1.398 . S
C928 C929 1.391 . S
C929 H917 0.950 . S
C929 C925 1.393 . S
C929 C928 1.391 . S
C930 H920 0.950 . S
C930 C931 1.386 . S
C930 C932 1.391 . S
C931 C930 1.386 . S
C931 C935 1.393 . S
C932 H921 0.950 . S
C932 C930 1.391 . S
C932 C933 1.400 . S
C933 C927 1.491 . S
C933 C932 1.400 . S
C933 C934 1.398 . S
C934 H922 0.950 . S
C934 C933 1.398 . S
C934 C935 1.391 . S
C935 H923 0.950 . S
C935 C931 1.393 . S
C935 C934 1.391 . S
H936 C944 0.950 . S
H937 C949 0.950 . S
H938 C946 0.950 . S
H939 C948 0.950 . S
H940 C950 0.950 . S
H941 C952 0.950 . S
H942 C954 0.950 . S
H943 C955 0.950 . S
C944 H936 0.950 . S
C944 C945 1.393 . S
C944 C946 1.391 . S
C945 C944 1.393 . S
C945 C949 1.388 1_455 S
C946 H938 0.950 . S
C946 C944 1.391 . S
C946 C947 1.404 . S
C947 C946 1.404 . S
C947 C948 1.396 1_455 S
C947 C953 1.490 1_455 S
C948 H939 0.950 . S
C948 C947 1.396 1_655 S
C948 C949 1.391 . S
C949 H937 0.950 . S
C949 C945 1.388 1_655 S
C949 C948 1.391 . S
C950 H940 0.950 . S
C950 C951 1.391 . S
C950 C952 1.391 . S
C951 C950 1.391 . S
C951 C955 1.389 1_655 S
C952 H941 0.950 . S
C952 C950 1.391 . S
C952 C953 1.402 . S
C953 C947 1.490 1_655 S
C953 C952 1.402 . S
C953 C954 1.397 1_655 S
C954 H942 0.950 . S
C954 C953 1.397 1_455 S
C954 C955 1.391 . S
C955 H943 0.950 . S
C955 C951 1.389 1_455 S
C955 C954 1.391 . S
H956 C964 0.950 . S
H957 C969 0.950 . S
H958 C966 0.950 . S
H959 C968 0.950 . S
H960 C970 0.950 . S
H961 C972 0.950 . S
H962 C974 0.950 . S
H963 C975 0.950 . S
C964 H956 0.950 . S
C964 C965 1.386 . S
C964 C966 1.391 . S
C965 C964 1.386 . S
C965 C969 1.393 . S
C966 H958 0.950 . S
C966 C964 1.391 . S
C966 C967 1.400 . S
C967 C966 1.400 . S
C967 C968 1.398 . S
C967 C973 1.491 . S
C968 H959 0.950 . S
C968 C967 1.398 . S
C968 C969 1.391 . S
C969 H957 0.950 . S
C969 C965 1.393 . S
C969 C968 1.391 . S
C970 H960 0.950 . S
C970 C971 1.386 . S
C970 C972 1.391 . S
C971 C970 1.386 . S
C971 C975 1.393 . S
C972 H961 0.950 . S
C972 C970 1.391 . S
C972 C973 1.400 . S
C973 C967 1.491 . S
C973 C972 1.400 . S
C973 C974 1.398 . S
C974 H962 0.950 . S
C974 C973 1.398 . S
C974 C975 1.391 . S
C975 H963 0.950 . S
C975 C971 1.393 . S
C975 C974 1.391 . S
H976 C984 0.950 . S
H977 C989 0.950 . S
H978 C986 0.950 . S
H979 C988 0.950 . S
H980 C990 0.950 . S
H981 C992 0.950 . S
H982 C994 0.950 . S
H983 C995 0.950 . S
C984 H976 0.950 . S
C984 C985 1.395 . S
C984 C986 1.391 . S
C985 C984 1.395 . S
C985 C989 1.383 1_455 S
C986 H978 0.950 . S
C986 C984 1.391 . S
C986 C987 1.402 . S
C987 C986 1.402 . S
C987 C988 1.397 1_455 S
C987 C993 1.490 1_455 S
C988 H979 0.950 . S
C988 C987 1.397 1_655 S
C988 C989 1.391 . S
C989 H977 0.950 . S
C989 C985 1.383 1_655 S
C989 C988 1.391 . S
C990 H980 0.950 . S
C990 C991 1.403 . S
C990 C992 1.391 . S
C991 C990 1.403 . S
C991 C995 1.376 1_655 S
C992 H981 0.950 . S
C992 C990 1.391 . S
C992 C993 1.409 . S
C993 C987 1.490 1_655 S
C993 C992 1.409 . S
C993 C994 1.390 1_655 S
C994 H982 0.950 . S
C994 C993 1.390 1_455 S
C994 C995 1.391 . S
C995 H983 0.950 . S
C995 C991 1.376 1_455 S
C995 C994 1.391 . S
H996 C1004 0.950 . S
H997 C1009 0.950 . S
H998 C1006 0.950 . S
H999 C1008 0.950 . S
H1000 C1010 0.950 . S
H1001 C1012 0.950 . S
H1002 C1014 0.950 . S
H1003 C1015 0.950 . S
C1004 H996 0.950 . S
C1004 C1005 1.386 . S
C1004 C1006 1.391 . S
C1005 C1004 1.386 . S
C1005 C1009 1.393 . S
C1006 H998 0.950 . S
C1006 C1004 1.391 . S
C1006 C1007 1.400 . S
C1007 C1006 1.400 . S
C1007 C1008 1.398 . S
C1007 C1013 1.491 . S
C1008 H999 0.950 . S
C1008 C1007 1.398 . S
C1008 C1009 1.391 . S
C1009 H997 0.950 . S
C1009 C1005 1.393 . S
C1009 C1008 1.391 . S
C1010 H1000 0.950 . S
C1010 C1011 1.386 . S
C1010 C1012 1.391 . S
C1011 C1010 1.386 . S
C1011 C1015 1.393 . S
C1012 H1001 0.950 . S
C1012 C1010 1.391 . S
C1012 C1013 1.400 . S
C1013 C1007 1.491 . S
C1013 C1012 1.400 . S
C1013 C1014 1.398 . S
C1014 H1002 0.950 . S
C1014 C1013 1.398 . S
C1014 C1015 1.391 . S
C1015 H1003 0.950 . S
C1015 C1011 1.393 . S
C1015 C1014 1.391 . S
H1016 C1024 0.950 . S
H1017 C1029 0.950 . S
H1018 C1026 0.950 . S
H1019 C1028 0.950 . S
H1020 C1030 0.950 . S
H1021 C1032 0.950 . S
H1022 C1034 0.950 . S
H1023 C1035 0.950 . S
C1024 H1016 0.950 . S
C1024 C1025 1.395 . S
C1024 C1026 1.391 . S
C1025 C1024 1.395 . S
C1025 C1029 1.385 1_455 S
C1026 H1018 0.950 . S
C1026 C1024 1.391 . S
C1026 C1027 1.405 . S
C1027 C1026 1.405 . S
C1027 C1028 1.395 1_455 S
C1027 C1033 1.490 1_455 S
C1028 H1019 0.950 . S
C1028 C1027 1.395 1_655 S
C1028 C1029 1.391 . S
C1029 H1017 0.950 . S
C1029 C1025 1.385 1_655 S
C1029 C1028 1.391 . S
C1030 H1020 0.950 . S
C1030 C1031 1.393 . S
C1030 C1032 1.391 . S
C1031 C1030 1.393 . S
C1031 C1035 1.387 1_655 S
C1032 H1021 0.950 . S
C1032 C1030 1.391 . S
C1032 C1033 1.403 . S
C1033 C1027 1.490 1_655 S
C1033 C1032 1.403 . S
C1033 C1034 1.396 1_655 S
C1034 H1022 0.950 . S
C1034 C1033 1.396 1_455 S
C1034 C1035 1.391 . S
C1035 H1023 0.950 . S
C1035 C1031 1.387 1_455 S
C1035 C1034 1.391 . S
H1036 C1044 0.950 . S
H1037 C1049 0.950 . S
H1038 C1046 0.950 . S
H1039 C1048 0.950 . S
H1040 C1050 0.950 . S
H1041 C1052 0.950 . S
H1042 C1054 0.950 . S
H1043 C1055 0.950 . S
C1044 H1036 0.950 . S
C1044 C1045 1.386 . S
C1044 C1046 1.391 . S
C1045 C1044 1.386 . S
C1045 C1049 1.393 . S
C1046 H1038 0.950 . S
C1046 C1044 1.391 . S
C1046 C1047 1.400 . S
C1047 C1046 1.400 . S
C1047 C1048 1.398 . S
C1047 C1053 1.491 . S
C1048 H1039 0.950 . S
C1048 C1047 1.398 . S
C1048 C1049 1.391 . S
C1049 H1037 0.950 . S
C1049 C1045 1.393 . S
C1049 C1048 1.391 . S
C1050 H1040 0.950 . S
C1050 C1051 1.386 . S
C1050 C1052 1.391 . S
C1051 C1050 1.386 . S
C1051 C1055 1.393 . S
C1052 H1041 0.950 . S
C1052 C1050 1.391 . S
C1052 C1053 1.400 . S
C1053 C1047 1.491 . S
C1053 C1052 1.400 . S
C1053 C1054 1.398 . S
C1054 H1042 0.950 . S
C1054 C1053 1.398 . S
C1054 C1055 1.391 . S
C1055 H1043 0.950 . S
C1055 C1051 1.393 . S
C1055 C1054 1.391 . S
H1056 C1064 0.950 . S
H1057 C1069 0.950 . S
H1058 C1066 0.950 . S
H1059 C1068 0.950 . S
H1060 C1070 0.950 . S
H1061 C1072 0.950 . S
H1062 C1074 0.950 . S
H1063 C1075 0.950 . S
C1064 H1056 0.950 . S
C1064 C1065 1.386 . S
C1064 C1066 1.391 . S
C1065 C1064 1.386 . S
C1065 C1069 1.393 . S
C1066 H1058 0.950 . S
C1066 C1064 1.391 . S
C1066 C1067 1.400 . S
C1067 C1066 1.400 . S
C1067 C1068 1.398 . S
C1067 C1073 1.491 . S
C1068 H1059 0.950 . S
C1068 C1067 1.398 . S
C1068 C1069 1.391 . S
C1069 H1057 0.950 . S
C1069 C1065 1.393 . S
C1069 C1068 1.391 . S
C1070 H1060 0.950 . S
C1070 C1071 1.386 . S
C1070 C1072 1.391 . S
C1071 C1070 1.386 . S
C1071 C1075 1.393 . S
C1072 H1061 0.950 . S
C1072 C1070 1.391 . S
C1072 C1073 1.400 . S
C1073 C1067 1.491 . S
C1073 C1072 1.400 . S
C1073 C1074 1.398 . S
C1074 H1062 0.950 . S
C1074 C1073 1.398 . S
C1074 C1075 1.391 . S
C1075 H1063 0.950 . S
C1075 C1071 1.393 . S
C1075 C1074 1.391 . S
H1076 C1084 0.950 . S
H1077 C1089 0.950 . S
H1078 C1086 0.950 . S
H1079 C1088 0.950 . S
H1080 C1090 0.950 . S
H1081 C1092 0.950 . S
H1082 C1094 0.950 . S
H1083 C1095 0.950 . S
C1084 H1076 0.950 . S
C1084 C1085 1.386 . S
C1084 C1086 1.391 . S
C1085 C1084 1.386 . S
C1085 C1089 1.393 . S
C1086 H1078 0.950 . S
C1086 C1084 1.391 . S
C1086 C1087 1.400 . S
C1087 C1086 1.400 . S
C1087 C1088 1.398 . S
C1087 C1093 1.491 . S
C1088 H1079 0.950 . S
C1088 C1087 1.398 . S
C1088 C1089 1.391 . S
C1089 H1077 0.950 . S
C1089 C1085 1.393 . S
C1089 C1088 1.391 . S
C1090 H1080 0.950 . S
C1090 C1091 1.386 . S
C1090 C1092 1.391 . S
C1091 C1090 1.386 . S
C1091 C1095 1.393 . S
C1092 H1081 0.950 . S
C1092 C1090 1.391 . S
C1092 C1093 1.400 . S
C1093 C1087 1.491 . S
C1093 C1092 1.400 . S
C1093 C1094 1.398 . S
C1094 H1082 0.950 . S
C1094 C1093 1.398 . S
C1094 C1095 1.391 . S
C1095 H1083 0.950 . S
C1095 C1091 1.393 . S
C1095 C1094 1.391 . S
H1096 C1104 0.950 . S
H1097 C1109 0.950 . S
H1098 C1106 0.950 . S
H1099 C1108 0.950 . S
H1100 C1110 0.950 . S
H1101 C1112 0.950 . S
H1102 C1114 0.950 . S
H1103 C1115 0.950 . S
C1104 H1096 0.950 . S
C1104 C1105 1.386 . S
C1104 C1106 1.391 . S
C1105 C1104 1.386 . S
C1105 C1109 1.393 . S
C1106 H1098 0.950 . S
C1106 C1104 1.391 . S
C1106 C1107 1.400 . S
C1107 C1106 1.400 . S
C1107 C1108 1.398 . S
C1107 C1113 1.491 . S
C1108 H1099 0.950 . S
C1108 C1107 1.398 . S
C1108 C1109 1.391 . S
C1109 H1097 0.950 . S
C1109 C1105 1.393 . S
C1109 C1108 1.391 . S
C1110 H1100 0.950 . S
C1110 C1111 1.386 . S
C1110 C1112 1.391 . S
C1111 C1110 1.386 . S
C1111 C1115 1.393 . S
C1112 H1101 0.950 . S
C1112 C1110 1.391 . S
C1112 C1113 1.400 . S
C1113 C1107 1.491 . S
C1113 C1112 1.400 . S
C1113 C1114 1.398 . S
C1114 H1102 0.950 . S
C1114 C1113 1.398 . S
C1114 C1115 1.391 . S
C1115 H1103 0.950 . S
C1115 C1111 1.393 . S
C1115 C1114 1.391 . S
H1116 C1124 0.950 . S
H1117 C1129 0.950 . S
H1118 C1126 0.950 . S
H1119 C1128 0.950 . S
H1120 C1130 0.950 . S
H1121 C1132 0.950 . S
H1122 C1134 0.950 . S
H1123 C1135 0.950 . S
C1124 H1116 0.950 . S
C1124 C1125 1.386 . S
C1124 C1126 1.391 . S
C1125 C1124 1.386 . S
C1125 C1129 1.393 . S
C1126 H1118 0.950 . S
C1126 C1124 1.391 . S
C1126 C1127 1.400 . S
C1127 C1126 1.400 . S
C1127 C1128 1.398 . S
C1127 C1133 1.491 . S
C1128 H1119 0.950 . S
C1128 C1127 1.398 . S
C1128 C1129 1.391 . S
C1129 H1117 0.950 . S
C1129 C1125 1.393 . S
C1129 C1128 1.391 . S
C1130 H1120 0.950 . S
C1130 C1131 1.386 . S
C1130 C1132 1.391 . S
C1131 C1130 1.386 . S
C1131 C1135 1.393 . S
C1132 H1121 0.950 . S
C1132 C1130 1.391 . S
C1132 C1133 1.400 . S
C1133 C1127 1.491 . S
C1133 C1132 1.400 . S
C1133 C1134 1.398 . S
C1134 H1122 0.950 . S
C1134 C1133 1.398 . S
C1134 C1135 1.391 . S
C1135 H1123 0.950 . S
C1135 C1131 1.393 . S
C1135 C1134 1.391 . S
H1136 C1144 0.950 . S
H1137 C1149 0.950 . S
H1138 C1146 0.950 . S
H1139 C1148 0.950 . S
H1140 C1150 0.950 . S
H1141 C1152 0.950 . S
H1142 C1154 0.950 . S
H1143 C1155 0.950 . S
C1144 H1136 0.950 . S
C1144 C1145 1.386 . S
C1144 C1146 1.391 . S
C1145 C1144 1.386 . S
C1145 C1149 1.393 . S
C1146 H1138 0.950 . S
C1146 C1144 1.391 . S
C1146 C1147 1.400 . S
C1147 C1146 1.400 . S
C1147 C1148 1.398 . S
C1147 C1153 1.491 . S
C1148 H1139 0.950 . S
C1148 C1147 1.398 . S
C1148 C1149 1.391 . S
C1149 H1137 0.950 . S
C1149 C1145 1.393 . S
C1149 C1148 1.391 . S
C1150 H1140 0.950 . S
C1150 C1151 1.386 . S
C1150 C1152 1.391 . S
C1151 C1150 1.386 . S
C1151 C1155 1.393 . S
C1152 H1141 0.950 . S
C1152 C1150 1.391 . S
C1152 C1153 1.400 . S
C1153 C1147 1.491 . S
C1153 C1152 1.400 . S
C1153 C1154 1.398 . S
C1154 H1142 0.950 . S
C1154 C1153 1.398 . S
C1154 C1155 1.391 . S
C1155 H1143 0.950 . S
C1155 C1151 1.393 . S
C1155 C1154 1.391 . S
H1156 C1164 0.950 . S
H1157 C1169 0.950 . S
H1158 C1166 0.950 . S
H1159 C1168 0.950 . S
H1160 C1170 0.950 . S
H1161 C1172 0.950 . S
H1162 C1174 0.950 . S
H1163 C1175 0.950 . S
C1164 H1156 0.950 . S
C1164 C1165 1.386 . S
C1164 C1166 1.391 . S
C1165 C1164 1.386 . S
C1165 C1169 1.393 . S
C1166 H1158 0.950 . S
C1166 C1164 1.391 . S
C1166 C1167 1.400 . S
C1167 C1166 1.400 . S
C1167 C1168 1.398 . S
C1167 C1173 1.491 . S
C1168 H1159 0.950 . S
C1168 C1167 1.398 . S
C1168 C1169 1.391 . S
C1169 H1157 0.950 . S
C1169 C1165 1.393 . S
C1169 C1168 1.391 . S
C1170 H1160 0.950 . S
C1170 C1171 1.386 . S
C1170 C1172 1.391 . S
C1171 C1170 1.386 . S
C1171 C1175 1.393 . S
C1172 H1161 0.950 . S
C1172 C1170 1.391 . S
C1172 C1173 1.400 . S
C1173 C1167 1.491 . S
C1173 C1172 1.400 . S
C1173 C1174 1.398 . S
C1174 H1162 0.950 . S
C1174 C1173 1.398 . S
C1174 C1175 1.391 . S
C1175 H1163 0.950 . S
C1175 C1171 1.393 . S
C1175 C1174 1.391 . S
H1176 C1184 0.950 . S
H1177 C1189 0.950 . S
H1178 C1186 0.950 . S
H1179 C1188 0.950 . S
H1180 C1190 0.950 . S
H1181 C1192 0.950 . S
H1182 C1194 0.950 . S
H1183 C1195 0.950 . S
C1184 H1176 0.950 . S
C1184 C1185 1.386 . S
C1184 C1186 1.391 . S
C1185 C1184 1.386 . S
C1185 C1189 1.393 . S
C1186 H1178 0.950 . S
C1186 C1184 1.391 . S
C1186 C1187 1.400 . S
C1187 C1186 1.400 . S
C1187 C1188 1.398 . S
C1187 C1193 1.491 . S
C1188 H1179 0.950 . S
C1188 C1187 1.398 . S
C1188 C1189 1.391 . S
C1189 H1177 0.950 . S
C1189 C1185 1.393 . S
C1189 C1188 1.391 . S
C1190 H1180 0.950 . S
C1190 C1191 1.386 . S
C1190 C1192 1.391 . S
C1191 C1190 1.386 . S
C1191 C1195 1.393 . S
C1192 H1181 0.950 . S
C1192 C1190 1.391 . S
C1192 C1193 1.400 . S
C1193 C1187 1.491 . S
C1193 C1192 1.400 . S
C1193 C1194 1.398 . S
C1194 H1182 0.950 . S
C1194 C1193 1.398 . S
C1194 C1195 1.391 . S
C1195 H1183 0.950 . S
C1195 C1191 1.393 . S
C1195 C1194 1.391 . S
H1196 C1204 0.950 . S
H1197 C1209 0.950 . S
H1198 C1206 0.950 . S
H1199 C1208 0.950 . S
H1200 C1210 0.950 . S
H1201 C1212 0.950 . S
H1202 C1214 0.950 . S
H1203 C1215 0.950 . S
C1204 H1196 0.950 . S
C1204 C1205 1.386 . S
C1204 C1206 1.391 . S
C1205 C1204 1.386 . S
C1205 C1209 1.393 . S
C1206 H1198 0.950 . S
C1206 C1204 1.391 . S
C1206 C1207 1.400 . S
C1207 C1206 1.400 . S
C1207 C1208 1.398 . S
C1207 C1213 1.491 . S
C1208 H1199 0.950 . S
C1208 C1207 1.398 . S
C1208 C1209 1.391 . S
C1209 H1197 0.950 . S
C1209 C1205 1.393 . S
C1209 C1208 1.391 . S
C1210 H1200 0.950 . S
C1210 C1211 1.386 . S
C1210 C1212 1.391 . S
C1211 C1210 1.386 . S
C1211 C1215 1.393 . S
C1212 H1201 0.950 . S
C1212 C1210 1.391 . S
C1212 C1213 1.400 . S
C1213 C1207 1.491 . S
C1213 C1212 1.400 . S
C1213 C1214 1.398 . S
C1214 H1202 0.950 . S
C1214 C1213 1.398 . S
C1214 C1215 1.391 . S
C1215 H1203 0.950 . S
C1215 C1211 1.393 . S
C1215 C1214 1.391 . S
H1216 C1224 0.950 . S
H1217 C1229 0.950 . S
H1218 C1226 0.950 . S
H1219 C1228 0.950 . S
H1220 C1230 0.950 . S
H1221 C1232 0.950 . S
H1222 C1234 0.950 . S
H1223 C1235 0.950 . S
C1224 H1216 0.950 . S
C1224 C1225 1.386 . S
C1224 C1226 1.391 . S
C1225 C1224 1.386 . S
C1225 C1229 1.393 . S
C1226 H1218 0.950 . S
C1226 C1224 1.391 . S
C1226 C1227 1.400 . S
C1227 C1226 1.400 . S
C1227 C1228 1.398 . S
C1227 C1233 1.491 . S
C1228 H1219 0.950 . S
C1228 C1227 1.398 . S
C1228 C1229 1.391 . S
C1229 H1217 0.950 . S
C1229 C1225 1.393 . S
C1229 C1228 1.391 . S
C1230 H1220 0.950 . S
C1230 C1231 1.386 . S
C1230 C1232 1.391 . S
C1231 C1230 1.386 . S
C1231 C1235 1.393 . S
C1232 H1221 0.950 . S
C1232 C1230 1.391 . S
C1232 C1233 1.400 . S
C1233 C1227 1.491 . S
C1233 C1232 1.400 . S
C1233 C1234 1.398 . S
C1234 H1222 0.950 . S
C1234 C1233 1.398 . S
C1234 C1235 1.391 . S
C1235 H1223 0.950 . S
C1235 C1231 1.393 . S
C1235 C1234 1.391 . S
H1236 C1244 0.950 . S
H1237 C1249 0.950 . S
H1238 C1246 0.950 . S
H1239 C1248 0.950 . S
H1240 C1250 0.950 . S
H1241 C1252 0.950 . S
H1242 C1254 0.950 . S
H1243 C1255 0.950 . S
C1244 H1236 0.950 . S
C1244 C1245 1.386 . S
C1244 C1246 1.391 . S
C1245 C1244 1.386 . S
C1245 C1249 1.393 . S
C1246 H1238 0.950 . S
C1246 C1244 1.391 . S
C1246 C1247 1.400 . S
C1247 C1246 1.400 . S
C1247 C1248 1.398 . S
C1247 C1253 1.491 . S
C1248 H1239 0.950 . S
C1248 C1247 1.398 . S
C1248 C1249 1.391 . S
C1249 H1237 0.950 . S
C1249 C1245 1.393 . S
C1249 C1248 1.391 . S
C1250 H1240 0.950 . S
C1250 C1251 1.386 . S
C1250 C1252 1.391 . S
C1251 C1250 1.386 . S
C1251 C1255 1.393 . S
C1252 H1241 0.950 . S
C1252 C1250 1.391 . S
C1252 C1253 1.400 . S
C1253 C1247 1.491 . S
C1253 C1252 1.400 . S
C1253 C1254 1.398 . S
C1254 H1242 0.950 . S
C1254 C1253 1.398 . S
C1254 C1255 1.391 . S
C1255 H1243 0.950 . S
C1255 C1251 1.393 . S
C1255 C1254 1.391 . S
H1256 C1264 0.950 . S
H1257 C1269 0.950 . S
H1258 C1266 0.950 . S
H1259 C1268 0.950 . S
H1260 C1270 0.950 . S
H1261 C1272 0.950 . S
H1262 C1274 0.950 . S
H1263 C1275 0.950 . S
C1264 H1256 0.950 . S
C1264 C1265 1.386 . S
C1264 C1266 1.391 . S
C1265 C1264 1.386 . S
C1265 C1269 1.393 . S
C1266 H1258 0.950 . S
C1266 C1264 1.391 . S
C1266 C1267 1.400 . S
C1267 C1266 1.400 . S
C1267 C1268 1.398 . S
C1267 C1273 1.491 . S
C1268 H1259 0.950 . S
C1268 C1267 1.398 . S
C1268 C1269 1.391 . S
C1269 H1257 0.950 . S
C1269 C1265 1.393 . S
C1269 C1268 1.391 . S
C1270 H1260 0.950 . S
C1270 C1271 1.386 . S
C1270 C1272 1.391 . S
C1271 C1270 1.386 . S
C1271 C1275 1.393 . S
C1272 H1261 0.950 . S
C1272 C1270 1.391 . S
C1272 C1273 1.400 . S
C1273 C1267 1.491 . S
C1273 C1272 1.400 . S
C1273 C1274 1.398 . S
C1274 H1262 0.950 . S
C1274 C1273 1.398 . S
C1274 C1275 1.391 . S
C1275 H1263 0.950 . S
C1275 C1271 1.393 . S
C1275 C1274 1.391 . S
H1276 C1284 0.950 . S
H1277 C1289 0.950 . S
H1278 C1286 0.950 . S
H1279 C1288 0.950 . S
H1280 C1290 0.950 . S
H1281 C1292 0.950 . S
H1282 C1294 0.950 . S
H1283 C1295 0.950 . S
C1284 H1276 0.950 . S
C1284 C1285 1.386 . S
C1284 C1286 1.391 . S
C1285 C1284 1.386 . S
C1285 C1289 1.393 . S
C1286 H1278 0.950 . S
C1286 C1284 1.391 . S
C1286 C1287 1.400 . S
C1287 C1286 1.400 . S
C1287 C1288 1.398 . S
C1287 C1293 1.491 . S
C1288 H1279 0.950 . S
C1288 C1287 1.398 . S
C1288 C1289 1.391 . S
C1289 H1277 0.950 . S
C1289 C1285 1.393 . S
C1289 C1288 1.391 . S
C1290 H1280 0.950 . S
C1290 C1291 1.386 . S
C1290 C1292 1.391 . S
C1291 C1290 1.386 . S
C1291 C1295 1.393 . S
C1292 H1281 0.950 . S
C1292 C1290 1.391 . S
C1292 C1293 1.400 . S
C1293 C1287 1.491 . S
C1293 C1292 1.400 . S
C1293 C1294 1.398 . S
C1294 H1282 0.950 . S
C1294 C1293 1.398 . S
C1294 C1295 1.391 . S
C1295 H1283 0.950 . S
C1295 C1291 1.393 . S
C1295 C1294 1.391 . S
H1296 C1304 0.950 . S
H1297 C1309 0.950 . S
H1298 C1306 0.950 . S
H1299 C1308 0.950 . S
H1300 C1310 0.950 . S
H1301 C1312 0.950 . S
H1302 C1314 0.950 . S
H1303 C1315 0.950 . S
C1304 H1296 0.950 . S
C1304 C1305 1.386 . S
C1304 C1306 1.391 . S
C1305 C1304 1.386 . S
C1305 C1309 1.393 . S
C1306 H1298 0.950 . S
C1306 C1304 1.391 . S
C1306 C1307 1.400 . S
C1307 C1306 1.400 . S
C1307 C1308 1.398 . S
C1307 C1313 1.491 . S
C1308 H1299 0.950 . S
C1308 C1307 1.398 . S
C1308 C1309 1.391 . S
C1309 H1297 0.950 . S
C1309 C1305 1.393 . S
C1309 C1308 1.391 . S
C1310 H1300 0.950 . S
C1310 C1311 1.386 . S
C1310 C1312 1.391 . S
C1311 C1310 1.386 . S
C1311 C1315 1.393 . S
C1312 H1301 0.950 . S
C1312 C1310 1.391 . S
C1312 C1313 1.400 . S
C1313 C1307 1.491 . S
C1313 C1312 1.400 . S
C1313 C1314 1.398 . S
C1314 H1302 0.950 . S
C1314 C1313 1.398 . S
C1314 C1315 1.391 . S
C1315 H1303 0.950 . S
C1315 C1311 1.393 . S
C1315 C1314 1.391 . S
H1316 C1324 0.950 . S
H1317 C1329 0.950 . S
H1318 C1326 0.950 . S
H1319 C1328 0.950 . S
H1320 C1330 0.950 . S
H1321 C1332 0.950 . S
H1322 C1334 0.950 . S
H1323 C1335 0.950 . S
C1324 H1316 0.950 . S
C1324 C1325 1.386 . S
C1324 C1326 1.391 . S
C1325 C1324 1.386 . S
C1325 C1329 1.393 . S
C1326 H1318 0.950 . S
C1326 C1324 1.391 . S
C1326 C1327 1.400 . S
C1327 C1326 1.400 . S
C1327 C1328 1.398 . S
C1327 C1333 1.491 . S
C1328 H1319 0.950 . S
C1328 C1327 1.398 . S
C1328 C1329 1.391 . S
C1329 H1317 0.950 . S
C1329 C1325 1.393 . S
C1329 C1328 1.391 . S
C1330 H1320 0.950 . S
C1330 C1331 1.386 . S
C1330 C1332 1.391 . S
C1331 C1330 1.386 . S
C1331 C1335 1.393 . S
C1332 H1321 0.950 . S
C1332 C1330 1.391 . S
C1332 C1333 1.400 . S
C1333 C1327 1.491 . S
C1333 C1332 1.400 . S
C1333 C1334 1.398 . S
C1334 H1322 0.950 . S
C1334 C1333 1.398 . S
C1334 C1335 1.391 . S
C1335 H1323 0.950 . S
C1335 C1331 1.393 . S
C1335 C1334 1.391 . S
H1336 C1344 0.950 . S
H1337 C1349 0.950 . S
H1338 C1346 0.950 . S
H1339 C1348 0.950 . S
H1340 C1350 0.950 . S
H1341 C1352 0.950 . S
H1342 C1354 0.950 . S
H1343 C1355 0.950 . S
C1344 H1336 0.950 . S
C1344 C1345 1.386 . S
C1344 C1346 1.391 . S
C1345 C1344 1.386 . S
C1345 C1349 1.393 . S
C1346 H1338 0.950 . S
C1346 C1344 1.391 . S
C1346 C1347 1.400 . S
C1347 C1346 1.400 . S
C1347 C1348 1.398 . S
C1347 C1353 1.491 . S
C1348 H1339 0.950 . S
C1348 C1347 1.398 . S
C1348 C1349 1.391 . S
C1349 H1337 0.950 . S
C1349 C1345 1.393 . S
C1349 C1348 1.391 . S
C1350 H1340 0.950 . S
C1350 C1351 1.386 . S
C1350 C1352 1.391 . S
C1351 C1350 1.386 . S
C1351 C1355 1.393 . S
C1352 H1341 0.950 . S
C1352 C1350 1.391 . S
C1352 C1353 1.400 . S
C1353 C1347 1.491 . S
C1353 C1352 1.400 . S
C1353 C1354 1.398 . S
C1354 H1342 0.950 . S
C1354 C1353 1.398 . S
C1354 C1355 1.391 . S
C1355 H1343 0.950 . S
C1355 C1351 1.393 . S
C1355 C1354 1.391 . S
H1356 C1364 0.950 . S
H1357 C1369 0.950 . S
H1358 C1366 0.950 . S
H1359 C1368 0.950 . S
H1360 C1370 0.950 . S
H1361 C1372 0.950 . S
H1362 C1374 0.950 . S
H1363 C1375 0.950 . S
C1364 H1356 0.950 . S
C1364 C1365 1.386 . S
C1364 C1366 1.391 . S
C1365 C1364 1.386 . S
C1365 C1369 1.393 . S
C1366 H1358 0.950 . S
C1366 C1364 1.391 . S
C1366 C1367 1.400 . S
C1367 C1366 1.400 . S
C1367 C1368 1.398 . S
C1367 C1373 1.491 . S
C1368 H1359 0.950 . S
C1368 C1367 1.398 . S
C1368 C1369 1.391 . S
C1369 H1357 0.950 . S
C1369 C1365 1.393 . S
C1369 C1368 1.391 . S
C1370 H1360 0.950 . S
C1370 C1371 1.386 . S
C1370 C1372 1.391 . S
C1371 C1370 1.386 . S
C1371 C1375 1.393 . S
C1372 H1361 0.950 . S
C1372 C1370 1.391 . S
C1372 C1373 1.400 . S
C1373 C1367 1.491 . S
C1373 C1372 1.400 . S
C1373 C1374 1.398 . S
C1374 H1362 0.950 . S
C1374 C1373 1.398 . S
C1374 C1375 1.391 . S
C1375 H1363 0.950 . S
C1375 C1371 1.393 . S
C1375 C1374 1.391 . S
H1376 C1384 0.950 . S
H1377 C1389 0.950 . S
H1378 C1386 0.950 . S
H1379 C1388 0.950 . S
H1380 C1390 0.950 . S
H1381 C1392 0.950 . S
H1382 C1394 0.950 . S
H1383 C1395 0.950 . S
C1384 H1376 0.950 . S
C1384 C1385 1.386 1_565 S
C1384 C1386 1.391 . S
C1385 C1384 1.386 1_545 S
C1385 C1389 1.393 . S
C1386 H1378 0.950 . S
C1386 C1384 1.391 . S
C1386 C1387 1.397 1_565 S
C1387 C1386 1.397 1_545 S
C1387 C1388 1.402 . S
C1387 C1393 1.490 1_544 S
C1388 H1379 0.950 . S
C1388 C1387 1.402 . S
C1388 C1389 1.391 . S
C1389 H1377 0.950 . S
C1389 C1385 1.393 . S
C1389 C1388 1.391 . S
C1390 H1380 0.950 . S
C1390 C1391 1.386 1_545 S
C1390 C1392 1.391 . S
C1391 C1390 1.386 1_565 S
C1391 C1395 1.393 . S
C1392 H1381 0.950 . S
C1392 C1390 1.391 . S
C1392 C1393 1.397 1_545 S
C1393 C1387 1.490 1_566 S
C1393 C1392 1.397 1_565 S
C1393 C1394 1.402 . S
C1394 H1382 0.950 . S
C1394 C1393 1.402 . S
C1394 C1395 1.391 . S
C1395 H1383 0.950 . S
C1395 C1391 1.393 . S
C1395 C1394 1.391 . S
H1396 C1404 0.950 . S
H1397 C1409 0.950 . S
H1398 C1406 0.950 . S
H1399 C1408 0.950 . S
H1400 C1410 0.950 . S
H1401 C1412 0.950 . S
H1402 C1414 0.950 . S
H1403 C1415 0.950 . S
C1404 H1396 0.950 . S
C1404 C1405 1.386 . S
C1404 C1406 1.391 . S
C1405 C1404 1.386 . S
C1405 C1409 1.393 . S
C1406 H1398 0.950 . S
C1406 C1404 1.391 . S
C1406 C1407 1.400 . S
C1407 C1406 1.400 . S
C1407 C1408 1.398 . S
C1407 C1413 1.491 1_554 S
C1408 H1399 0.950 . S
C1408 C1407 1.398 . S
C1408 C1409 1.391 . S
C1409 H1397 0.950 . S
C1409 C1405 1.393 . S
C1409 C1408 1.391 . S
C1410 H1400 0.950 . S
C1410 C1411 1.386 . S
C1410 C1412 1.391 . S
C1411 C1410 1.386 . S
C1411 C1415 1.393 . S
C1412 H1401 0.950 . S
C1412 C1410 1.391 . S
C1412 C1413 1.400 . S
C1413 C1407 1.491 1_556 S
C1413 C1412 1.400 . S
C1413 C1414 1.398 . S
C1414 H1402 0.950 . S
C1414 C1413 1.398 . S
C1414 C1415 1.391 . S
C1415 H1403 0.950 . S
C1415 C1411 1.393 . S
C1415 C1414 1.391 . S
H1416 C1424 0.950 . S
H1417 C1429 0.950 . S
H1418 C1426 0.950 . S
H1419 C1428 0.950 . S
H1420 C1430 0.950 . S
H1421 C1432 0.950 . S
H1422 C1434 0.950 . S
H1423 C1435 0.950 . S
C1424 H1416 0.950 . S
C1424 C1425 1.386 . S
C1424 C1426 1.391 . S
C1425 C1424 1.386 . S
C1425 C1429 1.393 . S
C1426 H1418 0.950 . S
C1426 C1424 1.391 . S
C1426 C1427 1.400 . S
C1427 C1426 1.400 . S
C1427 C1428 1.398 . S
C1427 C1433 1.491 . S
C1428 H1419 0.950 . S
C1428 C1427 1.398 . S
C1428 C1429 1.391 . S
C1429 H1417 0.950 . S
C1429 C1425 1.393 . S
C1429 C1428 1.391 . S
C1430 H1420 0.950 . S
C1430 C1431 1.386 . S
C1430 C1432 1.391 . S
C1431 C1430 1.386 . S
C1431 C1435 1.393 . S
C1432 H1421 0.950 . S
C1432 C1430 1.391 . S
C1432 C1433 1.400 . S
C1433 C1427 1.491 . S
C1433 C1432 1.400 . S
C1433 C1434 1.398 . S
C1434 H1422 0.950 . S
C1434 C1433 1.398 . S
C1434 C1435 1.391 . S
C1435 H1423 0.950 . S
C1435 C1431 1.393 . S
C1435 C1434 1.391 . S
H1436 C1444 0.950 . S
H1437 C1449 0.950 . S
H1438 C1446 0.950 . S
H1439 C1448 0.950 . S
H1440 C1450 0.950 . S
H1441 C1452 0.950 . S
H1442 C1454 0.950 . S
H1443 C1455 0.950 . S
C1444 H1436 0.950 . S
C1444 C1445 1.368 1_565 S
C1444 C1446 1.391 . S
C1445 C1444 1.368 1_545 S
C1445 C1449 1.411 . S
C1446 H1438 0.950 . S
C1446 C1444 1.391 . S
C1446 C1447 1.385 1_565 S
C1447 C1446 1.385 1_545 S
C1447 C1448 1.414 . S
C1447 C1453 1.490 1_545 S
C1448 H1439 0.950 . S
C1448 C1447 1.414 . S
C1448 C1449 1.391 . S
C1449 H1437 0.950 . S
C1449 C1445 1.411 . S
C1449 C1448 1.391 . S
C1450 H1440 0.950 . S
C1450 C1451 1.385 1_545 S
C1450 C1452 1.391 . S
C1451 C1450 1.385 1_565 S
C1451 C1455 1.394 . S
C1452 H1441 0.950 . S
C1452 C1450 1.391 . S
C1452 C1453 1.402 1_545 S
C1453 C1447 1.490 1_565 S
C1453 C1452 1.402 1_565 S
C1453 C1454 1.397 . S
C1454 H1442 0.950 . S
C1454 C1453 1.397 . S
C1454 C1455 1.391 . S
C1455 H1443 0.950 . S
C1455 C1451 1.394 . S
C1455 C1454 1.391 . S
H1456 C1464 0.950 . S
H1457 C1469 0.950 . S
H1458 C1466 0.950 . S
H1459 C1468 0.950 . S
H1460 C1470 0.950 . S
H1461 C1472 0.950 . S
H1462 C1474 0.950 . S
H1463 C1475 0.950 . S
C1464 H1456 0.950 . S
C1464 C1465 1.386 . S
C1464 C1466 1.391 . S
C1465 C1464 1.386 . S
C1465 C1469 1.393 . S
C1466 H1458 0.950 . S
C1466 C1464 1.391 . S
C1466 C1467 1.400 . S
C1467 C1466 1.400 . S
C1467 C1468 1.398 . S
C1467 C1473 1.491 1_556 S
C1468 H1459 0.950 . S
C1468 C1467 1.398 . S
C1468 C1469 1.391 . S
C1469 H1457 0.950 . S
C1469 C1465 1.393 . S
C1469 C1468 1.391 . S
C1470 H1460 0.950 . S
C1470 C1471 1.386 . S
C1470 C1472 1.391 . S
C1471 C1470 1.386 . S
C1471 C1475 1.393 . S
C1472 H1461 0.950 . S
C1472 C1470 1.391 . S
C1472 C1473 1.400 . S
C1473 C1467 1.491 1_554 S
C1473 C1472 1.400 . S
C1473 C1474 1.398 . S
C1474 H1462 0.950 . S
C1474 C1473 1.398 . S
C1474 C1475 1.391 . S
C1475 H1463 0.950 . S
C1475 C1471 1.393 . S
C1475 C1474 1.391 . S
H1476 C1484 0.950 . S
H1477 C1489 0.950 . S
H1478 C1486 0.950 . S
H1479 C1488 0.950 . S
H1480 C1490 0.950 . S
H1481 C1492 0.950 . S
H1482 C1494 0.950 . S
H1483 C1495 0.950 . S
C1484 H1476 0.950 . S
C1484 C1485 1.386 . S
C1484 C1486 1.391 . S
C1485 C1484 1.386 . S
C1485 C1489 1.393 . S
C1486 H1478 0.950 . S
C1486 C1484 1.391 . S
C1486 C1487 1.400 . S
C1487 C1486 1.400 . S
C1487 C1488 1.398 . S
C1487 C1493 1.491 . S
C1488 H1479 0.950 . S
C1488 C1487 1.398 . S
C1488 C1489 1.391 . S
C1489 H1477 0.950 . S
C1489 C1485 1.393 . S
C1489 C1488 1.391 . S
C1490 H1480 0.950 . S
C1490 C1491 1.386 . S
C1490 C1492 1.391 . S
C1491 C1490 1.386 . S
C1491 C1495 1.393 . S
C1492 H1481 0.950 . S
C1492 C1490 1.391 . S
C1492 C1493 1.400 . S
C1493 C1487 1.491 . S
C1493 C1492 1.400 . S
C1493 C1494 1.398 . S
C1494 H1482 0.950 . S
C1494 C1493 1.398 . S
C1494 C1495 1.391 . S
C1495 H1483 0.950 . S
C1495 C1491 1.393 . S
C1495 C1494 1.391 . S
H1496 C1504 0.950 . S
H1497 C1509 0.950 . S
H1498 C1506 0.950 . S
H1499 C1508 0.950 . S
H1500 C1510 0.950 . S
H1501 C1512 0.950 . S
H1502 C1514 0.950 . S
H1503 C1515 0.950 . S
C1504 H1496 0.950 . S
C1504 C1505 1.386 1_545 S
C1504 C1506 1.391 . S
C1505 C1504 1.386 1_565 S
C1505 C1509 1.393 . S
C1506 H1498 0.950 . S
C1506 C1504 1.391 . S
C1506 C1507 1.386 1_545 S
C1507 C1506 1.386 1_565 S
C1507 C1508 1.412 . S
C1507 C1513 1.490 . S
C1508 H1499 0.950 . S
C1508 C1507 1.412 . S
C1508 C1509 1.391 . S
C1509 H1497 0.950 . S
C1509 C1505 1.393 . S
C1509 C1508 1.391 . S
C1510 H1500 0.950 . S
C1510 C1511 1.376 1_565 S
C1510 C1512 1.391 . S
C1511 C1510 1.376 1_545 S
C1511 C1515 1.402 . S
C1512 H1501 0.950 . S
C1512 C1510 1.391 . S
C1512 C1513 1.400 . S
C1513 C1507 1.490 . S
C1513 C1512 1.400 . S
C1513 C1514 1.398 1_565 S
C1514 H1502 0.950 . S
C1514 C1513 1.398 1_545 S
C1514 C1515 1.391 . S
C1515 H1503 0.950 . S
C1515 C1511 1.402 . S
C1515 C1514 1.391 . S
H1516 C1524 0.950 . S
H1517 C1529 0.950 . S
H1518 C1526 0.950 . S
H1519 C1528 0.950 . S
H1520 C1530 0.950 . S
H1521 C1532 0.950 . S
H1522 C1534 0.950 . S
H1523 C1535 0.950 . S
C1524 H1516 0.950 . S
C1524 C1525 1.386 . S
C1524 C1526 1.391 . S
C1525 C1524 1.386 . S
C1525 C1529 1.393 . S
C1526 H1518 0.950 . S
C1526 C1524 1.391 . S
C1526 C1527 1.400 . S
C1527 C1526 1.400 . S
C1527 C1528 1.398 . S
C1527 C1533 1.491 . S
C1528 H1519 0.950 . S
C1528 C1527 1.398 . S
C1528 C1529 1.391 . S
C1529 H1517 0.950 . S
C1529 C1525 1.393 . S
C1529 C1528 1.391 . S
C1530 H1520 0.950 . S
C1530 C1531 1.386 . S
C1530 C1532 1.391 . S
C1531 C1530 1.386 . S
C1531 C1535 1.393 . S
C1532 H1521 0.950 . S
C1532 C1530 1.391 . S
C1532 C1533 1.400 . S
C1533 C1527 1.491 . S
C1533 C1532 1.400 . S
C1533 C1534 1.398 . S
C1534 H1522 0.950 . S
C1534 C1533 1.398 . S
C1534 C1535 1.391 . S
C1535 H1523 0.950 . S
C1535 C1531 1.393 . S
C1535 C1534 1.391 . S
H1536 C1544 0.950 . S
H1537 C1549 0.950 . S
H1538 C1546 0.950 . S
H1539 C1548 0.950 . S
H1540 C1550 0.950 . S
H1541 C1552 0.950 . S
H1542 C1554 0.950 . S
H1543 C1555 0.950 . S
C1544 H1536 0.950 . S
C1544 C1545 1.386 . S
C1544 C1546 1.391 . S
C1545 C1544 1.386 . S
C1545 C1549 1.393 . S
C1546 H1538 0.950 . S
C1546 C1544 1.391 . S
C1546 C1547 1.400 . S
C1547 C1546 1.400 . S
C1547 C1548 1.398 . S
C1547 C1553 1.491 . S
C1548 H1539 0.950 . S
C1548 C1547 1.398 . S
C1548 C1549 1.391 . S
C1549 H1537 0.950 . S
C1549 C1545 1.393 . S
C1549 C1548 1.391 . S
C1550 H1540 0.950 . S
C1550 C1551 1.386 . S
C1550 C1552 1.391 . S
C1551 C1550 1.386 . S
C1551 C1555 1.393 . S
C1552 H1541 0.950 . S
C1552 C1550 1.391 . S
C1552 C1553 1.400 . S
C1553 C1547 1.491 . S
C1553 C1552 1.400 . S
C1553 C1554 1.398 . S
C1554 H1542 0.950 . S
C1554 C1553 1.398 . S
C1554 C1555 1.391 . S
C1555 H1543 0.950 . S
C1555 C1551 1.393 . S
C1555 C1554 1.391 . S
H1556 C1564 0.950 . S
H1557 C1569 0.950 . S
H1558 C1566 0.950 . S
H1559 C1568 0.950 . S
H1560 C1570 0.950 . S
H1561 C1572 0.950 . S
H1562 C1574 0.950 . S
H1563 C1575 0.950 . S
C1564 H1556 0.950 . S
C1564 C1565 1.386 . S
C1564 C1566 1.391 . S
C1565 C1564 1.386 . S
C1565 C1569 1.393 . S
C1566 H1558 0.950 . S
C1566 C1564 1.391 . S
C1566 C1567 1.400 . S
C1567 C1566 1.400 . S
C1567 C1568 1.398 . S
C1567 C1573 1.491 . S
C1568 H1559 0.950 . S
C1568 C1567 1.398 . S
C1568 C1569 1.391 . S
C1569 H1557 0.950 . S
C1569 C1565 1.393 . S
C1569 C1568 1.391 . S
C1570 H1560 0.950 . S
C1570 C1571 1.386 . S
C1570 C1572 1.391 . S
C1571 C1570 1.386 . S
C1571 C1575 1.393 . S
C1572 H1561 0.950 . S
C1572 C1570 1.391 . S
C1572 C1573 1.400 . S
C1573 C1567 1.491 . S
C1573 C1572 1.400 . S
C1573 C1574 1.398 . S
C1574 H1562 0.950 . S
C1574 C1573 1.398 . S
C1574 C1575 1.391 . S
C1575 H1563 0.950 . S
C1575 C1571 1.393 . S
C1575 C1574 1.391 . S
H1576 C1584 0.950 . S
H1577 C1589 0.950 . S
H1578 C1586 0.950 . S
H1579 C1588 0.950 . S
H1580 C1590 0.950 . S
H1581 C1592 0.950 . S
H1582 C1594 0.950 . S
H1583 C1595 0.950 . S
C1584 H1576 0.950 . S
C1584 C1585 1.386 . S
C1584 C1586 1.391 . S
C1585 C1584 1.386 . S
C1585 C1589 1.393 . S
C1586 H1578 0.950 . S
C1586 C1584 1.391 . S
C1586 C1587 1.400 . S
C1587 C1586 1.400 . S
C1587 C1588 1.398 . S
C1587 C1593 1.491 . S
C1588 H1579 0.950 . S
C1588 C1587 1.398 . S
C1588 C1589 1.391 . S
C1589 H1577 0.950 . S
C1589 C1585 1.393 . S
C1589 C1588 1.391 . S
C1590 H1580 0.950 . S
C1590 C1591 1.386 . S
C1590 C1592 1.391 . S
C1591 C1590 1.386 . S
C1591 C1595 1.393 . S
C1592 H1581 0.950 . S
C1592 C1590 1.391 . S
C1592 C1593 1.400 . S
C1593 C1587 1.491 . S
C1593 C1592 1.400 . S
C1593 C1594 1.398 . S
C1594 H1582 0.950 . S
C1594 C1593 1.398 . S
C1594 C1595 1.391 . S
C1595 H1583 0.950 . S
C1595 C1591 1.393 . S
C1595 C1594 1.391 . S
H1596 C1604 0.950 . S
H1597 C1609 0.950 . S
H1598 C1606 0.950 . S
H1599 C1608 0.950 . S
H1600 C1610 0.950 . S
H1601 C1612 0.950 . S
H1602 C1614 0.950 . S
H1603 C1615 0.950 . S
C1604 H1596 0.950 . S
C1604 C1605 1.386 . S
C1604 C1606 1.391 . S
C1605 C1604 1.386 . S
C1605 C1609 1.393 . S
C1606 H1598 0.950 . S
C1606 C1604 1.391 . S
C1606 C1607 1.400 . S
C1607 C1606 1.400 . S
C1607 C1608 1.398 . S
C1607 C1613 1.491 . S
C1608 H1599 0.950 . S
C1608 C1607 1.398 . S
C1608 C1609 1.391 . S
C1609 H1597 0.950 . S
C1609 C1605 1.393 . S
C1609 C1608 1.391 . S
C1610 H1600 0.950 . S
C1610 C1611 1.386 . S
C1610 C1612 1.391 . S
C1611 C1610 1.386 . S
C1611 C1615 1.393 . S
C1612 H1601 0.950 . S
C1612 C1610 1.391 . S
C1612 C1613 1.400 . S
C1613 C1607 1.491 . S
C1613 C1612 1.400 . S
C1613 C1614 1.398 . S
C1614 H1602 0.950 . S
C1614 C1613 1.398 . S
C1614 C1615 1.391 . S
C1615 H1603 0.950 . S
C1615 C1611 1.393 . S
C1615 C1614 1.391 . S
H1616 C1624 0.950 . S
H1617 C1629 0.950 . S
H1618 C1626 0.950 . S
H1619 C1628 0.950 . S
H1620 C1630 0.950 . S
H1621 C1632 0.950 . S
H1622 C1634 0.950 . S
H1623 C1635 0.950 . S
C1624 H1616 0.950 . S
C1624 C1625 1.405 1_655 S
C1624 C1626 1.391 . S
C1625 C1624 1.405 1_455 S
C1625 C1629 1.374 1_565 S
C1626 H1618 0.950 . S
C1626 C1624 1.391 . S
C1626 C1627 1.407 1_655 S
C1627 C1626 1.407 1_455 S
C1627 C1628 1.392 1_565 S
C1627 C1633 1.490 1_465 S
C1628 H1619 0.950 . S
C1628 C1627 1.392 1_545 S
C1628 C1629 1.391 . S
C1629 H1617 0.950 . S
C1629 C1625 1.374 1_545 S
C1629 C1628 1.391 . S
C1630 H1620 0.950 . S
C1630 C1631 1.405 1_455 S
C1630 C1632 1.391 . S
C1631 C1630 1.405 1_655 S
C1631 C1635 1.374 1_545 S
C1632 H1621 0.950 . S
C1632 C1630 1.391 . S
C1632 C1633 1.407 1_455 S
C1633 C1627 1.490 1_645 S
C1633 C1632 1.407 1_655 S
C1633 C1634 1.392 1_545 S
C1634 H1622 0.950 . S
C1634 C1633 1.392 1_565 S
C1634 C1635 1.391 . S
C1635 H1623 0.950 . S
C1635 C1631 1.374 1_565 S
C1635 C1634 1.391 . S
H1636 C1644 0.950 . S
H1637 C1649 0.950 . S
H1638 C1646 0.950 . S
H1639 C1648 0.950 . S
H1640 C1650 0.950 . S
H1641 C1652 0.950 . S
H1642 C1654 0.950 . S
H1643 C1655 0.950 . S
C1644 H1636 0.950 . S
C1644 C1645 1.386 1_455 S
C1644 C1646 1.391 . S
C1645 C1644 1.386 1_655 S
C1645 C1649 1.393 . S
C1646 H1638 0.950 . S
C1646 C1644 1.391 . S
C1646 C1647 1.355 1_455 S
C1647 C1646 1.355 1_655 S
C1647 C1648 1.448 . S
C1647 C1653 1.486 1_655 S
C1648 H1639 0.950 . S
C1648 C1647 1.448 . S
C1648 C1649 1.391 . S
C1649 H1637 0.950 . S
C1649 C1645 1.393 . S
C1649 C1648 1.391 . S
C1650 H1640 0.950 . S
C1650 C1651 1.386 1_655 S
C1650 C1652 1.391 . S
C1651 C1650 1.386 1_455 S
C1651 C1655 1.393 . S
C1652 H1641 0.950 . S
C1652 C1650 1.391 . S
C1652 C1653 1.365 1_655 S
C1653 C1647 1.486 1_455 S
C1653 C1652 1.365 1_455 S
C1653 C1654 1.437 . S
C1654 H1642 0.950 . S
C1654 C1653 1.437 . S
C1654 C1655 1.391 . S
C1655 H1643 0.950 . S
C1655 C1651 1.393 . S
C1655 C1654 1.391 . S
H1656 C1664 0.950 . S
H1657 C1669 0.950 . S
H1658 C1666 0.950 . S
H1659 C1668 0.950 . S
H1660 C1670 0.950 . S
H1661 C1672 0.950 . S
H1662 C1674 0.950 . S
H1663 C1675 0.950 . S
C1664 H1656 0.950 . S
C1664 C1665 1.386 . S
C1664 C1666 1.391 . S
C1665 C1664 1.386 . S
C1665 C1669 1.393 1_655 S
C1666 H1658 0.950 . S
C1666 C1664 1.391 . S
C1666 C1667 1.420 . S
C1667 C1666 1.420 . S
C1667 C1668 1.380 1_655 S
C1667 C1673 1.489 1_655 S
C1668 H1659 0.950 . S
C1668 C1667 1.380 1_455 S
C1668 C1669 1.391 . S
C1669 H1657 0.950 . S
C1669 C1665 1.393 1_455 S
C1669 C1668 1.391 . S
C1670 H1660 0.950 . S
C1670 C1671 1.386 . S
C1670 C1672 1.391 . S
C1671 C1670 1.386 . S
C1671 C1675 1.393 1_455 S
C1672 H1661 0.950 . S
C1672 C1670 1.391 . S
C1672 C1673 1.412 . S
C1673 C1667 1.489 1_455 S
C1673 C1672 1.412 . S
C1673 C1674 1.388 1_455 S
C1674 H1662 0.950 . S
C1674 C1673 1.388 1_655 S
C1674 C1675 1.391 . S
C1675 H1663 0.950 . S
C1675 C1671 1.393 1_655 S
C1675 C1674 1.391 . S
H1676 C1684 0.950 . S
H1677 C1689 0.950 . S
H1678 C1686 0.950 . S
H1679 C1688 0.950 . S
H1680 C1690 0.950 . S
H1681 C1692 0.950 . S
H1682 C1694 0.950 . S
H1683 C1695 0.950 . S
C1684 H1676 0.950 . S
C1684 C1685 1.386 1_655 S
C1684 C1686 1.391 . S
C1685 C1684 1.386 1_455 S
C1685 C1689 1.393 . S
C1686 H1678 0.950 . S
C1686 C1684 1.391 . S
C1686 C1687 1.356 1_655 S
C1687 C1686 1.356 1_455 S
C1687 C1688 1.448 . S
C1687 C1693 1.486 1_456 S
C1688 H1679 0.950 . S
C1688 C1687 1.448 . S
C1688 C1689 1.391 . S
C1689 H1677 0.950 . S
C1689 C1685 1.393 . S
C1689 C1688 1.391 . S
C1690 H1680 0.950 . S
C1690 C1691 1.386 1_455 S
C1690 C1692 1.391 . S
C1691 C1690 1.386 1_655 S
C1691 C1695 1.393 . S
C1692 H1681 0.950 . S
C1692 C1690 1.391 . S
C1692 C1693 1.366 1_455 S
C1693 C1687 1.486 1_654 S
C1693 C1692 1.366 1_655 S
C1693 C1694 1.436 . S
C1694 H1682 0.950 . S
C1694 C1693 1.436 . S
C1694 C1695 1.391 . S
C1695 H1683 0.950 . S
C1695 C1691 1.393 . S
C1695 C1694 1.391 . S
H1696 C1704 0.950 . S
H1697 C1709 0.950 . S
H1698 C1706 0.950 . S
H1699 C1708 0.950 . S
H1700 C1710 0.950 . S
H1701 C1712 0.950 . S
H1702 C1714 0.950 . S
H1703 C1715 0.950 . S
C1704 H1696 0.950 . S
C1704 C1705 1.386 . S
C1704 C1706 1.391 . S
C1705 C1704 1.386 . S
C1705 C1709 1.393 . S
C1706 H1698 0.950 . S
C1706 C1704 1.391 . S
C1706 C1707 1.400 . S
C1707 C1706 1.400 . S
C1707 C1708 1.398 . S
C1707 C1713 1.491 . S
C1708 H1699 0.950 . S
C1708 C1707 1.398 . S
C1708 C1709 1.391 . S
C1709 H1697 0.950 . S
C1709 C1705 1.393 . S
C1709 C1708 1.391 . S
C1710 H1700 0.950 . S
C1710 C1711 1.386 . S
C1710 C1712 1.391 . S
C1711 C1710 1.386 . S
C1711 C1715 1.393 . S
C1712 H1701 0.950 . S
C1712 C1710 1.391 . S
C1712 C1713 1.400 . S
C1713 C1707 1.491 . S
C1713 C1712 1.400 . S
C1713 C1714 1.398 . S
C1714 H1702 0.950 . S
C1714 C1713 1.398 . S
C1714 C1715 1.391 . S
C1715 H1703 0.950 . S
C1715 C1711 1.393 . S
C1715 C1714 1.391 . S
H1716 C1724 0.950 . S
H1717 C1729 0.950 . S
H1718 C1726 0.950 . S
H1719 C1728 0.950 . S
H1720 C1730 0.950 . S
H1721 C1732 0.950 . S
H1722 C1734 0.950 . S
H1723 C1735 0.950 . S
C1724 H1716 0.950 . S
C1724 C1725 1.386 . S
C1724 C1726 1.391 . S
C1725 C1724 1.386 . S
C1725 C1729 1.393 . S
C1726 H1718 0.950 . S
C1726 C1724 1.391 . S
C1726 C1727 1.400 . S
C1727 C1726 1.400 . S
C1727 C1728 1.398 . S
C1727 C1733 1.491 . S
C1728 H1719 0.950 . S
C1728 C1727 1.398 . S
C1728 C1729 1.391 . S
C1729 H1717 0.950 . S
C1729 C1725 1.393 . S
C1729 C1728 1.391 . S
C1730 H1720 0.950 . S
C1730 C1731 1.386 . S
C1730 C1732 1.391 . S
C1731 C1730 1.386 . S
C1731 C1735 1.393 . S
C1732 H1721 0.950 . S
C1732 C1730 1.391 . S
C1732 C1733 1.400 . S
C1733 C1727 1.491 . S
C1733 C1732 1.400 . S
C1733 C1734 1.398 . S
C1734 H1722 0.950 . S
C1734 C1733 1.398 . S
C1734 C1735 1.391 . S
C1735 H1723 0.950 . S
C1735 C1731 1.393 . S
C1735 C1734 1.391 . S
H1736 C1744 0.950 . S
H1737 C1749 0.950 . S
H1738 C1746 0.950 . S
H1739 C1748 0.950 . S
H1740 C1750 0.950 . S
H1741 C1752 0.950 . S
H1742 C1754 0.950 . S
H1743 C1755 0.950 . S
C1744 H1736 0.950 . S
C1744 C1745 1.386 . S
C1744 C1746 1.391 . S
C1745 C1744 1.386 . S
C1745 C1749 1.393 . S
C1746 H1738 0.950 . S
C1746 C1744 1.391 . S
C1746 C1747 1.400 . S
C1747 C1746 1.400 . S
C1747 C1748 1.398 . S
C1747 C1753 1.491 . S
C1748 H1739 0.950 . S
C1748 C1747 1.398 . S
C1748 C1749 1.391 . S
C1749 H1737 0.950 . S
C1749 C1745 1.393 . S
C1749 C1748 1.391 . S
C1750 H1740 0.950 . S
C1750 C1751 1.386 . S
C1750 C1752 1.391 . S
C1751 C1750 1.386 . S
C1751 C1755 1.393 . S
C1752 H1741 0.950 . S
C1752 C1750 1.391 . S
C1752 C1753 1.400 . S
C1753 C1747 1.491 . S
C1753 C1752 1.400 . S
C1753 C1754 1.398 . S
C1754 H1742 0.950 . S
C1754 C1753 1.398 . S
C1754 C1755 1.391 . S
C1755 H1743 0.950 . S
C1755 C1751 1.393 . S
C1755 C1754 1.391 . S
H1756 C1764 0.950 . S
H1757 C1769 0.950 . S
H1758 C1766 0.950 . S
H1759 C1768 0.950 . S
H1760 C1770 0.950 . S
H1761 C1772 0.950 . S
H1762 C1774 0.950 . S
H1763 C1775 0.950 . S
C1764 H1756 0.950 . S
C1764 C1765 1.386 . S
C1764 C1766 1.391 . S
C1765 C1764 1.386 . S
C1765 C1769 1.393 . S
C1766 H1758 0.950 . S
C1766 C1764 1.391 . S
C1766 C1767 1.400 . S
C1767 C1766 1.400 . S
C1767 C1768 1.398 . S
C1767 C1773 1.491 . S
C1768 H1759 0.950 . S
C1768 C1767 1.398 . S
C1768 C1769 1.391 . S
C1769 H1757 0.950 . S
C1769 C1765 1.393 . S
C1769 C1768 1.391 . S
C1770 H1760 0.950 . S
C1770 C1771 1.386 . S
C1770 C1772 1.391 . S
C1771 C1770 1.386 . S
C1771 C1775 1.393 . S
C1772 H1761 0.950 . S
C1772 C1770 1.391 . S
C1772 C1773 1.400 . S
C1773 C1767 1.491 . S
C1773 C1772 1.400 . S
C1773 C1774 1.398 . S
C1774 H1762 0.950 . S
C1774 C1773 1.398 . S
C1774 C1775 1.391 . S
C1775 H1763 0.950 . S
C1775 C1771 1.393 . S
C1775 C1774 1.391 . S
H1776 C1784 0.950 . S
H1777 C1789 0.950 . S
H1778 C1786 0.950 . S
H1779 C1788 0.950 . S
H1780 C1790 0.950 . S
H1781 C1792 0.950 . S
H1782 C1794 0.950 . S
H1783 C1795 0.950 . S
C1784 H1776 0.950 . S
C1784 C1785 1.386 . S
C1784 C1786 1.391 . S
C1785 C1784 1.386 . S
C1785 C1789 1.393 . S
C1786 H1778 0.950 . S
C1786 C1784 1.391 . S
C1786 C1787 1.400 . S
C1787 C1786 1.400 . S
C1787 C1788 1.398 . S
C1787 C1793 1.491 . S
C1788 H1779 0.950 . S
C1788 C1787 1.398 . S
C1788 C1789 1.391 . S
C1789 H1777 0.950 . S
C1789 C1785 1.393 . S
C1789 C1788 1.391 . S
C1790 H1780 0.950 . S
C1790 C1791 1.386 . S
C1790 C1792 1.391 . S
C1791 C1790 1.386 . S
C1791 C1795 1.393 . S
C1792 H1781 0.950 . S
C1792 C1790 1.391 . S
C1792 C1793 1.400 . S
C1793 C1787 1.491 . S
C1793 C1792 1.400 . S
C1793 C1794 1.398 . S
C1794 H1782 0.950 . S
C1794 C1793 1.398 . S
C1794 C1795 1.391 . S
C1795 H1783 0.950 . S
C1795 C1791 1.393 . S
C1795 C1794 1.391 . S
H1796 C1804 0.950 . S
H1797 C1809 0.950 . S
H1798 C1806 0.950 . S
H1799 C1808 0.950 . S
H1800 C1810 0.950 . S
H1801 C1812 0.950 . S
H1802 C1814 0.950 . S
H1803 C1815 0.950 . S
C1804 H1796 0.950 . S
C1804 C1805 1.386 . S
C1804 C1806 1.391 . S
C1805 C1804 1.386 . S
C1805 C1809 1.393 . S
C1806 H1798 0.950 . S
C1806 C1804 1.391 . S
C1806 C1807 1.400 . S
C1807 C1806 1.400 . S
C1807 C1808 1.398 . S
C1807 C1813 1.491 . S
C1808 H1799 0.950 . S
C1808 C1807 1.398 . S
C1808 C1809 1.391 . S
C1809 H1797 0.950 . S
C1809 C1805 1.393 . S
C1809 C1808 1.391 . S
C1810 H1800 0.950 . S
C1810 C1811 1.386 . S
C1810 C1812 1.391 . S
C1811 C1810 1.386 . S
C1811 C1815 1.393 . S
C1812 H1801 0.950 . S
C1812 C1810 1.391 . S
C1812 C1813 1.400 . S
C1813 C1807 1.491 . S
C1813 C1812 1.400 . S
C1813 C1814 1.398 . S
C1814 H1802 0.950 . S
C1814 C1813 1.398 . S
C1814 C1815 1.391 . S
C1815 H1803 0.950 . S
C1815 C1811 1.393 . S
C1815 C1814 1.391 . S
H1816 C1824 0.950 . S
H1817 C1829 0.950 . S
H1818 C1826 0.950 . S
H1819 C1828 0.950 . S
H1820 C1830 0.950 . S
H1821 C1832 0.950 . S
H1822 C1834 0.950 . S
H1823 C1835 0.950 . S
C1824 H1816 0.950 . S
C1824 C1825 1.386 . S
C1824 C1826 1.391 . S
C1825 C1824 1.386 . S
C1825 C1829 1.393 . S
C1826 H1818 0.950 . S
C1826 C1824 1.391 . S
C1826 C1827 1.400 . S
C1827 C1826 1.400 . S
C1827 C1828 1.398 . S
C1827 C1833 1.491 . S
C1828 H1819 0.950 . S
C1828 C1827 1.398 . S
C1828 C1829 1.391 . S
C1829 H1817 0.950 . S
C1829 C1825 1.393 . S
C1829 C1828 1.391 . S
C1830 H1820 0.950 . S
C1830 C1831 1.386 . S
C1830 C1832 1.391 . S
C1831 C1830 1.386 . S
C1831 C1835 1.393 . S
C1832 H1821 0.950 . S
C1832 C1830 1.391 . S
C1832 C1833 1.400 . S
C1833 C1827 1.491 . S
C1833 C1832 1.400 . S
C1833 C1834 1.398 . S
C1834 H1822 0.950 . S
C1834 C1833 1.398 . S
C1834 C1835 1.391 . S
C1835 H1823 0.950 . S
C1835 C1831 1.393 . S
C1835 C1834 1.391 . S
H1836 C1844 0.950 . S
H1837 C1849 0.950 . S
H1838 C1846 0.950 . S
H1839 C1848 0.950 . S
H1840 C1850 0.950 . S
H1841 C1852 0.950 . S
H1842 C1854 0.950 . S
H1843 C1855 0.950 . S
C1844 H1836 0.950 . S
C1844 C1845 1.386 . S
C1844 C1846 1.391 . S
C1845 C1844 1.386 . S
C1845 C1849 1.393 . S
C1846 H1838 0.950 . S
C1846 C1844 1.391 . S
C1846 C1847 1.400 . S
C1847 C1846 1.400 . S
C1847 C1848 1.398 . S
C1847 C1853 1.491 . S
C1848 H1839 0.950 . S
C1848 C1847 1.398 . S
C1848 C1849 1.391 . S
C1849 H1837 0.950 . S
C1849 C1845 1.393 . S
C1849 C1848 1.391 . S
C1850 H1840 0.950 . S
C1850 C1851 1.386 . S
C1850 C1852 1.391 . S
C1851 C1850 1.386 . S
C1851 C1855 1.393 . S
C1852 H1841 0.950 . S
C1852 C1850 1.391 . S
C1852 C1853 1.400 . S
C1853 C1847 1.491 . S
C1853 C1852 1.400 . S
C1853 C1854 1.398 . S
C1854 H1842 0.950 . S
C1854 C1853 1.398 . S
C1854 C1855 1.391 . S
C1855 H1843 0.950 . S
C1855 C1851 1.393 . S
C1855 C1854 1.391 . S
H1856 C1864 0.950 . S
H1857 C1869 0.950 . S
H1858 C1866 0.950 . S
H1859 C1868 0.950 . S
H1860 C1870 0.950 . S
H1861 C1872 0.950 . S
H1862 C1874 0.950 . S
H1863 C1875 0.950 . S
C1864 H1856 0.950 . S
C1864 C1865 1.386 . S
C1864 C1866 1.391 . S
C1865 C1864 1.386 . S
C1865 C1869 1.393 . S
C1866 H1858 0.950 . S
C1866 C1864 1.391 . S
C1866 C1867 1.400 . S
C1867 C1866 1.400 . S
C1867 C1868 1.398 . S
C1867 C1873 1.491 . S
C1868 H1859 0.950 . S
C1868 C1867 1.398 . S
C1868 C1869 1.391 . S
C1869 H1857 0.950 . S
C1869 C1865 1.393 . S
C1869 C1868 1.391 . S
C1870 H1860 0.950 . S
C1870 C1871 1.386 . S
C1870 C1872 1.391 . S
C1871 C1870 1.386 . S
C1871 C1875 1.393 . S
C1872 H1861 0.950 . S
C1872 C1870 1.391 . S
C1872 C1873 1.400 . S
C1873 C1867 1.491 . S
C1873 C1872 1.400 . S
C1873 C1874 1.398 . S
C1874 H1862 0.950 . S
C1874 C1873 1.398 . S
C1874 C1875 1.391 . S
C1875 H1863 0.950 . S
C1875 C1871 1.393 . S
C1875 C1874 1.391 . S
H1876 C1884 0.950 . S
H1877 C1889 0.950 . S
H1878 C1886 0.950 . S
H1879 C1888 0.950 . S
H1880 C1890 0.950 . S
H1881 C1892 0.950 . S
H1882 C1894 0.950 . S
H1883 C1895 0.950 . S
C1884 H1876 0.950 . S
C1884 C1885 1.386 . S
C1884 C1886 1.391 . S
C1885 C1884 1.386 . S
C1885 C1889 1.393 . S
C1886 H1878 0.950 . S
C1886 C1884 1.391 . S
C1886 C1887 1.400 . S
C1887 C1886 1.400 . S
C1887 C1888 1.398 . S
C1887 C1893 1.491 . S
C1888 H1879 0.950 . S
C1888 C1887 1.398 . S
C1888 C1889 1.391 . S
C1889 H1877 0.950 . S
C1889 C1885 1.393 . S
C1889 C1888 1.391 . S
C1890 H1880 0.950 . S
C1890 C1891 1.386 . S
C1890 C1892 1.391 . S
C1891 C1890 1.386 . S
C1891 C1895 1.393 . S
C1892 H1881 0.950 . S
C1892 C1890 1.391 . S
C1892 C1893 1.400 . S
C1893 C1887 1.491 . S
C1893 C1892 1.400 . S
C1893 C1894 1.398 . S
C1894 H1882 0.950 . S
C1894 C1893 1.398 . S
C1894 C1895 1.391 . S
C1895 H1883 0.950 . S
C1895 C1891 1.393 . S
C1895 C1894 1.391 . S
H1896 C1904 0.950 . S
H1897 C1909 0.950 . S
H1898 C1906 0.950 . S
H1899 C1908 0.950 . S
H1900 C1910 0.950 . S
H1901 C1912 0.950 . S
H1902 C1914 0.950 . S
H1903 C1915 0.950 . S
C1904 H1896 0.950 . S
C1904 C1905 1.386 . S
C1904 C1906 1.391 . S
C1905 C1904 1.386 . S
C1905 C1909 1.393 . S
C1906 H1898 0.950 . S
C1906 C1904 1.391 . S
C1906 C1907 1.400 . S
C1907 C1906 1.400 . S
C1907 C1908 1.398 . S
C1907 C1913 1.491 . S
C1908 H1899 0.950 . S
C1908 C1907 1.398 . S
C1908 C1909 1.391 . S
C1909 H1897 0.950 . S
C1909 C1905 1.393 . S
C1909 C1908 1.391 . S
C1910 H1900 0.950 . S
C1910 C1911 1.386 . S
C1910 C1912 1.391 . S
C1911 C1910 1.386 . S
C1911 C1915 1.393 . S
C1912 H1901 0.950 . S
C1912 C1910 1.391 . S
C1912 C1913 1.400 . S
C1913 C1907 1.491 . S
C1913 C1912 1.400 . S
C1913 C1914 1.398 . S
C1914 H1902 0.950 . S
C1914 C1913 1.398 . S
C1914 C1915 1.391 . S
C1915 H1903 0.950 . S
C1915 C1911 1.393 . S
C1915 C1914 1.391 . S
H1916 C1924 0.950 . S
H1917 C1929 0.950 . S
H1918 C1926 0.950 . S
H1919 C1928 0.950 . S
H1920 C1930 0.950 . S
H1921 C1932 0.950 . S
H1922 C1934 0.950 . S
H1923 C1935 0.950 . S
C1924 H1916 0.950 . S
C1924 C1925 1.386 . S
C1924 C1926 1.391 . S
C1925 C1924 1.386 . S
C1925 C1929 1.393 . S
C1926 H1918 0.950 . S
C1926 C1924 1.391 . S
C1926 C1927 1.400 . S
C1927 C1926 1.400 . S
C1927 C1928 1.398 . S
C1927 C1933 1.491 . S
C1928 H1919 0.950 . S
C1928 C1927 1.398 . S
C1928 C1929 1.391 . S
C1929 H1917 0.950 . S
C1929 C1925 1.393 . S
C1929 C1928 1.391 . S
C1930 H1920 0.950 . S
C1930 C1931 1.386 . S
C1930 C1932 1.391 . S
C1931 C1930 1.386 . S
C1931 C1935 1.393 . S
C1932 H1921 0.950 . S
C1932 C1930 1.391 . S
C1932 C1933 1.400 . S
C1933 C1927 1.491 . S
C1933 C1932 1.400 . S
C1933 C1934 1.398 . S
C1934 H1922 0.950 . S
C1934 C1933 1.398 . S
C1934 C1935 1.391 . S
C1935 H1923 0.950 . S
C1935 C1931 1.393 . S
C1935 C1934 1.391 . S
H1936 C1944 0.950 . S
H1937 C1949 0.950 . S
H1938 C1946 0.950 . S
H1939 C1948 0.950 . S
H1940 C1950 0.950 . S
H1941 C1952 0.950 . S
H1942 C1954 0.950 . S
H1943 C1955 0.950 . S
C1944 H1936 0.950 . S
C1944 C1945 1.386 . S
C1944 C1946 1.391 . S
C1945 C1944 1.386 . S
C1945 C1949 1.393 . S
C1946 H1938 0.950 . S
C1946 C1944 1.391 . S
C1946 C1947 1.400 . S
C1947 C1946 1.400 . S
C1947 C1948 1.398 . S
C1947 C1953 1.491 . S
C1948 H1939 0.950 . S
C1948 C1947 1.398 . S
C1948 C1949 1.391 . S
C1949 H1937 0.950 . S
C1949 C1945 1.393 . S
C1949 C1948 1.391 . S
C1950 H1940 0.950 . S
C1950 C1951 1.386 . S
C1950 C1952 1.391 . S
C1951 C1950 1.386 . S
C1951 C1955 1.393 . S
C1952 H1941 0.950 . S
C1952 C1950 1.391 . S
C1952 C1953 1.400 . S
C1953 C1947 1.491 . S
C1953 C1952 1.400 . S
C1953 C1954 1.398 . S
C1954 H1942 0.950 . S
C1954 C1953 1.398 . S
C1954 C1955 1.391 . S
C1955 H1943 0.950 . S
C1955 C1951 1.393 . S
C1955 C1954 1.391 . S
H1956 C1964 0.950 . S
H1957 C1969 0.950 . S
H1958 C1966 0.950 . S
H1959 C1968 0.950 . S
H1960 C1970 0.950 . S
H1961 C1972 0.950 . S
H1962 C1974 0.950 . S
H1963 C1975 0.950 . S
C1964 H1956 0.950 . S
C1964 C1965 1.386 . S
C1964 C1966 1.391 . S
C1965 C1964 1.386 . S
C1965 C1969 1.393 . S
C1966 H1958 0.950 . S
C1966 C1964 1.391 . S
C1966 C1967 1.400 . S
C1967 C1966 1.400 . S
C1967 C1968 1.398 . S
C1967 C1973 1.491 . S
C1968 H1959 0.950 . S
C1968 C1967 1.398 . S
C1968 C1969 1.391 . S
C1969 H1957 0.950 . S
C1969 C1965 1.393 . S
C1969 C1968 1.391 . S
C1970 H1960 0.950 . S
C1970 C1971 1.386 . S
C1970 C1972 1.391 . S
C1971 C1970 1.386 . S
C1971 C1975 1.393 . S
C1972 H1961 0.950 . S
C1972 C1970 1.391 . S
C1972 C1973 1.400 . S
C1973 C1967 1.491 . S
C1973 C1972 1.400 . S
C1973 C1974 1.398 . S
C1974 H1962 0.950 . S
C1974 C1973 1.398 . S
C1974 C1975 1.391 . S
C1975 H1963 0.950 . S
C1975 C1971 1.393 . S
C1975 C1974 1.391 . S
H1976 C1984 0.950 . S
H1977 C1989 0.950 . S
H1978 C1986 0.950 . S
H1979 C1988 0.950 . S
H1980 C1990 0.950 . S
H1981 C1992 0.950 . S
H1982 C1994 0.950 . S
H1983 C1995 0.950 . S
C1984 H1976 0.950 . S
C1984 C1985 1.386 . S
C1984 C1986 1.391 . S
C1985 C1984 1.386 . S
C1985 C1989 1.393 . S
C1986 H1978 0.950 . S
C1986 C1984 1.391 . S
C1986 C1987 1.400 . S
C1987 C1986 1.400 . S
C1987 C1988 1.398 . S
C1987 C1993 1.491 . S
C1988 H1979 0.950 . S
C1988 C1987 1.398 . S
C1988 C1989 1.391 . S
C1989 H1977 0.950 . S
C1989 C1985 1.393 . S
C1989 C1988 1.391 . S
C1990 H1980 0.950 . S
C1990 C1991 1.386 . S
C1990 C1992 1.391 . S
C1991 C1990 1.386 . S
C1991 C1995 1.393 . S
C1992 H1981 0.950 . S
C1992 C1990 1.391 . S
C1992 C1993 1.400 . S
C1993 C1987 1.491 . S
C1993 C1992 1.400 . S
C1993 C1994 1.398 . S
C1994 H1982 0.950 . S
C1994 C1993 1.398 . S
C1994 C1995 1.391 . S
C1995 H1983 0.950 . S
C1995 C1991 1.393 . S
C1995 C1994 1.391 . S
H1996 C2004 0.950 . S
H1997 C2009 0.950 . S
H1998 C2006 0.950 . S
H1999 C2008 0.950 . S
H2000 C2010 0.950 . S
H2001 C2012 0.950 . S
H2002 C2014 0.950 . S
H2003 C2015 0.950 . S
C2004 H1996 0.950 . S
C2004 C2005 1.386 . S
C2004 C2006 1.391 . S
C2005 C2004 1.386 . S
C2005 C2009 1.393 . S
C2006 H1998 0.950 . S
C2006 C2004 1.391 . S
C2006 C2007 1.400 . S
C2007 C2006 1.400 . S
C2007 C2008 1.398 . S
C2007 C2013 1.491 . S
C2008 H1999 0.950 . S
C2008 C2007 1.398 . S
C2008 C2009 1.391 . S
C2009 H1997 0.950 . S
C2009 C2005 1.393 . S
C2009 C2008 1.391 . S
C2010 H2000 0.950 . S
C2010 C2011 1.386 . S
C2010 C2012 1.391 . S
C2011 C2010 1.386 . S
C2011 C2015 1.393 . S
C2012 H2001 0.950 . S
C2012 C2010 1.391 . S
C2012 C2013 1.400 . S
C2013 C2007 1.491 . S
C2013 C2012 1.400 . S
C2013 C2014 1.398 . S
C2014 H2002 0.950 . S
C2014 C2013 1.398 . S
C2014 C2015 1.391 . S
C2015 H2003 0.950 . S
C2015 C2011 1.393 . S
C2015 C2014 1.391 . S
C745 C16 1.569 . S
C751 C62 1.574 . S
C765 C85 1.570 . S
C771 C39 1.565 . S
C785 C154 1.586 . S
C791 C108 1.577 . S
C805 C177 1.583 . S
C811 C131 1.582 . S
C825 C200 1.584 . S
C831 C246 1.588 . S
C845 C269 1.576 . S
C851 C223 1.584 . S
C865 C292 1.587 . S
C871 C338 1.586 . S
C885 C361 1.583 . S
C891 C315 1.581 . S
C905 C384 1.579 . S
C911 C430 1.580 1_455 S
C925 C407 1.568 . S
C931 C453 1.569 . S
C945 C522 1.569 . S
C951 C476 1.570 1_655 S
C965 C499 1.582 . S
C971 C545 1.585 . S
C985 C614 1.566 1_455 S
C991 C568 1.565 . S
C1005 C637 1.567 . S
C1011 C591 1.570 . S
C1025 C706 1.569 . S
C1031 C660 1.570 1_655 S
C1045 C683 1.580 . S
C1051 C729 1.569 . S
C1065 N587 1.809 . S
C1071 N12 1.817 . S
C1085 N35 1.823 . S
C1091 N564 1.805 . S
C1105 N58 1.809 . S
C1111 N633 1.818 . S
C1125 N81 1.822 . S
C1131 N610 1.801 . S
C1145 N679 1.818 . S
C1151 N104 1.823 . S
C1165 N127 1.810 . S
C1171 N656 1.806 . S
C1185 N150 1.822 . S
C1191 N725 1.808 . S
C1205 N702 1.811 . S
C1211 N173 1.818 . S
C1225 N196 1.825 . S
C1231 N403 1.810 . S
C1245 N219 1.817 . S
C1251 N380 1.801 . S
C1265 N242 1.809 . S
C1271 N449 1.818 . S
C1285 N265 1.806 . S
C1291 N426 1.811 . S
C1305 N288 1.821 . S
C1311 N495 1.808 . S
C1325 N472 1.817 . S
C1331 N311 1.814 . S
C1345 N541 1.815 . S
C1351 N334 1.824 . S
C1365 N357 1.817 . S
C1371 N518 1.801 . S
C1385 C7 1.607 . S
C1391 C99 1.607 . S
C1405 C30 1.618 . S
C1411 C674 1.618 . S
C1425 C53 1.621 . S
C1431 C329 1.621 . S
C1445 C76 1.612 . S
C1451 C536 1.609 . S
C1465 C122 1.603 . S
C1471 C582 1.602 . S
C1485 C237 1.610 . S
C1491 C145 1.610 . S
C1505 C444 1.609 1_565 S
C1511 C168 1.607 1_545 S
C1525 C283 1.609 . S
C1531 C191 1.609 . S
C1545 C214 1.605 . S
C1551 C490 1.605 . S
C1565 C720 1.606 . S
C1571 C260 1.606 . S
C1585 C306 1.608 . S
C1591 C398 1.608 . S
C1605 C352 1.602 . S
C1611 C628 1.602 . S
C1625 C467 1.615 . S
C1631 C375 1.614 . S
C1645 C421 1.618 . S
C1651 C697 1.618 . S
C1665 C605 1.602 . S
C1671 C513 1.602 . S
C1685 C651 1.603 . S
C1691 C559 1.603 . S
C1705 N2 1.108 . S
C1711 N25 1.118 . S
C1725 N48 1.094 . S
C1731 N71 1.111 . S
C1745 N94 1.097 . S
C1751 N117 1.113 . S
C1765 N140 1.085 . S
C1771 N163 1.098 . S
C1785 N209 1.106 . S
C1791 N186 1.118 . S
C1805 N232 1.086 . S
C1811 N255 1.099 . S
C1825 N278 1.118 . S
C1831 N301 1.107 . S
C1845 N324 1.117 . S
C1851 N347 1.103 . S
C1865 N370 1.097 . S
C1871 N393 1.119 . S
C1885 N439 1.105 . S
C1891 N416 1.124 . S
C1905 N462 1.088 . S
C1911 N485 1.105 . S
C1925 N508 1.102 . S
C1931 N531 1.122 . S
C1945 N577 1.104 . S
C1951 N554 1.123 . S
C1965 N600 1.112 . S
C1971 N623 1.126 . S
C1985 N669 1.117 . S
C1991 N646 1.125 . S
C2005 N692 1.091 . S
C2011 N715 1.094 . S
