# Generated by pormake.
# Topology bcs, (6)-cn, num edge types: 1
# Building blocks:
#     Node 0, Type 0, BuildingBlock: BETDAH_clean_sbu_0, # of connection points: 6
#     Node 1, Type 0, BuildingBlock: BETDAH_clean_sbu_0, # of connection points: 6
#     Node 2, Type 0, BuildingBlock: BETDAH_clean_sbu_0, # of connection points: 6
#     Node 3, Type 0, BuildingBlock: BETDAH_clean_sbu_0, # of connection points: 6
#     Node 4, Type 0, BuildingBlock: BETDAH_clean_sbu_0, # of connection points: 6
#     Node 5, Type 0, BuildingBlock: BETDAH_clean_sbu_0, # of connection points: 6
#     Node 6, Type 0, BuildingBlock: BETDAH_clean_sbu_0, # of connection points: 6
#     Node 7, Type 0, BuildingBlock: BETDAH_clean_sbu_0, # of connection points: 6
#     Node 8, Type 0, BuildingBlock: BETDAH_clean_sbu_0, # of connection points: 6
#     Node 9, Type 0, BuildingBlock: BETDAH_clean_sbu_0, # of connection points: 6
#     Node 10, Type 0, BuildingBlock: BETDAH_clean_sbu_0, # of connection points: 6
#     Node 11, Type 0, BuildingBlock: BETDAH_clean_sbu_0, # of connection points: 6
#     Node 12, Type 0, BuildingBlock: BETDAH_clean_sbu_0, # of connection points: 6
#     Node 13, Type 0, BuildingBlock: BETDAH_clean_sbu_0, # of connection points: 6
#     Node 14, Type 0, BuildingBlock: BETDAH_clean_sbu_0, # of connection points: 6
#     Node 15, Type 0, BuildingBlock: BETDAH_clean_sbu_0, # of connection points: 6
#     Edge 16, Type (0, 0), BuildingBlock: XIVTED_clean_linker_0, # of connection points: 2
#     Edge 17, Type (0, 0), BuildingBlock: XIVTED_clean_linker_0, # of connection points: 2
#     Edge 18, Type (0, 0), BuildingBlock: XIVTED_clean_linker_0, # of connection points: 2
#     Edge 19, Type (0, 0), BuildingBlock: XIVTED_clean_linker_0, # of connection points: 2
#     Edge 20, Type (0, 0), BuildingBlock: XIVTED_clean_linker_0, # of connection points: 2
#     Edge 21, Type (0, 0), BuildingBlock: XIVTED_clean_linker_0, # of connection points: 2
#     Edge 22, Type (0, 0), BuildingBlock: XIVTED_clean_linker_0, # of connection points: 2
#     Edge 23, Type (0, 0), BuildingBlock: XIVTED_clean_linker_0, # of connection points: 2
#     Edge 24, Type (0, 0), BuildingBlock: XIVTED_clean_linker_0, # of connection points: 2
#     Edge 25, Type (0, 0), BuildingBlock: XIVTED_clean_linker_0, # of connection points: 2
#     Edge 26, Type (0, 0), BuildingBlock: XIVTED_clean_linker_0, # of connection points: 2
#     Edge 27, Type (0, 0), BuildingBlock: XIVTED_clean_linker_0, # of connection points: 2
#     Edge 28, Type (0, 0), BuildingBlock: XIVTED_clean_linker_0, # of connection points: 2
#     Edge 29, Type (0, 0), BuildingBlock: XIVTED_clean_linker_0, # of connection points: 2
#     Edge 30, Type (0, 0), BuildingBlock: XIVTED_clean_linker_0, # of connection points: 2
#     Edge 31, Type (0, 0), BuildingBlock: XIVTED_clean_linker_0, # of connection points: 2
#     Edge 32, Type (0, 0), BuildingBlock: XIVTED_clean_linker_0, # of connection points: 2
#     Edge 33, Type (0, 0), BuildingBlock: XIVTED_clean_linker_0, # of connection points: 2
#     Edge 34, Type (0, 0), BuildingBlock: XIVTED_clean_linker_0, # of connection points: 2
#     Edge 35, Type (0, 0), BuildingBlock: XIVTED_clean_linker_0, # of connection points: 2
#     Edge 36, Type (0, 0), BuildingBlock: XIVTED_clean_linker_0, # of connection points: 2
#     Edge 37, Type (0, 0), BuildingBlock: XIVTED_clean_linker_0, # of connection points: 2
#     Edge 38, Type (0, 0), BuildingBlock: XIVTED_clean_linker_0, # of connection points: 2
#     Edge 39, Type (0, 0), BuildingBlock: XIVTED_clean_linker_0, # of connection points: 2
#     Edge 40, Type (0, 0), BuildingBlock: XIVTED_clean_linker_0, # of connection points: 2
#     Edge 41, Type (0, 0), BuildingBlock: XIVTED_clean_linker_0, # of connection points: 2
#     Edge 42, Type (0, 0), BuildingBlock: XIVTED_clean_linker_0, # of connection points: 2
#     Edge 43, Type (0, 0), BuildingBlock: XIVTED_clean_linker_0, # of connection points: 2
#     Edge 44, Type (0, 0), BuildingBlock: XIVTED_clean_linker_0, # of connection points: 2
#     Edge 45, Type (0, 0), BuildingBlock: XIVTED_clean_linker_0, # of connection points: 2
#     Edge 46, Type (0, 0), BuildingBlock: XIVTED_clean_linker_0, # of connection points: 2
#     Edge 47, Type (0, 0), BuildingBlock: XIVTED_clean_linker_0, # of connection points: 2
#     Edge 48, Type (0, 0), BuildingBlock: XIVTED_clean_linker_0, # of connection points: 2
#     Edge 49, Type (0, 0), BuildingBlock: XIVTED_clean_linker_0, # of connection points: 2
#     Edge 50, Type (0, 0), BuildingBlock: XIVTED_clean_linker_0, # of connection points: 2
#     Edge 51, Type (0, 0), BuildingBlock: XIVTED_clean_linker_0, # of connection points: 2
#     Edge 52, Type (0, 0), BuildingBlock: XIVTED_clean_linker_0, # of connection points: 2
#     Edge 53, Type (0, 0), BuildingBlock: XIVTED_clean_linker_0, # of connection points: 2
#     Edge 54, Type (0, 0), BuildingBlock: XIVTED_clean_linker_0, # of connection points: 2
#     Edge 55, Type (0, 0), BuildingBlock: XIVTED_clean_linker_0, # of connection points: 2
#     Edge 56, Type (0, 0), BuildingBlock: XIVTED_clean_linker_0, # of connection points: 2
#     Edge 57, Type (0, 0), BuildingBlock: XIVTED_clean_linker_0, # of connection points: 2
#     Edge 58, Type (0, 0), BuildingBlock: XIVTED_clean_linker_0, # of connection points: 2
#     Edge 59, Type (0, 0), BuildingBlock: XIVTED_clean_linker_0, # of connection points: 2
#     Edge 60, Type (0, 0), BuildingBlock: XIVTED_clean_linker_0, # of connection points: 2
#     Edge 61, Type (0, 0), BuildingBlock: XIVTED_clean_linker_0, # of connection points: 2
#     Edge 62, Type (0, 0), BuildingBlock: XIVTED_clean_linker_0, # of connection points: 2
#     Edge 63, Type (0, 0), BuildingBlock: XIVTED_clean_linker_0, # of connection points: 2
# Relax obj value: 0.228
# Max RMSD: 0.255
# Mean RMSD: 0.199
data_MOF--net-bcs--node1-BETDAH_clean_sbu_0--edge1-XIVTED_clean_linker_0
_symmetry_space_group_name_H-M    P1
_symmetry_Int_Tables_number       1
_symmetry_cell_setting            triclinic
loop_
_symmetry_equiv_pos_as_xyz
'x, y, z'
_cell_length_a     43.265792
_cell_length_b     43.234961
_cell_length_c     40.315664
_cell_angle_alpha  76.454628
_cell_angle_beta   109.87301
_cell_angle_gamma 120.74595
loop_
_atom_site_label
_atom_site_type_symbol
_atom_site_fract_x
_atom_site_fract_y
_atom_site_fract_z
_atom_type_partial_charge
Ho0 Ho 0.04553 0.97341 0.99709 0.0
Ho1 Ho 1.03418 0.02452 0.03445 0.0
C2 C 0.11059 0.02133 0.06072 0.0
C3 C 0.06611 0.9425 0.96677 0.0
C4 C 0.09301 0.94151 0.95195 0.0
C5 C 0.12776 0.94436 0.97286 0.0
C6 C 0.14979 0.93807 0.95897 0.0
C7 C 0.13761 0.92838 0.92385 0.0
C8 C 0.10309 0.9263 0.90298 0.0
C9 C 0.08131 0.93279 0.91677 0.0
C10 C 1.00112 0.93929 0.0433 0.0
C11 C 0.97393 0.98531 0.9632 0.0
C12 C 1.01106 0.04429 0.07378 0.0
C13 C 0.99051 0.06205 0.07793 0.0
C14 C 0.95134 0.04384 0.07128 0.0
C15 C 0.93263 0.05762 0.08108 0.0
C16 C 0.95237 0.09006 0.09807 0.0
C17 C 0.99148 0.10879 0.10372 0.0
C18 C 1.01018 0.09494 0.09399 0.0
C19 C 0.07059 0.06205 0.9814 0.0
O20 O 0.10232 0.00888 0.03009 0.0
O21 O 0.08595 0.02353 0.07129 0.0
O22 O 0.07182 0.9407 1.00114 0.0
O23 O 0.04904 0.96159 0.9493 0.0
O24 O 0.9977 0.9254 0.01621 0.0
O25 O 1.03019 0.96982 0.0463 0.0
O26 O 0.98062 0.99884 0.99269 0.0
O27 O 0.99775 0.9786 0.95643 0.0
O28 O 0.04394 0.06395 0.06737 0.0
O29 O 0.99175 0.01362 0.05886 0.0
O30 O 0.06245 0.0764 1.00009 0.0
O31 O 0.05696 0.02905 0.99167 0.0
H32 H 0.13762 0.95071 1.00018 0.0
H33 H 0.17632 0.94061 0.97597 0.0
H34 H 0.09194 0.91831 0.87616 0.0
H35 H 0.05441 0.92964 0.90009 0.0
H36 H 0.93503 0.01821 0.05944 0.0
H37 H 0.90256 0.04249 0.07561 0.0
H38 H 1.008 0.13355 0.11704 0.0
H39 H 1.04035 0.10941 0.10031 0.0
Ho40 Ho 0.31527 0.74046 0.27171 0.0
Ho41 Ho 0.25301 0.75913 0.23151 0.0
C42 C 0.23563 0.69796 0.29136 0.0
C43 C 0.35826 0.72389 0.32538 0.0
C44 C 0.34498 0.69286 0.35101 0.0
C45 C 0.3618 0.69561 0.38742 0.0
C46 C 0.34686 0.66644 0.41147 0.0
C47 C 0.31482 0.63412 0.39939 0.0
C48 C 0.29748 0.63233 0.36286 0.0
C49 C 0.31223 0.66131 0.33911 0.0
C50 C 0.26994 0.70344 0.21436 0.0
C51 C 0.32979 0.79579 0.20644 0.0
C52 C 0.20696 0.78029 0.18805 0.0
C53 C 0.21168 0.81709 0.17833 0.0
C54 C 0.24697 0.84658 0.17758 0.0
C55 C 0.25243 0.88192 0.17351 0.0
C56 C 0.2229 0.88822 0.17088 0.0
C57 C 0.1875 0.85861 0.17097 0.0
C58 C 0.18196 0.82337 0.17463 0.0
C59 C 0.30266 0.79779 0.28755 0.0
O60 O 0.27221 0.71208 0.30291 0.0
O61 O 0.21978 0.70699 0.25918 0.0
O62 O 0.35154 0.71599 0.29334 0.0
O63 O 0.35006 0.74907 0.32547 0.0
O64 O 0.30504 0.71204 0.2261 0.0
O65 O 0.25972 0.71141 0.23547 0.0
O66 O 0.29356 0.78543 0.19737 0.0
O67 O 0.34696 0.78625 0.23774 0.0
O68 O 0.20635 0.76907 0.22095 0.0
O69 O 0.2275 0.77235 0.17768 0.0
O70 O 0.26737 0.787 0.28003 0.0
O71 O 0.30939 0.78872 0.26476 0.0
H72 H 0.38638 0.72023 0.39721 0.0
H73 H 0.36074 0.66903 0.4394 0.0
H74 H 0.27331 0.60794 0.35212 0.0
H75 H 0.29792 0.65887 0.31121 0.0
H76 H 0.27055 0.84235 0.18116 0.0
H77 H 0.27991 0.90425 0.17341 0.0
H78 H 0.16403 0.86271 0.16823 0.0
H79 H 0.15472 0.80101 0.17562 0.0
Ho80 Ho 0.51787 0.9764 0.54548 0.0
Ho81 Ho 0.55961 0.0056 0.49583 0.0
C82 C 0.49525 0.03667 0.47618 0.0
C83 C 0.48461 0.96681 0.59239 0.0
C84 C 0.46073 0.98016 0.59539 0.0
C85 C 0.43929 0.99092 0.5651 0.0
C86 C 0.4218 0.00931 0.56825 0.0
C87 C 0.4256 0.01711 0.60174 0.0
C88 C 0.44482 0.00391 0.63208 0.0
C89 C 0.46238 0.98569 0.62889 0.0
C90 C 0.49133 0.93094 0.4958 0.0
C91 C 0.58261 0.94576 0.56545 0.0
C92 C 0.58837 0.01227 0.44628 0.0
C93 C 0.59335 0.98641 0.43388 0.0
C94 C 0.58002 0.95077 0.44897 0.0
C95 C 0.58287 0.92537 0.43611 0.0
C96 C 0.5987 0.93521 0.40772 0.0
C97 C 0.61189 0.97095 0.39256 0.0
C98 C 0.60926 0.99645 0.40564 0.0
C99 C 0.5881 0.0513 0.54565 0.0
O100 O 0.48897 0.01422 0.50639 0.0
O101 O 0.52343 0.03801 0.46686 0.0
O102 O 0.47055 0.94489 0.56769 0.0
O103 O 0.51904 0.99137 0.59359 0.0
O104 O 0.49363 0.92075 0.52901 0.0
O105 O 0.50205 0.96434 0.49066 0.0
O106 O 0.58685 0.9659 0.53369 0.0
O107 O 0.55646 0.94673 0.57625 0.0
O108 O 0.60831 0.02241 0.47806 0.0
O109 O 0.55365 0.00391 0.44094 0.0
O110 O 0.58558 0.06117 0.51234 0.0
O111 O 0.57617 0.0176 0.55102 0.0
H112 H 0.43722 0.98639 0.53898 0.0
H113 H 0.40702 0.01902 0.54448 0.0
H114 H 0.44728 0.00871 0.65828 0.0
H115 H 0.47851 0.97722 0.65252 0.0
H116 H 0.56692 0.94249 0.47036 0.0
H117 H 0.57224 0.89794 0.44801 0.0
H118 H 0.62465 0.97926 0.37091 0.0
H119 H 0.61935 0.02382 0.39359 0.0
Ho120 Ho 0.30549 0.21927 0.78057 0.0
Ho121 Ho 0.29078 0.28067 0.7734 0.0
C122 C 0.34471 0.29205 0.72973 0.0
C123 C 0.30985 0.16582 0.76833 0.0
C124 C 0.31856 0.15756 0.74051 0.0
C125 C 0.30276 0.12152 0.73361 0.0
C126 C 0.31076 0.11293 0.70735 0.0
C127 C 0.3347 0.14034 0.68756 0.0
C128 C 0.34956 0.17658 0.69385 0.0
C129 C 0.34152 0.18513 0.72015 0.0
C130 C 0.35149 0.266 0.83135 0.0
C131 C 0.25066 0.20765 0.82476 0.0
C132 C 0.28138 0.33106 0.78482 0.0
C133 C 0.25196 0.32981 0.7961 0.0
C134 C 0.26012 0.35755 0.81501 0.0
C135 C 0.23283 0.35536 0.82782 0.0
C136 C 0.19699 0.3254 0.82179 0.0
C137 C 0.18884 0.29775 0.80258 0.0
C138 C 0.21624 0.29981 0.79004 0.0
C139 C 0.24468 0.23255 0.72368 0.0
O140 O 0.33026 0.25625 0.73471 0.0
O141 O 0.33773 0.30924 0.74703 0.0
O142 O 0.33731 0.1914 0.7884 0.0
O143 O 0.27894 0.16799 0.75848 0.0
O144 O 0.33795 0.23122 0.8371 0.0
O145 O 0.34099 0.27427 0.79888 0.0
O146 O 0.25875 0.24191 0.81417 0.0
O147 O 0.26427 0.19178 0.81372 0.0
O148 O 0.2714 0.32033 0.75332 0.0
O149 O 0.30196 0.31801 0.80863 0.0
O150 O 0.25754 0.26711 0.71675 0.0
O151 O 0.25564 0.22572 0.75623 0.0
H152 H 0.28467 0.09998 0.74892 0.0
H153 H 0.29937 0.08475 0.70354 0.0
H154 H 0.36787 0.19826 0.67884 0.0
H155 H 0.35364 0.21316 0.72489 0.0
H156 H 0.28768 0.38069 0.82017 0.0
H157 H 0.23967 0.37721 0.84226 0.0
H158 H 0.16155 0.27426 0.79787 0.0
H159 H 0.20967 0.27781 0.77597 0.0
Ho160 Ho 0.07554 0.98344 0.542 0.0
Ho161 Ho 1.00857 0.99441 0.50459 0.0
C162 C 1.00236 0.93973 0.57207 0.0
C163 C 0.13199 0.97726 0.58644 0.0
C164 C 0.16804 0.98061 0.58815 0.0
C165 C 0.19254 0.98051 0.6214 0.0
C166 C 0.22515 0.97953 0.62451 0.0
C167 C 0.23406 0.97872 0.59432 0.0
C168 C 0.2101 0.98046 0.56077 0.0
C169 C 0.17729 0.98135 0.55772 0.0
C170 C 1.0278 0.94182 0.48718 0.0
C171 C 0.08254 0.03759 0.47265 0.0
C172 C 0.94803 0.99463 0.46299 0.0
C173 C 0.92862 0.01627 0.44713 0.0
C174 C 0.89418 0.00073 0.42222 0.0
C175 C 0.87143 0.01719 0.41096 0.0
C176 C 0.8828 0.04979 0.42426 0.0
C177 C 0.9181 0.066 0.44842 0.0
C178 C 0.94081 0.04926 0.4599 0.0
C179 C 0.05728 0.03866 0.55757 0.0
O180 O 1.03929 0.95806 0.5811 0.0
O181 O 0.98394 0.94388 0.53924 0.0
O182 O 0.12937 0.00702 0.58016 0.0
O183 O 0.10226 0.95056 0.56948 0.0
O184 O 0.0638 0.95615 0.49424 0.0
O185 O 1.01918 0.94899 0.51013 0.0
O186 O 0.04601 0.02565 0.46643 0.0
O187 O 0.10148 0.02741 0.50235 0.0
O188 O 0.95419 0.98809 0.49722 0.0
O189 O 0.97566 0.00082 0.45143 0.0
O190 O 1.02161 0.02658 0.54912 0.0
O191 O 0.0651 0.02936 0.53561 0.0
H192 H 0.18576 0.97983 0.64517 0.0
H193 H 0.24237 0.97758 0.65082 0.0
H194 H 0.21628 0.98036 0.53694 0.0
H195 H 0.15868 0.9816 0.53176 0.0
H196 H 0.88407 0.97493 0.41259 0.0
H197 H 0.84426 0.00351 0.39286 0.0
H198 H 0.92797 0.09133 0.45881 0.0
H199 H 0.96724 0.06141 0.47951 0.0
Ho200 Ho 0.3484 0.79111 0.74697 0.0
Ho201 Ho 0.38995 0.78345 0.69961 0.0
C202 C 0.37425 0.85088 0.68119 0.0
C203 C 0.33286 0.81123 0.79286 0.0
C204 C 0.31415 0.82848 0.80117 0.0
C205 C 0.333 0.8504 0.8298 0.0
C206 C 0.31485 0.86295 0.84201 0.0
C207 C 0.27713 0.85409 0.82592 0.0
C208 C 0.25859 0.83313 0.79638 0.0
C209 C 0.27675 0.8203 0.78431 0.0
C210 C 0.30216 0.75051 0.6919 0.0
C211 C 0.35519 0.72057 0.7573 0.0
C212 C 0.4172 0.7634 0.66405 0.0
C213 C 0.42228 0.73488 0.65359 0.0
C214 C 0.39701 0.71338 0.62495 0.0
C215 C 0.40496 0.69071 0.61248 0.0
C216 C 0.43871 0.68872 0.62785 0.0
C217 C 0.46368 0.71014 0.65672 0.0
C218 C 0.45567 0.73258 0.66919 0.0
C219 C 0.43151 0.82332 0.75756 0.0
O220 O 0.36497 0.84257 0.71153 0.0
O221 O 0.38107 0.83002 0.66823 0.0
O222 O 0.31211 0.77998 0.77911 0.0
O223 O 0.36276 0.83145 0.78133 0.0
O224 O 0.29284 0.74893 0.71983 0.0
O225 O 0.33385 0.77751 0.69191 0.0
O226 O 0.3602 0.72837 0.72523 0.0
O227 O 0.35846 0.74471 0.77504 0.0
O228 O 0.43378 0.77419 0.69611 0.0
O229 O 0.38573 0.76487 0.65118 0.0
O230 O 0.44036 0.83232 0.72769 0.0
O231 O 0.40206 0.79382 0.75505 0.0
H232 H 0.3617 0.85698 0.84356 0.0
H233 H 0.33042 0.87943 0.86438 0.0
H234 H 0.22955 0.82547 0.78332 0.0
H235 H 0.26122 0.80319 0.76241 0.0
H236 H 0.37124 0.71455 0.61157 0.0
H237 H 0.38439 0.67477 0.59058 0.0
H238 H 0.49036 0.71068 0.6693 0.0
H239 H 0.47651 0.74918 0.69061 0.0
Ho240 Ho 0.5663 0.98746 0.02744 0.0
Ho241 Ho 0.52201 0.02613 0.99467 0.0
C242 C 0.59838 0.06032 0.97723 0.0
C243 C 0.60764 0.95637 0.04305 0.0
C244 C 0.63202 0.95457 0.02656 0.0
C245 C 0.63319 0.96877 0.99169 0.0
C246 C 0.6554 0.96542 0.97586 0.0
C247 C 0.6767 0.94775 0.99466 0.0
C248 C 0.67588 0.93422 0.02985 0.0
C249 C 0.65372 0.93764 0.04563 0.0
C250 C 0.56944 0.02714 0.07309 0.0
C251 C 0.48887 0.95169 0.04279 0.0
C252 C 0.48112 0.05752 0.98059 0.0
C253 C 0.45565 0.05719 0.99728 0.0
C254 C 0.45253 0.03954 0.03085 0.0
C255 C 0.42877 0.04007 0.04681 0.0
C256 C 0.40794 0.05852 0.02958 0.0
C257 C 0.41094 0.07582 0.99572 0.0
C258 C 0.43456 0.07508 0.97972 0.0
C259 C 0.51858 0.98624 0.94905 0.0
O260 O 0.59695 0.02857 0.98876 0.0
O261 O 0.57436 0.06841 0.98099 0.0
O262 O 0.61913 0.9877 0.0537 0.0
O263 O 0.57214 0.94093 0.0268 0.0
O264 O 0.56807 0.99577 0.08128 0.0
O265 O 0.57051 0.03679 0.04117 0.0
O266 O 0.4903 0.98354 0.03205 0.0
O267 O 0.51342 0.94431 0.03917 0.0
O268 O 0.47007 0.02747 0.96757 0.0
O269 O 0.51627 0.07197 0.99815 0.0
O270 O 0.51956 0.01748 0.94063 0.0
O271 O 0.51767 0.97676 0.98102 0.0
H272 H 0.61657 0.98197 0.97659 0.0
H273 H 0.65572 0.97647 0.94886 0.0
H274 H 0.69145 0.91997 0.04489 0.0
H275 H 0.65302 0.92647 0.07256 0.0
H276 H 0.46873 0.02568 0.04486 0.0
H277 H 0.42682 0.0261 0.07269 0.0
H278 H 0.39583 0.09079 0.98193 0.0
H279 H 0.43676 0.08893 0.95381 0.0
Ho280 Ho 0.26755 0.21436 0.24301 0.0
Ho281 Ho 0.31237 0.26795 0.29823 0.0
C282 C 0.33461 0.19688 0.3142 0.0
C283 C 0.24595 0.17979 0.18812 0.0
C284 C 0.25977 0.1636 0.17233 0.0
C285 C 0.29748 0.17223 0.18276 0.0
C286 C 0.30965 0.15492 0.16884 0.0
C287 C 0.28425 0.12856 0.14441 0.0
C288 C 0.24646 0.12009 0.1341 0.0
C289 C 0.23436 0.13746 0.148 0.0
C290 C 0.2269 0.19259 0.29095 0.0
C291 C 0.24537 0.28573 0.22696 0.0
C292 C 0.33318 0.30079 0.35389 0.0
C293 C 0.3178 0.31472 0.37072 0.0
C294 C 0.30064 0.29393 0.39795 0.0
C295 C 0.28517 0.30683 0.41306 0.0
C296 C 0.28662 0.34063 0.40112 0.0
C297 C 0.30496 0.36199 0.3749 0.0
C298 C 0.32062 0.34926 0.35997 0.0
C299 C 0.35396 0.29017 0.2515 0.0
O300 O 0.30771 0.18746 0.28243 0.0
O301 O 0.34068 0.22779 0.32505 0.0
O302 O 0.23885 0.16416 0.21843 0.0
O303 O 0.26293 0.21505 0.18761 0.0
O304 O 0.21557 0.17745 0.26209 0.0
O305 O 0.25835 0.21997 0.2913 0.0
O306 O 0.27097 0.29394 0.25962 0.0
O307 O 0.24065 0.25582 0.21518 0.0
O308 O 0.34001 0.31732 0.32363 0.0
O309 O 0.31839 0.26568 0.35421 0.0
O310 O 0.36421 0.30528 0.28008 0.0
O311 O 0.32221 0.26259 0.2499 0.0
H312 H 0.3174 0.19217 0.20179 0.0
H313 H 0.33903 0.16248 0.17692 0.0
H314 H 0.22615 0.0997 0.11566 0.0
H315 H 0.20502 0.13017 0.14005 0.0
H316 H 0.29865 0.2675 0.4072 0.0
H317 H 0.27107 0.28992 0.43328 0.0
H318 H 0.30692 0.38843 0.36577 0.0
H319 H 0.33448 0.36635 0.33967 0.0
Ho320 Ho 0.57751 0.50182 0.04586 0.0
Ho321 Ho 0.50087 0.48363 0.99383 0.0
C322 C 0.50113 0.44646 0.07266 0.0
C323 C 0.63612 0.53077 0.09685 0.0
C324 C 0.64634 0.52567 0.13531 0.0
C325 C 0.61884 0.5067 0.15384 0.0
C326 C 0.62753 0.49187 0.18816 0.0
C327 C 0.66337 0.49494 0.20331 0.0
C328 C 0.69213 0.51995 0.18717 0.0
C329 C 0.68347 0.53488 0.15301 0.0
C330 C 0.54579 0.44368 1.00872 0.0
C331 C 0.57779 0.53711 0.96646 0.0
C332 C 0.44184 0.45837 0.94227 0.0
C333 C 0.42709 0.47288 0.90798 0.0
C334 C 0.38838 0.45856 0.89448 0.0
C335 C 0.37362 0.4787 0.86862 0.0
C336 C 0.39769 0.51323 0.85655 0.0
C337 C 0.43626 0.5253 0.86678 0.0
C338 C 0.45097 0.50524 0.89259 0.0
C339 C 0.53333 0.54287 0.02978 0.0
O340 O 0.53764 0.46923 0.08205 0.0
O341 O 0.48229 0.44396 0.03897 0.0
O342 O 0.62935 0.5044 0.08013 0.0
O343 O 0.6118 0.54273 0.08311 0.0
O344 O 0.58156 0.46552 0.01621 0.0
O345 O 0.53027 0.45312 0.02244 0.0
O346 O 0.54064 0.51728 0.95766 0.0
O347 O 0.59769 0.5373 0.99963 0.0
O348 O 0.44389 0.47208 0.96916 0.0
O349 O 0.47174 0.45586 0.94578 0.0
O350 O 0.49754 0.52165 0.02209 0.0
O351 O 0.54824 0.53235 0.01652 0.0
H352 H 0.59012 0.50039 0.14076 0.0
H353 H 0.6051 0.47374 0.20055 0.0
H354 H 0.72029 0.52371 0.19825 0.0
H355 H 0.70512 0.55037 0.13919 0.0
H356 H 0.36971 0.43355 0.90626 0.0
H357 H 0.34379 0.46909 0.86107 0.0
H358 H 0.45515 0.55189 0.85752 0.0
H359 H 0.48095 0.51661 0.90277 0.0
Ho360 Ho 0.703 0.23459 0.32019 0.0
Ho361 Ho 0.74167 0.23608 0.26498 0.0
C362 C 0.72171 0.29735 0.25803 0.0
C363 C 0.67599 0.24994 0.36017 0.0
C364 C 0.66822 0.2767 0.37033 0.0
C365 C 0.69285 0.29916 0.39843 0.0
C366 C 0.683 0.32012 0.41105 0.0
C367 C 0.64787 0.31943 0.39639 0.0
C368 C 0.62353 0.29719 0.36796 0.0
C369 C 0.63342 0.27636 0.35536 0.0
C370 C 0.66007 0.19133 0.26484 0.0
C371 C 0.73249 0.17775 0.33501 0.0
C372 C 0.75819 0.21888 0.21759 0.0
C373 C 0.77964 0.20332 0.21115 0.0
C374 C 0.76045 0.17002 0.19595 0.0
C375 C 0.77933 0.15702 0.18535 0.0
C376 C 0.81819 0.17695 0.18936 0.0
C377 C 0.83747 0.21003 0.20523 0.0
C378 C 0.81855 0.22303 0.21584 0.0
C379 C 0.78844 0.28059 0.31728 0.0
O380 O 0.72263 0.28931 0.29182 0.0
O381 O 0.72021 0.27569 0.23849 0.0
O382 O 0.65688 0.23568 0.32975 0.0
O383 O 0.70988 0.25394 0.36931 0.0
O384 O 0.6559 0.18162 0.29675 0.0
O385 O 0.68577 0.22323 0.26406 0.0
O386 O 0.73716 0.18717 0.30255 0.0
O387 O 0.72321 0.19477 0.35031 0.0
O388 O 0.77655 0.25077 0.22997 0.0
O389 O 0.72912 0.19722 0.23004 0.0
O390 O 0.79369 0.28523 0.28628 0.0
O391 O 0.76075 0.25005 0.32063 0.0
H392 H 0.71966 0.3 0.41133 0.0
H393 H 0.70318 0.33688 0.43253 0.0
H394 H 0.59597 0.29472 0.35591 0.0
H395 H 0.61303 0.25898 0.33435 0.0
H396 H 0.73044 0.15438 0.19121 0.0
H397 H 0.76307 0.13177 0.17286 0.0
H398 H 0.86736 0.22613 0.20941 0.0
H399 H 0.83442 0.24896 0.22706 0.0
Ho400 Ho 0.06077 0.47863 0.51984 0.0
Ho401 Ho 1.03581 0.53541 0.50953 0.0
C402 C 0.0843 0.54021 0.46056 0.0
C403 C 0.06824 0.42195 0.52648 0.0
C404 C 0.09363 0.41484 0.51679 0.0
C405 C 0.07923 0.3837 0.49971 0.0
C406 C 0.10247 0.37783 0.48791 0.0
C407 C 0.14049 0.40295 0.49331 0.0
C408 C 0.15505 0.43381 0.51101 0.0
C409 C 0.13172 0.43988 0.52243 0.0
C410 C 0.11382 0.54119 0.54873 0.0
C411 C 1.01386 0.47489 0.57045 0.0
C412 C 1.02797 0.59218 0.50104 0.0
C413 C 1.00245 0.60017 0.5093 0.0
C414 C 1.01697 0.63191 0.52544 0.0
C415 C 0.99397 0.63829 0.53703 0.0
C416 C 0.95606 0.61308 0.53238 0.0
C417 C 0.94124 0.58184 0.51516 0.0
C418 C 0.96435 0.57525 0.50393 0.0
C419 C 0.98334 0.47267 0.48023 0.0
O420 O 0.07575 0.50598 0.46929 0.0
O421 O 0.07658 0.55791 0.47648 0.0
O422 O 0.08328 0.44357 0.55179 0.0
O423 O 0.04435 0.42868 0.49988 0.0
O424 O 0.12068 0.52186 0.53488 0.0
O425 O 0.0799 0.5253 0.54854 0.0
O426 O 1.01982 0.50823 0.55954 0.0
O427 O 1.02289 0.45726 0.55583 0.0
O428 O 1.01351 0.5702 0.47615 0.0
O429 O 0.05103 0.58532 0.52856 0.0
O430 O 0.97602 0.49151 0.49422 0.0
O431 O 1.01725 0.48919 0.48059 0.0
H432 H 0.04988 0.36424 0.49497 0.0
H433 H 0.09075 0.35368 0.47455 0.0
H434 H 0.18421 0.45368 0.51513 0.0
H435 H 0.14336 0.46442 0.53512 0.0
H436 H 0.04633 0.65128 0.52994 0.0
H437 H 1.00589 0.6627 0.55004 0.0
H438 H 0.91214 0.56192 0.51161 0.0
H439 H 0.95265 0.55031 0.49192 0.0
Ho440 Ho 0.79198 0.71286 0.25871 0.0
Ho441 Ho 0.77686 0.77293 0.25244 0.0
C442 C 0.83282 0.78693 0.20934 0.0
C443 C 0.80227 0.66321 0.24678 0.0
C444 C 0.83136 0.66456 0.23484 0.0
C445 C 0.82307 0.63634 0.21654 0.0
C446 C 0.85019 0.6381 0.20379 0.0
C447 C 0.88601 0.66809 0.20932 0.0
C448 C 0.89424 0.69632 0.22777 0.0
C449 C 0.86699 0.6947 0.24022 0.0
C450 C 0.83854 0.76021 0.30905 0.0
C451 C 0.73595 0.69908 0.30169 0.0
C452 C 0.76838 0.8234 0.26512 0.0
C453 C 0.74241 0.82411 0.28021 0.0
C454 C 0.75662 0.84812 0.30603 0.0
C455 C 0.73277 0.84855 0.32177 0.0
C456 C 0.69428 0.8251 0.3117 0.0
C457 C 0.68 0.80094 0.28589 0.0
C458 C 0.70398 0.80019 0.27045 0.0
C459 C 0.72959 0.72533 0.20223 0.0
O460 O 0.82131 0.75162 0.2161 0.0
O461 O 0.8226 0.80301 0.22444 0.0
O462 O 0.81282 0.67428 0.2782 0.0
O463 O 0.78103 0.67573 0.22334 0.0
O464 O 0.82502 0.72557 0.31527 0.0
O465 O 0.82775 0.76794 0.2766 0.0
O466 O 0.74801 0.7345 0.29537 0.0
O467 O 0.74552 0.68283 0.28599 0.0
O468 O 0.7546 0.81044 0.23412 0.0
O469 O 0.79122 0.812 0.28726 0.0
O470 O 0.7431 0.76002 0.19614 0.0
O471 O 0.74084 0.71768 0.23464 0.0
H472 H 0.7956 0.61305 0.21197 0.0
H473 H 0.84329 0.6158 0.18996 0.0
H474 H 0.92153 0.71983 0.23209 0.0
H475 H 0.87365 0.71703 0.25386 0.0
H476 H 0.78622 0.86655 0.31404 0.0
H477 H 0.74433 0.86781 0.34125 0.0
H478 H 0.6504 0.78262 0.27782 0.0
H479 H 0.6925 0.78096 0.25096 0.0
Ho480 Ho 0.83431 0.25069 0.7904 0.0
Ho481 Ho 0.77542 0.2729 0.74861 0.0
C482 C 0.75532 0.21389 0.81057 0.0
C483 C 0.87761 0.22668 0.83465 0.0
C484 C 0.87337 0.19004 0.84101 0.0
C485 C 0.83795 0.15968 0.83824 0.0
C486 C 0.83356 0.12509 0.83959 0.0
C487 C 0.86438 0.12051 0.84298 0.0
C488 C 0.8998 0.15094 0.84618 0.0
C489 C 0.90424 0.18539 0.84525 0.0
C490 C 0.78721 0.21527 0.73155 0.0
C491 C 0.85886 0.31747 0.73624 0.0
C492 C 0.73514 0.29226 0.69449 0.0
C493 C 0.7491 0.32617 0.67218 0.0
C494 C 0.74002 0.32595 0.6353 0.0
C495 C 0.75687 0.35784 0.61475 0.0
C496 C 0.78325 0.39034 0.63087 0.0
C497 C 0.79231 0.39015 0.66785 0.0
C498 C 0.77569 0.35852 0.68821 0.0
C499 C 0.81574 0.30442 0.80955 0.0
O500 O 0.79142 0.22375 0.8218 0.0
O501 O 0.74035 0.22501 0.77892 0.0
O502 O 0.88219 0.24211 0.80351 0.0
O503 O 0.85418 0.23152 0.84375 0.0
O504 O 0.82222 0.22435 0.74156 0.0
O505 O 0.77923 0.22376 0.75373 0.0
O506 O 0.82284 0.3067 0.72269 0.0
O507 O 0.8715 0.30356 0.7671 0.0
O508 O 0.7375 0.29547 0.72694 0.0
O509 O 0.74632 0.26977 0.69296 0.0
O510 O 0.78121 0.29714 0.79499 0.0
O511 O 0.82859 0.2986 0.7892 0.0
H512 H 0.81355 0.16274 0.83419 0.0
H513 H 0.80605 0.10205 0.83723 0.0
H514 H 0.92419 0.14808 0.84963 0.0
H515 H 0.93164 0.20851 0.84695 0.0
H516 H 0.72027 0.30108 0.62249 0.0
H517 H 0.74917 0.3571 0.58632 0.0
H518 H 0.81166 0.41472 0.68125 0.0
H519 H 0.7841 0.35945 0.71668 0.0
Ho520 Ho 0.76724 0.71534 0.74135 0.0
Ho521 Ho 0.81081 0.76828 0.79805 0.0
C522 C 0.8337 0.69744 0.81349 0.0
C523 C 0.74858 0.68508 0.6846 0.0
C524 C 0.76628 0.67521 0.6664 0.0
C525 C 0.77618 0.69536 0.63544 0.0
C526 C 0.79408 0.68696 0.61867 0.0
C527 C 0.80229 0.65826 0.63261 0.0
C528 C 0.79115 0.63729 0.66277 0.0
C529 C 0.77324 0.64561 0.67949 0.0
C530 C 0.72485 0.69221 0.7875 0.0
C531 C 0.74432 0.78608 0.72639 0.0
C532 C 0.83043 0.80164 0.85316 0.0
C533 C 0.81629 0.81894 0.86715 0.0
C534 C 0.77805 0.80775 0.85884 0.0
C535 C 0.76552 0.82617 0.87071 0.0
C536 C 0.79105 0.85626 0.8908 0.0
C537 C 0.82937 0.86732 0.89896 0.0
C538 C 0.84182 0.84877 0.88724 0.0
C539 C 0.85264 0.79055 0.75101 0.0
O540 O 0.80885 0.68963 0.78038 0.0
O541 O 0.83756 0.72676 0.82565 0.0
O542 O 0.74306 0.66714 0.71486 0.0
O543 O 0.76044 0.71962 0.68504 0.0
O544 O 0.71503 0.67715 0.75896 0.0
O545 O 0.75651 0.71984 0.78921 0.0
O546 O 0.7709 0.79523 0.75836 0.0
O547 O 0.73867 0.7555 0.71513 0.0
O548 O 0.84062 0.8177 0.82417 0.0
O549 O 0.81194 0.76644 0.85262 0.0
O550 O 0.86327 0.80567 0.77974 0.0
O551 O 0.82107 0.76328 0.75025 0.0
H552 H 0.77063 0.71797 0.62453 0.0
H553 H 0.80248 0.70355 0.59544 0.0
H554 H 0.7965 0.61455 0.67358 0.0
H555 H 0.76532 0.62907 0.7029 0.0
H556 H 0.75794 0.78499 0.843 0.0
H557 H 0.7358 0.81665 0.86437 0.0
H558 H 0.8498 0.89067 0.9139 0.0
H559 H 0.87151 0.85806 0.89343 0.0
Ho560 Ho 0.57448 0.51199 0.5459 0.0
Ho561 Ho 0.5016 0.484 0.48262 0.0
C562 C 0.56398 0.4582 0.49277 0.0
C563 C 0.62608 0.5235 0.60433 0.0
C564 C 0.66675 0.53996 0.61042 0.0
C565 C 0.68635 0.52342 0.63562 0.0
C566 C 0.72241 0.53292 0.63553 0.0
C567 C 0.73912 0.55876 0.60983 0.0
C568 C 0.72087 0.57783 0.58701 0.0
C569 C 0.68508 0.5687 0.58749 0.0
C570 C 0.59036 0.55307 0.48443 0.0
C571 C 0.51274 0.53884 0.53498 0.0
C572 C 0.44932 0.4733 0.42479 0.0
C573 C 0.40922 0.45979 0.41977 0.0
C574 C 0.39109 0.47769 0.39453 0.0
C575 C 0.35708 0.47259 0.39633 0.0
C576 C 0.3411 0.44997 0.42384 0.0
C577 C 0.35734 0.42919 0.44667 0.0
C578 C 0.39089 0.43373 0.44436 0.0
C579 C 0.48586 0.44265 0.54419 0.0
O580 O 0.58052 0.47091 0.52481 0.0
O581 O 0.5357 0.46336 0.47109 0.0
O582 O 0.61151 0.54517 0.58971 0.0
O583 O 0.60668 0.49223 0.59036 0.0
O584 O 0.61338 0.55842 0.51545 0.0
O585 O 0.55947 0.52697 0.48847 0.0
O586 O 0.49582 0.52553 0.50325 0.0
O587 O 0.54082 0.53351 0.55678 0.0
O588 O 0.4619 0.45012 0.43982 0.0
O589 O 0.47111 0.50506 0.43773 0.0
O590 O 0.46295 0.43742 0.51315 0.0
O591 O 0.51669 0.46891 0.54017 0.0
H592 H 0.67281 0.50131 0.65361 0.0
H593 H 0.7356 0.51747 0.65329 0.0
H594 H 0.7331 0.5979 0.56708 0.0
H595 H 0.6709 0.58251 0.56822 0.0
H596 H 0.40466 0.49783 0.3753 0.0
H597 H 0.34547 0.48929 0.37848 0.0
H598 H 0.34571 0.41161 0.46807 0.0
H599 H 0.40377 0.41885 0.46366 0.0
Ho600 Ho 1.03665 0.49828 0.05177 0.0
Ho601 Ho 0.04325 0.48562 0.98823 0.0
C602 C 0.99465 0.5362 0.97595 0.0
C603 C 0.05194 0.52164 0.11166 0.0
C604 C 0.05181 0.55196 0.12168 0.0
C605 C 0.0495 0.57959 0.09628 0.0
C606 C 0.04418 0.60578 0.10461 0.0
C607 C 1.04037 0.60431 0.13831 0.0
C608 C 0.04485 0.57768 0.16426 0.0
C609 C 0.05055 0.55171 0.15596 0.0
C610 C 0.9804 0.43673 0.02396 0.0
C611 C 0.08472 0.44718 0.06388 0.0
C612 C 1.02974 0.46414 0.92785 0.0
C613 C 1.03011 0.43434 0.91707 0.0
C614 C 1.03305 0.40665 0.942 0.0
C615 C 1.03852 0.38098 0.93283 0.0
C616 C 0.04182 0.38304 0.89876 0.0
C617 C 1.03674 0.40974 0.87334 0.0
C618 C 1.0309 0.43519 0.88248 0.0
C619 C 0.09823 0.54791 0.01579 0.0
O620 O 1.00623 0.53367 1.01223 0.0
O621 O 1.00491 0.51775 0.96176 0.0
O622 O 1.01909 0.49651 0.09661 0.0
O623 O 0.07727 0.53019 0.09559 0.0
O624 O 0.97567 0.45804 0.03738 0.0
O625 O 1.0145 0.44868 0.02725 0.0
O626 O 0.0732 0.44989 0.02763 0.0
O627 O 0.07459 0.46567 0.07818 0.0
O628 O 0.06236 0.48869 0.944 0.0
O629 O 1.00375 0.455 0.94325 0.0
O630 O 0.10433 0.52652 1.00413 0.0
O631 O 0.06401 0.53511 1.01192 0.0
H632 H 0.05017 0.57999 0.06959 0.0
H633 H 0.04137 0.62619 0.08419 0.0
H634 H 0.04158 0.57542 0.19032 0.0
H635 H 0.05216 0.53042 0.17579 0.0
H636 H 1.03274 0.4058 0.96893 0.0
H637 H 0.04181 0.36049 0.95287 0.0
H638 H 1.03963 0.41247 0.84701 0.0
H639 H 1.0288 0.45654 0.86301 0.0
H640 H 0.22496 0.13573 0.84935 0.0
H641 H 0.09818 0.13358 0.9585 0.0
H642 H 0.21498 0.22888 0.85361 0.0
H643 H 0.10121 0.03819 0.94865 0.0
H644 H 0.14116 0.16855 0.92091 0.0
H645 H 0.18107 0.1001 0.886 0.0
C646 C 0.21373 0.14889 0.85799 0.0
C647 C 0.2242 0.18577 0.84811 0.0
C648 C 0.13244 0.13997 0.92676 0.0
C649 C 0.1731 0.14438 0.89067 0.0
C650 C 0.10772 0.11984 0.9483 0.0
C651 C 0.09566 0.08264 0.95685 0.0
C652 C 0.14585 0.12313 0.91345 0.0
C653 C 0.10937 0.06665 0.94274 0.0
C654 C 0.18844 0.12832 0.879 0.0
C655 C 0.20816 0.20076 0.86038 0.0
N656 N 0.13366 0.08689 0.92196 0.0
N657 N 0.18369 0.18019 0.88086 0.0
H658 H 0.13046 0.01986 0.13313 0.0
H659 H 0.25788 0.94526 0.12655 0.0
H660 H 0.17365 0.03621 0.04498 0.0
H661 H 0.19995 0.9158 0.20648 0.0
H662 H 0.25168 0.00043 0.11014 0.0
H663 H 0.18015 0.00659 0.17217 0.0
C664 C 0.15112 0.02188 0.12216 0.0
C665 C 0.14689 0.02723 0.08556 0.0
C666 C 0.24119 0.98236 0.13191 0.0
C667 C 0.20303 0.01136 0.12973 0.0
C668 C 0.24476 0.9509 0.14129 0.0
C669 C 0.22802 0.92535 0.1669 0.0
C670 C 0.22032 0.98783 0.14799 0.0
C671 C 0.21188 0.9342 0.18557 0.0
C672 C 0.17946 0.01418 0.14445 0.0
C673 C 0.17497 0.03048 0.07291 0.0
N674 N 0.20764 0.9643 0.17519 0.0
N675 N 0.20126 0.02141 0.0948 0.0
H676 H 0.42972 0.86572 0.49906 0.0
H677 H 0.37704 0.83551 0.29602 0.0
H678 H 0.49562 0.94142 0.42832 0.0
H679 H 0.29261 0.79985 0.35033 0.0
H680 H 0.42499 0.86431 0.34872 0.0
H681 H 0.38322 0.8303 0.44869 0.0
C682 C 0.4347 0.87444 0.47305 0.0
C683 C 0.46629 0.90651 0.46753 0.0
C684 C 0.39598 0.85016 0.34908 0.0
C685 C 0.41384 0.8665 0.41051 0.0
C686 C 0.36868 0.83382 0.31913 0.0
C687 C 0.331 0.81571 0.31898 0.0
C688 C 0.38548 0.84783 0.37921 0.0
C689 C 0.32146 0.81401 0.34949 0.0
C690 C 0.40811 0.8545 0.44444 0.0
C691 C 0.47147 0.91697 0.43346 0.0
N692 N 0.34868 0.82984 0.37865 0.0
N693 N 0.44546 0.89697 0.40613 0.0
H694 H 0.40528 0.17049 0.68089 0.0
H695 H 0.35867 0.01697 0.56682 0.0
H696 H 0.29296 0.08788 0.64004 0.0
H697 H 0.46279 0.07292 0.6437 0.0
H698 H 0.33615 0.05473 0.57759 0.0
H699 H 0.42782 0.14726 0.64997 0.0
C700 C 0.38521 0.14804 0.66468 0.0
C701 C 0.34724 0.13074 0.66346 0.0
C702 C 0.36405 0.05885 0.59172 0.0
C703 C 0.37302 0.10368 0.62862 0.0
C704 C 0.37689 0.03743 0.58562 0.0
C705 C 0.41217 0.04114 0.60526 0.0
C706 C 0.38702 0.08441 0.61707 0.0
C707 C 0.43488 0.06829 0.62896 0.0
C708 C 0.39815 0.13463 0.64728 0.0
C709 C 0.32257 0.1015 0.64226 0.0
N710 N 0.42181 0.08869 0.6344 0.0
N711 N 0.33596 0.08851 0.62598 0.0
H712 H 0.30266 0.00542 0.64297 0.0
H713 H 0.34351 0.8573 0.60993 0.0
H714 H 0.23874 0.93736 0.55551 0.0
H715 H 0.39597 0.9149 0.70414 0.0
H716 H 0.31899 0.89981 0.58059 0.0
H717 H 0.34892 0.98478 0.65705 0.0
C718 C 0.29842 0.98637 0.62649 0.0
C719 C 0.26609 0.97244 0.59853 0.0
C720 C 0.33674 0.90374 0.60737 0.0
C721 C 0.31951 0.94905 0.61427 0.0
C722 C 0.35108 0.87973 0.62394 0.0
C723 C 0.37112 0.8823 0.65965 0.0
C724 C 0.34256 0.93023 0.62681 0.0
C725 C 0.38 0.91169 0.67672 0.0
C726 C 0.32502 0.97472 0.63447 0.0
C727 C 0.26306 0.94887 0.57736 0.0
N728 N 0.36508 0.9341 0.66039 0.0
N729 N 0.28909 0.9375 0.586 0.0
H730 H 0.42132 0.80369 0.824 0.0
H731 H 0.52454 0.00563 0.88127 0.0
H732 H 0.47844 0.89674 0.75847 0.0
H733 H 0.49231 0.91243 0.95546 0.0
H734 H 0.50629 0.96637 0.83562 0.0
H735 H 0.44503 0.84276 0.87168 0.0
C736 C 0.43911 0.83237 0.81973 0.0
C737 C 0.44791 0.84694 0.78714 0.0
C738 C 0.50336 0.95443 0.86189 0.0
C739 C 0.47503 0.89208 0.84175 0.0
C740 C 0.51374 0.97685 0.88802 0.0
C741 C 0.50982 0.96232 0.92227 0.0
C742 C 0.4884 0.91692 0.86975 0.0
C743 C 0.49581 0.92482 0.92944 0.0
C744 C 0.45267 0.85467 0.84702 0.0
C745 C 0.47104 0.88431 0.78315 0.0
N746 N 0.48531 0.90343 0.90337 0.0
N747 N 0.48352 0.90557 0.80997 0.0
H748 H 0.3393 0.05603 1.0005 0.0
H749 H 0.33559 0.1045 0.17836 0.0
H750 H 0.42352 0.06767 0.09953 0.0
H751 H 0.26266 0.11147 0.07591 0.0
H752 H 0.36138 0.08073 0.15171 0.0
H753 H 0.30456 0.06651 0.02956 0.0
C754 C 0.35046 0.06067 0.02835 0.0
C755 C 0.38465 0.06134 0.04747 0.0
C756 C 0.33957 0.08726 0.13509 0.0
C757 C 0.34478 0.07296 0.08096 0.0
C758 C 0.32497 0.10101 0.15026 0.0
C759 C 0.29743 0.11068 0.12923 0.0
C760 C 0.32662 0.08316 0.09859 0.0
C761 C 0.28393 0.1045 0.09315 0.0
C762 C 0.3305 0.06646 0.04496 0.0
C763 C 0.39723 0.06664 0.08372 0.0
N764 N 0.29892 0.09147 0.0789 0.0
N765 N 0.37745 0.07251 0.09919 0.0
H766 H 0.05431 0.05512 0.40244 0.0
H767 H 0.25378 0.19911 0.36383 0.0
H768 H 0.15849 0.07966 0.48192 0.0
H769 H 0.15287 0.14749 0.28234 0.0
H770 H 0.21875 0.16367 0.40875 0.0
H771 H 0.08923 0.09627 0.35948 0.0
C772 C 0.08448 0.06922 0.41101 0.0
C773 C 0.10325 0.06348 0.44604 0.0
C774 C 0.20424 0.16042 0.38099 0.0
C775 C 0.14378 0.11138 0.39667 0.0
C776 C 0.2242 0.18096 0.35533 0.0
C777 C 0.20631 0.17645 0.31913 0.0
C778 C 0.16596 0.13555 0.37043 0.0
C779 C 0.16793 0.15196 0.30985 0.0
C780 C 0.10449 0.09276 0.38637 0.0
C781 C 0.14259 0.08281 0.45526 0.0
N782 N 0.14921 0.13264 0.33511 0.0
N783 N 0.1614 0.10579 0.43092 0.0
H784 H 0.80383 0.10669 0.18853 0.0
H785 H 0.96818 0.16058 0.10028 0.0
H786 H 0.87853 0.21664 0.16002 0.0
H787 H 0.89092 0.05065 0.12568 0.0
H788 H 0.93645 0.18155 0.12255 0.0
H789 H 0.83548 0.08595 0.16601 0.0
C790 C 0.82672 0.12662 0.17743 0.0
C791 C 0.83816 0.16371 0.17637 0.0
C792 C 0.92637 0.15282 0.12322 0.0
C793 C 0.87527 0.13972 0.15054 0.0
C794 C 0.94468 0.14072 0.1106 0.0
C795 C 0.9325 0.10356 0.11086 0.0
C796 C 0.89547 0.12778 0.13652 0.0
C797 C 0.9013 0.07948 0.12425 0.0
C798 C 0.84501 0.11464 0.16468 0.0
C799 C 0.86872 0.18787 0.16208 0.0
N800 N 0.88411 0.09193 0.1365 0.0
N801 N 0.886 0.17552 0.14981 0.0
H802 H 0.07723 0.51813 0.39876 0.0
H803 H 0.25932 0.68837 0.36259 0.0
H804 H 0.14062 0.60845 0.46386 0.0
H805 H 0.16116 0.64827 0.27494 0.0
H806 H 0.22207 0.64704 0.40314 0.0
H807 H 0.11385 0.5548 0.35535 0.0
C808 C 0.09895 0.54553 0.4039 0.0
C809 C 0.10599 0.56059 0.43458 0.0
C810 C 0.20883 0.64727 0.375 0.0
C811 C 0.14781 0.60164 0.3862 0.0
C812 C 0.22995 0.67072 0.35182 0.0
C813 C 0.21311 0.67199 0.31538 0.0
C814 C 0.1708 0.62446 0.36165 0.0
C815 C 0.17499 0.64836 0.30292 0.0
C816 C 0.11951 0.56631 0.37922 0.0
C817 C 0.13422 0.59611 0.44027 0.0
N818 N 0.15494 0.62531 0.32613 0.0
N819 N 0.15441 0.61538 0.41642 0.0
H820 H 0.56272 0.87466 0.60929 0.0
H821 H 0.76417 0.8652 0.71403 0.0
H822 H 0.66203 0.95727 0.58082 0.0
H823 H 0.6657 0.76729 0.6797 0.0
H824 H 0.7304 0.89967 0.6788 0.0
H825 H 0.59662 0.83993 0.64289 0.0
C826 C 0.59167 0.88674 0.60937 0.0
C827 C 0.60664 0.92162 0.58912 0.0
C828 C 0.71515 0.87059 0.67842 0.0
C829 C 0.65111 0.87758 0.63372 0.0
C830 C 0.73541 0.84965 0.69973 0.0
C831 C 0.72058 0.81045 0.70258 0.0
C832 C 0.67634 0.85471 0.65797 0.0
C833 C 0.68159 0.79628 0.6808 0.0
C834 C 0.61203 0.86566 0.62969 0.0
C835 C 0.64596 0.93172 0.59382 0.0
N836 N 0.6625 0.81704 0.66153 0.0
N837 N 0.66513 0.9114 0.61454 0.0
H838 H 0.49071 0.37775 0.02044 0.0
H839 H 0.39942 0.33746 0.81866 0.0
H840 H 0.54916 0.44444 0.94152 0.0
H841 H 0.37402 0.25337 0.90275 0.0
H842 H 0.45139 0.37921 0.86222 0.0
H843 H 0.44539 0.33327 0.97718 0.0
C844 C 0.49446 0.38251 0.99411 0.0
C845 C 0.52405 0.41433 0.98464 0.0
C846 C 0.43455 0.35156 0.87103 0.0
C847 C 0.4713 0.36435 0.93446 0.0
C848 C 0.40474 0.32782 0.84629 0.0
C849 C 0.38235 0.29192 0.85719 0.0
C850 C 0.44154 0.33946 0.90698 0.0
C851 C 0.39057 0.28081 0.89324 0.0
C852 C 0.46847 0.35725 0.96939 0.0
C853 C 0.52719 0.41976 0.94999 0.0
N854 N 0.41925 0.30454 0.91686 0.0
N855 N 0.50072 0.39522 0.92589 0.0
H856 H 0.85034 0.75092 0.38078 0.0
H857 H 1.03646 0.93511 0.42536 0.0
H858 H 0.88991 0.83015 0.29701 0.0
H859 H 0.95717 0.88924 0.4877 0.0
H860 H 0.99005 0.8912 0.38102 0.0
H861 H 0.89659 0.79572 0.42406 0.0
C862 C 0.86888 0.7777 0.37156 0.0
C863 C 0.86633 0.78693 0.33535 0.0
C864 C 0.98296 0.89088 0.40445 0.0
C865 C 0.91961 0.83786 0.38458 0.0
C866 C 1.00938 0.91573 0.42973 0.0
C867 C 1.00056 0.91575 0.46014 0.0
C868 C 0.94798 0.86529 0.41022 0.0
C869 C 0.96503 0.89019 0.46454 0.0
C870 C 0.8951 0.80321 0.39619 0.0
C871 C 0.89092 0.82205 0.32473 0.0
N872 N 0.94019 0.86573 0.44008 0.0
N873 N 0.91685 0.84617 0.34927 0.0
H874 H 0.45905 0.56166 0.49856 0.0
H875 H 0.48394 0.65622 0.66388 0.0
H876 H 0.53715 0.5657 0.60026 0.0
H877 H 0.41576 0.66625 0.55945 0.0
H878 H 0.50092 0.62103 0.64112 0.0
H879 H 0.44027 0.59688 0.52009 0.0
C880 C 0.47234 0.5698 0.52538 0.0
C881 C 0.50005 0.56035 0.54733 0.0
C882 C 0.48222 0.63088 0.62306 0.0
C883 C 0.4782 0.60115 0.57257 0.0
C884 C 0.47254 0.65149 0.63608 0.0
C885 C 0.44831 0.66523 0.61391 0.0
C886 C 0.46768 0.62309 0.58726 0.0
C887 C 0.43415 0.65644 0.57817 0.0
C888 C 0.46154 0.59009 0.53772 0.0
C889 C 0.51585 0.57206 0.58196 0.0
N890 N 0.44398 0.63624 0.56617 0.0
N891 N 0.50478 0.59149 0.59328 0.0
H892 H 0.65905 0.05888 0.97247 0.0
H893 H 0.68603 0.20261 0.80649 0.0
H894 H 0.59626 0.11787 0.93261 0.0
H895 H 0.77131 0.17297 0.86961 0.0
H896 H 0.64901 0.16661 0.84892 0.0
H897 H 0.69789 0.09662 0.93196 0.0
C898 C 0.65366 0.07998 0.95542 0.0
C899 C 0.62441 0.08528 0.95582 0.0
C900 C 0.67585 0.16807 0.85343 0.0
C901 C 0.66823 0.128 0.90921 0.0
C902 C 0.69682 0.18833 0.82913 0.0
C903 C 0.73173 0.19074 0.83462 0.0
C904 C 0.68976 0.1498 0.88309 0.0
C905 C 0.74456 0.17193 0.86449 0.0
C906 C 0.6758 0.10146 0.93234 0.0
C907 C 0.61863 0.11298 0.93323 0.0
N908 N 0.72348 0.1521 0.8876 0.0
N909 N 0.64017 0.13313 0.91054 0.0
H910 H 0.10328 0.39516 0.04647 0.0
H911 H 0.23615 0.34562 0.24256 0.0
H912 H 0.12574 0.43915 0.14164 0.0
H913 H 0.19548 0.28665 0.1522 0.0
H914 H 0.20184 0.37988 0.20841 0.0
H915 H 0.13701 0.36051 0.08095 0.0
C916 C 0.11484 0.39857 0.07455 0.0
C917 C 0.1087 0.42299 0.08826 0.0
C918 C 0.19975 0.35964 0.19505 0.0
C919 C 0.15298 0.37847 0.13314 0.0
C920 C 0.22048 0.33884 0.21562 0.0
C921 C 0.22153 0.31022 0.20316 0.0
C922 C 0.17733 0.35487 0.15849 0.0
C923 C 0.19816 0.30673 0.16623 0.0
C924 C 0.13522 0.37753 0.09531 0.0
C925 C 0.12714 0.42244 0.12657 0.0
N926 N 0.17891 0.32742 0.14703 0.0
N927 N 0.14693 0.40222 0.14574 0.0
H928 H 0.65166 0.58748 0.97865 0.0
H929 H 0.65103 0.64587 0.77497 0.0
H930 H 0.55202 0.54495 0.89308 0.0
H931 H 0.74695 0.69882 0.86027 0.0
H932 H 0.61436 0.61031 0.81758 0.0
H933 H 0.68633 0.62842 0.93617 0.0
C934 C 0.63686 0.58657 0.95088 0.0
C935 C 0.59852 0.56221 0.93968 0.0
C936 C 0.64327 0.6299 0.82714 0.0
C937 C 0.63889 0.60989 0.89032 0.0
C938 C 0.66434 0.65042 0.80275 0.0
C939 C 0.70227 0.67557 0.81392 0.0
C940 C 0.66012 0.6339 0.86344 0.0
C941 C 0.71781 0.68006 0.85033 0.0
C942 C 0.6569 0.61028 0.92656 0.0
C943 C 0.58138 0.56297 0.90317 0.0
N944 N 0.69681 0.65917 0.87377 0.0
N945 N 0.60167 0.58619 0.8799 0.0
H946 H 0.6643 0.3016 0.20638 0.0
H947 H 0.7234 0.49531 0.25738 0.0
H948 H 0.76855 0.36416 0.27943 0.0
H949 H 0.61342 0.42356 0.19772 0.0
H950 H 0.73991 0.44674 0.26953 0.0
H951 H 0.64669 0.34856 0.20058 0.0
C952 C 0.6841 0.32606 0.21987 0.0
C953 C 0.71801 0.32962 0.24292 0.0
C954 C 0.71193 0.44152 0.25437 0.0
C955 C 0.69757 0.38207 0.23824 0.0
C956 C 0.70233 0.46905 0.24792 0.0
C957 C 0.66752 0.46404 0.22537 0.0
C958 C 0.68636 0.40898 0.23827 0.0
C959 C 0.64092 0.42916 0.21464 0.0
C960 C 0.67372 0.35234 0.21743 0.0
C961 C 0.74234 0.36102 0.26097 0.0
N962 N 0.65126 0.40325 0.22034 0.0
N963 N 0.73151 0.38601 0.25854 0.0
H964 H 0.99345 0.44061 0.43721 0.0
H965 H 0.78256 0.28454 0.3824 0.0
H966 H 0.90925 0.43154 0.47874 0.0
H967 H 0.85844 0.33156 0.31629 0.0
H968 H 0.83038 0.32884 0.42616 0.0
H969 H 0.94598 0.38998 0.40144 0.0
C970 C 0.96498 0.42771 0.43903 0.0
C971 C 0.95513 0.44043 0.46065 0.0
C972 C 0.83637 0.32914 0.40206 0.0
C973 C 0.90061 0.38244 0.41979 0.0
C974 C 0.8092 0.30393 0.37723 0.0
C975 C 0.81646 0.30461 0.34562 0.0
C976 C 0.87107 0.35435 0.39536 0.0
C977 C 0.85151 0.33016 0.34019 0.0
C978 C 0.93787 0.3989 0.41852 0.0
C979 C 0.91781 0.42266 0.46206 0.0
N980 N 0.87744 0.35382 0.36478 0.0
N981 N 0.89174 0.39453 0.44176 0.0
H982 H 0.63051 0.62561 0.47508 0.0
H983 H 0.69518 0.62481 0.31135 0.0
H984 H 0.58084 0.52961 0.4211 0.0
H985 H 0.71786 0.72249 0.34741 0.0
H986 H 0.65476 0.58936 0.35143 0.0
H987 H 0.66271 0.66096 0.42893 0.0
C988 C 0.62553 0.61205 0.45291 0.0
C989 C 0.602 0.57459 0.45169 0.0
C990 C 0.6684 0.61853 0.35049 0.0
C991 C 0.64074 0.61511 0.39894 0.0
C992 C 0.69176 0.63895 0.32763 0.0
C993 C 0.71042 0.67702 0.32579 0.0
C994 C 0.66374 0.636 0.3724 0.0
C995 C 0.70435 0.69338 0.34767 0.0
C996 C 0.6443 0.63232 0.42662 0.0
C997 C 0.59775 0.55851 0.42273 0.0
N998 N 0.68199 0.67293 0.37007 0.0
N999 N 0.61723 0.5787 0.39786 0.0
H1000 H 0.78945 0.31542 0.85541 0.0
H1001 H 0.90969 0.42677 0.99239 0.0
H1002 H 0.88964 0.32593 0.84294 0.0
H1003 H 0.98463 0.38695 0.99777 0.0
H1004 H 0.86569 0.39059 0.94257 0.0
H1005 H 0.82436 0.34111 0.91247 0.0
C1006 C 0.81898 0.32352 0.86462 0.0
C1007 C 0.83695 0.31929 0.84424 0.0
C1008 C 0.89118 0.38878 0.95516 0.0
C1009 C 0.87736 0.34951 0.90918 0.0
C1010 C 0.91637 0.40959 0.9836 0.0
C1011 C 0.95086 0.41001 0.99878 0.0
C1012 C 0.90063 0.36819 0.94202 0.0
C1013 C 0.95842 0.38761 0.98628 0.0
C1014 C 0.83898 0.33843 0.89713 0.0
C1015 C 0.87496 0.32932 0.85771 0.0
N1016 N 0.93374 0.36799 0.9582 0.0
N1017 N 0.89402 0.34417 0.88937 0.0
H1018 H 0.85034 0.76412 0.16267 0.0
H1019 H 1.00229 0.961 0.10413 0.0
H1020 H 0.87485 0.86117 0.20149 0.0
H1021 H 0.94627 0.86917 0.04221 0.0
H1022 H 0.96199 0.92467 0.14465 0.0
H1023 H 0.89148 0.80136 0.12348 0.0
C1024 C 0.86437 0.7932 0.16312 0.0
C1025 C 0.85862 0.80924 0.18553 0.0
C1026 C 0.95852 0.91252 0.12214 0.0
C1027 C 0.9067 0.85252 0.14058 0.0
C1028 C 0.98153 0.93336 0.09889 0.0
C1029 C 0.97765 0.91847 0.06927 0.0
C1030 C 0.93182 0.87613 0.11634 0.0
C1031 C 0.95041 0.88211 0.06444 0.0
C1032 C 0.8879 0.81456 0.14058 0.0
C1033 C 0.87797 0.84733 0.18466 0.0
N1034 N 0.92894 0.86237 0.0876 0.0
N1035 N 0.90108 0.86747 0.16287 0.0
H1036 H 0.89291 0.09833 0.80806 0.0
H1037 H 0.95975 0.98555 0.89132 0.0
H1038 H 0.82745 0.06012 0.88299 0.0
H1039 H 0.90998 0.97623 0.97187 0.0
H1040 H 0.91297 0.99956 0.84697 0.0
H1041 H 0.90194 0.04538 0.82445 0.0
C1042 C 0.87963 0.07814 0.82742 0.0
C1043 C 0.86067 0.08419 0.84522 0.0
C1044 C 0.91204 0.99436 0.87426 0.0
C1045 C 0.87081 0.02305 0.86452 0.0
C1046 C 0.93852 0.9858 0.89957 0.0
C1047 C 0.93993 0.98183 0.93548 0.0
C1048 C 0.88768 0.99972 0.8854 0.0
C1049 C 0.911 0.98102 0.94458 0.0
C1050 C 0.8845 0.04748 0.8367 0.0
C1051 C 0.84299 0.05682 0.8692 0.0
N1052 N 0.88665 0.99091 0.91983 0.0
N1053 N 0.84937 0.02789 0.87887 0.0
H1054 H 0.79543 0.20572 0.67081 0.0
H1055 H 0.59431 0.0402 0.61642 0.0
H1056 H 0.71481 0.17014 0.72975 0.0
H1057 H 0.64523 0.11837 0.53707 0.0
H1058 H 0.64377 0.08047 0.66221 0.0
H1059 H 0.74576 0.16585 0.62436 0.0
C1060 C 0.7674 0.18937 0.67398 0.0
C1061 C 0.75895 0.1911 0.70384 0.0
C1062 C 0.64386 0.08873 0.6347 0.0
C1063 C 0.70292 0.14564 0.65186 0.0
C1064 C 0.61572 0.06593 0.6087 0.0
C1065 C 0.61566 0.07622 0.57308 0.0
C1066 C 0.67248 0.12144 0.62492 0.0
C1067 C 0.64417 0.10965 0.5643 0.0
C1068 C 0.73921 0.16692 0.64758 0.0
C1069 C 0.72229 0.16962 0.70692 0.0
N1070 N 0.6718 0.131 0.59015 0.0
N1071 N 0.69561 0.14749 0.68135 0.0
H1072 H 0.62448 0.88834 0.44653 0.0
H1073 H 0.63145 0.83122 0.2761 0.0
H1074 H 0.58162 0.92174 0.33914 0.0
H1075 H 0.70079 0.82596 0.38119 0.0
H1076 H 0.5976 0.84771 0.30047 0.0
H1077 H 0.63732 0.84938 0.42404 0.0
C1078 C 0.6172 0.88696 0.41822 0.0
C1079 C 0.60257 0.90863 0.39457 0.0
C1080 C 0.61978 0.84229 0.31824 0.0
C1081 C 0.61721 0.86443 0.3688 0.0
C1082 C 0.63889 0.83268 0.30441 0.0
C1083 C 0.66924 0.82789 0.32671 0.0
C1084 C 0.63115 0.84696 0.35453 0.0
C1085 C 0.67794 0.83016 0.36314 0.0
C1086 C 0.62462 0.86486 0.40544 0.0
C1087 C 0.59368 0.90598 0.35817 0.0
N1088 N 0.65924 0.83999 0.37593 0.0
N1089 N 0.60148 0.88451 0.34635 0.0
H1090 H 0.7724 0.17621 0.4043 0.0
H1091 H 0.83565 0.05174 0.35907 0.0
H1092 H 0.71916 0.118 0.31038 0.0
H1093 H 0.87135 0.08456 0.46472 0.0
H1094 H 0.79181 0.07538 0.34223 0.0
H1095 H 0.80607 0.14076 0.42966 0.0
C1096 C 0.7668 0.15508 0.38962 0.0
C1097 C 0.74329 0.15011 0.35516 0.0
C1098 C 0.80901 0.07725 0.36921 0.0
C1099 C 0.78224 0.11054 0.38326 0.0
C1100 C 0.83413 0.06367 0.37889 0.0
C1101 C 0.85725 0.06592 0.41347 0.0
C1102 C 0.80712 0.09381 0.39404 0.0
C1103 C 0.85449 0.08263 0.43763 0.0
C1104 C 0.78632 0.13519 0.40387 0.0
C1105 C 0.73737 0.12285 0.33694 0.0
N1106 N 0.82999 0.09611 0.42741 0.0
N1107 N 0.75713 0.1045 0.35096 0.0
H1108 H 0.66123 0.21076 0.19557 0.0
H1109 H 0.56749 0.00821 0.14202 0.0
H1110 H 0.62077 0.11696 0.26732 0.0
H1111 H 0.59313 0.10059 0.06625 0.0
H1112 H 0.58672 0.04751 0.18794 0.0
H1113 H 0.63678 0.17127 0.14809 0.0
C1114 C 0.64697 0.18179 0.20129 0.0
C1115 C 0.64314 0.16718 0.23557 0.0
C1116 C 0.58802 0.05928 0.16128 0.0
C1117 C 0.61507 0.12156 0.18109 0.0
C1118 C 0.57703 0.03681 0.13498 0.0
C1119 C 0.57883 0.05109 0.10017 0.0
C1120 C 0.6013 0.0966 0.15303 0.0
C1121 C 0.59131 0.08838 0.09268 0.0
C1122 C 0.63299 0.15923 0.17411 0.0
C1123 C 0.62434 0.12944 0.24134 0.0
N1124 N 0.60229 0.10983 0.11889 0.0
N1125 N 0.61126 0.108 0.21451 0.0
H1126 H 0.73448 0.87315 0.85536 0.0
H1127 H 0.74613 0.95213 0.02246 0.0
H1128 H 0.81736 0.88399 0.95525 0.0
H1129 H 0.65576 0.9288 0.92714 0.0
H1130 H 0.77748 0.93522 0.9953 0.0
H1131 H 0.71009 0.90127 0.87842 0.0
C1132 C 0.74754 0.8814 0.88216 0.0
C1133 C 0.77768 0.87568 0.90356 0.0
C1134 C 0.75093 0.93408 0.98023 0.0
C1135 C 0.75015 0.9083 0.92999 0.0
C1136 C 0.73294 0.9436 0.99577 0.0
C1137 C 0.69804 0.94151 0.97721 0.0
C1138 C 0.73388 0.92231 0.94589 0.0
C1139 C 0.6827 0.93103 0.94241 0.0
C1140 C 0.73374 0.89767 0.89523 0.0
C1141 C 0.79414 0.88788 0.93774 0.0
N1142 N 0.70056 0.92153 0.928 0.0
N1143 N 0.77997 0.90335 0.94998 0.0
H1144 H 1.02843 0.93073 0.64458 0.0
H1145 H 0.82887 0.77962 0.67901 0.0
H1146 H 0.92739 0.89096 0.56016 0.0
H1147 H 0.92588 0.83894 0.76055 0.0
H1148 H 0.86541 0.8135 0.63499 0.0
H1149 H 0.99244 0.89119 0.68717 0.0
C1150 C 0.99875 0.91358 0.63488 0.0
C1151 C 0.98113 0.91452 0.59852 0.0
C1152 C 0.87874 0.81883 0.66259 0.0
C1153 C 0.93932 0.86861 0.64756 0.0
C1154 C 0.85791 0.79925 0.68777 0.0
C1155 C 0.87423 0.80634 0.72366 0.0
C1156 C 0.91629 0.84544 0.6734 0.0
C1157 C 0.91198 0.8325 0.73326 0.0
C1158 C 0.97809 0.89096 0.65931 0.0
C1159 C 0.94235 0.89146 0.58785 0.0
N1160 N 0.93152 0.85093 0.7085 0.0
N1161 N 0.92289 0.86959 0.6121 0.0
H1162 H 0.28324 0.85667 0.89582 0.0
H1163 H 0.14288 0.93875 0.85485 0.0
H1164 H 0.22504 0.87804 0.79009 0.0
H1165 H 0.18364 0.89704 0.95891 0.0
H1166 H 0.17599 0.92083 0.83124 0.0
H1167 H 0.25091 0.87565 0.91952 0.0
C1168 C 0.26389 0.86559 0.87746 0.0
C1169 C 0.25719 0.86575 0.84069 0.0
C1170 C 0.17772 0.91561 0.85926 0.0
C1171 C 0.21953 0.88758 0.86806 0.0
C1172 C 0.15854 0.9257 0.8729 0.0
C1173 C 0.15984 0.91935 0.90921 0.0
C1174 C 0.19897 0.89917 0.88187 0.0
C1175 C 0.18181 0.9031 0.93093 0.0
C1176 C 0.24518 0.87623 0.89113 0.0
C1177 C 0.23109 0.87707 0.81855 0.0
N1178 N 0.20032 0.89365 0.917 0.0
N1179 N 0.21347 0.88761 0.83251 0.0
H1180 H 1.01872 0.41893 0.61558 0.0
H1181 H 0.84636 0.36517 0.68308 0.0
H1182 H 0.96696 0.48742 0.59029 0.0
H1183 H 0.93053 0.33328 0.74343 0.0
H1184 H 0.88794 0.40815 0.64654 0.0
H1185 H 0.98455 0.38469 0.66044 0.0
C1186 C 1.00027 0.42684 0.61962 0.0
C1187 C 0.9954 0.45584 0.59913 0.0
C1188 C 0.89747 0.39209 0.66808 0.0
C1189 C 0.95613 0.4167 0.65001 0.0
C1190 C 0.87373 0.36748 0.68884 0.0
C1191 C 0.88501 0.3456 0.7162 0.0
C1192 C 0.93236 0.39416 0.67423 0.0
C1193 C 0.9208 0.34969 0.72259 0.0
C1194 C 0.98102 0.40747 0.64534 0.0
C1195 C 0.97147 0.46521 0.60559 0.0
N1196 N 0.94307 0.37316 0.70135 0.0
N1197 N 0.95223 0.44531 0.63019 0.0
H1198 H 0.41625 0.02369 0.46217 0.0
H1199 H 0.41312 0.21741 0.35924 0.0
H1200 H 0.51344 0.10796 0.43126 0.0
H1201 H 0.31592 0.11729 0.32906 0.0
H1202 H 0.44787 0.18355 0.39318 0.0
H1203 H 0.38127 0.05699 0.4267 0.0
C1204 C 0.43157 0.04917 0.44858 0.0
C1205 C 0.47067 0.06023 0.45243 0.0
C1206 C 0.41887 0.16798 0.37953 0.0
C1207 C 0.42604 0.10402 0.40756 0.0
C1208 C 0.39777 0.18832 0.359 0.0
C1209 C 0.35879 0.17299 0.33818 0.0
C1210 C 0.40308 0.12892 0.38316 0.0
C1211 C 0.3448 0.13356 0.34251 0.0
C1212 C 0.41032 0.06916 0.42714 0.0
C1213 C 0.48454 0.09525 0.43153 0.0
N1214 N 0.36547 0.11469 0.36343 0.0
N1215 N 0.46374 0.11436 0.4121 0.0
H1216 H 0.58757 0.60877 0.01606 0.0
H1217 H 0.6828 0.65392 0.21642 0.0
H1218 H 0.5316 0.54382 0.09707 0.0
H1219 H 0.70523 0.73659 0.13076 0.0
H1220 H 0.63054 0.61103 0.17401 0.0
H1221 H 0.63345 0.65449 0.05807 0.0
C1222 C 0.58445 0.60467 0.04255 0.0
C1223 C 0.55538 0.57299 0.05299 0.0
C1224 C 0.64677 0.63862 0.16459 0.0
C1225 C 0.60878 0.62435 0.10173 0.0
C1226 C 0.67674 0.66302 0.18869 0.0
C1227 C 0.69839 0.69887 0.17702 0.0
C1228 C 0.63885 0.64998 0.12851 0.0
C1229 C 0.68925 0.70923 0.14085 0.0
C1230 C 0.61076 0.63062 0.06657 0.0
C1231 C 0.55311 0.56839 0.08785 0.0
N1232 N 0.66042 0.68486 0.11786 0.0
N1233 N 0.57987 0.59358 0.11123 0.0
H1234 H 0.23301 0.23823 0.65182 0.0
H1235 H 0.04876 0.05144 0.61623 0.0
H1236 H 0.19413 0.16359 0.73838 0.0
H1237 H 0.12803 0.09018 0.55507 0.0
H1238 H 0.09479 0.09899 0.65695 0.0
H1239 H 0.18749 0.19059 0.61089 0.0
C1240 C 0.21474 0.21192 0.66211 0.0
C1241 C 0.21722 0.20473 0.69842 0.0
C1242 C 0.10198 0.09699 0.63458 0.0
C1243 C 0.16496 0.15074 0.652 0.0
C1244 C 0.0758 0.07003 0.61136 0.0
C1245 C 0.08473 0.06692 0.5824 0.0
C1246 C 0.13687 0.12159 0.62812 0.0
C1247 C 0.12017 0.09162 0.57723 0.0
C1248 C 0.18901 0.18481 0.63886 0.0
C1249 C 0.19312 0.17015 0.71054 0.0
N1250 N 0.14484 0.11821 0.59966 0.0
N1251 N 0.16769 0.14454 0.68734 0.0
H1252 H 0.59858 0.34768 0.36132 0.0
H1253 H 0.61928 0.43737 0.5283 0.0
H1254 H 0.67029 0.34153 0.46477 0.0
H1255 H 0.5402 0.43229 0.42706 0.0
H1256 H 0.64011 0.40469 0.50581 0.0
H1257 H 0.57899 0.38011 0.38484 0.0
C1258 C 0.61024 0.35272 0.38905 0.0
C1259 C 0.63633 0.34099 0.41072 0.0
C1260 C 0.61817 0.41068 0.48849 0.0
C1261 C 0.6138 0.37976 0.43825 0.0
C1262 C 0.60616 0.42948 0.50138 0.0
C1263 C 0.57759 0.4379 0.47986 0.0
C1264 C 0.60185 0.40004 0.45349 0.0
C1265 C 0.56212 0.42664 0.44505 0.0
C1266 C 0.59903 0.37171 0.40251 0.0
C1267 C 0.65056 0.34991 0.44641 0.0
N1268 N 0.57434 0.40862 0.43318 0.0
N1269 N 0.63921 0.36846 0.45883 0.0
H1270 H 0.4882 0.89092 0.08233 0.0
H1271 H 0.31087 0.83547 0.1474 0.0
H1272 H 0.42831 0.95267 0.04894 0.0
H1273 H 0.39738 0.80616 0.20643 0.0
H1274 H 0.347 0.87126 0.10411 0.0
H1275 H 0.44725 0.85111 0.12035 0.0
C1276 C 0.46618 0.89588 0.08267 0.0
C1277 C 0.46183 0.92532 0.06271 0.0
C1278 C 0.35795 0.85696 0.12659 0.0
C1279 C 0.41511 0.87999 0.10617 0.0
C1280 C 0.33743 0.83656 0.15123 0.0
C1281 C 0.35134 0.81805 0.18059 0.0
C1282 C 0.3922 0.85825 0.13116 0.0
C1283 C 0.38583 0.82031 0.18433 0.0
C1284 C 0.44301 0.87328 0.10454 0.0
C1285 C 0.43282 0.93045 0.06419 0.0
N1286 N 0.40504 0.83996 0.15978 0.0
N1287 N 0.41053 0.908 0.0857 0.0
H1288 H 0.95489 0.54314 0.89857 0.0
H1289 H 0.88187 0.69724 0.88815 0.0
H1290 H 0.97438 0.58848 0.99175 0.0
H1291 H 0.84536 0.63783 0.79918 0.0
H1292 H 0.91584 0.66292 0.92297 0.0
H1293 H 0.92027 0.5769 0.86369 0.0
C1294 C 0.95276 0.55986 0.91299 0.0
C1295 C 0.97043 0.56004 0.95113 0.0
C1296 C 0.90073 0.6566 0.89583 0.0
C1297 C 0.92595 0.60428 0.90602 0.0
C1298 C 0.88013 0.67731 0.87464 0.0
C1299 C 0.85776 0.67329 0.83775 0.0
C1300 C 0.90216 0.62891 0.88263 0.0
C1301 C 0.86026 0.64478 0.82619 0.0
C1302 C 0.93177 0.58023 0.89177 0.0
C1303 C 0.96326 0.58466 0.96375 0.0
N1304 N 0.88066 0.62559 0.84711 0.0
N1305 N 0.9433 0.60418 0.94262 0.0
H1306 H 0.42833 0.39321 0.06002 0.0
H1307 H 0.4277 0.3366 0.26389 0.0
H1308 H 0.52579 0.44073 0.1463 0.0
H1309 H 0.33183 0.28352 0.17859 0.0
H1310 H 0.46428 0.37241 0.22132 0.0
H1311 H 0.39354 0.35199 0.10241 0.0
C1312 C 0.44263 0.39512 0.08792 0.0
C1313 C 0.48038 0.42099 0.09933 0.0
C1314 C 0.4354 0.35277 0.21172 0.0
C1315 C 0.4399 0.37299 0.14858 0.0
C1316 C 0.41437 0.33206 0.2361 0.0
C1317 C 0.37646 0.30681 0.22496 0.0
C1318 C 0.41859 0.34881 0.17541 0.0
C1319 C 0.36095 0.30237 0.18852 0.0
C1320 C 0.42253 0.37129 0.11219 0.0
C1321 C 0.4969 0.42154 0.13601 0.0
N1322 N 0.38194 0.32339 0.16508 0.0
N1323 N 0.47658 0.39811 0.15918 0.0
H1324 H 0.34196 0.51059 0.79656 0.0
H1325 H 0.37029 0.7002 0.82789 0.0
H1326 H 0.42137 0.57457 0.88444 0.0
H1327 H 0.32576 0.65958 0.7246 0.0
H1328 H 0.37127 0.64355 0.85417 0.0
H1329 H 0.32017 0.55625 0.77437 0.0
C1330 C 0.3547 0.53426 0.81099 0.0
C1331 C 0.38407 0.53969 0.84161 0.0
C1332 C 0.3607 0.6469 0.82579 0.0
C1333 C 0.35881 0.59052 0.81762 0.0
C1334 C 0.35998 0.67906 0.81088 0.0
C1335 C 0.34889 0.6847 0.77409 0.0
C1336 C 0.35011 0.62049 0.80366 0.0
C1337 C 0.33547 0.65645 0.75311 0.0
C1338 C 0.34221 0.55998 0.79861 0.0
C1339 C 0.39935 0.57014 0.86009 0.0
N1340 N 0.33695 0.6256 0.76818 0.0
N1341 N 0.38661 0.59451 0.84774 0.0
H1342 H 0.18763 0.5801 0.54922 0.0
H1343 H 0.22776 0.72338 0.67316 0.0
H1344 H 0.10444 0.58015 0.58509 0.0
H1345 H 0.31565 0.72287 0.64618 0.0
H1346 H 0.18184 0.67596 0.63365 0.0
H1347 H 0.23451 0.63612 0.5783 0.0
C1348 C 0.17923 0.59204 0.56305 0.0
C1349 C 0.14216 0.57553 0.56485 0.0
C1350 C 0.2111 0.68636 0.63587 0.0
C1351 C 0.19535 0.63944 0.59784 0.0
C1352 C 0.23737 0.71362 0.65834 0.0
C1353 C 0.27554 0.72709 0.66282 0.0
C1354 C 0.22296 0.67181 0.61803 0.0
C1355 C 0.28648 0.71351 0.64304 0.0
C1356 C 0.20593 0.624 0.57953 0.0
C1357 C 0.13264 0.59208 0.58289 0.0
N1358 N 0.26025 0.68616 0.62175 0.0
N1359 N 0.15905 0.62299 0.59874 0.0
H1360 H 0.35485 0.26786 0.67824 0.0
H1361 H 0.50285 0.46392 0.61135 0.0
H1362 H 0.39109 0.36567 0.72359 0.0
H1363 H 0.43913 0.37101 0.55011 0.0
H1364 H 0.471 0.42726 0.65839 0.0
H1365 H 0.39348 0.30384 0.63671 0.0
C1366 C 0.37103 0.29683 0.67972 0.0
C1367 C 0.36925 0.31348 0.70464 0.0
C1368 C 0.46448 0.41476 0.63488 0.0
C1369 C 0.4144 0.35534 0.65685 0.0
C1370 C 0.4831 0.43562 0.60821 0.0
C1371 C 0.47421 0.42049 0.57679 0.0
C1372 C 0.43702 0.37832 0.63039 0.0
C1373 C 0.44731 0.38384 0.57392 0.0
C1374 C 0.39315 0.31749 0.65584 0.0
C1375 C 0.39113 0.3514 0.70486 0.0
N1376 N 0.42993 0.36422 0.60009 0.0
N1377 N 0.41265 0.37086 0.68157 0.0
H1378 H 0.196 0.68352 0.18675 0.0
H1379 H 0.09048 0.60115 0.03008 0.0
H1380 H 0.28715 0.67984 0.16955 0.0
H1381 H 0.16947 0.56149 0.053 0.0
H1382 H 0.13229 0.64368 0.07562 0.0
H1383 H 0.15452 0.65007 0.13454 0.0
C1384 C 0.2073 0.67596 0.17166 0.0
C1385 C 0.24491 0.6843 0.18235 0.0
C1386 C 0.14049 0.62557 0.07102 0.0
C1387 C 0.19806 0.64705 0.12195 0.0
C1388 C 0.11682 0.6016 0.04477 0.0
C1389 C 0.12638 0.57746 0.03847 0.0
C1390 C 0.17388 0.62516 0.09124 0.0
C1391 C 0.1611 0.57959 0.05736 0.0
C1392 C 0.18374 0.65727 0.14155 0.0
C1393 C 0.25823 0.67384 0.16208 0.0
N1394 N 0.18357 0.60287 0.08324 0.0
N1395 N 0.23472 0.65546 0.13294 0.0
H1396 H 0.85364 0.4489 0.64428 0.0
H1397 H 0.80369 0.56131 0.65607 0.0
H1398 H 0.74554 0.4126 0.56907 0.0
H1399 H 0.74458 0.5553 0.54556 0.0
H1400 H 0.83818 0.53579 0.64614 0.0
H1401 H 0.86604 0.51141 0.62588 0.0
C1402 C 0.83295 0.45406 0.62314 0.0
C1403 C 0.79748 0.42551 0.60982 0.0
C1404 C 0.81904 0.54158 0.62354 0.0
C1405 C 0.81147 0.49648 0.58896 0.0
C1406 C 0.79908 0.55594 0.6294 0.0
C1407 C 0.77024 0.55898 0.60195 0.0
C1408 C 0.80873 0.52877 0.59037 0.0
C1409 C 0.76596 0.55247 0.56773 0.0
C1410 C 0.84012 0.48973 0.61266 0.0
C1411 C 0.77268 0.43366 0.58115 0.0
N1412 N 0.78386 0.53621 0.56315 0.0
N1413 N 0.77969 0.46848 0.5724 0.0
H1414 H 0.95851 0.68566 0.24496 0.0
H1415 H 0.98764 0.62218 0.09281 0.0
H1416 H 0.87868 0.65358 0.144 0.0
H1417 H 0.06019 0.63657 0.19891 0.0
H1418 H 0.95615 0.64845 0.10706 0.0
H1419 H 1.00339 0.68131 0.22461 0.0
C1420 C 0.95068 0.67825 0.21833 0.0
C1421 C 0.91473 0.66941 0.19625 0.0
C1422 C 0.97931 0.64636 0.12711 0.0
C1423 C 0.96565 0.66437 0.17292 0.0
C1424 C 0.99765 0.63168 0.11889 0.0
C1425 C 1.02636 0.62667 0.14487 0.0
C1426 C 0.98943 0.65583 0.16165 0.0
C1427 C 1.03763 0.63916 0.17832 0.0
C1428 C 0.97621 0.67567 0.20679 0.0
C1429 C 0.90589 0.6599 0.16206 0.0
N1430 N 1.01876 0.6527 0.18594 0.0
N1431 N 0.93108 0.65736 0.15153 0.0
H1432 H 0.9718 0.63003 0.59891 0.0
H1433 H 0.79263 0.65489 0.56251 0.0
H1434 H 0.88708 0.60804 0.49961 0.0
H1435 H 0.86139 0.6459 0.66693 0.0
H1436 H 0.82899 0.64219 0.53754 0.0
H1437 H 0.93345 0.6401 0.62327 0.0
C1438 C 0.94513 0.62752 0.58223 0.0
C1439 C 0.93261 0.61859 0.54718 0.0
C1440 C 0.83598 0.64291 0.56591 0.0
C1441 C 0.88865 0.62997 0.57474 0.0
C1442 C 0.81543 0.65032 0.5801 0.0
C1443 C 0.8239 0.65108 0.6168 0.0
C1444 C 0.86554 0.63695 0.5886 0.0
C1445 C 0.85365 0.64501 0.63852 0.0
C1446 C 0.92317 0.63301 0.59616 0.0
C1447 C 0.8976 0.61494 0.52679 0.0
N1448 N 0.87349 0.63832 0.62407 0.0
N1449 N 0.87684 0.62093 0.54081 0.0
H1450 H 0.27797 0.45291 0.38043 0.0
H1451 H 0.24347 0.57782 0.39684 0.0
H1452 H 0.34396 0.46108 0.48883 0.0
H1453 H 0.35819 0.61266 0.45687 0.0
H1454 H 0.22976 0.51524 0.4171 0.0
H1455 H 0.2517 0.48634 0.39169 0.0
C1456 C 0.28573 0.46044 0.40701 0.0
C1457 C 0.31406 0.45531 0.43337 0.0
C1458 C 0.25757 0.53682 0.42672 0.0
C1459 C 0.28516 0.49459 0.44625 0.0
C1460 C 0.26559 0.57254 0.41502 0.0
C1461 C 0.30269 0.60041 0.4231 0.0
C1462 C 0.28681 0.52932 0.44698 0.0
C1463 C 0.32949 0.59217 0.44865 0.0
C1464 C 0.27051 0.47934 0.41361 0.0
C1465 C 0.32269 0.46509 0.4675 0.0
N1466 N 0.32123 0.55721 0.45891 0.0
N1467 N 0.30958 0.48573 0.47258 0.0
H1468 H 0.12438 0.30786 0.78669 0.0
H1469 H 0.09518 0.36531 0.94291 0.0
H1470 H 0.2044 0.33794 0.88792 0.0
H1471 H 1.02157 0.35194 0.83728 0.0
H1472 H 0.12689 0.34037 0.92701 0.0
H1473 H 0.07928 0.3104 0.80838 0.0
C1474 C 0.13221 0.31448 0.81364 0.0
C1475 C 0.16827 0.32329 0.83543 0.0
C1476 C 0.10346 0.34239 0.90741 0.0
C1477 C 0.1171 0.32622 0.8603 0.0
C1478 C 0.08499 0.35629 0.91658 0.0
C1479 C 0.05593 0.36126 0.89122 0.0
C1480 C 0.09314 0.33368 0.87253 0.0
C1481 C 0.04442 0.34941 0.85741 0.0
C1482 C 0.10656 0.31601 0.82595 0.0
C1483 C 0.17711 0.33172 0.87007 0.0
N1484 N 0.06345 0.33666 0.84886 0.0
N1485 N 0.15179 0.33325 0.88135 0.0
H1486 H 0.23805 0.36592 0.36241 0.0
H1487 H 0.20889 0.40775 0.52847 0.0
H1488 H 0.29099 0.34259 0.4699 0.0
H1489 H 0.12705 0.38574 0.42736 0.0
H1490 H 0.24731 0.39567 0.50569 0.0
H1491 H 0.20423 0.38426 0.38459 0.0
C1492 C 0.24272 0.36498 0.39071 0.0
C1493 C 0.26722 0.35281 0.41448 0.0
C1494 C 0.22091 0.3935 0.48861 0.0
C1495 C 0.22912 0.37394 0.43988 0.0
C1496 C 0.19919 0.40055 0.50145 0.0
C1497 C 0.16468 0.39724 0.4798 0.0
C1498 C 0.20808 0.38354 0.45384 0.0
C1499 C 0.15323 0.38792 0.44501 0.0
C1500 C 0.2233 0.37517 0.4033 0.0
C1501 C 0.2721 0.35166 0.45084 0.0
N1502 N 0.17492 0.38138 0.43307 0.0
N1503 N 0.25334 0.36238 0.46254 0.0
loop_
_geom_bond_atom_site_label_1
_geom_bond_atom_site_label_2
_geom_bond_distance
_geom_bond_site_symmetry_2
_ccdc_geom_bond_type
Ho0 C3 2.807 . S
Ho0 O20 2.322 1_656 S
Ho0 O22 2.378 . S
Ho0 O23 2.524 1_655 S
Ho0 O24 2.381 . S
Ho0 O25 2.669 1_556 S
Ho0 O27 2.346 . S
Ho0 O31 2.305 1_665 S
Ho1 C12 2.815 . S
Ho1 O21 2.346 . S
Ho1 O25 2.305 1_445 S
Ho1 O26 2.322 1_454 S
Ho1 O28 2.378 . S
Ho1 O29 2.524 1_455 S
Ho1 O30 2.381 . S
Ho1 O31 2.669 1_554 S
C2 O20 1.259 . S
C2 O21 1.268 1_565 S
C3 Ho0 2.807 . S
C3 C4 1.492 1_655 S
C3 O22 1.211 . S
C3 O23 1.289 1_655 S
C4 C3 1.492 1_455 S
C4 C5 1.348 . S
C4 C9 1.413 1_455 S
C5 C4 1.348 . S
C5 C6 1.442 . S
C5 H32 0.930 . S
C6 C5 1.442 . S
C6 C7 1.381 . S
C6 H33 0.931 . S
C7 C6 1.381 . S
C7 C8 1.321 1_455 S
C8 C7 1.321 1_655 S
C8 C9 1.403 . S
C8 H34 0.934 . S
C9 C4 1.413 1_655 S
C9 C8 1.403 . S
C9 H35 0.930 . S
C10 O24 1.275 1_554 S
C10 O25 1.256 . S
C11 O26 1.259 . S
C11 O27 1.268 1_545 S
C12 Ho1 2.815 . S
C12 C13 1.484 1_455 S
C12 O28 1.220 . S
C12 O29 1.289 1_455 S
C13 C12 1.484 1_655 S
C13 C14 1.348 . S
C13 C18 1.413 1_655 S
C14 C13 1.348 . S
C14 C15 1.442 . S
C14 H36 0.930 . S
C15 C14 1.442 . S
C15 C16 1.381 . S
C15 H37 0.931 . S
C16 C15 1.381 . S
C16 C17 1.321 1_655 S
C17 C16 1.321 1_455 S
C17 C18 1.403 . S
C17 H38 0.934 . S
C18 C13 1.413 1_455 S
C18 C17 1.403 . S
C18 H39 0.930 . S
C19 O30 1.275 1_556 S
C19 O31 1.256 . S
O20 Ho0 2.322 1_454 S
O20 C2 1.259 . S
O21 Ho1 2.346 . S
O21 C2 1.268 1_545 S
O22 Ho0 2.378 . S
O22 C3 1.211 . S
O23 Ho0 2.524 1_455 S
O23 C3 1.289 1_455 S
O24 Ho0 2.381 . S
O24 C10 1.275 1_556 S
O25 Ho0 2.669 1_554 S
O25 Ho1 2.305 1_665 S
O25 C10 1.256 . S
O26 Ho1 2.322 1_656 S
O26 C11 1.259 . S
O27 Ho0 2.346 . S
O27 C11 1.268 1_565 S
O28 Ho1 2.378 . S
O28 C12 1.220 . S
O29 Ho1 2.524 1_655 S
O29 C12 1.289 1_655 S
O30 Ho1 2.381 . S
O30 C19 1.275 1_554 S
O31 Ho0 2.305 1_445 S
O31 Ho1 2.669 1_556 S
O31 C19 1.256 . S
H32 C5 0.930 . S
H33 C6 0.931 . S
H34 C8 0.934 . S
H35 C9 0.930 . S
H36 C14 0.930 . S
H37 C15 0.931 . S
H38 C17 0.934 . S
H39 C18 0.930 . S
Ho40 C43 2.811 . S
Ho40 O60 2.322 . S
Ho40 O62 2.378 . S
Ho40 O63 2.524 . S
Ho40 O64 2.381 . S
Ho40 O65 2.669 . S
Ho40 O67 2.346 . S
Ho40 O71 2.305 . S
Ho41 C52 2.811 . S
Ho41 O61 2.346 . S
Ho41 O65 2.305 . S
Ho41 O66 2.322 . S
Ho41 O68 2.378 . S
Ho41 O69 2.524 . S
Ho41 O70 2.381 . S
Ho41 O71 2.669 . S
C42 O60 1.259 . S
C42 O61 1.268 . S
C43 Ho40 2.811 . S
C43 C44 1.488 . S
C43 O62 1.215 . S
C43 O63 1.289 . S
C44 C43 1.488 . S
C44 C45 1.348 . S
C44 C49 1.413 . S
C45 C44 1.348 . S
C45 C46 1.442 . S
C45 H72 0.930 . S
C46 C45 1.442 . S
C46 C47 1.381 . S
C46 H73 0.931 . S
C47 C46 1.381 . S
C47 C48 1.321 . S
C48 C47 1.321 . S
C48 C49 1.403 . S
C48 H74 0.934 . S
C49 C44 1.413 . S
C49 C48 1.403 . S
C49 H75 0.930 . S
C50 O64 1.275 . S
C50 O65 1.256 . S
C51 O66 1.259 . S
C51 O67 1.268 . S
C52 Ho41 2.811 . S
C52 C53 1.488 . S
C52 O68 1.215 . S
C52 O69 1.289 . S
C53 C52 1.488 . S
C53 C54 1.348 . S
C53 C58 1.413 . S
C54 C53 1.348 . S
C54 C55 1.442 . S
C54 H76 0.930 . S
C55 C54 1.442 . S
C55 C56 1.381 . S
C55 H77 0.931 . S
C56 C55 1.381 . S
C56 C57 1.321 . S
C57 C56 1.321 . S
C57 C58 1.403 . S
C57 H78 0.934 . S
C58 C53 1.413 . S
C58 C57 1.403 . S
C58 H79 0.930 . S
C59 O70 1.275 . S
C59 O71 1.256 . S
O60 Ho40 2.322 . S
O60 C42 1.259 . S
O61 Ho41 2.346 . S
O61 C42 1.268 . S
O62 Ho40 2.378 . S
O62 C43 1.215 . S
O63 Ho40 2.524 . S
O63 C43 1.289 . S
O64 Ho40 2.381 . S
O64 C50 1.275 . S
O65 Ho40 2.669 . S
O65 Ho41 2.305 . S
O65 C50 1.256 . S
O66 Ho41 2.322 . S
O66 C51 1.259 . S
O67 Ho40 2.346 . S
O67 C51 1.268 . S
O68 Ho41 2.378 . S
O68 C52 1.215 . S
O69 Ho41 2.524 . S
O69 C52 1.289 . S
O70 Ho41 2.381 . S
O70 C59 1.275 . S
O71 Ho40 2.305 . S
O71 Ho41 2.669 . S
O71 C59 1.256 . S
H72 C45 0.930 . S
H73 C46 0.931 . S
H74 C48 0.934 . S
H75 C49 0.930 . S
H76 C54 0.930 . S
H77 C55 0.931 . S
H78 C57 0.934 . S
H79 C58 0.930 . S
Ho80 C83 2.811 1_565 S
Ho80 O100 2.322 1_565 S
Ho80 O102 2.378 . S
Ho80 O103 2.524 1_565 S
Ho80 O104 2.381 . S
Ho80 O105 2.669 . S
Ho80 O107 2.346 . S
Ho80 O111 2.305 1_565 S
Ho81 C92 2.811 1_545 S
Ho81 O101 2.346 . S
Ho81 O105 2.305 1_545 S
Ho81 O106 2.322 1_545 S
Ho81 O108 2.378 . S
Ho81 O109 2.524 1_545 S
Ho81 O110 2.381 . S
Ho81 O111 2.669 . S
C82 O100 1.259 . S
C82 O101 1.268 . S
C83 Ho80 2.811 1_545 S
C83 C84 1.488 . S
C83 O102 1.215 1_545 S
C83 O103 1.289 . S
C84 C83 1.488 . S
C84 C85 1.348 . S
C84 C89 1.413 1_545 S
C85 C84 1.348 . S
C85 C86 1.442 . S
C85 H112 0.930 . S
C86 C85 1.442 . S
C86 C87 1.381 . S
C86 H113 0.931 . S
C87 C86 1.381 . S
C87 C88 1.321 . S
C88 C87 1.321 . S
C88 C89 1.403 1_545 S
C88 H114 0.934 1_545 S
C89 C84 1.413 1_565 S
C89 C88 1.403 1_565 S
C89 H115 0.930 . S
C90 O104 1.275 . S
C90 O105 1.256 . S
C91 O106 1.259 . S
C91 O107 1.268 . S
C92 Ho81 2.811 1_565 S
C92 C93 1.488 . S
C92 O108 1.215 1_565 S
C92 O109 1.289 . S
C93 C92 1.488 . S
C93 C94 1.348 . S
C93 C98 1.413 1_565 S
C94 C93 1.348 . S
C94 C95 1.442 . S
C94 H116 0.930 . S
C95 C94 1.442 . S
C95 C96 1.381 . S
C95 H117 0.931 . S
C96 C95 1.381 . S
C96 C97 1.321 . S
C97 C96 1.321 . S
C97 C98 1.403 1_565 S
C97 H118 0.934 1_565 S
C98 C93 1.413 1_545 S
C98 C97 1.403 1_545 S
C98 H119 0.930 . S
C99 O110 1.275 . S
C99 O111 1.256 . S
O100 Ho80 2.322 1_545 S
O100 C82 1.259 . S
O101 Ho81 2.346 . S
O101 C82 1.268 . S
O102 Ho80 2.378 . S
O102 C83 1.215 1_565 S
O103 Ho80 2.524 1_545 S
O103 C83 1.289 . S
O104 Ho80 2.381 . S
O104 C90 1.275 . S
O105 Ho80 2.669 . S
O105 Ho81 2.305 1_565 S
O105 C90 1.256 . S
O106 Ho81 2.322 1_565 S
O106 C91 1.259 . S
O107 Ho80 2.346 . S
O107 C91 1.268 . S
O108 Ho81 2.378 . S
O108 C92 1.215 1_545 S
O109 Ho81 2.524 1_565 S
O109 C92 1.289 . S
O110 Ho81 2.381 . S
O110 C99 1.275 . S
O111 Ho80 2.305 1_545 S
O111 Ho81 2.669 . S
O111 C99 1.256 . S
H112 C85 0.930 . S
H113 C86 0.931 . S
H114 C88 0.934 1_565 S
H115 C89 0.930 . S
H116 C94 0.930 . S
H117 C95 0.931 . S
H118 C97 0.934 1_545 S
H119 C98 0.930 . S
Ho120 C123 2.811 . S
Ho120 O140 2.322 . S
Ho120 O142 2.378 . S
Ho120 O143 2.524 . S
Ho120 O144 2.381 . S
Ho120 O145 2.669 . S
Ho120 O147 2.346 . S
Ho120 O151 2.305 . S
Ho121 C132 2.811 . S
Ho121 O141 2.346 . S
Ho121 O145 2.305 . S
Ho121 O146 2.322 . S
Ho121 O148 2.378 . S
Ho121 O149 2.524 . S
Ho121 O150 2.381 . S
Ho121 O151 2.669 . S
C122 O140 1.259 . S
C122 O141 1.268 . S
C123 Ho120 2.811 . S
C123 C124 1.488 . S
C123 O142 1.215 . S
C123 O143 1.289 . S
C124 C123 1.488 . S
C124 C125 1.348 . S
C124 C129 1.413 . S
C125 C124 1.348 . S
C125 C126 1.442 . S
C125 H152 0.930 . S
C126 C125 1.442 . S
C126 C127 1.381 . S
C126 H153 0.931 . S
C127 C126 1.381 . S
C127 C128 1.321 . S
C128 C127 1.321 . S
C128 C129 1.403 . S
C128 H154 0.934 . S
C129 C124 1.413 . S
C129 C128 1.403 . S
C129 H155 0.930 . S
C130 O144 1.275 . S
C130 O145 1.256 . S
C131 O146 1.259 . S
C131 O147 1.268 . S
C132 Ho121 2.811 . S
C132 C133 1.488 . S
C132 O148 1.215 . S
C132 O149 1.289 . S
C133 C132 1.488 . S
C133 C134 1.348 . S
C133 C138 1.413 . S
C134 C133 1.348 . S
C134 C135 1.442 . S
C134 H156 0.930 . S
C135 C134 1.442 . S
C135 C136 1.381 . S
C135 H157 0.931 . S
C136 C135 1.381 . S
C136 C137 1.321 . S
C137 C136 1.321 . S
C137 C138 1.403 . S
C137 H158 0.934 . S
C138 C133 1.413 . S
C138 C137 1.403 . S
C138 H159 0.930 . S
C139 O150 1.275 . S
C139 O151 1.256 . S
O140 Ho120 2.322 . S
O140 C122 1.259 . S
O141 Ho121 2.346 . S
O141 C122 1.268 . S
O142 Ho120 2.378 . S
O142 C123 1.215 . S
O143 Ho120 2.524 . S
O143 C123 1.289 . S
O144 Ho120 2.381 . S
O144 C130 1.275 . S
O145 Ho120 2.669 . S
O145 Ho121 2.305 . S
O145 C130 1.256 . S
O146 Ho121 2.322 . S
O146 C131 1.259 . S
O147 Ho120 2.346 . S
O147 C131 1.268 . S
O148 Ho121 2.378 . S
O148 C132 1.215 . S
O149 Ho121 2.524 . S
O149 C132 1.289 . S
O150 Ho121 2.381 . S
O150 C139 1.275 . S
O151 Ho120 2.305 . S
O151 Ho121 2.669 . S
O151 C139 1.256 . S
H152 C125 0.930 . S
H153 C126 0.931 . S
H154 C128 0.934 . S
H155 C129 0.930 . S
H156 C134 0.930 . S
H157 C135 0.931 . S
H158 C137 0.934 . S
H159 C138 0.930 . S
Ho160 C163 2.811 . S
Ho160 O180 2.322 1_455 S
Ho160 O182 2.378 . S
Ho160 O183 2.524 . S
Ho160 O184 2.381 1_455 S
Ho160 O185 2.669 1_455 S
Ho160 O187 2.346 1_565 S
Ho160 O191 2.305 1_565 S
Ho161 C172 2.811 . S
Ho161 O181 2.346 1_545 S
Ho161 O185 2.305 1_545 S
Ho161 O186 2.322 1_655 S
Ho161 O188 2.378 . S
Ho161 O189 2.524 . S
Ho161 O190 2.381 1_655 S
Ho161 O191 2.669 1_655 S
C162 O180 1.259 . S
C162 O181 1.268 . S
C163 Ho160 2.811 . S
C163 C164 1.488 . S
C163 O182 1.215 . S
C163 O183 1.289 . S
C164 C163 1.488 . S
C164 C165 1.348 . S
C164 C169 1.413 . S
C165 C164 1.348 . S
C165 C166 1.442 . S
C165 H192 0.930 . S
C166 C165 1.442 . S
C166 C167 1.381 . S
C166 H193 0.931 . S
C167 C166 1.381 . S
C167 C168 1.321 . S
C168 C167 1.321 . S
C168 C169 1.403 . S
C168 H194 0.934 . S
C169 C164 1.413 . S
C169 C168 1.403 . S
C169 H195 0.930 . S
C170 O184 1.275 . S
C170 O185 1.256 . S
C171 O186 1.259 . S
C171 O187 1.268 . S
C172 Ho161 2.811 . S
C172 C173 1.488 . S
C172 O188 1.215 . S
C172 O189 1.289 . S
C173 C172 1.488 . S
C173 C174 1.348 . S
C173 C178 1.413 . S
C174 C173 1.348 . S
C174 C175 1.442 . S
C174 H196 0.930 . S
C175 C174 1.442 . S
C175 C176 1.381 . S
C175 H197 0.931 . S
C176 C175 1.381 . S
C176 C177 1.321 . S
C177 C176 1.321 . S
C177 C178 1.403 . S
C177 H198 0.934 . S
C178 C173 1.413 . S
C178 C177 1.403 . S
C178 H199 0.930 . S
C179 O190 1.275 . S
C179 O191 1.256 . S
O180 Ho160 2.322 1_655 S
O180 C162 1.259 . S
O181 Ho161 2.346 1_565 S
O181 C162 1.268 . S
O182 Ho160 2.378 . S
O182 C163 1.215 . S
O183 Ho160 2.524 . S
O183 C163 1.289 . S
O184 Ho160 2.381 1_655 S
O184 C170 1.275 . S
O185 Ho160 2.669 1_655 S
O185 Ho161 2.305 1_565 S
O185 C170 1.256 . S
O186 Ho161 2.322 1_455 S
O186 C171 1.259 . S
O187 Ho160 2.346 1_545 S
O187 C171 1.268 . S
O188 Ho161 2.378 . S
O188 C172 1.215 . S
O189 Ho161 2.524 . S
O189 C172 1.289 . S
O190 Ho161 2.381 1_455 S
O190 C179 1.275 . S
O191 Ho160 2.305 1_545 S
O191 Ho161 2.669 1_455 S
O191 C179 1.256 . S
H192 C165 0.930 . S
H193 C166 0.931 . S
H194 C168 0.934 . S
H195 C169 0.930 . S
H196 C174 0.930 . S
H197 C175 0.931 . S
H198 C177 0.934 . S
H199 C178 0.930 . S
Ho200 C203 2.811 . S
Ho200 O220 2.322 . S
Ho200 O222 2.378 . S
Ho200 O223 2.524 . S
Ho200 O224 2.381 . S
Ho200 O225 2.669 . S
Ho200 O227 2.346 . S
Ho200 O231 2.305 . S
Ho201 C212 2.811 . S
Ho201 O221 2.346 . S
Ho201 O225 2.305 . S
Ho201 O226 2.322 . S
Ho201 O228 2.378 . S
Ho201 O229 2.524 . S
Ho201 O230 2.381 . S
Ho201 O231 2.669 . S
C202 O220 1.259 . S
C202 O221 1.268 . S
C203 Ho200 2.811 . S
C203 C204 1.488 . S
C203 O222 1.215 . S
C203 O223 1.289 . S
C204 C203 1.488 . S
C204 C205 1.348 . S
C204 C209 1.413 . S
C205 C204 1.348 . S
C205 C206 1.442 . S
C205 H232 0.930 . S
C206 C205 1.442 . S
C206 C207 1.381 . S
C206 H233 0.931 . S
C207 C206 1.381 . S
C207 C208 1.321 . S
C208 C207 1.321 . S
C208 C209 1.403 . S
C208 H234 0.934 . S
C209 C204 1.413 . S
C209 C208 1.403 . S
C209 H235 0.930 . S
C210 O224 1.275 . S
C210 O225 1.256 . S
C211 O226 1.259 . S
C211 O227 1.268 . S
C212 Ho201 2.811 . S
C212 C213 1.488 . S
C212 O228 1.215 . S
C212 O229 1.289 . S
C213 C212 1.488 . S
C213 C214 1.348 . S
C213 C218 1.413 . S
C214 C213 1.348 . S
C214 C215 1.442 . S
C214 H236 0.930 . S
C215 C214 1.442 . S
C215 C216 1.381 . S
C215 H237 0.931 . S
C216 C215 1.381 . S
C216 C217 1.321 . S
C217 C216 1.321 . S
C217 C218 1.403 . S
C217 H238 0.934 . S
C218 C213 1.413 . S
C218 C217 1.403 . S
C218 H239 0.930 . S
C219 O230 1.275 . S
C219 O231 1.256 . S
O220 Ho200 2.322 . S
O220 C202 1.259 . S
O221 Ho201 2.346 . S
O221 C202 1.268 . S
O222 Ho200 2.378 . S
O222 C203 1.215 . S
O223 Ho200 2.524 . S
O223 C203 1.289 . S
O224 Ho200 2.381 . S
O224 C210 1.275 . S
O225 Ho200 2.669 . S
O225 Ho201 2.305 . S
O225 C210 1.256 . S
O226 Ho201 2.322 . S
O226 C211 1.259 . S
O227 Ho200 2.346 . S
O227 C211 1.268 . S
O228 Ho201 2.378 . S
O228 C212 1.215 . S
O229 Ho201 2.524 . S
O229 C212 1.289 . S
O230 Ho201 2.381 . S
O230 C219 1.275 . S
O231 Ho200 2.305 . S
O231 Ho201 2.669 . S
O231 C219 1.256 . S
H232 C205 0.930 . S
H233 C206 0.931 . S
H234 C208 0.934 . S
H235 C209 0.930 . S
H236 C214 0.930 . S
H237 C215 0.931 . S
H238 C217 0.934 . S
H239 C218 0.930 . S
Ho240 C243 2.811 1_554 S
Ho240 O260 2.322 1_564 S
Ho240 O262 2.378 . S
Ho240 O263 2.524 1_554 S
Ho240 O264 2.381 1_565 S
Ho240 O265 2.669 1_565 S
Ho240 O267 2.346 . S
Ho240 O271 2.305 1_554 S
Ho241 C252 2.811 1_556 S
Ho241 O261 2.346 . S
Ho241 O265 2.305 1_556 S
Ho241 O266 2.322 1_546 S
Ho241 O268 2.378 . S
Ho241 O269 2.524 1_556 S
Ho241 O270 2.381 1_545 S
Ho241 O271 2.669 1_545 S
C242 O260 1.259 . S
C242 O261 1.268 . S
C243 Ho240 2.811 1_556 S
C243 C244 1.488 . S
C243 O262 1.215 1_556 S
C243 O263 1.289 . S
C244 C243 1.488 . S
C244 C245 1.348 . S
C244 C249 1.413 . S
C245 C244 1.348 . S
C245 C246 1.442 . S
C245 H272 0.930 . S
C246 C245 1.442 . S
C246 C247 1.381 . S
C246 H273 0.931 . S
C247 C246 1.381 . S
C247 C248 1.321 . S
C248 C247 1.321 . S
C248 C249 1.403 . S
C248 H274 0.934 1_556 S
C249 C244 1.413 . S
C249 C248 1.403 . S
C249 H275 0.930 1_556 S
C250 O264 1.275 . S
C250 O265 1.256 . S
C251 O266 1.259 . S
C251 O267 1.268 . S
C252 Ho241 2.811 1_554 S
C252 C253 1.488 . S
C252 O268 1.215 1_554 S
C252 O269 1.289 . S
C253 C252 1.488 . S
C253 C254 1.348 . S
C253 C258 1.413 . S
C254 C253 1.348 . S
C254 C255 1.442 . S
C254 H276 0.930 . S
C255 C254 1.442 . S
C255 C256 1.381 . S
C255 H277 0.931 . S
C256 C255 1.381 . S
C256 C257 1.321 . S
C257 C256 1.321 . S
C257 C258 1.403 . S
C257 H278 0.934 1_554 S
C258 C253 1.413 . S
C258 C257 1.403 . S
C258 H279 0.930 1_554 S
C259 O270 1.275 . S
C259 O271 1.256 . S
O260 Ho240 2.322 1_546 S
O260 C242 1.259 . S
O261 Ho241 2.346 . S
O261 C242 1.268 . S
O262 Ho240 2.378 . S
O262 C243 1.215 1_554 S
O263 Ho240 2.524 1_556 S
O263 C243 1.289 . S
O264 Ho240 2.381 1_545 S
O264 C250 1.275 . S
O265 Ho240 2.669 1_545 S
O265 Ho241 2.305 1_554 S
O265 C250 1.256 . S
O266 Ho241 2.322 1_564 S
O266 C251 1.259 . S
O267 Ho240 2.346 . S
O267 C251 1.268 . S
O268 Ho241 2.378 . S
O268 C252 1.215 1_556 S
O269 Ho241 2.524 1_554 S
O269 C252 1.289 . S
O270 Ho241 2.381 1_565 S
O270 C259 1.275 . S
O271 Ho240 2.305 1_556 S
O271 Ho241 2.669 1_565 S
O271 C259 1.256 . S
H272 C245 0.930 . S
H273 C246 0.931 . S
H274 C248 0.934 1_554 S
H275 C249 0.930 1_554 S
H276 C254 0.930 . S
H277 C255 0.931 . S
H278 C257 0.934 1_556 S
H279 C258 0.930 1_556 S
Ho280 C283 2.811 . S
Ho280 O300 2.322 . S
Ho280 O302 2.378 . S
Ho280 O303 2.524 . S
Ho280 O304 2.381 . S
Ho280 O305 2.669 . S
Ho280 O307 2.346 . S
Ho280 O311 2.305 . S
Ho281 C292 2.811 . S
Ho281 O301 2.346 . S
Ho281 O305 2.305 . S
Ho281 O306 2.322 . S
Ho281 O308 2.378 . S
Ho281 O309 2.524 . S
Ho281 O310 2.381 . S
Ho281 O311 2.669 . S
C282 O300 1.259 . S
C282 O301 1.268 . S
C283 Ho280 2.811 . S
C283 C284 1.488 . S
C283 O302 1.215 . S
C283 O303 1.289 . S
C284 C283 1.488 . S
C284 C285 1.348 . S
C284 C289 1.413 . S
C285 C284 1.348 . S
C285 C286 1.442 . S
C285 H312 0.930 . S
C286 C285 1.442 . S
C286 C287 1.381 . S
C286 H313 0.931 . S
C287 C286 1.381 . S
C287 C288 1.321 . S
C288 C287 1.321 . S
C288 C289 1.403 . S
C288 H314 0.934 . S
C289 C284 1.413 . S
C289 C288 1.403 . S
C289 H315 0.930 . S
C290 O304 1.275 . S
C290 O305 1.256 . S
C291 O306 1.259 . S
C291 O307 1.268 . S
C292 Ho281 2.811 . S
C292 C293 1.488 . S
C292 O308 1.215 . S
C292 O309 1.289 . S
C293 C292 1.488 . S
C293 C294 1.348 . S
C293 C298 1.413 . S
C294 C293 1.348 . S
C294 C295 1.442 . S
C294 H316 0.930 . S
C295 C294 1.442 . S
C295 C296 1.381 . S
C295 H317 0.931 . S
C296 C295 1.381 . S
C296 C297 1.321 . S
C297 C296 1.321 . S
C297 C298 1.403 . S
C297 H318 0.934 . S
C298 C293 1.413 . S
C298 C297 1.403 . S
C298 H319 0.930 . S
C299 O310 1.275 . S
C299 O311 1.256 . S
O300 Ho280 2.322 . S
O300 C282 1.259 . S
O301 Ho281 2.346 . S
O301 C282 1.268 . S
O302 Ho280 2.378 . S
O302 C283 1.215 . S
O303 Ho280 2.524 . S
O303 C283 1.289 . S
O304 Ho280 2.381 . S
O304 C290 1.275 . S
O305 Ho280 2.669 . S
O305 Ho281 2.305 . S
O305 C290 1.256 . S
O306 Ho281 2.322 . S
O306 C291 1.259 . S
O307 Ho280 2.346 . S
O307 C291 1.268 . S
O308 Ho281 2.378 . S
O308 C292 1.215 . S
O309 Ho281 2.524 . S
O309 C292 1.289 . S
O310 Ho281 2.381 . S
O310 C299 1.275 . S
O311 Ho280 2.305 . S
O311 Ho281 2.669 . S
O311 C299 1.256 . S
H312 C285 0.930 . S
H313 C286 0.931 . S
H314 C288 0.934 . S
H315 C289 0.930 . S
H316 C294 0.930 . S
H317 C295 0.931 . S
H318 C297 0.934 . S
H319 C298 0.930 . S
Ho320 C323 2.811 . S
Ho320 O340 2.322 . S
Ho320 O342 2.378 . S
Ho320 O343 2.524 . S
Ho320 O344 2.381 1_554 S
Ho320 O345 2.669 1_554 S
Ho320 O347 2.346 1_554 S
Ho320 O351 2.305 . S
Ho321 C332 2.811 . S
Ho321 O341 2.346 1_556 S
Ho321 O345 2.305 . S
Ho321 O346 2.322 . S
Ho321 O348 2.378 . S
Ho321 O349 2.524 . S
Ho321 O350 2.381 1_556 S
Ho321 O351 2.669 1_556 S
C322 O340 1.259 . S
C322 O341 1.268 . S
C323 Ho320 2.811 . S
C323 C324 1.488 . S
C323 O342 1.215 . S
C323 O343 1.289 . S
C324 C323 1.488 . S
C324 C325 1.348 . S
C324 C329 1.413 . S
C325 C324 1.348 . S
C325 C326 1.442 . S
C325 H352 0.930 . S
C326 C325 1.442 . S
C326 C327 1.381 . S
C326 H353 0.931 . S
C327 C326 1.381 . S
C327 C328 1.321 . S
C328 C327 1.321 . S
C328 C329 1.403 . S
C328 H354 0.934 . S
C329 C324 1.413 . S
C329 C328 1.403 . S
C329 H355 0.930 . S
C330 O344 1.275 . S
C330 O345 1.256 . S
C331 O346 1.259 . S
C331 O347 1.268 . S
C332 Ho321 2.811 . S
C332 C333 1.488 . S
C332 O348 1.215 . S
C332 O349 1.289 . S
C333 C332 1.488 . S
C333 C334 1.348 . S
C333 C338 1.413 . S
C334 C333 1.348 . S
C334 C335 1.442 . S
C334 H356 0.930 . S
C335 C334 1.442 . S
C335 C336 1.381 . S
C335 H357 0.931 . S
C336 C335 1.381 . S
C336 C337 1.321 . S
C337 C336 1.321 . S
C337 C338 1.403 . S
C337 H358 0.934 . S
C338 C333 1.413 . S
C338 C337 1.403 . S
C338 H359 0.930 . S
C339 O350 1.275 . S
C339 O351 1.256 . S
O340 Ho320 2.322 . S
O340 C322 1.259 . S
O341 Ho321 2.346 1_554 S
O341 C322 1.268 . S
O342 Ho320 2.378 . S
O342 C323 1.215 . S
O343 Ho320 2.524 . S
O343 C323 1.289 . S
O344 Ho320 2.381 1_556 S
O344 C330 1.275 . S
O345 Ho320 2.669 1_556 S
O345 Ho321 2.305 . S
O345 C330 1.256 . S
O346 Ho321 2.322 . S
O346 C331 1.259 . S
O347 Ho320 2.346 1_556 S
O347 C331 1.268 . S
O348 Ho321 2.378 . S
O348 C332 1.215 . S
O349 Ho321 2.524 . S
O349 C332 1.289 . S
O350 Ho321 2.381 1_554 S
O350 C339 1.275 . S
O351 Ho320 2.305 . S
O351 Ho321 2.669 1_554 S
O351 C339 1.256 . S
H352 C325 0.930 . S
H353 C326 0.931 . S
H354 C328 0.934 . S
H355 C329 0.930 . S
H356 C334 0.930 . S
H357 C335 0.931 . S
H358 C337 0.934 . S
H359 C338 0.930 . S
Ho360 C363 2.811 . S
Ho360 O380 2.322 . S
Ho360 O382 2.378 . S
Ho360 O383 2.524 . S
Ho360 O384 2.381 . S
Ho360 O385 2.669 . S
Ho360 O387 2.346 . S
Ho360 O391 2.305 . S
Ho361 C372 2.811 . S
Ho361 O381 2.346 . S
Ho361 O385 2.305 . S
Ho361 O386 2.322 . S
Ho361 O388 2.378 . S
Ho361 O389 2.524 . S
Ho361 O390 2.381 . S
Ho361 O391 2.669 . S
C362 O380 1.259 . S
C362 O381 1.268 . S
C363 Ho360 2.811 . S
C363 C364 1.488 . S
C363 O382 1.215 . S
C363 O383 1.289 . S
C364 C363 1.488 . S
C364 C365 1.348 . S
C364 C369 1.413 . S
C365 C364 1.348 . S
C365 C366 1.442 . S
C365 H392 0.930 . S
C366 C365 1.442 . S
C366 C367 1.381 . S
C366 H393 0.931 . S
C367 C366 1.381 . S
C367 C368 1.321 . S
C368 C367 1.321 . S
C368 C369 1.403 . S
C368 H394 0.934 . S
C369 C364 1.413 . S
C369 C368 1.403 . S
C369 H395 0.930 . S
C370 O384 1.275 . S
C370 O385 1.256 . S
C371 O386 1.259 . S
C371 O387 1.268 . S
C372 Ho361 2.811 . S
C372 C373 1.488 . S
C372 O388 1.215 . S
C372 O389 1.289 . S
C373 C372 1.488 . S
C373 C374 1.348 . S
C373 C378 1.413 . S
C374 C373 1.348 . S
C374 C375 1.442 . S
C374 H396 0.930 . S
C375 C374 1.442 . S
C375 C376 1.381 . S
C375 H397 0.931 . S
C376 C375 1.381 . S
C376 C377 1.321 . S
C377 C376 1.321 . S
C377 C378 1.403 . S
C377 H398 0.934 . S
C378 C373 1.413 . S
C378 C377 1.403 . S
C378 H399 0.930 . S
C379 O390 1.275 . S
C379 O391 1.256 . S
O380 Ho360 2.322 . S
O380 C362 1.259 . S
O381 Ho361 2.346 . S
O381 C362 1.268 . S
O382 Ho360 2.378 . S
O382 C363 1.215 . S
O383 Ho360 2.524 . S
O383 C363 1.289 . S
O384 Ho360 2.381 . S
O384 C370 1.275 . S
O385 Ho360 2.669 . S
O385 Ho361 2.305 . S
O385 C370 1.256 . S
O386 Ho361 2.322 . S
O386 C371 1.259 . S
O387 Ho360 2.346 . S
O387 C371 1.268 . S
O388 Ho361 2.378 . S
O388 C372 1.215 . S
O389 Ho361 2.524 . S
O389 C372 1.289 . S
O390 Ho361 2.381 . S
O390 C379 1.275 . S
O391 Ho360 2.305 . S
O391 Ho361 2.669 . S
O391 C379 1.256 . S
H392 C365 0.930 . S
H393 C366 0.931 . S
H394 C368 0.934 . S
H395 C369 0.930 . S
H396 C374 0.930 . S
H397 C375 0.931 . S
H398 C377 0.934 . S
H399 C378 0.930 . S
Ho400 C403 2.811 . S
Ho400 O420 2.322 . S
Ho400 O422 2.378 . S
Ho400 O423 2.524 . S
Ho400 O424 2.381 . S
Ho400 O425 2.669 . S
Ho400 O427 2.346 1_455 S
Ho400 O431 2.305 1_455 S
Ho401 C412 2.811 . S
Ho401 O421 2.346 1_655 S
Ho401 O425 2.305 1_655 S
Ho401 O426 2.322 . S
Ho401 O428 2.378 . S
Ho401 O429 2.524 . S
Ho401 O430 2.381 . S
Ho401 O431 2.669 . S
C402 O420 1.259 . S
C402 O421 1.268 . S
C403 Ho400 2.811 . S
C403 C404 1.488 . S
C403 O422 1.215 . S
C403 O423 1.289 . S
C404 C403 1.488 . S
C404 C405 1.348 . S
C404 C409 1.413 . S
C405 C404 1.348 . S
C405 C406 1.442 . S
C405 H432 0.930 . S
C406 C405 1.442 . S
C406 C407 1.381 . S
C406 H433 0.931 . S
C407 C406 1.381 . S
C407 C408 1.321 . S
C408 C407 1.321 . S
C408 C409 1.403 . S
C408 H434 0.934 . S
C409 C404 1.413 . S
C409 C408 1.403 . S
C409 H435 0.930 . S
C410 O424 1.275 . S
C410 O425 1.256 . S
C411 O426 1.259 . S
C411 O427 1.268 . S
C412 Ho401 2.811 . S
C412 C413 1.488 . S
C412 O428 1.215 . S
C412 O429 1.289 . S
C413 C412 1.488 . S
C413 C414 1.348 . S
C413 C418 1.413 . S
C414 C413 1.348 . S
C414 C415 1.442 . S
C414 H436 0.930 . S
C415 C414 1.442 . S
C415 C416 1.381 . S
C415 H437 0.931 . S
C416 C415 1.381 . S
C416 C417 1.321 . S
C417 C416 1.321 . S
C417 C418 1.403 . S
C417 H438 0.934 . S
C418 C413 1.413 . S
C418 C417 1.403 . S
C418 H439 0.930 . S
C419 O430 1.275 . S
C419 O431 1.256 . S
O420 Ho400 2.322 . S
O420 C402 1.259 . S
O421 Ho401 2.346 1_455 S
O421 C402 1.268 . S
O422 Ho400 2.378 . S
O422 C403 1.215 . S
O423 Ho400 2.524 . S
O423 C403 1.289 . S
O424 Ho400 2.381 . S
O424 C410 1.275 . S
O425 Ho400 2.669 . S
O425 Ho401 2.305 1_455 S
O425 C410 1.256 . S
O426 Ho401 2.322 . S
O426 C411 1.259 . S
O427 Ho400 2.346 1_655 S
O427 C411 1.268 . S
O428 Ho401 2.378 . S
O428 C412 1.215 . S
O429 Ho401 2.524 . S
O429 C412 1.289 . S
O430 Ho401 2.381 . S
O430 C419 1.275 . S
O431 Ho400 2.305 1_655 S
O431 Ho401 2.669 . S
O431 C419 1.256 . S
H432 C405 0.930 . S
H433 C406 0.931 . S
H434 C408 0.934 . S
H435 C409 0.930 . S
H436 C414 0.930 . S
H437 C415 0.931 . S
H438 C417 0.934 . S
H439 C418 0.930 . S
Ho440 C443 2.811 . S
Ho440 O460 2.322 . S
Ho440 O462 2.378 . S
Ho440 O463 2.524 . S
Ho440 O464 2.381 . S
Ho440 O465 2.669 . S
Ho440 O467 2.346 . S
Ho440 O471 2.305 . S
Ho441 C452 2.811 . S
Ho441 O461 2.346 . S
Ho441 O465 2.305 . S
Ho441 O466 2.322 . S
Ho441 O468 2.378 . S
Ho441 O469 2.524 . S
Ho441 O470 2.381 . S
Ho441 O471 2.669 . S
C442 O460 1.259 . S
C442 O461 1.268 . S
C443 Ho440 2.811 . S
C443 C444 1.488 . S
C443 O462 1.215 . S
C443 O463 1.289 . S
C444 C443 1.488 . S
C444 C445 1.348 . S
C444 C449 1.413 . S
C445 C444 1.348 . S
C445 C446 1.442 . S
C445 H472 0.930 . S
C446 C445 1.442 . S
C446 C447 1.381 . S
C446 H473 0.931 . S
C447 C446 1.381 . S
C447 C448 1.321 . S
C448 C447 1.321 . S
C448 C449 1.403 . S
C448 H474 0.934 . S
C449 C444 1.413 . S
C449 C448 1.403 . S
C449 H475 0.930 . S
C450 O464 1.275 . S
C450 O465 1.256 . S
C451 O466 1.259 . S
C451 O467 1.268 . S
C452 Ho441 2.811 . S
C452 C453 1.488 . S
C452 O468 1.215 . S
C452 O469 1.289 . S
C453 C452 1.488 . S
C453 C454 1.348 . S
C453 C458 1.413 . S
C454 C453 1.348 . S
C454 C455 1.442 . S
C454 H476 0.930 . S
C455 C454 1.442 . S
C455 C456 1.381 . S
C455 H477 0.931 . S
C456 C455 1.381 . S
C456 C457 1.321 . S
C457 C456 1.321 . S
C457 C458 1.403 . S
C457 H478 0.934 . S
C458 C453 1.413 . S
C458 C457 1.403 . S
C458 H479 0.930 . S
C459 O470 1.275 . S
C459 O471 1.256 . S
O460 Ho440 2.322 . S
O460 C442 1.259 . S
O461 Ho441 2.346 . S
O461 C442 1.268 . S
O462 Ho440 2.378 . S
O462 C443 1.215 . S
O463 Ho440 2.524 . S
O463 C443 1.289 . S
O464 Ho440 2.381 . S
O464 C450 1.275 . S
O465 Ho440 2.669 . S
O465 Ho441 2.305 . S
O465 C450 1.256 . S
O466 Ho441 2.322 . S
O466 C451 1.259 . S
O467 Ho440 2.346 . S
O467 C451 1.268 . S
O468 Ho441 2.378 . S
O468 C452 1.215 . S
O469 Ho441 2.524 . S
O469 C452 1.289 . S
O470 Ho441 2.381 . S
O470 C459 1.275 . S
O471 Ho440 2.305 . S
O471 Ho441 2.669 . S
O471 C459 1.256 . S
H472 C445 0.930 . S
H473 C446 0.931 . S
H474 C448 0.934 . S
H475 C449 0.930 . S
H476 C454 0.930 . S
H477 C455 0.931 . S
H478 C457 0.934 . S
H479 C458 0.930 . S
Ho480 C483 2.811 . S
Ho480 O500 2.322 . S
Ho480 O502 2.378 . S
Ho480 O503 2.524 . S
Ho480 O504 2.381 . S
Ho480 O505 2.669 . S
Ho480 O507 2.346 . S
Ho480 O511 2.305 . S
Ho481 C492 2.811 . S
Ho481 O501 2.346 . S
Ho481 O505 2.305 . S
Ho481 O506 2.322 . S
Ho481 O508 2.378 . S
Ho481 O509 2.524 . S
Ho481 O510 2.381 . S
Ho481 O511 2.669 . S
C482 O500 1.259 . S
C482 O501 1.268 . S
C483 Ho480 2.811 . S
C483 C484 1.488 . S
C483 O502 1.215 . S
C483 O503 1.289 . S
C484 C483 1.488 . S
C484 C485 1.348 . S
C484 C489 1.413 . S
C485 C484 1.348 . S
C485 C486 1.442 . S
C485 H512 0.930 . S
C486 C485 1.442 . S
C486 C487 1.381 . S
C486 H513 0.931 . S
C487 C486 1.381 . S
C487 C488 1.321 . S
C488 C487 1.321 . S
C488 C489 1.403 . S
C488 H514 0.934 . S
C489 C484 1.413 . S
C489 C488 1.403 . S
C489 H515 0.930 . S
C490 O504 1.275 . S
C490 O505 1.256 . S
C491 O506 1.259 . S
C491 O507 1.268 . S
C492 Ho481 2.811 . S
C492 C493 1.488 . S
C492 O508 1.215 . S
C492 O509 1.289 . S
C493 C492 1.488 . S
C493 C494 1.348 . S
C493 C498 1.413 . S
C494 C493 1.348 . S
C494 C495 1.442 . S
C494 H516 0.930 . S
C495 C494 1.442 . S
C495 C496 1.381 . S
C495 H517 0.931 . S
C496 C495 1.381 . S
C496 C497 1.321 . S
C497 C496 1.321 . S
C497 C498 1.403 . S
C497 H518 0.934 . S
C498 C493 1.413 . S
C498 C497 1.403 . S
C498 H519 0.930 . S
C499 O510 1.275 . S
C499 O511 1.256 . S
O500 Ho480 2.322 . S
O500 C482 1.259 . S
O501 Ho481 2.346 . S
O501 C482 1.268 . S
O502 Ho480 2.378 . S
O502 C483 1.215 . S
O503 Ho480 2.524 . S
O503 C483 1.289 . S
O504 Ho480 2.381 . S
O504 C490 1.275 . S
O505 Ho480 2.669 . S
O505 Ho481 2.305 . S
O505 C490 1.256 . S
O506 Ho481 2.322 . S
O506 C491 1.259 . S
O507 Ho480 2.346 . S
O507 C491 1.268 . S
O508 Ho481 2.378 . S
O508 C492 1.215 . S
O509 Ho481 2.524 . S
O509 C492 1.289 . S
O510 Ho481 2.381 . S
O510 C499 1.275 . S
O511 Ho480 2.305 . S
O511 Ho481 2.669 . S
O511 C499 1.256 . S
H512 C485 0.930 . S
H513 C486 0.931 . S
H514 C488 0.934 . S
H515 C489 0.930 . S
H516 C494 0.930 . S
H517 C495 0.931 . S
H518 C497 0.934 . S
H519 C498 0.930 . S
Ho520 C523 2.811 . S
Ho520 O540 2.322 . S
Ho520 O542 2.378 . S
Ho520 O543 2.524 . S
Ho520 O544 2.381 . S
Ho520 O545 2.669 . S
Ho520 O547 2.346 . S
Ho520 O551 2.305 . S
Ho521 C532 2.811 . S
Ho521 O541 2.346 . S
Ho521 O545 2.305 . S
Ho521 O546 2.322 . S
Ho521 O548 2.378 . S
Ho521 O549 2.524 . S
Ho521 O550 2.381 . S
Ho521 O551 2.669 . S
C522 O540 1.259 . S
C522 O541 1.268 . S
C523 Ho520 2.811 . S
C523 C524 1.488 . S
C523 O542 1.215 . S
C523 O543 1.289 . S
C524 C523 1.488 . S
C524 C525 1.348 . S
C524 C529 1.413 . S
C525 C524 1.348 . S
C525 C526 1.442 . S
C525 H552 0.930 . S
C526 C525 1.442 . S
C526 C527 1.381 . S
C526 H553 0.931 . S
C527 C526 1.381 . S
C527 C528 1.321 . S
C528 C527 1.321 . S
C528 C529 1.403 . S
C528 H554 0.934 . S
C529 C524 1.413 . S
C529 C528 1.403 . S
C529 H555 0.930 . S
C530 O544 1.275 . S
C530 O545 1.256 . S
C531 O546 1.259 . S
C531 O547 1.268 . S
C532 Ho521 2.811 . S
C532 C533 1.488 . S
C532 O548 1.215 . S
C532 O549 1.289 . S
C533 C532 1.488 . S
C533 C534 1.348 . S
C533 C538 1.413 . S
C534 C533 1.348 . S
C534 C535 1.442 . S
C534 H556 0.930 . S
C535 C534 1.442 . S
C535 C536 1.381 . S
C535 H557 0.931 . S
C536 C535 1.381 . S
C536 C537 1.321 . S
C537 C536 1.321 . S
C537 C538 1.403 . S
C537 H558 0.934 . S
C538 C533 1.413 . S
C538 C537 1.403 . S
C538 H559 0.930 . S
C539 O550 1.275 . S
C539 O551 1.256 . S
O540 Ho520 2.322 . S
O540 C522 1.259 . S
O541 Ho521 2.346 . S
O541 C522 1.268 . S
O542 Ho520 2.378 . S
O542 C523 1.215 . S
O543 Ho520 2.524 . S
O543 C523 1.289 . S
O544 Ho520 2.381 . S
O544 C530 1.275 . S
O545 Ho520 2.669 . S
O545 Ho521 2.305 . S
O545 C530 1.256 . S
O546 Ho521 2.322 . S
O546 C531 1.259 . S
O547 Ho520 2.346 . S
O547 C531 1.268 . S
O548 Ho521 2.378 . S
O548 C532 1.215 . S
O549 Ho521 2.524 . S
O549 C532 1.289 . S
O550 Ho521 2.381 . S
O550 C539 1.275 . S
O551 Ho520 2.305 . S
O551 Ho521 2.669 . S
O551 C539 1.256 . S
H552 C525 0.930 . S
H553 C526 0.931 . S
H554 C528 0.934 . S
H555 C529 0.930 . S
H556 C534 0.930 . S
H557 C535 0.931 . S
H558 C537 0.934 . S
H559 C538 0.930 . S
Ho560 C563 2.811 . S
Ho560 O580 2.322 . S
Ho560 O582 2.378 . S
Ho560 O583 2.524 . S
Ho560 O584 2.381 . S
Ho560 O585 2.669 . S
Ho560 O587 2.346 . S
Ho560 O591 2.305 . S
Ho561 C572 2.811 . S
Ho561 O581 2.346 . S
Ho561 O585 2.305 . S
Ho561 O586 2.322 . S
Ho561 O588 2.378 . S
Ho561 O589 2.524 . S
Ho561 O590 2.381 . S
Ho561 O591 2.669 . S
C562 O580 1.259 . S
C562 O581 1.268 . S
C563 Ho560 2.811 . S
C563 C564 1.488 . S
C563 O582 1.215 . S
C563 O583 1.289 . S
C564 C563 1.488 . S
C564 C565 1.348 . S
C564 C569 1.413 . S
C565 C564 1.348 . S
C565 C566 1.442 . S
C565 H592 0.930 . S
C566 C565 1.442 . S
C566 C567 1.381 . S
C566 H593 0.931 . S
C567 C566 1.381 . S
C567 C568 1.321 . S
C568 C567 1.321 . S
C568 C569 1.403 . S
C568 H594 0.934 . S
C569 C564 1.413 . S
C569 C568 1.403 . S
C569 H595 0.930 . S
C570 O584 1.275 . S
C570 O585 1.256 . S
C571 O586 1.259 . S
C571 O587 1.268 . S
C572 Ho561 2.811 . S
C572 C573 1.488 . S
C572 O588 1.215 . S
C572 O589 1.289 . S
C573 C572 1.488 . S
C573 C574 1.348 . S
C573 C578 1.413 . S
C574 C573 1.348 . S
C574 C575 1.442 . S
C574 H596 0.930 . S
C575 C574 1.442 . S
C575 C576 1.381 . S
C575 H597 0.931 . S
C576 C575 1.381 . S
C576 C577 1.321 . S
C577 C576 1.321 . S
C577 C578 1.403 . S
C577 H598 0.934 . S
C578 C573 1.413 . S
C578 C577 1.403 . S
C578 H599 0.930 . S
C579 O590 1.275 . S
C579 O591 1.256 . S
O580 Ho560 2.322 . S
O580 C562 1.259 . S
O581 Ho561 2.346 . S
O581 C562 1.268 . S
O582 Ho560 2.378 . S
O582 C563 1.215 . S
O583 Ho560 2.524 . S
O583 C563 1.289 . S
O584 Ho560 2.381 . S
O584 C570 1.275 . S
O585 Ho560 2.669 . S
O585 Ho561 2.305 . S
O585 C570 1.256 . S
O586 Ho561 2.322 . S
O586 C571 1.259 . S
O587 Ho560 2.346 . S
O587 C571 1.268 . S
O588 Ho561 2.378 . S
O588 C572 1.215 . S
O589 Ho561 2.524 . S
O589 C572 1.289 . S
O590 Ho561 2.381 . S
O590 C579 1.275 . S
O591 Ho560 2.305 . S
O591 Ho561 2.669 . S
O591 C579 1.256 . S
H592 C565 0.930 . S
H593 C566 0.931 . S
H594 C568 0.934 . S
H595 C569 0.930 . S
H596 C574 0.930 . S
H597 C575 0.931 . S
H598 C577 0.934 . S
H599 C578 0.930 . S
Ho600 C603 2.811 . S
Ho600 O620 2.322 1_554 S
Ho600 O622 2.378 . S
Ho600 O623 2.524 . S
Ho600 O624 2.381 1_554 S
Ho600 O625 2.669 1_554 S
Ho600 O627 2.346 1_655 S
Ho600 O631 2.305 1_655 S
Ho601 C612 2.811 . S
Ho601 O621 2.346 1_455 S
Ho601 O625 2.305 1_455 S
Ho601 O626 2.322 1_556 S
Ho601 O628 2.378 . S
Ho601 O629 2.524 . S
Ho601 O630 2.381 1_556 S
Ho601 O631 2.669 1_556 S
C602 O620 1.259 . S
C602 O621 1.268 . S
C603 Ho600 2.811 . S
C603 C604 1.488 . S
C603 O622 1.215 . S
C603 O623 1.289 . S
C604 C603 1.488 . S
C604 C605 1.348 . S
C604 C609 1.413 . S
C605 C604 1.348 . S
C605 C606 1.442 . S
C605 H632 0.930 . S
C606 C605 1.442 . S
C606 C607 1.381 . S
C606 H633 0.931 . S
C607 C606 1.381 . S
C607 C608 1.321 . S
C608 C607 1.321 . S
C608 C609 1.403 . S
C608 H634 0.934 . S
C609 C604 1.413 . S
C609 C608 1.403 . S
C609 H635 0.930 . S
C610 O624 1.275 . S
C610 O625 1.256 . S
C611 O626 1.259 . S
C611 O627 1.268 . S
C612 Ho601 2.811 . S
C612 C613 1.488 . S
C612 O628 1.215 . S
C612 O629 1.289 . S
C613 C612 1.488 . S
C613 C614 1.348 . S
C613 C618 1.413 . S
C614 C613 1.348 . S
C614 C615 1.442 . S
C614 H636 0.930 . S
C615 C614 1.442 . S
C615 C616 1.381 . S
C615 H637 0.931 . S
C616 C615 1.381 . S
C616 C617 1.321 . S
C617 C616 1.321 . S
C617 C618 1.403 . S
C617 H638 0.934 . S
C618 C613 1.413 . S
C618 C617 1.403 . S
C618 H639 0.930 . S
C619 O630 1.275 . S
C619 O631 1.256 . S
O620 Ho600 2.322 1_556 S
O620 C602 1.259 . S
O621 Ho601 2.346 1_655 S
O621 C602 1.268 . S
O622 Ho600 2.378 . S
O622 C603 1.215 . S
O623 Ho600 2.524 . S
O623 C603 1.289 . S
O624 Ho600 2.381 1_556 S
O624 C610 1.275 . S
O625 Ho600 2.669 1_556 S
O625 Ho601 2.305 1_655 S
O625 C610 1.256 . S
O626 Ho601 2.322 1_554 S
O626 C611 1.259 . S
O627 Ho600 2.346 1_455 S
O627 C611 1.268 . S
O628 Ho601 2.378 . S
O628 C612 1.215 . S
O629 Ho601 2.524 . S
O629 C612 1.289 . S
O630 Ho601 2.381 1_554 S
O630 C619 1.275 . S
O631 Ho600 2.305 1_455 S
O631 Ho601 2.669 1_554 S
O631 C619 1.256 . S
H632 C605 0.930 . S
H633 C606 0.931 . S
H634 C608 0.934 . S
H635 C609 0.930 . S
H636 C614 0.930 . S
H637 C615 0.931 . S
H638 C617 0.934 . S
H639 C618 0.930 . S
H640 C646 0.930 . S
H641 C650 0.930 . S
H642 C655 0.929 . S
H643 C653 0.929 . S
H644 C648 0.929 . S
H645 C654 0.929 . S
C646 H640 0.930 . S
C646 C647 1.367 . S
C646 C654 1.378 . S
C647 C646 1.367 . S
C647 C655 1.433 . S
C648 H644 0.929 . S
C648 C650 1.378 . S
C648 C652 1.350 . S
C649 C652 1.463 . S
C649 C654 1.350 . S
C649 N657 1.427 . S
C650 H641 0.930 . S
C650 C648 1.378 . S
C650 C651 1.367 . S
C651 C650 1.367 . S
C651 C653 1.433 . S
C652 C648 1.350 . S
C652 C649 1.463 . S
C652 N656 1.427 . S
C653 H643 0.929 . S
C653 C651 1.433 . S
C653 N656 1.384 . S
C654 H645 0.929 . S
C654 C646 1.378 . S
C654 C649 1.350 . S
C655 H642 0.929 . S
C655 C647 1.433 . S
C655 N657 1.384 . S
N656 C652 1.427 . S
N656 C653 1.384 . S
N657 C649 1.427 . S
N657 C655 1.384 . S
H658 C664 0.930 1_545 S
H659 C668 0.930 . S
H660 C673 0.929 1_556 S
H661 C671 0.929 . S
H662 C666 0.929 . S
H663 C672 0.929 . S
C664 H658 0.930 1_565 S
C664 C665 1.367 . S
C664 C672 1.378 . S
C665 C664 1.367 . S
C665 C673 1.433 . S
C666 H662 0.929 . S
C666 C668 1.378 . S
C666 C670 1.350 . S
C667 C670 1.463 . S
C667 C672 1.350 . S
C667 N675 1.427 . S
C668 H659 0.930 . S
C668 C666 1.378 . S
C668 C669 1.367 . S
C669 C668 1.367 . S
C669 C671 1.433 . S
C670 C666 1.350 . S
C670 C667 1.463 . S
C670 N674 1.427 . S
C671 H661 0.929 . S
C671 C669 1.433 . S
C671 N674 1.384 . S
C672 H663 0.929 . S
C672 C664 1.378 . S
C672 C667 1.350 . S
C673 H660 0.929 1_554 S
C673 C665 1.433 . S
C673 N675 1.384 . S
N674 C670 1.427 . S
N674 C671 1.384 . S
N675 C667 1.427 . S
N675 C673 1.384 . S
H676 C682 0.930 . S
H677 C686 0.930 . S
H678 C691 0.929 . S
H679 C689 0.929 . S
H680 C684 0.929 . S
H681 C690 0.929 . S
C682 H676 0.930 . S
C682 C683 1.367 . S
C682 C690 1.378 . S
C683 C682 1.367 . S
C683 C691 1.433 . S
C684 H680 0.929 . S
C684 C686 1.378 . S
C684 C688 1.350 . S
C685 C688 1.463 . S
C685 C690 1.350 . S
C685 N693 1.427 . S
C686 H677 0.930 . S
C686 C684 1.378 . S
C686 C687 1.367 . S
C687 C686 1.367 . S
C687 C689 1.433 . S
C688 C684 1.350 . S
C688 C685 1.463 . S
C688 N692 1.427 . S
C689 H679 0.929 . S
C689 C687 1.433 . S
C689 N692 1.384 . S
C690 H681 0.929 . S
C690 C682 1.378 . S
C690 C685 1.350 . S
C691 H678 0.929 . S
C691 C683 1.433 . S
C691 N693 1.384 . S
N692 C688 1.427 . S
N692 C689 1.384 . S
N693 C685 1.427 . S
N693 C691 1.384 . S
H694 C700 0.930 . S
H695 C704 0.930 . S
H696 C709 0.929 . S
H697 C707 0.929 . S
H698 C702 0.929 . S
H699 C708 0.929 . S
C700 H694 0.930 . S
C700 C701 1.367 . S
C700 C708 1.378 . S
C701 C700 1.367 . S
C701 C709 1.433 . S
C702 H698 0.929 . S
C702 C704 1.378 . S
C702 C706 1.350 . S
C703 C706 1.463 . S
C703 C708 1.350 . S
C703 N711 1.427 . S
C704 H695 0.930 . S
C704 C702 1.378 . S
C704 C705 1.367 . S
C705 C704 1.367 . S
C705 C707 1.433 . S
C706 C702 1.350 . S
C706 C703 1.463 . S
C706 N710 1.427 . S
C707 H697 0.929 . S
C707 C705 1.433 . S
C707 N710 1.384 . S
C708 H699 0.929 . S
C708 C700 1.378 . S
C708 C703 1.350 . S
C709 H696 0.929 . S
C709 C701 1.433 . S
C709 N711 1.384 . S
N710 C706 1.427 . S
N710 C707 1.384 . S
N711 C703 1.427 . S
N711 C709 1.384 . S
H712 C718 0.930 . S
H713 C722 0.930 . S
H714 C727 0.929 . S
H715 C725 0.929 . S
H716 C720 0.929 . S
H717 C726 0.929 . S
C718 H712 0.930 . S
C718 C719 1.367 . S
C718 C726 1.378 . S
C719 C718 1.367 . S
C719 C727 1.433 . S
C720 H716 0.929 . S
C720 C722 1.378 . S
C720 C724 1.350 . S
C721 C724 1.463 . S
C721 C726 1.350 . S
C721 N729 1.427 . S
C722 H713 0.930 . S
C722 C720 1.378 . S
C722 C723 1.367 . S
C723 C722 1.367 . S
C723 C725 1.433 . S
C724 C720 1.350 . S
C724 C721 1.463 . S
C724 N728 1.427 . S
C725 H715 0.929 . S
C725 C723 1.433 . S
C725 N728 1.384 . S
C726 H717 0.929 . S
C726 C718 1.378 . S
C726 C721 1.350 . S
C727 H714 0.929 . S
C727 C719 1.433 . S
C727 N729 1.384 . S
N728 C724 1.427 . S
N728 C725 1.384 . S
N729 C721 1.427 . S
N729 C727 1.384 . S
H730 C736 0.930 . S
H731 C740 0.930 . S
H732 C745 0.929 . S
H733 C743 0.929 . S
H734 C738 0.929 . S
H735 C744 0.929 . S
C736 H730 0.930 . S
C736 C737 1.367 . S
C736 C744 1.378 . S
C737 C736 1.367 . S
C737 C745 1.433 . S
C738 H734 0.929 . S
C738 C740 1.378 . S
C738 C742 1.350 . S
C739 C742 1.463 . S
C739 C744 1.350 . S
C739 N747 1.427 . S
C740 H731 0.930 . S
C740 C738 1.378 . S
C740 C741 1.367 . S
C741 C740 1.367 . S
C741 C743 1.433 . S
C742 C738 1.350 . S
C742 C739 1.463 . S
C742 N746 1.427 . S
C743 H733 0.929 . S
C743 C741 1.433 . S
C743 N746 1.384 . S
C744 H735 0.929 . S
C744 C736 1.378 . S
C744 C739 1.350 . S
C745 H732 0.929 . S
C745 C737 1.433 . S
C745 N747 1.384 . S
N746 C742 1.427 . S
N746 C743 1.384 . S
N747 C739 1.427 . S
N747 C745 1.384 . S
H748 C754 0.930 . S
H749 C758 0.930 . S
H750 C763 0.929 . S
H751 C761 0.929 . S
H752 C756 0.929 . S
H753 C762 0.929 . S
C754 H748 0.930 . S
C754 C755 1.367 . S
C754 C762 1.378 . S
C755 C754 1.367 . S
C755 C763 1.433 . S
C756 H752 0.929 . S
C756 C758 1.378 . S
C756 C760 1.350 . S
C757 C760 1.463 . S
C757 C762 1.350 . S
C757 N765 1.427 . S
C758 H749 0.930 . S
C758 C756 1.378 . S
C758 C759 1.367 . S
C759 C758 1.367 . S
C759 C761 1.433 . S
C760 C756 1.350 . S
C760 C757 1.463 . S
C760 N764 1.427 . S
C761 H751 0.929 . S
C761 C759 1.433 . S
C761 N764 1.384 . S
C762 H753 0.929 . S
C762 C754 1.378 . S
C762 C757 1.350 . S
C763 H750 0.929 . S
C763 C755 1.433 . S
C763 N765 1.384 . S
N764 C760 1.427 . S
N764 C761 1.384 . S
N765 C757 1.427 . S
N765 C763 1.384 . S
H766 C772 0.930 . S
H767 C776 0.930 . S
H768 C781 0.929 . S
H769 C779 0.929 . S
H770 C774 0.929 . S
H771 C780 0.929 . S
C772 H766 0.930 . S
C772 C773 1.367 . S
C772 C780 1.378 . S
C773 C772 1.367 . S
C773 C781 1.433 . S
C774 H770 0.929 . S
C774 C776 1.378 . S
C774 C778 1.350 . S
C775 C778 1.463 . S
C775 C780 1.350 . S
C775 N783 1.427 . S
C776 H767 0.930 . S
C776 C774 1.378 . S
C776 C777 1.367 . S
C777 C776 1.367 . S
C777 C779 1.433 . S
C778 C774 1.350 . S
C778 C775 1.463 . S
C778 N782 1.427 . S
C779 H769 0.929 . S
C779 C777 1.433 . S
C779 N782 1.384 . S
C780 H771 0.929 . S
C780 C772 1.378 . S
C780 C775 1.350 . S
C781 H768 0.929 . S
C781 C773 1.433 . S
C781 N783 1.384 . S
N782 C778 1.427 . S
N782 C779 1.384 . S
N783 C775 1.427 . S
N783 C781 1.384 . S
H784 C790 0.930 . S
H785 C794 0.930 . S
H786 C799 0.929 . S
H787 C797 0.929 . S
H788 C792 0.929 . S
H789 C798 0.929 . S
C790 H784 0.930 . S
C790 C791 1.367 . S
C790 C798 1.378 . S
C791 C790 1.367 . S
C791 C799 1.433 . S
C792 H788 0.929 . S
C792 C794 1.378 . S
C792 C796 1.350 . S
C793 C796 1.463 . S
C793 C798 1.350 . S
C793 N801 1.427 . S
C794 H785 0.930 . S
C794 C792 1.378 . S
C794 C795 1.367 . S
C795 C794 1.367 . S
C795 C797 1.433 . S
C796 C792 1.350 . S
C796 C793 1.463 . S
C796 N800 1.427 . S
C797 H787 0.929 . S
C797 C795 1.433 . S
C797 N800 1.384 . S
C798 H789 0.929 . S
C798 C790 1.378 . S
C798 C793 1.350 . S
C799 H786 0.929 . S
C799 C791 1.433 . S
C799 N801 1.384 . S
N800 C796 1.427 . S
N800 C797 1.384 . S
N801 C793 1.427 . S
N801 C799 1.384 . S
H802 C808 0.930 . S
H803 C812 0.930 . S
H804 C817 0.929 . S
H805 C815 0.929 . S
H806 C810 0.929 . S
H807 C816 0.929 . S
C808 H802 0.930 . S
C808 C809 1.367 . S
C808 C816 1.378 . S
C809 C808 1.367 . S
C809 C817 1.433 . S
C810 H806 0.929 . S
C810 C812 1.378 . S
C810 C814 1.350 . S
C811 C814 1.463 . S
C811 C816 1.350 . S
C811 N819 1.427 . S
C812 H803 0.930 . S
C812 C810 1.378 . S
C812 C813 1.367 . S
C813 C812 1.367 . S
C813 C815 1.433 . S
C814 C810 1.350 . S
C814 C811 1.463 . S
C814 N818 1.427 . S
C815 H805 0.929 . S
C815 C813 1.433 . S
C815 N818 1.384 . S
C816 H807 0.929 . S
C816 C808 1.378 . S
C816 C811 1.350 . S
C817 H804 0.929 . S
C817 C809 1.433 . S
C817 N819 1.384 . S
N818 C814 1.427 . S
N818 C815 1.384 . S
N819 C811 1.427 . S
N819 C817 1.384 . S
H820 C826 0.930 . S
H821 C830 0.930 . S
H822 C835 0.929 . S
H823 C833 0.929 . S
H824 C828 0.929 . S
H825 C834 0.929 . S
C826 H820 0.930 . S
C826 C827 1.367 . S
C826 C834 1.378 . S
C827 C826 1.367 . S
C827 C835 1.433 . S
C828 H824 0.929 . S
C828 C830 1.378 . S
C828 C832 1.350 . S
C829 C832 1.463 . S
C829 C834 1.350 . S
C829 N837 1.427 . S
C830 H821 0.930 . S
C830 C828 1.378 . S
C830 C831 1.367 . S
C831 C830 1.367 . S
C831 C833 1.433 . S
C832 C828 1.350 . S
C832 C829 1.463 . S
C832 N836 1.427 . S
C833 H823 0.929 . S
C833 C831 1.433 . S
C833 N836 1.384 . S
C834 H825 0.929 . S
C834 C826 1.378 . S
C834 C829 1.350 . S
C835 H822 0.929 . S
C835 C827 1.433 . S
C835 N837 1.384 . S
N836 C832 1.427 . S
N836 C833 1.384 . S
N837 C829 1.427 . S
N837 C835 1.384 . S
H838 C844 0.930 . S
H839 C848 0.930 . S
H840 C853 0.929 . S
H841 C851 0.929 . S
H842 C846 0.929 . S
H843 C852 0.929 . S
C844 H838 0.930 . S
C844 C845 1.367 . S
C844 C852 1.378 . S
C845 C844 1.367 . S
C845 C853 1.433 . S
C846 H842 0.929 . S
C846 C848 1.378 . S
C846 C850 1.350 . S
C847 C850 1.463 . S
C847 C852 1.350 . S
C847 N855 1.427 . S
C848 H839 0.930 . S
C848 C846 1.378 . S
C848 C849 1.367 . S
C849 C848 1.367 . S
C849 C851 1.433 . S
C850 C846 1.350 . S
C850 C847 1.463 . S
C850 N854 1.427 . S
C851 H841 0.929 . S
C851 C849 1.433 . S
C851 N854 1.384 . S
C852 H843 0.929 . S
C852 C844 1.378 . S
C852 C847 1.350 . S
C853 H840 0.929 . S
C853 C845 1.433 . S
C853 N855 1.384 . S
N854 C850 1.427 . S
N854 C851 1.384 . S
N855 C847 1.427 . S
N855 C853 1.384 . S
H856 C862 0.930 . S
H857 C866 0.930 . S
H858 C871 0.929 . S
H859 C869 0.929 . S
H860 C864 0.929 . S
H861 C870 0.929 . S
C862 H856 0.930 . S
C862 C863 1.367 . S
C862 C870 1.378 . S
C863 C862 1.367 . S
C863 C871 1.433 . S
C864 H860 0.929 . S
C864 C866 1.378 . S
C864 C868 1.350 . S
C865 C868 1.463 . S
C865 C870 1.350 . S
C865 N873 1.427 . S
C866 H857 0.930 . S
C866 C864 1.378 . S
C866 C867 1.367 . S
C867 C866 1.367 . S
C867 C869 1.433 . S
C868 C864 1.350 . S
C868 C865 1.463 . S
C868 N872 1.427 . S
C869 H859 0.929 . S
C869 C867 1.433 . S
C869 N872 1.384 . S
C870 H861 0.929 . S
C870 C862 1.378 . S
C870 C865 1.350 . S
C871 H858 0.929 . S
C871 C863 1.433 . S
C871 N873 1.384 . S
N872 C868 1.427 . S
N872 C869 1.384 . S
N873 C865 1.427 . S
N873 C871 1.384 . S
H874 C880 0.930 . S
H875 C884 0.930 . S
H876 C889 0.929 . S
H877 C887 0.929 . S
H878 C882 0.929 . S
H879 C888 0.929 . S
C880 H874 0.930 . S
C880 C881 1.367 . S
C880 C888 1.378 . S
C881 C880 1.367 . S
C881 C889 1.433 . S
C882 H878 0.929 . S
C882 C884 1.378 . S
C882 C886 1.350 . S
C883 C886 1.463 . S
C883 C888 1.350 . S
C883 N891 1.427 . S
C884 H875 0.930 . S
C884 C882 1.378 . S
C884 C885 1.367 . S
C885 C884 1.367 . S
C885 C887 1.433 . S
C886 C882 1.350 . S
C886 C883 1.463 . S
C886 N890 1.427 . S
C887 H877 0.929 . S
C887 C885 1.433 . S
C887 N890 1.384 . S
C888 H879 0.929 . S
C888 C880 1.378 . S
C888 C883 1.350 . S
C889 H876 0.929 . S
C889 C881 1.433 . S
C889 N891 1.384 . S
N890 C886 1.427 . S
N890 C887 1.384 . S
N891 C883 1.427 . S
N891 C889 1.384 . S
H892 C898 0.930 . S
H893 C902 0.930 . S
H894 C907 0.929 . S
H895 C905 0.929 . S
H896 C900 0.929 . S
H897 C906 0.929 . S
C898 H892 0.930 . S
C898 C899 1.367 . S
C898 C906 1.378 . S
C899 C898 1.367 . S
C899 C907 1.433 . S
C900 H896 0.929 . S
C900 C902 1.378 . S
C900 C904 1.350 . S
C901 C904 1.463 . S
C901 C906 1.350 . S
C901 N909 1.427 . S
C902 H893 0.930 . S
C902 C900 1.378 . S
C902 C903 1.367 . S
C903 C902 1.367 . S
C903 C905 1.433 . S
C904 C900 1.350 . S
C904 C901 1.463 . S
C904 N908 1.427 . S
C905 H895 0.929 . S
C905 C903 1.433 . S
C905 N908 1.384 . S
C906 H897 0.929 . S
C906 C898 1.378 . S
C906 C901 1.350 . S
C907 H894 0.929 . S
C907 C899 1.433 . S
C907 N909 1.384 . S
N908 C904 1.427 . S
N908 C905 1.384 . S
N909 C901 1.427 . S
N909 C907 1.384 . S
H910 C916 0.930 . S
H911 C920 0.930 . S
H912 C925 0.929 . S
H913 C923 0.929 . S
H914 C918 0.929 . S
H915 C924 0.929 . S
C916 H910 0.930 . S
C916 C917 1.367 . S
C916 C924 1.378 . S
C917 C916 1.367 . S
C917 C925 1.433 . S
C918 H914 0.929 . S
C918 C920 1.378 . S
C918 C922 1.350 . S
C919 C922 1.463 . S
C919 C924 1.350 . S
C919 N927 1.427 . S
C920 H911 0.930 . S
C920 C918 1.378 . S
C920 C921 1.367 . S
C921 C920 1.367 . S
C921 C923 1.433 . S
C922 C918 1.350 . S
C922 C919 1.463 . S
C922 N926 1.427 . S
C923 H913 0.929 . S
C923 C921 1.433 . S
C923 N926 1.384 . S
C924 H915 0.929 . S
C924 C916 1.378 . S
C924 C919 1.350 . S
C925 H912 0.929 . S
C925 C917 1.433 . S
C925 N927 1.384 . S
N926 C922 1.427 . S
N926 C923 1.384 . S
N927 C919 1.427 . S
N927 C925 1.384 . S
H928 C934 0.930 . S
H929 C938 0.930 . S
H930 C943 0.929 . S
H931 C941 0.929 . S
H932 C936 0.929 . S
H933 C942 0.929 . S
C934 H928 0.930 . S
C934 C935 1.367 . S
C934 C942 1.378 . S
C935 C934 1.367 . S
C935 C943 1.433 . S
C936 H932 0.929 . S
C936 C938 1.378 . S
C936 C940 1.350 . S
C937 C940 1.463 . S
C937 C942 1.350 . S
C937 N945 1.427 . S
C938 H929 0.930 . S
C938 C936 1.378 . S
C938 C939 1.367 . S
C939 C938 1.367 . S
C939 C941 1.433 . S
C940 C936 1.350 . S
C940 C937 1.463 . S
C940 N944 1.427 . S
C941 H931 0.929 . S
C941 C939 1.433 . S
C941 N944 1.384 . S
C942 H933 0.929 . S
C942 C934 1.378 . S
C942 C937 1.350 . S
C943 H930 0.929 . S
C943 C935 1.433 . S
C943 N945 1.384 . S
N944 C940 1.427 . S
N944 C941 1.384 . S
N945 C937 1.427 . S
N945 C943 1.384 . S
H946 C952 0.930 . S
H947 C956 0.930 . S
H948 C961 0.929 . S
H949 C959 0.929 . S
H950 C954 0.929 . S
H951 C960 0.929 . S
C952 H946 0.930 . S
C952 C953 1.367 . S
C952 C960 1.378 . S
C953 C952 1.367 . S
C953 C961 1.433 . S
C954 H950 0.929 . S
C954 C956 1.378 . S
C954 C958 1.350 . S
C955 C958 1.463 . S
C955 C960 1.350 . S
C955 N963 1.427 . S
C956 H947 0.930 . S
C956 C954 1.378 . S
C956 C957 1.367 . S
C957 C956 1.367 . S
C957 C959 1.433 . S
C958 C954 1.350 . S
C958 C955 1.463 . S
C958 N962 1.427 . S
C959 H949 0.929 . S
C959 C957 1.433 . S
C959 N962 1.384 . S
C960 H951 0.929 . S
C960 C952 1.378 . S
C960 C955 1.350 . S
C961 H948 0.929 . S
C961 C953 1.433 . S
C961 N963 1.384 . S
N962 C958 1.427 . S
N962 C959 1.384 . S
N963 C955 1.427 . S
N963 C961 1.384 . S
H964 C970 0.930 . S
H965 C974 0.930 . S
H966 C979 0.929 . S
H967 C977 0.929 . S
H968 C972 0.929 . S
H969 C978 0.929 . S
C970 H964 0.930 . S
C970 C971 1.367 . S
C970 C978 1.378 . S
C971 C970 1.367 . S
C971 C979 1.433 . S
C972 H968 0.929 . S
C972 C974 1.378 . S
C972 C976 1.350 . S
C973 C976 1.463 . S
C973 C978 1.350 . S
C973 N981 1.427 . S
C974 H965 0.930 . S
C974 C972 1.378 . S
C974 C975 1.367 . S
C975 C974 1.367 . S
C975 C977 1.433 . S
C976 C972 1.350 . S
C976 C973 1.463 . S
C976 N980 1.427 . S
C977 H967 0.929 . S
C977 C975 1.433 . S
C977 N980 1.384 . S
C978 H969 0.929 . S
C978 C970 1.378 . S
C978 C973 1.350 . S
C979 H966 0.929 . S
C979 C971 1.433 . S
C979 N981 1.384 . S
N980 C976 1.427 . S
N980 C977 1.384 . S
N981 C973 1.427 . S
N981 C979 1.384 . S
H982 C988 0.930 . S
H983 C992 0.930 . S
H984 C997 0.929 . S
H985 C995 0.929 . S
H986 C990 0.929 . S
H987 C996 0.929 . S
C988 H982 0.930 . S
C988 C989 1.367 . S
C988 C996 1.378 . S
C989 C988 1.367 . S
C989 C997 1.433 . S
C990 H986 0.929 . S
C990 C992 1.378 . S
C990 C994 1.350 . S
C991 C994 1.463 . S
C991 C996 1.350 . S
C991 N999 1.427 . S
C992 H983 0.930 . S
C992 C990 1.378 . S
C992 C993 1.367 . S
C993 C992 1.367 . S
C993 C995 1.433 . S
C994 C990 1.350 . S
C994 C991 1.463 . S
C994 N998 1.427 . S
C995 H985 0.929 . S
C995 C993 1.433 . S
C995 N998 1.384 . S
C996 H987 0.929 . S
C996 C988 1.378 . S
C996 C991 1.350 . S
C997 H984 0.929 . S
C997 C989 1.433 . S
C997 N999 1.384 . S
N998 C994 1.427 . S
N998 C995 1.384 . S
N999 C991 1.427 . S
N999 C997 1.384 . S
H1000 C1006 0.930 . S
H1001 C1010 0.930 . S
H1002 C1015 0.929 . S
H1003 C1013 0.929 . S
H1004 C1008 0.929 . S
H1005 C1014 0.929 . S
C1006 H1000 0.930 . S
C1006 C1007 1.367 . S
C1006 C1014 1.378 . S
C1007 C1006 1.367 . S
C1007 C1015 1.433 . S
C1008 H1004 0.929 . S
C1008 C1010 1.378 . S
C1008 C1012 1.350 . S
C1009 C1012 1.463 . S
C1009 C1014 1.350 . S
C1009 N1017 1.427 . S
C1010 H1001 0.930 . S
C1010 C1008 1.378 . S
C1010 C1011 1.367 . S
C1011 C1010 1.367 . S
C1011 C1013 1.433 . S
C1012 C1008 1.350 . S
C1012 C1009 1.463 . S
C1012 N1016 1.427 . S
C1013 H1003 0.929 . S
C1013 C1011 1.433 . S
C1013 N1016 1.384 . S
C1014 H1005 0.929 . S
C1014 C1006 1.378 . S
C1014 C1009 1.350 . S
C1015 H1002 0.929 . S
C1015 C1007 1.433 . S
C1015 N1017 1.384 . S
N1016 C1012 1.427 . S
N1016 C1013 1.384 . S
N1017 C1009 1.427 . S
N1017 C1015 1.384 . S
H1018 C1024 0.930 . S
H1019 C1028 0.930 . S
H1020 C1033 0.929 . S
H1021 C1031 0.929 . S
H1022 C1026 0.929 . S
H1023 C1032 0.929 . S
C1024 H1018 0.930 . S
C1024 C1025 1.367 . S
C1024 C1032 1.378 . S
C1025 C1024 1.367 . S
C1025 C1033 1.433 . S
C1026 H1022 0.929 . S
C1026 C1028 1.378 . S
C1026 C1030 1.350 . S
C1027 C1030 1.463 . S
C1027 C1032 1.350 . S
C1027 N1035 1.427 . S
C1028 H1019 0.930 . S
C1028 C1026 1.378 . S
C1028 C1029 1.367 . S
C1029 C1028 1.367 . S
C1029 C1031 1.433 . S
C1030 C1026 1.350 . S
C1030 C1027 1.463 . S
C1030 N1034 1.427 . S
C1031 H1021 0.929 . S
C1031 C1029 1.433 . S
C1031 N1034 1.384 . S
C1032 H1023 0.929 . S
C1032 C1024 1.378 . S
C1032 C1027 1.350 . S
C1033 H1020 0.929 . S
C1033 C1025 1.433 . S
C1033 N1035 1.384 . S
N1034 C1030 1.427 . S
N1034 C1031 1.384 . S
N1035 C1027 1.427 . S
N1035 C1033 1.384 . S
H1036 C1042 0.930 . S
H1037 C1046 0.930 . S
H1038 C1051 0.929 . S
H1039 C1049 0.935 . S
H1040 C1044 0.929 . S
H1041 C1050 0.929 . S
C1042 H1036 0.930 . S
C1042 C1043 1.367 . S
C1042 C1050 1.378 . S
C1043 C1042 1.367 . S
C1043 C1051 1.433 . S
C1044 H1040 0.929 . S
C1044 C1046 1.378 . S
C1044 C1048 1.350 . S
C1045 C1048 1.463 . S
C1045 C1050 1.350 . S
C1045 N1053 1.427 . S
C1046 H1037 0.930 . S
C1046 C1044 1.378 . S
C1046 C1047 1.367 . S
C1047 C1046 1.367 . S
C1047 C1049 1.434 1_545 S
C1048 C1044 1.350 . S
C1048 C1045 1.463 . S
C1048 N1052 1.427 . S
C1049 H1039 0.935 . S
C1049 C1047 1.434 1_565 S
C1049 N1052 1.377 1_565 S
C1050 H1041 0.929 . S
C1050 C1042 1.378 . S
C1050 C1045 1.350 . S
C1051 H1038 0.929 . S
C1051 C1043 1.433 . S
C1051 N1053 1.384 . S
N1052 C1048 1.427 . S
N1052 C1049 1.377 1_545 S
N1053 C1045 1.427 . S
N1053 C1051 1.384 . S
H1054 C1060 0.930 . S
H1055 C1064 0.930 . S
H1056 C1069 0.929 . S
H1057 C1067 0.929 . S
H1058 C1062 0.929 . S
H1059 C1068 0.929 . S
C1060 H1054 0.930 . S
C1060 C1061 1.367 . S
C1060 C1068 1.378 . S
C1061 C1060 1.367 . S
C1061 C1069 1.433 . S
C1062 H1058 0.929 . S
C1062 C1064 1.378 . S
C1062 C1066 1.350 . S
C1063 C1066 1.463 . S
C1063 C1068 1.350 . S
C1063 N1071 1.427 . S
C1064 H1055 0.930 . S
C1064 C1062 1.378 . S
C1064 C1065 1.367 . S
C1065 C1064 1.367 . S
C1065 C1067 1.433 . S
C1066 C1062 1.350 . S
C1066 C1063 1.463 . S
C1066 N1070 1.427 . S
C1067 H1057 0.929 . S
C1067 C1065 1.433 . S
C1067 N1070 1.384 . S
C1068 H1059 0.929 . S
C1068 C1060 1.378 . S
C1068 C1063 1.350 . S
C1069 H1056 0.929 . S
C1069 C1061 1.433 . S
C1069 N1071 1.384 . S
N1070 C1066 1.427 . S
N1070 C1067 1.384 . S
N1071 C1063 1.427 . S
N1071 C1069 1.384 . S
H1072 C1078 0.930 . S
H1073 C1082 0.930 . S
H1074 C1087 0.929 . S
H1075 C1085 0.929 . S
H1076 C1080 0.929 . S
H1077 C1086 0.929 . S
C1078 H1072 0.930 . S
C1078 C1079 1.367 . S
C1078 C1086 1.378 . S
C1079 C1078 1.367 . S
C1079 C1087 1.433 . S
C1080 H1076 0.929 . S
C1080 C1082 1.378 . S
C1080 C1084 1.350 . S
C1081 C1084 1.463 . S
C1081 C1086 1.350 . S
C1081 N1089 1.427 . S
C1082 H1073 0.930 . S
C1082 C1080 1.378 . S
C1082 C1083 1.367 . S
C1083 C1082 1.367 . S
C1083 C1085 1.433 . S
C1084 C1080 1.350 . S
C1084 C1081 1.463 . S
C1084 N1088 1.427 . S
C1085 H1075 0.929 . S
C1085 C1083 1.433 . S
C1085 N1088 1.384 . S
C1086 H1077 0.929 . S
C1086 C1078 1.378 . S
C1086 C1081 1.350 . S
C1087 H1074 0.929 . S
C1087 C1079 1.433 . S
C1087 N1089 1.384 . S
N1088 C1084 1.427 . S
N1088 C1085 1.384 . S
N1089 C1081 1.427 . S
N1089 C1087 1.384 . S
H1090 C1096 0.930 . S
H1091 C1100 0.930 . S
H1092 C1105 0.929 . S
H1093 C1103 0.929 . S
H1094 C1098 0.929 . S
H1095 C1104 0.929 . S
C1096 H1090 0.930 . S
C1096 C1097 1.367 . S
C1096 C1104 1.378 . S
C1097 C1096 1.367 . S
C1097 C1105 1.433 . S
C1098 H1094 0.929 . S
C1098 C1100 1.378 . S
C1098 C1102 1.350 . S
C1099 C1102 1.463 . S
C1099 C1104 1.350 . S
C1099 N1107 1.427 . S
C1100 H1091 0.930 . S
C1100 C1098 1.378 . S
C1100 C1101 1.367 . S
C1101 C1100 1.367 . S
C1101 C1103 1.433 . S
C1102 C1098 1.350 . S
C1102 C1099 1.463 . S
C1102 N1106 1.427 . S
C1103 H1093 0.929 . S
C1103 C1101 1.433 . S
C1103 N1106 1.384 . S
C1104 H1095 0.929 . S
C1104 C1096 1.378 . S
C1104 C1099 1.350 . S
C1105 H1092 0.929 . S
C1105 C1097 1.433 . S
C1105 N1107 1.384 . S
N1106 C1102 1.427 . S
N1106 C1103 1.384 . S
N1107 C1099 1.427 . S
N1107 C1105 1.384 . S
H1108 C1114 0.930 . S
H1109 C1118 0.930 . S
H1110 C1123 0.929 . S
H1111 C1121 0.929 . S
H1112 C1116 0.929 . S
H1113 C1122 0.929 . S
C1114 H1108 0.930 . S
C1114 C1115 1.367 . S
C1114 C1122 1.378 . S
C1115 C1114 1.367 . S
C1115 C1123 1.433 . S
C1116 H1112 0.929 . S
C1116 C1118 1.378 . S
C1116 C1120 1.350 . S
C1117 C1120 1.463 . S
C1117 C1122 1.350 . S
C1117 N1125 1.427 . S
C1118 H1109 0.930 . S
C1118 C1116 1.378 . S
C1118 C1119 1.367 . S
C1119 C1118 1.367 . S
C1119 C1121 1.433 . S
C1120 C1116 1.350 . S
C1120 C1117 1.463 . S
C1120 N1124 1.427 . S
C1121 H1111 0.929 . S
C1121 C1119 1.433 . S
C1121 N1124 1.384 . S
C1122 H1113 0.929 . S
C1122 C1114 1.378 . S
C1122 C1117 1.350 . S
C1123 H1110 0.929 . S
C1123 C1115 1.433 . S
C1123 N1125 1.384 . S
N1124 C1120 1.427 . S
N1124 C1121 1.384 . S
N1125 C1117 1.427 . S
N1125 C1123 1.384 . S
H1126 C1132 0.930 . S
H1127 C1136 0.930 . S
H1128 C1141 0.929 . S
H1129 C1139 0.929 . S
H1130 C1134 0.929 . S
H1131 C1140 0.929 . S
C1132 H1126 0.930 . S
C1132 C1133 1.367 . S
C1132 C1140 1.378 . S
C1133 C1132 1.367 . S
C1133 C1141 1.433 . S
C1134 H1130 0.929 . S
C1134 C1136 1.378 . S
C1134 C1138 1.350 . S
C1135 C1138 1.463 . S
C1135 C1140 1.350 . S
C1135 N1143 1.427 . S
C1136 H1127 0.930 . S
C1136 C1134 1.378 . S
C1136 C1137 1.367 . S
C1137 C1136 1.367 . S
C1137 C1139 1.433 . S
C1138 C1134 1.350 . S
C1138 C1135 1.463 . S
C1138 N1142 1.427 . S
C1139 H1129 0.929 . S
C1139 C1137 1.433 . S
C1139 N1142 1.384 . S
C1140 H1131 0.929 . S
C1140 C1132 1.378 . S
C1140 C1135 1.350 . S
C1141 H1128 0.929 . S
C1141 C1133 1.433 . S
C1141 N1143 1.384 . S
N1142 C1138 1.427 . S
N1142 C1139 1.384 . S
N1143 C1135 1.427 . S
N1143 C1141 1.384 . S
H1144 C1150 0.930 . S
H1145 C1154 0.930 . S
H1146 C1159 0.929 . S
H1147 C1157 0.929 . S
H1148 C1152 0.929 . S
H1149 C1158 0.929 . S
C1150 H1144 0.930 . S
C1150 C1151 1.367 . S
C1150 C1158 1.378 . S
C1151 C1150 1.367 . S
C1151 C1159 1.433 . S
C1152 H1148 0.929 . S
C1152 C1154 1.378 . S
C1152 C1156 1.350 . S
C1153 C1156 1.463 . S
C1153 C1158 1.350 . S
C1153 N1161 1.427 . S
C1154 H1145 0.930 . S
C1154 C1152 1.378 . S
C1154 C1155 1.367 . S
C1155 C1154 1.367 . S
C1155 C1157 1.433 . S
C1156 C1152 1.350 . S
C1156 C1153 1.463 . S
C1156 N1160 1.427 . S
C1157 H1147 0.929 . S
C1157 C1155 1.433 . S
C1157 N1160 1.384 . S
C1158 H1149 0.929 . S
C1158 C1150 1.378 . S
C1158 C1153 1.350 . S
C1159 H1146 0.929 . S
C1159 C1151 1.433 . S
C1159 N1161 1.384 . S
N1160 C1156 1.427 . S
N1160 C1157 1.384 . S
N1161 C1153 1.427 . S
N1161 C1159 1.384 . S
H1162 C1168 0.930 . S
H1163 C1172 0.930 . S
H1164 C1177 0.929 . S
H1165 C1175 0.929 . S
H1166 C1170 0.929 . S
H1167 C1176 0.929 . S
C1168 H1162 0.930 . S
C1168 C1169 1.367 . S
C1168 C1176 1.378 . S
C1169 C1168 1.367 . S
C1169 C1177 1.433 . S
C1170 H1166 0.929 . S
C1170 C1172 1.378 . S
C1170 C1174 1.350 . S
C1171 C1174 1.463 . S
C1171 C1176 1.350 . S
C1171 N1179 1.427 . S
C1172 H1163 0.930 . S
C1172 C1170 1.378 . S
C1172 C1173 1.367 . S
C1173 C1172 1.367 . S
C1173 C1175 1.433 . S
C1174 C1170 1.350 . S
C1174 C1171 1.463 . S
C1174 N1178 1.427 . S
C1175 H1165 0.929 . S
C1175 C1173 1.433 . S
C1175 N1178 1.384 . S
C1176 H1167 0.929 . S
C1176 C1168 1.378 . S
C1176 C1171 1.350 . S
C1177 H1164 0.929 . S
C1177 C1169 1.433 . S
C1177 N1179 1.384 . S
N1178 C1174 1.427 . S
N1178 C1175 1.384 . S
N1179 C1171 1.427 . S
N1179 C1177 1.384 . S
H1180 C1186 0.930 . S
H1181 C1190 0.930 . S
H1182 C1195 0.929 . S
H1183 C1193 0.929 . S
H1184 C1188 0.929 . S
H1185 C1194 0.929 . S
C1186 H1180 0.930 . S
C1186 C1187 1.367 . S
C1186 C1194 1.378 . S
C1187 C1186 1.367 . S
C1187 C1195 1.433 . S
C1188 H1184 0.929 . S
C1188 C1190 1.378 . S
C1188 C1192 1.350 . S
C1189 C1192 1.463 . S
C1189 C1194 1.350 . S
C1189 N1197 1.427 . S
C1190 H1181 0.930 . S
C1190 C1188 1.378 . S
C1190 C1191 1.367 . S
C1191 C1190 1.367 . S
C1191 C1193 1.433 . S
C1192 C1188 1.350 . S
C1192 C1189 1.463 . S
C1192 N1196 1.427 . S
C1193 H1183 0.929 . S
C1193 C1191 1.433 . S
C1193 N1196 1.384 . S
C1194 H1185 0.929 . S
C1194 C1186 1.378 . S
C1194 C1189 1.350 . S
C1195 H1182 0.929 . S
C1195 C1187 1.433 . S
C1195 N1197 1.384 . S
N1196 C1192 1.427 . S
N1196 C1193 1.384 . S
N1197 C1189 1.427 . S
N1197 C1195 1.384 . S
H1198 C1204 0.930 . S
H1199 C1208 0.930 . S
H1200 C1213 0.929 . S
H1201 C1211 0.929 . S
H1202 C1206 0.929 . S
H1203 C1212 0.929 . S
C1204 H1198 0.930 . S
C1204 C1205 1.367 . S
C1204 C1212 1.378 . S
C1205 C1204 1.367 . S
C1205 C1213 1.433 . S
C1206 H1202 0.929 . S
C1206 C1208 1.378 . S
C1206 C1210 1.350 . S
C1207 C1210 1.463 . S
C1207 C1212 1.350 . S
C1207 N1215 1.427 . S
C1208 H1199 0.930 . S
C1208 C1206 1.378 . S
C1208 C1209 1.367 . S
C1209 C1208 1.367 . S
C1209 C1211 1.433 . S
C1210 C1206 1.350 . S
C1210 C1207 1.463 . S
C1210 N1214 1.427 . S
C1211 H1201 0.929 . S
C1211 C1209 1.433 . S
C1211 N1214 1.384 . S
C1212 H1203 0.929 . S
C1212 C1204 1.378 . S
C1212 C1207 1.350 . S
C1213 H1200 0.929 . S
C1213 C1205 1.433 . S
C1213 N1215 1.384 . S
N1214 C1210 1.427 . S
N1214 C1211 1.384 . S
N1215 C1207 1.427 . S
N1215 C1213 1.384 . S
H1216 C1222 0.930 . S
H1217 C1226 0.930 . S
H1218 C1231 0.929 . S
H1219 C1229 0.929 . S
H1220 C1224 0.929 . S
H1221 C1230 0.929 . S
C1222 H1216 0.930 . S
C1222 C1223 1.367 . S
C1222 C1230 1.378 . S
C1223 C1222 1.367 . S
C1223 C1231 1.433 . S
C1224 H1220 0.929 . S
C1224 C1226 1.378 . S
C1224 C1228 1.350 . S
C1225 C1228 1.463 . S
C1225 C1230 1.350 . S
C1225 N1233 1.427 . S
C1226 H1217 0.930 . S
C1226 C1224 1.378 . S
C1226 C1227 1.367 . S
C1227 C1226 1.367 . S
C1227 C1229 1.433 . S
C1228 C1224 1.350 . S
C1228 C1225 1.463 . S
C1228 N1232 1.427 . S
C1229 H1219 0.929 . S
C1229 C1227 1.433 . S
C1229 N1232 1.384 . S
C1230 H1221 0.929 . S
C1230 C1222 1.378 . S
C1230 C1225 1.350 . S
C1231 H1218 0.929 . S
C1231 C1223 1.433 . S
C1231 N1233 1.384 . S
N1232 C1228 1.427 . S
N1232 C1229 1.384 . S
N1233 C1225 1.427 . S
N1233 C1231 1.384 . S
H1234 C1240 0.930 . S
H1235 C1244 0.930 . S
H1236 C1249 0.929 . S
H1237 C1247 0.929 . S
H1238 C1242 0.929 . S
H1239 C1248 0.929 . S
C1240 H1234 0.930 . S
C1240 C1241 1.367 . S
C1240 C1248 1.378 . S
C1241 C1240 1.367 . S
C1241 C1249 1.433 . S
C1242 H1238 0.929 . S
C1242 C1244 1.378 . S
C1242 C1246 1.350 . S
C1243 C1246 1.463 . S
C1243 C1248 1.350 . S
C1243 N1251 1.427 . S
C1244 H1235 0.930 . S
C1244 C1242 1.378 . S
C1244 C1245 1.367 . S
C1245 C1244 1.367 . S
C1245 C1247 1.433 . S
C1246 C1242 1.350 . S
C1246 C1243 1.463 . S
C1246 N1250 1.427 . S
C1247 H1237 0.929 . S
C1247 C1245 1.433 . S
C1247 N1250 1.384 . S
C1248 H1239 0.929 . S
C1248 C1240 1.378 . S
C1248 C1243 1.350 . S
C1249 H1236 0.929 . S
C1249 C1241 1.433 . S
C1249 N1251 1.384 . S
N1250 C1246 1.427 . S
N1250 C1247 1.384 . S
N1251 C1243 1.427 . S
N1251 C1249 1.384 . S
H1252 C1258 0.930 . S
H1253 C1262 0.930 . S
H1254 C1267 0.929 . S
H1255 C1265 0.929 . S
H1256 C1260 0.929 . S
H1257 C1266 0.929 . S
C1258 H1252 0.930 . S
C1258 C1259 1.367 . S
C1258 C1266 1.378 . S
C1259 C1258 1.367 . S
C1259 C1267 1.433 . S
C1260 H1256 0.929 . S
C1260 C1262 1.378 . S
C1260 C1264 1.350 . S
C1261 C1264 1.463 . S
C1261 C1266 1.350 . S
C1261 N1269 1.427 . S
C1262 H1253 0.930 . S
C1262 C1260 1.378 . S
C1262 C1263 1.367 . S
C1263 C1262 1.367 . S
C1263 C1265 1.433 . S
C1264 C1260 1.350 . S
C1264 C1261 1.463 . S
C1264 N1268 1.427 . S
C1265 H1255 0.929 . S
C1265 C1263 1.433 . S
C1265 N1268 1.384 . S
C1266 H1257 0.929 . S
C1266 C1258 1.378 . S
C1266 C1261 1.350 . S
C1267 H1254 0.929 . S
C1267 C1259 1.433 . S
C1267 N1269 1.384 . S
N1268 C1264 1.427 . S
N1268 C1265 1.384 . S
N1269 C1261 1.427 . S
N1269 C1267 1.384 . S
H1270 C1276 0.930 . S
H1271 C1280 0.930 . S
H1272 C1285 0.929 . S
H1273 C1283 0.929 . S
H1274 C1278 0.929 . S
H1275 C1284 0.929 . S
C1276 H1270 0.930 . S
C1276 C1277 1.367 . S
C1276 C1284 1.378 . S
C1277 C1276 1.367 . S
C1277 C1285 1.433 . S
C1278 H1274 0.929 . S
C1278 C1280 1.378 . S
C1278 C1282 1.350 . S
C1279 C1282 1.463 . S
C1279 C1284 1.350 . S
C1279 N1287 1.427 . S
C1280 H1271 0.930 . S
C1280 C1278 1.378 . S
C1280 C1281 1.367 . S
C1281 C1280 1.367 . S
C1281 C1283 1.433 . S
C1282 C1278 1.350 . S
C1282 C1279 1.463 . S
C1282 N1286 1.427 . S
C1283 H1273 0.929 . S
C1283 C1281 1.433 . S
C1283 N1286 1.384 . S
C1284 H1275 0.929 . S
C1284 C1276 1.378 . S
C1284 C1279 1.350 . S
C1285 H1272 0.929 . S
C1285 C1277 1.433 . S
C1285 N1287 1.384 . S
N1286 C1282 1.427 . S
N1286 C1283 1.384 . S
N1287 C1279 1.427 . S
N1287 C1285 1.384 . S
H1288 C1294 0.930 . S
H1289 C1298 0.930 . S
H1290 C1303 0.929 . S
H1291 C1301 0.929 . S
H1292 C1296 0.929 . S
H1293 C1302 0.929 . S
C1294 H1288 0.930 . S
C1294 C1295 1.367 . S
C1294 C1302 1.378 . S
C1295 C1294 1.367 . S
C1295 C1303 1.433 . S
C1296 H1292 0.929 . S
C1296 C1298 1.378 . S
C1296 C1300 1.350 . S
C1297 C1300 1.463 . S
C1297 C1302 1.350 . S
C1297 N1305 1.427 . S
C1298 H1289 0.930 . S
C1298 C1296 1.378 . S
C1298 C1299 1.367 . S
C1299 C1298 1.367 . S
C1299 C1301 1.433 . S
C1300 C1296 1.350 . S
C1300 C1297 1.463 . S
C1300 N1304 1.427 . S
C1301 H1291 0.929 . S
C1301 C1299 1.433 . S
C1301 N1304 1.384 . S
C1302 H1293 0.929 . S
C1302 C1294 1.378 . S
C1302 C1297 1.350 . S
C1303 H1290 0.929 . S
C1303 C1295 1.433 . S
C1303 N1305 1.384 . S
N1304 C1300 1.427 . S
N1304 C1301 1.384 . S
N1305 C1297 1.427 . S
N1305 C1303 1.384 . S
H1306 C1312 0.930 . S
H1307 C1316 0.930 . S
H1308 C1321 0.929 . S
H1309 C1319 0.929 . S
H1310 C1314 0.929 . S
H1311 C1320 0.929 . S
C1312 H1306 0.930 . S
C1312 C1313 1.367 . S
C1312 C1320 1.378 . S
C1313 C1312 1.367 . S
C1313 C1321 1.433 . S
C1314 H1310 0.929 . S
C1314 C1316 1.378 . S
C1314 C1318 1.350 . S
C1315 C1318 1.463 . S
C1315 C1320 1.350 . S
C1315 N1323 1.427 . S
C1316 H1307 0.930 . S
C1316 C1314 1.378 . S
C1316 C1317 1.367 . S
C1317 C1316 1.367 . S
C1317 C1319 1.433 . S
C1318 C1314 1.350 . S
C1318 C1315 1.463 . S
C1318 N1322 1.427 . S
C1319 H1309 0.929 . S
C1319 C1317 1.433 . S
C1319 N1322 1.384 . S
C1320 H1311 0.929 . S
C1320 C1312 1.378 . S
C1320 C1315 1.350 . S
C1321 H1308 0.929 . S
C1321 C1313 1.433 . S
C1321 N1323 1.384 . S
N1322 C1318 1.427 . S
N1322 C1319 1.384 . S
N1323 C1315 1.427 . S
N1323 C1321 1.384 . S
H1324 C1330 0.930 . S
H1325 C1334 0.930 . S
H1326 C1339 0.929 . S
H1327 C1337 0.929 . S
H1328 C1332 0.929 . S
H1329 C1338 0.929 . S
C1330 H1324 0.930 . S
C1330 C1331 1.367 . S
C1330 C1338 1.378 . S
C1331 C1330 1.367 . S
C1331 C1339 1.433 . S
C1332 H1328 0.929 . S
C1332 C1334 1.378 . S
C1332 C1336 1.350 . S
C1333 C1336 1.463 . S
C1333 C1338 1.350 . S
C1333 N1341 1.427 . S
C1334 H1325 0.930 . S
C1334 C1332 1.378 . S
C1334 C1335 1.367 . S
C1335 C1334 1.367 . S
C1335 C1337 1.433 . S
C1336 C1332 1.350 . S
C1336 C1333 1.463 . S
C1336 N1340 1.427 . S
C1337 H1327 0.929 . S
C1337 C1335 1.433 . S
C1337 N1340 1.384 . S
C1338 H1329 0.929 . S
C1338 C1330 1.378 . S
C1338 C1333 1.350 . S
C1339 H1326 0.929 . S
C1339 C1331 1.433 . S
C1339 N1341 1.384 . S
N1340 C1336 1.427 . S
N1340 C1337 1.384 . S
N1341 C1333 1.427 . S
N1341 C1339 1.384 . S
H1342 C1348 0.930 . S
H1343 C1352 0.930 . S
H1344 C1357 0.929 . S
H1345 C1355 0.929 . S
H1346 C1350 0.929 . S
H1347 C1356 0.929 . S
C1348 H1342 0.930 . S
C1348 C1349 1.367 . S
C1348 C1356 1.378 . S
C1349 C1348 1.367 . S
C1349 C1357 1.433 . S
C1350 H1346 0.929 . S
C1350 C1352 1.378 . S
C1350 C1354 1.350 . S
C1351 C1354 1.463 . S
C1351 C1356 1.350 . S
C1351 N1359 1.427 . S
C1352 H1343 0.930 . S
C1352 C1350 1.378 . S
C1352 C1353 1.367 . S
C1353 C1352 1.367 . S
C1353 C1355 1.433 . S
C1354 C1350 1.350 . S
C1354 C1351 1.463 . S
C1354 N1358 1.427 . S
C1355 H1345 0.929 . S
C1355 C1353 1.433 . S
C1355 N1358 1.384 . S
C1356 H1347 0.929 . S
C1356 C1348 1.378 . S
C1356 C1351 1.350 . S
C1357 H1344 0.929 . S
C1357 C1349 1.433 . S
C1357 N1359 1.384 . S
N1358 C1354 1.427 . S
N1358 C1355 1.384 . S
N1359 C1351 1.427 . S
N1359 C1357 1.384 . S
H1360 C1366 0.930 . S
H1361 C1370 0.930 . S
H1362 C1375 0.929 . S
H1363 C1373 0.929 . S
H1364 C1368 0.929 . S
H1365 C1374 0.929 . S
C1366 H1360 0.930 . S
C1366 C1367 1.367 . S
C1366 C1374 1.378 . S
C1367 C1366 1.367 . S
C1367 C1375 1.433 . S
C1368 H1364 0.929 . S
C1368 C1370 1.378 . S
C1368 C1372 1.350 . S
C1369 C1372 1.463 . S
C1369 C1374 1.350 . S
C1369 N1377 1.427 . S
C1370 H1361 0.930 . S
C1370 C1368 1.378 . S
C1370 C1371 1.367 . S
C1371 C1370 1.367 . S
C1371 C1373 1.433 . S
C1372 C1368 1.350 . S
C1372 C1369 1.463 . S
C1372 N1376 1.427 . S
C1373 H1363 0.929 . S
C1373 C1371 1.433 . S
C1373 N1376 1.384 . S
C1374 H1365 0.929 . S
C1374 C1366 1.378 . S
C1374 C1369 1.350 . S
C1375 H1362 0.929 . S
C1375 C1367 1.433 . S
C1375 N1377 1.384 . S
N1376 C1372 1.427 . S
N1376 C1373 1.384 . S
N1377 C1369 1.427 . S
N1377 C1375 1.384 . S
H1378 C1384 0.930 . S
H1379 C1388 0.930 . S
H1380 C1393 0.929 . S
H1381 C1391 0.929 . S
H1382 C1386 0.929 . S
H1383 C1392 0.929 . S
C1384 H1378 0.930 . S
C1384 C1385 1.367 . S
C1384 C1392 1.378 . S
C1385 C1384 1.367 . S
C1385 C1393 1.433 . S
C1386 H1382 0.929 . S
C1386 C1388 1.378 . S
C1386 C1390 1.350 . S
C1387 C1390 1.463 . S
C1387 C1392 1.350 . S
C1387 N1395 1.427 . S
C1388 H1379 0.930 . S
C1388 C1386 1.378 . S
C1388 C1389 1.367 . S
C1389 C1388 1.367 . S
C1389 C1391 1.433 . S
C1390 C1386 1.350 . S
C1390 C1387 1.463 . S
C1390 N1394 1.427 . S
C1391 H1381 0.929 . S
C1391 C1389 1.433 . S
C1391 N1394 1.384 . S
C1392 H1383 0.929 . S
C1392 C1384 1.378 . S
C1392 C1387 1.350 . S
C1393 H1380 0.929 . S
C1393 C1385 1.433 . S
C1393 N1395 1.384 . S
N1394 C1390 1.427 . S
N1394 C1391 1.384 . S
N1395 C1387 1.427 . S
N1395 C1393 1.384 . S
H1396 C1402 0.930 . S
H1397 C1406 0.930 . S
H1398 C1411 0.929 . S
H1399 C1409 0.929 . S
H1400 C1404 0.929 . S
H1401 C1410 0.929 . S
C1402 H1396 0.930 . S
C1402 C1403 1.367 . S
C1402 C1410 1.378 . S
C1403 C1402 1.367 . S
C1403 C1411 1.433 . S
C1404 H1400 0.929 . S
C1404 C1406 1.378 . S
C1404 C1408 1.350 . S
C1405 C1408 1.463 . S
C1405 C1410 1.350 . S
C1405 N1413 1.427 . S
C1406 H1397 0.930 . S
C1406 C1404 1.378 . S
C1406 C1407 1.367 . S
C1407 C1406 1.367 . S
C1407 C1409 1.433 . S
C1408 C1404 1.350 . S
C1408 C1405 1.463 . S
C1408 N1412 1.427 . S
C1409 H1399 0.929 . S
C1409 C1407 1.433 . S
C1409 N1412 1.384 . S
C1410 H1401 0.929 . S
C1410 C1402 1.378 . S
C1410 C1405 1.350 . S
C1411 H1398 0.929 . S
C1411 C1403 1.433 . S
C1411 N1413 1.384 . S
N1412 C1408 1.427 . S
N1412 C1409 1.384 . S
N1413 C1405 1.427 . S
N1413 C1411 1.384 . S
H1414 C1420 0.930 . S
H1415 C1424 0.930 . S
H1416 C1429 0.929 . S
H1417 C1427 0.929 . S
H1418 C1422 0.929 . S
H1419 C1428 0.929 . S
C1420 H1414 0.930 . S
C1420 C1421 1.367 . S
C1420 C1428 1.378 . S
C1421 C1420 1.367 . S
C1421 C1429 1.433 . S
C1422 H1418 0.929 . S
C1422 C1424 1.378 . S
C1422 C1426 1.350 . S
C1423 C1426 1.463 . S
C1423 C1428 1.350 . S
C1423 N1431 1.427 . S
C1424 H1415 0.930 . S
C1424 C1422 1.378 . S
C1424 C1425 1.367 . S
C1425 C1424 1.367 . S
C1425 C1427 1.433 . S
C1426 C1422 1.350 . S
C1426 C1423 1.463 . S
C1426 N1430 1.427 . S
C1427 H1417 0.929 . S
C1427 C1425 1.433 . S
C1427 N1430 1.384 . S
C1428 H1419 0.929 . S
C1428 C1420 1.378 . S
C1428 C1423 1.350 . S
C1429 H1416 0.929 . S
C1429 C1421 1.433 . S
C1429 N1431 1.384 . S
N1430 C1426 1.427 . S
N1430 C1427 1.384 . S
N1431 C1423 1.427 . S
N1431 C1429 1.384 . S
H1432 C1438 0.930 . S
H1433 C1442 0.930 . S
H1434 C1447 0.929 . S
H1435 C1445 0.929 . S
H1436 C1440 0.929 . S
H1437 C1446 0.929 . S
C1438 H1432 0.930 . S
C1438 C1439 1.367 . S
C1438 C1446 1.378 . S
C1439 C1438 1.367 . S
C1439 C1447 1.433 . S
C1440 H1436 0.929 . S
C1440 C1442 1.378 . S
C1440 C1444 1.350 . S
C1441 C1444 1.463 . S
C1441 C1446 1.350 . S
C1441 N1449 1.427 . S
C1442 H1433 0.930 . S
C1442 C1440 1.378 . S
C1442 C1443 1.367 . S
C1443 C1442 1.367 . S
C1443 C1445 1.433 . S
C1444 C1440 1.350 . S
C1444 C1441 1.463 . S
C1444 N1448 1.427 . S
C1445 H1435 0.929 . S
C1445 C1443 1.433 . S
C1445 N1448 1.384 . S
C1446 H1437 0.929 . S
C1446 C1438 1.378 . S
C1446 C1441 1.350 . S
C1447 H1434 0.929 . S
C1447 C1439 1.433 . S
C1447 N1449 1.384 . S
N1448 C1444 1.427 . S
N1448 C1445 1.384 . S
N1449 C1441 1.427 . S
N1449 C1447 1.384 . S
H1450 C1456 0.930 . S
H1451 C1460 0.930 . S
H1452 C1465 0.929 . S
H1453 C1463 0.929 . S
H1454 C1458 0.929 . S
H1455 C1464 0.929 . S
C1456 H1450 0.930 . S
C1456 C1457 1.367 . S
C1456 C1464 1.378 . S
C1457 C1456 1.367 . S
C1457 C1465 1.433 . S
C1458 H1454 0.929 . S
C1458 C1460 1.378 . S
C1458 C1462 1.350 . S
C1459 C1462 1.463 . S
C1459 C1464 1.350 . S
C1459 N1467 1.427 . S
C1460 H1451 0.930 . S
C1460 C1458 1.378 . S
C1460 C1461 1.367 . S
C1461 C1460 1.367 . S
C1461 C1463 1.433 . S
C1462 C1458 1.350 . S
C1462 C1459 1.463 . S
C1462 N1466 1.427 . S
C1463 H1453 0.929 . S
C1463 C1461 1.433 . S
C1463 N1466 1.384 . S
C1464 H1455 0.929 . S
C1464 C1456 1.378 . S
C1464 C1459 1.350 . S
C1465 H1452 0.929 . S
C1465 C1457 1.433 . S
C1465 N1467 1.384 . S
N1466 C1462 1.427 . S
N1466 C1463 1.384 . S
N1467 C1459 1.427 . S
N1467 C1465 1.384 . S
H1468 C1474 0.930 . S
H1469 C1478 0.930 . S
H1470 C1483 0.929 . S
H1471 C1481 0.929 . S
H1472 C1476 0.929 . S
H1473 C1482 0.929 . S
C1474 H1468 0.930 . S
C1474 C1475 1.367 . S
C1474 C1482 1.378 . S
C1475 C1474 1.367 . S
C1475 C1483 1.433 . S
C1476 H1472 0.929 . S
C1476 C1478 1.378 . S
C1476 C1480 1.350 . S
C1477 C1480 1.463 . S
C1477 C1482 1.350 . S
C1477 N1485 1.427 . S
C1478 H1469 0.930 . S
C1478 C1476 1.378 . S
C1478 C1479 1.367 . S
C1479 C1478 1.367 . S
C1479 C1481 1.433 . S
C1480 C1476 1.350 . S
C1480 C1477 1.463 . S
C1480 N1484 1.427 . S
C1481 H1471 0.929 . S
C1481 C1479 1.433 . S
C1481 N1484 1.384 . S
C1482 H1473 0.929 . S
C1482 C1474 1.378 . S
C1482 C1477 1.350 . S
C1483 H1470 0.929 . S
C1483 C1475 1.433 . S
C1483 N1485 1.384 . S
N1484 C1480 1.427 . S
N1484 C1481 1.384 . S
N1485 C1477 1.427 . S
N1485 C1483 1.384 . S
H1486 C1492 0.930 . S
H1487 C1496 0.930 . S
H1488 C1501 0.929 . S
H1489 C1499 0.929 . S
H1490 C1494 0.929 . S
H1491 C1500 0.929 . S
C1492 H1486 0.930 . S
C1492 C1493 1.367 . S
C1492 C1500 1.378 . S
C1493 C1492 1.367 . S
C1493 C1501 1.433 . S
C1494 H1490 0.929 . S
C1494 C1496 1.378 . S
C1494 C1498 1.350 . S
C1495 C1498 1.463 . S
C1495 C1500 1.350 . S
C1495 N1503 1.427 . S
C1496 H1487 0.930 . S
C1496 C1494 1.378 . S
C1496 C1497 1.367 . S
C1497 C1496 1.367 . S
C1497 C1499 1.433 . S
C1498 C1494 1.350 . S
C1498 C1495 1.463 . S
C1498 N1502 1.427 . S
C1499 H1489 0.929 . S
C1499 C1497 1.433 . S
C1499 N1502 1.384 . S
C1500 H1491 0.929 . S
C1500 C1492 1.378 . S
C1500 C1495 1.350 . S
C1501 H1488 0.929 . S
C1501 C1493 1.433 . S
C1501 N1503 1.384 . S
N1502 C1498 1.427 . S
N1502 C1499 1.384 . S
N1503 C1495 1.427 . S
N1503 C1501 1.384 . S
C647 C131 1.790 . S
C651 C19 1.803 . S
C665 C2 0.574 . S
C669 C56 0.601 . S
C683 C90 1.323 . S
C687 C59 1.323 . S
C701 C127 1.180 . S
C705 C87 1.188 . S
C719 C167 1.939 . S
C723 C202 1.940 . S
C737 C219 1.217 . S
C741 C259 1.206 . S
C755 C256 0.966 . S
C759 C287 0.951 . S
C773 C171 1.942 . S
C777 C290 1.978 . S
C791 C376 1.702 . S
C795 C16 1.680 . S
C809 C402 2.177 . S
C813 C42 2.195 . S
C827 C91 4.387 . S
C831 C531 4.386 . S
C845 C330 0.755 . S
C849 C130 0.757 . S
C863 C450 0.903 . S
C867 C170 0.883 . S
C881 C571 2.955 . S
C885 C216 2.972 . S
C899 C242 1.469 . S
C903 C482 1.407 . S
C917 C611 4.230 . S
C921 C291 4.194 . S
C935 C331 1.771 . S
C939 C530 1.798 . S
C953 C362 1.237 . S
C957 C327 1.255 . S
C971 C419 0.696 . S
C975 C379 0.706 . S
C989 C570 1.876 . S
C993 C451 1.883 . S
C1007 C499 0.639 . S
C1011 C610 0.585 . S
C1025 C442 1.797 . S
C1029 C10 1.805 . S
C1043 C487 0.610 . S
C1047 C11 0.559 . S
C1061 C490 1.327 . S
C1065 C99 1.316 . S
C1079 C96 1.198 . S
C1083 C456 1.191 . S
C1097 C371 1.941 . S
C1101 C176 1.941 . S
C1115 C370 1.217 . S
C1119 C250 1.203 . S
C1133 C536 0.951 . S
C1137 C247 0.967 . S
C1151 C162 1.940 . S
C1155 C539 1.976 . S
C1169 C207 1.698 . S
C1173 C7 1.681 . S
C1187 C411 2.170 . S
C1191 C491 2.191 . S
C1205 C82 4.384 . S
C1209 C282 4.389 . S
C1223 C339 0.750 . S
C1227 C459 0.756 . S
C1241 C139 0.902 . S
C1245 C179 0.884 . S
C1259 C367 2.971 . S
C1263 C562 2.957 . S
C1277 C251 1.467 . S
C1281 C51 1.416 . S
C1295 C602 4.229 . S
C1299 C522 4.194 . S
C1313 C322 1.773 . S
C1317 C299 1.797 . S
C1331 C336 1.260 . S
C1335 C211 1.239 . S
C1349 C410 0.711 . S
C1353 C210 0.705 . S
C1367 C122 1.887 . S
C1371 C579 1.870 . S
C1385 C50 0.622 . S
C1389 C619 0.567 . S
C1403 C496 0.544 . S
C1407 C567 0.459 . S
C1421 C447 1.235 . S
C1425 C607 1.233 . S
C1439 C416 0.820 . S
C1443 C527 0.807 . S
C1457 C576 0.457 . S
C1461 C47 0.542 . S
C1475 C136 1.241 . S
C1479 C616 1.242 . S
C1493 C296 0.822 . S
C1497 C407 0.816 . S
