# Generated by pormake.
# Topology snz, (6)-cn, num edge types: 1
# Building blocks:
#     Node 0, Type 0, BuildingBlock: BETFEN_clean_sbu_0, # of connection points: 6
#     Node 1, Type 0, BuildingBlock: BETFEN_clean_sbu_0, # of connection points: 6
#     Node 2, Type 0, BuildingBlock: BETFEN_clean_sbu_0, # of connection points: 6
#     Node 3, Type 0, BuildingBlock: BETFEN_clean_sbu_0, # of connection points: 6
#     Node 4, Type 0, BuildingBlock: BETFEN_clean_sbu_0, # of connection points: 6
#     Node 5, Type 0, BuildingBlock: BETFEN_clean_sbu_0, # of connection points: 6
#     Node 6, Type 0, BuildingBlock: BETFEN_clean_sbu_0, # of connection points: 6
#     Node 7, Type 0, BuildingBlock: BETFEN_clean_sbu_0, # of connection points: 6
#     Node 8, Type 0, BuildingBlock: BETFEN_clean_sbu_0, # of connection points: 6
#     Edge 9, Type (0, 0), BuildingBlock: OJICUG_clean_linker_0, # of connection points: 2
#     Edge 10, Type (0, 0), BuildingBlock: OJICUG_clean_linker_0, # of connection points: 2
#     Edge 11, Type (0, 0), BuildingBlock: OJICUG_clean_linker_0, # of connection points: 2
#     Edge 12, Type (0, 0), BuildingBlock: OJICUG_clean_linker_0, # of connection points: 2
#     Edge 13, Type (0, 0), BuildingBlock: OJICUG_clean_linker_0, # of connection points: 2
#     Edge 14, Type (0, 0), BuildingBlock: OJICUG_clean_linker_0, # of connection points: 2
#     Edge 15, Type (0, 0), BuildingBlock: OJICUG_clean_linker_0, # of connection points: 2
#     Edge 16, Type (0, 0), BuildingBlock: OJICUG_clean_linker_0, # of connection points: 2
#     Edge 17, Type (0, 0), BuildingBlock: OJICUG_clean_linker_0, # of connection points: 2
#     Edge 18, Type (0, 0), BuildingBlock: OJICUG_clean_linker_0, # of connection points: 2
#     Edge 19, Type (0, 0), BuildingBlock: OJICUG_clean_linker_0, # of connection points: 2
#     Edge 20, Type (0, 0), BuildingBlock: OJICUG_clean_linker_0, # of connection points: 2
#     Edge 21, Type (0, 0), BuildingBlock: OJICUG_clean_linker_0, # of connection points: 2
#     Edge 22, Type (0, 0), BuildingBlock: OJICUG_clean_linker_0, # of connection points: 2
#     Edge 23, Type (0, 0), BuildingBlock: OJICUG_clean_linker_0, # of connection points: 2
#     Edge 24, Type (0, 0), BuildingBlock: OJICUG_clean_linker_0, # of connection points: 2
#     Edge 25, Type (0, 0), BuildingBlock: OJICUG_clean_linker_0, # of connection points: 2
#     Edge 26, Type (0, 0), BuildingBlock: OJICUG_clean_linker_0, # of connection points: 2
#     Edge 27, Type (0, 0), BuildingBlock: OJICUG_clean_linker_0, # of connection points: 2
#     Edge 28, Type (0, 0), BuildingBlock: OJICUG_clean_linker_0, # of connection points: 2
#     Edge 29, Type (0, 0), BuildingBlock: OJICUG_clean_linker_0, # of connection points: 2
#     Edge 30, Type (0, 0), BuildingBlock: OJICUG_clean_linker_0, # of connection points: 2
#     Edge 31, Type (0, 0), BuildingBlock: OJICUG_clean_linker_0, # of connection points: 2
#     Edge 32, Type (0, 0), BuildingBlock: OJICUG_clean_linker_0, # of connection points: 2
#     Edge 33, Type (0, 0), BuildingBlock: OJICUG_clean_linker_0, # of connection points: 2
#     Edge 34, Type (0, 0), BuildingBlock: OJICUG_clean_linker_0, # of connection points: 2
#     Edge 35, Type (0, 0), BuildingBlock: OJICUG_clean_linker_0, # of connection points: 2
# Relax obj value: 0.632
# Max RMSD: 0.284
# Mean RMSD: 0.189
data_MOF--net-snz--node1-BETFEN_clean_sbu_0--edge1-OJICUG_clean_linker_0
_symmetry_space_group_name_H-M    P1
_symmetry_Int_Tables_number       1
_symmetry_cell_setting            triclinic
loop_
_symmetry_equiv_pos_as_xyz
'x, y, z'
_cell_length_a     54.442244
_cell_length_b     41.885917
_cell_length_c     11.991849
_cell_angle_alpha  97.272615
_cell_angle_beta   98.330296
_cell_angle_gamma 121.58062
loop_
_atom_site_label
_atom_site_type_symbol
_atom_site_fract_x
_atom_site_fract_y
_atom_site_fract_z
_atom_type_partial_charge
Pr0 Pr 0.15978 0.50468 0.3281 0.0
Pr1 Pr 0.11891 0.51428 0.33441 0.0
C2 C 0.19798 0.48117 0.3622 0.0
C3 C 0.209 0.46297 0.43681 0.0
C4 C 0.19142 0.42329 0.43373 0.0
C5 C 0.20343 0.40576 0.4935 0.0
C6 C 0.23342 0.42732 0.55749 0.0
C7 C 0.25059 0.46727 0.56357 0.0
C8 C 0.2386 0.48473 0.50387 0.0
C9 C 0.14762 0.51541 1.09445 0.0
C10 C 0.09161 0.42391 0.2413 0.0
C11 C 0.08088 0.53768 0.33913 0.0
C12 C 0.06903 0.55951 0.29471 0.0
C13 C 0.04623 0.55894 0.33753 0.0
C14 C 1.03454 0.57958 0.29955 0.0
C15 C 0.04531 0.60128 0.21724 0.0
C16 C 0.06872 0.60248 0.17612 0.0
C17 C 0.0805 0.58174 0.21461 0.0
C18 C 0.1323 0.50154 0.56461 0.0
C19 C 0.1838 0.59579 0.38009 0.0
O20 O 0.17107 0.45976 0.29554 0.0
O21 O 0.20556 0.51627 0.40346 0.0
O22 O 0.12775 0.49735 0.15056 0.0
O23 O 0.17361 0.53035 0.16376 0.0
O24 O 0.08447 0.44913 0.23398 0.0
O25 O 0.11954 0.43786 0.2927 0.0
O26 O 0.07359 0.50535 0.27271 0.0
O27 O 0.10816 0.55739 0.40209 0.0
O28 O 0.1514 0.5224 0.51012 0.0
O29 O 0.10632 0.48336 0.49232 0.0
O30 O 0.19277 0.57303 0.40228 0.0
O31 O 0.15536 0.57874 0.33127 0.0
H32 H 0.16857 0.40543 0.38234 0.0
H33 H 0.18951 0.37494 0.48547 0.0
H34 H 0.27359 0.48513 0.61328 0.0
H35 H 0.25285 0.51525 0.50772 0.0
H36 H 1.03738 0.54241 0.40071 0.0
H37 H 1.01691 0.57838 0.33459 0.0
H38 H 0.07738 0.61857 1.11196 0.0
H39 H 0.09833 0.58283 0.18139 0.0
Pr40 Pr 0.66708 0.52878 1.07999 0.0
Pr41 Pr 0.62415 0.53314 1.03039 0.0
C42 C 0.72117 0.5379 1.11127 0.0
C43 C 0.74969 0.55777 1.07621 0.0
C44 C 0.7638 0.53828 1.05769 0.0
C45 C 0.79124 0.55656 1.02858 0.0
C46 C 0.80539 0.59494 1.01718 0.0
C47 C 0.7913 0.6146 1.03668 0.0
C48 C 0.76371 0.59618 1.06556 0.0
C49 C 0.64679 0.52335 0.29506 0.0
C50 C 0.68338 0.61864 1.10892 0.0
C51 C 0.57074 0.52413 1.01613 0.0
C52 C 0.55023 0.50945 1.09177 0.0
C53 C 0.52607 0.51347 1.08241 0.0
C54 C 0.50727 0.5002 0.15756 0.0
C55 C 0.51228 0.48243 0.2422 0.0
C56 C 0.53653 0.47849 0.25084 0.0
C57 C 0.55541 0.49208 0.1769 0.0
C58 C 0.64355 0.5376 0.81301 0.0
C59 C 0.60601 0.44317 1.00254 0.0
O60 O 0.69749 0.50965 1.03421 0.0
O61 O 0.71547 0.55913 0.17706 0.0
O62 O 0.64835 0.54635 0.23007 0.0
O63 O 0.65305 0.50055 0.24161 0.0
O64 O 0.6551 0.6007 1.10757 0.0
O65 O 0.69324 0.59655 1.0825 0.0
O66 O 0.57412 0.49893 0.95736 0.0
O67 O 0.59602 0.55682 1.06361 0.0
O68 O 0.64287 0.51539 0.87976 0.0
O69 O 0.63618 0.55937 0.86425 0.0
O70 O 0.63423 0.46057 1.00075 0.0
O71 O 0.5971 0.466 1.03248 0.0
H72 H 0.75365 0.50884 1.06661 0.0
H73 H 0.80154 0.54063 1.01612 0.0
H74 H 0.80134 0.644 1.02764 0.0
H75 H 0.75336 0.61198 1.07956 0.0
H76 H 0.52184 0.52697 1.01754 0.0
H77 H 0.48866 0.50345 0.14879 0.0
H78 H 0.54121 0.46547 0.31626 0.0
H79 H 0.57424 0.48926 0.18678 0.0
Pr80 Pr 0.61716 0.0631 0.83508 0.0
Pr81 Pr 0.66406 0.1159 0.891 0.0
C82 C 0.56012 1.00357 0.80248 0.0
C83 C 0.5409 0.98992 0.88315 0.0
C84 C 0.51672 0.95141 0.85794 0.0
C85 C 0.49941 0.93804 0.93772 0.0
C86 C 0.50595 0.96311 1.04361 0.0
C87 C 0.53012 1.00177 1.06805 0.0
C88 C 0.54755 1.01498 0.9889 0.0
C89 C 0.63533 0.07495 0.61462 0.0
C90 C 0.61349 0.13788 0.86371 0.0
C91 C 0.72511 0.16682 0.95475 0.0
C92 C 0.75251 0.16798 0.93298 0.0
C93 C 0.77139 0.19393 0.87325 0.0
C94 C 0.79776 0.19653 0.85874 0.0
C95 C 0.80662 0.17336 0.90367 0.0
C96 C 0.78753 0.14728 0.96311 0.0
C97 C 0.76123 0.14475 0.97766 0.0
C98 C 0.64806 0.08193 1.1186 0.0
C99 C 0.6609 0.03767 0.88865 0.0
O100 O 0.56752 0.03703 0.78301 0.0
O101 O 0.58255 0.99977 0.81888 0.0
O102 O 0.63861 0.10043 0.69638 0.0
O103 O 0.62568 0.04376 0.65218 0.0
O104 O 0.6424 0.15406 0.86887 0.0
O105 O 0.59803 0.1013 0.86265 0.0
O106 O 0.70774 0.16879 0.87255 0.0
O107 O 0.70967 0.14321 1.01468 0.0
O108 O 0.64038 0.0966 1.04117 0.0
O109 O 0.63975 0.09681 1.04294 0.0
O110 O 0.63653 0.03064 0.91465 0.0
O111 O 0.67422 0.06759 0.84399 0.0
H112 H 0.51139 0.93162 0.77711 0.0
H113 H 0.48078 0.90819 0.91631 0.0
H114 H 0.53591 0.0216 0.14946 0.0
H115 H 0.56644 0.04471 1.0108 0.0
H116 H 0.76599 0.2128 0.83876 0.0
H117 H 0.81157 0.21753 0.814 0.0
H118 H 0.79268 0.1283 0.99814 0.0
H119 H 0.74778 0.12453 1.0252 0.0
Pr120 Pr 0.82855 0.87158 0.28995 0.0
Pr121 Pr 0.78824 0.88178 0.29718 0.0
C122 C 0.86566 0.84677 0.28289 0.0
C123 C 0.8779 0.82541 0.32776 0.0
C124 C 0.90085 0.82638 0.28509 0.0
C125 C 0.91272 0.80588 0.32266 0.0
C126 C 0.90198 0.78393 0.40446 0.0
C127 C 0.87848 0.78241 0.44567 0.0
C128 C 0.86652 0.80298 0.40754 0.0
C129 C 0.81543 0.88449 1.05979 0.0
C130 C 0.76357 0.7906 0.24024 0.0
C131 C 0.75126 0.9074 0.27139 0.0
C132 C 0.73695 0.92218 0.19778 0.0
C133 C 0.71311 0.92275 0.22652 0.0
C134 C 0.70075 0.93982 0.16717 0.0
C135 C 0.71174 0.95677 1.0762 0.0
C136 C 0.73558 0.95581 1.04665 0.0
C137 C 0.74808 0.93878 1.1069 0.0
C138 C 0.80042 0.87087 0.53057 0.0
C139 C 0.85689 0.96199 0.38684 0.0
O140 O 0.87389 0.88004 0.34619 0.0
O141 O 0.83792 0.82683 0.22475 0.0
O142 O 0.79612 0.86398 1.11413 0.0
O143 O 0.84137 0.9023 0.13205 0.0
O144 O 0.75519 0.8137 0.21463 0.0
O145 O 0.79167 0.80749 0.29415 0.0
O146 O 0.77992 0.92964 0.3138 0.0
O147 O 0.74178 0.871 0.24457 0.0
O148 O 0.82022 0.88902 0.47442 0.0
O149 O 0.77444 0.85602 0.46141 0.0
O150 O 0.86368 0.93638 0.3923 0.0
O151 O 0.829 0.94851 0.33637 0.0
H152 H 0.90963 0.84305 0.2221 0.0
H153 H 0.93041 0.80732 0.28752 0.0
H154 H 0.86985 0.76613 0.5095 0.0
H155 H 0.84857 0.80157 0.44063 0.0
H156 H 0.70444 0.91077 0.29747 0.0
H157 H 0.68302 0.9406 0.1953 0.0
H158 H 0.7446 0.96815 0.97685 0.0
H159 H 0.76667 0.93904 1.0836 0.0
Pr160 Pr 0.32307 0.85297 0.58797 0.0
Pr161 Pr 0.28026 0.85743 0.5386 0.0
C162 C 0.37667 0.86283 0.60096 0.0
C163 C 0.39682 0.87843 0.52456 0.0
C164 C 0.42257 0.87788 0.53699 0.0
C165 C 0.4411 0.89221 0.46147 0.0
C166 C 0.43419 0.90757 0.37325 0.0
C167 C 0.4084 0.90819 0.3619 0.0
C168 C 0.38984 0.89357 0.43636 0.0
C169 C 0.30406 0.8488 0.80609 0.0
C170 C 0.34131 0.94275 0.61579 0.0
C171 C 0.2262 0.84841 0.50699 0.0
C172 C 0.19769 0.82839 0.54202 0.0
C173 C 0.18343 0.84768 0.56034 0.0
C174 C 0.15603 0.82926 0.58974 0.0
C175 C 0.14209 0.79094 0.60163 0.0
C176 C 0.15632 0.77148 0.5823 0.0
C177 C 0.18388 0.79004 0.55315 0.0
C178 C 0.30079 0.86302 0.32401 0.0
C179 C 0.26395 0.7676 0.50992 0.0
O180 O 0.37308 0.88746 0.66179 0.0
O181 O 0.35153 0.82997 0.55314 0.0
O182 O 0.3044 0.87077 0.73899 0.0
O183 O 0.31144 0.82703 0.7548 0.0
O184 O 0.31318 0.92551 0.61853 0.0
O185 O 0.35006 0.91986 0.58482 0.0
O186 O 0.24986 0.87657 0.58434 0.0
O187 O 0.23195 0.8273 0.4409 0.0
O188 O 0.29879 0.83971 0.38846 0.0
O189 O 0.29475 0.88602 0.37779 0.0
O190 O 0.29222 0.78546 0.5112 0.0
O191 O 0.25412 0.78972 0.53646 0.0
H192 H 0.42826 0.86626 0.60452 0.0
H193 H 0.46094 0.8916 0.47262 0.0
H194 H 0.40225 0.91931 0.2939 0.0
H195 H 0.36983 0.89381 0.42445 0.0
H196 H 0.19343 0.87707 0.5511 0.0
H197 H 0.1456 0.84503 0.60209 0.0
H198 H 0.14644 0.74214 0.59171 0.0
H199 H 0.19436 0.77441 0.53937 0.0
Pr200 Pr 0.28591 0.27165 0.73659 0.0
Pr201 Pr 0.33254 0.32564 0.79322 0.0
C202 C 0.22496 0.22017 0.67281 0.0
C203 C 0.19751 0.21881 0.69488 0.0
C204 C 0.17775 0.19118 0.74834 0.0
C205 C 0.1513 0.18839 0.76277 0.0
C206 C 0.14325 0.21303 0.72387 0.0
C207 C 0.16322 0.24081 0.67082 0.0
C208 C 0.18962 0.24358 0.65655 0.0
C209 C 0.30172 0.30589 0.50915 0.0
C210 C 0.28745 0.34858 0.73565 0.0
C211 C 0.38887 0.38632 0.82034 0.0
C212 C 0.40641 0.40101 0.73501 0.0
C213 C 0.43207 0.43853 0.76335 0.0
C214 C 0.44852 0.45221 0.68113 0.0
C215 C 0.43962 0.42842 0.56973 0.0
C216 C 0.41371 0.39095 0.54164 0.0
C217 C 0.39718 0.37746 0.62327 0.0
C218 C 0.31429 0.3135 1.01324 0.0
C219 C 0.33781 0.25186 0.77383 0.0
O220 O 0.24027 0.24386 0.61276 0.0
O221 O 0.24247 0.21836 0.75495 0.0
O222 O 0.30967 0.29158 0.58711 0.0
O223 O 0.31033 0.29139 0.58528 0.0
O224 O 0.31193 0.35616 0.70979 0.0
O225 O 0.27483 0.3191 0.78259 0.0
O226 O 0.38231 0.35258 0.83391 0.0
O227 O 0.36624 0.38964 0.81392 0.0
O228 O 0.31144 0.28823 0.93189 0.0
O229 O 0.32375 0.3447 0.97571 0.0
O230 O 0.30832 0.2342 0.75628 0.0
O231 O 0.35326 0.28905 0.78406 0.0
H232 H 0.18252 0.17116 0.77787 0.0
H233 H 0.13681 0.16612 0.80254 0.0
H234 H 0.15867 0.26092 0.64071 0.0
H235 H 0.20382 0.26521 0.61425 0.0
H236 H 0.43942 0.45713 0.849 0.0
H237 H 0.46851 0.48111 0.70534 0.0
H238 H 0.40611 0.37215 0.45614 0.0
H239 H 0.3772 0.34854 0.59929 0.0
Pr240 Pr 0.47367 0.19463 0.71578 0.0
Pr241 Pr 0.4737 0.18952 0.91209 0.0
C242 C 0.45126 0.18316 0.48855 0.0
C243 C 0.42361 0.1479 0.41655 0.0
C244 C 0.41796 0.13984 0.29581 0.0
C245 C 0.39714 0.10206 0.23031 0.0
C246 C 0.38216 0.07158 0.2855 0.0
C247 C 0.38439 0.08139 0.40471 0.0
C248 C 0.40516 0.11922 0.46975 0.0
C249 C 0.51986 0.27164 0.84687 0.0
C250 C 0.42559 0.20754 0.82123 0.0
C251 C 0.48381 0.17809 0.12405 0.0
C252 C 0.47692 0.14037 0.14135 0.0
C253 C 0.46824 0.11092 1.04373 0.0
C254 C 0.45209 0.07224 1.04899 0.0
C255 C 0.44412 0.06249 0.15187 0.0
C256 C 0.45764 0.09262 0.25416 0.0
C257 C 0.47358 0.13128 0.24831 0.0
C258 C 0.42774 0.11366 0.77275 0.0
C259 C 0.5251 0.18108 0.81653 0.0
O260 O 0.47262 0.17856 0.52653 0.0
O261 O 0.44788 0.20322 0.56957 0.0
O262 O 0.4948 0.25078 0.87062 0.0
O263 O 0.52164 0.25218 0.75902 0.0
O264 O 0.44604 0.21873 0.91745 0.0
O265 O 0.42801 0.1894 0.72982 0.0
O266 O 0.50504 0.19526 1.07199 0.0
O267 O 0.46055 0.17844 1.08103 0.0
O268 O 0.45393 0.13425 0.75896 0.0
O269 O 0.42423 0.13385 0.85161 0.0
O270 O 0.50799 0.17514 0.7162 0.0
O271 O 0.51883 0.19249 0.90928 0.0
H272 H 0.43151 0.16183 0.25313 0.0
H273 H 0.39597 0.09642 0.13845 0.0
H274 H 0.37275 0.05914 0.44997 0.0
H275 H 0.40862 0.12525 0.56299 0.0
H276 H 0.47141 0.11756 0.96055 0.0
H277 H 0.44275 0.05006 0.96933 0.0
H278 H 0.4527 0.08684 0.33635 0.0
H279 H 0.48072 0.15368 0.32486 0.0
Pr280 Pr 0.97163 0.16828 0.8669 0.0
Pr281 Pr 0.97809 0.21774 0.76136 0.0
C282 C 0.95671 0.11278 0.98671 0.0
C283 C 0.94739 0.11211 1.09374 0.0
C284 C 0.97522 0.12046 0.21709 0.0
C285 C 0.98477 0.15155 0.35613 0.0
C286 C 0.96067 0.178 0.37509 0.0
C287 C 0.92896 0.16482 0.21868 0.0
C288 C 0.92501 0.13221 1.09483 0.0
C289 C 0.94806 0.12538 0.636 0.0
C290 C 0.91814 0.18548 0.84368 0.0
C291 C 0.99303 0.27355 0.64272 0.0
C292 C 1.00244 0.27443 0.53583 0.0
C293 C 0.97462 0.26607 0.41244 0.0
C294 C 0.96508 0.23498 0.27342 0.0
C295 C 0.98918 0.20853 0.25451 0.0
C296 C 1.02089 0.22173 0.41099 0.0
C297 C 1.02483 0.25435 0.53479 0.0
C298 C 1.00136 0.26029 0.99273 0.0
C299 C 1.03146 0.20028 0.78344 0.0
O300 O 0.98399 0.14147 0.99797 0.0
O301 O 0.93844 0.11016 0.89789 0.0
O302 O 0.94294 0.15038 0.67753 0.0
O303 O 0.97118 0.13065 0.70376 0.0
O304 O 0.92836 0.19673 0.75409 0.0
O305 O 0.93452 0.17894 0.91823 0.0
O306 O 0.96575 0.24478 0.63103 0.0
O307 O 1.01125 0.27608 0.73151 0.0
O308 O 1.00672 0.23561 0.95052 0.0
O309 O 0.97819 0.25487 0.92495 0.0
O310 O 1.02123 0.18887 0.87287 0.0
O311 O 1.01517 0.20708 0.70945 0.0
H312 H 0.98868 0.10906 0.20419 0.0
H313 H 1.00077 0.15406 0.42811 0.0
H314 H 0.91382 0.17428 0.21615 0.0
H315 H 0.90902 0.12527 1.01589 0.0
H316 H 0.96115 0.27745 0.42531 0.0
H317 H 0.94908 0.23247 0.20142 0.0
H318 H 1.03603 0.21225 0.41365 0.0
H319 H 0.04081 0.26133 0.6138 0.0
Pr320 Pr 0.96233 0.65553 0.75214 0.0
Pr321 Pr 0.98526 0.72985 0.86749 0.0
C322 C 0.94453 0.58667 0.61614 0.0
C323 C 0.94744 0.57716 0.49794 0.0
C324 C 0.97627 0.59422 0.48057 0.0
C325 C 0.98339 0.6152 0.39582 0.0
C326 C 0.96153 0.61852 0.33075 0.0
C327 C 0.93146 0.59037 0.32209 0.0
C328 C 0.92435 0.56863 0.40505 0.0
C329 C 0.98551 0.66452 0.98644 0.0
C330 C 1.03025 0.72183 0.74225 0.0
C331 C 1.00305 0.79881 1.00284 0.0
C332 C 1.0003 0.80851 1.12119 0.0
C333 C 0.97153 0.79163 0.13914 0.0
C334 C 0.96451 0.77089 0.22449 0.0
C335 C 0.98639 0.76759 0.28945 0.0
C336 C 1.01645 0.79563 0.29744 0.0
C337 C 1.02347 0.81713 0.21387 0.0
C338 C 0.96197 0.72057 0.63302 0.0
C339 C 0.91739 0.66358 0.87777 0.0
O340 O 0.92724 0.59931 0.62293 0.0
O341 O 0.9692 0.60737 0.69807 0.0
O342 O 0.99842 0.68896 0.92816 0.0
O343 O 0.95839 0.63866 0.92916 0.0
O344 O 1.02976 0.74107 0.83595 0.0
O345 O 1.00525 0.68991 0.68004 0.0
O346 O 1.02039 0.78625 0.99591 0.0
O347 O 0.9783 0.77794 0.92136 0.0
O348 O 0.94912 0.69639 0.69204 0.0
O349 O 0.98914 0.7464 0.68989 0.0
O350 O 0.91785 0.6443 0.78408 0.0
O351 O 0.94239 0.69551 0.93988 0.0
H352 H 0.99435 0.59835 0.54573 0.0
H353 H 1.00664 0.63425 0.3969 0.0
H354 H 0.91363 0.5901 0.26763 0.0
H355 H 0.90147 0.55283 0.41174 0.0
H356 H 0.9534 0.78743 1.07409 0.0
H357 H 0.94128 0.75192 0.22384 0.0
H358 H 1.0343 0.79592 0.3518 0.0
H359 H 0.04631 0.83281 0.20671 0.0
C360 C 0.11512 0.48848 0.87502 0.0
C361 C 0.14311 0.51182 0.95825 0.0
H362 H 0.08983 0.46679 0.69464 0.0
C363 C 0.16767 0.53168 0.90751 0.0
H364 H 0.09522 0.47221 0.90523 0.0
C365 C 0.16458 0.52863 0.78404 0.0
C366 C 0.1366 0.5052 0.70077 0.0
H367 H 0.18989 0.5501 0.96423 0.0
H368 H 0.18447 0.5449 0.75385 0.0
C369 C 0.11203 0.48527 0.75143 0.0
C370 C 0.64178 0.558 0.61338 0.0
C371 C 0.64457 0.53355 0.6802 0.0
H372 H 0.6401 0.57483 0.44906 0.0
C373 C 0.64792 0.50571 0.61565 0.0
H374 H 0.6391 0.58005 0.65524 0.0
C375 C 0.64844 0.50266 0.49448 0.0
C376 C 0.6457 0.52716 0.42776 0.0
H377 H 0.65014 0.48585 0.6589 0.0
H378 H 0.6511 0.4806 0.45255 0.0
C379 C 0.64233 0.55497 0.4923 0.0
C380 C 0.63781 0.10673 0.43445 0.0
C381 C 0.6374 0.07758 0.48617 0.0
H382 H 0.64032 0.13125 0.28283 0.0
C383 C 0.63878 0.04989 0.41105 0.0
H384 H 0.63676 0.12892 0.48618 0.0
C385 C 0.64125 0.05159 0.29435 0.0
C386 C 0.64155 0.08031 0.24174 0.0
H387 H 0.63861 0.02682 0.44353 0.0
H388 H 0.64321 0.02996 0.24441 0.0
C389 C 0.63956 0.1079 0.31548 0.0
C390 C 0.83286 0.89757 0.74994 0.0
C391 C 0.80487 0.87445 0.66664 0.0
H392 H 0.85806 0.919 0.93037 0.0
C393 C 0.78024 0.85476 0.71713 0.0
H394 H 0.8528 0.91369 0.71985 0.0
C395 C 0.78325 0.85778 0.8405 0.0
C396 C 0.81121 0.88096 0.92382 0.0
H397 H 0.75803 0.83652 0.66029 0.0
H398 H 0.76331 0.84166 0.87056 0.0
C399 C 0.83586 0.90072 0.87344 0.0
C400 C 0.30048 0.88136 1.00429 0.0
C401 C 0.30309 0.8529 0.93896 0.0
H402 H 0.29792 0.90699 0.16808 0.0
C403 C 0.30525 0.82794 1.00511 0.0
H404 H 0.29886 0.90172 0.9617 0.0
C405 C 0.30469 0.83095 0.12617 0.0
C406 C 0.30198 0.85931 0.19142 0.0
H407 H 0.3074 0.80544 0.96267 0.0
H408 H 0.30637 0.81064 0.16882 0.0
C409 C 0.29998 0.88443 0.1255 0.0
C410 C 0.31214 0.2817 0.1932 0.0
C411 C 0.31239 0.31082 0.14182 0.0
H412 H 0.30974 0.257 0.34444 0.0
C413 C 0.31097 0.3384 0.21738 0.0
H414 H 0.31322 0.25959 0.14113 0.0
C415 C 0.30859 0.33656 0.33411 0.0
C416 C 0.30839 0.30783 0.38632 0.0
H417 H 0.31103 0.36145 0.18522 0.0
H418 H 0.30656 0.35808 0.38436 0.0
C419 C 0.31045 0.28039 0.31216 0.0
C420 C 0.36915 0.02235 1.10903 0.0
C421 C 0.37393 0.03202 0.23039 0.0
H422 H 0.39129 0.0219 0.97685 0.0
C423 C 0.38883 0.01822 0.29396 0.0
H424 H 0.35479 0.02769 1.05351 0.0
C425 C 0.41006 1.01487 0.24981 0.0
C426 C 0.41531 0.02572 0.14504 0.0
H427 H 0.39012 0.01987 0.38563 0.0
H428 H 0.42686 1.01456 0.30945 0.0
C429 C 0.39044 0.01913 1.06503 0.0
C430 C 1.00297 0.22762 0.23093 0.0
C431 C 0.9745 0.17521 0.20325 0.0
H432 H 1.03019 0.29686 0.38053 0.0
C433 C 0.93629 0.12075 0.27256 0.0
H434 H 1.02002 0.24193 0.16702 0.0
C435 C 0.94689 0.15891 0.39868 0.0
C436 C 0.97535 0.21132 0.42632 0.0
H437 H 0.91966 0.08967 0.24906 0.0
H438 H 0.92985 0.14457 0.4626 0.0
C439 C 1.01356 0.26578 0.35704 0.0
C440 C 0.95153 0.66001 0.22492 0.0
C441 C 0.96955 0.65684 0.31259 0.0
H442 H 0.94185 0.6969 0.15245 0.0
C443 C 0.99215 0.69044 0.39723 0.0
H444 H 0.93399 0.63494 0.15802 0.0
C445 C 0.99641 0.72611 0.39529 0.0
C446 C 0.97838 0.72928 0.30765 0.0
H447 H 1.00608 0.68922 0.46781 0.0
H448 H 1.01396 0.75119 0.46213 0.0
C449 C 0.95578 0.69568 0.22302 0.0
C450 C 0.24485 0.35846 0.70765 0.0
C451 C 0.27388 0.37013 0.70096 0.0
H452 H 0.20926 0.36721 0.66861 0.0
C453 C 0.28959 0.40141 0.65093 0.0
H454 H 0.23206 0.33445 0.74527 0.0
C455 C 0.27662 0.42002 0.60685 0.0
C456 C 0.24739 0.4081 0.61099 0.0
H457 H 0.3119 0.41114 0.64316 0.0
H458 H 0.28934 0.44312 0.56599 0.0
C459 C 0.23172 0.37712 0.66282 0.0
C460 C 0.69232 0.68629 0.14205 0.0
C461 C 0.70377 0.66273 0.14072 0.0
H462 H 0.70141 0.74392 0.17161 0.0
C463 C 0.73508 0.68206 0.17294 0.0
H464 H 0.66847 0.67299 1.11821 0.0
C465 C 0.75403 0.72295 0.20615 0.0
C466 C 0.74265 0.74656 0.20655 0.0
H467 H 0.74508 0.66552 0.17412 0.0
H468 H 0.77787 0.73614 0.23061 0.0
C469 C 0.71133 0.72729 0.17294 0.0
C470 C 0.47802 0.97062 0.18269 0.0
C471 C 0.48782 0.94903 0.12894 0.0
H472 H 0.4535 0.97451 0.30228 0.0
C473 C 0.48039 0.91409 0.15794 0.0
H474 H 0.48327 0.99756 0.1616 0.0
C475 C 0.46349 0.90099 0.23897 0.0
C476 C 0.45336 0.92234 0.29157 0.0
H477 H 0.48787 0.89704 1.11865 0.0
H478 H 0.45784 0.87377 0.25877 0.0
C479 C 0.46085 0.95732 0.26266 0.0
C480 C 0.58254 0.15741 0.74489 0.0
C481 C 0.59655 0.1576 0.85439 0.0
H482 H 0.54976 0.16435 0.64592 0.0
C483 C 0.58714 0.16667 0.95039 0.0
H484 H 0.58791 0.14896 0.66763 0.0
C485 C 0.56503 0.17533 0.938 0.0
C486 C 0.55052 0.17441 0.82835 0.0
H487 H 0.59609 0.16552 1.03546 0.0
H488 H 0.55849 0.1814 1.01492 0.0
C489 C 0.56012 0.16573 0.73212 0.0
C490 C 0.05512 0.31456 1.10868 0.0
C491 C 1.02463 0.30053 1.07034 0.0
H492 H 0.09985 0.36346 0.19285 0.0
C493 C 1.01666 0.32729 1.09598 0.0
H494 H 0.0625 0.29541 1.09024 0.0
C495 C 1.03811 0.36644 0.15294 0.0
C496 C 0.06866 0.38087 0.18872 0.0
H497 H 0.99364 0.3182 1.06857 0.0
H498 H 1.03066 0.38569 0.16732 0.0
C499 C 0.07668 0.3539 0.16748 0.0
C500 C 0.88465 0.66905 0.99934 0.0
C501 C 0.88897 0.64722 0.91472 0.0
H502 H 0.85503 0.66983 1.09882 0.0
C503 C 0.86546 0.60866 0.8634 0.0
H504 H 0.90208 0.69897 1.03936 0.0
C505 C 0.8386 0.59214 0.89639 0.0
C506 C 0.83421 0.61359 0.98181 0.0
H507 H 0.8678 0.59087 0.79762 0.0
H508 H 0.82107 0.56246 0.85379 0.0
C509 C 0.85755 0.65243 1.03244 0.0
C510 C 1.03285 0.67294 1.09335 0.0
C511 C 1.00157 0.65257 1.06354 0.0
H512 H 0.07137 0.67292 0.16586 0.0
C513 C 0.98525 0.61675 1.09186 0.0
H514 H 0.04609 0.70045 1.07182 0.0
C515 C 0.99956 0.6008 0.14346 0.0
C516 C 1.03073 0.62028 0.16957 0.0
H517 H 0.96113 0.60003 1.06959 0.0
H518 H 0.98597 0.57239 0.1591 0.0
C519 C 0.04729 0.65692 0.14577 0.0
C520 C 0.55561 0.38039 0.99041 0.0
C521 C 0.58431 0.39902 0.96849 0.0
H522 H 0.5134 0.32688 0.97313 0.0
C523 C 0.59144 0.37475 0.9094 0.0
H524 H 0.54887 0.3975 1.03525 0.0
C525 C 0.57075 0.3341 0.87187 0.0
C526 C 0.54205 0.31542 0.89326 0.0
H527 H 0.61296 0.38728 0.88968 0.0
H528 H 0.57735 0.31712 0.82519 0.0
C529 C 0.53507 0.33952 0.9547 0.0
C530 C 0.8732 0.18957 0.77761 0.0
C531 C 0.88967 0.18218 0.86059 0.0
H532 H 0.83504 0.19224 0.72366 0.0
C533 C 0.8784 0.17186 0.95815 0.0
H534 H 0.88069 0.1975 0.70068 0.0
C535 C 0.85189 0.16899 0.97211 0.0
C536 C 0.83534 0.17639 0.88902 0.0
H537 H 0.89013 0.16612 1.02455 0.0
H538 H 0.84469 0.16148 1.04977 0.0
C539 C 0.84676 0.18677 0.79141 0.0
C540 C 0.65584 0.98046 0.95402 0.0
C541 C 0.67364 1.01501 0.9209 0.0
H542 H 0.65328 0.93464 1.02382 0.0
C543 C 0.70383 0.02885 0.93047 0.0
H544 H 0.63244 0.96865 0.94713 0.0
C545 C 0.71614 1.00958 0.97754 0.0
C546 C 0.6985 0.97576 1.01535 0.0
H547 H 0.71821 0.05537 0.90597 0.0
H548 H 0.73974 0.02209 0.98839 0.0
C549 C 0.66796 0.96106 0.9995 0.0
C550 C 0.25499 0.70001 0.47453 0.0
C551 C 0.24354 0.72355 0.47811 0.0
H552 H 0.2459 0.64241 0.44333 0.0
C553 C 0.21222 0.70427 0.44812 0.0
H554 H 0.27884 0.71328 0.49657 0.0
C555 C 0.19324 0.66339 0.41512 0.0
C556 C 0.20464 0.6398 0.41253 0.0
H557 H 0.20223 0.72083 0.44869 0.0
H558 H 0.1694 0.6502 0.39264 0.0
C559 C 0.23597 0.65904 0.44366 0.0
C560 C 0.48207 0.43138 0.34273 0.0
C561 C 0.4926 0.46819 0.3224 0.0
H562 H 0.4571 0.39005 0.4366 0.0
C563 C 0.48513 0.49168 0.38242 0.0
H564 H 0.48733 0.41258 0.29719 0.0
C565 C 0.46798 0.47888 0.46303 0.0
C566 C 0.4576 0.44213 0.48371 0.0
H567 H 0.49313 0.52028 0.36899 0.0
H568 H 0.4627 0.49764 0.50875 0.0
C569 C 0.46463 0.41841 0.42197 0.0
C570 C 0.96215 0.76841 0.52807 0.0
C571 C 0.94588 0.73254 0.55618 0.0
H572 H 0.96136 0.81284 0.46165 0.0
C573 C 0.9146 0.71215 0.52664 0.0
H574 H 0.98627 0.78515 0.55017 0.0
C575 C 0.90011 0.72819 0.47478 0.0
C576 C 0.91662 0.7649 0.45133 0.0
H577 H 0.90139 0.6846 0.548 0.0
H578 H 0.87604 0.71216 0.45491 0.0
C579 C 0.9478 0.78439 0.47704 0.0
C580 C 0.37675 0.05165 0.74596 0.0
C581 C 0.40559 0.07005 0.7261 0.0
H582 H 0.33436 0.99872 0.72707 0.0
C583 C 0.41266 0.0459 0.66585 0.0
H584 H 0.37013 0.06873 0.7919 0.0
C585 C 0.39197 1.00513 0.62952 0.0
C586 C 0.36313 0.98676 0.6501 0.0
H587 H 0.43443 0.05843 0.64841 0.0
H588 H 0.39868 0.98789 0.58521 0.0
C589 C 0.35598 1.0111 0.70826 0.0
C590 C 0.07193 0.21557 0.67135 0.0
C591 C 0.05995 0.2036 0.76634 0.0
H592 H 0.10635 0.22761 0.58219 0.0
C593 C 0.07579 0.19471 0.84682 0.0
H594 H 0.06074 0.22255 0.60689 0.0
C595 C 0.10228 0.19763 0.83311 0.0
C596 C 0.11443 0.20976 0.73826 0.0
H597 H 0.06775 0.18544 0.92169 0.0
H598 H 0.11349 0.19089 0.89882 0.0
C599 C 0.09854 0.21869 0.65768 0.0
C600 C 0.40056 0.23966 0.90483 0.0
C601 C 0.40064 0.21499 0.81328 0.0
H602 H 0.3809 0.26974 0.96447 0.0
C603 C 0.37706 0.19881 0.71165 0.0
H604 H 0.41804 0.25306 0.98437 0.0
C605 C 0.355 0.20777 0.70112 0.0
C606 C 0.3556 0.23346 0.79168 0.0
H607 H 0.37601 0.17978 0.63829 0.0
H608 H 0.3384 0.19612 0.61957 0.0
C609 C 0.37885 0.249 0.89363 0.0
C610 C 0.87245 0.03228 0.46093 0.0
C611 C 0.88012 1.00494 0.44013 0.0
H612 H 0.88708 0.09099 0.53765 0.0
C613 C 0.91058 0.01893 0.47649 0.0
H614 H 0.84937 0.02307 0.43509 0.0
C615 C 0.93225 0.05803 0.5335 0.0
C616 C 0.92462 0.08516 0.55851 0.0
H617 H 0.91779 0.99939 0.46248 0.0
H618 H 0.95518 0.06678 0.56136 0.0
C619 C 0.89423 0.07156 0.51968 0.0
C620 C 0.06301 0.71651 0.62054 0.0
C621 C 0.05865 0.73828 0.70517 0.0
H622 H 0.09263 0.71589 0.52072 0.0
C623 C 0.08208 0.7769 0.75621 0.0
H624 H 0.04565 0.68655 0.58073 0.0
C625 C 0.1089 0.79354 0.72287 0.0
C626 C 0.11332 0.77216 0.6374 0.0
H627 H 0.0797 0.79465 0.82198 0.0
H628 H 0.12636 0.82328 0.76522 0.0
C629 C 0.09008 0.73325 0.58711 0.0
loop_
_geom_bond_atom_site_label_1
_geom_bond_atom_site_label_2
_geom_bond_distance
_geom_bond_site_symmetry_2
_ccdc_geom_bond_type
Pr0 C2 2.880 . S
Pr0 O20 2.562 . S
Pr0 O21 2.490 . S
Pr0 O22 2.695 1_554 S
Pr0 O23 2.512 1_554 S
Pr0 O25 2.437 1_554 S
Pr0 O28 2.436 . S
Pr0 O30 2.438 . S
Pr1 C11 2.880 1_554 S
Pr1 O22 2.436 1_554 S
Pr1 O24 2.438 1_554 S
Pr1 O26 2.562 1_554 S
Pr1 O27 2.490 . S
Pr1 O28 2.695 . S
Pr1 O29 2.512 . S
Pr1 O31 2.437 . S
C2 Pr0 2.880 . S
C2 C3 1.491 . S
C2 O20 1.254 . S
C2 O21 1.225 . S
C3 C2 1.491 . S
C3 C4 1.392 . S
C3 C8 1.356 . S
C4 C3 1.392 . S
C4 C5 1.368 . S
C4 H32 0.929 . S
C5 C4 1.368 . S
C5 C6 1.386 . S
C5 H33 0.929 . S
C6 C5 1.386 . S
C6 C7 1.373 . S
C7 C6 1.373 . S
C7 C8 1.409 . S
C7 H34 0.931 . S
C8 C3 1.356 . S
C8 C7 1.409 . S
C8 H35 0.930 . S
C9 O22 1.270 . S
C9 O23 1.248 . S
C10 O24 1.267 . S
C10 O25 1.278 . S
C11 Pr1 2.880 1_556 S
C11 C12 1.491 . S
C11 O26 1.254 . S
C11 O27 1.225 1_556 S
C12 C11 1.491 . S
C12 C13 1.392 1_456 S
C12 C17 1.356 . S
C13 C12 1.392 1_654 S
C13 C14 1.368 . S
C13 H36 0.929 . S
C14 C13 1.368 . S
C14 C15 1.386 1_554 S
C14 H37 0.929 . S
C15 C14 1.386 1_556 S
C15 C16 1.373 1_655 S
C16 C15 1.373 1_455 S
C16 C17 1.409 . S
C16 H38 0.931 . S
C17 C12 1.356 . S
C17 C16 1.409 . S
C17 H39 0.930 . S
C18 O28 1.270 . S
C18 O29 1.248 . S
C19 O30 1.267 . S
C19 O31 1.278 . S
O20 Pr0 2.562 . S
O20 C2 1.254 . S
O21 Pr0 2.490 . S
O21 C2 1.225 . S
O22 Pr0 2.695 1_556 S
O22 Pr1 2.436 1_556 S
O22 C9 1.270 . S
O23 Pr0 2.512 1_556 S
O23 C9 1.248 . S
O24 Pr1 2.438 1_556 S
O24 C10 1.267 . S
O25 Pr0 2.437 1_556 S
O25 C10 1.278 . S
O26 Pr1 2.562 1_556 S
O26 C11 1.254 . S
O27 Pr1 2.490 . S
O27 C11 1.225 1_554 S
O28 Pr0 2.436 . S
O28 Pr1 2.695 . S
O28 C18 1.270 . S
O29 Pr1 2.512 . S
O29 C18 1.248 . S
O30 Pr0 2.438 . S
O30 C19 1.267 . S
O31 Pr1 2.437 . S
O31 C19 1.278 . S
H32 C4 0.929 . S
H33 C5 0.929 . S
H34 C7 0.931 . S
H35 C8 0.930 . S
H36 C13 0.929 . S
H37 C14 0.929 . S
H38 C16 0.931 . S
H39 C17 0.930 . S
Pr40 C42 2.880 . S
Pr40 O60 2.562 . S
Pr40 O61 2.490 . S
Pr40 O62 2.695 . S
Pr40 O63 2.512 . S
Pr40 O65 2.437 . S
Pr40 O68 2.436 . S
Pr40 O70 2.438 . S
Pr41 C51 2.880 . S
Pr41 O62 2.436 . S
Pr41 O64 2.438 . S
Pr41 O66 2.562 . S
Pr41 O67 2.490 . S
Pr41 O68 2.695 . S
Pr41 O69 2.512 1_554 S
Pr41 O71 2.437 . S
C42 Pr40 2.880 . S
C42 C43 1.491 . S
C42 O60 1.254 . S
C42 O61 1.225 . S
C43 C42 1.491 . S
C43 C44 1.392 . S
C43 C48 1.356 . S
C44 C43 1.392 . S
C44 C45 1.368 . S
C44 H72 0.929 . S
C45 C44 1.368 . S
C45 C46 1.386 . S
C45 H73 0.929 . S
C46 C45 1.386 . S
C46 C47 1.373 . S
C47 C46 1.373 . S
C47 C48 1.409 . S
C47 H74 0.931 . S
C48 C43 1.356 . S
C48 C47 1.409 . S
C48 H75 0.930 . S
C49 O62 1.270 . S
C49 O63 1.248 . S
C50 O64 1.267 . S
C50 O65 1.278 . S
C51 Pr41 2.880 . S
C51 C52 1.491 . S
C51 O66 1.254 . S
C51 O67 1.225 . S
C52 C51 1.491 . S
C52 C53 1.392 . S
C52 C57 1.356 . S
C53 C52 1.392 . S
C53 C54 1.368 . S
C53 H76 0.929 . S
C54 C53 1.368 . S
C54 C55 1.386 . S
C54 H77 0.929 . S
C55 C54 1.386 . S
C55 C56 1.373 . S
C56 C55 1.373 . S
C56 C57 1.409 . S
C56 H78 0.931 . S
C57 C52 1.356 . S
C57 C56 1.409 . S
C57 H79 0.930 . S
C58 O68 1.270 1_556 S
C58 O69 1.248 . S
C59 O70 1.267 . S
C59 O71 1.278 . S
O60 Pr40 2.562 . S
O60 C42 1.254 . S
O61 Pr40 2.490 . S
O61 C42 1.225 . S
O62 Pr40 2.695 . S
O62 Pr41 2.436 . S
O62 C49 1.270 . S
O63 Pr40 2.512 . S
O63 C49 1.248 . S
O64 Pr41 2.438 . S
O64 C50 1.267 . S
O65 Pr40 2.437 . S
O65 C50 1.278 . S
O66 Pr41 2.562 . S
O66 C51 1.254 . S
O67 Pr41 2.490 . S
O67 C51 1.225 . S
O68 Pr40 2.436 . S
O68 Pr41 2.695 . S
O68 C58 1.270 1_554 S
O69 Pr41 2.512 1_556 S
O69 C58 1.248 . S
O70 Pr40 2.438 . S
O70 C59 1.267 . S
O71 Pr41 2.437 . S
O71 C59 1.278 . S
H72 C44 0.929 . S
H73 C45 0.929 . S
H74 C47 0.931 . S
H75 C48 0.930 . S
H76 C53 0.929 . S
H77 C54 0.929 . S
H78 C56 0.931 . S
H79 C57 0.930 . S
Pr80 C82 2.880 . S
Pr80 O100 2.562 . S
Pr80 O101 2.490 . S
Pr80 O102 2.695 . S
Pr80 O103 2.512 1_554 S
Pr80 O105 2.437 . S
Pr80 O108 2.436 . S
Pr80 O110 2.438 . S
Pr81 C91 2.880 . S
Pr81 O102 2.436 . S
Pr81 O104 2.438 . S
Pr81 O106 2.562 . S
Pr81 O107 2.490 . S
Pr81 O108 2.695 . S
Pr81 O109 2.512 . S
Pr81 O111 2.437 . S
C82 Pr80 2.880 . S
C82 C83 1.491 . S
C82 O100 1.254 . S
C82 O101 1.225 . S
C83 C82 1.491 . S
C83 C84 1.392 . S
C83 C88 1.356 . S
C84 C83 1.392 . S
C84 C85 1.368 . S
C84 H112 0.930 1_554 S
C85 C84 1.368 . S
C85 C86 1.386 . S
C85 H113 0.926 1_544 S
C86 C85 1.386 . S
C86 C87 1.373 . S
C87 C86 1.373 . S
C87 C88 1.409 . S
C87 H114 0.931 . S
C88 C83 1.356 . S
C88 C87 1.409 . S
C88 H115 0.930 . S
C89 O102 1.270 1_556 S
C89 O103 1.248 . S
C90 O104 1.267 . S
C90 O105 1.278 . S
C91 Pr81 2.880 . S
C91 C92 1.491 . S
C91 O106 1.254 . S
C91 O107 1.225 . S
C92 C91 1.491 . S
C92 C93 1.392 . S
C92 C97 1.356 . S
C93 C92 1.392 . S
C93 C94 1.368 . S
C93 H116 0.929 . S
C94 C93 1.368 . S
C94 C95 1.386 . S
C94 H117 0.929 . S
C95 C94 1.386 . S
C95 C96 1.373 . S
C96 C95 1.373 . S
C96 C97 1.409 . S
C96 H118 0.931 . S
C97 C92 1.356 . S
C97 C96 1.409 . S
C97 H119 0.930 . S
C98 O108 1.270 . S
C98 O109 1.248 . S
C99 O110 1.267 . S
C99 O111 1.278 . S
O100 Pr80 2.562 . S
O100 C82 1.254 . S
O101 Pr80 2.490 . S
O101 C82 1.225 . S
O102 Pr80 2.695 . S
O102 Pr81 2.436 . S
O102 C89 1.270 1_554 S
O103 Pr80 2.512 1_556 S
O103 C89 1.248 . S
O104 Pr81 2.438 . S
O104 C90 1.267 . S
O105 Pr80 2.437 . S
O105 C90 1.278 . S
O106 Pr81 2.562 . S
O106 C91 1.254 . S
O107 Pr81 2.490 . S
O107 C91 1.225 . S
O108 Pr80 2.436 . S
O108 Pr81 2.695 . S
O108 C98 1.270 . S
O109 Pr81 2.512 . S
O109 C98 1.248 . S
O110 Pr80 2.438 . S
O110 C99 1.267 . S
O111 Pr81 2.437 . S
O111 C99 1.278 . S
H112 C84 0.930 1_556 S
H113 C85 0.926 1_566 S
H114 C87 0.931 . S
H115 C88 0.930 . S
H116 C93 0.929 . S
H117 C94 0.929 . S
H118 C96 0.931 . S
H119 C97 0.930 . S
Pr120 C122 2.880 . S
Pr120 O140 2.562 . S
Pr120 O141 2.490 . S
Pr120 O142 2.695 . S
Pr120 O143 2.512 . S
Pr120 O145 2.437 . S
Pr120 O148 2.436 . S
Pr120 O150 2.438 . S
Pr121 C131 2.880 . S
Pr121 O142 2.436 . S
Pr121 O144 2.438 . S
Pr121 O146 2.562 . S
Pr121 O147 2.490 . S
Pr121 O148 2.695 . S
Pr121 O149 2.512 . S
Pr121 O151 2.437 . S
C122 Pr120 2.880 . S
C122 C123 1.491 . S
C122 O140 1.254 . S
C122 O141 1.225 . S
C123 C122 1.491 . S
C123 C124 1.392 . S
C123 C128 1.356 . S
C124 C123 1.392 . S
C124 C125 1.368 . S
C124 H152 0.929 . S
C125 C124 1.368 . S
C125 C126 1.386 . S
C125 H153 0.929 . S
C126 C125 1.386 . S
C126 C127 1.373 . S
C127 C126 1.373 . S
C127 C128 1.409 . S
C127 H154 0.931 . S
C128 C123 1.356 . S
C128 C127 1.409 . S
C128 H155 0.930 . S
C129 O142 1.270 . S
C129 O143 1.248 . S
C130 O144 1.267 . S
C130 O145 1.278 . S
C131 Pr121 2.880 . S
C131 C132 1.491 . S
C131 O146 1.254 . S
C131 O147 1.225 . S
C132 C131 1.491 . S
C132 C133 1.392 . S
C132 C137 1.356 . S
C133 C132 1.392 . S
C133 C134 1.368 . S
C133 H156 0.929 . S
C134 C133 1.368 . S
C134 C135 1.386 1_565 S
C134 H157 0.929 . S
C135 C134 1.386 1_545 S
C135 C136 1.373 . S
C136 C135 1.373 . S
C136 C137 1.409 1_545 S
C136 H158 0.931 . S
C137 C132 1.356 . S
C137 C136 1.409 1_565 S
C137 H159 0.930 . S
C138 O148 1.270 . S
C138 O149 1.248 . S
C139 O150 1.267 . S
C139 O151 1.278 . S
O140 Pr120 2.562 . S
O140 C122 1.254 . S
O141 Pr120 2.490 . S
O141 C122 1.225 . S
O142 Pr120 2.695 . S
O142 Pr121 2.436 . S
O142 C129 1.270 . S
O143 Pr120 2.512 . S
O143 C129 1.248 . S
O144 Pr121 2.438 . S
O144 C130 1.267 . S
O145 Pr120 2.437 . S
O145 C130 1.278 . S
O146 Pr121 2.562 . S
O146 C131 1.254 . S
O147 Pr121 2.490 . S
O147 C131 1.225 . S
O148 Pr120 2.436 . S
O148 Pr121 2.695 . S
O148 C138 1.270 . S
O149 Pr121 2.512 . S
O149 C138 1.248 . S
O150 Pr120 2.438 . S
O150 C139 1.267 . S
O151 Pr121 2.437 . S
O151 C139 1.278 . S
H152 C124 0.929 . S
H153 C125 0.929 . S
H154 C127 0.931 . S
H155 C128 0.930 . S
H156 C133 0.929 . S
H157 C134 0.929 . S
H158 C136 0.931 . S
H159 C137 0.930 . S
Pr160 C162 2.880 . S
Pr160 O180 2.562 . S
Pr160 O181 2.490 . S
Pr160 O182 2.695 . S
Pr160 O183 2.512 . S
Pr160 O185 2.437 . S
Pr160 O188 2.436 . S
Pr160 O190 2.438 . S
Pr161 C171 2.880 . S
Pr161 O182 2.436 . S
Pr161 O184 2.438 . S
Pr161 O186 2.562 . S
Pr161 O187 2.490 . S
Pr161 O188 2.695 . S
Pr161 O189 2.512 . S
Pr161 O191 2.437 . S
C162 Pr160 2.880 . S
C162 C163 1.491 . S
C162 O180 1.254 . S
C162 O181 1.225 . S
C163 C162 1.491 . S
C163 C164 1.392 . S
C163 C168 1.356 . S
C164 C163 1.392 . S
C164 C165 1.368 . S
C164 H192 0.929 . S
C165 C164 1.368 . S
C165 C166 1.386 . S
C165 H193 0.929 . S
C166 C165 1.386 . S
C166 C167 1.373 . S
C167 C166 1.373 . S
C167 C168 1.409 . S
C167 H194 0.931 . S
C168 C163 1.356 . S
C168 C167 1.409 . S
C168 H195 0.930 . S
C169 O182 1.270 . S
C169 O183 1.248 . S
C170 O184 1.267 . S
C170 O185 1.278 . S
C171 Pr161 2.880 . S
C171 C172 1.491 . S
C171 O186 1.254 . S
C171 O187 1.225 . S
C172 C171 1.491 . S
C172 C173 1.392 . S
C172 C177 1.356 . S
C173 C172 1.392 . S
C173 C174 1.368 . S
C173 H196 0.929 . S
C174 C173 1.368 . S
C174 C175 1.386 . S
C174 H197 0.929 . S
C175 C174 1.386 . S
C175 C176 1.373 . S
C176 C175 1.373 . S
C176 C177 1.409 . S
C176 H198 0.931 . S
C177 C172 1.356 . S
C177 C176 1.409 . S
C177 H199 0.930 . S
C178 O188 1.270 . S
C178 O189 1.248 . S
C179 O190 1.267 . S
C179 O191 1.278 . S
O180 Pr160 2.562 . S
O180 C162 1.254 . S
O181 Pr160 2.490 . S
O181 C162 1.225 . S
O182 Pr160 2.695 . S
O182 Pr161 2.436 . S
O182 C169 1.270 . S
O183 Pr160 2.512 . S
O183 C169 1.248 . S
O184 Pr161 2.438 . S
O184 C170 1.267 . S
O185 Pr160 2.437 . S
O185 C170 1.278 . S
O186 Pr161 2.562 . S
O186 C171 1.254 . S
O187 Pr161 2.490 . S
O187 C171 1.225 . S
O188 Pr160 2.436 . S
O188 Pr161 2.695 . S
O188 C178 1.270 . S
O189 Pr161 2.512 . S
O189 C178 1.248 . S
O190 Pr160 2.438 . S
O190 C179 1.267 . S
O191 Pr161 2.437 . S
O191 C179 1.278 . S
H192 C164 0.929 . S
H193 C165 0.929 . S
H194 C167 0.931 . S
H195 C168 0.930 . S
H196 C173 0.929 . S
H197 C174 0.929 . S
H198 C176 0.931 . S
H199 C177 0.930 . S
Pr200 C202 2.880 . S
Pr200 O220 2.562 . S
Pr200 O221 2.490 . S
Pr200 O222 2.695 . S
Pr200 O223 2.512 . S
Pr200 O225 2.437 . S
Pr200 O228 2.436 . S
Pr200 O230 2.438 . S
Pr201 C211 2.880 . S
Pr201 O222 2.436 . S
Pr201 O224 2.438 . S
Pr201 O226 2.562 . S
Pr201 O227 2.490 . S
Pr201 O228 2.695 . S
Pr201 O229 2.512 . S
Pr201 O231 2.437 . S
C202 Pr200 2.880 . S
C202 C203 1.491 . S
C202 O220 1.254 . S
C202 O221 1.225 . S
C203 C202 1.491 . S
C203 C204 1.392 . S
C203 C208 1.356 . S
C204 C203 1.392 . S
C204 C205 1.368 . S
C204 H232 0.929 . S
C205 C204 1.368 . S
C205 C206 1.386 . S
C205 H233 0.929 . S
C206 C205 1.386 . S
C206 C207 1.373 . S
C207 C206 1.373 . S
C207 C208 1.409 . S
C207 H234 0.931 . S
C208 C203 1.356 . S
C208 C207 1.409 . S
C208 H235 0.930 . S
C209 O222 1.270 . S
C209 O223 1.248 . S
C210 O224 1.267 . S
C210 O225 1.278 . S
C211 Pr201 2.880 . S
C211 C212 1.491 . S
C211 O226 1.254 . S
C211 O227 1.225 . S
C212 C211 1.491 . S
C212 C213 1.392 . S
C212 C217 1.356 . S
C213 C212 1.392 . S
C213 C214 1.368 . S
C213 H236 0.929 . S
C214 C213 1.368 . S
C214 C215 1.386 . S
C214 H237 0.929 . S
C215 C214 1.386 . S
C215 C216 1.373 . S
C216 C215 1.373 . S
C216 C217 1.409 . S
C216 H238 0.931 . S
C217 C212 1.356 . S
C217 C216 1.409 . S
C217 H239 0.930 . S
C218 O228 1.270 . S
C218 O229 1.248 . S
C219 O230 1.267 . S
C219 O231 1.278 . S
O220 Pr200 2.562 . S
O220 C202 1.254 . S
O221 Pr200 2.490 . S
O221 C202 1.225 . S
O222 Pr200 2.695 . S
O222 Pr201 2.436 . S
O222 C209 1.270 . S
O223 Pr200 2.512 . S
O223 C209 1.248 . S
O224 Pr201 2.438 . S
O224 C210 1.267 . S
O225 Pr200 2.437 . S
O225 C210 1.278 . S
O226 Pr201 2.562 . S
O226 C211 1.254 . S
O227 Pr201 2.490 . S
O227 C211 1.225 . S
O228 Pr200 2.436 . S
O228 Pr201 2.695 . S
O228 C218 1.270 . S
O229 Pr201 2.512 . S
O229 C218 1.248 . S
O230 Pr200 2.438 . S
O230 C219 1.267 . S
O231 Pr201 2.437 . S
O231 C219 1.278 . S
H232 C204 0.929 . S
H233 C205 0.929 . S
H234 C207 0.931 . S
H235 C208 0.930 . S
H236 C213 0.929 . S
H237 C214 0.929 . S
H238 C216 0.931 . S
H239 C217 0.930 . S
Pr240 C242 2.880 . S
Pr240 O260 2.562 . S
Pr240 O261 2.490 . S
Pr240 O262 2.695 . S
Pr240 O263 2.512 . S
Pr240 O265 2.437 . S
Pr240 O268 2.436 . S
Pr240 O270 2.438 . S
Pr241 C251 2.880 . S
Pr241 O262 2.436 . S
Pr241 O264 2.438 . S
Pr241 O266 2.562 . S
Pr241 O267 2.490 . S
Pr241 O268 2.695 . S
Pr241 O269 2.512 . S
Pr241 O271 2.437 . S
C242 Pr240 2.880 . S
C242 C243 1.491 . S
C242 O260 1.254 . S
C242 O261 1.225 . S
C243 C242 1.491 . S
C243 C244 1.392 . S
C243 C248 1.356 . S
C244 C243 1.392 . S
C244 C245 1.368 . S
C244 H272 0.929 . S
C245 C244 1.368 . S
C245 C246 1.386 . S
C245 H273 0.929 . S
C246 C245 1.386 . S
C246 C247 1.373 . S
C247 C246 1.373 . S
C247 C248 1.409 . S
C247 H274 0.931 . S
C248 C243 1.356 . S
C248 C247 1.409 . S
C248 H275 0.930 . S
C249 O262 1.270 . S
C249 O263 1.248 . S
C250 O264 1.267 . S
C250 O265 1.278 . S
C251 Pr241 2.880 . S
C251 C252 1.491 1_556 S
C251 O266 1.254 . S
C251 O267 1.225 . S
C252 C251 1.491 1_554 S
C252 C253 1.392 . S
C252 C257 1.356 . S
C253 C252 1.392 . S
C253 C254 1.368 . S
C253 H276 0.929 . S
C254 C253 1.368 . S
C254 C255 1.386 . S
C254 H277 0.929 . S
C255 C254 1.386 . S
C255 C256 1.373 . S
C256 C255 1.373 . S
C256 C257 1.409 . S
C256 H278 0.931 . S
C257 C252 1.356 . S
C257 C256 1.409 . S
C257 H279 0.930 . S
C258 O268 1.270 . S
C258 O269 1.248 . S
C259 O270 1.267 . S
C259 O271 1.278 . S
O260 Pr240 2.562 . S
O260 C242 1.254 . S
O261 Pr240 2.490 . S
O261 C242 1.225 . S
O262 Pr240 2.695 . S
O262 Pr241 2.436 . S
O262 C249 1.270 . S
O263 Pr240 2.512 . S
O263 C249 1.248 . S
O264 Pr241 2.438 . S
O264 C250 1.267 . S
O265 Pr240 2.437 . S
O265 C250 1.278 . S
O266 Pr241 2.562 . S
O266 C251 1.254 . S
O267 Pr241 2.490 . S
O267 C251 1.225 . S
O268 Pr240 2.436 . S
O268 Pr241 2.695 . S
O268 C258 1.270 . S
O269 Pr241 2.512 . S
O269 C258 1.248 . S
O270 Pr240 2.438 . S
O270 C259 1.267 . S
O271 Pr241 2.437 . S
O271 C259 1.278 . S
H272 C244 0.929 . S
H273 C245 0.929 . S
H274 C247 0.931 . S
H275 C248 0.930 . S
H276 C253 0.929 . S
H277 C254 0.929 . S
H278 C256 0.931 . S
H279 C257 0.930 . S
Pr280 C282 2.880 . S
Pr280 O300 2.562 . S
Pr280 O301 2.490 . S
Pr280 O302 2.695 . S
Pr280 O303 2.512 . S
Pr280 O305 2.437 . S
Pr280 O308 2.436 . S
Pr280 O310 2.438 . S
Pr281 C291 2.880 . S
Pr281 O302 2.436 . S
Pr281 O304 2.438 . S
Pr281 O306 2.562 . S
Pr281 O307 2.490 . S
Pr281 O308 2.695 . S
Pr281 O309 2.512 . S
Pr281 O311 2.437 . S
C282 Pr280 2.880 . S
C282 C283 1.491 1_556 S
C282 O300 1.254 . S
C282 O301 1.225 . S
C283 C282 1.491 1_554 S
C283 C284 1.392 . S
C283 C288 1.356 . S
C284 C283 1.392 . S
C284 C285 1.368 . S
C284 H312 0.929 . S
C285 C284 1.368 . S
C285 C286 1.386 . S
C285 H313 0.929 . S
C286 C285 1.386 . S
C286 C287 1.373 . S
C287 C286 1.373 . S
C287 C288 1.409 . S
C287 H314 0.931 . S
C288 C283 1.356 . S
C288 C287 1.409 . S
C288 H315 0.930 . S
C289 O302 1.270 . S
C289 O303 1.248 . S
C290 O304 1.267 . S
C290 O305 1.278 . S
C291 Pr281 2.880 . S
C291 C292 1.491 . S
C291 O306 1.254 . S
C291 O307 1.225 . S
C292 C291 1.491 . S
C292 C293 1.392 . S
C292 C297 1.356 . S
C293 C292 1.392 . S
C293 C294 1.368 . S
C293 H316 0.929 . S
C294 C293 1.368 . S
C294 C295 1.386 . S
C294 H317 0.929 . S
C295 C294 1.386 . S
C295 C296 1.373 . S
C296 C295 1.373 . S
C296 C297 1.409 . S
C296 H318 0.931 . S
C297 C292 1.356 . S
C297 C296 1.409 . S
C297 H319 0.930 . S
C298 O308 1.270 . S
C298 O309 1.248 . S
C299 O310 1.267 . S
C299 O311 1.278 . S
O300 Pr280 2.562 . S
O300 C282 1.254 . S
O301 Pr280 2.490 . S
O301 C282 1.225 . S
O302 Pr280 2.695 . S
O302 Pr281 2.436 . S
O302 C289 1.270 . S
O303 Pr280 2.512 . S
O303 C289 1.248 . S
O304 Pr281 2.438 . S
O304 C290 1.267 . S
O305 Pr280 2.437 . S
O305 C290 1.278 . S
O306 Pr281 2.562 . S
O306 C291 1.254 . S
O307 Pr281 2.490 . S
O307 C291 1.225 . S
O308 Pr280 2.436 . S
O308 Pr281 2.695 . S
O308 C298 1.270 . S
O309 Pr281 2.512 . S
O309 C298 1.248 . S
O310 Pr280 2.438 . S
O310 C299 1.267 . S
O311 Pr281 2.437 . S
O311 C299 1.278 . S
H312 C284 0.929 . S
H313 C285 0.929 . S
H314 C287 0.931 . S
H315 C288 0.930 . S
H316 C293 0.929 . S
H317 C294 0.929 . S
H318 C296 0.931 . S
H319 C297 0.930 . S
Pr320 C322 2.880 . S
Pr320 O340 2.562 . S
Pr320 O341 2.490 . S
Pr320 O342 2.695 . S
Pr320 O343 2.512 . S
Pr320 O345 2.437 . S
Pr320 O348 2.436 . S
Pr320 O350 2.438 . S
Pr321 C331 2.880 . S
Pr321 O342 2.436 . S
Pr321 O344 2.438 . S
Pr321 O346 2.562 . S
Pr321 O347 2.490 . S
Pr321 O348 2.695 . S
Pr321 O349 2.512 . S
Pr321 O351 2.437 . S
C322 Pr320 2.880 . S
C322 C323 1.491 . S
C322 O340 1.254 . S
C322 O341 1.225 . S
C323 C322 1.491 . S
C323 C324 1.392 . S
C323 C328 1.356 . S
C324 C323 1.392 . S
C324 C325 1.368 . S
C324 H352 0.929 . S
C325 C324 1.368 . S
C325 C326 1.386 . S
C325 H353 0.929 . S
C326 C325 1.386 . S
C326 C327 1.373 . S
C327 C326 1.373 . S
C327 C328 1.409 . S
C327 H354 0.931 . S
C328 C323 1.356 . S
C328 C327 1.409 . S
C328 H355 0.930 . S
C329 O342 1.270 . S
C329 O343 1.248 . S
C330 O344 1.267 . S
C330 O345 1.278 . S
C331 Pr321 2.880 . S
C331 C332 1.491 1_556 S
C331 O346 1.254 . S
C331 O347 1.225 . S
C332 C331 1.491 1_554 S
C332 C333 1.392 . S
C332 C337 1.356 . S
C333 C332 1.392 . S
C333 C334 1.368 . S
C333 H356 0.929 . S
C334 C333 1.368 . S
C334 C335 1.386 . S
C334 H357 0.929 . S
C335 C334 1.386 . S
C335 C336 1.373 . S
C336 C335 1.373 . S
C336 C337 1.409 . S
C336 H358 0.931 . S
C337 C332 1.356 . S
C337 C336 1.409 . S
C337 H359 0.930 . S
C338 O348 1.270 . S
C338 O349 1.248 . S
C339 O350 1.267 . S
C339 O351 1.278 . S
O340 Pr320 2.562 . S
O340 C322 1.254 . S
O341 Pr320 2.490 . S
O341 C322 1.225 . S
O342 Pr320 2.695 . S
O342 Pr321 2.436 . S
O342 C329 1.270 . S
O343 Pr320 2.512 . S
O343 C329 1.248 . S
O344 Pr321 2.438 . S
O344 C330 1.267 . S
O345 Pr320 2.437 . S
O345 C330 1.278 . S
O346 Pr321 2.562 . S
O346 C331 1.254 . S
O347 Pr321 2.490 . S
O347 C331 1.225 . S
O348 Pr320 2.436 . S
O348 Pr321 2.695 . S
O348 C338 1.270 . S
O349 Pr321 2.512 . S
O349 C338 1.248 . S
O350 Pr320 2.438 . S
O350 C339 1.267 . S
O351 Pr321 2.437 . S
O351 C339 1.278 . S
H352 C324 0.929 . S
H353 C325 0.929 . S
H354 C327 0.931 . S
H355 C328 0.930 . S
H356 C333 0.929 . S
H357 C334 0.929 . S
H358 C336 0.931 . S
H359 C337 0.930 . S
C360 C361 1.387 . S
C360 H364 0.950 . S
C360 C369 1.390 . S
C361 C360 1.387 . S
C361 C363 1.387 . S
H362 C369 0.950 . S
C363 C361 1.387 . S
C363 C365 1.390 . S
C363 H367 0.950 . S
H364 C360 0.950 . S
C365 C363 1.390 . S
C365 C366 1.387 . S
C365 H368 0.950 . S
C366 C365 1.387 . S
C366 C369 1.387 . S
H367 C363 0.950 . S
H368 C365 0.950 . S
C369 C360 1.390 . S
C369 H362 0.950 . S
C369 C366 1.387 . S
C370 C371 1.387 . S
C370 H374 0.950 . S
C370 C379 1.390 . S
C371 C370 1.387 . S
C371 C373 1.387 . S
H372 C379 0.950 . S
C373 C371 1.387 . S
C373 C375 1.390 . S
C373 H377 0.950 . S
H374 C370 0.950 . S
C375 C373 1.390 . S
C375 C376 1.387 . S
C375 H378 0.950 . S
C376 C375 1.387 . S
C376 C379 1.387 . S
H377 C373 0.950 . S
H378 C375 0.950 . S
C379 C370 1.390 . S
C379 H372 0.950 . S
C379 C376 1.387 . S
C380 C381 1.387 . S
C380 H384 0.950 . S
C380 C389 1.390 . S
C381 C380 1.387 . S
C381 C383 1.387 . S
H382 C389 0.950 . S
C383 C381 1.387 . S
C383 C385 1.390 . S
C383 H387 0.950 . S
H384 C380 0.950 . S
C385 C383 1.390 . S
C385 C386 1.387 . S
C385 H388 0.950 . S
C386 C385 1.387 . S
C386 C389 1.387 . S
H387 C383 0.950 . S
H388 C385 0.950 . S
C389 C380 1.390 . S
C389 H382 0.950 . S
C389 C386 1.387 . S
C390 C391 1.387 . S
C390 H394 0.950 . S
C390 C399 1.390 . S
C391 C390 1.387 . S
C391 C393 1.387 . S
H392 C399 0.950 . S
C393 C391 1.387 . S
C393 C395 1.390 . S
C393 H397 0.950 . S
H394 C390 0.950 . S
C395 C393 1.390 . S
C395 C396 1.387 . S
C395 H398 0.950 . S
C396 C395 1.387 . S
C396 C399 1.387 . S
H397 C393 0.950 . S
H398 C395 0.950 . S
C399 C390 1.390 . S
C399 H392 0.950 . S
C399 C396 1.387 . S
C400 C401 1.387 . S
C400 H404 0.950 . S
C400 C409 1.390 . S
C401 C400 1.387 . S
C401 C403 1.387 . S
H402 C409 0.950 . S
C403 C401 1.387 . S
C403 C405 1.390 . S
C403 H407 0.950 . S
H404 C400 0.950 . S
C405 C403 1.390 . S
C405 C406 1.387 . S
C405 H408 0.950 . S
C406 C405 1.387 . S
C406 C409 1.387 . S
H407 C403 0.950 . S
H408 C405 0.950 . S
C409 C400 1.390 . S
C409 H402 0.950 . S
C409 C406 1.387 . S
C410 C411 1.387 . S
C410 H414 0.950 . S
C410 C419 1.390 . S
C411 C410 1.387 . S
C411 C413 1.387 . S
H412 C419 0.950 . S
C413 C411 1.387 . S
C413 C415 1.390 . S
C413 H417 0.950 . S
H414 C410 0.950 . S
C415 C413 1.390 . S
C415 C416 1.387 . S
C415 H418 0.950 . S
C416 C415 1.387 . S
C416 C419 1.387 . S
H417 C413 0.950 . S
H418 C415 0.950 . S
C419 C410 1.390 . S
C419 H412 0.950 . S
C419 C416 1.387 . S
C420 C421 1.387 . S
C420 H424 0.950 . S
C420 C429 1.390 . S
C421 C420 1.387 . S
C421 C423 1.387 . S
H422 C429 0.950 . S
C423 C421 1.387 . S
C423 C425 1.390 . S
C423 H427 0.950 . S
H424 C420 0.950 . S
C425 C423 1.390 . S
C425 C426 1.387 . S
C425 H428 0.950 . S
C426 C425 1.387 . S
C426 C429 1.387 . S
H427 C423 0.950 . S
H428 C425 0.950 . S
C429 C420 1.390 . S
C429 H422 0.950 . S
C429 C426 1.387 . S
C430 C431 1.387 . S
C430 H434 0.950 . S
C430 C439 1.390 . S
C431 C430 1.387 . S
C431 C433 1.387 . S
H432 C439 0.950 . S
C433 C431 1.387 . S
C433 C435 1.390 . S
C433 H437 0.950 . S
H434 C430 0.950 . S
C435 C433 1.390 . S
C435 C436 1.387 . S
C435 H438 0.950 . S
C436 C435 1.387 . S
C436 C439 1.387 . S
H437 C433 0.950 . S
H438 C435 0.950 . S
C439 C430 1.390 . S
C439 H432 0.950 . S
C439 C436 1.387 . S
C440 C441 1.387 . S
C440 H444 0.950 . S
C440 C449 1.390 . S
C441 C440 1.387 . S
C441 C443 1.387 . S
H442 C449 0.950 . S
C443 C441 1.387 . S
C443 C445 1.390 . S
C443 H447 0.950 . S
H444 C440 0.950 . S
C445 C443 1.390 . S
C445 C446 1.387 . S
C445 H448 0.950 . S
C446 C445 1.387 . S
C446 C449 1.387 . S
H447 C443 0.950 . S
H448 C445 0.950 . S
C449 C440 1.390 . S
C449 H442 0.950 . S
C449 C446 1.387 . S
C450 C451 1.387 . S
C450 H454 0.950 . S
C450 C459 1.390 . S
C451 C450 1.387 . S
C451 C453 1.387 . S
H452 C459 0.950 . S
C453 C451 1.387 . S
C453 C455 1.390 . S
C453 H457 0.950 . S
H454 C450 0.950 . S
C455 C453 1.390 . S
C455 C456 1.387 . S
C455 H458 0.950 . S
C456 C455 1.387 . S
C456 C459 1.387 . S
H457 C453 0.950 . S
H458 C455 0.950 . S
C459 C450 1.390 . S
C459 H452 0.950 . S
C459 C456 1.387 . S
C460 C461 1.387 . S
C460 H464 0.950 . S
C460 C469 1.390 . S
C461 C460 1.387 . S
C461 C463 1.387 . S
H462 C469 0.950 . S
C463 C461 1.387 . S
C463 C465 1.390 . S
C463 H467 0.950 . S
H464 C460 0.950 . S
C465 C463 1.390 . S
C465 C466 1.387 . S
C465 H468 0.950 . S
C466 C465 1.387 . S
C466 C469 1.387 . S
H467 C463 0.950 . S
H468 C465 0.950 . S
C469 C460 1.390 . S
C469 H462 0.950 . S
C469 C466 1.387 . S
C470 C471 1.387 . S
C470 H474 0.950 . S
C470 C479 1.390 . S
C471 C470 1.387 . S
C471 C473 1.387 1_545 S
H472 C479 0.950 . S
C473 C471 1.387 1_565 S
C473 C475 1.390 . S
C473 H477 0.950 . S
H474 C470 0.950 . S
C475 C473 1.390 . S
C475 C476 1.387 . S
C475 H478 0.950 . S
C476 C475 1.387 . S
C476 C479 1.387 1_565 S
H477 C473 0.950 . S
H478 C475 0.950 . S
C479 C470 1.390 . S
C479 H472 0.950 . S
C479 C476 1.387 1_545 S
C480 C481 1.387 . S
C480 H484 0.950 . S
C480 C489 1.390 1_554 S
C481 C480 1.387 . S
C481 C483 1.387 . S
H482 C489 0.950 . S
C483 C481 1.387 . S
C483 C485 1.390 1_554 S
C483 H487 0.950 . S
H484 C480 0.950 . S
C485 C483 1.390 1_556 S
C485 C486 1.387 . S
C485 H488 0.950 . S
C486 C485 1.387 . S
C486 C489 1.387 . S
H487 C483 0.950 . S
H488 C485 0.950 . S
C489 C480 1.390 1_556 S
C489 H482 0.950 . S
C489 C486 1.387 . S
C490 C491 1.387 1_455 S
C490 H494 0.950 . S
C490 C499 1.390 . S
C491 C490 1.387 1_655 S
C491 C493 1.387 . S
H492 C499 0.950 . S
C493 C491 1.387 . S
C493 C495 1.390 . S
C493 H497 0.950 . S
H494 C490 0.950 . S
C495 C493 1.390 . S
C495 C496 1.387 1_655 S
C495 H498 0.950 . S
C496 C495 1.387 1_455 S
C496 C499 1.387 . S
H497 C493 0.950 . S
H498 C495 0.950 . S
C499 C490 1.390 . S
C499 H492 0.950 . S
C499 C496 1.387 . S
C500 C501 1.387 . S
C500 H504 0.950 . S
C500 C509 1.390 1_556 S
C501 C500 1.387 . S
C501 C503 1.387 . S
H502 C509 0.950 . S
C503 C501 1.387 . S
C503 C505 1.390 . S
C503 H507 0.950 . S
H504 C500 0.950 . S
C505 C503 1.390 . S
C505 C506 1.387 1_556 S
C505 H508 0.950 . S
C506 C505 1.387 1_554 S
C506 C509 1.387 . S
H507 C503 0.950 . S
H508 C505 0.950 . S
C509 C500 1.390 1_554 S
C509 H502 0.950 . S
C509 C506 1.387 . S
C510 C511 1.387 . S
C510 H514 0.950 . S
C510 C519 1.390 . S
C511 C510 1.387 . S
C511 C513 1.387 . S
H512 C519 0.950 . S
C513 C511 1.387 . S
C513 C515 1.390 . S
C513 H517 0.950 . S
H514 C510 0.950 . S
C515 C513 1.390 . S
C515 C516 1.387 . S
C515 H518 0.950 . S
C516 C515 1.387 . S
C516 C519 1.387 . S
H517 C513 0.950 . S
H518 C515 0.950 . S
C519 C510 1.390 . S
C519 H512 0.950 . S
C519 C516 1.387 . S
C520 C521 1.387 . S
C520 H524 0.950 . S
C520 C529 1.390 . S
C521 C520 1.387 . S
C521 C523 1.387 . S
H522 C529 0.950 . S
C523 C521 1.387 . S
C523 C525 1.390 . S
C523 H527 0.954 . S
H524 C520 0.950 . S
C525 C523 1.390 . S
C525 C526 1.387 . S
C525 H528 0.950 . S
C526 C525 1.387 . S
C526 C529 1.387 . S
H527 C523 0.954 . S
H528 C525 0.950 . S
C529 C520 1.390 . S
C529 H522 0.950 . S
C529 C526 1.387 . S
C530 C531 1.387 . S
C530 H534 0.950 . S
C530 C539 1.390 1_556 S
C531 C530 1.387 . S
C531 C533 1.387 . S
H532 C539 0.950 . S
C533 C531 1.387 . S
C533 C535 1.390 1_556 S
C533 H537 0.950 . S
H534 C530 0.950 . S
C535 C533 1.390 1_554 S
C535 C536 1.387 . S
C535 H538 0.950 . S
C536 C535 1.387 . S
C536 C539 1.387 . S
H537 C533 0.950 . S
H538 C535 0.950 . S
C539 C530 1.390 1_554 S
C539 H532 0.950 . S
C539 C536 1.387 . S
C540 C541 1.387 . S
C540 H544 0.950 . S
C540 C549 1.390 . S
C541 C540 1.387 . S
C541 C543 1.387 . S
H542 C549 0.950 1_565 S
C543 C541 1.387 . S
C543 C545 1.390 . S
C543 H547 0.950 . S
H544 C540 0.950 . S
C545 C543 1.390 . S
C545 C546 1.387 . S
C545 H548 0.950 . S
C546 C545 1.387 . S
C546 C549 1.387 . S
H547 C543 0.950 . S
H548 C545 0.950 . S
C549 C540 1.390 . S
C549 H542 0.950 1_545 S
C549 C546 1.387 . S
C550 C551 1.387 . S
C550 H554 0.950 . S
C550 C559 1.390 . S
C551 C550 1.387 . S
C551 C553 1.387 . S
H552 C559 0.950 . S
C553 C551 1.387 . S
C553 C555 1.390 . S
C553 H557 0.950 . S
H554 C550 0.950 . S
C555 C553 1.390 . S
C555 C556 1.387 . S
C555 H558 0.950 1_554 S
C556 C555 1.387 . S
C556 C559 1.387 . S
H557 C553 0.950 . S
H558 C555 0.950 1_556 S
C559 C550 1.390 . S
C559 H552 0.950 . S
C559 C556 1.387 . S
C560 C561 1.387 . S
C560 H564 0.950 . S
C560 C569 1.390 . S
C561 C560 1.387 . S
C561 C563 1.387 . S
H562 C569 0.950 . S
C563 C561 1.387 . S
C563 C565 1.390 . S
C563 H567 0.950 . S
H564 C560 0.950 . S
C565 C563 1.390 . S
C565 C566 1.387 . S
C565 H568 0.950 . S
C566 C565 1.387 . S
C566 C569 1.387 . S
H567 C563 0.950 . S
H568 C565 0.950 . S
C569 C560 1.390 . S
C569 H562 0.950 . S
C569 C566 1.387 . S
C570 C571 1.387 . S
C570 H574 0.950 . S
C570 C579 1.390 . S
C571 C570 1.387 . S
C571 C573 1.387 . S
H572 C579 0.950 . S
C573 C571 1.387 . S
C573 C575 1.390 . S
C573 H577 0.950 . S
H574 C570 0.950 . S
C575 C573 1.390 . S
C575 C576 1.387 . S
C575 H578 0.950 . S
C576 C575 1.387 . S
C576 C579 1.387 . S
H577 C573 0.950 . S
H578 C575 0.950 . S
C579 C570 1.390 . S
C579 H572 0.950 . S
C579 C576 1.387 . S
C580 C581 1.387 . S
C580 H584 0.950 . S
C580 C589 1.390 . S
C581 C580 1.387 . S
C581 C583 1.387 . S
H582 C589 0.950 . S
C583 C581 1.387 . S
C583 C585 1.390 1_545 S
C583 H587 0.950 . S
H584 C580 0.950 . S
C585 C583 1.390 1_565 S
C585 C586 1.387 . S
C585 H588 0.950 . S
C586 C585 1.387 . S
C586 C589 1.387 1_565 S
H587 C583 0.950 . S
H588 C585 0.950 . S
C589 C580 1.390 . S
C589 H582 0.950 . S
C589 C586 1.387 1_545 S
C590 C591 1.387 1_455 S
C590 H594 0.950 . S
C590 C599 1.390 . S
C591 C590 1.387 1_655 S
C591 C593 1.387 . S
H592 C599 0.950 . S
C593 C591 1.387 . S
C593 C595 1.390 . S
C593 H597 0.950 . S
H594 C590 0.950 . S
C595 C593 1.390 . S
C595 C596 1.387 1_655 S
C595 H598 0.950 . S
C596 C595 1.387 1_455 S
C596 C599 1.387 . S
H597 C593 0.950 . S
H598 C595 0.950 . S
C599 C590 1.390 . S
C599 H592 0.950 . S
C599 C596 1.387 . S
C600 C601 1.387 . S
C600 H604 0.950 . S
C600 C609 1.390 . S
C601 C600 1.387 . S
C601 C603 1.387 . S
H602 C609 0.950 . S
C603 C601 1.387 . S
C603 C605 1.390 . S
C603 H607 0.950 . S
H604 C600 0.950 . S
C605 C603 1.390 . S
C605 C606 1.387 . S
C605 H608 0.950 . S
C606 C605 1.387 . S
C606 C609 1.387 . S
H607 C603 0.950 . S
H608 C605 0.950 . S
C609 C600 1.390 . S
C609 H602 0.950 . S
C609 C606 1.387 . S
C610 C611 1.387 . S
C610 H614 0.950 . S
C610 C619 1.390 1_565 S
C611 C610 1.387 . S
C611 C613 1.387 1_565 S
H612 C619 0.950 . S
C613 C611 1.387 1_545 S
C613 C615 1.390 . S
C613 H617 0.950 . S
H614 C610 0.950 . S
C615 C613 1.390 . S
C615 C616 1.387 . S
C615 H618 0.950 . S
C616 C615 1.387 . S
C616 C619 1.387 . S
H617 C613 0.950 . S
H618 C615 0.950 . S
C619 C610 1.390 1_545 S
C619 H612 0.950 . S
C619 C616 1.387 . S
C620 C621 1.387 . S
C620 H624 0.950 . S
C620 C629 1.390 . S
C621 C620 1.387 . S
C621 C623 1.387 1_655 S
H622 C629 0.950 . S
C623 C621 1.387 1_455 S
C623 C625 1.390 . S
C623 H627 0.950 . S
H624 C620 0.950 . S
C625 C623 1.390 . S
C625 C626 1.387 . S
C625 H628 0.950 . S
C626 C625 1.387 . S
C626 C629 1.387 1_455 S
H627 C623 0.950 . S
H628 C625 0.950 . S
C629 C620 1.390 . S
C629 H622 0.950 . S
C629 C626 1.387 1_655 S
C361 C9 3.623 . S
C366 C18 3.623 . S
C371 C58 3.726 . S
C376 C49 3.726 . S
C381 C89 3.772 . S
C386 C98 3.772 . S
C391 C138 3.623 . S
C396 C129 3.623 1_556 S
C401 C169 3.726 . S
C406 C178 3.726 1_556 S
C411 C218 3.772 . S
C416 C209 3.772 1_556 S
C421 C246 0.325 . S
C426 C255 0.325 . S
C431 C295 0.269 . S
C436 C286 0.269 . S
C441 C326 0.760 . S
C446 C335 0.760 . S
C451 C210 1.582 . S
C456 C6 1.614 . S
C461 C50 2.658 . S
C466 C130 2.701 . S
C471 C86 1.215 . S
C476 C166 1.230 . S
C481 C90 3.130 . S
C486 C259 3.316 . S
C491 C298 1.381 . S
C496 C10 1.269 . S
C501 C339 2.275 . S
C506 C46 2.058 . S
C511 C329 1.179 . S
C516 C15 1.069 . S
C521 C59 2.409 1_556 S
C526 C249 2.481 . S
C531 C290 3.240 . S
C536 C95 2.964 . S
C541 C99 1.582 . S
C546 C135 1.613 . S
C551 C179 2.658 . S
C556 C19 2.701 . S
C561 C55 1.234 . S
C566 C215 1.220 . S
C571 C338 1.180 . S
C576 C126 1.071 . S
C581 C258 2.481 . S
C586 C170 2.407 . S
C591 C299 3.241 . S
C596 C206 2.964 . S
C601 C250 3.316 . S
C606 C219 3.128 . S
C611 C139 1.273 . S
C616 C289 1.380 . S
C621 C330 2.276 . S
C626 C175 2.061 . S
