# Generated by pormake.
# Topology irl, (4)-cn, num edge types: 1
# Building blocks:
#     Node 0, Type 0, BuildingBlock: ICAMEG_clean_sbu_1, # of connection points: 4
#     Node 1, Type 0, BuildingBlock: ICAMEG_clean_sbu_1, # of connection points: 4
#     Node 2, Type 0, BuildingBlock: ICAMEG_clean_sbu_1, # of connection points: 4
#     Node 3, Type 0, BuildingBlock: ICAMEG_clean_sbu_1, # of connection points: 4
#     Node 4, Type 0, BuildingBlock: ICAMEG_clean_sbu_1, # of connection points: 4
#     Node 5, Type 0, BuildingBlock: ICAMEG_clean_sbu_1, # of connection points: 4
#     Node 6, Type 0, BuildingBlock: ICAMEG_clean_sbu_1, # of connection points: 4
#     Node 7, Type 0, BuildingBlock: ICAMEG_clean_sbu_1, # of connection points: 4
#     Edge 8, Type (0, 0), BuildingBlock: XUDNAN_clean_linker_2, # of connection points: 2
#     Edge 9, Type (0, 0), BuildingBlock: XUDNAN_clean_linker_2, # of connection points: 2
#     Edge 10, Type (0, 0), BuildingBlock: XUDNAN_clean_linker_2, # of connection points: 2
#     Edge 11, Type (0, 0), BuildingBlock: XUDNAN_clean_linker_2, # of connection points: 2
#     Edge 12, Type (0, 0), BuildingBlock: XUDNAN_clean_linker_2, # of connection points: 2
#     Edge 13, Type (0, 0), BuildingBlock: XUDNAN_clean_linker_2, # of connection points: 2
#     Edge 14, Type (0, 0), BuildingBlock: XUDNAN_clean_linker_2, # of connection points: 2
#     Edge 15, Type (0, 0), BuildingBlock: XUDNAN_clean_linker_2, # of connection points: 2
#     Edge 16, Type (0, 0), BuildingBlock: XUDNAN_clean_linker_2, # of connection points: 2
#     Edge 17, Type (0, 0), BuildingBlock: XUDNAN_clean_linker_2, # of connection points: 2
#     Edge 18, Type (0, 0), BuildingBlock: XUDNAN_clean_linker_2, # of connection points: 2
#     Edge 19, Type (0, 0), BuildingBlock: XUDNAN_clean_linker_2, # of connection points: 2
#     Edge 20, Type (0, 0), BuildingBlock: XUDNAN_clean_linker_2, # of connection points: 2
#     Edge 21, Type (0, 0), BuildingBlock: XUDNAN_clean_linker_2, # of connection points: 2
#     Edge 22, Type (0, 0), BuildingBlock: XUDNAN_clean_linker_2, # of connection points: 2
#     Edge 23, Type (0, 0), BuildingBlock: XUDNAN_clean_linker_2, # of connection points: 2
# Relax obj value: 0.025
# Max RMSD: 0.076
# Mean RMSD: 0.076
data_MOF--net-irl--node1-ICAMEG_clean_sbu_1--edge1-XUDNAN_clean_linker_2
_symmetry_space_group_name_H-M    P1
_symmetry_Int_Tables_number       1
_symmetry_cell_setting            triclinic
loop_
_symmetry_equiv_pos_as_xyz
'x, y, z'
_cell_length_a     34.424038
_cell_length_b     49.366297
_cell_length_c     30.188696
_cell_angle_alpha  90.020892
_cell_angle_beta   89.996155
_cell_angle_gamma 90.156385
loop_
_atom_site_label
_atom_site_type_symbol
_atom_site_fract_x
_atom_site_fract_y
_atom_site_fract_z
_atom_type_partial_charge
Co0 Co 0.0352 0.14074 0.01347 0.0
Co1 Co 0.13201 0.13026 0.04005 0.0
O2 O 0.09096 0.14698 1.00483 0.0
C3 C 0.05108 0.12294 0.92239 0.0
O4 O 0.08058 0.10996 0.93979 0.0
C5 C 0.14749 0.18897 0.05116 0.0
O6 O 0.11017 0.19197 0.05861 0.0
O7 O 0.10463 0.13998 0.09597 0.0
O8 O 0.04115 0.14459 0.0793 0.0
H9 H 0.18488 0.07152 0.16166 0.0
H10 H 0.06197 0.18291 0.95043 0.0
O11 O 0.0286 0.13665 0.94735 0.0
H12 H 0.98404 0.23143 0.06206 0.0
H13 H 0.89387 0.15145 0.97472 0.0
H14 H 0.98749 0.10931 0.07717 0.0
H15 H 0.99252 0.18191 0.0667 0.0
H16 H 0.96428 0.15923 0.96577 0.0
O17 O 0.16101 0.16562 0.0422 0.0
H18 H 0.1335 0.09228 0.11601 0.0
H19 H 0.21856 0.13385 0.03986 0.0
H20 H 0.91736 0.10115 0.08757 0.0
H21 H 0.054 0.23242 0.94432 0.0
H22 H 0.87001 0.1223 0.03609 0.0
H23 H 0.01487 0.25701 1.00049 0.0
O24 O 0.04247 0.10086 0.0188 0.0
H25 H 0.18321 0.14888 0.88726 0.0
H26 H 0.16912 0.0801 1.00459 0.0
H27 H 0.20054 0.06768 0.93404 0.0
H28 H 0.20773 0.10222 0.87477 0.0
H29 H 0.15166 0.16032 0.9582 0.0
H30 H 0.27082 0.11377 0.08494 0.0
H31 H 0.25411 0.08225 0.14622 0.0
O32 O 0.10465 0.09446 0.03868 0.0
C33 C 0.06933 0.14443 0.10688 0.0
C34 C 0.19253 0.08515 0.13495 0.0
C35 C 0.24077 0.10888 0.09193 0.0
N36 N 0.17304 0.11406 0.07509 0.0
C37 C 0.16358 0.09689 0.10891 0.0
C38 C 0.21105 0.12024 0.06658 0.0
C39 C 0.23137 0.0912 0.1263 0.0
C40 C 0.04462 0.19344 0.97475 0.0
N41 N 0.02754 0.17953 0.00871 0.0
C42 C 0.04033 0.22148 0.97123 0.0
C43 C 0.01841 0.23527 1.00279 0.0
C44 C 1.00112 0.22094 0.03736 0.0
C45 C 0.00608 0.19291 0.03986 0.0
C46 C 0.9142 0.14217 0.99742 0.0
C47 C 0.96704 0.11874 0.05484 0.0
C48 C 0.95409 0.14646 0.99247 0.0
N49 N 0.9799 0.13491 0.02115 0.0
C50 C 0.92738 0.11398 0.0608 0.0
C51 C 0.90084 0.12582 0.03187 0.0
C52 C 0.07067 0.08559 0.02984 0.0
C53 C 0.1803 0.13366 0.91286 0.0
C54 C 0.172 0.09519 0.9789 0.0
C55 C 0.18993 0.08807 0.93907 0.0
C56 C 0.194 0.10747 0.90585 0.0
N57 N 0.15855 0.12089 0.98549 0.0
C58 C 0.16259 0.14005 0.95314 0.0
Co59 Co 0.97537 0.83789 0.00926 0.0
Co60 Co 0.89534 0.87163 0.05241 0.0
O61 O 0.9199 0.84716 0.00928 0.0
C62 C 0.95771 0.8533 0.91421 0.0
O63 O 0.92217 0.86071 0.92381 0.0
C64 C 0.85131 0.81993 0.06289 0.0
O65 O 0.88427 0.80669 0.06048 0.0
O66 O 0.9229 0.85436 0.10344 0.0
O67 O 0.97412 0.83279 0.07436 0.0
H68 H 0.89386 0.93585 0.18151 0.0
H69 H 0.92067 0.80845 0.94989 0.0
O70 O 0.98001 0.84331 0.94359 0.0
H71 H 0.97846 0.73836 0.04537 0.0
H72 H 0.09616 0.79239 0.95193 0.0
H73 H 0.04201 0.85245 0.06683 0.0
H74 H 0.99816 0.78618 0.05298 0.0
H75 H 0.02645 0.80382 0.95205 0.0
O76 O 0.85097 0.84569 0.06035 0.0
H77 H 0.92403 0.90521 0.12697 0.0
H78 H 0.81389 0.88979 0.06862 0.0
H79 H 0.11181 0.84135 0.06817 0.0
H80 H 0.90038 0.76088 0.94091 0.0
H81 H 0.13932 0.81112 0.01041 0.0
H82 H 0.92925 0.72543 0.98898 0.0
O83 O 0.99047 0.8766 0.01704 0.0
H84 H 0.81366 0.87216 0.91439 0.0
H85 H 0.88323 0.92875 0.02324 0.0
H86 H 0.84956 0.95056 0.96071 0.0
H87 H 0.8143 0.9222 0.9058 0.0
H88 H 0.84844 0.85118 0.97695 0.0
H89 H 0.78249 0.92013 0.12269 0.0
H90 H 0.82258 0.94348 0.17956 0.0
O91 O 0.93866 0.89824 0.04522 0.0
C92 C 0.95357 0.84011 0.10724 0.0
C93 C 0.8761 0.92586 0.1568 0.0
C94 C 0.81358 0.917 0.12384 0.0
N95 N 0.87078 0.89585 0.09449 0.0
C96 C 0.89302 0.90854 0.12577 0.0
C97 C 0.83151 0.89979 0.09337 0.0
C98 C 0.8361 0.93011 0.15572 0.0
C99 C 0.93382 0.79316 0.97047 0.0
N100 N 0.96096 0.80012 1.0015 0.0
C101 C 0.92202 0.76624 0.96543 0.0
C102 C 0.93817 0.74636 0.99247 0.0
C103 C 0.96576 0.7536 0.02412 0.0
C104 C 0.97679 0.78073 0.02829 0.0
C105 C 0.0845 0.80553 0.97733 0.0
C106 C 0.05371 0.83913 0.04175 0.0
C107 C 0.04507 0.81212 0.97752 0.0
N108 N 0.03011 0.8286 0.00964 0.0
C109 C 0.09328 0.83299 0.0426 0.0
C110 C 0.1087 0.81605 0.01016 0.0
C111 C 0.97364 0.89788 0.0313 0.0
C112 C 0.82892 0.88474 0.93809 0.0
C113 C 0.86846 0.91626 0.99917 0.0
C114 C 0.84919 0.92873 0.96399 0.0
C115 C 0.82935 0.91281 0.93325 0.0
N116 N 0.86809 0.8887 1.00359 0.0
C117 C 0.84853 0.87298 0.9737 0.0
Co118 Co 0.01144 0.84392 0.51005 0.0
Co119 Co 0.10302 0.86538 0.4773 0.0
O120 O 0.06795 0.84511 0.51582 0.0
C121 C 0.02669 0.86542 0.59908 0.0
O122 O 0.0526 0.88105 0.57994 0.0
C123 C 0.12811 0.80868 0.46975 0.0
O124 O 0.09109 0.80292 0.46516 0.0
O125 O 0.07586 0.85179 0.42338 0.0
O126 O 0.01547 0.8394 0.44433 0.0
H127 H 0.1372 0.92733 0.35109 0.0
H128 H 0.05083 0.80754 0.57391 0.0
O129 O 0.00653 0.84898 0.57593 0.0
H130 H 0.98283 0.74702 0.46938 0.0
H131 H 0.87699 0.81659 0.55828 0.0
H132 H 0.95378 0.86656 0.4471 0.0
H133 H 0.97793 0.79666 0.46177 0.0
H134 H 0.94848 0.81837 0.56343 0.0
O135 O 0.13881 0.83323 0.47494 0.0
H136 H 0.09293 0.90194 0.4003 0.0
H137 H 0.18913 0.87086 0.47201 0.0
H138 H 0.88242 0.86509 0.44039 0.0
H139 H 0.05631 0.75803 0.58291 0.0
H140 H 0.84351 0.83998 0.4963 0.0
H141 H 0.02227 0.72742 0.53029 0.0
O142 O 0.00869 0.88372 0.50169 0.0
H143 H 0.16562 0.85598 0.62682 0.0
H144 H 0.12892 0.91984 0.50852 0.0
H145 H 0.16054 0.93716 0.5762 0.0
H146 H 0.17915 0.90511 0.63592 0.0
H147 H 0.13356 0.83958 0.55878 0.0
H148 H 0.23447 0.89569 0.42333 0.0
H149 H 0.20852 0.92427 0.36249 0.0
O150 O 0.0678 0.89772 0.47894 0.0
C151 C 0.04172 0.843 0.41504 0.0
C152 C 0.14885 0.91501 0.37758 0.0
C153 C 0.20345 0.89723 0.41809 0.0
N154 N 0.13844 0.88515 0.43918 0.0
C155 C 0.12393 0.90067 0.40562 0.0
C156 C 0.17765 0.88317 0.44548 0.0
C157 C 0.18887 0.91327 0.38397 0.0
C158 C 0.03558 0.79434 0.55119 0.0
N159 N 0.01388 0.80496 0.51755 0.0
C160 C 0.03893 0.76633 0.55633 0.0
C161 C 0.01987 0.74917 0.52675 0.0
C162 C 0.99775 0.76015 0.49255 0.0
C163 C 0.99512 0.78827 0.48838 0.0
C164 C 0.89362 0.82758 0.53369 0.0
C165 C 0.93708 0.85547 0.47139 0.0
C166 C 0.93409 0.82872 0.5365 0.0
N167 N 0.95528 0.84245 0.50545 0.0
C168 C 0.89666 0.85477 0.46749 0.0
C169 C 0.87485 0.84069 0.4989 0.0
C170 C 0.03223 0.90206 0.48868 0.0
C171 C 0.15776 0.87013 0.60097 0.0
C172 C 0.13684 0.90579 0.53441 0.0
C173 C 0.15482 0.9157 0.57261 0.0
C174 C 0.16528 0.89771 0.60609 0.0
N175 N 0.12953 0.87872 0.52967 0.0
C176 C 0.13975 0.86095 0.5623 0.0
Co177 Co 0.99943 0.14864 0.51169 0.0
Co178 Co 0.90661 0.14143 0.46729 0.0
O179 O 0.94297 0.15514 0.51289 0.0
C180 C 0.97719 0.13733 0.6079 0.0
O181 O 0.93976 0.139 0.6003 0.0
C182 C 0.88876 0.2006 0.47459 0.0
O183 O 0.92496 0.20555 0.48549 0.0
O184 O 0.94056 0.15435 0.41774 0.0
O185 O 1.00049 0.15522 0.44672 0.0
H186 H 0.87091 0.09114 0.32835 0.0
H187 H 0.96719 0.18889 0.57496 0.0
O188 O 1.00179 0.14121 0.57701 0.0
H189 H 0.05946 0.24005 0.48211 0.0
H190 H 0.13716 0.15596 0.56715 0.0
H191 H 0.05154 0.11836 0.45135 0.0
H192 H 0.0494 0.19114 0.47024 0.0
H193 H 0.06669 0.16473 0.5687 0.0
O194 O 0.87758 0.17661 0.46597 0.0
H195 H 0.91536 0.10837 0.38594 0.0
H196 H 0.82086 0.14532 0.4531 0.0
H197 H 0.12189 0.10926 0.44839 0.0
H198 H 0.97686 0.23763 0.58857 0.0
H199 H 0.16522 0.12812 0.50659 0.0
H200 H 0.02315 0.26362 0.5418 0.0
O201 O 0.99121 0.10913 0.50163 0.0
H202 H 0.83292 0.15084 0.61021 0.0
H203 H 0.86593 0.08933 0.48728 0.0
H204 H 0.82412 0.07288 0.54789 0.0
H205 H 0.80721 0.10378 0.60989 0.0
H206 H 0.87521 0.16627 0.5493 0.0
H207 H 0.77544 0.12863 0.39609 0.0
H208 H 0.80038 0.10125 0.33321 0.0
O209 O 0.93356 0.1058 0.46725 0.0
C210 C 0.97722 0.15744 0.41417 0.0
C211 C 0.85966 0.10297 0.35566 0.0
C212 C 0.80609 0.12405 0.39364 0.0
N213 N 0.87073 0.12771 0.42299 0.0
C214 C 0.88468 0.11273 0.38844 0.0
C215 C 0.83198 0.1335 0.42578 0.0
C216 C 0.82011 0.10868 0.35838 0.0
C217 C 0.98781 0.1999 0.55491 0.0
N218 N 0.00782 0.18707 0.52196 0.0
C219 C 0.99297 0.22758 0.56257 0.0
C220 C 0.01887 0.24216 0.53625 0.0
C221 C 0.0392 0.22895 0.50272 0.0
C222 C 0.03324 0.20126 0.49599 0.0
C223 C 0.11859 0.14768 0.54154 0.0
C224 C 0.07023 0.12679 0.47664 0.0
C225 C 0.07865 0.15254 0.54228 0.0
N226 N 0.05504 0.14225 0.50993 0.0
C227 C 0.11004 0.1215 0.47485 0.0
C228 C 0.13432 0.13207 0.50755 0.0
C229 C 0.96472 0.09542 0.48233 0.0
C230 C 0.84003 0.13719 0.58336 0.0
C231 C 0.8591 0.10279 0.51434 0.0
C232 C 0.8352 0.09342 0.54847 0.0
C233 C 0.82567 0.11077 0.5832 0.0
N234 N 0.87313 0.12872 0.51474 0.0
C235 C 0.86384 0.14586 0.54865 0.0
Co236 Co 0.51881 0.6636 0.99111 0.0
Co237 Co 0.60242 0.6407 0.04224 0.0
O238 O 0.57508 0.66355 0.99947 0.0
C239 C 0.5508 0.65322 0.90196 0.0
O240 O 0.577 0.63779 0.92076 0.0
C241 C 0.62618 0.69648 0.06425 0.0
O242 O 0.58897 0.70224 0.06464 0.0
O243 O 0.56612 0.65129 0.09073 0.0
O244 O 0.51004 0.66119 0.05638 0.0
H245 H 0.61314 0.57184 0.16407 0.0
H246 H 0.56651 0.7067 0.94979 0.0
O247 O 0.52567 0.66562 0.92526 0.0
H248 H 0.47622 0.75428 0.04976 0.0
H249 H 0.39398 0.69408 0.92025 0.0
H250 H 0.45319 0.63247 0.02949 0.0
H251 H 0.47354 0.70455 0.04221 0.0
H252 H 0.46481 0.69437 0.93268 0.0
O253 O 0.63715 0.67223 0.05706 0.0
H254 H 0.57871 0.60018 0.10953 0.0
H255 H 0.68579 0.63406 0.06653 0.0
H256 H 0.38219 0.63169 0.01844 0.0
H257 H 0.57007 0.75649 0.95613 0.0
H258 H 0.35215 0.66265 0.96346 0.0
H259 H 0.52477 0.78058 0.00652 0.0
O260 O 0.51802 0.62358 0.98676 0.0
H261 H 0.6923 0.65775 0.91393 0.0
H262 H 0.63269 0.58788 0.00907 0.0
H263 H 0.67661 0.5741 0.94864 0.0
H264 H 0.70681 0.60917 0.90063 0.0
H265 H 0.64785 0.67063 0.97437 0.0
H266 H 0.72139 0.60625 0.12087 0.0
H267 H 0.68501 0.57478 0.16999 0.0
O268 O 0.56831 0.6088 0.02762 0.0
C269 C 0.53009 0.65731 0.09132 0.0
C270 C 0.62933 0.5854 0.14276 0.0
C271 C 0.69008 0.60475 0.11854 0.0
N272 N 0.63026 0.61857 0.08464 0.0
C273 C 0.61001 0.60144 0.11172 0.0
C274 C 0.66977 0.62048 0.0879 0.0
C275 C 0.66965 0.58709 0.14609 0.0
C276 C 0.54645 0.71709 0.97142 0.0
N277 N 0.51971 0.70278 0.99538 0.0
C278 C 0.54871 0.74526 0.97503 0.0
C279 C 0.52332 0.75876 1.00336 0.0
C280 C 0.49609 0.74402 0.02765 0.0
C281 C 0.49474 0.71586 0.02328 0.0
C282 C 0.40671 0.68056 0.9444 0.0
C283 C 0.44028 0.64616 0.00579 0.0
C284 C 0.44679 0.68061 0.95155 0.0
N285 N 0.46304 0.66366 0.98214 0.0
C286 C 0.40009 0.64556 0.99955 0.0
C287 C 0.38326 0.66292 0.96866 0.0
C288 C 0.53781 0.60465 1.00442 0.0
C289 C 0.6794 0.64229 0.93471 0.0
C290 C 0.64557 0.60326 0.9882 0.0
C291 C 0.67051 0.59534 0.95412 0.0
C292 C 0.68748 0.61502 0.92722 0.0
N293 N 0.6378 0.63005 0.99535 0.0
C294 C 0.65436 0.64947 0.96914 0.0
Co295 Co 0.47982 0.35428 0.99672 0.0
Co296 Co 0.39692 0.37735 0.04947 0.0
O297 O 0.42315 0.35512 1.00459 0.0
C298 C 0.45013 0.36834 0.90788 0.0
O299 O 0.42504 0.38421 0.92771 0.0
C300 C 0.36158 0.322 0.06045 0.0
O301 O 0.39556 0.31076 0.05357 0.0
O302 O 0.43137 0.36288 0.09702 0.0
O303 O 0.48789 0.35477 0.06233 0.0
H304 H 0.39195 0.44007 0.18039 0.0
H305 H 0.43143 0.31325 0.95105 0.0
O306 O 0.47367 0.35411 0.93057 0.0
H307 H 0.5184 0.26125 0.04886 0.0
H308 H 0.60422 0.32335 0.92529 0.0
H309 H 0.54623 0.3827 0.03875 0.0
H310 H 0.52264 0.3111 0.04567 0.0
H311 H 0.53326 0.32421 0.93656 0.0
O312 O 0.35826 0.34768 0.06087 0.0
H313 H 0.42389 0.41292 0.12231 0.0
H314 H 0.31397 0.38812 0.07263 0.0
H315 H 0.61737 0.38228 0.0289 0.0
H316 H 0.42641 0.26339 0.95289 0.0
H317 H 0.6468 0.35245 0.97181 0.0
H318 H 0.47003 0.23707 1.00218 0.0
O319 O 0.48249 0.39446 0.9948 0.0
H320 H 0.3093 0.36974 0.91687 0.0
H321 H 0.37088 0.43268 0.02274 0.0
H322 H 0.32966 0.45082 0.963 0.0
H323 H 0.29848 0.41926 0.90957 0.0
H324 H 0.35112 0.35247 0.9768 0.0
H325 H 0.28084 0.41492 0.13024 0.0
H326 H 0.3199 0.44119 0.18459 0.0
O327 O 0.43351 0.4082 0.0386 0.0
C328 C 0.46743 0.35688 0.09742 0.0
C329 C 0.3746 0.42878 0.15681 0.0
C330 C 0.31224 0.41462 0.12872 0.0
N331 N 0.37083 0.39906 0.09398 0.0
C332 C 0.39252 0.41341 0.1238 0.0
C333 C 0.33117 0.39944 0.09622 0.0
C334 C 0.33418 0.42937 0.15919 0.0
C335 C 0.45075 0.3019 0.97224 0.0
N336 N 0.47734 0.31504 0.99813 0.0
C337 C 0.44767 0.27369 0.97329 0.0
C338 C 0.47211 0.25894 1.00101 0.0
C339 C 0.49923 0.2725 0.02725 0.0
C340 C 0.50142 0.30073 0.02541 0.0
C341 C 0.59176 0.33638 0.95036 0.0
C342 C 0.55886 0.36952 0.01407 0.0
C343 C 0.5516 0.33698 0.95684 0.0
N344 N 0.53568 0.35331 0.98855 0.0
C345 C 0.59914 0.36943 0.00855 0.0
C346 C 0.61563 0.35271 0.97647 0.0
C347 C 0.46357 0.41276 0.0151 0.0
C348 C 0.32263 0.38369 0.94003 0.0
C349 C 0.35751 0.4188 0.99956 0.0
C350 C 0.33412 0.4292 0.96586 0.0
C351 C 0.31662 0.41148 0.93591 0.0
N352 N 0.36334 0.39152 1.00335 0.0
C353 C 0.34619 0.37402 0.97416 0.0
Co354 Co 0.51656 0.36057 0.49539 0.0
Co355 Co 0.6153 0.36887 0.48033 0.0
O356 O 0.57072 0.35244 0.51074 0.0
C357 C 0.52014 0.37028 0.59235 0.0
O358 O 0.55406 0.38188 0.58633 0.0
C359 C 0.66206 0.32036 0.45677 0.0
O360 O 0.65691 0.32644 0.41486 0.0
O361 O 0.59396 0.35718 0.4218 0.0
O362 O 0.52948 0.36106 0.43084 0.0
H363 H 0.68005 0.42325 0.36047 0.0
H364 H 0.5339 0.31362 0.55305 0.0
O365 O 0.50158 0.36035 0.55964 0.0
H366 H 0.46591 0.27549 0.42335 0.0
H367 H 0.3713 0.35138 0.50935 0.0
H368 H 0.47855 0.39804 0.43221 0.0
H369 H 0.478 0.32463 0.42897 0.0
H370 H 0.43948 0.34079 0.52743 0.0
O371 O 0.6447 0.3339 0.48684 0.0
H372 H 0.62462 0.40302 0.4004 0.0
H373 H 0.70132 0.36897 0.49531 0.0
H374 H 0.41084 0.40907 0.41283 0.0
H375 H 0.52209 0.26435 0.54899 0.0
H376 H 0.35664 0.38565 0.45154 0.0
H377 H 0.4879 0.245 0.48374 0.0
O378 O 0.52669 0.40013 0.49931 0.0
H379 H 0.65104 0.3555 0.64023 0.0
H380 H 0.64666 0.42086 0.51696 0.0
H381 H 0.67032 0.43578 0.59007 0.0
H382 H 0.67273 0.40295 0.65235 0.0
H383 H 0.62698 0.34157 0.56673 0.0
H384 H 0.75758 0.38868 0.45629 0.0
H385 H 0.74713 0.41609 0.38836 0.0
O386 O 0.58781 0.40438 0.47442 0.0
C387 C 0.55936 0.35766 0.40652 0.0
C388 C 0.68499 0.41135 0.39003 0.0
C389 C 0.7285 0.39194 0.44379 0.0
N390 N 0.65969 0.3848 0.45014 0.0
C391 C 0.65371 0.39985 0.4128 0.0
C392 C 0.69652 0.38078 0.46571 0.0
C393 C 0.72261 0.40732 0.40569 0.0
C394 C 0.5188 0.30534 0.5247 0.0
N395 N 0.5065 0.32198 0.49143 0.0
C396 C 0.51229 0.27743 0.52251 0.0
C397 C 0.49314 0.26659 0.48587 0.0
C398 C 0.48081 0.28368 0.45197 0.0
C399 C 0.48784 0.31148 0.45528 0.0
C400 C 0.39467 0.36167 0.49218 0.0
C401 C 0.45514 0.38763 0.44899 0.0
C402 C 0.43332 0.3558 0.50234 0.0
N403 N 0.46297 0.36862 0.48063 0.0
C404 C 0.41685 0.39402 0.43797 0.0
C405 C 0.38646 0.3809 0.45973 0.0
C406 C 0.55526 0.41444 0.48602 0.0
C407 C 0.65021 0.36998 0.61334 0.0
C408 C 0.64723 0.40654 0.54394 0.0
C409 C 0.66088 0.41505 0.58524 0.0
C410 C 0.66229 0.39662 0.62014 0.0
N411 N 0.63534 0.38039 0.53751 0.0
C412 C 0.63678 0.36218 0.57157 0.0
Co413 Co 0.48525 0.66631 0.49019 0.0
Co414 Co 0.39665 0.63368 0.47785 0.0
O415 O 0.43044 0.66077 0.50564 0.0
C416 C 0.48607 0.6548 0.58599 0.0
O417 O 0.45924 0.63648 0.57834 0.0
C418 C 0.35254 0.68522 0.46671 0.0
O419 O 0.38501 0.69769 0.45623 0.0
O420 O 0.41286 0.64566 0.41746 0.0
O421 O 0.4729 0.66305 0.42586 0.0
H422 H 0.36476 0.55891 0.37084 0.0
H423 H 0.44619 0.70541 0.54971 0.0
O424 O 0.49942 0.66922 0.55447 0.0
H425 H 0.48741 0.75873 0.41976 0.0
H426 H 0.61635 0.71098 0.50418 0.0
H427 H 0.53974 0.64115 0.42628 0.0
H428 H 0.50198 0.70992 0.42444 0.0
H429 H 0.54734 0.70356 0.52277 0.0
O430 O 0.35269 0.66012 0.47641 0.0
H431 H 0.40677 0.59313 0.40641 0.0
H432 H 0.31386 0.61714 0.49013 0.0
H433 H 0.60849 0.64811 0.40622 0.0
H434 H 0.43124 0.75423 0.54654 0.0
H435 H 0.6473 0.68323 0.44534 0.0
H436 H 0.45181 0.7812 0.48113 0.0
O437 O 0.49605 0.6268 0.49281 0.0
H438 H 0.35201 0.64851 0.63442 0.0
H439 H 0.38886 0.58013 0.52315 0.0
H440 H 0.37116 0.56545 0.59856 0.0
H441 H 0.35257 0.59978 0.65484 0.0
H442 H 0.37038 0.6623 0.55872 0.0
H443 H 0.2707 0.5834 0.4551 0.0
H444 H 0.29617 0.5539 0.39515 0.0
O445 O 0.43914 0.60623 0.47878 0.0
C446 C 0.44431 0.6556 0.40187 0.0
C447 C 0.35334 0.5716 0.39699 0.0
C448 C 0.30054 0.58538 0.44424 0.0
N449 N 0.36285 0.607 0.45047 0.0
C450 C 0.37702 0.59096 0.41733 0.0
C451 C 0.32507 0.6045 0.46385 0.0
C452 C 0.31486 0.56882 0.41062 0.0
C453 C 0.45555 0.71709 0.52135 0.0
N454 N 0.4751 0.70489 0.48743 0.0
C455 C 0.44687 0.74469 0.51965 0.0
C456 C 0.45837 0.7598 0.48291 0.0
C457 C 0.47833 0.7472 0.44845 0.0
C458 C 0.48643 0.71955 0.45125 0.0
C459 C 0.59972 0.69567 0.4868 0.0
C460 C 0.55633 0.65664 0.44315 0.0
C461 C 0.56066 0.69135 0.49724 0.0
N462 N 0.53943 0.67216 0.47525 0.0
C463 C 0.5953 0.66041 0.43179 0.0
C464 C 0.61706 0.6801 0.45378 0.0
C465 C 0.47561 0.60566 0.48592 0.0
C466 C 0.36001 0.63336 0.61019 0.0
C467 C 0.38104 0.59518 0.54749 0.0
C468 C 0.37087 0.58675 0.5901 0.0
C469 C 0.36039 0.60602 0.62164 0.0
N470 N 0.38076 0.62205 0.53655 0.0
C471 C 0.37027 0.64104 0.56721 0.0
H472 H 0.94471 0.94959 0.03617 0.0
H473 H 0.0527 0.90471 0.02675 0.0
H474 H 0.08938 0.94781 0.02716 0.0
H475 H 0.97313 0.00323 0.96306 0.0
H476 H 0.94787 0.02907 0.9938 0.0
H477 H 0.93036 0.99466 0.99462 0.0
H478 H 0.93381 0.9945 0.08037 0.0
H479 H 0.95138 0.02891 0.07979 0.0
H480 H 0.97893 0.00293 0.10745 0.0
H481 H 0.11424 0.9959 0.03016 0.0
H482 H 0.12536 0.04524 0.03017 0.0
H483 H 1.00073 0.05861 0.03317 0.0
C484 C 0.97606 0.94873 0.03435 0.0
C485 C 0.99579 0.92369 0.03158 0.0
C486 C 0.03689 0.9236 0.02884 0.0
C487 C 0.05799 0.94798 0.02918 0.0
C488 C 0.03756 0.97227 0.03182 0.0
C489 C 0.99749 0.97283 0.03396 0.0
C490 C 0.98241 1.00163 0.03491 0.0
C491 C 0.95695 0.00748 0.99417 0.0
C492 C 0.96033 0.00732 0.07821 0.0
C493 C 0.0203 0.01724 0.03304 0.0
C494 C 0.05178 0.99993 0.03175 0.0
C495 C 0.0898 0.00963 0.03085 0.0
C496 C 0.09581 0.03775 0.0309 0.0
C497 C 0.06396 0.05591 0.03121 0.0
C498 C 0.02573 0.04535 0.03244 0.0
H499 H 0.06966 0.95082 0.50251 0.0
H500 H 0.95924 0.91551 0.46341 0.0
H501 H 0.93164 0.9611 0.4545 0.0
H502 H 0.02804 0.00424 0.56757 0.0
H503 H 0.06416 0.02912 0.55268 0.0
H504 H 0.07655 0.9937 0.55323 0.0
H505 H 0.09938 0.99702 0.47165 0.0
H506 H 0.08702 0.03247 0.47084 0.0
H507 H 0.06652 0.00982 0.43019 0.0
H508 H 0.91593 0.00964 0.44884 0.0
H509 H 0.91056 0.05906 0.45292 0.0
H510 H 0.02946 0.0642 0.50096 0.0
C511 C 0.03982 0.95278 0.49167 0.0
C512 C 0.01661 0.92966 0.48335 0.0
C513 C 0.97747 0.93294 0.47003 0.0
C514 C 0.96158 0.95875 0.46466 0.0
C515 C 0.98504 0.98111 0.47331 0.0
C516 C 0.02315 0.97852 0.487 0.0
C517 C 0.04106 0.00606 0.49651 0.0
C518 C 0.05315 0.00841 0.54541 0.0
C519 C 0.07554 0.01167 0.46543 0.0
C520 C 0.00696 0.02441 0.48604 0.0
C521 C 0.97522 0.00948 0.47216 0.0
C522 C 0.94044 0.0216 0.45999 0.0
C523 C 0.9377 0.04979 0.46257 0.0
C524 C 0.96936 0.06568 0.47795 0.0
C525 C 0.00459 0.0527 0.48949 0.0
H526 H 0.56379 0.55791 0.04519 0.0
H527 H 0.48024 0.58745 0.94872 0.0
H528 H 0.45514 0.5412 0.93897 0.0
H529 H 0.58303 0.49304 0.99089 0.0
H530 H 0.58635 0.47466 0.04232 0.0
H531 H 0.59961 0.50998 0.04034 0.0
H532 H 0.55063 0.52028 0.1032 0.0
H533 H 0.53719 0.48503 0.10539 0.0
H534 H 0.50047 0.51044 0.09671 0.0
H535 H 0.43679 0.49274 0.94143 0.0
H536 H 0.42605 0.44413 0.95674 0.0
H537 H 0.52057 0.44496 0.05154 0.0
C538 C 0.54049 0.55462 0.02168 0.0
C539 C 0.52409 0.57644 0.9977 0.0
C540 C 0.49335 0.57121 0.96757 0.0
C541 C 0.47889 0.54494 0.96166 0.0
C542 C 0.49541 0.52402 0.98602 0.0
C543 C 0.52551 0.52845 0.01541 0.0
C544 C 0.53691 0.50236 0.0386 0.0
C545 C 0.57898 0.49455 0.02735 0.0
C546 C 0.53093 0.50468 0.08896 0.0
C547 C 0.50813 0.48272 0.01799 0.0
C548 C 0.48466 0.49574 0.98755 0.0
C549 C 0.4551 0.48227 0.96495 0.0
C550 C 0.44914 0.45477 0.97389 0.0
C551 C 0.47255 0.44113 1.00509 0.0
C552 C 0.50262 0.45511 0.02723 0.0
H553 H 0.48803 0.44418 0.49395 0.0
H554 H 0.61236 0.45246 0.47279 0.0
H555 H 0.60567 0.50206 0.47214 0.0
H556 H 0.46117 0.49886 0.42083 0.0
H557 H 0.42107 0.5097 0.45482 0.0
H558 H 0.43574 0.4747 0.45503 0.0
H559 H 0.44409 0.47661 0.54029 0.0
H560 H 0.42961 0.51164 0.54033 0.0
H561 H 0.47544 0.50195 0.56437 0.0
H562 H 0.58596 0.55093 0.47624 0.0
H563 H 0.55366 0.5955 0.47875 0.0
H564 H 0.44187 0.5553 0.49215 0.0
C565 C 0.51391 0.45638 0.48934 0.0
C566 C 0.55084 0.44429 0.48426 0.0
C567 C 0.58381 0.4611 0.47749 0.0
C568 C 0.58034 0.48937 0.47697 0.0
C569 C 0.54362 0.50059 0.48252 0.0
C570 C 0.51091 0.48465 0.488 0.0
C571 C 0.47466 0.50183 0.4917 0.0
C572 C 0.44651 0.49592 0.45331 0.0
C573 C 0.45479 0.49776 0.53686 0.0
C574 C 0.49222 0.52989 0.48784 0.0
C575 C 0.53206 0.52875 0.48295 0.0
C576 C 0.55473 0.5521 0.47979 0.0
C577 C 0.53612 0.57732 0.4814 0.0
C578 C 0.49519 0.57898 0.48563 0.0
C579 C 0.47314 0.55483 0.48881 0.0
H580 H 0.99919 0.14065 0.15117 0.0
H581 H 0.12079 0.16159 0.16963 0.0
H582 H 0.10824 0.17104 0.24837 0.0
H583 H 0.95898 0.19047 0.22883 0.0
H584 H 0.92207 0.16773 0.2493 0.0
H585 H 0.93948 0.16445 0.19323 0.0
H586 H 0.95696 0.11427 0.20792 0.0
H587 H 0.93949 0.11737 0.26391 0.0
H588 H 0.98837 0.10594 0.2537 0.0
H589 H 0.08424 0.17624 0.32485 0.0
H590 H 0.0511 0.17439 0.39657 0.0
H591 H 0.94433 0.14951 0.33118 0.0
C592 C 0.02306 0.14751 0.1717 0.0
C593 C 0.06101 0.15045 0.15408 0.0
C594 C 0.09154 0.15909 0.18225 0.0
C595 C 0.08466 0.16468 0.22702 0.0
C596 C 0.04711 0.16146 0.24336 0.0
C597 C 0.01679 0.15293 0.2168 0.0
C598 C 0.97976 0.14953 0.24373 0.0
C599 C 0.94821 0.16922 0.22782 0.0
C600 C 0.96531 0.12002 0.24223 0.0
C601 C 0.99428 0.15711 0.28963 0.0
C602 C 0.03313 0.16421 0.28829 0.0
C603 C 0.05374 0.17094 0.32633 0.0
C604 C 0.03449 0.16984 0.36707 0.0
C605 C 0.99488 0.16199 0.36983 0.0
C606 C 0.97438 0.15601 0.33028 0.0
H607 H 0.97532 0.85556 0.36979 0.0
H608 H 0.08751 0.81679 0.35574 0.0
H609 H 0.0733 0.80749 0.27686 0.0
H610 H 0.92038 0.81276 0.29172 0.0
H611 H 0.89312 0.84087 0.26987 0.0
H612 H 0.90984 0.84153 0.32646 0.0
H613 H 0.94479 0.8872 0.31186 0.0
H614 H 0.92819 0.88669 0.25532 0.0
H615 H 0.97935 0.88963 0.26715 0.0
H616 H 0.04856 0.8041 0.19989 0.0
H617 H 0.01839 0.81065 0.12714 0.0
H618 H 0.92336 0.85454 0.18896 0.0
C619 C 0.99645 0.84461 0.35021 0.0
C620 C 0.03225 0.83646 0.36871 0.0
C621 C 0.05986 0.82299 0.342 0.0
C622 C 0.05193 0.81752 0.29736 0.0
C623 C 0.0165 0.82601 0.27991 0.0
C624 C 0.98936 0.83955 0.30527 0.0
C625 C 0.95535 0.84887 0.27718 0.0
C626 C 0.91742 0.83518 0.29221 0.0
C627 C 0.95173 0.87994 0.27792 0.0
C628 C 0.9679 0.83873 0.23198 0.0
C629 C 1.0029 0.82518 0.23463 0.0
C630 C 0.02109 0.81459 0.19737 0.0
C631 C 0.00358 0.81847 0.15607 0.0
C632 C 0.96838 0.8332 0.15203 0.0
C633 C 0.95004 0.84303 0.19079 0.0
H634 H 0.96248 0.85216 0.64889 0.0
H635 H 0.08186 0.88004 0.6589 0.0
H636 H 0.07653 0.88029 0.74039 0.0
H637 H 0.92623 0.89348 0.73955 0.0
H638 H 0.89235 0.86815 0.75866 0.0
H639 H 0.90554 0.8696 0.70094 0.0
H640 H 0.92697 0.81937 0.70374 0.0
H641 H 0.91384 0.81775 0.76144 0.0
H642 H 0.96232 0.80889 0.74428 0.0
H643 H 0.05994 0.87499 0.82002 0.0
H644 H 0.03121 0.86829 0.89407 0.0
H645 H 0.92062 0.84761 0.8338 0.0
C646 C 0.98744 0.85829 0.66835 0.0
C647 C 0.02266 0.86596 0.64773 0.0
C648 C 0.0546 0.87416 0.67409 0.0
C649 C 0.05189 0.8743 0.72036 0.0
C650 C 0.01682 0.86664 0.73972 0.0
C651 C 0.98497 0.85913 0.71469 0.0
C652 C 0.95042 0.85252 0.74405 0.0
C653 C 0.91664 0.87211 0.73527 0.0
C654 C 0.93765 0.82287 0.73802 0.0
C655 C 0.96805 0.85719 0.78948 0.0
C656 C 0.00653 0.86504 0.78605 0.0
C657 C 0.02972 0.8692 0.82319 0.0
C658 C 0.0132 0.86527 0.86504 0.0
C659 C 0.97368 0.85772 0.86948 0.0
C660 C 0.95073 0.85383 0.83121 0.0
H661 H 0.98694 0.13941 0.87403 0.0
H662 H 0.10227 0.10481 0.86056 0.0
H663 H 0.09425 0.10347 0.77966 0.0
H664 H 0.94247 0.09996 0.78519 0.0
H665 H 0.91213 0.12732 0.76631 0.0
H666 H 0.92627 0.12546 0.82371 0.0
H667 H 0.95501 0.1739 0.81907 0.0
H668 H 0.94088 0.17595 0.76172 0.0
H669 H 0.99081 0.18157 0.77728 0.0
H670 H 0.07576 0.10731 0.70095 0.0
H671 H 0.04712 0.11533 0.62757 0.0
H672 H 0.94222 0.14606 0.68953 0.0
C673 C 0.01043 0.13152 0.854 0.0
C674 C 0.04525 0.12217 0.87375 0.0
C675 C 0.07526 0.11194 0.84638 0.0
C676 C 0.07102 0.11111 0.8003 0.0
C677 C 0.03645 0.12036 0.7819 0.0
C678 C 0.00654 0.13027 0.80769 0.0
C679 C 0.97251 0.139 0.77897 0.0
C680 C 0.93619 0.12191 0.78916 0.0
C681 C 0.96434 0.16941 0.7846 0.0
C682 C 0.98831 0.13276 0.73308 0.0
C683 C 0.02528 0.12204 0.73583 0.0
C684 C 0.04673 0.11549 0.69831 0.0
C685 C 0.03018 0.1202 0.65674 0.0
C686 C 0.99235 0.13122 0.65274 0.0
C687 C 0.97097 0.1373 0.69155 0.0
H688 H 0.5626 0.65871 0.17473 0.0
H689 H 0.45167 0.66008 0.10612 0.0
H690 H 0.4176 0.66095 0.17784 0.0
H691 H 0.53374 0.61586 0.26343 0.0
H692 H 0.56156 0.63366 0.30488 0.0
H693 H 0.57738 0.6338 0.24803 0.0
H694 H 0.57759 0.68632 0.24825 0.0
H695 H 0.56179 0.68627 0.30515 0.0
H696 H 0.53415 0.70425 0.2639 0.0
H697 H 0.39527 0.65867 0.2573 0.0
H698 H 0.3869 0.6564 0.33864 0.0
H699 H 0.51217 0.65901 0.35492 0.0
C700 C 0.53116 0.65935 0.17471 0.0
C701 C 0.50991 0.65923 0.13463 0.0
C702 C 0.46873 0.66018 0.13625 0.0
C703 C 0.44902 0.66064 0.17688 0.0
C704 C 0.47082 0.66048 0.21571 0.0
C705 C 0.51098 0.66016 0.21499 0.0
C706 C 0.5275 0.66007 0.26148 0.0
C707 C 0.55145 0.63431 0.26993 0.0
C708 C 0.55168 0.68576 0.2702 0.0
C709 C 0.49035 0.66006 0.28836 0.0
C710 C 0.45795 0.66015 0.26141 0.0
C711 C 0.42043 0.65891 0.27879 0.0
C712 C 0.41595 0.65756 0.32498 0.0
C713 C 0.44881 0.65776 0.35321 0.0
C714 C 0.4864 0.6592 0.3344 0.0
H715 H 0.49083 0.36319 0.36073 0.0
H716 H 0.61346 0.34594 0.34208 0.0
H717 H 0.6025 0.34186 0.26148 0.0
H718 H 0.45389 0.31807 0.27627 0.0
H719 H 0.41609 0.34101 0.25923 0.0
H720 H 0.4333 0.34148 0.3156 0.0
H721 H 0.44873 0.39267 0.30868 0.0
H722 H 0.4316 0.39241 0.25231 0.0
H723 H 0.47995 0.40431 0.26463 0.0
H724 H 0.57834 0.34052 0.18275 0.0
H725 H 0.54374 0.34359 0.11162 0.0
H726 H 0.43688 0.36264 0.18158 0.0
C727 C 0.51547 0.35836 0.33989 0.0
C728 C 0.55306 0.3547 0.35803 0.0
C729 C 0.58439 0.3487 0.32921 0.0
C730 C 0.57843 0.34632 0.28333 0.0
C731 C 0.54102 0.3501 0.2667 0.0
C732 C 0.51011 0.3561 0.2941 0.0
C733 C 0.47305 0.36016 0.26777 0.0
C734 C 0.44227 0.33891 0.28048 0.0
C735 C 0.45743 0.38911 0.27371 0.0
C736 C 0.48797 0.35561 0.22114 0.0
C737 C 0.52719 0.34968 0.22132 0.0
C738 C 0.54761 0.34508 0.18224 0.0
C739 C 0.52757 0.34686 0.14191 0.0
C740 C 0.4874 0.3533 0.14072 0.0
C741 C 0.46744 0.35751 0.18113 0.0
H742 H 0.51533 0.36298 0.85704 0.0
H743 H 0.39057 0.37387 0.849 0.0
H744 H 0.39475 0.37413 0.76707 0.0
H745 H 0.53775 0.40863 0.7681 0.0
H746 H 0.57837 0.38914 0.74816 0.0
H747 H 0.56522 0.38787 0.80587 0.0
H748 H 0.55915 0.33563 0.80132 0.0
H749 H 0.57234 0.33673 0.74359 0.0
H750 H 0.52763 0.32064 0.76034 0.0
H751 H 0.41252 0.37176 0.68619 0.0
H752 H 0.44302 0.37182 0.61206 0.0
H753 H 0.55698 0.36705 0.67286 0.0
C754 C 0.48888 0.36512 0.83792 0.0
C755 C 0.45251 0.36802 0.85909 0.0
C756 C 0.41862 0.37148 0.83323 0.0
C757 C 0.42074 0.37157 0.78678 0.0
C758 C 0.45708 0.36876 0.76686 0.0
C759 C 0.49061 0.366 0.79159 0.0
C760 C 0.52626 0.36505 0.76211 0.0
C761 C 0.5535 0.38911 0.77163 0.0
C762 C 0.54759 0.33789 0.76714 0.0
C763 C 0.50753 0.36754 0.71688 0.0
C764 C 0.46755 0.36922 0.72036 0.0
C765 C 0.4438 0.3707 0.68308 0.0
C766 C 0.46136 0.37064 0.64115 0.0
C767 C 0.50231 0.36967 0.63686 0.0
C768 C 0.52563 0.36815 0.67527 0.0
H769 H 0.48617 0.65146 0.85024 0.0
H770 H 0.61158 0.65877 0.84476 0.0
H771 H 0.60836 0.66242 0.76288 0.0
H772 H 0.47887 0.60822 0.75506 0.0
H773 H 0.43338 0.62226 0.73662 0.0
H774 H 0.44546 0.62247 0.79466 0.0
H775 H 0.43552 0.67447 0.79709 0.0
H776 H 0.42347 0.67442 0.73901 0.0
H777 H 0.46217 0.69577 0.75921 0.0
H778 H 0.59076 0.66693 0.68194 0.0
H779 H 0.56145 0.66548 0.60709 0.0
H780 H 0.44841 0.64988 0.6653 0.0
C781 C 0.51286 0.65409 0.83168 0.0
C782 C 0.5491 0.65528 0.85342 0.0
C783 C 0.58359 0.658 0.82838 0.0
C784 C 0.58198 0.66018 0.78205 0.0
C785 C 0.54572 0.65895 0.76147 0.0
C786 C 0.51186 0.65544 0.78543 0.0
C787 C 0.47695 0.65264 0.75519 0.0
C788 C 0.45754 0.62474 0.76072 0.0
C789 C 0.44782 0.67571 0.7631 0.0
C790 C 0.49641 0.65528 0.71044 0.0
C791 C 0.53597 0.65946 0.7148 0.0
C792 C 0.5599 0.66341 0.67811 0.0
C793 C 0.54302 0.66267 0.63583 0.0
C794 C 0.50284 0.65737 0.63068 0.0
C795 C 0.4793 0.65369 0.66846 0.0
H796 H 0.35226 0.26703 0.04505 0.0
H797 H 0.28944 0.3393 0.08465 0.0
H798 H 0.22858 0.31317 0.08676 0.0
H799 H 0.27857 0.2405 0.9739 0.0
H800 H 0.28641 0.2056 0.98883 0.0
H801 H 0.32587 0.22955 0.99208 0.0
H802 H 0.33646 0.21723 0.07459 0.0
H803 H 0.29717 0.19311 0.07151 0.0
H804 H 0.29633 0.21951 0.11277 0.0
H805 H 0.17386 0.27999 0.08213 0.0
H806 H 0.1292 0.24116 0.07363 0.0
H807 H 0.22664 0.19 0.03737 0.0
C808 C 0.32579 0.27727 0.05469 0.0
C809 C 0.32581 0.30528 0.0647 0.0
C810 C 0.29036 0.31792 0.07672 0.0
C811 C 0.25551 0.30324 0.07805 0.0
C812 C 0.25635 0.27584 0.06735 0.0
C813 C 0.29052 0.26287 0.05615 0.0
C814 C 0.283 0.23327 0.04541 0.0
C815 C 0.29412 0.22687 0.99719 0.0
C816 C 0.30452 0.21469 0.07802 0.0
C817 C 0.23934 0.23178 0.05213 0.0
C818 C 0.2246 0.25658 0.06477 0.0
C819 C 0.18506 0.2604 0.07244 0.0
C820 C 0.15988 0.23821 0.06743 0.0
C821 C 0.17429 0.21247 0.05491 0.0
C822 C 0.21462 0.20937 0.04705 0.0
H823 H 0.70584 0.6929 0.05705 0.0
H824 H 0.61242 0.74993 0.08176 0.0
H825 H 0.66022 0.78709 0.08655 0.0
H826 H 0.77716 0.72436 0.13024 0.0
H827 H 0.81734 0.71784 0.09349 0.0
H828 H 0.77599 0.69537 0.09391 0.0
H829 H 0.76719 0.70255 0.00951 0.0
H830 H 0.80843 0.72508 0.00885 0.0
H831 H 0.76215 0.73645 0.98813 0.0
H832 H 0.71726 0.8183 0.08579 0.0
H833 H 0.78017 0.84181 0.08009 0.0
H834 H 0.83747 0.7649 0.05588 0.0
C835 C 0.69545 0.71315 0.06396 0.0
C836 C 0.6553 0.71844 0.06928 0.0
C837 C 0.64296 0.7453 0.07776 0.0
C838 C 0.6699 0.76658 0.08054 0.0
C839 C 0.70915 0.76071 0.07479 0.0
C840 C 0.72199 0.73469 0.06676 0.0
C841 C 0.76575 0.73411 0.06058 0.0
C842 C 0.7852 0.7169 0.09672 0.0
C843 C 0.7765 0.72395 0.014 0.0
C844 C 0.77542 0.76392 0.0661 0.0
C845 C 0.74228 0.77883 0.07435 0.0
C846 C 0.74345 0.80683 0.07959 0.0
C847 C 0.7794 0.82 0.07618 0.0
C848 C 0.81389 0.80524 0.06765 0.0
C849 C 0.81174 0.77676 0.06279 0.0
H850 H 0.20811 0.81272 0.46674 0.0
H851 H 0.11346 0.75442 0.4724 0.0
H852 H 0.16073 0.71709 0.472 0.0
H853 H 0.26911 0.77399 0.39298 0.0
H854 H 0.31383 0.78367 0.41978 0.0
H855 H 0.27271 0.80615 0.42102 0.0
H856 H 0.27577 0.80735 0.50672 0.0
H857 H 0.31692 0.78489 0.50575 0.0
H858 H 0.2743 0.77601 0.53731 0.0
H859 H 0.21725 0.68614 0.47192 0.0
H860 H 0.28022 0.66287 0.47067 0.0
H861 H 0.3396 0.74054 0.46349 0.0
C862 C 0.19737 0.7921 0.46796 0.0
C863 C 0.15701 0.78652 0.46957 0.0
C864 C 0.14415 0.75925 0.47097 0.0
C865 C 0.17079 0.73787 0.47084 0.0
C866 C 0.21024 0.74403 0.46911 0.0
C867 C 0.22363 0.77041 0.46757 0.0
C868 C 0.26771 0.77124 0.46547 0.0
C869 C 0.28165 0.78455 0.42223 0.0
C870 C 0.28466 0.78573 0.50625 0.0
C871 C 0.27689 0.74119 0.46615 0.0
C872 C 0.24321 0.72596 0.46842 0.0
C873 C 0.24385 0.69782 0.47006 0.0
C874 C 0.27988 0.68479 0.46941 0.0
C875 C 0.31497 0.69984 0.46693 0.0
C876 C 0.31333 0.72846 0.46513 0.0
H877 H 0.69309 0.27783 0.40973 0.0
H878 H 0.7057 0.3232 0.5321 0.0
H879 H 0.76633 0.29868 0.54846 0.0
H880 H 0.72848 0.21354 0.45681 0.0
H881 H 0.75207 0.20361 0.40606 0.0
H882 H 0.7094 0.22464 0.40427 0.0
H883 H 0.74748 0.2603 0.35854 0.0
H884 H 0.79044 0.23961 0.3608 0.0
H885 H 0.79211 0.2741 0.38033 0.0
H886 H 0.82928 0.27264 0.54761 0.0
H887 H 0.88352 0.24038 0.53699 0.0
H888 H 0.82667 0.20844 0.41988 0.0
C889 C 0.70835 0.28229 0.44026 0.0
C890 C 0.69479 0.30256 0.46946 0.0
C891 C 0.71543 0.30773 0.50922 0.0
C892 C 0.75009 0.29404 0.5187 0.0
C893 C 0.76326 0.27472 0.48867 0.0
C894 C 0.74246 0.26823 0.45092 0.0
C895 C 0.76232 0.24586 0.42506 0.0
C896 C 0.73653 0.2204 0.42294 0.0
C897 C 0.77376 0.25556 0.37842 0.0
C898 C 0.79786 0.24122 0.45369 0.0
C899 C 0.7982 0.25841 0.48982 0.0
C900 C 0.82906 0.2588 0.5198 0.0
C901 C 0.85987 0.24063 0.51333 0.0
C902 C 0.8591 0.22201 0.47773 0.0
C903 C 0.82779 0.22245 0.44748 0.0
loop_
_geom_bond_atom_site_label_1
_geom_bond_atom_site_label_2
_geom_bond_distance
_geom_bond_site_symmetry_2
_ccdc_geom_bond_type
Co0 O2 2.123 1_654 S
Co0 O8 2.090 1_655 S
Co0 O11 2.076 1_554 S
Co0 O24 2.092 1_654 S
Co0 N41 2.157 . S
Co0 N49 2.234 . S
Co1 O2 2.160 1_554 S
Co1 O7 2.058 . S
Co1 O17 2.057 . S
Co1 O32 2.037 . S
Co1 N36 2.145 . S
Co1 N57 2.257 1_554 S
O2 Co0 2.123 1_456 S
O2 Co1 2.160 1_556 S
C3 O4 1.278 . S
C3 O11 1.224 1_455 S
O4 C3 1.278 . S
C5 O6 1.245 . S
C5 O17 1.232 . S
O6 C5 1.245 . S
O7 Co1 2.058 . S
O7 C33 1.269 . S
O8 Co0 2.090 1_455 S
O8 C33 1.257 . S
H9 C34 0.930 . S
H10 C40 0.930 1_455 S
O11 Co0 2.076 1_556 S
O11 C3 1.224 1_655 S
H12 C44 0.929 . S
H13 C46 0.930 . S
H14 C47 0.930 . S
H15 C45 0.929 . S
H16 C48 0.928 . S
O17 Co1 2.057 . S
O17 C5 1.232 . S
H18 C37 0.929 . S
H19 C38 0.929 . S
H20 C50 0.931 . S
H21 C42 0.929 . S
H22 C51 0.930 . S
H23 C43 0.931 . S
O24 Co0 2.092 1_456 S
O24 C52 1.214 1_556 S
H25 C53 0.929 . S
H26 C54 0.929 1_554 S
H27 C55 0.930 . S
H28 C56 0.929 . S
H29 C58 0.930 . S
H30 C35 0.930 . S
H31 C39 0.930 . S
O32 Co1 2.037 . S
O32 C52 1.234 . S
C33 O7 1.269 . S
C33 O8 1.257 . S
C34 H9 0.930 . S
C34 C37 1.388 . S
C34 C39 1.418 . S
C35 H30 0.930 . S
C35 C38 1.404 . S
C35 C39 1.353 . S
N36 Co1 2.145 . S
N36 C37 1.397 . S
N36 C38 1.334 . S
C37 H18 0.929 . S
C37 C34 1.388 . S
C37 N36 1.397 . S
C38 H19 0.929 . S
C38 C35 1.404 . S
C38 N36 1.334 . S
C39 H31 0.930 . S
C39 C34 1.418 . S
C39 C35 1.353 . S
C40 H10 0.930 1_655 S
C40 N41 1.330 1_556 S
C40 C42 1.446 . S
N41 Co0 2.157 . S
N41 C40 1.330 1_554 S
N41 C45 1.418 . S
C42 H21 0.929 . S
C42 C40 1.446 . S
C42 C43 1.332 1_556 S
C43 H23 0.931 . S
C43 C42 1.332 1_554 S
C43 C44 1.267 . S
C44 H12 0.929 . S
C44 C43 1.267 . S
C44 C45 1.251 . S
C45 H15 0.929 . S
C45 N41 1.418 . S
C45 C44 1.251 . S
C46 H13 0.930 . S
C46 C48 1.406 . S
C46 C51 1.261 1_556 S
C47 H14 0.930 . S
C47 N49 1.325 . S
C47 C50 1.357 . S
C48 H16 0.928 . S
C48 C46 1.406 . S
C48 N49 1.261 1_556 S
N49 Co0 2.234 . S
N49 C47 1.325 . S
N49 C48 1.261 1_554 S
C50 H20 0.931 . S
C50 C47 1.357 . S
C50 C51 1.312 . S
C51 H22 0.930 . S
C51 C46 1.261 1_554 S
C51 C50 1.312 . S
C52 O24 1.214 1_554 S
C52 O32 1.234 . S
C53 H25 0.929 . S
C53 C56 1.391 . S
C53 C58 1.391 . S
C54 H26 0.929 1_556 S
C54 C55 1.390 . S
C54 N57 1.391 . S
C55 H27 0.930 . S
C55 C54 1.390 . S
C55 C56 1.392 . S
C56 H28 0.929 . S
C56 C53 1.391 . S
C56 C55 1.392 . S
N57 Co1 2.257 1_556 S
N57 C54 1.391 . S
N57 C58 1.388 . S
C58 H29 0.930 . S
C58 C53 1.391 . S
C58 N57 1.388 . S
Co59 O61 2.123 1_454 S
Co59 O67 2.090 1_455 S
Co59 O70 2.076 1_554 S
Co59 O83 2.092 1_454 S
Co59 N100 2.157 . S
Co59 N108 2.234 . S
Co60 O61 2.160 1_554 S
Co60 O66 2.058 . S
Co60 O76 2.057 . S
Co60 O91 2.037 . S
Co60 N95 2.145 . S
Co60 N116 2.257 1_554 S
O61 Co59 2.123 1_656 S
O61 Co60 2.160 1_556 S
C62 O63 1.278 . S
C62 O70 1.224 1_655 S
O63 C62 1.278 . S
C64 O65 1.245 . S
C64 O76 1.232 . S
O65 C64 1.245 . S
O66 Co60 2.058 . S
O66 C92 1.269 . S
O67 Co59 2.090 1_655 S
O67 C92 1.257 . S
H68 C93 0.930 . S
H69 C99 0.930 1_655 S
O70 Co59 2.076 1_556 S
O70 C62 1.224 1_455 S
H71 C103 0.929 . S
H72 C105 0.930 . S
H73 C106 0.930 . S
H74 C104 0.929 . S
H75 C107 0.928 . S
O76 Co60 2.057 . S
O76 C64 1.232 . S
H77 C96 0.929 . S
H78 C97 0.929 . S
H79 C109 0.931 . S
H80 C101 0.929 . S
H81 C110 0.930 . S
H82 C102 0.931 . S
O83 Co59 2.092 1_656 S
O83 C111 1.214 1_556 S
H84 C112 0.929 . S
H85 C113 0.929 1_554 S
H86 C114 0.930 . S
H87 C115 0.929 . S
H88 C117 0.930 . S
H89 C94 0.930 . S
H90 C98 0.930 . S
O91 Co60 2.037 . S
O91 C111 1.234 . S
C92 O66 1.269 . S
C92 O67 1.257 . S
C93 H68 0.930 . S
C93 C96 1.388 . S
C93 C98 1.418 . S
C94 H89 0.930 . S
C94 C97 1.404 . S
C94 C98 1.353 . S
N95 Co60 2.145 . S
N95 C96 1.397 . S
N95 C97 1.334 . S
C96 H77 0.929 . S
C96 C93 1.388 . S
C96 N95 1.397 . S
C97 H78 0.929 . S
C97 C94 1.404 . S
C97 N95 1.334 . S
C98 H90 0.930 . S
C98 C93 1.418 . S
C98 C94 1.353 . S
C99 H69 0.930 1_455 S
C99 N100 1.330 1_556 S
C99 C101 1.446 . S
N100 Co59 2.157 . S
N100 C99 1.330 1_554 S
N100 C104 1.418 . S
C101 H80 0.929 . S
C101 C99 1.446 . S
C101 C102 1.332 1_556 S
C102 H82 0.931 . S
C102 C101 1.332 1_554 S
C102 C103 1.267 . S
C103 H71 0.929 . S
C103 C102 1.267 . S
C103 C104 1.251 . S
C104 H74 0.929 . S
C104 N100 1.418 . S
C104 C103 1.251 . S
C105 H72 0.930 . S
C105 C107 1.406 . S
C105 C110 1.261 1_556 S
C106 H73 0.930 . S
C106 N108 1.325 . S
C106 C109 1.357 . S
C107 H75 0.928 . S
C107 C105 1.406 . S
C107 N108 1.261 1_556 S
N108 Co59 2.234 . S
N108 C106 1.325 . S
N108 C107 1.261 1_554 S
C109 H79 0.931 . S
C109 C106 1.357 . S
C109 C110 1.312 . S
C110 H81 0.930 . S
C110 C105 1.261 1_554 S
C110 C109 1.312 . S
C111 O83 1.214 1_554 S
C111 O91 1.234 . S
C112 H84 0.929 . S
C112 C115 1.391 . S
C112 C117 1.391 . S
C113 H85 0.929 1_556 S
C113 C114 1.390 . S
C113 N116 1.391 . S
C114 H86 0.930 . S
C114 C113 1.390 . S
C114 C115 1.392 . S
C115 H87 0.929 . S
C115 C112 1.391 . S
C115 C114 1.392 . S
N116 Co60 2.257 1_556 S
N116 C113 1.391 . S
N116 C117 1.388 . S
C117 H88 0.930 . S
C117 C112 1.391 . S
C117 N116 1.388 . S
Co118 O120 2.125 1_655 S
Co118 O126 2.072 1_655 S
Co118 O129 2.094 . S
Co118 O142 2.093 1_655 S
Co118 N159 2.156 . S
Co118 N167 2.232 . S
Co119 O120 2.160 . S
Co119 O125 2.058 . S
Co119 O135 2.057 . S
Co119 O150 2.037 . S
Co119 N154 2.145 . S
Co119 N175 2.257 . S
O120 Co118 2.125 1_455 S
O120 Co119 2.160 . S
C121 O122 1.278 . S
C121 O129 1.224 1_455 S
O122 C121 1.278 . S
C123 O124 1.245 . S
C123 O135 1.232 . S
O124 C123 1.245 . S
O125 Co119 2.058 . S
O125 C151 1.269 . S
O126 Co118 2.072 1_455 S
O126 C151 1.257 . S
H127 C152 0.930 . S
H128 C158 0.930 1_455 S
O129 Co118 2.094 . S
O129 C121 1.224 1_655 S
H130 C162 0.929 . S
H131 C164 0.930 . S
H132 C165 0.930 . S
H133 C163 0.929 . S
H134 C166 0.928 . S
O135 Co119 2.057 . S
O135 C123 1.232 . S
H136 C155 0.929 . S
H137 C156 0.929 . S
H138 C168 0.931 . S
H139 C160 0.929 . S
H140 C169 0.930 . S
H141 C161 0.931 . S
O142 Co118 2.093 1_455 S
O142 C170 1.214 . S
H143 C171 0.929 . S
H144 C172 0.929 . S
H145 C173 0.930 . S
H146 C174 0.929 . S
H147 C176 0.930 . S
H148 C153 0.930 . S
H149 C157 0.930 . S
O150 Co119 2.037 . S
O150 C170 1.234 . S
C151 O125 1.269 . S
C151 O126 1.257 . S
C152 H127 0.930 . S
C152 C155 1.388 . S
C152 C157 1.418 . S
C153 H148 0.930 . S
C153 C156 1.404 . S
C153 C157 1.353 . S
N154 Co119 2.145 . S
N154 C155 1.397 . S
N154 C156 1.334 . S
C155 H136 0.929 . S
C155 C152 1.388 . S
C155 N154 1.397 . S
C156 H137 0.929 . S
C156 C153 1.404 . S
C156 N154 1.334 . S
C157 H149 0.930 . S
C157 C152 1.418 . S
C157 C153 1.353 . S
C158 H128 0.930 1_655 S
C158 N159 1.330 . S
C158 C160 1.446 . S
N159 Co118 2.156 . S
N159 C158 1.330 . S
N159 C163 1.418 . S
C160 H139 0.929 . S
C160 C158 1.446 . S
C160 C161 1.332 . S
C161 H141 0.931 . S
C161 C160 1.332 . S
C161 C162 1.267 . S
C162 H130 0.929 . S
C162 C161 1.267 . S
C162 C163 1.251 . S
C163 H133 0.929 . S
C163 N159 1.418 . S
C163 C162 1.251 . S
C164 H131 0.930 . S
C164 C166 1.406 . S
C164 C169 1.261 . S
C165 H132 0.930 . S
C165 N167 1.325 . S
C165 C168 1.357 . S
C166 H134 0.928 . S
C166 C164 1.406 . S
C166 N167 1.261 . S
N167 Co118 2.232 . S
N167 C165 1.325 . S
N167 C166 1.261 . S
C168 H138 0.931 . S
C168 C165 1.357 . S
C168 C169 1.312 . S
C169 H140 0.930 . S
C169 C164 1.261 . S
C169 C168 1.312 . S
C170 O142 1.214 . S
C170 O150 1.234 . S
C171 H143 0.929 . S
C171 C174 1.391 . S
C171 C176 1.391 . S
C172 H144 0.929 . S
C172 C173 1.390 . S
C172 N175 1.391 . S
C173 H145 0.930 . S
C173 C172 1.390 . S
C173 C174 1.392 . S
C174 H146 0.929 . S
C174 C171 1.391 . S
C174 C173 1.392 . S
N175 Co119 2.257 . S
N175 C172 1.391 . S
N175 C176 1.388 . S
C176 H147 0.930 . S
C176 C171 1.391 . S
C176 N175 1.388 . S
Co177 O179 2.125 1_455 S
Co177 O185 2.072 1_455 S
Co177 O188 2.094 . S
Co177 O201 2.093 1_455 S
Co177 N218 2.156 . S
Co177 N226 2.232 . S
Co178 O179 2.160 . S
Co178 O184 2.058 . S
Co178 O194 2.057 . S
Co178 O209 2.037 . S
Co178 N213 2.145 . S
Co178 N234 2.257 . S
O179 Co177 2.125 1_655 S
O179 Co178 2.160 . S
C180 O181 1.278 . S
C180 O188 1.224 1_655 S
O181 C180 1.278 . S
C182 O183 1.245 . S
C182 O194 1.232 . S
O183 C182 1.245 . S
O184 Co178 2.058 . S
O184 C210 1.269 . S
O185 Co177 2.072 1_655 S
O185 C210 1.257 . S
H186 C211 0.930 . S
H187 C217 0.930 1_655 S
O188 Co177 2.094 . S
O188 C180 1.224 1_455 S
H189 C221 0.929 . S
H190 C223 0.930 . S
H191 C224 0.930 . S
H192 C222 0.929 . S
H193 C225 0.928 . S
O194 Co178 2.057 . S
O194 C182 1.232 . S
H195 C214 0.929 . S
H196 C215 0.929 . S
H197 C227 0.931 . S
H198 C219 0.929 . S
H199 C228 0.930 . S
H200 C220 0.931 . S
O201 Co177 2.093 1_655 S
O201 C229 1.214 . S
H202 C230 0.929 . S
H203 C231 0.929 . S
H204 C232 0.930 . S
H205 C233 0.929 . S
H206 C235 0.930 . S
H207 C212 0.930 . S
H208 C216 0.930 . S
O209 Co178 2.037 . S
O209 C229 1.234 . S
C210 O184 1.269 . S
C210 O185 1.257 . S
C211 H186 0.930 . S
C211 C214 1.388 . S
C211 C216 1.418 . S
C212 H207 0.930 . S
C212 C215 1.404 . S
C212 C216 1.353 . S
N213 Co178 2.145 . S
N213 C214 1.397 . S
N213 C215 1.334 . S
C214 H195 0.929 . S
C214 C211 1.388 . S
C214 N213 1.397 . S
C215 H196 0.929 . S
C215 C212 1.404 . S
C215 N213 1.334 . S
C216 H208 0.930 . S
C216 C211 1.418 . S
C216 C212 1.353 . S
C217 H187 0.930 1_455 S
C217 N218 1.330 . S
C217 C219 1.446 . S
N218 Co177 2.156 . S
N218 C217 1.330 . S
N218 C222 1.418 . S
C219 H198 0.929 . S
C219 C217 1.446 . S
C219 C220 1.332 . S
C220 H200 0.931 . S
C220 C219 1.332 . S
C220 C221 1.267 . S
C221 H189 0.929 . S
C221 C220 1.267 . S
C221 C222 1.251 . S
C222 H192 0.929 . S
C222 N218 1.418 . S
C222 C221 1.251 . S
C223 H190 0.930 . S
C223 C225 1.406 . S
C223 C228 1.261 . S
C224 H191 0.930 . S
C224 N226 1.325 . S
C224 C227 1.357 . S
C225 H193 0.928 . S
C225 C223 1.406 . S
C225 N226 1.261 . S
N226 Co177 2.232 . S
N226 C224 1.325 . S
N226 C225 1.261 . S
C227 H197 0.931 . S
C227 C224 1.357 . S
C227 C228 1.312 . S
C228 H199 0.930 . S
C228 C223 1.261 . S
C228 C227 1.312 . S
C229 O201 1.214 . S
C229 O209 1.234 . S
C230 H202 0.929 . S
C230 C233 1.391 . S
C230 C235 1.391 . S
C231 H203 0.929 . S
C231 C232 1.390 . S
C231 N234 1.391 . S
C232 H204 0.930 . S
C232 C231 1.390 . S
C232 C233 1.392 . S
C233 H205 0.929 . S
C233 C230 1.391 . S
C233 C232 1.392 . S
N234 Co178 2.257 . S
N234 C231 1.391 . S
N234 C235 1.388 . S
C235 H206 0.930 . S
C235 C230 1.391 . S
C235 N234 1.388 . S
Co236 O238 2.142 1_554 S
Co236 O244 2.092 . S
Co236 O247 2.075 1_554 S
Co236 O260 2.096 1_554 S
Co236 N277 2.151 . S
Co236 N285 2.216 . S
Co237 O238 2.160 1_554 S
Co237 O243 2.058 . S
Co237 O253 2.057 . S
Co237 O268 2.037 . S
Co237 N272 2.145 . S
Co237 N293 2.257 1_554 S
O238 Co236 2.142 1_556 S
O238 Co237 2.160 1_556 S
C239 O240 1.278 . S
C239 O247 1.224 . S
O240 C239 1.278 . S
C241 O242 1.245 . S
C241 O253 1.232 . S
O242 C241 1.245 . S
O243 Co237 2.058 . S
O243 C269 1.269 . S
O244 Co236 2.092 . S
O244 C269 1.257 . S
H245 C270 0.930 . S
H246 C276 0.930 . S
O247 Co236 2.075 1_556 S
O247 C239 1.224 . S
H248 C280 0.929 . S
H249 C282 0.930 . S
H250 C283 0.930 . S
H251 C281 0.929 . S
H252 C284 0.928 . S
O253 Co237 2.057 . S
O253 C241 1.232 . S
H254 C273 0.929 . S
H255 C274 0.929 . S
H256 C286 0.931 . S
H257 C278 0.929 . S
H258 C287 0.930 . S
H259 C279 0.931 . S
O260 Co236 2.096 1_556 S
O260 C288 1.214 1_556 S
H261 C289 0.929 . S
H262 C290 0.929 1_554 S
H263 C291 0.930 . S
H264 C292 0.929 . S
H265 C294 0.930 . S
H266 C271 0.930 . S
H267 C275 0.930 . S
O268 Co237 2.037 . S
O268 C288 1.234 . S
C269 O243 1.269 . S
C269 O244 1.257 . S
C270 H245 0.930 . S
C270 C273 1.388 . S
C270 C275 1.418 . S
C271 H266 0.930 . S
C271 C274 1.404 . S
C271 C275 1.353 . S
N272 Co237 2.145 . S
N272 C273 1.397 . S
N272 C274 1.334 . S
C273 H254 0.929 . S
C273 C270 1.388 . S
C273 N272 1.397 . S
C274 H255 0.929 . S
C274 C271 1.404 . S
C274 N272 1.334 . S
C275 H267 0.930 . S
C275 C270 1.418 . S
C275 C271 1.353 . S
C276 H246 0.930 . S
C276 N277 1.330 1_556 S
C276 C278 1.446 . S
N277 Co236 2.151 . S
N277 C276 1.330 1_554 S
N277 C281 1.418 . S
C278 H257 0.929 . S
C278 C276 1.446 . S
C278 C279 1.332 1_556 S
C279 H259 0.931 . S
C279 C278 1.332 1_554 S
C279 C280 1.267 . S
C280 H248 0.929 . S
C280 C279 1.267 . S
C280 C281 1.251 . S
C281 H251 0.929 . S
C281 N277 1.418 . S
C281 C280 1.251 . S
C282 H249 0.930 . S
C282 C284 1.406 . S
C282 C287 1.261 1_556 S
C283 H250 0.930 . S
C283 N285 1.325 . S
C283 C286 1.357 . S
C284 H252 0.928 . S
C284 C282 1.406 . S
C284 N285 1.261 1_556 S
N285 Co236 2.216 . S
N285 C283 1.325 . S
N285 C284 1.261 1_554 S
C286 H256 0.931 . S
C286 C283 1.357 . S
C286 C287 1.312 . S
C287 H258 0.930 . S
C287 C282 1.261 1_554 S
C287 C286 1.312 . S
C288 O260 1.214 1_554 S
C288 O268 1.234 . S
C289 H261 0.929 . S
C289 C292 1.391 . S
C289 C294 1.391 . S
C290 H262 0.929 1_556 S
C290 C291 1.390 . S
C290 N293 1.391 . S
C291 H263 0.930 . S
C291 C290 1.390 . S
C291 C292 1.392 . S
C292 H264 0.929 . S
C292 C289 1.391 . S
C292 C291 1.392 . S
N293 Co237 2.257 1_556 S
N293 C290 1.391 . S
N293 C294 1.388 . S
C294 H265 0.930 . S
C294 C289 1.391 . S
C294 N293 1.388 . S
Co295 O297 2.142 1_554 S
Co295 O303 2.092 . S
Co295 O306 2.075 1_554 S
Co295 O319 2.096 1_554 S
Co295 N336 2.151 . S
Co295 N344 2.216 . S
Co296 O297 2.160 1_554 S
Co296 O302 2.058 . S
Co296 O312 2.057 . S
Co296 O327 2.037 . S
Co296 N331 2.145 . S
Co296 N352 2.257 1_554 S
O297 Co295 2.142 1_556 S
O297 Co296 2.160 1_556 S
C298 O299 1.278 . S
C298 O306 1.224 . S
O299 C298 1.278 . S
C300 O301 1.245 . S
C300 O312 1.232 . S
O301 C300 1.245 . S
O302 Co296 2.058 . S
O302 C328 1.269 . S
O303 Co295 2.092 . S
O303 C328 1.257 . S
H304 C329 0.930 . S
H305 C335 0.930 . S
O306 Co295 2.075 1_556 S
O306 C298 1.224 . S
H307 C339 0.929 . S
H308 C341 0.930 . S
H309 C342 0.930 . S
H310 C340 0.929 . S
H311 C343 0.928 . S
O312 Co296 2.057 . S
O312 C300 1.232 . S
H313 C332 0.929 . S
H314 C333 0.929 . S
H315 C345 0.931 . S
H316 C337 0.929 . S
H317 C346 0.930 . S
H318 C338 0.931 . S
O319 Co295 2.096 1_556 S
O319 C347 1.214 1_556 S
H320 C348 0.929 . S
H321 C349 0.929 1_554 S
H322 C350 0.930 . S
H323 C351 0.929 . S
H324 C353 0.930 . S
H325 C330 0.930 . S
H326 C334 0.930 . S
O327 Co296 2.037 . S
O327 C347 1.234 . S
C328 O302 1.269 . S
C328 O303 1.257 . S
C329 H304 0.930 . S
C329 C332 1.388 . S
C329 C334 1.418 . S
C330 H325 0.930 . S
C330 C333 1.404 . S
C330 C334 1.353 . S
N331 Co296 2.145 . S
N331 C332 1.397 . S
N331 C333 1.334 . S
C332 H313 0.929 . S
C332 C329 1.388 . S
C332 N331 1.397 . S
C333 H314 0.929 . S
C333 C330 1.404 . S
C333 N331 1.334 . S
C334 H326 0.930 . S
C334 C329 1.418 . S
C334 C330 1.353 . S
C335 H305 0.930 . S
C335 N336 1.330 1_556 S
C335 C337 1.446 . S
N336 Co295 2.151 . S
N336 C335 1.330 1_554 S
N336 C340 1.418 . S
C337 H316 0.929 . S
C337 C335 1.446 . S
C337 C338 1.332 1_556 S
C338 H318 0.931 . S
C338 C337 1.332 1_554 S
C338 C339 1.267 . S
C339 H307 0.929 . S
C339 C338 1.267 . S
C339 C340 1.251 . S
C340 H310 0.929 . S
C340 N336 1.418 . S
C340 C339 1.251 . S
C341 H308 0.930 . S
C341 C343 1.406 . S
C341 C346 1.261 1_556 S
C342 H309 0.930 . S
C342 N344 1.325 . S
C342 C345 1.357 . S
C343 H311 0.928 . S
C343 C341 1.406 . S
C343 N344 1.261 1_556 S
N344 Co295 2.216 . S
N344 C342 1.325 . S
N344 C343 1.261 1_554 S
C345 H315 0.931 . S
C345 C342 1.357 . S
C345 C346 1.312 . S
C346 H317 0.930 . S
C346 C341 1.261 1_554 S
C346 C345 1.312 . S
C347 O319 1.214 1_554 S
C347 O327 1.234 . S
C348 H320 0.929 . S
C348 C351 1.391 . S
C348 C353 1.391 . S
C349 H321 0.929 1_556 S
C349 C350 1.390 . S
C349 N352 1.391 . S
C350 H322 0.930 . S
C350 C349 1.390 . S
C350 C351 1.392 . S
C351 H323 0.929 . S
C351 C348 1.391 . S
C351 C350 1.392 . S
N352 Co296 2.257 1_556 S
N352 C349 1.391 . S
N352 C353 1.388 . S
C353 H324 0.930 . S
C353 C348 1.391 . S
C353 N352 1.388 . S
Co354 O356 2.143 . S
Co354 O362 2.074 . S
Co354 O365 2.093 . S
Co354 O378 2.097 . S
Co354 N395 2.151 . S
Co354 N403 2.214 . S
Co355 O356 2.160 . S
Co355 O361 2.058 . S
Co355 O371 2.057 . S
Co355 O386 2.037 . S
Co355 N390 2.145 . S
Co355 N411 2.257 . S
O356 Co354 2.143 . S
O356 Co355 2.160 . S
C357 O358 1.278 . S
C357 O365 1.224 . S
O358 C357 1.278 . S
C359 O360 1.245 . S
C359 O371 1.232 . S
O360 C359 1.245 . S
O361 Co355 2.058 . S
O361 C387 1.269 . S
O362 Co354 2.074 . S
O362 C387 1.257 . S
H363 C388 0.930 . S
H364 C394 0.930 . S
O365 Co354 2.093 . S
O365 C357 1.224 . S
H366 C398 0.929 . S
H367 C400 0.930 . S
H368 C401 0.930 . S
H369 C399 0.929 . S
H370 C402 0.928 . S
O371 Co355 2.057 . S
O371 C359 1.232 . S
H372 C391 0.929 . S
H373 C392 0.929 . S
H374 C404 0.931 . S
H375 C396 0.929 . S
H376 C405 0.930 . S
H377 C397 0.931 . S
O378 Co354 2.097 . S
O378 C406 1.214 . S
H379 C407 0.929 . S
H380 C408 0.929 . S
H381 C409 0.930 . S
H382 C410 0.929 . S
H383 C412 0.930 . S
H384 C389 0.930 . S
H385 C393 0.930 . S
O386 Co355 2.037 . S
O386 C406 1.234 . S
C387 O361 1.269 . S
C387 O362 1.257 . S
C388 H363 0.930 . S
C388 C391 1.388 . S
C388 C393 1.418 . S
C389 H384 0.930 . S
C389 C392 1.404 . S
C389 C393 1.353 . S
N390 Co355 2.145 . S
N390 C391 1.397 . S
N390 C392 1.334 . S
C391 H372 0.929 . S
C391 C388 1.388 . S
C391 N390 1.397 . S
C392 H373 0.929 . S
C392 C389 1.404 . S
C392 N390 1.334 . S
C393 H385 0.930 . S
C393 C388 1.418 . S
C393 C389 1.353 . S
C394 H364 0.930 . S
C394 N395 1.330 . S
C394 C396 1.446 . S
N395 Co354 2.151 . S
N395 C394 1.330 . S
N395 C399 1.418 . S
C396 H375 0.929 . S
C396 C394 1.446 . S
C396 C397 1.332 . S
C397 H377 0.931 . S
C397 C396 1.332 . S
C397 C398 1.267 . S
C398 H366 0.929 . S
C398 C397 1.267 . S
C398 C399 1.251 . S
C399 H369 0.929 . S
C399 N395 1.418 . S
C399 C398 1.251 . S
C400 H367 0.930 . S
C400 C402 1.406 . S
C400 C405 1.261 . S
C401 H368 0.930 . S
C401 N403 1.325 . S
C401 C404 1.357 . S
C402 H370 0.928 . S
C402 C400 1.406 . S
C402 N403 1.261 . S
N403 Co354 2.214 . S
N403 C401 1.325 . S
N403 C402 1.261 . S
C404 H374 0.931 . S
C404 C401 1.357 . S
C404 C405 1.312 . S
C405 H376 0.930 . S
C405 C400 1.261 . S
C405 C404 1.312 . S
C406 O378 1.214 . S
C406 O386 1.234 . S
C407 H379 0.929 . S
C407 C410 1.391 . S
C407 C412 1.391 . S
C408 H380 0.929 . S
C408 C409 1.390 . S
C408 N411 1.391 . S
C409 H381 0.930 . S
C409 C408 1.390 . S
C409 C410 1.392 . S
C410 H382 0.929 . S
C410 C407 1.391 . S
C410 C409 1.392 . S
N411 Co355 2.257 . S
N411 C408 1.391 . S
N411 C412 1.388 . S
C412 H383 0.930 . S
C412 C407 1.391 . S
C412 N411 1.388 . S
Co413 O415 2.143 . S
Co413 O421 2.074 . S
Co413 O424 2.093 . S
Co413 O437 2.097 . S
Co413 N454 2.151 . S
Co413 N462 2.214 . S
Co414 O415 2.160 . S
Co414 O420 2.058 . S
Co414 O430 2.057 . S
Co414 O445 2.037 . S
Co414 N449 2.145 . S
Co414 N470 2.257 . S
O415 Co413 2.143 . S
O415 Co414 2.160 . S
C416 O417 1.278 . S
C416 O424 1.224 . S
O417 C416 1.278 . S
C418 O419 1.245 . S
C418 O430 1.232 . S
O419 C418 1.245 . S
O420 Co414 2.058 . S
O420 C446 1.269 . S
O421 Co413 2.074 . S
O421 C446 1.257 . S
H422 C447 0.930 . S
H423 C453 0.930 . S
O424 Co413 2.093 . S
O424 C416 1.224 . S
H425 C457 0.929 . S
H426 C459 0.930 . S
H427 C460 0.930 . S
H428 C458 0.929 . S
H429 C461 0.928 . S
O430 Co414 2.057 . S
O430 C418 1.232 . S
H431 C450 0.929 . S
H432 C451 0.929 . S
H433 C463 0.931 . S
H434 C455 0.929 . S
H435 C464 0.930 . S
H436 C456 0.931 . S
O437 Co413 2.097 . S
O437 C465 1.214 . S
H438 C466 0.929 . S
H439 C467 0.929 . S
H440 C468 0.930 . S
H441 C469 0.929 . S
H442 C471 0.930 . S
H443 C448 0.930 . S
H444 C452 0.930 . S
O445 Co414 2.037 . S
O445 C465 1.234 . S
C446 O420 1.269 . S
C446 O421 1.257 . S
C447 H422 0.930 . S
C447 C450 1.388 . S
C447 C452 1.418 . S
C448 H443 0.930 . S
C448 C451 1.404 . S
C448 C452 1.353 . S
N449 Co414 2.145 . S
N449 C450 1.397 . S
N449 C451 1.334 . S
C450 H431 0.929 . S
C450 C447 1.388 . S
C450 N449 1.397 . S
C451 H432 0.929 . S
C451 C448 1.404 . S
C451 N449 1.334 . S
C452 H444 0.930 . S
C452 C447 1.418 . S
C452 C448 1.353 . S
C453 H423 0.930 . S
C453 N454 1.330 . S
C453 C455 1.446 . S
N454 Co413 2.151 . S
N454 C453 1.330 . S
N454 C458 1.418 . S
C455 H434 0.929 . S
C455 C453 1.446 . S
C455 C456 1.332 . S
C456 H436 0.931 . S
C456 C455 1.332 . S
C456 C457 1.267 . S
C457 H425 0.929 . S
C457 C456 1.267 . S
C457 C458 1.251 . S
C458 H428 0.929 . S
C458 N454 1.418 . S
C458 C457 1.251 . S
C459 H426 0.930 . S
C459 C461 1.406 . S
C459 C464 1.261 . S
C460 H427 0.930 . S
C460 N462 1.325 . S
C460 C463 1.357 . S
C461 H429 0.928 . S
C461 C459 1.406 . S
C461 N462 1.261 . S
N462 Co413 2.214 . S
N462 C460 1.325 . S
N462 C461 1.261 . S
C463 H433 0.931 . S
C463 C460 1.357 . S
C463 C464 1.312 . S
C464 H435 0.930 . S
C464 C459 1.261 . S
C464 C463 1.312 . S
C465 O437 1.214 . S
C465 O445 1.234 . S
C466 H438 0.929 . S
C466 C469 1.391 . S
C466 C471 1.391 . S
C467 H439 0.929 . S
C467 C468 1.390 . S
C467 N470 1.391 . S
C468 H440 0.930 . S
C468 C467 1.390 . S
C468 C469 1.392 . S
C469 H441 0.929 . S
C469 C466 1.391 . S
C469 C468 1.392 . S
N470 Co414 2.257 . S
N470 C467 1.391 . S
N470 C471 1.388 . S
C471 H442 0.930 . S
C471 C466 1.391 . S
C471 N470 1.388 . S
H472 C484 0.930 . S
H473 C486 0.930 . S
H474 C487 0.930 . S
H475 C491 0.959 . S
H476 C491 0.959 . S
H477 C491 0.934 1_565 S
H478 C492 0.960 1_565 S
H479 C492 0.961 . S
H480 C492 0.959 1_455 S
H481 C495 0.929 . S
H482 C496 0.931 . S
H483 C498 0.914 1_655 S
C484 H472 0.930 . S
C484 C485 1.399 . S
C484 C489 1.399 . S
C485 C484 1.399 . S
C485 C486 1.376 1_654 S
C486 H473 0.930 . S
C486 C485 1.376 1_456 S
C486 C487 1.388 . S
C487 H474 0.930 . S
C487 C486 1.388 . S
C487 C488 1.390 1_556 S
C488 C487 1.390 1_554 S
C488 C489 1.394 1_455 S
C488 C494 1.465 1_565 S
C489 C484 1.399 . S
C489 C488 1.394 1_655 S
C489 C490 1.516 1_565 S
C490 C489 1.516 1_545 S
C490 C491 1.502 . S
C490 C492 1.561 . S
C490 C493 1.526 . S
C491 H475 0.959 . S
C491 H476 0.959 . S
C491 H477 0.934 1_545 S
C491 C490 1.502 . S
C492 H478 0.960 1_545 S
C492 H479 0.961 . S
C492 H480 0.959 1_655 S
C492 C490 1.561 . S
C493 C490 1.526 . S
C493 C494 1.396 1_655 S
C493 C498 1.388 1_655 S
C494 C488 1.465 1_545 S
C494 C493 1.396 1_455 S
C494 C495 1.399 1_554 S
C495 H481 0.929 . S
C495 C494 1.399 1_556 S
C495 C496 1.385 . S
C496 H482 0.931 . S
C496 C495 1.385 . S
C496 C497 1.389 1_556 S
C497 C496 1.389 1_554 S
C497 C498 1.405 . S
C498 H483 0.914 1_455 S
C498 C493 1.388 1_455 S
C498 C497 1.405 . S
H499 C511 0.930 . S
H500 C513 0.930 . S
H501 C514 0.930 . S
H502 C518 0.959 . S
H503 C518 0.959 1_545 S
H504 C518 0.961 . S
H505 C519 0.960 1_565 S
H506 C519 0.961 . S
H507 C519 0.959 . S
H508 C522 0.926 1_455 S
H509 C523 0.931 . S
H510 C525 0.930 . S
C511 H499 0.930 . S
C511 C512 1.399 . S
C511 C516 1.399 . S
C512 C511 1.399 . S
C512 C513 1.376 . S
C513 H500 0.930 . S
C513 C512 1.376 . S
C513 C514 1.388 . S
C514 H501 0.930 . S
C514 C513 1.388 . S
C514 C515 1.390 . S
C515 C514 1.390 . S
C515 C516 1.394 . S
C515 C521 1.465 1_465 S
C516 C511 1.399 . S
C516 C515 1.394 . S
C516 C517 1.508 1_565 S
C517 C516 1.508 1_545 S
C517 C518 1.500 1_445 S
C517 C519 1.564 . S
C517 C520 1.534 1_455 S
C518 H502 0.959 . S
C518 H503 0.959 1_565 S
C518 H504 0.961 . S
C518 C517 1.500 1_665 S
C519 H505 0.960 1_545 S
C519 H506 0.961 . S
C519 H507 0.959 . S
C519 C517 1.564 . S
C520 C517 1.534 1_655 S
C520 C521 1.396 . S
C520 C525 1.390 . S
C521 C515 1.465 1_645 S
C521 C520 1.396 . S
C521 C522 1.399 . S
C522 H508 0.926 1_655 S
C522 C521 1.399 . S
C522 C523 1.385 . S
C523 H509 0.931 . S
C523 C522 1.385 . S
C523 C524 1.389 . S
C524 C523 1.389 . S
C524 C525 1.387 . S
C525 H510 0.930 . S
C525 C520 1.390 . S
C525 C524 1.387 . S
H526 C538 0.930 . S
H527 C540 0.930 . S
H528 C541 0.930 . S
H529 C545 0.959 . S
H530 C545 0.959 . S
H531 C545 0.961 . S
H532 C546 0.960 . S
H533 C546 0.961 . S
H534 C546 0.959 . S
H535 C549 0.929 . S
H536 C550 0.931 . S
H537 C552 0.930 . S
C538 H526 0.930 . S
C538 C539 1.399 . S
C538 C543 1.399 . S
C539 C538 1.399 . S
C539 C540 1.376 1_554 S
C540 H527 0.930 . S
C540 C539 1.376 1_556 S
C540 C541 1.388 . S
C541 H528 0.930 . S
C541 C540 1.388 . S
C541 C542 1.390 1_556 S
C542 C541 1.390 1_554 S
C542 C543 1.394 . S
C542 C548 1.465 . S
C543 C538 1.399 . S
C543 C542 1.394 . S
C543 C544 1.516 . S
C544 C543 1.516 . S
C544 C545 1.502 . S
C544 C546 1.561 . S
C544 C547 1.526 . S
C545 H529 0.959 . S
C545 H530 0.959 . S
C545 H531 0.961 . S
C545 C544 1.502 . S
C546 H532 0.960 . S
C546 H533 0.961 . S
C546 H534 0.959 . S
C546 C544 1.561 . S
C547 C544 1.526 . S
C547 C548 1.396 . S
C547 C552 1.390 . S
C548 C542 1.465 . S
C548 C547 1.396 . S
C548 C549 1.399 1_554 S
C549 H535 0.929 . S
C549 C548 1.399 1_556 S
C549 C550 1.385 . S
C550 H536 0.931 . S
C550 C549 1.385 . S
C550 C551 1.389 1_556 S
C551 C550 1.389 1_554 S
C551 C552 1.387 . S
C552 H537 0.930 . S
C552 C547 1.390 . S
C552 C551 1.387 . S
H553 C565 0.930 . S
H554 C567 0.930 . S
H555 C568 0.930 . S
H556 C572 0.959 . S
H557 C572 0.959 . S
H558 C572 0.961 . S
H559 C573 0.960 . S
H560 C573 0.961 . S
H561 C573 0.959 . S
H562 C576 0.929 . S
H563 C577 0.931 . S
H564 C579 0.930 . S
C565 H553 0.930 . S
C565 C566 1.399 . S
C565 C570 1.399 . S
C566 C565 1.399 . S
C566 C567 1.376 . S
C567 H554 0.930 . S
C567 C566 1.376 . S
C567 C568 1.388 . S
C568 H555 0.930 . S
C568 C567 1.388 . S
C568 C569 1.390 . S
C569 C568 1.390 . S
C569 C570 1.394 . S
C569 C575 1.465 . S
C570 C565 1.399 . S
C570 C569 1.394 . S
C570 C571 1.516 . S
C571 C570 1.516 . S
C571 C572 1.502 . S
C571 C573 1.561 . S
C571 C574 1.526 . S
C572 H556 0.959 . S
C572 H557 0.959 . S
C572 H558 0.961 . S
C572 C571 1.502 . S
C573 H559 0.960 . S
C573 H560 0.961 . S
C573 H561 0.959 . S
C573 C571 1.561 . S
C574 C571 1.526 . S
C574 C575 1.396 . S
C574 C579 1.390 . S
C575 C569 1.465 . S
C575 C574 1.396 . S
C575 C576 1.399 . S
C576 H562 0.929 . S
C576 C575 1.399 . S
C576 C577 1.385 . S
C577 H563 0.931 . S
C577 C576 1.385 . S
C577 C578 1.389 . S
C578 C577 1.389 . S
C578 C579 1.387 . S
C579 H564 0.930 . S
C579 C574 1.390 . S
C579 C578 1.387 . S
H580 C592 0.930 . S
H581 C594 0.931 . S
H582 C595 0.930 . S
H583 C599 0.959 . S
H584 C599 0.959 . S
H585 C599 0.961 . S
H586 C600 0.960 . S
H587 C600 0.961 . S
H588 C600 0.959 . S
H589 C603 0.929 . S
H590 C604 0.931 . S
H591 C606 0.937 . S
C592 H580 0.930 . S
C592 C593 1.399 . S
C592 C597 1.399 . S
C593 C592 1.399 . S
C593 C594 1.376 1_455 S
C594 H581 0.931 . S
C594 C593 1.376 1_655 S
C594 C595 1.389 . S
C595 H582 0.930 . S
C595 C594 1.389 . S
C595 C596 1.390 . S
C596 C595 1.390 . S
C596 C597 1.394 1_655 S
C596 C602 1.465 . S
C597 C592 1.399 . S
C597 C596 1.394 1_455 S
C597 C598 1.516 . S
C598 C597 1.516 . S
C598 C599 1.502 . S
C598 C600 1.561 1_455 S
C598 C601 1.526 1_455 S
C599 H583 0.959 . S
C599 H584 0.959 . S
C599 H585 0.961 . S
C599 C598 1.502 . S
C600 H586 0.960 . S
C600 H587 0.961 . S
C600 H588 0.959 . S
C600 C598 1.561 1_655 S
C601 C598 1.526 1_655 S
C601 C602 1.396 . S
C601 C606 1.390 . S
C602 C596 1.465 . S
C602 C601 1.396 . S
C602 C603 1.399 . S
C603 H589 0.929 . S
C603 C602 1.399 . S
C603 C604 1.385 . S
C604 H590 0.931 . S
C604 C603 1.385 . S
C604 C605 1.389 . S
C605 C604 1.389 . S
C605 C606 1.387 . S
C606 H591 0.937 . S
C606 C601 1.390 . S
C606 C605 1.387 . S
H607 C619 0.930 . S
H608 C621 0.930 . S
H609 C622 0.930 . S
H610 C626 0.959 . S
H611 C626 0.959 . S
H612 C626 0.961 . S
H613 C627 0.960 . S
H614 C627 0.961 . S
H615 C627 0.959 . S
H616 C630 0.929 . S
H617 C631 0.931 . S
H618 C633 0.930 . S
C619 H607 0.930 . S
C619 C620 1.399 . S
C619 C624 1.399 . S
C620 C619 1.399 . S
C620 C621 1.376 . S
C621 H608 0.930 . S
C621 C620 1.376 . S
C621 C622 1.388 . S
C622 H609 0.930 . S
C622 C621 1.388 . S
C622 C623 1.390 . S
C623 C622 1.390 . S
C623 C624 1.394 . S
C623 C629 1.465 . S
C624 C619 1.399 . S
C624 C623 1.394 . S
C624 C625 1.516 . S
C625 C624 1.516 . S
C625 C626 1.502 1_455 S
C625 C627 1.561 . S
C625 C628 1.526 1_455 S
C626 H610 0.959 . S
C626 H611 0.959 . S
C626 H612 0.961 . S
C626 C625 1.502 1_655 S
C627 H613 0.960 . S
C627 H614 0.961 . S
C627 H615 0.959 . S
C627 C625 1.561 . S
C628 C625 1.526 1_655 S
C628 C629 1.396 1_655 S
C628 C633 1.390 . S
C629 C623 1.465 . S
C629 C628 1.396 1_455 S
C629 C630 1.399 1_455 S
C630 H616 0.929 . S
C630 C629 1.399 1_655 S
C630 C631 1.385 . S
C631 H617 0.931 . S
C631 C630 1.385 . S
C631 C632 1.389 . S
C632 C631 1.389 . S
C632 C633 1.387 . S
C633 H618 0.930 . S
C633 C628 1.390 . S
C633 C632 1.387 . S
H634 C646 0.930 1_655 S
H635 C648 0.930 . S
H636 C649 0.930 . S
H637 C653 0.959 . S
H638 C653 0.959 . S
H639 C653 0.961 . S
H640 C654 0.960 . S
H641 C654 0.961 . S
H642 C654 0.959 . S
H643 C657 0.929 . S
H644 C658 0.931 . S
H645 C660 0.930 . S
C646 H634 0.930 1_455 S
C646 C647 1.399 . S
C646 C651 1.399 . S
C647 C646 1.399 . S
C647 C648 1.376 . S
C648 H635 0.930 . S
C648 C647 1.376 . S
C648 C649 1.388 . S
C649 H636 0.930 . S
C649 C648 1.388 . S
C649 C650 1.390 . S
C650 C649 1.390 . S
C650 C651 1.394 . S
C650 C656 1.465 . S
C651 C646 1.399 . S
C651 C650 1.394 . S
C651 C652 1.516 1_455 S
C652 C651 1.516 1_655 S
C652 C653 1.502 . S
C652 C654 1.561 1_655 S
C652 C655 1.526 . S
C653 H637 0.959 . S
C653 H638 0.959 . S
C653 H639 0.961 . S
C653 C652 1.502 . S
C654 H640 0.960 . S
C654 H641 0.961 . S
C654 H642 0.959 . S
C654 C652 1.561 1_455 S
C655 C652 1.526 . S
C655 C656 1.396 1_655 S
C655 C660 1.390 . S
C656 C650 1.465 . S
C656 C655 1.396 1_455 S
C656 C657 1.399 . S
C657 H643 0.929 . S
C657 C656 1.399 . S
C657 C658 1.385 . S
C658 H644 0.931 . S
C658 C657 1.385 . S
C658 C659 1.389 1_455 S
C659 C658 1.389 1_655 S
C659 C660 1.387 . S
C660 H645 0.930 . S
C660 C655 1.390 . S
C660 C659 1.387 . S
H661 C673 0.930 . S
H662 C675 0.930 . S
H663 C676 0.930 . S
H664 C680 0.959 . S
H665 C680 0.959 . S
H666 C680 0.961 . S
H667 C681 0.960 . S
H668 C681 0.961 . S
H669 C681 0.959 . S
H670 C684 0.929 . S
H671 C685 0.931 . S
H672 C687 0.930 . S
C673 H661 0.930 . S
C673 C674 1.399 . S
C673 C678 1.399 . S
C674 C673 1.399 . S
C674 C675 1.376 . S
C675 H662 0.930 . S
C675 C674 1.376 . S
C675 C676 1.388 . S
C676 H663 0.930 . S
C676 C675 1.388 . S
C676 C677 1.390 . S
C677 C676 1.390 . S
C677 C678 1.394 . S
C677 C683 1.465 . S
C678 C673 1.399 . S
C678 C677 1.394 . S
C678 C679 1.516 1_455 S
C679 C678 1.516 1_655 S
C679 C680 1.502 . S
C679 C681 1.561 1_655 S
C679 C682 1.526 . S
C680 H664 0.959 . S
C680 H665 0.959 . S
C680 H666 0.961 . S
C680 C679 1.502 . S
C681 H667 0.960 . S
C681 H668 0.961 . S
C681 H669 0.959 . S
C681 C679 1.561 1_455 S
C682 C679 1.526 . S
C682 C683 1.396 1_655 S
C682 C687 1.390 . S
C683 C677 1.465 . S
C683 C682 1.396 1_455 S
C683 C684 1.399 . S
C684 H670 0.929 . S
C684 C683 1.399 . S
C684 C685 1.385 1_455 S
C685 H671 0.931 . S
C685 C684 1.385 1_655 S
C685 C686 1.389 . S
C686 C685 1.389 . S
C686 C687 1.387 . S
C687 H672 0.930 . S
C687 C682 1.390 . S
C687 C686 1.387 . S
H688 C700 0.930 . S
H689 C702 0.930 . S
H690 C703 0.930 . S
H691 C707 0.959 . S
H692 C707 0.959 . S
H693 C707 0.961 . S
H694 C708 0.960 . S
H695 C708 0.961 . S
H696 C708 0.959 . S
H697 C711 0.929 . S
H698 C712 0.931 . S
H699 C714 0.930 . S
C700 H688 0.930 . S
C700 C701 1.399 . S
C700 C705 1.399 . S
C701 C700 1.399 . S
C701 C702 1.376 . S
C702 H689 0.930 . S
C702 C701 1.376 . S
C702 C703 1.388 . S
C703 H690 0.930 . S
C703 C702 1.388 . S
C703 C704 1.390 . S
C704 C703 1.390 . S
C704 C705 1.394 . S
C704 C710 1.465 . S
C705 C700 1.399 . S
C705 C704 1.394 . S
C705 C706 1.516 . S
C706 C705 1.516 . S
C706 C707 1.502 . S
C706 C708 1.561 . S
C706 C709 1.526 . S
C707 H691 0.959 . S
C707 H692 0.959 . S
C707 H693 0.961 . S
C707 C706 1.502 . S
C708 H694 0.960 . S
C708 H695 0.961 . S
C708 H696 0.959 . S
C708 C706 1.561 . S
C709 C706 1.526 . S
C709 C710 1.396 . S
C709 C714 1.390 . S
C710 C704 1.465 . S
C710 C709 1.396 . S
C710 C711 1.399 . S
C711 H697 0.929 . S
C711 C710 1.399 . S
C711 C712 1.385 . S
C712 H698 0.931 . S
C712 C711 1.385 . S
C712 C713 1.389 . S
C713 C712 1.389 . S
C713 C714 1.387 . S
C714 H699 0.930 . S
C714 C709 1.390 . S
C714 C713 1.387 . S
H715 C727 0.930 . S
H716 C729 0.930 . S
H717 C730 0.930 . S
H718 C734 0.959 . S
H719 C734 0.959 . S
H720 C734 0.961 . S
H721 C735 0.960 . S
H722 C735 0.961 . S
H723 C735 0.959 . S
H724 C738 0.929 . S
H725 C739 0.931 . S
H726 C741 0.930 . S
C727 H715 0.930 . S
C727 C728 1.399 . S
C727 C732 1.399 . S
C728 C727 1.399 . S
C728 C729 1.376 . S
C729 H716 0.930 . S
C729 C728 1.376 . S
C729 C730 1.388 . S
C730 H717 0.930 . S
C730 C729 1.388 . S
C730 C731 1.390 . S
C731 C730 1.390 . S
C731 C732 1.394 . S
C731 C737 1.465 . S
C732 C727 1.399 . S
C732 C731 1.394 . S
C732 C733 1.516 . S
C733 C732 1.516 . S
C733 C734 1.502 . S
C733 C735 1.561 . S
C733 C736 1.526 . S
C734 H718 0.959 . S
C734 H719 0.959 . S
C734 H720 0.961 . S
C734 C733 1.502 . S
C735 H721 0.960 . S
C735 H722 0.961 . S
C735 H723 0.959 . S
C735 C733 1.561 . S
C736 C733 1.526 . S
C736 C737 1.396 . S
C736 C741 1.390 . S
C737 C731 1.465 . S
C737 C736 1.396 . S
C737 C738 1.399 . S
C738 H724 0.929 . S
C738 C737 1.399 . S
C738 C739 1.385 . S
C739 H725 0.931 . S
C739 C738 1.385 . S
C739 C740 1.389 . S
C740 C739 1.389 . S
C740 C741 1.387 . S
C741 H726 0.930 . S
C741 C736 1.390 . S
C741 C740 1.387 . S
H742 C754 0.930 . S
H743 C756 0.930 . S
H744 C757 0.930 . S
H745 C761 0.959 . S
H746 C761 0.959 . S
H747 C761 0.961 . S
H748 C762 0.960 . S
H749 C762 0.961 . S
H750 C762 0.959 . S
H751 C765 0.929 . S
H752 C766 0.931 . S
H753 C768 0.930 . S
C754 H742 0.930 . S
C754 C755 1.399 . S
C754 C759 1.399 . S
C755 C754 1.399 . S
C755 C756 1.376 . S
C756 H743 0.930 . S
C756 C755 1.376 . S
C756 C757 1.388 . S
C757 H744 0.930 . S
C757 C756 1.388 . S
C757 C758 1.390 . S
C758 C757 1.390 . S
C758 C759 1.394 . S
C758 C764 1.465 . S
C759 C754 1.399 . S
C759 C758 1.394 . S
C759 C760 1.516 . S
C760 C759 1.516 . S
C760 C761 1.502 . S
C760 C762 1.561 . S
C760 C763 1.526 . S
C761 H745 0.959 . S
C761 H746 0.959 . S
C761 H747 0.961 . S
C761 C760 1.502 . S
C762 H748 0.960 . S
C762 H749 0.961 . S
C762 H750 0.959 . S
C762 C760 1.561 . S
C763 C760 1.526 . S
C763 C764 1.396 . S
C763 C768 1.390 . S
C764 C758 1.465 . S
C764 C763 1.396 . S
C764 C765 1.399 . S
C765 H751 0.929 . S
C765 C764 1.399 . S
C765 C766 1.385 . S
C766 H752 0.931 . S
C766 C765 1.385 . S
C766 C767 1.389 . S
C767 C766 1.389 . S
C767 C768 1.387 . S
C768 H753 0.930 . S
C768 C763 1.390 . S
C768 C767 1.387 . S
H769 C781 0.930 . S
H770 C783 0.930 . S
H771 C784 0.930 . S
H772 C788 0.959 . S
H773 C788 0.959 . S
H774 C788 0.961 . S
H775 C789 0.960 . S
H776 C789 0.961 . S
H777 C789 0.959 . S
H778 C792 0.929 . S
H779 C793 0.931 . S
H780 C795 0.930 . S
C781 H769 0.930 . S
C781 C782 1.399 . S
C781 C786 1.399 . S
C782 C781 1.399 . S
C782 C783 1.376 . S
C783 H770 0.930 . S
C783 C782 1.376 . S
C783 C784 1.388 . S
C784 H771 0.930 . S
C784 C783 1.388 . S
C784 C785 1.390 . S
C785 C784 1.390 . S
C785 C786 1.394 . S
C785 C791 1.465 . S
C786 C781 1.399 . S
C786 C785 1.394 . S
C786 C787 1.516 . S
C787 C786 1.516 . S
C787 C788 1.502 . S
C787 C789 1.561 . S
C787 C790 1.526 . S
C788 H772 0.959 . S
C788 H773 0.959 . S
C788 H774 0.961 . S
C788 C787 1.502 . S
C789 H775 0.960 . S
C789 H776 0.961 . S
C789 H777 0.959 . S
C789 C787 1.561 . S
C790 C787 1.526 . S
C790 C791 1.396 . S
C790 C795 1.390 . S
C791 C785 1.465 . S
C791 C790 1.396 . S
C791 C792 1.399 . S
C792 H778 0.929 . S
C792 C791 1.399 . S
C792 C793 1.385 . S
C793 H779 0.931 . S
C793 C792 1.385 . S
C793 C794 1.389 . S
C794 C793 1.389 . S
C794 C795 1.387 . S
C795 H780 0.930 . S
C795 C790 1.390 . S
C795 C794 1.387 . S
H796 C808 0.930 . S
H797 C810 0.930 . S
H798 C811 0.930 . S
H799 C815 0.959 . S
H800 C815 0.959 . S
H801 C815 0.961 . S
H802 C816 0.960 . S
H803 C816 0.961 . S
H804 C816 0.959 . S
H805 C819 0.929 . S
H806 C820 0.931 . S
H807 C822 0.930 . S
C808 H796 0.930 . S
C808 C809 1.399 . S
C808 C813 1.399 . S
C809 C808 1.399 . S
C809 C810 1.376 1_554 S
C810 H797 0.930 . S
C810 C809 1.376 1_556 S
C810 C811 1.388 . S
C811 H798 0.930 . S
C811 C810 1.388 . S
C811 C812 1.390 1_556 S
C812 C811 1.390 1_554 S
C812 C813 1.394 . S
C812 C818 1.465 . S
C813 C808 1.399 . S
C813 C812 1.394 . S
C813 C814 1.516 . S
C814 C813 1.516 . S
C814 C815 1.502 . S
C814 C816 1.561 . S
C814 C817 1.526 . S
C815 H799 0.959 . S
C815 H800 0.959 . S
C815 H801 0.961 . S
C815 C814 1.502 . S
C816 H802 0.960 . S
C816 H803 0.961 . S
C816 H804 0.959 . S
C816 C814 1.561 . S
C817 C814 1.526 . S
C817 C818 1.396 . S
C817 C822 1.390 . S
C818 C812 1.465 . S
C818 C817 1.396 . S
C818 C819 1.399 1_554 S
C819 H805 0.929 . S
C819 C818 1.399 1_556 S
C819 C820 1.385 . S
C820 H806 0.931 . S
C820 C819 1.385 . S
C820 C821 1.389 1_556 S
C821 C820 1.389 1_554 S
C821 C822 1.387 . S
C822 H807 0.930 . S
C822 C817 1.390 . S
C822 C821 1.387 . S
H823 C835 0.930 . S
H824 C837 0.930 . S
H825 C838 0.930 . S
H826 C842 0.959 . S
H827 C842 0.959 . S
H828 C842 0.961 . S
H829 C843 0.960 . S
H830 C843 0.961 . S
H831 C843 0.959 . S
H832 C846 0.929 . S
H833 C847 0.931 . S
H834 C849 0.930 . S
C835 H823 0.930 . S
C835 C836 1.399 1_556 S
C835 C840 1.402 . S
C836 C835 1.399 1_554 S
C836 C837 1.376 . S
C837 H824 0.930 . S
C837 C836 1.376 . S
C837 C838 1.388 . S
C838 H825 0.930 . S
C838 C837 1.388 . S
C838 C839 1.390 . S
C839 C838 1.390 . S
C839 C840 1.380 1_554 S
C839 C845 1.465 . S
C840 C835 1.402 . S
C840 C839 1.380 1_556 S
C840 C841 1.526 . S
C841 C840 1.526 . S
C841 C842 1.502 . S
C841 C843 1.561 . S
C841 C844 1.528 . S
C842 H826 0.959 . S
C842 H827 0.959 . S
C842 H828 0.961 . S
C842 C841 1.502 . S
C843 H829 0.960 . S
C843 H830 0.961 . S
C843 H831 0.959 . S
C843 C841 1.561 . S
C844 C841 1.528 . S
C844 C845 1.392 1_556 S
C844 C849 1.390 . S
C845 C839 1.465 . S
C845 C844 1.392 1_554 S
C845 C846 1.399 . S
C846 H832 0.929 . S
C846 C845 1.399 . S
C846 C847 1.385 . S
C847 H833 0.931 . S
C847 C846 1.385 . S
C847 C848 1.389 . S
C848 C847 1.389 . S
C848 C849 1.387 1_554 S
C849 H834 0.930 . S
C849 C844 1.390 . S
C849 C848 1.387 1_556 S
H850 C862 0.930 . S
H851 C864 0.930 . S
H852 C865 0.930 . S
H853 C869 0.959 . S
H854 C869 0.959 . S
H855 C869 0.961 . S
H856 C870 0.960 . S
H857 C870 0.961 . S
H858 C870 0.959 . S
H859 C873 0.929 . S
H860 C874 0.931 . S
H861 C876 0.930 . S
C862 H850 0.930 . S
C862 C863 1.399 . S
C862 C867 1.399 . S
C863 C862 1.399 . S
C863 C864 1.376 . S
C864 H851 0.930 . S
C864 C863 1.376 . S
C864 C865 1.388 . S
C865 H852 0.930 . S
C865 C864 1.388 . S
C865 C866 1.390 . S
C866 C865 1.390 . S
C866 C867 1.394 . S
C866 C872 1.465 . S
C867 C862 1.399 . S
C867 C866 1.394 . S
C867 C868 1.516 . S
C868 C867 1.516 . S
C868 C869 1.502 . S
C868 C870 1.561 . S
C868 C871 1.526 . S
C869 H853 0.959 . S
C869 H854 0.959 . S
C869 H855 0.961 . S
C869 C868 1.502 . S
C870 H856 0.960 . S
C870 H857 0.961 . S
C870 H858 0.959 . S
C870 C868 1.561 . S
C871 C868 1.526 . S
C871 C872 1.396 . S
C871 C876 1.390 . S
C872 C866 1.465 . S
C872 C871 1.396 . S
C872 C873 1.399 . S
C873 H859 0.929 . S
C873 C872 1.399 . S
C873 C874 1.385 . S
C874 H860 0.931 . S
C874 C873 1.385 . S
C874 C875 1.389 . S
C875 C874 1.389 . S
C875 C876 1.387 . S
C876 H861 0.930 . S
C876 C871 1.390 . S
C876 C875 1.387 . S
H877 C889 0.930 . S
H878 C891 0.930 . S
H879 C892 0.930 . S
H880 C896 0.959 . S
H881 C896 0.959 . S
H882 C896 0.961 . S
H883 C897 0.960 . S
H884 C897 0.961 . S
H885 C897 0.959 . S
H886 C900 0.929 . S
H887 C901 0.931 . S
H888 C903 0.930 . S
C889 H877 0.930 . S
C889 C890 1.399 . S
C889 C894 1.399 . S
C890 C889 1.399 . S
C890 C891 1.376 . S
C891 H878 0.930 . S
C891 C890 1.376 . S
C891 C892 1.388 . S
C892 H879 0.930 . S
C892 C891 1.388 . S
C892 C893 1.390 . S
C893 C892 1.390 . S
C893 C894 1.394 . S
C893 C899 1.465 . S
C894 C889 1.399 . S
C894 C893 1.394 . S
C894 C895 1.516 . S
C895 C894 1.516 . S
C895 C896 1.502 . S
C895 C897 1.561 . S
C895 C898 1.526 . S
C896 H880 0.959 . S
C896 H881 0.959 . S
C896 H882 0.961 . S
C896 C895 1.502 . S
C897 H883 0.960 . S
C897 H884 0.961 . S
C897 H885 0.959 . S
C897 C895 1.561 . S
C898 C895 1.526 . S
C898 C899 1.396 . S
C898 C903 1.390 . S
C899 C893 1.465 . S
C899 C898 1.396 . S
C899 C900 1.399 . S
C900 H886 0.929 . S
C900 C899 1.399 . S
C900 C901 1.385 . S
C901 H887 0.931 . S
C901 C900 1.385 . S
C901 C902 1.389 . S
C902 C901 1.389 . S
C902 C903 1.387 . S
C903 H888 0.930 . S
C903 C898 1.390 . S
C903 C902 1.387 . S
C485 C111 1.503 . S
C497 C52 1.502 . S
C512 C170 1.517 . S
C524 C229 1.518 . S
C539 C288 1.500 . S
C551 C347 1.499 . S
C566 C406 1.516 . S
C578 C465 1.517 . S
C593 C33 1.332 . S
C605 C210 1.314 . S
C620 C151 1.336 . S
C632 C92 1.346 . S
C647 C121 1.379 . S
C659 C62 1.382 . S
C674 C3 1.377 . S
C686 C180 1.380 . S
C701 C269 1.350 . S
C713 C446 1.325 . S
C728 C387 1.333 . S
C740 C328 1.347 . S
C755 C298 1.381 . S
C767 C357 1.385 . S
C782 C239 1.378 . S
C794 C416 1.382 . S
C809 C300 1.507 . S
C821 C5 1.508 . S
C836 C241 1.506 . S
C848 C64 1.505 . S
C863 C123 1.506 . S
C875 C418 1.505 . S
C890 C359 1.507 . S
C902 C182 1.508 . S
