# Generated by pormake.
# Topology wke, (5)-cn, num edge types: 1
# Building blocks:
#     Node 0, Type 0, BuildingBlock: XOMCOT_clean_sbu_0, # of connection points: 5
#     Node 1, Type 0, BuildingBlock: XOMCOT_clean_sbu_0, # of connection points: 5
#     Node 2, Type 0, BuildingBlock: XOMCOT_clean_sbu_0, # of connection points: 5
#     Node 3, Type 0, BuildingBlock: XOMCOT_clean_sbu_0, # of connection points: 5
#     Node 4, Type 0, BuildingBlock: XOMCOT_clean_sbu_0, # of connection points: 5
#     Node 5, Type 0, BuildingBlock: XOMCOT_clean_sbu_0, # of connection points: 5
#     Node 6, Type 0, BuildingBlock: XOMCOT_clean_sbu_0, # of connection points: 5
#     Node 7, Type 0, BuildingBlock: XOMCOT_clean_sbu_0, # of connection points: 5
#     Node 8, Type 0, BuildingBlock: XOMCOT_clean_sbu_0, # of connection points: 5
#     Node 9, Type 0, BuildingBlock: XOMCOT_clean_sbu_0, # of connection points: 5
#     Node 10, Type 0, BuildingBlock: XOMCOT_clean_sbu_0, # of connection points: 5
#     Node 11, Type 0, BuildingBlock: XOMCOT_clean_sbu_0, # of connection points: 5
#     Edge 12, Type (0, 0), BuildingBlock: TEMPAE_clean_linker_10, # of connection points: 2
#     Edge 13, Type (0, 0), BuildingBlock: TEMPAE_clean_linker_10, # of connection points: 2
#     Edge 14, Type (0, 0), BuildingBlock: TEMPAE_clean_linker_10, # of connection points: 2
#     Edge 15, Type (0, 0), BuildingBlock: TEMPAE_clean_linker_10, # of connection points: 2
#     Edge 16, Type (0, 0), BuildingBlock: TEMPAE_clean_linker_10, # of connection points: 2
#     Edge 17, Type (0, 0), BuildingBlock: TEMPAE_clean_linker_10, # of connection points: 2
#     Edge 18, Type (0, 0), BuildingBlock: TEMPAE_clean_linker_10, # of connection points: 2
#     Edge 19, Type (0, 0), BuildingBlock: TEMPAE_clean_linker_10, # of connection points: 2
#     Edge 20, Type (0, 0), BuildingBlock: TEMPAE_clean_linker_10, # of connection points: 2
#     Edge 21, Type (0, 0), BuildingBlock: TEMPAE_clean_linker_10, # of connection points: 2
#     Edge 22, Type (0, 0), BuildingBlock: TEMPAE_clean_linker_10, # of connection points: 2
#     Edge 23, Type (0, 0), BuildingBlock: TEMPAE_clean_linker_10, # of connection points: 2
#     Edge 24, Type (0, 0), BuildingBlock: TEMPAE_clean_linker_10, # of connection points: 2
#     Edge 25, Type (0, 0), BuildingBlock: TEMPAE_clean_linker_10, # of connection points: 2
#     Edge 26, Type (0, 0), BuildingBlock: TEMPAE_clean_linker_10, # of connection points: 2
#     Edge 27, Type (0, 0), BuildingBlock: TEMPAE_clean_linker_10, # of connection points: 2
#     Edge 28, Type (0, 0), BuildingBlock: TEMPAE_clean_linker_10, # of connection points: 2
#     Edge 29, Type (0, 0), BuildingBlock: TEMPAE_clean_linker_10, # of connection points: 2
#     Edge 30, Type (0, 0), BuildingBlock: TEMPAE_clean_linker_10, # of connection points: 2
#     Edge 31, Type (0, 0), BuildingBlock: TEMPAE_clean_linker_10, # of connection points: 2
#     Edge 32, Type (0, 0), BuildingBlock: TEMPAE_clean_linker_10, # of connection points: 2
#     Edge 33, Type (0, 0), BuildingBlock: TEMPAE_clean_linker_10, # of connection points: 2
#     Edge 34, Type (0, 0), BuildingBlock: TEMPAE_clean_linker_10, # of connection points: 2
#     Edge 35, Type (0, 0), BuildingBlock: TEMPAE_clean_linker_10, # of connection points: 2
#     Edge 36, Type (0, 0), BuildingBlock: TEMPAE_clean_linker_10, # of connection points: 2
#     Edge 37, Type (0, 0), BuildingBlock: TEMPAE_clean_linker_10, # of connection points: 2
#     Edge 38, Type (0, 0), BuildingBlock: TEMPAE_clean_linker_10, # of connection points: 2
#     Edge 39, Type (0, 0), BuildingBlock: TEMPAE_clean_linker_10, # of connection points: 2
#     Edge 40, Type (0, 0), BuildingBlock: TEMPAE_clean_linker_10, # of connection points: 2
#     Edge 41, Type (0, 0), BuildingBlock: TEMPAE_clean_linker_10, # of connection points: 2
# Relax obj value: 0.148
# Max RMSD: 0.150
# Mean RMSD: 0.150
data_MOF--net-wke--node1-XOMCOT_clean_sbu_0--edge1-TEMPAE_clean_linker_10
_symmetry_space_group_name_H-M    P1
_symmetry_Int_Tables_number       1
_symmetry_cell_setting            triclinic
loop_
_symmetry_equiv_pos_as_xyz
'x, y, z'
_cell_length_a     72.050518
_cell_length_b     72.065214
_cell_length_c     17.777697
_cell_angle_alpha  89.98111
_cell_angle_beta   89.982213
_cell_angle_gamma 120.03684
loop_
_atom_site_label
_atom_site_type_symbol
_atom_site_fract_x
_atom_site_fract_y
_atom_site_fract_z
_atom_type_partial_charge
Co0 Co 0.10638 0.41718 0.30079 0.0
C1 C 0.10096 0.41472 0.13289 0.0
C2 C 0.08285 0.38426 0.18728 0.0
C3 C 0.08066 0.3811 0.1107 0.0
N4 N 0.09536 0.40538 0.20154 0.0
N5 N 0.09205 0.40028 0.07667 0.0
H6 H 0.11233 0.43137 0.12312 0.0
H7 H 0.07636 0.37186 0.22982 0.0
C8 C 0.05877 0.39418 0.32107 0.0
O9 O 0.05718 0.40244 0.25711 0.0
N10 N 0.11729 0.42822 0.39993 0.0
C11 C 0.13439 0.44736 0.41716 0.0
C12 C 0.13637 0.44906 0.49438 0.0
C13 C 0.10907 0.41855 0.46645 0.0
N14 N 0.12036 0.43097 0.5251 0.0
C15 C 0.11413 0.45713 0.2379 0.0
C16 C 0.08562 0.46209 0.32775 0.0
C17 C 0.098 0.47812 0.27552 0.0
C18 C 0.11248 0.47552 0.23052 0.0
C19 C 0.08791 0.444 0.33364 0.0
N20 N 0.10127 0.44112 0.28646 0.0
H21 H 0.12654 0.45635 0.20677 0.0
H22 H 0.07957 0.43285 0.37866 0.0
H23 H 0.14453 0.45934 0.37647 0.0
H24 H 0.09521 0.4027 0.47202 0.0
O25 O 0.13522 0.43024 0.26227 0.0
O26 O 0.11713 0.39748 0.31035 0.0
O27 O 0.07714 0.39847 0.3457 0.0
C28 C 0.13474 0.41252 0.2801 0.0
H29 H 0.07174 0.36583 0.08226 0.0
H30 H 0.14834 0.46274 0.52555 0.0
H31 H 0.07495 0.46393 0.36601 0.0
H32 H 0.12277 0.48779 0.19077 0.0
Co33 Co 0.68731 0.10994 0.81838 0.0
C34 C 0.68449 0.10373 0.65096 0.0
C35 C 0.70298 0.09169 0.70442 0.0
C36 C 0.70416 0.08978 0.62773 0.0
N37 N 0.69046 0.10024 0.71933 0.0
N38 N 0.69255 0.0974 0.59416 0.0
H39 H 0.67551 0.11178 0.64182 0.0
H40 H 0.71117 0.08762 0.74659 0.0
C41 C 0.66739 0.06186 0.83505 0.0
O42 O 0.66239 0.05865 0.76343 0.0
N43 N 0.68477 0.11971 0.91705 0.0
C44 C 0.68072 0.13556 0.93371 0.0
C45 C 0.68017 0.13719 0.01095 0.0
C46 C 0.68663 0.1119 0.98391 0.0
N47 N 0.6838 0.12223 0.0423 0.0
C48 C 0.65584 0.11819 0.75221 0.0
C49 C 0.62036 0.0852 0.82165 0.0
C50 C 0.61759 0.09931 0.77502 0.0
C51 C 0.63569 0.11596 0.73996 0.0
C52 C 0.64082 0.088 0.83226 0.0
N53 N 0.65827 0.10397 0.79603 0.0
H54 H 0.6696 0.13177 0.72737 0.0
H55 H 0.64245 0.0778 0.87248 0.0
H56 H 0.67824 0.14519 0.89264 0.0
H57 H 0.69028 0.09913 0.98985 0.0
O58 O 0.70328 0.13916 0.78317 0.0
O59 O 0.71763 0.12139 0.83585 0.0
O60 O 0.67675 0.08067 0.863 0.0
C61 C 0.72039 0.13902 0.80534 0.0
H62 H 0.71318 0.08361 0.59895 0.0
H63 H 0.67701 0.14829 0.04162 0.0
H64 H 0.60689 0.07231 0.85091 0.0
H65 H 0.63445 0.12769 0.70553 0.0
Co66 Co 0.57685 0.68803 0.30357 0.0
C67 C 0.58013 0.68841 0.1356 0.0
C68 C 0.60815 0.69141 0.18871 0.0
C69 C 0.61107 0.69218 0.11198 0.0
N70 N 0.58836 0.68817 0.20386 0.0
N71 N 0.59345 0.69034 0.07883 0.0
H72 H 0.56517 0.68807 0.12688 0.0
H73 H 0.62005 0.6938 0.23043 0.0
C74 C 0.59762 0.66155 0.33007 0.0
O75 O 0.58793 0.65042 0.26955 0.0
N76 N 0.56598 0.68856 0.4025 0.0
C77 C 0.54577 0.68344 0.41991 0.0
C78 C 0.54393 0.68347 0.49706 0.0
C79 C 0.57629 0.692 0.46889 0.0
N80 N 0.56312 0.68884 0.52762 0.0
C81 C 0.53781 0.65515 0.23643 0.0
C82 C 0.53062 0.62305 0.33739 0.0
C83 C 0.5157 0.61869 0.27996 0.0
C84 C 0.51941 0.63508 0.22936 0.0
C85 C 0.54872 0.64343 0.34284 0.0
N86 N 0.55271 0.65898 0.29068 0.0
H87 H 0.5394 0.66783 0.20048 0.0
H88 H 0.55915 0.64686 0.39075 0.0
H89 H 0.53308 0.67924 0.37939 0.0
H90 H 0.5928 0.69584 0.47431 0.0
O91 O 0.56389 0.70374 0.26416 0.0
O92 O 0.59683 0.71845 0.31099 0.0
O93 O 0.59518 0.67722 0.35019 0.0
C94 C 0.58179 0.721 0.28064 0.0
H95 H 0.62537 0.69475 0.08285 0.0
H96 H 0.52954 0.67958 0.52836 0.0
H97 H 0.5279 0.61107 0.3795 0.0
H98 H 0.50799 0.63254 0.1853 0.0
Co99 Co 0.88696 0.57788 0.80848 0.0
C100 C 0.89234 0.58028 0.64057 0.0
C101 C 0.91056 0.61074 0.69474 0.0
C102 C 0.91276 0.61388 0.61815 0.0
N103 N 0.89797 0.58963 0.70914 0.0
N104 N 0.9013 0.59469 0.58426 0.0
H105 H 0.88093 0.56363 0.63094 0.0
H106 H 0.91711 0.62314 0.73721 0.0
C107 C 0.93456 0.60043 0.82761 0.0
O108 O 0.93592 0.59209 0.76354 0.0
N109 N 0.87607 0.56688 0.90769 0.0
C110 C 0.85887 0.5478 0.92496 0.0
C111 C 0.85689 0.54609 1.00219 0.0
C112 C 0.88435 0.57649 0.97417 0.0
N113 N 0.87299 0.5641 0.03286 0.0
C114 C 0.8787 0.53777 0.74535 0.0
C115 C 0.90749 0.53273 0.8332 0.0
C116 C 0.89507 0.51683 0.78071 0.0
C117 C 0.88037 0.51941 0.73696 0.0
C118 C 0.90514 0.55075 0.84025 0.0
N119 N 0.89171 0.55373 0.79378 0.0
H120 H 0.86624 0.53863 0.71487 0.0
H121 H 0.91357 0.5618 0.88534 0.0
H122 H 0.84864 0.53589 0.88431 0.0
H123 H 0.8983 0.59228 0.97967 0.0
O124 O 0.85811 0.56517 0.77043 0.0
O125 O 0.87662 0.59789 0.8184 0.0
O126 O 0.91631 0.59632 0.85289 0.0
C127 C 0.8589 0.58304 0.7883 0.0
H128 H 0.92174 0.62913 0.58959 0.0
H129 H 0.84484 0.53246 0.03338 0.0
H130 H 0.9183 0.53085 0.87062 0.0
H131 H 0.87001 0.5072 0.69722 0.0
Co132 Co 0.30692 0.88772 0.30771 0.0
C133 C 0.30619 0.89038 0.13964 0.0
C134 C 0.30202 0.91465 0.19295 0.0
C135 C 0.30109 0.91673 0.11627 0.0
N136 N 0.30612 0.89867 0.20792 0.0
N137 N 0.30367 0.90141 0.083 0.0
H138 H 0.3072 0.87612 0.13079 0.0
H139 H 0.29925 0.92386 0.23484 0.0
C140 C 0.3329 0.93508 0.33063 0.0
O141 O 0.34347 0.9362 0.2689 0.0
N142 N 0.30699 0.87673 0.40679 0.0
C143 C 0.31261 0.86202 0.42429 0.0
C144 C 0.31268 0.86025 0.50145 0.0
C145 C 0.30335 0.88346 0.4731 0.0
N146 N 0.30686 0.87373 0.53188 0.0
C147 C 0.34032 0.88244 0.23923 0.0
C148 C 0.37222 0.90787 0.33996 0.0
C149 C 0.37701 0.89776 0.28205 0.0
C150 C 0.36069 0.88481 0.23149 0.0
C151 C 0.35164 0.90503 0.34564 0.0
N152 N 0.33615 0.8932 0.29368 0.0
H153 H 0.32769 0.87098 0.20389 0.0
H154 H 0.34804 0.9119 0.39353 0.0
H155 H 0.31702 0.8537 0.38381 0.0
H156 H 0.29906 0.89581 0.47839 0.0
O157 O 0.29136 0.85885 0.26959 0.0
O158 O 0.27648 0.87686 0.31687 0.0
O159 O 0.31758 0.91701 0.35308 0.0
C160 C 0.27403 0.85924 0.28719 0.0
H161 H 0.29795 0.92809 0.08724 0.0
H162 H 0.31691 0.85003 0.53285 0.0
H163 H 0.38417 0.91767 0.38132 0.0
H164 H 0.36335 0.87582 0.18818 0.0
Co165 Co 0.41869 0.30894 0.80709 0.0
C166 C 0.41534 0.30838 0.63913 0.0
C167 C 0.38759 0.30602 0.69228 0.0
C168 C 0.38469 0.30533 0.61556 0.0
N169 N 0.40721 0.30883 0.70739 0.0
N170 N 0.40215 0.30676 0.5824 0.0
H171 H 0.43014 0.30839 0.63036 0.0
H172 H 0.37578 0.30392 0.73402 0.0
C173 C 0.39866 0.33613 0.83281 0.0
O174 O 0.40851 0.34716 0.77226 0.0
N175 N 0.42951 0.30839 0.90603 0.0
C176 C 0.44961 0.31312 0.92332 0.0
C177 C 0.45144 0.31307 1.00047 0.0
C178 C 0.41927 0.30518 0.97247 0.0
N179 N 0.43237 0.30809 0.03114 0.0
C180 C 0.4579 0.34132 0.73881 0.0
C181 C 0.46558 0.3738 0.83856 0.0
C182 C 0.48028 0.37792 0.7805 0.0
C183 C 0.47636 0.36132 0.73062 0.0
C184 C 0.44742 0.35349 0.84506 0.0
N185 N 0.44315 0.33777 0.79336 0.0
H186 H 0.45612 0.32848 0.70332 0.0
H187 H 0.43711 0.35028 0.89323 0.0
H188 H 0.46223 0.31702 0.88272 0.0
H189 H 0.40285 0.30165 0.97794 0.0
O190 O 0.43113 0.29267 0.76825 0.0
O191 O 0.39828 0.27867 0.81554 0.0
O192 O 0.40078 0.3203 0.85331 0.0
C193 C 0.41306 0.27566 0.78547 0.0
H194 H 0.37053 0.30311 0.58643 0.0
H195 H 0.46576 0.31666 0.03167 0.0
H196 H 0.46847 0.38592 0.88024 0.0
H197 H 0.48761 0.36365 0.68615 0.0
Co198 Co 0.57648 0.8878 0.2044 0.0
C199 C 0.57982 0.89407 0.37187 0.0
C200 C 0.6104 0.90653 0.31822 0.0
C201 C 0.6135 0.90849 0.39488 0.0
N202 N 0.58928 0.89767 0.30343 0.0
N203 N 0.59424 0.90061 0.42857 0.0
H204 H 0.56277 0.88581 0.38113 0.0
H205 H 0.62269 0.91076 0.27598 0.0
C206 C 0.60415 0.9359 0.18762 0.0
O207 O 0.60197 0.93903 0.25901 0.0
N208 N 0.56428 0.87788 0.10571 0.0
C209 C 0.54443 0.86186 0.08901 0.0
C210 C 0.5423 0.86022 0.01177 0.0
C211 C 0.57393 0.88576 0.03887 0.0
N212 N 0.56084 0.87532 0.98046 0.0
C213 C 0.53663 0.87916 0.27019 0.0
C214 C 0.53339 0.91139 0.19822 0.0
C215 C 0.5165 0.89707 0.24442 0.0
C216 C 0.51837 0.88088 0.28102 0.0
C217 C 0.55141 0.90911 0.18896 0.0
N218 N 0.55321 0.89347 0.22624 0.0
H219 H 0.5371 0.86588 0.29612 0.0
H220 H 0.56319 0.91929 0.14849 0.0
H221 H 0.53235 0.85215 0.13005 0.0
H222 H 0.59031 0.89868 0.03297 0.0
O223 O 0.56338 0.85864 0.23991 0.0
O224 O 0.59555 0.87655 0.18742 0.0
O225 O 0.59505 0.91709 0.15967 0.0
C226 C 0.58072 0.8589 0.21801 0.0
H227 H 0.62873 0.91488 0.42358 0.0
H228 H 0.52809 0.84901 0.98107 0.0
H229 H 0.53229 0.92366 0.16666 0.0
H230 H 0.50566 0.86935 0.31691 0.0
Co231 Co 0.68817 0.57982 0.70719 0.0
C232 C 0.68543 0.58237 0.87515 0.0
C233 C 0.69785 0.61282 0.82065 0.0
C234 C 0.69887 0.61601 0.89722 0.0
N235 N 0.68917 0.59169 0.80648 0.0
N236 N 0.69103 0.59683 0.93132 0.0
H237 H 0.68008 0.56571 0.88497 0.0
H238 H 0.70373 0.62519 0.77803 0.0
C239 C 0.6633 0.60251 0.68847 0.0
O240 O 0.65374 0.59426 0.75287 0.0
N241 N 0.68784 0.56872 0.60802 0.0
C242 C 0.68582 0.54959 0.59074 0.0
C243 C 0.68611 0.54791 0.5135 0.0
C244 C 0.68929 0.57839 0.54154 0.0
N245 N 0.68819 0.56599 0.48285 0.0
C246 C 0.65618 0.53989 0.77129 0.0
C247 C 0.62234 0.53485 0.68352 0.0
C248 C 0.61873 0.51899 0.7366 0.0
C249 C 0.63608 0.52163 0.78025 0.0
C250 C 0.64277 0.55281 0.67611 0.0
N251 N 0.65919 0.5558 0.72251 0.0
H252 H 0.66951 0.54066 0.80138 0.0
H253 H 0.64541 0.56386 0.63096 0.0
H254 H 0.68405 0.53764 0.63139 0.0
H255 H 0.6913 0.59424 0.53605 0.0
O256 O 0.70415 0.56694 0.74513 0.0
O257 O 0.71859 0.59964 0.69661 0.0
O258 O 0.67737 0.59835 0.66287 0.0
C259 C 0.72131 0.58471 0.72686 0.0
H260 H 0.70525 0.63128 0.92561 0.0
H261 H 0.68446 0.53427 0.48229 0.0
H262 H 0.60961 0.53332 0.64711 0.0
H263 H 0.63439 0.50929 0.81906 0.0
Co264 Co 0.10692 0.68736 0.20904 0.0
C265 C 0.10421 0.68807 0.37706 0.0
C266 C 0.0799 0.69218 0.32369 0.0
C267 C 0.07778 0.69305 0.4004 0.0
N268 N 0.09595 0.68818 0.30876 0.0
N269 N 0.09312 0.69051 0.43369 0.0
H270 H 0.11847 0.68704 0.38593 0.0
H271 H 0.07066 0.69491 0.2818 0.0
C272 C 0.0595 0.66141 0.18522 0.0
O273 O 0.0581 0.65068 0.24681 0.0
N274 N 0.11791 0.68722 0.11001 0.0
C275 C 0.13255 0.6815 0.0925 0.0
C276 C 0.13428 0.68138 0.01533 0.0
C277 C 0.11118 0.69085 0.04368 0.0
N278 N 0.12084 0.68725 0.98489 0.0
C279 C 0.11259 0.65428 0.27768 0.0
C280 C 0.08657 0.6219 0.17946 0.0
C281 C 0.09697 0.61736 0.23711 0.0
C282 C 0.11026 0.63396 0.28623 0.0
C283 C 0.08948 0.64249 0.17267 0.0
N284 N 0.10154 0.65819 0.22364 0.0
H285 H 0.12422 0.66706 0.31208 0.0
H286 H 0.08245 0.64589 0.12481 0.0
H287 H 0.14085 0.67706 0.13299 0.0
H288 H 0.09887 0.6952 0.0384 0.0
O289 O 0.1358 0.70302 0.24714 0.0
O290 O 0.11773 0.71778 0.19951 0.0
O291 O 0.07767 0.6767 0.16346 0.0
C292 C 0.13537 0.7203 0.22928 0.0
H293 H 0.06636 0.69611 0.42942 0.0
H294 H 0.14445 0.67707 0.98394 0.0
H295 H 0.07647 0.60976 0.13914 0.0
H296 H 0.11953 0.63156 0.32912 0.0
Co297 Co 0.41745 0.10895 0.70504 0.0
C298 C 0.41399 0.10628 0.87309 0.0
C299 C 0.38614 0.08106 0.81988 0.0
C300 C 0.38314 0.07893 0.89658 0.0
N301 N 0.40589 0.0977 0.80484 0.0
N302 N 0.40067 0.09484 0.92979 0.0
H303 H 0.42887 0.121 0.88186 0.0
H304 H 0.37432 0.07143 0.7781 0.0
C305 C 0.39722 0.06172 0.68055 0.0
O306 O 0.40705 0.06072 0.7414 0.0
N307 N 0.42832 0.12022 0.60599 0.0
C308 C 0.44849 0.13544 0.5885 0.0
C309 C 0.45029 0.13731 0.51134 0.0
C310 C 0.41801 0.1133 0.53967 0.0
N311 N 0.43112 0.12339 0.48089 0.0
C312 C 0.45647 0.1153 0.77359 0.0
C313 C 0.46418 0.09088 0.6722 0.0
C314 C 0.47889 0.10125 0.73044 0.0
C315 C 0.47488 0.11367 0.78134 0.0
C316 C 0.44599 0.09299 0.66648 0.0
N317 N 0.44176 0.10434 0.71873 0.0
H318 H 0.45472 0.12628 0.80963 0.0
H319 H 0.43566 0.08601 0.61831 0.0
H320 H 0.46116 0.14404 0.62898 0.0
H321 H 0.40151 0.10056 0.53435 0.0
O322 O 0.43014 0.13771 0.74358 0.0
O323 O 0.39726 0.11907 0.69646 0.0
O324 O 0.39939 0.07963 0.65923 0.0
C325 C 0.41217 0.13682 0.72634 0.0
H326 H 0.36887 0.06711 0.92563 0.0
H327 H 0.46463 0.14792 0.47998 0.0
H328 H 0.46708 0.08186 0.62973 0.0
H329 H 0.48604 0.12237 0.82625 0.0
Co330 Co 0.30697 0.41807 0.20444 0.0
C331 C 0.30652 0.41478 0.37252 0.0
C332 C 0.2998 0.38549 0.31875 0.0
C333 C 0.29885 0.38242 0.39544 0.0
N334 N 0.30539 0.40603 0.30411 0.0
N335 N 0.30302 0.40085 0.42897 0.0
H336 H 0.30913 0.43067 0.38171 0.0
H337 H 0.29618 0.37335 0.27654 0.0
C338 C 0.33234 0.39588 0.18526 0.0
O339 O 0.34215 0.40455 0.24888 0.0
N340 N 0.30789 0.42945 0.10527 0.0
C341 C 0.31446 0.45 0.08747 0.0
C342 C 0.31486 0.45186 0.01025 0.0
C343 C 0.30402 0.41899 0.03909 0.0
N344 N 0.30828 0.43236 0.98015 0.0
C345 C 0.33933 0.45722 0.27279 0.0
C346 C 0.3729 0.46276 0.18228 0.0
C347 C 0.37677 0.47816 0.23751 0.0
C348 C 0.35955 0.47527 0.28263 0.0
C349 C 0.35237 0.44507 0.17389 0.0
N350 N 0.33605 0.4418 0.22139 0.0
H351 H 0.32611 0.45638 0.30375 0.0
H352 H 0.34954 0.43443 0.12715 0.0
H353 H 0.31925 0.46284 0.12777 0.0
H354 H 0.29899 0.40215 0.03406 0.0
O355 O 0.2911 0.43122 0.24087 0.0
O356 O 0.2766 0.3985 0.19246 0.0
O357 O 0.31781 0.39948 0.16037 0.0
C358 C 0.27391 0.41353 0.22197 0.0
H359 H 0.29466 0.3676 0.42431 0.0
H360 H 0.3198 0.46644 0.97859 0.0
H361 H 0.38552 0.46446 0.14485 0.0
H362 H 0.36142 0.48729 0.32318 0.0
Co363 Co 0.88872 0.30885 0.71657 0.0
C364 C 0.89157 0.30825 0.8845 0.0
C365 C 0.91686 0.30573 0.83134 0.0
C366 C 0.91901 0.30495 0.90807 0.0
N367 N 0.90015 0.3087 0.81621 0.0
N368 N 0.90305 0.30649 0.94126 0.0
H369 H 0.87681 0.30835 0.89321 0.0
H370 H 0.9265 0.30352 0.78965 0.0
C371 C 0.93597 0.33502 0.68813 0.0
O372 O 0.93771 0.34638 0.74832 0.0
N373 N 0.87727 0.30832 0.61773 0.0
C374 C 0.86225 0.31353 0.60039 0.0
C375 C 0.86033 0.31345 0.52324 0.0
C376 C 0.88406 0.3048 0.55129 0.0
N377 N 0.87407 0.30798 0.49258 0.0
C378 C 0.88361 0.34228 0.78451 0.0
C379 C 0.9082 0.37395 0.68177 0.0
C380 C 0.89833 0.37879 0.74051 0.0
C381 C 0.88576 0.36253 0.79192 0.0
C382 C 0.90548 0.3534 0.67616 0.0
N383 N 0.89409 0.33806 0.72913 0.0
H384 H 0.87256 0.32975 0.82112 0.0
H385 H 0.91213 0.34973 0.62782 0.0
H386 H 0.85384 0.31782 0.64095 0.0
H387 H 0.89667 0.30088 0.54582 0.0
O388 O 0.86007 0.29352 0.75654 0.0
O389 O 0.87784 0.27835 0.70963 0.0
O390 O 0.91775 0.31927 0.66926 0.0
C391 C 0.86039 0.2761 0.74022 0.0
H392 H 0.93086 0.30258 0.93718 0.0
H393 H 0.84987 0.31739 0.49202 0.0
H394 H 0.91776 0.38583 0.63981 0.0
H395 H 0.8769 0.36513 0.8359 0.0
C396 C 0.04105 0.37199 0.435 0.0
C397 C 0.03988 0.3827 0.37079 0.0
C398 C 0.02409 0.36276 0.48675 0.0
C399 C 0.0056 0.36446 0.47436 0.0
C400 C 0.00407 0.37475 0.40869 0.0
C401 C 0.02119 0.38364 0.3574 0.0
C402 C 0.02615 0.3516 0.55548 0.0
C403 C 0.98469 0.37709 0.39397 0.0
C404 C 0.95366 0.32846 0.57837 0.0
C405 C 0.95448 0.3419 0.63697 0.0
C406 C 0.97042 0.33539 0.52599 0.0
C407 C 0.98826 0.35636 0.53174 0.0
C408 C 0.98935 0.36987 0.59147 0.0
C409 C 0.97251 0.36241 0.64369 0.0
C410 C 0.96886 0.32039 0.46385 0.0
C411 C 0.00802 0.39244 0.59896 0.0
H412 H 0.05538 0.37106 0.44549 0.0
H413 H 0.02021 0.39196 0.30813 0.0
H414 H 0.02583 0.36008 0.60708 0.0
H415 H 0.01235 0.33501 0.55875 0.0
H416 H 0.04122 0.35093 0.5553 0.0
H417 H 0.98574 0.385 0.33924 0.0
H418 H 0.96991 0.36114 0.39426 0.0
H419 H 0.98305 0.3867 0.43949 0.0
H420 H 0.9398 0.31254 0.57298 0.0
H421 H 0.97321 0.37294 0.68849 0.0
H422 H 0.98345 0.31888 0.46315 0.0
H423 H 0.96793 0.32702 0.40856 0.0
H424 H 0.95458 0.30416 0.47004 0.0
H425 H 0.02329 0.39225 0.60222 0.0
H426 H 0.00667 0.40073 0.64957 0.0
H427 H 0.00893 0.40191 0.54843 0.0
C428 C 0.66215 0.02598 0.86999 0.0
C429 C 0.65953 0.0435 0.88676 0.0
C430 C 0.6549 0.00864 0.92019 0.0
C431 C 0.64377 0.00842 0.9863 0.0
C432 C 0.64094 0.02606 1.00281 0.0
C433 C 0.64939 0.04365 0.95383 0.0
C434 C 0.65922 0.99065 0.9027 0.0
C435 C 0.62831 0.02607 0.07067 0.0
C436 C 0.60456 0.95409 0.06863 0.0
C437 C 0.6147 0.95428 0.13607 0.0
C438 C 0.61378 0.97168 0.01966 0.0
C439 C 0.6342 0.98938 0.03664 0.0
C440 C 0.64496 0.98921 0.10319 0.0
C441 C 0.63478 0.97185 0.15331 0.0
C442 C 0.60129 0.97161 0.95132 0.0
C443 C 0.66723 0.00726 0.12123 0.0
H444 H 0.67029 0.02609 0.81855 0.0
H445 H 0.64746 0.05727 0.96691 0.0
H446 H 0.66636 0.98724 0.9524 0.0
H447 H 0.64398 0.97579 0.88969 0.0
H448 H 0.67023 0.99446 0.85403 0.0
H449 H 0.62756 0.04106 0.07519 0.0
H450 H 0.6117 0.01228 0.06727 0.0
H451 H 0.63551 0.02412 0.12299 0.0
H452 H 0.58905 0.94043 0.05522 0.0
H453 H 0.6427 0.97177 0.20505 0.0
H454 H 0.61063 0.97372 0.89933 0.0
H455 H 0.59831 0.98529 0.95458 0.0
H456 H 0.58563 0.95653 0.94625 0.0
H457 H 0.67792 0.01072 0.07188 0.0
H458 H 0.67432 0.00349 0.17024 0.0
H459 H 0.66676 0.02208 0.13396 0.0
C460 C 0.66721 0.62474 0.57523 0.0
C461 C 0.65553 0.6138 0.63951 0.0
C462 C 0.65917 0.6339 0.52446 0.0
C463 C 0.63887 0.63184 0.53784 0.0
C464 C 0.62721 0.62123 0.60344 0.0
C465 C 0.63576 0.61246 0.65381 0.0
C466 C 0.67223 0.64539 0.45575 0.0
C467 C 0.60536 0.61848 0.61911 0.0
C468 C 0.62214 0.66783 0.43866 0.0
C469 C 0.60946 0.65459 0.37977 0.0
C470 C 0.63227 0.66086 0.48947 0.0
C471 C 0.62939 0.64003 0.48183 0.0
C472 C 0.61691 0.62672 0.42178 0.0
C473 C 0.60722 0.63423 0.37115 0.0
C474 C 0.64576 0.67564 0.552 0.0
C475 C 0.61328 0.60431 0.41229 0.0
H476 H 0.68256 0.62593 0.56402 0.0
H477 H 0.62659 0.60393 0.70309 0.0
H478 H 0.66349 0.63685 0.40413 0.0
H479 H 0.67458 0.66182 0.45292 0.0
H480 H 0.68818 0.64652 0.45556 0.0
H481 H 0.59857 0.6102 0.67341 0.0
H482 H 0.60631 0.63431 0.62034 0.0
H483 H 0.59414 0.60902 0.57327 0.0
H484 H 0.62402 0.68364 0.44548 0.0
H485 H 0.59736 0.62386 0.32606 0.0
H486 H 0.66196 0.67738 0.55149 0.0
H487 H 0.63838 0.66867 0.60722 0.0
H488 H 0.64749 0.6918 0.54732 0.0
H489 H 0.62886 0.60478 0.40728 0.0
H490 H 0.60345 0.59614 0.3619 0.0
H491 H 0.60504 0.59457 0.46273 0.0
C492 C 0.02247 0.63391 0.1458 0.0
C493 C 0.0406 0.65422 0.13587 0.0
C494 C 0.00522 0.62609 0.09528 0.0
C495 C 0.00601 0.63904 0.03404 0.0
C496 C 0.02395 0.65984 0.02514 0.0
C497 C 0.04111 0.66712 0.07585 0.0
C498 C 0.98645 0.60372 0.10612 0.0
C499 C 0.02518 0.67425 0.96133 0.0
C500 C 0.97204 0.61052 0.86315 0.0
C501 C 0.9536 0.61191 0.87652 0.0
C502 C 0.98936 0.61955 0.91351 0.0
C503 C 0.98831 0.6305 0.9781 0.0
C504 C 0.97004 0.63258 0.99053 0.0
C505 C 0.95285 0.62315 0.93983 0.0
C506 C 0.00847 0.61675 0.89892 0.0
C507 C 0.96847 0.6444 0.05815 0.0
H508 H 0.02201 0.6238 0.19176 0.0
H509 H 0.05504 0.68288 0.06804 0.0
H510 H 0.9713 0.60413 0.10989 0.0
H511 H 0.98506 0.59366 0.05679 0.0
H512 H 0.98807 0.59591 0.15763 0.0
H513 H 0.0396 0.69047 0.96515 0.0
H514 H 0.02561 0.66701 0.90678 0.0
H515 H 0.01068 0.67593 0.96109 0.0
H516 H 0.97268 0.60175 0.81464 0.0
H517 H 0.93868 0.62438 0.95032 0.0
H518 H 0.01028 0.6076 0.94576 0.0
H519 H 0.02336 0.6326 0.89675 0.0
H520 H 0.00697 0.60816 0.84539 0.0
H521 H 0.96843 0.63599 0.11046 0.0
H522 H 0.95373 0.64567 0.05724 0.0
H523 H 0.98264 0.66079 0.06061 0.0
C524 C 0.37265 0.04269 0.57278 0.0
C525 C 0.38537 0.04257 0.63236 0.0
C526 C 0.36252 0.02521 0.52345 0.0
C527 C 0.36542 0.00734 0.53337 0.0
C528 C 0.37789 0.00695 0.59425 0.0
C529 C 0.3876 0.02452 0.64332 0.0
C530 C 0.34907 0.02605 0.45986 0.0
C531 C 0.38155 0.98827 0.60616 0.0
C532 C 0.32827 0.95366 0.44187 0.0
C533 C 0.34032 0.95421 0.37898 0.0
C534 C 0.33594 0.9711 0.49148 0.0
C535 C 0.35624 0.98942 0.47832 0.0
C536 C 0.36825 0.99027 0.41405 0.0
C537 C 0.36008 0.97271 0.3649 0.0
C538 C 0.32253 0.96974 0.55884 0.0
C539 C 0.39006 0.00946 0.3985 0.0
H540 H 0.37077 0.05655 0.56417 0.0
H541 H 0.39747 0.02435 0.68901 0.0
H542 H 0.35662 0.02634 0.40517 0.0
H543 H 0.33294 0.01148 0.46044 0.0
H544 H 0.34715 0.0404 0.46314 0.0
H545 H 0.39126 0.99024 0.65721 0.0
H546 H 0.36599 0.97316 0.61146 0.0
H547 H 0.38995 0.98655 0.55664 0.0
H548 H 0.31293 0.93945 0.45296 0.0
H549 H 0.36952 0.97325 0.3166 0.0
H550 H 0.32045 0.98398 0.56091 0.0
H551 H 0.33086 0.96971 0.61129 0.0
H552 H 0.30645 0.95507 0.55801 0.0
H553 H 0.38895 0.02425 0.39561 0.0
H554 H 0.39711 0.00783 0.34504 0.0
H555 H 0.40117 0.01156 0.44521 0.0
C556 C 0.37338 0.32978 0.93894 0.0
C557 C 0.3868 0.34323 0.88176 0.0
C558 C 0.36309 0.33679 0.98888 0.0
C559 C 0.36659 0.35788 0.98216 0.0
C560 C 0.3799 0.37143 0.92394 0.0
C561 C 0.38971 0.36388 0.87405 0.0
C562 C 0.34873 0.32177 0.04948 0.0
C563 C 0.38423 0.39413 0.9156 0.0
C564 C 0.32885 0.37394 0.07153 0.0
C565 C 0.3401 0.38444 0.13696 0.0
C566 C 0.33696 0.36463 0.02171 0.0
C567 C 0.3569 0.36607 0.0373 0.0
C568 C 0.36807 0.37617 0.10417 0.0
C569 C 0.35946 0.38512 0.15344 0.0
C570 C 0.32444 0.35371 0.9515 0.0
C571 C 0.38947 0.37817 0.12242 0.0
H572 H 0.37099 0.31376 0.945 0.0
H573 H 0.40017 0.37441 0.83033 0.0
H574 H 0.35559 0.32827 0.10568 0.0
H575 H 0.33271 0.32041 0.04701 0.0
H576 H 0.34668 0.30548 0.04429 0.0
H577 H 0.39477 0.40252 0.86682 0.0
H578 H 0.36894 0.39413 0.90848 0.0
H579 H 0.392 0.40337 0.96738 0.0
H580 H 0.31382 0.37324 0.05856 0.0
H581 H 0.36828 0.39325 0.20373 0.0
H582 H 0.32212 0.33732 0.94716 0.0
H583 H 0.33357 0.36275 0.90108 0.0
H584 H 0.30849 0.35258 0.95042 0.0
H585 H 0.38806 0.36212 0.12292 0.0
H586 H 0.39579 0.38593 0.17777 0.0
H587 H 0.40131 0.38778 0.07826 0.0
C588 C 0.09491 0.58467 0.17862 0.0
C589 C 0.09505 0.59587 0.24341 0.0
C590 C 0.09414 0.56487 0.18382 0.0
C591 C 0.09372 0.55613 0.25552 0.0
C592 C 0.09347 0.56713 0.32112 0.0
C593 C 0.09406 0.58682 0.31427 0.0
C594 C 0.09434 0.55357 0.11255 0.0
C595 C 0.09308 0.55833 0.39858 0.0
C596 C 0.07685 0.49709 0.26951 0.0
C597 C 0.09677 0.49804 0.27107 0.0
C598 C 0.07557 0.51587 0.26455 0.0
C599 C 0.09466 0.53604 0.26183 0.0
C600 C 0.1148 0.53708 0.2643 0.0
C601 C 0.1156 0.51807 0.26865 0.0
C602 C 0.05382 0.51414 0.26139 0.0
C603 C 0.13552 0.55829 0.26234 0.0
H604 H 0.09602 0.59165 0.12365 0.0
H605 H 0.09383 0.5952 0.36457 0.0
H606 H 0.10933 0.55281 0.10967 0.0
H607 H 0.08076 0.53683 0.11256 0.0
H608 H 0.09327 0.56179 0.06123 0.0
H609 H 0.09212 0.56844 0.44386 0.0
H610 H 0.07918 0.54187 0.40398 0.0
H611 H 0.10778 0.55729 0.40724 0.0
H612 H 0.06227 0.48162 0.27092 0.0
H613 H 0.13103 0.51888 0.27113 0.0
H614 H 0.05218 0.52122 0.20811 0.0
H615 H 0.05214 0.52338 0.30818 0.0
H616 H 0.04051 0.49727 0.26501 0.0
H617 H 0.1365 0.56695 0.20957 0.0
H618 H 0.14984 0.55633 0.26587 0.0
H619 H 0.136 0.56851 0.3098 0.0
C620 C 0.49826 0.08046 0.7249 0.0
C621 C 0.49882 0.10001 0.7358 0.0
C622 C 0.51702 0.07913 0.72982 0.0
C623 C 0.53679 0.09782 0.74587 0.0
C624 C 0.53747 0.11762 0.75652 0.0
C625 C 0.51849 0.11847 0.75132 0.0
C626 C 0.51567 0.05773 0.71835 0.0
C627 C 0.55827 0.13792 0.77336 0.0
C628 C 0.58294 0.09344 0.82932 0.0
C629 C 0.59625 0.09754 0.7665 0.0
C630 C 0.5633 0.09297 0.82303 0.0
C631 C 0.55682 0.09675 0.75224 0.0
C632 C 0.56993 0.10044 0.68828 0.0
C633 C 0.58949 0.1008 0.69619 0.0
C634 C 0.54977 0.08903 0.89257 0.0
C635 C 0.56351 0.10444 0.6118 0.0
H636 H 0.48307 0.06611 0.71351 0.0
H637 H 0.51911 0.13371 0.75845 0.0
H638 H 0.52642 0.05884 0.67175 0.0
H639 H 0.52119 0.05321 0.76979 0.0
H640 H 0.49911 0.04478 0.70517 0.0
H641 H 0.55606 0.15203 0.78 0.0
H642 H 0.56542 0.13591 0.82582 0.0
H643 H 0.56994 0.14128 0.72736 0.0
H644 H 0.58818 0.09121 0.88404 0.0
H645 H 0.59958 0.10371 0.64727 0.0
H646 H 0.53327 0.07557 0.88285 0.0
H647 H 0.54854 0.10345 0.90523 0.0
H648 H 0.55653 0.08524 0.94255 0.0
H649 H 0.54739 0.09109 0.59645 0.0
H650 H 0.57506 0.10613 0.56716 0.0
H651 H 0.56249 0.1193 0.61325 0.0
C652 C 0.47594 0.5964 0.26578 0.0
C653 C 0.4958 0.59755 0.27526 0.0
C654 C 0.45693 0.57657 0.26113 0.0
C655 C 0.45784 0.55742 0.26539 0.0
C656 C 0.47785 0.55846 0.27512 0.0
C657 C 0.49661 0.57855 0.28041 0.0
C658 C 0.43588 0.57611 0.25172 0.0
C659 C 0.47946 0.53839 0.27905 0.0
C660 C 0.40618 0.50664 0.31617 0.0
C661 C 0.39819 0.4978 0.24502 0.0
C662 C 0.42576 0.52585 0.32378 0.0
C663 C 0.4378 0.53635 0.25875 0.0
C664 C 0.43017 0.52722 0.18697 0.0
C665 C 0.4104 0.50816 0.18091 0.0
C666 C 0.43334 0.53515 0.40128 0.0
C667 C 0.44262 0.53788 0.11633 0.0
H668 H 0.47524 0.61106 0.26296 0.0
H669 H 0.51198 0.57943 0.28728 0.0
H670 H 0.42807 0.56786 0.19851 0.0
H671 H 0.42484 0.5669 0.29835 0.0
H672 H 0.43791 0.59244 0.25081 0.0
H673 H 0.49621 0.54196 0.28743 0.0
H674 H 0.46945 0.52804 0.3259 0.0
H675 H 0.47318 0.52905 0.22635 0.0
H676 H 0.39704 0.4986 0.36609 0.0
H677 H 0.40427 0.50171 0.12559 0.0
H678 H 0.4344 0.55103 0.4051 0.0
H679 H 0.44963 0.53773 0.41176 0.0
H680 H 0.42245 0.52465 0.44633 0.0
H681 H 0.44349 0.55358 0.10859 0.0
H682 H 0.43522 0.52799 0.06536 0.0
H683 H 0.45931 0.54106 0.12129 0.0
C684 C 0.91663 0.4984 0.77054 0.0
C685 C 0.89658 0.49711 0.77457 0.0
C686 C 0.91822 0.47981 0.76444 0.0
C687 C 0.8993 0.45949 0.76328 0.0
C688 C 0.87903 0.4581 0.76797 0.0
C689 C 0.87792 0.47694 0.77322 0.0
C690 C 0.9401 0.48191 0.75873 0.0
C691 C 0.8585 0.43671 0.76786 0.0
C692 C 0.89935 0.41091 0.68097 0.0
C693 C 0.90002 0.4002 0.74598 0.0
C694 C 0.89975 0.43054 0.68569 0.0
C695 C 0.90059 0.43958 0.75715 0.0
C696 C 0.90167 0.42909 0.8229 0.0
C697 C 0.90149 0.4096 0.8165 0.0
C698 C 0.89871 0.44134 0.61426 0.0
C699 C 0.90251 0.4382 0.90014 0.0
H700 H 0.93108 0.51399 0.77106 0.0
H701 H 0.8624 0.47588 0.77746 0.0
H702 H 0.94244 0.47314 0.80562 0.0
H703 H 0.94135 0.47456 0.70555 0.0
H704 H 0.95323 0.49889 0.7603 0.0
H705 H 0.84404 0.43841 0.77258 0.0
H706 H 0.85731 0.4279 0.71528 0.0
H707 H 0.85853 0.42676 0.81545 0.0
H708 H 0.89789 0.40366 0.62629 0.0
H709 H 0.90238 0.40163 0.86695 0.0
H710 H 0.91204 0.45819 0.61272 0.0
H711 H 0.8835 0.44171 0.61276 0.0
H712 H 0.89959 0.43299 0.56303 0.0
H713 H 0.91627 0.45479 0.90399 0.0
H714 H 0.904 0.42842 0.94552 0.0
H715 H 0.88773 0.43902 0.91008 0.0
C716 C 0.47646 0.8794 0.24798 0.0
C717 C 0.49653 0.89821 0.25087 0.0
C718 C 0.45741 0.88011 0.25311 0.0
C719 C 0.45841 0.90013 0.2612 0.0
C720 C 0.47859 0.9192 0.26403 0.0
C721 C 0.49742 0.91801 0.25874 0.0
C722 C 0.4362 0.85942 0.24954 0.0
C723 C 0.48026 0.94082 0.27287 0.0
C724 C 0.40828 0.90179 0.20687 0.0
C725 C 0.39846 0.89959 0.277 0.0
C726 C 0.42806 0.9025 0.20102 0.0
C727 C 0.43825 0.90097 0.2669 0.0
C728 C 0.42865 0.8992 0.33799 0.0
C729 C 0.40886 0.8985 0.34218 0.0
C730 C 0.43784 0.90446 0.12422 0.0
C731 C 0.43899 0.89747 0.4095 0.0
H732 H 0.47564 0.86408 0.24048 0.0
H733 H 0.51288 0.93259 0.26161 0.0
H734 H 0.42679 0.85748 0.30133 0.0
H735 H 0.42665 0.85985 0.2013 0.0
H736 H 0.4382 0.84518 0.24343 0.0
H737 H 0.49716 0.95414 0.27353 0.0
H738 H 0.47172 0.94357 0.22614 0.0
H739 H 0.47241 0.94126 0.326 0.0
H740 H 0.40046 0.90291 0.1564 0.0
H741 H 0.40124 0.89649 0.39649 0.0
H742 H 0.43897 0.88995 0.11215 0.0
H743 H 0.45438 0.91839 0.12282 0.0
H744 H 0.42834 0.9064 0.07887 0.0
H745 H 0.4398 0.8825 0.40866 0.0
H746 H 0.43006 0.89739 0.46056 0.0
H747 H 0.45569 0.91104 0.41358 0.0
C748 C 0.49931 0.41806 0.77994 0.0
C749 C 0.50014 0.39908 0.7743 0.0
C750 C 0.51801 0.43817 0.77392 0.0
C751 C 0.538 0.43928 0.7628 0.0
C752 C 0.53893 0.42016 0.75762 0.0
C753 C 0.51998 0.40029 0.76314 0.0
C754 C 0.51637 0.45822 0.77897 0.0
C755 C 0.55997 0.42068 0.74664 0.0
C756 C 0.58515 0.48912 0.6794 0.0
C757 C 0.5974 0.49922 0.74362 0.0
C758 C 0.5655 0.46989 0.68504 0.0
C759 C 0.55801 0.4604 0.75652 0.0
C760 C 0.57009 0.47066 0.82167 0.0
C761 C 0.58958 0.48998 0.81447 0.0
C762 C 0.553 0.45947 0.6143 0.0
C763 C 0.56266 0.461 0.89887 0.0
H764 H 0.48396 0.41716 0.788 0.0
H765 H 0.52071 0.38566 0.75989 0.0
H766 H 0.52635 0.46839 0.82613 0.0
H767 H 0.52265 0.46776 0.72663 0.0
H768 H 0.49961 0.45459 0.78764 0.0
H769 H 0.55795 0.40436 0.74428 0.0
H770 H 0.56769 0.42922 0.69369 0.0
H771 H 0.57108 0.42965 0.79336 0.0
H772 H 0.59117 0.49591 0.62431 0.0
H773 H 0.59876 0.49784 0.86449 0.0
H774 H 0.53631 0.45626 0.61981 0.0
H775 H 0.55214 0.44382 0.60564 0.0
H776 H 0.56036 0.46956 0.56362 0.0
H777 H 0.54638 0.45836 0.91021 0.0
H778 H 0.57362 0.47129 0.94408 0.0
H779 H 0.56161 0.44511 0.90141 0.0
C780 C 0.13271 0.43346 0.65608 0.0
C781 C 0.1159 0.4262 0.60403 0.0
C782 C 0.12863 0.429 0.73318 0.0
C783 C 0.10717 0.41729 0.7591 0.0
C784 C 0.0901 0.41002 0.70678 0.0
C785 C 0.09468 0.4144 0.62982 0.0
C786 C 0.14729 0.4367 0.78685 0.0
C787 C 0.06701 0.39777 0.7321 0.0
C788 C 0.09658 0.38947 0.94923 0.0
C789 C 0.09542 0.40436 0.99696 0.0
C790 C 0.10033 0.39344 0.87175 0.0
C791 C 0.10266 0.41263 0.84096 0.0
C792 C 0.10118 0.42757 0.88874 0.0
C793 C 0.09776 0.42333 0.96623 0.0
C794 C 0.10217 0.37727 0.82306 0.0
C795 C 0.10323 0.44804 0.85798 0.0
H796 H 0.14911 0.44236 0.63619 0.0
H797 H 0.08164 0.40897 0.58984 0.0
H798 H 0.14661 0.44766 0.82912 0.0
H799 H 0.14632 0.42288 0.81792 0.0
H800 H 0.163 0.44525 0.75753 0.0
H801 H 0.05562 0.39379 0.68457 0.0
H802 H 0.06368 0.38265 0.76006 0.0
H803 H 0.06393 0.40733 0.77401 0.0
H804 H 0.09505 0.37492 0.97286 0.0
H805 H 0.09664 0.43475 1.00286 0.0
H806 H 0.1182 0.38488 0.79602 0.0
H807 H 0.09008 0.3717 0.77737 0.0
H808 H 0.09985 0.3631 0.8556 0.0
H809 H 0.1193 0.458 0.83236 0.0
H810 H 0.10096 0.45763 0.90213 0.0
H811 H 0.0912 0.4443 0.81296 0.0
C812 C 0.70742 0.10377 0.46519 0.0
C813 C 0.69063 0.09995 0.51437 0.0
C814 C 0.70606 0.10689 0.38778 0.0
C815 C 0.68735 0.106 0.35841 0.0
C816 C 0.6702 0.10183 0.40756 0.0
C817 C 0.6721 0.09898 0.48491 0.0
C818 C 0.72481 0.11153 0.33761 0.0
C819 C 0.64989 0.10051 0.37847 0.0
C820 C 0.69202 0.13487 0.17377 0.0
C821 C 0.68446 0.11808 0.12146 0.0
C822 C 0.69302 0.13115 0.25089 0.0
C823 C 0.68604 0.11005 0.27667 0.0
C824 C 0.67816 0.09298 0.22418 0.0
C825 C 0.67757 0.09722 0.14724 0.0
C826 C 0.7018 0.14986 0.3047 0.0
C827 C 0.6703 0.07021 0.24926 0.0
H828 H 0.72191 0.10485 0.48754 0.0
H829 H 0.65897 0.09579 0.5224 0.0
H830 H 0.71955 0.09952 0.29173 0.0
H831 H 0.73111 0.12749 0.31087 0.0
H832 H 0.73806 0.11134 0.36892 0.0
H833 H 0.63776 0.09646 0.42352 0.0
H834 H 0.65361 0.11606 0.35307 0.0
H835 H 0.64279 0.0882 0.3336 0.0
H836 H 0.69758 0.15104 0.1541 0.0
H837 H 0.67142 0.08413 0.10723 0.0
H838 H 0.71601 0.1513 0.33435 0.0
H839 H 0.68963 0.14713 0.34812 0.0
H840 H 0.70653 0.16526 0.27573 0.0
H841 H 0.68336 0.06917 0.27839 0.0
H842 H 0.66457 0.05875 0.20145 0.0
H843 H 0.65699 0.06521 0.29014 0.0
C844 C 0.58795 0.70504 0.63466 0.0
C845 C 0.568 0.68944 0.60651 0.0
C846 C 0.59273 0.70594 0.71175 0.0
C847 C 0.57735 0.69054 0.76151 0.0
C848 C 0.55731 0.67453 0.73299 0.0
C849 C 0.5528 0.67433 0.65604 0.0
C850 C 0.61411 0.7235 0.74009 0.0
C851 C 0.54067 0.6575 0.78365 0.0
C852 C 0.59641 0.68037 0.94862 0.0
C853 C 0.58985 0.69086 0.99931 0.0
C854 C 0.59247 0.68014 0.87111 0.0
C855 C 0.58215 0.6911 0.84341 0.0
C856 C 0.5759 0.70211 0.89432 0.0
C857 C 0.5796 0.70164 0.97175 0.0
C858 C 0.59896 0.6678 0.81907 0.0
C859 C 0.56527 0.71436 0.86699 0.0
H860 H 0.59964 0.7168 0.59645 0.0
H861 H 0.5375 0.66206 0.63416 0.0
H862 H 0.61162 0.73302 0.78385 0.0
H863 H 0.62307 0.71643 0.76673 0.0
H864 H 0.62413 0.73448 0.6944 0.0
H865 H 0.52612 0.64584 0.75231 0.0
H866 H 0.54755 0.64863 0.81237 0.0
H867 H 0.53582 0.66505 0.82799 0.0
H868 H 0.60416 0.67187 0.97006 0.0
H869 H 0.57476 0.70997 0.01081 0.0
H870 H 0.61009 0.67861 0.77528 0.0
H871 H 0.58461 0.65512 0.78967 0.0
H872 H 0.60688 0.66017 0.84949 0.0
H873 H 0.57545 0.72625 0.8238 0.0
H874 H 0.56232 0.72291 0.91333 0.0
H875 H 0.54972 0.70322 0.83999 0.0
C876 C 0.89552 0.57161 0.47397 0.0
C877 C 0.89792 0.59061 0.50459 0.0
C878 C 0.8921 0.56737 0.39649 0.0
C879 C 0.89067 0.58234 0.34866 0.0
C880 C 0.89304 0.60154 0.37937 0.0
C881 C 0.89679 0.60551 0.45682 0.0
C882 C 0.88999 0.54687 0.36583 0.0
C883 C 0.89125 0.61774 0.33062 0.0
C884 C 0.89867 0.58057 0.13754 0.0
C885 C 0.87745 0.56884 0.11178 0.0
C886 C 0.90324 0.58493 0.21449 0.0
C887 C 0.88616 0.57768 0.26684 0.0
C888 C 0.86471 0.56603 0.24096 0.0
C889 C 0.86063 0.56161 0.16387 0.0
C890 C 0.92633 0.59712 0.23977 0.0
C891 C 0.84604 0.55836 0.29467 0.0
H892 H 0.89661 0.56018 0.51065 0.0
H893 H 0.89835 0.62008 0.4804 0.0
H894 H 0.87392 0.53695 0.34026 0.0
H895 H 0.90202 0.55058 0.32078 0.0
H896 H 0.89223 0.53726 0.41002 0.0
H897 H 0.89359 0.63192 0.3631 0.0
H898 H 0.90334 0.62328 0.28489 0.0
H899 H 0.87522 0.61016 0.30363 0.0
H900 H 0.91172 0.58596 0.09755 0.0
H901 H 0.84423 0.55276 0.14402 0.0
H902 H 0.92944 0.58735 0.28066 0.0
H903 H 0.92962 0.61207 0.26896 0.0
H904 H 0.93773 0.6014 0.19206 0.0
H905 H 0.8467 0.54739 0.33698 0.0
H906 H 0.83033 0.54984 0.26539 0.0
H907 H 0.84703 0.57219 0.3257 0.0
C908 C 0.28995 0.88149 0.6388 0.0
C909 C 0.30606 0.87791 0.6107 0.0
C910 C 0.28882 0.88519 0.71589 0.0
C911 C 0.30449 0.88583 0.76566 0.0
C912 C 0.32102 0.8826 0.73717 0.0
C913 C 0.32146 0.87845 0.66022 0.0
C914 C 0.27071 0.88815 0.74422 0.0
C915 C 0.33835 0.88369 0.78787 0.0
C916 C 0.31344 0.91465 0.95301 0.0
C917 C 0.3034 0.89746 1.00347 0.0
C918 C 0.31392 0.91112 0.87549 0.0
C919 C 0.30367 0.88986 0.84757 0.0
C920 C 0.29311 0.87244 0.89824 0.0
C921 C 0.29333 0.87645 0.97569 0.0
C922 C 0.32577 0.93013 0.82368 0.0
C923 C 0.2816 0.84956 0.87063 0.0
H924 H 0.27798 0.88093 0.60055 0.0
H925 H 0.3341 0.876 0.63833 0.0
H926 H 0.26145 0.87592 0.78779 0.0
H927 H 0.27724 0.90409 0.7711 0.0
H928 H 0.2596 0.8868 0.69849 0.0
H929 H 0.35042 0.88143 0.75651 0.0
H930 H 0.34669 0.89944 0.81681 0.0
H931 H 0.33114 0.87117 0.83204 0.0
H932 H 0.3214 0.93088 0.97465 0.0
H933 H 0.28534 0.86317 0.01461 0.0
H934 H 0.31477 0.93002 0.77985 0.0
H935 H 0.33881 0.92908 0.79434 0.0
H936 H 0.33287 0.94563 0.85429 0.0
H937 H 0.26959 0.84741 0.82737 0.0
H938 H 0.27333 0.83789 0.91682 0.0
H939 H 0.2932 0.84577 0.84363 0.0
C940 C 0.41543 0.29496 0.4751 0.0
C941 C 0.40574 0.30626 0.50288 0.0
C942 C 0.41911 0.29449 0.39766 0.0
C943 C 0.41345 0.30603 0.34701 0.0
C944 C 0.40372 0.31754 0.37495 0.0
C945 C 0.39976 0.31729 0.45245 0.0
C946 C 0.42908 0.28164 0.37004 0.0
C947 C 0.3979 0.33046 0.3232 0.0
C948 C 0.44297 0.32229 0.15977 0.0
C949 C 0.42752 0.30755 0.11006 0.0
C950 C 0.4385 0.32213 0.23675 0.0
C951 C 0.41823 0.30655 0.2651 0.0
C952 C 0.40259 0.29153 0.21517 0.0
C953 C 0.40735 0.29237 0.13808 0.0
C954 C 0.45544 0.33875 0.28763 0.0
C955 C 0.38093 0.27443 0.24332 0.0
H956 H 0.41982 0.28622 0.51401 0.0
H957 H 0.39246 0.3262 0.47411 0.0
H958 H 0.41867 0.26999 0.32671 0.0
H959 H 0.44476 0.29244 0.34313 0.0
H960 H 0.43162 0.27275 0.41621 0.0
H961 H 0.39044 0.33852 0.35383 0.0
H962 H 0.41247 0.34286 0.29392 0.0
H963 H 0.38658 0.31996 0.27929 0.0
H964 H 0.45845 0.33425 0.13803 0.0
H965 H 0.39547 0.28088 0.09977 0.0
H966 H 0.45986 0.3308 0.33183 0.0
H967 H 0.44903 0.34802 0.31651 0.0
H968 H 0.47018 0.35011 0.25642 0.0
H969 H 0.38298 0.26456 0.2869 0.0
H970 H 0.37071 0.2637 0.1975 0.0
H971 H 0.37242 0.28195 0.27013 0.0
C972 C 0.60295 0.89439 0.55738 0.0
C973 C 0.58981 0.898 0.50838 0.0
C974 C 0.5985 0.8912 0.63481 0.0
C975 C 0.58056 0.89183 0.66438 0.0
C976 C 0.56741 0.89579 0.61541 0.0
C977 C 0.57212 0.89871 0.53803 0.0
C978 C 0.61279 0.88678 0.68479 0.0
C979 C 0.54828 0.89682 0.64472 0.0
C980 C 0.55657 0.86275 0.84895 0.0
C981 C 0.56565 0.87953 0.90131 0.0
C982 C 0.56129 0.86654 0.77184 0.0
C983 C 0.57523 0.88769 0.74612 0.0
C984 C 0.58428 0.90476 0.79869 0.0
C985 C 0.57947 0.90045 0.87562 0.0
C986 C 0.55152 0.84784 0.71794 0.0
C987 C 0.599 0.92757 0.77369 0.0
H988 H 0.61646 0.89352 0.53488 0.0
H989 H 0.56206 0.90174 0.50068 0.0
H990 H 0.61945 0.89879 0.73072 0.0
H991 H 0.60328 0.87079 0.71148 0.0
H992 H 0.62631 0.88717 0.65333 0.0
H993 H 0.54009 0.90076 0.59981 0.0
H994 H 0.53657 0.88121 0.67007 0.0
H995 H 0.55338 0.90909 0.68969 0.0
H996 H 0.54609 0.84654 0.86856 0.0
H997 H 0.58628 0.91353 0.91567 0.0
H998 H 0.5644 0.84661 0.68815 0.0
H999 H 0.54196 0.85042 0.67465 0.0
H1000 H 0.54099 0.83239 0.74688 0.0
H1001 H 0.61314 0.9288 0.74419 0.0
H1002 H 0.6047 0.93901 0.82158 0.0
H1003 H 0.59054 0.93247 0.73313 0.0
C1004 C 0.6792 0.58261 0.37807 0.0
C1005 C 0.68859 0.57082 0.40394 0.0
C1006 C 0.67909 0.58704 0.30112 0.0
C1007 C 0.68895 0.57981 0.24889 0.0
C1008 C 0.69868 0.56811 0.2749 0.0
C1009 C 0.69821 0.56361 0.35198 0.0
C1010 C 0.66827 0.59929 0.2757 0.0
C1011 C 0.7097 0.56046 0.22132 0.0
C1012 C 0.67362 0.57378 0.0417 0.0
C1013 C 0.69028 0.59276 0.01103 0.0
C1014 C 0.67275 0.56954 0.11919 0.0
C1015 C 0.68916 0.58449 0.16703 0.0
C1016 C 0.70605 0.60368 0.13631 0.0
C1017 C 0.70631 0.60765 0.05882 0.0
C1018 C 0.6543 0.54905 0.14986 0.0
C1019 C 0.72404 0.61986 0.18508 0.0
H1020 H 0.67153 0.588 0.41798 0.0
H1021 H 0.70569 0.55471 0.37193 0.0
H1022 H 0.68004 0.61433 0.24719 0.0
H1023 H 0.65554 0.58964 0.2342 0.0
H1024 H 0.66098 0.6034 0.32325 0.0
H1025 H 0.71686 0.55193 0.25072 0.0
H1026 H 0.69809 0.54949 0.17898 0.0
H1027 H 0.72258 0.5743 0.19034 0.0
H1028 H 0.66109 0.56236 1.00503 0.0
H1029 H 0.71937 0.62221 0.03523 0.0
H1030 H 0.64598 0.55277 0.19484 0.0
H1031 H 0.66041 0.5391 0.17553 0.0
H1032 H 0.64245 0.53945 0.10565 0.0
H1033 H 0.71749 0.6254 0.23075 0.0
H1034 H 0.73591 0.63404 0.15259 0.0
H1035 H 0.73246 0.61227 0.21215 0.0
C1036 C 0.11806 0.70082 0.5411 0.0
C1037 C 0.09705 0.69074 0.51325 0.0
C1038 C 0.12206 0.70101 0.61856 0.0
C1039 C 0.10463 0.69041 0.66918 0.0
C1040 C 0.08337 0.68015 0.64119 0.0
C1041 C 0.07985 0.68066 0.56366 0.0
C1042 C 0.14494 0.71253 0.64622 0.0
C1043 C 0.06435 0.66826 0.69294 0.0
C1044 C 0.1161 0.67265 0.85652 0.0
C1045 C 0.11663 0.68803 0.90606 0.0
C1046 C 0.11192 0.67307 0.77958 0.0
C1047 C 0.10865 0.68958 0.7511 0.0
C1048 C 0.10928 0.70524 0.8009 0.0
C1049 C 0.11301 0.70412 0.87798 0.0
C1050 C 0.11085 0.65576 0.72885 0.0
C1051 C 0.10628 0.72331 0.77261 0.0
H1052 H 0.13135 0.70884 0.50223 0.0
H1053 H 0.06362 0.67269 0.54198 0.0
H1054 H 0.14706 0.72453 0.68951 0.0
H1055 H 0.14874 0.70094 0.67321 0.0
H1056 H 0.15662 0.72082 0.60007 0.0
H1057 H 0.04885 0.66114 0.66229 0.0
H1058 H 0.06542 0.65522 0.72226 0.0
H1059 H 0.06442 0.67923 0.7368 0.0
H1060 H 0.11857 0.66002 0.87838 0.0
H1061 H 0.11357 0.71609 0.91622 0.0
H1062 H 0.12337 0.66299 0.68469 0.0
H1063 H 0.0951 0.64741 0.69991 0.0
H1064 H 0.11313 0.6437 0.7602 0.0
H1065 H 0.1185 0.7326 0.72907 0.0
H1066 H 0.10759 0.7344 0.81837 0.0
H1067 H 0.09033 0.71677 0.7457 0.0
C1068 C 0.41437 0.11994 0.03698 0.0
C1069 C 0.40422 0.09892 0.00932 0.0
C1070 C 0.41809 0.12408 0.11442 0.0
C1071 C 0.41195 0.1068 0.16519 0.0
C1072 C 0.40171 0.08553 0.1374 0.0
C1073 C 0.39776 0.08185 0.05989 0.0
C1074 C 0.42861 0.14695 0.14188 0.0
C1075 C 0.39535 0.06668 0.1893 0.0
C1076 C 0.44142 0.11938 0.35227 0.0
C1077 C 0.42621 0.11915 0.40203 0.0
C1078 C 0.43688 0.11514 0.27533 0.0
C1079 C 0.41679 0.11101 0.24706 0.0
C1080 C 0.4014 0.11089 0.29705 0.0
C1081 C 0.40621 0.11471 0.37412 0.0
C1082 C 0.45354 0.11491 0.22439 0.0
C1083 C 0.37995 0.10695 0.26898 0.0
H1084 H 0.41913 0.13313 0.99799 0.0
H1085 H 0.39011 0.06561 0.03837 0.0
H1086 H 0.41842 0.14855 0.18526 0.0
H1087 H 0.4442 0.15144 0.1687 0.0
H1088 H 0.43146 0.15846 0.09565 0.0
H1089 H 0.38748 0.05115 0.1588 0.0
H1090 H 0.40975 0.06842 0.21849 0.0
H1091 H 0.38422 0.06627 0.23326 0.0
H1092 H 0.45676 0.1225 0.37397 0.0
H1093 H 0.39451 0.11467 0.41252 0.0
H1094 H 0.45829 0.12733 0.18015 0.0
H1095 H 0.44672 0.09918 0.19557 0.0
H1096 H 0.46814 0.11787 0.25555 0.0
H1097 H 0.38236 0.11898 0.22536 0.0
H1098 H 0.36993 0.1078 0.31483 0.0
H1099 H 0.37105 0.09093 0.24223 0.0
C1100 C 0.29028 0.4082 0.87302 0.0
C1101 C 0.30734 0.42725 0.90146 0.0
C1102 C 0.28894 0.40334 0.79592 0.0
C1103 C 0.30537 0.41761 0.74655 0.0
C1104 C 0.32287 0.43666 0.77548 0.0
C1105 C 0.3235 0.44136 0.8524 0.0
C1106 C 0.26979 0.38311 0.7671 0.0
C1107 C 0.341 0.45202 0.72525 0.0
C1108 C 0.312 0.3962 0.55879 0.0
C1109 C 0.30319 0.4047 0.50856 0.0
C1110 C 0.31284 0.40028 0.63638 0.0
C1111 C 0.30422 0.41277 0.66455 0.0
C1112 C 0.29493 0.42105 0.6141 0.0
C1113 C 0.29475 0.41711 0.53661 0.0
C1114 C 0.32334 0.39158 0.68798 0.0
C1115 C 0.28516 0.43405 0.64196 0.0
H1116 H 0.27774 0.39739 0.91099 0.0
H1117 H 0.33684 0.45594 0.87466 0.0
H1118 H 0.26134 0.38717 0.72368 0.0
H1119 H 0.27512 0.37271 0.73991 0.0
H1120 H 0.25826 0.37385 0.81262 0.0
H1121 H 0.35382 0.46571 0.75703 0.0
H1122 H 0.34816 0.44348 0.69606 0.0
H1123 H 0.3348 0.45843 0.68127 0.0
H1124 H 0.31871 0.38678 0.53696 0.0
H1125 H 0.2877 0.42346 0.49788 0.0
H1126 H 0.31181 0.38117 0.73161 0.0
H1127 H 0.33704 0.405 0.7176 0.0
H1128 H 0.32928 0.38217 0.65716 0.0
H1129 H 0.27275 0.42484 0.68503 0.0
H1130 H 0.27773 0.43851 0.59587 0.0
H1131 H 0.29764 0.44894 0.66927 0.0
C1132 C 0.88294 0.29191 0.3857 0.0
C1133 C 0.87832 0.30734 0.41364 0.0
C1134 C 0.88686 0.291 0.30863 0.0
C1135 C 0.88663 0.30621 0.25862 0.0
C1136 C 0.8823 0.32203 0.28689 0.0
C1137 C 0.87799 0.32226 0.36384 0.0
C1138 C 0.89103 0.27365 0.2806 0.0
C1139 C 0.8824 0.33886 0.23595 0.0
C1140 C 0.91595 0.31667 0.07144 0.0
C1141 C 0.89892 0.30593 0.0208 0.0
C1142 C 0.91221 0.31688 0.14896 0.0
C1143 C 0.89092 0.30565 0.17672 0.0
C1144 C 0.87369 0.29438 0.12588 0.0
C1145 C 0.87788 0.29488 0.04844 0.0
C1146 C 0.93099 0.32949 0.20091 0.0
C1147 C 0.85081 0.28183 0.15328 0.0
H1148 H 0.88306 0.28028 0.42406 0.0
H1149 H 0.87476 0.33442 0.38549 0.0
H1150 H 0.87908 0.26396 0.23689 0.0
H1151 H 0.90709 0.28093 0.25399 0.0
H1152 H 0.89024 0.2628 0.32645 0.0
H1153 H 0.87926 0.35037 0.26707 0.0
H1154 H 0.89815 0.34791 0.20724 0.0
H1155 H 0.87003 0.33109 0.19161 0.0
H1156 H 0.93219 0.32538 0.04995 0.0
H1157 H 0.86474 0.28636 0.00942 0.0
H1158 H 0.9315 0.31883 0.24487 0.0
H1159 H 0.9291 0.34206 0.2301 0.0
H1160 H 0.94655 0.3373 0.17045 0.0
H1161 H 0.8493 0.27007 0.19663 0.0
H1162 H 0.83935 0.2731 0.10701 0.0
H1163 H 0.84616 0.2928 0.1801 0.0
C1164 C 0.15638 0.39511 0.31014 0.0
C1165 C 0.15362 0.41 0.26809 0.0
C1166 C 0.17518 0.3939 0.30319 0.0
C1167 C 0.19129 0.40761 0.25189 0.0
C1168 C 0.18814 0.42206 0.20717 0.0
C1169 C 0.16943 0.42323 0.2164 0.0
C1170 C 0.17814 0.37855 0.35268 0.0
C1171 C 0.20475 0.43666 0.15081 0.0
C1172 C 0.24959 0.42413 0.2836 0.0
C1173 C 0.25243 0.41093 0.23268 0.0
C1174 C 0.22954 0.42263 0.29232 0.0
C1175 C 0.21204 0.40787 0.24788 0.0
C1176 C 0.21474 0.39426 0.19713 0.0
C1177 C 0.2349 0.39581 0.19067 0.0
C1178 C 0.22722 0.43717 0.34803 0.0
C1179 C 0.19654 0.37858 0.14793 0.0
H1180 H 0.1442 0.38493 0.35038 0.0
H1181 H 0.16722 0.43462 0.1833 0.0
H1182 H 0.18203 0.36816 0.318 0.0
H1183 H 0.19184 0.38772 0.39135 0.0
H1184 H 0.16364 0.36821 0.38679 0.0
H1185 H 0.1991 0.44573 0.11635 0.0
H1186 H 0.21959 0.4483 0.18063 0.0
H1187 H 0.20904 0.42721 0.1126 0.0
H1188 H 0.26308 0.4357 0.3167 0.0
H1189 H 0.23711 0.38564 0.15102 0.0
H1190 H 0.21361 0.4276 0.38667 0.0
H1191 H 0.22362 0.44846 0.31772 0.0
H1192 H 0.24196 0.44663 0.38206 0.0
H1193 H 0.18237 0.36797 0.18286 0.0
H1194 H 0.20099 0.36847 0.11387 0.0
H1195 H 0.19165 0.38745 0.10923 0.0
C1196 C 0.83812 0.23693 0.71274 0.0
C1197 C 0.8415 0.25485 0.75447 0.0
C1198 C 0.81918 0.21711 0.72148 0.0
C1199 C 0.80357 0.21517 0.77427 0.0
C1200 C 0.80742 0.23302 0.81888 0.0
C1201 C 0.82624 0.25271 0.80785 0.0
C1202 C 0.81549 0.19853 0.67213 0.0
C1203 C 0.79137 0.2315 0.87681 0.0
C1204 C 0.74486 0.17421 0.74531 0.0
C1205 C 0.74189 0.15799 0.79566 0.0
C1206 C 0.76502 0.19259 0.7362 0.0
C1207 C 0.78257 0.19498 0.77957 0.0
C1208 C 0.77973 0.17855 0.83005 0.0
C1209 C 0.75942 0.16012 0.837 0.0
C1210 C 0.76748 0.20959 0.68088 0.0
C1211 C 0.79798 0.1807 0.87805 0.0
H1212 H 0.84988 0.23861 0.67123 0.0
H1213 H 0.82896 0.26651 0.84078 0.0
H1214 H 0.81138 0.18421 0.70696 0.0
H1215 H 0.80169 0.19426 0.63423 0.0
H1216 H 0.82974 0.20227 0.63719 0.0
H1217 H 0.79761 0.24629 0.91128 0.0
H1218 H 0.77649 0.2287 0.84832 0.0
H1219 H 0.78695 0.21769 0.91487 0.0
H1220 H 0.73138 0.17252 0.7127 0.0
H1221 H 0.75715 0.14761 0.87611 0.0
H1222 H 0.7807 0.21319 0.64094 0.0
H1223 H 0.77175 0.22465 0.7113 0.0
H1224 H 0.75258 0.20469 0.64824 0.0
H1225 H 0.81181 0.18372 0.84212 0.0
H1226 H 0.79332 0.16616 0.91258 0.0
H1227 H 0.80348 0.19466 0.91622 0.0
C1228 C 0.59836 0.83762 0.18538 0.0
C1229 C 0.58328 0.83998 0.22785 0.0
C1230 C 0.60005 0.81909 0.19199 0.0
C1231 C 0.58661 0.80281 0.24328 0.0
C1232 C 0.57185 0.80549 0.28799 0.0
C1233 C 0.57023 0.82395 0.27918 0.0
C1234 C 0.61573 0.81663 0.14259 0.0
C1235 C 0.55749 0.78868 0.34423 0.0
C1236 C 0.57131 0.74479 0.21452 0.0
C1237 C 0.58451 0.7424 0.26679 0.0
C1238 C 0.57255 0.76465 0.20393 0.0
C1239 C 0.58705 0.78244 0.24781 0.0
C1240 C 0.60082 0.78025 0.29939 0.0
C1241 C 0.59952 0.76024 0.30775 0.0
C1242 C 0.55787 0.76642 0.14735 0.0
C1243 C 0.61625 0.79877 0.34793 0.0
H1244 H 0.60843 0.84998 0.14551 0.0
H1245 H 0.5587 0.82584 0.31268 0.0
H1246 H 0.62649 0.8133 0.17743 0.0
H1247 H 0.60687 0.80274 0.10438 0.0
H1248 H 0.62567 0.83114 0.10801 0.0
H1249 H 0.54793 0.79386 0.37811 0.0
H1250 H 0.5463 0.77365 0.31441 0.0
H1251 H 0.56722 0.78491 0.383 0.0
H1252 H 0.55985 0.73104 0.18217 0.0
H1253 H 0.6097 0.75839 0.34838 0.0
H1254 H 0.56723 0.78013 0.10891 0.0
H1255 H 0.54613 0.7695 0.17701 0.0
H1256 H 0.54891 0.75162 0.11318 0.0
H1257 H 0.62642 0.81301 0.31263 0.0
H1258 H 0.62681 0.79484 0.38164 0.0
H1259 H 0.60714 0.80328 0.38696 0.0
C1260 C 0.8384 0.60185 0.81525 0.0
C1261 C 0.84028 0.58599 0.77612 0.0
C1262 C 0.81997 0.60369 0.80781 0.0
C1263 C 0.8033 0.58957 0.75912 0.0
C1264 C 0.80554 0.57408 0.71736 0.0
C1265 C 0.82392 0.57235 0.72691 0.0
C1266 C 0.81801 0.62019 0.85406 0.0
C1267 C 0.78827 0.55896 0.66392 0.0
C1268 C 0.7456 0.57488 0.79272 0.0
C1269 C 0.74277 0.58741 0.73877 0.0
C1270 C 0.76552 0.57616 0.80208 0.0
C1271 C 0.78288 0.58995 0.7551 0.0
C1272 C 0.78023 0.60299 0.70149 0.0
C1273 C 0.7602 0.60173 0.69452 0.0
C1274 C 0.76782 0.56232 0.86095 0.0
C1275 C 0.79826 0.6176 0.64955 0.0
H1276 H 0.85102 0.61238 0.85351 0.0
H1277 H 0.82543 0.5602 0.69601 0.0
H1278 H 0.81422 0.6303 0.81732 0.0
H1279 H 0.80458 0.61199 0.8946 0.0
H1280 H 0.8329 0.63075 0.88593 0.0
H1281 H 0.79321 0.54898 0.6314 0.0
H1282 H 0.77353 0.54815 0.69595 0.0
H1283 H 0.78411 0.56812 0.62382 0.0
H1284 H 0.73217 0.56395 0.82752 0.0
H1285 H 0.75798 0.61136 0.65254 0.0
H1286 H 0.78185 0.57224 0.89745 0.0
H1287 H 0.7707 0.5502 0.83321 0.0
H1288 H 0.75332 0.55383 0.89696 0.0
H1289 H 0.81285 0.6283 0.68243 0.0
H1290 H 0.794 0.62761 0.61409 0.0
H1291 H 0.80237 0.60786 0.61211 0.0
C1292 C 0.25005 0.82437 0.22448 0.0
C1293 C 0.25265 0.84027 0.2757 0.0
C1294 C 0.23013 0.80565 0.21558 0.0
C1295 C 0.21252 0.80258 0.26017 0.0
C1296 C 0.21497 0.81876 0.31113 0.0
C1297 C 0.235 0.83755 0.31774 0.0
C1298 C 0.22806 0.78897 0.15955 0.0
C1299 C 0.19666 0.8159 0.36048 0.0
C1300 C 0.15695 0.75932 0.19853 0.0
C1301 C 0.15431 0.74172 0.24062 0.0
C1302 C 0.1757 0.77939 0.20506 0.0
C1303 C 0.19192 0.78192 0.256 0.0
C1304 C 0.18892 0.76435 0.30062 0.0
C1305 C 0.17025 0.7444 0.2918 0.0
C1306 C 0.17847 0.79766 0.15568 0.0
C1307 C 0.20565 0.7665 0.35662 0.0
H1308 H 0.26364 0.82654 0.19139 0.0
H1309 H 0.23702 0.84979 0.35765 0.0
H1310 H 0.22469 0.77411 0.18961 0.0
H1311 H 0.2144 0.78477 0.12106 0.0
H1312 H 0.24283 0.79451 0.12539 0.0
H1313 H 0.20091 0.83037 0.39476 0.0
H1314 H 0.18245 0.81218 0.32564 0.0
H1315 H 0.19194 0.80211 0.39897 0.0
H1316 H 0.14467 0.75725 0.15865 0.0
H1317 H 0.16814 0.73084 0.32493 0.0
H1318 H 0.19227 0.80244 0.11721 0.0
H1319 H 0.18211 0.81185 0.19051 0.0
H1320 H 0.16398 0.79333 0.12138 0.0
H1321 H 0.22054 0.76995 0.32654 0.0
H1322 H 0.20018 0.75174 0.39076 0.0
H1323 H 0.20979 0.78014 0.39514 0.0
C1324 C 0.39464 0.23651 0.81495 0.0
C1325 C 0.4099 0.25403 0.77318 0.0
C1326 C 0.39288 0.21627 0.80811 0.0
C1327 C 0.40644 0.21349 0.75725 0.0
C1328 C 0.42121 0.23096 0.71261 0.0
C1329 C 0.42291 0.25107 0.72169 0.0
C1330 C 0.37716 0.19811 0.85741 0.0
C1331 C 0.43567 0.22856 0.65671 0.0
C1332 C 0.42231 0.17134 0.79006 0.0
C1333 C 0.40925 0.15545 0.73843 0.0
C1334 C 0.42086 0.1899 0.79897 0.0
C1335 C 0.40631 0.19281 0.754 0.0
C1336 C 0.39271 0.17657 0.70296 0.0
C1337 C 0.39421 0.15794 0.6963 0.0
C1338 C 0.43535 0.20665 0.85506 0.0
C1339 C 0.37723 0.17926 0.6533 0.0
H1340 H 0.38462 0.23881 0.85501 0.0
H1341 H 0.43458 0.26456 0.68873 0.0
H1342 H 0.36677 0.1838 0.82278 0.0
H1343 H 0.38603 0.19348 0.8971 0.0
H1344 H 0.36683 0.20249 0.89044 0.0
H1345 H 0.44497 0.2432 0.62199 0.0
H1346 H 0.44711 0.22518 0.687 0.0
H1347 H 0.42608 0.21481 0.61873 0.0
H1348 H 0.4338 0.16933 0.82328 0.0
H1349 H 0.38415 0.14568 0.65611 0.0
H1350 H 0.42581 0.21092 0.89289 0.0
H1351 H 0.44696 0.22146 0.82494 0.0
H1352 H 0.44447 0.20115 0.88994 0.0
H1353 H 0.36689 0.1833 0.68769 0.0
H1354 H 0.36684 0.1646 0.62008 0.0
H1355 H 0.3863 0.19278 0.61378 0.0
loop_
_geom_bond_atom_site_label_1
_geom_bond_atom_site_label_2
_geom_bond_distance
_geom_bond_site_symmetry_2
_ccdc_geom_bond_type
Co0 N4 2.148 . S
Co0 N10 2.128 . S
Co0 N20 2.194 . S
Co0 O25 2.351 . S
Co0 O26 2.155 . S
Co0 O27 2.096 . S
C1 N4 1.301 . S
C1 N5 1.328 . S
C1 H6 0.930 . S
C2 C3 1.333 . S
C2 N4 1.317 . S
C2 H7 0.930 . S
C3 C2 1.333 . S
C3 N5 1.350 . S
C3 H29 0.931 . S
N4 Co0 2.148 . S
N4 C1 1.301 . S
N4 C2 1.317 . S
N5 C1 1.328 . S
N5 C3 1.350 . S
H6 C1 0.930 . S
H7 C2 0.930 . S
C8 O9 1.224 . S
C8 O27 1.247 . S
O9 C8 1.224 . S
N10 Co0 2.128 . S
N10 C11 1.355 . S
N10 C13 1.311 . S
C11 N10 1.355 . S
C11 C12 1.363 . S
C11 H23 0.929 . S
C12 C11 1.363 . S
C12 N14 1.375 . S
C12 H30 0.931 . S
C13 N10 1.311 . S
C13 N14 1.347 . S
C13 H24 0.929 . S
N14 C12 1.375 . S
N14 C13 1.347 . S
C15 C18 1.365 . S
C15 N20 1.328 . S
C15 H21 0.929 . S
C16 C17 1.362 . S
C16 C19 1.378 . S
C16 H31 0.929 . S
C17 C16 1.362 . S
C17 C18 1.366 . S
C18 C15 1.365 . S
C18 C17 1.366 . S
C18 H32 0.930 . S
C19 C16 1.378 . S
C19 N20 1.315 . S
C19 H22 0.930 . S
N20 Co0 2.194 . S
N20 C15 1.328 . S
N20 C19 1.315 . S
H21 C15 0.929 . S
H22 C19 0.930 . S
H23 C11 0.929 . S
H24 C13 0.929 . S
O25 Co0 2.351 . S
O25 C28 1.244 . S
O26 Co0 2.155 . S
O26 C28 1.240 . S
O27 Co0 2.096 . S
O27 C8 1.247 . S
C28 O25 1.244 . S
C28 O26 1.240 . S
H29 C3 0.931 . S
H30 C12 0.931 . S
H31 C16 0.929 . S
H32 C18 0.930 . S
Co33 N37 2.148 . S
Co33 N43 2.128 . S
Co33 N53 2.194 . S
Co33 O58 2.351 . S
Co33 O59 2.155 . S
Co33 O60 2.096 . S
C34 N37 1.301 . S
C34 N38 1.328 . S
C34 H39 0.930 . S
C35 C36 1.333 . S
C35 N37 1.317 . S
C35 H40 0.930 . S
C36 C35 1.333 . S
C36 N38 1.350 . S
C36 H62 0.931 . S
N37 Co33 2.148 . S
N37 C34 1.301 . S
N37 C35 1.317 . S
N38 C34 1.328 . S
N38 C36 1.350 . S
H39 C34 0.930 . S
H40 C35 0.930 . S
C41 O42 1.224 . S
C41 O60 1.247 . S
O42 C41 1.224 . S
N43 Co33 2.128 . S
N43 C44 1.355 . S
N43 C46 1.308 1_556 S
C44 N43 1.355 . S
C44 C45 1.363 1_556 S
C44 H56 0.929 . S
C45 C44 1.363 1_554 S
C45 N47 1.375 . S
C45 H63 0.931 . S
C46 N43 1.308 1_554 S
C46 N47 1.350 . S
C46 H57 0.929 . S
N47 C45 1.375 . S
N47 C46 1.350 . S
C48 C51 1.365 . S
C48 N53 1.328 . S
C48 H54 0.929 . S
C49 C50 1.362 . S
C49 C52 1.378 . S
C49 H64 0.929 . S
C50 C49 1.362 . S
C50 C51 1.366 . S
C51 C48 1.365 . S
C51 C50 1.366 . S
C51 H65 0.930 . S
C52 C49 1.378 . S
C52 N53 1.315 . S
C52 H55 0.930 . S
N53 Co33 2.194 . S
N53 C48 1.328 . S
N53 C52 1.315 . S
H54 C48 0.929 . S
H55 C52 0.930 . S
H56 C44 0.929 . S
H57 C46 0.929 . S
O58 Co33 2.351 . S
O58 C61 1.244 . S
O59 Co33 2.155 . S
O59 C61 1.240 . S
O60 Co33 2.096 . S
O60 C41 1.247 . S
C61 O58 1.244 . S
C61 O59 1.240 . S
H62 C36 0.931 . S
H63 C45 0.931 . S
H64 C49 0.929 . S
H65 C51 0.930 . S
Co66 N70 2.148 . S
Co66 N76 2.128 . S
Co66 N86 2.194 . S
Co66 O91 2.351 . S
Co66 O92 2.155 . S
Co66 O93 2.096 . S
C67 N70 1.301 . S
C67 N71 1.328 . S
C67 H72 0.930 . S
C68 C69 1.333 . S
C68 N70 1.317 . S
C68 H73 0.930 . S
C69 C68 1.333 . S
C69 N71 1.350 . S
C69 H95 0.931 . S
N70 Co66 2.148 . S
N70 C67 1.301 . S
N70 C68 1.317 . S
N71 C67 1.328 . S
N71 C69 1.350 . S
H72 C67 0.930 . S
H73 C68 0.930 . S
C74 O75 1.224 . S
C74 O93 1.247 . S
O75 C74 1.224 . S
N76 Co66 2.128 . S
N76 C77 1.355 . S
N76 C79 1.311 . S
C77 N76 1.355 . S
C77 C78 1.363 . S
C77 H89 0.929 . S
C78 C77 1.363 . S
C78 N80 1.375 . S
C78 H96 0.931 . S
C79 N76 1.311 . S
C79 N80 1.347 . S
C79 H90 0.929 . S
N80 C78 1.375 . S
N80 C79 1.347 . S
C81 C84 1.365 . S
C81 N86 1.328 . S
C81 H87 0.929 . S
C82 C83 1.362 . S
C82 C85 1.378 . S
C82 H97 0.929 . S
C83 C82 1.362 . S
C83 C84 1.366 . S
C84 C81 1.365 . S
C84 C83 1.366 . S
C84 H98 0.930 . S
C85 C82 1.378 . S
C85 N86 1.315 . S
C85 H88 0.930 . S
N86 Co66 2.194 . S
N86 C81 1.328 . S
N86 C85 1.315 . S
H87 C81 0.929 . S
H88 C85 0.930 . S
H89 C77 0.929 . S
H90 C79 0.929 . S
O91 Co66 2.351 . S
O91 C94 1.244 . S
O92 Co66 2.155 . S
O92 C94 1.240 . S
O93 Co66 2.096 . S
O93 C74 1.247 . S
C94 O91 1.244 . S
C94 O92 1.240 . S
H95 C69 0.931 . S
H96 C78 0.931 . S
H97 C82 0.929 . S
H98 C84 0.930 . S
Co99 N103 2.148 . S
Co99 N109 2.128 . S
Co99 N119 2.194 . S
Co99 O124 2.351 . S
Co99 O125 2.155 . S
Co99 O126 2.096 . S
C100 N103 1.301 . S
C100 N104 1.328 . S
C100 H105 0.930 . S
C101 C102 1.333 . S
C101 N103 1.317 . S
C101 H106 0.930 . S
C102 C101 1.333 . S
C102 N104 1.350 . S
C102 H128 0.931 . S
N103 Co99 2.148 . S
N103 C100 1.301 . S
N103 C101 1.317 . S
N104 C100 1.328 . S
N104 C102 1.350 . S
H105 C100 0.930 . S
H106 C101 0.930 . S
C107 O108 1.224 . S
C107 O126 1.247 . S
O108 C107 1.224 . S
N109 Co99 2.128 . S
N109 C110 1.355 . S
N109 C112 1.308 1_556 S
C110 N109 1.355 . S
C110 C111 1.363 1_556 S
C110 H122 0.929 . S
C111 C110 1.363 1_554 S
C111 N113 1.375 . S
C111 H129 0.931 . S
C112 N109 1.308 1_554 S
C112 N113 1.350 . S
C112 H123 0.929 . S
N113 C111 1.375 . S
N113 C112 1.350 . S
C114 C117 1.365 . S
C114 N119 1.328 . S
C114 H120 0.929 . S
C115 C116 1.362 . S
C115 C118 1.378 . S
C115 H130 0.929 . S
C116 C115 1.362 . S
C116 C117 1.366 . S
C117 C114 1.365 . S
C117 C116 1.366 . S
C117 H131 0.930 . S
C118 C115 1.378 . S
C118 N119 1.315 . S
C118 H121 0.930 . S
N119 Co99 2.194 . S
N119 C114 1.328 . S
N119 C118 1.315 . S
H120 C114 0.929 . S
H121 C118 0.930 . S
H122 C110 0.929 . S
H123 C112 0.929 . S
O124 Co99 2.351 . S
O124 C127 1.244 . S
O125 Co99 2.155 . S
O125 C127 1.240 . S
O126 Co99 2.096 . S
O126 C107 1.247 . S
C127 O124 1.244 . S
C127 O125 1.240 . S
H128 C102 0.931 . S
H129 C111 0.931 . S
H130 C115 0.929 . S
H131 C117 0.930 . S
Co132 N136 2.148 . S
Co132 N142 2.128 . S
Co132 N152 2.194 . S
Co132 O157 2.351 . S
Co132 O158 2.155 . S
Co132 O159 2.096 . S
C133 N136 1.301 . S
C133 N137 1.328 . S
C133 H138 0.930 . S
C134 C135 1.333 . S
C134 N136 1.317 . S
C134 H139 0.930 . S
C135 C134 1.333 . S
C135 N137 1.350 . S
C135 H161 0.931 . S
N136 Co132 2.148 . S
N136 C133 1.301 . S
N136 C134 1.317 . S
N137 C133 1.328 . S
N137 C135 1.350 . S
H138 C133 0.930 . S
H139 C134 0.930 . S
C140 O141 1.224 . S
C140 O159 1.247 . S
O141 C140 1.224 . S
N142 Co132 2.128 . S
N142 C143 1.355 . S
N142 C145 1.311 . S
C143 N142 1.355 . S
C143 C144 1.363 . S
C143 H155 0.929 . S
C144 C143 1.363 . S
C144 N146 1.375 . S
C144 H162 0.931 . S
C145 N142 1.311 . S
C145 N146 1.347 . S
C145 H156 0.929 . S
N146 C144 1.375 . S
N146 C145 1.347 . S
C147 C150 1.365 . S
C147 N152 1.328 . S
C147 H153 0.929 . S
C148 C149 1.362 . S
C148 C151 1.378 . S
C148 H163 0.929 . S
C149 C148 1.362 . S
C149 C150 1.366 . S
C150 C147 1.365 . S
C150 C149 1.366 . S
C150 H164 0.930 . S
C151 C148 1.378 . S
C151 N152 1.315 . S
C151 H154 0.930 . S
N152 Co132 2.194 . S
N152 C147 1.328 . S
N152 C151 1.315 . S
H153 C147 0.929 . S
H154 C151 0.930 . S
H155 C143 0.929 . S
H156 C145 0.929 . S
O157 Co132 2.351 . S
O157 C160 1.244 . S
O158 Co132 2.155 . S
O158 C160 1.240 . S
O159 Co132 2.096 . S
O159 C140 1.247 . S
C160 O157 1.244 . S
C160 O158 1.240 . S
H161 C135 0.931 . S
H162 C144 0.931 . S
H163 C148 0.929 . S
H164 C150 0.930 . S
Co165 N169 2.148 . S
Co165 N175 2.128 . S
Co165 N185 2.194 . S
Co165 O190 2.351 . S
Co165 O191 2.155 . S
Co165 O192 2.096 . S
C166 N169 1.301 . S
C166 N170 1.328 . S
C166 H171 0.930 . S
C167 C168 1.333 . S
C167 N169 1.317 . S
C167 H172 0.930 . S
C168 C167 1.333 . S
C168 N170 1.350 . S
C168 H194 0.931 . S
N169 Co165 2.148 . S
N169 C166 1.301 . S
N169 C167 1.317 . S
N170 C166 1.328 . S
N170 C168 1.350 . S
H171 C166 0.930 . S
H172 C167 0.930 . S
C173 O174 1.224 . S
C173 O192 1.247 . S
O174 C173 1.224 . S
N175 Co165 2.128 . S
N175 C176 1.355 . S
N175 C178 1.308 1_556 S
C176 N175 1.355 . S
C176 C177 1.363 1_556 S
C176 H188 0.929 . S
C177 C176 1.363 1_554 S
C177 N179 1.375 . S
C177 H195 0.931 . S
C178 N175 1.308 1_554 S
C178 N179 1.350 . S
C178 H189 0.929 . S
N179 C177 1.375 . S
N179 C178 1.350 . S
C180 C183 1.365 . S
C180 N185 1.328 . S
C180 H186 0.929 . S
C181 C182 1.362 . S
C181 C184 1.378 . S
C181 H196 0.929 . S
C182 C181 1.362 . S
C182 C183 1.366 . S
C183 C180 1.365 . S
C183 C182 1.366 . S
C183 H197 0.930 . S
C184 C181 1.378 . S
C184 N185 1.315 . S
C184 H187 0.930 . S
N185 Co165 2.194 . S
N185 C180 1.328 . S
N185 C184 1.315 . S
H186 C180 0.929 . S
H187 C184 0.930 . S
H188 C176 0.929 . S
H189 C178 0.929 . S
O190 Co165 2.351 . S
O190 C193 1.244 . S
O191 Co165 2.155 . S
O191 C193 1.240 . S
O192 Co165 2.096 . S
O192 C173 1.247 . S
C193 O190 1.244 . S
C193 O191 1.240 . S
H194 C168 0.931 . S
H195 C177 0.931 . S
H196 C181 0.929 . S
H197 C183 0.930 . S
Co198 N202 2.148 . S
Co198 N208 2.128 . S
Co198 N218 2.194 . S
Co198 O223 2.351 . S
Co198 O224 2.155 . S
Co198 O225 2.096 . S
C199 N202 1.301 . S
C199 N203 1.328 . S
C199 H204 0.930 . S
C200 C201 1.333 . S
C200 N202 1.317 . S
C200 H205 0.930 . S
C201 C200 1.333 . S
C201 N203 1.350 . S
C201 H227 0.931 . S
N202 Co198 2.148 . S
N202 C199 1.301 . S
N202 C200 1.317 . S
N203 C199 1.328 . S
N203 C201 1.350 . S
H204 C199 0.930 . S
H205 C200 0.930 . S
C206 O207 1.224 . S
C206 O225 1.247 . S
O207 C206 1.224 . S
N208 Co198 2.128 . S
N208 C209 1.355 . S
N208 C211 1.308 1_554 S
C209 N208 1.355 . S
C209 C210 1.363 1_554 S
C209 H221 0.929 . S
C210 C209 1.363 1_556 S
C210 N212 1.375 . S
C210 H228 0.931 . S
C211 N208 1.308 1_556 S
C211 N212 1.350 . S
C211 H222 0.929 . S
N212 C210 1.375 . S
N212 C211 1.350 . S
C213 C216 1.365 . S
C213 N218 1.328 . S
C213 H219 0.929 . S
C214 C215 1.362 . S
C214 C217 1.378 . S
C214 H229 0.929 . S
C215 C214 1.362 . S
C215 C216 1.366 . S
C216 C213 1.365 . S
C216 C215 1.366 . S
C216 H230 0.930 . S
C217 C214 1.378 . S
C217 N218 1.315 . S
C217 H220 0.930 . S
N218 Co198 2.194 . S
N218 C213 1.328 . S
N218 C217 1.315 . S
H219 C213 0.929 . S
H220 C217 0.930 . S
H221 C209 0.929 . S
H222 C211 0.929 . S
O223 Co198 2.351 . S
O223 C226 1.244 . S
O224 Co198 2.155 . S
O224 C226 1.240 . S
O225 Co198 2.096 . S
O225 C206 1.247 . S
C226 O223 1.244 . S
C226 O224 1.240 . S
H227 C201 0.931 . S
H228 C210 0.931 . S
H229 C214 0.929 . S
H230 C216 0.930 . S
Co231 N235 2.148 . S
Co231 N241 2.128 . S
Co231 N251 2.194 . S
Co231 O256 2.351 . S
Co231 O257 2.155 . S
Co231 O258 2.096 . S
C232 N235 1.301 . S
C232 N236 1.328 . S
C232 H237 0.930 . S
C233 C234 1.333 . S
C233 N235 1.317 . S
C233 H238 0.930 . S
C234 C233 1.333 . S
C234 N236 1.350 . S
C234 H260 0.931 . S
N235 Co231 2.148 . S
N235 C232 1.301 . S
N235 C233 1.317 . S
N236 C232 1.328 . S
N236 C234 1.350 . S
H237 C232 0.930 . S
H238 C233 0.930 . S
C239 O240 1.224 . S
C239 O258 1.247 . S
O240 C239 1.224 . S
N241 Co231 2.128 . S
N241 C242 1.355 . S
N241 C244 1.311 . S
C242 N241 1.355 . S
C242 C243 1.363 . S
C242 H254 0.929 . S
C243 C242 1.363 . S
C243 N245 1.375 . S
C243 H261 0.931 . S
C244 N241 1.311 . S
C244 N245 1.347 . S
C244 H255 0.929 . S
N245 C243 1.375 . S
N245 C244 1.347 . S
C246 C249 1.365 . S
C246 N251 1.328 . S
C246 H252 0.929 . S
C247 C248 1.362 . S
C247 C250 1.378 . S
C247 H262 0.929 . S
C248 C247 1.362 . S
C248 C249 1.366 . S
C249 C246 1.365 . S
C249 C248 1.366 . S
C249 H263 0.930 . S
C250 C247 1.378 . S
C250 N251 1.315 . S
C250 H253 0.930 . S
N251 Co231 2.194 . S
N251 C246 1.328 . S
N251 C250 1.315 . S
H252 C246 0.929 . S
H253 C250 0.930 . S
H254 C242 0.929 . S
H255 C244 0.929 . S
O256 Co231 2.351 . S
O256 C259 1.244 . S
O257 Co231 2.155 . S
O257 C259 1.240 . S
O258 Co231 2.096 . S
O258 C239 1.247 . S
C259 O256 1.244 . S
C259 O257 1.240 . S
H260 C234 0.931 . S
H261 C243 0.931 . S
H262 C247 0.929 . S
H263 C249 0.930 . S
Co264 N268 2.148 . S
Co264 N274 2.128 . S
Co264 N284 2.194 . S
Co264 O289 2.351 . S
Co264 O290 2.155 . S
Co264 O291 2.096 . S
C265 N268 1.301 . S
C265 N269 1.328 . S
C265 H270 0.930 . S
C266 C267 1.333 . S
C266 N268 1.317 . S
C266 H271 0.930 . S
C267 C266 1.333 . S
C267 N269 1.350 . S
C267 H293 0.931 . S
N268 Co264 2.148 . S
N268 C265 1.301 . S
N268 C266 1.317 . S
N269 C265 1.328 . S
N269 C267 1.350 . S
H270 C265 0.930 . S
H271 C266 0.930 . S
C272 O273 1.224 . S
C272 O291 1.247 . S
O273 C272 1.224 . S
N274 Co264 2.128 . S
N274 C275 1.355 . S
N274 C277 1.308 1_554 S
C275 N274 1.355 . S
C275 C276 1.363 1_554 S
C275 H287 0.929 . S
C276 C275 1.363 1_556 S
C276 N278 1.375 . S
C276 H294 0.931 . S
C277 N274 1.308 1_556 S
C277 N278 1.350 . S
C277 H288 0.929 . S
N278 C276 1.375 . S
N278 C277 1.350 . S
C279 C282 1.365 . S
C279 N284 1.328 . S
C279 H285 0.929 . S
C280 C281 1.362 . S
C280 C283 1.378 . S
C280 H295 0.929 . S
C281 C280 1.362 . S
C281 C282 1.366 . S
C282 C279 1.365 . S
C282 C281 1.366 . S
C282 H296 0.930 . S
C283 C280 1.378 . S
C283 N284 1.315 . S
C283 H286 0.930 . S
N284 Co264 2.194 . S
N284 C279 1.328 . S
N284 C283 1.315 . S
H285 C279 0.929 . S
H286 C283 0.930 . S
H287 C275 0.929 . S
H288 C277 0.929 . S
O289 Co264 2.351 . S
O289 C292 1.244 . S
O290 Co264 2.155 . S
O290 C292 1.240 . S
O291 Co264 2.096 . S
O291 C272 1.247 . S
C292 O289 1.244 . S
C292 O290 1.240 . S
H293 C267 0.931 . S
H294 C276 0.931 . S
H295 C280 0.929 . S
H296 C282 0.930 . S
Co297 N301 2.148 . S
Co297 N307 2.128 . S
Co297 N317 2.194 . S
Co297 O322 2.351 . S
Co297 O323 2.155 . S
Co297 O324 2.096 . S
C298 N301 1.301 . S
C298 N302 1.328 . S
C298 H303 0.930 . S
C299 C300 1.333 . S
C299 N301 1.317 . S
C299 H304 0.930 . S
C300 C299 1.333 . S
C300 N302 1.350 . S
C300 H326 0.931 . S
N301 Co297 2.148 . S
N301 C298 1.301 . S
N301 C299 1.317 . S
N302 C298 1.328 . S
N302 C300 1.350 . S
H303 C298 0.930 . S
H304 C299 0.930 . S
C305 O306 1.224 . S
C305 O324 1.247 . S
O306 C305 1.224 . S
N307 Co297 2.128 . S
N307 C308 1.355 . S
N307 C310 1.311 . S
C308 N307 1.355 . S
C308 C309 1.363 . S
C308 H320 0.929 . S
C309 C308 1.363 . S
C309 N311 1.375 . S
C309 H327 0.931 . S
C310 N307 1.311 . S
C310 N311 1.347 . S
C310 H321 0.929 . S
N311 C309 1.375 . S
N311 C310 1.347 . S
C312 C315 1.365 . S
C312 N317 1.328 . S
C312 H318 0.929 . S
C313 C314 1.362 . S
C313 C316 1.378 . S
C313 H328 0.929 . S
C314 C313 1.362 . S
C314 C315 1.366 . S
C315 C312 1.365 . S
C315 C314 1.366 . S
C315 H329 0.930 . S
C316 C313 1.378 . S
C316 N317 1.315 . S
C316 H319 0.930 . S
N317 Co297 2.194 . S
N317 C312 1.328 . S
N317 C316 1.315 . S
H318 C312 0.929 . S
H319 C316 0.930 . S
H320 C308 0.929 . S
H321 C310 0.929 . S
O322 Co297 2.351 . S
O322 C325 1.244 . S
O323 Co297 2.155 . S
O323 C325 1.240 . S
O324 Co297 2.096 . S
O324 C305 1.247 . S
C325 O322 1.244 . S
C325 O323 1.240 . S
H326 C300 0.931 . S
H327 C309 0.931 . S
H328 C313 0.929 . S
H329 C315 0.930 . S
Co330 N334 2.148 . S
Co330 N340 2.128 . S
Co330 N350 2.194 . S
Co330 O355 2.351 . S
Co330 O356 2.155 . S
Co330 O357 2.096 . S
C331 N334 1.301 . S
C331 N335 1.328 . S
C331 H336 0.930 . S
C332 C333 1.333 . S
C332 N334 1.317 . S
C332 H337 0.930 . S
C333 C332 1.333 . S
C333 N335 1.350 . S
C333 H359 0.931 . S
N334 Co330 2.148 . S
N334 C331 1.301 . S
N334 C332 1.317 . S
N335 C331 1.328 . S
N335 C333 1.350 . S
H336 C331 0.930 . S
H337 C332 0.930 . S
C338 O339 1.224 . S
C338 O357 1.247 . S
O339 C338 1.224 . S
N340 Co330 2.128 . S
N340 C341 1.355 . S
N340 C343 1.308 1_554 S
C341 N340 1.355 . S
C341 C342 1.363 1_554 S
C341 H353 0.929 . S
C342 C341 1.363 1_556 S
C342 N344 1.375 . S
C342 H360 0.931 . S
C343 N340 1.308 1_556 S
C343 N344 1.350 . S
C343 H354 0.929 . S
N344 C342 1.375 . S
N344 C343 1.350 . S
C345 C348 1.365 . S
C345 N350 1.328 . S
C345 H351 0.929 . S
C346 C347 1.362 . S
C346 C349 1.378 . S
C346 H361 0.929 . S
C347 C346 1.362 . S
C347 C348 1.366 . S
C348 C345 1.365 . S
C348 C347 1.366 . S
C348 H362 0.930 . S
C349 C346 1.378 . S
C349 N350 1.315 . S
C349 H352 0.930 . S
N350 Co330 2.194 . S
N350 C345 1.328 . S
N350 C349 1.315 . S
H351 C345 0.929 . S
H352 C349 0.930 . S
H353 C341 0.929 . S
H354 C343 0.929 . S
O355 Co330 2.351 . S
O355 C358 1.244 . S
O356 Co330 2.155 . S
O356 C358 1.240 . S
O357 Co330 2.096 . S
O357 C338 1.247 . S
C358 O355 1.244 . S
C358 O356 1.240 . S
H359 C333 0.931 . S
H360 C342 0.931 . S
H361 C346 0.929 . S
H362 C348 0.930 . S
Co363 N367 2.148 . S
Co363 N373 2.128 . S
Co363 N383 2.194 . S
Co363 O388 2.351 . S
Co363 O389 2.155 . S
Co363 O390 2.096 . S
C364 N367 1.301 . S
C364 N368 1.328 . S
C364 H369 0.930 . S
C365 C366 1.333 . S
C365 N367 1.317 . S
C365 H370 0.930 . S
C366 C365 1.333 . S
C366 N368 1.350 . S
C366 H392 0.931 . S
N367 Co363 2.148 . S
N367 C364 1.301 . S
N367 C365 1.317 . S
N368 C364 1.328 . S
N368 C366 1.350 . S
H369 C364 0.930 . S
H370 C365 0.930 . S
C371 O372 1.224 . S
C371 O390 1.247 . S
O372 C371 1.224 . S
N373 Co363 2.128 . S
N373 C374 1.355 . S
N373 C376 1.311 . S
C374 N373 1.355 . S
C374 C375 1.363 . S
C374 H386 0.929 . S
C375 C374 1.363 . S
C375 N377 1.375 . S
C375 H393 0.931 . S
C376 N373 1.311 . S
C376 N377 1.347 . S
C376 H387 0.929 . S
N377 C375 1.375 . S
N377 C376 1.347 . S
C378 C381 1.365 . S
C378 N383 1.328 . S
C378 H384 0.929 . S
C379 C380 1.362 . S
C379 C382 1.378 . S
C379 H394 0.929 . S
C380 C379 1.362 . S
C380 C381 1.366 . S
C381 C378 1.365 . S
C381 C380 1.366 . S
C381 H395 0.930 . S
C382 C379 1.378 . S
C382 N383 1.315 . S
C382 H385 0.930 . S
N383 Co363 2.194 . S
N383 C378 1.328 . S
N383 C382 1.315 . S
H384 C378 0.929 . S
H385 C382 0.930 . S
H386 C374 0.929 . S
H387 C376 0.929 . S
O388 Co363 2.351 . S
O388 C391 1.244 . S
O389 Co363 2.155 . S
O389 C391 1.240 . S
O390 Co363 2.096 . S
O390 C371 1.247 . S
C391 O388 1.244 . S
C391 O389 1.240 . S
H392 C366 0.931 . S
H393 C375 0.931 . S
H394 C379 0.929 . S
H395 C381 0.930 . S
C396 C397 1.391 . S
C396 C398 1.394 . S
C396 H412 0.931 . S
C397 C396 1.391 . S
C397 C401 1.376 . S
C398 C396 1.394 . S
C398 C399 1.369 . S
C398 C402 1.531 . S
C399 C398 1.369 . S
C399 C400 1.410 . S
C399 C407 1.503 1_455 S
C400 C399 1.410 . S
C400 C401 1.392 . S
C400 C403 1.511 1_455 S
C401 C397 1.376 . S
C401 C400 1.392 . S
C401 H413 0.929 . S
C402 C398 1.531 . S
C402 H414 0.960 . S
C402 H415 0.962 . S
C402 H416 0.960 . S
C403 C400 1.511 1_655 S
C403 H417 0.961 . S
C403 H418 0.961 . S
C403 H419 0.961 . S
C404 C405 1.370 . S
C404 C406 1.363 . S
C404 H420 0.931 . S
C405 C404 1.370 . S
C405 C409 1.408 . S
C406 C404 1.363 . S
C406 C407 1.370 . S
C406 C410 1.524 . S
C407 C399 1.503 1_655 S
C407 C406 1.370 . S
C407 C408 1.403 . S
C408 C407 1.403 . S
C408 C409 1.404 . S
C408 C411 1.539 . S
C409 C405 1.408 . S
C409 C408 1.404 . S
C409 H421 0.930 . S
C410 C406 1.524 . S
C410 H422 0.956 1_655 S
C410 H423 0.961 . S
C410 H424 0.961 . S
C411 C408 1.539 . S
C411 H425 0.950 1_655 S
C411 H426 0.961 . S
C411 H427 0.988 . S
H412 C396 0.931 . S
H413 C401 0.929 . S
H414 C402 0.960 . S
H415 C402 0.962 . S
H416 C402 0.960 . S
H417 C403 0.961 . S
H418 C403 0.961 . S
H419 C403 0.961 . S
H420 C404 0.931 . S
H421 C409 0.930 . S
H422 C410 0.956 1_455 S
H423 C410 0.961 . S
H424 C410 0.961 . S
H425 C411 0.950 1_455 S
H426 C411 0.961 . S
H427 C411 0.988 . S
C428 C429 1.391 . S
C428 C430 1.394 . S
C428 H444 0.931 . S
C429 C428 1.391 . S
C429 C433 1.376 . S
C430 C428 1.394 . S
C430 C431 1.369 . S
C430 C434 1.531 1_545 S
C431 C430 1.369 . S
C431 C432 1.410 1_556 S
C431 C439 1.503 1_546 S
C432 C431 1.410 1_554 S
C432 C433 1.392 1_554 S
C432 C435 1.511 . S
C433 C429 1.376 . S
C433 C432 1.392 1_556 S
C433 H445 0.929 . S
C434 C430 1.531 1_565 S
C434 H446 0.960 . S
C434 H447 0.962 . S
C434 H448 0.960 1_565 S
C435 C432 1.511 . S
C435 H449 0.961 . S
C435 H450 0.961 . S
C435 H451 0.961 . S
C436 C437 1.370 . S
C436 C438 1.363 . S
C436 H452 0.931 . S
C437 C436 1.370 . S
C437 C441 1.408 . S
C438 C436 1.363 . S
C438 C439 1.370 . S
C438 C442 1.524 1_554 S
C439 C431 1.503 1_564 S
C439 C438 1.370 . S
C439 C440 1.403 . S
C440 C439 1.403 . S
C440 C441 1.404 . S
C440 C443 1.539 1_565 S
C441 C437 1.408 . S
C441 C440 1.404 . S
C441 H453 0.930 . S
C442 C438 1.524 1_556 S
C442 H454 0.956 . S
C442 H455 0.961 . S
C442 H456 0.961 . S
C443 C440 1.539 1_545 S
C443 H457 0.958 . S
C443 H458 0.961 . S
C443 H459 0.960 . S
H444 C428 0.931 . S
H445 C433 0.929 . S
H446 C434 0.960 . S
H447 C434 0.962 . S
H448 C434 0.960 1_545 S
H449 C435 0.961 . S
H450 C435 0.961 . S
H451 C435 0.961 . S
H452 C436 0.931 . S
H453 C441 0.930 . S
H454 C442 0.956 . S
H455 C442 0.961 . S
H456 C442 0.961 . S
H457 C443 0.958 . S
H458 C443 0.961 . S
H459 C443 0.960 . S
C460 C461 1.391 . S
C460 C462 1.394 . S
C460 H476 0.931 . S
C461 C460 1.391 . S
C461 C465 1.376 . S
C462 C460 1.394 . S
C462 C463 1.369 . S
C462 C466 1.531 . S
C463 C462 1.369 . S
C463 C464 1.410 . S
C463 C471 1.503 . S
C464 C463 1.410 . S
C464 C465 1.392 . S
C464 C467 1.511 . S
C465 C461 1.376 . S
C465 C464 1.392 . S
C465 H477 0.929 . S
C466 C462 1.531 . S
C466 H478 0.960 . S
C466 H479 0.962 . S
C466 H480 0.960 . S
C467 C464 1.511 . S
C467 H481 0.961 . S
C467 H482 0.961 . S
C467 H483 0.961 . S
C468 C469 1.370 . S
C468 C470 1.363 . S
C468 H484 0.931 . S
C469 C468 1.370 . S
C469 C473 1.408 . S
C470 C468 1.363 . S
C470 C471 1.370 . S
C470 C474 1.524 . S
C471 C463 1.503 . S
C471 C470 1.370 . S
C471 C472 1.403 . S
C472 C471 1.403 . S
C472 C473 1.404 . S
C472 C475 1.539 . S
C473 C469 1.408 . S
C473 C472 1.404 . S
C473 H485 0.930 . S
C474 C470 1.524 . S
C474 H486 0.956 . S
C474 H487 0.961 . S
C474 H488 0.961 . S
C475 C472 1.539 . S
C475 H489 0.958 . S
C475 H490 0.961 . S
C475 H491 0.960 . S
H476 C460 0.931 . S
H477 C465 0.929 . S
H478 C466 0.960 . S
H479 C466 0.962 . S
H480 C466 0.960 . S
H481 C467 0.961 . S
H482 C467 0.961 . S
H483 C467 0.961 . S
H484 C468 0.931 . S
H485 C473 0.930 . S
H486 C474 0.956 . S
H487 C474 0.961 . S
H488 C474 0.961 . S
H489 C475 0.958 . S
H490 C475 0.961 . S
H491 C475 0.960 . S
C492 C493 1.391 . S
C492 C494 1.394 . S
C492 H508 0.931 . S
C493 C492 1.391 . S
C493 C497 1.376 . S
C494 C492 1.394 . S
C494 C495 1.369 . S
C494 C498 1.531 1_455 S
C495 C494 1.369 . S
C495 C496 1.410 1_554 S
C495 C503 1.503 1_454 S
C496 C495 1.410 1_556 S
C496 C497 1.392 1_556 S
C496 C499 1.511 . S
C497 C493 1.376 . S
C497 C496 1.392 1_554 S
C497 H509 0.933 . S
C498 C494 1.531 1_655 S
C498 H510 0.960 . S
C498 H511 0.962 . S
C498 H512 0.960 . S
C499 C496 1.511 . S
C499 H513 0.961 . S
C499 H514 0.961 . S
C499 H515 0.961 . S
C500 C501 1.370 . S
C500 C502 1.363 . S
C500 H516 0.931 . S
C501 C500 1.370 . S
C501 C505 1.408 . S
C502 C500 1.363 . S
C502 C503 1.370 . S
C502 C506 1.524 . S
C503 C495 1.503 1_656 S
C503 C502 1.370 . S
C503 C504 1.403 . S
C504 C503 1.403 . S
C504 C505 1.404 . S
C504 C507 1.539 . S
C505 C501 1.408 . S
C505 C504 1.404 . S
C505 H517 0.930 . S
C506 C502 1.524 . S
C506 H518 0.956 1_556 S
C506 H519 0.961 1_655 S
C506 H520 0.961 . S
C507 C504 1.539 . S
C507 H521 0.958 1_556 S
C507 H522 0.961 . S
C507 H523 0.960 1_655 S
H508 C492 0.931 . S
H509 C497 0.933 . S
H510 C498 0.960 . S
H511 C498 0.962 . S
H512 C498 0.960 . S
H513 C499 0.961 . S
H514 C499 0.961 . S
H515 C499 0.961 . S
H516 C500 0.931 . S
H517 C505 0.930 . S
H518 C506 0.956 1_554 S
H519 C506 0.961 1_455 S
H520 C506 0.961 . S
H521 C507 0.958 1_554 S
H522 C507 0.961 . S
H523 C507 0.960 1_455 S
C524 C525 1.391 . S
C524 C526 1.394 . S
C524 H540 0.931 . S
C525 C524 1.391 . S
C525 C529 1.376 . S
C526 C524 1.394 . S
C526 C527 1.369 . S
C526 C530 1.531 . S
C527 C526 1.369 . S
C527 C528 1.410 . S
C527 C535 1.503 1_545 S
C528 C527 1.410 . S
C528 C529 1.392 . S
C528 C531 1.511 . S
C529 C525 1.376 . S
C529 C528 1.392 . S
C529 H541 0.929 . S
C530 C526 1.531 . S
C530 H542 0.960 . S
C530 H543 0.962 . S
C530 H544 0.960 . S
C531 C528 1.511 . S
C531 H545 0.961 . S
C531 H546 0.961 1_545 S
C531 H547 0.961 . S
C532 C533 1.370 . S
C532 C534 1.363 . S
C532 H548 0.931 . S
C533 C532 1.370 . S
C533 C537 1.408 . S
C534 C532 1.363 . S
C534 C535 1.370 . S
C534 C538 1.524 . S
C535 C527 1.503 1_565 S
C535 C534 1.370 . S
C535 C536 1.403 . S
C536 C535 1.403 . S
C536 C537 1.404 . S
C536 C539 1.539 1_565 S
C537 C533 1.408 . S
C537 C536 1.404 . S
C537 H549 0.930 . S
C538 C534 1.524 . S
C538 H550 0.956 . S
C538 H551 0.961 . S
C538 H552 0.961 . S
C539 C536 1.539 1_545 S
C539 H553 0.958 . S
C539 H554 0.961 . S
C539 H555 0.960 . S
H540 C524 0.931 . S
H541 C529 0.929 . S
H542 C530 0.960 . S
H543 C530 0.962 . S
H544 C530 0.960 . S
H545 C531 0.961 . S
H546 C531 0.961 1_565 S
H547 C531 0.961 . S
H548 C532 0.931 . S
H549 C537 0.930 . S
H550 C538 0.956 . S
H551 C538 0.961 . S
H552 C538 0.961 . S
H553 C539 0.958 . S
H554 C539 0.961 . S
H555 C539 0.960 . S
C556 C557 1.391 . S
C556 C558 1.394 . S
C556 H572 0.931 . S
C557 C556 1.391 . S
C557 C561 1.376 . S
C558 C556 1.394 . S
C558 C559 1.369 . S
C558 C562 1.531 . S
C559 C558 1.369 . S
C559 C560 1.410 . S
C559 C567 1.503 1_556 S
C560 C559 1.410 . S
C560 C561 1.392 . S
C560 C563 1.511 1_556 S
C561 C557 1.376 . S
C561 C560 1.392 . S
C561 H573 0.929 . S
C562 C558 1.531 . S
C562 H574 0.960 1_556 S
C562 H575 0.962 . S
C562 H576 0.960 . S
C563 C560 1.511 1_554 S
C563 H577 0.961 1_554 S
C563 H578 0.961 . S
C563 H579 0.961 . S
C564 C565 1.370 . S
C564 C566 1.363 1_554 S
C564 H580 0.931 . S
C565 C564 1.370 . S
C565 C569 1.408 . S
C566 C564 1.363 1_556 S
C566 C567 1.370 1_556 S
C566 C570 1.524 . S
C567 C559 1.503 1_554 S
C567 C566 1.370 1_554 S
C567 C568 1.403 . S
C568 C567 1.403 . S
C568 C569 1.404 . S
C568 C571 1.539 . S
C569 C565 1.408 . S
C569 C568 1.404 . S
C569 H581 0.930 . S
C570 C566 1.524 . S
C570 H582 0.956 . S
C570 H583 0.961 . S
C570 H584 0.961 . S
C571 C568 1.539 . S
C571 H585 0.958 . S
C571 H586 0.961 . S
C571 H587 0.960 . S
H572 C556 0.931 . S
H573 C561 0.929 . S
H574 C562 0.960 1_554 S
H575 C562 0.962 . S
H576 C562 0.960 . S
H577 C563 0.961 1_556 S
H578 C563 0.961 . S
H579 C563 0.961 . S
H580 C564 0.931 . S
H581 C569 0.930 . S
H582 C570 0.956 . S
H583 C570 0.961 . S
H584 C570 0.961 . S
H585 C571 0.958 . S
H586 C571 0.961 . S
H587 C571 0.960 . S
C588 C589 1.391 . S
C588 C590 1.394 . S
C588 H604 0.931 . S
C589 C588 1.391 . S
C589 C593 1.376 . S
C590 C588 1.394 . S
C590 C591 1.369 . S
C590 C594 1.531 . S
C591 C590 1.369 . S
C591 C592 1.410 . S
C591 C599 1.503 . S
C592 C591 1.410 . S
C592 C593 1.392 . S
C592 C595 1.511 . S
C593 C589 1.376 . S
C593 C592 1.392 . S
C593 H605 0.929 . S
C594 C590 1.531 . S
C594 H606 0.960 . S
C594 H607 0.962 . S
C594 H608 0.960 . S
C595 C592 1.511 . S
C595 H609 0.961 . S
C595 H610 0.961 . S
C595 H611 0.961 . S
C596 C597 1.370 . S
C596 C598 1.363 . S
C596 H612 0.931 . S
C597 C596 1.370 . S
C597 C601 1.408 . S
C598 C596 1.363 . S
C598 C599 1.370 . S
C598 C602 1.524 . S
C599 C591 1.503 . S
C599 C598 1.370 . S
C599 C600 1.403 . S
C600 C599 1.403 . S
C600 C601 1.404 . S
C600 C603 1.539 . S
C601 C597 1.408 . S
C601 C600 1.404 . S
C601 H613 0.930 . S
C602 C598 1.524 . S
C602 H614 0.956 . S
C602 H615 0.961 . S
C602 H616 0.961 . S
C603 C600 1.539 . S
C603 H617 0.958 . S
C603 H618 0.961 . S
C603 H619 0.960 . S
H604 C588 0.931 . S
H605 C593 0.929 . S
H606 C594 0.960 . S
H607 C594 0.962 . S
H608 C594 0.960 . S
H609 C595 0.961 . S
H610 C595 0.961 . S
H611 C595 0.961 . S
H612 C596 0.931 . S
H613 C601 0.930 . S
H614 C602 0.956 . S
H615 C602 0.961 . S
H616 C602 0.961 . S
H617 C603 0.958 . S
H618 C603 0.961 . S
H619 C603 0.960 . S
C620 C621 1.391 . S
C620 C622 1.394 . S
C620 H636 0.931 . S
C621 C620 1.391 . S
C621 C625 1.376 . S
C622 C620 1.394 . S
C622 C623 1.369 . S
C622 C626 1.531 . S
C623 C622 1.369 . S
C623 C624 1.410 . S
C623 C631 1.503 . S
C624 C623 1.410 . S
C624 C625 1.392 . S
C624 C627 1.511 . S
C625 C621 1.376 . S
C625 C624 1.392 . S
C625 H637 0.929 . S
C626 C622 1.531 . S
C626 H638 0.960 . S
C626 H639 0.962 . S
C626 H640 0.960 . S
C627 C624 1.511 . S
C627 H641 0.961 . S
C627 H642 0.961 . S
C627 H643 0.961 . S
C628 C629 1.370 . S
C628 C630 1.363 . S
C628 H644 0.931 . S
C629 C628 1.370 . S
C629 C633 1.408 . S
C630 C628 1.363 . S
C630 C631 1.370 . S
C630 C634 1.524 . S
C631 C623 1.503 . S
C631 C630 1.370 . S
C631 C632 1.403 . S
C632 C631 1.403 . S
C632 C633 1.404 . S
C632 C635 1.539 . S
C633 C629 1.408 . S
C633 C632 1.404 . S
C633 H645 0.930 . S
C634 C630 1.524 . S
C634 H646 0.956 . S
C634 H647 0.961 . S
C634 H648 0.961 . S
C635 C632 1.539 . S
C635 H649 0.958 . S
C635 H650 0.961 . S
C635 H651 0.960 . S
H636 C620 0.931 . S
H637 C625 0.929 . S
H638 C626 0.960 . S
H639 C626 0.962 . S
H640 C626 0.960 . S
H641 C627 0.961 . S
H642 C627 0.961 . S
H643 C627 0.961 . S
H644 C628 0.931 . S
H645 C633 0.930 . S
H646 C634 0.956 . S
H647 C634 0.961 . S
H648 C634 0.961 . S
H649 C635 0.958 . S
H650 C635 0.961 . S
H651 C635 0.960 . S
C652 C653 1.391 . S
C652 C654 1.394 . S
C652 H668 0.931 . S
C653 C652 1.391 . S
C653 C657 1.376 . S
C654 C652 1.394 . S
C654 C655 1.369 . S
C654 C658 1.531 . S
C655 C654 1.369 . S
C655 C656 1.410 . S
C655 C663 1.503 . S
C656 C655 1.410 . S
C656 C657 1.392 . S
C656 C659 1.511 . S
C657 C653 1.376 . S
C657 C656 1.392 . S
C657 H669 0.929 . S
C658 C654 1.531 . S
C658 H670 0.960 . S
C658 H671 0.962 . S
C658 H672 0.960 . S
C659 C656 1.511 . S
C659 H673 0.961 . S
C659 H674 0.961 . S
C659 H675 0.961 . S
C660 C661 1.370 . S
C660 C662 1.363 . S
C660 H676 0.931 . S
C661 C660 1.370 . S
C661 C665 1.408 . S
C662 C660 1.363 . S
C662 C663 1.370 . S
C662 C666 1.524 . S
C663 C655 1.503 . S
C663 C662 1.370 . S
C663 C664 1.403 . S
C664 C663 1.403 . S
C664 C665 1.404 . S
C664 C667 1.539 . S
C665 C661 1.408 . S
C665 C664 1.404 . S
C665 H677 0.930 . S
C666 C662 1.524 . S
C666 H678 0.956 . S
C666 H679 0.961 . S
C666 H680 0.961 . S
C667 C664 1.539 . S
C667 H681 0.958 . S
C667 H682 0.961 . S
C667 H683 0.960 . S
H668 C652 0.931 . S
H669 C657 0.929 . S
H670 C658 0.960 . S
H671 C658 0.962 . S
H672 C658 0.960 . S
H673 C659 0.961 . S
H674 C659 0.961 . S
H675 C659 0.961 . S
H676 C660 0.931 . S
H677 C665 0.930 . S
H678 C666 0.956 . S
H679 C666 0.961 . S
H680 C666 0.961 . S
H681 C667 0.958 . S
H682 C667 0.961 . S
H683 C667 0.960 . S
C684 C685 1.391 . S
C684 C686 1.394 . S
C684 H700 0.931 . S
C685 C684 1.391 . S
C685 C689 1.376 . S
C686 C684 1.394 . S
C686 C687 1.369 . S
C686 C690 1.531 . S
C687 C686 1.369 . S
C687 C688 1.410 . S
C687 C695 1.503 . S
C688 C687 1.410 . S
C688 C689 1.392 . S
C688 C691 1.511 . S
C689 C685 1.376 . S
C689 C688 1.392 . S
C689 H701 0.929 . S
C690 C686 1.531 . S
C690 H702 0.960 . S
C690 H703 0.962 . S
C690 H704 0.960 . S
C691 C688 1.511 . S
C691 H705 0.961 . S
C691 H706 0.961 . S
C691 H707 0.961 . S
C692 C693 1.370 . S
C692 C694 1.363 . S
C692 H708 0.931 . S
C693 C692 1.370 . S
C693 C697 1.408 . S
C694 C692 1.363 . S
C694 C695 1.370 . S
C694 C698 1.524 . S
C695 C687 1.503 . S
C695 C694 1.370 . S
C695 C696 1.403 . S
C696 C695 1.403 . S
C696 C697 1.404 . S
C696 C699 1.539 . S
C697 C693 1.408 . S
C697 C696 1.404 . S
C697 H709 0.930 . S
C698 C694 1.524 . S
C698 H710 0.956 . S
C698 H711 0.961 . S
C698 H712 0.961 . S
C699 C696 1.539 . S
C699 H713 0.958 . S
C699 H714 0.961 . S
C699 H715 0.960 . S
H700 C684 0.931 . S
H701 C689 0.929 . S
H702 C690 0.960 . S
H703 C690 0.962 . S
H704 C690 0.960 . S
H705 C691 0.961 . S
H706 C691 0.961 . S
H707 C691 0.961 . S
H708 C692 0.931 . S
H709 C697 0.930 . S
H710 C698 0.956 . S
H711 C698 0.961 . S
H712 C698 0.961 . S
H713 C699 0.958 . S
H714 C699 0.961 . S
H715 C699 0.960 . S
C716 C717 1.391 . S
C716 C718 1.394 . S
C716 H732 0.931 . S
C717 C716 1.391 . S
C717 C721 1.376 . S
C718 C716 1.394 . S
C718 C719 1.369 . S
C718 C722 1.531 . S
C719 C718 1.369 . S
C719 C720 1.410 . S
C719 C727 1.503 . S
C720 C719 1.410 . S
C720 C721 1.392 . S
C720 C723 1.511 . S
C721 C717 1.376 . S
C721 C720 1.392 . S
C721 H733 0.929 . S
C722 C718 1.531 . S
C722 H734 0.960 . S
C722 H735 0.962 . S
C722 H736 0.960 . S
C723 C720 1.511 . S
C723 H737 0.961 . S
C723 H738 0.961 . S
C723 H739 0.961 . S
C724 C725 1.370 . S
C724 C726 1.363 . S
C724 H740 0.931 . S
C725 C724 1.370 . S
C725 C729 1.408 . S
C726 C724 1.363 . S
C726 C727 1.370 . S
C726 C730 1.524 . S
C727 C719 1.503 . S
C727 C726 1.370 . S
C727 C728 1.403 . S
C728 C727 1.403 . S
C728 C729 1.404 . S
C728 C731 1.539 . S
C729 C725 1.408 . S
C729 C728 1.404 . S
C729 H741 0.930 . S
C730 C726 1.524 . S
C730 H742 0.956 . S
C730 H743 0.961 . S
C730 H744 0.961 . S
C731 C728 1.539 . S
C731 H745 0.958 . S
C731 H746 0.961 . S
C731 H747 0.960 . S
H732 C716 0.931 . S
H733 C721 0.929 . S
H734 C722 0.960 . S
H735 C722 0.962 . S
H736 C722 0.960 . S
H737 C723 0.961 . S
H738 C723 0.961 . S
H739 C723 0.961 . S
H740 C724 0.931 . S
H741 C729 0.930 . S
H742 C730 0.956 . S
H743 C730 0.961 . S
H744 C730 0.961 . S
H745 C731 0.958 . S
H746 C731 0.961 . S
H747 C731 0.960 . S
C748 C749 1.391 . S
C748 C750 1.394 . S
C748 H764 0.931 . S
C749 C748 1.391 . S
C749 C753 1.376 . S
C750 C748 1.394 . S
C750 C751 1.369 . S
C750 C754 1.531 . S
C751 C750 1.369 . S
C751 C752 1.410 . S
C751 C759 1.503 . S
C752 C751 1.410 . S
C752 C753 1.392 . S
C752 C755 1.511 . S
C753 C749 1.376 . S
C753 C752 1.392 . S
C753 H765 0.929 . S
C754 C750 1.531 . S
C754 H766 0.960 . S
C754 H767 0.962 . S
C754 H768 0.960 . S
C755 C752 1.511 . S
C755 H769 0.961 . S
C755 H770 0.961 . S
C755 H771 0.961 . S
C756 C757 1.370 . S
C756 C758 1.363 . S
C756 H772 0.931 . S
C757 C756 1.370 . S
C757 C761 1.408 . S
C758 C756 1.363 . S
C758 C759 1.370 . S
C758 C762 1.524 . S
C759 C751 1.503 . S
C759 C758 1.370 . S
C759 C760 1.403 . S
C760 C759 1.403 . S
C760 C761 1.404 . S
C760 C763 1.539 . S
C761 C757 1.408 . S
C761 C760 1.404 . S
C761 H773 0.930 . S
C762 C758 1.524 . S
C762 H774 0.956 . S
C762 H775 0.961 . S
C762 H776 0.961 . S
C763 C760 1.539 . S
C763 H777 0.958 . S
C763 H778 0.961 . S
C763 H779 0.960 . S
H764 C748 0.931 . S
H765 C753 0.929 . S
H766 C754 0.960 . S
H767 C754 0.962 . S
H768 C754 0.960 . S
H769 C755 0.961 . S
H770 C755 0.961 . S
H771 C755 0.961 . S
H772 C756 0.931 . S
H773 C761 0.930 . S
H774 C762 0.956 . S
H775 C762 0.961 . S
H776 C762 0.961 . S
H777 C763 0.958 . S
H778 C763 0.961 . S
H779 C763 0.960 . S
C780 C781 1.391 . S
C780 C782 1.394 . S
C780 H796 0.931 . S
C781 C780 1.391 . S
C781 C785 1.376 . S
C782 C780 1.394 . S
C782 C783 1.369 . S
C782 C786 1.531 . S
C783 C782 1.369 . S
C783 C784 1.410 . S
C783 C791 1.503 . S
C784 C783 1.410 . S
C784 C785 1.392 . S
C784 C787 1.511 . S
C785 C781 1.376 . S
C785 C784 1.392 . S
C785 H797 0.929 . S
C786 C782 1.531 . S
C786 H798 0.960 . S
C786 H799 0.962 . S
C786 H800 0.960 . S
C787 C784 1.511 . S
C787 H801 0.961 . S
C787 H802 0.961 . S
C787 H803 0.961 . S
C788 C789 1.370 1_556 S
C788 C790 1.363 . S
C788 H804 0.931 . S
C789 C788 1.370 1_554 S
C789 C793 1.408 1_554 S
C790 C788 1.363 . S
C790 C791 1.370 . S
C790 C794 1.524 . S
C791 C783 1.503 . S
C791 C790 1.370 . S
C791 C792 1.403 . S
C792 C791 1.403 . S
C792 C793 1.404 . S
C792 C795 1.539 . S
C793 C789 1.408 1_556 S
C793 C792 1.404 . S
C793 H805 0.930 1_556 S
C794 C790 1.524 . S
C794 H806 0.956 . S
C794 H807 0.961 . S
C794 H808 0.961 . S
C795 C792 1.539 . S
C795 H809 0.958 . S
C795 H810 0.961 . S
C795 H811 0.960 . S
H796 C780 0.931 . S
H797 C785 0.929 . S
H798 C786 0.960 . S
H799 C786 0.962 . S
H800 C786 0.960 . S
H801 C787 0.961 . S
H802 C787 0.961 . S
H803 C787 0.961 . S
H804 C788 0.931 . S
H805 C793 0.930 1_554 S
H806 C794 0.956 . S
H807 C794 0.961 . S
H808 C794 0.961 . S
H809 C795 0.958 . S
H810 C795 0.961 . S
H811 C795 0.960 . S
C812 C813 1.391 . S
C812 C814 1.394 . S
C812 H828 0.931 . S
C813 C812 1.391 . S
C813 C817 1.376 . S
C814 C812 1.394 . S
C814 C815 1.369 . S
C814 C818 1.531 . S
C815 C814 1.369 . S
C815 C816 1.410 . S
C815 C823 1.503 . S
C816 C815 1.410 . S
C816 C817 1.392 . S
C816 C819 1.511 . S
C817 C813 1.376 . S
C817 C816 1.392 . S
C817 H829 0.929 . S
C818 C814 1.531 . S
C818 H830 0.960 . S
C818 H831 0.962 . S
C818 H832 0.960 . S
C819 C816 1.511 . S
C819 H833 0.961 . S
C819 H834 0.961 . S
C819 H835 0.961 . S
C820 C821 1.370 . S
C820 C822 1.363 . S
C820 H836 0.931 . S
C821 C820 1.370 . S
C821 C825 1.408 . S
C822 C820 1.363 . S
C822 C823 1.370 . S
C822 C826 1.524 . S
C823 C815 1.503 . S
C823 C822 1.370 . S
C823 C824 1.403 . S
C824 C823 1.403 . S
C824 C825 1.404 . S
C824 C827 1.539 . S
C825 C821 1.408 . S
C825 C824 1.404 . S
C825 H837 0.930 . S
C826 C822 1.524 . S
C826 H838 0.956 . S
C826 H839 0.961 . S
C826 H840 0.961 . S
C827 C824 1.539 . S
C827 H841 0.958 . S
C827 H842 0.961 . S
C827 H843 0.960 . S
H828 C812 0.931 . S
H829 C817 0.929 . S
H830 C818 0.960 . S
H831 C818 0.962 . S
H832 C818 0.960 . S
H833 C819 0.961 . S
H834 C819 0.961 . S
H835 C819 0.961 . S
H836 C820 0.931 . S
H837 C825 0.930 . S
H838 C826 0.956 . S
H839 C826 0.961 . S
H840 C826 0.961 . S
H841 C827 0.958 . S
H842 C827 0.961 . S
H843 C827 0.960 . S
C844 C845 1.391 . S
C844 C846 1.394 . S
C844 H860 0.931 . S
C845 C844 1.391 . S
C845 C849 1.376 . S
C846 C844 1.394 . S
C846 C847 1.369 . S
C846 C850 1.531 . S
C847 C846 1.369 . S
C847 C848 1.410 . S
C847 C855 1.503 . S
C848 C847 1.410 . S
C848 C849 1.392 . S
C848 C851 1.511 . S
C849 C845 1.376 . S
C849 C848 1.392 . S
C849 H861 0.929 . S
C850 C846 1.531 . S
C850 H862 0.960 . S
C850 H863 0.962 . S
C850 H864 0.960 . S
C851 C848 1.511 . S
C851 H865 0.961 . S
C851 H866 0.961 . S
C851 H867 0.961 . S
C852 C853 1.370 1_556 S
C852 C854 1.363 . S
C852 H868 0.931 . S
C853 C852 1.370 1_554 S
C853 C857 1.408 1_554 S
C854 C852 1.363 . S
C854 C855 1.370 . S
C854 C858 1.524 . S
C855 C847 1.503 . S
C855 C854 1.370 . S
C855 C856 1.403 . S
C856 C855 1.403 . S
C856 C857 1.404 . S
C856 C859 1.539 . S
C857 C853 1.408 1_556 S
C857 C856 1.404 . S
C857 H869 0.930 1_556 S
C858 C854 1.524 . S
C858 H870 0.956 . S
C858 H871 0.961 . S
C858 H872 0.961 . S
C859 C856 1.539 . S
C859 H873 0.958 . S
C859 H874 0.961 . S
C859 H875 0.960 . S
H860 C844 0.931 . S
H861 C849 0.929 . S
H862 C850 0.960 . S
H863 C850 0.962 . S
H864 C850 0.960 . S
H865 C851 0.961 . S
H866 C851 0.961 . S
H867 C851 0.961 . S
H868 C852 0.931 . S
H869 C857 0.930 1_554 S
H870 C858 0.956 . S
H871 C858 0.961 . S
H872 C858 0.961 . S
H873 C859 0.958 . S
H874 C859 0.961 . S
H875 C859 0.960 . S
C876 C877 1.391 . S
C876 C878 1.394 . S
C876 H892 0.931 . S
C877 C876 1.391 . S
C877 C881 1.376 . S
C878 C876 1.394 . S
C878 C879 1.369 . S
C878 C882 1.531 . S
C879 C878 1.369 . S
C879 C880 1.410 . S
C879 C887 1.503 . S
C880 C879 1.410 . S
C880 C881 1.392 . S
C880 C883 1.511 . S
C881 C877 1.376 . S
C881 C880 1.392 . S
C881 H893 0.929 . S
C882 C878 1.531 . S
C882 H894 0.960 . S
C882 H895 0.962 . S
C882 H896 0.960 . S
C883 C880 1.511 . S
C883 H897 0.961 . S
C883 H898 0.961 . S
C883 H899 0.961 . S
C884 C885 1.370 . S
C884 C886 1.363 . S
C884 H900 0.931 . S
C885 C884 1.370 . S
C885 C889 1.408 . S
C886 C884 1.363 . S
C886 C887 1.370 . S
C886 C890 1.524 . S
C887 C879 1.503 . S
C887 C886 1.370 . S
C887 C888 1.403 . S
C888 C887 1.403 . S
C888 C889 1.404 . S
C888 C891 1.539 . S
C889 C885 1.408 . S
C889 C888 1.404 . S
C889 H901 0.930 . S
C890 C886 1.524 . S
C890 H902 0.956 . S
C890 H903 0.961 . S
C890 H904 0.961 . S
C891 C888 1.539 . S
C891 H905 0.958 . S
C891 H906 0.961 . S
C891 H907 0.960 . S
H892 C876 0.931 . S
H893 C881 0.929 . S
H894 C882 0.960 . S
H895 C882 0.962 . S
H896 C882 0.960 . S
H897 C883 0.961 . S
H898 C883 0.961 . S
H899 C883 0.961 . S
H900 C884 0.931 . S
H901 C889 0.930 . S
H902 C890 0.956 . S
H903 C890 0.961 . S
H904 C890 0.961 . S
H905 C891 0.958 . S
H906 C891 0.961 . S
H907 C891 0.960 . S
C908 C909 1.391 . S
C908 C910 1.394 . S
C908 H924 0.931 . S
C909 C908 1.391 . S
C909 C913 1.376 . S
C910 C908 1.394 . S
C910 C911 1.369 . S
C910 C914 1.531 . S
C911 C910 1.369 . S
C911 C912 1.410 . S
C911 C919 1.503 . S
C912 C911 1.410 . S
C912 C913 1.392 . S
C912 C915 1.511 . S
C913 C909 1.376 . S
C913 C912 1.392 . S
C913 H925 0.929 . S
C914 C910 1.531 . S
C914 H926 0.960 . S
C914 H927 0.962 . S
C914 H928 0.960 . S
C915 C912 1.511 . S
C915 H929 0.961 . S
C915 H930 0.961 . S
C915 H931 0.961 . S
C916 C917 1.370 1_556 S
C916 C918 1.363 . S
C916 H932 0.931 . S
C917 C916 1.370 1_554 S
C917 C921 1.408 1_554 S
C918 C916 1.363 . S
C918 C919 1.370 . S
C918 C922 1.524 . S
C919 C911 1.503 . S
C919 C918 1.370 . S
C919 C920 1.403 . S
C920 C919 1.403 . S
C920 C921 1.404 . S
C920 C923 1.539 . S
C921 C917 1.408 1_556 S
C921 C920 1.404 . S
C921 H933 0.930 1_556 S
C922 C918 1.524 . S
C922 H934 0.956 . S
C922 H935 0.961 . S
C922 H936 0.961 . S
C923 C920 1.539 . S
C923 H937 0.958 . S
C923 H938 0.961 . S
C923 H939 0.960 . S
H924 C908 0.931 . S
H925 C913 0.929 . S
H926 C914 0.960 . S
H927 C914 0.962 . S
H928 C914 0.960 . S
H929 C915 0.961 . S
H930 C915 0.961 . S
H931 C915 0.961 . S
H932 C916 0.931 . S
H933 C921 0.930 1_554 S
H934 C922 0.956 . S
H935 C922 0.961 . S
H936 C922 0.961 . S
H937 C923 0.958 . S
H938 C923 0.961 . S
H939 C923 0.960 . S
C940 C941 1.391 . S
C940 C942 1.394 . S
C940 H956 0.931 . S
C941 C940 1.391 . S
C941 C945 1.376 . S
C942 C940 1.394 . S
C942 C943 1.369 . S
C942 C946 1.531 . S
C943 C942 1.369 . S
C943 C944 1.410 . S
C943 C951 1.503 . S
C944 C943 1.410 . S
C944 C945 1.392 . S
C944 C947 1.511 . S
C945 C941 1.376 . S
C945 C944 1.392 . S
C945 H957 0.929 . S
C946 C942 1.531 . S
C946 H958 0.960 . S
C946 H959 0.962 . S
C946 H960 0.960 . S
C947 C944 1.511 . S
C947 H961 0.961 . S
C947 H962 0.961 . S
C947 H963 0.961 . S
C948 C949 1.370 . S
C948 C950 1.363 . S
C948 H964 0.931 . S
C949 C948 1.370 . S
C949 C953 1.408 . S
C950 C948 1.363 . S
C950 C951 1.370 . S
C950 C954 1.524 . S
C951 C943 1.503 . S
C951 C950 1.370 . S
C951 C952 1.403 . S
C952 C951 1.403 . S
C952 C953 1.404 . S
C952 C955 1.539 . S
C953 C949 1.408 . S
C953 C952 1.404 . S
C953 H965 0.930 . S
C954 C950 1.524 . S
C954 H966 0.956 . S
C954 H967 0.961 . S
C954 H968 0.961 . S
C955 C952 1.539 . S
C955 H969 0.958 . S
C955 H970 0.961 . S
C955 H971 0.960 . S
H956 C940 0.931 . S
H957 C945 0.929 . S
H958 C946 0.960 . S
H959 C946 0.962 . S
H960 C946 0.960 . S
H961 C947 0.961 . S
H962 C947 0.961 . S
H963 C947 0.961 . S
H964 C948 0.931 . S
H965 C953 0.930 . S
H966 C954 0.956 . S
H967 C954 0.961 . S
H968 C954 0.961 . S
H969 C955 0.958 . S
H970 C955 0.961 . S
H971 C955 0.960 . S
C972 C973 1.391 . S
C972 C974 1.394 . S
C972 H988 0.931 . S
C973 C972 1.391 . S
C973 C977 1.376 . S
C974 C972 1.394 . S
C974 C975 1.369 . S
C974 C978 1.531 . S
C975 C974 1.369 . S
C975 C976 1.410 . S
C975 C983 1.503 . S
C976 C975 1.410 . S
C976 C977 1.392 . S
C976 C979 1.511 . S
C977 C973 1.376 . S
C977 C976 1.392 . S
C977 H989 0.929 . S
C978 C974 1.531 . S
C978 H990 0.960 . S
C978 H991 0.962 . S
C978 H992 0.960 . S
C979 C976 1.511 . S
C979 H993 0.961 . S
C979 H994 0.961 . S
C979 H995 0.961 . S
C980 C981 1.370 . S
C980 C982 1.363 . S
C980 H996 0.931 . S
C981 C980 1.370 . S
C981 C985 1.408 . S
C982 C980 1.363 . S
C982 C983 1.370 . S
C982 C986 1.524 . S
C983 C975 1.503 . S
C983 C982 1.370 . S
C983 C984 1.403 . S
C984 C983 1.403 . S
C984 C985 1.404 . S
C984 C987 1.539 . S
C985 C981 1.408 . S
C985 C984 1.404 . S
C985 H997 0.930 . S
C986 C982 1.524 . S
C986 H998 0.956 . S
C986 H999 0.961 . S
C986 H1000 0.961 . S
C987 C984 1.539 . S
C987 H1001 0.958 . S
C987 H1002 0.961 . S
C987 H1003 0.960 . S
H988 C972 0.931 . S
H989 C977 0.929 . S
H990 C978 0.960 . S
H991 C978 0.962 . S
H992 C978 0.960 . S
H993 C979 0.961 . S
H994 C979 0.961 . S
H995 C979 0.961 . S
H996 C980 0.931 . S
H997 C985 0.930 . S
H998 C986 0.956 . S
H999 C986 0.961 . S
H1000 C986 0.961 . S
H1001 C987 0.958 . S
H1002 C987 0.961 . S
H1003 C987 0.960 . S
C1004 C1005 1.391 . S
C1004 C1006 1.394 . S
C1004 H1020 0.931 . S
C1005 C1004 1.391 . S
C1005 C1009 1.376 . S
C1006 C1004 1.394 . S
C1006 C1007 1.369 . S
C1006 C1010 1.531 . S
C1007 C1006 1.369 . S
C1007 C1008 1.410 . S
C1007 C1015 1.503 . S
C1008 C1007 1.410 . S
C1008 C1009 1.392 . S
C1008 C1011 1.511 . S
C1009 C1005 1.376 . S
C1009 C1008 1.392 . S
C1009 H1021 0.929 . S
C1010 C1006 1.531 . S
C1010 H1022 0.960 . S
C1010 H1023 0.962 . S
C1010 H1024 0.960 . S
C1011 C1008 1.511 . S
C1011 H1025 0.961 . S
C1011 H1026 0.961 . S
C1011 H1027 0.961 . S
C1012 C1013 1.370 1_554 S
C1012 C1014 1.363 . S
C1012 H1028 0.931 1_554 S
C1013 C1012 1.370 1_556 S
C1013 C1017 1.408 1_556 S
C1014 C1012 1.363 . S
C1014 C1015 1.370 . S
C1014 C1018 1.524 . S
C1015 C1007 1.503 . S
C1015 C1014 1.370 . S
C1015 C1016 1.403 . S
C1016 C1015 1.403 . S
C1016 C1017 1.404 . S
C1016 C1019 1.539 . S
C1017 C1013 1.408 1_554 S
C1017 C1016 1.404 . S
C1017 H1029 0.930 1_554 S
C1018 C1014 1.524 . S
C1018 H1030 0.956 . S
C1018 H1031 0.961 . S
C1018 H1032 0.961 . S
C1019 C1016 1.539 . S
C1019 H1033 0.958 . S
C1019 H1034 0.961 . S
C1019 H1035 0.960 . S
H1020 C1004 0.931 . S
H1021 C1009 0.929 . S
H1022 C1010 0.960 . S
H1023 C1010 0.962 . S
H1024 C1010 0.960 . S
H1025 C1011 0.961 . S
H1026 C1011 0.961 . S
H1027 C1011 0.961 . S
H1028 C1012 0.931 1_556 S
H1029 C1017 0.930 1_556 S
H1030 C1018 0.956 . S
H1031 C1018 0.961 . S
H1032 C1018 0.961 . S
H1033 C1019 0.958 . S
H1034 C1019 0.961 . S
H1035 C1019 0.960 . S
C1036 C1037 1.391 . S
C1036 C1038 1.394 . S
C1036 H1052 0.931 . S
C1037 C1036 1.391 . S
C1037 C1041 1.376 . S
C1038 C1036 1.394 . S
C1038 C1039 1.369 . S
C1038 C1042 1.531 . S
C1039 C1038 1.369 . S
C1039 C1040 1.410 . S
C1039 C1047 1.503 . S
C1040 C1039 1.410 . S
C1040 C1041 1.392 . S
C1040 C1043 1.511 . S
C1041 C1037 1.376 . S
C1041 C1040 1.392 . S
C1041 H1053 0.929 . S
C1042 C1038 1.531 . S
C1042 H1054 0.960 . S
C1042 H1055 0.962 . S
C1042 H1056 0.960 . S
C1043 C1040 1.511 . S
C1043 H1057 0.961 . S
C1043 H1058 0.961 . S
C1043 H1059 0.961 . S
C1044 C1045 1.370 . S
C1044 C1046 1.363 . S
C1044 H1060 0.931 . S
C1045 C1044 1.370 . S
C1045 C1049 1.408 . S
C1046 C1044 1.363 . S
C1046 C1047 1.370 . S
C1046 C1050 1.524 . S
C1047 C1039 1.503 . S
C1047 C1046 1.370 . S
C1047 C1048 1.403 . S
C1048 C1047 1.403 . S
C1048 C1049 1.404 . S
C1048 C1051 1.539 . S
C1049 C1045 1.408 . S
C1049 C1048 1.404 . S
C1049 H1061 0.930 . S
C1050 C1046 1.524 . S
C1050 H1062 0.956 . S
C1050 H1063 0.961 . S
C1050 H1064 0.961 . S
C1051 C1048 1.539 . S
C1051 H1065 0.958 . S
C1051 H1066 0.961 . S
C1051 H1067 0.960 . S
H1052 C1036 0.931 . S
H1053 C1041 0.929 . S
H1054 C1042 0.960 . S
H1055 C1042 0.962 . S
H1056 C1042 0.960 . S
H1057 C1043 0.961 . S
H1058 C1043 0.961 . S
H1059 C1043 0.961 . S
H1060 C1044 0.931 . S
H1061 C1049 0.930 . S
H1062 C1050 0.956 . S
H1063 C1050 0.961 . S
H1064 C1050 0.961 . S
H1065 C1051 0.958 . S
H1066 C1051 0.961 . S
H1067 C1051 0.960 . S
C1068 C1069 1.391 1_554 S
C1068 C1070 1.394 . S
C1068 H1084 0.931 1_554 S
C1069 C1068 1.391 1_556 S
C1069 C1073 1.376 1_556 S
C1070 C1068 1.394 . S
C1070 C1071 1.369 . S
C1070 C1074 1.531 . S
C1071 C1070 1.369 . S
C1071 C1072 1.410 . S
C1071 C1079 1.503 . S
C1072 C1071 1.410 . S
C1072 C1073 1.392 . S
C1072 C1075 1.511 . S
C1073 C1069 1.376 1_554 S
C1073 C1072 1.392 . S
C1073 H1085 0.929 . S
C1074 C1070 1.531 . S
C1074 H1086 0.960 . S
C1074 H1087 0.962 . S
C1074 H1088 0.960 . S
C1075 C1072 1.511 . S
C1075 H1089 0.961 . S
C1075 H1090 0.961 . S
C1075 H1091 0.961 . S
C1076 C1077 1.370 . S
C1076 C1078 1.363 . S
C1076 H1092 0.931 . S
C1077 C1076 1.370 . S
C1077 C1081 1.408 . S
C1078 C1076 1.363 . S
C1078 C1079 1.370 . S
C1078 C1082 1.524 . S
C1079 C1071 1.503 . S
C1079 C1078 1.370 . S
C1079 C1080 1.403 . S
C1080 C1079 1.403 . S
C1080 C1081 1.404 . S
C1080 C1083 1.539 . S
C1081 C1077 1.408 . S
C1081 C1080 1.404 . S
C1081 H1093 0.930 . S
C1082 C1078 1.524 . S
C1082 H1094 0.956 . S
C1082 H1095 0.961 . S
C1082 H1096 0.961 . S
C1083 C1080 1.539 . S
C1083 H1097 0.958 . S
C1083 H1098 0.961 . S
C1083 H1099 0.960 . S
H1084 C1068 0.931 1_556 S
H1085 C1073 0.929 . S
H1086 C1074 0.960 . S
H1087 C1074 0.962 . S
H1088 C1074 0.960 . S
H1089 C1075 0.961 . S
H1090 C1075 0.961 . S
H1091 C1075 0.961 . S
H1092 C1076 0.931 . S
H1093 C1081 0.930 . S
H1094 C1082 0.956 . S
H1095 C1082 0.961 . S
H1096 C1082 0.961 . S
H1097 C1083 0.958 . S
H1098 C1083 0.961 . S
H1099 C1083 0.960 . S
C1100 C1101 1.391 . S
C1100 C1102 1.394 . S
C1100 H1116 0.931 . S
C1101 C1100 1.391 . S
C1101 C1105 1.376 . S
C1102 C1100 1.394 . S
C1102 C1103 1.369 . S
C1102 C1106 1.531 . S
C1103 C1102 1.369 . S
C1103 C1104 1.410 . S
C1103 C1111 1.503 . S
C1104 C1103 1.410 . S
C1104 C1105 1.392 . S
C1104 C1107 1.511 . S
C1105 C1101 1.376 . S
C1105 C1104 1.392 . S
C1105 H1117 0.929 . S
C1106 C1102 1.531 . S
C1106 H1118 0.960 . S
C1106 H1119 0.962 . S
C1106 H1120 0.960 . S
C1107 C1104 1.511 . S
C1107 H1121 0.961 . S
C1107 H1122 0.961 . S
C1107 H1123 0.961 . S
C1108 C1109 1.370 . S
C1108 C1110 1.363 . S
C1108 H1124 0.931 . S
C1109 C1108 1.370 . S
C1109 C1113 1.408 . S
C1110 C1108 1.363 . S
C1110 C1111 1.370 . S
C1110 C1114 1.524 . S
C1111 C1103 1.503 . S
C1111 C1110 1.370 . S
C1111 C1112 1.403 . S
C1112 C1111 1.403 . S
C1112 C1113 1.404 . S
C1112 C1115 1.539 . S
C1113 C1109 1.408 . S
C1113 C1112 1.404 . S
C1113 H1125 0.930 . S
C1114 C1110 1.524 . S
C1114 H1126 0.956 . S
C1114 H1127 0.961 . S
C1114 H1128 0.961 . S
C1115 C1112 1.539 . S
C1115 H1129 0.958 . S
C1115 H1130 0.961 . S
C1115 H1131 0.960 . S
H1116 C1100 0.931 . S
H1117 C1105 0.929 . S
H1118 C1106 0.960 . S
H1119 C1106 0.962 . S
H1120 C1106 0.960 . S
H1121 C1107 0.961 . S
H1122 C1107 0.961 . S
H1123 C1107 0.961 . S
H1124 C1108 0.931 . S
H1125 C1113 0.930 . S
H1126 C1114 0.956 . S
H1127 C1114 0.961 . S
H1128 C1114 0.961 . S
H1129 C1115 0.958 . S
H1130 C1115 0.961 . S
H1131 C1115 0.960 . S
C1132 C1133 1.391 . S
C1132 C1134 1.394 . S
C1132 H1148 0.931 . S
C1133 C1132 1.391 . S
C1133 C1137 1.376 . S
C1134 C1132 1.394 . S
C1134 C1135 1.369 . S
C1134 C1138 1.531 . S
C1135 C1134 1.369 . S
C1135 C1136 1.410 . S
C1135 C1143 1.503 . S
C1136 C1135 1.410 . S
C1136 C1137 1.392 . S
C1136 C1139 1.511 . S
C1137 C1133 1.376 . S
C1137 C1136 1.392 . S
C1137 H1149 0.929 . S
C1138 C1134 1.531 . S
C1138 H1150 0.960 . S
C1138 H1151 0.962 . S
C1138 H1152 0.960 . S
C1139 C1136 1.511 . S
C1139 H1153 0.961 . S
C1139 H1154 0.961 . S
C1139 H1155 0.961 . S
C1140 C1141 1.370 1_554 S
C1140 C1142 1.363 . S
C1140 H1156 0.931 . S
C1141 C1140 1.370 1_556 S
C1141 C1145 1.408 1_556 S
C1142 C1140 1.363 . S
C1142 C1143 1.370 . S
C1142 C1146 1.524 . S
C1143 C1135 1.503 . S
C1143 C1142 1.370 . S
C1143 C1144 1.403 . S
C1144 C1143 1.403 . S
C1144 C1145 1.404 . S
C1144 C1147 1.539 . S
C1145 C1141 1.408 1_554 S
C1145 C1144 1.404 . S
C1145 H1157 0.930 1_554 S
C1146 C1142 1.524 . S
C1146 H1158 0.956 . S
C1146 H1159 0.961 . S
C1146 H1160 0.961 . S
C1147 C1144 1.539 . S
C1147 H1161 0.958 . S
C1147 H1162 0.961 . S
C1147 H1163 0.960 . S
H1148 C1132 0.931 . S
H1149 C1137 0.929 . S
H1150 C1138 0.960 . S
H1151 C1138 0.962 . S
H1152 C1138 0.960 . S
H1153 C1139 0.961 . S
H1154 C1139 0.961 . S
H1155 C1139 0.961 . S
H1156 C1140 0.931 . S
H1157 C1145 0.930 1_556 S
H1158 C1146 0.956 . S
H1159 C1146 0.961 . S
H1160 C1146 0.961 . S
H1161 C1147 0.958 . S
H1162 C1147 0.961 . S
H1163 C1147 0.960 . S
C1164 C1165 1.391 . S
C1164 C1166 1.394 . S
C1164 H1180 0.931 . S
C1165 C1164 1.391 . S
C1165 C1169 1.376 . S
C1166 C1164 1.394 . S
C1166 C1167 1.369 . S
C1166 C1170 1.531 . S
C1167 C1166 1.369 . S
C1167 C1168 1.410 . S
C1167 C1175 1.503 . S
C1168 C1167 1.410 . S
C1168 C1169 1.392 . S
C1168 C1171 1.511 . S
C1169 C1165 1.376 . S
C1169 C1168 1.392 . S
C1169 H1181 0.929 . S
C1170 C1166 1.531 . S
C1170 H1182 0.960 . S
C1170 H1183 0.962 . S
C1170 H1184 0.960 . S
C1171 C1168 1.511 . S
C1171 H1185 0.961 . S
C1171 H1186 0.961 . S
C1171 H1187 0.961 . S
C1172 C1173 1.370 . S
C1172 C1174 1.363 . S
C1172 H1188 0.931 . S
C1173 C1172 1.370 . S
C1173 C1177 1.408 . S
C1174 C1172 1.363 . S
C1174 C1175 1.370 . S
C1174 C1178 1.524 . S
C1175 C1167 1.503 . S
C1175 C1174 1.370 . S
C1175 C1176 1.403 . S
C1176 C1175 1.403 . S
C1176 C1177 1.404 . S
C1176 C1179 1.539 . S
C1177 C1173 1.408 . S
C1177 C1176 1.404 . S
C1177 H1189 0.930 . S
C1178 C1174 1.524 . S
C1178 H1190 0.956 . S
C1178 H1191 0.961 . S
C1178 H1192 0.961 . S
C1179 C1176 1.539 . S
C1179 H1193 0.958 . S
C1179 H1194 0.961 . S
C1179 H1195 0.960 . S
H1180 C1164 0.931 . S
H1181 C1169 0.929 . S
H1182 C1170 0.960 . S
H1183 C1170 0.962 . S
H1184 C1170 0.960 . S
H1185 C1171 0.961 . S
H1186 C1171 0.961 . S
H1187 C1171 0.961 . S
H1188 C1172 0.931 . S
H1189 C1177 0.930 . S
H1190 C1178 0.956 . S
H1191 C1178 0.961 . S
H1192 C1178 0.961 . S
H1193 C1179 0.958 . S
H1194 C1179 0.961 . S
H1195 C1179 0.960 . S
C1196 C1197 1.391 . S
C1196 C1198 1.394 . S
C1196 H1212 0.931 . S
C1197 C1196 1.391 . S
C1197 C1201 1.376 . S
C1198 C1196 1.394 . S
C1198 C1199 1.369 . S
C1198 C1202 1.531 . S
C1199 C1198 1.369 . S
C1199 C1200 1.410 . S
C1199 C1207 1.503 . S
C1200 C1199 1.410 . S
C1200 C1201 1.392 . S
C1200 C1203 1.511 . S
C1201 C1197 1.376 . S
C1201 C1200 1.392 . S
C1201 H1213 0.929 . S
C1202 C1198 1.531 . S
C1202 H1214 0.960 . S
C1202 H1215 0.962 . S
C1202 H1216 0.960 . S
C1203 C1200 1.511 . S
C1203 H1217 0.961 . S
C1203 H1218 0.961 . S
C1203 H1219 0.961 . S
C1204 C1205 1.370 . S
C1204 C1206 1.363 . S
C1204 H1220 0.931 . S
C1205 C1204 1.370 . S
C1205 C1209 1.408 . S
C1206 C1204 1.363 . S
C1206 C1207 1.370 . S
C1206 C1210 1.524 . S
C1207 C1199 1.503 . S
C1207 C1206 1.370 . S
C1207 C1208 1.403 . S
C1208 C1207 1.403 . S
C1208 C1209 1.404 . S
C1208 C1211 1.539 . S
C1209 C1205 1.408 . S
C1209 C1208 1.404 . S
C1209 H1221 0.930 . S
C1210 C1206 1.524 . S
C1210 H1222 0.956 . S
C1210 H1223 0.961 . S
C1210 H1224 0.961 . S
C1211 C1208 1.539 . S
C1211 H1225 0.958 . S
C1211 H1226 0.961 . S
C1211 H1227 0.960 . S
H1212 C1196 0.931 . S
H1213 C1201 0.929 . S
H1214 C1202 0.960 . S
H1215 C1202 0.962 . S
H1216 C1202 0.960 . S
H1217 C1203 0.961 . S
H1218 C1203 0.961 . S
H1219 C1203 0.961 . S
H1220 C1204 0.931 . S
H1221 C1209 0.930 . S
H1222 C1210 0.956 . S
H1223 C1210 0.961 . S
H1224 C1210 0.961 . S
H1225 C1211 0.958 . S
H1226 C1211 0.961 . S
H1227 C1211 0.960 . S
C1228 C1229 1.391 . S
C1228 C1230 1.394 . S
C1228 H1244 0.931 . S
C1229 C1228 1.391 . S
C1229 C1233 1.376 . S
C1230 C1228 1.394 . S
C1230 C1231 1.369 . S
C1230 C1234 1.531 . S
C1231 C1230 1.369 . S
C1231 C1232 1.410 . S
C1231 C1239 1.503 . S
C1232 C1231 1.410 . S
C1232 C1233 1.392 . S
C1232 C1235 1.511 . S
C1233 C1229 1.376 . S
C1233 C1232 1.392 . S
C1233 H1245 0.929 . S
C1234 C1230 1.531 . S
C1234 H1246 0.960 . S
C1234 H1247 0.962 . S
C1234 H1248 0.960 . S
C1235 C1232 1.511 . S
C1235 H1249 0.961 . S
C1235 H1250 0.961 . S
C1235 H1251 0.961 . S
C1236 C1237 1.370 . S
C1236 C1238 1.363 . S
C1236 H1252 0.931 . S
C1237 C1236 1.370 . S
C1237 C1241 1.408 . S
C1238 C1236 1.363 . S
C1238 C1239 1.370 . S
C1238 C1242 1.524 . S
C1239 C1231 1.503 . S
C1239 C1238 1.370 . S
C1239 C1240 1.403 . S
C1240 C1239 1.403 . S
C1240 C1241 1.404 . S
C1240 C1243 1.539 . S
C1241 C1237 1.408 . S
C1241 C1240 1.404 . S
C1241 H1253 0.930 . S
C1242 C1238 1.524 . S
C1242 H1254 0.956 . S
C1242 H1255 0.961 . S
C1242 H1256 0.961 . S
C1243 C1240 1.539 . S
C1243 H1257 0.958 . S
C1243 H1258 0.961 . S
C1243 H1259 0.960 . S
H1244 C1228 0.931 . S
H1245 C1233 0.929 . S
H1246 C1234 0.960 . S
H1247 C1234 0.962 . S
H1248 C1234 0.960 . S
H1249 C1235 0.961 . S
H1250 C1235 0.961 . S
H1251 C1235 0.961 . S
H1252 C1236 0.931 . S
H1253 C1241 0.930 . S
H1254 C1242 0.956 . S
H1255 C1242 0.961 . S
H1256 C1242 0.961 . S
H1257 C1243 0.958 . S
H1258 C1243 0.961 . S
H1259 C1243 0.960 . S
C1260 C1261 1.391 . S
C1260 C1262 1.394 . S
C1260 H1276 0.931 . S
C1261 C1260 1.391 . S
C1261 C1265 1.376 . S
C1262 C1260 1.394 . S
C1262 C1263 1.369 . S
C1262 C1266 1.531 . S
C1263 C1262 1.369 . S
C1263 C1264 1.410 . S
C1263 C1271 1.503 . S
C1264 C1263 1.410 . S
C1264 C1265 1.392 . S
C1264 C1267 1.511 . S
C1265 C1261 1.376 . S
C1265 C1264 1.392 . S
C1265 H1277 0.929 . S
C1266 C1262 1.531 . S
C1266 H1278 0.960 . S
C1266 H1279 0.962 . S
C1266 H1280 0.960 . S
C1267 C1264 1.511 . S
C1267 H1281 0.961 . S
C1267 H1282 0.961 . S
C1267 H1283 0.961 . S
C1268 C1269 1.370 . S
C1268 C1270 1.363 . S
C1268 H1284 0.931 . S
C1269 C1268 1.370 . S
C1269 C1273 1.408 . S
C1270 C1268 1.363 . S
C1270 C1271 1.370 . S
C1270 C1274 1.524 . S
C1271 C1263 1.503 . S
C1271 C1270 1.370 . S
C1271 C1272 1.403 . S
C1272 C1271 1.403 . S
C1272 C1273 1.404 . S
C1272 C1275 1.539 . S
C1273 C1269 1.408 . S
C1273 C1272 1.404 . S
C1273 H1285 0.930 . S
C1274 C1270 1.524 . S
C1274 H1286 0.956 . S
C1274 H1287 0.961 . S
C1274 H1288 0.961 . S
C1275 C1272 1.539 . S
C1275 H1289 0.958 . S
C1275 H1290 0.961 . S
C1275 H1291 0.960 . S
H1276 C1260 0.931 . S
H1277 C1265 0.929 . S
H1278 C1266 0.960 . S
H1279 C1266 0.962 . S
H1280 C1266 0.960 . S
H1281 C1267 0.961 . S
H1282 C1267 0.961 . S
H1283 C1267 0.961 . S
H1284 C1268 0.931 . S
H1285 C1273 0.930 . S
H1286 C1274 0.956 . S
H1287 C1274 0.961 . S
H1288 C1274 0.961 . S
H1289 C1275 0.958 . S
H1290 C1275 0.961 . S
H1291 C1275 0.960 . S
C1292 C1293 1.391 . S
C1292 C1294 1.394 . S
C1292 H1308 0.931 . S
C1293 C1292 1.391 . S
C1293 C1297 1.376 . S
C1294 C1292 1.394 . S
C1294 C1295 1.369 . S
C1294 C1298 1.531 . S
C1295 C1294 1.369 . S
C1295 C1296 1.410 . S
C1295 C1303 1.503 . S
C1296 C1295 1.410 . S
C1296 C1297 1.392 . S
C1296 C1299 1.511 . S
C1297 C1293 1.376 . S
C1297 C1296 1.392 . S
C1297 H1309 0.929 . S
C1298 C1294 1.531 . S
C1298 H1310 0.960 . S
C1298 H1311 0.962 . S
C1298 H1312 0.960 . S
C1299 C1296 1.511 . S
C1299 H1313 0.961 . S
C1299 H1314 0.961 . S
C1299 H1315 0.961 . S
C1300 C1301 1.370 . S
C1300 C1302 1.363 . S
C1300 H1316 0.931 . S
C1301 C1300 1.370 . S
C1301 C1305 1.408 . S
C1302 C1300 1.363 . S
C1302 C1303 1.370 . S
C1302 C1306 1.524 . S
C1303 C1295 1.503 . S
C1303 C1302 1.370 . S
C1303 C1304 1.403 . S
C1304 C1303 1.403 . S
C1304 C1305 1.404 . S
C1304 C1307 1.539 . S
C1305 C1301 1.408 . S
C1305 C1304 1.404 . S
C1305 H1317 0.930 . S
C1306 C1302 1.524 . S
C1306 H1318 0.956 . S
C1306 H1319 0.961 . S
C1306 H1320 0.961 . S
C1307 C1304 1.539 . S
C1307 H1321 0.958 . S
C1307 H1322 0.961 . S
C1307 H1323 0.960 . S
H1308 C1292 0.931 . S
H1309 C1297 0.929 . S
H1310 C1298 0.960 . S
H1311 C1298 0.962 . S
H1312 C1298 0.960 . S
H1313 C1299 0.961 . S
H1314 C1299 0.961 . S
H1315 C1299 0.961 . S
H1316 C1300 0.931 . S
H1317 C1305 0.930 . S
H1318 C1306 0.956 . S
H1319 C1306 0.961 . S
H1320 C1306 0.961 . S
H1321 C1307 0.958 . S
H1322 C1307 0.961 . S
H1323 C1307 0.960 . S
C1324 C1325 1.391 . S
C1324 C1326 1.394 . S
C1324 H1340 0.931 . S
C1325 C1324 1.391 . S
C1325 C1329 1.376 . S
C1326 C1324 1.394 . S
C1326 C1327 1.369 . S
C1326 C1330 1.531 . S
C1327 C1326 1.369 . S
C1327 C1328 1.410 . S
C1327 C1335 1.503 . S
C1328 C1327 1.410 . S
C1328 C1329 1.392 . S
C1328 C1331 1.511 . S
C1329 C1325 1.376 . S
C1329 C1328 1.392 . S
C1329 H1341 0.929 . S
C1330 C1326 1.531 . S
C1330 H1342 0.960 . S
C1330 H1343 0.962 . S
C1330 H1344 0.960 . S
C1331 C1328 1.511 . S
C1331 H1345 0.961 . S
C1331 H1346 0.961 . S
C1331 H1347 0.961 . S
C1332 C1333 1.370 . S
C1332 C1334 1.363 . S
C1332 H1348 0.931 . S
C1333 C1332 1.370 . S
C1333 C1337 1.408 . S
C1334 C1332 1.363 . S
C1334 C1335 1.370 . S
C1334 C1338 1.524 . S
C1335 C1327 1.503 . S
C1335 C1334 1.370 . S
C1335 C1336 1.403 . S
C1336 C1335 1.403 . S
C1336 C1337 1.404 . S
C1336 C1339 1.539 . S
C1337 C1333 1.408 . S
C1337 C1336 1.404 . S
C1337 H1349 0.930 . S
C1338 C1334 1.524 . S
C1338 H1350 0.956 . S
C1338 H1351 0.961 . S
C1338 H1352 0.961 . S
C1339 C1336 1.539 . S
C1339 H1353 0.958 . S
C1339 H1354 0.961 . S
C1339 H1355 0.960 . S
H1340 C1324 0.931 . S
H1341 C1329 0.929 . S
H1342 C1330 0.960 . S
H1343 C1330 0.962 . S
H1344 C1330 0.960 . S
H1345 C1331 0.961 . S
H1346 C1331 0.961 . S
H1347 C1331 0.961 . S
H1348 C1332 0.931 . S
H1349 C1337 0.930 . S
H1350 C1338 0.956 . S
H1351 C1338 0.961 . S
H1352 C1338 0.961 . S
H1353 C1339 0.958 . S
H1354 C1339 0.961 . S
H1355 C1339 0.960 . S
C397 C8 1.125 . S
C405 C371 1.148 . S
C429 C41 1.167 . S
C437 C206 1.174 . S
C461 C239 1.147 . S
C469 C74 1.169 . S
C493 C272 1.189 . S
C501 C107 1.174 . S
C525 C305 1.141 . S
C533 C140 1.166 . S
C557 C173 1.147 . S
C565 C338 1.168 . S
C589 C281 1.614 . S
C597 C17 1.613 . S
C621 C314 1.617 . S
C629 C50 1.607 . S
C653 C83 1.594 . S
C661 C347 1.611 . S
C685 C116 1.616 . S
C693 C380 1.606 . S
C717 C215 1.602 . S
C725 C149 1.615 . S
C749 C182 1.618 . S
C757 C248 1.610 . S
C781 N14 1.345 . S
C789 N5 1.352 . S
C813 N38 1.334 . S
C821 N47 1.358 . S
C845 N80 1.333 . S
C853 N71 1.360 . S
C877 N104 1.365 . S
C885 N113 1.345 . S
C909 N146 1.334 . S
C917 N137 1.357 . S
C941 N170 1.349 . S
C949 N179 1.355 . S
C973 N203 1.336 . S
C981 N212 1.357 . S
C1005 N245 1.350 . S
C1013 N236 1.355 . S
C1037 N269 1.352 . S
C1045 N278 1.354 . S
C1069 N302 1.361 . S
C1077 N311 1.349 . S
C1101 N344 1.336 . S
C1109 N335 1.356 . S
C1133 N377 1.333 . S
C1141 N368 1.360 . S
C1165 C28 1.250 . S
C1173 C358 1.248 . S
C1197 C391 1.249 . S
C1205 C61 1.247 . S
C1229 C226 1.251 . S
C1237 C94 1.247 . S
C1261 C127 1.241 . S
C1269 C259 1.242 . S
C1293 C160 1.233 . S
C1301 C292 1.242 . S
C1325 C193 1.247 . S
C1333 C325 1.244 . S
