# Generated by pormake.
# Topology wjk, (5)-cn, num edge types: 1
# Building blocks:
#     Node 0, Type 0, BuildingBlock: XOMCOT_clean_sbu_0, # of connection points: 5
#     Node 1, Type 0, BuildingBlock: XOMCOT_clean_sbu_0, # of connection points: 5
#     Node 2, Type 0, BuildingBlock: XOMCOT_clean_sbu_0, # of connection points: 5
#     Node 3, Type 0, BuildingBlock: XOMCOT_clean_sbu_0, # of connection points: 5
#     Node 4, Type 0, BuildingBlock: XOMCOT_clean_sbu_0, # of connection points: 5
#     Node 5, Type 0, BuildingBlock: XOMCOT_clean_sbu_0, # of connection points: 5
#     Node 6, Type 0, BuildingBlock: XOMCOT_clean_sbu_0, # of connection points: 5
#     Node 7, Type 0, BuildingBlock: XOMCOT_clean_sbu_0, # of connection points: 5
#     Node 8, Type 0, BuildingBlock: XOMCOT_clean_sbu_0, # of connection points: 5
#     Node 9, Type 0, BuildingBlock: XOMCOT_clean_sbu_0, # of connection points: 5
#     Node 10, Type 0, BuildingBlock: XOMCOT_clean_sbu_0, # of connection points: 5
#     Node 11, Type 0, BuildingBlock: XOMCOT_clean_sbu_0, # of connection points: 5
#     Edge 12, Type (0, 0), BuildingBlock: TEMPAE_clean_linker_10, # of connection points: 2
#     Edge 13, Type (0, 0), BuildingBlock: TEMPAE_clean_linker_10, # of connection points: 2
#     Edge 14, Type (0, 0), BuildingBlock: TEMPAE_clean_linker_10, # of connection points: 2
#     Edge 15, Type (0, 0), BuildingBlock: TEMPAE_clean_linker_10, # of connection points: 2
#     Edge 16, Type (0, 0), BuildingBlock: TEMPAE_clean_linker_10, # of connection points: 2
#     Edge 17, Type (0, 0), BuildingBlock: TEMPAE_clean_linker_10, # of connection points: 2
#     Edge 18, Type (0, 0), BuildingBlock: TEMPAE_clean_linker_10, # of connection points: 2
#     Edge 19, Type (0, 0), BuildingBlock: TEMPAE_clean_linker_10, # of connection points: 2
#     Edge 20, Type (0, 0), BuildingBlock: TEMPAE_clean_linker_10, # of connection points: 2
#     Edge 21, Type (0, 0), BuildingBlock: TEMPAE_clean_linker_10, # of connection points: 2
#     Edge 22, Type (0, 0), BuildingBlock: TEMPAE_clean_linker_10, # of connection points: 2
#     Edge 23, Type (0, 0), BuildingBlock: TEMPAE_clean_linker_10, # of connection points: 2
#     Edge 24, Type (0, 0), BuildingBlock: TEMPAE_clean_linker_10, # of connection points: 2
#     Edge 25, Type (0, 0), BuildingBlock: TEMPAE_clean_linker_10, # of connection points: 2
#     Edge 26, Type (0, 0), BuildingBlock: TEMPAE_clean_linker_10, # of connection points: 2
#     Edge 27, Type (0, 0), BuildingBlock: TEMPAE_clean_linker_10, # of connection points: 2
#     Edge 28, Type (0, 0), BuildingBlock: TEMPAE_clean_linker_10, # of connection points: 2
#     Edge 29, Type (0, 0), BuildingBlock: TEMPAE_clean_linker_10, # of connection points: 2
#     Edge 30, Type (0, 0), BuildingBlock: TEMPAE_clean_linker_10, # of connection points: 2
#     Edge 31, Type (0, 0), BuildingBlock: TEMPAE_clean_linker_10, # of connection points: 2
#     Edge 32, Type (0, 0), BuildingBlock: TEMPAE_clean_linker_10, # of connection points: 2
#     Edge 33, Type (0, 0), BuildingBlock: TEMPAE_clean_linker_10, # of connection points: 2
#     Edge 34, Type (0, 0), BuildingBlock: TEMPAE_clean_linker_10, # of connection points: 2
#     Edge 35, Type (0, 0), BuildingBlock: TEMPAE_clean_linker_10, # of connection points: 2
#     Edge 36, Type (0, 0), BuildingBlock: TEMPAE_clean_linker_10, # of connection points: 2
#     Edge 37, Type (0, 0), BuildingBlock: TEMPAE_clean_linker_10, # of connection points: 2
#     Edge 38, Type (0, 0), BuildingBlock: TEMPAE_clean_linker_10, # of connection points: 2
#     Edge 39, Type (0, 0), BuildingBlock: TEMPAE_clean_linker_10, # of connection points: 2
#     Edge 40, Type (0, 0), BuildingBlock: TEMPAE_clean_linker_10, # of connection points: 2
#     Edge 41, Type (0, 0), BuildingBlock: TEMPAE_clean_linker_10, # of connection points: 2
# Relax obj value: 0.573
# Max RMSD: 0.270
# Mean RMSD: 0.270
data_MOF--net-wjk--node1-XOMCOT_clean_sbu_0--edge1-TEMPAE_clean_linker_10
_symmetry_space_group_name_H-M    P1
_symmetry_Int_Tables_number       1
_symmetry_cell_setting            triclinic
loop_
_symmetry_equiv_pos_as_xyz
'x, y, z'
_cell_length_a     33.11225
_cell_length_b     33.138853
_cell_length_c     70.273263
_cell_angle_alpha  89.975666
_cell_angle_beta   90.007363
_cell_angle_gamma 119.96156
loop_
_atom_site_label
_atom_site_type_symbol
_atom_site_fract_x
_atom_site_fract_y
_atom_site_fract_z
_atom_type_partial_charge
Co0 Co 0.22254 0.295 0.2643 0.0
C1 C 0.30534 0.38838 0.26813 0.0
C2 C 0.2554 0.39272 0.25041 0.0
C3 C 0.29842 0.43239 0.24785 0.0
N4 N 0.26009 0.36358 0.26244 0.0
N5 N 0.33029 0.42899 0.25866 0.0
H6 H 0.32151 0.3746 0.2774 0.0
H7 H 0.22385 0.38531 0.24312 0.0
C8 C 0.16371 0.29991 0.23028 0.0
O9 O 0.20119 0.32313 0.21974 0.0
N10 N 0.18919 0.22793 0.26651 0.0
C11 C 0.20935 0.20192 0.2699 0.0
C12 C 0.17624 0.15569 0.26831 0.0
C13 C 0.14407 0.19721 0.26293 0.0
N14 N 0.13541 0.15291 0.26378 0.0
C15 C 0.30294 0.30892 0.24351 0.0
C16 C 0.25571 0.25348 0.21292 0.0
C17 C 0.30459 0.27607 0.21325 0.0
C18 C 0.32821 0.30415 0.22879 0.0
C19 C 0.23186 0.25974 0.2279 0.0
N20 N 0.25554 0.28901 0.24258 0.0
H21 H 0.32179 0.32642 0.2561 0.0
H22 H 0.19426 0.23979 0.22795 0.0
H23 H 0.24615 0.21566 0.27243 0.0
H24 H 0.11833 0.20678 0.25939 0.0
O25 O 0.26374 0.29652 0.28424 0.0
O26 O 0.19942 0.29926 0.28939 0.0
O27 O 0.16788 0.28995 0.24769 0.0
C28 C 0.23514 0.29793 0.29648 0.0
H29 H 0.30596 0.46019 0.23788 0.0
H30 H 0.18221 0.12648 0.26934 0.0
H31 H 0.23585 0.22915 0.20171 0.0
H32 H 0.36577 0.32061 0.23 0.0
Co33 Co 0.95078 0.23585 0.56132 0.0
C34 C 0.92244 0.30037 0.57723 0.0
C35 C 0.88212 0.26686 0.55252 0.0
C36 C 0.88024 0.30702 0.55595 0.0
N37 N 0.91062 0.26357 0.56538 0.0
N38 N 0.90723 0.32921 0.57115 0.0
H39 H 0.94846 0.31084 0.5882 0.0
H40 H 0.8682 0.24533 0.54009 0.0
C41 C 0.88535 0.17254 0.52903 0.0
O42 O 0.89682 0.20861 0.51797 0.0
N43 N 0.99199 0.21082 0.55832 0.0
C44 C 0.03889 0.23627 0.55716 0.0
C45 C 0.05675 0.20691 0.55854 0.0
C46 C 0.98194 0.16643 0.56068 0.0
N47 N 0.021 0.16319 0.56085 0.0
C48 C 0.99157 0.32074 0.53968 0.0
C49 C 0.03429 0.29195 0.51383 0.0
C50 C 0.05386 0.33985 0.51763 0.0
C51 C 0.02786 0.35371 0.52864 0.0
C52 C 0.99537 0.25969 0.52421 0.0
N53 N 0.97794 0.27443 0.53855 0.0
H54 H 0.97961 0.33422 0.55075 0.0
H55 H 0.98424 0.22313 0.5227 0.0
H56 H 0.05879 0.27386 0.55618 0.0
H57 H 0.94732 0.13779 0.56363 0.0
O58 O 0.995 0.27881 0.5797 0.0
O59 O 0.93615 0.20917 0.58688 0.0
O60 O 0.90067 0.17883 0.54628 0.0
C61 C 0.9728 0.24731 0.59266 0.0
H62 H 0.86414 0.32101 0.54667 0.0
H63 H 0.09325 0.21698 0.55863 0.0
H64 H 0.05215 0.27893 0.50506 0.0
H65 H 0.04002 0.39024 0.53122 0.0
Co66 Co 0.73354 0.92592 0.9382 0.0
C67 C 0.65874 0.94392 0.9278 0.0
C68 C 0.62998 0.87033 0.93096 0.0
C69 C 0.59403 0.8797 0.92767 0.0
N70 N 0.67075 0.9108 0.93066 0.0
N71 N 0.61232 0.92626 0.92583 0.0
H72 H 0.68381 0.98078 0.92778 0.0
H73 H 0.62632 0.83674 0.93417 0.0
C74 C 0.71818 0.85038 0.9069 0.0
O75 O 0.67605 0.84065 0.90193 0.0
N76 N 0.7966 0.94353 0.94564 0.0
C77 C 0.81442 0.94294 0.96284 0.0
C78 C 0.86037 0.95488 0.96056 0.0
C79 C 0.83184 0.9555 0.93326 0.0
N80 N 0.87127 0.96276 0.94191 0.0
C81 C 0.78449 0.01814 0.92498 0.0
C82 C 0.75345 1.0003 0.88772 0.0
C83 C 0.77945 0.04642 0.89406 0.0
C84 C 0.79572 0.05521 0.91281 0.0
C85 C 0.74271 0.96406 0.90045 0.0
N86 N 0.7577 0.9734 0.91885 0.0
H87 H 0.79614 0.02523 0.93959 0.0
H88 H 0.72014 0.92883 0.8958 0.0
H89 H 0.79563 0.93327 0.97612 0.0
H90 H 0.82817 0.9582 0.91811 0.0
O91 O 0.72908 0.96313 0.95828 0.0
O92 O 0.70984 0.88948 0.96178 0.0
O93 O 0.73955 0.87976 0.92032 0.0
C94 C 0.71414 0.92745 0.96943 0.0
H95 H 0.55718 0.85432 0.92759 0.0
H96 H 0.88325 0.95591 0.97177 0.0
H97 H 0.7406 0.99242 0.87325 0.0
H98 H 0.8171 0.09047 0.91801 0.0
Co99 Co 0.77502 0.71355 0.22701 0.0
C100 C 0.71168 0.62044 0.24276 0.0
C101 C 0.73624 0.61442 0.2155 0.0
C102 C 0.69444 0.57418 0.21921 0.0
N103 N 0.74605 0.64511 0.22984 0.0
N104 N 0.67781 0.57892 0.23606 0.0
H105 H 0.70722 0.635 0.25575 0.0
H106 H 0.75349 0.6227 0.20192 0.0
C107 C 0.83479 0.71247 0.193 0.0
O108 O 0.7976 0.69061 0.18225 0.0
N109 N 0.80117 0.78019 0.22514 0.0
C110 C 0.7762 0.80224 0.22533 0.0
C111 C 0.80623 0.84921 0.2269 0.0
C112 C 0.84607 0.81398 0.22685 0.0
N113 N 0.84999 0.85649 0.22795 0.0
C114 C 0.68809 0.67444 0.2073 0.0
C115 C 0.71656 0.74702 0.18204 0.0
C116 C 0.66897 0.7202 0.18675 0.0
C117 C 0.6548 0.67981 0.19742 0.0
C118 C 0.74892 0.7382 0.19118 0.0
N119 N 0.73469 0.70518 0.20517 0.0
H120 H 0.67523 0.6494 0.21856 0.0
H121 H 0.78559 0.76271 0.18916 0.0
H122 H 0.73853 0.78509 0.22507 0.0
H123 H 0.87477 0.80741 0.22853 0.0
O124 O 0.73382 0.71409 0.24645 0.0
O125 O 0.80342 0.72302 0.25224 0.0
O126 O 0.83034 0.72014 0.21067 0.0
C127 C 0.76612 0.72213 0.25885 0.0
H128 H 0.67474 0.54692 0.20896 0.0
H129 H 0.79662 0.8759 0.22788 0.0
H130 H 0.72967 0.77836 0.17356 0.0
H131 H 0.61836 0.65679 0.20077 0.0
Co132 Co 0.08341 0.78939 0.59755 0.0
C133 C 0.09373 0.70607 0.60146 0.0
C134 C 0.13926 0.75018 0.57974 0.0
C135 C 0.13329 0.706 0.57754 0.0
N136 N 0.11232 0.74993 0.59422 0.0
N137 N 0.10308 0.67765 0.59084 0.0
H138 H 0.06861 0.69303 0.61288 0.0
H139 H 0.15948 0.77908 0.57041 0.0
C140 C 0.14186 0.84841 0.56261 0.0
O141 O 0.12214 0.81164 0.55151 0.0
N142 N 0.05222 0.82488 0.60141 0.0
C143 C 1.00664 0.80647 0.60572 0.0
C144 C 0.99536 0.84106 0.60503 0.0
C145 C 0.06813 0.87046 0.59833 0.0
N146 N 0.03394 0.88105 0.6002 0.0
C147 C 0.01575 0.71084 0.57654 0.0
C148 C 0.9947 0.75983 0.55059 0.0
C149 C 0.96811 0.71094 0.55075 0.0
C150 C 0.98025 0.68651 0.56352 0.0
C151 C 0.0312 0.78279 0.56348 0.0
N152 N 0.0417 0.75831 0.57626 0.0
H153 H 0.01927 0.69104 0.58774 0.0
H154 H 0.04934 0.82038 0.56384 0.0
H155 H 0.98257 0.76986 0.60812 0.0
H156 H 0.10334 0.89507 0.59425 0.0
O157 O 0.04418 0.74798 0.61743 0.0
O158 O 0.11284 0.81029 0.62253 0.0
O159 O 0.13262 0.84377 0.58063 0.0
C160 C 0.07528 0.77515 0.62965 0.0
H161 H 0.14654 0.69479 0.56582 0.0
H162 H 0.96084 0.83659 0.60668 0.0
H163 H 0.9857 0.78051 0.54148 0.0
H164 H 0.96067 0.64885 0.56433 0.0
Co165 Co 0.3107 0.07388 0.89179 0.0
C166 C 0.39906 0.09004 0.90909 0.0
C167 C 0.41314 0.14293 0.8886 0.0
C168 C 0.45397 0.14253 0.89239 0.0
N169 N 0.37773 0.10863 0.89854 0.0
N170 N 0.44479 0.10834 0.90501 0.0
H171 H 0.38063 0.05898 0.9176 0.0
H172 H 0.40969 0.16453 0.8781 0.0
C173 C 0.32371 0.15423 0.86424 0.0
O174 O 0.35516 0.15156 0.8538 0.0
N175 N 0.24552 0.03721 0.88567 0.0
C176 C 0.22363 0.9931 0.8791 0.0
C177 C 0.1764 0.9761 0.87969 0.0
C178 C 0.21155 0.04636 0.89039 0.0
N179 N 0.16893 0.00953 0.8869 0.0
C180 C 0.35076 0.03207 0.86929 0.0
C181 C 0.30572 0.0277 0.83577 0.0
C182 C 0.32478 0.99828 0.83805 0.0
C183 C 0.35123 1.00445 0.85457 0.0
C184 C 0.30466 0.05372 0.85119 0.0
N185 N 0.32584 0.05452 0.86797 0.0
H186 H 0.36586 0.03037 0.88258 0.0
H187 H 0.28286 0.06931 0.85014 0.0
H188 H 0.24074 0.97383 0.87507 0.0
H189 H 0.21783 0.07789 0.89755 0.0
O190 O 0.30283 0.02229 0.90761 0.0
O191 O 0.29407 0.08045 0.91782 0.0
O192 O 0.30868 0.13007 0.87967 0.0
C193 C 0.29266 0.04126 0.92163 0.0
H194 H 0.48703 0.16358 0.88529 0.0
H195 H 0.14961 0.9412 0.87588 0.0
H196 H 0.28721 0.02716 0.82303 0.0
H197 H 0.36747 0.98385 0.85755 0.0
Co198 Co 0.71829 0.78739 0.42979 0.0
C199 C 0.62307 0.71033 0.42267 0.0
C200 C 0.62171 0.75411 0.44447 0.0
C201 C 0.58244 0.71052 0.44613 0.0
N202 N 0.64917 0.75359 0.4304 0.0
N203 N 0.58422 0.68213 0.43282 0.0
H204 H 0.6353 0.69725 0.41136 0.0
H205 H 0.63062 0.78258 0.45404 0.0
C206 C 0.71891 0.85175 0.46308 0.0
O207 O 0.69569 0.81621 0.47456 0.0
N208 N 0.78524 0.81637 0.42875 0.0
C209 C 0.80867 0.7928 0.42842 0.0
C210 C 0.85522 0.82372 0.43091 0.0
C211 C 0.81787 0.86142 0.4309 0.0
N212 N 0.86085 0.86674 0.43271 0.0
C213 C 0.69375 0.70576 0.4519 0.0
C214 C 0.75308 0.75044 0.48185 0.0
C215 C 0.72598 0.7016 0.48203 0.0
C216 C 0.69551 0.67935 0.4669 0.0
C217 C 0.74945 0.7755 0.46672 0.0
N218 N 0.71891 0.75331 0.45221 0.0
H219 H 0.67435 0.6874 0.43955 0.0
H220 H 0.77266 0.81273 0.46631 0.0
H221 H 0.79262 0.75531 0.42756 0.0
H222 H 0.81016 0.88926 0.43195 0.0
O223 O 0.71634 0.74452 0.41055 0.0
O224 O 0.71873 0.81095 0.40425 0.0
O225 O 0.72631 0.84461 0.44562 0.0
C226 C 0.71844 0.7739 0.3978 0.0
H227 H 0.55734 0.69958 0.4576 0.0
H228 H 0.88256 0.81499 0.43205 0.0
H229 H 0.77911 0.76916 0.49268 0.0
H230 H 0.67505 0.64172 0.4661 0.0
Co231 Co 0.95625 0.71675 0.80017 0.0
C232 C 0.92684 0.62422 0.78392 0.0
C233 C 0.89485 0.61713 0.81094 0.0
C234 C 0.8963 0.5769 0.80707 0.0
N235 N 0.91668 0.64846 0.79687 0.0
N236 N 0.91855 0.58229 0.79039 0.0
H237 H 0.94647 0.63924 0.7711 0.0
H238 H 0.88522 0.62486 0.82448 0.0
C239 C 0.89328 0.71457 0.83354 0.0
O240 O 0.90758 0.69192 0.84437 0.0
N241 N 0.99674 0.78326 0.80251 0.0
C242 C 0.04376 0.80536 0.80272 0.0
C243 C 0.06071 0.85238 0.80126 0.0
C244 C 0.98565 0.81703 0.80068 0.0
N245 N 0.02422 0.85959 0.79989 0.0
C246 C 1.00214 0.67636 0.82044 0.0
C247 C 0.04543 0.74849 0.84594 0.0
C248 C 0.06622 0.72157 0.84142 0.0
C249 C 0.04018 0.68127 0.83067 0.0
C250 C 1.00472 0.74003 0.83649 0.0
N251 N 0.98653 0.70736 0.82236 0.0
H252 H 0.99036 0.6515 0.80913 0.0
H253 H 0.99259 0.7646 0.83839 0.0
H254 H 0.0643 0.78824 0.80314 0.0
H255 H 0.95047 0.81045 0.79863 0.0
O256 O 0.99922 0.71772 0.78124 0.0
O257 O 0.93927 0.72732 0.77471 0.0
O258 O 0.90665 0.72308 0.81602 0.0
C259 C 0.97604 0.72644 0.76854 0.0
H260 H 0.888 0.5491 0.81715 0.0
H261 H 0.09702 0.87916 0.80055 0.0
H262 H 0.06339 0.7797 0.8545 0.0
H263 H 0.05344 0.65802 0.82752 0.0
Co264 Co 0.20626 0.92314 0.08854 0.0
C265 C 0.29896 0.94137 0.09931 0.0
C266 C 0.25454 0.86786 0.09572 0.0
C267 C 0.29985 0.87734 0.09909 0.0
N268 N 0.25397 0.90819 0.09624 0.0
N269 N 0.32787 0.92385 0.10121 0.0
H270 H 0.31057 0.97819 0.0995 0.0
H271 H 0.22483 0.83433 0.09226 0.0
C272 C 0.14542 0.84678 0.11951 0.0
O273 O 0.1771 0.83575 0.12414 0.0
N274 N 0.16074 0.9405 0.08095 0.0
C275 C 0.14195 0.93907 0.06371 0.0
C276 C 0.10742 0.95038 0.06587 0.0
C277 C 0.13723 0.95242 0.09323 0.0
N278 N 0.10479 0.95881 0.08444 0.0
C279 C 0.247 0.01522 0.10194 0.0
C280 C 0.25905 0.99669 0.13926 0.0
C281 C 0.27928 0.04291 0.13304 0.0
C282 C 0.2724 0.05207 0.11426 0.0
C283 C 0.23405 0.96069 0.12638 0.0
N284 N 0.229 0.97039 0.10796 0.0
H285 H 0.24289 0.02257 0.08731 0.0
H286 H 0.22131 0.92535 0.13095 0.0
H287 H 0.15126 0.92935 0.05049 0.0
H288 H 0.14242 0.95447 0.10848 0.0
O289 O 0.24816 0.96061 0.06857 0.0
O290 O 0.19408 0.88691 0.06494 0.0
O291 O 0.15403 0.87697 0.10637 0.0
C292 C 0.22772 0.92502 0.05736 0.0
H293 H 0.31151 0.8521 0.09901 0.0
H294 H 0.08564 0.95179 0.0547 0.0
H295 H 0.26358 0.98855 0.15375 0.0
H296 H 0.28642 0.08744 0.10915 0.0
Co297 Co 0.29976 0.23012 0.46511 0.0
C298 C 0.38747 0.30291 0.4478 0.0
C299 C 0.40259 0.26849 0.46993 0.0
C300 C 0.44213 0.31083 0.4662 0.0
N301 N 0.36715 0.26389 0.4589 0.0
N302 N 0.43217 0.33324 0.45259 0.0
H303 H 0.36837 0.31288 0.43835 0.0
H304 H 0.39961 0.24538 0.48122 0.0
C305 C 0.31398 0.16573 0.49423 0.0
O306 O 0.34436 0.20039 0.50473 0.0
N307 N 0.23421 0.20026 0.47072 0.0
C308 C 0.21078 0.22108 0.47719 0.0
C309 C 0.16391 0.18912 0.47708 0.0
C310 C 0.2015 0.15643 0.46635 0.0
N311 N 0.15826 0.14871 0.47014 0.0
C312 C 0.33604 0.31381 0.48611 0.0
C313 C 0.29378 0.27578 0.52037 0.0
C314 C 0.31182 0.32388 0.51737 0.0
C315 C 0.33644 0.34287 0.50037 0.0
C316 C 0.29286 0.2476 0.50538 0.0
N317 N 0.31296 0.26667 0.4883 0.0
H318 H 0.3499 0.32941 0.47251 0.0
H319 H 0.27217 0.2103 0.50704 0.0
H320 H 0.22652 0.2575 0.48097 0.0
H321 H 0.20912 0.13133 0.45989 0.0
O322 O 0.29066 0.27108 0.44807 0.0
O323 O 0.28505 0.20442 0.43942 0.0
O324 O 0.29924 0.17391 0.47849 0.0
C325 C 0.28247 0.24104 0.4346 0.0
H326 H 0.47448 0.3254 0.47408 0.0
H327 H 0.13602 0.19579 0.48075 0.0
H328 H 0.27628 0.25885 0.53342 0.0
H329 H 0.35129 0.37923 0.49675 0.0
Co330 Co 0.08804 0.29698 0.76305 0.0
C331 C 0.09943 0.39067 0.75879 0.0
C332 C 0.15339 0.39475 0.77664 0.0
C333 C 0.15044 0.43468 0.77903 0.0
N334 N 0.11949 0.36562 0.76464 0.0
N335 N 0.11536 0.43145 0.76814 0.0
H336 H 0.06938 0.3769 0.74958 0.0
H337 H 0.17728 0.38716 0.78405 0.0
C338 C 0.15222 0.30164 0.79679 0.0
O339 O 0.13813 0.3249 0.80738 0.0
N340 N 0.05412 0.22988 0.7611 0.0
C341 C 1.00785 0.20375 0.75797 0.0
C342 C 0.99494 0.15755 0.75957 0.0
C343 C 0.06877 0.19928 0.76453 0.0
N344 N 0.03322 0.15495 0.76384 0.0
C345 C 0.02335 0.31253 0.78437 0.0
C346 C 0.01447 0.25621 0.81474 0.0
C347 C 0.98895 0.27963 0.81464 0.0
C348 C 0.99384 0.30823 0.79923 0.0
C349 C 0.04414 0.26208 0.79964 0.0
N350 N 0.05002 0.29169 0.78504 0.0
H351 H 0.02213 0.33039 0.77187 0.0
H352 H 0.06127 0.24162 0.79943 0.0
H353 H 0.98464 0.21738 0.75559 0.0
H354 H 0.10423 0.20897 0.76786 0.0
O355 O 0.04749 0.29822 0.74348 0.0
O356 O 0.11414 0.30059 0.73771 0.0
O357 O 0.13813 0.29199 0.77936 0.0
C358 C 0.0768 0.29931 0.73095 0.0
H359 H 0.17076 0.46252 0.78896 0.0
H360 H 0.95979 0.12825 0.75872 0.0
H361 H 1.00968 0.23155 0.82586 0.0
H362 H 0.97337 0.32541 0.7982 0.0
Co363 Co 0.77896 0.07443 0.13519 0.0
C364 C 0.70496 0.08868 0.1184 0.0
C365 C 0.74359 0.14182 0.13882 0.0
C366 C 0.70201 0.14082 0.13515 0.0
N367 N 0.74507 0.1078 0.12883 0.0
N368 N 0.67717 0.10653 0.12256 0.0
H369 H 0.6926 0.05765 0.1099 0.0
H370 H 0.76873 0.1637 0.14924 0.0
C371 C 0.84517 0.15476 0.16292 0.0
O372 O 0.81082 0.15096 0.17353 0.0
N373 N 0.80933 0.03929 0.14093 0.0
C374 C 0.78863 0.99489 0.14706 0.0
C375 C 0.8208 0.98026 0.14668 0.0
C376 C 0.85341 0.05096 0.13668 0.0
N377 N 0.86155 0.01548 0.14006 0.0
C378 C 0.6975 0.03059 0.15787 0.0
C379 C 0.73918 0.02719 0.19127 0.0
C380 C 0.69068 0.99762 0.18923 0.0
C381 C 0.6699 1.00298 0.1727 0.0
C382 C 0.76578 0.05319 0.17574 0.0
N383 N 0.74489 0.05377 0.15907 0.0
H384 H 0.68038 0.02849 0.14463 0.0
H385 H 0.80323 0.06929 0.17665 0.0
H386 H 0.75209 0.97389 0.15065 0.0
H387 H 0.87811 0.08405 0.13042 0.0
O388 O 0.73593 0.02264 0.11933 0.0
O389 O 0.80191 0.08211 0.10908 0.0
O390 O 0.83637 0.13126 0.14733 0.0
C391 C 0.76469 0.04246 0.10526 0.0
H392 H 0.68973 0.1616 0.14229 0.0
H393 H 0.81366 0.94534 0.14983 0.0
H394 H 0.75749 0.02695 0.20396 0.0
H395 H 0.63305 0.98187 0.16984 0.0
C396 C 0.61011 0.58205 0.24987 0.0
C397 C 0.62872 0.55626 0.24142 0.0
C398 C 0.56202 0.56236 0.25336 0.0
C399 C 0.53091 0.51542 0.24833 0.0
C400 C 0.54931 0.48881 0.24013 0.0
C401 C 0.59776 0.50952 0.23671 0.0
C402 C 0.54438 0.59245 0.26195 0.0
C403 C 0.51764 0.43857 0.23465 0.0
C404 C 0.40954 0.4533 0.27125 0.0
C405 C 0.38091 0.45465 0.25674 0.0
C406 C 0.45804 0.47272 0.26872 0.0
C407 C 0.47916 0.49471 0.25129 0.0
C408 C 0.45082 0.49748 0.23679 0.0
C409 C 0.40231 0.47743 0.23964 0.0
C410 C 0.48664 0.4691 0.28465 0.0
C411 C 0.47166 0.52093 0.21805 0.0
H412 H 0.63281 0.61851 0.25313 0.0
H413 H 0.61145 0.48926 0.23014 0.0
H414 H 0.52164 0.59688 0.25157 0.0
H415 H 0.52296 0.57536 0.27474 0.0
H416 H 0.57318 0.62748 0.26605 0.0
H417 H 0.53729 0.42201 0.2291 0.0
H418 H 0.49684 0.41842 0.24714 0.0
H419 H 0.49268 0.43627 0.22358 0.0
H420 H 0.39392 0.4365 0.28461 0.0
H421 H 0.38099 0.47836 0.22817 0.0
H422 H 0.51433 0.50439 0.289 0.0
H423 H 0.5042 0.44998 0.27966 0.0
H424 H 0.46514 0.45088 0.29732 0.0
H425 H 0.49981 0.55733 0.22051 0.0
H426 H 0.44534 0.52138 0.20838 0.0
H427 H 0.48763 0.50256 0.21081 0.0
C428 C 0.02867 0.60324 0.59613 0.0
C429 C 0.0755 0.62691 0.59005 0.0
C430 C 0.99991 0.55478 0.59375 0.0
C431 C 0.01807 0.52841 0.58528 0.0
C432 C 0.06555 0.55165 0.57954 0.0
C433 C 0.09347 0.60044 0.58186 0.0
C434 C 0.94949 0.53199 0.59985 0.0
C435 C 0.08673 0.525 0.5707 0.0
C436 C 0.95315 0.39608 0.59298 0.0
C437 C 0.92998 0.37888 0.57552 0.0
C438 C 0.98181 0.44428 0.59633 0.0
C439 C 0.98704 0.4768 0.58206 0.0
C440 C 0.96226 0.45992 0.56472 0.0
C441 C 0.93444 0.4115 0.56162 0.0
C442 C 1.00746 0.46034 0.61502 0.0
C443 C 0.966 0.4931 0.54918 0.0
H444 H 0.01356 0.62265 0.6022 0.0
H445 H 0.12943 0.61797 0.57717 0.0
H446 H 0.9265 0.51632 0.5873 0.0
H447 H 0.94142 0.50338 0.61004 0.0
H448 H 0.94085 0.55702 0.60663 0.0
H449 H 0.12451 0.5476 0.56772 0.0
H450 H 0.082 0.49636 0.5803 0.0
H451 H 0.06861 0.50882 0.55717 0.0
H452 H 0.94971 0.37172 0.604 0.0
H453 H 0.91757 0.39937 0.54797 0.0
H454 H 0.99762 0.48378 0.62238 0.0
H455 H 0.04558 0.48062 0.61239 0.0
H456 H 1.00003 0.4308 0.62464 0.0
H457 H 0.95682 0.51874 0.55485 0.0
H458 H 0.9429 0.47479 0.53691 0.0
H459 H 1.00249 0.51295 0.54401 0.0
C460 C 0.46465 0.05978 0.92572 0.0
C461 C 0.47245 0.08626 0.90907 0.0
C462 C 0.48721 0.03376 0.92891 0.0
C463 C 0.51859 0.03386 0.91513 0.0
C464 C 0.52737 0.06125 0.89848 0.0
C465 C 0.50439 0.08703 0.89567 0.0
C466 C 0.4769 1.00557 0.94695 0.0
C467 C 0.56037 0.06254 0.88336 0.0
C468 C 0.60833 0.99884 0.92996 0.0
C469 C 0.5881 0.95254 0.92351 0.0
C470 C 0.58614 0.02538 0.92742 0.0
C471 C 0.54231 1.00553 0.91816 0.0
C472 C 0.52141 0.95871 0.91175 0.0
C473 C 0.54437 0.93284 0.91454 0.0
C474 C 0.60977 0.07487 0.93466 0.0
C475 C 0.47487 0.93601 0.90174 0.0
H476 H 0.44041 0.05904 0.93625 0.0
H477 H 0.51029 0.1065 0.8826 0.0
H478 H 0.46176 0.96814 0.94341 0.0
H479 H 0.50967 0.01636 0.95491 0.0
H480 H 0.4522 0.00957 0.95639 0.0
H481 H 0.56425 0.08614 0.87139 0.0
H482 H 0.59525 0.07425 0.88963 0.0
H483 H 0.54751 0.027 0.87761 0.0
H484 H 0.64152 0.01446 0.93726 0.0
H485 H 0.52843 0.89739 0.90935 0.0
H486 H 0.5868 0.07905 0.945 0.0
H487 H 0.61601 0.09916 0.92269 0.0
H488 H 0.64363 0.08522 0.94168 0.0
H489 H 0.44814 0.93663 0.91106 0.0
H490 H 0.46298 0.89934 0.89772 0.0
H491 H 0.47718 0.95588 0.88868 0.0
C492 C 0.51678 0.60546 0.44269 0.0
C493 C 0.56002 0.63122 0.43343 0.0
C494 C 0.49553 0.55666 0.44514 0.0
C495 C 0.51787 0.53246 0.43826 0.0
C496 C 0.56087 0.55794 0.42855 0.0
C497 C 0.58119 0.60652 0.42623 0.0
C498 C 0.44948 0.53106 0.45544 0.0
C499 C 0.58632 0.53406 0.42104 0.0
C500 C 0.48819 0.41579 0.46137 0.0
C501 C 0.45705 0.38295 0.44821 0.0
C502 C 0.50829 0.46419 0.45826 0.0
C503 C 0.49705 0.48081 0.44161 0.0
C504 C 0.46642 0.448 0.4281 0.0
C505 C 0.44714 0.39982 0.43149 0.0
C506 C 0.54099 0.49762 0.47302 0.0
C507 C 0.45343 0.46376 0.41012 0.0
H508 H 0.49964 0.62354 0.44822 0.0
H509 H 0.61472 0.62509 0.41929 0.0
H510 H 0.42344 0.50232 0.44643 0.0
H511 H 0.45363 0.51511 0.46864 0.0
H512 H 0.43558 0.55432 0.4593 0.0
H513 H 0.61843 0.55825 0.41309 0.0
H514 H 0.59614 0.51895 0.43305 0.0
H515 H 0.56321 0.50491 0.4115 0.0
H516 H 0.49587 0.4038 0.47447 0.0
H517 H 0.42374 0.37523 0.42105 0.0
H518 H 0.52626 0.51858 0.47892 0.0
H519 H 0.57494 0.52229 0.46638 0.0
H520 H 0.54733 0.47943 0.48493 0.0
H521 H 0.43712 0.48499 0.41375 0.0
H522 H 0.42881 0.43404 0.40111 0.0
H523 H 0.48521 0.48624 0.40168 0.0
C524 C 0.92876 0.51262 0.7896 0.0
C525 C 0.94491 0.55954 0.78506 0.0
C526 C 0.95639 0.49177 0.78622 0.0
C527 C 1.00162 0.51839 0.7782 0.0
C528 C 0.01781 0.5655 0.77333 0.0
C529 C 0.98955 0.58535 0.77681 0.0
C530 C 0.93747 0.44136 0.79154 0.0
C531 C 0.06575 0.59558 0.76493 0.0
C532 C 0.09165 0.47978 0.78712 0.0
C533 C 0.09057 0.45727 0.77 0.0
C534 C 0.06324 0.49991 0.78992 0.0
C535 C 0.03254 0.49754 0.77531 0.0
C536 C 0.032 0.47584 0.75786 0.0
C537 C 0.06099 0.45629 0.7554 0.0
C538 C 0.06546 0.52301 0.8087 0.0
C539 C 1.00023 0.47267 0.74181 0.0
H540 H 0.89462 0.49233 0.79601 0.0
H541 H 1.0036 0.62192 0.7737 0.0
H542 H 0.93831 0.42144 0.77901 0.0
H543 H 0.95979 0.43868 0.80267 0.0
H544 H 0.90114 0.42484 0.79696 0.0
H545 H 0.07221 0.63072 0.76086 0.0
H546 H 0.09263 0.59974 0.77541 0.0
H547 H 0.07032 0.57864 0.75214 0.0
H548 H 0.11357 0.48039 0.79867 0.0
H549 H 0.06004 0.43965 0.74202 0.0
H550 H 0.03093 0.50463 0.81579 0.0
H551 H 0.07396 0.55952 0.80632 0.0
H552 H 0.0919 0.5231 0.81847 0.0
H553 H 0.96342 0.45355 0.74666 0.0
H554 H 1.00376 0.45468 0.72913 0.0
H555 H 1.00804 0.50809 0.73755 0.0
C556 C 0.40241 0.93028 0.11239 0.0
C557 C 0.37832 0.95023 0.10365 0.0
C558 C 0.45119 0.95615 0.11527 0.0
C559 C 0.47702 1.00327 0.10919 0.0
C560 C 0.45299 0.0234 0.10017 0.0
C561 C 0.40431 0.99684 0.09754 0.0
C562 C 0.47508 0.93315 0.12501 0.0
C563 C 0.47876 0.07322 0.0933 0.0
C564 C 0.59609 0.08423 0.132 0.0
C565 C 0.62744 0.08418 0.11851 0.0
C566 C 0.54738 0.05833 0.12914 0.0
C567 C 0.52902 0.03161 0.11231 0.0
C568 C 0.56049 0.03222 0.09846 0.0
C569 C 0.60902 0.05827 0.10173 0.0
C570 C 0.51544 0.05877 0.14436 0.0
C571 C 0.54288 1.00481 0.08023 0.0
H572 H 0.38298 0.89459 0.11732 0.0
H573 H 0.38672 0.01269 0.09042 0.0
H574 H 0.50256 0.93428 0.11562 0.0
H575 H 0.49248 0.95247 0.13818 0.0
H576 H 0.45037 0.89628 0.12878 0.0
H577 H 0.45522 0.08377 0.08644 0.0
H578 H 0.49662 0.09698 0.10542 0.0
H579 H 0.50604 0.07797 0.08292 0.0
H580 H 0.60951 0.10324 0.14517 0.0
H581 H 0.6327 0.05808 0.09115 0.0
H582 H 0.49276 0.02293 0.14983 0.0
H583 H 0.49229 0.07073 0.13827 0.0
H584 H 0.53497 0.08178 0.15649 0.0
H585 H 0.52067 0.96722 0.08352 0.0
H586 H 0.57171 0.00933 0.07075 0.0
H587 H 0.52088 0.01583 0.07242 0.0
C588 C 0.28131 0.29401 0.40931 0.0
C589 C 0.27322 0.24974 0.41469 0.0
C590 C 0.27432 0.30357 0.39045 0.0
C591 C 0.25823 0.26789 0.37654 0.0
C592 C 0.24924 0.22288 0.38197 0.0
C593 C 0.25713 0.21445 0.4009 0.0
C594 C 0.28507 0.35219 0.38533 0.0
C595 C 0.23175 0.18369 0.36769 0.0
C596 C 0.20487 0.2811 0.33019 0.0
C597 C 0.24165 0.29413 0.31726 0.0
C598 C 0.20979 0.27278 0.34953 0.0
C599 C 0.25266 0.2781 0.35619 0.0
C600 C 0.29026 0.2926 0.34327 0.0
C601 C 0.28422 0.30013 0.32403 0.0
C602 C 0.16872 0.25714 0.36275 0.0
C603 C 0.33679 0.29942 0.3497 0.0
H604 H 0.29401 0.32163 0.41981 0.0
H605 H 0.25061 0.18012 0.40492 0.0
H606 H 0.31317 0.36714 0.37448 0.0
H607 H 0.25391 0.35116 0.37896 0.0
H608 H 0.29631 0.37579 0.39785 0.0
H609 H 0.22437 0.15023 0.3743 0.0
H610 H 0.19944 0.17881 0.36082 0.0
H611 H 0.25807 0.19259 0.3563 0.0
H612 H 0.17176 0.276 0.32508 0.0
H613 H 0.31292 0.3103 0.31418 0.0
H614 H 0.17853 0.28113 0.37508 0.0
H615 H 0.15828 0.22203 0.36844 0.0
H616 H 0.13817 0.25573 0.35554 0.0
H617 H 0.35034 0.32429 0.36176 0.0
H618 H 0.36312 0.31272 0.33811 0.0
H619 H 0.33254 0.26587 0.35485 0.0
C620 C 0.97028 0.21899 0.62621 0.0
C621 C 0.98879 0.25533 0.61285 0.0
C622 C 0.98622 0.22647 0.6452 0.0
C623 C 0.02123 0.2715 0.65111 0.0
C624 C 0.03986 0.3083 0.63767 0.0
C625 C 0.02364 0.29974 0.61876 0.0
C626 C 0.96548 0.18616 0.65899 0.0
C627 C 0.0767 0.35695 0.6433 0.0
C628 C 0.0279 0.3005 0.704 0.0
C629 C 0.06551 0.29556 0.71026 0.0
C630 C 0.01364 0.29337 0.68485 0.0
C631 C 0.03719 0.2805 0.67146 0.0
C632 C 0.07569 0.27616 0.67761 0.0
C633 C 0.08952 0.28393 0.6969 0.0
C634 C 0.97285 0.29902 0.67899 0.0
C635 C 0.10172 0.26239 0.66387 0.0
H636 H 0.94356 0.18453 0.62178 0.0
H637 H 0.03812 0.32814 0.60859 0.0
H638 H 0.99348 0.18137 0.66535 0.0
H639 H 0.94807 0.19372 0.67083 0.0
H640 H 0.93962 0.15304 0.6521 0.0
H641 H 0.08801 0.38166 0.63114 0.0
H642 H 0.06311 0.37013 0.65469 0.0
H643 H 0.10762 0.35652 0.64914 0.0
H644 H 1.00912 0.30958 0.71418 0.0
H645 H 0.11836 0.2797 0.7016 0.0
H646 H 0.94427 0.26547 0.67348 0.0
H647 H 0.98333 0.32487 0.66731 0.0
H648 H 0.95913 0.31053 0.69097 0.0
H649 H 0.07759 0.22758 0.65779 0.0
H650 H 0.1313 0.26119 0.67075 0.0
H651 H 0.11536 0.2874 0.65184 0.0
C652 C 0.789 0.03732 0.07177 0.0
C653 C 0.75447 0.02118 0.0859 0.0
C654 C 0.77935 0.01742 0.05342 0.0
C655 C 0.73384 0.98085 0.0489 0.0
C656 C 0.69893 0.9643 0.06317 0.0
C657 C 0.70972 0.98438 0.08146 0.0
C658 C 0.81779 0.036 0.03876 0.0
C659 C 0.64983 0.92605 0.05898 0.0
C660 C 0.70302 0.97032 0.99618 0.0
C661 C 0.71005 0.93387 0.99019 0.0
C662 C 0.70858 0.98442 0.01533 0.0
C663 C 0.72229 0.9621 0.02896 0.0
C664 C 0.7272 0.92369 0.02318 0.0
C665 C 0.72062 0.90975 1.00389 0.0
C666 C 0.70191 0.0248 0.02076 0.0
C667 C 0.74195 0.89897 0.03718 0.0
H668 H 0.82371 0.06548 0.07507 0.0
H669 H 0.68269 0.97173 0.09224 0.0
H670 H 0.82152 0.00708 0.03273 0.0
H671 H 0.80881 0.05204 0.02683 0.0
H672 H 0.85188 0.0625 0.04477 0.0
H673 H 0.62714 0.91573 0.07179 0.0
H674 H 0.63427 0.93782 0.04784 0.0
H675 H 0.6501 0.89492 0.05336 0.0
H676 H 0.69471 0.98909 0.9857 0.0
H677 H 0.72661 0.8819 0.99936 0.0
H678 H 0.73591 0.05503 0.02494 0.0
H679 H 0.6783 0.01549 0.03321 0.0
H680 H 0.68724 0.03568 1.00891 0.0
H681 H 0.77818 0.92304 0.04193 0.0
H682 H 0.74049 0.86749 0.03091 0.0
H683 H 0.71941 0.88853 0.05 0.0
C684 C 0.7354 0.80187 0.36376 0.0
C685 C 0.72322 0.76626 0.37719 0.0
C686 C 0.74307 0.79554 0.34451 0.0
C687 C 0.73811 0.75244 0.33844 0.0
C688 C 0.7251 0.71619 0.35191 0.0
C689 C 0.71802 0.72358 0.37106 0.0
C690 C 0.75698 0.83518 0.33068 0.0
C691 C 0.71883 0.66952 0.34613 0.0
C692 C 0.71551 0.71979 0.28583 0.0
C693 C 0.75949 0.72914 0.27933 0.0
C694 C 0.70815 0.72719 0.30492 0.0
C695 C 0.74575 0.74486 0.31798 0.0
C696 C 0.7903 0.75439 0.31152 0.0
C697 C 0.79659 0.74622 0.29231 0.0
C698 C 0.65997 0.71596 0.31112 0.0
C699 C 0.83141 0.77343 0.3249 0.0
H700 H 0.73981 0.83505 0.36836 0.0
H701 H 0.70858 0.69577 0.38128 0.0
H702 H 0.79114 0.84477 0.32416 0.0
H703 H 0.73114 0.82416 0.31896 0.0
H704 H 0.75961 0.86655 0.33759 0.0
H705 H 0.7081 0.64473 0.35825 0.0
H706 H 0.69205 0.65387 0.33479 0.0
H707 H 0.75189 0.67409 0.34018 0.0
H708 H 0.6865 0.70641 0.27596 0.0
H709 H 0.83071 0.75379 0.28742 0.0
H710 H 0.66104 0.74771 0.3168 0.0
H711 H 0.6475 0.68987 0.32277 0.0
H712 H 0.63432 0.70203 0.29929 0.0
H713 H 0.8374 0.80669 0.33118 0.0
H714 H 0.86387 0.77968 0.31766 0.0
H715 H 0.82398 0.74871 0.33681 0.0
C716 C 0.02762 0.72572 0.65693 0.0
C717 C 0.06526 0.76791 0.65045 0.0
C718 C 0.01382 0.71915 0.67614 0.0
C719 C 0.03787 0.75577 0.68936 0.0
C720 C 0.0765 0.79823 0.683 0.0
C721 C 0.08986 0.80372 0.66366 0.0
C722 C 0.97295 0.67308 0.68222 0.0
C723 C 0.10305 0.83823 0.69657 0.0
C724 C 0.97227 0.7516 0.73495 0.0
C725 C 0.99104 0.73381 0.74821 0.0
C726 C 0.98773 0.7597 0.71587 0.0
C727 C 0.02247 0.74934 0.7098 0.0
C728 C 0.04128 0.73115 0.72316 0.0
C729 C 0.02557 0.72387 0.74213 0.0
C730 C 0.96683 0.7793 0.70216 0.0
C731 C 0.07779 0.71892 0.71738 0.0
H732 H 1.00836 0.69776 0.64687 0.0
H733 H 0.11866 0.83656 0.65878 0.0
H734 H 0.98352 0.65779 0.69391 0.0
H735 H 0.94466 0.6785 0.68779 0.0
H736 H 0.95879 0.64762 0.67034 0.0
H737 H 0.13265 0.86866 0.68954 0.0
H738 H 0.07927 0.84939 0.70266 0.0
H739 H 0.11676 0.82695 0.70861 0.0
H740 H 0.94582 0.75964 0.73952 0.0
H741 H 0.04025 0.70995 0.75222 0.0
H742 H 0.94899 0.75423 0.69042 0.0
H743 H 0.99479 0.81187 0.69568 0.0
H744 H 0.9413 0.78692 0.70917 0.0
H745 H 0.06392 0.69225 0.70596 0.0
H746 H 0.08908 0.70527 0.72947 0.0
H747 H 0.10878 0.75011 0.71153 0.0
C748 C 0.2901 0.98333 0.94542 0.0
C749 C 0.28146 0.01968 0.94095 0.0
C750 C 0.28077 0.96308 0.96369 0.0
C751 C 0.26172 0.97902 0.97791 0.0
C752 C 0.25208 0.01511 0.97336 0.0
C753 C 0.26234 0.03517 0.95503 0.0
C754 C 0.29236 0.92534 0.96791 0.0
C755 C 0.23149 0.03306 0.98797 0.0
C756 C 0.20404 0.90729 0.02285 0.0
C757 C 0.23844 0.93171 0.03661 0.0
C758 C 0.21145 0.92133 1.00356 0.0
C759 C 0.25454 0.96018 0.99785 0.0
C760 C 0.29032 0.98286 1.01155 0.0
C761 C 0.28173 0.96862 0.03068 0.0
C762 C 0.17227 0.89622 0.98949 0.0
C763 C 0.33711 0.02375 1.0062 0.0
H764 H 0.30502 0.97116 0.93469 0.0
H765 H 0.25527 0.063 0.95171 0.0
H766 H 0.3196 0.93743 0.9791 0.0
H767 H 0.26118 0.89391 0.9735 0.0
H768 H 0.30515 0.91539 0.95513 0.0
H769 H 0.22342 0.05922 0.98192 0.0
H770 H 0.19901 1.00377 0.99393 0.0
H771 H 0.25628 0.04934 0.99994 0.0
H772 H 0.17036 0.87908 0.02732 0.0
H773 H 0.3086 0.98763 0.04121 0.0
H774 H 0.18483 0.88617 0.97671 0.0
H775 H 0.15962 0.91988 0.9847 0.0
H776 H 0.14248 0.86446 0.99571 0.0
H777 H 0.35188 0.01484 0.99379 0.0
H778 H 0.36253 0.03494 0.0181 0.0
H779 H 0.3328 0.05365 1.00198 0.0
C780 C 0.0802 0.06953 0.268 0.0
C781 C 0.09338 0.11138 0.25845 0.0
C782 C 0.04064 0.02808 0.2624 0.0
C783 C 0.0142 0.02848 0.24664 0.0
C784 C 0.02751 0.07067 0.23686 0.0
C785 C 0.06676 0.11182 0.24304 0.0
C786 C 0.02695 0.98396 0.27344 0.0
C787 C 1.00046 0.07236 0.21987 0.0
C788 C 0.93409 0.91089 0.22408 0.0
C789 C 0.89115 0.9 0.23213 0.0
C790 C 0.97441 0.95336 0.22822 0.0
C791 C 0.97157 0.98496 0.24097 0.0
C792 C 0.9282 0.97406 0.24908 0.0
C793 C 0.88848 0.93181 0.24446 0.0
C794 C 0.01998 0.96431 0.21903 0.0
C795 C 0.92393 1.00647 0.263 0.0
H796 H 0.10076 0.06945 0.27998 0.0
H797 H 0.07743 0.14414 0.23549 0.0
H798 H 0.99131 0.96991 0.27932 0.0
H799 H 0.02619 0.95701 0.26384 0.0
H800 H 0.05127 0.98967 0.28536 0.0
H801 H 0.01836 0.10677 0.21265 0.0
H802 H 0.99517 0.04505 0.20942 0.0
H803 H 0.96549 0.06528 0.2245 0.0
H804 H 0.9359 0.88636 0.21442 0.0
H805 H 0.85537 0.92304 0.25091 0.0
H806 H 0.04535 0.9677 0.23011 0.0
H807 H 0.03515 0.99817 0.21145 0.0
H808 H 0.0158 0.93699 0.20876 0.0
H809 H 0.94582 0.01135 0.2757 0.0
H810 H 0.88741 0.9931 0.26774 0.0
H811 H 0.93689 0.04124 0.25644 0.0
C812 C 0.06081 0.12754 0.57729 0.0
C813 C 0.02458 0.12297 0.56552 0.0
C814 C 0.06406 0.08859 0.58263 0.0
C815 C 0.03053 0.04412 0.57583 0.0
C816 C 0.99448 0.03939 0.56355 0.0
C817 C 0.99163 0.07896 0.5587 0.0
C818 C 0.10264 0.09489 0.59593 0.0
C819 C 0.95869 0.99255 0.55572 0.0
C820 C 0.06088 0.94813 0.57868 0.0
C821 C 0.03553 0.92353 0.59477 0.0
C822 C 0.05915 0.98721 0.57216 0.0
C823 C 0.0322 1.00241 0.58226 0.0
C824 C 1.00733 0.97822 0.59875 0.0
C825 C 1.00901 0.93876 0.60471 0.0
C826 C 0.0856 0.01177 0.55438 0.0
C827 C 0.97886 0.99392 0.61006 0.0
H828 H 0.08589 0.16154 0.58277 0.0
H829 H 0.96392 0.0757 0.54948 0.0
H830 H 0.08744 0.07521 0.60929 0.0
H831 H 0.12338 0.08065 0.58937 0.0
H832 H 0.12649 0.13204 0.59958 0.0
H833 H 0.93631 0.97019 0.56747 0.0
H834 H 0.93607 0.99556 0.54481 0.0
H835 H 0.97612 0.97466 0.54928 0.0
H836 H 0.08075 0.9358 0.57081 0.0
H837 H 0.98961 0.91967 0.61718 0.0
H838 H 0.11395 0.04734 0.558 0.0
H839 H 0.06217 0.01551 0.54413 0.0
H840 H 0.10119 0.99284 0.54729 0.0
H841 H 1.00133 0.03043 0.61484 0.0
H842 H 0.96231 0.9717 0.62274 0.0
H843 H 0.95111 0.99313 0.60095 0.0
C844 C 0.11816 0.04273 0.89276 0.0
C845 C 0.12507 1.00434 0.8928 0.0
C846 C 0.07653 0.03874 0.89959 0.0
C847 C 0.04156 0.99549 0.90693 0.0
C848 C 0.04805 0.95641 0.9067 0.0
C849 C 0.08967 0.96128 0.89954 0.0
C850 C 0.07033 0.08088 0.89926 0.0
C851 C 0.0116 0.90978 0.91454 0.0
C852 C 0.95582 0.99112 0.94361 0.0
C853 C 0.91475 0.97378 0.93287 0.0
C854 C 0.99771 0.99954 0.93522 0.0
C855 C 0.99875 0.99111 0.91555 0.0
C856 C 0.95805 0.9753 0.90444 0.0
C857 C 0.91651 0.96653 0.91324 0.0
C858 C 0.04051 0.01605 0.94754 0.0
C859 C 0.95811 0.9665 0.88334 0.0
H860 H 0.14548 0.0759 0.88745 0.0
H861 H 0.0952 0.93173 0.89988 0.0
H862 H 0.0372 0.07232 0.89204 0.0
H863 H 0.06815 0.09142 0.91403 0.0
H864 H 0.0995 0.11098 0.89187 0.0
H865 H 0.02174 0.88266 0.91295 0.0
H866 H 1.00588 0.91326 0.92987 0.0
H867 H 0.97785 0.8977 0.90717 0.0
H868 H 0.95533 0.99785 0.95865 0.0
H869 H 0.88526 0.95274 0.9047 0.0
H870 H 0.06987 0.04848 0.94161 0.0
H871 H 0.05147 0.9894 0.94766 0.0
H872 H 0.03437 0.02276 0.96245 0.0
H873 H 0.98518 0.99841 0.87613 0.0
H874 H 0.92385 0.95574 0.8766 0.0
H875 H 0.96698 0.93878 0.88085 0.0
C876 C 0.93476 0.90455 0.45038 0.0
C877 C 0.90259 0.90807 0.43853 0.0
C878 C 0.97551 0.94428 0.45634 0.0
C879 C 0.98437 0.98859 0.4502 0.0
C880 C 0.95168 0.99256 0.43852 0.0
C881 C 0.91097 0.95212 0.43287 0.0
C882 C 1.00932 0.9388 0.46903 0.0
C883 C 0.96015 0.03938 0.43171 0.0
C884 C 0.07554 0.09435 0.47691 0.0
C885 C 0.11483 0.10812 0.46539 0.0
C886 C 0.03256 0.05554 0.47212 0.0
C887 C 0.02899 0.03047 0.4553 0.0
C888 C 0.06853 0.04443 0.44357 0.0
C889 C 0.11109 0.083 0.44883 0.0
C890 C 0.9912 0.04114 0.48509 0.0
C891 C 0.06586 0.01868 0.42546 0.0
H892 H 0.92779 0.87065 0.45524 0.0
H893 H 0.88607 0.95484 0.42374 0.0
H894 H 0.04311 0.95176 0.46157 0.0
H895 H 0.01624 0.95999 0.48211 0.0
H896 H 0.99614 0.90197 0.47323 0.0
H897 H 0.93062 0.0365 0.42315 0.0
H898 H 0.96577 0.06248 0.44404 0.0
H899 H 0.99225 0.05639 0.42291 0.0
H900 H 0.07867 0.11373 0.48977 0.0
H901 H 0.14128 0.09419 0.43976 0.0
H902 H 0.97853 1.00527 0.49042 0.0
H903 H 0.96212 0.04067 0.47707 0.0
H904 H 0.9997 0.06483 0.49749 0.0
H905 H 0.0556 0.98206 0.42879 0.0
H906 H 0.09957 0.0349 0.41767 0.0
H907 H 0.03874 0.01783 0.41592 0.0
C908 C 0.06098 0.93481 0.7833 0.0
C909 C 0.02653 0.90304 0.79565 0.0
C910 C 0.06324 0.97688 0.77854 0.0
C911 C 0.0306 0.98767 0.78657 0.0
C912 C 0.99625 0.95612 0.79937 0.0
C913 C 0.9943 0.91379 0.8036 0.0
C914 C 0.0998 0.00922 0.76456 0.0
C915 C 0.96148 0.96697 0.8085 0.0
C916 C 0.0615 0.11428 0.78445 0.0
C917 C 0.03413 0.1136 0.76911 0.0
C918 C 0.06002 0.07329 0.7906 0.0
C919 C 0.0313 0.03106 0.78083 0.0
C920 C 1.00423 0.03044 0.76513 0.0
C921 C 1.00565 0.07172 0.75958 0.0
C922 C 0.08892 0.07517 0.80755 0.0
C923 C 0.974 0.98626 0.75411 0.0
H924 H 0.08545 0.9261 0.77694 0.0
H925 H 0.96795 0.88924 0.81327 0.0
H926 H 0.08267 0.0139 0.75185 0.0
H927 H 0.12154 0.04407 0.77105 0.0
H928 H 0.12301 0.99589 0.75985 0.0
H929 H 0.93883 0.94001 0.81899 0.0
H930 H 0.98 1.0012 0.81581 0.0
H931 H 0.93904 0.96952 0.7974 0.0
H932 H 0.083 0.14663 0.79198 0.0
H933 H 0.98477 0.07148 0.74766 0.0
H934 H 0.06692 0.04814 0.81811 0.0
H935 H 0.10568 0.10973 0.81465 0.0
H936 H 0.1166 0.06776 0.80295 0.0
H937 H 0.99571 0.97228 0.74829 0.0
H938 H 0.95542 0.99188 0.74214 0.0
H939 H 0.9478 0.95931 0.7637 0.0
C940 C 0.93271 0.04221 0.12068 0.0
C941 C 0.90215 0.01267 0.13476 0.0
C942 C 0.96902 0.03619 0.11379 0.0
C943 C 0.97458 0.9994 0.12097 0.0
C944 C 0.94553 0.97093 0.13583 0.0
C945 C 0.90987 0.97817 0.14266 0.0
C946 C 0.99993 0.06776 0.09813 0.0
C947 C 0.95053 0.93135 0.14386 0.0
C948 C 0.02658 0.94957 0.08675 0.0
C949 C 0.07234 0.96939 0.09348 0.0
C950 C 0.99418 0.95849 0.09581 0.0
C951 C 1.00823 0.98844 0.11181 0.0
C952 C 0.05446 0.00863 0.11866 0.0
C953 C 0.08595 0.99862 0.10945 0.0
C954 C 0.94491 0.93582 0.08828 0.0
C955 C 0.07073 0.04115 0.13555 0.0
H956 H 0.92725 0.06885 0.11436 0.0
H957 H 0.88731 0.95596 0.15387 0.0
H958 H 0.03718 0.08137 0.10168 0.0
H959 H 0.99266 0.04767 0.08471 0.0
H960 H 0.99435 0.09771 0.09559 0.0
H961 H 0.9284 0.91552 0.15664 0.0
H962 H 0.94035 0.90389 0.13287 0.0
H963 H 0.98733 0.94353 0.14771 0.0
H964 H 0.01592 0.92636 0.07461 0.0
H965 H 0.12151 0.0142 0.11454 0.0
H966 H 0.93664 0.96293 0.08373 0.0
H967 H 0.91992 0.91517 0.09971 0.0
H968 H 0.93937 0.91248 0.07601 0.0
H969 H 0.0669 0.07191 0.13248 0.0
H970 H 0.10771 0.05342 0.13923 0.0
H971 H 0.04875 0.02344 0.14815 0.0
C972 C 0.90639 0.21541 0.18477 0.0
C973 C 0.89397 0.18018 0.17105 0.0
C974 C 0.95006 0.23623 0.1942 0.0
C975 C 0.98238 0.22089 0.1904 0.0
C976 C 0.97013 0.18543 0.1765 0.0
C977 C 0.92667 0.1661 0.1669 0.0
C978 C 0.96138 0.27448 0.20845 0.0
C979 C 1.00236 0.16675 0.17216 0.0
C980 C 0.11249 0.29881 0.20314 0.0
C981 C 0.11638 0.28141 0.22094 0.0
C982 C 0.06947 0.28012 0.19331 0.0
C983 C 0.02867 0.24177 0.20099 0.0
C984 C 0.03228 0.22389 0.21893 0.0
C985 C 0.07548 0.24444 0.22878 0.0
C986 C 0.06776 0.30153 0.17459 0.0
C987 C 0.99051 0.1826 0.22773 0.0
H988 H 0.88166 0.22665 0.18826 0.0
H989 H 0.91758 0.13846 0.15668 0.0
H990 H 0.96488 0.26282 0.22284 0.0
H991 H 0.99527 0.30565 0.20486 0.0
H992 H 0.93416 0.28471 0.20896 0.0
H993 H 0.98763 0.13854 0.16134 0.0
H994 H 0.0363 0.1952 0.16691 0.0
H995 H 1.00942 0.15297 0.18537 0.0
H996 H 0.14335 0.32742 0.19679 0.0
H997 H 0.07716 0.23067 0.24249 0.0
H998 H 0.04101 0.31235 0.17521 0.0
H999 H 0.05744 0.2754 0.16304 0.0
H1000 H 0.10183 0.33233 0.17082 0.0
H1001 H 0.96523 0.19314 0.23255 0.0
H1002 H 1.00024 0.16841 0.24013 0.0
H1003 H 0.97254 0.15442 0.21708 0.0
C1004 C 0.82773 0.11633 0.50492 0.0
C1005 C 0.85743 0.12429 0.52055 0.0
C1006 C 0.8041 0.07262 0.49558 0.0
C1007 C 0.81088 0.03542 0.50148 0.0
C1008 C 0.84082 0.04319 0.51729 0.0
C1009 C 0.86314 0.08702 0.52669 0.0
C1010 C 0.77189 0.06638 0.47925 0.0
C1011 C 0.85067 1.00566 0.52392 0.0
C1012 C 0.72111 0.90845 0.48791 0.0
C1013 C 0.7407 0.90029 0.47158 0.0
C1014 C 0.74292 0.95197 0.49747 0.0
C1015 C 0.78667 0.98872 0.49112 0.0
C1016 C 0.80675 0.98075 0.47467 0.0
C1017 C 0.78329 0.93737 0.46499 0.0
C1018 C 0.71912 0.95847 0.51454 0.0
C1019 C 0.85372 0.01784 0.46746 0.0
H1020 H 0.82289 0.14457 0.49991 0.0
H1021 H 0.88652 0.09259 0.53846 0.0
H1022 H 0.78528 0.05924 0.46596 0.0
H1023 H 0.73683 0.03592 0.48195 0.0
H1024 H 0.76825 0.09759 0.47697 0.0
H1025 H 0.87159 0.0155 0.53722 0.0
H1026 H 0.81764 0.97259 0.5264 0.0
H1027 H 0.87011 0.99893 0.51268 0.0
H1028 H 0.68837 0.88051 0.49333 0.0
H1029 H 0.7994 0.93221 0.45263 0.0
H1030 H 0.71468 0.98922 0.51238 0.0
H1031 H 0.74111 0.96533 0.52737 0.0
H1032 H 0.68438 0.92751 0.51728 0.0
H1033 H 0.85143 0.04832 0.46237 0.0
H1034 H 0.86668 1.00516 0.45561 0.0
H1035 H 0.87964 0.0301 0.47917 0.0
C1036 C 0.86431 0.77305 0.83573 0.0
C1037 C 0.86427 0.73311 0.84261 0.0
C1038 C 0.84104 0.79305 0.84561 0.0
C1039 C 0.81608 0.77244 0.86271 0.0
C1040 C 0.8151 0.73152 0.8694 0.0
C1041 C 0.8393 0.71285 0.85948 0.0
C1042 C 0.84419 0.83706 0.83795 0.0
C1043 C 0.78889 0.7076 0.88731 0.0
C1044 C 0.7901 0.84355 0.89945 0.0
C1045 C 0.74318 0.8301 0.89573 0.0
C1046 C 0.8142 0.82583 0.88875 0.0
C1047 C 0.79133 0.79347 0.87375 0.0
C1048 C 0.74404 0.7798 0.86992 0.0
C1049 C 0.72081 0.79817 0.88081 0.0
C1050 C 0.86442 0.84186 0.89351 0.0
C1051 C 0.71767 0.74528 0.85432 0.0
H1052 H 0.88388 0.78969 0.82295 0.0
H1053 H 0.8388 0.68213 0.86508 0.0
H1054 H 0.86358 0.84822 0.82428 0.0
H1055 H 0.80873 0.8319 0.83576 0.0
H1056 H 0.86206 0.86558 0.84847 0.0
H1057 H 0.79005 0.67531 0.89038 0.0
H1058 H 0.80393 0.73154 0.89961 0.0
H1059 H 0.7519 0.69854 0.88603 0.0
H1060 H 0.80829 0.86823 0.91078 0.0
H1061 H 0.68481 0.78731 0.87758 0.0
H1062 H 0.88676 0.85971 0.88102 0.0
H1063 H 0.8687 0.81147 0.8968 0.0
H1064 H 0.87711 0.86599 0.90585 0.0
H1065 H 0.736 0.75837 0.84054 0.0
H1066 H 0.68141 0.73851 0.85281 0.0
H1067 H 0.71644 0.7118 0.85732 0.0
C1068 C 0.08854 0.79203 0.14453 0.0
C1069 C 0.10035 0.82711 0.13077 0.0
C1070 C 0.04696 0.77398 0.15542 0.0
C1071 C 0.01583 0.79139 0.15285 0.0
C1072 C 0.02785 0.82725 0.13916 0.0
C1073 C 0.06936 0.84425 0.1283 0.0
C1074 C 0.0361 0.73572 0.16962 0.0
C1075 C 0.99665 0.84769 0.13585 0.0
C1076 C 0.88599 0.71373 0.16592 0.0
C1077 C 0.88217 0.73108 0.18373 0.0
C1078 C 0.92886 0.73255 0.15601 0.0
C1079 C 0.96985 0.77054 0.16373 0.0
C1080 C 0.96641 0.78822 0.18177 0.0
C1081 C 0.92301 0.76822 0.19155 0.0
C1082 C 0.9301 0.71187 0.13703 0.0
C1083 C 1.0085 0.82902 0.1906 0.0
H1084 H 0.11178 0.7783 0.14678 0.0
H1085 H 0.07761 0.8714 0.1179 0.0
H1086 H 0.03139 0.74661 0.18399 0.0
H1087 H 1.00285 0.70412 0.16574 0.0
H1088 H 0.06399 0.72643 0.17034 0.0
H1089 H 0.0123 0.87768 0.12584 0.0
H1090 H 0.96276 0.82062 0.12995 0.0
H1091 H 0.98927 0.85946 0.14952 0.0
H1092 H 0.85508 0.68521 0.15957 0.0
H1093 H 0.92086 0.78261 0.2051 0.0
H1094 H 0.95625 0.70026 0.13737 0.0
H1095 H 0.94093 0.73871 0.12574 0.0
H1096 H 0.89573 0.68172 0.13309 0.0
H1097 H 0.03673 0.82058 0.19249 0.0
H1098 H 1.00051 0.83886 0.20463 0.0
H1099 H 0.02203 0.8596 0.18097 0.0
C1100 C 0.17814 0.93723 0.56161 0.0
C1101 C 0.17156 0.8957 0.55334 0.0
C1102 C 0.20057 0.98033 0.55166 0.0
C1103 C 0.21939 0.98319 0.53318 0.0
C1104 C 0.21466 0.94177 0.52511 0.0
C1105 C 0.19035 0.89888 0.53503 0.0
C1106 C 0.20354 0.02276 0.56096 0.0
C1107 C 0.23533 0.94262 0.50587 0.0
C1108 C 0.24357 0.08498 0.49922 0.0
C1109 C 0.2909 0.11719 0.5026 0.0
C1110 C 0.21997 0.04183 0.50906 0.0
C1111 C 0.24423 0.02926 0.52237 0.0
C1112 C 0.2924 0.06106 0.52534 0.0
C1113 C 0.31472 0.10455 0.51576 0.0
C1114 C 0.16852 0.01025 0.5056 0.0
C1115 C 0.32054 0.04932 0.5388 0.0
H1116 H 0.16466 0.93613 0.57569 0.0
H1117 H 0.18608 0.86753 0.52834 0.0
H1118 H 0.23981 0.0464 0.56574 0.0
H1119 H 0.19431 0.04231 0.55068 0.0
H1120 H 0.18013 0.0135 0.57351 0.0
H1121 H 0.23138 0.90833 0.502 0.0
H1122 H 0.21816 0.95263 0.49477 0.0
H1123 H 0.27296 0.96917 0.50573 0.0
H1124 H 0.2243 0.09432 0.48944 0.0
H1125 H 0.35113 0.12893 0.51865 0.0
H1126 H 0.14936 1.00231 0.51929 0.0
H1127 H 0.16215 0.97669 0.49953 0.0
H1128 H 0.15392 0.02591 0.49573 0.0
H1129 H 0.30773 0.04714 0.55355 0.0
H1130 H 0.35826 0.07567 0.53841 0.0
H1131 H 0.31618 0.01476 0.53519 0.0
C1132 C 0.32344 0.2156 0.84275 0.0
C1133 C 0.30012 0.17943 0.85606 0.0
C1134 C 0.30077 0.23655 0.83327 0.0
C1135 C 0.25274 0.22037 0.83656 0.0
C1136 C 0.22891 0.18378 0.84999 0.0
C1137 C 0.2529 0.16444 0.85973 0.0
C1138 C 0.32837 0.27602 0.81959 0.0
C1139 C 0.17776 0.16447 0.85405 0.0
C1140 C 0.20047 0.29851 0.82426 0.0
C1141 C 0.18066 0.28263 0.80611 0.0
C1142 C 0.22423 0.27918 0.83408 0.0
C1143 C 0.2278 0.24184 0.826 0.0
C1144 C 0.20776 0.22545 0.80772 0.0
C1145 C 0.18554 0.24653 0.79792 0.0
C1146 C 0.24532 0.29867 0.85329 0.0
C1147 C 0.20909 0.18495 0.79858 0.0
H1148 H 0.35977 0.22758 0.83965 0.0
H1149 H 0.23401 0.13619 0.8697 0.0
H1150 H 0.31404 0.2656 0.80501 0.0
H1151 H 0.32528 0.30678 0.82357 0.0
H1152 H 0.36588 0.28643 0.81931 0.0
H1153 H 0.16167 0.12915 0.86044 0.0
H1154 H 0.17364 0.18773 0.86422 0.0
H1155 H 0.1583 0.16259 0.84091 0.0
H1156 H 0.19738 0.32632 0.83092 0.0
H1157 H 0.17114 0.23386 0.78396 0.0
H1158 H 0.28276 0.30892 0.85336 0.0
H1159 H 0.22774 0.27151 0.86436 0.0
H1160 H 0.24215 0.32944 0.85722 0.0
H1161 H 0.18643 0.1719 0.78578 0.0
H1162 H 0.19777 0.15584 0.80887 0.0
H1163 H 0.24535 0.19581 0.7943 0.0
C1164 C 0.36155 0.25047 0.20503 0.0
C1165 C 0.32944 0.2638 0.19903 0.0
C1166 C 0.37289 0.22373 0.19314 0.0
C1167 C 0.3505 0.20941 0.17533 0.0
C1168 C 0.32491 0.22973 0.16803 0.0
C1169 C 0.31476 0.25704 0.18006 0.0
C1170 C 0.40325 0.20541 0.20073 0.0
C1171 C 0.30214 0.21688 0.14868 0.0
C1172 C 0.34674 0.121 0.14079 0.0
C1173 C 0.30458 0.08194 0.14626 0.0
C1174 C 0.3656 0.16227 0.15136 0.0
C1175 C 0.34087 0.16428 0.16737 0.0
C1176 C 0.30077 0.1234 0.17395 0.0
C1177 C 0.28327 0.08254 0.16331 0.0
C1178 C 0.4097 0.20422 0.14441 0.0
C1179 C 0.27352 0.12376 0.19116 0.0
H1180 H 0.37396 0.25647 0.21959 0.0
H1181 H 0.29149 0.26909 0.17522 0.0
H1182 H 0.38105 0.17127 0.20773 0.0
H1183 H 0.42283 0.2002 0.18908 0.0
H1184 H 0.42834 0.22951 0.21146 0.0
H1185 H 0.28922 0.24055 0.14414 0.0
H1186 H 0.32699 0.21799 0.13785 0.0
H1187 H 0.27209 0.18078 0.14912 0.0
H1188 H 0.36374 0.11997 0.12776 0.0
H1189 H 0.25076 0.05217 0.16751 0.0
H1190 H 0.42813 0.22977 0.15595 0.0
H1191 H 0.40094 0.22173 0.13301 0.0
H1192 H 0.43372 0.19347 0.13819 0.0
H1193 H 0.29679 0.13799 0.20369 0.0
H1194 H 0.24464 0.08842 0.19484 0.0
H1195 H 0.25839 0.14648 0.18839 0.0
C1196 C 0.12991 0.40085 0.53125 0.0
C1197 C 0.10519 0.37145 0.51586 0.0
C1198 C 0.17674 0.41459 0.53445 0.0
C1199 C 0.19884 0.39811 0.52213 0.0
C1200 C 0.17717 0.37681 0.50468 0.0
C1201 C 0.13037 0.36382 0.5017 0.0
C1202 C 0.19956 0.44013 0.5526 0.0
C1203 C 0.20085 0.36121 0.4905 0.0
C1204 C 0.31199 0.3985 0.52497 0.0
C1205 C 0.29372 0.35049 0.52831 0.0
C1206 C 0.28255 0.41763 0.52486 0.0
C1207 C 0.23521 0.38886 0.52969 0.0
C1208 C 0.22051 0.34484 0.53807 0.0
C1209 C 0.24996 0.32601 0.53723 0.0
C1210 C 0.30095 0.46624 0.51724 0.0
C1211 C 0.17127 0.31432 0.54518 0.0
H1212 H 0.11179 0.40849 0.54224 0.0
H1213 H 0.11231 0.34327 0.48929 0.0
H1214 H 0.18902 0.41474 0.56447 0.0
H1215 H 0.23814 0.45897 0.55157 0.0
H1216 H 0.18792 0.46535 0.55622 0.0
H1217 H 0.1832 0.35303 0.47644 0.0
H1218 H 0.23785 0.38848 0.48858 0.0
H1219 H 0.20012 0.32935 0.49591 0.0
H1220 H 0.3476 0.41993 0.52017 0.0
H1221 H 0.23559 0.29007 0.54141 0.0
H1222 H 0.33746 0.48934 0.52198 0.0
H1223 H 0.27937 0.48154 0.52175 0.0
H1224 H 0.3011 0.46517 0.50145 0.0
H1225 H 0.15951 0.33474 0.55366 0.0
H1226 H 0.16831 0.28544 0.5542 0.0
H1227 H 0.14731 0.29901 0.53288 0.0
C1228 C 0.95964 0.26004 0.84782 0.0
C1229 C 0.95202 0.2677 0.82892 0.0
C1230 C 0.92198 0.23295 0.85978 0.0
C1231 C 0.87615 0.21375 0.85251 0.0
C1232 C 0.86856 0.22907 0.83484 0.0
C1233 C 0.90683 0.25557 0.823 0.0
C1234 C 0.93144 0.21906 0.87901 0.0
C1235 C 0.82005 0.21199 0.8273 0.0
C1236 C 0.81471 0.08646 0.86381 0.0
C1237 C 0.79317 0.08572 0.88097 0.0
C1238 C 0.83848 0.12759 0.85334 0.0
C1239 C 0.84004 0.1686 0.86024 0.0
C1240 C 0.81358 0.16653 0.87635 0.0
C1241 C 0.7907 0.12496 0.88672 0.0
C1242 C 0.86573 0.12801 0.836 0.0
C1243 C 0.81225 0.20867 0.88362 0.0
H1244 H 0.99481 0.27119 0.85261 0.0
H1245 H 0.90063 0.26227 0.80851 0.0
H1246 H 0.90799 0.22037 0.88993 0.0
H1247 H 0.92464 0.18271 0.87834 0.0
H1248 H 0.96813 0.24198 0.88359 0.0
H1249 H 0.81966 0.23682 0.81677 0.0
H1250 H 0.80747 0.17802 0.82007 0.0
H1251 H 0.79542 0.20685 0.83901 0.0
H1252 H 0.81637 0.05597 0.85939 0.0
H1253 H 0.77293 0.12385 0.89984 0.0
H1254 H 0.90366 0.15003 0.83877 0.0
H1255 H 0.85706 0.14305 0.82363 0.0
H1256 H 0.85857 0.09256 0.83206 0.0
H1257 H 0.83855 0.22539 0.89507 0.0
H1258 H 0.77759 0.19827 0.88989 0.0
H1259 H 0.81985 0.23477 0.87226 0.0
C1260 C 0.61211 0.73827 0.2025 0.0
C1261 C 0.6389 0.74185 0.1863 0.0
C1262 C 0.59999 0.77222 0.20648 0.0
C1263 C 0.61547 0.8106 0.19412 0.0
C1264 C 0.63427 0.80953 0.17611 0.0
C1265 C 0.64569 0.77487 0.17237 0.0
C1266 C 0.57726 0.7704 0.22532 0.0
C1267 C 0.64889 0.84874 0.16198 0.0
C1268 C 0.61664 0.92388 0.19807 0.0
C1269 C 0.66508 0.95331 0.20047 0.0
C1270 C 0.59713 0.87531 0.19797 0.0
C1271 C 0.62618 0.85647 0.20184 0.0
C1272 C 0.67131 0.88557 0.20933 0.0
C1273 C 0.69033 0.93382 0.20856 0.0
C1274 C 0.54755 0.84532 0.19132 0.0
C1275 C 0.70242 0.86654 0.21534 0.0
H1276 H 0.60536 0.71253 0.21339 0.0
H1277 H 0.66433 0.77667 0.15943 0.0
H1278 H 0.60433 0.78493 0.23659 0.0
H1279 H 0.55903 0.79081 0.22507 0.0
H1280 H 0.55194 0.7338 0.22926 0.0
H1281 H 0.65505 0.83888 0.14761 0.0
H1282 H 0.62196 0.8592 0.16087 0.0
H1283 H 0.68174 0.87949 0.16688 0.0
H1284 H 0.59491 0.93827 0.19393 0.0
H1285 H 0.7268 0.95519 0.21204 0.0
H1286 H 0.53235 0.80869 0.19611 0.0
H1287 H 0.54679 0.84565 0.17553 0.0
H1288 H 0.52539 0.85945 0.19651 0.0
H1289 H 0.68302 0.8349 0.22422 0.0
H1290 H 0.73303 0.89257 0.22358 0.0
H1291 H 0.71531 0.85686 0.20253 0.0
C1292 C 0.74991 0.69214 0.51449 0.0
C1293 C 0.73641 0.67475 0.49603 0.0
C1294 C 0.77799 0.68027 0.5252 0.0
C1295 C 0.79121 0.64927 0.5173 0.0
C1296 C 0.76921 0.62413 0.50065 0.0
C1297 C 0.74255 0.63782 0.48988 0.0
C1298 C 0.79912 0.70634 0.54346 0.0
C1299 C 0.77906 0.58752 0.49286 0.0
C1300 C 0.92077 0.70391 0.52206 0.0
C1301 C 0.92422 0.68643 0.53972 0.0
C1302 C 0.87731 0.68916 0.51374 0.0
C1303 C 0.83652 0.65464 0.52301 0.0
C1304 C 0.84029 0.63228 0.53944 0.0
C1305 C 0.8841 0.6491 0.54787 0.0
C1306 C 0.87501 0.71378 0.49598 0.0
C1307 C 0.79817 0.59323 0.54909 0.0
H1308 H 0.74305 0.71898 0.51966 0.0
H1309 H 0.73115 0.62301 0.47583 0.0
H1310 H 0.79676 0.68196 0.55478 0.0
H1311 H 0.8366 0.73185 0.54115 0.0
H1312 H 0.78164 0.72552 0.54855 0.0
H1313 H 0.74969 0.56204 0.48391 0.0
H1314 H 0.81077 0.60436 0.48383 0.0
H1315 H 0.78526 0.56866 0.50452 0.0
H1316 H 0.95184 0.73135 0.51531 0.0
H1317 H 0.88603 0.63486 0.56149 0.0
H1318 H 0.85587 0.73261 0.49904 0.0
H1319 H 0.85589 0.68815 0.48458 0.0
H1320 H 0.91014 0.73933 0.49049 0.0
H1321 H 0.78813 0.60733 0.56139 0.0
H1322 H 0.8066 0.567 0.55476 0.0
H1323 H 0.76786 0.57554 0.53936 0.0
C1324 C 0.32378 0.92332 0.83025 0.0
C1325 C 0.30564 0.95332 0.82721 0.0
C1326 C 0.29403 0.87487 0.83074 0.0
C1327 C 0.24634 0.8566 0.82663 0.0
C1328 C 0.23122 0.8859 0.81856 0.0
C1329 C 0.26116 0.93407 0.81889 0.0
C1330 C 0.31267 0.84454 0.83802 0.0
C1331 C 0.18133 0.86737 0.8123 0.0
C1332 C 0.14148 0.73881 0.82617 0.0
C1333 C 0.11792 0.74304 0.84211 0.0
C1334 C 0.18772 0.77242 0.82227 0.0
C1335 C 0.21047 0.81116 0.83445 0.0
C1336 C 0.19015 0.81088 0.85226 0.0
C1337 C 0.14394 0.77649 0.85594 0.0
C1338 C 0.20906 0.76981 0.80367 0.0
C1339 C 0.2145 0.85058 0.86618 0.0
H1340 H 0.35974 0.93728 0.83451 0.0
H1341 H 0.24678 0.95574 0.81485 0.0
H1342 H 0.29099 0.8078 0.8334 0.0
H1343 H 0.34909 0.85797 0.83313 0.0
H1344 H 0.31307 0.84537 0.85381 0.0
H1345 H 0.1774 0.89333 0.80369 0.0
H1346 H 0.16881 0.83527 0.80371 0.0
H1347 H 0.15853 0.85858 0.82501 0.0
H1348 H 0.12273 0.71278 0.81536 0.0
H1349 H 0.12685 0.77879 0.86871 0.0
H1350 H 0.2477 0.78986 0.80411 0.0
H1351 H 0.19717 0.78433 0.79214 0.0
H1352 H 0.19751 0.73303 0.79996 0.0
H1353 H 0.25179 0.86086 0.86757 0.0
H1354 H 0.19805 0.84134 0.88049 0.0
H1355 H 0.21278 0.88126 0.86089 0.0
loop_
_geom_bond_atom_site_label_1
_geom_bond_atom_site_label_2
_geom_bond_distance
_geom_bond_site_symmetry_2
_ccdc_geom_bond_type
Co0 N4 2.148 . S
Co0 N10 2.128 . S
Co0 N20 2.194 . S
Co0 O25 2.351 . S
Co0 O26 2.155 . S
Co0 O27 2.096 . S
C1 N4 1.301 . S
C1 N5 1.328 . S
C1 H6 0.930 . S
C2 C3 1.333 . S
C2 N4 1.317 . S
C2 H7 0.930 . S
C3 C2 1.333 . S
C3 N5 1.350 . S
C3 H29 0.931 . S
N4 Co0 2.148 . S
N4 C1 1.301 . S
N4 C2 1.317 . S
N5 C1 1.328 . S
N5 C3 1.350 . S
H6 C1 0.930 . S
H7 C2 0.930 . S
C8 O9 1.224 . S
C8 O27 1.247 . S
O9 C8 1.224 . S
N10 Co0 2.128 . S
N10 C11 1.355 . S
N10 C13 1.311 . S
C11 N10 1.355 . S
C11 C12 1.363 . S
C11 H23 0.929 . S
C12 C11 1.363 . S
C12 N14 1.375 . S
C12 H30 0.931 . S
C13 N10 1.311 . S
C13 N14 1.347 . S
C13 H24 0.929 . S
N14 C12 1.375 . S
N14 C13 1.347 . S
C15 C18 1.365 . S
C15 N20 1.328 . S
C15 H21 0.929 . S
C16 C17 1.362 . S
C16 C19 1.378 . S
C16 H31 0.929 . S
C17 C16 1.362 . S
C17 C18 1.366 . S
C18 C15 1.365 . S
C18 C17 1.366 . S
C18 H32 0.930 . S
C19 C16 1.378 . S
C19 N20 1.315 . S
C19 H22 0.930 . S
N20 Co0 2.194 . S
N20 C15 1.328 . S
N20 C19 1.315 . S
H21 C15 0.929 . S
H22 C19 0.930 . S
H23 C11 0.929 . S
H24 C13 0.929 . S
O25 Co0 2.351 . S
O25 C28 1.244 . S
O26 Co0 2.155 . S
O26 C28 1.240 . S
O27 Co0 2.096 . S
O27 C8 1.247 . S
C28 O25 1.244 . S
C28 O26 1.240 . S
H29 C3 0.931 . S
H30 C12 0.931 . S
H31 C16 0.929 . S
H32 C18 0.930 . S
Co33 N37 2.148 . S
Co33 N43 2.128 . S
Co33 N53 2.194 . S
Co33 O58 2.351 . S
Co33 O59 2.155 . S
Co33 O60 2.096 . S
C34 N37 1.301 . S
C34 N38 1.328 . S
C34 H39 0.930 . S
C35 C36 1.333 . S
C35 N37 1.317 . S
C35 H40 0.930 . S
C36 C35 1.333 . S
C36 N38 1.350 . S
C36 H62 0.931 . S
N37 Co33 2.148 . S
N37 C34 1.301 . S
N37 C35 1.317 . S
N38 C34 1.328 . S
N38 C36 1.350 . S
H39 C34 0.930 . S
H40 C35 0.930 . S
C41 O42 1.224 . S
C41 O60 1.247 . S
O42 C41 1.224 . S
N43 Co33 2.128 . S
N43 C44 1.355 . S
N43 C46 1.311 . S
C44 N43 1.355 . S
C44 C45 1.363 . S
C44 H56 0.929 1_655 S
C45 C44 1.363 . S
C45 N47 1.375 . S
C45 H63 0.931 1_655 S
C46 N43 1.311 . S
C46 N47 1.347 . S
C46 H57 0.929 . S
N47 C45 1.375 . S
N47 C46 1.347 . S
C48 C51 1.365 . S
C48 N53 1.328 1_455 S
C48 H54 0.929 . S
C49 C50 1.362 . S
C49 C52 1.378 1_455 S
C49 H64 0.929 . S
C50 C49 1.362 . S
C50 C51 1.366 . S
C51 C48 1.365 . S
C51 C50 1.366 . S
C51 H65 0.930 . S
C52 C49 1.378 1_655 S
C52 N53 1.315 . S
C52 H55 0.930 . S
N53 Co33 2.194 . S
N53 C48 1.328 1_655 S
N53 C52 1.315 . S
H54 C48 0.929 . S
H55 C52 0.930 . S
H56 C44 0.929 1_455 S
H57 C46 0.929 . S
O58 Co33 2.351 . S
O58 C61 1.244 . S
O59 Co33 2.155 . S
O59 C61 1.240 . S
O60 Co33 2.096 . S
O60 C41 1.247 . S
C61 O58 1.244 . S
C61 O59 1.240 . S
H62 C36 0.931 . S
H63 C45 0.931 1_455 S
H64 C49 0.929 . S
H65 C51 0.930 . S
Co66 N70 2.148 . S
Co66 N76 2.128 . S
Co66 N86 2.194 . S
Co66 O91 2.351 . S
Co66 O92 2.155 . S
Co66 O93 2.096 . S
C67 N70 1.301 . S
C67 N71 1.328 . S
C67 H72 0.930 . S
C68 C69 1.333 . S
C68 N70 1.317 . S
C68 H73 0.930 . S
C69 C68 1.333 . S
C69 N71 1.350 . S
C69 H95 0.931 . S
N70 Co66 2.148 . S
N70 C67 1.301 . S
N70 C68 1.317 . S
N71 C67 1.328 . S
N71 C69 1.350 . S
H72 C67 0.930 . S
H73 C68 0.930 . S
C74 O75 1.224 . S
C74 O93 1.247 . S
O75 C74 1.224 . S
N76 Co66 2.128 . S
N76 C77 1.355 . S
N76 C79 1.311 . S
C77 N76 1.355 . S
C77 C78 1.363 . S
C77 H89 0.929 1_565 S
C78 C77 1.363 . S
C78 N80 1.375 . S
C78 H96 0.931 1_565 S
C79 N76 1.311 . S
C79 N80 1.347 . S
C79 H90 0.929 . S
N80 C78 1.375 . S
N80 C79 1.347 . S
C81 C84 1.365 . S
C81 N86 1.328 1_545 S
C81 H87 0.929 . S
C82 C83 1.362 . S
C82 C85 1.378 1_545 S
C82 H97 0.929 . S
C83 C82 1.362 . S
C83 C84 1.366 . S
C84 C81 1.365 . S
C84 C83 1.366 . S
C84 H98 0.930 . S
C85 C82 1.378 1_565 S
C85 N86 1.315 . S
C85 H88 0.930 . S
N86 Co66 2.194 . S
N86 C81 1.328 1_565 S
N86 C85 1.315 . S
H87 C81 0.929 . S
H88 C85 0.930 . S
H89 C77 0.929 1_545 S
H90 C79 0.929 . S
O91 Co66 2.351 . S
O91 C94 1.244 . S
O92 Co66 2.155 . S
O92 C94 1.240 . S
O93 Co66 2.096 . S
O93 C74 1.247 . S
C94 O91 1.244 . S
C94 O92 1.240 . S
H95 C69 0.931 . S
H96 C78 0.931 1_545 S
H97 C82 0.929 . S
H98 C84 0.930 . S
Co99 N103 2.148 . S
Co99 N109 2.128 . S
Co99 N119 2.194 . S
Co99 O124 2.351 . S
Co99 O125 2.155 . S
Co99 O126 2.096 . S
C100 N103 1.301 . S
C100 N104 1.328 . S
C100 H105 0.930 . S
C101 C102 1.333 . S
C101 N103 1.317 . S
C101 H106 0.930 . S
C102 C101 1.333 . S
C102 N104 1.350 . S
C102 H128 0.931 . S
N103 Co99 2.148 . S
N103 C100 1.301 . S
N103 C101 1.317 . S
N104 C100 1.328 . S
N104 C102 1.350 . S
H105 C100 0.930 . S
H106 C101 0.930 . S
C107 O108 1.224 . S
C107 O126 1.247 . S
O108 C107 1.224 . S
N109 Co99 2.128 . S
N109 C110 1.355 . S
N109 C112 1.311 . S
C110 N109 1.355 . S
C110 C111 1.363 . S
C110 H122 0.929 . S
C111 C110 1.363 . S
C111 N113 1.375 . S
C111 H129 0.931 . S
C112 N109 1.311 . S
C112 N113 1.347 . S
C112 H123 0.929 . S
N113 C111 1.375 . S
N113 C112 1.347 . S
C114 C117 1.365 . S
C114 N119 1.328 . S
C114 H120 0.929 . S
C115 C116 1.362 . S
C115 C118 1.378 . S
C115 H130 0.929 . S
C116 C115 1.362 . S
C116 C117 1.366 . S
C117 C114 1.365 . S
C117 C116 1.366 . S
C117 H131 0.930 . S
C118 C115 1.378 . S
C118 N119 1.315 . S
C118 H121 0.930 . S
N119 Co99 2.194 . S
N119 C114 1.328 . S
N119 C118 1.315 . S
H120 C114 0.929 . S
H121 C118 0.930 . S
H122 C110 0.929 . S
H123 C112 0.929 . S
O124 Co99 2.351 . S
O124 C127 1.244 . S
O125 Co99 2.155 . S
O125 C127 1.240 . S
O126 Co99 2.096 . S
O126 C107 1.247 . S
C127 O124 1.244 . S
C127 O125 1.240 . S
H128 C102 0.931 . S
H129 C111 0.931 . S
H130 C115 0.929 . S
H131 C117 0.930 . S
Co132 N136 2.148 . S
Co132 N142 2.128 . S
Co132 N152 2.194 . S
Co132 O157 2.351 . S
Co132 O158 2.155 . S
Co132 O159 2.096 . S
C133 N136 1.301 . S
C133 N137 1.328 . S
C133 H138 0.930 . S
C134 C135 1.333 . S
C134 N136 1.317 . S
C134 H139 0.930 . S
C135 C134 1.333 . S
C135 N137 1.350 . S
C135 H161 0.931 . S
N136 Co132 2.148 . S
N136 C133 1.301 . S
N136 C134 1.317 . S
N137 C133 1.328 . S
N137 C135 1.350 . S
H138 C133 0.930 . S
H139 C134 0.930 . S
C140 O141 1.224 . S
C140 O159 1.247 . S
O141 C140 1.224 . S
N142 Co132 2.128 . S
N142 C143 1.355 . S
N142 C145 1.311 . S
C143 N142 1.355 . S
C143 C144 1.363 . S
C143 H155 0.929 1_455 S
C144 C143 1.363 . S
C144 N146 1.375 . S
C144 H162 0.931 1_455 S
C145 N142 1.311 . S
C145 N146 1.347 . S
C145 H156 0.929 . S
N146 C144 1.375 . S
N146 C145 1.347 . S
C147 C150 1.365 . S
C147 N152 1.328 1_655 S
C147 H153 0.929 . S
C148 C149 1.362 . S
C148 C151 1.378 1_655 S
C148 H163 0.929 . S
C149 C148 1.362 . S
C149 C150 1.366 . S
C150 C147 1.365 . S
C150 C149 1.366 . S
C150 H164 0.930 . S
C151 C148 1.378 1_455 S
C151 N152 1.315 . S
C151 H154 0.930 . S
N152 Co132 2.194 . S
N152 C147 1.328 1_455 S
N152 C151 1.315 . S
H153 C147 0.929 . S
H154 C151 0.930 . S
H155 C143 0.929 1_655 S
H156 C145 0.929 . S
O157 Co132 2.351 . S
O157 C160 1.244 . S
O158 Co132 2.155 . S
O158 C160 1.240 . S
O159 Co132 2.096 . S
O159 C140 1.247 . S
C160 O157 1.244 . S
C160 O158 1.240 . S
H161 C135 0.931 . S
H162 C144 0.931 1_655 S
H163 C148 0.929 . S
H164 C150 0.930 . S
Co165 N169 2.148 . S
Co165 N175 2.128 . S
Co165 N185 2.194 . S
Co165 O190 2.351 . S
Co165 O191 2.155 . S
Co165 O192 2.096 . S
C166 N169 1.301 . S
C166 N170 1.328 . S
C166 H171 0.930 . S
C167 C168 1.333 . S
C167 N169 1.317 . S
C167 H172 0.930 . S
C168 C167 1.333 . S
C168 N170 1.350 . S
C168 H194 0.931 . S
N169 Co165 2.148 . S
N169 C166 1.301 . S
N169 C167 1.317 . S
N170 C166 1.328 . S
N170 C168 1.350 . S
H171 C166 0.930 . S
H172 C167 0.930 . S
C173 O174 1.224 . S
C173 O192 1.247 . S
O174 C173 1.224 . S
N175 Co165 2.128 . S
N175 C176 1.355 . S
N175 C178 1.311 . S
C176 N175 1.355 . S
C176 C177 1.363 . S
C176 H188 0.929 1_545 S
C177 C176 1.363 . S
C177 N179 1.375 . S
C177 H195 0.931 1_545 S
C178 N175 1.311 . S
C178 N179 1.347 . S
C178 H189 0.929 . S
N179 C177 1.375 . S
N179 C178 1.347 . S
C180 C183 1.365 . S
C180 N185 1.328 1_565 S
C180 H186 0.929 . S
C181 C182 1.362 . S
C181 C184 1.378 1_565 S
C181 H196 0.929 . S
C182 C181 1.362 . S
C182 C183 1.366 . S
C183 C180 1.365 . S
C183 C182 1.366 . S
C183 H197 0.930 . S
C184 C181 1.378 1_545 S
C184 N185 1.315 . S
C184 H187 0.930 . S
N185 Co165 2.194 . S
N185 C180 1.328 1_545 S
N185 C184 1.315 . S
H186 C180 0.929 . S
H187 C184 0.930 . S
H188 C176 0.929 1_565 S
H189 C178 0.929 . S
O190 Co165 2.351 . S
O190 C193 1.244 . S
O191 Co165 2.155 . S
O191 C193 1.240 . S
O192 Co165 2.096 . S
O192 C173 1.247 . S
C193 O190 1.244 . S
C193 O191 1.240 . S
H194 C168 0.931 . S
H195 C177 0.931 1_565 S
H196 C181 0.929 . S
H197 C183 0.930 . S
Co198 N202 2.148 . S
Co198 N208 2.128 . S
Co198 N218 2.194 . S
Co198 O223 2.351 . S
Co198 O224 2.155 . S
Co198 O225 2.096 . S
C199 N202 1.301 . S
C199 N203 1.328 . S
C199 H204 0.930 . S
C200 C201 1.333 . S
C200 N202 1.317 . S
C200 H205 0.930 . S
C201 C200 1.333 . S
C201 N203 1.350 . S
C201 H227 0.931 . S
N202 Co198 2.148 . S
N202 C199 1.301 . S
N202 C200 1.317 . S
N203 C199 1.328 . S
N203 C201 1.350 . S
H204 C199 0.930 . S
H205 C200 0.930 . S
C206 O207 1.224 . S
C206 O225 1.247 . S
O207 C206 1.224 . S
N208 Co198 2.128 . S
N208 C209 1.355 . S
N208 C211 1.311 . S
C209 N208 1.355 . S
C209 C210 1.363 . S
C209 H221 0.929 . S
C210 C209 1.363 . S
C210 N212 1.375 . S
C210 H228 0.931 . S
C211 N208 1.311 . S
C211 N212 1.347 . S
C211 H222 0.929 . S
N212 C210 1.375 . S
N212 C211 1.347 . S
C213 C216 1.365 . S
C213 N218 1.328 . S
C213 H219 0.929 . S
C214 C215 1.362 . S
C214 C217 1.378 . S
C214 H229 0.929 . S
C215 C214 1.362 . S
C215 C216 1.366 . S
C216 C213 1.365 . S
C216 C215 1.366 . S
C216 H230 0.930 . S
C217 C214 1.378 . S
C217 N218 1.315 . S
C217 H220 0.930 . S
N218 Co198 2.194 . S
N218 C213 1.328 . S
N218 C217 1.315 . S
H219 C213 0.929 . S
H220 C217 0.930 . S
H221 C209 0.929 . S
H222 C211 0.929 . S
O223 Co198 2.351 . S
O223 C226 1.244 . S
O224 Co198 2.155 . S
O224 C226 1.240 . S
O225 Co198 2.096 . S
O225 C206 1.247 . S
C226 O223 1.244 . S
C226 O224 1.240 . S
H227 C201 0.931 . S
H228 C210 0.931 . S
H229 C214 0.929 . S
H230 C216 0.930 . S
Co231 N235 2.148 . S
Co231 N241 2.128 . S
Co231 N251 2.194 . S
Co231 O256 2.351 . S
Co231 O257 2.155 . S
Co231 O258 2.096 . S
C232 N235 1.301 . S
C232 N236 1.328 . S
C232 H237 0.930 . S
C233 C234 1.333 . S
C233 N235 1.317 . S
C233 H238 0.930 . S
C234 C233 1.333 . S
C234 N236 1.350 . S
C234 H260 0.931 . S
N235 Co231 2.148 . S
N235 C232 1.301 . S
N235 C233 1.317 . S
N236 C232 1.328 . S
N236 C234 1.350 . S
H237 C232 0.930 . S
H238 C233 0.930 . S
C239 O240 1.224 . S
C239 O258 1.247 . S
O240 C239 1.224 . S
N241 Co231 2.128 . S
N241 C242 1.355 . S
N241 C244 1.311 . S
C242 N241 1.355 . S
C242 C243 1.363 . S
C242 H254 0.929 1_655 S
C243 C242 1.363 . S
C243 N245 1.375 . S
C243 H261 0.931 1_655 S
C244 N241 1.311 . S
C244 N245 1.347 . S
C244 H255 0.929 . S
N245 C243 1.375 . S
N245 C244 1.347 . S
C246 C249 1.365 . S
C246 N251 1.328 1_455 S
C246 H252 0.929 . S
C247 C248 1.362 . S
C247 C250 1.378 1_455 S
C247 H262 0.929 . S
C248 C247 1.362 . S
C248 C249 1.366 . S
C249 C246 1.365 . S
C249 C248 1.366 . S
C249 H263 0.930 . S
C250 C247 1.378 1_655 S
C250 N251 1.315 . S
C250 H253 0.930 . S
N251 Co231 2.194 . S
N251 C246 1.328 1_655 S
N251 C250 1.315 . S
H252 C246 0.929 . S
H253 C250 0.930 . S
H254 C242 0.929 1_455 S
H255 C244 0.929 . S
O256 Co231 2.351 . S
O256 C259 1.244 . S
O257 Co231 2.155 . S
O257 C259 1.240 . S
O258 Co231 2.096 . S
O258 C239 1.247 . S
C259 O256 1.244 . S
C259 O257 1.240 . S
H260 C234 0.931 . S
H261 C243 0.931 1_455 S
H262 C247 0.929 . S
H263 C249 0.930 . S
Co264 N268 2.148 . S
Co264 N274 2.128 . S
Co264 N284 2.194 . S
Co264 O289 2.351 . S
Co264 O290 2.155 . S
Co264 O291 2.096 . S
C265 N268 1.301 . S
C265 N269 1.328 . S
C265 H270 0.930 . S
C266 C267 1.333 . S
C266 N268 1.317 . S
C266 H271 0.930 . S
C267 C266 1.333 . S
C267 N269 1.350 . S
C267 H293 0.931 . S
N268 Co264 2.148 . S
N268 C265 1.301 . S
N268 C266 1.317 . S
N269 C265 1.328 . S
N269 C267 1.350 . S
H270 C265 0.930 . S
H271 C266 0.930 . S
C272 O273 1.224 . S
C272 O291 1.247 . S
O273 C272 1.224 . S
N274 Co264 2.128 . S
N274 C275 1.355 . S
N274 C277 1.311 . S
C275 N274 1.355 . S
C275 C276 1.363 . S
C275 H287 0.929 1_565 S
C276 C275 1.363 . S
C276 N278 1.375 . S
C276 H294 0.931 1_565 S
C277 N274 1.311 . S
C277 N278 1.347 . S
C277 H288 0.929 . S
N278 C276 1.375 . S
N278 C277 1.347 . S
C279 C282 1.365 . S
C279 N284 1.328 1_545 S
C279 H285 0.929 . S
C280 C281 1.362 . S
C280 C283 1.378 1_545 S
C280 H295 0.929 . S
C281 C280 1.362 . S
C281 C282 1.366 . S
C282 C279 1.365 . S
C282 C281 1.366 . S
C282 H296 0.930 . S
C283 C280 1.378 1_565 S
C283 N284 1.315 . S
C283 H286 0.930 . S
N284 Co264 2.194 . S
N284 C279 1.328 1_565 S
N284 C283 1.315 . S
H285 C279 0.929 . S
H286 C283 0.930 . S
H287 C275 0.929 1_545 S
H288 C277 0.929 . S
O289 Co264 2.351 . S
O289 C292 1.244 . S
O290 Co264 2.155 . S
O290 C292 1.240 . S
O291 Co264 2.096 . S
O291 C272 1.247 . S
C292 O289 1.244 . S
C292 O290 1.240 . S
H293 C267 0.931 . S
H294 C276 0.931 1_545 S
H295 C280 0.929 . S
H296 C282 0.930 . S
Co297 N301 2.148 . S
Co297 N307 2.128 . S
Co297 N317 2.194 . S
Co297 O322 2.351 . S
Co297 O323 2.155 . S
Co297 O324 2.096 . S
C298 N301 1.301 . S
C298 N302 1.328 . S
C298 H303 0.930 . S
C299 C300 1.333 . S
C299 N301 1.317 . S
C299 H304 0.930 . S
C300 C299 1.333 . S
C300 N302 1.350 . S
C300 H326 0.931 . S
N301 Co297 2.148 . S
N301 C298 1.301 . S
N301 C299 1.317 . S
N302 C298 1.328 . S
N302 C300 1.350 . S
H303 C298 0.930 . S
H304 C299 0.930 . S
C305 O306 1.224 . S
C305 O324 1.247 . S
O306 C305 1.224 . S
N307 Co297 2.128 . S
N307 C308 1.355 . S
N307 C310 1.311 . S
C308 N307 1.355 . S
C308 C309 1.363 . S
C308 H320 0.929 . S
C309 C308 1.363 . S
C309 N311 1.375 . S
C309 H327 0.931 . S
C310 N307 1.311 . S
C310 N311 1.347 . S
C310 H321 0.929 . S
N311 C309 1.375 . S
N311 C310 1.347 . S
C312 C315 1.365 . S
C312 N317 1.328 . S
C312 H318 0.929 . S
C313 C314 1.362 . S
C313 C316 1.378 . S
C313 H328 0.929 . S
C314 C313 1.362 . S
C314 C315 1.366 . S
C315 C312 1.365 . S
C315 C314 1.366 . S
C315 H329 0.930 . S
C316 C313 1.378 . S
C316 N317 1.315 . S
C316 H319 0.930 . S
N317 Co297 2.194 . S
N317 C312 1.328 . S
N317 C316 1.315 . S
H318 C312 0.929 . S
H319 C316 0.930 . S
H320 C308 0.929 . S
H321 C310 0.929 . S
O322 Co297 2.351 . S
O322 C325 1.244 . S
O323 Co297 2.155 . S
O323 C325 1.240 . S
O324 Co297 2.096 . S
O324 C305 1.247 . S
C325 O322 1.244 . S
C325 O323 1.240 . S
H326 C300 0.931 . S
H327 C309 0.931 . S
H328 C313 0.929 . S
H329 C315 0.930 . S
Co330 N334 2.148 . S
Co330 N340 2.128 . S
Co330 N350 2.194 . S
Co330 O355 2.351 . S
Co330 O356 2.155 . S
Co330 O357 2.096 . S
C331 N334 1.301 . S
C331 N335 1.328 . S
C331 H336 0.930 . S
C332 C333 1.333 . S
C332 N334 1.317 . S
C332 H337 0.930 . S
C333 C332 1.333 . S
C333 N335 1.350 . S
C333 H359 0.931 . S
N334 Co330 2.148 . S
N334 C331 1.301 . S
N334 C332 1.317 . S
N335 C331 1.328 . S
N335 C333 1.350 . S
H336 C331 0.930 . S
H337 C332 0.930 . S
C338 O339 1.224 . S
C338 O357 1.247 . S
O339 C338 1.224 . S
N340 Co330 2.128 . S
N340 C341 1.355 . S
N340 C343 1.311 . S
C341 N340 1.355 . S
C341 C342 1.363 . S
C341 H353 0.929 1_455 S
C342 C341 1.363 . S
C342 N344 1.375 . S
C342 H360 0.931 1_455 S
C343 N340 1.311 . S
C343 N344 1.347 . S
C343 H354 0.929 . S
N344 C342 1.375 . S
N344 C343 1.347 . S
C345 C348 1.365 . S
C345 N350 1.328 1_655 S
C345 H351 0.929 . S
C346 C347 1.362 . S
C346 C349 1.378 1_655 S
C346 H361 0.929 . S
C347 C346 1.362 . S
C347 C348 1.366 . S
C348 C345 1.365 . S
C348 C347 1.366 . S
C348 H362 0.930 . S
C349 C346 1.378 1_455 S
C349 N350 1.315 . S
C349 H352 0.930 . S
N350 Co330 2.194 . S
N350 C345 1.328 1_455 S
N350 C349 1.315 . S
H351 C345 0.929 . S
H352 C349 0.930 . S
H353 C341 0.929 1_655 S
H354 C343 0.929 . S
O355 Co330 2.351 . S
O355 C358 1.244 . S
O356 Co330 2.155 . S
O356 C358 1.240 . S
O357 Co330 2.096 . S
O357 C338 1.247 . S
C358 O355 1.244 . S
C358 O356 1.240 . S
H359 C333 0.931 . S
H360 C342 0.931 1_655 S
H361 C346 0.929 . S
H362 C348 0.930 . S
Co363 N367 2.148 . S
Co363 N373 2.128 . S
Co363 N383 2.194 . S
Co363 O388 2.351 . S
Co363 O389 2.155 . S
Co363 O390 2.096 . S
C364 N367 1.301 . S
C364 N368 1.328 . S
C364 H369 0.930 . S
C365 C366 1.333 . S
C365 N367 1.317 . S
C365 H370 0.930 . S
C366 C365 1.333 . S
C366 N368 1.350 . S
C366 H392 0.931 . S
N367 Co363 2.148 . S
N367 C364 1.301 . S
N367 C365 1.317 . S
N368 C364 1.328 . S
N368 C366 1.350 . S
H369 C364 0.930 . S
H370 C365 0.930 . S
C371 O372 1.224 . S
C371 O390 1.247 . S
O372 C371 1.224 . S
N373 Co363 2.128 . S
N373 C374 1.355 . S
N373 C376 1.311 . S
C374 N373 1.355 . S
C374 C375 1.363 . S
C374 H386 0.929 1_545 S
C375 C374 1.363 . S
C375 N377 1.375 . S
C375 H393 0.931 1_545 S
C376 N373 1.311 . S
C376 N377 1.347 . S
C376 H387 0.929 . S
N377 C375 1.375 . S
N377 C376 1.347 . S
C378 C381 1.365 . S
C378 N383 1.328 1_565 S
C378 H384 0.929 . S
C379 C380 1.362 . S
C379 C382 1.378 1_565 S
C379 H394 0.929 . S
C380 C379 1.362 . S
C380 C381 1.366 . S
C381 C378 1.365 . S
C381 C380 1.366 . S
C381 H395 0.930 . S
C382 C379 1.378 1_545 S
C382 N383 1.315 . S
C382 H385 0.930 . S
N383 Co363 2.194 . S
N383 C378 1.328 1_545 S
N383 C382 1.315 . S
H384 C378 0.929 . S
H385 C382 0.930 . S
H386 C374 0.929 1_565 S
H387 C376 0.929 . S
O388 Co363 2.351 . S
O388 C391 1.244 . S
O389 Co363 2.155 . S
O389 C391 1.240 . S
O390 Co363 2.096 . S
O390 C371 1.247 . S
C391 O388 1.244 . S
C391 O389 1.240 . S
H392 C366 0.931 . S
H393 C375 0.931 1_565 S
H394 C379 0.929 . S
H395 C381 0.930 . S
C396 C397 1.391 . S
C396 C398 1.394 . S
C396 H412 0.931 . S
C397 C396 1.391 . S
C397 C401 1.376 . S
C398 C396 1.394 . S
C398 C399 1.369 . S
C398 C402 1.531 . S
C399 C398 1.369 . S
C399 C400 1.410 . S
C399 C407 1.503 . S
C400 C399 1.410 . S
C400 C401 1.392 . S
C400 C403 1.511 . S
C401 C397 1.376 . S
C401 C400 1.392 . S
C401 H413 0.929 . S
C402 C398 1.531 . S
C402 H414 0.960 . S
C402 H415 0.962 . S
C402 H416 0.960 . S
C403 C400 1.511 . S
C403 H417 0.961 . S
C403 H418 0.961 . S
C403 H419 0.961 . S
C404 C405 1.370 . S
C404 C406 1.363 . S
C404 H420 0.931 . S
C405 C404 1.370 . S
C405 C409 1.408 . S
C406 C404 1.363 . S
C406 C407 1.370 . S
C406 C410 1.524 . S
C407 C399 1.503 . S
C407 C406 1.370 . S
C407 C408 1.403 . S
C408 C407 1.403 . S
C408 C409 1.404 . S
C408 C411 1.539 . S
C409 C405 1.408 . S
C409 C408 1.404 . S
C409 H421 0.930 . S
C410 C406 1.524 . S
C410 H422 0.956 . S
C410 H423 0.961 . S
C410 H424 0.961 . S
C411 C408 1.539 . S
C411 H425 0.958 . S
C411 H426 0.961 . S
C411 H427 0.960 . S
H412 C396 0.931 . S
H413 C401 0.929 . S
H414 C402 0.960 . S
H415 C402 0.962 . S
H416 C402 0.960 . S
H417 C403 0.961 . S
H418 C403 0.961 . S
H419 C403 0.961 . S
H420 C404 0.931 . S
H421 C409 0.930 . S
H422 C410 0.956 . S
H423 C410 0.961 . S
H424 C410 0.961 . S
H425 C411 0.958 . S
H426 C411 0.961 . S
H427 C411 0.960 . S
C428 C429 1.391 . S
C428 C430 1.394 1_455 S
C428 H444 0.931 . S
C429 C428 1.391 . S
C429 C433 1.376 . S
C430 C428 1.394 1_655 S
C430 C431 1.369 1_655 S
C430 C434 1.531 . S
C431 C430 1.369 1_455 S
C431 C432 1.410 . S
C431 C439 1.503 1_455 S
C432 C431 1.410 . S
C432 C433 1.392 . S
C432 C435 1.511 . S
C433 C429 1.376 . S
C433 C432 1.392 . S
C433 H445 0.929 . S
C434 C430 1.531 . S
C434 H446 0.960 . S
C434 H447 0.962 . S
C434 H448 0.960 . S
C435 C432 1.511 . S
C435 H449 0.961 . S
C435 H450 0.961 . S
C435 H451 0.961 . S
C436 C437 1.370 . S
C436 C438 1.363 . S
C436 H452 0.931 . S
C437 C436 1.370 . S
C437 C441 1.408 . S
C438 C436 1.363 . S
C438 C439 1.370 . S
C438 C442 1.524 . S
C439 C431 1.503 1_655 S
C439 C438 1.370 . S
C439 C440 1.403 . S
C440 C439 1.403 . S
C440 C441 1.404 . S
C440 C443 1.539 1_655 S
C441 C437 1.408 . S
C441 C440 1.404 . S
C441 H453 0.930 . S
C442 C438 1.524 . S
C442 H454 0.956 . S
C442 H455 0.961 1_655 S
C442 H456 0.961 . S
C443 C440 1.539 1_455 S
C443 H457 0.958 1_455 S
C443 H458 0.961 . S
C443 H459 0.960 . S
H444 C428 0.931 . S
H445 C433 0.929 . S
H446 C434 0.960 . S
H447 C434 0.962 . S
H448 C434 0.960 . S
H449 C435 0.961 . S
H450 C435 0.961 . S
H451 C435 0.961 . S
H452 C436 0.931 . S
H453 C441 0.930 . S
H454 C442 0.956 . S
H455 C442 0.961 1_455 S
H456 C442 0.961 . S
H457 C443 0.958 1_655 S
H458 C443 0.961 . S
H459 C443 0.960 . S
C460 C461 1.391 . S
C460 C462 1.394 . S
C460 H476 0.931 . S
C461 C460 1.391 . S
C461 C465 1.376 . S
C462 C460 1.394 . S
C462 C463 1.369 . S
C462 C466 1.531 . S
C463 C462 1.369 . S
C463 C464 1.410 . S
C463 C471 1.503 1_545 S
C464 C463 1.410 . S
C464 C465 1.392 . S
C464 C467 1.511 1_545 S
C465 C461 1.376 . S
C465 C464 1.392 . S
C465 H477 0.929 . S
C466 C462 1.531 . S
C466 H478 0.960 . S
C466 H479 0.962 . S
C466 H480 0.960 . S
C467 C464 1.511 1_565 S
C467 H481 0.961 . S
C467 H482 0.961 . S
C467 H483 0.961 . S
C468 C469 1.370 . S
C468 C470 1.358 1_565 S
C468 H484 0.931 . S
C469 C468 1.370 . S
C469 C473 1.408 . S
C470 C468 1.358 1_545 S
C470 C471 1.371 1_545 S
C470 C474 1.529 . S
C471 C463 1.503 1_565 S
C471 C470 1.371 1_565 S
C471 C472 1.403 . S
C472 C471 1.403 . S
C472 C473 1.404 . S
C472 C475 1.539 . S
C473 C469 1.408 . S
C473 C472 1.404 . S
C473 H485 0.930 . S
C474 C470 1.529 . S
C474 H486 0.956 . S
C474 H487 0.961 . S
C474 H488 0.961 . S
C475 C472 1.539 . S
C475 H489 0.958 . S
C475 H490 0.961 . S
C475 H491 0.960 . S
H476 C460 0.931 . S
H477 C465 0.929 . S
H478 C466 0.960 . S
H479 C466 0.962 . S
H480 C466 0.960 . S
H481 C467 0.961 . S
H482 C467 0.961 . S
H483 C467 0.961 . S
H484 C468 0.931 . S
H485 C473 0.930 . S
H486 C474 0.956 . S
H487 C474 0.961 . S
H488 C474 0.961 . S
H489 C475 0.958 . S
H490 C475 0.961 . S
H491 C475 0.960 . S
C492 C493 1.391 . S
C492 C494 1.394 . S
C492 H508 0.931 . S
C493 C492 1.391 . S
C493 C497 1.376 . S
C494 C492 1.394 . S
C494 C495 1.369 . S
C494 C498 1.531 . S
C495 C494 1.369 . S
C495 C496 1.410 . S
C495 C503 1.503 . S
C496 C495 1.410 . S
C496 C497 1.392 . S
C496 C499 1.511 . S
C497 C493 1.376 . S
C497 C496 1.392 . S
C497 H509 0.929 . S
C498 C494 1.531 . S
C498 H510 0.960 . S
C498 H511 0.962 . S
C498 H512 0.960 . S
C499 C496 1.511 . S
C499 H513 0.961 . S
C499 H514 0.961 . S
C499 H515 0.961 . S
C500 C501 1.370 . S
C500 C502 1.363 . S
C500 H516 0.931 . S
C501 C500 1.370 . S
C501 C505 1.408 . S
C502 C500 1.363 . S
C502 C503 1.370 . S
C502 C506 1.524 . S
C503 C495 1.503 . S
C503 C502 1.370 . S
C503 C504 1.403 . S
C504 C503 1.403 . S
C504 C505 1.404 . S
C504 C507 1.539 . S
C505 C501 1.408 . S
C505 C504 1.404 . S
C505 H517 0.930 . S
C506 C502 1.524 . S
C506 H518 0.956 . S
C506 H519 0.961 . S
C506 H520 0.961 . S
C507 C504 1.539 . S
C507 H521 0.958 . S
C507 H522 0.961 . S
C507 H523 0.960 . S
H508 C492 0.931 . S
H509 C497 0.929 . S
H510 C498 0.960 . S
H511 C498 0.962 . S
H512 C498 0.960 . S
H513 C499 0.961 . S
H514 C499 0.961 . S
H515 C499 0.961 . S
H516 C500 0.931 . S
H517 C505 0.930 . S
H518 C506 0.956 . S
H519 C506 0.961 . S
H520 C506 0.961 . S
H521 C507 0.958 . S
H522 C507 0.961 . S
H523 C507 0.960 . S
C524 C525 1.391 . S
C524 C526 1.394 . S
C524 H540 0.931 . S
C525 C524 1.391 . S
C525 C529 1.376 . S
C526 C524 1.394 . S
C526 C527 1.369 . S
C526 C530 1.531 . S
C527 C526 1.369 . S
C527 C528 1.410 1_655 S
C527 C535 1.503 1_655 S
C528 C527 1.410 1_455 S
C528 C529 1.392 1_455 S
C528 C531 1.511 . S
C529 C525 1.376 . S
C529 C528 1.392 1_655 S
C529 H541 0.929 . S
C530 C526 1.531 . S
C530 H542 0.960 . S
C530 H543 0.962 . S
C530 H544 0.960 . S
C531 C528 1.511 . S
C531 H545 0.961 . S
C531 H546 0.961 . S
C531 H547 0.961 . S
C532 C533 1.370 . S
C532 C534 1.363 . S
C532 H548 0.931 . S
C533 C532 1.370 . S
C533 C537 1.408 . S
C534 C532 1.363 . S
C534 C535 1.370 . S
C534 C538 1.524 . S
C535 C527 1.503 1_455 S
C535 C534 1.370 . S
C535 C536 1.403 . S
C536 C535 1.403 . S
C536 C537 1.404 . S
C536 C539 1.539 . S
C537 C533 1.408 . S
C537 C536 1.404 . S
C537 H549 0.930 . S
C538 C534 1.524 . S
C538 H550 0.956 1_455 S
C538 H551 0.961 . S
C538 H552 0.961 . S
C539 C536 1.539 . S
C539 H553 0.958 1_455 S
C539 H554 0.961 . S
C539 H555 0.960 . S
H540 C524 0.931 . S
H541 C529 0.929 . S
H542 C530 0.960 . S
H543 C530 0.962 . S
H544 C530 0.960 . S
H545 C531 0.961 . S
H546 C531 0.961 . S
H547 C531 0.961 . S
H548 C532 0.931 . S
H549 C537 0.930 . S
H550 C538 0.956 1_655 S
H551 C538 0.961 . S
H552 C538 0.961 . S
H553 C539 0.958 1_655 S
H554 C539 0.961 . S
H555 C539 0.960 . S
C556 C557 1.391 . S
C556 C558 1.394 . S
C556 H572 0.931 . S
C557 C556 1.391 . S
C557 C561 1.376 . S
C558 C556 1.394 . S
C558 C559 1.369 . S
C558 C562 1.531 . S
C559 C558 1.369 . S
C559 C560 1.410 1_565 S
C559 C567 1.503 1_565 S
C560 C559 1.410 1_545 S
C560 C561 1.392 1_545 S
C560 C563 1.511 . S
C561 C557 1.376 . S
C561 C560 1.392 1_565 S
C561 H573 0.929 . S
C562 C558 1.531 . S
C562 H574 0.960 . S
C562 H575 0.962 . S
C562 H576 0.960 . S
C563 C560 1.511 . S
C563 H577 0.961 . S
C563 H578 0.961 . S
C563 H579 0.961 . S
C564 C565 1.370 . S
C564 C566 1.363 . S
C564 H580 0.931 . S
C565 C564 1.370 . S
C565 C569 1.408 . S
C566 C564 1.363 . S
C566 C567 1.370 . S
C566 C570 1.524 1_545 S
C567 C559 1.503 1_545 S
C567 C566 1.370 . S
C567 C568 1.403 . S
C568 C567 1.403 . S
C568 C569 1.404 . S
C568 C571 1.539 . S
C569 C565 1.408 . S
C569 C568 1.404 . S
C569 H581 0.930 . S
C570 C566 1.524 1_565 S
C570 H582 0.956 . S
C570 H583 0.961 . S
C570 H584 0.961 . S
C571 C568 1.539 . S
C571 H585 0.958 . S
C571 H586 0.961 . S
C571 H587 0.960 . S
H572 C556 0.931 . S
H573 C561 0.929 . S
H574 C562 0.960 . S
H575 C562 0.962 . S
H576 C562 0.960 . S
H577 C563 0.961 . S
H578 C563 0.961 . S
H579 C563 0.961 . S
H580 C564 0.931 . S
H581 C569 0.930 . S
H582 C570 0.956 . S
H583 C570 0.961 . S
H584 C570 0.961 . S
H585 C571 0.958 . S
H586 C571 0.961 . S
H587 C571 0.960 . S
C588 C589 1.391 . S
C588 C590 1.394 . S
C588 H604 0.931 . S
C589 C588 1.391 . S
C589 C593 1.376 . S
C590 C588 1.394 . S
C590 C591 1.369 . S
C590 C594 1.531 . S
C591 C590 1.369 . S
C591 C592 1.410 . S
C591 C599 1.503 . S
C592 C591 1.410 . S
C592 C593 1.392 . S
C592 C595 1.511 . S
C593 C589 1.376 . S
C593 C592 1.392 . S
C593 H605 0.929 . S
C594 C590 1.531 . S
C594 H606 0.960 . S
C594 H607 0.962 . S
C594 H608 0.960 . S
C595 C592 1.511 . S
C595 H609 0.961 . S
C595 H610 0.961 . S
C595 H611 0.961 . S
C596 C597 1.370 . S
C596 C598 1.363 . S
C596 H612 0.931 . S
C597 C596 1.370 . S
C597 C601 1.408 . S
C598 C596 1.363 . S
C598 C599 1.370 . S
C598 C602 1.524 . S
C599 C591 1.503 . S
C599 C598 1.370 . S
C599 C600 1.403 . S
C600 C599 1.403 . S
C600 C601 1.404 . S
C600 C603 1.539 . S
C601 C597 1.408 . S
C601 C600 1.404 . S
C601 H613 0.930 . S
C602 C598 1.524 . S
C602 H614 0.956 . S
C602 H615 0.961 . S
C602 H616 0.961 . S
C603 C600 1.539 . S
C603 H617 0.958 . S
C603 H618 0.961 . S
C603 H619 0.960 . S
H604 C588 0.931 . S
H605 C593 0.929 . S
H606 C594 0.960 . S
H607 C594 0.962 . S
H608 C594 0.960 . S
H609 C595 0.961 . S
H610 C595 0.961 . S
H611 C595 0.961 . S
H612 C596 0.931 . S
H613 C601 0.930 . S
H614 C602 0.956 . S
H615 C602 0.961 . S
H616 C602 0.961 . S
H617 C603 0.958 . S
H618 C603 0.961 . S
H619 C603 0.960 . S
C620 C621 1.391 . S
C620 C622 1.394 . S
C620 H636 0.931 . S
C621 C620 1.391 . S
C621 C625 1.376 . S
C622 C620 1.394 . S
C622 C623 1.369 1_655 S
C622 C626 1.531 . S
C623 C622 1.369 1_455 S
C623 C624 1.406 . S
C623 C631 1.506 . S
C624 C623 1.406 . S
C624 C625 1.392 1_455 S
C624 C627 1.511 . S
C625 C621 1.376 . S
C625 C624 1.392 1_655 S
C625 H637 0.929 . S
C626 C622 1.531 . S
C626 H638 0.960 1_655 S
C626 H639 0.962 . S
C626 H640 0.960 . S
C627 C624 1.511 . S
C627 H641 0.961 . S
C627 H642 0.961 . S
C627 H643 0.961 . S
C628 C629 1.373 1_655 S
C628 C630 1.362 . S
C628 H644 0.929 . S
C629 C628 1.373 1_455 S
C629 C633 1.408 . S
C630 C628 1.362 . S
C630 C631 1.370 1_655 S
C630 C634 1.524 . S
C631 C623 1.506 . S
C631 C630 1.370 1_455 S
C631 C632 1.403 . S
C632 C631 1.403 . S
C632 C633 1.404 . S
C632 C635 1.539 . S
C633 C629 1.408 . S
C633 C632 1.404 . S
C633 H645 0.930 . S
C634 C630 1.524 . S
C634 H646 0.956 . S
C634 H647 0.961 . S
C634 H648 0.961 . S
C635 C632 1.539 . S
C635 H649 0.958 . S
C635 H650 0.961 . S
C635 H651 0.960 . S
H636 C620 0.931 . S
H637 C625 0.929 . S
H638 C626 0.960 1_455 S
H639 C626 0.962 . S
H640 C626 0.960 . S
H641 C627 0.961 . S
H642 C627 0.961 . S
H643 C627 0.961 . S
H644 C628 0.929 . S
H645 C633 0.930 . S
H646 C634 0.956 . S
H647 C634 0.961 . S
H648 C634 0.961 . S
H649 C635 0.958 . S
H650 C635 0.961 . S
H651 C635 0.960 . S
C652 C653 1.391 . S
C652 C654 1.394 . S
C652 H668 0.931 . S
C653 C652 1.391 . S
C653 C657 1.376 . S
C654 C652 1.394 . S
C654 C655 1.379 1_545 S
C654 C658 1.531 1_545 S
C655 C654 1.379 1_565 S
C655 C656 1.390 1_565 S
C655 C663 1.511 1_554 S
C656 C655 1.390 1_545 S
C656 C657 1.392 . S
C656 C659 1.511 . S
C657 C653 1.376 . S
C657 C656 1.392 . S
C657 H669 0.929 . S
C658 C654 1.531 1_565 S
C658 H670 0.960 . S
C658 H671 0.962 1_565 S
C658 H672 0.960 . S
C659 C656 1.511 . S
C659 H673 0.961 . S
C659 H674 0.961 1_554 S
C659 H675 0.961 1_545 S
C660 C661 1.362 1_545 S
C660 C662 1.366 . S
C660 H676 0.936 . S
C661 C660 1.362 1_565 S
C661 C665 1.408 . S
C662 C660 1.366 . S
C662 C663 1.370 1_545 S
C662 C666 1.524 . S
C663 C655 1.511 1_556 S
C663 C662 1.370 1_565 S
C663 C664 1.403 . S
C664 C663 1.403 . S
C664 C665 1.404 . S
C664 C667 1.539 1_556 S
C665 C661 1.408 . S
C665 C664 1.404 . S
C665 H677 0.930 . S
C666 C662 1.524 . S
C666 H678 0.956 . S
C666 H679 0.961 . S
C666 H680 0.961 . S
C667 C664 1.539 1_554 S
C667 H681 0.958 . S
C667 H682 0.961 1_554 S
C667 H683 0.960 . S
H668 C652 0.931 . S
H669 C657 0.929 . S
H670 C658 0.960 . S
H671 C658 0.962 1_545 S
H672 C658 0.960 . S
H673 C659 0.961 . S
H674 C659 0.961 1_556 S
H675 C659 0.961 1_565 S
H676 C660 0.936 . S
H677 C665 0.930 . S
H678 C666 0.956 . S
H679 C666 0.961 . S
H680 C666 0.961 . S
H681 C667 0.958 . S
H682 C667 0.961 1_556 S
H683 C667 0.960 . S
C684 C685 1.391 . S
C684 C686 1.394 . S
C684 H700 0.931 . S
C685 C684 1.391 . S
C685 C689 1.376 . S
C686 C684 1.394 . S
C686 C687 1.369 . S
C686 C690 1.531 . S
C687 C686 1.369 . S
C687 C688 1.410 . S
C687 C695 1.503 . S
C688 C687 1.410 . S
C688 C689 1.392 . S
C688 C691 1.511 . S
C689 C685 1.376 . S
C689 C688 1.392 . S
C689 H701 0.929 . S
C690 C686 1.531 . S
C690 H702 0.960 . S
C690 H703 0.962 . S
C690 H704 0.960 . S
C691 C688 1.511 . S
C691 H705 0.961 . S
C691 H706 0.961 . S
C691 H707 0.961 . S
C692 C693 1.370 . S
C692 C694 1.363 . S
C692 H708 0.931 . S
C693 C692 1.370 . S
C693 C697 1.408 . S
C694 C692 1.363 . S
C694 C695 1.370 . S
C694 C698 1.524 . S
C695 C687 1.503 . S
C695 C694 1.370 . S
C695 C696 1.403 . S
C696 C695 1.403 . S
C696 C697 1.404 . S
C696 C699 1.539 . S
C697 C693 1.408 . S
C697 C696 1.404 . S
C697 H709 0.930 . S
C698 C694 1.524 . S
C698 H710 0.956 . S
C698 H711 0.961 . S
C698 H712 0.961 . S
C699 C696 1.539 . S
C699 H713 0.958 . S
C699 H714 0.961 . S
C699 H715 0.960 . S
H700 C684 0.931 . S
H701 C689 0.929 . S
H702 C690 0.960 . S
H703 C690 0.962 . S
H704 C690 0.960 . S
H705 C691 0.961 . S
H706 C691 0.961 . S
H707 C691 0.961 . S
H708 C692 0.931 . S
H709 C697 0.930 . S
H710 C698 0.956 . S
H711 C698 0.961 . S
H712 C698 0.961 . S
H713 C699 0.958 . S
H714 C699 0.961 . S
H715 C699 0.960 . S
C716 C717 1.391 . S
C716 C718 1.394 . S
C716 H732 0.931 . S
C717 C716 1.391 . S
C717 C721 1.376 . S
C718 C716 1.394 . S
C718 C719 1.369 . S
C718 C722 1.531 1_455 S
C719 C718 1.369 . S
C719 C720 1.410 . S
C719 C727 1.503 1_455 S
C720 C719 1.410 . S
C720 C721 1.392 . S
C720 C723 1.511 . S
C721 C717 1.376 . S
C721 C720 1.392 . S
C721 H733 0.929 . S
C722 C718 1.531 1_655 S
C722 H734 0.960 . S
C722 H735 0.962 . S
C722 H736 0.960 . S
C723 C720 1.511 . S
C723 H737 0.961 . S
C723 H738 0.961 . S
C723 H739 0.961 . S
C724 C725 1.370 . S
C724 C726 1.363 . S
C724 H740 0.931 . S
C725 C724 1.370 . S
C725 C729 1.408 . S
C726 C724 1.363 . S
C726 C727 1.370 . S
C726 C730 1.524 . S
C727 C719 1.503 1_655 S
C727 C726 1.370 . S
C727 C728 1.403 1_655 S
C728 C727 1.403 1_455 S
C728 C729 1.404 1_455 S
C728 C731 1.539 . S
C729 C725 1.408 . S
C729 C728 1.404 1_655 S
C729 H741 0.930 1_655 S
C730 C726 1.524 . S
C730 H742 0.956 . S
C730 H743 0.961 . S
C730 H744 0.961 . S
C731 C728 1.539 . S
C731 H745 0.958 . S
C731 H746 0.961 . S
C731 H747 0.960 . S
H732 C716 0.931 . S
H733 C721 0.929 . S
H734 C722 0.960 . S
H735 C722 0.962 . S
H736 C722 0.960 . S
H737 C723 0.961 . S
H738 C723 0.961 . S
H739 C723 0.961 . S
H740 C724 0.931 . S
H741 C729 0.930 1_455 S
H742 C730 0.956 . S
H743 C730 0.961 . S
H744 C730 0.961 . S
H745 C731 0.958 . S
H746 C731 0.961 . S
H747 C731 0.960 . S
C748 C749 1.391 . S
C748 C750 1.394 . S
C748 H764 0.931 . S
C749 C748 1.391 . S
C749 C753 1.376 . S
C750 C748 1.394 . S
C750 C751 1.369 . S
C750 C754 1.531 . S
C751 C750 1.369 . S
C751 C752 1.410 . S
C751 C759 1.503 1_546 S
C752 C751 1.410 . S
C752 C753 1.392 . S
C752 C755 1.511 . S
C753 C749 1.376 . S
C753 C752 1.392 . S
C753 H765 0.929 . S
C754 C750 1.531 . S
C754 H766 0.960 1_556 S
C754 H767 0.962 . S
C754 H768 0.960 . S
C755 C752 1.511 . S
C755 H769 0.961 1_545 S
C755 H770 0.961 1_545 S
C755 H771 0.961 . S
C756 C757 1.370 . S
C756 C758 1.363 . S
C756 H772 0.931 . S
C757 C756 1.370 . S
C757 C761 1.408 1_565 S
C758 C756 1.363 . S
C758 C759 1.370 . S
C758 C762 1.524 1_554 S
C759 C751 1.503 1_564 S
C759 C758 1.370 . S
C759 C760 1.403 1_565 S
C760 C759 1.403 1_545 S
C760 C761 1.404 . S
C760 C763 1.539 . S
C761 C757 1.408 1_545 S
C761 C760 1.404 . S
C761 H773 0.930 . S
C762 C758 1.524 1_556 S
C762 H774 0.956 . S
C762 H775 0.961 . S
C762 H776 0.961 . S
C763 C760 1.539 . S
C763 H777 0.958 . S
C763 H778 0.961 . S
C763 H779 0.960 . S
H764 C748 0.931 . S
H765 C753 0.929 . S
H766 C754 0.960 1_554 S
H767 C754 0.962 . S
H768 C754 0.960 . S
H769 C755 0.961 1_565 S
H770 C755 0.961 1_565 S
H771 C755 0.961 . S
H772 C756 0.931 . S
H773 C761 0.930 . S
H774 C762 0.956 . S
H775 C762 0.961 . S
H776 C762 0.961 . S
H777 C763 0.958 . S
H778 C763 0.961 . S
H779 C763 0.960 . S
C780 C781 1.391 . S
C780 C782 1.394 . S
C780 H796 0.931 . S
C781 C780 1.391 . S
C781 C785 1.376 . S
C782 C780 1.394 . S
C782 C783 1.369 . S
C782 C786 1.531 . S
C783 C782 1.369 . S
C783 C784 1.410 1_455 S
C783 C791 1.503 1_445 S
C784 C783 1.410 1_655 S
C784 C785 1.392 1_655 S
C784 C787 1.511 . S
C785 C781 1.376 . S
C785 C784 1.392 1_455 S
C785 H797 0.929 1_455 S
C786 C782 1.531 . S
C786 H798 0.960 1_545 S
C786 H799 0.962 . S
C786 H800 0.960 . S
C787 C784 1.511 . S
C787 H801 0.961 . S
C787 H802 0.961 1_545 S
C787 H803 0.961 . S
C788 C789 1.370 . S
C788 C790 1.363 . S
C788 H804 0.931 . S
C789 C788 1.370 . S
C789 C793 1.408 . S
C790 C788 1.363 . S
C790 C791 1.370 . S
C790 C794 1.524 1_655 S
C791 C783 1.503 1_665 S
C791 C790 1.370 . S
C791 C792 1.403 . S
C792 C791 1.403 . S
C792 C793 1.404 . S
C792 C795 1.539 . S
C793 C789 1.408 . S
C793 C792 1.404 . S
C793 H805 0.930 . S
C794 C790 1.524 1_455 S
C794 H806 0.957 . S
C794 H807 0.961 1_465 S
C794 H808 0.961 1_455 S
C795 C792 1.539 . S
C795 H809 0.958 . S
C795 H810 0.961 . S
C795 H811 0.960 . S
H796 C780 0.931 . S
H797 C785 0.929 1_655 S
H798 C786 0.960 1_565 S
H799 C786 0.962 . S
H800 C786 0.960 . S
H801 C787 0.961 . S
H802 C787 0.961 1_565 S
H803 C787 0.961 . S
H804 C788 0.931 . S
H805 C793 0.930 . S
H806 C794 0.957 . S
H807 C794 0.961 1_645 S
H808 C794 0.961 1_655 S
H809 C795 0.958 . S
H810 C795 0.961 . S
H811 C795 0.960 . S
C812 C813 1.391 . S
C812 C814 1.394 . S
C812 H828 0.931 . S
C813 C812 1.391 . S
C813 C817 1.376 . S
C814 C812 1.394 . S
C814 C815 1.369 . S
C814 C818 1.518 1_655 S
C815 C814 1.369 . S
C815 C816 1.410 . S
C815 C823 1.503 1_645 S
C816 C815 1.410 . S
C816 C817 1.392 . S
C816 C819 1.511 1_545 S
C817 C813 1.376 . S
C817 C816 1.392 . S
C817 H829 0.929 . S
C818 C814 1.518 1_455 S
C818 H830 0.964 1_545 S
C818 H831 0.977 . S
C818 H832 0.946 1_455 S
C819 C816 1.511 1_565 S
C819 H833 0.961 . S
C819 H834 0.961 . S
C819 H835 0.961 . S
C820 C821 1.370 . S
C820 C822 1.363 1_565 S
C820 H836 0.931 1_565 S
C821 C820 1.370 . S
C821 C825 1.408 . S
C822 C820 1.363 1_545 S
C822 C823 1.370 1_545 S
C822 C826 1.524 . S
C823 C815 1.503 1_465 S
C823 C822 1.370 1_565 S
C823 C824 1.403 1_455 S
C824 C823 1.403 1_655 S
C824 C825 1.404 1_655 S
C824 C827 1.539 . S
C825 C821 1.408 . S
C825 C824 1.404 1_455 S
C825 H837 0.930 . S
C826 C822 1.524 . S
C826 H838 0.956 . S
C826 H839 0.961 . S
C826 H840 0.961 . S
C827 C824 1.539 . S
C827 H841 0.958 . S
C827 H842 0.961 . S
C827 H843 0.960 . S
H828 C812 0.931 . S
H829 C817 0.929 . S
H830 C818 0.964 1_565 S
H831 C818 0.977 . S
H832 C818 0.946 1_655 S
H833 C819 0.961 . S
H834 C819 0.961 . S
H835 C819 0.961 . S
H836 C820 0.931 1_545 S
H837 C825 0.930 . S
H838 C826 0.956 . S
H839 C826 0.961 . S
H840 C826 0.961 . S
H841 C827 0.958 . S
H842 C827 0.961 . S
H843 C827 0.960 . S
C844 C845 1.391 . S
C844 C846 1.394 . S
C844 H860 0.931 . S
C845 C844 1.391 . S
C845 C849 1.376 . S
C846 C844 1.394 . S
C846 C847 1.369 . S
C846 C850 1.531 . S
C847 C846 1.369 . S
C847 C848 1.410 . S
C847 C855 1.503 1_445 S
C848 C847 1.410 . S
C848 C849 1.392 . S
C848 C851 1.511 1_545 S
C849 C845 1.376 . S
C849 C848 1.392 . S
C849 H861 0.929 . S
C850 C846 1.531 . S
C850 H862 0.960 1_445 S
C850 H863 0.962 . S
C850 H864 0.960 . S
C851 C848 1.511 1_565 S
C851 H865 0.961 1_565 S
C851 H866 0.961 1_455 S
C851 H867 0.961 . S
C852 C853 1.370 . S
C852 C854 1.363 1_565 S
C852 H868 0.931 . S
C853 C852 1.370 . S
C853 C857 1.408 . S
C854 C852 1.363 1_545 S
C854 C855 1.370 1_545 S
C854 C858 1.524 . S
C855 C847 1.503 1_665 S
C855 C854 1.370 1_565 S
C855 C856 1.403 . S
C856 C855 1.403 . S
C856 C857 1.404 . S
C856 C859 1.539 . S
C857 C853 1.408 . S
C857 C856 1.404 . S
C857 H869 0.930 . S
C858 C854 1.524 . S
C858 H870 0.956 . S
C858 H871 0.955 1_655 S
C858 H872 0.961 . S
C859 C856 1.539 . S
C859 H873 0.958 . S
C859 H874 0.961 . S
C859 H875 0.960 1_655 S
H860 C844 0.931 . S
H861 C849 0.929 . S
H862 C850 0.960 1_665 S
H863 C850 0.962 . S
H864 C850 0.960 . S
H865 C851 0.961 1_545 S
H866 C851 0.961 1_655 S
H867 C851 0.961 . S
H868 C852 0.931 . S
H869 C857 0.930 . S
H870 C858 0.956 . S
H871 C858 0.955 1_455 S
H872 C858 0.961 . S
H873 C859 0.958 . S
H874 C859 0.961 . S
H875 C859 0.960 1_455 S
C876 C877 1.391 . S
C876 C878 1.394 . S
C876 H892 0.931 . S
C877 C876 1.391 . S
C877 C881 1.376 . S
C878 C876 1.394 . S
C878 C879 1.369 . S
C878 C882 1.531 . S
C879 C878 1.369 . S
C879 C880 1.410 . S
C879 C887 1.503 1_665 S
C880 C879 1.410 . S
C880 C881 1.392 . S
C880 C883 1.511 . S
C881 C877 1.376 . S
C881 C880 1.392 . S
C881 H893 0.929 . S
C882 C878 1.531 . S
C882 H894 0.960 1_655 S
C882 H895 0.962 1_565 S
C882 H896 0.960 . S
C883 C880 1.511 . S
C883 H897 0.961 . S
C883 H898 0.961 1_665 S
C883 H899 0.961 . S
C884 C885 1.370 . S
C884 C886 1.363 . S
C884 H900 0.931 . S
C885 C884 1.370 . S
C885 C889 1.408 . S
C886 C884 1.363 . S
C886 C887 1.370 . S
C886 C890 1.524 . S
C887 C879 1.503 1_445 S
C887 C886 1.370 . S
C887 C888 1.403 1_545 S
C888 C887 1.403 1_565 S
C888 C889 1.404 1_565 S
C888 C891 1.539 . S
C889 C885 1.408 . S
C889 C888 1.404 1_545 S
C889 H901 0.930 1_545 S
C890 C886 1.524 . S
C890 H902 0.956 . S
C890 H903 0.959 1_455 S
C890 H904 0.961 . S
C891 C888 1.539 . S
C891 H905 0.958 . S
C891 H906 0.961 . S
C891 H907 0.960 1_455 S
H892 C876 0.931 . S
H893 C881 0.929 . S
H894 C882 0.960 1_455 S
H895 C882 0.962 1_545 S
H896 C882 0.960 . S
H897 C883 0.961 . S
H898 C883 0.961 1_445 S
H899 C883 0.961 . S
H900 C884 0.931 . S
H901 C889 0.930 1_565 S
H902 C890 0.956 . S
H903 C890 0.959 1_655 S
H904 C890 0.961 . S
H905 C891 0.958 . S
H906 C891 0.961 . S
H907 C891 0.960 1_655 S
C908 C909 1.391 . S
C908 C910 1.394 . S
C908 H924 0.931 . S
C909 C908 1.391 . S
C909 C913 1.376 . S
C910 C908 1.394 . S
C910 C911 1.369 . S
C910 C914 1.531 1_655 S
C911 C910 1.369 . S
C911 C912 1.410 . S
C911 C919 1.503 1_665 S
C912 C911 1.410 . S
C912 C913 1.392 . S
C912 C915 1.511 . S
C913 C909 1.376 . S
C913 C912 1.392 . S
C913 H925 0.929 . S
C914 C910 1.531 1_455 S
C914 H926 0.960 1_565 S
C914 H927 0.962 . S
C914 H928 0.960 1_455 S
C915 C912 1.511 . S
C915 H929 0.961 . S
C915 H930 0.961 1_565 S
C915 H931 0.961 . S
C916 C917 1.370 . S
C916 C918 1.363 . S
C916 H932 0.931 . S
C917 C916 1.370 . S
C917 C921 1.408 . S
C918 C916 1.363 . S
C918 C919 1.370 . S
C918 C922 1.524 . S
C919 C911 1.503 1_445 S
C919 C918 1.370 . S
C919 C920 1.403 1_455 S
C920 C919 1.403 1_655 S
C920 C921 1.404 1_655 S
C920 C923 1.539 . S
C921 C917 1.408 . S
C921 C920 1.404 1_455 S
C921 H933 0.930 . S
C922 C918 1.524 . S
C922 H934 0.946 1_545 S
C922 H935 0.961 1_545 S
C922 H936 0.961 . S
C923 C920 1.539 . S
C923 H937 0.958 . S
C923 H938 0.961 . S
C923 H939 0.960 . S
H924 C908 0.931 . S
H925 C913 0.929 . S
H926 C914 0.960 1_545 S
H927 C914 0.962 . S
H928 C914 0.960 1_655 S
H929 C915 0.961 . S
H930 C915 0.961 1_545 S
H931 C915 0.961 . S
H932 C916 0.931 . S
H933 C921 0.930 . S
H934 C922 0.946 1_565 S
H935 C922 0.961 1_565 S
H936 C922 0.961 . S
H937 C923 0.958 . S
H938 C923 0.961 . S
H939 C923 0.960 . S
C940 C941 1.391 . S
C940 C942 1.394 . S
C940 H956 0.931 . S
C941 C940 1.391 . S
C941 C945 1.376 . S
C942 C940 1.394 . S
C942 C943 1.369 . S
C942 C946 1.531 1_655 S
C943 C942 1.369 . S
C943 C944 1.410 . S
C943 C951 1.503 1_645 S
C944 C943 1.410 . S
C944 C945 1.392 . S
C944 C947 1.515 . S
C945 C941 1.376 . S
C945 C944 1.392 . S
C945 H957 0.929 . S
C946 C942 1.531 1_455 S
C946 H958 0.960 . S
C946 H959 0.962 . S
C946 H960 0.960 . S
C947 C944 1.515 . S
C947 H961 0.962 1_545 S
C947 H962 0.955 1_545 S
C947 H963 0.962 1_655 S
C948 C949 1.370 . S
C948 C950 1.363 1_455 S
C948 H964 0.931 1_455 S
C949 C948 1.370 . S
C949 C953 1.408 . S
C950 C948 1.363 1_655 S
C950 C951 1.370 1_655 S
C950 C954 1.524 . S
C951 C943 1.503 1_465 S
C951 C950 1.370 1_455 S
C951 C952 1.403 1_565 S
C952 C951 1.403 1_545 S
C952 C953 1.404 1_545 S
C952 C955 1.539 . S
C953 C949 1.408 . S
C953 C952 1.404 1_565 S
C953 H965 0.930 . S
C954 C950 1.524 . S
C954 H966 0.956 . S
C954 H967 0.961 . S
C954 H968 0.961 . S
C955 C952 1.539 . S
C955 H969 0.958 . S
C955 H970 0.961 . S
C955 H971 0.960 . S
H956 C940 0.931 . S
H957 C945 0.929 . S
H958 C946 0.960 . S
H959 C946 0.962 . S
H960 C946 0.960 . S
H961 C947 0.962 1_565 S
H962 C947 0.955 1_565 S
H963 C947 0.962 1_455 S
H964 C948 0.931 1_655 S
H965 C953 0.930 . S
H966 C954 0.956 . S
H967 C954 0.961 . S
H968 C954 0.961 . S
H969 C955 0.958 . S
H970 C955 0.961 . S
H971 C955 0.960 . S
C972 C973 1.391 . S
C972 C974 1.394 . S
C972 H988 0.931 . S
C973 C972 1.391 . S
C973 C977 1.376 . S
C974 C972 1.394 . S
C974 C975 1.369 . S
C974 C978 1.531 . S
C975 C974 1.369 . S
C975 C976 1.410 . S
C975 C983 1.503 1_655 S
C976 C975 1.410 . S
C976 C977 1.392 . S
C976 C979 1.511 . S
C977 C973 1.376 . S
C977 C976 1.392 . S
C977 H989 0.929 . S
C978 C974 1.531 . S
C978 H990 0.960 . S
C978 H991 0.962 . S
C978 H992 0.960 . S
C979 C976 1.511 . S
C979 H993 0.961 . S
C979 H994 0.961 1_655 S
C979 H995 0.961 . S
C980 C981 1.370 . S
C980 C982 1.363 . S
C980 H996 0.931 . S
C981 C980 1.370 . S
C981 C985 1.408 . S
C982 C980 1.363 . S
C982 C983 1.370 . S
C982 C986 1.524 . S
C983 C975 1.503 1_455 S
C983 C982 1.370 . S
C983 C984 1.403 . S
C984 C983 1.403 . S
C984 C985 1.404 . S
C984 C987 1.539 1_455 S
C985 C981 1.408 . S
C985 C984 1.404 . S
C985 H997 0.930 . S
C986 C982 1.524 . S
C986 H998 0.956 . S
C986 H999 0.961 . S
C986 H1000 0.961 . S
C987 C984 1.539 1_655 S
C987 H1001 0.958 . S
C987 H1002 0.961 . S
C987 H1003 0.960 . S
H988 C972 0.931 . S
H989 C977 0.929 . S
H990 C978 0.960 . S
H991 C978 0.962 . S
H992 C978 0.960 . S
H993 C979 0.961 . S
H994 C979 0.961 1_455 S
H995 C979 0.961 . S
H996 C980 0.931 . S
H997 C985 0.930 . S
H998 C986 0.956 . S
H999 C986 0.961 . S
H1000 C986 0.961 . S
H1001 C987 0.958 . S
H1002 C987 0.961 . S
H1003 C987 0.960 . S
C1004 C1005 1.391 . S
C1004 C1006 1.394 . S
C1004 H1020 0.931 . S
C1005 C1004 1.391 . S
C1005 C1009 1.376 . S
C1006 C1004 1.394 . S
C1006 C1007 1.369 . S
C1006 C1010 1.531 1_545 S
C1007 C1006 1.369 . S
C1007 C1008 1.410 . S
C1007 C1015 1.503 1_545 S
C1008 C1007 1.410 . S
C1008 C1009 1.392 . S
C1008 C1011 1.511 . S
C1009 C1005 1.376 . S
C1009 C1008 1.392 . S
C1009 H1021 0.929 . S
C1010 C1006 1.531 1_565 S
C1010 H1022 0.960 . S
C1010 H1023 0.962 . S
C1010 H1024 0.960 1_565 S
C1011 C1008 1.511 . S
C1011 H1025 0.961 . S
C1011 H1026 0.961 . S
C1011 H1027 0.961 . S
C1012 C1013 1.370 . S
C1012 C1014 1.363 . S
C1012 H1028 0.931 . S
C1013 C1012 1.370 . S
C1013 C1017 1.408 . S
C1014 C1012 1.363 . S
C1014 C1015 1.370 . S
C1014 C1018 1.524 . S
C1015 C1007 1.503 1_565 S
C1015 C1014 1.370 . S
C1015 C1016 1.403 . S
C1016 C1015 1.403 . S
C1016 C1017 1.404 . S
C1016 C1019 1.539 1_565 S
C1017 C1013 1.408 . S
C1017 C1016 1.404 . S
C1017 H1029 0.930 . S
C1018 C1014 1.524 . S
C1018 H1030 0.956 . S
C1018 H1031 0.961 . S
C1018 H1032 0.961 . S
C1019 C1016 1.539 1_545 S
C1019 H1033 0.958 . S
C1019 H1034 0.961 . S
C1019 H1035 0.960 . S
H1020 C1004 0.931 . S
H1021 C1009 0.929 . S
H1022 C1010 0.960 . S
H1023 C1010 0.962 . S
H1024 C1010 0.960 1_545 S
H1025 C1011 0.961 . S
H1026 C1011 0.961 . S
H1027 C1011 0.961 . S
H1028 C1012 0.931 . S
H1029 C1017 0.930 . S
H1030 C1018 0.956 . S
H1031 C1018 0.961 . S
H1032 C1018 0.961 . S
H1033 C1019 0.958 . S
H1034 C1019 0.961 . S
H1035 C1019 0.960 . S
C1036 C1037 1.391 . S
C1036 C1038 1.394 . S
C1036 H1052 0.931 . S
C1037 C1036 1.391 . S
C1037 C1041 1.376 . S
C1038 C1036 1.394 . S
C1038 C1039 1.369 . S
C1038 C1042 1.531 . S
C1039 C1038 1.369 . S
C1039 C1040 1.410 . S
C1039 C1047 1.503 . S
C1040 C1039 1.410 . S
C1040 C1041 1.392 . S
C1040 C1043 1.511 . S
C1041 C1037 1.376 . S
C1041 C1040 1.392 . S
C1041 H1053 0.929 . S
C1042 C1038 1.531 . S
C1042 H1054 0.960 . S
C1042 H1055 0.962 . S
C1042 H1056 0.960 . S
C1043 C1040 1.511 . S
C1043 H1057 0.961 . S
C1043 H1058 0.961 . S
C1043 H1059 0.961 . S
C1044 C1045 1.370 . S
C1044 C1046 1.363 . S
C1044 H1060 0.931 . S
C1045 C1044 1.370 . S
C1045 C1049 1.408 . S
C1046 C1044 1.363 . S
C1046 C1047 1.370 . S
C1046 C1050 1.524 . S
C1047 C1039 1.503 . S
C1047 C1046 1.370 . S
C1047 C1048 1.403 . S
C1048 C1047 1.403 . S
C1048 C1049 1.404 . S
C1048 C1051 1.539 . S
C1049 C1045 1.408 . S
C1049 C1048 1.404 . S
C1049 H1061 0.930 . S
C1050 C1046 1.524 . S
C1050 H1062 0.956 . S
C1050 H1063 0.961 . S
C1050 H1064 0.961 . S
C1051 C1048 1.539 . S
C1051 H1065 0.958 . S
C1051 H1066 0.961 . S
C1051 H1067 0.960 . S
H1052 C1036 0.931 . S
H1053 C1041 0.929 . S
H1054 C1042 0.960 . S
H1055 C1042 0.962 . S
H1056 C1042 0.960 . S
H1057 C1043 0.961 . S
H1058 C1043 0.961 . S
H1059 C1043 0.961 . S
H1060 C1044 0.931 . S
H1061 C1049 0.930 . S
H1062 C1050 0.956 . S
H1063 C1050 0.961 . S
H1064 C1050 0.961 . S
H1065 C1051 0.958 . S
H1066 C1051 0.961 . S
H1067 C1051 0.960 . S
C1068 C1069 1.391 . S
C1068 C1070 1.394 . S
C1068 H1084 0.931 . S
C1069 C1068 1.391 . S
C1069 C1073 1.376 . S
C1070 C1068 1.394 . S
C1070 C1071 1.369 . S
C1070 C1074 1.531 . S
C1071 C1070 1.369 . S
C1071 C1072 1.410 . S
C1071 C1079 1.503 1_455 S
C1072 C1071 1.410 . S
C1072 C1073 1.392 . S
C1072 C1075 1.511 1_455 S
C1073 C1069 1.376 . S
C1073 C1072 1.392 . S
C1073 H1085 0.929 . S
C1074 C1070 1.531 . S
C1074 H1086 0.960 . S
C1074 H1087 0.962 . S
C1074 H1088 0.960 . S
C1075 C1072 1.511 1_655 S
C1075 H1089 0.961 . S
C1075 H1090 0.961 . S
C1075 H1091 0.961 1_655 S
C1076 C1077 1.370 . S
C1076 C1078 1.363 . S
C1076 H1092 0.931 . S
C1077 C1076 1.370 . S
C1077 C1081 1.408 . S
C1078 C1076 1.363 . S
C1078 C1079 1.370 . S
C1078 C1082 1.524 . S
C1079 C1071 1.503 1_655 S
C1079 C1078 1.370 . S
C1079 C1080 1.403 . S
C1080 C1079 1.403 . S
C1080 C1081 1.404 . S
C1080 C1083 1.539 1_655 S
C1081 C1077 1.408 . S
C1081 C1080 1.404 . S
C1081 H1093 0.930 . S
C1082 C1078 1.524 . S
C1082 H1094 0.956 . S
C1082 H1095 0.961 . S
C1082 H1096 0.961 . S
C1083 C1080 1.539 1_455 S
C1083 H1097 0.958 . S
C1083 H1098 0.961 . S
C1083 H1099 0.960 . S
H1084 C1068 0.931 . S
H1085 C1073 0.929 . S
H1086 C1074 0.960 . S
H1087 C1074 0.962 . S
H1088 C1074 0.960 . S
H1089 C1075 0.961 . S
H1090 C1075 0.961 . S
H1091 C1075 0.961 1_455 S
H1092 C1076 0.931 . S
H1093 C1081 0.930 . S
H1094 C1082 0.956 . S
H1095 C1082 0.961 . S
H1096 C1082 0.961 . S
H1097 C1083 0.958 . S
H1098 C1083 0.961 . S
H1099 C1083 0.960 . S
C1100 C1101 1.391 . S
C1100 C1102 1.394 . S
C1100 H1116 0.931 . S
C1101 C1100 1.391 . S
C1101 C1105 1.376 . S
C1102 C1100 1.394 . S
C1102 C1103 1.369 . S
C1102 C1106 1.531 1_565 S
C1103 C1102 1.369 . S
C1103 C1104 1.410 . S
C1103 C1111 1.503 1_565 S
C1104 C1103 1.410 . S
C1104 C1105 1.392 . S
C1104 C1107 1.511 . S
C1105 C1101 1.376 . S
C1105 C1104 1.392 . S
C1105 H1117 0.929 . S
C1106 C1102 1.531 1_545 S
C1106 H1118 0.960 . S
C1106 H1119 0.962 . S
C1106 H1120 0.960 . S
C1107 C1104 1.511 . S
C1107 H1121 0.961 . S
C1107 H1122 0.961 . S
C1107 H1123 0.961 . S
C1108 C1109 1.370 . S
C1108 C1110 1.363 . S
C1108 H1124 0.931 . S
C1109 C1108 1.370 . S
C1109 C1113 1.408 . S
C1110 C1108 1.363 . S
C1110 C1111 1.370 . S
C1110 C1114 1.524 . S
C1111 C1103 1.503 1_545 S
C1111 C1110 1.370 . S
C1111 C1112 1.403 . S
C1112 C1111 1.403 . S
C1112 C1113 1.404 . S
C1112 C1115 1.539 . S
C1113 C1109 1.408 . S
C1113 C1112 1.404 . S
C1113 H1125 0.930 . S
C1114 C1110 1.524 . S
C1114 H1126 0.956 . S
C1114 H1127 0.961 1_545 S
C1114 H1128 0.961 . S
C1115 C1112 1.539 . S
C1115 H1129 0.958 . S
C1115 H1130 0.961 . S
C1115 H1131 0.960 1_545 S
H1116 C1100 0.931 . S
H1117 C1105 0.929 . S
H1118 C1106 0.960 . S
H1119 C1106 0.962 . S
H1120 C1106 0.960 . S
H1121 C1107 0.961 . S
H1122 C1107 0.961 . S
H1123 C1107 0.961 . S
H1124 C1108 0.931 . S
H1125 C1113 0.930 . S
H1126 C1114 0.956 . S
H1127 C1114 0.961 1_565 S
H1128 C1114 0.961 . S
H1129 C1115 0.958 . S
H1130 C1115 0.961 . S
H1131 C1115 0.960 1_565 S
C1132 C1133 1.391 . S
C1132 C1134 1.394 . S
C1132 H1148 0.931 . S
C1133 C1132 1.391 . S
C1133 C1137 1.376 . S
C1134 C1132 1.394 . S
C1134 C1135 1.369 . S
C1134 C1138 1.531 . S
C1135 C1134 1.369 . S
C1135 C1136 1.410 . S
C1135 C1143 1.503 . S
C1136 C1135 1.410 . S
C1136 C1137 1.392 . S
C1136 C1139 1.511 . S
C1137 C1133 1.376 . S
C1137 C1136 1.392 . S
C1137 H1149 0.929 . S
C1138 C1134 1.531 . S
C1138 H1150 0.960 . S
C1138 H1151 0.962 . S
C1138 H1152 0.960 . S
C1139 C1136 1.511 . S
C1139 H1153 0.961 . S
C1139 H1154 0.961 . S
C1139 H1155 0.961 . S
C1140 C1141 1.370 . S
C1140 C1142 1.363 . S
C1140 H1156 0.931 . S
C1141 C1140 1.370 . S
C1141 C1145 1.408 . S
C1142 C1140 1.363 . S
C1142 C1143 1.370 . S
C1142 C1146 1.524 . S
C1143 C1135 1.503 . S
C1143 C1142 1.370 . S
C1143 C1144 1.403 . S
C1144 C1143 1.403 . S
C1144 C1145 1.404 . S
C1144 C1147 1.539 . S
C1145 C1141 1.408 . S
C1145 C1144 1.404 . S
C1145 H1157 0.930 . S
C1146 C1142 1.524 . S
C1146 H1158 0.956 . S
C1146 H1159 0.961 . S
C1146 H1160 0.961 . S
C1147 C1144 1.539 . S
C1147 H1161 0.958 . S
C1147 H1162 0.961 . S
C1147 H1163 0.960 . S
H1148 C1132 0.931 . S
H1149 C1137 0.929 . S
H1150 C1138 0.960 . S
H1151 C1138 0.962 . S
H1152 C1138 0.960 . S
H1153 C1139 0.961 . S
H1154 C1139 0.961 . S
H1155 C1139 0.961 . S
H1156 C1140 0.931 . S
H1157 C1145 0.930 . S
H1158 C1146 0.956 . S
H1159 C1146 0.961 . S
H1160 C1146 0.961 . S
H1161 C1147 0.958 . S
H1162 C1147 0.961 . S
H1163 C1147 0.960 . S
C1164 C1165 1.391 . S
C1164 C1166 1.394 . S
C1164 H1180 0.931 . S
C1165 C1164 1.391 . S
C1165 C1169 1.376 . S
C1166 C1164 1.394 . S
C1166 C1167 1.369 . S
C1166 C1170 1.531 . S
C1167 C1166 1.369 . S
C1167 C1168 1.410 . S
C1167 C1175 1.503 . S
C1168 C1167 1.410 . S
C1168 C1169 1.392 . S
C1168 C1171 1.511 . S
C1169 C1165 1.376 . S
C1169 C1168 1.392 . S
C1169 H1181 0.929 . S
C1170 C1166 1.531 . S
C1170 H1182 0.960 . S
C1170 H1183 0.962 . S
C1170 H1184 0.960 . S
C1171 C1168 1.511 . S
C1171 H1185 0.961 . S
C1171 H1186 0.961 . S
C1171 H1187 0.961 . S
C1172 C1173 1.370 . S
C1172 C1174 1.363 . S
C1172 H1188 0.931 . S
C1173 C1172 1.370 . S
C1173 C1177 1.408 . S
C1174 C1172 1.363 . S
C1174 C1175 1.370 . S
C1174 C1178 1.524 . S
C1175 C1167 1.503 . S
C1175 C1174 1.370 . S
C1175 C1176 1.403 . S
C1176 C1175 1.403 . S
C1176 C1177 1.404 . S
C1176 C1179 1.539 . S
C1177 C1173 1.408 . S
C1177 C1176 1.404 . S
C1177 H1189 0.930 . S
C1178 C1174 1.524 . S
C1178 H1190 0.956 . S
C1178 H1191 0.961 . S
C1178 H1192 0.961 . S
C1179 C1176 1.539 . S
C1179 H1193 0.958 . S
C1179 H1194 0.961 . S
C1179 H1195 0.960 . S
H1180 C1164 0.931 . S
H1181 C1169 0.929 . S
H1182 C1170 0.960 . S
H1183 C1170 0.962 . S
H1184 C1170 0.960 . S
H1185 C1171 0.961 . S
H1186 C1171 0.961 . S
H1187 C1171 0.961 . S
H1188 C1172 0.931 . S
H1189 C1177 0.930 . S
H1190 C1178 0.956 . S
H1191 C1178 0.961 . S
H1192 C1178 0.961 . S
H1193 C1179 0.958 . S
H1194 C1179 0.961 . S
H1195 C1179 0.960 . S
C1196 C1197 1.391 . S
C1196 C1198 1.394 . S
C1196 H1212 0.931 . S
C1197 C1196 1.391 . S
C1197 C1201 1.376 . S
C1198 C1196 1.394 . S
C1198 C1199 1.369 . S
C1198 C1202 1.531 . S
C1199 C1198 1.369 . S
C1199 C1200 1.410 . S
C1199 C1207 1.503 . S
C1200 C1199 1.410 . S
C1200 C1201 1.392 . S
C1200 C1203 1.511 . S
C1201 C1197 1.376 . S
C1201 C1200 1.392 . S
C1201 H1213 0.929 . S
C1202 C1198 1.531 . S
C1202 H1214 0.960 . S
C1202 H1215 0.962 . S
C1202 H1216 0.960 . S
C1203 C1200 1.511 . S
C1203 H1217 0.961 . S
C1203 H1218 0.961 . S
C1203 H1219 0.961 . S
C1204 C1205 1.370 . S
C1204 C1206 1.363 . S
C1204 H1220 0.931 . S
C1205 C1204 1.370 . S
C1205 C1209 1.408 . S
C1206 C1204 1.363 . S
C1206 C1207 1.370 . S
C1206 C1210 1.524 . S
C1207 C1199 1.503 . S
C1207 C1206 1.370 . S
C1207 C1208 1.403 . S
C1208 C1207 1.403 . S
C1208 C1209 1.404 . S
C1208 C1211 1.539 . S
C1209 C1205 1.408 . S
C1209 C1208 1.404 . S
C1209 H1221 0.930 . S
C1210 C1206 1.524 . S
C1210 H1222 0.956 . S
C1210 H1223 0.961 . S
C1210 H1224 0.961 . S
C1211 C1208 1.539 . S
C1211 H1225 0.958 . S
C1211 H1226 0.961 . S
C1211 H1227 0.960 . S
H1212 C1196 0.931 . S
H1213 C1201 0.929 . S
H1214 C1202 0.960 . S
H1215 C1202 0.962 . S
H1216 C1202 0.960 . S
H1217 C1203 0.961 . S
H1218 C1203 0.961 . S
H1219 C1203 0.961 . S
H1220 C1204 0.931 . S
H1221 C1209 0.930 . S
H1222 C1210 0.956 . S
H1223 C1210 0.961 . S
H1224 C1210 0.961 . S
H1225 C1211 0.958 . S
H1226 C1211 0.961 . S
H1227 C1211 0.960 . S
C1228 C1229 1.391 . S
C1228 C1230 1.394 . S
C1228 H1244 0.931 . S
C1229 C1228 1.391 . S
C1229 C1233 1.376 . S
C1230 C1228 1.394 . S
C1230 C1231 1.369 . S
C1230 C1234 1.531 . S
C1231 C1230 1.369 . S
C1231 C1232 1.410 . S
C1231 C1239 1.503 . S
C1232 C1231 1.410 . S
C1232 C1233 1.392 . S
C1232 C1235 1.511 . S
C1233 C1229 1.376 . S
C1233 C1232 1.392 . S
C1233 H1245 0.929 . S
C1234 C1230 1.531 . S
C1234 H1246 0.960 . S
C1234 H1247 0.962 . S
C1234 H1248 0.960 . S
C1235 C1232 1.511 . S
C1235 H1249 0.961 . S
C1235 H1250 0.961 . S
C1235 H1251 0.961 . S
C1236 C1237 1.370 . S
C1236 C1238 1.363 . S
C1236 H1252 0.931 . S
C1237 C1236 1.370 . S
C1237 C1241 1.408 . S
C1238 C1236 1.363 . S
C1238 C1239 1.370 . S
C1238 C1242 1.524 . S
C1239 C1231 1.503 . S
C1239 C1238 1.370 . S
C1239 C1240 1.403 . S
C1240 C1239 1.403 . S
C1240 C1241 1.404 . S
C1240 C1243 1.539 . S
C1241 C1237 1.408 . S
C1241 C1240 1.404 . S
C1241 H1253 0.930 . S
C1242 C1238 1.524 . S
C1242 H1254 0.956 . S
C1242 H1255 0.961 . S
C1242 H1256 0.961 . S
C1243 C1240 1.539 . S
C1243 H1257 0.958 . S
C1243 H1258 0.961 . S
C1243 H1259 0.960 . S
H1244 C1228 0.931 . S
H1245 C1233 0.929 . S
H1246 C1234 0.960 . S
H1247 C1234 0.962 . S
H1248 C1234 0.960 . S
H1249 C1235 0.961 . S
H1250 C1235 0.961 . S
H1251 C1235 0.961 . S
H1252 C1236 0.931 . S
H1253 C1241 0.930 . S
H1254 C1242 0.956 . S
H1255 C1242 0.961 . S
H1256 C1242 0.961 . S
H1257 C1243 0.958 . S
H1258 C1243 0.961 . S
H1259 C1243 0.960 . S
C1260 C1261 1.391 . S
C1260 C1262 1.394 . S
C1260 H1276 0.931 . S
C1261 C1260 1.391 . S
C1261 C1265 1.376 . S
C1262 C1260 1.394 . S
C1262 C1263 1.369 . S
C1262 C1266 1.531 . S
C1263 C1262 1.369 . S
C1263 C1264 1.410 . S
C1263 C1271 1.503 . S
C1264 C1263 1.410 . S
C1264 C1265 1.392 . S
C1264 C1267 1.511 . S
C1265 C1261 1.376 . S
C1265 C1264 1.392 . S
C1265 H1277 0.929 . S
C1266 C1262 1.531 . S
C1266 H1278 0.960 . S
C1266 H1279 0.962 . S
C1266 H1280 0.960 . S
C1267 C1264 1.511 . S
C1267 H1281 0.961 . S
C1267 H1282 0.961 . S
C1267 H1283 0.961 . S
C1268 C1269 1.370 . S
C1268 C1270 1.363 . S
C1268 H1284 0.931 . S
C1269 C1268 1.370 . S
C1269 C1273 1.408 . S
C1270 C1268 1.363 . S
C1270 C1271 1.370 . S
C1270 C1274 1.524 . S
C1271 C1263 1.503 . S
C1271 C1270 1.370 . S
C1271 C1272 1.403 . S
C1272 C1271 1.403 . S
C1272 C1273 1.404 . S
C1272 C1275 1.539 . S
C1273 C1269 1.408 . S
C1273 C1272 1.404 . S
C1273 H1285 0.930 . S
C1274 C1270 1.524 . S
C1274 H1286 0.956 . S
C1274 H1287 0.961 . S
C1274 H1288 0.961 . S
C1275 C1272 1.539 . S
C1275 H1289 0.958 . S
C1275 H1290 0.961 . S
C1275 H1291 0.960 . S
H1276 C1260 0.931 . S
H1277 C1265 0.929 . S
H1278 C1266 0.960 . S
H1279 C1266 0.962 . S
H1280 C1266 0.960 . S
H1281 C1267 0.961 . S
H1282 C1267 0.961 . S
H1283 C1267 0.961 . S
H1284 C1268 0.931 . S
H1285 C1273 0.930 . S
H1286 C1274 0.956 . S
H1287 C1274 0.961 . S
H1288 C1274 0.961 . S
H1289 C1275 0.958 . S
H1290 C1275 0.961 . S
H1291 C1275 0.960 . S
C1292 C1293 1.391 . S
C1292 C1294 1.394 . S
C1292 H1308 0.931 . S
C1293 C1292 1.391 . S
C1293 C1297 1.376 . S
C1294 C1292 1.394 . S
C1294 C1295 1.369 . S
C1294 C1298 1.531 . S
C1295 C1294 1.369 . S
C1295 C1296 1.410 . S
C1295 C1303 1.503 . S
C1296 C1295 1.410 . S
C1296 C1297 1.392 . S
C1296 C1299 1.511 . S
C1297 C1293 1.376 . S
C1297 C1296 1.392 . S
C1297 H1309 0.929 . S
C1298 C1294 1.531 . S
C1298 H1310 0.960 . S
C1298 H1311 0.962 . S
C1298 H1312 0.960 . S
C1299 C1296 1.511 . S
C1299 H1313 0.961 . S
C1299 H1314 0.961 . S
C1299 H1315 0.961 . S
C1300 C1301 1.370 . S
C1300 C1302 1.363 . S
C1300 H1316 0.931 . S
C1301 C1300 1.370 . S
C1301 C1305 1.408 . S
C1302 C1300 1.363 . S
C1302 C1303 1.370 . S
C1302 C1306 1.524 . S
C1303 C1295 1.503 . S
C1303 C1302 1.370 . S
C1303 C1304 1.403 . S
C1304 C1303 1.403 . S
C1304 C1305 1.404 . S
C1304 C1307 1.539 . S
C1305 C1301 1.408 . S
C1305 C1304 1.404 . S
C1305 H1317 0.930 . S
C1306 C1302 1.524 . S
C1306 H1318 0.956 . S
C1306 H1319 0.961 . S
C1306 H1320 0.961 . S
C1307 C1304 1.539 . S
C1307 H1321 0.958 . S
C1307 H1322 0.961 . S
C1307 H1323 0.960 . S
H1308 C1292 0.931 . S
H1309 C1297 0.929 . S
H1310 C1298 0.960 . S
H1311 C1298 0.962 . S
H1312 C1298 0.960 . S
H1313 C1299 0.961 . S
H1314 C1299 0.961 . S
H1315 C1299 0.961 . S
H1316 C1300 0.931 . S
H1317 C1305 0.930 . S
H1318 C1306 0.956 . S
H1319 C1306 0.961 . S
H1320 C1306 0.961 . S
H1321 C1307 0.958 . S
H1322 C1307 0.961 . S
H1323 C1307 0.960 . S
C1324 C1325 1.391 . S
C1324 C1326 1.394 . S
C1324 H1340 0.931 . S
C1325 C1324 1.391 . S
C1325 C1329 1.376 . S
C1326 C1324 1.394 . S
C1326 C1327 1.369 . S
C1326 C1330 1.531 . S
C1327 C1326 1.369 . S
C1327 C1328 1.410 . S
C1327 C1335 1.503 . S
C1328 C1327 1.410 . S
C1328 C1329 1.392 . S
C1328 C1331 1.511 . S
C1329 C1325 1.376 . S
C1329 C1328 1.392 . S
C1329 H1341 0.929 . S
C1330 C1326 1.531 . S
C1330 H1342 0.960 . S
C1330 H1343 0.962 . S
C1330 H1344 0.960 . S
C1331 C1328 1.511 . S
C1331 H1345 0.961 . S
C1331 H1346 0.961 . S
C1331 H1347 0.961 . S
C1332 C1333 1.370 . S
C1332 C1334 1.363 . S
C1332 H1348 0.931 . S
C1333 C1332 1.370 . S
C1333 C1337 1.408 . S
C1334 C1332 1.363 . S
C1334 C1335 1.370 . S
C1334 C1338 1.524 . S
C1335 C1327 1.503 . S
C1335 C1334 1.370 . S
C1335 C1336 1.403 . S
C1336 C1335 1.403 . S
C1336 C1337 1.404 . S
C1336 C1339 1.539 . S
C1337 C1333 1.408 . S
C1337 C1336 1.404 . S
C1337 H1349 0.930 . S
C1338 C1334 1.524 . S
C1338 H1350 0.956 . S
C1338 H1351 0.961 . S
C1338 H1352 0.961 . S
C1339 C1336 1.539 . S
C1339 H1353 0.958 . S
C1339 H1354 0.961 . S
C1339 H1355 0.960 . S
H1340 C1324 0.931 . S
H1341 C1329 0.929 . S
H1342 C1330 0.960 . S
H1343 C1330 0.962 . S
H1344 C1330 0.960 . S
H1345 C1331 0.961 . S
H1346 C1331 0.961 . S
H1347 C1331 0.961 . S
H1348 C1332 0.931 . S
H1349 C1337 0.930 . S
H1350 C1338 0.956 . S
H1351 C1338 0.961 . S
H1352 C1338 0.961 . S
H1353 C1339 0.958 . S
H1354 C1339 0.961 . S
H1355 C1339 0.960 . S
C397 N104 1.718 . S
C405 N5 1.731 . S
C429 N137 1.725 . S
C437 N38 1.728 . S
C461 N170 1.719 . S
C469 N71 1.740 . S
C493 N203 1.734 . S
C501 N302 1.737 . S
C525 N236 1.734 . S
C533 N335 1.737 . S
C557 N269 1.722 . S
C565 N368 1.739 . S
C589 C325 1.798 . S
C597 C28 1.800 . S
C621 C61 1.773 . S
C629 C358 1.797 . S
C653 C391 1.780 . S
C661 C94 1.799 . S
C685 C226 1.775 . S
C693 C127 1.786 . S
C717 C160 1.806 . S
C725 C259 1.791 . S
C749 C193 1.796 . S
C757 C292 1.786 . S
C781 N14 0.862 . S
C789 N113 0.843 . S
C813 N47 0.930 . S
C821 N146 0.823 . S
C845 N179 0.778 . S
C853 N80 0.891 . S
C877 N212 0.774 . S
C885 N311 0.889 . S
C909 N245 0.927 . S
C917 N344 0.824 . S
C941 N377 0.935 . S
C949 N278 0.830 . S
C973 C371 1.593 . S
C981 C8 1.609 . S
C1005 C41 1.624 . S
C1013 C206 1.622 . S
C1037 C239 1.598 . S
C1045 C74 1.606 . S
C1069 C272 1.584 . S
C1077 C107 1.605 . S
C1101 C140 1.646 . S
C1109 C305 1.629 . S
C1133 C173 1.573 . S
C1141 C338 1.598 . S
C1165 C17 0.512 . S
C1173 C281 0.526 . S
C1197 C50 0.538 . S
C1205 C314 0.529 . S
C1229 C347 0.615 . S
C1237 C83 0.564 . S
C1261 C116 0.515 . S
C1269 C380 0.526 . S
C1293 C215 0.620 . S
C1301 C149 0.568 . S
C1325 C182 0.576 . S
C1333 C248 0.565 . S
