# Generated by pormake.
# Topology hbo, (4)-cn, num edge types: 1
# Building blocks:
#     Node 0, Type 0, BuildingBlock: GALJAG_clean_sbu_0, # of connection points: 4
#     Node 1, Type 0, BuildingBlock: GALJAG_clean_sbu_0, # of connection points: 4
#     Node 2, Type 0, BuildingBlock: GALJAG_clean_sbu_0, # of connection points: 4
#     Node 3, Type 0, BuildingBlock: GALJAG_clean_sbu_0, # of connection points: 4
#     Node 4, Type 0, BuildingBlock: GALJAG_clean_sbu_0, # of connection points: 4
#     Node 5, Type 0, BuildingBlock: GALJAG_clean_sbu_0, # of connection points: 4
#     Node 6, Type 0, BuildingBlock: GALJAG_clean_sbu_0, # of connection points: 4
#     Node 7, Type 0, BuildingBlock: GALJAG_clean_sbu_0, # of connection points: 4
#     Node 8, Type 0, BuildingBlock: GALJAG_clean_sbu_0, # of connection points: 4
#     Node 9, Type 0, BuildingBlock: GALJAG_clean_sbu_0, # of connection points: 4
#     Node 10, Type 0, BuildingBlock: GALJAG_clean_sbu_0, # of connection points: 4
#     Node 11, Type 0, BuildingBlock: GALJAG_clean_sbu_0, # of connection points: 4
#     Node 12, Type 0, BuildingBlock: GALJAG_clean_sbu_0, # of connection points: 4
#     Node 13, Type 0, BuildingBlock: GALJAG_clean_sbu_0, # of connection points: 4
#     Node 14, Type 0, BuildingBlock: GALJAG_clean_sbu_0, # of connection points: 4
#     Node 15, Type 0, BuildingBlock: GALJAG_clean_sbu_0, # of connection points: 4
#     Node 16, Type 0, BuildingBlock: GALJAG_clean_sbu_0, # of connection points: 4
#     Node 17, Type 0, BuildingBlock: GALJAG_clean_sbu_0, # of connection points: 4
#     Node 18, Type 0, BuildingBlock: GALJAG_clean_sbu_0, # of connection points: 4
#     Node 19, Type 0, BuildingBlock: GALJAG_clean_sbu_0, # of connection points: 4
#     Node 20, Type 0, BuildingBlock: GALJAG_clean_sbu_0, # of connection points: 4
#     Node 21, Type 0, BuildingBlock: GALJAG_clean_sbu_0, # of connection points: 4
#     Node 22, Type 0, BuildingBlock: GALJAG_clean_sbu_0, # of connection points: 4
#     Node 23, Type 0, BuildingBlock: GALJAG_clean_sbu_0, # of connection points: 4
#     Edge 24, Type (0, 0), BuildingBlock: ZUJKAS_clean_linker_0, # of connection points: 2
#     Edge 25, Type (0, 0), BuildingBlock: ZUJKAS_clean_linker_0, # of connection points: 2
#     Edge 26, Type (0, 0), BuildingBlock: ZUJKAS_clean_linker_0, # of connection points: 2
#     Edge 27, Type (0, 0), BuildingBlock: ZUJKAS_clean_linker_0, # of connection points: 2
#     Edge 28, Type (0, 0), BuildingBlock: ZUJKAS_clean_linker_0, # of connection points: 2
#     Edge 29, Type (0, 0), BuildingBlock: ZUJKAS_clean_linker_0, # of connection points: 2
#     Edge 30, Type (0, 0), BuildingBlock: ZUJKAS_clean_linker_0, # of connection points: 2
#     Edge 31, Type (0, 0), BuildingBlock: ZUJKAS_clean_linker_0, # of connection points: 2
#     Edge 32, Type (0, 0), BuildingBlock: ZUJKAS_clean_linker_0, # of connection points: 2
#     Edge 33, Type (0, 0), BuildingBlock: ZUJKAS_clean_linker_0, # of connection points: 2
#     Edge 34, Type (0, 0), BuildingBlock: ZUJKAS_clean_linker_0, # of connection points: 2
#     Edge 35, Type (0, 0), BuildingBlock: ZUJKAS_clean_linker_0, # of connection points: 2
#     Edge 36, Type (0, 0), BuildingBlock: ZUJKAS_clean_linker_0, # of connection points: 2
#     Edge 37, Type (0, 0), BuildingBlock: ZUJKAS_clean_linker_0, # of connection points: 2
#     Edge 38, Type (0, 0), BuildingBlock: ZUJKAS_clean_linker_0, # of connection points: 2
#     Edge 39, Type (0, 0), BuildingBlock: ZUJKAS_clean_linker_0, # of connection points: 2
#     Edge 40, Type (0, 0), BuildingBlock: ZUJKAS_clean_linker_0, # of connection points: 2
#     Edge 41, Type (0, 0), BuildingBlock: ZUJKAS_clean_linker_0, # of connection points: 2
#     Edge 42, Type (0, 0), BuildingBlock: ZUJKAS_clean_linker_0, # of connection points: 2
#     Edge 43, Type (0, 0), BuildingBlock: ZUJKAS_clean_linker_0, # of connection points: 2
#     Edge 44, Type (0, 0), BuildingBlock: ZUJKAS_clean_linker_0, # of connection points: 2
#     Edge 45, Type (0, 0), BuildingBlock: ZUJKAS_clean_linker_0, # of connection points: 2
#     Edge 46, Type (0, 0), BuildingBlock: ZUJKAS_clean_linker_0, # of connection points: 2
#     Edge 47, Type (0, 0), BuildingBlock: ZUJKAS_clean_linker_0, # of connection points: 2
#     Edge 48, Type (0, 0), BuildingBlock: ZUJKAS_clean_linker_0, # of connection points: 2
#     Edge 49, Type (0, 0), BuildingBlock: ZUJKAS_clean_linker_0, # of connection points: 2
#     Edge 50, Type (0, 0), BuildingBlock: ZUJKAS_clean_linker_0, # of connection points: 2
#     Edge 51, Type (0, 0), BuildingBlock: ZUJKAS_clean_linker_0, # of connection points: 2
#     Edge 52, Type (0, 0), BuildingBlock: ZUJKAS_clean_linker_0, # of connection points: 2
#     Edge 53, Type (0, 0), BuildingBlock: ZUJKAS_clean_linker_0, # of connection points: 2
#     Edge 54, Type (0, 0), BuildingBlock: ZUJKAS_clean_linker_0, # of connection points: 2
#     Edge 55, Type (0, 0), BuildingBlock: ZUJKAS_clean_linker_0, # of connection points: 2
#     Edge 56, Type (0, 0), BuildingBlock: ZUJKAS_clean_linker_0, # of connection points: 2
#     Edge 57, Type (0, 0), BuildingBlock: ZUJKAS_clean_linker_0, # of connection points: 2
#     Edge 58, Type (0, 0), BuildingBlock: ZUJKAS_clean_linker_0, # of connection points: 2
#     Edge 59, Type (0, 0), BuildingBlock: ZUJKAS_clean_linker_0, # of connection points: 2
#     Edge 60, Type (0, 0), BuildingBlock: ZUJKAS_clean_linker_0, # of connection points: 2
#     Edge 61, Type (0, 0), BuildingBlock: ZUJKAS_clean_linker_0, # of connection points: 2
#     Edge 62, Type (0, 0), BuildingBlock: ZUJKAS_clean_linker_0, # of connection points: 2
#     Edge 63, Type (0, 0), BuildingBlock: ZUJKAS_clean_linker_0, # of connection points: 2
#     Edge 64, Type (0, 0), BuildingBlock: ZUJKAS_clean_linker_0, # of connection points: 2
#     Edge 65, Type (0, 0), BuildingBlock: ZUJKAS_clean_linker_0, # of connection points: 2
#     Edge 66, Type (0, 0), BuildingBlock: ZUJKAS_clean_linker_0, # of connection points: 2
#     Edge 67, Type (0, 0), BuildingBlock: ZUJKAS_clean_linker_0, # of connection points: 2
#     Edge 68, Type (0, 0), BuildingBlock: ZUJKAS_clean_linker_0, # of connection points: 2
#     Edge 69, Type (0, 0), BuildingBlock: ZUJKAS_clean_linker_0, # of connection points: 2
#     Edge 70, Type (0, 0), BuildingBlock: ZUJKAS_clean_linker_0, # of connection points: 2
#     Edge 71, Type (0, 0), BuildingBlock: ZUJKAS_clean_linker_0, # of connection points: 2
# Relax obj value: 0.092
# Max RMSD: 0.160
# Mean RMSD: 0.160
data_MOF--net-hbo--node1-GALJAG_clean_sbu_0--edge1-ZUJKAS_clean_linker_0
_symmetry_space_group_name_H-M    P1
_symmetry_Int_Tables_number       1
_symmetry_cell_setting            triclinic
loop_
_symmetry_equiv_pos_as_xyz
'x, y, z'
_cell_length_a     69.198069
_cell_length_b     69.280896
_cell_length_c     69.242234
_cell_angle_alpha  89.992614
_cell_angle_beta   90.004298
_cell_angle_gamma 90.000441
loop_
_atom_site_label
_atom_site_type_symbol
_atom_site_fract_x
_atom_site_fract_y
_atom_site_fract_z
_atom_type_partial_charge
In0 In 0.13294 0.36011 0.24013 0.0
O1 O 0.13981 0.38226 0.26367 0.0
O2 O 0.1236 0.39144 0.23925 0.0
C3 C 0.14223 0.32829 0.26041 0.0
C4 C 0.09568 0.35416 0.23079 0.0
C5 C 0.16258 0.36121 0.2148 0.0
O6 O 0.13932 0.3444 0.26847 0.0
O7 O 0.14027 0.32833 0.24231 0.0
O8 O 0.14652 0.35362 0.21073 0.0
O9 O 0.16346 0.36865 0.23137 0.0
C10 C 0.13125 0.39592 0.25515 0.0
O11 O 0.10764 0.36127 0.219 0.0
O12 O 0.10256 0.35 0.24713 0.0
In13 In 0.14061 0.63143 0.74536 0.0
O14 O 0.1408 0.60815 0.72215 0.0
O15 O 0.15167 0.60093 0.74997 0.0
C16 C 0.13918 0.66083 0.71988 0.0
C17 C 0.10448 0.62901 0.75961 0.0
C18 C 0.17075 0.64036 0.76836 0.0
O19 O 0.14892 0.64575 0.71693 0.0
O20 O 0.13 0.66101 0.73559 0.0
O21 O 0.17132 0.64185 0.75024 0.0
O22 O 0.15489 0.63434 0.77504 0.0
C23 C 0.14821 0.59547 0.73293 0.0
O24 O 0.11724 0.63961 0.76717 0.0
O25 O 0.11006 0.61954 0.74509 0.0
In26 In 0.85693 0.63193 0.25581 0.0
O27 O 0.85636 0.60777 0.27825 0.0
O28 O 0.84752 0.60124 0.24957 0.0
C29 C 0.85711 0.6626 0.27982 0.0
C30 C 0.8934 0.62925 0.24258 0.0
C31 C 0.82649 0.64031 0.23307 0.0
O32 O 0.84859 0.64704 0.28391 0.0
O33 O 0.86573 0.66255 0.26381 0.0
O34 O 0.84331 0.63802 0.22638 0.0
O35 O 0.82512 0.63841 0.25113 0.0
C36 C 0.85019 0.59524 0.26655 0.0
O37 O 0.87993 0.63645 0.23262 0.0
O38 O 0.88841 0.62339 0.2591 0.0
In39 In 0.86669 0.35548 0.75273 0.0
O40 O 0.86699 0.38065 0.73139 0.0
O41 O 0.86533 0.38696 0.76141 0.0
C42 C 0.8595 0.32735 0.72684 0.0
C43 C 0.90385 0.35225 0.7638 0.0
C44 C 0.83605 0.34894 0.77581 0.0
O45 O 0.85616 0.34491 0.72331 0.0
O46 O 0.86672 0.3241 0.74324 0.0
O47 O 0.85253 0.34196 0.77929 0.0
O48 O 0.83514 0.3593 0.76088 0.0
C49 C 0.86585 0.39339 0.74438 0.0
O50 O 0.89027 0.35425 0.77579 0.0
O51 O 0.89864 0.35187 0.74635 0.0
In52 In 0.25411 0.13348 0.35509 0.0
O53 O 0.2326 0.10862 0.35227 0.0
O54 O 0.26242 0.10187 0.35542 0.0
C55 C 0.23116 0.16366 0.34638 0.0
C56 C 0.25985 0.13706 0.39332 0.0
C57 C 0.28029 0.13826 0.32675 0.0
O58 O 0.22635 0.14646 0.34276 0.0
O59 O 0.24736 0.16552 0.3545 0.0
O60 O 0.28395 0.14224 0.34417 0.0
O61 O 0.26357 0.13165 0.32376 0.0
C62 C 0.2454 0.09568 0.35347 0.0
O63 O 0.27366 0.13716 0.38141 0.0
O64 O 0.24332 0.13512 0.38591 0.0
In65 In 0.35941 0.7526 0.8676 0.0
O66 O 0.38209 0.72904 0.86295 0.0
O67 O 0.39165 0.75675 0.87192 0.0
C68 C 0.33248 0.72604 0.85824 0.0
C69 C 0.35552 0.76399 0.90449 0.0
C70 C 0.35287 0.77999 0.84064 0.0
O71 O 0.33218 0.73521 0.87396 0.0
O72 O 0.3465 0.73008 0.84733 0.0
O73 O 0.34091 0.77619 0.85384 0.0
O74 O 0.36825 0.7703 0.84132 0.0
C75 C 0.39616 0.73974 0.86733 0.0
O76 O 0.35623 0.77591 0.89072 0.0
O77 O 0.35681 0.7465 0.89959 0.0
In78 In 0.75682 0.86621 0.35423 0.0
O79 O 0.7337 0.8635 0.37768 0.0
O80 O 0.76286 0.8678 0.38635 0.0
C81 C 0.73453 0.86026 0.32288 0.0
C82 C 0.7668 0.90359 0.3514 0.0
C83 C 0.78084 0.83578 0.35089 0.0
O84 O 0.72855 0.85714 0.33982 0.0
O85 O 0.75162 0.86648 0.32184 0.0
O86 O 0.7859 0.85272 0.34657 0.0
O87 O 0.76374 0.83424 0.35698 0.0
C88 C 0.74552 0.86547 0.39143 0.0
O89 O 0.77919 0.8903 0.35275 0.0
O90 O 0.74945 0.898 0.35147 0.0
In91 In 0.63432 0.24831 0.86543 0.0
O92 O 0.63238 0.22602 0.88959 0.0
O93 O 0.63965 0.2549 0.89708 0.0
C94 C 0.6378 0.22399 0.83519 0.0
C95 C 0.5978 0.26164 0.86591 0.0
C96 C 0.66555 0.27043 0.85866 0.0
O97 O 0.64374 0.2198 0.85189 0.0
O98 O 0.62981 0.24028 0.83384 0.0
O99 O 0.64859 0.27606 0.85498 0.0
O100 O 0.66668 0.25378 0.86594 0.0
C101 C 0.63645 0.23791 0.90279 0.0
O102 O 0.61212 0.27272 0.86379 0.0
O103 O 0.60195 0.244 0.86752 0.0
In104 In 0.24581 0.85572 0.63879 0.0
O105 O 0.26735 0.84919 0.61462 0.0
O106 O 0.23803 0.85444 0.60707 0.0
C107 C 0.26846 0.85089 0.67005 0.0
C108 C 0.23855 0.89384 0.63985 0.0
C109 C 0.22029 0.82696 0.64398 0.0
O110 O 0.27477 0.84888 0.65307 0.0
O111 O 0.25082 0.85529 0.67118 0.0
O112 O 0.21566 0.84451 0.64559 0.0
O113 O 0.23779 0.82397 0.63984 0.0
C114 C 0.25486 0.85042 0.60139 0.0
O115 O 0.22543 0.88139 0.64194 0.0
O116 O 0.25523 0.88705 0.63715 0.0
In117 In 0.63269 0.74705 0.13643 0.0
O118 O 0.6331 0.76874 0.11158 0.0
O119 O 0.6306 0.73888 0.10482 0.0
C120 C 0.64183 0.77533 0.1616 0.0
C121 C 0.59594 0.735 0.14024 0.0
C122 C 0.66121 0.72178 0.14463 0.0
O123 O 0.65034 0.77329 0.14563 0.0
O124 O 0.62844 0.76338 0.16467 0.0
O125 O 0.64671 0.72409 0.15539 0.0
O126 O 0.66118 0.73197 0.12956 0.0
C127 C 0.63143 0.756 0.09866 0.0
O128 O 0.61007 0.72349 0.14069 0.0
O129 O 0.60041 0.75253 0.13814 0.0
In130 In 0.74397 0.13639 0.63647 0.0
O131 O 0.72079 0.13797 0.61299 0.0
O132 O 0.75022 0.13564 0.60441 0.0
C133 C 0.72017 0.14298 0.66655 0.0
C134 C 0.75393 0.09892 0.63824 0.0
C135 C 0.76887 0.16593 0.64161 0.0
O136 O 0.71666 0.1493 0.64982 0.0
O137 O 0.73551 0.13328 0.66799 0.0
O138 O 0.7719 0.14934 0.64846 0.0
O139 O 0.75345 0.16752 0.63207 0.0
C140 C 0.73278 0.13692 0.59928 0.0
O141 O 0.76634 0.11217 0.63652 0.0
O142 O 0.73663 0.10463 0.6391 0.0
In143 In 0.35941 0.25117 0.13181 0.0
O144 O 0.38223 0.27333 0.14062 0.0
O145 O 0.39142 0.2482 0.12555 0.0
C146 C 0.32888 0.27457 0.13804 0.0
C147 C 0.3564 0.23971 0.09474 0.0
C148 C 0.35736 0.22639 0.16178 0.0
O149 O 0.34548 0.28103 0.13419 0.0
O150 O 0.32772 0.25643 0.13855 0.0
O151 O 0.349 0.22326 0.1459 0.0
O152 O 0.36683 0.24191 0.16249 0.0
C153 C 0.39612 0.26389 0.13351 0.0
O154 O 0.35982 0.22807 0.10832 0.0
O155 O 0.35429 0.25704 0.0999 0.0
In156 In 0.86381 0.63534 0.74989 0.0
O157 O 0.88855 0.63723 0.77157 0.0
O158 O 0.89549 0.63545 0.74167 0.0
C159 C 0.83527 0.64304 0.77519 0.0
C160 C 0.86165 0.5974 0.74182 0.0
C161 C 0.85691 0.66425 0.72472 0.0
O162 O 0.85249 0.64834 0.77801 0.0
O163 O 0.83257 0.63379 0.75975 0.0
O164 O 0.84982 0.6476 0.72259 0.0
O165 O 0.86765 0.66614 0.73929 0.0
C166 C 0.90158 0.63663 0.75881 0.0
O167 O 0.86268 0.61001 0.7287 0.0
O168 O 0.86164 0.60398 0.7588 0.0
In169 In 0.85418 0.35971 0.23999 0.0
O170 O 0.85698 0.38195 0.26403 0.0
O171 O 0.8451 0.39096 0.23706 0.0
C172 C 0.85192 0.33117 0.26651 0.0
C173 C 0.89071 0.35971 0.22633 0.0
C174 C 0.82455 0.35399 0.21519 0.0
O175 O 0.84365 0.34722 0.26865 0.0
O176 O 0.86162 0.32965 0.2512 0.0
O177 O 0.8416 0.35672 0.20939 0.0
O178 O 0.82262 0.35407 0.23325 0.0
C179 C 0.84982 0.39549 0.2541 0.0
O180 O 0.87937 0.34569 0.22385 0.0
O181 O 0.88354 0.37377 0.23537 0.0
In182 In 0.13954 0.35986 0.74731 0.0
O183 O 0.1175 0.35116 0.77025 0.0
O184 O 0.10866 0.37081 0.74837 0.0
C185 C 0.17106 0.35195 0.7688 0.0
C186 C 0.14598 0.39596 0.73462 0.0
C187 C 0.13758 0.33034 0.72203 0.0
O188 O 0.15565 0.35833 0.77615 0.0
O189 O 0.17042 0.34941 0.7508 0.0
O190 O 0.1469 0.3456 0.7186 0.0
O191 O 0.12906 0.33006 0.73812 0.0
C192 C 0.1041 0.36135 0.76325 0.0
O193 O 0.13887 0.38305 0.72392 0.0
O194 O 0.14967 0.39066 0.75165 0.0
In195 In 0.13482 0.63149 0.23525 0.0
O196 O 0.13689 0.60942 0.25974 0.0
O197 O 0.137 0.59914 0.23081 0.0
C198 C 0.1429 0.66358 0.25569 0.0
C199 C 0.09652 0.63261 0.22847 0.0
C200 C 0.16287 0.63483 0.20851 0.0
O201 O 0.14758 0.64692 0.2614 0.0
O202 O 0.13411 0.664 0.23974 0.0
O203 O 0.14548 0.63907 0.20494 0.0
O204 O 0.16596 0.62888 0.22544 0.0
C205 C 0.13769 0.59506 0.24855 0.0
O206 O 0.10865 0.63009 0.21509 0.0
O207 O 0.10375 0.63455 0.24506 0.0
In208 In 0.74612 0.8586 0.63165 0.0
O209 O 0.76804 0.88288 0.63614 0.0
O210 O 0.73956 0.89028 0.62718 0.0
C211 C 0.76976 0.82856 0.63892 0.0
C212 C 0.73746 0.85523 0.59394 0.0
C213 C 0.72164 0.85522 0.66178 0.0
O214 O 0.77517 0.84587 0.64078 0.0
O215 O 0.75256 0.8265 0.63325 0.0
O216 O 0.71806 0.84795 0.64546 0.0
O217 O 0.73736 0.86433 0.66276 0.0
C218 C 0.75626 0.89607 0.63162 0.0
O219 O 0.72461 0.85753 0.60667 0.0
O220 O 0.75453 0.85443 0.60029 0.0
In221 In 0.63035 0.24434 0.14147 0.0
O222 O 0.64442 0.22921 0.11583 0.0
O223 O 0.61448 0.23577 0.11399 0.0
C224 C 0.64066 0.21792 0.16831 0.0
C225 C 0.59543 0.25999 0.14871 0.0
C226 C 0.65735 0.27241 0.14156 0.0
O227 O 0.63044 0.21358 0.15389 0.0
O228 O 0.64554 0.23538 0.16911 0.0
O229 O 0.64505 0.27051 0.15488 0.0
O230 O 0.65576 0.2604 0.12797 0.0
C231 C 0.62916 0.22868 0.10588 0.0
O232 O 0.60794 0.26829 0.13838 0.0
O233 O 0.60063 0.24392 0.15553 0.0
In234 In 0.24021 0.13664 0.63462 0.0
O235 O 0.26181 0.14201 0.61029 0.0
O236 O 0.23256 0.13622 0.60281 0.0
C237 C 0.26299 0.14365 0.66537 0.0
C238 C 0.23446 0.09835 0.63714 0.0
C239 C 0.21382 0.16476 0.6393 0.0
O240 O 0.26858 0.14649 0.64826 0.0
O241 O 0.24596 0.13738 0.66691 0.0
O242 O 0.21011 0.14726 0.64275 0.0
O243 O 0.23078 0.16801 0.63347 0.0
C244 C 0.24944 0.13997 0.59705 0.0
O245 O 0.22068 0.11026 0.63759 0.0
O246 O 0.25099 0.10578 0.63529 0.0
In247 In 0.35999 0.73744 0.1358 0.0
O248 O 0.38377 0.71513 0.1305 0.0
O249 O 0.3892 0.73753 0.15073 0.0
C250 C 0.33148 0.71097 0.13314 0.0
C251 C 0.36122 0.75714 0.10226 0.0
C252 C 0.35118 0.76 0.16622 0.0
O253 O 0.34538 0.70933 0.14481 0.0
O254 O 0.33221 0.72574 0.12253 0.0
O255 O 0.36189 0.76573 0.15264 0.0
O256 O 0.34497 0.743 0.16441 0.0
C257 C 0.39548 0.72273 0.14222 0.0
O258 O 0.34933 0.7611 0.11547 0.0
O259 O 0.37251 0.74336 0.10603 0.0
In260 In 0.74325 0.13711 0.36144 0.0
O261 O 0.76675 0.11624 0.35152 0.0
O262 O 0.74694 0.10664 0.37294 0.0
C263 C 0.76496 0.16828 0.35289 0.0
C264 C 0.7299 0.14236 0.39759 0.0
C265 C 0.71753 0.13458 0.33222 0.0
O266 O 0.7721 0.15314 0.36006 0.0
O267 O 0.74695 0.16769 0.3502 0.0
O268 O 0.71485 0.14521 0.34676 0.0
O269 O 0.733 0.12501 0.33259 0.0
C270 C 0.76134 0.10273 0.36248 0.0
O271 O 0.72031 0.13355 0.38485 0.0
O272 O 0.74608 0.14861 0.39202 0.0
In273 In 0.36405 0.24587 0.8584 0.0
O274 O 0.37625 0.22763 0.88311 0.0
O275 O 0.34732 0.23749 0.88539 0.0
C276 C 0.35516 0.21901 0.83161 0.0
C277 C 0.39962 0.26165 0.85821 0.0
C278 C 0.34003 0.27523 0.84948 0.0
O279 O 0.34519 0.22141 0.84666 0.0
O280 O 0.36972 0.22983 0.83034 0.0
O281 O 0.34929 0.2659 0.8369 0.0
O282 O 0.34326 0.2701 0.86664 0.0
C283 C 0.36104 0.22835 0.89311 0.0
O284 O 0.38544 0.2699 0.86614 0.0
O285 O 0.39581 0.24556 0.85062 0.0
In286 In 0.2496 0.85412 0.36082 0.0
O287 O 0.22851 0.87947 0.36013 0.0
O288 O 0.25854 0.88544 0.36311 0.0
C289 C 0.22396 0.82697 0.3497 0.0
C290 C 0.25729 0.849 0.39852 0.0
C291 C 0.27592 0.84898 0.33259 0.0
O292 O 0.22236 0.84444 0.34481 0.0
O293 O 0.23821 0.82336 0.36042 0.0
O294 O 0.27674 0.83998 0.34841 0.0
O295 O 0.26204 0.86065 0.33118 0.0
C296 C 0.24161 0.89206 0.36175 0.0
O297 O 0.27048 0.84988 0.38595 0.0
O298 O 0.24034 0.85072 0.39203 0.0
In299 In 0.6342 0.74666 0.85776 0.0
O300 O 0.63469 0.76858 0.88242 0.0
O301 O 0.63096 0.73888 0.88933 0.0
C302 C 0.64094 0.77129 0.82848 0.0
C303 C 0.59722 0.73564 0.8531 0.0
C304 C 0.66596 0.72439 0.85437 0.0
O305 O 0.64287 0.77618 0.84594 0.0
O306 O 0.63553 0.7541 0.82589 0.0
O307 O 0.64991 0.71967 0.84714 0.0
O308 O 0.66589 0.74017 0.86343 0.0
C309 C 0.63229 0.75599 0.8954 0.0
O310 O 0.61066 0.7236 0.85574 0.0
O311 O 0.60252 0.75305 0.85264 0.0
H312 H 0.1343 0.58181 0.28567 0.0
H313 H 0.13556 0.54806 0.29657 0.0
H314 H 0.14551 0.5296 0.23792 0.0
H315 H 0.14421 0.56303 0.22698 0.0
H316 H 0.11075 0.51761 0.28296 0.0
H317 H 0.18788 0.50151 0.26955 0.0
H318 H 0.1788 0.52584 0.27214 0.0
H319 H 0.17661 0.51338 0.24944 0.0
C320 C 0.13693 0.57053 0.27517 0.0
C321 C 0.13917 0.575 0.25549 0.0
C322 C 0.13766 0.55132 0.28141 0.0
C323 C 0.14095 0.53644 0.26808 0.0
C324 C 0.14335 0.54094 0.24848 0.0
H325 H 0.10977 0.42579 0.2417 0.0
H326 H 0.11181 0.45961 0.25112 0.0
C327 C 0.14247 0.56003 0.24223 0.0
C328 C 0.14054 0.51598 0.27405 0.0
H329 H 0.16602 0.47421 0.26888 0.0
C330 C 0.12296 0.50814 0.2804 0.0
C331 C 0.15658 0.50373 0.27104 0.0
C332 C 0.1761 0.51157 0.26536 0.0
C333 C 0.12053 0.4881 0.28207 0.0
C334 C 0.13601 0.47576 0.27707 0.0
C335 C 0.15409 0.4837 0.2725 0.0
C336 C 0.13305 0.45491 0.2736 0.0
C337 C 0.10118 0.48031 0.28834 0.0
C338 C 0.1444 0.44103 0.28306 0.0
C339 C 0.14328 0.4216 0.27765 0.0
C340 C 0.13103 0.4159 0.26249 0.0
C341 C 0.11934 0.42976 0.25343 0.0
C342 C 0.12035 0.44908 0.25893 0.0
H343 H 0.09354 0.49073 0.29785 0.0
H344 H 0.09203 0.47791 0.2754 0.0
H345 H 0.10274 0.46637 0.2961 0.0
H346 H 0.15446 0.44532 0.29426 0.0
H347 H 0.15249 0.41119 0.28482 0.0
H348 H 0.93156 0.63669 0.7335 0.0
H349 H 0.96605 0.63665 0.74092 0.0
H350 H 0.95322 0.63756 0.80186 0.0
H351 H 0.91848 0.63751 0.79455 0.0
H352 H 0.98718 0.66476 0.76368 0.0
H353 H 0.98995 0.59011 0.79362 0.0
H354 H 0.97011 0.59835 0.77882 0.0
H355 H 0.97225 0.60652 0.8033 0.0
C356 C 0.93604 0.6369 0.74849 0.0
C357 C 0.92236 0.63703 0.76346 0.0
C358 C 0.95573 0.63691 0.75269 0.0
C359 C 0.9621 0.63696 0.77191 0.0
C360 C 0.94852 0.63731 0.78694 0.0
H361 H 0.08775 0.65149 0.78745 0.0
H362 H 0.05319 0.65373 0.79512 0.0
C363 C 0.92874 0.63735 0.78274 0.0
C364 C 0.98305 0.63651 0.77588 0.0
H365 H 0.0195 0.60626 0.78947 0.0
C366 C 0.99429 0.65215 0.76966 0.0
C367 C 0.99213 0.61996 0.7836 0.0
C368 C 0.98059 0.60268 0.79017 0.0
C369 C 0.01452 0.65133 0.77009 0.0
C370 C 0.02364 0.63448 0.77717 0.0
C371 C 0.01238 0.61918 0.7842 0.0
C372 C 0.04465 0.63153 0.77487 0.0
C373 C 0.02597 0.66797 0.76189 0.0
C374 C 0.05123 0.61782 0.76152 0.0
C375 C 0.07084 0.6165 0.75714 0.0
C376 C 0.08421 0.62884 0.76611 0.0
C377 C 0.07772 0.64187 0.78026 0.0
C378 C 0.05804 0.64321 0.78461 0.0
H379 H 0.0166 0.67871 0.75451 0.0
H380 H 0.03376 0.67542 0.77375 0.0
H381 H 0.03689 0.66265 0.75142 0.0
H382 H 0.04108 0.60869 0.75387 0.0
H383 H 0.07544 0.60625 0.74626 0.0
H384 H 0.83451 0.42631 0.23531 0.0
H385 H 0.83228 0.45953 0.24679 0.0
H386 H 0.85755 0.44273 0.3012 0.0
H387 H 0.86005 0.40931 0.2897 0.0
H388 H 0.81354 0.47516 0.28046 0.0
H389 H 0.89345 0.48596 0.28044 0.0
H390 H 0.88229 0.46585 0.2682 0.0
H391 H 0.88385 0.46604 0.29406 0.0
C392 C 0.83953 0.42964 0.24975 0.0
C393 C 0.84761 0.41528 0.26155 0.0
C394 C 0.83817 0.4486 0.25631 0.0
C395 C 0.84489 0.45355 0.27475 0.0
C396 C 0.85249 0.43918 0.28683 0.0
H397 H 0.86067 0.57707 0.30005 0.0
H398 H 0.85747 0.54254 0.30751 0.0
C399 C 0.85387 0.42014 0.28026 0.0
C400 C 0.84464 0.47402 0.28064 0.0
H401 H 0.87407 0.51331 0.28454 0.0
C402 C 0.82675 0.48348 0.28177 0.0
C403 C 0.86193 0.48475 0.2825 0.0
C404 C 0.88152 0.47525 0.28117 0.0
C405 C 0.82571 0.5036 0.28352 0.0
C406 C 0.84299 0.51444 0.28385 0.0
C407 C 0.86086 0.50489 0.28424 0.0
C408 C 0.84298 0.53552 0.28073 0.0
C409 C 0.80614 0.51314 0.2842 0.0
C410 C 0.83594 0.54287 0.26322 0.0
C411 C 0.83789 0.5624 0.25887 0.0
C412 C 0.84695 0.57494 0.27196 0.0
C413 C 0.85357 0.56769 0.28974 0.0
C414 C 0.85174 0.54804 0.29402 0.0
H415 H 0.79506 0.50328 0.29035 0.0
H416 H 0.80653 0.52659 0.29293 0.0
H417 H 0.80159 0.51691 0.2693 0.0
H418 H 0.82954 0.53335 0.25258 0.0
H419 H 0.83266 0.56758 0.24507 0.0
H420 H 0.07394 0.38353 0.75149 0.0
H421 H 0.04025 0.38087 0.76136 0.0
H422 H 0.05545 0.3362 0.80203 0.0
H423 H 0.08937 0.33866 0.79204 0.0
H424 H 0.02633 0.32555 0.77754 0.0
H425 H 0.00972 0.3969 0.80885 0.0
H426 H 0.02162 0.39933 0.78597 0.0
H427 H 0.03419 0.38826 0.80589 0.0
C428 C 0.07019 0.37338 0.76279 0.0
C429 C 0.08424 0.36125 0.77095 0.0
C430 C 0.05095 0.372 0.76855 0.0
C431 C 0.04541 0.35856 0.78266 0.0
C432 C 0.0595 0.3468 0.79127 0.0
H433 H 0.91921 0.35632 0.8 0.0
H434 H 0.95354 0.35535 0.80897 0.0
C435 C 0.07882 0.34822 0.78554 0.0
C436 C 0.02463 0.35532 0.78642 0.0
H437 H 0.98259 0.37973 0.79438 0.0
C438 C 0.01679 0.33725 0.78172 0.0
C439 C 0.01221 0.37047 0.79218 0.0
C440 C 0.01991 0.38976 0.79871 0.0
C441 C 0.99675 0.33444 0.78099 0.0
C442 C 0.98434 0.35018 0.7848 0.0
C443 C 0.99216 0.36775 0.79117 0.0
C444 C 0.96357 0.34945 0.77997 0.0
C445 C 0.98904 0.31486 0.77537 0.0
C446 C 0.95796 0.34662 0.76071 0.0
C447 C 0.93851 0.34727 0.75556 0.0
C448 C 0.9243 0.35083 0.76958 0.0
C449 C 0.92988 0.35349 0.78892 0.0
C450 C 0.94943 0.35293 0.79406 0.0
H451 H -0.00059 0.30323 0.77921 0.0
H452 H 0.97498 0.31186 0.78251 0.0
H453 H 0.98684 0.31442 0.7595 0.0
H454 H 0.9687 0.34435 0.74956 0.0
H455 H 0.93464 0.34522 0.74054 0.0
H456 H 0.16181 0.42536 0.75514 0.0
H457 H 0.16532 0.45897 0.74528 0.0
H458 H 0.14132 0.44538 0.68941 0.0
H459 H 0.13755 0.41155 0.69929 0.0
H460 H 0.18514 0.47615 0.71286 0.0
H461 H 0.10534 0.48778 0.71176 0.0
H462 H 0.11603 0.4669 0.72311 0.0
H463 H 0.11508 0.46854 0.69727 0.0
C464 C 0.15738 0.42947 0.74071 0.0
C465 C 0.14923 0.41591 0.72804 0.0
C466 C 0.15948 0.44864 0.73507 0.0
C467 C 0.15343 0.45462 0.7167 0.0
C468 C 0.14588 0.44102 0.70372 0.0
H469 H 0.13797 0.57907 0.69853 0.0
H470 H 0.14157 0.54512 0.68915 0.0
C471 C 0.14377 0.42176 0.70937 0.0
C472 C 0.15404 0.47536 0.71194 0.0
H473 H 0.12505 0.51508 0.70979 0.0
C474 C 0.17204 0.48468 0.71177 0.0
C475 C 0.1369 0.48635 0.71036 0.0
C476 C 0.11719 0.477 0.71071 0.0
C477 C 0.1733 0.50485 0.71125 0.0
C478 C 0.15612 0.51587 0.71122 0.0
C479 C 0.13819 0.50653 0.70988 0.0
C480 C 0.1562 0.53675 0.71546 0.0
C481 C 0.19298 0.51421 0.71148 0.0
C482 C 0.16324 0.54319 0.73333 0.0
C483 C 0.1611 0.56243 0.73876 0.0
C484 C 0.15179 0.57556 0.72644 0.0
C485 C 0.14522 0.56924 0.7083 0.0
C486 C 0.14729 0.54991 0.7029 0.0
H487 H 0.20402 0.50467 0.7048 0.0
H488 H 0.19286 0.52824 0.70372 0.0
H489 H 0.19737 0.51686 0.72667 0.0
H490 H 0.16972 0.53316 0.74344 0.0
H491 H 0.16629 0.56691 0.75283 0.0
H492 H 0.92385 0.61245 0.2608 0.0
H493 H 0.95778 0.61315 0.25112 0.0
H494 H 0.94268 0.64489 0.1997 0.0
H495 H 0.90855 0.64433 0.20935 0.0
H496 H 0.97632 0.60034 0.21542 0.0
H497 H 0.98257 0.67934 0.22949 0.0
H498 H 0.96275 0.66517 0.23878 0.0
H499 H 0.9636 0.6713 0.21363 0.0
C500 C 0.92771 0.61946 0.24736 0.0
C501 C 0.9136 0.62847 0.2359 0.0
C502 C 0.94707 0.61978 0.24182 0.0
C503 C 0.95267 0.6292 0.2248 0.0
C504 C 0.93859 0.6377 0.21298 0.0
H505 H 0.07693 0.62604 0.1947 0.0
H506 H 0.04172 0.62589 0.19003 0.0
C507 C 0.91915 0.63733 0.21848 0.0
C508 C 0.97344 0.63088 0.22025 0.0
H509 H 0.01112 0.66256 0.2224 0.0
C510 C 0.98395 0.61397 0.21654 0.0
C511 C 0.98323 0.64871 0.22188 0.0
C512 C 0.97258 0.66721 0.22626 0.0
C513 C 0.00418 0.6143 0.21525 0.0
C514 C 0.014 0.63201 0.21764 0.0
C515 C 0.00344 0.64905 0.22048 0.0
C516 C 0.0352 0.63279 0.2198 0.0
C517 C 0.015 0.59559 0.21248 0.0
C518 C 0.04305 0.637 0.23797 0.0
C519 C 0.06299 0.63707 0.24068 0.0
C520 C 0.07547 0.63303 0.22521 0.0
C521 C 0.06762 0.62915 0.20688 0.0
C522 C 0.04757 0.62901 0.2042 0.0
H523 H 0.00527 0.58284 0.2129 0.0
H524 H 0.02245 0.5958 0.19829 0.0
H525 H 0.0262 0.59392 0.22384 0.0
H526 H 0.03368 0.63994 0.25017 0.0
H527 H 0.06862 0.64017 0.25494 0.0
H528 H 0.85802 0.56853 0.76806 0.0
H529 H 0.8571 0.53386 0.76199 0.0
H530 H 0.86211 0.54416 0.70076 0.0
H531 H 0.86316 0.57911 0.70674 0.0
H532 H 0.82993 0.51318 0.7377 0.0
H533 H 0.90665 0.50549 0.7142 0.0
H534 H 0.89831 0.52634 0.72745 0.0
H535 H 0.89195 0.52348 0.70251 0.0
C536 C 0.85892 0.56346 0.75328 0.0
C537 C 0.86072 0.57651 0.73786 0.0
C538 C 0.85836 0.54366 0.74985 0.0
C539 C 0.85968 0.53652 0.73096 0.0
C540 C 0.86129 0.54945 0.71546 0.0
H541 H 0.86806 0.41123 0.70912 0.0
H542 H 0.86525 0.44597 0.70248 0.0
C543 C 0.86181 0.56936 0.71889 0.0
C544 C 0.85937 0.51543 0.72788 0.0
H545 H 0.88878 0.477 0.71855 0.0
C546 C 0.84268 0.50526 0.7332 0.0
C547 C 0.87601 0.50522 0.72189 0.0
C548 C 0.89434 0.51558 0.71625 0.0
C549 C 0.84247 0.48505 0.73355 0.0
C550 C 0.85948 0.47484 0.72875 0.0
C551 C 0.87581 0.48495 0.72229 0.0
C552 C 0.8612 0.45392 0.73241 0.0
C553 C 0.82423 0.47478 0.73962 0.0
C554 C 0.86022 0.44707 0.75144 0.0
C555 C 0.8619 0.42741 0.75527 0.0
C556 C 0.86464 0.41421 0.74012 0.0
C557 C 0.86589 0.4211 0.72106 0.0
C558 C 0.86429 0.44087 0.71724 0.0
H559 H 0.81126 0.48394 0.73729 0.0
H560 H 0.82238 0.46105 0.73155 0.0
H561 H 0.82509 0.47133 0.75525 0.0
H562 H 0.8582 0.457 0.76336 0.0
H563 H 0.86095 0.42255 0.77011 0.0
H564 H 0.91181 0.32827 0.21539 0.0
H565 H 0.947 0.32651 0.21185 0.0
H566 H 0.95111 0.38792 0.22124 0.0
H567 H 0.91606 0.3897 0.22536 0.0
H568 H 0.97507 0.34423 0.18869 0.0
H569 H 0.98233 0.36519 0.26573 0.0
H570 H 0.95945 0.3587 0.2551 0.0
H571 H 0.96931 0.38245 0.25144 0.0
C572 C 0.92021 0.34143 0.2164 0.0
C573 C 0.9113 0.35908 0.22096 0.0
C574 C 0.94028 0.3404 0.21434 0.0
C575 C 0.95163 0.35701 0.21672 0.0
C576 C 0.9426 0.37487 0.21981 0.0
H577 H 0.0756 0.36992 0.20071 0.0
H578 H 0.04058 0.36918 0.19572 0.0
C579 C 0.9226 0.37588 0.22208 0.0
C580 C 0.97292 0.35543 0.21762 0.0
H581 H 0.01121 0.36301 0.24765 0.0
C582 C 0.98303 0.34828 0.20156 0.0
C583 C 0.98316 0.36038 0.23459 0.0
C584 C 0.97302 0.36692 0.25277 0.0
C585 C 0.00323 0.34625 0.20194 0.0
C586 C 0.0135 0.35185 0.2187 0.0
C587 C 0.00332 0.35881 0.23478 0.0
C588 C 0.0348 0.35059 0.22019 0.0
C589 C 0.01331 0.33778 0.18458 0.0
C590 C 0.04317 0.34049 0.23565 0.0
C591 C 0.06307 0.34121 0.23874 0.0
C592 C 0.07498 0.35194 0.22633 0.0
C593 C 0.06673 0.36144 0.21042 0.0
C594 C 0.04675 0.36091 0.20747 0.0
H595 H 0.00322 0.32919 0.17553 0.0
H596 H 0.0191 0.34967 0.17554 0.0
H597 H 0.02555 0.32841 0.18899 0.0
H598 H 0.03421 0.33246 0.24567 0.0
H599 H 0.06907 0.33368 0.25108 0.0
H600 H 0.28513 0.14461 0.58063 0.0
H601 H 0.29259 0.14756 0.54606 0.0
H602 H 0.23195 0.14256 0.53258 0.0
H603 H 0.22439 0.13958 0.56688 0.0
H604 H 0.28215 0.11973 0.51597 0.0
H605 H 0.2504 0.19216 0.50386 0.0
H606 H 0.25724 0.18352 0.52752 0.0
H607 H 0.23477 0.17603 0.51685 0.0
C608 C 0.27341 0.14424 0.57027 0.0
C609 C 0.25418 0.14192 0.5764 0.0
C610 C 0.27769 0.14592 0.55059 0.0
C611 C 0.26277 0.14556 0.5369 0.0
C612 C 0.24361 0.1432 0.54301 0.0
H613 H 0.23202 0.13749 0.42093 0.0
H614 H 0.23625 0.14086 0.45575 0.0
C615 C 0.23933 0.1414 0.56258 0.0
C616 C 0.26698 0.14684 0.51606 0.0
H617 H 0.25462 0.17226 0.47577 0.0
C618 C 0.27656 0.13139 0.50714 0.0
C619 C 0.2597 0.16215 0.50472 0.0
C620 C 0.25011 0.17951 0.51372 0.0
C621 C 0.27779 0.13017 0.48694 0.0
C622 C 0.26944 0.14493 0.47558 0.0
C623 C 0.26091 0.16094 0.48458 0.0
C624 C 0.26742 0.14303 0.45445 0.0
C625 C 0.2869 0.11258 0.47788 0.0
C626 C 0.28359 0.14323 0.44223 0.0
C627 C 0.28121 0.14127 0.42226 0.0
C628 C 0.26263 0.13914 0.41432 0.0
C629 C 0.24651 0.13908 0.42663 0.0
C630 C 0.24889 0.14104 0.44651 0.0
H631 H 0.29035 0.10127 0.48873 0.0
H632 H 0.27712 0.10631 0.46683 0.0
H633 H 0.30051 0.11681 0.47055 0.0
H634 H 0.29798 0.14499 0.44813 0.0
H635 H 0.29387 0.14144 0.41307 0.0
H636 H 0.35056 0.74054 0.93546 0.0
H637 H 0.34829 0.74976 0.96933 0.0
H638 H 0.35372 0.80978 0.95368 0.0
H639 H 0.35607 0.80061 0.91946 0.0
H640 H 0.3788 0.79777 0.98366 0.0
H641 H 0.3036 0.77565 -0.00141 0.0
H642 H 0.31666 0.75704 0.98617 0.0
H643 H 0.31247 0.77985 0.9744 0.0
C644 C 0.35111 0.75572 0.93916 0.0
C645 C 0.35347 0.76986 0.92484 0.0
C646 C 0.34966 0.76098 0.95851 0.0
C647 C 0.35047 0.78046 0.96393 0.0
C648 C 0.35284 0.79469 0.9497 0.0
H649 H 0.33601 0.78467 0.08937 0.0
H650 H 0.33334 0.79737 0.05642 0.0
C651 C 0.35419 0.78942 0.93023 0.0
C652 C 0.35021 0.78545 0.98466 0.0
H653 H 0.32566 0.77481 0.02592 0.0
C654 C 0.36699 0.79326 0.99293 0.0
C655 C 0.33463 0.78002 0.99666 0.0
C656 C 0.31574 0.77287 0.98847 0.0
C657 C 0.36931 0.79395 0.01304 0.0
C658 C 0.3546 0.78633 0.02501 0.0
C659 C 0.33707 0.78039 0.01674 0.0
C660 C 0.35807 0.78162 0.04556 0.0
C661 C 0.3878 0.80203 0.02123 0.0
C662 C 0.37296 0.76874 0.05039 0.0
C663 C 0.37447 0.76145 0.0691 0.0
C664 C 0.36102 0.76679 0.08329 0.0
C665 C 0.34658 0.78031 0.07869 0.0
C666 C 0.34506 0.7876 0.05992 0.0
H667 H 0.39371 0.81354 0.01174 0.0
H668 H 0.38559 0.80804 0.03593 0.0
H669 H 0.39876 0.79037 0.02207 0.0
H670 H 0.38284 0.7635 0.03945 0.0
H671 H 0.38573 0.75104 0.07222 0.0
H672 H 0.76842 0.8716 0.42265 0.0
H673 H 0.75943 0.86974 0.45667 0.0
H674 H 0.70073 0.85617 0.44075 0.0
H675 H 0.70964 0.85798 0.40643 0.0
H676 H 0.72832 0.89159 0.47641 0.0
H677 H 0.71976 0.81152 0.47805 0.0
H678 H 0.73339 0.82345 0.45928 0.0
H679 H 0.70755 0.8251 0.45952 0.0
C680 C 0.75358 0.86826 0.42634 0.0
C681 C 0.73974 0.86486 0.41191 0.0
C682 C 0.74847 0.86726 0.44577 0.0
C683 C 0.72948 0.86272 0.45113 0.0
C684 C 0.7155 0.85954 0.43681 0.0
H685 H 0.70274 0.86169 0.57612 0.0
H686 H 0.69657 0.86307 0.54117 0.0
C687 C 0.7206 0.86063 0.41728 0.0
C688 C 0.72475 0.86107 0.47184 0.0
H689 H 0.71947 0.82781 0.50782 0.0
C690 C 0.7259 0.87773 0.48328 0.0
C691 C 0.72172 0.84291 0.48064 0.0
C692 C 0.72058 0.82463 0.46886 0.0
C693 C 0.72502 0.87657 0.50347 0.0
C694 C 0.72303 0.85832 0.51229 0.0
C695 C 0.7209 0.84176 0.50086 0.0
C696 C 0.72593 0.85599 0.53322 0.0
C697 C 0.72742 0.89466 0.51536 0.0
C698 C 0.74439 0.85134 0.54007 0.0
C699 C 0.74799 0.85065 0.55986 0.0
C700 C 0.73312 0.85453 0.57311 0.0
C701 C 0.71445 0.85862 0.5662 0.0
C702 C 0.71089 0.85941 0.54632 0.0
H703 H 0.72811 0.90786 0.50627 0.0
H704 H 0.71519 0.89608 0.52563 0.0
H705 H 0.74091 0.89365 0.524 0.0
H706 H 0.75615 0.84872 0.53007 0.0
H707 H 0.7625 0.84743 0.56476 0.0
H708 H 0.59763 0.22141 0.08349 0.0
H709 H 0.59716 0.2155 0.04868 0.0
H710 H 0.65951 0.21675 0.04764 0.0
H711 H 0.66006 0.22191 0.0825 0.0
H712 H 0.60941 0.24082 0.02377 0.0
H713 H 0.64976 0.17329 0.01095 0.0
H714 H 0.64108 0.18004 0.0346 0.0
H715 H 0.66357 0.18957 0.02557 0.0
C716 C 0.61123 0.21991 0.07589 0.0
C717 C 0.62888 0.2222 0.08563 0.0
C718 C 0.61095 0.21651 0.05602 0.0
C719 C 0.6283 0.2155 0.04555 0.0
C720 C 0.64595 0.21695 0.05544 0.0
H721 H 0.64849 0.26 0.9329 0.0
H722 H 0.646 0.2526 0.96729 0.0
C723 C 0.64625 0.22008 0.07536 0.0
C724 C 0.62792 0.21577 0.02416 0.0
H725 H 0.64827 0.19566 0.98399 0.0
C726 C 0.61764 0.2307 0.01509 0.0
C727 C 0.63847 0.20249 0.01276 0.0
C728 C 0.64866 0.18533 0.02149 0.0
C729 C 0.61833 0.23326 0.99506 0.0
C730 C 0.63008 0.22089 0.98385 0.0
C731 C 0.63958 0.20535 0.99271 0.0
C732 C 0.63313 0.22444 0.96303 0.0
C733 C 0.60659 0.24932 0.98613 0.0
C734 C 0.62756 0.21066 0.94927 0.0
C735 C 0.62918 0.21476 0.92957 0.0
C736 C 0.63639 0.23271 0.92342 0.0
C737 C 0.64268 0.24614 0.93724 0.0
C738 C 0.64119 0.24197 0.95687 0.0
H739 H 0.59417 0.25341 0.99545 0.0
H740 H 0.61587 0.26227 0.98439 0.0
H741 H 0.601 0.24513 0.9717 0.0
H742 H 0.62144 0.19699 0.95378 0.0
H743 H 0.62428 0.20414 0.91919 0.0
H744 H 0.23105 0.84652 0.42758 0.0
H745 H 0.23739 0.84297 0.46206 0.0
H746 H 0.29871 0.84165 0.45094 0.0
H747 H 0.29248 0.84542 0.41624 0.0
H748 H 0.25816 0.81283 0.48149 0.0
H749 H 0.29158 0.88545 0.49125 0.0
H750 H 0.27753 0.87944 0.47012 0.0
H751 H 0.30148 0.86994 0.47291 0.0
C752 C 0.24589 0.84546 0.43244 0.0
C753 C 0.26128 0.84635 0.41926 0.0
C754 C 0.24948 0.84338 0.45212 0.0
C755 C 0.2685 0.84221 0.459 0.0
C756 C 0.28394 0.84278 0.44589 0.0
H757 H 0.29044 0.84587 0.58463 0.0
H758 H 0.29741 0.84123 0.55012 0.0
C759 C 0.28035 0.84487 0.42612 0.0
C760 C 0.27182 0.84073 0.48 0.0
H761 H 0.28528 0.86738 0.51919 0.0
C762 C 0.26441 0.82459 0.48974 0.0
C763 C 0.28012 0.85605 0.49065 0.0
C764 C 0.28807 0.87379 0.48081 0.0
C765 C 0.26412 0.82384 0.50995 0.0
C766 C 0.27121 0.83972 0.52059 0.0
C767 C 0.27983 0.85527 0.5109 0.0
C768 C 0.26738 0.84164 0.54145 0.0
C769 C 0.25558 0.80638 0.51978 0.0
C770 C 0.24825 0.84364 0.5478 0.0
C771 C 0.24427 0.84644 0.56731 0.0
C772 C 0.25936 0.84728 0.58083 0.0
C773 C 0.27855 0.84521 0.57449 0.0
C774 C 0.28255 0.84256 0.55485 0.0
H775 H 0.25617 0.79345 0.51031 0.0
H776 H 0.26325 0.80315 0.53349 0.0
H777 H 0.24018 0.80928 0.52321 0.0
H778 H 0.23639 0.84333 0.53758 0.0
H779 H 0.22935 0.848 0.57177 0.0
H780 H 0.63671 0.79108 0.08121 0.0
H781 H 0.63482 0.79825 0.04648 0.0
H782 H 0.62173 0.73851 0.03489 0.0
H783 H 0.62363 0.73124 0.06931 0.0
H784 H 0.65749 0.77946 0.01604 0.0
H785 H 0.57857 0.7698 0.00673 0.0
H786 H 0.58959 0.77454 0.02993 0.0
H787 H 0.58982 0.75055 0.01999 0.0
C788 C 0.63335 0.77953 0.07122 0.0
C789 C 0.63028 0.76061 0.07792 0.0
C790 C 0.63228 0.78365 0.05146 0.0
C791 C 0.62784 0.76895 0.03826 0.0
C792 C 0.62483 0.75009 0.04494 0.0
H793 H 0.62516 0.73124 0.92491 0.0
H794 H 0.62353 0.73859 0.95933 0.0
C795 C 0.62604 0.74595 0.06458 0.0
C796 C 0.62714 0.77281 0.01732 0.0
H797 H 0.59803 0.76665 0.97809 0.0
C798 C 0.64443 0.77716 0.00769 0.0
C799 C 0.61002 0.76988 0.0066 0.0
C800 C 0.59089 0.76611 0.01634 0.0
C801 C 0.64535 0.77716 0.98744 0.0
C802 C 0.62848 0.7729 0.97674 0.0
C803 C 0.61094 0.76982 0.9864 0.0
C804 C 0.62922 0.76909 0.95579 0.0
C805 C 0.66455 0.78038 0.97763 0.0
C806 C 0.63285 0.78389 0.94246 0.0
C807 C 0.63379 0.77973 0.9227 0.0
C808 C 0.63112 0.76071 0.91612 0.0
C809 C 0.62734 0.74601 0.92956 0.0
C810 C 0.62635 0.75018 0.9492 0.0
H811 H 0.67663 0.78158 0.98813 0.0
H812 H 0.66768 0.76835 0.96751 0.0
H813 H 0.66394 0.7939 0.96906 0.0
H814 H 0.63492 0.7986 0.94733 0.0
H815 H 0.63667 0.79133 0.91263 0.0
H816 H 0.75619 0.13254 0.56818 0.0
H817 H 0.74722 0.13357 0.53413 0.0
H818 H 0.68764 0.14299 0.54975 0.0
H819 H 0.69653 0.142 0.58413 0.0
H820 H 0.71782 0.10911 0.51489 0.0
H821 H 0.70352 0.18828 0.51157 0.0
H822 H 0.71801 0.17779 0.53055 0.0
H823 H 0.69237 0.17416 0.53038 0.0
C824 C 0.74116 0.13482 0.56442 0.0
C825 C 0.72705 0.13725 0.57878 0.0
C826 C 0.73607 0.13536 0.54498 0.0
C827 C 0.71682 0.13844 0.53952 0.0
C828 C 0.7026 0.14073 0.55376 0.0
H829 H 0.69761 0.12666 0.41409 0.0
H830 H 0.68926 0.12635 0.44854 0.0
C831 C 0.70769 0.14012 0.57332 0.0
C832 C 0.71206 0.13936 0.51878 0.0
H833 H 0.70489 0.17149 0.48214 0.0
C834 C 0.71453 0.12262 0.50769 0.0
C835 C 0.70788 0.15708 0.5096 0.0
C836 C 0.70532 0.17545 0.52102 0.0
C837 C 0.71404 0.12333 0.48747 0.0
C838 C 0.71079 0.14124 0.47822 0.0
C839 C 0.70726 0.15779 0.48935 0.0
C840 C 0.71388 0.1435 0.45725 0.0
C841 C 0.71832 0.1052 0.47615 0.0
C842 C 0.73007 0.15382 0.45079 0.0
C843 C 0.73485 0.15403 0.43125 0.0
C844 C 0.72347 0.14397 0.41782 0.0
C845 C 0.70668 0.13445 0.42417 0.0
C846 C 0.70192 0.13423 0.44379 0.0
H847 H 0.72297 0.0931 0.4856 0.0
H848 H 0.70514 0.10063 0.46825 0.0
H849 H 0.72984 0.10795 0.46533 0.0
H850 H 0.73947 0.16106 0.461 0.0
H851 H 0.74781 0.16158 0.42675 0.0
H852 H 0.36218 0.20358 0.07989 0.0
H853 H 0.36399 0.19453 0.04566 0.0
H854 H 0.35159 0.25333 0.02943 0.0
H855 H 0.34987 0.26251 0.06344 0.0
H856 H 0.336 0.1992 0.01466 0.0
H857 H 0.40371 0.24019 0.00257 0.0
H858 H 0.39517 0.23381 0.02638 0.0
H859 H 0.38506 0.25422 0.0139 0.0
C860 C 0.35972 0.21453 0.069 0.0
C861 C 0.35604 0.23378 0.07429 0.0
C862 C 0.36075 0.20933 0.04951 0.0
C863 C 0.35823 0.22334 0.03512 0.0
C864 C 0.35389 0.2424 0.04038 0.0
H865 H 0.33053 0.2307 0.91776 0.0
H866 H 0.33061 0.22414 0.95233 0.0
C867 C 0.35285 0.2476 0.0598 0.0
C868 C 0.3605 0.21837 0.01451 0.0
H869 H 0.38581 0.23134 0.97437 0.0
C870 C 0.34705 0.20595 0.00584 0.0
C871 C 0.37522 0.22684 0.00319 0.0
C872 C 0.39074 0.23936 0.012 0.0
C873 C 0.3472 0.20279 0.9858 0.0
C874 C 0.36097 0.21255 0.97427 0.0
C875 C 0.37516 0.22395 0.98318 0.0
C876 C 0.35983 0.21295 0.95292 0.0
C877 C 0.33241 0.18933 0.97717 0.0
C878 C 0.3762 0.20875 0.94169 0.0
C879 C 0.37627 0.21275 0.92191 0.0
C880 C 0.35999 0.22108 0.91309 0.0
C881 C 0.34327 0.22425 0.92415 0.0
C882 C 0.34324 0.22033 0.94391 0.0
H883 H 0.32801 0.17807 0.98771 0.0
H884 H 0.31931 0.1977 0.97326 0.0
H885 H 0.33801 0.18217 0.96396 0.0
H886 H 0.3892 0.20318 0.9484 0.0
H887 H 0.38935 0.21014 0.91372 0.0
H888 H 0.58109 0.29453 0.13615 0.0
H889 H 0.54733 0.30515 0.13684 0.0
H890 H 0.53153 0.25279 0.16669 0.0
H891 H 0.56515 0.24241 0.16652 0.0
H892 H 0.51908 0.28739 0.11876 0.0
H893 H 0.49948 0.29106 0.19574 0.0
H894 H 0.52433 0.29029 0.18778 0.0
H895 H 0.51069 0.2683 0.19072 0.0
C896 C 0.57045 0.28552 0.14325 0.0
C897 C 0.5757 0.26762 0.15123 0.0
C898 C 0.5512 0.29161 0.14366 0.0
C899 C 0.53693 0.27992 0.15207 0.0
C900 C 0.54232 0.26235 0.16063 0.0
H901 H 0.4276 0.2462 0.11825 0.0
H902 H 0.46141 0.25513 0.12229 0.0
C903 C 0.56155 0.25632 0.16035 0.0
C904 C 0.51618 0.28455 0.14965 0.0
H905 H 0.47309 0.28296 0.17352 0.0
C906 C 0.50907 0.28693 0.1308 0.0
C907 C 0.50308 0.28439 0.16534 0.0
C908 C 0.50986 0.28359 0.18603 0.0
C909 C 0.48918 0.28741 0.12711 0.0
C910 C 0.47611 0.28502 0.1426 0.0
C911 C 0.48316 0.28441 0.1616 0.0
C912 C 0.45546 0.28072 0.13923 0.0
C913 C 0.48236 0.28975 0.10654 0.0
C914 C 0.44089 0.29195 0.14774 0.0
C915 C 0.42146 0.28678 0.14555 0.0
C916 C 0.41641 0.27019 0.13499 0.0
C917 C 0.43104 0.2591 0.12639 0.0
C918 C 0.45037 0.26428 0.12856 0.0
H919 H 0.49295 0.29813 0.09787 0.0
H920 H 0.48092 0.2753 0.09979 0.0
H921 H 0.46812 0.29712 0.10588 0.0
H922 H 0.44456 0.30458 0.15621 0.0
H923 H 0.41046 0.29554 0.1524 0.0
H924 H 0.56693 0.75884 0.84411 0.0
H925 H 0.53264 0.7507 0.84485 0.0
H926 H 0.54665 0.69193 0.85988 0.0
H927 H 0.58122 0.69999 0.85919 0.0
H928 H 0.51088 0.72042 0.82449 0.0
H929 H 0.51159 0.71329 0.90475 0.0
H930 H 0.53082 0.72531 0.89189 0.0
H931 H 0.52875 0.69954 0.89088 0.0
C932 C 0.56276 0.74412 0.84738 0.0
C933 C 0.57671 0.73008 0.85175 0.0
C934 C 0.54318 0.73949 0.84773 0.0
C935 C 0.53719 0.72078 0.85256 0.0
C936 C 0.55106 0.70649 0.85625 0.0
H937 H 0.41013 0.70556 0.85318 0.0
H938 H 0.4442 0.69616 0.84971 0.0
C939 C 0.57074 0.7111 0.85581 0.0
C940 C 0.51634 0.71696 0.85488 0.0
H941 H 0.48137 0.71432 0.88951 0.0
C942 C 0.50437 0.71858 0.83862 0.0
C943 C 0.50803 0.71469 0.87339 0.0
C944 C 0.52035 0.71317 0.89131 0.0
C945 C 0.48419 0.71909 0.84051 0.0
C946 C 0.47593 0.71789 0.85914 0.0
C947 C 0.48786 0.71514 0.87527 0.0
C948 C 0.45536 0.72242 0.8624 0.0
C949 C 0.4719 0.72227 0.8228 0.0
C950 C 0.45051 0.74007 0.87101 0.0
C951 C 0.43122 0.74548 0.87294 0.0
C952 C 0.41643 0.73325 0.8664 0.0
C953 C 0.42127 0.71527 0.85832 0.0
C954 C 0.44066 0.7099 0.85629 0.0
H955 H 0.48073 0.72445 0.80958 0.0
H956 H 0.4624 0.70957 0.82053 0.0
H957 H 0.46246 0.73508 0.82486 0.0
H958 H 0.46171 0.74991 0.87579 0.0
H959 H 0.42792 0.75938 0.87929 0.0
H960 H 0.7426 0.93405 0.34641 0.0
H961 H 0.75099 0.96823 0.34559 0.0
H962 H 0.81123 0.95395 0.35283 0.0
H963 H 0.8029 0.91951 0.35377 0.0
H964 H 0.79782 0.98249 0.3783 0.0
H965 H 0.77761 -0.00029 0.30303 0.0
H966 H 0.75878 0.98677 0.31528 0.0
H967 H 0.78177 0.97529 0.31122 0.0
C968 C 0.75765 0.93815 0.34765 0.0
C969 C 0.7721 0.92415 0.35013 0.0
C970 C 0.76244 0.95767 0.34703 0.0
C971 C 0.78176 0.96355 0.34879 0.0
C972 C 0.79627 0.94963 0.35124 0.0
H973 H 0.78934 0.08934 0.33806 0.0
H974 H 0.80067 0.05594 0.33495 0.0
C975 C 0.79149 0.93002 0.35178 0.0
C976 C 0.78631 0.98435 0.34943 0.0
H977 H 0.77672 0.02635 0.32573 0.0
C978 C 0.79367 0.9921 0.36664 0.0
C979 C 0.78131 0.99681 0.33407 0.0
C980 C 0.77463 0.98919 0.31478 0.0
C981 C 0.79449 0.01212 0.36951 0.0
C982 C 0.78751 0.02454 0.35489 0.0
C983 C 0.78184 0.0168 0.33704 0.0
C984 C 0.78336 0.04514 0.35862 0.0
C985 C 0.80213 0.01975 0.38842 0.0
C986 C 0.77004 0.0501 0.37306 0.0
C987 C 0.76351 0.06905 0.37482 0.0
C988 C 0.77011 0.08336 0.36207 0.0
C989 C 0.78404 0.07857 0.34809 0.0
C990 C 0.79054 0.05955 0.34631 0.0
H991 H 0.81307 0.00979 0.39466 0.0
H992 H 0.80874 0.03425 0.38666 0.0
H993 H 0.79005 0.02088 0.3989 0.0
H994 H 0.76393 0.03913 0.38239 0.0
H995 H 0.75276 0.07232 0.38571 0.0
H996 H 0.41305 0.29331 0.87779 0.0
H997 H 0.44661 0.3048 0.87937 0.0
H998 H 0.46391 0.25941 0.84038 0.0
H999 H 0.43069 0.248 0.83868 0.0
H1000 H 0.477 0.2829 0.893 0.0
H1001 H 0.4923 0.30592 0.81831 0.0
H1002 H 0.46797 0.30341 0.82748 0.0
H1003 H 0.4809 0.28268 0.81855 0.0
C1004 C 0.424 0.28602 0.86933 0.0
C1005 C 0.41932 0.26973 0.85816 0.0
C1006 C 0.4431 0.29262 0.87021 0.0
C1007 C 0.45765 0.28318 0.8597 0.0
C1008 C 0.45284 0.26723 0.84819 0.0
H1009 H 0.5659 0.24083 0.87503 0.0
H1010 H 0.53244 0.25175 0.87563 0.0
C1011 C 0.43386 0.26059 0.8474 0.0
C1012 C 0.47824 0.28818 0.86234 0.0
H1013 H 0.51987 0.29317 0.83649 0.0
C1014 C 0.48635 0.28575 0.88075 0.0
C1015 C 0.4904 0.29226 0.84645 0.0
C1016 C 0.48239 0.29643 0.82663 0.0
C1017 C 0.50643 0.28526 0.88328 0.0
C1018 C 0.51857 0.28702 0.86696 0.0
C1019 C 0.5105 0.2915 0.84893 0.0
C1020 C 0.53909 0.28125 0.86773 0.0
C1021 C 0.51448 0.28178 0.90322 0.0
C1022 C 0.55387 0.29416 0.86271 0.0
C1023 C 0.57311 0.28792 0.86234 0.0
C1024 C 0.5777 0.26862 0.86667 0.0
C1025 C 0.56282 0.25578 0.87164 0.0
C1026 C 0.54371 0.26204 0.87216 0.0
H1027 H 0.50446 0.28718 0.91453 0.0
H1028 H 0.51636 0.26603 0.90547 0.0
H1029 H 0.52875 0.28888 0.90506 0.0
H1030 H 0.55051 0.30898 0.85902 0.0
H1031 H 0.58433 0.29809 0.85841 0.0
H1032 H 0.26791 0.92106 0.36379 0.0
H1033 H 0.26202 0.95567 0.36096 0.0
H1034 H 0.20086 0.94515 0.35537 0.0
H1035 H 0.20662 0.91025 0.35821 0.0
H1036 H 0.24092 0.97312 0.32701 0.0
H1037 H 0.20844 0.98809 0.39923 0.0
H1038 H 0.22399 0.9675 0.39532 0.0
H1039 H 0.20009 0.96769 0.38537 0.0
C1040 C 0.25317 0.92607 0.36211 0.0
C1041 C 0.23771 0.91297 0.36119 0.0
C1042 C 0.24985 0.94583 0.36047 0.0
C1043 C 0.23103 0.95286 0.35801 0.0
C1044 C 0.21547 0.93992 0.35741 0.0
H1045 H 0.2098 0.07838 0.3527 0.0
H1046 H 0.20293 0.04358 0.35193 0.0
C1047 C 0.21879 0.92005 0.359 0.0
C1048 C 0.22814 0.97377 0.35535 0.0
H1049 H 0.21609 0.01483 0.37972 0.0
C1050 C 0.23518 0.98225 0.33838 0.0
C1051 C 0.22047 0.98551 0.37016 0.0
C1052 C 0.21282 0.97688 0.38863 0.0
C1053 C 0.23566 0.00234 0.3362 0.0
C1054 C 0.22923 0.01414 0.35154 0.0
C1055 C 0.22106 0.00566 0.36804 0.0
C1056 C 0.23301 0.03511 0.35163 0.0
C1057 C 0.2436 0.01078 0.31775 0.0
C1058 C 0.25216 0.0417 0.35197 0.0
C1059 C 0.25611 0.06141 0.3525 0.0
C1060 C 0.24096 0.07489 0.35272 0.0
C1061 C 0.22175 0.06828 0.35245 0.0
C1062 C 0.2178 0.04847 0.35202 0.0
H1063 H 0.24241 0.00041 0.30556 0.0
H1064 H 0.23591 0.0243 0.31381 0.0
H1065 H 0.25912 0.01423 0.31979 0.0
H1066 H 0.26408 0.03156 0.35202 0.0
H1067 H 0.27105 0.06607 0.35278 0.0
H1068 H 0.58254 0.69827 0.14599 0.0
H1069 H 0.54868 0.68763 0.14647 0.0
H1070 H 0.53007 0.74634 0.13741 0.0
H1071 H 0.56366 0.75707 0.13692 0.0
H1072 H 0.51732 0.70137 0.17143 0.0
H1073 H 0.50379 0.71419 0.09362 0.0
H1074 H 0.52782 0.71168 0.10354 0.0
H1075 H 0.51515 0.73426 0.10549 0.0
C1076 C 0.5712 0.70889 0.14414 0.0
C1077 C 0.5757 0.72849 0.14133 0.0
C1078 C 0.55193 0.70278 0.14441 0.0
C1079 C 0.53699 0.71618 0.14167 0.0
C1080 C 0.54146 0.73576 0.13923 0.0
H1081 H 0.42229 0.73635 0.16741 0.0
H1082 H 0.45666 0.72878 0.16819 0.0
C1083 C 0.56064 0.74188 0.13905 0.0
C1084 C 0.51658 0.71004 0.14156 0.0
H1085 H 0.47583 0.71306 0.11416 0.0
C1086 C 0.50825 0.70351 0.15883 0.0
C1087 C 0.50493 0.71244 0.12499 0.0
C1088 C 0.5134 0.71834 0.10579 0.0
C1089 C 0.48821 0.70081 0.16033 0.0
C1090 C 0.47635 0.70501 0.14424 0.0
C1091 C 0.48491 0.71001 0.12656 0.0
C1092 C 0.45513 0.70688 0.14593 0.0
C1093 C 0.47988 0.69409 0.1793 0.0
C1094 C 0.44281 0.69708 0.13314 0.0
C1095 C 0.42311 0.70152 0.13256 0.0
C1096 C 0.41553 0.71598 0.14461 0.0
C1097 C 0.42774 0.72514 0.15796 0.0
C1098 C 0.44737 0.72068 0.15856 0.0
H1099 H 0.49041 0.68502 0.18733 0.0
H1100 H 0.47653 0.70685 0.1884 0.0
H1101 H 0.46637 0.68571 0.17714 0.0
H1102 H 0.44858 0.68652 0.12314 0.0
H1103 H 0.41401 0.69424 0.12211 0.0
H1104 H 0.78942 0.9129 0.64521 0.0
H1105 H 0.7966 0.94762 0.64696 0.0
H1106 H 0.7417 0.96029 0.62037 0.0
H1107 H 0.7344 0.92586 0.61861 0.0
H1108 H 0.77679 0.98104 0.60524 0.0
H1109 H 0.76541 0.98483 0.68493 0.0
H1110 H 0.78109 0.96646 0.67523 0.0
H1111 H 0.75562 0.96534 0.67065 0.0
C1112 C 0.77897 0.92312 0.63963 0.0
C1113 C 0.76131 0.91673 0.63187 0.0
C1114 C 0.78308 0.94288 0.64067 0.0
C1115 C 0.76962 0.9564 0.63386 0.0
C1116 C 0.75225 0.95001 0.62567 0.0
H1117 H 0.72988 0.06873 0.64517 0.0
H1118 H 0.73784 0.03439 0.64498 0.0
C1119 C 0.74808 0.93036 0.62474 0.0
C1120 C 0.77295 0.97733 0.63585 0.0
H1121 H 0.76839 0.01416 0.66822 0.0
C1122 C 0.77543 0.98833 0.61903 0.0
C1123 C 0.77101 0.98665 0.65389 0.0
C1124 C 0.76807 0.97533 0.67228 0.0
C1125 C 0.7751 0.00856 0.61968 0.0
C1126 C 0.77222 0.01787 0.63761 0.0
C1127 C 0.77068 0.00687 0.65454 0.0
C1128 C 0.76815 0.03874 0.63867 0.0
C1129 C 0.7766 0.01986 0.60111 0.0
C1130 C 0.78266 0.05247 0.63539 0.0
C1131 C 0.77816 0.07216 0.63553 0.0
C1132 C 0.75907 0.07828 0.63888 0.0
C1133 C 0.74469 0.06444 0.64248 0.0
C1134 C 0.74922 0.04485 0.64244 0.0
H1135 H 0.77729 0.01034 0.58822 0.0
H1136 H 0.76398 0.02966 0.5996 0.0
H1137 H 0.78981 0.02894 0.60144 0.0
H1138 H 0.79738 0.04795 0.63255 0.0
H1139 H 0.78952 0.08255 0.63275 0.0
H1140 H 0.20038 0.07864 0.64065 0.0
H1141 H 0.19618 0.0436 0.64403 0.0
H1142 H 0.25795 0.03593 0.64088 0.0
H1143 H 0.26228 0.07072 0.63764 0.0
H1144 H 0.20885 0.01427 0.61798 0.0
H1145 H 0.24234 0.00648 0.6902 0.0
H1146 H 0.23407 0.02941 0.68092 0.0
H1147 H 0.25713 0.01986 0.67364 0.0
C1148 C 0.21304 0.06945 0.64075 0.0
C1149 C 0.23166 0.07736 0.63897 0.0
C1150 C 0.21061 0.04951 0.64269 0.0
C1151 C 0.22678 0.03731 0.64305 0.0
C1152 C 0.24533 0.04519 0.64106 0.0
H1153 H 0.2649 0.92277 0.63694 0.0
H1154 H 0.25898 0.95747 0.63875 0.0
C1155 C 0.24777 0.06504 0.63908 0.0
C1156 C 0.22451 0.01622 0.64477 0.0
H1157 H 0.24033 0.97766 0.67094 0.0
C1158 C 0.21535 0.00621 0.62973 0.0
C1159 C 0.23293 0.00587 0.66021 0.0
C1160 C 0.24201 0.01596 0.67726 0.0
C1161 C 0.21556 0.98597 0.62908 0.0
C1162 C 0.225 0.97568 0.64395 0.0
C1163 C 0.23323 0.98568 0.65951 0.0
C1164 C 0.2281 0.95467 0.64278 0.0
C1165 C 0.20668 0.97575 0.61201 0.0
C1166 C 0.21265 0.9417 0.64453 0.0
C1167 C 0.21599 0.92183 0.6435 0.0
C1168 C 0.23483 0.91474 0.64074 0.0
C1169 C 0.25023 0.92782 0.63903 0.0
C1170 C 0.24689 0.94761 0.6401 0.0
H1171 H 0.20206 0.98597 0.60053 0.0
H1172 H 0.21712 0.96532 0.60574 0.0
H1173 H 0.19382 0.96749 0.61686 0.0
H1174 H 0.19808 0.94695 0.64682 0.0
H1175 H 0.20386 0.91205 0.64492 0.0
H1176 H 0.14912 0.29263 0.2456 0.0
H1177 H 0.16125 0.26424 0.26262 0.0
H1178 H 0.16141 0.2961 0.31613 0.0
H1179 H 0.14907 0.32465 0.29918 0.0
H1180 H 0.19666 0.26372 0.28269 0.0
H1181 H 0.13488 0.24416 0.33017 0.0
H1182 H 0.1322 0.25947 0.30921 0.0
H1183 H 0.1424 0.269 0.33106 0.0
C1184 C 0.1515 0.29355 0.26104 0.0
C1185 C 0.1482 0.31086 0.27108 0.0
C1186 C 0.15842 0.27731 0.27073 0.0
C1187 C 0.16204 0.27805 0.29063 0.0
C1188 C 0.15838 0.29517 0.30081 0.0
H1189 H 0.23928 0.20162 0.35241 0.0
H1190 H 0.22151 0.22957 0.34018 0.0
C1191 C 0.15145 0.31148 0.29111 0.0
C1192 C 0.17112 0.26133 0.30028 0.0
H1193 H 0.16412 0.22685 0.33483 0.0
C1194 C 0.18956 0.25565 0.29408 0.0
C1195 C 0.16171 0.25081 0.31503 0.0
C1196 C 0.14163 0.25601 0.32172 0.0
C1197 C 0.19893 0.23974 0.30232 0.0
C1198 C 0.18969 0.22942 0.3173 0.0
C1199 C 0.17117 0.23495 0.32343 0.0
C1200 C 0.1991 0.21265 0.32649 0.0
C1201 C 0.21854 0.23392 0.29474 0.0
C1202 C 0.19198 0.19397 0.32332 0.0
C1203 C 0.20209 0.17795 0.33028 0.0
C1204 C 0.21942 0.18045 0.34057 0.0
C1205 C 0.22603 0.19924 0.34442 0.0
C1206 C 0.21593 0.21521 0.33745 0.0
H1207 H 0.22181 0.24081 0.28063 0.0
H1208 H 0.22981 0.23843 0.30522 0.0
H1209 H 0.21947 0.21801 0.29304 0.0
H1210 H 0.17897 0.19178 0.31489 0.0
H1211 H 0.19663 0.16363 0.32717 0.0
H1212 H 0.30184 0.71404 0.87994 0.0
H1213 H 0.2746 0.69409 0.8694 0.0
H1214 H 0.30054 0.68854 0.81301 0.0
H1215 H 0.32796 0.70803 0.82357 0.0
H1216 H 0.24988 0.70356 0.84104 0.0
H1217 H 0.284 0.63369 0.82318 0.0
H1218 H 0.29611 0.65188 0.83741 0.0
H1219 H 0.29603 0.65337 0.81143 0.0
C1220 C 0.30188 0.70825 0.86541 0.0
C1221 C 0.317 0.71257 0.85256 0.0
C1222 C 0.28634 0.69686 0.85942 0.0
C1223 C 0.28568 0.68958 0.84052 0.0
C1224 C 0.30099 0.69355 0.82782 0.0
H1225 H 0.20648 0.65156 0.75657 0.0
H1226 H 0.23372 0.66149 0.7767 0.0
C1227 C 0.31658 0.70483 0.83382 0.0
C1228 C 0.26818 0.67959 0.83338 0.0
H1229 H 0.25318 0.64013 0.80797 0.0
C1230 C 0.25049 0.6895 0.83417 0.0
C1231 C 0.26902 0.66123 0.82448 0.0
C1232 C 0.28729 0.64935 0.82425 0.0
C1233 C 0.23389 0.68207 0.82527 0.0
C1234 C 0.23502 0.6642 0.8155 0.0
C1235 C 0.25245 0.65387 0.81543 0.0
C1236 C 0.21877 0.65695 0.80375 0.0
C1237 C 0.21552 0.69382 0.82548 0.0
C1238 C 0.20147 0.65088 0.81239 0.0
C1239 C 0.18584 0.64519 0.80091 0.0
C1240 C 0.18735 0.64553 0.78067 0.0
C1241 C 0.20487 0.65123 0.77213 0.0
C1242 C 0.22045 0.65683 0.78359 0.0
H1243 H 0.21781 0.70854 0.83142 0.0
H1244 H 0.20955 0.69512 0.81065 0.0
H1245 H 0.20456 0.6864 0.83452 0.0
H1246 H 0.20001 0.65074 0.82796 0.0
H1247 H 0.17253 0.64078 0.80786 0.0
H1248 H 0.87657 0.69647 0.27535 0.0
H1249 H 0.87051 0.7269 0.2922 0.0
H1250 H 0.8274 0.69886 0.32743 0.0
H1251 H 0.83377 0.66832 0.31101 0.0
H1252 H 0.83643 0.74465 0.29013 0.0
H1253 H 0.85385 0.73222 0.36707 0.0
H1254 H 0.8621 0.7163 0.34812 0.0
H1255 H 0.83801 0.714 0.3577 0.0
C1256 C 0.86614 0.69671 0.28702 0.0
C1257 C 0.85555 0.68009 0.29183 0.0
C1258 C 0.86272 0.71408 0.29664 0.0
C1259 C 0.84866 0.71512 0.31121 0.0
C1260 C 0.83867 0.69831 0.31659 0.0
H1261 H 0.77268 0.79817 0.35893 0.0
H1262 H 0.79215 0.76985 0.35078 0.0
C1263 C 0.8422 0.68089 0.30708 0.0
C1264 C 0.84249 0.73412 0.31878 0.0
H1265 H 0.83209 0.75868 0.36025 0.0
C1266 C 0.83586 0.74788 0.30545 0.0
C1267 C 0.84166 0.73825 0.33877 0.0
C1268 C 0.84947 0.72447 0.35372 0.0
C1269 C 0.82758 0.76527 0.31157 0.0
C1270 C 0.82611 0.76909 0.33156 0.0
C1271 C 0.83327 0.75564 0.34493 0.0
C1272 C 0.8158 0.78631 0.33871 0.0
C1273 C 0.8196 0.77901 0.29663 0.0
C1274 C 0.82296 0.80489 0.33505 0.0
C1275 C 0.81185 0.82109 0.33961 0.0
C1276 C 0.79346 0.8189 0.34793 0.0
C1277 C 0.78676 0.80028 0.35242 0.0
C1278 C 0.79788 0.78411 0.34787 0.0
H1279 H 0.81894 0.77239 0.28204 0.0
H1280 H 0.80487 0.78387 0.30073 0.0
H1281 H 0.82901 0.79196 0.2958 0.0
H1282 H 0.83688 0.80681 0.32814 0.0
H1283 H 0.81742 0.83528 0.33611 0.0
H1284 H 0.83278 0.3221 0.8045 0.0
H1285 H 0.80322 0.31233 0.82134 0.0
H1286 H 0.77115 0.35607 0.79069 0.0
H1287 H 0.8005 0.36558 0.77347 0.0
H1288 H 0.77662 0.33184 0.84463 0.0
H1289 H 0.74287 0.30654 0.77635 0.0
H1290 H 0.76815 0.31262 0.77805 0.0
H1291 H 0.75029 0.33136 0.77598 0.0
C1292 C 0.81945 0.32973 0.80149 0.0
C1293 C 0.81885 0.34442 0.78751 0.0
C1294 C 0.80261 0.32416 0.81112 0.0
C1295 C 0.78497 0.33324 0.80695 0.0
C1296 C 0.78455 0.3486 0.79377 0.0
H1297 H 0.66694 0.30507 0.83994 0.0
H1298 H 0.69584 0.32247 0.82926 0.0
C1299 C 0.80133 0.35406 0.78401 0.0
C1300 C 0.76686 0.326 0.81568 0.0
H1301 H 0.72353 0.30541 0.80438 0.0
C1302 C 0.76498 0.32609 0.83586 0.0
C1303 C 0.75176 0.31845 0.80416 0.0
C1304 C 0.75337 0.31703 0.78245 0.0
C1305 C 0.74828 0.31889 0.84485 0.0
C1306 C 0.73326 0.31128 0.8333 0.0
C1307 C 0.73505 0.31142 0.81314 0.0
C1308 C 0.71596 0.30208 0.84174 0.0
C1309 C 0.74679 0.31952 0.86657 0.0
C1310 C 0.71778 0.28494 0.85236 0.0
C1311 C 0.70134 0.27495 0.8584 0.0
C1312 C 0.68282 0.28192 0.85384 0.0
C1313 C 0.68103 0.29939 0.84368 0.0
C1314 C 0.6975 0.30934 0.83759 0.0
H1315 H 0.757 0.33016 0.87291 0.0
H1316 H 0.73187 0.32324 0.87118 0.0
H1317 H 0.75037 0.30508 0.87251 0.0
H1318 H 0.73191 0.27892 0.85537 0.0
H1319 H 0.70314 0.2615 0.86617 0.0
H1320 H 0.18253 0.82974 0.65516 0.0
H1321 H 0.16062 0.80315 0.66339 0.0
H1322 H 0.20508 0.76203 0.64883 0.0
H1323 H 0.22699 0.78842 0.6405 0.0
H1324 H 0.16526 0.7527 0.6357 0.0
H1325 H 0.17177 0.77151 0.71377 0.0
H1326 H 0.16456 0.79029 0.69734 0.0
H1327 H 0.18853 0.78053 0.69596 0.0
C1328 C 0.18754 0.81502 0.65352 0.0
C1329 C 0.20652 0.81111 0.64741 0.0
C1330 C 0.17503 0.7999 0.6582 0.0
C1331 C 0.18135 0.78072 0.65682 0.0
C1332 C 0.19998 0.77678 0.64993 0.0
H1333 H 0.1628 0.66602 0.6889 0.0
H1334 H 0.16815 0.69589 0.67109 0.0
C1335 C 0.21249 0.79185 0.64529 0.0
C1336 C 0.16934 0.76471 0.66409 0.0
H1337 H 0.15552 0.74303 0.70601 0.0
C1338 C 0.1628 0.75067 0.65104 0.0
C1339 C 0.16611 0.76227 0.68409 0.0
C1340 C 0.17316 0.77684 0.6987 0.0
C1341 C 0.15368 0.7338 0.65758 0.0
C1342 C 0.15153 0.7308 0.67768 0.0
C1343 C 0.15716 0.74536 0.69061 0.0
C1344 C 0.14572 0.71195 0.68588 0.0
C1345 C 0.14675 0.71927 0.64293 0.0
C1346 C 0.13133 0.71099 0.70014 0.0
C1347 C 0.12851 0.694 0.71062 0.0
C1348 C 0.14003 0.67771 0.70697 0.0
C1349 C 0.15366 0.67835 0.69197 0.0
C1350 C 0.1566 0.69537 0.68163 0.0
H1351 H 0.14262 0.72646 0.62919 0.0
H1352 H 0.15864 0.70904 0.63964 0.0
H1353 H 0.13417 0.71094 0.64837 0.0
H1354 H 0.12287 0.72364 0.70373 0.0
H1355 H 0.11784 0.69386 0.72207 0.0
H1356 H 0.6663 0.70213 0.17831 0.0
H1357 H 0.69508 0.68446 0.18863 0.0
H1358 H 0.72174 0.6952 0.13335 0.0
H1359 H 0.69313 0.71331 0.12306 0.0
H1360 H 0.71475 0.65247 0.17397 0.0
H1361 H 0.76008 0.7188 0.17139 0.0
H1362 H 0.73409 0.71958 0.16965 0.0
H1363 H 0.74834 0.71245 0.14916 0.0
C1364 C 0.67822 0.70057 0.16828 0.0
C1365 C 0.6776 0.70927 0.14997 0.0
C1366 C 0.69462 0.69045 0.17419 0.0
C1367 C 0.71064 0.68884 0.16188 0.0
C1368 C 0.70967 0.69664 0.1432 0.0
H1369 H 0.82613 0.6479 0.19432 0.0
H1370 H 0.79825 0.65737 0.17458 0.0
C1371 C 0.6933 0.70689 0.13733 0.0
C1372 C 0.72863 0.67987 0.16911 0.0
H1373 H 0.77518 0.69025 0.18169 0.0
C1374 C 0.72803 0.66066 0.1755 0.0
C1375 C 0.74592 0.69062 0.17107 0.0
C1376 C 0.74721 0.71155 0.16512 0.0
C1377 C 0.74416 0.65201 0.18419 0.0
C1378 C 0.7612 0.66296 0.18671 0.0
C1379 C 0.76206 0.68191 0.17966 0.0
C1380 C 0.77773 0.6557 0.1981 0.0
C1381 C 0.74278 0.63131 0.1908 0.0
C1382 C 0.77538 0.65177 0.21782 0.0
C1383 C 0.79121 0.64649 0.2291 0.0
C1384 C 0.80971 0.64512 0.22086 0.0
C1385 C 0.81202 0.64882 0.20103 0.0
C1386 C 0.79615 0.65419 0.18976 0.0
H1387 H 0.73127 0.62337 0.18292 0.0
H1388 H 0.75673 0.62365 0.18874 0.0
H1389 H 0.73917 0.631 0.20642 0.0
H1390 H 0.76135 0.65327 0.22461 0.0
H1391 H 0.789 0.64376 0.24435 0.0
H1392 H 0.76616 0.20212 0.62648 0.0
H1393 H 0.78529 0.23048 0.63521 0.0
H1394 H 0.81895 0.19581 0.67455 0.0
H1395 H 0.80015 0.1673 0.66558 0.0
H1396 H 0.7863 0.24546 0.67117 0.0
H1397 H 0.8607 0.22719 0.64815 0.0
H1398 H 0.83976 0.21417 0.63961 0.0
H1399 H 0.85001 0.20876 0.66288 0.0
C1400 C 0.77787 0.20047 0.63673 0.0
C1401 C 0.78166 0.18253 0.6454 0.0
C1402 C 0.78879 0.21668 0.64167 0.0
C1403 C 0.8037 0.21521 0.65534 0.0
C1404 C 0.80784 0.19718 0.66362 0.0
H1405 H 0.86518 0.2888 0.73186 0.0
H1406 H 0.85279 0.26254 0.71178 0.0
C1407 C 0.79699 0.18094 0.6586 0.0
C1408 C 0.8134 0.23285 0.66252 0.0
H1409 H 0.85761 0.25292 0.67128 0.0
C1410 C 0.80187 0.24726 0.6709 0.0
C1411 C 0.83371 0.2351 0.66219 0.0
C1412 C 0.84675 0.22056 0.65255 0.0
C1413 C 0.81014 0.26348 0.67971 0.0
C1414 C 0.83047 0.26545 0.67989 0.0
C1415 C 0.84201 0.25133 0.67107 0.0
C1416 C 0.83992 0.28139 0.69045 0.0
C1417 C 0.79709 0.27793 0.68953 0.0
C1418 C 0.83724 0.30064 0.68475 0.0
C1419 C 0.84424 0.31568 0.69622 0.0
C1420 C 0.85407 0.31165 0.71352 0.0
C1421 C 0.85757 0.29234 0.71866 0.0
C1422 C 0.85056 0.27733 0.70719 0.0
H1423 H 0.78209 0.27243 0.69117 0.0
H1424 H 0.80276 0.28171 0.70405 0.0
H1425 H 0.79653 0.29134 0.68079 0.0
H1426 H 0.82925 0.30401 0.67172 0.0
H1427 H 0.84145 0.33044 0.69186 0.0
H1428 H 0.19812 0.3772 0.22035 0.0
H1429 H 0.22792 0.36931 0.20312 0.0
H1430 H 0.19585 0.33239 0.16453 0.0
H1431 H 0.16595 0.3405 0.18145 0.0
H1432 H 0.24127 0.33277 0.20298 0.0
H1433 H 0.23344 0.35802 0.12755 0.0
H1434 H 0.21841 0.3669 0.14695 0.0
H1435 H 0.21299 0.34422 0.13549 0.0
C1436 C 0.19734 0.36782 0.20786 0.0
C1437 C 0.17975 0.35934 0.20231 0.0
C1438 C 0.21438 0.36335 0.19802 0.0
C1439 C 0.2141 0.35038 0.18246 0.0
C1440 C 0.19636 0.34276 0.17622 0.0
H1441 H 0.29282 0.26339 0.14887 0.0
H1442 H 0.26588 0.28401 0.15864 0.0
C1443 C 0.17929 0.3473 0.18599 0.0
C1444 C 0.23245 0.34254 0.17476 0.0
H1445 H 0.25691 0.33273 0.13305 0.0
C1446 C 0.24485 0.3331 0.18773 0.0
C1447 C 0.23714 0.343 0.15487 0.0
C1448 C 0.22488 0.35376 0.14044 0.0
C1449 C 0.26132 0.32334 0.18125 0.0
C1450 C 0.26539 0.32286 0.16128 0.0
C1451 C 0.25357 0.33302 0.14835 0.0
C1452 C 0.28118 0.31076 0.15369 0.0
C1453 C 0.27403 0.31313 0.19572 0.0
C1454 C 0.29851 0.31911 0.14735 0.0
C1455 C 0.314 0.30735 0.14183 0.0
C1456 C 0.31225 0.28714 0.1425 0.0
C1457 C 0.29461 0.27891 0.14825 0.0
C1458 C 0.27922 0.29064 0.15382 0.0
H1459 H 0.27118 0.31805 0.21073 0.0
H1460 H 0.27123 0.29737 0.195 0.0
H1461 H 0.28953 0.31553 0.19234 0.0
H1462 H 0.30021 0.33465 0.1472 0.0
H1463 H 0.32743 0.31407 0.13741 0.0
H1464 H 0.33266 0.196 0.16582 0.0
H1465 H 0.32614 0.17756 0.19524 0.0
H1466 H 0.37071 0.20922 0.22513 0.0
H1467 H 0.37695 0.2281 0.1959 0.0
H1468 H 0.34823 0.1544 0.21986 0.0
H1469 H 0.32258 0.22099 0.25681 0.0
H1470 H 0.32719 0.22016 0.2312 0.0
H1471 H 0.34694 0.22199 0.24796 0.0
C1472 C 0.34121 0.19888 0.1786 0.0
C1473 C 0.3551 0.21366 0.17869 0.0
C1474 C 0.33751 0.18831 0.19537 0.0
C1475 C 0.3477 0.1923 0.21243 0.0
C1476 C 0.36241 0.20623 0.21221 0.0
H1477 H 0.31539 0.15618 0.32897 0.0
H1478 H 0.3356 0.16688 0.30196 0.0
C1479 C 0.36599 0.21694 0.19551 0.0
C1480 C 0.34187 0.18286 0.23068 0.0
H1481 H 0.32125 0.19214 0.27445 0.0
C1482 C 0.3425 0.16264 0.23189 0.0
C1483 C 0.33438 0.19367 0.24632 0.0
C1484 C 0.33254 0.21538 0.24554 0.0
C1485 C 0.33548 0.15291 0.24824 0.0
C1486 C 0.32749 0.16371 0.26359 0.0
C1487 C 0.32752 0.18393 0.26267 0.0
C1488 C 0.31723 0.15452 0.27991 0.0
C1489 C 0.33648 0.13117 0.24885 0.0
C1490 C 0.30037 0.14384 0.27641 0.0
C1491 C 0.28879 0.1378 0.29176 0.0
C1492 C 0.29384 0.14243 0.31086 0.0
C1493 C 0.31116 0.1524 0.31439 0.0
C1494 C 0.32272 0.1585 0.29901 0.0
H1495 H 0.34809 0.12557 0.23928 0.0
H1496 H 0.33905 0.1259 0.26377 0.0
H1497 H 0.32254 0.12513 0.24372 0.0
H1498 H 0.29564 0.141 0.26177 0.0
H1499 H 0.27551 0.13015 0.2886 0.0
H1500 H 0.37565 0.78865 0.80972 0.0
H1501 H 0.36631 0.80654 0.78071 0.0
H1502 H 0.31052 0.81832 0.80586 0.0
H1503 H 0.31981 0.80065 0.83496 0.0
H1504 H 0.33557 0.79449 0.75832 0.0
H1505 H 0.32472 0.87021 0.78152 0.0
H1506 H 0.33859 0.85307 0.79548 0.0
H1507 H 0.31263 0.85308 0.79676 0.0
C1508 C 0.36156 0.79545 0.80924 0.0
C1509 C 0.3484 0.79319 0.82454 0.0
C1510 C 0.35627 0.80566 0.79268 0.0
C1511 C 0.33781 0.8139 0.79123 0.0
C1512 C 0.32498 0.81242 0.80685 0.0
H1513 H 0.25685 0.85132 0.70758 0.0
H1514 H 0.27619 0.844 0.73616 0.0
C1515 C 0.33026 0.8022 0.82342 0.0
C1516 C 0.33099 0.82173 0.77257 0.0
H1517 H 0.30934 0.8608 0.75182 0.0
C1518 C 0.33017 0.80911 0.75674 0.0
C1519 C 0.32389 0.84075 0.77066 0.0
C1520 C 0.32515 0.85513 0.78697 0.0
C1521 C 0.32147 0.81466 0.73933 0.0
C1522 C 0.31379 0.8335 0.73761 0.0
C1523 C 0.31526 0.84637 0.7532 0.0
C1524 C 0.30277 0.8395 0.72032 0.0
C1525 C 0.31966 0.79995 0.72333 0.0
C1526 C 0.31143 0.83979 0.70199 0.0
C1527 C 0.30035 0.84377 0.68558 0.0
C1528 C 0.28051 0.84775 0.68733 0.0
C1529 C 0.27208 0.84822 0.70578 0.0
C1530 C 0.28312 0.84411 0.72213 0.0
H1531 H 0.32259 0.78505 0.7285 0.0
H1532 H 0.30498 0.80032 0.71687 0.0
H1533 H 0.33027 0.80335 0.7118 0.0
H1534 H 0.32667 0.83662 0.70035 0.0
H1535 H 0.30725 0.84351 0.67154 0.0
H1536 H 0.69897 0.84319 0.32118 0.0
H1537 H 0.68134 0.83333 0.29211 0.0
H1538 H 0.72606 0.85812 0.2565 0.0
H1539 H 0.7439 0.86774 0.28543 0.0
H1540 H 0.66746 0.85422 0.25908 0.0
H1541 H 0.72456 0.80089 0.2405 0.0
H1542 H 0.72311 0.81224 0.2639 0.0
H1543 H 0.73299 0.8252 0.2437 0.0
C1544 C 0.70495 0.84668 0.30715 0.0
C1545 C 0.72291 0.85601 0.30554 0.0
C1546 C 0.69485 0.8411 0.29059 0.0
C1547 C 0.70258 0.84475 0.27222 0.0
C1548 C 0.72004 0.85489 0.27058 0.0
H1549 H 0.67144 0.80116 0.15888 0.0
H1550 H 0.68485 0.82105 0.18483 0.0
C1551 C 0.73018 0.8604 0.28711 0.0
C1552 C 0.69298 0.83695 0.25483 0.0
H1553 H 0.69906 0.80452 0.21828 0.0
C1554 C 0.67434 0.84339 0.2501 0.0
C1555 C 0.70203 0.8228 0.24322 0.0
C1556 C 0.7217 0.81471 0.24812 0.0
C1557 C 0.66453 0.83609 0.23391 0.0
C1558 C 0.67356 0.82185 0.22241 0.0
C1559 C 0.69226 0.81558 0.22705 0.0
C1560 C 0.66363 0.81233 0.20607 0.0
C1561 C 0.6447 0.84377 0.22917 0.0
C1562 C 0.64708 0.8011 0.20936 0.0
C1563 C 0.6394 0.78974 0.19457 0.0
C1564 C 0.64825 0.78932 0.17631 0.0
C1565 C 0.66433 0.8012 0.17282 0.0
C1566 C 0.67199 0.81256 0.18761 0.0
H1567 H 0.64221 0.85816 0.23579 0.0
H1568 H 0.64259 0.84493 0.21331 0.0
H1569 H 0.63364 0.83371 0.23495 0.0
H1570 H 0.64065 0.8004 0.2236 0.0
H1571 H 0.62702 0.78069 0.19769 0.0
H1572 H 0.6904 0.1688 0.66872 0.0
H1573 H 0.67289 0.17878 0.69783 0.0
H1574 H 0.70471 0.13703 0.73136 0.0
H1575 H 0.72255 0.12731 0.70249 0.0
H1576 H 0.65008 0.15919 0.72542 0.0
H1577 H 0.71769 0.18832 0.75745 0.0
H1578 H 0.71595 0.18136 0.73241 0.0
H1579 H 0.71901 0.16331 0.75082 0.0
C1580 C 0.69351 0.16163 0.68227 0.0
C1581 C 0.70801 0.14748 0.68344 0.0
C1582 C 0.68348 0.16731 0.69885 0.0
C1583 C 0.6878 0.15889 0.71677 0.0
C1584 C 0.70148 0.14398 0.71773 0.0
H1585 H 0.65701 0.18963 0.83423 0.0
H1586 H 0.6668 0.17146 0.80554 0.0
C1587 C 0.71161 0.13842 0.70123 0.0
C1588 C 0.6789 0.16649 0.73463 0.0
H1589 H 0.68989 0.1888 0.77714 0.0
C1590 C 0.65875 0.16565 0.73677 0.0
C1591 C 0.69028 0.17499 0.74932 0.0
C1592 C 0.71191 0.17725 0.74738 0.0
C1593 C 0.64967 0.17294 0.75338 0.0
C1594 C 0.66109 0.1814 0.76804 0.0
C1595 C 0.68122 0.18211 0.76593 0.0
C1596 C 0.65257 0.19057 0.78533 0.0
C1597 C 0.62801 0.17142 0.75521 0.0
C1598 C 0.64111 0.20716 0.78342 0.0
C1599 C 0.63553 0.21758 0.79976 0.0
C1600 C 0.64145 0.21162 0.81824 0.0
C1601 C 0.65224 0.19456 0.82017 0.0
C1602 C 0.65783 0.18416 0.80382 0.0
H1603 H 0.622 0.16022 0.74542 0.0
H1604 H 0.62375 0.16796 0.77028 0.0
H1605 H 0.6214 0.18548 0.75128 0.0
H1606 H 0.63723 0.21255 0.76926 0.0
H1607 H 0.62724 0.2307 0.79785 0.0
H1608 H 0.80575 0.82922 0.65513 0.0
H1609 H 0.82487 0.80147 0.66597 0.0
H1610 H 0.78066 0.76285 0.64514 0.0
H1611 H 0.76153 0.79042 0.63423 0.0
H1612 H 0.81078 0.77458 0.69343 0.0
H1613 H 0.83121 0.73841 0.6249 0.0
H1614 H 0.8236 0.76335 0.62594 0.0
H1615 H 0.806 0.7443 0.62687 0.0
C1616 C 0.80027 0.8148 0.65259 0.0
C1617 C 0.78214 0.81196 0.64389 0.0
C1618 C 0.8112 0.79899 0.65876 0.0
C1619 C 0.80427 0.78014 0.65611 0.0
C1620 C 0.78643 0.77727 0.64696 0.0
H1621 H 0.82868 0.66585 0.69721 0.0
H1622 H 0.81777 0.69445 0.67949 0.0
C1623 C 0.77546 0.79304 0.64087 0.0
C1624 C 0.81467 0.76357 0.66464 0.0
H1625 H 0.83523 0.7201 0.65385 0.0
C1626 C 0.81638 0.76277 0.68479 0.0
C1627 C 0.82175 0.74816 0.65328 0.0
C1628 C 0.82073 0.7486 0.63153 0.0
C1629 C 0.8244 0.74664 0.694 0.0
C1630 C 0.83135 0.73111 0.68268 0.0
C1631 C 0.82994 0.73205 0.66247 0.0
C1632 C 0.83937 0.71347 0.69169 0.0
C1633 C 0.82458 0.74605 0.71581 0.0
C1634 C 0.85552 0.71458 0.70388 0.0
C1635 C 0.86164 0.69835 0.71415 0.0
C1636 C 0.85187 0.68068 0.71216 0.0
C1637 C 0.83643 0.67931 0.69906 0.0
C1638 C 0.8302 0.69561 0.68892 0.0
H1639 H 0.81441 0.75671 0.72216 0.0
H1640 H 0.82068 0.73147 0.72121 0.0
H1641 H 0.83931 0.74957 0.72106 0.0
H1642 H 0.86308 0.72813 0.70585 0.0
H1643 H 0.87373 0.69976 0.72399 0.0
H1644 H 0.68554 0.27917 0.11474 0.0
H1645 H 0.71477 0.29869 0.11899 0.0
H1646 H 0.69518 0.31565 0.17564 0.0
H1647 H 0.66582 0.2966 0.17134 0.0
H1648 H 0.71316 0.34564 0.15534 0.0
H1649 H 0.75723 0.27827 0.15448 0.0
H1650 H 0.74294 0.28304 0.13335 0.0
H1651 H 0.73121 0.27781 0.1559 0.0
C1652 C 0.68734 0.28733 0.12796 0.0
C1653 C 0.67354 0.28619 0.14282 0.0
C1654 C 0.70407 0.29839 0.13039 0.0
C1655 C 0.70729 0.30827 0.14778 0.0
C1656 C 0.69299 0.30806 0.16213 0.0
H1657 H 0.78659 0.35338 0.2248 0.0
H1658 H 0.75923 0.34543 0.20412 0.0
C1659 C 0.67624 0.29713 0.15968 0.0
C1660 C 0.72609 0.31756 0.15193 0.0
H1661 H 0.77298 0.30688 0.16289 0.0
C1662 C 0.72633 0.33726 0.15666 0.0
C1663 C 0.74328 0.30658 0.15357 0.0
C1664 C 0.74376 0.28523 0.1492 0.0
C1665 C 0.74308 0.34605 0.16392 0.0
C1666 C 0.75988 0.33478 0.16666 0.0
C1667 C 0.76003 0.31545 0.16072 0.0
C1668 C 0.77638 0.34182 0.17824 0.0
C1669 C 0.74248 0.36715 0.16922 0.0
C1670 C 0.79515 0.34224 0.17056 0.0
C1671 C 0.8109 0.34679 0.18241 0.0
C1672 C 0.80806 0.35062 0.20214 0.0
C1673 C 0.78922 0.35048 0.20965 0.0
C1674 C 0.77354 0.34613 0.19781 0.0
H1675 H 0.73137 0.37498 0.16069 0.0
H1676 H 0.73867 0.36857 0.18472 0.0
H1677 H 0.75674 0.37413 0.16688 0.0
H1678 H 0.79762 0.33871 0.15552 0.0
H1679 H 0.8253 0.34676 0.17628 0.0
H1680 H 0.11582 0.29757 0.7243 0.0
H1681 H 0.12029 0.26777 0.7058 0.0
H1682 H 0.16572 0.29493 0.67291 0.0
H1683 H 0.1609 0.3249 0.69086 0.0
H1684 H 0.14334 0.27031 0.65069 0.0
H1685 H 0.16706 0.23501 0.71898 0.0
H1686 H 0.14291 0.24447 0.71914 0.0
H1687 H 0.16312 0.26067 0.71725 0.0
C1688 C 0.12652 0.29726 0.71289 0.0
C1689 C 0.13823 0.31341 0.70918 0.0
C1690 C 0.1291 0.28023 0.7024 0.0
C1691 C 0.14364 0.27904 0.68833 0.0
C1692 C 0.15447 0.29554 0.68378 0.0
H1693 H 0.21818 0.20293 0.63118 0.0
H1694 H 0.19684 0.22935 0.64062 0.0
C1695 C 0.15175 0.31263 0.69408 0.0
C1696 C 0.14898 0.2603 0.67961 0.0
H1697 H 0.16944 0.21688 0.69063 0.0
C1698 C 0.1488 0.2585 0.65941 0.0
C1699 C 0.15614 0.24494 0.69106 0.0
C1700 C 0.15751 0.24633 0.71279 0.0
C1701 C 0.15618 0.24196 0.65032 0.0
C1702 C 0.16401 0.227 0.66176 0.0
C1703 C 0.16331 0.22838 0.68194 0.0
C1704 C 0.17508 0.21084 0.65333 0.0
C1705 C 0.1559 0.2408 0.62858 0.0
C1706 C 0.1699 0.19168 0.65736 0.0
C1707 C 0.18214 0.17654 0.65207 0.0
C1708 C 0.19984 0.1804 0.64289 0.0
C1709 C 0.20464 0.19954 0.63825 0.0
C1710 C 0.19237 0.21464 0.64346 0.0
H1711 H 0.14433 0.25004 0.62237 0.0
H1712 H 0.16995 0.246 0.62287 0.0
H1713 H 0.15373 0.22572 0.62361 0.0
H1714 H 0.15671 0.18851 0.66516 0.0
H1715 H 0.17809 0.1619 0.65581 0.0
H1716 H 0.16067 0.65081 0.17244 0.0
H1717 H 0.18768 0.65864 0.15089 0.0
H1718 H 0.22754 0.63352 0.19168 0.0
H1719 H 0.20074 0.6255 0.21308 0.0
H1720 H 0.21662 0.68317 0.16175 0.0
H1721 H 0.24824 0.61303 0.14075 0.0
H1722 H 0.22406 0.61521 0.15037 0.0
H1723 H 0.2446 0.61467 0.16634 0.0
C1724 C 0.17516 0.64661 0.1766 0.0
C1725 C 0.17864 0.63764 0.19446 0.0
C1726 C 0.19054 0.65104 0.16427 0.0
C1727 C 0.20957 0.64638 0.16955 0.0
C1728 C 0.21294 0.6368 0.18708 0.0
H1729 H 0.32432 0.68169 0.1584 0.0
H1730 H 0.29388 0.66435 0.16269 0.0
C1731 C 0.19762 0.63241 0.19939 0.0
C1732 C 0.22614 0.65381 0.15828 0.0
H1733 H 0.26985 0.64058 0.13966 0.0
C1734 C 0.22806 0.67387 0.15645 0.0
C1735 C 0.24103 0.64161 0.15147 0.0
C1736 C 0.2393 0.61992 0.15215 0.0
C1737 C 0.24508 0.68215 0.14927 0.0
C1738 C 0.26041 0.66997 0.14338 0.0
C1739 C 0.25808 0.64987 0.14422 0.0
C1740 C 0.27961 0.67794 0.13843 0.0
C1741 C 0.24698 0.70388 0.1493 0.0
C1742 C 0.28189 0.69071 0.12287 0.0
C1743 C 0.29922 0.70079 0.1205 0.0
C1744 C 0.31456 0.69805 0.13353 0.0
C1745 C 0.31272 0.68416 0.14819 0.0
C1746 C 0.29535 0.6742 0.15063 0.0
H1747 H 0.23524 0.71097 0.15764 0.0
H1748 H 0.26107 0.70833 0.15554 0.0
H1749 H 0.24629 0.70928 0.13423 0.0
H1750 H 0.27 0.6935 0.11309 0.0
H1751 H 0.30032 0.71128 0.10895 0.0
H1752 H 0.86867 0.29556 0.26499 0.0
H1753 H 0.85929 0.26689 0.28341 0.0
H1754 H 0.81822 0.30086 0.31564 0.0
H1755 H 0.82774 0.32965 0.29755 0.0
H1756 H 0.83782 0.27184 0.33797 0.0
H1757 H 0.80606 0.2437 0.26965 0.0
H1758 H 0.83136 0.24947 0.26881 0.0
H1759 H 0.81393 0.26838 0.27222 0.0
C1760 C 0.85792 0.29699 0.27627 0.0
C1761 C 0.84871 0.31475 0.27966 0.0
C1762 C 0.85257 0.28061 0.28674 0.0
C1763 C 0.83783 0.28174 0.3006 0.0
C1764 C 0.82959 0.29972 0.30494 0.0
H1765 H 0.75235 0.20166 0.3366 0.0
H1766 H 0.77184 0.22885 0.32547 0.0
C1767 C 0.835 0.31612 0.29456 0.0
C1768 C 0.82948 0.26403 0.30906 0.0
H1769 H 0.80229 0.22464 0.29741 0.0
C1770 C 0.83021 0.26138 0.32914 0.0
C1771 C 0.81938 0.25061 0.29743 0.0
C1772 C 0.81744 0.25317 0.27585 0.0
C1773 C 0.82084 0.24569 0.33795 0.0
C1774 C 0.81063 0.23241 0.32631 0.0
C1775 C 0.81023 0.23488 0.30622 0.0
C1776 C 0.79908 0.21655 0.33462 0.0
C1777 C 0.82128 0.24377 0.35964 0.0
C1778 C 0.808 0.20071 0.34354 0.0
C1779 C 0.79688 0.18509 0.34991 0.0
C1780 C 0.77672 0.18514 0.34735 0.0
C1781 C 0.76785 0.20121 0.33876 0.0
C1782 C 0.77894 0.21675 0.3324 0.0
H1783 H 0.82741 0.25679 0.36674 0.0
H1784 H 0.80648 0.24125 0.36532 0.0
H1785 H 0.83028 0.23114 0.36366 0.0
H1786 H 0.82357 0.20022 0.34513 0.0
H1787 H 0.80408 0.17286 0.35646 0.0
H1788 H 0.2054 0.33842 0.75547 0.0
H1789 H 0.23454 0.33144 0.77407 0.0
H1790 H 0.20591 0.34984 0.82624 0.0
H1791 H 0.17646 0.35672 0.80768 0.0
H1792 H 0.25686 0.35672 0.79827 0.0
H1793 H 0.22511 0.29447 0.83826 0.0
H1794 H 0.21394 0.30433 0.81687 0.0
H1795 H 0.21236 0.31707 0.83938 0.0
C1796 C 0.20527 0.34098 0.77091 0.0
C1797 C 0.18863 0.34798 0.78017 0.0
C1798 C 0.22195 0.33707 0.78148 0.0
C1799 C 0.22229 0.34001 0.80151 0.0
C1800 C 0.20581 0.34728 0.81081 0.0
H1801 H 0.31561 0.2944 0.87382 0.0
H1802 H 0.28791 0.31448 0.86474 0.0
C1803 C 0.18906 0.35121 0.80021 0.0
C1804 C 0.23986 0.33487 0.81246 0.0
H1805 H 0.25809 0.30057 0.8427 0.0
C1806 C 0.25712 0.34462 0.80822 0.0
C1807 C 0.24007 0.31918 0.82551 0.0
C1808 C 0.22195 0.30801 0.83027 0.0
C1809 C 0.27478 0.33859 0.81611 0.0
C1810 C 0.27515 0.3222 0.82826 0.0
C1811 C 0.25774 0.31314 0.83337 0.0
C1812 C 0.29344 0.31281 0.83403 0.0
C1813 C 0.29291 0.34956 0.81104 0.0
C1814 C 0.30584 0.30545 0.81978 0.0
C1815 C 0.3216 0.294 0.8249 0.0
C1816 C 0.32516 0.28958 0.84437 0.0
C1817 C 0.31322 0.29761 0.8587 0.0
C1818 C 0.29741 0.30906 0.85355 0.0
H1819 H 0.28963 0.36485 0.8075 0.0
H1820 H 0.30353 0.34918 0.82306 0.0
H1821 H 0.29965 0.3429 0.79812 0.0
H1822 H 0.30279 0.30778 0.80461 0.0
H1823 H 0.33051 0.28796 0.81355 0.0
H1824 H 0.19543 0.83024 0.3226 0.0
H1825 H 0.17667 0.80398 0.30803 0.0
H1826 H 0.20515 0.76297 0.34527 0.0
H1827 H 0.22383 0.78905 0.35993 0.0
H1828 H 0.19413 0.77265 0.28877 0.0
H1829 H 0.14791 0.74736 0.34909 0.0
H1830 H 0.15932 0.77082 0.34896 0.0
H1831 H 0.17299 0.74969 0.35535 0.0
C1832 C 0.19741 0.81567 0.32792 0.0
C1833 C 0.2111 0.81166 0.34237 0.0
C1834 C 0.18672 0.80072 0.31958 0.0
C1835 C 0.18938 0.7816 0.32575 0.0
C1836 C 0.20261 0.77767 0.34058 0.0
H1837 H 0.16389 0.66647 0.28893 0.0
H1838 H 0.17349 0.69604 0.30575 0.0
C1839 C 0.21335 0.79258 0.34885 0.0
C1840 C 0.17987 0.76551 0.31545 0.0
H1841 H 0.15132 0.72591 0.3222 0.0
C1842 C 0.18452 0.76258 0.29596 0.0
C1843 C 0.16748 0.75237 0.32497 0.0
C1844 C 0.16146 0.75527 0.34571 0.0
C1845 C 0.17774 0.74638 0.2859 0.0
C1846 C 0.16565 0.73301 0.29552 0.0
C1847 C 0.16061 0.73619 0.31489 0.0
C1848 C 0.1588 0.71522 0.28591 0.0
C1849 C 0.18426 0.7433 0.26532 0.0
C1850 C 0.14706 0.71623 0.26943 0.0
C1851 C 0.14166 0.6994 0.25974 0.0
C1852 C 0.14779 0.68127 0.26649 0.0
C1853 C 0.15902 0.68025 0.28336 0.0
C1854 C 0.16447 0.69711 0.293 0.0
H1855 H 0.19696 0.75238 0.26162 0.0
H1856 H 0.18805 0.72793 0.26276 0.0
H1857 H 0.17232 0.74721 0.25536 0.0
H1858 H 0.14224 0.73006 0.26396 0.0
H1859 H 0.13286 0.7006 0.24686 0.0
H1860 H 0.83668 0.66589 0.80733 0.0
H1861 H 0.80933 0.67684 0.82697 0.0
H1862 H 0.77047 0.64311 0.79185 0.0
H1863 H 0.79765 0.63202 0.77231 0.0
H1864 H 0.77864 0.69768 0.81143 0.0
H1865 H 0.75204 0.63104 0.84676 0.0
H1866 H 0.77597 0.63295 0.8365 0.0
H1867 H 0.75545 0.62844 0.8212 0.0
C1868 C 0.82235 0.66055 0.80403 0.0
C1869 C 0.81926 0.64816 0.78827 0.0
C1870 C 0.80677 0.66679 0.81526 0.0
C1871 C 0.78794 0.66056 0.81102 0.0
C1872 C 0.78494 0.64773 0.79564 0.0
H1873 H 0.67095 0.69296 0.83115 0.0
H1874 H 0.70146 0.67685 0.8233 0.0
C1875 C 0.80046 0.64154 0.78439 0.0
C1876 C 0.77118 0.66911 0.8211 0.0
H1877 H 0.72992 0.65773 0.84558 0.0
C1878 C 0.76814 0.68903 0.81921 0.0
C1879 C 0.7575 0.65772 0.83109 0.0
C1880 C 0.76046 0.63637 0.83419 0.0
C1881 C 0.7513 0.69777 0.82625 0.0
C1882 C 0.73735 0.6863 0.83582 0.0
C1883 C 0.74065 0.66646 0.83823 0.0
C1884 C 0.71878 0.69455 0.84237 0.0
C1885 C 0.74817 0.71902 0.82255 0.0
C1886 C 0.71839 0.70938 0.85614 0.0
C1887 C 0.70105 0.7187 0.86052 0.0
C1888 C 0.6838 0.71316 0.85135 0.0
C1889 C 0.68405 0.69757 0.83838 0.0
C1890 C 0.70143 0.68834 0.83391 0.0
H1891 H 0.75815 0.7247 0.81133 0.0
H1892 H 0.73308 0.72186 0.81788 0.0
H1893 H 0.75081 0.72718 0.83608 0.0
H1894 H 0.73159 0.71411 0.8631 0.0
H1895 H 0.70124 0.73054 0.87073 0.0
H1896 H 0.69089 0.83079 0.66508 0.0
H1897 H 0.67344 0.82241 0.6946 0.0
H1898 H 0.70698 0.86417 0.72644 0.0
H1899 H 0.72485 0.87225 0.69706 0.0
H1900 H 0.7082 0.82936 0.74283 0.0
H1901 H 0.63199 0.84739 0.72694 0.0
H1902 H 0.64241 0.83238 0.70859 0.0
H1903 H 0.65179 0.85631 0.71248 0.0
C1904 C 0.69427 0.83846 0.6783 0.0
C1905 C 0.70928 0.85208 0.67883 0.0
C1906 C 0.68417 0.83377 0.69513 0.0
C1907 C 0.68873 0.84285 0.71268 0.0
C1908 C 0.70317 0.85706 0.71303 0.0
H1909 H 0.65606 0.80771 0.83016 0.0
H1910 H 0.66632 0.82788 0.8029 0.0
C1911 C 0.71337 0.86164 0.69625 0.0
C1912 C 0.68015 0.83585 0.73098 0.0
H1913 H 0.63738 0.82476 0.75291 0.0
C1914 C 0.69272 0.82871 0.7452 0.0
C1915 C 0.65996 0.83496 0.73401 0.0
C1916 C 0.64577 0.84336 0.71976 0.0
C1917 C 0.68564 0.81988 0.76197 0.0
C1918 C 0.66546 0.81834 0.76464 0.0
C1919 C 0.65286 0.82599 0.75075 0.0
C1920 C 0.65734 0.80743 0.78105 0.0
C1921 C 0.69978 0.81145 0.77628 0.0
C1922 C 0.64844 0.78958 0.77768 0.0
C1923 C 0.64263 0.77805 0.79314 0.0
C1924 C 0.64555 0.78426 0.81224 0.0
C1925 C 0.65373 0.80253 0.81558 0.0
C1926 C 0.6596 0.81404 0.80007 0.0
H1927 H 0.71479 0.8112 0.77057 0.0
H1928 H 0.69967 0.82025 0.78967 0.0
H1929 H 0.69554 0.7965 0.78021 0.0
H1930 H 0.64661 0.78426 0.76307 0.0
H1931 H 0.63627 0.76409 0.79013 0.0
H1932 H 0.6869 0.1584 0.32579 0.0
H1933 H 0.66974 0.16314 0.29542 0.0
H1934 H 0.70209 0.11652 0.26967 0.0
H1935 H 0.71974 0.11206 0.29997 0.0
H1936 H 0.70553 0.1482 0.24923 0.0
H1937 H 0.62803 0.13794 0.26425 0.0
H1938 H 0.63834 0.15396 0.28176 0.0
H1939 H 0.64659 0.1293 0.28045 0.0
C1940 C 0.69001 0.14883 0.31382 0.0
C1941 C 0.70476 0.13499 0.31517 0.0
C1942 C 0.68004 0.15142 0.29649 0.0
C1943 C 0.68443 0.14001 0.28031 0.0
C1944 C 0.69838 0.1254 0.28201 0.0
H1945 H 0.63001 0.17991 0.1716 0.0
H1946 H 0.64021 0.15693 0.19671 0.0
C1947 C 0.70847 0.12289 0.29931 0.0
C1948 C 0.67682 0.14554 0.26109 0.0
H1949 H 0.63582 0.16089 0.23838 0.0
C1950 C 0.69023 0.15045 0.24668 0.0
C1951 C 0.65686 0.14825 0.25757 0.0
C1952 C 0.64166 0.14186 0.27179 0.0
C1953 C 0.68435 0.15951 0.22959 0.0
C1954 C 0.66463 0.16405 0.22701 0.0
C1955 C 0.651 0.15766 0.24058 0.0
C1956 C 0.65837 0.17747 0.21169 0.0
C1957 C 0.69942 0.16494 0.21481 0.0
C1958 C 0.66499 0.19659 0.21208 0.0
C1959 C 0.65919 0.20965 0.19795 0.0
C1960 C 0.64659 0.20385 0.18315 0.0
C1961 C 0.63981 0.18472 0.18282 0.0
C1962 C 0.64558 0.17162 0.1971 0.0
H1963 H 0.71233 0.15545 0.21585 0.0
H1964 H 0.69352 0.16406 0.19992 0.0
H1965 H 0.7042 0.18001 0.21745 0.0
H1966 H 0.6746 0.20144 0.22344 0.0
H1967 H 0.6646 0.22431 0.19863 0.0
H1968 H 0.30019 0.15682 0.66579 0.0
H1969 H 0.31974 0.16499 0.69414 0.0
H1970 H 0.2727 0.14825 0.73144 0.0
H1971 H 0.25324 0.13978 0.70326 0.0
H1972 H 0.31031 0.19262 0.72075 0.0
H1973 H 0.31852 0.12183 0.75704 0.0
H1974 H 0.31085 0.12408 0.7322 0.0
H1975 H 0.29384 0.1276 0.75154 0.0
C1976 C 0.29413 0.15466 0.68005 0.0
C1977 C 0.2752 0.14769 0.68235 0.0
C1978 C 0.30531 0.15928 0.6962 0.0
C1979 C 0.29778 0.15691 0.71488 0.0
C1980 C 0.27897 0.14972 0.71718 0.0
H1981 H 0.32198 0.19785 0.82883 0.0
H1982 H 0.31001 0.18077 0.80025 0.0
C1983 C 0.26781 0.14506 0.70106 0.0
C1984 C 0.30882 0.16364 0.73187 0.0
H1985 H 0.32548 0.14984 0.77621 0.0
C1986 C 0.3139 0.18322 0.73275 0.0
C1987 C 0.31337 0.15133 0.74753 0.0
C1988 C 0.30903 0.13 0.74699 0.0
C1989 C 0.32277 0.19101 0.74918 0.0
C1990 C 0.32695 0.17879 0.765 0.0
C1991 C 0.32224 0.15913 0.76401 0.0
C1992 C 0.33541 0.18654 0.78298 0.0
C1993 C 0.32691 0.2124 0.74976 0.0
C1994 C 0.35392 0.19475 0.78287 0.0
C1995 C 0.36075 0.20456 0.79909 0.0
C1996 C 0.34919 0.20618 0.8157 0.0
C1997 C 0.33116 0.19687 0.81619 0.0
C1998 C 0.32432 0.18711 0.79992 0.0
H1999 H 0.31922 0.22034 0.73813 0.0
H2000 H 0.32263 0.21863 0.76391 0.0
H2001 H 0.34265 0.21479 0.74785 0.0
H2002 H 0.36279 0.19418 0.76998 0.0
H2003 H 0.37478 0.21146 0.79837 0.0
H2004 H 0.30187 0.81954 0.32925 0.0
H2005 H 0.31944 0.80997 0.30018 0.0
H2006 H 0.29706 0.85973 0.27011 0.0
H2007 H 0.27905 0.8691 0.29899 0.0
H2008 H 0.28934 0.82713 0.25134 0.0
H2009 H 0.36679 0.82752 0.271 0.0
H2010 H 0.35263 0.81412 0.28805 0.0
H2011 H 0.34865 0.83967 0.2853 0.0
C2012 C 0.30107 0.82868 0.31658 0.0
C2013 C 0.289 0.84496 0.31629 0.0
C2014 C 0.31124 0.82328 0.30002 0.0
C2015 C 0.30973 0.83426 0.28303 0.0
C2016 C 0.29849 0.85111 0.28308 0.0
H2017 H 0.36423 0.79635 0.17451 0.0
H2018 H 0.3551 0.8166 0.20216 0.0
C2019 C 0.28819 0.85642 0.29957 0.0
C2020 C 0.31752 0.82668 0.26464 0.0
H2021 H 0.35787 0.80748 0.24375 0.0
C2022 C 0.30441 0.82318 0.24957 0.0
C2023 C 0.3372 0.82167 0.26226 0.0
C2024 C 0.35215 0.82613 0.27746 0.0
C2025 C 0.31023 0.81389 0.2326 0.0
C2026 C 0.32957 0.80768 0.2308 0.0
C2027 C 0.34297 0.81207 0.24535 0.0
C2028 C 0.3357 0.79545 0.21448 0.0
C2029 C 0.29552 0.8104 0.21688 0.0
C2030 C 0.328 0.77684 0.21255 0.0
C2031 C 0.33316 0.7653 0.1969 0.0
C2032 C 0.34615 0.77218 0.18292 0.0
C2033 C 0.35411 0.79074 0.18504 0.0
C2034 C 0.34897 0.80228 0.2008 0.0
H2035 H 0.28299 0.82035 0.21817 0.0
H2036 H 0.3021 0.8122 0.20237 0.0
H2037 H 0.29004 0.79539 0.21804 0.0
H2038 H 0.31791 0.77127 0.22314 0.0
H2039 H 0.32687 0.75103 0.19569 0.0
loop_
_geom_bond_atom_site_label_1
_geom_bond_atom_site_label_2
_geom_bond_distance
_geom_bond_site_symmetry_2
_ccdc_geom_bond_type
In0 O1 2.294 . S
In0 O2 2.326 . S
In0 O6 2.266 . S
In0 O7 2.326 . S
In0 O8 2.266 . S
In0 O9 2.326 . S
In0 O11 2.294 . S
In0 O12 2.326 . S
O1 In0 2.294 . S
O1 C10 1.240 . S
O2 In0 2.326 . S
O2 C10 1.252 . S
C3 O6 1.252 . S
C3 O7 1.260 . S
C4 O11 1.240 . S
C4 O12 1.252 . S
C5 O8 1.252 . S
C5 O9 1.260 . S
O6 In0 2.266 . S
O6 C3 1.252 . S
O7 In0 2.326 . S
O7 C3 1.260 . S
O8 In0 2.266 . S
O8 C5 1.252 . S
O9 In0 2.326 . S
O9 C5 1.260 . S
C10 O1 1.240 . S
C10 O2 1.252 . S
O11 In0 2.294 . S
O11 C4 1.240 . S
O12 In0 2.326 . S
O12 C4 1.252 . S
In13 O14 2.294 . S
In13 O15 2.326 . S
In13 O19 2.266 . S
In13 O20 2.326 . S
In13 O21 2.266 . S
In13 O22 2.326 . S
In13 O24 2.294 . S
In13 O25 2.326 . S
O14 In13 2.294 . S
O14 C23 1.240 . S
O15 In13 2.326 . S
O15 C23 1.252 . S
C16 O19 1.252 . S
C16 O20 1.260 . S
C17 O24 1.240 . S
C17 O25 1.252 . S
C18 O21 1.252 . S
C18 O22 1.260 . S
O19 In13 2.266 . S
O19 C16 1.252 . S
O20 In13 2.326 . S
O20 C16 1.260 . S
O21 In13 2.266 . S
O21 C18 1.252 . S
O22 In13 2.326 . S
O22 C18 1.260 . S
C23 O14 1.240 . S
C23 O15 1.252 . S
O24 In13 2.294 . S
O24 C17 1.240 . S
O25 In13 2.326 . S
O25 C17 1.252 . S
In26 O27 2.294 . S
In26 O28 2.326 . S
In26 O32 2.266 . S
In26 O33 2.326 . S
In26 O34 2.266 . S
In26 O35 2.326 . S
In26 O37 2.294 . S
In26 O38 2.326 . S
O27 In26 2.294 . S
O27 C36 1.240 . S
O28 In26 2.326 . S
O28 C36 1.252 . S
C29 O32 1.252 . S
C29 O33 1.260 . S
C30 O37 1.240 . S
C30 O38 1.252 . S
C31 O34 1.252 . S
C31 O35 1.260 . S
O32 In26 2.266 . S
O32 C29 1.252 . S
O33 In26 2.326 . S
O33 C29 1.260 . S
O34 In26 2.266 . S
O34 C31 1.252 . S
O35 In26 2.326 . S
O35 C31 1.260 . S
C36 O27 1.240 . S
C36 O28 1.252 . S
O37 In26 2.294 . S
O37 C30 1.240 . S
O38 In26 2.326 . S
O38 C30 1.252 . S
In39 O40 2.294 . S
In39 O41 2.326 . S
In39 O45 2.266 . S
In39 O46 2.326 . S
In39 O47 2.266 . S
In39 O48 2.326 . S
In39 O50 2.294 . S
In39 O51 2.326 . S
O40 In39 2.294 . S
O40 C49 1.240 . S
O41 In39 2.326 . S
O41 C49 1.252 . S
C42 O45 1.252 . S
C42 O46 1.260 . S
C43 O50 1.240 . S
C43 O51 1.252 . S
C44 O47 1.252 . S
C44 O48 1.260 . S
O45 In39 2.266 . S
O45 C42 1.252 . S
O46 In39 2.326 . S
O46 C42 1.260 . S
O47 In39 2.266 . S
O47 C44 1.252 . S
O48 In39 2.326 . S
O48 C44 1.260 . S
C49 O40 1.240 . S
C49 O41 1.252 . S
O50 In39 2.294 . S
O50 C43 1.240 . S
O51 In39 2.326 . S
O51 C43 1.252 . S
In52 O53 2.294 . S
In52 O54 2.326 . S
In52 O58 2.266 . S
In52 O59 2.326 . S
In52 O60 2.266 . S
In52 O61 2.326 . S
In52 O63 2.294 . S
In52 O64 2.326 . S
O53 In52 2.294 . S
O53 C62 1.240 . S
O54 In52 2.326 . S
O54 C62 1.252 . S
C55 O58 1.252 . S
C55 O59 1.260 . S
C56 O63 1.240 . S
C56 O64 1.252 . S
C57 O60 1.252 . S
C57 O61 1.260 . S
O58 In52 2.266 . S
O58 C55 1.252 . S
O59 In52 2.326 . S
O59 C55 1.260 . S
O60 In52 2.266 . S
O60 C57 1.252 . S
O61 In52 2.326 . S
O61 C57 1.260 . S
C62 O53 1.240 . S
C62 O54 1.252 . S
O63 In52 2.294 . S
O63 C56 1.240 . S
O64 In52 2.326 . S
O64 C56 1.252 . S
In65 O66 2.294 . S
In65 O67 2.326 . S
In65 O71 2.266 . S
In65 O72 2.326 . S
In65 O73 2.266 . S
In65 O74 2.326 . S
In65 O76 2.294 . S
In65 O77 2.326 . S
O66 In65 2.294 . S
O66 C75 1.240 . S
O67 In65 2.326 . S
O67 C75 1.252 . S
C68 O71 1.252 . S
C68 O72 1.260 . S
C69 O76 1.240 . S
C69 O77 1.252 . S
C70 O73 1.252 . S
C70 O74 1.260 . S
O71 In65 2.266 . S
O71 C68 1.252 . S
O72 In65 2.326 . S
O72 C68 1.260 . S
O73 In65 2.266 . S
O73 C70 1.252 . S
O74 In65 2.326 . S
O74 C70 1.260 . S
C75 O66 1.240 . S
C75 O67 1.252 . S
O76 In65 2.294 . S
O76 C69 1.240 . S
O77 In65 2.326 . S
O77 C69 1.252 . S
In78 O79 2.294 . S
In78 O80 2.326 . S
In78 O84 2.266 . S
In78 O85 2.326 . S
In78 O86 2.266 . S
In78 O87 2.326 . S
In78 O89 2.294 . S
In78 O90 2.326 . S
O79 In78 2.294 . S
O79 C88 1.240 . S
O80 In78 2.326 . S
O80 C88 1.252 . S
C81 O84 1.252 . S
C81 O85 1.260 . S
C82 O89 1.240 . S
C82 O90 1.252 . S
C83 O86 1.252 . S
C83 O87 1.260 . S
O84 In78 2.266 . S
O84 C81 1.252 . S
O85 In78 2.326 . S
O85 C81 1.260 . S
O86 In78 2.266 . S
O86 C83 1.252 . S
O87 In78 2.326 . S
O87 C83 1.260 . S
C88 O79 1.240 . S
C88 O80 1.252 . S
O89 In78 2.294 . S
O89 C82 1.240 . S
O90 In78 2.326 . S
O90 C82 1.252 . S
In91 O92 2.294 . S
In91 O93 2.326 . S
In91 O97 2.266 . S
In91 O98 2.326 . S
In91 O99 2.266 . S
In91 O100 2.326 . S
In91 O102 2.294 . S
In91 O103 2.326 . S
O92 In91 2.294 . S
O92 C101 1.240 . S
O93 In91 2.326 . S
O93 C101 1.252 . S
C94 O97 1.252 . S
C94 O98 1.260 . S
C95 O102 1.240 . S
C95 O103 1.252 . S
C96 O99 1.252 . S
C96 O100 1.260 . S
O97 In91 2.266 . S
O97 C94 1.252 . S
O98 In91 2.326 . S
O98 C94 1.260 . S
O99 In91 2.266 . S
O99 C96 1.252 . S
O100 In91 2.326 . S
O100 C96 1.260 . S
C101 O92 1.240 . S
C101 O93 1.252 . S
O102 In91 2.294 . S
O102 C95 1.240 . S
O103 In91 2.326 . S
O103 C95 1.252 . S
In104 O105 2.294 . S
In104 O106 2.326 . S
In104 O110 2.266 . S
In104 O111 2.326 . S
In104 O112 2.266 . S
In104 O113 2.326 . S
In104 O115 2.294 . S
In104 O116 2.326 . S
O105 In104 2.294 . S
O105 C114 1.240 . S
O106 In104 2.326 . S
O106 C114 1.252 . S
C107 O110 1.252 . S
C107 O111 1.260 . S
C108 O115 1.240 . S
C108 O116 1.252 . S
C109 O112 1.252 . S
C109 O113 1.260 . S
O110 In104 2.266 . S
O110 C107 1.252 . S
O111 In104 2.326 . S
O111 C107 1.260 . S
O112 In104 2.266 . S
O112 C109 1.252 . S
O113 In104 2.326 . S
O113 C109 1.260 . S
C114 O105 1.240 . S
C114 O106 1.252 . S
O115 In104 2.294 . S
O115 C108 1.240 . S
O116 In104 2.326 . S
O116 C108 1.252 . S
In117 O118 2.294 . S
In117 O119 2.326 . S
In117 O123 2.266 . S
In117 O124 2.326 . S
In117 O125 2.266 . S
In117 O126 2.326 . S
In117 O128 2.294 . S
In117 O129 2.326 . S
O118 In117 2.294 . S
O118 C127 1.240 . S
O119 In117 2.326 . S
O119 C127 1.252 . S
C120 O123 1.252 . S
C120 O124 1.260 . S
C121 O128 1.240 . S
C121 O129 1.252 . S
C122 O125 1.252 . S
C122 O126 1.260 . S
O123 In117 2.266 . S
O123 C120 1.252 . S
O124 In117 2.326 . S
O124 C120 1.260 . S
O125 In117 2.266 . S
O125 C122 1.252 . S
O126 In117 2.326 . S
O126 C122 1.260 . S
C127 O118 1.240 . S
C127 O119 1.252 . S
O128 In117 2.294 . S
O128 C121 1.240 . S
O129 In117 2.326 . S
O129 C121 1.252 . S
In130 O131 2.294 . S
In130 O132 2.326 . S
In130 O136 2.266 . S
In130 O137 2.326 . S
In130 O138 2.266 . S
In130 O139 2.326 . S
In130 O141 2.294 . S
In130 O142 2.326 . S
O131 In130 2.294 . S
O131 C140 1.240 . S
O132 In130 2.326 . S
O132 C140 1.252 . S
C133 O136 1.252 . S
C133 O137 1.260 . S
C134 O141 1.240 . S
C134 O142 1.252 . S
C135 O138 1.252 . S
C135 O139 1.260 . S
O136 In130 2.266 . S
O136 C133 1.252 . S
O137 In130 2.326 . S
O137 C133 1.260 . S
O138 In130 2.266 . S
O138 C135 1.252 . S
O139 In130 2.326 . S
O139 C135 1.260 . S
C140 O131 1.240 . S
C140 O132 1.252 . S
O141 In130 2.294 . S
O141 C134 1.240 . S
O142 In130 2.326 . S
O142 C134 1.252 . S
In143 O144 2.294 . S
In143 O145 2.326 . S
In143 O149 2.266 . S
In143 O150 2.326 . S
In143 O151 2.266 . S
In143 O152 2.326 . S
In143 O154 2.294 . S
In143 O155 2.326 . S
O144 In143 2.294 . S
O144 C153 1.240 . S
O145 In143 2.326 . S
O145 C153 1.252 . S
C146 O149 1.252 . S
C146 O150 1.260 . S
C147 O154 1.240 . S
C147 O155 1.252 . S
C148 O151 1.252 . S
C148 O152 1.260 . S
O149 In143 2.266 . S
O149 C146 1.252 . S
O150 In143 2.326 . S
O150 C146 1.260 . S
O151 In143 2.266 . S
O151 C148 1.252 . S
O152 In143 2.326 . S
O152 C148 1.260 . S
C153 O144 1.240 . S
C153 O145 1.252 . S
O154 In143 2.294 . S
O154 C147 1.240 . S
O155 In143 2.326 . S
O155 C147 1.252 . S
In156 O157 2.294 . S
In156 O158 2.326 . S
In156 O162 2.266 . S
In156 O163 2.326 . S
In156 O164 2.266 . S
In156 O165 2.326 . S
In156 O167 2.294 . S
In156 O168 2.326 . S
O157 In156 2.294 . S
O157 C166 1.240 . S
O158 In156 2.326 . S
O158 C166 1.252 . S
C159 O162 1.252 . S
C159 O163 1.260 . S
C160 O167 1.240 . S
C160 O168 1.252 . S
C161 O164 1.252 . S
C161 O165 1.260 . S
O162 In156 2.266 . S
O162 C159 1.252 . S
O163 In156 2.326 . S
O163 C159 1.260 . S
O164 In156 2.266 . S
O164 C161 1.252 . S
O165 In156 2.326 . S
O165 C161 1.260 . S
C166 O157 1.240 . S
C166 O158 1.252 . S
O167 In156 2.294 . S
O167 C160 1.240 . S
O168 In156 2.326 . S
O168 C160 1.252 . S
In169 O170 2.294 . S
In169 O171 2.326 . S
In169 O175 2.266 . S
In169 O176 2.326 . S
In169 O177 2.266 . S
In169 O178 2.326 . S
In169 O180 2.294 . S
In169 O181 2.326 . S
O170 In169 2.294 . S
O170 C179 1.240 . S
O171 In169 2.326 . S
O171 C179 1.252 . S
C172 O175 1.252 . S
C172 O176 1.260 . S
C173 O180 1.240 . S
C173 O181 1.252 . S
C174 O177 1.252 . S
C174 O178 1.260 . S
O175 In169 2.266 . S
O175 C172 1.252 . S
O176 In169 2.326 . S
O176 C172 1.260 . S
O177 In169 2.266 . S
O177 C174 1.252 . S
O178 In169 2.326 . S
O178 C174 1.260 . S
C179 O170 1.240 . S
C179 O171 1.252 . S
O180 In169 2.294 . S
O180 C173 1.240 . S
O181 In169 2.326 . S
O181 C173 1.252 . S
In182 O183 2.294 . S
In182 O184 2.326 . S
In182 O188 2.266 . S
In182 O189 2.326 . S
In182 O190 2.266 . S
In182 O191 2.326 . S
In182 O193 2.294 . S
In182 O194 2.326 . S
O183 In182 2.294 . S
O183 C192 1.240 . S
O184 In182 2.326 . S
O184 C192 1.252 . S
C185 O188 1.252 . S
C185 O189 1.260 . S
C186 O193 1.240 . S
C186 O194 1.252 . S
C187 O190 1.252 . S
C187 O191 1.260 . S
O188 In182 2.266 . S
O188 C185 1.252 . S
O189 In182 2.326 . S
O189 C185 1.260 . S
O190 In182 2.266 . S
O190 C187 1.252 . S
O191 In182 2.326 . S
O191 C187 1.260 . S
C192 O183 1.240 . S
C192 O184 1.252 . S
O193 In182 2.294 . S
O193 C186 1.240 . S
O194 In182 2.326 . S
O194 C186 1.252 . S
In195 O196 2.294 . S
In195 O197 2.326 . S
In195 O201 2.266 . S
In195 O202 2.326 . S
In195 O203 2.266 . S
In195 O204 2.326 . S
In195 O206 2.294 . S
In195 O207 2.326 . S
O196 In195 2.294 . S
O196 C205 1.240 . S
O197 In195 2.326 . S
O197 C205 1.252 . S
C198 O201 1.252 . S
C198 O202 1.260 . S
C199 O206 1.240 . S
C199 O207 1.252 . S
C200 O203 1.252 . S
C200 O204 1.260 . S
O201 In195 2.266 . S
O201 C198 1.252 . S
O202 In195 2.326 . S
O202 C198 1.260 . S
O203 In195 2.266 . S
O203 C200 1.252 . S
O204 In195 2.326 . S
O204 C200 1.260 . S
C205 O196 1.240 . S
C205 O197 1.252 . S
O206 In195 2.294 . S
O206 C199 1.240 . S
O207 In195 2.326 . S
O207 C199 1.252 . S
In208 O209 2.294 . S
In208 O210 2.326 . S
In208 O214 2.266 . S
In208 O215 2.326 . S
In208 O216 2.266 . S
In208 O217 2.326 . S
In208 O219 2.294 . S
In208 O220 2.326 . S
O209 In208 2.294 . S
O209 C218 1.240 . S
O210 In208 2.326 . S
O210 C218 1.252 . S
C211 O214 1.252 . S
C211 O215 1.260 . S
C212 O219 1.240 . S
C212 O220 1.252 . S
C213 O216 1.252 . S
C213 O217 1.260 . S
O214 In208 2.266 . S
O214 C211 1.252 . S
O215 In208 2.326 . S
O215 C211 1.260 . S
O216 In208 2.266 . S
O216 C213 1.252 . S
O217 In208 2.326 . S
O217 C213 1.260 . S
C218 O209 1.240 . S
C218 O210 1.252 . S
O219 In208 2.294 . S
O219 C212 1.240 . S
O220 In208 2.326 . S
O220 C212 1.252 . S
In221 O222 2.294 . S
In221 O223 2.326 . S
In221 O227 2.266 . S
In221 O228 2.326 . S
In221 O229 2.266 . S
In221 O230 2.326 . S
In221 O232 2.294 . S
In221 O233 2.326 . S
O222 In221 2.294 . S
O222 C231 1.240 . S
O223 In221 2.326 . S
O223 C231 1.252 . S
C224 O227 1.252 . S
C224 O228 1.260 . S
C225 O232 1.240 . S
C225 O233 1.252 . S
C226 O229 1.252 . S
C226 O230 1.260 . S
O227 In221 2.266 . S
O227 C224 1.252 . S
O228 In221 2.326 . S
O228 C224 1.260 . S
O229 In221 2.266 . S
O229 C226 1.252 . S
O230 In221 2.326 . S
O230 C226 1.260 . S
C231 O222 1.240 . S
C231 O223 1.252 . S
O232 In221 2.294 . S
O232 C225 1.240 . S
O233 In221 2.326 . S
O233 C225 1.252 . S
In234 O235 2.294 . S
In234 O236 2.326 . S
In234 O240 2.266 . S
In234 O241 2.326 . S
In234 O242 2.266 . S
In234 O243 2.326 . S
In234 O245 2.294 . S
In234 O246 2.326 . S
O235 In234 2.294 . S
O235 C244 1.240 . S
O236 In234 2.326 . S
O236 C244 1.252 . S
C237 O240 1.252 . S
C237 O241 1.260 . S
C238 O245 1.240 . S
C238 O246 1.252 . S
C239 O242 1.252 . S
C239 O243 1.260 . S
O240 In234 2.266 . S
O240 C237 1.252 . S
O241 In234 2.326 . S
O241 C237 1.260 . S
O242 In234 2.266 . S
O242 C239 1.252 . S
O243 In234 2.326 . S
O243 C239 1.260 . S
C244 O235 1.240 . S
C244 O236 1.252 . S
O245 In234 2.294 . S
O245 C238 1.240 . S
O246 In234 2.326 . S
O246 C238 1.252 . S
In247 O248 2.294 . S
In247 O249 2.326 . S
In247 O253 2.266 . S
In247 O254 2.326 . S
In247 O255 2.266 . S
In247 O256 2.326 . S
In247 O258 2.294 . S
In247 O259 2.326 . S
O248 In247 2.294 . S
O248 C257 1.240 . S
O249 In247 2.326 . S
O249 C257 1.252 . S
C250 O253 1.252 . S
C250 O254 1.260 . S
C251 O258 1.240 . S
C251 O259 1.252 . S
C252 O255 1.252 . S
C252 O256 1.260 . S
O253 In247 2.266 . S
O253 C250 1.252 . S
O254 In247 2.326 . S
O254 C250 1.260 . S
O255 In247 2.266 . S
O255 C252 1.252 . S
O256 In247 2.326 . S
O256 C252 1.260 . S
C257 O248 1.240 . S
C257 O249 1.252 . S
O258 In247 2.294 . S
O258 C251 1.240 . S
O259 In247 2.326 . S
O259 C251 1.252 . S
In260 O261 2.294 . S
In260 O262 2.326 . S
In260 O266 2.266 . S
In260 O267 2.326 . S
In260 O268 2.266 . S
In260 O269 2.326 . S
In260 O271 2.294 . S
In260 O272 2.326 . S
O261 In260 2.294 . S
O261 C270 1.240 . S
O262 In260 2.326 . S
O262 C270 1.252 . S
C263 O266 1.252 . S
C263 O267 1.260 . S
C264 O271 1.240 . S
C264 O272 1.252 . S
C265 O268 1.252 . S
C265 O269 1.260 . S
O266 In260 2.266 . S
O266 C263 1.252 . S
O267 In260 2.326 . S
O267 C263 1.260 . S
O268 In260 2.266 . S
O268 C265 1.252 . S
O269 In260 2.326 . S
O269 C265 1.260 . S
C270 O261 1.240 . S
C270 O262 1.252 . S
O271 In260 2.294 . S
O271 C264 1.240 . S
O272 In260 2.326 . S
O272 C264 1.252 . S
In273 O274 2.294 . S
In273 O275 2.326 . S
In273 O279 2.266 . S
In273 O280 2.326 . S
In273 O281 2.266 . S
In273 O282 2.326 . S
In273 O284 2.294 . S
In273 O285 2.326 . S
O274 In273 2.294 . S
O274 C283 1.240 . S
O275 In273 2.326 . S
O275 C283 1.252 . S
C276 O279 1.252 . S
C276 O280 1.260 . S
C277 O284 1.240 . S
C277 O285 1.252 . S
C278 O281 1.252 . S
C278 O282 1.260 . S
O279 In273 2.266 . S
O279 C276 1.252 . S
O280 In273 2.326 . S
O280 C276 1.260 . S
O281 In273 2.266 . S
O281 C278 1.252 . S
O282 In273 2.326 . S
O282 C278 1.260 . S
C283 O274 1.240 . S
C283 O275 1.252 . S
O284 In273 2.294 . S
O284 C277 1.240 . S
O285 In273 2.326 . S
O285 C277 1.252 . S
In286 O287 2.294 . S
In286 O288 2.326 . S
In286 O292 2.266 . S
In286 O293 2.326 . S
In286 O294 2.266 . S
In286 O295 2.326 . S
In286 O297 2.294 . S
In286 O298 2.326 . S
O287 In286 2.294 . S
O287 C296 1.240 . S
O288 In286 2.326 . S
O288 C296 1.252 . S
C289 O292 1.252 . S
C289 O293 1.260 . S
C290 O297 1.240 . S
C290 O298 1.252 . S
C291 O294 1.252 . S
C291 O295 1.260 . S
O292 In286 2.266 . S
O292 C289 1.252 . S
O293 In286 2.326 . S
O293 C289 1.260 . S
O294 In286 2.266 . S
O294 C291 1.252 . S
O295 In286 2.326 . S
O295 C291 1.260 . S
C296 O287 1.240 . S
C296 O288 1.252 . S
O297 In286 2.294 . S
O297 C290 1.240 . S
O298 In286 2.326 . S
O298 C290 1.252 . S
In299 O300 2.294 . S
In299 O301 2.326 . S
In299 O305 2.266 . S
In299 O306 2.326 . S
In299 O307 2.266 . S
In299 O308 2.326 . S
In299 O310 2.294 . S
In299 O311 2.326 . S
O300 In299 2.294 . S
O300 C309 1.240 . S
O301 In299 2.326 . S
O301 C309 1.252 . S
C302 O305 1.252 . S
C302 O306 1.260 . S
C303 O310 1.240 . S
C303 O311 1.252 . S
C304 O307 1.252 . S
C304 O308 1.260 . S
O305 In299 2.266 . S
O305 C302 1.252 . S
O306 In299 2.326 . S
O306 C302 1.260 . S
O307 In299 2.266 . S
O307 C304 1.252 . S
O308 In299 2.326 . S
O308 C304 1.260 . S
C309 O300 1.240 . S
C309 O301 1.252 . S
O310 In299 2.294 . S
O310 C303 1.240 . S
O311 In299 2.326 . S
O311 C303 1.252 . S
H312 C320 0.929 . S
H313 C322 0.930 . S
H314 C324 0.930 . S
H315 C327 0.929 . S
H316 C330 0.930 . S
H317 C332 0.960 . S
H318 C332 0.960 . S
H319 C332 0.960 . S
C320 H312 0.929 . S
C320 C321 1.377 . S
C320 C322 1.384 . S
C321 C320 1.377 . S
C321 C327 1.390 . S
C322 H313 0.930 . S
C322 C320 1.384 . S
C322 C323 1.372 . S
C323 C322 1.372 . S
C323 C324 1.400 . S
C323 C328 1.490 . S
C324 H314 0.930 . S
C324 C323 1.400 . S
C324 C327 1.386 . S
H325 C341 0.930 . S
H326 C342 0.931 . S
C327 H315 0.929 . S
C327 C321 1.390 . S
C327 C324 1.386 . S
C328 C323 1.490 . S
C328 C330 1.395 . S
C328 C331 1.403 . S
H329 C335 0.930 . S
C330 H316 0.930 . S
C330 C328 1.395 . S
C330 C333 1.403 . S
C331 C328 1.403 . S
C331 C332 1.524 . S
C331 C335 1.400 . S
C332 H317 0.960 . S
C332 H318 0.960 . S
C332 H319 0.960 . S
C332 C331 1.524 . S
C333 C330 1.403 . S
C333 C334 1.392 . S
C333 C337 1.495 . S
C334 C333 1.392 . S
C334 C335 1.385 . S
C334 C336 1.478 . S
C335 H329 0.930 . S
C335 C331 1.400 . S
C335 C334 1.385 . S
C336 C334 1.478 . S
C336 C338 1.381 . S
C336 C342 1.383 . S
C337 C333 1.495 . S
C337 H343 0.959 . S
C337 H344 0.961 . S
C337 H345 0.960 . S
C338 C336 1.381 . S
C338 C339 1.394 . S
C338 H346 0.930 . S
C339 C338 1.394 . S
C339 C340 1.383 . S
C339 H347 0.929 . S
C340 C339 1.383 . S
C340 C341 1.377 . S
C341 H325 0.930 . S
C341 C340 1.377 . S
C341 C342 1.379 . S
C342 H326 0.931 . S
C342 C336 1.383 . S
C342 C341 1.379 . S
H343 C337 0.959 . S
H344 C337 0.961 . S
H345 C337 0.960 . S
H346 C338 0.930 . S
H347 C339 0.929 . S
H348 C356 0.929 . S
H349 C358 0.930 . S
H350 C360 0.930 . S
H351 C363 0.929 . S
H352 C366 0.930 . S
H353 C368 0.960 . S
H354 C368 0.960 . S
H355 C368 0.960 . S
C356 H348 0.929 . S
C356 C357 1.377 . S
C356 C358 1.384 . S
C357 C356 1.377 . S
C357 C363 1.390 . S
C358 H349 0.930 . S
C358 C356 1.384 . S
C358 C359 1.372 . S
C359 C358 1.372 . S
C359 C360 1.400 . S
C359 C364 1.490 . S
C360 H350 0.930 . S
C360 C359 1.400 . S
C360 C363 1.386 . S
H361 C377 0.930 . S
H362 C378 0.931 . S
C363 H351 0.929 . S
C363 C357 1.390 . S
C363 C360 1.386 . S
C364 C359 1.490 . S
C364 C366 1.395 . S
C364 C367 1.403 . S
H365 C371 0.930 . S
C366 H352 0.930 . S
C366 C364 1.395 . S
C366 C369 1.403 1_655 S
C367 C364 1.403 . S
C367 C368 1.524 . S
C367 C371 1.400 1_655 S
C368 H353 0.960 . S
C368 H354 0.960 . S
C368 H355 0.960 . S
C368 C367 1.524 . S
C369 C366 1.403 1_455 S
C369 C370 1.392 . S
C369 C373 1.495 . S
C370 C369 1.392 . S
C370 C371 1.385 . S
C370 C372 1.478 . S
C371 H365 0.930 . S
C371 C367 1.400 1_455 S
C371 C370 1.385 . S
C372 C370 1.478 . S
C372 C374 1.381 . S
C372 C378 1.383 . S
C373 C369 1.495 . S
C373 H379 0.959 . S
C373 H380 0.961 . S
C373 H381 0.960 . S
C374 C372 1.381 . S
C374 C375 1.394 . S
C374 H382 0.930 . S
C375 C374 1.394 . S
C375 C376 1.383 . S
C375 H383 0.929 . S
C376 C375 1.383 . S
C376 C377 1.377 . S
C377 H361 0.930 . S
C377 C376 1.377 . S
C377 C378 1.379 . S
C378 H362 0.931 . S
C378 C372 1.383 . S
C378 C377 1.379 . S
H379 C373 0.959 . S
H380 C373 0.961 . S
H381 C373 0.960 . S
H382 C374 0.930 . S
H383 C375 0.929 . S
H384 C392 0.929 . S
H385 C394 0.930 . S
H386 C396 0.930 . S
H387 C399 0.929 . S
H388 C402 0.930 . S
H389 C404 0.960 . S
H390 C404 0.960 . S
H391 C404 0.960 . S
C392 H384 0.929 . S
C392 C393 1.377 . S
C392 C394 1.384 . S
C393 C392 1.377 . S
C393 C399 1.390 . S
C394 H385 0.930 . S
C394 C392 1.384 . S
C394 C395 1.372 . S
C395 C394 1.372 . S
C395 C396 1.400 . S
C395 C400 1.490 . S
C396 H386 0.930 . S
C396 C395 1.400 . S
C396 C399 1.386 . S
H397 C413 0.930 . S
H398 C414 0.931 . S
C399 H387 0.929 . S
C399 C393 1.390 . S
C399 C396 1.386 . S
C400 C395 1.490 . S
C400 C402 1.395 . S
C400 C403 1.403 . S
H401 C407 0.930 . S
C402 H388 0.930 . S
C402 C400 1.395 . S
C402 C405 1.403 . S
C403 C400 1.403 . S
C403 C404 1.524 . S
C403 C407 1.400 . S
C404 H389 0.960 . S
C404 H390 0.960 . S
C404 H391 0.960 . S
C404 C403 1.524 . S
C405 C402 1.403 . S
C405 C406 1.392 . S
C405 C409 1.495 . S
C406 C405 1.392 . S
C406 C407 1.385 . S
C406 C408 1.478 . S
C407 H401 0.930 . S
C407 C403 1.400 . S
C407 C406 1.385 . S
C408 C406 1.478 . S
C408 C410 1.381 . S
C408 C414 1.383 . S
C409 C405 1.495 . S
C409 H415 0.959 . S
C409 H416 0.961 . S
C409 H417 0.960 . S
C410 C408 1.381 . S
C410 C411 1.394 . S
C410 H418 0.930 . S
C411 C410 1.394 . S
C411 C412 1.383 . S
C411 H419 0.929 . S
C412 C411 1.383 . S
C412 C413 1.377 . S
C413 H397 0.930 . S
C413 C412 1.377 . S
C413 C414 1.379 . S
C414 H398 0.931 . S
C414 C408 1.383 . S
C414 C413 1.379 . S
H415 C409 0.959 . S
H416 C409 0.961 . S
H417 C409 0.960 . S
H418 C410 0.930 . S
H419 C411 0.929 . S
H420 C428 0.929 . S
H421 C430 0.930 . S
H422 C432 0.930 . S
H423 C435 0.929 . S
H424 C438 0.930 . S
H425 C440 0.960 . S
H426 C440 0.960 . S
H427 C440 0.960 . S
C428 H420 0.929 . S
C428 C429 1.377 . S
C428 C430 1.384 . S
C429 C428 1.377 . S
C429 C435 1.390 . S
C430 H421 0.930 . S
C430 C428 1.384 . S
C430 C431 1.372 . S
C431 C430 1.372 . S
C431 C432 1.400 . S
C431 C436 1.490 . S
C432 H422 0.930 . S
C432 C431 1.400 . S
C432 C435 1.386 . S
H433 C449 0.930 . S
H434 C450 0.931 . S
C435 H423 0.929 . S
C435 C429 1.390 . S
C435 C432 1.386 . S
C436 C431 1.490 . S
C436 C438 1.395 . S
C436 C439 1.403 . S
H437 C443 0.930 . S
C438 H424 0.930 . S
C438 C436 1.395 . S
C438 C441 1.403 1_455 S
C439 C436 1.403 . S
C439 C440 1.524 . S
C439 C443 1.400 1_455 S
C440 H425 0.960 . S
C440 H426 0.960 . S
C440 H427 0.960 . S
C440 C439 1.524 . S
C441 C438 1.403 1_655 S
C441 C442 1.392 . S
C441 C445 1.495 . S
C442 C441 1.392 . S
C442 C443 1.385 . S
C442 C444 1.478 . S
C443 H437 0.930 . S
C443 C439 1.400 1_655 S
C443 C442 1.385 . S
C444 C442 1.478 . S
C444 C446 1.381 . S
C444 C450 1.383 . S
C445 C441 1.495 . S
C445 H451 0.959 . S
C445 H452 0.961 . S
C445 H453 0.960 . S
C446 C444 1.381 . S
C446 C447 1.394 . S
C446 H454 0.930 . S
C447 C446 1.394 . S
C447 C448 1.383 . S
C447 H455 0.929 . S
C448 C447 1.383 . S
C448 C449 1.377 . S
C449 H433 0.930 . S
C449 C448 1.377 . S
C449 C450 1.379 . S
C450 H434 0.931 . S
C450 C444 1.383 . S
C450 C449 1.379 . S
H451 C445 0.959 . S
H452 C445 0.961 . S
H453 C445 0.960 . S
H454 C446 0.930 . S
H455 C447 0.929 . S
H456 C464 0.929 . S
H457 C466 0.930 . S
H458 C468 0.930 . S
H459 C471 0.929 . S
H460 C474 0.930 . S
H461 C476 0.960 . S
H462 C476 0.960 . S
H463 C476 0.960 . S
C464 H456 0.929 . S
C464 C465 1.377 . S
C464 C466 1.384 . S
C465 C464 1.377 . S
C465 C471 1.390 . S
C466 H457 0.930 . S
C466 C464 1.384 . S
C466 C467 1.372 . S
C467 C466 1.372 . S
C467 C468 1.400 . S
C467 C472 1.490 . S
C468 H458 0.930 . S
C468 C467 1.400 . S
C468 C471 1.386 . S
H469 C485 0.930 . S
H470 C486 0.931 . S
C471 H459 0.929 . S
C471 C465 1.390 . S
C471 C468 1.386 . S
C472 C467 1.490 . S
C472 C474 1.395 . S
C472 C475 1.403 . S
H473 C479 0.930 . S
C474 H460 0.930 . S
C474 C472 1.395 . S
C474 C477 1.403 . S
C475 C472 1.403 . S
C475 C476 1.524 . S
C475 C479 1.400 . S
C476 H461 0.960 . S
C476 H462 0.960 . S
C476 H463 0.960 . S
C476 C475 1.524 . S
C477 C474 1.403 . S
C477 C478 1.392 . S
C477 C481 1.495 . S
C478 C477 1.392 . S
C478 C479 1.385 . S
C478 C480 1.478 . S
C479 H473 0.930 . S
C479 C475 1.400 . S
C479 C478 1.385 . S
C480 C478 1.478 . S
C480 C482 1.381 . S
C480 C486 1.383 . S
C481 C477 1.495 . S
C481 H487 0.959 . S
C481 H488 0.961 . S
C481 H489 0.960 . S
C482 C480 1.381 . S
C482 C483 1.394 . S
C482 H490 0.930 . S
C483 C482 1.394 . S
C483 C484 1.383 . S
C483 H491 0.929 . S
C484 C483 1.383 . S
C484 C485 1.377 . S
C485 H469 0.930 . S
C485 C484 1.377 . S
C485 C486 1.379 . S
C486 H470 0.931 . S
C486 C480 1.383 . S
C486 C485 1.379 . S
H487 C481 0.959 . S
H488 C481 0.961 . S
H489 C481 0.960 . S
H490 C482 0.930 . S
H491 C483 0.929 . S
H492 C500 0.929 . S
H493 C502 0.930 . S
H494 C504 0.930 . S
H495 C507 0.929 . S
H496 C510 0.930 . S
H497 C512 0.960 . S
H498 C512 0.960 . S
H499 C512 0.960 . S
C500 H492 0.929 . S
C500 C501 1.377 . S
C500 C502 1.384 . S
C501 C500 1.377 . S
C501 C507 1.390 . S
C502 H493 0.930 . S
C502 C500 1.384 . S
C502 C503 1.372 . S
C503 C502 1.372 . S
C503 C504 1.400 . S
C503 C508 1.490 . S
C504 H494 0.930 . S
C504 C503 1.400 . S
C504 C507 1.386 . S
H505 C521 0.930 . S
H506 C522 0.931 . S
C507 H495 0.929 . S
C507 C501 1.390 . S
C507 C504 1.386 . S
C508 C503 1.490 . S
C508 C510 1.395 . S
C508 C511 1.403 . S
H509 C515 0.930 . S
C510 H496 0.930 . S
C510 C508 1.395 . S
C510 C513 1.403 1_655 S
C511 C508 1.403 . S
C511 C512 1.524 . S
C511 C515 1.400 1_655 S
C512 H497 0.960 . S
C512 H498 0.960 . S
C512 H499 0.960 . S
C512 C511 1.524 . S
C513 C510 1.403 1_455 S
C513 C514 1.392 . S
C513 C517 1.495 . S
C514 C513 1.392 . S
C514 C515 1.385 . S
C514 C516 1.478 . S
C515 H509 0.930 . S
C515 C511 1.400 1_455 S
C515 C514 1.385 . S
C516 C514 1.478 . S
C516 C518 1.381 . S
C516 C522 1.383 . S
C517 C513 1.495 . S
C517 H523 0.959 . S
C517 H524 0.961 . S
C517 H525 0.960 . S
C518 C516 1.381 . S
C518 C519 1.394 . S
C518 H526 0.930 . S
C519 C518 1.394 . S
C519 C520 1.383 . S
C519 H527 0.929 . S
C520 C519 1.383 . S
C520 C521 1.377 . S
C521 H505 0.930 . S
C521 C520 1.377 . S
C521 C522 1.379 . S
C522 H506 0.931 . S
C522 C516 1.383 . S
C522 C521 1.379 . S
H523 C517 0.959 . S
H524 C517 0.961 . S
H525 C517 0.960 . S
H526 C518 0.930 . S
H527 C519 0.929 . S
H528 C536 0.929 . S
H529 C538 0.930 . S
H530 C540 0.930 . S
H531 C543 0.929 . S
H532 C546 0.930 . S
H533 C548 0.960 . S
H534 C548 0.960 . S
H535 C548 0.960 . S
C536 H528 0.929 . S
C536 C537 1.377 . S
C536 C538 1.384 . S
C537 C536 1.377 . S
C537 C543 1.390 . S
C538 H529 0.930 . S
C538 C536 1.384 . S
C538 C539 1.372 . S
C539 C538 1.372 . S
C539 C540 1.400 . S
C539 C544 1.490 . S
C540 H530 0.930 . S
C540 C539 1.400 . S
C540 C543 1.386 . S
H541 C557 0.930 . S
H542 C558 0.931 . S
C543 H531 0.929 . S
C543 C537 1.390 . S
C543 C540 1.386 . S
C544 C539 1.490 . S
C544 C546 1.395 . S
C544 C547 1.403 . S
H545 C551 0.930 . S
C546 H532 0.930 . S
C546 C544 1.395 . S
C546 C549 1.403 . S
C547 C544 1.403 . S
C547 C548 1.524 . S
C547 C551 1.400 . S
C548 H533 0.960 . S
C548 H534 0.960 . S
C548 H535 0.960 . S
C548 C547 1.524 . S
C549 C546 1.403 . S
C549 C550 1.392 . S
C549 C553 1.495 . S
C550 C549 1.392 . S
C550 C551 1.385 . S
C550 C552 1.478 . S
C551 H545 0.930 . S
C551 C547 1.400 . S
C551 C550 1.385 . S
C552 C550 1.478 . S
C552 C554 1.381 . S
C552 C558 1.383 . S
C553 C549 1.495 . S
C553 H559 0.959 . S
C553 H560 0.961 . S
C553 H561 0.960 . S
C554 C552 1.381 . S
C554 C555 1.394 . S
C554 H562 0.930 . S
C555 C554 1.394 . S
C555 C556 1.383 . S
C555 H563 0.929 . S
C556 C555 1.383 . S
C556 C557 1.377 . S
C557 H541 0.930 . S
C557 C556 1.377 . S
C557 C558 1.379 . S
C558 H542 0.931 . S
C558 C552 1.383 . S
C558 C557 1.379 . S
H559 C553 0.959 . S
H560 C553 0.961 . S
H561 C553 0.960 . S
H562 C554 0.930 . S
H563 C555 0.929 . S
H564 C572 0.929 . S
H565 C574 0.930 . S
H566 C576 0.930 . S
H567 C579 0.929 . S
H568 C582 0.930 . S
H569 C584 0.960 . S
H570 C584 0.960 . S
H571 C584 0.960 . S
C572 H564 0.929 . S
C572 C573 1.377 . S
C572 C574 1.384 . S
C573 C572 1.377 . S
C573 C579 1.390 . S
C574 H565 0.930 . S
C574 C572 1.384 . S
C574 C575 1.372 . S
C575 C574 1.372 . S
C575 C576 1.400 . S
C575 C580 1.490 . S
C576 H566 0.930 . S
C576 C575 1.400 . S
C576 C579 1.386 . S
H577 C593 0.930 . S
H578 C594 0.931 . S
C579 H567 0.929 . S
C579 C573 1.390 . S
C579 C576 1.386 . S
C580 C575 1.490 . S
C580 C582 1.395 . S
C580 C583 1.403 . S
H581 C587 0.930 . S
C582 H568 0.930 . S
C582 C580 1.395 . S
C582 C585 1.403 1_655 S
C583 C580 1.403 . S
C583 C584 1.524 . S
C583 C587 1.400 1_655 S
C584 H569 0.960 . S
C584 H570 0.960 . S
C584 H571 0.960 . S
C584 C583 1.524 . S
C585 C582 1.403 1_455 S
C585 C586 1.392 . S
C585 C589 1.495 . S
C586 C585 1.392 . S
C586 C587 1.385 . S
C586 C588 1.478 . S
C587 H581 0.930 . S
C587 C583 1.400 1_455 S
C587 C586 1.385 . S
C588 C586 1.478 . S
C588 C590 1.381 . S
C588 C594 1.383 . S
C589 C585 1.495 . S
C589 H595 0.959 . S
C589 H596 0.961 . S
C589 H597 0.960 . S
C590 C588 1.381 . S
C590 C591 1.394 . S
C590 H598 0.930 . S
C591 C590 1.394 . S
C591 C592 1.383 . S
C591 H599 0.929 . S
C592 C591 1.383 . S
C592 C593 1.377 . S
C593 H577 0.930 . S
C593 C592 1.377 . S
C593 C594 1.379 . S
C594 H578 0.931 . S
C594 C588 1.383 . S
C594 C593 1.379 . S
H595 C589 0.959 . S
H596 C589 0.961 . S
H597 C589 0.960 . S
H598 C590 0.930 . S
H599 C591 0.929 . S
H600 C608 0.929 . S
H601 C610 0.930 . S
H602 C612 0.930 . S
H603 C615 0.929 . S
H604 C618 0.930 . S
H605 C620 0.960 . S
H606 C620 0.960 . S
H607 C620 0.960 . S
C608 H600 0.929 . S
C608 C609 1.377 . S
C608 C610 1.384 . S
C609 C608 1.377 . S
C609 C615 1.390 . S
C610 H601 0.930 . S
C610 C608 1.384 . S
C610 C611 1.372 . S
C611 C610 1.372 . S
C611 C612 1.400 . S
C611 C616 1.490 . S
C612 H602 0.930 . S
C612 C611 1.400 . S
C612 C615 1.386 . S
H613 C629 0.930 . S
H614 C630 0.931 . S
C615 H603 0.929 . S
C615 C609 1.390 . S
C615 C612 1.386 . S
C616 C611 1.490 . S
C616 C618 1.395 . S
C616 C619 1.403 . S
H617 C623 0.930 . S
C618 H604 0.930 . S
C618 C616 1.395 . S
C618 C621 1.403 . S
C619 C616 1.403 . S
C619 C620 1.524 . S
C619 C623 1.400 . S
C620 H605 0.960 . S
C620 H606 0.960 . S
C620 H607 0.960 . S
C620 C619 1.524 . S
C621 C618 1.403 . S
C621 C622 1.392 . S
C621 C625 1.495 . S
C622 C621 1.392 . S
C622 C623 1.385 . S
C622 C624 1.478 . S
C623 H617 0.930 . S
C623 C619 1.400 . S
C623 C622 1.385 . S
C624 C622 1.478 . S
C624 C626 1.381 . S
C624 C630 1.383 . S
C625 C621 1.495 . S
C625 H631 0.959 . S
C625 H632 0.961 . S
C625 H633 0.960 . S
C626 C624 1.381 . S
C626 C627 1.394 . S
C626 H634 0.930 . S
C627 C626 1.394 . S
C627 C628 1.383 . S
C627 H635 0.929 . S
C628 C627 1.383 . S
C628 C629 1.377 . S
C629 H613 0.930 . S
C629 C628 1.377 . S
C629 C630 1.379 . S
C630 H614 0.931 . S
C630 C624 1.383 . S
C630 C629 1.379 . S
H631 C625 0.959 . S
H632 C625 0.961 . S
H633 C625 0.960 . S
H634 C626 0.930 . S
H635 C627 0.929 . S
H636 C644 0.929 . S
H637 C646 0.930 . S
H638 C648 0.930 . S
H639 C651 0.929 . S
H640 C654 0.930 . S
H641 C656 0.960 . S
H642 C656 0.960 . S
H643 C656 0.960 . S
C644 H636 0.929 . S
C644 C645 1.377 . S
C644 C646 1.384 . S
C645 C644 1.377 . S
C645 C651 1.390 . S
C646 H637 0.930 . S
C646 C644 1.384 . S
C646 C647 1.372 . S
C647 C646 1.372 . S
C647 C648 1.400 . S
C647 C652 1.490 . S
C648 H638 0.930 . S
C648 C647 1.400 . S
C648 C651 1.386 . S
H649 C665 0.930 . S
H650 C666 0.931 . S
C651 H639 0.929 . S
C651 C645 1.390 . S
C651 C648 1.386 . S
C652 C647 1.490 . S
C652 C654 1.395 . S
C652 C655 1.403 . S
H653 C659 0.930 . S
C654 H640 0.930 . S
C654 C652 1.395 . S
C654 C657 1.403 1_556 S
C655 C652 1.403 . S
C655 C656 1.524 . S
C655 C659 1.400 1_556 S
C656 H641 0.960 . S
C656 H642 0.960 . S
C656 H643 0.960 . S
C656 C655 1.524 . S
C657 C654 1.403 1_554 S
C657 C658 1.392 . S
C657 C661 1.495 . S
C658 C657 1.392 . S
C658 C659 1.385 . S
C658 C660 1.478 . S
C659 H653 0.930 . S
C659 C655 1.400 1_554 S
C659 C658 1.385 . S
C660 C658 1.478 . S
C660 C662 1.381 . S
C660 C666 1.383 . S
C661 C657 1.495 . S
C661 H667 0.959 . S
C661 H668 0.961 . S
C661 H669 0.960 . S
C662 C660 1.381 . S
C662 C663 1.394 . S
C662 H670 0.930 . S
C663 C662 1.394 . S
C663 C664 1.383 . S
C663 H671 0.929 . S
C664 C663 1.383 . S
C664 C665 1.377 . S
C665 H649 0.930 . S
C665 C664 1.377 . S
C665 C666 1.379 . S
C666 H650 0.931 . S
C666 C660 1.383 . S
C666 C665 1.379 . S
H667 C661 0.959 . S
H668 C661 0.961 . S
H669 C661 0.960 . S
H670 C662 0.930 . S
H671 C663 0.929 . S
H672 C680 0.929 . S
H673 C682 0.930 . S
H674 C684 0.930 . S
H675 C687 0.929 . S
H676 C690 0.930 . S
H677 C692 0.960 . S
H678 C692 0.960 . S
H679 C692 0.960 . S
C680 H672 0.929 . S
C680 C681 1.377 . S
C680 C682 1.384 . S
C681 C680 1.377 . S
C681 C687 1.390 . S
C682 H673 0.930 . S
C682 C680 1.384 . S
C682 C683 1.372 . S
C683 C682 1.372 . S
C683 C684 1.400 . S
C683 C688 1.490 . S
C684 H674 0.930 . S
C684 C683 1.400 . S
C684 C687 1.386 . S
H685 C701 0.930 . S
H686 C702 0.931 . S
C687 H675 0.929 . S
C687 C681 1.390 . S
C687 C684 1.386 . S
C688 C683 1.490 . S
C688 C690 1.395 . S
C688 C691 1.403 . S
H689 C695 0.930 . S
C690 H676 0.930 . S
C690 C688 1.395 . S
C690 C693 1.403 . S
C691 C688 1.403 . S
C691 C692 1.524 . S
C691 C695 1.400 . S
C692 H677 0.960 . S
C692 H678 0.960 . S
C692 H679 0.960 . S
C692 C691 1.524 . S
C693 C690 1.403 . S
C693 C694 1.392 . S
C693 C697 1.495 . S
C694 C693 1.392 . S
C694 C695 1.385 . S
C694 C696 1.478 . S
C695 H689 0.930 . S
C695 C691 1.400 . S
C695 C694 1.385 . S
C696 C694 1.478 . S
C696 C698 1.381 . S
C696 C702 1.383 . S
C697 C693 1.495 . S
C697 H703 0.959 . S
C697 H704 0.961 . S
C697 H705 0.960 . S
C698 C696 1.381 . S
C698 C699 1.394 . S
C698 H706 0.930 . S
C699 C698 1.394 . S
C699 C700 1.383 . S
C699 H707 0.929 . S
C700 C699 1.383 . S
C700 C701 1.377 . S
C701 H685 0.930 . S
C701 C700 1.377 . S
C701 C702 1.379 . S
C702 H686 0.931 . S
C702 C696 1.383 . S
C702 C701 1.379 . S
H703 C697 0.959 . S
H704 C697 0.961 . S
H705 C697 0.960 . S
H706 C698 0.930 . S
H707 C699 0.929 . S
H708 C716 0.929 . S
H709 C718 0.930 . S
H710 C720 0.930 . S
H711 C723 0.929 . S
H712 C726 0.930 . S
H713 C728 0.960 . S
H714 C728 0.960 . S
H715 C728 0.960 . S
C716 H708 0.929 . S
C716 C717 1.377 . S
C716 C718 1.384 . S
C717 C716 1.377 . S
C717 C723 1.390 . S
C718 H709 0.930 . S
C718 C716 1.384 . S
C718 C719 1.372 . S
C719 C718 1.372 . S
C719 C720 1.400 . S
C719 C724 1.490 . S
C720 H710 0.930 . S
C720 C719 1.400 . S
C720 C723 1.386 . S
H721 C737 0.930 . S
H722 C738 0.931 . S
C723 H711 0.929 . S
C723 C717 1.390 . S
C723 C720 1.386 . S
C724 C719 1.490 . S
C724 C726 1.395 . S
C724 C727 1.403 . S
H725 C731 0.930 . S
C726 H712 0.930 . S
C726 C724 1.395 . S
C726 C729 1.403 1_554 S
C727 C724 1.403 . S
C727 C728 1.524 . S
C727 C731 1.400 1_554 S
C728 H713 0.960 . S
C728 H714 0.960 . S
C728 H715 0.960 . S
C728 C727 1.524 . S
C729 C726 1.403 1_556 S
C729 C730 1.392 . S
C729 C733 1.495 . S
C730 C729 1.392 . S
C730 C731 1.385 . S
C730 C732 1.478 . S
C731 H725 0.930 . S
C731 C727 1.400 1_556 S
C731 C730 1.385 . S
C732 C730 1.478 . S
C732 C734 1.381 . S
C732 C738 1.383 . S
C733 C729 1.495 . S
C733 H739 0.959 . S
C733 H740 0.961 . S
C733 H741 0.960 . S
C734 C732 1.381 . S
C734 C735 1.394 . S
C734 H742 0.930 . S
C735 C734 1.394 . S
C735 C736 1.383 . S
C735 H743 0.929 . S
C736 C735 1.383 . S
C736 C737 1.377 . S
C737 H721 0.930 . S
C737 C736 1.377 . S
C737 C738 1.379 . S
C738 H722 0.931 . S
C738 C732 1.383 . S
C738 C737 1.379 . S
H739 C733 0.959 . S
H740 C733 0.961 . S
H741 C733 0.960 . S
H742 C734 0.930 . S
H743 C735 0.929 . S
H744 C752 0.929 . S
H745 C754 0.930 . S
H746 C756 0.930 . S
H747 C759 0.929 . S
H748 C762 0.930 . S
H749 C764 0.960 . S
H750 C764 0.960 . S
H751 C764 0.960 . S
C752 H744 0.929 . S
C752 C753 1.377 . S
C752 C754 1.384 . S
C753 C752 1.377 . S
C753 C759 1.390 . S
C754 H745 0.930 . S
C754 C752 1.384 . S
C754 C755 1.372 . S
C755 C754 1.372 . S
C755 C756 1.400 . S
C755 C760 1.490 . S
C756 H746 0.930 . S
C756 C755 1.400 . S
C756 C759 1.386 . S
H757 C773 0.930 . S
H758 C774 0.931 . S
C759 H747 0.929 . S
C759 C753 1.390 . S
C759 C756 1.386 . S
C760 C755 1.490 . S
C760 C762 1.395 . S
C760 C763 1.403 . S
H761 C767 0.930 . S
C762 H748 0.930 . S
C762 C760 1.395 . S
C762 C765 1.403 . S
C763 C760 1.403 . S
C763 C764 1.524 . S
C763 C767 1.400 . S
C764 H749 0.960 . S
C764 H750 0.960 . S
C764 H751 0.960 . S
C764 C763 1.524 . S
C765 C762 1.403 . S
C765 C766 1.392 . S
C765 C769 1.495 . S
C766 C765 1.392 . S
C766 C767 1.385 . S
C766 C768 1.478 . S
C767 H761 0.930 . S
C767 C763 1.400 . S
C767 C766 1.385 . S
C768 C766 1.478 . S
C768 C770 1.381 . S
C768 C774 1.383 . S
C769 C765 1.495 . S
C769 H775 0.959 . S
C769 H776 0.961 . S
C769 H777 0.960 . S
C770 C768 1.381 . S
C770 C771 1.394 . S
C770 H778 0.930 . S
C771 C770 1.394 . S
C771 C772 1.383 . S
C771 H779 0.929 . S
C772 C771 1.383 . S
C772 C773 1.377 . S
C773 H757 0.930 . S
C773 C772 1.377 . S
C773 C774 1.379 . S
C774 H758 0.931 . S
C774 C768 1.383 . S
C774 C773 1.379 . S
H775 C769 0.959 . S
H776 C769 0.961 . S
H777 C769 0.960 . S
H778 C770 0.930 . S
H779 C771 0.929 . S
H780 C788 0.929 . S
H781 C790 0.930 . S
H782 C792 0.930 . S
H783 C795 0.929 . S
H784 C798 0.930 . S
H785 C800 0.960 . S
H786 C800 0.960 . S
H787 C800 0.960 . S
C788 H780 0.929 . S
C788 C789 1.377 . S
C788 C790 1.384 . S
C789 C788 1.377 . S
C789 C795 1.390 . S
C790 H781 0.930 . S
C790 C788 1.384 . S
C790 C791 1.372 . S
C791 C790 1.372 . S
C791 C792 1.400 . S
C791 C796 1.490 . S
C792 H782 0.930 . S
C792 C791 1.400 . S
C792 C795 1.386 . S
H793 C809 0.930 . S
H794 C810 0.931 . S
C795 H783 0.929 . S
C795 C789 1.390 . S
C795 C792 1.386 . S
C796 C791 1.490 . S
C796 C798 1.395 . S
C796 C799 1.403 . S
H797 C803 0.930 . S
C798 H784 0.930 . S
C798 C796 1.395 . S
C798 C801 1.403 1_554 S
C799 C796 1.403 . S
C799 C800 1.524 . S
C799 C803 1.400 1_554 S
C800 H785 0.960 . S
C800 H786 0.960 . S
C800 H787 0.960 . S
C800 C799 1.524 . S
C801 C798 1.403 1_556 S
C801 C802 1.392 . S
C801 C805 1.495 . S
C802 C801 1.392 . S
C802 C803 1.385 . S
C802 C804 1.478 . S
C803 H797 0.930 . S
C803 C799 1.400 1_556 S
C803 C802 1.385 . S
C804 C802 1.478 . S
C804 C806 1.381 . S
C804 C810 1.383 . S
C805 C801 1.495 . S
C805 H811 0.959 . S
C805 H812 0.961 . S
C805 H813 0.960 . S
C806 C804 1.381 . S
C806 C807 1.394 . S
C806 H814 0.930 . S
C807 C806 1.394 . S
C807 C808 1.383 . S
C807 H815 0.929 . S
C808 C807 1.383 . S
C808 C809 1.377 . S
C809 H793 0.930 . S
C809 C808 1.377 . S
C809 C810 1.379 . S
C810 H794 0.931 . S
C810 C804 1.383 . S
C810 C809 1.379 . S
H811 C805 0.959 . S
H812 C805 0.961 . S
H813 C805 0.960 . S
H814 C806 0.930 . S
H815 C807 0.929 . S
H816 C824 0.929 . S
H817 C826 0.930 . S
H818 C828 0.930 . S
H819 C831 0.929 . S
H820 C834 0.930 . S
H821 C836 0.960 . S
H822 C836 0.960 . S
H823 C836 0.960 . S
C824 H816 0.929 . S
C824 C825 1.377 . S
C824 C826 1.384 . S
C825 C824 1.377 . S
C825 C831 1.390 . S
C826 H817 0.930 . S
C826 C824 1.384 . S
C826 C827 1.372 . S
C827 C826 1.372 . S
C827 C828 1.400 . S
C827 C832 1.490 . S
C828 H818 0.930 . S
C828 C827 1.400 . S
C828 C831 1.386 . S
H829 C845 0.930 . S
H830 C846 0.931 . S
C831 H819 0.929 . S
C831 C825 1.390 . S
C831 C828 1.386 . S
C832 C827 1.490 . S
C832 C834 1.395 . S
C832 C835 1.403 . S
H833 C839 0.930 . S
C834 H820 0.930 . S
C834 C832 1.395 . S
C834 C837 1.403 . S
C835 C832 1.403 . S
C835 C836 1.524 . S
C835 C839 1.400 . S
C836 H821 0.960 . S
C836 H822 0.960 . S
C836 H823 0.960 . S
C836 C835 1.524 . S
C837 C834 1.403 . S
C837 C838 1.392 . S
C837 C841 1.495 . S
C838 C837 1.392 . S
C838 C839 1.385 . S
C838 C840 1.478 . S
C839 H833 0.930 . S
C839 C835 1.400 . S
C839 C838 1.385 . S
C840 C838 1.478 . S
C840 C842 1.381 . S
C840 C846 1.383 . S
C841 C837 1.495 . S
C841 H847 0.959 . S
C841 H848 0.961 . S
C841 H849 0.960 . S
C842 C840 1.381 . S
C842 C843 1.394 . S
C842 H850 0.930 . S
C843 C842 1.394 . S
C843 C844 1.383 . S
C843 H851 0.929 . S
C844 C843 1.383 . S
C844 C845 1.377 . S
C845 H829 0.930 . S
C845 C844 1.377 . S
C845 C846 1.379 . S
C846 H830 0.931 . S
C846 C840 1.383 . S
C846 C845 1.379 . S
H847 C841 0.959 . S
H848 C841 0.961 . S
H849 C841 0.960 . S
H850 C842 0.930 . S
H851 C843 0.929 . S
H852 C860 0.929 . S
H853 C862 0.930 . S
H854 C864 0.930 . S
H855 C867 0.929 . S
H856 C870 0.930 . S
H857 C872 0.960 . S
H858 C872 0.960 . S
H859 C872 0.960 . S
C860 H852 0.929 . S
C860 C861 1.377 . S
C860 C862 1.384 . S
C861 C860 1.377 . S
C861 C867 1.390 . S
C862 H853 0.930 . S
C862 C860 1.384 . S
C862 C863 1.372 . S
C863 C862 1.372 . S
C863 C864 1.400 . S
C863 C868 1.490 . S
C864 H854 0.930 . S
C864 C863 1.400 . S
C864 C867 1.386 . S
H865 C881 0.930 . S
H866 C882 0.931 . S
C867 H855 0.929 . S
C867 C861 1.390 . S
C867 C864 1.386 . S
C868 C863 1.490 . S
C868 C870 1.395 . S
C868 C871 1.403 . S
H869 C875 0.930 . S
C870 H856 0.930 . S
C870 C868 1.395 . S
C870 C873 1.403 1_554 S
C871 C868 1.403 . S
C871 C872 1.524 . S
C871 C875 1.400 1_554 S
C872 H857 0.960 . S
C872 H858 0.960 . S
C872 H859 0.960 . S
C872 C871 1.524 . S
C873 C870 1.403 1_556 S
C873 C874 1.392 . S
C873 C877 1.495 . S
C874 C873 1.392 . S
C874 C875 1.385 . S
C874 C876 1.478 . S
C875 H869 0.930 . S
C875 C871 1.400 1_556 S
C875 C874 1.385 . S
C876 C874 1.478 . S
C876 C878 1.381 . S
C876 C882 1.383 . S
C877 C873 1.495 . S
C877 H883 0.959 . S
C877 H884 0.961 . S
C877 H885 0.960 . S
C878 C876 1.381 . S
C878 C879 1.394 . S
C878 H886 0.930 . S
C879 C878 1.394 . S
C879 C880 1.383 . S
C879 H887 0.929 . S
C880 C879 1.383 . S
C880 C881 1.377 . S
C881 H865 0.930 . S
C881 C880 1.377 . S
C881 C882 1.379 . S
C882 H866 0.931 . S
C882 C876 1.383 . S
C882 C881 1.379 . S
H883 C877 0.959 . S
H884 C877 0.961 . S
H885 C877 0.960 . S
H886 C878 0.930 . S
H887 C879 0.929 . S
H888 C896 0.929 . S
H889 C898 0.930 . S
H890 C900 0.930 . S
H891 C903 0.929 . S
H892 C906 0.930 . S
H893 C908 0.960 . S
H894 C908 0.960 . S
H895 C908 0.960 . S
C896 H888 0.929 . S
C896 C897 1.377 . S
C896 C898 1.384 . S
C897 C896 1.377 . S
C897 C903 1.390 . S
C898 H889 0.930 . S
C898 C896 1.384 . S
C898 C899 1.372 . S
C899 C898 1.372 . S
C899 C900 1.400 . S
C899 C904 1.490 . S
C900 H890 0.930 . S
C900 C899 1.400 . S
C900 C903 1.386 . S
H901 C917 0.930 . S
H902 C918 0.931 . S
C903 H891 0.929 . S
C903 C897 1.390 . S
C903 C900 1.386 . S
C904 C899 1.490 . S
C904 C906 1.395 . S
C904 C907 1.403 . S
H905 C911 0.930 . S
C906 H892 0.930 . S
C906 C904 1.395 . S
C906 C909 1.403 . S
C907 C904 1.403 . S
C907 C908 1.524 . S
C907 C911 1.400 . S
C908 H893 0.960 . S
C908 H894 0.960 . S
C908 H895 0.960 . S
C908 C907 1.524 . S
C909 C906 1.403 . S
C909 C910 1.392 . S
C909 C913 1.495 . S
C910 C909 1.392 . S
C910 C911 1.385 . S
C910 C912 1.478 . S
C911 H905 0.930 . S
C911 C907 1.400 . S
C911 C910 1.385 . S
C912 C910 1.478 . S
C912 C914 1.381 . S
C912 C918 1.383 . S
C913 C909 1.495 . S
C913 H919 0.959 . S
C913 H920 0.961 . S
C913 H921 0.960 . S
C914 C912 1.381 . S
C914 C915 1.394 . S
C914 H922 0.930 . S
C915 C914 1.394 . S
C915 C916 1.383 . S
C915 H923 0.929 . S
C916 C915 1.383 . S
C916 C917 1.377 . S
C917 H901 0.930 . S
C917 C916 1.377 . S
C917 C918 1.379 . S
C918 H902 0.931 . S
C918 C912 1.383 . S
C918 C917 1.379 . S
H919 C913 0.959 . S
H920 C913 0.961 . S
H921 C913 0.960 . S
H922 C914 0.930 . S
H923 C915 0.929 . S
H924 C932 0.929 . S
H925 C934 0.930 . S
H926 C936 0.930 . S
H927 C939 0.929 . S
H928 C942 0.930 . S
H929 C944 0.960 . S
H930 C944 0.960 . S
H931 C944 0.960 . S
C932 H924 0.929 . S
C932 C933 1.377 . S
C932 C934 1.384 . S
C933 C932 1.377 . S
C933 C939 1.390 . S
C934 H925 0.930 . S
C934 C932 1.384 . S
C934 C935 1.372 . S
C935 C934 1.372 . S
C935 C936 1.400 . S
C935 C940 1.490 . S
C936 H926 0.930 . S
C936 C935 1.400 . S
C936 C939 1.386 . S
H937 C953 0.930 . S
H938 C954 0.931 . S
C939 H927 0.929 . S
C939 C933 1.390 . S
C939 C936 1.386 . S
C940 C935 1.490 . S
C940 C942 1.395 . S
C940 C943 1.403 . S
H941 C947 0.930 . S
C942 H928 0.930 . S
C942 C940 1.395 . S
C942 C945 1.403 . S
C943 C940 1.403 . S
C943 C944 1.524 . S
C943 C947 1.400 . S
C944 H929 0.960 . S
C944 H930 0.960 . S
C944 H931 0.960 . S
C944 C943 1.524 . S
C945 C942 1.403 . S
C945 C946 1.392 . S
C945 C949 1.495 . S
C946 C945 1.392 . S
C946 C947 1.385 . S
C946 C948 1.478 . S
C947 H941 0.930 . S
C947 C943 1.400 . S
C947 C946 1.385 . S
C948 C946 1.478 . S
C948 C950 1.381 . S
C948 C954 1.383 . S
C949 C945 1.495 . S
C949 H955 0.959 . S
C949 H956 0.961 . S
C949 H957 0.960 . S
C950 C948 1.381 . S
C950 C951 1.394 . S
C950 H958 0.930 . S
C951 C950 1.394 . S
C951 C952 1.383 . S
C951 H959 0.929 . S
C952 C951 1.383 . S
C952 C953 1.377 . S
C953 H937 0.930 . S
C953 C952 1.377 . S
C953 C954 1.379 . S
C954 H938 0.931 . S
C954 C948 1.383 . S
C954 C953 1.379 . S
H955 C949 0.959 . S
H956 C949 0.961 . S
H957 C949 0.960 . S
H958 C950 0.930 . S
H959 C951 0.929 . S
H960 C968 0.929 . S
H961 C970 0.930 . S
H962 C972 0.930 . S
H963 C975 0.929 . S
H964 C978 0.930 . S
H965 C980 0.960 . S
H966 C980 0.960 . S
H967 C980 0.960 . S
C968 H960 0.929 . S
C968 C969 1.377 . S
C968 C970 1.384 . S
C969 C968 1.377 . S
C969 C975 1.390 . S
C970 H961 0.930 . S
C970 C968 1.384 . S
C970 C971 1.372 . S
C971 C970 1.372 . S
C971 C972 1.400 . S
C971 C976 1.490 . S
C972 H962 0.930 . S
C972 C971 1.400 . S
C972 C975 1.386 . S
H973 C989 0.930 . S
H974 C990 0.931 . S
C975 H963 0.929 . S
C975 C969 1.390 . S
C975 C972 1.386 . S
C976 C971 1.490 . S
C976 C978 1.395 . S
C976 C979 1.403 . S
H977 C983 0.930 . S
C978 H964 0.930 . S
C978 C976 1.395 . S
C978 C981 1.403 1_565 S
C979 C976 1.403 . S
C979 C980 1.524 . S
C979 C983 1.400 1_565 S
C980 H965 0.960 . S
C980 H966 0.960 . S
C980 H967 0.960 . S
C980 C979 1.524 . S
C981 C978 1.403 1_545 S
C981 C982 1.392 . S
C981 C985 1.495 . S
C982 C981 1.392 . S
C982 C983 1.385 . S
C982 C984 1.478 . S
C983 H977 0.930 . S
C983 C979 1.400 1_545 S
C983 C982 1.385 . S
C984 C982 1.478 . S
C984 C986 1.381 . S
C984 C990 1.383 . S
C985 C981 1.495 . S
C985 H991 0.959 . S
C985 H992 0.961 . S
C985 H993 0.960 . S
C986 C984 1.381 . S
C986 C987 1.394 . S
C986 H994 0.930 . S
C987 C986 1.394 . S
C987 C988 1.383 . S
C987 H995 0.929 . S
C988 C987 1.383 . S
C988 C989 1.377 . S
C989 H973 0.930 . S
C989 C988 1.377 . S
C989 C990 1.379 . S
C990 H974 0.931 . S
C990 C984 1.383 . S
C990 C989 1.379 . S
H991 C985 0.959 . S
H992 C985 0.961 . S
H993 C985 0.960 . S
H994 C986 0.930 . S
H995 C987 0.929 . S
H996 C1004 0.929 . S
H997 C1006 0.930 . S
H998 C1008 0.930 . S
H999 C1011 0.929 . S
H1000 C1014 0.930 . S
H1001 C1016 0.960 . S
H1002 C1016 0.960 . S
H1003 C1016 0.960 . S
C1004 H996 0.929 . S
C1004 C1005 1.377 . S
C1004 C1006 1.384 . S
C1005 C1004 1.377 . S
C1005 C1011 1.390 . S
C1006 H997 0.930 . S
C1006 C1004 1.384 . S
C1006 C1007 1.372 . S
C1007 C1006 1.372 . S
C1007 C1008 1.400 . S
C1007 C1012 1.490 . S
C1008 H998 0.930 . S
C1008 C1007 1.400 . S
C1008 C1011 1.386 . S
H1009 C1025 0.930 . S
H1010 C1026 0.931 . S
C1011 H999 0.929 . S
C1011 C1005 1.390 . S
C1011 C1008 1.386 . S
C1012 C1007 1.490 . S
C1012 C1014 1.395 . S
C1012 C1015 1.403 . S
H1013 C1019 0.930 . S
C1014 H1000 0.930 . S
C1014 C1012 1.395 . S
C1014 C1017 1.403 . S
C1015 C1012 1.403 . S
C1015 C1016 1.524 . S
C1015 C1019 1.400 . S
C1016 H1001 0.960 . S
C1016 H1002 0.960 . S
C1016 H1003 0.960 . S
C1016 C1015 1.524 . S
C1017 C1014 1.403 . S
C1017 C1018 1.392 . S
C1017 C1021 1.495 . S
C1018 C1017 1.392 . S
C1018 C1019 1.385 . S
C1018 C1020 1.478 . S
C1019 H1013 0.930 . S
C1019 C1015 1.400 . S
C1019 C1018 1.385 . S
C1020 C1018 1.478 . S
C1020 C1022 1.381 . S
C1020 C1026 1.383 . S
C1021 C1017 1.495 . S
C1021 H1027 0.959 . S
C1021 H1028 0.961 . S
C1021 H1029 0.960 . S
C1022 C1020 1.381 . S
C1022 C1023 1.394 . S
C1022 H1030 0.930 . S
C1023 C1022 1.394 . S
C1023 C1024 1.383 . S
C1023 H1031 0.929 . S
C1024 C1023 1.383 . S
C1024 C1025 1.377 . S
C1025 H1009 0.930 . S
C1025 C1024 1.377 . S
C1025 C1026 1.379 . S
C1026 H1010 0.931 . S
C1026 C1020 1.383 . S
C1026 C1025 1.379 . S
H1027 C1021 0.959 . S
H1028 C1021 0.961 . S
H1029 C1021 0.960 . S
H1030 C1022 0.930 . S
H1031 C1023 0.929 . S
H1032 C1040 0.929 . S
H1033 C1042 0.930 . S
H1034 C1044 0.930 . S
H1035 C1047 0.929 . S
H1036 C1050 0.930 . S
H1037 C1052 0.960 . S
H1038 C1052 0.960 . S
H1039 C1052 0.960 . S
C1040 H1032 0.929 . S
C1040 C1041 1.377 . S
C1040 C1042 1.384 . S
C1041 C1040 1.377 . S
C1041 C1047 1.390 . S
C1042 H1033 0.930 . S
C1042 C1040 1.384 . S
C1042 C1043 1.372 . S
C1043 C1042 1.372 . S
C1043 C1044 1.400 . S
C1043 C1048 1.490 . S
C1044 H1034 0.930 . S
C1044 C1043 1.400 . S
C1044 C1047 1.386 . S
H1045 C1061 0.930 . S
H1046 C1062 0.931 . S
C1047 H1035 0.929 . S
C1047 C1041 1.390 . S
C1047 C1044 1.386 . S
C1048 C1043 1.490 . S
C1048 C1050 1.395 . S
C1048 C1051 1.403 . S
H1049 C1055 0.930 . S
C1050 H1036 0.930 . S
C1050 C1048 1.395 . S
C1050 C1053 1.403 1_565 S
C1051 C1048 1.403 . S
C1051 C1052 1.524 . S
C1051 C1055 1.400 1_565 S
C1052 H1037 0.960 . S
C1052 H1038 0.960 . S
C1052 H1039 0.960 . S
C1052 C1051 1.524 . S
C1053 C1050 1.403 1_545 S
C1053 C1054 1.392 . S
C1053 C1057 1.495 . S
C1054 C1053 1.392 . S
C1054 C1055 1.385 . S
C1054 C1056 1.478 . S
C1055 H1049 0.930 . S
C1055 C1051 1.400 1_545 S
C1055 C1054 1.385 . S
C1056 C1054 1.478 . S
C1056 C1058 1.381 . S
C1056 C1062 1.383 . S
C1057 C1053 1.495 . S
C1057 H1063 0.959 . S
C1057 H1064 0.961 . S
C1057 H1065 0.960 . S
C1058 C1056 1.381 . S
C1058 C1059 1.394 . S
C1058 H1066 0.930 . S
C1059 C1058 1.394 . S
C1059 C1060 1.383 . S
C1059 H1067 0.929 . S
C1060 C1059 1.383 . S
C1060 C1061 1.377 . S
C1061 H1045 0.930 . S
C1061 C1060 1.377 . S
C1061 C1062 1.379 . S
C1062 H1046 0.931 . S
C1062 C1056 1.383 . S
C1062 C1061 1.379 . S
H1063 C1057 0.959 . S
H1064 C1057 0.961 . S
H1065 C1057 0.960 . S
H1066 C1058 0.930 . S
H1067 C1059 0.929 . S
H1068 C1076 0.929 . S
H1069 C1078 0.930 . S
H1070 C1080 0.930 . S
H1071 C1083 0.929 . S
H1072 C1086 0.930 . S
H1073 C1088 0.960 . S
H1074 C1088 0.960 . S
H1075 C1088 0.960 . S
C1076 H1068 0.929 . S
C1076 C1077 1.377 . S
C1076 C1078 1.384 . S
C1077 C1076 1.377 . S
C1077 C1083 1.390 . S
C1078 H1069 0.930 . S
C1078 C1076 1.384 . S
C1078 C1079 1.372 . S
C1079 C1078 1.372 . S
C1079 C1080 1.400 . S
C1079 C1084 1.490 . S
C1080 H1070 0.930 . S
C1080 C1079 1.400 . S
C1080 C1083 1.386 . S
H1081 C1097 0.930 . S
H1082 C1098 0.931 . S
C1083 H1071 0.929 . S
C1083 C1077 1.390 . S
C1083 C1080 1.386 . S
C1084 C1079 1.490 . S
C1084 C1086 1.395 . S
C1084 C1087 1.403 . S
H1085 C1091 0.930 . S
C1086 H1072 0.930 . S
C1086 C1084 1.395 . S
C1086 C1089 1.403 . S
C1087 C1084 1.403 . S
C1087 C1088 1.524 . S
C1087 C1091 1.400 . S
C1088 H1073 0.960 . S
C1088 H1074 0.960 . S
C1088 H1075 0.960 . S
C1088 C1087 1.524 . S
C1089 C1086 1.403 . S
C1089 C1090 1.392 . S
C1089 C1093 1.495 . S
C1090 C1089 1.392 . S
C1090 C1091 1.385 . S
C1090 C1092 1.478 . S
C1091 H1085 0.930 . S
C1091 C1087 1.400 . S
C1091 C1090 1.385 . S
C1092 C1090 1.478 . S
C1092 C1094 1.381 . S
C1092 C1098 1.383 . S
C1093 C1089 1.495 . S
C1093 H1099 0.959 . S
C1093 H1100 0.961 . S
C1093 H1101 0.960 . S
C1094 C1092 1.381 . S
C1094 C1095 1.394 . S
C1094 H1102 0.930 . S
C1095 C1094 1.394 . S
C1095 C1096 1.383 . S
C1095 H1103 0.929 . S
C1096 C1095 1.383 . S
C1096 C1097 1.377 . S
C1097 H1081 0.930 . S
C1097 C1096 1.377 . S
C1097 C1098 1.379 . S
C1098 H1082 0.931 . S
C1098 C1092 1.383 . S
C1098 C1097 1.379 . S
H1099 C1093 0.959 . S
H1100 C1093 0.961 . S
H1101 C1093 0.960 . S
H1102 C1094 0.930 . S
H1103 C1095 0.929 . S
H1104 C1112 0.929 . S
H1105 C1114 0.930 . S
H1106 C1116 0.930 . S
H1107 C1119 0.929 . S
H1108 C1122 0.930 . S
H1109 C1124 0.960 . S
H1110 C1124 0.960 . S
H1111 C1124 0.960 . S
C1112 H1104 0.929 . S
C1112 C1113 1.377 . S
C1112 C1114 1.384 . S
C1113 C1112 1.377 . S
C1113 C1119 1.390 . S
C1114 H1105 0.930 . S
C1114 C1112 1.384 . S
C1114 C1115 1.372 . S
C1115 C1114 1.372 . S
C1115 C1116 1.400 . S
C1115 C1120 1.490 . S
C1116 H1106 0.930 . S
C1116 C1115 1.400 . S
C1116 C1119 1.386 . S
H1117 C1133 0.930 . S
H1118 C1134 0.931 . S
C1119 H1107 0.929 . S
C1119 C1113 1.390 . S
C1119 C1116 1.386 . S
C1120 C1115 1.490 . S
C1120 C1122 1.395 . S
C1120 C1123 1.403 . S
H1121 C1127 0.930 . S
C1122 H1108 0.930 . S
C1122 C1120 1.395 . S
C1122 C1125 1.403 1_565 S
C1123 C1120 1.403 . S
C1123 C1124 1.524 . S
C1123 C1127 1.400 1_565 S
C1124 H1109 0.960 . S
C1124 H1110 0.960 . S
C1124 H1111 0.960 . S
C1124 C1123 1.524 . S
C1125 C1122 1.403 1_545 S
C1125 C1126 1.392 . S
C1125 C1129 1.495 . S
C1126 C1125 1.392 . S
C1126 C1127 1.385 . S
C1126 C1128 1.478 . S
C1127 H1121 0.930 . S
C1127 C1123 1.400 1_545 S
C1127 C1126 1.385 . S
C1128 C1126 1.478 . S
C1128 C1130 1.381 . S
C1128 C1134 1.383 . S
C1129 C1125 1.495 . S
C1129 H1135 0.959 . S
C1129 H1136 0.961 . S
C1129 H1137 0.960 . S
C1130 C1128 1.381 . S
C1130 C1131 1.394 . S
C1130 H1138 0.930 . S
C1131 C1130 1.394 . S
C1131 C1132 1.383 . S
C1131 H1139 0.929 . S
C1132 C1131 1.383 . S
C1132 C1133 1.377 . S
C1133 H1117 0.930 . S
C1133 C1132 1.377 . S
C1133 C1134 1.379 . S
C1134 H1118 0.931 . S
C1134 C1128 1.383 . S
C1134 C1133 1.379 . S
H1135 C1129 0.959 . S
H1136 C1129 0.961 . S
H1137 C1129 0.960 . S
H1138 C1130 0.930 . S
H1139 C1131 0.929 . S
H1140 C1148 0.929 . S
H1141 C1150 0.930 . S
H1142 C1152 0.930 . S
H1143 C1155 0.929 . S
H1144 C1158 0.930 . S
H1145 C1160 0.960 . S
H1146 C1160 0.960 . S
H1147 C1160 0.960 . S
C1148 H1140 0.929 . S
C1148 C1149 1.377 . S
C1148 C1150 1.384 . S
C1149 C1148 1.377 . S
C1149 C1155 1.390 . S
C1150 H1141 0.930 . S
C1150 C1148 1.384 . S
C1150 C1151 1.372 . S
C1151 C1150 1.372 . S
C1151 C1152 1.400 . S
C1151 C1156 1.490 . S
C1152 H1142 0.930 . S
C1152 C1151 1.400 . S
C1152 C1155 1.386 . S
H1153 C1169 0.930 . S
H1154 C1170 0.931 . S
C1155 H1143 0.929 . S
C1155 C1149 1.390 . S
C1155 C1152 1.386 . S
C1156 C1151 1.490 . S
C1156 C1158 1.395 . S
C1156 C1159 1.403 . S
H1157 C1163 0.930 . S
C1158 H1144 0.930 . S
C1158 C1156 1.395 . S
C1158 C1161 1.403 1_545 S
C1159 C1156 1.403 . S
C1159 C1160 1.524 . S
C1159 C1163 1.400 1_545 S
C1160 H1145 0.960 . S
C1160 H1146 0.960 . S
C1160 H1147 0.960 . S
C1160 C1159 1.524 . S
C1161 C1158 1.403 1_565 S
C1161 C1162 1.392 . S
C1161 C1165 1.495 . S
C1162 C1161 1.392 . S
C1162 C1163 1.385 . S
C1162 C1164 1.478 . S
C1163 H1157 0.930 . S
C1163 C1159 1.400 1_565 S
C1163 C1162 1.385 . S
C1164 C1162 1.478 . S
C1164 C1166 1.381 . S
C1164 C1170 1.383 . S
C1165 C1161 1.495 . S
C1165 H1171 0.959 . S
C1165 H1172 0.961 . S
C1165 H1173 0.960 . S
C1166 C1164 1.381 . S
C1166 C1167 1.394 . S
C1166 H1174 0.930 . S
C1167 C1166 1.394 . S
C1167 C1168 1.383 . S
C1167 H1175 0.929 . S
C1168 C1167 1.383 . S
C1168 C1169 1.377 . S
C1169 H1153 0.930 . S
C1169 C1168 1.377 . S
C1169 C1170 1.379 . S
C1170 H1154 0.931 . S
C1170 C1164 1.383 . S
C1170 C1169 1.379 . S
H1171 C1165 0.959 . S
H1172 C1165 0.961 . S
H1173 C1165 0.960 . S
H1174 C1166 0.930 . S
H1175 C1167 0.929 . S
H1176 C1184 0.929 . S
H1177 C1186 0.930 . S
H1178 C1188 0.930 . S
H1179 C1191 0.929 . S
H1180 C1194 0.930 . S
H1181 C1196 0.960 . S
H1182 C1196 0.960 . S
H1183 C1196 0.960 . S
C1184 H1176 0.929 . S
C1184 C1185 1.377 . S
C1184 C1186 1.384 . S
C1185 C1184 1.377 . S
C1185 C1191 1.390 . S
C1186 H1177 0.930 . S
C1186 C1184 1.384 . S
C1186 C1187 1.372 . S
C1187 C1186 1.372 . S
C1187 C1188 1.400 . S
C1187 C1192 1.490 . S
C1188 H1178 0.930 . S
C1188 C1187 1.400 . S
C1188 C1191 1.386 . S
H1189 C1205 0.930 . S
H1190 C1206 0.931 . S
C1191 H1179 0.929 . S
C1191 C1185 1.390 . S
C1191 C1188 1.386 . S
C1192 C1187 1.490 . S
C1192 C1194 1.395 . S
C1192 C1195 1.403 . S
H1193 C1199 0.930 . S
C1194 H1180 0.930 . S
C1194 C1192 1.395 . S
C1194 C1197 1.403 . S
C1195 C1192 1.403 . S
C1195 C1196 1.524 . S
C1195 C1199 1.400 . S
C1196 H1181 0.960 . S
C1196 H1182 0.960 . S
C1196 H1183 0.960 . S
C1196 C1195 1.524 . S
C1197 C1194 1.403 . S
C1197 C1198 1.392 . S
C1197 C1201 1.495 . S
C1198 C1197 1.392 . S
C1198 C1199 1.385 . S
C1198 C1200 1.478 . S
C1199 H1193 0.930 . S
C1199 C1195 1.400 . S
C1199 C1198 1.385 . S
C1200 C1198 1.478 . S
C1200 C1202 1.381 . S
C1200 C1206 1.383 . S
C1201 C1197 1.495 . S
C1201 H1207 0.959 . S
C1201 H1208 0.961 . S
C1201 H1209 0.960 . S
C1202 C1200 1.381 . S
C1202 C1203 1.394 . S
C1202 H1210 0.930 . S
C1203 C1202 1.394 . S
C1203 C1204 1.383 . S
C1203 H1211 0.929 . S
C1204 C1203 1.383 . S
C1204 C1205 1.377 . S
C1205 H1189 0.930 . S
C1205 C1204 1.377 . S
C1205 C1206 1.379 . S
C1206 H1190 0.931 . S
C1206 C1200 1.383 . S
C1206 C1205 1.379 . S
H1207 C1201 0.959 . S
H1208 C1201 0.961 . S
H1209 C1201 0.960 . S
H1210 C1202 0.930 . S
H1211 C1203 0.929 . S
H1212 C1220 0.929 . S
H1213 C1222 0.930 . S
H1214 C1224 0.930 . S
H1215 C1227 0.929 . S
H1216 C1230 0.930 . S
H1217 C1232 0.960 . S
H1218 C1232 0.960 . S
H1219 C1232 0.960 . S
C1220 H1212 0.929 . S
C1220 C1221 1.377 . S
C1220 C1222 1.384 . S
C1221 C1220 1.377 . S
C1221 C1227 1.390 . S
C1222 H1213 0.930 . S
C1222 C1220 1.384 . S
C1222 C1223 1.372 . S
C1223 C1222 1.372 . S
C1223 C1224 1.400 . S
C1223 C1228 1.490 . S
C1224 H1214 0.930 . S
C1224 C1223 1.400 . S
C1224 C1227 1.386 . S
H1225 C1241 0.930 . S
H1226 C1242 0.931 . S
C1227 H1215 0.929 . S
C1227 C1221 1.390 . S
C1227 C1224 1.386 . S
C1228 C1223 1.490 . S
C1228 C1230 1.395 . S
C1228 C1231 1.403 . S
H1229 C1235 0.930 . S
C1230 H1216 0.930 . S
C1230 C1228 1.395 . S
C1230 C1233 1.403 . S
C1231 C1228 1.403 . S
C1231 C1232 1.524 . S
C1231 C1235 1.400 . S
C1232 H1217 0.960 . S
C1232 H1218 0.960 . S
C1232 H1219 0.960 . S
C1232 C1231 1.524 . S
C1233 C1230 1.403 . S
C1233 C1234 1.392 . S
C1233 C1237 1.495 . S
C1234 C1233 1.392 . S
C1234 C1235 1.385 . S
C1234 C1236 1.478 . S
C1235 H1229 0.930 . S
C1235 C1231 1.400 . S
C1235 C1234 1.385 . S
C1236 C1234 1.478 . S
C1236 C1238 1.381 . S
C1236 C1242 1.383 . S
C1237 C1233 1.495 . S
C1237 H1243 0.959 . S
C1237 H1244 0.961 . S
C1237 H1245 0.960 . S
C1238 C1236 1.381 . S
C1238 C1239 1.394 . S
C1238 H1246 0.930 . S
C1239 C1238 1.394 . S
C1239 C1240 1.383 . S
C1239 H1247 0.929 . S
C1240 C1239 1.383 . S
C1240 C1241 1.377 . S
C1241 H1225 0.930 . S
C1241 C1240 1.377 . S
C1241 C1242 1.379 . S
C1242 H1226 0.931 . S
C1242 C1236 1.383 . S
C1242 C1241 1.379 . S
H1243 C1237 0.959 . S
H1244 C1237 0.961 . S
H1245 C1237 0.960 . S
H1246 C1238 0.930 . S
H1247 C1239 0.929 . S
H1248 C1256 0.929 . S
H1249 C1258 0.930 . S
H1250 C1260 0.930 . S
H1251 C1263 0.929 . S
H1252 C1266 0.930 . S
H1253 C1268 0.960 . S
H1254 C1268 0.960 . S
H1255 C1268 0.960 . S
C1256 H1248 0.929 . S
C1256 C1257 1.377 . S
C1256 C1258 1.384 . S
C1257 C1256 1.377 . S
C1257 C1263 1.390 . S
C1258 H1249 0.930 . S
C1258 C1256 1.384 . S
C1258 C1259 1.372 . S
C1259 C1258 1.372 . S
C1259 C1260 1.400 . S
C1259 C1264 1.490 . S
C1260 H1250 0.930 . S
C1260 C1259 1.400 . S
C1260 C1263 1.386 . S
H1261 C1277 0.930 . S
H1262 C1278 0.931 . S
C1263 H1251 0.929 . S
C1263 C1257 1.390 . S
C1263 C1260 1.386 . S
C1264 C1259 1.490 . S
C1264 C1266 1.395 . S
C1264 C1267 1.403 . S
H1265 C1271 0.930 . S
C1266 H1252 0.930 . S
C1266 C1264 1.395 . S
C1266 C1269 1.403 . S
C1267 C1264 1.403 . S
C1267 C1268 1.524 . S
C1267 C1271 1.400 . S
C1268 H1253 0.960 . S
C1268 H1254 0.960 . S
C1268 H1255 0.960 . S
C1268 C1267 1.524 . S
C1269 C1266 1.403 . S
C1269 C1270 1.392 . S
C1269 C1273 1.495 . S
C1270 C1269 1.392 . S
C1270 C1271 1.385 . S
C1270 C1272 1.478 . S
C1271 H1265 0.930 . S
C1271 C1267 1.400 . S
C1271 C1270 1.385 . S
C1272 C1270 1.478 . S
C1272 C1274 1.381 . S
C1272 C1278 1.383 . S
C1273 C1269 1.495 . S
C1273 H1279 0.959 . S
C1273 H1280 0.961 . S
C1273 H1281 0.960 . S
C1274 C1272 1.381 . S
C1274 C1275 1.394 . S
C1274 H1282 0.930 . S
C1275 C1274 1.394 . S
C1275 C1276 1.383 . S
C1275 H1283 0.929 . S
C1276 C1275 1.383 . S
C1276 C1277 1.377 . S
C1277 H1261 0.930 . S
C1277 C1276 1.377 . S
C1277 C1278 1.379 . S
C1278 H1262 0.931 . S
C1278 C1272 1.383 . S
C1278 C1277 1.379 . S
H1279 C1273 0.959 . S
H1280 C1273 0.961 . S
H1281 C1273 0.960 . S
H1282 C1274 0.930 . S
H1283 C1275 0.929 . S
H1284 C1292 0.929 . S
H1285 C1294 0.930 . S
H1286 C1296 0.930 . S
H1287 C1299 0.929 . S
H1288 C1302 0.930 . S
H1289 C1304 0.960 . S
H1290 C1304 0.960 . S
H1291 C1304 0.960 . S
C1292 H1284 0.929 . S
C1292 C1293 1.377 . S
C1292 C1294 1.384 . S
C1293 C1292 1.377 . S
C1293 C1299 1.390 . S
C1294 H1285 0.930 . S
C1294 C1292 1.384 . S
C1294 C1295 1.372 . S
C1295 C1294 1.372 . S
C1295 C1296 1.400 . S
C1295 C1300 1.490 . S
C1296 H1286 0.930 . S
C1296 C1295 1.400 . S
C1296 C1299 1.386 . S
H1297 C1313 0.930 . S
H1298 C1314 0.931 . S
C1299 H1287 0.929 . S
C1299 C1293 1.390 . S
C1299 C1296 1.386 . S
C1300 C1295 1.490 . S
C1300 C1302 1.395 . S
C1300 C1303 1.403 . S
H1301 C1307 0.930 . S
C1302 H1288 0.930 . S
C1302 C1300 1.395 . S
C1302 C1305 1.403 . S
C1303 C1300 1.403 . S
C1303 C1304 1.524 . S
C1303 C1307 1.400 . S
C1304 H1289 0.960 . S
C1304 H1290 0.960 . S
C1304 H1291 0.960 . S
C1304 C1303 1.524 . S
C1305 C1302 1.403 . S
C1305 C1306 1.392 . S
C1305 C1309 1.495 . S
C1306 C1305 1.392 . S
C1306 C1307 1.385 . S
C1306 C1308 1.478 . S
C1307 H1301 0.930 . S
C1307 C1303 1.400 . S
C1307 C1306 1.385 . S
C1308 C1306 1.478 . S
C1308 C1310 1.381 . S
C1308 C1314 1.383 . S
C1309 C1305 1.495 . S
C1309 H1315 0.959 . S
C1309 H1316 0.961 . S
C1309 H1317 0.960 . S
C1310 C1308 1.381 . S
C1310 C1311 1.394 . S
C1310 H1318 0.930 . S
C1311 C1310 1.394 . S
C1311 C1312 1.383 . S
C1311 H1319 0.929 . S
C1312 C1311 1.383 . S
C1312 C1313 1.377 . S
C1313 H1297 0.930 . S
C1313 C1312 1.377 . S
C1313 C1314 1.379 . S
C1314 H1298 0.931 . S
C1314 C1308 1.383 . S
C1314 C1313 1.379 . S
H1315 C1309 0.959 . S
H1316 C1309 0.961 . S
H1317 C1309 0.960 . S
H1318 C1310 0.930 . S
H1319 C1311 0.929 . S
H1320 C1328 0.929 . S
H1321 C1330 0.930 . S
H1322 C1332 0.930 . S
H1323 C1335 0.929 . S
H1324 C1338 0.930 . S
H1325 C1340 0.960 . S
H1326 C1340 0.960 . S
H1327 C1340 0.960 . S
C1328 H1320 0.929 . S
C1328 C1329 1.377 . S
C1328 C1330 1.384 . S
C1329 C1328 1.377 . S
C1329 C1335 1.390 . S
C1330 H1321 0.930 . S
C1330 C1328 1.384 . S
C1330 C1331 1.372 . S
C1331 C1330 1.372 . S
C1331 C1332 1.400 . S
C1331 C1336 1.490 . S
C1332 H1322 0.930 . S
C1332 C1331 1.400 . S
C1332 C1335 1.386 . S
H1333 C1349 0.930 . S
H1334 C1350 0.931 . S
C1335 H1323 0.929 . S
C1335 C1329 1.390 . S
C1335 C1332 1.386 . S
C1336 C1331 1.490 . S
C1336 C1338 1.395 . S
C1336 C1339 1.403 . S
H1337 C1343 0.930 . S
C1338 H1324 0.930 . S
C1338 C1336 1.395 . S
C1338 C1341 1.403 . S
C1339 C1336 1.403 . S
C1339 C1340 1.524 . S
C1339 C1343 1.400 . S
C1340 H1325 0.960 . S
C1340 H1326 0.960 . S
C1340 H1327 0.960 . S
C1340 C1339 1.524 . S
C1341 C1338 1.403 . S
C1341 C1342 1.392 . S
C1341 C1345 1.495 . S
C1342 C1341 1.392 . S
C1342 C1343 1.385 . S
C1342 C1344 1.478 . S
C1343 H1337 0.930 . S
C1343 C1339 1.400 . S
C1343 C1342 1.385 . S
C1344 C1342 1.478 . S
C1344 C1346 1.381 . S
C1344 C1350 1.383 . S
C1345 C1341 1.495 . S
C1345 H1351 0.959 . S
C1345 H1352 0.961 . S
C1345 H1353 0.960 . S
C1346 C1344 1.381 . S
C1346 C1347 1.394 . S
C1346 H1354 0.930 . S
C1347 C1346 1.394 . S
C1347 C1348 1.383 . S
C1347 H1355 0.929 . S
C1348 C1347 1.383 . S
C1348 C1349 1.377 . S
C1349 H1333 0.930 . S
C1349 C1348 1.377 . S
C1349 C1350 1.379 . S
C1350 H1334 0.931 . S
C1350 C1344 1.383 . S
C1350 C1349 1.379 . S
H1351 C1345 0.959 . S
H1352 C1345 0.961 . S
H1353 C1345 0.960 . S
H1354 C1346 0.930 . S
H1355 C1347 0.929 . S
H1356 C1364 0.929 . S
H1357 C1366 0.930 . S
H1358 C1368 0.930 . S
H1359 C1371 0.929 . S
H1360 C1374 0.930 . S
H1361 C1376 0.960 . S
H1362 C1376 0.960 . S
H1363 C1376 0.960 . S
C1364 H1356 0.929 . S
C1364 C1365 1.377 . S
C1364 C1366 1.384 . S
C1365 C1364 1.377 . S
C1365 C1371 1.390 . S
C1366 H1357 0.930 . S
C1366 C1364 1.384 . S
C1366 C1367 1.372 . S
C1367 C1366 1.372 . S
C1367 C1368 1.400 . S
C1367 C1372 1.490 . S
C1368 H1358 0.930 . S
C1368 C1367 1.400 . S
C1368 C1371 1.386 . S
H1369 C1385 0.930 . S
H1370 C1386 0.931 . S
C1371 H1359 0.929 . S
C1371 C1365 1.390 . S
C1371 C1368 1.386 . S
C1372 C1367 1.490 . S
C1372 C1374 1.395 . S
C1372 C1375 1.403 . S
H1373 C1379 0.930 . S
C1374 H1360 0.930 . S
C1374 C1372 1.395 . S
C1374 C1377 1.403 . S
C1375 C1372 1.403 . S
C1375 C1376 1.524 . S
C1375 C1379 1.400 . S
C1376 H1361 0.960 . S
C1376 H1362 0.960 . S
C1376 H1363 0.960 . S
C1376 C1375 1.524 . S
C1377 C1374 1.403 . S
C1377 C1378 1.392 . S
C1377 C1381 1.495 . S
C1378 C1377 1.392 . S
C1378 C1379 1.385 . S
C1378 C1380 1.478 . S
C1379 H1373 0.930 . S
C1379 C1375 1.400 . S
C1379 C1378 1.385 . S
C1380 C1378 1.478 . S
C1380 C1382 1.381 . S
C1380 C1386 1.383 . S
C1381 C1377 1.495 . S
C1381 H1387 0.959 . S
C1381 H1388 0.961 . S
C1381 H1389 0.960 . S
C1382 C1380 1.381 . S
C1382 C1383 1.394 . S
C1382 H1390 0.930 . S
C1383 C1382 1.394 . S
C1383 C1384 1.383 . S
C1383 H1391 0.929 . S
C1384 C1383 1.383 . S
C1384 C1385 1.377 . S
C1385 H1369 0.930 . S
C1385 C1384 1.377 . S
C1385 C1386 1.379 . S
C1386 H1370 0.931 . S
C1386 C1380 1.383 . S
C1386 C1385 1.379 . S
H1387 C1381 0.959 . S
H1388 C1381 0.961 . S
H1389 C1381 0.960 . S
H1390 C1382 0.930 . S
H1391 C1383 0.929 . S
H1392 C1400 0.929 . S
H1393 C1402 0.930 . S
H1394 C1404 0.930 . S
H1395 C1407 0.929 . S
H1396 C1410 0.930 . S
H1397 C1412 0.960 . S
H1398 C1412 0.960 . S
H1399 C1412 0.960 . S
C1400 H1392 0.929 . S
C1400 C1401 1.377 . S
C1400 C1402 1.384 . S
C1401 C1400 1.377 . S
C1401 C1407 1.390 . S
C1402 H1393 0.930 . S
C1402 C1400 1.384 . S
C1402 C1403 1.372 . S
C1403 C1402 1.372 . S
C1403 C1404 1.400 . S
C1403 C1408 1.490 . S
C1404 H1394 0.930 . S
C1404 C1403 1.400 . S
C1404 C1407 1.386 . S
H1405 C1421 0.930 . S
H1406 C1422 0.931 . S
C1407 H1395 0.929 . S
C1407 C1401 1.390 . S
C1407 C1404 1.386 . S
C1408 C1403 1.490 . S
C1408 C1410 1.395 . S
C1408 C1411 1.403 . S
H1409 C1415 0.930 . S
C1410 H1396 0.930 . S
C1410 C1408 1.395 . S
C1410 C1413 1.403 . S
C1411 C1408 1.403 . S
C1411 C1412 1.524 . S
C1411 C1415 1.400 . S
C1412 H1397 0.960 . S
C1412 H1398 0.960 . S
C1412 H1399 0.960 . S
C1412 C1411 1.524 . S
C1413 C1410 1.403 . S
C1413 C1414 1.392 . S
C1413 C1417 1.495 . S
C1414 C1413 1.392 . S
C1414 C1415 1.385 . S
C1414 C1416 1.478 . S
C1415 H1409 0.930 . S
C1415 C1411 1.400 . S
C1415 C1414 1.385 . S
C1416 C1414 1.478 . S
C1416 C1418 1.381 . S
C1416 C1422 1.383 . S
C1417 C1413 1.495 . S
C1417 H1423 0.959 . S
C1417 H1424 0.961 . S
C1417 H1425 0.960 . S
C1418 C1416 1.381 . S
C1418 C1419 1.394 . S
C1418 H1426 0.930 . S
C1419 C1418 1.394 . S
C1419 C1420 1.383 . S
C1419 H1427 0.929 . S
C1420 C1419 1.383 . S
C1420 C1421 1.377 . S
C1421 H1405 0.930 . S
C1421 C1420 1.377 . S
C1421 C1422 1.379 . S
C1422 H1406 0.931 . S
C1422 C1416 1.383 . S
C1422 C1421 1.379 . S
H1423 C1417 0.959 . S
H1424 C1417 0.961 . S
H1425 C1417 0.960 . S
H1426 C1418 0.930 . S
H1427 C1419 0.929 . S
H1428 C1436 0.929 . S
H1429 C1438 0.930 . S
H1430 C1440 0.930 . S
H1431 C1443 0.929 . S
H1432 C1446 0.930 . S
H1433 C1448 0.960 . S
H1434 C1448 0.960 . S
H1435 C1448 0.960 . S
C1436 H1428 0.929 . S
C1436 C1437 1.377 . S
C1436 C1438 1.384 . S
C1437 C1436 1.377 . S
C1437 C1443 1.390 . S
C1438 H1429 0.930 . S
C1438 C1436 1.384 . S
C1438 C1439 1.372 . S
C1439 C1438 1.372 . S
C1439 C1440 1.400 . S
C1439 C1444 1.490 . S
C1440 H1430 0.930 . S
C1440 C1439 1.400 . S
C1440 C1443 1.386 . S
H1441 C1457 0.930 . S
H1442 C1458 0.931 . S
C1443 H1431 0.929 . S
C1443 C1437 1.390 . S
C1443 C1440 1.386 . S
C1444 C1439 1.490 . S
C1444 C1446 1.395 . S
C1444 C1447 1.403 . S
H1445 C1451 0.930 . S
C1446 H1432 0.930 . S
C1446 C1444 1.395 . S
C1446 C1449 1.403 . S
C1447 C1444 1.403 . S
C1447 C1448 1.524 . S
C1447 C1451 1.400 . S
C1448 H1433 0.960 . S
C1448 H1434 0.960 . S
C1448 H1435 0.960 . S
C1448 C1447 1.524 . S
C1449 C1446 1.403 . S
C1449 C1450 1.392 . S
C1449 C1453 1.495 . S
C1450 C1449 1.392 . S
C1450 C1451 1.385 . S
C1450 C1452 1.478 . S
C1451 H1445 0.930 . S
C1451 C1447 1.400 . S
C1451 C1450 1.385 . S
C1452 C1450 1.478 . S
C1452 C1454 1.381 . S
C1452 C1458 1.383 . S
C1453 C1449 1.495 . S
C1453 H1459 0.959 . S
C1453 H1460 0.961 . S
C1453 H1461 0.960 . S
C1454 C1452 1.381 . S
C1454 C1455 1.394 . S
C1454 H1462 0.930 . S
C1455 C1454 1.394 . S
C1455 C1456 1.383 . S
C1455 H1463 0.929 . S
C1456 C1455 1.383 . S
C1456 C1457 1.377 . S
C1457 H1441 0.930 . S
C1457 C1456 1.377 . S
C1457 C1458 1.379 . S
C1458 H1442 0.931 . S
C1458 C1452 1.383 . S
C1458 C1457 1.379 . S
H1459 C1453 0.959 . S
H1460 C1453 0.961 . S
H1461 C1453 0.960 . S
H1462 C1454 0.930 . S
H1463 C1455 0.929 . S
H1464 C1472 0.929 . S
H1465 C1474 0.930 . S
H1466 C1476 0.930 . S
H1467 C1479 0.929 . S
H1468 C1482 0.930 . S
H1469 C1484 0.960 . S
H1470 C1484 0.960 . S
H1471 C1484 0.960 . S
C1472 H1464 0.929 . S
C1472 C1473 1.377 . S
C1472 C1474 1.384 . S
C1473 C1472 1.377 . S
C1473 C1479 1.390 . S
C1474 H1465 0.930 . S
C1474 C1472 1.384 . S
C1474 C1475 1.372 . S
C1475 C1474 1.372 . S
C1475 C1476 1.400 . S
C1475 C1480 1.490 . S
C1476 H1466 0.930 . S
C1476 C1475 1.400 . S
C1476 C1479 1.386 . S
H1477 C1493 0.930 . S
H1478 C1494 0.931 . S
C1479 H1467 0.929 . S
C1479 C1473 1.390 . S
C1479 C1476 1.386 . S
C1480 C1475 1.490 . S
C1480 C1482 1.395 . S
C1480 C1483 1.403 . S
H1481 C1487 0.930 . S
C1482 H1468 0.930 . S
C1482 C1480 1.395 . S
C1482 C1485 1.403 . S
C1483 C1480 1.403 . S
C1483 C1484 1.524 . S
C1483 C1487 1.400 . S
C1484 H1469 0.960 . S
C1484 H1470 0.960 . S
C1484 H1471 0.960 . S
C1484 C1483 1.524 . S
C1485 C1482 1.403 . S
C1485 C1486 1.392 . S
C1485 C1489 1.495 . S
C1486 C1485 1.392 . S
C1486 C1487 1.385 . S
C1486 C1488 1.478 . S
C1487 H1481 0.930 . S
C1487 C1483 1.400 . S
C1487 C1486 1.385 . S
C1488 C1486 1.478 . S
C1488 C1490 1.381 . S
C1488 C1494 1.383 . S
C1489 C1485 1.495 . S
C1489 H1495 0.959 . S
C1489 H1496 0.961 . S
C1489 H1497 0.960 . S
C1490 C1488 1.381 . S
C1490 C1491 1.394 . S
C1490 H1498 0.930 . S
C1491 C1490 1.394 . S
C1491 C1492 1.383 . S
C1491 H1499 0.929 . S
C1492 C1491 1.383 . S
C1492 C1493 1.377 . S
C1493 H1477 0.930 . S
C1493 C1492 1.377 . S
C1493 C1494 1.379 . S
C1494 H1478 0.931 . S
C1494 C1488 1.383 . S
C1494 C1493 1.379 . S
H1495 C1489 0.959 . S
H1496 C1489 0.961 . S
H1497 C1489 0.960 . S
H1498 C1490 0.930 . S
H1499 C1491 0.929 . S
H1500 C1508 0.929 . S
H1501 C1510 0.930 . S
H1502 C1512 0.930 . S
H1503 C1515 0.929 . S
H1504 C1518 0.930 . S
H1505 C1520 0.960 . S
H1506 C1520 0.960 . S
H1507 C1520 0.960 . S
C1508 H1500 0.929 . S
C1508 C1509 1.377 . S
C1508 C1510 1.384 . S
C1509 C1508 1.377 . S
C1509 C1515 1.390 . S
C1510 H1501 0.930 . S
C1510 C1508 1.384 . S
C1510 C1511 1.372 . S
C1511 C1510 1.372 . S
C1511 C1512 1.400 . S
C1511 C1516 1.490 . S
C1512 H1502 0.930 . S
C1512 C1511 1.400 . S
C1512 C1515 1.386 . S
H1513 C1529 0.930 . S
H1514 C1530 0.931 . S
C1515 H1503 0.929 . S
C1515 C1509 1.390 . S
C1515 C1512 1.386 . S
C1516 C1511 1.490 . S
C1516 C1518 1.395 . S
C1516 C1519 1.403 . S
H1517 C1523 0.930 . S
C1518 H1504 0.930 . S
C1518 C1516 1.395 . S
C1518 C1521 1.403 . S
C1519 C1516 1.403 . S
C1519 C1520 1.524 . S
C1519 C1523 1.400 . S
C1520 H1505 0.960 . S
C1520 H1506 0.960 . S
C1520 H1507 0.960 . S
C1520 C1519 1.524 . S
C1521 C1518 1.403 . S
C1521 C1522 1.392 . S
C1521 C1525 1.495 . S
C1522 C1521 1.392 . S
C1522 C1523 1.385 . S
C1522 C1524 1.478 . S
C1523 H1517 0.930 . S
C1523 C1519 1.400 . S
C1523 C1522 1.385 . S
C1524 C1522 1.478 . S
C1524 C1526 1.381 . S
C1524 C1530 1.383 . S
C1525 C1521 1.495 . S
C1525 H1531 0.959 . S
C1525 H1532 0.961 . S
C1525 H1533 0.960 . S
C1526 C1524 1.381 . S
C1526 C1527 1.394 . S
C1526 H1534 0.930 . S
C1527 C1526 1.394 . S
C1527 C1528 1.383 . S
C1527 H1535 0.929 . S
C1528 C1527 1.383 . S
C1528 C1529 1.377 . S
C1529 H1513 0.930 . S
C1529 C1528 1.377 . S
C1529 C1530 1.379 . S
C1530 H1514 0.931 . S
C1530 C1524 1.383 . S
C1530 C1529 1.379 . S
H1531 C1525 0.959 . S
H1532 C1525 0.961 . S
H1533 C1525 0.960 . S
H1534 C1526 0.930 . S
H1535 C1527 0.929 . S
H1536 C1544 0.929 . S
H1537 C1546 0.930 . S
H1538 C1548 0.930 . S
H1539 C1551 0.929 . S
H1540 C1554 0.930 . S
H1541 C1556 0.960 . S
H1542 C1556 0.960 . S
H1543 C1556 0.960 . S
C1544 H1536 0.929 . S
C1544 C1545 1.377 . S
C1544 C1546 1.384 . S
C1545 C1544 1.377 . S
C1545 C1551 1.390 . S
C1546 H1537 0.930 . S
C1546 C1544 1.384 . S
C1546 C1547 1.372 . S
C1547 C1546 1.372 . S
C1547 C1548 1.400 . S
C1547 C1552 1.490 . S
C1548 H1538 0.930 . S
C1548 C1547 1.400 . S
C1548 C1551 1.386 . S
H1549 C1565 0.930 . S
H1550 C1566 0.931 . S
C1551 H1539 0.929 . S
C1551 C1545 1.390 . S
C1551 C1548 1.386 . S
C1552 C1547 1.490 . S
C1552 C1554 1.395 . S
C1552 C1555 1.403 . S
H1553 C1559 0.930 . S
C1554 H1540 0.930 . S
C1554 C1552 1.395 . S
C1554 C1557 1.403 . S
C1555 C1552 1.403 . S
C1555 C1556 1.524 . S
C1555 C1559 1.400 . S
C1556 H1541 0.960 . S
C1556 H1542 0.960 . S
C1556 H1543 0.960 . S
C1556 C1555 1.524 . S
C1557 C1554 1.403 . S
C1557 C1558 1.392 . S
C1557 C1561 1.495 . S
C1558 C1557 1.392 . S
C1558 C1559 1.385 . S
C1558 C1560 1.478 . S
C1559 H1553 0.930 . S
C1559 C1555 1.400 . S
C1559 C1558 1.385 . S
C1560 C1558 1.478 . S
C1560 C1562 1.381 . S
C1560 C1566 1.383 . S
C1561 C1557 1.495 . S
C1561 H1567 0.959 . S
C1561 H1568 0.961 . S
C1561 H1569 0.960 . S
C1562 C1560 1.381 . S
C1562 C1563 1.394 . S
C1562 H1570 0.930 . S
C1563 C1562 1.394 . S
C1563 C1564 1.383 . S
C1563 H1571 0.929 . S
C1564 C1563 1.383 . S
C1564 C1565 1.377 . S
C1565 H1549 0.930 . S
C1565 C1564 1.377 . S
C1565 C1566 1.379 . S
C1566 H1550 0.931 . S
C1566 C1560 1.383 . S
C1566 C1565 1.379 . S
H1567 C1561 0.959 . S
H1568 C1561 0.961 . S
H1569 C1561 0.960 . S
H1570 C1562 0.930 . S
H1571 C1563 0.929 . S
H1572 C1580 0.929 . S
H1573 C1582 0.930 . S
H1574 C1584 0.930 . S
H1575 C1587 0.929 . S
H1576 C1590 0.930 . S
H1577 C1592 0.960 . S
H1578 C1592 0.960 . S
H1579 C1592 0.960 . S
C1580 H1572 0.929 . S
C1580 C1581 1.377 . S
C1580 C1582 1.384 . S
C1581 C1580 1.377 . S
C1581 C1587 1.390 . S
C1582 H1573 0.930 . S
C1582 C1580 1.384 . S
C1582 C1583 1.372 . S
C1583 C1582 1.372 . S
C1583 C1584 1.400 . S
C1583 C1588 1.490 . S
C1584 H1574 0.930 . S
C1584 C1583 1.400 . S
C1584 C1587 1.386 . S
H1585 C1601 0.930 . S
H1586 C1602 0.931 . S
C1587 H1575 0.929 . S
C1587 C1581 1.390 . S
C1587 C1584 1.386 . S
C1588 C1583 1.490 . S
C1588 C1590 1.395 . S
C1588 C1591 1.403 . S
H1589 C1595 0.930 . S
C1590 H1576 0.930 . S
C1590 C1588 1.395 . S
C1590 C1593 1.403 . S
C1591 C1588 1.403 . S
C1591 C1592 1.524 . S
C1591 C1595 1.400 . S
C1592 H1577 0.960 . S
C1592 H1578 0.960 . S
C1592 H1579 0.960 . S
C1592 C1591 1.524 . S
C1593 C1590 1.403 . S
C1593 C1594 1.392 . S
C1593 C1597 1.495 . S
C1594 C1593 1.392 . S
C1594 C1595 1.385 . S
C1594 C1596 1.478 . S
C1595 H1589 0.930 . S
C1595 C1591 1.400 . S
C1595 C1594 1.385 . S
C1596 C1594 1.478 . S
C1596 C1598 1.381 . S
C1596 C1602 1.383 . S
C1597 C1593 1.495 . S
C1597 H1603 0.959 . S
C1597 H1604 0.961 . S
C1597 H1605 0.960 . S
C1598 C1596 1.381 . S
C1598 C1599 1.394 . S
C1598 H1606 0.930 . S
C1599 C1598 1.394 . S
C1599 C1600 1.383 . S
C1599 H1607 0.929 . S
C1600 C1599 1.383 . S
C1600 C1601 1.377 . S
C1601 H1585 0.930 . S
C1601 C1600 1.377 . S
C1601 C1602 1.379 . S
C1602 H1586 0.931 . S
C1602 C1596 1.383 . S
C1602 C1601 1.379 . S
H1603 C1597 0.959 . S
H1604 C1597 0.961 . S
H1605 C1597 0.960 . S
H1606 C1598 0.930 . S
H1607 C1599 0.929 . S
H1608 C1616 0.929 . S
H1609 C1618 0.930 . S
H1610 C1620 0.930 . S
H1611 C1623 0.929 . S
H1612 C1626 0.930 . S
H1613 C1628 0.960 . S
H1614 C1628 0.960 . S
H1615 C1628 0.960 . S
C1616 H1608 0.929 . S
C1616 C1617 1.377 . S
C1616 C1618 1.384 . S
C1617 C1616 1.377 . S
C1617 C1623 1.390 . S
C1618 H1609 0.930 . S
C1618 C1616 1.384 . S
C1618 C1619 1.372 . S
C1619 C1618 1.372 . S
C1619 C1620 1.400 . S
C1619 C1624 1.490 . S
C1620 H1610 0.930 . S
C1620 C1619 1.400 . S
C1620 C1623 1.386 . S
H1621 C1637 0.930 . S
H1622 C1638 0.931 . S
C1623 H1611 0.929 . S
C1623 C1617 1.390 . S
C1623 C1620 1.386 . S
C1624 C1619 1.490 . S
C1624 C1626 1.395 . S
C1624 C1627 1.403 . S
H1625 C1631 0.930 . S
C1626 H1612 0.930 . S
C1626 C1624 1.395 . S
C1626 C1629 1.403 . S
C1627 C1624 1.403 . S
C1627 C1628 1.524 . S
C1627 C1631 1.400 . S
C1628 H1613 0.960 . S
C1628 H1614 0.960 . S
C1628 H1615 0.960 . S
C1628 C1627 1.524 . S
C1629 C1626 1.403 . S
C1629 C1630 1.392 . S
C1629 C1633 1.495 . S
C1630 C1629 1.392 . S
C1630 C1631 1.385 . S
C1630 C1632 1.478 . S
C1631 H1625 0.930 . S
C1631 C1627 1.400 . S
C1631 C1630 1.385 . S
C1632 C1630 1.478 . S
C1632 C1634 1.381 . S
C1632 C1638 1.383 . S
C1633 C1629 1.495 . S
C1633 H1639 0.959 . S
C1633 H1640 0.961 . S
C1633 H1641 0.960 . S
C1634 C1632 1.381 . S
C1634 C1635 1.394 . S
C1634 H1642 0.930 . S
C1635 C1634 1.394 . S
C1635 C1636 1.383 . S
C1635 H1643 0.929 . S
C1636 C1635 1.383 . S
C1636 C1637 1.377 . S
C1637 H1621 0.930 . S
C1637 C1636 1.377 . S
C1637 C1638 1.379 . S
C1638 H1622 0.931 . S
C1638 C1632 1.383 . S
C1638 C1637 1.379 . S
H1639 C1633 0.959 . S
H1640 C1633 0.961 . S
H1641 C1633 0.960 . S
H1642 C1634 0.930 . S
H1643 C1635 0.929 . S
H1644 C1652 0.929 . S
H1645 C1654 0.930 . S
H1646 C1656 0.930 . S
H1647 C1659 0.929 . S
H1648 C1662 0.930 . S
H1649 C1664 0.960 . S
H1650 C1664 0.960 . S
H1651 C1664 0.960 . S
C1652 H1644 0.929 . S
C1652 C1653 1.377 . S
C1652 C1654 1.384 . S
C1653 C1652 1.377 . S
C1653 C1659 1.390 . S
C1654 H1645 0.930 . S
C1654 C1652 1.384 . S
C1654 C1655 1.372 . S
C1655 C1654 1.372 . S
C1655 C1656 1.400 . S
C1655 C1660 1.490 . S
C1656 H1646 0.930 . S
C1656 C1655 1.400 . S
C1656 C1659 1.386 . S
H1657 C1673 0.930 . S
H1658 C1674 0.931 . S
C1659 H1647 0.929 . S
C1659 C1653 1.390 . S
C1659 C1656 1.386 . S
C1660 C1655 1.490 . S
C1660 C1662 1.395 . S
C1660 C1663 1.403 . S
H1661 C1667 0.930 . S
C1662 H1648 0.930 . S
C1662 C1660 1.395 . S
C1662 C1665 1.403 . S
C1663 C1660 1.403 . S
C1663 C1664 1.524 . S
C1663 C1667 1.400 . S
C1664 H1649 0.960 . S
C1664 H1650 0.960 . S
C1664 H1651 0.960 . S
C1664 C1663 1.524 . S
C1665 C1662 1.403 . S
C1665 C1666 1.392 . S
C1665 C1669 1.495 . S
C1666 C1665 1.392 . S
C1666 C1667 1.385 . S
C1666 C1668 1.478 . S
C1667 H1661 0.930 . S
C1667 C1663 1.400 . S
C1667 C1666 1.385 . S
C1668 C1666 1.478 . S
C1668 C1670 1.381 . S
C1668 C1674 1.383 . S
C1669 C1665 1.495 . S
C1669 H1675 0.959 . S
C1669 H1676 0.961 . S
C1669 H1677 0.960 . S
C1670 C1668 1.381 . S
C1670 C1671 1.394 . S
C1670 H1678 0.930 . S
C1671 C1670 1.394 . S
C1671 C1672 1.383 . S
C1671 H1679 0.929 . S
C1672 C1671 1.383 . S
C1672 C1673 1.377 . S
C1673 H1657 0.930 . S
C1673 C1672 1.377 . S
C1673 C1674 1.379 . S
C1674 H1658 0.931 . S
C1674 C1668 1.383 . S
C1674 C1673 1.379 . S
H1675 C1669 0.959 . S
H1676 C1669 0.961 . S
H1677 C1669 0.960 . S
H1678 C1670 0.930 . S
H1679 C1671 0.929 . S
H1680 C1688 0.929 . S
H1681 C1690 0.930 . S
H1682 C1692 0.930 . S
H1683 C1695 0.929 . S
H1684 C1698 0.930 . S
H1685 C1700 0.960 . S
H1686 C1700 0.960 . S
H1687 C1700 0.960 . S
C1688 H1680 0.929 . S
C1688 C1689 1.377 . S
C1688 C1690 1.384 . S
C1689 C1688 1.377 . S
C1689 C1695 1.390 . S
C1690 H1681 0.930 . S
C1690 C1688 1.384 . S
C1690 C1691 1.372 . S
C1691 C1690 1.372 . S
C1691 C1692 1.400 . S
C1691 C1696 1.490 . S
C1692 H1682 0.930 . S
C1692 C1691 1.400 . S
C1692 C1695 1.386 . S
H1693 C1709 0.930 . S
H1694 C1710 0.931 . S
C1695 H1683 0.929 . S
C1695 C1689 1.390 . S
C1695 C1692 1.386 . S
C1696 C1691 1.490 . S
C1696 C1698 1.395 . S
C1696 C1699 1.403 . S
H1697 C1703 0.930 . S
C1698 H1684 0.930 . S
C1698 C1696 1.395 . S
C1698 C1701 1.403 . S
C1699 C1696 1.403 . S
C1699 C1700 1.524 . S
C1699 C1703 1.400 . S
C1700 H1685 0.960 . S
C1700 H1686 0.960 . S
C1700 H1687 0.960 . S
C1700 C1699 1.524 . S
C1701 C1698 1.403 . S
C1701 C1702 1.392 . S
C1701 C1705 1.495 . S
C1702 C1701 1.392 . S
C1702 C1703 1.385 . S
C1702 C1704 1.478 . S
C1703 H1697 0.930 . S
C1703 C1699 1.400 . S
C1703 C1702 1.385 . S
C1704 C1702 1.478 . S
C1704 C1706 1.381 . S
C1704 C1710 1.383 . S
C1705 C1701 1.495 . S
C1705 H1711 0.959 . S
C1705 H1712 0.961 . S
C1705 H1713 0.960 . S
C1706 C1704 1.381 . S
C1706 C1707 1.394 . S
C1706 H1714 0.930 . S
C1707 C1706 1.394 . S
C1707 C1708 1.383 . S
C1707 H1715 0.929 . S
C1708 C1707 1.383 . S
C1708 C1709 1.377 . S
C1709 H1693 0.930 . S
C1709 C1708 1.377 . S
C1709 C1710 1.379 . S
C1710 H1694 0.931 . S
C1710 C1704 1.383 . S
C1710 C1709 1.379 . S
H1711 C1705 0.959 . S
H1712 C1705 0.961 . S
H1713 C1705 0.960 . S
H1714 C1706 0.930 . S
H1715 C1707 0.929 . S
H1716 C1724 0.929 . S
H1717 C1726 0.930 . S
H1718 C1728 0.930 . S
H1719 C1731 0.929 . S
H1720 C1734 0.930 . S
H1721 C1736 0.960 . S
H1722 C1736 0.960 . S
H1723 C1736 0.960 . S
C1724 H1716 0.929 . S
C1724 C1725 1.377 . S
C1724 C1726 1.384 . S
C1725 C1724 1.377 . S
C1725 C1731 1.390 . S
C1726 H1717 0.930 . S
C1726 C1724 1.384 . S
C1726 C1727 1.372 . S
C1727 C1726 1.372 . S
C1727 C1728 1.400 . S
C1727 C1732 1.490 . S
C1728 H1718 0.930 . S
C1728 C1727 1.400 . S
C1728 C1731 1.386 . S
H1729 C1745 0.930 . S
H1730 C1746 0.931 . S
C1731 H1719 0.929 . S
C1731 C1725 1.390 . S
C1731 C1728 1.386 . S
C1732 C1727 1.490 . S
C1732 C1734 1.395 . S
C1732 C1735 1.403 . S
H1733 C1739 0.930 . S
C1734 H1720 0.930 . S
C1734 C1732 1.395 . S
C1734 C1737 1.403 . S
C1735 C1732 1.403 . S
C1735 C1736 1.524 . S
C1735 C1739 1.400 . S
C1736 H1721 0.960 . S
C1736 H1722 0.960 . S
C1736 H1723 0.960 . S
C1736 C1735 1.524 . S
C1737 C1734 1.403 . S
C1737 C1738 1.392 . S
C1737 C1741 1.495 . S
C1738 C1737 1.392 . S
C1738 C1739 1.385 . S
C1738 C1740 1.478 . S
C1739 H1733 0.930 . S
C1739 C1735 1.400 . S
C1739 C1738 1.385 . S
C1740 C1738 1.478 . S
C1740 C1742 1.381 . S
C1740 C1746 1.383 . S
C1741 C1737 1.495 . S
C1741 H1747 0.959 . S
C1741 H1748 0.961 . S
C1741 H1749 0.960 . S
C1742 C1740 1.381 . S
C1742 C1743 1.394 . S
C1742 H1750 0.930 . S
C1743 C1742 1.394 . S
C1743 C1744 1.383 . S
C1743 H1751 0.929 . S
C1744 C1743 1.383 . S
C1744 C1745 1.377 . S
C1745 H1729 0.930 . S
C1745 C1744 1.377 . S
C1745 C1746 1.379 . S
C1746 H1730 0.931 . S
C1746 C1740 1.383 . S
C1746 C1745 1.379 . S
H1747 C1741 0.959 . S
H1748 C1741 0.961 . S
H1749 C1741 0.960 . S
H1750 C1742 0.930 . S
H1751 C1743 0.929 . S
H1752 C1760 0.929 . S
H1753 C1762 0.930 . S
H1754 C1764 0.930 . S
H1755 C1767 0.929 . S
H1756 C1770 0.930 . S
H1757 C1772 0.960 . S
H1758 C1772 0.960 . S
H1759 C1772 0.960 . S
C1760 H1752 0.929 . S
C1760 C1761 1.377 . S
C1760 C1762 1.384 . S
C1761 C1760 1.377 . S
C1761 C1767 1.390 . S
C1762 H1753 0.930 . S
C1762 C1760 1.384 . S
C1762 C1763 1.372 . S
C1763 C1762 1.372 . S
C1763 C1764 1.400 . S
C1763 C1768 1.490 . S
C1764 H1754 0.930 . S
C1764 C1763 1.400 . S
C1764 C1767 1.386 . S
H1765 C1781 0.930 . S
H1766 C1782 0.931 . S
C1767 H1755 0.929 . S
C1767 C1761 1.390 . S
C1767 C1764 1.386 . S
C1768 C1763 1.490 . S
C1768 C1770 1.395 . S
C1768 C1771 1.403 . S
H1769 C1775 0.930 . S
C1770 H1756 0.930 . S
C1770 C1768 1.395 . S
C1770 C1773 1.403 . S
C1771 C1768 1.403 . S
C1771 C1772 1.524 . S
C1771 C1775 1.400 . S
C1772 H1757 0.960 . S
C1772 H1758 0.960 . S
C1772 H1759 0.960 . S
C1772 C1771 1.524 . S
C1773 C1770 1.403 . S
C1773 C1774 1.392 . S
C1773 C1777 1.495 . S
C1774 C1773 1.392 . S
C1774 C1775 1.385 . S
C1774 C1776 1.478 . S
C1775 H1769 0.930 . S
C1775 C1771 1.400 . S
C1775 C1774 1.385 . S
C1776 C1774 1.478 . S
C1776 C1778 1.381 . S
C1776 C1782 1.383 . S
C1777 C1773 1.495 . S
C1777 H1783 0.959 . S
C1777 H1784 0.961 . S
C1777 H1785 0.960 . S
C1778 C1776 1.381 . S
C1778 C1779 1.394 . S
C1778 H1786 0.930 . S
C1779 C1778 1.394 . S
C1779 C1780 1.383 . S
C1779 H1787 0.929 . S
C1780 C1779 1.383 . S
C1780 C1781 1.377 . S
C1781 H1765 0.930 . S
C1781 C1780 1.377 . S
C1781 C1782 1.379 . S
C1782 H1766 0.931 . S
C1782 C1776 1.383 . S
C1782 C1781 1.379 . S
H1783 C1777 0.959 . S
H1784 C1777 0.961 . S
H1785 C1777 0.960 . S
H1786 C1778 0.930 . S
H1787 C1779 0.929 . S
H1788 C1796 0.929 . S
H1789 C1798 0.930 . S
H1790 C1800 0.930 . S
H1791 C1803 0.929 . S
H1792 C1806 0.930 . S
H1793 C1808 0.960 . S
H1794 C1808 0.960 . S
H1795 C1808 0.960 . S
C1796 H1788 0.929 . S
C1796 C1797 1.377 . S
C1796 C1798 1.384 . S
C1797 C1796 1.377 . S
C1797 C1803 1.390 . S
C1798 H1789 0.930 . S
C1798 C1796 1.384 . S
C1798 C1799 1.372 . S
C1799 C1798 1.372 . S
C1799 C1800 1.400 . S
C1799 C1804 1.490 . S
C1800 H1790 0.930 . S
C1800 C1799 1.400 . S
C1800 C1803 1.386 . S
H1801 C1817 0.930 . S
H1802 C1818 0.931 . S
C1803 H1791 0.929 . S
C1803 C1797 1.390 . S
C1803 C1800 1.386 . S
C1804 C1799 1.490 . S
C1804 C1806 1.395 . S
C1804 C1807 1.403 . S
H1805 C1811 0.930 . S
C1806 H1792 0.930 . S
C1806 C1804 1.395 . S
C1806 C1809 1.403 . S
C1807 C1804 1.403 . S
C1807 C1808 1.524 . S
C1807 C1811 1.400 . S
C1808 H1793 0.960 . S
C1808 H1794 0.960 . S
C1808 H1795 0.960 . S
C1808 C1807 1.524 . S
C1809 C1806 1.403 . S
C1809 C1810 1.392 . S
C1809 C1813 1.495 . S
C1810 C1809 1.392 . S
C1810 C1811 1.385 . S
C1810 C1812 1.478 . S
C1811 H1805 0.930 . S
C1811 C1807 1.400 . S
C1811 C1810 1.385 . S
C1812 C1810 1.478 . S
C1812 C1814 1.381 . S
C1812 C1818 1.383 . S
C1813 C1809 1.495 . S
C1813 H1819 0.959 . S
C1813 H1820 0.961 . S
C1813 H1821 0.960 . S
C1814 C1812 1.381 . S
C1814 C1815 1.394 . S
C1814 H1822 0.930 . S
C1815 C1814 1.394 . S
C1815 C1816 1.383 . S
C1815 H1823 0.929 . S
C1816 C1815 1.383 . S
C1816 C1817 1.377 . S
C1817 H1801 0.930 . S
C1817 C1816 1.377 . S
C1817 C1818 1.379 . S
C1818 H1802 0.931 . S
C1818 C1812 1.383 . S
C1818 C1817 1.379 . S
H1819 C1813 0.959 . S
H1820 C1813 0.961 . S
H1821 C1813 0.960 . S
H1822 C1814 0.930 . S
H1823 C1815 0.929 . S
H1824 C1832 0.929 . S
H1825 C1834 0.930 . S
H1826 C1836 0.930 . S
H1827 C1839 0.929 . S
H1828 C1842 0.930 . S
H1829 C1844 0.960 . S
H1830 C1844 0.960 . S
H1831 C1844 0.960 . S
C1832 H1824 0.929 . S
C1832 C1833 1.377 . S
C1832 C1834 1.384 . S
C1833 C1832 1.377 . S
C1833 C1839 1.390 . S
C1834 H1825 0.930 . S
C1834 C1832 1.384 . S
C1834 C1835 1.372 . S
C1835 C1834 1.372 . S
C1835 C1836 1.400 . S
C1835 C1840 1.490 . S
C1836 H1826 0.930 . S
C1836 C1835 1.400 . S
C1836 C1839 1.386 . S
H1837 C1853 0.930 . S
H1838 C1854 0.931 . S
C1839 H1827 0.929 . S
C1839 C1833 1.390 . S
C1839 C1836 1.386 . S
C1840 C1835 1.490 . S
C1840 C1842 1.395 . S
C1840 C1843 1.403 . S
H1841 C1847 0.930 . S
C1842 H1828 0.930 . S
C1842 C1840 1.395 . S
C1842 C1845 1.403 . S
C1843 C1840 1.403 . S
C1843 C1844 1.524 . S
C1843 C1847 1.400 . S
C1844 H1829 0.960 . S
C1844 H1830 0.960 . S
C1844 H1831 0.960 . S
C1844 C1843 1.524 . S
C1845 C1842 1.403 . S
C1845 C1846 1.392 . S
C1845 C1849 1.495 . S
C1846 C1845 1.392 . S
C1846 C1847 1.385 . S
C1846 C1848 1.478 . S
C1847 H1841 0.930 . S
C1847 C1843 1.400 . S
C1847 C1846 1.385 . S
C1848 C1846 1.478 . S
C1848 C1850 1.381 . S
C1848 C1854 1.383 . S
C1849 C1845 1.495 . S
C1849 H1855 0.959 . S
C1849 H1856 0.961 . S
C1849 H1857 0.960 . S
C1850 C1848 1.381 . S
C1850 C1851 1.394 . S
C1850 H1858 0.930 . S
C1851 C1850 1.394 . S
C1851 C1852 1.383 . S
C1851 H1859 0.929 . S
C1852 C1851 1.383 . S
C1852 C1853 1.377 . S
C1853 H1837 0.930 . S
C1853 C1852 1.377 . S
C1853 C1854 1.379 . S
C1854 H1838 0.931 . S
C1854 C1848 1.383 . S
C1854 C1853 1.379 . S
H1855 C1849 0.959 . S
H1856 C1849 0.961 . S
H1857 C1849 0.960 . S
H1858 C1850 0.930 . S
H1859 C1851 0.929 . S
H1860 C1868 0.929 . S
H1861 C1870 0.930 . S
H1862 C1872 0.930 . S
H1863 C1875 0.929 . S
H1864 C1878 0.930 . S
H1865 C1880 0.960 . S
H1866 C1880 0.960 . S
H1867 C1880 0.960 . S
C1868 H1860 0.929 . S
C1868 C1869 1.377 . S
C1868 C1870 1.384 . S
C1869 C1868 1.377 . S
C1869 C1875 1.390 . S
C1870 H1861 0.930 . S
C1870 C1868 1.384 . S
C1870 C1871 1.372 . S
C1871 C1870 1.372 . S
C1871 C1872 1.400 . S
C1871 C1876 1.490 . S
C1872 H1862 0.930 . S
C1872 C1871 1.400 . S
C1872 C1875 1.386 . S
H1873 C1889 0.930 . S
H1874 C1890 0.931 . S
C1875 H1863 0.929 . S
C1875 C1869 1.390 . S
C1875 C1872 1.386 . S
C1876 C1871 1.490 . S
C1876 C1878 1.395 . S
C1876 C1879 1.403 . S
H1877 C1883 0.930 . S
C1878 H1864 0.930 . S
C1878 C1876 1.395 . S
C1878 C1881 1.403 . S
C1879 C1876 1.403 . S
C1879 C1880 1.524 . S
C1879 C1883 1.400 . S
C1880 H1865 0.960 . S
C1880 H1866 0.960 . S
C1880 H1867 0.960 . S
C1880 C1879 1.524 . S
C1881 C1878 1.403 . S
C1881 C1882 1.392 . S
C1881 C1885 1.495 . S
C1882 C1881 1.392 . S
C1882 C1883 1.385 . S
C1882 C1884 1.478 . S
C1883 H1877 0.930 . S
C1883 C1879 1.400 . S
C1883 C1882 1.385 . S
C1884 C1882 1.478 . S
C1884 C1886 1.381 . S
C1884 C1890 1.383 . S
C1885 C1881 1.495 . S
C1885 H1891 0.959 . S
C1885 H1892 0.961 . S
C1885 H1893 0.960 . S
C1886 C1884 1.381 . S
C1886 C1887 1.394 . S
C1886 H1894 0.930 . S
C1887 C1886 1.394 . S
C1887 C1888 1.383 . S
C1887 H1895 0.929 . S
C1888 C1887 1.383 . S
C1888 C1889 1.377 . S
C1889 H1873 0.930 . S
C1889 C1888 1.377 . S
C1889 C1890 1.379 . S
C1890 H1874 0.931 . S
C1890 C1884 1.383 . S
C1890 C1889 1.379 . S
H1891 C1885 0.959 . S
H1892 C1885 0.961 . S
H1893 C1885 0.960 . S
H1894 C1886 0.930 . S
H1895 C1887 0.929 . S
H1896 C1904 0.929 . S
H1897 C1906 0.930 . S
H1898 C1908 0.930 . S
H1899 C1911 0.929 . S
H1900 C1914 0.930 . S
H1901 C1916 0.960 . S
H1902 C1916 0.960 . S
H1903 C1916 0.960 . S
C1904 H1896 0.929 . S
C1904 C1905 1.377 . S
C1904 C1906 1.384 . S
C1905 C1904 1.377 . S
C1905 C1911 1.390 . S
C1906 H1897 0.930 . S
C1906 C1904 1.384 . S
C1906 C1907 1.372 . S
C1907 C1906 1.372 . S
C1907 C1908 1.400 . S
C1907 C1912 1.490 . S
C1908 H1898 0.930 . S
C1908 C1907 1.400 . S
C1908 C1911 1.386 . S
H1909 C1925 0.930 . S
H1910 C1926 0.931 . S
C1911 H1899 0.929 . S
C1911 C1905 1.390 . S
C1911 C1908 1.386 . S
C1912 C1907 1.490 . S
C1912 C1914 1.395 . S
C1912 C1915 1.403 . S
H1913 C1919 0.930 . S
C1914 H1900 0.930 . S
C1914 C1912 1.395 . S
C1914 C1917 1.403 . S
C1915 C1912 1.403 . S
C1915 C1916 1.524 . S
C1915 C1919 1.400 . S
C1916 H1901 0.960 . S
C1916 H1902 0.960 . S
C1916 H1903 0.960 . S
C1916 C1915 1.524 . S
C1917 C1914 1.403 . S
C1917 C1918 1.392 . S
C1917 C1921 1.495 . S
C1918 C1917 1.392 . S
C1918 C1919 1.385 . S
C1918 C1920 1.478 . S
C1919 H1913 0.930 . S
C1919 C1915 1.400 . S
C1919 C1918 1.385 . S
C1920 C1918 1.478 . S
C1920 C1922 1.381 . S
C1920 C1926 1.383 . S
C1921 C1917 1.495 . S
C1921 H1927 0.959 . S
C1921 H1928 0.961 . S
C1921 H1929 0.960 . S
C1922 C1920 1.381 . S
C1922 C1923 1.394 . S
C1922 H1930 0.930 . S
C1923 C1922 1.394 . S
C1923 C1924 1.383 . S
C1923 H1931 0.929 . S
C1924 C1923 1.383 . S
C1924 C1925 1.377 . S
C1925 H1909 0.930 . S
C1925 C1924 1.377 . S
C1925 C1926 1.379 . S
C1926 H1910 0.931 . S
C1926 C1920 1.383 . S
C1926 C1925 1.379 . S
H1927 C1921 0.959 . S
H1928 C1921 0.961 . S
H1929 C1921 0.960 . S
H1930 C1922 0.930 . S
H1931 C1923 0.929 . S
H1932 C1940 0.929 . S
H1933 C1942 0.930 . S
H1934 C1944 0.930 . S
H1935 C1947 0.929 . S
H1936 C1950 0.930 . S
H1937 C1952 0.960 . S
H1938 C1952 0.960 . S
H1939 C1952 0.960 . S
C1940 H1932 0.929 . S
C1940 C1941 1.377 . S
C1940 C1942 1.384 . S
C1941 C1940 1.377 . S
C1941 C1947 1.390 . S
C1942 H1933 0.930 . S
C1942 C1940 1.384 . S
C1942 C1943 1.372 . S
C1943 C1942 1.372 . S
C1943 C1944 1.400 . S
C1943 C1948 1.490 . S
C1944 H1934 0.930 . S
C1944 C1943 1.400 . S
C1944 C1947 1.386 . S
H1945 C1961 0.930 . S
H1946 C1962 0.931 . S
C1947 H1935 0.929 . S
C1947 C1941 1.390 . S
C1947 C1944 1.386 . S
C1948 C1943 1.490 . S
C1948 C1950 1.395 . S
C1948 C1951 1.403 . S
H1949 C1955 0.930 . S
C1950 H1936 0.930 . S
C1950 C1948 1.395 . S
C1950 C1953 1.403 . S
C1951 C1948 1.403 . S
C1951 C1952 1.524 . S
C1951 C1955 1.400 . S
C1952 H1937 0.960 . S
C1952 H1938 0.960 . S
C1952 H1939 0.960 . S
C1952 C1951 1.524 . S
C1953 C1950 1.403 . S
C1953 C1954 1.392 . S
C1953 C1957 1.495 . S
C1954 C1953 1.392 . S
C1954 C1955 1.385 . S
C1954 C1956 1.478 . S
C1955 H1949 0.930 . S
C1955 C1951 1.400 . S
C1955 C1954 1.385 . S
C1956 C1954 1.478 . S
C1956 C1958 1.381 . S
C1956 C1962 1.383 . S
C1957 C1953 1.495 . S
C1957 H1963 0.959 . S
C1957 H1964 0.961 . S
C1957 H1965 0.960 . S
C1958 C1956 1.381 . S
C1958 C1959 1.394 . S
C1958 H1966 0.930 . S
C1959 C1958 1.394 . S
C1959 C1960 1.383 . S
C1959 H1967 0.929 . S
C1960 C1959 1.383 . S
C1960 C1961 1.377 . S
C1961 H1945 0.930 . S
C1961 C1960 1.377 . S
C1961 C1962 1.379 . S
C1962 H1946 0.931 . S
C1962 C1956 1.383 . S
C1962 C1961 1.379 . S
H1963 C1957 0.959 . S
H1964 C1957 0.961 . S
H1965 C1957 0.960 . S
H1966 C1958 0.930 . S
H1967 C1959 0.929 . S
H1968 C1976 0.929 . S
H1969 C1978 0.930 . S
H1970 C1980 0.930 . S
H1971 C1983 0.929 . S
H1972 C1986 0.930 . S
H1973 C1988 0.960 . S
H1974 C1988 0.960 . S
H1975 C1988 0.960 . S
C1976 H1968 0.929 . S
C1976 C1977 1.377 . S
C1976 C1978 1.384 . S
C1977 C1976 1.377 . S
C1977 C1983 1.390 . S
C1978 H1969 0.930 . S
C1978 C1976 1.384 . S
C1978 C1979 1.372 . S
C1979 C1978 1.372 . S
C1979 C1980 1.400 . S
C1979 C1984 1.490 . S
C1980 H1970 0.930 . S
C1980 C1979 1.400 . S
C1980 C1983 1.386 . S
H1981 C1997 0.930 . S
H1982 C1998 0.931 . S
C1983 H1971 0.929 . S
C1983 C1977 1.390 . S
C1983 C1980 1.386 . S
C1984 C1979 1.490 . S
C1984 C1986 1.395 . S
C1984 C1987 1.403 . S
H1985 C1991 0.930 . S
C1986 H1972 0.930 . S
C1986 C1984 1.395 . S
C1986 C1989 1.403 . S
C1987 C1984 1.403 . S
C1987 C1988 1.524 . S
C1987 C1991 1.400 . S
C1988 H1973 0.960 . S
C1988 H1974 0.960 . S
C1988 H1975 0.960 . S
C1988 C1987 1.524 . S
C1989 C1986 1.403 . S
C1989 C1990 1.392 . S
C1989 C1993 1.495 . S
C1990 C1989 1.392 . S
C1990 C1991 1.385 . S
C1990 C1992 1.478 . S
C1991 H1985 0.930 . S
C1991 C1987 1.400 . S
C1991 C1990 1.385 . S
C1992 C1990 1.478 . S
C1992 C1994 1.381 . S
C1992 C1998 1.383 . S
C1993 C1989 1.495 . S
C1993 H1999 0.959 . S
C1993 H2000 0.961 . S
C1993 H2001 0.960 . S
C1994 C1992 1.381 . S
C1994 C1995 1.394 . S
C1994 H2002 0.930 . S
C1995 C1994 1.394 . S
C1995 C1996 1.383 . S
C1995 H2003 0.929 . S
C1996 C1995 1.383 . S
C1996 C1997 1.377 . S
C1997 H1981 0.930 . S
C1997 C1996 1.377 . S
C1997 C1998 1.379 . S
C1998 H1982 0.931 . S
C1998 C1992 1.383 . S
C1998 C1997 1.379 . S
H1999 C1993 0.959 . S
H2000 C1993 0.961 . S
H2001 C1993 0.960 . S
H2002 C1994 0.930 . S
H2003 C1995 0.929 . S
H2004 C2012 0.929 . S
H2005 C2014 0.930 . S
H2006 C2016 0.930 . S
H2007 C2019 0.929 . S
H2008 C2022 0.930 . S
H2009 C2024 0.960 . S
H2010 C2024 0.960 . S
H2011 C2024 0.960 . S
C2012 H2004 0.929 . S
C2012 C2013 1.377 . S
C2012 C2014 1.384 . S
C2013 C2012 1.377 . S
C2013 C2019 1.390 . S
C2014 H2005 0.930 . S
C2014 C2012 1.384 . S
C2014 C2015 1.372 . S
C2015 C2014 1.372 . S
C2015 C2016 1.400 . S
C2015 C2020 1.490 . S
C2016 H2006 0.930 . S
C2016 C2015 1.400 . S
C2016 C2019 1.386 . S
H2017 C2033 0.930 . S
H2018 C2034 0.931 . S
C2019 H2007 0.929 . S
C2019 C2013 1.390 . S
C2019 C2016 1.386 . S
C2020 C2015 1.490 . S
C2020 C2022 1.395 . S
C2020 C2023 1.403 . S
H2021 C2027 0.930 . S
C2022 H2008 0.930 . S
C2022 C2020 1.395 . S
C2022 C2025 1.403 . S
C2023 C2020 1.403 . S
C2023 C2024 1.524 . S
C2023 C2027 1.400 . S
C2024 H2009 0.960 . S
C2024 H2010 0.960 . S
C2024 H2011 0.960 . S
C2024 C2023 1.524 . S
C2025 C2022 1.403 . S
C2025 C2026 1.392 . S
C2025 C2029 1.495 . S
C2026 C2025 1.392 . S
C2026 C2027 1.385 . S
C2026 C2028 1.478 . S
C2027 H2021 0.930 . S
C2027 C2023 1.400 . S
C2027 C2026 1.385 . S
C2028 C2026 1.478 . S
C2028 C2030 1.381 . S
C2028 C2034 1.383 . S
C2029 C2025 1.495 . S
C2029 H2035 0.959 . S
C2029 H2036 0.961 . S
C2029 H2037 0.960 . S
C2030 C2028 1.381 . S
C2030 C2031 1.394 . S
C2030 H2038 0.930 . S
C2031 C2030 1.394 . S
C2031 C2032 1.383 . S
C2031 H2039 0.929 . S
C2032 C2031 1.383 . S
C2032 C2033 1.377 . S
C2033 H2017 0.930 . S
C2033 C2032 1.377 . S
C2033 C2034 1.379 . S
C2034 H2018 0.931 . S
C2034 C2028 1.383 . S
C2034 C2033 1.379 . S
H2035 C2029 0.959 . S
H2036 C2029 0.961 . S
H2037 C2029 0.960 . S
H2038 C2030 0.930 . S
H2039 C2031 0.929 . S
C321 C205 1.384 . S
C340 C10 1.382 . S
C357 C166 1.383 . S
C376 C17 1.379 . S
C393 C179 1.382 . S
C412 C36 1.383 . S
C429 C192 1.383 . S
C448 C43 1.379 . S
C465 C186 1.382 . S
C484 C23 1.383 . S
C501 C30 1.382 . S
C520 C199 1.381 . S
C537 C160 1.383 . S
C556 C49 1.378 . S
C573 C173 1.383 . S
C592 C4 1.384 . S
C609 C244 1.384 . S
C628 C56 1.381 . S
C645 C69 1.382 . S
C664 C251 1.382 . S
C681 C88 1.384 . S
C700 C212 1.377 . S
C717 C231 1.383 . S
C736 C101 1.377 . S
C753 C290 1.382 . S
C772 C114 1.381 . S
C789 C127 1.383 . S
C808 C309 1.383 . S
C825 C140 1.383 . S
C844 C264 1.377 . S
C861 C147 1.383 . S
C880 C283 1.384 . S
C897 C225 1.383 . S
C916 C153 1.383 . S
C933 C303 1.383 . S
C952 C75 1.379 . S
C969 C82 1.382 . S
C988 C270 1.382 . S
C1005 C277 1.384 . S
C1024 C95 1.378 . S
C1041 C296 1.383 . S
C1060 C62 1.380 . S
C1077 C121 1.383 . S
C1096 C257 1.384 . S
C1113 C218 1.384 . S
C1132 C134 1.380 . S
C1149 C238 1.383 . S
C1168 C108 1.384 . S
C1185 C3 0.961 . S
C1204 C55 0.939 . S
C1221 C68 0.965 . S
C1240 C18 0.979 . S
C1257 C29 0.965 . S
C1276 C83 0.958 . S
C1293 C44 0.956 . S
C1312 C96 0.957 . S
C1329 C109 0.962 . S
C1348 C16 0.982 . S
C1365 C122 0.956 . S
C1384 C31 0.951 . S
C1401 C135 0.964 . S
C1420 C42 0.956 . S
C1437 C5 0.961 . S
C1456 C146 0.939 . S
C1473 C148 0.958 . S
C1492 C57 0.973 . S
C1509 C70 0.965 . S
C1528 C107 0.968 . S
C1545 C81 0.963 . S
C1564 C120 0.983 . S
C1581 C133 0.958 . S
C1600 C94 0.972 . S
C1617 C211 0.964 . S
C1636 C161 0.945 . S
C1653 C226 0.959 . S
C1672 C174 0.966 . S
C1689 C187 0.961 . S
C1708 C239 0.961 . S
C1725 C200 0.964 . S
C1744 C250 0.939 . S
C1761 C172 0.960 . S
C1780 C263 0.963 . S
C1797 C185 0.957 . S
C1816 C278 0.974 . S
C1833 C289 0.964 . S
C1852 C198 0.941 . S
C1869 C159 0.965 . S
C1888 C304 0.939 . S
C1905 C213 0.963 . S
C1924 C302 0.944 . S
C1941 C265 0.961 . S
C1960 C224 0.953 . S
C1977 C237 0.965 . S
C1996 C276 0.939 . S
C2013 C291 0.962 . S
C2032 C252 0.951 . S
