# Generated by pormake.
# Topology ukf, (4)-cn, num edge types: 1
# Building blocks:
#     Node 0, Type 0, BuildingBlock: KUFVIS_clean_sbu_0, # of connection points: 4
#     Node 1, Type 0, BuildingBlock: KUFVIS_clean_sbu_0, # of connection points: 4
#     Node 2, Type 0, BuildingBlock: KUFVIS_clean_sbu_0, # of connection points: 4
#     Node 3, Type 0, BuildingBlock: KUFVIS_clean_sbu_0, # of connection points: 4
#     Node 4, Type 0, BuildingBlock: KUFVIS_clean_sbu_0, # of connection points: 4
#     Node 5, Type 0, BuildingBlock: KUFVIS_clean_sbu_0, # of connection points: 4
#     Node 6, Type 0, BuildingBlock: KUFVIS_clean_sbu_0, # of connection points: 4
#     Node 7, Type 0, BuildingBlock: KUFVIS_clean_sbu_0, # of connection points: 4
#     Node 8, Type 0, BuildingBlock: KUFVIS_clean_sbu_0, # of connection points: 4
#     Node 9, Type 0, BuildingBlock: KUFVIS_clean_sbu_0, # of connection points: 4
#     Node 10, Type 0, BuildingBlock: KUFVIS_clean_sbu_0, # of connection points: 4
#     Node 11, Type 0, BuildingBlock: KUFVIS_clean_sbu_0, # of connection points: 4
#     Edge 12, Type (0, 0), BuildingBlock: MIFKUJ_clean_linker_0, # of connection points: 2
#     Edge 13, Type (0, 0), BuildingBlock: MIFKUJ_clean_linker_0, # of connection points: 2
#     Edge 14, Type (0, 0), BuildingBlock: MIFKUJ_clean_linker_0, # of connection points: 2
#     Edge 15, Type (0, 0), BuildingBlock: MIFKUJ_clean_linker_0, # of connection points: 2
#     Edge 16, Type (0, 0), BuildingBlock: MIFKUJ_clean_linker_0, # of connection points: 2
#     Edge 17, Type (0, 0), BuildingBlock: MIFKUJ_clean_linker_0, # of connection points: 2
#     Edge 18, Type (0, 0), BuildingBlock: MIFKUJ_clean_linker_0, # of connection points: 2
#     Edge 19, Type (0, 0), BuildingBlock: MIFKUJ_clean_linker_0, # of connection points: 2
#     Edge 20, Type (0, 0), BuildingBlock: MIFKUJ_clean_linker_0, # of connection points: 2
#     Edge 21, Type (0, 0), BuildingBlock: MIFKUJ_clean_linker_0, # of connection points: 2
#     Edge 22, Type (0, 0), BuildingBlock: MIFKUJ_clean_linker_0, # of connection points: 2
#     Edge 23, Type (0, 0), BuildingBlock: MIFKUJ_clean_linker_0, # of connection points: 2
#     Edge 24, Type (0, 0), BuildingBlock: MIFKUJ_clean_linker_0, # of connection points: 2
#     Edge 25, Type (0, 0), BuildingBlock: MIFKUJ_clean_linker_0, # of connection points: 2
#     Edge 26, Type (0, 0), BuildingBlock: MIFKUJ_clean_linker_0, # of connection points: 2
#     Edge 27, Type (0, 0), BuildingBlock: MIFKUJ_clean_linker_0, # of connection points: 2
#     Edge 28, Type (0, 0), BuildingBlock: MIFKUJ_clean_linker_0, # of connection points: 2
#     Edge 29, Type (0, 0), BuildingBlock: MIFKUJ_clean_linker_0, # of connection points: 2
#     Edge 30, Type (0, 0), BuildingBlock: MIFKUJ_clean_linker_0, # of connection points: 2
#     Edge 31, Type (0, 0), BuildingBlock: MIFKUJ_clean_linker_0, # of connection points: 2
#     Edge 32, Type (0, 0), BuildingBlock: MIFKUJ_clean_linker_0, # of connection points: 2
#     Edge 33, Type (0, 0), BuildingBlock: MIFKUJ_clean_linker_0, # of connection points: 2
#     Edge 34, Type (0, 0), BuildingBlock: MIFKUJ_clean_linker_0, # of connection points: 2
#     Edge 35, Type (0, 0), BuildingBlock: MIFKUJ_clean_linker_0, # of connection points: 2
# Relax obj value: 0.099
# Max RMSD: 0.094
# Mean RMSD: 0.094
data_MOF--net-ukf--node1-KUFVIS_clean_sbu_0--edge1-MIFKUJ_clean_linker_0
_symmetry_space_group_name_H-M    P1
_symmetry_Int_Tables_number       1
_symmetry_cell_setting            triclinic
loop_
_symmetry_equiv_pos_as_xyz
'x, y, z'
_cell_length_a     42.184667
_cell_length_b     42.206492
_cell_length_c     82.010987
_cell_angle_alpha  90.014429
_cell_angle_beta   89.99191
_cell_angle_gamma 119.92517
loop_
_atom_site_label
_atom_site_type_symbol
_atom_site_fract_x
_atom_site_fract_y
_atom_site_fract_z
_atom_type_partial_charge
Mn0 Mn 0.41879 0.23379 0.04913 0.0
Mn1 Mn 0.48815 0.27984 0.07567 0.0
C2 C 0.47842 0.25445 0.0407 0.0
C3 C 0.37398 0.17672 0.03904 0.0
C4 C 0.44815 0.31351 0.0584 0.0
O5 O 0.39306 0.224 0.07124 0.0
O6 O 0.44233 0.2483 0.08781 0.0
C7 C 0.49311 0.2183 0.09028 0.0
N8 N 0.50928 0.25119 0.08252 0.0
C9 C 0.56819 0.25527 0.08372 0.0
C10 C 0.55222 0.22156 0.09185 0.0
C11 C 0.51448 0.20293 0.09508 0.0
C12 C 0.5455 0.26924 0.07927 0.0
H13 H 0.46415 0.20395 0.09277 0.0
C14 C 0.40782 0.22999 0.08532 0.0
O15 O 0.37075 0.20561 0.03732 0.0
O16 O 0.40258 0.18102 0.04679 0.0
N17 N 0.53444 0.31119 0.06569 0.0
C18 C 0.54495 0.34174 0.05651 0.0
C19 C 0.58176 0.36316 0.05191 0.0
C20 C 0.60738 0.35321 0.05698 0.0
C21 C 0.59581 0.32121 0.06607 0.0
C22 C 0.55887 0.30115 0.07043 0.0
H23 H 0.52551 0.34996 0.05287 0.0
O24 O 0.45238 0.24539 0.03017 0.0
O25 O 0.46858 0.24996 0.05596 0.0
O26 O 0.42814 0.28671 0.04897 0.0
O27 O 0.46919 0.31236 0.0693 0.0
C28 C 0.61941 0.30826 0.07082 0.0
C29 C 0.60556 0.27519 0.07957 0.0
H30 H 0.56859 0.20956 0.09552 0.0
H31 H 0.5019 0.1768 0.10126 0.0
H32 H 0.59047 0.38761 0.0447 0.0
H33 H 0.63593 0.3703 0.05386 0.0
H34 H 0.64812 0.3232 0.06758 0.0
H35 H 0.62381 0.26514 0.08289 0.0
Mn36 Mn 0.18437 0.41227 0.38246 0.0
Mn37 Mn 0.21848 0.4873 0.40638 0.0
C38 C 0.2246 0.46933 0.37192 0.0
C39 C 0.19287 0.365 0.37188 0.0
C40 C 0.14212 0.45186 0.39174 0.0
O41 O 0.17288 0.39027 0.40537 0.0
O42 O 0.198 0.44251 0.41997 0.0
C43 C 0.28039 0.48129 0.41989 0.0
N44 N 0.26767 0.50119 0.41207 0.0
C45 C 0.32847 0.55285 0.40964 0.0
C46 C 0.34219 0.53307 0.41782 0.0
C47 C 0.31809 0.49703 0.42283 0.0
C48 C 0.29073 0.5356 0.40686 0.0
H49 H 0.26193 0.45356 0.42374 0.0
C50 C 0.18102 0.40759 0.41889 0.0
O51 O 0.16068 0.36215 0.37178 0.0
O52 O 0.21875 0.39383 0.37873 0.0
N53 N 0.23935 0.53293 0.39501 0.0
C54 C 0.22206 0.54745 0.38635 0.0
C55 C 0.24248 0.58295 0.37998 0.0
C56 C 0.28035 0.60334 0.38278 0.0
C57 C 0.29743 0.58804 0.39194 0.0
C58 C 0.27567 0.55256 0.39799 0.0
H59 H 0.19293 0.532 0.38424 0.0
O60 O 0.20355 0.44276 0.36228 0.0
O61 O 0.2217 0.46162 0.38733 0.0
O62 O 0.14284 0.42549 0.38418 0.0
O63 O 0.16866 0.47522 0.40045 0.0
C64 C 0.33525 0.6065 0.39519 0.0
C65 C 0.35084 0.58878 0.40387 0.0
H66 H 0.37122 0.5451 0.42014 0.0
H67 H 0.32864 0.48143 0.42887 0.0
H68 H 0.22907 0.59457 0.37295 0.0
H69 H 0.29605 0.63064 0.37778 0.0
H70 H 0.35269 0.63412 0.39083 0.0
H71 H 0.3801 0.60295 0.40593 0.0
Mn72 Mn 0.77766 0.19013 0.7147 0.0
Mn73 Mn 0.72685 0.21794 0.73563 0.0
C74 C 0.75903 0.22729 0.7024 0.0
C75 C 0.83601 0.20164 0.70678 0.0
C76 C 0.69544 0.14186 0.72132 0.0
O77 O 0.78464 0.17959 0.73837 0.0
O78 O 0.75237 0.20193 0.75102 0.0
C79 C 0.7873 0.28376 0.7511 0.0
N80 N 0.75691 0.26817 0.7415 0.0
C81 C 0.76061 0.32629 0.73706 0.0
C82 C 0.79182 0.34294 0.74699 0.0
C83 C 0.80524 0.32158 0.75401 0.0
C84 C 0.7438 0.28847 0.73466 0.0
H85 H 0.79778 0.26745 0.75645 0.0
C86 C 0.7726 0.18721 0.75122 0.0
O87 O 0.8078 0.16883 0.70604 0.0
O88 O 0.8304 0.22673 0.7128 0.0
N89 N 0.70078 0.23438 0.7222 0.0
C90 C 0.67149 0.21442 0.71229 0.0
C91 C 0.65528 0.23189 0.70404 0.0
C92 C 0.66901 0.26951 0.70621 0.0
C93 C 0.69899 0.28943 0.71655 0.0
C94 C 0.71389 0.27052 0.72454 0.0
H95 H 0.66074 0.18545 0.7106 0.0
O96 O 0.76863 0.20799 0.6936 0.0
O97 O 0.76085 0.22444 0.71809 0.0
O98 O 0.72467 0.14618 0.71449 0.0
O99 O 0.69383 0.1665 0.72972 0.0
C100 C 0.71509 0.3274 0.71901 0.0
C101 C 0.74594 0.34584 0.72923 0.0
H102 H 0.80585 0.37213 0.7492 0.0
H103 H 0.82942 0.33426 0.76162 0.0
H104 H 0.63239 0.21647 0.69595 0.0
H105 H 0.65645 0.28285 0.69978 0.0
H106 H 0.70429 0.34278 0.71292 0.0
H107 H 0.75839 0.37512 0.73084 0.0
Mn108 Mn 0.58531 0.7718 0.05108 0.0
Mn109 Mn 0.51377 0.72423 0.07651 0.0
C110 C 0.52615 0.7499 0.04172 0.0
C111 C 0.62976 0.82875 0.04069 0.0
C112 C 0.55436 0.69085 0.05983 0.0
O113 O 0.60965 0.78357 0.07351 0.0
O114 O 0.55955 0.75222 0.08912 0.0
C115 C 0.51307 0.78715 0.09211 0.0
N116 N 0.49534 0.7549 0.08386 0.0
C117 C 0.4385 0.7552 0.08491 0.0
C118 C 0.45609 0.78834 0.0935 0.0
C119 C 0.49357 0.80445 0.09705 0.0
C120 C 0.45938 0.73931 0.08027 0.0
H121 H 0.54186 0.79955 0.0949 0.0
C122 C 0.59402 0.77317 0.08735 0.0
O123 O 0.63401 0.80032 0.03979 0.0
O124 O 0.60041 0.82407 0.04787 0.0
N125 N 0.46719 0.69564 0.06631 0.0
C126 C 0.45478 0.66454 0.05732 0.0
C127 C 0.41775 0.64486 0.05286 0.0
C128 C 0.3939 0.65726 0.05774 0.0
C129 C 0.40739 0.68962 0.06677 0.0
C130 C 0.44437 0.70769 0.07113 0.0
H131 H 0.47287 0.65452 0.05378 0.0
O132 O 0.55291 0.75854 0.03163 0.0
O133 O 0.53485 0.75502 0.05712 0.0
O134 O 0.57734 0.71916 0.05182 0.0
O135 O 0.53035 0.69047 0.06942 0.0
C136 C 0.3856 0.70463 0.07162 0.0
C137 C 0.40121 0.73756 0.08058 0.0
H138 H 0.44115 0.80177 0.09732 0.0
H139 H 0.50737 0.83009 0.10362 0.0
H140 H 0.40747 0.61993 0.04588 0.0
H141 H 0.3652 0.64161 0.0546 0.0
H142 H 0.35691 0.6913 0.06836 0.0
H143 H 0.38433 0.74913 0.08404 0.0
Mn144 Mn 0.81147 0.5814 0.3839 0.0
Mn145 Mn 0.77961 0.51204 0.41103 0.0
C146 C 0.77107 0.52216 0.37551 0.0
C147 C 0.80345 0.62734 0.37149 0.0
C148 C 0.85336 0.54192 0.39446 0.0
O149 O 0.82532 0.60859 0.40567 0.0
O150 O 0.80405 0.55989 0.42225 0.0
C151 C 0.72252 0.5255 0.42493 0.0
N152 N 0.73234 0.50233 0.41798 0.0
C153 C 0.67052 0.45217 0.41935 0.0
C154 C 0.65977 0.47538 0.42663 0.0
C155 C 0.68585 0.51227 0.42933 0.0
C156 C 0.70737 0.46699 0.41508 0.0
H157 H 0.74248 0.55387 0.42702 0.0
C158 C 0.82025 0.59434 0.4198 0.0
O159 O 0.83527 0.62938 0.37149 0.0
O160 O 0.77742 0.59977 0.37902 0.0
N161 N 0.75503 0.46347 0.40255 0.0
C162 C 0.76963 0.44505 0.39488 0.0
C163 C 0.74724 0.40778 0.39139 0.0
C164 C 0.71027 0.38987 0.39598 0.0
C165 C 0.6958 0.40932 0.40379 0.0
C166 C 0.71955 0.44626 0.40719 0.0
H167 H 0.79812 0.45867 0.39147 0.0
O168 O 0.79115 0.54721 0.36505 0.0
O169 O 0.77409 0.53273 0.39063 0.0
O170 O 0.85279 0.56792 0.38645 0.0
O171 O 0.82745 0.52018 0.4039 0.0
C172 C 0.65874 0.39353 0.40829 0.0
C173 C 0.64604 0.41502 0.41596 0.0
H174 H 0.63153 0.46528 0.43007 0.0
H175 H 0.67762 0.53042 0.43474 0.0
H176 H 0.75854 0.39284 0.38535 0.0
H177 H 0.69323 0.36113 0.39363 0.0
H178 H 0.6397 0.36501 0.40572 0.0
H179 H 0.61738 0.40275 0.41915 0.0
Mn180 Mn 0.23693 0.82291 0.71387 0.0
Mn181 Mn 0.28417 0.79381 0.73668 0.0
C182 C 0.25332 0.78259 0.70304 0.0
C183 C 0.17949 0.81347 0.70572 0.0
C184 C 0.31905 0.86899 0.72105 0.0
O185 O 0.23042 0.83664 0.73704 0.0
O186 O 0.25902 0.81205 0.75107 0.0
C187 C 0.221 0.72994 0.75185 0.0
N188 N 0.25244 0.74421 0.74299 0.0
C189 C 0.24728 0.68506 0.74014 0.0
C190 C 0.21514 0.66981 0.74947 0.0
C191 C 0.20186 0.69233 0.75528 0.0
C192 C 0.26523 0.72274 0.73717 0.0
H193 H 0.21067 0.74717 0.75628 0.0
C194 C 0.24066 0.82868 0.75032 0.0
O195 O 0.20878 0.84529 0.70406 0.0
O196 O 0.18363 0.78804 0.71241 0.0
N197 N 0.30994 0.7753 0.72433 0.0
C198 C 0.34009 0.79395 0.71474 0.0
C199 C 0.3562 0.77519 0.70755 0.0
C200 C 0.34151 0.73766 0.71047 0.0
C201 C 0.31062 0.71911 0.72047 0.0
C202 C 0.2959 0.73928 0.72741 0.0
H203 H 0.35168 0.82286 0.71253 0.0
O204 O 0.24485 0.80172 0.69349 0.0
O205 O 0.2515 0.78733 0.71857 0.0
O206 O 0.29088 0.86517 0.71335 0.0
O207 O 0.31873 0.84451 0.73032 0.0
C208 C 0.29349 0.68129 0.7236 0.0
C209 C 0.26176 0.66425 0.73338 0.0
H210 H 0.2002 0.64079 0.75208 0.0
H211 H 0.17693 0.68072 0.76238 0.0
H212 H 0.37986 0.7896 0.69973 0.0
H213 H 0.35405 0.72334 0.7049 0.0
H214 H 0.30413 0.66495 0.71832 0.0
H215 H 0.24847 0.63505 0.73547 0.0
Mn216 Mn 0.77756 0.58984 0.61509 0.0
Mn217 Mn 0.7324 0.51612 0.59079 0.0
C218 C 0.75794 0.53194 0.62572 0.0
C219 C 0.83445 0.63672 0.62433 0.0
C220 C 0.6977 0.55786 0.60551 0.0
O221 O 0.78673 0.6117 0.59208 0.0
O222 O 0.76393 0.55976 0.57741 0.0
C223 C 0.79507 0.50972 0.5786 0.0
N224 N 0.76152 0.49436 0.58577 0.0
C225 C 0.75779 0.43565 0.58712 0.0
C226 C 0.79201 0.45066 0.57947 0.0
C227 C 0.81084 0.48792 0.5753 0.0
C228 C 0.74346 0.45872 0.59009 0.0
H229 H 0.80975 0.53841 0.57557 0.0
C230 C 0.78163 0.59464 0.5786 0.0
O231 O 0.80529 0.63972 0.62538 0.0
O232 O 0.83054 0.60719 0.61768 0.0
N233 N 0.70097 0.4715 0.60199 0.0
C234 C 0.66963 0.46201 0.6104 0.0
C235 C 0.64767 0.42576 0.61564 0.0
C236 C 0.65811 0.39968 0.61213 0.0
C237 C 0.69088 0.41024 0.6038 0.0
C238 C 0.71124 0.44655 0.59858 0.0
H239 H 0.66107 0.48173 0.61286 0.0
O240 O 0.76669 0.55958 0.63526 0.0
O241 O 0.76205 0.53924 0.6102 0.0
O242 O 0.72433 0.57952 0.61467 0.0
O243 O 0.69945 0.53566 0.59545 0.0
C244 C 0.70415 0.38618 0.60049 0.0
C245 C 0.73773 0.39895 0.59227 0.0
H246 H 0.80433 0.43398 0.57696 0.0
H247 H 0.83747 0.49983 0.56958 0.0
H248 H 0.6225 0.41783 0.62216 0.0
H249 H 0.64075 0.37156 0.61585 0.0
H250 H 0.68902 0.35795 0.60444 0.0
H251 H 0.74804 0.3804 0.59009 0.0
Mn252 Mn 0.18518 0.77194 0.95238 0.0
Mn253 Mn 0.21552 0.72251 0.93206 0.0
C254 C 0.22366 0.75548 0.96513 0.0
C255 C 0.19417 0.82979 0.95925 0.0
C256 C 0.13881 0.68967 0.94588 0.0
O257 O 0.17413 0.77728 0.9286 0.0
O258 O 0.19953 0.74737 0.91633 0.0
C259 C 0.28161 0.78361 0.91709 0.0
N260 N 0.26594 0.75317 0.92664 0.0
C261 C 0.32422 0.75757 0.93163 0.0
C262 C 0.34098 0.78886 0.92177 0.0
C263 C 0.31958 0.80197 0.9145 0.0
C264 C 0.28628 0.74041 0.93375 0.0
H265 H 0.26524 0.79381 0.91153 0.0
C266 C 0.18324 0.7661 0.91591 0.0
O267 O 0.16208 0.80072 0.96055 0.0
O268 O 0.22025 0.82524 0.95361 0.0
N269 N 0.23189 0.69694 0.94584 0.0
C270 C 0.21167 0.66723 0.95547 0.0
C271 C 0.22899 0.6509 0.96375 0.0
C272 C 0.26681 0.6651 0.96195 0.0
C273 C 0.28701 0.69556 0.95189 0.0
C274 C 0.26819 0.71041 0.9438 0.0
H275 H 0.18256 0.65608 0.95684 0.0
O276 O 0.20381 0.76483 0.97369 0.0
O277 O 0.22072 0.75649 0.94941 0.0
O278 O 0.14241 0.71841 0.95291 0.0
O279 O 0.16391 0.68888 0.93749 0.0
C280 C 0.32513 0.71202 0.94973 0.0
C281 C 0.34375 0.74309 0.93966 0.0
H282 H 0.37027 0.80317 0.91978 0.0
H283 H 0.33233 0.82619 0.90693 0.0
H284 H 0.21321 0.6274 0.97149 0.0
H285 H 0.28004 0.65241 0.96835 0.0
H286 H 0.34046 0.70128 0.95592 0.0
H287 H 0.37312 0.7558 0.93826 0.0
Mn288 Mn 0.41688 0.18562 0.28277 0.0
Mn289 Mn 0.489 0.21513 0.25717 0.0
C290 C 0.47563 0.22375 0.29244 0.0
C291 C 0.37094 0.19608 0.2935 0.0
C292 C 0.45046 0.13891 0.27197 0.0
O293 O 0.39294 0.17411 0.26026 0.0
O294 O 0.44351 0.19918 0.24454 0.0
C295 C 0.48938 0.28092 0.24445 0.0
N296 N 0.50687 0.26543 0.25218 0.0
C297 C 0.56299 0.32304 0.25335 0.0
C298 C 0.54566 0.33961 0.24533 0.0
C299 C 0.5086 0.31852 0.241 0.0
C300 C 0.54216 0.28569 0.25687 0.0
H301 H 0.46106 0.26464 0.24086 0.0
C302 C 0.40883 0.18309 0.24642 0.0
O303 O 0.36754 0.1637 0.29392 0.0
O304 O 0.40023 0.22147 0.28665 0.0
N305 N 0.5354 0.2314 0.26734 0.0
C306 C 0.54915 0.2106 0.27337 0.0
C307 C 0.58596 0.22747 0.27822 0.0
C308 C 0.60863 0.26533 0.27621 0.0
C309 C 0.59442 0.28586 0.26913 0.0
C310 C 0.55737 0.26763 0.26478 0.0
H311 H 0.53217 0.18135 0.27459 0.0
O312 O 0.44899 0.20457 0.30241 0.0
O313 O 0.46686 0.22075 0.27711 0.0
O314 O 0.42746 0.14248 0.28095 0.0
O315 O 0.47279 0.16382 0.26229 0.0
C316 C 0.61594 0.3234 0.26564 0.0
C317 C 0.60029 0.34191 0.25767 0.0
H318 H 0.56057 0.36847 0.24237 0.0
H319 H 0.49502 0.33111 0.23482 0.0
H320 H 0.59689 0.21127 0.28333 0.0
H321 H 0.63711 0.27821 0.27979 0.0
H322 H 0.64471 0.33819 0.26879 0.0
H323 H 0.61737 0.37061 0.25477 0.0
Mn324 Mn 0.23979 0.42226 0.61698 0.0
Mn325 Mn 0.29104 0.49818 0.59454 0.0
C326 C 0.26176 0.47959 0.62866 0.0
C327 C 0.18134 0.37745 0.62581 0.0
C328 C 0.32081 0.45218 0.6091 0.0
O329 O 0.23025 0.40247 0.59359 0.0
O330 O 0.26236 0.45568 0.58016 0.0
C331 C 0.23129 0.50581 0.57962 0.0
N332 N 0.26283 0.52029 0.58841 0.0
C333 C 0.26581 0.57862 0.59007 0.0
C334 C 0.2334 0.5644 0.58097 0.0
C335 C 0.216 0.5278 0.57578 0.0
C336 C 0.27966 0.55537 0.59356 0.0
H337 H 0.21794 0.47773 0.57555 0.0
C338 C 0.24128 0.42098 0.58041 0.0
O339 O 0.20886 0.37166 0.62632 0.0
O340 O 0.18765 0.40826 0.61965 0.0
N341 N 0.32036 0.54184 0.60672 0.0
C342 C 0.35035 0.55071 0.61607 0.0
C343 C 0.37119 0.58646 0.62209 0.0
C344 C 0.36102 0.61266 0.61839 0.0
C345 C 0.3296 0.60269 0.60907 0.0
C346 C 0.31035 0.56688 0.60313 0.0
H347 H 0.35867 0.53083 0.61867 0.0
O348 O 0.25164 0.4509 0.63768 0.0
O349 O 0.25832 0.47385 0.613 0.0
O350 O 0.29185 0.42881 0.6166 0.0
O351 O 0.32264 0.47803 0.60036 0.0
C352 C 0.31667 0.62688 0.6054 0.0
C353 C 0.28463 0.61476 0.59601 0.0
H354 H 0.22152 0.58126 0.578 0.0
H355 H 0.19093 0.5166 0.5688 0.0
H356 H 0.39532 0.59393 0.62936 0.0
H357 H 0.37762 0.64045 0.62268 0.0
H358 H 0.33093 0.65472 0.6099 0.0
H359 H 0.27463 0.63343 0.59348 0.0
Mn360 Mn 0.8189 0.23302 0.95231 0.0
Mn361 Mn 0.78425 0.27774 0.93148 0.0
C362 C 0.78389 0.25318 0.9656 0.0
C363 C 0.80987 0.1767 0.96168 0.0
C364 C 0.86407 0.31282 0.94179 0.0
O365 O 0.82444 0.22216 0.92846 0.0
O366 O 0.79407 0.2471 0.91623 0.0
C367 C 0.71339 0.21422 0.92173 0.0
N368 N 0.73249 0.24738 0.92915 0.0
C369 C 0.67695 0.24691 0.93639 0.0
C370 C 0.65673 0.21307 0.92853 0.0
C371 C 0.67503 0.19659 0.92124 0.0
C372 C 0.71514 0.26331 0.93637 0.0
H373 H 0.72731 0.20119 0.91635 0.0
C374 C 0.81053 0.22848 0.91588 0.0
O375 O 0.84269 0.2048 0.96062 0.0
O376 O 0.78331 0.18094 0.95652 0.0
N377 N 0.77303 0.30798 0.94492 0.0
C378 C 0.79633 0.33915 0.95312 0.0
C379 C 0.78224 0.35816 0.96174 0.0
C380 C 0.74441 0.34508 0.96178 0.0
C381 C 0.72099 0.31309 0.95318 0.0
C382 C 0.73663 0.29548 0.94468 0.0
H383 H 0.82543 0.34939 0.95314 0.0
O384 O 0.80547 0.24559 0.97384 0.0
O385 O 0.78337 0.24845 0.94997 0.0
O386 O 0.86177 0.28592 0.94998 0.0
O387 O 0.83739 0.31145 0.93378 0.0
C388 C 0.68268 0.29758 0.953 0.0
C389 C 0.66067 0.26447 0.94463 0.0
H390 H 0.62713 0.19923 0.92826 0.0
H391 H 0.6596 0.17024 0.91535 0.0
H392 H 0.80049 0.3828 0.96837 0.0
H393 H 0.73362 0.35964 0.96857 0.0
H394 H 0.66982 0.31054 0.95948 0.0
H395 H 0.63121 0.25243 0.94486 0.0
Mn396 Mn 0.58828 0.81492 0.28507 0.0
Mn397 Mn 0.50805 0.77759 0.26471 0.0
C398 C 0.53453 0.77316 0.29781 0.0
C399 C 0.63938 0.80924 0.29245 0.0
C400 C 0.54308 0.8534 0.27983 0.0
O401 O 0.60528 0.82735 0.26146 0.0
O402 O 0.55004 0.8015 0.24948 0.0
C403 C 0.51612 0.72036 0.24748 0.0
N404 N 0.49645 0.72999 0.25742 0.0
C405 C 0.44706 0.66781 0.2588 0.0
C406 C 0.4667 0.65724 0.24851 0.0
C407 C 0.50148 0.68361 0.2429 0.0
C408 C 0.46324 0.70477 0.26309 0.0
H409 H 0.54275 0.74056 0.24304 0.0
C410 C 0.58501 0.8192 0.24883 0.0
O411 O 0.64041 0.84051 0.29365 0.0
O412 O 0.60974 0.78259 0.28651 0.0
N413 N 0.46443 0.75281 0.27755 0.0
C414 C 0.44961 0.76718 0.2879 0.0
C415 C 0.41512 0.74425 0.29484 0.0
C416 C 0.39593 0.7069 0.29087 0.0
C417 C 0.4115 0.6928 0.28003 0.0
C418 C 0.44607 0.71692 0.2736 0.0
H419 H 0.46426 0.79579 0.29103 0.0
O420 O 0.56291 0.79518 0.30633 0.0
O421 O 0.53851 0.77561 0.28207 0.0
O422 O 0.57239 0.85466 0.28519 0.0
O423 O 0.51789 0.82586 0.27222 0.0
C424 C 0.39413 0.65573 0.27539 0.0
C425 C 0.41206 0.64315 0.26494 0.0
H426 H 0.45539 0.62895 0.24488 0.0
H427 H 0.51685 0.67565 0.23499 0.0
H428 H 0.40335 0.75534 0.30324 0.0
H429 H 0.36936 0.68927 0.29626 0.0
H430 H 0.3671 0.63656 0.27991 0.0
H431 H 0.39866 0.61447 0.2617 0.0
H432 H 0.24569 0.89577 0.94764 0.0
H433 H 0.26809 0.95544 0.96044 0.0
H434 H 0.18581 0.9058 0.99789 0.0
H435 H 0.16216 0.84601 0.98458 0.0
H436 H 0.19959 0.97407 0.9922 0.0
H437 H 0.27158 0.91763 0.00306 0.0
H438 H 0.30655 0.88739 0.99541 0.0
H439 H 0.38402 0.98365 0.96955 0.0
H440 H 0.34899 0.01418 0.97673 0.0
H441 H 0.36571 0.11065 0.04718 0.0
H442 H 0.32745 0.05182 0.03403 0.0
H443 H 0.28595 0.10212 0.001 0.0
H444 H 0.3235 0.16116 0.01462 0.0
H445 H 0.33167 0.03179 0.00544 0.0
H446 H 0.20257 0.03762 0.98574 0.0
H447 H 0.16471 0.06326 0.99551 0.0
H448 H 0.19889 0.06208 0.04471 0.0
H449 H 0.23655 0.036 0.03527 0.0
C450 C 0.23177 0.89772 0.95837 0.0
C451 C 0.2024 0.86623 0.96521 0.0
C452 C 0.2447 0.93184 0.96573 0.0
C453 C 0.22936 0.93505 0.98042 0.0
C454 C 0.19828 0.90404 0.98663 0.0
C455 C 0.18476 0.86988 0.97902 0.0
C456 C 0.24813 0.96971 0.99001 0.0
C457 C 0.22848 0.98678 0.99507 0.0
C458 C 0.28565 0.98591 0.99418 0.0
C459 C 0.30747 0.96807 0.99031 0.0
C460 C 0.29599 0.9323 0.99568 0.0
C461 C 0.31579 0.91508 0.99141 0.0
C462 C 0.34744 0.93355 0.98196 0.0
C463 C 0.35945 0.96935 0.97684 0.0
C464 C 0.33962 0.98662 0.981 0.0
C465 C 0.34806 0.10915 0.03727 0.0
C466 C 0.34771 0.14063 0.03193 0.0
C467 C 0.32623 0.07543 0.02969 0.0
C468 C 0.30368 0.07225 0.01646 0.0
C469 C 0.3026 0.10355 0.01132 0.0
C470 C 0.32417 0.13736 0.01909 0.0
C471 C 0.28334 0.03669 0.00756 0.0
C472 C 0.30278 0.01932 0.00259 0.0
C473 C 0.24547 0.01982 0.00394 0.0
C474 C 0.22269 0.03523 0.00976 0.0
C475 C 0.20191 0.04273 0.99865 0.0
C476 C 0.1805 0.05736 0.00413 0.0
C477 C 0.17949 0.06442 0.02071 0.0
C478 C 0.19981 0.05675 0.03186 0.0
C479 C 0.22123 0.04209 0.02645 0.0
H480 H 0.16291 0.07576 0.02492 0.0
H481 H 0.3627 0.92016 0.97864 0.0
H482 H 0.14792 0.29132 0.36463 0.0
H483 H 0.16614 0.25072 0.35078 0.0
H484 H 0.27586 0.34125 0.34553 0.0
H485 H 0.25853 0.38108 0.35962 0.0
H486 H 0.23342 0.29172 0.3152 0.0
H487 H 0.27589 0.29628 0.37176 0.0
H488 H 0.26421 0.28577 0.40128 0.0
H489 H 0.187 0.17259 0.3923 0.0
H490 H 0.19787 0.18266 0.36267 0.0
H491 H 0.37561 0.26255 0.29452 0.0
H492 H 0.33387 0.27938 0.30691 0.0
H493 H 0.26286 0.16751 0.32155 0.0
H494 H 0.30558 0.15037 0.3093 0.0
H495 H 0.26938 0.21321 0.34588 0.0
H496 H 0.23808 0.20486 0.2901 0.0
H497 H 0.24809 0.21392 0.26045 0.0
H498 H 0.29882 0.33011 0.26687 0.0
H499 H 0.28964 0.32183 0.29659 0.0
C500 C 0.17588 0.30238 0.36053 0.0
C501 C 0.20181 0.33935 0.36333 0.0
C502 C 0.18625 0.27922 0.35265 0.0
C503 C 0.22242 0.29303 0.34716 0.0
C504 C 0.2479 0.33 0.34969 0.0
C505 C 0.23789 0.3527 0.35782 0.0
C506 C 0.23463 0.26978 0.33868 0.0
C507 C 0.24109 0.27434 0.32184 0.0
C508 C 0.24366 0.24633 0.34728 0.0
C509 C 0.23725 0.24033 0.36503 0.0
C510 C 0.2561 0.26927 0.37608 0.0
C511 C 0.24972 0.26337 0.39282 0.0
C512 C 0.22476 0.22857 0.39866 0.0
C513 C 0.20623 0.19956 0.38776 0.0
C514 C 0.2125 0.20535 0.37099 0.0
C515 C 0.35106 0.24128 0.30027 0.0
C516 C 0.34392 0.20497 0.30079 0.0
C517 C 0.32699 0.25099 0.30731 0.0
C518 C 0.29467 0.22468 0.31492 0.0
C519 C 0.28744 0.18833 0.31565 0.0
C520 C 0.31181 0.17852 0.3086 0.0
C521 C 0.2695 0.23611 0.32235 0.0
C522 C 0.26075 0.22957 0.33902 0.0
C523 C 0.25793 0.25748 0.31352 0.0
C524 C 0.26327 0.2627 0.29561 0.0
C525 C 0.25155 0.23237 0.28521 0.0
C526 C 0.25707 0.23737 0.26838 0.0
C527 C 0.27411 0.27257 0.26178 0.0
C528 C 0.2856 0.30285 0.272 0.0
C529 C 0.28019 0.29802 0.28884 0.0
H530 H 0.27837 0.27638 0.24875 0.0
H531 H 0.21986 0.22404 0.41163 0.0
H532 H 0.8952 0.26971 0.70431 0.0
H533 H 0.9522 0.28849 0.6898 0.0
H534 H 0.91697 0.17608 0.67838 0.0
H535 H 0.85878 0.15673 0.69275 0.0
H536 H 1.00065 0.23431 0.69117 0.0
H537 H 0.90835 0.20675 0.64916 0.0
H538 H 0.85577 0.20991 0.63791 0.0
H539 H 0.91856 0.32719 0.63835 0.0
H540 H 0.97133 0.32471 0.64985 0.0
H541 H 0.15381 0.30596 0.63595 0.0
H542 H 0.09392 0.26593 0.64855 0.0
H543 H 0.06815 0.35268 0.64519 0.0
H544 H 0.12649 0.3916 0.63204 0.0
H545 H 0.01102 0.29492 0.63804 0.0
H546 H 0.09816 0.32738 0.68184 0.0
H547 H 0.15155 0.33145 0.69611 0.0
H548 H 0.10143 0.21445 0.69541 0.0
H549 H 0.0479 0.20974 0.68096 0.0
C550 C 0.89954 0.24873 0.69894 0.0
C551 C 0.87224 0.21163 0.69966 0.0
C552 C 0.93225 0.25962 0.69064 0.0
C553 C 0.93876 0.23373 0.683 0.0
C554 C 0.91244 0.19646 0.68426 0.0
C555 C 0.87924 0.18547 0.69244 0.0
C556 C 0.97206 0.24663 0.6728 0.0
C557 C 1.00283 0.24675 0.67934 0.0
C558 C 0.97513 0.26398 0.65768 0.0
C559 C 0.94368 0.26551 0.65046 0.0
C560 C 0.91084 0.2332 0.64697 0.0
C561 C 0.88102 0.23488 0.64053 0.0
C562 C 0.8838 0.26873 0.63745 0.0
C563 C 0.91644 0.30099 0.64076 0.0
C564 C 0.94633 0.29946 0.64721 0.0
C565 C 0.13515 0.31625 0.63781 0.0
C566 C 0.14494 0.35195 0.63295 0.0
C567 C 0.10099 0.29345 0.64512 0.0
C568 C 0.07637 0.30625 0.64805 0.0
C569 C 0.08625 0.34182 0.64303 0.0
C570 C 0.11986 0.36421 0.63552 0.0
C571 C 0.04044 0.2834 0.65645 0.0
C572 C 0.009 0.28166 0.64963 0.0
C573 C 0.03713 0.26545 0.67152 0.0
C574 C 0.06929 0.26823 0.68013 0.0
C575 C 0.09868 0.30255 0.68461 0.0
C576 C 0.12893 0.30497 0.69275 0.0
C577 C 0.12994 0.27324 0.6966 0.0
C578 C 0.10065 0.23901 0.69237 0.0
C579 C 0.07035 0.23644 0.68421 0.0
H580 H 0.15337 0.27516 0.70291 0.0
H581 H 0.86068 0.26996 0.63247 0.0
H582 H 0.68808 0.84615 0.02014 0.0
H583 H 0.72609 0.90457 0.00598 0.0
H584 H 0.66754 0.95044 0.03035 0.0
H585 H 0.62958 0.89262 0.04422 0.0
H586 H 0.67041 0.96252 0.99854 0.0
H587 H 0.75647 0.97407 0.04043 0.0
H588 H 0.7948 0.95515 0.05556 0.0
H589 H 0.85208 0.96 0.01151 0.0
H590 H 0.81374 0.97851 0.99607 0.0
H591 H 0.7632 0.1481 0.98661 0.0
H592 H 0.7409 0.08887 0.99965 0.0
H593 H 0.81243 0.06835 0.96937 0.0
H594 H 0.83635 0.12926 0.95673 0.0
H595 H 0.80566 0.03923 1.00012 0.0
H596 H 0.72236 0.03266 0.95872 0.0
H597 H 0.685 0.05353 0.94409 0.0
H598 H 0.62234 0.03933 0.9875 0.0
H599 H 0.65955 0.01869 0.00243 0.0
C600 C 0.68369 0.86888 0.0226 0.0
C601 C 0.65565 0.86462 0.03324 0.0
C602 C 0.70546 0.90227 0.01452 0.0
C603 C 0.69967 0.932 0.01705 0.0
C604 C 0.67243 0.92794 0.02807 0.0
C605 C 0.65074 0.89477 0.03605 0.0
C606 C 0.72024 0.96687 0.00776 0.0
C607 C 0.69998 0.97931 0.99899 0.0
C608 C 0.75893 0.98833 0.00779 0.0
C609 C 0.78195 0.97723 0.01706 0.0
C610 C 0.77702 0.97078 0.03394 0.0
C611 C 0.79879 0.9602 0.04258 0.0
C612 C 0.82577 0.95625 0.03449 0.0
C613 C 0.83112 0.96299 0.01775 0.0
C614 C 0.80939 0.97355 0.00905 0.0
C615 C 0.77467 0.13123 0.98292 0.0
C616 C 0.80125 0.143 0.97062 0.0
C617 C 0.76176 0.09727 0.99032 0.0
C618 C 0.77412 0.07357 0.98517 0.0
C619 C 0.80224 0.08603 0.97345 0.0
C620 C 0.81589 0.12072 0.96624 0.0
C621 C 0.75563 0.03529 0.99146 0.0
C622 C 0.77615 0.02214 0.99951 0.0
C623 C 0.71704 0.01295 0.99079 0.0
C624 C 0.69383 0.02422 0.9817 0.0
C625 C 0.70064 0.03402 0.96514 0.0
C626 C 0.6795 0.04582 0.9568 0.0
C627 C 0.65133 0.04776 0.96486 0.0
C628 C 0.64413 0.03775 0.98127 0.0
C629 C 0.66518 0.02591 0.98966 0.0
H630 H 0.63506 0.057 0.9584 0.0
H631 H 0.84261 0.94807 0.0412 0.0
H632 H 0.64482 0.74877 0.28712 0.0
H633 H 0.68417 0.73036 0.30086 0.0
H634 H 0.73882 0.83361 0.32607 0.0
H635 H 0.69868 0.8524 0.31239 0.0
H636 H 0.78179 0.7896 0.31 0.0
H637 H 0.69245 0.7871 0.34976 0.0
H638 H 0.62951 0.77266 0.35629 0.0
H639 H 0.58887 0.66075 0.34254 0.0
H640 H 0.6515 0.67469 0.33569 0.0
H641 H 0.84876 0.70132 0.36538 0.0
H642 H 0.83125 0.74321 0.3526 0.0
H643 H 0.72258 0.65238 0.34424 0.0
H644 H 0.73931 0.6116 0.35768 0.0
H645 H 0.71418 0.70253 0.35466 0.0
H646 H 0.79392 0.69906 0.3133 0.0
H647 H 0.85179 0.70701 0.30218 0.0
H648 H 0.90614 0.82115 0.31437 0.0
H649 H 0.84864 0.81375 0.32574 0.0
C650 C 0.6656 0.76804 0.29534 0.0
C651 C 0.66832 0.80203 0.29874 0.0
C652 C 0.68823 0.75743 0.30314 0.0
C653 C 0.71438 0.78052 0.31449 0.0
C654 C 0.71892 0.81545 0.31725 0.0
C655 C 0.69597 0.82615 0.30944 0.0
C656 C 0.73309 0.76557 0.32469 0.0
C657 C 0.76759 0.77128 0.32007 0.0
C658 C 0.71395 0.74063 0.33739 0.0
C659 C 0.67657 0.732 0.34212 0.0
C660 C 0.67005 0.75947 0.34806 0.0
C661 C 0.63445 0.75137 0.35182 0.0
C662 C 0.60522 0.71583 0.34978 0.0
C663 C 0.61154 0.68826 0.3441 0.0
C664 C 0.64707 0.69624 0.3403 0.0
C665 C 0.82125 0.69049 0.36071 0.0
C666 C 0.79535 0.65323 0.36264 0.0
C667 C 0.81122 0.71439 0.35334 0.0
C668 C 0.77542 0.70121 0.34735 0.0
C669 C 0.75016 0.66369 0.34889 0.0
C670 C 0.75984 0.64022 0.35655 0.0
C671 C 0.76308 0.72576 0.3399 0.0
C672 C 0.72932 0.7216 0.34495 0.0
C673 C 0.7826 0.75132 0.32732 0.0
C674 C 0.81715 0.75575 0.32056 0.0
C675 C 0.8183 0.72578 0.31373 0.0
C676 C 0.851 0.7302 0.30736 0.0
C677 C 0.88265 0.76454 0.30762 0.0
C678 C 0.88163 0.79455 0.31421 0.0
C679 C 0.849 0.79027 0.32062 0.0
H680 H 0.90794 0.76791 0.30268 0.0
H681 H 0.57767 0.70963 0.3526 0.0
H682 H 0.9013 0.64708 0.61611 0.0
H683 H 0.95945 0.68506 0.62994 0.0
H684 H 0.90705 0.7248 0.66269 0.0
H685 H 0.84866 0.68751 0.64841 0.0
H686 H 0.97588 0.77819 0.65646 0.0
H687 H 0.91936 0.65352 0.67366 0.0
H688 H 0.88999 0.58671 0.67017 0.0
H689 H 0.98692 0.59934 0.647 0.0
H690 H 0.01668 0.6663 0.65012 0.0
H691 H 0.11336 0.76096 0.71666 0.0
H692 H 0.05382 0.73905 0.70392 0.0
H693 H 0.1038 0.8222 0.66683 0.0
H694 H 0.16355 0.84521 0.68008 0.0
H695 H 0.03358 0.70809 0.67663 0.0
H696 H 0.039 0.83677 0.64833 0.0
H697 H 0.06454 0.9022 0.65466 0.0
H698 H 0.06386 0.87956 0.70574 0.0
H699 H 0.03788 0.81396 0.69974 0.0
C700 C 0.90222 0.66436 0.62609 0.0
C701 C 0.8703 0.664 0.63129 0.0
C702 C 0.93551 0.686 0.63403 0.0
C703 C 0.93756 0.70716 0.64764 0.0
C704 C 0.90618 0.70858 0.65228 0.0
C705 C 0.87281 0.68725 0.64413 0.0
C706 C 0.97164 0.72525 0.65765 0.0
C707 C 0.98856 0.76292 0.66088 0.0
C708 C 0.98784 0.70525 0.6638 0.0
C709 C 0.97012 0.66495 0.662 0.0
C710 C 0.93433 0.64207 0.66772 0.0
C711 C 0.91762 0.60417 0.66582 0.0
C712 C 0.93655 0.5888 0.65833 0.0
C713 C 0.97227 0.61129 0.65277 0.0
C714 C 0.98908 0.64922 0.65461 0.0
C715 C 0.11156 0.77513 0.706 0.0
C716 C 0.14313 0.80478 0.69935 0.0
C717 C 0.07747 0.76245 0.69865 0.0
C718 C 0.07405 0.77871 0.68431 0.0
C719 C 0.10541 0.80939 0.678 0.0
C720 C 0.13962 0.82255 0.68556 0.0
C721 C 0.03837 0.76134 0.67538 0.0
C722 C 0.02109 0.72359 0.67228 0.0
C723 C 0.02149 0.78116 0.6698 0.0
C724 C 0.03686 0.82051 0.67356 0.0
C725 C 0.0442 0.84574 0.66092 0.0
C726 C 0.05877 0.88286 0.66445 0.0
C727 C 0.06594 0.89504 0.68059 0.0
C728 C 0.05844 0.87011 0.69324 0.0
C729 C 0.04384 0.83297 0.68978 0.0
H730 H 0.07723 0.92379 0.68329 0.0
H731 H 0.92357 0.55945 0.65687 0.0
H732 H 0.79155 0.30141 0.98943 0.0
H733 H 0.74206 0.30487 0.00372 0.0
H734 H 0.66226 0.21425 0.97503 0.0
H735 H 0.71147 0.21015 0.96127 0.0
H736 H 0.69016 0.31814 0.9925 0.0
H737 H 0.58659 0.16393 0.99637 0.0
H738 H 0.5868 0.10563 0.99778 0.0
H739 H 0.69193 0.15994 0.02109 0.0
H740 H 0.69213 0.21845 0.02001 0.0
H741 H 0.51565 0.29386 0.01421 0.0
H742 H 0.56965 0.29688 0.0019 0.0
H743 H 0.57698 0.23517 0.04237 0.0
H744 H 0.51911 0.22644 0.05271 0.0
H745 H 0.58877 0.20967 0.01933 0.0
H746 H 0.64868 0.34351 0.03083 0.0
H747 H 0.65412 0.40476 0.02901 0.0
H748 H 0.64225 0.39391 0.97704 0.0
H749 H 0.63707 0.33309 0.97859 0.0
C750 C 0.76336 0.28236 0.98628 0.0
C751 C 0.75499 0.25629 0.974 0.0
C752 C 0.73523 0.28435 0.99436 0.0
C753 C 0.69851 0.25973 0.99047 0.0
C754 C 0.69033 0.23324 0.97837 0.0
C755 C 0.71838 0.23119 0.97039 0.0
C756 C 0.66861 0.26169 0.99897 0.0
C757 C 0.66813 0.29461 0.99857 0.0
C758 C 0.63986 0.23091 0.00677 0.0
C759 C 0.63946 0.19561 0.008 0.0
C760 C 0.60962 0.16337 0.0019 0.0
C761 C 0.6097 0.1303 0.00262 0.0
C762 C 0.6394 0.1291 0.00948 0.0
C763 C 0.66899 0.16093 0.01574 0.0
C764 C 0.66903 0.19405 0.01507 0.0
C765 C 0.52929 0.28147 0.02053 0.0
C766 C 0.51455 0.26178 0.03499 0.0
C767 C 0.56068 0.28374 0.01363 0.0
C768 C 0.57881 0.26752 0.0214 0.0
C769 C 0.5641 0.24833 0.03605 0.0
C770 C 0.53157 0.24427 0.04236 0.0
C771 C 0.61053 0.26689 0.01359 0.0
C772 C 0.61107 0.23377 0.01374 0.0
C773 C 0.63963 0.29769 0.00576 0.0
C774 C 0.64183 0.33372 0.0049 0.0
C775 C 0.64676 0.35418 0.0191 0.0
C776 C 0.64995 0.38876 0.0181 0.0
C777 C 0.64812 0.40296 0.00297 0.0
C778 C 0.64348 0.38281 0.98877 0.0
C779 C 0.64059 0.34841 0.98969 0.0
H780 H 0.65053 0.42969 0.00224 0.0
H781 H 0.63947 0.1035 0.00997 0.0
H782 H 0.22381 0.51701 0.34986 0.0
H783 H 0.27711 0.57057 0.33806 0.0
H784 H 0.34883 0.54602 0.36614 0.0
H785 H 0.29561 0.49352 0.3783 0.0
H786 H 0.3746 0.61547 0.36661 0.0
H787 H 0.33053 0.524 0.32465 0.0
H788 H 0.28525 0.47879 0.30563 0.0
H789 H 0.27135 0.56291 0.2831 0.0
H790 H 0.31613 0.60851 0.30217 0.0
H791 H 0.50602 0.70118 0.29169 0.0
H792 H 0.45471 0.65004 0.30562 0.0
H793 H 0.44167 0.72625 0.33613 0.0
H794 H 0.49428 0.77727 0.32265 0.0
H795 H 0.38765 0.62979 0.30672 0.0
H796 H 0.40103 0.68682 0.37201 0.0
H797 H 0.44859 0.72844 0.39125 0.0
H798 H 0.5278 0.70917 0.36724 0.0
H799 H 0.48065 0.66709 0.34793 0.0
C800 C 0.25106 0.52346 0.35354 0.0
C801 C 0.25597 0.50209 0.36521 0.0
C802 C 0.28141 0.5538 0.34677 0.0
C803 C 0.317 0.56213 0.35112 0.0
C804 C 0.3217 0.54031 0.36268 0.0
C805 C 0.29139 0.51042 0.36962 0.0
C806 C 0.34945 0.5931 0.34344 0.0
C807 C 0.3772 0.61891 0.35352 0.0
C808 C 0.35347 0.59699 0.32632 0.0
C809 C 0.32644 0.56957 0.31491 0.0
C810 C 0.31761 0.53279 0.31572 0.0
C811 C 0.29206 0.5071 0.30492 0.0
C812 C 0.27538 0.51795 0.29319 0.0
C813 C 0.28425 0.55453 0.29221 0.0
C814 C 0.30971 0.5803 0.303 0.0
C815 C 0.49203 0.7068 0.30137 0.0
C816 C 0.50308 0.74284 0.30589 0.0
C817 C 0.46287 0.67769 0.30935 0.0
C818 C 0.44435 0.68421 0.32199 0.0
C819 C 0.45588 0.72043 0.32664 0.0
C820 C 0.48561 0.74953 0.31887 0.0
C821 C 0.4123 0.65305 0.32986 0.0
C822 C 0.38466 0.627 0.31981 0.0
C823 C 0.40863 0.64877 0.34699 0.0
C824 C 0.43737 0.67411 0.35843 0.0
C825 C 0.42859 0.69141 0.37085 0.0
C826 C 0.45548 0.71509 0.38176 0.0
C827 C 0.49124 0.72155 0.38041 0.0
C828 C 0.50015 0.70427 0.36818 0.0
C829 C 0.47336 0.68054 0.35724 0.0
H830 H 0.51203 0.73988 0.38886 0.0
H831 H 0.25562 0.49804 0.28483 0.0
H832 H 0.71412 0.22268 0.67765 0.0
H833 H 0.7113 0.27365 0.66455 0.0
H834 H 0.79657 0.34977 0.69659 0.0
H835 H 0.79946 0.29897 0.70955 0.0
H836 H 0.69623 0.32528 0.67807 0.0
H837 H 0.85109 0.42652 0.67442 0.0
H838 H 0.90883 0.42525 0.67245 0.0
H839 H 0.85252 0.32092 0.64854 0.0
H840 H 0.79464 0.32185 0.65013 0.0
H841 H 0.71989 0.4983 0.65315 0.0
H842 H 0.71823 0.44653 0.66718 0.0
H843 H 0.78009 0.4354 0.62775 0.0
H844 H 0.78763 0.49136 0.61574 0.0
H845 H 0.80552 0.42559 0.65124 0.0
H846 H 0.67132 0.36721 0.63992 0.0
H847 H 0.61055 0.36289 0.64191 0.0
H848 H 0.62236 0.37522 0.69384 0.0
H849 H 0.68271 0.3793 0.69211 0.0
C850 C 0.732 0.25035 0.68187 0.0
C851 C 0.75615 0.25716 0.69486 0.0
C852 C 0.73036 0.2793 0.67446 0.0
C853 C 0.75368 0.31537 0.67965 0.0
C854 C 0.77843 0.32214 0.6924 0.0
C855 C 0.77985 0.29321 0.69986 0.0
C856 C 0.75254 0.34606 0.67159 0.0
C857 C 0.71996 0.34717 0.67206 0.0
C858 C 0.78361 0.37456 0.66389 0.0
C859 C 0.81847 0.37412 0.66256 0.0
C860 C 0.85109 0.40341 0.66868 0.0
C861 C 0.88383 0.40273 0.66763 0.0
C862 C 0.88433 0.37296 0.66042 0.0
C863 C 0.8521 0.3439 0.65417 0.0
C864 C 0.81931 0.34448 0.65516 0.0
C865 C 0.73266 0.48431 0.64746 0.0
C866 C 0.75184 0.49724 0.63274 0.0
C867 C 0.73121 0.45421 0.65535 0.0
C868 C 0.74773 0.43555 0.64835 0.0
C869 C 0.76669 0.44867 0.63352 0.0
C870 C 0.76998 0.48 0.62623 0.0
C871 C 0.74831 0.40451 0.65687 0.0
C872 C 0.78127 0.4036 0.65689 0.0
C873 C 0.71735 0.37589 0.66485 0.0
C874 C 0.6816 0.37428 0.6658 0.0
C875 C 0.66097 0.36948 0.65167 0.0
C876 C 0.62666 0.36692 0.65277 0.0
C877 C 0.61286 0.3692 0.66794 0.0
C878 C 0.63315 0.37367 0.68208 0.0
C879 C 0.66731 0.37597 0.68105 0.0
H880 H 0.58633 0.36725 0.66876 0.0
H881 H 0.90968 0.37245 0.65966 0.0
H882 H 0.21803 0.71028 0.98988 0.0
H883 H 0.26831 0.70703 0.00343 0.0
H884 H 0.34604 0.79286 0.97208 0.0
H885 H 0.29584 0.79622 0.95869 0.0
H886 H 0.31829 0.69073 0.99089 0.0
H887 H 0.42423 0.84487 0.99395 0.0
H888 H 0.42665 0.90426 0.99676 0.0
H889 H 0.32204 0.85157 0.02055 0.0
H890 H 0.31919 0.79196 0.01806 0.0
H891 H 0.49068 0.71121 0.01472 0.0
H892 H 0.4384 0.70977 0.00129 0.0
H893 H 0.4295 0.77218 0.04105 0.0
H894 H 0.48551 0.77882 0.05273 0.0
H895 H 0.42117 0.79884 0.01718 0.0
H896 H 0.35749 0.66571 0.02974 0.0
H897 H 0.35106 0.604 0.02899 0.0
H898 H 0.36514 0.61209 0.97704 0.0
H899 H 0.37116 0.67337 0.97756 0.0
C900 C 0.24591 0.72825 0.98592 0.0
C901 C 0.2533 0.75263 0.97299 0.0
C902 C 0.27449 0.72639 0.9936 0.0
C903 C 0.31084 0.74967 0.98873 0.0
C904 C 0.31821 0.77478 0.97607 0.0
C905 C 0.28962 0.77644 0.96834 0.0
C906 C 0.34105 0.74761 0.99686 0.0
C907 C 0.34076 0.71429 0.99672 0.0
C908 C 0.37032 0.77834 0.00443 0.0
C909 C 0.37139 0.81393 0.00568 0.0
C910 C 0.40176 0.84598 0.99978 0.0
C911 C 0.40321 0.87967 0.00133 0.0
C912 C 0.37454 0.88167 0.00884 0.0
C913 C 0.34422 0.84996 0.01472 0.0
C914 C 0.34263 0.8162 0.0132 0.0
C915 C 0.47705 0.72408 0.02065 0.0
C916 C 0.49079 0.74338 0.0353 0.0
C917 C 0.4467 0.72279 0.01309 0.0
C918 C 0.42873 0.73978 0.02031 0.0
C919 C 0.44237 0.75853 0.03514 0.0
C920 C 0.4738 0.76143 0.04218 0.0
C921 C 0.39812 0.74131 0.01187 0.0
C922 C 0.39863 0.77493 0.01159 0.0
C923 C 0.36876 0.71067 0.00411 0.0
C924 C 0.36554 0.67417 0.00379 0.0
C925 C 0.35967 0.65431 0.01826 0.0
C926 C 0.35594 0.61947 0.01785 0.0
C927 C 0.35819 0.60439 0.00302 0.0
C928 C 0.36365 0.62389 0.98854 0.0
C929 C 0.36703 0.65856 0.98888 0.0
H930 H 0.35546 0.57749 0.00274 0.0
H931 H 0.37587 0.90782 0.01016 0.0
H932 H 0.48675 0.29101 0.2985 0.0
H933 H 0.5364 0.3392 0.314 0.0
H934 H 0.59106 0.27538 0.31489 0.0
H935 H 0.53634 0.224 0.30358 0.0
H936 H 0.60508 0.30148 0.33955 0.0
H937 H 0.61507 0.37422 0.28974 0.0
H938 H 0.592 0.40164 0.26953 0.0
H939 H 0.55992 0.44805 0.30819 0.0
H940 H 0.58289 0.42132 0.32853 0.0
H941 H 0.78045 0.47981 0.35347 0.0
H942 H 0.73265 0.42474 0.34005 0.0
H943 H 0.65098 0.42877 0.37014 0.0
H944 H 0.6985 0.48549 0.38269 0.0
H945 H 0.65363 0.43384 0.3312 0.0
H946 H 0.61202 0.30933 0.37215 0.0
H947 H 0.63549 0.276 0.38823 0.0
H948 H 0.73764 0.33163 0.36251 0.0
H949 H 0.71415 0.36389 0.34582 0.0
C950 C 0.50977 0.28777 0.30194 0.0
C951 C 0.50909 0.25478 0.29891 0.0
C952 C 0.53883 0.31583 0.31054 0.0
C953 C 0.56927 0.31261 0.3152 0.0
C954 C 0.56846 0.27944 0.31168 0.0
C955 C 0.53776 0.25022 0.30456 0.0
C956 C 0.60026 0.34164 0.325 0.0
C957 C 0.61596 0.33035 0.33723 0.0
C958 C 0.61433 0.37982 0.32287 0.0
C959 C 0.60022 0.39537 0.31058 0.0
C960 C 0.6028 0.39001 0.29385 0.0
C961 C 0.58984 0.40545 0.28241 0.0
C962 C 0.57427 0.42619 0.28758 0.0
C963 C 0.57186 0.43186 0.3042 0.0
C964 C 0.58495 0.41671 0.31567 0.0
C965 C 0.75238 0.46825 0.35752 0.0
C966 C 0.74319 0.4859 0.36958 0.0
C967 C 0.7252 0.43647 0.35005 0.0
C968 C 0.68849 0.42155 0.3547 0.0
C969 C 0.67933 0.43903 0.36685 0.0
C970 C 0.70642 0.47128 0.37406 0.0
C971 C 0.65915 0.39308 0.34455 0.0
C972 C 0.64314 0.40473 0.33279 0.0
C973 C 0.64565 0.35534 0.34669 0.0
C974 C 0.66187 0.34029 0.3582 0.0
C975 C 0.63972 0.3149 0.37013 0.0
C976 C 0.65277 0.29567 0.37916 0.0
C977 C 0.68813 0.30185 0.37646 0.0
C978 C 0.7104 0.32715 0.3647 0.0
C979 C 0.69727 0.34609 0.35551 0.0
H980 H 0.69825 0.28702 0.38347 0.0
H981 H 0.56424 0.43804 0.27869 0.0
H982 H 0.2336 0.52136 0.61854 0.0
H983 H 0.23864 0.57539 0.63155 0.0
H984 H 0.29571 0.56035 0.67194 0.0
H985 H 0.29618 0.51022 0.65726 0.0
H986 H 0.20933 0.58104 0.6552 0.0
H987 H 0.3277 0.62549 0.69786 0.0
H988 H 0.38805 0.62991 0.70078 0.0
H989 H 0.4062 0.64783 0.6493 0.0
H990 H 0.34547 0.6432 0.64614 0.0
H991 H 0.21144 0.71143 0.71105 0.0
H992 H 0.21452 0.65931 0.69966 0.0
H993 H 0.30234 0.73245 0.66789 0.0
H994 H 0.29938 0.78467 0.67943 0.0
H995 H 0.31613 0.68198 0.68313 0.0
H996 H 0.21775 0.68291 0.65312 0.0
H997 H 0.15915 0.68225 0.65066 0.0
H998 H 0.10412 0.57931 0.67575 0.0
H999 H 0.16254 0.57962 0.67855 0.0
C1000 C 0.2496 0.53139 0.62958 0.0
C1001 C 0.26692 0.51348 0.63625 0.0
C1002 C 0.25147 0.56161 0.63738 0.0
C1003 C 0.26828 0.57298 0.65274 0.0
C1004 C 0.28422 0.55383 0.65981 0.0
C1005 C 0.28405 0.52474 0.65151 0.0
C1006 C 0.26625 0.60288 0.66158 0.0
C1007 C 0.23298 0.60314 0.66117 0.0
C1008 C 0.29632 0.63141 0.67003 0.0
C1009 C 0.33204 0.63323 0.67168 0.0
C1010 C 0.34451 0.63008 0.68715 0.0
C1011 C 0.37865 0.63259 0.68885 0.0
C1012 C 0.40073 0.63873 0.67517 0.0
C1013 C 0.38873 0.6425 0.65979 0.0
C1014 C 0.35445 0.63975 0.65802 0.0
C1015 C 0.23163 0.71624 0.70176 0.0
C1016 C 0.25602 0.75184 0.69641 0.0
C1017 C 0.23316 0.68655 0.69519 0.0
C1018 C 0.25872 0.69211 0.68298 0.0
C1019 C 0.28265 0.72771 0.67741 0.0
C1020 C 0.28094 0.75739 0.68393 0.0
C1021 C 0.26022 0.66076 0.67581 0.0
C1022 C 0.29288 0.65992 0.67694 0.0
C1023 C 0.22972 0.63183 0.66797 0.0
C1024 C 0.19455 0.63147 0.66618 0.0
C1025 C 0.19319 0.66027 0.65822 0.0
C1026 C 0.16001 0.65994 0.65674 0.0
C1027 C 0.12795 0.6308 0.66308 0.0
C1028 C 0.12899 0.60188 0.67087 0.0
C1029 C 0.16212 0.60211 0.67239 0.0
H1030 H 0.10228 0.63059 0.66193 0.0
H1031 H 0.42724 0.64084 0.67651 0.0
H1032 H 0.36258 0.24993 0.10027 0.0
H1033 H 0.33741 0.23246 0.128 0.0
H1034 H 0.37911 0.15771 0.13083 0.0
H1035 H 0.40321 0.17448 0.10322 0.0
H1036 H 0.31718 0.1311 0.14773 0.0
H1037 H 0.43057 0.24759 0.14286 0.0
H1038 H 0.46841 0.31073 0.1328 0.0
H1039 H 0.39468 0.3407 0.15478 0.0
H1040 H 0.35613 0.27752 0.16477 0.0
H1041 H 0.41288 0.14825 0.21969 0.0
H1042 H 0.38696 0.14615 0.19282 0.0
H1043 H 0.33217 0.20133 0.21202 0.0
H1044 H 0.35756 0.20258 0.23924 0.0
H1045 H 0.38007 0.23678 0.18529 0.0
H1046 H 0.27929 0.12002 0.19744 0.0
H1047 H 0.24792 0.05691 0.20796 0.0
H1048 H 0.30396 0.02699 0.17289 0.0
H1049 H 0.33612 0.09004 0.1623 0.0
C1050 C 0.36502 0.22879 0.10666 0.0
C1051 C 0.38481 0.21353 0.09976 0.0
C1052 C 0.35093 0.21901 0.12251 0.0
C1053 C 0.35688 0.19419 0.13161 0.0
C1054 C 0.37411 0.17688 0.1241 0.0
C1055 C 0.38808 0.1866 0.10835 0.0
C1056 C 0.35017 0.18967 0.14948 0.0
C1057 C 0.33061 0.15419 0.15597 0.0
C1058 C 0.36705 0.21985 0.16028 0.0
C1059 C 0.39023 0.2578 0.15435 0.0
C1060 C 0.42232 0.2676 0.14544 0.0
C1061 C 0.44389 0.30338 0.13976 0.0
C1062 C 0.43388 0.32968 0.1431 0.0
C1063 C 0.40233 0.32027 0.15216 0.0
C1064 C 0.3806 0.28449 0.15782 0.0
C1065 C 0.39431 0.15882 0.21828 0.0
C1066 C 0.38694 0.17534 0.23146 0.0
C1067 C 0.37945 0.15756 0.20295 0.0
C1068 C 0.35745 0.17338 0.20044 0.0
C1069 C 0.3488 0.18866 0.21376 0.0
C1070 C 0.36311 0.18921 0.22927 0.0
C1071 C 0.34827 0.17813 0.1835 0.0
C1072 C 0.36516 0.21371 0.17715 0.0
C1073 C 0.32962 0.14799 0.17285 0.0
C1074 C 0.31019 0.10987 0.17909 0.0
C1075 C 0.28511 0.10006 0.19202 0.0
C1076 C 0.26715 0.06426 0.198 0.0
C1077 C 0.27395 0.03796 0.1911 0.0
C1078 C 0.29869 0.04738 0.1782 0.0
C1079 C 0.31673 0.08314 0.17219 0.0
H1080 H 0.26003 0.01026 0.19575 0.0
H1081 H 0.45062 0.35737 0.1387 0.0
H1082 H 0.15768 0.42441 0.44647 0.0
H1083 H 0.15446 0.39998 0.4737 0.0
H1084 H 0.18121 0.32136 0.45406 0.0
H1085 H 0.18424 0.34585 0.4265 0.0
H1086 H 0.12028 0.33536 0.49106 0.0
H1087 H 0.24639 0.32567 0.47755 0.0
H1088 H 0.2976 0.34858 0.45789 0.0
H1089 H 0.29473 0.44839 0.45264 0.0
H1090 H 0.24356 0.42593 0.47209 0.0
H1091 H 0.18976 0.34886 0.57345 0.0
H1092 H 0.16941 0.32137 0.54623 0.0
H1093 H 0.24548 0.42456 0.5241 0.0
H1094 H 0.26612 0.45155 0.55066 0.0
H1095 H 0.24664 0.37132 0.50811 0.0
H1096 H 0.15243 0.39621 0.5306 0.0
H1097 H 0.10431 0.38563 0.55056 0.0
H1098 H 0.04692 0.27127 0.53867 0.0
H1099 H 0.09495 0.28121 0.51875 0.0
C1100 C 0.16191 0.40125 0.44788 0.0
C1101 C 0.1716 0.38725 0.43443 0.0
C1102 C 0.15974 0.38708 0.46344 0.0
C1103 C 0.16778 0.35897 0.46595 0.0
C1104 C 0.17488 0.34306 0.45238 0.0
C1105 C 0.17657 0.357 0.43667 0.0
C1106 C 0.17483 0.35157 0.48288 0.0
C1107 C 0.14763 0.34215 0.49479 0.0
C1108 C 0.21048 0.36061 0.48782 0.0
C1109 C 0.24108 0.374 0.47608 0.0
C1110 C 0.25674 0.35245 0.47213 0.0
C1111 C 0.28568 0.36533 0.461 0.0
C1112 C 0.2993 0.39984 0.45391 0.0
C1113 C 0.28405 0.42156 0.45797 0.0
C1114 C 0.25506 0.40876 0.46902 0.0
C1115 C 0.20235 0.36546 0.56275 0.0
C1116 C 0.22945 0.40251 0.56432 0.0
C1117 C 0.19066 0.34974 0.54722 0.0
C1118 C 0.20593 0.37089 0.53309 0.0
C1119 C 0.23349 0.40748 0.53475 0.0
C1120 C 0.24509 0.42303 0.55007 0.0
C1121 C 0.19258 0.35689 0.51638 0.0
C1122 C 0.21866 0.36224 0.50444 0.0
C1123 C 0.15619 0.34519 0.5115 0.0
C1124 C 0.1274 0.33935 0.52338 0.0
C1125 C 0.12963 0.36879 0.53233 0.0
C1126 C 0.10239 0.36292 0.54362 0.0
C1127 C 0.07264 0.32778 0.54592 0.0
C1128 C 0.07002 0.29846 0.53691 0.0
C1129 C 0.09723 0.30419 0.52562 0.0
H1130 H 0.05158 0.32328 0.55467 0.0
H1131 H 0.32173 0.40981 0.44532 0.0
H1132 H 0.86536 0.21773 0.90374 0.0
H1133 H 0.86992 0.19858 0.87581 0.0
H1134 H 0.76438 0.18581 0.8644 0.0
H1135 H 0.7602 0.20572 0.89172 0.0
H1136 H 0.7759 0.12757 0.85261 0.0
H1137 H 0.8344 0.26201 0.85498 0.0
H1138 H 0.88157 0.3223 0.8652 0.0
H1139 H 0.96593 0.30149 0.84843 0.0
H1140 H 0.91914 0.2408 0.83831 0.0
H1141 H 0.73133 0.16931 0.77852 0.0
H1142 H 0.74855 0.16319 0.80612 0.0
H1143 H 0.85303 0.18187 0.78875 0.0
H1144 H 0.83562 0.1879 0.7607 0.0
H1145 H 0.85875 0.22654 0.81499 0.0
H1146 H 0.79714 0.10027 0.80429 0.0
H1147 H 0.74889 0.04106 0.79365 0.0
H1148 H 0.67055 0.04506 0.82574 0.0
H1149 H 0.71814 0.10457 0.83641 0.0
C1150 C 0.843 0.21029 0.89529 0.0
C1151 C 0.81248 0.21334 0.89989 0.0
C1152 C 0.84564 0.19942 0.8794 0.0
C1153 C 0.8174 0.19068 0.8681 0.0
C1154 C 0.78634 0.19217 0.87296 0.0
C1155 C 0.78408 0.20374 0.88859 0.0
C1156 C 0.82051 0.18282 0.85075 0.0
C1157 C 0.79429 0.14893 0.84434 0.0
C1158 C 0.84535 0.21034 0.84008 0.0
C1159 C 0.87335 0.24675 0.84612 0.0
C1160 C 0.86301 0.27018 0.85362 0.0
C1161 C 0.88966 0.30443 0.85936 0.0
C1162 C 0.92673 0.31566 0.85753 0.0
C1163 C 0.93721 0.2927 0.84989 0.0
C1164 C 0.91065 0.25838 0.84415 0.0
C1165 C 0.7578 0.1716 0.78049 0.0
C1166 C 0.78218 0.1792 0.76746 0.0
C1167 C 0.76752 0.16783 0.79628 0.0
C1168 C 0.80194 0.1717 0.7995 0.0
C1169 C 0.82622 0.1785 0.78649 0.0
C1170 C 0.81622 0.18179 0.77051 0.0
C1171 C 0.81279 0.17181 0.81673 0.0
C1172 C 0.84148 0.20436 0.82317 0.0
C1173 C 0.79022 0.14296 0.82744 0.0
C1174 C 0.76132 0.10699 0.82116 0.0
C1175 C 0.76959 0.08864 0.80903 0.0
C1176 C 0.74234 0.055 0.80299 0.0
C1177 C 0.70668 0.03931 0.80901 0.0
C1178 C 0.6982 0.05722 0.8211 0.0
C1179 C 0.72535 0.09089 0.82718 0.0
H1180 H 0.68562 0.01326 0.80432 0.0
H1181 H 0.94733 0.3422 0.86198 0.0
H1182 H 0.64952 0.84263 0.09389 0.0
H1183 H 0.67408 0.86778 0.12104 0.0
H1184 H 0.60989 0.7602 0.14193 0.0
H1185 H 0.58541 0.73536 0.11511 0.0
H1186 H 0.63125 0.86743 0.14531 0.0
H1187 H 0.64666 0.74948 0.17523 0.0
H1188 H 0.6733 0.71098 0.16804 0.0
H1189 H 0.74432 0.79127 0.13334 0.0
H1190 H 0.71856 0.83058 0.14048 0.0
H1191 H 0.5502 0.81174 0.21996 0.0
H1192 H 0.5752 0.82135 0.1927 0.0
H1193 H 0.68286 0.85813 0.21239 0.0
H1194 H 0.65759 0.84761 0.24016 0.0
H1195 H 0.6682 0.81003 0.1885 0.0
H1196 H 0.66437 0.91936 0.19269 0.0
H1197 H 0.63868 0.95862 0.20008 0.0
H1198 H 0.55019 0.90041 0.16644 0.0
H1199 H 0.57497 0.86042 0.15901 0.0
C1200 C 0.64177 0.82429 0.10423 0.0
C1201 C 0.61557 0.7871 0.10247 0.0
C1202 C 0.65562 0.83867 0.11972 0.0
C1203 C 0.64402 0.81586 0.13353 0.0
C1204 C 0.6198 0.77829 0.13148 0.0
C1205 C 0.60563 0.76411 0.11614 0.0
C1206 C 0.65212 0.83114 0.15032 0.0
C1207 C 0.64007 0.85551 0.15474 0.0
C1208 C 0.66466 0.81644 0.16258 0.0
C1209 C 0.68059 0.79301 0.15839 0.0
C1210 C 0.66818 0.75912 0.16617 0.0
C1211 C 0.68307 0.73709 0.16207 0.0
C1212 C 0.71046 0.74866 0.15024 0.0
C1213 C 0.72305 0.78231 0.14248 0.0
C1214 C 0.70826 0.80445 0.14654 0.0
C1215 C 0.57932 0.82226 0.21865 0.0
C1216 C 0.60184 0.82883 0.23235 0.0
C1217 C 0.59367 0.82808 0.20295 0.0
C1218 C 0.63106 0.84114 0.20044 0.0
C1219 C 0.65396 0.84835 0.21404 0.0
C1220 C 0.6395 0.84243 0.2299 0.0
C1221 C 0.64474 0.84409 0.18348 0.0
C1222 C 0.66076 0.8231 0.17905 0.0
C1223 C 0.63628 0.86228 0.17118 0.0
C1224 C 0.62164 0.88688 0.17527 0.0
C1225 C 0.63939 0.91486 0.18688 0.0
C1226 C 0.62496 0.93724 0.19109 0.0
C1227 C 0.59283 0.93201 0.18374 0.0
C1228 C 0.57513 0.90448 0.17211 0.0
C1229 C 0.58942 0.88201 0.16786 0.0
H1230 H 0.58165 0.9493 0.18705 0.0
H1231 H 0.72193 0.73155 0.14708 0.0
H1232 H 0.80789 0.57358 0.55334 0.0
H1233 H 0.82989 0.60342 0.52719 0.0
H1234 H 0.8126 0.69143 0.54241 0.0
H1235 H 0.79125 0.66178 0.56929 0.0
H1236 H 0.77781 0.65189 0.51086 0.0
H1237 H 0.89413 0.71965 0.53552 0.0
H1238 H 0.94506 0.72968 0.55356 0.0
H1239 H 0.96177 0.65329 0.52555 0.0
H1240 H 0.9106 0.64232 0.50749 0.0
H1241 H 0.81849 0.65762 0.426 0.0
H1242 H 0.82752 0.68756 0.45276 0.0
H1243 H 0.85771 0.61216 0.4733 0.0
H1244 H 0.84896 0.58275 0.44692 0.0
H1245 H 0.8968 0.67822 0.48726 0.0
H1246 H 0.76737 0.59251 0.47347 0.0
H1247 H 0.71244 0.57314 0.45653 0.0
H1248 H 0.71858 0.67658 0.46468 0.0
H1249 H 0.77374 0.69657 0.48166 0.0
C1250 C 0.80927 0.59957 0.55133 0.0
C1251 C 0.79781 0.61532 0.56339 0.0
C1252 C 0.82202 0.6167 0.53636 0.0
C1253 C 0.82314 0.64974 0.53292 0.0
C1254 C 0.8122 0.66605 0.54494 0.0
C1255 C 0.80012 0.64918 0.56023 0.0
C1256 C 0.83284 0.66439 0.51613 0.0
C1257 C 0.80432 0.65929 0.50571 0.0
C1258 C 0.86724 0.67344 0.50944 0.0
C1259 C 0.8985 0.68025 0.5201 0.0
C1260 C 0.90857 0.70488 0.53323 0.0
C1261 C 0.93749 0.71073 0.54347 0.0
C1262 C 0.95666 0.69217 0.54069 0.0
C1263 C 0.94696 0.66773 0.52766 0.0
C1264 C 0.91805 0.66176 0.51739 0.0
C1265 C 0.82813 0.64832 0.43616 0.0
C1266 C 0.83269 0.61768 0.43448 0.0
C1267 C 0.83312 0.66528 0.45144 0.0
C1268 C 0.84297 0.65188 0.4651 0.0
C1269 C 0.85024 0.62314 0.46299 0.0
C1270 C 0.84498 0.60614 0.4479 0.0
C1271 C 0.84112 0.66351 0.48202 0.0
C1272 C 0.87104 0.67324 0.49242 0.0
C1273 C 0.80783 0.65807 0.48873 0.0
C1274 C 0.77478 0.64615 0.47862 0.0
C1275 C 0.75706 0.61115 0.47156 0.0
C1276 C 0.72591 0.60006 0.46196 0.0
C1277 C 0.7121 0.62367 0.45944 0.0
C1278 C 0.72936 0.65837 0.46659 0.0
C1279 C 0.76055 0.66958 0.47621 0.0
H1280 H 0.68797 0.61502 0.452 0.0
H1281 H 0.97903 0.69671 0.54864 0.0
H1282 H 0.19377 0.8321 0.905 0.0
H1283 H 0.19453 0.84955 0.87631 0.0
H1284 H 0.15652 0.73807 0.86164 0.0
H1285 H 0.15693 0.72105 0.89001 0.0
H1286 H 0.21834 0.78246 0.84738 0.0
H1287 H 0.10433 0.77935 0.85639 0.0
H1288 H 0.06243 0.79588 0.86996 0.0
H1289 H 0.13283 0.90851 0.85716 0.0
H1290 H 0.17544 0.89273 0.8437 0.0
H1291 H 0.17181 0.80614 0.76149 0.0
H1292 H 0.15472 0.80435 0.79028 0.0
H1293 H 0.2688 0.86803 0.80325 0.0
H1294 H 0.2858 0.86854 0.77471 0.0
H1295 H 0.16677 0.84945 0.81812 0.0
H1296 H 0.28586 0.82511 0.83172 0.0
H1297 H 0.32411 0.804 0.81799 0.0
H1298 H 0.23519 0.7369 0.78591 0.0
H1299 H 0.19657 0.75791 0.7993 0.0
C1300 C 0.18459 0.81125 0.89563 0.0
C1301 C 0.17567 0.77536 0.8996 0.0
C1302 C 0.18498 0.82119 0.87927 0.0
C1303 C 0.17586 0.79515 0.86681 0.0
C1304 C 0.164 0.75869 0.87102 0.0
C1305 C 0.16419 0.74897 0.88722 0.0
C1306 C 0.18356 0.8062 0.84942 0.0
C1307 C 0.20693 0.7971 0.84106 0.0
C1308 C 0.16885 0.82538 0.8411 0.0
C1309 C 0.14327 0.8349 0.84918 0.0
C1310 C 0.11106 0.8077 0.85659 0.0
C1311 C 0.08713 0.81692 0.86424 0.0
C1312 C 0.09501 0.85324 0.86446 0.0
C1313 C 0.12679 0.8804 0.857 0.0
C1314 C 0.15081 0.87132 0.84934 0.0
C1315 C 0.19304 0.82094 0.77045 0.0
C1316 C 0.23005 0.83736 0.76603 0.0
C1317 C 0.1833 0.81992 0.78687 0.0
C1318 C 0.21054 0.83552 0.79891 0.0
C1319 C 0.24739 0.85545 0.79416 0.0
C1320 C 0.25709 0.85584 0.77788 0.0
C1321 C 0.2013 0.82548 0.8163 0.0
C1322 C 0.17803 0.83491 0.8246 0.0
C1323 C 0.21552 0.80596 0.82464 0.0
C1324 C 0.23852 0.79331 0.81642 0.0
C1325 C 0.27454 0.8059 0.82171 0.0
C1326 C 0.2963 0.79405 0.81394 0.0
C1327 C 0.28216 0.76934 0.80098 0.0
C1328 C 0.24622 0.75638 0.79579 0.0
C1329 C 0.22442 0.76831 0.80343 0.0
H1330 H 0.29898 0.7601 0.79501 0.0
H1331 H 0.07646 0.86032 0.87038 0.0
H1332 H 0.56407 0.66093 0.03172 0.0
H1333 H 0.5493 0.59706 0.02792 0.0
H1334 H 0.52508 0.57691 0.07924 0.0
H1335 H 0.53977 0.64001 0.08303 0.0
H1336 H 0.56161 0.54407 0.06856 0.0
H1337 H 0.45778 0.55567 0.05108 0.0
H1338 H 0.42711 0.58029 0.03392 0.0
H1339 H 0.45362 0.54002 0.991 0.0
H1340 H 0.48486 0.51547 0.00791 0.0
H1341 H 0.44905 0.35931 0.08174 0.0
H1342 H 0.4688 0.42409 0.07869 0.0
H1343 H 0.47751 0.41533 0.02666 0.0
H1344 H 0.45612 0.34972 0.02967 0.0
H1345 H 0.45576 0.46394 0.03339 0.0
H1346 H 0.55437 0.44664 0.05168 0.0
H1347 H 0.58504 0.42271 0.06931 0.0
H1348 H 0.56818 0.47398 0.11097 0.0
H1349 H 0.53749 0.49836 0.09364 0.0
C1350 C 0.55656 0.64303 0.04222 0.0
C1351 C 0.55311 0.65541 0.05768 0.0
C1352 C 0.54771 0.60648 0.04001 0.0
C1353 C 0.53558 0.58201 0.05327 0.0
C1354 C 0.53426 0.59513 0.06882 0.0
C1355 C 0.5427 0.63127 0.07098 0.0
C1356 C 0.52255 0.54231 0.0512 0.0
C1357 C 0.53845 0.52657 0.06087 0.0
C1358 C 0.49288 0.51949 0.04087 0.0
C1359 C 0.47405 0.53415 0.03073 0.0
C1360 C 0.45734 0.55233 0.03797 0.0
C1361 C 0.43981 0.56624 0.0283 0.0
C1362 C 0.43853 0.56188 0.01138 0.0
C1363 C 0.4547 0.54347 0.0041 0.0
C1364 C 0.47231 0.52953 0.01372 0.0
C1365 C 0.45411 0.37097 0.0696 0.0
C1366 C 0.45096 0.34952 0.05594 0.0
C1367 C 0.46585 0.40811 0.06787 0.0
C1368 C 0.47587 0.42497 0.0525 0.0
C1369 C 0.47028 0.40306 0.03866 0.0
C1370 C 0.4578 0.36554 0.04037 0.0
C1371 C 0.49412 0.4656 0.05119 0.0
C1372 C 0.47932 0.48148 0.04086 0.0
C1373 C 0.52487 0.4887 0.06095 0.0
C1374 C 0.54345 0.47416 0.07137 0.0
C1375 C 0.55705 0.45267 0.06461 0.0
C1376 C 0.57443 0.43902 0.07454 0.0
C1377 C 0.57836 0.44661 0.09124 0.0
C1378 C 0.56509 0.46808 0.09804 0.0
C1379 C 0.54782 0.48194 0.08816 0.0
H1380 H 0.59178 0.43596 0.09889 0.0
H1381 H 0.42492 0.57266 0.00393 0.0
H1382 H 0.9191 0.58066 0.37735 0.0
H1383 H 0.96751 0.56448 0.37456 0.0
H1384 H 0.90355 0.46766 0.40349 0.0
H1385 H 0.85693 0.48404 0.40692 0.0
H1386 H 0.96772 0.49701 0.41384 0.0
H1387 H 0.91405 0.46732 0.36038 0.0
H1388 H 0.89443 0.47958 0.33393 0.0
H1389 H 0.00541 0.56041 0.3229 0.0
H1390 H 0.02562 0.54896 0.34938 0.0
H1391 H 0.07735 0.41257 0.37407 0.0
H1392 H 0.02667 0.42579 0.37207 0.0
H1393 H 0.08559 0.51947 0.40332 0.0
H1394 H 0.13497 0.50651 0.40569 0.0
H1395 H 0.02206 0.48789 0.36164 0.0
H1396 H 0.02941 0.52371 0.43035 0.0
H1397 H 0.04465 0.50561 0.4565 0.0
H1398 H 0.01645 0.40079 0.43645 0.0
H1399 H 1.00053 0.41804 0.41027 0.0
C1400 C 0.91556 0.55607 0.38316 0.0
C1401 C 0.88396 0.53395 0.39243 0.0
C1402 C 0.94311 0.54663 0.38144 0.0
C1403 C 0.93927 0.51462 0.38876 0.0
C1404 C 0.90759 0.49259 0.39781 0.0
C1405 C 0.88066 0.50215 0.39971 0.0
C1406 C 0.9682 0.50398 0.38777 0.0
C1407 C 0.97946 0.49509 0.40236 0.0
C1408 C 0.98334 0.50069 0.37285 0.0
C1409 C 0.97128 0.50755 0.35693 0.0
C1410 C 0.93422 0.48791 0.35236 0.0
C1411 C 0.92301 0.49467 0.33736 0.0
C1412 C 0.94865 0.52083 0.32676 0.0
C1413 C 0.98557 0.5402 0.33113 0.0
C1414 C 0.99693 0.53357 0.34613 0.0
C1415 C 0.07934 0.43583 0.38056 0.0
C1416 C 0.11028 0.45804 0.3902 0.0
C1417 C 0.05052 0.44356 0.37929 0.0
C1418 C 0.05217 0.47349 0.38767 0.0
C1419 C 0.08334 0.49597 0.39691 0.0
C1420 C 0.11171 0.4883 0.39825 0.0
C1421 C 0.02117 0.48105 0.38768 0.0
C1422 C 0.00991 0.48964 0.37302 0.0
C1423 C 0.0051 0.48315 0.4025 0.0
C1424 C 0.01408 0.47232 0.4183 0.0
C1425 C 0.02629 0.49673 0.43155 0.0
C1426 C 0.03507 0.48663 0.44637 0.0
C1427 C 0.03162 0.45212 0.44812 0.0
C1428 C 0.01924 0.42757 0.43507 0.0
C1429 C 0.01037 0.43751 0.42023 0.0
H1430 H 0.03847 0.44437 0.4596 0.0
H1431 H 0.93991 0.52602 0.31515 0.0
H1432 H 0.66293 0.10809 0.69268 0.0
H1433 H 0.59875 0.05961 0.6891 0.0
H1434 H 0.58458 0.05167 0.74131 0.0
H1435 H 0.64804 0.10041 0.74485 0.0
H1436 H 0.55084 0.9829 0.72518 0.0
H1437 H 0.55805 0.10113 0.72228 0.0
H1438 H 0.58006 0.16288 0.71117 0.0
H1439 H 0.53962 0.11728 0.66377 0.0
H1440 H 0.51745 0.05515 0.67465 0.0
H1441 H 0.36833 0.90601 0.74467 0.0
H1442 H 0.43273 0.95155 0.74126 0.0
H1443 H 0.41717 0.9511 0.68927 0.0
H1444 H 0.35183 0.90573 0.69273 0.0
H1445 H 0.46677 0.02011 0.70062 0.0
H1446 H 0.45157 0.9005 0.70478 0.0
H1447 H 0.42859 0.83912 0.71652 0.0
H1448 H 0.48423 0.88677 0.76145 0.0
H1449 H 0.50747 0.94853 0.75002 0.0
C1450 C 0.64632 0.09513 0.70335 0.0
C1451 C 0.66042 0.10756 0.71904 0.0
C1452 C 0.60964 0.06778 0.7013 0.0
C1453 C 0.58683 0.0522 0.71495 0.0
C1454 C 0.60165 0.06322 0.73062 0.0
C1455 C 0.63791 0.09093 0.73264 0.0
C1456 C 0.54699 0.02612 0.71314 0.0
C1457 C 0.53246 0.99101 0.71981 0.0
C1458 C 0.52305 0.03638 0.7058 0.0
C1459 C 0.53655 0.07361 0.69922 0.0
C1460 C 0.55418 0.10432 0.70946 0.0
C1461 C 0.5666 0.13937 0.70321 0.0
C1462 C 0.56143 0.14404 0.68675 0.0
C1463 C 0.54369 0.11363 0.67651 0.0
C1464 C 0.53114 0.07849 0.68271 0.0
C1465 C 0.3784 0.91629 0.73254 0.0
C1466 C 0.35512 0.90232 0.71896 0.0
C1467 C 0.41531 0.94209 0.73059 0.0
C1468 C 0.4301 0.95398 0.71497 0.0
C1469 C 0.40644 0.94206 0.70143 0.0
C1470 C 0.3691 0.91637 0.70341 0.0
C1471 C 0.4705 0.97708 0.71299 0.0
C1472 C 0.48514 0.01162 0.70566 0.0
C1473 C 0.49465 0.96626 0.71969 0.0
C1474 C 0.48109 0.92916 0.72656 0.0
C1475 C 0.45876 0.8979 0.71719 0.0
C1476 C 0.44568 0.86303 0.72379 0.0
C1477 C 0.45478 0.85902 0.73974 0.0
C1478 C 0.47717 0.88991 0.7491 0.0
C1479 C 0.4904 0.92486 0.74255 0.0
H1480 H 0.44457 0.83198 0.74482 0.0
H1481 H 0.57102 0.1712 0.68193 0.0
H1482 H 0.64707 0.54317 0.58197 0.0
H1483 H 0.58259 0.52387 0.5857 0.0
H1484 H 0.59995 0.54169 0.63754 0.0
H1485 H 0.66511 0.56222 0.63372 0.0
H1486 H 0.53499 0.46574 0.6009 0.0
H1487 H 0.52993 0.55206 0.6542 0.0
H1488 H 0.56686 0.61359 0.66613 0.0
H1489 H 0.61567 0.65602 0.61943 0.0
H1490 H 0.57871 0.59488 0.60719 0.0
H1491 H 0.35356 0.44862 0.63735 0.0
H1492 H 0.41757 0.46306 0.64033 0.0
H1493 H 0.43045 0.47186 0.58807 0.0
H1494 H 0.36721 0.45805 0.58512 0.0
H1495 H 0.47898 0.52915 0.62958 0.0
H1496 H 0.48899 0.44323 0.57665 0.0
H1497 H 0.45103 0.38288 0.56386 0.0
H1498 H 0.39149 0.34126 0.60857 0.0
H1499 H 0.42942 0.40118 0.6217 0.0
C1500 C 0.63737 0.54396 0.59411 0.0
C1501 C 0.6612 0.55441 0.60754 0.0
C1502 C 0.60038 0.5326 0.59626 0.0
C1503 C 0.58612 0.53098 0.61191 0.0
C1504 C 0.61022 0.54304 0.62531 0.0
C1505 C 0.64754 0.55496 0.62311 0.0
C1506 C 0.54575 0.51434 0.61406 0.0
C1507 C 0.52285 0.47985 0.60706 0.0
C1508 C 0.52965 0.53187 0.62266 0.0
C1509 C 0.55191 0.5688 0.62984 0.0
C1510 C 0.54851 0.57455 0.64648 0.0
C1511 C 0.56944 0.60935 0.65329 0.0
C1512 C 0.59371 0.63866 0.64356 0.0
C1513 C 0.597 0.63326 0.62697 0.0
C1514 C 0.57611 0.59853 0.6201 0.0
C1515 C 0.36982 0.45245 0.62653 0.0
C1516 C 0.35542 0.45177 0.61099 0.0
C1517 C 0.40643 0.46114 0.62824 0.0
C1518 C 0.42878 0.46848 0.61442 0.0
C1519 C 0.4137 0.46595 0.59889 0.0
C1520 C 0.37752 0.45792 0.59721 0.0
C1521 C 0.46853 0.48131 0.61593 0.0
C1522 C 0.49126 0.51492 0.62364 0.0
C1523 C 0.48458 0.46316 0.60786 0.0
C1524 C 0.46193 0.42682 0.60013 0.0
C1525 C 0.46794 0.42115 0.58378 0.0
C1526 C 0.44639 0.38702 0.57647 0.0
C1527 C 0.41881 0.35828 0.58538 0.0
C1528 C 0.41278 0.36358 0.60166 0.0
C1529 C 0.43426 0.39764 0.60904 0.0
H1530 H 0.40215 0.33189 0.57969 0.0
H1531 H 0.6099 0.66558 0.64886 0.0
H1532 H 0.09741 0.64552 0.92151 0.0
H1533 H 0.04845 0.5818 0.92367 0.0
H1534 H 0.05648 0.58898 0.97611 0.0
H1535 H 0.10525 0.65345 0.97394 0.0
H1536 H 0.06133 0.52859 0.96159 0.0
H1537 H 0.98279 0.58005 0.961 0.0
H1538 H 0.95963 0.61974 0.95093 0.0
H1539 H 0.9341 0.56465 0.9047 0.0
H1540 H 0.95761 0.52496 0.91441 0.0
H1541 H 0.90887 0.34439 0.96813 0.0
H1542 H 0.95506 0.40911 0.97125 0.0
H1543 H 0.94035 0.42813 0.92083 0.0
H1544 H 0.89334 0.36404 0.91791 0.0
H1545 H 0.93689 0.47662 0.93812 0.0
H1546 H 0.02032 0.43009 0.93668 0.0
H1547 H 0.04595 0.39146 0.94525 0.0
H1548 H 0.06475 0.43757 0.99336 0.0
H1549 H 0.03879 0.47617 0.98512 0.0
C1550 C 0.08791 0.6338 0.9335 0.0
C1551 C 0.10455 0.65444 0.94756 0.0
C1552 C 0.06011 0.59738 0.93473 0.0
C1553 C 0.04883 0.58063 0.95004 0.0
C1554 C 0.06474 0.60145 0.96417 0.0
C1555 C 0.0922 0.63829 0.96295 0.0
C1556 C 0.02201 0.54084 0.95098 0.0
C1557 C 0.03381 0.51713 0.95678 0.0
C1558 C 0.98655 0.52597 0.94428 0.0
C1559 C 0.97222 0.54969 0.93841 0.0
C1560 C 0.97251 0.57658 0.94864 0.0
C1561 C 0.95926 0.59905 0.943 0.0
C1562 C 0.94546 0.59477 0.92717 0.0
C1563 C 0.94481 0.56795 0.91696 0.0
C1564 C 0.95805 0.54542 0.92253 0.0
C1565 C 0.91631 0.36223 0.95761 0.0
C1566 C 0.89762 0.34914 0.94276 0.0
C1567 C 0.94265 0.39931 0.95941 0.0
C1568 C 0.95131 0.42377 0.94628 0.0
C1569 C 0.93402 0.41007 0.93121 0.0
C1570 C 0.90735 0.37331 0.9295 0.0
C1571 C 0.97638 0.46396 0.94834 0.0
C1572 C 0.96423 0.48785 0.9431 0.0
C1573 C 0.01169 0.47892 0.95535 0.0
C1574 C 0.02721 0.45569 0.96034 0.0
C1575 C 0.02963 0.43176 0.94912 0.0
C1576 C 0.04427 0.40992 0.95391 0.0
C1577 C 0.05685 0.41197 0.96985 0.0
C1578 C 0.05492 0.43595 0.98102 0.0
C1579 C 0.04026 0.45783 0.9763 0.0
H1580 H 0.06819 0.39504 0.97354 0.0
H1581 H 0.93522 0.61219 0.92283 0.0
H1582 H 0.4775 0.85084 0.27874 0.0
H1583 H 0.46465 0.90045 0.27984 0.0
H1584 H 0.57918 0.97742 0.28694 0.0
H1585 H 0.59255 0.92671 0.28638 0.0
H1586 H 0.53312 0.9962 0.30477 0.0
H1587 H 0.54679 0.96873 0.24995 0.0
H1588 H 0.53776 0.92951 0.22609 0.0
H1589 H 0.42244 0.89123 0.22704 0.0
H1590 H 0.43072 0.92986 0.25105 0.0
H1591 H 0.4827 0.11579 0.24998 0.0
H1592 H 0.50029 0.06968 0.25342 0.0
H1593 H 0.44621 0.04035 0.30016 0.0
H1594 H 0.42949 0.08818 0.29704 0.0
H1595 H 0.46791 1.00138 0.25537 0.0
H1596 H 0.49176 0.00988 0.32533 0.0
H1597 H 0.5085 0.0549 0.34755 0.0
H1598 H 0.56298 0.14274 0.31325 0.0
H1599 H 0.54708 0.09828 0.29088 0.0
C1600 C 0.50021 0.87807 0.28083 0.0
C1601 C 0.53627 0.88456 0.28234 0.0
C1602 C 0.49266 0.9066 0.2814 0.0
C1603 C 0.52091 0.9428 0.28315 0.0
C1604 C 0.55689 0.94964 0.28551 0.0
C1605 C 0.56452 0.92067 0.28515 0.0
C1606 C 0.51229 0.97285 0.28115 0.0
C1607 C 0.519 0.9975 0.29396 0.0
C1608 C 0.4945 0.97512 0.26691 0.0
C1609 C 0.48935 0.952 0.25238 0.0
C1610 C 0.51946 0.95176 0.24514 0.0
C1611 C 0.51449 0.92967 0.23158 0.0
C1612 C 0.47954 0.90784 0.22508 0.0
C1613 C 0.4495 0.90814 0.2321 0.0
C1614 C 0.45432 0.93017 0.24567 0.0
C1615 C 0.47416 0.09947 0.261 0.0
C1616 C 0.45476 0.10601 0.27329 0.0
C1617 C 0.48428 0.0729 0.26293 0.0
C1618 C 0.4752 0.0517 0.27715 0.0
C1619 C 0.45425 0.0568 0.28919 0.0
C1620 C 0.44421 0.0838 0.2873 0.0
C1621 C 0.48808 0.02467 0.2791 0.0
C1622 C 0.48207 1.00035 0.26622 0.0
C1623 C 0.50766 0.02377 0.29301 0.0
C1624 C 0.51784 0.05072 0.30642 0.0
C1625 C 0.50743 0.0388 0.32255 0.0
C1626 C 0.51677 0.06423 0.33516 0.0
C1627 C 0.53668 0.10166 0.33181 0.0
C1628 C 0.54745 0.11375 0.31583 0.0
C1629 C 0.53825 0.08844 0.30318 0.0
H1630 H 0.54383 0.12128 0.34159 0.0
H1631 H 0.47574 0.89075 0.21458 0.0
loop_
_geom_bond_atom_site_label_1
_geom_bond_atom_site_label_2
_geom_bond_distance
_geom_bond_site_symmetry_2
_ccdc_geom_bond_type
Mn0 O5 2.095 . S
Mn0 O15 2.162 . S
Mn0 O16 2.297 . S
Mn0 O24 2.385 . S
Mn0 O25 2.209 . S
Mn0 O26 2.094 . S
Mn1 O6 2.121 . S
Mn1 N8 2.257 . S
Mn1 N17 2.282 . S
Mn1 O25 2.215 . S
Mn1 O27 2.117 . S
C2 O24 1.234 . S
C2 O25 1.283 . S
C3 O15 1.281 . S
C3 O16 1.236 . S
C4 O26 1.240 . S
C4 O27 1.264 . S
O5 Mn0 2.095 . S
O5 C14 1.250 . S
O6 Mn1 2.121 . S
O6 C14 1.258 . S
C7 N8 1.326 . S
C7 C11 1.460 . S
C7 H13 0.929 . S
N8 Mn1 2.257 . S
N8 C7 1.326 . S
N8 C12 1.362 . S
C9 C10 1.258 . S
C9 C12 1.431 . S
C9 C29 1.449 . S
C10 C9 1.258 . S
C10 C11 1.477 . S
C10 H30 0.931 . S
C11 C7 1.460 . S
C11 C10 1.477 . S
C11 H31 0.930 . S
C12 N8 1.362 . S
C12 C9 1.431 . S
C12 C22 1.476 . S
H13 C7 0.929 . S
C14 O5 1.250 . S
C14 O6 1.258 . S
O15 Mn0 2.162 . S
O15 C3 1.281 . S
O16 Mn0 2.297 . S
O16 C3 1.236 . S
N17 Mn1 2.282 . S
N17 C18 1.328 . S
N17 C22 1.318 . S
C18 N17 1.328 . S
C18 C19 1.457 . S
C18 H23 0.929 . S
C19 C18 1.457 . S
C19 C20 1.291 . S
C19 H32 0.931 . S
C20 C19 1.291 . S
C20 C21 1.373 . S
C20 H33 0.929 . S
C21 C20 1.373 . S
C21 C22 1.396 . S
C21 C28 1.403 . S
C22 C12 1.476 . S
C22 N17 1.318 . S
C22 C21 1.396 . S
H23 C18 0.929 . S
O24 Mn0 2.385 . S
O24 C2 1.234 . S
O25 Mn0 2.209 . S
O25 Mn1 2.215 . S
O25 C2 1.283 . S
O26 Mn0 2.094 . S
O26 C4 1.240 . S
O27 Mn1 2.117 . S
O27 C4 1.264 . S
C28 C21 1.403 . S
C28 C29 1.399 . S
C28 H34 0.929 . S
C29 C9 1.449 . S
C29 C28 1.399 . S
C29 H35 0.930 . S
H30 C10 0.931 . S
H31 C11 0.930 . S
H32 C19 0.931 . S
H33 C20 0.929 . S
H34 C28 0.929 . S
H35 C29 0.930 . S
Mn36 O41 2.095 . S
Mn36 O51 2.162 . S
Mn36 O52 2.297 . S
Mn36 O60 2.385 . S
Mn36 O61 2.209 . S
Mn36 O62 2.094 . S
Mn37 O42 2.121 . S
Mn37 N44 2.257 . S
Mn37 N53 2.282 . S
Mn37 O61 2.215 . S
Mn37 O63 2.117 . S
C38 O60 1.234 . S
C38 O61 1.283 . S
C39 O51 1.281 . S
C39 O52 1.236 . S
C40 O62 1.240 . S
C40 O63 1.264 . S
O41 Mn36 2.095 . S
O41 C50 1.250 . S
O42 Mn37 2.121 . S
O42 C50 1.258 . S
C43 N44 1.326 . S
C43 C47 1.460 . S
C43 H49 0.929 . S
N44 Mn37 2.257 . S
N44 C43 1.326 . S
N44 C48 1.362 . S
C45 C46 1.258 . S
C45 C48 1.431 . S
C45 C65 1.449 . S
C46 C45 1.258 . S
C46 C47 1.477 . S
C46 H66 0.931 . S
C47 C43 1.460 . S
C47 C46 1.477 . S
C47 H67 0.930 . S
C48 N44 1.362 . S
C48 C45 1.431 . S
C48 C58 1.476 . S
H49 C43 0.929 . S
C50 O41 1.250 . S
C50 O42 1.258 . S
O51 Mn36 2.162 . S
O51 C39 1.281 . S
O52 Mn36 2.297 . S
O52 C39 1.236 . S
N53 Mn37 2.282 . S
N53 C54 1.328 . S
N53 C58 1.318 . S
C54 N53 1.328 . S
C54 C55 1.457 . S
C54 H59 0.929 . S
C55 C54 1.457 . S
C55 C56 1.291 . S
C55 H68 0.931 . S
C56 C55 1.291 . S
C56 C57 1.373 . S
C56 H69 0.929 . S
C57 C56 1.373 . S
C57 C58 1.396 . S
C57 C64 1.403 . S
C58 C48 1.476 . S
C58 N53 1.318 . S
C58 C57 1.396 . S
H59 C54 0.929 . S
O60 Mn36 2.385 . S
O60 C38 1.234 . S
O61 Mn36 2.209 . S
O61 Mn37 2.215 . S
O61 C38 1.283 . S
O62 Mn36 2.094 . S
O62 C40 1.240 . S
O63 Mn37 2.117 . S
O63 C40 1.264 . S
C64 C57 1.403 . S
C64 C65 1.399 . S
C64 H70 0.929 . S
C65 C45 1.449 . S
C65 C64 1.399 . S
C65 H71 0.930 . S
H66 C46 0.931 . S
H67 C47 0.930 . S
H68 C55 0.931 . S
H69 C56 0.929 . S
H70 C64 0.929 . S
H71 C65 0.930 . S
Mn72 O77 2.095 . S
Mn72 O87 2.162 . S
Mn72 O88 2.297 . S
Mn72 O96 2.385 . S
Mn72 O97 2.209 . S
Mn72 O98 2.094 . S
Mn73 O78 2.121 . S
Mn73 N80 2.257 . S
Mn73 N89 2.282 . S
Mn73 O97 2.215 . S
Mn73 O99 2.117 . S
C74 O96 1.234 . S
C74 O97 1.283 . S
C75 O87 1.281 . S
C75 O88 1.236 . S
C76 O98 1.240 . S
C76 O99 1.264 . S
O77 Mn72 2.095 . S
O77 C86 1.250 . S
O78 Mn73 2.121 . S
O78 C86 1.258 . S
C79 N80 1.326 . S
C79 C83 1.460 . S
C79 H85 0.929 . S
N80 Mn73 2.257 . S
N80 C79 1.326 . S
N80 C84 1.362 . S
C81 C82 1.258 . S
C81 C84 1.431 . S
C81 C101 1.449 . S
C82 C81 1.258 . S
C82 C83 1.477 . S
C82 H102 0.931 . S
C83 C79 1.460 . S
C83 C82 1.477 . S
C83 H103 0.930 . S
C84 N80 1.362 . S
C84 C81 1.431 . S
C84 C94 1.476 . S
H85 C79 0.929 . S
C86 O77 1.250 . S
C86 O78 1.258 . S
O87 Mn72 2.162 . S
O87 C75 1.281 . S
O88 Mn72 2.297 . S
O88 C75 1.236 . S
N89 Mn73 2.282 . S
N89 C90 1.328 . S
N89 C94 1.318 . S
C90 N89 1.328 . S
C90 C91 1.457 . S
C90 H95 0.929 . S
C91 C90 1.457 . S
C91 C92 1.291 . S
C91 H104 0.931 . S
C92 C91 1.291 . S
C92 C93 1.373 . S
C92 H105 0.929 . S
C93 C92 1.373 . S
C93 C94 1.396 . S
C93 C100 1.403 . S
C94 C84 1.476 . S
C94 N89 1.318 . S
C94 C93 1.396 . S
H95 C90 0.929 . S
O96 Mn72 2.385 . S
O96 C74 1.234 . S
O97 Mn72 2.209 . S
O97 Mn73 2.215 . S
O97 C74 1.283 . S
O98 Mn72 2.094 . S
O98 C76 1.240 . S
O99 Mn73 2.117 . S
O99 C76 1.264 . S
C100 C93 1.403 . S
C100 C101 1.399 . S
C100 H106 0.929 . S
C101 C81 1.449 . S
C101 C100 1.399 . S
C101 H107 0.930 . S
H102 C82 0.931 . S
H103 C83 0.930 . S
H104 C91 0.931 . S
H105 C92 0.929 . S
H106 C100 0.929 . S
H107 C101 0.930 . S
Mn108 O113 2.095 . S
Mn108 O123 2.162 . S
Mn108 O124 2.297 . S
Mn108 O132 2.385 . S
Mn108 O133 2.209 . S
Mn108 O134 2.094 . S
Mn109 O114 2.121 . S
Mn109 N116 2.257 . S
Mn109 N125 2.282 . S
Mn109 O133 2.215 . S
Mn109 O135 2.117 . S
C110 O132 1.234 . S
C110 O133 1.283 . S
C111 O123 1.281 . S
C111 O124 1.236 . S
C112 O134 1.240 . S
C112 O135 1.264 . S
O113 Mn108 2.095 . S
O113 C122 1.250 . S
O114 Mn109 2.121 . S
O114 C122 1.258 . S
C115 N116 1.326 . S
C115 C119 1.460 . S
C115 H121 0.929 . S
N116 Mn109 2.257 . S
N116 C115 1.326 . S
N116 C120 1.362 . S
C117 C118 1.258 . S
C117 C120 1.431 . S
C117 C137 1.449 . S
C118 C117 1.258 . S
C118 C119 1.477 . S
C118 H138 0.931 . S
C119 C115 1.460 . S
C119 C118 1.477 . S
C119 H139 0.930 . S
C120 N116 1.362 . S
C120 C117 1.431 . S
C120 C130 1.476 . S
H121 C115 0.929 . S
C122 O113 1.250 . S
C122 O114 1.258 . S
O123 Mn108 2.162 . S
O123 C111 1.281 . S
O124 Mn108 2.297 . S
O124 C111 1.236 . S
N125 Mn109 2.282 . S
N125 C126 1.328 . S
N125 C130 1.318 . S
C126 N125 1.328 . S
C126 C127 1.457 . S
C126 H131 0.929 . S
C127 C126 1.457 . S
C127 C128 1.291 . S
C127 H140 0.931 . S
C128 C127 1.291 . S
C128 C129 1.373 . S
C128 H141 0.929 . S
C129 C128 1.373 . S
C129 C130 1.396 . S
C129 C136 1.403 . S
C130 C120 1.476 . S
C130 N125 1.318 . S
C130 C129 1.396 . S
H131 C126 0.929 . S
O132 Mn108 2.385 . S
O132 C110 1.234 . S
O133 Mn108 2.209 . S
O133 Mn109 2.215 . S
O133 C110 1.283 . S
O134 Mn108 2.094 . S
O134 C112 1.240 . S
O135 Mn109 2.117 . S
O135 C112 1.264 . S
C136 C129 1.403 . S
C136 C137 1.399 . S
C136 H142 0.929 . S
C137 C117 1.449 . S
C137 C136 1.399 . S
C137 H143 0.930 . S
H138 C118 0.931 . S
H139 C119 0.930 . S
H140 C127 0.931 . S
H141 C128 0.929 . S
H142 C136 0.929 . S
H143 C137 0.930 . S
Mn144 O149 2.095 . S
Mn144 O159 2.162 . S
Mn144 O160 2.297 . S
Mn144 O168 2.385 . S
Mn144 O169 2.209 . S
Mn144 O170 2.094 . S
Mn145 O150 2.121 . S
Mn145 N152 2.257 . S
Mn145 N161 2.282 . S
Mn145 O169 2.215 . S
Mn145 O171 2.117 . S
C146 O168 1.234 . S
C146 O169 1.283 . S
C147 O159 1.281 . S
C147 O160 1.236 . S
C148 O170 1.240 . S
C148 O171 1.264 . S
O149 Mn144 2.095 . S
O149 C158 1.250 . S
O150 Mn145 2.121 . S
O150 C158 1.258 . S
C151 N152 1.326 . S
C151 C155 1.460 . S
C151 H157 0.929 . S
N152 Mn145 2.257 . S
N152 C151 1.326 . S
N152 C156 1.362 . S
C153 C154 1.258 . S
C153 C156 1.431 . S
C153 C173 1.449 . S
C154 C153 1.258 . S
C154 C155 1.477 . S
C154 H174 0.931 . S
C155 C151 1.460 . S
C155 C154 1.477 . S
C155 H175 0.930 . S
C156 N152 1.362 . S
C156 C153 1.431 . S
C156 C166 1.476 . S
H157 C151 0.929 . S
C158 O149 1.250 . S
C158 O150 1.258 . S
O159 Mn144 2.162 . S
O159 C147 1.281 . S
O160 Mn144 2.297 . S
O160 C147 1.236 . S
N161 Mn145 2.282 . S
N161 C162 1.328 . S
N161 C166 1.318 . S
C162 N161 1.328 . S
C162 C163 1.457 . S
C162 H167 0.929 . S
C163 C162 1.457 . S
C163 C164 1.291 . S
C163 H176 0.931 . S
C164 C163 1.291 . S
C164 C165 1.373 . S
C164 H177 0.929 . S
C165 C164 1.373 . S
C165 C166 1.396 . S
C165 C172 1.403 . S
C166 C156 1.476 . S
C166 N161 1.318 . S
C166 C165 1.396 . S
H167 C162 0.929 . S
O168 Mn144 2.385 . S
O168 C146 1.234 . S
O169 Mn144 2.209 . S
O169 Mn145 2.215 . S
O169 C146 1.283 . S
O170 Mn144 2.094 . S
O170 C148 1.240 . S
O171 Mn145 2.117 . S
O171 C148 1.264 . S
C172 C165 1.403 . S
C172 C173 1.399 . S
C172 H178 0.929 . S
C173 C153 1.449 . S
C173 C172 1.399 . S
C173 H179 0.930 . S
H174 C154 0.931 . S
H175 C155 0.930 . S
H176 C163 0.931 . S
H177 C164 0.929 . S
H178 C172 0.929 . S
H179 C173 0.930 . S
Mn180 O185 2.095 . S
Mn180 O195 2.162 . S
Mn180 O196 2.297 . S
Mn180 O204 2.385 . S
Mn180 O205 2.209 . S
Mn180 O206 2.094 . S
Mn181 O186 2.121 . S
Mn181 N188 2.257 . S
Mn181 N197 2.282 . S
Mn181 O205 2.215 . S
Mn181 O207 2.117 . S
C182 O204 1.234 . S
C182 O205 1.283 . S
C183 O195 1.281 . S
C183 O196 1.236 . S
C184 O206 1.240 . S
C184 O207 1.264 . S
O185 Mn180 2.095 . S
O185 C194 1.250 . S
O186 Mn181 2.121 . S
O186 C194 1.258 . S
C187 N188 1.326 . S
C187 C191 1.460 . S
C187 H193 0.929 . S
N188 Mn181 2.257 . S
N188 C187 1.326 . S
N188 C192 1.362 . S
C189 C190 1.258 . S
C189 C192 1.431 . S
C189 C209 1.449 . S
C190 C189 1.258 . S
C190 C191 1.477 . S
C190 H210 0.931 . S
C191 C187 1.460 . S
C191 C190 1.477 . S
C191 H211 0.930 . S
C192 N188 1.362 . S
C192 C189 1.431 . S
C192 C202 1.476 . S
H193 C187 0.929 . S
C194 O185 1.250 . S
C194 O186 1.258 . S
O195 Mn180 2.162 . S
O195 C183 1.281 . S
O196 Mn180 2.297 . S
O196 C183 1.236 . S
N197 Mn181 2.282 . S
N197 C198 1.328 . S
N197 C202 1.318 . S
C198 N197 1.328 . S
C198 C199 1.457 . S
C198 H203 0.929 . S
C199 C198 1.457 . S
C199 C200 1.291 . S
C199 H212 0.931 . S
C200 C199 1.291 . S
C200 C201 1.373 . S
C200 H213 0.929 . S
C201 C200 1.373 . S
C201 C202 1.396 . S
C201 C208 1.403 . S
C202 C192 1.476 . S
C202 N197 1.318 . S
C202 C201 1.396 . S
H203 C198 0.929 . S
O204 Mn180 2.385 . S
O204 C182 1.234 . S
O205 Mn180 2.209 . S
O205 Mn181 2.215 . S
O205 C182 1.283 . S
O206 Mn180 2.094 . S
O206 C184 1.240 . S
O207 Mn181 2.117 . S
O207 C184 1.264 . S
C208 C201 1.403 . S
C208 C209 1.399 . S
C208 H214 0.929 . S
C209 C189 1.449 . S
C209 C208 1.399 . S
C209 H215 0.930 . S
H210 C190 0.931 . S
H211 C191 0.930 . S
H212 C199 0.931 . S
H213 C200 0.929 . S
H214 C208 0.929 . S
H215 C209 0.930 . S
Mn216 O221 2.095 . S
Mn216 O231 2.162 . S
Mn216 O232 2.297 . S
Mn216 O240 2.385 . S
Mn216 O241 2.209 . S
Mn216 O242 2.094 . S
Mn217 O222 2.121 . S
Mn217 N224 2.257 . S
Mn217 N233 2.282 . S
Mn217 O241 2.215 . S
Mn217 O243 2.117 . S
C218 O240 1.234 . S
C218 O241 1.283 . S
C219 O231 1.281 . S
C219 O232 1.236 . S
C220 O242 1.240 . S
C220 O243 1.264 . S
O221 Mn216 2.095 . S
O221 C230 1.250 . S
O222 Mn217 2.121 . S
O222 C230 1.258 . S
C223 N224 1.326 . S
C223 C227 1.460 . S
C223 H229 0.929 . S
N224 Mn217 2.257 . S
N224 C223 1.326 . S
N224 C228 1.362 . S
C225 C226 1.258 . S
C225 C228 1.431 . S
C225 C245 1.449 . S
C226 C225 1.258 . S
C226 C227 1.477 . S
C226 H246 0.931 . S
C227 C223 1.460 . S
C227 C226 1.477 . S
C227 H247 0.930 . S
C228 N224 1.362 . S
C228 C225 1.431 . S
C228 C238 1.476 . S
H229 C223 0.929 . S
C230 O221 1.250 . S
C230 O222 1.258 . S
O231 Mn216 2.162 . S
O231 C219 1.281 . S
O232 Mn216 2.297 . S
O232 C219 1.236 . S
N233 Mn217 2.282 . S
N233 C234 1.328 . S
N233 C238 1.318 . S
C234 N233 1.328 . S
C234 C235 1.457 . S
C234 H239 0.929 . S
C235 C234 1.457 . S
C235 C236 1.291 . S
C235 H248 0.931 . S
C236 C235 1.291 . S
C236 C237 1.373 . S
C236 H249 0.929 . S
C237 C236 1.373 . S
C237 C238 1.396 . S
C237 C244 1.403 . S
C238 C228 1.476 . S
C238 N233 1.318 . S
C238 C237 1.396 . S
H239 C234 0.929 . S
O240 Mn216 2.385 . S
O240 C218 1.234 . S
O241 Mn216 2.209 . S
O241 Mn217 2.215 . S
O241 C218 1.283 . S
O242 Mn216 2.094 . S
O242 C220 1.240 . S
O243 Mn217 2.117 . S
O243 C220 1.264 . S
C244 C237 1.403 . S
C244 C245 1.399 . S
C244 H250 0.929 . S
C245 C225 1.449 . S
C245 C244 1.399 . S
C245 H251 0.930 . S
H246 C226 0.931 . S
H247 C227 0.930 . S
H248 C235 0.931 . S
H249 C236 0.929 . S
H250 C244 0.929 . S
H251 C245 0.930 . S
Mn252 O257 2.095 . S
Mn252 O267 2.162 . S
Mn252 O268 2.297 . S
Mn252 O276 2.385 . S
Mn252 O277 2.209 . S
Mn252 O278 2.094 . S
Mn253 O258 2.121 . S
Mn253 N260 2.257 . S
Mn253 N269 2.282 . S
Mn253 O277 2.215 . S
Mn253 O279 2.117 . S
C254 O276 1.234 . S
C254 O277 1.283 . S
C255 O267 1.281 . S
C255 O268 1.236 . S
C256 O278 1.240 . S
C256 O279 1.264 . S
O257 Mn252 2.095 . S
O257 C266 1.250 . S
O258 Mn253 2.121 . S
O258 C266 1.258 . S
C259 N260 1.326 . S
C259 C263 1.460 . S
C259 H265 0.929 . S
N260 Mn253 2.257 . S
N260 C259 1.326 . S
N260 C264 1.362 . S
C261 C262 1.258 . S
C261 C264 1.431 . S
C261 C281 1.449 . S
C262 C261 1.258 . S
C262 C263 1.477 . S
C262 H282 0.931 . S
C263 C259 1.460 . S
C263 C262 1.477 . S
C263 H283 0.930 . S
C264 N260 1.362 . S
C264 C261 1.431 . S
C264 C274 1.476 . S
H265 C259 0.929 . S
C266 O257 1.250 . S
C266 O258 1.258 . S
O267 Mn252 2.162 . S
O267 C255 1.281 . S
O268 Mn252 2.297 . S
O268 C255 1.236 . S
N269 Mn253 2.282 . S
N269 C270 1.328 . S
N269 C274 1.318 . S
C270 N269 1.328 . S
C270 C271 1.457 . S
C270 H275 0.929 . S
C271 C270 1.457 . S
C271 C272 1.291 . S
C271 H284 0.931 . S
C272 C271 1.291 . S
C272 C273 1.373 . S
C272 H285 0.929 . S
C273 C272 1.373 . S
C273 C274 1.396 . S
C273 C280 1.403 . S
C274 C264 1.476 . S
C274 N269 1.318 . S
C274 C273 1.396 . S
H275 C270 0.929 . S
O276 Mn252 2.385 . S
O276 C254 1.234 . S
O277 Mn252 2.209 . S
O277 Mn253 2.215 . S
O277 C254 1.283 . S
O278 Mn252 2.094 . S
O278 C256 1.240 . S
O279 Mn253 2.117 . S
O279 C256 1.264 . S
C280 C273 1.403 . S
C280 C281 1.399 . S
C280 H286 0.929 . S
C281 C261 1.449 . S
C281 C280 1.399 . S
C281 H287 0.930 . S
H282 C262 0.931 . S
H283 C263 0.930 . S
H284 C271 0.931 . S
H285 C272 0.929 . S
H286 C280 0.929 . S
H287 C281 0.930 . S
Mn288 O293 2.095 . S
Mn288 O303 2.162 . S
Mn288 O304 2.297 . S
Mn288 O312 2.385 . S
Mn288 O313 2.209 . S
Mn288 O314 2.094 . S
Mn289 O294 2.121 . S
Mn289 N296 2.257 . S
Mn289 N305 2.282 . S
Mn289 O313 2.215 . S
Mn289 O315 2.117 . S
C290 O312 1.234 . S
C290 O313 1.283 . S
C291 O303 1.281 . S
C291 O304 1.236 . S
C292 O314 1.240 . S
C292 O315 1.264 . S
O293 Mn288 2.095 . S
O293 C302 1.250 . S
O294 Mn289 2.121 . S
O294 C302 1.258 . S
C295 N296 1.326 . S
C295 C299 1.460 . S
C295 H301 0.929 . S
N296 Mn289 2.257 . S
N296 C295 1.326 . S
N296 C300 1.362 . S
C297 C298 1.258 . S
C297 C300 1.431 . S
C297 C317 1.449 . S
C298 C297 1.258 . S
C298 C299 1.477 . S
C298 H318 0.931 . S
C299 C295 1.460 . S
C299 C298 1.477 . S
C299 H319 0.930 . S
C300 N296 1.362 . S
C300 C297 1.431 . S
C300 C310 1.476 . S
H301 C295 0.929 . S
C302 O293 1.250 . S
C302 O294 1.258 . S
O303 Mn288 2.162 . S
O303 C291 1.281 . S
O304 Mn288 2.297 . S
O304 C291 1.236 . S
N305 Mn289 2.282 . S
N305 C306 1.328 . S
N305 C310 1.318 . S
C306 N305 1.328 . S
C306 C307 1.457 . S
C306 H311 0.929 . S
C307 C306 1.457 . S
C307 C308 1.291 . S
C307 H320 0.931 . S
C308 C307 1.291 . S
C308 C309 1.373 . S
C308 H321 0.929 . S
C309 C308 1.373 . S
C309 C310 1.396 . S
C309 C316 1.403 . S
C310 C300 1.476 . S
C310 N305 1.318 . S
C310 C309 1.396 . S
H311 C306 0.929 . S
O312 Mn288 2.385 . S
O312 C290 1.234 . S
O313 Mn288 2.209 . S
O313 Mn289 2.215 . S
O313 C290 1.283 . S
O314 Mn288 2.094 . S
O314 C292 1.240 . S
O315 Mn289 2.117 . S
O315 C292 1.264 . S
C316 C309 1.403 . S
C316 C317 1.399 . S
C316 H322 0.929 . S
C317 C297 1.449 . S
C317 C316 1.399 . S
C317 H323 0.930 . S
H318 C298 0.931 . S
H319 C299 0.930 . S
H320 C307 0.931 . S
H321 C308 0.929 . S
H322 C316 0.929 . S
H323 C317 0.930 . S
Mn324 O329 2.095 . S
Mn324 O339 2.162 . S
Mn324 O340 2.297 . S
Mn324 O348 2.385 . S
Mn324 O349 2.209 . S
Mn324 O350 2.094 . S
Mn325 O330 2.121 . S
Mn325 N332 2.257 . S
Mn325 N341 2.282 . S
Mn325 O349 2.215 . S
Mn325 O351 2.117 . S
C326 O348 1.234 . S
C326 O349 1.283 . S
C327 O339 1.281 . S
C327 O340 1.236 . S
C328 O350 1.240 . S
C328 O351 1.264 . S
O329 Mn324 2.095 . S
O329 C338 1.250 . S
O330 Mn325 2.121 . S
O330 C338 1.258 . S
C331 N332 1.326 . S
C331 C335 1.460 . S
C331 H337 0.929 . S
N332 Mn325 2.257 . S
N332 C331 1.326 . S
N332 C336 1.362 . S
C333 C334 1.258 . S
C333 C336 1.431 . S
C333 C353 1.449 . S
C334 C333 1.258 . S
C334 C335 1.477 . S
C334 H354 0.931 . S
C335 C331 1.460 . S
C335 C334 1.477 . S
C335 H355 0.930 . S
C336 N332 1.362 . S
C336 C333 1.431 . S
C336 C346 1.476 . S
H337 C331 0.929 . S
C338 O329 1.250 . S
C338 O330 1.258 . S
O339 Mn324 2.162 . S
O339 C327 1.281 . S
O340 Mn324 2.297 . S
O340 C327 1.236 . S
N341 Mn325 2.282 . S
N341 C342 1.328 . S
N341 C346 1.318 . S
C342 N341 1.328 . S
C342 C343 1.457 . S
C342 H347 0.929 . S
C343 C342 1.457 . S
C343 C344 1.291 . S
C343 H356 0.931 . S
C344 C343 1.291 . S
C344 C345 1.373 . S
C344 H357 0.929 . S
C345 C344 1.373 . S
C345 C346 1.396 . S
C345 C352 1.403 . S
C346 C336 1.476 . S
C346 N341 1.318 . S
C346 C345 1.396 . S
H347 C342 0.929 . S
O348 Mn324 2.385 . S
O348 C326 1.234 . S
O349 Mn324 2.209 . S
O349 Mn325 2.215 . S
O349 C326 1.283 . S
O350 Mn324 2.094 . S
O350 C328 1.240 . S
O351 Mn325 2.117 . S
O351 C328 1.264 . S
C352 C345 1.403 . S
C352 C353 1.399 . S
C352 H358 0.929 . S
C353 C333 1.449 . S
C353 C352 1.399 . S
C353 H359 0.930 . S
H354 C334 0.931 . S
H355 C335 0.930 . S
H356 C343 0.931 . S
H357 C344 0.929 . S
H358 C352 0.929 . S
H359 C353 0.930 . S
Mn360 O365 2.095 . S
Mn360 O375 2.162 . S
Mn360 O376 2.297 . S
Mn360 O384 2.385 . S
Mn360 O385 2.209 . S
Mn360 O386 2.094 . S
Mn361 O366 2.121 . S
Mn361 N368 2.257 . S
Mn361 N377 2.282 . S
Mn361 O385 2.215 . S
Mn361 O387 2.117 . S
C362 O384 1.234 . S
C362 O385 1.283 . S
C363 O375 1.281 . S
C363 O376 1.236 . S
C364 O386 1.240 . S
C364 O387 1.264 . S
O365 Mn360 2.095 . S
O365 C374 1.250 . S
O366 Mn361 2.121 . S
O366 C374 1.258 . S
C367 N368 1.326 . S
C367 C371 1.460 . S
C367 H373 0.929 . S
N368 Mn361 2.257 . S
N368 C367 1.326 . S
N368 C372 1.362 . S
C369 C370 1.258 . S
C369 C372 1.431 . S
C369 C389 1.449 . S
C370 C369 1.258 . S
C370 C371 1.477 . S
C370 H390 0.931 . S
C371 C367 1.460 . S
C371 C370 1.477 . S
C371 H391 0.930 . S
C372 N368 1.362 . S
C372 C369 1.431 . S
C372 C382 1.476 . S
H373 C367 0.929 . S
C374 O365 1.250 . S
C374 O366 1.258 . S
O375 Mn360 2.162 . S
O375 C363 1.281 . S
O376 Mn360 2.297 . S
O376 C363 1.236 . S
N377 Mn361 2.282 . S
N377 C378 1.328 . S
N377 C382 1.318 . S
C378 N377 1.328 . S
C378 C379 1.457 . S
C378 H383 0.929 . S
C379 C378 1.457 . S
C379 C380 1.291 . S
C379 H392 0.931 . S
C380 C379 1.291 . S
C380 C381 1.373 . S
C380 H393 0.929 . S
C381 C380 1.373 . S
C381 C382 1.396 . S
C381 C388 1.403 . S
C382 C372 1.476 . S
C382 N377 1.318 . S
C382 C381 1.396 . S
H383 C378 0.929 . S
O384 Mn360 2.385 . S
O384 C362 1.234 . S
O385 Mn360 2.209 . S
O385 Mn361 2.215 . S
O385 C362 1.283 . S
O386 Mn360 2.094 . S
O386 C364 1.240 . S
O387 Mn361 2.117 . S
O387 C364 1.264 . S
C388 C381 1.403 . S
C388 C389 1.399 . S
C388 H394 0.929 . S
C389 C369 1.449 . S
C389 C388 1.399 . S
C389 H395 0.930 . S
H390 C370 0.931 . S
H391 C371 0.930 . S
H392 C379 0.931 . S
H393 C380 0.929 . S
H394 C388 0.929 . S
H395 C389 0.930 . S
Mn396 O401 2.095 . S
Mn396 O411 2.162 . S
Mn396 O412 2.297 . S
Mn396 O420 2.385 . S
Mn396 O421 2.209 . S
Mn396 O422 2.094 . S
Mn397 O402 2.121 . S
Mn397 N404 2.257 . S
Mn397 N413 2.282 . S
Mn397 O421 2.215 . S
Mn397 O423 2.117 . S
C398 O420 1.234 . S
C398 O421 1.283 . S
C399 O411 1.281 . S
C399 O412 1.236 . S
C400 O422 1.240 . S
C400 O423 1.264 . S
O401 Mn396 2.095 . S
O401 C410 1.250 . S
O402 Mn397 2.121 . S
O402 C410 1.258 . S
C403 N404 1.326 . S
C403 C407 1.460 . S
C403 H409 0.929 . S
N404 Mn397 2.257 . S
N404 C403 1.326 . S
N404 C408 1.362 . S
C405 C406 1.258 . S
C405 C408 1.431 . S
C405 C425 1.449 . S
C406 C405 1.258 . S
C406 C407 1.477 . S
C406 H426 0.931 . S
C407 C403 1.460 . S
C407 C406 1.477 . S
C407 H427 0.930 . S
C408 N404 1.362 . S
C408 C405 1.431 . S
C408 C418 1.476 . S
H409 C403 0.929 . S
C410 O401 1.250 . S
C410 O402 1.258 . S
O411 Mn396 2.162 . S
O411 C399 1.281 . S
O412 Mn396 2.297 . S
O412 C399 1.236 . S
N413 Mn397 2.282 . S
N413 C414 1.328 . S
N413 C418 1.318 . S
C414 N413 1.328 . S
C414 C415 1.457 . S
C414 H419 0.929 . S
C415 C414 1.457 . S
C415 C416 1.291 . S
C415 H428 0.931 . S
C416 C415 1.291 . S
C416 C417 1.373 . S
C416 H429 0.929 . S
C417 C416 1.373 . S
C417 C418 1.396 . S
C417 C424 1.403 . S
C418 C408 1.476 . S
C418 N413 1.318 . S
C418 C417 1.396 . S
H419 C414 0.929 . S
O420 Mn396 2.385 . S
O420 C398 1.234 . S
O421 Mn396 2.209 . S
O421 Mn397 2.215 . S
O421 C398 1.283 . S
O422 Mn396 2.094 . S
O422 C400 1.240 . S
O423 Mn397 2.117 . S
O423 C400 1.264 . S
C424 C417 1.403 . S
C424 C425 1.399 . S
C424 H430 0.929 . S
C425 C405 1.449 . S
C425 C424 1.399 . S
C425 H431 0.930 . S
H426 C406 0.931 . S
H427 C407 0.930 . S
H428 C415 0.931 . S
H429 C416 0.929 . S
H430 C424 0.929 . S
H431 C425 0.930 . S
H432 C450 0.951 . S
H433 C452 0.951 . S
H434 C454 0.950 1_554 S
H435 C455 0.950 . S
H436 C457 0.950 . S
H437 C460 0.950 . S
H438 C461 0.950 . S
H439 C463 0.950 . S
H440 C464 0.950 . S
H441 C465 0.951 . S
H442 C467 0.951 . S
H443 C469 0.950 1_556 S
H444 C470 0.950 . S
H445 C472 0.950 . S
H446 C475 0.950 . S
H447 C476 0.950 . S
H448 C478 0.950 . S
H449 C479 0.950 . S
C450 H432 0.951 . S
C450 C451 1.366 . S
C450 C452 1.388 . S
C451 C450 1.366 . S
C451 C455 1.385 . S
C452 H433 0.951 . S
C452 C450 1.388 . S
C452 C453 1.366 . S
C453 C452 1.366 . S
C453 C454 1.414 . S
C453 C456 1.499 . S
C454 H434 0.950 1_556 S
C454 C453 1.414 . S
C454 C455 1.374 . S
C455 H435 0.950 . S
C455 C451 1.385 . S
C455 C454 1.374 . S
C456 C453 1.499 . S
C456 C457 1.373 1_556 S
C456 C458 1.389 . S
C457 H436 0.950 . S
C457 C456 1.373 1_554 S
C457 C473 1.377 1_565 S
C458 C456 1.389 . S
C458 C459 1.524 . S
C458 C472 1.377 1_565 S
C459 C458 1.524 . S
C459 C460 1.397 . S
C459 C464 1.363 1_565 S
C460 H437 0.950 . S
C460 C459 1.397 . S
C460 C461 1.334 . S
C461 H438 0.950 . S
C461 C460 1.334 . S
C461 C462 1.287 . S
C462 C461 1.287 . S
C462 C463 1.524 1_565 S
C462 H481 0.913 . S
C463 H439 0.950 . S
C463 C462 1.524 1_545 S
C463 C464 1.415 . S
C464 H440 0.950 . S
C464 C459 1.363 1_545 S
C464 C463 1.415 . S
C465 H441 0.951 . S
C465 C466 1.366 . S
C465 C467 1.388 . S
C466 C465 1.366 . S
C466 C470 1.385 . S
C467 H442 0.951 . S
C467 C465 1.388 . S
C467 C468 1.366 . S
C468 C467 1.366 . S
C468 C469 1.414 . S
C468 C471 1.499 . S
C469 H443 0.950 1_554 S
C469 C468 1.414 . S
C469 C470 1.374 . S
C470 H444 0.950 . S
C470 C466 1.385 . S
C470 C469 1.374 . S
C471 C468 1.499 . S
C471 C472 1.373 1_554 S
C471 C473 1.389 . S
C472 H445 0.950 . S
C472 C458 1.377 1_545 S
C472 C471 1.373 1_556 S
C473 C457 1.377 1_545 S
C473 C471 1.389 . S
C473 C474 1.524 . S
C474 C473 1.524 . S
C474 C475 1.397 . S
C474 C479 1.363 1_545 S
C475 H446 0.950 . S
C475 C474 1.397 . S
C475 C476 1.334 . S
C476 H447 0.950 . S
C476 C475 1.334 . S
C476 C477 1.287 . S
C477 C476 1.287 . S
C477 C478 1.524 1_545 S
C477 H480 0.999 . S
C478 H448 0.950 . S
C478 C477 1.524 1_565 S
C478 C479 1.415 . S
C479 H449 0.950 . S
C479 C474 1.363 1_565 S
C479 C478 1.415 . S
H480 C477 0.999 . S
H481 C462 0.913 . S
H482 C500 0.951 . S
H483 C502 0.951 . S
H484 C504 0.950 . S
H485 C505 0.950 . S
H486 C507 0.950 . S
H487 C510 0.950 . S
H488 C511 0.950 . S
H489 C513 0.950 . S
H490 C514 0.950 . S
H491 C515 0.951 . S
H492 C517 0.951 . S
H493 C519 0.950 . S
H494 C520 0.950 . S
H495 C522 0.950 . S
H496 C525 0.950 . S
H497 C526 0.950 . S
H498 C528 0.950 . S
H499 C529 0.950 . S
C500 H482 0.951 . S
C500 C501 1.366 . S
C500 C502 1.388 . S
C501 C500 1.366 . S
C501 C505 1.385 . S
C502 H483 0.951 . S
C502 C500 1.388 . S
C502 C503 1.366 . S
C503 C502 1.366 . S
C503 C504 1.414 . S
C503 C506 1.499 . S
C504 H484 0.950 . S
C504 C503 1.414 . S
C504 C505 1.374 . S
C505 H485 0.950 . S
C505 C501 1.385 . S
C505 C504 1.374 . S
C506 C503 1.499 . S
C506 C507 1.373 . S
C506 C508 1.389 . S
C507 H486 0.950 . S
C507 C506 1.373 . S
C507 C523 1.377 . S
C508 C506 1.389 . S
C508 C509 1.524 . S
C508 C522 1.377 . S
C509 C508 1.524 . S
C509 C510 1.397 . S
C509 C514 1.363 . S
C510 H487 0.950 . S
C510 C509 1.397 . S
C510 C511 1.334 . S
C511 H488 0.950 . S
C511 C510 1.334 . S
C511 C512 1.287 . S
C512 C511 1.287 . S
C512 C513 1.524 . S
C512 H531 0.913 . S
C513 H489 0.950 . S
C513 C512 1.524 . S
C513 C514 1.415 . S
C514 H490 0.950 . S
C514 C509 1.363 . S
C514 C513 1.415 . S
C515 H491 0.951 . S
C515 C516 1.366 . S
C515 C517 1.388 . S
C516 C515 1.366 . S
C516 C520 1.385 . S
C517 H492 0.951 . S
C517 C515 1.388 . S
C517 C518 1.366 . S
C518 C517 1.366 . S
C518 C519 1.414 . S
C518 C521 1.499 . S
C519 H493 0.950 . S
C519 C518 1.414 . S
C519 C520 1.374 . S
C520 H494 0.950 . S
C520 C516 1.385 . S
C520 C519 1.374 . S
C521 C518 1.499 . S
C521 C522 1.373 . S
C521 C523 1.389 . S
C522 H495 0.950 . S
C522 C508 1.377 . S
C522 C521 1.373 . S
C523 C507 1.377 . S
C523 C521 1.389 . S
C523 C524 1.524 . S
C524 C523 1.524 . S
C524 C525 1.397 . S
C524 C529 1.363 . S
C525 H496 0.950 . S
C525 C524 1.397 . S
C525 C526 1.334 . S
C526 H497 0.950 . S
C526 C525 1.334 . S
C526 C527 1.287 . S
C527 C526 1.287 . S
C527 C528 1.524 . S
C527 H530 0.999 . S
C528 H498 0.950 . S
C528 C527 1.524 . S
C528 C529 1.415 . S
C529 H499 0.950 . S
C529 C524 1.363 . S
C529 C528 1.415 . S
H530 C527 0.999 . S
H531 C512 0.913 . S
H532 C550 0.951 . S
H533 C552 0.951 . S
H534 C554 0.950 . S
H535 C555 0.950 . S
H536 C557 0.950 . S
H537 C560 0.950 . S
H538 C561 0.950 . S
H539 C563 0.950 . S
H540 C564 0.950 . S
H541 C565 0.951 . S
H542 C567 0.951 . S
H543 C569 0.950 . S
H544 C570 0.950 . S
H545 C572 0.950 . S
H546 C575 0.950 . S
H547 C576 0.950 . S
H548 C578 0.950 . S
H549 C579 0.950 . S
C550 H532 0.951 . S
C550 C551 1.366 . S
C550 C552 1.388 . S
C551 C550 1.366 . S
C551 C555 1.385 . S
C552 H533 0.951 . S
C552 C550 1.388 . S
C552 C553 1.366 . S
C553 C552 1.366 . S
C553 C554 1.414 . S
C553 C556 1.499 . S
C554 H534 0.950 . S
C554 C553 1.414 . S
C554 C555 1.374 . S
C555 H535 0.950 . S
C555 C551 1.385 . S
C555 C554 1.374 . S
C556 C553 1.499 . S
C556 C557 1.373 . S
C556 C558 1.389 . S
C557 H536 0.950 . S
C557 C556 1.373 . S
C557 C573 1.377 1_655 S
C558 C556 1.389 . S
C558 C559 1.524 . S
C558 C572 1.377 1_655 S
C559 C558 1.524 . S
C559 C560 1.397 . S
C559 C564 1.363 . S
C560 H537 0.950 . S
C560 C559 1.397 . S
C560 C561 1.334 . S
C561 H538 0.950 . S
C561 C560 1.334 . S
C561 C562 1.287 . S
C562 C561 1.287 . S
C562 C563 1.524 . S
C562 H581 0.913 . S
C563 H539 0.950 . S
C563 C562 1.524 . S
C563 C564 1.415 . S
C564 H540 0.950 . S
C564 C559 1.363 . S
C564 C563 1.415 . S
C565 H541 0.951 . S
C565 C566 1.366 . S
C565 C567 1.388 . S
C566 C565 1.366 . S
C566 C570 1.385 . S
C567 H542 0.951 . S
C567 C565 1.388 . S
C567 C568 1.366 . S
C568 C567 1.366 . S
C568 C569 1.414 . S
C568 C571 1.499 . S
C569 H543 0.950 . S
C569 C568 1.414 . S
C569 C570 1.374 . S
C570 H544 0.950 . S
C570 C566 1.385 . S
C570 C569 1.374 . S
C571 C568 1.499 . S
C571 C572 1.373 . S
C571 C573 1.389 . S
C572 H545 0.950 . S
C572 C558 1.377 1_455 S
C572 C571 1.373 . S
C573 C557 1.377 1_455 S
C573 C571 1.389 . S
C573 C574 1.524 . S
C574 C573 1.524 . S
C574 C575 1.397 . S
C574 C579 1.363 . S
C575 H546 0.950 . S
C575 C574 1.397 . S
C575 C576 1.334 . S
C576 H547 0.950 . S
C576 C575 1.334 . S
C576 C577 1.287 . S
C577 C576 1.287 . S
C577 C578 1.524 . S
C577 H580 0.999 . S
C578 H548 0.950 . S
C578 C577 1.524 . S
C578 C579 1.415 . S
C579 H549 0.950 . S
C579 C574 1.363 . S
C579 C578 1.415 . S
H580 C577 0.999 . S
H581 C562 0.913 . S
H582 C600 0.951 . S
H583 C602 0.951 1_556 S
H584 C604 0.950 . S
H585 C605 0.950 . S
H586 C607 0.950 . S
H587 C610 0.950 . S
H588 C611 0.950 . S
H589 C613 0.950 . S
H590 C614 0.950 . S
H591 C615 0.951 . S
H592 C617 0.951 1_554 S
H593 C619 0.950 . S
H594 C620 0.950 . S
H595 C622 0.950 . S
H596 C625 0.950 . S
H597 C626 0.950 . S
H598 C628 0.950 . S
H599 C629 0.950 . S
C600 H582 0.951 . S
C600 C601 1.366 . S
C600 C602 1.388 . S
C601 C600 1.366 . S
C601 C605 1.385 . S
C602 H583 0.951 1_554 S
C602 C600 1.388 . S
C602 C603 1.366 . S
C603 C602 1.366 . S
C603 C604 1.414 . S
C603 C606 1.499 . S
C604 H584 0.950 . S
C604 C603 1.414 . S
C604 C605 1.374 . S
C605 H585 0.950 . S
C605 C601 1.385 . S
C605 C604 1.374 . S
C606 C603 1.499 . S
C606 C607 1.373 . S
C606 C608 1.389 . S
C607 H586 0.950 . S
C607 C606 1.373 . S
C607 C623 1.377 1_564 S
C608 C606 1.389 . S
C608 C609 1.524 . S
C608 C622 1.377 1_564 S
C609 C608 1.524 . S
C609 C610 1.397 . S
C609 C614 1.363 1_554 S
C610 H587 0.950 . S
C610 C609 1.397 . S
C610 C611 1.334 . S
C611 H588 0.950 . S
C611 C610 1.334 . S
C611 C612 1.287 . S
C612 C611 1.287 . S
C612 C613 1.524 1_554 S
C612 H631 0.913 . S
C613 H589 0.950 . S
C613 C612 1.524 1_556 S
C613 C614 1.415 . S
C614 H590 0.950 . S
C614 C609 1.363 1_556 S
C614 C613 1.415 . S
C615 H591 0.951 . S
C615 C616 1.366 . S
C615 C617 1.388 . S
C616 C615 1.366 . S
C616 C620 1.385 . S
C617 H592 0.951 1_556 S
C617 C615 1.388 . S
C617 C618 1.366 . S
C618 C617 1.366 . S
C618 C619 1.414 . S
C618 C621 1.499 . S
C619 H593 0.950 . S
C619 C618 1.414 . S
C619 C620 1.374 . S
C620 H594 0.950 . S
C620 C616 1.385 . S
C620 C619 1.374 . S
C621 C618 1.499 . S
C621 C622 1.373 . S
C621 C623 1.389 . S
C622 H595 0.950 . S
C622 C608 1.377 1_546 S
C622 C621 1.373 . S
C623 C607 1.377 1_546 S
C623 C621 1.389 . S
C623 C624 1.524 . S
C624 C623 1.524 . S
C624 C625 1.397 . S
C624 C629 1.363 1_556 S
C625 H596 0.950 . S
C625 C624 1.397 . S
C625 C626 1.334 . S
C626 H597 0.950 . S
C626 C625 1.334 . S
C626 C627 1.287 . S
C627 C626 1.287 . S
C627 C628 1.524 1_556 S
C627 H630 0.999 . S
C628 H598 0.950 . S
C628 C627 1.524 1_554 S
C628 C629 1.415 . S
C629 H599 0.950 . S
C629 C624 1.363 1_554 S
C629 C628 1.415 . S
H630 C627 0.999 . S
H631 C612 0.913 . S
H632 C650 0.951 . S
H633 C652 0.951 . S
H634 C654 0.950 . S
H635 C655 0.950 . S
H636 C657 0.950 . S
H637 C660 0.950 . S
H638 C661 0.950 . S
H639 C663 0.950 . S
H640 C664 0.950 . S
H641 C665 0.951 . S
H642 C667 0.951 . S
H643 C669 0.950 . S
H644 C670 0.950 . S
H645 C672 0.950 . S
H646 C675 0.950 . S
H647 C676 0.950 . S
H648 C678 0.950 . S
H649 C679 0.950 . S
C650 H632 0.951 . S
C650 C651 1.366 . S
C650 C652 1.388 . S
C651 C650 1.366 . S
C651 C655 1.385 . S
C652 H633 0.951 . S
C652 C650 1.388 . S
C652 C653 1.366 . S
C653 C652 1.366 . S
C653 C654 1.414 . S
C653 C656 1.499 . S
C654 H634 0.950 . S
C654 C653 1.414 . S
C654 C655 1.374 . S
C655 H635 0.950 . S
C655 C651 1.385 . S
C655 C654 1.374 . S
C656 C653 1.499 . S
C656 C657 1.373 . S
C656 C658 1.389 . S
C657 H636 0.950 . S
C657 C656 1.373 . S
C657 C673 1.377 . S
C658 C656 1.389 . S
C658 C659 1.524 . S
C658 C672 1.377 . S
C659 C658 1.524 . S
C659 C660 1.397 . S
C659 C664 1.363 . S
C660 H637 0.950 . S
C660 C659 1.397 . S
C660 C661 1.334 . S
C661 H638 0.950 . S
C661 C660 1.334 . S
C661 C662 1.287 . S
C662 C661 1.287 . S
C662 C663 1.524 . S
C662 H681 0.913 . S
C663 H639 0.950 . S
C663 C662 1.524 . S
C663 C664 1.415 . S
C664 H640 0.950 . S
C664 C659 1.363 . S
C664 C663 1.415 . S
C665 H641 0.951 . S
C665 C666 1.366 . S
C665 C667 1.388 . S
C666 C665 1.366 . S
C666 C670 1.385 . S
C667 H642 0.951 . S
C667 C665 1.388 . S
C667 C668 1.366 . S
C668 C667 1.366 . S
C668 C669 1.414 . S
C668 C671 1.499 . S
C669 H643 0.950 . S
C669 C668 1.414 . S
C669 C670 1.374 . S
C670 H644 0.950 . S
C670 C666 1.385 . S
C670 C669 1.374 . S
C671 C668 1.499 . S
C671 C672 1.373 . S
C671 C673 1.389 . S
C672 H645 0.950 . S
C672 C658 1.377 . S
C672 C671 1.373 . S
C673 C657 1.377 . S
C673 C671 1.389 . S
C673 C674 1.524 . S
C674 C673 1.524 . S
C674 C675 1.397 . S
C674 C679 1.363 . S
C675 H646 0.950 . S
C675 C674 1.397 . S
C675 C676 1.334 . S
C676 H647 0.950 . S
C676 C675 1.334 . S
C676 C677 1.287 . S
C677 C676 1.287 . S
C677 C678 1.524 . S
C677 H680 0.999 . S
C678 H648 0.950 . S
C678 C677 1.524 . S
C678 C679 1.415 . S
C679 H649 0.950 . S
C679 C674 1.363 . S
C679 C678 1.415 . S
H680 C677 0.999 . S
H681 C662 0.913 . S
H682 C700 0.951 . S
H683 C702 0.951 . S
H684 C704 0.950 . S
H685 C705 0.950 . S
H686 C707 0.950 . S
H687 C710 0.950 . S
H688 C711 0.950 . S
H689 C713 0.950 1_455 S
H690 C714 0.950 . S
H691 C715 0.951 . S
H692 C717 0.951 . S
H693 C719 0.950 . S
H694 C720 0.950 . S
H695 C722 0.950 . S
H696 C725 0.950 . S
H697 C726 0.950 . S
H698 C728 0.950 1_655 S
H699 C729 0.950 . S
C700 H682 0.951 . S
C700 C701 1.366 . S
C700 C702 1.388 . S
C701 C700 1.366 . S
C701 C705 1.385 . S
C702 H683 0.951 . S
C702 C700 1.388 . S
C702 C703 1.366 . S
C703 C702 1.366 . S
C703 C704 1.414 . S
C703 C706 1.499 . S
C704 H684 0.950 . S
C704 C703 1.414 . S
C704 C705 1.374 . S
C705 H685 0.950 . S
C705 C701 1.385 . S
C705 C704 1.374 . S
C706 C703 1.499 . S
C706 C707 1.373 . S
C706 C708 1.389 . S
C707 H686 0.950 . S
C707 C706 1.373 . S
C707 C723 1.377 1_655 S
C708 C706 1.389 . S
C708 C709 1.524 . S
C708 C722 1.377 1_655 S
C709 C708 1.524 . S
C709 C710 1.397 . S
C709 C714 1.363 1_655 S
C710 H687 0.950 . S
C710 C709 1.397 . S
C710 C711 1.334 . S
C711 H688 0.950 . S
C711 C710 1.334 . S
C711 C712 1.287 . S
C712 C711 1.287 . S
C712 C713 1.524 . S
C712 H731 0.913 . S
C713 H689 0.950 1_655 S
C713 C712 1.524 . S
C713 C714 1.415 1_655 S
C714 H690 0.950 . S
C714 C709 1.363 1_455 S
C714 C713 1.415 1_455 S
C715 H691 0.951 . S
C715 C716 1.366 . S
C715 C717 1.388 . S
C716 C715 1.366 . S
C716 C720 1.385 . S
C717 H692 0.951 . S
C717 C715 1.388 . S
C717 C718 1.366 . S
C718 C717 1.366 . S
C718 C719 1.414 . S
C718 C721 1.499 . S
C719 H693 0.950 . S
C719 C718 1.414 . S
C719 C720 1.374 . S
C720 H694 0.950 . S
C720 C716 1.385 . S
C720 C719 1.374 . S
C721 C718 1.499 . S
C721 C722 1.373 . S
C721 C723 1.389 . S
C722 H695 0.950 . S
C722 C708 1.377 1_455 S
C722 C721 1.373 . S
C723 C707 1.377 1_455 S
C723 C721 1.389 . S
C723 C724 1.524 . S
C724 C723 1.524 . S
C724 C725 1.397 . S
C724 C729 1.363 1_455 S
C725 H696 0.950 . S
C725 C724 1.397 . S
C725 C726 1.334 . S
C726 H697 0.950 . S
C726 C725 1.334 . S
C726 C727 1.287 . S
C727 C726 1.287 . S
C727 C728 1.524 . S
C727 H730 0.999 . S
C728 H698 0.950 1_455 S
C728 C727 1.524 . S
C728 C729 1.415 1_455 S
C729 H699 0.950 . S
C729 C724 1.363 1_655 S
C729 C728 1.415 1_655 S
H730 C727 0.999 . S
H731 C712 0.913 . S
H732 C750 0.951 . S
H733 C752 0.951 1_554 S
H734 C754 0.950 . S
H735 C755 0.950 . S
H736 C757 0.950 . S
H737 C760 0.950 1_556 S
H738 C761 0.952 . S
H739 C763 0.950 . S
H740 C764 0.950 . S
H741 C765 0.951 . S
H742 C767 0.951 1_556 S
H743 C769 0.950 . S
H744 C770 0.950 . S
H745 C772 0.950 . S
H746 C775 0.950 1_554 S
H747 C776 0.952 . S
H748 C778 0.950 . S
H749 C779 0.950 . S
C750 H732 0.951 . S
C750 C751 1.366 . S
C750 C752 1.388 . S
C751 C750 1.366 . S
C751 C755 1.385 . S
C752 H733 0.951 1_556 S
C752 C750 1.388 . S
C752 C753 1.366 . S
C753 C752 1.366 . S
C753 C754 1.414 . S
C753 C756 1.499 . S
C754 H734 0.950 . S
C754 C753 1.414 . S
C754 C755 1.374 . S
C755 H735 0.950 . S
C755 C751 1.385 . S
C755 C754 1.374 . S
C756 C753 1.499 . S
C756 C757 1.373 . S
C756 C758 1.389 1_556 S
C757 H736 0.950 . S
C757 C756 1.373 . S
C757 C773 1.377 . S
C758 C756 1.389 1_554 S
C758 C759 1.524 . S
C758 C772 1.377 . S
C759 C758 1.524 . S
C759 C760 1.397 . S
C759 C764 1.363 . S
C760 H737 0.950 1_554 S
C760 C759 1.397 . S
C760 C761 1.334 . S
C761 H738 0.952 . S
C761 C760 1.334 . S
C761 C762 1.287 . S
C762 C761 1.287 . S
C762 C763 1.524 . S
C762 H781 0.913 . S
C763 H739 0.950 . S
C763 C762 1.524 . S
C763 C764 1.415 . S
C764 H740 0.950 . S
C764 C759 1.363 . S
C764 C763 1.415 . S
C765 H741 0.951 . S
C765 C766 1.366 . S
C765 C767 1.388 . S
C766 C765 1.366 . S
C766 C770 1.385 . S
C767 H742 0.951 1_554 S
C767 C765 1.388 . S
C767 C768 1.366 . S
C768 C767 1.366 . S
C768 C769 1.414 . S
C768 C771 1.499 . S
C769 H743 0.950 . S
C769 C768 1.414 . S
C769 C770 1.374 . S
C770 H744 0.950 . S
C770 C766 1.385 . S
C770 C769 1.374 . S
C771 C768 1.499 . S
C771 C772 1.373 . S
C771 C773 1.389 1_554 S
C772 H745 0.950 . S
C772 C758 1.377 . S
C772 C771 1.373 . S
C773 C757 1.377 . S
C773 C771 1.389 1_556 S
C773 C774 1.524 . S
C774 C773 1.524 . S
C774 C775 1.397 . S
C774 C779 1.363 . S
C775 H746 0.950 1_556 S
C775 C774 1.397 . S
C775 C776 1.334 . S
C776 H747 0.952 . S
C776 C775 1.334 . S
C776 C777 1.287 . S
C777 C776 1.287 . S
C777 C778 1.524 . S
C777 H780 0.999 . S
C778 H748 0.950 . S
C778 C777 1.524 . S
C778 C779 1.415 . S
C779 H749 0.950 . S
C779 C774 1.363 . S
C779 C778 1.415 . S
H780 C777 0.999 . S
H781 C762 0.913 . S
H782 C800 0.951 . S
H783 C802 0.951 . S
H784 C804 0.950 . S
H785 C805 0.950 . S
H786 C807 0.950 . S
H787 C810 0.950 . S
H788 C811 0.950 . S
H789 C813 0.950 . S
H790 C814 0.950 . S
H791 C815 0.951 . S
H792 C817 0.951 . S
H793 C819 0.950 . S
H794 C820 0.950 . S
H795 C822 0.950 . S
H796 C825 0.950 . S
H797 C826 0.950 . S
H798 C828 0.950 . S
H799 C829 0.950 . S
C800 H782 0.951 . S
C800 C801 1.366 . S
C800 C802 1.388 . S
C801 C800 1.366 . S
C801 C805 1.385 . S
C802 H783 0.951 . S
C802 C800 1.388 . S
C802 C803 1.366 . S
C803 C802 1.366 . S
C803 C804 1.414 . S
C803 C806 1.499 . S
C804 H784 0.950 . S
C804 C803 1.414 . S
C804 C805 1.374 . S
C805 H785 0.950 . S
C805 C801 1.385 . S
C805 C804 1.374 . S
C806 C803 1.499 . S
C806 C807 1.373 . S
C806 C808 1.389 . S
C807 H786 0.950 . S
C807 C806 1.373 . S
C807 C823 1.377 . S
C808 C806 1.389 . S
C808 C809 1.524 . S
C808 C822 1.377 . S
C809 C808 1.524 . S
C809 C810 1.397 . S
C809 C814 1.363 . S
C810 H787 0.950 . S
C810 C809 1.397 . S
C810 C811 1.334 . S
C811 H788 0.950 . S
C811 C810 1.334 . S
C811 C812 1.287 . S
C812 C811 1.287 . S
C812 C813 1.524 . S
C812 H831 0.913 . S
C813 H789 0.950 . S
C813 C812 1.524 . S
C813 C814 1.415 . S
C814 H790 0.950 . S
C814 C809 1.363 . S
C814 C813 1.415 . S
C815 H791 0.951 . S
C815 C816 1.366 . S
C815 C817 1.388 . S
C816 C815 1.366 . S
C816 C820 1.385 . S
C817 H792 0.951 . S
C817 C815 1.388 . S
C817 C818 1.366 . S
C818 C817 1.366 . S
C818 C819 1.414 . S
C818 C821 1.499 . S
C819 H793 0.950 . S
C819 C818 1.414 . S
C819 C820 1.374 . S
C820 H794 0.950 . S
C820 C816 1.385 . S
C820 C819 1.374 . S
C821 C818 1.499 . S
C821 C822 1.373 . S
C821 C823 1.389 . S
C822 H795 0.950 . S
C822 C808 1.377 . S
C822 C821 1.373 . S
C823 C807 1.377 . S
C823 C821 1.389 . S
C823 C824 1.524 . S
C824 C823 1.524 . S
C824 C825 1.397 . S
C824 C829 1.363 . S
C825 H796 0.950 . S
C825 C824 1.397 . S
C825 C826 1.334 . S
C826 H797 0.950 . S
C826 C825 1.334 . S
C826 C827 1.287 . S
C827 C826 1.287 . S
C827 C828 1.524 . S
C827 H830 0.999 . S
C828 H798 0.950 . S
C828 C827 1.524 . S
C828 C829 1.415 . S
C829 H799 0.950 . S
C829 C824 1.363 . S
C829 C828 1.415 . S
H830 C827 0.999 . S
H831 C812 0.913 . S
H832 C850 0.951 . S
H833 C852 0.951 . S
H834 C854 0.950 . S
H835 C855 0.950 . S
H836 C857 0.950 . S
H837 C860 0.950 . S
H838 C861 0.950 . S
H839 C863 0.950 . S
H840 C864 0.950 . S
H841 C865 0.951 . S
H842 C867 0.951 . S
H843 C869 0.950 . S
H844 C870 0.950 . S
H845 C872 0.950 . S
H846 C875 0.950 . S
H847 C876 0.950 . S
H848 C878 0.950 . S
H849 C879 0.950 . S
C850 H832 0.951 . S
C850 C851 1.366 . S
C850 C852 1.388 . S
C851 C850 1.366 . S
C851 C855 1.385 . S
C852 H833 0.951 . S
C852 C850 1.388 . S
C852 C853 1.366 . S
C853 C852 1.366 . S
C853 C854 1.414 . S
C853 C856 1.499 . S
C854 H834 0.950 . S
C854 C853 1.414 . S
C854 C855 1.374 . S
C855 H835 0.950 . S
C855 C851 1.385 . S
C855 C854 1.374 . S
C856 C853 1.499 . S
C856 C857 1.373 . S
C856 C858 1.389 . S
C857 H836 0.950 . S
C857 C856 1.373 . S
C857 C873 1.377 . S
C858 C856 1.389 . S
C858 C859 1.524 . S
C858 C872 1.377 . S
C859 C858 1.524 . S
C859 C860 1.397 . S
C859 C864 1.363 . S
C860 H837 0.950 . S
C860 C859 1.397 . S
C860 C861 1.334 . S
C861 H838 0.950 . S
C861 C860 1.334 . S
C861 C862 1.287 . S
C862 C861 1.287 . S
C862 C863 1.524 . S
C862 H881 0.913 . S
C863 H839 0.950 . S
C863 C862 1.524 . S
C863 C864 1.415 . S
C864 H840 0.950 . S
C864 C859 1.363 . S
C864 C863 1.415 . S
C865 H841 0.951 . S
C865 C866 1.366 . S
C865 C867 1.388 . S
C866 C865 1.366 . S
C866 C870 1.385 . S
C867 H842 0.951 . S
C867 C865 1.388 . S
C867 C868 1.366 . S
C868 C867 1.366 . S
C868 C869 1.414 . S
C868 C871 1.499 . S
C869 H843 0.950 . S
C869 C868 1.414 . S
C869 C870 1.374 . S
C870 H844 0.950 . S
C870 C866 1.385 . S
C870 C869 1.374 . S
C871 C868 1.499 . S
C871 C872 1.373 . S
C871 C873 1.389 . S
C872 H845 0.950 . S
C872 C858 1.377 . S
C872 C871 1.373 . S
C873 C857 1.377 . S
C873 C871 1.389 . S
C873 C874 1.524 . S
C874 C873 1.524 . S
C874 C875 1.397 . S
C874 C879 1.363 . S
C875 H846 0.950 . S
C875 C874 1.397 . S
C875 C876 1.334 . S
C876 H847 0.950 . S
C876 C875 1.334 . S
C876 C877 1.287 . S
C877 C876 1.287 . S
C877 C878 1.524 . S
C877 H880 0.999 . S
C878 H848 0.950 . S
C878 C877 1.524 . S
C878 C879 1.415 . S
C879 H849 0.950 . S
C879 C874 1.363 . S
C879 C878 1.415 . S
H880 C877 0.999 . S
H881 C862 0.913 . S
H882 C900 0.951 . S
H883 C902 0.951 1_554 S
H884 C904 0.950 . S
H885 C905 0.950 . S
H886 C907 0.950 . S
H887 C910 0.950 1_556 S
H888 C911 0.950 . S
H889 C913 0.950 . S
H890 C914 0.950 . S
H891 C915 0.951 . S
H892 C917 0.951 1_556 S
H893 C919 0.950 . S
H894 C920 0.950 . S
H895 C922 0.950 . S
H896 C925 0.950 1_554 S
H897 C926 0.950 . S
H898 C928 0.950 . S
H899 C929 0.950 . S
C900 H882 0.951 . S
C900 C901 1.366 . S
C900 C902 1.388 . S
C901 C900 1.366 . S
C901 C905 1.385 . S
C902 H883 0.951 1_556 S
C902 C900 1.388 . S
C902 C903 1.366 . S
C903 C902 1.366 . S
C903 C904 1.414 . S
C903 C906 1.499 . S
C904 H884 0.950 . S
C904 C903 1.414 . S
C904 C905 1.374 . S
C905 H885 0.950 . S
C905 C901 1.385 . S
C905 C904 1.374 . S
C906 C903 1.499 . S
C906 C907 1.373 . S
C906 C908 1.389 1_556 S
C907 H886 0.950 . S
C907 C906 1.373 . S
C907 C923 1.377 . S
C908 C906 1.389 1_554 S
C908 C909 1.524 . S
C908 C922 1.377 . S
C909 C908 1.524 . S
C909 C910 1.397 . S
C909 C914 1.363 . S
C910 H887 0.950 1_554 S
C910 C909 1.397 . S
C910 C911 1.334 . S
C911 H888 0.950 . S
C911 C910 1.334 . S
C911 C912 1.287 . S
C912 C911 1.287 . S
C912 C913 1.524 . S
C912 H931 0.913 . S
C913 H889 0.950 . S
C913 C912 1.524 . S
C913 C914 1.415 . S
C914 H890 0.950 . S
C914 C909 1.363 . S
C914 C913 1.415 . S
C915 H891 0.951 . S
C915 C916 1.366 . S
C915 C917 1.388 . S
C916 C915 1.366 . S
C916 C920 1.385 . S
C917 H892 0.951 1_554 S
C917 C915 1.388 . S
C917 C918 1.366 . S
C918 C917 1.366 . S
C918 C919 1.414 . S
C918 C921 1.499 . S
C919 H893 0.950 . S
C919 C918 1.414 . S
C919 C920 1.374 . S
C920 H894 0.950 . S
C920 C916 1.385 . S
C920 C919 1.374 . S
C921 C918 1.499 . S
C921 C922 1.373 . S
C921 C923 1.389 1_554 S
C922 H895 0.950 . S
C922 C908 1.377 . S
C922 C921 1.373 . S
C923 C907 1.377 . S
C923 C921 1.389 1_556 S
C923 C924 1.524 . S
C924 C923 1.524 . S
C924 C925 1.397 . S
C924 C929 1.363 . S
C925 H896 0.950 1_556 S
C925 C924 1.397 . S
C925 C926 1.334 . S
C926 H897 0.950 . S
C926 C925 1.334 . S
C926 C927 1.287 . S
C927 C926 1.287 . S
C927 C928 1.524 . S
C927 H930 0.999 . S
C928 H898 0.950 . S
C928 C927 1.524 . S
C928 C929 1.415 . S
C929 H899 0.950 . S
C929 C924 1.363 . S
C929 C928 1.415 . S
H930 C927 0.999 . S
H931 C912 0.913 . S
H932 C950 0.951 . S
H933 C952 0.951 . S
H934 C954 0.950 . S
H935 C955 0.950 . S
H936 C957 0.950 . S
H937 C960 0.950 . S
H938 C961 0.950 . S
H939 C963 0.950 . S
H940 C964 0.950 . S
H941 C965 0.951 . S
H942 C967 0.951 . S
H943 C969 0.950 . S
H944 C970 0.950 . S
H945 C972 0.950 . S
H946 C975 0.950 . S
H947 C976 0.950 . S
H948 C978 0.950 . S
H949 C979 0.950 . S
C950 H932 0.951 . S
C950 C951 1.366 . S
C950 C952 1.388 . S
C951 C950 1.366 . S
C951 C955 1.385 . S
C952 H933 0.951 . S
C952 C950 1.388 . S
C952 C953 1.366 . S
C953 C952 1.366 . S
C953 C954 1.414 . S
C953 C956 1.499 . S
C954 H934 0.950 . S
C954 C953 1.414 . S
C954 C955 1.374 . S
C955 H935 0.950 . S
C955 C951 1.385 . S
C955 C954 1.374 . S
C956 C953 1.499 . S
C956 C957 1.373 . S
C956 C958 1.389 . S
C957 H936 0.950 . S
C957 C956 1.373 . S
C957 C973 1.377 . S
C958 C956 1.389 . S
C958 C959 1.524 . S
C958 C972 1.377 . S
C959 C958 1.524 . S
C959 C960 1.397 . S
C959 C964 1.363 . S
C960 H937 0.950 . S
C960 C959 1.397 . S
C960 C961 1.334 . S
C961 H938 0.950 . S
C961 C960 1.334 . S
C961 C962 1.287 . S
C962 C961 1.287 . S
C962 C963 1.524 . S
C962 H981 0.913 . S
C963 H939 0.950 . S
C963 C962 1.524 . S
C963 C964 1.415 . S
C964 H940 0.950 . S
C964 C959 1.363 . S
C964 C963 1.415 . S
C965 H941 0.951 . S
C965 C966 1.366 . S
C965 C967 1.388 . S
C966 C965 1.366 . S
C966 C970 1.385 . S
C967 H942 0.951 . S
C967 C965 1.388 . S
C967 C968 1.366 . S
C968 C967 1.366 . S
C968 C969 1.414 . S
C968 C971 1.499 . S
C969 H943 0.950 . S
C969 C968 1.414 . S
C969 C970 1.374 . S
C970 H944 0.950 . S
C970 C966 1.385 . S
C970 C969 1.374 . S
C971 C968 1.499 . S
C971 C972 1.373 . S
C971 C973 1.389 . S
C972 H945 0.950 . S
C972 C958 1.377 . S
C972 C971 1.373 . S
C973 C957 1.377 . S
C973 C971 1.389 . S
C973 C974 1.524 . S
C974 C973 1.524 . S
C974 C975 1.397 . S
C974 C979 1.363 . S
C975 H946 0.950 . S
C975 C974 1.397 . S
C975 C976 1.334 . S
C976 H947 0.950 . S
C976 C975 1.334 . S
C976 C977 1.287 . S
C977 C976 1.287 . S
C977 C978 1.524 . S
C977 H980 0.999 . S
C978 H948 0.950 . S
C978 C977 1.524 . S
C978 C979 1.415 . S
C979 H949 0.950 . S
C979 C974 1.363 . S
C979 C978 1.415 . S
H980 C977 0.999 . S
H981 C962 0.913 . S
H982 C1000 0.951 . S
H983 C1002 0.951 . S
H984 C1004 0.950 . S
H985 C1005 0.950 . S
H986 C1007 0.950 . S
H987 C1010 0.950 . S
H988 C1011 0.950 . S
H989 C1013 0.950 . S
H990 C1014 0.950 . S
H991 C1015 0.951 . S
H992 C1017 0.951 . S
H993 C1019 0.950 . S
H994 C1020 0.950 . S
H995 C1022 0.950 . S
H996 C1025 0.950 . S
H997 C1026 0.950 . S
H998 C1028 0.950 . S
H999 C1029 0.950 . S
C1000 H982 0.951 . S
C1000 C1001 1.366 . S
C1000 C1002 1.388 . S
C1001 C1000 1.366 . S
C1001 C1005 1.385 . S
C1002 H983 0.951 . S
C1002 C1000 1.388 . S
C1002 C1003 1.366 . S
C1003 C1002 1.366 . S
C1003 C1004 1.414 . S
C1003 C1006 1.499 . S
C1004 H984 0.950 . S
C1004 C1003 1.414 . S
C1004 C1005 1.374 . S
C1005 H985 0.950 . S
C1005 C1001 1.385 . S
C1005 C1004 1.374 . S
C1006 C1003 1.499 . S
C1006 C1007 1.373 . S
C1006 C1008 1.389 . S
C1007 H986 0.950 . S
C1007 C1006 1.373 . S
C1007 C1023 1.377 . S
C1008 C1006 1.389 . S
C1008 C1009 1.524 . S
C1008 C1022 1.377 . S
C1009 C1008 1.524 . S
C1009 C1010 1.397 . S
C1009 C1014 1.363 . S
C1010 H987 0.950 . S
C1010 C1009 1.397 . S
C1010 C1011 1.334 . S
C1011 H988 0.950 . S
C1011 C1010 1.334 . S
C1011 C1012 1.287 . S
C1012 C1011 1.287 . S
C1012 C1013 1.524 . S
C1012 H1031 0.913 . S
C1013 H989 0.950 . S
C1013 C1012 1.524 . S
C1013 C1014 1.415 . S
C1014 H990 0.950 . S
C1014 C1009 1.363 . S
C1014 C1013 1.415 . S
C1015 H991 0.951 . S
C1015 C1016 1.366 . S
C1015 C1017 1.388 . S
C1016 C1015 1.366 . S
C1016 C1020 1.385 . S
C1017 H992 0.951 . S
C1017 C1015 1.388 . S
C1017 C1018 1.366 . S
C1018 C1017 1.366 . S
C1018 C1019 1.414 . S
C1018 C1021 1.499 . S
C1019 H993 0.950 . S
C1019 C1018 1.414 . S
C1019 C1020 1.374 . S
C1020 H994 0.950 . S
C1020 C1016 1.385 . S
C1020 C1019 1.374 . S
C1021 C1018 1.499 . S
C1021 C1022 1.373 . S
C1021 C1023 1.389 . S
C1022 H995 0.950 . S
C1022 C1008 1.377 . S
C1022 C1021 1.373 . S
C1023 C1007 1.377 . S
C1023 C1021 1.389 . S
C1023 C1024 1.524 . S
C1024 C1023 1.524 . S
C1024 C1025 1.397 . S
C1024 C1029 1.363 . S
C1025 H996 0.950 . S
C1025 C1024 1.397 . S
C1025 C1026 1.334 . S
C1026 H997 0.950 . S
C1026 C1025 1.334 . S
C1026 C1027 1.287 . S
C1027 C1026 1.287 . S
C1027 C1028 1.524 . S
C1027 H1030 0.999 . S
C1028 H998 0.950 . S
C1028 C1027 1.524 . S
C1028 C1029 1.415 . S
C1029 H999 0.950 . S
C1029 C1024 1.363 . S
C1029 C1028 1.415 . S
H1030 C1027 0.999 . S
H1031 C1012 0.913 . S
H1032 C1050 0.951 . S
H1033 C1052 0.951 . S
H1034 C1054 0.950 . S
H1035 C1055 0.950 . S
H1036 C1057 0.950 . S
H1037 C1060 0.950 . S
H1038 C1061 0.950 . S
H1039 C1063 0.950 . S
H1040 C1064 0.950 . S
H1041 C1065 0.951 . S
H1042 C1067 0.951 . S
H1043 C1069 0.950 . S
H1044 C1070 0.950 . S
H1045 C1072 0.950 . S
H1046 C1075 0.950 . S
H1047 C1076 0.950 . S
H1048 C1078 0.950 . S
H1049 C1079 0.950 . S
C1050 H1032 0.951 . S
C1050 C1051 1.366 . S
C1050 C1052 1.388 . S
C1051 C1050 1.366 . S
C1051 C1055 1.385 . S
C1052 H1033 0.951 . S
C1052 C1050 1.388 . S
C1052 C1053 1.366 . S
C1053 C1052 1.366 . S
C1053 C1054 1.414 . S
C1053 C1056 1.499 . S
C1054 H1034 0.950 . S
C1054 C1053 1.414 . S
C1054 C1055 1.374 . S
C1055 H1035 0.950 . S
C1055 C1051 1.385 . S
C1055 C1054 1.374 . S
C1056 C1053 1.499 . S
C1056 C1057 1.373 . S
C1056 C1058 1.389 . S
C1057 H1036 0.950 . S
C1057 C1056 1.373 . S
C1057 C1073 1.377 . S
C1058 C1056 1.389 . S
C1058 C1059 1.524 . S
C1058 C1072 1.377 . S
C1059 C1058 1.524 . S
C1059 C1060 1.397 . S
C1059 C1064 1.363 . S
C1060 H1037 0.950 . S
C1060 C1059 1.397 . S
C1060 C1061 1.334 . S
C1061 H1038 0.950 . S
C1061 C1060 1.334 . S
C1061 C1062 1.287 . S
C1062 C1061 1.287 . S
C1062 C1063 1.524 . S
C1062 H1081 0.913 . S
C1063 H1039 0.950 . S
C1063 C1062 1.524 . S
C1063 C1064 1.415 . S
C1064 H1040 0.950 . S
C1064 C1059 1.363 . S
C1064 C1063 1.415 . S
C1065 H1041 0.951 . S
C1065 C1066 1.366 . S
C1065 C1067 1.388 . S
C1066 C1065 1.366 . S
C1066 C1070 1.385 . S
C1067 H1042 0.951 . S
C1067 C1065 1.388 . S
C1067 C1068 1.366 . S
C1068 C1067 1.366 . S
C1068 C1069 1.414 . S
C1068 C1071 1.499 . S
C1069 H1043 0.950 . S
C1069 C1068 1.414 . S
C1069 C1070 1.374 . S
C1070 H1044 0.950 . S
C1070 C1066 1.385 . S
C1070 C1069 1.374 . S
C1071 C1068 1.499 . S
C1071 C1072 1.373 . S
C1071 C1073 1.389 . S
C1072 H1045 0.950 . S
C1072 C1058 1.377 . S
C1072 C1071 1.373 . S
C1073 C1057 1.377 . S
C1073 C1071 1.389 . S
C1073 C1074 1.524 . S
C1074 C1073 1.524 . S
C1074 C1075 1.397 . S
C1074 C1079 1.363 . S
C1075 H1046 0.950 . S
C1075 C1074 1.397 . S
C1075 C1076 1.334 . S
C1076 H1047 0.950 . S
C1076 C1075 1.334 . S
C1076 C1077 1.287 . S
C1077 C1076 1.287 . S
C1077 C1078 1.524 . S
C1077 H1080 0.999 . S
C1078 H1048 0.950 . S
C1078 C1077 1.524 . S
C1078 C1079 1.415 . S
C1079 H1049 0.950 . S
C1079 C1074 1.363 . S
C1079 C1078 1.415 . S
H1080 C1077 0.999 . S
H1081 C1062 0.913 . S
H1082 C1100 0.951 . S
H1083 C1102 0.951 . S
H1084 C1104 0.950 . S
H1085 C1105 0.950 . S
H1086 C1107 0.950 . S
H1087 C1110 0.950 . S
H1088 C1111 0.950 . S
H1089 C1113 0.950 . S
H1090 C1114 0.950 . S
H1091 C1115 0.951 . S
H1092 C1117 0.951 . S
H1093 C1119 0.950 . S
H1094 C1120 0.950 . S
H1095 C1122 0.950 . S
H1096 C1125 0.950 . S
H1097 C1126 0.950 . S
H1098 C1128 0.950 . S
H1099 C1129 0.950 . S
C1100 H1082 0.951 . S
C1100 C1101 1.366 . S
C1100 C1102 1.388 . S
C1101 C1100 1.366 . S
C1101 C1105 1.385 . S
C1102 H1083 0.951 . S
C1102 C1100 1.388 . S
C1102 C1103 1.366 . S
C1103 C1102 1.366 . S
C1103 C1104 1.414 . S
C1103 C1106 1.499 . S
C1104 H1084 0.950 . S
C1104 C1103 1.414 . S
C1104 C1105 1.374 . S
C1105 H1085 0.950 . S
C1105 C1101 1.385 . S
C1105 C1104 1.374 . S
C1106 C1103 1.499 . S
C1106 C1107 1.373 . S
C1106 C1108 1.389 . S
C1107 H1086 0.950 . S
C1107 C1106 1.373 . S
C1107 C1123 1.377 . S
C1108 C1106 1.389 . S
C1108 C1109 1.524 . S
C1108 C1122 1.377 . S
C1109 C1108 1.524 . S
C1109 C1110 1.397 . S
C1109 C1114 1.363 . S
C1110 H1087 0.950 . S
C1110 C1109 1.397 . S
C1110 C1111 1.334 . S
C1111 H1088 0.950 . S
C1111 C1110 1.334 . S
C1111 C1112 1.287 . S
C1112 C1111 1.287 . S
C1112 C1113 1.524 . S
C1112 H1131 0.913 . S
C1113 H1089 0.950 . S
C1113 C1112 1.524 . S
C1113 C1114 1.415 . S
C1114 H1090 0.950 . S
C1114 C1109 1.363 . S
C1114 C1113 1.415 . S
C1115 H1091 0.951 . S
C1115 C1116 1.366 . S
C1115 C1117 1.388 . S
C1116 C1115 1.366 . S
C1116 C1120 1.385 . S
C1117 H1092 0.951 . S
C1117 C1115 1.388 . S
C1117 C1118 1.366 . S
C1118 C1117 1.366 . S
C1118 C1119 1.414 . S
C1118 C1121 1.499 . S
C1119 H1093 0.950 . S
C1119 C1118 1.414 . S
C1119 C1120 1.374 . S
C1120 H1094 0.950 . S
C1120 C1116 1.385 . S
C1120 C1119 1.374 . S
C1121 C1118 1.499 . S
C1121 C1122 1.373 . S
C1121 C1123 1.389 . S
C1122 H1095 0.950 . S
C1122 C1108 1.377 . S
C1122 C1121 1.373 . S
C1123 C1107 1.377 . S
C1123 C1121 1.389 . S
C1123 C1124 1.524 . S
C1124 C1123 1.524 . S
C1124 C1125 1.397 . S
C1124 C1129 1.363 . S
C1125 H1096 0.950 . S
C1125 C1124 1.397 . S
C1125 C1126 1.334 . S
C1126 H1097 0.950 . S
C1126 C1125 1.334 . S
C1126 C1127 1.287 . S
C1127 C1126 1.287 . S
C1127 C1128 1.524 . S
C1127 H1130 0.999 . S
C1128 H1098 0.950 . S
C1128 C1127 1.524 . S
C1128 C1129 1.415 . S
C1129 H1099 0.950 . S
C1129 C1124 1.363 . S
C1129 C1128 1.415 . S
H1130 C1127 0.999 . S
H1131 C1112 0.913 . S
H1132 C1150 0.951 . S
H1133 C1152 0.951 . S
H1134 C1154 0.950 . S
H1135 C1155 0.950 . S
H1136 C1157 0.950 . S
H1137 C1160 0.950 . S
H1138 C1161 0.950 . S
H1139 C1163 0.950 . S
H1140 C1164 0.950 . S
H1141 C1165 0.951 . S
H1142 C1167 0.951 . S
H1143 C1169 0.950 . S
H1144 C1170 0.950 . S
H1145 C1172 0.950 . S
H1146 C1175 0.950 . S
H1147 C1176 0.950 . S
H1148 C1178 0.950 . S
H1149 C1179 0.950 . S
C1150 H1132 0.951 . S
C1150 C1151 1.366 . S
C1150 C1152 1.388 . S
C1151 C1150 1.366 . S
C1151 C1155 1.385 . S
C1152 H1133 0.951 . S
C1152 C1150 1.388 . S
C1152 C1153 1.366 . S
C1153 C1152 1.366 . S
C1153 C1154 1.414 . S
C1153 C1156 1.499 . S
C1154 H1134 0.950 . S
C1154 C1153 1.414 . S
C1154 C1155 1.374 . S
C1155 H1135 0.950 . S
C1155 C1151 1.385 . S
C1155 C1154 1.374 . S
C1156 C1153 1.499 . S
C1156 C1157 1.373 . S
C1156 C1158 1.389 . S
C1157 H1136 0.950 . S
C1157 C1156 1.373 . S
C1157 C1173 1.377 . S
C1158 C1156 1.389 . S
C1158 C1159 1.524 . S
C1158 C1172 1.377 . S
C1159 C1158 1.524 . S
C1159 C1160 1.397 . S
C1159 C1164 1.363 . S
C1160 H1137 0.950 . S
C1160 C1159 1.397 . S
C1160 C1161 1.334 . S
C1161 H1138 0.950 . S
C1161 C1160 1.334 . S
C1161 C1162 1.287 . S
C1162 C1161 1.287 . S
C1162 C1163 1.524 . S
C1162 H1181 0.913 . S
C1163 H1139 0.950 . S
C1163 C1162 1.524 . S
C1163 C1164 1.415 . S
C1164 H1140 0.950 . S
C1164 C1159 1.363 . S
C1164 C1163 1.415 . S
C1165 H1141 0.951 . S
C1165 C1166 1.366 . S
C1165 C1167 1.388 . S
C1166 C1165 1.366 . S
C1166 C1170 1.385 . S
C1167 H1142 0.951 . S
C1167 C1165 1.388 . S
C1167 C1168 1.366 . S
C1168 C1167 1.366 . S
C1168 C1169 1.414 . S
C1168 C1171 1.499 . S
C1169 H1143 0.950 . S
C1169 C1168 1.414 . S
C1169 C1170 1.374 . S
C1170 H1144 0.950 . S
C1170 C1166 1.385 . S
C1170 C1169 1.374 . S
C1171 C1168 1.499 . S
C1171 C1172 1.373 . S
C1171 C1173 1.389 . S
C1172 H1145 0.950 . S
C1172 C1158 1.377 . S
C1172 C1171 1.373 . S
C1173 C1157 1.377 . S
C1173 C1171 1.389 . S
C1173 C1174 1.524 . S
C1174 C1173 1.524 . S
C1174 C1175 1.397 . S
C1174 C1179 1.363 . S
C1175 H1146 0.950 . S
C1175 C1174 1.397 . S
C1175 C1176 1.334 . S
C1176 H1147 0.950 . S
C1176 C1175 1.334 . S
C1176 C1177 1.287 . S
C1177 C1176 1.287 . S
C1177 C1178 1.524 . S
C1177 H1180 0.999 . S
C1178 H1148 0.950 . S
C1178 C1177 1.524 . S
C1178 C1179 1.415 . S
C1179 H1149 0.950 . S
C1179 C1174 1.363 . S
C1179 C1178 1.415 . S
H1180 C1177 0.999 . S
H1181 C1162 0.913 . S
H1182 C1200 0.951 . S
H1183 C1202 0.951 . S
H1184 C1204 0.950 . S
H1185 C1205 0.950 . S
H1186 C1207 0.950 . S
H1187 C1210 0.950 . S
H1188 C1211 0.950 . S
H1189 C1213 0.950 . S
H1190 C1214 0.950 . S
H1191 C1215 0.951 . S
H1192 C1217 0.951 . S
H1193 C1219 0.950 . S
H1194 C1220 0.950 . S
H1195 C1222 0.950 . S
H1196 C1225 0.950 . S
H1197 C1226 0.950 . S
H1198 C1228 0.950 . S
H1199 C1229 0.950 . S
C1200 H1182 0.951 . S
C1200 C1201 1.366 . S
C1200 C1202 1.388 . S
C1201 C1200 1.366 . S
C1201 C1205 1.385 . S
C1202 H1183 0.951 . S
C1202 C1200 1.388 . S
C1202 C1203 1.366 . S
C1203 C1202 1.366 . S
C1203 C1204 1.414 . S
C1203 C1206 1.499 . S
C1204 H1184 0.950 . S
C1204 C1203 1.414 . S
C1204 C1205 1.374 . S
C1205 H1185 0.950 . S
C1205 C1201 1.385 . S
C1205 C1204 1.374 . S
C1206 C1203 1.499 . S
C1206 C1207 1.373 . S
C1206 C1208 1.389 . S
C1207 H1186 0.950 . S
C1207 C1206 1.373 . S
C1207 C1223 1.377 . S
C1208 C1206 1.389 . S
C1208 C1209 1.524 . S
C1208 C1222 1.377 . S
C1209 C1208 1.524 . S
C1209 C1210 1.397 . S
C1209 C1214 1.363 . S
C1210 H1187 0.950 . S
C1210 C1209 1.397 . S
C1210 C1211 1.334 . S
C1211 H1188 0.950 . S
C1211 C1210 1.334 . S
C1211 C1212 1.287 . S
C1212 C1211 1.287 . S
C1212 C1213 1.524 . S
C1212 H1231 0.913 . S
C1213 H1189 0.950 . S
C1213 C1212 1.524 . S
C1213 C1214 1.415 . S
C1214 H1190 0.950 . S
C1214 C1209 1.363 . S
C1214 C1213 1.415 . S
C1215 H1191 0.951 . S
C1215 C1216 1.366 . S
C1215 C1217 1.388 . S
C1216 C1215 1.366 . S
C1216 C1220 1.385 . S
C1217 H1192 0.951 . S
C1217 C1215 1.388 . S
C1217 C1218 1.366 . S
C1218 C1217 1.366 . S
C1218 C1219 1.414 . S
C1218 C1221 1.499 . S
C1219 H1193 0.950 . S
C1219 C1218 1.414 . S
C1219 C1220 1.374 . S
C1220 H1194 0.950 . S
C1220 C1216 1.385 . S
C1220 C1219 1.374 . S
C1221 C1218 1.499 . S
C1221 C1222 1.373 . S
C1221 C1223 1.389 . S
C1222 H1195 0.950 . S
C1222 C1208 1.377 . S
C1222 C1221 1.373 . S
C1223 C1207 1.377 . S
C1223 C1221 1.389 . S
C1223 C1224 1.524 . S
C1224 C1223 1.524 . S
C1224 C1225 1.397 . S
C1224 C1229 1.363 . S
C1225 H1196 0.950 . S
C1225 C1224 1.397 . S
C1225 C1226 1.334 . S
C1226 H1197 0.950 . S
C1226 C1225 1.334 . S
C1226 C1227 1.287 . S
C1227 C1226 1.287 . S
C1227 C1228 1.524 . S
C1227 H1230 0.999 . S
C1228 H1198 0.950 . S
C1228 C1227 1.524 . S
C1228 C1229 1.415 . S
C1229 H1199 0.950 . S
C1229 C1224 1.363 . S
C1229 C1228 1.415 . S
H1230 C1227 0.999 . S
H1231 C1212 0.913 . S
H1232 C1250 0.951 . S
H1233 C1252 0.951 . S
H1234 C1254 0.950 . S
H1235 C1255 0.950 . S
H1236 C1257 0.950 . S
H1237 C1260 0.950 . S
H1238 C1261 0.950 . S
H1239 C1263 0.950 . S
H1240 C1264 0.950 . S
H1241 C1265 0.951 . S
H1242 C1267 0.951 . S
H1243 C1269 0.950 . S
H1244 C1270 0.950 . S
H1245 C1272 0.950 . S
H1246 C1275 0.950 . S
H1247 C1276 0.950 . S
H1248 C1278 0.950 . S
H1249 C1279 0.950 . S
C1250 H1232 0.951 . S
C1250 C1251 1.366 . S
C1250 C1252 1.388 . S
C1251 C1250 1.366 . S
C1251 C1255 1.385 . S
C1252 H1233 0.951 . S
C1252 C1250 1.388 . S
C1252 C1253 1.366 . S
C1253 C1252 1.366 . S
C1253 C1254 1.414 . S
C1253 C1256 1.499 . S
C1254 H1234 0.950 . S
C1254 C1253 1.414 . S
C1254 C1255 1.374 . S
C1255 H1235 0.950 . S
C1255 C1251 1.385 . S
C1255 C1254 1.374 . S
C1256 C1253 1.499 . S
C1256 C1257 1.373 . S
C1256 C1258 1.389 . S
C1257 H1236 0.950 . S
C1257 C1256 1.373 . S
C1257 C1273 1.377 . S
C1258 C1256 1.389 . S
C1258 C1259 1.524 . S
C1258 C1272 1.377 . S
C1259 C1258 1.524 . S
C1259 C1260 1.397 . S
C1259 C1264 1.363 . S
C1260 H1237 0.950 . S
C1260 C1259 1.397 . S
C1260 C1261 1.334 . S
C1261 H1238 0.950 . S
C1261 C1260 1.334 . S
C1261 C1262 1.287 . S
C1262 C1261 1.287 . S
C1262 C1263 1.524 . S
C1262 H1281 0.913 . S
C1263 H1239 0.950 . S
C1263 C1262 1.524 . S
C1263 C1264 1.415 . S
C1264 H1240 0.950 . S
C1264 C1259 1.363 . S
C1264 C1263 1.415 . S
C1265 H1241 0.951 . S
C1265 C1266 1.366 . S
C1265 C1267 1.388 . S
C1266 C1265 1.366 . S
C1266 C1270 1.385 . S
C1267 H1242 0.951 . S
C1267 C1265 1.388 . S
C1267 C1268 1.366 . S
C1268 C1267 1.366 . S
C1268 C1269 1.414 . S
C1268 C1271 1.499 . S
C1269 H1243 0.950 . S
C1269 C1268 1.414 . S
C1269 C1270 1.374 . S
C1270 H1244 0.950 . S
C1270 C1266 1.385 . S
C1270 C1269 1.374 . S
C1271 C1268 1.499 . S
C1271 C1272 1.373 . S
C1271 C1273 1.389 . S
C1272 H1245 0.950 . S
C1272 C1258 1.377 . S
C1272 C1271 1.373 . S
C1273 C1257 1.377 . S
C1273 C1271 1.389 . S
C1273 C1274 1.524 . S
C1274 C1273 1.524 . S
C1274 C1275 1.397 . S
C1274 C1279 1.363 . S
C1275 H1246 0.950 . S
C1275 C1274 1.397 . S
C1275 C1276 1.334 . S
C1276 H1247 0.950 . S
C1276 C1275 1.334 . S
C1276 C1277 1.287 . S
C1277 C1276 1.287 . S
C1277 C1278 1.524 . S
C1277 H1280 0.999 . S
C1278 H1248 0.950 . S
C1278 C1277 1.524 . S
C1278 C1279 1.415 . S
C1279 H1249 0.950 . S
C1279 C1274 1.363 . S
C1279 C1278 1.415 . S
H1280 C1277 0.999 . S
H1281 C1262 0.913 . S
H1282 C1300 0.951 . S
H1283 C1302 0.951 . S
H1284 C1304 0.950 . S
H1285 C1305 0.950 . S
H1286 C1307 0.950 . S
H1287 C1310 0.950 . S
H1288 C1311 0.950 . S
H1289 C1313 0.950 . S
H1290 C1314 0.950 . S
H1291 C1315 0.951 . S
H1292 C1317 0.951 . S
H1293 C1319 0.950 . S
H1294 C1320 0.950 . S
H1295 C1322 0.950 . S
H1296 C1325 0.950 . S
H1297 C1326 0.950 . S
H1298 C1328 0.950 . S
H1299 C1329 0.950 . S
C1300 H1282 0.951 . S
C1300 C1301 1.366 . S
C1300 C1302 1.388 . S
C1301 C1300 1.366 . S
C1301 C1305 1.385 . S
C1302 H1283 0.951 . S
C1302 C1300 1.388 . S
C1302 C1303 1.366 . S
C1303 C1302 1.366 . S
C1303 C1304 1.414 . S
C1303 C1306 1.499 . S
C1304 H1284 0.950 . S
C1304 C1303 1.414 . S
C1304 C1305 1.374 . S
C1305 H1285 0.950 . S
C1305 C1301 1.385 . S
C1305 C1304 1.374 . S
C1306 C1303 1.499 . S
C1306 C1307 1.373 . S
C1306 C1308 1.389 . S
C1307 H1286 0.950 . S
C1307 C1306 1.373 . S
C1307 C1323 1.377 . S
C1308 C1306 1.389 . S
C1308 C1309 1.524 . S
C1308 C1322 1.377 . S
C1309 C1308 1.524 . S
C1309 C1310 1.397 . S
C1309 C1314 1.363 . S
C1310 H1287 0.950 . S
C1310 C1309 1.397 . S
C1310 C1311 1.334 . S
C1311 H1288 0.950 . S
C1311 C1310 1.334 . S
C1311 C1312 1.287 . S
C1312 C1311 1.287 . S
C1312 C1313 1.524 . S
C1312 H1331 0.913 . S
C1313 H1289 0.950 . S
C1313 C1312 1.524 . S
C1313 C1314 1.415 . S
C1314 H1290 0.950 . S
C1314 C1309 1.363 . S
C1314 C1313 1.415 . S
C1315 H1291 0.951 . S
C1315 C1316 1.366 . S
C1315 C1317 1.388 . S
C1316 C1315 1.366 . S
C1316 C1320 1.385 . S
C1317 H1292 0.951 . S
C1317 C1315 1.388 . S
C1317 C1318 1.366 . S
C1318 C1317 1.366 . S
C1318 C1319 1.414 . S
C1318 C1321 1.499 . S
C1319 H1293 0.950 . S
C1319 C1318 1.414 . S
C1319 C1320 1.374 . S
C1320 H1294 0.950 . S
C1320 C1316 1.385 . S
C1320 C1319 1.374 . S
C1321 C1318 1.499 . S
C1321 C1322 1.373 . S
C1321 C1323 1.389 . S
C1322 H1295 0.950 . S
C1322 C1308 1.377 . S
C1322 C1321 1.373 . S
C1323 C1307 1.377 . S
C1323 C1321 1.389 . S
C1323 C1324 1.524 . S
C1324 C1323 1.524 . S
C1324 C1325 1.397 . S
C1324 C1329 1.363 . S
C1325 H1296 0.950 . S
C1325 C1324 1.397 . S
C1325 C1326 1.334 . S
C1326 H1297 0.950 . S
C1326 C1325 1.334 . S
C1326 C1327 1.287 . S
C1327 C1326 1.287 . S
C1327 C1328 1.524 . S
C1327 H1330 0.999 . S
C1328 H1298 0.950 . S
C1328 C1327 1.524 . S
C1328 C1329 1.415 . S
C1329 H1299 0.950 . S
C1329 C1324 1.363 . S
C1329 C1328 1.415 . S
H1330 C1327 0.999 . S
H1331 C1312 0.913 . S
H1332 C1350 0.951 . S
H1333 C1352 0.951 . S
H1334 C1354 0.950 . S
H1335 C1355 0.950 . S
H1336 C1357 0.950 . S
H1337 C1360 0.950 . S
H1338 C1361 0.950 . S
H1339 C1363 0.950 . S
H1340 C1364 0.962 . S
H1341 C1365 0.951 . S
H1342 C1367 0.951 . S
H1343 C1369 0.950 . S
H1344 C1370 0.950 . S
H1345 C1372 0.950 . S
H1346 C1375 0.950 . S
H1347 C1376 0.950 . S
H1348 C1378 0.950 . S
H1349 C1379 0.950 . S
C1350 H1332 0.951 . S
C1350 C1351 1.366 . S
C1350 C1352 1.388 . S
C1351 C1350 1.366 . S
C1351 C1355 1.385 . S
C1352 H1333 0.951 . S
C1352 C1350 1.388 . S
C1352 C1353 1.366 . S
C1353 C1352 1.366 . S
C1353 C1354 1.414 . S
C1353 C1356 1.499 . S
C1354 H1334 0.950 . S
C1354 C1353 1.414 . S
C1354 C1355 1.374 . S
C1355 H1335 0.950 . S
C1355 C1351 1.385 . S
C1355 C1354 1.374 . S
C1356 C1353 1.499 . S
C1356 C1357 1.373 . S
C1356 C1358 1.389 . S
C1357 H1336 0.950 . S
C1357 C1356 1.373 . S
C1357 C1373 1.377 . S
C1358 C1356 1.389 . S
C1358 C1359 1.524 . S
C1358 C1372 1.377 . S
C1359 C1358 1.524 . S
C1359 C1360 1.397 . S
C1359 C1364 1.363 . S
C1360 H1337 0.950 . S
C1360 C1359 1.397 . S
C1360 C1361 1.334 . S
C1361 H1338 0.950 . S
C1361 C1360 1.334 . S
C1361 C1362 1.287 . S
C1362 C1361 1.287 . S
C1362 C1363 1.524 1_554 S
C1362 H1381 0.913 1_554 S
C1363 H1339 0.950 . S
C1363 C1362 1.524 1_556 S
C1363 C1364 1.415 1_556 S
C1364 H1340 0.962 . S
C1364 C1359 1.363 . S
C1364 C1363 1.415 1_554 S
C1365 H1341 0.951 . S
C1365 C1366 1.366 . S
C1365 C1367 1.388 . S
C1366 C1365 1.366 . S
C1366 C1370 1.385 . S
C1367 H1342 0.951 . S
C1367 C1365 1.388 . S
C1367 C1368 1.366 . S
C1368 C1367 1.366 . S
C1368 C1369 1.414 . S
C1368 C1371 1.499 . S
C1369 H1343 0.950 . S
C1369 C1368 1.414 . S
C1369 C1370 1.374 . S
C1370 H1344 0.950 . S
C1370 C1366 1.385 . S
C1370 C1369 1.374 . S
C1371 C1368 1.499 . S
C1371 C1372 1.373 . S
C1371 C1373 1.389 . S
C1372 H1345 0.950 . S
C1372 C1358 1.377 . S
C1372 C1371 1.373 . S
C1373 C1357 1.377 . S
C1373 C1371 1.389 . S
C1373 C1374 1.524 . S
C1374 C1373 1.524 . S
C1374 C1375 1.397 . S
C1374 C1379 1.363 . S
C1375 H1346 0.950 . S
C1375 C1374 1.397 . S
C1375 C1376 1.334 . S
C1376 H1347 0.950 . S
C1376 C1375 1.334 . S
C1376 C1377 1.287 . S
C1377 C1376 1.287 . S
C1377 C1378 1.524 . S
C1377 H1380 0.999 . S
C1378 H1348 0.950 . S
C1378 C1377 1.524 . S
C1378 C1379 1.415 . S
C1379 H1349 0.950 . S
C1379 C1374 1.363 . S
C1379 C1378 1.415 . S
H1380 C1377 0.999 . S
H1381 C1362 0.913 1_556 S
H1382 C1400 0.951 . S
H1383 C1402 0.951 . S
H1384 C1404 0.950 . S
H1385 C1405 0.950 . S
H1386 C1407 0.950 . S
H1387 C1410 0.950 . S
H1388 C1411 0.950 . S
H1389 C1413 0.950 . S
H1390 C1414 0.950 . S
H1391 C1415 0.951 . S
H1392 C1417 0.951 . S
H1393 C1419 0.950 . S
H1394 C1420 0.950 . S
H1395 C1422 0.950 . S
H1396 C1425 0.950 . S
H1397 C1426 0.950 . S
H1398 C1428 0.950 . S
H1399 C1429 0.950 . S
C1400 H1382 0.951 . S
C1400 C1401 1.366 . S
C1400 C1402 1.388 . S
C1401 C1400 1.366 . S
C1401 C1405 1.385 . S
C1402 H1383 0.951 . S
C1402 C1400 1.388 . S
C1402 C1403 1.366 . S
C1403 C1402 1.366 . S
C1403 C1404 1.414 . S
C1403 C1406 1.499 . S
C1404 H1384 0.950 . S
C1404 C1403 1.414 . S
C1404 C1405 1.374 . S
C1405 H1385 0.950 . S
C1405 C1401 1.385 . S
C1405 C1404 1.374 . S
C1406 C1403 1.499 . S
C1406 C1407 1.373 . S
C1406 C1408 1.389 1_655 S
C1407 H1386 0.950 . S
C1407 C1406 1.373 . S
C1407 C1423 1.377 . S
C1408 C1406 1.389 1_455 S
C1408 C1409 1.524 . S
C1408 C1422 1.377 . S
C1409 C1408 1.524 . S
C1409 C1410 1.397 1_455 S
C1409 C1414 1.363 . S
C1410 H1387 0.950 . S
C1410 C1409 1.397 1_655 S
C1410 C1411 1.334 . S
C1411 H1388 0.950 . S
C1411 C1410 1.334 . S
C1411 C1412 1.287 1_655 S
C1412 C1411 1.287 1_455 S
C1412 C1413 1.524 . S
C1412 H1431 0.913 . S
C1413 H1389 0.950 . S
C1413 C1412 1.524 . S
C1413 C1414 1.415 . S
C1414 H1390 0.950 . S
C1414 C1409 1.363 . S
C1414 C1413 1.415 . S
C1415 H1391 0.951 . S
C1415 C1416 1.366 . S
C1415 C1417 1.388 . S
C1416 C1415 1.366 . S
C1416 C1420 1.385 . S
C1417 H1392 0.951 . S
C1417 C1415 1.388 . S
C1417 C1418 1.366 . S
C1418 C1417 1.366 . S
C1418 C1419 1.414 . S
C1418 C1421 1.499 . S
C1419 H1393 0.950 . S
C1419 C1418 1.414 . S
C1419 C1420 1.374 . S
C1420 H1394 0.950 . S
C1420 C1416 1.385 . S
C1420 C1419 1.374 . S
C1421 C1418 1.499 . S
C1421 C1422 1.373 . S
C1421 C1423 1.389 1_455 S
C1422 H1395 0.950 . S
C1422 C1408 1.377 . S
C1422 C1421 1.373 . S
C1423 C1407 1.377 . S
C1423 C1421 1.389 1_655 S
C1423 C1424 1.524 . S
C1424 C1423 1.524 . S
C1424 C1425 1.397 1_655 S
C1424 C1429 1.363 . S
C1425 H1396 0.950 . S
C1425 C1424 1.397 1_455 S
C1425 C1426 1.334 . S
C1426 H1397 0.950 . S
C1426 C1425 1.334 . S
C1426 C1427 1.287 1_455 S
C1427 C1426 1.287 1_655 S
C1427 C1428 1.524 . S
C1427 H1430 0.999 . S
C1428 H1398 0.950 . S
C1428 C1427 1.524 . S
C1428 C1429 1.415 . S
C1429 H1399 0.950 . S
C1429 C1424 1.363 . S
C1429 C1428 1.415 . S
H1430 C1427 0.999 . S
H1431 C1412 0.913 . S
H1432 C1450 0.951 . S
H1433 C1452 0.951 . S
H1434 C1454 0.950 . S
H1435 C1455 0.950 . S
H1436 C1457 0.950 . S
H1437 C1460 0.950 . S
H1438 C1461 0.950 . S
H1439 C1463 0.950 . S
H1440 C1464 0.950 . S
H1441 C1465 0.951 . S
H1442 C1467 0.951 . S
H1443 C1469 0.950 . S
H1444 C1470 0.950 . S
H1445 C1472 0.950 . S
H1446 C1475 0.950 . S
H1447 C1476 0.950 . S
H1448 C1478 0.950 . S
H1449 C1479 0.950 . S
C1450 H1432 0.951 . S
C1450 C1451 1.366 . S
C1450 C1452 1.388 . S
C1451 C1450 1.366 . S
C1451 C1455 1.385 . S
C1452 H1433 0.951 . S
C1452 C1450 1.388 . S
C1452 C1453 1.366 . S
C1453 C1452 1.366 . S
C1453 C1454 1.414 . S
C1453 C1456 1.499 . S
C1454 H1434 0.950 . S
C1454 C1453 1.414 . S
C1454 C1455 1.374 . S
C1455 H1435 0.950 . S
C1455 C1451 1.385 . S
C1455 C1454 1.374 . S
C1456 C1453 1.499 . S
C1456 C1457 1.373 1_545 S
C1456 C1458 1.389 . S
C1457 H1436 0.950 . S
C1457 C1456 1.373 1_565 S
C1457 C1473 1.377 . S
C1458 C1456 1.389 . S
C1458 C1459 1.524 . S
C1458 C1472 1.377 . S
C1459 C1458 1.524 . S
C1459 C1460 1.397 . S
C1459 C1464 1.363 . S
C1460 H1437 0.950 . S
C1460 C1459 1.397 . S
C1460 C1461 1.334 . S
C1461 H1438 0.950 . S
C1461 C1460 1.334 . S
C1461 C1462 1.287 . S
C1462 C1461 1.287 . S
C1462 C1463 1.524 . S
C1462 H1481 0.913 . S
C1463 H1439 0.950 . S
C1463 C1462 1.524 . S
C1463 C1464 1.415 . S
C1464 H1440 0.950 . S
C1464 C1459 1.363 . S
C1464 C1463 1.415 . S
C1465 H1441 0.951 . S
C1465 C1466 1.366 . S
C1465 C1467 1.388 . S
C1466 C1465 1.366 . S
C1466 C1470 1.385 . S
C1467 H1442 0.951 . S
C1467 C1465 1.388 . S
C1467 C1468 1.366 . S
C1468 C1467 1.366 . S
C1468 C1469 1.414 . S
C1468 C1471 1.499 . S
C1469 H1443 0.950 . S
C1469 C1468 1.414 . S
C1469 C1470 1.374 . S
C1470 H1444 0.950 . S
C1470 C1466 1.385 . S
C1470 C1469 1.374 . S
C1471 C1468 1.499 . S
C1471 C1472 1.373 1_565 S
C1471 C1473 1.389 . S
C1472 H1445 0.950 . S
C1472 C1458 1.377 . S
C1472 C1471 1.373 1_545 S
C1473 C1457 1.377 . S
C1473 C1471 1.389 . S
C1473 C1474 1.524 . S
C1474 C1473 1.524 . S
C1474 C1475 1.397 . S
C1474 C1479 1.363 . S
C1475 H1446 0.950 . S
C1475 C1474 1.397 . S
C1475 C1476 1.334 . S
C1476 H1447 0.950 . S
C1476 C1475 1.334 . S
C1476 C1477 1.287 . S
C1477 C1476 1.287 . S
C1477 C1478 1.524 . S
C1477 H1480 0.999 . S
C1478 H1448 0.950 . S
C1478 C1477 1.524 . S
C1478 C1479 1.415 . S
C1479 H1449 0.950 . S
C1479 C1474 1.363 . S
C1479 C1478 1.415 . S
H1480 C1477 0.999 . S
H1481 C1462 0.913 . S
H1482 C1500 0.951 . S
H1483 C1502 0.951 . S
H1484 C1504 0.950 . S
H1485 C1505 0.950 . S
H1486 C1507 0.950 . S
H1487 C1510 0.950 . S
H1488 C1511 0.950 . S
H1489 C1513 0.950 . S
H1490 C1514 0.950 . S
H1491 C1515 0.951 . S
H1492 C1517 0.951 . S
H1493 C1519 0.950 . S
H1494 C1520 0.950 . S
H1495 C1522 0.950 . S
H1496 C1525 0.950 . S
H1497 C1526 0.950 . S
H1498 C1528 0.950 . S
H1499 C1529 0.950 . S
C1500 H1482 0.951 . S
C1500 C1501 1.366 . S
C1500 C1502 1.388 . S
C1501 C1500 1.366 . S
C1501 C1505 1.385 . S
C1502 H1483 0.951 . S
C1502 C1500 1.388 . S
C1502 C1503 1.366 . S
C1503 C1502 1.366 . S
C1503 C1504 1.414 . S
C1503 C1506 1.499 . S
C1504 H1484 0.950 . S
C1504 C1503 1.414 . S
C1504 C1505 1.374 . S
C1505 H1485 0.950 . S
C1505 C1501 1.385 . S
C1505 C1504 1.374 . S
C1506 C1503 1.499 . S
C1506 C1507 1.373 . S
C1506 C1508 1.389 . S
C1507 H1486 0.950 . S
C1507 C1506 1.373 . S
C1507 C1523 1.377 . S
C1508 C1506 1.389 . S
C1508 C1509 1.524 . S
C1508 C1522 1.377 . S
C1509 C1508 1.524 . S
C1509 C1510 1.397 . S
C1509 C1514 1.363 . S
C1510 H1487 0.950 . S
C1510 C1509 1.397 . S
C1510 C1511 1.334 . S
C1511 H1488 0.950 . S
C1511 C1510 1.334 . S
C1511 C1512 1.287 . S
C1512 C1511 1.287 . S
C1512 C1513 1.524 . S
C1512 H1531 0.913 . S
C1513 H1489 0.950 . S
C1513 C1512 1.524 . S
C1513 C1514 1.415 . S
C1514 H1490 0.950 . S
C1514 C1509 1.363 . S
C1514 C1513 1.415 . S
C1515 H1491 0.951 . S
C1515 C1516 1.366 . S
C1515 C1517 1.388 . S
C1516 C1515 1.366 . S
C1516 C1520 1.385 . S
C1517 H1492 0.951 . S
C1517 C1515 1.388 . S
C1517 C1518 1.366 . S
C1518 C1517 1.366 . S
C1518 C1519 1.414 . S
C1518 C1521 1.499 . S
C1519 H1493 0.950 . S
C1519 C1518 1.414 . S
C1519 C1520 1.374 . S
C1520 H1494 0.950 . S
C1520 C1516 1.385 . S
C1520 C1519 1.374 . S
C1521 C1518 1.499 . S
C1521 C1522 1.373 . S
C1521 C1523 1.389 . S
C1522 H1495 0.950 . S
C1522 C1508 1.377 . S
C1522 C1521 1.373 . S
C1523 C1507 1.377 . S
C1523 C1521 1.389 . S
C1523 C1524 1.524 . S
C1524 C1523 1.524 . S
C1524 C1525 1.397 . S
C1524 C1529 1.363 . S
C1525 H1496 0.950 . S
C1525 C1524 1.397 . S
C1525 C1526 1.334 . S
C1526 H1497 0.950 . S
C1526 C1525 1.334 . S
C1526 C1527 1.287 . S
C1527 C1526 1.287 . S
C1527 C1528 1.524 . S
C1527 H1530 0.999 . S
C1528 H1498 0.950 . S
C1528 C1527 1.524 . S
C1528 C1529 1.415 . S
C1529 H1499 0.950 . S
C1529 C1524 1.363 . S
C1529 C1528 1.415 . S
H1530 C1527 0.999 . S
H1531 C1512 0.913 . S
H1532 C1550 0.951 . S
H1533 C1552 0.951 . S
H1534 C1554 0.950 . S
H1535 C1555 0.950 . S
H1536 C1557 0.950 . S
H1537 C1560 0.950 . S
H1538 C1561 0.950 . S
H1539 C1563 0.950 . S
H1540 C1564 0.950 . S
H1541 C1565 0.951 . S
H1542 C1567 0.951 . S
H1543 C1569 0.950 . S
H1544 C1570 0.950 . S
H1545 C1572 0.950 . S
H1546 C1575 0.950 . S
H1547 C1576 0.950 . S
H1548 C1578 0.950 . S
H1549 C1579 0.950 . S
C1550 H1532 0.951 . S
C1550 C1551 1.366 . S
C1550 C1552 1.388 . S
C1551 C1550 1.366 . S
C1551 C1555 1.385 . S
C1552 H1533 0.951 . S
C1552 C1550 1.388 . S
C1552 C1553 1.366 . S
C1553 C1552 1.366 . S
C1553 C1554 1.414 . S
C1553 C1556 1.499 . S
C1554 H1534 0.950 . S
C1554 C1553 1.414 . S
C1554 C1555 1.374 . S
C1555 H1535 0.950 . S
C1555 C1551 1.385 . S
C1555 C1554 1.374 . S
C1556 C1553 1.499 . S
C1556 C1557 1.373 . S
C1556 C1558 1.389 1_455 S
C1557 H1536 0.950 . S
C1557 C1556 1.373 . S
C1557 C1573 1.377 . S
C1558 C1556 1.389 1_655 S
C1558 C1559 1.524 . S
C1558 C1572 1.377 . S
C1559 C1558 1.524 . S
C1559 C1560 1.397 . S
C1559 C1564 1.363 . S
C1560 H1537 0.950 . S
C1560 C1559 1.397 . S
C1560 C1561 1.334 . S
C1561 H1538 0.950 . S
C1561 C1560 1.334 . S
C1561 C1562 1.287 . S
C1562 C1561 1.287 . S
C1562 C1563 1.524 . S
C1562 H1581 0.913 . S
C1563 H1539 0.950 . S
C1563 C1562 1.524 . S
C1563 C1564 1.415 . S
C1564 H1540 0.950 . S
C1564 C1559 1.363 . S
C1564 C1563 1.415 . S
C1565 H1541 0.951 . S
C1565 C1566 1.366 . S
C1565 C1567 1.388 . S
C1566 C1565 1.366 . S
C1566 C1570 1.385 . S
C1567 H1542 0.951 . S
C1567 C1565 1.388 . S
C1567 C1568 1.366 . S
C1568 C1567 1.366 . S
C1568 C1569 1.414 . S
C1568 C1571 1.499 . S
C1569 H1543 0.950 . S
C1569 C1568 1.414 . S
C1569 C1570 1.374 . S
C1570 H1544 0.950 . S
C1570 C1566 1.385 . S
C1570 C1569 1.374 . S
C1571 C1568 1.499 . S
C1571 C1572 1.373 . S
C1571 C1573 1.389 1_655 S
C1572 H1545 0.950 . S
C1572 C1558 1.377 . S
C1572 C1571 1.373 . S
C1573 C1557 1.377 . S
C1573 C1571 1.389 1_455 S
C1573 C1574 1.524 . S
C1574 C1573 1.524 . S
C1574 C1575 1.397 . S
C1574 C1579 1.363 . S
C1575 H1546 0.950 . S
C1575 C1574 1.397 . S
C1575 C1576 1.334 . S
C1576 H1547 0.950 . S
C1576 C1575 1.334 . S
C1576 C1577 1.287 . S
C1577 C1576 1.287 . S
C1577 C1578 1.524 . S
C1577 H1580 0.999 . S
C1578 H1548 0.950 . S
C1578 C1577 1.524 . S
C1578 C1579 1.415 . S
C1579 H1549 0.950 . S
C1579 C1574 1.363 . S
C1579 C1578 1.415 . S
H1580 C1577 0.999 . S
H1581 C1562 0.913 . S
H1582 C1600 0.951 . S
H1583 C1602 0.951 . S
H1584 C1604 0.950 . S
H1585 C1605 0.950 . S
H1586 C1607 0.950 . S
H1587 C1610 0.950 . S
H1588 C1611 0.950 . S
H1589 C1613 0.950 . S
H1590 C1614 0.950 . S
H1591 C1615 0.951 . S
H1592 C1617 0.951 . S
H1593 C1619 0.950 . S
H1594 C1620 0.950 . S
H1595 C1622 0.950 . S
H1596 C1625 0.950 . S
H1597 C1626 0.950 . S
H1598 C1628 0.950 . S
H1599 C1629 0.950 . S
C1600 H1582 0.951 . S
C1600 C1601 1.366 . S
C1600 C1602 1.388 . S
C1601 C1600 1.366 . S
C1601 C1605 1.385 . S
C1602 H1583 0.951 . S
C1602 C1600 1.388 . S
C1602 C1603 1.366 . S
C1603 C1602 1.366 . S
C1603 C1604 1.414 . S
C1603 C1606 1.499 . S
C1604 H1584 0.950 . S
C1604 C1603 1.414 . S
C1604 C1605 1.374 . S
C1605 H1585 0.950 . S
C1605 C1601 1.385 . S
C1605 C1604 1.374 . S
C1606 C1603 1.499 . S
C1606 C1607 1.373 1_565 S
C1606 C1608 1.389 . S
C1607 H1586 0.950 . S
C1607 C1606 1.373 1_545 S
C1607 C1623 1.377 . S
C1608 C1606 1.389 . S
C1608 C1609 1.524 . S
C1608 C1622 1.377 . S
C1609 C1608 1.524 . S
C1609 C1610 1.397 . S
C1609 C1614 1.363 . S
C1610 H1587 0.950 . S
C1610 C1609 1.397 . S
C1610 C1611 1.334 . S
C1611 H1588 0.950 . S
C1611 C1610 1.334 . S
C1611 C1612 1.287 . S
C1612 C1611 1.287 . S
C1612 C1613 1.524 . S
C1612 H1631 0.913 . S
C1613 H1589 0.950 . S
C1613 C1612 1.524 . S
C1613 C1614 1.415 . S
C1614 H1590 0.950 . S
C1614 C1609 1.363 . S
C1614 C1613 1.415 . S
C1615 H1591 0.951 . S
C1615 C1616 1.366 . S
C1615 C1617 1.388 . S
C1616 C1615 1.366 . S
C1616 C1620 1.385 . S
C1617 H1592 0.951 . S
C1617 C1615 1.388 . S
C1617 C1618 1.366 . S
C1618 C1617 1.366 . S
C1618 C1619 1.414 . S
C1618 C1621 1.499 . S
C1619 H1593 0.950 . S
C1619 C1618 1.414 . S
C1619 C1620 1.374 . S
C1620 H1594 0.950 . S
C1620 C1616 1.385 . S
C1620 C1619 1.374 . S
C1621 C1618 1.499 . S
C1621 C1622 1.373 1_545 S
C1621 C1623 1.389 . S
C1622 H1595 0.950 . S
C1622 C1608 1.377 . S
C1622 C1621 1.373 1_565 S
C1623 C1607 1.377 . S
C1623 C1621 1.389 . S
C1623 C1624 1.524 . S
C1624 C1623 1.524 . S
C1624 C1625 1.397 . S
C1624 C1629 1.363 . S
C1625 H1596 0.950 . S
C1625 C1624 1.397 . S
C1625 C1626 1.334 . S
C1626 H1597 0.950 . S
C1626 C1625 1.334 . S
C1626 C1627 1.287 . S
C1627 C1626 1.287 . S
C1627 C1628 1.524 . S
C1627 H1630 0.999 . S
C1628 H1598 0.950 . S
C1628 C1627 1.524 . S
C1628 C1629 1.415 . S
C1629 H1599 0.950 . S
C1629 C1624 1.363 . S
C1629 C1628 1.415 . S
H1630 C1627 0.999 . S
H1631 C1612 0.913 . S
C451 C255 1.246 . S
C466 C3 1.245 . S
C501 C39 1.246 . S
C516 C291 1.245 . S
C551 C75 1.245 . S
C566 C327 1.245 . S
C601 C111 1.245 . S
C616 C363 1.246 . S
C651 C399 1.246 . S
C666 C147 1.245 . S
C701 C219 1.246 . S
C716 C183 1.245 . S
C751 C362 1.333 . S
C766 C2 1.333 . S
C801 C38 1.333 . S
C816 C398 1.333 . S
C851 C74 1.333 . S
C866 C218 1.333 . S
C901 C254 1.333 . S
C916 C110 1.333 . S
C951 C290 1.333 . S
C966 C146 1.332 . S
C1001 C326 1.333 . S
C1016 C182 1.333 . S
C1051 C14 1.618 . S
C1066 C302 1.617 . S
C1101 C50 1.617 . S
C1116 C338 1.617 . S
C1151 C374 1.618 . S
C1166 C86 1.617 . S
C1201 C122 1.617 . S
C1216 C410 1.618 . S
C1251 C230 1.617 . S
C1266 C158 1.617 . S
C1301 C266 1.617 . S
C1316 C194 1.617 . S
C1351 C112 1.235 . S
C1366 C4 1.235 . S
C1401 C148 1.234 . S
C1416 C40 1.235 . S
C1451 C76 1.235 . S
C1466 C184 1.235 . S
C1501 C220 1.234 . S
C1516 C328 1.234 . S
C1551 C256 1.234 . S
C1566 C364 1.234 . S
C1601 C400 1.235 . S
C1616 C292 1.235 . S
