# Generated by pormake.
# Topology umz, (4)-cn, num edge types: 1
# Building blocks:
#     Node 0, Type 0, BuildingBlock: QUQFOY_clean_sbu_3, # of connection points: 4
#     Node 1, Type 0, BuildingBlock: QUQFOY_clean_sbu_3, # of connection points: 4
#     Node 2, Type 0, BuildingBlock: QUQFOY_clean_sbu_3, # of connection points: 4
#     Node 3, Type 0, BuildingBlock: QUQFOY_clean_sbu_3, # of connection points: 4
#     Node 4, Type 0, BuildingBlock: QUQFOY_clean_sbu_3, # of connection points: 4
#     Node 5, Type 0, BuildingBlock: QUQFOY_clean_sbu_3, # of connection points: 4
#     Node 6, Type 0, BuildingBlock: QUQFOY_clean_sbu_3, # of connection points: 4
#     Node 7, Type 0, BuildingBlock: QUQFOY_clean_sbu_3, # of connection points: 4
#     Node 8, Type 0, BuildingBlock: QUQFOY_clean_sbu_3, # of connection points: 4
#     Node 9, Type 0, BuildingBlock: QUQFOY_clean_sbu_3, # of connection points: 4
#     Node 10, Type 0, BuildingBlock: QUQFOY_clean_sbu_3, # of connection points: 4
#     Node 11, Type 0, BuildingBlock: QUQFOY_clean_sbu_3, # of connection points: 4
#     Node 12, Type 0, BuildingBlock: QUQFOY_clean_sbu_3, # of connection points: 4
#     Node 13, Type 0, BuildingBlock: QUQFOY_clean_sbu_3, # of connection points: 4
#     Node 14, Type 0, BuildingBlock: QUQFOY_clean_sbu_3, # of connection points: 4
#     Node 15, Type 0, BuildingBlock: QUQFOY_clean_sbu_3, # of connection points: 4
#     Edge 16, Type (0, 0), BuildingBlock: EYOCIG_clean_linker_4, # of connection points: 2
#     Edge 17, Type (0, 0), BuildingBlock: EYOCIG_clean_linker_4, # of connection points: 2
#     Edge 18, Type (0, 0), BuildingBlock: EYOCIG_clean_linker_4, # of connection points: 2
#     Edge 19, Type (0, 0), BuildingBlock: EYOCIG_clean_linker_4, # of connection points: 2
#     Edge 20, Type (0, 0), BuildingBlock: EYOCIG_clean_linker_4, # of connection points: 2
#     Edge 21, Type (0, 0), BuildingBlock: EYOCIG_clean_linker_4, # of connection points: 2
#     Edge 22, Type (0, 0), BuildingBlock: EYOCIG_clean_linker_4, # of connection points: 2
#     Edge 23, Type (0, 0), BuildingBlock: EYOCIG_clean_linker_4, # of connection points: 2
#     Edge 24, Type (0, 0), BuildingBlock: EYOCIG_clean_linker_4, # of connection points: 2
#     Edge 25, Type (0, 0), BuildingBlock: EYOCIG_clean_linker_4, # of connection points: 2
#     Edge 26, Type (0, 0), BuildingBlock: EYOCIG_clean_linker_4, # of connection points: 2
#     Edge 27, Type (0, 0), BuildingBlock: EYOCIG_clean_linker_4, # of connection points: 2
#     Edge 28, Type (0, 0), BuildingBlock: EYOCIG_clean_linker_4, # of connection points: 2
#     Edge 29, Type (0, 0), BuildingBlock: EYOCIG_clean_linker_4, # of connection points: 2
#     Edge 30, Type (0, 0), BuildingBlock: EYOCIG_clean_linker_4, # of connection points: 2
#     Edge 31, Type (0, 0), BuildingBlock: EYOCIG_clean_linker_4, # of connection points: 2
#     Edge 32, Type (0, 0), BuildingBlock: EYOCIG_clean_linker_4, # of connection points: 2
#     Edge 33, Type (0, 0), BuildingBlock: EYOCIG_clean_linker_4, # of connection points: 2
#     Edge 34, Type (0, 0), BuildingBlock: EYOCIG_clean_linker_4, # of connection points: 2
#     Edge 35, Type (0, 0), BuildingBlock: EYOCIG_clean_linker_4, # of connection points: 2
#     Edge 36, Type (0, 0), BuildingBlock: EYOCIG_clean_linker_4, # of connection points: 2
#     Edge 37, Type (0, 0), BuildingBlock: EYOCIG_clean_linker_4, # of connection points: 2
#     Edge 38, Type (0, 0), BuildingBlock: EYOCIG_clean_linker_4, # of connection points: 2
#     Edge 39, Type (0, 0), BuildingBlock: EYOCIG_clean_linker_4, # of connection points: 2
#     Edge 40, Type (0, 0), BuildingBlock: EYOCIG_clean_linker_4, # of connection points: 2
#     Edge 41, Type (0, 0), BuildingBlock: EYOCIG_clean_linker_4, # of connection points: 2
#     Edge 42, Type (0, 0), BuildingBlock: EYOCIG_clean_linker_4, # of connection points: 2
#     Edge 43, Type (0, 0), BuildingBlock: EYOCIG_clean_linker_4, # of connection points: 2
#     Edge 44, Type (0, 0), BuildingBlock: EYOCIG_clean_linker_4, # of connection points: 2
#     Edge 45, Type (0, 0), BuildingBlock: EYOCIG_clean_linker_4, # of connection points: 2
#     Edge 46, Type (0, 0), BuildingBlock: EYOCIG_clean_linker_4, # of connection points: 2
#     Edge 47, Type (0, 0), BuildingBlock: EYOCIG_clean_linker_4, # of connection points: 2
# Relax obj value: 0.248
# Max RMSD: 0.162
# Mean RMSD: 0.162
data_MOF--net-umz--node1-QUQFOY_clean_sbu_3--edge1-EYOCIG_clean_linker_4
_symmetry_space_group_name_H-M    P1
_symmetry_Int_Tables_number       1
_symmetry_cell_setting            triclinic
loop_
_symmetry_equiv_pos_as_xyz
'x, y, z'
_cell_length_a     51.512095
_cell_length_b     51.526271
_cell_length_c     18.614908
_cell_angle_alpha  89.95812
_cell_angle_beta   89.994161
_cell_angle_gamma 90.005527
loop_
_atom_site_label
_atom_site_type_symbol
_atom_site_fract_x
_atom_site_fract_y
_atom_site_fract_z
_atom_type_partial_charge
C0 C 0.92657 0.56808 0.14591 0.0
O1 O 0.93571 0.54701 0.12153 0.0
Cd2 Cd -0.02142 0.54108 0.0749 0.0
O3 O 0.93949 0.58905 0.14326 0.0
Cd4 Cd -0.0185 0.60277 0.09093 0.0
C5 C 0.01283 0.56736 0.21687 0.0
O6 O -0.0133 0.57371 -0.01231 0.0
O7 O 0.02066 0.59565 0.01948 0.0
O8 O 0.95511 0.63461 0.02957 0.0
C9 C 0.01022 0.57978 0.97637 0.0
O10 O 0.00645 0.548 0.17842 0.0
C11 C -0.03176 0.65399 0.05018 0.0
O12 O 0.00545 0.59036 0.20144 0.0
O13 O -0.01265 0.6499 0.09192 0.0
C14 C 0.85689 0.92623 0.64571 0.0
O15 O 0.8779 0.93514 0.62024 0.0
Cd16 Cd 0.8841 -0.02218 0.57244 0.0
O17 O 0.83599 0.93927 0.64366 0.0
Cd18 Cd 0.82228 -0.01885 0.59066 0.0
C19 C 0.85855 0.01259 0.71451 0.0
O20 O 0.85106 -0.01392 0.48683 0.0
O21 O 0.82937 0.02019 0.51877 0.0
O22 O 0.79044 0.95465 0.52981 0.0
C23 C 0.84513 0.00964 0.47553 0.0
O24 O 0.87769 0.00595 0.67553 0.0
C25 C 0.77104 -0.0322 0.55021 0.0
O26 O 0.83541 0.00534 0.70015 0.0
O27 O 0.7751 -0.01305 0.59182 0.0
C28 C 0.49824 0.85703 0.1466 0.0
O29 O 0.48913 0.87811 0.12211 0.0
Cd30 Cd 0.44643 0.88424 0.07484 0.0
O31 O 0.48539 0.83602 0.1437 0.0
Cd32 Cd 0.44351 0.82232 0.09075 0.0
C33 C 0.41229 0.85765 0.21681 0.0
O34 O 0.43865 0.85156 -0.0121 0.0
O35 O 0.40449 0.82985 0.01936 0.0
O36 O 0.46962 0.79033 0.02921 0.0
C37 C 0.41512 0.84564 0.97634 0.0
O38 O 0.41863 0.87707 0.17843 0.0
C39 C 0.45604 0.77109 0.0487 0.0
O40 O 0.41962 0.83468 0.20119 0.0
O41 O 0.43695 0.7753 0.09042 0.0
C42 C 0.56842 0.49829 0.64669 0.0
O43 O 0.54741 0.48959 0.62069 0.0
Cd44 Cd 0.541 0.44692 0.5731 0.0
O45 O 0.58924 0.48513 0.64465 0.0
Cd46 Cd 0.60268 0.44341 0.59032 0.0
C47 C 0.56674 0.41232 0.71528 0.0
O48 O 0.57371 0.43793 0.48707 0.0
O49 O 0.59531 0.40396 0.52091 0.0
O50 O 0.63409 0.46982 0.52746 0.0
C51 C 0.57956 0.41427 0.47714 0.0
O52 O 0.54753 0.41895 0.67649 0.0
C53 C 0.65361 0.45666 0.54708 0.0
O54 O 0.58987 0.41947 0.70045 0.0
O55 O 0.64981 0.43762 0.58935 0.0
C56 C 0.92663 0.85685 0.80958 0.0
O57 O 0.93583 0.87792 0.83377 0.0
Cd58 Cd -0.02122 0.88391 0.8799 0.0
O59 O 0.9395 0.83587 0.81226 0.0
Cd60 Cd -0.01852 0.8222 0.86481 0.0
C61 C 0.0129 0.85722 0.73828 0.0
O62 O -0.01289 0.85146 0.96734 0.0
O63 O 0.02089 0.82933 0.93499 0.0
O64 O 0.95492 0.79092 0.92791 0.0
C65 C 0.01066 0.84534 -0.02192 0.0
O66 O 0.00658 0.87666 0.77649 0.0
C67 C -0.03207 0.77134 0.90817 0.0
O68 O 0.00544 0.83427 0.75394 0.0
O69 O -0.01302 0.77505 0.86591 0.0
C70 C 0.56763 0.92679 0.3109 0.0
O71 O 0.54664 0.93589 0.33597 0.0
Cd72 Cd 0.54047 -0.02137 0.38301 0.0
O73 O 0.58863 0.93967 0.313 0.0
Cd74 Cd 0.60276 -0.01857 0.3655 0.0
C75 C 0.56688 0.01286 0.24068 0.0
O76 O 0.5736 -0.0132 0.46809 0.0
O77 O 0.59571 0.02067 0.43628 0.0
O78 O 0.63421 0.95467 0.42731 0.0
C79 C 0.57956 0.01037 0.4789 0.0
O80 O 0.54761 0.00643 0.27951 0.0
C81 C 0.65376 -0.03225 0.40762 0.0
O82 O 0.58994 0.00547 0.25543 0.0
O83 O 0.64998 -0.01306 0.36588 0.0
C84 C 0.49867 0.56766 0.81119 0.0
O85 O 0.48942 0.54665 0.83569 0.0
Cd86 Cd 0.44658 0.54071 0.88263 0.0
O87 O 0.4858 0.58867 0.81327 0.0
Cd88 Cd 0.44356 0.60235 0.86456 0.0
C89 C 0.41194 0.56642 0.74062 0.0
O90 O 0.43841 0.57365 0.9686 0.0
O91 O 0.40436 0.59524 0.93571 0.0
O92 O 0.46927 0.63463 0.92604 0.0
C93 C 0.41485 0.57963 -0.0205 0.0
O94 O 0.41841 0.54722 0.77961 0.0
C95 C 0.45597 0.65381 0.90474 0.0
O96 O 0.41943 0.58946 0.75493 0.0
O97 O 0.43717 0.64942 0.86215 0.0
C98 C 0.85702 0.49867 0.3107 0.0
O99 O 0.87807 0.48957 0.33542 0.0
Cd100 Cd 0.88408 0.44662 0.38155 0.0
O101 O 0.83608 0.4857 0.31278 0.0
Cd102 Cd 0.82234 0.44357 0.36425 0.0
C103 C 0.85814 0.41287 0.23825 0.0
O104 O 0.85124 0.43799 0.46773 0.0
O105 O 0.82944 0.40413 0.43446 0.0
O106 O 0.79025 0.46959 0.42569 0.0
C107 C 0.84523 0.41439 0.47811 0.0
O108 O 0.87741 0.41913 0.27722 0.0
C109 C 0.77096 0.45646 0.40439 0.0
O110 O 0.83508 0.42012 0.25346 0.0
O111 O 0.77521 0.43753 0.36219 0.0
C112 C -0.00141 0.35723 0.81039 0.0
O113 O -0.01083 0.37837 0.83344 0.0
Cd114 Cd 0.94631 0.38465 0.87971 0.0
O115 O -0.01417 0.33616 0.81348 0.0
Cd116 Cd 0.9435 0.32258 0.86451 0.0
C117 C 0.91183 0.35788 0.7388 0.0
O118 O 0.93835 0.35204 0.96671 0.0
O119 O 0.90435 0.33003 0.93566 0.0
O120 O -0.03083 0.29046 0.92722 0.0
C121 C 0.91479 0.34613 -0.02193 0.0
O122 O 0.91823 0.37732 0.77691 0.0
C123 C 0.95583 0.27123 0.90657 0.0
O124 O 0.91937 0.33493 0.7542 0.0
O125 O 0.93703 0.2755 0.86389 0.0
C126 C 0.06796 -0.0016 0.31063 0.0
O127 O 0.04685 -0.01094 0.3342 0.0
Cd128 Cd 0.04074 0.94608 0.38004 0.0
O129 O 0.08899 -0.01443 0.31327 0.0
Cd130 Cd 0.1025 0.94329 0.36455 0.0
C131 C 0.06728 0.91179 0.2386 0.0
O132 O 0.07322 0.93766 0.46726 0.0
O133 O 0.09525 0.90387 0.43458 0.0
O134 O 0.13427 -0.03086 0.42782 0.0
C135 C 0.07927 0.91409 0.47781 0.0
O136 O 0.04785 0.91813 0.27688 0.0
C137 C 0.15365 0.956 0.40724 0.0
O138 O 0.09023 0.91932 0.25395 0.0
O139 O 0.14963 0.93723 0.36432 0.0
C140 C 0.42684 0.0675 0.81049 0.0
O141 O 0.43609 0.04645 0.83473 0.0
Cd142 Cd 0.4789 0.04049 0.88145 0.0
O143 O 0.43963 0.08855 0.81313 0.0
Cd144 Cd 0.48169 0.10247 0.86472 0.0
C145 C 0.51265 0.06695 0.73858 0.0
O146 O 0.48669 0.07335 0.96792 0.0
O147 O 0.52076 0.09517 0.93641 0.0
O148 O 0.45566 0.1348 0.9252 0.0
C149 C 0.51021 0.07933 -0.02055 0.0
O150 O 0.50644 0.04759 0.77733 0.0
C151 C 0.46922 0.15394 0.90485 0.0
O152 O 0.50532 0.08994 0.75403 0.0
O153 O 0.48831 0.14951 0.86331 0.0
C154 C 0.35667 0.42655 0.30759 0.0
O155 O 0.37775 0.43534 0.33293 0.0
Cd156 Cd 0.38414 0.47789 0.38133 0.0
O157 O 0.3358 0.43962 0.31032 0.0
Cd158 Cd 0.32251 0.48133 0.36498 0.0
C159 C 0.35824 0.51321 0.24084 0.0
O160 O 0.35155 0.48617 0.46834 0.0
O161 O 0.32991 0.52032 0.43619 0.0
O162 O 0.29091 0.45491 0.42718 0.0
C163 C 0.34562 0.50974 0.47953 0.0
O164 O 0.37753 0.50645 0.27912 0.0
C165 C 0.27149 0.46827 0.40796 0.0
O166 O 0.33517 0.50588 0.25565 0.0
O167 O 0.27541 0.48741 0.36611 0.0
C168 C -0.00136 0.06826 0.14767 0.0
O169 O -0.01011 0.04715 0.12252 0.0
Cd170 Cd 0.9474 0.04056 0.07382 0.0
O171 O -0.01448 0.08909 0.14483 0.0
Cd172 Cd 0.94359 0.10223 0.09071 0.0
C173 C 0.91193 0.06611 0.21446 0.0
O174 O 0.93911 0.07324 -0.013 0.0
O175 O 0.90477 0.0946 0.01872 0.0
O176 O -0.03058 0.13461 0.02971 0.0
C177 C 0.91551 0.07897 0.97551 0.0
O178 O 0.91878 0.0469 0.17604 0.0
C179 C 0.95581 0.15371 0.04993 0.0
O180 O 0.91915 0.08922 0.1998 0.0
O181 O 0.93677 0.14924 0.09167 0.0
C182 C 0.35739 -0.00206 0.64481 0.0
O183 O 0.37835 -0.01101 0.61915 0.0
Cd184 Cd 0.38448 0.94628 0.57175 0.0
O185 O 0.33645 -0.01506 0.643 0.0
Cd186 Cd 0.32245 0.94307 0.59058 0.0
C187 C 0.35867 0.91199 0.71468 0.0
O188 O 0.35123 0.93776 0.48713 0.0
O189 O 0.32977 0.90367 0.52048 0.0
O190 O 0.29031 -0.03097 0.52914 0.0
C191 C 0.34551 0.91409 0.47691 0.0
O192 O 0.37783 0.91844 0.67546 0.0
C193 C 0.27105 0.95584 0.55042 0.0
O194 O 0.33556 0.91929 0.70033 0.0
O195 O 0.27534 0.93694 0.5928 0.0
C196 C 0.42635 0.35698 0.14561 0.0
O197 O 0.43572 0.37816 0.12258 0.0
Cd198 Cd 0.47854 0.38444 0.07615 0.0
O199 O 0.43913 0.33594 0.14234 0.0
Cd200 Cd 0.48142 0.32255 0.09085 0.0
C201 C 0.51303 0.35763 0.21694 0.0
O202 O 0.48635 0.35204 -0.01161 0.0
O203 O 0.5204 0.33006 0.01919 0.0
O204 O 0.45555 0.29056 0.0285 0.0
C205 C 0.50985 0.34605 0.9766 0.0
O206 O 0.50662 0.37711 0.17894 0.0
C207 C 0.46903 0.27131 0.04836 0.0
O208 O 0.50555 0.3347 0.2013 0.0
O209 O 0.48798 0.2755 0.09056 0.0
C210 C 0.06825 0.42689 0.64702 0.0
O211 O 0.04723 0.43571 0.6214 0.0
Cd212 Cd 0.04095 0.47837 0.5733 0.0
O213 O 0.08912 0.43996 0.64471 0.0
Cd214 Cd 0.10278 0.48178 0.59099 0.0
C215 C 0.06666 0.51331 0.71482 0.0
O216 O 0.07386 0.48697 0.48748 0.0
O217 O 0.09556 0.52099 0.52001 0.0
O218 O 0.13481 0.45562 0.52969 0.0
C219 C 0.07969 0.51059 0.4768 0.0
O220 O 0.04745 0.50665 0.67611 0.0
C221 C 0.15414 0.46873 0.55086 0.0
O222 O 0.08976 0.50601 0.7003 0.0
O223 O 0.14992 0.48772 0.59291 0.0
C224 C 0.95967 0.70047 -0.00365 0.0
C225 C -0.03663 0.67914 0.02053 0.0
C226 C 0.95953 0.72522 0.96443 0.0
C227 C -0.03695 0.74643 0.93932 0.0
C228 C 0.69993 0.9592 0.46356 0.0
C229 C 0.67871 -0.03718 0.43854 0.0
C230 C 0.72464 0.95927 0.49576 0.0
C231 C 0.74593 -0.03704 0.52024 0.0
C232 C 0.46361 0.72488 -0.00773 0.0
C233 C 0.46036 0.74608 0.01767 0.0
C234 C 0.46355 0.70026 0.95966 0.0
C235 C 0.46021 0.67899 0.9348 0.0
C236 C 0.69969 0.46482 0.49024 0.0
C237 C 0.67851 0.46137 0.51568 0.0
C238 C 0.7244 0.4647 0.45804 0.0
C239 C 0.74574 0.4611 0.43384 0.0
C240 C -0.03668 0.22486 0.96237 0.0
C241 C 0.96007 0.24612 0.93721 0.0
C242 C -0.03669 0.20018 -0.0052 0.0
C243 C 0.96004 0.17889 0.01969 0.0
C244 C 0.22455 -0.03627 0.49595 0.0
C245 C 0.24586 0.96028 0.52053 0.0
C246 C 0.19988 -0.03622 0.46355 0.0
C247 C 0.17867 0.96042 0.43821 0.0
C248 C 0.46156 0.20043 0.95949 0.0
C249 C 0.4649 0.17912 0.93483 0.0
C250 C 0.46151 0.22508 -0.00806 0.0
C251 C 0.46475 0.24628 0.01735 0.0
C252 C 0.22538 0.46027 0.46485 0.0
C253 C 0.24656 0.46365 0.43936 0.0
C254 C 0.20068 0.46042 0.49711 0.0
C255 C 0.17934 0.46405 0.52134 0.0
C256 C 0.0383 0.55588 0.87757 0.0
C257 C 0.02546 0.56678 0.92265 0.0
C258 C 0.05219 0.54201 0.82449 0.0
C259 C 0.06128 0.5291 0.77661 0.0
C260 C 0.88309 0.05162 0.32393 0.0
C261 C 0.89605 0.06071 0.27612 0.0
C262 C 0.86918 0.03769 0.3769 0.0
C263 C 0.85824 0.02482 0.42186 0.0
C264 C 0.38722 0.86983 0.87784 0.0
C265 C 0.40003 0.85883 0.92274 0.0
C266 C 0.37327 0.88367 0.82487 0.0
C267 C 0.36411 0.89643 0.77682 0.0
C268 C 0.54164 0.37158 0.32721 0.0
C269 C 0.52877 0.36255 0.27916 0.0
C270 C 0.55551 0.38566 0.37989 0.0
C271 C 0.56646 0.39876 0.42424 0.0
C272 C 0.05329 0.88312 0.12847 0.0
C273 C 0.06229 0.89603 0.17647 0.0
C274 C 0.03923 0.86926 0.07571 0.0
C275 C 0.02614 0.85837 0.03119 0.0
C276 C 0.54067 0.05283 0.62734 0.0
C277 C 0.52804 0.06186 0.67582 0.0
C278 C 0.55467 0.03885 0.57476 0.0
C279 C 0.56602 0.02583 0.53102 0.0
C280 C 0.37264 0.54208 0.13135 0.0
C281 C 0.36353 0.52911 0.17913 0.0
C282 C 0.38664 0.5559 0.07836 0.0
C283 C 0.39958 0.56669 0.0333 0.0
C284 C 0.88306 0.37186 0.62879 0.0
C285 C 0.89601 0.36285 0.67674 0.0
C286 C 0.86916 0.38588 0.57597 0.0
C287 C 0.85825 0.39891 0.53132 0.0
C288 C 0.88649 0.37086 0.07468 0.0
C289 C 0.89949 0.35963 0.03065 0.0
C290 C 0.87247 0.3848 0.12731 0.0
C291 C 0.86337 0.39745 0.17567 0.0
C292 C 0.04134 0.87131 0.62775 0.0
C293 C 0.02854 0.86221 0.67588 0.0
C294 C 0.05518 0.88545 0.57505 0.0
C295 C 0.06615 0.89857 0.5307 0.0
C296 C 0.55233 0.04126 0.1305 0.0
C297 C 0.56155 0.02848 0.17847 0.0
C298 C 0.53827 0.05511 0.07769 0.0
C299 C 0.52538 0.06611 0.03292 0.0
C300 C 0.36949 0.53783 0.57819 0.0
C301 C 0.35866 0.52491 0.53324 0.0
C302 C 0.3833 0.55189 0.63099 0.0
C303 C 0.39619 0.56108 0.67874 0.0
C304 C 0.87343 0.04103 0.82421 0.0
C305 C 0.86408 0.02825 0.77645 0.0
C306 C 0.88758 0.05482 0.87694 0.0
C307 C 0.90047 0.06575 0.92179 0.0
C308 C 0.37009 0.88557 0.38053 0.0
C309 C 0.35892 0.89867 0.42444 0.0
C310 C 0.38403 0.87157 0.32785 0.0
C311 C 0.39676 0.86265 0.27939 0.0
C312 C 0.53789 0.37026 0.87832 0.0
C313 C 0.52498 0.35928 0.92309 0.0
C314 C 0.552 0.38403 0.82547 0.0
C315 C 0.56129 0.39674 0.77745 0.0
C316 C 0.05522 0.53911 0.37997 0.0
C317 C 0.06634 0.52601 0.42409 0.0
C318 C 0.04127 0.5532 0.32739 0.0
C319 C 0.02846 0.56227 0.27922 0.0
C320 C 0.86545 0.54266 0.24577 0.0
C321 C 0.85796 0.52302 0.27377 0.0
C322 C 0.88258 0.55975 0.2109 0.0
C323 C 0.90223 0.56719 0.18283 0.0
C324 C 0.86529 0.88232 0.71102 0.0
C325 C 0.85779 0.90196 0.68299 0.0
C326 C 0.88248 0.86521 0.74548 0.0
C327 C 0.9022 0.85774 0.77314 0.0
C328 C 0.54209 0.86555 0.21191 0.0
C329 C 0.52252 0.85796 0.18376 0.0
C330 C 0.55914 0.88277 0.2464 0.0
C331 C 0.56662 0.90245 0.27413 0.0
C332 C 0.56008 0.54196 0.71315 0.0
C333 C 0.56755 0.52241 0.68467 0.0
C334 C 0.5429 0.55908 0.74765 0.0
C335 C 0.52316 0.56665 0.775 0.0
C336 C 0.05998 0.38307 0.71311 0.0
C337 C 0.06738 0.40269 0.68474 0.0
C338 C 0.04291 0.3658 0.7475 0.0
C339 C 0.02318 0.35813 0.77472 0.0
C340 C 0.04244 0.06006 0.21366 0.0
C341 C 0.02285 0.06754 0.18532 0.0
C342 C 0.05957 0.04281 0.2479 0.0
C343 C 0.06709 0.02301 0.27499 0.0
C344 C 0.3659 0.04171 0.71066 0.0
C345 C 0.35843 0.02213 0.68236 0.0
C346 C 0.38292 0.05887 0.74557 0.0
C347 C 0.4025 0.06648 0.77361 0.0
C348 C 0.38196 0.36538 0.20814 0.0
C349 C 0.40173 0.35777 0.18111 0.0
C350 C 0.36482 0.38266 0.2421 0.0
C351 C 0.35742 0.40231 0.2702 0.0
loop_
_geom_bond_atom_site_label_1
_geom_bond_atom_site_label_2
_geom_bond_distance
_geom_bond_site_symmetry_2
_ccdc_geom_bond_type
C0 O1 1.306 . S
C0 O3 1.160 . S
O1 C0 1.306 . S
O1 Cd2 2.228 1_655 S
Cd2 O1 2.228 1_455 S
Cd2 O6 2.273 . S
Cd2 O10 2.277 . S
O3 C0 1.160 . S
O3 Cd4 2.203 1_655 S
Cd4 O3 2.203 1_455 S
Cd4 O6 2.411 . S
Cd4 O7 2.333 . S
Cd4 O8 2.352 1_455 S
Cd4 O12 2.277 . S
Cd4 O13 2.356 . S
C5 O10 1.209 . S
C5 O12 1.226 . S
O6 Cd2 2.273 . S
O6 Cd4 2.411 . S
O6 C9 1.320 . S
O7 Cd4 2.333 . S
O7 C9 1.214 . S
O8 Cd4 2.352 1_655 S
O8 C11 1.258 1_655 S
C9 O6 1.320 . S
C9 O7 1.214 . S
O10 Cd2 2.277 . S
O10 C5 1.209 . S
C11 O8 1.258 1_455 S
C11 O13 1.282 . S
O12 Cd4 2.277 . S
O12 C5 1.226 . S
O13 Cd4 2.356 . S
O13 C11 1.282 . S
C14 O15 1.306 . S
C14 O17 1.160 . S
O15 C14 1.306 . S
O15 Cd16 2.228 1_565 S
Cd16 O15 2.228 1_545 S
Cd16 O20 2.273 . S
Cd16 O24 2.277 . S
O17 C14 1.160 . S
O17 Cd18 2.203 1_565 S
Cd18 O17 2.203 1_545 S
Cd18 O20 2.411 . S
Cd18 O21 2.333 . S
Cd18 O22 2.352 1_545 S
Cd18 O26 2.277 . S
Cd18 O27 2.356 . S
C19 O24 1.209 . S
C19 O26 1.226 . S
O20 Cd16 2.273 . S
O20 Cd18 2.411 . S
O20 C23 1.320 . S
O21 Cd18 2.333 . S
O21 C23 1.214 . S
O22 Cd18 2.352 1_565 S
O22 C25 1.258 1_565 S
C23 O20 1.320 . S
C23 O21 1.214 . S
O24 Cd16 2.277 . S
O24 C19 1.209 . S
C25 O22 1.258 1_545 S
C25 O27 1.282 . S
O26 Cd18 2.277 . S
O26 C19 1.226 . S
O27 Cd18 2.356 . S
O27 C25 1.282 . S
C28 O29 1.306 . S
C28 O31 1.160 . S
O29 C28 1.306 . S
O29 Cd30 2.228 . S
Cd30 O29 2.228 . S
Cd30 O34 2.273 . S
Cd30 O38 2.277 . S
O31 C28 1.160 . S
O31 Cd32 2.203 . S
Cd32 O31 2.203 . S
Cd32 O34 2.411 . S
Cd32 O35 2.333 . S
Cd32 O36 2.352 . S
Cd32 O40 2.277 . S
Cd32 O41 2.356 . S
C33 O38 1.209 . S
C33 O40 1.226 . S
O34 Cd30 2.273 . S
O34 Cd32 2.411 . S
O34 C37 1.320 . S
O35 Cd32 2.333 . S
O35 C37 1.214 . S
O36 Cd32 2.352 . S
O36 C39 1.258 . S
C37 O34 1.320 . S
C37 O35 1.214 . S
O38 Cd30 2.277 . S
O38 C33 1.209 . S
C39 O36 1.258 . S
C39 O41 1.282 . S
O40 Cd32 2.277 . S
O40 C33 1.226 . S
O41 Cd32 2.356 . S
O41 C39 1.282 . S
C42 O43 1.306 . S
C42 O45 1.160 . S
O43 C42 1.306 . S
O43 Cd44 2.228 . S
Cd44 O43 2.228 . S
Cd44 O48 2.273 . S
Cd44 O52 2.277 . S
O45 C42 1.160 . S
O45 Cd46 2.203 . S
Cd46 O45 2.203 . S
Cd46 O48 2.411 . S
Cd46 O49 2.333 . S
Cd46 O50 2.352 . S
Cd46 O54 2.277 . S
Cd46 O55 2.356 . S
C47 O52 1.209 . S
C47 O54 1.226 . S
O48 Cd44 2.273 . S
O48 Cd46 2.411 . S
O48 C51 1.320 . S
O49 Cd46 2.333 . S
O49 C51 1.214 . S
O50 Cd46 2.352 . S
O50 C53 1.258 . S
C51 O48 1.320 . S
C51 O49 1.214 . S
O52 Cd44 2.277 . S
O52 C47 1.209 . S
C53 O50 1.258 . S
C53 O55 1.282 . S
O54 Cd46 2.277 . S
O54 C47 1.226 . S
O55 Cd46 2.356 . S
O55 C53 1.282 . S
C56 O57 1.306 . S
C56 O59 1.160 . S
O57 C56 1.306 . S
O57 Cd58 2.228 1_655 S
Cd58 O57 2.228 1_455 S
Cd58 O62 2.273 . S
Cd58 O66 2.277 . S
O59 C56 1.160 . S
O59 Cd60 2.203 1_655 S
Cd60 O59 2.203 1_455 S
Cd60 O62 2.411 . S
Cd60 O63 2.333 . S
Cd60 O64 2.352 1_455 S
Cd60 O68 2.277 . S
Cd60 O69 2.356 . S
C61 O66 1.209 . S
C61 O68 1.226 . S
O62 Cd58 2.273 . S
O62 Cd60 2.411 . S
O62 C65 1.320 . S
O63 Cd60 2.333 . S
O63 C65 1.214 . S
O64 Cd60 2.352 1_655 S
O64 C67 1.258 1_655 S
C65 O62 1.320 . S
C65 O63 1.214 . S
O66 Cd58 2.277 . S
O66 C61 1.209 . S
C67 O64 1.258 1_455 S
C67 O69 1.282 . S
O68 Cd60 2.277 . S
O68 C61 1.226 . S
O69 Cd60 2.356 . S
O69 C67 1.282 . S
C70 O71 1.306 . S
C70 O73 1.160 . S
O71 C70 1.306 . S
O71 Cd72 2.228 1_565 S
Cd72 O71 2.228 1_545 S
Cd72 O76 2.273 . S
Cd72 O80 2.277 . S
O73 C70 1.160 . S
O73 Cd74 2.203 1_565 S
Cd74 O73 2.203 1_545 S
Cd74 O76 2.411 . S
Cd74 O77 2.333 . S
Cd74 O78 2.352 1_545 S
Cd74 O82 2.277 . S
Cd74 O83 2.356 . S
C75 O80 1.209 . S
C75 O82 1.226 . S
O76 Cd72 2.273 . S
O76 Cd74 2.411 . S
O76 C79 1.320 . S
O77 Cd74 2.333 . S
O77 C79 1.214 . S
O78 Cd74 2.352 1_565 S
O78 C81 1.258 1_565 S
C79 O76 1.320 . S
C79 O77 1.214 . S
O80 Cd72 2.277 . S
O80 C75 1.209 . S
C81 O78 1.258 1_545 S
C81 O83 1.282 . S
O82 Cd74 2.277 . S
O82 C75 1.226 . S
O83 Cd74 2.356 . S
O83 C81 1.282 . S
C84 O85 1.306 . S
C84 O87 1.160 . S
O85 C84 1.306 . S
O85 Cd86 2.228 . S
Cd86 O85 2.228 . S
Cd86 O90 2.273 . S
Cd86 O94 2.277 . S
O87 C84 1.160 . S
O87 Cd88 2.203 . S
Cd88 O87 2.203 . S
Cd88 O90 2.411 . S
Cd88 O91 2.333 . S
Cd88 O92 2.352 . S
Cd88 O96 2.277 . S
Cd88 O97 2.356 . S
C89 O94 1.209 . S
C89 O96 1.226 . S
O90 Cd86 2.273 . S
O90 Cd88 2.411 . S
O90 C93 1.320 . S
O91 Cd88 2.333 . S
O91 C93 1.214 . S
O92 Cd88 2.352 . S
O92 C95 1.258 . S
C93 O90 1.320 . S
C93 O91 1.214 . S
O94 Cd86 2.277 . S
O94 C89 1.209 . S
C95 O92 1.258 . S
C95 O97 1.282 . S
O96 Cd88 2.277 . S
O96 C89 1.226 . S
O97 Cd88 2.356 . S
O97 C95 1.282 . S
C98 O99 1.306 . S
C98 O101 1.160 . S
O99 C98 1.306 . S
O99 Cd100 2.228 . S
Cd100 O99 2.228 . S
Cd100 O104 2.273 . S
Cd100 O108 2.277 . S
O101 C98 1.160 . S
O101 Cd102 2.203 . S
Cd102 O101 2.203 . S
Cd102 O104 2.411 . S
Cd102 O105 2.333 . S
Cd102 O106 2.352 . S
Cd102 O110 2.277 . S
Cd102 O111 2.356 . S
C103 O108 1.209 . S
C103 O110 1.226 . S
O104 Cd100 2.273 . S
O104 Cd102 2.411 . S
O104 C107 1.320 . S
O105 Cd102 2.333 . S
O105 C107 1.214 . S
O106 Cd102 2.352 . S
O106 C109 1.258 . S
C107 O104 1.320 . S
C107 O105 1.214 . S
O108 Cd100 2.277 . S
O108 C103 1.209 . S
C109 O106 1.258 . S
C109 O111 1.282 . S
O110 Cd102 2.277 . S
O110 C103 1.226 . S
O111 Cd102 2.356 . S
O111 C109 1.282 . S
C112 O113 1.306 . S
C112 O115 1.160 . S
O113 C112 1.306 . S
O113 Cd114 2.228 1_455 S
Cd114 O113 2.228 1_655 S
Cd114 O118 2.273 . S
Cd114 O122 2.277 . S
O115 C112 1.160 . S
O115 Cd116 2.203 1_455 S
Cd116 O115 2.203 1_655 S
Cd116 O118 2.411 . S
Cd116 O119 2.333 . S
Cd116 O120 2.352 1_655 S
Cd116 O124 2.277 . S
Cd116 O125 2.356 . S
C117 O122 1.209 . S
C117 O124 1.226 . S
O118 Cd114 2.273 . S
O118 Cd116 2.411 . S
O118 C121 1.320 . S
O119 Cd116 2.333 . S
O119 C121 1.214 . S
O120 Cd116 2.352 1_455 S
O120 C123 1.258 1_455 S
C121 O118 1.320 . S
C121 O119 1.214 . S
O122 Cd114 2.277 . S
O122 C117 1.209 . S
C123 O120 1.258 1_655 S
C123 O125 1.282 . S
O124 Cd116 2.277 . S
O124 C117 1.226 . S
O125 Cd116 2.356 . S
O125 C123 1.282 . S
C126 O127 1.306 . S
C126 O129 1.160 . S
O127 C126 1.306 . S
O127 Cd128 2.228 1_545 S
Cd128 O127 2.228 1_565 S
Cd128 O132 2.273 . S
Cd128 O136 2.277 . S
O129 C126 1.160 . S
O129 Cd130 2.203 1_545 S
Cd130 O129 2.203 1_565 S
Cd130 O132 2.411 . S
Cd130 O133 2.333 . S
Cd130 O134 2.352 1_565 S
Cd130 O138 2.277 . S
Cd130 O139 2.356 . S
C131 O136 1.209 . S
C131 O138 1.226 . S
O132 Cd128 2.273 . S
O132 Cd130 2.411 . S
O132 C135 1.320 . S
O133 Cd130 2.333 . S
O133 C135 1.214 . S
O134 Cd130 2.352 1_545 S
O134 C137 1.258 1_545 S
C135 O132 1.320 . S
C135 O133 1.214 . S
O136 Cd128 2.277 . S
O136 C131 1.209 . S
C137 O134 1.258 1_565 S
C137 O139 1.282 . S
O138 Cd130 2.277 . S
O138 C131 1.226 . S
O139 Cd130 2.356 . S
O139 C137 1.282 . S
C140 O141 1.306 . S
C140 O143 1.160 . S
O141 C140 1.306 . S
O141 Cd142 2.228 . S
Cd142 O141 2.228 . S
Cd142 O146 2.273 . S
Cd142 O150 2.277 . S
O143 C140 1.160 . S
O143 Cd144 2.203 . S
Cd144 O143 2.203 . S
Cd144 O146 2.411 . S
Cd144 O147 2.333 . S
Cd144 O148 2.352 . S
Cd144 O152 2.277 . S
Cd144 O153 2.356 . S
C145 O150 1.209 . S
C145 O152 1.226 . S
O146 Cd142 2.273 . S
O146 Cd144 2.411 . S
O146 C149 1.320 . S
O147 Cd144 2.333 . S
O147 C149 1.214 . S
O148 Cd144 2.352 . S
O148 C151 1.258 . S
C149 O146 1.320 . S
C149 O147 1.214 . S
O150 Cd142 2.277 . S
O150 C145 1.209 . S
C151 O148 1.258 . S
C151 O153 1.282 . S
O152 Cd144 2.277 . S
O152 C145 1.226 . S
O153 Cd144 2.356 . S
O153 C151 1.282 . S
C154 O155 1.306 . S
C154 O157 1.160 . S
O155 C154 1.306 . S
O155 Cd156 2.228 . S
Cd156 O155 2.228 . S
Cd156 O160 2.273 . S
Cd156 O164 2.277 . S
O157 C154 1.160 . S
O157 Cd158 2.203 . S
Cd158 O157 2.203 . S
Cd158 O160 2.411 . S
Cd158 O161 2.333 . S
Cd158 O162 2.352 . S
Cd158 O166 2.277 . S
Cd158 O167 2.356 . S
C159 O164 1.209 . S
C159 O166 1.226 . S
O160 Cd156 2.273 . S
O160 Cd158 2.411 . S
O160 C163 1.320 . S
O161 Cd158 2.333 . S
O161 C163 1.214 . S
O162 Cd158 2.352 . S
O162 C165 1.258 . S
C163 O160 1.320 . S
C163 O161 1.214 . S
O164 Cd156 2.277 . S
O164 C159 1.209 . S
C165 O162 1.258 . S
C165 O167 1.282 . S
O166 Cd158 2.277 . S
O166 C159 1.226 . S
O167 Cd158 2.356 . S
O167 C165 1.282 . S
C168 O169 1.306 . S
C168 O171 1.160 . S
O169 C168 1.306 . S
O169 Cd170 2.228 1_455 S
Cd170 O169 2.228 1_655 S
Cd170 O174 2.273 . S
Cd170 O178 2.277 . S
O171 C168 1.160 . S
O171 Cd172 2.203 1_455 S
Cd172 O171 2.203 1_655 S
Cd172 O174 2.411 . S
Cd172 O175 2.333 . S
Cd172 O176 2.352 1_655 S
Cd172 O180 2.277 . S
Cd172 O181 2.356 . S
C173 O178 1.209 . S
C173 O180 1.226 . S
O174 Cd170 2.273 . S
O174 Cd172 2.411 . S
O174 C177 1.320 . S
O175 Cd172 2.333 . S
O175 C177 1.214 . S
O176 Cd172 2.352 1_455 S
O176 C179 1.258 1_455 S
C177 O174 1.320 . S
C177 O175 1.214 . S
O178 Cd170 2.277 . S
O178 C173 1.209 . S
C179 O176 1.258 1_655 S
C179 O181 1.282 . S
O180 Cd172 2.277 . S
O180 C173 1.226 . S
O181 Cd172 2.356 . S
O181 C179 1.282 . S
C182 O183 1.306 . S
C182 O185 1.160 . S
O183 C182 1.306 . S
O183 Cd184 2.228 1_545 S
Cd184 O183 2.228 1_565 S
Cd184 O188 2.273 . S
Cd184 O192 2.277 . S
O185 C182 1.160 . S
O185 Cd186 2.203 1_545 S
Cd186 O185 2.203 1_565 S
Cd186 O188 2.411 . S
Cd186 O189 2.333 . S
Cd186 O190 2.352 1_565 S
Cd186 O194 2.277 . S
Cd186 O195 2.356 . S
C187 O192 1.209 . S
C187 O194 1.226 . S
O188 Cd184 2.273 . S
O188 Cd186 2.411 . S
O188 C191 1.320 . S
O189 Cd186 2.333 . S
O189 C191 1.214 . S
O190 Cd186 2.352 1_545 S
O190 C193 1.258 1_545 S
C191 O188 1.320 . S
C191 O189 1.214 . S
O192 Cd184 2.277 . S
O192 C187 1.209 . S
C193 O190 1.258 1_565 S
C193 O195 1.282 . S
O194 Cd186 2.277 . S
O194 C187 1.226 . S
O195 Cd186 2.356 . S
O195 C193 1.282 . S
C196 O197 1.306 . S
C196 O199 1.160 . S
O197 C196 1.306 . S
O197 Cd198 2.228 . S
Cd198 O197 2.228 . S
Cd198 O202 2.273 . S
Cd198 O206 2.277 . S
O199 C196 1.160 . S
O199 Cd200 2.203 . S
Cd200 O199 2.203 . S
Cd200 O202 2.411 . S
Cd200 O203 2.333 . S
Cd200 O204 2.352 . S
Cd200 O208 2.277 . S
Cd200 O209 2.356 . S
C201 O206 1.209 . S
C201 O208 1.226 . S
O202 Cd198 2.273 . S
O202 Cd200 2.411 . S
O202 C205 1.320 . S
O203 Cd200 2.333 . S
O203 C205 1.214 . S
O204 Cd200 2.352 . S
O204 C207 1.258 . S
C205 O202 1.320 . S
C205 O203 1.214 . S
O206 Cd198 2.277 . S
O206 C201 1.209 . S
C207 O204 1.258 . S
C207 O209 1.282 . S
O208 Cd200 2.277 . S
O208 C201 1.226 . S
O209 Cd200 2.356 . S
O209 C207 1.282 . S
C210 O211 1.306 . S
C210 O213 1.160 . S
O211 C210 1.306 . S
O211 Cd212 2.228 . S
Cd212 O211 2.228 . S
Cd212 O216 2.273 . S
Cd212 O220 2.277 . S
O213 C210 1.160 . S
O213 Cd214 2.203 . S
Cd214 O213 2.203 . S
Cd214 O216 2.411 . S
Cd214 O217 2.333 . S
Cd214 O218 2.352 . S
Cd214 O222 2.277 . S
Cd214 O223 2.356 . S
C215 O220 1.209 . S
C215 O222 1.226 . S
O216 Cd212 2.273 . S
O216 Cd214 2.411 . S
O216 C219 1.320 . S
O217 Cd214 2.333 . S
O217 C219 1.214 . S
O218 Cd214 2.352 . S
O218 C221 1.258 . S
C219 O216 1.320 . S
C219 O217 1.214 . S
O220 Cd212 2.277 . S
O220 C215 1.209 . S
C221 O218 1.258 . S
C221 O223 1.282 . S
O222 Cd214 2.277 . S
O222 C215 1.226 . S
O223 Cd214 2.356 . S
O223 C221 1.282 . S
C224 C225 1.172 . S
C224 C226 1.380 1_554 S
C225 C224 1.172 . S
C226 C224 1.380 1_556 S
C226 C227 1.170 . S
C227 C226 1.170 . S
C228 C229 1.170 . S
C228 C230 1.380 . S
C229 C228 1.170 . S
C230 C228 1.380 . S
C230 C231 1.170 . S
C231 C230 1.170 . S
C232 C233 1.170 . S
C232 C234 1.380 1_554 S
C233 C232 1.170 . S
C234 C232 1.380 1_556 S
C234 C235 1.170 . S
C235 C234 1.170 . S
C236 C237 1.170 . S
C236 C238 1.380 . S
C237 C236 1.170 . S
C238 C236 1.380 . S
C238 C239 1.170 . S
C239 C238 1.170 . S
C240 C241 1.170 . S
C240 C242 1.380 1_556 S
C241 C240 1.170 . S
C242 C240 1.380 1_554 S
C242 C243 1.170 . S
C243 C242 1.170 . S
C244 C245 1.172 . S
C244 C246 1.380 . S
C245 C244 1.172 . S
C246 C244 1.380 . S
C246 C247 1.170 . S
C247 C246 1.170 . S
C248 C249 1.170 . S
C248 C250 1.380 1_556 S
C249 C248 1.170 . S
C250 C248 1.380 1_554 S
C250 C251 1.170 . S
C251 C250 1.170 . S
C252 C253 1.170 . S
C252 C254 1.380 . S
C253 C252 1.170 . S
C254 C252 1.380 . S
C254 C255 1.170 . S
C255 C254 1.170 . S
C256 C257 1.170 . S
C256 C258 1.380 . S
C257 C256 1.170 . S
C258 C256 1.380 . S
C258 C259 1.170 . S
C259 C258 1.170 . S
C260 C261 1.170 . S
C260 C262 1.380 . S
C261 C260 1.170 . S
C262 C260 1.380 . S
C262 C263 1.170 . S
C263 C262 1.170 . S
C264 C265 1.170 . S
C264 C266 1.380 . S
C265 C264 1.170 . S
C266 C264 1.380 . S
C266 C267 1.170 . S
C267 C266 1.170 . S
C268 C269 1.170 . S
C268 C270 1.380 . S
C269 C268 1.170 . S
C270 C268 1.380 . S
C270 C271 1.170 . S
C271 C270 1.170 . S
C272 C273 1.170 . S
C272 C274 1.380 . S
C273 C272 1.170 . S
C274 C272 1.380 . S
C274 C275 1.170 . S
C275 C274 1.170 . S
C276 C277 1.170 . S
C276 C278 1.380 . S
C277 C276 1.170 . S
C278 C276 1.380 . S
C278 C279 1.170 . S
C279 C278 1.170 . S
C280 C281 1.170 . S
C280 C282 1.380 . S
C281 C280 1.170 . S
C282 C280 1.380 . S
C282 C283 1.170 . S
C283 C282 1.170 . S
C284 C285 1.170 . S
C284 C286 1.380 . S
C285 C284 1.170 . S
C286 C284 1.380 . S
C286 C287 1.170 . S
C287 C286 1.170 . S
C288 C289 1.170 . S
C288 C290 1.380 . S
C289 C288 1.170 . S
C290 C288 1.380 . S
C290 C291 1.170 . S
C291 C290 1.170 . S
C292 C293 1.170 . S
C292 C294 1.380 . S
C293 C292 1.170 . S
C294 C292 1.380 . S
C294 C295 1.170 . S
C295 C294 1.170 . S
C296 C297 1.170 . S
C296 C298 1.380 . S
C297 C296 1.170 . S
C298 C296 1.380 . S
C298 C299 1.170 . S
C299 C298 1.170 . S
C300 C301 1.170 . S
C300 C302 1.380 . S
C301 C300 1.170 . S
C302 C300 1.380 . S
C302 C303 1.170 . S
C303 C302 1.170 . S
C304 C305 1.170 . S
C304 C306 1.380 . S
C305 C304 1.170 . S
C306 C304 1.380 . S
C306 C307 1.170 . S
C307 C306 1.170 . S
C308 C309 1.170 . S
C308 C310 1.380 . S
C309 C308 1.170 . S
C310 C308 1.380 . S
C310 C311 1.170 . S
C311 C310 1.170 . S
C312 C313 1.170 . S
C312 C314 1.380 . S
C313 C312 1.170 . S
C314 C312 1.380 . S
C314 C315 1.170 . S
C315 C314 1.170 . S
C316 C317 1.170 . S
C316 C318 1.380 . S
C317 C316 1.170 . S
C318 C316 1.380 . S
C318 C319 1.170 . S
C319 C318 1.170 . S
C320 C321 1.170 . S
C320 C322 1.380 . S
C321 C320 1.170 . S
C322 C320 1.380 . S
C322 C323 1.170 . S
C323 C322 1.170 . S
C324 C325 1.170 . S
C324 C326 1.380 . S
C325 C324 1.170 . S
C326 C324 1.380 . S
C326 C327 1.170 . S
C327 C326 1.170 . S
C328 C329 1.170 . S
C328 C330 1.380 . S
C329 C328 1.170 . S
C330 C328 1.380 . S
C330 C331 1.170 . S
C331 C330 1.170 . S
C332 C333 1.170 . S
C332 C334 1.380 . S
C333 C332 1.170 . S
C334 C332 1.380 . S
C334 C335 1.170 . S
C335 C334 1.170 . S
C336 C337 1.170 . S
C336 C338 1.380 . S
C337 C336 1.170 . S
C338 C336 1.380 . S
C338 C339 1.170 . S
C339 C338 1.170 . S
C340 C341 1.170 . S
C340 C342 1.380 . S
C341 C340 1.170 . S
C342 C340 1.380 . S
C342 C343 1.170 . S
C343 C342 1.170 . S
C344 C345 1.170 . S
C344 C346 1.380 . S
C345 C344 1.170 . S
C346 C344 1.380 . S
C346 C347 1.170 . S
C347 C346 1.170 . S
C348 C349 1.170 . S
C348 C350 1.380 . S
C349 C348 1.170 . S
C350 C348 1.380 . S
C350 C351 1.170 . S
C351 C350 1.170 . S
C225 C11 1.193 1_655 S
C227 C67 1.198 1_655 S
C229 C81 1.201 1_565 S
C231 C25 1.201 1_565 S
C233 C39 1.174 . S
C235 C95 1.175 . S
C237 C53 1.190 . S
C239 C109 1.191 . S
C241 C123 1.175 . S
C243 C179 1.178 . S
C245 C193 1.190 . S
C247 C137 1.174 . S
C249 C151 1.183 . S
C251 C207 1.174 . S
C253 C165 1.179 . S
C255 C221 1.196 . S
C257 C9 1.489 1_556 S
C259 C215 1.479 . S
C261 C173 1.476 . S
C263 C23 1.490 . S
C265 C37 1.491 1_556 S
C267 C187 1.472 . S
C269 C201 1.488 . S
C271 C51 1.485 . S
C273 C131 1.487 . S
C275 C65 1.486 1_554 S
C277 C145 1.482 . S
C279 C79 1.488 . S
C281 C159 1.479 . S
C283 C93 1.489 1_554 S
C285 C117 1.486 . S
C287 C107 1.486 . S
C289 C121 1.487 1_554 S
C291 C103 1.475 . S
C293 C61 1.487 . S
C295 C135 1.486 . S
C297 C75 1.475 . S
C299 C149 1.491 1_554 S
C301 C163 1.491 . S
C303 C89 1.481 . S
C305 C19 1.475 . S
C307 C177 1.491 1_556 S
C309 C191 1.486 . S
C311 C33 1.482 . S
C313 C205 1.491 1_556 S
C315 C47 1.473 . S
C317 C219 1.486 . S
C319 C5 1.486 . S
C321 C98 1.225 . S
C323 C0 1.227 . S
C325 C14 1.226 . S
C327 C56 1.226 . S
C329 C28 1.181 . S
C331 C70 1.175 . S
C333 C42 1.217 . S
C335 C84 1.209 . S
C337 C210 1.194 . S
C339 C112 1.215 . S
C341 C168 1.208 . S
C343 C126 1.224 . S
C345 C182 1.174 . S
C347 C140 1.179 . S
C349 C196 1.223 . S
C351 C154 1.207 . S
