# Generated by pormake.
# Topology ilc, (8)-cn, num edge types: 1
# Building blocks:
#     Node 0, Type 0, BuildingBlock: HISSIN_clean_sbu_1, # of connection points: 8
#     Node 1, Type 0, BuildingBlock: HISSIN_clean_sbu_1, # of connection points: 8
#     Node 2, Type 0, BuildingBlock: HISSIN_clean_sbu_1, # of connection points: 8
#     Edge 3, Type (0, 0), BuildingBlock: FUNLAD_clean_linker_0, # of connection points: 2
#     Edge 4, Type (0, 0), BuildingBlock: FUNLAD_clean_linker_0, # of connection points: 2
#     Edge 5, Type (0, 0), BuildingBlock: FUNLAD_clean_linker_0, # of connection points: 2
#     Edge 6, Type (0, 0), BuildingBlock: FUNLAD_clean_linker_0, # of connection points: 2
#     Edge 7, Type (0, 0), BuildingBlock: FUNLAD_clean_linker_0, # of connection points: 2
#     Edge 8, Type (0, 0), BuildingBlock: FUNLAD_clean_linker_0, # of connection points: 2
#     Edge 9, Type (0, 0), BuildingBlock: FUNLAD_clean_linker_0, # of connection points: 2
#     Edge 10, Type (0, 0), BuildingBlock: FUNLAD_clean_linker_0, # of connection points: 2
#     Edge 11, Type (0, 0), BuildingBlock: FUNLAD_clean_linker_0, # of connection points: 2
#     Edge 12, Type (0, 0), BuildingBlock: FUNLAD_clean_linker_0, # of connection points: 2
#     Edge 13, Type (0, 0), BuildingBlock: FUNLAD_clean_linker_0, # of connection points: 2
#     Edge 14, Type (0, 0), BuildingBlock: FUNLAD_clean_linker_0, # of connection points: 2
# Relax obj value: 0.152
# Max RMSD: 0.201
# Mean RMSD: 0.201
data_MOF--net-ilc--node1-HISSIN_clean_sbu_1--edge1-FUNLAD_clean_linker_0
_symmetry_space_group_name_H-M    P1
_symmetry_Int_Tables_number       1
_symmetry_cell_setting            triclinic
loop_
_symmetry_equiv_pos_as_xyz
'x, y, z'
_cell_length_a     25.176739
_cell_length_b     35.098214
_cell_length_c     21.764151
_cell_angle_alpha  100.68997
_cell_angle_beta   76.529648
_cell_angle_gamma 141.07453
loop_
_atom_site_label
_atom_site_type_symbol
_atom_site_fract_x
_atom_site_fract_y
_atom_site_fract_z
_atom_type_partial_charge
Eu0 Eu 0.97899 0.97758 0.95313 0.0
C1 C 0.17369 0.09927 0.90496 0.0
O2 O 0.93824 0.90296 0.88753 0.0
C3 C 0.12673 0.01527 0.14044 0.0
C4 C 0.05996 0.94455 0.24336 0.0
C5 C 0.05904 0.99605 0.18476 0.0
C6 C 1.0247 0.96008 0.23607 0.0
C7 C 0.16201 0.99965 0.14863 0.0
C8 C 0.12838 0.96388 0.20038 0.0
Eu9 Eu 0.11913 0.09309 0.05225 0.0
O10 O 0.93071 0.9451 0.05324 0.0
O11 O 0.16325 0.16921 0.1177 0.0
O12 O 0.17562 0.12931 0.95281 0.0
O13 O 0.98218 0.03213 0.09351 0.0
C14 C 0.19548 0.21809 0.09793 0.0
O15 O 0.20675 0.22498 0.03715 0.0
O16 O 0.10467 0.02279 0.04613 0.0
C17 C 0.15926 0.05126 0.08581 0.0
C18 C 0.9517 0.87515 0.89677 0.0
O19 O 0.98543 0.88937 0.94682 0.0
O20 O 0.20098 0.10679 0.09872 0.0
O21 O 0.11528 0.04009 0.90739 0.0
C22 C 0.92044 1.00704 0.92325 0.0
O23 O 0.99491 0.04709 0.94325 0.0
C24 C 0.91807 0.02194 0.86539 0.0
C25 C 0.90894 0.04862 0.75749 0.0
C26 C 0.88888 0.98334 0.81193 0.0
C27 C 0.88247 0.99589 0.75835 0.0
C28 C 0.94195 0.07387 0.86424 0.0
C29 C 0.93869 0.08772 0.80971 0.0
C30 C 0.92684 0.9737 0.09836 0.0
O31 O 0.87492 0.9507 0.92809 0.0
H32 H 0.03639 0.91938 0.28478 0.0
H33 H 0.03339 1.00933 0.17935 0.0
H34 H 0.21465 1.01483 0.11481 0.0
H35 H 0.90582 0.0593 0.71575 0.0
H36 H 0.86941 0.94291 0.81233 0.0
H37 H 0.96305 0.10331 0.90536 0.0
Eu38 Eu 0.69344 0.34039 0.24835 0.0
C39 C 0.88767 0.45278 0.28047 0.0
O40 O 0.65419 0.26726 0.17989 0.0
C41 C 0.81322 0.3372 0.51416 0.0
C42 C 0.75446 0.2686 0.61611 0.0
C43 C 0.73606 0.30696 0.55343 0.0
C44 C 0.70605 0.27198 0.60405 0.0
C45 C 0.86182 0.33394 0.52746 0.0
C46 C 0.83213 0.2992 0.57849 0.0
Eu47 Eu 0.84239 0.4373 0.4229 0.0
O48 O 0.61408 0.29539 0.34302 0.0
O49 O 0.84994 0.49093 0.50401 0.0
O50 O 0.92742 0.48492 0.32999 0.0
O51 O 0.72146 0.38596 0.38797 0.0
C52 C 0.89801 0.54751 0.4961 0.0
O53 O 0.94196 0.57235 0.44026 0.0
O54 O 0.78087 0.34851 0.43032 0.0
C55 C 0.84155 0.36993 0.45775 0.0
C56 C 0.61081 0.21543 0.20244 0.0
O57 O 0.58945 0.20749 0.2639 0.0
O58 O 0.90716 0.42953 0.46008 0.0
O59 O 0.81069 0.39657 0.29205 0.0
C60 C 0.67829 0.39889 0.2158 0.0
O61 O 0.74363 0.41122 0.19269 0.0
C62 C 0.63595 0.39097 0.16971 0.0
C63 C 0.55016 0.37308 0.08473 0.0
C64 C 0.58328 0.33774 0.13302 0.0
C65 C 0.54066 0.32866 0.08971 0.0
C66 C 0.64621 0.43566 0.16327 0.0
C67 C 0.60241 0.42636 0.121 0.0
C68 C 0.64867 0.3274 0.3944 0.0
O69 O 0.62619 0.35814 0.2608 0.0
H70 H 0.73273 0.24338 0.65678 0.0
H71 H 0.69895 0.30997 0.54429 0.0
H72 H 0.92133 0.35719 0.49752 0.0
H73 H 0.52034 0.36801 0.04994 0.0
H74 H 0.5763 0.30377 0.13792 0.0
H75 H 0.68704 0.47691 0.19136 0.0
Eu76 Eu 0.28866 0.64068 0.58333 0.0
C77 C 0.48141 0.75369 0.61744 0.0
O78 O 0.26433 0.57603 0.50854 0.0
C79 C 0.43935 0.65195 0.84528 0.0
C80 C 0.42735 0.60161 0.94154 0.0
C81 C 0.36313 0.61023 0.88796 0.0
C82 C 0.35643 0.58447 0.93614 0.0
C83 C 0.50886 0.66694 0.85057 0.0
C84 C 0.50264 0.64168 0.89883 0.0
Eu85 Eu 0.43965 0.74126 0.76184 0.0
O86 O 0.20996 0.59799 0.67963 0.0
O87 O 0.46204 0.80433 0.83793 0.0
O88 O 0.51987 0.78622 0.66734 0.0
O89 O 0.32143 0.68893 0.72122 0.0
C90 C 0.53545 0.86292 0.83268 0.0
O91 O 0.59492 0.88207 0.78535 0.0
O92 O 0.37383 0.65365 0.78409 0.0
C93 C 0.4442 0.67556 0.79176 0.0
C94 C 0.2316 0.52592 0.52442 0.0
O95 O 0.21068 0.51306 0.58464 0.0
O96 O 0.51348 0.73377 0.77893 0.0
O97 O 0.40609 0.69638 0.62709 0.0
C98 C 0.27522 0.69873 0.54577 0.0
O99 O 0.34756 0.719 0.53711 0.0
C100 C 0.25012 0.69645 0.48928 0.0
C101 C 0.20194 0.69082 0.38132 0.0
C102 C 0.21727 0.65038 0.44405 0.0
C103 C 0.1933 0.64745 0.38969 0.0
C104 C 0.2591 0.74003 0.48 0.0
C105 C 0.23602 0.7377 0.42522 0.0
C106 C 0.2466 0.6312 0.73019 0.0
O107 O 0.21356 0.65021 0.58152 0.0
H108 H 0.42465 0.58375 0.97941 0.0
H109 H 0.30847 0.59692 0.88303 0.0
H110 H 0.56666 0.69702 0.81666 0.0
H111 H 0.18178 0.68818 0.34016 0.0
H112 H 0.21211 0.61768 0.45072 0.0
H113 H 0.285 0.7759 0.51452 0.0
C114 C 0.8825 0.93608 0.67488 0.0
C115 C 0.85044 0.95577 0.70183 0.0
C116 C 0.86641 0.90971 0.61457 0.0
C117 C 0.81896 0.90331 0.58013 0.0
C118 C 0.7801 0.91756 0.60969 0.0
C119 C 0.79544 0.94332 0.67005 0.0
C120 C 0.81966 0.88842 0.51177 0.0
C121 C 0.8238 0.91432 0.46903 0.0
C122 C 0.85792 0.91913 0.40167 0.0
C123 C 0.9157 0.97436 0.3706 0.0
C124 C 0.96552 0.98621 0.31329 0.0
C125 C 0.95732 0.94255 0.28596 0.0
H126 H 0.79617 0.82916 0.39248 0.0
C127 C 0.89194 0.88464 0.31323 0.0
C128 C 0.84275 0.87303 0.37074 0.0
H129 H 0.88255 0.84953 0.29208 0.0
H130 H 0.92472 0.94481 0.69838 0.0
H131 H 0.89628 0.8984 0.59305 0.0
H132 H 0.74102 0.91141 0.58527 0.0
H133 H 0.76775 0.95641 0.69059 0.0
H134 H 0.83333 0.8652 0.49556 0.0
H135 H 0.81885 0.94278 0.48513 0.0
H136 H 0.92738 1.01024 0.39309 0.0
H137 H 1.01485 0.03106 0.29316 0.0
C138 C 0.62135 0.27678 0.68161 0.0
C139 C 0.62791 0.24208 0.64848 0.0
C140 C 0.56259 0.25414 0.73661 0.0
C141 C 0.5092 0.19621 0.75909 0.0
C142 C 0.51042 0.15955 0.72242 0.0
C143 C 0.56892 0.18213 0.66734 0.0
C144 C 0.46719 0.17913 0.82564 0.0
C145 C 0.44577 0.20268 0.85942 0.0
C146 C 0.44716 0.21341 0.92833 0.0
C147 C 0.50852 0.23015 0.9559 0.0
C148 C 0.53291 0.26237 0.01285 0.0
C149 C 0.49573 0.27777 0.04339 0.0
H150 H 0.35498 0.20937 0.94284 0.0
C151 C 0.42561 0.25297 0.02049 0.0
C152 C 0.40264 0.22202 0.96281 0.0
H153 H 0.39361 0.26226 0.04413 0.0
H154 H 0.66657 0.32326 0.66826 0.0
H155 H 0.56472 0.28429 0.764 0.0
H156 H 0.47039 0.11501 0.73878 0.0
H157 H 0.57272 0.15446 0.64224 0.0
H158 H 0.46558 0.15366 0.84968 0.0
H159 H 0.44123 0.22426 0.83524 0.0
H160 H 0.54493 0.22486 0.9304 0.0
H161 H 0.58697 0.28053 0.02904 0.0
C162 C 0.23263 0.55215 1.00733 0.0
C163 C 0.278 0.54225 0.98336 0.0
C164 C 0.17236 0.52221 0.06158 0.0
C165 C 0.15724 0.48247 0.09372 0.0
C166 C 0.19584 0.46784 0.06603 0.0
C167 C 0.25448 0.4966 0.01077 0.0
C168 C 0.11991 0.46835 0.16152 0.0
C169 C 0.07157 0.473 0.18852 0.0
C170 C 0.1012 0.51542 0.24194 0.0
C171 C 0.16084 0.57641 0.22792 0.0
C172 C 0.1918 0.61896 0.27601 0.0
C173 C 0.16304 0.60144 0.33955 0.0
H174 H 0.02823 0.45037 0.31646 0.0
C175 C 0.10459 0.5403 0.3538 0.0
C176 C 0.07383 0.49736 0.30503 0.0
H177 H 0.08142 0.52557 0.40239 0.0
H178 H 0.24853 0.58671 0.98769 0.0
H179 H 0.14464 0.53526 0.08124 0.0
H180 H 0.18506 0.43721 0.08946 0.0
H181 H 0.28551 0.48585 0.99198 0.0
H182 H 0.15247 0.47172 0.19158 0.0
H183 H 0.03779 0.46836 0.15871 0.0
H184 H 0.1838 0.59135 0.17943 0.0
H185 H 0.23848 0.66583 0.26325 0.0
C186 C 0.29335 0.81443 0.35383 0.0
C187 C 0.24639 0.78314 0.41144 0.0
C188 C 0.28752 0.84609 0.3323 0.0
C189 C 0.23406 0.84691 0.36799 0.0
C190 C 0.1911 0.81851 0.42743 0.0
C191 C 0.19749 0.78715 0.44914 0.0
C192 C 0.21279 0.8696 0.34163 0.0
C193 C 0.25832 0.90636 0.29104 0.0
C194 C 0.22633 0.91981 0.26183 0.0
C195 C 0.28327 0.97738 0.23657 0.0
C196 C 0.25253 0.99129 0.21274 0.0
C197 C 0.16434 0.94739 0.213 0.0
H198 H 0.09368 0.82936 0.27445 0.0
C199 C 0.10848 0.88853 0.23373 0.0
C200 C 0.13894 0.87497 0.25805 0.0
H201 H 0.04039 0.85327 0.23315 0.0
H202 H 0.33084 0.8114 0.32367 0.0
H203 H 0.32065 0.86628 0.28595 0.0
H204 H 0.14913 0.81808 0.45588 0.0
H205 H 0.1597 0.76264 0.49325 0.0
H206 H 0.1547 0.85352 0.3642 0.0
H207 H 0.32056 0.92789 0.27105 0.0
H208 H 0.35111 1.01234 0.23779 0.0
H209 H 0.29717 0.03704 0.19717 0.0
C210 C 0.2496 0.50105 0.41106 0.0
C211 C 0.22167 0.48567 0.47544 0.0
C212 C 0.24274 0.46387 0.36537 0.0
C213 C 0.20766 0.41036 0.38316 0.0
C214 C 0.17819 0.39457 0.44736 0.0
C215 C 0.18555 0.43183 0.49291 0.0
C216 C 0.19828 0.36876 0.33684 0.0
C217 C 0.24407 0.38508 0.27855 0.0
C218 C 0.23399 0.34262 0.23339 0.0
C219 C 0.25911 0.35515 0.16837 0.0
C220 C 0.24819 0.31546 0.12436 0.0
C221 C 0.21267 0.26251 0.14443 0.0
H222 H 0.18435 0.28036 0.30314 0.0
C223 C 0.19066 0.25117 0.2096 0.0
C224 C 0.20131 0.29069 0.25353 0.0
H225 H 0.16408 0.21122 0.22687 0.0
H226 H 0.27719 0.54199 0.39587 0.0
H227 H 0.26393 0.47698 0.31637 0.0
H228 H 0.15017 0.35346 0.4626 0.0
H229 H 0.16334 0.41849 0.54195 0.0
H230 H 0.15193 0.32268 0.35253 0.0
H231 H 0.28992 0.43092 0.26231 0.0
H232 H 0.2858 0.39523 0.15137 0.0
H233 H 0.26667 0.32598 0.07458 0.0
C234 C 0.50206 0.74571 0.49984 0.0
C235 C 0.52144 0.78123 0.55428 0.0
C236 C 0.54784 0.77306 0.44061 0.0
C237 C 0.61364 0.83646 0.43495 0.0
C238 C 0.62975 0.87139 0.48908 0.0
C239 C 0.58462 0.84414 0.54826 0.0
C240 C 0.66732 0.86792 0.3738 0.0
C241 C 0.68739 0.84749 0.32826 0.0
C242 C 0.74736 0.88078 0.26886 0.0
C243 C 0.75137 0.85019 0.2204 0.0
C244 C 0.8087 0.87996 0.16467 0.0
C245 C 0.86385 0.94129 0.15625 0.0
H246 H 0.8048 0.96877 0.2967 0.0
C247 C 0.8603 0.9721 0.20468 0.0
C248 C 0.80297 0.94237 0.26033 0.0
H249 H 0.90269 0.01962 0.20008 0.0
H250 H 0.4534 0.69703 0.50326 0.0
H251 H 0.53176 0.7445 0.39958 0.0
H252 H 0.67951 0.92022 0.48593 0.0
H253 H 0.60041 0.87251 0.5895 0.0
H254 H 0.69451 0.91083 0.36852 0.0
H255 H 0.66052 0.80489 0.33527 0.0
H256 H 0.71023 0.80302 0.22577 0.0
H257 H 0.81032 0.855 0.12852 0.0
C258 C 0.83537 0.23607 0.60838 0.0
C259 C 0.87993 0.29372 0.59495 0.0
C260 C 0.87195 0.23004 0.63791 0.0
C261 C 0.95435 0.28152 0.65438 0.0
C262 C 1.00203 0.33902 0.63626 0.0
C263 C 0.96485 0.3452 0.60696 0.0
C264 C 0.98958 0.27441 0.69033 0.0
C265 C 0.94033 0.23556 0.73925 0.0
C266 C 0.9595 0.21249 0.76803 0.0
C267 C 0.90464 0.17543 0.82174 0.0
C268 C 0.9048 0.13955 0.84069 0.0
C269 C 0.95976 0.14008 0.80606 0.0
H270 H 0.0636 0.24495 0.69578 0.0
C271 C 1.02043 0.18149 0.75638 0.0
C272 C 1.02054 0.2175 0.73749 0.0
H273 H 0.06281 0.18207 0.72863 0.0
H274 H 0.77034 0.19559 0.59863 0.0
H275 H 0.8349 0.18496 0.64913 0.0
H276 H 0.06624 0.37923 0.64762 0.0
H277 H 1.00053 0.39017 0.59713 0.0
H278 H 0.0548 0.29993 0.6752 0.0
H279 H 0.87818 0.21526 0.75595 0.0
H280 H 0.85693 0.17061 0.84622 0.0
H281 H 0.8566 0.10729 0.8785 0.0
C282 C 0.94845 0.64161 0.5399 0.0
C283 C 0.9014 0.58238 0.54912 0.0
C284 C 0.95038 0.67408 0.58975 0.0
C285 C 0.90515 0.64794 0.65001 0.0
C286 C 0.85967 0.58928 0.65943 0.0
C287 C 0.85726 0.55667 0.60952 0.0
C288 C 0.90654 0.68126 0.70448 0.0
C289 C 0.91705 0.72435 0.69791 0.0
C290 C 0.92006 0.75885 0.7518 0.0
C291 C 0.90285 0.78706 0.74347 0.0
C292 C 0.91039 0.82319 0.79129 0.0
C293 C 0.93635 0.83255 0.84845 0.0
H294 H 0.96026 0.74756 0.81751 0.0
C295 C 0.95218 0.80352 0.85736 0.0
C296 C 0.94433 0.76717 0.80958 0.0
H297 H 0.97264 0.80996 0.90073 0.0
H298 H 0.98387 0.663 0.49412 0.0
H299 H 0.98853 0.71993 0.58107 0.0
H300 H 0.82508 0.56832 0.70548 0.0
H301 H 0.82077 0.51128 0.61837 0.0
H302 H 0.89439 0.66754 0.75146 0.0
H303 H 0.92093 0.73368 0.65115 0.0
H304 H 0.88439 0.78172 0.69945 0.0
H305 H 0.89779 0.84493 0.78275 0.0
C306 C 0.61856 0.33227 0.5118 0.0
C307 C 0.60402 0.29828 0.45704 0.0
C308 C 0.56731 0.30321 0.56962 0.0
C309 C 0.50099 0.23961 0.57365 0.0
C310 C 0.49029 0.20628 0.51967 0.0
C311 C 0.54052 0.23517 0.46178 0.0
C312 C 0.44148 0.20632 0.63293 0.0
C313 C 0.41853 0.22587 0.67647 0.0
C314 C 0.35553 0.19203 0.73488 0.0
C315 C 0.34617 0.22123 0.78046 0.0
C316 C 0.28801 0.1916 0.83601 0.0
C317 C 0.23716 0.13172 0.84712 0.0
H318 H 0.3071 0.10657 0.71251 0.0
C319 C 0.24575 0.1022 0.80144 0.0
C320 C 0.30403 0.13181 0.74608 0.0
H321 H 0.20733 0.05595 0.80836 0.0
H322 H 0.66735 0.38104 0.50954 0.0
H323 H 0.57961 0.3306 0.61083 0.0
H324 H 0.44072 0.1574 0.52171 0.0
H325 H 0.52839 0.20789 0.42042 0.0
H326 H 0.41361 0.16323 0.63861 0.0
H327 H 0.44634 0.2687 0.66877 0.0
H328 H 0.38444 0.26742 0.7733 0.0
H329 H 0.28256 0.21552 0.87004 0.0
C330 C 0.6873 0.5258 0.07872 0.0
C331 C 0.61133 0.47176 0.11101 0.0
C332 C 0.6879 0.55984 0.05259 0.0
C333 C 0.61229 0.5401 0.05865 0.0
C334 C 0.53842 0.48856 0.09522 0.0
C335 C 0.53786 0.45472 0.12101 0.0
C336 C 0.60345 0.56617 0.02157 0.0
C337 C 0.66801 0.62059 0.99295 0.0
C338 C 0.64776 0.63797 0.95465 0.0
C339 C 0.66669 0.68774 0.97258 0.0
C340 C 0.62704 0.69404 0.94799 0.0
C341 C 0.5699 0.65144 0.90424 0.0
H342 H 0.58256 0.56063 0.89147 0.0
C343 C 0.55903 0.60591 0.88114 0.0
C344 C 0.59744 0.59909 0.90629 0.0
H345 H 0.51398 0.57194 0.84835 0.0
H346 H 0.74423 0.53907 0.06948 0.0
H347 H 0.74579 0.59888 0.02423 0.0
H348 H 0.4793 0.4723 0.10089 0.0
H349 H 0.47833 0.41285 0.14517 0.0
H350 H 0.53849 0.53788 0.01676 0.0
H351 H 0.73359 0.65307 1.00022 0.0
H352 H 0.70539 0.71822 0.00978 0.0
H353 H 0.63483 0.72871 0.96735 0.0
C354 C 0.48199 0.88837 0.9209 0.0
C355 C 0.54902 0.9073 0.87589 0.0
C356 C 0.49359 0.93086 0.9587 0.0
C357 C 0.57301 0.99342 0.95273 0.0
C358 C 0.64001 1.01204 0.90804 0.0
C359 C 0.62836 0.96964 0.87023 0.0
C360 C 0.58833 0.04088 0.9903 0.0
C361 C 0.53866 0.02992 0.04418 0.0
C362 C 0.55665 0.07812 0.08267 0.0
C363 C 0.52372 0.06762 0.14721 0.0
C364 C 0.54063 0.11194 0.18565 0.0
C365 C 0.58994 0.16772 0.16037 0.0
H366 H 0.62849 0.1426 1.00696 0.0
C367 C 0.62075 0.1777 0.09535 0.0
C368 C 0.60432 0.13341 0.05684 0.0
H369 H 0.65834 0.21998 0.07426 0.0
H370 H 0.41983 0.84075 0.92606 0.0
H371 H 0.43936 0.91423 0.99117 0.0
H372 H 0.70176 0.05975 0.90202 0.0
H373 H 0.68148 0.98595 0.83602 0.0
H374 H 0.64551 0.0873 0.97407 0.0
H375 H 0.48546 0.98453 0.06358 0.0
H376 H 0.48589 0.02529 0.16838 0.0
H377 H 0.51547 0.1025 0.23546 0.0
C378 C 0.23536 0.64197 0.84828 0.0
C379 C 0.20465 0.60443 0.79433 0.0
C380 C 0.1915 0.61728 0.90875 0.0
C381 C 0.11537 0.55432 0.91663 0.0
C382 C 0.08673 0.51669 0.86281 0.0
C383 C 0.13042 0.54142 0.80231 0.0
C384 C 0.0646 0.52616 0.97989 0.0
C385 C 0.06558 0.55576 0.0301 0.0
C386 C 1.01514 0.52789 0.09351 0.0
C387 C 0.04359 0.56598 0.14695 0.0
C388 C 1.00052 0.54174 0.20764 0.0
C389 C 0.92734 0.47878 0.21621 0.0
H390 H 0.91385 0.43395 0.06211 0.0
C391 C 0.89658 0.44065 0.16273 0.0
C392 C 0.93975 0.46487 0.10199 0.0
H393 H 0.84044 0.39189 0.16786 0.0
H394 H 0.29245 0.69067 0.84379 0.0
H395 H 0.21776 0.64777 0.94897 0.0
H396 H 0.02904 0.46799 0.86741 0.0
H397 H 0.10522 0.51118 0.76177 0.0
H398 H 1.02382 0.47892 0.98437 0.0
H399 H 0.10648 0.60302 0.02553 0.0
H400 H 0.10089 0.61469 0.14195 0.0
H401 H 0.02578 0.5723 0.24794 0.0
loop_
_geom_bond_atom_site_label_1
_geom_bond_atom_site_label_2
_geom_bond_distance
_geom_bond_site_symmetry_2
_ccdc_geom_bond_type
Eu0 O2 2.323 . S
Eu0 O10 2.328 1_556 S
Eu0 O21 2.316 1_655 S
Eu0 C22 2.837 . S
Eu0 O23 2.488 . S
Eu0 O31 2.461 . S
C1 O12 1.251 . S
C1 O21 1.237 1_545 S
O2 Eu0 2.323 . S
O2 C18 1.279 . S
C3 C5 1.383 . S
C3 C7 1.388 1_545 S
C3 C17 1.491 . S
C4 C6 1.403 . S
C4 C8 1.385 . S
C4 H32 0.931 . S
C5 C3 1.383 . S
C5 C6 1.393 1_545 S
C5 H33 0.930 . S
C6 C4 1.403 . S
C6 C5 1.393 1_565 S
C7 C3 1.388 1_565 S
C7 C8 1.394 . S
C7 H34 0.930 . S
C8 C4 1.385 . S
C8 C7 1.394 . S
Eu9 O11 2.323 . S
Eu9 O12 2.328 1_554 S
Eu9 O13 2.316 1_455 S
Eu9 O16 2.488 . S
Eu9 C17 2.837 . S
Eu9 O20 2.461 . S
O10 Eu0 2.328 1_554 S
O10 C30 1.251 . S
O11 Eu9 2.323 . S
O11 C14 1.279 . S
O12 C1 1.251 . S
O12 Eu9 2.328 1_556 S
O13 Eu9 2.316 1_655 S
O13 C30 1.237 1_545 S
C14 O11 1.279 . S
C14 O15 1.244 . S
O15 C14 1.244 . S
O16 Eu9 2.488 . S
O16 C17 1.271 . S
C17 C3 1.491 . S
C17 Eu9 2.837 . S
C17 O16 1.271 . S
C17 O20 1.261 . S
C18 O2 1.279 . S
C18 O19 1.244 . S
O19 C18 1.244 . S
O20 Eu9 2.461 . S
O20 C17 1.261 . S
O21 Eu0 2.316 1_455 S
O21 C1 1.237 1_565 S
C22 Eu0 2.837 . S
C22 O23 1.271 . S
C22 C24 1.491 . S
C22 O31 1.261 . S
O23 Eu0 2.488 . S
O23 C22 1.271 . S
C24 C22 1.491 . S
C24 C26 1.383 . S
C24 C28 1.388 1_565 S
C25 C27 1.403 . S
C25 C29 1.385 . S
C25 H35 0.931 . S
C26 C24 1.383 . S
C26 C27 1.393 1_565 S
C26 H36 0.930 . S
C27 C25 1.403 . S
C27 C26 1.393 1_545 S
C28 C24 1.388 1_545 S
C28 C29 1.394 . S
C28 H37 0.930 . S
C29 C25 1.385 . S
C29 C28 1.394 . S
C30 O10 1.251 . S
C30 O13 1.237 1_565 S
O31 Eu0 2.461 . S
O31 C22 1.261 . S
H32 C4 0.931 . S
H33 C5 0.930 . S
H34 C7 0.930 . S
H35 C25 0.931 . S
H36 C26 0.930 . S
H37 C28 0.930 . S
Eu38 O40 2.323 . S
Eu38 O48 2.328 . S
Eu38 O59 2.316 . S
Eu38 C60 2.837 . S
Eu38 O61 2.488 . S
Eu38 O69 2.461 . S
C39 O50 1.251 . S
C39 O59 1.237 . S
O40 Eu38 2.323 . S
O40 C56 1.279 . S
C41 C43 1.383 . S
C41 C45 1.388 . S
C41 C55 1.491 . S
C42 C44 1.403 . S
C42 C46 1.385 . S
C42 H70 0.931 . S
C43 C41 1.383 . S
C43 C44 1.393 . S
C43 H71 0.930 . S
C44 C42 1.403 . S
C44 C43 1.393 . S
C45 C41 1.388 . S
C45 C46 1.394 . S
C45 H72 0.930 . S
C46 C42 1.385 . S
C46 C45 1.394 . S
Eu47 O49 2.323 . S
Eu47 O50 2.328 . S
Eu47 O51 2.316 . S
Eu47 O54 2.488 . S
Eu47 C55 2.837 . S
Eu47 O58 2.461 . S
O48 Eu38 2.328 . S
O48 C68 1.251 . S
O49 Eu47 2.323 . S
O49 C52 1.279 . S
O50 C39 1.251 . S
O50 Eu47 2.328 . S
O51 Eu47 2.316 . S
O51 C68 1.237 . S
C52 O49 1.279 . S
C52 O53 1.244 . S
O53 C52 1.244 . S
O54 Eu47 2.488 . S
O54 C55 1.271 . S
C55 C41 1.491 . S
C55 Eu47 2.837 . S
C55 O54 1.271 . S
C55 O58 1.261 . S
C56 O40 1.279 . S
C56 O57 1.244 . S
O57 C56 1.244 . S
O58 Eu47 2.461 . S
O58 C55 1.261 . S
O59 Eu38 2.316 . S
O59 C39 1.237 . S
C60 Eu38 2.837 . S
C60 O61 1.271 . S
C60 C62 1.491 . S
C60 O69 1.261 . S
O61 Eu38 2.488 . S
O61 C60 1.271 . S
C62 C60 1.491 . S
C62 C64 1.383 . S
C62 C66 1.388 . S
C63 C65 1.403 . S
C63 C67 1.385 . S
C63 H73 0.931 . S
C64 C62 1.383 . S
C64 C65 1.393 . S
C64 H74 0.930 . S
C65 C63 1.403 . S
C65 C64 1.393 . S
C66 C62 1.388 . S
C66 C67 1.394 . S
C66 H75 0.930 . S
C67 C63 1.385 . S
C67 C66 1.394 . S
C68 O48 1.251 . S
C68 O51 1.237 . S
O69 Eu38 2.461 . S
O69 C60 1.261 . S
H70 C42 0.931 . S
H71 C43 0.930 . S
H72 C45 0.930 . S
H73 C63 0.931 . S
H74 C64 0.930 . S
H75 C66 0.930 . S
Eu76 O78 2.323 . S
Eu76 O86 2.328 . S
Eu76 O97 2.316 . S
Eu76 C98 2.837 . S
Eu76 O99 2.488 . S
Eu76 O107 2.461 . S
C77 O88 1.251 . S
C77 O97 1.237 . S
O78 Eu76 2.323 . S
O78 C94 1.279 . S
C79 C81 1.383 . S
C79 C83 1.388 . S
C79 C93 1.491 . S
C80 C82 1.403 . S
C80 C84 1.385 . S
C80 H108 0.931 . S
C81 C79 1.383 . S
C81 C82 1.393 . S
C81 H109 0.930 . S
C82 C80 1.403 . S
C82 C81 1.393 . S
C83 C79 1.388 . S
C83 C84 1.394 . S
C83 H110 0.930 . S
C84 C80 1.385 . S
C84 C83 1.394 . S
Eu85 O87 2.323 . S
Eu85 O88 2.328 . S
Eu85 O89 2.316 . S
Eu85 O92 2.488 . S
Eu85 C93 2.837 . S
Eu85 O96 2.461 . S
O86 Eu76 2.328 . S
O86 C106 1.251 . S
O87 Eu85 2.323 . S
O87 C90 1.279 . S
O88 C77 1.251 . S
O88 Eu85 2.328 . S
O89 Eu85 2.316 . S
O89 C106 1.237 . S
C90 O87 1.279 . S
C90 O91 1.244 . S
O91 C90 1.244 . S
O92 Eu85 2.488 . S
O92 C93 1.271 . S
C93 C79 1.491 . S
C93 Eu85 2.837 . S
C93 O92 1.271 . S
C93 O96 1.261 . S
C94 O78 1.279 . S
C94 O95 1.244 . S
O95 C94 1.244 . S
O96 Eu85 2.461 . S
O96 C93 1.261 . S
O97 Eu76 2.316 . S
O97 C77 1.237 . S
C98 Eu76 2.837 . S
C98 O99 1.271 . S
C98 C100 1.491 . S
C98 O107 1.261 . S
O99 Eu76 2.488 . S
O99 C98 1.271 . S
C100 C98 1.491 . S
C100 C102 1.383 . S
C100 C104 1.388 . S
C101 C103 1.403 . S
C101 C105 1.385 . S
C101 H111 0.931 . S
C102 C100 1.383 . S
C102 C103 1.393 . S
C102 H112 0.930 . S
C103 C101 1.403 . S
C103 C102 1.393 . S
C104 C100 1.388 . S
C104 C105 1.394 . S
C104 H113 0.930 . S
C105 C101 1.385 . S
C105 C104 1.394 . S
C106 O86 1.251 . S
C106 O89 1.237 . S
O107 Eu76 2.461 . S
O107 C98 1.261 . S
H108 C80 0.931 . S
H109 C81 0.930 . S
H110 C83 0.930 . S
H111 C101 0.931 . S
H112 C102 0.930 . S
H113 C104 0.930 . S
C114 C115 1.386 . S
C114 C116 1.383 . S
C114 H130 0.951 1_655 S
C115 C114 1.386 . S
C115 C119 1.383 1_545 S
C116 C114 1.383 . S
C116 C117 1.402 1_545 S
C116 H131 0.951 1_655 S
C117 C116 1.402 1_565 S
C117 C118 1.375 . S
C117 C120 1.481 . S
C118 C117 1.375 . S
C118 C119 1.367 . S
C118 H132 0.951 . S
C119 C115 1.383 1_565 S
C119 C118 1.367 . S
C119 H133 0.950 . S
C120 C117 1.481 . S
C120 C121 1.297 1_655 S
C120 H134 0.950 . S
C121 C120 1.297 1_455 S
C121 C122 1.479 . S
C121 H135 0.950 . S
C122 C121 1.479 . S
C122 C123 1.375 . S
C122 C128 1.404 1_455 S
C123 C122 1.375 . S
C123 C124 1.369 1_565 S
C123 H136 0.951 1_565 S
C124 C123 1.369 1_545 S
C124 C125 1.392 1_545 S
C124 H137 0.951 . S
C125 C124 1.392 1_565 S
C125 C127 1.384 . S
H126 C128 0.949 . S
C127 C125 1.384 . S
C127 C128 1.385 1_455 S
C127 H129 0.950 1_455 S
C128 C122 1.404 1_655 S
C128 H126 0.949 . S
C128 C127 1.385 1_655 S
H129 C127 0.950 1_655 S
H130 C114 0.951 1_455 S
H131 C116 0.951 1_455 S
H132 C118 0.951 . S
H133 C119 0.950 . S
H134 C120 0.950 . S
H135 C121 0.950 . S
H136 C123 0.951 1_545 S
H137 C124 0.951 . S
C138 C139 1.386 . S
C138 C140 1.383 . S
C138 H154 0.951 . S
C139 C138 1.386 . S
C139 C143 1.383 . S
C140 C138 1.383 . S
C140 C141 1.402 . S
C140 H155 0.951 . S
C141 C140 1.402 . S
C141 C142 1.375 . S
C141 C144 1.481 . S
C142 C141 1.375 . S
C142 C143 1.367 . S
C142 H156 0.951 . S
C143 C139 1.383 . S
C143 C142 1.367 . S
C143 H157 0.950 . S
C144 C141 1.481 . S
C144 C145 1.297 . S
C144 H158 0.950 . S
C145 C144 1.297 . S
C145 C146 1.479 . S
C145 H159 0.950 . S
C146 C145 1.479 . S
C146 C147 1.375 . S
C146 C152 1.404 . S
C147 C146 1.375 . S
C147 C148 1.369 1_556 S
C147 H160 0.950 . S
C148 C147 1.369 1_554 S
C148 C149 1.392 . S
C148 H161 0.951 . S
C149 C148 1.392 . S
C149 C151 1.384 . S
H150 C152 0.949 . S
C151 C149 1.384 . S
C151 C152 1.385 1_554 S
C151 H153 0.950 . S
C152 C146 1.404 . S
C152 H150 0.949 . S
C152 C151 1.385 1_556 S
H153 C151 0.950 . S
H154 C138 0.951 . S
H155 C140 0.951 . S
H156 C142 0.951 . S
H157 C143 0.950 . S
H158 C144 0.950 . S
H159 C145 0.950 . S
H160 C147 0.950 . S
H161 C148 0.951 . S
C162 C163 1.386 . S
C162 C164 1.383 1_556 S
C162 H178 0.951 . S
C163 C162 1.386 . S
C163 C167 1.383 . S
C164 C162 1.383 1_554 S
C164 C165 1.402 . S
C164 H179 0.951 . S
C165 C164 1.402 . S
C165 C166 1.375 . S
C165 C168 1.481 . S
C166 C165 1.375 . S
C166 C167 1.367 1_554 S
C166 H180 0.951 . S
C167 C163 1.383 . S
C167 C166 1.367 1_556 S
C167 H181 0.950 . S
C168 C165 1.481 . S
C168 C169 1.297 . S
C168 H182 0.950 . S
C169 C168 1.297 . S
C169 C170 1.479 . S
C169 H183 0.950 . S
C170 C169 1.479 . S
C170 C171 1.375 . S
C170 C176 1.404 . S
C171 C170 1.375 . S
C171 C172 1.369 . S
C171 H184 0.950 . S
C172 C171 1.369 . S
C172 C173 1.392 . S
C172 H185 0.951 . S
C173 C172 1.392 . S
C173 C175 1.384 . S
H174 C176 0.949 . S
C175 C173 1.384 . S
C175 C176 1.385 . S
C175 H177 0.950 . S
C176 C170 1.404 . S
C176 H174 0.949 . S
C176 C175 1.385 . S
H177 C175 0.950 . S
H178 C162 0.951 . S
H179 C164 0.951 . S
H180 C166 0.951 . S
H181 C167 0.950 . S
H182 C168 0.950 . S
H183 C169 0.950 . S
H184 C171 0.950 . S
H185 C172 0.951 . S
C186 C187 1.386 . S
C186 C188 1.383 . S
C186 H202 0.951 . S
C187 C186 1.386 . S
C187 C191 1.383 . S
C188 C186 1.383 . S
C188 C189 1.402 . S
C188 H203 0.951 . S
C189 C188 1.402 . S
C189 C190 1.375 . S
C189 C192 1.481 . S
C190 C189 1.375 . S
C190 C191 1.367 . S
C190 H204 0.951 . S
C191 C187 1.383 . S
C191 C190 1.367 . S
C191 H205 0.950 . S
C192 C189 1.481 . S
C192 C193 1.297 . S
C192 H206 0.950 . S
C193 C192 1.297 . S
C193 C194 1.479 . S
C193 H207 0.950 . S
C194 C193 1.479 . S
C194 C195 1.375 . S
C194 C200 1.404 . S
C195 C194 1.375 . S
C195 C196 1.369 . S
C195 H208 0.950 . S
C196 C195 1.369 . S
C196 C197 1.392 . S
C196 H209 0.951 . S
C197 C196 1.392 . S
C197 C199 1.384 . S
H198 C200 0.949 . S
C199 C197 1.384 . S
C199 C200 1.385 . S
C199 H201 0.950 . S
C200 C194 1.404 . S
C200 H198 0.949 . S
C200 C199 1.385 . S
H201 C199 0.950 . S
H202 C186 0.951 . S
H203 C188 0.951 . S
H204 C190 0.951 . S
H205 C191 0.950 . S
H206 C192 0.950 . S
H207 C193 0.950 . S
H208 C195 0.950 . S
H209 C196 0.951 . S
C210 C211 1.386 . S
C210 C212 1.383 . S
C210 H226 0.951 . S
C211 C210 1.386 . S
C211 C215 1.383 . S
C212 C210 1.383 . S
C212 C213 1.402 . S
C212 H227 0.951 . S
C213 C212 1.402 . S
C213 C214 1.375 . S
C213 C216 1.481 . S
C214 C213 1.375 . S
C214 C215 1.367 . S
C214 H228 0.951 . S
C215 C211 1.383 . S
C215 C214 1.367 . S
C215 H229 0.950 . S
C216 C213 1.481 . S
C216 C217 1.297 . S
C216 H230 0.950 . S
C217 C216 1.297 . S
C217 C218 1.479 . S
C217 H231 0.950 . S
C218 C217 1.479 . S
C218 C219 1.375 . S
C218 C224 1.404 . S
C219 C218 1.375 . S
C219 C220 1.369 . S
C219 H232 0.950 . S
C220 C219 1.369 . S
C220 C221 1.392 . S
C220 H233 0.951 . S
C221 C220 1.392 . S
C221 C223 1.384 . S
H222 C224 0.949 . S
C223 C221 1.384 . S
C223 C224 1.385 . S
C223 H225 0.950 . S
C224 C218 1.404 . S
C224 H222 0.949 . S
C224 C223 1.385 . S
H225 C223 0.950 . S
H226 C210 0.951 . S
H227 C212 0.951 . S
H228 C214 0.951 . S
H229 C215 0.950 . S
H230 C216 0.950 . S
H231 C217 0.950 . S
H232 C219 0.950 . S
H233 C220 0.951 . S
C234 C235 1.386 . S
C234 C236 1.383 . S
C234 H250 0.951 . S
C235 C234 1.386 . S
C235 C239 1.383 . S
C236 C234 1.383 . S
C236 C237 1.402 . S
C236 H251 0.951 . S
C237 C236 1.402 . S
C237 C238 1.375 . S
C237 C240 1.481 . S
C238 C237 1.375 . S
C238 C239 1.367 . S
C238 H252 0.951 . S
C239 C235 1.383 . S
C239 C238 1.367 . S
C239 H253 0.950 . S
C240 C237 1.481 . S
C240 C241 1.297 . S
C240 H254 0.950 . S
C241 C240 1.297 . S
C241 C242 1.479 . S
C241 H255 0.950 . S
C242 C241 1.479 . S
C242 C243 1.375 . S
C242 C248 1.404 . S
C243 C242 1.375 . S
C243 C244 1.369 . S
C243 H256 0.950 . S
C244 C243 1.369 . S
C244 C245 1.392 . S
C244 H257 0.951 . S
C245 C244 1.392 . S
C245 C247 1.384 . S
H246 C248 0.949 . S
C247 C245 1.384 . S
C247 C248 1.385 . S
C247 H249 0.950 . S
C248 C242 1.404 . S
C248 H246 0.949 . S
C248 C247 1.385 . S
H249 C247 0.950 . S
H250 C234 0.951 . S
H251 C236 0.951 . S
H252 C238 0.951 . S
H253 C239 0.950 . S
H254 C240 0.950 . S
H255 C241 0.950 . S
H256 C243 0.950 . S
H257 C244 0.951 . S
C258 C259 1.386 . S
C258 C260 1.383 . S
C258 H274 0.951 . S
C259 C258 1.386 . S
C259 C263 1.383 . S
C260 C258 1.383 . S
C260 C261 1.402 . S
C260 H275 0.951 . S
C261 C260 1.402 . S
C261 C262 1.375 . S
C261 C264 1.481 . S
C262 C261 1.375 . S
C262 C263 1.367 . S
C262 H276 0.951 . S
C263 C259 1.383 . S
C263 C262 1.367 . S
C263 H277 0.950 . S
C264 C261 1.481 . S
C264 C265 1.297 . S
C264 H278 0.950 . S
C265 C264 1.297 . S
C265 C266 1.479 . S
C265 H279 0.950 . S
C266 C265 1.479 . S
C266 C267 1.375 . S
C266 C272 1.404 . S
C267 C266 1.375 . S
C267 C268 1.369 . S
C267 H280 0.950 . S
C268 C267 1.369 . S
C268 C269 1.392 . S
C268 H281 0.951 . S
C269 C268 1.392 . S
C269 C271 1.384 . S
H270 C272 0.949 . S
C271 C269 1.384 . S
C271 C272 1.385 . S
C271 H273 0.950 . S
C272 C266 1.404 . S
C272 H270 0.949 . S
C272 C271 1.385 . S
H273 C271 0.950 . S
H274 C258 0.951 . S
H275 C260 0.951 . S
H276 C262 0.951 . S
H277 C263 0.950 . S
H278 C264 0.950 . S
H279 C265 0.950 . S
H280 C267 0.950 . S
H281 C268 0.951 . S
C282 C283 1.386 . S
C282 C284 1.383 . S
C282 H298 0.951 . S
C283 C282 1.386 . S
C283 C287 1.383 . S
C284 C282 1.383 . S
C284 C285 1.402 . S
C284 H299 0.951 . S
C285 C284 1.402 . S
C285 C286 1.375 . S
C285 C288 1.481 . S
C286 C285 1.375 . S
C286 C287 1.367 . S
C286 H300 0.951 . S
C287 C283 1.383 . S
C287 C286 1.367 . S
C287 H301 0.950 . S
C288 C285 1.481 . S
C288 C289 1.297 . S
C288 H302 0.950 . S
C289 C288 1.297 . S
C289 C290 1.479 . S
C289 H303 0.950 . S
C290 C289 1.479 . S
C290 C291 1.375 . S
C290 C296 1.404 . S
C291 C290 1.375 . S
C291 C292 1.369 . S
C291 H304 0.950 . S
C292 C291 1.369 . S
C292 C293 1.392 . S
C292 H305 0.951 . S
C293 C292 1.392 . S
C293 C295 1.384 . S
H294 C296 0.949 . S
C295 C293 1.384 . S
C295 C296 1.385 . S
C295 H297 0.950 . S
C296 C290 1.404 . S
C296 H294 0.949 . S
C296 C295 1.385 . S
H297 C295 0.950 . S
H298 C282 0.951 . S
H299 C284 0.951 . S
H300 C286 0.951 . S
H301 C287 0.950 . S
H302 C288 0.950 . S
H303 C289 0.950 . S
H304 C291 0.950 . S
H305 C292 0.951 . S
C306 C307 1.386 . S
C306 C308 1.383 . S
C306 H322 0.951 . S
C307 C306 1.386 . S
C307 C311 1.383 . S
C308 C306 1.383 . S
C308 C309 1.402 . S
C308 H323 0.951 . S
C309 C308 1.402 . S
C309 C310 1.375 . S
C309 C312 1.481 . S
C310 C309 1.375 . S
C310 C311 1.367 . S
C310 H324 0.951 . S
C311 C307 1.383 . S
C311 C310 1.367 . S
C311 H325 0.950 . S
C312 C309 1.481 . S
C312 C313 1.297 . S
C312 H326 0.950 . S
C313 C312 1.297 . S
C313 C314 1.479 . S
C313 H327 0.950 . S
C314 C313 1.479 . S
C314 C315 1.375 . S
C314 C320 1.404 . S
C315 C314 1.375 . S
C315 C316 1.369 . S
C315 H328 0.950 . S
C316 C315 1.369 . S
C316 C317 1.392 . S
C316 H329 0.951 . S
C317 C316 1.392 . S
C317 C319 1.384 . S
H318 C320 0.949 . S
C319 C317 1.384 . S
C319 C320 1.385 . S
C319 H321 0.950 . S
C320 C314 1.404 . S
C320 H318 0.949 . S
C320 C319 1.385 . S
H321 C319 0.950 . S
H322 C306 0.951 . S
H323 C308 0.951 . S
H324 C310 0.951 . S
H325 C311 0.950 . S
H326 C312 0.950 . S
H327 C313 0.950 . S
H328 C315 0.950 . S
H329 C316 0.951 . S
C330 C331 1.386 . S
C330 C332 1.383 . S
C330 H346 0.951 . S
C331 C330 1.386 . S
C331 C335 1.383 . S
C332 C330 1.383 . S
C332 C333 1.402 . S
C332 H347 0.951 . S
C333 C332 1.402 . S
C333 C334 1.375 . S
C333 C336 1.481 . S
C334 C333 1.375 . S
C334 C335 1.367 . S
C334 H348 0.951 . S
C335 C331 1.383 . S
C335 C334 1.367 . S
C335 H349 0.950 . S
C336 C333 1.481 . S
C336 C337 1.297 1_554 S
C336 H350 0.950 . S
C337 C336 1.297 1_556 S
C337 C338 1.479 . S
C337 H351 0.950 . S
C338 C337 1.479 . S
C338 C339 1.375 . S
C338 C344 1.404 . S
C339 C338 1.375 . S
C339 C340 1.369 . S
C339 H352 0.950 . S
C340 C339 1.369 . S
C340 C341 1.392 . S
C340 H353 0.951 . S
C341 C340 1.392 . S
C341 C343 1.384 . S
H342 C344 0.949 . S
C343 C341 1.384 . S
C343 C344 1.385 . S
C343 H345 0.950 . S
C344 C338 1.404 . S
C344 H342 0.949 . S
C344 C343 1.385 . S
H345 C343 0.950 . S
H346 C330 0.951 . S
H347 C332 0.951 . S
H348 C334 0.951 . S
H349 C335 0.950 . S
H350 C336 0.950 . S
H351 C337 0.950 . S
H352 C339 0.950 . S
H353 C340 0.951 . S
C354 C355 1.386 . S
C354 C356 1.383 . S
C354 H370 0.951 . S
C355 C354 1.386 . S
C355 C359 1.383 . S
C356 C354 1.383 . S
C356 C357 1.402 . S
C356 H371 0.951 . S
C357 C356 1.402 . S
C357 C358 1.375 . S
C357 C360 1.481 1_565 S
C358 C357 1.375 . S
C358 C359 1.367 . S
C358 H372 0.951 . S
C359 C355 1.383 . S
C359 C358 1.367 . S
C359 H373 0.950 . S
C360 C357 1.481 1_545 S
C360 C361 1.297 1_556 S
C360 H374 0.950 . S
C361 C360 1.297 1_554 S
C361 C362 1.479 . S
C361 H375 0.951 1_545 S
C362 C361 1.479 . S
C362 C363 1.375 . S
C362 C368 1.404 . S
C363 C362 1.375 . S
C363 C364 1.369 . S
C363 H376 0.950 . S
C364 C363 1.369 . S
C364 C365 1.392 . S
C364 H377 0.951 . S
C365 C364 1.392 . S
C365 C367 1.384 . S
H366 C368 0.949 . S
C367 C365 1.384 . S
C367 C368 1.385 . S
C367 H369 0.950 . S
C368 C362 1.404 . S
C368 H366 0.949 . S
C368 C367 1.385 . S
H369 C367 0.950 . S
H370 C354 0.951 . S
H371 C356 0.951 . S
H372 C358 0.951 . S
H373 C359 0.950 . S
H374 C360 0.950 . S
H375 C361 0.951 1_565 S
H376 C363 0.950 . S
H377 C364 0.951 . S
C378 C379 1.386 . S
C378 C380 1.383 . S
C378 H394 0.951 . S
C379 C378 1.386 . S
C379 C383 1.383 . S
C380 C378 1.383 . S
C380 C381 1.402 . S
C380 H395 0.951 . S
C381 C380 1.402 . S
C381 C382 1.375 . S
C381 C384 1.481 . S
C382 C381 1.375 . S
C382 C383 1.367 . S
C382 H396 0.951 . S
C383 C379 1.383 . S
C383 C382 1.367 . S
C383 H397 0.950 . S
C384 C381 1.481 . S
C384 C385 1.297 1_456 S
C384 H398 0.950 . S
C385 C384 1.297 1_654 S
C385 C386 1.479 . S
C385 H399 0.950 1_554 S
C386 C385 1.479 . S
C386 C387 1.375 . S
C386 C392 1.404 . S
C387 C386 1.375 . S
C387 C388 1.369 . S
C387 H400 0.950 . S
C388 C387 1.369 . S
C388 C389 1.392 . S
C388 H401 0.951 . S
C389 C388 1.392 . S
C389 C391 1.384 . S
H390 C392 0.949 . S
C391 C389 1.384 . S
C391 C392 1.385 . S
C391 H393 0.950 . S
C392 C386 1.404 . S
C392 H390 0.949 . S
C392 C391 1.385 . S
H393 C391 0.950 . S
H394 C378 0.951 . S
H395 C380 0.951 . S
H396 C382 0.951 . S
H397 C383 0.950 . S
H398 C384 0.950 . S
H399 C385 0.950 1_556 S
H400 C387 0.950 . S
H401 C388 0.951 . S
C115 C27 0.537 . S
C125 C6 0.511 . S
C139 C44 0.451 . S
C149 C65 0.580 . S
C163 C82 0.452 . S
C173 C103 0.580 . S
C187 C105 2.501 . S
C197 C8 2.546 . S
C211 C94 1.227 . S
C221 C14 1.148 . S
C235 C77 1.480 . S
C245 C30 1.483 . S
C259 C46 2.550 . S
C269 C29 2.472 . S
C283 C52 1.267 . S
C293 C18 1.174 . S
C307 C68 1.502 . S
C317 C1 1.464 . S
C331 C67 2.512 . S
C341 C84 2.568 . S
C355 C90 1.190 . S
C365 C56 1.291 . S
C379 C106 1.479 . S
C389 C39 1.490 . S
