# Generated by pormake.
# Topology ukl, (4)-cn, num edge types: 1
# Building blocks:
#     Node 0, Type 0, BuildingBlock: ESEHIV_clean_sbu_0, # of connection points: 4
#     Node 1, Type 0, BuildingBlock: ESEHIV_clean_sbu_0, # of connection points: 4
#     Node 2, Type 0, BuildingBlock: ESEHIV_clean_sbu_0, # of connection points: 4
#     Node 3, Type 0, BuildingBlock: ESEHIV_clean_sbu_0, # of connection points: 4
#     Node 4, Type 0, BuildingBlock: ESEHIV_clean_sbu_0, # of connection points: 4
#     Node 5, Type 0, BuildingBlock: ESEHIV_clean_sbu_0, # of connection points: 4
#     Node 6, Type 0, BuildingBlock: ESEHIV_clean_sbu_0, # of connection points: 4
#     Node 7, Type 0, BuildingBlock: ESEHIV_clean_sbu_0, # of connection points: 4
#     Node 8, Type 0, BuildingBlock: ESEHIV_clean_sbu_0, # of connection points: 4
#     Node 9, Type 0, BuildingBlock: ESEHIV_clean_sbu_0, # of connection points: 4
#     Node 10, Type 0, BuildingBlock: ESEHIV_clean_sbu_0, # of connection points: 4
#     Node 11, Type 0, BuildingBlock: ESEHIV_clean_sbu_0, # of connection points: 4
#     Node 12, Type 0, BuildingBlock: ESEHIV_clean_sbu_0, # of connection points: 4
#     Node 13, Type 0, BuildingBlock: ESEHIV_clean_sbu_0, # of connection points: 4
#     Node 14, Type 0, BuildingBlock: ESEHIV_clean_sbu_0, # of connection points: 4
#     Node 15, Type 0, BuildingBlock: ESEHIV_clean_sbu_0, # of connection points: 4
#     Edge 16, Type (0, 0), BuildingBlock: KIFKEQ_clean_linker_1, # of connection points: 2
#     Edge 17, Type (0, 0), BuildingBlock: KIFKEQ_clean_linker_1, # of connection points: 2
#     Edge 18, Type (0, 0), BuildingBlock: KIFKEQ_clean_linker_1, # of connection points: 2
#     Edge 19, Type (0, 0), BuildingBlock: KIFKEQ_clean_linker_1, # of connection points: 2
#     Edge 20, Type (0, 0), BuildingBlock: KIFKEQ_clean_linker_1, # of connection points: 2
#     Edge 21, Type (0, 0), BuildingBlock: KIFKEQ_clean_linker_1, # of connection points: 2
#     Edge 22, Type (0, 0), BuildingBlock: KIFKEQ_clean_linker_1, # of connection points: 2
#     Edge 23, Type (0, 0), BuildingBlock: KIFKEQ_clean_linker_1, # of connection points: 2
#     Edge 24, Type (0, 0), BuildingBlock: KIFKEQ_clean_linker_1, # of connection points: 2
#     Edge 25, Type (0, 0), BuildingBlock: KIFKEQ_clean_linker_1, # of connection points: 2
#     Edge 26, Type (0, 0), BuildingBlock: KIFKEQ_clean_linker_1, # of connection points: 2
#     Edge 27, Type (0, 0), BuildingBlock: KIFKEQ_clean_linker_1, # of connection points: 2
#     Edge 28, Type (0, 0), BuildingBlock: KIFKEQ_clean_linker_1, # of connection points: 2
#     Edge 29, Type (0, 0), BuildingBlock: KIFKEQ_clean_linker_1, # of connection points: 2
#     Edge 30, Type (0, 0), BuildingBlock: KIFKEQ_clean_linker_1, # of connection points: 2
#     Edge 31, Type (0, 0), BuildingBlock: KIFKEQ_clean_linker_1, # of connection points: 2
#     Edge 32, Type (0, 0), BuildingBlock: KIFKEQ_clean_linker_1, # of connection points: 2
#     Edge 33, Type (0, 0), BuildingBlock: KIFKEQ_clean_linker_1, # of connection points: 2
#     Edge 34, Type (0, 0), BuildingBlock: KIFKEQ_clean_linker_1, # of connection points: 2
#     Edge 35, Type (0, 0), BuildingBlock: KIFKEQ_clean_linker_1, # of connection points: 2
#     Edge 36, Type (0, 0), BuildingBlock: KIFKEQ_clean_linker_1, # of connection points: 2
#     Edge 37, Type (0, 0), BuildingBlock: KIFKEQ_clean_linker_1, # of connection points: 2
#     Edge 38, Type (0, 0), BuildingBlock: KIFKEQ_clean_linker_1, # of connection points: 2
#     Edge 39, Type (0, 0), BuildingBlock: KIFKEQ_clean_linker_1, # of connection points: 2
#     Edge 40, Type (0, 0), BuildingBlock: KIFKEQ_clean_linker_1, # of connection points: 2
#     Edge 41, Type (0, 0), BuildingBlock: KIFKEQ_clean_linker_1, # of connection points: 2
#     Edge 42, Type (0, 0), BuildingBlock: KIFKEQ_clean_linker_1, # of connection points: 2
#     Edge 43, Type (0, 0), BuildingBlock: KIFKEQ_clean_linker_1, # of connection points: 2
#     Edge 44, Type (0, 0), BuildingBlock: KIFKEQ_clean_linker_1, # of connection points: 2
#     Edge 45, Type (0, 0), BuildingBlock: KIFKEQ_clean_linker_1, # of connection points: 2
#     Edge 46, Type (0, 0), BuildingBlock: KIFKEQ_clean_linker_1, # of connection points: 2
#     Edge 47, Type (0, 0), BuildingBlock: KIFKEQ_clean_linker_1, # of connection points: 2
# Relax obj value: 0.080
# Max RMSD: 0.169
# Mean RMSD: 0.149
data_MOF--net-ukl--node1-ESEHIV_clean_sbu_0--edge1-KIFKEQ_clean_linker_1
_symmetry_space_group_name_H-M    P1
_symmetry_Int_Tables_number       1
_symmetry_cell_setting            triclinic
loop_
_symmetry_equiv_pos_as_xyz
'x, y, z'
_cell_length_a     34.520892
_cell_length_b     33.124018
_cell_length_c     22.312076
_cell_angle_alpha  89.762797
_cell_angle_beta   89.958296
_cell_angle_gamma 84.782767
loop_
_atom_site_label
_atom_site_type_symbol
_atom_site_fract_x
_atom_site_fract_y
_atom_site_fract_z
_atom_type_partial_charge
Cu0 Cu 0.34017 0.13021 0.01385 0.0
N1 N 0.37036 0.15082 0.07359 0.0
N2 N 0.41483 0.18661 0.11564 0.0
C3 C 0.40301 0.16933 0.065 0.0
C4 C 0.38905 0.1778 0.15814 0.0
C5 C 0.36149 0.15587 0.13192 0.0
O6 O 0.3761 0.0973 0.96182 0.0
C7 C 0.32012 0.21097 0.97152 0.0
O8 O 0.35771 0.2127 0.96496 0.0
H9 H 0.41699 0.17139 0.02187 0.0
H10 H 0.33573 0.14608 0.15293 0.0
N11 N 0.30793 0.09456 0.04952 0.0
N12 N 0.25607 0.06326 0.07811 0.0
C13 C 0.26887 0.0945 0.04666 0.0
C14 C 0.32023 0.06236 0.08354 0.0
C15 C 0.28846 0.04303 0.10118 0.0
C16 C 0.4018 0.1081 0.92554 0.0
O17 O 0.40194 0.14644 0.91049 0.0
H18 H 0.25028 0.1172 0.02273 0.0
H19 H 0.35033 0.05356 0.09459 0.0
O20 O 0.30727 0.1768 0.9826 0.0
H21 H 0.38888 0.18844 0.20388 0.0
H22 H 0.2893 1.01591 0.1285 0.0
Cu23 Cu 0.65214 0.59801 0.28498 0.0
N24 N 0.61718 0.59264 0.34853 0.0
N25 N 0.56439 0.5734 0.39544 0.0
C26 C 0.58613 0.57084 0.34499 0.0
C27 C 0.58266 0.59779 0.43231 0.0
C28 C 0.615 0.60982 0.40314 0.0
O29 O 0.67021 0.54255 0.26054 0.0
C30 C 0.61554 0.66906 0.24745 0.0
O31 O 0.62875 0.67755 0.3007 0.0
H32 H 0.5797 0.55349 0.30583 0.0
H33 H 0.63473 0.63052 0.42017 0.0
N34 N 0.6954 0.62575 0.30585 0.0
N35 N 0.73781 0.67306 0.29945 0.0
C36 C 0.71284 0.65129 0.26945 0.0
C37 C 0.71033 0.63102 0.36054 0.0
C38 C 0.73646 0.66003 0.35682 0.0
C39 C 0.68236 0.51979 0.30424 0.0
O40 O 0.68291 0.53558 0.35804 0.0
H41 H 0.70477 0.65633 0.22297 0.0
H42 H 0.7009 0.61688 0.40096 0.0
O43 O 0.62219 0.63297 0.22762 0.0
H44 H 0.57282 0.60727 0.47656 0.0
H45 H 0.75175 0.67196 0.39414 0.0
Cu46 Cu 0.20197 0.92694 0.50551 0.0
N47 N 0.16935 0.90965 0.56519 0.0
N48 N 0.119 0.87516 0.59051 0.0
C49 C 0.13142 0.9049 0.55607 0.0
C50 C 0.15002 0.86142 0.62392 0.0
C51 C 0.18096 0.88282 0.60836 0.0
O52 O 0.16742 0.95962 0.45004 0.0
C53 C 0.21522 0.84371 0.47525 0.0
O54 O 0.17711 0.84566 0.47264 0.0
H55 H 0.11519 0.91778 0.5181 0.0
H56 H 0.21103 0.87473 0.62018 0.0
N57 N 0.23732 0.96112 0.5373 0.0
N58 N 0.29263 0.98763 0.56193 0.0
C59 C 0.27615 0.95375 0.54561 0.0
C60 C 0.22912 1.00074 0.54932 0.0
C61 C 0.26307 1.01715 0.56435 0.0
C62 C 0.14273 0.94766 0.41305 0.0
O63 O 0.14394 0.90898 0.39983 0.0
H64 H 0.29219 0.92465 0.53755 0.0
H65 H 0.20052 1.01683 0.54562 0.0
O66 O 0.2315 0.8767 0.47898 0.0
H67 H 0.15162 0.83427 0.65131 0.0
H68 H 0.26588 0.04846 0.5759 0.0
Cu69 Cu 0.88831 0.46333 0.79115 0.0
N70 N 0.92261 0.47332 0.8532 0.0
N71 N 0.97778 0.49181 0.89359 0.0
C72 C 0.95412 0.49395 0.84519 0.0
C73 C 0.96009 0.46897 0.9338 0.0
C74 C 0.9262 0.4575 0.90874 0.0
O75 O 0.86912 0.51682 0.75895 0.0
C76 C 0.92867 0.3925 0.76148 0.0
O77 O 0.91688 0.3859 0.81634 0.0
H78 H 0.95997 0.50916 0.80361 0.0
H79 H 0.90683 0.43727 0.92845 0.0
N80 N 0.84702 0.43345 0.81522 0.0
N81 N 0.80684 0.38396 0.81043 0.0
C82 C 0.83221 0.4054 0.78048 0.0
C83 C 0.82992 0.43031 0.86904 0.0
C84 C 0.80509 0.39987 0.86619 0.0
C85 C 0.83391 0.53148 0.76607 0.0
O86 O 0.8085 0.50792 0.78728 0.0
H87 H 0.84112 0.4 0.73451 0.0
H88 H 0.83614 0.44777 0.90818 0.0
O89 O 0.91985 0.42722 0.73756 0.0
H90 H 0.97173 0.45938 0.97707 0.0
H91 H 0.7886 0.38906 0.9032 0.0
Cu92 Cu 0.72396 0.88989 0.91384 0.0
N93 N 0.70211 0.86283 0.9769 0.0
N94 N 0.65541 0.83424 0.02622 0.0
C95 C 0.66406 0.85759 0.97949 0.0
C96 C 0.68958 0.82386 0.05414 0.0
C97 C 0.71849 0.84179 0.02359 0.0
O98 O 0.68028 0.92674 0.88391 0.0
C99 C 0.77185 0.82367 0.87055 0.0
O100 O 0.79263 0.83225 0.91734 0.0
H101 H 0.64332 0.86909 0.9458 0.0
H102 H 0.74928 0.83874 0.0336 0.0
N103 N 0.76497 0.91842 0.94255 0.0
N104 N 0.81998 0.94921 0.95078 0.0
C105 C 0.79717 0.929 0.91409 0.0
C106 C 0.7679 0.93205 -0.00102 0.0
C107 C 0.80151 0.95115 0.0041 0.0
C108 C 0.6641 0.95115 0.92251 0.0
O109 O 0.68087 0.95339 0.97505 0.0
H110 H 0.8037 0.9221 0.86758 0.0
H111 H 0.74716 0.92797 0.03434 0.0
O112 O 0.7416 0.84704 0.85753 0.0
H113 H 0.69345 0.80425 0.09303 0.0
H114 H 0.81206 0.96452 0.04444 0.0
Cu115 Cu 0.40335 0.4843 0.70146 0.0
N116 N 0.41996 0.46537 0.77691 0.0
N117 N 0.44189 0.41915 0.84483 0.0
C118 C 0.43108 0.42606 0.78748 0.0
C119 C 0.43762 0.45562 0.87179 0.0
C120 C 0.4237 0.48414 0.82965 0.0
O121 O 0.37369 0.44019 0.67385 0.0
C122 C 0.46904 0.52218 0.67059 0.0
O123 O 0.45378 0.54709 0.71169 0.0
H124 H 0.43183 0.40293 0.75322 0.0
H125 H 0.41655 0.51604 0.8369 0.0
N126 N 0.37157 0.53383 0.70531 0.0
N127 N 0.33927 0.59325 0.67911 0.0
C128 C 0.36359 0.56123 0.66085 0.0
C129 C 0.35187 0.54932 0.7533 0.0
C130 C 0.33196 0.58571 0.73736 0.0
C131 C 0.34457 0.43371 0.70674 0.0
O132 O 0.33418 0.46013 0.74882 0.0
H133 H 0.3749 0.55744 0.61584 0.0
H134 H 0.35164 0.53499 0.7969 0.0
O135 O 0.45083 0.49181 0.65608 0.0
H136 H 0.44382 0.46107 0.91844 0.0
H137 H 0.31369 0.60524 0.76664 0.0
Cu138 Cu 0.82002 0.16389 0.41795 0.0
N139 N 0.84426 0.19041 0.47894 0.0
N140 N 0.89206 0.21736 0.52773 0.0
C141 C 0.88267 0.1941 0.48147 0.0
C142 C 0.85806 0.22897 0.55538 0.0
C143 C 0.82855 0.21226 0.52507 0.0
O144 O 0.86224 0.12717 0.38329 0.0
C145 C 0.76602 0.22662 0.37474 0.0
O146 O 0.745 0.21407 0.41899 0.0
H147 H 0.90309 0.18144 0.44823 0.0
H148 H 0.79778 0.2165 0.53504 0.0
N149 N 0.78051 0.13505 0.4518 0.0
N150 N 0.72579 0.10429 0.46656 0.0
C151 C 0.7489 0.12115 0.42591 0.0
C152 C 0.7773 0.12655 0.51049 0.0
C153 C 0.74386 0.10778 0.51973 0.0
C154 C 0.87824 0.09968 0.41785 0.0
O155 O 0.86256 0.09474 0.47074 0.0
H156 H 0.74286 0.12389 0.37843 0.0
H157 H 0.79759 0.13418 0.54462 0.0
O158 O 0.79903 0.20749 0.36372 0.0
H159 H 0.85467 0.24856 0.59409 0.0
H160 H 0.73323 0.09859 0.56286 0.0
Cu161 Cu 0.13641 0.57276 0.18649 0.0
N162 N 0.12001 0.58808 0.26347 0.0
N163 N 0.09398 0.63204 0.33127 0.0
C164 C 0.1141 0.62718 0.27969 0.0
C165 C 0.08706 0.59426 0.34868 0.0
C166 C 0.10341 0.56707 0.3068 0.0
O167 O 0.16267 0.61939 0.15859 0.0
C168 C 0.07287 0.53159 0.15421 0.0
O169 O 0.09024 0.50535 0.192 0.0
H170 H 0.12086 0.65198 0.25093 0.0
H171 H 0.10074 0.5348 0.30576 0.0
N172 N 0.16977 0.52465 0.18792 0.0
N173 N 0.19957 0.46443 0.1613 0.0
C174 C 0.17801 0.49832 0.1426 0.0
C175 C 0.1869 0.50697 0.23667 0.0
C176 C 0.20527 0.46995 0.22047 0.0
C177 C 0.19666 0.62403 0.17833 0.0
O178 O 0.2157 0.59385 0.20729 0.0
H179 H 0.16687 0.50309 0.09759 0.0
H180 H 0.18522 0.51968 0.28128 0.0
O181 O 0.08898 0.56386 0.14222 0.0
H182 H 0.06939 0.58705 0.38669 0.0
H183 H 0.22128 0.44858 0.25018 0.0
Cu184 Cu 0.8366 0.63479 0.55023 0.0
N185 N 0.8577 0.66721 0.49269 0.0
N186 N 0.90059 0.71192 0.47115 0.0
C187 C 0.89298 0.67935 0.50391 0.0
C188 C 0.86861 0.72046 0.4368 0.0
C189 C 0.84201 0.69279 0.45041 0.0
O190 O 0.88155 0.5971 0.57217 0.0
C191 C 0.78874 0.69812 0.59362 0.0
O192 O 0.77208 0.69057 0.54246 0.0
H193 H 0.91073 0.6673 0.54093 0.0
H194 H 0.81231 0.69379 0.4348 0.0
N195 N 0.79451 0.60668 0.52466 0.0
N196 N 0.73775 0.57833 0.52864 0.0
C197 C 0.76384 0.5987 0.55892 0.0
C198 C 0.78785 0.59064 0.4708 0.0
C199 C 0.75335 0.57268 0.47338 0.0
C200 C 0.89462 0.5734 0.53031 0.0
O201 O 0.87425 0.57214 0.48083 0.0
H202 H 0.76087 0.60806 0.6052 0.0
H203 H 0.80644 0.59233 0.43201 0.0
O204 O 0.81812 0.67466 0.61053 0.0
H205 H 0.86367 0.74625 0.40697 0.0
H206 H 0.7404 0.55772 0.43648 0.0
Cu207 Cu 0.16175 0.08461 0.76884 0.0
N208 N 0.13521 0.06818 0.83664 0.0
N209 N 0.08571 0.04282 0.88481 0.0
C210 C 0.09621 0.06775 0.84071 0.0
C211 C 0.11949 0.02705 0.90945 0.0
C212 C 0.14986 0.04272 0.87977 0.0
O213 O 0.17629 0.03342 0.72779 0.0
C214 C 0.11923 0.15711 0.75427 0.0
O215 O 0.13572 0.16126 0.80667 0.0
H216 H 0.07619 0.08216 0.80811 0.0
H217 H 0.18045 0.03324 0.88554 0.0
N218 N 0.20552 0.11217 0.78791 0.0
N219 N 0.24556 0.1619 0.78559 0.0
C220 C 0.21775 0.14353 0.75635 0.0
C221 C 0.22678 0.11018 0.83852 0.0
C222 C 0.25147 0.14073 0.83721 0.0
C223 C 0.21119 1.01761 0.72217 0.0
O224 O 0.24008 0.03997 0.73165 0.0
H225 H 0.20441 0.15447 0.71477 0.0
H226 H 0.22329 0.08933 0.87512 0.0
O227 O 0.12569 0.12356 0.72656 0.0
H228 H 0.12224 1.00402 0.94408 0.0
H229 H 0.27127 0.14761 0.87255 0.0
Cu230 Cu 0.70537 0.41876 0.01782 0.0
N231 N 0.67722 0.39936 0.08122 0.0
N232 N 0.63188 0.36671 0.12771 0.0
C233 C 0.64062 0.38858 0.0791 0.0
C234 C 0.66421 0.36428 0.1621 0.0
C235 C 0.69214 0.38424 0.13306 0.0
O236 O 0.66855 0.45093 0.96585 0.0
C237 C 0.72208 0.3368 0.98213 0.0
O238 O 0.68427 0.33527 0.98544 0.0
H239 H 0.62218 0.39324 0.04007 0.0
H240 H 0.7222 0.38477 0.14608 0.0
N241 N 0.7401 0.45347 0.04887 0.0
N242 N 0.79462 0.48254 0.06988 0.0
C243 C 0.77872 0.45296 0.03913 0.0
C244 C 0.73122 0.48418 0.08709 0.0
C245 C 0.76466 0.50214 0.10012 0.0
C246 C 0.64257 0.43832 0.93187 0.0
O247 O 0.64236 0.39927 0.92218 0.0
H248 H 0.7947 0.43135 0.00999 0.0
H249 H 0.70245 0.49253 0.10485 0.0
O250 O 0.73589 0.37111 0.98591 0.0
H251 H 0.66826 0.34726 0.20343 0.0
H252 H 0.76679 0.52703 0.13083 0.0
Cu253 Cu 0.38145 0.96653 0.28975 0.0
N254 N 0.41347 0.97411 0.35586 0.0
N255 N 0.46649 0.99256 0.40295 0.0
C256 C 0.44734 0.99104 0.35033 0.0
C257 C 0.44342 0.97594 0.44347 0.0
C258 C 0.41075 0.96452 0.41429 0.0
O259 O 0.36592 1.02147 0.26082 0.0
C260 C 0.42255 0.89655 0.25785 0.0
O261 O 0.40932 0.88835 0.31136 0.0
H262 H 0.45753 1.00218 0.30804 0.0
H263 H 0.38715 0.94979 0.43418 0.0
N264 N 0.33815 0.93743 0.30628 0.0
N265 N 0.29813 0.88817 0.2947 0.0
C266 C 0.32631 0.90857 0.26979 0.0
C267 C 0.31607 0.936 0.35582 0.0
C268 C 0.29132 0.90573 0.34874 0.0
C269 C 0.33099 0.03724 0.25536 0.0
O270 O 0.30221 1.01402 0.25934 0.0
H271 H 0.33924 0.90187 0.22638 0.0
H272 H 0.31874 0.9545 0.39517 0.0
O273 O 0.41443 0.93199 0.23606 0.0
H274 H 0.45004 0.97136 0.49051 0.0
H275 H 0.27128 0.89618 0.38204 0.0
Cu276 Cu 0.22381 0.3816 0.45143 0.0
N277 N 0.20331 0.34896 0.5093 0.0
N278 N 0.15649 0.31638 0.55184 0.0
C279 C 0.16502 0.34505 0.5123 0.0
C280 C 0.19108 0.30126 0.5747 0.0
C281 C 0.22008 0.32156 0.54827 0.0
O282 O 0.18125 0.42416 0.43811 0.0
C283 C 0.26951 0.32638 0.37727 0.0
O284 O 0.29804 0.3363 0.4115 0.0
H285 H 0.14401 0.36128 0.48293 0.0
H286 H 0.2511 0.31561 0.55508 0.0
N287 N 0.2679 0.4046 0.48029 0.0
N288 N 0.32115 0.43828 0.48573 0.0
C289 C 0.29428 0.42404 0.44924 0.0
C290 C 0.27856 0.40662 0.53811 0.0
C291 C 0.31118 0.42747 0.54156 0.0
C292 C 0.17079 0.44489 0.48452 0.0
O293 O 0.19227 0.43982 0.53301 0.0
H294 H 0.29347 0.42809 0.40107 0.0
H295 H 0.26335 0.39423 0.57534 0.0
O296 O 0.23569 0.34483 0.38383 0.0
H297 H 0.19523 0.27665 0.6068 0.0
H298 H 0.32659 0.43391 0.58194 0.0
Cu299 Cu 0.91146 0.97487 0.1861 0.0
N300 N 0.92694 0.95246 0.2603 0.0
N301 N 0.95258 0.90353 0.32143 0.0
C302 C 0.93764 0.91265 0.26677 0.0
C303 C 0.95111 0.93904 0.35102 0.0
C304 C 0.93508 0.96928 0.31314 0.0
O305 O 0.8808 0.9334 0.15309 0.0
C306 C 0.97975 1.00884 0.17026 0.0
O307 O 0.96502 0.02747 0.21808 0.0
H308 H 0.93663 0.89108 0.2306 0.0
H309 H 0.93139 1.0013 0.32252 0.0
N310 N 0.88181 1.0252 0.19249 0.0
N311 N 0.85335 0.08644 0.16735 0.0
C312 C 0.87255 0.05164 0.14741 0.0
C313 C 0.86775 0.04381 0.24253 0.0
C314 C 0.85031 0.08152 0.22722 0.0
C315 C 0.84779 0.93087 0.17789 0.0
O316 O 0.83434 0.96032 0.21359 0.0
H317 H 0.88073 0.04588 0.10117 0.0
H318 H 0.87011 0.031 0.28713 0.0
O319 O 0.95978 0.98354 0.1441 0.0
H320 H 0.96199 0.94298 0.39589 0.0
H321 H 0.83623 0.10349 0.25783 0.0
Cu322 Cu 0.32871 0.66974 0.90017 0.0
N323 N 0.34949 0.69984 0.96057 0.0
N324 N 0.39459 0.72969 0.0114 0.0
C325 C 0.38753 0.7046 0.96612 0.0
C326 C 0.35941 0.74156 0.03514 0.0
C327 C 0.33154 0.72299 0.00359 0.0
O328 O 0.37225 0.63133 0.87488 0.0
C329 C 0.27752 0.72663 0.83414 0.0
O330 O 0.25018 0.71393 0.86848 0.0
H331 H 0.40948 0.69117 0.93575 0.0
H332 H 0.30042 0.7267 0.01069 0.0
N333 N 0.28798 0.64222 0.93245 0.0
N334 N 0.23503 0.60854 0.94481 0.0
C335 C 0.25819 0.62592 0.905 0.0
C336 C 0.28338 0.63473 0.99125 0.0
C337 C 0.25096 0.61405 -0.00099 0.0
C338 C 0.38774 0.60802 0.91563 0.0
O339 O 0.37115 0.60851 0.96866 0.0
H340 H 0.25364 0.62673 0.85699 0.0
H341 H 0.30233 0.64381 0.02632 0.0
O342 O 0.31207 0.70959 0.83807 0.0
H343 H 0.35414 0.76245 0.07205 0.0
H344 H 0.23949 0.60461 0.04149 0.0
Cu345 Cu 0.62577 0.08066 0.73135 0.0
N346 N 0.60458 0.10239 0.80215 0.0
N347 N 0.57622 0.14914 0.86338 0.0
C348 C 0.58916 0.14092 0.80746 0.0
C349 C 0.58369 0.11454 0.89491 0.0
C350 C 0.60184 0.08578 0.85694 0.0
O351 O 0.65155 0.12632 0.69917 0.0
C352 C 0.56671 0.03311 0.6862 0.0
O353 O 0.58388 1.00455 0.72031 0.0
H354 H 0.58726 0.16256 0.77083 0.0
H355 H 0.61285 0.05527 0.86846 0.0
N356 N 0.66186 0.03602 0.74944 0.0
N357 N 0.69754 0.97614 0.74742 0.0
C358 C 0.66913 1.00044 0.7204 0.0
C359 C 0.68681 0.03392 0.79605 0.0
C360 C 0.70902 0.99716 0.79469 0.0
C361 C 0.68827 0.12802 0.69728 0.0
O362 O 0.71137 0.09461 0.70437 0.0
H363 H 0.65422 0.99252 0.68005 0.0
H364 H 0.68873 0.05765 0.82878 0.0
O365 O 0.5813 0.06709 0.68221 0.0
H366 H 0.57714 0.11066 0.94193 0.0
H367 H 0.73117 0.98627 0.82668 0.0
H368 H 0.62187 0.99763 0.00347 0.0
H369 H 0.61557 0.95136 0.82316 0.0
H370 H 0.55595 0.02948 -0.00544 0.0
H371 H 0.54831 0.98377 0.81506 0.0
H372 H 0.45879 0.11494 0.84032 0.0
H373 H 0.52025 0.07197 0.83001 0.0
H374 H 0.48489 0.99414 0.97132 0.0
H375 H 0.42309 0.03557 0.98016 0.0
C376 C 0.60659 0.99433 0.96166 0.0
C377 C 0.62441 0.9721 0.91378 0.0
C378 C 0.56861 1.01244 0.95688 0.0
C379 C 0.54731 1.00931 0.90394 0.0
C380 C 0.56466 0.98716 0.8558 0.0
C381 C 0.60295 0.9686 0.86063 0.0
C382 C 0.46366 0.08803 0.86803 0.0
C383 C 0.43599 0.07893 0.91132 0.0
C384 C 0.49884 0.06346 0.86206 0.0
C385 C 0.50734 0.02998 0.90027 0.0
C386 C 0.47898 1.01976 0.94131 0.0
C387 C 0.44356 0.0436 0.94627 0.0
H388 H 0.87722 0.85473 0.14021 0.0
H389 H 0.77635 0.91901 0.22206 0.0
H390 H 0.85108 0.79001 0.16453 0.0
H391 H 0.751 0.85486 0.24684 0.0
H392 H 0.75416 0.7394 0.36219 0.0
H393 H 0.78012 0.80024 0.32338 0.0
H394 H 0.78853 0.74773 0.14676 0.0
H395 H 0.76239 0.68623 0.18574 0.0
C396 C 0.84913 0.85516 0.16197 0.0
C397 C 0.82911 0.89213 0.17971 0.0
C398 C 0.83428 0.81811 0.17611 0.0
C399 C 0.7994 0.81746 0.20865 0.0
C400 C 0.7783 0.85442 0.22276 0.0
C401 C 0.79282 0.89121 0.2082 0.0
C402 C 0.76198 0.74037 0.31528 0.0
C403 C 0.75603 0.70782 0.27711 0.0
C404 C 0.77652 0.77548 0.2929 0.0
C405 C 0.78599 0.77889 0.23191 0.0
C406 C 0.78144 0.74592 0.19393 0.0
C407 C 0.76629 0.71087 0.21621 0.0
H408 H 0.08434 0.93452 0.33335 0.0
H409 H 0.12016 1.02289 0.45889 0.0
H410 H 0.02124 0.9742 0.32238 0.0
H411 H 0.05667 0.0615 0.44892 0.0
H412 H 0.91502 0.03698 0.48084 0.0
H413 H 0.9808 1.0049 0.46774 0.0
H414 H 0.9962 0.07971 0.31272 0.0
H415 H 0.92963 0.11235 0.32538 0.0
C416 C 0.07917 0.96273 0.35765 0.0
C417 C 0.10748 0.97526 0.39729 0.0
C418 C 0.04294 0.98537 0.35141 0.0
C419 C 0.03409 1.02078 0.38502 0.0
C420 C 0.06294 0.03449 0.4221 0.0
C421 C 0.09932 1.01224 0.42779 0.0
C422 C 0.93203 0.0465 0.4434 0.0
C423 C 0.91679 0.07738 0.40416 0.0
C424 C 0.9698 0.02809 0.43612 0.0
C425 C 0.99345 0.03971 0.3892 0.0
C426 C 0.97835 0.06995 0.34895 0.0
C427 C 0.94025 0.08853 0.3562 0.0
H428 H 0.64917 0.20282 0.7158 0.0
H429 H 0.76465 0.14367 0.6895 0.0
H430 H 0.67695 0.26609 0.73858 0.0
H431 H 0.79244 0.20668 0.71339 0.0
H432 H 0.83098 0.33374 0.71866 0.0
H433 H 0.80098 0.27475 0.68323 0.0
H434 H 0.71251 0.29345 0.81988 0.0
H435 H 0.74147 0.35388 0.85341 0.0
C436 C 0.68047 0.20341 0.71388 0.0
C437 C 0.70466 0.16798 0.70099 0.0
C438 C 0.69644 0.23965 0.72774 0.0
C439 C 0.73702 0.24152 0.72876 0.0
C440 C 0.76109 0.20658 0.71287 0.0
C441 C 0.74513 0.17031 0.69926 0.0
C442 C 0.80475 0.32588 0.74064 0.0
C443 C 0.78865 0.34899 0.78897 0.0
C444 C 0.78777 0.29155 0.72068 0.0
C445 C 0.75423 0.27914 0.74851 0.0
C446 C 0.73798 0.30233 0.79665 0.0
C447 C 0.75492 0.33677 0.81653 0.0
H448 H 0.26913 0.21878 0.86086 0.0
H449 H 0.25651 0.19138 0.67333 0.0
H450 H 0.29217 0.28384 0.83436 0.0
H451 H 0.27927 0.25727 0.64664 0.0
H452 H 0.36596 0.36402 0.64172 0.0
H453 H 0.34178 0.29699 0.65587 0.0
H454 H 0.25945 0.34769 0.78691 0.0
H455 H 0.2828 0.41395 0.77259 0.0
C456 C 0.27176 0.22634 0.81393 0.0
C457 C 0.26107 0.19964 0.76932 0.0
C458 C 0.28457 0.26391 0.79869 0.0
C459 C 0.28735 0.27584 0.73836 0.0
C460 C 0.27759 0.24887 0.69348 0.0
C461 C 0.26431 0.2113 0.70881 0.0
C462 C 0.34222 0.36093 0.67267 0.0
C463 C 0.32671 0.39439 0.7065 0.0
C464 C 0.32841 0.32256 0.68082 0.0
C465 C 0.29923 0.31692 0.72343 0.0
C466 C 0.28249 0.35082 0.75469 0.0
C467 C 0.29586 0.38895 0.74615 0.0
H468 H 0.22889 0.85941 0.32312 0.0
H469 H 0.33138 0.83457 0.21335 0.0
H470 H 0.2038 0.7973 0.28683 0.0
H471 H 0.30582 0.77351 0.176 0.0
H472 H 0.27166 0.64148 0.19252 0.0
H473 H 0.29506 0.70685 0.2157 0.0
H474 H 0.17838 0.76451 0.19678 0.0
H475 H 0.15491 0.69875 0.1735 0.0
C476 C 0.24599 0.84097 0.29103 0.0
C477 C 0.2822 0.85236 0.27125 0.0
C478 C 0.23138 0.80552 0.26968 0.0
C479 C 0.25272 0.78032 0.22831 0.0
C480 C 0.28868 0.79196 0.20809 0.0
C481 C 0.30318 0.8274 0.22916 0.0
C482 C 0.25108 0.66821 0.19214 0.0
C483 C 0.21142 0.66481 0.18108 0.0
C484 C 0.26452 0.70579 0.2054 0.0
C485 C 0.2386 0.74105 0.20867 0.0
C486 C 0.19909 0.73793 0.19539 0.0
C487 C 0.1857 0.7003 0.1813 0.0
H488 H 0.95834 0.59423 0.59325 0.0
H489 H 0.92206 0.50787 0.46538 0.0
H490 H 0.02606 0.56718 0.57935 0.0
H491 H 0.98915 0.47991 0.45286 0.0
H492 H 0.11513 0.46119 0.39647 0.0
H493 H 0.04912 0.4937 0.40924 0.0
H494 H 0.0722 0.51177 0.59713 0.0
H495 H 0.13802 0.48124 0.5838 0.0
C496 C 0.96473 0.56879 0.56338 0.0
C497 C 0.93479 0.55308 0.53071 0.0
C498 C 1.00362 0.55333 0.55505 0.0
C499 C 1.01344 0.52154 0.51425 0.0
C500 C 0.98311 0.50503 0.48337 0.0
C501 C 0.94446 0.52071 0.49125 0.0
C502 C 0.10621 0.47265 0.44022 0.0
C503 C 0.13197 0.46835 0.48903 0.0
C504 C 0.06818 0.49094 0.44783 0.0
C505 C 0.05486 0.50502 0.50457 0.0
C506 C 0.0812 0.50182 0.55269 0.0
C507 C 0.11914 0.48398 0.54497 0.0
H508 H 0.4387 0.60774 0.81942 0.0
H509 H 0.4238 0.55401 -0.00609 0.0
H510 H 0.50304 0.56902 0.8109 0.0
H511 H 0.48753 0.51656 0.9853 0.0
H512 H 0.62748 0.51848 0.96111 0.0
H513 H 0.56679 0.56139 0.94632 0.0
H514 H 0.51971 0.46619 0.84642 0.0
H515 H 0.5801 0.42246 0.86198 0.0
C516 C 0.44894 0.58773 0.85569 0.0
C517 C 0.4259 0.58392 0.90726 0.0
C518 C 0.48567 0.56568 0.85076 0.0
C519 C 0.49991 0.53989 0.89749 0.0
C520 C 0.47705 0.53625 0.94874 0.0
C521 C 0.44051 0.55777 0.95349 0.0
C522 C 0.60466 0.50683 0.93476 0.0
C523 C 0.60873 0.46676 0.91315 0.0
C524 C 0.56997 0.53156 0.92618 0.0
C525 C 0.53883 0.51708 0.89504 0.0
C526 C 0.5435 0.47807 0.87021 0.0
C527 C 0.57809 0.45309 0.87927 0.0
H528 H 0.20931 0.38696 0.20149 0.0
H529 H 0.21797 0.46052 0.04278 0.0
H530 H 0.23306 0.32685 0.1454 0.0
H531 H 0.24166 0.39987 0.98603 0.0
H532 H 0.33619 0.28882 0.94714 0.0
H533 H 0.30236 0.35117 0.98623 0.0
H534 H 0.21415 0.28218 0.06268 0.0
H535 H 0.24786 0.21982 0.02361 0.0
C536 C 0.21625 0.39031 0.15453 0.0
C537 C 0.21202 0.42867 0.12681 0.0
C538 C 0.22943 0.3557 0.12211 0.0
C539 C 0.23911 0.35844 0.06108 0.0
C540 C 0.23454 0.39674 0.03301 0.0
C541 C 0.2208 0.43142 0.06539 0.0
C542 C 0.30908 0.28701 0.97107 0.0
C543 C 0.29504 0.24916 0.98277 0.0
C544 C 0.28963 0.32283 0.99339 0.0
C545 C 0.2559 0.32161 0.02849 0.0
C546 C 0.24044 0.28409 0.03668 0.0
C547 C 0.25962 0.24834 0.01377 0.0
H548 H 0.35149 0.49698 0.54944 0.0
H549 H 0.36562 0.42849 0.38578 0.0
H550 H 0.40898 0.53132 0.52554 0.0
H551 H 0.42434 0.46148 0.36259 0.0
H552 H 0.51204 0.55117 0.31348 0.0
H553 H 0.45185 0.52039 0.33305 0.0
H554 H 0.47583 0.52194 0.52303 0.0
H555 H 0.53504 0.55409 0.50317 0.0
C556 C 0.36714 0.4891 0.50845 0.0
C557 C 0.3541 0.45994 0.46958 0.0
C558 C 0.40033 0.50861 0.49482 0.0
C559 C 0.42191 0.49904 0.44237 0.0
C560 C 0.4084 0.47022 0.40298 0.0
C561 C 0.37475 0.45115 0.41624 0.0
C562 C 0.50459 0.54471 0.35942 0.0
C563 C 0.52869 0.5549 0.40685 0.0
C564 C 0.46998 0.5269 0.37072 0.0
C565 C 0.45866 0.51842 0.42978 0.0
C566 C 0.48295 0.52857 0.47705 0.0
C567 C 0.51722 0.54681 0.46574 0.0
H568 H 0.18657 0.76989 0.48614 0.0
H569 H 0.29329 0.82782 0.50196 0.0
H570 H 0.21826 0.70836 0.53071 0.0
H571 H 0.3252 0.76547 0.54618 0.0
H572 H 0.37253 0.62902 0.58422 0.0
H573 H 0.34512 0.68829 0.52661 0.0
H574 H 0.24232 0.69489 0.63752 0.0
H575 H 0.26943 0.63614 0.69459 0.0
C576 C 0.21704 0.76936 0.49799 0.0
C577 C 0.2372 0.80416 0.49079 0.0
C578 C 0.23513 0.73403 0.52396 0.0
C579 C 0.27409 0.73217 0.54281 0.0
C580 C 0.29515 0.76594 0.5321 0.0
C581 C 0.27685 0.80165 0.50666 0.0
C582 C 0.344 0.64302 0.59596 0.0
C583 C 0.32323 0.62775 0.64412 0.0
C584 C 0.32843 0.67711 0.56326 0.0
C585 C 0.29143 0.69616 0.57723 0.0
C586 C 0.27069 0.68069 0.6251 0.0
C587 C 0.28641 0.64716 0.65822 0.0
H588 H 0.02516 0.51467 0.80391 0.0
H589 H 1.01666 0.50505 -0.00363 0.0
H590 H 0.08803 0.54137 0.81409 0.0
H591 H 0.07902 0.53283 0.0068 0.0
H592 H 0.20788 0.54684 0.00726 0.0
H593 H 0.14643 0.51748 0.99294 0.0
H594 H 0.11956 0.59885 0.8438 0.0
H595 H 0.18184 0.62729 0.85723 0.0
C596 C 0.03625 0.51877 0.84856 0.0
C597 C 1.01524 0.50799 0.89945 0.0
C598 C 0.07252 0.5342 0.85439 0.0
C599 C 0.08886 0.53947 0.91128 0.0
C600 C 0.06785 0.52868 0.96213 0.0
C601 C 0.03176 0.51296 0.95624 0.0
C602 C 0.18887 0.55843 0.97137 0.0
C603 C 0.1997 0.58956 0.93353 0.0
C604 C 0.15344 0.54175 0.96336 0.0
C605 C 0.12755 0.55605 0.91772 0.0
C606 C 0.1388 0.58668 0.87905 0.0
C607 C 0.17453 0.60307 0.88669 0.0
H608 H 0.8799 0.59222 0.73517 0.0
H609 H 0.76296 0.57192 0.78867 0.0
H610 H 0.86406 0.66522 0.74638 0.0
H611 H 0.74767 0.64417 0.80215 0.0
H612 H 0.72265 0.77962 0.806 0.0
H613 H 0.73655 0.71119 0.76598 0.0
H614 H 0.85513 0.70966 0.82871 0.0
H615 H 0.84137 0.77802 0.86697 0.0
C616 C 0.8507 0.60328 0.74861 0.0
C617 C 0.82296 0.576 0.76197 0.0
C618 C 0.84167 0.64519 0.75563 0.0
C619 C 0.80477 0.66085 0.77656 0.0
C620 C 0.77633 0.63362 0.78578 0.0
C621 C 0.78525 0.59188 0.77839 0.0
C622 C 0.75181 0.76481 0.81033 0.0
C623 C 0.78092 0.78428 0.83967 0.0
C624 C 0.75973 0.72536 0.78794 0.0
C625 C 0.797 0.70446 0.79423 0.0
C626 C 0.82629 0.72471 0.82192 0.0
C627 C 0.81832 0.76395 0.84442 0.0
H628 H 0.50355 0.59259 0.66956 0.0
H629 H 0.52232 0.46756 0.61469 0.0
H630 H 0.56806 0.60461 0.6344 0.0
H631 H 0.58807 0.47916 0.58112 0.0
H632 H 0.69087 0.52587 0.47707 0.0
H633 H 0.62573 0.51214 0.50794 0.0
H634 H 0.63398 0.59065 0.66058 0.0
H635 H 0.69766 0.6065 0.62778 0.0
C636 C 0.52159 0.56753 0.65011 0.0
C637 C 0.50773 0.52907 0.64509 0.0
C638 C 0.55888 0.57434 0.63041 0.0
C639 C 0.58384 0.54277 0.6057 0.0
C640 C 0.56975 0.50431 0.59966 0.0
C641 C 0.53205 0.49759 0.61894 0.0
C642 C 0.67877 0.54069 0.51678 0.0
C643 C 0.69996 0.56779 0.54924 0.0
C644 C 0.64141 0.53225 0.53507 0.0
C645 C 0.62422 0.55037 0.58673 0.0
C646 C 0.64576 0.57665 0.61991 0.0
C647 C 0.68285 0.58536 0.60138 0.0
H648 H 0.69185 0.2593 0.35772 0.0
H649 H 0.81095 0.28307 0.32603 0.0
H650 H 0.66996 0.32814 0.32698 0.0
H651 H 0.78922 0.35303 0.29761 0.0
H652 H 0.73437 0.47701 0.22881 0.0
H653 H 0.7552 0.40401 0.23426 0.0
H654 H 0.67139 0.39082 0.3754 0.0
H655 H 0.65179 0.46296 0.37058 0.0
C656 C 0.71338 0.2792 0.34351 0.0
C657 C 0.75316 0.26581 0.34495 0.0
C658 C 0.70086 0.3189 0.32636 0.0
C659 C 0.7278 0.3468 0.31135 0.0
C660 C 0.76754 0.33258 0.30881 0.0
C661 C 0.78006 0.29242 0.32516 0.0
C662 C 0.7199 0.45806 0.25973 0.0
C663 C 0.69104 0.47539 0.29859 0.0
C664 C 0.73198 0.41633 0.26331 0.0
C665 C 0.71451 0.391 0.30442 0.0
C666 C 0.68491 0.40871 0.34194 0.0
C667 C 0.67365 0.45023 0.33939 0.0
H668 H 1.01957 0.58507 0.09571 0.0
H669 H 0.03702 0.46202 0.16162 0.0
H670 H 0.95296 0.57374 0.06696 0.0
H671 H 0.97082 0.45108 0.13488 0.0
H672 H 0.85812 0.43005 0.04679 0.0
H673 H 0.92604 0.44239 0.05793 0.0
H674 H 0.89153 0.56554 0.11209 0.0
H675 H 0.82364 0.55349 0.09907 0.0
C676 C 1.00932 0.55558 0.10373 0.0
C677 C 0.03364 0.52454 0.13119 0.0
C678 C 0.971 0.54914 0.08776 0.0
C679 C 0.95619 0.51148 0.09877 0.0
C680 C 0.98108 0.48026 0.12472 0.0
C681 C 1.01916 0.48668 0.1406 0.0
C682 C 0.86493 0.45995 0.06015 0.0
C683 C 0.83513 0.49059 0.0726 0.0
C684 C 0.90406 0.46701 0.06708 0.0
C685 C 0.9146 0.505 0.0862 0.0
C686 C 0.88479 0.53603 0.09668 0.0
C687 C 0.84566 0.52891 0.09 0.0
H688 H 0.71865 0.74091 0.5834 0.0
H689 H 0.82925 0.74228 0.67288 0.0
H690 H 0.69812 0.80708 0.62247 0.0
H691 H 0.80806 0.80859 0.71533 0.0
H692 H 0.77212 0.94526 0.73439 0.0
H693 H 0.79514 0.87684 0.70203 0.0
H694 H 0.67605 0.84545 0.69971 0.0
H695 H 0.65373 0.9148 0.72661 0.0
C696 C 0.73837 0.75513 0.6127 0.0
C697 C 0.77546 0.73609 0.62545 0.0
C698 C 0.7264 0.79327 0.63584 0.0
C699 C 0.75095 0.8137 0.67327 0.0
C700 C 0.78822 0.79441 0.68633 0.0
C701 C 0.80029 0.75599 0.66281 0.0
C702 C 0.75114 0.9235 0.72634 0.0
C703 C 0.71119 0.93528 0.73143 0.0
C704 C 0.76423 0.88406 0.70839 0.0
C705 C 0.73762 0.85513 0.69677 0.0
C706 C 0.69764 0.86684 0.7054 0.0
C707 C 0.68462 0.90655 0.72135 0.0
H708 H 0.84742 1.01686 -0.0046 0.0
H709 H 0.87688 0.91565 0.8778 0.0
H710 H 0.91181 0.0404 0.97936 0.0
H711 H 0.94159 0.93903 0.86205 0.0
H712 H 0.06688 0.96801 0.91725 0.0
H713 H 1.00165 0.94622 0.93118 0.0
H714 H 0.9517 0.0674 0.89071 0.0
H715 H 1.01715 0.08916 0.87619 0.0
C716 C 0.86766 0.99971 0.96599 0.0
C717 C 0.85707 0.96436 0.93787 0.0
C718 C 0.90444 1.01331 0.95657 0.0
C719 C 0.93182 0.99149 0.91963 0.0
C720 C 0.92118 0.95632 0.89109 0.0
C721 C 0.88406 0.94312 0.89964 0.0
C722 C 0.04204 0.9901 0.91175 0.0
C723 C 0.04722 0.03038 0.89567 0.0
C724 C 1.00466 0.9775 0.91916 0.0
C725 C 0.97154 1.00503 0.9117 0.0
C726 C 0.97668 0.04551 0.89684 0.0
C727 C 1.01408 0.05793 0.88831 0.0
H728 H 0.82787 0.08865 0.05209 0.0
H729 H 0.84713 0.16455 0.20397 0.0
H730 H 0.80121 0.14847 -0.00447 0.0
H731 H 0.82043 0.22401 0.14793 0.0
H732 H 0.7977 0.32879 0.02116 0.0
H733 H 0.83393 0.2671 0.05877 0.0
H734 H 0.74069 0.19714 0.00365 0.0
H735 H 0.70435 0.25878 0.96618 0.0
C736 C 0.8268 0.11811 0.07315 0.0
C737 C 0.83941 0.12178 0.13269 0.0
C738 C 0.81136 0.15233 0.0409 0.0
C739 C 0.80881 0.19105 0.06711 0.0
C740 C 0.82239 0.19475 0.12608 0.0
C741 C 0.83729 0.16058 0.1585 0.0
C742 C 0.78532 0.30014 0.01558 0.0
C743 C 0.74788 0.29883 0.99119 0.0
C744 C 0.80596 0.26482 0.03768 0.0
C745 C 0.78993 0.22729 0.03509 0.0
C746 C 0.7539 0.22551 0.00633 0.0
C747 C 0.73303 0.2609 0.9849 0.0
H748 H 0.52368 1.00018 0.32078 0.0
H749 H 0.49509 1.02012 0.50731 0.0
H750 H 0.58596 0.02727 0.33624 0.0
H751 H 0.55781 0.04703 0.52307 0.0
H752 H 0.69001 0.05312 0.54002 0.0
H753 H 0.62736 0.0267 0.52557 0.0
H754 H 0.61408 0.09027 0.35648 0.0
H755 H 0.67676 0.11717 0.37106 0.0
C756 C 0.5304 1.01066 0.36508 0.0
C757 C 0.50396 1.00803 0.41275 0.0
C758 C 0.5663 0.02626 0.37395 0.0
C759 C 0.57703 0.03961 0.43081 0.0
C760 C 0.55081 0.03666 0.47874 0.0
C761 C 0.51476 1.02114 0.46978 0.0
C762 C 0.67378 0.06192 0.4999 0.0
C763 C 0.68885 0.08758 0.4568 0.0
C764 C 0.63763 0.04666 0.49166 0.0
C765 C 0.61546 0.0563 0.43989 0.0
C766 C 0.63053 0.08171 0.39657 0.0
C767 C 0.66666 0.09715 0.40492 0.0
H768 H 0.26376 0.08294 0.22308 0.0
H769 H 0.37885 0.09295 0.29356 0.0
H770 H 0.24778 0.15557 0.23795 0.0
H771 H 0.36241 0.16437 0.31226 0.0
H772 H 0.3361 0.29657 0.32157 0.0
H773 H 0.35049 0.22966 0.27828 0.0
H774 H 0.23209 0.20301 0.31245 0.0
H775 H 0.21743 0.27107 0.35242 0.0
C776 C 0.28574 0.10071 0.24138 0.0
C777 C 0.32263 0.08209 0.25689 0.0
C778 C 0.27646 0.14239 0.25061 0.0
C779 C 0.30359 0.1664 0.27676 0.0
C780 C 0.34079 0.14762 0.29089 0.0
C781 C 0.3503 0.1063 0.28036 0.0
C782 C 0.31293 0.2767 0.31838 0.0
C783 C 0.27569 0.28906 0.34059 0.0
C784 C 0.32126 0.23798 0.29416 0.0
C785 C 0.29284 0.21 0.29289 0.0
C786 C 0.25486 0.22341 0.312 0.0
C787 C 0.24634 0.26258 0.3351 0.0
H788 H 0.03466 0.03889 0.23904 0.0
H789 H 1.01618 0.99395 0.06084 0.0
H790 H 0.10074 0.05091 0.21292 0.0
H791 H 0.08339 1.00621 0.03441 0.0
H792 H 0.1935 0.08222 0.00531 0.0
H793 H 0.12605 0.06775 0.02382 0.0
H794 H 0.16155 1.00722 0.18904 0.0
H795 H 0.22809 1.02274 0.17207 0.0
C796 C 0.04465 0.03169 0.19404 0.0
C797 C 1.02003 1.01548 0.15202 0.0
C798 C 0.08275 0.03836 0.17921 0.0
C799 C 0.09743 0.02939 0.12166 0.0
C800 C 0.07282 1.01361 0.07902 0.0
C801 C 0.03449 1.00634 0.09424 0.0
C802 C 0.18687 0.06596 0.04566 0.0
C803 C 0.21637 0.05381 0.08729 0.0
C804 C 0.14835 0.05716 0.05574 0.0
C805 C 0.13853 0.03618 0.10769 0.0
C806 C 0.16812 1.02359 0.1487 0.0
C807 C 0.20643 0.03226 0.13867 0.0
H808 H 0.20874 0.75679 0.78421 0.0
H809 H 0.32755 0.78374 0.80853 0.0
H810 H 0.19247 0.82416 0.74253 0.0
H811 H 0.31113 0.85206 0.77071 0.0
H812 H 0.27824 0.97301 0.68782 0.0
H813 H 0.29444 0.90026 0.69963 0.0
H814 H 0.17961 0.88916 0.77246 0.0
H815 H 0.16281 0.9608 0.75556 0.0
C816 C 0.23147 0.77714 0.78015 0.0
C817 C 0.26936 0.76499 0.79989 0.0
C818 C 0.2221 0.81612 0.75679 0.0
C819 C 0.25012 0.84454 0.75402 0.0
C820 C 0.28858 0.83142 0.77116 0.0
C821 C 0.29813 0.79206 0.79319 0.0
C822 C 0.25618 0.95466 0.70465 0.0
C823 C 0.21917 0.97275 0.7203 0.0
C824 C 0.26564 0.91289 0.71251 0.0
C825 C 0.23873 0.8882 0.73814 0.0
C826 C 0.20123 0.9064 0.75182 0.0
C827 C 0.19146 0.94786 0.74221 0.0
H828 H 0.34441 0.93608 0.62176 0.0
H829 H 0.3326 0.05007 0.52713 0.0
H830 H 0.41134 0.94702 0.64788 0.0
H831 H 0.40005 0.06039 0.54969 0.0
H832 H 0.50712 0.09004 0.65579 0.0
H833 H 0.44173 0.07822 0.62333 0.0
H834 H 0.47515 0.94919 0.61963 0.0
H835 H 0.53961 0.96124 0.65554 0.0
C836 C 0.35651 0.96314 0.60562 0.0
C837 C 0.33323 0.99235 0.57291 0.0
C838 C 0.39503 0.9695 0.6203 0.0
C839 C 0.41162 1.00492 0.60154 0.0
C840 C 0.38842 0.03335 0.56676 0.0
C841 C 0.34972 0.02733 0.55326 0.0
C842 C 0.50053 0.05922 0.64739 0.0
C843 C 0.52858 0.02662 0.65846 0.0
C844 C 0.4629 0.05229 0.62856 0.0
C845 C 0.45243 1.01255 0.61912 0.0
C846 C 0.48127 0.98014 0.62792 0.0
C847 C 0.51858 0.98706 0.64786 0.0
H848 H 0.45732 0.20016 0.21449 0.0
H849 H 0.44045 0.23494 0.02908 0.0
H850 H 0.50807 0.24676 0.22326 0.0
H851 H 0.49205 0.27985 0.03677 0.0
H852 H 0.56007 0.38517 0.08094 0.0
H853 H 0.506 0.34279 0.08163 0.0
H854 H 0.57395 0.25347 0.18888 0.0
H855 H 0.62789 0.29582 0.18829 0.0
C856 C 0.46456 0.21762 0.17561 0.0
C857 C 0.44523 0.21346 0.12089 0.0
C858 C 0.49379 0.24407 0.18044 0.0
C859 C 0.50414 0.26705 0.1307 0.0
C860 C 0.48457 0.26299 0.07615 0.0
C861 C 0.45544 0.23664 0.0714 0.0
C862 C 0.56341 0.35659 0.1049 0.0
C863 C 0.59847 0.34387 0.13419 0.0
C864 C 0.53244 0.33223 0.1052 0.0
C865 C 0.53576 0.29453 0.13486 0.0
C866 C 0.57025 0.28251 0.16615 0.0
C867 C 0.60123 0.3069 0.16586 0.0
H868 H 0.4884 0.90327 0.1906 0.0
H869 H 0.41212 0.81711 0.25694 0.0
H870 H 0.53637 0.84727 0.16284 0.0
H871 H 0.45953 0.76155 0.23054 0.0
H872 H 0.54724 0.66285 0.18644 0.0
H873 H 0.49824 0.71934 0.16464 0.0
H874 H 0.57893 0.80396 0.22201 0.0
H875 H 0.62743 0.74798 0.24179 0.0
C876 C 0.48147 0.87235 0.19751 0.0
C877 C 0.44694 0.86438 0.22656 0.0
C878 C 0.50906 0.84026 0.18239 0.0
C879 C 0.50224 0.79975 0.19548 0.0
C880 C 0.46594 0.79208 0.21936 0.0
C881 C 0.43876 0.82401 0.23494 0.0
C882 C 0.55479 0.69366 0.19189 0.0
C883 C 0.59084 0.70118 0.21629 0.0
C884 C 0.52661 0.72602 0.18043 0.0
C885 C 0.53421 0.76631 0.19296 0.0
C886 C 0.5718 0.77362 0.2116 0.0
C887 C 0.59971 0.74143 0.22315 0.0
H888 H 0.12452 0.79822 0.55263 0.0
H889 H 0.04269 0.90128 0.58792 0.0
H890 H 0.07226 0.76025 0.51667 0.0
H891 H 0.98908 0.86251 0.55612 0.0
H892 H 0.90378 0.79298 0.45058 0.0
H893 H 0.95647 0.83359 0.47816 0.0
H894 H 0.02188 0.72594 0.54773 0.0
H895 H 0.97093 0.68561 0.5166 0.0
C896 C 0.09493 0.8122 0.55424 0.0
C897 C 0.08728 0.85213 0.57447 0.0
C898 C 0.06481 0.79047 0.53385 0.0
C899 C 0.02596 0.80776 0.53456 0.0
C900 C 1.01847 0.84808 0.55446 0.0
C901 C 0.04895 0.87019 0.57349 0.0
C902 C 0.92973 0.77797 0.47075 0.0
C903 C 0.93281 0.73596 0.48174 0.0
C904 C 0.95979 0.80139 0.48761 0.0
C905 C 0.99372 0.78333 0.51557 0.0
C906 C 0.99679 0.74121 0.52549 0.0
C907 C 0.96707 0.71794 0.50837 0.0
H908 H 0.04982 0.15519 0.69495 0.0
H909 H 0.1303 0.23629 0.76245 0.0
H910 H 1.00199 0.2132 0.67602 0.0
H911 H 0.08313 0.29392 0.74415 0.0
H912 H 0.99725 0.39639 0.70054 0.0
H913 H 0.04485 0.33862 0.67959 0.0
H914 H 0.96204 0.25665 0.73945 0.0
H915 H 0.91503 0.31405 0.75933 0.0
C916 C 0.05757 0.1855 0.70423 0.0
C917 C 0.09347 0.19138 0.73057 0.0
C918 C 0.03012 0.2187 0.69412 0.0
C919 C 0.03847 0.25835 0.7092 0.0
C920 C 0.07563 0.2641 0.73141 0.0
C921 C 0.10266 0.231 0.7423 0.0
C922 C 0.98895 0.3659 0.70684 0.0
C923 C 0.9527 0.3595 0.73167 0.0
C924 C 1.01631 0.33281 0.6958 0.0
C925 C 1.00758 0.29287 0.70882 0.0
C926 C 0.9699 0.28672 0.72854 0.0
C927 C 0.94288 0.31966 0.74004 0.0
H928 H 0.46499 0.68783 -0.00089 0.0
H929 H 0.40859 0.80277 0.05667 0.0
H930 H 0.52815 0.71366 0.01066 0.0
H931 H 0.47177 0.82856 0.06993 0.0
H932 H 0.58588 0.87635 0.009 0.0
H933 H 0.52241 0.85032 0.0129 0.0
H934 H 0.5763 0.73438 0.07386 0.0
H935 H 0.63996 0.76064 0.06853 0.0
C936 C 0.46616 0.71856 0.01488 0.0
C937 C 0.43179 0.74344 0.02621 0.0
C938 C 0.50246 0.73329 0.02218 0.0
C939 C 0.50534 0.77334 0.04113 0.0
C940 C 0.47086 0.79771 0.05465 0.0
C941 C 0.43453 0.78283 0.04769 0.0
C942 C 0.584 0.84542 0.02381 0.0
C943 C 0.61783 0.82039 0.03793 0.0
C944 C 0.54755 0.83051 0.02657 0.0
C945 C 0.54395 0.7901 0.04358 0.0
C946 C 0.57783 0.76551 0.05988 0.0
C947 C 0.61434 0.78062 0.05761 0.0
H948 H 0.50586 0.16303 0.91541 0.0
H949 H 0.60527 0.2211 0.8537 0.0
H950 H 0.46988 0.22976 0.93009 0.0
H951 H 0.57026 0.28768 0.87024 0.0
H952 H 0.5032 0.40438 0.91985 0.0
H953 H 0.53583 0.33742 0.94489 0.0
H954 H 0.44673 0.28048 0.84937 0.0
H955 H 0.41466 0.34708 0.8243 0.0
C956 C 0.52032 0.19019 0.90715 0.0
C957 C 0.55808 0.18735 0.8834 0.0
C958 C 0.49988 0.22824 0.91548 0.0
C959 C 0.51736 0.26394 0.90173 0.0
C960 C 0.5562 0.26082 0.88207 0.0
C961 C 0.57616 0.22286 0.87227 0.0
C962 C 0.49023 0.37744 0.9057 0.0
C963 C 0.45684 0.38068 0.86944 0.0
C964 C 0.50888 0.33923 0.91976 0.0
C965 C 0.49396 0.30376 0.89866 0.0
C966 C 0.45881 0.30717 0.8666 0.0
C967 C 0.44062 0.34524 0.85177 0.0
H968 H 0.1396 0.23997 0.5795 0.0
H969 H 0.08728 0.36067 0.54162 0.0
H970 H 0.07541 0.21487 0.57948 0.0
H971 H 0.02353 0.3357 0.53882 0.0
H972 H 0.90894 0.28786 0.57846 0.0
H973 H 0.97285 0.31164 0.59098 0.0
H974 H 0.02557 0.19961 0.51575 0.0
H975 H 0.96151 0.17567 0.50475 0.0
C976 C 0.11436 0.26121 0.57187 0.0
C977 C 0.11858 0.30221 0.55997 0.0
C978 C 0.07749 0.24677 0.5709 0.0
C979 C 0.04397 0.27311 0.55871 0.0
C980 C 0.04832 0.31441 0.54905 0.0
C981 C 0.08505 0.32876 0.55007 0.0
C982 C 0.93422 0.26806 0.56563 0.0
C983 C 0.93008 0.22999 0.54028 0.0
C984 C 0.97104 0.28183 0.5722 0.0
C985 C 1.00477 0.25765 0.55445 0.0
C986 C 1.00054 0.219 0.53077 0.0
C987 C 0.9637 0.20538 0.52379 0.0
H988 H 0.92803 0.83088 0.29613 0.0
H989 H 1.01874 0.88827 0.3863 0.0
H990 H 0.96296 0.76473 0.31315 0.0
H991 H 0.05398 0.82175 0.40438 0.0
H992 H 0.12527 0.70359 0.33438 0.0
H993 H 0.08999 0.77036 0.34575 0.0
H994 H 0.98466 0.7135 0.38265 0.0
H995 H 1.02021 0.64697 0.3717 0.0
C996 C 0.95526 0.82913 0.32049 0.0
C997 C 0.97077 0.86459 0.33963 0.0
C998 C 0.97522 0.7912 0.33073 0.0
C999 C 1.0114 0.78773 0.3602 0.0
C1000 C 0.02636 0.82328 0.38113 0.0
C1001 C 1.00604 0.86133 0.37142 0.0
C1002 C 0.09481 0.70555 0.3467 0.0
C1003 C 0.07542 0.67017 0.35183 0.0
C1004 C 0.07456 0.74378 0.35346 0.0
C1005 C 0.0343 0.74745 0.36472 0.0
C1006 C 1.01556 0.71189 0.37375 0.0
C1007 C 0.03597 0.67366 0.36795 0.0
loop_
_geom_bond_atom_site_label_1
_geom_bond_atom_site_label_2
_geom_bond_distance
_geom_bond_site_symmetry_2
_ccdc_geom_bond_type
Cu0 N1 1.999 . S
Cu0 O6 1.974 . S
Cu0 N11 1.985 . S
Cu0 O20 1.959 . S
N1 Cu0 1.999 . S
N1 C3 1.263 1_554 S
N1 C5 1.389 . S
N2 C3 1.358 . S
N2 C4 1.400 1_556 S
C3 N1 1.263 1_556 S
C3 N2 1.358 . S
C3 H9 0.930 . S
C4 N2 1.400 1_554 S
C4 C5 1.351 . S
C4 H21 0.930 . S
C5 N1 1.389 . S
C5 C4 1.351 . S
C5 H10 0.930 . S
O6 Cu0 1.974 . S
O6 C16 1.282 1_554 S
C7 O8 1.261 1_554 S
C7 O20 1.251 . S
O8 C7 1.261 1_556 S
H9 C3 0.930 . S
H10 C5 0.930 . S
N11 Cu0 1.985 . S
N11 C13 1.335 . S
N11 C14 1.390 . S
N12 C13 1.345 . S
N12 C15 1.336 . S
C13 N11 1.335 . S
C13 N12 1.345 . S
C13 H18 0.930 . S
C14 N11 1.390 . S
C14 C15 1.346 . S
C14 H19 0.930 1_554 S
C15 N12 1.336 . S
C15 C14 1.346 . S
C15 H22 0.926 1_554 S
C16 O6 1.282 1_556 S
C16 O17 1.216 . S
O17 C16 1.216 . S
H18 C13 0.930 . S
H19 C14 0.930 1_556 S
O20 Cu0 1.959 . S
O20 C7 1.251 . S
H21 C4 0.930 . S
H22 C15 0.926 1_556 S
Cu23 N24 1.999 . S
Cu23 O29 1.974 . S
Cu23 N34 1.985 . S
Cu23 O43 1.959 . S
N24 Cu23 1.999 . S
N24 C26 1.263 . S
N24 C28 1.389 . S
N25 C26 1.358 . S
N25 C27 1.400 . S
C26 N24 1.263 . S
C26 N25 1.358 . S
C26 H32 0.930 . S
C27 N25 1.400 . S
C27 C28 1.351 . S
C27 H44 0.930 . S
C28 N24 1.389 . S
C28 C27 1.351 . S
C28 H33 0.930 . S
O29 Cu23 1.974 . S
O29 C39 1.282 . S
C30 O31 1.261 . S
C30 O43 1.251 . S
O31 C30 1.261 . S
H32 C26 0.930 . S
H33 C28 0.930 . S
N34 Cu23 1.985 . S
N34 C36 1.335 . S
N34 C37 1.390 . S
N35 C36 1.345 . S
N35 C38 1.336 . S
C36 N34 1.335 . S
C36 N35 1.345 . S
C36 H41 0.930 . S
C37 N34 1.390 . S
C37 C38 1.346 . S
C37 H42 0.930 . S
C38 N35 1.336 . S
C38 C37 1.346 . S
C38 H45 0.929 . S
C39 O29 1.282 . S
C39 O40 1.216 . S
O40 C39 1.216 . S
H41 C36 0.930 . S
H42 C37 0.930 . S
O43 Cu23 1.959 . S
O43 C30 1.251 . S
H44 C27 0.930 . S
H45 C38 0.929 . S
Cu46 N47 1.999 . S
Cu46 O52 1.974 . S
Cu46 N57 1.985 . S
Cu46 O66 1.959 . S
N47 Cu46 1.999 . S
N47 C49 1.263 . S
N47 C51 1.389 . S
N48 C49 1.358 . S
N48 C50 1.400 . S
C49 N47 1.263 . S
C49 N48 1.358 . S
C49 H55 0.930 . S
C50 N48 1.400 . S
C50 C51 1.351 . S
C50 H67 0.930 . S
C51 N47 1.389 . S
C51 C50 1.351 . S
C51 H56 0.930 . S
O52 Cu46 1.974 . S
O52 C62 1.282 . S
C53 O54 1.261 . S
C53 O66 1.251 . S
O54 C53 1.261 . S
H55 C49 0.930 . S
H56 C51 0.930 . S
N57 Cu46 1.985 . S
N57 C59 1.335 . S
N57 C60 1.390 . S
N58 C59 1.345 . S
N58 C61 1.336 . S
C59 N57 1.335 . S
C59 N58 1.345 . S
C59 H64 0.930 . S
C60 N57 1.390 . S
C60 C61 1.346 . S
C60 H65 0.930 . S
C61 N58 1.336 . S
C61 C60 1.346 . S
C61 H68 0.929 . S
C62 O52 1.282 . S
C62 O63 1.216 . S
O63 C62 1.216 . S
H64 C59 0.930 . S
H65 C60 0.930 . S
O66 Cu46 1.959 . S
O66 C53 1.251 . S
H67 C50 0.930 . S
H68 C61 0.929 . S
Cu69 N70 1.999 . S
Cu69 O75 1.974 . S
Cu69 N80 1.985 . S
Cu69 O89 1.959 . S
N70 Cu69 1.999 . S
N70 C72 1.263 . S
N70 C74 1.389 . S
N71 C72 1.358 . S
N71 C73 1.400 1_655 S
C72 N70 1.263 . S
C72 N71 1.358 . S
C72 H78 0.930 . S
C73 N71 1.400 1_455 S
C73 C74 1.351 1_455 S
C73 H90 0.930 . S
C74 N70 1.389 . S
C74 C73 1.351 1_655 S
C74 H79 0.930 . S
O75 Cu69 1.974 . S
O75 C85 1.282 . S
C76 O77 1.261 . S
C76 O89 1.251 . S
O77 C76 1.261 . S
H78 C72 0.930 . S
H79 C74 0.930 . S
N80 Cu69 1.985 . S
N80 C82 1.335 . S
N80 C83 1.390 . S
N81 C82 1.345 . S
N81 C84 1.336 . S
C82 N80 1.335 . S
C82 N81 1.345 . S
C82 H87 0.930 . S
C83 N80 1.390 . S
C83 C84 1.346 . S
C83 H88 0.930 . S
C84 N81 1.336 . S
C84 C83 1.346 . S
C84 H91 0.929 . S
C85 O75 1.282 . S
C85 O86 1.216 . S
O86 C85 1.216 . S
H87 C82 0.930 . S
H88 C83 0.930 . S
O89 Cu69 1.959 . S
O89 C76 1.251 . S
H90 C73 0.930 . S
H91 C84 0.929 . S
Cu92 N93 1.999 . S
Cu92 O98 1.974 . S
Cu92 N103 1.985 . S
Cu92 O112 1.959 . S
N93 Cu92 1.999 . S
N93 C95 1.263 1_556 S
N93 C97 1.389 . S
N94 C95 1.358 . S
N94 C96 1.400 1_554 S
C95 N93 1.263 1_554 S
C95 N94 1.358 . S
C95 H101 0.930 . S
C96 N94 1.400 1_556 S
C96 C97 1.351 . S
C96 H113 0.930 . S
C97 N93 1.389 . S
C97 C96 1.351 . S
C97 H102 0.930 . S
O98 Cu92 1.974 . S
O98 C108 1.282 1_556 S
C99 O100 1.261 1_556 S
C99 O112 1.251 . S
O100 C99 1.261 1_554 S
H101 C95 0.930 . S
H102 C97 0.930 . S
N103 Cu92 1.985 . S
N103 C105 1.335 . S
N103 C106 1.390 1_556 S
N104 C105 1.345 . S
N104 C107 1.336 . S
C105 N103 1.335 . S
C105 N104 1.345 . S
C105 H110 0.930 . S
C106 N103 1.390 1_554 S
C106 C107 1.346 1_554 S
C106 H111 0.930 . S
C107 N104 1.336 . S
C107 C106 1.346 1_556 S
C107 H114 0.929 1_556 S
C108 O98 1.282 1_554 S
C108 O109 1.216 . S
O109 C108 1.216 . S
H110 C105 0.930 . S
H111 C106 0.930 . S
O112 Cu92 1.959 . S
O112 C99 1.251 . S
H113 C96 0.930 . S
H114 C107 0.929 1_554 S
Cu115 N116 1.999 . S
Cu115 O121 1.974 . S
Cu115 N126 1.985 . S
Cu115 O135 1.959 . S
N116 Cu115 1.999 . S
N116 C118 1.263 . S
N116 C120 1.389 . S
N117 C118 1.358 . S
N117 C119 1.400 . S
C118 N116 1.263 . S
C118 N117 1.358 . S
C118 H124 0.930 . S
C119 N117 1.400 . S
C119 C120 1.351 . S
C119 H136 0.930 . S
C120 N116 1.389 . S
C120 C119 1.351 . S
C120 H125 0.930 . S
O121 Cu115 1.974 . S
O121 C131 1.282 . S
C122 O123 1.261 . S
C122 O135 1.251 . S
O123 C122 1.261 . S
H124 C118 0.930 . S
H125 C120 0.930 . S
N126 Cu115 1.985 . S
N126 C128 1.335 . S
N126 C129 1.390 . S
N127 C128 1.345 . S
N127 C130 1.336 . S
C128 N126 1.335 . S
C128 N127 1.345 . S
C128 H133 0.930 . S
C129 N126 1.390 . S
C129 C130 1.346 . S
C129 H134 0.930 . S
C130 N127 1.336 . S
C130 C129 1.346 . S
C130 H137 0.929 . S
C131 O121 1.282 . S
C131 O132 1.216 . S
O132 C131 1.216 . S
H133 C128 0.930 . S
H134 C129 0.930 . S
O135 Cu115 1.959 . S
O135 C122 1.251 . S
H136 C119 0.930 . S
H137 C130 0.929 . S
Cu138 N139 1.999 . S
Cu138 O144 1.974 . S
Cu138 N149 1.985 . S
Cu138 O158 1.959 . S
N139 Cu138 1.999 . S
N139 C141 1.263 . S
N139 C143 1.389 . S
N140 C141 1.358 . S
N140 C142 1.400 . S
C141 N139 1.263 . S
C141 N140 1.358 . S
C141 H147 0.930 . S
C142 N140 1.400 . S
C142 C143 1.351 . S
C142 H159 0.930 . S
C143 N139 1.389 . S
C143 C142 1.351 . S
C143 H148 0.930 . S
O144 Cu138 1.974 . S
O144 C154 1.282 . S
C145 O146 1.261 . S
C145 O158 1.251 . S
O146 C145 1.261 . S
H147 C141 0.930 . S
H148 C143 0.930 . S
N149 Cu138 1.985 . S
N149 C151 1.335 . S
N149 C152 1.390 . S
N150 C151 1.345 . S
N150 C153 1.336 . S
C151 N149 1.335 . S
C151 N150 1.345 . S
C151 H156 0.930 . S
C152 N149 1.390 . S
C152 C153 1.346 . S
C152 H157 0.930 . S
C153 N150 1.336 . S
C153 C152 1.346 . S
C153 H160 0.929 . S
C154 O144 1.282 . S
C154 O155 1.216 . S
O155 C154 1.216 . S
H156 C151 0.930 . S
H157 C152 0.930 . S
O158 Cu138 1.959 . S
O158 C145 1.251 . S
H159 C142 0.930 . S
H160 C153 0.929 . S
Cu161 N162 1.999 . S
Cu161 O167 1.974 . S
Cu161 N172 1.985 . S
Cu161 O181 1.959 . S
N162 Cu161 1.999 . S
N162 C164 1.263 . S
N162 C166 1.389 . S
N163 C164 1.358 . S
N163 C165 1.400 . S
C164 N162 1.263 . S
C164 N163 1.358 . S
C164 H170 0.930 . S
C165 N163 1.400 . S
C165 C166 1.351 . S
C165 H182 0.930 1_455 S
C166 N162 1.389 . S
C166 C165 1.351 . S
C166 H171 0.930 . S
O167 Cu161 1.974 . S
O167 C177 1.282 . S
C168 O169 1.261 . S
C168 O181 1.251 . S
O169 C168 1.261 . S
H170 C164 0.930 . S
H171 C166 0.930 . S
N172 Cu161 1.985 . S
N172 C174 1.335 . S
N172 C175 1.390 . S
N173 C174 1.345 . S
N173 C176 1.336 . S
C174 N172 1.335 . S
C174 N173 1.345 . S
C174 H179 0.930 . S
C175 N172 1.390 . S
C175 C176 1.346 . S
C175 H180 0.930 . S
C176 N173 1.336 . S
C176 C175 1.346 . S
C176 H183 0.929 . S
C177 O167 1.282 . S
C177 O178 1.216 . S
O178 C177 1.216 . S
H179 C174 0.930 . S
H180 C175 0.930 . S
O181 Cu161 1.959 . S
O181 C168 1.251 . S
H182 C165 0.930 1_655 S
H183 C176 0.929 . S
Cu184 N185 1.999 . S
Cu184 O190 1.974 . S
Cu184 N195 1.985 . S
Cu184 O204 1.959 . S
N185 Cu184 1.999 . S
N185 C187 1.263 . S
N185 C189 1.389 . S
N186 C187 1.358 . S
N186 C188 1.400 . S
C187 N185 1.263 . S
C187 N186 1.358 . S
C187 H193 0.930 . S
C188 N186 1.400 . S
C188 C189 1.351 . S
C188 H205 0.930 . S
C189 N185 1.389 . S
C189 C188 1.351 . S
C189 H194 0.930 . S
O190 Cu184 1.974 . S
O190 C200 1.282 . S
C191 O192 1.261 . S
C191 O204 1.251 . S
O192 C191 1.261 . S
H193 C187 0.930 . S
H194 C189 0.930 . S
N195 Cu184 1.985 . S
N195 C197 1.335 . S
N195 C198 1.390 . S
N196 C197 1.345 . S
N196 C199 1.336 . S
C197 N195 1.335 . S
C197 N196 1.345 . S
C197 H202 0.930 . S
C198 N195 1.390 . S
C198 C199 1.346 . S
C198 H203 0.930 . S
C199 N196 1.336 . S
C199 C198 1.346 . S
C199 H206 0.929 . S
C200 O190 1.282 . S
C200 O201 1.216 . S
O201 C200 1.216 . S
H202 C197 0.930 . S
H203 C198 0.930 . S
O204 Cu184 1.959 . S
O204 C191 1.251 . S
H205 C188 0.930 . S
H206 C199 0.929 . S
Cu207 N208 1.999 . S
Cu207 O213 1.974 . S
Cu207 N218 1.985 . S
Cu207 O227 1.959 . S
N208 Cu207 1.999 . S
N208 C210 1.263 . S
N208 C212 1.389 . S
N209 C210 1.366 . S
N209 C211 1.413 1_455 S
C210 N208 1.263 . S
C210 N209 1.366 . S
C210 H216 0.930 . S
C211 N209 1.413 1_655 S
C211 C212 1.351 1_655 S
C211 H228 0.930 . S
C212 N208 1.389 . S
C212 C211 1.351 1_455 S
C212 H217 0.930 . S
O213 Cu207 1.974 . S
O213 C223 1.282 . S
C214 O215 1.261 . S
C214 O227 1.251 . S
O215 C214 1.261 . S
H216 C210 0.930 . S
H217 C212 0.930 . S
N218 Cu207 1.985 . S
N218 C220 1.335 . S
N218 C221 1.390 . S
N219 C220 1.345 . S
N219 C222 1.336 . S
C220 N218 1.335 . S
C220 N219 1.345 . S
C220 H225 0.930 . S
C221 N218 1.390 . S
C221 C222 1.346 . S
C221 H226 0.930 . S
C222 N219 1.336 . S
C222 C221 1.346 . S
C222 H229 0.929 . S
C223 O213 1.282 . S
C223 O224 1.216 . S
O224 C223 1.216 . S
H225 C220 0.930 . S
H226 C221 0.930 . S
O227 Cu207 1.959 . S
O227 C214 1.251 . S
H228 C211 0.930 . S
H229 C222 0.929 . S
Cu230 N231 1.999 . S
Cu230 O236 1.974 . S
Cu230 N241 1.985 . S
Cu230 O250 1.959 . S
N231 Cu230 1.999 . S
N231 C233 1.263 1_554 S
N231 C235 1.389 . S
N232 C233 1.358 . S
N232 C234 1.400 1_556 S
C233 N231 1.263 1_556 S
C233 N232 1.358 . S
C233 H239 0.930 . S
C234 N232 1.400 1_554 S
C234 C235 1.351 . S
C234 H251 0.930 . S
C235 N231 1.389 . S
C235 C234 1.351 . S
C235 H240 0.930 . S
O236 Cu230 1.974 . S
O236 C246 1.282 1_554 S
C237 O238 1.261 1_554 S
C237 O250 1.251 . S
O238 C237 1.261 1_556 S
H239 C233 0.930 . S
H240 C235 0.930 . S
N241 Cu230 1.985 . S
N241 C243 1.335 . S
N241 C244 1.390 . S
N242 C243 1.345 . S
N242 C245 1.336 . S
C243 N241 1.335 . S
C243 N242 1.345 . S
C243 H248 0.930 . S
C244 N241 1.390 . S
C244 C245 1.346 . S
C244 H249 0.930 1_554 S
C245 N242 1.336 . S
C245 C244 1.346 . S
C245 H252 0.926 1_554 S
C246 O236 1.282 1_556 S
C246 O247 1.216 . S
O247 C246 1.216 . S
H248 C243 0.930 . S
H249 C244 0.930 1_556 S
O250 Cu230 1.959 . S
O250 C237 1.251 . S
H251 C234 0.930 . S
H252 C245 0.926 1_556 S
Cu253 N254 1.999 . S
Cu253 O259 1.974 . S
Cu253 N264 1.985 . S
Cu253 O273 1.959 . S
N254 Cu253 1.999 . S
N254 C256 1.263 . S
N254 C258 1.389 . S
N255 C256 1.350 1_545 S
N255 C257 1.389 1_545 S
C256 N254 1.263 . S
C256 N255 1.350 1_565 S
C256 H262 0.935 . S
C257 N255 1.389 1_565 S
C257 C258 1.351 . S
C257 H274 0.930 . S
C258 N254 1.389 . S
C258 C257 1.351 . S
C258 H263 0.930 . S
O259 Cu253 1.974 . S
O259 C269 1.282 . S
C260 O261 1.261 . S
C260 O273 1.251 . S
O261 C260 1.261 . S
H262 C256 0.935 . S
H263 C258 0.930 . S
N264 Cu253 1.985 . S
N264 C266 1.335 . S
N264 C267 1.390 . S
N265 C266 1.345 . S
N265 C268 1.336 . S
C266 N264 1.335 . S
C266 N265 1.345 . S
C266 H271 0.930 . S
C267 N264 1.390 . S
C267 C268 1.346 . S
C267 H272 0.930 . S
C268 N265 1.336 . S
C268 C267 1.346 . S
C268 H275 0.929 . S
C269 O259 1.282 . S
C269 O270 1.216 . S
O270 C269 1.216 . S
H271 C266 0.930 . S
H272 C267 0.930 . S
O273 Cu253 1.959 . S
O273 C260 1.251 . S
H274 C257 0.930 . S
H275 C268 0.929 . S
Cu276 N277 1.999 . S
Cu276 O282 1.974 . S
Cu276 N287 1.985 . S
Cu276 O296 1.959 . S
N277 Cu276 1.999 . S
N277 C279 1.263 . S
N277 C281 1.389 . S
N278 C279 1.358 . S
N278 C280 1.400 . S
C279 N277 1.263 . S
C279 N278 1.358 . S
C279 H285 0.930 . S
C280 N278 1.400 . S
C280 C281 1.351 . S
C280 H297 0.930 . S
C281 N277 1.389 . S
C281 C280 1.351 . S
C281 H286 0.930 . S
O282 Cu276 1.974 . S
O282 C292 1.282 . S
C283 O284 1.261 . S
C283 O296 1.251 . S
O284 C283 1.261 . S
H285 C279 0.930 . S
H286 C281 0.930 . S
N287 Cu276 1.985 . S
N287 C289 1.335 . S
N287 C290 1.390 . S
N288 C289 1.345 . S
N288 C291 1.336 . S
C289 N287 1.335 . S
C289 N288 1.345 . S
C289 H294 0.930 . S
C290 N287 1.390 . S
C290 C291 1.346 . S
C290 H295 0.930 . S
C291 N288 1.336 . S
C291 C290 1.346 . S
C291 H298 0.929 . S
C292 O282 1.282 . S
C292 O293 1.216 . S
O293 C292 1.216 . S
H294 C289 0.930 . S
H295 C290 0.930 . S
O296 Cu276 1.959 . S
O296 C283 1.251 . S
H297 C280 0.930 . S
H298 C291 0.929 . S
Cu299 N300 1.999 . S
Cu299 O305 1.974 . S
Cu299 N310 1.985 1_565 S
Cu299 O319 1.959 . S
N300 Cu299 1.999 . S
N300 C302 1.263 . S
N300 C304 1.389 . S
N301 C302 1.358 . S
N301 C303 1.400 . S
C302 N300 1.263 . S
C302 N301 1.358 . S
C302 H308 0.930 . S
C303 N301 1.400 . S
C303 C304 1.351 . S
C303 H320 0.930 1_655 S
C304 N300 1.389 . S
C304 C303 1.351 . S
C304 H309 0.930 . S
O305 Cu299 1.974 . S
O305 C315 1.282 . S
C306 O307 1.261 1_545 S
C306 O319 1.251 1_545 S
O307 C306 1.261 1_565 S
H308 C302 0.930 . S
H309 C304 0.930 . S
N310 Cu299 1.985 1_545 S
N310 C312 1.335 . S
N310 C313 1.390 . S
N311 C312 1.345 . S
N311 C314 1.336 . S
C312 N310 1.335 . S
C312 N311 1.345 . S
C312 H317 0.930 . S
C313 N310 1.390 . S
C313 C314 1.346 . S
C313 H318 0.930 1_545 S
C314 N311 1.336 . S
C314 C313 1.346 . S
C314 H321 0.929 . S
C315 O305 1.282 . S
C315 O316 1.216 . S
O316 C315 1.216 . S
H317 C312 0.930 . S
H318 C313 0.930 1_565 S
O319 Cu299 1.959 . S
O319 C306 1.251 1_565 S
H320 C303 0.930 1_455 S
H321 C314 0.929 . S
Cu322 N323 1.999 . S
Cu322 O328 1.974 . S
Cu322 N333 1.985 . S
Cu322 O342 1.959 . S
N323 Cu322 1.999 . S
N323 C325 1.263 1_556 S
N323 C327 1.389 . S
N324 C325 1.358 . S
N324 C326 1.400 1_554 S
C325 N323 1.263 1_554 S
C325 N324 1.358 . S
C325 H331 0.930 . S
C326 N324 1.400 1_556 S
C326 C327 1.351 . S
C326 H343 0.930 . S
C327 N323 1.389 . S
C327 C326 1.351 . S
C327 H332 0.930 . S
O328 Cu322 1.974 . S
O328 C338 1.282 1_556 S
C329 O330 1.261 1_556 S
C329 O342 1.251 . S
O330 C329 1.261 1_554 S
H331 C325 0.930 . S
H332 C327 0.930 . S
N333 Cu322 1.985 . S
N333 C335 1.335 . S
N333 C336 1.390 1_556 S
N334 C335 1.345 . S
N334 C337 1.336 . S
C335 N333 1.335 . S
C335 N334 1.345 . S
C335 H340 0.930 . S
C336 N333 1.390 1_554 S
C336 C337 1.346 1_554 S
C336 H341 0.930 . S
C337 N334 1.336 . S
C337 C336 1.346 1_556 S
C337 H344 0.929 1_556 S
C338 O328 1.282 1_554 S
C338 O339 1.216 . S
O339 C338 1.216 . S
H340 C335 0.930 . S
H341 C336 0.930 . S
O342 Cu322 1.959 . S
O342 C329 1.251 . S
H343 C326 0.930 . S
H344 C337 0.929 1_554 S
Cu345 N346 1.999 . S
Cu345 O351 1.974 . S
Cu345 N356 1.985 1_545 S
Cu345 O365 1.959 . S
N346 Cu345 1.999 . S
N346 C348 1.263 . S
N346 C350 1.389 . S
N347 C348 1.358 . S
N347 C349 1.400 . S
C348 N346 1.263 . S
C348 N347 1.358 . S
C348 H354 0.930 . S
C349 N347 1.400 . S
C349 C350 1.351 . S
C349 H366 0.930 . S
C350 N346 1.389 . S
C350 C349 1.351 . S
C350 H355 0.930 . S
O351 Cu345 1.974 . S
O351 C361 1.282 . S
C352 O353 1.261 1_565 S
C352 O365 1.251 1_565 S
O353 C352 1.261 1_545 S
H354 C348 0.930 . S
H355 C350 0.930 . S
N356 Cu345 1.985 1_565 S
N356 C358 1.335 . S
N356 C359 1.390 . S
N357 C358 1.345 . S
N357 C360 1.336 . S
C358 N356 1.335 . S
C358 N357 1.345 . S
C358 H363 0.930 . S
C359 N356 1.390 . S
C359 C360 1.346 . S
C359 H364 0.930 1_565 S
C360 N357 1.336 . S
C360 C359 1.346 . S
C360 H367 0.929 . S
C361 O351 1.282 . S
C361 O362 1.216 . S
O362 C361 1.216 . S
H363 C358 0.930 . S
H364 C359 0.930 1_545 S
O365 Cu345 1.959 . S
O365 C352 1.251 1_545 S
H366 C349 0.930 . S
H367 C360 0.929 . S
H368 C376 0.950 . S
H369 C381 0.950 . S
H370 C378 0.950 . S
H371 C380 0.950 . S
H372 C382 0.950 . S
H373 C384 0.956 . S
H374 C386 0.950 . S
H375 C387 0.950 . S
C376 H368 0.950 . S
C376 C377 1.386 . S
C376 C378 1.391 . S
C377 C376 1.386 . S
C377 C381 1.393 1_554 S
C378 H370 0.950 . S
C378 C376 1.391 . S
C378 C379 1.400 . S
C379 C378 1.400 . S
C379 C380 1.398 1_554 S
C379 C385 1.491 1_554 S
C380 H371 0.950 . S
C380 C379 1.398 1_556 S
C380 C381 1.391 . S
C381 H369 0.950 . S
C381 C377 1.393 1_556 S
C381 C380 1.391 . S
C382 H372 0.950 . S
C382 C383 1.386 . S
C382 C384 1.385 1_545 S
C383 C382 1.386 . S
C383 C387 1.393 1_556 S
C384 H373 0.956 . S
C384 C382 1.385 1_565 S
C384 C385 1.401 . S
C385 C379 1.491 1_556 S
C385 C384 1.401 . S
C385 C386 1.398 1_566 S
C386 H374 0.950 . S
C386 C385 1.398 1_544 S
C386 C387 1.391 . S
C387 H375 0.950 . S
C387 C383 1.393 1_554 S
C387 C386 1.391 . S
H388 C396 0.950 . S
H389 C401 0.950 . S
H390 C398 0.950 . S
H391 C400 0.950 . S
H392 C402 0.950 . S
H393 C404 0.950 . S
H394 C406 0.950 . S
H395 C407 0.950 . S
C396 H388 0.950 . S
C396 C397 1.386 . S
C396 C398 1.391 . S
C397 C396 1.386 . S
C397 C401 1.393 . S
C398 H390 0.950 . S
C398 C396 1.391 . S
C398 C399 1.400 . S
C399 C398 1.400 . S
C399 C400 1.398 . S
C399 C405 1.491 . S
C400 H391 0.950 . S
C400 C399 1.398 . S
C400 C401 1.391 . S
C401 H389 0.950 . S
C401 C397 1.393 . S
C401 C400 1.391 . S
C402 H392 0.950 . S
C402 C403 1.386 . S
C402 C404 1.391 . S
C403 C402 1.386 . S
C403 C407 1.393 . S
C404 H393 0.950 . S
C404 C402 1.391 . S
C404 C405 1.400 . S
C405 C399 1.491 . S
C405 C404 1.400 . S
C405 C406 1.398 . S
C406 H394 0.950 . S
C406 C405 1.398 . S
C406 C407 1.391 . S
C407 H395 0.950 . S
C407 C403 1.393 . S
C407 C406 1.391 . S
H408 C416 0.950 . S
H409 C421 0.950 . S
H410 C418 0.950 . S
H411 C420 0.950 1_545 S
H412 C422 0.950 . S
H413 C424 0.950 . S
H414 C426 0.950 . S
H415 C427 0.950 . S
C416 H408 0.950 . S
C416 C417 1.386 . S
C416 C418 1.391 . S
C417 C416 1.386 . S
C417 C421 1.393 . S
C418 H410 0.950 . S
C418 C416 1.391 . S
C418 C419 1.400 1_565 S
C419 C418 1.400 1_545 S
C419 C420 1.398 1_545 S
C419 C425 1.491 1_455 S
C420 H411 0.950 1_565 S
C420 C419 1.398 1_565 S
C420 C421 1.391 . S
C421 H409 0.950 . S
C421 C417 1.393 . S
C421 C420 1.391 . S
C422 H412 0.950 . S
C422 C423 1.386 . S
C422 C424 1.391 . S
C423 C422 1.386 . S
C423 C427 1.393 . S
C424 H413 0.950 . S
C424 C422 1.391 . S
C424 C425 1.400 . S
C425 C419 1.491 1_655 S
C425 C424 1.400 . S
C425 C426 1.398 . S
C426 H414 0.950 . S
C426 C425 1.398 . S
C426 C427 1.391 . S
C427 H415 0.950 . S
C427 C423 1.393 . S
C427 C426 1.391 . S
H428 C436 0.950 . S
H429 C441 0.950 . S
H430 C438 0.950 . S
H431 C440 0.950 . S
H432 C442 0.950 . S
H433 C444 0.950 . S
H434 C446 0.950 . S
H435 C447 0.950 . S
C436 H428 0.950 . S
C436 C437 1.386 . S
C436 C438 1.391 . S
C437 C436 1.386 . S
C437 C441 1.393 . S
C438 H430 0.950 . S
C438 C436 1.391 . S
C438 C439 1.400 . S
C439 C438 1.400 . S
C439 C440 1.398 . S
C439 C445 1.491 . S
C440 H431 0.950 . S
C440 C439 1.398 . S
C440 C441 1.391 . S
C441 H429 0.950 . S
C441 C437 1.393 . S
C441 C440 1.391 . S
C442 H432 0.950 . S
C442 C443 1.386 . S
C442 C444 1.391 . S
C443 C442 1.386 . S
C443 C447 1.393 . S
C444 H433 0.950 . S
C444 C442 1.391 . S
C444 C445 1.400 . S
C445 C439 1.491 . S
C445 C444 1.400 . S
C445 C446 1.398 . S
C446 H434 0.950 . S
C446 C445 1.398 . S
C446 C447 1.391 . S
C447 H435 0.950 . S
C447 C443 1.393 . S
C447 C446 1.391 . S
H448 C456 0.950 . S
H449 C461 0.950 . S
H450 C458 0.950 . S
H451 C460 0.950 . S
H452 C462 0.950 . S
H453 C464 0.950 . S
H454 C466 0.950 . S
H455 C467 0.950 . S
C456 H448 0.950 . S
C456 C457 1.386 . S
C456 C458 1.391 . S
C457 C456 1.386 . S
C457 C461 1.393 . S
C458 H450 0.950 . S
C458 C456 1.391 . S
C458 C459 1.400 . S
C459 C458 1.400 . S
C459 C460 1.398 . S
C459 C465 1.491 . S
C460 H451 0.950 . S
C460 C459 1.398 . S
C460 C461 1.391 . S
C461 H449 0.950 . S
C461 C457 1.393 . S
C461 C460 1.391 . S
C462 H452 0.950 . S
C462 C463 1.386 . S
C462 C464 1.391 . S
C463 C462 1.386 . S
C463 C467 1.393 . S
C464 H453 0.950 . S
C464 C462 1.391 . S
C464 C465 1.400 . S
C465 C459 1.491 . S
C465 C464 1.400 . S
C465 C466 1.398 . S
C466 H454 0.950 . S
C466 C465 1.398 . S
C466 C467 1.391 . S
C467 H455 0.950 . S
C467 C463 1.393 . S
C467 C466 1.391 . S
H468 C476 0.950 . S
H469 C481 0.950 . S
H470 C478 0.950 . S
H471 C480 0.950 . S
H472 C482 0.950 . S
H473 C484 0.950 . S
H474 C486 0.950 . S
H475 C487 0.950 . S
C476 H468 0.950 . S
C476 C477 1.386 . S
C476 C478 1.391 . S
C477 C476 1.386 . S
C477 C481 1.393 . S
C478 H470 0.950 . S
C478 C476 1.391 . S
C478 C479 1.400 . S
C479 C478 1.400 . S
C479 C480 1.398 . S
C479 C485 1.491 . S
C480 H471 0.950 . S
C480 C479 1.398 . S
C480 C481 1.391 . S
C481 H469 0.950 . S
C481 C477 1.393 . S
C481 C480 1.391 . S
C482 H472 0.950 . S
C482 C483 1.386 . S
C482 C484 1.391 . S
C483 C482 1.386 . S
C483 C487 1.393 . S
C484 H473 0.950 . S
C484 C482 1.391 . S
C484 C485 1.400 . S
C485 C479 1.491 . S
C485 C484 1.400 . S
C485 C486 1.398 . S
C486 H474 0.950 . S
C486 C485 1.398 . S
C486 C487 1.391 . S
C487 H475 0.950 . S
C487 C483 1.393 . S
C487 C486 1.391 . S
H488 C496 0.950 . S
H489 C501 0.950 . S
H490 C498 0.950 1_455 S
H491 C500 0.950 . S
H492 C502 0.950 . S
H493 C504 0.950 1_655 S
H494 C506 0.950 . S
H495 C507 0.950 . S
C496 H488 0.950 . S
C496 C497 1.386 . S
C496 C498 1.391 . S
C497 C496 1.386 . S
C497 C501 1.393 . S
C498 H490 0.950 1_655 S
C498 C496 1.391 . S
C498 C499 1.400 . S
C499 C498 1.400 . S
C499 C500 1.398 . S
C499 C505 1.491 1_655 S
C500 H491 0.950 . S
C500 C499 1.398 . S
C500 C501 1.391 . S
C501 H489 0.950 . S
C501 C497 1.393 . S
C501 C500 1.391 . S
C502 H492 0.950 . S
C502 C503 1.386 . S
C502 C504 1.391 . S
C503 C502 1.386 . S
C503 C507 1.393 . S
C504 H493 0.950 1_455 S
C504 C502 1.391 . S
C504 C505 1.400 . S
C505 C499 1.491 1_455 S
C505 C504 1.400 . S
C505 C506 1.398 . S
C506 H494 0.950 . S
C506 C505 1.398 . S
C506 C507 1.391 . S
C507 H495 0.950 . S
C507 C503 1.393 . S
C507 C506 1.391 . S
H508 C516 0.950 . S
H509 C521 0.950 . S
H510 C518 0.950 . S
H511 C520 0.950 . S
H512 C522 0.950 . S
H513 C524 0.950 . S
H514 C526 0.950 . S
H515 C527 0.950 . S
C516 H508 0.950 . S
C516 C517 1.386 1_556 S
C516 C518 1.391 . S
C517 C516 1.386 1_554 S
C517 C521 1.393 . S
C518 H510 0.950 . S
C518 C516 1.391 . S
C518 C519 1.400 1_556 S
C519 C518 1.400 1_554 S
C519 C520 1.398 . S
C519 C525 1.491 1_554 S
C520 H511 0.950 . S
C520 C519 1.398 . S
C520 C521 1.391 . S
C521 H509 0.950 . S
C521 C517 1.393 . S
C521 C520 1.391 . S
C522 H512 0.950 . S
C522 C523 1.386 1_554 S
C522 C524 1.391 . S
C523 C522 1.386 1_556 S
C523 C527 1.393 . S
C524 H513 0.950 . S
C524 C522 1.391 . S
C524 C525 1.400 1_554 S
C525 C519 1.491 1_556 S
C525 C524 1.400 1_556 S
C525 C526 1.398 . S
C526 H514 0.950 . S
C526 C525 1.398 . S
C526 C527 1.391 . S
C527 H515 0.950 . S
C527 C523 1.393 . S
C527 C526 1.391 . S
H528 C536 0.950 . S
H529 C541 0.950 . S
H530 C538 0.950 . S
H531 C540 0.950 . S
H532 C542 0.950 1_556 S
H533 C544 0.950 . S
H534 C546 0.950 . S
H535 C547 0.950 . S
C536 H528 0.950 . S
C536 C537 1.386 . S
C536 C538 1.391 . S
C537 C536 1.386 . S
C537 C541 1.393 . S
C538 H530 0.950 . S
C538 C536 1.391 . S
C538 C539 1.400 . S
C539 C538 1.400 . S
C539 C540 1.398 . S
C539 C545 1.491 . S
C540 H531 0.950 . S
C540 C539 1.398 . S
C540 C541 1.391 . S
C541 H529 0.950 . S
C541 C537 1.393 . S
C541 C540 1.391 . S
C542 H532 0.950 1_554 S
C542 C543 1.386 . S
C542 C544 1.391 . S
C543 C542 1.386 . S
C543 C547 1.393 . S
C544 H533 0.950 . S
C544 C542 1.391 . S
C544 C545 1.400 . S
C545 C539 1.491 . S
C545 C544 1.400 . S
C545 C546 1.398 . S
C546 H534 0.950 . S
C546 C545 1.398 . S
C546 C547 1.391 . S
C547 H535 0.950 . S
C547 C543 1.393 . S
C547 C546 1.391 . S
H548 C556 0.950 . S
H549 C561 0.950 . S
H550 C558 0.950 . S
H551 C560 0.950 . S
H552 C562 0.950 . S
H553 C564 0.950 . S
H554 C566 0.950 . S
H555 C567 0.950 . S
C556 H548 0.950 . S
C556 C557 1.386 . S
C556 C558 1.391 . S
C557 C556 1.386 . S
C557 C561 1.393 . S
C558 H550 0.950 . S
C558 C556 1.391 . S
C558 C559 1.400 . S
C559 C558 1.400 . S
C559 C560 1.398 . S
C559 C565 1.491 . S
C560 H551 0.950 . S
C560 C559 1.398 . S
C560 C561 1.391 . S
C561 H549 0.950 . S
C561 C557 1.393 . S
C561 C560 1.391 . S
C562 H552 0.950 . S
C562 C563 1.386 . S
C562 C564 1.391 . S
C563 C562 1.386 . S
C563 C567 1.393 . S
C564 H553 0.950 . S
C564 C562 1.391 . S
C564 C565 1.400 . S
C565 C559 1.491 . S
C565 C564 1.400 . S
C565 C566 1.398 . S
C566 H554 0.950 . S
C566 C565 1.398 . S
C566 C567 1.391 . S
C567 H555 0.950 . S
C567 C563 1.393 . S
C567 C566 1.391 . S
H568 C576 0.950 . S
H569 C581 0.950 . S
H570 C578 0.950 . S
H571 C580 0.950 . S
H572 C582 0.950 . S
H573 C584 0.950 . S
H574 C586 0.950 . S
H575 C587 0.950 . S
C576 H568 0.950 . S
C576 C577 1.386 . S
C576 C578 1.391 . S
C577 C576 1.386 . S
C577 C581 1.393 . S
C578 H570 0.950 . S
C578 C576 1.391 . S
C578 C579 1.400 . S
C579 C578 1.400 . S
C579 C580 1.398 . S
C579 C585 1.491 . S
C580 H571 0.950 . S
C580 C579 1.398 . S
C580 C581 1.391 . S
C581 H569 0.950 . S
C581 C577 1.393 . S
C581 C580 1.391 . S
C582 H572 0.950 . S
C582 C583 1.386 . S
C582 C584 1.391 . S
C583 C582 1.386 . S
C583 C587 1.393 . S
C584 H573 0.950 . S
C584 C582 1.391 . S
C584 C585 1.400 . S
C585 C579 1.491 . S
C585 C584 1.400 . S
C585 C586 1.398 . S
C586 H574 0.950 . S
C586 C585 1.398 . S
C586 C587 1.391 . S
C587 H575 0.950 . S
C587 C583 1.393 . S
C587 C586 1.391 . S
H588 C596 0.950 . S
H589 C601 0.950 . S
H590 C598 0.950 . S
H591 C600 0.950 . S
H592 C602 0.950 . S
H593 C604 0.950 . S
H594 C606 0.950 . S
H595 C607 0.950 . S
C596 H588 0.950 . S
C596 C597 1.386 . S
C596 C598 1.391 . S
C597 C596 1.386 . S
C597 C601 1.393 . S
C598 H590 0.950 . S
C598 C596 1.391 . S
C598 C599 1.400 . S
C599 C598 1.400 . S
C599 C600 1.398 . S
C599 C605 1.491 . S
C600 H591 0.950 . S
C600 C599 1.398 . S
C600 C601 1.391 . S
C601 H589 0.950 . S
C601 C597 1.393 . S
C601 C600 1.391 . S
C602 H592 0.950 . S
C602 C603 1.386 . S
C602 C604 1.391 . S
C603 C602 1.386 . S
C603 C607 1.393 . S
C604 H593 0.950 . S
C604 C602 1.391 . S
C604 C605 1.400 . S
C605 C599 1.491 . S
C605 C604 1.400 . S
C605 C606 1.398 . S
C606 H594 0.950 . S
C606 C605 1.398 . S
C606 C607 1.391 . S
C607 H595 0.950 . S
C607 C603 1.393 . S
C607 C606 1.391 . S
H608 C616 0.950 . S
H609 C621 0.950 . S
H610 C618 0.950 . S
H611 C620 0.950 . S
H612 C622 0.950 . S
H613 C624 0.950 . S
H614 C626 0.950 . S
H615 C627 0.950 . S
C616 H608 0.950 . S
C616 C617 1.386 . S
C616 C618 1.391 . S
C617 C616 1.386 . S
C617 C621 1.393 . S
C618 H610 0.950 . S
C618 C616 1.391 . S
C618 C619 1.400 . S
C619 C618 1.400 . S
C619 C620 1.398 . S
C619 C625 1.491 . S
C620 H611 0.950 . S
C620 C619 1.398 . S
C620 C621 1.391 . S
C621 H609 0.950 . S
C621 C617 1.393 . S
C621 C620 1.391 . S
C622 H612 0.950 . S
C622 C623 1.386 . S
C622 C624 1.391 . S
C623 C622 1.386 . S
C623 C627 1.393 . S
C624 H613 0.950 . S
C624 C622 1.391 . S
C624 C625 1.400 . S
C625 C619 1.491 . S
C625 C624 1.400 . S
C625 C626 1.398 . S
C626 H614 0.950 . S
C626 C625 1.398 . S
C626 C627 1.391 . S
C627 H615 0.950 . S
C627 C623 1.393 . S
C627 C626 1.391 . S
H628 C636 0.950 . S
H629 C641 0.950 . S
H630 C638 0.950 . S
H631 C640 0.950 . S
H632 C642 0.950 . S
H633 C644 0.950 . S
H634 C646 0.950 . S
H635 C647 0.950 . S
C636 H628 0.950 . S
C636 C637 1.386 . S
C636 C638 1.391 . S
C637 C636 1.386 . S
C637 C641 1.393 . S
C638 H630 0.950 . S
C638 C636 1.391 . S
C638 C639 1.400 . S
C639 C638 1.400 . S
C639 C640 1.398 . S
C639 C645 1.491 . S
C640 H631 0.950 . S
C640 C639 1.398 . S
C640 C641 1.391 . S
C641 H629 0.950 . S
C641 C637 1.393 . S
C641 C640 1.391 . S
C642 H632 0.950 . S
C642 C643 1.386 . S
C642 C644 1.391 . S
C643 C642 1.386 . S
C643 C647 1.393 . S
C644 H633 0.950 . S
C644 C642 1.391 . S
C644 C645 1.400 . S
C645 C639 1.491 . S
C645 C644 1.400 . S
C645 C646 1.398 . S
C646 H634 0.950 . S
C646 C645 1.398 . S
C646 C647 1.391 . S
C647 H635 0.950 . S
C647 C643 1.393 . S
C647 C646 1.391 . S
H648 C656 0.950 . S
H649 C661 0.950 . S
H650 C658 0.950 . S
H651 C660 0.950 . S
H652 C662 0.950 . S
H653 C664 0.950 . S
H654 C666 0.950 . S
H655 C667 0.950 . S
C656 H648 0.950 . S
C656 C657 1.386 . S
C656 C658 1.391 . S
C657 C656 1.386 . S
C657 C661 1.393 . S
C658 H650 0.950 . S
C658 C656 1.391 . S
C658 C659 1.400 . S
C659 C658 1.400 . S
C659 C660 1.398 . S
C659 C665 1.491 . S
C660 H651 0.950 . S
C660 C659 1.398 . S
C660 C661 1.391 . S
C661 H649 0.950 . S
C661 C657 1.393 . S
C661 C660 1.391 . S
C662 H652 0.950 . S
C662 C663 1.386 . S
C662 C664 1.391 . S
C663 C662 1.386 . S
C663 C667 1.393 . S
C664 H653 0.950 . S
C664 C662 1.391 . S
C664 C665 1.400 . S
C665 C659 1.491 . S
C665 C664 1.400 . S
C665 C666 1.398 . S
C666 H654 0.950 . S
C666 C665 1.398 . S
C666 C667 1.391 . S
C667 H655 0.950 . S
C667 C663 1.393 . S
C667 C666 1.391 . S
H668 C676 0.950 . S
H669 C681 0.950 1_455 S
H670 C678 0.950 . S
H671 C680 0.950 . S
H672 C682 0.950 . S
H673 C684 0.950 . S
H674 C686 0.950 . S
H675 C687 0.950 . S
C676 H668 0.950 . S
C676 C677 1.386 . S
C676 C678 1.391 . S
C677 C676 1.386 . S
C677 C681 1.393 . S
C678 H670 0.950 . S
C678 C676 1.391 . S
C678 C679 1.400 . S
C679 C678 1.400 . S
C679 C680 1.398 . S
C679 C685 1.491 . S
C680 H671 0.950 . S
C680 C679 1.398 . S
C680 C681 1.391 . S
C681 H669 0.950 1_655 S
C681 C677 1.393 . S
C681 C680 1.391 . S
C682 H672 0.950 . S
C682 C683 1.386 . S
C682 C684 1.391 . S
C683 C682 1.386 . S
C683 C687 1.393 . S
C684 H673 0.950 . S
C684 C682 1.391 . S
C684 C685 1.400 . S
C685 C679 1.491 . S
C685 C684 1.400 . S
C685 C686 1.398 . S
C686 H674 0.950 . S
C686 C685 1.398 . S
C686 C687 1.391 . S
C687 H675 0.950 . S
C687 C683 1.393 . S
C687 C686 1.391 . S
H688 C696 0.950 . S
H689 C701 0.950 . S
H690 C698 0.950 . S
H691 C700 0.950 . S
H692 C702 0.950 . S
H693 C704 0.950 . S
H694 C706 0.950 . S
H695 C707 0.950 . S
C696 H688 0.950 . S
C696 C697 1.386 . S
C696 C698 1.391 . S
C697 C696 1.386 . S
C697 C701 1.393 . S
C698 H690 0.950 . S
C698 C696 1.391 . S
C698 C699 1.400 . S
C699 C698 1.400 . S
C699 C700 1.398 . S
C699 C705 1.491 . S
C700 H691 0.950 . S
C700 C699 1.398 . S
C700 C701 1.391 . S
C701 H689 0.950 . S
C701 C697 1.393 . S
C701 C700 1.391 . S
C702 H692 0.950 . S
C702 C703 1.386 . S
C702 C704 1.391 . S
C703 C702 1.386 . S
C703 C707 1.393 . S
C704 H693 0.950 . S
C704 C702 1.391 . S
C704 C705 1.400 . S
C705 C699 1.491 . S
C705 C704 1.400 . S
C705 C706 1.398 . S
C706 H694 0.950 . S
C706 C705 1.398 . S
C706 C707 1.391 . S
C707 H695 0.950 . S
C707 C703 1.393 . S
C707 C706 1.391 . S
H708 C716 0.950 . S
H709 C721 0.950 . S
H710 C718 0.950 . S
H711 C720 0.950 . S
H712 C722 0.933 1_455 S
H713 C724 0.950 . S
H714 C726 0.936 1_545 S
H715 C727 0.950 1_545 S
C716 H708 0.950 . S
C716 C717 1.386 . S
C716 C718 1.391 . S
C717 C716 1.386 . S
C717 C721 1.393 . S
C718 H710 0.950 . S
C718 C716 1.391 . S
C718 C719 1.400 . S
C719 C718 1.400 . S
C719 C720 1.398 . S
C719 C725 1.491 . S
C720 H711 0.950 . S
C720 C719 1.398 . S
C720 C721 1.391 . S
C721 H709 0.950 . S
C721 C717 1.393 . S
C721 C720 1.391 . S
C722 H712 0.933 1_655 S
C722 C723 1.386 . S
C722 C724 1.391 . S
C723 C722 1.386 . S
C723 C727 1.393 . S
C724 H713 0.950 . S
C724 C722 1.391 . S
C724 C725 1.400 . S
C725 C719 1.491 . S
C725 C724 1.400 . S
C725 C726 1.398 . S
C726 H714 0.936 1_565 S
C726 C725 1.398 . S
C726 C727 1.391 . S
C727 H715 0.950 1_565 S
C727 C723 1.393 . S
C727 C726 1.391 . S
H728 C736 0.950 . S
H729 C741 0.950 . S
H730 C738 0.950 . S
H731 C740 0.950 . S
H732 C742 0.950 . S
H733 C744 0.950 . S
H734 C746 0.950 . S
H735 C747 0.950 1_556 S
C736 H728 0.950 . S
C736 C737 1.386 . S
C736 C738 1.391 . S
C737 C736 1.386 . S
C737 C741 1.393 . S
C738 H730 0.950 . S
C738 C736 1.391 . S
C738 C739 1.400 . S
C739 C738 1.400 . S
C739 C740 1.398 . S
C739 C745 1.491 . S
C740 H731 0.950 . S
C740 C739 1.398 . S
C740 C741 1.391 . S
C741 H729 0.950 . S
C741 C737 1.393 . S
C741 C740 1.391 . S
C742 H732 0.950 . S
C742 C743 1.386 . S
C742 C744 1.391 . S
C743 C742 1.386 . S
C743 C747 1.393 . S
C744 H733 0.950 . S
C744 C742 1.391 . S
C744 C745 1.400 . S
C745 C739 1.491 . S
C745 C744 1.400 . S
C745 C746 1.398 . S
C746 H734 0.950 . S
C746 C745 1.398 . S
C746 C747 1.391 . S
C747 H735 0.950 1_554 S
C747 C743 1.393 . S
C747 C746 1.391 . S
H748 C756 0.950 . S
H749 C761 0.950 . S
H750 C758 0.950 . S
H751 C760 0.950 . S
H752 C762 0.950 . S
H753 C764 0.950 . S
H754 C766 0.950 . S
H755 C767 0.950 . S
C756 H748 0.950 . S
C756 C757 1.386 . S
C756 C758 1.391 . S
C757 C756 1.386 . S
C757 C761 1.393 . S
C758 H750 0.950 . S
C758 C756 1.391 . S
C758 C759 1.400 . S
C759 C758 1.400 . S
C759 C760 1.398 . S
C759 C765 1.491 . S
C760 H751 0.950 . S
C760 C759 1.398 . S
C760 C761 1.391 . S
C761 H749 0.950 . S
C761 C757 1.393 . S
C761 C760 1.391 . S
C762 H752 0.950 . S
C762 C763 1.386 . S
C762 C764 1.391 . S
C763 C762 1.386 . S
C763 C767 1.393 . S
C764 H753 0.950 . S
C764 C762 1.391 . S
C764 C765 1.400 . S
C765 C759 1.491 . S
C765 C764 1.400 . S
C765 C766 1.398 . S
C766 H754 0.950 . S
C766 C765 1.398 . S
C766 C767 1.391 . S
C767 H755 0.950 . S
C767 C763 1.393 . S
C767 C766 1.391 . S
H768 C776 0.950 . S
H769 C781 0.950 . S
H770 C778 0.950 . S
H771 C780 0.950 . S
H772 C782 0.950 . S
H773 C784 0.950 . S
H774 C786 0.950 . S
H775 C787 0.950 . S
C776 H768 0.950 . S
C776 C777 1.386 . S
C776 C778 1.391 . S
C777 C776 1.386 . S
C777 C781 1.393 . S
C778 H770 0.950 . S
C778 C776 1.391 . S
C778 C779 1.400 . S
C779 C778 1.400 . S
C779 C780 1.398 . S
C779 C785 1.491 . S
C780 H771 0.950 . S
C780 C779 1.398 . S
C780 C781 1.391 . S
C781 H769 0.950 . S
C781 C777 1.393 . S
C781 C780 1.391 . S
C782 H772 0.950 . S
C782 C783 1.386 . S
C782 C784 1.391 . S
C783 C782 1.386 . S
C783 C787 1.393 . S
C784 H773 0.950 . S
C784 C782 1.391 . S
C784 C785 1.400 . S
C785 C779 1.491 . S
C785 C784 1.400 . S
C785 C786 1.398 . S
C786 H774 0.950 . S
C786 C785 1.398 . S
C786 C787 1.391 . S
C787 H775 0.950 . S
C787 C783 1.393 . S
C787 C786 1.391 . S
H788 C796 0.950 1_565 S
H789 C801 0.950 1_655 S
H790 C798 0.950 . S
H791 C800 0.950 . S
H792 C802 0.950 . S
H793 C804 0.950 . S
H794 C806 0.950 . S
H795 C807 0.950 . S
C796 H788 0.950 1_545 S
C796 C797 1.386 . S
C796 C798 1.391 . S
C797 C796 1.386 . S
C797 C801 1.393 . S
C798 H790 0.950 . S
C798 C796 1.391 . S
C798 C799 1.400 . S
C799 C798 1.400 . S
C799 C800 1.398 . S
C799 C805 1.491 . S
C800 H791 0.950 . S
C800 C799 1.398 . S
C800 C801 1.391 . S
C801 H789 0.950 1_455 S
C801 C797 1.393 . S
C801 C800 1.391 . S
C802 H792 0.950 . S
C802 C803 1.386 . S
C802 C804 1.391 . S
C803 C802 1.386 . S
C803 C807 1.393 . S
C804 H793 0.950 . S
C804 C802 1.391 . S
C804 C805 1.400 . S
C805 C799 1.491 . S
C805 C804 1.400 . S
C805 C806 1.398 . S
C806 H794 0.950 . S
C806 C805 1.398 . S
C806 C807 1.391 . S
C807 H795 0.950 . S
C807 C803 1.393 . S
C807 C806 1.391 . S
H808 C816 0.950 . S
H809 C821 0.950 . S
H810 C818 0.950 . S
H811 C820 0.950 . S
H812 C822 0.950 . S
H813 C824 0.950 . S
H814 C826 0.950 . S
H815 C827 0.950 . S
C816 H808 0.950 . S
C816 C817 1.386 . S
C816 C818 1.391 . S
C817 C816 1.386 . S
C817 C821 1.393 . S
C818 H810 0.950 . S
C818 C816 1.391 . S
C818 C819 1.400 . S
C819 C818 1.400 . S
C819 C820 1.398 . S
C819 C825 1.491 . S
C820 H811 0.950 . S
C820 C819 1.398 . S
C820 C821 1.391 . S
C821 H809 0.950 . S
C821 C817 1.393 . S
C821 C820 1.391 . S
C822 H812 0.950 . S
C822 C823 1.386 . S
C822 C824 1.391 . S
C823 C822 1.386 . S
C823 C827 1.393 . S
C824 H813 0.950 . S
C824 C822 1.391 . S
C824 C825 1.400 . S
C825 C819 1.491 . S
C825 C824 1.400 . S
C825 C826 1.398 . S
C826 H814 0.950 . S
C826 C825 1.398 . S
C826 C827 1.391 . S
C827 H815 0.950 . S
C827 C823 1.393 . S
C827 C826 1.391 . S
H828 C836 0.950 . S
H829 C841 0.950 . S
H830 C838 0.950 . S
H831 C840 0.950 . S
H832 C842 0.950 . S
H833 C844 0.950 1_545 S
H834 C846 0.950 . S
H835 C847 0.950 . S
C836 H828 0.950 . S
C836 C837 1.386 . S
C836 C838 1.391 . S
C837 C836 1.386 . S
C837 C841 1.393 . S
C838 H830 0.950 . S
C838 C836 1.391 . S
C838 C839 1.400 . S
C839 C838 1.400 . S
C839 C840 1.398 . S
C839 C845 1.491 . S
C840 H831 0.950 . S
C840 C839 1.398 . S
C840 C841 1.391 . S
C841 H829 0.950 . S
C841 C837 1.393 . S
C841 C840 1.391 . S
C842 H832 0.950 . S
C842 C843 1.386 1_545 S
C842 C844 1.391 1_545 S
C843 C842 1.386 1_565 S
C843 C847 1.393 . S
C844 H833 0.950 1_565 S
C844 C842 1.391 1_565 S
C844 C845 1.400 . S
C845 C839 1.491 . S
C845 C844 1.400 . S
C845 C846 1.398 . S
C846 H834 0.950 . S
C846 C845 1.398 . S
C846 C847 1.391 . S
C847 H835 0.950 . S
C847 C843 1.393 . S
C847 C846 1.391 . S
H848 C856 0.950 . S
H849 C861 0.950 . S
H850 C858 0.950 . S
H851 C860 0.950 . S
H852 C862 0.950 . S
H853 C864 0.950 . S
H854 C866 0.950 . S
H855 C867 0.950 . S
C856 H848 0.950 . S
C856 C857 1.386 . S
C856 C858 1.391 . S
C857 C856 1.386 . S
C857 C861 1.393 . S
C858 H850 0.950 . S
C858 C856 1.391 . S
C858 C859 1.400 . S
C859 C858 1.400 . S
C859 C860 1.398 . S
C859 C865 1.491 . S
C860 H851 0.950 . S
C860 C859 1.398 . S
C860 C861 1.391 . S
C861 H849 0.950 . S
C861 C857 1.393 . S
C861 C860 1.391 . S
C862 H852 0.950 . S
C862 C863 1.386 . S
C862 C864 1.391 . S
C863 C862 1.386 . S
C863 C867 1.393 . S
C864 H853 0.950 . S
C864 C862 1.391 . S
C864 C865 1.400 . S
C865 C859 1.491 . S
C865 C864 1.400 . S
C865 C866 1.398 . S
C866 H854 0.950 . S
C866 C865 1.398 . S
C866 C867 1.391 . S
C867 H855 0.950 . S
C867 C863 1.393 . S
C867 C866 1.391 . S
H868 C876 0.950 . S
H869 C881 0.950 . S
H870 C878 0.950 . S
H871 C880 0.950 . S
H872 C882 0.950 . S
H873 C884 0.950 . S
H874 C886 0.950 . S
H875 C887 0.950 . S
C876 H868 0.950 . S
C876 C877 1.386 . S
C876 C878 1.391 . S
C877 C876 1.386 . S
C877 C881 1.393 . S
C878 H870 0.950 . S
C878 C876 1.391 . S
C878 C879 1.400 . S
C879 C878 1.400 . S
C879 C880 1.398 . S
C879 C885 1.491 . S
C880 H871 0.950 . S
C880 C879 1.398 . S
C880 C881 1.391 . S
C881 H869 0.950 . S
C881 C877 1.393 . S
C881 C880 1.391 . S
C882 H872 0.950 . S
C882 C883 1.386 . S
C882 C884 1.391 . S
C883 C882 1.386 . S
C883 C887 1.393 . S
C884 H873 0.950 . S
C884 C882 1.391 . S
C884 C885 1.400 . S
C885 C879 1.491 . S
C885 C884 1.400 . S
C885 C886 1.398 . S
C886 H874 0.950 . S
C886 C885 1.398 . S
C886 C887 1.391 . S
C887 H875 0.950 . S
C887 C883 1.393 . S
C887 C886 1.391 . S
H888 C896 0.950 . S
H889 C901 0.950 . S
H890 C898 0.950 . S
H891 C900 0.950 1_655 S
H892 C902 0.950 . S
H893 C904 0.950 . S
H894 C906 0.950 1_455 S
H895 C907 0.950 . S
C896 H888 0.950 . S
C896 C897 1.386 . S
C896 C898 1.391 . S
C897 C896 1.386 . S
C897 C901 1.393 . S
C898 H890 0.950 . S
C898 C896 1.391 . S
C898 C899 1.400 . S
C899 C898 1.400 . S
C899 C900 1.398 . S
C899 C905 1.491 1_455 S
C900 H891 0.950 1_455 S
C900 C899 1.398 . S
C900 C901 1.391 . S
C901 H889 0.950 . S
C901 C897 1.393 . S
C901 C900 1.391 . S
C902 H892 0.950 . S
C902 C903 1.386 . S
C902 C904 1.391 . S
C903 C902 1.386 . S
C903 C907 1.393 . S
C904 H893 0.950 . S
C904 C902 1.391 . S
C904 C905 1.400 . S
C905 C899 1.491 1_655 S
C905 C904 1.400 . S
C905 C906 1.398 . S
C906 H894 0.950 1_655 S
C906 C905 1.398 . S
C906 C907 1.391 . S
C907 H895 0.950 . S
C907 C903 1.393 . S
C907 C906 1.391 . S
H908 C916 0.950 . S
H909 C921 0.950 . S
H910 C918 0.937 1_655 S
H911 C920 0.950 . S
H912 C922 0.950 . S
H913 C924 0.936 1_455 S
H914 C926 0.950 . S
H915 C927 0.950 . S
C916 H908 0.950 . S
C916 C917 1.386 . S
C916 C918 1.399 . S
C917 C916 1.386 . S
C917 C921 1.393 . S
C918 H910 0.937 1_455 S
C918 C916 1.399 . S
C918 C919 1.406 . S
C919 C918 1.406 . S
C919 C920 1.398 . S
C919 C925 1.491 1_455 S
C920 H911 0.950 . S
C920 C919 1.398 . S
C920 C921 1.391 . S
C921 H909 0.950 . S
C921 C917 1.393 . S
C921 C920 1.391 . S
C922 H912 0.950 . S
C922 C923 1.386 . S
C922 C924 1.399 . S
C923 C922 1.386 . S
C923 C927 1.393 . S
C924 H913 0.936 1_655 S
C924 C922 1.399 . S
C924 C925 1.406 . S
C925 C919 1.491 1_655 S
C925 C924 1.406 . S
C925 C926 1.398 . S
C926 H914 0.950 . S
C926 C925 1.398 . S
C926 C927 1.391 . S
C927 H915 0.950 . S
C927 C923 1.393 . S
C927 C926 1.391 . S
H928 C936 0.950 . S
H929 C941 0.950 . S
H930 C938 0.950 . S
H931 C940 0.950 . S
H932 C942 0.950 . S
H933 C944 0.950 . S
H934 C946 0.950 . S
H935 C947 0.950 . S
C936 H928 0.950 . S
C936 C937 1.386 1_556 S
C936 C938 1.391 . S
C937 C936 1.386 1_554 S
C937 C941 1.393 . S
C938 H930 0.950 . S
C938 C936 1.391 . S
C938 C939 1.400 1_556 S
C939 C938 1.400 1_554 S
C939 C940 1.398 . S
C939 C945 1.491 . S
C940 H931 0.950 . S
C940 C939 1.398 . S
C940 C941 1.391 . S
C941 H929 0.950 . S
C941 C937 1.393 . S
C941 C940 1.391 . S
C942 H932 0.950 . S
C942 C943 1.386 . S
C942 C944 1.391 . S
C943 C942 1.386 . S
C943 C947 1.393 1_554 S
C944 H933 0.950 . S
C944 C942 1.391 . S
C944 C945 1.400 . S
C945 C939 1.491 . S
C945 C944 1.400 . S
C945 C946 1.398 1_554 S
C946 H934 0.950 . S
C946 C945 1.398 1_556 S
C946 C947 1.391 . S
C947 H935 0.950 . S
C947 C943 1.393 1_556 S
C947 C946 1.391 . S
H948 C956 0.950 . S
H949 C961 0.950 . S
H950 C958 0.950 . S
H951 C960 0.950 . S
H952 C962 0.950 . S
H953 C964 0.950 . S
H954 C966 0.950 . S
H955 C967 0.950 . S
C956 H948 0.950 . S
C956 C957 1.386 . S
C956 C958 1.391 . S
C957 C956 1.386 . S
C957 C961 1.393 . S
C958 H950 0.950 . S
C958 C956 1.391 . S
C958 C959 1.400 . S
C959 C958 1.400 . S
C959 C960 1.398 . S
C959 C965 1.491 . S
C960 H951 0.950 . S
C960 C959 1.398 . S
C960 C961 1.391 . S
C961 H949 0.950 . S
C961 C957 1.393 . S
C961 C960 1.391 . S
C962 H952 0.950 . S
C962 C963 1.386 . S
C962 C964 1.391 . S
C963 C962 1.386 . S
C963 C967 1.393 . S
C964 H953 0.950 . S
C964 C962 1.391 . S
C964 C965 1.400 . S
C965 C959 1.491 . S
C965 C964 1.400 . S
C965 C966 1.398 . S
C966 H954 0.950 . S
C966 C965 1.398 . S
C966 C967 1.391 . S
C967 H955 0.950 . S
C967 C963 1.393 . S
C967 C966 1.391 . S
H968 C976 0.950 . S
H969 C981 0.950 . S
H970 C978 0.950 . S
H971 C980 0.950 . S
H972 C982 0.950 . S
H973 C984 0.950 . S
H974 C986 0.950 . S
H975 C987 0.950 . S
C976 H968 0.950 . S
C976 C977 1.386 . S
C976 C978 1.391 . S
C977 C976 1.386 . S
C977 C981 1.393 . S
C978 H970 0.950 . S
C978 C976 1.391 . S
C978 C979 1.400 . S
C979 C978 1.400 . S
C979 C980 1.398 . S
C979 C985 1.491 1_455 S
C980 H971 0.950 . S
C980 C979 1.398 . S
C980 C981 1.391 . S
C981 H969 0.950 . S
C981 C977 1.393 . S
C981 C980 1.391 . S
C982 H972 0.950 . S
C982 C983 1.386 . S
C982 C984 1.391 . S
C983 C982 1.386 . S
C983 C987 1.393 . S
C984 H973 0.950 . S
C984 C982 1.391 . S
C984 C985 1.400 . S
C985 C979 1.491 1_655 S
C985 C984 1.400 . S
C985 C986 1.398 . S
C986 H974 0.950 . S
C986 C985 1.398 . S
C986 C987 1.391 . S
C987 H975 0.950 . S
C987 C983 1.393 . S
C987 C986 1.391 . S
H988 C996 0.950 . S
H989 C1001 0.950 . S
H990 C998 0.950 . S
H991 C1000 0.950 . S
H992 C1002 0.950 . S
H993 C1004 0.950 . S
H994 C1006 0.950 . S
H995 C1007 0.950 . S
C996 H988 0.950 . S
C996 C997 1.386 . S
C996 C998 1.391 . S
C997 C996 1.386 . S
C997 C1001 1.393 1_655 S
C998 H990 0.950 . S
C998 C996 1.391 . S
C998 C999 1.400 . S
C999 C998 1.400 . S
C999 C1000 1.398 1_655 S
C999 C1005 1.491 1_655 S
C1000 H991 0.950 . S
C1000 C999 1.398 1_455 S
C1000 C1001 1.391 . S
C1001 H989 0.950 . S
C1001 C997 1.393 1_455 S
C1001 C1000 1.391 . S
C1002 H992 0.950 . S
C1002 C1003 1.386 . S
C1002 C1004 1.391 . S
C1003 C1002 1.386 . S
C1003 C1007 1.393 1_455 S
C1004 H993 0.950 . S
C1004 C1002 1.391 . S
C1004 C1005 1.400 . S
C1005 C999 1.491 1_455 S
C1005 C1004 1.400 . S
C1005 C1006 1.398 1_455 S
C1006 H994 0.950 . S
C1006 C1005 1.398 1_655 S
C1006 C1007 1.391 . S
C1007 H995 0.950 . S
C1007 C1003 1.393 1_655 S
C1007 C1006 1.391 . S
C377 C108 2.563 . S
C383 C16 2.560 . S
C397 C315 2.585 . S
C403 N35 2.523 . S
C417 C62 2.627 . S
C423 C154 2.630 . S
C437 C361 2.592 . S
C443 N81 2.531 . S
C457 N219 2.529 . S
C463 C131 2.593 . S
C477 N265 2.529 . S
C483 C177 2.588 . S
C497 C200 2.627 . S
C503 C292 2.630 . S
C517 C338 2.560 . S
C523 C246 2.558 . S
C537 N173 1.688 . S
C543 C7 1.655 . S
C557 N288 1.768 . S
C563 N25 1.745 . S
C577 C53 1.709 . S
C583 N127 1.723 . S
C597 N71 1.762 1_455 S
C603 N334 1.757 . S
C617 C85 2.069 . S
C623 C99 2.058 . S
C637 C122 2.024 . S
C643 N196 2.072 . S
C657 C145 2.082 . S
C663 C39 2.102 . S
C677 C168 2.018 1_655 S
C683 N242 2.068 . S
C697 C191 1.704 . S
C703 N357 1.715 . S
C717 N104 1.770 . S
C723 N209 1.737 1_665 S
C737 N311 1.675 . S
C743 C237 1.671 . S
C757 N255 1.774 . S
C763 N150 1.754 . S
C777 C269 2.089 1_545 S
C783 C283 2.079 . S
C797 C306 2.013 1_455 S
C803 N12 2.072 . S
C817 C329 2.056 . S
C823 C223 2.068 1_565 S
C837 N58 2.072 . S
C843 C352 2.021 . S
C857 N2 0.708 . S
C863 N232 0.651 . S
C877 C260 0.832 . S
C883 C30 0.847 . S
C897 N48 0.680 . S
C903 N186 0.722 . S
C917 C214 0.831 . S
C923 C76 0.843 . S
C937 N324 0.354 . S
C943 N94 0.419 . S
C957 N347 0.463 . S
C963 N117 0.370 . S
C977 N278 0.435 . S
C983 N140 0.349 . S
C997 N301 0.369 . S
C1003 N163 0.461 . S
