# Generated by pormake.
# Topology vmb, (5)-cn, num edge types: 1
# Building blocks:
#     Node 0, Type 0, BuildingBlock: XOMCOT_clean_sbu_1, # of connection points: 5
#     Node 1, Type 0, BuildingBlock: XOMCOT_clean_sbu_1, # of connection points: 5
#     Node 2, Type 0, BuildingBlock: XOMCOT_clean_sbu_1, # of connection points: 5
#     Node 3, Type 0, BuildingBlock: XOMCOT_clean_sbu_1, # of connection points: 5
#     Node 4, Type 0, BuildingBlock: XOMCOT_clean_sbu_1, # of connection points: 5
#     Node 5, Type 0, BuildingBlock: XOMCOT_clean_sbu_1, # of connection points: 5
#     Node 6, Type 0, BuildingBlock: XOMCOT_clean_sbu_1, # of connection points: 5
#     Node 7, Type 0, BuildingBlock: XOMCOT_clean_sbu_1, # of connection points: 5
#     Edge 8, Type (0, 0), BuildingBlock: TEMPAE_clean_linker_10, # of connection points: 2
#     Edge 9, Type (0, 0), BuildingBlock: TEMPAE_clean_linker_10, # of connection points: 2
#     Edge 10, Type (0, 0), BuildingBlock: TEMPAE_clean_linker_10, # of connection points: 2
#     Edge 11, Type (0, 0), BuildingBlock: TEMPAE_clean_linker_10, # of connection points: 2
#     Edge 12, Type (0, 0), BuildingBlock: TEMPAE_clean_linker_10, # of connection points: 2
#     Edge 13, Type (0, 0), BuildingBlock: TEMPAE_clean_linker_10, # of connection points: 2
#     Edge 14, Type (0, 0), BuildingBlock: TEMPAE_clean_linker_10, # of connection points: 2
#     Edge 15, Type (0, 0), BuildingBlock: TEMPAE_clean_linker_10, # of connection points: 2
#     Edge 16, Type (0, 0), BuildingBlock: TEMPAE_clean_linker_10, # of connection points: 2
#     Edge 17, Type (0, 0), BuildingBlock: TEMPAE_clean_linker_10, # of connection points: 2
#     Edge 18, Type (0, 0), BuildingBlock: TEMPAE_clean_linker_10, # of connection points: 2
#     Edge 19, Type (0, 0), BuildingBlock: TEMPAE_clean_linker_10, # of connection points: 2
#     Edge 20, Type (0, 0), BuildingBlock: TEMPAE_clean_linker_10, # of connection points: 2
#     Edge 21, Type (0, 0), BuildingBlock: TEMPAE_clean_linker_10, # of connection points: 2
#     Edge 22, Type (0, 0), BuildingBlock: TEMPAE_clean_linker_10, # of connection points: 2
#     Edge 23, Type (0, 0), BuildingBlock: TEMPAE_clean_linker_10, # of connection points: 2
#     Edge 24, Type (0, 0), BuildingBlock: TEMPAE_clean_linker_10, # of connection points: 2
#     Edge 25, Type (0, 0), BuildingBlock: TEMPAE_clean_linker_10, # of connection points: 2
#     Edge 26, Type (0, 0), BuildingBlock: TEMPAE_clean_linker_10, # of connection points: 2
#     Edge 27, Type (0, 0), BuildingBlock: TEMPAE_clean_linker_10, # of connection points: 2
# Relax obj value: 0.084
# Max RMSD: 0.124
# Mean RMSD: 0.124
data_MOF--net-vmb--node1-XOMCOT_clean_sbu_1--edge1-TEMPAE_clean_linker_10
_symmetry_space_group_name_H-M    P1
_symmetry_Int_Tables_number       1
_symmetry_cell_setting            triclinic
loop_
_symmetry_equiv_pos_as_xyz
'x, y, z'
_cell_length_a     38.667023
_cell_length_b     48.438764
_cell_length_c     27.432667
_cell_angle_alpha  90.131245
_cell_angle_beta   118.39294
_cell_angle_gamma 89.972457
loop_
_atom_site_label
_atom_site_type_symbol
_atom_site_fract_x
_atom_site_fract_y
_atom_site_fract_z
_atom_type_partial_charge
C0 C 0.20472 0.07098 0.25013 0.0
C1 C 0.16486 0.06808 0.22848 0.0
N2 N 0.15732 0.05574 0.26645 0.0
N3 N 0.22293 0.06055 0.30173 0.0
C4 C 0.19327 0.05148 0.31088 0.0
H5 H 0.21955 0.08088 0.22996 0.0
Co6 Co 0.27776 0.06305 0.34395 0.0
C7 C 0.29991 0.04373 0.4562 0.0
O8 O 0.32467 0.06457 0.4735 0.0
N9 N 0.33422 0.06555 0.3848 0.0
C10 C 0.39647 0.07995 0.42412 0.0
C11 C 0.35779 0.08787 0.39584 0.0
C12 C 0.35993 0.04415 0.40611 0.0
N13 N 0.39807 0.05239 0.43101 0.0
O14 O 0.283 0.03163 0.30484 0.0
H15 H 0.34835 0.10877 0.3835 0.0
H16 H 0.35068 0.02289 0.40373 0.0
O17 O 0.27779 0.03998 0.40391 0.0
C18 C 0.29024 0.04165 0.26753 0.0
O19 O 0.29439 0.06856 0.26665 0.0
N20 N 0.27073 0.09583 0.37515 0.0
C21 C 0.25704 0.14832 0.40477 0.0
C22 C 0.24816 0.12453 0.42583 0.0
C23 C 0.2543 0.09843 0.40942 0.0
C24 C 0.27579 0.11864 0.35033 0.0
C25 C 0.27039 0.14505 0.3657 0.0
H26 H 0.24474 0.08057 0.42319 0.0
H27 H 0.28442 0.11628 0.31839 0.0
H28 H 0.19792 0.04234 0.34947 0.0
H29 H 0.14307 0.07561 0.18845 0.0
H30 H 0.42153 0.09353 0.43698 0.0
H31 H 0.2357 0.12603 0.45372 0.0
H32 H 0.27697 0.16268 0.34733 0.0
C33 C 0.83859 0.08255 0.23567 0.0
C34 C 0.87811 0.08227 0.25247 0.0
N35 N 0.88481 0.06416 0.22067 0.0
N36 N 0.81991 0.06479 0.19311 0.0
C37 C 0.84903 0.05364 0.18499 0.0
H38 H 0.82411 0.09573 0.25223 0.0
Co39 Co 0.76465 0.06305 0.1565 0.0
C40 C 0.73959 0.04009 0.04558 0.0
O41 O 0.71089 0.05822 0.02739 0.0
N42 N 0.70806 0.0616 0.12164 0.0
C43 C 0.64445 0.07275 0.08294 0.0
C44 C 0.68216 0.08274 0.10783 0.0
C45 C 0.68466 0.03875 0.10591 0.0
N46 N 0.64584 0.0451 0.08143 0.0
O47 O 0.76698 0.03208 0.20111 0.0
H48 H 0.68918 0.10432 0.11475 0.0
H49 H 0.69585 0.01789 0.11072 0.0
O50 O 0.76434 0.03922 0.0975 0.0
C51 C 0.76713 0.04275 0.24378 0.0
O52 O 0.76284 0.06961 0.24504 0.0
N53 N 0.76452 0.09546 0.11895 0.0
C54 C 0.77165 0.14787 0.08254 0.0
C55 C 0.781 0.12415 0.06169 0.0
C56 C 0.77811 0.09815 0.08139 0.0
C57 C 0.75867 0.11839 0.14287 0.0
C58 C 0.76068 0.14468 0.12409 0.0
H59 H 0.78857 0.08053 0.06812 0.0
H60 H 0.75233 0.1162 0.17706 0.0
H61 H 0.84404 0.03917 0.15219 0.0
H62 H 0.90027 0.09486 0.28497 0.0
H63 H 0.61787 0.08498 0.0674 0.0
H64 H 0.79177 0.12569 0.03187 0.0
H65 H 0.75375 0.16229 0.14225 0.0
C66 C 0.83352 0.89642 0.7361 0.0
C67 C 0.87382 0.89434 0.76033 0.0
N68 N 0.88731 0.9145 0.74001 0.0
N69 N 0.82133 0.91776 0.70039 0.0
C70 C 0.85487 0.92854 0.70398 0.0
H71 H 0.81412 0.88253 0.74242 0.0
Co72 Co 0.7681 0.92556 0.6519 0.0
C73 C 0.77079 0.9733 0.58885 0.0
O74 O 0.74795 0.98698 0.60374 0.0
N75 N 0.71411 0.93342 0.60147 0.0
C76 C 0.66079 0.93977 0.51988 0.0
C77 C 0.69838 0.92975 0.54609 0.0
C78 C 0.68479 0.9458 0.60762 0.0
N79 N 0.65212 0.95012 0.5583 0.0
O80 O 0.76984 0.95483 0.70024 0.0
H81 H 0.71382 0.92142 0.52529 0.0
H82 H 0.6879 0.95287 0.64693 0.0
O83 O 0.78286 0.94931 0.60842 0.0
C84 C 0.76255 0.94331 0.7362 0.0
O85 O 0.75376 0.91687 0.73005 0.0
N86 N 0.76646 0.89503 0.60953 0.0
C87 C 0.76165 0.84538 0.55527 0.0
C88 C 0.78451 0.86732 0.55272 0.0
C89 C 0.78688 0.89198 0.58071 0.0
C90 C 0.74456 0.87393 0.61305 0.0
C91 C 0.74162 0.84897 0.58613 0.0
H92 H 0.80549 0.90834 0.57976 0.0
H93 H 0.72957 0.87652 0.63749 0.0
H94 H 0.85546 0.94541 0.67861 0.0
H95 H 0.89175 0.87876 0.78976 0.0
H96 H 0.64155 0.94001 0.47555 0.0
H97 H 0.80052 0.86545 0.52949 0.0
H98 H 0.72456 0.83241 0.59066 0.0
C99 C 0.20423 0.90681 0.75893 0.0
C100 C 0.16472 0.90852 0.74146 0.0
N101 N 0.15921 0.92133 0.78092 0.0
N102 N 0.2243 0.91847 0.80934 0.0
C103 C 0.19607 0.92704 0.8221 0.0
H104 H 0.21761 0.89683 0.73679 0.0
Co105 Co 0.27945 0.91739 0.84558 0.0
C106 C 0.30733 0.93867 0.95862 0.0
O107 O 0.33392 0.91901 0.97468 0.0
N108 N 0.33593 0.91607 0.87973 0.0
C109 C 0.3975 0.90279 0.90536 0.0
C110 C 0.35905 0.89439 0.88309 0.0
C111 C 0.36156 0.93763 0.89962 0.0
N112 N 0.39922 0.93 0.9159 0.0
O113 O 0.28026 0.9485 0.80258 0.0
H114 H 0.34922 0.87373 0.86878 0.0
H115 H 0.3526 0.95867 0.90091 0.0
O116 O 0.28256 0.94109 0.90687 0.0
C117 C 0.28488 0.93834 0.76298 0.0
O118 O 0.28905 0.91145 0.76178 0.0
N119 N 0.27679 0.88492 0.88106 0.0
C120 C 0.27175 0.83276 0.91982 0.0
C121 C 0.26353 0.8565 0.94186 0.0
C122 C 0.26513 0.88242 0.92076 0.0
C123 C 0.28042 0.86192 0.85526 0.0
C124 C 0.27911 0.83566 0.87482 0.0
H125 H 0.25626 0.90017 0.93585 0.0
H126 H 0.28446 0.86402 0.81906 0.0
H127 H 0.20241 0.93687 0.86092 0.0
H128 H 0.14186 0.8999 0.70328 0.0
H129 H 0.42234 0.88981 0.91288 0.0
H130 H 0.25612 0.8551 0.97519 0.0
H131 H 0.28336 0.81779 0.85444 0.0
C132 C 0.70894 0.57223 0.26841 0.0
C133 C 0.6689 0.56934 0.24384 0.0
N134 N 0.65937 0.55749 0.28034 0.0
N135 N 0.72511 0.56243 0.32043 0.0
C136 C 0.69426 0.55355 0.32681 0.0
H137 H 0.72543 0.58133 0.24986 0.0
Co138 Co 0.77935 0.56401 0.36494 0.0
C139 C 0.79761 0.54936 0.47828 0.0
O140 O 0.82277 0.56994 0.4937 0.0
N141 N 0.83562 0.56543 0.40835 0.0
C142 C 0.89867 0.57808 0.4508 0.0
C143 C 0.86058 0.5871 0.42152 0.0
C144 C 0.85991 0.54335 0.42995 0.0
N145 N 0.89843 0.55051 0.45624 0.0
O146 O 0.78363 0.5304 0.3311 0.0
H147 H 0.85262 0.60828 0.41011 0.0
H148 H 0.8494 0.52236 0.42623 0.0
O149 O 0.77655 0.54397 0.42636 0.0
C150 C 0.79586 0.53579 0.29637 0.0
O151 O 0.80682 0.56113 0.29348 0.0
N152 N 0.77279 0.59857 0.39088 0.0
C153 C 0.76135 0.6527 0.41525 0.0
C154 C 0.74927 0.63026 0.43583 0.0
C155 C 0.75435 0.60334 0.422 0.0
C156 C 0.78048 0.62008 0.36562 0.0
C157 C 0.77628 0.64729 0.37855 0.0
H158 H 0.74263 0.58656 0.43546 0.0
H159 H 0.79078 0.61601 0.33589 0.0
H160 H 0.69736 0.54451 0.3647 0.0
H161 H 0.64839 0.57631 0.20262 0.0
H162 H 0.92464 0.59087 0.46501 0.0
H163 H 0.73536 0.63346 0.46157 0.0
H164 H 0.78522 0.66383 0.36049 0.0
C165 C 0.33761 0.57674 0.23908 0.0
C166 C 0.37726 0.57623 0.25701 0.0
N167 N 0.38384 0.56045 0.22189 0.0
N168 N 0.31884 0.56144 0.19258 0.0
C169 C 0.34796 0.55159 0.18305 0.0
H170 H 0.32318 0.58865 0.25752 0.0
Co171 Co 0.26383 0.56147 0.15354 0.0
C172 C 0.23863 0.53479 0.04442 0.0
O173 O 0.20875 0.55192 0.02368 0.0
N174 N 0.20745 0.56225 0.11633 0.0
C175 C 0.14502 0.57608 0.07169 0.0
C176 C 0.18347 0.58427 0.0945 0.0
C177 C 0.18218 0.54086 0.10659 0.0
N178 N 0.1439 0.54873 0.07929 0.0
O179 O 0.26297 0.53134 0.19848 0.0
H180 H 0.19245 0.60519 0.09365 0.0
H181 H 0.19179 0.51988 0.11932 0.0
O182 O 0.26371 0.53606 0.09624 0.0
C183 C 0.26106 0.54207 0.23969 0.0
O184 O 0.25675 0.56895 0.24043 0.0
N185 N 0.26678 0.59289 0.11586 0.0
C186 C 0.27402 0.64421 0.07597 0.0
C187 C 0.27945 0.61983 0.05278 0.0
C188 C 0.27672 0.59431 0.07432 0.0
C189 C 0.26458 0.61642 0.14158 0.0
C190 C 0.26726 0.64229 0.12167 0.0
H191 H 0.28383 0.57606 0.05843 0.0
H192 H 0.25945 0.61498 0.17698 0.0
H193 H 0.34295 0.53951 0.14708 0.0
H194 H 0.3996 0.58727 0.29233 0.0
H195 H 0.11984 0.58943 0.05007 0.0
H196 H 0.28665 0.62051 0.01915 0.0
H197 H 0.26338 0.66058 0.14134 0.0
C198 C 0.3276 0.39128 0.72906 0.0
C199 C 0.3677 0.38905 0.75086 0.0
N200 N 0.37995 0.40829 0.72703 0.0
N201 N 0.31435 0.41187 0.69166 0.0
C202 C 0.347 0.42197 0.69151 0.0
H203 H 0.30904 0.37803 0.73843 0.0
Co204 Co 0.26097 0.41979 0.64618 0.0
C205 C 0.26115 0.46771 0.58099 0.0
O206 O 0.23878 0.4812 0.597 0.0
N207 N 0.20684 0.42761 0.59902 0.0
C208 C 0.15167 0.43464 0.52014 0.0
C209 C 0.18918 0.42447 0.54333 0.0
C210 C 0.17885 0.43966 0.60853 0.0
N211 N 0.14514 0.44437 0.56096 0.0
O212 O 0.26459 0.44909 0.69606 0.0
H213 H 0.20324 0.4165 0.52034 0.0
H214 H 0.18364 0.44629 0.64893 0.0
O215 O 0.2738 0.44378 0.60051 0.0
C216 C 0.25951 0.43766 0.73412 0.0
O217 O 0.25071 0.41123 0.72883 0.0
N218 N 0.25771 0.38932 0.60269 0.0
C219 C 0.25226 0.33932 0.54909 0.0
C220 C 0.27329 0.36161 0.54329 0.0
C221 C 0.27604 0.38644 0.57099 0.0
C222 C 0.23733 0.36798 0.60896 0.0
C223 C 0.23413 0.34283 0.58248 0.0
H224 H 0.29339 0.40303 0.5676 0.0
H225 H 0.22397 0.37047 0.63555 0.0
H226 H 0.3465 0.43812 0.66403 0.0
H227 H 0.38629 0.37408 0.78129 0.0
H228 H 0.13108 0.43553 0.47629 0.0
H229 H 0.2877 0.35987 0.51789 0.0
H230 H 0.2185 0.32606 0.58945 0.0
C231 C 0.70681 0.40512 0.77086 0.0
C232 C 0.66648 0.40398 0.74692 0.0
N233 N 0.65486 0.41879 0.77826 0.0
N234 N 0.7209 0.42068 0.8171 0.0
C235 C 0.68856 0.42877 0.82053 0.0
H236 H 0.72484 0.39435 0.75662 0.0
Co237 Co 0.77448 0.42523 0.86677 0.0
C238 C 0.77194 0.46998 0.93824 0.0
O239 O 0.78927 0.48722 0.91987 0.0
N240 N 0.82895 0.42982 0.91855 0.0
C241 C 0.88397 0.42878 0.99941 0.0
C242 C 0.84529 0.42111 0.97164 0.0
C243 C 0.85877 0.4433 0.9157 0.0
N244 N 0.89272 0.44306 0.96461 0.0
O245 O 0.77524 0.4572 0.82593 0.0
H246 H 0.82992 0.41039 0.9901 0.0
H247 H 0.85537 0.45404 0.87923 0.0
O248 O 0.76277 0.44584 0.91755 0.0
C249 C 0.78396 0.44769 0.78963 0.0
O250 O 0.79285 0.42135 0.79207 0.0
N251 N 0.77323 0.39225 0.90034 0.0
C252 C 0.77393 0.33968 0.94148 0.0
C253 C 0.75342 0.36135 0.95047 0.0
C254 C 0.75291 0.38747 0.92875 0.0
C255 C 0.79258 0.37144 0.89019 0.0
C256 C 0.79338 0.345 0.91042 0.0
H257 H 0.73591 0.40365 0.93437 0.0
H258 H 0.80738 0.37548 0.86595 0.0
H259 H 0.68973 0.44119 0.85406 0.0
H260 H 0.64742 0.39201 0.71061 0.0
H261 H 0.90383 0.42427 0.04241 0.0
H262 H 0.73794 0.35824 0.97414 0.0
H263 H 0.80859 0.32881 0.90095 0.0
C264 C 0.33353 0.95297 0.0572 0.0
C265 C 0.30324 0.95437 1.00217 0.0
C266 C 0.32995 0.9656 0.10058 0.0
C267 C 0.2952 0.98019 0.08899 0.0
C268 C 0.26442 0.98179 0.03354 0.0
C269 C 0.26883 0.9689 0.99068 0.0
C270 C 0.36369 0.96362 0.15886 0.0
C271 C 0.22697 -0.00275 0.01953 0.0
C272 C 0.27849 -0.00245 0.21231 0.0
C273 C 0.29242 0.02477 0.22383 0.0
C274 C 0.27843 0.98283 0.1678 0.0
C275 C 0.29281 -0.00438 0.13446 0.0
C276 C 0.30718 0.02298 0.14642 0.0
C277 C 0.30681 0.03712 0.19073 0.0
C278 C 0.26297 0.95364 0.15634 0.0
C279 C 0.32328 0.03734 0.11259 0.0
H280 H 0.36032 0.94185 0.06662 0.0
H281 H 0.24516 0.96985 0.94844 0.0
H282 H 0.37565 0.98452 0.17437 0.0
H283 H 0.35325 0.9551 0.18705 0.0
H284 H 0.38794 0.95039 0.1613 0.0
H285 H 0.20499 -0.0047 0.97503 0.0
H286 H 0.21376 0.98944 0.04495 0.0
H287 H 0.23361 0.01946 0.02961 0.0
H288 H 0.26708 0.98796 0.2374 0.0
H289 H 0.31786 0.0581 0.19933 0.0
H290 H 0.28661 0.93931 0.16051 0.0
H291 H 0.23886 0.95189 0.11311 0.0
H292 H 0.25179 0.94689 0.18497 0.0
H293 H 0.3491 0.02589 0.11571 0.0
H294 H 0.33238 0.05894 0.1264 0.0
H295 H 0.30082 0.03758 0.06823 0.0
C296 C 0.80085 0.03832 0.34544 0.0
C297 C 0.7752 0.02686 0.29374 0.0
C298 C 0.80386 0.02737 0.39446 0.0
C299 C 0.78004 0.00465 0.39165 0.0
C300 C 0.75569 0.99194 0.33969 0.0
C301 C 0.75373 0.00315 0.29107 0.0
C302 C 0.83066 0.04131 0.44887 0.0
C303 C 0.72978 0.96772 0.33506 0.0
C304 C 0.80206 0.96949 0.52733 0.0
C305 C 0.77531 0.98264 0.54077 0.0
C306 C 0.80365 0.9761 0.47858 0.0
C307 C 0.77779 -0.00371 0.44231 0.0
C308 C 0.751 0.00981 0.45594 0.0
C309 C 0.75022 0.00292 0.50507 0.0
C310 C 0.83298 0.96152 0.46591 0.0
C311 C 0.72294 0.03149 0.4184 0.0
H312 H 0.81758 0.05664 0.34733 0.0
H313 H 0.73359 -0.00547 0.25094 0.0
H314 H 0.81272 0.05218 0.46467 0.0
H315 H 0.84886 0.02581 0.48038 0.0
H316 H 0.85049 0.05659 0.44466 0.0
H317 H 0.71616 0.95824 0.2931 0.0
H318 H 0.74688 0.95171 0.36611 0.0
H319 H 0.70599 0.97469 0.34391 0.0
H320 H 0.82165 0.95386 0.5548 0.0
H321 H 0.72916 0.01298 0.51474 0.0
H322 H 0.85346 0.97678 0.46341 0.0
H323 H 0.81753 0.95113 0.42499 0.0
H324 H 0.85043 0.94589 0.49777 0.0
H325 H 0.73973 0.04917 0.41459 0.0
H326 H 0.70297 0.03934 0.43394 0.0
H327 H 0.70485 0.02286 0.37623 0.0
C328 C 0.75591 0.9435 0.82212 0.0
C329 C 0.76345 0.95825 0.78411 0.0
C330 C 0.75534 0.95659 0.86728 0.0
C331 C 0.76256 0.98527 0.8751 0.0
C332 C 0.77122 0.00029 0.83784 0.0
C333 C 0.77151 0.98659 0.79261 0.0
C334 C 0.74569 0.93979 0.90561 0.0
C335 C 0.77918 0.03091 0.845 0.0
C336 C 0.71461 0.02182 0.94991 0.0
C337 C 0.74584 0.02442 1.00396 0.0
C338 C 0.71992 0.00955 0.90765 0.0
C339 C 0.75753 -0.00034 0.91943 0.0
C340 C 0.78924 0.00201 0.97402 0.0
C341 C 0.78298 0.01426 0.01582 0.0
C342 C 0.68512 0.00704 0.85035 0.0
C343 C 0.82977 0.99173 0.98813 0.0
H344 H 0.74988 0.92155 0.81633 0.0
H345 H 0.77757 -0.00191 0.76367 0.0
H346 H 0.76865 0.94272 0.94925 0.0
H347 H 0.71744 0.94696 0.90247 0.0
H348 H 0.74314 0.91738 0.89576 0.0
H349 H 0.78858 0.03917 0.81539 0.0
H350 H 0.75221 0.04198 0.83857 0.0
H351 H 0.80235 0.0355 0.88785 0.0
H352 H 0.68577 0.02955 0.94042 0.0
H353 H 0.80733 0.01648 0.0573 0.0
H354 H 0.67921 0.98497 0.83835 0.0
H355 H 0.69169 0.01732 0.81959 0.0
H356 H 0.65803 0.01636 0.84774 0.0
H357 H 0.82885 0.96916 0.9806 0.0
H358 H 0.85159 -0.00409 0.032 0.0
H359 H 0.83995 0.00172 0.96084 0.0
C360 C 0.29796 0.94278 0.68295 0.0
C361 C 0.28535 0.95518 0.71814 0.0
C362 C 0.29771 0.95716 0.63859 0.0
C363 C 0.28435 0.98477 0.62857 0.0
C364 C 0.27133 -0.00249 0.66362 0.0
C365 C 0.27215 0.98258 0.70829 0.0
C366 C 0.31251 0.94288 0.60302 0.0
C367 C 0.2568 0.02692 0.65408 0.0
C368 C 0.32593 0.02802 0.55355 0.0
C369 C 0.29549 0.02743 0.49859 0.0
C370 C 0.3222 0.01481 0.59618 0.0
C371 C 0.28702 0.00063 0.58389 0.0
C372 C 0.25604 -0.0001 0.52847 0.0
C373 C 0.26072 0.0132 0.48629 0.0
C374 C 0.35626 0.01573 0.65437 0.0
C375 C 0.21805 0.98503 0.51381 0.0
H376 H 0.30841 0.92165 0.69022 0.0
H377 H 0.26209 0.99221 0.73499 0.0
H378 H 0.28973 0.94347 0.55885 0.0
H379 H 0.33874 0.95386 0.60641 0.0
H380 H 0.3206 0.92099 0.61514 0.0
H381 H 0.24568 0.03337 0.68299 0.0
H382 H 0.28097 0.04103 0.65952 0.0
H383 H 0.23289 0.02941 0.6109 0.0
H384 H 0.35299 0.03889 0.56344 0.0
H385 H 0.23693 0.01295 0.44407 0.0
H386 H 0.36723 -0.00549 0.66843 0.0
H387 H 0.34647 0.02423 0.68337 0.0
H388 H 0.38106 0.0285 0.65735 0.0
H389 H 0.22381 0.96266 0.52237 0.0
H390 H 0.19601 0.9877 0.46954 0.0
H391 H 0.20535 0.99275 0.53999 0.0
C392 C 0.82349 0.51139 0.24354 0.0
C393 C 0.79125 0.51643 0.25234 0.0
C394 C 0.81833 0.50032 0.19318 0.0
C395 C 0.77982 0.49511 0.1499 0.0
C396 C 0.7473 0.49871 0.15984 0.0
C397 C 0.75348 0.50915 0.2113 0.0
C398 C 0.85393 0.49608 0.18504 0.0
C399 C 0.70576 0.49377 0.11473 0.0
C400 C 0.76967 0.50392 0.00582 0.0
C401 C 0.76965 0.4765 0.98952 0.0
C402 C 0.77118 0.51019 0.05689 0.0
C403 C 0.77365 0.48852 0.09312 0.0
C404 C 0.77282 0.46078 0.07634 0.0
C405 C 0.77057 0.45512 0.02465 0.0
C406 C 0.77128 0.54007 0.07276 0.0
C407 C 0.77616 0.43709 0.11399 0.0
H408 H 0.85262 0.51749 0.27509 0.0
H409 H 0.72847 0.51381 0.21766 0.0
H410 H 0.85267 0.47559 0.16608 0.0
H411 H 0.85438 0.51197 0.15629 0.0
H412 H 0.88181 0.49757 0.22467 0.0
H413 H 0.68431 0.49422 0.13089 0.0
H414 H 0.69755 0.51001 0.08265 0.0
H415 H 0.7034 0.4736 0.09416 0.0
H416 H 0.76893 0.52051 0.97888 0.0
H417 H 0.77135 0.43386 0.01297 0.0
H418 H 0.80011 0.5453 0.10862 0.0
H419 H 0.74844 0.54359 0.08566 0.0
H420 H 0.76586 0.55435 0.03822 0.0
H421 H 0.80571 0.43736 0.15094 0.0
H422 H 0.77183 0.41675 0.09307 0.0
H423 H 0.75424 0.43928 0.12899 0.0
C424 C 0.24661 0.5019 0.28501 0.0
C425 C 0.26738 0.52621 0.28911 0.0
C426 C 0.24763 0.49007 0.33264 0.0
C427 C 0.27049 0.50267 0.38523 0.0
C428 C 0.29346 0.52618 0.38954 0.0
C429 C 0.29127 0.53779 0.34143 0.0
C430 C 0.22248 0.46512 0.32627 0.0
C431 C 0.31882 0.54002 0.44465 0.0
C432 C 0.23935 0.49762 0.49721 0.0
C433 C 0.26514 0.47755 0.53268 0.0
C434 C 0.24018 0.50538 0.44848 0.0
C435 C 0.26786 0.49308 0.43506 0.0
C436 C 0.29429 0.47301 0.47099 0.0
C437 C 0.29249 0.46539 0.5192 0.0
C438 C 0.21134 0.52678 0.41126 0.0
C439 C 0.32466 0.45977 0.45872 0.0
H440 H 0.22785 0.49313 0.24445 0.0
H441 H 0.30755 0.55654 0.34456 0.0
H442 H 0.23996 0.449 0.35672 0.0
H443 H 0.19817 0.47108 0.33483 0.0
H444 H 0.20959 0.45616 0.28391 0.0
H445 H 0.33804 0.55623 0.4417 0.0
H446 H 0.29983 0.54971 0.46003 0.0
H447 H 0.33757 0.52458 0.47588 0.0
H448 H 0.21778 0.50688 0.50683 0.0
H449 H 0.31256 0.44988 0.54639 0.0
H450 H 0.1943 0.51847 0.36858 0.0
H451 H 0.22746 0.54524 0.40893 0.0
H452 H 0.19044 0.53337 0.42613 0.0
H453 H 0.31012 0.44983 0.41728 0.0
H454 H 0.3424 0.444 0.49005 0.0
H455 H 0.34479 0.47579 0.45768 0.0
C456 C 0.21377 0.51143 0.95317 0.0
C457 C 0.24578 0.51817 0.00463 0.0
C458 C 0.21921 0.49905 0.91108 0.0
C459 C 0.25775 0.49337 0.92025 0.0
C460 C 0.2903 0.49967 0.9725 0.0
C461 C 0.28392 0.51187 0.01429 0.0
C462 C 0.18358 0.49221 0.85655 0.0
C463 C 0.33183 0.49398 0.98384 0.0
C464 C 0.26211 0.4374 0.82659 0.0
C465 C 0.26268 0.45265 0.78344 0.0
C466 C 0.26239 0.45039 0.87245 0.0
C467 C 0.26328 0.47952 0.87572 0.0
C468 C 0.26544 0.49514 0.83348 0.0
C469 C 0.26513 0.48151 0.78773 0.0
C470 C 0.25993 0.43287 0.91621 0.0
C471 C 0.26661 0.52626 0.83564 0.0
H472 H 0.18419 0.5162 0.94546 0.0
H473 H 0.30879 0.5174 0.05363 0.0
H474 H 0.18535 0.50304 0.82222 0.0
H475 H 0.18277 0.46973 0.84819 0.0
H476 H 0.15562 0.49811 0.85596 0.0
H477 H 0.35393 0.50009 0.02649 0.0
H478 H 0.33547 0.47169 0.97809 0.0
H479 H 0.33797 0.50542 0.95378 0.0
H480 H 0.26073 0.41506 0.82422 0.0
H481 H 0.26578 0.49343 0.7548 0.0
H482 H 0.23131 0.43644 0.91539 0.0
H483 H 0.28338 0.43877 0.95805 0.0
H484 H 0.26266 0.41047 0.90992 0.0
H485 H 0.2381 0.53427 0.83019 0.0
H486 H 0.27228 0.53528 0.80291 0.0
H487 H 0.28975 0.53346 0.87671 0.0
C488 C 0.80295 0.45409 0.71569 0.0
C489 C 0.7842 0.46463 0.74481 0.0
C490 C 0.802 0.46815 0.67055 0.0
C491 C 0.78164 0.49351 0.65352 0.0
C492 C 0.76261 0.50441 0.68266 0.0
C493 C 0.76427 0.48988 0.72827 0.0
C494 C 0.82333 0.45596 0.64152 0.0
C495 C 0.74059 0.5314 0.66563 0.0
C496 C 0.81897 0.54003 0.57782 0.0
C497 C 0.79217 0.53491 0.52189 0.0
C498 C 0.81489 0.52753 0.62078 0.0
C499 C 0.78317 0.50929 0.60792 0.0
C500 C 0.75553 0.50427 0.5516 0.0
C501 C 0.76042 0.51709 0.50913 0.0
C502 C 0.84535 0.53325 0.68006 0.0
C503 C 0.72127 0.48497 0.53629 0.0
H504 H 0.81863 0.43466 0.72826 0.0
H505 H 0.74942 0.49799 0.75024 0.0
H506 H 0.80277 0.4534 0.59667 0.0
H507 H 0.84699 0.47019 0.6454 0.0
H508 H 0.8367 0.43559 0.65878 0.0
H509 H 0.72589 0.53648 0.69084 0.0
H510 H 0.76115 0.54837 0.6701 0.0
H511 H 0.71806 0.53052 0.62132 0.0
H512 H 0.84369 0.55374 0.58837 0.0
H513 H 0.73939 0.51323 0.46613 0.0
H514 H 0.86171 0.51402 0.69938 0.0
H515 H 0.8309 0.5401 0.70457 0.0
H516 H 0.86682 0.5493 0.68317 0.0
H517 H 0.73225 0.46362 0.54891 0.0
H518 H 0.7006 0.48505 0.49108 0.0
H519 H 0.70495 0.49081 0.55884 0.0
C520 C 0.59902 0.96264 0.58106 0.0
C521 C 0.61647 0.96493 0.54661 0.0
C522 C 0.56265 0.9755 0.56693 0.0
C523 C 0.54357 0.99131 0.51758 0.0
C524 C 0.56168 -0.00585 0.48353 0.0
C525 C 0.59765 0.98096 0.49836 0.0
C526 C 0.54431 0.97185 0.60428 0.0
C527 C 0.54303 0.01116 0.43114 0.0
C528 C 0.43375 0.00804 0.44276 0.0
C529 C 0.43356 0.03582 0.45741 0.0
C530 C 0.46905 0.99277 0.46441 0.0
C531 C 0.50517 0.00555 0.50145 0.0
C532 C 0.50486 0.03314 0.51835 0.0
C533 C 0.46922 0.04779 0.49648 0.0
C534 C 0.46791 0.96333 0.44562 0.0
C535 C 0.54249 0.04772 0.55753 0.0
H536 H 0.61329 0.95017 0.61818 0.0
H537 H 0.61127 0.98331 0.47206 0.0
H538 H 0.53922 0.99227 0.61811 0.0
H539 H 0.51523 0.96168 0.58102 0.0
H540 H 0.56296 0.95924 0.64141 0.0
H541 H 0.56097 0.01141 0.40933 0.0
H542 H 0.5135 0.00281 0.40243 0.0
H543 H 0.53896 0.03274 0.44107 0.0
H544 H 0.40659 -0.00151 0.4127 0.0
H545 H 0.46949 0.06895 0.50942 0.0
H546 H 0.4848 0.94973 0.48178 0.0
H547 H 0.48195 0.96208 0.41859 0.0
H548 H 0.43738 0.95534 0.42216 0.0
H549 H 0.55957 0.03506 0.59512 0.0
H550 H 0.53699 0.0683 0.57043 0.0
H551 H 0.56103 0.05055 0.53706 0.0
C552 C 0.43967 0.9684 0.97587 0.0
C553 C 0.43434 0.94689 0.93864 0.0
C554 C 0.47495 0.98373 1.00075 0.0
C555 C 0.50541 0.97775 0.98737 0.0
C556 C 0.49982 0.95632 0.94911 0.0
C557 C 0.4646 0.94109 0.92562 0.0
C558 C 0.47976 0.0062 0.0417 0.0
C559 C 0.53094 0.94959 0.93252 0.0
C560 C 0.57871 0.03499 0.00758 0.0
C561 C 0.61203 0.02703 0.05659 0.0
C562 C 0.54418 0.01905 0.9845 0.0
C563 C 0.54244 -0.0054 0.01144 0.0
C564 C 0.57618 0.98624 0.06072 0.0
C565 C 0.61072 0.00241 0.08241 0.0
C566 C 0.50946 0.02851 0.9313 0.0
C567 C 0.5755 0.96049 0.09109 0.0
H568 H 0.4166 0.97275 0.98655 0.0
H569 H 0.4605 0.92473 0.89638 0.0
H570 H 0.50648 0.00229 0.08175 0.0
H571 H 0.48386 0.02641 0.02619 0.0
H572 H 0.45401 0.00766 0.04922 0.0
H573 H 0.52218 0.93222 0.90246 0.0
H574 H 0.53687 0.96799 0.91363 0.0
H575 H 0.55888 0.94409 0.96966 0.0
H576 H 0.57977 0.05385 0.98715 0.0
H577 H 0.63625 -0.00365 0.12054 0.0
H578 H 0.48391 0.03247 0.93832 0.0
H579 H 0.50068 0.01206 0.89938 0.0
H580 H 0.51589 0.04761 0.91475 0.0
H581 H 0.55199 0.96216 0.10322 0.0
H582 H 0.60398 0.95684 0.12891 0.0
H583 H 0.56857 0.94226 0.06345 0.0
C584 C 0.9313 0.50567 0.46203 0.0
C585 C 0.93271 0.53282 0.48089 0.0
C586 C 0.96571 0.48966 0.48093 0.0
C587 C 1.00248 0.50109 0.51936 0.0
C588 C 1.00372 0.52788 0.54082 0.0
C589 C 0.9689 0.5433 0.52159 0.0
C590 C 0.96298 0.46107 0.4574 0.0
C591 C 0.04215 0.54097 0.5817 0.0
C592 C 0.09427 0.4556 0.58856 0.0
C593 C 0.11064 0.45941 0.55313 0.0
C594 C 0.05888 0.46883 0.57812 0.0
C595 C 0.03993 0.4866 0.53175 0.0
C596 C 0.05707 0.491 0.49686 0.0
C597 C 0.09195 0.47729 0.50782 0.0
C598 C 0.04139 0.4634 0.616 0.0
C599 C 0.03849 0.51018 0.44766 0.0
H600 H 0.90364 0.49734 0.43057 0.0
H601 H 0.97024 0.56396 0.53752 0.0
H602 H 0.97607 0.46111 0.42912 0.0
H603 H 0.9799 0.44614 0.49104 0.0
H604 H 0.93208 0.4538 0.43383 0.0
H605 H 0.03774 0.5607 0.59873 0.0
H606 H 0.05921 0.52672 0.61658 0.0
H607 H 0.06018 0.54519 0.56091 0.0
H608 H 0.10856 0.44167 0.62339 0.0
H609 H 0.10488 0.48066 0.4809 0.0
H610 H 1.0119 0.45388 0.59206 0.0
H611 H 0.03734 0.48311 0.63331 0.0
H612 H 0.06005 0.44949 0.65081 0.0
H613 H 1.00851 0.50284 0.41827 0.0
H614 H 0.0559 0.51168 0.42517 0.0
H615 H 0.03551 0.53117 0.46152 0.0
C616 C 0.07279 0.54462 0.04982 0.0
C617 C 0.10869 0.53209 0.06129 0.0
C618 C 0.03798 0.52927 0.03083 0.0
C619 C 0.03878 0.50037 0.02389 0.0
C620 C 0.07479 0.48741 0.03556 0.0
C621 C 0.10926 0.50341 0.05389 0.0
C622 C 1.00035 0.54401 0.01904 0.0
C623 C 0.07699 0.4566 0.02935 0.0
C624 C 0.95738 0.46146 0.03466 0.0
C625 C 0.92989 0.45656 0.97882 0.0
C626 C 0.99339 0.47463 0.04969 0.0
C627 C 1.00233 0.48378 0.00804 0.0
C628 C 0.97507 0.47884 0.95161 0.0
C629 C 0.93932 0.46521 0.93769 0.0
C630 C 0.02148 0.47941 0.11039 0.0
C631 C 0.98332 0.48852 0.9059 0.0
H632 H 0.07177 0.56656 0.05637 0.0
H633 H 0.13652 0.49343 0.062 0.0
H634 H 0.97698 0.5391 0.97651 0.0
H635 H 0.98995 0.53682 0.0482 0.0
H636 H 1.00412 0.56678 0.0231 0.0
H637 H 0.10682 0.44974 0.03817 0.0
H638 H 0.06885 0.44581 0.05808 0.0
H639 H 0.0556 0.45012 0.98668 0.0
H640 H 0.95066 0.45556 0.06719 0.0
H641 H 0.91882 0.4614 0.89452 0.0
H642 H 0.02425 0.50187 0.11947 0.0
H643 H 0.05118 0.47162 0.12083 0.0
H644 H 1.01162 0.46914 0.13784 0.0
H645 H 0.98529 0.51139 0.90666 0.0
H646 H 0.96015 0.48193 0.86427 0.0
H647 H 1.01205 0.4804 0.9125 0.0
C648 C 0.08574 0.04861 0.2074 0.0
C649 C 0.11847 0.05073 0.2605 0.0
C650 C 0.04716 0.04769 0.19977 0.0
C651 C 0.04072 0.04832 0.2464 0.0
C652 C 0.07362 0.04854 0.30031 0.0
C653 C 0.11205 0.04989 0.30674 0.0
C654 C 1.01321 0.04765 0.14152 0.0
C655 C 0.06818 0.04869 0.35124 0.0
C656 C 0.9467 0.08238 0.22882 0.0
C657 C 0.92242 0.05971 0.22274 0.0
C658 C 0.9849 0.07887 0.23607 0.0
C659 C 0.99981 0.0519 0.23842 0.0
C660 C 0.97527 0.02883 0.23176 0.0
C661 C 0.93665 0.03303 0.22339 0.0
C662 C 1.00938 0.10413 0.24143 0.0
C663 C 0.99014 -0.00025 0.23482 0.0
H664 H 0.09016 0.04839 0.1713 0.0
H665 H 0.13687 0.05145 0.34793 0.0
H666 H 0.99207 0.031 0.13642 0.0
H667 H 0.99715 0.06754 0.13351 0.0
H668 H 0.02304 0.04486 0.10981 0.0
H669 H 0.09627 0.04511 0.38972 0.0
H670 H 0.05617 0.06895 0.35485 0.0
H671 H 0.04671 0.03262 0.34786 0.0
H672 H 0.93561 0.10303 0.22793 0.0
H673 H 0.91807 0.0155 0.21937 0.0
H674 H 1.01881 0.10379 0.20904 0.0
H675 H 0.03636 0.10409 0.28223 0.0
H676 H 0.99314 0.12364 0.23749 0.0
H677 H 1.00004 -0.00335 0.20331 0.0
H678 H 0.96737 0.98405 0.22819 0.0
H679 H 1.016 -0.00375 0.27601 0.0
C680 C 0.11766 0.92711 0.82735 0.0
C681 C 0.12137 0.9257 0.77889 0.0
C682 C 0.08028 0.9281 0.82476 0.0
C683 C 0.04574 0.92735 0.77256 0.0
C684 C 0.04943 0.92718 0.72365 0.0
C685 C 0.08695 0.92669 0.72744 0.0
C686 C 0.07776 0.92889 0.87795 0.0
C687 C 1.01367 0.9262 0.66705 0.0
C688 C 0.95165 0.89502 0.75906 0.0
C689 C 0.92741 0.91809 0.75029 0.0
C690 C 0.99034 0.89785 0.76763 0.0
C691 C 1.00577 0.92449 0.76845 0.0
C692 C 0.98178 0.94796 0.76101 0.0
C693 C 0.94278 0.94446 0.75137 0.0
C694 C 1.0143 0.87218 0.77401 0.0
C695 C 0.99718 0.97674 0.7626 0.0
H696 H 0.14384 0.92641 0.86732 0.0
H697 H 0.08923 0.92649 0.68962 0.0
H698 H 0.05677 0.94508 0.87584 0.0
H699 H 0.06653 0.90882 0.88401 0.0
H700 H 0.10679 0.93294 0.91455 0.0
H701 H 0.02146 0.92734 0.633 0.0
H702 H 0.99728 0.90673 0.66245 0.0
H703 H 0.99351 0.9435 0.66227 0.0
H704 H 0.93988 0.87456 0.75755 0.0
H705 H 0.92437 0.96237 0.74518 0.0
H706 H 0.04252 0.87317 0.81311 0.0
H707 H 0.0215 0.87084 0.73943 0.0
H708 H 0.99856 0.85303 0.77421 0.0
H709 H 0.02556 0.9797 0.80091 0.0
H710 H 0.97621 0.99286 0.76098 0.0
H711 H 1.00287 0.97974 0.72697 0.0
C712 C 0.43643 0.53082 0.22336 0.0
C713 C 0.42145 0.5571 0.22373 0.0
C714 C 0.47536 0.5275 0.23265 0.0
C715 C 0.49939 0.5511 0.24129 0.0
C716 C 0.48364 0.57771 0.23961 0.0
C717 C 0.44512 0.58032 0.23146 0.0
C718 C 0.49119 0.49879 0.235 0.0
C719 C 0.50764 0.60349 0.24709 0.0
C720 C 0.61154 0.55046 0.31577 0.0
C721 C 0.6198 0.5522 0.27125 0.0
C722 C 0.57254 0.54839 0.30665 0.0
C723 C 0.54092 0.54842 0.25173 0.0
C724 C 0.54916 0.54882 0.20673 0.0
C725 C 0.58833 0.55038 0.21702 0.0
C726 C 0.56511 0.54746 0.35587 0.0
C727 C 0.51651 0.54911 0.14753 0.0
H728 H 0.41821 0.5129 0.2181 0.0
H729 H 0.43336 0.60062 0.23154 0.0
H730 H 0.50282 0.49676 0.20519 0.0
H731 H 0.51604 0.49493 0.27695 0.0
H732 H 0.46845 0.48266 0.2256 0.0
H733 H 0.49053 0.62264 0.24256 0.0
H734 H 0.53377 0.60354 0.28879 0.0
H735 H 0.51845 0.6039 0.21618 0.0
H736 H 0.63535 0.55178 0.35781 0.0
H737 H 0.59413 0.55081 0.18214 0.0
H738 H 0.54383 0.53084 0.35047 0.0
H739 H 0.55196 0.56729 0.35914 0.0
H740 H 0.59256 0.54397 0.39531 0.0
H741 H 0.49547 0.53206 0.14031 0.0
H742 H 0.52776 0.54718 0.1172 0.0
H743 H 0.49989 0.56875 0.13945 0.0
C744 C 0.60824 0.42585 0.81567 0.0
C745 C 0.61516 0.421 0.77052 0.0
C746 C 0.56982 0.42592 0.80908 0.0
C747 C 0.53738 0.42086 0.75614 0.0
C748 C 0.54404 0.41679 0.71015 0.0
C749 C 0.58269 0.41703 0.71784 0.0
C750 C 0.56406 0.4305 0.85919 0.0
C751 C 0.5104 0.41132 0.65297 0.0
C752 C 0.44496 0.38903 0.7488 0.0
C753 C 0.4194 0.41172 0.73462 0.0
C754 C 0.48331 0.3918 0.75609 0.0
C755 C 0.49679 0.41797 0.7494 0.0
C756 C 0.47125 0.44103 0.7353 0.0
C757 C 0.43282 0.4376 0.72781 0.0
C758 C 0.50927 0.36657 0.77038 0.0
C759 C 0.48454 0.46933 0.72822 0.0
H760 H 0.63288 0.4287 0.85664 0.0
H761 H 0.58745 0.41382 0.68242 0.0
H762 H 0.54187 0.4469 0.85068 0.0
H763 H 0.55271 0.41132 0.86858 0.0
H764 H 0.59181 0.43644 0.89644 0.0
H765 H 0.52025 0.40995 0.62103 0.0
H766 H 0.49576 0.39163 0.65301 0.0
H767 H 0.48806 0.4279 0.64104 0.0
H768 H 0.43473 0.36886 0.75318 0.0
H769 H 0.41343 0.45527 0.71735 0.0
H770 H 0.53666 0.36999 0.80986 0.0
H771 H 0.51793 0.36283 0.73773 0.0
H772 H 0.49452 0.34775 0.7746 0.0
H773 H 0.51109 0.47557 0.76681 0.0
H774 H 0.46141 0.48523 0.71805 0.0
H775 H 0.49282 0.46887 0.69466 0.0
C776 C 0.21611 0.29614 0.50113 0.0
C777 C 0.25053 0.31213 0.52269 0.0
C778 C 0.21497 0.26957 0.47995 0.0
C779 C 0.24889 0.25888 0.47958 0.0
C780 C 0.28333 0.27519 0.49963 0.0
C781 C 0.28383 0.30155 0.52125 0.0
C782 C 0.17774 0.25272 0.45911 0.0
C783 C 0.31997 0.26457 0.49936 0.0
C784 C 0.26313 0.18138 0.47893 0.0
C785 C 0.25247 0.17637 0.42316 0.0
C786 C 0.26122 0.20805 0.49757 0.0
C787 C 0.2488 0.23031 0.45967 0.0
C788 C 0.23731 0.22537 0.40318 0.0
C789 C 0.23899 0.19844 0.38552 0.0
C790 C 0.2733 0.2125 0.55808 0.0
C791 C 0.22403 0.24861 0.36159 0.0
H792 H 0.19003 0.30432 0.50114 0.0
H793 H 0.31072 0.31355 0.53847 0.0
H794 H 0.16764 0.24619 0.41564 0.0
H795 H 0.18361 0.23369 0.48425 0.0
H796 H 0.15362 0.26431 0.46104 0.0
H797 H 0.34362 0.28038 0.51372 0.0
H798 H 0.33129 0.24627 0.5267 0.0
H799 H 0.31302 0.25787 0.45697 0.0
H800 H 0.27399 0.16457 0.50845 0.0
H801 H 0.22989 0.19471 0.34213 0.0
H802 H 0.24943 0.22307 0.5624 0.0
H803 H 0.29956 0.22606 0.57722 0.0
H804 H 0.2803 0.19282 0.58158 0.0
H805 H 0.19874 0.25957 0.3613 0.0
H806 H 0.21528 0.24121 0.31893 0.0
H807 H 0.24812 0.26389 0.37361 0.0
C808 C 0.74094 0.30069 0.9634 0.0
C809 C 0.77454 0.31154 0.96332 0.0
C810 C 0.74104 0.27401 0.98317 0.0
C811 C 0.77534 0.25763 1.0024 0.0
C812 C 0.8093 0.26836 1.00226 0.0
C813 C 0.80862 0.29528 0.98325 0.0
C814 C 0.70443 0.26333 0.98342 0.0
C815 C 0.84629 0.25136 0.02199 0.0
C816 C 0.78769 0.19831 0.09903 0.0
C817 C 0.7742 0.17581 0.06226 0.0
C818 C 0.78821 0.22505 0.08007 0.0
C819 C 0.77577 0.22933 0.02316 0.0
C820 C 0.76322 0.20669 0.98602 0.0
C821 C 0.76228 0.18021 0.00594 0.0
C822 C 0.80151 0.24877 0.12083 0.0
C823 C 0.75033 0.21048 0.92515 0.0
H824 H 0.71428 0.31288 0.94726 0.0
H825 H 0.83495 0.30364 0.9843 0.0
H826 H 0.69352 0.24467 0.95688 0.0
H827 H 0.71135 0.25717 0.02604 0.0
H828 H 0.68051 0.27893 0.96827 0.0
H829 H 0.86984 0.26251 0.0178 0.0
H830 H 0.85757 0.24567 0.06611 0.0
H831 H 0.83973 0.23185 0.99792 0.0
H832 H 0.79788 0.19506 0.14282 0.0
H833 H 0.75144 0.16304 0.97713 0.0
H834 H 0.77751 0.26416 0.10818 0.0
H835 H 0.82692 0.25941 0.12087 0.0
H836 H 0.81014 0.24193 0.16372 0.0
H837 H 0.72398 0.22393 0.90613 0.0
H838 H 0.74319 0.19055 0.90227 0.0
H839 H 0.77384 0.22091 0.91979 0.0
C840 C 0.76757 0.6873 0.487 0.0
C841 C 0.75863 0.68148 0.43212 0.0
C842 C 0.76676 0.71443 0.50433 0.0
C843 C 0.75727 0.73635 0.46606 0.0
C844 C 0.74792 0.73068 0.41053 0.0
C845 C 0.74843 0.70329 0.39412 0.0
C846 C 0.77655 0.71966 0.56383 0.0
C847 C 0.73785 0.75357 0.36866 0.0
C848 C 0.72451 0.80339 0.50299 0.0
C849 C 0.75978 0.81844 0.52806 0.0
C850 C 0.72306 0.77685 0.48157 0.0
C851 C 0.75758 0.76523 0.48458 0.0
C852 C 0.7929 0.7807 0.50778 0.0
C853 C 0.79364 0.80706 0.52953 0.0
C854 C 0.68487 0.76094 0.45729 0.0
C855 C 0.83022 0.76906 0.51117 0.0
H856 H 0.77605 0.67068 0.51688 0.0
H857 H 0.74079 0.69899 0.3514 0.0
H858 H 0.80315 0.73284 0.58436 0.0
H859 H 0.75213 0.73097 0.56538 0.0
H860 H 0.78198 0.70024 0.58785 0.0
H861 H 0.73115 0.74569 0.32703 0.0
H862 H 0.71206 0.76531 0.3649 0.0
H863 H 0.76277 0.7683 0.38285 0.0
H864 H 0.69803 0.81224 0.5007 0.0
H865 H 0.82112 0.81837 0.54934 0.0
H866 H 0.68847 0.74221 0.48249 0.0
H867 H 0.6768 0.75392 0.41469 0.0
H868 H 0.66027 0.77339 0.45584 0.0
H869 H 0.83999 0.75099 0.53933 0.0
H870 H 0.85442 0.78447 0.5267 0.0
H871 H 0.8248 0.76173 0.46978 0.0
C872 C 0.30215 0.78625 0.95081 0.0
C873 C 0.27231 0.80503 0.94289 0.0
C874 C 0.3032 0.75985 0.9722 0.0
C875 C 0.27368 0.75207 0.98601 0.0
C876 C 0.2435 0.77092 0.97823 0.0
C877 C 0.24319 0.79724 0.95677 0.0
C878 C 0.33594 0.74033 0.98019 0.0
C879 C 0.21148 0.76326 0.99239 0.0
C880 C 0.25566 0.67578 0.99537 0.0
C881 C 0.27534 0.67155 0.05282 0.0
C882 C 0.255 0.70189 0.97299 0.0
C883 C 0.27457 0.72423 0.00898 0.0
C884 C 0.29496 0.72 0.06696 0.0
C885 C 0.29511 0.69369 0.08819 0.0
C886 C 0.23294 0.70567 0.91091 0.0
C887 C 0.31641 0.74331 0.10656 0.0
H888 H 0.32503 0.79235 0.94083 0.0
H889 H 0.21982 0.81157 0.95009 0.0
H890 H 0.35288 0.73438 0.02444 0.0
H891 H 0.32348 0.72111 0.95607 0.0
H892 H 0.3565 0.74954 0.96706 0.0
H893 H 0.19011 0.78029 0.98381 0.0
H894 H 0.19534 0.74484 0.96815 0.0
H895 H 0.22461 0.75773 0.03688 0.0
H896 H 0.23999 0.65878 0.96795 0.0
H897 H 0.31081 0.69041 0.13259 0.0
H898 H 0.25301 0.7138 0.89593 0.0
H899 H 0.20914 0.72107 0.89997 0.0
H900 H 0.21974 0.68609 0.88865 0.0
H901 H 0.33886 0.75219 0.09685 0.0
H902 H 0.33117 0.73651 0.15049 0.0
H903 H 0.29546 0.76009 0.10168 0.0
loop_
_geom_bond_atom_site_label_1
_geom_bond_atom_site_label_2
_geom_bond_distance
_geom_bond_site_symmetry_2
_ccdc_geom_bond_type
C0 C1 1.351 . S
C0 N3 1.368 . S
C0 H5 0.931 . S
C1 C0 1.351 . S
C1 N2 1.373 . S
C1 H29 0.930 . S
N2 C1 1.373 . S
N2 C4 1.340 . S
N3 C0 1.368 . S
N3 C4 1.321 . S
N3 Co6 2.135 . S
C4 N2 1.340 . S
C4 N3 1.321 . S
C4 H28 0.930 . S
H5 C0 0.931 . S
Co6 N3 2.135 . S
Co6 N9 2.121 . S
Co6 O14 2.055 . S
Co6 O17 2.039 . S
Co6 N20 2.140 . S
C7 O8 1.227 . S
C7 O17 1.265 . S
O8 C7 1.227 . S
N9 Co6 2.121 . S
N9 C11 1.375 . S
N9 C12 1.313 . S
C10 C11 1.338 . S
C10 N13 1.377 . S
C10 H30 0.930 . S
C11 N9 1.375 . S
C11 C10 1.338 . S
C11 H15 0.931 . S
C12 N9 1.313 . S
C12 N13 1.344 . S
C12 H16 0.930 . S
N13 C10 1.377 . S
N13 C12 1.344 . S
O14 Co6 2.055 . S
O14 C18 1.253 . S
H15 C11 0.931 . S
H16 C12 0.930 . S
O17 Co6 2.039 . S
O17 C7 1.265 . S
C18 O14 1.253 . S
C18 O19 1.227 . S
O19 C18 1.227 . S
N20 Co6 2.140 . S
N20 C23 1.346 . S
N20 C24 1.345 . S
C21 C22 1.387 . S
C21 C25 1.391 . S
C22 C21 1.387 . S
C22 C23 1.369 . S
C22 H31 0.929 . S
C23 N20 1.346 . S
C23 C22 1.369 . S
C23 H26 0.928 . S
C24 N20 1.345 . S
C24 C25 1.371 . S
C24 H27 0.931 . S
C25 C21 1.391 . S
C25 C24 1.371 . S
C25 H32 0.930 . S
H26 C23 0.928 . S
H27 C24 0.931 . S
H28 C4 0.930 . S
H29 C1 0.930 . S
H30 C10 0.930 . S
H31 C22 0.929 . S
H32 C25 0.930 . S
C33 C34 1.351 . S
C33 N36 1.368 . S
C33 H38 0.931 . S
C34 C33 1.351 . S
C34 N35 1.373 . S
C34 H62 0.930 . S
N35 C34 1.373 . S
N35 C37 1.340 . S
N36 C33 1.368 . S
N36 C37 1.321 . S
N36 Co39 2.135 . S
C37 N35 1.340 . S
C37 N36 1.321 . S
C37 H61 0.930 . S
H38 C33 0.931 . S
Co39 N36 2.135 . S
Co39 N42 2.121 . S
Co39 O47 2.055 . S
Co39 O50 2.039 . S
Co39 N53 2.140 . S
C40 O41 1.227 1_554 S
C40 O50 1.265 . S
O41 C40 1.227 1_556 S
N42 Co39 2.121 . S
N42 C44 1.375 1_554 S
N42 C45 1.313 . S
C43 C44 1.338 . S
C43 N46 1.377 1_556 S
C43 H63 0.930 . S
C44 N42 1.375 1_556 S
C44 C43 1.338 . S
C44 H48 0.931 . S
C45 N42 1.313 . S
C45 N46 1.344 . S
C45 H49 0.930 . S
N46 C43 1.377 1_554 S
N46 C45 1.344 . S
O47 Co39 2.055 . S
O47 C51 1.253 . S
H48 C44 0.931 . S
H49 C45 0.930 . S
O50 Co39 2.039 . S
O50 C40 1.265 . S
C51 O47 1.253 . S
C51 O52 1.227 . S
O52 C51 1.227 . S
N53 Co39 2.140 . S
N53 C56 1.346 . S
N53 C57 1.345 . S
C54 C55 1.387 . S
C54 C58 1.391 . S
C55 C54 1.387 . S
C55 C56 1.369 . S
C55 H64 0.929 . S
C56 N53 1.346 . S
C56 C55 1.369 . S
C56 H59 0.928 . S
C57 N53 1.345 . S
C57 C58 1.371 . S
C57 H60 0.931 . S
C58 C54 1.391 . S
C58 C57 1.371 . S
C58 H65 0.930 . S
H59 C56 0.928 . S
H60 C57 0.931 . S
H61 C37 0.930 . S
H62 C34 0.930 . S
H63 C43 0.930 . S
H64 C55 0.929 . S
H65 C58 0.930 . S
C66 C67 1.351 . S
C66 N69 1.368 . S
C66 H71 0.931 . S
C67 C66 1.351 . S
C67 N68 1.373 . S
C67 H95 0.930 . S
N68 C67 1.373 . S
N68 C70 1.340 . S
N69 C66 1.368 . S
N69 C70 1.321 . S
N69 Co72 2.135 . S
C70 N68 1.340 . S
C70 N69 1.321 . S
C70 H94 0.930 . S
H71 C66 0.931 . S
Co72 N69 2.135 . S
Co72 N75 2.121 . S
Co72 O80 2.055 . S
Co72 O83 2.039 . S
Co72 N86 2.140 . S
C73 O74 1.227 . S
C73 O83 1.265 . S
O74 C73 1.227 . S
N75 Co72 2.121 . S
N75 C77 1.375 . S
N75 C78 1.313 . S
C76 C77 1.338 . S
C76 N79 1.377 . S
C76 H96 0.930 . S
C77 N75 1.375 . S
C77 C76 1.338 . S
C77 H81 0.931 . S
C78 N75 1.313 . S
C78 N79 1.344 . S
C78 H82 0.930 . S
N79 C76 1.377 . S
N79 C78 1.344 . S
O80 Co72 2.055 . S
O80 C84 1.253 . S
H81 C77 0.931 . S
H82 C78 0.930 . S
O83 Co72 2.039 . S
O83 C73 1.265 . S
C84 O80 1.253 . S
C84 O85 1.227 . S
O85 C84 1.227 . S
N86 Co72 2.140 . S
N86 C89 1.346 . S
N86 C90 1.345 . S
C87 C88 1.387 . S
C87 C91 1.391 . S
C88 C87 1.387 . S
C88 C89 1.369 . S
C88 H97 0.929 . S
C89 N86 1.346 . S
C89 C88 1.369 . S
C89 H92 0.928 . S
C90 N86 1.345 . S
C90 C91 1.371 . S
C90 H93 0.931 . S
C91 C87 1.391 . S
C91 C90 1.371 . S
C91 H98 0.930 . S
H92 C89 0.928 . S
H93 C90 0.931 . S
H94 C70 0.930 . S
H95 C67 0.930 . S
H96 C76 0.930 . S
H97 C88 0.929 . S
H98 C91 0.930 . S
C99 C100 1.351 . S
C99 N102 1.368 . S
C99 H104 0.931 . S
C100 C99 1.351 . S
C100 N101 1.373 . S
C100 H128 0.930 . S
N101 C100 1.373 . S
N101 C103 1.340 . S
N102 C99 1.368 . S
N102 C103 1.321 . S
N102 Co105 2.135 . S
C103 N101 1.340 . S
C103 N102 1.321 . S
C103 H127 0.930 . S
H104 C99 0.931 . S
Co105 N102 2.135 . S
Co105 N108 2.121 . S
Co105 O113 2.055 . S
Co105 O116 2.039 . S
Co105 N119 2.140 . S
C106 O107 1.227 1_556 S
C106 O116 1.265 . S
O107 C106 1.227 1_554 S
N108 Co105 2.121 . S
N108 C110 1.375 1_556 S
N108 C111 1.313 . S
C109 C110 1.338 . S
C109 N112 1.377 1_554 S
C109 H129 0.930 . S
C110 N108 1.375 1_554 S
C110 C109 1.338 . S
C110 H114 0.931 . S
C111 N108 1.313 . S
C111 N112 1.344 . S
C111 H115 0.930 . S
N112 C109 1.377 1_556 S
N112 C111 1.344 . S
O113 Co105 2.055 . S
O113 C117 1.253 . S
H114 C110 0.931 . S
H115 C111 0.930 . S
O116 Co105 2.039 . S
O116 C106 1.265 . S
C117 O113 1.253 . S
C117 O118 1.227 . S
O118 C117 1.227 . S
N119 Co105 2.140 . S
N119 C122 1.346 . S
N119 C123 1.345 . S
C120 C121 1.387 . S
C120 C124 1.391 . S
C121 C120 1.387 . S
C121 C122 1.369 . S
C121 H130 0.929 . S
C122 N119 1.346 . S
C122 C121 1.369 . S
C122 H125 0.928 . S
C123 N119 1.345 . S
C123 C124 1.371 . S
C123 H126 0.931 . S
C124 C120 1.391 . S
C124 C123 1.371 . S
C124 H131 0.930 . S
H125 C122 0.928 . S
H126 C123 0.931 . S
H127 C103 0.930 . S
H128 C100 0.930 . S
H129 C109 0.930 . S
H130 C121 0.929 . S
H131 C124 0.930 . S
C132 C133 1.351 . S
C132 N135 1.368 . S
C132 H137 0.931 . S
C133 C132 1.351 . S
C133 N134 1.373 . S
C133 H161 0.930 . S
N134 C133 1.373 . S
N134 C136 1.340 . S
N135 C132 1.368 . S
N135 C136 1.321 . S
N135 Co138 2.135 . S
C136 N134 1.340 . S
C136 N135 1.321 . S
C136 H160 0.930 . S
H137 C132 0.931 . S
Co138 N135 2.135 . S
Co138 N141 2.121 . S
Co138 O146 2.055 . S
Co138 O149 2.039 . S
Co138 N152 2.140 . S
C139 O140 1.227 . S
C139 O149 1.265 . S
O140 C139 1.227 . S
N141 Co138 2.121 . S
N141 C143 1.375 . S
N141 C144 1.313 . S
C142 C143 1.338 . S
C142 N145 1.377 . S
C142 H162 0.930 . S
C143 N141 1.375 . S
C143 C142 1.338 . S
C143 H147 0.931 . S
C144 N141 1.313 . S
C144 N145 1.344 . S
C144 H148 0.930 . S
N145 C142 1.377 . S
N145 C144 1.344 . S
O146 Co138 2.055 . S
O146 C150 1.253 . S
H147 C143 0.931 . S
H148 C144 0.930 . S
O149 Co138 2.039 . S
O149 C139 1.265 . S
C150 O146 1.253 . S
C150 O151 1.227 . S
O151 C150 1.227 . S
N152 Co138 2.140 . S
N152 C155 1.346 . S
N152 C156 1.345 . S
C153 C154 1.387 . S
C153 C157 1.391 . S
C154 C153 1.387 . S
C154 C155 1.369 . S
C154 H163 0.929 . S
C155 N152 1.346 . S
C155 C154 1.369 . S
C155 H158 0.928 . S
C156 N152 1.345 . S
C156 C157 1.371 . S
C156 H159 0.931 . S
C157 C153 1.391 . S
C157 C156 1.371 . S
C157 H164 0.930 . S
H158 C155 0.928 . S
H159 C156 0.931 . S
H160 C136 0.930 . S
H161 C133 0.930 . S
H162 C142 0.930 . S
H163 C154 0.929 . S
H164 C157 0.930 . S
C165 C166 1.351 . S
C165 N168 1.368 . S
C165 H170 0.931 . S
C166 C165 1.351 . S
C166 N167 1.373 . S
C166 H194 0.930 . S
N167 C166 1.373 . S
N167 C169 1.340 . S
N168 C165 1.368 . S
N168 C169 1.321 . S
N168 Co171 2.135 . S
C169 N167 1.340 . S
C169 N168 1.321 . S
C169 H193 0.930 . S
H170 C165 0.931 . S
Co171 N168 2.135 . S
Co171 N174 2.121 . S
Co171 O179 2.055 . S
Co171 O182 2.039 . S
Co171 N185 2.140 . S
C172 O173 1.227 1_554 S
C172 O182 1.265 . S
O173 C172 1.227 1_556 S
N174 Co171 2.121 . S
N174 C176 1.375 1_554 S
N174 C177 1.313 . S
C175 C176 1.338 . S
C175 N178 1.377 1_556 S
C175 H195 0.930 . S
C176 N174 1.375 1_556 S
C176 C175 1.338 . S
C176 H180 0.931 . S
C177 N174 1.313 . S
C177 N178 1.344 . S
C177 H181 0.930 . S
N178 C175 1.377 1_554 S
N178 C177 1.344 . S
O179 Co171 2.055 . S
O179 C183 1.253 . S
H180 C176 0.931 . S
H181 C177 0.930 . S
O182 Co171 2.039 . S
O182 C172 1.265 . S
C183 O179 1.253 . S
C183 O184 1.227 . S
O184 C183 1.227 . S
N185 Co171 2.140 . S
N185 C188 1.346 . S
N185 C189 1.345 . S
C186 C187 1.387 . S
C186 C190 1.391 . S
C187 C186 1.387 . S
C187 C188 1.369 . S
C187 H196 0.929 . S
C188 N185 1.346 . S
C188 C187 1.369 . S
C188 H191 0.928 . S
C189 N185 1.345 . S
C189 C190 1.371 . S
C189 H192 0.931 . S
C190 C186 1.391 . S
C190 C189 1.371 . S
C190 H197 0.930 . S
H191 C188 0.928 . S
H192 C189 0.931 . S
H193 C169 0.930 . S
H194 C166 0.930 . S
H195 C175 0.930 . S
H196 C187 0.929 . S
H197 C190 0.930 . S
C198 C199 1.351 . S
C198 N201 1.368 . S
C198 H203 0.931 . S
C199 C198 1.351 . S
C199 N200 1.373 . S
C199 H227 0.930 . S
N200 C199 1.373 . S
N200 C202 1.340 . S
N201 C198 1.368 . S
N201 C202 1.321 . S
N201 Co204 2.135 . S
C202 N200 1.340 . S
C202 N201 1.321 . S
C202 H226 0.930 . S
H203 C198 0.931 . S
Co204 N201 2.135 . S
Co204 N207 2.121 . S
Co204 O212 2.055 . S
Co204 O215 2.039 . S
Co204 N218 2.140 . S
C205 O206 1.227 . S
C205 O215 1.265 . S
O206 C205 1.227 . S
N207 Co204 2.121 . S
N207 C209 1.375 . S
N207 C210 1.313 . S
C208 C209 1.338 . S
C208 N211 1.377 . S
C208 H228 0.930 . S
C209 N207 1.375 . S
C209 C208 1.338 . S
C209 H213 0.931 . S
C210 N207 1.313 . S
C210 N211 1.344 . S
C210 H214 0.930 . S
N211 C208 1.377 . S
N211 C210 1.344 . S
O212 Co204 2.055 . S
O212 C216 1.253 . S
H213 C209 0.931 . S
H214 C210 0.930 . S
O215 Co204 2.039 . S
O215 C205 1.265 . S
C216 O212 1.253 . S
C216 O217 1.227 . S
O217 C216 1.227 . S
N218 Co204 2.140 . S
N218 C221 1.346 . S
N218 C222 1.345 . S
C219 C220 1.387 . S
C219 C223 1.391 . S
C220 C219 1.387 . S
C220 C221 1.369 . S
C220 H229 0.929 . S
C221 N218 1.346 . S
C221 C220 1.369 . S
C221 H224 0.928 . S
C222 N218 1.345 . S
C222 C223 1.371 . S
C222 H225 0.931 . S
C223 C219 1.391 . S
C223 C222 1.371 . S
C223 H230 0.930 . S
H224 C221 0.928 . S
H225 C222 0.931 . S
H226 C202 0.930 . S
H227 C199 0.930 . S
H228 C208 0.930 . S
H229 C220 0.929 . S
H230 C223 0.930 . S
C231 C232 1.351 . S
C231 N234 1.368 . S
C231 H236 0.931 . S
C232 C231 1.351 . S
C232 N233 1.373 . S
C232 H260 0.930 . S
N233 C232 1.373 . S
N233 C235 1.340 . S
N234 C231 1.368 . S
N234 C235 1.321 . S
N234 Co237 2.135 . S
C235 N233 1.340 . S
C235 N234 1.321 . S
C235 H259 0.930 . S
H236 C231 0.931 . S
Co237 N234 2.135 . S
Co237 N240 2.121 . S
Co237 O245 2.055 . S
Co237 O248 2.039 . S
Co237 N251 2.140 . S
C238 O239 1.227 1_556 S
C238 O248 1.265 . S
O239 C238 1.227 1_554 S
N240 Co237 2.121 . S
N240 C242 1.375 1_556 S
N240 C243 1.313 . S
C241 C242 1.338 . S
C241 N244 1.377 1_554 S
C241 H261 0.930 . S
C242 N240 1.375 1_554 S
C242 C241 1.338 . S
C242 H246 0.931 . S
C243 N240 1.313 . S
C243 N244 1.344 . S
C243 H247 0.930 . S
N244 C241 1.377 1_556 S
N244 C243 1.344 . S
O245 Co237 2.055 . S
O245 C249 1.253 . S
H246 C242 0.931 . S
H247 C243 0.930 . S
O248 Co237 2.039 . S
O248 C238 1.265 . S
C249 O245 1.253 . S
C249 O250 1.227 . S
O250 C249 1.227 . S
N251 Co237 2.140 . S
N251 C254 1.346 . S
N251 C255 1.345 . S
C252 C253 1.387 . S
C252 C256 1.391 . S
C253 C252 1.387 . S
C253 C254 1.369 . S
C253 H262 0.929 . S
C254 N251 1.346 . S
C254 C253 1.369 . S
C254 H257 0.928 . S
C255 N251 1.345 . S
C255 C256 1.371 . S
C255 H258 0.931 . S
C256 C252 1.391 . S
C256 C255 1.371 . S
C256 H263 0.930 . S
H257 C254 0.928 . S
H258 C255 0.931 . S
H259 C235 0.930 . S
H260 C232 0.930 . S
H261 C241 0.930 . S
H262 C253 0.929 . S
H263 C256 0.930 . S
C264 C265 1.391 . S
C264 C266 1.394 . S
C264 H280 0.931 . S
C265 C264 1.391 . S
C265 C269 1.376 1_565 S
C266 C264 1.394 . S
C266 C267 1.369 . S
C266 C270 1.531 . S
C267 C266 1.369 . S
C267 C268 1.410 1_565 S
C267 C275 1.503 1_565 S
C268 C267 1.410 1_545 S
C268 C269 1.392 . S
C268 C271 1.511 . S
C269 C265 1.376 1_545 S
C269 C268 1.392 . S
C269 H281 0.929 . S
C270 C266 1.531 . S
C270 H282 0.960 . S
C270 H283 0.962 . S
C270 H284 0.960 . S
C271 C268 1.511 . S
C271 H285 0.961 . S
C271 H286 0.961 . S
C271 H287 0.961 . S
C272 C273 1.370 . S
C272 C274 1.363 . S
C272 H288 0.931 . S
C273 C272 1.370 . S
C273 C277 1.408 . S
C274 C272 1.363 . S
C274 C275 1.370 . S
C274 C278 1.524 . S
C275 C267 1.503 1_545 S
C275 C274 1.370 . S
C275 C276 1.403 . S
C276 C275 1.403 . S
C276 C277 1.404 . S
C276 C279 1.539 1_545 S
C277 C273 1.408 . S
C277 C276 1.404 . S
C277 H289 0.930 . S
C278 C274 1.524 . S
C278 H290 0.956 . S
C278 H291 0.961 . S
C278 H292 0.961 . S
C279 C276 1.539 1_565 S
C279 H293 0.958 . S
C279 H294 0.963 . S
C279 H295 0.960 . S
H280 C264 0.931 . S
H281 C269 0.929 . S
H282 C270 0.960 . S
H283 C270 0.962 . S
H284 C270 0.960 . S
H285 C271 0.961 . S
H286 C271 0.961 . S
H287 C271 0.961 . S
H288 C272 0.931 . S
H289 C277 0.930 . S
H290 C278 0.956 . S
H291 C278 0.961 . S
H292 C278 0.961 . S
H293 C279 0.958 . S
H294 C279 0.963 . S
H295 C279 0.960 . S
C296 C297 1.391 . S
C296 C298 1.394 . S
C296 H312 0.931 . S
C297 C296 1.391 . S
C297 C301 1.376 . S
C298 C296 1.394 . S
C298 C299 1.369 . S
C298 C302 1.531 . S
C299 C298 1.369 . S
C299 C300 1.410 . S
C299 C307 1.503 . S
C300 C299 1.410 . S
C300 C301 1.392 . S
C300 C303 1.511 1_545 S
C301 C297 1.376 . S
C301 C300 1.392 . S
C301 H313 0.929 . S
C302 C298 1.531 . S
C302 H314 0.960 . S
C302 H315 0.962 . S
C302 H316 0.960 . S
C303 C300 1.511 1_565 S
C303 H317 0.961 . S
C303 H318 0.961 . S
C303 H319 0.961 . S
C304 C305 1.370 . S
C304 C306 1.363 . S
C304 H320 0.931 . S
C305 C304 1.370 . S
C305 C309 1.408 1_565 S
C306 C304 1.363 . S
C306 C307 1.370 1_565 S
C306 C310 1.524 . S
C307 C299 1.503 . S
C307 C306 1.370 1_545 S
C307 C308 1.403 . S
C308 C307 1.403 . S
C308 C309 1.404 . S
C308 C311 1.539 . S
C309 C305 1.408 1_545 S
C309 C308 1.404 . S
C309 H321 0.930 . S
C310 C306 1.524 . S
C310 H322 0.956 . S
C310 H323 0.961 . S
C310 H324 0.961 . S
C311 C308 1.539 . S
C311 H325 0.958 . S
C311 H326 0.961 . S
C311 H327 0.960 . S
H312 C296 0.931 . S
H313 C301 0.929 . S
H314 C302 0.960 . S
H315 C302 0.962 . S
H316 C302 0.960 . S
H317 C303 0.961 . S
H318 C303 0.961 . S
H319 C303 0.961 . S
H320 C304 0.931 . S
H321 C309 0.930 . S
H322 C310 0.956 . S
H323 C310 0.961 . S
H324 C310 0.961 . S
H325 C311 0.958 . S
H326 C311 0.961 . S
H327 C311 0.960 . S
C328 C329 1.391 . S
C328 C330 1.394 . S
C328 H344 0.931 . S
C329 C328 1.391 . S
C329 C333 1.376 . S
C330 C328 1.394 . S
C330 C331 1.369 . S
C330 C334 1.531 . S
C331 C330 1.369 . S
C331 C332 1.410 . S
C331 C339 1.503 . S
C332 C331 1.410 . S
C332 C333 1.392 . S
C332 C335 1.511 1_565 S
C333 C329 1.376 . S
C333 C332 1.392 . S
C333 H345 0.929 . S
C334 C330 1.531 . S
C334 H346 0.960 . S
C334 H347 0.962 . S
C334 H348 0.960 . S
C335 C332 1.511 1_545 S
C335 H349 0.961 . S
C335 H350 0.961 . S
C335 H351 0.961 1_545 S
C336 C337 1.370 . S
C336 C338 1.363 . S
C336 H352 0.931 . S
C337 C336 1.370 . S
C337 C341 1.408 1_545 S
C338 C336 1.363 . S
C338 C339 1.370 1_545 S
C338 C342 1.524 . S
C339 C331 1.503 . S
C339 C338 1.370 1_565 S
C339 C340 1.403 . S
C340 C339 1.403 . S
C340 C341 1.404 . S
C340 C343 1.539 . S
C341 C337 1.408 1_565 S
C341 C340 1.404 . S
C341 H353 0.930 1_556 S
C342 C338 1.524 . S
C342 H354 0.956 . S
C342 H355 0.961 . S
C342 H356 0.961 . S
C343 C340 1.539 . S
C343 H357 0.958 . S
C343 H358 0.961 . S
C343 H359 0.960 . S
H344 C328 0.931 . S
H345 C333 0.929 . S
H346 C334 0.960 . S
H347 C334 0.962 . S
H348 C334 0.960 . S
H349 C335 0.961 . S
H350 C335 0.961 . S
H351 C335 0.961 1_565 S
H352 C336 0.931 . S
H353 C341 0.930 1_554 S
H354 C342 0.956 . S
H355 C342 0.961 . S
H356 C342 0.961 . S
H357 C343 0.958 . S
H358 C343 0.961 . S
H359 C343 0.960 . S
C360 C361 1.391 . S
C360 C362 1.394 . S
C360 H376 0.931 . S
C361 C360 1.391 . S
C361 C365 1.376 . S
C362 C360 1.394 . S
C362 C363 1.369 . S
C362 C366 1.531 . S
C363 C362 1.369 . S
C363 C364 1.410 1_565 S
C363 C371 1.496 1_565 S
C364 C363 1.410 1_545 S
C364 C365 1.392 1_545 S
C364 C367 1.511 . S
C365 C361 1.376 . S
C365 C364 1.392 1_565 S
C365 H377 0.929 1_565 S
C366 C362 1.531 . S
C366 H378 0.960 . S
C366 H379 0.962 . S
C366 H380 0.960 . S
C367 C364 1.511 . S
C367 H381 0.961 . S
C367 H382 0.961 . S
C367 H383 0.961 . S
C368 C369 1.370 . S
C368 C370 1.363 . S
C368 H384 0.931 . S
C369 C368 1.370 . S
C369 C373 1.408 . S
C370 C368 1.363 . S
C370 C371 1.376 . S
C370 C374 1.524 . S
C371 C363 1.496 1_545 S
C371 C370 1.376 . S
C371 C372 1.405 . S
C372 C371 1.405 . S
C372 C373 1.404 . S
C372 C375 1.539 1_545 S
C373 C369 1.408 . S
C373 C372 1.404 . S
C373 H385 0.930 . S
C374 C370 1.524 . S
C374 H386 0.956 1_545 S
C374 H387 0.961 . S
C374 H388 0.961 . S
C375 C372 1.539 1_565 S
C375 H389 0.958 . S
C375 H390 0.961 1_565 S
C375 H391 0.960 1_565 S
H376 C360 0.931 . S
H377 C365 0.929 1_545 S
H378 C366 0.960 . S
H379 C366 0.962 . S
H380 C366 0.960 . S
H381 C367 0.961 . S
H382 C367 0.961 . S
H383 C367 0.961 . S
H384 C368 0.931 . S
H385 C373 0.930 . S
H386 C374 0.956 1_565 S
H387 C374 0.961 . S
H388 C374 0.961 . S
H389 C375 0.958 . S
H390 C375 0.961 1_545 S
H391 C375 0.960 1_545 S
C392 C393 1.391 . S
C392 C394 1.394 . S
C392 H408 0.931 . S
C393 C392 1.391 . S
C393 C397 1.376 . S
C394 C392 1.394 . S
C394 C395 1.369 . S
C394 C398 1.531 . S
C395 C394 1.369 . S
C395 C396 1.410 . S
C395 C403 1.503 . S
C396 C395 1.410 . S
C396 C397 1.392 . S
C396 C399 1.511 . S
C397 C393 1.376 . S
C397 C396 1.392 . S
C397 H409 0.929 . S
C398 C394 1.531 . S
C398 H410 0.960 . S
C398 H411 0.962 . S
C398 H412 0.960 . S
C399 C396 1.511 . S
C399 H413 0.961 . S
C399 H414 0.961 . S
C399 H415 0.961 . S
C400 C401 1.370 . S
C400 C402 1.363 . S
C400 H416 0.931 . S
C401 C400 1.370 . S
C401 C405 1.408 . S
C402 C400 1.363 . S
C402 C403 1.370 . S
C402 C406 1.524 . S
C403 C395 1.503 . S
C403 C402 1.370 . S
C403 C404 1.403 . S
C404 C403 1.403 . S
C404 C405 1.404 . S
C404 C407 1.539 . S
C405 C401 1.408 . S
C405 C404 1.404 . S
C405 H417 0.930 . S
C406 C402 1.524 . S
C406 H418 0.956 . S
C406 H419 0.961 . S
C406 H420 0.961 . S
C407 C404 1.539 . S
C407 H421 0.958 . S
C407 H422 0.961 . S
C407 H423 0.960 . S
H408 C392 0.931 . S
H409 C397 0.929 . S
H410 C398 0.960 . S
H411 C398 0.962 . S
H412 C398 0.960 . S
H413 C399 0.961 . S
H414 C399 0.961 . S
H415 C399 0.961 . S
H416 C400 0.931 . S
H417 C405 0.930 . S
H418 C406 0.956 . S
H419 C406 0.961 . S
H420 C406 0.961 . S
H421 C407 0.958 . S
H422 C407 0.961 . S
H423 C407 0.960 . S
C424 C425 1.391 . S
C424 C426 1.394 . S
C424 H440 0.931 . S
C425 C424 1.391 . S
C425 C429 1.376 . S
C426 C424 1.394 . S
C426 C427 1.369 . S
C426 C430 1.531 . S
C427 C426 1.369 . S
C427 C428 1.410 . S
C427 C435 1.503 . S
C428 C427 1.410 . S
C428 C429 1.392 . S
C428 C431 1.511 . S
C429 C425 1.376 . S
C429 C428 1.392 . S
C429 H441 0.929 . S
C430 C426 1.531 . S
C430 H442 0.960 . S
C430 H443 0.962 . S
C430 H444 0.960 . S
C431 C428 1.511 . S
C431 H445 0.961 . S
C431 H446 0.961 . S
C431 H447 0.961 . S
C432 C433 1.370 . S
C432 C434 1.363 . S
C432 H448 0.931 . S
C433 C432 1.370 . S
C433 C437 1.408 . S
C434 C432 1.363 . S
C434 C435 1.370 . S
C434 C438 1.524 . S
C435 C427 1.503 . S
C435 C434 1.370 . S
C435 C436 1.403 . S
C436 C435 1.403 . S
C436 C437 1.404 . S
C436 C439 1.539 . S
C437 C433 1.408 . S
C437 C436 1.404 . S
C437 H449 0.930 . S
C438 C434 1.524 . S
C438 H450 0.956 . S
C438 H451 0.961 . S
C438 H452 0.961 . S
C439 C436 1.539 . S
C439 H453 0.958 . S
C439 H454 0.961 . S
C439 H455 0.960 . S
H440 C424 0.931 . S
H441 C429 0.929 . S
H442 C430 0.960 . S
H443 C430 0.962 . S
H444 C430 0.960 . S
H445 C431 0.961 . S
H446 C431 0.961 . S
H447 C431 0.961 . S
H448 C432 0.931 . S
H449 C437 0.930 . S
H450 C438 0.956 . S
H451 C438 0.961 . S
H452 C438 0.961 . S
H453 C439 0.958 . S
H454 C439 0.961 . S
H455 C439 0.960 . S
C456 C457 1.391 . S
C456 C458 1.394 . S
C456 H472 0.931 . S
C457 C456 1.391 . S
C457 C461 1.376 . S
C458 C456 1.394 . S
C458 C459 1.369 . S
C458 C462 1.531 . S
C459 C458 1.369 . S
C459 C460 1.410 . S
C459 C467 1.503 . S
C460 C459 1.410 . S
C460 C461 1.392 . S
C460 C463 1.511 . S
C461 C457 1.376 . S
C461 C460 1.392 . S
C461 H473 0.929 1_556 S
C462 C458 1.531 . S
C462 H474 0.960 . S
C462 H475 0.962 . S
C462 H476 0.960 . S
C463 C460 1.511 . S
C463 H477 0.961 . S
C463 H478 0.961 . S
C463 H479 0.961 . S
C464 C465 1.370 . S
C464 C466 1.363 . S
C464 H480 0.931 . S
C465 C464 1.370 . S
C465 C469 1.408 . S
C466 C464 1.363 . S
C466 C467 1.370 . S
C466 C470 1.524 . S
C467 C459 1.503 . S
C467 C466 1.370 . S
C467 C468 1.403 . S
C468 C467 1.403 . S
C468 C469 1.404 . S
C468 C471 1.539 . S
C469 C465 1.408 . S
C469 C468 1.404 . S
C469 H481 0.930 . S
C470 C466 1.524 . S
C470 H482 0.956 . S
C470 H483 0.961 . S
C470 H484 0.961 . S
C471 C468 1.539 . S
C471 H485 0.958 . S
C471 H486 0.961 . S
C471 H487 0.960 . S
H472 C456 0.931 . S
H473 C461 0.929 1_554 S
H474 C462 0.960 . S
H475 C462 0.962 . S
H476 C462 0.960 . S
H477 C463 0.961 . S
H478 C463 0.961 . S
H479 C463 0.961 . S
H480 C464 0.931 . S
H481 C469 0.930 . S
H482 C470 0.956 . S
H483 C470 0.961 . S
H484 C470 0.961 . S
H485 C471 0.958 . S
H486 C471 0.961 . S
H487 C471 0.960 . S
C488 C489 1.391 . S
C488 C490 1.394 . S
C488 H504 0.931 . S
C489 C488 1.391 . S
C489 C493 1.376 . S
C490 C488 1.394 . S
C490 C491 1.369 . S
C490 C494 1.531 . S
C491 C490 1.369 . S
C491 C492 1.410 . S
C491 C499 1.503 . S
C492 C491 1.410 . S
C492 C493 1.392 . S
C492 C495 1.511 . S
C493 C489 1.376 . S
C493 C492 1.392 . S
C493 H505 0.929 . S
C494 C490 1.531 . S
C494 H506 0.960 . S
C494 H507 0.962 . S
C494 H508 0.960 . S
C495 C492 1.511 . S
C495 H509 0.961 . S
C495 H510 0.961 . S
C495 H511 0.961 . S
C496 C497 1.370 . S
C496 C498 1.363 . S
C496 H512 0.931 . S
C497 C496 1.370 . S
C497 C501 1.408 . S
C498 C496 1.363 . S
C498 C499 1.370 . S
C498 C502 1.524 . S
C499 C491 1.503 . S
C499 C498 1.370 . S
C499 C500 1.403 . S
C500 C499 1.403 . S
C500 C501 1.404 . S
C500 C503 1.539 . S
C501 C497 1.408 . S
C501 C500 1.404 . S
C501 H513 0.930 . S
C502 C498 1.524 . S
C502 H514 0.956 . S
C502 H515 0.961 . S
C502 H516 0.961 . S
C503 C500 1.539 . S
C503 H517 0.958 . S
C503 H518 0.961 . S
C503 H519 0.960 . S
H504 C488 0.931 . S
H505 C493 0.929 . S
H506 C494 0.960 . S
H507 C494 0.962 . S
H508 C494 0.960 . S
H509 C495 0.961 . S
H510 C495 0.961 . S
H511 C495 0.961 . S
H512 C496 0.931 . S
H513 C501 0.930 . S
H514 C502 0.956 . S
H515 C502 0.961 . S
H516 C502 0.961 . S
H517 C503 0.958 . S
H518 C503 0.961 . S
H519 C503 0.960 . S
C520 C521 1.391 . S
C520 C522 1.394 . S
C520 H536 0.931 . S
C521 C520 1.391 . S
C521 C525 1.376 . S
C522 C520 1.394 . S
C522 C523 1.377 . S
C522 C526 1.531 . S
C523 C522 1.377 . S
C523 C524 1.411 . S
C523 C531 1.496 1_565 S
C524 C523 1.411 . S
C524 C525 1.392 . S
C524 C527 1.511 1_565 S
C525 C521 1.376 . S
C525 C524 1.392 . S
C525 H537 0.929 . S
C526 C522 1.531 . S
C526 H538 0.960 1_565 S
C526 H539 0.962 . S
C526 H540 0.960 . S
C527 C524 1.511 1_545 S
C527 H541 0.960 1_545 S
C527 H542 0.961 . S
C527 H543 0.961 . S
C528 C529 1.370 . S
C528 C530 1.363 1_545 S
C528 H544 0.931 1_545 S
C529 C528 1.370 . S
C529 C533 1.408 . S
C530 C528 1.363 1_565 S
C530 C531 1.370 1_565 S
C530 C534 1.524 . S
C531 C523 1.496 1_545 S
C531 C530 1.370 1_545 S
C531 C532 1.403 . S
C532 C531 1.403 . S
C532 C533 1.404 . S
C532 C535 1.539 . S
C533 C529 1.408 . S
C533 C532 1.404 . S
C533 H545 0.930 . S
C534 C530 1.524 . S
C534 H546 0.956 . S
C534 H547 0.961 . S
C534 H548 0.961 . S
C535 C532 1.539 . S
C535 H549 0.958 . S
C535 H550 0.961 . S
C535 H551 0.960 . S
H536 C520 0.931 . S
H537 C525 0.929 . S
H538 C526 0.960 1_545 S
H539 C526 0.962 . S
H540 C526 0.960 . S
H541 C527 0.960 1_565 S
H542 C527 0.961 . S
H543 C527 0.961 . S
H544 C528 0.931 1_565 S
H545 C533 0.930 . S
H546 C534 0.956 . S
H547 C534 0.961 . S
H548 C534 0.961 . S
H549 C535 0.958 . S
H550 C535 0.961 . S
H551 C535 0.960 . S
C552 C553 1.391 1_554 S
C552 C554 1.394 1_565 S
C552 H568 0.938 . S
C553 C552 1.391 1_556 S
C553 C557 1.376 . S
C554 C552 1.394 1_545 S
C554 C555 1.369 1_545 S
C554 C558 1.531 . S
C555 C554 1.369 1_565 S
C555 C556 1.410 1_554 S
C555 C563 1.503 1_565 S
C556 C555 1.410 1_556 S
C556 C557 1.392 . S
C556 C559 1.511 . S
C557 C553 1.376 . S
C557 C556 1.392 . S
C557 H569 0.929 . S
C558 C554 1.531 . S
C558 H570 0.960 . S
C558 H571 0.962 . S
C558 H572 0.960 . S
C559 C556 1.511 . S
C559 H573 0.961 . S
C559 H574 0.961 . S
C559 H575 0.961 . S
C560 C561 1.370 1_556 S
C560 C562 1.363 . S
C560 H576 0.931 . S
C561 C560 1.370 1_554 S
C561 C565 1.408 . S
C562 C560 1.363 . S
C562 C563 1.370 1_556 S
C562 C566 1.524 . S
C563 C555 1.503 1_545 S
C563 C562 1.370 1_554 S
C563 C564 1.403 1_545 S
C564 C563 1.403 1_565 S
C564 C565 1.404 1_565 S
C564 C567 1.539 . S
C565 C561 1.408 . S
C565 C564 1.404 1_545 S
C565 H577 0.930 . S
C566 C562 1.524 . S
C566 H578 0.956 . S
C566 H579 0.961 . S
C566 H580 0.961 . S
C567 C564 1.539 . S
C567 H581 0.958 . S
C567 H582 0.961 . S
C567 H583 0.960 . S
H568 C552 0.938 . S
H569 C557 0.929 . S
H570 C558 0.960 . S
H571 C558 0.962 . S
H572 C558 0.960 . S
H573 C559 0.961 . S
H574 C559 0.961 . S
H575 C559 0.961 . S
H576 C560 0.931 . S
H577 C565 0.930 . S
H578 C566 0.956 . S
H579 C566 0.961 . S
H580 C566 0.961 . S
H581 C567 0.958 . S
H582 C567 0.961 . S
H583 C567 0.960 . S
C584 C585 1.391 . S
C584 C586 1.394 . S
C584 H600 0.931 . S
C585 C584 1.391 . S
C585 C589 1.376 . S
C586 C584 1.394 . S
C586 C587 1.369 . S
C586 C590 1.531 . S
C587 C586 1.369 . S
C587 C588 1.410 . S
C587 C595 1.503 1_655 S
C588 C587 1.410 . S
C588 C589 1.392 . S
C588 C591 1.511 1_655 S
C589 C585 1.376 . S
C589 C588 1.392 . S
C589 H601 0.929 . S
C590 C586 1.531 . S
C590 H602 0.960 . S
C590 H603 0.962 . S
C590 H604 0.960 . S
C591 C588 1.511 1_455 S
C591 H605 0.961 . S
C591 H606 0.961 . S
C591 H607 0.961 . S
C592 C593 1.370 . S
C592 C594 1.363 . S
C592 H608 0.931 . S
C593 C592 1.370 . S
C593 C597 1.408 . S
C594 C592 1.363 . S
C594 C595 1.370 . S
C594 C598 1.524 1_455 S
C595 C587 1.503 1_455 S
C595 C594 1.370 . S
C595 C596 1.403 . S
C596 C595 1.403 . S
C596 C597 1.404 . S
C596 C599 1.539 . S
C597 C593 1.408 . S
C597 C596 1.404 . S
C597 H609 0.930 . S
C598 C594 1.524 1_655 S
C598 H610 0.956 . S
C598 H611 0.961 . S
C598 H612 0.961 1_655 S
C599 C596 1.539 . S
C599 H613 0.958 . S
C599 H614 0.961 . S
C599 H615 0.960 . S
H600 C584 0.931 . S
H601 C589 0.929 . S
H602 C590 0.960 . S
H603 C590 0.962 . S
H604 C590 0.960 . S
H605 C591 0.961 . S
H606 C591 0.961 . S
H607 C591 0.961 . S
H608 C592 0.931 . S
H609 C597 0.930 . S
H610 C598 0.956 . S
H611 C598 0.961 . S
H612 C598 0.961 1_455 S
H613 C599 0.958 . S
H614 C599 0.961 . S
H615 C599 0.960 . S
C616 C617 1.391 1_556 S
C616 C618 1.394 . S
C616 H632 0.931 . S
C617 C616 1.391 1_554 S
C617 C621 1.376 . S
C618 C616 1.394 . S
C618 C619 1.369 . S
C618 C622 1.531 1_455 S
C619 C618 1.369 . S
C619 C620 1.410 1_556 S
C619 C627 1.503 1_455 S
C620 C619 1.410 1_554 S
C620 C621 1.392 . S
C620 C623 1.511 . S
C621 C617 1.376 . S
C621 C620 1.392 . S
C621 H633 0.929 . S
C622 C618 1.531 1_655 S
C622 H634 0.960 . S
C622 H635 0.962 . S
C622 H636 0.960 . S
C623 C620 1.511 . S
C623 H637 0.961 . S
C623 H638 0.961 . S
C623 H639 0.961 . S
C624 C625 1.370 1_554 S
C624 C626 1.363 . S
C624 H640 0.931 . S
C625 C624 1.370 1_556 S
C625 C629 1.408 . S
C626 C624 1.363 . S
C626 C627 1.370 1_554 S
C626 C630 1.524 . S
C627 C619 1.503 1_655 S
C627 C626 1.370 1_556 S
C627 C628 1.403 . S
C628 C627 1.403 . S
C628 C629 1.404 . S
C628 C631 1.539 . S
C629 C625 1.408 . S
C629 C628 1.404 . S
C629 H641 0.930 . S
C630 C626 1.524 . S
C630 H642 0.956 . S
C630 H643 0.961 1_655 S
C630 H644 0.961 . S
C631 C628 1.539 . S
C631 H645 0.958 . S
C631 H646 0.961 . S
C631 H647 0.960 1_655 S
H632 C616 0.931 . S
H633 C621 0.929 . S
H634 C622 0.960 . S
H635 C622 0.962 . S
H636 C622 0.960 . S
H637 C623 0.961 . S
H638 C623 0.961 . S
H639 C623 0.961 . S
H640 C624 0.931 . S
H641 C629 0.930 . S
H642 C630 0.956 . S
H643 C630 0.961 1_455 S
H644 C630 0.961 . S
H645 C631 0.958 . S
H646 C631 0.961 . S
H647 C631 0.960 1_455 S
C648 C649 1.391 . S
C648 C650 1.394 . S
C648 H664 0.931 . S
C649 C648 1.391 . S
C649 C653 1.376 . S
C650 C648 1.394 . S
C650 C651 1.369 . S
C650 C654 1.531 . S
C651 C650 1.369 . S
C651 C652 1.410 . S
C651 C659 1.503 1_455 S
C652 C651 1.410 . S
C652 C653 1.392 . S
C652 C655 1.511 . S
C653 C649 1.376 . S
C653 C652 1.392 . S
C653 H665 0.929 . S
C654 C650 1.531 . S
C654 H666 0.960 . S
C654 H667 0.962 . S
C654 H668 0.960 . S
C655 C652 1.511 . S
C655 H669 0.961 . S
C655 H670 0.961 1_455 S
C655 H671 0.961 . S
C656 C657 1.370 . S
C656 C658 1.363 . S
C656 H672 0.931 . S
C657 C656 1.370 . S
C657 C661 1.408 . S
C658 C656 1.363 . S
C658 C659 1.370 . S
C658 C662 1.524 . S
C659 C651 1.503 1_655 S
C659 C658 1.370 . S
C659 C660 1.403 . S
C660 C659 1.403 . S
C660 C661 1.404 . S
C660 C663 1.539 . S
C661 C657 1.408 . S
C661 C660 1.404 . S
C661 H673 0.930 . S
C662 C658 1.524 . S
C662 H674 0.956 1_655 S
C662 H675 0.959 1_655 S
C662 H676 0.961 . S
C663 C660 1.539 . S
C663 H677 0.958 1_545 S
C663 H678 0.961 1_545 S
C663 H679 0.960 . S
H664 C648 0.931 . S
H665 C653 0.929 . S
H666 C654 0.960 . S
H667 C654 0.962 . S
H668 C654 0.960 . S
H669 C655 0.961 . S
H670 C655 0.961 1_655 S
H671 C655 0.961 . S
H672 C656 0.931 . S
H673 C661 0.930 . S
H674 C662 0.956 1_455 S
H675 C662 0.959 1_455 S
H676 C662 0.961 . S
H677 C663 0.958 1_565 S
H678 C663 0.961 1_565 S
H679 C663 0.960 . S
C680 C681 1.391 . S
C680 C682 1.394 . S
C680 H696 0.931 . S
C681 C680 1.391 . S
C681 C685 1.376 . S
C682 C680 1.394 . S
C682 C683 1.369 . S
C682 C686 1.531 . S
C683 C682 1.369 . S
C683 C684 1.410 . S
C683 C691 1.503 1_455 S
C684 C683 1.410 . S
C684 C685 1.392 . S
C684 C687 1.511 . S
C685 C681 1.376 . S
C685 C684 1.392 . S
C685 H697 0.929 . S
C686 C682 1.531 . S
C686 H698 0.960 1_455 S
C686 H699 0.962 . S
C686 H700 0.960 . S
C687 C684 1.511 . S
C687 H701 0.961 . S
C687 H702 0.961 . S
C687 H703 0.961 . S
C688 C689 1.370 . S
C688 C690 1.363 . S
C688 H704 0.931 . S
C689 C688 1.370 . S
C689 C693 1.408 . S
C690 C688 1.363 . S
C690 C691 1.370 . S
C690 C694 1.524 . S
C691 C683 1.503 1_655 S
C691 C690 1.370 . S
C691 C692 1.403 . S
C692 C691 1.403 . S
C692 C693 1.404 . S
C692 C695 1.539 . S
C693 C689 1.408 . S
C693 C692 1.404 . S
C693 H705 0.930 . S
C694 C690 1.524 . S
C694 H706 0.956 . S
C694 H707 0.961 1_655 S
C694 H708 0.961 . S
C695 C692 1.539 . S
C695 H709 0.958 1_565 S
C695 H710 0.961 1_565 S
C695 H711 0.960 1_655 S
H696 C680 0.931 . S
H697 C685 0.929 . S
H698 C686 0.960 1_655 S
H699 C686 0.962 . S
H700 C686 0.960 . S
H701 C687 0.961 . S
H702 C687 0.961 . S
H703 C687 0.961 . S
H704 C688 0.931 . S
H705 C693 0.930 . S
H706 C694 0.956 . S
H707 C694 0.961 1_455 S
H708 C694 0.961 . S
H709 C695 0.958 1_545 S
H710 C695 0.961 1_545 S
H711 C695 0.960 1_455 S
C712 C713 1.391 . S
C712 C714 1.394 . S
C712 H728 0.931 . S
C713 C712 1.391 . S
C713 C717 1.376 . S
C714 C712 1.394 . S
C714 C715 1.369 . S
C714 C718 1.531 . S
C715 C714 1.369 . S
C715 C716 1.410 . S
C715 C723 1.503 . S
C716 C715 1.410 . S
C716 C717 1.392 . S
C716 C719 1.511 . S
C717 C713 1.376 . S
C717 C716 1.392 . S
C717 H729 0.929 . S
C718 C714 1.531 . S
C718 H730 0.960 . S
C718 H731 0.962 . S
C718 H732 0.960 . S
C719 C716 1.511 . S
C719 H733 0.961 . S
C719 H734 0.961 . S
C719 H735 0.961 . S
C720 C721 1.370 . S
C720 C722 1.363 . S
C720 H736 0.931 . S
C721 C720 1.370 . S
C721 C725 1.408 . S
C722 C720 1.363 . S
C722 C723 1.370 . S
C722 C726 1.524 . S
C723 C715 1.503 . S
C723 C722 1.370 . S
C723 C724 1.403 . S
C724 C723 1.403 . S
C724 C725 1.404 . S
C724 C727 1.539 . S
C725 C721 1.408 . S
C725 C724 1.404 . S
C725 H737 0.930 . S
C726 C722 1.524 . S
C726 H738 0.956 . S
C726 H739 0.961 . S
C726 H740 0.961 . S
C727 C724 1.539 . S
C727 H741 0.958 . S
C727 H742 0.961 . S
C727 H743 0.960 . S
H728 C712 0.931 . S
H729 C717 0.929 . S
H730 C718 0.960 . S
H731 C718 0.962 . S
H732 C718 0.960 . S
H733 C719 0.961 . S
H734 C719 0.961 . S
H735 C719 0.961 . S
H736 C720 0.931 . S
H737 C725 0.930 . S
H738 C726 0.956 . S
H739 C726 0.961 . S
H740 C726 0.961 . S
H741 C727 0.958 . S
H742 C727 0.961 . S
H743 C727 0.960 . S
C744 C745 1.391 . S
C744 C746 1.394 . S
C744 H760 0.931 . S
C745 C744 1.391 . S
C745 C749 1.376 . S
C746 C744 1.394 . S
C746 C747 1.369 . S
C746 C750 1.531 . S
C747 C746 1.369 . S
C747 C748 1.410 . S
C747 C755 1.503 . S
C748 C747 1.410 . S
C748 C749 1.392 . S
C748 C751 1.511 . S
C749 C745 1.376 . S
C749 C748 1.392 . S
C749 H761 0.929 . S
C750 C746 1.531 . S
C750 H762 0.960 . S
C750 H763 0.962 . S
C750 H764 0.960 . S
C751 C748 1.511 . S
C751 H765 0.961 . S
C751 H766 0.961 . S
C751 H767 0.961 . S
C752 C753 1.370 . S
C752 C754 1.363 . S
C752 H768 0.931 . S
C753 C752 1.370 . S
C753 C757 1.408 . S
C754 C752 1.363 . S
C754 C755 1.370 . S
C754 C758 1.524 . S
C755 C747 1.503 . S
C755 C754 1.370 . S
C755 C756 1.403 . S
C756 C755 1.403 . S
C756 C757 1.404 . S
C756 C759 1.539 . S
C757 C753 1.408 . S
C757 C756 1.404 . S
C757 H769 0.930 . S
C758 C754 1.524 . S
C758 H770 0.956 . S
C758 H771 0.961 . S
C758 H772 0.961 . S
C759 C756 1.539 . S
C759 H773 0.958 . S
C759 H774 0.961 . S
C759 H775 0.960 . S
H760 C744 0.931 . S
H761 C749 0.929 . S
H762 C750 0.960 . S
H763 C750 0.962 . S
H764 C750 0.960 . S
H765 C751 0.961 . S
H766 C751 0.961 . S
H767 C751 0.961 . S
H768 C752 0.931 . S
H769 C757 0.930 . S
H770 C758 0.956 . S
H771 C758 0.961 . S
H772 C758 0.961 . S
H773 C759 0.958 . S
H774 C759 0.961 . S
H775 C759 0.960 . S
C776 C777 1.391 . S
C776 C778 1.394 . S
C776 H792 0.931 . S
C777 C776 1.391 . S
C777 C781 1.376 . S
C778 C776 1.394 . S
C778 C779 1.369 . S
C778 C782 1.531 . S
C779 C778 1.369 . S
C779 C780 1.410 . S
C779 C787 1.503 . S
C780 C779 1.410 . S
C780 C781 1.392 . S
C780 C783 1.511 . S
C781 C777 1.376 . S
C781 C780 1.392 . S
C781 H793 0.929 . S
C782 C778 1.531 . S
C782 H794 0.960 . S
C782 H795 0.962 . S
C782 H796 0.960 . S
C783 C780 1.511 . S
C783 H797 0.961 . S
C783 H798 0.961 . S
C783 H799 0.961 . S
C784 C785 1.370 . S
C784 C786 1.363 . S
C784 H800 0.931 . S
C785 C784 1.370 . S
C785 C789 1.408 . S
C786 C784 1.363 . S
C786 C787 1.370 . S
C786 C790 1.524 . S
C787 C779 1.503 . S
C787 C786 1.370 . S
C787 C788 1.403 . S
C788 C787 1.403 . S
C788 C789 1.404 . S
C788 C791 1.539 . S
C789 C785 1.408 . S
C789 C788 1.404 . S
C789 H801 0.930 . S
C790 C786 1.524 . S
C790 H802 0.956 . S
C790 H803 0.961 . S
C790 H804 0.961 . S
C791 C788 1.539 . S
C791 H805 0.958 . S
C791 H806 0.961 . S
C791 H807 0.960 . S
H792 C776 0.931 . S
H793 C781 0.929 . S
H794 C782 0.960 . S
H795 C782 0.962 . S
H796 C782 0.960 . S
H797 C783 0.961 . S
H798 C783 0.961 . S
H799 C783 0.961 . S
H800 C784 0.931 . S
H801 C789 0.930 . S
H802 C790 0.956 . S
H803 C790 0.961 . S
H804 C790 0.961 . S
H805 C791 0.958 . S
H806 C791 0.961 . S
H807 C791 0.960 . S
C808 C809 1.391 . S
C808 C810 1.394 . S
C808 H824 0.931 . S
C809 C808 1.391 . S
C809 C813 1.376 . S
C810 C808 1.394 . S
C810 C811 1.369 . S
C810 C814 1.531 . S
C811 C810 1.369 . S
C811 C812 1.410 . S
C811 C819 1.503 1_556 S
C812 C811 1.410 . S
C812 C813 1.392 . S
C812 C815 1.511 1_556 S
C813 C809 1.376 . S
C813 C812 1.392 . S
C813 H825 0.929 . S
C814 C810 1.531 . S
C814 H826 0.960 . S
C814 H827 0.962 . S
C814 H828 0.960 . S
C815 C812 1.511 1_554 S
C815 H829 0.961 . S
C815 H830 0.961 . S
C815 H831 0.961 1_554 S
C816 C817 1.370 . S
C816 C818 1.363 . S
C816 H832 0.931 . S
C817 C816 1.370 . S
C817 C821 1.408 1_554 S
C818 C816 1.363 . S
C818 C819 1.370 . S
C818 C822 1.524 . S
C819 C811 1.503 1_554 S
C819 C818 1.370 . S
C819 C820 1.403 1_554 S
C820 C819 1.403 1_556 S
C820 C821 1.404 . S
C820 C823 1.539 . S
C821 C817 1.408 1_556 S
C821 C820 1.404 . S
C821 H833 0.930 . S
C822 C818 1.524 . S
C822 H834 0.956 . S
C822 H835 0.961 . S
C822 H836 0.961 . S
C823 C820 1.539 . S
C823 H837 0.958 . S
C823 H838 0.961 . S
C823 H839 0.960 . S
H824 C808 0.931 . S
H825 C813 0.929 . S
H826 C814 0.960 . S
H827 C814 0.962 . S
H828 C814 0.960 . S
H829 C815 0.961 . S
H830 C815 0.961 . S
H831 C815 0.961 1_556 S
H832 C816 0.931 . S
H833 C821 0.930 . S
H834 C822 0.956 . S
H835 C822 0.961 . S
H836 C822 0.961 . S
H837 C823 0.958 . S
H838 C823 0.961 . S
H839 C823 0.960 . S
C840 C841 1.391 . S
C840 C842 1.394 . S
C840 H856 0.931 . S
C841 C840 1.391 . S
C841 C845 1.376 . S
C842 C840 1.394 . S
C842 C843 1.369 . S
C842 C846 1.531 . S
C843 C842 1.369 . S
C843 C844 1.410 . S
C843 C851 1.503 . S
C844 C843 1.410 . S
C844 C845 1.392 . S
C844 C847 1.511 . S
C845 C841 1.376 . S
C845 C844 1.392 . S
C845 H857 0.929 . S
C846 C842 1.531 . S
C846 H858 0.960 . S
C846 H859 0.962 . S
C846 H860 0.960 . S
C847 C844 1.511 . S
C847 H861 0.961 . S
C847 H862 0.961 . S
C847 H863 0.961 . S
C848 C849 1.370 . S
C848 C850 1.363 . S
C848 H864 0.931 . S
C849 C848 1.370 . S
C849 C853 1.408 . S
C850 C848 1.363 . S
C850 C851 1.370 . S
C850 C854 1.524 . S
C851 C843 1.503 . S
C851 C850 1.370 . S
C851 C852 1.403 . S
C852 C851 1.403 . S
C852 C853 1.404 . S
C852 C855 1.539 . S
C853 C849 1.408 . S
C853 C852 1.404 . S
C853 H865 0.930 . S
C854 C850 1.524 . S
C854 H866 0.956 . S
C854 H867 0.961 . S
C854 H868 0.961 . S
C855 C852 1.539 . S
C855 H869 0.958 . S
C855 H870 0.961 . S
C855 H871 0.960 . S
H856 C840 0.931 . S
H857 C845 0.929 . S
H858 C846 0.960 . S
H859 C846 0.962 . S
H860 C846 0.960 . S
H861 C847 0.961 . S
H862 C847 0.961 . S
H863 C847 0.961 . S
H864 C848 0.931 . S
H865 C853 0.930 . S
H866 C854 0.956 . S
H867 C854 0.961 . S
H868 C854 0.961 . S
H869 C855 0.958 . S
H870 C855 0.961 . S
H871 C855 0.960 . S
C872 C873 1.391 1_554 S
C872 C874 1.394 . S
C872 H888 0.931 . S
C873 C872 1.391 1_556 S
C873 C877 1.376 . S
C874 C872 1.394 . S
C874 C875 1.369 1_554 S
C874 C878 1.531 . S
C875 C874 1.369 1_556 S
C875 C876 1.410 . S
C875 C883 1.503 1_556 S
C876 C875 1.410 . S
C876 C877 1.392 . S
C876 C879 1.511 . S
C877 C873 1.376 . S
C877 C876 1.392 . S
C877 H889 0.929 . S
C878 C874 1.531 . S
C878 H890 0.960 . S
C878 H891 0.962 . S
C878 H892 0.960 . S
C879 C876 1.511 . S
C879 H893 0.961 . S
C879 H894 0.961 . S
C879 H895 0.961 . S
C880 C881 1.370 . S
C880 C882 1.363 . S
C880 H896 0.931 . S
C881 C880 1.370 . S
C881 C885 1.408 . S
C882 C880 1.363 . S
C882 C883 1.370 . S
C882 C886 1.524 1_554 S
C883 C875 1.503 1_554 S
C883 C882 1.370 . S
C883 C884 1.403 . S
C884 C883 1.403 . S
C884 C885 1.404 . S
C884 C887 1.539 . S
C885 C881 1.408 . S
C885 C884 1.404 . S
C885 H897 0.930 . S
C886 C882 1.524 1_556 S
C886 H898 0.956 1_556 S
C886 H899 0.961 . S
C886 H900 0.961 . S
C887 C884 1.539 . S
C887 H901 0.958 . S
C887 H902 0.961 . S
C887 H903 0.960 . S
H888 C872 0.931 . S
H889 C877 0.929 . S
H890 C878 0.960 . S
H891 C878 0.962 . S
H892 C878 0.960 . S
H893 C879 0.961 . S
H894 C879 0.961 . S
H895 C879 0.961 . S
H896 C880 0.931 . S
H897 C885 0.930 . S
H898 C886 0.956 1_554 S
H899 C886 0.961 . S
H900 C886 0.961 . S
H901 C887 0.958 . S
H902 C887 0.961 . S
H903 C887 0.960 . S
C265 C106 1.010 1_554 S
C273 C18 1.027 . S
C297 C51 1.019 . S
C305 C73 1.027 . S
C329 C84 1.020 . S
C337 C40 1.025 1_556 S
C361 C117 1.026 . S
C369 C7 1.015 . S
C393 C150 1.031 . S
C401 C238 1.011 1_554 S
C425 C183 1.031 . S
C433 C205 1.011 . S
C457 C172 0.990 1_556 S
C465 C216 1.030 . S
C489 C249 1.018 . S
C497 C139 1.029 . S
C521 N79 1.930 . S
C529 N13 1.951 . S
C553 N112 1.940 . S
C561 N46 1.944 . S
C585 N145 1.956 . S
C593 N211 1.939 . S
C617 N178 1.923 . S
C625 N244 1.953 . S
C649 N2 1.170 . S
C657 N35 1.169 . S
C681 N101 1.161 . S
C689 N68 1.180 . S
C713 N167 1.214 . S
C721 N134 1.158 . S
C745 N233 1.143 . S
C753 N200 1.188 . S
C777 C219 1.575 . S
C785 C21 1.604 . S
C809 C252 1.607 . S
C817 C54 1.590 . S
C841 C153 1.590 . S
C849 C87 1.596 . S
C873 C120 1.573 . S
C881 C186 1.604 . S
