# Generated by pormake.
# Topology gme, (4)-cn, num edge types: 1
# Building blocks:
#     Node 0, Type 0, BuildingBlock: UXUYUI_clean_sbu_0, # of connection points: 4
#     Node 1, Type 0, BuildingBlock: UXUYUI_clean_sbu_0, # of connection points: 4
#     Node 2, Type 0, BuildingBlock: UXUYUI_clean_sbu_0, # of connection points: 4
#     Node 3, Type 0, BuildingBlock: UXUYUI_clean_sbu_0, # of connection points: 4
#     Node 4, Type 0, BuildingBlock: UXUYUI_clean_sbu_0, # of connection points: 4
#     Node 5, Type 0, BuildingBlock: UXUYUI_clean_sbu_0, # of connection points: 4
#     Node 6, Type 0, BuildingBlock: UXUYUI_clean_sbu_0, # of connection points: 4
#     Node 7, Type 0, BuildingBlock: UXUYUI_clean_sbu_0, # of connection points: 4
#     Node 8, Type 0, BuildingBlock: UXUYUI_clean_sbu_0, # of connection points: 4
#     Node 9, Type 0, BuildingBlock: UXUYUI_clean_sbu_0, # of connection points: 4
#     Node 10, Type 0, BuildingBlock: UXUYUI_clean_sbu_0, # of connection points: 4
#     Node 11, Type 0, BuildingBlock: UXUYUI_clean_sbu_0, # of connection points: 4
#     Node 12, Type 0, BuildingBlock: UXUYUI_clean_sbu_0, # of connection points: 4
#     Node 13, Type 0, BuildingBlock: UXUYUI_clean_sbu_0, # of connection points: 4
#     Node 14, Type 0, BuildingBlock: UXUYUI_clean_sbu_0, # of connection points: 4
#     Node 15, Type 0, BuildingBlock: UXUYUI_clean_sbu_0, # of connection points: 4
#     Node 16, Type 0, BuildingBlock: UXUYUI_clean_sbu_0, # of connection points: 4
#     Node 17, Type 0, BuildingBlock: UXUYUI_clean_sbu_0, # of connection points: 4
#     Node 18, Type 0, BuildingBlock: UXUYUI_clean_sbu_0, # of connection points: 4
#     Node 19, Type 0, BuildingBlock: UXUYUI_clean_sbu_0, # of connection points: 4
#     Node 20, Type 0, BuildingBlock: UXUYUI_clean_sbu_0, # of connection points: 4
#     Node 21, Type 0, BuildingBlock: UXUYUI_clean_sbu_0, # of connection points: 4
#     Node 22, Type 0, BuildingBlock: UXUYUI_clean_sbu_0, # of connection points: 4
#     Node 23, Type 0, BuildingBlock: UXUYUI_clean_sbu_0, # of connection points: 4
#     Edge 24, Type (0, 0), BuildingBlock: AJUNOK_clean_linker_0, # of connection points: 2
#     Edge 25, Type (0, 0), BuildingBlock: AJUNOK_clean_linker_0, # of connection points: 2
#     Edge 26, Type (0, 0), BuildingBlock: AJUNOK_clean_linker_0, # of connection points: 2
#     Edge 27, Type (0, 0), BuildingBlock: AJUNOK_clean_linker_0, # of connection points: 2
#     Edge 28, Type (0, 0), BuildingBlock: AJUNOK_clean_linker_0, # of connection points: 2
#     Edge 29, Type (0, 0), BuildingBlock: AJUNOK_clean_linker_0, # of connection points: 2
#     Edge 30, Type (0, 0), BuildingBlock: AJUNOK_clean_linker_0, # of connection points: 2
#     Edge 31, Type (0, 0), BuildingBlock: AJUNOK_clean_linker_0, # of connection points: 2
#     Edge 32, Type (0, 0), BuildingBlock: AJUNOK_clean_linker_0, # of connection points: 2
#     Edge 33, Type (0, 0), BuildingBlock: AJUNOK_clean_linker_0, # of connection points: 2
#     Edge 34, Type (0, 0), BuildingBlock: AJUNOK_clean_linker_0, # of connection points: 2
#     Edge 35, Type (0, 0), BuildingBlock: AJUNOK_clean_linker_0, # of connection points: 2
#     Edge 36, Type (0, 0), BuildingBlock: AJUNOK_clean_linker_0, # of connection points: 2
#     Edge 37, Type (0, 0), BuildingBlock: AJUNOK_clean_linker_0, # of connection points: 2
#     Edge 38, Type (0, 0), BuildingBlock: AJUNOK_clean_linker_0, # of connection points: 2
#     Edge 39, Type (0, 0), BuildingBlock: AJUNOK_clean_linker_0, # of connection points: 2
#     Edge 40, Type (0, 0), BuildingBlock: AJUNOK_clean_linker_0, # of connection points: 2
#     Edge 41, Type (0, 0), BuildingBlock: AJUNOK_clean_linker_0, # of connection points: 2
#     Edge 42, Type (0, 0), BuildingBlock: AJUNOK_clean_linker_0, # of connection points: 2
#     Edge 43, Type (0, 0), BuildingBlock: AJUNOK_clean_linker_0, # of connection points: 2
#     Edge 44, Type (0, 0), BuildingBlock: AJUNOK_clean_linker_0, # of connection points: 2
#     Edge 45, Type (0, 0), BuildingBlock: AJUNOK_clean_linker_0, # of connection points: 2
#     Edge 46, Type (0, 0), BuildingBlock: AJUNOK_clean_linker_0, # of connection points: 2
#     Edge 47, Type (0, 0), BuildingBlock: AJUNOK_clean_linker_0, # of connection points: 2
#     Edge 48, Type (0, 0), BuildingBlock: AJUNOK_clean_linker_0, # of connection points: 2
#     Edge 49, Type (0, 0), BuildingBlock: AJUNOK_clean_linker_0, # of connection points: 2
#     Edge 50, Type (0, 0), BuildingBlock: AJUNOK_clean_linker_0, # of connection points: 2
#     Edge 51, Type (0, 0), BuildingBlock: AJUNOK_clean_linker_0, # of connection points: 2
#     Edge 52, Type (0, 0), BuildingBlock: AJUNOK_clean_linker_0, # of connection points: 2
#     Edge 53, Type (0, 0), BuildingBlock: AJUNOK_clean_linker_0, # of connection points: 2
#     Edge 54, Type (0, 0), BuildingBlock: AJUNOK_clean_linker_0, # of connection points: 2
#     Edge 55, Type (0, 0), BuildingBlock: AJUNOK_clean_linker_0, # of connection points: 2
#     Edge 56, Type (0, 0), BuildingBlock: AJUNOK_clean_linker_0, # of connection points: 2
#     Edge 57, Type (0, 0), BuildingBlock: AJUNOK_clean_linker_0, # of connection points: 2
#     Edge 58, Type (0, 0), BuildingBlock: AJUNOK_clean_linker_0, # of connection points: 2
#     Edge 59, Type (0, 0), BuildingBlock: AJUNOK_clean_linker_0, # of connection points: 2
#     Edge 60, Type (0, 0), BuildingBlock: AJUNOK_clean_linker_0, # of connection points: 2
#     Edge 61, Type (0, 0), BuildingBlock: AJUNOK_clean_linker_0, # of connection points: 2
#     Edge 62, Type (0, 0), BuildingBlock: AJUNOK_clean_linker_0, # of connection points: 2
#     Edge 63, Type (0, 0), BuildingBlock: AJUNOK_clean_linker_0, # of connection points: 2
#     Edge 64, Type (0, 0), BuildingBlock: AJUNOK_clean_linker_0, # of connection points: 2
#     Edge 65, Type (0, 0), BuildingBlock: AJUNOK_clean_linker_0, # of connection points: 2
#     Edge 66, Type (0, 0), BuildingBlock: AJUNOK_clean_linker_0, # of connection points: 2
#     Edge 67, Type (0, 0), BuildingBlock: AJUNOK_clean_linker_0, # of connection points: 2
#     Edge 68, Type (0, 0), BuildingBlock: AJUNOK_clean_linker_0, # of connection points: 2
#     Edge 69, Type (0, 0), BuildingBlock: AJUNOK_clean_linker_0, # of connection points: 2
#     Edge 70, Type (0, 0), BuildingBlock: AJUNOK_clean_linker_0, # of connection points: 2
#     Edge 71, Type (0, 0), BuildingBlock: AJUNOK_clean_linker_0, # of connection points: 2
# Relax obj value: 0.245
# Max RMSD: 0.175
# Mean RMSD: 0.174
data_MOF--net-gme--node1-UXUYUI_clean_sbu_0--edge1-AJUNOK_clean_linker_0
_symmetry_space_group_name_H-M    P1
_symmetry_Int_Tables_number       1
_symmetry_cell_setting            triclinic
loop_
_symmetry_equiv_pos_as_xyz
'x, y, z'
_cell_length_a     78.579607
_cell_length_b     78.580824
_cell_length_c     56.013621
_cell_angle_alpha  90.016699
_cell_angle_beta   90.002369
_cell_angle_gamma 119.99157
loop_
_atom_site_label
_atom_site_type_symbol
_atom_site_fract_x
_atom_site_fract_y
_atom_site_fract_z
_atom_type_partial_charge
Li0 Li 0.43461 0.12114 0.0821 0.0
Li1 Li 0.42905 0.09847 0.11685 0.0
Li2 Li 0.45414 0.10452 0.08382 0.0
Li3 Li 0.41966 0.08718 0.07714 0.0
C4 C 0.4649 0.13995 0.11982 0.0
N5 N 0.48803 0.17375 0.14585 0.0
C6 C 0.45721 0.14448 0.13976 0.0
C7 C 0.48451 0.15251 0.11339 0.0
C8 C 0.46908 0.16166 0.1526 0.0
C9 C 0.49592 0.16956 0.1267 0.0
C10 C 0.39104 0.09336 0.08938 0.0
C11 C 0.35632 0.07128 0.09472 0.0
N12 N 0.3529 0.07652 0.07287 0.0
C13 C 0.38719 0.09863 0.06705 0.0
C14 C 0.37552 0.07966 0.10341 0.0
C15 C 0.36779 0.08991 0.05899 0.0
C16 C 0.43562 0.15191 0.05269 0.0
N17 N 0.43455 0.1448 0.07514 0.0
C18 C 0.43315 0.17193 0.09206 0.0
C19 C 0.43273 0.15411 0.09455 0.0
C20 C 0.435 0.18002 0.06926 0.0
C21 C 0.43599 0.16972 0.04933 0.0
H22 H 0.43622 0.14385 0.0374 0.0
H23 H 0.43079 0.1476 0.11199 0.0
C24 C 0.43689 0.09078 0.16283 0.0
N25 N 0.4248 0.09498 0.15 0.0
C26 C 0.43579 0.09006 0.18768 0.0
C27 C 0.40953 0.09764 0.18557 0.0
C28 C 0.41111 0.09816 0.16072 0.0
C29 C 0.42215 0.09377 0.19935 0.0
H30 H 0.44773 0.08849 0.15372 0.0
H31 H 0.40196 0.10185 0.14999 0.0
C32 C 0.45385 0.12056 0.04037 0.0
N33 N 0.48239 0.14716 0.00978 0.0
C34 C 0.45361 0.11599 0.01619 0.0
C35 C 0.46867 0.13864 0.04893 0.0
C36 C 0.46815 0.12963 0.00102 0.0
C37 C 0.48294 0.15191 0.03322 0.0
C38 C 0.42839 0.06075 0.09446 0.0
C39 C 0.43357 0.05583 0.07274 0.0
C40 C 0.41654 0.04595 0.11057 0.0
C41 C 0.42645 0.03606 0.06727 0.0
C42 C 0.40977 0.02635 0.10447 0.0
N43 N 0.41479 0.02185 0.08311 0.0
C44 C 0.49127 0.11255 0.09828 0.0
C45 C 0.48435 0.10261 0.05777 0.0
C46 C 0.50989 0.11461 0.09633 0.0
N47 N 0.47907 0.10687 0.0791 0.0
C48 C 0.50281 0.10427 0.05509 0.0
C49 C 0.51584 0.1105 0.0745 0.0
H50 H 0.48647 0.1154 0.11515 0.0
H51 H 0.47421 0.09781 0.04292 0.0
C52 C 0.40115 0.06548 0.03595 0.0
N53 N 0.3997 0.06524 0.06011 0.0
C54 C 0.38877 0.04879 0.0227 0.0
C55 C 0.37294 0.03221 0.05938 0.0
C56 C 0.3856 0.04928 0.07192 0.0
C57 C 0.37476 0.03175 0.0345 0.0
H58 H 0.41247 0.07837 0.02706 0.0
H59 H 0.38476 0.04949 0.09117 0.0
O60 O 0.45355 0.12294 0.10728 0.0
O61 O 0.40995 0.10151 0.09736 0.0
O62 O 0.43998 0.10706 0.05553 0.0
O63 O 0.43479 0.07998 0.09987 0.0
H64 H 0.44215 0.13495 0.14516 0.0
H65 H 0.49098 0.14915 0.09838 0.0
H66 H 0.46322 0.16538 0.16795 0.0
H67 H 0.51108 0.17941 0.12184 0.0
H68 H 0.34416 0.06057 0.10531 0.0
H69 H 0.39908 0.10918 0.05596 0.0
H70 H 0.37829 0.07539 0.1207 0.0
H71 H 0.36459 0.09374 0.04168 0.0
H72 H 0.43188 0.17925 0.10778 0.0
H73 H 0.43732 0.17552 0.03145 0.0
H74 H 0.44573 0.08698 0.19772 0.0
H75 H 0.39911 0.10098 0.19393 0.0
H76 H 0.44242 0.10199 0.00921 0.0
H77 H 0.46895 0.14253 0.06739 0.0
H78 H 0.46814 0.12625 0.9823 0.0
H79 H 0.49441 0.16599 0.03966 0.0
H80 H 0.44268 0.06714 0.06006 0.0
H81 H 0.41245 0.04958 0.12748 0.0
H82 H 0.43014 0.032 0.05041 0.0
H83 H 0.40047 0.01472 0.11668 0.0
H84 H 0.51941 0.11902 0.11182 0.0
H85 H 0.5069 0.10083 0.03806 0.0
H86 H 0.39091 0.04889 0.00358 0.0
H87 H 0.36233 0.01931 0.06907 0.0
Li88 Li 0.31297 0.43556 0.58007 0.0
Li89 Li 0.32779 0.43031 0.61399 0.0
Li90 Li 0.34781 0.45586 0.58378 0.0
Li91 Li 0.3315 0.41969 0.57403 0.0
C92 C 0.31569 0.45732 0.62115 0.0
N93 N 0.29169 0.4625 0.6528 0.0
C94 C 0.2974 0.44142 0.62744 0.0
C95 C 0.32178 0.47583 0.63096 0.0
C96 C 0.28548 0.44435 0.64346 0.0
C97 C 0.30943 0.47816 0.64693 0.0
C98 C 0.30123 0.39145 0.60222 0.0
C99 C 0.30924 0.36768 0.61773 0.0
N100 N 0.28977 0.35472 0.62085 0.0
C101 C 0.28131 0.37789 0.60555 0.0
C102 C 0.31531 0.38631 0.60834 0.0
C103 C 0.27581 0.3594 0.61501 0.0
C104 C 0.27362 0.41991 0.5647 0.0
N105 N 0.2905 0.43672 0.57021 0.0
C106 C 0.27449 0.4556 0.5667 0.0
C107 C 0.29137 0.45442 0.57073 0.0
C108 C 0.2567 0.43841 0.56182 0.0
C109 C 0.25641 0.42044 0.56027 0.0
H110 H 0.27342 0.40604 0.56455 0.0
H111 H 0.30504 0.46753 0.57514 0.0
C112 C 0.34369 0.43998 0.65906 0.0
N113 N 0.32725 0.42653 0.64745 0.0
C114 C 0.3445 0.44002 0.6839 0.0
C115 C 0.31142 0.41227 0.68447 0.0
C116 C 0.31127 0.41271 0.65951 0.0
C117 C 0.32808 0.4263 0.69691 0.0
H118 H 0.35606 0.45094 0.64895 0.0
H119 H 0.29821 0.40246 0.64987 0.0
C120 C 0.32355 0.4439 0.53603 0.0
N121 N 0.30275 0.44824 0.49911 0.0
C122 C 0.30996 0.42749 0.52308 0.0
C123 C 0.32668 0.46253 0.53015 0.0
C124 C 0.29956 0.42999 0.50449 0.0
C125 C 0.31598 0.46441 0.51143 0.0
C126 C 0.36902 0.43556 0.60406 0.0
C127 C 0.38624 0.4474 0.59122 0.0
C128 C 0.36946 0.42435 0.62318 0.0
C129 C 0.40356 0.44768 0.59758 0.0
C130 C 0.38708 0.42504 0.62899 0.0
N131 N 0.40362 0.43658 0.61617 0.0
C132 C 0.37737 0.49207 0.60005 0.0
C133 C 0.37928 0.48692 0.55862 0.0
C134 C 0.39429 0.5105 0.59876 0.0
N135 N 0.37033 0.48075 0.58017 0.0
C136 C 0.39633 0.50523 0.55654 0.0
C137 C 0.40405 0.51717 0.57684 0.0
H138 H 0.3699 0.48666 0.61693 0.0
H139 H 0.37328 0.47752 0.54314 0.0
C140 C 0.31961 0.38404 0.54836 0.0
N141 N 0.33513 0.40122 0.55614 0.0
C142 C 0.3228 0.371 0.53465 0.0
C143 C 0.35776 0.39366 0.53731 0.0
C144 C 0.3539 0.40624 0.55075 0.0
C145 C 0.34211 0.37584 0.52902 0.0
H146 H 0.30479 0.38055 0.55263 0.0
H147 H 0.36589 0.42019 0.55653 0.0
O148 O 0.32769 0.45489 0.6055 0.0
O149 O 0.30671 0.40965 0.5932 0.0
O150 O 0.33348 0.44169 0.55467 0.0
O151 O 0.35198 0.43537 0.59833 0.0
H152 H 0.29242 0.42698 0.62004 0.0
H153 H 0.3359 0.48828 0.62627 0.0
H154 H 0.27129 0.43219 0.64847 0.0
H155 H 0.31395 0.49241 0.65467 0.0
H156 H 0.32 0.36351 0.62249 0.0
H157 H 0.27022 0.38167 0.60096 0.0
H158 H 0.33074 0.39651 0.60568 0.0
H159 H 0.26045 0.34878 0.61773 0.0
H160 H 0.27518 0.46968 0.56805 0.0
H161 H 0.24284 0.40687 0.55688 0.0
H162 H 0.35775 0.45086 0.69285 0.0
H163 H 0.29844 0.40153 0.69394 0.0
H164 H 0.30734 0.41297 0.52752 0.0
H165 H 0.33708 0.47535 0.54013 0.0
H166 H 0.28891 0.41742 0.49438 0.0
H167 H 0.31815 0.47872 0.50675 0.0
H168 H 0.38619 0.45613 0.57634 0.0
H169 H 0.35638 0.41526 0.63354 0.0
H170 H 0.41696 0.45671 0.58772 0.0
H171 H 0.38761 0.41642 0.64373 0.0
H172 H 0.3999 0.51928 0.6148 0.0
H173 H 0.40335 0.51003 0.53928 0.0
H174 H 0.31038 0.35735 0.52858 0.0
H175 H 0.37283 0.39802 0.53296 0.0
Li176 Li 0.89688 0.32803 0.11576 0.0
Li177 Li 0.87538 0.31053 0.08242 0.0
Li178 Li 0.91059 0.33078 0.07698 0.0
Li179 Li 0.89024 0.34561 0.08435 0.0
C180 C 0.90569 0.29695 0.0898 0.0
N181 N 0.92545 0.27825 0.07393 0.0
C182 C 0.897 0.28184 0.07297 0.0
C183 C 0.92443 0.30254 0.09857 0.0
C184 C 0.90722 0.27255 0.06519 0.0
C185 C 0.93418 0.29293 0.0903 0.0
C186 C 0.85255 0.31435 0.11308 0.0
C187 C 0.81801 0.30068 0.1048 0.0
N188 N 0.81364 0.28803 0.12339 0.0
C189 C 0.84772 0.30126 0.13216 0.0
C190 C 0.83759 0.31414 0.09935 0.0
C191 C 0.82796 0.28807 0.13709 0.0
C192 C 0.89288 0.33653 0.163 0.0
N193 N 0.90014 0.32739 0.14924 0.0
C194 C 0.91095 0.31766 0.1838 0.0
C195 C 0.90904 0.31803 0.15904 0.0
C196 C 0.90329 0.32672 0.1985 0.0
C197 C 0.89428 0.33636 0.18778 0.0
H198 H 0.88582 0.34381 0.15465 0.0
H199 H 0.91464 0.31085 0.14768 0.0
C200 C 0.84084 0.28544 0.05567 0.0
N201 N 0.85239 0.28675 0.07446 0.0
C202 C 0.82293 0.26825 0.05194 0.0
C203 C 0.82965 0.25392 0.08634 0.0
C204 C 0.84733 0.27138 0.08948 0.0
C205 C 0.81709 0.25237 0.06763 0.0
H206 H 0.8453 0.29786 0.04395 0.0
H207 H 0.85682 0.27293 0.1043 0.0
C208 C 0.92585 0.36382 0.11795 0.0
N209 N 0.94464 0.38554 0.15814 0.0
C210 C 0.92123 0.37766 0.12681 0.0
C211 C 0.94009 0.3611 0.12949 0.0
C212 C 0.93089 0.38849 0.14714 0.0
C213 C 0.94939 0.37219 0.1498 0.0
C214 C 0.88794 0.33956 0.03777 0.0
C215 C 0.90411 0.35016 0.02279 0.0
C216 C 0.87063 0.34005 0.03377 0.0
C217 C 0.90269 0.36113 0.00406 0.0
C218 C 0.86982 0.35124 0.01489 0.0
N219 N 0.88572 0.36145 0.00054 0.0
C220 C 0.92945 0.32272 0.03943 0.0
C221 C 0.95075 0.34804 0.06591 0.0
C222 C 0.94526 0.32612 0.02489 0.0
N223 N 0.93247 0.33382 0.0593 0.0
C224 C 0.96696 0.35187 0.05197 0.0
C225 C 0.96426 0.34103 0.03099 0.0
H226 H 0.91467 0.31172 0.03446 0.0
H227 H 0.95265 0.35689 0.0815 0.0
C228 C 0.87309 0.36967 0.08905 0.0
N229 N 0.88762 0.36794 0.07821 0.0
C230 C 0.872 0.38675 0.08614 0.0
C231 C 0.90053 0.39967 0.0605 0.0
C232 C 0.90127 0.3825 0.06423 0.0
C233 C 0.88601 0.40213 0.07196 0.0
H234 H 0.86271 0.35806 0.10053 0.0
H235 H 0.91292 0.3809 0.05627 0.0
O236 O 0.89607 0.30645 0.09733 0.0
O237 O 0.87181 0.32691 0.10746 0.0
O238 O 0.91619 0.3527 0.09842 0.0
O239 O 0.88908 0.32882 0.05631 0.0
H240 H 0.88262 0.27746 0.06576 0.0
H241 H 0.93154 0.31444 0.11127 0.0
H242 H 0.9007 0.26088 0.05212 0.0
H243 H 0.94874 0.2972 0.0968 0.0
H244 H 0.80629 0.30023 0.09419 0.0
H245 H 0.85909 0.30105 0.14281 0.0
H246 H 0.84106 0.32406 0.08441 0.0
H247 H 0.82401 0.27778 0.1517 0.0
H248 H 0.91839 0.31045 0.19132 0.0
H249 H 0.8881 0.34343 0.19847 0.0
H250 H 0.81366 0.26743 0.03716 0.0
H251 H 0.82554 0.24198 0.09885 0.0
H252 H 0.91018 0.37991 0.11825 0.0
H253 H 0.94366 0.35026 0.1231 0.0
H254 H 0.92741 0.3992 0.15424 0.0
H255 H 0.96032 0.37011 0.15901 0.0
H256 H 0.91768 0.35011 0.02568 0.0
H257 H 0.85808 0.3322 0.04538 0.0
H258 H 0.9151 0.36945 0.99238 0.0
H259 H 0.85656 0.35186 0.0117 0.0
H260 H 0.94263 0.31761 0.0087 0.0
H261 H 0.98131 0.36387 0.05689 0.0
H262 H 0.86069 0.38814 0.0955 0.0
H263 H 0.91137 0.41098 0.04903 0.0
Li264 Li 0.56771 0.89724 0.61379 0.0
Li265 Li 0.56087 0.87717 0.57966 0.0
Li266 Li 0.57734 0.91151 0.57319 0.0
Li267 Li 0.54227 0.89291 0.58531 0.0
C268 C 0.60601 0.90947 0.59927 0.0
N269 N 0.64363 0.93551 0.61491 0.0
C270 C 0.62043 0.90403 0.59921 0.0
C271 C 0.61075 0.92821 0.60728 0.0
C272 C 0.63936 0.91738 0.6072 0.0
C273 C 0.62984 0.94114 0.6151 0.0
C274 C 0.54057 0.85831 0.62092 0.0
C275 C 0.51994 0.82936 0.64419 0.0
N276 N 0.53593 0.82775 0.64977 0.0
C277 C 0.55682 0.8564 0.62695 0.0
C278 C 0.52199 0.8447 0.62962 0.0
C279 C 0.55415 0.84084 0.64154 0.0
C280 C 0.55787 0.89988 0.65995 0.0
N281 N 0.57275 0.90036 0.6471 0.0
C282 C 0.59128 0.90459 0.68264 0.0
C283 C 0.58913 0.90226 0.65789 0.0
C284 C 0.5764 0.90484 0.69622 0.0
C285 C 0.55941 0.90217 0.68464 0.0
H286 H 0.5448 0.89779 0.6509 0.0
H287 H 0.60047 0.90187 0.64744 0.0
C288 C 0.57539 0.85244 0.56476 0.0
N289 N 0.55883 0.85313 0.56979 0.0
C290 C 0.5744 0.83435 0.56159 0.0
C291 C 0.53925 0.81822 0.56774 0.0
C292 C 0.5409 0.83658 0.57066 0.0
C293 C 0.55624 0.81699 0.5639 0.0
H294 H 0.58944 0.86588 0.5643 0.0
H295 H 0.528 0.83762 0.57476 0.0
C296 C 0.5574 0.93065 0.60312 0.0
N297 N 0.5443 0.9569 0.61115 0.0
C298 C 0.54949 0.93624 0.5844 0.0
C299 C 0.55899 0.9387 0.62582 0.0
C300 C 0.5428 0.9494 0.58886 0.0
C301 C 0.55224 0.9519 0.62954 0.0
C302 C 0.54876 0.87798 0.53717 0.0
C303 C 0.56278 0.87821 0.52162 0.0
C304 C 0.52905 0.86346 0.53477 0.0
C305 C 0.55684 0.86377 0.50397 0.0
C306 C 0.52369 0.84929 0.51687 0.0
N307 N 0.53758 0.84974 0.50198 0.0
C308 C 0.60825 0.93109 0.53977 0.0
C309 C 0.59767 0.95107 0.55899 0.0
C310 C 0.6214 0.94691 0.52565 0.0
N311 N 0.59639 0.93336 0.55557 0.0
C312 C 0.61054 0.96721 0.54533 0.0
C313 C 0.62229 0.96512 0.52804 0.0
H314 H 0.60732 0.91696 0.53793 0.0
H315 H 0.5885 0.95265 0.57207 0.0
C316 C 0.50736 0.88807 0.60426 0.0
N317 N 0.51756 0.89153 0.58356 0.0
C318 C 0.48946 0.88778 0.60455 0.0
C319 C 0.49282 0.89436 0.56211 0.0
C320 C 0.51066 0.89448 0.56264 0.0
C321 C 0.48214 0.89122 0.58333 0.0
H322 H 0.51326 0.88574 0.6206 0.0
H323 H 0.51919 0.8973 0.54647 0.0
O324 O 0.58748 0.89644 0.59132 0.0
O325 O 0.54262 0.8731 0.60615 0.0
O326 O 0.56408 0.91779 0.59915 0.0
O327 O 0.55434 0.89175 0.55488 0.0
H328 H 0.61703 0.88959 0.59308 0.0
H329 H 0.5999 0.93279 0.60761 0.0
H330 H 0.65065 0.91333 0.60726 0.0
H331 H 0.63369 0.95566 0.62136 0.0
H332 H 0.50564 0.81869 0.651 0.0
H333 H 0.5713 0.8667 0.62033 0.0
H334 H 0.50927 0.84594 0.62504 0.0
H335 H 0.56657 0.83915 0.64626 0.0
H336 H 0.60447 0.9063 0.69105 0.0
H337 H 0.54732 0.90162 0.69459 0.0
H338 H 0.58779 0.83387 0.55872 0.0
H339 H 0.52499 0.80508 0.56941 0.0
H340 H 0.54857 0.93049 0.56659 0.0
H341 H 0.56567 0.93508 0.64035 0.0
H342 H 0.5365 0.95373 0.57457 0.0
H343 H 0.5534 0.95825 0.64703 0.0
H344 H 0.57809 0.88928 0.5233 0.0
H345 H 0.51804 0.86295 0.54682 0.0
H346 H 0.56755 0.86371 0.49189 0.0
H347 H 0.5085 0.8379 0.51488 0.0
H348 H 0.63052 0.94486 0.5128 0.0
H349 H 0.61077 0.98101 0.54767 0.0
H350 H 0.48145 0.88489 0.62118 0.0
H351 H 0.48765 0.8971 0.54542 0.0
Li352 Li 0.66343 0.57385 0.07286 0.0
Li353 Li 0.64965 0.53911 0.08297 0.0
Li354 Li 0.66689 0.56551 0.11432 0.0
Li355 Li 0.68501 0.56019 0.08279 0.0
C356 C 0.62706 0.56141 0.0978 0.0
N357 N 0.59565 0.5679 0.10117 0.0
C358 C 0.61018 0.55032 0.08409 0.0
C359 C 0.62774 0.57547 0.11369 0.0
C360 C 0.59452 0.55392 0.0859 0.0
C361 C 0.61177 0.57862 0.11502 0.0
C362 C 0.66009 0.54108 0.03638 0.0
C363 C 0.6533 0.51066 0.01768 0.0
N364 N 0.64594 0.51525 0.99832 0.0
C365 C 0.6526 0.54557 0.01622 0.0
C366 C 0.66058 0.52355 0.03705 0.0
C367 C 0.64547 0.53231 0.99719 0.0
C368 C 0.67316 0.6099 0.04903 0.0
N369 N 0.6592 0.59081 0.05274 0.0
C370 C 0.63695 0.59395 0.02662 0.0
C371 C 0.64151 0.58266 0.04156 0.0
C372 C 0.6508 0.61383 0.02302 0.0
C373 C 0.66917 0.62183 0.03426 0.0
H374 H 0.68739 0.61588 0.05741 0.0
H375 H 0.63104 0.56726 0.04398 0.0
C376 C 0.62375 0.50066 0.09713 0.0
N377 N 0.62782 0.51342 0.07875 0.0
C378 C 0.60698 0.48209 0.0965 0.0
C379 C 0.59906 0.48995 0.05783 0.0
C380 C 0.61591 0.50846 0.0593 0.0
C381 C 0.59437 0.47663 0.07673 0.0
H382 H 0.63328 0.50513 0.11257 0.0
H383 H 0.6191 0.51906 0.04526 0.0
C384 C 0.69505 0.60402 0.10305 0.0
N385 N 0.70988 0.64083 0.12333 0.0
C386 C 0.71499 0.61513 0.10885 0.0
C387 C 0.68273 0.61174 0.10736 0.0
C388 C 0.72219 0.63368 0.11916 0.0
C389 C 0.69047 0.63034 0.11765 0.0
C390 C 0.6793 0.5334 0.11596 0.0
C391 C 0.69255 0.54213 0.1348 0.0
C392 C 0.67724 0.51639 0.10527 0.0
C393 C 0.70382 0.5339 0.14233 0.0
C394 C 0.68877 0.50861 0.11332 0.0
N395 N 0.70173 0.51747 0.1315 0.0
C396 C 0.64896 0.55989 0.15853 0.0
C397 C 0.68317 0.5827 0.15946 0.0
C398 C 0.64784 0.56069 0.18329 0.0
N399 N 0.66646 0.57061 0.14722 0.0
C400 C 0.68274 0.5839 0.18431 0.0
C401 C 0.66499 0.5724 0.1965 0.0
H402 H 0.63598 0.55018 0.14833 0.0
H403 H 0.697 0.59065 0.1501 0.0
C404 C 0.71241 0.55314 0.05745 0.0
N405 N 0.70939 0.56156 0.07698 0.0
C406 C 0.73036 0.55379 0.05433 0.0
C407 C 0.74183 0.5722 0.09114 0.0
C408 C 0.72365 0.57106 0.09363 0.0
C409 C 0.74529 0.56346 0.07132 0.0
H410 H 0.70091 0.54585 0.04437 0.0
H411 H 0.72073 0.57743 0.10909 0.0
O412 O 0.64248 0.55794 0.0964 0.0
O413 O 0.66697 0.55383 0.05527 0.0
O414 O 0.68768 0.58565 0.0934 0.0
O415 O 0.66834 0.5414 0.10812 0.0
H416 H 0.60923 0.53919 0.07197 0.0
H417 H 0.64033 0.58373 0.12512 0.0
H418 H 0.58147 0.54558 0.07517 0.0
H419 H 0.61216 0.58952 0.12715 0.0
H420 H 0.65348 0.49699 0.01805 0.0
H421 H 0.65236 0.55919 0.0152 0.0
H422 H 0.66639 0.51988 0.05243 0.0
H423 H 0.63959 0.53558 0.98151 0.0
H424 H 0.62266 0.58724 0.01812 0.0
H425 H 0.68036 0.63701 0.03144 0.0
H426 H 0.60373 0.47219 0.11146 0.0
H427 H 0.58942 0.48638 0.04254 0.0
H428 H 0.72482 0.60952 0.10547 0.0
H429 H 0.66742 0.60356 0.10245 0.0
H430 H 0.73757 0.64239 0.12382 0.0
H431 H 0.68107 0.63647 0.12105 0.0
H432 H 0.69429 0.55525 0.14332 0.0
H433 H 0.66679 0.50921 0.09101 0.0
H434 H 0.71425 0.54061 0.15675 0.0
H435 H 0.68738 0.4955 0.10514 0.0
H436 H 0.63383 0.55182 0.19209 0.0
H437 H 0.69628 0.59297 0.19396 0.0
H438 H 0.73259 0.5469 0.03882 0.0
H439 H 0.75291 0.57946 0.10482 0.0
Li440 Li 0.12378 0.68735 0.58389 0.0
Li441 Li 0.10261 0.66905 0.61529 0.0
Li442 Li 0.11091 0.6526 0.58473 0.0
Li443 Li 0.08776 0.66516 0.57594 0.0
C444 C 0.14792 0.68464 0.61233 0.0
N445 N 0.18726 0.71159 0.61915 0.0
C446 C 0.15367 0.69908 0.62997 0.0
C447 C 0.16221 0.68383 0.59828 0.0
C448 C 0.17363 0.71257 0.63314 0.0
C449 C 0.18201 0.69762 0.60196 0.0
C450 C 0.09295 0.69707 0.61133 0.0
C451 C 0.06591 0.70129 0.6239 0.0
N452 N 0.07693 0.71261 0.64244 0.0
C453 C 0.10402 0.7088 0.63051 0.0
C454 C 0.07373 0.6933 0.60799 0.0
C455 C 0.09565 0.71649 0.64604 0.0
C456 C 0.15782 0.71326 0.55682 0.0
N457 N 0.14608 0.71192 0.57539 0.0
C458 C 0.16788 0.74537 0.58603 0.0
C459 C 0.15052 0.72766 0.58951 0.0
C460 C 0.18073 0.74698 0.56765 0.0
C461 C 0.17533 0.73079 0.55255 0.0
H462 H 0.15387 0.7006 0.5457 0.0
H463 H 0.14095 0.72625 0.60407 0.0
C464 C 0.11018 0.66572 0.66329 0.0
N465 N 0.09727 0.66759 0.64891 0.0
C466 C 0.10775 0.6647 0.68797 0.0
C467 C 0.07828 0.66671 0.68276 0.0
C468 C 0.08123 0.66758 0.6581 0.0
C469 C 0.0918 0.66549 0.69797 0.0
H470 H 0.1224 0.66499 0.65557 0.0
H471 H 0.07068 0.66823 0.64634 0.0
C472 C 0.11273 0.65881 0.53789 0.0
N473 N 0.11593 0.63809 0.49994 0.0
C474 C 0.097 0.64876 0.52214 0.0
C475 C 0.13015 0.65846 0.5342 0.0
C476 C 0.09889 0.63834 0.50309 0.0
C477 C 0.13146 0.64786 0.51496 0.0
C478 C 0.07326 0.63224 0.61565 0.0
C479 C 0.07985 0.62157 0.62886 0.0
C480 C 0.05523 0.63076 0.62122 0.0
C481 C 0.06829 0.60963 0.64757 0.0
C482 C 0.04409 0.61865 0.64005 0.0
N483 N 0.0508 0.60844 0.65273 0.0
C484 C 0.12812 0.62864 0.59111 0.0
C485 C 0.10092 0.616 0.56468 0.0
C486 C 0.12912 0.61145 0.58895 0.0
N487 N 0.11413 0.63054 0.57909 0.0
C488 C 0.10151 0.59867 0.56182 0.0
C489 C 0.11548 0.59607 0.57446 0.0
H490 H 0.13804 0.64016 0.60303 0.0
H491 H 0.08963 0.6177 0.55584 0.0
C492 C 0.06379 0.67338 0.54503 0.0
N493 N 0.06518 0.65953 0.55807 0.0
C494 C 0.04682 0.66821 0.5317 0.0
C495 C 0.03338 0.63471 0.54539 0.0
C496 C 0.05055 0.64048 0.55826 0.0
C497 C 0.03131 0.64867 0.53206 0.0
H498 H 0.07584 0.68838 0.54497 0.0
H499 H 0.05234 0.62969 0.56819 0.0
O500 O 0.12841 0.67163 0.60851 0.0
O501 O 0.10092 0.68956 0.5957 0.0
O502 O 0.1111 0.66897 0.55677 0.0
O503 O 0.08457 0.64432 0.59762 0.0
H504 H 0.14284 0.70007 0.64087 0.0
H505 H 0.15806 0.67283 0.58449 0.0
H506 H 0.17827 0.72389 0.64662 0.0
H507 H 0.1932 0.69726 0.59108 0.0
H508 H 0.05105 0.69844 0.62153 0.0
H509 H 0.11872 0.71153 0.6338 0.0
H510 H 0.06488 0.68421 0.59338 0.0
H511 H 0.10399 0.72542 0.66107 0.0
H512 H 0.17154 0.75747 0.59814 0.0
H513 H 0.18466 0.73159 0.53786 0.0
H514 H 0.1184 0.66359 0.69917 0.0
H515 H 0.06551 0.66683 0.68983 0.0
H516 H 0.08345 0.64894 0.52458 0.0
H517 H 0.14244 0.66605 0.54624 0.0
H518 H 0.0868 0.63044 0.49082 0.0
H519 H 0.1448 0.64735 0.51201 0.0
H520 H 0.09383 0.62266 0.62486 0.0
H521 H 0.05004 0.63913 0.61136 0.0
H522 H 0.07323 0.60135 0.65802 0.0
H523 H 0.03017 0.61746 0.64465 0.0
H524 H 0.13997 0.60992 0.59919 0.0
H525 H 0.09093 0.5873 0.55017 0.0
H526 H 0.04576 0.67929 0.52137 0.0
H527 H 0.02197 0.61939 0.54549 0.0
Li528 Li 0.88738 0.53993 0.41409 0.0
Li529 Li 0.90857 0.57486 0.42346 0.0
Li530 Li 0.87291 0.56135 0.41531 0.0
Li531 Li 0.89576 0.56639 0.38301 0.0
C532 C 0.87649 0.54248 0.46082 0.0
N533 N 0.85852 0.51734 0.49883 0.0
C534 C 0.88526 0.54704 0.48339 0.0
C535 C 0.85851 0.52522 0.45766 0.0
C536 C 0.87596 0.53413 0.50236 0.0
C537 C 0.84967 0.51268 0.47706 0.0
C538 C 0.93214 0.5629 0.40264 0.0
C539 C 0.96647 0.58138 0.39206 0.0
N540 N 0.9705 0.57139 0.40885 0.0
C541 C 0.9366 0.55263 0.41953 0.0
C542 C 0.94716 0.57723 0.38857 0.0
C543 C 0.95609 0.55721 0.42251 0.0
C544 C 0.87717 0.50248 0.39862 0.0
N545 N 0.88341 0.51425 0.41821 0.0
C546 C 0.88613 0.48976 0.44044 0.0
C547 C 0.88784 0.5083 0.43893 0.0
C548 C 0.87996 0.47741 0.42036 0.0
C549 C 0.87531 0.48389 0.39931 0.0
H550 H 0.87404 0.50773 0.38229 0.0
H551 H 0.89327 0.51814 0.45406 0.0
C552 C 0.94058 0.61155 0.44056 0.0
N553 N 0.93031 0.59166 0.44296 0.0
C554 C 0.95668 0.62291 0.45537 0.0
C555 C 0.95099 0.59311 0.47501 0.0
C556 C 0.93516 0.58238 0.4598 0.0
C557 C 0.96191 0.61362 0.47293 0.0
H558 H 0.9363 0.61863 0.42727 0.0
H559 H 0.92675 0.56656 0.46127 0.0
C560 C 0.85146 0.53291 0.38149 0.0
N561 N 0.8134 0.51372 0.36421 0.0
C562 C 0.84591 0.54141 0.36342 0.0
C563 C 0.83775 0.51442 0.39037 0.0
C564 C 0.82658 0.53155 0.35504 0.0
C565 C 0.81856 0.50501 0.38151 0.0
C566 C 0.90342 0.60374 0.39148 0.0
C567 C 0.89264 0.61331 0.38817 0.0
C568 C 0.9221 0.61161 0.38136 0.0
C569 C 0.90065 0.63046 0.37449 0.0
C570 C 0.92961 0.62878 0.36779 0.0
N571 N 0.91881 0.63776 0.36464 0.0
C572 C 0.84015 0.55654 0.44338 0.0
C573 C 0.84344 0.56998 0.40464 0.0
C574 C 0.82274 0.55688 0.44704 0.0
N575 N 0.84989 0.56269 0.42224 0.0
C576 C 0.82625 0.57077 0.40762 0.0
C577 C 0.81558 0.56391 0.4289 0.0
H578 H 0.8458 0.55137 0.45741 0.0
H579 H 0.85159 0.57501 0.38815 0.0
C580 C 0.90991 0.56258 0.3391 0.0
N581 N 0.90066 0.57124 0.34984 0.0
C582 C 0.91198 0.56323 0.31435 0.0
C583 C 0.89544 0.58215 0.31216 0.0
C584 C 0.89369 0.58115 0.337 0.0
C585 C 0.90425 0.57268 0.30056 0.0
H586 H 0.9151 0.55461 0.34974 0.0
H587 H 0.88609 0.58761 0.34592 0.0
O588 O 0.88562 0.55472 0.44188 0.0
O589 O 0.91314 0.5587 0.39961 0.0
O590 O 0.87034 0.5424 0.38999 0.0
O591 O 0.89568 0.58672 0.40445 0.0
H592 H 0.89904 0.56045 0.4863 0.0
H593 H 0.85145 0.52161 0.44043 0.0
H594 H 0.88261 0.53746 0.51991 0.0
H595 H 0.83577 0.49925 0.47481 0.0
H596 H 0.97824 0.59249 0.38136 0.0
H597 H 0.92517 0.54141 0.43046 0.0
H598 H 0.94397 0.58497 0.37494 0.0
H599 H 0.95975 0.5495 0.43571 0.0
H600 H 0.89026 0.48543 0.45681 0.0
H601 H 0.87054 0.47476 0.38347 0.0
H602 H 0.96484 0.63873 0.4533 0.0
H603 H 0.95484 0.58541 0.48804 0.0
H604 H 0.85634 0.55557 0.35612 0.0
H605 H 0.84188 0.50726 0.40377 0.0
H606 H 0.82205 0.53809 0.34125 0.0
H607 H 0.80779 0.49074 0.38831 0.0
H608 H 0.8783 0.60765 0.39618 0.0
H609 H 0.93068 0.6045 0.38395 0.0
H610 H 0.89245 0.63799 0.37174 0.0
H611 H 0.94402 0.63496 0.35978 0.0
H612 H 0.81499 0.55176 0.46384 0.0
H613 H 0.82112 0.5763 0.39326 0.0
H614 H 0.91913 0.556 0.30603 0.0
H615 H 0.88922 0.58948 0.30206 0.0
Li616 Li 0.33296 0.90953 0.92656 0.0
Li617 Li 0.34774 0.88934 0.91673 0.0
Li618 Li 0.32974 0.89748 0.88512 0.0
Li619 Li 0.31234 0.87413 0.9169 0.0
C620 C 0.36912 0.93413 0.90123 0.0
N621 N 0.39983 0.97236 0.89713 0.0
C622 C 0.38631 0.94046 0.91452 0.0
C623 C 0.36779 0.94718 0.88539 0.0
C624 C 0.40159 0.95986 0.91235 0.0
C625 C 0.38341 0.96646 0.88369 0.0
C626 C 0.33713 0.88115 0.96371 0.0
C627 C 0.34499 0.85868 0.98353 0.0
N628 N 0.35131 0.87073 0.0029 0.0
C629 C 0.34355 0.89322 0.9839 0.0
C630 C 0.33772 0.86366 0.9636 0.0
C631 C 0.35072 0.88773 0.0035 0.0
C632 C 0.32237 0.93506 0.95111 0.0
N633 N 0.3367 0.93054 0.94678 0.0
C634 C 0.35884 0.95614 0.97275 0.0
C635 C 0.35453 0.9405 0.95755 0.0
C636 C 0.34458 0.96153 0.97704 0.0
C637 C 0.32609 0.95074 0.96616 0.0
H638 H 0.30805 0.92646 0.94303 0.0
H639 H 0.36531 0.93603 0.95467 0.0
C640 C 0.37464 0.87733 0.90437 0.0
N641 N 0.37006 0.88643 0.92175 0.0
C642 C 0.39172 0.87612 0.90606 0.0
C643 C 0.39885 0.89331 0.94378 0.0
C644 C 0.3817 0.89429 0.94129 0.0
C645 C 0.40422 0.88447 0.92579 0.0
H646 H 0.36526 0.87145 0.88886 0.0
H647 H 0.37794 0.90177 0.95467 0.0
C648 C 0.3012 0.90728 0.8966 0.0
N649 N 0.28616 0.92923 0.87675 0.0
C650 C 0.28133 0.89831 0.89036 0.0
C651 C 0.31333 0.92744 0.89296 0.0
C652 C 0.27403 0.90964 0.88027 0.0
C653 C 0.30549 0.93828 0.88287 0.0
C654 C 0.31858 0.85317 0.88456 0.0
C655 C 0.30491 0.84782 0.86606 0.0
C656 C 0.32119 0.83878 0.89586 0.0
C657 C 0.29375 0.82807 0.85951 0.0
C658 C 0.30975 0.81918 0.88879 0.0
N659 N 0.29636 0.81427 0.87094 0.0
C660 C 0.34706 0.91123 0.84044 0.0
C661 C 0.31238 0.89678 0.8403 0.0
C662 C 0.3477 0.91369 0.81574 0.0
N663 N 0.32957 0.9028 0.85212 0.0
C664 C 0.31233 0.8988 0.81552 0.0
C665 C 0.33013 0.90697 0.8029 0.0
H666 H 0.36047 0.91561 0.85026 0.0
H667 H 0.29864 0.8897 0.84994 0.0
C668 C 0.28589 0.83903 0.94211 0.0
N669 N 0.28838 0.8507 0.92298 0.0
C670 C 0.26817 0.82149 0.94527 0.0
C671 C 0.25588 0.8286 0.90927 0.0
C672 C 0.27383 0.84588 0.90673 0.0
C673 C 0.25293 0.81621 0.92874 0.0
H674 H 0.29763 0.84324 0.95484 0.0
H675 H 0.27637 0.8553 0.89151 0.0
O676 O 0.35407 0.91507 0.90297 0.0
O677 O 0.33024 0.88641 0.94427 0.0
O678 O 0.30868 0.89632 0.90606 0.0
O679 O 0.32934 0.87239 0.89156 0.0
H680 H 0.38778 0.93057 0.9266 0.0
H681 H 0.35497 0.94247 0.87427 0.0
H682 H 0.41487 0.96496 0.92275 0.0
H683 H 0.38251 0.9767 0.87158 0.0
H684 H 0.34564 0.84525 0.98359 0.0
H685 H 0.34292 0.90664 0.98451 0.0
H686 H 0.33276 0.85412 0.9482 0.0
H687 H 0.35579 0.89698 0.0192 0.0
H688 H 0.37324 0.96406 0.98093 0.0
H689 H 0.31461 0.95425 0.96949 0.0
H690 H 0.39544 0.86931 0.89172 0.0
H691 H 0.40795 0.89965 0.95945 0.0
H692 H 0.27164 0.88276 0.89321 0.0
H693 H 0.32855 0.93468 0.89825 0.0
H694 H 0.25871 0.90287 0.87527 0.0
H695 H 0.31475 0.95391 0.88 0.0
H696 H 0.30273 0.85875 0.85708 0.0
H697 H 0.33196 0.84269 0.90988 0.0
H698 H 0.28298 0.8237 0.84537 0.0
H699 H 0.31155 0.80789 0.89748 0.0
H700 H 0.36177 0.92042 0.80671 0.0
H701 H 0.29846 0.89331 0.80624 0.0
H702 H 0.26635 0.81221 0.96047 0.0
H703 H 0.24457 0.82477 0.89591 0.0
Li704 Li 0.45319 0.34782 0.41411 0.0
Li705 Li 0.41778 0.3315 0.42189 0.0
Li706 Li 0.43499 0.31319 0.41789 0.0
Li707 Li 0.43001 0.32916 0.3829 0.0
C708 C 0.44372 0.3271 0.46347 0.0
N709 N 0.45323 0.31491 0.50519 0.0
C710 C 0.43332 0.32519 0.48449 0.0
C711 C 0.45926 0.32325 0.46387 0.0
C712 C 0.43827 0.31891 0.50535 0.0
C713 C 0.46375 0.31697 0.48505 0.0
C714 C 0.4359 0.37074 0.40663 0.0
C715 C 0.43698 0.40153 0.39932 0.0
N716 N 0.44087 0.40619 0.42283 0.0
C717 C 0.43993 0.37586 0.43074 0.0
C718 C 0.43443 0.38369 0.3908 0.0
C719 C 0.44238 0.39384 0.43857 0.0
C720 C 0.48422 0.38479 0.40158 0.0
N721 N 0.47782 0.3711 0.41923 0.0
C722 C 0.50677 0.39098 0.44215 0.0
C723 C 0.48857 0.3739 0.43937 0.0
C724 C 0.51383 0.40525 0.42405 0.0
C725 C 0.50226 0.40206 0.40364 0.0
H726 H 0.47534 0.38219 0.38578 0.0
H727 H 0.48306 0.36292 0.45325 0.0
C728 C 0.38875 0.32115 0.45738 0.0
N729 N 0.39687 0.33259 0.43779 0.0
C730 C 0.37568 0.32376 0.47169 0.0
C731 C 0.37807 0.34846 0.44401 0.0
C732 C 0.39106 0.34535 0.43029 0.0
C733 C 0.37069 0.33803 0.46541 0.0
H734 H 0.39301 0.31051 0.46236 0.0
H735 H 0.39706 0.35372 0.41413 0.0
C736 C 0.47277 0.33859 0.38398 0.0
N737 N 0.51112 0.36064 0.36812 0.0
C738 C 0.47689 0.3489 0.36246 0.0
C739 C 0.48819 0.3393 0.39726 0.0
C740 C 0.49635 0.35999 0.35476 0.0
C741 C 0.50747 0.3506 0.38901 0.0
C742 C 0.39132 0.30107 0.39354 0.0
C743 C 0.37699 0.28121 0.39476 0.0
C744 C 0.38688 0.31442 0.38273 0.0
C745 C 0.3584 0.27501 0.38511 0.0
C746 C 0.36812 0.30764 0.37329 0.0
N747 N 0.35439 0.28824 0.37466 0.0
C748 C 0.42297 0.27812 0.4446 0.0
C749 C 0.44916 0.28703 0.41728 0.0
C750 C 0.42368 0.26135 0.45136 0.0
N751 N 0.43563 0.2905 0.42785 0.0
C752 C 0.45045 0.27059 0.42356 0.0
C753 C 0.43765 0.25753 0.44082 0.0
H754 H 0.4123 0.28125 0.4526 0.0
H755 H 0.4588 0.29694 0.40374 0.0
C756 C 0.42952 0.34397 0.33754 0.0
N757 N 0.42496 0.32725 0.34966 0.0
C758 C 0.42737 0.34353 0.31281 0.0
C759 C 0.41522 0.30854 0.31357 0.0
C760 C 0.41774 0.30967 0.33834 0.0
C761 C 0.42031 0.32569 0.30053 0.0
H762 H 0.43543 0.35773 0.34703 0.0
H763 H 0.41432 0.29664 0.3485 0.0
O764 O 0.43892 0.33305 0.44279 0.0
O765 O 0.43356 0.35328 0.39839 0.0
O766 O 0.45381 0.32805 0.39211 0.0
O767 O 0.40956 0.3073 0.40298 0.0
H768 H 0.42174 0.32879 0.48485 0.0
H769 H 0.46765 0.32491 0.44793 0.0
H770 H 0.43028 0.31731 0.5217 0.0
H771 H 0.47561 0.31373 0.48548 0.0
H772 H 0.43585 0.41166 0.38725 0.0
H773 H 0.44114 0.36614 0.44335 0.0
H774 H 0.43127 0.38 0.37211 0.0
H775 H 0.44549 0.39796 0.45716 0.0
H776 H 0.51514 0.3931 0.45834 0.0
H777 H 0.50726 0.41271 0.38928 0.0
H778 H 0.37011 0.31528 0.48795 0.0
H779 H 0.37479 0.35974 0.43862 0.0
H780 H 0.46524 0.34856 0.35188 0.0
H781 H 0.4854 0.33132 0.41382 0.0
H782 H 0.49972 0.36814 0.33822 0.0
H783 H 0.51952 0.35139 0.39923 0.0
H784 H 0.38021 0.27071 0.40311 0.0
H785 H 0.39777 0.32985 0.38161 0.0
H786 H 0.34715 0.25967 0.38593 0.0
H787 H 0.36449 0.3178 0.36487 0.0
H788 H 0.41346 0.25148 0.46459 0.0
H789 H 0.46103 0.26783 0.41453 0.0
H790 H 0.43145 0.35705 0.30333 0.0
H791 H 0.41 0.29456 0.30465 0.0
Li792 Li 0.08554 0.41942 0.92187 0.0
Li793 Li 0.10673 0.45438 0.91257 0.0
Li794 Li 0.09943 0.4284 0.88117 0.0
Li795 Li 0.12114 0.43373 0.91457 0.0
C796 C 0.06345 0.43272 0.89138 0.0
N797 N 0.02732 0.42787 0.87836 0.0
C798 C 0.05672 0.44455 0.90149 0.0
C799 C 0.05192 0.41868 0.87427 0.0
C800 C 0.03838 0.44179 0.8948 0.0
C801 C 0.03368 0.41639 0.86802 0.0
C802 C 0.11104 0.45138 0.96009 0.0
C803 C 0.13131 0.4812 0.98213 0.0
N804 N 0.11686 0.47556 0.99875 0.0
C805 C 0.09644 0.44581 0.97749 0.0
C806 C 0.12868 0.46915 0.96251 0.0
C807 C 0.09965 0.45826 0.99687 0.0
C808 C 0.06126 0.38458 0.94844 0.0
N809 N 0.06345 0.40188 0.94031 0.0
C810 C 0.0337 0.39557 0.95929 0.0
C811 C 0.05021 0.4076 0.94567 0.0
C812 C 0.03095 0.37759 0.9678 0.0
C813 C 0.04495 0.37207 0.96232 0.0
H814 H 0.07222 0.38054 0.94422 0.0
H815 H 0.0527 0.42173 0.93982 0.0
C816 C 0.12148 0.49392 0.9008 0.0
N817 N 0.11016 0.47989 0.91697 0.0
C818 C 0.12356 0.5126 0.9021 0.0
C819 C 0.10261 0.50219 0.93696 0.0
C820 C 0.10073 0.48364 0.93481 0.0
C821 C 0.11401 0.51684 0.92033 0.0
H822 H 0.12855 0.49045 0.88658 0.0
H823 H 0.09135 0.47209 0.94702 0.0
C824 C 0.08782 0.38941 0.89434 0.0
N825 N 0.06487 0.35164 0.87712 0.0
C826 C 0.09608 0.3775 0.89028 0.0
C827 C 0.06785 0.38201 0.88989 0.0
C828 C 0.08425 0.35848 0.88148 0.0
C829 C 0.0565 0.3629 0.88114 0.0
C830 C 0.14373 0.46036 0.88284 0.0
C831 C 0.149 0.45246 0.86378 0.0
C832 C 0.15834 0.47592 0.896 0.0
C833 C 0.16888 0.46004 0.85848 0.0
C834 C 0.17805 0.48308 0.89016 0.0
N835 N 0.18287 0.47505 0.8717 0.0
C836 C 0.09079 0.43494 0.83502 0.0
C837 C 0.09917 0.40988 0.83736 0.0
C838 C 0.08955 0.43336 0.81021 0.0
N839 N 0.09558 0.42333 0.84799 0.0
C840 C 0.09814 0.40784 0.81256 0.0
C841 C 0.09359 0.41991 0.79869 0.0
H842 H 0.0884 0.44577 0.84397 0.0
H843 H 0.10346 0.4012 0.84801 0.0
C844 C 0.15609 0.44286 0.94055 0.0
N845 N 0.14422 0.43297 0.92182 0.0
C846 C 0.17437 0.44406 0.9429 0.0
C847 C 0.16731 0.42422 0.90727 0.0
C848 C 0.14925 0.42338 0.90565 0.0
C849 C 0.1803 0.43509 0.92571 0.0
H850 H 0.1517 0.45033 0.95315 0.0
H851 H 0.13955 0.41581 0.89084 0.0
O852 O 0.08152 0.43542 0.89756 0.0
O853 O 0.1081 0.4394 0.94094 0.0
O854 O 0.09929 0.40813 0.90279 0.0
O855 O 0.12437 0.45272 0.88877 0.0
H856 H 0.06544 0.45559 0.91458 0.0
H857 H 0.05703 0.40977 0.86563 0.0
H858 H 0.03295 0.45073 0.90268 0.0
H859 H 0.02461 0.40554 0.85486 0.0
H860 H 0.14483 0.49507 0.98411 0.0
H861 H 0.08279 0.43203 0.97606 0.0
H862 H 0.1401 0.47371 0.94922 0.0
H863 H 0.08846 0.45417 0.01042 0.0
H864 H 0.02339 0.40047 0.96359 0.0
H865 H 0.04325 0.35828 0.96864 0.0
H866 H 0.13238 0.52356 0.88888 0.0
H867 H 0.09472 0.50486 0.95095 0.0
H868 H 0.11147 0.38289 0.89383 0.0
H869 H 0.06112 0.39079 0.89352 0.0
H870 H 0.09047 0.34914 0.87816 0.0
H871 H 0.04101 0.35701 0.87765 0.0
H872 H 0.13789 0.44042 0.8534 0.0
H873 H 0.1545 0.48232 0.91065 0.0
H874 H 0.17319 0.45395 0.84393 0.0
H875 H 0.18952 0.49501 0.90032 0.0
H876 H 0.08618 0.44305 0.80008 0.0
H877 H 0.10119 0.39719 0.80429 0.0
H878 H 0.18405 0.45251 0.9574 0.0
H879 H 0.1713 0.41685 0.89392 0.0
Li880 Li 0.64935 0.1084 0.4151 0.0
Li881 Li 0.66523 0.08846 0.42534 0.0
Li882 Li 0.68378 0.12286 0.41999 0.0
Li883 Li 0.66997 0.1037 0.38543 0.0
C884 C 0.6724 0.12061 0.46348 0.0
N885 N 0.6924 0.14624 0.50037 0.0
C886 C 0.68586 0.1181 0.47715 0.0
C887 C 0.66902 0.13608 0.46863 0.0
C888 C 0.69585 0.13124 0.49571 0.0
C889 C 0.6793 0.1489 0.48735 0.0
C890 C 0.62726 0.06975 0.39304 0.0
C891 C 0.60578 0.04616 0.3639 0.0
N892 N 0.59017 0.0413 0.37849 0.0
C893 C 0.61103 0.06436 0.40786 0.0
C894 C 0.62464 0.06047 0.37096 0.0
C895 C 0.59239 0.05003 0.40013 0.0
C896 C 0.61821 0.11165 0.39708 0.0
N897 N 0.62644 0.1103 0.41778 0.0
C898 C 0.60068 0.11012 0.44061 0.0
C899 C 0.61817 0.1096 0.43935 0.0
C900 C 0.59164 0.11109 0.41946 0.0
C901 C 0.60067 0.11204 0.39749 0.0
H902 H 0.62516 0.11213 0.38023 0.0
H903 H 0.62497 0.10828 0.4555 0.0
C904 C 0.67656 0.06585 0.45384 0.0
N905 N 0.66149 0.06577 0.44179 0.0
C906 C 0.67345 0.04916 0.46642 0.0
C907 C 0.63961 0.0326 0.45324 0.0
C908 C 0.64332 0.04957 0.44117 0.0
C909 C 0.65475 0.03229 0.46614 0.0
H910 H 0.69092 0.07893 0.45386 0.0
H911 H 0.63161 0.04989 0.43159 0.0
C912 C 0.68245 0.14296 0.37962 0.0
N913 N 0.7081 0.17346 0.35054 0.0
C914 C 0.70041 0.14467 0.37303 0.0
C915 C 0.67752 0.15672 0.37137 0.0
C916 C 0.71318 0.16021 0.35834 0.0
C917 C 0.69069 0.17204 0.35668 0.0
C918 C 0.69522 0.09008 0.39814 0.0
C919 C 0.71493 0.095 0.39723 0.0
C920 C 0.68067 0.0716 0.39009 0.0
C921 C 0.71979 0.08139 0.38824 0.0
C922 C 0.68613 0.05839 0.38126 0.0
N923 N 0.70541 0.06352 0.38051 0.0
C924 C 0.72339 0.14683 0.43426 0.0
C925 C 0.70497 0.16312 0.43027 0.0
C926 C 0.74066 0.16477 0.43754 0.0
N927 N 0.70616 0.14644 0.43015 0.0
C928 C 0.72185 0.18133 0.43331 0.0
C929 C 0.74002 0.18227 0.43623 0.0
H930 H 0.72384 0.1333 0.4339 0.0
H931 H 0.69104 0.16231 0.42686 0.0
C932 C 0.65725 0.10286 0.3397 0.0
N933 N 0.67136 0.1013 0.35187 0.0
C934 C 0.65692 0.10242 0.31486 0.0
C935 C 0.68564 0.09866 0.31539 0.0
C936 C 0.68553 0.09935 0.34032 0.0
C937 C 0.67132 0.10043 0.30246 0.0
H938 H 0.64633 0.10462 0.34941 0.0
H939 H 0.69695 0.09872 0.35029 0.0
O940 O 0.66279 0.10816 0.44492 0.0
O941 O 0.64564 0.0839 0.40013 0.0
O942 O 0.66976 0.12807 0.39432 0.0
O943 O 0.69042 0.10337 0.40704 0.0
H944 H 0.68869 0.10626 0.47332 0.0
H945 H 0.6588 0.13835 0.45805 0.0
H946 H 0.70639 0.12954 0.50636 0.0
H947 H 0.67693 0.16101 0.49145 0.0
H948 H 0.60355 0.03888 0.34684 0.0
H949 H 0.61283 0.07106 0.42524 0.0
H950 H 0.63707 0.06413 0.35946 0.0
H951 H 0.5797 0.04579 0.41138 0.0
H952 H 0.59404 0.10929 0.45784 0.0
H953 H 0.59421 0.11305 0.38085 0.0
H954 H 0.68541 0.04945 0.47637 0.0
H955 H 0.62487 0.02003 0.45312 0.0
H956 H 0.70452 0.13421 0.37926 0.0
H957 H 0.66368 0.15559 0.37634 0.0
H958 H 0.72715 0.16175 0.35317 0.0
H959 H 0.68708 0.18281 0.35018 0.0
H960 H 0.72637 0.10924 0.40337 0.0
H961 H 0.66535 0.06743 0.39058 0.0
H962 H 0.735 0.08504 0.38741 0.0
H963 H 0.67503 0.04407 0.37498 0.0
H964 H 0.7545 0.16504 0.43967 0.0
H965 H 0.72087 0.19458 0.43241 0.0
H966 H 0.64556 0.10367 0.3054 0.0
H967 H 0.69707 0.09728 0.3063 0.0
Li968 Li 0.57844 0.66671 0.92039 0.0
Li969 Li 0.5452 0.65288 0.91187 0.0
Li970 Li 0.56967 0.6693 0.87987 0.0
Li971 Li 0.56493 0.68832 0.91444 0.0
C972 C 0.57111 0.6334 0.89881 0.0
N973 N 0.58765 0.60967 0.90236 0.0
C974 C 0.56636 0.62046 0.91802 0.0
C975 C 0.58401 0.63406 0.88119 0.0
C976 C 0.57497 0.60866 0.91957 0.0
C977 C 0.59227 0.62198 0.88335 0.0
C978 C 0.54527 0.66103 0.95786 0.0
C979 C 0.52103 0.66163 0.98372 0.0
N980 N 0.51724 0.64419 0.99333 0.0
C981 C 0.54123 0.64317 0.96812 0.0
C982 C 0.53515 0.67039 0.96577 0.0
C983 C 0.52696 0.63487 0.98597 0.0
C984 C 0.59499 0.66201 0.96261 0.0
N985 N 0.59733 0.6637 0.93854 0.0
C986 C 0.62387 0.65714 0.94064 0.0
C987 C 0.61182 0.662 0.9275 0.0
C988 C 0.62106 0.65426 0.96536 0.0
C989 C 0.60671 0.65718 0.97645 0.0
H990 H 0.58356 0.66371 0.971 0.0
H991 H 0.61356 0.66366 0.90838 0.0
C992 C 0.51658 0.61359 0.90616 0.0
N993 N 0.51939 0.6306 0.91607 0.0
C994 C 0.49853 0.59635 0.90829 0.0
C995 C 0.48625 0.61439 0.93035 0.0
C996 C 0.50455 0.63138 0.9276 0.0
C997 C 0.48319 0.59653 0.92089 0.0
H998 H 0.52832 0.6134 0.8964 0.0
H999 H 0.50683 0.64512 0.9347 0.0
C1000 C 0.60859 0.70099 0.90725 0.0
N1001 N 0.64715 0.72072 0.92258 0.0
C1002 C 0.61334 0.71035 0.92946 0.0
C1003 C 0.62343 0.70177 0.89275 0.0
C1004 C 0.63292 0.72021 0.93692 0.0
C1005 C 0.64284 0.7118 0.90085 0.0
C1006 C 0.52764 0.6674 0.88425 0.0
C1007 C 0.51732 0.65458 0.86556 0.0
C1008 C 0.51828 0.67473 0.89873 0.0
C1009 C 0.4977 0.64923 0.86171 0.0
C1010 C 0.49864 0.66901 0.89432 0.0
N1011 N 0.48884 0.65649 0.87605 0.0
C1012 C 0.56268 0.65311 0.83432 0.0
C1013 C 0.58852 0.68625 0.83608 0.0
C1014 C 0.56465 0.65282 0.80961 0.0
N1015 N 0.57445 0.66968 0.8469 0.0
C1016 C 0.59109 0.68658 0.81137 0.0
C1017 C 0.57899 0.66972 0.79782 0.0
H1018 H 0.55149 0.64024 0.84349 0.0
H1019 H 0.59749 0.69927 0.84659 0.0
C1020 C 0.56986 0.72063 0.94303 0.0
N1021 N 0.56629 0.71244 0.92089 0.0
C1022 C 0.5707 0.73864 0.9465 0.0
C1023 C 0.56466 0.73949 0.90426 0.0
C1024 C 0.56381 0.72147 0.90165 0.0
C1025 C 0.56806 0.74822 0.9269 0.0
H1026 H 0.57208 0.71318 0.95792 0.0
H1027 H 0.56114 0.7146 0.88426 0.0
O1028 O 0.56298 0.64521 0.89709 0.0
O1029 O 0.55931 0.66947 0.94048 0.0
O1030 O 0.58946 0.69097 0.89986 0.0
O1031 O 0.54685 0.67283 0.88831 0.0
H1032 H 0.55621 0.6196 0.93163 0.0
H1033 H 0.58782 0.64397 0.86617 0.0
H1034 H 0.57156 0.5987 0.93445 0.0
H1035 H 0.60241 0.62243 0.86995 0.0
H1036 H 0.51301 0.66866 0.98992 0.0
H1037 H 0.54898 0.63578 0.96232 0.0
H1038 H 0.53794 0.68412 0.95795 0.0
H1039 H 0.52362 0.62101 0.99397 0.0
H1040 H 0.63482 0.65504 0.93149 0.0
H1041 H 0.60389 0.65478 0.99543 0.0
H1042 H 0.49656 0.58306 0.89992 0.0
H1043 H 0.47469 0.61518 0.93992 0.0
H1044 H 0.60198 0.70977 0.94093 0.0
H1045 H 0.61995 0.69448 0.87557 0.0
H1046 H 0.63681 0.72742 0.95413 0.0
H1047 H 0.65448 0.71244 0.88989 0.0
H1048 H 0.52437 0.64881 0.85419 0.0
H1049 H 0.52603 0.68456 0.91338 0.0
H1050 H 0.4895 0.63931 0.84731 0.0
H1051 H 0.49118 0.67449 0.90545 0.0
H1052 H 0.55465 0.6397 0.79978 0.0
H1053 H 0.60226 0.6999 0.80292 0.0
H1054 H 0.5736 0.74513 0.96415 0.0
H1055 H 0.56249 0.74645 0.88878 0.0
Li1056 Li 0.57597 0.91234 0.9209 0.0
Li1057 Li 0.5619 0.8772 0.91556 0.0
Li1058 Li 0.56541 0.8992 0.88165 0.0
Li1059 Li 0.53996 0.89107 0.91191 0.0
C1060 C 0.60565 0.90767 0.90672 0.0
N1061 N 0.64492 0.9263 0.91916 0.0
C1062 C 0.61256 0.89855 0.92224 0.0
C1063 C 0.61874 0.92616 0.89732 0.0
C1064 C 0.63246 0.90823 0.92835 0.0
C1065 C 0.63852 0.93538 0.9039 0.0
C1066 C 0.54856 0.88096 0.96151 0.0
C1067 C 0.52267 0.85608 0.9857 0.0
N1068 N 0.53537 0.8612 0.00437 0.0
C1069 C 0.56127 0.88615 0.98106 0.0
C1070 C 0.52903 0.86597 0.96394 0.0
C1071 C 0.55435 0.87591 0.00253 0.0
C1072 C 0.59414 0.95161 0.93505 0.0
N1073 N 0.59419 0.93456 0.93873 0.0
C1074 C 0.61825 0.9494 0.96955 0.0
C1075 C 0.60599 0.93317 0.95545 0.0
C1076 C 0.6183 0.96713 0.96629 0.0
C1077 C 0.60615 0.96817 0.94868 0.0
H1078 H 0.58433 0.95221 0.92202 0.0
H1079 H 0.60559 0.91938 0.95821 0.0
C1080 C 0.56261 0.84402 0.90302 0.0
N1081 N 0.56339 0.85445 0.92272 0.0
C1082 C 0.56392 0.82708 0.90516 0.0
C1083 C 0.56714 0.83201 0.94791 0.0
C1084 C 0.56571 0.84891 0.94493 0.0
C1085 C 0.56623 0.8209 0.92782 0.0
H1086 H 0.56101 0.84895 0.88557 0.0
H1087 H 0.56679 0.85769 0.96025 0.0
C1088 C 0.5596 0.92951 0.88122 0.0
N1089 N 0.56055 0.95334 0.84436 0.0
C1090 C 0.54216 0.92798 0.87273 0.0
C1091 C 0.57754 0.94336 0.87119 0.0
C1092 C 0.54295 0.94012 0.85403 0.0
C1093 C 0.57771 0.9552 0.8525 0.0
C1094 C 0.52635 0.85555 0.88522 0.0
C1095 C 0.51805 0.85131 0.86239 0.0
C1096 C 0.51786 0.8415 0.90329 0.0
C1097 C 0.50115 0.83323 0.85815 0.0
C1098 C 0.50098 0.82358 0.89835 0.0
N1099 N 0.49302 0.81986 0.87608 0.0
C1100 C 0.58744 0.90645 0.83902 0.0
C1101 C 0.55525 0.90148 0.83443 0.0
C1102 C 0.59042 0.90849 0.81435 0.0
N1103 N 0.57007 0.90303 0.84845 0.0
C1104 C 0.55766 0.90361 0.80978 0.0
C1105 C 0.57541 0.90713 0.79951 0.0
H1106 H 0.59885 0.90732 0.8506 0.0
H1107 H 0.54147 0.89836 0.84243 0.0
C1108 C 0.51086 0.89403 0.93779 0.0
N1109 N 0.51449 0.88735 0.91712 0.0
C1110 C 0.49273 0.8929 0.94139 0.0
C1111 C 0.48243 0.87788 0.90245 0.0
C1112 C 0.50075 0.87937 0.89958 0.0
C1113 C 0.47837 0.88495 0.92343 0.0
H1114 H 0.52218 0.90056 0.95129 0.0
H1115 H 0.50423 0.87478 0.88301 0.0
O1116 O 0.5862 0.89846 0.90063 0.0
O1117 O 0.55508 0.89097 0.94042 0.0
O1118 O 0.5591 0.91752 0.89924 0.0
O1119 O 0.54292 0.8732 0.88961 0.0
H1120 H 0.60266 0.88422 0.92963 0.0
H1121 H 0.61366 0.93335 0.88516 0.0
H1122 H 0.638 0.9014 0.94044 0.0
H1123 H 0.64879 0.94974 0.89687 0.0
H1124 H 0.50762 0.8444 0.98777 0.0
H1125 H 0.57634 0.89785 0.97965 0.0
H1126 H 0.5188 0.86211 0.9493 0.0
H1127 H 0.56408 0.87969 0.01772 0.0
H1128 H 0.62733 0.94804 0.9831 0.0
H1129 H 0.60534 0.98141 0.94612 0.0
H1130 H 0.56307 0.81884 0.88926 0.0
H1131 H 0.5693 0.82789 0.96563 0.0
H1132 H 0.52816 0.91745 0.88038 0.0
H1133 H 0.59117 0.94482 0.87766 0.0
H1134 H 0.52955 0.93901 0.84719 0.0
H1135 H 0.59148 0.96587 0.84445 0.0
H1136 H 0.52454 0.86189 0.84809 0.0
H1137 H 0.52436 0.84425 0.92084 0.0
H1138 H 0.49451 0.82982 0.84061 0.0
H1139 H 0.49426 0.8126 0.9122 0.0
H1140 H 0.60424 0.91105 0.80695 0.0
H1141 H 0.5456 0.90204 0.79881 0.0
H1142 H 0.49004 0.89836 0.95789 0.0
H1143 H 0.4718 0.87191 0.88809 0.0
Li1144 Li 0.66087 0.57358 0.42181 0.0
Li1145 Li 0.6811 0.55967 0.41713 0.0
Li1146 Li 0.66491 0.56295 0.38254 0.0
Li1147 Li 0.64599 0.53789 0.41525 0.0
C1148 C 0.69994 0.60078 0.41266 0.0
N1149 N 0.7301 0.63382 0.43399 0.0
C1150 C 0.70329 0.60095 0.43718 0.0
C1151 C 0.71196 0.61739 0.39897 0.0
C1152 C 0.7186 0.6178 0.44764 0.0
C1153 C 0.72713 0.63396 0.41009 0.0
C1154 C 0.66324 0.54639 0.46382 0.0
C1155 C 0.65966 0.51936 0.48793 0.0
N1156 N 0.66661 0.53153 0.50715 0.0
C1157 C 0.6701 0.55857 0.4839 0.0
C1158 C 0.65775 0.52657 0.4659 0.0
C1159 C 0.67181 0.55081 0.50561 0.0
C1160 C 0.6404 0.58225 0.45429 0.0
N1161 N 0.65534 0.59118 0.43837 0.0
C1162 C 0.65844 0.62244 0.44661 0.0
C1163 C 0.66442 0.61086 0.43425 0.0
C1164 C 0.64281 0.61346 0.46283 0.0
C1165 C 0.63377 0.59316 0.46668 0.0
H1166 H 0.63338 0.56654 0.45694 0.0
H1167 H 0.67599 0.61751 0.42111 0.0
C1168 C 0.72006 0.5714 0.40895 0.0
N1169 N 0.70566 0.56163 0.42537 0.0
C1170 C 0.73822 0.57253 0.4114 0.0
C1171 C 0.72681 0.55417 0.44818 0.0
C1172 C 0.70876 0.55328 0.44494 0.0
C1173 C 0.74167 0.56358 0.43102 0.0
H1174 H 0.71717 0.57779 0.39347 0.0
H1175 H 0.69724 0.54558 0.45779 0.0
C1176 C 0.62997 0.56653 0.39494 0.0
N1177 N 0.61024 0.58706 0.38879 0.0
C1178 C 0.61112 0.5592 0.40436 0.0
C1179 C 0.6388 0.58427 0.38238 0.0
C1180 C 0.60138 0.56981 0.40105 0.0
C1181 C 0.62858 0.59444 0.37947 0.0
C1182 C 0.67842 0.53216 0.38796 0.0
C1183 C 0.69126 0.53928 0.36851 0.0
C1184 C 0.6788 0.51825 0.40316 0.0
C1185 C 0.70453 0.5326 0.36484 0.0
C1186 C 0.69233 0.51198 0.39893 0.0
N1187 N 0.70482 0.51925 0.38003 0.0
C1188 C 0.68211 0.57943 0.33784 0.0
C1189 C 0.64801 0.55609 0.33753 0.0
C1190 C 0.68217 0.58117 0.31301 0.0
N1191 N 0.66523 0.56684 0.3494 0.0
C1192 C 0.64737 0.55742 0.31278 0.0
C1193 C 0.66469 0.56979 0.3002 0.0
H1194 H 0.69558 0.58775 0.34786 0.0
H1195 H 0.63483 0.54628 0.34732 0.0
C1196 C 0.60948 0.51207 0.4358 0.0
N1197 N 0.62365 0.51312 0.42097 0.0
C1198 C 0.59198 0.4943 0.43879 0.0
C1199 C 0.60434 0.47899 0.41173 0.0
C1200 C 0.62155 0.49708 0.40916 0.0
C1201 C 0.58923 0.47752 0.4265 0.0
H1202 H 0.61161 0.52516 0.44487 0.0
H1203 H 0.63302 0.49847 0.39728 0.0
O1204 O 0.68507 0.58447 0.40193 0.0
O1205 O 0.66117 0.55371 0.44255 0.0
O1206 O 0.63996 0.55665 0.39848 0.0
O1207 O 0.66578 0.53903 0.39229 0.0
H1208 H 0.69422 0.58821 0.44798 0.0
H1209 H 0.70957 0.61747 0.37994 0.0
H1210 H 0.72134 0.61812 0.46661 0.0
H1211 H 0.73654 0.64693 0.39971 0.0
H1212 H 0.65559 0.50408 0.48975 0.0
H1213 H 0.67397 0.57384 0.48277 0.0
H1214 H 0.65218 0.51686 0.45069 0.0
H1215 H 0.67718 0.56008 0.52126 0.0
H1216 H 0.66556 0.63808 0.44315 0.0
H1217 H 0.62166 0.58583 0.4791 0.0
H1218 H 0.74924 0.5798 0.39767 0.0
H1219 H 0.72905 0.5474 0.4638 0.0
H1220 H 0.60413 0.54553 0.41422 0.0
H1221 H 0.65349 0.59026 0.37524 0.0
H1222 H 0.58679 0.56434 0.40827 0.0
H1223 H 0.63525 0.60823 0.36989 0.0
H1224 H 0.69116 0.55003 0.35657 0.0
H1225 H 0.66893 0.51253 0.41823 0.0
H1226 H 0.71467 0.53811 0.34999 0.0
H1227 H 0.69293 0.50139 0.4107 0.0
H1228 H 0.6958 0.59083 0.30387 0.0
H1229 H 0.63354 0.54873 0.30354 0.0
H1230 H 0.58062 0.4937 0.45029 0.0
H1231 H 0.60258 0.46647 0.40159 0.0
Li1232 Li 0.12278 0.68202 0.91601 0.0
Li1233 Li 0.08921 0.66234 0.92426 0.0
Li1234 Li 0.10789 0.64649 0.91452 0.0
Li1235 Li 0.09969 0.66507 0.88317 0.0
C1236 C 0.11447 0.67234 0.96404 0.0
N1237 N 0.12109 0.69143 0.00737 0.0
C1238 C 0.1114 0.68829 0.96646 0.0
C1239 C 0.12085 0.66605 0.98365 0.0
C1240 C 0.11483 0.69777 0.98851 0.0
C1241 C 0.12413 0.6759 0.00541 0.0
C1242 C 0.09332 0.69738 0.90045 0.0
C1243 C 0.07004 0.70394 0.88033 0.0
N1244 N 0.07675 0.72079 0.89315 0.0
C1245 C 0.10015 0.71491 0.9132 0.0
C1246 C 0.07829 0.69196 0.88367 0.0
C1247 C 0.09151 0.72648 0.90935 0.0
C1248 C 0.1498 0.72091 0.9073 0.0
N1249 N 0.14609 0.70592 0.92236 0.0
C1250 C 0.1759 0.72603 0.94363 0.0
C1251 C 0.15871 0.70802 0.94024 0.0
C1252 C 0.17999 0.74184 0.92844 0.0
C1253 C 0.16678 0.73907 0.90997 0.0
H1254 H 0.13964 0.71862 0.89297 0.0
H1255 H 0.15553 0.69571 0.95168 0.0
C1256 C 0.06425 0.64594 0.96297 0.0
N1257 N 0.06806 0.65861 0.94455 0.0
C1258 C 0.04801 0.64047 0.97762 0.0
C1259 C 0.04032 0.66187 0.95483 0.0
C1260 C 0.05665 0.66682 0.94048 0.0
C1261 C 0.0356 0.64818 0.97331 0.0
H1262 H 0.07346 0.6395 0.9657 0.0
H1263 H 0.05978 0.67676 0.92578 0.0
C1264 C 0.14497 0.67521 0.88749 0.0
N1265 N 0.18542 0.69539 0.88352 0.0
C1266 C 0.15409 0.68885 0.86913 0.0
C1267 C 0.15639 0.67177 0.90378 0.0
C1268 C 0.17457 0.69892 0.86744 0.0
C1269 C 0.17683 0.68213 0.90147 0.0
C1270 C 0.06252 0.62881 0.90593 0.0
C1271 C 0.05636 0.61296 0.92159 0.0
C1272 C 0.04869 0.633 0.89607 0.0
C1273 C 0.03646 0.60177 0.92748 0.0
C1274 C 0.02893 0.62149 0.90244 0.0
N1275 N 0.02328 0.60626 0.91791 0.0
C1276 C 0.10494 0.61327 0.93828 0.0
C1277 C 0.11982 0.62021 0.9 0.0
C1278 C 0.10632 0.59626 0.93996 0.0
N1279 N 0.11143 0.62463 0.91837 0.0
C1280 C 0.12174 0.60353 0.90106 0.0
C1281 C 0.11473 0.59116 0.9211 0.0
H1282 H 0.09821 0.61715 0.95253 0.0
H1283 H 0.12476 0.6295 0.88435 0.0
C1284 C 0.10514 0.68268 0.83812 0.0
N1285 N 0.09453 0.66568 0.85045 0.0
C1286 C 0.10285 0.68302 0.81345 0.0
C1287 C 0.07834 0.64849 0.81488 0.0
C1288 C 0.08116 0.6488 0.83951 0.0
C1289 C 0.08945 0.6657 0.80152 0.0
H1290 H 0.11574 0.69582 0.84739 0.0
H1291 H 0.07305 0.63548 0.84983 0.0
O1292 O 0.11126 0.66282 0.94263 0.0
O1293 O 0.10188 0.68607 0.90367 0.0
O1294 O 0.125 0.66566 0.88995 0.0
O1295 O 0.08204 0.6404 0.90067 0.0
H1296 H 0.10633 0.69323 0.95154 0.0
H1297 H 0.12327 0.65368 0.98204 0.0
H1298 H 0.11251 0.71014 0.99063 0.0
H1299 H 0.1291 0.67121 0.02075 0.0
H1300 H 0.05833 0.69984 0.86752 0.0
H1301 H 0.11208 0.71962 0.92585 0.0
H1302 H 0.07297 0.67862 0.87341 0.0
H1303 H 0.0966 0.74003 0.91917 0.0
H1304 H 0.18585 0.7276 0.95794 0.0
H1305 H 0.16971 0.75072 0.89744 0.0
H1306 H 0.04478 0.62976 0.9916 0.0
H1307 H 0.03128 0.6684 0.95123 0.0
H1308 H 0.14546 0.69174 0.85646 0.0
H1309 H 0.14955 0.66142 0.91826 0.0
H1310 H 0.18185 0.70959 0.85339 0.0
H1311 H 0.18586 0.6797 0.91403 0.0
H1312 H 0.06685 0.6095 0.92937 0.0
H1313 H 0.05318 0.64515 0.88384 0.0
H1314 H 0.03151 0.58957 0.93975 0.0
H1315 H 0.0181 0.6247 0.89514 0.0
H1316 H 0.10031 0.58691 0.95548 0.0
H1317 H 0.12841 0.60019 0.8862 0.0
H1318 H 0.11201 0.69648 0.80372 0.0
H1319 H 0.06789 0.63486 0.8063 0.0
Li1320 Li 0.42348 0.0925 0.42597 0.0
Li1321 Li 0.4396 0.12789 0.42146 0.0
Li1322 Li 0.43371 0.10633 0.38547 0.0
Li1323 Li 0.45915 0.11242 0.41506 0.0
C1324 C 0.39404 0.09836 0.40612 0.0
N1325 N 0.35347 0.07965 0.40423 0.0
C1326 C 0.38377 0.10437 0.42105 0.0
C1327 C 0.38366 0.0831 0.38988 0.0
C1328 C 0.36327 0.09465 0.41994 0.0
C1329 C 0.36317 0.07375 0.38928 0.0
C1330 C 0.44769 0.12235 0.46609 0.0
C1331 C 0.4669 0.14881 0.49349 0.0
N1332 N 0.45118 0.14191 0.50843 0.0
C1333 C 0.43179 0.11541 0.48181 0.0
C1334 C 0.46545 0.13907 0.47206 0.0
C1335 C 0.43383 0.12554 0.50309 0.0
C1336 C 0.41089 0.05601 0.44579 0.0
N1337 N 0.40558 0.06996 0.44377 0.0
C1338 C 0.37733 0.05111 0.4683 0.0
C1339 C 0.38921 0.0679 0.45477 0.0
C1340 C 0.3824 0.0364 0.47021 0.0
C1341 C 0.39931 0.03891 0.45871 0.0
H1342 H 0.4243 0.05826 0.43754 0.0
H1343 H 0.3856 0.07944 0.45357 0.0
C1344 C 0.45282 0.16819 0.42043 0.0
N1345 N 0.44025 0.15129 0.43195 0.0
C1346 C 0.45329 0.18569 0.42602 0.0
C1347 C 0.42776 0.16817 0.45526 0.0
C1348 C 0.42793 0.15098 0.44924 0.0
C1349 C 0.44054 0.18576 0.44349 0.0
H1350 H 0.46212 0.16803 0.40637 0.0
H1351 H 0.41794 0.13735 0.45802 0.0
C1352 C 0.43273 0.07012 0.38906 0.0
N1353 N 0.42066 0.03598 0.36321 0.0
C1354 C 0.4466 0.06601 0.37909 0.0
C1355 C 0.41272 0.05664 0.38627 0.0
C1356 C 0.44021 0.04875 0.36596 0.0
C1357 C 0.40691 0.03952 0.37305 0.0
C1358 C 0.47618 0.14395 0.38668 0.0
C1359 C 0.48131 0.14441 0.36269 0.0
C1360 C 0.49052 0.15604 0.40316 0.0
C1361 C 0.5008 0.15666 0.35569 0.0
C1362 C 0.50985 0.16807 0.39547 0.0
N1363 N 0.51456 0.16811 0.3721 0.0
C1364 C 0.41528 0.10606 0.3412 0.0
C1365 C 0.44026 0.09757 0.33952 0.0
C1366 C 0.41283 0.10403 0.31643 0.0
N1367 N 0.42876 0.10269 0.35216 0.0
C1368 C 0.43835 0.09541 0.31484 0.0
C1369 C 0.42454 0.0987 0.30299 0.0
H1370 H 0.40669 0.11066 0.35161 0.0
H1371 H 0.45138 0.09573 0.34856 0.0
C1372 C 0.49216 0.11464 0.43919 0.0
N1373 N 0.48391 0.11391 0.41761 0.0
C1374 C 0.50977 0.11433 0.4405 0.0
C1375 C 0.51012 0.11292 0.39738 0.0
C1376 C 0.49252 0.11314 0.39692 0.0
C1377 C 0.51876 0.11312 0.41938 0.0
H1378 H 0.48485 0.11503 0.45537 0.0
H1379 H 0.4855 0.11236 0.38004 0.0
O1380 O 0.41414 0.10783 0.40689 0.0
O1381 O 0.44592 0.11269 0.4451 0.0
O1382 O 0.43876 0.08702 0.40193 0.0
O1383 O 0.45721 0.13185 0.39394 0.0
H1384 H 0.3915 0.11631 0.4335 0.0
H1385 H 0.39131 0.07864 0.37763 0.0
H1386 H 0.35515 0.09906 0.43155 0.0
H1387 H 0.35497 0.06187 0.37684 0.0
H1388 H 0.48054 0.16182 0.49828 0.0
H1389 H 0.41797 0.10247 0.47754 0.0
H1390 H 0.47801 0.14446 0.46033 0.0
H1391 H 0.42159 0.12041 0.51534 0.0
H1392 H 0.36443 0.04963 0.47722 0.0
H1393 H 0.40379 0.02795 0.4602 0.0
H1394 H 0.46299 0.19888 0.41611 0.0
H1395 H 0.41761 0.16768 0.46869 0.0
H1396 H 0.46214 0.07607 0.38135 0.0
H1397 H 0.40179 0.05916 0.39456 0.0
H1398 H 0.45079 0.04548 0.358 0.0
H1399 H 0.39146 0.029 0.37074 0.0
H1400 H 0.47038 0.13544 0.3496 0.0
H1401 H 0.48677 0.15606 0.4217 0.0
H1402 H 0.50498 0.15707 0.33721 0.0
H1403 H 0.52112 0.17738 0.40809 0.0
H1404 H 0.40233 0.10712 0.30782 0.0
H1405 H 0.44773 0.0914 0.30507 0.0
H1406 H 0.51602 0.1145 0.45779 0.0
H1407 H 0.51681 0.11242 0.38068 0.0
Li1408 Li 0.31605 0.44163 0.91614 0.0
Li1409 Li 0.33626 0.42769 0.92314 0.0
Li1410 Li 0.35116 0.4633 0.91409 0.0
Li1411 Li 0.33273 0.4374 0.883 0.0
C1412 C 0.33277 0.45527 0.96312 0.0
N1413 N 0.32777 0.46908 0.00641 0.0
C1414 C 0.32508 0.44259 0.98266 0.0
C1415 C 0.33826 0.47506 0.96573 0.0
C1416 C 0.32255 0.44983 0.00435 0.0
C1417 C 0.33552 0.48173 0.98773 0.0
C1418 C 0.29755 0.40004 0.91348 0.0
C1419 C 0.27255 0.36583 0.91183 0.0
N1420 N 0.26794 0.36674 0.93503 0.0
C1421 C 0.29257 0.40064 0.93728 0.0
C1422 C 0.28746 0.38252 0.90061 0.0
C1423 C 0.27756 0.38365 0.94786 0.0
C1424 C 0.27708 0.42917 0.90729 0.0
N1425 N 0.29159 0.44025 0.92309 0.0
C1426 C 0.27076 0.44987 0.94288 0.0
C1427 C 0.28872 0.45035 0.94087 0.0
C1428 C 0.25589 0.43912 0.92622 0.0
C1429 C 0.25903 0.42839 0.90852 0.0
H1430 H 0.27981 0.42146 0.89316 0.0
H1431 H 0.30042 0.45927 0.95304 0.0
C1432 C 0.35306 0.419 0.96076 0.0
N1433 N 0.34083 0.41046 0.94192 0.0
C1434 C 0.35785 0.40787 0.9757 0.0
C1435 C 0.3374 0.37928 0.95151 0.0
C1436 C 0.33301 0.39102 0.93697 0.0
C1437 C 0.34993 0.38773 0.97121 0.0
H1438 H 0.35928 0.43457 0.96397 0.0
H1439 H 0.32356 0.38467 0.92162 0.0
C1440 C 0.31977 0.46904 0.88607 0.0
N1441 N 0.29482 0.48366 0.87785 0.0
C1442 C 0.30583 0.4612 0.86778 0.0
C1443 C 0.32124 0.4845 0.89993 0.0
C1444 C 0.29329 0.46875 0.86397 0.0
C1445 C 0.30843 0.49164 0.89556 0.0
C1446 C 0.36557 0.43287 0.89148 0.0
C1447 C 0.3859 0.44065 0.89184 0.0
C1448 C 0.35338 0.41391 0.88263 0.0
C1449 C 0.39375 0.42931 0.88329 0.0
C1450 C 0.36179 0.40304 0.87426 0.0
N1451 N 0.38163 0.4109 0.87475 0.0
C1452 C 0.38422 0.49213 0.93906 0.0
C1453 C 0.37853 0.50186 0.90118 0.0
C1454 C 0.40152 0.51013 0.9418 0.0
N1455 N 0.37328 0.48836 0.91891 0.0
C1456 C 0.3958 0.51997 0.90308 0.0
C1457 C 0.40772 0.52414 0.9234 0.0
H1458 H 0.37966 0.48103 0.9528 0.0
H1459 H 0.36957 0.49831 0.88529 0.0
C1460 C 0.31535 0.41858 0.83932 0.0
N1461 N 0.33204 0.43271 0.8499 0.0
C1462 C 0.31441 0.41655 0.81449 0.0
C1463 C 0.34796 0.44336 0.81217 0.0
C1464 C 0.34826 0.44485 0.83698 0.0
C1465 C 0.33075 0.42933 0.80064 0.0
H1466 H 0.30261 0.4093 0.85013 0.0
H1467 H 0.36127 0.45599 0.84598 0.0
O1468 O 0.33578 0.44854 0.94191 0.0
O1469 O 0.31231 0.41641 0.90273 0.0
O1470 O 0.33167 0.46137 0.89066 0.0
O1471 O 0.35769 0.44375 0.89998 0.0
H1472 H 0.32122 0.42735 0.98117 0.0
H1473 H 0.34442 0.48514 0.95091 0.0
H1474 H 0.31654 0.44016 0.01958 0.0
H1475 H 0.33957 0.49697 0.98995 0.0
H1476 H 0.26464 0.35215 0.9021 0.0
H1477 H 0.30014 0.41408 0.94741 0.0
H1478 H 0.2912 0.3818 0.88218 0.0
H1479 H 0.27355 0.38393 0.96628 0.0
H1480 H 0.26877 0.45835 0.95672 0.0
H1481 H 0.24776 0.41978 0.89552 0.0
H1482 H 0.36805 0.41506 0.99026 0.0
H1483 H 0.33118 0.36383 0.94738 0.0
H1484 H 0.30452 0.44922 0.8569 0.0
H1485 H 0.33202 0.49078 0.91406 0.0
H1486 H 0.28228 0.46269 0.85006 0.0
H1487 H 0.30928 0.50348 0.90629 0.0
H1488 H 0.39551 0.4553 0.89869 0.0
H1489 H 0.3376 0.40761 0.8823 0.0
H1490 H 0.40947 0.43514 0.88345 0.0
H1491 H 0.35254 0.38835 0.8674 0.0
H1492 H 0.41007 0.51295 0.95798 0.0
H1493 H 0.40012 0.53033 0.88845 0.0
H1494 H 0.30088 0.4056 0.80617 0.0
H1495 H 0.36094 0.45327 0.80205 0.0
Li1496 Li 0.87308 0.31316 0.41825 0.0
Li1497 Li 0.90705 0.33356 0.42485 0.0
Li1498 Li 0.88796 0.34864 0.41447 0.0
Li1499 Li 0.89556 0.32931 0.38421 0.0
C1500 C 0.88319 0.32475 0.46536 0.0
N1501 N 0.87876 0.30723 0.50943 0.0
C1502 C 0.88594 0.30859 0.46782 0.0
C1503 C 0.87823 0.33203 0.48532 0.0
C1504 C 0.88362 0.29992 0.49024 0.0
C1505 C 0.87604 0.32296 0.50745 0.0
C1506 C 0.90355 0.2986 0.40261 0.0
C1507 C 0.9285 0.29418 0.38326 0.0
N1508 N 0.92243 0.27728 0.39579 0.0
C1509 C 0.89741 0.28106 0.41508 0.0
C1510 C 0.91908 0.30511 0.38638 0.0
C1511 C 0.90721 0.27056 0.41147 0.0
C1512 C 0.84427 0.27518 0.40899 0.0
N1513 N 0.84961 0.28972 0.42538 0.0
C1514 C 0.82022 0.27027 0.44769 0.0
C1515 C 0.83809 0.28766 0.44454 0.0
C1516 C 0.81418 0.25523 0.4307 0.0
C1517 C 0.82648 0.2577 0.4113 0.0
H1518 H 0.8537 0.2774 0.39385 0.0
H1519 H 0.84252 0.29963 0.45703 0.0
C1520 C 0.9335 0.35354 0.46055 0.0
N1521 N 0.9287 0.33854 0.44498 0.0
C1522 C 0.95024 0.36054 0.47468 0.0
C1523 C 0.95616 0.33565 0.45781 0.0
C1524 C 0.93941 0.32929 0.44366 0.0
C1525 C 0.96186 0.3517 0.47312 0.0
H1526 H 0.92465 0.36053 0.46134 0.0
H1527 H 0.93538 0.31738 0.43132 0.0
C1528 C 0.85062 0.3226 0.39096 0.0
N1529 N 0.81099 0.31035 0.39043 0.0
C1530 C 0.83909 0.31229 0.37133 0.0
C1531 C 0.84201 0.32665 0.41035 0.0
C1532 C 0.81907 0.30624 0.37139 0.0
C1533 C 0.82194 0.32034 0.40973 0.0
C1534 C 0.93263 0.36783 0.40554 0.0
C1535 C 0.93723 0.38501 0.41804 0.0
C1536 C 0.94767 0.3642 0.39888 0.0
C1537 C 0.95678 0.3981 0.42406 0.0
C1538 C 0.96703 0.37762 0.40529 0.0
N1539 N 0.97115 0.39414 0.41767 0.0
C1540 C 0.88752 0.38007 0.4386 0.0
C1541 C 0.8789 0.37654 0.39757 0.0
C1542 C 0.88582 0.3969 0.44021 0.0
N1543 N 0.88424 0.37046 0.41744 0.0
C1544 C 0.87691 0.39319 0.39841 0.0
C1545 C 0.88055 0.40369 0.41988 0.0
H1546 H 0.89195 0.37494 0.45402 0.0
H1547 H 0.87643 0.36855 0.38101 0.0
C1548 C 0.88508 0.31216 0.33896 0.0
N1549 N 0.89959 0.3273 0.35138 0.0
C1550 C 0.8866 0.31103 0.31427 0.0
C1551 C 0.91837 0.34066 0.31584 0.0
C1552 C 0.9161 0.34137 0.34047 0.0
C1553 C 0.90339 0.32546 0.30237 0.0
H1554 H 0.87208 0.30127 0.3482 0.0
H1555 H 0.92732 0.35332 0.35083 0.0
O1556 O 0.88541 0.33354 0.44362 0.0
O1557 O 0.89392 0.3089 0.40573 0.0
O1558 O 0.87013 0.3282 0.39153 0.0
O1559 O 0.91348 0.35458 0.40009 0.0
H1560 H 0.88987 0.30283 0.45263 0.0
H1561 H 0.87606 0.34454 0.4837 0.0
H1562 H 0.88571 0.28741 0.49239 0.0
H1563 H 0.87217 0.32842 0.52305 0.0
H1564 H 0.94061 0.29911 0.37086 0.0
H1565 H 0.88515 0.27559 0.42736 0.0
H1566 H 0.92387 0.31847 0.37635 0.0
H1567 H 0.90267 0.25701 0.42108 0.0
H1568 H 0.81095 0.26881 0.46277 0.0
H1569 H 0.82227 0.24629 0.39797 0.0
H1570 H 0.95425 0.37294 0.48643 0.0
H1571 H 0.96494 0.32859 0.45619 0.0
H1572 H 0.84551 0.30897 0.35622 0.0
H1573 H 0.85066 0.33433 0.42586 0.0
H1574 H 0.80995 0.29825 0.35632 0.0
H1575 H 0.81507 0.32331 0.42465 0.0
H1576 H 0.92582 0.38811 0.42326 0.0
H1577 H 0.94441 0.35102 0.3892 0.0
H1578 H 0.96053 0.41136 0.4339 0.0
H1579 H 0.97878 0.37487 0.40049 0.0
H1580 H 0.88915 0.40482 0.45696 0.0
H1581 H 0.87274 0.39792 0.38238 0.0
H1582 H 0.87446 0.29937 0.30454 0.0
H1583 H 0.93155 0.35206 0.30735 0.0
Li1584 Li 0.11241 0.46178 0.58242 0.0
Li1585 Li 0.10463 0.43517 0.61332 0.0
Li1586 Li 0.12528 0.43939 0.57888 0.0
Li1587 Li 0.0909 0.42588 0.57309 0.0
C1588 C 0.14969 0.46662 0.60879 0.0
N1589 N 0.18944 0.48096 0.61484 0.0
C1590 C 0.15635 0.45953 0.62731 0.0
C1591 C 0.16321 0.48112 0.59349 0.0
C1592 C 0.17652 0.46695 0.63005 0.0
C1593 C 0.18326 0.48815 0.59681 0.0
C1594 C 0.06922 0.43586 0.60808 0.0
C1595 C 0.03899 0.40954 0.62405 0.0
N1596 N 0.03386 0.42289 0.63133 0.0
C1597 C 0.06364 0.44932 0.61561 0.0
C1598 C 0.05681 0.41582 0.61224 0.0
C1599 C 0.04571 0.44247 0.62738 0.0
C1600 C 0.1033 0.48858 0.56194 0.0
N1601 N 0.11541 0.48687 0.57785 0.0
C1602 C 0.12914 0.52044 0.5895 0.0
C1603 C 0.12833 0.50232 0.59138 0.0
C1604 C 0.11637 0.52247 0.57375 0.0
C1605 C 0.10356 0.50638 0.55955 0.0
H1606 H 0.09311 0.47594 0.55155 0.0
H1607 H 0.13761 0.50042 0.60408 0.0
C1608 C 0.10365 0.41567 0.65595 0.0
N1609 N 0.10043 0.42967 0.64625 0.0
C1610 C 0.10169 0.41226 0.68052 0.0
C1611 C 0.09297 0.43762 0.68452 0.0
C1612 C 0.09516 0.44057 0.65991 0.0
C1613 C 0.09649 0.42349 0.69512 0.0
H1614 H 0.10807 0.40741 0.64463 0.0
H1615 H 0.09305 0.45184 0.65172 0.0
C1616 C 0.11637 0.44413 0.5311 0.0
N1617 N 0.12456 0.43841 0.48481 0.0
C1618 C 0.11136 0.42533 0.52325 0.0
C1619 C 0.12545 0.46003 0.5154 0.0
C1620 C 0.11564 0.42273 0.49979 0.0
C1621 C 0.1295 0.45684 0.49207 0.0
C1622 C 0.09697 0.39516 0.58983 0.0
C1623 C 0.1052 0.38829 0.57291 0.0
C1624 C 0.08165 0.38175 0.60435 0.0
C1625 C 0.09764 0.36808 0.57044 0.0
C1626 C 0.0745 0.36165 0.60132 0.0
N1627 N 0.08256 0.35528 0.58455 0.0
C1628 C 0.15262 0.42761 0.58584 0.0
C1629 C 0.15977 0.44785 0.55161 0.0
C1630 C 0.17002 0.42722 0.58305 0.0
N1631 N 0.14796 0.43799 0.57041 0.0
C1632 C 0.17724 0.44762 0.54794 0.0
C1633 C 0.18258 0.43743 0.56404 0.0
H1634 H 0.14307 0.42015 0.60081 0.0
H1635 H 0.15602 0.45645 0.53999 0.0
C1636 C 0.05686 0.41781 0.55036 0.0
N1637 N 0.06787 0.40933 0.55526 0.0
C1638 C 0.03962 0.40773 0.53716 0.0
C1639 C 0.04551 0.38044 0.53366 0.0
C1640 C 0.06259 0.391 0.54722 0.0
C1641 C 0.03377 0.38882 0.52855 0.0
H1642 H 0.06155 0.4325 0.55668 0.0
H1643 H 0.07171 0.38466 0.55087 0.0
O1644 O 0.12999 0.45906 0.6053 0.0
O1645 O 0.08673 0.44234 0.59655 0.0
O1646 O 0.11242 0.44708 0.55401 0.0
O1647 O 0.10433 0.41491 0.59274 0.0
H1648 H 0.14603 0.44825 0.63925 0.0
H1649 H 0.15823 0.48665 0.57897 0.0
H1650 H 0.18191 0.46151 0.64418 0.0
H1651 H 0.19389 0.49925 0.58498 0.0
H1652 H 0.02923 0.39407 0.62739 0.0
H1653 H 0.0731 0.46489 0.61243 0.0
H1654 H 0.06083 0.40524 0.60625 0.0
H1655 H 0.0412 0.45271 0.63336 0.0
H1656 H 0.13913 0.53251 0.60082 0.0
H1657 H 0.09367 0.5075 0.54701 0.0
H1658 H 0.10433 0.4011 0.68805 0.0
H1659 H 0.08913 0.44668 0.69525 0.0
H1660 H 0.10426 0.4129 0.53514 0.0
H1661 H 0.12938 0.47468 0.52125 0.0
H1662 H 0.11187 0.40824 0.49349 0.0
H1663 H 0.13657 0.46901 0.47973 0.0
H1664 H 0.11727 0.39841 0.56176 0.0
H1665 H 0.07541 0.38678 0.61794 0.0
H1666 H 0.10379 0.36256 0.55733 0.0
H1667 H 0.06259 0.35111 0.61237 0.0
H1668 H 0.1738 0.41929 0.59583 0.0
H1669 H 0.18682 0.45589 0.5333 0.0
H1670 H 0.03096 0.4147 0.53371 0.0
H1671 H 0.04177 0.36609 0.52685 0.0
Li1672 Li 0.64684 0.10751 0.08542 0.0
Li1673 Li 0.6653 0.10116 0.11605 0.0
Li1674 Li 0.68269 0.12263 0.08248 0.0
Li1675 Li 0.66346 0.08769 0.07718 0.0
C1676 C 0.67007 0.14509 0.10646 0.0
N1677 N 0.67701 0.18315 0.1042 0.0
C1678 C 0.67725 0.15733 0.12643 0.0
C1679 C 0.66643 0.1522 0.08533 0.0
C1680 C 0.68065 0.17653 0.12494 0.0
C1681 C 0.67004 0.17148 0.08455 0.0
C1682 C 0.63035 0.0696 0.11716 0.0
C1683 C 0.62335 0.04306 0.14428 0.0
N1684 N 0.60915 0.04558 0.15476 0.0
C1685 C 0.61555 0.0718 0.12803 0.0
C1686 C 0.63416 0.055 0.12517 0.0
C1687 C 0.60505 0.05956 0.14708 0.0
C1688 C 0.61396 0.10358 0.05972 0.0
N1689 N 0.62444 0.11008 0.0803 0.0
C1690 C 0.60186 0.11918 0.09592 0.0
C1691 C 0.61878 0.11779 0.09826 0.0
C1692 C 0.59074 0.11269 0.07484 0.0
C1693 C 0.59695 0.10479 0.05657 0.0
H1694 H 0.61869 0.09723 0.04591 0.0
H1695 H 0.6272 0.12246 0.11462 0.0
C1696 C 0.67894 0.09414 0.16015 0.0
N1697 N 0.66609 0.09857 0.1495 0.0
C1698 C 0.68015 0.09403 0.18504 0.0
C1699 C 0.65468 0.1027 0.18733 0.0
C1700 C 0.65408 0.10281 0.16248 0.0
C1701 C 0.66813 0.09867 0.19889 0.0
H1702 H 0.6886 0.09122 0.14938 0.0
H1703 H 0.64425 0.10659 0.15346 0.0
C1704 C 0.67052 0.11607 0.03551 0.0
N1705 N 0.68664 0.13198 0.99161 0.0
C1706 C 0.68726 0.1159 0.0275 0.0
C1707 C 0.66199 0.12439 0.02124 0.0
C1708 C 0.6952 0.124 0.00525 0.0
C1709 C 0.67035 0.13234 0.99908 0.0
C1710 C 0.69795 0.09336 0.09339 0.0
C1711 C 0.71467 0.10232 0.07891 0.0
C1712 C 0.69234 0.07514 0.10379 0.0
C1713 C 0.72537 0.09277 0.07486 0.0
C1714 C 0.7034 0.06605 0.09928 0.0
N1715 N 0.71955 0.07497 0.08502 0.0
C1716 C 0.72141 0.15039 0.08984 0.0
C1717 C 0.70772 0.15893 0.05744 0.0
C1718 C 0.73938 0.16755 0.08688 0.0
N1719 N 0.70613 0.14629 0.07505 0.0
C1720 C 0.72548 0.17634 0.05383 0.0
C1721 C 0.74155 0.18077 0.06871 0.0
H1722 H 0.71955 0.14032 0.10409 0.0
H1723 H 0.69522 0.15568 0.04636 0.0
C1724 C 0.64153 0.04945 0.06041 0.0
N1725 N 0.65985 0.06543 0.05948 0.0
C1726 C 0.63678 0.03297 0.04647 0.0
C1727 C 0.66997 0.04948 0.03114 0.0
C1728 C 0.67407 0.06568 0.04535 0.0
C1729 C 0.651 0.03302 0.03129 0.0
H1730 H 0.63038 0.0497 0.07143 0.0
H1731 H 0.68847 0.07854 0.04462 0.0
O1732 O 0.66688 0.12634 0.10758 0.0
O1733 O 0.64106 0.08169 0.09878 0.0
O1734 O 0.6626 0.10834 0.05731 0.0
O1735 O 0.68731 0.10252 0.09765 0.0
H1736 H 0.68017 0.15203 0.14289 0.0
H1737 H 0.66101 0.14296 0.06965 0.0
H1738 H 0.6862 0.18618 0.14026 0.0
H1739 H 0.66733 0.17719 0.0683 0.0
H1740 H 0.62622 0.03177 0.15074 0.0
H1741 H 0.61233 0.08295 0.12198 0.0
H1742 H 0.64534 0.0529 0.11672 0.0
H1743 H 0.59366 0.0612 0.15578 0.0
H1744 H 0.59726 0.1248 0.11073 0.0
H1745 H 0.5887 0.09953 0.04011 0.0
H1746 H 0.69076 0.09093 0.19334 0.0
H1747 H 0.64486 0.10594 0.19737 0.0
H1748 H 0.6943 0.10998 0.03856 0.0
H1749 H 0.64913 0.12482 0.02725 0.0
H1750 H 0.70822 0.12405 0.99889 0.0
H1751 H 0.66392 0.13884 0.98785 0.0
H1752 H 0.71925 0.11638 0.07063 0.0
H1753 H 0.67957 0.06807 0.11519 0.0
H1754 H 0.73827 0.09948 0.06359 0.0
H1755 H 0.69917 0.0519 0.10713 0.0
H1756 H 0.75136 0.17064 0.09894 0.0
H1757 H 0.72665 0.18618 0.03959 0.0
H1758 H 0.62191 0.02062 0.04687 0.0
H1759 H 0.68139 0.04995 0.01986 0.0
Li1760 Li 0.56348 0.66781 0.61286 0.0
Li1761 Li 0.53696 0.6499 0.58409 0.0
Li1762 Li 0.57175 0.66527 0.57191 0.0
Li1763 Li 0.55759 0.68545 0.58055 0.0
C1764 C 0.56051 0.63102 0.60746 0.0
N1765 N 0.5673 0.60498 0.63316 0.0
C1766 C 0.54502 0.61509 0.61913 0.0
C1767 C 0.57937 0.63345 0.60842 0.0
C1768 C 0.54877 0.60217 0.63217 0.0
C1769 C 0.58253 0.6202 0.62161 0.0
C1770 C 0.52351 0.67236 0.60703 0.0
C1771 C 0.49692 0.67249 0.58569 0.0
N1772 N 0.49121 0.6775 0.60618 0.0
C1773 C 0.51739 0.6775 0.62787 0.0
C1774 C 0.51321 0.66982 0.58574 0.0
C1775 C 0.50102 0.68004 0.62708 0.0
C1776 C 0.58548 0.68433 0.65537 0.0
N1777 N 0.56967 0.6684 0.64566 0.0
C1778 C 0.56012 0.65294 0.68383 0.0
C1779 C 0.55693 0.65299 0.65936 0.0
C1780 C 0.57636 0.66911 0.69433 0.0
C1781 C 0.58912 0.685 0.67987 0.0
H1782 H 0.595 0.69669 0.64423 0.0
H1783 H 0.54399 0.64097 0.65137 0.0
C1784 C 0.50659 0.61804 0.55932 0.0
N1785 N 0.51185 0.62748 0.58068 0.0
C1786 C 0.48872 0.60054 0.55698 0.0
C1787 C 0.482 0.60305 0.59859 0.0
C1788 C 0.49996 0.62052 0.6001 0.0
C1789 C 0.47634 0.59269 0.57691 0.0
H1790 H 0.51647 0.62391 0.54426 0.0
H1791 H 0.50468 0.62829 0.61691 0.0
C1792 C 0.60295 0.69897 0.59195 0.0
N1793 N 0.64354 0.71877 0.59095 0.0
C1794 C 0.61329 0.71723 0.58065 0.0
C1795 C 0.61325 0.69096 0.6031 0.0
C1796 C 0.63381 0.72696 0.58024 0.0
C1797 C 0.63377 0.70114 0.6023 0.0
C1798 C 0.55553 0.67385 0.53262 0.0
C1799 C 0.57349 0.69123 0.52999 0.0
C1800 C 0.54378 0.66501 0.51259 0.0
C1801 C 0.57945 0.69947 0.50731 0.0
C1802 C 0.55025 0.67372 0.49019 0.0
N1803 N 0.56781 0.69062 0.48804 0.0
C1804 C 0.58046 0.6411 0.54645 0.0
C1805 C 0.60536 0.67439 0.54172 0.0
C1806 C 0.59025 0.63497 0.53114 0.0
N1807 N 0.58814 0.66046 0.55157 0.0
C1808 C 0.61566 0.66888 0.52612 0.0
C1809 C 0.60806 0.64891 0.5207 0.0
H1810 H 0.56658 0.6304 0.5542 0.0
H1811 H 0.61094 0.68974 0.54556 0.0
C1812 C 0.56702 0.72353 0.59046 0.0
N1813 N 0.55756 0.70902 0.57411 0.0
C1814 C 0.56683 0.74109 0.58836 0.0
C1815 C 0.54751 0.72862 0.55231 0.0
C1816 C 0.54791 0.71117 0.55523 0.0
C1817 C 0.55682 0.74366 0.56924 0.0
H1818 H 0.57444 0.72127 0.60535 0.0
H1819 H 0.54021 0.69923 0.54272 0.0
O1820 O 0.55706 0.64376 0.59452 0.0
O1821 O 0.53965 0.67006 0.60754 0.0
O1822 O 0.58286 0.68923 0.59246 0.0
O1823 O 0.54941 0.66545 0.55464 0.0
H1824 H 0.53027 0.61282 0.6183 0.0
H1825 H 0.59141 0.64529 0.59886 0.0
H1826 H 0.53695 0.58988 0.64147 0.0
H1827 H 0.59707 0.62196 0.62258 0.0
H1828 H 0.48883 0.67061 0.56934 0.0
H1829 H 0.52525 0.67956 0.64447 0.0
H1830 H 0.51774 0.6659 0.56941 0.0
H1831 H 0.49613 0.68403 0.64308 0.0
H1832 H 0.54965 0.64069 0.69457 0.0
H1833 H 0.60163 0.69782 0.68748 0.0
H1834 H 0.48471 0.59316 0.53986 0.0
H1835 H 0.47291 0.5974 0.61438 0.0
H1836 H 0.60556 0.72381 0.57227 0.0
H1837 H 0.60551 0.67714 0.61249 0.0
H1838 H 0.642 0.74105 0.57144 0.0
H1839 H 0.64192 0.69507 0.61079 0.0
H1840 H 0.58268 0.69828 0.54529 0.0
H1841 H 0.5298 0.65158 0.51432 0.0
H1842 H 0.59334 0.71292 0.50504 0.0
H1843 H 0.54131 0.66703 0.47453 0.0
H1844 H 0.58396 0.61942 0.52752 0.0
H1845 H 0.62917 0.68009 0.51804 0.0
H1846 H 0.5743 0.75251 0.60163 0.0
H1847 H 0.53957 0.73015 0.53742 0.0
Li1848 Li 0.89583 0.56103 0.1146 0.0
Li1849 Li 0.88816 0.53546 0.08129 0.0
Li1850 Li 0.90863 0.57089 0.07438 0.0
Li1851 Li 0.87488 0.55745 0.0805 0.0
C1852 C 0.93375 0.56366 0.09612 0.0
N1853 N 0.97422 0.58376 0.09245 0.0
C1854 C 0.94303 0.55756 0.07974 0.0
C1855 C 0.94503 0.5799 0.11073 0.0
C1856 C 0.96351 0.56795 0.07811 0.0
C1857 C 0.96549 0.58987 0.1086 0.0
C1858 C 0.85067 0.52896 0.10841 0.0
C1859 C 0.81749 0.50676 0.09555 0.0
N1860 N 0.81065 0.51346 0.11341 0.0
C1861 C 0.84333 0.53554 0.12674 0.0
C1862 C 0.83769 0.51438 0.09275 0.0
C1863 C 0.82304 0.52755 0.12893 0.0
C1864 C 0.89325 0.57627 0.15907 0.0
N1865 N 0.89986 0.56543 0.14765 0.0
C1866 C 0.91051 0.55853 0.18442 0.0
C1867 C 0.90854 0.55678 0.15966 0.0
C1868 C 0.90325 0.5691 0.19684 0.0
C1869 C 0.89485 0.57835 0.18387 0.0
H1870 H 0.88633 0.58289 0.14895 0.0
H1871 H 0.91366 0.54826 0.15 0.0
C1872 C 0.89562 0.50845 0.05749 0.0
N1873 N 0.88489 0.51042 0.07518 0.0
C1874 C 0.89527 0.49065 0.05442 0.0
C1875 C 0.87205 0.47704 0.08702 0.0
C1876 C 0.87303 0.49517 0.08965 0.0
C1877 C 0.88364 0.47484 0.06961 0.0
H1878 H 0.90485 0.52088 0.04624 0.0
H1879 H 0.86482 0.49727 0.1037 0.0
C1880 C 0.90151 0.60046 0.08863 0.0
N1881 N 0.91288 0.63854 0.07549 0.0
C1882 C 0.89583 0.60423 0.06655 0.0
C1883 C 0.91282 0.61601 0.10416 0.0
C1884 C 0.90176 0.6236 0.0602 0.0
C1885 C 0.91847 0.63518 0.09715 0.0
C1886 C 0.87787 0.54649 0.03324 0.0
C1887 C 0.88116 0.56141 0.01713 0.0
C1888 C 0.86496 0.52689 0.02717 0.0
C1889 C 0.87107 0.55649 0.99541 0.0
C1890 C 0.85518 0.52258 0.00526 0.0
N1891 N 0.85838 0.53734 0.98998 0.0
C1892 C 0.93301 0.58166 0.0351 0.0
C1893 C 0.94436 0.60695 0.06418 0.0
C1894 C 0.94944 0.5929 0.02095 0.0
N1895 N 0.93079 0.58879 0.05624 0.0
C1896 C 0.96105 0.61876 0.05051 0.0
C1897 C 0.96369 0.61172 0.02859 0.0
H1898 H 0.92226 0.56695 0.02956 0.0
H1899 H 0.94256 0.61204 0.08139 0.0
C1900 C 0.84928 0.5713 0.08897 0.0
N1901 N 0.85216 0.55953 0.07368 0.0
C1902 C 0.83255 0.57304 0.08714 0.0
C1903 C 0.82202 0.55069 0.05362 0.0
C1904 C 0.83891 0.54924 0.05625 0.0
C1905 C 0.81867 0.56269 0.06924 0.0
H1906 H 0.85975 0.57888 0.10312 0.0
H1907 H 0.84103 0.53946 0.0448 0.0
O1908 O 0.9137 0.55415 0.09739 0.0
O1909 O 0.8705 0.53709 0.10542 0.0
O1910 O 0.89592 0.58164 0.09523 0.0
O1911 O 0.88785 0.55097 0.0544 0.0
H1912 H 0.9345 0.54509 0.06821 0.0
H1913 H 0.93806 0.58494 0.12332 0.0
H1914 H 0.97089 0.56348 0.0654 0.0
H1915 H 0.97441 0.60254 0.11968 0.0
H1916 H 0.80727 0.49558 0.08346 0.0
H1917 H 0.85322 0.54687 0.13893 0.0
H1918 H 0.84317 0.50923 0.07839 0.0
H1919 H 0.81713 0.5326 0.14292 0.0
H1920 H 0.91742 0.55151 0.19378 0.0
H1921 H 0.88904 0.58656 0.19286 0.0
H1922 H 0.90428 0.48936 0.04072 0.0
H1923 H 0.86303 0.46514 0.09912 0.0
H1924 H 0.88686 0.59232 0.05451 0.0
H1925 H 0.91728 0.61328 0.12136 0.0
H1926 H 0.89749 0.62674 0.04313 0.0
H1927 H 0.92731 0.64738 0.10892 0.0
H1928 H 0.8915 0.57661 0.02126 0.0
H1929 H 0.86241 0.51514 0.03931 0.0
H1930 H 0.87341 0.56789 0.98282 0.0
H1931 H 0.84503 0.50749 0.0004 0.0
H1932 H 0.95127 0.58664 0.00458 0.0
H1933 H 0.97188 0.63312 0.05711 0.0
H1934 H 0.83021 0.58191 0.10008 0.0
H1935 H 0.81156 0.54233 0.03972 0.0
Li1936 Li 0.33057 0.90131 0.61703 0.0
Li1937 Li 0.3504 0.89404 0.58707 0.0
Li1938 Li 0.33386 0.91214 0.57583 0.0
Li1939 Li 0.31457 0.87789 0.58301 0.0
C1940 C 0.36615 0.9392 0.59658 0.0
N1941 N 0.38741 0.979 0.58729 0.0
C1942 C 0.38222 0.94667 0.58108 0.0
C1943 C 0.36099 0.95195 0.60756 0.0
C1944 C 0.39276 0.96685 0.57657 0.0
C1945 C 0.3719 0.97204 0.60258 0.0
C1946 C 0.32844 0.85799 0.61228 0.0
C1947 C 0.32828 0.82993 0.59463 0.0
N1948 N 0.32576 0.82173 0.61666 0.0
C1949 C 0.32585 0.84931 0.63474 0.0
C1950 C 0.32971 0.84828 0.59206 0.0
C1951 C 0.32454 0.83096 0.63659 0.0
C1952 C 0.31206 0.89813 0.66165 0.0
N1953 N 0.32947 0.90599 0.6498 0.0
C1954 C 0.3474 0.91754 0.68621 0.0
C1955 C 0.34693 0.91584 0.66142 0.0
C1956 C 0.32971 0.90887 0.69907 0.0
C1957 C 0.31185 0.89952 0.68653 0.0
H1958 H 0.29842 0.89018 0.65186 0.0
H1959 H 0.36051 0.92178 0.65146 0.0
C1960 C 0.38339 0.89586 0.56392 0.0
N1961 N 0.37319 0.89185 0.58473 0.0
C1962 C 0.40094 0.89543 0.56297 0.0
C1963 C 0.39704 0.88675 0.60484 0.0
C1964 C 0.37957 0.88727 0.60496 0.0
C1965 C 0.40807 0.89111 0.58373 0.0
H1966 H 0.3781 0.8998 0.54823 0.0
H1967 H 0.37123 0.88436 0.6213 0.0
C1968 C 0.29504 0.90216 0.58839 0.0
N1969 N 0.26531 0.90901 0.57424 0.0
C1970 C 0.28484 0.89403 0.56716 0.0
C1971 C 0.28989 0.91348 0.60265 0.0
C1972 C 0.26992 0.89774 0.56025 0.0
C1973 C 0.27488 0.91687 0.59512 0.0
C1974 C 0.33025 0.88423 0.53539 0.0
C1975 C 0.31855 0.88914 0.5215 0.0
C1976 C 0.33735 0.87262 0.52558 0.0
C1977 C 0.31381 0.882 0.49817 0.0
C1978 C 0.33227 0.86574 0.5022 0.0
N1979 N 0.32068 0.87052 0.48909 0.0
C1980 C 0.34971 0.93731 0.53722 0.0
C1981 C 0.33 0.94528 0.56157 0.0
C1982 C 0.3548 0.95358 0.52278 0.0
N1983 N 0.33759 0.93352 0.55622 0.0
C1984 C 0.33459 0.96168 0.54744 0.0
C1985 C 0.34736 0.96611 0.52795 0.0
H1986 H 0.35591 0.92799 0.53373 0.0
H1987 H 0.32089 0.94234 0.57715 0.0
C1988 C 0.27616 0.84931 0.59126 0.0
N1989 N 0.29122 0.85395 0.57587 0.0
C1990 C 0.25821 0.83211 0.58815 0.0
C1991 C 0.27157 0.82462 0.55345 0.0
C1992 C 0.28931 0.84202 0.55723 0.0
C1993 C 0.25579 0.81949 0.5691 0.0
H1994 H 0.27817 0.85899 0.60605 0.0
H1995 H 0.30152 0.84582 0.54541 0.0
O1996 O 0.35521 0.91943 0.60053 0.0
O1997 O 0.32991 0.87601 0.61021 0.0
O1998 O 0.30962 0.89865 0.59562 0.0
O1999 O 0.3353 0.89125 0.55819 0.0
H2000 H 0.38632 0.93693 0.57238 0.0
H2001 H 0.34851 0.94633 0.61952 0.0
H2002 H 0.40514 0.97284 0.56447 0.0
H2003 H 0.36799 0.98208 0.61077 0.0
H2004 H 0.3292 0.82223 0.57911 0.0
H2005 H 0.32491 0.85672 0.65058 0.0
H2006 H 0.33178 0.85486 0.5746 0.0
H2007 H 0.32256 0.82406 0.65386 0.0
H2008 H 0.36144 0.92507 0.6953 0.0
H2009 H 0.29794 0.89262 0.69593 0.0
H2010 H 0.40913 0.89897 0.54641 0.0
H2011 H 0.40197 0.8831 0.62112 0.0
H2012 H 0.28824 0.88478 0.55626 0.0
H2013 H 0.29753 0.91971 0.61927 0.0
H2014 H 0.26195 0.89159 0.54382 0.0
H2015 H 0.27084 0.92572 0.60589 0.0
H2016 H 0.3134 0.89858 0.52849 0.0
H2017 H 0.3466 0.86883 0.53595 0.0
H2018 H 0.30475 0.88566 0.48724 0.0
H2019 H 0.33755 0.85663 0.49445 0.0
H2020 H 0.36494 0.95665 0.50815 0.0
H2021 H 0.3284 0.97088 0.55189 0.0
H2022 H 0.24643 0.82854 0.60074 0.0
H2023 H 0.27018 0.81532 0.53843 0.0
Li2024 Li 0.42986 0.3295 0.11467 0.0
Li2025 Li 0.45707 0.34844 0.08431 0.0
Li2026 Li 0.42254 0.33387 0.0738 0.0
Li2027 Li 0.43569 0.31282 0.07983 0.0
C2028 C 0.4297 0.36647 0.09497 0.0
N2029 N 0.41258 0.38913 0.08599 0.0
C2030 C 0.43831 0.38198 0.07867 0.0
C2031 C 0.41249 0.36258 0.10688 0.0
C2032 C 0.4294 0.39324 0.07433 0.0
C2033 C 0.40404 0.37419 0.10205 0.0
C2034 C 0.46937 0.32597 0.113 0.0
C2035 C 0.49653 0.32138 0.10238 0.0
N2036 N 0.50215 0.32372 0.12568 0.0
C2037 C 0.47531 0.3282 0.13685 0.0
C2038 C 0.47998 0.32244 0.09562 0.0
C2039 C 0.49196 0.32707 0.1429 0.0
C2040 C 0.41602 0.30996 0.15862 0.0
N2041 N 0.42415 0.32769 0.14751 0.0
C2042 C 0.42778 0.34409 0.1846 0.0
C2043 C 0.42988 0.34458 0.15985 0.0
C2044 C 0.41981 0.32606 0.1967 0.0
C2045 C 0.41368 0.30879 0.1834 0.0
H2046 H 0.41192 0.29683 0.14828 0.0
H2047 H 0.43654 0.35847 0.1505 0.0
C2048 C 0.48832 0.38053 0.06059 0.0
N2049 N 0.48276 0.37016 0.08132 0.0
C2050 C 0.50687 0.3973 0.05868 0.0
C2051 C 0.51356 0.39223 0.09941 0.0
C2052 C 0.49487 0.37569 0.10058 0.0
C2053 C 0.51973 0.40334 0.0783 0.0
H2054 H 0.47818 0.376 0.04574 0.0
H2055 H 0.48988 0.36747 0.11703 0.0
C2056 C 0.393 0.29551 0.08337 0.0
N2057 N 0.35743 0.26807 0.06391 0.0
C2058 C 0.39216 0.28883 0.06006 0.0
C2059 C 0.37579 0.2882 0.09685 0.0
C2060 C 0.37403 0.27495 0.05052 0.0
C2061 C 0.35793 0.27434 0.08667 0.0
C2062 C 0.44924 0.32988 0.0339 0.0
C2063 C 0.43566 0.32199 0.01521 0.0
C2064 C 0.46858 0.33417 0.03024 0.0
C2065 C 0.44158 0.31816 0.99331 0.0
C2066 C 0.47393 0.33012 0.00809 0.0
N2067 N 0.46043 0.32225 0.99025 0.0
C2068 C 0.41344 0.34965 0.03486 0.0
C2069 C 0.38668 0.33287 0.06157 0.0
C2070 C 0.40254 0.35538 0.02085 0.0
N2071 N 0.40543 0.3387 0.05481 0.0
C2072 C 0.37523 0.33831 0.04805 0.0
C2073 C 0.3833 0.34993 0.0276 0.0
H2074 H 0.42854 0.35448 0.03028 0.0
H2075 H 0.38083 0.32455 0.07782 0.0
C2076 C 0.43455 0.27878 0.09287 0.0
N2077 N 0.43533 0.28898 0.07295 0.0
C2078 C 0.43476 0.26123 0.09103 0.0
C2079 C 0.43613 0.26467 0.04807 0.0
C2080 C 0.43594 0.28225 0.05076 0.0
C2081 C 0.43562 0.25402 0.06842 0.0
H2082 H 0.4339 0.28442 0.11026 0.0
H2083 H 0.43633 0.29041 0.03514 0.0
O2084 O 0.43777 0.35482 0.09877 0.0
O2085 O 0.45318 0.32718 0.10681 0.0
O2086 O 0.41052 0.30931 0.09296 0.0
O2087 O 0.44375 0.33393 0.05537 0.0
H2088 H 0.45158 0.38509 0.06923 0.0
H2089 H 0.40559 0.35053 0.11942 0.0
H2090 H 0.4358 0.40519 0.06162 0.0
H2091 H 0.39064 0.37126 0.11098 0.0
H2092 H 0.50489 0.31866 0.08911 0.0
H2093 H 0.46718 0.33089 0.15052 0.0
H2094 H 0.47539 0.32039 0.07716 0.0
H2095 H 0.4968 0.32885 0.16128 0.0
H2096 H 0.43266 0.35771 0.19424 0.0
H2097 H 0.40787 0.29467 0.19212 0.0
H2098 H 0.51084 0.40575 0.04231 0.0
H2099 H 0.52302 0.39642 0.11494 0.0
H2100 H 0.40535 0.29436 0.04944 0.0
H2101 H 0.37624 0.29329 0.11493 0.0
H2102 H 0.37314 0.26968 0.03247 0.0
H2103 H 0.34448 0.2686 0.09685 0.0
H2104 H 0.42067 0.31874 0.01761 0.0
H2105 H 0.4794 0.34068 0.0443 0.0
H2106 H 0.4312 0.31194 0.97876 0.0
H2107 H 0.48883 0.3333 0.00505 0.0
H2108 H 0.40935 0.36458 0.00538 0.0
H2109 H 0.36038 0.33376 0.05371 0.0
H2110 H 0.43417 0.25331 0.10713 0.0
H2111 H 0.43697 0.25963 0.03035 0.0
C2112 C 0.44051 0.1073 0.26293 0.0
C2113 C 0.42324 0.09749 0.2766 0.0
C2114 C 0.43994 0.10601 0.23801 0.0
C2115 C 0.42208 0.09485 0.22577 0.0
H2116 H 0.4546 0.11615 0.27157 0.0
H2117 H 0.45361 0.11398 0.22822 0.0
S2118 S 0.3728 0.06572 0.25332 0.0
N2119 N 0.38781 0.07588 0.27619 0.0
N2120 N 0.38674 0.07341 0.22919 0.0
C2121 C 0.40467 0.08499 0.2392 0.0
C2122 C 0.40525 0.08633 0.26464 0.0
C2123 C 0.32265 0.41008 0.73696 0.0
C2124 C 0.32821 0.42712 0.72336 0.0
C2125 C 0.32333 0.41082 0.762 0.0
C2126 C 0.32963 0.42863 0.77423 0.0
H2127 H 0.31809 0.39617 0.72817 0.0
H2128 H 0.31925 0.39746 0.77185 0.0
S2129 S 0.34341 0.47683 0.74697 0.0
N2130 N 0.33858 0.46192 0.72402 0.0
N2131 N 0.33997 0.46331 0.77099 0.0
C2132 C 0.33466 0.44562 0.76085 0.0
C2133 C 0.33392 0.44487 0.73544 0.0
C2134 C 0.9103 0.34335 0.23828 0.0
C2135 C 0.90447 0.32614 0.22492 0.0
C2136 C 0.91037 0.34305 0.26326 0.0
C2137 C 0.90464 0.32553 0.2759 0.0
H2138 H 0.91467 0.35716 0.22935 0.0
H2139 H 0.91443 0.35657 0.27273 0.0
S2140 S 0.88898 0.2766 0.24937 0.0
N2141 N 0.89314 0.29113 0.22617 0.0
N2142 N 0.89398 0.29072 0.27317 0.0
C2143 C 0.89931 0.30831 0.26277 0.0
C2144 C 0.89911 0.30859 0.23729 0.0
C2145 C 0.58295 0.89518 0.73624 0.0
C2146 C 0.57812 0.90714 0.72249 0.0
C2147 C 0.58277 0.89578 0.76125 0.0
C2148 C 0.57771 0.90834 0.77328 0.0
H2149 H 0.58617 0.88476 0.72764 0.0
H2150 H 0.58586 0.88582 0.77122 0.0
S2151 S 0.56656 0.94448 0.74555 0.0
N2152 N 0.57011 0.93331 0.72272 0.0
N2153 N 0.5696 0.93428 0.76975 0.0
C2154 C 0.57374 0.921 0.75976 0.0
C2155 C 0.57399 0.92044 0.73435 0.0
C2156 C 0.67307 0.5883 0.26153 0.0
C2157 C 0.66461 0.57026 0.27377 0.0
C2158 C 0.67308 0.58894 0.2365 0.0
C2159 C 0.66461 0.57156 0.22291 0.0
H2160 H 0.67955 0.602 0.27138 0.0
H2161 H 0.67962 0.6031 0.22771 0.0
S2162 S 0.64237 0.52072 0.24636 0.0
N2163 N 0.64875 0.53471 0.27042 0.0
N2164 N 0.64874 0.53591 0.22346 0.0
C2165 C 0.65642 0.55347 0.23494 0.0
C2166 C 0.65643 0.55282 0.26035 0.0
C2167 C 0.09051 0.65042 0.73763 0.0
C2168 C 0.08949 0.665 0.72423 0.0
C2169 C 0.08986 0.65045 0.76259 0.0
C2170 C 0.0883 0.66515 0.77509 0.0
H2171 H 0.09208 0.63903 0.72874 0.0
H2172 H 0.09121 0.63922 0.7722 0.0
S2173 S 0.08435 0.70618 0.74826 0.0
N2174 N 0.08634 0.69423 0.72515 0.0
N2175 N 0.08486 0.69416 0.77218 0.0
C2176 C 0.08678 0.67955 0.76189 0.0
C2177 C 0.08738 0.67947 0.73643 0.0
C2178 C 0.91083 0.58786 0.2353 0.0
C2179 C 0.90373 0.56983 0.22329 0.0
C2180 C 0.91108 0.58874 0.26032 0.0
C2181 C 0.90429 0.57161 0.27416 0.0
H2182 H 0.91634 0.60139 0.22528 0.0
H2183 H 0.91675 0.60291 0.26891 0.0
S2184 S 0.88255 0.52062 0.25135 0.0
N2185 N 0.88863 0.53437 0.22711 0.0
N2186 N 0.88916 0.53603 0.27407 0.0
C2187 C 0.89691 0.55349 0.26236 0.0
C2188 C 0.89663 0.55259 0.23695 0.0
C2189 C 0.31944 0.91459 0.76403 0.0
C2190 C 0.33028 0.90755 0.77641 0.0
C2191 C 0.31927 0.91499 0.73897 0.0
C2192 C 0.32999 0.90845 0.7255 0.0
H2193 H 0.31118 0.91998 0.77377 0.0
H2194 H 0.31086 0.92064 0.73008 0.0
S2195 S 0.35902 0.88677 0.7492 0.0
N2196 N 0.35078 0.89255 0.77319 0.0
N2197 N 0.35062 0.89354 0.72622 0.0
C2198 C 0.34058 0.90107 0.73764 0.0
C2199 C 0.34069 0.90057 0.76306 0.0
C2200 C 0.43623 0.33868 0.26108 0.0
C2201 C 0.41954 0.32536 0.27411 0.0
C2202 C 0.43611 0.33877 0.23611 0.0
C2203 C 0.41926 0.32559 0.22318 0.0
H2204 H 0.44961 0.34896 0.27029 0.0
H2205 H 0.44942 0.3491 0.22685 0.0
S2206 S 0.37137 0.28855 0.24889 0.0
N2207 N 0.3855 0.2991 0.27236 0.0
N2208 N 0.38519 0.29934 0.22527 0.0
C2209 C 0.4024 0.31227 0.23597 0.0
C2210 C 0.40256 0.31214 0.26147 0.0
C2211 C 0.07903 0.41913 0.73394 0.0
C2212 C 0.09544 0.42111 0.72141 0.0
C2213 C 0.07832 0.41824 0.75893 0.0
C2214 C 0.09398 0.4193 0.77227 0.0
H2215 H 0.06672 0.41842 0.72434 0.0
H2216 H 0.06548 0.41689 0.7679 0.0
S2217 S 0.14067 0.42547 0.74804 0.0
N2218 N 0.12791 0.42461 0.72419 0.0
N2219 N 0.12658 0.42296 0.77117 0.0
C2220 C 0.1104 0.4211 0.75995 0.0
C2221 C 0.11112 0.422 0.73452 0.0
C2222 C 0.67087 0.08495 0.26327 0.0
C2223 C 0.67154 0.10064 0.27609 0.0
C2224 C 0.67 0.08449 0.23824 0.0
C2225 C 0.66985 0.09976 0.22528 0.0
H2226 H 0.67055 0.07274 0.27266 0.0
H2227 H 0.66899 0.0719 0.22902 0.0
S2228 S 0.67388 0.14528 0.25061 0.0
N2229 N 0.67355 0.13247 0.27414 0.0
N2230 N 0.67225 0.13183 0.22714 0.0
C2231 C 0.67125 0.11586 0.23796 0.0
C2232 C 0.67201 0.11625 0.26336 0.0
C2233 C 0.58038 0.68573 0.7336 0.0
C2234 C 0.57909 0.66986 0.72051 0.0
C2235 C 0.58096 0.68584 0.7586 0.0
C2236 C 0.58036 0.67012 0.77138 0.0
H2237 H 0.58019 0.69779 0.72448 0.0
H2238 H 0.58114 0.69798 0.76799 0.0
S2239 S 0.5796 0.62637 0.7452 0.0
N2240 N 0.57891 0.63889 0.7219 0.0
N2241 N 0.58034 0.6392 0.76893 0.0
C2242 C 0.57998 0.65461 0.75841 0.0
C2243 C 0.57927 0.65445 0.73297 0.0
C2244 C 0.44944 0.21515 0.08076 0.0
C2245 C 0.43601 0.19922 0.06675 0.0
C2246 C 0.44957 0.233 0.0806 0.0
C2247 C 0.43625 0.23556 0.06645 0.0
H2248 H 0.45975 0.21369 0.09223 0.0
H2249 H 0.46001 0.24482 0.0919 0.0
S2250 S 0.39812 0.19837 0.02656 0.0
N2251 N 0.40919 0.18712 0.03817 0.0
N2252 N 0.40936 0.22077 0.03791 0.0
C2253 C 0.42306 0.21993 0.05186 0.0
C2254 C 0.42296 0.20172 0.052 0.0
C2255 C 0.21507 0.44621 0.58129 0.0
C2256 C 0.20177 0.43842 0.56218 0.0
C2257 C 0.23306 0.44661 0.58064 0.0
C2258 C 0.23821 0.43897 0.56101 0.0
H2259 H 0.21148 0.45195 0.5969 0.0
H2260 H 0.24279 0.45247 0.59589 0.0
S2261 S 0.20862 0.41733 0.50631 0.0
N2262 N 0.19502 0.42335 0.52289 0.0
N2263 N 0.22885 0.42381 0.52181 0.0
C2264 C 0.22513 0.43132 0.54167 0.0
C2265 C 0.2069 0.43117 0.5422 0.0
C2266 C 0.79637 0.2159 0.06523 0.0
C2267 C 0.79769 0.23441 0.06529 0.0
C2268 C 0.7781 0.19861 0.06548 0.0
C2269 C 0.76052 0.19922 0.06589 0.0
H2270 H 0.80958 0.2148 0.06538 0.0
H2271 H 0.77773 0.18464 0.06578 0.0
S2272 S 0.75608 0.24404 0.06667 0.0
N2273 N 0.77998 0.25241 0.06584 0.0
N2274 N 0.74555 0.21984 0.06643 0.0
C2275 C 0.76162 0.21763 0.06543 0.0
C2276 C 0.78025 0.23526 0.06511 0.0
C2277 C 0.56283 0.77383 0.54716 0.0
C2278 C 0.55566 0.7618 0.56749 0.0
C2279 C 0.56285 0.79168 0.54592 0.0
C2280 C 0.55532 0.79777 0.56478 0.0
H2281 H 0.56888 0.76964 0.53241 0.0
H2282 H 0.56881 0.80079 0.53019 0.0
S2283 S 0.53439 0.77119 0.62155 0.0
N2284 N 0.54051 0.75693 0.60658 0.0
N2285 N 0.54045 0.79039 0.60423 0.0
C2286 C 0.54779 0.78566 0.58497 0.0
C2287 C 0.54798 0.76768 0.58634 0.0
C2288 C 0.76434 0.5461 0.06643 0.0
C2289 C 0.76418 0.5638 0.06894 0.0
C2290 C 0.78207 0.54592 0.06597 0.0
C2291 C 0.80024 0.56346 0.06787 0.0
H2292 H 0.75066 0.53223 0.06557 0.0
H2293 H 0.78151 0.53188 0.06488 0.0
S2294 S 0.80764 0.61385 0.07194 0.0
N2295 N 0.78354 0.59937 0.07159 0.0
N2296 N 0.81695 0.59913 0.07029 0.0
C2297 C 0.80024 0.58132 0.06946 0.0
C2298 C 0.78219 0.58147 0.0701 0.0
C2299 C 0.21912 0.80113 0.56697 0.0
C2300 C 0.2369 0.80092 0.56611 0.0
C2301 C 0.20101 0.78364 0.56648 0.0
C2302 C 0.19999 0.76527 0.5652 0.0
H2303 H 0.21923 0.81494 0.5684 0.0
H2304 H 0.18769 0.78449 0.56756 0.0
S2305 S 0.24232 0.75673 0.5628 0.0
N2306 N 0.25242 0.78087 0.56377 0.0
N2307 N 0.21835 0.74793 0.56308 0.0
C2308 C 0.21766 0.76487 0.56375 0.0
C2309 C 0.23612 0.78271 0.56416 0.0
C2310 C 0.79619 0.58114 0.42801 0.0
C2311 C 0.79683 0.5638 0.43175 0.0
C2312 C 0.77834 0.58107 0.42865 0.0
C2313 C 0.7605 0.56361 0.43285 0.0
H2314 H 0.80956 0.59482 0.4243 0.0
H2315 H 0.77847 0.59473 0.42547 0.0
S2316 S 0.75435 0.51417 0.44291 0.0
N2317 N 0.77828 0.52874 0.43966 0.0
N2318 N 0.7446 0.52846 0.44041 0.0
C2319 C 0.76101 0.5462 0.43695 0.0
C2320 C 0.77922 0.54633 0.43648 0.0
C2321 C 0.21652 0.76168 0.93278 0.0
C2322 C 0.19832 0.76097 0.93108 0.0
C2323 C 0.23418 0.77968 0.93287 0.0
C2324 C 0.23418 0.79753 0.93117 0.0
H2325 H 0.21716 0.74822 0.93315 0.0
H2326 H 0.24793 0.77962 0.93336 0.0
S2327 S 0.19045 0.80374 0.9296 0.0
N2328 N 0.18134 0.77971 0.93011 0.0
N2329 N 0.21457 0.81354 0.92997 0.0
C2330 C 0.21609 0.79706 0.93053 0.0
C2331 C 0.19814 0.77877 0.93056 0.0
C2332 C 0.42158 0.20347 0.44468 0.0
C2333 C 0.43954 0.20384 0.44758 0.0
C2334 C 0.42087 0.22094 0.444 0.0
C2335 C 0.4381 0.23931 0.44622 0.0
H2336 H 0.40817 0.18969 0.44149 0.0
H2337 H 0.40694 0.22011 0.4403 0.0
S2338 S 0.48817 0.24791 0.45847 0.0
N2339 N 0.47448 0.22382 0.45576 0.0
N2340 N 0.47314 0.25668 0.45463 0.0
C2341 C 0.45588 0.23976 0.45093 0.0
C2342 C 0.45661 0.22201 0.45157 0.0
C2343 C 0.22547 0.43382 0.9471 0.0
C2344 C 0.23734 0.43956 0.92656 0.0
C2345 C 0.20714 0.43283 0.94697 0.0
C2346 C 0.20021 0.43757 0.9263 0.0
H2347 H 0.23013 0.42953 0.96309 0.0
H2348 H 0.19809 0.42778 0.96286 0.0
S2349 S 0.22708 0.45616 0.86917 0.0
N2350 N 0.24184 0.45189 0.88593 0.0
N2351 N 0.20747 0.45012 0.88569 0.0
C2352 C 0.21238 0.4442 0.90606 0.0
C2353 C 0.23095 0.44517 0.90619 0.0
C2354 C 0.77229 0.20713 0.4539 0.0
C2355 C 0.75841 0.2014 0.43538 0.0
C2356 C 0.79017 0.22491 0.45264 0.0
C2357 C 0.79482 0.23722 0.4326 0.0
H2358 H 0.76929 0.19778 0.46938 0.0
H2359 H 0.80063 0.22883 0.46711 0.0
S2360 S 0.76345 0.22881 0.37948 0.0
N2361 N 0.75044 0.20941 0.39656 0.0
N2362 N 0.78408 0.24274 0.39416 0.0
C2363 C 0.78101 0.2317 0.4141 0.0
C2364 C 0.76278 0.21379 0.41549 0.0
C2365 C 0.58114 0.78297 0.91451 0.0
C2366 C 0.56889 0.76732 0.92963 0.0
C2367 C 0.58069 0.80053 0.91474 0.0
C2368 C 0.56791 0.80303 0.93002 0.0
H2369 H 0.59089 0.78149 0.90208 0.0
H2370 H 0.59016 0.81211 0.90252 0.0
S2371 S 0.53301 0.76649 0.97322 0.0
N2372 N 0.54392 0.75545 0.9606 0.0
N2373 N 0.54292 0.78851 0.96092 0.0
C2374 C 0.55601 0.78771 0.94577 0.0
C2375 C 0.55653 0.76982 0.94559 0.0
C2376 C 0.35796 0.97966 0.01525 0.0
C2377 C 0.34937 0.97844 0.99283 0.0
C2378 C 0.36511 0.99661 0.02924 0.0
C2379 C 0.36403 0.01301 0.02124 0.0
H2380 H 0.35971 0.96762 0.02169 0.0
H2381 H 0.37244 0.99724 0.04588 0.0
S2382 S 0.3414 0.01664 0.96481 0.0
N2383 N 0.33908 0.99456 0.96389 0.0
N2384 N 0.3524 0.02646 0.99039 0.0
C2385 C 0.35462 0.01163 -0.0006 0.0
C2386 C 0.34726 0.99431 0.98517 0.0
C2387 C 0.36724 0.34874 0.50609 0.0
C2388 C 0.36027 0.34404 0.4825 0.0
C2389 C 0.36045 0.35808 0.52147 0.0
C2390 C 0.34635 0.36294 0.51391 0.0
H2391 H 0.37888 0.34627 0.51228 0.0
H2392 H 0.36685 0.36224 0.53914 0.0
S2393 S 0.32177 0.35176 0.45485 0.0
N2394 N 0.33715 0.34323 0.45305 0.0
N2395 N 0.32451 0.36104 0.48198 0.0
C2396 C 0.33833 0.35721 0.49092 0.0
C2397 C 0.3453 0.34774 0.47519 0.0
C2398 C 0.99489 0.36062 0.97515 0.0
C2399 C 0.01372 0.36522 0.98296 0.0
C2400 C 0.97869 0.35161 0.99045 0.0
C2401 C 0.98079 0.34707 0.01415 0.0
H2402 H 0.99282 0.36465 0.95734 0.0
H2403 H 0.96463 0.34919 0.98406 0.0
S2404 S 0.02664 0.35453 0.04257 0.0
N2405 N 0.03337 0.36341 0.01531 0.0
N2406 N 0.00278 0.34634 0.04413 0.0
C2407 C -0.00066 0.35066 0.02179 0.0
C2408 C 0.01584 0.35973 0.00614 0.0
C2409 C 0.65368 0.01715 0.50558 0.0
C2410 C 0.65024 0.01492 0.48085 0.0
C2411 C 0.64567 0.00076 0.5207 0.0
C2412 C 0.63408 0.98164 0.51157 0.0
H2413 H 0.66151 0.03167 0.51346 0.0
H2414 H 0.64775 0.00313 0.53979 0.0
S2415 S 0.62301 0.96798 0.44773 0.0
N2416 N 0.63639 0.9922 0.44759 0.0
N2417 N 0.62107 0.96136 0.47602 0.0
C2418 C 0.63179 0.97917 0.4867 0.0
C2419 C 0.63992 0.99585 0.47133 0.0
C2420 C 0.63774 0.61889 0.98476 0.0
C2421 C 0.64577 0.6259 0.0075 0.0
C2422 C 0.63069 0.62877 0.97075 0.0
C2423 C 0.63131 0.64596 0.97905 0.0
H2424 H 0.63645 0.60537 0.978 0.0
H2425 H 0.62389 0.62239 0.95376 0.0
S2426 S 0.65219 0.67113 0.03659 0.0
N2427 N 0.65488 0.65159 0.03721 0.0
N2428 N 0.64176 0.67033 0.01069 0.0
C2429 C 0.64005 0.65359 0.00132 0.0
C2430 C 0.64731 0.64355 0.01557 0.0
C2431 C 0.01457 0.64598 0.49311 0.0
C2432 C 0.01328 0.64237 0.51782 0.0
C2433 C 0.99769 0.63742 0.47872 0.0
C2434 C 0.97906 0.625 0.48865 0.0
H2435 H 0.02879 0.65463 0.48468 0.0
H2436 H -0.00065 0.63972 0.4596 0.0
S2437 S 0.96758 0.6136 0.55284 0.0
N2438 N 0.99174 0.62754 0.55194 0.0
N2439 N 0.96003 0.61143 0.52491 0.0
C2440 C 0.97748 0.62234 0.51351 0.0
C2441 C 0.9946 0.63104 0.5281 0.0
C2442 C 0.62699 0.98103 0.00742 0.0
C2443 C 0.62943 0.98394 0.9826 0.0
C2444 C 0.6348 0.99699 0.02317 0.0
C2445 C 0.64543 0.0164 0.01468 0.0
H2446 H 0.61817 0.96636 0.01464 0.0
H2447 H 0.63199 0.99416 0.04211 0.0
S2448 S 0.6574 0.03173 0.9514 0.0
N2449 N 0.64449 0.0075 0.95035 0.0
N2450 N 0.65891 0.0376 0.97994 0.0
C2451 C 0.64882 0.01946 0.98999 0.0
C2452 C 0.64085 0.0032 0.97395 0.0
C2453 C 0.61558 0.61971 0.47235 0.0
C2454 C 0.6353 0.62483 0.47542 0.0
C2455 C 0.6072 0.62835 0.48631 0.0
C2456 C 0.61819 0.64225 0.50404 0.0
H2457 H 0.60645 0.60857 0.45945 0.0
H2458 H 0.59183 0.62371 0.48366 0.0
S2459 S 0.67066 0.66091 0.51852 0.0
N2460 N 0.66588 0.64506 0.49661 0.0
N2461 N 0.65003 0.66112 0.52338 0.0
C2462 C 0.63817 0.64803 0.50665 0.0
C2463 C 0.64675 0.63932 0.49222 0.0
C2464 C 0.0003 0.63086 0.02567 0.0
C2465 C 0.98189 0.6232 0.01448 0.0
C2466 C 0.01768 0.63956 0.01229 0.0
C2467 C 0.01727 0.64098 0.98729 0.0
H2468 H 0.00125 0.62939 0.04478 0.0
H2469 H 0.03154 0.64483 0.02153 0.0
S2470 S 0.97284 0.62431 0.94966 0.0
N2471 N 0.9643 0.61875 0.97719 0.0
N2472 N 0.99694 0.63458 0.95195 0.0
C2473 C -0.00101 0.63403 0.97598 0.0
C2474 C 0.98131 0.62524 0.98961 0.0
C2475 C 0.35445 0.98303 0.4884 0.0
C2476 C 0.35377 0.9841 0.51344 0.0
C2477 C 0.36291 5e-05 0.47439 0.0
C2478 C 0.37077 0.0187 0.48489 0.0
H2479 H 0.3489 0.96895 0.47962 0.0
H2480 H 0.36384 0.99866 0.45525 0.0
S2481 S 0.37238 0.02966 0.54942 0.0
N2482 N 0.36153 0.00546 0.54808 0.0
N2483 N 0.37699 0.03742 0.5215 0.0
C2484 C 0.36946 0.02001 0.50973 0.0
C2485 C 0.36104 0.0027 0.52408 0.0
C2486 C 0.37139 0.35584 0.98884 0.0
C2487 C 0.37233 0.35744 0.01387 0.0
C2488 C 0.36324 0.36492 0.97521 0.0
C2489 C 0.35588 0.37604 0.98614 0.0
H2490 H 0.37747 0.34793 0.9797 0.0
H2491 H 0.36349 0.36394 0.95593 0.0
S2492 S 0.35371 0.38363 0.05118 0.0
N2493 N 0.36448 0.37024 0.04913 0.0
N2494 N 0.34878 0.387 0.0235 0.0
C2495 C 0.35597 0.37705 0.01121 0.0
C2496 C 0.36426 0.36779 0.02508 0.0
C2497 C 0.01235 0.38867 0.49554 0.0
C2498 C 0.01579 0.37838 0.51372 0.0
C2499 C 0.99497 0.37975 0.48225 0.0
C2500 C 0.9805 0.36016 0.48646 0.0
H2501 H 0.02313 0.40382 0.49166 0.0
H2502 H 0.99277 0.38828 0.46865 0.0
S2503 S 0.98207 0.32672 0.53181 0.0
N2504 N 0.00307 0.34748 0.53528 0.0
N2505 N 0.97052 0.33059 0.50968 0.0
C2506 C 0.98383 0.3495 0.50408 0.0
C2507 C 0.00147 0.35863 0.51786 0.0
C2508 C 0.53677 0.09574 0.06492 0.0
C2509 C 0.53533 0.11203 0.07246 0.0
C2510 C 0.55487 0.09627 0.06505 0.0
C2511 C 0.57215 0.11315 0.0726 0.0
H2512 H 0.5237 0.08225 0.05973 0.0
H2513 H 0.5552 0.08312 0.06001 0.0
S2514 S 0.5765 0.16056 0.09087 0.0
N2515 N 0.55283 0.14603 0.08561 0.0
N2516 N 0.58693 0.14719 0.0855 0.0
C2517 C 0.57101 0.12984 0.07909 0.0
C2518 C 0.55257 0.12925 0.0791 0.0
C2519 C 0.44036 0.57149 0.58495 0.0
C2520 C 0.45785 0.57351 0.57546 0.0
C2521 C 0.42294 0.55328 0.58497 0.0
C2522 C 0.42237 0.53645 0.57543 0.0
H2523 H 0.44015 0.58407 0.59251 0.0
H2524 H 0.40982 0.55234 0.59256 0.0
S2525 S 0.46432 0.53363 0.54955 0.0
N2526 N 0.47366 0.55696 0.55699 0.0
N2527 N 0.44084 0.52277 0.55686 0.0
C2528 C 0.43969 0.53826 0.56575 0.0
C2529 C 0.45745 0.55678 0.5658 0.0
C2530 C 0.86806 0.42077 0.06639 0.0
C2531 C 0.88587 0.42092 0.07003 0.0
C2532 C 0.86745 0.4383 0.06582 0.0
C2533 C 0.88465 0.45657 0.0686 0.0
H2534 H 0.85447 0.40699 0.06408 0.0
H2535 H 0.85343 0.43756 0.06329 0.0
S2536 S 0.93479 0.46511 0.07993 0.0
N2537 N 0.92099 0.44101 0.07755 0.0
N2538 N 0.91982 0.4739 0.07579 0.0
C2539 C 0.90255 0.45699 0.07206 0.0
C2540 C 0.90317 0.43919 0.07292 0.0
C2541 C 0.43097 0.88087 0.56644 0.0
C2542 C 0.42717 0.89162 0.58358 0.0
C2543 C 0.44883 0.88088 0.56637 0.0
C2544 C 0.4635 0.89169 0.5834 0.0
H2545 H 0.41993 0.87213 0.55325 0.0
H2546 H 0.45104 0.87211 0.55314 0.0
S2547 S 0.46152 0.92395 0.63037 0.0
N2548 N 0.43998 0.91442 0.61692 0.0
N2549 N 0.47359 0.91458 0.61669 0.0
C2550 C 0.46004 0.9029 0.60023 0.0
C2551 C 0.44187 0.90283 0.60034 0.0
C2552 C 0.56273 0.45282 0.0961 0.0
C2553 C 0.57568 0.45767 0.0767 0.0
C2554 C 0.54473 0.43523 0.09641 0.0
C2555 C 0.53905 0.42175 0.07741 0.0
H2556 H 0.56639 0.46288 0.11097 0.0
H2557 H 0.53505 0.43231 0.11153 0.0
S2558 S 0.56846 0.42699 0.02324 0.0
N2559 N 0.58209 0.44739 0.03847 0.0
N2560 N 0.54832 0.41405 0.03919 0.0
C2561 C 0.55202 0.42631 0.05804 0.0
C2562 C 0.57033 0.44433 0.05766 0.0
C2563 C 0.13318 0.55912 0.57012 0.0
C2564 C 0.11577 0.54101 0.57306 0.0
C2565 C 0.13295 0.57685 0.57025 0.0
C2566 C 0.11531 0.5771 0.57345 0.0
H2567 H 0.14707 0.55956 0.56763 0.0
H2568 H 0.14668 0.59047 0.56781 0.0
S2569 S 0.06599 0.53369 0.58385 0.0
N2570 N 0.0806 0.52442 0.58033 0.0
N2571 N 0.08015 0.5577 0.5809 0.0
C2572 C 0.09783 0.55907 0.57662 0.0
C2573 C 0.09806 0.54105 0.57635 0.0
C2574 C 0.88925 0.45408 0.40261 0.0
C2575 C 0.8796 0.45838 0.42073 0.0
C2576 C 0.88942 0.43637 0.40253 0.0
C2577 C 0.8799 0.42223 0.42052 0.0
H2578 H 0.897 0.46463 0.38856 0.0
H2579 H 0.89733 0.43384 0.38841 0.0
S2580 S 0.85143 0.42588 0.47113 0.0
N2581 N 0.85964 0.44684 0.45663 0.0
N2582 N 0.85981 0.41337 0.45639 0.0
C2583 C 0.87001 0.42626 0.43864 0.0
C2584 C 0.8699 0.44437 0.43876 0.0
C2585 C 0.44167 0.8675 0.9214 0.0
C2586 C 0.45955 0.88482 0.92587 0.0
C2587 C 0.42379 0.86739 0.92196 0.0
C2588 C 0.42316 0.88462 0.92692 0.0
H2589 H 0.44154 0.85396 0.91727 0.0
H2590 H 0.41036 0.85375 0.91831 0.0
S2591 S 0.46603 0.93403 0.93859 0.0
N2592 N 0.47564 0.91973 0.93481 0.0
N2593 N 0.44206 0.9196 0.93564 0.0
C2594 C 0.44095 0.90202 0.93155 0.0
C2595 C 0.45913 0.9021 0.93107 0.0
C2596 C 0.53451 0.44181 0.42217 0.0
C2597 C 0.5331 0.4235 0.42628 0.0
C2598 C 0.55267 0.45924 0.42296 0.0
C2599 C 0.57012 0.45898 0.42766 0.0
H2600 H 0.52146 0.44265 0.41817 0.0
H2601 H 0.55312 0.47299 0.41922 0.0
S2602 S 0.57434 0.41491 0.44025 0.0
N2603 N 0.55064 0.40614 0.43563 0.0
N2604 N 0.58482 0.43899 0.43727 0.0
C2605 C 0.5689 0.44081 0.43219 0.0
C2606 C 0.55037 0.42305 0.43153 0.0
C2607 C 0.10925 0.5426 0.90076 0.0
C2608 C 0.11487 0.53605 0.92099 0.0
C2609 C 0.1093 0.56043 0.90102 0.0
C2610 C 0.11515 0.57248 0.92146 0.0
H2611 H 0.1044 0.53368 0.88474 0.0
H2612 H 0.1044 0.56464 0.88517 0.0
S2613 S 0.13263 0.56249 0.97847 0.0
N2614 N 0.12715 0.54314 0.96166 0.0
N2615 N 0.12773 0.57699 0.96207 0.0
C2616 C 0.12114 0.56622 0.94171 0.0
C2617 C 0.12089 0.54793 0.94148 0.0
C2618 C 0.57066 0.12461 0.43407 0.0
C2619 C 0.5727 0.11083 0.42016 0.0
C2620 C 0.55306 0.1251 0.43403 0.0
C2621 C 0.53692 0.11179 0.42016 0.0
H2622 H 0.5829 0.13536 0.44459 0.0
H2623 H 0.55223 0.13626 0.4445 0.0
S2624 S 0.5341 0.07131 0.38308 0.0
N2625 N 0.55672 0.0826 0.39374 0.0
N2626 N 0.52357 0.08334 0.39387 0.0
C2627 C 0.53859 0.0975 0.40687 0.0
C2628 C 0.5565 0.09707 0.40683 0.0
C2629 C 0.44645 0.57813 0.91803 0.0
C2630 C 0.46396 0.57821 0.9235 0.0
C2631 C 0.42827 0.56066 0.91856 0.0
C2632 C 0.42692 0.54266 0.92471 0.0
H2633 H 0.44686 0.59156 0.91261 0.0
H2634 H 0.41518 0.56122 0.91387 0.0
S2635 S 0.46837 0.53517 0.94169 0.0
N2636 N 0.47872 0.55898 0.93653 0.0
N2637 N 0.44467 0.52607 0.93678 0.0
C2638 C 0.44428 0.54264 0.93079 0.0
C2639 C 0.46276 0.56041 0.93033 0.0
loop_
_geom_bond_atom_site_label_1
_geom_bond_atom_site_label_2
_geom_bond_distance
_geom_bond_site_symmetry_2
_ccdc_geom_bond_type
Li0 N17 1.990 . S
Li0 O60 1.956 . S
Li0 O61 1.970 . S
Li0 O62 1.961 . S
Li1 N25 1.990 . S
Li1 O60 1.970 . S
Li1 O61 1.956 . S
Li1 O63 1.961 . S
Li2 N47 1.990 . S
Li2 O60 1.961 . S
Li2 O62 1.956 . S
Li2 O63 1.970 . S
Li3 N53 1.990 . S
Li3 O61 1.961 . S
Li3 O62 1.970 . S
Li3 O63 1.956 . S
C4 C6 1.348 . S
C4 C7 1.356 . S
C4 O60 1.325 . S
N5 C8 1.314 . S
N5 C9 1.279 . S
C6 C4 1.348 . S
C6 C8 1.353 . S
C6 H64 0.929 . S
C7 C4 1.356 . S
C7 C9 1.358 . S
C7 H65 0.930 . S
C8 N5 1.314 . S
C8 C6 1.353 . S
C8 H66 0.930 . S
C9 N5 1.279 . S
C9 C7 1.358 . S
C9 H67 0.930 . S
C10 C13 1.348 . S
C10 C14 1.356 . S
C10 O61 1.325 . S
C11 N12 1.279 . S
C11 C14 1.358 . S
C11 H68 0.930 . S
N12 C11 1.279 . S
N12 C15 1.314 . S
C13 C10 1.348 . S
C13 C15 1.353 . S
C13 H69 0.929 . S
C14 C10 1.356 . S
C14 C11 1.358 . S
C14 H70 0.930 . S
C15 N12 1.314 . S
C15 C13 1.353 . S
C15 H71 0.930 . S
C16 N17 1.314 . S
C16 C21 1.353 . S
C16 H22 0.930 . S
N17 Li0 1.990 . S
N17 C16 1.314 . S
N17 C19 1.279 . S
C18 C19 1.358 . S
C18 C20 1.356 . S
C18 H72 0.930 . S
C19 N17 1.279 . S
C19 C18 1.358 . S
C19 H23 0.930 . S
C20 C18 1.356 . S
C20 C21 1.348 . S
C21 C16 1.353 . S
C21 C20 1.348 . S
C21 H73 0.929 . S
H22 C16 0.930 . S
H23 C19 0.930 . S
C24 N25 1.314 . S
C24 C26 1.353 . S
C24 H30 0.930 . S
N25 Li1 1.990 . S
N25 C24 1.314 . S
N25 C28 1.279 . S
C26 C24 1.353 . S
C26 C29 1.348 . S
C26 H74 0.929 . S
C27 C28 1.358 . S
C27 C29 1.356 . S
C27 H75 0.930 . S
C28 N25 1.279 . S
C28 C27 1.358 . S
C28 H31 0.930 . S
C29 C26 1.348 . S
C29 C27 1.356 . S
H30 C24 0.930 . S
H31 C28 0.930 . S
C32 C34 1.348 . S
C32 C35 1.356 . S
C32 O62 1.325 . S
N33 C36 1.314 . S
N33 C37 1.252 1_556 S
C34 C32 1.348 . S
C34 C36 1.353 1_554 S
C34 H76 0.929 . S
C35 C32 1.356 . S
C35 C37 1.395 . S
C35 H77 0.930 . S
C36 N33 1.314 . S
C36 C34 1.353 1_556 S
C36 H78 0.930 . S
C37 N33 1.252 1_554 S
C37 C35 1.395 . S
C37 H79 0.921 1_554 S
C38 C39 1.348 . S
C38 C40 1.356 . S
C38 O63 1.325 . S
C39 C38 1.348 . S
C39 C41 1.353 . S
C39 H80 0.929 . S
C40 C38 1.356 . S
C40 C42 1.358 . S
C40 H81 0.930 . S
C41 C39 1.353 . S
C41 N43 1.314 . S
C41 H82 0.930 . S
C42 C40 1.358 . S
C42 N43 1.279 . S
C42 H83 0.930 . S
N43 C41 1.314 . S
N43 C42 1.279 . S
C44 C46 1.353 . S
C44 N47 1.314 . S
C44 H50 0.930 . S
C45 N47 1.279 . S
C45 C48 1.358 . S
C45 H51 0.930 . S
C46 C44 1.353 . S
C46 C49 1.348 . S
C46 H84 0.929 . S
N47 Li2 1.990 . S
N47 C44 1.314 . S
N47 C45 1.279 . S
C48 C45 1.358 . S
C48 C49 1.356 . S
C48 H85 0.930 . S
C49 C46 1.348 . S
C49 C48 1.356 . S
H50 C44 0.930 . S
H51 C45 0.930 . S
C52 N53 1.314 . S
C52 C54 1.353 . S
C52 H58 0.930 . S
N53 Li3 1.990 . S
N53 C52 1.314 . S
N53 C56 1.279 . S
C54 C52 1.353 . S
C54 C57 1.348 . S
C54 H86 0.929 . S
C55 C56 1.358 . S
C55 C57 1.356 . S
C55 H87 0.930 . S
C56 N53 1.279 . S
C56 C55 1.358 . S
C56 H59 0.930 . S
C57 C54 1.348 . S
C57 C55 1.356 . S
H58 C52 0.930 . S
H59 C56 0.930 . S
O60 Li0 1.956 . S
O60 Li1 1.970 . S
O60 Li2 1.961 . S
O60 C4 1.325 . S
O61 Li0 1.970 . S
O61 Li1 1.956 . S
O61 Li3 1.961 . S
O61 C10 1.325 . S
O62 Li0 1.961 . S
O62 Li2 1.956 . S
O62 Li3 1.970 . S
O62 C32 1.325 . S
O63 Li1 1.961 . S
O63 Li2 1.970 . S
O63 Li3 1.956 . S
O63 C38 1.325 . S
H64 C6 0.929 . S
H65 C7 0.930 . S
H66 C8 0.930 . S
H67 C9 0.930 . S
H68 C11 0.930 . S
H69 C13 0.929 . S
H70 C14 0.930 . S
H71 C15 0.930 . S
H72 C18 0.930 . S
H73 C21 0.929 . S
H74 C26 0.929 . S
H75 C27 0.930 . S
H76 C34 0.929 . S
H77 C35 0.930 . S
H78 C36 0.930 . S
H79 C37 0.921 1_556 S
H80 C39 0.929 . S
H81 C40 0.930 . S
H82 C41 0.930 . S
H83 C42 0.930 . S
H84 C46 0.929 . S
H85 C48 0.930 . S
H86 C54 0.929 . S
H87 C55 0.930 . S
Li88 N105 1.990 . S
Li88 O148 1.956 . S
Li88 O149 1.970 . S
Li88 O150 1.961 . S
Li89 N113 1.990 . S
Li89 O148 1.970 . S
Li89 O149 1.956 . S
Li89 O151 1.961 . S
Li90 N135 1.990 . S
Li90 O148 1.961 . S
Li90 O150 1.956 . S
Li90 O151 1.970 . S
Li91 N141 1.990 . S
Li91 O149 1.961 . S
Li91 O150 1.970 . S
Li91 O151 1.956 . S
C92 C94 1.348 . S
C92 C95 1.356 . S
C92 O148 1.325 . S
N93 C96 1.314 . S
N93 C97 1.279 . S
C94 C92 1.348 . S
C94 C96 1.353 . S
C94 H152 0.929 . S
C95 C92 1.356 . S
C95 C97 1.358 . S
C95 H153 0.930 . S
C96 N93 1.314 . S
C96 C94 1.353 . S
C96 H154 0.930 . S
C97 N93 1.279 . S
C97 C95 1.358 . S
C97 H155 0.930 . S
C98 C101 1.348 . S
C98 C102 1.356 . S
C98 O149 1.325 . S
C99 N100 1.279 . S
C99 C102 1.358 . S
C99 H156 0.930 . S
N100 C99 1.279 . S
N100 C103 1.314 . S
C101 C98 1.348 . S
C101 C103 1.353 . S
C101 H157 0.929 . S
C102 C98 1.356 . S
C102 C99 1.358 . S
C102 H158 0.930 . S
C103 N100 1.314 . S
C103 C101 1.353 . S
C103 H159 0.930 . S
C104 N105 1.314 . S
C104 C109 1.353 . S
C104 H110 0.930 . S
N105 Li88 1.990 . S
N105 C104 1.314 . S
N105 C107 1.279 . S
C106 C107 1.358 . S
C106 C108 1.356 . S
C106 H160 0.930 . S
C107 N105 1.279 . S
C107 C106 1.358 . S
C107 H111 0.930 . S
C108 C106 1.356 . S
C108 C109 1.348 . S
C109 C104 1.353 . S
C109 C108 1.348 . S
C109 H161 0.929 . S
H110 C104 0.930 . S
H111 C107 0.930 . S
C112 N113 1.314 . S
C112 C114 1.353 . S
C112 H118 0.930 . S
N113 Li89 1.990 . S
N113 C112 1.314 . S
N113 C116 1.279 . S
C114 C112 1.353 . S
C114 C117 1.348 . S
C114 H162 0.929 . S
C115 C116 1.358 . S
C115 C117 1.356 . S
C115 H163 0.930 . S
C116 N113 1.279 . S
C116 C115 1.358 . S
C116 H119 0.930 . S
C117 C114 1.348 . S
C117 C115 1.356 . S
H118 C112 0.930 . S
H119 C116 0.930 . S
C120 C122 1.348 . S
C120 C123 1.356 . S
C120 O150 1.325 . S
N121 C124 1.314 . S
N121 C125 1.279 . S
C122 C120 1.348 . S
C122 C124 1.353 . S
C122 H164 0.929 . S
C123 C120 1.356 . S
C123 C125 1.358 . S
C123 H165 0.930 . S
C124 N121 1.314 . S
C124 C122 1.353 . S
C124 H166 0.930 . S
C125 N121 1.279 . S
C125 C123 1.358 . S
C125 H167 0.930 . S
C126 C127 1.348 . S
C126 C128 1.356 . S
C126 O151 1.325 . S
C127 C126 1.348 . S
C127 C129 1.353 . S
C127 H168 0.929 . S
C128 C126 1.356 . S
C128 C130 1.358 . S
C128 H169 0.930 . S
C129 C127 1.353 . S
C129 N131 1.314 . S
C129 H170 0.930 . S
C130 C128 1.358 . S
C130 N131 1.279 . S
C130 H171 0.930 . S
N131 C129 1.314 . S
N131 C130 1.279 . S
C132 C134 1.353 . S
C132 N135 1.314 . S
C132 H138 0.930 . S
C133 N135 1.279 . S
C133 C136 1.358 . S
C133 H139 0.930 . S
C134 C132 1.353 . S
C134 C137 1.348 . S
C134 H172 0.929 . S
N135 Li90 1.990 . S
N135 C132 1.314 . S
N135 C133 1.279 . S
C136 C133 1.358 . S
C136 C137 1.356 . S
C136 H173 0.930 . S
C137 C134 1.348 . S
C137 C136 1.356 . S
H138 C132 0.930 . S
H139 C133 0.930 . S
C140 N141 1.314 . S
C140 C142 1.353 . S
C140 H146 0.930 . S
N141 Li91 1.990 . S
N141 C140 1.314 . S
N141 C144 1.279 . S
C142 C140 1.353 . S
C142 C145 1.348 . S
C142 H174 0.929 . S
C143 C144 1.358 . S
C143 C145 1.356 . S
C143 H175 0.930 . S
C144 N141 1.279 . S
C144 C143 1.358 . S
C144 H147 0.930 . S
C145 C142 1.348 . S
C145 C143 1.356 . S
H146 C140 0.930 . S
H147 C144 0.930 . S
O148 Li88 1.956 . S
O148 Li89 1.970 . S
O148 Li90 1.961 . S
O148 C92 1.325 . S
O149 Li88 1.970 . S
O149 Li89 1.956 . S
O149 Li91 1.961 . S
O149 C98 1.325 . S
O150 Li88 1.961 . S
O150 Li90 1.956 . S
O150 Li91 1.970 . S
O150 C120 1.325 . S
O151 Li89 1.961 . S
O151 Li90 1.970 . S
O151 Li91 1.956 . S
O151 C126 1.325 . S
H152 C94 0.929 . S
H153 C95 0.930 . S
H154 C96 0.930 . S
H155 C97 0.930 . S
H156 C99 0.930 . S
H157 C101 0.929 . S
H158 C102 0.930 . S
H159 C103 0.930 . S
H160 C106 0.930 . S
H161 C109 0.929 . S
H162 C114 0.929 . S
H163 C115 0.930 . S
H164 C122 0.929 . S
H165 C123 0.930 . S
H166 C124 0.930 . S
H167 C125 0.930 . S
H168 C127 0.929 . S
H169 C128 0.930 . S
H170 C129 0.930 . S
H171 C130 0.930 . S
H172 C134 0.929 . S
H173 C136 0.930 . S
H174 C142 0.929 . S
H175 C143 0.930 . S
Li176 N193 1.990 . S
Li176 O236 1.956 . S
Li176 O237 1.970 . S
Li176 O238 1.961 . S
Li177 N201 1.990 . S
Li177 O236 1.970 . S
Li177 O237 1.956 . S
Li177 O239 1.961 . S
Li178 N223 1.990 . S
Li178 O236 1.961 . S
Li178 O238 1.956 . S
Li178 O239 1.970 . S
Li179 N229 1.990 . S
Li179 O237 1.961 . S
Li179 O238 1.970 . S
Li179 O239 1.956 . S
C180 C182 1.348 . S
C180 C183 1.356 . S
C180 O236 1.325 . S
N181 C184 1.314 . S
N181 C185 1.279 . S
C182 C180 1.348 . S
C182 C184 1.353 . S
C182 H240 0.929 . S
C183 C180 1.356 . S
C183 C185 1.358 . S
C183 H241 0.930 . S
C184 N181 1.314 . S
C184 C182 1.353 . S
C184 H242 0.930 . S
C185 N181 1.279 . S
C185 C183 1.358 . S
C185 H243 0.930 . S
C186 C189 1.348 . S
C186 C190 1.356 . S
C186 O237 1.325 . S
C187 N188 1.279 . S
C187 C190 1.358 . S
C187 H244 0.930 . S
N188 C187 1.279 . S
N188 C191 1.314 . S
C189 C186 1.348 . S
C189 C191 1.353 . S
C189 H245 0.929 . S
C190 C186 1.356 . S
C190 C187 1.358 . S
C190 H246 0.930 . S
C191 N188 1.314 . S
C191 C189 1.353 . S
C191 H247 0.930 . S
C192 N193 1.314 . S
C192 C197 1.353 . S
C192 H198 0.930 . S
N193 Li176 1.990 . S
N193 C192 1.314 . S
N193 C195 1.279 . S
C194 C195 1.358 . S
C194 C196 1.356 . S
C194 H248 0.930 . S
C195 N193 1.279 . S
C195 C194 1.358 . S
C195 H199 0.930 . S
C196 C194 1.356 . S
C196 C197 1.348 . S
C197 C192 1.353 . S
C197 C196 1.348 . S
C197 H249 0.929 . S
H198 C192 0.930 . S
H199 C195 0.930 . S
C200 N201 1.314 . S
C200 C202 1.353 . S
C200 H206 0.930 . S
N201 Li177 1.990 . S
N201 C200 1.314 . S
N201 C204 1.279 . S
C202 C200 1.353 . S
C202 C205 1.348 . S
C202 H250 0.929 . S
C203 C204 1.358 . S
C203 C205 1.356 . S
C203 H251 0.930 . S
C204 N201 1.279 . S
C204 C203 1.358 . S
C204 H207 0.930 . S
C205 C202 1.348 . S
C205 C203 1.356 . S
H206 C200 0.930 . S
H207 C204 0.930 . S
C208 C210 1.348 . S
C208 C211 1.356 . S
C208 O238 1.325 . S
N209 C212 1.314 . S
N209 C213 1.279 . S
C210 C208 1.348 . S
C210 C212 1.353 . S
C210 H252 0.929 . S
C211 C208 1.356 . S
C211 C213 1.358 . S
C211 H253 0.930 . S
C212 N209 1.314 . S
C212 C210 1.353 . S
C212 H254 0.930 . S
C213 N209 1.279 . S
C213 C211 1.358 . S
C213 H255 0.930 . S
C214 C215 1.348 . S
C214 C216 1.356 . S
C214 O239 1.325 . S
C215 C214 1.348 . S
C215 C217 1.353 1_554 S
C215 H256 0.929 . S
C216 C214 1.356 . S
C216 C218 1.398 . S
C216 H257 0.930 . S
C217 C215 1.353 1_556 S
C217 N219 1.314 . S
C217 H258 0.930 . S
C218 C216 1.398 . S
C218 N219 1.250 1_554 S
C218 H259 0.920 1_554 S
N219 C217 1.314 . S
N219 C218 1.250 1_556 S
C220 C222 1.353 . S
C220 N223 1.314 . S
C220 H226 0.930 . S
C221 N223 1.279 . S
C221 C224 1.358 . S
C221 H227 0.930 . S
C222 C220 1.353 . S
C222 C225 1.348 . S
C222 H260 0.929 . S
N223 Li178 1.990 . S
N223 C220 1.314 . S
N223 C221 1.279 . S
C224 C221 1.358 . S
C224 C225 1.356 . S
C224 H261 0.930 . S
C225 C222 1.348 . S
C225 C224 1.356 . S
H226 C220 0.930 . S
H227 C221 0.930 . S
C228 N229 1.314 . S
C228 C230 1.353 . S
C228 H234 0.930 . S
N229 Li179 1.990 . S
N229 C228 1.314 . S
N229 C232 1.279 . S
C230 C228 1.353 . S
C230 C233 1.348 . S
C230 H262 0.929 . S
C231 C232 1.358 . S
C231 C233 1.356 . S
C231 H263 0.930 . S
C232 N229 1.279 . S
C232 C231 1.358 . S
C232 H235 0.930 . S
C233 C230 1.348 . S
C233 C231 1.356 . S
H234 C228 0.930 . S
H235 C232 0.930 . S
O236 Li176 1.956 . S
O236 Li177 1.970 . S
O236 Li178 1.961 . S
O236 C180 1.325 . S
O237 Li176 1.970 . S
O237 Li177 1.956 . S
O237 Li179 1.961 . S
O237 C186 1.325 . S
O238 Li176 1.961 . S
O238 Li178 1.956 . S
O238 Li179 1.970 . S
O238 C208 1.325 . S
O239 Li177 1.961 . S
O239 Li178 1.970 . S
O239 Li179 1.956 . S
O239 C214 1.325 . S
H240 C182 0.929 . S
H241 C183 0.930 . S
H242 C184 0.930 . S
H243 C185 0.930 . S
H244 C187 0.930 . S
H245 C189 0.929 . S
H246 C190 0.930 . S
H247 C191 0.930 . S
H248 C194 0.930 . S
H249 C197 0.929 . S
H250 C202 0.929 . S
H251 C203 0.930 . S
H252 C210 0.929 . S
H253 C211 0.930 . S
H254 C212 0.930 . S
H255 C213 0.930 . S
H256 C215 0.929 . S
H257 C216 0.930 . S
H258 C217 0.930 . S
H259 C218 0.920 1_556 S
H260 C222 0.929 . S
H261 C224 0.930 . S
H262 C230 0.929 . S
H263 C231 0.930 . S
Li264 N281 1.990 . S
Li264 O324 1.956 . S
Li264 O325 1.970 . S
Li264 O326 1.961 . S
Li265 N289 1.990 . S
Li265 O324 1.970 . S
Li265 O325 1.956 . S
Li265 O327 1.961 . S
Li266 N311 1.990 . S
Li266 O324 1.961 . S
Li266 O326 1.956 . S
Li266 O327 1.970 . S
Li267 N317 1.990 . S
Li267 O325 1.961 . S
Li267 O326 1.970 . S
Li267 O327 1.956 . S
C268 C270 1.348 . S
C268 C271 1.356 . S
C268 O324 1.325 . S
N269 C272 1.314 . S
N269 C273 1.279 . S
C270 C268 1.348 . S
C270 C272 1.353 . S
C270 H328 0.929 . S
C271 C268 1.356 . S
C271 C273 1.358 . S
C271 H329 0.930 . S
C272 N269 1.314 . S
C272 C270 1.353 . S
C272 H330 0.930 . S
C273 N269 1.279 . S
C273 C271 1.358 . S
C273 H331 0.930 . S
C274 C277 1.348 . S
C274 C278 1.356 . S
C274 O325 1.325 . S
C275 N276 1.279 . S
C275 C278 1.358 . S
C275 H332 0.930 . S
N276 C275 1.279 . S
N276 C279 1.314 . S
C277 C274 1.348 . S
C277 C279 1.353 . S
C277 H333 0.929 . S
C278 C274 1.356 . S
C278 C275 1.358 . S
C278 H334 0.930 . S
C279 N276 1.314 . S
C279 C277 1.353 . S
C279 H335 0.930 . S
C280 N281 1.314 . S
C280 C285 1.353 . S
C280 H286 0.930 . S
N281 Li264 1.990 . S
N281 C280 1.314 . S
N281 C283 1.279 . S
C282 C283 1.358 . S
C282 C284 1.356 . S
C282 H336 0.930 . S
C283 N281 1.279 . S
C283 C282 1.358 . S
C283 H287 0.930 . S
C284 C282 1.356 . S
C284 C285 1.348 . S
C285 C280 1.353 . S
C285 C284 1.348 . S
C285 H337 0.929 . S
H286 C280 0.930 . S
H287 C283 0.930 . S
C288 N289 1.314 . S
C288 C290 1.353 . S
C288 H294 0.930 . S
N289 Li265 1.990 . S
N289 C288 1.314 . S
N289 C292 1.279 . S
C290 C288 1.353 . S
C290 C293 1.348 . S
C290 H338 0.929 . S
C291 C292 1.358 . S
C291 C293 1.356 . S
C291 H339 0.930 . S
C292 N289 1.279 . S
C292 C291 1.358 . S
C292 H295 0.930 . S
C293 C290 1.348 . S
C293 C291 1.356 . S
H294 C288 0.930 . S
H295 C292 0.930 . S
C296 C298 1.348 . S
C296 C299 1.356 . S
C296 O326 1.325 . S
N297 C300 1.314 . S
N297 C301 1.279 . S
C298 C296 1.348 . S
C298 C300 1.353 . S
C298 H340 0.929 . S
C299 C296 1.356 . S
C299 C301 1.358 . S
C299 H341 0.930 . S
C300 N297 1.314 . S
C300 C298 1.353 . S
C300 H342 0.930 . S
C301 N297 1.279 . S
C301 C299 1.358 . S
C301 H343 0.930 . S
C302 C303 1.348 . S
C302 C304 1.356 . S
C302 O327 1.325 . S
C303 C302 1.348 . S
C303 C305 1.353 . S
C303 H344 0.929 . S
C304 C302 1.356 . S
C304 C306 1.358 . S
C304 H345 0.930 . S
C305 C303 1.353 . S
C305 N307 1.314 . S
C305 H346 0.930 . S
C306 C304 1.358 . S
C306 N307 1.279 . S
C306 H347 0.930 . S
N307 C305 1.314 . S
N307 C306 1.279 . S
C308 C310 1.353 . S
C308 N311 1.314 . S
C308 H314 0.930 . S
C309 N311 1.279 . S
C309 C312 1.358 . S
C309 H315 0.930 . S
C310 C308 1.353 . S
C310 C313 1.348 . S
C310 H348 0.929 . S
N311 Li266 1.990 . S
N311 C308 1.314 . S
N311 C309 1.279 . S
C312 C309 1.358 . S
C312 C313 1.356 . S
C312 H349 0.930 . S
C313 C310 1.348 . S
C313 C312 1.356 . S
H314 C308 0.930 . S
H315 C309 0.930 . S
C316 N317 1.314 . S
C316 C318 1.353 . S
C316 H322 0.930 . S
N317 Li267 1.990 . S
N317 C316 1.314 . S
N317 C320 1.279 . S
C318 C316 1.353 . S
C318 C321 1.348 . S
C318 H350 0.929 . S
C319 C320 1.358 . S
C319 C321 1.356 . S
C319 H351 0.930 . S
C320 N317 1.279 . S
C320 C319 1.358 . S
C320 H323 0.930 . S
C321 C318 1.348 . S
C321 C319 1.356 . S
H322 C316 0.930 . S
H323 C320 0.930 . S
O324 Li264 1.956 . S
O324 Li265 1.970 . S
O324 Li266 1.961 . S
O324 C268 1.325 . S
O325 Li264 1.970 . S
O325 Li265 1.956 . S
O325 Li267 1.961 . S
O325 C274 1.325 . S
O326 Li264 1.961 . S
O326 Li266 1.956 . S
O326 Li267 1.970 . S
O326 C296 1.325 . S
O327 Li265 1.961 . S
O327 Li266 1.970 . S
O327 Li267 1.956 . S
O327 C302 1.325 . S
H328 C270 0.929 . S
H329 C271 0.930 . S
H330 C272 0.930 . S
H331 C273 0.930 . S
H332 C275 0.930 . S
H333 C277 0.929 . S
H334 C278 0.930 . S
H335 C279 0.930 . S
H336 C282 0.930 . S
H337 C285 0.929 . S
H338 C290 0.929 . S
H339 C291 0.930 . S
H340 C298 0.929 . S
H341 C299 0.930 . S
H342 C300 0.930 . S
H343 C301 0.930 . S
H344 C303 0.929 . S
H345 C304 0.930 . S
H346 C305 0.930 . S
H347 C306 0.930 . S
H348 C310 0.929 . S
H349 C312 0.930 . S
H350 C318 0.929 . S
H351 C319 0.930 . S
Li352 N369 1.990 . S
Li352 O412 1.956 . S
Li352 O413 1.970 . S
Li352 O414 1.961 . S
Li353 N377 1.990 . S
Li353 O412 1.970 . S
Li353 O413 1.956 . S
Li353 O415 1.961 . S
Li354 N399 1.990 . S
Li354 O412 1.961 . S
Li354 O414 1.956 . S
Li354 O415 1.970 . S
Li355 N405 1.990 . S
Li355 O413 1.961 . S
Li355 O414 1.970 . S
Li355 O415 1.956 . S
C356 C358 1.348 . S
C356 C359 1.356 . S
C356 O412 1.325 . S
N357 C360 1.314 . S
N357 C361 1.279 . S
C358 C356 1.348 . S
C358 C360 1.353 . S
C358 H416 0.929 . S
C359 C356 1.356 . S
C359 C361 1.358 . S
C359 H417 0.930 . S
C360 N357 1.314 . S
C360 C358 1.353 . S
C360 H418 0.930 . S
C361 N357 1.279 . S
C361 C359 1.358 . S
C361 H419 0.930 . S
C362 C365 1.348 . S
C362 C366 1.356 . S
C362 O413 1.325 . S
C363 N364 1.251 1_554 S
C363 C366 1.397 . S
C363 H420 0.920 1_554 S
N364 C363 1.251 1_556 S
N364 C367 1.314 . S
C365 C362 1.348 . S
C365 C367 1.353 1_554 S
C365 H421 0.929 . S
C366 C362 1.356 . S
C366 C363 1.397 . S
C366 H422 0.930 . S
C367 N364 1.314 . S
C367 C365 1.353 1_556 S
C367 H423 0.930 . S
C368 N369 1.314 . S
C368 C373 1.353 . S
C368 H374 0.930 . S
N369 Li352 1.990 . S
N369 C368 1.314 . S
N369 C371 1.279 . S
C370 C371 1.358 . S
C370 C372 1.356 . S
C370 H424 0.930 . S
C371 N369 1.279 . S
C371 C370 1.358 . S
C371 H375 0.930 . S
C372 C370 1.356 . S
C372 C373 1.348 . S
C373 C368 1.353 . S
C373 C372 1.348 . S
C373 H425 0.929 . S
H374 C368 0.930 . S
H375 C371 0.930 . S
C376 N377 1.314 . S
C376 C378 1.353 . S
C376 H382 0.930 . S
N377 Li353 1.990 . S
N377 C376 1.314 . S
N377 C380 1.279 . S
C378 C376 1.353 . S
C378 C381 1.348 . S
C378 H426 0.929 . S
C379 C380 1.358 . S
C379 C381 1.356 . S
C379 H427 0.930 . S
C380 N377 1.279 . S
C380 C379 1.358 . S
C380 H383 0.930 . S
C381 C378 1.348 . S
C381 C379 1.356 . S
H382 C376 0.930 . S
H383 C380 0.930 . S
C384 C386 1.348 . S
C384 C387 1.356 . S
C384 O414 1.325 . S
N385 C388 1.314 . S
N385 C389 1.279 . S
C386 C384 1.348 . S
C386 C388 1.353 . S
C386 H428 0.929 . S
C387 C384 1.356 . S
C387 C389 1.358 . S
C387 H429 0.930 . S
C388 N385 1.314 . S
C388 C386 1.353 . S
C388 H430 0.930 . S
C389 N385 1.279 . S
C389 C387 1.358 . S
C389 H431 0.930 . S
C390 C391 1.348 . S
C390 C392 1.356 . S
C390 O415 1.325 . S
C391 C390 1.348 . S
C391 C393 1.353 . S
C391 H432 0.929 . S
C392 C390 1.356 . S
C392 C394 1.358 . S
C392 H433 0.930 . S
C393 C391 1.353 . S
C393 N395 1.314 . S
C393 H434 0.930 . S
C394 C392 1.358 . S
C394 N395 1.279 . S
C394 H435 0.930 . S
N395 C393 1.314 . S
N395 C394 1.279 . S
C396 C398 1.353 . S
C396 N399 1.314 . S
C396 H402 0.930 . S
C397 N399 1.279 . S
C397 C400 1.358 . S
C397 H403 0.930 . S
C398 C396 1.353 . S
C398 C401 1.348 . S
C398 H436 0.929 . S
N399 Li354 1.990 . S
N399 C396 1.314 . S
N399 C397 1.279 . S
C400 C397 1.358 . S
C400 C401 1.356 . S
C400 H437 0.930 . S
C401 C398 1.348 . S
C401 C400 1.356 . S
H402 C396 0.930 . S
H403 C397 0.930 . S
C404 N405 1.314 . S
C404 C406 1.353 . S
C404 H410 0.930 . S
N405 Li355 1.990 . S
N405 C404 1.314 . S
N405 C408 1.279 . S
C406 C404 1.353 . S
C406 C409 1.348 . S
C406 H438 0.929 . S
C407 C408 1.358 . S
C407 C409 1.356 . S
C407 H439 0.930 . S
C408 N405 1.279 . S
C408 C407 1.358 . S
C408 H411 0.930 . S
C409 C406 1.348 . S
C409 C407 1.356 . S
H410 C404 0.930 . S
H411 C408 0.930 . S
O412 Li352 1.956 . S
O412 Li353 1.970 . S
O412 Li354 1.961 . S
O412 C356 1.325 . S
O413 Li352 1.970 . S
O413 Li353 1.956 . S
O413 Li355 1.961 . S
O413 C362 1.325 . S
O414 Li352 1.961 . S
O414 Li354 1.956 . S
O414 Li355 1.970 . S
O414 C384 1.325 . S
O415 Li353 1.961 . S
O415 Li354 1.970 . S
O415 Li355 1.956 . S
O415 C390 1.325 . S
H416 C358 0.929 . S
H417 C359 0.930 . S
H418 C360 0.930 . S
H419 C361 0.930 . S
H420 C363 0.920 1_556 S
H421 C365 0.929 . S
H422 C366 0.930 . S
H423 C367 0.930 . S
H424 C370 0.930 . S
H425 C373 0.929 . S
H426 C378 0.929 . S
H427 C379 0.930 . S
H428 C386 0.929 . S
H429 C387 0.930 . S
H430 C388 0.930 . S
H431 C389 0.930 . S
H432 C391 0.929 . S
H433 C392 0.930 . S
H434 C393 0.930 . S
H435 C394 0.930 . S
H436 C398 0.929 . S
H437 C400 0.930 . S
H438 C406 0.929 . S
H439 C407 0.930 . S
Li440 N457 1.990 . S
Li440 O500 1.956 . S
Li440 O501 1.970 . S
Li440 O502 1.961 . S
Li441 N465 1.990 . S
Li441 O500 1.970 . S
Li441 O501 1.956 . S
Li441 O503 1.961 . S
Li442 N487 1.990 . S
Li442 O500 1.961 . S
Li442 O502 1.956 . S
Li442 O503 1.970 . S
Li443 N493 1.990 . S
Li443 O501 1.961 . S
Li443 O502 1.970 . S
Li443 O503 1.956 . S
C444 C446 1.348 . S
C444 C447 1.356 . S
C444 O500 1.325 . S
N445 C448 1.314 . S
N445 C449 1.279 . S
C446 C444 1.348 . S
C446 C448 1.353 . S
C446 H504 0.929 . S
C447 C444 1.356 . S
C447 C449 1.358 . S
C447 H505 0.930 . S
C448 N445 1.314 . S
C448 C446 1.353 . S
C448 H506 0.930 . S
C449 N445 1.279 . S
C449 C447 1.358 . S
C449 H507 0.930 . S
C450 C453 1.348 . S
C450 C454 1.356 . S
C450 O501 1.325 . S
C451 N452 1.279 . S
C451 C454 1.358 . S
C451 H508 0.930 . S
N452 C451 1.279 . S
N452 C455 1.314 . S
C453 C450 1.348 . S
C453 C455 1.353 . S
C453 H509 0.929 . S
C454 C450 1.356 . S
C454 C451 1.358 . S
C454 H510 0.930 . S
C455 N452 1.314 . S
C455 C453 1.353 . S
C455 H511 0.930 . S
C456 N457 1.314 . S
C456 C461 1.353 . S
C456 H462 0.930 . S
N457 Li440 1.990 . S
N457 C456 1.314 . S
N457 C459 1.279 . S
C458 C459 1.358 . S
C458 C460 1.356 . S
C458 H512 0.930 . S
C459 N457 1.279 . S
C459 C458 1.358 . S
C459 H463 0.930 . S
C460 C458 1.356 . S
C460 C461 1.348 . S
C461 C456 1.353 . S
C461 C460 1.348 . S
C461 H513 0.929 . S
H462 C456 0.930 . S
H463 C459 0.930 . S
C464 N465 1.314 . S
C464 C466 1.353 . S
C464 H470 0.930 . S
N465 Li441 1.990 . S
N465 C464 1.314 . S
N465 C468 1.279 . S
C466 C464 1.353 . S
C466 C469 1.348 . S
C466 H514 0.929 . S
C467 C468 1.358 . S
C467 C469 1.356 . S
C467 H515 0.930 . S
C468 N465 1.279 . S
C468 C467 1.358 . S
C468 H471 0.930 . S
C469 C466 1.348 . S
C469 C467 1.356 . S
H470 C464 0.930 . S
H471 C468 0.930 . S
C472 C474 1.348 . S
C472 C475 1.356 . S
C472 O502 1.325 . S
N473 C476 1.314 . S
N473 C477 1.279 . S
C474 C472 1.348 . S
C474 C476 1.353 . S
C474 H516 0.929 . S
C475 C472 1.356 . S
C475 C477 1.358 . S
C475 H517 0.930 . S
C476 N473 1.314 . S
C476 C474 1.353 . S
C476 H518 0.930 . S
C477 N473 1.279 . S
C477 C475 1.358 . S
C477 H519 0.930 . S
C478 C479 1.348 . S
C478 C480 1.356 . S
C478 O503 1.325 . S
C479 C478 1.348 . S
C479 C481 1.353 . S
C479 H520 0.929 . S
C480 C478 1.356 . S
C480 C482 1.358 . S
C480 H521 0.930 . S
C481 C479 1.353 . S
C481 N483 1.314 . S
C481 H522 0.930 . S
C482 C480 1.358 . S
C482 N483 1.279 . S
C482 H523 0.930 . S
N483 C481 1.314 . S
N483 C482 1.279 . S
C484 C486 1.353 . S
C484 N487 1.314 . S
C484 H490 0.930 . S
C485 N487 1.279 . S
C485 C488 1.358 . S
C485 H491 0.930 . S
C486 C484 1.353 . S
C486 C489 1.348 . S
C486 H524 0.929 . S
N487 Li442 1.990 . S
N487 C484 1.314 . S
N487 C485 1.279 . S
C488 C485 1.358 . S
C488 C489 1.356 . S
C488 H525 0.930 . S
C489 C486 1.348 . S
C489 C488 1.356 . S
H490 C484 0.930 . S
H491 C485 0.930 . S
C492 N493 1.314 . S
C492 C494 1.353 . S
C492 H498 0.930 . S
N493 Li443 1.990 . S
N493 C492 1.314 . S
N493 C496 1.279 . S
C494 C492 1.353 . S
C494 C497 1.348 . S
C494 H526 0.929 . S
C495 C496 1.358 . S
C495 C497 1.356 . S
C495 H527 0.930 . S
C496 N493 1.279 . S
C496 C495 1.358 . S
C496 H499 0.930 . S
C497 C494 1.348 . S
C497 C495 1.356 . S
H498 C492 0.930 . S
H499 C496 0.930 . S
O500 Li440 1.956 . S
O500 Li441 1.970 . S
O500 Li442 1.961 . S
O500 C444 1.325 . S
O501 Li440 1.970 . S
O501 Li441 1.956 . S
O501 Li443 1.961 . S
O501 C450 1.325 . S
O502 Li440 1.961 . S
O502 Li442 1.956 . S
O502 Li443 1.970 . S
O502 C472 1.325 . S
O503 Li441 1.961 . S
O503 Li442 1.970 . S
O503 Li443 1.956 . S
O503 C478 1.325 . S
H504 C446 0.929 . S
H505 C447 0.930 . S
H506 C448 0.930 . S
H507 C449 0.930 . S
H508 C451 0.930 . S
H509 C453 0.929 . S
H510 C454 0.930 . S
H511 C455 0.930 . S
H512 C458 0.930 . S
H513 C461 0.929 . S
H514 C466 0.929 . S
H515 C467 0.930 . S
H516 C474 0.929 . S
H517 C475 0.930 . S
H518 C476 0.930 . S
H519 C477 0.930 . S
H520 C479 0.929 . S
H521 C480 0.930 . S
H522 C481 0.930 . S
H523 C482 0.930 . S
H524 C486 0.929 . S
H525 C488 0.930 . S
H526 C494 0.929 . S
H527 C495 0.930 . S
Li528 N545 1.990 . S
Li528 O588 1.956 . S
Li528 O589 1.970 . S
Li528 O590 1.961 . S
Li529 N553 1.990 . S
Li529 O588 1.970 . S
Li529 O589 1.956 . S
Li529 O591 1.961 . S
Li530 N575 1.990 . S
Li530 O588 1.961 . S
Li530 O590 1.956 . S
Li530 O591 1.970 . S
Li531 N581 1.990 . S
Li531 O589 1.961 . S
Li531 O590 1.970 . S
Li531 O591 1.956 . S
C532 C534 1.348 . S
C532 C535 1.356 . S
C532 O588 1.325 . S
N533 C536 1.314 . S
N533 C537 1.279 . S
C534 C532 1.348 . S
C534 C536 1.353 . S
C534 H592 0.929 . S
C535 C532 1.356 . S
C535 C537 1.358 . S
C535 H593 0.930 . S
C536 N533 1.314 . S
C536 C534 1.353 . S
C536 H594 0.930 . S
C537 N533 1.279 . S
C537 C535 1.358 . S
C537 H595 0.930 . S
C538 C541 1.348 . S
C538 C542 1.356 . S
C538 O589 1.325 . S
C539 N540 1.279 . S
C539 C542 1.358 . S
C539 H596 0.930 . S
N540 C539 1.279 . S
N540 C543 1.314 . S
C541 C538 1.348 . S
C541 C543 1.353 . S
C541 H597 0.929 . S
C542 C538 1.356 . S
C542 C539 1.358 . S
C542 H598 0.930 . S
C543 N540 1.314 . S
C543 C541 1.353 . S
C543 H599 0.930 . S
C544 N545 1.314 . S
C544 C549 1.353 . S
C544 H550 0.930 . S
N545 Li528 1.990 . S
N545 C544 1.314 . S
N545 C547 1.279 . S
C546 C547 1.358 . S
C546 C548 1.356 . S
C546 H600 0.930 . S
C547 N545 1.279 . S
C547 C546 1.358 . S
C547 H551 0.930 . S
C548 C546 1.356 . S
C548 C549 1.348 . S
C549 C544 1.353 . S
C549 C548 1.348 . S
C549 H601 0.929 . S
H550 C544 0.930 . S
H551 C547 0.930 . S
C552 N553 1.314 . S
C552 C554 1.353 . S
C552 H558 0.930 . S
N553 Li529 1.990 . S
N553 C552 1.314 . S
N553 C556 1.279 . S
C554 C552 1.353 . S
C554 C557 1.348 . S
C554 H602 0.929 . S
C555 C556 1.358 . S
C555 C557 1.356 . S
C555 H603 0.930 . S
C556 N553 1.279 . S
C556 C555 1.358 . S
C556 H559 0.930 . S
C557 C554 1.348 . S
C557 C555 1.356 . S
H558 C552 0.930 . S
H559 C556 0.930 . S
C560 C562 1.348 . S
C560 C563 1.356 . S
C560 O590 1.325 . S
N561 C564 1.314 . S
N561 C565 1.279 . S
C562 C560 1.348 . S
C562 C564 1.353 . S
C562 H604 0.929 . S
C563 C560 1.356 . S
C563 C565 1.358 . S
C563 H605 0.930 . S
C564 N561 1.314 . S
C564 C562 1.353 . S
C564 H606 0.930 . S
C565 N561 1.279 . S
C565 C563 1.358 . S
C565 H607 0.930 . S
C566 C567 1.348 . S
C566 C568 1.356 . S
C566 O591 1.325 . S
C567 C566 1.348 . S
C567 C569 1.353 . S
C567 H608 0.929 . S
C568 C566 1.356 . S
C568 C570 1.358 . S
C568 H609 0.930 . S
C569 C567 1.353 . S
C569 N571 1.314 . S
C569 H610 0.930 . S
C570 C568 1.358 . S
C570 N571 1.279 . S
C570 H611 0.930 . S
N571 C569 1.314 . S
N571 C570 1.279 . S
C572 C574 1.353 . S
C572 N575 1.314 . S
C572 H578 0.930 . S
C573 N575 1.279 . S
C573 C576 1.358 . S
C573 H579 0.930 . S
C574 C572 1.353 . S
C574 C577 1.348 . S
C574 H612 0.929 . S
N575 Li530 1.990 . S
N575 C572 1.314 . S
N575 C573 1.279 . S
C576 C573 1.358 . S
C576 C577 1.356 . S
C576 H613 0.930 . S
C577 C574 1.348 . S
C577 C576 1.356 . S
H578 C572 0.930 . S
H579 C573 0.930 . S
C580 N581 1.314 . S
C580 C582 1.353 . S
C580 H586 0.930 . S
N581 Li531 1.990 . S
N581 C580 1.314 . S
N581 C584 1.279 . S
C582 C580 1.353 . S
C582 C585 1.348 . S
C582 H614 0.929 . S
C583 C584 1.358 . S
C583 C585 1.356 . S
C583 H615 0.930 . S
C584 N581 1.279 . S
C584 C583 1.358 . S
C584 H587 0.930 . S
C585 C582 1.348 . S
C585 C583 1.356 . S
H586 C580 0.930 . S
H587 C584 0.930 . S
O588 Li528 1.956 . S
O588 Li529 1.970 . S
O588 Li530 1.961 . S
O588 C532 1.325 . S
O589 Li528 1.970 . S
O589 Li529 1.956 . S
O589 Li531 1.961 . S
O589 C538 1.325 . S
O590 Li528 1.961 . S
O590 Li530 1.956 . S
O590 Li531 1.970 . S
O590 C560 1.325 . S
O591 Li529 1.961 . S
O591 Li530 1.970 . S
O591 Li531 1.956 . S
O591 C566 1.325 . S
H592 C534 0.929 . S
H593 C535 0.930 . S
H594 C536 0.930 . S
H595 C537 0.930 . S
H596 C539 0.930 . S
H597 C541 0.929 . S
H598 C542 0.930 . S
H599 C543 0.930 . S
H600 C546 0.930 . S
H601 C549 0.929 . S
H602 C554 0.929 . S
H603 C555 0.930 . S
H604 C562 0.929 . S
H605 C563 0.930 . S
H606 C564 0.930 . S
H607 C565 0.930 . S
H608 C567 0.929 . S
H609 C568 0.930 . S
H610 C569 0.930 . S
H611 C570 0.930 . S
H612 C574 0.929 . S
H613 C576 0.930 . S
H614 C582 0.929 . S
H615 C583 0.930 . S
Li616 N633 1.990 . S
Li616 O676 1.956 . S
Li616 O677 1.970 . S
Li616 O678 1.961 . S
Li617 N641 1.990 . S
Li617 O676 1.970 . S
Li617 O677 1.956 . S
Li617 O679 1.961 . S
Li618 N663 1.990 . S
Li618 O676 1.961 . S
Li618 O678 1.956 . S
Li618 O679 1.970 . S
Li619 N669 1.990 . S
Li619 O677 1.961 . S
Li619 O678 1.970 . S
Li619 O679 1.956 . S
C620 C622 1.348 . S
C620 C623 1.356 . S
C620 O676 1.325 . S
N621 C624 1.314 . S
N621 C625 1.279 . S
C622 C620 1.348 . S
C622 C624 1.353 . S
C622 H680 0.929 . S
C623 C620 1.356 . S
C623 C625 1.358 . S
C623 H681 0.930 . S
C624 N621 1.314 . S
C624 C622 1.353 . S
C624 H682 0.930 . S
C625 N621 1.279 . S
C625 C623 1.358 . S
C625 H683 0.930 . S
C626 C629 1.348 . S
C626 C630 1.356 . S
C626 O677 1.325 . S
C627 N628 1.250 1_556 S
C627 C630 1.398 . S
C627 H684 0.920 1_556 S
N628 C627 1.250 1_554 S
N628 C631 1.314 . S
C629 C626 1.348 . S
C629 C631 1.353 1_556 S
C629 H685 0.929 . S
C630 C626 1.356 . S
C630 C627 1.398 . S
C630 H686 0.930 . S
C631 N628 1.314 . S
C631 C629 1.353 1_554 S
C631 H687 0.930 . S
C632 N633 1.314 . S
C632 C637 1.353 . S
C632 H638 0.930 . S
N633 Li616 1.990 . S
N633 C632 1.314 . S
N633 C635 1.279 . S
C634 C635 1.358 . S
C634 C636 1.356 . S
C634 H688 0.930 . S
C635 N633 1.279 . S
C635 C634 1.358 . S
C635 H639 0.930 . S
C636 C634 1.356 . S
C636 C637 1.348 . S
C637 C632 1.353 . S
C637 C636 1.348 . S
C637 H689 0.929 . S
H638 C632 0.930 . S
H639 C635 0.930 . S
C640 N641 1.314 . S
C640 C642 1.353 . S
C640 H646 0.930 . S
N641 Li617 1.990 . S
N641 C640 1.314 . S
N641 C644 1.279 . S
C642 C640 1.353 . S
C642 C645 1.348 . S
C642 H690 0.929 . S
C643 C644 1.358 . S
C643 C645 1.356 . S
C643 H691 0.930 . S
C644 N641 1.279 . S
C644 C643 1.358 . S
C644 H647 0.930 . S
C645 C642 1.348 . S
C645 C643 1.356 . S
H646 C640 0.930 . S
H647 C644 0.930 . S
C648 C650 1.348 . S
C648 C651 1.356 . S
C648 O678 1.325 . S
N649 C652 1.314 . S
N649 C653 1.279 . S
C650 C648 1.348 . S
C650 C652 1.353 . S
C650 H692 0.929 . S
C651 C648 1.356 . S
C651 C653 1.358 . S
C651 H693 0.930 . S
C652 N649 1.314 . S
C652 C650 1.353 . S
C652 H694 0.930 . S
C653 N649 1.279 . S
C653 C651 1.358 . S
C653 H695 0.930 . S
C654 C655 1.348 . S
C654 C656 1.356 . S
C654 O679 1.325 . S
C655 C654 1.348 . S
C655 C657 1.353 . S
C655 H696 0.929 . S
C656 C654 1.356 . S
C656 C658 1.358 . S
C656 H697 0.930 . S
C657 C655 1.353 . S
C657 N659 1.314 . S
C657 H698 0.930 . S
C658 C656 1.358 . S
C658 N659 1.279 . S
C658 H699 0.930 . S
N659 C657 1.314 . S
N659 C658 1.279 . S
C660 C662 1.353 . S
C660 N663 1.314 . S
C660 H666 0.930 . S
C661 N663 1.279 . S
C661 C664 1.358 . S
C661 H667 0.930 . S
C662 C660 1.353 . S
C662 C665 1.348 . S
C662 H700 0.929 . S
N663 Li618 1.990 . S
N663 C660 1.314 . S
N663 C661 1.279 . S
C664 C661 1.358 . S
C664 C665 1.356 . S
C664 H701 0.930 . S
C665 C662 1.348 . S
C665 C664 1.356 . S
H666 C660 0.930 . S
H667 C661 0.930 . S
C668 N669 1.314 . S
C668 C670 1.353 . S
C668 H674 0.930 . S
N669 Li619 1.990 . S
N669 C668 1.314 . S
N669 C672 1.279 . S
C670 C668 1.353 . S
C670 C673 1.348 . S
C670 H702 0.929 . S
C671 C672 1.358 . S
C671 C673 1.356 . S
C671 H703 0.930 . S
C672 N669 1.279 . S
C672 C671 1.358 . S
C672 H675 0.930 . S
C673 C670 1.348 . S
C673 C671 1.356 . S
H674 C668 0.930 . S
H675 C672 0.930 . S
O676 Li616 1.956 . S
O676 Li617 1.970 . S
O676 Li618 1.961 . S
O676 C620 1.325 . S
O677 Li616 1.970 . S
O677 Li617 1.956 . S
O677 Li619 1.961 . S
O677 C626 1.325 . S
O678 Li616 1.961 . S
O678 Li618 1.956 . S
O678 Li619 1.970 . S
O678 C648 1.325 . S
O679 Li617 1.961 . S
O679 Li618 1.970 . S
O679 Li619 1.956 . S
O679 C654 1.325 . S
H680 C622 0.929 . S
H681 C623 0.930 . S
H682 C624 0.930 . S
H683 C625 0.930 . S
H684 C627 0.920 1_554 S
H685 C629 0.929 . S
H686 C630 0.930 . S
H687 C631 0.930 . S
H688 C634 0.930 . S
H689 C637 0.929 . S
H690 C642 0.929 . S
H691 C643 0.930 . S
H692 C650 0.929 . S
H693 C651 0.930 . S
H694 C652 0.930 . S
H695 C653 0.930 . S
H696 C655 0.929 . S
H697 C656 0.930 . S
H698 C657 0.930 . S
H699 C658 0.930 . S
H700 C662 0.929 . S
H701 C664 0.930 . S
H702 C670 0.929 . S
H703 C671 0.930 . S
Li704 N721 1.990 . S
Li704 O764 1.956 . S
Li704 O765 1.970 . S
Li704 O766 1.961 . S
Li705 N729 1.990 . S
Li705 O764 1.970 . S
Li705 O765 1.956 . S
Li705 O767 1.961 . S
Li706 N751 1.990 . S
Li706 O764 1.961 . S
Li706 O766 1.956 . S
Li706 O767 1.970 . S
Li707 N757 1.990 . S
Li707 O765 1.961 . S
Li707 O766 1.970 . S
Li707 O767 1.956 . S
C708 C710 1.348 . S
C708 C711 1.356 . S
C708 O764 1.325 . S
N709 C712 1.314 . S
N709 C713 1.279 . S
C710 C708 1.348 . S
C710 C712 1.353 . S
C710 H768 0.929 . S
C711 C708 1.356 . S
C711 C713 1.358 . S
C711 H769 0.930 . S
C712 N709 1.314 . S
C712 C710 1.353 . S
C712 H770 0.930 . S
C713 N709 1.279 . S
C713 C711 1.358 . S
C713 H771 0.930 . S
C714 C717 1.348 . S
C714 C718 1.356 . S
C714 O765 1.325 . S
C715 N716 1.279 . S
C715 C718 1.358 . S
C715 H772 0.930 . S
N716 C715 1.279 . S
N716 C719 1.314 . S
C717 C714 1.348 . S
C717 C719 1.353 . S
C717 H773 0.929 . S
C718 C714 1.356 . S
C718 C715 1.358 . S
C718 H774 0.930 . S
C719 N716 1.314 . S
C719 C717 1.353 . S
C719 H775 0.930 . S
C720 N721 1.314 . S
C720 C725 1.353 . S
C720 H726 0.930 . S
N721 Li704 1.990 . S
N721 C720 1.314 . S
N721 C723 1.279 . S
C722 C723 1.358 . S
C722 C724 1.356 . S
C722 H776 0.930 . S
C723 N721 1.279 . S
C723 C722 1.358 . S
C723 H727 0.930 . S
C724 C722 1.356 . S
C724 C725 1.348 . S
C725 C720 1.353 . S
C725 C724 1.348 . S
C725 H777 0.929 . S
H726 C720 0.930 . S
H727 C723 0.930 . S
C728 N729 1.314 . S
C728 C730 1.353 . S
C728 H734 0.930 . S
N729 Li705 1.990 . S
N729 C728 1.314 . S
N729 C732 1.279 . S
C730 C728 1.353 . S
C730 C733 1.348 . S
C730 H778 0.929 . S
C731 C732 1.358 . S
C731 C733 1.356 . S
C731 H779 0.930 . S
C732 N729 1.279 . S
C732 C731 1.358 . S
C732 H735 0.930 . S
C733 C730 1.348 . S
C733 C731 1.356 . S
H734 C728 0.930 . S
H735 C732 0.930 . S
C736 C738 1.348 . S
C736 C739 1.356 . S
C736 O766 1.325 . S
N737 C740 1.314 . S
N737 C741 1.279 . S
C738 C736 1.348 . S
C738 C740 1.353 . S
C738 H780 0.929 . S
C739 C736 1.356 . S
C739 C741 1.358 . S
C739 H781 0.930 . S
C740 N737 1.314 . S
C740 C738 1.353 . S
C740 H782 0.930 . S
C741 N737 1.279 . S
C741 C739 1.358 . S
C741 H783 0.930 . S
C742 C743 1.348 . S
C742 C744 1.356 . S
C742 O767 1.325 . S
C743 C742 1.348 . S
C743 C745 1.353 . S
C743 H784 0.929 . S
C744 C742 1.356 . S
C744 C746 1.358 . S
C744 H785 0.930 . S
C745 C743 1.353 . S
C745 N747 1.314 . S
C745 H786 0.930 . S
C746 C744 1.358 . S
C746 N747 1.279 . S
C746 H787 0.930 . S
N747 C745 1.314 . S
N747 C746 1.279 . S
C748 C750 1.353 . S
C748 N751 1.314 . S
C748 H754 0.930 . S
C749 N751 1.279 . S
C749 C752 1.358 . S
C749 H755 0.930 . S
C750 C748 1.353 . S
C750 C753 1.348 . S
C750 H788 0.929 . S
N751 Li706 1.990 . S
N751 C748 1.314 . S
N751 C749 1.279 . S
C752 C749 1.358 . S
C752 C753 1.356 . S
C752 H789 0.930 . S
C753 C750 1.348 . S
C753 C752 1.356 . S
H754 C748 0.930 . S
H755 C749 0.930 . S
C756 N757 1.314 . S
C756 C758 1.353 . S
C756 H762 0.930 . S
N757 Li707 1.990 . S
N757 C756 1.314 . S
N757 C760 1.279 . S
C758 C756 1.353 . S
C758 C761 1.348 . S
C758 H790 0.929 . S
C759 C760 1.358 . S
C759 C761 1.356 . S
C759 H791 0.930 . S
C760 N757 1.279 . S
C760 C759 1.358 . S
C760 H763 0.930 . S
C761 C758 1.348 . S
C761 C759 1.356 . S
H762 C756 0.930 . S
H763 C760 0.930 . S
O764 Li704 1.956 . S
O764 Li705 1.970 . S
O764 Li706 1.961 . S
O764 C708 1.325 . S
O765 Li704 1.970 . S
O765 Li705 1.956 . S
O765 Li707 1.961 . S
O765 C714 1.325 . S
O766 Li704 1.961 . S
O766 Li706 1.956 . S
O766 Li707 1.970 . S
O766 C736 1.325 . S
O767 Li705 1.961 . S
O767 Li706 1.970 . S
O767 Li707 1.956 . S
O767 C742 1.325 . S
H768 C710 0.929 . S
H769 C711 0.930 . S
H770 C712 0.930 . S
H771 C713 0.930 . S
H772 C715 0.930 . S
H773 C717 0.929 . S
H774 C718 0.930 . S
H775 C719 0.930 . S
H776 C722 0.930 . S
H777 C725 0.929 . S
H778 C730 0.929 . S
H779 C731 0.930 . S
H780 C738 0.929 . S
H781 C739 0.930 . S
H782 C740 0.930 . S
H783 C741 0.930 . S
H784 C743 0.929 . S
H785 C744 0.930 . S
H786 C745 0.930 . S
H787 C746 0.930 . S
H788 C750 0.929 . S
H789 C752 0.930 . S
H790 C758 0.929 . S
H791 C759 0.930 . S
Li792 N809 1.990 . S
Li792 O852 1.956 . S
Li792 O853 1.970 . S
Li792 O854 1.961 . S
Li793 N817 1.990 . S
Li793 O852 1.970 . S
Li793 O853 1.956 . S
Li793 O855 1.961 . S
Li794 N839 1.990 . S
Li794 O852 1.961 . S
Li794 O854 1.956 . S
Li794 O855 1.970 . S
Li795 N845 1.990 . S
Li795 O853 1.961 . S
Li795 O854 1.970 . S
Li795 O855 1.956 . S
C796 C798 1.348 . S
C796 C799 1.356 . S
C796 O852 1.325 . S
N797 C800 1.314 . S
N797 C801 1.279 . S
C798 C796 1.348 . S
C798 C800 1.353 . S
C798 H856 0.929 . S
C799 C796 1.356 . S
C799 C801 1.358 . S
C799 H857 0.930 . S
C800 N797 1.314 . S
C800 C798 1.353 . S
C800 H858 0.930 . S
C801 N797 1.279 . S
C801 C799 1.358 . S
C801 H859 0.930 . S
C802 C805 1.348 . S
C802 C806 1.356 . S
C802 O853 1.325 . S
C803 N804 1.252 1_556 S
C803 C806 1.396 . S
C803 H860 0.921 1_556 S
N804 C803 1.252 1_554 S
N804 C807 1.314 . S
C805 C802 1.348 . S
C805 C807 1.353 1_556 S
C805 H861 0.929 . S
C806 C802 1.356 . S
C806 C803 1.396 . S
C806 H862 0.930 . S
C807 N804 1.314 . S
C807 C805 1.353 1_554 S
C807 H863 0.930 . S
C808 N809 1.314 . S
C808 C813 1.353 . S
C808 H814 0.930 . S
N809 Li792 1.990 . S
N809 C808 1.314 . S
N809 C811 1.279 . S
C810 C811 1.358 . S
C810 C812 1.356 . S
C810 H864 0.930 . S
C811 N809 1.279 . S
C811 C810 1.358 . S
C811 H815 0.930 . S
C812 C810 1.356 . S
C812 C813 1.348 . S
C813 C808 1.353 . S
C813 C812 1.348 . S
C813 H865 0.929 . S
H814 C808 0.930 . S
H815 C811 0.930 . S
C816 N817 1.314 . S
C816 C818 1.353 . S
C816 H822 0.930 . S
N817 Li793 1.990 . S
N817 C816 1.314 . S
N817 C820 1.279 . S
C818 C816 1.353 . S
C818 C821 1.348 . S
C818 H866 0.929 . S
C819 C820 1.358 . S
C819 C821 1.356 . S
C819 H867 0.930 . S
C820 N817 1.279 . S
C820 C819 1.358 . S
C820 H823 0.930 . S
C821 C818 1.348 . S
C821 C819 1.356 . S
H822 C816 0.930 . S
H823 C820 0.930 . S
C824 C826 1.348 . S
C824 C827 1.356 . S
C824 O854 1.325 . S
N825 C828 1.314 . S
N825 C829 1.279 . S
C826 C824 1.348 . S
C826 C828 1.353 . S
C826 H868 0.929 . S
C827 C824 1.356 . S
C827 C829 1.358 . S
C827 H869 0.930 . S
C828 N825 1.314 . S
C828 C826 1.353 . S
C828 H870 0.930 . S
C829 N825 1.279 . S
C829 C827 1.358 . S
C829 H871 0.930 . S
C830 C831 1.348 . S
C830 C832 1.356 . S
C830 O855 1.325 . S
C831 C830 1.348 . S
C831 C833 1.353 . S
C831 H872 0.929 . S
C832 C830 1.356 . S
C832 C834 1.358 . S
C832 H873 0.930 . S
C833 C831 1.353 . S
C833 N835 1.314 . S
C833 H874 0.930 . S
C834 C832 1.358 . S
C834 N835 1.279 . S
C834 H875 0.930 . S
N835 C833 1.314 . S
N835 C834 1.279 . S
C836 C838 1.353 . S
C836 N839 1.314 . S
C836 H842 0.930 . S
C837 N839 1.279 . S
C837 C840 1.358 . S
C837 H843 0.930 . S
C838 C836 1.353 . S
C838 C841 1.348 . S
C838 H876 0.929 . S
N839 Li794 1.990 . S
N839 C836 1.314 . S
N839 C837 1.279 . S
C840 C837 1.358 . S
C840 C841 1.356 . S
C840 H877 0.930 . S
C841 C838 1.348 . S
C841 C840 1.356 . S
H842 C836 0.930 . S
H843 C837 0.930 . S
C844 N845 1.314 . S
C844 C846 1.353 . S
C844 H850 0.930 . S
N845 Li795 1.990 . S
N845 C844 1.314 . S
N845 C848 1.279 . S
C846 C844 1.353 . S
C846 C849 1.348 . S
C846 H878 0.929 . S
C847 C848 1.358 . S
C847 C849 1.356 . S
C847 H879 0.930 . S
C848 N845 1.279 . S
C848 C847 1.358 . S
C848 H851 0.930 . S
C849 C846 1.348 . S
C849 C847 1.356 . S
H850 C844 0.930 . S
H851 C848 0.930 . S
O852 Li792 1.956 . S
O852 Li793 1.970 . S
O852 Li794 1.961 . S
O852 C796 1.325 . S
O853 Li792 1.970 . S
O853 Li793 1.956 . S
O853 Li795 1.961 . S
O853 C802 1.325 . S
O854 Li792 1.961 . S
O854 Li794 1.956 . S
O854 Li795 1.970 . S
O854 C824 1.325 . S
O855 Li793 1.961 . S
O855 Li794 1.970 . S
O855 Li795 1.956 . S
O855 C830 1.325 . S
H856 C798 0.929 . S
H857 C799 0.930 . S
H858 C800 0.930 . S
H859 C801 0.930 . S
H860 C803 0.921 1_554 S
H861 C805 0.929 . S
H862 C806 0.930 . S
H863 C807 0.930 . S
H864 C810 0.930 . S
H865 C813 0.929 . S
H866 C818 0.929 . S
H867 C819 0.930 . S
H868 C826 0.929 . S
H869 C827 0.930 . S
H870 C828 0.930 . S
H871 C829 0.930 . S
H872 C831 0.929 . S
H873 C832 0.930 . S
H874 C833 0.930 . S
H875 C834 0.930 . S
H876 C838 0.929 . S
H877 C840 0.930 . S
H878 C846 0.929 . S
H879 C847 0.930 . S
Li880 N897 1.990 . S
Li880 O940 1.956 . S
Li880 O941 1.970 . S
Li880 O942 1.961 . S
Li881 N905 1.990 . S
Li881 O940 1.970 . S
Li881 O941 1.956 . S
Li881 O943 1.961 . S
Li882 N927 1.990 . S
Li882 O940 1.961 . S
Li882 O942 1.956 . S
Li882 O943 1.970 . S
Li883 N933 1.990 . S
Li883 O941 1.961 . S
Li883 O942 1.970 . S
Li883 O943 1.956 . S
C884 C886 1.348 . S
C884 C887 1.356 . S
C884 O940 1.325 . S
N885 C888 1.314 . S
N885 C889 1.279 . S
C886 C884 1.348 . S
C886 C888 1.353 . S
C886 H944 0.929 . S
C887 C884 1.356 . S
C887 C889 1.358 . S
C887 H945 0.930 . S
C888 N885 1.314 . S
C888 C886 1.353 . S
C888 H946 0.930 . S
C889 N885 1.279 . S
C889 C887 1.358 . S
C889 H947 0.930 . S
C890 C893 1.348 . S
C890 C894 1.356 . S
C890 O941 1.325 . S
C891 N892 1.279 . S
C891 C894 1.358 . S
C891 H948 0.930 . S
N892 C891 1.279 . S
N892 C895 1.314 . S
C893 C890 1.348 . S
C893 C895 1.353 . S
C893 H949 0.929 . S
C894 C890 1.356 . S
C894 C891 1.358 . S
C894 H950 0.930 . S
C895 N892 1.314 . S
C895 C893 1.353 . S
C895 H951 0.930 . S
C896 N897 1.314 . S
C896 C901 1.353 . S
C896 H902 0.930 . S
N897 Li880 1.990 . S
N897 C896 1.314 . S
N897 C899 1.279 . S
C898 C899 1.358 . S
C898 C900 1.356 . S
C898 H952 0.930 . S
C899 N897 1.279 . S
C899 C898 1.358 . S
C899 H903 0.930 . S
C900 C898 1.356 . S
C900 C901 1.348 . S
C901 C896 1.353 . S
C901 C900 1.348 . S
C901 H953 0.929 . S
H902 C896 0.930 . S
H903 C899 0.930 . S
C904 N905 1.314 . S
C904 C906 1.353 . S
C904 H910 0.930 . S
N905 Li881 1.990 . S
N905 C904 1.314 . S
N905 C908 1.279 . S
C906 C904 1.353 . S
C906 C909 1.348 . S
C906 H954 0.929 . S
C907 C908 1.358 . S
C907 C909 1.356 . S
C907 H955 0.930 . S
C908 N905 1.279 . S
C908 C907 1.358 . S
C908 H911 0.930 . S
C909 C906 1.348 . S
C909 C907 1.356 . S
H910 C904 0.930 . S
H911 C908 0.930 . S
C912 C914 1.348 . S
C912 C915 1.356 . S
C912 O942 1.325 . S
N913 C916 1.314 . S
N913 C917 1.279 . S
C914 C912 1.348 . S
C914 C916 1.353 . S
C914 H956 0.929 . S
C915 C912 1.356 . S
C915 C917 1.358 . S
C915 H957 0.930 . S
C916 N913 1.314 . S
C916 C914 1.353 . S
C916 H958 0.930 . S
C917 N913 1.279 . S
C917 C915 1.358 . S
C917 H959 0.930 . S
C918 C919 1.348 . S
C918 C920 1.356 . S
C918 O943 1.325 . S
C919 C918 1.348 . S
C919 C921 1.353 . S
C919 H960 0.929 . S
C920 C918 1.356 . S
C920 C922 1.358 . S
C920 H961 0.930 . S
C921 C919 1.353 . S
C921 N923 1.314 . S
C921 H962 0.930 . S
C922 C920 1.358 . S
C922 N923 1.279 . S
C922 H963 0.930 . S
N923 C921 1.314 . S
N923 C922 1.279 . S
C924 C926 1.353 . S
C924 N927 1.314 . S
C924 H930 0.930 . S
C925 N927 1.279 . S
C925 C928 1.358 . S
C925 H931 0.930 . S
C926 C924 1.353 . S
C926 C929 1.348 . S
C926 H964 0.929 . S
N927 Li882 1.990 . S
N927 C924 1.314 . S
N927 C925 1.279 . S
C928 C925 1.358 . S
C928 C929 1.356 . S
C928 H965 0.930 . S
C929 C926 1.348 . S
C929 C928 1.356 . S
H930 C924 0.930 . S
H931 C925 0.930 . S
C932 N933 1.314 . S
C932 C934 1.353 . S
C932 H938 0.930 . S
N933 Li883 1.990 . S
N933 C932 1.314 . S
N933 C936 1.279 . S
C934 C932 1.353 . S
C934 C937 1.348 . S
C934 H966 0.929 . S
C935 C936 1.358 . S
C935 C937 1.356 . S
C935 H967 0.930 . S
C936 N933 1.279 . S
C936 C935 1.358 . S
C936 H939 0.930 . S
C937 C934 1.348 . S
C937 C935 1.356 . S
H938 C932 0.930 . S
H939 C936 0.930 . S
O940 Li880 1.956 . S
O940 Li881 1.970 . S
O940 Li882 1.961 . S
O940 C884 1.325 . S
O941 Li880 1.970 . S
O941 Li881 1.956 . S
O941 Li883 1.961 . S
O941 C890 1.325 . S
O942 Li880 1.961 . S
O942 Li882 1.956 . S
O942 Li883 1.970 . S
O942 C912 1.325 . S
O943 Li881 1.961 . S
O943 Li882 1.970 . S
O943 Li883 1.956 . S
O943 C918 1.325 . S
H944 C886 0.929 . S
H945 C887 0.930 . S
H946 C888 0.930 . S
H947 C889 0.930 . S
H948 C891 0.930 . S
H949 C893 0.929 . S
H950 C894 0.930 . S
H951 C895 0.930 . S
H952 C898 0.930 . S
H953 C901 0.929 . S
H954 C906 0.929 . S
H955 C907 0.930 . S
H956 C914 0.929 . S
H957 C915 0.930 . S
H958 C916 0.930 . S
H959 C917 0.930 . S
H960 C919 0.929 . S
H961 C920 0.930 . S
H962 C921 0.930 . S
H963 C922 0.930 . S
H964 C926 0.929 . S
H965 C928 0.930 . S
H966 C934 0.929 . S
H967 C935 0.930 . S
Li968 N985 1.990 . S
Li968 O1028 1.956 . S
Li968 O1029 1.970 . S
Li968 O1030 1.961 . S
Li969 N993 1.990 . S
Li969 O1028 1.970 . S
Li969 O1029 1.956 . S
Li969 O1031 1.961 . S
Li970 N1015 1.990 . S
Li970 O1028 1.961 . S
Li970 O1030 1.956 . S
Li970 O1031 1.970 . S
Li971 N1021 1.990 . S
Li971 O1029 1.961 . S
Li971 O1030 1.970 . S
Li971 O1031 1.956 . S
C972 C974 1.348 . S
C972 C975 1.356 . S
C972 O1028 1.325 . S
N973 C976 1.314 . S
N973 C977 1.279 . S
C974 C972 1.348 . S
C974 C976 1.353 . S
C974 H1032 0.929 . S
C975 C972 1.356 . S
C975 C977 1.358 . S
C975 H1033 0.930 . S
C976 N973 1.314 . S
C976 C974 1.353 . S
C976 H1034 0.930 . S
C977 N973 1.279 . S
C977 C975 1.358 . S
C977 H1035 0.930 . S
C978 C981 1.348 . S
C978 C982 1.356 . S
C978 O1029 1.325 . S
C979 N980 1.251 1_556 S
C979 C982 1.397 . S
C979 H1036 0.920 1_556 S
N980 C979 1.251 1_554 S
N980 C983 1.314 . S
C981 C978 1.348 . S
C981 C983 1.353 1_556 S
C981 H1037 0.929 . S
C982 C978 1.356 . S
C982 C979 1.397 . S
C982 H1038 0.930 . S
C983 N980 1.314 . S
C983 C981 1.353 1_554 S
C983 H1039 0.930 . S
C984 N985 1.314 . S
C984 C989 1.353 . S
C984 H990 0.930 . S
N985 Li968 1.990 . S
N985 C984 1.314 . S
N985 C987 1.279 . S
C986 C987 1.358 . S
C986 C988 1.356 . S
C986 H1040 0.930 . S
C987 N985 1.279 . S
C987 C986 1.358 . S
C987 H991 0.930 . S
C988 C986 1.356 . S
C988 C989 1.348 . S
C989 C984 1.353 . S
C989 C988 1.348 . S
C989 H1041 0.929 . S
H990 C984 0.930 . S
H991 C987 0.930 . S
C992 N993 1.314 . S
C992 C994 1.353 . S
C992 H998 0.930 . S
N993 Li969 1.990 . S
N993 C992 1.314 . S
N993 C996 1.279 . S
C994 C992 1.353 . S
C994 C997 1.348 . S
C994 H1042 0.929 . S
C995 C996 1.358 . S
C995 C997 1.356 . S
C995 H1043 0.930 . S
C996 N993 1.279 . S
C996 C995 1.358 . S
C996 H999 0.930 . S
C997 C994 1.348 . S
C997 C995 1.356 . S
H998 C992 0.930 . S
H999 C996 0.930 . S
C1000 C1002 1.348 . S
C1000 C1003 1.356 . S
C1000 O1030 1.325 . S
N1001 C1004 1.314 . S
N1001 C1005 1.279 . S
C1002 C1000 1.348 . S
C1002 C1004 1.353 . S
C1002 H1044 0.929 . S
C1003 C1000 1.356 . S
C1003 C1005 1.358 . S
C1003 H1045 0.930 . S
C1004 N1001 1.314 . S
C1004 C1002 1.353 . S
C1004 H1046 0.930 . S
C1005 N1001 1.279 . S
C1005 C1003 1.358 . S
C1005 H1047 0.930 . S
C1006 C1007 1.348 . S
C1006 C1008 1.356 . S
C1006 O1031 1.325 . S
C1007 C1006 1.348 . S
C1007 C1009 1.353 . S
C1007 H1048 0.929 . S
C1008 C1006 1.356 . S
C1008 C1010 1.358 . S
C1008 H1049 0.930 . S
C1009 C1007 1.353 . S
C1009 N1011 1.314 . S
C1009 H1050 0.930 . S
C1010 C1008 1.358 . S
C1010 N1011 1.279 . S
C1010 H1051 0.930 . S
N1011 C1009 1.314 . S
N1011 C1010 1.279 . S
C1012 C1014 1.353 . S
C1012 N1015 1.314 . S
C1012 H1018 0.930 . S
C1013 N1015 1.279 . S
C1013 C1016 1.358 . S
C1013 H1019 0.930 . S
C1014 C1012 1.353 . S
C1014 C1017 1.348 . S
C1014 H1052 0.929 . S
N1015 Li970 1.990 . S
N1015 C1012 1.314 . S
N1015 C1013 1.279 . S
C1016 C1013 1.358 . S
C1016 C1017 1.356 . S
C1016 H1053 0.930 . S
C1017 C1014 1.348 . S
C1017 C1016 1.356 . S
H1018 C1012 0.930 . S
H1019 C1013 0.930 . S
C1020 N1021 1.314 . S
C1020 C1022 1.353 . S
C1020 H1026 0.930 . S
N1021 Li971 1.990 . S
N1021 C1020 1.314 . S
N1021 C1024 1.279 . S
C1022 C1020 1.353 . S
C1022 C1025 1.348 . S
C1022 H1054 0.929 . S
C1023 C1024 1.358 . S
C1023 C1025 1.356 . S
C1023 H1055 0.930 . S
C1024 N1021 1.279 . S
C1024 C1023 1.358 . S
C1024 H1027 0.930 . S
C1025 C1022 1.348 . S
C1025 C1023 1.356 . S
H1026 C1020 0.930 . S
H1027 C1024 0.930 . S
O1028 Li968 1.956 . S
O1028 Li969 1.970 . S
O1028 Li970 1.961 . S
O1028 C972 1.325 . S
O1029 Li968 1.970 . S
O1029 Li969 1.956 . S
O1029 Li971 1.961 . S
O1029 C978 1.325 . S
O1030 Li968 1.961 . S
O1030 Li970 1.956 . S
O1030 Li971 1.970 . S
O1030 C1000 1.325 . S
O1031 Li969 1.961 . S
O1031 Li970 1.970 . S
O1031 Li971 1.956 . S
O1031 C1006 1.325 . S
H1032 C974 0.929 . S
H1033 C975 0.930 . S
H1034 C976 0.930 . S
H1035 C977 0.930 . S
H1036 C979 0.920 1_554 S
H1037 C981 0.929 . S
H1038 C982 0.930 . S
H1039 C983 0.930 . S
H1040 C986 0.930 . S
H1041 C989 0.929 . S
H1042 C994 0.929 . S
H1043 C995 0.930 . S
H1044 C1002 0.929 . S
H1045 C1003 0.930 . S
H1046 C1004 0.930 . S
H1047 C1005 0.930 . S
H1048 C1007 0.929 . S
H1049 C1008 0.930 . S
H1050 C1009 0.930 . S
H1051 C1010 0.930 . S
H1052 C1014 0.929 . S
H1053 C1016 0.930 . S
H1054 C1022 0.929 . S
H1055 C1023 0.930 . S
Li1056 N1073 1.990 . S
Li1056 O1116 1.956 . S
Li1056 O1117 1.970 . S
Li1056 O1118 1.961 . S
Li1057 N1081 1.990 . S
Li1057 O1116 1.970 . S
Li1057 O1117 1.956 . S
Li1057 O1119 1.961 . S
Li1058 N1103 1.990 . S
Li1058 O1116 1.961 . S
Li1058 O1118 1.956 . S
Li1058 O1119 1.970 . S
Li1059 N1109 1.990 . S
Li1059 O1117 1.961 . S
Li1059 O1118 1.970 . S
Li1059 O1119 1.956 . S
C1060 C1062 1.348 . S
C1060 C1063 1.356 . S
C1060 O1116 1.325 . S
N1061 C1064 1.314 . S
N1061 C1065 1.279 . S
C1062 C1060 1.348 . S
C1062 C1064 1.353 . S
C1062 H1120 0.929 . S
C1063 C1060 1.356 . S
C1063 C1065 1.358 . S
C1063 H1121 0.930 . S
C1064 N1061 1.314 . S
C1064 C1062 1.353 . S
C1064 H1122 0.930 . S
C1065 N1061 1.279 . S
C1065 C1063 1.358 . S
C1065 H1123 0.930 . S
C1066 C1069 1.348 . S
C1066 C1070 1.356 . S
C1066 O1117 1.325 . S
C1067 N1068 1.279 1_556 S
C1067 C1070 1.358 . S
C1067 H1124 0.930 1_556 S
N1068 C1067 1.279 1_554 S
N1068 C1071 1.314 . S
C1069 C1066 1.348 . S
C1069 C1071 1.353 1_556 S
C1069 H1125 0.929 . S
C1070 C1066 1.356 . S
C1070 C1067 1.358 . S
C1070 H1126 0.930 . S
C1071 N1068 1.314 . S
C1071 C1069 1.353 1_554 S
C1071 H1127 0.930 . S
C1072 N1073 1.314 . S
C1072 C1077 1.353 . S
C1072 H1078 0.930 . S
N1073 Li1056 1.990 . S
N1073 C1072 1.314 . S
N1073 C1075 1.279 . S
C1074 C1075 1.358 . S
C1074 C1076 1.356 . S
C1074 H1128 0.930 . S
C1075 N1073 1.279 . S
C1075 C1074 1.358 . S
C1075 H1079 0.930 . S
C1076 C1074 1.356 . S
C1076 C1077 1.348 . S
C1077 C1072 1.353 . S
C1077 C1076 1.348 . S
C1077 H1129 0.929 . S
H1078 C1072 0.930 . S
H1079 C1075 0.930 . S
C1080 N1081 1.314 . S
C1080 C1082 1.353 . S
C1080 H1086 0.930 . S
N1081 Li1057 1.990 . S
N1081 C1080 1.314 . S
N1081 C1084 1.279 . S
C1082 C1080 1.353 . S
C1082 C1085 1.348 . S
C1082 H1130 0.929 . S
C1083 C1084 1.358 . S
C1083 C1085 1.356 . S
C1083 H1131 0.930 . S
C1084 N1081 1.279 . S
C1084 C1083 1.358 . S
C1084 H1087 0.930 . S
C1085 C1082 1.348 . S
C1085 C1083 1.356 . S
H1086 C1080 0.930 . S
H1087 C1084 0.930 . S
C1088 C1090 1.348 . S
C1088 C1091 1.356 . S
C1088 O1118 1.325 . S
N1089 C1092 1.314 . S
N1089 C1093 1.279 . S
C1090 C1088 1.348 . S
C1090 C1092 1.353 . S
C1090 H1132 0.929 . S
C1091 C1088 1.356 . S
C1091 C1093 1.358 . S
C1091 H1133 0.930 . S
C1092 N1089 1.314 . S
C1092 C1090 1.353 . S
C1092 H1134 0.930 . S
C1093 N1089 1.279 . S
C1093 C1091 1.358 . S
C1093 H1135 0.930 . S
C1094 C1095 1.348 . S
C1094 C1096 1.356 . S
C1094 O1119 1.325 . S
C1095 C1094 1.348 . S
C1095 C1097 1.353 . S
C1095 H1136 0.929 . S
C1096 C1094 1.356 . S
C1096 C1098 1.358 . S
C1096 H1137 0.930 . S
C1097 C1095 1.353 . S
C1097 N1099 1.314 . S
C1097 H1138 0.930 . S
C1098 C1096 1.358 . S
C1098 N1099 1.279 . S
C1098 H1139 0.930 . S
N1099 C1097 1.314 . S
N1099 C1098 1.279 . S
C1100 C1102 1.353 . S
C1100 N1103 1.314 . S
C1100 H1106 0.930 . S
C1101 N1103 1.279 . S
C1101 C1104 1.358 . S
C1101 H1107 0.930 . S
C1102 C1100 1.353 . S
C1102 C1105 1.348 . S
C1102 H1140 0.929 . S
N1103 Li1058 1.990 . S
N1103 C1100 1.314 . S
N1103 C1101 1.279 . S
C1104 C1101 1.358 . S
C1104 C1105 1.356 . S
C1104 H1141 0.930 . S
C1105 C1102 1.348 . S
C1105 C1104 1.356 . S
H1106 C1100 0.930 . S
H1107 C1101 0.930 . S
C1108 N1109 1.314 . S
C1108 C1110 1.353 . S
C1108 H1114 0.930 . S
N1109 Li1059 1.990 . S
N1109 C1108 1.314 . S
N1109 C1112 1.279 . S
C1110 C1108 1.353 . S
C1110 C1113 1.348 . S
C1110 H1142 0.929 . S
C1111 C1112 1.358 . S
C1111 C1113 1.356 . S
C1111 H1143 0.930 . S
C1112 N1109 1.279 . S
C1112 C1111 1.358 . S
C1112 H1115 0.930 . S
C1113 C1110 1.348 . S
C1113 C1111 1.356 . S
H1114 C1108 0.930 . S
H1115 C1112 0.930 . S
O1116 Li1056 1.956 . S
O1116 Li1057 1.970 . S
O1116 Li1058 1.961 . S
O1116 C1060 1.325 . S
O1117 Li1056 1.970 . S
O1117 Li1057 1.956 . S
O1117 Li1059 1.961 . S
O1117 C1066 1.325 . S
O1118 Li1056 1.961 . S
O1118 Li1058 1.956 . S
O1118 Li1059 1.970 . S
O1118 C1088 1.325 . S
O1119 Li1057 1.961 . S
O1119 Li1058 1.970 . S
O1119 Li1059 1.956 . S
O1119 C1094 1.325 . S
H1120 C1062 0.929 . S
H1121 C1063 0.930 . S
H1122 C1064 0.930 . S
H1123 C1065 0.930 . S
H1124 C1067 0.930 1_554 S
H1125 C1069 0.929 . S
H1126 C1070 0.930 . S
H1127 C1071 0.930 . S
H1128 C1074 0.930 . S
H1129 C1077 0.929 . S
H1130 C1082 0.929 . S
H1131 C1083 0.930 . S
H1132 C1090 0.929 . S
H1133 C1091 0.930 . S
H1134 C1092 0.930 . S
H1135 C1093 0.930 . S
H1136 C1095 0.929 . S
H1137 C1096 0.930 . S
H1138 C1097 0.930 . S
H1139 C1098 0.930 . S
H1140 C1102 0.929 . S
H1141 C1104 0.930 . S
H1142 C1110 0.929 . S
H1143 C1111 0.930 . S
Li1144 N1161 1.990 . S
Li1144 O1204 1.956 . S
Li1144 O1205 1.970 . S
Li1144 O1206 1.961 . S
Li1145 N1169 1.990 . S
Li1145 O1204 1.970 . S
Li1145 O1205 1.956 . S
Li1145 O1207 1.961 . S
Li1146 N1191 1.990 . S
Li1146 O1204 1.961 . S
Li1146 O1206 1.956 . S
Li1146 O1207 1.970 . S
Li1147 N1197 1.990 . S
Li1147 O1205 1.961 . S
Li1147 O1206 1.970 . S
Li1147 O1207 1.956 . S
C1148 C1150 1.348 . S
C1148 C1151 1.356 . S
C1148 O1204 1.325 . S
N1149 C1152 1.314 . S
N1149 C1153 1.279 . S
C1150 C1148 1.348 . S
C1150 C1152 1.353 . S
C1150 H1208 0.929 . S
C1151 C1148 1.356 . S
C1151 C1153 1.358 . S
C1151 H1209 0.930 . S
C1152 N1149 1.314 . S
C1152 C1150 1.353 . S
C1152 H1210 0.930 . S
C1153 N1149 1.279 . S
C1153 C1151 1.358 . S
C1153 H1211 0.930 . S
C1154 C1157 1.348 . S
C1154 C1158 1.356 . S
C1154 O1205 1.325 . S
C1155 N1156 1.279 . S
C1155 C1158 1.358 . S
C1155 H1212 0.930 . S
N1156 C1155 1.279 . S
N1156 C1159 1.314 . S
C1157 C1154 1.348 . S
C1157 C1159 1.353 . S
C1157 H1213 0.929 . S
C1158 C1154 1.356 . S
C1158 C1155 1.358 . S
C1158 H1214 0.930 . S
C1159 N1156 1.314 . S
C1159 C1157 1.353 . S
C1159 H1215 0.930 . S
C1160 N1161 1.314 . S
C1160 C1165 1.353 . S
C1160 H1166 0.930 . S
N1161 Li1144 1.990 . S
N1161 C1160 1.314 . S
N1161 C1163 1.279 . S
C1162 C1163 1.358 . S
C1162 C1164 1.356 . S
C1162 H1216 0.930 . S
C1163 N1161 1.279 . S
C1163 C1162 1.358 . S
C1163 H1167 0.930 . S
C1164 C1162 1.356 . S
C1164 C1165 1.348 . S
C1165 C1160 1.353 . S
C1165 C1164 1.348 . S
C1165 H1217 0.929 . S
H1166 C1160 0.930 . S
H1167 C1163 0.930 . S
C1168 N1169 1.314 . S
C1168 C1170 1.353 . S
C1168 H1174 0.930 . S
N1169 Li1145 1.990 . S
N1169 C1168 1.314 . S
N1169 C1172 1.279 . S
C1170 C1168 1.353 . S
C1170 C1173 1.348 . S
C1170 H1218 0.929 . S
C1171 C1172 1.358 . S
C1171 C1173 1.356 . S
C1171 H1219 0.930 . S
C1172 N1169 1.279 . S
C1172 C1171 1.358 . S
C1172 H1175 0.930 . S
C1173 C1170 1.348 . S
C1173 C1171 1.356 . S
H1174 C1168 0.930 . S
H1175 C1172 0.930 . S
C1176 C1178 1.348 . S
C1176 C1179 1.356 . S
C1176 O1206 1.325 . S
N1177 C1180 1.314 . S
N1177 C1181 1.279 . S
C1178 C1176 1.348 . S
C1178 C1180 1.353 . S
C1178 H1220 0.929 . S
C1179 C1176 1.356 . S
C1179 C1181 1.358 . S
C1179 H1221 0.930 . S
C1180 N1177 1.314 . S
C1180 C1178 1.353 . S
C1180 H1222 0.930 . S
C1181 N1177 1.279 . S
C1181 C1179 1.358 . S
C1181 H1223 0.930 . S
C1182 C1183 1.348 . S
C1182 C1184 1.356 . S
C1182 O1207 1.325 . S
C1183 C1182 1.348 . S
C1183 C1185 1.353 . S
C1183 H1224 0.929 . S
C1184 C1182 1.356 . S
C1184 C1186 1.358 . S
C1184 H1225 0.930 . S
C1185 C1183 1.353 . S
C1185 N1187 1.314 . S
C1185 H1226 0.930 . S
C1186 C1184 1.358 . S
C1186 N1187 1.279 . S
C1186 H1227 0.930 . S
N1187 C1185 1.314 . S
N1187 C1186 1.279 . S
C1188 C1190 1.353 . S
C1188 N1191 1.314 . S
C1188 H1194 0.930 . S
C1189 N1191 1.279 . S
C1189 C1192 1.358 . S
C1189 H1195 0.930 . S
C1190 C1188 1.353 . S
C1190 C1193 1.348 . S
C1190 H1228 0.929 . S
N1191 Li1146 1.990 . S
N1191 C1188 1.314 . S
N1191 C1189 1.279 . S
C1192 C1189 1.358 . S
C1192 C1193 1.356 . S
C1192 H1229 0.930 . S
C1193 C1190 1.348 . S
C1193 C1192 1.356 . S
H1194 C1188 0.930 . S
H1195 C1189 0.930 . S
C1196 N1197 1.314 . S
C1196 C1198 1.353 . S
C1196 H1202 0.930 . S
N1197 Li1147 1.990 . S
N1197 C1196 1.314 . S
N1197 C1200 1.279 . S
C1198 C1196 1.353 . S
C1198 C1201 1.348 . S
C1198 H1230 0.929 . S
C1199 C1200 1.358 . S
C1199 C1201 1.356 . S
C1199 H1231 0.930 . S
C1200 N1197 1.279 . S
C1200 C1199 1.358 . S
C1200 H1203 0.930 . S
C1201 C1198 1.348 . S
C1201 C1199 1.356 . S
H1202 C1196 0.930 . S
H1203 C1200 0.930 . S
O1204 Li1144 1.956 . S
O1204 Li1145 1.970 . S
O1204 Li1146 1.961 . S
O1204 C1148 1.325 . S
O1205 Li1144 1.970 . S
O1205 Li1145 1.956 . S
O1205 Li1147 1.961 . S
O1205 C1154 1.325 . S
O1206 Li1144 1.961 . S
O1206 Li1146 1.956 . S
O1206 Li1147 1.970 . S
O1206 C1176 1.325 . S
O1207 Li1145 1.961 . S
O1207 Li1146 1.970 . S
O1207 Li1147 1.956 . S
O1207 C1182 1.325 . S
H1208 C1150 0.929 . S
H1209 C1151 0.930 . S
H1210 C1152 0.930 . S
H1211 C1153 0.930 . S
H1212 C1155 0.930 . S
H1213 C1157 0.929 . S
H1214 C1158 0.930 . S
H1215 C1159 0.930 . S
H1216 C1162 0.930 . S
H1217 C1165 0.929 . S
H1218 C1170 0.929 . S
H1219 C1171 0.930 . S
H1220 C1178 0.929 . S
H1221 C1179 0.930 . S
H1222 C1180 0.930 . S
H1223 C1181 0.930 . S
H1224 C1183 0.929 . S
H1225 C1184 0.930 . S
H1226 C1185 0.930 . S
H1227 C1186 0.930 . S
H1228 C1190 0.929 . S
H1229 C1192 0.930 . S
H1230 C1198 0.929 . S
H1231 C1199 0.930 . S
Li1232 N1249 1.990 . S
Li1232 O1292 1.956 . S
Li1232 O1293 1.970 . S
Li1232 O1294 1.961 . S
Li1233 N1257 1.990 . S
Li1233 O1292 1.970 . S
Li1233 O1293 1.956 . S
Li1233 O1295 1.961 . S
Li1234 N1279 1.990 . S
Li1234 O1292 1.961 . S
Li1234 O1294 1.956 . S
Li1234 O1295 1.970 . S
Li1235 N1285 1.990 . S
Li1235 O1293 1.961 . S
Li1235 O1294 1.970 . S
Li1235 O1295 1.956 . S
C1236 C1238 1.348 . S
C1236 C1239 1.356 . S
C1236 O1292 1.325 . S
N1237 C1240 1.314 . S
N1237 C1241 1.279 1_554 S
C1238 C1236 1.348 . S
C1238 C1240 1.353 1_556 S
C1238 H1296 0.929 . S
C1239 C1236 1.356 . S
C1239 C1241 1.358 . S
C1239 H1297 0.930 . S
C1240 N1237 1.314 . S
C1240 C1238 1.353 1_554 S
C1240 H1298 0.930 . S
C1241 N1237 1.279 1_556 S
C1241 C1239 1.358 . S
C1241 H1299 0.930 1_556 S
C1242 C1245 1.348 . S
C1242 C1246 1.356 . S
C1242 O1293 1.325 . S
C1243 N1244 1.279 . S
C1243 C1246 1.358 . S
C1243 H1300 0.930 . S
N1244 C1243 1.279 . S
N1244 C1247 1.314 . S
C1245 C1242 1.348 . S
C1245 C1247 1.353 . S
C1245 H1301 0.929 . S
C1246 C1242 1.356 . S
C1246 C1243 1.358 . S
C1246 H1302 0.930 . S
C1247 N1244 1.314 . S
C1247 C1245 1.353 . S
C1247 H1303 0.930 . S
C1248 N1249 1.314 . S
C1248 C1253 1.353 . S
C1248 H1254 0.930 . S
N1249 Li1232 1.990 . S
N1249 C1248 1.314 . S
N1249 C1251 1.279 . S
C1250 C1251 1.358 . S
C1250 C1252 1.356 . S
C1250 H1304 0.930 . S
C1251 N1249 1.279 . S
C1251 C1250 1.358 . S
C1251 H1255 0.930 . S
C1252 C1250 1.356 . S
C1252 C1253 1.348 . S
C1253 C1248 1.353 . S
C1253 C1252 1.348 . S
C1253 H1305 0.929 . S
H1254 C1248 0.930 . S
H1255 C1251 0.930 . S
C1256 N1257 1.314 . S
C1256 C1258 1.353 . S
C1256 H1262 0.930 . S
N1257 Li1233 1.990 . S
N1257 C1256 1.314 . S
N1257 C1260 1.279 . S
C1258 C1256 1.353 . S
C1258 C1261 1.348 . S
C1258 H1306 0.929 . S
C1259 C1260 1.358 . S
C1259 C1261 1.356 . S
C1259 H1307 0.930 . S
C1260 N1257 1.279 . S
C1260 C1259 1.358 . S
C1260 H1263 0.930 . S
C1261 C1258 1.348 . S
C1261 C1259 1.356 . S
H1262 C1256 0.930 . S
H1263 C1260 0.930 . S
C1264 C1266 1.348 . S
C1264 C1267 1.356 . S
C1264 O1294 1.325 . S
N1265 C1268 1.314 . S
N1265 C1269 1.279 . S
C1266 C1264 1.348 . S
C1266 C1268 1.353 . S
C1266 H1308 0.929 . S
C1267 C1264 1.356 . S
C1267 C1269 1.358 . S
C1267 H1309 0.930 . S
C1268 N1265 1.314 . S
C1268 C1266 1.353 . S
C1268 H1310 0.930 . S
C1269 N1265 1.279 . S
C1269 C1267 1.358 . S
C1269 H1311 0.930 . S
C1270 C1271 1.348 . S
C1270 C1272 1.356 . S
C1270 O1295 1.325 . S
C1271 C1270 1.348 . S
C1271 C1273 1.353 . S
C1271 H1312 0.929 . S
C1272 C1270 1.356 . S
C1272 C1274 1.358 . S
C1272 H1313 0.930 . S
C1273 C1271 1.353 . S
C1273 N1275 1.314 . S
C1273 H1314 0.930 . S
C1274 C1272 1.358 . S
C1274 N1275 1.279 . S
C1274 H1315 0.930 . S
N1275 C1273 1.314 . S
N1275 C1274 1.279 . S
C1276 C1278 1.353 . S
C1276 N1279 1.314 . S
C1276 H1282 0.930 . S
C1277 N1279 1.279 . S
C1277 C1280 1.358 . S
C1277 H1283 0.930 . S
C1278 C1276 1.353 . S
C1278 C1281 1.348 . S
C1278 H1316 0.929 . S
N1279 Li1234 1.990 . S
N1279 C1276 1.314 . S
N1279 C1277 1.279 . S
C1280 C1277 1.358 . S
C1280 C1281 1.356 . S
C1280 H1317 0.930 . S
C1281 C1278 1.348 . S
C1281 C1280 1.356 . S
H1282 C1276 0.930 . S
H1283 C1277 0.930 . S
C1284 N1285 1.314 . S
C1284 C1286 1.353 . S
C1284 H1290 0.930 . S
N1285 Li1235 1.990 . S
N1285 C1284 1.314 . S
N1285 C1288 1.279 . S
C1286 C1284 1.353 . S
C1286 C1289 1.348 . S
C1286 H1318 0.929 . S
C1287 C1288 1.358 . S
C1287 C1289 1.356 . S
C1287 H1319 0.930 . S
C1288 N1285 1.279 . S
C1288 C1287 1.358 . S
C1288 H1291 0.930 . S
C1289 C1286 1.348 . S
C1289 C1287 1.356 . S
H1290 C1284 0.930 . S
H1291 C1288 0.930 . S
O1292 Li1232 1.956 . S
O1292 Li1233 1.970 . S
O1292 Li1234 1.961 . S
O1292 C1236 1.325 . S
O1293 Li1232 1.970 . S
O1293 Li1233 1.956 . S
O1293 Li1235 1.961 . S
O1293 C1242 1.325 . S
O1294 Li1232 1.961 . S
O1294 Li1234 1.956 . S
O1294 Li1235 1.970 . S
O1294 C1264 1.325 . S
O1295 Li1233 1.961 . S
O1295 Li1234 1.970 . S
O1295 Li1235 1.956 . S
O1295 C1270 1.325 . S
H1296 C1238 0.929 . S
H1297 C1239 0.930 . S
H1298 C1240 0.930 . S
H1299 C1241 0.930 1_554 S
H1300 C1243 0.930 . S
H1301 C1245 0.929 . S
H1302 C1246 0.930 . S
H1303 C1247 0.930 . S
H1304 C1250 0.930 . S
H1305 C1253 0.929 . S
H1306 C1258 0.929 . S
H1307 C1259 0.930 . S
H1308 C1266 0.929 . S
H1309 C1267 0.930 . S
H1310 C1268 0.930 . S
H1311 C1269 0.930 . S
H1312 C1271 0.929 . S
H1313 C1272 0.930 . S
H1314 C1273 0.930 . S
H1315 C1274 0.930 . S
H1316 C1278 0.929 . S
H1317 C1280 0.930 . S
H1318 C1286 0.929 . S
H1319 C1287 0.930 . S
Li1320 N1337 1.990 . S
Li1320 O1380 1.956 . S
Li1320 O1381 1.970 . S
Li1320 O1382 1.961 . S
Li1321 N1345 1.990 . S
Li1321 O1380 1.970 . S
Li1321 O1381 1.956 . S
Li1321 O1383 1.961 . S
Li1322 N1367 1.990 . S
Li1322 O1380 1.961 . S
Li1322 O1382 1.956 . S
Li1322 O1383 1.970 . S
Li1323 N1373 1.990 . S
Li1323 O1381 1.961 . S
Li1323 O1382 1.970 . S
Li1323 O1383 1.956 . S
C1324 C1326 1.348 . S
C1324 C1327 1.356 . S
C1324 O1380 1.325 . S
N1325 C1328 1.314 . S
N1325 C1329 1.279 . S
C1326 C1324 1.348 . S
C1326 C1328 1.353 . S
C1326 H1384 0.929 . S
C1327 C1324 1.356 . S
C1327 C1329 1.358 . S
C1327 H1385 0.930 . S
C1328 N1325 1.314 . S
C1328 C1326 1.353 . S
C1328 H1386 0.930 . S
C1329 N1325 1.279 . S
C1329 C1327 1.358 . S
C1329 H1387 0.930 . S
C1330 C1333 1.348 . S
C1330 C1334 1.356 . S
C1330 O1381 1.325 . S
C1331 N1332 1.279 . S
C1331 C1334 1.358 . S
C1331 H1388 0.930 . S
N1332 C1331 1.279 . S
N1332 C1335 1.314 . S
C1333 C1330 1.348 . S
C1333 C1335 1.353 . S
C1333 H1389 0.929 . S
C1334 C1330 1.356 . S
C1334 C1331 1.358 . S
C1334 H1390 0.930 . S
C1335 N1332 1.314 . S
C1335 C1333 1.353 . S
C1335 H1391 0.930 . S
C1336 N1337 1.314 . S
C1336 C1341 1.353 . S
C1336 H1342 0.930 . S
N1337 Li1320 1.990 . S
N1337 C1336 1.314 . S
N1337 C1339 1.279 . S
C1338 C1339 1.358 . S
C1338 C1340 1.356 . S
C1338 H1392 0.930 . S
C1339 N1337 1.279 . S
C1339 C1338 1.358 . S
C1339 H1343 0.930 . S
C1340 C1338 1.356 . S
C1340 C1341 1.348 . S
C1341 C1336 1.353 . S
C1341 C1340 1.348 . S
C1341 H1393 0.929 . S
H1342 C1336 0.930 . S
H1343 C1339 0.930 . S
C1344 N1345 1.314 . S
C1344 C1346 1.353 . S
C1344 H1350 0.930 . S
N1345 Li1321 1.990 . S
N1345 C1344 1.314 . S
N1345 C1348 1.279 . S
C1346 C1344 1.353 . S
C1346 C1349 1.348 . S
C1346 H1394 0.929 . S
C1347 C1348 1.358 . S
C1347 C1349 1.356 . S
C1347 H1395 0.930 . S
C1348 N1345 1.279 . S
C1348 C1347 1.358 . S
C1348 H1351 0.930 . S
C1349 C1346 1.348 . S
C1349 C1347 1.356 . S
H1350 C1344 0.930 . S
H1351 C1348 0.930 . S
C1352 C1354 1.348 . S
C1352 C1355 1.356 . S
C1352 O1382 1.325 . S
N1353 C1356 1.314 . S
N1353 C1357 1.279 . S
C1354 C1352 1.348 . S
C1354 C1356 1.353 . S
C1354 H1396 0.929 . S
C1355 C1352 1.356 . S
C1355 C1357 1.358 . S
C1355 H1397 0.930 . S
C1356 N1353 1.314 . S
C1356 C1354 1.353 . S
C1356 H1398 0.930 . S
C1357 N1353 1.279 . S
C1357 C1355 1.358 . S
C1357 H1399 0.930 . S
C1358 C1359 1.348 . S
C1358 C1360 1.356 . S
C1358 O1383 1.325 . S
C1359 C1358 1.348 . S
C1359 C1361 1.353 . S
C1359 H1400 0.929 . S
C1360 C1358 1.356 . S
C1360 C1362 1.358 . S
C1360 H1401 0.930 . S
C1361 C1359 1.353 . S
C1361 N1363 1.314 . S
C1361 H1402 0.930 . S
C1362 C1360 1.358 . S
C1362 N1363 1.279 . S
C1362 H1403 0.930 . S
N1363 C1361 1.314 . S
N1363 C1362 1.279 . S
C1364 C1366 1.353 . S
C1364 N1367 1.314 . S
C1364 H1370 0.930 . S
C1365 N1367 1.279 . S
C1365 C1368 1.358 . S
C1365 H1371 0.930 . S
C1366 C1364 1.353 . S
C1366 C1369 1.348 . S
C1366 H1404 0.929 . S
N1367 Li1322 1.990 . S
N1367 C1364 1.314 . S
N1367 C1365 1.279 . S
C1368 C1365 1.358 . S
C1368 C1369 1.356 . S
C1368 H1405 0.930 . S
C1369 C1366 1.348 . S
C1369 C1368 1.356 . S
H1370 C1364 0.930 . S
H1371 C1365 0.930 . S
C1372 N1373 1.314 . S
C1372 C1374 1.353 . S
C1372 H1378 0.930 . S
N1373 Li1323 1.990 . S
N1373 C1372 1.314 . S
N1373 C1376 1.279 . S
C1374 C1372 1.353 . S
C1374 C1377 1.348 . S
C1374 H1406 0.929 . S
C1375 C1376 1.358 . S
C1375 C1377 1.356 . S
C1375 H1407 0.930 . S
C1376 N1373 1.279 . S
C1376 C1375 1.358 . S
C1376 H1379 0.930 . S
C1377 C1374 1.348 . S
C1377 C1375 1.356 . S
H1378 C1372 0.930 . S
H1379 C1376 0.930 . S
O1380 Li1320 1.956 . S
O1380 Li1321 1.970 . S
O1380 Li1322 1.961 . S
O1380 C1324 1.325 . S
O1381 Li1320 1.970 . S
O1381 Li1321 1.956 . S
O1381 Li1323 1.961 . S
O1381 C1330 1.325 . S
O1382 Li1320 1.961 . S
O1382 Li1322 1.956 . S
O1382 Li1323 1.970 . S
O1382 C1352 1.325 . S
O1383 Li1321 1.961 . S
O1383 Li1322 1.970 . S
O1383 Li1323 1.956 . S
O1383 C1358 1.325 . S
H1384 C1326 0.929 . S
H1385 C1327 0.930 . S
H1386 C1328 0.930 . S
H1387 C1329 0.930 . S
H1388 C1331 0.930 . S
H1389 C1333 0.929 . S
H1390 C1334 0.930 . S
H1391 C1335 0.930 . S
H1392 C1338 0.930 . S
H1393 C1341 0.929 . S
H1394 C1346 0.929 . S
H1395 C1347 0.930 . S
H1396 C1354 0.929 . S
H1397 C1355 0.930 . S
H1398 C1356 0.930 . S
H1399 C1357 0.930 . S
H1400 C1359 0.929 . S
H1401 C1360 0.930 . S
H1402 C1361 0.930 . S
H1403 C1362 0.930 . S
H1404 C1366 0.929 . S
H1405 C1368 0.930 . S
H1406 C1374 0.929 . S
H1407 C1375 0.930 . S
Li1408 N1425 1.990 . S
Li1408 O1468 1.956 . S
Li1408 O1469 1.970 . S
Li1408 O1470 1.961 . S
Li1409 N1433 1.990 . S
Li1409 O1468 1.970 . S
Li1409 O1469 1.956 . S
Li1409 O1471 1.961 . S
Li1410 N1455 1.990 . S
Li1410 O1468 1.961 . S
Li1410 O1470 1.956 . S
Li1410 O1471 1.970 . S
Li1411 N1461 1.990 . S
Li1411 O1469 1.961 . S
Li1411 O1470 1.970 . S
Li1411 O1471 1.956 . S
C1412 C1414 1.348 . S
C1412 C1415 1.356 . S
C1412 O1468 1.325 . S
N1413 C1416 1.314 . S
N1413 C1417 1.279 1_554 S
C1414 C1412 1.348 . S
C1414 C1416 1.353 1_556 S
C1414 H1472 0.929 . S
C1415 C1412 1.356 . S
C1415 C1417 1.358 . S
C1415 H1473 0.930 . S
C1416 N1413 1.314 . S
C1416 C1414 1.353 1_554 S
C1416 H1474 0.930 . S
C1417 N1413 1.279 1_556 S
C1417 C1415 1.358 . S
C1417 H1475 0.930 1_556 S
C1418 C1421 1.348 . S
C1418 C1422 1.356 . S
C1418 O1469 1.325 . S
C1419 N1420 1.279 . S
C1419 C1422 1.358 . S
C1419 H1476 0.930 . S
N1420 C1419 1.279 . S
N1420 C1423 1.314 . S
C1421 C1418 1.348 . S
C1421 C1423 1.353 . S
C1421 H1477 0.929 . S
C1422 C1418 1.356 . S
C1422 C1419 1.358 . S
C1422 H1478 0.930 . S
C1423 N1420 1.314 . S
C1423 C1421 1.353 . S
C1423 H1479 0.930 . S
C1424 N1425 1.314 . S
C1424 C1429 1.353 . S
C1424 H1430 0.930 . S
N1425 Li1408 1.990 . S
N1425 C1424 1.314 . S
N1425 C1427 1.279 . S
C1426 C1427 1.358 . S
C1426 C1428 1.356 . S
C1426 H1480 0.930 . S
C1427 N1425 1.279 . S
C1427 C1426 1.358 . S
C1427 H1431 0.930 . S
C1428 C1426 1.356 . S
C1428 C1429 1.348 . S
C1429 C1424 1.353 . S
C1429 C1428 1.348 . S
C1429 H1481 0.929 . S
H1430 C1424 0.930 . S
H1431 C1427 0.930 . S
C1432 N1433 1.314 . S
C1432 C1434 1.353 . S
C1432 H1438 0.930 . S
N1433 Li1409 1.990 . S
N1433 C1432 1.314 . S
N1433 C1436 1.279 . S
C1434 C1432 1.353 . S
C1434 C1437 1.348 . S
C1434 H1482 0.929 . S
C1435 C1436 1.358 . S
C1435 C1437 1.356 . S
C1435 H1483 0.930 . S
C1436 N1433 1.279 . S
C1436 C1435 1.358 . S
C1436 H1439 0.930 . S
C1437 C1434 1.348 . S
C1437 C1435 1.356 . S
H1438 C1432 0.930 . S
H1439 C1436 0.930 . S
C1440 C1442 1.348 . S
C1440 C1443 1.356 . S
C1440 O1470 1.325 . S
N1441 C1444 1.314 . S
N1441 C1445 1.279 . S
C1442 C1440 1.348 . S
C1442 C1444 1.353 . S
C1442 H1484 0.929 . S
C1443 C1440 1.356 . S
C1443 C1445 1.358 . S
C1443 H1485 0.930 . S
C1444 N1441 1.314 . S
C1444 C1442 1.353 . S
C1444 H1486 0.930 . S
C1445 N1441 1.279 . S
C1445 C1443 1.358 . S
C1445 H1487 0.930 . S
C1446 C1447 1.348 . S
C1446 C1448 1.356 . S
C1446 O1471 1.325 . S
C1447 C1446 1.348 . S
C1447 C1449 1.353 . S
C1447 H1488 0.929 . S
C1448 C1446 1.356 . S
C1448 C1450 1.358 . S
C1448 H1489 0.930 . S
C1449 C1447 1.353 . S
C1449 N1451 1.314 . S
C1449 H1490 0.930 . S
C1450 C1448 1.358 . S
C1450 N1451 1.279 . S
C1450 H1491 0.930 . S
N1451 C1449 1.314 . S
N1451 C1450 1.279 . S
C1452 C1454 1.353 . S
C1452 N1455 1.314 . S
C1452 H1458 0.930 . S
C1453 N1455 1.279 . S
C1453 C1456 1.358 . S
C1453 H1459 0.930 . S
C1454 C1452 1.353 . S
C1454 C1457 1.348 . S
C1454 H1492 0.929 . S
N1455 Li1410 1.990 . S
N1455 C1452 1.314 . S
N1455 C1453 1.279 . S
C1456 C1453 1.358 . S
C1456 C1457 1.356 . S
C1456 H1493 0.930 . S
C1457 C1454 1.348 . S
C1457 C1456 1.356 . S
H1458 C1452 0.930 . S
H1459 C1453 0.930 . S
C1460 N1461 1.314 . S
C1460 C1462 1.353 . S
C1460 H1466 0.930 . S
N1461 Li1411 1.990 . S
N1461 C1460 1.314 . S
N1461 C1464 1.279 . S
C1462 C1460 1.353 . S
C1462 C1465 1.348 . S
C1462 H1494 0.929 . S
C1463 C1464 1.358 . S
C1463 C1465 1.356 . S
C1463 H1495 0.930 . S
C1464 N1461 1.279 . S
C1464 C1463 1.358 . S
C1464 H1467 0.930 . S
C1465 C1462 1.348 . S
C1465 C1463 1.356 . S
H1466 C1460 0.930 . S
H1467 C1464 0.930 . S
O1468 Li1408 1.956 . S
O1468 Li1409 1.970 . S
O1468 Li1410 1.961 . S
O1468 C1412 1.325 . S
O1469 Li1408 1.970 . S
O1469 Li1409 1.956 . S
O1469 Li1411 1.961 . S
O1469 C1418 1.325 . S
O1470 Li1408 1.961 . S
O1470 Li1410 1.956 . S
O1470 Li1411 1.970 . S
O1470 C1440 1.325 . S
O1471 Li1409 1.961 . S
O1471 Li1410 1.970 . S
O1471 Li1411 1.956 . S
O1471 C1446 1.325 . S
H1472 C1414 0.929 . S
H1473 C1415 0.930 . S
H1474 C1416 0.930 . S
H1475 C1417 0.930 1_554 S
H1476 C1419 0.930 . S
H1477 C1421 0.929 . S
H1478 C1422 0.930 . S
H1479 C1423 0.930 . S
H1480 C1426 0.930 . S
H1481 C1429 0.929 . S
H1482 C1434 0.929 . S
H1483 C1435 0.930 . S
H1484 C1442 0.929 . S
H1485 C1443 0.930 . S
H1486 C1444 0.930 . S
H1487 C1445 0.930 . S
H1488 C1447 0.929 . S
H1489 C1448 0.930 . S
H1490 C1449 0.930 . S
H1491 C1450 0.930 . S
H1492 C1454 0.929 . S
H1493 C1456 0.930 . S
H1494 C1462 0.929 . S
H1495 C1463 0.930 . S
Li1496 N1513 1.990 . S
Li1496 O1556 1.956 . S
Li1496 O1557 1.970 . S
Li1496 O1558 1.961 . S
Li1497 N1521 1.990 . S
Li1497 O1556 1.970 . S
Li1497 O1557 1.956 . S
Li1497 O1559 1.961 . S
Li1498 N1543 1.990 . S
Li1498 O1556 1.961 . S
Li1498 O1558 1.956 . S
Li1498 O1559 1.970 . S
Li1499 N1549 1.990 . S
Li1499 O1557 1.961 . S
Li1499 O1558 1.970 . S
Li1499 O1559 1.956 . S
C1500 C1502 1.348 . S
C1500 C1503 1.356 . S
C1500 O1556 1.325 . S
N1501 C1504 1.314 . S
N1501 C1505 1.279 . S
C1502 C1500 1.348 . S
C1502 C1504 1.353 . S
C1502 H1560 0.929 . S
C1503 C1500 1.356 . S
C1503 C1505 1.358 . S
C1503 H1561 0.930 . S
C1504 N1501 1.314 . S
C1504 C1502 1.353 . S
C1504 H1562 0.930 . S
C1505 N1501 1.279 . S
C1505 C1503 1.358 . S
C1505 H1563 0.930 . S
C1506 C1509 1.348 . S
C1506 C1510 1.356 . S
C1506 O1557 1.325 . S
C1507 N1508 1.279 . S
C1507 C1510 1.358 . S
C1507 H1564 0.930 . S
N1508 C1507 1.279 . S
N1508 C1511 1.314 . S
C1509 C1506 1.348 . S
C1509 C1511 1.353 . S
C1509 H1565 0.929 . S
C1510 C1506 1.356 . S
C1510 C1507 1.358 . S
C1510 H1566 0.930 . S
C1511 N1508 1.314 . S
C1511 C1509 1.353 . S
C1511 H1567 0.930 . S
C1512 N1513 1.314 . S
C1512 C1517 1.353 . S
C1512 H1518 0.930 . S
N1513 Li1496 1.990 . S
N1513 C1512 1.314 . S
N1513 C1515 1.279 . S
C1514 C1515 1.358 . S
C1514 C1516 1.356 . S
C1514 H1568 0.930 . S
C1515 N1513 1.279 . S
C1515 C1514 1.358 . S
C1515 H1519 0.930 . S
C1516 C1514 1.356 . S
C1516 C1517 1.348 . S
C1517 C1512 1.353 . S
C1517 C1516 1.348 . S
C1517 H1569 0.929 . S
H1518 C1512 0.930 . S
H1519 C1515 0.930 . S
C1520 N1521 1.314 . S
C1520 C1522 1.353 . S
C1520 H1526 0.930 . S
N1521 Li1497 1.990 . S
N1521 C1520 1.314 . S
N1521 C1524 1.279 . S
C1522 C1520 1.353 . S
C1522 C1525 1.348 . S
C1522 H1570 0.929 . S
C1523 C1524 1.358 . S
C1523 C1525 1.356 . S
C1523 H1571 0.930 . S
C1524 N1521 1.279 . S
C1524 C1523 1.358 . S
C1524 H1527 0.930 . S
C1525 C1522 1.348 . S
C1525 C1523 1.356 . S
H1526 C1520 0.930 . S
H1527 C1524 0.930 . S
C1528 C1530 1.348 . S
C1528 C1531 1.356 . S
C1528 O1558 1.325 . S
N1529 C1532 1.314 . S
N1529 C1533 1.279 . S
C1530 C1528 1.348 . S
C1530 C1532 1.353 . S
C1530 H1572 0.929 . S
C1531 C1528 1.356 . S
C1531 C1533 1.358 . S
C1531 H1573 0.930 . S
C1532 N1529 1.314 . S
C1532 C1530 1.353 . S
C1532 H1574 0.930 . S
C1533 N1529 1.279 . S
C1533 C1531 1.358 . S
C1533 H1575 0.930 . S
C1534 C1535 1.348 . S
C1534 C1536 1.356 . S
C1534 O1559 1.325 . S
C1535 C1534 1.348 . S
C1535 C1537 1.353 . S
C1535 H1576 0.929 . S
C1536 C1534 1.356 . S
C1536 C1538 1.358 . S
C1536 H1577 0.930 . S
C1537 C1535 1.353 . S
C1537 N1539 1.314 . S
C1537 H1578 0.930 . S
C1538 C1536 1.358 . S
C1538 N1539 1.279 . S
C1538 H1579 0.930 . S
N1539 C1537 1.314 . S
N1539 C1538 1.279 . S
C1540 C1542 1.353 . S
C1540 N1543 1.314 . S
C1540 H1546 0.930 . S
C1541 N1543 1.279 . S
C1541 C1544 1.358 . S
C1541 H1547 0.930 . S
C1542 C1540 1.353 . S
C1542 C1545 1.348 . S
C1542 H1580 0.929 . S
N1543 Li1498 1.990 . S
N1543 C1540 1.314 . S
N1543 C1541 1.279 . S
C1544 C1541 1.358 . S
C1544 C1545 1.356 . S
C1544 H1581 0.930 . S
C1545 C1542 1.348 . S
C1545 C1544 1.356 . S
H1546 C1540 0.930 . S
H1547 C1541 0.930 . S
C1548 N1549 1.314 . S
C1548 C1550 1.353 . S
C1548 H1554 0.930 . S
N1549 Li1499 1.990 . S
N1549 C1548 1.314 . S
N1549 C1552 1.279 . S
C1550 C1548 1.353 . S
C1550 C1553 1.348 . S
C1550 H1582 0.929 . S
C1551 C1552 1.358 . S
C1551 C1553 1.356 . S
C1551 H1583 0.930 . S
C1552 N1549 1.279 . S
C1552 C1551 1.358 . S
C1552 H1555 0.930 . S
C1553 C1550 1.348 . S
C1553 C1551 1.356 . S
H1554 C1548 0.930 . S
H1555 C1552 0.930 . S
O1556 Li1496 1.956 . S
O1556 Li1497 1.970 . S
O1556 Li1498 1.961 . S
O1556 C1500 1.325 . S
O1557 Li1496 1.970 . S
O1557 Li1497 1.956 . S
O1557 Li1499 1.961 . S
O1557 C1506 1.325 . S
O1558 Li1496 1.961 . S
O1558 Li1498 1.956 . S
O1558 Li1499 1.970 . S
O1558 C1528 1.325 . S
O1559 Li1497 1.961 . S
O1559 Li1498 1.970 . S
O1559 Li1499 1.956 . S
O1559 C1534 1.325 . S
H1560 C1502 0.929 . S
H1561 C1503 0.930 . S
H1562 C1504 0.930 . S
H1563 C1505 0.930 . S
H1564 C1507 0.930 . S
H1565 C1509 0.929 . S
H1566 C1510 0.930 . S
H1567 C1511 0.930 . S
H1568 C1514 0.930 . S
H1569 C1517 0.929 . S
H1570 C1522 0.929 . S
H1571 C1523 0.930 . S
H1572 C1530 0.929 . S
H1573 C1531 0.930 . S
H1574 C1532 0.930 . S
H1575 C1533 0.930 . S
H1576 C1535 0.929 . S
H1577 C1536 0.930 . S
H1578 C1537 0.930 . S
H1579 C1538 0.930 . S
H1580 C1542 0.929 . S
H1581 C1544 0.930 . S
H1582 C1550 0.929 . S
H1583 C1551 0.930 . S
Li1584 N1601 1.990 . S
Li1584 O1644 1.956 . S
Li1584 O1645 1.970 . S
Li1584 O1646 1.961 . S
Li1585 N1609 1.990 . S
Li1585 O1644 1.970 . S
Li1585 O1645 1.956 . S
Li1585 O1647 1.961 . S
Li1586 N1631 1.990 . S
Li1586 O1644 1.961 . S
Li1586 O1646 1.956 . S
Li1586 O1647 1.970 . S
Li1587 N1637 1.990 . S
Li1587 O1645 1.961 . S
Li1587 O1646 1.970 . S
Li1587 O1647 1.956 . S
C1588 C1590 1.348 . S
C1588 C1591 1.356 . S
C1588 O1644 1.325 . S
N1589 C1592 1.314 . S
N1589 C1593 1.279 . S
C1590 C1588 1.348 . S
C1590 C1592 1.353 . S
C1590 H1648 0.929 . S
C1591 C1588 1.356 . S
C1591 C1593 1.358 . S
C1591 H1649 0.930 . S
C1592 N1589 1.314 . S
C1592 C1590 1.353 . S
C1592 H1650 0.930 . S
C1593 N1589 1.279 . S
C1593 C1591 1.358 . S
C1593 H1651 0.930 . S
C1594 C1597 1.348 . S
C1594 C1598 1.356 . S
C1594 O1645 1.325 . S
C1595 N1596 1.279 . S
C1595 C1598 1.358 . S
C1595 H1652 0.930 . S
N1596 C1595 1.279 . S
N1596 C1599 1.314 . S
C1597 C1594 1.348 . S
C1597 C1599 1.353 . S
C1597 H1653 0.929 . S
C1598 C1594 1.356 . S
C1598 C1595 1.358 . S
C1598 H1654 0.930 . S
C1599 N1596 1.314 . S
C1599 C1597 1.353 . S
C1599 H1655 0.930 . S
C1600 N1601 1.314 . S
C1600 C1605 1.353 . S
C1600 H1606 0.930 . S
N1601 Li1584 1.990 . S
N1601 C1600 1.314 . S
N1601 C1603 1.279 . S
C1602 C1603 1.358 . S
C1602 C1604 1.356 . S
C1602 H1656 0.930 . S
C1603 N1601 1.279 . S
C1603 C1602 1.358 . S
C1603 H1607 0.930 . S
C1604 C1602 1.356 . S
C1604 C1605 1.348 . S
C1605 C1600 1.353 . S
C1605 C1604 1.348 . S
C1605 H1657 0.929 . S
H1606 C1600 0.930 . S
H1607 C1603 0.930 . S
C1608 N1609 1.314 . S
C1608 C1610 1.353 . S
C1608 H1614 0.930 . S
N1609 Li1585 1.990 . S
N1609 C1608 1.314 . S
N1609 C1612 1.279 . S
C1610 C1608 1.353 . S
C1610 C1613 1.348 . S
C1610 H1658 0.929 . S
C1611 C1612 1.358 . S
C1611 C1613 1.356 . S
C1611 H1659 0.930 . S
C1612 N1609 1.279 . S
C1612 C1611 1.358 . S
C1612 H1615 0.930 . S
C1613 C1610 1.348 . S
C1613 C1611 1.356 . S
H1614 C1608 0.930 . S
H1615 C1612 0.930 . S
C1616 C1618 1.348 . S
C1616 C1619 1.356 . S
C1616 O1646 1.325 . S
N1617 C1620 1.314 . S
N1617 C1621 1.279 . S
C1618 C1616 1.348 . S
C1618 C1620 1.353 . S
C1618 H1660 0.929 . S
C1619 C1616 1.356 . S
C1619 C1621 1.358 . S
C1619 H1661 0.930 . S
C1620 N1617 1.314 . S
C1620 C1618 1.353 . S
C1620 H1662 0.930 . S
C1621 N1617 1.279 . S
C1621 C1619 1.358 . S
C1621 H1663 0.930 . S
C1622 C1623 1.348 . S
C1622 C1624 1.356 . S
C1622 O1647 1.325 . S
C1623 C1622 1.348 . S
C1623 C1625 1.353 . S
C1623 H1664 0.929 . S
C1624 C1622 1.356 . S
C1624 C1626 1.358 . S
C1624 H1665 0.930 . S
C1625 C1623 1.353 . S
C1625 N1627 1.314 . S
C1625 H1666 0.930 . S
C1626 C1624 1.358 . S
C1626 N1627 1.279 . S
C1626 H1667 0.930 . S
N1627 C1625 1.314 . S
N1627 C1626 1.279 . S
C1628 C1630 1.353 . S
C1628 N1631 1.314 . S
C1628 H1634 0.930 . S
C1629 N1631 1.279 . S
C1629 C1632 1.358 . S
C1629 H1635 0.930 . S
C1630 C1628 1.353 . S
C1630 C1633 1.348 . S
C1630 H1668 0.929 . S
N1631 Li1586 1.990 . S
N1631 C1628 1.314 . S
N1631 C1629 1.279 . S
C1632 C1629 1.358 . S
C1632 C1633 1.356 . S
C1632 H1669 0.930 . S
C1633 C1630 1.348 . S
C1633 C1632 1.356 . S
H1634 C1628 0.930 . S
H1635 C1629 0.930 . S
C1636 N1637 1.314 . S
C1636 C1638 1.353 . S
C1636 H1642 0.930 . S
N1637 Li1587 1.990 . S
N1637 C1636 1.314 . S
N1637 C1640 1.279 . S
C1638 C1636 1.353 . S
C1638 C1641 1.348 . S
C1638 H1670 0.929 . S
C1639 C1640 1.358 . S
C1639 C1641 1.356 . S
C1639 H1671 0.930 . S
C1640 N1637 1.279 . S
C1640 C1639 1.358 . S
C1640 H1643 0.930 . S
C1641 C1638 1.348 . S
C1641 C1639 1.356 . S
H1642 C1636 0.930 . S
H1643 C1640 0.930 . S
O1644 Li1584 1.956 . S
O1644 Li1585 1.970 . S
O1644 Li1586 1.961 . S
O1644 C1588 1.325 . S
O1645 Li1584 1.970 . S
O1645 Li1585 1.956 . S
O1645 Li1587 1.961 . S
O1645 C1594 1.325 . S
O1646 Li1584 1.961 . S
O1646 Li1586 1.956 . S
O1646 Li1587 1.970 . S
O1646 C1616 1.325 . S
O1647 Li1585 1.961 . S
O1647 Li1586 1.970 . S
O1647 Li1587 1.956 . S
O1647 C1622 1.325 . S
H1648 C1590 0.929 . S
H1649 C1591 0.930 . S
H1650 C1592 0.930 . S
H1651 C1593 0.930 . S
H1652 C1595 0.930 . S
H1653 C1597 0.929 . S
H1654 C1598 0.930 . S
H1655 C1599 0.930 . S
H1656 C1602 0.930 . S
H1657 C1605 0.929 . S
H1658 C1610 0.929 . S
H1659 C1611 0.930 . S
H1660 C1618 0.929 . S
H1661 C1619 0.930 . S
H1662 C1620 0.930 . S
H1663 C1621 0.930 . S
H1664 C1623 0.929 . S
H1665 C1624 0.930 . S
H1666 C1625 0.930 . S
H1667 C1626 0.930 . S
H1668 C1630 0.929 . S
H1669 C1632 0.930 . S
H1670 C1638 0.929 . S
H1671 C1639 0.930 . S
Li1672 N1689 1.990 . S
Li1672 O1732 1.956 . S
Li1672 O1733 1.970 . S
Li1672 O1734 1.961 . S
Li1673 N1697 1.990 . S
Li1673 O1732 1.970 . S
Li1673 O1733 1.956 . S
Li1673 O1735 1.961 . S
Li1674 N1719 1.990 . S
Li1674 O1732 1.961 . S
Li1674 O1734 1.956 . S
Li1674 O1735 1.970 . S
Li1675 N1725 1.990 . S
Li1675 O1733 1.961 . S
Li1675 O1734 1.970 . S
Li1675 O1735 1.956 . S
C1676 C1678 1.348 . S
C1676 C1679 1.356 . S
C1676 O1732 1.325 . S
N1677 C1680 1.314 . S
N1677 C1681 1.279 . S
C1678 C1676 1.348 . S
C1678 C1680 1.353 . S
C1678 H1736 0.929 . S
C1679 C1676 1.356 . S
C1679 C1681 1.358 . S
C1679 H1737 0.930 . S
C1680 N1677 1.314 . S
C1680 C1678 1.353 . S
C1680 H1738 0.930 . S
C1681 N1677 1.279 . S
C1681 C1679 1.358 . S
C1681 H1739 0.930 . S
C1682 C1685 1.348 . S
C1682 C1686 1.356 . S
C1682 O1733 1.325 . S
C1683 N1684 1.279 . S
C1683 C1686 1.358 . S
C1683 H1740 0.930 . S
N1684 C1683 1.279 . S
N1684 C1687 1.314 . S
C1685 C1682 1.348 . S
C1685 C1687 1.353 . S
C1685 H1741 0.929 . S
C1686 C1682 1.356 . S
C1686 C1683 1.358 . S
C1686 H1742 0.930 . S
C1687 N1684 1.314 . S
C1687 C1685 1.353 . S
C1687 H1743 0.930 . S
C1688 N1689 1.314 . S
C1688 C1693 1.353 . S
C1688 H1694 0.930 . S
N1689 Li1672 1.990 . S
N1689 C1688 1.314 . S
N1689 C1691 1.279 . S
C1690 C1691 1.358 . S
C1690 C1692 1.356 . S
C1690 H1744 0.930 . S
C1691 N1689 1.279 . S
C1691 C1690 1.358 . S
C1691 H1695 0.930 . S
C1692 C1690 1.356 . S
C1692 C1693 1.348 . S
C1693 C1688 1.353 . S
C1693 C1692 1.348 . S
C1693 H1745 0.929 . S
H1694 C1688 0.930 . S
H1695 C1691 0.930 . S
C1696 N1697 1.314 . S
C1696 C1698 1.353 . S
C1696 H1702 0.930 . S
N1697 Li1673 1.990 . S
N1697 C1696 1.314 . S
N1697 C1700 1.279 . S
C1698 C1696 1.353 . S
C1698 C1701 1.348 . S
C1698 H1746 0.929 . S
C1699 C1700 1.358 . S
C1699 C1701 1.356 . S
C1699 H1747 0.930 . S
C1700 N1697 1.279 . S
C1700 C1699 1.358 . S
C1700 H1703 0.930 . S
C1701 C1698 1.348 . S
C1701 C1699 1.356 . S
H1702 C1696 0.930 . S
H1703 C1700 0.930 . S
C1704 C1706 1.348 . S
C1704 C1707 1.356 . S
C1704 O1734 1.325 . S
N1705 C1708 1.314 . S
N1705 C1709 1.279 1_556 S
C1706 C1704 1.348 . S
C1706 C1708 1.353 1_554 S
C1706 H1748 0.929 . S
C1707 C1704 1.356 . S
C1707 C1709 1.358 . S
C1707 H1749 0.930 . S
C1708 N1705 1.314 . S
C1708 C1706 1.353 1_556 S
C1708 H1750 0.930 . S
C1709 N1705 1.279 1_554 S
C1709 C1707 1.358 . S
C1709 H1751 0.930 1_554 S
C1710 C1711 1.348 . S
C1710 C1712 1.356 . S
C1710 O1735 1.325 . S
C1711 C1710 1.348 . S
C1711 C1713 1.353 . S
C1711 H1752 0.929 . S
C1712 C1710 1.356 . S
C1712 C1714 1.358 . S
C1712 H1753 0.930 . S
C1713 C1711 1.353 . S
C1713 N1715 1.314 . S
C1713 H1754 0.930 . S
C1714 C1712 1.358 . S
C1714 N1715 1.279 . S
C1714 H1755 0.930 . S
N1715 C1713 1.314 . S
N1715 C1714 1.279 . S
C1716 C1718 1.353 . S
C1716 N1719 1.314 . S
C1716 H1722 0.930 . S
C1717 N1719 1.279 . S
C1717 C1720 1.358 . S
C1717 H1723 0.930 . S
C1718 C1716 1.353 . S
C1718 C1721 1.348 . S
C1718 H1756 0.929 . S
N1719 Li1674 1.990 . S
N1719 C1716 1.314 . S
N1719 C1717 1.279 . S
C1720 C1717 1.358 . S
C1720 C1721 1.356 . S
C1720 H1757 0.930 . S
C1721 C1718 1.348 . S
C1721 C1720 1.356 . S
H1722 C1716 0.930 . S
H1723 C1717 0.930 . S
C1724 N1725 1.314 . S
C1724 C1726 1.353 . S
C1724 H1730 0.930 . S
N1725 Li1675 1.990 . S
N1725 C1724 1.314 . S
N1725 C1728 1.279 . S
C1726 C1724 1.353 . S
C1726 C1729 1.348 . S
C1726 H1758 0.929 . S
C1727 C1728 1.358 . S
C1727 C1729 1.356 . S
C1727 H1759 0.930 . S
C1728 N1725 1.279 . S
C1728 C1727 1.358 . S
C1728 H1731 0.930 . S
C1729 C1726 1.348 . S
C1729 C1727 1.356 . S
H1730 C1724 0.930 . S
H1731 C1728 0.930 . S
O1732 Li1672 1.956 . S
O1732 Li1673 1.970 . S
O1732 Li1674 1.961 . S
O1732 C1676 1.325 . S
O1733 Li1672 1.970 . S
O1733 Li1673 1.956 . S
O1733 Li1675 1.961 . S
O1733 C1682 1.325 . S
O1734 Li1672 1.961 . S
O1734 Li1674 1.956 . S
O1734 Li1675 1.970 . S
O1734 C1704 1.325 . S
O1735 Li1673 1.961 . S
O1735 Li1674 1.970 . S
O1735 Li1675 1.956 . S
O1735 C1710 1.325 . S
H1736 C1678 0.929 . S
H1737 C1679 0.930 . S
H1738 C1680 0.930 . S
H1739 C1681 0.930 . S
H1740 C1683 0.930 . S
H1741 C1685 0.929 . S
H1742 C1686 0.930 . S
H1743 C1687 0.930 . S
H1744 C1690 0.930 . S
H1745 C1693 0.929 . S
H1746 C1698 0.929 . S
H1747 C1699 0.930 . S
H1748 C1706 0.929 . S
H1749 C1707 0.930 . S
H1750 C1708 0.930 . S
H1751 C1709 0.930 1_556 S
H1752 C1711 0.929 . S
H1753 C1712 0.930 . S
H1754 C1713 0.930 . S
H1755 C1714 0.930 . S
H1756 C1718 0.929 . S
H1757 C1720 0.930 . S
H1758 C1726 0.929 . S
H1759 C1727 0.930 . S
Li1760 N1777 1.990 . S
Li1760 O1820 1.956 . S
Li1760 O1821 1.970 . S
Li1760 O1822 1.961 . S
Li1761 N1785 1.990 . S
Li1761 O1820 1.970 . S
Li1761 O1821 1.956 . S
Li1761 O1823 1.961 . S
Li1762 N1807 1.990 . S
Li1762 O1820 1.961 . S
Li1762 O1822 1.956 . S
Li1762 O1823 1.970 . S
Li1763 N1813 1.990 . S
Li1763 O1821 1.961 . S
Li1763 O1822 1.970 . S
Li1763 O1823 1.956 . S
C1764 C1766 1.348 . S
C1764 C1767 1.356 . S
C1764 O1820 1.325 . S
N1765 C1768 1.314 . S
N1765 C1769 1.279 . S
C1766 C1764 1.348 . S
C1766 C1768 1.353 . S
C1766 H1824 0.929 . S
C1767 C1764 1.356 . S
C1767 C1769 1.358 . S
C1767 H1825 0.930 . S
C1768 N1765 1.314 . S
C1768 C1766 1.353 . S
C1768 H1826 0.930 . S
C1769 N1765 1.279 . S
C1769 C1767 1.358 . S
C1769 H1827 0.930 . S
C1770 C1773 1.348 . S
C1770 C1774 1.356 . S
C1770 O1821 1.325 . S
C1771 N1772 1.279 . S
C1771 C1774 1.358 . S
C1771 H1828 0.930 . S
N1772 C1771 1.279 . S
N1772 C1775 1.314 . S
C1773 C1770 1.348 . S
C1773 C1775 1.353 . S
C1773 H1829 0.929 . S
C1774 C1770 1.356 . S
C1774 C1771 1.358 . S
C1774 H1830 0.930 . S
C1775 N1772 1.314 . S
C1775 C1773 1.353 . S
C1775 H1831 0.930 . S
C1776 N1777 1.314 . S
C1776 C1781 1.353 . S
C1776 H1782 0.930 . S
N1777 Li1760 1.990 . S
N1777 C1776 1.314 . S
N1777 C1779 1.279 . S
C1778 C1779 1.358 . S
C1778 C1780 1.356 . S
C1778 H1832 0.930 . S
C1779 N1777 1.279 . S
C1779 C1778 1.358 . S
C1779 H1783 0.930 . S
C1780 C1778 1.356 . S
C1780 C1781 1.348 . S
C1781 C1776 1.353 . S
C1781 C1780 1.348 . S
C1781 H1833 0.929 . S
H1782 C1776 0.930 . S
H1783 C1779 0.930 . S
C1784 N1785 1.314 . S
C1784 C1786 1.353 . S
C1784 H1790 0.930 . S
N1785 Li1761 1.990 . S
N1785 C1784 1.314 . S
N1785 C1788 1.279 . S
C1786 C1784 1.353 . S
C1786 C1789 1.348 . S
C1786 H1834 0.929 . S
C1787 C1788 1.358 . S
C1787 C1789 1.356 . S
C1787 H1835 0.930 . S
C1788 N1785 1.279 . S
C1788 C1787 1.358 . S
C1788 H1791 0.930 . S
C1789 C1786 1.348 . S
C1789 C1787 1.356 . S
H1790 C1784 0.930 . S
H1791 C1788 0.930 . S
C1792 C1794 1.348 . S
C1792 C1795 1.356 . S
C1792 O1822 1.325 . S
N1793 C1796 1.314 . S
N1793 C1797 1.279 . S
C1794 C1792 1.348 . S
C1794 C1796 1.353 . S
C1794 H1836 0.929 . S
C1795 C1792 1.356 . S
C1795 C1797 1.358 . S
C1795 H1837 0.930 . S
C1796 N1793 1.314 . S
C1796 C1794 1.353 . S
C1796 H1838 0.930 . S
C1797 N1793 1.279 . S
C1797 C1795 1.358 . S
C1797 H1839 0.930 . S
C1798 C1799 1.348 . S
C1798 C1800 1.356 . S
C1798 O1823 1.325 . S
C1799 C1798 1.348 . S
C1799 C1801 1.353 . S
C1799 H1840 0.929 . S
C1800 C1798 1.356 . S
C1800 C1802 1.358 . S
C1800 H1841 0.930 . S
C1801 C1799 1.353 . S
C1801 N1803 1.314 . S
C1801 H1842 0.930 . S
C1802 C1800 1.358 . S
C1802 N1803 1.279 . S
C1802 H1843 0.930 . S
N1803 C1801 1.314 . S
N1803 C1802 1.279 . S
C1804 C1806 1.353 . S
C1804 N1807 1.314 . S
C1804 H1810 0.930 . S
C1805 N1807 1.279 . S
C1805 C1808 1.358 . S
C1805 H1811 0.930 . S
C1806 C1804 1.353 . S
C1806 C1809 1.348 . S
C1806 H1844 0.929 . S
N1807 Li1762 1.990 . S
N1807 C1804 1.314 . S
N1807 C1805 1.279 . S
C1808 C1805 1.358 . S
C1808 C1809 1.356 . S
C1808 H1845 0.930 . S
C1809 C1806 1.348 . S
C1809 C1808 1.356 . S
H1810 C1804 0.930 . S
H1811 C1805 0.930 . S
C1812 N1813 1.314 . S
C1812 C1814 1.353 . S
C1812 H1818 0.930 . S
N1813 Li1763 1.990 . S
N1813 C1812 1.314 . S
N1813 C1816 1.279 . S
C1814 C1812 1.353 . S
C1814 C1817 1.348 . S
C1814 H1846 0.929 . S
C1815 C1816 1.358 . S
C1815 C1817 1.356 . S
C1815 H1847 0.930 . S
C1816 N1813 1.279 . S
C1816 C1815 1.358 . S
C1816 H1819 0.930 . S
C1817 C1814 1.348 . S
C1817 C1815 1.356 . S
H1818 C1812 0.930 . S
H1819 C1816 0.930 . S
O1820 Li1760 1.956 . S
O1820 Li1761 1.970 . S
O1820 Li1762 1.961 . S
O1820 C1764 1.325 . S
O1821 Li1760 1.970 . S
O1821 Li1761 1.956 . S
O1821 Li1763 1.961 . S
O1821 C1770 1.325 . S
O1822 Li1760 1.961 . S
O1822 Li1762 1.956 . S
O1822 Li1763 1.970 . S
O1822 C1792 1.325 . S
O1823 Li1761 1.961 . S
O1823 Li1762 1.970 . S
O1823 Li1763 1.956 . S
O1823 C1798 1.325 . S
H1824 C1766 0.929 . S
H1825 C1767 0.930 . S
H1826 C1768 0.930 . S
H1827 C1769 0.930 . S
H1828 C1771 0.930 . S
H1829 C1773 0.929 . S
H1830 C1774 0.930 . S
H1831 C1775 0.930 . S
H1832 C1778 0.930 . S
H1833 C1781 0.929 . S
H1834 C1786 0.929 . S
H1835 C1787 0.930 . S
H1836 C1794 0.929 . S
H1837 C1795 0.930 . S
H1838 C1796 0.930 . S
H1839 C1797 0.930 . S
H1840 C1799 0.929 . S
H1841 C1800 0.930 . S
H1842 C1801 0.930 . S
H1843 C1802 0.930 . S
H1844 C1806 0.929 . S
H1845 C1808 0.930 . S
H1846 C1814 0.929 . S
H1847 C1815 0.930 . S
Li1848 N1865 1.990 . S
Li1848 O1908 1.956 . S
Li1848 O1909 1.970 . S
Li1848 O1910 1.961 . S
Li1849 N1873 1.990 . S
Li1849 O1908 1.970 . S
Li1849 O1909 1.956 . S
Li1849 O1911 1.961 . S
Li1850 N1895 1.990 . S
Li1850 O1908 1.961 . S
Li1850 O1910 1.956 . S
Li1850 O1911 1.970 . S
Li1851 N1901 1.990 . S
Li1851 O1909 1.961 . S
Li1851 O1910 1.970 . S
Li1851 O1911 1.956 . S
C1852 C1854 1.348 . S
C1852 C1855 1.356 . S
C1852 O1908 1.325 . S
N1853 C1856 1.314 . S
N1853 C1857 1.279 . S
C1854 C1852 1.348 . S
C1854 C1856 1.353 . S
C1854 H1912 0.929 . S
C1855 C1852 1.356 . S
C1855 C1857 1.358 . S
C1855 H1913 0.930 . S
C1856 N1853 1.314 . S
C1856 C1854 1.353 . S
C1856 H1914 0.930 . S
C1857 N1853 1.279 . S
C1857 C1855 1.358 . S
C1857 H1915 0.930 . S
C1858 C1861 1.348 . S
C1858 C1862 1.356 . S
C1858 O1909 1.325 . S
C1859 N1860 1.279 . S
C1859 C1862 1.358 . S
C1859 H1916 0.930 . S
N1860 C1859 1.279 . S
N1860 C1863 1.314 . S
C1861 C1858 1.348 . S
C1861 C1863 1.353 . S
C1861 H1917 0.929 . S
C1862 C1858 1.356 . S
C1862 C1859 1.358 . S
C1862 H1918 0.930 . S
C1863 N1860 1.314 . S
C1863 C1861 1.353 . S
C1863 H1919 0.930 . S
C1864 N1865 1.314 . S
C1864 C1869 1.353 . S
C1864 H1870 0.930 . S
N1865 Li1848 1.990 . S
N1865 C1864 1.314 . S
N1865 C1867 1.279 . S
C1866 C1867 1.358 . S
C1866 C1868 1.356 . S
C1866 H1920 0.930 . S
C1867 N1865 1.279 . S
C1867 C1866 1.358 . S
C1867 H1871 0.930 . S
C1868 C1866 1.356 . S
C1868 C1869 1.348 . S
C1869 C1864 1.353 . S
C1869 C1868 1.348 . S
C1869 H1921 0.929 . S
H1870 C1864 0.930 . S
H1871 C1867 0.930 . S
C1872 N1873 1.314 . S
C1872 C1874 1.353 . S
C1872 H1878 0.930 . S
N1873 Li1849 1.990 . S
N1873 C1872 1.314 . S
N1873 C1876 1.279 . S
C1874 C1872 1.353 . S
C1874 C1877 1.348 . S
C1874 H1922 0.929 . S
C1875 C1876 1.358 . S
C1875 C1877 1.356 . S
C1875 H1923 0.930 . S
C1876 N1873 1.279 . S
C1876 C1875 1.358 . S
C1876 H1879 0.930 . S
C1877 C1874 1.348 . S
C1877 C1875 1.356 . S
H1878 C1872 0.930 . S
H1879 C1876 0.930 . S
C1880 C1882 1.348 . S
C1880 C1883 1.356 . S
C1880 O1910 1.325 . S
N1881 C1884 1.314 . S
N1881 C1885 1.279 . S
C1882 C1880 1.348 . S
C1882 C1884 1.353 . S
C1882 H1924 0.929 . S
C1883 C1880 1.356 . S
C1883 C1885 1.358 . S
C1883 H1925 0.930 . S
C1884 N1881 1.314 . S
C1884 C1882 1.353 . S
C1884 H1926 0.930 . S
C1885 N1881 1.279 . S
C1885 C1883 1.358 . S
C1885 H1927 0.930 . S
C1886 C1887 1.348 . S
C1886 C1888 1.356 . S
C1886 O1911 1.325 . S
C1887 C1886 1.348 . S
C1887 C1889 1.353 1_554 S
C1887 H1928 0.929 . S
C1888 C1886 1.356 . S
C1888 C1890 1.358 . S
C1888 H1929 0.930 . S
C1889 C1887 1.353 1_556 S
C1889 N1891 1.314 . S
C1889 H1930 0.930 . S
C1890 C1888 1.358 . S
C1890 N1891 1.279 1_554 S
C1890 H1931 0.930 1_554 S
N1891 C1889 1.314 . S
N1891 C1890 1.279 1_556 S
C1892 C1894 1.353 . S
C1892 N1895 1.314 . S
C1892 H1898 0.930 . S
C1893 N1895 1.279 . S
C1893 C1896 1.358 . S
C1893 H1899 0.930 . S
C1894 C1892 1.353 . S
C1894 C1897 1.348 . S
C1894 H1932 0.929 . S
N1895 Li1850 1.990 . S
N1895 C1892 1.314 . S
N1895 C1893 1.279 . S
C1896 C1893 1.358 . S
C1896 C1897 1.356 . S
C1896 H1933 0.930 . S
C1897 C1894 1.348 . S
C1897 C1896 1.356 . S
H1898 C1892 0.930 . S
H1899 C1893 0.930 . S
C1900 N1901 1.314 . S
C1900 C1902 1.353 . S
C1900 H1906 0.930 . S
N1901 Li1851 1.990 . S
N1901 C1900 1.314 . S
N1901 C1904 1.279 . S
C1902 C1900 1.353 . S
C1902 C1905 1.348 . S
C1902 H1934 0.929 . S
C1903 C1904 1.358 . S
C1903 C1905 1.356 . S
C1903 H1935 0.930 . S
C1904 N1901 1.279 . S
C1904 C1903 1.358 . S
C1904 H1907 0.930 . S
C1905 C1902 1.348 . S
C1905 C1903 1.356 . S
H1906 C1900 0.930 . S
H1907 C1904 0.930 . S
O1908 Li1848 1.956 . S
O1908 Li1849 1.970 . S
O1908 Li1850 1.961 . S
O1908 C1852 1.325 . S
O1909 Li1848 1.970 . S
O1909 Li1849 1.956 . S
O1909 Li1851 1.961 . S
O1909 C1858 1.325 . S
O1910 Li1848 1.961 . S
O1910 Li1850 1.956 . S
O1910 Li1851 1.970 . S
O1910 C1880 1.325 . S
O1911 Li1849 1.961 . S
O1911 Li1850 1.970 . S
O1911 Li1851 1.956 . S
O1911 C1886 1.325 . S
H1912 C1854 0.929 . S
H1913 C1855 0.930 . S
H1914 C1856 0.930 . S
H1915 C1857 0.930 . S
H1916 C1859 0.930 . S
H1917 C1861 0.929 . S
H1918 C1862 0.930 . S
H1919 C1863 0.930 . S
H1920 C1866 0.930 . S
H1921 C1869 0.929 . S
H1922 C1874 0.929 . S
H1923 C1875 0.930 . S
H1924 C1882 0.929 . S
H1925 C1883 0.930 . S
H1926 C1884 0.930 . S
H1927 C1885 0.930 . S
H1928 C1887 0.929 . S
H1929 C1888 0.930 . S
H1930 C1889 0.930 . S
H1931 C1890 0.930 1_556 S
H1932 C1894 0.929 . S
H1933 C1896 0.930 . S
H1934 C1902 0.929 . S
H1935 C1903 0.930 . S
Li1936 N1953 1.990 . S
Li1936 O1996 1.956 . S
Li1936 O1997 1.970 . S
Li1936 O1998 1.961 . S
Li1937 N1961 1.990 . S
Li1937 O1996 1.970 . S
Li1937 O1997 1.956 . S
Li1937 O1999 1.961 . S
Li1938 N1983 1.990 . S
Li1938 O1996 1.961 . S
Li1938 O1998 1.956 . S
Li1938 O1999 1.970 . S
Li1939 N1989 1.990 . S
Li1939 O1997 1.961 . S
Li1939 O1998 1.970 . S
Li1939 O1999 1.956 . S
C1940 C1942 1.348 . S
C1940 C1943 1.356 . S
C1940 O1996 1.325 . S
N1941 C1944 1.314 . S
N1941 C1945 1.279 . S
C1942 C1940 1.348 . S
C1942 C1944 1.353 . S
C1942 H2000 0.929 . S
C1943 C1940 1.356 . S
C1943 C1945 1.358 . S
C1943 H2001 0.930 . S
C1944 N1941 1.314 . S
C1944 C1942 1.353 . S
C1944 H2002 0.930 . S
C1945 N1941 1.279 . S
C1945 C1943 1.358 . S
C1945 H2003 0.930 . S
C1946 C1949 1.348 . S
C1946 C1950 1.356 . S
C1946 O1997 1.325 . S
C1947 N1948 1.279 . S
C1947 C1950 1.358 . S
C1947 H2004 0.930 . S
N1948 C1947 1.279 . S
N1948 C1951 1.314 . S
C1949 C1946 1.348 . S
C1949 C1951 1.353 . S
C1949 H2005 0.929 . S
C1950 C1946 1.356 . S
C1950 C1947 1.358 . S
C1950 H2006 0.930 . S
C1951 N1948 1.314 . S
C1951 C1949 1.353 . S
C1951 H2007 0.930 . S
C1952 N1953 1.314 . S
C1952 C1957 1.353 . S
C1952 H1958 0.930 . S
N1953 Li1936 1.990 . S
N1953 C1952 1.314 . S
N1953 C1955 1.279 . S
C1954 C1955 1.358 . S
C1954 C1956 1.356 . S
C1954 H2008 0.930 . S
C1955 N1953 1.279 . S
C1955 C1954 1.358 . S
C1955 H1959 0.930 . S
C1956 C1954 1.356 . S
C1956 C1957 1.348 . S
C1957 C1952 1.353 . S
C1957 C1956 1.348 . S
C1957 H2009 0.929 . S
H1958 C1952 0.930 . S
H1959 C1955 0.930 . S
C1960 N1961 1.314 . S
C1960 C1962 1.353 . S
C1960 H1966 0.930 . S
N1961 Li1937 1.990 . S
N1961 C1960 1.314 . S
N1961 C1964 1.279 . S
C1962 C1960 1.353 . S
C1962 C1965 1.348 . S
C1962 H2010 0.929 . S
C1963 C1964 1.358 . S
C1963 C1965 1.356 . S
C1963 H2011 0.930 . S
C1964 N1961 1.279 . S
C1964 C1963 1.358 . S
C1964 H1967 0.930 . S
C1965 C1962 1.348 . S
C1965 C1963 1.356 . S
H1966 C1960 0.930 . S
H1967 C1964 0.930 . S
C1968 C1970 1.348 . S
C1968 C1971 1.356 . S
C1968 O1998 1.325 . S
N1969 C1972 1.314 . S
N1969 C1973 1.279 . S
C1970 C1968 1.348 . S
C1970 C1972 1.353 . S
C1970 H2012 0.929 . S
C1971 C1968 1.356 . S
C1971 C1973 1.358 . S
C1971 H2013 0.930 . S
C1972 N1969 1.314 . S
C1972 C1970 1.353 . S
C1972 H2014 0.930 . S
C1973 N1969 1.279 . S
C1973 C1971 1.358 . S
C1973 H2015 0.930 . S
C1974 C1975 1.348 . S
C1974 C1976 1.356 . S
C1974 O1999 1.325 . S
C1975 C1974 1.348 . S
C1975 C1977 1.353 . S
C1975 H2016 0.929 . S
C1976 C1974 1.356 . S
C1976 C1978 1.358 . S
C1976 H2017 0.930 . S
C1977 C1975 1.353 . S
C1977 N1979 1.314 . S
C1977 H2018 0.930 . S
C1978 C1976 1.358 . S
C1978 N1979 1.279 . S
C1978 H2019 0.930 . S
N1979 C1977 1.314 . S
N1979 C1978 1.279 . S
C1980 C1982 1.353 . S
C1980 N1983 1.314 . S
C1980 H1986 0.930 . S
C1981 N1983 1.279 . S
C1981 C1984 1.358 . S
C1981 H1987 0.930 . S
C1982 C1980 1.353 . S
C1982 C1985 1.348 . S
C1982 H2020 0.929 . S
N1983 Li1938 1.990 . S
N1983 C1980 1.314 . S
N1983 C1981 1.279 . S
C1984 C1981 1.358 . S
C1984 C1985 1.356 . S
C1984 H2021 0.930 . S
C1985 C1982 1.348 . S
C1985 C1984 1.356 . S
H1986 C1980 0.930 . S
H1987 C1981 0.930 . S
C1988 N1989 1.314 . S
C1988 C1990 1.353 . S
C1988 H1994 0.930 . S
N1989 Li1939 1.990 . S
N1989 C1988 1.314 . S
N1989 C1992 1.279 . S
C1990 C1988 1.353 . S
C1990 C1993 1.348 . S
C1990 H2022 0.929 . S
C1991 C1992 1.358 . S
C1991 C1993 1.356 . S
C1991 H2023 0.930 . S
C1992 N1989 1.279 . S
C1992 C1991 1.358 . S
C1992 H1995 0.930 . S
C1993 C1990 1.348 . S
C1993 C1991 1.356 . S
H1994 C1988 0.930 . S
H1995 C1992 0.930 . S
O1996 Li1936 1.956 . S
O1996 Li1937 1.970 . S
O1996 Li1938 1.961 . S
O1996 C1940 1.325 . S
O1997 Li1936 1.970 . S
O1997 Li1937 1.956 . S
O1997 Li1939 1.961 . S
O1997 C1946 1.325 . S
O1998 Li1936 1.961 . S
O1998 Li1938 1.956 . S
O1998 Li1939 1.970 . S
O1998 C1968 1.325 . S
O1999 Li1937 1.961 . S
O1999 Li1938 1.970 . S
O1999 Li1939 1.956 . S
O1999 C1974 1.325 . S
H2000 C1942 0.929 . S
H2001 C1943 0.930 . S
H2002 C1944 0.930 . S
H2003 C1945 0.930 . S
H2004 C1947 0.930 . S
H2005 C1949 0.929 . S
H2006 C1950 0.930 . S
H2007 C1951 0.930 . S
H2008 C1954 0.930 . S
H2009 C1957 0.929 . S
H2010 C1962 0.929 . S
H2011 C1963 0.930 . S
H2012 C1970 0.929 . S
H2013 C1971 0.930 . S
H2014 C1972 0.930 . S
H2015 C1973 0.930 . S
H2016 C1975 0.929 . S
H2017 C1976 0.930 . S
H2018 C1977 0.930 . S
H2019 C1978 0.930 . S
H2020 C1982 0.929 . S
H2021 C1984 0.930 . S
H2022 C1990 0.929 . S
H2023 C1991 0.930 . S
Li2024 N2041 1.990 . S
Li2024 O2084 1.956 . S
Li2024 O2085 1.970 . S
Li2024 O2086 1.961 . S
Li2025 N2049 1.990 . S
Li2025 O2084 1.970 . S
Li2025 O2085 1.956 . S
Li2025 O2087 1.961 . S
Li2026 N2071 1.990 . S
Li2026 O2084 1.961 . S
Li2026 O2086 1.956 . S
Li2026 O2087 1.970 . S
Li2027 N2077 1.990 . S
Li2027 O2085 1.961 . S
Li2027 O2086 1.970 . S
Li2027 O2087 1.956 . S
C2028 C2030 1.348 . S
C2028 C2031 1.356 . S
C2028 O2084 1.325 . S
N2029 C2032 1.314 . S
N2029 C2033 1.279 . S
C2030 C2028 1.348 . S
C2030 C2032 1.353 . S
C2030 H2088 0.929 . S
C2031 C2028 1.356 . S
C2031 C2033 1.358 . S
C2031 H2089 0.930 . S
C2032 N2029 1.314 . S
C2032 C2030 1.353 . S
C2032 H2090 0.930 . S
C2033 N2029 1.279 . S
C2033 C2031 1.358 . S
C2033 H2091 0.930 . S
C2034 C2037 1.348 . S
C2034 C2038 1.356 . S
C2034 O2085 1.325 . S
C2035 N2036 1.279 . S
C2035 C2038 1.358 . S
C2035 H2092 0.930 . S
N2036 C2035 1.279 . S
N2036 C2039 1.314 . S
C2037 C2034 1.348 . S
C2037 C2039 1.353 . S
C2037 H2093 0.929 . S
C2038 C2034 1.356 . S
C2038 C2035 1.358 . S
C2038 H2094 0.930 . S
C2039 N2036 1.314 . S
C2039 C2037 1.353 . S
C2039 H2095 0.930 . S
C2040 N2041 1.314 . S
C2040 C2045 1.353 . S
C2040 H2046 0.930 . S
N2041 Li2024 1.990 . S
N2041 C2040 1.314 . S
N2041 C2043 1.279 . S
C2042 C2043 1.358 . S
C2042 C2044 1.356 . S
C2042 H2096 0.930 . S
C2043 N2041 1.279 . S
C2043 C2042 1.358 . S
C2043 H2047 0.930 . S
C2044 C2042 1.356 . S
C2044 C2045 1.348 . S
C2045 C2040 1.353 . S
C2045 C2044 1.348 . S
C2045 H2097 0.929 . S
H2046 C2040 0.930 . S
H2047 C2043 0.930 . S
C2048 N2049 1.314 . S
C2048 C2050 1.353 . S
C2048 H2054 0.930 . S
N2049 Li2025 1.990 . S
N2049 C2048 1.314 . S
N2049 C2052 1.279 . S
C2050 C2048 1.353 . S
C2050 C2053 1.348 . S
C2050 H2098 0.929 . S
C2051 C2052 1.358 . S
C2051 C2053 1.356 . S
C2051 H2099 0.930 . S
C2052 N2049 1.279 . S
C2052 C2051 1.358 . S
C2052 H2055 0.930 . S
C2053 C2050 1.348 . S
C2053 C2051 1.356 . S
H2054 C2048 0.930 . S
H2055 C2052 0.930 . S
C2056 C2058 1.348 . S
C2056 C2059 1.356 . S
C2056 O2086 1.325 . S
N2057 C2060 1.314 . S
N2057 C2061 1.279 . S
C2058 C2056 1.348 . S
C2058 C2060 1.353 . S
C2058 H2100 0.929 . S
C2059 C2056 1.356 . S
C2059 C2061 1.358 . S
C2059 H2101 0.930 . S
C2060 N2057 1.314 . S
C2060 C2058 1.353 . S
C2060 H2102 0.930 . S
C2061 N2057 1.279 . S
C2061 C2059 1.358 . S
C2061 H2103 0.930 . S
C2062 C2063 1.348 . S
C2062 C2064 1.356 . S
C2062 O2087 1.325 . S
C2063 C2062 1.348 . S
C2063 C2065 1.353 1_554 S
C2063 H2104 0.929 . S
C2064 C2062 1.356 . S
C2064 C2066 1.358 . S
C2064 H2105 0.930 . S
C2065 C2063 1.353 1_556 S
C2065 N2067 1.314 . S
C2065 H2106 0.930 . S
C2066 C2064 1.358 . S
C2066 N2067 1.279 1_554 S
C2066 H2107 0.930 1_554 S
N2067 C2065 1.314 . S
N2067 C2066 1.279 1_556 S
C2068 C2070 1.353 . S
C2068 N2071 1.314 . S
C2068 H2074 0.930 . S
C2069 N2071 1.279 . S
C2069 C2072 1.358 . S
C2069 H2075 0.930 . S
C2070 C2068 1.353 . S
C2070 C2073 1.348 . S
C2070 H2108 0.929 . S
N2071 Li2026 1.990 . S
N2071 C2068 1.314 . S
N2071 C2069 1.279 . S
C2072 C2069 1.358 . S
C2072 C2073 1.356 . S
C2072 H2109 0.930 . S
C2073 C2070 1.348 . S
C2073 C2072 1.356 . S
H2074 C2068 0.930 . S
H2075 C2069 0.930 . S
C2076 N2077 1.314 . S
C2076 C2078 1.353 . S
C2076 H2082 0.930 . S
N2077 Li2027 1.990 . S
N2077 C2076 1.314 . S
N2077 C2080 1.279 . S
C2078 C2076 1.353 . S
C2078 C2081 1.348 . S
C2078 H2110 0.929 . S
C2079 C2080 1.358 . S
C2079 C2081 1.356 . S
C2079 H2111 0.930 . S
C2080 N2077 1.279 . S
C2080 C2079 1.358 . S
C2080 H2083 0.930 . S
C2081 C2078 1.348 . S
C2081 C2079 1.356 . S
H2082 C2076 0.930 . S
H2083 C2080 0.930 . S
O2084 Li2024 1.956 . S
O2084 Li2025 1.970 . S
O2084 Li2026 1.961 . S
O2084 C2028 1.325 . S
O2085 Li2024 1.970 . S
O2085 Li2025 1.956 . S
O2085 Li2027 1.961 . S
O2085 C2034 1.325 . S
O2086 Li2024 1.961 . S
O2086 Li2026 1.956 . S
O2086 Li2027 1.970 . S
O2086 C2056 1.325 . S
O2087 Li2025 1.961 . S
O2087 Li2026 1.970 . S
O2087 Li2027 1.956 . S
O2087 C2062 1.325 . S
H2088 C2030 0.929 . S
H2089 C2031 0.930 . S
H2090 C2032 0.930 . S
H2091 C2033 0.930 . S
H2092 C2035 0.930 . S
H2093 C2037 0.929 . S
H2094 C2038 0.930 . S
H2095 C2039 0.930 . S
H2096 C2042 0.930 . S
H2097 C2045 0.929 . S
H2098 C2050 0.929 . S
H2099 C2051 0.930 . S
H2100 C2058 0.929 . S
H2101 C2059 0.930 . S
H2102 C2060 0.930 . S
H2103 C2061 0.930 . S
H2104 C2063 0.929 . S
H2105 C2064 0.930 . S
H2106 C2065 0.930 . S
H2107 C2066 0.930 1_556 S
H2108 C2070 0.929 . S
H2109 C2072 0.930 . S
H2110 C2078 0.929 . S
H2111 C2079 0.930 . S
C2112 C2113 1.369 . S
C2112 C2114 1.419 . S
C2112 H2116 0.930 . S
C2113 C2112 1.369 . S
C2113 C2122 1.429 . S
C2114 C2112 1.419 . S
C2114 C2115 1.363 . S
C2114 H2117 0.929 . S
C2115 C2114 1.363 . S
C2115 C2121 1.428 . S
H2116 C2112 0.930 . S
H2117 C2114 0.929 . S
S2118 N2119 1.613 . S
S2118 N2120 1.610 . S
N2119 S2118 1.613 . S
N2119 C2122 1.350 . S
N2120 S2118 1.610 . S
N2120 C2121 1.351 . S
C2121 C2115 1.428 . S
C2121 N2120 1.351 . S
C2121 C2122 1.434 . S
C2122 C2113 1.429 . S
C2122 N2119 1.350 . S
C2122 C2121 1.434 . S
C2123 C2124 1.369 . S
C2123 C2125 1.419 . S
C2123 H2127 0.930 . S
C2124 C2123 1.369 . S
C2124 C2133 1.429 . S
C2125 C2123 1.419 . S
C2125 C2126 1.363 . S
C2125 H2128 0.929 . S
C2126 C2125 1.363 . S
C2126 C2132 1.428 . S
H2127 C2123 0.930 . S
H2128 C2125 0.929 . S
S2129 N2130 1.613 . S
S2129 N2131 1.610 . S
N2130 S2129 1.613 . S
N2130 C2133 1.350 . S
N2131 S2129 1.610 . S
N2131 C2132 1.351 . S
C2132 C2126 1.428 . S
C2132 N2131 1.351 . S
C2132 C2133 1.434 . S
C2133 C2124 1.429 . S
C2133 N2130 1.350 . S
C2133 C2132 1.434 . S
C2134 C2135 1.369 . S
C2134 C2136 1.419 . S
C2134 H2138 0.930 . S
C2135 C2134 1.369 . S
C2135 C2144 1.429 . S
C2136 C2134 1.419 . S
C2136 C2137 1.363 . S
C2136 H2139 0.929 . S
C2137 C2136 1.363 . S
C2137 C2143 1.428 . S
H2138 C2134 0.930 . S
H2139 C2136 0.929 . S
S2140 N2141 1.613 . S
S2140 N2142 1.610 . S
N2141 S2140 1.613 . S
N2141 C2144 1.350 . S
N2142 S2140 1.610 . S
N2142 C2143 1.351 . S
C2143 C2137 1.428 . S
C2143 N2142 1.351 . S
C2143 C2144 1.434 . S
C2144 C2135 1.429 . S
C2144 N2141 1.350 . S
C2144 C2143 1.434 . S
C2145 C2146 1.369 . S
C2145 C2147 1.419 . S
C2145 H2149 0.930 . S
C2146 C2145 1.369 . S
C2146 C2155 1.429 . S
C2147 C2145 1.419 . S
C2147 C2148 1.363 . S
C2147 H2150 0.929 . S
C2148 C2147 1.363 . S
C2148 C2154 1.428 . S
H2149 C2145 0.930 . S
H2150 C2147 0.929 . S
S2151 N2152 1.613 . S
S2151 N2153 1.610 . S
N2152 S2151 1.613 . S
N2152 C2155 1.350 . S
N2153 S2151 1.610 . S
N2153 C2154 1.351 . S
C2154 C2148 1.428 . S
C2154 N2153 1.351 . S
C2154 C2155 1.434 . S
C2155 C2146 1.429 . S
C2155 N2152 1.350 . S
C2155 C2154 1.434 . S
C2156 C2157 1.369 . S
C2156 C2158 1.419 . S
C2156 H2160 0.930 . S
C2157 C2156 1.369 . S
C2157 C2166 1.429 . S
C2158 C2156 1.419 . S
C2158 C2159 1.363 . S
C2158 H2161 0.929 . S
C2159 C2158 1.363 . S
C2159 C2165 1.428 . S
H2160 C2156 0.930 . S
H2161 C2158 0.929 . S
S2162 N2163 1.613 . S
S2162 N2164 1.610 . S
N2163 S2162 1.613 . S
N2163 C2166 1.350 . S
N2164 S2162 1.610 . S
N2164 C2165 1.351 . S
C2165 C2159 1.428 . S
C2165 N2164 1.351 . S
C2165 C2166 1.434 . S
C2166 C2157 1.429 . S
C2166 N2163 1.350 . S
C2166 C2165 1.434 . S
C2167 C2168 1.369 . S
C2167 C2169 1.419 . S
C2167 H2171 0.930 . S
C2168 C2167 1.369 . S
C2168 C2177 1.429 . S
C2169 C2167 1.419 . S
C2169 C2170 1.363 . S
C2169 H2172 0.929 . S
C2170 C2169 1.363 . S
C2170 C2176 1.428 . S
H2171 C2167 0.930 . S
H2172 C2169 0.929 . S
S2173 N2174 1.613 . S
S2173 N2175 1.610 . S
N2174 S2173 1.613 . S
N2174 C2177 1.350 . S
N2175 S2173 1.610 . S
N2175 C2176 1.351 . S
C2176 C2170 1.428 . S
C2176 N2175 1.351 . S
C2176 C2177 1.434 . S
C2177 C2168 1.429 . S
C2177 N2174 1.350 . S
C2177 C2176 1.434 . S
C2178 C2179 1.369 . S
C2178 C2180 1.419 . S
C2178 H2182 0.930 . S
C2179 C2178 1.369 . S
C2179 C2188 1.429 . S
C2180 C2178 1.419 . S
C2180 C2181 1.363 . S
C2180 H2183 0.929 . S
C2181 C2180 1.363 . S
C2181 C2187 1.428 . S
H2182 C2178 0.930 . S
H2183 C2180 0.929 . S
S2184 N2185 1.613 . S
S2184 N2186 1.610 . S
N2185 S2184 1.613 . S
N2185 C2188 1.350 . S
N2186 S2184 1.610 . S
N2186 C2187 1.351 . S
C2187 C2181 1.428 . S
C2187 N2186 1.351 . S
C2187 C2188 1.434 . S
C2188 C2179 1.429 . S
C2188 N2185 1.350 . S
C2188 C2187 1.434 . S
C2189 C2190 1.369 . S
C2189 C2191 1.419 . S
C2189 H2193 0.930 . S
C2190 C2189 1.369 . S
C2190 C2199 1.429 . S
C2191 C2189 1.419 . S
C2191 C2192 1.363 . S
C2191 H2194 0.929 . S
C2192 C2191 1.363 . S
C2192 C2198 1.428 . S
H2193 C2189 0.930 . S
H2194 C2191 0.929 . S
S2195 N2196 1.613 . S
S2195 N2197 1.610 . S
N2196 S2195 1.613 . S
N2196 C2199 1.350 . S
N2197 S2195 1.610 . S
N2197 C2198 1.351 . S
C2198 C2192 1.428 . S
C2198 N2197 1.351 . S
C2198 C2199 1.434 . S
C2199 C2190 1.429 . S
C2199 N2196 1.350 . S
C2199 C2198 1.434 . S
C2200 C2201 1.369 . S
C2200 C2202 1.419 . S
C2200 H2204 0.930 . S
C2201 C2200 1.369 . S
C2201 C2210 1.429 . S
C2202 C2200 1.419 . S
C2202 C2203 1.363 . S
C2202 H2205 0.929 . S
C2203 C2202 1.363 . S
C2203 C2209 1.428 . S
H2204 C2200 0.930 . S
H2205 C2202 0.929 . S
S2206 N2207 1.613 . S
S2206 N2208 1.610 . S
N2207 S2206 1.613 . S
N2207 C2210 1.350 . S
N2208 S2206 1.610 . S
N2208 C2209 1.351 . S
C2209 C2203 1.428 . S
C2209 N2208 1.351 . S
C2209 C2210 1.434 . S
C2210 C2201 1.429 . S
C2210 N2207 1.350 . S
C2210 C2209 1.434 . S
C2211 C2212 1.369 . S
C2211 C2213 1.419 . S
C2211 H2215 0.930 . S
C2212 C2211 1.369 . S
C2212 C2221 1.429 . S
C2213 C2211 1.419 . S
C2213 C2214 1.363 . S
C2213 H2216 0.929 . S
C2214 C2213 1.363 . S
C2214 C2220 1.428 . S
H2215 C2211 0.930 . S
H2216 C2213 0.929 . S
S2217 N2218 1.613 . S
S2217 N2219 1.610 . S
N2218 S2217 1.613 . S
N2218 C2221 1.350 . S
N2219 S2217 1.610 . S
N2219 C2220 1.351 . S
C2220 C2214 1.428 . S
C2220 N2219 1.351 . S
C2220 C2221 1.434 . S
C2221 C2212 1.429 . S
C2221 N2218 1.350 . S
C2221 C2220 1.434 . S
C2222 C2223 1.369 . S
C2222 C2224 1.419 . S
C2222 H2226 0.930 . S
C2223 C2222 1.369 . S
C2223 C2232 1.429 . S
C2224 C2222 1.419 . S
C2224 C2225 1.363 . S
C2224 H2227 0.929 . S
C2225 C2224 1.363 . S
C2225 C2231 1.428 . S
H2226 C2222 0.930 . S
H2227 C2224 0.929 . S
S2228 N2229 1.613 . S
S2228 N2230 1.610 . S
N2229 S2228 1.613 . S
N2229 C2232 1.350 . S
N2230 S2228 1.610 . S
N2230 C2231 1.351 . S
C2231 C2225 1.428 . S
C2231 N2230 1.351 . S
C2231 C2232 1.434 . S
C2232 C2223 1.429 . S
C2232 N2229 1.350 . S
C2232 C2231 1.434 . S
C2233 C2234 1.369 . S
C2233 C2235 1.419 . S
C2233 H2237 0.930 . S
C2234 C2233 1.369 . S
C2234 C2243 1.429 . S
C2235 C2233 1.419 . S
C2235 C2236 1.363 . S
C2235 H2238 0.929 . S
C2236 C2235 1.363 . S
C2236 C2242 1.428 . S
H2237 C2233 0.930 . S
H2238 C2235 0.929 . S
S2239 N2240 1.613 . S
S2239 N2241 1.610 . S
N2240 S2239 1.613 . S
N2240 C2243 1.350 . S
N2241 S2239 1.610 . S
N2241 C2242 1.351 . S
C2242 C2236 1.428 . S
C2242 N2241 1.351 . S
C2242 C2243 1.434 . S
C2243 C2234 1.429 . S
C2243 N2240 1.350 . S
C2243 C2242 1.434 . S
C2244 C2245 1.369 . S
C2244 C2246 1.419 . S
C2244 H2248 0.930 . S
C2245 C2244 1.369 . S
C2245 C2254 1.429 . S
C2246 C2244 1.419 . S
C2246 C2247 1.363 . S
C2246 H2249 0.929 . S
C2247 C2246 1.363 . S
C2247 C2253 1.428 . S
H2248 C2244 0.930 . S
H2249 C2246 0.929 . S
S2250 N2251 1.613 . S
S2250 N2252 1.610 . S
N2251 S2250 1.613 . S
N2251 C2254 1.350 . S
N2252 S2250 1.610 . S
N2252 C2253 1.351 . S
C2253 C2247 1.428 . S
C2253 N2252 1.351 . S
C2253 C2254 1.434 . S
C2254 C2245 1.429 . S
C2254 N2251 1.350 . S
C2254 C2253 1.434 . S
C2255 C2256 1.369 . S
C2255 C2257 1.419 . S
C2255 H2259 0.930 . S
C2256 C2255 1.369 . S
C2256 C2265 1.429 . S
C2257 C2255 1.419 . S
C2257 C2258 1.363 . S
C2257 H2260 0.929 . S
C2258 C2257 1.363 . S
C2258 C2264 1.428 . S
H2259 C2255 0.930 . S
H2260 C2257 0.929 . S
S2261 N2262 1.613 . S
S2261 N2263 1.610 . S
N2262 S2261 1.613 . S
N2262 C2265 1.350 . S
N2263 S2261 1.610 . S
N2263 C2264 1.351 . S
C2264 C2258 1.428 . S
C2264 N2263 1.351 . S
C2264 C2265 1.434 . S
C2265 C2256 1.429 . S
C2265 N2262 1.350 . S
C2265 C2264 1.434 . S
C2266 C2267 1.369 . S
C2266 C2268 1.419 . S
C2266 H2270 0.930 . S
C2267 C2266 1.369 . S
C2267 C2276 1.429 . S
C2268 C2266 1.419 . S
C2268 C2269 1.363 . S
C2268 H2271 0.929 . S
C2269 C2268 1.363 . S
C2269 C2275 1.428 . S
H2270 C2266 0.930 . S
H2271 C2268 0.929 . S
S2272 N2273 1.613 . S
S2272 N2274 1.610 . S
N2273 S2272 1.613 . S
N2273 C2276 1.350 . S
N2274 S2272 1.610 . S
N2274 C2275 1.351 . S
C2275 C2269 1.428 . S
C2275 N2274 1.351 . S
C2275 C2276 1.434 . S
C2276 C2267 1.429 . S
C2276 N2273 1.350 . S
C2276 C2275 1.434 . S
C2277 C2278 1.369 . S
C2277 C2279 1.419 . S
C2277 H2281 0.930 . S
C2278 C2277 1.369 . S
C2278 C2287 1.429 . S
C2279 C2277 1.419 . S
C2279 C2280 1.363 . S
C2279 H2282 0.929 . S
C2280 C2279 1.363 . S
C2280 C2286 1.428 . S
H2281 C2277 0.930 . S
H2282 C2279 0.929 . S
S2283 N2284 1.613 . S
S2283 N2285 1.610 . S
N2284 S2283 1.613 . S
N2284 C2287 1.350 . S
N2285 S2283 1.610 . S
N2285 C2286 1.351 . S
C2286 C2280 1.428 . S
C2286 N2285 1.351 . S
C2286 C2287 1.434 . S
C2287 C2278 1.429 . S
C2287 N2284 1.350 . S
C2287 C2286 1.434 . S
C2288 C2289 1.369 . S
C2288 C2290 1.419 . S
C2288 H2292 0.930 . S
C2289 C2288 1.369 . S
C2289 C2298 1.429 . S
C2290 C2288 1.419 . S
C2290 C2291 1.363 . S
C2290 H2293 0.929 . S
C2291 C2290 1.363 . S
C2291 C2297 1.428 . S
H2292 C2288 0.930 . S
H2293 C2290 0.929 . S
S2294 N2295 1.613 . S
S2294 N2296 1.610 . S
N2295 S2294 1.613 . S
N2295 C2298 1.350 . S
N2296 S2294 1.610 . S
N2296 C2297 1.351 . S
C2297 C2291 1.428 . S
C2297 N2296 1.351 . S
C2297 C2298 1.434 . S
C2298 C2289 1.429 . S
C2298 N2295 1.350 . S
C2298 C2297 1.434 . S
C2299 C2300 1.369 . S
C2299 C2301 1.419 . S
C2299 H2303 0.930 . S
C2300 C2299 1.369 . S
C2300 C2309 1.429 . S
C2301 C2299 1.419 . S
C2301 C2302 1.363 . S
C2301 H2304 0.929 . S
C2302 C2301 1.363 . S
C2302 C2308 1.428 . S
H2303 C2299 0.930 . S
H2304 C2301 0.929 . S
S2305 N2306 1.613 . S
S2305 N2307 1.610 . S
N2306 S2305 1.613 . S
N2306 C2309 1.350 . S
N2307 S2305 1.610 . S
N2307 C2308 1.351 . S
C2308 C2302 1.428 . S
C2308 N2307 1.351 . S
C2308 C2309 1.434 . S
C2309 C2300 1.429 . S
C2309 N2306 1.350 . S
C2309 C2308 1.434 . S
C2310 C2311 1.369 . S
C2310 C2312 1.419 . S
C2310 H2314 0.930 . S
C2311 C2310 1.369 . S
C2311 C2320 1.429 . S
C2312 C2310 1.419 . S
C2312 C2313 1.363 . S
C2312 H2315 0.929 . S
C2313 C2312 1.363 . S
C2313 C2319 1.428 . S
H2314 C2310 0.930 . S
H2315 C2312 0.929 . S
S2316 N2317 1.613 . S
S2316 N2318 1.610 . S
N2317 S2316 1.613 . S
N2317 C2320 1.350 . S
N2318 S2316 1.610 . S
N2318 C2319 1.351 . S
C2319 C2313 1.428 . S
C2319 N2318 1.351 . S
C2319 C2320 1.434 . S
C2320 C2311 1.429 . S
C2320 N2317 1.350 . S
C2320 C2319 1.434 . S
C2321 C2322 1.369 . S
C2321 C2323 1.419 . S
C2321 H2325 0.930 . S
C2322 C2321 1.369 . S
C2322 C2331 1.429 . S
C2323 C2321 1.419 . S
C2323 C2324 1.363 . S
C2323 H2326 0.929 . S
C2324 C2323 1.363 . S
C2324 C2330 1.428 . S
H2325 C2321 0.930 . S
H2326 C2323 0.929 . S
S2327 N2328 1.613 . S
S2327 N2329 1.610 . S
N2328 S2327 1.613 . S
N2328 C2331 1.350 . S
N2329 S2327 1.610 . S
N2329 C2330 1.351 . S
C2330 C2324 1.428 . S
C2330 N2329 1.351 . S
C2330 C2331 1.434 . S
C2331 C2322 1.429 . S
C2331 N2328 1.350 . S
C2331 C2330 1.434 . S
C2332 C2333 1.369 . S
C2332 C2334 1.419 . S
C2332 H2336 0.930 . S
C2333 C2332 1.369 . S
C2333 C2342 1.429 . S
C2334 C2332 1.419 . S
C2334 C2335 1.363 . S
C2334 H2337 0.929 . S
C2335 C2334 1.363 . S
C2335 C2341 1.428 . S
H2336 C2332 0.930 . S
H2337 C2334 0.929 . S
S2338 N2339 1.613 . S
S2338 N2340 1.610 . S
N2339 S2338 1.613 . S
N2339 C2342 1.350 . S
N2340 S2338 1.610 . S
N2340 C2341 1.351 . S
C2341 C2335 1.428 . S
C2341 N2340 1.351 . S
C2341 C2342 1.434 . S
C2342 C2333 1.429 . S
C2342 N2339 1.350 . S
C2342 C2341 1.434 . S
C2343 C2344 1.369 . S
C2343 C2345 1.419 . S
C2343 H2347 0.930 . S
C2344 C2343 1.369 . S
C2344 C2353 1.429 . S
C2345 C2343 1.419 . S
C2345 C2346 1.363 . S
C2345 H2348 0.929 . S
C2346 C2345 1.363 . S
C2346 C2352 1.428 . S
H2347 C2343 0.930 . S
H2348 C2345 0.929 . S
S2349 N2350 1.613 . S
S2349 N2351 1.610 . S
N2350 S2349 1.613 . S
N2350 C2353 1.350 . S
N2351 S2349 1.610 . S
N2351 C2352 1.351 . S
C2352 C2346 1.428 . S
C2352 N2351 1.351 . S
C2352 C2353 1.434 . S
C2353 C2344 1.429 . S
C2353 N2350 1.350 . S
C2353 C2352 1.434 . S
C2354 C2355 1.369 . S
C2354 C2356 1.419 . S
C2354 H2358 0.930 . S
C2355 C2354 1.369 . S
C2355 C2364 1.429 . S
C2356 C2354 1.419 . S
C2356 C2357 1.363 . S
C2356 H2359 0.929 . S
C2357 C2356 1.363 . S
C2357 C2363 1.428 . S
H2358 C2354 0.930 . S
H2359 C2356 0.929 . S
S2360 N2361 1.613 . S
S2360 N2362 1.610 . S
N2361 S2360 1.613 . S
N2361 C2364 1.350 . S
N2362 S2360 1.610 . S
N2362 C2363 1.351 . S
C2363 C2357 1.428 . S
C2363 N2362 1.351 . S
C2363 C2364 1.434 . S
C2364 C2355 1.429 . S
C2364 N2361 1.350 . S
C2364 C2363 1.434 . S
C2365 C2366 1.369 . S
C2365 C2367 1.419 . S
C2365 H2369 0.930 . S
C2366 C2365 1.369 . S
C2366 C2375 1.429 . S
C2367 C2365 1.419 . S
C2367 C2368 1.363 . S
C2367 H2370 0.929 . S
C2368 C2367 1.363 . S
C2368 C2374 1.428 . S
H2369 C2365 0.930 . S
H2370 C2367 0.929 . S
S2371 N2372 1.613 1_554 S
S2371 N2373 1.610 1_554 S
N2372 S2371 1.613 1_556 S
N2372 C2375 1.350 . S
N2373 S2371 1.610 1_556 S
N2373 C2374 1.351 . S
C2374 C2368 1.428 . S
C2374 N2373 1.351 . S
C2374 C2375 1.434 . S
C2375 C2366 1.429 . S
C2375 N2372 1.350 . S
C2375 C2374 1.434 . S
C2376 C2377 1.369 1_554 S
C2376 C2378 1.419 1_565 S
C2376 H2380 0.930 . S
C2377 C2376 1.369 1_556 S
C2377 C2386 1.429 . S
C2378 C2376 1.419 1_545 S
C2378 C2379 1.363 . S
C2378 H2381 0.929 . S
C2379 C2378 1.363 . S
C2379 C2385 1.428 1_554 S
H2380 C2376 0.930 . S
H2381 C2378 0.929 . S
S2382 N2383 1.613 1_545 S
S2382 N2384 1.610 . S
N2383 S2382 1.613 1_565 S
N2383 C2386 1.350 . S
N2384 S2382 1.610 . S
N2384 C2385 1.351 . S
C2385 C2379 1.428 1_556 S
C2385 N2384 1.351 . S
C2385 C2386 1.434 1_545 S
C2386 C2377 1.429 . S
C2386 N2383 1.350 . S
C2386 C2385 1.434 1_565 S
C2387 C2388 1.369 . S
C2387 C2389 1.419 . S
C2387 H2391 0.930 . S
C2388 C2387 1.369 . S
C2388 C2397 1.429 . S
C2389 C2387 1.419 . S
C2389 C2390 1.363 . S
C2389 H2392 0.929 . S
C2390 C2389 1.363 . S
C2390 C2396 1.428 . S
H2391 C2387 0.930 . S
H2392 C2389 0.929 . S
S2393 N2394 1.613 . S
S2393 N2395 1.610 . S
N2394 S2393 1.613 . S
N2394 C2397 1.350 . S
N2395 S2393 1.610 . S
N2395 C2396 1.351 . S
C2396 C2390 1.428 . S
C2396 N2395 1.351 . S
C2396 C2397 1.434 . S
C2397 C2388 1.429 . S
C2397 N2394 1.350 . S
C2397 C2396 1.434 . S
C2398 C2399 1.369 . S
C2398 C2400 1.419 1_455 S
C2398 H2402 0.930 . S
C2399 C2398 1.369 . S
C2399 C2408 1.429 1_556 S
C2400 C2398 1.419 1_655 S
C2400 C2401 1.363 1_556 S
C2400 H2403 0.929 . S
C2401 C2400 1.363 1_554 S
C2401 C2407 1.486 . S
H2402 C2398 0.930 . S
H2403 C2400 0.929 . S
S2404 N2405 1.613 . S
S2404 N2406 1.639 . S
N2405 S2404 1.613 . S
N2405 C2408 1.350 . S
N2406 S2404 1.639 . S
N2406 C2407 1.334 1_455 S
C2407 C2401 1.486 . S
C2407 N2406 1.334 1_655 S
C2407 C2408 1.383 1_655 S
C2408 C2399 1.429 1_554 S
C2408 N2405 1.350 . S
C2408 C2407 1.383 1_455 S
C2409 C2410 1.369 . S
C2409 C2411 1.419 1_545 S
C2409 H2413 0.930 . S
C2410 C2409 1.369 . S
C2410 C2419 1.429 . S
C2411 C2409 1.419 1_565 S
C2411 C2412 1.363 . S
C2411 H2414 0.929 . S
C2412 C2411 1.363 . S
C2412 C2418 1.428 . S
H2413 C2409 0.930 . S
H2414 C2411 0.929 . S
S2415 N2416 1.613 1_565 S
S2415 N2417 1.610 . S
N2416 S2415 1.613 1_545 S
N2416 C2419 1.350 . S
N2417 S2415 1.610 . S
N2417 C2418 1.351 . S
C2418 C2412 1.428 . S
C2418 N2417 1.351 . S
C2418 C2419 1.434 1_565 S
C2419 C2410 1.429 . S
C2419 N2416 1.350 . S
C2419 C2418 1.434 1_545 S
C2420 C2421 1.369 1_556 S
C2420 C2422 1.419 . S
C2420 H2424 0.929 . S
C2421 C2420 1.369 1_554 S
C2421 C2430 1.429 . S
C2422 C2420 1.419 . S
C2422 C2423 1.363 . S
C2422 H2425 0.929 . S
C2423 C2422 1.363 . S
C2423 C2429 1.405 1_556 S
H2424 C2420 0.929 . S
H2425 C2422 0.929 . S
S2426 N2427 1.613 . S
S2426 N2428 1.610 . S
N2427 S2426 1.613 . S
N2427 C2430 1.350 . S
N2428 S2426 1.610 . S
N2428 C2429 1.358 . S
C2429 C2423 1.405 1_554 S
C2429 N2428 1.358 . S
C2429 C2430 1.457 . S
C2430 C2421 1.429 . S
C2430 N2427 1.350 . S
C2430 C2429 1.457 . S
C2431 C2432 1.369 . S
C2431 C2433 1.419 1_455 S
C2431 H2435 0.930 . S
C2432 C2431 1.369 . S
C2432 C2441 1.429 . S
C2433 C2431 1.419 1_655 S
C2433 C2434 1.363 . S
C2433 H2436 0.929 . S
C2434 C2433 1.363 . S
C2434 C2440 1.428 . S
H2435 C2431 0.930 . S
H2436 C2433 0.929 . S
S2437 N2438 1.613 1_655 S
S2437 N2439 1.610 . S
N2438 S2437 1.613 1_455 S
N2438 C2441 1.350 . S
N2439 S2437 1.610 . S
N2439 C2440 1.351 . S
C2440 C2434 1.428 . S
C2440 N2439 1.351 . S
C2440 C2441 1.434 1_655 S
C2441 C2432 1.429 . S
C2441 N2438 1.350 . S
C2441 C2440 1.434 1_455 S
C2442 C2443 1.369 1_554 S
C2442 C2444 1.419 1_565 S
C2442 H2446 0.930 . S
C2443 C2442 1.369 1_556 S
C2443 C2452 1.461 . S
C2444 C2442 1.419 1_545 S
C2444 C2445 1.363 . S
C2444 H2447 0.929 . S
C2445 C2444 1.363 . S
C2445 C2451 1.428 1_554 S
H2446 C2442 0.930 . S
H2447 C2444 0.929 . S
S2448 N2449 1.667 . S
S2448 N2450 1.610 . S
N2449 S2448 1.667 . S
N2449 C2452 1.356 1_545 S
N2450 S2448 1.610 . S
N2450 C2451 1.351 . S
C2451 C2445 1.428 1_556 S
C2451 N2450 1.351 . S
C2451 C2452 1.399 1_545 S
C2452 C2443 1.461 . S
C2452 N2449 1.356 1_565 S
C2452 C2451 1.399 1_565 S
C2453 C2454 1.369 . S
C2453 C2455 1.419 . S
C2453 H2457 0.930 . S
C2454 C2453 1.369 . S
C2454 C2463 1.429 . S
C2455 C2453 1.419 . S
C2455 C2456 1.363 . S
C2455 H2458 0.929 . S
C2456 C2455 1.363 . S
C2456 C2462 1.428 . S
H2457 C2453 0.930 . S
H2458 C2455 0.929 . S
S2459 N2460 1.613 . S
S2459 N2461 1.610 . S
N2460 S2459 1.613 . S
N2460 C2463 1.350 . S
N2461 S2459 1.610 . S
N2461 C2462 1.351 . S
C2462 C2456 1.428 . S
C2462 N2461 1.351 . S
C2462 C2463 1.434 . S
C2463 C2454 1.429 . S
C2463 N2460 1.350 . S
C2463 C2462 1.434 . S
C2464 C2465 1.369 . S
C2464 C2466 1.419 1_654 S
C2464 H2468 0.930 . S
C2465 C2464 1.369 . S
C2465 C2474 1.430 . S
C2466 C2464 1.419 1_456 S
C2466 C2467 1.363 . S
C2466 H2469 0.929 . S
C2467 C2466 1.363 . S
C2467 C2473 1.428 . S
H2468 C2464 0.930 . S
H2469 C2466 0.929 . S
S2470 N2471 1.613 . S
S2470 N2472 1.610 1_655 S
N2471 S2470 1.613 . S
N2471 C2474 1.350 1_556 S
N2472 S2470 1.610 1_455 S
N2472 C2473 1.351 . S
C2473 C2467 1.428 . S
C2473 N2472 1.351 . S
C2473 C2474 1.433 1_456 S
C2474 C2465 1.430 . S
C2474 N2471 1.350 1_554 S
C2474 C2473 1.433 1_654 S
C2475 C2476 1.369 . S
C2475 C2477 1.419 1_565 S
C2475 H2479 0.930 . S
C2476 C2475 1.369 . S
C2476 C2485 1.487 . S
C2477 C2475 1.419 1_545 S
C2477 C2478 1.363 . S
C2477 H2480 0.929 . S
C2478 C2477 1.363 . S
C2478 C2484 1.428 . S
H2479 C2475 0.930 . S
H2480 C2477 0.929 . S
S2481 N2482 1.633 . S
S2481 N2483 1.610 . S
N2482 S2481 1.633 . S
N2482 C2485 1.334 1_545 S
N2483 S2481 1.610 . S
N2483 C2484 1.351 . S
C2484 C2478 1.428 . S
C2484 N2483 1.351 . S
C2484 C2485 1.383 1_545 S
C2485 C2476 1.487 . S
C2485 N2482 1.334 1_565 S
C2485 C2484 1.383 1_565 S
C2486 C2487 1.369 . S
C2486 C2488 1.419 1_554 S
C2486 H2490 0.930 . S
C2487 C2486 1.369 . S
C2487 C2496 1.429 . S
C2488 C2486 1.419 1_556 S
C2488 C2489 1.363 . S
C2488 H2491 0.929 . S
C2489 C2488 1.363 . S
C2489 C2495 1.428 . S
H2490 C2486 0.930 . S
H2491 C2488 0.929 . S
S2492 N2493 1.613 . S
S2492 N2494 1.610 1_554 S
N2493 S2492 1.613 . S
N2493 C2496 1.350 . S
N2494 S2492 1.610 1_556 S
N2494 C2495 1.351 . S
C2495 C2489 1.428 . S
C2495 N2494 1.351 . S
C2495 C2496 1.434 1_556 S
C2496 C2487 1.429 . S
C2496 N2493 1.350 . S
C2496 C2495 1.434 1_554 S
C2497 C2498 1.369 . S
C2497 C2499 1.419 1_455 S
C2497 H2501 0.930 . S
C2498 C2497 1.369 . S
C2498 C2507 1.429 . S
C2499 C2497 1.419 1_655 S
C2499 C2500 1.363 . S
C2499 H2502 0.929 . S
C2500 C2499 1.363 . S
C2500 C2506 1.428 . S
H2501 C2497 0.930 . S
H2502 C2499 0.929 . S
S2503 N2504 1.576 1_655 S
S2503 N2505 1.610 . S
N2504 S2503 1.576 1_455 S
N2504 C2507 1.340 . S
N2505 S2503 1.610 . S
N2505 C2506 1.351 . S
C2506 C2500 1.428 . S
C2506 N2505 1.351 . S
C2506 C2507 1.434 1_655 S
C2507 C2498 1.429 . S
C2507 N2504 1.340 . S
C2507 C2506 1.434 1_455 S
C2508 C2509 1.369 . S
C2508 C2510 1.419 . S
C2508 H2512 0.930 . S
C2509 C2508 1.369 . S
C2509 C2518 1.429 . S
C2510 C2508 1.419 . S
C2510 C2511 1.363 . S
C2510 H2513 0.929 . S
C2511 C2510 1.363 . S
C2511 C2517 1.428 . S
H2512 C2508 0.930 . S
H2513 C2510 0.929 . S
S2514 N2515 1.613 . S
S2514 N2516 1.610 . S
N2515 S2514 1.613 . S
N2515 C2518 1.350 . S
N2516 S2514 1.610 . S
N2516 C2517 1.351 . S
C2517 C2511 1.428 . S
C2517 N2516 1.351 . S
C2517 C2518 1.434 . S
C2518 C2509 1.429 . S
C2518 N2515 1.350 . S
C2518 C2517 1.434 . S
C2519 C2520 1.369 . S
C2519 C2521 1.419 . S
C2519 H2523 0.930 . S
C2520 C2519 1.369 . S
C2520 C2529 1.429 . S
C2521 C2519 1.419 . S
C2521 C2522 1.363 . S
C2521 H2524 0.929 . S
C2522 C2521 1.363 . S
C2522 C2528 1.428 . S
H2523 C2519 0.930 . S
H2524 C2521 0.929 . S
S2525 N2526 1.613 . S
S2525 N2527 1.610 . S
N2526 S2525 1.613 . S
N2526 C2529 1.350 . S
N2527 S2525 1.610 . S
N2527 C2528 1.351 . S
C2528 C2522 1.428 . S
C2528 N2527 1.351 . S
C2528 C2529 1.434 . S
C2529 C2520 1.429 . S
C2529 N2526 1.350 . S
C2529 C2528 1.434 . S
C2530 C2531 1.369 . S
C2530 C2532 1.419 . S
C2530 H2534 0.930 . S
C2531 C2530 1.369 . S
C2531 C2540 1.429 . S
C2532 C2530 1.419 . S
C2532 C2533 1.363 . S
C2532 H2535 0.929 . S
C2533 C2532 1.363 . S
C2533 C2539 1.428 . S
H2534 C2530 0.930 . S
H2535 C2532 0.929 . S
S2536 N2537 1.613 . S
S2536 N2538 1.610 . S
N2537 S2536 1.613 . S
N2537 C2540 1.350 . S
N2538 S2536 1.610 . S
N2538 C2539 1.351 . S
C2539 C2533 1.428 . S
C2539 N2538 1.351 . S
C2539 C2540 1.434 . S
C2540 C2531 1.429 . S
C2540 N2537 1.350 . S
C2540 C2539 1.434 . S
C2541 C2542 1.369 . S
C2541 C2543 1.419 . S
C2541 H2545 0.930 . S
C2542 C2541 1.369 . S
C2542 C2551 1.429 . S
C2543 C2541 1.419 . S
C2543 C2544 1.363 . S
C2543 H2546 0.929 . S
C2544 C2543 1.363 . S
C2544 C2550 1.428 . S
H2545 C2541 0.930 . S
H2546 C2543 0.929 . S
S2547 N2548 1.613 . S
S2547 N2549 1.610 . S
N2548 S2547 1.613 . S
N2548 C2551 1.350 . S
N2549 S2547 1.610 . S
N2549 C2550 1.351 . S
C2550 C2544 1.428 . S
C2550 N2549 1.351 . S
C2550 C2551 1.434 . S
C2551 C2542 1.429 . S
C2551 N2548 1.350 . S
C2551 C2550 1.434 . S
C2552 C2553 1.369 . S
C2552 C2554 1.419 . S
C2552 H2556 0.930 . S
C2553 C2552 1.369 . S
C2553 C2562 1.429 . S
C2554 C2552 1.419 . S
C2554 C2555 1.363 . S
C2554 H2557 0.929 . S
C2555 C2554 1.363 . S
C2555 C2561 1.428 . S
H2556 C2552 0.930 . S
H2557 C2554 0.929 . S
S2558 N2559 1.613 . S
S2558 N2560 1.610 . S
N2559 S2558 1.613 . S
N2559 C2562 1.350 . S
N2560 S2558 1.610 . S
N2560 C2561 1.351 . S
C2561 C2555 1.428 . S
C2561 N2560 1.351 . S
C2561 C2562 1.434 . S
C2562 C2553 1.429 . S
C2562 N2559 1.350 . S
C2562 C2561 1.434 . S
C2563 C2564 1.369 . S
C2563 C2565 1.419 . S
C2563 H2567 0.930 . S
C2564 C2563 1.369 . S
C2564 C2573 1.429 . S
C2565 C2563 1.419 . S
C2565 C2566 1.363 . S
C2565 H2568 0.929 . S
C2566 C2565 1.363 . S
C2566 C2572 1.428 . S
H2567 C2563 0.930 . S
H2568 C2565 0.929 . S
S2569 N2570 1.613 . S
S2569 N2571 1.610 . S
N2570 S2569 1.613 . S
N2570 C2573 1.350 . S
N2571 S2569 1.610 . S
N2571 C2572 1.351 . S
C2572 C2566 1.428 . S
C2572 N2571 1.351 . S
C2572 C2573 1.434 . S
C2573 C2564 1.429 . S
C2573 N2570 1.350 . S
C2573 C2572 1.434 . S
C2574 C2575 1.369 . S
C2574 C2576 1.419 . S
C2574 H2578 0.930 . S
C2575 C2574 1.369 . S
C2575 C2584 1.429 . S
C2576 C2574 1.419 . S
C2576 C2577 1.363 . S
C2576 H2579 0.929 . S
C2577 C2576 1.363 . S
C2577 C2583 1.428 . S
H2578 C2574 0.930 . S
H2579 C2576 0.929 . S
S2580 N2581 1.613 . S
S2580 N2582 1.610 . S
N2581 S2580 1.613 . S
N2581 C2584 1.350 . S
N2582 S2580 1.610 . S
N2582 C2583 1.351 . S
C2583 C2577 1.428 . S
C2583 N2582 1.351 . S
C2583 C2584 1.434 . S
C2584 C2575 1.429 . S
C2584 N2581 1.350 . S
C2584 C2583 1.434 . S
C2585 C2586 1.369 . S
C2585 C2587 1.419 . S
C2585 H2589 0.930 . S
C2586 C2585 1.369 . S
C2586 C2595 1.429 . S
C2587 C2585 1.419 . S
C2587 C2588 1.363 . S
C2587 H2590 0.929 . S
C2588 C2587 1.363 . S
C2588 C2594 1.428 . S
H2589 C2585 0.930 . S
H2590 C2587 0.929 . S
S2591 N2592 1.613 . S
S2591 N2593 1.610 . S
N2592 S2591 1.613 . S
N2592 C2595 1.350 . S
N2593 S2591 1.610 . S
N2593 C2594 1.351 . S
C2594 C2588 1.428 . S
C2594 N2593 1.351 . S
C2594 C2595 1.434 . S
C2595 C2586 1.429 . S
C2595 N2592 1.350 . S
C2595 C2594 1.434 . S
C2596 C2597 1.369 . S
C2596 C2598 1.419 . S
C2596 H2600 0.930 . S
C2597 C2596 1.369 . S
C2597 C2606 1.429 . S
C2598 C2596 1.419 . S
C2598 C2599 1.363 . S
C2598 H2601 0.929 . S
C2599 C2598 1.363 . S
C2599 C2605 1.428 . S
H2600 C2596 0.930 . S
H2601 C2598 0.929 . S
S2602 N2603 1.613 . S
S2602 N2604 1.610 . S
N2603 S2602 1.613 . S
N2603 C2606 1.350 . S
N2604 S2602 1.610 . S
N2604 C2605 1.351 . S
C2605 C2599 1.428 . S
C2605 N2604 1.351 . S
C2605 C2606 1.434 . S
C2606 C2597 1.429 . S
C2606 N2603 1.350 . S
C2606 C2605 1.434 . S
C2607 C2608 1.369 . S
C2607 C2609 1.419 . S
C2607 H2611 0.930 . S
C2608 C2607 1.369 . S
C2608 C2617 1.429 . S
C2609 C2607 1.419 . S
C2609 C2610 1.363 . S
C2609 H2612 0.929 . S
C2610 C2609 1.363 . S
C2610 C2616 1.428 . S
H2611 C2607 0.930 . S
H2612 C2609 0.929 . S
S2613 N2614 1.613 . S
S2613 N2615 1.610 . S
N2614 S2613 1.613 . S
N2614 C2617 1.350 . S
N2615 S2613 1.610 . S
N2615 C2616 1.351 . S
C2616 C2610 1.428 . S
C2616 N2615 1.351 . S
C2616 C2617 1.434 . S
C2617 C2608 1.429 . S
C2617 N2614 1.350 . S
C2617 C2616 1.434 . S
C2618 C2619 1.369 . S
C2618 C2620 1.419 . S
C2618 H2622 0.930 . S
C2619 C2618 1.369 . S
C2619 C2628 1.429 . S
C2620 C2618 1.419 . S
C2620 C2621 1.363 . S
C2620 H2623 0.929 . S
C2621 C2620 1.363 . S
C2621 C2627 1.428 . S
H2622 C2618 0.930 . S
H2623 C2620 0.929 . S
S2624 N2625 1.613 . S
S2624 N2626 1.610 . S
N2625 S2624 1.613 . S
N2625 C2628 1.350 . S
N2626 S2624 1.610 . S
N2626 C2627 1.351 . S
C2627 C2621 1.428 . S
C2627 N2626 1.351 . S
C2627 C2628 1.434 . S
C2628 C2619 1.429 . S
C2628 N2625 1.350 . S
C2628 C2627 1.434 . S
C2629 C2630 1.369 . S
C2629 C2631 1.419 . S
C2629 H2633 0.930 . S
C2630 C2629 1.369 . S
C2630 C2639 1.429 . S
C2631 C2629 1.419 . S
C2631 C2632 1.363 . S
C2631 H2634 0.929 . S
C2632 C2631 1.363 . S
C2632 C2638 1.428 . S
H2633 C2629 0.930 . S
H2634 C2631 0.929 . S
S2635 N2636 1.613 . S
S2635 N2637 1.610 . S
N2636 S2635 1.613 . S
N2636 C2639 1.350 . S
N2637 S2635 1.610 . S
N2637 C2638 1.351 . S
C2638 C2632 1.428 . S
C2638 N2637 1.351 . S
C2638 C2639 1.434 . S
C2639 C2630 1.429 . S
C2639 N2636 1.350 . S
C2639 C2638 1.434 . S
C2113 C1369 1.516 . S
C2115 C29 1.516 . S
C2124 C117 1.513 . S
C2126 C1465 1.513 . S
C2135 C196 1.515 . S
C2137 C1553 1.514 . S
C2146 C284 1.515 . S
C2148 C1105 1.514 . S
C2157 C1193 1.512 . S
C2159 C401 1.513 . S
C2168 C469 1.515 . S
C2170 C1289 1.514 . S
C2179 C1868 1.512 . S
C2181 C585 1.513 . S
C2190 C665 1.514 . S
C2192 C1956 1.513 . S
C2201 C761 1.515 . S
C2203 C2044 1.515 . S
C2212 C1613 1.514 . S
C2214 C841 1.514 . S
C2223 C937 1.513 . S
C2225 C1701 1.513 . S
C2234 C1780 1.514 . S
C2236 C1017 1.515 . S
C2245 C20 1.130 . S
C2247 C2081 1.131 . S
C2256 C1633 1.131 . S
C2258 C108 1.128 . S
C2267 C205 1.125 . S
C2269 C1721 1.128 . S
C2278 C1817 1.125 . S
C2280 C293 1.123 . S
C2289 C409 1.123 . S
C2291 C1905 1.126 . S
C2300 C1993 1.131 . S
C2302 C460 1.128 . S
C2311 C577 1.126 . S
C2313 C1173 1.129 . S
C2322 C1252 1.127 . S
C2324 C673 1.125 . S
C2333 C1349 1.129 . S
C2335 C753 1.126 . S
C2344 C1428 1.128 . S
C2346 C849 1.125 . S
C2355 C929 1.123 . S
C2357 C1516 1.126 . S
C2366 C1025 1.129 . S
C2368 C1085 1.130 . S
C2377 C636 1.073 . S
C2379 C57 1.075 . S
C2388 C733 1.071 . S
C2390 C145 1.074 . S
C2399 C812 1.076 . S
C2401 C225 1.073 . S
C2410 C909 1.068 . S
C2412 C313 1.071 . S
C2421 C372 1.074 . S
C2423 C988 1.075 . S
C2432 C497 1.068 . S
C2434 C557 1.070 . S
C2443 C1076 1.069 . S
C2445 C1729 1.071 . S
C2454 C1164 1.070 . S
C2456 C1809 1.068 . S
C2465 C1897 1.073 . S
C2467 C1261 1.070 . S
C2476 C1985 1.070 . S
C2478 C1340 1.071 . S
C2487 C2073 1.065 . S
C2489 C1437 1.067 . S
C2498 C1641 1.071 . S
C2500 C1525 1.072 . S
C2509 C49 1.529 . S
C2511 C1692 1.528 . S
C2520 C1789 1.528 . S
C2522 C137 1.529 . S
C2531 C233 1.527 . S
C2533 C1877 1.526 . S
C2542 C1965 1.526 . S
C2544 C321 1.528 . S
C2553 C381 1.530 . S
C2555 C2053 1.528 . S
C2564 C1604 1.527 . S
C2566 C489 1.528 . S
C2575 C548 1.529 . S
C2577 C1545 1.528 . S
C2586 C1113 1.528 . S
C2588 C645 1.529 . S
C2597 C724 1.530 . S
C2599 C1201 1.529 . S
C2608 C821 1.530 . S
C2610 C1281 1.529 . S
C2619 C900 1.527 . S
C2621 C1377 1.526 . S
C2630 C997 1.527 . S
C2632 C1457 1.526 . S
