# Generated by pormake.
# Topology qtz-e, (6)-cn, num edge types: 1
# Building blocks:
#     Node 0, Type 0, BuildingBlock: INOVEN_clean_sbu_0, # of connection points: 6
#     Node 1, Type 0, BuildingBlock: INOVEN_clean_sbu_0, # of connection points: 6
#     Node 2, Type 0, BuildingBlock: INOVEN_clean_sbu_0, # of connection points: 6
#     Node 3, Type 0, BuildingBlock: INOVEN_clean_sbu_0, # of connection points: 6
#     Node 4, Type 0, BuildingBlock: INOVEN_clean_sbu_0, # of connection points: 6
#     Node 5, Type 0, BuildingBlock: INOVEN_clean_sbu_0, # of connection points: 6
#     Edge 6, Type (0, 0), BuildingBlock: XIVTED_clean_linker_0, # of connection points: 2
#     Edge 7, Type (0, 0), BuildingBlock: XIVTED_clean_linker_0, # of connection points: 2
#     Edge 8, Type (0, 0), BuildingBlock: XIVTED_clean_linker_0, # of connection points: 2
#     Edge 9, Type (0, 0), BuildingBlock: XIVTED_clean_linker_0, # of connection points: 2
#     Edge 10, Type (0, 0), BuildingBlock: XIVTED_clean_linker_0, # of connection points: 2
#     Edge 11, Type (0, 0), BuildingBlock: XIVTED_clean_linker_0, # of connection points: 2
#     Edge 12, Type (0, 0), BuildingBlock: XIVTED_clean_linker_0, # of connection points: 2
#     Edge 13, Type (0, 0), BuildingBlock: XIVTED_clean_linker_0, # of connection points: 2
#     Edge 14, Type (0, 0), BuildingBlock: XIVTED_clean_linker_0, # of connection points: 2
#     Edge 15, Type (0, 0), BuildingBlock: XIVTED_clean_linker_0, # of connection points: 2
#     Edge 16, Type (0, 0), BuildingBlock: XIVTED_clean_linker_0, # of connection points: 2
#     Edge 17, Type (0, 0), BuildingBlock: XIVTED_clean_linker_0, # of connection points: 2
#     Edge 18, Type (0, 0), BuildingBlock: XIVTED_clean_linker_0, # of connection points: 2
#     Edge 19, Type (0, 0), BuildingBlock: XIVTED_clean_linker_0, # of connection points: 2
#     Edge 20, Type (0, 0), BuildingBlock: XIVTED_clean_linker_0, # of connection points: 2
#     Edge 21, Type (0, 0), BuildingBlock: XIVTED_clean_linker_0, # of connection points: 2
#     Edge 22, Type (0, 0), BuildingBlock: XIVTED_clean_linker_0, # of connection points: 2
#     Edge 23, Type (0, 0), BuildingBlock: XIVTED_clean_linker_0, # of connection points: 2
# Relax obj value: 0.088
# Max RMSD: 0.173
# Mean RMSD: 0.173
data_MOF--net-qtz-e--node1-INOVEN_clean_sbu_0--edge1-XIVTED_clean_linker_0
_symmetry_space_group_name_H-M    P1
_symmetry_Int_Tables_number       1
_symmetry_cell_setting            triclinic
loop_
_symmetry_equiv_pos_as_xyz
'x, y, z'
_cell_length_a     26.366379
_cell_length_b     26.420618
_cell_length_c     51.734809
_cell_angle_alpha  90.022646
_cell_angle_beta   89.974319
_cell_angle_gamma 119.72227
loop_
_atom_site_label
_atom_site_type_symbol
_atom_site_fract_x
_atom_site_fract_y
_atom_site_fract_z
_atom_type_partial_charge
Gd0 Gd 0.18631 0.47142 0.06115 0.0
Gd1 Gd 0.17165 0.35307 0.04908 0.0
C2 C 0.13868 0.36793 0.10602 0.0
C3 C 0.16881 0.55257 0.07865 0.0
C4 C 0.17359 0.57135 0.10561 0.0
C5 C 0.20633 0.55807 0.12288 0.0
C6 C 0.14208 0.59746 0.11484 0.0
C7 C 0.17685 0.59747 0.15849 0.0
C8 C 0.14373 0.61054 0.14117 0.0
C9 C 0.20804 0.57108 0.14903 0.0
C10 C 0.28475 0.46785 0.06798 0.0
C11 C 0.22457 0.45698 1.00611 0.0
C12 C 0.18116 0.26875 0.02827 0.0
C13 C 0.20284 0.26076 1.00289 0.0
C14 C 0.16881 0.21012 0.98833 0.0
C15 C 0.25587 0.30418 0.99239 0.0
C16 C 0.23955 0.24716 0.95283 0.0
C17 C 0.27381 0.29767 0.96766 0.0
C18 C 0.18694 0.20327 0.9637 0.0
C19 C 0.07836 0.36789 0.04111 0.0
O20 O 0.14513 0.41818 0.09753 0.0
O21 O 0.15169 0.33489 0.09134 0.0
O22 O 0.21802 0.56318 0.06782 0.0
O23 O 0.12631 0.49964 0.07426 0.0
O24 O 0.28281 0.5137 0.06064 0.0
O25 O 0.23443 0.42638 0.07368 0.0
O26 O 0.22698 0.41249 1.01652 0.0
O27 O 0.19918 0.48217 1.01845 0.0
O28 O 0.13311 0.27163 0.02761 0.0
O29 O 0.21973 0.30657 0.04434 0.0
O30 O 0.07406 0.32278 0.05312 0.0
O31 O 0.13025 0.40152 0.03516 0.0
H32 H 0.22979 0.53651 0.11621 0.0
H33 H 0.11579 0.60701 0.10179 0.0
H34 H 0.11941 0.63106 0.14796 0.0
H35 H 0.23284 0.55927 0.16193 0.0
H36 H 0.1278 0.17587 0.99597 0.0
H37 H 0.2832 0.34372 1.00312 0.0
H38 H 0.31408 0.33297 0.96002 0.0
H39 H 0.15972 0.16326 0.95326 0.0
Gd40 Gd 0.68954 0.20203 0.39504 0.0
Gd41 Gd 0.79607 0.19122 0.38168 0.0
C42 C 0.74021 0.14263 0.43675 0.0
C43 C 0.58625 0.17879 0.40875 0.0
C44 C 0.55916 0.1726 0.43432 0.0
C45 C 0.54335 0.21365 0.4423 0.0
C46 C 0.55498 0.13025 0.45197 0.0
C47 C 0.52679 0.1748 0.48597 0.0
C48 C 0.539 0.13139 0.47757 0.0
C49 C 0.52744 0.21486 0.46792 0.0
C50 C 0.78941 0.29621 0.40832 0.0
C51 C 0.75242 0.25859 0.34253 0.0
C52 C 0.89293 0.20458 0.36242 0.0
C53 C 0.92192 0.22306 0.33678 0.0
C54 C 0.94645 0.19222 0.32506 0.0
C55 C 0.92362 0.27008 0.32338 0.0
C56 C 0.97312 0.2547 0.28674 0.0
C57 C 0.94844 0.28546 0.29867 0.0
C58 C 0.97191 0.20791 0.3004 0.0
C59 C 0.68983 0.10392 0.36632 0.0
O60 O 0.69582 0.14869 0.42843 0.0
O61 O 0.78891 0.16229 0.42308 0.0
O62 O 0.62784 0.23149 0.40305 0.0
O63 O 0.59901 0.13848 0.40218 0.0
O64 O 0.74262 0.29722 0.40157 0.0
O65 O 0.78015 0.24449 0.41032 0.0
O66 O 0.79738 0.25591 0.35233 0.0
O67 O 0.7006 0.23105 0.35371 0.0
O68 O 0.84452 0.15446 0.36303 0.0
O69 O 0.88983 0.24429 0.37642 0.0
O70 O 0.72869 0.09399 0.37688 0.0
O71 O 0.70936 0.15738 0.36514 0.0
H72 H 0.54581 0.24644 0.42898 0.0
H73 H 0.56647 0.09773 0.44637 0.0
H74 H 0.5391 0.10008 0.49106 0.0
H75 H 0.51714 0.24811 0.47378 0.0
H76 H 0.94581 0.1558 0.33498 0.0
H77 H 0.90542 0.29484 0.33196 0.0
H78 H 0.94736 0.32104 0.2888 0.0
H79 H -0.00887 0.1836 0.2922 0.0
Gd80 Gd 0.49042 0.70327 0.72776 0.0
Gd81 Gd 0.60723 0.80765 0.7154 0.0
C82 C 0.59519 0.76012 0.77223 0.0
C83 C 0.40935 0.60367 0.74405 0.0
C84 C 0.38655 0.58694 0.77031 0.0
C85 C 0.39888 0.63068 0.78864 0.0
C86 C 0.3553 0.52828 0.77766 0.0
C87 C 0.34802 0.55733 0.82157 0.0
C88 C 0.33612 0.51349 0.8032 0.0
C89 C 0.37964 0.61603 0.81402 0.0
C90 C 0.4918 0.8038 0.73567 0.0
C91 C 0.5026 0.75693 0.67316 0.0
C92 C 0.6882 0.90105 0.69329 0.0
C93 C 0.69395 0.92758 0.66718 0.0
C94 C 0.73777 0.93268 0.65013 0.0
C95 C 0.65518 0.94619 0.6586 0.0
C96 C 0.70329 0.97317 0.61629 0.0
C97 C 0.65975 0.96857 0.63354 0.0
C98 C 0.74235 0.95501 0.62507 0.0
C99 C 0.59495 0.70118 0.70637 0.0
O100 O 0.54525 0.71572 0.76385 0.0
O101 O 0.62681 0.80641 0.75755 0.0
O102 O 0.39856 0.642 0.73311 0.0
O103 O 0.46352 0.61591 0.74112 0.0
O104 O 0.44625 0.75612 0.72831 0.0
O105 O 0.53411 0.79553 0.74079 0.0
O106 O 0.54589 0.80378 0.68388 0.0
O107 O 0.47935 0.70616 0.68506 0.0
O108 O 0.68873 0.85185 0.69392 0.0
O109 O 0.64977 0.90132 0.70928 0.0
O110 O 0.64005 0.7421 0.71823 0.0
O111 O 0.55987 0.7183 0.70106 0.0
H112 H 0.42397 0.67631 0.78335 0.0
H113 H 0.34612 0.49412 0.76375 0.0
H114 H 0.3117 0.4679 0.80854 0.0
H115 H 0.39048 0.65072 0.82785 0.0
H116 H 0.76824 0.91863 0.65608 0.0
H117 H 0.62083 0.94303 0.67115 0.0
H118 H 0.6293 0.98276 0.62781 0.0
H119 H 0.77597 0.95691 0.61243 0.0
Gd120 Gd 0.77219 0.49313 0.06001 0.0
Gd121 Gd 0.78745 0.61364 0.0491 0.0
C122 C 0.81473 0.59357 0.10633 0.0
C123 C 0.78823 0.40995 0.07638 0.0
C124 C 0.79568 0.3933 0.10269 0.0
C125 C 0.75845 0.33634 0.11135 0.0
C126 C 0.83435 0.4353 0.12028 0.0
C127 C 0.79358 0.36514 0.15537 0.0
C128 C 0.83334 0.42131 0.14637 0.0
C129 C 0.75738 0.32234 0.13745 0.0
C130 C 0.6731 0.49676 0.06335 0.0
C131 C 0.7438 0.51383 1.00358 0.0
C132 C 0.77353 0.69593 0.02907 0.0
C133 C 0.75301 0.70376 1.00335 0.0
C134 C 0.78058 0.75853 0.99126 0.0
C135 C 0.70751 0.6565 0.99019 0.0
C136 C 0.71812 0.71852 0.95306 0.0
C137 C 0.69058 0.66366 0.96537 0.0
C138 C 0.76329 0.76592 0.9665 0.0
C139 C 0.88251 0.6016 0.04375 0.0
O140 O 0.80891 0.5437 0.09752 0.0
O141 O 0.80357 0.628 0.09169 0.0
O142 O 0.73646 0.40294 0.07148 0.0
O143 O 0.83054 0.45919 0.06741 0.0
O144 O 0.67631 0.45213 0.05504 0.0
O145 O 0.72225 0.5369 0.0712 0.0
O146 O 0.74366 0.55998 1.01341 0.0
O147 O 0.76126 0.48301 1.01716 0.0
O148 O 0.82374 0.69715 0.02934 0.0
O149 O 0.73469 0.65508 0.04405 0.0
O150 O 0.88505 0.647 0.05479 0.0
O151 O 0.83164 0.56704 0.03657 0.0
H152 H 0.72835 0.30328 0.09811 0.0
H153 H 0.86349 0.47972 0.11418 0.0
H154 H 0.86155 0.45536 0.15968 0.0
H155 H 0.7271 0.27835 0.14371 0.0
H156 H 0.81576 0.79572 1.00095 0.0
H157 H 0.68538 0.61361 0.99889 0.0
H158 H 0.65648 0.62569 0.95568 0.0
H159 H 0.78511 0.80905 0.95803 0.0
Gd160 Gd 0.25784 0.76279 0.39711 0.0
Gd161 Gd 0.15147 0.77381 0.38313 0.0
C162 C 0.20841 0.82504 0.43776 0.0
C163 C 0.36135 0.7861 0.41051 0.0
C164 C 0.38985 0.79371 0.43578 0.0
C165 C 0.40912 0.75503 0.44324 0.0
C166 C 0.39255 0.83513 0.45361 0.0
C167 C 0.427 0.79455 0.4868 0.0
C168 C 0.41098 0.83555 0.4789 0.0
C169 C 0.42743 0.75533 0.46856 0.0
C170 C 0.15771 0.66973 0.41107 0.0
C171 C 0.19457 0.70449 0.34475 0.0
C172 C 0.05463 0.75969 0.36362 0.0
C173 C 0.02614 0.74158 0.33782 0.0
C174 C 0.01041 0.77778 0.32425 0.0
C175 C 0.01587 0.68928 0.32613 0.0
C176 C 0.97631 0.71058 0.28746 0.0
C177 C -0.00822 0.67421 0.30126 0.0
C178 C -0.01432 0.76246 0.29947 0.0
C179 C 0.25786 0.85974 0.36716 0.0
O180 O 0.25261 0.81855 0.42955 0.0
O181 O 0.15927 0.80445 0.42434 0.0
O182 O 0.31922 0.73318 0.40558 0.0
O183 O 0.34863 0.82625 0.40366 0.0
O184 O 0.20445 0.66811 0.4048 0.0
O185 O 0.16724 0.72164 0.41238 0.0
O186 O 0.14993 0.70857 0.35402 0.0
O187 O 0.2461 0.73133 0.3562 0.0
O188 O 0.10258 0.81023 0.36464 0.0
O189 O 0.05792 0.72002 0.37755 0.0
O190 O 0.21916 0.8706 0.37722 0.0
O191 O 0.23803 0.80619 0.36665 0.0
H192 H 0.40771 0.72296 0.42976 0.0
H193 H 0.37826 0.86573 0.44838 0.0
H194 H 0.40991 0.86608 0.49257 0.0
H195 H 0.44052 0.72391 0.47406 0.0
H196 H 0.01747 0.81819 0.33281 0.0
H197 H 0.02691 0.66009 0.33613 0.0
H198 H -0.01371 0.63437 0.29274 0.0
H199 H 0.9735 0.79124 0.28984 0.0
Gd200 Gd 0.47096 0.26621 0.72782 0.0
Gd201 Gd 0.3526 0.16371 0.71507 0.0
C202 C 0.36542 0.21027 0.77208 0.0
C203 C 0.55377 0.3665 0.74289 0.0
C204 C 0.57485 0.39125 0.76869 0.0
C205 C 0.63498 0.42163 0.77378 0.0
C206 C 0.53523 0.37937 0.78903 0.0
C207 C 0.61537 0.42318 0.81959 0.0
C208 C 0.55531 0.3948 0.8143 0.0
C209 C 0.65519 0.4379 0.79908 0.0
C210 C 0.46641 0.16426 0.73542 0.0
C211 C 0.4584 0.21033 0.67342 0.0
C212 C 0.26893 0.07189 0.69298 0.0
C213 C 0.26161 0.04732 0.66651 0.0
C214 C 0.29554 0.08219 0.64582 0.0
C215 C 0.22055 -0.01128 0.66169 0.0
C216 C 0.24778 5e-05 0.6159 0.0
C217 C 0.2135 0.96539 0.63667 0.0
C218 C 0.28901 0.05881 0.62089 0.0
C219 C 0.36928 0.27181 0.70563 0.0
O220 O 0.41615 0.25416 0.76401 0.0
O221 O 0.33308 0.16473 0.75715 0.0
O222 O 0.56243 0.32341 0.73662 0.0
O223 O 0.50168 0.3569 0.73654 0.0
O224 O 0.51268 0.2113 0.72797 0.0
O225 O 0.42477 0.17368 0.74061 0.0
O226 O 0.41323 0.16478 0.6839 0.0
O227 O 0.48379 0.26118 0.68532 0.0
O228 O 0.26972 0.12161 0.69478 0.0
O229 O 0.30885 0.07035 0.70745 0.0
O230 O 0.32334 0.2321 0.71746 0.0
O231 O 0.40286 0.25266 0.70064 0.0
H232 H 0.66618 0.43098 0.75834 0.0
H233 H 0.48867 0.3567 0.78554 0.0
H234 H 0.52386 0.38385 0.82978 0.0
H235 H 0.70175 0.45978 0.80275 0.0
H236 H 0.32706 0.12773 0.6489 0.0
H237 H 0.19388 0.96092 0.67729 0.0
H238 H 0.18176 0.91987 0.63368 0.0
H239 H 0.31571 0.08711 0.60542 0.0
H240 H 0.09528 0.64037 0.31624 0.0
H241 H 0.27214 0.64377 0.19019 0.0
H242 H 0.28176 0.70933 0.31436 0.0
H243 H 0.08659 0.5808 0.19039 0.0
H244 H 0.27495 0.66187 0.23648 0.0
H245 H 0.08945 0.61077 0.27116 0.0
C246 C 0.13494 0.649 0.30642 0.0
C247 C 0.18917 0.67831 0.31898 0.0
C248 C 0.23355 0.64402 0.22645 0.0
C249 C 0.1829 0.64435 0.2674 0.0
C250 C 0.23189 0.63355 0.20002 0.0
C251 C 0.17902 0.6107 0.18642 0.0
C252 C 0.18198 0.63169 0.23948 0.0
C253 C 0.12839 0.5991 0.20008 0.0
C254 C 0.13159 0.63203 0.28066 0.0
C255 C 0.23902 0.68718 0.30543 0.0
N256 N 0.13111 0.60972 0.2259 0.0
N257 N 0.23473 0.67072 0.28031 0.0
H258 H 0.42365 0.11015 0.6462 0.0
H259 H 0.57252 0.27478 0.51452 0.0
H260 H 0.5308 0.29716 0.64017 0.0
H261 H 0.46138 0.08837 0.52073 0.0
H262 H 0.56047 0.28385 0.56076 0.0
H263 H 0.44154 0.10123 0.60075 0.0
C264 C 0.45139 0.1494 0.63535 0.0
C265 C 0.47534 0.2046 0.64692 0.0
C266 C 0.53864 0.24097 0.55202 0.0
C267 C 0.496 0.1946 0.59478 0.0
C268 C 0.54504 0.2358 0.52558 0.0
C269 C 0.51755 0.18075 0.51375 0.0
C270 C 0.50449 0.19072 0.56675 0.0
C271 C 0.48361 0.13159 0.52912 0.0
C272 C 0.46152 0.14422 0.60936 0.0
C273 C 0.51141 0.2538 0.632 0.0
N274 N 0.47795 0.13777 0.55483 0.0
N275 N 0.52034 0.24766 0.6066 0.0
H276 H 0.28772 0.42168 0.97704 0.0
H277 H 0.29815 0.60481 0.85235 0.0
H278 H 0.21207 0.53378 0.97475 0.0
H279 H 0.35435 0.4767 0.85255 0.0
H280 H 0.27074 0.58325 0.8978 0.0
H281 H 0.31758 0.44577 0.93217 0.0
C282 C 0.2773 0.45133 0.9671 0.0
C283 C 0.24668 0.47512 0.97959 0.0
C284 C 0.28893 0.55974 0.8879 0.0
C285 C 0.28123 0.50343 0.92815 0.0
C286 C 0.30474 0.57215 0.862 0.0
C287 C 0.32859 0.54249 0.84871 0.0
C288 C 0.29725 0.51754 0.90064 0.0
C289 C 0.33553 0.5001 0.86202 0.0
C290 C 0.29448 0.46517 0.94144 0.0
C291 C 0.23544 0.51426 0.96586 0.0
N292 N 0.32011 0.48903 0.8873 0.0
N293 N 0.25257 0.52707 0.94081 0.0
H294 H 0.85256 0.33858 0.31825 0.0
H295 H 0.69242 0.30292 0.18273 0.0
H296 H 0.66602 0.23688 0.30771 0.0
H297 H 0.87968 0.3994 0.19218 0.0
H298 H 0.6818 0.2833 0.22903 0.0
H299 H 0.86318 0.36792 0.27292 0.0
C300 C 0.81384 0.32251 0.3064 0.0
C301 C 0.75849 0.28424 0.3166 0.0
C302 C 0.72524 0.3088 0.22101 0.0
C303 C 0.7701 0.31812 0.26479 0.0
C304 C 0.73139 0.31955 0.19451 0.0
C305 C 0.78709 0.35233 0.18348 0.0
C306 C 0.77514 0.33092 0.23671 0.0
C307 C 0.83591 0.3741 0.19986 0.0
C308 C 0.81988 0.33949 0.28054 0.0
C309 C 0.70957 0.26629 0.30062 0.0
N310 N 0.8288 0.3628 0.22564 0.0
N311 N 0.71658 0.28294 0.27543 0.0
H312 H 0.43091 0.66834 0.64051 0.0
H313 H 0.49243 0.883 0.5207 0.0
H314 H 0.53519 0.85579 0.64525 0.0
H315 H 0.38766 0.69568 0.51565 0.0
H316 H 0.50692 0.87397 0.56675 0.0
H317 H 0.4111 0.67744 0.59509 0.0
C318 C 0.44922 0.71139 0.63207 0.0
C319 C 0.48519 0.76135 0.64659 0.0
C320 C 0.48082 0.83482 0.55556 0.0
C321 C 0.4633 0.77209 0.5947 0.0
C322 C 0.47253 0.84 0.5293 0.0
C323 C 0.43905 0.79001 0.51435 0.0
C324 C 0.45519 0.77926 0.56694 0.0
C325 C 0.41459 0.7353 0.5264 0.0
C326 C 0.43816 0.71657 0.60612 0.0
C327 C 0.50783 0.81606 0.63469 0.0
N328 N 0.42308 0.73138 0.55201 0.0
N329 N 0.49675 0.81995 0.60941 0.0
H330 H 0.75479 0.58919 0.96557 0.0
H331 H 0.57799 0.34747 0.86014 0.0
H332 H 0.69696 0.40755 0.97943 0.0
H333 H 0.69976 0.52594 0.84013 0.0
H334 H 0.61182 0.36835 0.90505 0.0
H335 H 0.72531 0.56665 0.92047 0.0
C336 C 0.73555 0.54443 0.95911 0.0
C337 C 0.72765 0.49997 0.97624 0.0
C338 C 0.63128 0.40279 0.89079 0.0
C339 C 0.69422 0.47402 0.92467 0.0
C340 C 0.61178 0.39107 0.86529 0.0
C341 C 0.63609 0.43523 0.84658 0.0
C342 C 0.67459 0.45927 0.89762 0.0
C343 C 0.68014 0.49078 0.85405 0.0
C344 C 0.71928 0.53174 0.93333 0.0
C345 C 0.70372 0.44297 0.96677 0.0
N346 N 0.69767 0.50142 0.8791 0.0
N347 N 0.68723 0.43142 0.94157 0.0
H348 H 0.30456 0.37669 0.07727 0.0
H349 H 0.65221 0.58324 0.08028 0.0
H350 H 0.39124 0.56402 0.07067 0.0
H351 H 0.56602 0.40164 0.05856 0.0
H352 H 0.55603 0.5749 0.08682 0.0
H353 H 0.4006 0.38314 0.08081 0.0
C354 C 0.34369 0.41901 0.07681 0.0
C355 C 0.34032 0.46972 0.07318 0.0
C356 C 0.55845 0.5369 0.08079 0.0
C357 C 0.44925 0.47763 0.07756 0.0
C358 C 0.61312 0.54174 0.07699 0.0
C359 C 0.61677 0.49334 0.06853 0.0
C360 C 0.50759 0.48314 0.07637 0.0
C361 C 0.56501 0.44023 0.06483 0.0
C362 C 0.39829 0.42275 0.07882 0.0
C363 C 0.3921 0.52374 0.07305 0.0
N364 N 0.51249 0.43655 0.06873 0.0
N365 N 0.4445 0.52629 0.07507 0.0
H366 H 0.04956 0.6574 0.42091 0.0
H367 H 0.8965 0.30891 0.42071 0.0
H368 H 0.14269 0.56169 0.4169 0.0
H369 H 0.80394 0.40447 0.41245 0.0
H370 H -0.01302 0.40145 0.42808 0.0
H371 H 0.95814 0.56483 0.42664 0.0
C372 C 0.05073 0.61703 0.42149 0.0
C373 C 0.1032 0.61681 0.4179 0.0
C374 C 0.94664 0.40196 0.42491 0.0
C375 C -9e-05 0.51156 0.42456 0.0
C376 C 0.89524 0.34926 0.4207 0.0
C377 C 0.84325 0.34942 0.41555 0.0
C378 C 0.94551 0.45467 0.42401 0.0
C379 C 0.84345 0.40263 0.416 0.0
C380 C -0.00122 0.56431 0.42477 0.0
C381 C 0.10284 0.56358 0.41918 0.0
N382 N 0.89389 0.45318 0.41993 0.0
N383 N 0.05193 0.51304 0.42218 0.0
H384 H 0.3749 0.05519 0.74651 0.0
H385 H 0.58163 0.91243 0.74837 0.0
H386 H 0.56231 0.15255 0.7379 0.0
H387 H 0.3953 0.81492 0.73612 0.0
H388 H 0.57464 0.0011 0.75397 0.0
H389 H 0.38093 0.9659 0.75213 0.0
C390 C 0.41717 0.05774 0.74606 0.0
C391 C 0.46801 0.11078 0.74136 0.0
C392 C 0.53528 0.96008 0.75028 0.0
C393 C 0.47546 0.01005 0.74793 0.0
C394 C 0.53936 0.90972 0.74709 0.0
C395 C 0.48918 0.85683 0.74141 0.0
C396 C 0.48061 0.95695 0.74795 0.0
C397 C 0.43521 0.85517 0.74016 0.0
C398 C 0.42069 0.00704 0.74924 0.0
C399 C 0.52192 0.11222 0.74114 0.0
N400 N 0.43236 0.9046 0.74326 0.0
N401 N 0.52422 0.06254 0.74423 0.0
H402 H 0.55584 0.63361 0.66449 0.0
H403 H 0.37084 0.34332 0.74466 0.0
H404 H 0.58592 0.62819 0.74602 0.0
H405 H 0.42127 0.34223 0.6655 0.0
H406 H 0.43402 0.45045 0.74534 0.0
H407 H 0.49532 0.52766 0.66418 0.0
C408 C 0.55125 0.60962 0.68215 0.0
C409 C 0.57659 0.6391 0.70518 0.0
C410 C 0.43032 0.42654 0.72777 0.0
C411 C 0.50467 0.51853 0.70535 0.0
C412 C 0.39336 0.36592 0.7272 0.0
C413 C 0.3905 0.33458 0.70484 0.0
C414 C 0.46327 0.45518 0.7057 0.0
C415 C 0.42198 0.36523 0.68296 0.0
C416 C 0.51605 0.54939 0.68206 0.0
C417 C 0.56813 0.60652 0.72777 0.0
N418 N 0.45707 0.42379 0.68393 0.0
N419 N 0.53174 0.54765 0.72744 0.0
H420 H 0.01129 0.37115 0.08122 0.0
H421 H 0.92283 0.5741 1.00198 0.0
H422 H 0.05629 0.41783 1.00131 0.0
H423 H 0.93601 0.58248 0.08501 0.0
H424 H 0.96559 0.51097 1.00132 0.0
H425 H 0.96993 0.43703 0.08288 0.0
C426 C 0.01017 0.39335 0.06382 0.0
C427 C 0.03633 0.38883 0.04098 0.0
C428 C 0.96052 0.52753 1.01972 0.0
C429 C -0.00805 0.46508 0.04296 0.0
C430 C 0.9371 0.56439 1.02003 0.0
C431 C 0.92712 0.58415 0.04351 0.0
C432 C 0.97278 0.50908 0.04316 0.0
C433 C 0.94457 0.56908 0.0665 0.0
C434 C -0.01195 0.43191 0.06492 0.0
C435 C 0.03587 0.41987 1.01917 0.0
N436 N 0.96575 0.53133 0.06583 0.0
N437 N 0.01442 0.45686 1.02073 0.0
H438 H 0.32386 0.97482 0.38251 0.0
H439 H 0.62428 -0.01003 0.38325 0.0
H440 H 0.33453 0.83577 0.34363 0.0
H441 H 0.61276 0.12577 0.34183 0.0
H442 H 0.51645 0.93083 0.38198 0.0
H443 H 0.43167 0.03368 0.38083 0.0
C444 C 0.34867 0.95705 0.37344 0.0
C445 C 0.32058 0.90036 0.36344 0.0
C446 C 0.53822 0.9737 0.3732 0.0
C447 C 0.4419 0.96541 0.3625 0.0
C448 C 0.59927 0.00695 0.37371 0.0
C449 C 0.62713 0.06286 0.36288 0.0
C450 C 0.50581 -0.00245 0.36237 0.0
C451 C 0.59286 0.08316 0.35076 0.0
C452 C 0.40972 -0.00985 0.37271 0.0
C453 C 0.35462 0.87904 0.35191 0.0
N454 N 0.53386 0.05098 0.35124 0.0
N455 N 0.41364 0.91116 0.35217 0.0
H456 H 0.25388 0.15166 0.79208 0.0
H457 H 0.35138 0.28575 0.9346 0.0
H458 H 0.43161 0.27396 0.81328 0.0
H459 H 0.17131 0.19315 0.90986 0.0
H460 H 0.38126 0.27603 0.89109 0.0
H461 H 0.22264 0.15938 0.83595 0.0
C462 C 0.28638 0.18003 0.80593 0.0
C463 C 0.34547 0.21269 0.7988 0.0
C464 C 0.33517 0.2578 0.89517 0.0
C465 C 0.31 0.22157 0.84918 0.0
C466 C 0.31795 0.26366 0.92008 0.0
C467 C 0.25849 0.24049 0.92622 0.0
C468 C 0.29284 0.22812 0.87601 0.0
C469 C 0.21755 0.2111 0.90641 0.0
C470 C 0.26847 0.18461 0.83096 0.0
C471 C 0.38552 0.24879 0.81765 0.0
N472 N 0.23544 0.20577 0.88232 0.0
N473 N 0.36714 0.25214 0.84187 0.0
H474 H 0.03419 0.3645 0.26525 0.0
H475 H 0.10163 0.26147 0.12981 0.0
H476 H 0.97399 0.18377 0.24744 0.0
H477 H 0.12435 0.43262 0.14365 0.0
H478 H 0.06268 0.23314 0.17386 0.0
H479 H 0.0748 0.39096 0.22185 0.0
C480 C 0.02903 0.33014 0.25226 0.0
C481 C -9e-05 0.27154 0.26028 0.0
C482 C 0.0763 0.27689 0.16721 0.0
C483 C 0.04796 0.30216 0.2102 0.0
C484 C 0.09874 0.29317 0.14207 0.0
C485 C 0.11637 0.34956 0.13286 0.0
C486 C 0.07198 0.31743 0.18338 0.0
C487 C 0.1113 0.38863 0.14972 0.0
C488 C 0.05271 0.34547 0.22741 0.0
C489 C -0.00355 0.22955 0.24246 0.0
N490 N 0.08981 0.37191 0.17404 0.0
N491 N 0.02008 0.24564 0.21835 0.0
H492 H 0.61458 0.95895 0.5833 0.0
H493 H 0.82641 0.13827 0.46531 0.0
H494 H 0.80249 0.0409 0.58724 0.0
H495 H 0.64304 0.08476 0.46762 0.0
H496 H 0.81754 0.09614 0.50844 0.0
H497 H 0.62329 -0.00151 0.53977 0.0
C498 C 0.65777 -0.01446 0.5752 0.0
C499 C 0.70786 -0.00342 0.58934 0.0
C500 C 0.77922 0.09356 0.49949 0.0
C501 C 0.71806 0.04152 0.53886 0.0
C502 C 0.7842 0.1175 0.47477 0.0
C503 C 0.73546 0.1154 0.46266 0.0
C504 C 0.72495 0.06674 0.51228 0.0
C505 C 0.68197 0.08786 0.47608 0.0
C506 C 0.66265 0.00788 0.55017 0.0
C507 C 0.76244 0.03036 0.57721 0.0
N508 N 0.67819 0.06468 0.50003 0.0
N509 N 0.76602 0.0515 0.55282 0.0
H510 H 0.70143 0.83217 0.79567 0.0
H511 H 0.60776 0.66294 0.9315 0.0
H512 H 0.53358 0.68034 0.81006 0.0
H513 H 0.78591 0.79144 0.91344 0.0
H514 H 0.57892 0.67385 0.88801 0.0
H515 H 0.73192 0.82353 0.83956 0.0
C516 C 0.6709 0.79717 0.80801 0.0
C517 C 0.61481 0.75693 0.79898 0.0
C518 C 0.62437 0.6997 0.89353 0.0
C519 C 0.64947 0.74689 0.84941 0.0
C520 C 0.6411 0.69323 0.91844 0.0
C521 C 0.69968 0.72599 0.92645 0.0
C522 C 0.6662 0.73961 0.87624 0.0
C523 C 0.74016 0.76562 0.90851 0.0
C524 C 0.68843 0.79216 0.83308 0.0
C525 C 0.57731 0.71238 0.81597 0.0
N526 N 0.7227 0.77128 0.88436 0.0
N527 N 0.59523 0.70871 0.84023 0.0
H528 H -0.00871 0.78307 0.24603 0.0
H529 H 0.81221 0.52353 0.14581 0.0
H530 H 0.9027 0.6011 0.26736 0.0
H531 H 0.86396 0.70252 0.12889 0.0
H532 H 0.85021 0.55199 0.18962 0.0
H533 H 0.94964 0.75547 0.20266 0.0
C534 C 0.9628 0.73735 0.2418 0.0
C535 C 0.95081 0.69451 0.26073 0.0
C536 C 0.85316 0.58514 0.17641 0.0
C537 C 0.90366 0.66254 0.21052 0.0
C538 C 0.83169 0.56892 0.15127 0.0
C539 C 0.83512 0.61067 0.13347 0.0
C540 C 0.87892 0.64383 0.18397 0.0
C541 C 0.86015 0.66876 0.14191 0.0
C542 C 0.93925 0.72164 0.21688 0.0
C543 C 0.91437 0.63589 0.25355 0.0
N544 N 0.88141 0.68366 0.16647 0.0
N545 N 0.89241 0.62177 0.22913 0.0
H546 H 0.14616 0.9244 0.59035 0.0
H547 H 0.30826 0.89185 0.46558 0.0
H548 H 0.33319 0.01878 0.5803 0.0
H549 H 0.12215 0.82425 0.46847 0.0
H550 H 0.31758 0.93522 0.5082 0.0
H551 H 0.1359 0.88371 0.54683 0.0
C552 C 0.18514 0.93643 0.57909 0.0
C553 C 0.24068 0.97514 0.58921 0.0
C554 C 0.27465 0.91108 0.49954 0.0
C555 C 0.2291 0.9286 0.53907 0.0
C556 C 0.26922 0.88602 0.47514 0.0
C557 C 0.21425 0.85393 0.46329 0.0
C558 C 0.2247 0.9038 0.51257 0.0
C559 C 0.16544 0.84862 0.47673 0.0
C560 C 0.17917 0.91343 0.55412 0.0
C561 C 0.28944 -0.01038 0.57338 0.0
N562 N 0.17176 0.8729 0.50066 0.0
N563 N 0.28251 0.9662 0.54927 0.0
loop_
_geom_bond_atom_site_label_1
_geom_bond_atom_site_label_2
_geom_bond_distance
_geom_bond_site_symmetry_2
_ccdc_geom_bond_type
Gd0 C3 2.818 . S
Gd0 O20 2.377 . S
Gd0 O22 2.448 . S
Gd0 O23 2.506 . S
Gd0 O24 2.435 . S
Gd0 O25 2.717 . S
Gd0 O27 2.395 . S
Gd0 O31 2.327 . S
Gd1 C12 2.818 1_554 S
Gd1 O21 2.395 . S
Gd1 O25 2.327 . S
Gd1 O26 2.377 1_554 S
Gd1 O28 2.448 1_554 S
Gd1 O29 2.506 1_554 S
Gd1 O30 2.435 . S
Gd1 O31 2.717 . S
C2 O20 1.240 . S
C2 O21 1.240 . S
C3 Gd0 2.818 . S
C3 C4 1.510 . S
C3 O22 1.249 . S
C3 O23 1.252 . S
C4 C3 1.510 . S
C4 C5 1.404 . S
C4 C6 1.352 . S
C5 C4 1.404 . S
C5 C9 1.389 . S
C5 H32 0.930 . S
C6 C4 1.352 . S
C6 C8 1.374 . S
C6 H33 0.931 . S
C7 C8 1.359 . S
C7 C9 1.364 . S
C8 C6 1.374 . S
C8 C7 1.359 . S
C8 H34 0.931 . S
C9 C5 1.389 . S
C9 C7 1.364 . S
C9 H35 0.931 . S
C10 O24 1.256 . S
C10 O25 1.257 . S
C11 O26 1.240 . S
C11 O27 1.240 1_556 S
C12 Gd1 2.818 1_556 S
C12 C13 1.510 . S
C12 O28 1.249 . S
C12 O29 1.252 . S
C13 C12 1.510 . S
C13 C14 1.404 . S
C13 C15 1.352 . S
C14 C13 1.404 . S
C14 C18 1.389 . S
C14 H36 0.930 . S
C15 C13 1.352 . S
C15 C17 1.374 . S
C15 H37 0.931 . S
C16 C17 1.359 . S
C16 C18 1.364 . S
C17 C15 1.374 . S
C17 C16 1.359 . S
C17 H38 0.931 . S
C18 C14 1.389 . S
C18 C16 1.364 . S
C18 H39 0.931 . S
C19 O30 1.256 . S
C19 O31 1.257 . S
O20 Gd0 2.377 . S
O20 C2 1.240 . S
O21 Gd1 2.395 . S
O21 C2 1.240 . S
O22 Gd0 2.448 . S
O22 C3 1.249 . S
O23 Gd0 2.506 . S
O23 C3 1.252 . S
O24 Gd0 2.435 . S
O24 C10 1.256 . S
O25 Gd0 2.717 . S
O25 Gd1 2.327 . S
O25 C10 1.257 . S
O26 Gd1 2.377 1_556 S
O26 C11 1.240 . S
O27 Gd0 2.395 . S
O27 C11 1.240 1_554 S
O28 Gd1 2.448 1_556 S
O28 C12 1.249 . S
O29 Gd1 2.506 1_556 S
O29 C12 1.252 . S
O30 Gd1 2.435 . S
O30 C19 1.256 . S
O31 Gd0 2.327 . S
O31 Gd1 2.717 . S
O31 C19 1.257 . S
H32 C5 0.930 . S
H33 C6 0.931 . S
H34 C8 0.931 . S
H35 C9 0.931 . S
H36 C14 0.930 . S
H37 C15 0.931 . S
H38 C17 0.931 . S
H39 C18 0.931 . S
Gd40 C43 2.818 . S
Gd40 O60 2.377 . S
Gd40 O62 2.448 . S
Gd40 O63 2.506 . S
Gd40 O64 2.435 . S
Gd40 O65 2.717 . S
Gd40 O67 2.395 . S
Gd40 O71 2.327 . S
Gd41 C52 2.818 . S
Gd41 O61 2.395 . S
Gd41 O65 2.327 . S
Gd41 O66 2.377 . S
Gd41 O68 2.448 . S
Gd41 O69 2.506 . S
Gd41 O70 2.435 . S
Gd41 O71 2.717 . S
C42 O60 1.240 . S
C42 O61 1.240 . S
C43 Gd40 2.818 . S
C43 C44 1.510 . S
C43 O62 1.249 . S
C43 O63 1.252 . S
C44 C43 1.510 . S
C44 C45 1.404 . S
C44 C46 1.352 . S
C45 C44 1.404 . S
C45 C49 1.389 . S
C45 H72 0.930 . S
C46 C44 1.352 . S
C46 C48 1.374 . S
C46 H73 0.931 . S
C47 C48 1.359 . S
C47 C49 1.364 . S
C48 C46 1.374 . S
C48 C47 1.359 . S
C48 H74 0.931 . S
C49 C45 1.389 . S
C49 C47 1.364 . S
C49 H75 0.931 . S
C50 O64 1.256 . S
C50 O65 1.257 . S
C51 O66 1.240 . S
C51 O67 1.240 . S
C52 Gd41 2.818 . S
C52 C53 1.510 . S
C52 O68 1.249 . S
C52 O69 1.252 . S
C53 C52 1.510 . S
C53 C54 1.404 . S
C53 C55 1.352 . S
C54 C53 1.404 . S
C54 C58 1.389 . S
C54 H76 0.930 . S
C55 C53 1.352 . S
C55 C57 1.374 . S
C55 H77 0.931 . S
C56 C57 1.359 . S
C56 C58 1.364 . S
C57 C55 1.374 . S
C57 C56 1.359 . S
C57 H78 0.931 1_655 S
C58 C54 1.389 . S
C58 C56 1.364 . S
C58 H79 0.931 . S
C59 O70 1.256 . S
C59 O71 1.257 . S
O60 Gd40 2.377 . S
O60 C42 1.240 . S
O61 Gd41 2.395 . S
O61 C42 1.240 . S
O62 Gd40 2.448 . S
O62 C43 1.249 . S
O63 Gd40 2.506 . S
O63 C43 1.252 . S
O64 Gd40 2.435 . S
O64 C50 1.256 . S
O65 Gd40 2.717 . S
O65 Gd41 2.327 . S
O65 C50 1.257 . S
O66 Gd41 2.377 . S
O66 C51 1.240 . S
O67 Gd40 2.395 . S
O67 C51 1.240 . S
O68 Gd41 2.448 . S
O68 C52 1.249 . S
O69 Gd41 2.506 . S
O69 C52 1.252 . S
O70 Gd41 2.435 . S
O70 C59 1.256 . S
O71 Gd40 2.327 . S
O71 Gd41 2.717 . S
O71 C59 1.257 . S
H72 C45 0.930 . S
H73 C46 0.931 . S
H74 C48 0.931 . S
H75 C49 0.931 . S
H76 C54 0.930 . S
H77 C55 0.931 . S
H78 C57 0.931 1_455 S
H79 C58 0.931 . S
Gd80 C83 2.818 . S
Gd80 O100 2.377 . S
Gd80 O102 2.448 . S
Gd80 O103 2.506 . S
Gd80 O104 2.435 . S
Gd80 O105 2.717 . S
Gd80 O107 2.395 . S
Gd80 O111 2.327 . S
Gd81 C92 2.818 . S
Gd81 O101 2.395 . S
Gd81 O105 2.327 . S
Gd81 O106 2.377 . S
Gd81 O108 2.448 . S
Gd81 O109 2.506 . S
Gd81 O110 2.435 . S
Gd81 O111 2.717 . S
C82 O100 1.240 . S
C82 O101 1.240 . S
C83 Gd80 2.818 . S
C83 C84 1.510 . S
C83 O102 1.249 . S
C83 O103 1.252 . S
C84 C83 1.510 . S
C84 C85 1.404 . S
C84 C86 1.352 . S
C85 C84 1.404 . S
C85 C89 1.389 . S
C85 H112 0.930 . S
C86 C84 1.352 . S
C86 C88 1.374 . S
C86 H113 0.931 . S
C87 C88 1.359 . S
C87 C89 1.364 . S
C88 C86 1.374 . S
C88 C87 1.359 . S
C88 H114 0.931 . S
C89 C85 1.389 . S
C89 C87 1.364 . S
C89 H115 0.931 . S
C90 O104 1.256 . S
C90 O105 1.257 . S
C91 O106 1.240 . S
C91 O107 1.240 . S
C92 Gd81 2.818 . S
C92 C93 1.510 . S
C92 O108 1.249 . S
C92 O109 1.252 . S
C93 C92 1.510 . S
C93 C94 1.404 . S
C93 C95 1.352 . S
C94 C93 1.404 . S
C94 C98 1.389 . S
C94 H116 0.930 . S
C95 C93 1.352 . S
C95 C97 1.374 . S
C95 H117 0.931 . S
C96 C97 1.359 . S
C96 C98 1.364 . S
C97 C95 1.374 . S
C97 C96 1.359 . S
C97 H118 0.931 1_565 S
C98 C94 1.389 . S
C98 C96 1.364 . S
C98 H119 0.931 . S
C99 O110 1.256 . S
C99 O111 1.257 . S
O100 Gd80 2.377 . S
O100 C82 1.240 . S
O101 Gd81 2.395 . S
O101 C82 1.240 . S
O102 Gd80 2.448 . S
O102 C83 1.249 . S
O103 Gd80 2.506 . S
O103 C83 1.252 . S
O104 Gd80 2.435 . S
O104 C90 1.256 . S
O105 Gd80 2.717 . S
O105 Gd81 2.327 . S
O105 C90 1.257 . S
O106 Gd81 2.377 . S
O106 C91 1.240 . S
O107 Gd80 2.395 . S
O107 C91 1.240 . S
O108 Gd81 2.448 . S
O108 C92 1.249 . S
O109 Gd81 2.506 . S
O109 C92 1.252 . S
O110 Gd81 2.435 . S
O110 C99 1.256 . S
O111 Gd80 2.327 . S
O111 Gd81 2.717 . S
O111 C99 1.257 . S
H112 C85 0.930 . S
H113 C86 0.931 . S
H114 C88 0.931 . S
H115 C89 0.931 . S
H116 C94 0.930 . S
H117 C95 0.931 . S
H118 C97 0.931 1_545 S
H119 C98 0.931 . S
Gd120 C123 2.818 . S
Gd120 O140 2.377 . S
Gd120 O142 2.448 . S
Gd120 O143 2.506 . S
Gd120 O144 2.435 . S
Gd120 O145 2.717 . S
Gd120 O147 2.395 . S
Gd120 O151 2.327 . S
Gd121 C132 2.818 1_554 S
Gd121 O141 2.395 . S
Gd121 O145 2.327 . S
Gd121 O146 2.377 1_554 S
Gd121 O148 2.448 1_554 S
Gd121 O149 2.506 1_554 S
Gd121 O150 2.435 . S
Gd121 O151 2.717 . S
C122 O140 1.240 . S
C122 O141 1.240 . S
C123 Gd120 2.818 . S
C123 C124 1.510 . S
C123 O142 1.249 . S
C123 O143 1.252 . S
C124 C123 1.510 . S
C124 C125 1.404 . S
C124 C126 1.352 . S
C125 C124 1.404 . S
C125 C129 1.389 . S
C125 H152 0.930 . S
C126 C124 1.352 . S
C126 C128 1.374 . S
C126 H153 0.931 . S
C127 C128 1.359 . S
C127 C129 1.364 . S
C128 C126 1.374 . S
C128 C127 1.359 . S
C128 H154 0.931 . S
C129 C125 1.389 . S
C129 C127 1.364 . S
C129 H155 0.931 . S
C130 O144 1.256 . S
C130 O145 1.257 . S
C131 O146 1.240 . S
C131 O147 1.240 1_556 S
C132 Gd121 2.818 1_556 S
C132 C133 1.510 . S
C132 O148 1.249 . S
C132 O149 1.252 . S
C133 C132 1.510 . S
C133 C134 1.404 . S
C133 C135 1.352 . S
C134 C133 1.404 . S
C134 C138 1.389 . S
C134 H156 0.930 . S
C135 C133 1.352 . S
C135 C137 1.374 . S
C135 H157 0.931 . S
C136 C137 1.359 . S
C136 C138 1.364 . S
C137 C135 1.374 . S
C137 C136 1.359 . S
C137 H158 0.931 . S
C138 C134 1.389 . S
C138 C136 1.364 . S
C138 H159 0.931 . S
C139 O150 1.256 . S
C139 O151 1.257 . S
O140 Gd120 2.377 . S
O140 C122 1.240 . S
O141 Gd121 2.395 . S
O141 C122 1.240 . S
O142 Gd120 2.448 . S
O142 C123 1.249 . S
O143 Gd120 2.506 . S
O143 C123 1.252 . S
O144 Gd120 2.435 . S
O144 C130 1.256 . S
O145 Gd120 2.717 . S
O145 Gd121 2.327 . S
O145 C130 1.257 . S
O146 Gd121 2.377 1_556 S
O146 C131 1.240 . S
O147 Gd120 2.395 . S
O147 C131 1.240 1_554 S
O148 Gd121 2.448 1_556 S
O148 C132 1.249 . S
O149 Gd121 2.506 1_556 S
O149 C132 1.252 . S
O150 Gd121 2.435 . S
O150 C139 1.256 . S
O151 Gd120 2.327 . S
O151 Gd121 2.717 . S
O151 C139 1.257 . S
H152 C125 0.930 . S
H153 C126 0.931 . S
H154 C128 0.931 . S
H155 C129 0.931 . S
H156 C134 0.930 . S
H157 C135 0.931 . S
H158 C137 0.931 . S
H159 C138 0.931 . S
Gd160 C163 2.818 . S
Gd160 O180 2.377 . S
Gd160 O182 2.448 . S
Gd160 O183 2.506 . S
Gd160 O184 2.435 . S
Gd160 O185 2.717 . S
Gd160 O187 2.395 . S
Gd160 O191 2.327 . S
Gd161 C172 2.818 . S
Gd161 O181 2.395 . S
Gd161 O185 2.327 . S
Gd161 O186 2.377 . S
Gd161 O188 2.448 . S
Gd161 O189 2.506 . S
Gd161 O190 2.435 . S
Gd161 O191 2.717 . S
C162 O180 1.240 . S
C162 O181 1.240 . S
C163 Gd160 2.818 . S
C163 C164 1.510 . S
C163 O182 1.249 . S
C163 O183 1.252 . S
C164 C163 1.510 . S
C164 C165 1.404 . S
C164 C166 1.352 . S
C165 C164 1.404 . S
C165 C169 1.389 . S
C165 H192 0.930 . S
C166 C164 1.352 . S
C166 C168 1.374 . S
C166 H193 0.931 . S
C167 C168 1.359 . S
C167 C169 1.364 . S
C168 C166 1.374 . S
C168 C167 1.359 . S
C168 H194 0.931 . S
C169 C165 1.389 . S
C169 C167 1.364 . S
C169 H195 0.931 . S
C170 O184 1.256 . S
C170 O185 1.257 . S
C171 O186 1.240 . S
C171 O187 1.240 . S
C172 Gd161 2.818 . S
C172 C173 1.510 . S
C172 O188 1.249 . S
C172 O189 1.252 . S
C173 C172 1.510 . S
C173 C174 1.404 . S
C173 C175 1.352 . S
C174 C173 1.404 . S
C174 C178 1.389 . S
C174 H196 0.930 . S
C175 C173 1.352 . S
C175 C177 1.374 . S
C175 H197 0.931 . S
C176 C177 1.359 . S
C176 C178 1.364 . S
C177 C175 1.374 . S
C177 C176 1.359 . S
C177 H198 0.931 1_455 S
C178 C174 1.389 . S
C178 C176 1.364 . S
C178 H199 0.931 . S
C179 O190 1.256 . S
C179 O191 1.257 . S
O180 Gd160 2.377 . S
O180 C162 1.240 . S
O181 Gd161 2.395 . S
O181 C162 1.240 . S
O182 Gd160 2.448 . S
O182 C163 1.249 . S
O183 Gd160 2.506 . S
O183 C163 1.252 . S
O184 Gd160 2.435 . S
O184 C170 1.256 . S
O185 Gd160 2.717 . S
O185 Gd161 2.327 . S
O185 C170 1.257 . S
O186 Gd161 2.377 . S
O186 C171 1.240 . S
O187 Gd160 2.395 . S
O187 C171 1.240 . S
O188 Gd161 2.448 . S
O188 C172 1.249 . S
O189 Gd161 2.506 . S
O189 C172 1.252 . S
O190 Gd161 2.435 . S
O190 C179 1.256 . S
O191 Gd160 2.327 . S
O191 Gd161 2.717 . S
O191 C179 1.257 . S
H192 C165 0.930 . S
H193 C166 0.931 . S
H194 C168 0.931 . S
H195 C169 0.931 . S
H196 C174 0.930 . S
H197 C175 0.931 . S
H198 C177 0.931 1_655 S
H199 C178 0.931 . S
Gd200 C203 2.818 . S
Gd200 O220 2.377 . S
Gd200 O222 2.448 . S
Gd200 O223 2.506 . S
Gd200 O224 2.435 . S
Gd200 O225 2.717 . S
Gd200 O227 2.395 . S
Gd200 O231 2.327 . S
Gd201 C212 2.818 . S
Gd201 O221 2.395 . S
Gd201 O225 2.327 . S
Gd201 O226 2.377 . S
Gd201 O228 2.448 . S
Gd201 O229 2.506 . S
Gd201 O230 2.435 . S
Gd201 O231 2.717 . S
C202 O220 1.240 . S
C202 O221 1.240 . S
C203 Gd200 2.818 . S
C203 C204 1.510 . S
C203 O222 1.249 . S
C203 O223 1.252 . S
C204 C203 1.510 . S
C204 C205 1.404 . S
C204 C206 1.352 . S
C205 C204 1.404 . S
C205 C209 1.389 . S
C205 H232 0.930 . S
C206 C204 1.352 . S
C206 C208 1.374 . S
C206 H233 0.931 . S
C207 C208 1.359 . S
C207 C209 1.364 . S
C208 C206 1.374 . S
C208 C207 1.359 . S
C208 H234 0.931 . S
C209 C205 1.389 . S
C209 C207 1.364 . S
C209 H235 0.931 . S
C210 O224 1.256 . S
C210 O225 1.257 . S
C211 O226 1.240 . S
C211 O227 1.240 . S
C212 Gd201 2.818 . S
C212 C213 1.510 . S
C212 O228 1.249 . S
C212 O229 1.252 . S
C213 C212 1.510 . S
C213 C214 1.404 . S
C213 C215 1.352 . S
C214 C213 1.404 . S
C214 C218 1.389 . S
C214 H236 0.930 . S
C215 C213 1.352 . S
C215 C217 1.374 . S
C215 H237 0.931 . S
C216 C217 1.359 . S
C216 C218 1.364 . S
C217 C215 1.374 . S
C217 C216 1.359 . S
C217 H238 0.931 1_545 S
C218 C214 1.389 . S
C218 C216 1.364 . S
C218 H239 0.931 . S
C219 O230 1.256 . S
C219 O231 1.257 . S
O220 Gd200 2.377 . S
O220 C202 1.240 . S
O221 Gd201 2.395 . S
O221 C202 1.240 . S
O222 Gd200 2.448 . S
O222 C203 1.249 . S
O223 Gd200 2.506 . S
O223 C203 1.252 . S
O224 Gd200 2.435 . S
O224 C210 1.256 . S
O225 Gd200 2.717 . S
O225 Gd201 2.327 . S
O225 C210 1.257 . S
O226 Gd201 2.377 . S
O226 C211 1.240 . S
O227 Gd200 2.395 . S
O227 C211 1.240 . S
O228 Gd201 2.448 . S
O228 C212 1.249 . S
O229 Gd201 2.506 . S
O229 C212 1.252 . S
O230 Gd201 2.435 . S
O230 C219 1.256 . S
O231 Gd200 2.327 . S
O231 Gd201 2.717 . S
O231 C219 1.257 . S
H232 C205 0.930 . S
H233 C206 0.931 . S
H234 C208 0.931 . S
H235 C209 0.931 . S
H236 C214 0.930 . S
H237 C215 0.931 . S
H238 C217 0.931 1_565 S
H239 C218 0.931 . S
H240 C246 0.930 . S
H241 C250 0.930 . S
H242 C255 0.929 . S
H243 C253 0.929 . S
H244 C248 0.929 . S
H245 C254 0.929 . S
C246 H240 0.930 . S
C246 C247 1.367 . S
C246 C254 1.378 . S
C247 C246 1.367 . S
C247 C255 1.433 . S
C248 H244 0.929 . S
C248 C250 1.378 . S
C248 C252 1.350 . S
C249 C252 1.463 . S
C249 C254 1.350 . S
C249 N257 1.427 . S
C250 H241 0.930 . S
C250 C248 1.378 . S
C250 C251 1.367 . S
C251 C250 1.367 . S
C251 C253 1.433 . S
C252 C248 1.350 . S
C252 C249 1.463 . S
C252 N256 1.427 . S
C253 H243 0.929 . S
C253 C251 1.433 . S
C253 N256 1.384 . S
C254 H245 0.929 . S
C254 C246 1.378 . S
C254 C249 1.350 . S
C255 H242 0.929 . S
C255 C247 1.433 . S
C255 N257 1.384 . S
N256 C252 1.427 . S
N256 C253 1.384 . S
N257 C249 1.427 . S
N257 C255 1.384 . S
H258 C264 0.930 . S
H259 C268 0.930 . S
H260 C273 0.929 . S
H261 C271 0.929 . S
H262 C266 0.929 . S
H263 C272 0.929 . S
C264 H258 0.930 . S
C264 C265 1.367 . S
C264 C272 1.378 . S
C265 C264 1.367 . S
C265 C273 1.433 . S
C266 H262 0.929 . S
C266 C268 1.378 . S
C266 C270 1.350 . S
C267 C270 1.463 . S
C267 C272 1.350 . S
C267 N275 1.427 . S
C268 H259 0.930 . S
C268 C266 1.378 . S
C268 C269 1.367 . S
C269 C268 1.367 . S
C269 C271 1.433 . S
C270 C266 1.350 . S
C270 C267 1.463 . S
C270 N274 1.427 . S
C271 H261 0.929 . S
C271 C269 1.433 . S
C271 N274 1.384 . S
C272 H263 0.929 . S
C272 C264 1.378 . S
C272 C267 1.350 . S
C273 H260 0.929 . S
C273 C265 1.433 . S
C273 N275 1.384 . S
N274 C270 1.427 . S
N274 C271 1.384 . S
N275 C267 1.427 . S
N275 C273 1.384 . S
H276 C282 0.930 . S
H277 C286 0.930 . S
H278 C291 0.929 . S
H279 C289 0.929 . S
H280 C284 0.929 . S
H281 C290 0.929 . S
C282 H276 0.930 . S
C282 C283 1.367 . S
C282 C290 1.378 . S
C283 C282 1.367 . S
C283 C291 1.433 . S
C284 H280 0.929 . S
C284 C286 1.378 . S
C284 C288 1.350 . S
C285 C288 1.463 . S
C285 C290 1.350 . S
C285 N293 1.427 . S
C286 H277 0.930 . S
C286 C284 1.378 . S
C286 C287 1.367 . S
C287 C286 1.367 . S
C287 C289 1.433 . S
C288 C284 1.350 . S
C288 C285 1.463 . S
C288 N292 1.427 . S
C289 H279 0.929 . S
C289 C287 1.433 . S
C289 N292 1.384 . S
C290 H281 0.929 . S
C290 C282 1.378 . S
C290 C285 1.350 . S
C291 H278 0.929 . S
C291 C283 1.433 . S
C291 N293 1.384 . S
N292 C288 1.427 . S
N292 C289 1.384 . S
N293 C285 1.427 . S
N293 C291 1.384 . S
H294 C300 0.930 . S
H295 C304 0.930 . S
H296 C309 0.929 . S
H297 C307 0.929 . S
H298 C302 0.929 . S
H299 C308 0.929 . S
C300 H294 0.930 . S
C300 C301 1.367 . S
C300 C308 1.378 . S
C301 C300 1.367 . S
C301 C309 1.433 . S
C302 H298 0.929 . S
C302 C304 1.378 . S
C302 C306 1.350 . S
C303 C306 1.463 . S
C303 C308 1.350 . S
C303 N311 1.427 . S
C304 H295 0.930 . S
C304 C302 1.378 . S
C304 C305 1.367 . S
C305 C304 1.367 . S
C305 C307 1.433 . S
C306 C302 1.350 . S
C306 C303 1.463 . S
C306 N310 1.427 . S
C307 H297 0.929 . S
C307 C305 1.433 . S
C307 N310 1.384 . S
C308 H299 0.929 . S
C308 C300 1.378 . S
C308 C303 1.350 . S
C309 H296 0.929 . S
C309 C301 1.433 . S
C309 N311 1.384 . S
N310 C306 1.427 . S
N310 C307 1.384 . S
N311 C303 1.427 . S
N311 C309 1.384 . S
H312 C318 0.930 . S
H313 C322 0.930 . S
H314 C327 0.929 . S
H315 C325 0.929 . S
H316 C320 0.929 . S
H317 C326 0.929 . S
C318 H312 0.930 . S
C318 C319 1.367 . S
C318 C326 1.378 . S
C319 C318 1.367 . S
C319 C327 1.433 . S
C320 H316 0.929 . S
C320 C322 1.378 . S
C320 C324 1.350 . S
C321 C324 1.463 . S
C321 C326 1.350 . S
C321 N329 1.427 . S
C322 H313 0.930 . S
C322 C320 1.378 . S
C322 C323 1.367 . S
C323 C322 1.367 . S
C323 C325 1.433 . S
C324 C320 1.350 . S
C324 C321 1.463 . S
C324 N328 1.427 . S
C325 H315 0.929 . S
C325 C323 1.433 . S
C325 N328 1.384 . S
C326 H317 0.929 . S
C326 C318 1.378 . S
C326 C321 1.350 . S
C327 H314 0.929 . S
C327 C319 1.433 . S
C327 N329 1.384 . S
N328 C324 1.427 . S
N328 C325 1.384 . S
N329 C321 1.427 . S
N329 C327 1.384 . S
H330 C336 0.930 . S
H331 C340 0.930 . S
H332 C345 0.929 . S
H333 C343 0.929 . S
H334 C338 0.929 . S
H335 C344 0.929 . S
C336 H330 0.930 . S
C336 C337 1.367 . S
C336 C344 1.378 . S
C337 C336 1.367 . S
C337 C345 1.433 . S
C338 H334 0.929 . S
C338 C340 1.378 . S
C338 C342 1.350 . S
C339 C342 1.463 . S
C339 C344 1.350 . S
C339 N347 1.427 . S
C340 H331 0.930 . S
C340 C338 1.378 . S
C340 C341 1.367 . S
C341 C340 1.367 . S
C341 C343 1.433 . S
C342 C338 1.350 . S
C342 C339 1.463 . S
C342 N346 1.427 . S
C343 H333 0.929 . S
C343 C341 1.433 . S
C343 N346 1.384 . S
C344 H335 0.929 . S
C344 C336 1.378 . S
C344 C339 1.350 . S
C345 H332 0.929 . S
C345 C337 1.433 . S
C345 N347 1.384 . S
N346 C342 1.427 . S
N346 C343 1.384 . S
N347 C339 1.427 . S
N347 C345 1.384 . S
H348 C354 0.930 . S
H349 C358 0.930 . S
H350 C363 0.929 . S
H351 C361 0.929 . S
H352 C356 0.929 . S
H353 C362 0.929 . S
C354 H348 0.930 . S
C354 C355 1.367 . S
C354 C362 1.378 . S
C355 C354 1.367 . S
C355 C363 1.433 . S
C356 H352 0.929 . S
C356 C358 1.378 . S
C356 C360 1.350 . S
C357 C360 1.463 . S
C357 C362 1.350 . S
C357 N365 1.427 . S
C358 H349 0.930 . S
C358 C356 1.378 . S
C358 C359 1.367 . S
C359 C358 1.367 . S
C359 C361 1.433 . S
C360 C356 1.350 . S
C360 C357 1.463 . S
C360 N364 1.427 . S
C361 H351 0.929 . S
C361 C359 1.433 . S
C361 N364 1.384 . S
C362 H353 0.929 . S
C362 C354 1.378 . S
C362 C357 1.350 . S
C363 H350 0.929 . S
C363 C355 1.433 . S
C363 N365 1.384 . S
N364 C360 1.427 . S
N364 C361 1.384 . S
N365 C357 1.427 . S
N365 C363 1.384 . S
H366 C372 0.930 . S
H367 C376 0.930 . S
H368 C381 0.929 . S
H369 C379 0.929 . S
H370 C374 0.929 . S
H371 C380 0.929 . S
C372 H366 0.930 . S
C372 C373 1.367 . S
C372 C380 1.378 . S
C373 C372 1.367 . S
C373 C381 1.433 . S
C374 H370 0.929 . S
C374 C376 1.378 . S
C374 C378 1.350 . S
C375 C378 1.463 1_455 S
C375 C380 1.350 . S
C375 N383 1.427 . S
C376 H367 0.930 . S
C376 C374 1.378 . S
C376 C377 1.367 . S
C377 C376 1.367 . S
C377 C379 1.433 . S
C378 C374 1.350 . S
C378 C375 1.463 1_655 S
C378 N382 1.427 . S
C379 H369 0.929 . S
C379 C377 1.433 . S
C379 N382 1.384 . S
C380 H371 0.929 . S
C380 C372 1.378 . S
C380 C375 1.350 . S
C381 H368 0.929 . S
C381 C373 1.433 . S
C381 N383 1.384 . S
N382 C378 1.427 . S
N382 C379 1.384 . S
N383 C375 1.427 . S
N383 C381 1.384 . S
H384 C390 0.930 . S
H385 C394 0.930 . S
H386 C399 0.929 . S
H387 C397 0.929 . S
H388 C392 0.929 . S
H389 C398 0.929 . S
C390 H384 0.930 . S
C390 C391 1.367 . S
C390 C398 1.378 . S
C391 C390 1.367 . S
C391 C399 1.433 . S
C392 H388 0.929 . S
C392 C394 1.378 . S
C392 C396 1.350 . S
C393 C396 1.463 1_545 S
C393 C398 1.350 . S
C393 N401 1.427 . S
C394 H385 0.930 . S
C394 C392 1.378 . S
C394 C395 1.367 . S
C395 C394 1.367 . S
C395 C397 1.433 . S
C396 C392 1.350 . S
C396 C393 1.463 1_565 S
C396 N400 1.427 . S
C397 H387 0.929 . S
C397 C395 1.433 . S
C397 N400 1.384 . S
C398 H389 0.929 . S
C398 C390 1.378 . S
C398 C393 1.350 . S
C399 H386 0.929 . S
C399 C391 1.433 . S
C399 N401 1.384 . S
N400 C396 1.427 . S
N400 C397 1.384 . S
N401 C393 1.427 . S
N401 C399 1.384 . S
H402 C408 0.930 . S
H403 C412 0.930 . S
H404 C417 0.929 . S
H405 C415 0.929 . S
H406 C410 0.929 . S
H407 C416 0.929 . S
C408 H402 0.930 . S
C408 C409 1.367 . S
C408 C416 1.378 . S
C409 C408 1.367 . S
C409 C417 1.433 . S
C410 H406 0.929 . S
C410 C412 1.378 . S
C410 C414 1.350 . S
C411 C414 1.463 . S
C411 C416 1.350 . S
C411 N419 1.427 . S
C412 H403 0.930 . S
C412 C410 1.378 . S
C412 C413 1.367 . S
C413 C412 1.367 . S
C413 C415 1.433 . S
C414 C410 1.350 . S
C414 C411 1.463 . S
C414 N418 1.427 . S
C415 H405 0.929 . S
C415 C413 1.433 . S
C415 N418 1.384 . S
C416 H407 0.929 . S
C416 C408 1.378 . S
C416 C411 1.350 . S
C417 H404 0.929 . S
C417 C409 1.433 . S
C417 N419 1.384 . S
N418 C414 1.427 . S
N418 C415 1.384 . S
N419 C411 1.427 . S
N419 C417 1.384 . S
H420 C426 0.930 . S
H421 C430 0.930 1_556 S
H422 C435 0.929 1_556 S
H423 C433 0.929 . S
H424 C428 0.929 1_556 S
H425 C434 0.929 . S
C426 H420 0.930 . S
C426 C427 1.367 . S
C426 C434 1.378 . S
C427 C426 1.367 . S
C427 C435 1.433 . S
C428 H424 0.929 1_554 S
C428 C430 1.378 . S
C428 C432 1.350 . S
C429 C432 1.463 1_455 S
C429 C434 1.350 . S
C429 N437 1.427 . S
C430 H421 0.930 1_554 S
C430 C428 1.378 . S
C430 C431 1.367 . S
C431 C430 1.367 . S
C431 C433 1.433 . S
C432 C428 1.350 . S
C432 C429 1.463 1_655 S
C432 N436 1.427 . S
C433 H423 0.929 . S
C433 C431 1.433 . S
C433 N436 1.384 . S
C434 H425 0.929 . S
C434 C426 1.378 . S
C434 C429 1.350 . S
C435 H422 0.929 1_554 S
C435 C427 1.433 . S
C435 N437 1.384 . S
N436 C432 1.427 . S
N436 C433 1.384 . S
N437 C429 1.427 . S
N437 C435 1.384 . S
H438 C444 0.930 . S
H439 C448 0.930 . S
H440 C453 0.929 . S
H441 C451 0.929 . S
H442 C446 0.929 . S
H443 C452 0.929 . S
C444 H438 0.930 . S
C444 C445 1.367 . S
C444 C452 1.378 1_565 S
C445 C444 1.367 . S
C445 C453 1.433 . S
C446 H442 0.929 . S
C446 C448 1.378 1_565 S
C446 C450 1.350 1_565 S
C447 C450 1.463 1_565 S
C447 C452 1.350 1_565 S
C447 N455 1.427 . S
C448 H439 0.930 . S
C448 C446 1.378 1_545 S
C448 C449 1.367 . S
C449 C448 1.367 . S
C449 C451 1.433 . S
C450 C446 1.350 1_545 S
C450 C447 1.463 1_545 S
C450 N454 1.427 . S
C451 H441 0.929 . S
C451 C449 1.433 . S
C451 N454 1.384 . S
C452 H443 0.929 . S
C452 C444 1.378 1_545 S
C452 C447 1.350 1_545 S
C453 H440 0.929 . S
C453 C445 1.433 . S
C453 N455 1.384 . S
N454 C450 1.427 . S
N454 C451 1.384 . S
N455 C447 1.427 . S
N455 C453 1.384 . S
H456 C462 0.930 . S
H457 C466 0.930 . S
H458 C471 0.929 . S
H459 C469 0.929 . S
H460 C464 0.929 . S
H461 C470 0.929 . S
C462 H456 0.930 . S
C462 C463 1.367 . S
C462 C470 1.378 . S
C463 C462 1.367 . S
C463 C471 1.433 . S
C464 H460 0.929 . S
C464 C466 1.378 . S
C464 C468 1.350 . S
C465 C468 1.463 . S
C465 C470 1.350 . S
C465 N473 1.427 . S
C466 H457 0.930 . S
C466 C464 1.378 . S
C466 C467 1.367 . S
C467 C466 1.367 . S
C467 C469 1.433 . S
C468 C464 1.350 . S
C468 C465 1.463 . S
C468 N472 1.427 . S
C469 H459 0.929 . S
C469 C467 1.433 . S
C469 N472 1.384 . S
C470 H461 0.929 . S
C470 C462 1.378 . S
C470 C465 1.350 . S
C471 H458 0.929 . S
C471 C463 1.433 . S
C471 N473 1.384 . S
N472 C468 1.427 . S
N472 C469 1.384 . S
N473 C465 1.427 . S
N473 C471 1.384 . S
H474 C480 0.930 . S
H475 C484 0.930 . S
H476 C489 0.929 . S
H477 C487 0.929 . S
H478 C482 0.914 1_655 S
H479 C488 0.929 . S
C480 H474 0.930 . S
C480 C481 1.367 1_455 S
C480 C488 1.378 . S
C481 C480 1.367 1_655 S
C481 C489 1.433 . S
C482 H478 0.914 1_455 S
C482 C484 1.378 . S
C482 C486 1.350 . S
C483 C486 1.463 . S
C483 C488 1.350 . S
C483 N491 1.427 1_455 S
C484 H475 0.930 . S
C484 C482 1.378 . S
C484 C485 1.367 . S
C485 C484 1.367 . S
C485 C487 1.433 . S
C486 C482 1.350 . S
C486 C483 1.463 . S
C486 N490 1.427 . S
C487 H477 0.929 . S
C487 C485 1.433 . S
C487 N490 1.384 . S
C488 H479 0.929 . S
C488 C480 1.378 . S
C488 C483 1.350 . S
C489 H476 0.929 . S
C489 C481 1.433 . S
C489 N491 1.384 . S
N490 C486 1.427 . S
N490 C487 1.384 . S
N491 C483 1.427 1_655 S
N491 C489 1.384 . S
H492 C498 0.930 . S
H493 C502 0.930 . S
H494 C507 0.929 . S
H495 C505 0.929 . S
H496 C500 0.929 . S
H497 C506 0.929 1_565 S
C498 H492 0.930 . S
C498 C499 1.367 . S
C498 C506 1.378 1_565 S
C499 C498 1.367 . S
C499 C507 1.433 1_565 S
C500 H496 0.929 . S
C500 C502 1.378 . S
C500 C504 1.350 . S
C501 C504 1.463 . S
C501 C506 1.350 . S
C501 N509 1.427 . S
C502 H493 0.930 . S
C502 C500 1.378 . S
C502 C503 1.367 . S
C503 C502 1.367 . S
C503 C505 1.433 . S
C504 C500 1.350 . S
C504 C501 1.463 . S
C504 N508 1.427 . S
C505 H495 0.929 . S
C505 C503 1.433 . S
C505 N508 1.384 . S
C506 H497 0.929 1_545 S
C506 C498 1.378 1_545 S
C506 C501 1.350 . S
C507 H494 0.929 . S
C507 C499 1.433 1_545 S
C507 N509 1.384 . S
N508 C504 1.427 . S
N508 C505 1.384 . S
N509 C501 1.427 . S
N509 C507 1.384 . S
H510 C516 0.930 . S
H511 C520 0.930 . S
H512 C525 0.929 . S
H513 C523 0.929 . S
H514 C518 0.929 . S
H515 C524 0.929 . S
C516 H510 0.930 . S
C516 C517 1.367 . S
C516 C524 1.378 . S
C517 C516 1.367 . S
C517 C525 1.433 . S
C518 H514 0.929 . S
C518 C520 1.378 . S
C518 C522 1.350 . S
C519 C522 1.463 . S
C519 C524 1.350 . S
C519 N527 1.427 . S
C520 H511 0.930 . S
C520 C518 1.378 . S
C520 C521 1.367 . S
C521 C520 1.367 . S
C521 C523 1.433 . S
C522 C518 1.350 . S
C522 C519 1.463 . S
C522 N526 1.427 . S
C523 H513 0.929 . S
C523 C521 1.433 . S
C523 N526 1.384 . S
C524 H515 0.929 . S
C524 C516 1.378 . S
C524 C519 1.350 . S
C525 H512 0.929 . S
C525 C517 1.433 . S
C525 N527 1.384 . S
N526 C522 1.427 . S
N526 C523 1.384 . S
N527 C519 1.427 . S
N527 C525 1.384 . S
H528 C534 0.930 . S
H529 C538 0.930 . S
H530 C543 0.929 . S
H531 C541 0.929 . S
H532 C536 0.929 . S
H533 C542 0.929 . S
C534 H528 0.930 . S
C534 C535 1.367 . S
C534 C542 1.378 . S
C535 C534 1.367 . S
C535 C543 1.433 1_455 S
C536 H532 0.929 . S
C536 C538 1.378 . S
C536 C540 1.350 . S
C537 C540 1.463 . S
C537 C542 1.350 1_655 S
C537 N545 1.427 . S
C538 H529 0.930 . S
C538 C536 1.378 . S
C538 C539 1.367 . S
C539 C538 1.367 . S
C539 C541 1.433 . S
C540 C536 1.350 . S
C540 C537 1.463 . S
C540 N544 1.427 . S
C541 H531 0.929 . S
C541 C539 1.433 . S
C541 N544 1.384 . S
C542 H533 0.929 . S
C542 C534 1.378 . S
C542 C537 1.350 1_455 S
C543 H530 0.929 . S
C543 C535 1.433 1_655 S
C543 N545 1.384 . S
N544 C540 1.427 . S
N544 C541 1.384 . S
N545 C537 1.427 . S
N545 C543 1.384 . S
H546 C552 0.930 . S
H547 C556 0.930 . S
H548 C561 0.929 . S
H549 C559 0.929 . S
H550 C554 0.929 . S
H551 C560 0.929 . S
C552 H546 0.930 . S
C552 C553 1.367 1_565 S
C552 C560 1.378 . S
C553 C552 1.367 1_545 S
C553 C561 1.433 . S
C554 H550 0.929 . S
C554 C556 1.378 . S
C554 C558 1.350 . S
C555 C558 1.463 . S
C555 C560 1.350 . S
C555 N563 1.427 1_565 S
C556 H547 0.930 . S
C556 C554 1.378 . S
C556 C557 1.367 . S
C557 C556 1.367 . S
C557 C559 1.433 . S
C558 C554 1.350 . S
C558 C555 1.463 . S
C558 N562 1.427 . S
C559 H549 0.929 . S
C559 C557 1.433 . S
C559 N562 1.384 . S
C560 H551 0.929 . S
C560 C552 1.378 . S
C560 C555 1.350 . S
C561 H548 0.929 . S
C561 C553 1.433 . S
C561 N563 1.384 . S
N562 C558 1.427 . S
N562 C559 1.384 . S
N563 C555 1.427 1_545 S
N563 C561 1.384 . S
C247 C171 1.189 . S
C251 C7 1.190 . S
C265 C211 1.188 . S
C269 C47 1.190 . S
C283 C11 1.189 . S
C287 C87 1.190 . S
C301 C51 1.185 . S
C305 C127 1.189 . S
C319 C91 1.186 . S
C323 C167 1.190 . S
C337 C131 1.185 . S
C341 C207 1.189 . S
C355 C10 0.988 . S
C359 C130 0.982 . S
C373 C170 0.981 . S
C377 C50 0.976 . S
C391 C210 0.985 . S
C395 C90 0.980 . S
C409 C99 1.103 . S
C413 C219 1.108 . S
C427 C19 1.106 . S
C431 C139 1.102 . S
C445 C179 1.106 . S
C449 C59 1.109 . S
C463 C202 1.311 . S
C467 C16 1.277 . S
C481 C56 1.281 . S
C485 C2 1.312 . S
C499 C96 1.277 . S
C503 C42 1.310 . S
C517 C82 1.312 . S
C521 C136 1.282 . S
C535 C176 1.283 . S
C539 C122 1.310 . S
C553 C216 1.283 . S
C557 C162 1.312 . S
